# Generated by pormake.
# Topology gar, (4,6)-cn, num edge types: 1
# Building blocks:
#     Node 0, Type 0, BuildingBlock: GALJAG_clean_sbu_0, # of connection points: 4
#     Node 1, Type 0, BuildingBlock: GALJAG_clean_sbu_0, # of connection points: 4
#     Node 2, Type 0, BuildingBlock: GALJAG_clean_sbu_0, # of connection points: 4
#     Node 3, Type 0, BuildingBlock: GALJAG_clean_sbu_0, # of connection points: 4
#     Node 4, Type 0, BuildingBlock: GALJAG_clean_sbu_0, # of connection points: 4
#     Node 5, Type 0, BuildingBlock: GALJAG_clean_sbu_0, # of connection points: 4
#     Node 6, Type 0, BuildingBlock: GALJAG_clean_sbu_0, # of connection points: 4
#     Node 7, Type 0, BuildingBlock: GALJAG_clean_sbu_0, # of connection points: 4
#     Node 8, Type 0, BuildingBlock: GALJAG_clean_sbu_0, # of connection points: 4
#     Node 9, Type 0, BuildingBlock: GALJAG_clean_sbu_0, # of connection points: 4
#     Node 10, Type 0, BuildingBlock: GALJAG_clean_sbu_0, # of connection points: 4
#     Node 11, Type 0, BuildingBlock: GALJAG_clean_sbu_0, # of connection points: 4
#     Node 12, Type 0, BuildingBlock: GALJAG_clean_sbu_0, # of connection points: 4
#     Node 13, Type 0, BuildingBlock: GALJAG_clean_sbu_0, # of connection points: 4
#     Node 14, Type 0, BuildingBlock: GALJAG_clean_sbu_0, # of connection points: 4
#     Node 15, Type 0, BuildingBlock: GALJAG_clean_sbu_0, # of connection points: 4
#     Node 16, Type 0, BuildingBlock: GALJAG_clean_sbu_0, # of connection points: 4
#     Node 17, Type 0, BuildingBlock: GALJAG_clean_sbu_0, # of connection points: 4
#     Node 18, Type 0, BuildingBlock: GALJAG_clean_sbu_0, # of connection points: 4
#     Node 19, Type 0, BuildingBlock: GALJAG_clean_sbu_0, # of connection points: 4
#     Node 20, Type 0, BuildingBlock: GALJAG_clean_sbu_0, # of connection points: 4
#     Node 21, Type 0, BuildingBlock: GALJAG_clean_sbu_0, # of connection points: 4
#     Node 22, Type 0, BuildingBlock: GALJAG_clean_sbu_0, # of connection points: 4
#     Node 23, Type 0, BuildingBlock: GALJAG_clean_sbu_0, # of connection points: 4
#     Node 24, Type 1, BuildingBlock: NUHQIS_clean_sbu_0, # of connection points: 6
#     Node 25, Type 1, BuildingBlock: NUHQIS_clean_sbu_0, # of connection points: 6
#     Node 26, Type 1, BuildingBlock: NUHQIS_clean_sbu_0, # of connection points: 6
#     Node 27, Type 1, BuildingBlock: NUHQIS_clean_sbu_0, # of connection points: 6
#     Node 28, Type 1, BuildingBlock: NUHQIS_clean_sbu_0, # of connection points: 6
#     Node 29, Type 1, BuildingBlock: NUHQIS_clean_sbu_0, # of connection points: 6
#     Node 30, Type 1, BuildingBlock: NUHQIS_clean_sbu_0, # of connection points: 6
#     Node 31, Type 1, BuildingBlock: NUHQIS_clean_sbu_0, # of connection points: 6
#     Node 32, Type 1, BuildingBlock: NUHQIS_clean_sbu_0, # of connection points: 6
#     Node 33, Type 1, BuildingBlock: NUHQIS_clean_sbu_0, # of connection points: 6
#     Node 34, Type 1, BuildingBlock: NUHQIS_clean_sbu_0, # of connection points: 6
#     Node 35, Type 1, BuildingBlock: NUHQIS_clean_sbu_0, # of connection points: 6
#     Node 36, Type 1, BuildingBlock: NUHQIS_clean_sbu_0, # of connection points: 6
#     Node 37, Type 1, BuildingBlock: NUHQIS_clean_sbu_0, # of connection points: 6
#     Node 38, Type 1, BuildingBlock: NUHQIS_clean_sbu_0, # of connection points: 6
#     Node 39, Type 1, BuildingBlock: NUHQIS_clean_sbu_0, # of connection points: 6
#     Edge 40, Type (0, 1), BuildingBlock: CIFDUS_clean_linker_0, # of connection points: 2
#     Edge 41, Type (0, 1), BuildingBlock: CIFDUS_clean_linker_0, # of connection points: 2
#     Edge 42, Type (0, 1), BuildingBlock: CIFDUS_clean_linker_0, # of connection points: 2
#     Edge 43, Type (0, 1), BuildingBlock: CIFDUS_clean_linker_0, # of connection points: 2
#     Edge 44, Type (0, 1), BuildingBlock: CIFDUS_clean_linker_0, # of connection points: 2
#     Edge 45, Type (0, 1), BuildingBlock: CIFDUS_clean_linker_0, # of connection points: 2
#     Edge 46, Type (0, 1), BuildingBlock: CIFDUS_clean_linker_0, # of connection points: 2
#     Edge 47, Type (0, 1), BuildingBlock: CIFDUS_clean_linker_0, # of connection points: 2
#     Edge 48, Type (0, 1), BuildingBlock: CIFDUS_clean_linker_0, # of connection points: 2
#     Edge 49, Type (0, 1), BuildingBlock: CIFDUS_clean_linker_0, # of connection points: 2
#     Edge 50, Type (0, 1), BuildingBlock: CIFDUS_clean_linker_0, # of connection points: 2
#     Edge 51, Type (0, 1), BuildingBlock: CIFDUS_clean_linker_0, # of connection points: 2
#     Edge 52, Type (0, 1), BuildingBlock: CIFDUS_clean_linker_0, # of connection points: 2
#     Edge 53, Type (0, 1), BuildingBlock: CIFDUS_clean_linker_0, # of connection points: 2
#     Edge 54, Type (0, 1), BuildingBlock: CIFDUS_clean_linker_0, # of connection points: 2
#     Edge 55, Type (0, 1), BuildingBlock: CIFDUS_clean_linker_0, # of connection points: 2
#     Edge 56, Type (0, 1), BuildingBlock: CIFDUS_clean_linker_0, # of connection points: 2
#     Edge 57, Type (0, 1), BuildingBlock: CIFDUS_clean_linker_0, # of connection points: 2
#     Edge 58, Type (0, 1), BuildingBlock: CIFDUS_clean_linker_0, # of connection points: 2
#     Edge 59, Type (0, 1), BuildingBlock: CIFDUS_clean_linker_0, # of connection points: 2
#     Edge 60, Type (0, 1), BuildingBlock: CIFDUS_clean_linker_0, # of connection points: 2
#     Edge 61, Type (0, 1), BuildingBlock: CIFDUS_clean_linker_0, # of connection points: 2
#     Edge 62, Type (0, 1), BuildingBlock: CIFDUS_clean_linker_0, # of connection points: 2
#     Edge 63, Type (0, 1), BuildingBlock: CIFDUS_clean_linker_0, # of connection points: 2
#     Edge 64, Type (0, 1), BuildingBlock: CIFDUS_clean_linker_0, # of connection points: 2
#     Edge 65, Type (0, 1), BuildingBlock: CIFDUS_clean_linker_0, # of connection points: 2
#     Edge 66, Type (0, 1), BuildingBlock: CIFDUS_clean_linker_0, # of connection points: 2
#     Edge 67, Type (0, 1), BuildingBlock: CIFDUS_clean_linker_0, # of connection points: 2
#     Edge 68, Type (0, 1), BuildingBlock: CIFDUS_clean_linker_0, # of connection points: 2
#     Edge 69, Type (0, 1), BuildingBlock: CIFDUS_clean_linker_0, # of connection points: 2
#     Edge 70, Type (0, 1), BuildingBlock: CIFDUS_clean_linker_0, # of connection points: 2
#     Edge 71, Type (0, 1), BuildingBlock: CIFDUS_clean_linker_0, # of connection points: 2
#     Edge 72, Type (0, 1), BuildingBlock: CIFDUS_clean_linker_0, # of connection points: 2
#     Edge 73, Type (0, 1), BuildingBlock: CIFDUS_clean_linker_0, # of connection points: 2
#     Edge 74, Type (0, 1), BuildingBlock: CIFDUS_clean_linker_0, # of connection points: 2
#     Edge 75, Type (0, 1), BuildingBlock: CIFDUS_clean_linker_0, # of connection points: 2
#     Edge 76, Type (0, 1), BuildingBlock: CIFDUS_clean_linker_0, # of connection points: 2
#     Edge 77, Type (0, 1), BuildingBlock: CIFDUS_clean_linker_0, # of connection points: 2
#     Edge 78, Type (0, 1), BuildingBlock: CIFDUS_clean_linker_0, # of connection points: 2
#     Edge 79, Type (0, 1), BuildingBlock: CIFDUS_clean_linker_0, # of connection points: 2
#     Edge 80, Type (0, 1), BuildingBlock: CIFDUS_clean_linker_0, # of connection points: 2
#     Edge 81, Type (0, 1), BuildingBlock: CIFDUS_clean_linker_0, # of connection points: 2
#     Edge 82, Type (0, 1), BuildingBlock: CIFDUS_clean_linker_0, # of connection points: 2
#     Edge 83, Type (0, 1), BuildingBlock: CIFDUS_clean_linker_0, # of connection points: 2
#     Edge 84, Type (0, 1), BuildingBlock: CIFDUS_clean_linker_0, # of connection points: 2
#     Edge 85, Type (0, 1), BuildingBlock: CIFDUS_clean_linker_0, # of connection points: 2
#     Edge 86, Type (0, 1), BuildingBlock: CIFDUS_clean_linker_0, # of connection points: 2
#     Edge 87, Type (0, 1), BuildingBlock: CIFDUS_clean_linker_0, # of connection points: 2
#     Edge 88, Type (0, 1), BuildingBlock: CIFDUS_clean_linker_0, # of connection points: 2
#     Edge 89, Type (0, 1), BuildingBlock: CIFDUS_clean_linker_0, # of connection points: 2
#     Edge 90, Type (0, 1), BuildingBlock: CIFDUS_clean_linker_0, # of connection points: 2
#     Edge 91, Type (0, 1), BuildingBlock: CIFDUS_clean_linker_0, # of connection points: 2
#     Edge 92, Type (0, 1), BuildingBlock: CIFDUS_clean_linker_0, # of connection points: 2
#     Edge 93, Type (0, 1), BuildingBlock: CIFDUS_clean_linker_0, # of connection points: 2
#     Edge 94, Type (0, 1), BuildingBlock: CIFDUS_clean_linker_0, # of connection points: 2
#     Edge 95, Type (0, 1), BuildingBlock: CIFDUS_clean_linker_0, # of connection points: 2
#     Edge 96, Type (0, 1), BuildingBlock: CIFDUS_clean_linker_0, # of connection points: 2
#     Edge 97, Type (0, 1), BuildingBlock: CIFDUS_clean_linker_0, # of connection points: 2
#     Edge 98, Type (0, 1), BuildingBlock: CIFDUS_clean_linker_0, # of connection points: 2
#     Edge 99, Type (0, 1), BuildingBlock: CIFDUS_clean_linker_0, # of connection points: 2
#     Edge 100, Type (0, 1), BuildingBlock: CIFDUS_clean_linker_0, # of connection points: 2
#     Edge 101, Type (0, 1), BuildingBlock: CIFDUS_clean_linker_0, # of connection points: 2
#     Edge 102, Type (0, 1), BuildingBlock: CIFDUS_clean_linker_0, # of connection points: 2
#     Edge 103, Type (0, 1), BuildingBlock: CIFDUS_clean_linker_0, # of connection points: 2
#     Edge 104, Type (0, 1), BuildingBlock: CIFDUS_clean_linker_0, # of connection points: 2
#     Edge 105, Type (0, 1), BuildingBlock: CIFDUS_clean_linker_0, # of connection points: 2
#     Edge 106, Type (0, 1), BuildingBlock: CIFDUS_clean_linker_0, # of connection points: 2
#     Edge 107, Type (0, 1), BuildingBlock: CIFDUS_clean_linker_0, # of connection points: 2
#     Edge 108, Type (0, 1), BuildingBlock: CIFDUS_clean_linker_0, # of connection points: 2
#     Edge 109, Type (0, 1), BuildingBlock: CIFDUS_clean_linker_0, # of connection points: 2
#     Edge 110, Type (0, 1), BuildingBlock: CIFDUS_clean_linker_0, # of connection points: 2
#     Edge 111, Type (0, 1), BuildingBlock: CIFDUS_clean_linker_0, # of connection points: 2
#     Edge 112, Type (0, 1), BuildingBlock: CIFDUS_clean_linker_0, # of connection points: 2
#     Edge 113, Type (0, 1), BuildingBlock: CIFDUS_clean_linker_0, # of connection points: 2
#     Edge 114, Type (0, 1), BuildingBlock: CIFDUS_clean_linker_0, # of connection points: 2
#     Edge 115, Type (0, 1), BuildingBlock: CIFDUS_clean_linker_0, # of connection points: 2
#     Edge 116, Type (0, 1), BuildingBlock: CIFDUS_clean_linker_0, # of connection points: 2
#     Edge 117, Type (0, 1), BuildingBlock: CIFDUS_clean_linker_0, # of connection points: 2
#     Edge 118, Type (0, 1), BuildingBlock: CIFDUS_clean_linker_0, # of connection points: 2
#     Edge 119, Type (0, 1), BuildingBlock: CIFDUS_clean_linker_0, # of connection points: 2
#     Edge 120, Type (0, 1), BuildingBlock: CIFDUS_clean_linker_0, # of connection points: 2
#     Edge 121, Type (0, 1), BuildingBlock: CIFDUS_clean_linker_0, # of connection points: 2
#     Edge 122, Type (0, 1), BuildingBlock: CIFDUS_clean_linker_0, # of connection points: 2
#     Edge 123, Type (0, 1), BuildingBlock: CIFDUS_clean_linker_0, # of connection points: 2
#     Edge 124, Type (0, 1), BuildingBlock: CIFDUS_clean_linker_0, # of connection points: 2
#     Edge 125, Type (0, 1), BuildingBlock: CIFDUS_clean_linker_0, # of connection points: 2
#     Edge 126, Type (0, 1), BuildingBlock: CIFDUS_clean_linker_0, # of connection points: 2
#     Edge 127, Type (0, 1), BuildingBlock: CIFDUS_clean_linker_0, # of connection points: 2
#     Edge 128, Type (0, 1), BuildingBlock: CIFDUS_clean_linker_0, # of connection points: 2
#     Edge 129, Type (0, 1), BuildingBlock: CIFDUS_clean_linker_0, # of connection points: 2
#     Edge 130, Type (0, 1), BuildingBlock: CIFDUS_clean_linker_0, # of connection points: 2
#     Edge 131, Type (0, 1), BuildingBlock: CIFDUS_clean_linker_0, # of connection points: 2
#     Edge 132, Type (0, 1), BuildingBlock: CIFDUS_clean_linker_0, # of connection points: 2
#     Edge 133, Type (0, 1), BuildingBlock: CIFDUS_clean_linker_0, # of connection points: 2
#     Edge 134, Type (0, 1), BuildingBlock: CIFDUS_clean_linker_0, # of connection points: 2
#     Edge 135, Type (0, 1), BuildingBlock: CIFDUS_clean_linker_0, # of connection points: 2
# Relax obj value: 0.261
# Max RMSD: 0.332
# Mean RMSD: 0.162
data_MOF--net-gar--node1-GALJAG_clean_sbu_0--node2-NUHQIS_clean_sbu_0--edge1-CIFDUS_clean_linker_0
_symmetry_space_group_name_H-M    P1
_symmetry_Int_Tables_number       1
_symmetry_cell_setting            triclinic
loop_
_symmetry_equiv_pos_as_xyz
'x, y, z'
_cell_length_a     50.613376
_cell_length_b     53.189301
_cell_length_c     50.203145
_cell_angle_alpha  93.859823
_cell_angle_beta   96.094671
_cell_angle_gamma 99.41118
loop_
_atom_site_label
_atom_site_type_symbol
_atom_site_fract_x
_atom_site_fract_y
_atom_site_fract_z
_atom_type_partial_charge
In0 In 0.09188 0.30089 0.42273 0.0
O1 O 0.118 0.29397 0.38438 0.0
O2 O 0.14026 0.31173 0.41941 0.0
C3 C 0.03737 0.29738 0.39549 0.0
C4 C 0.08934 0.25157 0.4503 0.0
C5 C 0.09348 0.35449 0.44666 0.0
O6 O 0.05854 0.30153 0.38382 0.0
O7 O 0.04352 0.29397 0.41995 0.0
O8 O 0.09756 0.33582 0.4604 0.0
O9 O 0.08941 0.34628 0.42201 0.0
C10 C 0.14164 0.3037 0.39525 0.0
O11 O 0.09437 0.27432 0.46181 0.0
O12 O 0.08571 0.25337 0.4251 0.0
In13 In 0.07266 0.8106 0.6572 0.0
O14 O 0.07072 0.83704 0.6181 0.0
O15 O 0.07808 0.85804 0.65476 0.0
C16 C 0.07256 0.75898 0.62848 0.0
C17 C 0.12642 0.815 0.68647 0.0
C18 C 1.02289 0.80729 0.6852 0.0
O19 O 0.06409 0.77787 0.61807 0.0
O20 O 0.08068 0.7657 0.65309 0.0
O21 O 0.04641 0.8179 0.69554 0.0
O22 O 1.02441 0.79834 0.66141 0.0
C23 C 0.07503 0.85975 0.62954 0.0
O24 O 0.10477 0.80671 0.69609 0.0
O25 O 0.121 0.82174 0.66305 0.0
In26 In 0.59135 0.80113 0.92044 0.0
O27 O 0.61436 0.79605 0.88035 0.0
O28 O 0.64024 0.81053 0.91429 0.0
C29 C 0.53794 0.79859 0.89127 0.0
C30 C 0.58708 0.74973 0.94454 0.0
C31 C 0.5939 0.8536 0.94844 0.0
O32 O 0.55891 0.79522 0.88071 0.0
O33 O 0.54338 0.80275 0.91656 0.0
O34 O 0.59993 0.83399 0.95951 0.0
O35 O 0.58741 0.84725 0.92348 0.0
C36 C 0.63896 0.80353 0.8894 0.0
O37 O 0.59407 0.77148 0.95801 0.0
O38 O 0.58224 0.754 0.92012 0.0
In39 In 0.57242 0.3113 0.15865 0.0
O40 O 0.56594 0.27862 0.1195 0.0
O41 O 0.58011 0.26616 0.15528 0.0
C42 C 0.57471 0.35999 0.12991 0.0
C43 C 0.52208 0.30789 0.18588 0.0
C44 C 0.62445 0.31524 0.19149 0.0
O45 O 0.56994 0.33709 0.11891 0.0
O46 O 0.57846 0.35868 0.15518 0.0
O47 O 0.60165 0.30625 0.19842 0.0
O48 O 0.62143 0.3232 0.1683 0.0
C49 C 0.57336 0.25951 0.13046 0.0
O50 O 0.54507 0.32028 0.1956 0.0
O51 O 0.5243 0.29739 0.16292 0.0
In52 In 0.14302 0.8748 0.16729 0.0
O53 O 0.1691 0.84981 0.14729 0.0
O54 O 0.12732 0.84359 0.13355 0.0
C55 C 0.13971 0.91385 0.1365 0.0
C56 C 0.10037 0.86568 0.19491 0.0
C57 C 0.18156 0.87764 0.20912 0.0
O58 O 0.1192 0.89975 0.14274 0.0
O59 O 0.16194 0.90869 0.14639 0.0
O60 O 0.18016 0.89613 0.19477 0.0
O61 O 0.16346 0.85833 0.20247 0.0
C62 C 0.14983 0.83688 0.13169 0.0
O63 O 0.11568 0.88722 0.19728 0.0
O64 O 0.10636 0.84927 0.1783 0.0
In65 In 0.526 0.73339 0.41405 0.0
O66 O 0.55518 0.7189 0.38744 0.0
O67 O 0.55196 0.75841 0.38909 0.0
C68 C 0.47849 0.71312 0.38558 0.0
C69 C 0.54355 0.70889 0.45562 0.0
C70 C 0.51774 0.77904 0.43477 0.0
O71 O 0.5006 0.71412 0.37586 0.0
O72 O 0.48088 0.71937 0.41056 0.0
O73 O 0.53367 0.76647 0.44667 0.0
O74 O 0.5062 0.76874 0.41235 0.0
C75 C 0.56278 0.74066 0.37945 0.0
O76 O 0.55831 0.72673 0.44625 0.0
O77 O 0.52013 0.7024 0.44311 0.0
In78 In 0.66349 0.3972 0.70333 0.0
O79 O 0.6562 0.36771 0.66713 0.0
O80 O 0.68221 0.36102 0.701 0.0
C81 C 0.64955 0.43423 0.67332 0.0
C82 C 0.62111 0.37811 0.72793 0.0
C83 C 0.7084 0.41439 0.73789 0.0
O84 O 0.66924 0.42331 0.66934 0.0
O85 O 0.63768 0.42723 0.69302 0.0
O86 O 0.68534 0.40859 0.7453 0.0
O87 O 0.70866 0.4128 0.71271 0.0
C88 C 0.67069 0.35304 0.67776 0.0
O89 O 0.63806 0.39738 0.73802 0.0
O90 O 0.62538 0.3688 0.70536 0.0
In91 In 1.01997 0.21592 0.90803 0.0
O92 O 1.02554 0.20595 0.9514 0.0
O93 O 0.03665 0.1809 0.92156 0.0
C94 C 1.02451 0.26351 0.93184 0.0
C95 C 0.05692 0.22432 0.87361 0.0
C96 C 0.97096 0.20105 0.87912 0.0
O97 O 1.00246 0.25116 0.92012 0.0
O98 O 0.04421 0.25173 0.93181 0.0
O99 O 0.99273 0.2043 0.86885 0.0
O100 O 0.97397 0.20287 0.90449 0.0
C101 C 0.03637 0.18678 0.94625 0.0
O102 O 0.04343 0.24094 0.88091 0.0
O103 O 0.05157 0.20311 0.88346 0.0
In104 In 0.53892 0.13766 0.30927 0.0
O105 O 0.57266 0.12294 0.29041 0.0
O106 O 0.56474 0.15977 0.28119 0.0
C107 C 0.56509 0.15223 0.35874 0.0
C108 C 0.50097 0.16129 0.28507 0.0
C109 C 0.5121 0.09061 0.31635 0.0
O110 O 0.57643 0.14412 0.33956 0.0
O111 O 0.5409 0.15491 0.35239 0.0
O112 O 0.51648 0.10898 0.3343 0.0
O113 O 0.52133 0.09577 0.29459 0.0
C114 C 0.57891 0.14259 0.2781 0.0
O115 O 0.50312 0.13849 0.27856 0.0
O116 O 0.51797 0.17244 0.30426 0.0
In117 In 0.3483 0.18257 0.53518 0.0
O118 O 0.34335 0.21858 0.56639 0.0
O119 O 0.35869 0.18871 0.58349 0.0
C120 C 0.34597 0.20672 0.48356 0.0
C121 C 0.39575 0.15608 0.5368 0.0
C122 C 0.29391 0.15492 0.53712 0.0
O123 O 0.35852 0.21773 0.50565 0.0
O124 O 0.33504 0.18431 0.48752 0.0
O125 O 0.31254 0.14461 0.5282 0.0
O126 O 0.30259 0.17824 0.54452 0.0
C127 C 0.35106 0.20994 0.58834 0.0
O128 O 0.3711 0.14539 0.53392 0.0
O129 O 0.39695 0.18019 0.53895 0.0
In130 In 0.24158 0.07921 0.86424 0.0
O131 O 0.20708 0.0539 0.83769 0.0
O132 O 0.24114 0.06993 0.81928 0.0
C133 C 0.21131 0.08097 0.90464 0.0
C134 C 0.2791 0.0497 0.87498 0.0
C135 C 0.25288 0.12942 0.8572 0.0
O136 O 0.20145 0.07684 0.88036 0.0
O137 O 0.23673 0.08418 0.90878 0.0
O138 O 0.26914 0.11838 0.87099 0.0
O139 O 0.23118 0.11524 0.84747 0.0
C140 C 0.21771 0.05683 0.81627 0.0
O141 O 0.28447 0.07113 0.86561 0.0
O142 O 0.25487 0.04336 0.87919 0.0
In143 In 0.35329 0.90684 0.05439 0.0
O144 O 0.33667 0.87248 0.07751 0.0
O145 O 0.36958 0.89922 0.09719 0.0
C146 C 0.34178 0.88899 1.00064 0.0
C147 C 0.31798 0.93768 0.06782 0.0
C148 C 0.4047 0.93151 0.05625 0.0
O149 O 0.3479 0.87486 0.01877 0.0
O150 O 0.34092 0.91148 1.00964 0.0
O151 O 0.38478 0.94266 0.05828 0.0
O152 O 0.39883 0.90736 0.05285 0.0
C153 C 0.35275 0.87931 0.09876 0.0
O154 O 0.3425 0.94573 0.06617 0.0
O155 O 0.31075 0.91389 0.06196 0.0
In156 In 0.31167 0.43015 0.04626 0.0
O157 O 0.31115 0.39134 0.07006 0.0
O158 O 0.31293 0.42444 0.09467 0.0
C159 C 0.31078 0.40117 0.99404 0.0
C160 C 0.26496 0.45815 0.04552 0.0
C161 C 0.36604 0.45973 0.04995 0.0
O162 O 0.32748 0.42106 1.00298 0.0
O163 O 0.29454 0.39544 1.01123 0.0
O164 O 0.34645 0.46313 0.0334 0.0
O165 O 0.35815 0.44252 0.06501 0.0
C166 C 0.31241 0.40052 0.09431 0.0
O167 O 0.2889 0.46657 0.05635 0.0
O168 O 0.26421 0.43583 0.03461 0.0
In169 In 0.80782 0.22527 0.03513 0.0
O170 O 0.82211 0.1876 0.02569 0.0
O171 O 0.85214 0.22045 0.0374 0.0
C172 C 0.75871 0.19485 0.02917 0.0
C173 C 0.81397 0.24772 0.08689 0.0
C174 C 0.81083 0.25174 0.99001 0.0
O175 O 0.78041 0.18642 0.0274 0.0
O176 O 0.76165 0.21886 0.0341 0.0
O177 O 0.83096 0.25144 1.00696 0.0
O178 O 0.78916 0.23963 0.99626 0.0
C179 C 0.84691 0.19676 0.03032 0.0
O180 O 0.80998 0.2598 0.06646 0.0
O181 O 0.81477 0.22447 0.0813 0.0
In182 In 0.12549 0.4919 0.26961 0.0
O183 O 0.15496 0.48624 0.30521 0.0
O184 O 0.1346 0.45296 0.28149 0.0
C185 C 0.1617 0.53397 0.26481 0.0
C186 C 0.10553 0.47302 0.21905 0.0
C187 C 0.08364 0.50839 0.28965 0.0
O188 O 0.14794 0.53173 0.28428 0.0
O189 O 0.15746 0.51479 0.24775 0.0
O190 O 0.09851 0.5212 0.27503 0.0
O191 O 0.08969 0.48676 0.29416 0.0
C192 C 0.15207 0.46235 0.30094 0.0
O193 O 0.0908 0.47814 0.23669 0.0
O194 O 0.13034 0.47597 0.22738 0.0
In195 In 0.81241 0.93188 0.54343 0.0
O196 O 0.80533 0.89362 0.56841 0.0
O197 O 0.81933 0.92712 0.5924 0.0
C198 C 0.81389 0.90717 0.48953 0.0
C199 C 0.76412 0.95794 0.53972 0.0
C200 C 0.86779 0.95833 0.54558 0.0
O201 O 0.80173 0.89624 0.50766 0.0
O202 O 0.82412 0.92996 0.49814 0.0
O203 O 0.84777 0.96987 0.54683 0.0
O204 O 0.86003 0.93436 0.54446 0.0
C205 C 0.81234 0.90312 0.59254 0.0
O206 O 0.78763 0.96823 0.55046 0.0
O207 O 0.76498 0.9352 0.53086 0.0
In208 In 0.91847 0.03167 0.2242 0.0
O209 O 0.95266 0.06216 0.2164 0.0
O210 O 0.92952 0.0399 0.18244 0.0
C211 C 0.95135 0.02312 0.26684 0.0
C212 C 0.88735 0.06483 0.23942 0.0
C213 C 0.89089 0.98411 0.20959 0.0
O214 O 0.95887 0.02445 0.24373 0.0
O215 O 0.92709 0.02544 0.26817 0.0
O216 O 0.87941 1.00294 0.21425 0.0
O217 O 0.91615 0.98963 0.21058 0.0
C218 C 0.94924 0.05729 0.19128 0.0
O219 O 0.88705 0.05719 0.21499 0.0
O220 O 0.90335 0.05586 0.25566 0.0
In221 In 0.3172 0.71559 0.53603 0.0
O222 O 0.33591 0.68124 0.54923 0.0
O223 O 0.35896 0.70761 0.52737 0.0
C224 C 0.26823 0.68486 0.5245 0.0
C225 C 0.31847 0.73898 0.58702 0.0
C226 C 0.32073 0.7423 0.49116 0.0
O227 O 0.28987 0.67631 0.52981 0.0
O228 O 0.27128 0.70894 0.52463 0.0
O229 O 0.32427 0.7534 0.51469 0.0
O230 O 0.31525 0.71828 0.49051 0.0
C231 C 0.3574 0.68709 0.53877 0.0
O232 O 0.33903 0.74103 0.5746 0.0
O233 O 0.29759 0.72659 0.57331 0.0
In234 In 0.42996 0.52653 0.70986 0.0
O235 O 0.39146 0.54361 0.70149 0.0
O236 O 0.4263 0.56715 0.72294 0.0
C237 C 0.40247 0.47843 0.70238 0.0
C238 C 0.46217 0.53548 0.67142 0.0
C239 C 0.45886 0.52733 0.75831 0.0
O240 O 0.39374 0.49666 0.71395 0.0
O241 O 0.4244 0.48483 0.69275 0.0
O242 O 0.43651 0.51285 0.75172 0.0
O243 O 0.46609 0.54214 0.74094 0.0
C244 C 0.40203 0.56523 0.71315 0.0
O245 O 0.46801 0.5237 0.69156 0.0
O246 O 0.43873 0.54101 0.6693 0.0
In247 In 0.62642 1.0154 0.79235 0.0
O248 O 0.64182 0.98046 0.77557 0.0
O249 O 0.64803 0.98955 0.81787 0.0
C250 C 0.66424 0.05582 0.81247 0.0
C251 C 0.61685 0.02924 0.74253 0.0
C252 C 0.57731 1.00896 0.80981 0.0
O253 O 0.66881 0.03778 0.79705 0.0
O254 O 0.64041 0.05325 0.81857 0.0
O255 O 0.58115 1.01442 0.78647 0.0
O256 O 0.59814 1.00581 0.82443 0.0
C257 C 0.65254 0.97564 0.7981 0.0
O258 O 0.61411 1.00592 0.74732 0.0
O259 O 0.62481 0.04513 0.76272 0.0
In260 In 0.84811 0.68057 0.03294 0.0
O261 O 0.87212 0.64343 0.02944 0.0
O262 O 0.89622 0.67902 0.03748 0.0
C263 C 0.79543 0.64924 0.03561 0.0
C264 C 0.84981 0.7104 0.08475 0.0
C265 C 0.84783 0.70566 0.98166 0.0
O266 O 0.81688 0.64838 0.05076 0.0
O267 O 0.80043 0.66475 0.01806 0.0
O268 O 0.85529 0.71746 1.00487 0.0
O269 O 0.84099 0.682 0.98436 0.0
C270 C 0.89639 0.65517 0.03408 0.0
O271 O 0.8648 0.6944 0.07931 0.0
O272 O 0.83469 0.71308 0.06367 0.0
In273 In 0.05117 0.63326 0.82851 0.0
O274 O 1.00919 0.63681 0.83803 0.0
O275 O 1.02101 0.6507 0.80154 0.0
C276 C 0.03505 0.58212 0.82837 0.0
C277 C 0.08709 0.6444 0.79384 0.0
C278 C 0.07737 0.65532 0.87609 0.0
O279 O 1.03306 0.59371 0.80735 0.0
O280 O 0.04575 0.59616 0.84917 0.0
O281 O 0.08791 0.64217 0.85982 0.0
O282 O 0.05424 0.65918 0.86728 0.0
C283 C 1.00261 0.64661 0.81667 0.0
O284 O 0.08528 0.62459 0.80644 0.0
O285 O 0.07033 0.65891 0.79841 0.0
In286 In 0.86038 0.40493 0.5552 0.0
O287 O 0.84226 0.37773 0.58579 0.0
O288 O 0.88398 0.39207 0.59189 0.0
C289 C 0.84678 0.38197 0.5036 0.0
C290 C 0.82669 0.43866 0.56454 0.0
C291 C 0.91125 0.4301 0.55517 0.0
O292 O 0.84974 0.36938 0.52387 0.0
O293 O 0.85027 0.4058 0.50938 0.0
O294 O 0.8941 0.43884 0.56796 0.0
O295 O 0.90278 0.40851 0.54226 0.0
C296 C 0.86423 0.37917 0.60073 0.0
O297 O 0.85155 0.44523 0.56346 0.0
O298 O 0.81835 0.41488 0.5603 0.0
In299 In 0.73388 0.58018 0.34769 0.0
O300 O 0.76715 0.55615 0.35017 0.0
O301 O 0.74735 0.55969 0.3115 0.0
C302 C 0.76056 0.62849 0.35716 0.0
C303 C 0.69151 0.58578 0.3131 0.0
C304 C 0.71413 0.56316 0.39207 0.0
O305 O 0.77231 0.60994 0.35165 0.0
O306 O 0.73572 0.62244 0.35913 0.0
O307 O 0.70473 0.55334 0.36882 0.0
O308 O 0.73415 0.58087 0.39296 0.0
C309 C 0.76541 0.55075 0.32515 0.0
O310 O 0.69216 0.56561 0.32485 0.0
O311 O 0.71253 0.60247 0.31807 0.0
Tb312 Tb 0.0803 0.08252 0.05527 0.0
Eu313 Eu 0.1366 0.0952 0.09865 0.0
C314 C 0.13758 0.08189 0.03647 0.0
C315 C 0.10668 0.03721 0.07479 0.0
C316 C 1.01623 0.09792 0.02503 0.0
C317 C 0.97324 0.10775 1.00644 0.0
C318 C 0.99305 0.09224 1.00635 0.0
C319 C 1.01945 0.11926 0.04381 0.0
C320 C 0.99978 0.13484 0.04385 0.0
C321 C 0.97642 0.12927 0.02518 0.0
C322 C 0.03751 0.08223 0.02436 0.0
O323 O 0.07033 0.07322 0.09461 0.0
O324 O 0.1024 0.10138 0.12262 0.0
O325 O 0.13117 0.13005 0.07634 0.0
O326 O 0.08675 0.11981 0.07712 0.0
C327 C 0.07805 0.08756 0.11731 0.0
O328 O 0.16018 0.08938 0.13612 0.0
O329 O 0.17893 0.1133 0.10786 0.0
O330 O 0.14714 0.07753 0.06058 0.0
O331 O 0.11389 0.08869 0.03153 0.0
O332 O 0.09144 0.04491 0.05515 0.0
O333 O 0.1214 0.05277 0.09434 0.0
C334 C 0.1073 0.13661 0.07317 0.0
O335 O 0.06103 0.09466 0.02065 0.0
O336 O 0.0394 0.06698 0.0435 0.0
C337 C 0.20239 0.08217 0.12495 0.0
C338 C 0.23868 0.0482 0.11543 0.0
C339 C 0.24646 0.0698 0.13428 0.0
C340 C 0.22842 0.08669 0.13899 0.0
C341 C 0.19472 0.06066 0.10636 0.0
C342 C 0.21254 0.04398 0.10156 0.0
C343 C 0.18292 0.09972 0.12817 0.0
H344 H 0.95561 0.10311 0.99162 0.0
H345 H 0.99037 0.07593 0.99158 0.0
H346 H 0.03722 0.12395 0.05841 0.0
H347 H 1.00271 0.15105 0.05876 0.0
H348 H 0.26642 0.07361 0.14541 0.0
H349 H 0.23482 0.10324 0.15337 0.0
H350 H 0.17488 0.05694 0.09519 0.0
H351 H 0.20595 0.02807 0.08641 0.0
Tb352 Tb 0.36075 0.83541 0.31135 0.0
Eu353 Eu 0.32699 0.78309 0.27737 0.0
C354 C 0.2991 0.82923 0.29358 0.0
C355 C 0.33272 0.78972 0.34286 0.0
C356 C 0.39964 0.90178 0.32779 0.0
C357 C 0.41093 0.94758 0.34002 0.0
C358 C 0.39881 0.92317 0.34538 0.0
C359 C 0.41219 0.90526 0.30433 0.0
C360 C 0.42457 0.92961 0.29911 0.0
C361 C 0.42443 0.95109 0.31706 0.0
C362 C 0.38874 0.87598 0.33497 0.0
O363 O 0.38145 0.80357 0.31931 0.0
O364 O 0.37132 0.78329 0.27759 0.0
O365 O 0.33281 0.81176 0.24688 0.0
O366 O 0.36965 0.83859 0.26947 0.0
C367 C 0.3862 0.78694 0.30081 0.0
O368 O 0.32559 0.74349 0.26268 0.0
O369 O 0.29191 0.76254 0.25099 0.0
O370 O 0.29767 0.8046 0.29524 0.0
O371 O 0.32252 0.84407 0.29358 0.0
O372 O 0.34122 0.81463 0.34272 0.0
O373 O 0.329 0.77413 0.32071 0.0
C374 C 0.3534 0.83029 0.24712 0.0
O375 O 0.36262 0.87024 0.33476 0.0
O376 O 0.39879 0.85711 0.32435 0.0
C377 C 0.28248 0.71832 0.25549 0.0
C378 C 0.24863 0.67299 0.26426 0.0
C379 C 0.26388 0.68867 0.28609 0.0
C380 C 0.28066 0.71122 0.28173 0.0
C381 C 0.26695 0.70308 0.23376 0.0
C382 C 0.25009 0.68061 0.23808 0.0
C383 C 0.30115 0.74104 0.25041 0.0
H384 H 0.40985 0.96368 0.35402 0.0
H385 H 0.38912 0.92093 0.36352 0.0
H386 H 0.41304 0.88908 0.29032 0.0
H387 H 0.43497 0.9314 0.28139 0.0
H388 H 0.26334 0.68322 0.30645 0.0
H389 H 0.29255 0.72288 0.29875 0.0
H390 H 0.26808 0.70843 0.21341 0.0
H391 H 0.2382 0.66919 0.22092 0.0
Tb392 Tb 0.56783 0.04284 0.52755 0.0
Eu393 Eu 0.60725 0.0941 0.55134 0.0
C394 C 0.58284 0.05353 0.58932 0.0
C395 C 0.54022 0.09362 0.54242 0.0
C396 C 0.53596 0.97547 0.50287 0.0
C397 C 0.53557 0.93443 0.52139 0.0
C398 C 0.53784 0.96099 0.52519 0.0
C399 C 0.53211 0.96319 0.47687 0.0
C400 C 0.53005 0.9368 0.47308 0.0
C401 C 0.53145 0.92211 0.49527 0.0
C402 C 0.5372 1.00323 0.5058 0.0
O403 O 0.56529 0.07134 0.49918 0.0
O404 O 0.60853 0.09063 0.5068 0.0
O405 O 0.63608 0.06436 0.55162 0.0
O406 O 0.60935 0.03083 0.52572 0.0
C407 C 0.5855 0.08648 0.49168 0.0
O408 O 0.62755 0.13207 0.54491 0.0
O409 O 0.63604 0.11661 0.58315 0.0
O410 O 0.58771 0.07799 0.58601 0.0
O411 O 0.57927 0.03635 0.56882 0.0
O412 O 0.53738 0.06814 0.53796 0.0
O413 O 0.56516 0.1072 0.54636 0.0
C414 C 0.63359 0.04124 0.53887 0.0
O415 O 0.53508 1.01371 0.52962 0.0
O416 O 0.55563 1.01668 0.49373 0.0
C417 C 0.64164 0.16158 0.58261 0.0
C418 C 0.64493 0.21225 0.60435 0.0
C419 C 0.61964 0.19653 0.59691 0.0
C420 C 0.61801 0.17133 0.58608 0.0
C421 C 0.66681 0.17694 0.59052 0.0
C422 C 0.66848 0.20208 0.60131 0.0
C423 C 0.64064 0.1362 0.56901 0.0
H424 H 0.53666 0.92354 0.53882 0.0
H425 H 0.54084 0.97009 0.54549 0.0
H426 H 0.53067 0.97406 0.45943 0.0
H427 H 0.52755 0.92792 0.45271 0.0
H428 H 0.60115 0.20374 0.59934 0.0
H429 H 0.59839 0.15963 0.57998 0.0
H430 H 0.68522 0.16968 0.58773 0.0
H431 H 0.68823 0.21377 0.60652 0.0
Tb432 Tb 0.30034 0.30991 0.78148 0.0
Eu433 Eu 0.36182 0.30677 0.79803 0.0
C434 C 0.34509 0.352 0.76611 0.0
C435 C 0.33399 0.28465 0.73707 0.0
C436 C 0.22607 0.30245 0.77656 0.0
C437 C 0.17754 0.29895 0.77346 0.0
C438 C 0.20194 0.30795 0.76391 0.0
C439 C 0.22574 0.28776 0.7987 0.0
C440 C 0.20139 0.27873 0.80823 0.0
C441 C 0.17707 0.28431 0.79575 0.0
C442 C 0.25152 0.3119 0.76651 0.0
O443 O 0.29862 0.27228 0.7959 0.0
O444 O 0.33896 0.27904 0.82237 0.0
O445 O 0.35049 0.33347 0.832 0.0
O446 O 0.30472 0.32136 0.82627 0.0
C447 C 0.31502 0.26562 0.81504 0.0
O448 O 0.39338 0.28396 0.80576 0.0
O449 O 0.40258 0.32532 0.8136 0.0
O450 O 0.36231 0.33615 0.76773 0.0
O451 O 0.32248 0.34728 0.77665 0.0
O452 O 0.31524 0.29866 0.74221 0.0
O453 O 0.35215 0.28183 0.75718 0.0
C454 C 0.32695 0.3334 0.84151 0.0
O455 O 0.26776 0.32978 0.78196 0.0
O456 O 0.26416 0.29428 0.75753 0.0
C457 C 0.4366 0.30453 0.79964 0.0
C458 C 0.48468 0.31101 0.77604 0.0
C459 C 0.48506 0.30761 0.80359 0.0
C460 C 0.46111 0.30441 0.81532 0.0
C461 C 0.43591 0.3067 0.77192 0.0
C462 C 0.45985 0.30987 0.76015 0.0
C463 C 0.41213 0.30396 0.81263 0.0
H464 H 0.15906 0.30335 0.76337 0.0
H465 H 0.20199 0.3192 0.7467 0.0
H466 H 0.24433 0.28342 0.80866 0.0
H467 H 0.20167 0.26782 0.82569 0.0
H468 H 0.50394 0.30818 0.81617 0.0
H469 H 0.46181 0.30262 0.83675 0.0
H470 H 0.41699 0.30682 0.75963 0.0
H471 H 0.45905 0.31271 0.73893 0.0
Tb472 Tb 0.07984 0.04028 0.51367 0.0
Eu473 Eu 0.08108 0.07112 0.56777 0.0
C474 C 0.13773 0.07438 0.53929 0.0
C475 C 0.08399 1.00686 0.56613 0.0
C476 C 0.07976 1.02145 0.44002 0.0
C477 C 0.07408 1.00259 0.39407 0.0
C478 C 0.0794 1.00039 0.42158 0.0
C479 C 0.07827 0.04553 0.43072 0.0
C480 C 0.07272 0.04768 0.40323 0.0
C481 C 0.06894 0.02586 0.38499 0.0
C482 C 0.07546 1.01675 0.46774 0.0
O483 O 0.03933 0.02558 0.52674 0.0
O484 O 0.03545 0.06044 0.55319 0.0
O485 O 0.07823 0.10492 0.54064 0.0
O486 O 0.07789 0.08113 0.50101 0.0
C487 C 1.02396 0.03819 0.54041 0.0
O488 O 0.06147 0.07703 0.60393 0.0
O489 O 0.10101 0.09819 0.60124 0.0
O490 O 0.12541 0.08247 0.5593 0.0
O491 O 0.12398 0.05658 0.52093 0.0
O492 O 0.08337 1.00719 0.53958 0.0
O493 O 0.08461 0.02931 0.58008 0.0
C494 C 0.07839 0.10423 0.51417 0.0
O495 O 0.09666 1.01845 0.48537 0.0
O496 O 0.05648 0.02736 0.47715 0.0
C497 C 0.09326 0.08152 0.64201 0.0
C498 C 0.11516 0.06354 0.68935 0.0
C499 C 0.09861 0.08235 0.69059 0.0
C500 C 0.08768 0.09128 0.66699 0.0
C501 C 0.1091 0.06225 0.64073 0.0
C502 C 0.11985 0.05325 0.66416 0.0
C503 C 0.08291 0.09115 0.61704 0.0
H504 H 0.07084 0.98551 0.38028 0.0
H505 H 0.08051 0.98168 0.42851 0.0
H506 H 0.07857 0.06201 0.44473 0.0
H507 H 0.06848 0.06571 0.39653 0.0
H508 H 0.09492 0.0908 0.70979 0.0
H509 H 0.07539 0.1061 0.66826 0.0
H510 H 0.11367 0.05453 0.6216 0.0
H511 H 0.13227 0.03857 0.66258 0.0
Tb512 Tb 0.32144 0.78061 0.80041 0.0
Eu513 Eu 0.34002 0.83828 0.7885 0.0
C514 C 0.32428 0.82497 0.84761 0.0
C515 C 0.27683 0.81055 0.77206 0.0
C516 C 0.30652 0.71011 0.79029 0.0
C517 C 0.30688 0.66448 0.78669 0.0
C518 C 0.30308 0.68655 0.8015 0.0
C519 C 0.31227 0.71119 0.76363 0.0
C520 C 0.31619 0.68923 0.74888 0.0
C521 C 0.31439 0.66586 0.76059 0.0
C522 C 0.30675 0.73376 0.80712 0.0
O523 O 0.32334 0.77826 0.75701 0.0
O524 O 0.35227 0.81526 0.75381 0.0
O525 O 0.37471 0.82937 0.81801 0.0
O526 O 0.367 0.78631 0.80787 0.0
C527 C 0.33913 0.79295 0.74315 0.0
O528 O 0.33079 0.87571 0.78034 0.0
O529 O 0.37183 0.86883 0.78038 0.0
O530 O 0.32676 0.84237 0.83017 0.0
O531 O 0.32326 0.80058 0.84022 0.0
O532 O 0.2825 0.79498 0.79069 0.0
O533 O 0.29706 0.8268 0.76502 0.0
C534 C 0.38337 0.80731 0.81924 0.0
O535 O 0.33055 0.74672 0.81549 0.0
O536 O 0.29051 0.74858 0.79811 0.0
C537 C 0.36516 0.90952 0.79689 0.0
C538 C 0.36986 0.95503 0.83006 0.0
C539 C 0.36943 0.95559 0.80202 0.0
C540 C 0.367 0.93294 0.78556 0.0
C541 C 0.36817 0.90901 0.82494 0.0
C542 C 0.37062 0.93167 0.84146 0.0
C543 C 0.35595 0.88582 0.77957 0.0
H544 H 0.30567 0.64672 0.79624 0.0
H545 H 0.29869 0.68544 0.82209 0.0
H546 H 0.3149 0.72917 0.75459 0.0
H547 H 0.32185 0.69073 0.72875 0.0
H548 H 0.36847 0.97317 0.79254 0.0
H549 H 0.36463 0.93356 0.76391 0.0
H550 H 0.36679 0.89097 0.83397 0.0
H551 H 0.37116 0.93068 0.86299 0.0
Tb552 Tb 0.60168 0.04921 0.06334 0.0
Eu553 Eu 0.56704 0.06547 1.01407 0.0
C554 C 0.58682 1.00587 1.01231 0.0
C555 C 0.63027 0.08483 0.02449 0.0
C556 C 0.64508 0.05747 0.12807 0.0
C557 C 0.65605 0.06448 0.17629 0.0
C558 C 0.64813 0.0478 0.15319 0.0
C559 C 0.65285 0.08373 0.12586 0.0
C560 C 0.6611 0.10046 0.14898 0.0
C561 C 0.661 0.09115 0.17457 0.0
C562 C 0.62954 0.04086 0.10547 0.0
O563 O 0.59419 0.08966 0.07764 0.0
O564 O 0.57138 0.10339 0.04109 0.0
O565 O 0.53849 0.05302 0.04363 0.0
O566 O 0.56245 0.0244 0.06081 0.0
C567 C 0.58288 0.10831 0.06625 0.0
O568 O 0.52757 0.07032 0.99468 0.0
O569 O 0.56312 0.07536 0.97251 0.0
O570 O 0.57467 0.02353 1.00026 0.0
O571 O 0.59877 1.01216 0.03735 0.0
O572 O 0.63112 0.0644 0.03741 0.0
O573 O 0.60718 0.09139 1.01643 0.0
C574 C 0.53946 0.03231 0.05585 0.0
O575 O 0.60362 0.04068 0.10355 0.0
O576 O 0.6387 0.04271 0.08227 0.0
C577 C 0.52086 0.08235 0.94892 0.0
C578 C 0.49696 0.07812 0.89579 0.0
C579 C 0.4822 0.06741 0.91571 0.0
C580 C 0.49429 0.06934 0.94229 0.0
C581 C 0.53307 0.09742 0.93029 0.0
C582 C 0.52089 0.0957 0.90386 0.0
C583 C 0.53746 0.07617 0.97252 0.0
H584 H 0.6555 0.05646 0.19552 0.0
H585 H 0.64218 0.02755 0.15516 0.0
H586 H 0.65067 0.09149 0.10649 0.0
H587 H 0.6653 0.12082 0.14689 0.0
H588 H 0.46347 0.05416 0.91003 0.0
H589 H 0.48426 0.05804 0.95664 0.0
H590 H 0.55329 0.10822 0.93532 0.0
H591 H 0.53256 0.10466 0.8891 0.0
Tb592 Tb 0.34193 0.33136 0.30623 0.0
Eu593 Eu 0.32047 0.27918 0.2741 0.0
C594 C 0.34237 0.28186 0.33998 0.0
C595 C 0.38455 0.30703 0.27042 0.0
C596 C 0.33358 0.39284 0.33395 0.0
C597 C 0.30722 0.41521 0.3624 0.0
C598 C 0.32972 0.40346 0.35936 0.0
C599 C 0.31532 0.39523 0.31152 0.0
C600 C 0.2929 0.40665 0.31459 0.0
C601 C 0.28818 0.41603 0.34012 0.0
C602 C 0.35287 0.37508 0.33147 0.0
O603 O 0.32547 0.34347 0.26628 0.0
O604 O 0.31972 0.3064 0.23947 0.0
O605 O 0.28085 0.28799 0.28978 0.0
O606 O 0.29955 0.32275 0.31856 0.0
C607 C 0.32139 0.33157 0.2416 0.0
O608 O 0.29771 0.25371 0.24022 0.0
O609 O 0.3197 0.23825 0.27278 0.0
O610 O 0.32643 0.26907 0.31907 0.0
O611 O 0.3548 0.30521 0.33652 0.0
O612 O 0.38008 0.32514 0.28838 0.0
O613 O 0.36488 0.2872 0.26323 0.0
C614 C 0.27817 0.30493 0.30962 0.0
O615 O 0.34695 0.35411 0.343 0.0
O616 O 0.35934 0.37028 0.30748 0.0
C617 C 0.32211 0.22043 0.23021 0.0
C618 C 0.36621 0.19823 0.21742 0.0
C619 C 0.36496 0.2236 0.21204 0.0
C620 C 0.34301 0.23468 0.21844 0.0
C621 C 0.32149 0.19415 0.23179 0.0
C622 C 0.34342 0.18304 0.22534 0.0
C623 C 0.3072 0.2338 0.24845 0.0
H624 H 0.30401 0.42251 0.38225 0.0
H625 H 0.34332 0.40151 0.37698 0.0
H626 H 0.31752 0.38711 0.2917 0.0
H627 H 0.27879 0.40756 0.29701 0.0
H628 H 0.38212 0.23552 0.20549 0.0
H629 H 0.3439 0.25503 0.21707 0.0
H630 H 0.30566 0.18291 0.24105 0.0
H631 H 0.34384 0.16343 0.22968 0.0
Tb632 Tb 0.57766 0.54329 1.01306 0.0
Eu633 Eu 0.58074 0.5696 0.06937 0.0
C634 C 0.63563 0.57773 0.03867 0.0
C635 C 0.58261 0.50736 0.06628 0.0
C636 C 0.57922 0.525 0.94021 0.0
C637 C 0.57203 0.50845 0.8935 0.0
C638 C 0.57786 0.50475 0.92057 0.0
C639 C 0.57793 0.54969 0.93247 0.0
C640 C 0.57199 0.5534 0.90536 0.0
C641 C 0.56729 0.53242 0.88591 0.0
C642 C 0.57583 0.51904 0.96777 0.0
O643 O 0.5339 0.53971 0.01786 0.0
O644 O 0.53809 0.54383 0.0632 0.0
O645 O 0.57815 0.60378 0.0424 0.0
O646 O 0.577 0.58417 1.00057 0.0
C647 C 0.52269 0.53622 0.04022 0.0
O648 O 0.55913 0.59069 0.09626 0.0
O649 O 0.60019 0.58544 0.1088 0.0
O650 O 0.62589 0.5789 0.0621 0.0
O651 O 0.61945 0.566 0.01742 0.0
O652 O 0.57943 0.50915 0.03955 0.0
O653 O 0.58572 0.52912 0.08176 0.0
C654 C 0.57797 0.60591 1.01611 0.0
O655 O 0.59717 0.5233 0.98547 0.0
O656 O 0.55528 0.52684 0.97709 0.0
C657 C 0.57144 0.58648 0.14224 0.0
C658 C 0.57396 0.57848 0.19689 0.0
C659 C 0.56709 0.60133 0.18789 0.0
C660 C 0.5662 0.60543 0.16067 0.0
C661 C 0.57401 0.56226 0.15056 0.0
C662 C 0.57532 0.55828 0.17779 0.0
C663 C 0.57868 0.5934 0.11593 0.0
H664 H 0.56882 0.49208 0.87875 0.0
H665 H 0.57888 0.4856 0.92626 0.0
H666 H 0.57897 0.56555 0.94747 0.0
H667 H 0.56837 0.57204 0.90002 0.0
H668 H 0.56531 0.61701 0.20215 0.0
H669 H 0.56372 0.62409 0.15442 0.0
H670 H 0.57762 0.54725 0.1364 0.0
H671 H 0.58053 0.54041 0.18396 0.0
Tb672 Tb 0.82117 0.29111 0.30457 0.0
Eu673 Eu 0.8466 0.34448 0.28446 0.0
C674 C 0.83015 0.34009 0.34472 0.0
C675 C 0.78038 0.32368 0.27118 0.0
C676 C 0.80963 0.2228 0.31857 0.0
C677 C 0.79886 0.17779 0.30292 0.0
C678 C 0.79085 0.20146 0.30713 0.0
C679 C 0.83624 0.21996 0.32705 0.0
C680 C 0.84416 0.19623 0.32315 0.0
C681 C 0.82571 0.17516 0.31042 0.0
C682 C 0.8017 0.24809 0.31913 0.0
O683 O 0.83669 0.28137 0.26646 0.0
O684 O 0.83259 0.31824 0.24726 0.0
O685 O 0.88383 0.32603 0.29623 0.0
O686 O 0.86514 0.29539 0.32177 0.0
C687 C 0.83397 0.29392 0.24485 0.0
O688 O 0.86853 0.36677 0.25602 0.0
O689 O 0.85765 0.38559 0.29191 0.0
O690 O 0.84706 0.35125 0.32938 0.0
O691 O 0.81368 0.3188 0.33588 0.0
O692 O 0.7844 0.30242 0.28233 0.0
O693 O 0.80083 0.34307 0.27226 0.0
C694 C 0.88701 0.30933 0.31421 0.0
O695 O 0.8168 0.26628 0.33521 0.0
O696 O 0.79533 0.2558 0.29564 0.0
C697 C 0.85888 0.40884 0.25453 0.0
C698 C 0.83725 0.45319 0.24639 0.0
C699 C 0.86528 0.45463 0.25202 0.0
C700 C 0.87604 0.4325 0.25619 0.0
C701 C 0.83148 0.40693 0.24508 0.0
C702 C 0.82069 0.42907 0.2409 0.0
C703 C 0.86798 0.38853 0.26939 0.0
H704 H 0.78433 0.16173 0.29312 0.0
H705 H 0.77025 0.20335 0.30045 0.0
H706 H 0.85118 0.23621 0.33572 0.0
H707 H 0.86507 0.19468 0.32876 0.0
H708 H 0.87842 0.47304 0.25615 0.0
H709 H 0.89724 0.43424 0.26352 0.0
H710 H 0.81798 0.38873 0.24383 0.0
H711 H 0.79901 0.42745 0.23667 0.0
Tb712 Tb 0.10723 0.55281 0.56505 0.0
Eu713 Eu 0.07252 0.5632 0.51206 0.0
C714 C 0.09286 0.50541 0.51754 0.0
C715 C 0.13464 0.58043 0.52082 0.0
C716 C 0.14934 0.5665 0.63035 0.0
C717 C 0.1567 0.57163 0.67895 0.0
C718 C 0.1518 0.55584 0.65501 0.0
C719 C 0.1536 0.59324 0.62978 0.0
C720 C 0.15872 0.60905 0.65371 0.0
C721 C 0.15929 0.59838 0.67856 0.0
C722 C 0.14012 0.54966 0.60564 0.0
O723 O 0.10121 0.59371 0.57524 0.0
O724 O 0.07045 0.59995 0.54056 0.0
O725 O 0.04573 0.53424 0.53142 0.0
O726 O 0.06613 0.54102 0.57466 0.0
C727 C 0.08516 0.60875 0.564 0.0
O728 O 0.03564 0.57366 0.49182 0.0
O729 O 0.06655 0.56176 0.46878 0.0
O730 O 0.0848 0.5225 0.50138 0.0
O731 O 0.10007 0.51321 0.54353 0.0
O732 O 0.13274 0.55936 0.53297 0.0
O733 O 0.11258 0.58892 0.51329 0.0
C734 C 0.04575 0.53068 0.55684 0.0
O735 O 0.1149 0.5387 0.60279 0.0
O736 O 0.14706 0.55887 0.58358 0.0
C737 C 0.03576 0.58446 0.44604 0.0
C738 C 1.02619 0.59128 0.39142 0.0
C739 C 1.00462 0.58173 0.40543 0.0
C740 C 1.00949 0.57814 0.43269 0.0
C741 C 0.05586 0.59886 0.43348 0.0
C742 C 0.05102 0.60243 0.40622 0.0
C743 C 0.04313 0.56924 0.46807 0.0
H744 H 0.15655 0.5627 0.69771 0.0
H745 H 0.14856 0.53527 0.65579 0.0
H746 H 0.15186 0.60194 0.61092 0.0
H747 H 0.16088 0.62956 0.65274 0.0
H748 H 0.98515 0.57346 0.39457 0.0
H749 H 0.99361 0.56727 0.44221 0.0
H750 H 0.07622 0.60428 0.4436 0.0
H751 H 0.068 0.61022 0.39608 0.0
Tb752 Tb 0.79803 0.81286 0.27565 0.0
Eu753 Eu 0.85749 0.80408 0.29701 0.0
C754 C 0.84824 0.84924 0.26102 0.0
C755 C 0.8314 0.78383 0.23383 0.0
C756 C 0.72561 0.81178 0.27113 0.0
C757 C 0.67722 0.80913 0.26944 0.0
C758 C 0.70129 0.81713 0.25872 0.0
C759 C 0.72578 0.79837 0.29421 0.0
C760 C 0.70184 0.79025 0.30479 0.0
C761 C 0.67733 0.79553 0.29252 0.0
C762 C 0.75088 0.81956 0.25998 0.0
O763 O 0.79088 0.77511 0.29009 0.0
O764 O 0.8307 0.77502 0.31651 0.0
O765 O 0.84579 0.83111 0.33111 0.0
O766 O 0.80012 0.82219 0.32024 0.0
C767 C 0.80545 0.76531 0.30853 0.0
O768 O 0.88771 0.77999 0.30576 0.0
O769 O 0.89792 0.8211 0.31542 0.0
O770 O 0.86303 0.83179 0.26578 0.0
O771 O 0.82448 0.84784 0.26939 0.0
O772 O 0.81248 0.79787 0.23794 0.0
O773 O 0.84914 0.7811 0.25455 0.0
C774 C 0.8213 0.83225 0.3379 0.0
O775 O 0.76863 0.83654 0.27511 0.0
O776 O 0.76165 0.8007 0.25065 0.0
C777 C 0.9311 0.80065 0.29903 0.0
C778 C 0.97635 0.80908 0.27077 0.0
C779 C 0.97882 0.81615 0.29853 0.0
C780 C 0.95633 0.81191 0.31257 0.0
C781 C 0.92868 0.79305 0.27143 0.0
C782 C 0.95118 0.79708 0.25745 0.0
C783 C 0.90699 0.79955 0.313 0.0
H784 H 0.65855 0.81337 0.25961 0.0
H785 H 0.70093 0.82742 0.24082 0.0
H786 H 0.74449 0.79424 0.30407 0.0
H787 H 0.70258 0.78024 0.32288 0.0
H788 H 0.99806 0.82528 0.30927 0.0
H789 H 0.95845 0.81812 0.33381 0.0
H790 H 0.90926 0.78474 0.26048 0.0
H791 H 0.94864 0.79175 0.23601 0.0
Tb792 Tb 0.87829 0.33223 0.80565 0.0
Eu793 Eu 0.81864 0.29595 0.78917 0.0
C794 C 0.82646 0.35739 0.79383 0.0
C795 C 0.84418 0.30772 0.85029 0.0
C796 C 0.93708 0.38537 0.81599 0.0
C797 C 0.93498 0.42697 0.79955 0.0
C798 C 0.92285 0.40173 0.80174 0.0
C799 C 0.96354 0.39436 0.82781 0.0
C800 C 0.97569 0.41956 0.82564 0.0
C801 C 0.9615 0.43622 0.81163 0.0
C802 C 0.92429 0.35918 0.8194 0.0
O803 O 0.88456 0.29419 0.79168 0.0
O804 O 0.84711 0.27067 0.8048 0.0
O805 O 0.83646 0.30299 0.7504 0.0
O806 O 0.8674 0.33953 0.76387 0.0
C807 C 0.87202 0.27279 0.79932 0.0
O808 O 0.7944 0.26237 0.7661 0.0
O809 O 0.77537 0.28725 0.79127 0.0
O810 O 0.81265 0.33572 0.78223 0.0
O811 O 0.85047 0.35939 0.80741 0.0
O812 O 0.868 0.31332 0.84172 0.0
O813 O 0.82191 0.30576 0.83378 0.0
C814 C 0.85233 0.32365 0.74481 0.0
O815 O 0.90474 0.35721 0.83446 0.0
O816 O 0.91819 0.34364 0.7976 0.0
C817 C 0.75827 0.24272 0.78739 0.0
C818 C 0.73358 0.19765 0.80712 0.0
C819 C 0.73754 0.19805 0.77989 0.0
C820 C 0.74965 0.22044 0.77009 0.0
C821 C 0.75413 0.24245 0.81467 0.0
C822 C 0.74161 0.22006 0.82441 0.0
C823 C 0.77256 0.26548 0.7767 0.0
H824 H 0.9234 0.43939 0.78889 0.0
H825 H 0.90229 0.39506 0.7926 0.0
H826 H 0.97477 0.38192 0.83888 0.0
H827 H 0.99624 0.42597 0.83485 0.0
H828 H 0.73116 0.18102 0.76613 0.0
H829 H 0.75264 0.22026 0.74902 0.0
H830 H 0.76082 0.25937 0.82851 0.0
H831 H 0.73871 0.22009 0.84549 0.0
Tb832 Tb 0.8455 0.83392 0.80552 0.0
Eu833 Eu 0.82016 0.78259 0.77376 0.0
C834 C 0.84595 0.7841 0.8394 0.0
C835 C 0.88632 0.80788 0.771 0.0
C836 C 0.8328 0.89385 0.82748 0.0
C837 C 0.81059 0.92742 0.8453 0.0
C838 C 0.83342 0.91546 0.84527 0.0
C839 C 0.80929 0.88442 0.80995 0.0
C840 C 0.78656 0.89571 0.81046 0.0
C841 C 0.78681 0.91754 0.82787 0.0
C842 C 0.85471 0.87873 0.828 0.0
O843 O 0.83444 0.84569 0.76371 0.0
O844 O 0.81127 0.80943 0.74006 0.0
O845 O 0.78114 0.79271 0.79046 0.0
O846 O 0.80374 0.82616 0.81872 0.0
C847 C 0.82157 0.83406 0.74049 0.0
O848 O 0.81922 0.75498 0.73923 0.0
O849 O 0.79547 0.74443 0.77096 0.0
O850 O 0.83187 0.77089 0.81754 0.0
O851 O 0.85652 0.8084 0.8373 0.0
O852 O 0.88375 0.82503 0.79077 0.0
O853 O 0.8648 0.79014 0.76215 0.0
C854 C 0.78094 0.80987 0.81089 0.0
O855 O 0.85067 0.85854 0.84115 0.0
O856 O 0.86186 0.87292 0.80458 0.0
C857 C 0.82118 0.71485 0.75448 0.0
C858 C 0.86305 0.68606 0.7619 0.0
C859 C 0.85005 0.68757 0.73597 0.0
C860 C 0.82935 0.70198 0.73229 0.0
C861 C 0.83236 0.71129 0.78048 0.0
C862 C 0.85311 0.69717 0.78415 0.0
C863 C 0.80634 0.73617 0.75048 0.0
H864 H 0.81157 0.94432 0.8589 0.0
H865 H 0.85128 0.92287 0.85919 0.0
H866 H 0.80812 0.8677 0.79614 0.0
H867 H 0.76858 0.88684 0.7974 0.0
H868 H 0.85683 0.6788 0.71842 0.0
H869 H 0.8211 0.70456 0.71204 0.0
H870 H 0.82664 0.72106 0.79804 0.0
H871 H 0.86267 0.69677 0.80442 0.0
Tb872 Tb 0.59251 0.57818 0.54852 0.0
Eu873 Eu 0.65073 0.59973 0.5874 0.0
C874 C 0.64707 0.57975 0.52499 0.0
C875 C 0.62654 0.54095 0.57568 0.0
C876 C 0.52218 0.58155 0.52231 0.0
C877 C 0.49135 0.60509 0.49787 0.0
C878 C 0.51251 0.59102 0.4984 0.0
C879 C 0.50976 0.58597 0.54554 0.0
C880 C 0.48884 0.60027 0.54513 0.0
C881 C 0.47944 0.61025 0.52135 0.0
C882 C 0.54571 0.568 0.523 0.0
O883 O 0.58585 0.59914 0.58489 0.0
O884 O 0.61844 0.58779 0.61369 0.0
O885 O 0.63155 0.63465 0.58142 0.0
O886 O 0.6088 0.61681 0.54072 0.0
C887 C 0.59378 0.59212 0.60844 0.0
O888 O 0.67759 0.5962 0.62349 0.0
O889 O 0.69177 0.62152 0.59412 0.0
O890 O 0.65751 0.59791 0.544 0.0
O891 O 0.62274 0.5663 0.52491 0.0
O892 O 0.60215 0.54627 0.57061 0.0
O893 O 0.64801 0.55812 0.57487 0.0
C894 C 0.61719 0.63652 0.55847 0.0
O895 O 0.56676 0.5793 0.51289 0.0
O896 O 0.55267 0.5584 0.54541 0.0
C897 C 0.71939 0.59258 0.60933 0.0
C898 C 0.75404 0.55682 0.60177 0.0
C899 C 0.75836 0.57393 0.62512 0.0
C900 C 0.74096 0.59157 0.62899 0.0
C901 C 0.71567 0.57603 0.58573 0.0
C902 C 0.7327 0.55833 0.58201 0.0
C903 C 0.69864 0.60833 0.61399 0.0
H904 H 0.48443 0.61199 0.47902 0.0
H905 H 0.52153 0.58777 0.48012 0.0
H906 H 0.51642 0.57868 0.56422 0.0
H907 H 0.48053 0.60402 0.56369 0.0
H908 H 0.77464 0.57312 0.64071 0.0
H909 H 0.74396 0.60392 0.6475 0.0
H910 H 0.6991 0.57634 0.57033 0.0
H911 H 0.7291 0.54572 0.56364 0.0
Tb912 Tb 0.05874 0.52732 0.0205 0.0
Eu913 Eu 0.09298 0.57234 0.06054 0.0
C914 C 0.06524 0.52103 0.08148 0.0
C915 C 1.02843 0.57445 0.04071 0.0
C916 C 1.02821 0.46375 0.98339 0.0
C917 C 1.00045 0.42165 0.98028 0.0
C918 C 1.00385 0.448 0.98646 0.0
C919 C 0.0493 0.45272 0.97414 0.0
C920 C 0.04583 0.42632 0.96775 0.0
C921 C 1.0213 0.41052 0.97062 0.0
C922 C 1.03061 0.49155 0.98934 0.0
O923 O 0.06088 0.56097 0.99821 0.0
O924 O 0.09952 0.58485 0.01986 0.0
O925 O 0.12249 0.54264 0.05812 0.0
O926 O 0.10116 0.51867 0.02005 0.0
C927 C 0.08044 0.58057 0.99978 0.0
O928 O 0.13068 0.59868 0.073 0.0
O929 O 0.09762 0.59809 0.09702 0.0
O930 O 0.06937 0.54588 0.08572 0.0
O931 O 0.06637 0.50991 0.05777 0.0
O932 O 1.02702 0.54955 0.03351 0.0
O933 O 0.05277 0.58816 0.04894 0.0
C934 C 0.12279 0.52451 0.03858 0.0
O935 O 1.02437 0.49891 1.01284 0.0
O936 O 0.05184 0.50628 0.98279 0.0
C937 C 0.1232 0.63847 0.09143 0.0
C938 C 0.1262 0.69126 0.08644 0.0
C939 C 0.14681 0.67862 0.07867 0.0
C940 C 0.14536 0.65248 0.08123 0.0
C941 C 0.10276 0.6512 0.09947 0.0
C942 C 0.10425 0.6773 0.09699 0.0
C943 C 0.1208 0.61051 0.09218 0.0
H944 H 0.98148 0.40999 0.98312 0.0
H945 H 0.98732 0.45612 0.99357 0.0
H946 H 0.06832 0.46443 0.97156 0.0
H947 H 0.06216 0.41837 0.96003 0.0
H948 H 0.16397 0.68891 0.07048 0.0
H949 H 0.16143 0.64316 0.0749 0.0
H950 H 0.08547 0.64103 0.10756 0.0
H951 H 0.08841 0.68663 0.10383 0.0
H952 H 0.03885 0.19679 1.00022 0.0
H953 H 0.06955 0.15199 0.93947 0.0
H954 H 0.09971 0.13727 0.97403 0.0
H955 H 0.116 0.13586 0.0215 0.0
H956 H 0.08147 0.17629 0.08246 0.0
H957 H 0.05538 0.19546 0.04782 0.0
C958 C 0.05202 0.18368 0.99457 0.0
C959 C 0.05186 0.17536 0.96737 0.0
C960 C 0.06932 0.17534 1.01452 0.0
C961 C 0.06908 0.15843 0.96032 0.0
C962 C 0.08658 0.15028 0.98002 0.0
C963 C 0.10346 0.14954 0.02714 0.0
C964 C 0.10107 0.15523 0.05437 0.0
C965 C 0.08693 0.15869 1.00714 0.0
C966 C 0.0842 0.17238 0.06155 0.0
C967 C 0.06884 0.18282 0.04177 0.0
H968 H 0.18414 0.84313 0.2457 0.0
H969 H 0.22994 0.91031 0.21863 0.0
H970 H 0.2704 0.90333 0.24649 0.0
H971 H 0.29382 0.8743 0.2727 0.0
H972 H 0.2478 0.80598 0.29759 0.0
H973 H 0.20623 0.81747 0.27672 0.0
C974 C 0.20287 0.85652 0.24628 0.0
C975 C 0.20426 0.87692 0.22985 0.0
C976 C 0.22603 0.85203 0.26175 0.0
C977 C 0.22848 0.89436 0.23104 0.0
C978 C 0.25162 0.89028 0.24683 0.0
C979 C 0.27463 0.86224 0.2741 0.0
C980 C 0.27393 0.83908 0.28624 0.0
C981 C 0.25084 0.86861 0.26142 0.0
C982 C 0.24892 0.82371 0.28801 0.0
C983 C 0.22513 0.83023 0.27603 0.0
H984 H 0.54516 0.80708 0.47902 0.0
H985 H 0.48193 0.8077 0.41431 0.0
H986 H 0.47854 0.85148 0.42954 0.0
H987 H 0.49602 0.89042 0.45887 0.0
H988 H 0.56147 0.891 0.52159 0.0
H989 H 0.56096 0.84553 0.51006 0.0
C990 C 0.53047 0.81674 0.46845 0.0
C991 C 0.51402 0.80441 0.44547 0.0
C992 C 0.529 0.84202 0.47698 0.0
C993 C 0.49496 0.81698 0.43195 0.0
C994 C 0.49301 0.84196 0.44063 0.0
C995 C 0.51019 0.88058 0.47 0.0
C996 C 0.52903 0.89407 0.49073 0.0
C997 C 0.51037 0.85481 0.46271 0.0
C998 C 0.54674 0.88098 0.50556 0.0
C999 C 0.54661 0.85507 0.49883 0.0
H1000 H 0.58174 0.3384 0.70869 0.0
H1001 H 0.60877 0.39352 0.77724 0.0
H1002 H 0.56962 0.37615 0.79897 0.0
H1003 H 0.52679 0.34691 0.79739 0.0
H1004 H 0.49903 0.29237 0.72858 0.0
H1005 H 0.5396 0.30797 0.70787 0.0
C1006 C 0.5791 0.34654 0.72843 0.0
C1007 C 0.59794 0.36727 0.74133 0.0
C1008 C 0.55651 0.33662 0.74066 0.0
C1009 C 0.59439 0.37763 0.76689 0.0
C1010 C 0.57207 0.36771 0.77932 0.0
C1011 C 0.52989 0.33811 0.77809 0.0
C1012 C 0.51014 0.31848 0.76453 0.0
C1013 C 0.55292 0.34738 0.76627 0.0
C1014 C 0.51402 0.30759 0.73928 0.0
C1015 C 0.53714 0.31649 0.72749 0.0
H1016 H 0.08315 0.91409 0.64889 0.0
H1017 H 0.07014 0.86605 0.57454 0.0
H1018 H 0.07196 0.90404 0.54931 0.0
H1019 H 0.07703 0.95251 0.54668 0.0
H1020 H 0.08951 1.00047 0.62112 0.0
H1021 H 0.08815 0.96253 0.64627 0.0
C1022 C 0.08067 0.91155 0.62713 0.0
C1023 C 0.07642 0.88561 0.61444 0.0
C1024 C 0.0817 0.93442 0.61198 0.0
C1025 C 0.0734 0.88456 0.58587 0.0
C1026 C 0.07447 0.90684 0.57105 0.0
C1027 C 0.07962 0.95506 0.56843 0.0
C1028 C 0.0836 0.981 0.58113 0.0
C1029 C 0.07862 0.93218 0.58358 0.0
C1030 C 0.08653 0.982 0.60972 0.0
C1031 C 0.0857 0.95974 0.62452 0.0
H1032 H 0.49338 0.82198 0.90297 0.0
H1033 H 0.51739 0.77225 0.8422 0.0
H1034 H 0.47314 0.76888 0.81579 0.0
H1035 H 0.42634 0.78031 0.80872 0.0
H1036 H 0.40454 0.83365 0.86747 0.0
H1037 H 0.4478 0.83511 0.89487 0.0
C1038 C 0.48907 0.81028 0.884 0.0
C1039 C 0.50958 0.79717 0.87521 0.0
C1040 C 0.46325 0.80901 0.86805 0.0
C1041 C 0.50277 0.7826 0.85006 0.0
C1042 C 0.47709 0.78062 0.83473 0.0
C1043 C 0.43085 0.79218 0.82758 0.0
C1044 C 0.41109 0.80667 0.83568 0.0
C1045 C 0.45691 0.79373 0.84332 0.0
C1046 C 0.41853 0.82216 0.86022 0.0
C1047 C 0.44363 0.82303 0.87614 0.0
H1048 H 0.5918 0.21348 0.1486 0.0
H1049 H 0.55607 0.24123 0.07706 0.0
H1050 H 0.55553 0.19989 0.05217 0.0
H1051 H 0.56478 0.15423 0.04916 0.0
H1052 H 0.6015 0.12639 0.12015 0.0
H1053 H 0.60191 0.16769 0.14531 0.0
C1054 C 0.5838 0.21079 0.12754 0.0
C1055 C 0.57383 0.23203 0.11548 0.0
C1056 C 0.58365 0.18599 0.11258 0.0
C1057 C 0.56391 0.22653 0.08781 0.0
C1058 C 0.56358 0.20233 0.07323 0.0
C1059 C 0.57294 0.15684 0.07018 0.0
C1060 C 0.58302 0.13558 0.08199 0.0
C1061 C 0.57332 0.18161 0.08513 0.0
C1062 C 0.59342 0.14107 0.10958 0.0
C1063 C 0.59366 0.16526 0.12432 0.0
H1064 H 0.15479 0.28172 0.34461 0.0
H1065 H 0.1919 0.33192 0.41412 0.0
H1066 H 0.23486 0.3377 0.39517 0.0
H1067 H 0.26409 0.32865 0.35866 0.0
H1068 H 0.22762 0.27685 0.29011 0.0
H1069 H 0.1843 0.27206 0.30839 0.0
C1070 C 0.17211 0.29402 0.35584 0.0
C1071 C 0.16873 0.30635 0.3815 0.0
C1072 C 0.19792 0.29717 0.34465 0.0
C1073 C 0.1926 0.32193 0.39476 0.0
C1074 C 0.21771 0.32534 0.3837 0.0
C1075 C 0.24679 0.31633 0.3474 0.0
C1076 C 0.25046 0.30335 0.32218 0.0
C1077 C 0.22101 0.31312 0.35859 0.0
C1078 C 0.22672 0.28741 0.3091 0.0
C1079 C 0.20139 0.28456 0.31978 0.0
H1080 H 1.00088 0.0796 0.20735 0.0
H1081 H 0.94228 0.0589 0.13708 0.0
H1082 H 0.97745 0.07025 0.10809 0.0
H1083 H 1.02493 0.08059 0.10286 0.0
H1084 H 0.08478 0.09787 0.17239 0.0
H1085 H 0.04878 0.09373 0.2019 0.0
C1086 C 0.99576 0.07809 0.1857 0.0
C1087 C 0.96916 0.06828 0.17421 0.0
C1088 C 1.01625 0.08369 0.16922 0.0
C1089 C 0.96269 0.06625 0.14623 0.0
C1090 C 0.98276 0.07265 0.12972 0.0
C1091 C 1.03018 0.08351 0.12451 0.0
C1092 C 0.05739 0.08881 0.1356 0.0
C1093 C 1.00965 0.08044 0.14102 0.0
C1094 C 0.06391 0.09346 0.16353 0.0
C1095 C 0.04338 0.091 0.1803 0.0
H1096 H 0.31221 0.72109 0.43961 0.0
H1097 H 0.33513 0.79395 0.48623 0.0
H1098 H 0.34044 0.81539 0.44482 0.0
H1099 H 0.33938 0.81318 0.39487 0.0
H1100 H 0.3161 0.73942 0.3495 0.0
H1101 H 0.31022 0.71892 0.39066 0.0
C1102 C 0.31831 0.7417 0.44081 0.0
C1103 C 0.32329 0.75582 0.46613 0.0
C1104 C 0.32132 0.75385 0.41695 0.0
C1105 C 0.33114 0.78253 0.46709 0.0
C1106 C 0.33421 0.79481 0.44335 0.0
C1107 C 0.33288 0.79265 0.39396 0.0
C1108 C 0.32821 0.77806 0.36876 0.0
C1109 C 0.32947 0.78066 0.41807 0.0
C1110 C 0.31987 0.75139 0.36829 0.0
C1111 C 0.31649 0.7395 0.39195 0.0
H1112 H 0.5964 0.99954 0.69648 0.0
H1113 H 0.62246 0.07808 0.72866 0.0
H1114 H 0.61207 0.09267 0.6844 0.0
H1115 H 0.59757 0.08313 0.63635 0.0
H1116 H 0.57208 1.00462 0.60369 0.0
H1117 H 0.57992 0.99008 0.64844 0.0
C1118 C 0.59979 1.01982 0.69375 0.0
C1119 C 0.6104 0.03767 0.71567 0.0
C1120 C 0.59378 0.02812 0.66823 0.0
C1121 C 0.61448 0.06393 0.71199 0.0
C1122 C 0.60849 0.07232 0.68672 0.0
C1123 C 0.59342 0.06285 0.63902 0.0
C1124 C 0.58443 0.04502 0.61671 0.0
C1125 C 0.59836 0.05458 0.66467 0.0
C1126 C 0.57915 1.01879 0.62054 0.0
C1127 C 0.58371 1.01042 0.6461 0.0
H1128 H 0.34883 0.40438 0.95591 0.0
H1129 H 0.27052 0.36354 0.96679 0.0
H1130 H 0.26746 0.34023 0.92239 0.0
H1131 H 0.2869 0.33047 0.87884 0.0
H1132 H 0.36644 0.37006 0.86982 0.0
H1133 H 0.3687 0.39378 0.91351 0.0
C1134 C 0.33097 0.39039 0.94878 0.0
C1135 C 0.30986 0.38632 0.96578 0.0
C1136 C 0.32943 0.37635 0.92269 0.0
C1137 C 0.28727 0.36764 0.95512 0.0
C1138 C 0.28547 0.3541 0.92927 0.0
C1139 C 0.3048 0.3443 0.88621 0.0
C1140 C 0.32648 0.34796 0.86972 0.0
C1141 C 0.30637 0.35813 0.91256 0.0
C1142 C 0.34926 0.36618 0.88097 0.0
C1143 C 0.35063 0.38005 0.90644 0.0
H1144 H 1.00486 1.0207 0.26952 0.0
H1145 H 0.93955 1.02208 0.31817 0.0
H1146 H 0.97079 0.02353 0.35883 0.0
H1147 H 1.01654 0.02588 0.38065 0.0
H1148 H 0.08229 0.02333 0.33329 0.0
H1149 H 0.05102 1.02104 0.29172 0.0
C1150 C 0.9975 1.0211 0.28903 0.0
C1151 C 0.97 1.0214 0.29091 0.0
C1152 C 1.01562 1.02204 0.3124 0.0
C1153 C 0.96063 1.02186 0.31624 0.0
C1154 C 0.97846 1.02279 0.33949 0.0
C1155 C 1.02395 0.02501 0.36114 0.0
C1156 C 0.05146 0.0253 0.35965 0.0
C1157 C 1.00596 0.02325 0.33779 0.0
C1158 C 0.0611 0.02352 0.33458 0.0
C1159 C 0.04325 1.02211 0.31099 0.0
H1160 H 0.35844 0.77129 0.62082 0.0
H1161 H 0.27901 0.72633 0.61868 0.0
H1162 H 0.279 0.73787 0.66642 0.0
H1163 H 0.30123 0.76048 0.70916 0.0
H1164 H 0.37921 0.80805 0.71173 0.0
H1165 H 0.38014 0.79575 0.6639 0.0
C1166 C 0.34111 0.76415 0.6308 0.0
C1167 C 0.31876 0.74789 0.61597 0.0
C1168 C 0.34101 0.77122 0.65854 0.0
C1169 C 0.29645 0.73892 0.62936 0.0
C1170 C 0.29644 0.74543 0.65681 0.0
C1171 C 0.31855 0.76805 0.69935 0.0
C1172 C 0.34026 0.78498 0.71422 0.0
C1173 C 0.3186 0.76146 0.67166 0.0
C1174 C 0.36226 0.79493 0.70089 0.0
C1175 C 0.36278 0.78791 0.67347 0.0
H1176 H 0.54645 0.04399 0.79778 0.0
H1177 H 0.55319 0.98156 0.84715 0.0
H1178 H 0.51828 0.99382 0.87303 0.0
H1179 H 0.49571 0.02785 0.88815 0.0
H1180 H 0.4975 0.09562 0.84539 0.0
H1181 H 0.51802 0.07536 0.80946 0.0
C1182 C 0.53952 0.0326 0.81363 0.0
C1183 C 0.55223 1.01201 0.82081 0.0
C1184 C 0.52103 0.04095 0.82959 0.0
C1185 C 0.54363 0.99754 0.84154 0.0
C1186 C 0.52377 1.0046 0.85629 0.0
C1187 C 0.49929 0.03776 0.87033 0.0
C1188 C 0.49539 0.0633 0.86952 0.0
C1189 C 0.51358 0.0271 0.85145 0.0
C1190 C 0.50034 0.07594 0.8464 0.0
C1191 C 0.51255 0.06452 0.82617 0.0
H1192 H 0.31579 0.41526 0.15112 0.0
H1193 H 0.31153 0.34836 0.09646 0.0
H1194 H 0.31334 0.32192 0.13451 0.0
H1195 H 0.31654 0.31651 0.18461 0.0
H1196 H 0.32099 0.38356 0.2392 0.0
H1197 H 0.31871 0.40982 0.20116 0.0
C1198 C 0.3152 0.39489 0.14724 0.0
C1199 C 0.31343 0.38449 0.11971 0.0
C1200 C 0.31629 0.37917 0.16995 0.0
C1201 C 0.31281 0.35769 0.11652 0.0
C1202 C 0.31388 0.34225 0.1387 0.0
C1203 C 0.31689 0.33685 0.18848 0.0
C1204 C 0.31886 0.3473 0.21604 0.0
C1205 C 0.31564 0.35254 0.16574 0.0
C1206 C 0.31942 0.3741 0.21917 0.0
C1207 C 0.31813 0.38948 0.19698 0.0
H1208 H 0.33032 0.98889 0.08151 0.0
H1209 H 0.2647 0.92496 0.07481 0.0
H1210 H 0.23493 0.95326 0.09052 0.0
H1211 H 0.22753 0.99615 0.10572 0.0
H1212 H 0.29272 0.06034 0.11082 0.0
H1213 H 0.3229 0.03178 0.09697 0.0
C1214 C 0.30949 0.98113 0.08343 0.0
C1215 C 0.29971 0.95484 0.07685 0.0
C1216 C 0.29251 0.99751 0.09247 0.0
C1217 C 0.2727 0.94511 0.07959 0.0
C1218 C 0.2557 0.96128 0.08865 0.0
C1219 C 0.24827 1.00398 0.10363 0.0
C1220 C 0.25769 0.03049 0.1092 0.0
C1221 C 0.26537 0.98752 0.09506 0.0
C1222 C 0.2849 0.04007 0.10701 0.0
C1223 C 0.30213 0.02376 0.09881 0.0
H1224 H 0.74648 0.63722 0.99996 0.0
H1225 H 0.7786 0.62821 0.08101 0.0
H1226 H 0.73408 0.607 0.08992 0.0
H1227 H 0.68447 0.59046 0.07522 0.0
H1228 H 0.65362 0.59638 0.99293 0.0
H1229 H 0.69777 0.61854 0.98455 0.0
C1230 C 0.74396 0.6306 0.01963 0.0
C1231 C 0.76691 0.63486 0.03972 0.0
C1232 C 0.71775 0.6175 0.02463 0.0
C1233 C 0.76216 0.62557 0.06486 0.0
C1234 C 0.73629 0.6133 0.07008 0.0
C1235 C 0.68722 0.59652 0.05538 0.0
C1236 C 0.66459 0.59132 0.03485 0.0
C1237 C 0.71366 0.60907 0.05023 0.0
C1238 C 0.66979 0.59957 1.00938 0.0
C1239 C 0.69543 0.61251 1.00448 0.0
H1240 H 0.76039 0.53033 0.27343 0.0
H1241 H 0.81077 0.53711 0.34945 0.0
H1242 H 0.83993 0.5105 0.32994 0.0
H1243 H 0.84868 0.48247 0.29285 0.0
H1244 H 0.79681 0.47232 0.21769 0.0
H1245 H 0.77075 0.50355 0.23511 0.0
C1246 C 0.77788 0.52609 0.28561 0.0
C1247 C 0.78336 0.53544 0.31286 0.0
C1248 C 0.79427 0.51037 0.27439 0.0
C1249 C 0.80603 0.52989 0.32849 0.0
C1250 C 0.82275 0.51478 0.31734 0.0
C1251 C 0.83219 0.48769 0.27996 0.0
C1252 C 0.82485 0.47551 0.25391 0.0
C1253 C 0.81679 0.50462 0.29048 0.0
C1254 C 0.8029 0.48174 0.23772 0.0
C1255 C 0.78794 0.49939 0.24776 0.0
H1256 H 0.93696 0.47141 0.5885 0.0
H1257 H 0.94722 0.42107 0.52068 0.0
H1258 H 0.99102 0.44688 0.51698 0.0
H1259 H 1.02454 0.48541 0.53063 0.0
H1260 H 1.01576 0.53565 0.59888 0.0
H1261 H 0.9733 0.50798 0.60521 0.0
C1262 C 0.94891 0.46602 0.57305 0.0
C1263 C 0.93873 0.44454 0.55464 0.0
C1264 C 0.97423 0.48089 0.57117 0.0
C1265 C 0.95454 0.43755 0.53498 0.0
C1266 C 0.97956 0.45232 0.53283 0.0
C1267 C 1.01345 0.49011 0.5471 0.0
C1268 C 1.02293 0.51256 0.56414 0.0
C1269 C 0.98931 0.47424 0.55047 0.0
C1270 C 1.00877 0.51838 0.58563 0.0
C1271 C 0.98446 0.50268 0.58906 0.0
H1272 H 0.46157 0.13935 0.2458 0.0
H1273 H 0.49269 0.21052 0.29379 0.0
H1274 H 0.45544 0.22953 0.27331 0.0
H1275 H 0.41181 0.22435 0.24556 0.0
H1276 H 0.37913 0.15239 0.19975 0.0
H1277 H 0.41961 0.13527 0.21529 0.0
C1278 C 0.46034 0.1591 0.25162 0.0
C1279 C 0.47967 0.17346 0.27149 0.0
C1280 C 0.43868 0.16971 0.24012 0.0
C1281 C 0.47791 0.19903 0.27872 0.0
C1282 C 0.45666 0.2099 0.26699 0.0
C1283 C 0.4139 0.20517 0.2383 0.0
C1284 C 0.39263 0.18965 0.22141 0.0
C1285 C 0.43666 0.19523 0.24811 0.0
C1286 C 0.39532 0.16466 0.21269 0.0
C1287 C 0.41833 0.15485 0.22172 0.0
H1288 H 0.45353 0.17359 0.54476 0.0
H1289 H 0.39555 0.1038 0.53014 0.0
H1290 H 0.43226 0.07896 0.53048 0.0
H1291 H 0.48218 0.07572 0.53475 0.0
H1292 H 0.53997 0.14571 0.54983 0.0
H1293 H 0.50328 0.17035 0.54944 0.0
C1294 C 0.44861 0.15293 0.54163 0.0
C1295 C 0.42052 0.14124 0.53737 0.0
C1296 C 0.47056 0.13813 0.54193 0.0
C1297 C 0.41606 0.11413 0.53348 0.0
C1298 C 0.43749 0.0996 0.53367 0.0
C1299 C 0.48707 0.09636 0.53807 0.0
C1300 C 0.51517 0.10812 0.54243 0.0
C1301 C 0.46507 0.11114 0.53788 0.0
C1302 C 0.51952 0.13524 0.54647 0.0
C1303 C 0.49809 0.14971 0.54623 0.0
H1304 H 0.73542 0.66767 0.34478 0.0
H1305 H 0.81426 0.64846 0.36477 0.0
H1306 H 0.83536 0.6907 0.35376 0.0
H1307 H 0.8311 0.73096 0.33376 0.0
H1308 H 0.75192 0.74796 0.30967 0.0
H1309 H 0.73116 0.7086 0.32687 0.0
C1310 C 0.75723 0.67297 0.34733 0.0
C1311 C 0.77334 0.65516 0.35565 0.0
C1312 C 0.76909 0.69667 0.33973 0.0
C1313 C 0.80153 0.662 0.35843 0.0
C1314 C 0.81355 0.68603 0.35199 0.0
C1315 C 0.80931 0.72617 0.33254 0.0
C1316 C 0.79306 0.74223 0.32029 0.0
C1317 C 0.7975 0.70319 0.34183 0.0
C1318 C 0.76486 0.73576 0.31873 0.0
C1319 C 0.75297 0.71331 0.32865 0.0
H1320 H 1.00667 0.54939 0.78746 0.0
H1321 H 0.03904 0.55339 0.871 0.0
H1322 H 1.01934 0.5086 0.8731 0.0
H1323 H 0.99188 0.46871 0.85162 0.0
H1324 H 0.95944 0.46448 0.76808 0.0
H1325 H 0.97987 0.50907 0.76569 0.0
C1326 C 1.00956 0.54038 0.80606 0.0
C1327 C 1.02434 0.55465 0.82901 0.0
C1328 C 0.99798 0.51467 0.80719 0.0
C1329 C 1.02779 0.5428 0.85303 0.0
C1330 C 1.01649 0.5172 0.85426 0.0
C1331 C 0.98955 0.47743 0.83278 0.0
C1332 C 0.97419 0.46324 0.81006 0.0
C1333 C 1.00142 0.50301 0.83152 0.0
C1334 C 0.97092 0.47503 0.78596 0.0
C1335 C 0.98273 0.50048 0.78453 0.0
H1336 H 0.09422 0.9277 0.11267 0.0
H1337 H 0.18112 0.94773 0.12244 0.0
H1338 H 0.17809 0.98588 0.09876 0.0
H1339 H 0.1509 1.0161 0.0809 0.0
H1340 H 0.06424 0.99805 0.07323 0.0
H1341 H 0.06688 0.9559 0.08953 0.0
C1342 C 0.11248 0.94029 0.10934 0.0
C1343 C 0.13783 0.93526 0.11973 0.0
C1344 C 0.11061 0.96235 0.09597 0.0
C1345 C 0.16137 0.95144 0.11496 0.0
C1346 C 0.15968 0.97321 0.10139 0.0
C1347 C 0.13265 1.00268 0.08234 0.0
C1348 C 0.10748 1.00999 0.07632 0.0
C1349 C 0.13444 0.97921 0.09262 0.0
C1350 C 0.08382 0.99254 0.07767 0.0
C1351 C 0.08537 0.96869 0.08732 0.0
H1352 H 0.96379 0.21059 0.82703 0.0
H1353 H 0.92081 0.19781 0.89598 0.0
H1354 H 0.88298 0.21515 0.87411 0.0
H1355 H 0.86666 0.24169 0.83964 0.0
H1356 H 0.91322 0.2595 0.77413 0.0
H1357 H 0.94512 0.23245 0.79027 0.0
C1358 C 0.94582 0.21086 0.83698 0.0
C1359 C 0.94523 0.20323 0.86324 0.0
C1360 C 0.92503 0.22232 0.82505 0.0
C1361 C 0.92179 0.20366 0.87581 0.0
C1362 C 0.90028 0.21383 0.86341 0.0
C1363 C 0.88338 0.239 0.82851 0.0
C1364 C 0.88776 0.25257 0.80582 0.0
C1365 C 0.90233 0.22443 0.83867 0.0
C1366 C 0.90964 0.24932 0.79174 0.0
C1367 C 0.92786 0.2339 0.80099 0.0
H1368 H 0.63902 0.32823 0.63394 0.0
H1369 H 0.70335 0.31982 0.69457 0.0
H1370 H 0.70118 0.27544 0.67701 0.0
H1371 H 0.67949 0.23854 0.64586 0.0
H1372 H 0.61482 0.24689 0.58554 0.0
H1373 H 0.61825 0.29171 0.60196 0.0
C1374 C 0.65279 0.31677 0.6431 0.0
C1375 C 0.67135 0.32724 0.66545 0.0
C1376 C 0.65106 0.29118 0.63325 0.0
C1377 C 0.68891 0.31215 0.67729 0.0
C1378 C 0.6876 0.28676 0.66734 0.0
C1379 C 0.66632 0.25024 0.63614 0.0
C1380 C 0.64686 0.23937 0.61459 0.0
C1381 C 0.66851 0.276 0.64557 0.0
C1382 C 0.62968 0.25468 0.60245 0.0
C1383 C 0.63178 0.28036 0.61167 0.0
H1384 H 0.57496 0.7833 0.35404 0.0
H1385 H 0.59608 0.70869 0.36298 0.0
H1386 H 0.6324 0.71847 0.33477 0.0
H1387 H 0.65987 0.74941 0.31026 0.0
H1388 H 0.63889 0.82419 0.30213 0.0
H1389 H 0.60027 0.81296 0.32697 0.0
C1390 C 0.58742 0.76912 0.34969 0.0
C1391 C 0.58317 0.74546 0.36078 0.0
C1392 C 0.60816 0.77489 0.3336 0.0
C1393 C 0.59914 0.7271 0.35473 0.0
C1394 C 0.61989 0.73269 0.33867 0.0
C1395 C 0.64673 0.76317 0.31386 0.0
C1396 C 0.65227 0.78764 0.30465 0.0
C1397 C 0.62486 0.75671 0.32843 0.0
C1398 C 0.6349 0.80518 0.30893 0.0
C1399 C 0.61298 0.79885 0.32329 0.0
H1400 H 0.08129 0.19706 0.43084 0.0
H1401 H 0.09341 0.24499 0.50523 0.0
H1402 H 0.09092 0.20693 0.53037 0.0
H1403 H 0.08539 0.15851 0.53299 0.0
H1404 H 0.07425 0.11043 0.45876 0.0
H1405 H 0.07623 0.14844 0.4335 0.0
C1406 C 0.08344 0.19957 0.45259 0.0
C1407 C 0.08762 0.22556 0.4653 0.0
C1408 C 0.08209 0.17661 0.46772 0.0
C1409 C 0.09023 0.22651 0.49386 0.0
C1410 C 0.08876 0.20417 0.50863 0.0
C1411 C 0.08325 0.15592 0.51125 0.0
C1412 C 0.07939 0.12992 0.49865 0.0
C1413 C 0.08467 0.17882 0.49609 0.0
C1414 C 0.07708 0.12891 0.47008 0.0
C1415 C 0.07827 0.15123 0.45524 0.0
H1416 H 0.67723 0.3443 0.19063 0.0
H1417 H 0.63512 0.28461 0.232 0.0
H1418 H 0.67735 0.28121 0.25907 0.0
H1419 H 0.7276 0.29463 0.27181 0.0
H1420 H 0.76902 0.35672 0.23299 0.0
H1421 H 0.72701 0.35949 0.2053 0.0
C1422 C 0.67708 0.33052 0.20557 0.0
C1423 C 0.65197 0.31463 0.20859 0.0
C1424 C 0.70202 0.32901 0.22208 0.0
C1425 C 0.6533 0.29724 0.22864 0.0
C1426 C 0.67784 0.29522 0.24436 0.0
C1427 C 0.72763 0.30894 0.25744 0.0
C1428 C 0.75258 0.32545 0.25515 0.0
C1429 C 0.70256 0.31093 0.24144 0.0
C1430 C 0.75098 0.34369 0.23599 0.0
C1431 C 0.72657 0.34528 0.21979 0.0
H1432 H 0.57598 0.89992 0.93073 0.0
H1433 H 0.61279 0.87211 1.00165 0.0
H1434 H 0.61441 0.9137 0.02655 0.0
H1435 H 0.60555 0.95975 0.02977 0.0
H1436 H 0.56761 0.98715 0.95912 0.0
H1437 H 0.56648 0.94575 0.93414 0.0
C1438 C 0.58448 0.90264 0.95165 0.0
C1439 C 0.59439 0.88129 0.9635 0.0
C1440 C 0.58521 0.92755 0.96663 0.0
C1441 C 0.60494 0.88687 0.99104 0.0
C1442 C 0.60589 0.91124 1.00564 0.0
C1443 C 0.59698 0.95703 1.00887 0.0
C1444 C 0.58675 0.97828 0.99712 0.0
C1445 C 0.59613 0.93207 0.99393 0.0
C1446 C 0.57582 0.97254 0.96968 0.0
C1447 C 0.57515 0.94827 0.95501 0.0
H1448 H 1.00975 0.83018 0.73553 0.0
H1449 H 0.97253 0.77883 0.66691 0.0
H1450 H 0.9296 0.77356 0.68594 0.0
H1451 H 0.9004 0.78335 0.72226 0.0
H1452 H 0.93703 0.83605 0.79005 0.0
H1453 H 0.98029 0.84046 0.77165 0.0
C1454 C 0.99242 0.81772 0.72451 0.0
C1455 C 0.99579 0.80491 0.69906 0.0
C1456 C 0.96662 0.81482 0.73578 0.0
C1457 C 0.97189 0.78916 0.6861 0.0
C1458 C 0.94677 0.78605 0.69721 0.0
C1459 C 0.91772 0.79577 0.73336 0.0
C1460 C 0.91408 0.80912 0.75842 0.0
C1461 C 0.9435 0.79871 0.72211 0.0
C1462 C 0.93787 0.82519 0.77122 0.0
C1463 C 0.96318 0.82782 0.76046 0.0
H1464 H 0.22548 0.07707 0.95744 0.0
H1465 H 0.15866 0.08624 0.90011 0.0
H1466 H 0.12973 0.08717 0.93597 0.0
H1467 H 0.12355 0.08551 0.98346 0.0
H1468 H 0.18999 0.07479 0.04066 0.0
H1469 H 0.21889 0.07412 1.00489 0.0
C1470 C 0.20461 0.07935 0.95289 0.0
C1471 C 0.19417 0.08171 0.92636 0.0
C1472 C 0.18801 0.07945 0.97347 0.0
C1473 C 0.16706 0.08437 0.92051 0.0
C1474 C 0.15053 0.0849 0.94094 0.0
C1475 C 0.14432 0.08295 0.9881 0.0
C1476 C 0.1546 0.08028 1.01464 0.0
C1477 C 0.1608 0.08243 0.96748 0.0
C1478 C 0.18154 0.07687 0.02034 0.0
C1479 C 0.19814 0.07655 0.99993 0.0
H1480 H 0.82804 0.34406 0.6221 0.0
H1481 H 0.90578 0.39267 0.6406 0.0
H1482 H 0.90916 0.38003 0.68646 0.0
H1483 H 0.88954 0.3562 0.72212 0.0
H1484 H 0.81298 0.30567 0.70322 0.0
H1485 H 0.80979 0.31783 0.6571 0.0
C1486 C 0.84579 0.35169 0.63613 0.0
C1487 C 0.86658 0.36934 0.62783 0.0
C1488 C 0.84785 0.34403 0.66259 0.0
C1489 C 0.8895 0.37897 0.6463 0.0
C1490 C 0.89144 0.37183 0.67265 0.0
C1491 C 0.87222 0.34774 0.70789 0.0
C1492 C 0.85153 0.33007 0.7163 0.0
C1493 C 0.87066 0.35453 0.68114 0.0
C1494 C 0.82932 0.31922 0.69741 0.0
C1495 C 0.8274 0.32624 0.67096 0.0
H1496 H 0.53711 0.14673 0.40116 0.0
H1497 H 0.61748 0.15191 0.37847 0.0
H1498 H 0.63228 0.1342 0.42017 0.0
H1499 H 0.62004 0.11028 0.45909 0.0
H1500 H 0.53791 0.10148 0.47787 0.0
H1501 H 0.52612 0.1272 0.44175 0.0
C1502 C 0.55809 0.1448 0.40574 0.0
C1503 C 0.57612 0.15041 0.38677 0.0
C1504 C 0.56593 0.1331 0.42873 0.0
C1505 C 0.60321 0.14766 0.39286 0.0
C1506 C 0.61158 0.13721 0.41651 0.0
C1507 C 0.59969 0.11425 0.45531 0.0
C1508 C 0.57976 0.10347 0.47061 0.0
C1509 C 0.59275 0.12864 0.43392 0.0
C1510 C 0.55348 0.10894 0.46583 0.0
C1511 C 0.54671 0.12386 0.44533 0.0
H1512 H 0.81549 0.7428 0.10613 0.0
H1513 H 0.88417 0.70791 0.13061 0.0
H1514 H 0.88531 0.72627 0.1768 0.0
H1515 H 0.86684 0.75249 0.21219 0.0
H1516 H 0.79782 0.78697 0.18751 0.0
H1517 H 0.79713 0.76905 0.14139 0.0
C1518 C 0.83089 0.7392 0.12139 0.0
C1519 C 0.84987 0.72357 0.11368 0.0
C1520 C 0.83143 0.74998 0.14887 0.0
C1521 C 0.86922 0.71958 0.13484 0.0
C1522 C 0.86989 0.73021 0.16176 0.0
C1523 C 0.85154 0.75621 0.19689 0.0
C1524 C 0.83232 0.7716 0.20463 0.0
C1525 C 0.8511 0.74549 0.16937 0.0
C1526 C 0.81301 0.77556 0.18338 0.0
C1527 C 0.81256 0.76515 0.15645 0.0
H1528 H 0.16352 0.04565 0.80557 0.0
H1529 H 0.23663 0.05521 0.76751 0.0
H1530 H 0.21034 0.05515 0.72374 0.0
H1531 H 0.16764 0.05884 0.69788 0.0
H1532 H 0.09485 0.05243 0.73639 0.0
H1533 H 0.12006 0.04512 0.7787 0.0
C1534 C 0.17363 0.04703 0.78759 0.0
C1535 C 0.20192 0.05055 0.78966 0.0
C1536 C 0.15852 0.04815 0.76279 0.0
C1537 C 0.21483 0.05254 0.76631 0.0
C1538 C 0.19985 0.0527 0.74137 0.0
C1539 C 0.15716 0.05524 0.71536 0.0
C1540 C 0.12948 0.05629 0.71413 0.0
C1541 C 0.17182 0.05153 0.73959 0.0
C1542 C 0.11623 0.05203 0.73702 0.0
C1543 C 0.1306 0.04775 0.76113 0.0
H1544 H 0.8489 0.40592 0.45728 0.0
H1545 H 0.83111 0.33115 0.486 0.0
H1546 H 0.82217 0.31166 0.43957 0.0
H1547 H 0.82112 0.3157 0.39038 0.0
H1548 H 0.84201 0.39049 0.36249 0.0
H1549 H 0.8477 0.40999 0.40864 0.0
C1550 C 0.84291 0.38535 0.45342 0.0
C1551 C 0.84064 0.37008 0.47526 0.0
C1552 C 0.83828 0.37422 0.42662 0.0
C1553 C 0.83306 0.34343 0.46971 0.0
C1554 C 0.82791 0.33225 0.44309 0.0
C1555 C 0.82653 0.33629 0.39441 0.0
C1556 C 0.83089 0.3516 0.37284 0.0
C1557 C 0.83062 0.34742 0.42131 0.0
C1558 C 0.83845 0.37822 0.37858 0.0
C1559 C 0.84178 0.38941 0.40504 0.0
H1560 H 0.62421 0.12196 0.28282 0.0
H1561 H 0.57935 0.16634 0.23195 0.0
H1562 H 0.60685 0.15933 0.19586 0.0
H1563 H 0.63567 0.13241 0.17633 0.0
H1564 H 0.68133 0.08838 0.22718 0.0
H1565 H 0.66194 0.10414 0.26617 0.0
C1566 C 0.62101 0.13061 0.26403 0.0
C1567 C 0.59947 0.14398 0.25954 0.0
C1568 C 0.6368 0.12641 0.24344 0.0
C1569 C 0.59571 0.15571 0.23556 0.0
C1570 C 0.61134 0.15162 0.21494 0.0
C1571 C 0.64249 0.12708 0.19603 0.0
C1572 C 0.6591 0.10835 0.19861 0.0
C1573 C 0.63092 0.13584 0.21822 0.0
C1574 C 0.66778 0.10204 0.22449 0.0
C1575 C 0.65662 0.11096 0.24679 0.0
H1576 H 0.8662 0.75673 0.96562 0.0
H1577 H 0.82579 0.68206 0.93169 0.0
H1578 H 0.82169 0.6978 0.88706 0.0
H1579 H 0.82878 0.73313 0.85556 0.0
H1580 H 0.87031 0.80756 0.88915 0.0
H1581 H 0.87445 0.79184 0.9338 0.0
C1582 C 0.85645 0.74367 0.94864 0.0
C1583 C 0.84629 0.71758 0.95346 0.0
C1584 C 0.85424 0.75305 0.92184 0.0
C1585 C 0.83397 0.70192 0.92995 0.0
C1586 C 0.83155 0.71109 0.90384 0.0
C1587 C 0.83895 0.74612 0.87244 0.0
C1588 C 0.84925 0.77214 0.8675 0.0
C1589 C 0.84152 0.73668 0.89915 0.0
C1590 C 0.86211 0.7877 0.8909 0.0
C1591 C 0.86448 0.77857 0.91706 0.0
H1592 H 0.90115 0.21267 0.03388 0.0
H1593 H 0.83984 0.14496 0.02134 0.0
H1594 H 0.8744 0.11818 0.01813 0.0
H1595 H 0.92205 0.11387 0.01997 0.0
H1596 H 0.98346 0.18151 0.03148 0.0
H1597 H 0.94888 0.20841 0.03417 0.0
C1598 C 0.89538 0.19206 0.03042 0.0
C1599 C 0.868 0.18081 0.02793 0.0
C1600 C 0.91537 0.17675 0.02848 0.0
C1601 C 0.8608 0.15409 0.02332 0.0
C1602 C 0.88054 0.13875 0.0215 0.0
C1603 C 0.92785 0.13451 0.02272 0.0
C1604 C 0.9553 0.14564 0.02563 0.0
C1605 C 0.90788 0.14986 0.02413 0.0
C1606 C 0.96249 0.17242 0.02958 0.0
C1607 C 0.94273 0.18783 0.031 0.0
H1608 H 0.39459 0.48794 1.01223 0.0
H1609 H 0.40629 0.46418 0.09235 0.0
H1610 H 0.45341 0.48553 0.09732 0.0
H1611 H 0.49311 0.51105 0.07912 0.0
H1612 H 0.48225 0.53217 0.99784 0.0
H1613 H 0.43466 0.51239 0.99355 0.0
C1614 C 0.40727 0.48745 0.03092 0.0
C1615 C 0.39574 0.47415 0.05199 0.0
C1616 C 0.43536 0.4996 0.03358 0.0
C1617 C 0.4136 0.47396 0.07565 0.0
C1618 C 0.44099 0.48635 0.07856 0.0
C1619 C 0.48045 0.51157 0.06043 0.0
C1620 C 0.49233 0.52383 0.03892 0.0
C1621 C 0.4524 0.49929 0.05771 0.0
C1622 C 0.47466 0.52336 1.01497 0.0
C1623 C 0.44699 0.51186 1.01244 0.0
H1624 H 0.34945 0.56261 0.72086 0.0
H1625 H 0.42206 0.61542 0.71343 0.0
H1626 H 0.39977 0.65155 0.72427 0.0
H1627 H 0.36153 0.66778 0.74037 0.0
H1628 H 0.29011 0.61548 0.75242 0.0
H1629 H 0.3099 0.57933 0.73531 0.0
C1630 C 0.3601 0.58208 0.72117 0.0
C1631 C 0.38723 0.58655 0.71637 0.0
C1632 C 0.34747 0.60272 0.72852 0.0
C1633 C 0.40114 0.6117 0.71718 0.0
C1634 C 0.38845 0.6323 0.7234 0.0
C1635 C 0.35006 0.64851 0.73866 0.0
C1636 C 0.32439 0.6442 0.74738 0.0
C1637 C 0.36188 0.62799 0.72975 0.0
C1638 C 0.30994 0.61914 0.74576 0.0
C1639 C 0.32125 0.59855 0.73603 0.0
H1640 H 0.2567 0.63349 0.5284 0.0
H1641 H 0.21928 0.69863 0.51043 0.0
H1642 H 0.17473 0.67163 0.50546 0.0
H1643 H 0.14621 0.63 0.50879 0.0
H1644 H 0.18371 0.5653 0.52856 0.0
H1645 H 0.22828 0.59153 0.52997 0.0
C1646 C 0.23882 0.64175 0.52318 0.0
C1647 C 0.24136 0.66809 0.51987 0.0
C1648 C 0.21321 0.62615 0.52069 0.0
C1649 C 0.21793 0.67845 0.51317 0.0
C1650 C 0.19243 0.66301 0.51033 0.0
C1651 C 0.16413 0.62152 0.51301 0.0
C1652 C 0.16154 0.59565 0.5185 0.0
C1653 C 0.18978 0.63689 0.51436 0.0
C1654 C 0.18504 0.58512 0.52423 0.0
C1655 C 0.21058 0.60014 0.52513 0.0
H1656 H 0.68444 0.96891 0.84326 0.0
H1657 H 0.66848 0.94689 0.75795 0.0
H1658 H 0.70925 0.92788 0.75975 0.0
H1659 H 0.75108 0.92119 0.78442 0.0
H1660 H 0.76653 0.94055 0.87026 0.0
H1661 H 0.7248 0.95825 0.86906 0.0
C1662 C 0.68959 0.95946 0.82518 0.0
C1663 C 0.67352 0.95939 0.80047 0.0
C1664 C 0.71333 0.94891 0.82627 0.0
C1665 C 0.68048 0.94717 0.7772 0.0
C1666 C 0.70393 0.93653 0.77816 0.0
C1667 C 0.74519 0.9287 0.80309 0.0
C1668 C 0.76205 0.92935 0.82744 0.0
C1669 C 0.72079 0.93788 0.80243 0.0
C1670 C 0.75429 0.94011 0.85114 0.0
C1671 C 0.73022 0.94993 0.85053 0.0
H1672 H 0.75382 1.00789 0.55855 0.0
H1673 H 0.71246 0.93731 0.51546 0.0
H1674 H 0.67045 0.95472 0.5108 0.0
H1675 H 0.64327 0.99057 0.51874 0.0
H1676 H 0.68535 0.06087 0.56227 0.0
H1677 H 0.72695 0.04338 0.56648 0.0
C1678 C 0.73578 0.99607 0.54805 0.0
C1679 C 0.73767 0.97062 0.53742 0.0
C1680 C 0.71065 1.00647 0.54533 0.0
C1681 C 0.71293 0.95662 0.52406 0.0
C1682 C 0.68834 0.96678 0.52132 0.0
C1683 C 0.66139 1.00234 0.52916 0.0
C1684 C 0.65966 0.02784 0.54004 0.0
C1685 C 0.68654 0.9918 0.53181 0.0
C1686 C 0.68455 0.04159 0.55341 0.0
C1687 C 0.70901 0.03141 0.55593 0.0
H1688 H 0.35724 0.46135 0.72415 0.0
H1689 H 0.42325 0.43552 0.68893 0.0
H1690 H 0.41067 0.39316 0.70477 0.0
H1691 H 0.38388 0.36517 0.73315 0.0
H1692 H 0.31884 0.39247 0.76909 0.0
H1693 H 0.32835 0.43259 0.74874 0.0
C1694 C 0.36857 0.44631 0.71945 0.0
C1695 C 0.39126 0.45159 0.70565 0.0
C1696 C 0.36178 0.42241 0.7293 0.0
C1697 C 0.40565 0.43189 0.69955 0.0
C1698 C 0.39865 0.40776 0.70886 0.0
C1699 C 0.37181 0.37991 0.73646 0.0
C1700 C 0.35096 0.37593 0.75293 0.0
C1701 C 0.37733 0.40311 0.72459 0.0
C1702 C 0.33516 0.39504 0.75667 0.0
C1703 C 0.3405 0.41802 0.74498 0.0
H1704 H 0.16967 0.57839 0.2964 0.0
H1705 H 0.19548 0.54251 0.22629 0.0
H1706 H 0.22518 0.58235 0.22034 0.0
H1707 H 0.24315 0.62741 0.23468 0.0
H1708 H 0.21604 0.66368 0.30385 0.0
H1709 H 0.18773 0.62342 0.31081 0.0
C1710 C 0.1819 0.57926 0.27989 0.0
C1711 C 0.18042 0.55761 0.26179 0.0
C1712 C 0.19866 0.60223 0.27646 0.0
C1713 C 0.19629 0.55898 0.24046 0.0
C1714 C 0.21323 0.58173 0.23704 0.0
C1715 C 0.23084 0.62658 0.25112 0.0
C1716 C 0.2316 0.64853 0.26864 0.0
C1717 C 0.2144 0.6035 0.2548 0.0
C1718 C 0.216 0.64699 0.29022 0.0
C1719 C 0.19971 0.62403 0.29412 0.0
H1720 H 0.59369 0.71801 0.48353 0.0
H1721 H 0.51392 0.6743 0.48236 0.0
H1722 H 0.52912 0.65324 0.52154 0.0
H1723 H 0.56639 0.64235 0.55059 0.0
H1724 H 0.64742 0.68143 0.54801 0.0
H1725 H 0.63049 0.71033 0.51673 0.0
C1726 C 0.57963 0.70402 0.49203 0.0
C1727 C 0.55277 0.69727 0.47993 0.0
C1728 C 0.58877 0.69156 0.51407 0.0
C1729 C 0.53468 0.67938 0.49122 0.0
C1730 C 0.54335 0.6675 0.51362 0.0
C1731 C 0.58014 0.65801 0.54407 0.0
C1732 C 0.60796 0.66009 0.55152 0.0
C1733 C 0.5705 0.67287 0.5246 0.0
C1734 C 0.62586 0.67995 0.54281 0.0
C1735 C 0.61621 0.696 0.52448 0.0
H1736 H 0.76026 0.42113 0.7265 0.0
H1737 H 0.7118 0.41066 0.7919 0.0
H1738 H 0.74886 0.3972 0.81916 0.0
H1739 H 0.7897 0.37762 0.81921 0.0
H1740 H 0.83728 0.38634 0.75324 0.0
H1741 H 0.80633 0.41167 0.73156 0.0
C1742 C 0.75819 0.41683 0.74707 0.0
C1743 C 0.7331 0.41604 0.75686 0.0
C1744 C 0.77935 0.40839 0.76238 0.0
C1745 C 0.73078 0.41091 0.7837 0.0
C1746 C 0.75192 0.40302 0.79927 0.0
C1747 C 0.79391 0.38625 0.8008 0.0
C1748 C 0.81551 0.38037 0.78774 0.0
C1749 C 0.77556 0.40005 0.78812 0.0
C1750 C 0.82081 0.39106 0.76367 0.0
C1751 C 0.80293 0.40523 0.75113 0.0
H1752 H 0.98712 0.29441 0.92729 0.0
H1753 H 0.06875 0.2926 0.96108 0.0
H1754 H 0.07469 0.33786 0.97695 0.0
H1755 H 0.05708 0.37816 0.97993 0.0
H1756 H 0.97616 0.38023 0.94399 0.0
H1757 H 0.96942 0.33452 0.93063 0.0
C1758 C 1.00613 0.30388 0.93832 0.0
C1759 C 1.02747 0.29027 0.94301 0.0
C1760 C 1.00953 0.32992 0.94698 0.0
C1761 C 0.05204 0.30275 0.95721 0.0
C1762 C 0.05546 0.3286 0.96624 0.0
C1763 C 0.03805 0.36865 0.969 0.0
C1764 C 1.01719 0.38262 0.96298 0.0
C1765 C 0.03444 0.34244 0.96095 0.0
C1766 C 0.99245 0.36989 0.94922 0.0
C1767 C 0.98862 0.34378 0.9414 0.0
H1768 H 0.06686 0.82044 0.1934 0.0
H1769 H 0.08374 0.89693 0.23286 0.0
H1770 H 0.04726 0.88581 0.26057 0.0
H1771 H 1.01039 0.85436 0.27318 0.0
H1772 H 0.99372 0.77801 0.23346 0.0
H1773 H 1.03045 0.78907 0.20615 0.0
C1774 C 0.06253 0.83472 0.20802 0.0
C1775 C 0.07788 0.85947 0.21107 0.0
C1776 C 0.04168 0.82818 0.22384 0.0
C1777 C 0.0721 0.87775 0.23011 0.0
C1778 C 0.05133 0.87139 0.24598 0.0
C1779 C 1.01507 0.84009 0.25877 0.0
C1780 C 0.99951 0.81539 0.25536 0.0
C1781 C 0.03604 0.84665 0.24304 0.0
C1782 C 1.00538 0.79718 0.2363 0.0
C1783 C 1.02635 0.80348 0.22073 0.0
H1784 H 0.58478 0.41447 0.14851 0.0
H1785 H 0.56676 0.36571 0.07465 0.0
H1786 H 0.56759 0.40349 0.04908 0.0
H1787 H 0.57319 0.45225 0.04608 0.0
H1788 H 0.59113 0.50038 0.12056 0.0
H1789 H 0.5905 0.46267 0.1456 0.0
C1790 C 0.58099 0.4117 0.12679 0.0
C1791 C 0.57564 0.38563 0.11439 0.0
C1792 C 0.5815 0.43441 0.11145 0.0
C1793 C 0.57095 0.38433 0.08582 0.0
C1794 C 0.57144 0.40651 0.07079 0.0
C1795 C 0.57713 0.4549 0.0678 0.0
C1796 C 0.5824 0.48095 0.08048 0.0
C1797 C 0.57668 0.43201 0.08307 0.0
C1798 C 0.58708 0.48193 0.10906 0.0
C1799 C 0.5867 0.45976 0.12387 0.0
H1800 H 1.01646 0.31384 0.34562 0.0
H1801 H 0.98986 0.28009 0.41588 0.0
H1802 H 0.94284 0.2794 0.39794 0.0
H1803 H 0.90755 0.28906 0.36228 0.0
H1804 H 0.93453 0.32478 0.29313 0.0
H1805 H 0.9813 0.32384 0.31026 0.0
C1806 C 1.0005 0.30616 0.35709 0.0
C1807 C 1.00779 0.29684 0.38251 0.0
C1808 C 0.97266 0.30617 0.34663 0.0
C1809 C 0.98587 0.28738 0.3965 0.0
C1810 C 0.95853 0.28698 0.3861 0.0
C1811 C 0.9235 0.2965 0.3507 0.0
C1812 C 0.91633 0.30688 0.32582 0.0
C1813 C 0.95136 0.29638 0.36115 0.0
C1814 C 0.93834 0.31659 0.31204 0.0
C1815 C 0.96558 0.31608 0.32198 0.0
H1816 H 0.09513 0.71466 0.64474 0.0
H1817 H 0.05047 0.73932 0.57638 0.0
H1818 H 0.04951 0.69786 0.55141 0.0
H1819 H 0.06122 0.65279 0.5475 0.0
H1820 H 0.10725 0.62902 0.61562 0.0
H1821 H 0.10751 0.6701 0.6406 0.0
C1822 C 0.08506 0.71127 0.62436 0.0
C1823 C 0.07273 0.73161 0.61323 0.0
C1824 C 0.08475 0.68653 0.60936 0.0
C1825 C 0.06021 0.72527 0.58639 0.0
C1826 C 0.05964 0.701 0.57176 0.0
C1827 C 0.07137 0.65627 0.56783 0.0
C1828 C 0.08417 0.63614 0.57889 0.0
C1829 C 0.0718 0.68113 0.58277 0.0
C1830 C 0.09707 0.64278 0.6056 0.0
C1831 C 0.09725 0.66687 0.62029 0.0
H1832 H 0.69533 0.82812 0.89793 0.0
H1833 H 0.63937 0.77698 0.84005 0.0
H1834 H 0.67536 0.77359 0.81172 0.0
H1835 H 0.72426 0.78461 0.80196 0.0
H1836 H 0.77919 0.83807 0.85874 0.0
H1837 H 0.74342 0.84073 0.88718 0.0
C1838 C 0.69069 0.81614 0.87916 0.0
C1839 C 0.6634 0.8027 0.87206 0.0
C1840 C 0.7121 0.81456 0.86195 0.0
C1841 C 0.65927 0.78771 0.84698 0.0
C1842 C 0.6803 0.7857 0.8304 0.0
C1843 C 0.7287 0.797 0.82046 0.0
C1844 C 0.75583 0.81105 0.82731 0.0
C1845 C 0.70708 0.79896 0.83739 0.0
C1846 C 0.75952 0.82681 0.8519 0.0
C1847 C 0.73862 0.82838 0.86865 0.0
H1848 H 0.5143 0.52978 0.67716 0.0
H1849 H 0.4572 0.56625 0.63035 0.0
H1850 H 0.49387 0.58948 0.60891 0.0
H1851 H 0.54209 0.59982 0.60419 0.0
H1852 H 0.59877 0.56235 0.65031 0.0
H1853 H 0.56227 0.53996 0.67239 0.0
C1854 C 0.50979 0.54253 0.66197 0.0
C1855 C 0.4831 0.54619 0.65517 0.0
C1856 C 0.53091 0.5561 0.65019 0.0
C1857 C 0.47758 0.56292 0.63566 0.0
C1858 C 0.49854 0.57638 0.62362 0.0
C1859 C 0.54643 0.58676 0.61909 0.0
C1860 C 0.573 0.58256 0.62542 0.0
C1861 C 0.52527 0.57329 0.63096 0.0
C1862 C 0.5785 0.56605 0.64519 0.0
C1863 C 0.55761 0.55298 0.65755 0.0
H1864 H 0.85602 0.27469 0.96969 0.0
H1865 H 0.76954 0.25501 0.95155 0.0
H1866 H 0.77207 0.2715 0.90749 0.0
H1867 H 0.79883 0.2899 0.87325 0.0
H1868 H 0.88547 0.30894 0.89074 0.0
H1869 H 0.88281 0.2945 0.93572 0.0
C1870 C 0.83771 0.27424 0.95619 0.0
C1871 C 0.8126 0.26361 0.96404 0.0
C1872 C 0.83932 0.2836 0.93063 0.0
C1873 C 0.78912 0.26308 0.94616 0.0
C1874 C 0.79055 0.27249 0.92088 0.0
C1875 C 0.81717 0.29115 0.88692 0.0
C1876 C 0.84234 0.3006 0.87842 0.0
C1877 C 0.81554 0.28257 0.91277 0.0
C1878 C 0.8658 0.30184 0.89657 0.0
C1879 C 0.86431 0.29351 0.92237 0.0
H1880 H 0.05967 0.486 0.19645 0.0
H1881 H 0.13007 0.45587 0.17713 0.0
H1882 H 0.11997 0.46365 0.12992 0.0
H1883 H 0.09625 0.48675 0.0966 0.0
H1884 H 1.03064 0.52299 0.11865 0.0
H1885 H 1.03338 0.50499 0.16225 0.0
C1886 C 0.07234 0.48039 0.18175 0.0
C1887 C 0.09566 0.47055 0.19017 0.0
C1888 C 0.06741 0.48648 0.1552 0.0
C1889 C 0.11203 0.46355 0.17102 0.0
C1890 C 0.10638 0.4682 0.14411 0.0
C1891 C 0.0821 0.48996 0.11075 0.0
C1892 C 0.06322 0.50596 0.10473 0.0
C1893 C 0.08491 0.48082 0.13629 0.0
C1894 C 0.04527 0.51063 0.12313 0.0
C1895 C 0.04691 0.50044 0.148 0.0
H1896 H 0.78208 0.86585 0.45363 0.0
H1897 H 0.85617 0.92005 0.46025 0.0
H1898 H 0.86589 0.90237 0.41685 0.0
H1899 H 0.85394 0.87131 0.37526 0.0
H1900 H 0.77782 0.8199 0.36639 0.0
H1901 H 0.76892 0.83625 0.41073 0.0
C1902 C 0.80045 0.87389 0.44578 0.0
C1903 C 0.81836 0.89467 0.46148 0.0
C1904 C 0.8058 0.86388 0.41953 0.0
C1905 C 0.84171 0.90437 0.44963 0.0
C1906 C 0.84742 0.89409 0.42437 0.0
C1907 C 0.83536 0.86349 0.38286 0.0
C1908 C 0.81681 0.84372 0.36641 0.0
C1909 C 0.82973 0.87378 0.40884 0.0
C1910 C 0.7928 0.83479 0.37761 0.0
C1911 C 0.78761 0.84428 0.40343 0.0
H1912 H 0.50621 0.55808 0.77767 0.0
H1913 H 0.45057 0.49203 0.79446 0.0
H1914 H 0.48056 0.48689 0.83429 0.0
H1915 H 0.52188 0.50139 0.86454 0.0
H1916 H 0.57719 0.56824 0.84962 0.0
H1917 H 0.54802 0.57286 0.80855 0.0
C1918 C 0.50065 0.54266 0.79016 0.0
C1919 C 0.47622 0.5255 0.78326 0.0
C1920 C 0.51796 0.53985 0.81308 0.0
C1921 C 0.46919 0.50558 0.79951 0.0
C1922 C 0.48637 0.50254 0.82217 0.0
C1923 C 0.52786 0.51666 0.85198 0.0
C1924 C 0.55185 0.53415 0.85965 0.0
C1925 C 0.51078 0.5195 0.82906 0.0
C1926 C 0.55892 0.5544 0.84381 0.0
C1927 C 0.54221 0.55708 0.82049 0.0
H1928 H 0.82287 0.22523 0.13395 0.0
H1929 H 0.81317 0.29745 0.10322 0.0
H1930 H 0.81903 0.31779 0.14901 0.0
H1931 H 0.82654 0.31529 0.19753 0.0
H1932 H 0.83593 0.24345 0.22933 0.0
H1933 H 0.83068 0.22282 0.1834 0.0
C1934 C 0.82205 0.24543 0.13728 0.0
C1935 C 0.81756 0.25978 0.11503 0.0
C1936 C 0.82544 0.25709 0.16387 0.0
C1937 C 0.81657 0.28592 0.11982 0.0
C1938 C 0.81994 0.29759 0.14606 0.0
C1939 C 0.82758 0.29511 0.1946 0.0
C1940 C 0.83175 0.28102 0.2171 0.0
C1941 C 0.82437 0.28339 0.16821 0.0
C1942 C 0.83285 0.25485 0.21255 0.0
C1943 C 0.82979 0.24303 0.18623 0.0
H1944 H 0.07571 0.55748 0.29122 0.0
H1945 H 0.04545 0.48388 0.31781 0.0
H1946 H 1.01763 0.50385 0.34694 0.0
H1947 H 1.01013 0.5425 0.37139 0.0
H1948 H 0.04513 0.6166 0.3494 0.0
H1949 H 0.06218 0.59616 0.31111 0.0
C1950 C 0.06254 0.54574 0.30293 0.0
C1951 C 0.06297 0.51934 0.30286 0.0
C1952 C 0.04754 0.5575 0.32045 0.0
C1953 C 0.04573 0.5043 0.31791 0.0
C1954 C 1.02984 0.51571 0.33454 0.0
C1955 C 1.02041 0.55432 0.35755 0.0
C1956 C 1.02657 0.58105 0.36332 0.0
C1957 C 1.03167 0.5424 0.33692 0.0
C1958 C 0.04024 0.596 0.34536 0.0
C1959 C 0.05027 0.58428 0.32373 0.0
H1960 H 0.82766 0.91803 0.6494 0.0
H1961 H 0.79676 0.85087 0.59534 0.0
H1962 H 0.79592 0.82444 0.63346 0.0
H1963 H 0.8042 0.81892 0.68358 0.0
H1964 H 0.83554 0.88628 0.73736 0.0
H1965 H 0.83571 0.91259 0.69933 0.0
C1966 C 0.82065 0.89762 0.64564 0.0
C1967 C 0.81224 0.88719 0.61818 0.0
C1968 C 0.82021 0.88185 0.66843 0.0
C1969 C 0.80343 0.86029 0.61527 0.0
C1970 C 0.80292 0.84483 0.63753 0.0
C1971 C 0.81095 0.83937 0.68732 0.0
C1972 C 0.81975 0.84984 0.71474 0.0
C1973 C 0.81125 0.85513 0.66448 0.0
C1974 C 0.8285 0.87676 0.71753 0.0
C1975 C 0.82866 0.89219 0.6953 0.0
H1976 H 0.84256 0.48845 0.58315 0.0
H1977 H 0.7716 0.43094 0.56067 0.0
H1978 H 0.74288 0.46232 0.57091 0.0
H1979 H 0.73801 0.50632 0.58553 0.0
H1980 H 0.80906 0.56348 0.60893 0.0
H1981 H 0.83775 0.53191 0.59943 0.0
C1982 C 0.82079 0.48278 0.58045 0.0
C1983 C 0.80919 0.45745 0.57094 0.0
C1984 C 0.80448 0.50083 0.58668 0.0
C1985 C 0.781 0.45033 0.56786 0.0
C1986 C 0.76459 0.46826 0.57372 0.0
C1987 C 0.75979 0.51184 0.58851 0.0
C1988 C 0.77143 0.53725 0.59775 0.0
C1989 C 0.77611 0.49358 0.58302 0.0
C1990 C 0.79965 0.54404 0.60198 0.0
C1991 C 0.81603 0.52603 0.59639 0.0
H1992 H 0.26224 0.10707 0.51369 0.0
H1993 H 0.25783 0.17261 0.56735 0.0
H1994 H 0.21169 0.15435 0.57365 0.0
H1995 H 0.1709 0.11985 0.56407 0.0
H1996 H 0.17366 0.0553 0.50848 0.0
H1997 H 0.22054 0.07269 0.50318 0.0
C1998 C 0.25135 0.11744 0.52686 0.0
C1999 C 0.26464 0.14166 0.54007 0.0
C2000 C 0.22373 0.10679 0.53021 0.0
C2001 C 0.24909 0.15423 0.55674 0.0
C2002 C 0.22228 0.14365 0.56045 0.0
C2003 C 0.18163 0.10934 0.55085 0.0
C2004 C 0.16776 0.08569 0.53696 0.0
C2005 C 0.20911 0.11992 0.54734 0.0
C2006 C 0.1829 0.07322 0.51972 0.0
C2007 C 0.21013 0.08333 0.5166 0.0
H2008 H 0.32948 0.05619 0.85979 0.0
H2009 H 0.27204 1.00314 0.89505 0.0
H2010 H 0.29943 0.9699 0.88945 0.0
H2011 H 0.33413 0.95398 0.8664 0.0
H2012 H 0.39031 1.00598 0.82859 0.0
H2013 H 0.36922 0.04176 0.84376 0.0
C2014 C 0.32331 0.03753 0.86683 0.0
C2015 C 0.29851 0.0319 0.87724 0.0
C2016 C 0.33876 1.01828 0.86281 0.0
C2017 C 0.29086 1.00778 0.88657 0.0
C2018 C 0.30649 0.98875 0.88332 0.0
C2019 C 0.34253 0.97325 0.86236 0.0
C2020 C 0.36347 0.97727 0.84601 0.0
C2021 C 0.32973 0.99346 0.87029 0.0
C2022 C 0.37389 1.00238 0.84078 0.0
C2023 C 0.36176 1.0228 0.84933 0.0
H2024 H 0.41992 0.98261 0.06528 0.0
H2025 H 0.45181 0.91316 0.05108 0.0
H2026 H 0.49726 0.93819 0.0524 0.0
H2027 H 0.52738 0.98032 0.05499 0.0
H2028 H 0.494 0.04925 0.06711 0.0
H2029 H 0.44972 0.02391 0.06966 0.0
C2030 C 0.4368 0.97287 0.06256 0.0
C2031 C 0.43247 0.94607 0.05789 0.0
C2032 C 0.46263 0.98734 0.06311 0.0
C2033 C 0.45461 0.93379 0.05457 0.0
C2034 C 0.48058 0.9481 0.05536 0.0
C2035 C 0.51047 0.9897 0.05866 0.0
C2036 C 0.5139 1.01661 0.06092 0.0
C2037 C 0.48479 0.97495 0.05932 0.0
C2038 C 0.4918 0.02858 0.06526 0.0
C2039 C 0.46648 1.01411 0.06663 0.0
H2040 H 0.98294 0.666 0.77139 0.0
H2041 H 0.96021 0.63752 0.84569 0.0
H2042 H 0.91411 0.64433 0.83371 0.0
H2043 H 0.88065 0.65945 0.80289 0.0
H2044 H 0.90408 0.69096 0.73011 0.0
H2045 H 0.94904 0.68071 0.74014 0.0
C2046 C 0.96788 0.66134 0.78495 0.0
C2047 C 0.975 0.65146 0.80945 0.0
C2048 C 0.94139 0.66538 0.77799 0.0
C2049 C 0.95527 0.64533 0.82677 0.0
C2050 C 0.92887 0.64909 0.81989 0.0
C2051 C 0.89556 0.66414 0.7892 0.0
C2052 C 0.88887 0.67609 0.76585 0.0
C2053 C 0.92176 0.65926 0.79564 0.0
C2054 C 0.90837 0.6814 0.74804 0.0
C2055 C 0.93429 0.6759 0.75395 0.0
H2056 H 0.90571 0.60269 0.02698 0.0
H2057 H 0.94945 0.67946 0.04586 0.0
H2058 H 0.99204 0.66316 0.04989 0.0
H2059 H 1.01898 0.62679 0.04829 0.0
H2060 H 0.97523 0.55006 0.0288 0.0
H2061 H 0.93268 0.56634 0.02505 0.0
C2062 C 0.92442 0.61609 0.03197 0.0
C2063 C 0.92306 0.64296 0.03602 0.0
C2064 C 0.94991 0.60633 0.03431 0.0
C2065 C 0.94859 0.65901 0.04247 0.0
C2066 C 0.9735 0.64952 0.04485 0.0
C2067 C 1.00027 0.61337 0.04329 0.0
C2068 C 1.00166 0.58652 0.03906 0.0
C2069 C 0.97479 0.62314 0.04088 0.0
C2070 C 0.97613 0.57049 0.03239 0.0
C2071 C 0.95122 0.57997 0.03017 0.0
H2072 H 0.30038 0.1621 0.87006 0.0
H2073 H 0.21965 0.15658 0.82986 0.0
H2074 H 0.23134 0.19911 0.81463 0.0
H2075 H 0.2653 0.23634 0.80984 0.0
H2076 H 0.34635 0.24177 0.84934 0.0
H2077 H 0.33364 0.20088 0.86785 0.0
C2078 C 0.2853 0.17037 0.85824 0.0
C2079 C 0.25931 0.15619 0.85088 0.0
C2080 C 0.29224 0.1947 0.84923 0.0
C2081 C 0.23989 0.16709 0.83563 0.0
C2082 C 0.24654 0.19138 0.82685 0.0
C2083 C 0.28017 0.22865 0.82259 0.0
C2084 C 0.30679 0.24192 0.82791 0.0
C2085 C 0.27281 0.20509 0.83303 0.0
C2086 C 0.32572 0.23187 0.84479 0.0
C2087 C 0.31851 0.20846 0.85537 0.0
H2088 H 0.48481 0.05392 0.27847 0.0
H2089 H 0.50547 0.07082 0.3641 0.0
H2090 H 0.4803 0.02924 0.3719 0.0
H2091 H 0.45296 0.98798 0.35442 0.0
H2092 H 0.42923 0.97219 0.26894 0.0
H2093 H 0.45528 1.01326 0.26108 0.0
C2094 C 0.48385 0.04839 0.2988 0.0
C2095 C 0.4971 0.06527 0.32066 0.0
C2096 C 0.46882 0.02466 0.30317 0.0
C2097 C 0.49542 0.0581 0.34694 0.0
C2098 C 0.48104 0.03434 0.35142 0.0
C2099 C 0.45304 0.99361 0.33407 0.0
C2100 C 0.43915 0.97679 0.31234 0.0
C2101 C 0.46761 1.01749 0.32969 0.0
C2102 C 0.44006 0.98442 0.28608 0.0
C2103 C 0.45485 1.00802 0.28154 0.0
H2104 H 0.67281 0.45302 0.63102 0.0
H2105 H 0.60525 0.45683 0.67595 0.0
H2106 H 0.58973 0.48769 0.64672 0.0
H2107 H 0.59712 0.51571 0.61033 0.0
H2108 H 0.66648 0.51411 0.56765 0.0
H2109 H 0.67925 0.47978 0.59359 0.0
C2110 C 0.65466 0.46056 0.63435 0.0
C2111 C 0.64032 0.45287 0.65568 0.0
C2112 C 0.64601 0.47842 0.61765 0.0
C2113 C 0.61676 0.46268 0.65975 0.0
C2114 C 0.6078 0.4802 0.64298 0.0
C2115 C 0.61455 0.50726 0.60624 0.0
C2116 C 0.63067 0.517 0.58698 0.0
C2117 C 0.6224 0.48839 0.62203 0.0
C2118 C 0.65368 0.50657 0.58227 0.0
C2119 C 0.6611 0.48716 0.59723 0.0
H2120 H 0.47264 0.7192 0.33217 0.0
H2121 H 0.42839 0.71228 0.401 0.0
H2122 H 0.39359 0.73296 0.37865 0.0
H2123 H 0.38122 0.76071 0.3441 0.0
H2124 H 0.42564 0.76909 0.27572 0.0
H2125 H 0.45533 0.74033 0.29348 0.0
C2126 C 0.45488 0.72132 0.34187 0.0
C2127 C 0.45337 0.71477 0.36846 0.0
C2128 C 0.43561 0.73432 0.32941 0.0
C2129 C 0.43013 0.71741 0.38065 0.0
C2130 C 0.41043 0.72957 0.36805 0.0
C2131 C 0.39725 0.75597 0.33298 0.0
C2132 C 0.40199 0.76742 0.30916 0.0
C2133 C 0.41392 0.73948 0.34323 0.0
C2134 C 0.42212 0.7607 0.29437 0.0
C2135 C 0.43896 0.74428 0.3045 0.0
H2136 H 0.11061 0.80526 0.09905 0.0
H2137 H 0.19469 0.8148 0.13055 0.0
H2138 H 0.19578 0.77051 0.11512 0.0
H2139 H 0.17068 0.72756 0.10053 0.0
H2140 H 0.08623 0.7177 0.07031 0.0
H2141 H 0.08742 0.76374 0.07746 0.0
C2142 C 0.12933 0.79782 0.10194 0.0
C2143 C 0.15236 0.813 0.11638 0.0
C2144 C 0.1296 0.77219 0.09376 0.0
C2145 C 0.1766 0.80332 0.11971 0.0
C2146 C 0.1772 0.77796 0.11106 0.0
C2147 C 0.15274 0.73555 0.09475 0.0
C2148 C 0.12827 0.71925 0.08548 0.0
C2149 C 0.15348 0.76194 0.09924 0.0
C2150 C 0.10515 0.72986 0.07815 0.0
C2151 C 0.10583 0.75616 0.08214 0.0
H2152 H 0.06976 0.26774 0.84958 0.0
H2153 H 0.09232 0.19375 0.85906 0.0
H2154 H 0.13079 0.20528 0.83398 0.0
H2155 H 0.15949 0.23749 0.81204 0.0
H2156 H 0.1374 0.31188 0.80409 0.0
H2157 H 0.09688 0.29892 0.82557 0.0
C2158 C 0.08296 0.25405 0.84596 0.0
C2159 C 0.07842 0.23004 0.85629 0.0
C2160 C 0.10507 0.26089 0.83187 0.0
C2161 C 0.09552 0.2124 0.85133 0.0
C2162 C 0.11752 0.219 0.83708 0.0
C2163 C 0.14577 0.25082 0.81502 0.0
C2164 C 0.15147 0.27564 0.80669 0.0
C2165 C 0.12275 0.24338 0.82773 0.0
C2166 C 0.13332 0.29261 0.81016 0.0
C2167 C 0.11026 0.28528 0.8226 0.0
H2168 H 0.59054 0.73018 0.99843 0.0
H2169 H 0.57843 0.70259 0.91468 0.0
H2170 H 0.57485 0.65855 0.92701 0.0
H2171 H 0.57492 0.62525 0.9618 0.0
H2172 H 0.58564 0.65314 0.04551 0.0
H2173 H 0.58968 0.69699 0.03306 0.0
C2174 C 0.58713 0.71478 0.98256 0.0
C2175 C 0.58497 0.72149 0.95493 0.0
C2176 C 0.58467 0.68817 0.98999 0.0
C2177 C 0.58036 0.69967 0.93588 0.0
C2178 C 0.57825 0.67377 0.94308 0.0
C2179 C 0.57807 0.64067 0.97763 0.0
C2180 C 0.57978 0.63401 1.00532 0.0
C2181 C 0.58031 0.66729 0.97013 0.0
C2182 C 0.58397 0.65589 0.02427 0.0
C2183 C 0.5864 0.68175 1.01702 0.0
H2184 H 0.14703 0.79367 0.7337 0.0
H2185 H 0.17375 0.84012 0.6714 0.0
H2186 H 0.22056 0.84356 0.69133 0.0
H2187 H 0.25561 0.83337 0.72656 0.0
H2188 H 0.22933 0.78539 0.78784 0.0
H2189 H 0.18235 0.78282 0.76865 0.0
C2190 C 0.16295 0.80468 0.7244 0.0
C2191 C 0.15576 0.81675 0.7006 0.0
C2192 C 0.19076 0.80638 0.73604 0.0
C2193 C 0.17766 0.83057 0.68942 0.0
C2194 C 0.20488 0.83257 0.70097 0.0
C2195 C 0.23974 0.82236 0.73595 0.0
C2196 C 0.24712 0.80973 0.75928 0.0
C2197 C 0.21197 0.82058 0.72432 0.0
C2198 C 0.22531 0.7955 0.77025 0.0
C2199 C 0.19798 0.79399 0.7591 0.0
H2200 H 0.10311 0.38275 0.50021 0.0
H2201 H 0.08185 0.39413 0.41705 0.0
H2202 H 0.07945 0.43881 0.42957 0.0
H2203 H 0.0831 0.47697 0.46422 0.0
H2204 H 0.10503 0.46577 0.54733 0.0
H2205 H 0.1072 0.42106 0.53484 0.0
C2206 C 0.09794 0.39476 0.48456 0.0
C2207 C 0.09271 0.38342 0.45707 0.0
C2208 C 0.09661 0.42169 0.49206 0.0
C2209 C 0.08613 0.40085 0.43816 0.0
C2210 C 0.08469 0.42705 0.44544 0.0
C2211 C 0.08841 0.46501 0.47987 0.0
C2212 C 0.09388 0.47645 0.50733 0.0
C2213 C 0.08985 0.43811 0.47237 0.0
C2214 C 0.10065 0.45906 0.52623 0.0
C2215 C 0.10192 0.43281 0.51897 0.0
H2216 H 0.50695 0.33432 0.23324 0.0
H2217 H 0.47373 0.27474 0.17061 0.0
H2218 H 0.43099 0.26842 0.19001 0.0
H2219 H 0.40082 0.27965 0.22484 0.0
H2220 H 0.43319 0.34039 0.28643 0.0
H2221 H 0.47641 0.34595 0.26783 0.0
C2222 C 0.49053 0.31985 0.2236 0.0
C2223 C 0.49497 0.30506 0.19973 0.0
C2224 C 0.46481 0.31635 0.23501 0.0
C2225 C 0.47222 0.2867 0.18851 0.0
C2226 C 0.44723 0.28298 0.19984 0.0
C2227 C 0.41722 0.29408 0.23455 0.0
C2228 C 0.41241 0.30933 0.25792 0.0
C2229 C 0.4429 0.29763 0.22314 0.0
C2230 C 0.43498 0.328 0.26894 0.0
C2231 C 0.46025 0.33129 0.25806 0.0
H2232 H 0.73237 0.57984 0.44348 0.0
H2233 H 0.66436 0.53452 0.39347 0.0
H2234 H 0.63765 0.53357 0.43137 0.0
H2235 H 0.6321 0.55055 0.47711 0.0
H2236 H 0.70054 0.59722 0.5257 0.0
H2237 H 0.72847 0.59262 0.49003 0.0
C2238 C 0.71186 0.56935 0.44101 0.0
C2239 C 0.70019 0.5576 0.41578 0.0
C2240 C 0.69651 0.56947 0.46254 0.0
C2241 C 0.67373 0.54381 0.41282 0.0
C2242 C 0.65838 0.54344 0.4344 0.0
C2243 C 0.65317 0.55947 0.47993 0.0
C2244 C 0.66397 0.57466 0.50378 0.0
C2245 C 0.66927 0.55702 0.45909 0.0
C2246 C 0.69144 0.58585 0.50732 0.0
C2247 C 0.70758 0.58318 0.48697 0.0
H2248 H 0.38315 0.89299 0.14764 0.0
H2249 H 0.31798 0.83632 0.10702 0.0
H2250 H 0.31295 0.81612 0.14894 0.0
H2251 H 0.32603 0.81512 0.19727 0.0
H2252 H 0.39094 0.87178 0.23849 0.0
H2253 H 0.39707 0.89131 0.19626 0.0
C2254 C 0.36796 0.8761 0.1479 0.0
C2255 C 0.35097 0.86619 0.12405 0.0
C2256 C 0.36505 0.86462 0.17225 0.0
C2257 C 0.33136 0.84436 0.12492 0.0
C2258 C 0.32843 0.83282 0.14896 0.0
C2259 C 0.34162 0.83171 0.19715 0.0
C2260 C 0.35798 0.8419 0.22128 0.0
C2261 C 0.345 0.84288 0.17278 0.0
C2262 C 0.37806 0.86341 0.2204 0.0
C2263 C 0.38155 0.87463 0.19619 0.0
H2264 H 0.04505 0.65217 0.91492 0.0
H2265 H 0.12833 0.65727 0.90136 0.0
H2266 H 0.13793 0.63713 0.94292 0.0
H2267 H 0.11994 0.60887 0.9764 0.0
H2268 H 0.03474 0.59761 0.98358 0.0
H2269 H 1.0283 0.62873 0.95108 0.0
C2270 C 0.06555 0.64988 0.92165 0.0
C2271 C 0.08588 0.65578 0.90504 0.0
C2272 C 0.07021 0.636 0.94384 0.0
C2273 C 0.11235 0.65273 0.91392 0.0
C2274 C 0.1177 0.64076 0.93736 0.0
C2275 C 0.10012 0.61356 0.97095 0.0
C2276 C 0.07772 0.60062 0.98159 0.0
C2277 C 0.09637 0.63069 0.95135 0.0
C2278 C 0.05209 0.60687 0.97486 0.0
C2279 C 0.04845 0.62482 0.95653 0.0
H2280 H 0.32359 0.24925 0.60815 0.0
H2281 H 0.3779 0.19956 0.636 0.0
H2282 H 0.37838 0.21738 0.68231 0.0
H2283 H 0.36327 0.2472 0.71671 0.0
H2284 H 0.30697 0.29521 0.68924 0.0
H2285 H 0.30756 0.27835 0.64278 0.0
C2286 C 0.33573 0.24228 0.6242 0.0
C2287 C 0.35098 0.22272 0.61741 0.0
C2288 C 0.33554 0.25252 0.65177 0.0
C2289 C 0.36599 0.21435 0.63953 0.0
C2290 C 0.36626 0.22468 0.66649 0.0
C2291 C 0.35105 0.25414 0.70072 0.0
C2292 C 0.33506 0.27304 0.70768 0.0
C2293 C 0.3511 0.24381 0.67318 0.0
C2294 C 0.31953 0.28098 0.68563 0.0
C2295 C 0.31988 0.27121 0.65856 0.0
H2296 H 0.64511 0.5521 0.29691 0.0
H2297 H 0.68556 0.62878 0.28883 0.0
H2298 H 0.64897 0.63489 0.2557 0.0
H2299 H 0.60949 0.61662 0.22489 0.0
H2300 H 0.5694 0.53935 0.23035 0.0
H2301 H 0.60165 0.53547 0.26922 0.0
C2302 C 0.64571 0.5702 0.28805 0.0
C2303 C 0.66818 0.58978 0.29484 0.0
C2304 C 0.62473 0.5735 0.26869 0.0
C2305 C 0.66865 0.61327 0.28356 0.0
C2306 C 0.64771 0.61683 0.2647 0.0
C2307 C 0.607 0.59922 0.23514 0.0
C2308 C 0.58712 0.57825 0.22465 0.0
C2309 C 0.6261 0.59684 0.25659 0.0
C2310 C 0.58468 0.55571 0.23796 0.0
C2311 C 0.60322 0.55343 0.26001 0.0
H2312 H 0.33529 0.84028 0.97557 0.0
H2313 H 0.3378 0.91906 0.95898 0.0
H2314 H 0.33193 0.90664 0.9107 0.0
H2315 H 0.32726 0.87346 0.87267 0.0
H2316 H 0.32341 0.79446 0.88942 0.0
H2317 H 0.32835 0.80687 0.9375 0.0
C2318 C 0.33445 0.85472 0.9614 0.0
C2319 C 0.33712 0.88063 0.97113 0.0
C2320 C 0.33075 0.84739 0.9334 0.0
C2321 C 0.33581 0.89898 0.95227 0.0
C2322 C 0.33247 0.89189 0.92453 0.0
C2323 C 0.32721 0.85888 0.88677 0.0
C2324 C 0.3249 0.83296 0.87702 0.0
C2325 C 0.33003 0.86614 0.91477 0.0
C2326 C 0.32504 0.81454 0.89595 0.0
C2327 C 0.32797 0.82162 0.92366 0.0
H2328 H 0.13444 0.62806 0.79304 0.0
H2329 H 0.07991 0.6683 0.74794 0.0
H2330 H 0.10264 0.6622 0.70792 0.0
H2331 H 0.1303 0.63662 0.68422 0.0
H2332 H 0.18411 0.59534 0.72921 0.0
H2333 H 0.16956 0.61099 0.77113 0.0
C2334 C 0.1281 0.63613 0.77462 0.0
C2335 C 0.10525 0.64799 0.77301 0.0
C2336 C 0.14079 0.63199 0.7517 0.0
C2337 C 0.09739 0.6589 0.74941 0.0
C2338 C 0.11023 0.65521 0.72652 0.0
C2339 C 0.13975 0.63186 0.70321 0.0
C2340 C 0.15767 0.61421 0.70358 0.0
C2341 C 0.13088 0.64048 0.72711 0.0
C2342 C 0.16968 0.60832 0.72841 0.0
C2343 C 0.16136 0.61723 0.75235 0.0
H2344 H 0.36948 0.25517 0.46525 0.0
H2345 H 0.31653 0.18461 0.43597 0.0
H2346 H 0.31075 0.19989 0.39125 0.0
H2347 H 0.31996 0.23359 0.3585 0.0
H2348 H 0.37327 0.30405 0.38739 0.0
H2349 H 0.37922 0.28878 0.43217 0.0
C2350 C 0.35661 0.24294 0.44924 0.0
C2351 C 0.34349 0.21818 0.45532 0.0
C2352 C 0.35327 0.25204 0.42247 0.0
C2353 C 0.32711 0.20346 0.43314 0.0
C2354 C 0.32371 0.21234 0.40702 0.0
C2355 C 0.33306 0.24578 0.37439 0.0
C2356 C 0.34614 0.27049 0.36819 0.0
C2357 C 0.3366 0.23665 0.40109 0.0
C2358 C 0.36277 0.28517 0.39025 0.0
C2359 C 0.36622 0.27631 0.41643 0.0
H2360 H 0.4011 0.69179 0.51104 0.0
H2361 H 0.36067 0.64516 0.5666 0.0
H2362 H 0.39447 0.61719 0.56602 0.0
H2363 H 0.43521 0.6056 0.54925 0.0
H2364 H 0.47505 0.65201 0.49315 0.0
H2365 H 0.44167 0.68004 0.49409 0.0
C2366 C 0.39976 0.67558 0.52312 0.0
C2367 C 0.37845 0.67066 0.53894 0.0
C2368 C 0.4191 0.65936 0.52245 0.0
C2369 C 0.37689 0.64943 0.55429 0.0
C2370 C 0.39621 0.63338 0.55393 0.0
C2371 C 0.43683 0.62197 0.53741 0.0
C2372 C 0.45805 0.62669 0.52133 0.0
C2373 C 0.41739 0.63812 0.53804 0.0
C2374 C 0.45913 0.64773 0.50567 0.0
C2375 C 0.44002 0.66391 0.50628 0.0
H2376 H 0.89586 1.01036 0.55552 0.0
H2377 H 0.90881 0.93453 0.53101 0.0
H2378 H 0.95578 0.9513 0.52637 0.0
H2379 H 0.99488 0.98755 0.52912 0.0
H2380 H 0.98333 0.06313 0.55613 0.0
H2381 H 0.93579 0.04672 0.55971 0.0
C2382 C 0.90882 0.99736 0.54917 0.0
C2383 C 0.89765 0.97069 0.54365 0.0
C2384 C 0.93689 1.00729 0.54685 0.0
C2385 C 0.91583 0.95487 0.53559 0.0
C2386 C 0.94314 0.96458 0.53283 0.0
C2387 C 0.9821 1.00064 0.53571 0.0
C2388 C 0.99372 0.02706 0.54206 0.0
C2389 C 0.95418 0.99079 0.53834 0.0
C2390 C 0.97591 0.04294 0.5509 0.0
C2391 C 0.94829 0.03343 0.553 0.0
H2392 H 0.88688 0.08369 0.29043 0.0
H2393 H 0.85131 0.08744 0.20906 0.0
H2394 H 0.8266 0.12041 0.22466 0.0
H2395 H 0.81814 0.15035 0.26094 0.0
H2396 H 0.85555 0.14776 0.34177 0.0
H2397 H 0.87654 0.1118 0.32688 0.0
C2398 C 0.87357 0.09158 0.27611 0.0
C2399 C 0.87102 0.08338 0.24864 0.0
C2400 C 0.85986 0.11065 0.28513 0.0
C2401 C 0.85366 0.09363 0.23031 0.0
C2402 C 0.83956 0.11243 0.2392 0.0
C2403 C 0.83043 0.1415 0.27534 0.0
C2404 C 0.83534 0.15146 0.30236 0.0
C2405 C 0.84289 0.12136 0.2665 0.0
C2406 C 0.85165 0.14029 0.32085 0.0
C2407 C 0.86364 0.11985 0.31234 0.0
H2408 H 0.7491 0.14298 0.02391 0.0
H2409 H 0.70864 0.20828 0.02736 0.0
H2410 H 0.66495 0.17982 0.02356 0.0
H2411 H 0.63847 0.13632 0.02174 0.0
H2412 H 0.6795 0.07134 0.02112 0.0
H2413 H 0.72269 0.09967 0.02095 0.0
C2414 C 0.73072 0.151 0.0237 0.0
C2415 C 0.73214 0.17773 0.02602 0.0
C2416 C 0.70575 0.13454 0.02193 0.0
C2417 C 0.70812 0.18779 0.02573 0.0
C2418 C 0.68313 0.17152 0.02352 0.0
C2419 C 0.65683 0.12836 0.02112 0.0
C2420 C 0.6558 0.10176 0.0213 0.0
C2421 C 0.68172 0.14486 0.02189 0.0
C2422 C 0.67979 0.09174 0.02099 0.0
C2423 C 0.70449 0.10794 0.02097 0.0
H2424 H 0.19571 0.48076 0.33712 0.0
H2425 H 0.15204 0.41103 0.29352 0.0
H2426 H 0.18973 0.38908 0.30607 0.0
H2427 H 0.23764 0.39199 0.32253 0.0
H2428 H 0.28238 0.46235 0.36352 0.0
H2429 H 0.2416 0.4818 0.35929 0.0
C2430 C 0.19417 0.46059 0.33091 0.0
C2431 C 0.17134 0.44762 0.31401 0.0
C2432 C 0.21626 0.44838 0.33741 0.0
C2433 C 0.16951 0.42147 0.30631 0.0
C2434 C 0.19112 0.40897 0.31334 0.0
C2435 C 0.23826 0.41145 0.33092 0.0
C2436 C 0.26291 0.42598 0.34283 0.0
C2437 C 0.21501 0.42259 0.32776 0.0
C2438 C 0.26357 0.45094 0.35415 0.0
C2439 C 0.24033 0.46206 0.35157 0.0
H2440 H 0.21041 0.44796 0.01806 0.0
H2441 H 0.26219 0.50327 0.07541 0.0
H2442 H 0.22537 0.52752 0.07908 0.0
H2443 H 0.17713 0.53426 0.0665 0.0
H2444 H 0.12601 0.48001 1.00755 0.0
H2445 H 0.16259 0.45542 1.00444 0.0
C2446 C 0.21394 0.46532 0.03145 0.0
C2447 C 0.24031 0.47307 0.04652 0.0
C2448 C 0.19203 0.47998 0.03333 0.0
C2449 C 0.24306 0.49608 0.06338 0.0
C2450 C 0.22156 0.51024 0.06555 0.0
C2451 C 0.17369 0.51708 0.05285 0.0
C2452 C 0.14751 0.50968 0.03731 0.0
C2453 C 0.1957 0.5026 0.05071 0.0
C2454 C 0.14499 0.48701 0.01992 0.0
C2455 C 0.16634 0.4726 0.01811 0.0
H2456 H 0.91373 0.94174 0.21187 0.0
H2457 H 0.83695 0.96735 0.20925 0.0
H2458 H 0.81611 0.92624 0.22293 0.0
H2459 H 0.82145 0.88589 0.24211 0.0
H2460 H 0.89899 0.86144 0.24679 0.0
H2461 H 0.91781 0.89934 0.22596 0.0
C2462 C 0.89228 0.93809 0.2136 0.0
C2463 C 0.87696 0.9576 0.20995 0.0
C2464 C 0.88073 0.91488 0.2225 0.0
C2465 C 0.84918 0.95262 0.21213 0.0
C2466 C 0.83732 0.92922 0.22021 0.0
C2467 C 0.84242 0.88877 0.23843 0.0
C2468 C 0.85893 0.87117 0.24653 0.0
C2469 C 0.8532 0.91071 0.22662 0.0
C2470 C 0.88592 0.87489 0.24111 0.0
C2471 C 0.89671 0.89653 0.22912 0.0
H2472 H 0.65574 0.10142 0.8348 0.0
H2473 H 0.71632 0.06413 0.80218 0.0
H2474 H 0.74501 0.1054 0.80082 0.0
H2475 H 0.74969 0.15201 0.80231 0.0
H2476 H 0.6891 0.18982 0.83372 0.0
H2477 H 0.66371 0.14847 0.84258 0.0
C2478 C 0.67552 0.10233 0.82809 0.0
C2479 C 0.68373 0.07986 0.8182 0.0
C2480 C 0.69171 0.12622 0.8268 0.0
C2481 C 0.70944 0.08123 0.80964 0.0
C2482 C 0.72582 0.10482 0.80872 0.0
C2483 C 0.73114 0.15112 0.8115 0.0
C2484 C 0.72092 0.17364 0.81699 0.0
C2485 C 0.71664 0.12742 0.81616 0.0
C2486 C 0.69717 0.17256 0.82929 0.0
C2487 C 0.68264 0.14897 0.83419 0.0
loop_
_geom_bond_atom_site_label_1
_geom_bond_atom_site_label_2
_geom_bond_distance
_geom_bond_site_symmetry_2
_ccdc_geom_bond_type
In0 O1 2.294 . S
In0 O2 2.326 . S
In0 O6 2.266 . S
In0 O7 2.326 . S
In0 O8 2.266 . S
In0 O9 2.326 . S
In0 O11 2.294 . S
In0 O12 2.326 . S
O1 In0 2.294 . S
O1 C10 1.240 . S
O2 In0 2.326 . S
O2 C10 1.252 . S
C3 O6 1.252 . S
C3 O7 1.260 . S
C4 O11 1.240 . S
C4 O12 1.252 . S
C5 O8 1.252 . S
C5 O9 1.260 . S
O6 In0 2.266 . S
O6 C3 1.252 . S
O7 In0 2.326 . S
O7 C3 1.260 . S
O8 In0 2.266 . S
O8 C5 1.252 . S
O9 In0 2.326 . S
O9 C5 1.260 . S
C10 O1 1.240 . S
C10 O2 1.252 . S
O11 In0 2.294 . S
O11 C4 1.240 . S
O12 In0 2.326 . S
O12 C4 1.252 . S
In13 O14 2.294 . S
In13 O15 2.326 . S
In13 O19 2.266 . S
In13 O20 2.326 . S
In13 O21 2.266 . S
In13 O22 2.326 . S
In13 O24 2.294 . S
In13 O25 2.326 . S
O14 In13 2.294 . S
O14 C23 1.240 . S
O15 In13 2.326 . S
O15 C23 1.252 . S
C16 O19 1.252 . S
C16 O20 1.260 . S
C17 O24 1.240 . S
C17 O25 1.252 . S
C18 O21 1.252 . S
C18 O22 1.260 . S
O19 In13 2.266 . S
O19 C16 1.252 . S
O20 In13 2.326 . S
O20 C16 1.260 . S
O21 In13 2.266 . S
O21 C18 1.252 . S
O22 In13 2.326 . S
O22 C18 1.260 . S
C23 O14 1.240 . S
C23 O15 1.252 . S
O24 In13 2.294 . S
O24 C17 1.240 . S
O25 In13 2.326 . S
O25 C17 1.252 . S
In26 O27 2.294 . S
In26 O28 2.326 . S
In26 O32 2.266 . S
In26 O33 2.326 . S
In26 O34 2.266 . S
In26 O35 2.326 . S
In26 O37 2.294 . S
In26 O38 2.326 . S
O27 In26 2.294 . S
O27 C36 1.240 . S
O28 In26 2.326 . S
O28 C36 1.252 . S
C29 O32 1.252 . S
C29 O33 1.260 . S
C30 O37 1.240 . S
C30 O38 1.252 . S
C31 O34 1.252 . S
C31 O35 1.260 . S
O32 In26 2.266 . S
O32 C29 1.252 . S
O33 In26 2.326 . S
O33 C29 1.260 . S
O34 In26 2.266 . S
O34 C31 1.252 . S
O35 In26 2.326 . S
O35 C31 1.260 . S
C36 O27 1.240 . S
C36 O28 1.252 . S
O37 In26 2.294 . S
O37 C30 1.240 . S
O38 In26 2.326 . S
O38 C30 1.252 . S
In39 O40 2.294 . S
In39 O41 2.326 . S
In39 O45 2.266 . S
In39 O46 2.326 . S
In39 O47 2.266 . S
In39 O48 2.326 . S
In39 O50 2.294 . S
In39 O51 2.326 . S
O40 In39 2.294 . S
O40 C49 1.240 . S
O41 In39 2.326 . S
O41 C49 1.252 . S
C42 O45 1.252 . S
C42 O46 1.260 . S
C43 O50 1.240 . S
C43 O51 1.252 . S
C44 O47 1.252 . S
C44 O48 1.260 . S
O45 In39 2.266 . S
O45 C42 1.252 . S
O46 In39 2.326 . S
O46 C42 1.260 . S
O47 In39 2.266 . S
O47 C44 1.252 . S
O48 In39 2.326 . S
O48 C44 1.260 . S
C49 O40 1.240 . S
C49 O41 1.252 . S
O50 In39 2.294 . S
O50 C43 1.240 . S
O51 In39 2.326 . S
O51 C43 1.252 . S
In52 O53 2.294 . S
In52 O54 2.326 . S
In52 O58 2.266 . S
In52 O59 2.326 . S
In52 O60 2.266 . S
In52 O61 2.326 . S
In52 O63 2.294 . S
In52 O64 2.326 . S
O53 In52 2.294 . S
O53 C62 1.240 . S
O54 In52 2.326 . S
O54 C62 1.252 . S
C55 O58 1.252 . S
C55 O59 1.260 . S
C56 O63 1.240 . S
C56 O64 1.252 . S
C57 O60 1.252 . S
C57 O61 1.260 . S
O58 In52 2.266 . S
O58 C55 1.252 . S
O59 In52 2.326 . S
O59 C55 1.260 . S
O60 In52 2.266 . S
O60 C57 1.252 . S
O61 In52 2.326 . S
O61 C57 1.260 . S
C62 O53 1.240 . S
C62 O54 1.252 . S
O63 In52 2.294 . S
O63 C56 1.240 . S
O64 In52 2.326 . S
O64 C56 1.252 . S
In65 O66 2.294 . S
In65 O67 2.326 . S
In65 O71 2.266 . S
In65 O72 2.326 . S
In65 O73 2.266 . S
In65 O74 2.326 . S
In65 O76 2.294 . S
In65 O77 2.326 . S
O66 In65 2.294 . S
O66 C75 1.240 . S
O67 In65 2.326 . S
O67 C75 1.252 . S
C68 O71 1.252 . S
C68 O72 1.260 . S
C69 O76 1.240 . S
C69 O77 1.252 . S
C70 O73 1.252 . S
C70 O74 1.260 . S
O71 In65 2.266 . S
O71 C68 1.252 . S
O72 In65 2.326 . S
O72 C68 1.260 . S
O73 In65 2.266 . S
O73 C70 1.252 . S
O74 In65 2.326 . S
O74 C70 1.260 . S
C75 O66 1.240 . S
C75 O67 1.252 . S
O76 In65 2.294 . S
O76 C69 1.240 . S
O77 In65 2.326 . S
O77 C69 1.252 . S
In78 O79 2.294 . S
In78 O80 2.326 . S
In78 O84 2.266 . S
In78 O85 2.326 . S
In78 O86 2.266 . S
In78 O87 2.326 . S
In78 O89 2.294 . S
In78 O90 2.326 . S
O79 In78 2.294 . S
O79 C88 1.240 . S
O80 In78 2.326 . S
O80 C88 1.252 . S
C81 O84 1.252 . S
C81 O85 1.260 . S
C82 O89 1.240 . S
C82 O90 1.252 . S
C83 O86 1.252 . S
C83 O87 1.260 . S
O84 In78 2.266 . S
O84 C81 1.252 . S
O85 In78 2.326 . S
O85 C81 1.260 . S
O86 In78 2.266 . S
O86 C83 1.252 . S
O87 In78 2.326 . S
O87 C83 1.260 . S
C88 O79 1.240 . S
C88 O80 1.252 . S
O89 In78 2.294 . S
O89 C82 1.240 . S
O90 In78 2.326 . S
O90 C82 1.252 . S
In91 O92 2.294 . S
In91 O93 2.334 1_455 S
In91 O97 2.266 . S
In91 O98 2.333 . S
In91 O99 2.264 1_455 S
In91 O100 2.323 1_455 S
In91 O102 2.296 . S
In91 O103 2.329 . S
O92 In91 2.294 . S
O92 C101 1.240 . S
O93 In91 2.334 1_655 S
O93 C101 1.251 1_655 S
C94 O97 1.252 . S
C94 O98 1.254 . S
C95 O102 1.240 . S
C95 O103 1.252 . S
C96 O99 1.252 . S
C96 O100 1.260 . S
O97 In91 2.266 . S
O97 C94 1.252 . S
O98 In91 2.333 . S
O98 C94 1.254 . S
O99 In91 2.264 1_655 S
O99 C96 1.252 . S
O100 In91 2.323 1_655 S
O100 C96 1.260 . S
C101 O92 1.240 . S
C101 O93 1.251 1_455 S
O102 In91 2.296 . S
O102 C95 1.240 . S
O103 In91 2.329 . S
O103 C95 1.252 . S
In104 O105 2.294 . S
In104 O106 2.326 . S
In104 O110 2.266 . S
In104 O111 2.326 . S
In104 O112 2.266 . S
In104 O113 2.326 . S
In104 O115 2.294 . S
In104 O116 2.326 . S
O105 In104 2.294 . S
O105 C114 1.240 . S
O106 In104 2.326 . S
O106 C114 1.252 . S
C107 O110 1.252 . S
C107 O111 1.260 . S
C108 O115 1.240 . S
C108 O116 1.252 . S
C109 O112 1.252 . S
C109 O113 1.260 . S
O110 In104 2.266 . S
O110 C107 1.252 . S
O111 In104 2.326 . S
O111 C107 1.260 . S
O112 In104 2.266 . S
O112 C109 1.252 . S
O113 In104 2.326 . S
O113 C109 1.260 . S
C114 O105 1.240 . S
C114 O106 1.252 . S
O115 In104 2.294 . S
O115 C108 1.240 . S
O116 In104 2.326 . S
O116 C108 1.252 . S
In117 O118 2.294 . S
In117 O119 2.326 . S
In117 O123 2.266 . S
In117 O124 2.326 . S
In117 O125 2.266 . S
In117 O126 2.326 . S
In117 O128 2.294 . S
In117 O129 2.326 . S
O118 In117 2.294 . S
O118 C127 1.240 . S
O119 In117 2.326 . S
O119 C127 1.252 . S
C120 O123 1.252 . S
C120 O124 1.260 . S
C121 O128 1.240 . S
C121 O129 1.252 . S
C122 O125 1.252 . S
C122 O126 1.260 . S
O123 In117 2.266 . S
O123 C120 1.252 . S
O124 In117 2.326 . S
O124 C120 1.260 . S
O125 In117 2.266 . S
O125 C122 1.252 . S
O126 In117 2.326 . S
O126 C122 1.260 . S
C127 O118 1.240 . S
C127 O119 1.252 . S
O128 In117 2.294 . S
O128 C121 1.240 . S
O129 In117 2.326 . S
O129 C121 1.252 . S
In130 O131 2.294 . S
In130 O132 2.326 . S
In130 O136 2.266 . S
In130 O137 2.326 . S
In130 O138 2.266 . S
In130 O139 2.326 . S
In130 O141 2.294 . S
In130 O142 2.326 . S
O131 In130 2.294 . S
O131 C140 1.240 . S
O132 In130 2.326 . S
O132 C140 1.252 . S
C133 O136 1.252 . S
C133 O137 1.260 . S
C134 O141 1.240 . S
C134 O142 1.252 . S
C135 O138 1.252 . S
C135 O139 1.260 . S
O136 In130 2.266 . S
O136 C133 1.252 . S
O137 In130 2.326 . S
O137 C133 1.260 . S
O138 In130 2.266 . S
O138 C135 1.252 . S
O139 In130 2.326 . S
O139 C135 1.260 . S
C140 O131 1.240 . S
C140 O132 1.252 . S
O141 In130 2.294 . S
O141 C134 1.240 . S
O142 In130 2.326 . S
O142 C134 1.252 . S
In143 O144 2.294 . S
In143 O145 2.326 . S
In143 O149 2.266 . S
In143 O150 2.326 . S
In143 O151 2.266 . S
In143 O152 2.326 . S
In143 O154 2.294 . S
In143 O155 2.326 . S
O144 In143 2.294 . S
O144 C153 1.240 . S
O145 In143 2.326 . S
O145 C153 1.252 . S
C146 O149 1.252 . S
C146 O150 1.260 . S
C147 O154 1.240 . S
C147 O155 1.252 . S
C148 O151 1.252 . S
C148 O152 1.260 . S
O149 In143 2.266 . S
O149 C146 1.252 . S
O150 In143 2.326 . S
O150 C146 1.260 . S
O151 In143 2.266 . S
O151 C148 1.252 . S
O152 In143 2.326 . S
O152 C148 1.260 . S
C153 O144 1.240 . S
C153 O145 1.252 . S
O154 In143 2.294 . S
O154 C147 1.240 . S
O155 In143 2.326 . S
O155 C147 1.252 . S
In156 O157 2.294 . S
In156 O158 2.326 . S
In156 O162 2.266 1_554 S
In156 O163 2.326 1_554 S
In156 O164 2.266 . S
In156 O165 2.326 . S
In156 O167 2.294 . S
In156 O168 2.326 . S
O157 In156 2.294 . S
O157 C166 1.240 . S
O158 In156 2.326 . S
O158 C166 1.252 . S
C159 O162 1.252 . S
C159 O163 1.260 . S
C160 O167 1.240 . S
C160 O168 1.252 . S
C161 O164 1.252 . S
C161 O165 1.260 . S
O162 In156 2.266 1_556 S
O162 C159 1.252 . S
O163 In156 2.326 1_556 S
O163 C159 1.260 . S
O164 In156 2.266 . S
O164 C161 1.252 . S
O165 In156 2.326 . S
O165 C161 1.260 . S
C166 O157 1.240 . S
C166 O158 1.252 . S
O167 In156 2.294 . S
O167 C160 1.240 . S
O168 In156 2.326 . S
O168 C160 1.252 . S
In169 O170 2.294 . S
In169 O171 2.326 . S
In169 O175 2.266 1_554 S
In169 O176 2.326 1_554 S
In169 O177 2.266 1_554 S
In169 O178 2.326 1_554 S
In169 O180 2.294 . S
In169 O181 2.326 . S
O170 In169 2.294 . S
O170 C179 1.240 . S
O171 In169 2.326 . S
O171 C179 1.252 . S
C172 O175 1.252 . S
C172 O176 1.260 . S
C173 O180 1.240 . S
C173 O181 1.252 . S
C174 O177 1.252 . S
C174 O178 1.260 . S
O175 In169 2.266 1_556 S
O175 C172 1.252 . S
O176 In169 2.326 1_556 S
O176 C172 1.260 . S
O177 In169 2.266 1_556 S
O177 C174 1.252 . S
O178 In169 2.326 1_556 S
O178 C174 1.260 . S
C179 O170 1.240 . S
C179 O171 1.252 . S
O180 In169 2.294 . S
O180 C173 1.240 . S
O181 In169 2.326 . S
O181 C173 1.252 . S
In182 O183 2.294 . S
In182 O184 2.326 . S
In182 O188 2.266 . S
In182 O189 2.326 . S
In182 O190 2.266 . S
In182 O191 2.326 . S
In182 O193 2.294 . S
In182 O194 2.326 . S
O183 In182 2.294 . S
O183 C192 1.240 . S
O184 In182 2.326 . S
O184 C192 1.252 . S
C185 O188 1.252 . S
C185 O189 1.260 . S
C186 O193 1.240 . S
C186 O194 1.252 . S
C187 O190 1.252 . S
C187 O191 1.260 . S
O188 In182 2.266 . S
O188 C185 1.252 . S
O189 In182 2.326 . S
O189 C185 1.260 . S
O190 In182 2.266 . S
O190 C187 1.252 . S
O191 In182 2.326 . S
O191 C187 1.260 . S
C192 O183 1.240 . S
C192 O184 1.252 . S
O193 In182 2.294 . S
O193 C186 1.240 . S
O194 In182 2.326 . S
O194 C186 1.252 . S
In195 O196 2.294 . S
In195 O197 2.326 . S
In195 O201 2.266 . S
In195 O202 2.326 . S
In195 O203 2.266 . S
In195 O204 2.326 . S
In195 O206 2.294 . S
In195 O207 2.326 . S
O196 In195 2.294 . S
O196 C205 1.240 . S
O197 In195 2.326 . S
O197 C205 1.252 . S
C198 O201 1.252 . S
C198 O202 1.260 . S
C199 O206 1.240 . S
C199 O207 1.252 . S
C200 O203 1.252 . S
C200 O204 1.260 . S
O201 In195 2.266 . S
O201 C198 1.252 . S
O202 In195 2.326 . S
O202 C198 1.260 . S
O203 In195 2.266 . S
O203 C200 1.252 . S
O204 In195 2.326 . S
O204 C200 1.260 . S
C205 O196 1.240 . S
C205 O197 1.252 . S
O206 In195 2.294 . S
O206 C199 1.240 . S
O207 In195 2.326 . S
O207 C199 1.252 . S
In208 O209 2.294 . S
In208 O210 2.327 . S
In208 O214 2.265 . S
In208 O215 2.325 1_545 S
In208 O216 2.264 1_545 S
In208 O217 2.322 1_545 S
In208 O219 2.296 . S
In208 O220 2.330 . S
O209 In208 2.294 . S
O209 C218 1.240 . S
O210 In208 2.327 . S
O210 C218 1.252 . S
C211 O214 1.252 1_565 S
C211 O215 1.260 . S
C212 O219 1.240 . S
C212 O220 1.252 . S
C213 O216 1.252 . S
C213 O217 1.260 . S
O214 In208 2.265 . S
O214 C211 1.252 1_545 S
O215 In208 2.325 1_565 S
O215 C211 1.260 . S
O216 In208 2.264 1_565 S
O216 C213 1.252 . S
O217 In208 2.322 1_565 S
O217 C213 1.260 . S
C218 O209 1.240 . S
C218 O210 1.252 . S
O219 In208 2.296 . S
O219 C212 1.240 . S
O220 In208 2.330 . S
O220 C212 1.252 . S
In221 O222 2.294 . S
In221 O223 2.326 . S
In221 O227 2.266 . S
In221 O228 2.326 . S
In221 O229 2.266 . S
In221 O230 2.326 . S
In221 O232 2.294 . S
In221 O233 2.326 . S
O222 In221 2.294 . S
O222 C231 1.240 . S
O223 In221 2.326 . S
O223 C231 1.252 . S
C224 O227 1.252 . S
C224 O228 1.260 . S
C225 O232 1.240 . S
C225 O233 1.252 . S
C226 O229 1.252 . S
C226 O230 1.260 . S
O227 In221 2.266 . S
O227 C224 1.252 . S
O228 In221 2.326 . S
O228 C224 1.260 . S
O229 In221 2.266 . S
O229 C226 1.252 . S
O230 In221 2.326 . S
O230 C226 1.260 . S
C231 O222 1.240 . S
C231 O223 1.252 . S
O232 In221 2.294 . S
O232 C225 1.240 . S
O233 In221 2.326 . S
O233 C225 1.252 . S
In234 O235 2.294 . S
In234 O236 2.326 . S
In234 O240 2.266 . S
In234 O241 2.326 . S
In234 O242 2.266 . S
In234 O243 2.326 . S
In234 O245 2.294 . S
In234 O246 2.326 . S
O235 In234 2.294 . S
O235 C244 1.240 . S
O236 In234 2.326 . S
O236 C244 1.252 . S
C237 O240 1.252 . S
C237 O241 1.260 . S
C238 O245 1.240 . S
C238 O246 1.252 . S
C239 O242 1.252 . S
C239 O243 1.260 . S
O240 In234 2.266 . S
O240 C237 1.252 . S
O241 In234 2.326 . S
O241 C237 1.260 . S
O242 In234 2.266 . S
O242 C239 1.252 . S
O243 In234 2.326 . S
O243 C239 1.260 . S
C244 O235 1.240 . S
C244 O236 1.252 . S
O245 In234 2.294 . S
O245 C238 1.240 . S
O246 In234 2.326 . S
O246 C238 1.252 . S
In247 O248 2.294 1_545 S
In247 O249 2.326 1_545 S
In247 O253 2.266 . S
In247 O254 2.326 . S
In247 O255 2.266 . S
In247 O256 2.326 . S
In247 O258 2.294 . S
In247 O259 2.326 . S
O248 In247 2.294 1_565 S
O248 C257 1.240 . S
O249 In247 2.326 1_565 S
O249 C257 1.252 . S
C250 O253 1.252 . S
C250 O254 1.260 . S
C251 O258 1.240 . S
C251 O259 1.252 . S
C252 O255 1.252 . S
C252 O256 1.260 . S
O253 In247 2.266 . S
O253 C250 1.252 . S
O254 In247 2.326 . S
O254 C250 1.260 . S
O255 In247 2.266 . S
O255 C252 1.252 . S
O256 In247 2.326 . S
O256 C252 1.260 . S
C257 O248 1.240 . S
C257 O249 1.252 . S
O258 In247 2.294 . S
O258 C251 1.240 . S
O259 In247 2.326 . S
O259 C251 1.252 . S
In260 O261 2.294 . S
In260 O262 2.326 . S
In260 O266 2.266 . S
In260 O267 2.326 . S
In260 O268 2.266 1_554 S
In260 O269 2.326 1_554 S
In260 O271 2.294 . S
In260 O272 2.326 . S
O261 In260 2.294 . S
O261 C270 1.240 . S
O262 In260 2.326 . S
O262 C270 1.252 . S
C263 O266 1.252 . S
C263 O267 1.260 . S
C264 O271 1.240 . S
C264 O272 1.252 . S
C265 O268 1.252 . S
C265 O269 1.260 . S
O266 In260 2.266 . S
O266 C263 1.252 . S
O267 In260 2.326 . S
O267 C263 1.260 . S
O268 In260 2.266 1_556 S
O268 C265 1.252 . S
O269 In260 2.326 1_556 S
O269 C265 1.260 . S
C270 O261 1.240 . S
C270 O262 1.252 . S
O271 In260 2.294 . S
O271 C264 1.240 . S
O272 In260 2.326 . S
O272 C264 1.252 . S
In273 O274 2.294 . S
In273 O275 2.326 1_655 S
In273 O279 2.266 . S
In273 O280 2.326 1_655 S
In273 O281 2.266 1_655 S
In273 O282 2.326 . S
In273 O284 2.294 1_655 S
In273 O285 2.326 . S
O274 In273 2.294 . S
O274 C283 1.240 . S
O275 In273 2.326 1_455 S
O275 C283 1.252 1_455 S
C276 O279 1.252 . S
C276 O280 1.260 1_655 S
C277 O284 1.240 . S
C277 O285 1.252 1_455 S
C278 O281 1.252 . S
C278 O282 1.260 1_455 S
O279 In273 2.266 . S
O279 C276 1.252 . S
O280 In273 2.326 1_455 S
O280 C276 1.260 1_455 S
O281 In273 2.266 1_455 S
O281 C278 1.252 . S
O282 In273 2.326 . S
O282 C278 1.260 1_655 S
C283 O274 1.240 . S
C283 O275 1.252 1_655 S
O284 In273 2.294 1_455 S
O284 C277 1.240 . S
O285 In273 2.326 . S
O285 C277 1.252 1_655 S
In286 O287 2.294 . S
In286 O288 2.326 . S
In286 O292 2.266 . S
In286 O293 2.326 . S
In286 O294 2.266 . S
In286 O295 2.326 . S
In286 O297 2.294 . S
In286 O298 2.326 . S
O287 In286 2.294 . S
O287 C296 1.240 . S
O288 In286 2.326 . S
O288 C296 1.252 . S
C289 O292 1.252 . S
C289 O293 1.260 . S
C290 O297 1.240 . S
C290 O298 1.252 . S
C291 O294 1.252 . S
C291 O295 1.260 . S
O292 In286 2.266 . S
O292 C289 1.252 . S
O293 In286 2.326 . S
O293 C289 1.260 . S
O294 In286 2.266 . S
O294 C291 1.252 . S
O295 In286 2.326 . S
O295 C291 1.260 . S
C296 O287 1.240 . S
C296 O288 1.252 . S
O297 In286 2.294 . S
O297 C290 1.240 . S
O298 In286 2.326 . S
O298 C290 1.252 . S
In299 O300 2.294 . S
In299 O301 2.326 . S
In299 O305 2.266 . S
In299 O306 2.326 . S
In299 O307 2.266 . S
In299 O308 2.326 . S
In299 O310 2.294 . S
In299 O311 2.326 . S
O300 In299 2.294 . S
O300 C309 1.240 . S
O301 In299 2.326 . S
O301 C309 1.252 . S
C302 O305 1.252 . S
C302 O306 1.260 . S
C303 O310 1.240 . S
C303 O311 1.252 . S
C304 O307 1.252 . S
C304 O308 1.260 . S
O305 In299 2.266 . S
O305 C302 1.252 . S
O306 In299 2.326 . S
O306 C302 1.260 . S
O307 In299 2.266 . S
O307 C304 1.252 . S
O308 In299 2.326 . S
O308 C304 1.260 . S
C309 O300 1.240 . S
C309 O301 1.252 . S
O310 In299 2.294 . S
O310 C303 1.240 . S
O311 In299 2.326 . S
O311 C303 1.252 . S
Tb312 C322 2.825 1_455 S
Tb312 O323 2.347 . S
Tb312 O326 2.366 . S
Tb312 O331 2.418 1_554 S
Tb312 O332 2.384 . S
Tb312 O335 2.479 1_554 S
Tb312 O336 2.471 1_455 S
Eu313 O324 2.418 . S
Eu313 O325 2.384 . S
Eu313 O328 2.479 . S
Eu313 O329 2.471 . S
Eu313 O330 2.347 . S
Eu313 O333 2.366 . S
Eu313 C343 2.825 . S
C314 O330 1.259 . S
C314 O331 1.265 1_554 S
C315 O332 1.255 . S
C315 O333 1.265 . S
C316 C318 1.387 . S
C316 C319 1.368 1_556 S
C316 C322 1.505 1_556 S
C317 C318 1.384 . S
C317 C321 1.387 . S
C317 H344 0.930 . S
C318 C316 1.387 . S
C318 C317 1.384 . S
C318 H345 0.931 . S
C319 C316 1.368 1_554 S
C319 C320 1.390 . S
C319 H346 0.930 . S
C320 C319 1.390 . S
C320 C321 1.391 1_554 S
C320 H347 0.930 . S
C321 C317 1.387 . S
C321 C320 1.391 1_556 S
C322 Tb312 2.825 1_655 S
C322 C316 1.505 1_554 S
C322 O335 1.238 1_654 S
C322 O336 1.247 . S
O323 Tb312 2.347 . S
O323 C327 1.259 . S
O324 Eu313 2.418 . S
O324 C327 1.265 . S
O325 Eu313 2.384 . S
O325 C334 1.255 . S
O326 Tb312 2.366 . S
O326 C334 1.265 . S
C327 O323 1.259 . S
C327 O324 1.265 . S
O328 Eu313 2.479 . S
O328 C343 1.238 . S
O329 Eu313 2.471 . S
O329 C343 1.247 . S
O330 Eu313 2.347 . S
O330 C314 1.259 . S
O331 Tb312 2.418 1_556 S
O331 C314 1.265 1_556 S
O332 Tb312 2.384 . S
O332 C315 1.255 . S
O333 Eu313 2.366 . S
O333 C315 1.265 . S
C334 O325 1.255 . S
C334 O326 1.265 . S
O335 Tb312 2.479 1_556 S
O335 C322 1.238 1_456 S
O336 Tb312 2.471 1_655 S
O336 C322 1.247 . S
C337 C340 1.380 . S
C337 C341 1.374 . S
C337 C343 1.507 . S
C338 C339 1.387 . S
C338 C342 1.391 . S
C339 C338 1.387 . S
C339 C340 1.384 . S
C339 H348 0.930 . S
C340 C337 1.380 . S
C340 C339 1.384 . S
C340 H349 0.931 . S
C341 C337 1.374 . S
C341 C342 1.390 . S
C341 H350 0.930 . S
C342 C338 1.391 . S
C342 C341 1.390 . S
C342 H351 0.930 . S
C343 Eu313 2.825 . S
C343 O328 1.238 . S
C343 O329 1.247 . S
C343 C337 1.507 . S
H344 C317 0.930 . S
H345 C318 0.931 . S
H346 C319 0.930 . S
H347 C320 0.930 . S
H348 C339 0.930 . S
H349 C340 0.931 . S
H350 C341 0.930 . S
H351 C342 0.930 . S
Tb352 C362 2.825 . S
Tb352 O363 2.347 . S
Tb352 O366 2.366 . S
Tb352 O371 2.418 . S
Tb352 O372 2.384 . S
Tb352 O375 2.479 . S
Tb352 O376 2.471 . S
Eu353 O364 2.418 . S
Eu353 O365 2.384 . S
Eu353 O368 2.479 . S
Eu353 O369 2.471 . S
Eu353 O370 2.347 . S
Eu353 O373 2.366 . S
Eu353 C383 2.825 . S
C354 O370 1.259 . S
C354 O371 1.265 . S
C355 O372 1.255 . S
C355 O373 1.265 . S
C356 C358 1.380 . S
C356 C359 1.374 . S
C356 C362 1.507 . S
C357 C358 1.384 . S
C357 C361 1.387 . S
C357 H384 0.930 . S
C358 C356 1.380 . S
C358 C357 1.384 . S
C358 H385 0.931 . S
C359 C356 1.374 . S
C359 C360 1.390 . S
C359 H386 0.930 . S
C360 C359 1.390 . S
C360 C361 1.391 . S
C360 H387 0.930 . S
C361 C357 1.387 . S
C361 C360 1.391 . S
C362 Tb352 2.825 . S
C362 C356 1.507 . S
C362 O375 1.238 . S
C362 O376 1.247 . S
O363 Tb352 2.347 . S
O363 C367 1.259 . S
O364 Eu353 2.418 . S
O364 C367 1.265 . S
O365 Eu353 2.384 . S
O365 C374 1.255 . S
O366 Tb352 2.366 . S
O366 C374 1.265 . S
C367 O363 1.259 . S
C367 O364 1.265 . S
O368 Eu353 2.479 . S
O368 C383 1.238 . S
O369 Eu353 2.471 . S
O369 C383 1.247 . S
O370 Eu353 2.347 . S
O370 C354 1.259 . S
O371 Tb352 2.418 . S
O371 C354 1.265 . S
O372 Tb352 2.384 . S
O372 C355 1.255 . S
O373 Eu353 2.366 . S
O373 C355 1.265 . S
C374 O365 1.255 . S
C374 O366 1.265 . S
O375 Tb352 2.479 . S
O375 C362 1.238 . S
O376 Tb352 2.471 . S
O376 C362 1.247 . S
C377 C380 1.380 . S
C377 C381 1.374 . S
C377 C383 1.507 . S
C378 C379 1.387 . S
C378 C382 1.391 . S
C379 C378 1.387 . S
C379 C380 1.384 . S
C379 H388 0.930 . S
C380 C377 1.380 . S
C380 C379 1.384 . S
C380 H389 0.931 . S
C381 C377 1.374 . S
C381 C382 1.390 . S
C381 H390 0.930 . S
C382 C378 1.391 . S
C382 C381 1.390 . S
C382 H391 0.930 . S
C383 Eu353 2.825 . S
C383 O368 1.238 . S
C383 O369 1.247 . S
C383 C377 1.507 . S
H384 C357 0.930 . S
H385 C358 0.931 . S
H386 C359 0.930 . S
H387 C360 0.930 . S
H388 C379 0.930 . S
H389 C380 0.931 . S
H390 C381 0.930 . S
H391 C382 0.930 . S
Tb392 C402 2.825 . S
Tb392 O403 2.347 1_565 S
Tb392 O406 2.366 . S
Tb392 O411 2.418 . S
Tb392 O412 2.384 1_565 S
Tb392 O415 2.479 . S
Tb392 O416 2.471 . S
Eu393 O404 2.418 . S
Eu393 O405 2.384 . S
Eu393 O408 2.479 . S
Eu393 O409 2.471 . S
Eu393 O410 2.347 . S
Eu393 O413 2.366 . S
Eu393 C423 2.825 . S
C394 O410 1.259 . S
C394 O411 1.265 1_545 S
C395 O412 1.255 . S
C395 O413 1.265 . S
C396 C398 1.380 . S
C396 C399 1.374 . S
C396 C402 1.507 . S
C397 C398 1.384 . S
C397 C401 1.387 . S
C397 H424 0.930 . S
C398 C396 1.380 . S
C398 C397 1.384 . S
C398 H425 0.931 . S
C399 C396 1.374 . S
C399 C400 1.390 . S
C399 H426 0.930 . S
C400 C399 1.390 . S
C400 C401 1.391 . S
C400 H427 0.930 . S
C401 C397 1.387 . S
C401 C400 1.391 . S
C402 Tb392 2.825 . S
C402 C396 1.507 . S
C402 O415 1.238 . S
C402 O416 1.247 . S
O403 Tb392 2.347 1_545 S
O403 C407 1.259 . S
O404 Eu393 2.418 . S
O404 C407 1.265 . S
O405 Eu393 2.384 . S
O405 C414 1.255 . S
O406 Tb392 2.366 . S
O406 C414 1.265 1_565 S
C407 O403 1.259 . S
C407 O404 1.265 . S
O408 Eu393 2.479 . S
O408 C423 1.238 . S
O409 Eu393 2.471 . S
O409 C423 1.247 . S
O410 Eu393 2.347 . S
O410 C394 1.259 . S
O411 Tb392 2.418 . S
O411 C394 1.265 1_565 S
O412 Tb392 2.384 1_545 S
O412 C395 1.255 . S
O413 Eu393 2.366 . S
O413 C395 1.265 . S
C414 O405 1.255 . S
C414 O406 1.265 1_545 S
O415 Tb392 2.479 . S
O415 C402 1.238 . S
O416 Tb392 2.471 . S
O416 C402 1.247 . S
C417 C420 1.380 . S
C417 C421 1.374 . S
C417 C423 1.507 . S
C418 C419 1.387 . S
C418 C422 1.391 . S
C419 C418 1.387 . S
C419 C420 1.384 . S
C419 H428 0.930 . S
C420 C417 1.380 . S
C420 C419 1.384 . S
C420 H429 0.931 . S
C421 C417 1.374 . S
C421 C422 1.390 . S
C421 H430 0.930 . S
C422 C418 1.391 . S
C422 C421 1.390 . S
C422 H431 0.930 . S
C423 Eu393 2.825 . S
C423 O408 1.238 . S
C423 O409 1.247 . S
C423 C417 1.507 . S
H424 C397 0.930 . S
H425 C398 0.931 . S
H426 C399 0.930 . S
H427 C400 0.930 . S
H428 C419 0.930 . S
H429 C420 0.931 . S
H430 C421 0.930 . S
H431 C422 0.930 . S
Tb432 C442 2.825 . S
Tb432 O443 2.347 . S
Tb432 O446 2.366 . S
Tb432 O451 2.418 . S
Tb432 O452 2.384 . S
Tb432 O455 2.479 . S
Tb432 O456 2.471 . S
Eu433 O444 2.418 . S
Eu433 O445 2.384 . S
Eu433 O448 2.479 . S
Eu433 O449 2.471 . S
Eu433 O450 2.347 . S
Eu433 O453 2.366 . S
Eu433 C463 2.825 . S
C434 O450 1.259 . S
C434 O451 1.265 . S
C435 O452 1.255 . S
C435 O453 1.265 . S
C436 C438 1.380 . S
C436 C439 1.374 . S
C436 C442 1.507 . S
C437 C438 1.384 . S
C437 C441 1.387 . S
C437 H464 0.930 . S
C438 C436 1.380 . S
C438 C437 1.384 . S
C438 H465 0.931 . S
C439 C436 1.374 . S
C439 C440 1.390 . S
C439 H466 0.930 . S
C440 C439 1.390 . S
C440 C441 1.391 . S
C440 H467 0.930 . S
C441 C437 1.387 . S
C441 C440 1.391 . S
C442 Tb432 2.825 . S
C442 C436 1.507 . S
C442 O455 1.238 . S
C442 O456 1.247 . S
O443 Tb432 2.347 . S
O443 C447 1.259 . S
O444 Eu433 2.418 . S
O444 C447 1.265 . S
O445 Eu433 2.384 . S
O445 C454 1.255 . S
O446 Tb432 2.366 . S
O446 C454 1.265 . S
C447 O443 1.259 . S
C447 O444 1.265 . S
O448 Eu433 2.479 . S
O448 C463 1.238 . S
O449 Eu433 2.471 . S
O449 C463 1.247 . S
O450 Eu433 2.347 . S
O450 C434 1.259 . S
O451 Tb432 2.418 . S
O451 C434 1.265 . S
O452 Tb432 2.384 . S
O452 C435 1.255 . S
O453 Eu433 2.366 . S
O453 C435 1.265 . S
C454 O445 1.255 . S
C454 O446 1.265 . S
O455 Tb432 2.479 . S
O455 C442 1.238 . S
O456 Tb432 2.471 . S
O456 C442 1.247 . S
C457 C460 1.380 . S
C457 C461 1.374 . S
C457 C463 1.507 . S
C458 C459 1.387 . S
C458 C462 1.391 . S
C459 C458 1.387 . S
C459 C460 1.384 . S
C459 H468 0.930 . S
C460 C457 1.380 . S
C460 C459 1.384 . S
C460 H469 0.931 . S
C461 C457 1.374 . S
C461 C462 1.390 . S
C461 H470 0.930 . S
C462 C458 1.391 . S
C462 C461 1.390 . S
C462 H471 0.930 . S
C463 Eu433 2.825 . S
C463 O448 1.238 . S
C463 O449 1.247 . S
C463 C457 1.507 . S
H464 C437 0.930 . S
H465 C438 0.931 . S
H466 C439 0.930 . S
H467 C440 0.930 . S
H468 C459 0.930 . S
H469 C460 0.931 . S
H470 C461 0.930 . S
H471 C462 0.930 . S
Tb472 C482 2.825 . S
Tb472 O483 2.347 . S
Tb472 O486 2.366 . S
Tb472 O491 2.418 . S
Tb472 O492 2.384 1_545 S
Tb472 O495 2.479 . S
Tb472 O496 2.471 . S
Eu473 O484 2.418 . S
Eu473 O485 2.384 . S
Eu473 O488 2.479 . S
Eu473 O489 2.471 . S
Eu473 O490 2.347 . S
Eu473 O493 2.366 . S
Eu473 C503 2.825 . S
C474 O490 1.259 . S
C474 O491 1.265 . S
C475 O492 1.255 . S
C475 O493 1.265 1_565 S
C476 C478 1.380 . S
C476 C479 1.374 1_455 S
C476 C482 1.507 . S
C477 C478 1.384 . S
C477 C481 1.377 1_455 S
C477 H504 0.930 . S
C478 C476 1.380 . S
C478 C477 1.384 . S
C478 H505 0.931 . S
C479 C476 1.374 1_655 S
C479 C480 1.390 . S
C479 H506 0.930 . S
C480 C479 1.390 . S
C480 C481 1.397 . S
C480 H507 0.930 . S
C481 C477 1.377 1_655 S
C481 C480 1.397 . S
C482 Tb472 2.825 . S
C482 C476 1.507 . S
C482 O495 1.238 . S
C482 O496 1.247 . S
O483 Tb472 2.347 . S
O483 C487 1.259 . S
O484 Eu473 2.418 . S
O484 C487 1.265 . S
O485 Eu473 2.384 . S
O485 C494 1.255 . S
O486 Tb472 2.366 . S
O486 C494 1.265 . S
C487 O483 1.259 . S
C487 O484 1.265 . S
O488 Eu473 2.479 . S
O488 C503 1.238 . S
O489 Eu473 2.471 . S
O489 C503 1.247 . S
O490 Eu473 2.347 . S
O490 C474 1.259 . S
O491 Tb472 2.418 . S
O491 C474 1.265 . S
O492 Tb472 2.384 1_565 S
O492 C475 1.255 . S
O493 Eu473 2.366 . S
O493 C475 1.265 1_545 S
C494 O485 1.255 . S
C494 O486 1.265 . S
O495 Tb472 2.479 . S
O495 C482 1.238 . S
O496 Tb472 2.471 . S
O496 C482 1.247 . S
C497 C500 1.380 . S
C497 C501 1.374 . S
C497 C503 1.507 . S
C498 C499 1.387 . S
C498 C502 1.391 . S
C499 C498 1.387 . S
C499 C500 1.384 . S
C499 H508 0.930 . S
C500 C497 1.380 . S
C500 C499 1.384 . S
C500 H509 0.931 . S
C501 C497 1.374 . S
C501 C502 1.390 . S
C501 H510 0.930 . S
C502 C498 1.391 . S
C502 C501 1.390 . S
C502 H511 0.930 . S
C503 Eu473 2.825 . S
C503 O488 1.238 . S
C503 O489 1.247 . S
C503 C497 1.507 . S
H504 C477 0.930 . S
H505 C478 0.931 . S
H506 C479 0.930 . S
H507 C480 0.930 . S
H508 C499 0.930 . S
H509 C500 0.931 . S
H510 C501 0.930 . S
H511 C502 0.930 . S
Tb512 C522 2.825 . S
Tb512 O523 2.347 . S
Tb512 O526 2.366 . S
Tb512 O531 2.418 . S
Tb512 O532 2.384 . S
Tb512 O535 2.479 . S
Tb512 O536 2.471 . S
Eu513 O524 2.418 . S
Eu513 O525 2.384 . S
Eu513 O528 2.479 . S
Eu513 O529 2.471 . S
Eu513 O530 2.347 . S
Eu513 O533 2.366 . S
Eu513 C543 2.825 . S
C514 O530 1.259 . S
C514 O531 1.265 . S
C515 O532 1.255 . S
C515 O533 1.265 . S
C516 C518 1.380 . S
C516 C519 1.374 . S
C516 C522 1.507 . S
C517 C518 1.384 . S
C517 C521 1.387 . S
C517 H544 0.930 . S
C518 C516 1.380 . S
C518 C517 1.384 . S
C518 H545 0.931 . S
C519 C516 1.374 . S
C519 C520 1.390 . S
C519 H546 0.930 . S
C520 C519 1.390 . S
C520 C521 1.391 . S
C520 H547 0.930 . S
C521 C517 1.387 . S
C521 C520 1.391 . S
C522 Tb512 2.825 . S
C522 C516 1.507 . S
C522 O535 1.238 . S
C522 O536 1.247 . S
O523 Tb512 2.347 . S
O523 C527 1.259 . S
O524 Eu513 2.418 . S
O524 C527 1.265 . S
O525 Eu513 2.384 . S
O525 C534 1.255 . S
O526 Tb512 2.366 . S
O526 C534 1.265 . S
C527 O523 1.259 . S
C527 O524 1.265 . S
O528 Eu513 2.479 . S
O528 C543 1.238 . S
O529 Eu513 2.471 . S
O529 C543 1.247 . S
O530 Eu513 2.347 . S
O530 C514 1.259 . S
O531 Tb512 2.418 . S
O531 C514 1.265 . S
O532 Tb512 2.384 . S
O532 C515 1.255 . S
O533 Eu513 2.366 . S
O533 C515 1.265 . S
C534 O525 1.255 . S
C534 O526 1.265 . S
O535 Tb512 2.479 . S
O535 C522 1.238 . S
O536 Tb512 2.471 . S
O536 C522 1.247 . S
C537 C540 1.380 . S
C537 C541 1.374 . S
C537 C543 1.507 . S
C538 C539 1.387 . S
C538 C542 1.391 . S
C539 C538 1.387 . S
C539 C540 1.384 . S
C539 H548 0.930 . S
C540 C537 1.380 . S
C540 C539 1.384 . S
C540 H549 0.931 . S
C541 C537 1.374 . S
C541 C542 1.390 . S
C541 H550 0.930 . S
C542 C538 1.391 . S
C542 C541 1.390 . S
C542 H551 0.930 . S
C543 Eu513 2.825 . S
C543 O528 1.238 . S
C543 O529 1.247 . S
C543 C537 1.507 . S
H544 C517 0.930 . S
H545 C518 0.931 . S
H546 C519 0.930 . S
H547 C520 0.930 . S
H548 C539 0.930 . S
H549 C540 0.931 . S
H550 C541 0.930 . S
H551 C542 0.930 . S
Tb552 C562 2.825 . S
Tb552 O563 2.347 . S
Tb552 O566 2.366 . S
Tb552 O571 2.455 . S
Tb552 O572 2.384 . S
Tb552 O575 2.479 . S
Tb552 O576 2.471 . S
Eu553 O564 2.418 . S
Eu553 O565 2.384 1_556 S
Eu553 O568 2.479 . S
Eu553 O569 2.471 . S
Eu553 O570 2.347 . S
Eu553 O573 2.366 . S
Eu553 C583 2.825 . S
C554 O570 1.259 1_554 S
C554 O571 1.272 . S
C555 O572 1.255 . S
C555 O573 1.265 1_554 S
C556 C558 1.380 . S
C556 C559 1.374 . S
C556 C562 1.507 . S
C557 C558 1.384 . S
C557 C561 1.387 . S
C557 H584 0.930 1_545 S
C558 C556 1.380 . S
C558 C557 1.384 . S
C558 H585 0.911 1_545 S
C559 C556 1.374 . S
C559 C560 1.390 . S
C559 H586 0.930 . S
C560 C559 1.390 . S
C560 C561 1.391 . S
C560 H587 0.930 . S
C561 C557 1.387 . S
C561 C560 1.391 . S
C562 Tb552 2.825 . S
C562 C556 1.507 . S
C562 O575 1.238 . S
C562 O576 1.247 . S
O563 Tb552 2.347 . S
O563 C567 1.259 . S
O564 Eu553 2.418 . S
O564 C567 1.265 1_556 S
O565 Eu553 2.384 1_554 S
O565 C574 1.255 . S
O566 Tb552 2.366 . S
O566 C574 1.265 . S
C567 O563 1.259 . S
C567 O564 1.265 1_554 S
O568 Eu553 2.479 . S
O568 C583 1.238 . S
O569 Eu553 2.471 . S
O569 C583 1.247 . S
O570 Eu553 2.347 . S
O570 C554 1.259 1_556 S
O571 Tb552 2.455 . S
O571 C554 1.272 . S
O572 Tb552 2.384 . S
O572 C555 1.255 . S
O573 Eu553 2.366 . S
O573 C555 1.265 1_556 S
C574 O565 1.255 . S
C574 O566 1.265 . S
O575 Tb552 2.479 . S
O575 C562 1.238 . S
O576 Tb552 2.471 . S
O576 C562 1.247 . S
C577 C580 1.380 . S
C577 C581 1.374 . S
C577 C583 1.507 . S
C578 C579 1.387 . S
C578 C582 1.391 . S
C579 C578 1.387 . S
C579 C580 1.384 . S
C579 H588 0.930 . S
C580 C577 1.380 . S
C580 C579 1.384 . S
C580 H589 0.931 . S
C581 C577 1.374 . S
C581 C582 1.390 . S
C581 H590 0.930 . S
C582 C578 1.391 . S
C582 C581 1.390 . S
C582 H591 0.930 . S
C583 Eu553 2.825 . S
C583 O568 1.238 . S
C583 O569 1.247 . S
C583 C577 1.507 . S
H584 C557 0.930 1_565 S
H585 C558 0.911 1_565 S
H586 C559 0.930 . S
H587 C560 0.930 . S
H588 C579 0.930 . S
H589 C580 0.931 . S
H590 C581 0.930 . S
H591 C582 0.930 . S
Tb592 C602 2.825 . S
Tb592 O603 2.347 . S
Tb592 O606 2.366 . S
Tb592 O611 2.418 . S
Tb592 O612 2.384 . S
Tb592 O615 2.479 . S
Tb592 O616 2.471 . S
Eu593 O604 2.418 . S
Eu593 O605 2.384 . S
Eu593 O608 2.479 . S
Eu593 O609 2.471 . S
Eu593 O610 2.347 . S
Eu593 O613 2.366 . S
Eu593 C623 2.825 . S
C594 O610 1.259 . S
C594 O611 1.265 . S
C595 O612 1.255 . S
C595 O613 1.265 . S
C596 C598 1.380 . S
C596 C599 1.374 . S
C596 C602 1.507 . S
C597 C598 1.384 . S
C597 C601 1.387 . S
C597 H624 0.930 . S
C598 C596 1.380 . S
C598 C597 1.384 . S
C598 H625 0.931 . S
C599 C596 1.374 . S
C599 C600 1.390 . S
C599 H626 0.930 . S
C600 C599 1.390 . S
C600 C601 1.391 . S
C600 H627 0.930 . S
C601 C597 1.387 . S
C601 C600 1.391 . S
C602 Tb592 2.825 . S
C602 C596 1.507 . S
C602 O615 1.238 . S
C602 O616 1.247 . S
O603 Tb592 2.347 . S
O603 C607 1.259 . S
O604 Eu593 2.418 . S
O604 C607 1.265 . S
O605 Eu593 2.384 . S
O605 C614 1.255 . S
O606 Tb592 2.366 . S
O606 C614 1.265 . S
C607 O603 1.259 . S
C607 O604 1.265 . S
O608 Eu593 2.479 . S
O608 C623 1.238 . S
O609 Eu593 2.471 . S
O609 C623 1.247 . S
O610 Eu593 2.347 . S
O610 C594 1.259 . S
O611 Tb592 2.418 . S
O611 C594 1.265 . S
O612 Tb592 2.384 . S
O612 C595 1.255 . S
O613 Eu593 2.366 . S
O613 C595 1.265 . S
C614 O605 1.255 . S
C614 O606 1.265 . S
O615 Tb592 2.479 . S
O615 C602 1.238 . S
O616 Tb592 2.471 . S
O616 C602 1.247 . S
C617 C620 1.380 . S
C617 C621 1.374 . S
C617 C623 1.507 . S
C618 C619 1.387 . S
C618 C622 1.391 . S
C619 C618 1.387 . S
C619 C620 1.384 . S
C619 H628 0.930 . S
C620 C617 1.380 . S
C620 C619 1.384 . S
C620 H629 0.931 . S
C621 C617 1.374 . S
C621 C622 1.390 . S
C621 H630 0.930 . S
C622 C618 1.391 . S
C622 C621 1.390 . S
C622 H631 0.930 . S
C623 Eu593 2.825 . S
C623 O608 1.238 . S
C623 O609 1.247 . S
C623 C617 1.507 . S
H624 C597 0.930 . S
H625 C598 0.931 . S
H626 C599 0.930 . S
H627 C600 0.930 . S
H628 C619 0.930 . S
H629 C620 0.931 . S
H630 C621 0.930 . S
H631 C622 0.930 . S
Tb632 C642 2.825 . S
Tb632 O643 2.347 1_556 S
Tb632 O646 2.366 . S
Tb632 O651 2.418 . S
Tb632 O652 2.384 1_556 S
Tb632 O655 2.479 . S
Tb632 O656 2.471 . S
Eu633 O644 2.418 . S
Eu633 O645 2.384 . S
Eu633 O648 2.479 . S
Eu633 O649 2.471 . S
Eu633 O650 2.347 . S
Eu633 O653 2.366 . S
Eu633 C663 2.825 . S
C634 O650 1.259 . S
C634 O651 1.265 1_554 S
C635 O652 1.255 . S
C635 O653 1.265 . S
C636 C638 1.380 . S
C636 C639 1.374 . S
C636 C642 1.507 . S
C637 C638 1.384 . S
C637 C641 1.387 . S
C637 H664 0.930 . S
C638 C636 1.380 . S
C638 C637 1.384 . S
C638 H665 0.931 . S
C639 C636 1.374 . S
C639 C640 1.390 . S
C639 H666 0.930 . S
C640 C639 1.390 . S
C640 C641 1.391 . S
C640 H667 0.930 . S
C641 C637 1.387 . S
C641 C640 1.391 . S
C642 Tb632 2.825 . S
C642 C636 1.507 . S
C642 O655 1.238 . S
C642 O656 1.247 . S
O643 Tb632 2.347 1_554 S
O643 C647 1.259 . S
O644 Eu633 2.418 . S
O644 C647 1.265 . S
O645 Eu633 2.384 . S
O645 C654 1.255 1_554 S
O646 Tb632 2.366 . S
O646 C654 1.265 . S
C647 O643 1.259 . S
C647 O644 1.265 . S
O648 Eu633 2.479 . S
O648 C663 1.238 . S
O649 Eu633 2.471 . S
O649 C663 1.247 . S
O650 Eu633 2.347 . S
O650 C634 1.259 . S
O651 Tb632 2.418 . S
O651 C634 1.265 1_556 S
O652 Tb632 2.384 1_554 S
O652 C635 1.255 . S
O653 Eu633 2.366 . S
O653 C635 1.265 . S
C654 O645 1.255 1_556 S
C654 O646 1.265 . S
O655 Tb632 2.479 . S
O655 C642 1.238 . S
O656 Tb632 2.471 . S
O656 C642 1.247 . S
C657 C660 1.380 . S
C657 C661 1.374 . S
C657 C663 1.507 . S
C658 C659 1.387 . S
C658 C662 1.391 . S
C659 C658 1.387 . S
C659 C660 1.384 . S
C659 H668 0.930 . S
C660 C657 1.380 . S
C660 C659 1.384 . S
C660 H669 0.931 . S
C661 C657 1.374 . S
C661 C662 1.390 . S
C661 H670 0.930 . S
C662 C658 1.391 . S
C662 C661 1.390 . S
C662 H671 0.930 . S
C663 Eu633 2.825 . S
C663 O648 1.238 . S
C663 O649 1.247 . S
C663 C657 1.507 . S
H664 C637 0.930 . S
H665 C638 0.931 . S
H666 C639 0.930 . S
H667 C640 0.930 . S
H668 C659 0.930 . S
H669 C660 0.931 . S
H670 C661 0.930 . S
H671 C662 0.930 . S
Tb672 C682 2.825 . S
Tb672 O683 2.347 . S
Tb672 O686 2.366 . S
Tb672 O691 2.418 . S
Tb672 O692 2.384 . S
Tb672 O695 2.479 . S
Tb672 O696 2.471 . S
Eu673 O684 2.418 . S
Eu673 O685 2.384 . S
Eu673 O688 2.479 . S
Eu673 O689 2.471 . S
Eu673 O690 2.347 . S
Eu673 O693 2.366 . S
Eu673 C703 2.825 . S
C674 O690 1.259 . S
C674 O691 1.265 . S
C675 O692 1.255 . S
C675 O693 1.265 . S
C676 C678 1.380 . S
C676 C679 1.374 . S
C676 C682 1.507 . S
C677 C678 1.384 . S
C677 C681 1.387 . S
C677 H704 0.930 . S
C678 C676 1.380 . S
C678 C677 1.384 . S
C678 H705 0.931 . S
C679 C676 1.374 . S
C679 C680 1.390 . S
C679 H706 0.930 . S
C680 C679 1.390 . S
C680 C681 1.391 . S
C680 H707 0.930 . S
C681 C677 1.387 . S
C681 C680 1.391 . S
C682 Tb672 2.825 . S
C682 C676 1.507 . S
C682 O695 1.238 . S
C682 O696 1.247 . S
O683 Tb672 2.347 . S
O683 C687 1.259 . S
O684 Eu673 2.418 . S
O684 C687 1.265 . S
O685 Eu673 2.384 . S
O685 C694 1.255 . S
O686 Tb672 2.366 . S
O686 C694 1.265 . S
C687 O683 1.259 . S
C687 O684 1.265 . S
O688 Eu673 2.479 . S
O688 C703 1.238 . S
O689 Eu673 2.471 . S
O689 C703 1.247 . S
O690 Eu673 2.347 . S
O690 C674 1.259 . S
O691 Tb672 2.418 . S
O691 C674 1.265 . S
O692 Tb672 2.384 . S
O692 C675 1.255 . S
O693 Eu673 2.366 . S
O693 C675 1.265 . S
C694 O685 1.255 . S
C694 O686 1.265 . S
O695 Tb672 2.479 . S
O695 C682 1.238 . S
O696 Tb672 2.471 . S
O696 C682 1.247 . S
C697 C700 1.380 . S
C697 C701 1.374 . S
C697 C703 1.507 . S
C698 C699 1.387 . S
C698 C702 1.391 . S
C699 C698 1.387 . S
C699 C700 1.384 . S
C699 H708 0.930 . S
C700 C697 1.380 . S
C700 C699 1.384 . S
C700 H709 0.931 . S
C701 C697 1.374 . S
C701 C702 1.390 . S
C701 H710 0.930 . S
C702 C698 1.391 . S
C702 C701 1.390 . S
C702 H711 0.930 . S
C703 Eu673 2.825 . S
C703 O688 1.238 . S
C703 O689 1.247 . S
C703 C697 1.507 . S
H704 C677 0.930 . S
H705 C678 0.931 . S
H706 C679 0.930 . S
H707 C680 0.930 . S
H708 C699 0.930 . S
H709 C700 0.931 . S
H710 C701 0.930 . S
H711 C702 0.930 . S
Tb712 C722 2.825 . S
Tb712 O723 2.347 . S
Tb712 O726 2.366 . S
Tb712 O731 2.418 . S
Tb712 O732 2.384 . S
Tb712 O735 2.479 . S
Tb712 O736 2.471 . S
Eu713 O724 2.418 . S
Eu713 O725 2.384 1_455 S
Eu713 O728 2.479 . S
Eu713 O729 2.471 . S
Eu713 O730 2.347 . S
Eu713 O733 2.366 . S
Eu713 C743 2.825 . S
C714 O730 1.259 . S
C714 O731 1.265 . S
C715 O732 1.255 . S
C715 O733 1.265 . S
C716 C718 1.380 . S
C716 C719 1.374 . S
C716 C722 1.507 . S
C717 C718 1.384 . S
C717 C721 1.387 . S
C717 H744 0.930 . S
C718 C716 1.380 . S
C718 C717 1.384 . S
C718 H745 0.931 . S
C719 C716 1.374 . S
C719 C720 1.390 . S
C719 H746 0.930 . S
C720 C719 1.390 . S
C720 C721 1.391 . S
C720 H747 0.930 1_455 S
C721 C717 1.387 . S
C721 C720 1.391 . S
C722 Tb712 2.825 . S
C722 C716 1.507 . S
C722 O735 1.238 . S
C722 O736 1.247 . S
O723 Tb712 2.347 . S
O723 C727 1.259 . S
O724 Eu713 2.418 . S
O724 C727 1.265 . S
O725 Eu713 2.384 1_655 S
O725 C734 1.255 . S
O726 Tb712 2.366 . S
O726 C734 1.265 1_455 S
C727 O723 1.259 . S
C727 O724 1.265 . S
O728 Eu713 2.479 . S
O728 C743 1.238 . S
O729 Eu713 2.471 . S
O729 C743 1.247 . S
O730 Eu713 2.347 . S
O730 C714 1.259 . S
O731 Tb712 2.418 . S
O731 C714 1.265 . S
O732 Tb712 2.384 . S
O732 C715 1.255 . S
O733 Eu713 2.366 . S
O733 C715 1.265 . S
C734 O725 1.255 . S
C734 O726 1.265 1_655 S
O735 Tb712 2.479 . S
O735 C722 1.238 . S
O736 Tb712 2.471 . S
O736 C722 1.247 . S
C737 C740 1.380 . S
C737 C741 1.374 . S
C737 C743 1.507 . S
C738 C739 1.387 . S
C738 C742 1.391 . S
C739 C738 1.387 . S
C739 C740 1.384 . S
C739 H748 0.930 . S
C740 C737 1.380 . S
C740 C739 1.384 . S
C740 H749 0.931 . S
C741 C737 1.374 . S
C741 C742 1.390 . S
C741 H750 0.930 . S
C742 C738 1.391 . S
C742 C741 1.390 . S
C742 H751 0.930 . S
C743 Eu713 2.825 . S
C743 O728 1.238 . S
C743 O729 1.247 . S
C743 C737 1.507 . S
H744 C717 0.930 . S
H745 C718 0.931 . S
H746 C719 0.930 . S
H747 C720 0.930 1_655 S
H748 C739 0.930 . S
H749 C740 0.931 . S
H750 C741 0.930 . S
H751 C742 0.930 . S
Tb752 C762 2.825 . S
Tb752 O763 2.347 . S
Tb752 O766 2.366 . S
Tb752 O771 2.418 . S
Tb752 O772 2.384 . S
Tb752 O775 2.479 . S
Tb752 O776 2.471 . S
Eu753 O764 2.418 . S
Eu753 O765 2.384 . S
Eu753 O768 2.479 . S
Eu753 O769 2.471 . S
Eu753 O770 2.347 . S
Eu753 O773 2.366 . S
Eu753 C783 2.825 . S
C754 O770 1.259 . S
C754 O771 1.265 . S
C755 O772 1.255 . S
C755 O773 1.265 . S
C756 C758 1.380 . S
C756 C759 1.374 . S
C756 C762 1.507 . S
C757 C758 1.384 . S
C757 C761 1.387 . S
C757 H784 0.930 . S
C758 C756 1.380 . S
C758 C757 1.384 . S
C758 H785 0.931 . S
C759 C756 1.374 . S
C759 C760 1.390 . S
C759 H786 0.930 . S
C760 C759 1.390 . S
C760 C761 1.391 . S
C760 H787 0.930 . S
C761 C757 1.387 . S
C761 C760 1.391 . S
C762 Tb752 2.825 . S
C762 C756 1.507 . S
C762 O775 1.238 . S
C762 O776 1.247 . S
O763 Tb752 2.347 . S
O763 C767 1.259 . S
O764 Eu753 2.418 . S
O764 C767 1.265 . S
O765 Eu753 2.384 . S
O765 C774 1.255 . S
O766 Tb752 2.366 . S
O766 C774 1.265 . S
C767 O763 1.259 . S
C767 O764 1.265 . S
O768 Eu753 2.479 . S
O768 C783 1.238 . S
O769 Eu753 2.471 . S
O769 C783 1.247 . S
O770 Eu753 2.347 . S
O770 C754 1.259 . S
O771 Tb752 2.418 . S
O771 C754 1.265 . S
O772 Tb752 2.384 . S
O772 C755 1.255 . S
O773 Eu753 2.366 . S
O773 C755 1.265 . S
C774 O765 1.255 . S
C774 O766 1.265 . S
O775 Tb752 2.479 . S
O775 C762 1.238 . S
O776 Tb752 2.471 . S
O776 C762 1.247 . S
C777 C780 1.380 . S
C777 C781 1.374 . S
C777 C783 1.507 . S
C778 C779 1.387 . S
C778 C782 1.391 . S
C779 C778 1.387 . S
C779 C780 1.384 . S
C779 H788 0.930 . S
C780 C777 1.380 . S
C780 C779 1.384 . S
C780 H789 0.931 . S
C781 C777 1.374 . S
C781 C782 1.390 . S
C781 H790 0.930 . S
C782 C778 1.391 . S
C782 C781 1.390 . S
C782 H791 0.930 . S
C783 Eu753 2.825 . S
C783 O768 1.238 . S
C783 O769 1.247 . S
C783 C777 1.507 . S
H784 C757 0.930 . S
H785 C758 0.931 . S
H786 C759 0.930 . S
H787 C760 0.930 . S
H788 C779 0.930 . S
H789 C780 0.931 . S
H790 C781 0.930 . S
H791 C782 0.930 . S
Tb792 C802 2.825 . S
Tb792 O803 2.347 . S
Tb792 O806 2.366 . S
Tb792 O811 2.418 . S
Tb792 O812 2.384 . S
Tb792 O815 2.479 . S
Tb792 O816 2.471 . S
Eu793 O804 2.418 . S
Eu793 O805 2.384 . S
Eu793 O808 2.479 . S
Eu793 O809 2.471 . S
Eu793 O810 2.347 . S
Eu793 O813 2.366 . S
Eu793 C823 2.825 . S
C794 O810 1.259 . S
C794 O811 1.265 . S
C795 O812 1.255 . S
C795 O813 1.265 . S
C796 C798 1.380 . S
C796 C799 1.374 . S
C796 C802 1.507 . S
C797 C798 1.384 . S
C797 C801 1.387 . S
C797 H824 0.930 . S
C798 C796 1.380 . S
C798 C797 1.384 . S
C798 H825 0.931 . S
C799 C796 1.374 . S
C799 C800 1.390 . S
C799 H826 0.930 . S
C800 C799 1.390 . S
C800 C801 1.391 . S
C800 H827 0.930 . S
C801 C797 1.387 . S
C801 C800 1.391 . S
C802 Tb792 2.825 . S
C802 C796 1.507 . S
C802 O815 1.238 . S
C802 O816 1.247 . S
O803 Tb792 2.347 . S
O803 C807 1.259 . S
O804 Eu793 2.418 . S
O804 C807 1.265 . S
O805 Eu793 2.384 . S
O805 C814 1.255 . S
O806 Tb792 2.366 . S
O806 C814 1.265 . S
C807 O803 1.259 . S
C807 O804 1.265 . S
O808 Eu793 2.479 . S
O808 C823 1.238 . S
O809 Eu793 2.471 . S
O809 C823 1.247 . S
O810 Eu793 2.347 . S
O810 C794 1.259 . S
O811 Tb792 2.418 . S
O811 C794 1.265 . S
O812 Tb792 2.384 . S
O812 C795 1.255 . S
O813 Eu793 2.366 . S
O813 C795 1.265 . S
C814 O805 1.255 . S
C814 O806 1.265 . S
O815 Tb792 2.479 . S
O815 C802 1.238 . S
O816 Tb792 2.471 . S
O816 C802 1.247 . S
C817 C820 1.380 . S
C817 C821 1.374 . S
C817 C823 1.507 . S
C818 C819 1.387 . S
C818 C822 1.391 . S
C819 C818 1.387 . S
C819 C820 1.384 . S
C819 H828 0.930 . S
C820 C817 1.380 . S
C820 C819 1.384 . S
C820 H829 0.931 . S
C821 C817 1.374 . S
C821 C822 1.390 . S
C821 H830 0.930 . S
C822 C818 1.391 . S
C822 C821 1.390 . S
C822 H831 0.930 . S
C823 Eu793 2.825 . S
C823 O808 1.238 . S
C823 O809 1.247 . S
C823 C817 1.507 . S
H824 C797 0.930 . S
H825 C798 0.931 . S
H826 C799 0.930 . S
H827 C800 0.930 . S
H828 C819 0.930 . S
H829 C820 0.931 . S
H830 C821 0.930 . S
H831 C822 0.930 . S
Tb832 C842 2.825 . S
Tb832 O843 2.347 . S
Tb832 O846 2.366 . S
Tb832 O851 2.418 . S
Tb832 O852 2.384 . S
Tb832 O855 2.479 . S
Tb832 O856 2.471 . S
Eu833 O844 2.418 . S
Eu833 O845 2.384 . S
Eu833 O848 2.479 . S
Eu833 O849 2.471 . S
Eu833 O850 2.347 . S
Eu833 O853 2.366 . S
Eu833 C863 2.825 . S
C834 O850 1.259 . S
C834 O851 1.265 . S
C835 O852 1.255 . S
C835 O853 1.265 . S
C836 C838 1.380 . S
C836 C839 1.374 . S
C836 C842 1.507 . S
C837 C838 1.384 . S
C837 C841 1.387 . S
C837 H864 0.930 . S
C838 C836 1.380 . S
C838 C837 1.384 . S
C838 H865 0.931 . S
C839 C836 1.374 . S
C839 C840 1.390 . S
C839 H866 0.930 . S
C840 C839 1.390 . S
C840 C841 1.391 . S
C840 H867 0.930 . S
C841 C837 1.387 . S
C841 C840 1.391 . S
C842 Tb832 2.825 . S
C842 C836 1.507 . S
C842 O855 1.238 . S
C842 O856 1.247 . S
O843 Tb832 2.347 . S
O843 C847 1.259 . S
O844 Eu833 2.418 . S
O844 C847 1.265 . S
O845 Eu833 2.384 . S
O845 C854 1.255 . S
O846 Tb832 2.366 . S
O846 C854 1.265 . S
C847 O843 1.259 . S
C847 O844 1.265 . S
O848 Eu833 2.479 . S
O848 C863 1.238 . S
O849 Eu833 2.471 . S
O849 C863 1.247 . S
O850 Eu833 2.347 . S
O850 C834 1.259 . S
O851 Tb832 2.418 . S
O851 C834 1.265 . S
O852 Tb832 2.384 . S
O852 C835 1.255 . S
O853 Eu833 2.366 . S
O853 C835 1.265 . S
C854 O845 1.255 . S
C854 O846 1.265 . S
O855 Tb832 2.479 . S
O855 C842 1.238 . S
O856 Tb832 2.471 . S
O856 C842 1.247 . S
C857 C860 1.380 . S
C857 C861 1.374 . S
C857 C863 1.507 . S
C858 C859 1.387 . S
C858 C862 1.391 . S
C859 C858 1.387 . S
C859 C860 1.384 . S
C859 H868 0.930 . S
C860 C857 1.380 . S
C860 C859 1.384 . S
C860 H869 0.931 . S
C861 C857 1.374 . S
C861 C862 1.390 . S
C861 H870 0.930 . S
C862 C858 1.391 . S
C862 C861 1.390 . S
C862 H871 0.930 . S
C863 Eu833 2.825 . S
C863 O848 1.238 . S
C863 O849 1.247 . S
C863 C857 1.507 . S
H864 C837 0.930 . S
H865 C838 0.931 . S
H866 C839 0.930 . S
H867 C840 0.930 . S
H868 C859 0.930 . S
H869 C860 0.931 . S
H870 C861 0.930 . S
H871 C862 0.930 . S
Tb872 C882 2.825 . S
Tb872 O883 2.347 . S
Tb872 O886 2.366 . S
Tb872 O891 2.418 . S
Tb872 O892 2.384 . S
Tb872 O895 2.479 . S
Tb872 O896 2.471 . S
Eu873 O884 2.418 . S
Eu873 O885 2.384 . S
Eu873 O888 2.479 . S
Eu873 O889 2.471 . S
Eu873 O890 2.347 . S
Eu873 O893 2.366 . S
Eu873 C903 2.825 . S
C874 O890 1.259 . S
C874 O891 1.265 . S
C875 O892 1.255 . S
C875 O893 1.265 . S
C876 C878 1.380 . S
C876 C879 1.374 . S
C876 C882 1.507 . S
C877 C878 1.384 . S
C877 C881 1.387 . S
C877 H904 0.930 . S
C878 C876 1.380 . S
C878 C877 1.384 . S
C878 H905 0.931 . S
C879 C876 1.374 . S
C879 C880 1.390 . S
C879 H906 0.930 . S
C880 C879 1.390 . S
C880 C881 1.391 . S
C880 H907 0.930 . S
C881 C877 1.387 . S
C881 C880 1.391 . S
C882 Tb872 2.825 . S
C882 C876 1.507 . S
C882 O895 1.238 . S
C882 O896 1.247 . S
O883 Tb872 2.347 . S
O883 C887 1.259 . S
O884 Eu873 2.418 . S
O884 C887 1.265 . S
O885 Eu873 2.384 . S
O885 C894 1.255 . S
O886 Tb872 2.366 . S
O886 C894 1.265 . S
C887 O883 1.259 . S
C887 O884 1.265 . S
O888 Eu873 2.479 . S
O888 C903 1.238 . S
O889 Eu873 2.471 . S
O889 C903 1.247 . S
O890 Eu873 2.347 . S
O890 C874 1.259 . S
O891 Tb872 2.418 . S
O891 C874 1.265 . S
O892 Tb872 2.384 . S
O892 C875 1.255 . S
O893 Eu873 2.366 . S
O893 C875 1.265 . S
C894 O885 1.255 . S
C894 O886 1.265 . S
O895 Tb872 2.479 . S
O895 C882 1.238 . S
O896 Tb872 2.471 . S
O896 C882 1.247 . S
C897 C900 1.380 . S
C897 C901 1.374 . S
C897 C903 1.507 . S
C898 C899 1.387 . S
C898 C902 1.391 . S
C899 C898 1.387 . S
C899 C900 1.384 . S
C899 H908 0.930 . S
C900 C897 1.380 . S
C900 C899 1.384 . S
C900 H909 0.931 . S
C901 C897 1.374 . S
C901 C902 1.390 . S
C901 H910 0.930 . S
C902 C898 1.391 . S
C902 C901 1.390 . S
C902 H911 0.930 . S
C903 Eu873 2.825 . S
C903 O888 1.238 . S
C903 O889 1.247 . S
C903 C897 1.507 . S
H904 C877 0.930 . S
H905 C878 0.931 . S
H906 C879 0.930 . S
H907 C880 0.930 . S
H908 C899 0.930 . S
H909 C900 0.931 . S
H910 C901 0.930 . S
H911 C902 0.930 . S
Tb912 C922 2.825 . S
Tb912 O923 2.350 1_554 S
Tb912 O926 2.366 . S
Tb912 O931 2.418 . S
Tb912 O932 2.384 1_455 S
Tb912 O935 2.479 . S
Tb912 O936 2.471 1_554 S
Eu913 O924 2.418 1_554 S
Eu913 O925 2.384 . S
Eu913 O928 2.479 . S
Eu913 O929 2.471 . S
Eu913 O930 2.347 . S
Eu913 O933 2.366 . S
Eu913 C943 2.825 . S
C914 O930 1.259 . S
C914 O931 1.265 . S
C915 O932 1.255 1_455 S
C915 O933 1.265 . S
C916 C918 1.380 1_556 S
C916 C919 1.374 . S
C916 C922 1.507 1_556 S
C917 C918 1.384 1_556 S
C917 C921 1.387 . S
C917 H944 0.930 1_556 S
C918 C916 1.380 1_554 S
C918 C917 1.384 1_554 S
C918 H945 0.931 . S
C919 C916 1.374 . S
C919 C920 1.390 . S
C919 H946 0.930 . S
C920 C919 1.390 . S
C920 C921 1.391 . S
C920 H947 0.930 . S
C921 C917 1.387 . S
C921 C920 1.391 . S
C922 Tb912 2.825 . S
C922 C916 1.507 1_554 S
C922 O935 1.238 . S
C922 O936 1.247 1_554 S
O923 Tb912 2.350 1_556 S
O923 C927 1.256 . S
O924 Eu913 2.418 1_556 S
O924 C927 1.265 . S
O925 Eu913 2.384 . S
O925 C934 1.255 . S
O926 Tb912 2.366 . S
O926 C934 1.265 . S
C927 O923 1.256 . S
C927 O924 1.265 . S
O928 Eu913 2.479 . S
O928 C943 1.238 . S
O929 Eu913 2.471 . S
O929 C943 1.247 . S
O930 Eu913 2.347 . S
O930 C914 1.259 . S
O931 Tb912 2.418 . S
O931 C914 1.265 . S
O932 Tb912 2.384 1_655 S
O932 C915 1.255 1_655 S
O933 Eu913 2.366 . S
O933 C915 1.265 . S
C934 O925 1.255 . S
C934 O926 1.265 . S
O935 Tb912 2.479 . S
O935 C922 1.238 . S
O936 Tb912 2.471 1_556 S
O936 C922 1.247 1_556 S
C937 C940 1.380 . S
C937 C941 1.374 . S
C937 C943 1.507 . S
C938 C939 1.387 . S
C938 C942 1.391 . S
C939 C938 1.387 . S
C939 C940 1.384 . S
C939 H948 0.930 . S
C940 C937 1.380 . S
C940 C939 1.384 . S
C940 H949 0.931 . S
C941 C937 1.374 . S
C941 C942 1.390 . S
C941 H950 0.930 . S
C942 C938 1.391 . S
C942 C941 1.390 . S
C942 H951 0.930 . S
C943 Eu913 2.825 . S
C943 O928 1.238 . S
C943 O929 1.247 . S
C943 C937 1.507 . S
H944 C917 0.930 1_554 S
H945 C918 0.931 . S
H946 C919 0.930 . S
H947 C920 0.930 . S
H948 C939 0.930 . S
H949 C940 0.931 . S
H950 C941 0.930 . S
H951 C942 0.930 . S
H952 C958 0.930 1_655 S
H953 C961 0.930 . S
H954 C962 0.930 . S
H955 C963 0.930 . S
H956 C966 0.930 . S
H957 C967 0.930 1_655 S
C958 H952 0.930 1_455 S
C958 C959 1.355 . S
C958 C960 1.415 . S
C959 C958 1.355 . S
C959 C961 1.419 . S
C960 C958 1.415 . S
C960 C965 1.425 . S
C960 C967 1.409 1_556 S
C961 H953 0.930 . S
C961 C959 1.419 . S
C961 C962 1.362 . S
C962 H954 0.930 . S
C962 C961 1.362 . S
C962 C965 1.409 . S
C963 H955 0.930 . S
C963 C964 1.355 1_556 S
C963 C965 1.415 . S
C964 C963 1.355 1_554 S
C964 C966 1.419 . S
C965 C960 1.425 . S
C965 C962 1.409 . S
C965 C963 1.415 . S
C966 H956 0.930 . S
C966 C964 1.419 . S
C966 C967 1.362 . S
C967 H957 0.930 1_455 S
C967 C960 1.409 1_554 S
C967 C966 1.362 . S
H968 C974 0.930 . S
H969 C977 0.930 . S
H970 C978 0.930 . S
H971 C979 0.930 . S
H972 C982 0.930 . S
H973 C983 0.930 . S
C974 H968 0.930 . S
C974 C975 1.355 . S
C974 C976 1.415 . S
C975 C974 1.355 . S
C975 C977 1.419 . S
C976 C974 1.415 . S
C976 C981 1.425 . S
C976 C983 1.409 . S
C977 H969 0.930 . S
C977 C975 1.419 . S
C977 C978 1.362 . S
C978 H970 0.930 . S
C978 C977 1.362 . S
C978 C981 1.409 . S
C979 H971 0.930 . S
C979 C980 1.355 . S
C979 C981 1.415 . S
C980 C979 1.355 . S
C980 C982 1.419 . S
C981 C976 1.425 . S
C981 C978 1.409 . S
C981 C979 1.415 . S
C982 H972 0.930 . S
C982 C980 1.419 . S
C982 C983 1.362 . S
C983 H973 0.930 . S
C983 C976 1.409 . S
C983 C982 1.362 . S
H984 C990 0.930 . S
H985 C993 0.930 . S
H986 C994 0.930 . S
H987 C995 0.930 . S
H988 C998 0.930 . S
H989 C999 0.930 . S
C990 H984 0.930 . S
C990 C991 1.355 . S
C990 C992 1.415 . S
C991 C990 1.355 . S
C991 C993 1.419 . S
C992 C990 1.415 . S
C992 C997 1.425 . S
C992 C999 1.409 . S
C993 H985 0.930 . S
C993 C991 1.419 . S
C993 C994 1.362 . S
C994 H986 0.930 . S
C994 C993 1.362 . S
C994 C997 1.409 . S
C995 H987 0.930 . S
C995 C996 1.355 . S
C995 C997 1.415 . S
C996 C995 1.355 . S
C996 C998 1.419 . S
C997 C992 1.425 . S
C997 C994 1.409 . S
C997 C995 1.415 . S
C998 H988 0.930 . S
C998 C996 1.419 . S
C998 C999 1.362 . S
C999 H989 0.930 . S
C999 C992 1.409 . S
C999 C998 1.362 . S
H1000 C1006 0.930 . S
H1001 C1009 0.930 . S
H1002 C1010 0.930 . S
H1003 C1011 0.930 . S
H1004 C1014 0.930 . S
H1005 C1015 0.930 . S
C1006 H1000 0.930 . S
C1006 C1007 1.355 . S
C1006 C1008 1.415 . S
C1007 C1006 1.355 . S
C1007 C1009 1.419 . S
C1008 C1006 1.415 . S
C1008 C1013 1.425 . S
C1008 C1015 1.409 . S
C1009 H1001 0.930 . S
C1009 C1007 1.419 . S
C1009 C1010 1.362 . S
C1010 H1002 0.930 . S
C1010 C1009 1.362 . S
C1010 C1013 1.409 . S
C1011 H1003 0.930 . S
C1011 C1012 1.355 . S
C1011 C1013 1.415 . S
C1012 C1011 1.355 . S
C1012 C1014 1.419 . S
C1013 C1008 1.425 . S
C1013 C1010 1.409 . S
C1013 C1011 1.415 . S
C1014 H1004 0.930 . S
C1014 C1012 1.419 . S
C1014 C1015 1.362 . S
C1015 H1005 0.930 . S
C1015 C1008 1.409 . S
C1015 C1014 1.362 . S
H1016 C1022 0.930 . S
H1017 C1025 0.930 . S
H1018 C1026 0.930 . S
H1019 C1027 0.930 . S
H1020 C1030 0.930 . S
H1021 C1031 0.930 . S
C1022 H1016 0.930 . S
C1022 C1023 1.355 . S
C1022 C1024 1.415 . S
C1023 C1022 1.355 . S
C1023 C1025 1.419 . S
C1024 C1022 1.415 . S
C1024 C1029 1.425 . S
C1024 C1031 1.409 . S
C1025 H1017 0.930 . S
C1025 C1023 1.419 . S
C1025 C1026 1.362 . S
C1026 H1018 0.930 . S
C1026 C1025 1.362 . S
C1026 C1029 1.409 . S
C1027 H1019 0.930 . S
C1027 C1028 1.355 . S
C1027 C1029 1.415 . S
C1028 C1027 1.355 . S
C1028 C1030 1.419 . S
C1029 C1024 1.425 . S
C1029 C1026 1.409 . S
C1029 C1027 1.415 . S
C1030 H1020 0.930 . S
C1030 C1028 1.419 . S
C1030 C1031 1.362 . S
C1031 H1021 0.930 . S
C1031 C1024 1.409 . S
C1031 C1030 1.362 . S
H1032 C1038 0.930 . S
H1033 C1041 0.930 . S
H1034 C1042 0.930 . S
H1035 C1043 0.930 . S
H1036 C1046 0.930 . S
H1037 C1047 0.930 . S
C1038 H1032 0.930 . S
C1038 C1039 1.355 . S
C1038 C1040 1.415 . S
C1039 C1038 1.355 . S
C1039 C1041 1.419 . S
C1040 C1038 1.415 . S
C1040 C1045 1.425 . S
C1040 C1047 1.409 . S
C1041 H1033 0.930 . S
C1041 C1039 1.419 . S
C1041 C1042 1.362 . S
C1042 H1034 0.930 . S
C1042 C1041 1.362 . S
C1042 C1045 1.409 . S
C1043 H1035 0.930 . S
C1043 C1044 1.355 . S
C1043 C1045 1.415 . S
C1044 C1043 1.355 . S
C1044 C1046 1.419 . S
C1045 C1040 1.425 . S
C1045 C1042 1.409 . S
C1045 C1043 1.415 . S
C1046 H1036 0.930 . S
C1046 C1044 1.419 . S
C1046 C1047 1.362 . S
C1047 H1037 0.930 . S
C1047 C1040 1.409 . S
C1047 C1046 1.362 . S
H1048 C1054 0.930 . S
H1049 C1057 0.930 . S
H1050 C1058 0.930 . S
H1051 C1059 0.930 . S
H1052 C1062 0.930 . S
H1053 C1063 0.930 . S
C1054 H1048 0.930 . S
C1054 C1055 1.355 . S
C1054 C1056 1.415 . S
C1055 C1054 1.355 . S
C1055 C1057 1.419 . S
C1056 C1054 1.415 . S
C1056 C1061 1.425 . S
C1056 C1063 1.409 . S
C1057 H1049 0.930 . S
C1057 C1055 1.419 . S
C1057 C1058 1.362 . S
C1058 H1050 0.930 . S
C1058 C1057 1.362 . S
C1058 C1061 1.409 . S
C1059 H1051 0.930 . S
C1059 C1060 1.355 . S
C1059 C1061 1.415 . S
C1060 C1059 1.355 . S
C1060 C1062 1.419 . S
C1061 C1056 1.425 . S
C1061 C1058 1.409 . S
C1061 C1059 1.415 . S
C1062 H1052 0.930 . S
C1062 C1060 1.419 . S
C1062 C1063 1.362 . S
C1063 H1053 0.930 . S
C1063 C1056 1.409 . S
C1063 C1062 1.362 . S
H1064 C1070 0.930 . S
H1065 C1073 0.930 . S
H1066 C1074 0.930 . S
H1067 C1075 0.930 . S
H1068 C1078 0.930 . S
H1069 C1079 0.930 . S
C1070 H1064 0.930 . S
C1070 C1071 1.355 . S
C1070 C1072 1.415 . S
C1071 C1070 1.355 . S
C1071 C1073 1.419 . S
C1072 C1070 1.415 . S
C1072 C1077 1.425 . S
C1072 C1079 1.409 . S
C1073 H1065 0.930 . S
C1073 C1071 1.419 . S
C1073 C1074 1.362 . S
C1074 H1066 0.930 . S
C1074 C1073 1.362 . S
C1074 C1077 1.409 . S
C1075 H1067 0.930 . S
C1075 C1076 1.355 . S
C1075 C1077 1.415 . S
C1076 C1075 1.355 . S
C1076 C1078 1.419 . S
C1077 C1072 1.425 . S
C1077 C1074 1.409 . S
C1077 C1075 1.415 . S
C1078 H1068 0.930 . S
C1078 C1076 1.419 . S
C1078 C1079 1.362 . S
C1079 H1069 0.930 . S
C1079 C1072 1.409 . S
C1079 C1078 1.362 . S
H1080 C1086 0.930 . S
H1081 C1089 0.930 . S
H1082 C1090 0.930 . S
H1083 C1091 0.930 . S
H1084 C1094 0.930 . S
H1085 C1095 0.930 . S
C1086 H1080 0.930 . S
C1086 C1087 1.355 . S
C1086 C1088 1.415 . S
C1087 C1086 1.355 . S
C1087 C1089 1.419 . S
C1088 C1086 1.415 . S
C1088 C1093 1.425 . S
C1088 C1095 1.409 1_655 S
C1089 H1081 0.930 . S
C1089 C1087 1.419 . S
C1089 C1090 1.362 . S
C1090 H1082 0.930 . S
C1090 C1089 1.362 . S
C1090 C1093 1.409 . S
C1091 H1083 0.930 . S
C1091 C1092 1.355 . S
C1091 C1093 1.415 1_455 S
C1092 C1091 1.355 . S
C1092 C1094 1.419 . S
C1093 C1088 1.425 . S
C1093 C1090 1.409 . S
C1093 C1091 1.415 1_655 S
C1094 H1084 0.930 . S
C1094 C1092 1.419 . S
C1094 C1095 1.362 . S
C1095 H1085 0.930 . S
C1095 C1088 1.409 1_455 S
C1095 C1094 1.362 . S
H1096 C1102 0.930 . S
H1097 C1105 0.930 . S
H1098 C1106 0.930 . S
H1099 C1107 0.930 . S
H1100 C1110 0.930 . S
H1101 C1111 0.930 . S
C1102 H1096 0.930 . S
C1102 C1103 1.355 . S
C1102 C1104 1.415 . S
C1103 C1102 1.355 . S
C1103 C1105 1.419 . S
C1104 C1102 1.415 . S
C1104 C1109 1.425 . S
C1104 C1111 1.409 . S
C1105 H1097 0.930 . S
C1105 C1103 1.419 . S
C1105 C1106 1.362 . S
C1106 H1098 0.930 . S
C1106 C1105 1.362 . S
C1106 C1109 1.409 . S
C1107 H1099 0.930 . S
C1107 C1108 1.355 . S
C1107 C1109 1.415 . S
C1108 C1107 1.355 . S
C1108 C1110 1.419 . S
C1109 C1104 1.425 . S
C1109 C1106 1.409 . S
C1109 C1107 1.415 . S
C1110 H1100 0.930 . S
C1110 C1108 1.419 . S
C1110 C1111 1.362 . S
C1111 H1101 0.930 . S
C1111 C1104 1.409 . S
C1111 C1110 1.362 . S
H1112 C1118 0.930 . S
H1113 C1121 0.930 . S
H1114 C1122 0.930 . S
H1115 C1123 0.930 . S
H1116 C1126 0.930 . S
H1117 C1127 0.930 . S
C1118 H1112 0.930 . S
C1118 C1119 1.362 . S
C1118 C1120 1.415 . S
C1119 C1118 1.362 . S
C1119 C1121 1.401 1_565 S
C1120 C1118 1.415 . S
C1120 C1125 1.425 1_565 S
C1120 C1127 1.409 . S
C1121 H1113 0.930 . S
C1121 C1119 1.401 1_545 S
C1121 C1122 1.362 . S
C1122 H1114 0.930 . S
C1122 C1121 1.362 . S
C1122 C1125 1.409 . S
C1123 H1115 0.930 . S
C1123 C1124 1.355 . S
C1123 C1125 1.415 . S
C1124 C1123 1.355 . S
C1124 C1126 1.419 1_545 S
C1125 C1120 1.425 1_545 S
C1125 C1122 1.409 . S
C1125 C1123 1.415 . S
C1126 H1116 0.930 . S
C1126 C1124 1.419 1_565 S
C1126 C1127 1.362 . S
C1127 H1117 0.930 . S
C1127 C1120 1.409 . S
C1127 C1126 1.362 . S
H1128 C1134 0.930 . S
H1129 C1137 0.930 . S
H1130 C1138 0.930 . S
H1131 C1139 0.930 . S
H1132 C1142 0.930 . S
H1133 C1143 0.930 . S
C1134 H1128 0.930 . S
C1134 C1135 1.355 . S
C1134 C1136 1.415 . S
C1135 C1134 1.355 . S
C1135 C1137 1.419 . S
C1136 C1134 1.415 . S
C1136 C1141 1.425 . S
C1136 C1143 1.409 . S
C1137 H1129 0.930 . S
C1137 C1135 1.419 . S
C1137 C1138 1.362 . S
C1138 H1130 0.930 . S
C1138 C1137 1.362 . S
C1138 C1141 1.409 . S
C1139 H1131 0.930 . S
C1139 C1140 1.355 . S
C1139 C1141 1.415 . S
C1140 C1139 1.355 . S
C1140 C1142 1.419 . S
C1141 C1136 1.425 . S
C1141 C1138 1.409 . S
C1141 C1139 1.415 . S
C1142 H1132 0.930 . S
C1142 C1140 1.419 . S
C1142 C1143 1.362 . S
C1143 H1133 0.930 . S
C1143 C1136 1.409 . S
C1143 C1142 1.362 . S
H1144 C1150 0.925 1_565 S
H1145 C1153 0.930 . S
H1146 C1154 0.930 . S
H1147 C1155 0.930 . S
H1148 C1158 0.930 . S
H1149 C1159 0.930 1_455 S
C1150 H1144 0.925 1_545 S
C1150 C1151 1.355 1_545 S
C1150 C1152 1.415 . S
C1151 C1150 1.355 1_565 S
C1151 C1153 1.419 . S
C1152 C1150 1.415 . S
C1152 C1157 1.425 . S
C1152 C1159 1.409 . S
C1153 H1145 0.930 . S
C1153 C1151 1.419 . S
C1153 C1154 1.362 1_565 S
C1154 H1146 0.930 . S
C1154 C1153 1.362 1_545 S
C1154 C1157 1.409 . S
C1155 H1147 0.930 . S
C1155 C1156 1.370 . S
C1155 C1157 1.415 . S
C1156 C1155 1.370 . S
C1156 C1158 1.410 1_655 S
C1157 C1152 1.425 . S
C1157 C1154 1.409 . S
C1157 C1155 1.415 . S
C1158 H1148 0.930 . S
C1158 C1156 1.410 1_455 S
C1158 C1159 1.362 1_455 S
C1159 H1149 0.930 1_655 S
C1159 C1152 1.409 . S
C1159 C1158 1.362 1_655 S
H1160 C1166 0.930 . S
H1161 C1169 0.930 . S
H1162 C1170 0.930 . S
H1163 C1171 0.930 . S
H1164 C1174 0.930 . S
H1165 C1175 0.930 . S
C1166 H1160 0.930 . S
C1166 C1167 1.355 . S
C1166 C1168 1.415 . S
C1167 C1166 1.355 . S
C1167 C1169 1.419 . S
C1168 C1166 1.415 . S
C1168 C1173 1.425 . S
C1168 C1175 1.409 . S
C1169 H1161 0.930 . S
C1169 C1167 1.419 . S
C1169 C1170 1.362 . S
C1170 H1162 0.930 . S
C1170 C1169 1.362 . S
C1170 C1173 1.409 . S
C1171 H1163 0.930 . S
C1171 C1172 1.355 . S
C1171 C1173 1.415 . S
C1172 C1171 1.355 . S
C1172 C1174 1.419 . S
C1173 C1168 1.425 . S
C1173 C1170 1.409 . S
C1173 C1171 1.415 . S
C1174 H1164 0.930 . S
C1174 C1172 1.419 . S
C1174 C1175 1.362 . S
C1175 H1165 0.930 . S
C1175 C1168 1.409 . S
C1175 C1174 1.362 . S
H1176 C1182 0.930 . S
H1177 C1185 0.930 . S
H1178 C1186 0.930 . S
H1179 C1187 0.930 . S
H1180 C1190 0.930 . S
H1181 C1191 0.930 . S
C1182 H1176 0.930 . S
C1182 C1183 1.355 . S
C1182 C1184 1.415 . S
C1183 C1182 1.355 . S
C1183 C1185 1.419 . S
C1184 C1182 1.415 . S
C1184 C1189 1.425 . S
C1184 C1191 1.409 . S
C1185 H1177 0.930 . S
C1185 C1183 1.419 . S
C1185 C1186 1.362 . S
C1186 H1178 0.930 . S
C1186 C1185 1.362 . S
C1186 C1189 1.409 . S
C1187 H1179 0.930 . S
C1187 C1188 1.355 . S
C1187 C1189 1.415 . S
C1188 C1187 1.355 . S
C1188 C1190 1.419 . S
C1189 C1184 1.425 . S
C1189 C1186 1.409 . S
C1189 C1187 1.415 . S
C1190 H1180 0.930 . S
C1190 C1188 1.419 . S
C1190 C1191 1.362 . S
C1191 H1181 0.930 . S
C1191 C1184 1.409 . S
C1191 C1190 1.362 . S
H1192 C1198 0.930 . S
H1193 C1201 0.930 . S
H1194 C1202 0.930 . S
H1195 C1203 0.930 . S
H1196 C1206 0.930 . S
H1197 C1207 0.930 . S
C1198 H1192 0.930 . S
C1198 C1199 1.355 . S
C1198 C1200 1.415 . S
C1199 C1198 1.355 . S
C1199 C1201 1.419 . S
C1200 C1198 1.415 . S
C1200 C1205 1.425 . S
C1200 C1207 1.409 . S
C1201 H1193 0.930 . S
C1201 C1199 1.419 . S
C1201 C1202 1.362 . S
C1202 H1194 0.930 . S
C1202 C1201 1.362 . S
C1202 C1205 1.409 . S
C1203 H1195 0.930 . S
C1203 C1204 1.355 . S
C1203 C1205 1.415 . S
C1204 C1203 1.355 . S
C1204 C1206 1.419 . S
C1205 C1200 1.425 . S
C1205 C1202 1.409 . S
C1205 C1203 1.415 . S
C1206 H1196 0.930 . S
C1206 C1204 1.419 . S
C1206 C1207 1.362 . S
C1207 H1197 0.930 . S
C1207 C1200 1.409 . S
C1207 C1206 1.362 . S
H1208 C1214 0.930 . S
H1209 C1217 0.930 . S
H1210 C1218 0.930 . S
H1211 C1219 0.930 . S
H1212 C1222 0.930 . S
H1213 C1223 0.930 1_545 S
C1214 H1208 0.930 . S
C1214 C1215 1.355 . S
C1214 C1216 1.415 . S
C1215 C1214 1.355 . S
C1215 C1217 1.419 . S
C1216 C1214 1.415 . S
C1216 C1221 1.425 . S
C1216 C1223 1.409 . S
C1217 H1209 0.930 . S
C1217 C1215 1.419 . S
C1217 C1218 1.362 . S
C1218 H1210 0.930 . S
C1218 C1217 1.362 . S
C1218 C1221 1.409 . S
C1219 H1211 0.930 . S
C1219 C1220 1.355 1_565 S
C1219 C1221 1.415 . S
C1220 C1219 1.355 1_545 S
C1220 C1222 1.419 . S
C1221 C1216 1.425 . S
C1221 C1218 1.409 . S
C1221 C1219 1.415 . S
C1222 H1212 0.930 . S
C1222 C1220 1.419 . S
C1222 C1223 1.362 1_545 S
C1223 H1213 0.930 1_565 S
C1223 C1216 1.409 . S
C1223 C1222 1.362 1_565 S
H1224 C1230 0.956 . S
H1225 C1233 0.930 . S
H1226 C1234 0.930 . S
H1227 C1235 0.930 . S
H1228 C1238 0.930 . S
H1229 C1239 0.930 . S
C1230 H1224 0.956 . S
C1230 C1231 1.343 1_556 S
C1230 C1232 1.402 1_556 S
C1231 C1230 1.343 1_554 S
C1231 C1233 1.419 . S
C1232 C1230 1.402 1_554 S
C1232 C1237 1.425 . S
C1232 C1239 1.409 1_554 S
C1233 H1225 0.930 . S
C1233 C1231 1.419 . S
C1233 C1234 1.362 . S
C1234 H1226 0.930 . S
C1234 C1233 1.362 . S
C1234 C1237 1.409 . S
C1235 H1227 0.930 . S
C1235 C1236 1.355 . S
C1235 C1237 1.415 . S
C1236 C1235 1.355 . S
C1236 C1238 1.419 1_554 S
C1237 C1232 1.425 . S
C1237 C1234 1.409 . S
C1237 C1235 1.415 . S
C1238 H1228 0.930 . S
C1238 C1236 1.419 1_556 S
C1238 C1239 1.362 . S
C1239 H1229 0.930 . S
C1239 C1232 1.409 1_556 S
C1239 C1238 1.362 . S
H1240 C1246 0.930 . S
H1241 C1249 0.930 . S
H1242 C1250 0.930 . S
H1243 C1251 0.930 . S
H1244 C1254 0.930 . S
H1245 C1255 0.930 . S
C1246 H1240 0.930 . S
C1246 C1247 1.355 . S
C1246 C1248 1.415 . S
C1247 C1246 1.355 . S
C1247 C1249 1.419 . S
C1248 C1246 1.415 . S
C1248 C1253 1.425 . S
C1248 C1255 1.409 . S
C1249 H1241 0.930 . S
C1249 C1247 1.419 . S
C1249 C1250 1.362 . S
C1250 H1242 0.930 . S
C1250 C1249 1.362 . S
C1250 C1253 1.409 . S
C1251 H1243 0.930 . S
C1251 C1252 1.355 . S
C1251 C1253 1.415 . S
C1252 C1251 1.355 . S
C1252 C1254 1.419 . S
C1253 C1248 1.425 . S
C1253 C1250 1.409 . S
C1253 C1251 1.415 . S
C1254 H1244 0.930 . S
C1254 C1252 1.419 . S
C1254 C1255 1.362 . S
C1255 H1245 0.930 . S
C1255 C1248 1.409 . S
C1255 C1254 1.362 . S
H1256 C1262 0.930 . S
H1257 C1265 0.930 . S
H1258 C1266 0.930 . S
H1259 C1267 0.930 . S
H1260 C1270 0.930 . S
H1261 C1271 0.930 . S
C1262 H1256 0.930 . S
C1262 C1263 1.355 . S
C1262 C1264 1.415 . S
C1263 C1262 1.355 . S
C1263 C1265 1.419 . S
C1264 C1262 1.415 . S
C1264 C1269 1.425 . S
C1264 C1271 1.409 . S
C1265 H1257 0.930 . S
C1265 C1263 1.419 . S
C1265 C1266 1.362 . S
C1266 H1258 0.930 . S
C1266 C1265 1.362 . S
C1266 C1269 1.409 . S
C1267 H1259 0.930 . S
C1267 C1268 1.355 . S
C1267 C1269 1.415 . S
C1268 C1267 1.355 . S
C1268 C1270 1.419 . S
C1269 C1264 1.425 . S
C1269 C1266 1.409 . S
C1269 C1267 1.415 . S
C1270 H1260 0.930 . S
C1270 C1268 1.419 . S
C1270 C1271 1.362 . S
C1271 H1261 0.930 . S
C1271 C1264 1.409 . S
C1271 C1270 1.362 . S
H1272 C1278 0.930 . S
H1273 C1281 0.930 . S
H1274 C1282 0.930 . S
H1275 C1283 0.930 . S
H1276 C1286 0.930 . S
H1277 C1287 0.930 . S
C1278 H1272 0.930 . S
C1278 C1279 1.355 . S
C1278 C1280 1.415 . S
C1279 C1278 1.355 . S
C1279 C1281 1.419 . S
C1280 C1278 1.415 . S
C1280 C1285 1.425 . S
C1280 C1287 1.409 . S
C1281 H1273 0.930 . S
C1281 C1279 1.419 . S
C1281 C1282 1.362 . S
C1282 H1274 0.930 . S
C1282 C1281 1.362 . S
C1282 C1285 1.409 . S
C1283 H1275 0.930 . S
C1283 C1284 1.355 . S
C1283 C1285 1.415 . S
C1284 C1283 1.355 . S
C1284 C1286 1.419 . S
C1285 C1280 1.425 . S
C1285 C1282 1.409 . S
C1285 C1283 1.415 . S
C1286 H1276 0.930 . S
C1286 C1284 1.419 . S
C1286 C1287 1.362 . S
C1287 H1277 0.930 . S
C1287 C1280 1.409 . S
C1287 C1286 1.362 . S
H1288 C1294 0.930 . S
H1289 C1297 0.930 . S
H1290 C1298 0.930 . S
H1291 C1299 0.930 . S
H1292 C1302 0.930 . S
H1293 C1303 0.930 . S
C1294 H1288 0.930 . S
C1294 C1295 1.355 . S
C1294 C1296 1.415 . S
C1295 C1294 1.355 . S
C1295 C1297 1.419 . S
C1296 C1294 1.415 . S
C1296 C1301 1.425 . S
C1296 C1303 1.409 . S
C1297 H1289 0.930 . S
C1297 C1295 1.419 . S
C1297 C1298 1.362 . S
C1298 H1290 0.930 . S
C1298 C1297 1.362 . S
C1298 C1301 1.409 . S
C1299 H1291 0.930 . S
C1299 C1300 1.355 . S
C1299 C1301 1.415 . S
C1300 C1299 1.355 . S
C1300 C1302 1.419 . S
C1301 C1296 1.425 . S
C1301 C1298 1.409 . S
C1301 C1299 1.415 . S
C1302 H1292 0.930 . S
C1302 C1300 1.419 . S
C1302 C1303 1.362 . S
C1303 H1293 0.930 . S
C1303 C1296 1.409 . S
C1303 C1302 1.362 . S
H1304 C1310 0.930 . S
H1305 C1313 0.930 . S
H1306 C1314 0.930 . S
H1307 C1315 0.930 . S
H1308 C1318 0.930 . S
H1309 C1319 0.930 . S
C1310 H1304 0.930 . S
C1310 C1311 1.355 . S
C1310 C1312 1.415 . S
C1311 C1310 1.355 . S
C1311 C1313 1.419 . S
C1312 C1310 1.415 . S
C1312 C1317 1.425 . S
C1312 C1319 1.409 . S
C1313 H1305 0.930 . S
C1313 C1311 1.419 . S
C1313 C1314 1.362 . S
C1314 H1306 0.930 . S
C1314 C1313 1.362 . S
C1314 C1317 1.409 . S
C1315 H1307 0.930 . S
C1315 C1316 1.355 . S
C1315 C1317 1.415 . S
C1316 C1315 1.355 . S
C1316 C1318 1.419 . S
C1317 C1312 1.425 . S
C1317 C1314 1.409 . S
C1317 C1315 1.415 . S
C1318 H1308 0.930 . S
C1318 C1316 1.419 . S
C1318 C1319 1.362 . S
C1319 H1309 0.930 . S
C1319 C1312 1.409 . S
C1319 C1318 1.362 . S
H1320 C1326 0.930 . S
H1321 C1329 0.901 1_455 S
H1322 C1330 0.930 . S
H1323 C1331 0.930 . S
H1324 C1334 0.930 . S
H1325 C1335 0.930 . S
C1326 H1320 0.930 . S
C1326 C1327 1.355 . S
C1326 C1328 1.415 . S
C1327 C1326 1.355 . S
C1327 C1329 1.419 . S
C1328 C1326 1.415 . S
C1328 C1333 1.425 . S
C1328 C1335 1.409 . S
C1329 H1321 0.901 1_655 S
C1329 C1327 1.419 . S
C1329 C1330 1.362 . S
C1330 H1322 0.930 . S
C1330 C1329 1.362 . S
C1330 C1333 1.409 . S
C1331 H1323 0.930 . S
C1331 C1332 1.355 . S
C1331 C1333 1.415 . S
C1332 C1331 1.355 . S
C1332 C1334 1.419 . S
C1333 C1328 1.425 . S
C1333 C1330 1.409 . S
C1333 C1331 1.415 . S
C1334 H1324 0.930 . S
C1334 C1332 1.419 . S
C1334 C1335 1.362 . S
C1335 H1325 0.930 . S
C1335 C1328 1.409 . S
C1335 C1334 1.362 . S
H1336 C1342 0.930 . S
H1337 C1345 0.930 . S
H1338 C1346 0.930 . S
H1339 C1347 0.930 1_545 S
H1340 C1350 0.930 . S
H1341 C1351 0.930 . S
C1342 H1336 0.930 . S
C1342 C1343 1.355 . S
C1342 C1344 1.415 . S
C1343 C1342 1.355 . S
C1343 C1345 1.419 . S
C1344 C1342 1.415 . S
C1344 C1349 1.425 . S
C1344 C1351 1.409 . S
C1345 H1337 0.930 . S
C1345 C1343 1.419 . S
C1345 C1346 1.362 . S
C1346 H1338 0.930 . S
C1346 C1345 1.362 . S
C1346 C1349 1.409 . S
C1347 H1339 0.930 1_565 S
C1347 C1348 1.355 . S
C1347 C1349 1.415 . S
C1348 C1347 1.355 . S
C1348 C1350 1.419 . S
C1349 C1344 1.425 . S
C1349 C1346 1.409 . S
C1349 C1347 1.415 . S
C1350 H1340 0.930 . S
C1350 C1348 1.419 . S
C1350 C1351 1.362 . S
C1351 H1341 0.930 . S
C1351 C1344 1.409 . S
C1351 C1350 1.362 . S
H1352 C1358 0.930 . S
H1353 C1361 0.930 . S
H1354 C1362 0.930 . S
H1355 C1363 0.930 . S
H1356 C1366 0.930 . S
H1357 C1367 0.930 . S
C1358 H1352 0.930 . S
C1358 C1359 1.355 . S
C1358 C1360 1.415 . S
C1359 C1358 1.355 . S
C1359 C1361 1.419 . S
C1360 C1358 1.415 . S
C1360 C1365 1.425 . S
C1360 C1367 1.409 . S
C1361 H1353 0.930 . S
C1361 C1359 1.419 . S
C1361 C1362 1.362 . S
C1362 H1354 0.930 . S
C1362 C1361 1.362 . S
C1362 C1365 1.409 . S
C1363 H1355 0.930 . S
C1363 C1364 1.355 . S
C1363 C1365 1.415 . S
C1364 C1363 1.355 . S
C1364 C1366 1.419 . S
C1365 C1360 1.425 . S
C1365 C1362 1.409 . S
C1365 C1363 1.415 . S
C1366 H1356 0.930 . S
C1366 C1364 1.419 . S
C1366 C1367 1.362 . S
C1367 H1357 0.930 . S
C1367 C1360 1.409 . S
C1367 C1366 1.362 . S
H1368 C1374 0.930 . S
H1369 C1377 0.930 . S
H1370 C1378 0.930 . S
H1371 C1379 0.930 . S
H1372 C1382 0.930 . S
H1373 C1383 0.930 . S
C1374 H1368 0.930 . S
C1374 C1375 1.355 . S
C1374 C1376 1.415 . S
C1375 C1374 1.355 . S
C1375 C1377 1.419 . S
C1376 C1374 1.415 . S
C1376 C1381 1.425 . S
C1376 C1383 1.409 . S
C1377 H1369 0.930 . S
C1377 C1375 1.419 . S
C1377 C1378 1.362 . S
C1378 H1370 0.930 . S
C1378 C1377 1.362 . S
C1378 C1381 1.409 . S
C1379 H1371 0.930 . S
C1379 C1380 1.355 . S
C1379 C1381 1.415 . S
C1380 C1379 1.355 . S
C1380 C1382 1.419 . S
C1381 C1376 1.425 . S
C1381 C1378 1.409 . S
C1381 C1379 1.415 . S
C1382 H1372 0.930 . S
C1382 C1380 1.419 . S
C1382 C1383 1.362 . S
C1383 H1373 0.930 . S
C1383 C1376 1.409 . S
C1383 C1382 1.362 . S
H1384 C1390 0.930 . S
H1385 C1393 0.930 . S
H1386 C1394 0.930 . S
H1387 C1395 0.930 . S
H1388 C1398 0.930 . S
H1389 C1399 0.930 . S
C1390 H1384 0.930 . S
C1390 C1391 1.355 . S
C1390 C1392 1.415 . S
C1391 C1390 1.355 . S
C1391 C1393 1.419 . S
C1392 C1390 1.415 . S
C1392 C1397 1.425 . S
C1392 C1399 1.409 . S
C1393 H1385 0.930 . S
C1393 C1391 1.419 . S
C1393 C1394 1.362 . S
C1394 H1386 0.930 . S
C1394 C1393 1.362 . S
C1394 C1397 1.409 . S
C1395 H1387 0.930 . S
C1395 C1396 1.355 . S
C1395 C1397 1.415 . S
C1396 C1395 1.355 . S
C1396 C1398 1.419 . S
C1397 C1392 1.425 . S
C1397 C1394 1.409 . S
C1397 C1395 1.415 . S
C1398 H1388 0.930 . S
C1398 C1396 1.419 . S
C1398 C1399 1.362 . S
C1399 H1389 0.930 . S
C1399 C1392 1.409 . S
C1399 C1398 1.362 . S
H1400 C1406 0.930 . S
H1401 C1409 0.930 . S
H1402 C1410 0.951 . S
H1403 C1411 0.930 . S
H1404 C1414 0.930 . S
H1405 C1415 0.930 . S
C1406 H1400 0.930 . S
C1406 C1407 1.355 . S
C1406 C1408 1.415 . S
C1407 C1406 1.355 . S
C1407 C1409 1.419 . S
C1408 C1406 1.415 . S
C1408 C1413 1.425 . S
C1408 C1415 1.409 . S
C1409 H1401 0.930 . S
C1409 C1407 1.419 . S
C1409 C1410 1.362 . S
C1410 H1402 0.951 . S
C1410 C1409 1.362 . S
C1410 C1413 1.409 . S
C1411 H1403 0.930 . S
C1411 C1412 1.355 . S
C1411 C1413 1.415 . S
C1412 C1411 1.355 . S
C1412 C1414 1.419 . S
C1413 C1408 1.425 . S
C1413 C1410 1.409 . S
C1413 C1411 1.415 . S
C1414 H1404 0.930 . S
C1414 C1412 1.419 . S
C1414 C1415 1.362 . S
C1415 H1405 0.930 . S
C1415 C1408 1.409 . S
C1415 C1414 1.362 . S
H1416 C1422 0.930 . S
H1417 C1425 0.930 . S
H1418 C1426 0.930 . S
H1419 C1427 0.930 . S
H1420 C1430 0.930 . S
H1421 C1431 0.930 . S
C1422 H1416 0.930 . S
C1422 C1423 1.355 . S
C1422 C1424 1.415 . S
C1423 C1422 1.355 . S
C1423 C1425 1.419 . S
C1424 C1422 1.415 . S
C1424 C1429 1.425 . S
C1424 C1431 1.409 . S
C1425 H1417 0.930 . S
C1425 C1423 1.419 . S
C1425 C1426 1.362 . S
C1426 H1418 0.930 . S
C1426 C1425 1.362 . S
C1426 C1429 1.409 . S
C1427 H1419 0.930 . S
C1427 C1428 1.355 . S
C1427 C1429 1.415 . S
C1428 C1427 1.355 . S
C1428 C1430 1.419 . S
C1429 C1424 1.425 . S
C1429 C1426 1.409 . S
C1429 C1427 1.415 . S
C1430 H1420 0.930 . S
C1430 C1428 1.419 . S
C1430 C1431 1.362 . S
C1431 H1421 0.930 . S
C1431 C1424 1.409 . S
C1431 C1430 1.362 . S
H1432 C1438 0.930 . S
H1433 C1441 0.930 . S
H1434 C1442 0.930 . S
H1435 C1443 0.930 1_554 S
H1436 C1446 0.930 . S
H1437 C1447 0.930 . S
C1438 H1432 0.930 . S
C1438 C1439 1.355 . S
C1438 C1440 1.415 . S
C1439 C1438 1.355 . S
C1439 C1441 1.419 . S
C1440 C1438 1.415 . S
C1440 C1445 1.425 . S
C1440 C1447 1.409 . S
C1441 H1433 0.930 . S
C1441 C1439 1.419 . S
C1441 C1442 1.362 . S
C1442 H1434 0.930 . S
C1442 C1441 1.362 . S
C1442 C1445 1.409 . S
C1443 H1435 0.930 1_556 S
C1443 C1444 1.355 . S
C1443 C1445 1.415 . S
C1444 C1443 1.355 . S
C1444 C1446 1.419 . S
C1445 C1440 1.425 . S
C1445 C1442 1.409 . S
C1445 C1443 1.415 . S
C1446 H1436 0.930 . S
C1446 C1444 1.419 . S
C1446 C1447 1.362 . S
C1447 H1437 0.930 . S
C1447 C1440 1.409 . S
C1447 C1446 1.362 . S
H1448 C1454 0.930 . S
H1449 C1457 0.930 . S
H1450 C1458 0.930 . S
H1451 C1459 0.930 . S
H1452 C1462 0.930 . S
H1453 C1463 0.930 . S
C1454 H1448 0.930 . S
C1454 C1455 1.355 . S
C1454 C1456 1.415 . S
C1455 C1454 1.355 . S
C1455 C1457 1.419 . S
C1456 C1454 1.415 . S
C1456 C1461 1.425 . S
C1456 C1463 1.409 . S
C1457 H1449 0.930 . S
C1457 C1455 1.419 . S
C1457 C1458 1.362 . S
C1458 H1450 0.930 . S
C1458 C1457 1.362 . S
C1458 C1461 1.409 . S
C1459 H1451 0.930 . S
C1459 C1460 1.355 . S
C1459 C1461 1.415 . S
C1460 C1459 1.355 . S
C1460 C1462 1.419 . S
C1461 C1456 1.425 . S
C1461 C1458 1.409 . S
C1461 C1459 1.415 . S
C1462 H1452 0.930 . S
C1462 C1460 1.419 . S
C1462 C1463 1.362 . S
C1463 H1453 0.930 . S
C1463 C1456 1.409 . S
C1463 C1462 1.362 . S
H1464 C1470 0.930 . S
H1465 C1473 0.930 . S
H1466 C1474 0.930 . S
H1467 C1475 0.930 . S
H1468 C1478 0.930 1_554 S
H1469 C1479 0.930 . S
C1470 H1464 0.930 . S
C1470 C1471 1.355 . S
C1470 C1472 1.415 . S
C1471 C1470 1.355 . S
C1471 C1473 1.419 . S
C1472 C1470 1.415 . S
C1472 C1477 1.425 . S
C1472 C1479 1.409 . S
C1473 H1465 0.930 . S
C1473 C1471 1.419 . S
C1473 C1474 1.362 . S
C1474 H1466 0.930 . S
C1474 C1473 1.362 . S
C1474 C1477 1.409 . S
C1475 H1467 0.930 . S
C1475 C1476 1.355 . S
C1475 C1477 1.415 . S
C1476 C1475 1.355 . S
C1476 C1478 1.419 . S
C1477 C1472 1.425 . S
C1477 C1474 1.409 . S
C1477 C1475 1.415 . S
C1478 H1468 0.930 1_556 S
C1478 C1476 1.419 . S
C1478 C1479 1.362 . S
C1479 H1469 0.930 . S
C1479 C1472 1.409 . S
C1479 C1478 1.362 . S
H1480 C1486 0.930 . S
H1481 C1489 0.930 . S
H1482 C1490 0.930 . S
H1483 C1491 0.930 . S
H1484 C1494 0.930 . S
H1485 C1495 0.930 . S
C1486 H1480 0.930 . S
C1486 C1487 1.355 . S
C1486 C1488 1.415 . S
C1487 C1486 1.355 . S
C1487 C1489 1.419 . S
C1488 C1486 1.415 . S
C1488 C1493 1.425 . S
C1488 C1495 1.409 . S
C1489 H1481 0.930 . S
C1489 C1487 1.419 . S
C1489 C1490 1.362 . S
C1490 H1482 0.930 . S
C1490 C1489 1.362 . S
C1490 C1493 1.409 . S
C1491 H1483 0.930 . S
C1491 C1492 1.355 . S
C1491 C1493 1.415 . S
C1492 C1491 1.355 . S
C1492 C1494 1.419 . S
C1493 C1488 1.425 . S
C1493 C1490 1.409 . S
C1493 C1491 1.415 . S
C1494 H1484 0.930 . S
C1494 C1492 1.419 . S
C1494 C1495 1.362 . S
C1495 H1485 0.930 . S
C1495 C1488 1.409 . S
C1495 C1494 1.362 . S
H1496 C1502 0.930 . S
H1497 C1505 0.930 . S
H1498 C1506 0.930 . S
H1499 C1507 0.930 . S
H1500 C1510 0.930 . S
H1501 C1511 0.930 . S
C1502 H1496 0.930 . S
C1502 C1503 1.355 . S
C1502 C1504 1.415 . S
C1503 C1502 1.355 . S
C1503 C1505 1.419 . S
C1504 C1502 1.415 . S
C1504 C1509 1.425 . S
C1504 C1511 1.409 . S
C1505 H1497 0.930 . S
C1505 C1503 1.419 . S
C1505 C1506 1.362 . S
C1506 H1498 0.930 . S
C1506 C1505 1.362 . S
C1506 C1509 1.409 . S
C1507 H1499 0.930 . S
C1507 C1508 1.355 . S
C1507 C1509 1.415 . S
C1508 C1507 1.355 . S
C1508 C1510 1.419 . S
C1509 C1504 1.425 . S
C1509 C1506 1.409 . S
C1509 C1507 1.415 . S
C1510 H1500 0.930 . S
C1510 C1508 1.419 . S
C1510 C1511 1.362 . S
C1511 H1501 0.930 . S
C1511 C1504 1.409 . S
C1511 C1510 1.362 . S
H1512 C1518 0.930 . S
H1513 C1521 0.930 . S
H1514 C1522 0.930 . S
H1515 C1523 0.930 . S
H1516 C1526 0.930 . S
H1517 C1527 0.930 . S
C1518 H1512 0.930 . S
C1518 C1519 1.355 . S
C1518 C1520 1.415 . S
C1519 C1518 1.355 . S
C1519 C1521 1.419 . S
C1520 C1518 1.415 . S
C1520 C1525 1.425 . S
C1520 C1527 1.409 . S
C1521 H1513 0.930 . S
C1521 C1519 1.419 . S
C1521 C1522 1.362 . S
C1522 H1514 0.930 . S
C1522 C1521 1.362 . S
C1522 C1525 1.409 . S
C1523 H1515 0.930 . S
C1523 C1524 1.355 . S
C1523 C1525 1.415 . S
C1524 C1523 1.355 . S
C1524 C1526 1.419 . S
C1525 C1520 1.425 . S
C1525 C1522 1.409 . S
C1525 C1523 1.415 . S
C1526 H1516 0.930 . S
C1526 C1524 1.419 . S
C1526 C1527 1.362 . S
C1527 H1517 0.930 . S
C1527 C1520 1.409 . S
C1527 C1526 1.362 . S
H1528 C1534 0.930 . S
H1529 C1537 0.930 . S
H1530 C1538 0.930 . S
H1531 C1539 0.930 . S
H1532 C1542 0.930 1_565 S
H1533 C1543 0.930 . S
C1534 H1528 0.930 . S
C1534 C1535 1.355 . S
C1534 C1536 1.415 . S
C1535 C1534 1.355 . S
C1535 C1537 1.419 . S
C1536 C1534 1.415 . S
C1536 C1541 1.425 . S
C1536 C1543 1.409 . S
C1537 H1529 0.930 . S
C1537 C1535 1.419 . S
C1537 C1538 1.362 . S
C1538 H1530 0.930 . S
C1538 C1537 1.362 . S
C1538 C1541 1.409 . S
C1539 H1531 0.930 . S
C1539 C1540 1.355 . S
C1539 C1541 1.415 . S
C1540 C1539 1.355 . S
C1540 C1542 1.419 . S
C1541 C1536 1.425 . S
C1541 C1538 1.409 . S
C1541 C1539 1.415 . S
C1542 H1532 0.930 1_545 S
C1542 C1540 1.419 . S
C1542 C1543 1.362 . S
C1543 H1533 0.930 . S
C1543 C1536 1.409 . S
C1543 C1542 1.362 . S
H1544 C1550 0.930 . S
H1545 C1553 0.930 . S
H1546 C1554 0.930 . S
H1547 C1555 0.930 . S
H1548 C1558 0.930 . S
H1549 C1559 0.930 . S
C1550 H1544 0.930 . S
C1550 C1551 1.355 . S
C1550 C1552 1.415 . S
C1551 C1550 1.355 . S
C1551 C1553 1.419 . S
C1552 C1550 1.415 . S
C1552 C1557 1.425 . S
C1552 C1559 1.409 . S
C1553 H1545 0.930 . S
C1553 C1551 1.419 . S
C1553 C1554 1.362 . S
C1554 H1546 0.930 . S
C1554 C1553 1.362 . S
C1554 C1557 1.409 . S
C1555 H1547 0.930 . S
C1555 C1556 1.355 . S
C1555 C1557 1.415 . S
C1556 C1555 1.355 . S
C1556 C1558 1.419 . S
C1557 C1552 1.425 . S
C1557 C1554 1.409 . S
C1557 C1555 1.415 . S
C1558 H1548 0.930 . S
C1558 C1556 1.419 . S
C1558 C1559 1.362 . S
C1559 H1549 0.930 . S
C1559 C1552 1.409 . S
C1559 C1558 1.362 . S
H1560 C1566 0.930 . S
H1561 C1569 0.930 . S
H1562 C1570 0.930 . S
H1563 C1571 0.930 . S
H1564 C1574 0.930 . S
H1565 C1575 0.930 . S
C1566 H1560 0.930 . S
C1566 C1567 1.355 . S
C1566 C1568 1.415 . S
C1567 C1566 1.355 . S
C1567 C1569 1.419 . S
C1568 C1566 1.415 . S
C1568 C1573 1.425 . S
C1568 C1575 1.409 . S
C1569 H1561 0.930 . S
C1569 C1567 1.419 . S
C1569 C1570 1.362 . S
C1570 H1562 0.930 . S
C1570 C1569 1.362 . S
C1570 C1573 1.409 . S
C1571 H1563 0.930 . S
C1571 C1572 1.355 . S
C1571 C1573 1.415 . S
C1572 C1571 1.355 . S
C1572 C1574 1.419 . S
C1573 C1568 1.425 . S
C1573 C1570 1.409 . S
C1573 C1571 1.415 . S
C1574 H1564 0.930 . S
C1574 C1572 1.419 . S
C1574 C1575 1.362 . S
C1575 H1565 0.930 . S
C1575 C1568 1.409 . S
C1575 C1574 1.362 . S
H1576 C1582 0.930 . S
H1577 C1585 0.930 . S
H1578 C1586 0.930 . S
H1579 C1587 0.930 . S
H1580 C1590 0.930 . S
H1581 C1591 0.930 . S
C1582 H1576 0.930 . S
C1582 C1583 1.355 . S
C1582 C1584 1.415 . S
C1583 C1582 1.355 . S
C1583 C1585 1.419 . S
C1584 C1582 1.415 . S
C1584 C1589 1.425 . S
C1584 C1591 1.409 . S
C1585 H1577 0.930 . S
C1585 C1583 1.419 . S
C1585 C1586 1.362 . S
C1586 H1578 0.930 . S
C1586 C1585 1.362 . S
C1586 C1589 1.409 . S
C1587 H1579 0.930 . S
C1587 C1588 1.355 . S
C1587 C1589 1.415 . S
C1588 C1587 1.355 . S
C1588 C1590 1.419 . S
C1589 C1584 1.425 . S
C1589 C1586 1.409 . S
C1589 C1587 1.415 . S
C1590 H1580 0.930 . S
C1590 C1588 1.419 . S
C1590 C1591 1.362 . S
C1591 H1581 0.930 . S
C1591 C1584 1.409 . S
C1591 C1590 1.362 . S
H1592 C1598 0.940 . S
H1593 C1601 0.930 . S
H1594 C1602 0.930 . S
H1595 C1603 0.930 . S
H1596 C1606 0.930 . S
H1597 C1607 0.930 . S
C1598 H1592 0.940 . S
C1598 C1599 1.337 1_556 S
C1598 C1600 1.425 . S
C1599 C1598 1.337 1_554 S
C1599 C1601 1.419 . S
C1600 C1598 1.425 . S
C1600 C1605 1.425 . S
C1600 C1607 1.409 . S
C1601 H1593 0.930 . S
C1601 C1599 1.419 . S
C1601 C1602 1.362 . S
C1602 H1594 0.930 . S
C1602 C1601 1.362 . S
C1602 C1605 1.409 1_554 S
C1603 H1595 0.930 . S
C1603 C1604 1.355 . S
C1603 C1605 1.415 . S
C1604 C1603 1.355 . S
C1604 C1606 1.419 . S
C1605 C1600 1.425 . S
C1605 C1602 1.409 1_556 S
C1605 C1603 1.415 . S
C1606 H1596 0.930 . S
C1606 C1604 1.419 . S
C1606 C1607 1.362 . S
C1607 H1597 0.930 . S
C1607 C1600 1.409 . S
C1607 C1606 1.362 . S
H1608 C1614 0.939 . S
H1609 C1617 0.930 . S
H1610 C1618 0.930 . S
H1611 C1619 0.930 . S
H1612 C1622 0.930 1_556 S
H1613 C1623 0.933 1_556 S
C1614 H1608 0.939 . S
C1614 C1615 1.355 . S
C1614 C1616 1.415 . S
C1615 C1614 1.355 . S
C1615 C1617 1.419 . S
C1616 C1614 1.415 . S
C1616 C1621 1.425 . S
C1616 C1623 1.407 . S
C1617 H1609 0.930 . S
C1617 C1615 1.419 . S
C1617 C1618 1.362 . S
C1618 H1610 0.930 . S
C1618 C1617 1.362 . S
C1618 C1621 1.409 . S
C1619 H1611 0.930 . S
C1619 C1620 1.355 . S
C1619 C1621 1.415 . S
C1620 C1619 1.355 . S
C1620 C1622 1.419 . S
C1621 C1616 1.425 . S
C1621 C1618 1.409 . S
C1621 C1619 1.415 . S
C1622 H1612 0.930 1_554 S
C1622 C1620 1.419 . S
C1622 C1623 1.363 . S
C1623 H1613 0.933 1_554 S
C1623 C1616 1.407 . S
C1623 C1622 1.363 . S
H1624 C1630 0.930 . S
H1625 C1633 0.930 . S
H1626 C1634 0.930 . S
H1627 C1635 0.930 . S
H1628 C1638 0.930 . S
H1629 C1639 0.930 . S
C1630 H1624 0.930 . S
C1630 C1631 1.355 . S
C1630 C1632 1.415 . S
C1631 C1630 1.355 . S
C1631 C1633 1.419 . S
C1632 C1630 1.415 . S
C1632 C1637 1.425 . S
C1632 C1639 1.409 . S
C1633 H1625 0.930 . S
C1633 C1631 1.419 . S
C1633 C1634 1.362 . S
C1634 H1626 0.930 . S
C1634 C1633 1.362 . S
C1634 C1637 1.409 . S
C1635 H1627 0.930 . S
C1635 C1636 1.355 . S
C1635 C1637 1.415 . S
C1636 C1635 1.355 . S
C1636 C1638 1.419 . S
C1637 C1632 1.425 . S
C1637 C1634 1.409 . S
C1637 C1635 1.415 . S
C1638 H1628 0.930 . S
C1638 C1636 1.419 . S
C1638 C1639 1.362 . S
C1639 H1629 0.930 . S
C1639 C1632 1.409 . S
C1639 C1638 1.362 . S
H1640 C1646 0.930 . S
H1641 C1649 0.930 . S
H1642 C1650 0.930 . S
H1643 C1651 0.930 . S
H1644 C1654 0.930 . S
H1645 C1655 0.930 . S
C1646 H1640 0.930 . S
C1646 C1647 1.355 . S
C1646 C1648 1.415 . S
C1647 C1646 1.355 . S
C1647 C1649 1.419 . S
C1648 C1646 1.415 . S
C1648 C1653 1.425 . S
C1648 C1655 1.409 . S
C1649 H1641 0.930 . S
C1649 C1647 1.419 . S
C1649 C1650 1.362 . S
C1650 H1642 0.930 . S
C1650 C1649 1.362 . S
C1650 C1653 1.409 . S
C1651 H1643 0.930 . S
C1651 C1652 1.355 . S
C1651 C1653 1.415 . S
C1652 C1651 1.355 . S
C1652 C1654 1.419 . S
C1653 C1648 1.425 . S
C1653 C1650 1.409 . S
C1653 C1651 1.415 . S
C1654 H1644 0.930 . S
C1654 C1652 1.419 . S
C1654 C1655 1.362 . S
C1655 H1645 0.930 . S
C1655 C1648 1.409 . S
C1655 C1654 1.362 . S
H1656 C1662 0.930 . S
H1657 C1665 0.930 . S
H1658 C1666 0.930 . S
H1659 C1667 0.930 . S
H1660 C1670 0.930 . S
H1661 C1671 0.930 . S
C1662 H1656 0.930 . S
C1662 C1663 1.355 . S
C1662 C1664 1.415 . S
C1663 C1662 1.355 . S
C1663 C1665 1.419 . S
C1664 C1662 1.415 . S
C1664 C1669 1.425 . S
C1664 C1671 1.409 . S
C1665 H1657 0.930 . S
C1665 C1663 1.419 . S
C1665 C1666 1.362 . S
C1666 H1658 0.930 . S
C1666 C1665 1.362 . S
C1666 C1669 1.409 . S
C1667 H1659 0.930 . S
C1667 C1668 1.355 . S
C1667 C1669 1.415 . S
C1668 C1667 1.355 . S
C1668 C1670 1.419 . S
C1669 C1664 1.425 . S
C1669 C1666 1.409 . S
C1669 C1667 1.415 . S
C1670 H1660 0.930 . S
C1670 C1668 1.419 . S
C1670 C1671 1.362 . S
C1671 H1661 0.930 . S
C1671 C1664 1.409 . S
C1671 C1670 1.362 . S
H1672 C1678 0.930 . S
H1673 C1681 0.930 . S
H1674 C1682 0.930 . S
H1675 C1683 0.930 . S
H1676 C1686 0.930 1_545 S
H1677 C1687 0.930 . S
C1678 H1672 0.930 . S
C1678 C1679 1.355 . S
C1678 C1680 1.415 . S
C1679 C1678 1.355 . S
C1679 C1681 1.419 . S
C1680 C1678 1.415 . S
C1680 C1685 1.425 . S
C1680 C1687 1.409 . S
C1681 H1673 0.930 . S
C1681 C1679 1.419 . S
C1681 C1682 1.362 . S
C1682 H1674 0.930 . S
C1682 C1681 1.362 . S
C1682 C1685 1.409 . S
C1683 H1675 0.930 . S
C1683 C1684 1.355 . S
C1683 C1685 1.415 . S
C1684 C1683 1.355 . S
C1684 C1686 1.419 . S
C1685 C1680 1.425 . S
C1685 C1682 1.409 . S
C1685 C1683 1.415 . S
C1686 H1676 0.930 1_565 S
C1686 C1684 1.419 . S
C1686 C1687 1.362 . S
C1687 H1677 0.930 . S
C1687 C1680 1.409 . S
C1687 C1686 1.362 . S
H1688 C1694 0.930 . S
H1689 C1697 0.930 . S
H1690 C1698 0.930 . S
H1691 C1699 0.930 . S
H1692 C1702 0.930 . S
H1693 C1703 0.930 . S
C1694 H1688 0.930 . S
C1694 C1695 1.355 . S
C1694 C1696 1.415 . S
C1695 C1694 1.355 . S
C1695 C1697 1.419 . S
C1696 C1694 1.415 . S
C1696 C1701 1.425 . S
C1696 C1703 1.409 . S
C1697 H1689 0.930 . S
C1697 C1695 1.419 . S
C1697 C1698 1.362 . S
C1698 H1690 0.930 . S
C1698 C1697 1.362 . S
C1698 C1701 1.409 . S
C1699 H1691 0.930 . S
C1699 C1700 1.355 . S
C1699 C1701 1.415 . S
C1700 C1699 1.355 . S
C1700 C1702 1.419 . S
C1701 C1696 1.425 . S
C1701 C1698 1.409 . S
C1701 C1699 1.415 . S
C1702 H1692 0.930 . S
C1702 C1700 1.419 . S
C1702 C1703 1.362 . S
C1703 H1693 0.930 . S
C1703 C1696 1.409 . S
C1703 C1702 1.362 . S
H1704 C1710 0.930 . S
H1705 C1713 0.930 . S
H1706 C1714 0.930 . S
H1707 C1715 0.930 . S
H1708 C1718 0.930 . S
H1709 C1719 0.930 . S
C1710 H1704 0.930 . S
C1710 C1711 1.355 . S
C1710 C1712 1.415 . S
C1711 C1710 1.355 . S
C1711 C1713 1.419 . S
C1712 C1710 1.415 . S
C1712 C1717 1.425 . S
C1712 C1719 1.409 . S
C1713 H1705 0.930 . S
C1713 C1711 1.419 . S
C1713 C1714 1.362 . S
C1714 H1706 0.930 . S
C1714 C1713 1.362 . S
C1714 C1717 1.409 . S
C1715 H1707 0.930 . S
C1715 C1716 1.355 . S
C1715 C1717 1.415 . S
C1716 C1715 1.355 . S
C1716 C1718 1.419 . S
C1717 C1712 1.425 . S
C1717 C1714 1.409 . S
C1717 C1715 1.415 . S
C1718 H1708 0.930 . S
C1718 C1716 1.419 . S
C1718 C1719 1.362 . S
C1719 H1709 0.930 . S
C1719 C1712 1.409 . S
C1719 C1718 1.362 . S
H1720 C1726 0.930 . S
H1721 C1729 0.930 . S
H1722 C1730 0.930 . S
H1723 C1731 0.930 . S
H1724 C1734 0.930 . S
H1725 C1735 0.930 . S
C1726 H1720 0.930 . S
C1726 C1727 1.355 . S
C1726 C1728 1.415 . S
C1727 C1726 1.355 . S
C1727 C1729 1.419 . S
C1728 C1726 1.415 . S
C1728 C1733 1.425 . S
C1728 C1735 1.409 . S
C1729 H1721 0.930 . S
C1729 C1727 1.419 . S
C1729 C1730 1.362 . S
C1730 H1722 0.930 . S
C1730 C1729 1.362 . S
C1730 C1733 1.409 . S
C1731 H1723 0.930 . S
C1731 C1732 1.355 . S
C1731 C1733 1.415 . S
C1732 C1731 1.355 . S
C1732 C1734 1.419 . S
C1733 C1728 1.425 . S
C1733 C1730 1.409 . S
C1733 C1731 1.415 . S
C1734 H1724 0.930 . S
C1734 C1732 1.419 . S
C1734 C1735 1.362 . S
C1735 H1725 0.930 . S
C1735 C1728 1.409 . S
C1735 C1734 1.362 . S
H1736 C1742 0.930 . S
H1737 C1745 0.930 . S
H1738 C1746 0.930 . S
H1739 C1747 0.930 . S
H1740 C1750 0.930 . S
H1741 C1751 0.930 . S
C1742 H1736 0.930 . S
C1742 C1743 1.355 . S
C1742 C1744 1.415 . S
C1743 C1742 1.355 . S
C1743 C1745 1.419 . S
C1744 C1742 1.415 . S
C1744 C1749 1.425 . S
C1744 C1751 1.409 . S
C1745 H1737 0.930 . S
C1745 C1743 1.419 . S
C1745 C1746 1.362 . S
C1746 H1738 0.930 . S
C1746 C1745 1.362 . S
C1746 C1749 1.409 . S
C1747 H1739 0.930 . S
C1747 C1748 1.355 . S
C1747 C1749 1.415 . S
C1748 C1747 1.355 . S
C1748 C1750 1.419 . S
C1749 C1744 1.425 . S
C1749 C1746 1.409 . S
C1749 C1747 1.415 . S
C1750 H1740 0.930 . S
C1750 C1748 1.419 . S
C1750 C1751 1.362 . S
C1751 H1741 0.930 . S
C1751 C1744 1.409 . S
C1751 C1750 1.362 . S
H1752 C1758 0.930 . S
H1753 C1761 0.930 . S
H1754 C1762 0.930 . S
H1755 C1763 0.930 . S
H1756 C1766 0.930 . S
H1757 C1767 0.930 . S
C1758 H1752 0.930 . S
C1758 C1759 1.355 1_655 S
C1758 C1760 1.415 . S
C1759 C1758 1.355 1_455 S
C1759 C1761 1.419 . S
C1760 C1758 1.415 . S
C1760 C1765 1.425 1_655 S
C1760 C1767 1.409 . S
C1761 H1753 0.930 . S
C1761 C1759 1.419 . S
C1761 C1762 1.362 . S
C1762 H1754 0.930 . S
C1762 C1761 1.362 . S
C1762 C1765 1.409 . S
C1763 H1755 0.930 . S
C1763 C1764 1.355 . S
C1763 C1765 1.415 . S
C1764 C1763 1.355 . S
C1764 C1766 1.419 1_455 S
C1765 C1760 1.425 1_455 S
C1765 C1762 1.409 . S
C1765 C1763 1.415 . S
C1766 H1756 0.930 . S
C1766 C1764 1.419 1_655 S
C1766 C1767 1.362 . S
C1767 H1757 0.930 . S
C1767 C1760 1.409 . S
C1767 C1766 1.362 . S
H1768 C1774 0.930 . S
H1769 C1777 0.930 . S
H1770 C1778 0.930 . S
H1771 C1779 0.930 . S
H1772 C1782 0.930 . S
H1773 C1783 0.930 1_455 S
C1774 H1768 0.930 . S
C1774 C1775 1.355 . S
C1774 C1776 1.415 . S
C1775 C1774 1.355 . S
C1775 C1777 1.419 . S
C1776 C1774 1.415 . S
C1776 C1781 1.425 . S
C1776 C1783 1.409 1_455 S
C1777 H1769 0.930 . S
C1777 C1775 1.419 . S
C1777 C1778 1.362 . S
C1778 H1770 0.930 . S
C1778 C1777 1.362 . S
C1778 C1781 1.409 . S
C1779 H1771 0.930 . S
C1779 C1780 1.355 . S
C1779 C1781 1.415 1_655 S
C1780 C1779 1.355 . S
C1780 C1782 1.419 . S
C1781 C1776 1.425 . S
C1781 C1778 1.409 . S
C1781 C1779 1.415 1_455 S
C1782 H1772 0.930 . S
C1782 C1780 1.419 . S
C1782 C1783 1.362 . S
C1783 H1773 0.930 1_655 S
C1783 C1776 1.409 1_655 S
C1783 C1782 1.362 . S
H1784 C1790 0.930 . S
H1785 C1793 0.930 . S
H1786 C1794 0.930 . S
H1787 C1795 0.930 . S
H1788 C1798 0.930 . S
H1789 C1799 0.930 . S
C1790 H1784 0.930 . S
C1790 C1791 1.355 . S
C1790 C1792 1.415 . S
C1791 C1790 1.355 . S
C1791 C1793 1.419 . S
C1792 C1790 1.415 . S
C1792 C1797 1.425 . S
C1792 C1799 1.409 . S
C1793 H1785 0.930 . S
C1793 C1791 1.419 . S
C1793 C1794 1.362 . S
C1794 H1786 0.930 . S
C1794 C1793 1.362 . S
C1794 C1797 1.409 . S
C1795 H1787 0.930 . S
C1795 C1796 1.355 . S
C1795 C1797 1.415 . S
C1796 C1795 1.355 . S
C1796 C1798 1.419 . S
C1797 C1792 1.425 . S
C1797 C1794 1.409 . S
C1797 C1795 1.415 . S
C1798 H1788 0.930 . S
C1798 C1796 1.419 . S
C1798 C1799 1.362 . S
C1799 H1789 0.930 . S
C1799 C1792 1.409 . S
C1799 C1798 1.362 . S
H1800 C1806 0.930 . S
H1801 C1809 0.930 . S
H1802 C1810 0.930 . S
H1803 C1811 0.930 . S
H1804 C1814 0.930 . S
H1805 C1815 0.930 . S
C1806 H1800 0.930 . S
C1806 C1807 1.355 . S
C1806 C1808 1.415 . S
C1807 C1806 1.355 . S
C1807 C1809 1.419 . S
C1808 C1806 1.415 . S
C1808 C1813 1.425 . S
C1808 C1815 1.409 . S
C1809 H1801 0.930 . S
C1809 C1807 1.419 . S
C1809 C1810 1.362 . S
C1810 H1802 0.930 . S
C1810 C1809 1.362 . S
C1810 C1813 1.409 . S
C1811 H1803 0.930 . S
C1811 C1812 1.355 . S
C1811 C1813 1.415 . S
C1812 C1811 1.355 . S
C1812 C1814 1.419 . S
C1813 C1808 1.425 . S
C1813 C1810 1.409 . S
C1813 C1811 1.415 . S
C1814 H1804 0.930 . S
C1814 C1812 1.419 . S
C1814 C1815 1.362 . S
C1815 H1805 0.930 . S
C1815 C1808 1.409 . S
C1815 C1814 1.362 . S
H1816 C1822 0.930 . S
H1817 C1825 0.930 . S
H1818 C1826 0.930 . S
H1819 C1827 0.930 . S
H1820 C1830 0.930 1_655 S
H1821 C1831 0.930 1_655 S
C1822 H1816 0.930 . S
C1822 C1823 1.355 . S
C1822 C1824 1.415 . S
C1823 C1822 1.355 . S
C1823 C1825 1.419 . S
C1824 C1822 1.415 . S
C1824 C1829 1.425 . S
C1824 C1831 1.409 . S
C1825 H1817 0.930 . S
C1825 C1823 1.419 . S
C1825 C1826 1.362 . S
C1826 H1818 0.930 . S
C1826 C1825 1.362 . S
C1826 C1829 1.409 . S
C1827 H1819 0.930 . S
C1827 C1828 1.355 . S
C1827 C1829 1.415 . S
C1828 C1827 1.355 . S
C1828 C1830 1.419 . S
C1829 C1824 1.425 . S
C1829 C1826 1.409 . S
C1829 C1827 1.415 . S
C1830 H1820 0.930 1_455 S
C1830 C1828 1.419 . S
C1830 C1831 1.362 . S
C1831 H1821 0.930 1_455 S
C1831 C1824 1.409 . S
C1831 C1830 1.362 . S
H1832 C1838 0.930 . S
H1833 C1841 0.930 . S
H1834 C1842 0.930 . S
H1835 C1843 0.930 . S
H1836 C1846 0.930 . S
H1837 C1847 0.930 . S
C1838 H1832 0.930 . S
C1838 C1839 1.355 . S
C1838 C1840 1.415 . S
C1839 C1838 1.355 . S
C1839 C1841 1.419 . S
C1840 C1838 1.415 . S
C1840 C1845 1.425 . S
C1840 C1847 1.409 . S
C1841 H1833 0.930 . S
C1841 C1839 1.419 . S
C1841 C1842 1.362 . S
C1842 H1834 0.930 . S
C1842 C1841 1.362 . S
C1842 C1845 1.409 . S
C1843 H1835 0.930 . S
C1843 C1844 1.355 . S
C1843 C1845 1.415 . S
C1844 C1843 1.355 . S
C1844 C1846 1.419 . S
C1845 C1840 1.425 . S
C1845 C1842 1.409 . S
C1845 C1843 1.415 . S
C1846 H1836 0.930 . S
C1846 C1844 1.419 . S
C1846 C1847 1.362 . S
C1847 H1837 0.930 . S
C1847 C1840 1.409 . S
C1847 C1846 1.362 . S
H1848 C1854 0.930 . S
H1849 C1857 0.930 . S
H1850 C1858 0.930 . S
H1851 C1859 0.930 . S
H1852 C1862 0.930 . S
H1853 C1863 0.930 . S
C1854 H1848 0.930 . S
C1854 C1855 1.355 . S
C1854 C1856 1.415 . S
C1855 C1854 1.355 . S
C1855 C1857 1.419 . S
C1856 C1854 1.415 . S
C1856 C1861 1.425 . S
C1856 C1863 1.409 . S
C1857 H1849 0.930 . S
C1857 C1855 1.419 . S
C1857 C1858 1.362 . S
C1858 H1850 0.930 . S
C1858 C1857 1.362 . S
C1858 C1861 1.409 . S
C1859 H1851 0.930 . S
C1859 C1860 1.355 . S
C1859 C1861 1.415 . S
C1860 C1859 1.355 . S
C1860 C1862 1.419 . S
C1861 C1856 1.425 . S
C1861 C1858 1.409 . S
C1861 C1859 1.415 . S
C1862 H1852 0.930 . S
C1862 C1860 1.419 . S
C1862 C1863 1.362 . S
C1863 H1853 0.930 . S
C1863 C1856 1.409 . S
C1863 C1862 1.362 . S
H1864 C1870 0.930 . S
H1865 C1873 0.930 . S
H1866 C1874 0.930 . S
H1867 C1875 0.930 . S
H1868 C1878 0.930 . S
H1869 C1879 0.930 . S
C1870 H1864 0.930 . S
C1870 C1871 1.355 . S
C1870 C1872 1.415 . S
C1871 C1870 1.355 . S
C1871 C1873 1.419 . S
C1872 C1870 1.415 . S
C1872 C1877 1.425 . S
C1872 C1879 1.409 . S
C1873 H1865 0.930 . S
C1873 C1871 1.419 . S
C1873 C1874 1.362 . S
C1874 H1866 0.930 . S
C1874 C1873 1.362 . S
C1874 C1877 1.409 . S
C1875 H1867 0.930 . S
C1875 C1876 1.355 . S
C1875 C1877 1.415 . S
C1876 C1875 1.355 . S
C1876 C1878 1.419 . S
C1877 C1872 1.425 . S
C1877 C1874 1.409 . S
C1877 C1875 1.415 . S
C1878 H1868 0.930 . S
C1878 C1876 1.419 . S
C1878 C1879 1.362 . S
C1879 H1869 0.930 . S
C1879 C1872 1.409 . S
C1879 C1878 1.362 . S
H1880 C1886 0.930 . S
H1881 C1889 0.930 . S
H1882 C1890 0.930 . S
H1883 C1891 0.930 . S
H1884 C1894 0.930 . S
H1885 C1895 0.930 . S
C1886 H1880 0.930 . S
C1886 C1887 1.355 . S
C1886 C1888 1.415 . S
C1887 C1886 1.355 . S
C1887 C1889 1.419 . S
C1888 C1886 1.415 . S
C1888 C1893 1.425 . S
C1888 C1895 1.409 . S
C1889 H1881 0.930 . S
C1889 C1887 1.419 . S
C1889 C1890 1.362 . S
C1890 H1882 0.930 . S
C1890 C1889 1.362 . S
C1890 C1893 1.409 . S
C1891 H1883 0.930 . S
C1891 C1892 1.355 . S
C1891 C1893 1.415 . S
C1892 C1891 1.355 . S
C1892 C1894 1.419 . S
C1893 C1888 1.425 . S
C1893 C1890 1.409 . S
C1893 C1891 1.415 . S
C1894 H1884 0.930 . S
C1894 C1892 1.419 . S
C1894 C1895 1.362 . S
C1895 H1885 0.930 . S
C1895 C1888 1.409 . S
C1895 C1894 1.362 . S
H1896 C1902 0.930 . S
H1897 C1905 0.930 . S
H1898 C1906 0.930 . S
H1899 C1907 0.930 . S
H1900 C1910 0.930 . S
H1901 C1911 0.930 . S
C1902 H1896 0.930 . S
C1902 C1903 1.355 . S
C1902 C1904 1.415 . S
C1903 C1902 1.355 . S
C1903 C1905 1.419 . S
C1904 C1902 1.415 . S
C1904 C1909 1.425 . S
C1904 C1911 1.409 . S
C1905 H1897 0.930 . S
C1905 C1903 1.419 . S
C1905 C1906 1.362 . S
C1906 H1898 0.930 . S
C1906 C1905 1.362 . S
C1906 C1909 1.409 . S
C1907 H1899 0.930 . S
C1907 C1908 1.355 . S
C1907 C1909 1.415 . S
C1908 C1907 1.355 . S
C1908 C1910 1.419 . S
C1909 C1904 1.425 . S
C1909 C1906 1.409 . S
C1909 C1907 1.415 . S
C1910 H1900 0.930 . S
C1910 C1908 1.419 . S
C1910 C1911 1.362 . S
C1911 H1901 0.930 . S
C1911 C1904 1.409 . S
C1911 C1910 1.362 . S
H1912 C1918 0.930 . S
H1913 C1921 0.930 . S
H1914 C1922 0.930 . S
H1915 C1923 0.930 . S
H1916 C1926 0.930 . S
H1917 C1927 0.930 . S
C1918 H1912 0.930 . S
C1918 C1919 1.355 . S
C1918 C1920 1.415 . S
C1919 C1918 1.355 . S
C1919 C1921 1.419 . S
C1920 C1918 1.415 . S
C1920 C1925 1.425 . S
C1920 C1927 1.409 . S
C1921 H1913 0.930 . S
C1921 C1919 1.419 . S
C1921 C1922 1.362 . S
C1922 H1914 0.930 . S
C1922 C1921 1.362 . S
C1922 C1925 1.409 . S
C1923 H1915 0.930 . S
C1923 C1924 1.355 . S
C1923 C1925 1.415 . S
C1924 C1923 1.355 . S
C1924 C1926 1.419 . S
C1925 C1920 1.425 . S
C1925 C1922 1.409 . S
C1925 C1923 1.415 . S
C1926 H1916 0.930 . S
C1926 C1924 1.419 . S
C1926 C1927 1.362 . S
C1927 H1917 0.930 . S
C1927 C1920 1.409 . S
C1927 C1926 1.362 . S
H1928 C1934 0.930 . S
H1929 C1937 0.930 . S
H1930 C1938 0.930 . S
H1931 C1939 0.930 . S
H1932 C1942 0.930 . S
H1933 C1943 0.930 . S
C1934 H1928 0.930 . S
C1934 C1935 1.355 . S
C1934 C1936 1.415 . S
C1935 C1934 1.355 . S
C1935 C1937 1.419 . S
C1936 C1934 1.415 . S
C1936 C1941 1.425 . S
C1936 C1943 1.409 . S
C1937 H1929 0.930 . S
C1937 C1935 1.419 . S
C1937 C1938 1.362 . S
C1938 H1930 0.930 . S
C1938 C1937 1.362 . S
C1938 C1941 1.409 . S
C1939 H1931 0.930 . S
C1939 C1940 1.355 . S
C1939 C1941 1.415 . S
C1940 C1939 1.355 . S
C1940 C1942 1.419 . S
C1941 C1936 1.425 . S
C1941 C1938 1.409 . S
C1941 C1939 1.415 . S
C1942 H1932 0.930 . S
C1942 C1940 1.419 . S
C1942 C1943 1.362 . S
C1943 H1933 0.930 . S
C1943 C1936 1.409 . S
C1943 C1942 1.362 . S
H1944 C1950 0.930 . S
H1945 C1953 0.930 . S
H1946 C1954 0.930 . S
H1947 C1955 0.930 . S
H1948 C1958 0.930 . S
H1949 C1959 0.930 . S
C1950 H1944 0.930 . S
C1950 C1951 1.355 . S
C1950 C1952 1.415 . S
C1951 C1950 1.355 . S
C1951 C1953 1.419 . S
C1952 C1950 1.415 . S
C1952 C1957 1.425 . S
C1952 C1959 1.409 . S
C1953 H1945 0.930 . S
C1953 C1951 1.419 . S
C1953 C1954 1.362 . S
C1954 H1946 0.930 . S
C1954 C1953 1.362 . S
C1954 C1957 1.409 . S
C1955 H1947 0.930 . S
C1955 C1956 1.355 . S
C1955 C1957 1.415 . S
C1956 C1955 1.355 . S
C1956 C1958 1.419 . S
C1957 C1952 1.425 . S
C1957 C1954 1.409 . S
C1957 C1955 1.415 . S
C1958 H1948 0.930 . S
C1958 C1956 1.419 . S
C1958 C1959 1.362 . S
C1959 H1949 0.930 . S
C1959 C1952 1.409 . S
C1959 C1958 1.362 . S
H1960 C1966 0.930 . S
H1961 C1969 0.930 . S
H1962 C1970 0.930 . S
H1963 C1971 0.930 . S
H1964 C1974 0.930 . S
H1965 C1975 0.930 . S
C1966 H1960 0.930 . S
C1966 C1967 1.355 . S
C1966 C1968 1.415 . S
C1967 C1966 1.355 . S
C1967 C1969 1.419 . S
C1968 C1966 1.415 . S
C1968 C1973 1.425 . S
C1968 C1975 1.409 . S
C1969 H1961 0.930 . S
C1969 C1967 1.419 . S
C1969 C1970 1.362 . S
C1970 H1962 0.930 . S
C1970 C1969 1.362 . S
C1970 C1973 1.409 . S
C1971 H1963 0.930 . S
C1971 C1972 1.355 . S
C1971 C1973 1.415 . S
C1972 C1971 1.355 . S
C1972 C1974 1.419 . S
C1973 C1968 1.425 . S
C1973 C1970 1.409 . S
C1973 C1971 1.415 . S
C1974 H1964 0.930 . S
C1974 C1972 1.419 . S
C1974 C1975 1.362 . S
C1975 H1965 0.930 . S
C1975 C1968 1.409 . S
C1975 C1974 1.362 . S
H1976 C1982 0.930 . S
H1977 C1985 0.930 . S
H1978 C1986 0.930 . S
H1979 C1987 0.930 . S
H1980 C1990 0.930 . S
H1981 C1991 0.930 . S
C1982 H1976 0.930 . S
C1982 C1983 1.355 . S
C1982 C1984 1.415 . S
C1983 C1982 1.355 . S
C1983 C1985 1.419 . S
C1984 C1982 1.415 . S
C1984 C1989 1.425 . S
C1984 C1991 1.409 . S
C1985 H1977 0.930 . S
C1985 C1983 1.419 . S
C1985 C1986 1.362 . S
C1986 H1978 0.930 . S
C1986 C1985 1.362 . S
C1986 C1989 1.409 . S
C1987 H1979 0.930 . S
C1987 C1988 1.355 . S
C1987 C1989 1.415 . S
C1988 C1987 1.355 . S
C1988 C1990 1.419 . S
C1989 C1984 1.425 . S
C1989 C1986 1.409 . S
C1989 C1987 1.415 . S
C1990 H1980 0.930 . S
C1990 C1988 1.419 . S
C1990 C1991 1.362 . S
C1991 H1981 0.930 . S
C1991 C1984 1.409 . S
C1991 C1990 1.362 . S
H1992 C1998 0.930 . S
H1993 C2001 0.930 . S
H1994 C2002 0.930 . S
H1995 C2003 0.930 . S
H1996 C2006 0.930 . S
H1997 C2007 0.930 . S
C1998 H1992 0.930 . S
C1998 C1999 1.355 . S
C1998 C2000 1.415 . S
C1999 C1998 1.355 . S
C1999 C2001 1.419 . S
C2000 C1998 1.415 . S
C2000 C2005 1.425 . S
C2000 C2007 1.409 . S
C2001 H1993 0.930 . S
C2001 C1999 1.419 . S
C2001 C2002 1.362 . S
C2002 H1994 0.930 . S
C2002 C2001 1.362 . S
C2002 C2005 1.409 . S
C2003 H1995 0.930 . S
C2003 C2004 1.355 . S
C2003 C2005 1.415 . S
C2004 C2003 1.355 . S
C2004 C2006 1.419 . S
C2005 C2000 1.425 . S
C2005 C2002 1.409 . S
C2005 C2003 1.415 . S
C2006 H1996 0.930 . S
C2006 C2004 1.419 . S
C2006 C2007 1.362 . S
C2007 H1997 0.930 . S
C2007 C2000 1.409 . S
C2007 C2006 1.362 . S
H2008 C2014 0.930 . S
H2009 C2017 0.930 . S
H2010 C2018 0.930 . S
H2011 C2019 0.930 . S
H2012 C2022 0.930 . S
H2013 C2023 0.930 1_545 S
C2014 H2008 0.930 . S
C2014 C2015 1.355 . S
C2014 C2016 1.415 1_545 S
C2015 C2014 1.355 . S
C2015 C2017 1.419 1_545 S
C2016 C2014 1.415 1_565 S
C2016 C2021 1.425 . S
C2016 C2023 1.409 . S
C2017 H2009 0.930 . S
C2017 C2015 1.419 1_565 S
C2017 C2018 1.362 . S
C2018 H2010 0.930 . S
C2018 C2017 1.362 . S
C2018 C2021 1.409 . S
C2019 H2011 0.930 . S
C2019 C2020 1.355 . S
C2019 C2021 1.415 . S
C2020 C2019 1.355 . S
C2020 C2022 1.419 . S
C2021 C2016 1.425 . S
C2021 C2018 1.409 . S
C2021 C2019 1.415 . S
C2022 H2012 0.930 . S
C2022 C2020 1.419 . S
C2022 C2023 1.362 . S
C2023 H2013 0.930 1_565 S
C2023 C2016 1.409 . S
C2023 C2022 1.362 . S
H2024 C2030 0.930 . S
H2025 C2033 0.930 . S
H2026 C2034 0.930 . S
H2027 C2035 0.930 . S
H2028 C2038 0.930 . S
H2029 C2039 0.930 . S
C2030 H2024 0.930 . S
C2030 C2031 1.355 . S
C2030 C2032 1.415 . S
C2031 C2030 1.355 . S
C2031 C2033 1.419 . S
C2032 C2030 1.415 . S
C2032 C2037 1.425 . S
C2032 C2039 1.409 . S
C2033 H2025 0.930 . S
C2033 C2031 1.419 . S
C2033 C2034 1.362 . S
C2034 H2026 0.930 . S
C2034 C2033 1.362 . S
C2034 C2037 1.409 . S
C2035 H2027 0.930 . S
C2035 C2036 1.355 1_565 S
C2035 C2037 1.415 . S
C2036 C2035 1.355 1_545 S
C2036 C2038 1.419 . S
C2037 C2032 1.425 . S
C2037 C2034 1.409 . S
C2037 C2035 1.415 . S
C2038 H2028 0.930 . S
C2038 C2036 1.419 . S
C2038 C2039 1.362 1_545 S
C2039 H2029 0.930 . S
C2039 C2032 1.409 . S
C2039 C2038 1.362 1_565 S
H2040 C2046 0.930 . S
H2041 C2049 0.930 . S
H2042 C2050 0.930 . S
H2043 C2051 0.930 . S
H2044 C2054 0.930 . S
H2045 C2055 0.930 . S
C2046 H2040 0.930 . S
C2046 C2047 1.355 . S
C2046 C2048 1.415 . S
C2047 C2046 1.355 . S
C2047 C2049 1.419 . S
C2048 C2046 1.415 . S
C2048 C2053 1.425 . S
C2048 C2055 1.409 . S
C2049 H2041 0.930 . S
C2049 C2047 1.419 . S
C2049 C2050 1.362 . S
C2050 H2042 0.930 . S
C2050 C2049 1.362 . S
C2050 C2053 1.409 . S
C2051 H2043 0.930 . S
C2051 C2052 1.355 . S
C2051 C2053 1.415 . S
C2052 C2051 1.355 . S
C2052 C2054 1.419 . S
C2053 C2048 1.425 . S
C2053 C2050 1.409 . S
C2053 C2051 1.415 . S
C2054 H2044 0.930 . S
C2054 C2052 1.419 . S
C2054 C2055 1.362 . S
C2055 H2045 0.930 . S
C2055 C2048 1.409 . S
C2055 C2054 1.362 . S
H2056 C2062 0.930 . S
H2057 C2065 0.930 . S
H2058 C2066 0.930 . S
H2059 C2067 0.930 . S
H2060 C2070 0.930 . S
H2061 C2071 0.930 . S
C2062 H2056 0.930 . S
C2062 C2063 1.355 . S
C2062 C2064 1.415 . S
C2063 C2062 1.355 . S
C2063 C2065 1.419 . S
C2064 C2062 1.415 . S
C2064 C2069 1.425 . S
C2064 C2071 1.409 . S
C2065 H2057 0.930 . S
C2065 C2063 1.419 . S
C2065 C2066 1.362 . S
C2066 H2058 0.930 . S
C2066 C2065 1.362 . S
C2066 C2069 1.409 . S
C2067 H2059 0.930 . S
C2067 C2068 1.355 . S
C2067 C2069 1.415 . S
C2068 C2067 1.355 . S
C2068 C2070 1.419 . S
C2069 C2064 1.425 . S
C2069 C2066 1.409 . S
C2069 C2067 1.415 . S
C2070 H2060 0.930 . S
C2070 C2068 1.419 . S
C2070 C2071 1.362 . S
C2071 H2061 0.930 . S
C2071 C2064 1.409 . S
C2071 C2070 1.362 . S
H2072 C2078 0.930 . S
H2073 C2081 0.930 . S
H2074 C2082 0.930 . S
H2075 C2083 0.930 . S
H2076 C2086 0.930 . S
H2077 C2087 0.930 . S
C2078 H2072 0.930 . S
C2078 C2079 1.355 . S
C2078 C2080 1.415 . S
C2079 C2078 1.355 . S
C2079 C2081 1.419 . S
C2080 C2078 1.415 . S
C2080 C2085 1.425 . S
C2080 C2087 1.409 . S
C2081 H2073 0.930 . S
C2081 C2079 1.419 . S
C2081 C2082 1.362 . S
C2082 H2074 0.930 . S
C2082 C2081 1.362 . S
C2082 C2085 1.409 . S
C2083 H2075 0.930 . S
C2083 C2084 1.355 . S
C2083 C2085 1.415 . S
C2084 C2083 1.355 . S
C2084 C2086 1.419 . S
C2085 C2080 1.425 . S
C2085 C2082 1.409 . S
C2085 C2083 1.415 . S
C2086 H2076 0.930 . S
C2086 C2084 1.419 . S
C2086 C2087 1.362 . S
C2087 H2077 0.930 . S
C2087 C2080 1.409 . S
C2087 C2086 1.362 . S
H2088 C2094 0.930 . S
H2089 C2097 0.930 . S
H2090 C2098 0.930 . S
H2091 C2099 0.930 . S
H2092 C2102 0.930 . S
H2093 C2103 0.910 1_545 S
C2094 H2088 0.930 . S
C2094 C2095 1.355 . S
C2094 C2096 1.415 1_545 S
C2095 C2094 1.355 . S
C2095 C2097 1.419 1_545 S
C2096 C2094 1.415 1_565 S
C2096 C2101 1.425 . S
C2096 C2103 1.409 . S
C2097 H2089 0.930 . S
C2097 C2095 1.419 1_565 S
C2097 C2098 1.362 . S
C2098 H2090 0.930 . S
C2098 C2097 1.362 . S
C2098 C2101 1.409 . S
C2099 H2091 0.930 . S
C2099 C2100 1.355 . S
C2099 C2101 1.415 . S
C2100 C2099 1.355 . S
C2100 C2102 1.419 . S
C2101 C2096 1.425 . S
C2101 C2098 1.409 . S
C2101 C2099 1.415 . S
C2102 H2092 0.930 . S
C2102 C2100 1.419 . S
C2102 C2103 1.362 . S
C2103 H2093 0.910 1_565 S
C2103 C2096 1.409 . S
C2103 C2102 1.362 . S
H2104 C2110 0.930 . S
H2105 C2113 0.930 . S
H2106 C2114 0.930 . S
H2107 C2115 0.930 . S
H2108 C2118 0.930 . S
H2109 C2119 0.930 . S
C2110 H2104 0.930 . S
C2110 C2111 1.355 . S
C2110 C2112 1.415 . S
C2111 C2110 1.355 . S
C2111 C2113 1.419 . S
C2112 C2110 1.415 . S
C2112 C2117 1.425 . S
C2112 C2119 1.409 . S
C2113 H2105 0.930 . S
C2113 C2111 1.419 . S
C2113 C2114 1.362 . S
C2114 H2106 0.930 . S
C2114 C2113 1.362 . S
C2114 C2117 1.409 . S
C2115 H2107 0.930 . S
C2115 C2116 1.355 . S
C2115 C2117 1.415 . S
C2116 C2115 1.355 . S
C2116 C2118 1.419 . S
C2117 C2112 1.425 . S
C2117 C2114 1.409 . S
C2117 C2115 1.415 . S
C2118 H2108 0.930 . S
C2118 C2116 1.419 . S
C2118 C2119 1.362 . S
C2119 H2109 0.930 . S
C2119 C2112 1.409 . S
C2119 C2118 1.362 . S
H2120 C2126 0.930 . S
H2121 C2129 0.930 . S
H2122 C2130 0.930 . S
H2123 C2131 0.930 . S
H2124 C2134 0.930 . S
H2125 C2135 0.930 . S
C2126 H2120 0.930 . S
C2126 C2127 1.355 . S
C2126 C2128 1.415 . S
C2127 C2126 1.355 . S
C2127 C2129 1.419 . S
C2128 C2126 1.415 . S
C2128 C2133 1.425 . S
C2128 C2135 1.409 . S
C2129 H2121 0.930 . S
C2129 C2127 1.419 . S
C2129 C2130 1.362 . S
C2130 H2122 0.930 . S
C2130 C2129 1.362 . S
C2130 C2133 1.409 . S
C2131 H2123 0.930 . S
C2131 C2132 1.355 . S
C2131 C2133 1.415 . S
C2132 C2131 1.355 . S
C2132 C2134 1.419 . S
C2133 C2128 1.425 . S
C2133 C2130 1.409 . S
C2133 C2131 1.415 . S
C2134 H2124 0.930 . S
C2134 C2132 1.419 . S
C2134 C2135 1.362 . S
C2135 H2125 0.930 . S
C2135 C2128 1.409 . S
C2135 C2134 1.362 . S
H2136 C2142 0.930 . S
H2137 C2145 0.930 . S
H2138 C2146 0.930 . S
H2139 C2147 0.930 . S
H2140 C2150 0.930 . S
H2141 C2151 0.930 . S
C2142 H2136 0.930 . S
C2142 C2143 1.355 . S
C2142 C2144 1.415 . S
C2143 C2142 1.355 . S
C2143 C2145 1.419 . S
C2144 C2142 1.415 . S
C2144 C2149 1.425 . S
C2144 C2151 1.409 . S
C2145 H2137 0.930 . S
C2145 C2143 1.419 . S
C2145 C2146 1.362 . S
C2146 H2138 0.930 . S
C2146 C2145 1.362 . S
C2146 C2149 1.409 . S
C2147 H2139 0.930 . S
C2147 C2148 1.355 . S
C2147 C2149 1.415 . S
C2148 C2147 1.355 . S
C2148 C2150 1.419 . S
C2149 C2144 1.425 . S
C2149 C2146 1.409 . S
C2149 C2147 1.415 . S
C2150 H2140 0.930 . S
C2150 C2148 1.419 . S
C2150 C2151 1.362 . S
C2151 H2141 0.930 . S
C2151 C2144 1.409 . S
C2151 C2150 1.362 . S
H2152 C2158 0.930 . S
H2153 C2161 0.930 . S
H2154 C2162 0.930 . S
H2155 C2163 0.930 . S
H2156 C2166 0.930 . S
H2157 C2167 0.930 . S
C2158 H2152 0.930 . S
C2158 C2159 1.355 . S
C2158 C2160 1.415 . S
C2159 C2158 1.355 . S
C2159 C2161 1.419 . S
C2160 C2158 1.415 . S
C2160 C2165 1.425 . S
C2160 C2167 1.409 . S
C2161 H2153 0.930 . S
C2161 C2159 1.419 . S
C2161 C2162 1.362 . S
C2162 H2154 0.930 . S
C2162 C2161 1.362 . S
C2162 C2165 1.409 . S
C2163 H2155 0.930 . S
C2163 C2164 1.355 . S
C2163 C2165 1.415 . S
C2164 C2163 1.355 . S
C2164 C2166 1.419 . S
C2165 C2160 1.425 . S
C2165 C2162 1.409 . S
C2165 C2163 1.415 . S
C2166 H2156 0.930 . S
C2166 C2164 1.419 . S
C2166 C2167 1.362 . S
C2167 H2157 0.930 . S
C2167 C2160 1.409 . S
C2167 C2166 1.362 . S
H2168 C2174 0.930 . S
H2169 C2177 0.930 . S
H2170 C2178 0.930 . S
H2171 C2179 0.930 . S
H2172 C2182 0.930 . S
H2173 C2183 0.930 . S
C2174 H2168 0.930 . S
C2174 C2175 1.355 . S
C2174 C2176 1.415 . S
C2175 C2174 1.355 . S
C2175 C2177 1.419 . S
C2176 C2174 1.415 . S
C2176 C2181 1.425 . S
C2176 C2183 1.409 . S
C2177 H2169 0.930 . S
C2177 C2175 1.419 . S
C2177 C2178 1.362 . S
C2178 H2170 0.930 . S
C2178 C2177 1.362 . S
C2178 C2181 1.409 . S
C2179 H2171 0.930 . S
C2179 C2180 1.355 . S
C2179 C2181 1.415 . S
C2180 C2179 1.355 . S
C2180 C2182 1.419 . S
C2181 C2176 1.425 . S
C2181 C2178 1.409 . S
C2181 C2179 1.415 . S
C2182 H2172 0.930 . S
C2182 C2180 1.419 . S
C2182 C2183 1.362 . S
C2183 H2173 0.930 . S
C2183 C2176 1.409 . S
C2183 C2182 1.362 . S
H2184 C2190 0.930 . S
H2185 C2193 0.930 . S
H2186 C2194 0.930 . S
H2187 C2195 0.930 . S
H2188 C2198 0.930 . S
H2189 C2199 0.930 . S
C2190 H2184 0.930 . S
C2190 C2191 1.355 . S
C2190 C2192 1.415 . S
C2191 C2190 1.355 . S
C2191 C2193 1.419 . S
C2192 C2190 1.415 . S
C2192 C2197 1.425 . S
C2192 C2199 1.409 . S
C2193 H2185 0.930 . S
C2193 C2191 1.419 . S
C2193 C2194 1.362 . S
C2194 H2186 0.930 . S
C2194 C2193 1.362 . S
C2194 C2197 1.409 . S
C2195 H2187 0.930 . S
C2195 C2196 1.355 . S
C2195 C2197 1.415 . S
C2196 C2195 1.355 . S
C2196 C2198 1.419 . S
C2197 C2192 1.425 . S
C2197 C2194 1.409 . S
C2197 C2195 1.415 . S
C2198 H2188 0.930 . S
C2198 C2196 1.419 . S
C2198 C2199 1.362 . S
C2199 H2189 0.930 . S
C2199 C2192 1.409 . S
C2199 C2198 1.362 . S
H2200 C2206 0.930 . S
H2201 C2209 0.930 . S
H2202 C2210 0.930 . S
H2203 C2211 0.930 . S
H2204 C2214 0.930 . S
H2205 C2215 0.930 . S
C2206 H2200 0.930 . S
C2206 C2207 1.355 . S
C2206 C2208 1.415 . S
C2207 C2206 1.355 . S
C2207 C2209 1.419 . S
C2208 C2206 1.415 . S
C2208 C2213 1.425 . S
C2208 C2215 1.409 . S
C2209 H2201 0.930 . S
C2209 C2207 1.419 . S
C2209 C2210 1.362 . S
C2210 H2202 0.930 . S
C2210 C2209 1.362 . S
C2210 C2213 1.409 . S
C2211 H2203 0.930 . S
C2211 C2212 1.355 . S
C2211 C2213 1.415 . S
C2212 C2211 1.355 . S
C2212 C2214 1.419 . S
C2213 C2208 1.425 . S
C2213 C2210 1.409 . S
C2213 C2211 1.415 . S
C2214 H2204 0.930 . S
C2214 C2212 1.419 . S
C2214 C2215 1.362 . S
C2215 H2205 0.930 . S
C2215 C2208 1.409 . S
C2215 C2214 1.362 . S
H2216 C2222 0.930 . S
H2217 C2225 0.930 . S
H2218 C2226 0.930 . S
H2219 C2227 0.930 . S
H2220 C2230 0.930 . S
H2221 C2231 0.930 . S
C2222 H2216 0.930 . S
C2222 C2223 1.355 . S
C2222 C2224 1.415 . S
C2223 C2222 1.355 . S
C2223 C2225 1.419 . S
C2224 C2222 1.415 . S
C2224 C2229 1.425 . S
C2224 C2231 1.409 . S
C2225 H2217 0.930 . S
C2225 C2223 1.419 . S
C2225 C2226 1.362 . S
C2226 H2218 0.930 . S
C2226 C2225 1.362 . S
C2226 C2229 1.409 . S
C2227 H2219 0.930 . S
C2227 C2228 1.355 . S
C2227 C2229 1.415 . S
C2228 C2227 1.355 . S
C2228 C2230 1.419 . S
C2229 C2224 1.425 . S
C2229 C2226 1.409 . S
C2229 C2227 1.415 . S
C2230 H2220 0.930 . S
C2230 C2228 1.419 . S
C2230 C2231 1.362 . S
C2231 H2221 0.930 . S
C2231 C2224 1.409 . S
C2231 C2230 1.362 . S
H2232 C2238 0.930 . S
H2233 C2241 0.930 . S
H2234 C2242 0.930 . S
H2235 C2243 0.930 . S
H2236 C2246 0.930 . S
H2237 C2247 0.930 . S
C2238 H2232 0.930 . S
C2238 C2239 1.355 . S
C2238 C2240 1.415 . S
C2239 C2238 1.355 . S
C2239 C2241 1.419 . S
C2240 C2238 1.415 . S
C2240 C2245 1.425 . S
C2240 C2247 1.409 . S
C2241 H2233 0.930 . S
C2241 C2239 1.419 . S
C2241 C2242 1.362 . S
C2242 H2234 0.930 . S
C2242 C2241 1.362 . S
C2242 C2245 1.409 . S
C2243 H2235 0.930 . S
C2243 C2244 1.355 . S
C2243 C2245 1.415 . S
C2244 C2243 1.355 . S
C2244 C2246 1.419 . S
C2245 C2240 1.425 . S
C2245 C2242 1.409 . S
C2245 C2243 1.415 . S
C2246 H2236 0.930 . S
C2246 C2244 1.419 . S
C2246 C2247 1.362 . S
C2247 H2237 0.930 . S
C2247 C2240 1.409 . S
C2247 C2246 1.362 . S
H2248 C2254 0.930 . S
H2249 C2257 0.930 . S
H2250 C2258 0.930 . S
H2251 C2259 0.930 . S
H2252 C2262 0.930 . S
H2253 C2263 0.930 . S
C2254 H2248 0.930 . S
C2254 C2255 1.355 . S
C2254 C2256 1.415 . S
C2255 C2254 1.355 . S
C2255 C2257 1.419 . S
C2256 C2254 1.415 . S
C2256 C2261 1.425 . S
C2256 C2263 1.409 . S
C2257 H2249 0.930 . S
C2257 C2255 1.419 . S
C2257 C2258 1.362 . S
C2258 H2250 0.930 . S
C2258 C2257 1.362 . S
C2258 C2261 1.409 . S
C2259 H2251 0.930 . S
C2259 C2260 1.355 . S
C2259 C2261 1.415 . S
C2260 C2259 1.355 . S
C2260 C2262 1.419 . S
C2261 C2256 1.425 . S
C2261 C2258 1.409 . S
C2261 C2259 1.415 . S
C2262 H2252 0.930 . S
C2262 C2260 1.419 . S
C2262 C2263 1.362 . S
C2263 H2253 0.930 . S
C2263 C2256 1.409 . S
C2263 C2262 1.362 . S
H2264 C2270 0.930 1_655 S
H2265 C2273 0.930 . S
H2266 C2274 0.930 . S
H2267 C2275 0.930 . S
H2268 C2278 0.930 1_655 S
H2269 C2279 0.930 1_655 S
C2270 H2264 0.930 1_455 S
C2270 C2271 1.355 . S
C2270 C2272 1.415 . S
C2271 C2270 1.355 . S
C2271 C2273 1.419 . S
C2272 C2270 1.415 . S
C2272 C2277 1.425 . S
C2272 C2279 1.409 . S
C2273 H2265 0.930 . S
C2273 C2271 1.419 . S
C2273 C2274 1.362 . S
C2274 H2266 0.930 . S
C2274 C2273 1.362 . S
C2274 C2277 1.409 . S
C2275 H2267 0.930 . S
C2275 C2276 1.355 . S
C2275 C2277 1.415 . S
C2276 C2275 1.355 . S
C2276 C2278 1.419 . S
C2277 C2272 1.425 . S
C2277 C2274 1.409 . S
C2277 C2275 1.415 . S
C2278 H2268 0.930 1_455 S
C2278 C2276 1.419 . S
C2278 C2279 1.362 . S
C2279 H2269 0.930 1_455 S
C2279 C2272 1.409 . S
C2279 C2278 1.362 . S
H2280 C2286 0.930 . S
H2281 C2289 0.930 . S
H2282 C2290 0.930 . S
H2283 C2291 0.930 . S
H2284 C2294 0.930 . S
H2285 C2295 0.930 . S
C2286 H2280 0.930 . S
C2286 C2287 1.355 . S
C2286 C2288 1.415 . S
C2287 C2286 1.355 . S
C2287 C2289 1.419 . S
C2288 C2286 1.415 . S
C2288 C2293 1.425 . S
C2288 C2295 1.409 . S
C2289 H2281 0.930 . S
C2289 C2287 1.419 . S
C2289 C2290 1.362 . S
C2290 H2282 0.930 . S
C2290 C2289 1.362 . S
C2290 C2293 1.409 . S
C2291 H2283 0.930 . S
C2291 C2292 1.355 . S
C2291 C2293 1.415 . S
C2292 C2291 1.355 . S
C2292 C2294 1.419 . S
C2293 C2288 1.425 . S
C2293 C2290 1.409 . S
C2293 C2291 1.415 . S
C2294 H2284 0.930 . S
C2294 C2292 1.419 . S
C2294 C2295 1.362 . S
C2295 H2285 0.930 . S
C2295 C2288 1.409 . S
C2295 C2294 1.362 . S
H2296 C2302 0.930 . S
H2297 C2305 0.930 . S
H2298 C2306 0.930 . S
H2299 C2307 0.930 . S
H2300 C2310 0.930 . S
H2301 C2311 0.930 . S
C2302 H2296 0.930 . S
C2302 C2303 1.355 . S
C2302 C2304 1.415 . S
C2303 C2302 1.355 . S
C2303 C2305 1.419 . S
C2304 C2302 1.415 . S
C2304 C2309 1.425 . S
C2304 C2311 1.409 . S
C2305 H2297 0.930 . S
C2305 C2303 1.419 . S
C2305 C2306 1.362 . S
C2306 H2298 0.930 . S
C2306 C2305 1.362 . S
C2306 C2309 1.409 . S
C2307 H2299 0.930 . S
C2307 C2308 1.355 . S
C2307 C2309 1.415 . S
C2308 C2307 1.355 . S
C2308 C2310 1.419 . S
C2309 C2304 1.425 . S
C2309 C2306 1.409 . S
C2309 C2307 1.415 . S
C2310 H2300 0.930 . S
C2310 C2308 1.419 . S
C2310 C2311 1.362 . S
C2311 H2301 0.930 . S
C2311 C2304 1.409 . S
C2311 C2310 1.362 . S
H2312 C2318 0.930 . S
H2313 C2321 0.930 . S
H2314 C2322 0.930 . S
H2315 C2323 0.930 . S
H2316 C2326 0.930 . S
H2317 C2327 0.930 . S
C2318 H2312 0.930 . S
C2318 C2319 1.355 . S
C2318 C2320 1.415 . S
C2319 C2318 1.355 . S
C2319 C2321 1.419 . S
C2320 C2318 1.415 . S
C2320 C2325 1.425 . S
C2320 C2327 1.409 . S
C2321 H2313 0.930 . S
C2321 C2319 1.419 . S
C2321 C2322 1.362 . S
C2322 H2314 0.930 . S
C2322 C2321 1.362 . S
C2322 C2325 1.409 . S
C2323 H2315 0.930 . S
C2323 C2324 1.355 . S
C2323 C2325 1.415 . S
C2324 C2323 1.355 . S
C2324 C2326 1.419 . S
C2325 C2320 1.425 . S
C2325 C2322 1.409 . S
C2325 C2323 1.415 . S
C2326 H2316 0.930 . S
C2326 C2324 1.419 . S
C2326 C2327 1.362 . S
C2327 H2317 0.930 . S
C2327 C2320 1.409 . S
C2327 C2326 1.362 . S
H2328 C2334 0.930 . S
H2329 C2337 0.930 . S
H2330 C2338 0.930 . S
H2331 C2339 0.930 . S
H2332 C2342 0.930 . S
H2333 C2343 0.930 . S
C2334 H2328 0.930 . S
C2334 C2335 1.355 . S
C2334 C2336 1.415 . S
C2335 C2334 1.355 . S
C2335 C2337 1.419 1_455 S
C2336 C2334 1.415 . S
C2336 C2341 1.425 . S
C2336 C2343 1.409 . S
C2337 H2329 0.930 . S
C2337 C2335 1.419 1_655 S
C2337 C2338 1.362 . S
C2338 H2330 0.930 . S
C2338 C2337 1.362 . S
C2338 C2341 1.409 1_655 S
C2339 H2331 0.930 . S
C2339 C2340 1.355 1_655 S
C2339 C2341 1.415 1_655 S
C2340 C2339 1.355 1_455 S
C2340 C2342 1.419 . S
C2341 C2336 1.425 . S
C2341 C2338 1.409 1_455 S
C2341 C2339 1.415 1_455 S
C2342 H2332 0.930 . S
C2342 C2340 1.419 . S
C2342 C2343 1.362 . S
C2343 H2333 0.930 . S
C2343 C2336 1.409 . S
C2343 C2342 1.362 . S
H2344 C2350 0.930 . S
H2345 C2353 0.930 . S
H2346 C2354 0.930 . S
H2347 C2355 0.930 . S
H2348 C2358 0.930 . S
H2349 C2359 0.930 . S
C2350 H2344 0.930 . S
C2350 C2351 1.355 . S
C2350 C2352 1.415 . S
C2351 C2350 1.355 . S
C2351 C2353 1.419 . S
C2352 C2350 1.415 . S
C2352 C2357 1.425 . S
C2352 C2359 1.409 . S
C2353 H2345 0.930 . S
C2353 C2351 1.419 . S
C2353 C2354 1.362 . S
C2354 H2346 0.930 . S
C2354 C2353 1.362 . S
C2354 C2357 1.409 . S
C2355 H2347 0.930 . S
C2355 C2356 1.355 . S
C2355 C2357 1.415 . S
C2356 C2355 1.355 . S
C2356 C2358 1.419 . S
C2357 C2352 1.425 . S
C2357 C2354 1.409 . S
C2357 C2355 1.415 . S
C2358 H2348 0.930 . S
C2358 C2356 1.419 . S
C2358 C2359 1.362 . S
C2359 H2349 0.930 . S
C2359 C2352 1.409 . S
C2359 C2358 1.362 . S
H2360 C2366 0.930 . S
H2361 C2369 0.930 . S
H2362 C2370 0.930 . S
H2363 C2371 0.930 . S
H2364 C2374 0.930 . S
H2365 C2375 0.930 . S
C2366 H2360 0.930 . S
C2366 C2367 1.355 . S
C2366 C2368 1.415 . S
C2367 C2366 1.355 . S
C2367 C2369 1.419 . S
C2368 C2366 1.415 . S
C2368 C2373 1.425 . S
C2368 C2375 1.409 . S
C2369 H2361 0.930 . S
C2369 C2367 1.419 . S
C2369 C2370 1.362 . S
C2370 H2362 0.930 . S
C2370 C2369 1.362 . S
C2370 C2373 1.409 . S
C2371 H2363 0.930 . S
C2371 C2372 1.355 . S
C2371 C2373 1.415 . S
C2372 C2371 1.355 . S
C2372 C2374 1.419 . S
C2373 C2368 1.425 . S
C2373 C2370 1.409 . S
C2373 C2371 1.415 . S
C2374 H2364 0.930 . S
C2374 C2372 1.419 . S
C2374 C2375 1.362 . S
C2375 H2365 0.930 . S
C2375 C2368 1.409 . S
C2375 C2374 1.362 . S
H2376 C2382 0.930 . S
H2377 C2385 0.930 . S
H2378 C2386 0.930 . S
H2379 C2387 0.930 . S
H2380 C2390 0.930 . S
H2381 C2391 0.930 . S
C2382 H2376 0.930 . S
C2382 C2383 1.355 . S
C2382 C2384 1.415 . S
C2383 C2382 1.355 . S
C2383 C2385 1.419 . S
C2384 C2382 1.415 . S
C2384 C2389 1.425 . S
C2384 C2391 1.409 1_565 S
C2385 H2377 0.930 . S
C2385 C2383 1.419 . S
C2385 C2386 1.362 . S
C2386 H2378 0.930 . S
C2386 C2385 1.362 . S
C2386 C2389 1.409 . S
C2387 H2379 0.930 . S
C2387 C2388 1.355 . S
C2387 C2389 1.415 . S
C2388 C2387 1.355 . S
C2388 C2390 1.419 1_565 S
C2389 C2384 1.425 . S
C2389 C2386 1.409 . S
C2389 C2387 1.415 . S
C2390 H2380 0.930 . S
C2390 C2388 1.419 1_545 S
C2390 C2391 1.362 . S
C2391 H2381 0.930 . S
C2391 C2384 1.409 1_545 S
C2391 C2390 1.362 . S
H2392 C2398 0.930 . S
H2393 C2401 0.930 . S
H2394 C2402 0.930 . S
H2395 C2403 0.930 . S
H2396 C2406 0.930 . S
H2397 C2407 0.930 . S
C2398 H2392 0.930 . S
C2398 C2399 1.355 . S
C2398 C2400 1.415 . S
C2399 C2398 1.355 . S
C2399 C2401 1.419 . S
C2400 C2398 1.415 . S
C2400 C2405 1.425 . S
C2400 C2407 1.409 . S
C2401 H2393 0.930 . S
C2401 C2399 1.419 . S
C2401 C2402 1.362 . S
C2402 H2394 0.930 . S
C2402 C2401 1.362 . S
C2402 C2405 1.409 . S
C2403 H2395 0.930 . S
C2403 C2404 1.355 . S
C2403 C2405 1.415 . S
C2404 C2403 1.355 . S
C2404 C2406 1.419 . S
C2405 C2400 1.425 . S
C2405 C2402 1.409 . S
C2405 C2403 1.415 . S
C2406 H2396 0.930 . S
C2406 C2404 1.419 . S
C2406 C2407 1.362 . S
C2407 H2397 0.930 . S
C2407 C2400 1.409 . S
C2407 C2406 1.362 . S
H2408 C2414 0.930 . S
H2409 C2417 0.930 . S
H2410 C2418 0.930 . S
H2411 C2419 0.930 . S
H2412 C2422 0.930 . S
H2413 C2423 0.930 . S
C2414 H2408 0.930 . S
C2414 C2415 1.355 . S
C2414 C2416 1.415 . S
C2415 C2414 1.355 . S
C2415 C2417 1.419 1_556 S
C2416 C2414 1.415 . S
C2416 C2421 1.425 1_556 S
C2416 C2423 1.409 . S
C2417 H2409 0.930 . S
C2417 C2415 1.419 1_554 S
C2417 C2418 1.362 . S
C2418 H2410 0.930 . S
C2418 C2417 1.362 . S
C2418 C2421 1.409 . S
C2419 H2411 0.930 . S
C2419 C2420 1.355 1_554 S
C2419 C2421 1.415 . S
C2420 C2419 1.355 1_556 S
C2420 C2422 1.419 . S
C2421 C2416 1.425 1_554 S
C2421 C2418 1.409 . S
C2421 C2419 1.415 . S
C2422 H2412 0.930 . S
C2422 C2420 1.419 . S
C2422 C2423 1.362 . S
C2423 H2413 0.930 . S
C2423 C2416 1.409 . S
C2423 C2422 1.362 . S
H2424 C2430 0.930 . S
H2425 C2433 0.930 . S
H2426 C2434 0.930 . S
H2427 C2435 0.930 . S
H2428 C2438 0.930 . S
H2429 C2439 0.930 . S
C2430 H2424 0.930 . S
C2430 C2431 1.355 . S
C2430 C2432 1.415 . S
C2431 C2430 1.355 . S
C2431 C2433 1.419 . S
C2432 C2430 1.415 . S
C2432 C2437 1.425 . S
C2432 C2439 1.409 . S
C2433 H2425 0.930 . S
C2433 C2431 1.419 . S
C2433 C2434 1.362 . S
C2434 H2426 0.930 . S
C2434 C2433 1.362 . S
C2434 C2437 1.409 . S
C2435 H2427 0.930 . S
C2435 C2436 1.355 . S
C2435 C2437 1.415 . S
C2436 C2435 1.355 . S
C2436 C2438 1.419 . S
C2437 C2432 1.425 . S
C2437 C2434 1.409 . S
C2437 C2435 1.415 . S
C2438 H2428 0.930 . S
C2438 C2436 1.419 . S
C2438 C2439 1.362 . S
C2439 H2429 0.930 . S
C2439 C2432 1.409 . S
C2439 C2438 1.362 . S
H2440 C2446 0.930 . S
H2441 C2449 0.930 . S
H2442 C2450 0.930 . S
H2443 C2451 0.930 . S
H2444 C2454 0.930 . S
H2445 C2455 0.930 . S
C2446 H2440 0.930 . S
C2446 C2447 1.355 . S
C2446 C2448 1.415 . S
C2447 C2446 1.355 . S
C2447 C2449 1.419 . S
C2448 C2446 1.415 . S
C2448 C2453 1.425 . S
C2448 C2455 1.409 . S
C2449 H2441 0.930 . S
C2449 C2447 1.419 . S
C2449 C2450 1.362 . S
C2450 H2442 0.930 . S
C2450 C2449 1.362 . S
C2450 C2453 1.409 . S
C2451 H2443 0.930 . S
C2451 C2452 1.355 . S
C2451 C2453 1.415 . S
C2452 C2451 1.355 . S
C2452 C2454 1.419 . S
C2453 C2448 1.425 . S
C2453 C2450 1.409 . S
C2453 C2451 1.415 . S
C2454 H2444 0.930 . S
C2454 C2452 1.419 . S
C2454 C2455 1.362 . S
C2455 H2445 0.930 . S
C2455 C2448 1.409 . S
C2455 C2454 1.362 . S
H2456 C2462 0.930 . S
H2457 C2465 0.930 . S
H2458 C2466 0.930 . S
H2459 C2467 0.930 . S
H2460 C2470 0.930 . S
H2461 C2471 0.930 . S
C2462 H2456 0.930 . S
C2462 C2463 1.355 . S
C2462 C2464 1.415 . S
C2463 C2462 1.355 . S
C2463 C2465 1.419 . S
C2464 C2462 1.415 . S
C2464 C2469 1.425 . S
C2464 C2471 1.409 . S
C2465 H2457 0.930 . S
C2465 C2463 1.419 . S
C2465 C2466 1.362 . S
C2466 H2458 0.930 . S
C2466 C2465 1.362 . S
C2466 C2469 1.409 . S
C2467 H2459 0.930 . S
C2467 C2468 1.355 . S
C2467 C2469 1.415 . S
C2468 C2467 1.355 . S
C2468 C2470 1.419 . S
C2469 C2464 1.425 . S
C2469 C2466 1.409 . S
C2469 C2467 1.415 . S
C2470 H2460 0.930 . S
C2470 C2468 1.419 . S
C2470 C2471 1.362 . S
C2471 H2461 0.930 . S
C2471 C2464 1.409 . S
C2471 C2470 1.362 . S
H2472 C2478 0.930 . S
H2473 C2481 0.930 . S
H2474 C2482 0.930 . S
H2475 C2483 0.930 . S
H2476 C2486 0.930 . S
H2477 C2487 0.930 . S
C2478 H2472 0.930 . S
C2478 C2479 1.355 . S
C2478 C2480 1.415 . S
C2479 C2478 1.355 . S
C2479 C2481 1.419 . S
C2480 C2478 1.415 . S
C2480 C2485 1.425 . S
C2480 C2487 1.409 . S
C2481 H2473 0.930 . S
C2481 C2479 1.419 . S
C2481 C2482 1.362 . S
C2482 H2474 0.930 . S
C2482 C2481 1.362 . S
C2482 C2485 1.409 . S
C2483 H2475 0.930 . S
C2483 C2484 1.355 . S
C2483 C2485 1.415 . S
C2484 C2483 1.355 . S
C2484 C2486 1.419 . S
C2485 C2480 1.425 . S
C2485 C2482 1.409 . S
C2485 C2483 1.415 . S
C2486 H2476 0.930 . S
C2486 C2484 1.419 . S
C2486 C2487 1.362 . S
C2487 H2477 0.930 . S
C2487 C2480 1.409 . S
C2487 C2486 1.362 . S
C959 C101 1.920 . S
C964 C334 1.894 . S
C975 C57 1.231 . S
C980 C354 1.241 . S
C991 C70 0.639 . S
C996 C401 0.658 . S
C1012 C458 1.151 . S
C1007 C82 1.167 . S
C1023 C23 2.493 . S
C1028 C475 2.489 . S
C1044 C534 1.748 . S
C1039 C29 1.787 . S
C1060 C567 2.614 . S
C1055 C49 2.590 . S
C1071 C10 2.572 . S
C1076 C614 2.532 . S
C1092 C327 1.826 . S
C1087 C218 1.780 . S
C1103 C226 1.310 . S
C1108 C355 1.285 . S
C1124 C394 0.322 . S
C1119 C251 0.265 1_565 S
C1140 C454 2.129 . S
C1135 C159 2.127 . S
C1151 C211 0.592 . S
C1156 C481 0.611 . S
C1172 C527 2.182 . S
C1167 C225 2.197 . S
C1188 C578 0.536 . S
C1183 C252 0.501 . S
C1204 C607 2.287 . S
C1199 C166 2.265 . S
C1220 C338 2.074 . S
C1215 C147 2.145 . S
C1231 C263 2.175 . S
C1236 C634 2.146 . S
C1252 C698 1.427 . S
C1247 C309 1.421 . S
C1268 C734 1.514 . S
C1263 C291 1.504 . S
C1279 C108 1.690 . S
C1284 C618 1.696 . S
C1295 C121 2.513 . S
C1300 C395 2.517 . S
C1311 C302 1.358 . S
C1316 C767 1.415 . S
C1332 C801 0.543 . S
C1327 C276 0.622 . S
C1348 C315 1.975 1_565 S
C1343 C55 1.970 . S
C1364 C807 1.509 . S
C1359 C96 1.530 . S
C1375 C88 0.972 . S
C1380 C418 0.948 . S
C1391 C75 1.279 . S
C1396 C761 1.273 . S
C1412 C494 2.833 . S
C1407 C4 2.865 . S
C1423 C44 1.987 . S
C1428 C675 1.980 . S
C1444 C554 2.919 1_566 S
C1439 C31 2.922 . S
C1460 C835 2.560 . S
C1455 C18 2.572 1_655 S
C1476 C314 1.734 1_556 S
C1471 C133 1.686 . S
C1492 C814 1.898 . S
C1487 C296 1.910 . S
C1503 C107 0.754 . S
C1508 C407 0.771 . S
C1519 C264 2.377 . S
C1524 C755 2.382 . S
C1535 C140 0.732 . S
C1540 C498 0.768 . S
C1556 C674 2.503 . S
C1551 C289 2.512 . S
C1567 C114 0.665 . S
C1572 C561 0.664 . S
C1583 C265 2.521 . S
C1588 C834 2.523 . S
C1599 C179 1.761 . S
C1604 C321 1.740 . S
C1615 C161 2.322 . S
C1620 C647 2.293 . S
C1631 C244 1.487 . S
C1636 C521 1.477 . S
C1647 C224 1.627 . S
C1652 C715 1.613 . S
C1668 C841 1.495 . S
C1663 C257 1.461 . S
C1679 C199 2.790 . S
C1684 C414 2.787 1_565 S
C1700 C434 1.704 . S
C1695 C237 1.695 . S
C1716 C378 0.665 . S
C1711 C185 0.701 . S
C1727 C69 1.979 . S
C1732 C894 1.938 . S
C1748 C794 1.202 . S
C1743 C83 1.188 . S
C1759 C94 0.601 . S
C1764 C921 0.591 . S
C1775 C56 1.233 . S
C1780 C778 1.223 . S
C1791 C42 2.502 . S
C1796 C635 2.489 . S
C1812 C694 1.791 . S
C1807 C3 1.801 1_655 S
C1828 C727 2.624 . S
C1823 C16 2.598 . S
C1844 C854 2.485 . S
C1839 C36 2.545 . S
C1860 C887 1.793 . S
C1855 C238 1.729 . S
C1871 C174 1.322 . S
C1876 C795 1.274 . S
C1892 C914 0.486 . S
C1887 C186 0.407 . S
C1908 C774 2.126 . S
C1903 C198 2.112 . S
C1924 C641 0.488 . S
C1919 C239 0.466 . S
C1935 C173 2.198 . S
C1940 C687 2.198 . S
C1956 C738 0.758 . S
C1951 C187 0.699 . S
C1967 C205 2.266 . S
C1972 C847 2.299 . S
C1988 C898 2.075 . S
C1983 C290 2.145 . S
C1999 C122 2.204 . S
C2004 C474 2.182 . S
C2020 C538 1.384 . S
C2015 C134 1.402 . S
C2036 C574 1.513 . S
C2031 C148 1.496 . S
C2052 C858 1.729 . S
C2047 C283 1.690 . S
C2063 C270 2.533 . S
C2068 C915 2.528 1_655 S
C2084 C447 1.425 . S
C2079 C135 1.390 . S
C2100 C361 0.545 . S
C2095 C109 0.585 . S
C2111 C81 1.929 . S
C2116 C875 1.959 . S
C2132 C367 1.434 . S
C2127 C68 1.460 . S
C2143 C62 1.009 . S
C2148 C938 1.016 . S
C2159 C95 1.271 . S
C2164 C441 1.253 . S
C2175 C30 2.865 . S
C2180 C654 2.833 . S
C2196 C515 1.989 . S
C2191 C17 2.002 . S
C2207 C5 2.929 . S
C2212 C714 2.911 . S
C2223 C43 2.562 . S
C2228 C595 2.545 . S
C2244 C874 1.732 . S
C2239 C304 1.681 . S
C2255 C153 1.921 . S
C2260 C374 1.885 . S
C2276 C927 0.771 . S
C2271 C278 0.751 . S
C2287 C127 2.371 . S
C2292 C435 2.389 . S
C2303 C303 0.729 . S
C2308 C658 0.762 . S
C2324 C514 2.494 . S
C2319 C146 2.512 1_556 S
C2335 C277 0.658 . S
C2340 C721 0.660 . S
C2356 C594 2.508 . S
C2351 C120 2.523 . S
C2372 C881 1.758 . S
C2367 C231 1.774 . S
C2388 C487 2.284 1_665 S
C2383 C200 2.324 . S
C2399 C212 1.484 . S
C2404 C681 1.489 . S
C2420 C555 1.626 1_556 S
C2415 C172 1.592 . S
C2431 C192 1.489 . S
C2436 C601 1.485 . S
C2447 C160 2.785 . S
C2452 C934 2.788 . S
C2468 C754 1.700 . S
C2463 C213 1.662 . S
C2484 C818 0.624 . S
C2479 C250 0.630 . S
