# Generated by pormake.
# Topology gar, (4,6)-cn, num edge types: 1
# Building blocks:
#     Node 0, Type 0, BuildingBlock: QUQFOY_clean_sbu_3, # of connection points: 4
#     Node 1, Type 0, BuildingBlock: QUQFOY_clean_sbu_3, # of connection points: 4
#     Node 2, Type 0, BuildingBlock: QUQFOY_clean_sbu_3, # of connection points: 4
#     Node 3, Type 0, BuildingBlock: QUQFOY_clean_sbu_3, # of connection points: 4
#     Node 4, Type 0, BuildingBlock: QUQFOY_clean_sbu_3, # of connection points: 4
#     Node 5, Type 0, BuildingBlock: QUQFOY_clean_sbu_3, # of connection points: 4
#     Node 6, Type 0, BuildingBlock: QUQFOY_clean_sbu_3, # of connection points: 4
#     Node 7, Type 0, BuildingBlock: QUQFOY_clean_sbu_3, # of connection points: 4
#     Node 8, Type 0, BuildingBlock: QUQFOY_clean_sbu_3, # of connection points: 4
#     Node 9, Type 0, BuildingBlock: QUQFOY_clean_sbu_3, # of connection points: 4
#     Node 10, Type 0, BuildingBlock: QUQFOY_clean_sbu_3, # of connection points: 4
#     Node 11, Type 0, BuildingBlock: QUQFOY_clean_sbu_3, # of connection points: 4
#     Node 12, Type 0, BuildingBlock: QUQFOY_clean_sbu_3, # of connection points: 4
#     Node 13, Type 0, BuildingBlock: QUQFOY_clean_sbu_3, # of connection points: 4
#     Node 14, Type 0, BuildingBlock: QUQFOY_clean_sbu_3, # of connection points: 4
#     Node 15, Type 0, BuildingBlock: QUQFOY_clean_sbu_3, # of connection points: 4
#     Node 16, Type 0, BuildingBlock: QUQFOY_clean_sbu_3, # of connection points: 4
#     Node 17, Type 0, BuildingBlock: QUQFOY_clean_sbu_3, # of connection points: 4
#     Node 18, Type 0, BuildingBlock: QUQFOY_clean_sbu_3, # of connection points: 4
#     Node 19, Type 0, BuildingBlock: QUQFOY_clean_sbu_3, # of connection points: 4
#     Node 20, Type 0, BuildingBlock: QUQFOY_clean_sbu_3, # of connection points: 4
#     Node 21, Type 0, BuildingBlock: QUQFOY_clean_sbu_3, # of connection points: 4
#     Node 22, Type 0, BuildingBlock: QUQFOY_clean_sbu_3, # of connection points: 4
#     Node 23, Type 0, BuildingBlock: QUQFOY_clean_sbu_3, # of connection points: 4
#     Node 24, Type 1, BuildingBlock: CUKXOW_clean_sbu_0, # of connection points: 6
#     Node 25, Type 1, BuildingBlock: CUKXOW_clean_sbu_0, # of connection points: 6
#     Node 26, Type 1, BuildingBlock: CUKXOW_clean_sbu_0, # of connection points: 6
#     Node 27, Type 1, BuildingBlock: CUKXOW_clean_sbu_0, # of connection points: 6
#     Node 28, Type 1, BuildingBlock: CUKXOW_clean_sbu_0, # of connection points: 6
#     Node 29, Type 1, BuildingBlock: CUKXOW_clean_sbu_0, # of connection points: 6
#     Node 30, Type 1, BuildingBlock: CUKXOW_clean_sbu_0, # of connection points: 6
#     Node 31, Type 1, BuildingBlock: CUKXOW_clean_sbu_0, # of connection points: 6
#     Node 32, Type 1, BuildingBlock: CUKXOW_clean_sbu_0, # of connection points: 6
#     Node 33, Type 1, BuildingBlock: CUKXOW_clean_sbu_0, # of connection points: 6
#     Node 34, Type 1, BuildingBlock: CUKXOW_clean_sbu_0, # of connection points: 6
#     Node 35, Type 1, BuildingBlock: CUKXOW_clean_sbu_0, # of connection points: 6
#     Node 36, Type 1, BuildingBlock: CUKXOW_clean_sbu_0, # of connection points: 6
#     Node 37, Type 1, BuildingBlock: CUKXOW_clean_sbu_0, # of connection points: 6
#     Node 38, Type 1, BuildingBlock: CUKXOW_clean_sbu_0, # of connection points: 6
#     Node 39, Type 1, BuildingBlock: CUKXOW_clean_sbu_0, # of connection points: 6
#     Edge 40, Type (0, 1), BuildingBlock: XIVTED_clean_linker_0, # of connection points: 2
#     Edge 41, Type (0, 1), BuildingBlock: XIVTED_clean_linker_0, # of connection points: 2
#     Edge 42, Type (0, 1), BuildingBlock: XIVTED_clean_linker_0, # of connection points: 2
#     Edge 43, Type (0, 1), BuildingBlock: XIVTED_clean_linker_0, # of connection points: 2
#     Edge 44, Type (0, 1), BuildingBlock: XIVTED_clean_linker_0, # of connection points: 2
#     Edge 45, Type (0, 1), BuildingBlock: XIVTED_clean_linker_0, # of connection points: 2
#     Edge 46, Type (0, 1), BuildingBlock: XIVTED_clean_linker_0, # of connection points: 2
#     Edge 47, Type (0, 1), BuildingBlock: XIVTED_clean_linker_0, # of connection points: 2
#     Edge 48, Type (0, 1), BuildingBlock: XIVTED_clean_linker_0, # of connection points: 2
#     Edge 49, Type (0, 1), BuildingBlock: XIVTED_clean_linker_0, # of connection points: 2
#     Edge 50, Type (0, 1), BuildingBlock: XIVTED_clean_linker_0, # of connection points: 2
#     Edge 51, Type (0, 1), BuildingBlock: XIVTED_clean_linker_0, # of connection points: 2
#     Edge 52, Type (0, 1), BuildingBlock: XIVTED_clean_linker_0, # of connection points: 2
#     Edge 53, Type (0, 1), BuildingBlock: XIVTED_clean_linker_0, # of connection points: 2
#     Edge 54, Type (0, 1), BuildingBlock: XIVTED_clean_linker_0, # of connection points: 2
#     Edge 55, Type (0, 1), BuildingBlock: XIVTED_clean_linker_0, # of connection points: 2
#     Edge 56, Type (0, 1), BuildingBlock: XIVTED_clean_linker_0, # of connection points: 2
#     Edge 57, Type (0, 1), BuildingBlock: XIVTED_clean_linker_0, # of connection points: 2
#     Edge 58, Type (0, 1), BuildingBlock: XIVTED_clean_linker_0, # of connection points: 2
#     Edge 59, Type (0, 1), BuildingBlock: XIVTED_clean_linker_0, # of connection points: 2
#     Edge 60, Type (0, 1), BuildingBlock: XIVTED_clean_linker_0, # of connection points: 2
#     Edge 61, Type (0, 1), BuildingBlock: XIVTED_clean_linker_0, # of connection points: 2
#     Edge 62, Type (0, 1), BuildingBlock: XIVTED_clean_linker_0, # of connection points: 2
#     Edge 63, Type (0, 1), BuildingBlock: XIVTED_clean_linker_0, # of connection points: 2
#     Edge 64, Type (0, 1), BuildingBlock: XIVTED_clean_linker_0, # of connection points: 2
#     Edge 65, Type (0, 1), BuildingBlock: XIVTED_clean_linker_0, # of connection points: 2
#     Edge 66, Type (0, 1), BuildingBlock: XIVTED_clean_linker_0, # of connection points: 2
#     Edge 67, Type (0, 1), BuildingBlock: XIVTED_clean_linker_0, # of connection points: 2
#     Edge 68, Type (0, 1), BuildingBlock: XIVTED_clean_linker_0, # of connection points: 2
#     Edge 69, Type (0, 1), BuildingBlock: XIVTED_clean_linker_0, # of connection points: 2
#     Edge 70, Type (0, 1), BuildingBlock: XIVTED_clean_linker_0, # of connection points: 2
#     Edge 71, Type (0, 1), BuildingBlock: XIVTED_clean_linker_0, # of connection points: 2
#     Edge 72, Type (0, 1), BuildingBlock: XIVTED_clean_linker_0, # of connection points: 2
#     Edge 73, Type (0, 1), BuildingBlock: XIVTED_clean_linker_0, # of connection points: 2
#     Edge 74, Type (0, 1), BuildingBlock: XIVTED_clean_linker_0, # of connection points: 2
#     Edge 75, Type (0, 1), BuildingBlock: XIVTED_clean_linker_0, # of connection points: 2
#     Edge 76, Type (0, 1), BuildingBlock: XIVTED_clean_linker_0, # of connection points: 2
#     Edge 77, Type (0, 1), BuildingBlock: XIVTED_clean_linker_0, # of connection points: 2
#     Edge 78, Type (0, 1), BuildingBlock: XIVTED_clean_linker_0, # of connection points: 2
#     Edge 79, Type (0, 1), BuildingBlock: XIVTED_clean_linker_0, # of connection points: 2
#     Edge 80, Type (0, 1), BuildingBlock: XIVTED_clean_linker_0, # of connection points: 2
#     Edge 81, Type (0, 1), BuildingBlock: XIVTED_clean_linker_0, # of connection points: 2
#     Edge 82, Type (0, 1), BuildingBlock: XIVTED_clean_linker_0, # of connection points: 2
#     Edge 83, Type (0, 1), BuildingBlock: XIVTED_clean_linker_0, # of connection points: 2
#     Edge 84, Type (0, 1), BuildingBlock: XIVTED_clean_linker_0, # of connection points: 2
#     Edge 85, Type (0, 1), BuildingBlock: XIVTED_clean_linker_0, # of connection points: 2
#     Edge 86, Type (0, 1), BuildingBlock: XIVTED_clean_linker_0, # of connection points: 2
#     Edge 87, Type (0, 1), BuildingBlock: XIVTED_clean_linker_0, # of connection points: 2
#     Edge 88, Type (0, 1), BuildingBlock: XIVTED_clean_linker_0, # of connection points: 2
#     Edge 89, Type (0, 1), BuildingBlock: XIVTED_clean_linker_0, # of connection points: 2
#     Edge 90, Type (0, 1), BuildingBlock: XIVTED_clean_linker_0, # of connection points: 2
#     Edge 91, Type (0, 1), BuildingBlock: XIVTED_clean_linker_0, # of connection points: 2
#     Edge 92, Type (0, 1), BuildingBlock: XIVTED_clean_linker_0, # of connection points: 2
#     Edge 93, Type (0, 1), BuildingBlock: XIVTED_clean_linker_0, # of connection points: 2
#     Edge 94, Type (0, 1), BuildingBlock: XIVTED_clean_linker_0, # of connection points: 2
#     Edge 95, Type (0, 1), BuildingBlock: XIVTED_clean_linker_0, # of connection points: 2
#     Edge 96, Type (0, 1), BuildingBlock: XIVTED_clean_linker_0, # of connection points: 2
#     Edge 97, Type (0, 1), BuildingBlock: XIVTED_clean_linker_0, # of connection points: 2
#     Edge 98, Type (0, 1), BuildingBlock: XIVTED_clean_linker_0, # of connection points: 2
#     Edge 99, Type (0, 1), BuildingBlock: XIVTED_clean_linker_0, # of connection points: 2
#     Edge 100, Type (0, 1), BuildingBlock: XIVTED_clean_linker_0, # of connection points: 2
#     Edge 101, Type (0, 1), BuildingBlock: XIVTED_clean_linker_0, # of connection points: 2
#     Edge 102, Type (0, 1), BuildingBlock: XIVTED_clean_linker_0, # of connection points: 2
#     Edge 103, Type (0, 1), BuildingBlock: XIVTED_clean_linker_0, # of connection points: 2
#     Edge 104, Type (0, 1), BuildingBlock: XIVTED_clean_linker_0, # of connection points: 2
#     Edge 105, Type (0, 1), BuildingBlock: XIVTED_clean_linker_0, # of connection points: 2
#     Edge 106, Type (0, 1), BuildingBlock: XIVTED_clean_linker_0, # of connection points: 2
#     Edge 107, Type (0, 1), BuildingBlock: XIVTED_clean_linker_0, # of connection points: 2
#     Edge 108, Type (0, 1), BuildingBlock: XIVTED_clean_linker_0, # of connection points: 2
#     Edge 109, Type (0, 1), BuildingBlock: XIVTED_clean_linker_0, # of connection points: 2
#     Edge 110, Type (0, 1), BuildingBlock: XIVTED_clean_linker_0, # of connection points: 2
#     Edge 111, Type (0, 1), BuildingBlock: XIVTED_clean_linker_0, # of connection points: 2
#     Edge 112, Type (0, 1), BuildingBlock: XIVTED_clean_linker_0, # of connection points: 2
#     Edge 113, Type (0, 1), BuildingBlock: XIVTED_clean_linker_0, # of connection points: 2
#     Edge 114, Type (0, 1), BuildingBlock: XIVTED_clean_linker_0, # of connection points: 2
#     Edge 115, Type (0, 1), BuildingBlock: XIVTED_clean_linker_0, # of connection points: 2
#     Edge 116, Type (0, 1), BuildingBlock: XIVTED_clean_linker_0, # of connection points: 2
#     Edge 117, Type (0, 1), BuildingBlock: XIVTED_clean_linker_0, # of connection points: 2
#     Edge 118, Type (0, 1), BuildingBlock: XIVTED_clean_linker_0, # of connection points: 2
#     Edge 119, Type (0, 1), BuildingBlock: XIVTED_clean_linker_0, # of connection points: 2
#     Edge 120, Type (0, 1), BuildingBlock: XIVTED_clean_linker_0, # of connection points: 2
#     Edge 121, Type (0, 1), BuildingBlock: XIVTED_clean_linker_0, # of connection points: 2
#     Edge 122, Type (0, 1), BuildingBlock: XIVTED_clean_linker_0, # of connection points: 2
#     Edge 123, Type (0, 1), BuildingBlock: XIVTED_clean_linker_0, # of connection points: 2
#     Edge 124, Type (0, 1), BuildingBlock: XIVTED_clean_linker_0, # of connection points: 2
#     Edge 125, Type (0, 1), BuildingBlock: XIVTED_clean_linker_0, # of connection points: 2
#     Edge 126, Type (0, 1), BuildingBlock: XIVTED_clean_linker_0, # of connection points: 2
#     Edge 127, Type (0, 1), BuildingBlock: XIVTED_clean_linker_0, # of connection points: 2
#     Edge 128, Type (0, 1), BuildingBlock: XIVTED_clean_linker_0, # of connection points: 2
#     Edge 129, Type (0, 1), BuildingBlock: XIVTED_clean_linker_0, # of connection points: 2
#     Edge 130, Type (0, 1), BuildingBlock: XIVTED_clean_linker_0, # of connection points: 2
#     Edge 131, Type (0, 1), BuildingBlock: XIVTED_clean_linker_0, # of connection points: 2
#     Edge 132, Type (0, 1), BuildingBlock: XIVTED_clean_linker_0, # of connection points: 2
#     Edge 133, Type (0, 1), BuildingBlock: XIVTED_clean_linker_0, # of connection points: 2
#     Edge 134, Type (0, 1), BuildingBlock: XIVTED_clean_linker_0, # of connection points: 2
#     Edge 135, Type (0, 1), BuildingBlock: XIVTED_clean_linker_0, # of connection points: 2
# Relax obj value: 0.106
# Max RMSD: 0.222
# Mean RMSD: 0.118
data_MOF--net-gar--node1-QUQFOY_clean_sbu_3--node2-CUKXOW_clean_sbu_0--edge1-XIVTED_clean_linker_0
_symmetry_space_group_name_H-M    P1
_symmetry_Int_Tables_number       1
_symmetry_cell_setting            triclinic
loop_
_symmetry_equiv_pos_as_xyz
'x, y, z'
_cell_length_a     56.084904
_cell_length_b     55.37618
_cell_length_c     55.14877
_cell_angle_alpha  94.935464
_cell_angle_beta   95.304005
_cell_angle_gamma 99.632127
loop_
_atom_site_label
_atom_site_type_symbol
_atom_site_fract_x
_atom_site_fract_y
_atom_site_fract_z
_atom_type_partial_charge
C0 C 0.98276 0.27303 0.39007 0.0
O1 O 0.00079 0.28422 0.38074 0.0
Cd2 Cd 0.0421 0.28679 0.39571 0.0
O3 O 0.98585 0.26265 0.40963 0.0
Cd4 Cd 0.02154 0.25739 0.43781 0.0
C5 C 0.04144 0.31843 0.45142 0.0
O6 O 0.04187 0.2451 0.40404 0.0
O7 O 0.06477 0.25143 0.43802 0.0
O8 O -0.003 0.21934 0.44657 0.0
C9 C 0.06197 0.24364 0.41548 0.0
O10 O 0.04964 0.31852 0.43066 0.0
C11 C 0.00494 0.2217 0.46912 0.0
O12 O 0.02928 0.2989 0.45766 0.0
O13 O 0.01991 0.24114 0.47718 0.0
C14 C 0.96705 0.78014 0.65115 0.0
O15 O 0.98378 0.76948 0.65983 0.0
Cd16 Cd 0.01854 0.76487 0.64012 0.0
O17 O 0.96817 0.78915 0.63066 0.0
Cd18 Cd -0.00292 0.79337 0.59894 0.0
C19 C 0.99168 0.73237 0.58574 0.0
O20 O 0.03182 0.8051 0.62823 0.0
O21 O 0.04052 0.79495 0.59204 0.0
O22 O 0.99137 0.835 0.59511 0.0
C23 C 0.04785 0.80458 0.6137 0.0
O24 O 0.00365 0.73269 0.60656 0.0
C25 C 0.98605 0.83219 0.57209 0.0
O26 O 0.98601 0.75194 0.57827 0.0
O27 O 0.98461 0.81069 0.56137 0.0
C28 C 0.48111 0.76387 0.87866 0.0
O29 O 0.4987 0.77465 0.86842 0.0
Cd30 Cd 0.54011 0.78001 0.88448 0.0
O31 O 0.48481 0.75527 0.89911 0.0
Cd32 Cd 0.52007 0.75208 0.92825 0.0
C33 C 0.53667 0.8136 0.93882 0.0
O34 O 0.54208 0.73971 0.89592 0.0
O35 O 0.56393 0.74837 0.93049 0.0
O36 O 0.49559 0.71408 0.93659 0.0
C37 C 0.56224 0.74002 0.90815 0.0
O38 O 0.54532 0.81304 0.91826 0.0
C39 C 0.50232 0.71692 0.95941 0.0
O40 O 0.52528 0.79414 0.94594 0.0
O41 O 0.51695 0.73652 0.96779 0.0
C42 C 0.46774 0.27662 0.15793 0.0
O43 O 0.48586 0.2692 0.16845 0.0
Cd44 Cd 0.52207 0.2682 0.14969 0.0
O45 O 0.46852 0.28426 0.1368 0.0
Cd46 Cd 0.49711 0.29151 0.10545 0.0
C47 C 0.49846 0.23126 0.09647 0.0
O48 O 0.53066 0.30816 0.13539 0.0
O49 O 0.54082 0.30034 0.09934 0.0
O50 O 0.47987 0.32779 0.0996 0.0
C51 C 0.54716 0.30973 0.12124 0.0
O52 O 0.51056 0.23379 0.11751 0.0
C53 C 0.47841 0.3252 0.07641 0.0
O54 O 0.49062 0.2493 0.08775 0.0
O55 O 0.48496 0.30619 0.06646 0.0
C56 C 0.95075 0.74759 0.19593 0.0
O57 O 0.96551 0.73635 0.20738 0.0
Cd58 Cd 0.00643 0.73513 0.19904 0.0
O59 O 0.95714 0.75972 0.17822 0.0
Cd60 Cd -0.0062 0.77009 0.156 0.0
C61 C -0.00346 0.70976 0.13915 0.0
O62 O 0.02211 0.77672 0.19304 0.0
O63 O 0.03873 0.78085 0.1597 0.0
O64 O 0.98365 0.81056 0.14988 0.0
C65 C 0.0414 0.78142 0.18282 0.0
O66 O 0.00291 0.70756 0.1615 0.0
C67 C 0.98327 0.8081 0.12672 0.0
O68 O 0.99151 0.72999 0.13259 0.0
O69 O 0.98748 0.78779 0.11708 0.0
C70 C 0.47753 0.7818 0.32611 0.0
O71 O 0.49135 0.79661 0.31498 0.0
Cd72 Cd 0.53179 0.81499 0.32985 0.0
O73 O 0.48526 0.77514 0.34658 0.0
Cd74 Cd 0.52491 0.78246 0.37388 0.0
C75 C 0.52243 0.84353 0.38494 0.0
O76 O 0.54884 0.77984 0.34006 0.0
O77 O 0.57047 0.79171 0.3746 0.0
O78 O 0.51959 0.73925 0.38164 0.0
C79 C 0.56968 0.78472 0.35196 0.0
O80 O 0.52705 0.84561 0.36298 0.0
C81 C 0.51987 0.74308 0.40468 0.0
O82 O 0.52057 0.82273 0.39345 0.0
O83 O 0.52218 0.76534 0.41367 0.0
C84 C 0.45162 0.24881 0.6949 0.0
O85 O 0.46704 0.23884 0.70701 0.0
Cd86 Cd 0.50837 0.23892 0.69949 0.0
O87 O 0.45733 0.25985 0.67628 0.0
Cd88 Cd 0.4942 0.26851 0.65369 0.0
C89 C 0.49964 0.20819 0.64192 0.0
O90 O 0.52256 0.28002 0.69105 0.0
O91 O 0.53894 0.2801 0.65738 0.0
O92 O 0.47959 0.30588 0.64204 0.0
C93 C 0.54172 0.28389 0.6805 0.0
O94 O 0.50777 0.20898 0.66435 0.0
C95 C 0.48479 0.30346 0.62011 0.0
O96 O 0.4918 0.22655 0.6337 0.0
O97 O 0.49358 0.28452 0.6137 0.0
C98 C 0.97698 0.28272 0.82606 0.0
O99 O 0.99108 0.29843 0.81615 0.0
Cd100 Cd 0.03219 0.31484 0.83094 0.0
O101 O 0.98453 0.27417 0.84557 0.0
Cd102 Cd 0.02456 0.28022 0.87212 0.0
C103 C 0.02379 0.3409 0.88718 0.0
O104 O 0.04869 0.27863 0.83813 0.0
O105 O 0.06981 0.29038 0.87299 0.0
O106 O 0.0184 0.23663 0.87867 0.0
C107 C 0.06934 0.28319 0.85046 0.0
O108 O 0.03035 0.34442 0.86609 0.0
C109 C 0.02176 0.24014 0.90187 0.0
O110 O 0.01941 0.31922 0.89359 0.0
O111 O 0.02559 0.26233 0.91138 0.0
C112 C 0.43823 0.06632 0.29039 0.0
O113 O 0.44967 0.05531 0.27537 0.0
Cd114 Cd 0.43629 0.04345 0.23318 0.0
O115 O 0.41857 0.07352 0.28303 0.0
Cd116 Cd 0.39374 0.07291 0.24237 0.0
C117 C 0.37965 0.01088 0.23901 0.0
O118 O 0.42618 0.07888 0.21603 0.0
O119 O 0.39126 0.06257 0.19711 0.0
O120 O 0.38627 0.11565 0.24776 0.0
C121 C 0.41344 0.07141 0.19581 0.0
O122 O 0.40083 0.01067 0.23246 0.0
C123 C 0.36337 0.10967 0.24755 0.0
O124 O 0.37284 0.03112 0.24522 0.0
O125 O 0.3547 0.08679 0.24497 0.0
C126 C 0.27606 0.08896 0.49911 0.0
O127 O 0.25617 0.07684 0.50424 0.0
Cd128 Cd 0.21672 0.08739 0.49531 0.0
O129 O 0.27633 0.108 0.48758 0.0
Cd130 Cd 0.24722 0.13243 0.46994 0.0
C131 C 0.2302 0.14452 0.52674 0.0
O132 O 0.21608 0.09796 0.45418 0.0
O133 O 0.20457 0.1329 0.45342 0.0
O134 O 0.27167 0.14498 0.43689 0.0
C135 C 0.19921 0.10971 0.44868 0.0
O136 O 0.21693 0.12325 0.52502 0.0
C137 C 0.27262 0.16788 0.44286 0.0
O138 O 0.24342 0.15089 0.51009 0.0
O139 O 0.2619 0.17379 0.46117 0.0
C140 C 0.09243 0.00647 0.81083 0.0
O141 O 0.08298 0.01604 0.79304 0.0
Cd142 Cd 0.09797 0.02164 0.75497 0.0
O143 O 0.11241 -0.0016 0.8094 0.0
Cd144 Cd 0.14117 0.996 0.77659 0.0
C145 C 0.15333 0.05819 0.77542 0.0
O146 O 0.10861 0.98271 0.74338 0.0
O147 O 0.14425 0.99269 0.73217 0.0
O148 O 0.14969 0.95694 0.79072 0.0
C149 C 0.12204 0.98358 0.72619 0.0
O150 O 0.13196 0.05594 0.76445 0.0
C151 C 0.17194 0.96093 0.78693 0.0
O152 O 0.16134 0.03959 0.78284 0.0
O153 O 0.18008 0.98173 0.78008 0.0
C154 C 0.24965 0.92666 0.01722 0.0
O155 O 0.23465 0.93657 0.00452 0.0
Cd156 Cd 0.19203 0.92304 -0.00085 0.0
O157 O 0.24224 0.90805 0.02848 0.0
Cd158 Cd 0.20204 0.8822 0.03387 0.0
C159 C 0.19314 0.86525 0.97185 0.0
O160 O 0.18389 0.91858 0.04049 0.0
O161 O 0.15775 0.88519 0.03618 0.0
O162 O 0.22268 0.87724 0.0742 0.0
C163 C 0.16219 0.90838 0.04137 0.0
O164 O 0.18728 0.88628 0.96982 0.0
C165 C 0.21262 0.85503 0.07482 0.0
O166 O 0.20019 0.85929 0.99281 0.0
O167 O 0.19772 0.84535 0.05642 0.0
C168 C 0.28471 0.45056 0.05632 0.0
O169 O 0.27359 0.46377 0.04316 0.0
Cd170 Cd 0.23529 0.45257 0.01987 0.0
O171 O 0.27471 0.42884 0.05984 0.0
Cd172 Cd 0.23339 0.40277 0.04905 0.0
C173 C 0.24381 0.39758 0.98968 0.0
O174 O 0.21118 0.43556 0.0489 0.0
O175 O 0.1909 0.40123 0.03128 0.0
O176 O 0.22747 0.39211 0.08996 0.0
C177 C 0.19134 0.42379 0.03801 0.0
O178 O 0.24116 0.41996 0.9891 0.0
C179 C 0.22515 0.36902 0.08454 0.0
O180 O 0.24262 0.38716 0.00934 0.0
O181 O 0.22756 0.36156 0.06262 0.0
C182 C 0.82493 0.12063 0.0039 0.0
O183 O 0.80956 0.10962 0.01655 0.0
Cd184 Cd 0.77398 0.12267 0.02863 0.0
O185 O 0.82228 0.14131 0.99621 0.0
Cd186 Cd 0.78905 0.16797 -0.00235 0.0
C187 C 0.79197 0.1806 0.0602 0.0
O188 O 0.75565 0.13313 0.99135 0.0
O189 O 0.74563 0.16793 0.00237 0.0
O190 O 0.78506 0.17293 0.95389 0.0
C191 C 0.73891 0.14528 0.99485 0.0
O192 O 0.78389 0.15768 0.06008 0.0
C193 C 0.79135 0.19613 0.95575 0.0
O194 O 0.79656 0.18977 0.04028 0.0
O195 O 0.79804 0.20671 0.97727 0.0
C196 C 0.06648 0.4935 0.30584 0.0
O197 O 0.05738 0.5058 0.2901 0.0
Cd198 Cd 0.06337 0.50679 0.24769 0.0
O199 O 0.08188 0.47991 0.3002 0.0
Cd200 Cd 0.10315 0.47339 0.26228 0.0
C201 C 0.12206 0.53489 0.2585 0.0
O202 O 0.06668 0.46628 0.23197 0.0
O203 O 0.10075 0.47 0.21689 0.0
O204 O 0.11359 0.43312 0.27315 0.0
C205 C 0.07777 0.46616 0.213 0.0
O206 O 0.10123 0.53539 0.24744 0.0
C207 C 0.13583 0.43886 0.26952 0.0
O208 O 0.12654 0.51573 0.26799 0.0
O209 O 0.14246 0.46027 0.26326 0.0
C210 C 0.79134 0.95643 0.55942 0.0
O211 O 0.78184 0.96981 0.54509 0.0
Cd212 Cd 0.74525 0.95887 0.5184 0.0
O213 O 0.78026 0.935 0.56245 0.0
Cd214 Cd 0.73919 0.9098 0.54868 0.0
C215 C 0.75476 0.90315 0.49118 0.0
O216 O 0.71669 0.94239 0.54397 0.0
O217 O 0.69832 0.90698 0.52685 0.0
O218 O 0.72937 0.89864 0.58865 0.0
C219 C 0.698 0.92972 0.5316 0.0
O220 O 0.75275 0.92554 0.48937 0.0
C221 C 0.72816 0.87567 0.58323 0.0
O222 O 0.7517 0.89341 0.51098 0.0
O223 O 0.73257 0.86866 0.56183 0.0
C224 C 0.90137 0.05766 0.28027 0.0
O225 O 0.91528 0.04836 0.26667 0.0
Cd226 Cd 0.90394 0.03506 0.22433 0.0
O227 O 0.88074 0.06164 0.27143 0.0
Cd228 Cd 0.85648 0.05898 0.23096 0.0
C229 C 0.8491 0.99685 0.22808 0.0
O230 O 0.89134 0.07035 0.20902 0.0
O231 O 0.85826 0.0557 0.18597 0.0
O232 O 0.84805 0.09854 0.24708 0.0
C233 C 0.88059 0.06533 0.18759 0.0
O234 O 0.87097 -0.0007 0.22279 0.0
C235 C 0.82569 0.09442 0.23894 0.0
O236 O 0.83948 0.01564 0.23335 0.0
O237 O 0.8174 0.07361 0.22692 0.0
C238 C 0.33212 0.62668 0.51546 0.0
O239 O 0.31652 0.61604 0.52811 0.0
Cd240 Cd 0.27768 0.62513 0.53457 0.0
O241 O 0.32797 0.64524 0.50447 0.0
Cd242 Cd 0.29251 0.66909 0.50249 0.0
C243 C 0.29302 0.68355 0.56448 0.0
O244 O 0.25919 0.63361 0.49636 0.0
O245 O 0.24929 0.66867 0.50683 0.0
O246 O 0.28979 0.67262 0.45841 0.0
C247 C 0.2425 0.64603 0.49949 0.0
O248 O 0.28483 0.66073 0.56476 0.0
C249 C 0.29465 0.69591 0.45974 0.0
O250 O 0.29862 0.69221 0.54458 0.0
O251 O 0.30007 0.70719 0.48113 0.0
C252 C 0.39716 0.5484 0.77367 0.0
O253 O 0.40844 0.53815 0.75795 0.0
Cd254 Cd 0.39494 0.52878 0.71571 0.0
O255 O 0.3771 0.55528 0.76729 0.0
Cd256 Cd 0.3511 0.55571 0.72795 0.0
C257 C 0.33941 0.4934 0.72113 0.0
O258 O 0.38482 0.56662 0.70449 0.0
O259 O 0.35109 0.55271 0.68242 0.0
O260 O 0.34416 0.59568 0.74554 0.0
C261 C 0.37339 0.56224 0.68336 0.0
O262 O 0.36038 0.49473 0.71366 0.0
C263 C 0.32163 0.59212 0.73807 0.0
O264 O 0.33192 0.51277 0.72906 0.0
O265 O 0.3127 0.57153 0.72595 0.0
C266 C 0.56288 0.99242 0.80819 0.0
O267 O 0.55084 0.00122 0.7915 0.0
Cd268 Cd 0.56069 0.00702 0.75085 0.0
O269 O 0.58223 0.98411 0.80416 0.0
Cd270 Cd 0.60526 0.9786 0.76748 0.0
C271 C 0.61852 0.0404 0.76459 0.0
O272 O 0.57031 0.96902 0.73561 0.0
O273 O 0.60528 0.97636 0.72246 0.0
O274 O 0.61649 0.93894 0.77845 0.0
C275 C 0.58242 0.97078 0.71741 0.0
O276 O 0.59697 0.03907 0.75432 0.0
C277 C 0.63894 0.94554 0.77612 0.0
O278 O 0.62549 0.02176 0.77309 0.0
O279 O 0.64543 0.96731 0.7707 0.0
C280 C 0.77085 0.59496 0.99159 0.0
O281 O 0.75071 0.58234 0.99544 0.0
Cd282 Cd 0.7122 0.59546 0.99086 0.0
O283 O 0.77175 0.61582 0.98319 0.0
Cd284 Cd 0.74438 0.64388 0.96923 0.0
C285 C 0.72861 0.65081 0.02709 0.0
O286 O 0.71075 0.61233 0.95256 0.0
O287 O 0.70242 0.64876 0.9559 0.0
O288 O 0.76814 0.65699 0.93602 0.0
C289 C 0.69483 0.62591 0.95033 0.0
O290 O 0.71665 0.62886 0.02421 0.0
C291 C 0.77138 0.67975 0.94377 0.0
O292 O 0.74054 0.65969 0.01042 0.0
O293 O 0.76211 0.68543 0.96315 0.0
C294 C 0.93428 0.56916 0.79036 0.0
O295 O 0.94717 0.55894 0.77627 0.0
Cd296 Cd 0.93607 0.54693 0.73357 0.0
O297 O 0.91477 0.57583 0.78171 0.0
Cd298 Cd 0.89264 0.57636 0.73994 0.0
C299 C 0.8785 0.51463 0.73705 0.0
O300 O 0.92683 0.58211 0.71529 0.0
O301 O 0.89208 0.56723 0.69507 0.0
O302 O 0.88673 0.61884 0.7501 0.0
C303 C 0.91457 0.57526 0.69467 0.0
O304 O 0.90009 0.51447 0.73164 0.0
C305 C 0.86378 0.61436 0.7448 0.0
O306 O 0.8713 0.53481 0.74257 0.0
O307 O 0.85427 0.59224 0.73712 0.0
C308 C 0.75047 0.42689 0.51239 0.0
O309 O 0.73602 0.43689 0.49903 0.0
Cd310 Cd 0.6931 0.42536 0.49189 0.0
O311 O 0.74239 0.40884 0.52413 0.0
Cd312 Cd 0.7017 0.38361 0.52998 0.0
C313 C 0.69402 0.36601 0.46748 0.0
O314 O 0.68429 0.42036 0.53261 0.0
O315 O 0.6577 0.38823 0.53434 0.0
O316 O 0.72253 0.38 0.57066 0.0
C317 C 0.66252 0.4115 0.53499 0.0
O318 O 0.68949 0.38743 0.46457 0.0
C319 C 0.71254 0.35789 0.57203 0.0
O320 O 0.69948 0.36005 0.48891 0.0
O321 O 0.69754 0.34764 0.5539 0.0
C322 C 0.5962 0.50358 0.31273 0.0
O323 O 0.58636 0.51147 0.29405 0.0
Cd324 Cd 0.60156 0.51597 0.25583 0.0
O325 O 0.61704 0.49715 0.31246 0.0
Cd326 Cd 0.64661 0.49618 0.28057 0.0
C327 C 0.65465 0.55706 0.27546 0.0
O328 O 0.61644 0.47922 0.24605 0.0
O329 O 0.65075 0.49702 0.23658 0.0
O330 O 0.65683 0.45785 0.29449 0.0
C331 C 0.63008 0.48406 0.22948 0.0
O332 O 0.63436 0.55159 0.26206 0.0
C333 C 0.67908 0.46276 0.29093 0.0
O334 O 0.66302 0.54093 0.2873 0.0
O335 O 0.68661 0.48392 0.28453 0.0
Tb336 Tb 0.01169 0.04876 0.00929 0.0
C337 C 0.00741 0.01041 0.96255 0.0
Tb338 Tb 0.98655 0.99476 0.00984 0.0
O339 O 0.04321 0.04263 0.03374 0.0
O340 O 0.02222 0.01414 0.01044 0.0
O341 O 0.00543 0.03319 0.9708 0.0
C342 C 0.98206 0.95215 0.0295 0.0
O343 O 0.00439 0.992 0.97654 0.0
C344 C 0.95811 0.02347 0.99119 0.0
C345 C 0.98481 0.03521 0.05513 0.0
O346 O 0.97118 0.95516 0.00829 0.0
O347 O -0.00468 0.9728 0.039 0.0
O348 O 0.95365 -0.00053 0.98687 0.0
O349 O 0.97575 0.0291 0.00764 0.0
O350 O 0.9811 0.01173 0.04586 0.0
O351 O -0.00442 0.05341 0.04355 0.0
C352 C 0.02434 0.09406 0.99583 0.0
O353 O 0.03365 0.07499 0.98909 0.0
O354 O 0.00834 0.08777 0.01069 0.0
C355 C 0.03898 0.01893 0.02769 0.0
Tb356 Tb 0.26653 0.80012 0.26607 0.0
C357 C 0.30233 0.76274 0.26932 0.0
Tb358 Tb 0.24533 0.74514 0.26376 0.0
O359 O 0.2831 0.80109 0.3037 0.0
O360 O 0.25164 0.77572 0.29092 0.0
O361 O 0.29897 0.7843 0.26223 0.0
C362 C 0.2309 0.69731 0.26774 0.0
O363 O 0.28414 0.74563 0.2738 0.0
C364 C 0.2439 0.76398 0.22149 0.0
C365 C 0.20932 0.78224 0.26013 0.0
O366 O 0.24192 0.70637 0.25002 0.0
O367 O 0.22828 0.71521 0.28351 0.0
O368 O 0.22833 0.74551 0.22644 0.0
O369 O 0.26042 0.76955 0.23919 0.0
O370 O 0.21245 0.76061 0.26741 0.0
O371 O 0.22777 0.79941 0.2563 0.0
C372 C 0.2824 0.84597 0.25595 0.0
O373 O 0.27026 0.84028 0.27423 0.0
O374 O 0.28532 0.82596 0.24354 0.0
C375 C 0.2682 0.782 0.30859 0.0
Tb376 Tb 0.52617 0.02437 0.50191 0.0
C377 C 0.51377 0.00873 0.55324 0.0
Tb378 Tb 0.47462 0.02481 0.51488 0.0
O379 O 0.54077 0.05507 0.52956 0.0
O380 O 0.50546 0.05159 0.51179 0.0
O381 O 0.52794 0.00667 0.53545 0.0
C382 C 0.43449 0.0358 0.53219 0.0
O383 O 0.49296 0.01731 0.54996 0.0
C384 C 0.48161 0.98527 0.48885 0.0
C385 C 0.4875 0.04089 0.46358 0.0
O386 O 0.43739 0.01393 0.52392 0.0
O387 O 0.45439 0.05123 0.53119 0.0
O388 O 0.4613 0.99363 0.48667 0.0
O389 O 0.49572 -0.00207 0.50596 0.0
O390 O 0.47216 0.04145 0.4805 0.0
O391 O 0.50874 0.03349 0.46758 0.0
C392 C 0.56448 0.01158 0.48245 0.0
O393 O 0.5643 0.03244 0.49508 0.0
O394 O 0.543 -0.00181 0.48061 0.0
C395 C 0.52051 0.06356 0.52879 0.0
Tb396 Tb 0.26172 0.28406 0.786 0.0
C397 C 0.26398 0.3224 0.74606 0.0
Tb398 Tb 0.24869 0.26495 0.73184 0.0
O399 O 0.29417 0.2665 0.78777 0.0
O400 O 0.28086 0.27835 0.75538 0.0
O401 O 0.2635 0.31886 0.7696 0.0
C402 C 0.24814 0.24989 0.68481 0.0
O403 O 0.25992 0.30401 0.72817 0.0
C404 C 0.21162 0.26763 0.75713 0.0
C405 C 0.245 0.22754 0.77102 0.0
O406 O 0.2644 0.24687 0.70209 0.0
O407 O 0.23233 0.2617 0.69394 0.0
O408 O 0.21093 0.25173 0.73828 0.0
O409 O 0.23164 0.28216 0.75958 0.0
O410 O 0.2513 0.23122 0.74887 0.0
O411 O 0.24431 0.24604 0.78774 0.0
C412 C 0.2627 0.3053 0.83122 0.0
O413 O 0.246 0.28748 0.82062 0.0
O414 O 0.27901 0.31106 0.81646 0.0
C415 C 0.29622 0.26673 0.76453 0.0
Tb416 Tb 0.97995 0.02818 0.48695 0.0
C417 C 0.95698 0.01025 0.53336 0.0
Tb418 Tb 0.01352 0.01669 0.5303 0.0
O419 O 0.96712 0.98885 0.47505 0.0
O420 O 0.00114 0.001 0.49414 0.0
O421 O 0.95574 0.02516 0.51575 0.0
C422 C 0.03849 -0.00286 0.56474 0.0
O423 O 0.97726 0.00204 0.54018 0.0
C424 C 0.0064 0.06252 0.53121 0.0
C425 C 0.03677 0.03431 0.48414 0.0
O426 O 0.0468 0.01613 0.55391 0.0
O427 O 0.01593 0.98908 0.5563 0.0
O428 O 0.02542 0.05636 0.54247 0.0
O429 O 0.99185 0.04339 0.52311 0.0
O430 O 0.03791 0.01946 0.50175 0.0
O431 O 0.01637 0.04215 0.47701 0.0
C432 C 0.95719 0.0495 0.45236 0.0
O433 O 0.94833 0.02927 0.46101 0.0
O434 O 0.97887 0.05782 0.46326 0.0
C435 C 0.98593 0.98212 0.48615 0.0
Tb436 Tb 0.2719 0.77565 0.78321 0.0
C437 C 0.22867 0.78462 0.813 0.0
Tb438 Tb 0.22333 0.77758 0.75454 0.0
O439 O 0.27586 0.8143 0.79741 0.0
O440 O 0.257 0.80157 0.76323 0.0
O441 O 0.24965 0.77633 0.81361 0.0
C442 C 0.1847 0.79013 0.73069 0.0
O443 O 0.21628 0.78809 0.79215 0.0
C444 C 0.23237 0.73301 0.75895 0.0
C445 C 0.26554 0.76602 0.72507 0.0
O446 O 0.18518 0.76929 0.73965 0.0
O447 O 0.20577 0.80425 0.73591 0.0
O448 O 0.21868 0.73863 0.74078 0.0
O449 O 0.2383 0.75158 0.77455 0.0
O450 O 0.24593 0.7765 0.72451 0.0
O451 O 0.27665 0.76115 0.74596 0.0
C452 C 0.31474 0.76646 0.80071 0.0
O453 O 0.29404 0.75682 0.80758 0.0
O454 O 0.31127 0.78132 0.78436 0.0
C455 C 0.26239 0.81994 0.77912 0.0
Tb456 Tb 0.47375 0.00732 0.00967 0.0
C457 C 0.51523 0.97571 0.01298 0.0
Tb458 Tb 0.52631 0.03384 0.01301 0.0
O459 O 0.47575 0.98943 0.97341 0.0
O460 O 0.49697 0.02398 0.98486 0.0
O461 O 0.49206 0.97637 0.01585 0.0
C462 C 0.57209 0.05408 0.00813 0.0
O463 O 0.53134 0.99564 0.01069 0.0
C464 C 0.50677 0.03525 0.05455 0.0
C465 C 0.48594 0.06506 0.01118 0.0
O466 O 0.55756 0.0394 0.99144 0.0
O467 O 0.56099 0.05693 0.0274 0.0
O468 O 0.5242 0.05176 0.04932 0.0
O469 O 0.50287 0.01759 0.03777 0.0
O470 O 0.50684 0.06273 0.00262 0.0
O471 O 0.47142 0.04602 0.01806 0.0
C472 C 0.4271 0.99132 0.01477 0.0
O473 O 0.43502 0.00516 -0.00162 0.0
O474 O 0.44546 0.98641 0.02837 0.0
C475 C 0.49308 0.00616 0.96825 0.0
Tb476 Tb 0.22918 0.26894 0.28149 0.0
C477 C 0.27737 0.27527 0.31697 0.0
Tb478 Tb 0.27731 0.28449 0.26127 0.0
O479 O 0.2384 0.23292 0.28771 0.0
O480 O 0.25188 0.25155 0.25929 0.0
O481 O 0.25362 0.2752 0.31517 0.0
C482 C 0.32022 0.28715 0.24379 0.0
O483 O 0.29027 0.27755 0.29809 0.0
C484 C 0.25432 0.321 0.27254 0.0
C485 C 0.22988 0.27592 0.2261 0.0
O486 O 0.31308 0.27367 0.26072 0.0
O487 O 0.30339 0.29926 0.23695 0.0
O488 O 0.27013 0.32162 0.25684 0.0
O489 O 0.25473 0.30196 0.28343 0.0
O490 O 0.25236 0.27122 0.22852 0.0
O491 O 0.21777 0.27903 0.24536 0.0
C492 C 0.18738 0.26502 0.30118 0.0
O493 O 0.19233 0.24933 0.28431 0.0
O494 O 0.20553 0.28309 0.30609 0.0
C495 C 0.25309 0.23312 0.2709 0.0
Tb496 Tb 0.4812 0.52197 0.98662 0.0
C497 C 0.45246 0.5058 0.03017 0.0
Tb498 Tb 0.51024 0.5168 0.03606 0.0
O499 O 0.46871 0.48232 0.97877 0.0
O500 O 0.50091 0.4962 0.00128 0.0
O501 O 0.45184 0.51709 0.00983 0.0
C502 C 0.53305 0.50323 0.07574 0.0
O503 O 0.47285 0.50118 0.0417 0.0
C504 C 0.50354 0.56143 0.02919 0.0
C505 C 0.53857 0.53809 0.99436 0.0
O506 O 0.51828 0.51893 0.07572 0.0
O507 O 0.53488 0.49488 0.05341 0.0
O508 O 0.52166 0.55683 0.04335 0.0
O509 O 0.48937 0.54165 0.02176 0.0
O510 O 0.54006 0.52633 0.01424 0.0
O511 O 0.51768 0.54115 0.98282 0.0
C512 C 0.46437 0.53585 0.94426 0.0
O513 O 0.48229 0.52406 0.94758 0.0
O514 O 0.4555 0.53979 0.96491 0.0
C515 C 0.48581 0.47686 0.99365 0.0
Tb516 Tb 0.7773 0.27686 0.27993 0.0
C517 C 0.73461 0.28631 0.31054 0.0
Tb518 Tb 0.72855 0.28006 0.25204 0.0
O519 O 0.78229 0.31555 0.29413 0.0
O520 O 0.76272 0.30328 0.26025 0.0
O521 O 0.75542 0.27773 0.31061 0.0
C522 C 0.68994 0.29382 0.22935 0.0
O523 O 0.72202 0.29022 0.28996 0.0
C524 C 0.73634 0.23516 0.25681 0.0
C525 C 0.76964 0.26641 0.22184 0.0
O526 O 0.69052 0.27233 0.23679 0.0
O527 O 0.71095 0.30788 0.23528 0.0
O528 O 0.72264 0.24088 0.23869 0.0
O529 O 0.74301 0.25388 0.27207 0.0
O530 O 0.75056 0.27774 0.22156 0.0
O531 O 0.78099 0.26155 0.24263 0.0
C532 C 0.81984 0.2675 0.29841 0.0
O533 O 0.79887 0.25788 0.30469 0.0
O534 O 0.81677 0.28218 0.28176 0.0
C535 C 0.76874 0.3216 0.27616 0.0
Tb536 Tb 0.97498 0.50964 0.50613 0.0
C537 C 0.01775 0.48108 0.51533 0.0
Tb538 Tb 0.02666 0.53857 0.51005 0.0
O539 O 0.98077 0.48893 0.47222 0.0
O540 O -0.00133 0.52519 0.48133 0.0
O541 O -0.00548 0.48137 0.51802 0.0
C542 C 0.07255 0.55823 0.505 0.0
O543 O 0.03291 0.50069 0.51034 0.0
C544 C 0.00511 0.5427 0.55007 0.0
C545 C 0.98431 0.56746 0.50437 0.0
O546 O 0.05612 0.54859 0.4871 0.0
O547 O 0.0632 0.55654 0.52552 0.0
O548 O 0.02197 0.55945 0.54408 0.0
O549 O 0.00273 0.52365 0.53503 0.0
O550 O 0.0065 0.56649 0.49833 0.0
O551 O 0.96999 0.54797 0.51078 0.0
C552 C 0.92808 0.49184 0.50885 0.0
O553 O 0.93664 0.50395 0.49152 0.0
O554 O 0.94595 0.48967 0.52475 0.0
C555 C -0.00291 0.50629 0.4664 0.0
Tb556 Tb 0.76337 0.78456 0.28898 0.0
C557 C 0.77022 0.82556 0.25145 0.0
Tb558 Tb 0.7505 0.76966 0.23393 0.0
O559 O 0.7935 0.76375 0.28957 0.0
O560 O 0.78256 0.77915 0.25836 0.0
O561 O 0.76825 0.82063 0.2745 0.0
C562 C 0.75202 0.75327 0.18765 0.0
O563 O 0.76568 0.80824 0.23255 0.0
C564 C 0.71329 0.77366 0.25872 0.0
C565 C 0.7425 0.72953 0.27068 0.0
O566 O 0.73967 0.77002 0.19479 0.0
O567 O 0.76378 0.74641 0.20647 0.0
O568 O 0.71169 0.75963 0.23835 0.0
O569 O 0.73425 0.7864 0.26258 0.0
O570 O 0.74924 0.73451 0.249 0.0
O571 O 0.74339 0.74708 0.28886 0.0
C572 C 0.76707 0.80495 0.3348 0.0
O573 O 0.74858 0.78918 0.32402 0.0
O574 O 0.78351 0.80907 0.31988 0.0
C575 C 0.79628 0.7654 0.26663 0.0
Tb576 Tb 0.76636 0.30366 0.76383 0.0
C577 C 0.80197 0.26603 0.76697 0.0
Tb578 Tb 0.74481 0.24888 0.76204 0.0
O579 O 0.7831 0.30454 0.80146 0.0
O580 O 0.75128 0.27969 0.78885 0.0
O581 O 0.79871 0.28768 0.76005 0.0
C582 C 0.7293 0.2016 0.76762 0.0
O583 O 0.78369 0.2489 0.77128 0.0
C584 C 0.7429 0.26734 0.71956 0.0
C585 C 0.70916 0.28633 0.75867 0.0
O586 O 0.72894 0.22005 0.78366 0.0
O587 O 0.73874 0.20976 0.74867 0.0
O588 O 0.72739 0.24898 0.72488 0.0
O589 O 0.7597 0.27297 0.73703 0.0
O590 O 0.71228 0.26481 0.76619 0.0
O591 O 0.72759 0.30324 0.7543 0.0
C592 C 0.78213 0.34941 0.75349 0.0
O593 O 0.77 0.3438 0.7718 0.0
O594 O 0.78513 0.32938 0.74117 0.0
C595 C 0.76786 0.28576 0.80649 0.0
Tb596 Tb 0.73505 0.77806 0.78199 0.0
C597 C 0.78242 0.78648 0.81902 0.0
Tb598 Tb 0.78389 0.79478 0.76304 0.0
O599 O 0.7447 0.74211 0.78809 0.0
O600 O 0.75865 0.76168 0.76036 0.0
O601 O 0.75849 0.78515 0.81627 0.0
C602 C 0.82721 0.7968 0.74653 0.0
O603 O 0.79602 0.78919 0.80065 0.0
C604 C 0.75923 0.83006 0.77287 0.0
C605 C 0.73674 0.7869 0.72678 0.0
O606 O 0.8148 0.77773 0.75434 0.0
O607 O 0.81536 0.81495 0.74818 0.0
O608 O 0.77479 0.83074 0.75683 0.0
O609 O 0.76018 0.81143 0.78437 0.0
O610 O 0.75988 0.7842 0.72921 0.0
O611 O 0.7239 0.78807 0.74576 0.0
C612 C 0.69236 0.77278 0.80004 0.0
O613 O 0.69859 0.75717 0.78392 0.0
O614 O 0.7098 0.79152 0.80519 0.0
C615 C 0.75996 0.74318 0.77182 0.0
Tb616 Tb 0.5062 0.54841 0.50702 0.0
C617 C 0.51093 0.50889 0.464 0.0
Tb618 Tb 0.48806 0.49319 0.51161 0.0
O619 O 0.54409 0.54383 0.51398 0.0
O620 O 0.51706 0.5207 0.52819 0.0
O621 O 0.50692 0.53152 0.46997 0.0
C622 C 0.48334 0.44611 0.5213 0.0
O623 O 0.50649 0.49092 0.47834 0.0
C624 C 0.45472 0.51743 0.49394 0.0
C625 C 0.48058 0.53332 0.55325 0.0
O626 O 0.46634 0.4593 0.52096 0.0
O627 O 0.50298 0.45923 0.51544 0.0
O628 O 0.44997 0.49684 0.50357 0.0
O629 O 0.47703 0.52098 0.49116 0.0
O630 O 0.48383 0.51027 0.54785 0.0
O631 O 0.4874 0.55133 0.53961 0.0
C632 C 0.51224 0.5956 0.49771 0.0
O633 O 0.52878 0.58185 0.498 0.0
O634 O 0.49222 0.58295 0.50332 0.0
C635 C 0.53927 0.52408 0.52491 0.0
Tb636 Tb 0.02021 0.52626 -3e-05 0.0
C637 C 0.00657 0.50343 0.04955 0.0
Tb638 Tb 0.96821 0.52058 0.01313 0.0
O639 O 0.02501 0.56634 0.00738 0.0
O640 O 0.00176 0.54306 0.0264 0.0
O641 O 0.02146 0.50538 0.03209 0.0
C642 C 0.9262 0.5331 0.02343 0.0
O643 O 0.98528 0.51111 0.04745 0.0
C644 C 0.97968 0.48174 0.99002 0.0
C645 C 0.98253 0.54333 0.96313 0.0
O646 O 0.9292 0.51092 0.01637 0.0
O647 O 0.94687 0.54796 0.02505 0.0
O648 O 0.96338 0.48036 0.00543 0.0
O649 O 0.98663 0.50389 0.98679 0.0
O650 O 0.96622 0.53923 0.97915 0.0
O651 O 0.00455 0.53763 0.96654 0.0
C652 C 0.06208 0.51457 0.98841 0.0
O653 O 0.0599 0.53427 0.00198 0.0
O654 O 0.04071 0.50181 0.98122 0.0
C655 C 0.00878 0.56515 0.02286 0.0
H656 H 0.01828 0.23992 0.95115 0.0
H657 H 0.04782 0.10431 0.95594 0.0
H658 H 0.02729 0.19336 0.88697 0.0
H659 H 0.00742 0.13623 0.00933 0.0
H660 H 0.04817 0.14079 0.93378 0.0
H661 H 0.02099 0.20539 0.9758 0.0
C662 C 0.02079 0.22245 0.94226 0.0
C663 C 0.02243 0.21943 0.91696 0.0
C664 C 0.03941 0.13989 0.95046 0.0
C665 C 0.02604 0.18023 0.94504 0.0
C666 C 0.03937 0.1192 0.9632 0.0
C667 C 0.02753 0.11732 0.98443 0.0
C668 C 0.02778 0.15894 0.95919 0.0
C669 C 0.01673 0.13703 0.99299 0.0
C670 C 0.02233 0.20281 0.95631 0.0
C671 C 0.02574 0.19643 0.90637 0.0
N672 N 0.01708 0.15709 0.98031 0.0
N673 N 0.0276 0.17777 0.92049 0.0
H674 H 0.05273 0.76884 0.22883 0.0
H675 H 0.19553 0.81541 0.23027 0.0
H676 H 0.08529 0.80086 0.16846 0.0
H677 H 0.16614 0.75732 0.27228 0.0
H678 H 0.15428 0.8178 0.21345 0.0
H679 H 0.09347 0.77175 0.25052 0.0
C680 C 0.06843 0.77671 0.22025 0.0
C681 C 0.06569 0.78451 0.19675 0.0
C682 C 0.15687 0.80473 0.22656 0.0
C683 C 0.11213 0.78808 0.22153 0.0
C684 C 0.18039 0.80346 0.23635 0.0
C685 C 0.18431 0.78608 0.25271 0.0
C686 C 0.13705 0.78872 0.23336 0.0
C687 C 0.16395 0.77091 0.25965 0.0
C688 C 0.09162 0.77826 0.2326 0.0
C689 C 0.08663 0.79448 0.18646 0.0
N690 N 0.14116 0.77255 0.2499 0.0
N691 N 0.10899 0.79602 0.19894 0.0
H692 H 0.50757 0.88474 0.36947 0.0
H693 H 0.51432 0.95628 0.50163 0.0
H694 H 0.52604 0.85148 0.43502 0.0
H695 H 0.4626 0.96662 0.44226 0.0
H696 H 0.52505 0.92189 0.47633 0.0
H697 H 0.49742 0.91935 0.39483 0.0
C698 C 0.50971 0.88482 0.3892 0.0
C699 C 0.51765 0.86519 0.40017 0.0
C700 C 0.51129 0.93163 0.4689 0.0
C701 C 0.50622 0.90475 0.42917 0.0
C702 C 0.50521 0.95123 0.48325 0.0
C703 C 0.48753 0.96416 0.47394 0.0
C704 C 0.49991 0.92524 0.44494 0.0
C705 C 0.47623 0.95696 0.45008 0.0
C706 C 0.50374 0.90447 0.4036 0.0
C707 C 0.5199 0.86619 0.42582 0.0
N708 N 0.48277 0.93807 0.43626 0.0
N709 N 0.51436 0.88573 0.43948 0.0
H710 H 0.43411 0.22788 0.73435 0.0
H711 H 0.30791 0.27723 0.71923 0.0
H712 H 0.4135 0.26894 0.67507 0.0
H713 H 0.33256 0.2437 0.78246 0.0
H714 H 0.34437 0.27035 0.70052 0.0
H715 H 0.3951 0.22964 0.74988 0.0
C716 C 0.42134 0.23717 0.72448 0.0
C717 C 0.42724 0.24844 0.70341 0.0
C718 C 0.34177 0.26435 0.71842 0.0
C719 C 0.38237 0.25053 0.72126 0.0
C720 C 0.32089 0.26815 0.72906 0.0
C721 C 0.31727 0.26101 0.75243 0.0
C722 C 0.35917 0.25333 0.73126 0.0
C723 C 0.33474 0.24954 0.76444 0.0
C724 C 0.39904 0.23818 0.73342 0.0
C725 C 0.40983 0.26009 0.69142 0.0
N726 N 0.35499 0.24613 0.75375 0.0
N727 N 0.38823 0.26092 0.70057 0.0
H728 H 0.00431 0.88003 0.58747 0.0
H729 H 0.94979 0.94161 0.4783 0.0
H730 H 0.96421 0.83275 0.52553 0.0
H731 H 0.02312 0.96726 0.51233 0.0
H732 H 0.9492 0.90315 0.4977 0.0
H733 H 0.00484 0.91516 0.56358 0.0
C734 C -0.00465 0.8771 0.56892 0.0
C735 C 0.98422 0.85351 0.55838 0.0
C736 C 0.96544 0.91717 0.50061 0.0
C737 C 0.98477 0.89352 0.53114 0.0
C738 C 0.96582 0.93899 0.4896 0.0
C739 C 0.98638 0.95767 0.49424 0.0
C740 C 0.98555 0.91453 0.51659 0.0
C741 C 0.00674 0.95346 0.50883 0.0
C742 C -0.00411 0.89708 0.55529 0.0
C743 C 0.97304 0.8507 0.53422 0.0
N744 N 0.00567 0.93248 0.51992 0.0
N745 N 0.97343 0.87061 0.52135 0.0
H746 H 0.43834 0.74351 0.89528 0.0
H747 H 0.3574 0.78091 0.78273 0.0
H748 H 0.4671 0.77774 0.83408 0.0
H749 H 0.32635 0.74256 0.84041 0.0
H750 H 0.39779 0.77705 0.80032 0.0
H751 H 0.39718 0.74048 0.87479 0.0
C752 C 0.43602 0.75032 0.87753 0.0
C753 C 0.45616 0.76115 0.86648 0.0
C754 C 0.38221 0.76932 0.80913 0.0
C755 C 0.4093 0.75764 0.84302 0.0
C756 C 0.35916 0.77155 0.79909 0.0
C757 C 0.33872 0.76226 0.81036 0.0
C758 C 0.38484 0.75795 0.83077 0.0
C759 C 0.34184 0.75008 0.83134 0.0
C760 C 0.41254 0.74851 0.86584 0.0
C761 C 0.45213 0.76949 0.84342 0.0
N762 N 0.36461 0.74847 0.8411 0.0
N763 N 0.42917 0.76765 0.83254 0.0
H764 H 0.49194 0.1864 0.11382 0.0
H765 H 0.50467 0.10831 0.99363 0.0
H766 H 0.49303 0.22113 0.04671 0.0
H767 H 0.45797 0.07854 0.0459 0.0
H768 H 0.50395 0.14995 0.01253 0.0
H769 H 0.48377 0.14607 0.08978 0.0
C770 C 0.49046 0.18549 0.09402 0.0
C771 C 0.49321 0.20699 0.08216 0.0
C772 C 0.49347 0.13424 0.01942 0.0
C773 C 0.48414 0.16119 0.05473 0.0
C774 C 0.49385 0.11056 0.00868 0.0
C775 C 0.48146 0.09 0.01829 0.0
C776 C 0.4812 0.13713 0.04022 0.0
C777 C 0.46774 0.09388 0.03785 0.0
C778 C 0.4856 0.16256 0.08036 0.0
C779 C 0.49096 0.20488 0.05646 0.0
N780 N 0.46843 0.11699 0.04855 0.0
N781 N 0.48691 0.18229 0.04352 0.0
H782 H 0.11008 0.26323 0.42797 0.0
H783 H 0.14899 0.22654 0.29588 0.0
H784 H 0.06021 0.21809 0.37101 0.0
H785 H 0.18222 0.29225 0.3428 0.0
H786 H 0.11981 0.21686 0.32582 0.0
H787 H 0.14169 0.26611 0.4 0.0
C788 C 0.10601 0.2534 0.40981 0.0
C789 C 0.08254 0.24068 0.40158 0.0
C790 C 0.1335 0.2334 0.32942 0.0
C791 C 0.11821 0.24414 0.36962 0.0
C792 C 0.14993 0.23901 0.31233 0.0
C793 C 0.1678 0.26027 0.3169 0.0
C794 C 0.13539 0.249 0.35125 0.0
C795 C 0.16856 0.27574 0.33855 0.0
C796 C 0.1239 0.25527 0.3938 0.0
C797 C 0.0781 0.22833 0.37786 0.0
N798 N 0.15267 0.26972 0.35502 0.0
N799 N 0.09574 0.23055 0.36256 0.0
H800 H 0.86774 0.03742 0.14354 0.0
H801 H 0.98974 0.07932 0.08416 0.0
H802 H 0.92597 0.09078 0.18381 0.0
H803 H 0.94962 0.00479 0.07413 0.0
H804 H 0.96373 0.08925 0.11591 0.0
H805 H 0.89414 0.03157 0.11138 0.0
C806 C 0.88591 0.04822 0.1454 0.0
C807 C 0.89479 0.06444 0.16642 0.0
C808 C 0.96088 0.07073 0.10674 0.0
C809 C 0.92495 0.05784 0.12982 0.0
C810 C 0.97572 0.06503 0.08877 0.0
C811 C 0.97195 0.04118 0.0765 0.0
C812 C 0.94185 0.05262 0.11188 0.0
C813 C 0.95339 0.02339 0.08311 0.0
C814 C 0.90101 0.04472 0.12718 0.0
C815 C 0.91855 0.07793 0.16794 0.0
N816 N 0.93888 0.02956 0.1001 0.0
N817 N 0.93289 0.07431 0.14986 0.0
H818 H 0.31278 0.7442 0.45379 0.0
H819 H 0.23825 0.74253 0.32321 0.0
H820 H 0.27027 0.67757 0.41511 0.0
H821 H 0.30519 0.79341 0.34556 0.0
H822 H 0.24549 0.72115 0.35969 0.0
H823 H 0.3063 0.76548 0.41701 0.0
C824 C 0.30218 0.73404 0.43757 0.0
C825 C 0.29218 0.70903 0.43749 0.0
C826 C 0.25862 0.73695 0.35652 0.0
C827 C 0.28424 0.73335 0.39566 0.0
C828 C 0.25456 0.74902 0.33562 0.0
C829 C 0.27137 0.7694 0.33104 0.0
C830 C 0.27936 0.74573 0.37328 0.0
C831 C 0.2918 0.77765 0.3483 0.0
C832 C 0.2985 0.74617 0.41662 0.0
C833 C 0.2785 0.69679 0.41596 0.0
N834 N 0.29518 0.76588 0.36869 0.0
N835 N 0.27475 0.7091 0.39603 0.0
H836 H 0.60351 0.97117 0.67479 0.0
H837 H 0.49077 0.00827 0.59554 0.0
H838 H 0.5351 0.97513 0.70345 0.0
H839 H 0.55539 0.99126 0.56597 0.0
H840 H 0.50604 0.99642 0.63523 0.0
H841 H 0.58556 0.97842 0.63466 0.0
C842 C 0.58462 0.97335 0.67257 0.0
C843 C 0.57082 0.97258 0.69252 0.0
C844 C 0.51674 0.99518 0.61995 0.0
C845 C 0.55011 0.98126 0.64655 0.0
C846 C 0.50806 0.00197 0.59731 0.0
C847 C 0.5218 0.00087 0.57732 0.0
C848 C 0.53938 0.98739 0.62263 0.0
C849 C 0.54409 0.99253 0.58075 0.0
C850 C 0.57435 0.97753 0.64963 0.0
C851 C 0.54639 0.97552 0.68854 0.0
N852 N 0.55217 0.98626 0.60289 0.0
N853 N 0.53686 0.97996 0.66606 0.0
H854 H 0.23565 0.34759 0.9792 0.0
H855 H 0.28948 0.34949 0.85067 0.0
H856 H 0.26145 0.41525 0.94885 0.0
H857 H 0.23426 0.29054 0.86644 0.0
H858 H 0.28615 0.37197 0.89018 0.0
H859 H 0.24172 0.32439 0.94111 0.0
C860 C 0.24273 0.35755 0.96458 0.0
C861 C 0.24799 0.38337 0.9671 0.0
C862 C 0.27487 0.35406 0.88498 0.0
C863 C 0.25516 0.35699 0.92379 0.0
C864 C 0.27684 0.34122 0.86259 0.0
C865 C 0.26208 0.31823 0.85545 0.0
C866 C 0.25832 0.34357 0.90038 0.0
C867 C 0.2459 0.30828 0.87138 0.0
C868 C 0.24608 0.34431 0.94288 0.0
C869 C 0.25702 0.39536 0.94757 0.0
N870 N 0.24449 0.321 0.89321 0.0
N871 N 0.26043 0.38205 0.92673 0.0
H872 H 0.94761 0.06824 0.30316 0.0
H873 H 0.91058 0.03703 0.4308 0.0
H874 H 0.87243 0.0593 0.31745 0.0
H875 H 0.97996 0.08131 0.42333 0.0
H876 H 0.89554 0.04535 0.38978 0.0
H877 H 0.95991 0.07317 0.34723 0.0
C878 C 0.93371 0.06753 0.31562 0.0
C879 C 0.90897 0.0631 0.30673 0.0
C880 C 0.91388 0.05368 0.39734 0.0
C881 C 0.92288 0.06845 0.35702 0.0
C882 C 0.92245 0.04892 0.42068 0.0
C883 C 0.94656 0.05832 0.4302 0.0
C884 C 0.92978 0.06741 0.38334 0.0
C885 C 0.96126 0.07365 0.41649 0.0
C886 C 0.94074 0.07051 0.34073 0.0
C887 C 0.8917 0.0626 0.32361 0.0
N888 N 0.9528 0.0773 0.39347 0.0
N889 N 0.89896 0.06476 0.34802 0.0
H890 H 0.28514 0.73144 0.57135 0.0
H891 H 0.29641 0.73334 0.7177 0.0
H892 H 0.30383 0.67196 0.61059 0.0
H893 H 0.25358 0.77855 0.67877 0.0
H894 H 0.3072 0.71634 0.67868 0.0
H895 H 0.28154 0.75452 0.61073 0.0
C896 C 0.289 0.72349 0.58824 0.0
C897 C 0.29471 0.69972 0.58771 0.0
C898 C 0.29561 0.73015 0.67867 0.0
C899 C 0.29063 0.72588 0.63262 0.0
C900 C 0.28952 0.73997 0.70099 0.0
C901 C 0.27396 0.75737 0.70158 0.0
C902 C 0.28631 0.73787 0.65667 0.0
C903 C 0.2655 0.76508 0.67921 0.0
C904 C 0.28673 0.73654 0.61065 0.0
C905 C 0.29924 0.69016 0.61013 0.0
N906 N 0.27174 0.75525 0.65766 0.0
N907 N 0.29707 0.70321 0.63158 0.0
H908 H 0.51675 0.97691 0.81807 0.0
H909 H 0.52916 0.03967 0.95254 0.0
H910 H 0.58844 0.00835 0.85316 0.0
H911 H 0.4833 0.96891 0.93169 0.0
H912 H 0.5485 0.03485 0.91445 0.0
H913 H 0.50084 0.97993 0.85795 0.0
C914 C 0.52914 0.98427 0.83426 0.0
C915 C 0.55393 0.99215 0.83249 0.0
C916 C 0.53434 0.02037 0.91846 0.0
C917 C 0.53577 0.99647 0.87783 0.0
C918 C 0.5234 0.02305 0.94016 0.0
C919 C 0.50493 0.00448 0.94546 0.0
C920 C 0.52608 -0.00063 0.90175 0.0
C921 C 0.49754 0.98365 0.92838 0.0
C922 C 0.52008 0.98601 0.85692 0.0
C923 C 0.56925 0.00178 0.85393 0.0
N924 N 0.50794 0.98178 0.90719 0.0
N925 N 0.55985 0.00402 0.87578 0.0
H926 H 0.20781 0.37827 0.12825 0.0
H927 H 0.24219 0.26078 0.1813 0.0
H928 H 0.22991 0.3205 0.0826 0.0
H929 H 0.19657 0.30542 0.21644 0.0
H930 H 0.23474 0.27969 0.14356 0.0
H931 H 0.20119 0.35034 0.15978 0.0
C932 C 0.21117 0.35964 0.12484 0.0
C933 C 0.21979 0.35176 0.10299 0.0
C934 C 0.22586 0.28491 0.15933 0.0
C935 C 0.21227 0.31971 0.13897 0.0
C936 C 0.23008 0.2741 0.18085 0.0
C937 C 0.22024 0.28182 0.20204 0.0
C938 C 0.21215 0.30392 0.15926 0.0
C939 C 0.20457 0.29901 0.2005 0.0
C940 C 0.20717 0.34363 0.14275 0.0
C941 C 0.22348 0.32734 0.09933 0.0
N942 N 0.20146 0.30993 0.1796 0.0
N943 N 0.22008 0.31225 0.11735 0.0
H944 H 0.16798 0.95682 0.05858 0.0
H945 H 0.03291 0.97012 0.01205 0.0
H946 H 0.11262 0.8946 0.02973 0.0
H947 H 0.08279 0.02821 0.05674 0.0
H948 H 0.06138 0.94204 0.01919 0.0
H949 H 0.13699 0.98298 0.05896 0.0
C950 C 0.14923 0.9486 0.0525 0.0
C951 C 0.14291 0.92349 0.04393 0.0
C952 C 0.06604 0.96082 0.02771 0.0
C953 C 0.10729 0.9535 0.0441 0.0
C954 C 0.04974 0.9769 0.0237 0.0
C955 C 0.05544 0.00155 0.03392 0.0
C956 C 0.08852 0.96951 0.04169 0.0
C957 C 0.07767 0.00935 0.04855 0.0
C958 C 0.13153 0.96357 0.05278 0.0
C959 C 0.11831 0.91385 0.03644 0.0
N960 N 0.09353 0.99344 0.0518 0.0
N961 N 0.10144 0.92893 0.03642 0.0
H962 H 0.66257 0.6454 0.97659 0.0
H963 H 0.54906 0.5395 0.94719 0.0
H964 H 0.66942 0.58189 0.92835 0.0
H965 H 0.5785 0.56468 0.02183 0.0
H966 H 0.5861 0.56208 0.93309 0.0
H967 H 0.62322 0.6237 0.98586 0.0
C968 C 0.65545 0.62719 0.96737 0.0
C969 C 0.66917 0.61534 0.95165 0.0
C970 C 0.58432 0.56252 0.95251 0.0
C971 C 0.62442 0.59075 0.96212 0.0
C972 C 0.56338 0.54972 0.96054 0.0
C973 C 0.56106 0.55012 0.98567 0.0
C974 C 0.6024 0.57646 0.96975 0.0
C975 C 0.57989 0.5637 0.00233 0.0
C976 C 0.63321 0.61481 0.97288 0.0
C977 C 0.6593 0.59158 0.94054 0.0
N978 N 0.59972 0.57665 0.99405 0.0
N979 N 0.63739 0.57996 0.94597 0.0
H980 H 0.71693 0.459 0.26413 0.0
H981 H 0.75529 0.34225 0.31794 0.0
H982 H 0.67565 0.42256 0.31696 0.0
H983 H 0.75332 0.34876 0.24045 0.0
H984 H 0.73386 0.37719 0.32256 0.0
H985 H 0.73896 0.42435 0.26016 0.0
C986 C 0.71284 0.44393 0.27524 0.0
C987 C 0.69453 0.44364 0.29099 0.0
C988 C 0.73816 0.37096 0.30459 0.0
C989 C 0.71965 0.40425 0.28656 0.0
C990 C 0.75041 0.35114 0.30191 0.0
C991 C 0.75593 0.34266 0.27874 0.0
C992 C 0.73216 0.38289 0.28408 0.0
C993 C 0.74922 0.35475 0.25857 0.0
C994 C 0.72519 0.42412 0.27273 0.0
C995 C 0.68967 0.42349 0.30466 0.0
N996 N 0.73788 0.37453 0.26173 0.0
N997 N 0.70231 0.40463 0.30228 0.0
H998 H 0.78839 0.41313 0.54054 0.0
H999 H 0.88978 0.49898 0.47824 0.0
H1000 H 0.77305 0.46209 0.48653 0.0
H1001 H 0.90748 0.46297 0.54211 0.0
H1002 H 0.84678 0.48315 0.47992 0.0
H1003 H 0.83207 0.42889 0.54058 0.0
C1004 C 0.79415 0.42717 0.52876 0.0
C1005 C 0.77696 0.43625 0.51349 0.0
C1006 C 0.85999 0.4787 0.49365 0.0
C1007 C 0.82674 0.45418 0.51337 0.0
C1008 C 0.88456 0.4877 0.49264 0.0
C1009 C 0.90212 0.48226 0.51006 0.0
C1010 C 0.85287 0.46395 0.51214 0.0
C1011 C 0.8944 0.46757 0.52835 0.0
C1012 C 0.81905 0.43617 0.52882 0.0
C1013 C 0.78551 0.45447 0.49863 0.0
N1014 N 0.87028 0.45883 0.5289 0.0
N1015 N 0.80969 0.46271 0.49889 0.0
H1016 H 0.3728 0.15839 0.23943 0.0
H1017 H 0.25547 0.19239 0.29456 0.0
H1018 H 0.31777 0.10338 0.2622 0.0
H1019 H 0.287 0.23217 0.23803 0.0
H1020 H 0.2824 0.16239 0.28848 0.0
H1021 H 0.34577 0.18877 0.24431 0.0
C1022 C 0.35508 0.15274 0.24551 0.0
C1023 C 0.34748 0.12833 0.2504 0.0
C1024 C 0.28342 0.1777 0.27742 0.0
C1025 C 0.3168 0.16295 0.25632 0.0
C1026 C 0.2681 0.19483 0.28088 0.0
C1027 C 0.26913 0.21485 0.26685 0.0
C1028 C 0.30021 0.18083 0.26011 0.0
C1029 C 0.28586 0.21714 0.24941 0.0
C1030 C 0.33968 0.17002 0.24816 0.0
C1031 C 0.32431 0.12196 0.25814 0.0
N1032 N 0.30094 0.20043 0.24665 0.0
N1033 N 0.30989 0.1392 0.26108 0.0
H1034 H 0.32178 0.11618 0.50255 0.0
H1035 H 0.39008 0.00606 0.52972 0.0
H1036 H 0.2831 0.04487 0.51503 0.0
H1037 H 0.42533 0.08221 0.54076 0.0
H1038 H 0.3505 0.01936 0.52562 0.0
H1039 H 0.35997 0.10364 0.51647 0.0
C1040 C 0.32132 0.09785 0.50818 0.0
C1041 C 0.29925 0.08147 0.50744 0.0
C1042 C 0.36688 0.03314 0.5294 0.0
C1043 C 0.34291 0.06702 0.52348 0.0
C1044 C 0.38942 0.02556 0.53184 0.0
C1045 C 0.41088 0.0431 0.53531 0.0
C1046 C 0.36598 0.05839 0.5301 0.0
C1047 C 0.40915 0.06812 0.53791 0.0
C1048 C 0.34312 0.09078 0.51634 0.0
C1049 C 0.29973 0.05805 0.51524 0.0
N1050 N 0.38707 0.07504 0.53483 0.0
N1051 N 0.32127 0.05142 0.52271 0.0
H1052 H 0.65221 0.58831 0.24048 0.0
H1053 H 0.73273 0.70796 0.31301 0.0
H1054 H 0.68908 0.58327 0.31162 0.0
H1055 H 0.72798 0.69198 0.23449 0.0
H1056 H 0.71264 0.6652 0.31563 0.0
H1057 H 0.67501 0.6298 0.24072 0.0
C1058 C 0.66506 0.59598 0.25624 0.0
C1059 C 0.66876 0.58227 0.27606 0.0
C1060 C 0.71629 0.67117 0.29794 0.0
C1061 C 0.69486 0.63004 0.27649 0.0
C1062 C 0.72764 0.69551 0.2964 0.0
C1063 C 0.73204 0.70363 0.2735 0.0
C1064 C 0.70885 0.65521 0.27638 0.0
C1065 C 0.72507 0.68668 0.25257 0.0
C1066 C 0.67817 0.61964 0.25629 0.0
C1067 C 0.6858 0.59319 0.29592 0.0
N1068 N 0.71362 0.66346 0.25451 0.0
N1069 N 0.69814 0.61661 0.29576 0.0
H1070 H 0.83608 0.50629 0.75858 0.0
H1071 H 0.81082 0.36147 0.71789 0.0
H1072 H 0.88314 0.46908 0.7168 0.0
H1073 H 0.77878 0.39372 0.77811 0.0
H1074 H 0.83234 0.40228 0.71196 0.0
H1075 H 0.8101 0.46646 0.76086 0.0
C1076 C 0.84086 0.48979 0.74974 0.0
C1077 C 0.8619 0.49099 0.73759 0.0
C1078 C 0.82052 0.40048 0.7264 0.0
C1079 C 0.83222 0.44555 0.74002 0.0
C1080 C 0.80817 0.37722 0.72974 0.0
C1081 C 0.7932 0.3743 0.74864 0.0
C1082 C 0.81776 0.421 0.74198 0.0
C1083 C 0.79029 0.39528 0.76341 0.0
C1084 C 0.82607 0.46711 0.75114 0.0
C1085 C 0.86722 0.46903 0.72652 0.0
N1086 N 0.80257 0.41783 0.75982 0.0
N1087 N 0.85247 0.44724 0.72799 0.0
H1088 H 0.9801 0.85525 0.14305 0.0
H1089 H 0.96343 0.90393 0.01103 0.0
H1090 H 0.97756 0.80724 0.07656 0.0
H1091 H -0.00554 0.9497 0.07742 0.0
H1092 H 0.96083 0.8675 0.03425 0.0
H1093 H 0.9769 0.88947 0.11861 0.0
C1094 C 0.97867 0.85185 0.12329 0.0
C1095 C 0.97934 0.8284 0.11185 0.0
C1096 C 0.96811 0.88559 0.04362 0.0
C1097 C 0.97565 0.86757 0.0837 0.0
C1098 C 0.96953 0.90628 0.03044 0.0
C1099 C 0.97927 0.92974 0.04236 0.0
C1100 C 0.97605 0.88867 0.06884 0.0
C1101 C 0.98697 0.93192 0.06749 0.0
C1102 C 0.97693 0.87142 0.10934 0.0
C1103 C 0.97732 0.82509 0.08612 0.0
N1104 N 0.98512 0.91171 0.07987 0.0
N1105 N 0.97563 0.84451 0.07286 0.0
H1106 H 0.95755 0.29258 0.78166 0.0
H1107 H 0.81997 0.23725 0.79982 0.0
H1108 H 0.93819 0.25555 0.8447 0.0
H1109 H 0.84157 0.28669 0.74631 0.0
H1110 H 0.8631 0.23684 0.81241 0.0
H1111 H 0.91519 0.28353 0.76456 0.0
C1112 C 0.9444 0.28243 0.79192 0.0
C1113 C 0.95146 0.27514 0.81488 0.0
C1114 C 0.85832 0.24748 0.79769 0.0
C1115 C 0.90258 0.26474 0.79526 0.0
C1116 C 0.83376 0.24757 0.79037 0.0
C1117 C 0.82726 0.26214 0.77208 0.0
C1118 C 0.87635 0.26187 0.78643 0.0
C1119 C 0.84579 0.27538 0.76063 0.0
C1120 C 0.92014 0.27724 0.78208 0.0
C1121 C 0.93354 0.26169 0.82704 0.0
N1122 N 0.86945 0.27501 0.76807 0.0
N1123 N 0.90983 0.25711 0.81719 0.0
H1124 H 0.47928 0.19652 0.59407 0.0
H1125 H 0.54522 0.08079 0.57306 0.0
H1126 H 0.5219 0.16927 0.6515 0.0
H1127 H 0.48602 0.09294 0.52256 0.0
H1128 H 0.53862 0.1152 0.60089 0.0
H1129 H 0.48283 0.16044 0.56644 0.0
C1130 C 0.48929 0.18295 0.60091 0.0
C1131 C 0.50038 0.186 0.62514 0.0
C1132 C 0.52695 0.11031 0.5838 0.0
C1133 C 0.50465 0.1449 0.59361 0.0
C1134 C 0.53079 0.09075 0.56788 0.0
C1135 C 0.51608 0.08406 0.5456 0.0
C1136 C 0.50847 0.12354 0.57723 0.0
C1137 C 0.49759 0.09747 0.53973 0.0
C1138 C 0.49124 0.16235 0.58514 0.0
C1139 C 0.51304 0.16776 0.633 0.0
N1140 N 0.49438 0.11674 0.55542 0.0
N1141 N 0.51498 0.14814 0.61725 0.0
H1142 H 0.57113 0.76161 0.30692 0.0
H1143 H 0.71265 0.80561 0.29948 0.0
H1144 H 0.61794 0.80326 0.36821 0.0
H1145 H 0.66818 0.74567 0.25214 0.0
H1146 H 0.67842 0.8078 0.32392 0.0
H1147 H 0.60654 0.75861 0.28532 0.0
C1148 C 0.58892 0.77016 0.31587 0.0
C1149 C 0.59158 0.78275 0.33941 0.0
C1150 C 0.67626 0.79408 0.30828 0.0
C1151 C 0.6324 0.77944 0.31458 0.0
C1152 C 0.69576 0.79278 0.2944 0.0
C1153 C 0.69321 0.77532 0.2739 0.0
C1154 C 0.65403 0.77805 0.30129 0.0
C1155 C 0.67087 0.75943 0.26779 0.0
C1156 C 0.60917 0.76835 0.30352 0.0
C1157 C 0.61512 0.79335 0.35009 0.0
N1158 N 0.65213 0.76126 0.28134 0.0
N1159 N 0.63469 0.7916 0.33751 0.0
H1160 H 0.02762 0.21684 0.51395 0.0
H1161 H 0.96609 0.07567 0.50884 0.0
H1162 H 0.97037 0.18015 0.45878 0.0
H1163 H 0.03729 0.10598 0.54598 0.0
H1164 H 0.96105 0.11681 0.49907 0.0
H1165 H 0.02427 0.17931 0.53468 0.0
C1166 C 0.01397 0.20108 0.5065 0.0
C1167 C -0.00046 0.20138 0.48438 0.0
C1168 C 0.97765 0.11451 0.5096 0.0
C1169 C -0.00427 0.15861 0.5079 0.0
C1170 C 0.98058 0.09107 0.51511 0.0
C1171 C 0.00236 0.08752 0.52776 0.0
C1172 C -0.00342 0.13448 0.51697 0.0
C1173 C 0.02038 0.10804 0.5359 0.0
C1174 C 0.01218 0.17968 0.51827 0.0
C1175 C 0.98209 0.18053 0.4756 0.0
N1176 N 0.01719 0.13073 0.53015 0.0
N1177 N 0.98085 0.15984 0.48725 0.0
H1178 H 0.56755 0.34295 0.15967 0.0
H1179 H 0.65682 0.26087 0.19953 0.0
H1180 H 0.58402 0.28713 0.10749 0.0
H1181 H 0.67985 0.33892 0.21959 0.0
H1182 H 0.62635 0.26959 0.16848 0.0
H1183 H 0.60652 0.34305 0.18394 0.0
C1184 C 0.57974 0.33127 0.153 0.0
C1185 C 0.57265 0.31484 0.13177 0.0
C1186 C 0.63818 0.28479 0.1796 0.0
C1187 C 0.61635 0.31432 0.15959 0.0
C1188 C 0.65526 0.27985 0.1975 0.0
C1189 C 0.67057 0.29925 0.21214 0.0
C1190 C 0.636 0.30926 0.17682 0.0
C1191 C 0.66815 0.32354 0.20863 0.0
C1192 C 0.60186 0.33136 0.1668 0.0
C1193 C 0.5889 0.30002 0.1238 0.0
N1194 N 0.65079 0.32793 0.19148 0.0
N1195 N 0.60979 0.29958 0.13814 0.0
H1196 H 0.56378 0.85827 0.93288 0.0
H1197 H 0.56004 0.96641 0.00335 0.0
H1198 H 0.51316 0.82298 0.97893 0.0
H1199 H 0.4879 0.92977 0.01357 0.0
H1200 H 0.57003 0.92678 0.98927 0.0
H1201 H 0.56298 0.89785 0.95559 0.0
C1202 C 0.55282 0.85879 0.94803 0.0
C1203 C 0.53844 0.8373 0.95393 0.0
C1204 C 0.55201 0.92743 0.99455 0.0
C1205 C 0.53771 0.88249 0.98029 0.0
C1206 C 0.54634 0.95003 0.0029 0.0
C1207 C 0.52288 0.95152 0.00919 0.0
C1208 C 0.53407 0.9062 0.9924 0.0
C1209 C 0.50609 0.92957 0.00858 0.0
C1210 C 0.55257 0.88139 0.96119 0.0
C1211 C 0.52454 0.83908 0.97372 0.0
N1212 N 0.51195 0.90781 6e-05 0.0
N1213 N 0.52422 0.86135 0.98595 0.0
H1214 H 0.95448 0.75603 0.69037 0.0
H1215 H 0.84898 0.83109 0.71913 0.0
H1216 H 0.9335 0.81052 0.6451 0.0
H1217 H 0.85561 0.76174 0.74689 0.0
H1218 H 0.88395 0.82788 0.69614 0.0
H1219 H 0.92176 0.76166 0.71526 0.0
C1220 C 0.94295 0.76917 0.68563 0.0
C1221 C 0.94665 0.78279 0.66558 0.0
C1222 C 0.87779 0.81347 0.70738 0.0
C1223 C 0.90933 0.78943 0.69415 0.0
C1224 C 0.85803 0.81538 0.72059 0.0
C1225 C 0.84954 0.79661 0.73477 0.0
C1226 C 0.88914 0.79279 0.7087 0.0
C1227 C 0.86166 0.77655 0.73605 0.0
C1228 C 0.92428 0.77234 0.69985 0.0
C1229 C 0.93116 0.79953 0.6603 0.0
N1230 N 0.88089 0.77515 0.72314 0.0
N1231 N 0.91317 0.80246 0.6746 0.0
H1232 H 0.10072 0.98087 0.8509 0.0
H1233 H 0.00389 0.03821 0.92447 0.0
H1234 H 0.05464 0.02896 0.82159 0.0
H1235 H 0.03265 0.97487 0.94636 0.0
H1236 H 0.02395 0.03572 0.88723 0.0
H1237 H 0.07805 0.97932 0.88708 0.0
C1238 C 0.08593 0.99109 0.85205 0.0
C1239 C 0.07963 0.00509 0.83316 0.0
C1240 C 0.02571 0.02216 0.90001 0.0
C1241 C 0.05377 0.0034 0.87429 0.0
C1242 C 0.01419 0.02356 0.92127 0.0
C1243 C 0.01655 0.00669 0.93848 0.0
C1244 C 0.04007 0.004 0.89603 0.0
C1245 C 0.0302 0.98812 0.93341 0.0
C1246 C 0.07293 0.99008 0.87259 0.0
C1247 C 0.06021 0.01788 0.83559 0.0
N1248 N 0.04171 0.98742 0.91274 0.0
N1249 N 0.04812 0.0168 0.85573 0.0
H1250 H 0.74954 0.37152 0.60948 0.0
H1251 H 0.70167 0.26257 0.6884 0.0
H1252 H 0.68785 0.31438 0.58424 0.0
H1253 H 0.77536 0.30231 0.70083 0.0
H1254 H 0.69465 0.28449 0.65257 0.0
H1255 H 0.75771 0.34966 0.64539 0.0
C1256 C 0.7377 0.35439 0.61147 0.0
C1257 C 0.71795 0.34478 0.59377 0.0
C1258 C 0.71237 0.28851 0.66314 0.0
C1259 C 0.72711 0.31981 0.63497 0.0
C1260 C 0.7164 0.276 0.68363 0.0
C1261 C 0.73907 0.28087 0.69786 0.0
C1262 C 0.73108 0.30623 0.65677 0.0
C1263 C 0.75744 0.2985 0.69079 0.0
C1264 C 0.74244 0.3419 0.63194 0.0
C1265 C 0.70329 0.32247 0.59734 0.0
N1266 N 0.75303 0.31064 0.67079 0.0
N1267 N 0.70807 0.31087 0.61755 0.0
H1268 H 0.48346 0.06284 0.31089 0.0
H1269 H 0.44478 0.05497 0.4463 0.0
H1270 H 0.41305 0.07442 0.33006 0.0
H1271 H 0.515 0.04489 0.42516 0.0
H1272 H 0.43369 0.06569 0.40507 0.0
H1273 H 0.49632 0.06041 0.35382 0.0
C1274 C 0.47075 0.06514 0.32419 0.0
C1275 C 0.44704 0.06861 0.3168 0.0
C1276 C 0.45157 0.0613 0.40956 0.0
C1277 C 0.46162 0.06549 0.36623 0.0
C1278 C 0.45793 0.05515 0.43309 0.0
C1279 C 0.48082 0.04881 0.43922 0.0
C1280 C 0.46821 0.0611 0.39202 0.0
C1281 C 0.49709 0.04945 0.42132 0.0
C1282 C 0.47811 0.0637 0.34877 0.0
C1283 C 0.43148 0.07169 0.33494 0.0
N1284 N 0.49042 0.05534 0.39858 0.0
N1285 N 0.43894 0.06975 0.35881 0.0
H1286 H 0.72419 0.63548 0.07242 0.0
H1287 H 0.7325 0.76709 0.14462 0.0
H1288 H 0.73548 0.70091 0.03468 0.0
H1289 H 0.76496 0.70945 0.17509 0.0
H1290 H 0.72522 0.74225 0.10449 0.0
H1291 H 0.72966 0.66158 0.11144 0.0
C1292 C 0.72751 0.65531 0.07235 0.0
C1293 C 0.72958 0.66612 0.05042 0.0
C1294 C 0.73404 0.73524 0.12003 0.0
C1295 C 0.73562 0.69585 0.09466 0.0
C1296 C 0.73823 0.74934 0.14277 0.0
C1297 C 0.74941 0.74025 0.16299 0.0
C1298 C 0.74051 0.71179 0.11794 0.0
C1299 C 0.75641 0.71714 0.15986 0.0
C1300 C 0.73078 0.67013 0.09455 0.0
C1301 C 0.734 0.69192 0.05129 0.0
N1302 N 0.75158 0.70355 0.13779 0.0
N1303 N 0.73681 0.70599 0.07311 0.0
H1304 H 0.14492 0.99283 0.68539 0.0
H1305 H 0.02083 0.9642 0.59576 0.0
H1306 H 0.07511 0.96397 0.70825 0.0
H1307 H 0.08654 0.01031 0.58048 0.0
H1308 H 0.04268 0.95483 0.6335 0.0
H1309 H 0.12579 0.99006 0.64334 0.0
C1310 C 0.12563 0.98562 0.68151 0.0
C1311 C 0.11148 0.97903 0.70037 0.0
C1312 C 0.05236 0.96673 0.62169 0.0
C1313 C 0.08954 0.97582 0.6524 0.0
C1314 C 0.03995 0.97201 0.60019 0.0
C1315 C 0.0519 0.98832 0.58534 0.0
C1316 C 0.07684 0.97774 0.62812 0.0
C1317 C 0.07664 -0.00212 0.59169 0.0
C1318 C 0.11473 0.98408 0.65753 0.0
C1319 C 0.08661 0.96959 0.69429 0.0
N1320 N 0.08827 0.99261 0.61273 0.0
N1321 N 0.07636 0.96849 0.67084 0.0
H1322 H 0.71186 0.32245 0.46472 0.0
H1323 H 0.7524 0.2778 0.35658 0.0
H1324 H 0.68052 0.37146 0.41949 0.0
H1325 H 0.69747 0.31148 0.31922 0.0
H1326 H 0.74063 0.29303 0.39566 0.0
H1327 H 0.71961 0.29867 0.42775 0.0
C1328 C 0.70645 0.32814 0.44703 0.0
C1329 C 0.69578 0.34924 0.44534 0.0
C1330 C 0.73065 0.29662 0.37903 0.0
C1331 C 0.70537 0.32249 0.4027 0.0
C1332 C 0.73755 0.28804 0.35656 0.0
C1333 C 0.7259 0.29325 0.33444 0.0
C1334 C 0.71194 0.31065 0.3795 0.0
C1335 C 0.70691 0.30681 0.33571 0.0
C1336 C 0.71122 0.31471 0.42583 0.0
C1337 C 0.68904 0.35553 0.42182 0.0
N1338 N 0.70073 0.31522 0.35779 0.0
N1339 N 0.69406 0.34234 0.40154 0.0
H1340 H 0.45674 0.0959 0.18523 0.0
H1341 H 0.46863 0.00375 0.06973 0.0
H1342 H 0.39752 0.0377 0.15555 0.0
H1343 H 0.51075 0.07701 0.08492 0.0
H1344 H 0.44365 0.01332 0.10256 0.0
H1345 H 0.47839 0.087 0.15002 0.0
C1346 C 0.44821 0.08137 0.17115 0.0
C1347 C 0.42529 0.06758 0.17326 0.0
C1348 C 0.45828 0.02729 0.09851 0.0
C1349 C 0.45019 0.05692 0.13307 0.0
C1350 C 0.47243 0.02185 0.07976 0.0
C1351 C 0.49158 0.03966 0.07445 0.0
C1352 C 0.46373 0.05053 0.11222 0.0
C1353 C 0.4962 0.06267 0.08843 0.0
C1354 C 0.46057 0.07628 0.15106 0.0
C1355 C 0.41509 0.04889 0.15451 0.0
N1356 N 0.48249 0.06738 0.10669 0.0
N1357 N 0.42774 0.0439 0.13528 0.0
H1358 H 0.79492 0.67391 0.9028 0.0
H1359 H 0.82188 0.76404 0.82767 0.0
H1360 H 0.77539 0.72951 0.95324 0.0
H1361 H 0.7668 0.79416 0.8639 0.0
H1362 H 0.82932 0.74113 0.86282 0.0
H1363 H 0.80858 0.70572 0.87666 0.0
C1364 C 0.79404 0.6929 0.90865 0.0
C1365 C 0.78359 0.69902 0.92996 0.0
C1366 C 0.8159 0.75306 0.86321 0.0
C1367 C 0.79946 0.73559 0.90035 0.0
C1368 C 0.81187 0.76642 0.84331 0.0
C1369 C 0.79314 0.78036 0.84261 0.0
C1370 C 0.80114 0.75392 0.8824 0.0
C1371 C 0.78098 0.7831 0.8635 0.0
C1372 C 0.80213 0.71114 0.89385 0.0
C1373 C 0.78302 0.72392 0.93677 0.0
N1374 N 0.78491 0.76963 0.88241 0.0
N1375 N 0.79028 0.74121 0.9217 0.0
H1376 H 0.82208 0.07158 0.99363 0.0
H1377 H 0.96321 0.07304 0.00331 0.0
H1378 H 0.87277 0.13998 -0.00176 0.0
H1379 H 0.9109 0.01021 0.9702 0.0
H1380 H 0.93134 0.09828 0.00167 0.0
H1381 H 0.85471 0.04905 0.98547 0.0
C1382 C 0.84014 0.08189 0.9928 0.0
C1383 C 0.84476 0.10771 -0.00317 0.0
C1384 C 0.92691 0.07909 0.99436 0.0
C1385 C 0.88246 0.08186 0.98771 0.0
C1386 C 0.94513 0.06467 0.99524 0.0
C1387 C 0.93975 0.03948 0.9869 0.0
C1388 C 0.90295 0.06812 0.98552 0.0
C1389 C 0.91588 0.02953 0.97687 0.0
C1390 C 0.85875 0.06899 0.98799 0.0
C1391 C 0.86846 0.12009 0.99525 0.0
N1392 N 0.8983 0.04378 0.9768 0.0
N1393 N 0.88657 0.10701 0.99122 0.0
H1394 H 0.30708 0.49826 0.06556 0.0
H1395 H 0.43987 0.46705 0.05681 0.0
H1396 H 0.3213 0.424 0.06483 0.0
H1397 H 0.41334 0.52877 0.02797 0.0
H1398 H 0.40039 0.45468 0.07241 0.0
H1399 H 0.35055 0.51342 0.06658 0.0
C1400 C 0.31945 0.48519 0.06623 0.0
C1401 C 0.31062 0.4598 0.06449 0.0
C1402 C 0.40344 0.47108 0.06294 0.0
C1403 C 0.36022 0.477 0.06524 0.0
C1404 C 0.42583 0.47813 0.05405 0.0
C1405 C 0.4296 0.49876 0.04086 0.0
C1406 C 0.3851 0.48514 0.05901 0.0
C1407 C 0.41098 0.51252 0.03772 0.0
C1408 C 0.34421 0.49385 0.0667 0.0
C1409 C 0.32742 0.44371 0.06588 0.0
N1410 N 0.38951 0.50545 0.04672 0.0
N1411 N 0.35153 0.45255 0.06563 0.0
H1412 H 0.27675 0.59478 0.71555 0.0
H1413 H 0.2627 0.71847 0.79456 0.0
H1414 H 0.33264 0.63314 0.77119 0.0
H1415 H 0.22676 0.69645 0.72162 0.0
H1416 H 0.28393 0.68317 0.79079 0.0
H1417 H 0.25332 0.62788 0.72218 0.0
C1418 C 0.284 0.61007 0.72928 0.0
C1419 C 0.30673 0.61131 0.74274 0.0
C1420 C 0.27136 0.6861 0.77565 0.0
C1421 C 0.27996 0.64904 0.75054 0.0
C1422 C 0.25942 0.70628 0.77776 0.0
C1423 C 0.24348 0.71066 0.75819 0.0
C1424 C 0.26685 0.66996 0.754 0.0
C1425 C 0.23906 0.69381 0.7371 0.0
C1426 C 0.27067 0.62896 0.73299 0.0
C1427 C 0.31527 0.63156 0.7603 0.0
N1428 N 0.2507 0.6742 0.73554 0.0
N1429 N 0.30185 0.64963 0.76373 0.0
H1430 H 0.20642 0.66276 0.52234 0.0
H1431 H 0.09887 0.55491 0.46571 0.0
H1432 H 0.22037 0.60187 0.4747 0.0
H1433 H 0.10241 0.59023 0.53909 0.0
H1434 H 0.14044 0.57677 0.46292 0.0
H1435 H 0.16454 0.64139 0.52258 0.0
C1436 C 0.2006 0.645 0.51176 0.0
C1437 C 0.21686 0.63396 0.49859 0.0
C1438 C 0.13201 0.57964 0.47958 0.0
C1439 C 0.16906 0.60967 0.49858 0.0
C1440 C 0.1084 0.56728 0.48116 0.0
C1441 C 0.09739 0.57078 0.50269 0.0
C1442 C 0.14423 0.59599 0.49945 0.0
C1443 C 0.11038 0.58696 0.52222 0.0
C1444 C 0.17679 0.6328 0.51201 0.0
C1445 C 0.20839 0.61089 0.48523 0.0
N1446 N 0.13305 0.59914 0.52007 0.0
N1447 N 0.18497 0.59949 0.48546 0.0
H1448 H 0.63469 0.90138 0.79654 0.0
H1449 H 0.75064 0.86368 0.74181 0.0
H1450 H 0.6836 0.9508 0.75969 0.0
H1451 H 0.72841 0.83603 0.80842 0.0
H1452 H 0.72151 0.89177 0.74396 0.0
H1453 H 0.6643 0.87309 0.79735 0.0
C1454 C 0.65163 0.90632 0.78872 0.0
C1455 C 0.65668 0.9285 0.77805 0.0
C1456 C 0.72291 0.87948 0.75807 0.0
C1457 C 0.6902 0.89617 0.77852 0.0
C1458 C 0.73953 0.86343 0.75688 0.0
C1459 C 0.74165 0.84715 0.77476 0.0
C1460 C 0.70799 0.87915 0.77715 0.0
C1461 C 0.72675 0.84766 0.79384 0.0
C1462 C 0.66849 0.89023 0.78926 0.0
C1463 C 0.67893 0.93398 0.76819 0.0
N1464 N 0.71036 0.86329 0.79447 0.0
N1465 N 0.6947 0.91784 0.76843 0.0
H1466 H 0.65719 0.90802 0.50127 0.0
H1467 H 0.61141 0.03547 0.49158 0.0
H1468 H 0.69781 0.97888 0.5323 0.0
H1469 H 0.56753 0.96484 0.46515 0.0
H1470 H 0.64696 0.01561 0.49714 0.0
H1471 H 0.62733 0.92887 0.48033 0.0
C1472 C 0.65983 0.92794 0.50364 0.0
C1473 C 0.67974 0.94174 0.51884 0.0
C1474 C 0.62966 0.0045 0.48965 0.0
C1475 C 0.64598 0.96565 0.49479 0.0
C1476 C 0.60944 0.01587 0.48629 0.0
C1477 C 0.58655 0.00161 0.47846 0.0
C1478 C 0.62675 0.97873 0.4854 0.0
C1479 C 0.5849 0.97637 0.47163 0.0
C1480 C 0.64291 0.93983 0.49156 0.0
C1481 C 0.68251 0.9675 0.52104 0.0
N1482 N 0.60469 0.96558 0.47578 0.0
N1483 N 0.66572 0.97861 0.50928 0.0
H1484 H 0.30173 0.48118 0.74866 0.0
H1485 H 0.28072 0.33727 0.70371 0.0
H1486 H 0.34308 0.44969 0.69584 0.0
H1487 H 0.26323 0.36563 0.77403 0.0
H1488 H 0.29599 0.37941 0.69529 0.0
H1489 H 0.27994 0.43975 0.75275 0.0
C1490 C 0.30601 0.46561 0.73769 0.0
C1491 C 0.32439 0.46888 0.72202 0.0
C1492 C 0.28861 0.37638 0.71246 0.0
C1493 C 0.29946 0.42156 0.72653 0.0
C1494 C 0.27977 0.35235 0.71724 0.0
C1495 C 0.27083 0.34789 0.7397 0.0
C1496 C 0.28822 0.39611 0.7301 0.0
C1497 C 0.27015 0.36819 0.75657 0.0
C1498 C 0.29365 0.442 0.74013 0.0
C1499 C 0.32921 0.44801 0.70831 0.0
N1500 N 0.27878 0.39143 0.75145 0.0
N1501 N 0.31684 0.42525 0.7109 0.0
H1502 H 0.15699 0.5528 0.29675 0.0
H1503 H 0.22233 0.66216 0.22902 0.0
H1504 H 0.13014 0.56724 0.22455 0.0
H1505 H 0.21272 0.67382 0.3056 0.0
H1506 H 0.19814 0.62075 0.22708 0.0
H1507 H 0.18682 0.59139 0.30008 0.0
C1508 C 0.1576 0.56394 0.28154 0.0
C1509 C 0.14109 0.55701 0.26039 0.0
C1510 C 0.20163 0.6323 0.24435 0.0
C1511 C 0.17519 0.60042 0.26388 0.0
C1512 C 0.21549 0.65582 0.24553 0.0
C1513 C 0.21931 0.67138 0.26747 0.0
C1514 C 0.192 0.62415 0.26538 0.0
C1515 C 0.21 0.66233 0.28832 0.0
C1516 C 0.17446 0.58589 0.2835 0.0
C1517 C 0.14246 0.57208 0.24122 0.0
N1518 N 0.1967 0.6392 0.28679 0.0
N1519 N 0.15933 0.59302 0.24335 0.0
H1520 H 0.50275 0.74056 0.44967 0.0
H1521 H 0.54926 0.61668 0.47402 0.0
H1522 H 0.53408 0.69903 0.39498 0.0
H1523 H 0.48073 0.62872 0.49801 0.0
H1524 H 0.55128 0.65378 0.45272 0.0
H1525 H 0.50107 0.70569 0.47485 0.0
C1526 C 0.50933 0.72417 0.44303 0.0
C1527 C 0.5185 0.72256 0.42021 0.0
C1528 C 0.53594 0.64841 0.46286 0.0
C1529 C 0.51718 0.68329 0.44896 0.0
C1530 C 0.53482 0.62737 0.47514 0.0
C1531 C 0.51474 0.61964 0.48769 0.0
C1532 C 0.5171 0.66211 0.46354 0.0
C1533 C 0.49649 0.63413 0.48847 0.0
C1534 C 0.50828 0.70437 0.45732 0.0
C1535 C 0.52674 0.70094 0.41238 0.0
N1536 N 0.4981 0.65481 0.47653 0.0
N1537 N 0.52613 0.68226 0.42685 0.0
H1538 H 0.58494 0.30243 0.66441 0.0
H1539 H 0.66648 0.26292 0.77312 0.0
H1540 H 0.55402 0.27561 0.72787 0.0
H1541 H 0.69482 0.31799 0.72736 0.0
H1542 H 0.62511 0.26578 0.7564 0.0
H1543 H 0.62562 0.30672 0.68639 0.0
C1544 C 0.58673 0.29764 0.68304 0.0
C1545 C 0.56614 0.28859 0.69433 0.0
C1546 C 0.64041 0.2775 0.75035 0.0
C1547 C 0.61254 0.2931 0.71942 0.0
C1548 C 0.664 0.27586 0.75985 0.0
C1549 C 0.68412 0.29024 0.75163 0.0
C1550 C 0.637 0.2932 0.73213 0.0
C1551 C 0.67985 0.30667 0.73436 0.0
C1552 C 0.60992 0.30017 0.6956 0.0
C1553 C 0.56946 0.2827 0.71853 0.0
N1554 N 0.65679 0.30743 0.72491 0.0
N1555 N 0.59227 0.28473 0.73018 0.0
H1556 H 0.03277 0.38989 0.88034 0.0
H1557 H 0.97328 0.43354 -0.00034 0.0
H1558 H 0.00529 0.34023 0.93159 0.0
H1559 H 0.00193 0.48223 0.94827 0.0
H1560 H 0.98572 0.39911 0.97582 0.0
H1561 H 0.02309 0.42413 0.90618 0.0
C1562 C 0.02483 0.38617 0.8971 0.0
C1563 C 0.01974 0.36207 0.9037 0.0
C1564 C 0.98939 0.41736 0.96984 0.0
C1565 C 0.00839 0.40132 0.93338 0.0
C1566 C 0.98222 0.43694 0.98338 0.0
C1567 C 0.9868 0.46071 0.97599 0.0
C1568 C 0.00105 0.42164 0.94871 0.0
C1569 C -0.00161 0.46421 0.95478 0.0
C1570 C 0.01926 0.40577 0.91186 0.0
C1571 C 0.0095 0.35847 0.92572 0.0
N1572 N 0.0051 0.44492 0.9419 0.0
N1573 N 0.00404 0.37786 0.93969 0.0
H1574 H 0.91358 0.76873 0.17593 0.0
H1575 H 0.83031 0.73918 0.28364 0.0
H1576 H 0.93204 0.72589 0.2345 0.0
H1577 H 0.80937 0.77716 0.22219 0.0
H1578 H 0.86667 0.732 0.26468 0.0
H1579 H 0.8743 0.77008 0.19134 0.0
C1580 C 0.90935 0.75949 0.19194 0.0
C1581 C 0.92625 0.74733 0.20402 0.0
C1582 C 0.85402 0.74172 0.25523 0.0
C1583 C 0.88132 0.74888 0.22183 0.0
C1584 C 0.83329 0.74578 0.26605 0.0
C1585 C 0.81697 0.75885 0.25449 0.0
C1586 C 0.85847 0.75095 0.23279 0.0
C1587 C 0.82156 0.76699 0.2317 0.0
C1588 C 0.88689 0.76025 0.20073 0.0
C1589 C 0.91967 0.7356 0.22463 0.0
N1590 N 0.84199 0.76308 0.22168 0.0
N1591 N 0.89782 0.73681 0.23296 0.0
H1592 H 0.46636 0.3685 0.09371 0.0
H1593 H 0.46779 0.4315 0.96978 0.0
H1594 H 0.4773 0.32727 0.02675 0.0
H1595 H 0.4974 0.46823 0.0407 0.0
H1596 H 0.46088 0.39216 0.98813 0.0
H1597 H 0.46515 0.40458 0.07162 0.0
C1598 C 0.46807 0.36689 0.07426 0.0
C1599 C 0.47246 0.34504 0.06212 0.0
C1600 C 0.46909 0.40895 -0.00049 0.0
C1601 C 0.4712 0.38622 0.0369 0.0
C1602 C 0.47314 0.43124 0.98913 0.0
C1603 C 0.48384 0.45304 0.00377 0.0
C1604 C 0.47508 0.4089 0.02474 0.0
C1605 C 0.49006 0.45192 0.02869 0.0
C1606 C 0.4675 0.38751 0.06173 0.0
C1607 C 0.47422 0.34392 0.03682 0.0
N1608 N 0.48541 0.43028 0.03847 0.0
N1609 N 0.47387 0.36443 0.02499 0.0
H1610 H 0.93918 0.24877 0.40223 0.0
H1611 H 0.86389 0.28528 0.28469 0.0
H1612 H 0.97039 0.2926 0.34806 0.0
H1613 H 0.82969 0.24413 0.33898 0.0
H1614 H 0.90351 0.28509 0.30666 0.0
H1615 H 0.89909 0.24472 0.37886 0.0
C1616 C 0.93761 0.25761 0.38553 0.0
C1617 C 0.95817 0.2711 0.37713 0.0
C1618 C 0.88741 0.27597 0.31379 0.0
C1619 C 0.91259 0.26634 0.35032 0.0
C1620 C 0.8648 0.27601 0.30118 0.0
C1621 C 0.84363 0.26485 0.3102 0.0
C1622 C 0.88885 0.26481 0.33568 0.0
C1623 C 0.84572 0.25299 0.33154 0.0
C1624 C 0.91477 0.2552 0.37217 0.0
C1625 C 0.9551 0.28205 0.35531 0.0
N1626 N 0.86802 0.25344 0.34375 0.0
N1627 N 0.93279 0.27941 0.3427 0.0
H1628 H 0.99004 0.7246 0.53593 0.0
H1629 H 0.95044 0.57939 0.53344 0.0
H1630 H 0.97766 0.68702 0.60018 0.0
H1631 H 0.00343 0.61121 0.48782 0.0
H1632 H 0.94674 0.62072 0.54996 0.0
H1633 H 0.98225 0.68443 0.51096 0.0
C1634 C 0.98527 0.70792 0.54465 0.0
C1635 C 0.9847 0.70892 0.57009 0.0
C1636 C 0.95872 0.61858 0.53589 0.0
C1637 C 0.97527 0.66353 0.54184 0.0
C1638 C 0.96075 0.59503 0.52629 0.0
C1639 C 0.97754 0.59186 0.50943 0.0
C1640 C 0.97327 0.63906 0.52831 0.0
C1641 C 0.99049 0.61288 0.501 0.0
C1642 C 0.9809 0.68516 0.53047 0.0
C1643 C 0.97854 0.68691 0.58063 0.0
N1644 N 0.98828 0.6357 0.51074 0.0
N1645 N 0.97402 0.66507 0.56644 0.0
H1646 H 0.56417 0.71333 0.86508 0.0
H1647 H 0.68331 0.801 0.8395 0.0
H1648 H 0.60848 0.76538 0.92087 0.0
H1649 H 0.65647 0.73207 0.79508 0.0
H1650 H 0.65363 0.78953 0.86799 0.0
H1651 H 0.59669 0.71966 0.83843 0.0
C1652 C 0.58103 0.72565 0.87189 0.0
C1653 C 0.5837 0.739 0.89506 0.0
C1654 C 0.65422 0.7769 0.85202 0.0
C1655 C 0.62043 0.74685 0.86456 0.0
C1656 C 0.67092 0.78356 0.83561 0.0
C1657 C 0.6722 0.76743 0.81496 0.0
C1658 C 0.63853 0.75408 0.84758 0.0
C1659 C 0.65589 0.74502 0.81079 0.0
C1660 C 0.59947 0.72933 0.85667 0.0
C1661 C 0.60577 0.75473 0.90312 0.0
N1662 N 0.6396 0.73897 0.827 0.0
N1663 N 0.62319 0.75859 0.88766 0.0
H1664 H 0.36162 0.53066 0.64135 0.0
H1665 H 0.48132 0.57767 0.57982 0.0
H1666 H 0.41668 0.59012 0.67705 0.0
H1667 H 0.44688 0.50125 0.57239 0.0
H1668 H 0.45387 0.5866 0.61031 0.0
H1669 H 0.38827 0.52427 0.60938 0.0
C1670 C 0.37908 0.5427 0.64216 0.0
C1671 C 0.38705 0.56091 0.66184 0.0
C1672 C 0.45252 0.56788 0.60208 0.0
C1673 C 0.41746 0.55366 0.62557 0.0
C1674 C 0.4682 0.56275 0.58482 0.0
C1675 C 0.46658 0.53863 0.57385 0.0
C1676 C 0.43472 0.54888 0.60782 0.0
C1677 C 0.44905 0.52002 0.58073 0.0
C1678 C 0.39434 0.53887 0.62411 0.0
C1679 C 0.40995 0.57584 0.66217 0.0
N1680 N 0.43361 0.52558 0.5971 0.0
N1681 N 0.42439 0.5719 0.64429 0.0
H1682 H 0.81252 0.24374 0.95019 0.0
H1683 H 0.73571 0.24891 0.82231 0.0
H1684 H 0.7647 0.1801 0.91173 0.0
H1685 H 0.8062 0.29436 0.84223 0.0
H1686 H 0.74216 0.22678 0.85839 0.0
H1687 H 0.80685 0.26613 0.91398 0.0
C1688 C 0.8009 0.23448 0.93415 0.0
C1689 C 0.78918 0.20997 0.93395 0.0
C1690 C 0.75625 0.24154 0.85478 0.0
C1691 C 0.7822 0.23558 0.89282 0.0
C1692 C 0.75265 0.254 0.83408 0.0
C1693 C 0.77069 0.27301 0.82888 0.0
C1694 C 0.77779 0.24861 0.87078 0.0
C1695 C 0.79187 0.27966 0.84544 0.0
C1696 C 0.7977 0.24723 0.91353 0.0
C1697 C 0.77426 0.19889 0.91267 0.0
N1698 N 0.79482 0.26754 0.86569 0.0
N1699 N 0.77103 0.21182 0.8931 0.0
H1700 H 0.03003 0.4701 0.20056 0.0
H1701 H 0.04882 0.48597 0.06004 0.0
H1702 H 0.09706 0.46578 0.16924 0.0
H1703 H 0.98449 0.5 0.09219 0.0
H1704 H 0.06467 0.47394 0.09892 0.0
H1705 H 0.01113 0.47642 0.16021 0.0
C1706 C 0.04072 0.47019 0.18515 0.0
C1707 C 0.06525 0.4675 0.18833 0.0
C1708 C 0.04703 0.47953 0.0975 0.0
C1709 C 0.04373 0.47484 0.14212 0.0
C1710 C 0.03789 0.4864 0.07521 0.0
C1711 C 0.01528 0.49422 0.07275 0.0
C1712 C 0.03355 0.4804 0.11769 0.0
C1713 C 0.00202 0.4942 0.09318 0.0
C1714 C 0.02993 0.47391 0.16215 0.0
C1715 C 0.07819 0.46787 0.16771 0.0
N1716 N 0.0114 0.48753 0.11481 0.0
N1717 N 0.06731 0.47156 0.14558 0.0
H1718 H 0.74475 0.85307 0.48265 0.0
H1719 H 0.79835 0.84648 0.35413 0.0
H1720 H 0.77516 0.91825 0.45062 0.0
H1721 H 0.73805 0.79332 0.37053 0.0
H1722 H 0.79773 0.87007 0.39372 0.0
H1723 H 0.75002 0.82792 0.44551 0.0
C1724 C 0.75278 0.86206 0.46791 0.0
C1725 C 0.75942 0.88778 0.4696 0.0
C1726 C 0.78478 0.85315 0.38866 0.0
C1727 C 0.76562 0.85915 0.42737 0.0
C1728 C 0.78519 0.83967 0.36623 0.0
C1729 C 0.76816 0.81806 0.35921 0.0
C1730 C 0.76751 0.84464 0.40421 0.0
C1731 C 0.75141 0.80998 0.37536 0.0
C1732 C 0.75565 0.84771 0.44675 0.0
C1733 C 0.76963 0.89849 0.44994 0.0
N1734 N 0.75151 0.82329 0.39723 0.0
N1735 N 0.77247 0.88408 0.42958 0.0
H1736 H 0.37498 0.55962 0.81479 0.0
H1737 H 0.48758 0.53586 0.90364 0.0
H1738 H 0.44299 0.54458 0.79166 0.0
H1739 H 0.42138 0.55133 0.93062 0.0
H1740 H 0.47229 0.54354 0.86291 0.0
H1741 H 0.39219 0.561 0.85763 0.0
C1742 C 0.39356 0.55686 0.8187 0.0
C1743 C 0.40746 0.55164 0.79962 0.0
C1744 C 0.46104 0.54543 0.87765 0.0
C1745 C 0.42715 0.55322 0.84832 0.0
C1746 C 0.46979 0.54102 0.90094 0.0
C1747 C 0.45557 0.54272 0.92035 0.0
C1748 C 0.43768 0.5513 0.87358 0.0
C1749 C 0.43279 0.54973 0.91598 0.0
C1750 C 0.40334 0.55762 0.84311 0.0
C1751 C 0.43144 0.5483 0.80571 0.0
N1752 N 0.42436 0.55351 0.89289 0.0
N1753 N 0.44041 0.54901 0.82945 0.0
H1754 H 0.78687 0.2293 0.06779 0.0
H1755 H 0.79752 0.23091 0.2141 0.0
H1756 H 0.80078 0.16772 0.10637 0.0
H1757 H 0.7582 0.27917 0.17548 0.0
H1758 H 0.80658 0.21241 0.17492 0.0
H1759 H 0.78417 0.25256 0.10728 0.0
C1760 C 0.78984 0.22085 0.08455 0.0
C1761 C 0.794 0.19648 0.08374 0.0
C1762 C 0.79615 0.22719 0.17501 0.0
C1763 C 0.79094 0.22294 0.12889 0.0
C1764 C 0.79107 0.2379 0.19742 0.0
C1765 C 0.77704 0.25667 0.19818 0.0
C1766 C 0.78742 0.23542 0.15305 0.0
C1767 C 0.769 0.2647 0.17582 0.0
C1768 C 0.78809 0.23405 0.10705 0.0
C1769 C 0.79742 0.18639 0.10607 0.0
N1770 N 0.77429 0.25404 0.15419 0.0
N1771 N 0.79581 0.19961 0.12763 0.0
H1772 H 0.051 0.53255 0.32875 0.0
H1773 H 0.00369 0.46454 0.44001 0.0
H1774 H 0.06536 0.46001 0.34022 0.0
H1775 H 0.02047 0.54369 0.44317 0.0
H1776 H 0.02353 0.46143 0.40231 0.0
H1777 H 0.03696 0.53611 0.36928 0.0
C1778 C 0.05124 0.51735 0.33984 0.0
C1779 C 0.05925 0.49587 0.33101 0.0
C1780 C 0.02306 0.47946 0.41137 0.0
C1781 C 0.04291 0.49979 0.37747 0.0
C1782 C 0.01165 0.48126 0.43278 0.0
C1783 C 0.01034 0.50441 0.44457 0.0
C1784 C 0.03277 0.50099 0.40141 0.0
C1785 C 0.02109 0.52549 0.4346 0.0
C1786 C 0.04334 0.51947 0.36304 0.0
C1787 C 0.05936 0.47688 0.34632 0.0
N1788 N 0.03158 0.52329 0.41341 0.0
N1789 N 0.05098 0.47914 0.3687 0.0
H1790 H 0.73423 0.82759 0.58091 0.0
H1791 H 0.70098 0.81368 0.71717 0.0
H1792 H 0.70915 0.8835 0.62642 0.0
H1793 H 0.74983 0.77305 0.68197 0.0
H1794 H 0.69188 0.83102 0.67874 0.0
H1795 H 0.72856 0.79992 0.61305 0.0
C1796 C 0.72724 0.83393 0.59753 0.0
C1797 C 0.72258 0.858 0.60127 0.0
C1798 C 0.70415 0.81787 0.67933 0.0
C1799 C 0.71581 0.82646 0.63777 0.0
C1800 C 0.70919 0.80781 0.70116 0.0
C1801 C 0.72645 0.79223 0.70275 0.0
C1802 C 0.71633 0.81209 0.65906 0.0
C1803 C 0.73669 0.78533 0.68153 0.0
C1804 C 0.72399 0.81814 0.6158 0.0
C1805 C 0.71337 0.86522 0.62302 0.0
N1806 N 0.7317 0.79556 0.66058 0.0
N1807 N 0.71045 0.84956 0.64056 0.0
H1808 H 0.66843 0.45978 0.52725 0.0
H1809 H 0.5349 0.48247 0.54999 0.0
H1810 H 0.61391 0.40011 0.54299 0.0
H1811 H 0.58339 0.52678 0.50834 0.0
H1812 H 0.56402 0.45365 0.55303 0.0
H1813 H 0.63825 0.48649 0.52637 0.0
C1814 C 0.65007 0.45224 0.5306 0.0
C1815 C 0.64373 0.42754 0.53508 0.0
C1816 C 0.56814 0.46967 0.54318 0.0
C1817 C 0.60877 0.4584 0.53416 0.0
C1818 C 0.55151 0.486 0.54133 0.0
C1819 C 0.55651 0.50677 0.52847 0.0
C1820 C 0.59011 0.47461 0.53261 0.0
C1821 C 0.57867 0.51097 0.51833 0.0
C1822 C 0.63277 0.46756 0.53001 0.0
C1823 C 0.61956 0.41899 0.53933 0.0
N1824 N 0.59457 0.49513 0.52065 0.0
N1825 N 0.6029 0.43442 0.53881 0.0
H1826 H 0.18261 0.06039 0.43857 0.0
H1827 H 0.0773 0.01315 0.48446 0.0
H1828 H 0.15763 0.12966 0.45018 0.0
H1829 H 0.04688 0.07354 0.45734 0.0
H1830 H 0.11553 0.0289 0.4692 0.0
H1831 H 0.14132 0.03873 0.44044 0.0
C1832 C 0.16837 0.07105 0.44131 0.0
C1833 C 0.17367 0.09686 0.44484 0.0
C1834 C 0.10036 0.03838 0.46586 0.0
C1835 C 0.12656 0.07219 0.44792 0.0
C1836 C 0.07854 0.02951 0.47487 0.0
C1837 C 0.05891 0.0421 0.47224 0.0
C1838 C 0.10268 0.06015 0.45426 0.0
C1839 C 0.06157 0.06324 0.45968 0.0
C1840 C 0.14485 0.05866 0.44267 0.0
C1841 C 0.15441 0.10973 0.44777 0.0
N1842 N 0.08324 0.07186 0.45152 0.0
N1843 N 0.13172 0.09724 0.44961 0.0
H1844 H 0.20999 0.95581 0.7609 0.0
H1845 H 0.24818 0.84174 0.82002 0.0
H1846 H 0.1674 0.9213 0.81388 0.0
H1847 H 0.24723 0.84566 0.7422 0.0
H1848 H 0.22609 0.87639 0.82286 0.0
H1849 H 0.23206 0.92115 0.7588 0.0
C1850 C 0.20555 0.94112 0.77238 0.0
C1851 C 0.1869 0.9414 0.78765 0.0
C1852 C 0.23077 0.86964 0.80521 0.0
C1853 C 0.21216 0.90201 0.78541 0.0
C1854 C 0.24341 0.85002 0.80356 0.0
C1855 C 0.24941 0.84092 0.7808 0.0
C1856 C 0.22488 0.88074 0.78409 0.0
C1857 C 0.24279 0.85217 0.76002 0.0
C1858 C 0.21798 0.92132 0.77096 0.0
C1859 C 0.18167 0.92175 0.80189 0.0
N1860 N 0.23109 0.87177 0.76219 0.0
N1861 N 0.1944 0.90288 0.80059 0.0
H1862 H 0.27087 0.96516 0.99445 0.0
H1863 H 0.4077 0.95906 0.04572 0.0
H1864 H 0.28839 0.91163 0.04264 0.0
H1865 H 0.38795 0.0031 0.98881 0.0
H1866 H 0.36432 0.94355 0.04784 0.0
H1867 H 0.31391 0.98147 0.99532 0.0
C1868 C 0.28376 0.95681 0.00529 0.0
C1869 C 0.27593 0.93687 0.01841 0.0
C1870 C 0.36952 0.95663 0.03493 0.0
C1871 C 0.32557 0.9556 0.01944 0.0
C1872 C 0.39421 0.96549 0.03375 0.0
C1873 C 0.40128 0.98227 0.01701 0.0
C1874 C 0.35195 0.9648 0.01935 0.0
C1875 C 0.38322 0.9901 0.00192 0.0
C1876 C 0.30842 0.96616 0.00573 0.0
C1877 C 0.2936 0.92696 0.03217 0.0
N1878 N 0.3594 0.9813 0.00345 0.0
N1879 N 0.31765 0.93642 0.0323 0.0
H1880 H 0.87879 0.66254 0.76345 0.0
H1881 H 0.74553 0.6978 0.74674 0.0
H1882 H 0.81462 0.61063 0.73299 0.0
H1883 H 0.80814 0.74576 0.78577 0.0
H1884 H 0.77083 0.66629 0.73908 0.0
H1885 H 0.85362 0.69418 0.76913 0.0
C1886 C 0.85941 0.6578 0.7579 0.0
C1887 C 0.8488 0.63386 0.74779 0.0
C1888 C 0.77909 0.68378 0.74917 0.0
C1889 C 0.81982 0.67005 0.75425 0.0
C1890 C 0.76469 0.7017 0.75348 0.0
C1891 C 0.77501 0.72447 0.76642 0.0
C1892 C 0.80395 0.68873 0.75804 0.0
C1893 C 0.79973 0.72866 0.77515 0.0
C1894 C 0.84503 0.67587 0.76119 0.0
C1895 C 0.82357 0.62881 0.74092 0.0
N1896 N 0.8134 0.71099 0.77076 0.0
N1897 N 0.80995 0.64674 0.74428 0.0
H1898 H 0.81738 0.62055 0.99589 0.0
H1899 H 0.88076 0.50481 0.01623 0.0
H1900 H 0.77616 0.54856 0.00215 0.0
H1901 H 0.91834 0.57998 0.03154 0.0
H1902 H 0.84206 0.5198 0.01071 0.0
H1903 H 0.85476 0.60538 0.00749 0.0
C1904 C 0.81619 0.60152 -0.00038 0.0
C1905 C 0.79362 0.58577 -0.00205 0.0
C1906 C 0.85876 0.53297 0.01561 0.0
C1907 C 0.83635 0.56831 0.01133 0.0
C1908 C 0.88078 0.52443 0.01884 0.0
C1909 C 0.90265 0.54123 0.02417 0.0
C1910 C 0.85883 0.55845 0.01744 0.0
C1911 C 0.90182 0.56644 0.02731 0.0
C1912 C 0.83753 0.59292 0.00643 0.0
C1913 C 0.79319 0.56133 0.0032 0.0
N1914 N 0.88027 0.57432 0.0236 0.0
N1915 N 0.81427 0.55329 0.00951 0.0
H1916 H 0.13897 0.10226 0.78471 0.0
H1917 H 0.25617 0.1844 0.75077 0.0
H1918 H 0.20268 0.07017 0.77412 0.0
H1919 H 0.21149 0.2129 0.80199 0.0
H1920 H 0.23601 0.1424 0.7556 0.0
H1921 H 0.16395 0.14332 0.78754 0.0
C1922 C 0.15828 0.1039 0.78314 0.0
C1923 C 0.16882 0.08285 0.77916 0.0
C1924 C 0.23095 0.15788 0.76605 0.0
C1925 C 0.19734 0.12971 0.78188 0.0
C1926 C 0.24236 0.18179 0.76326 0.0
C1927 C 0.23549 0.20212 0.77602 0.0
C1928 C 0.21209 0.1544 0.78113 0.0
C1929 C 0.21747 0.19774 0.79194 0.0
C1930 C 0.17251 0.12729 0.78486 0.0
C1931 C 0.19393 0.08598 0.77732 0.0
N1932 N 0.20609 0.17438 0.79372 0.0
N1933 N 0.20732 0.10904 0.77827 0.0
H1934 H 0.33811 0.0027 0.26203 0.0
H1935 H 0.31068 0.85806 0.22004 0.0
H1936 H 0.38344 0.96527 0.21819 0.0
H1937 H 0.27992 0.89028 0.2812 0.0
H1938 H 0.33254 0.89877 0.21427 0.0
H1939 H 0.31204 0.96301 0.26467 0.0
C1940 C 0.3425 0.98619 0.25283 0.0
C1941 C 0.36307 0.98729 0.23996 0.0
C1942 C 0.32094 0.89699 0.22889 0.0
C1943 C 0.33326 0.94198 0.2428 0.0
C1944 C 0.30839 0.87379 0.23214 0.0
C1945 C 0.29365 0.87087 0.25124 0.0
C1946 C 0.31864 0.91748 0.24477 0.0
C1947 C 0.29121 0.89183 0.26632 0.0
C1948 C 0.32766 0.96357 0.25442 0.0
C1949 C 0.36789 0.96529 0.22845 0.0
N1950 N 0.30369 0.91433 0.26282 0.0
N1951 N 0.35309 0.94357 0.23012 0.0
H1952 H 0.45699 0.33957 0.62359 0.0
H1953 H 0.51724 0.41576 0.52313 0.0
H1954 H 0.50673 0.31075 0.57844 0.0
H1955 H 0.44625 0.42288 0.54384 0.0
H1956 H 0.51591 0.37885 0.5451 0.0
H1957 H 0.45488 0.37235 0.59672 0.0
C1958 C 0.46735 0.34007 0.60796 0.0
C1959 C 0.48205 0.32243 0.60323 0.0
C1960 C 0.50051 0.38834 0.54453 0.0
C1961 C 0.48003 0.36004 0.5727 0.0
C1962 C 0.50126 0.40933 0.532 0.0
C1963 C 0.4818 0.42228 0.53166 0.0
C1964 C 0.48041 0.38067 0.55721 0.0
C1965 C 0.4616 0.41336 0.54361 0.0
C1966 C 0.46609 0.35871 0.5926 0.0
C1967 C 0.49509 0.32394 0.58269 0.0
N1968 N 0.46155 0.3933 0.55617 0.0
N1969 N 0.49402 0.3426 0.56834 0.0
H1970 H 0.4577 0.78765 0.28049 0.0
H1971 H 0.32074 0.73505 0.30295 0.0
H1972 H 0.43925 0.75632 0.34682 0.0
H1973 H 0.34143 0.78236 0.24741 0.0
H1974 H 0.36399 0.73466 0.31497 0.0
H1975 H 0.41517 0.77752 0.26397 0.0
C1976 C 0.44472 0.77849 0.29158 0.0
C1977 C 0.45204 0.77321 0.31529 0.0
C1978 C 0.35897 0.74481 0.29994 0.0
C1979 C 0.40305 0.7616 0.29636 0.0
C1980 C 0.33436 0.74488 0.29295 0.0
C1981 C 0.32761 0.75888 0.27426 0.0
C1982 C 0.37677 0.75859 0.2879 0.0
C1983 C 0.34589 0.77152 0.26207 0.0
C1984 C 0.42038 0.7727 0.28209 0.0
C1985 C 0.43437 0.76094 0.32856 0.0
N1986 N 0.36961 0.77116 0.26917 0.0
N1987 N 0.41058 0.75577 0.31901 0.0
H1988 H -0.0021 0.71012 0.08959 0.0
H1989 H 0.9864 0.56423 0.06455 0.0
H1990 H -0.00705 0.66124 0.14653 0.0
H1991 H 0.02002 0.61402 0.01653 0.0
H1992 H 0.98077 0.59954 0.09182 0.0
H1993 H -0.00155 0.67479 0.0597 0.0
C1994 C -0.00327 0.69196 0.09576 0.0
C1995 C -0.00447 0.68861 0.1206 0.0
C1996 C 0.98927 0.60274 0.07526 0.0
C1997 C -0.00407 0.64829 0.08658 0.0
C1998 C 0.9924 0.58263 0.05965 0.0
C1999 C 0.00383 0.58632 0.03839 0.0
C2000 C -0.00258 0.62669 0.06943 0.0
C2001 C 0.01127 0.61049 0.03288 0.0
C2002 C -0.00286 0.67187 0.07874 0.0
C2003 C -0.0059 0.66469 0.12761 0.0
N2004 N 0.00796 0.62985 0.04836 0.0
N2005 N -0.0057 0.64544 0.11068 0.0
H2006 H 0.11718 0.30273 0.86701 0.0
H2007 H 0.16844 0.23631 0.75356 0.0
H2008 H 0.07169 0.25784 0.80673 0.0
H2009 H 0.20918 0.3023 0.795 0.0
H2010 H 0.13454 0.23939 0.77781 0.0
H2011 H 0.15307 0.29845 0.84547 0.0
C2012 C 0.11477 0.29193 0.84935 0.0
C2013 C 0.09146 0.28073 0.83855 0.0
C2014 C 0.15093 0.25316 0.78168 0.0
C2015 C 0.13214 0.27554 0.81417 0.0
C2016 C 0.17026 0.25139 0.76787 0.0
C2017 C 0.19156 0.26907 0.77233 0.0
C2018 C 0.15299 0.27266 0.80023 0.0
C2019 C 0.19307 0.28819 0.79116 0.0
C2020 C 0.13517 0.28957 0.83708 0.0
C2021 C 0.0893 0.26695 0.81564 0.0
N2022 N 0.174 0.2895 0.80449 0.0
N2023 N 0.10935 0.26467 0.80429 0.0
H2024 H 0.46764 0.67561 0.94826 0.0
H2025 H 0.5333 0.60514 0.04408 0.0
H2026 H 0.52268 0.71272 0.00537 0.0
H2027 H 0.46457 0.57328 0.00266 0.0
H2028 H 0.52788 0.64559 0.03238 0.0
H2029 H 0.46346 0.63897 0.97019 0.0
C2030 C 0.47851 0.67618 0.96566 0.0
C2031 C 0.49588 0.69698 0.97481 0.0
C2032 C 0.51382 0.62981 0.02607 0.0
C2033 C 0.49151 0.65514 -0.00028 0.0
C2034 C 0.517 0.60675 0.03263 0.0
C2035 C 0.4996 0.58594 0.02378 0.0
C2036 C 0.49327 0.63188 0.01032 0.0
C2037 C 0.47867 0.58889 0.00925 0.0
C2038 C 0.47611 0.65528 0.97819 0.0
C2039 C 0.50929 0.69691 -0.00245 0.0
N2040 N 0.47622 0.61145 0.00265 0.0
N2041 N 0.50719 0.67608 0.00901 0.0
H2042 H 0.0724 0.84206 0.64573 0.0
H2043 H 0.14978 0.75578 0.70442 0.0
H2044 H 0.07986 0.77358 0.60616 0.0
H2045 H 0.17753 0.83391 0.71461 0.0
H2046 H 0.12102 0.76224 0.67056 0.0
H2047 H 0.10974 0.84104 0.67221 0.0
C2048 C 0.08244 0.82728 0.64217 0.0
C2049 C 0.07327 0.80789 0.62393 0.0
C2050 C 0.13349 0.77794 0.68015 0.0
C2051 C 0.11492 0.80604 0.65448 0.0
C2052 C 0.14957 0.77434 0.69967 0.0
C2053 C 0.16576 0.79441 0.71232 0.0
C2054 C 0.13327 0.80183 0.67368 0.0
C2055 C 0.1651 0.81804 0.70529 0.0
C2056 C 0.10358 0.82664 0.65725 0.0
C2057 C 0.08658 0.78895 0.62004 0.0
N2058 N 0.14882 0.82121 0.68652 0.0
N2059 N 0.1065 0.78812 0.63569 0.0
H2060 H 0.02554 0.32523 0.49658 0.0
H2061 H -0.0052 0.43773 0.52943 0.0
H2062 H 0.06337 0.36464 0.44315 0.0
H2063 H 0.05966 0.46992 0.4992 0.0
H2064 H 0.00487 0.39715 0.52026 0.0
H2065 H 0.02448 0.36439 0.51993 0.0
C2066 C 0.03374 0.34211 0.4898 0.0
C2067 C 0.044 0.34167 0.46751 0.0
C2068 C 0.0174 0.41307 0.51638 0.0
C2069 C 0.04226 0.38658 0.49385 0.0
C2070 C 0.01151 0.43632 0.52145 0.0
C2071 C 0.02625 0.45724 0.51482 0.0
C2072 C 0.03811 0.41074 0.50443 0.0
C2073 C 0.0477 0.45429 0.50454 0.0
C2074 C 0.03292 0.36449 0.50307 0.0
C2075 C 0.05485 0.3641 0.45998 0.0
N2076 N 0.05271 0.43141 0.49918 0.0
N2077 N 0.05343 0.38567 0.47299 0.0
H2078 H 0.45772 0.25797 0.20098 0.0
H2079 H 0.33489 0.31236 0.20619 0.0
H2080 H 0.42827 0.29736 0.14433 0.0
H2081 H 0.35624 0.26115 0.25512 0.0
H2082 H 0.37107 0.30983 0.18533 0.0
H2083 H 0.42225 0.26117 0.22282 0.0
C2084 C 0.44377 0.26723 0.19309 0.0
C2085 C 0.44595 0.27742 0.17079 0.0
C2086 C 0.36789 0.29918 0.20065 0.0
C2087 C 0.4055 0.28127 0.19576 0.0
C2088 C 0.34734 0.30071 0.21261 0.0
C2089 C 0.34272 0.28693 0.23232 0.0
C2090 C 0.38393 0.28381 0.20855 0.0
C2091 C 0.35929 0.27208 0.23997 0.0
C2092 C 0.42355 0.26904 0.20557 0.0
C2093 C 0.42732 0.28918 0.16143 0.0
N2094 N 0.37923 0.27087 0.22802 0.0
N2095 N 0.40791 0.29085 0.17402 0.0
H2096 H 0.55494 0.52155 0.32012 0.0
H2097 H 0.53953 0.47495 0.45184 0.0
H2098 H 0.60669 0.48246 0.35533 0.0
H2099 H 0.50577 0.53266 0.4233 0.0
H2100 H 0.56006 0.47153 0.41441 0.0
H2101 H 0.53267 0.51983 0.35571 0.0
C2102 C 0.56168 0.51253 0.33535 0.0
C2103 C 0.58289 0.50224 0.33471 0.0
C2104 C 0.548 0.48477 0.41636 0.0
C2105 C 0.55715 0.50021 0.37583 0.0
C2106 C 0.53612 0.48656 0.43753 0.0
C2107 C 0.52095 0.50411 0.4406 0.0
C2108 C 0.5443 0.5004 0.39813 0.0
C2109 C 0.51739 0.51896 0.42173 0.0
C2110 C 0.54889 0.5116 0.35574 0.0
C2111 C 0.59054 0.49078 0.3551 0.0
N2112 N 0.52896 0.51675 0.40135 0.0
N2113 N 0.57765 0.49006 0.37491 0.0
H2114 H 0.18756 0.81108 0.08544 0.0
H2115 H 0.27708 0.79867 0.20355 0.0
H2116 H 0.24933 0.86746 0.11263 0.0
H2117 H 0.20315 0.7597 0.18967 0.0
H2118 H 0.26985 0.82151 0.16804 0.0
H2119 H 0.19572 0.78895 0.12098 0.0
C2120 C 0.2029 0.81877 0.09884 0.0
C2121 C 0.21774 0.8412 0.09606 0.0
C2122 C 0.2552 0.80805 0.17289 0.0
C2123 C 0.2273 0.81584 0.13679 0.0
C2124 C 0.25926 0.79522 0.19328 0.0
C2125 C 0.24055 0.77769 0.19988 0.0
C2126 C 0.23241 0.80289 0.15875 0.0
C2127 C 0.21808 0.77311 0.18528 0.0
C2128 C 0.2075 0.80617 0.11918 0.0
C2129 C 0.23735 0.85028 0.11408 0.0
N2130 N 0.21466 0.78556 0.16541 0.0
N2131 N 0.24163 0.83753 0.13362 0.0
H2132 H 0.90557 0.57385 0.82783 0.0
H2133 H 0.01244 0.55953 0.92945 0.0
H2134 H 0.9792 0.56927 0.81384 0.0
H2135 H 0.93695 0.54862 0.94291 0.0
H2136 H 0.00098 0.5707 0.88893 0.0
H2137 H 0.91725 0.57197 0.87163 0.0
C2138 C 0.92425 0.57287 0.834 0.0
C2139 C 0.9414 0.5715 0.81712 0.0
C2140 C 0.98687 0.56601 0.90073 0.0
C2141 C 0.9548 0.56934 0.86702 0.0
C2142 C -0.00659 0.55959 0.92396 0.0
C2143 C 0.9756 0.55273 0.93957 0.0
C2144 C 0.96228 0.56553 0.89278 0.0
C2145 C 0.95128 0.55361 0.93144 0.0
C2146 C 0.93085 0.57165 0.85895 0.0
C2147 C 0.96531 0.57012 0.82612 0.0
N2148 N 0.94528 0.55964 0.90848 0.0
N2149 N 0.97124 0.56897 0.85035 0.0
H2150 H 0.19598 0.14702 0.55897 0.0
H2151 H 0.28389 0.23499 0.66046 0.0
H2152 H 0.26764 0.18123 0.54477 0.0
H2153 H 0.20711 0.23738 0.65277 0.0
H2154 H 0.27885 0.21095 0.62028 0.0
H2155 H 0.19987 0.17568 0.59633 0.0
C2156 C 0.21245 0.16056 0.56369 0.0
C2157 C 0.23151 0.16181 0.54885 0.0
C2158 C 0.26319 0.21701 0.62731 0.0
C2159 C 0.23615 0.19408 0.59133 0.0
C2160 C 0.26605 0.23066 0.65013 0.0
C2161 C 0.24589 0.23813 0.65969 0.0
C2162 C 0.2399 0.21028 0.61444 0.0
C2163 C 0.22309 0.23203 0.6458 0.0
C2164 C 0.21458 0.17692 0.58483 0.0
C2165 C 0.25246 0.17973 0.55567 0.0
N2166 N 0.2206 0.21806 0.62393 0.0
N2167 N 0.25436 0.19498 0.57661 0.0
H2168 H 0.59424 0.44867 0.20488 0.0
H2169 H 0.54744 0.53374 0.1173 0.0
H2170 H 0.64083 0.5172 0.19675 0.0
H2171 H 0.55226 0.46187 0.08323 0.0
H2172 H 0.57416 0.52672 0.15279 0.0
H2173 H 0.57171 0.45104 0.16487 0.0
C2174 C 0.59998 0.4639 0.19444 0.0
C2175 C 0.61936 0.48275 0.20396 0.0
C2176 C 0.56928 0.51253 0.1375 0.0
C2177 C 0.59345 0.48588 0.15921 0.0
C2178 C 0.55396 0.5164 0.11745 0.0
C2179 C 0.5478 0.49832 0.0975 0.0
C2180 C 0.57779 0.49018 0.13782 0.0
C2181 C 0.55679 0.47621 0.09838 0.0
C2182 C 0.58721 0.4652 0.17176 0.0
C2183 C 0.62609 0.50222 0.18993 0.0
N2184 N 0.57121 0.47255 0.11848 0.0
N2185 N 0.61274 0.50361 0.16845 0.0
H2186 H 0.21597 0.82505 0.96663 0.0
H2187 H 0.19153 0.81011 0.82001 0.0
H2188 H 0.17328 0.86858 0.92523 0.0
H2189 H 0.2457 0.77735 0.85983 0.0
H2190 H 0.17985 0.82645 0.85882 0.0
H2191 H 0.22204 0.80225 0.92821 0.0
C2192 C 0.20755 0.82958 0.94953 0.0
C2193 C 0.19421 0.84892 0.94922 0.0
C2194 C 0.19415 0.8155 0.8591 0.0
C2195 C 0.2012 0.82293 0.90513 0.0
C2196 C 0.20078 0.80602 0.83689 0.0
C2197 C 0.21971 0.79232 0.83654 0.0
C2198 C 0.20641 0.81123 0.88128 0.0
C2199 C 0.23107 0.78786 0.85913 0.0
C2200 C 0.21115 0.81664 0.92758 0.0
C2201 C 0.18384 0.85397 0.92643 0.0
N2202 N 0.22431 0.79736 0.88055 0.0
N2203 N 0.18764 0.84118 0.90538 0.0
H2204 H 0.95934 0.59815 0.68569 0.0
H2205 H 0.96792 0.51062 0.56586 0.0
H2206 H 0.89799 0.54371 0.65311 0.0
H2207 H 0.00979 0.58396 0.58146 0.0
H2208 H 0.94427 0.51912 0.6001 0.0
H2209 H 0.98068 0.59008 0.64991 0.0
C2210 C 0.95032 0.58459 0.67093 0.0
C2211 C 0.92683 0.57167 0.67231 0.0
C2212 C 0.95857 0.53334 0.59587 0.0
C2213 C 0.95133 0.56198 0.63154 0.0
C2214 C 0.97199 0.5285 0.57634 0.0
C2215 C 0.99067 0.54665 0.57071 0.0
C2216 C 0.96431 0.55629 0.61008 0.0
C2217 C -0.00443 0.5694 0.58518 0.0
C2218 C 0.96249 0.58 0.65052 0.0
C2219 C 0.91601 0.55423 0.65268 0.0
N2220 N 0.98261 0.57351 0.60426 0.0
N2221 N 0.92845 0.5497 0.63318 0.0
H2222 H 0.2947 0.16158 0.40094 0.0
H2223 H 0.31531 0.25039 0.32261 0.0
H2224 H 0.27574 0.21759 0.45129 0.0
H2225 H 0.26392 0.28241 0.36293 0.0
H2226 H 0.32426 0.22722 0.35713 0.0
H2227 H 0.30622 0.19279 0.37349 0.0
C2228 C 0.29354 0.18055 0.40648 0.0
C2229 C 0.28381 0.18692 0.42818 0.0
C2230 C 0.31127 0.23956 0.35855 0.0
C2231 C 0.29728 0.22287 0.39708 0.0
C2232 C 0.30647 0.25314 0.33903 0.0
C2233 C 0.28847 0.26793 0.3398 0.0
C2234 C 0.29792 0.24089 0.37881 0.0
C2235 C 0.27758 0.27083 0.36147 0.0
C2236 C 0.30037 0.19848 0.3909 0.0
C2237 C 0.28278 0.21179 0.43454 0.0
N2238 N 0.28222 0.25712 0.38 0.0
N2239 N 0.28892 0.22875 0.41881 0.0
H2240 H 0.35373 0.60222 0.54904 0.0
H2241 H 0.45326 0.55826 0.46836 0.0
H2242 H 0.36184 0.62702 0.47773 0.0
H2243 H 0.42135 0.52025 0.52578 0.0
H2244 H 0.42648 0.58917 0.47417 0.0
H2245 H 0.38627 0.57892 0.54422 0.0
C2246 C 0.36254 0.60295 0.53237 0.0
C2247 C 0.35473 0.6163 0.51359 0.0
C2248 C 0.42549 0.57403 0.48545 0.0
C2249 C 0.3921 0.58911 0.50775 0.0
C2250 C 0.44073 0.5565 0.48218 0.0
C2251 C 0.43941 0.53665 0.49654 0.0
C2252 C 0.40926 0.57175 0.50345 0.0
C2253 C 0.42287 0.53509 0.51414 0.0
C2254 C 0.38112 0.58952 0.52959 0.0
C2255 C 0.36723 0.61686 0.49261 0.0
N2256 N 0.40862 0.55237 0.51712 0.0
N2257 N 0.38516 0.60313 0.49007 0.0
H2258 H 0.82633 0.92838 0.56911 0.0
H2259 H 0.92369 0.03908 0.54268 0.0
H2260 H 0.81478 0.00356 0.57117 0.0
H2261 H 0.94191 0.96803 0.55435 0.0
H2262 H 0.88577 0.02759 0.56031 0.0
H2263 H 0.87029 0.94316 0.57205 0.0
C2264 C 0.83309 0.94803 0.57107 0.0
C2265 C 0.81698 0.96479 0.56928 0.0
C2266 C 0.89812 0.01453 0.5594 0.0
C2267 C 0.86693 0.98172 0.57216 0.0
C2268 C 0.91971 0.02107 0.54917 0.0
C2269 C 0.93562 0.00429 0.5467 0.0
C2270 C 0.89203 0.99074 0.56661 0.0
C2271 C 0.92991 0.98138 0.55581 0.0
C2272 C 0.85817 0.95646 0.57258 0.0
C2273 C 0.82663 0.99002 0.57192 0.0
N2274 N 0.90825 0.97502 0.56491 0.0
N2275 N 0.85095 -0.00231 0.57273 0.0
H2276 H 0.78129 0.09666 0.2148 0.0
H2277 H 0.76554 0.22031 0.29295 0.0
H2278 H 0.83519 0.1351 0.27226 0.0
H2279 H 0.73058 0.19831 0.21962 0.0
H2280 H 0.78625 0.18467 0.28986 0.0
H2281 H 0.75731 0.12951 0.22058 0.0
C2282 C 0.78797 0.1119 0.22874 0.0
C2283 C 0.81031 0.11327 0.24297 0.0
C2284 C 0.77399 0.18765 0.27449 0.0
C2285 C 0.78297 0.15063 0.2498 0.0
C2286 C 0.76233 0.20801 0.27621 0.0
C2287 C 0.74686 0.2125 0.25633 0.0
C2288 C 0.76972 0.17146 0.25287 0.0
C2289 C 0.74253 0.19555 0.23531 0.0
C2290 C 0.77434 0.13064 0.23197 0.0
C2291 C 0.81815 0.13343 0.26077 0.0
N2292 N 0.75397 0.17578 0.23409 0.0
N2293 N 0.80447 0.15131 0.26371 0.0
H2294 H 0.71805 0.10053 0.97105 0.0
H2295 H 0.59925 0.09104 0.03925 0.0
H2296 H 0.70221 0.16134 0.01749 0.0
H2297 H 0.60012 0.04757 0.97067 0.0
H2298 H 0.63922 0.11427 0.03434 0.0
H2299 H 0.67669 0.07837 0.97283 0.0
C2300 C 0.7058 0.10926 0.9815 0.0
C2301 C 0.71352 0.13274 0.99422 0.0
C2302 C 0.63065 0.09971 0.02032 0.0
C2303 C 0.66654 0.10741 0.99661 0.0
C2304 C 0.60795 0.08635 0.02318 0.0
C2305 C 0.5965 0.06739 0.00533 0.0
C2306 C 0.64216 0.09383 -0.00036 0.0
C2307 C 0.60845 0.06208 0.98482 0.0
C2308 C 0.68225 0.09664 0.98244 0.0
C2309 C 0.69695 0.14328 0.00739 0.0
N2310 N 0.63081 0.07516 0.98258 0.0
N2311 N 0.6743 0.13039 0.00849 0.0
H2312 H 0.17964 0.44255 0.25144 0.0
H2313 H 0.223 0.32747 0.30761 0.0
H2314 H 0.13198 0.39561 0.29177 0.0
H2315 H 0.2461 0.3543 0.24098 0.0
H2316 H 0.19293 0.35525 0.30748 0.0
H2317 H 0.20819 0.41388 0.2533 0.0
C2318 C 0.1752 0.42624 0.26082 0.0
C2319 C 0.15329 0.42147 0.2714 0.0
C2320 C 0.2045 0.35484 0.29284 0.0
C2321 C 0.18621 0.38853 0.27376 0.0
C2322 C 0.22145 0.33882 0.29277 0.0
C2323 C 0.23663 0.33808 0.27396 0.0
C2324 C 0.20328 0.37065 0.27431 0.0
C2325 C 0.23473 0.35416 0.25583 0.0
C2326 C 0.19151 0.40982 0.26178 0.0
C2327 C 0.14859 0.39995 0.28326 0.0
N2328 N 0.21849 0.36979 0.25651 0.0
N2329 N 0.16499 0.38429 0.28425 0.0
H2330 H 0.15079 0.40581 0.00567 0.0
H2331 H 0.1075 0.53585 0.0091 0.0
H2332 H 0.19047 0.47258 0.0469 0.0
H2333 H 0.06712 0.46987 0.96725 0.0
H2334 H 0.1414 0.51425 0.0176 0.0
H2335 H 0.12207 0.4297 0.9875 0.0
C2336 C 0.15337 0.42544 0.01097 0.0
C2337 C 0.17288 0.43723 0.02793 0.0
C2338 C 0.12529 0.50458 0.0062 0.0
C2339 C 0.14049 0.46463 0.00705 0.0
C2340 C 0.10607 0.51699 0.0012 0.0
C2341 C 0.0845 0.50442 0.98785 0.0
C2342 C 0.12267 0.47944 -0.00202 0.0
C2343 C 0.08346 0.48006 0.9779 0.0
C2344 C 0.13714 0.4391 0.00045 0.0
C2345 C 0.17558 0.46273 0.03399 0.0
N2346 N 0.10216 0.46816 0.98355 0.0
N2347 N 0.15953 0.47555 0.02361 0.0
H2348 H 0.85673 0.95334 0.20541 0.0
H2349 H 0.77003 0.86804 0.28096 0.0
H2350 H 0.8102 0.9833 0.25369 0.0
H2351 H 0.79082 0.84171 0.2114 0.0
H2352 H 0.78716 0.9102 0.27372 0.0
H2353 H 0.83538 0.91186 0.20966 0.0
C2354 C 0.84195 0.9512 0.21682 0.0
C2355 C 0.83525 0.97181 0.22924 0.0
C2356 C 0.78775 0.89518 0.25998 0.0
C2357 C 0.81101 0.92438 0.23445 0.0
C2358 C 0.77807 0.87112 0.26413 0.0
C2359 C 0.77901 0.8513 0.24677 0.0
C2360 C 0.7989 0.89938 0.23858 0.0
C2361 C 0.7896 0.85641 0.22525 0.0
C2362 C 0.82973 0.92753 0.21917 0.0
C2363 C 0.81589 0.96793 0.24371 0.0
N2364 N 0.79937 0.8799 0.22189 0.0
N2365 N 0.80463 0.94465 0.24616 0.0
H2366 H 0.62013 0.07435 0.73173 0.0
H2367 H 0.71517 0.17961 0.80781 0.0
H2368 H 0.65656 0.05916 0.79965 0.0
H2369 H 0.71405 0.16644 0.72945 0.0
H2370 H 0.68957 0.13884 0.80777 0.0
H2371 H 0.6497 0.11248 0.73293 0.0
C2372 C 0.63428 0.07915 0.74696 0.0
C2373 C 0.63596 0.06366 0.76563 0.0
C2374 C 0.69525 0.14486 0.79069 0.0
C2375 C 0.66951 0.10723 0.76721 0.0
C2376 C 0.70977 0.168 0.79069 0.0
C2377 C 0.71665 0.17625 0.76859 0.0
C2378 C 0.68708 0.13042 0.76837 0.0
C2379 C 0.70917 0.16066 0.74687 0.0
C2380 C 0.65119 0.10075 0.74753 0.0
C2381 C 0.65475 0.07061 0.78487 0.0
N2382 N 0.69441 0.13864 0.74723 0.0
N2383 N 0.67071 0.09212 0.78535 0.0
loop_
_geom_bond_atom_site_label_1
_geom_bond_atom_site_label_2
_geom_bond_distance
_geom_bond_site_symmetry_2
_ccdc_geom_bond_type
C0 O1 1.306 . S
C0 O3 1.160 . S
O1 C0 1.306 . S
O1 Cd2 2.228 1_655 S
Cd2 O1 2.228 1_455 S
Cd2 O6 2.273 . S
Cd2 O10 2.277 . S
O3 C0 1.160 . S
O3 Cd4 2.203 1_655 S
Cd4 O3 2.203 1_455 S
Cd4 O6 2.411 . S
Cd4 O7 2.333 . S
Cd4 O8 2.352 . S
Cd4 O12 2.277 . S
Cd4 O13 2.356 . S
C5 O10 1.209 . S
C5 O12 1.226 . S
O6 Cd2 2.273 . S
O6 Cd4 2.411 . S
O6 C9 1.320 . S
O7 Cd4 2.333 . S
O7 C9 1.214 . S
O8 Cd4 2.352 . S
O8 C11 1.258 . S
C9 O6 1.320 . S
C9 O7 1.214 . S
O10 Cd2 2.277 . S
O10 C5 1.209 . S
C11 O8 1.258 . S
C11 O13 1.282 . S
O12 Cd4 2.277 . S
O12 C5 1.226 . S
O13 Cd4 2.356 . S
O13 C11 1.282 . S
C14 O15 1.306 . S
C14 O17 1.160 . S
O15 C14 1.306 . S
O15 Cd16 2.228 1_655 S
Cd16 O15 2.228 1_455 S
Cd16 O20 2.273 . S
Cd16 O24 2.277 1_455 S
O17 C14 1.160 . S
O17 Cd18 2.203 1_655 S
Cd18 O17 2.203 1_455 S
Cd18 O20 2.411 . S
Cd18 O21 2.333 . S
Cd18 O22 2.352 . S
Cd18 O26 2.277 1_455 S
Cd18 O27 2.356 . S
C19 O24 1.209 . S
C19 O26 1.226 . S
O20 Cd16 2.273 . S
O20 Cd18 2.411 . S
O20 C23 1.320 . S
O21 Cd18 2.333 . S
O21 C23 1.214 . S
O22 Cd18 2.352 . S
O22 C25 1.258 . S
C23 O20 1.320 . S
C23 O21 1.214 . S
O24 Cd16 2.277 1_655 S
O24 C19 1.209 . S
C25 O22 1.258 . S
C25 O27 1.282 . S
O26 Cd18 2.277 1_655 S
O26 C19 1.226 . S
O27 Cd18 2.356 . S
O27 C25 1.282 . S
C28 O29 1.306 . S
C28 O31 1.160 . S
O29 C28 1.306 . S
O29 Cd30 2.228 . S
Cd30 O29 2.228 . S
Cd30 O34 2.273 . S
Cd30 O38 2.277 . S
O31 C28 1.160 . S
O31 Cd32 2.203 . S
Cd32 O31 2.203 . S
Cd32 O34 2.411 . S
Cd32 O35 2.333 . S
Cd32 O36 2.352 . S
Cd32 O40 2.277 . S
Cd32 O41 2.356 . S
C33 O38 1.209 . S
C33 O40 1.226 . S
O34 Cd30 2.273 . S
O34 Cd32 2.411 . S
O34 C37 1.320 . S
O35 Cd32 2.333 . S
O35 C37 1.214 . S
O36 Cd32 2.352 . S
O36 C39 1.258 . S
C37 O34 1.320 . S
C37 O35 1.214 . S
O38 Cd30 2.277 . S
O38 C33 1.209 . S
C39 O36 1.258 . S
C39 O41 1.282 . S
O40 Cd32 2.277 . S
O40 C33 1.226 . S
O41 Cd32 2.356 . S
O41 C39 1.282 . S
C42 O43 1.306 . S
C42 O45 1.160 . S
O43 C42 1.306 . S
O43 Cd44 2.228 . S
Cd44 O43 2.228 . S
Cd44 O48 2.273 . S
Cd44 O52 2.277 . S
O45 C42 1.160 . S
O45 Cd46 2.203 . S
Cd46 O45 2.203 . S
Cd46 O48 2.411 . S
Cd46 O49 2.333 . S
Cd46 O50 2.352 . S
Cd46 O54 2.277 . S
Cd46 O55 2.356 . S
C47 O52 1.209 . S
C47 O54 1.226 . S
O48 Cd44 2.273 . S
O48 Cd46 2.411 . S
O48 C51 1.320 . S
O49 Cd46 2.333 . S
O49 C51 1.214 . S
O50 Cd46 2.352 . S
O50 C53 1.258 . S
C51 O48 1.320 . S
C51 O49 1.214 . S
O52 Cd44 2.277 . S
O52 C47 1.209 . S
C53 O50 1.258 . S
C53 O55 1.282 . S
O54 Cd46 2.277 . S
O54 C47 1.226 . S
O55 Cd46 2.356 . S
O55 C53 1.282 . S
C56 O57 1.306 . S
C56 O59 1.160 . S
O57 C56 1.306 . S
O57 Cd58 2.228 1_655 S
Cd58 O57 2.228 1_455 S
Cd58 O62 2.273 . S
Cd58 O66 2.277 . S
O59 C56 1.160 . S
O59 Cd60 2.203 1_655 S
Cd60 O59 2.203 1_455 S
Cd60 O62 2.411 . S
Cd60 O63 2.333 . S
Cd60 O64 2.352 . S
Cd60 O68 2.277 . S
Cd60 O69 2.356 . S
C61 O66 1.209 . S
C61 O68 1.226 . S
O62 Cd58 2.273 . S
O62 Cd60 2.411 . S
O62 C65 1.320 . S
O63 Cd60 2.333 . S
O63 C65 1.214 . S
O64 Cd60 2.352 . S
O64 C67 1.258 . S
C65 O62 1.320 . S
C65 O63 1.214 . S
O66 Cd58 2.277 . S
O66 C61 1.209 . S
C67 O64 1.258 . S
C67 O69 1.282 . S
O68 Cd60 2.277 . S
O68 C61 1.226 . S
O69 Cd60 2.356 . S
O69 C67 1.282 . S
C70 O71 1.306 . S
C70 O73 1.160 . S
O71 C70 1.306 . S
O71 Cd72 2.228 . S
Cd72 O71 2.228 . S
Cd72 O76 2.273 . S
Cd72 O80 2.277 . S
O73 C70 1.160 . S
O73 Cd74 2.203 . S
Cd74 O73 2.203 . S
Cd74 O76 2.411 . S
Cd74 O77 2.333 . S
Cd74 O78 2.352 . S
Cd74 O82 2.277 . S
Cd74 O83 2.356 . S
C75 O80 1.209 . S
C75 O82 1.226 . S
O76 Cd72 2.273 . S
O76 Cd74 2.411 . S
O76 C79 1.320 . S
O77 Cd74 2.333 . S
O77 C79 1.214 . S
O78 Cd74 2.352 . S
O78 C81 1.258 . S
C79 O76 1.320 . S
C79 O77 1.214 . S
O80 Cd72 2.277 . S
O80 C75 1.209 . S
C81 O78 1.258 . S
C81 O83 1.282 . S
O82 Cd74 2.277 . S
O82 C75 1.226 . S
O83 Cd74 2.356 . S
O83 C81 1.282 . S
C84 O85 1.306 . S
C84 O87 1.160 . S
O85 C84 1.306 . S
O85 Cd86 2.228 . S
Cd86 O85 2.228 . S
Cd86 O90 2.273 . S
Cd86 O94 2.277 . S
O87 C84 1.160 . S
O87 Cd88 2.203 . S
Cd88 O87 2.203 . S
Cd88 O90 2.411 . S
Cd88 O91 2.333 . S
Cd88 O92 2.352 . S
Cd88 O96 2.277 . S
Cd88 O97 2.356 . S
C89 O94 1.209 . S
C89 O96 1.226 . S
O90 Cd86 2.273 . S
O90 Cd88 2.411 . S
O90 C93 1.320 . S
O91 Cd88 2.333 . S
O91 C93 1.214 . S
O92 Cd88 2.352 . S
O92 C95 1.258 . S
C93 O90 1.320 . S
C93 O91 1.214 . S
O94 Cd86 2.277 . S
O94 C89 1.209 . S
C95 O92 1.258 . S
C95 O97 1.282 . S
O96 Cd88 2.277 . S
O96 C89 1.226 . S
O97 Cd88 2.356 . S
O97 C95 1.282 . S
C98 O99 1.306 . S
C98 O101 1.160 . S
O99 C98 1.306 . S
O99 Cd100 2.228 1_655 S
Cd100 O99 2.228 1_455 S
Cd100 O104 2.273 . S
Cd100 O108 2.277 . S
O101 C98 1.160 . S
O101 Cd102 2.203 1_655 S
Cd102 O101 2.203 1_455 S
Cd102 O104 2.411 . S
Cd102 O105 2.333 . S
Cd102 O106 2.352 . S
Cd102 O110 2.277 . S
Cd102 O111 2.356 . S
C103 O108 1.209 . S
C103 O110 1.226 . S
O104 Cd100 2.273 . S
O104 Cd102 2.411 . S
O104 C107 1.320 . S
O105 Cd102 2.333 . S
O105 C107 1.214 . S
O106 Cd102 2.352 . S
O106 C109 1.258 . S
C107 O104 1.320 . S
C107 O105 1.214 . S
O108 Cd100 2.277 . S
O108 C103 1.209 . S
C109 O106 1.258 . S
C109 O111 1.282 . S
O110 Cd102 2.277 . S
O110 C103 1.226 . S
O111 Cd102 2.356 . S
O111 C109 1.282 . S
C112 O113 1.306 . S
C112 O115 1.160 . S
O113 C112 1.306 . S
O113 Cd114 2.228 . S
Cd114 O113 2.228 . S
Cd114 O118 2.273 . S
Cd114 O122 2.273 1_545 S
O115 C112 1.160 . S
O115 Cd116 2.203 . S
Cd116 O115 2.203 . S
Cd116 O118 2.411 . S
Cd116 O119 2.333 . S
Cd116 O120 2.352 . S
Cd116 O124 2.277 . S
Cd116 O125 2.356 . S
C117 O122 1.210 . S
C117 O124 1.226 1_565 S
O118 Cd114 2.273 . S
O118 Cd116 2.411 . S
O118 C121 1.320 . S
O119 Cd116 2.333 . S
O119 C121 1.214 . S
O120 Cd116 2.352 . S
O120 C123 1.258 . S
C121 O118 1.320 . S
C121 O119 1.214 . S
O122 Cd114 2.273 1_565 S
O122 C117 1.210 . S
C123 O120 1.258 . S
C123 O125 1.282 . S
O124 Cd116 2.277 . S
O124 C117 1.226 1_545 S
O125 Cd116 2.356 . S
O125 C123 1.282 . S
C126 O127 1.306 . S
C126 O129 1.160 . S
O127 C126 1.306 . S
O127 Cd128 2.228 . S
Cd128 O127 2.228 . S
Cd128 O132 2.273 . S
Cd128 O136 2.277 . S
O129 C126 1.160 . S
O129 Cd130 2.203 . S
Cd130 O129 2.203 . S
Cd130 O132 2.411 . S
Cd130 O133 2.333 . S
Cd130 O134 2.352 . S
Cd130 O138 2.277 . S
Cd130 O139 2.356 . S
C131 O136 1.209 . S
C131 O138 1.226 . S
O132 Cd128 2.273 . S
O132 Cd130 2.411 . S
O132 C135 1.320 . S
O133 Cd130 2.333 . S
O133 C135 1.214 . S
O134 Cd130 2.352 . S
O134 C137 1.258 . S
C135 O132 1.320 . S
C135 O133 1.214 . S
O136 Cd128 2.277 . S
O136 C131 1.209 . S
C137 O134 1.258 . S
C137 O139 1.282 . S
O138 Cd130 2.277 . S
O138 C131 1.226 . S
O139 Cd130 2.356 . S
O139 C137 1.282 . S
C140 O141 1.306 . S
C140 O143 1.144 1_545 S
O141 C140 1.306 . S
O141 Cd142 2.228 . S
Cd142 O141 2.228 . S
Cd142 O146 2.273 1_545 S
Cd142 O150 2.277 . S
O143 C140 1.144 1_565 S
O143 Cd144 2.204 . S
Cd144 O143 2.204 . S
Cd144 O146 2.411 . S
Cd144 O147 2.333 . S
Cd144 O148 2.352 . S
Cd144 O152 2.277 1_565 S
Cd144 O153 2.356 . S
C145 O150 1.209 . S
C145 O152 1.226 . S
O146 Cd142 2.273 1_565 S
O146 Cd144 2.411 . S
O146 C149 1.320 . S
O147 Cd144 2.333 . S
O147 C149 1.214 . S
O148 Cd144 2.352 . S
O148 C151 1.258 . S
C149 O146 1.320 . S
C149 O147 1.214 . S
O150 Cd142 2.277 . S
O150 C145 1.209 . S
C151 O148 1.258 . S
C151 O153 1.282 . S
O152 Cd144 2.277 1_545 S
O152 C145 1.226 . S
O153 Cd144 2.356 . S
O153 C151 1.282 . S
C154 O155 1.306 . S
C154 O157 1.160 . S
O155 C154 1.306 . S
O155 Cd156 2.228 1_554 S
Cd156 O155 2.228 1_556 S
Cd156 O160 2.273 1_556 S
Cd156 O164 2.277 . S
O157 C154 1.160 . S
O157 Cd158 2.203 . S
Cd158 O157 2.203 . S
Cd158 O160 2.411 . S
Cd158 O161 2.333 . S
Cd158 O162 2.352 . S
Cd158 O166 2.277 1_554 S
Cd158 O167 2.356 . S
C159 O164 1.209 . S
C159 O166 1.226 . S
O160 Cd156 2.273 1_554 S
O160 Cd158 2.411 . S
O160 C163 1.320 . S
O161 Cd158 2.333 . S
O161 C163 1.214 . S
O162 Cd158 2.352 . S
O162 C165 1.258 . S
C163 O160 1.320 . S
C163 O161 1.214 . S
O164 Cd156 2.277 . S
O164 C159 1.209 . S
C165 O162 1.258 . S
C165 O167 1.282 . S
O166 Cd158 2.277 1_556 S
O166 C159 1.226 . S
O167 Cd158 2.356 . S
O167 C165 1.282 . S
C168 O169 1.306 . S
C168 O171 1.160 . S
O169 C168 1.306 . S
O169 Cd170 2.228 1_554 S
Cd170 O169 2.228 1_556 S
Cd170 O174 2.273 1_556 S
Cd170 O178 2.277 . S
O171 C168 1.160 . S
O171 Cd172 2.203 . S
Cd172 O171 2.203 . S
Cd172 O174 2.411 . S
Cd172 O175 2.333 . S
Cd172 O176 2.352 . S
Cd172 O180 2.277 1_554 S
Cd172 O181 2.356 . S
C173 O178 1.209 . S
C173 O180 1.226 . S
O174 Cd170 2.273 1_554 S
O174 Cd172 2.411 . S
O174 C177 1.320 . S
O175 Cd172 2.333 . S
O175 C177 1.214 . S
O176 Cd172 2.352 . S
O176 C179 1.258 . S
C177 O174 1.320 . S
C177 O175 1.214 . S
O178 Cd170 2.277 . S
O178 C173 1.209 . S
C179 O176 1.258 . S
C179 O181 1.282 . S
O180 Cd172 2.277 1_556 S
O180 C173 1.226 . S
O181 Cd172 2.356 . S
O181 C179 1.282 . S
C182 O183 1.306 . S
C182 O185 1.152 1_554 S
O183 C182 1.306 . S
O183 Cd184 2.228 . S
Cd184 O183 2.228 . S
Cd184 O188 2.273 1_554 S
Cd184 O192 2.277 . S
O185 C182 1.152 1_556 S
O185 Cd186 2.203 . S
Cd186 O185 2.203 . S
Cd186 O188 2.411 . S
Cd186 O189 2.333 . S
Cd186 O190 2.352 . S
Cd186 O194 2.277 1_556 S
Cd186 O195 2.356 . S
C187 O192 1.209 . S
C187 O194 1.226 . S
O188 Cd184 2.273 1_556 S
O188 Cd186 2.411 . S
O188 C191 1.320 . S
O189 Cd186 2.333 . S
O189 C191 1.214 . S
O190 Cd186 2.352 . S
O190 C193 1.258 . S
C191 O188 1.320 . S
C191 O189 1.214 . S
O192 Cd184 2.277 . S
O192 C187 1.209 . S
C193 O190 1.258 . S
C193 O195 1.282 . S
O194 Cd186 2.277 1_554 S
O194 C187 1.226 . S
O195 Cd186 2.356 . S
O195 C193 1.282 . S
C196 O197 1.306 . S
C196 O199 1.160 . S
O197 C196 1.306 . S
O197 Cd198 2.228 . S
Cd198 O197 2.228 . S
Cd198 O202 2.273 . S
Cd198 O206 2.277 . S
O199 C196 1.160 . S
O199 Cd200 2.203 . S
Cd200 O199 2.203 . S
Cd200 O202 2.411 . S
Cd200 O203 2.333 . S
Cd200 O204 2.352 . S
Cd200 O208 2.277 . S
Cd200 O209 2.356 . S
C201 O206 1.209 . S
C201 O208 1.226 . S
O202 Cd198 2.273 . S
O202 Cd200 2.411 . S
O202 C205 1.320 . S
O203 Cd200 2.333 . S
O203 C205 1.214 . S
O204 Cd200 2.352 . S
O204 C207 1.258 . S
C205 O202 1.320 . S
C205 O203 1.214 . S
O206 Cd198 2.277 . S
O206 C201 1.209 . S
C207 O204 1.258 . S
C207 O209 1.282 . S
O208 Cd200 2.277 . S
O208 C201 1.226 . S
O209 Cd200 2.356 . S
O209 C207 1.282 . S
C210 O211 1.306 . S
C210 O213 1.160 . S
O211 C210 1.306 . S
O211 Cd212 2.228 . S
Cd212 O211 2.228 . S
Cd212 O216 2.273 . S
Cd212 O220 2.277 . S
O213 C210 1.160 . S
O213 Cd214 2.203 . S
Cd214 O213 2.203 . S
Cd214 O216 2.411 . S
Cd214 O217 2.333 . S
Cd214 O218 2.352 . S
Cd214 O222 2.277 . S
Cd214 O223 2.356 . S
C215 O220 1.209 . S
C215 O222 1.226 . S
O216 Cd212 2.273 . S
O216 Cd214 2.411 . S
O216 C219 1.320 . S
O217 Cd214 2.333 . S
O217 C219 1.214 . S
O218 Cd214 2.352 . S
O218 C221 1.258 . S
C219 O216 1.320 . S
C219 O217 1.214 . S
O220 Cd212 2.277 . S
O220 C215 1.209 . S
C221 O218 1.258 . S
C221 O223 1.282 . S
O222 Cd214 2.277 . S
O222 C215 1.226 . S
O223 Cd214 2.356 . S
O223 C221 1.282 . S
C224 O225 1.306 . S
C224 O227 1.160 . S
O225 C224 1.306 . S
O225 Cd226 2.228 . S
Cd226 O225 2.228 . S
Cd226 O230 2.273 . S
Cd226 O234 2.277 . S
O227 C224 1.160 . S
O227 Cd228 2.203 . S
Cd228 O227 2.203 . S
Cd228 O230 2.411 . S
Cd228 O231 2.333 . S
Cd228 O232 2.352 . S
Cd228 O236 2.277 . S
Cd228 O237 2.356 . S
C229 O234 1.209 . S
C229 O236 1.226 . S
O230 Cd226 2.273 . S
O230 Cd228 2.411 . S
O230 C233 1.320 . S
O231 Cd228 2.333 . S
O231 C233 1.214 . S
O232 Cd228 2.352 . S
O232 C235 1.258 . S
C233 O230 1.320 . S
C233 O231 1.214 . S
O234 Cd226 2.277 . S
O234 C229 1.209 . S
C235 O232 1.258 . S
C235 O237 1.282 . S
O236 Cd228 2.277 . S
O236 C229 1.226 . S
O237 Cd228 2.356 . S
O237 C235 1.282 . S
C238 O239 1.306 . S
C238 O241 1.160 . S
O239 C238 1.306 . S
O239 Cd240 2.228 . S
Cd240 O239 2.228 . S
Cd240 O244 2.273 . S
Cd240 O248 2.277 . S
O241 C238 1.160 . S
O241 Cd242 2.203 . S
Cd242 O241 2.203 . S
Cd242 O244 2.411 . S
Cd242 O245 2.333 . S
Cd242 O246 2.352 . S
Cd242 O250 2.277 . S
Cd242 O251 2.356 . S
C243 O248 1.209 . S
C243 O250 1.226 . S
O244 Cd240 2.273 . S
O244 Cd242 2.411 . S
O244 C247 1.320 . S
O245 Cd242 2.333 . S
O245 C247 1.214 . S
O246 Cd242 2.352 . S
O246 C249 1.258 . S
C247 O244 1.320 . S
C247 O245 1.214 . S
O248 Cd240 2.277 . S
O248 C243 1.209 . S
C249 O246 1.258 . S
C249 O251 1.282 . S
O250 Cd242 2.277 . S
O250 C243 1.226 . S
O251 Cd242 2.356 . S
O251 C249 1.282 . S
C252 O253 1.306 . S
C252 O255 1.160 . S
O253 C252 1.306 . S
O253 Cd254 2.228 . S
Cd254 O253 2.228 . S
Cd254 O258 2.273 . S
Cd254 O262 2.277 . S
O255 C252 1.160 . S
O255 Cd256 2.203 . S
Cd256 O255 2.203 . S
Cd256 O258 2.411 . S
Cd256 O259 2.333 . S
Cd256 O260 2.352 . S
Cd256 O264 2.277 . S
Cd256 O265 2.356 . S
C257 O262 1.209 . S
C257 O264 1.226 . S
O258 Cd254 2.273 . S
O258 Cd256 2.411 . S
O258 C261 1.320 . S
O259 Cd256 2.333 . S
O259 C261 1.214 . S
O260 Cd256 2.352 . S
O260 C263 1.258 . S
C261 O258 1.320 . S
C261 O259 1.214 . S
O262 Cd254 2.277 . S
O262 C257 1.209 . S
C263 O260 1.258 . S
C263 O265 1.282 . S
O264 Cd256 2.277 . S
O264 C257 1.226 . S
O265 Cd256 2.356 . S
O265 C263 1.282 . S
C266 O267 1.306 . S
C266 O269 1.160 . S
O267 C266 1.306 . S
O267 Cd268 2.228 . S
Cd268 O267 2.228 . S
Cd268 O272 2.273 . S
Cd268 O276 2.277 . S
O269 C266 1.160 . S
O269 Cd270 2.203 . S
Cd270 O269 2.203 . S
Cd270 O272 2.411 . S
Cd270 O273 2.333 . S
Cd270 O274 2.352 1_545 S
Cd270 O278 2.277 . S
Cd270 O279 2.356 1_545 S
C271 O276 1.209 . S
C271 O278 1.226 . S
O272 Cd268 2.273 . S
O272 Cd270 2.411 . S
O272 C275 1.320 . S
O273 Cd270 2.333 . S
O273 C275 1.214 . S
O274 Cd270 2.352 1_565 S
O274 C277 1.258 . S
C275 O272 1.320 . S
C275 O273 1.214 . S
O276 Cd268 2.277 . S
O276 C271 1.209 . S
C277 O274 1.258 . S
C277 O279 1.282 . S
O278 Cd270 2.277 . S
O278 C271 1.226 . S
O279 Cd270 2.356 1_565 S
O279 C277 1.282 . S
C280 O281 1.306 . S
C280 O283 1.160 . S
O281 C280 1.306 . S
O281 Cd282 2.228 . S
Cd282 O281 2.228 . S
Cd282 O286 2.273 . S
Cd282 O290 2.277 . S
O283 C280 1.160 . S
O283 Cd284 2.203 1_554 S
Cd284 O283 2.203 1_556 S
Cd284 O286 2.411 1_556 S
Cd284 O287 2.333 . S
Cd284 O288 2.352 . S
Cd284 O292 2.277 1_556 S
Cd284 O293 2.356 . S
C285 O290 1.209 . S
C285 O292 1.226 . S
O286 Cd282 2.273 . S
O286 Cd284 2.411 1_554 S
O286 C289 1.320 1_554 S
O287 Cd284 2.333 . S
O287 C289 1.214 . S
O288 Cd284 2.352 . S
O288 C291 1.258 . S
C289 O286 1.320 1_556 S
C289 O287 1.214 . S
O290 Cd282 2.277 . S
O290 C285 1.209 . S
C291 O288 1.258 . S
C291 O293 1.282 . S
O292 Cd284 2.277 1_554 S
O292 C285 1.226 . S
O293 Cd284 2.356 . S
O293 C291 1.282 . S
C294 O295 1.306 . S
C294 O297 1.160 . S
O295 C294 1.306 . S
O295 Cd296 2.228 . S
Cd296 O295 2.228 . S
Cd296 O300 2.273 . S
Cd296 O304 2.277 . S
O297 C294 1.160 . S
O297 Cd298 2.203 . S
Cd298 O297 2.203 . S
Cd298 O300 2.411 . S
Cd298 O301 2.333 . S
Cd298 O302 2.352 . S
Cd298 O306 2.277 . S
Cd298 O307 2.356 . S
C299 O304 1.209 . S
C299 O306 1.226 . S
O300 Cd296 2.273 . S
O300 Cd298 2.411 . S
O300 C303 1.320 . S
O301 Cd298 2.333 . S
O301 C303 1.214 . S
O302 Cd298 2.352 . S
O302 C305 1.258 . S
C303 O300 1.320 . S
C303 O301 1.214 . S
O304 Cd296 2.277 . S
O304 C299 1.209 . S
C305 O302 1.258 . S
C305 O307 1.282 . S
O306 Cd298 2.277 . S
O306 C299 1.226 . S
O307 Cd298 2.356 . S
O307 C305 1.282 . S
C308 O309 1.306 . S
C308 O311 1.160 . S
O309 C308 1.306 . S
O309 Cd310 2.228 . S
Cd310 O309 2.228 . S
Cd310 O314 2.273 . S
Cd310 O318 2.277 . S
O311 C308 1.160 . S
O311 Cd312 2.203 . S
Cd312 O311 2.203 . S
Cd312 O314 2.411 . S
Cd312 O315 2.333 . S
Cd312 O316 2.352 . S
Cd312 O320 2.277 . S
Cd312 O321 2.356 . S
C313 O318 1.209 . S
C313 O320 1.226 . S
O314 Cd310 2.273 . S
O314 Cd312 2.411 . S
O314 C317 1.320 . S
O315 Cd312 2.333 . S
O315 C317 1.214 . S
O316 Cd312 2.352 . S
O316 C319 1.258 . S
C317 O314 1.320 . S
C317 O315 1.214 . S
O318 Cd310 2.277 . S
O318 C313 1.209 . S
C319 O316 1.258 . S
C319 O321 1.282 . S
O320 Cd312 2.277 . S
O320 C313 1.226 . S
O321 Cd312 2.356 . S
O321 C319 1.282 . S
C322 O323 1.306 . S
C322 O325 1.160 . S
O323 C322 1.306 . S
O323 Cd324 2.228 . S
Cd324 O323 2.228 . S
Cd324 O328 2.273 . S
Cd324 O332 2.277 . S
O325 C322 1.160 . S
O325 Cd326 2.203 . S
Cd326 O325 2.203 . S
Cd326 O328 2.411 . S
Cd326 O329 2.333 . S
Cd326 O330 2.352 . S
Cd326 O334 2.277 . S
Cd326 O335 2.356 . S
C327 O332 1.209 . S
C327 O334 1.226 . S
O328 Cd324 2.273 . S
O328 Cd326 2.411 . S
O328 C331 1.320 . S
O329 Cd326 2.333 . S
O329 C331 1.214 . S
O330 Cd326 2.352 . S
O330 C333 1.258 . S
C331 O328 1.320 . S
C331 O329 1.214 . S
O332 Cd324 2.277 . S
O332 C327 1.209 . S
C333 O330 1.258 . S
C333 O335 1.282 . S
O334 Cd326 2.277 . S
O334 C327 1.226 . S
O335 Cd326 2.356 . S
O335 C333 1.282 . S
Tb336 O339 2.453 . S
Tb336 O340 2.596 . S
Tb336 O341 2.374 1_554 S
Tb336 O349 2.343 1_455 S
Tb336 O351 2.353 . S
Tb336 O353 2.427 . S
Tb336 O354 2.513 1_554 S
C337 O341 1.251 . S
C337 O343 1.263 . S
Tb338 O340 2.343 1_665 S
Tb338 O343 2.353 1_664 S
Tb338 O346 2.427 1_655 S
Tb338 O347 2.513 1_655 S
Tb338 O348 2.453 1_564 S
Tb338 O349 2.596 1_565 S
Tb338 O350 2.374 1_565 S
O339 Tb336 2.453 . S
O339 C355 1.245 . S
O340 Tb336 2.596 . S
O340 Tb338 2.343 1_445 S
O340 C355 1.259 . S
O341 Tb336 2.374 1_556 S
O341 C337 1.251 . S
C342 O346 1.275 . S
C342 O347 1.246 . S
O343 C337 1.263 . S
O343 Tb338 2.353 1_446 S
C344 O348 1.245 1_554 S
C344 O349 1.259 . S
C345 O350 1.250 . S
C345 O351 1.263 1_655 S
O346 Tb338 2.427 1_455 S
O346 C342 1.275 . S
O347 Tb338 2.513 1_455 S
O347 C342 1.246 . S
O348 Tb338 2.453 1_546 S
O348 C344 1.245 1_556 S
O349 Tb336 2.343 1_655 S
O349 Tb338 2.596 1_545 S
O349 C344 1.259 . S
O350 Tb338 2.374 1_545 S
O350 C345 1.250 . S
O351 Tb336 2.353 . S
O351 C345 1.263 1_455 S
C352 O353 1.275 . S
C352 O354 1.246 1_554 S
O353 Tb336 2.427 . S
O353 C352 1.275 . S
O354 Tb336 2.513 1_556 S
O354 C352 1.246 1_556 S
C355 O339 1.245 . S
C355 O340 1.259 . S
Tb356 O359 2.453 . S
Tb356 O360 2.596 . S
Tb356 O361 2.374 . S
Tb356 O369 2.343 . S
Tb356 O371 2.353 . S
Tb356 O373 2.427 . S
Tb356 O374 2.513 . S
C357 O361 1.251 . S
C357 O363 1.263 . S
Tb358 O360 2.343 . S
Tb358 O363 2.353 . S
Tb358 O366 2.427 . S
Tb358 O367 2.513 . S
Tb358 O368 2.453 . S
Tb358 O369 2.596 . S
Tb358 O370 2.374 . S
O359 Tb356 2.453 . S
O359 C375 1.245 . S
O360 Tb356 2.596 . S
O360 Tb358 2.343 . S
O360 C375 1.259 . S
O361 Tb356 2.374 . S
O361 C357 1.251 . S
C362 O366 1.275 . S
C362 O367 1.246 . S
O363 C357 1.263 . S
O363 Tb358 2.353 . S
C364 O368 1.245 . S
C364 O369 1.259 . S
C365 O370 1.250 . S
C365 O371 1.263 . S
O366 Tb358 2.427 . S
O366 C362 1.275 . S
O367 Tb358 2.513 . S
O367 C362 1.246 . S
O368 Tb358 2.453 . S
O368 C364 1.245 . S
O369 Tb356 2.343 . S
O369 Tb358 2.596 . S
O369 C364 1.259 . S
O370 Tb358 2.374 . S
O370 C365 1.250 . S
O371 Tb356 2.353 . S
O371 C365 1.263 . S
C372 O373 1.275 . S
C372 O374 1.246 . S
O373 Tb356 2.427 . S
O373 C372 1.275 . S
O374 Tb356 2.513 . S
O374 C372 1.246 . S
C375 O359 1.245 . S
C375 O360 1.259 . S
Tb376 O379 2.453 . S
Tb376 O380 2.596 . S
Tb376 O381 2.374 . S
Tb376 O389 2.343 . S
Tb376 O391 2.353 . S
Tb376 O393 2.427 . S
Tb376 O394 2.513 . S
C377 O381 1.251 . S
C377 O383 1.263 . S
Tb378 O380 2.343 . S
Tb378 O383 2.353 . S
Tb378 O386 2.427 . S
Tb378 O387 2.513 . S
Tb378 O388 2.453 1_545 S
Tb378 O389 2.596 . S
Tb378 O390 2.374 . S
O379 Tb376 2.453 . S
O379 C395 1.245 . S
O380 Tb376 2.596 . S
O380 Tb378 2.343 . S
O380 C395 1.259 . S
O381 Tb376 2.374 . S
O381 C377 1.251 . S
C382 O386 1.275 . S
C382 O387 1.246 . S
O383 C377 1.263 . S
O383 Tb378 2.353 . S
C384 O388 1.245 . S
C384 O389 1.259 1_565 S
C385 O390 1.250 . S
C385 O391 1.263 . S
O386 Tb378 2.427 . S
O386 C382 1.275 . S
O387 Tb378 2.513 . S
O387 C382 1.246 . S
O388 Tb378 2.453 1_565 S
O388 C384 1.245 . S
O389 Tb376 2.343 . S
O389 Tb378 2.596 . S
O389 C384 1.259 1_545 S
O390 Tb378 2.374 . S
O390 C385 1.250 . S
O391 Tb376 2.353 . S
O391 C385 1.263 . S
C392 O393 1.275 1_565 S
C392 O394 1.246 1_565 S
O393 Tb376 2.427 . S
O393 C392 1.275 1_545 S
O394 Tb376 2.513 . S
O394 C392 1.246 1_545 S
C395 O379 1.245 . S
C395 O380 1.259 . S
Tb396 O399 2.453 . S
Tb396 O400 2.596 . S
Tb396 O401 2.374 . S
Tb396 O409 2.343 . S
Tb396 O411 2.353 . S
Tb396 O413 2.427 . S
Tb396 O414 2.513 . S
C397 O401 1.251 . S
C397 O403 1.263 . S
Tb398 O400 2.343 . S
Tb398 O403 2.353 . S
Tb398 O406 2.427 . S
Tb398 O407 2.513 . S
Tb398 O408 2.453 . S
Tb398 O409 2.596 . S
Tb398 O410 2.374 . S
O399 Tb396 2.453 . S
O399 C415 1.245 . S
O400 Tb396 2.596 . S
O400 Tb398 2.343 . S
O400 C415 1.259 . S
O401 Tb396 2.374 . S
O401 C397 1.251 . S
C402 O406 1.275 . S
C402 O407 1.246 . S
O403 C397 1.263 . S
O403 Tb398 2.353 . S
C404 O408 1.245 . S
C404 O409 1.259 . S
C405 O410 1.250 . S
C405 O411 1.263 . S
O406 Tb398 2.427 . S
O406 C402 1.275 . S
O407 Tb398 2.513 . S
O407 C402 1.246 . S
O408 Tb398 2.453 . S
O408 C404 1.245 . S
O409 Tb396 2.343 . S
O409 Tb398 2.596 . S
O409 C404 1.259 . S
O410 Tb398 2.374 . S
O410 C405 1.250 . S
O411 Tb396 2.353 . S
O411 C405 1.263 . S
C412 O413 1.275 . S
C412 O414 1.246 . S
O413 Tb396 2.427 . S
O413 C412 1.275 . S
O414 Tb396 2.513 . S
O414 C412 1.246 . S
C415 O399 1.245 . S
C415 O400 1.259 . S
Tb416 O419 2.453 1_545 S
Tb416 O420 2.596 . S
Tb416 O421 2.374 1_455 S
Tb416 O429 2.343 . S
Tb416 O431 2.353 . S
Tb416 O433 2.427 . S
Tb416 O434 2.513 1_455 S
C417 O421 1.251 . S
C417 O423 1.263 . S
Tb418 O420 2.343 . S
Tb418 O423 2.353 1_455 S
Tb418 O426 2.427 . S
Tb418 O427 2.513 . S
Tb418 O428 2.453 . S
Tb418 O429 2.596 . S
Tb418 O430 2.374 . S
O419 Tb416 2.453 1_565 S
O419 C435 1.245 . S
O420 Tb416 2.596 . S
O420 Tb418 2.343 . S
O420 C435 1.259 1_545 S
O421 Tb416 2.374 1_655 S
O421 C417 1.251 . S
C422 O426 1.275 . S
C422 O427 1.246 . S
O423 C417 1.263 . S
O423 Tb418 2.353 1_655 S
C424 O428 1.245 . S
C424 O429 1.259 . S
C425 O430 1.250 . S
C425 O431 1.263 . S
O426 Tb418 2.427 . S
O426 C422 1.275 . S
O427 Tb418 2.513 . S
O427 C422 1.246 . S
O428 Tb418 2.453 . S
O428 C424 1.245 . S
O429 Tb416 2.343 . S
O429 Tb418 2.596 . S
O429 C424 1.259 . S
O430 Tb418 2.374 . S
O430 C425 1.250 . S
O431 Tb416 2.353 . S
O431 C425 1.263 . S
C432 O433 1.275 1_655 S
C432 O434 1.246 . S
O433 Tb416 2.427 . S
O433 C432 1.275 1_455 S
O434 Tb416 2.513 1_655 S
O434 C432 1.246 . S
C435 O419 1.245 . S
C435 O420 1.259 1_565 S
Tb436 O439 2.453 . S
Tb436 O440 2.596 . S
Tb436 O441 2.374 . S
Tb436 O449 2.343 . S
Tb436 O451 2.353 . S
Tb436 O453 2.427 . S
Tb436 O454 2.513 . S
C437 O441 1.251 . S
C437 O443 1.263 . S
Tb438 O440 2.343 . S
Tb438 O443 2.353 . S
Tb438 O446 2.427 . S
Tb438 O447 2.513 . S
Tb438 O448 2.453 . S
Tb438 O449 2.596 . S
Tb438 O450 2.374 . S
O439 Tb436 2.453 . S
O439 C455 1.245 . S
O440 Tb436 2.596 . S
O440 Tb438 2.343 . S
O440 C455 1.259 . S
O441 Tb436 2.374 . S
O441 C437 1.251 . S
C442 O446 1.275 . S
C442 O447 1.246 . S
O443 C437 1.263 . S
O443 Tb438 2.353 . S
C444 O448 1.245 . S
C444 O449 1.259 . S
C445 O450 1.250 . S
C445 O451 1.263 . S
O446 Tb438 2.427 . S
O446 C442 1.275 . S
O447 Tb438 2.513 . S
O447 C442 1.246 . S
O448 Tb438 2.453 . S
O448 C444 1.245 . S
O449 Tb436 2.343 . S
O449 Tb438 2.596 . S
O449 C444 1.259 . S
O450 Tb438 2.374 . S
O450 C445 1.250 . S
O451 Tb436 2.353 . S
O451 C445 1.263 . S
C452 O453 1.275 . S
C452 O454 1.246 . S
O453 Tb436 2.427 . S
O453 C452 1.275 . S
O454 Tb436 2.513 . S
O454 C452 1.246 . S
C455 O439 1.245 . S
C455 O440 1.259 . S
Tb456 O459 2.453 . S
Tb456 O460 2.596 . S
Tb456 O461 2.374 1_545 S
Tb456 O469 2.343 1_556 S
Tb456 O471 2.353 1_556 S
Tb456 O473 2.427 1_556 S
Tb456 O474 2.513 1_546 S
C457 O461 1.250 1_554 S
C457 O463 1.265 . S
Tb458 O460 2.343 1_554 S
Tb458 O463 2.353 1_545 S
Tb458 O466 2.427 . S
Tb458 O467 2.513 . S
Tb458 O468 2.453 . S
Tb458 O469 2.596 . S
Tb458 O470 2.374 . S
O459 Tb456 2.453 . S
O459 C475 1.245 . S
O460 Tb456 2.596 . S
O460 Tb458 2.343 1_556 S
O460 C475 1.259 . S
O461 Tb456 2.374 1_565 S
O461 C457 1.250 1_556 S
C462 O466 1.275 . S
C462 O467 1.246 . S
O463 C457 1.265 . S
O463 Tb458 2.353 1_565 S
C464 O468 1.245 . S
C464 O469 1.259 . S
C465 O470 1.250 . S
C465 O471 1.263 . S
O466 Tb458 2.427 . S
O466 C462 1.275 . S
O467 Tb458 2.513 . S
O467 C462 1.246 . S
O468 Tb458 2.453 . S
O468 C464 1.245 . S
O469 Tb456 2.343 1_554 S
O469 Tb458 2.596 . S
O469 C464 1.259 . S
O470 Tb458 2.374 . S
O470 C465 1.250 . S
O471 Tb456 2.353 1_554 S
O471 C465 1.263 . S
C472 O473 1.275 . S
C472 O474 1.246 1_545 S
O473 Tb456 2.427 1_554 S
O473 C472 1.275 . S
O474 Tb456 2.513 1_564 S
O474 C472 1.246 1_565 S
C475 O459 1.245 . S
C475 O460 1.259 . S
Tb476 O479 2.453 . S
Tb476 O480 2.596 . S
Tb476 O481 2.374 . S
Tb476 O489 2.343 . S
Tb476 O491 2.353 . S
Tb476 O493 2.427 . S
Tb476 O494 2.513 . S
C477 O481 1.251 . S
C477 O483 1.263 . S
Tb478 O480 2.343 . S
Tb478 O483 2.353 . S
Tb478 O486 2.427 . S
Tb478 O487 2.513 . S
Tb478 O488 2.453 . S
Tb478 O489 2.596 . S
Tb478 O490 2.374 . S
O479 Tb476 2.453 . S
O479 C495 1.245 . S
O480 Tb476 2.596 . S
O480 Tb478 2.343 . S
O480 C495 1.259 . S
O481 Tb476 2.374 . S
O481 C477 1.251 . S
C482 O486 1.275 . S
C482 O487 1.246 . S
O483 C477 1.263 . S
O483 Tb478 2.353 . S
C484 O488 1.245 . S
C484 O489 1.259 . S
C485 O490 1.250 . S
C485 O491 1.263 . S
O486 Tb478 2.427 . S
O486 C482 1.275 . S
O487 Tb478 2.513 . S
O487 C482 1.246 . S
O488 Tb478 2.453 . S
O488 C484 1.245 . S
O489 Tb476 2.343 . S
O489 Tb478 2.596 . S
O489 C484 1.259 . S
O490 Tb478 2.374 . S
O490 C485 1.250 . S
O491 Tb476 2.353 . S
O491 C485 1.263 . S
C492 O493 1.275 . S
C492 O494 1.246 . S
O493 Tb476 2.427 . S
O493 C492 1.275 . S
O494 Tb476 2.513 . S
O494 C492 1.246 . S
C495 O479 1.245 . S
C495 O480 1.259 . S
Tb496 O499 2.453 1_556 S
Tb496 O500 2.596 1_556 S
Tb496 O501 2.362 1_556 S
Tb496 O509 2.349 . S
Tb496 O511 2.353 . S
Tb496 O513 2.427 . S
Tb496 O514 2.513 . S
C497 O501 1.272 . S
C497 O503 1.263 . S
Tb498 O500 2.343 . S
Tb498 O503 2.353 . S
Tb498 O506 2.427 . S
Tb498 O507 2.513 . S
Tb498 O508 2.453 . S
Tb498 O509 2.578 1_554 S
Tb498 O510 2.374 . S
O499 Tb496 2.453 1_554 S
O499 C515 1.245 . S
O500 Tb496 2.596 1_554 S
O500 Tb498 2.343 . S
O500 C515 1.259 . S
O501 Tb496 2.362 1_554 S
O501 C497 1.272 . S
C502 O506 1.275 . S
C502 O507 1.246 . S
O503 C497 1.263 . S
O503 Tb498 2.353 . S
C504 O508 1.245 . S
C504 O509 1.258 1_554 S
C505 O510 1.250 . S
C505 O511 1.263 1_554 S
O506 Tb498 2.427 . S
O506 C502 1.275 . S
O507 Tb498 2.513 . S
O507 C502 1.246 . S
O508 Tb498 2.453 . S
O508 C504 1.245 . S
O509 Tb496 2.349 . S
O509 Tb498 2.578 1_556 S
O509 C504 1.258 1_556 S
O510 Tb498 2.374 . S
O510 C505 1.250 . S
O511 Tb496 2.353 . S
O511 C505 1.263 1_556 S
C512 O513 1.275 . S
C512 O514 1.246 . S
O513 Tb496 2.427 . S
O513 C512 1.275 . S
O514 Tb496 2.513 . S
O514 C512 1.246 . S
C515 O499 1.245 . S
C515 O500 1.259 . S
Tb516 O519 2.453 . S
Tb516 O520 2.596 . S
Tb516 O521 2.374 . S
Tb516 O529 2.343 . S
Tb516 O531 2.353 . S
Tb516 O533 2.427 . S
Tb516 O534 2.513 . S
C517 O521 1.251 . S
C517 O523 1.263 . S
Tb518 O520 2.343 . S
Tb518 O523 2.353 . S
Tb518 O526 2.427 . S
Tb518 O527 2.513 . S
Tb518 O528 2.453 . S
Tb518 O529 2.596 . S
Tb518 O530 2.374 . S
O519 Tb516 2.453 . S
O519 C535 1.245 . S
O520 Tb516 2.596 . S
O520 Tb518 2.343 . S
O520 C535 1.259 . S
O521 Tb516 2.374 . S
O521 C517 1.251 . S
C522 O526 1.275 . S
C522 O527 1.246 . S
O523 C517 1.263 . S
O523 Tb518 2.353 . S
C524 O528 1.245 . S
C524 O529 1.259 . S
C525 O530 1.250 . S
C525 O531 1.263 . S
O526 Tb518 2.427 . S
O526 C522 1.275 . S
O527 Tb518 2.513 . S
O527 C522 1.246 . S
O528 Tb518 2.453 . S
O528 C524 1.245 . S
O529 Tb516 2.343 . S
O529 Tb518 2.596 . S
O529 C524 1.259 . S
O530 Tb518 2.374 . S
O530 C525 1.250 . S
O531 Tb516 2.353 . S
O531 C525 1.263 . S
C532 O533 1.275 . S
C532 O534 1.246 . S
O533 Tb516 2.427 . S
O533 C532 1.275 . S
O534 Tb516 2.513 . S
O534 C532 1.246 . S
C535 O519 1.245 . S
C535 O520 1.259 . S
Tb536 O539 2.470 . S
Tb536 O540 2.596 1_655 S
Tb536 O541 2.374 . S
Tb536 O549 2.343 . S
Tb536 O551 2.353 . S
Tb536 O553 2.427 . S
Tb536 O554 2.513 . S
C537 O541 1.251 1_455 S
C537 O543 1.263 . S
Tb538 O540 2.343 . S
Tb538 O543 2.353 . S
Tb538 O546 2.427 . S
Tb538 O547 2.513 . S
Tb538 O548 2.453 . S
Tb538 O549 2.596 1_455 S
Tb538 O550 2.374 . S
O539 Tb536 2.470 . S
O539 C555 1.219 1_655 S
O540 Tb536 2.596 1_455 S
O540 Tb538 2.343 . S
O540 C555 1.259 . S
O541 Tb536 2.374 . S
O541 C537 1.251 1_655 S
C542 O546 1.275 . S
C542 O547 1.246 . S
O543 C537 1.263 . S
O543 Tb538 2.353 . S
C544 O548 1.245 1_655 S
C544 O549 1.259 . S
C545 O550 1.250 . S
C545 O551 1.263 1_455 S
O546 Tb538 2.427 . S
O546 C542 1.275 . S
O547 Tb538 2.513 . S
O547 C542 1.246 . S
O548 Tb538 2.453 . S
O548 C544 1.245 1_455 S
O549 Tb536 2.343 . S
O549 Tb538 2.596 1_655 S
O549 C544 1.259 . S
O550 Tb538 2.374 . S
O550 C545 1.250 . S
O551 Tb536 2.353 . S
O551 C545 1.263 1_655 S
C552 O553 1.275 . S
C552 O554 1.246 . S
O553 Tb536 2.427 . S
O553 C552 1.275 . S
O554 Tb536 2.513 . S
O554 C552 1.246 . S
C555 O539 1.219 1_455 S
C555 O540 1.259 . S
Tb556 O559 2.453 . S
Tb556 O560 2.596 . S
Tb556 O561 2.374 . S
Tb556 O569 2.343 . S
Tb556 O571 2.353 . S
Tb556 O573 2.427 . S
Tb556 O574 2.513 . S
C557 O561 1.251 . S
C557 O563 1.263 . S
Tb558 O560 2.343 . S
Tb558 O563 2.353 . S
Tb558 O566 2.427 . S
Tb558 O567 2.513 . S
Tb558 O568 2.453 . S
Tb558 O569 2.596 . S
Tb558 O570 2.374 . S
O559 Tb556 2.453 . S
O559 C575 1.245 . S
O560 Tb556 2.596 . S
O560 Tb558 2.343 . S
O560 C575 1.259 . S
O561 Tb556 2.374 . S
O561 C557 1.251 . S
C562 O566 1.275 . S
C562 O567 1.246 . S
O563 C557 1.263 . S
O563 Tb558 2.353 . S
C564 O568 1.245 . S
C564 O569 1.259 . S
C565 O570 1.250 . S
C565 O571 1.263 . S
O566 Tb558 2.427 . S
O566 C562 1.275 . S
O567 Tb558 2.513 . S
O567 C562 1.246 . S
O568 Tb558 2.453 . S
O568 C564 1.245 . S
O569 Tb556 2.343 . S
O569 Tb558 2.596 . S
O569 C564 1.259 . S
O570 Tb558 2.374 . S
O570 C565 1.250 . S
O571 Tb556 2.353 . S
O571 C565 1.263 . S
C572 O573 1.275 . S
C572 O574 1.246 . S
O573 Tb556 2.427 . S
O573 C572 1.275 . S
O574 Tb556 2.513 . S
O574 C572 1.246 . S
C575 O559 1.245 . S
C575 O560 1.259 . S
Tb576 O579 2.453 . S
Tb576 O580 2.596 . S
Tb576 O581 2.374 . S
Tb576 O589 2.343 . S
Tb576 O591 2.353 . S
Tb576 O593 2.427 . S
Tb576 O594 2.513 . S
C577 O581 1.251 . S
C577 O583 1.263 . S
Tb578 O580 2.343 . S
Tb578 O583 2.353 . S
Tb578 O586 2.427 . S
Tb578 O587 2.513 . S
Tb578 O588 2.453 . S
Tb578 O589 2.596 . S
Tb578 O590 2.374 . S
O579 Tb576 2.453 . S
O579 C595 1.245 . S
O580 Tb576 2.596 . S
O580 Tb578 2.343 . S
O580 C595 1.259 . S
O581 Tb576 2.374 . S
O581 C577 1.251 . S
C582 O586 1.275 . S
C582 O587 1.246 . S
O583 C577 1.263 . S
O583 Tb578 2.353 . S
C584 O588 1.245 . S
C584 O589 1.259 . S
C585 O590 1.250 . S
C585 O591 1.263 . S
O586 Tb578 2.427 . S
O586 C582 1.275 . S
O587 Tb578 2.513 . S
O587 C582 1.246 . S
O588 Tb578 2.453 . S
O588 C584 1.245 . S
O589 Tb576 2.343 . S
O589 Tb578 2.596 . S
O589 C584 1.259 . S
O590 Tb578 2.374 . S
O590 C585 1.250 . S
O591 Tb576 2.353 . S
O591 C585 1.263 . S
C592 O593 1.275 . S
C592 O594 1.246 . S
O593 Tb576 2.427 . S
O593 C592 1.275 . S
O594 Tb576 2.513 . S
O594 C592 1.246 . S
C595 O579 1.245 . S
C595 O580 1.259 . S
Tb596 O599 2.453 . S
Tb596 O600 2.596 . S
Tb596 O601 2.374 . S
Tb596 O609 2.343 . S
Tb596 O611 2.353 . S
Tb596 O613 2.427 . S
Tb596 O614 2.513 . S
C597 O601 1.251 . S
C597 O603 1.263 . S
Tb598 O600 2.343 . S
Tb598 O603 2.353 . S
Tb598 O606 2.427 . S
Tb598 O607 2.513 . S
Tb598 O608 2.453 . S
Tb598 O609 2.596 . S
Tb598 O610 2.374 . S
O599 Tb596 2.453 . S
O599 C615 1.245 . S
O600 Tb596 2.596 . S
O600 Tb598 2.343 . S
O600 C615 1.259 . S
O601 Tb596 2.374 . S
O601 C597 1.251 . S
C602 O606 1.275 . S
C602 O607 1.246 . S
O603 C597 1.263 . S
O603 Tb598 2.353 . S
C604 O608 1.245 . S
C604 O609 1.259 . S
C605 O610 1.250 . S
C605 O611 1.263 . S
O606 Tb598 2.427 . S
O606 C602 1.275 . S
O607 Tb598 2.513 . S
O607 C602 1.246 . S
O608 Tb598 2.453 . S
O608 C604 1.245 . S
O609 Tb596 2.343 . S
O609 Tb598 2.596 . S
O609 C604 1.259 . S
O610 Tb598 2.374 . S
O610 C605 1.250 . S
O611 Tb596 2.353 . S
O611 C605 1.263 . S
C612 O613 1.275 . S
C612 O614 1.246 . S
O613 Tb596 2.427 . S
O613 C612 1.275 . S
O614 Tb596 2.513 . S
O614 C612 1.246 . S
C615 O599 1.245 . S
C615 O600 1.259 . S
Tb616 O619 2.453 . S
Tb616 O620 2.596 . S
Tb616 O621 2.374 . S
Tb616 O629 2.343 . S
Tb616 O631 2.353 . S
Tb616 O633 2.427 . S
Tb616 O634 2.513 . S
C617 O621 1.251 . S
C617 O623 1.263 . S
Tb618 O620 2.343 . S
Tb618 O623 2.353 . S
Tb618 O626 2.427 . S
Tb618 O627 2.513 . S
Tb618 O628 2.453 . S
Tb618 O629 2.596 . S
Tb618 O630 2.374 . S
O619 Tb616 2.453 . S
O619 C635 1.245 . S
O620 Tb616 2.596 . S
O620 Tb618 2.343 . S
O620 C635 1.259 . S
O621 Tb616 2.374 . S
O621 C617 1.251 . S
C622 O626 1.275 . S
C622 O627 1.246 . S
O623 C617 1.263 . S
O623 Tb618 2.353 . S
C624 O628 1.245 . S
C624 O629 1.259 . S
C625 O630 1.250 . S
C625 O631 1.263 . S
O626 Tb618 2.427 . S
O626 C622 1.275 . S
O627 Tb618 2.513 . S
O627 C622 1.246 . S
O628 Tb618 2.453 . S
O628 C624 1.245 . S
O629 Tb616 2.343 . S
O629 Tb618 2.596 . S
O629 C624 1.259 . S
O630 Tb618 2.374 . S
O630 C625 1.250 . S
O631 Tb616 2.353 . S
O631 C625 1.263 . S
C632 O633 1.275 . S
C632 O634 1.246 . S
O633 Tb616 2.427 . S
O633 C632 1.275 . S
O634 Tb616 2.513 . S
O634 C632 1.246 . S
C635 O619 1.245 . S
C635 O620 1.259 . S
Tb636 O639 2.453 . S
Tb636 O640 2.596 . S
Tb636 O641 2.374 . S
Tb636 O649 2.343 . S
Tb636 O651 2.353 1_554 S
Tb636 O653 2.427 1_554 S
Tb636 O654 2.513 . S
C637 O641 1.251 . S
C637 O643 1.263 1_455 S
Tb638 O640 2.343 1_655 S
Tb638 O643 2.353 . S
Tb638 O646 2.427 . S
Tb638 O647 2.513 . S
Tb638 O648 2.453 . S
Tb638 O649 2.596 1_655 S
Tb638 O650 2.374 1_554 S
O639 Tb636 2.453 . S
O639 C655 1.245 . S
O640 Tb636 2.596 . S
O640 Tb638 2.343 1_455 S
O640 C655 1.259 . S
O641 Tb636 2.374 . S
O641 C637 1.251 . S
C642 O646 1.275 . S
C642 O647 1.246 . S
O643 C637 1.263 1_655 S
O643 Tb638 2.353 . S
C644 O648 1.252 . S
C644 O649 1.256 1_655 S
C645 O650 1.260 . S
C645 O651 1.253 1_655 S
O646 Tb638 2.427 . S
O646 C642 1.275 . S
O647 Tb638 2.513 . S
O647 C642 1.246 . S
O648 Tb638 2.453 . S
O648 C644 1.252 . S
O649 Tb636 2.343 . S
O649 Tb638 2.596 1_455 S
O649 C644 1.256 1_455 S
O650 Tb638 2.374 1_556 S
O650 C645 1.260 . S
O651 Tb636 2.353 1_556 S
O651 C645 1.253 1_455 S
C652 O653 1.243 1_554 S
C652 O654 1.291 . S
O653 Tb636 2.427 1_556 S
O653 C652 1.243 1_556 S
O654 Tb636 2.513 . S
O654 C652 1.291 . S
C655 O639 1.245 . S
C655 O640 1.259 . S
H656 C662 0.930 . S
H657 C666 0.930 . S
H658 C671 0.929 . S
H659 C669 0.929 1_554 S
H660 C664 0.929 . S
H661 C670 0.929 . S
C662 H656 0.930 . S
C662 C663 1.367 1_655 S
C662 C670 1.378 . S
C663 C662 1.367 1_455 S
C663 C671 1.433 . S
C664 H660 0.929 . S
C664 C666 1.378 . S
C664 C668 1.350 . S
C665 C668 1.463 . S
C665 C670 1.350 1_455 S
C665 N673 1.427 . S
C666 H657 0.930 . S
C666 C664 1.378 . S
C666 C667 1.367 . S
C667 C666 1.367 . S
C667 C669 1.433 1_455 S
C668 C664 1.350 . S
C668 C665 1.463 . S
C668 N672 1.427 1_455 S
C669 H659 0.929 1_556 S
C669 C667 1.433 1_655 S
C669 N672 1.384 . S
C670 H661 0.929 . S
C670 C662 1.378 . S
C670 C665 1.350 1_655 S
C671 H658 0.929 . S
C671 C663 1.433 . S
C671 N673 1.384 . S
N672 C668 1.427 1_655 S
N672 C669 1.384 . S
N673 C665 1.427 . S
N673 C671 1.384 . S
H674 C680 0.930 . S
H675 C684 0.930 . S
H676 C689 0.929 . S
H677 C687 0.929 . S
H678 C682 0.929 . S
H679 C688 0.929 . S
C680 H674 0.930 . S
C680 C681 1.367 . S
C680 C688 1.378 . S
C681 C680 1.367 . S
C681 C689 1.433 . S
C682 H678 0.929 . S
C682 C684 1.378 . S
C682 C686 1.350 . S
C683 C686 1.463 . S
C683 C688 1.350 . S
C683 N691 1.427 . S
C684 H675 0.930 . S
C684 C682 1.378 . S
C684 C685 1.367 . S
C685 C684 1.367 . S
C685 C687 1.433 . S
C686 C682 1.350 . S
C686 C683 1.463 . S
C686 N690 1.427 . S
C687 H677 0.929 . S
C687 C685 1.433 . S
C687 N690 1.384 . S
C688 H679 0.929 . S
C688 C680 1.378 . S
C688 C683 1.350 . S
C689 H676 0.929 . S
C689 C681 1.433 . S
C689 N691 1.384 . S
N690 C686 1.427 . S
N690 C687 1.384 . S
N691 C683 1.427 . S
N691 C689 1.384 . S
H692 C698 0.930 . S
H693 C702 0.930 . S
H694 C707 0.929 . S
H695 C705 0.929 . S
H696 C700 0.929 . S
H697 C706 0.929 . S
C698 H692 0.930 . S
C698 C699 1.367 . S
C698 C706 1.378 . S
C699 C698 1.367 . S
C699 C707 1.433 . S
C700 H696 0.929 . S
C700 C702 1.378 . S
C700 C704 1.350 . S
C701 C704 1.463 . S
C701 C706 1.350 . S
C701 N709 1.427 . S
C702 H693 0.930 . S
C702 C700 1.378 . S
C702 C703 1.367 . S
C703 C702 1.367 . S
C703 C705 1.433 . S
C704 C700 1.350 . S
C704 C701 1.463 . S
C704 N708 1.427 . S
C705 H695 0.929 . S
C705 C703 1.433 . S
C705 N708 1.384 . S
C706 H697 0.929 . S
C706 C698 1.378 . S
C706 C701 1.350 . S
C707 H694 0.929 . S
C707 C699 1.433 . S
C707 N709 1.384 . S
N708 C704 1.427 . S
N708 C705 1.384 . S
N709 C701 1.427 . S
N709 C707 1.384 . S
H710 C716 0.930 . S
H711 C720 0.930 . S
H712 C725 0.929 . S
H713 C723 0.929 . S
H714 C718 0.929 . S
H715 C724 0.929 . S
C716 H710 0.930 . S
C716 C717 1.367 . S
C716 C724 1.378 . S
C717 C716 1.367 . S
C717 C725 1.433 . S
C718 H714 0.929 . S
C718 C720 1.378 . S
C718 C722 1.350 . S
C719 C722 1.463 . S
C719 C724 1.350 . S
C719 N727 1.427 . S
C720 H711 0.930 . S
C720 C718 1.378 . S
C720 C721 1.367 . S
C721 C720 1.367 . S
C721 C723 1.433 . S
C722 C718 1.350 . S
C722 C719 1.463 . S
C722 N726 1.427 . S
C723 H713 0.929 . S
C723 C721 1.433 . S
C723 N726 1.384 . S
C724 H715 0.929 . S
C724 C716 1.378 . S
C724 C719 1.350 . S
C725 H712 0.929 . S
C725 C717 1.433 . S
C725 N727 1.384 . S
N726 C722 1.427 . S
N726 C723 1.384 . S
N727 C719 1.427 . S
N727 C725 1.384 . S
H728 C734 0.930 . S
H729 C738 0.930 . S
H730 C743 0.929 . S
H731 C741 0.929 . S
H732 C736 0.929 . S
H733 C742 0.929 . S
C734 H728 0.930 . S
C734 C735 1.367 . S
C734 C742 1.378 . S
C735 C734 1.367 . S
C735 C743 1.433 1_455 S
C736 H732 0.929 . S
C736 C738 1.378 . S
C736 C740 1.350 1_655 S
C737 C740 1.463 . S
C737 C742 1.350 . S
C737 N745 1.427 1_455 S
C738 H729 0.930 . S
C738 C736 1.378 . S
C738 C739 1.367 1_655 S
C739 C738 1.367 1_455 S
C739 C741 1.433 . S
C740 C736 1.350 1_455 S
C740 C737 1.463 . S
C740 N744 1.427 . S
C741 H731 0.929 . S
C741 C739 1.433 . S
C741 N744 1.384 . S
C742 H733 0.929 . S
C742 C734 1.378 . S
C742 C737 1.350 . S
C743 H730 0.929 . S
C743 C735 1.433 1_655 S
C743 N745 1.384 . S
N744 C740 1.427 . S
N744 C741 1.384 . S
N745 C737 1.427 1_655 S
N745 C743 1.384 . S
H746 C752 0.930 . S
H747 C756 0.930 . S
H748 C761 0.929 . S
H749 C759 0.929 . S
H750 C754 0.929 . S
H751 C760 0.929 . S
C752 H746 0.930 . S
C752 C753 1.367 . S
C752 C760 1.378 . S
C753 C752 1.367 . S
C753 C761 1.433 . S
C754 H750 0.929 . S
C754 C756 1.378 . S
C754 C758 1.350 . S
C755 C758 1.463 . S
C755 C760 1.350 . S
C755 N763 1.427 . S
C756 H747 0.930 . S
C756 C754 1.378 . S
C756 C757 1.367 . S
C757 C756 1.367 . S
C757 C759 1.433 . S
C758 C754 1.350 . S
C758 C755 1.463 . S
C758 N762 1.427 . S
C759 H749 0.929 . S
C759 C757 1.433 . S
C759 N762 1.384 . S
C760 H751 0.929 . S
C760 C752 1.378 . S
C760 C755 1.350 . S
C761 H748 0.929 . S
C761 C753 1.433 . S
C761 N763 1.384 . S
N762 C758 1.427 . S
N762 C759 1.384 . S
N763 C755 1.427 . S
N763 C761 1.384 . S
H764 C770 0.930 . S
H765 C774 0.930 . S
H766 C779 0.929 . S
H767 C777 0.929 . S
H768 C772 0.929 . S
H769 C778 0.929 . S
C770 H764 0.930 . S
C770 C771 1.367 . S
C770 C778 1.378 . S
C771 C770 1.367 . S
C771 C779 1.433 . S
C772 H768 0.929 . S
C772 C774 1.378 . S
C772 C776 1.350 . S
C773 C776 1.463 . S
C773 C778 1.350 . S
C773 N781 1.427 . S
C774 H765 0.930 . S
C774 C772 1.378 . S
C774 C775 1.367 . S
C775 C774 1.367 . S
C775 C777 1.433 . S
C776 C772 1.350 . S
C776 C773 1.463 . S
C776 N780 1.427 . S
C777 H767 0.929 . S
C777 C775 1.433 . S
C777 N780 1.384 . S
C778 H769 0.929 . S
C778 C770 1.378 . S
C778 C773 1.350 . S
C779 H766 0.929 . S
C779 C771 1.433 . S
C779 N781 1.384 . S
N780 C776 1.427 . S
N780 C777 1.384 . S
N781 C773 1.427 . S
N781 C779 1.384 . S
H782 C788 0.930 . S
H783 C792 0.930 . S
H784 C797 0.929 . S
H785 C795 0.929 . S
H786 C790 0.929 . S
H787 C796 0.929 . S
C788 H782 0.930 . S
C788 C789 1.367 . S
C788 C796 1.378 . S
C789 C788 1.367 . S
C789 C797 1.433 . S
C790 H786 0.929 . S
C790 C792 1.378 . S
C790 C794 1.350 . S
C791 C794 1.463 . S
C791 C796 1.350 . S
C791 N799 1.427 . S
C792 H783 0.930 . S
C792 C790 1.378 . S
C792 C793 1.367 . S
C793 C792 1.367 . S
C793 C795 1.433 . S
C794 C790 1.350 . S
C794 C791 1.463 . S
C794 N798 1.427 . S
C795 H785 0.929 . S
C795 C793 1.433 . S
C795 N798 1.384 . S
C796 H787 0.929 . S
C796 C788 1.378 . S
C796 C791 1.350 . S
C797 H784 0.929 . S
C797 C789 1.433 . S
C797 N799 1.384 . S
N798 C794 1.427 . S
N798 C795 1.384 . S
N799 C791 1.427 . S
N799 C797 1.384 . S
H800 C806 0.930 . S
H801 C810 0.930 1_455 S
H802 C815 0.929 . S
H803 C813 0.929 . S
H804 C808 0.929 . S
H805 C814 0.929 . S
C806 H800 0.930 . S
C806 C807 1.367 . S
C806 C814 1.378 . S
C807 C806 1.367 . S
C807 C815 1.433 . S
C808 H804 0.929 . S
C808 C810 1.378 . S
C808 C812 1.350 . S
C809 C812 1.463 . S
C809 C814 1.350 . S
C809 N817 1.427 . S
C810 H801 0.930 1_655 S
C810 C808 1.378 . S
C810 C811 1.367 . S
C811 C810 1.367 . S
C811 C813 1.433 . S
C812 C808 1.350 . S
C812 C809 1.463 . S
C812 N816 1.427 . S
C813 H803 0.929 . S
C813 C811 1.433 . S
C813 N816 1.384 . S
C814 H805 0.929 . S
C814 C806 1.378 . S
C814 C809 1.350 . S
C815 H802 0.929 . S
C815 C807 1.433 . S
C815 N817 1.384 . S
N816 C812 1.427 . S
N816 C813 1.384 . S
N817 C809 1.427 . S
N817 C815 1.384 . S
H818 C824 0.930 . S
H819 C828 0.930 . S
H820 C833 0.929 . S
H821 C831 0.929 . S
H822 C826 0.929 . S
H823 C832 0.929 . S
C824 H818 0.930 . S
C824 C825 1.367 . S
C824 C832 1.378 . S
C825 C824 1.367 . S
C825 C833 1.433 . S
C826 H822 0.929 . S
C826 C828 1.378 . S
C826 C830 1.350 . S
C827 C830 1.463 . S
C827 C832 1.350 . S
C827 N835 1.427 . S
C828 H819 0.930 . S
C828 C826 1.378 . S
C828 C829 1.367 . S
C829 C828 1.367 . S
C829 C831 1.433 . S
C830 C826 1.350 . S
C830 C827 1.463 . S
C830 N834 1.427 . S
C831 H821 0.929 . S
C831 C829 1.433 . S
C831 N834 1.384 . S
C832 H823 0.929 . S
C832 C824 1.378 . S
C832 C827 1.350 . S
C833 H820 0.929 . S
C833 C825 1.433 . S
C833 N835 1.384 . S
N834 C830 1.427 . S
N834 C831 1.384 . S
N835 C827 1.427 . S
N835 C833 1.384 . S
H836 C842 0.930 . S
H837 C846 0.930 1_565 S
H838 C851 0.929 . S
H839 C849 0.929 . S
H840 C844 0.947 . S
H841 C850 0.929 . S
C842 H836 0.930 . S
C842 C843 1.367 . S
C842 C850 1.378 . S
C843 C842 1.367 . S
C843 C851 1.433 1_545 S
C844 H840 0.947 . S
C844 C846 1.372 1_565 S
C844 C848 1.338 1_565 S
C845 C848 1.463 . S
C845 C850 1.350 . S
C845 N853 1.427 1_545 S
C846 H837 0.930 1_545 S
C846 C844 1.372 1_545 S
C846 C847 1.367 . S
C847 C846 1.367 . S
C847 C849 1.433 . S
C848 C844 1.338 1_545 S
C848 C845 1.463 . S
C848 N852 1.427 . S
C849 H839 0.929 . S
C849 C847 1.433 . S
C849 N852 1.384 . S
C850 H841 0.929 . S
C850 C842 1.378 . S
C850 C845 1.350 . S
C851 H838 0.929 . S
C851 C843 1.433 1_565 S
C851 N853 1.384 . S
N852 C848 1.427 . S
N852 C849 1.384 . S
N853 C845 1.427 1_565 S
N853 C851 1.384 . S
H854 C860 0.930 . S
H855 C864 0.930 . S
H856 C869 0.929 . S
H857 C867 0.929 . S
H858 C862 0.929 . S
H859 C868 0.929 . S
C860 H854 0.930 . S
C860 C861 1.367 . S
C860 C868 1.378 . S
C861 C860 1.367 . S
C861 C869 1.433 . S
C862 H858 0.929 . S
C862 C864 1.378 . S
C862 C866 1.350 . S
C863 C866 1.463 . S
C863 C868 1.350 . S
C863 N871 1.427 . S
C864 H855 0.930 . S
C864 C862 1.378 . S
C864 C865 1.367 . S
C865 C864 1.367 . S
C865 C867 1.433 . S
C866 C862 1.350 . S
C866 C863 1.463 . S
C866 N870 1.427 . S
C867 H857 0.929 . S
C867 C865 1.433 . S
C867 N870 1.384 . S
C868 H859 0.929 . S
C868 C860 1.378 . S
C868 C863 1.350 . S
C869 H856 0.929 . S
C869 C861 1.433 . S
C869 N871 1.384 . S
N870 C866 1.427 . S
N870 C867 1.384 . S
N871 C863 1.427 . S
N871 C869 1.384 . S
H872 C878 0.930 . S
H873 C882 0.930 . S
H874 C887 0.929 . S
H875 C885 0.929 1_455 S
H876 C880 0.929 . S
H877 C886 0.929 . S
C878 H872 0.930 . S
C878 C879 1.367 . S
C878 C886 1.378 . S
C879 C878 1.367 . S
C879 C887 1.433 . S
C880 H876 0.929 . S
C880 C882 1.378 . S
C880 C884 1.350 . S
C881 C884 1.463 . S
C881 C886 1.350 . S
C881 N889 1.427 . S
C882 H873 0.930 . S
C882 C880 1.378 . S
C882 C883 1.367 . S
C883 C882 1.367 . S
C883 C885 1.433 . S
C884 C880 1.350 . S
C884 C881 1.463 . S
C884 N888 1.427 . S
C885 H875 0.929 1_655 S
C885 C883 1.433 . S
C885 N888 1.384 . S
C886 H877 0.929 . S
C886 C878 1.378 . S
C886 C881 1.350 . S
C887 H874 0.929 . S
C887 C879 1.433 . S
C887 N889 1.384 . S
N888 C884 1.427 . S
N888 C885 1.384 . S
N889 C881 1.427 . S
N889 C887 1.384 . S
H890 C896 0.930 . S
H891 C900 0.930 . S
H892 C905 0.929 . S
H893 C903 0.929 . S
H894 C898 0.929 . S
H895 C904 0.929 . S
C896 H890 0.930 . S
C896 C897 1.367 . S
C896 C904 1.378 . S
C897 C896 1.367 . S
C897 C905 1.433 . S
C898 H894 0.929 . S
C898 C900 1.378 . S
C898 C902 1.350 . S
C899 C902 1.463 . S
C899 C904 1.350 . S
C899 N907 1.427 . S
C900 H891 0.930 . S
C900 C898 1.378 . S
C900 C901 1.367 . S
C901 C900 1.367 . S
C901 C903 1.433 . S
C902 C898 1.350 . S
C902 C899 1.463 . S
C902 N906 1.427 . S
C903 H893 0.929 . S
C903 C901 1.433 . S
C903 N906 1.384 . S
C904 H895 0.929 . S
C904 C896 1.378 . S
C904 C899 1.350 . S
C905 H892 0.929 . S
C905 C897 1.433 . S
C905 N907 1.384 . S
N906 C902 1.427 . S
N906 C903 1.384 . S
N907 C899 1.427 . S
N907 C905 1.384 . S
H908 C914 0.930 . S
H909 C918 0.930 . S
H910 C923 0.929 . S
H911 C921 0.929 . S
H912 C916 0.929 . S
H913 C922 0.929 . S
C914 H908 0.930 . S
C914 C915 1.367 . S
C914 C922 1.378 . S
C915 C914 1.367 . S
C915 C923 1.433 . S
C916 H912 0.929 . S
C916 C918 1.378 . S
C916 C920 1.350 . S
C917 C920 1.463 . S
C917 C922 1.350 . S
C917 N925 1.427 . S
C918 H909 0.930 . S
C918 C916 1.378 . S
C918 C919 1.367 . S
C919 C918 1.367 . S
C919 C921 1.433 . S
C920 C916 1.350 . S
C920 C917 1.463 . S
C920 N924 1.427 . S
C921 H911 0.929 . S
C921 C919 1.433 . S
C921 N924 1.384 . S
C922 H913 0.929 . S
C922 C914 1.378 . S
C922 C917 1.350 . S
C923 H910 0.929 . S
C923 C915 1.433 . S
C923 N925 1.384 . S
N924 C920 1.427 . S
N924 C921 1.384 . S
N925 C917 1.427 . S
N925 C923 1.384 . S
H926 C932 0.930 . S
H927 C936 0.930 . S
H928 C941 0.929 . S
H929 C939 0.929 . S
H930 C934 0.929 . S
H931 C940 0.929 . S
C932 H926 0.930 . S
C932 C933 1.367 . S
C932 C940 1.378 . S
C933 C932 1.367 . S
C933 C941 1.433 . S
C934 H930 0.929 . S
C934 C936 1.378 . S
C934 C938 1.350 . S
C935 C938 1.463 . S
C935 C940 1.350 . S
C935 N943 1.427 . S
C936 H927 0.930 . S
C936 C934 1.378 . S
C936 C937 1.367 . S
C937 C936 1.367 . S
C937 C939 1.433 . S
C938 C934 1.350 . S
C938 C935 1.463 . S
C938 N942 1.427 . S
C939 H929 0.929 . S
C939 C937 1.433 . S
C939 N942 1.384 . S
C940 H931 0.929 . S
C940 C932 1.378 . S
C940 C935 1.350 . S
C941 H928 0.929 . S
C941 C933 1.433 . S
C941 N943 1.384 . S
N942 C938 1.427 . S
N942 C939 1.384 . S
N943 C935 1.427 . S
N943 C941 1.384 . S
H944 C950 0.930 . S
H945 C954 0.930 1_556 S
H946 C959 0.929 1_556 S
H947 C957 0.929 . S
H948 C952 0.903 1_556 S
H949 C958 0.929 . S
C950 H944 0.930 . S
C950 C951 1.367 . S
C950 C958 1.378 . S
C951 C950 1.367 . S
C951 C959 1.433 . S
C952 H948 0.903 1_554 S
C952 C954 1.378 . S
C952 C956 1.350 . S
C953 C956 1.463 . S
C953 C958 1.350 . S
C953 N961 1.427 . S
C954 H945 0.930 1_554 S
C954 C952 1.378 . S
C954 C955 1.367 . S
C955 C954 1.367 . S
C955 C957 1.433 1_565 S
C956 C952 1.350 . S
C956 C953 1.463 . S
C956 N960 1.427 . S
C957 H947 0.929 . S
C957 C955 1.433 1_545 S
C957 N960 1.384 1_545 S
C958 H949 0.929 . S
C958 C950 1.378 . S
C958 C953 1.350 . S
C959 H946 0.929 1_554 S
C959 C951 1.433 . S
C959 N961 1.384 . S
N960 C956 1.427 . S
N960 C957 1.384 1_565 S
N961 C953 1.427 . S
N961 C959 1.384 . S
H962 C968 0.930 . S
H963 C972 0.930 . S
H964 C977 0.929 . S
H965 C975 0.929 . S
H966 C970 0.929 . S
H967 C976 0.929 . S
C968 H962 0.930 . S
C968 C969 1.363 1_554 S
C968 C976 1.378 . S
C969 C968 1.363 1_556 S
C969 C977 1.436 . S
C970 H966 0.929 . S
C970 C972 1.378 . S
C970 C974 1.350 1_556 S
C971 C974 1.463 . S
C971 C976 1.350 . S
C971 N979 1.427 1_554 S
C972 H963 0.930 . S
C972 C970 1.378 . S
C972 C973 1.367 1_556 S
C973 C972 1.367 1_554 S
C973 C975 1.433 . S
C974 C970 1.350 1_554 S
C974 C971 1.463 . S
C974 N978 1.427 . S
C975 H965 0.929 . S
C975 C973 1.433 . S
C975 N978 1.384 . S
C976 H967 0.929 . S
C976 C968 1.378 . S
C976 C971 1.350 . S
C977 H964 0.929 . S
C977 C969 1.436 . S
C977 N979 1.384 . S
N978 C974 1.427 . S
N978 C975 1.384 . S
N979 C971 1.427 1_556 S
N979 C977 1.384 . S
H980 C986 0.930 . S
H981 C990 0.930 . S
H982 C995 0.929 . S
H983 C993 0.929 . S
H984 C988 0.929 . S
H985 C994 0.929 . S
C986 H980 0.930 . S
C986 C987 1.367 . S
C986 C994 1.378 . S
C987 C986 1.367 . S
C987 C995 1.433 . S
C988 H984 0.929 . S
C988 C990 1.378 . S
C988 C992 1.350 . S
C989 C992 1.463 . S
C989 C994 1.350 . S
C989 N997 1.427 . S
C990 H981 0.930 . S
C990 C988 1.378 . S
C990 C991 1.367 . S
C991 C990 1.367 . S
C991 C993 1.433 . S
C992 C988 1.350 . S
C992 C989 1.463 . S
C992 N996 1.427 . S
C993 H983 0.929 . S
C993 C991 1.433 . S
C993 N996 1.384 . S
C994 H985 0.929 . S
C994 C986 1.378 . S
C994 C989 1.350 . S
C995 H982 0.929 . S
C995 C987 1.433 . S
C995 N997 1.384 . S
N996 C992 1.427 . S
N996 C993 1.384 . S
N997 C989 1.427 . S
N997 C995 1.384 . S
H998 C1004 0.930 . S
H999 C1008 0.930 . S
H1000 C1013 0.929 . S
H1001 C1011 0.929 . S
H1002 C1006 0.929 . S
H1003 C1012 0.929 . S
C1004 H998 0.930 . S
C1004 C1005 1.367 . S
C1004 C1012 1.378 . S
C1005 C1004 1.367 . S
C1005 C1013 1.433 . S
C1006 H1002 0.929 . S
C1006 C1008 1.378 . S
C1006 C1010 1.350 . S
C1007 C1010 1.463 . S
C1007 C1012 1.350 . S
C1007 N1015 1.427 . S
C1008 H999 0.930 . S
C1008 C1006 1.378 . S
C1008 C1009 1.367 . S
C1009 C1008 1.367 . S
C1009 C1011 1.433 . S
C1010 C1006 1.350 . S
C1010 C1007 1.463 . S
C1010 N1014 1.427 . S
C1011 H1001 0.929 . S
C1011 C1009 1.433 . S
C1011 N1014 1.384 . S
C1012 H1003 0.929 . S
C1012 C1004 1.378 . S
C1012 C1007 1.350 . S
C1013 H1000 0.929 . S
C1013 C1005 1.433 . S
C1013 N1015 1.384 . S
N1014 C1010 1.427 . S
N1014 C1011 1.384 . S
N1015 C1007 1.427 . S
N1015 C1013 1.384 . S
H1016 C1022 0.930 . S
H1017 C1026 0.930 . S
H1018 C1031 0.929 . S
H1019 C1029 0.929 . S
H1020 C1024 0.929 . S
H1021 C1030 0.929 . S
C1022 H1016 0.930 . S
C1022 C1023 1.367 . S
C1022 C1030 1.378 . S
C1023 C1022 1.367 . S
C1023 C1031 1.433 . S
C1024 H1020 0.929 . S
C1024 C1026 1.378 . S
C1024 C1028 1.350 . S
C1025 C1028 1.463 . S
C1025 C1030 1.350 . S
C1025 N1033 1.427 . S
C1026 H1017 0.930 . S
C1026 C1024 1.378 . S
C1026 C1027 1.367 . S
C1027 C1026 1.367 . S
C1027 C1029 1.433 . S
C1028 C1024 1.350 . S
C1028 C1025 1.463 . S
C1028 N1032 1.427 . S
C1029 H1019 0.929 . S
C1029 C1027 1.433 . S
C1029 N1032 1.384 . S
C1030 H1021 0.929 . S
C1030 C1022 1.378 . S
C1030 C1025 1.350 . S
C1031 H1018 0.929 . S
C1031 C1023 1.433 . S
C1031 N1033 1.384 . S
N1032 C1028 1.427 . S
N1032 C1029 1.384 . S
N1033 C1025 1.427 . S
N1033 C1031 1.384 . S
H1034 C1040 0.930 . S
H1035 C1044 0.930 . S
H1036 C1049 0.929 . S
H1037 C1047 0.929 . S
H1038 C1042 0.929 . S
H1039 C1048 0.929 . S
C1040 H1034 0.930 . S
C1040 C1041 1.367 . S
C1040 C1048 1.378 . S
C1041 C1040 1.367 . S
C1041 C1049 1.433 . S
C1042 H1038 0.929 . S
C1042 C1044 1.378 . S
C1042 C1046 1.350 . S
C1043 C1046 1.463 . S
C1043 C1048 1.350 . S
C1043 N1051 1.427 . S
C1044 H1035 0.930 . S
C1044 C1042 1.378 . S
C1044 C1045 1.367 . S
C1045 C1044 1.367 . S
C1045 C1047 1.433 . S
C1046 C1042 1.350 . S
C1046 C1043 1.463 . S
C1046 N1050 1.427 . S
C1047 H1037 0.929 . S
C1047 C1045 1.433 . S
C1047 N1050 1.384 . S
C1048 H1039 0.929 . S
C1048 C1040 1.378 . S
C1048 C1043 1.350 . S
C1049 H1036 0.929 . S
C1049 C1041 1.433 . S
C1049 N1051 1.384 . S
N1050 C1046 1.427 . S
N1050 C1047 1.384 . S
N1051 C1043 1.427 . S
N1051 C1049 1.384 . S
H1052 C1058 0.930 . S
H1053 C1062 0.930 . S
H1054 C1067 0.929 . S
H1055 C1065 0.929 . S
H1056 C1060 0.929 . S
H1057 C1066 0.929 . S
C1058 H1052 0.930 . S
C1058 C1059 1.367 . S
C1058 C1066 1.378 . S
C1059 C1058 1.367 . S
C1059 C1067 1.433 . S
C1060 H1056 0.929 . S
C1060 C1062 1.378 . S
C1060 C1064 1.350 . S
C1061 C1064 1.463 . S
C1061 C1066 1.350 . S
C1061 N1069 1.427 . S
C1062 H1053 0.930 . S
C1062 C1060 1.378 . S
C1062 C1063 1.367 . S
C1063 C1062 1.367 . S
C1063 C1065 1.433 . S
C1064 C1060 1.350 . S
C1064 C1061 1.463 . S
C1064 N1068 1.427 . S
C1065 H1055 0.929 . S
C1065 C1063 1.433 . S
C1065 N1068 1.384 . S
C1066 H1057 0.929 . S
C1066 C1058 1.378 . S
C1066 C1061 1.350 . S
C1067 H1054 0.929 . S
C1067 C1059 1.433 . S
C1067 N1069 1.384 . S
N1068 C1064 1.427 . S
N1068 C1065 1.384 . S
N1069 C1061 1.427 . S
N1069 C1067 1.384 . S
H1070 C1076 0.930 . S
H1071 C1080 0.930 . S
H1072 C1085 0.929 . S
H1073 C1083 0.929 . S
H1074 C1078 0.929 . S
H1075 C1084 0.929 . S
C1076 H1070 0.930 . S
C1076 C1077 1.367 . S
C1076 C1084 1.378 . S
C1077 C1076 1.367 . S
C1077 C1085 1.433 . S
C1078 H1074 0.929 . S
C1078 C1080 1.378 . S
C1078 C1082 1.350 . S
C1079 C1082 1.463 . S
C1079 C1084 1.350 . S
C1079 N1087 1.427 . S
C1080 H1071 0.930 . S
C1080 C1078 1.378 . S
C1080 C1081 1.367 . S
C1081 C1080 1.367 . S
C1081 C1083 1.433 . S
C1082 C1078 1.350 . S
C1082 C1079 1.463 . S
C1082 N1086 1.427 . S
C1083 H1073 0.929 . S
C1083 C1081 1.433 . S
C1083 N1086 1.384 . S
C1084 H1075 0.929 . S
C1084 C1076 1.378 . S
C1084 C1079 1.350 . S
C1085 H1072 0.929 . S
C1085 C1077 1.433 . S
C1085 N1087 1.384 . S
N1086 C1082 1.427 . S
N1086 C1083 1.384 . S
N1087 C1079 1.427 . S
N1087 C1085 1.384 . S
H1088 C1094 0.930 . S
H1089 C1098 0.929 . S
H1090 C1103 0.930 . S
H1091 C1101 0.929 . S
H1092 C1096 0.927 . S
H1093 C1102 0.929 . S
C1094 H1088 0.930 . S
C1094 C1095 1.367 . S
C1094 C1102 1.378 . S
C1095 C1094 1.367 . S
C1095 C1103 1.432 1_455 S
C1096 H1092 0.927 . S
C1096 C1098 1.378 . S
C1096 C1100 1.351 1_655 S
C1097 C1100 1.463 . S
C1097 C1102 1.350 . S
C1097 N1105 1.428 1_455 S
C1098 H1089 0.929 . S
C1098 C1096 1.378 . S
C1098 C1099 1.368 1_655 S
C1099 C1098 1.368 1_455 S
C1099 C1101 1.433 . S
C1100 C1096 1.351 1_455 S
C1100 C1097 1.463 . S
C1100 N1104 1.427 . S
C1101 H1091 0.929 . S
C1101 C1099 1.433 . S
C1101 N1104 1.384 . S
C1102 H1093 0.929 . S
C1102 C1094 1.378 . S
C1102 C1097 1.350 . S
C1103 H1090 0.930 . S
C1103 C1095 1.432 1_655 S
C1103 N1105 1.384 . S
N1104 C1100 1.427 . S
N1104 C1101 1.384 . S
N1105 C1097 1.428 1_655 S
N1105 C1103 1.384 . S
H1106 C1112 0.930 . S
H1107 C1116 0.930 . S
H1108 C1121 0.929 . S
H1109 C1119 0.929 . S
H1110 C1114 0.929 . S
H1111 C1120 0.929 . S
C1112 H1106 0.930 . S
C1112 C1113 1.367 . S
C1112 C1120 1.378 . S
C1113 C1112 1.367 . S
C1113 C1121 1.433 . S
C1114 H1110 0.929 . S
C1114 C1116 1.378 . S
C1114 C1118 1.350 . S
C1115 C1118 1.463 . S
C1115 C1120 1.350 . S
C1115 N1123 1.427 . S
C1116 H1107 0.930 . S
C1116 C1114 1.378 . S
C1116 C1117 1.367 . S
C1117 C1116 1.367 . S
C1117 C1119 1.433 . S
C1118 C1114 1.350 . S
C1118 C1115 1.463 . S
C1118 N1122 1.427 . S
C1119 H1109 0.929 . S
C1119 C1117 1.433 . S
C1119 N1122 1.384 . S
C1120 H1111 0.929 . S
C1120 C1112 1.378 . S
C1120 C1115 1.350 . S
C1121 H1108 0.929 . S
C1121 C1113 1.433 . S
C1121 N1123 1.384 . S
N1122 C1118 1.427 . S
N1122 C1119 1.384 . S
N1123 C1115 1.427 . S
N1123 C1121 1.384 . S
H1124 C1130 0.930 . S
H1125 C1134 0.930 . S
H1126 C1139 0.929 . S
H1127 C1137 0.929 . S
H1128 C1132 0.929 . S
H1129 C1138 0.929 . S
C1130 H1124 0.930 . S
C1130 C1131 1.367 . S
C1130 C1138 1.378 . S
C1131 C1130 1.367 . S
C1131 C1139 1.433 . S
C1132 H1128 0.929 . S
C1132 C1134 1.378 . S
C1132 C1136 1.350 . S
C1133 C1136 1.463 . S
C1133 C1138 1.350 . S
C1133 N1141 1.427 . S
C1134 H1125 0.930 . S
C1134 C1132 1.378 . S
C1134 C1135 1.367 . S
C1135 C1134 1.367 . S
C1135 C1137 1.433 . S
C1136 C1132 1.350 . S
C1136 C1133 1.463 . S
C1136 N1140 1.427 . S
C1137 H1127 0.929 . S
C1137 C1135 1.433 . S
C1137 N1140 1.384 . S
C1138 H1129 0.929 . S
C1138 C1130 1.378 . S
C1138 C1133 1.350 . S
C1139 H1126 0.929 . S
C1139 C1131 1.433 . S
C1139 N1141 1.384 . S
N1140 C1136 1.427 . S
N1140 C1137 1.384 . S
N1141 C1133 1.427 . S
N1141 C1139 1.384 . S
H1142 C1148 0.930 . S
H1143 C1152 0.930 . S
H1144 C1157 0.929 . S
H1145 C1155 0.929 . S
H1146 C1150 0.929 . S
H1147 C1156 0.929 . S
C1148 H1142 0.930 . S
C1148 C1149 1.367 . S
C1148 C1156 1.378 . S
C1149 C1148 1.367 . S
C1149 C1157 1.433 . S
C1150 H1146 0.929 . S
C1150 C1152 1.378 . S
C1150 C1154 1.350 . S
C1151 C1154 1.463 . S
C1151 C1156 1.350 . S
C1151 N1159 1.427 . S
C1152 H1143 0.930 . S
C1152 C1150 1.378 . S
C1152 C1153 1.367 . S
C1153 C1152 1.367 . S
C1153 C1155 1.433 . S
C1154 C1150 1.350 . S
C1154 C1151 1.463 . S
C1154 N1158 1.427 . S
C1155 H1145 0.929 . S
C1155 C1153 1.433 . S
C1155 N1158 1.384 . S
C1156 H1147 0.929 . S
C1156 C1148 1.378 . S
C1156 C1151 1.350 . S
C1157 H1144 0.929 . S
C1157 C1149 1.433 . S
C1157 N1159 1.384 . S
N1158 C1154 1.427 . S
N1158 C1155 1.384 . S
N1159 C1151 1.427 . S
N1159 C1157 1.384 . S
H1160 C1166 0.930 . S
H1161 C1170 0.930 . S
H1162 C1175 0.929 . S
H1163 C1173 0.929 . S
H1164 C1168 0.929 . S
H1165 C1174 0.929 . S
C1166 H1160 0.930 . S
C1166 C1167 1.367 1_655 S
C1166 C1174 1.378 . S
C1167 C1166 1.367 1_455 S
C1167 C1175 1.433 . S
C1168 H1164 0.929 . S
C1168 C1170 1.378 . S
C1168 C1172 1.350 . S
C1169 C1172 1.463 . S
C1169 C1174 1.350 1_455 S
C1169 N1177 1.427 . S
C1170 H1161 0.930 . S
C1170 C1168 1.378 . S
C1170 C1171 1.367 . S
C1171 C1170 1.367 . S
C1171 C1173 1.433 1_455 S
C1172 C1168 1.350 . S
C1172 C1169 1.463 . S
C1172 N1176 1.427 1_455 S
C1173 H1163 0.929 . S
C1173 C1171 1.433 1_655 S
C1173 N1176 1.384 . S
C1174 H1165 0.929 . S
C1174 C1166 1.378 . S
C1174 C1169 1.350 1_655 S
C1175 H1162 0.929 . S
C1175 C1167 1.433 . S
C1175 N1177 1.384 . S
N1176 C1172 1.427 1_655 S
N1176 C1173 1.384 . S
N1177 C1169 1.427 . S
N1177 C1175 1.384 . S
H1178 C1184 0.930 . S
H1179 C1188 0.930 . S
H1180 C1193 0.929 . S
H1181 C1191 0.929 . S
H1182 C1186 0.929 . S
H1183 C1192 0.929 . S
C1184 H1178 0.930 . S
C1184 C1185 1.367 . S
C1184 C1192 1.378 . S
C1185 C1184 1.367 . S
C1185 C1193 1.433 . S
C1186 H1182 0.929 . S
C1186 C1188 1.378 . S
C1186 C1190 1.350 . S
C1187 C1190 1.463 . S
C1187 C1192 1.350 . S
C1187 N1195 1.427 . S
C1188 H1179 0.930 . S
C1188 C1186 1.378 . S
C1188 C1189 1.367 . S
C1189 C1188 1.367 . S
C1189 C1191 1.433 . S
C1190 C1186 1.350 . S
C1190 C1187 1.463 . S
C1190 N1194 1.427 . S
C1191 H1181 0.929 . S
C1191 C1189 1.433 . S
C1191 N1194 1.384 . S
C1192 H1183 0.929 . S
C1192 C1184 1.378 . S
C1192 C1187 1.350 . S
C1193 H1180 0.929 . S
C1193 C1185 1.433 . S
C1193 N1195 1.384 . S
N1194 C1190 1.427 . S
N1194 C1191 1.384 . S
N1195 C1187 1.427 . S
N1195 C1193 1.384 . S
H1196 C1202 0.930 . S
H1197 C1206 0.930 1_554 S
H1198 C1211 0.929 . S
H1199 C1209 0.929 . S
H1200 C1204 0.929 . S
H1201 C1210 0.929 . S
C1202 H1196 0.930 . S
C1202 C1203 1.367 . S
C1202 C1210 1.378 . S
C1203 C1202 1.367 . S
C1203 C1211 1.433 . S
C1204 H1200 0.929 . S
C1204 C1206 1.378 . S
C1204 C1208 1.350 . S
C1205 C1208 1.463 . S
C1205 C1210 1.350 . S
C1205 N1213 1.427 . S
C1206 H1197 0.930 1_556 S
C1206 C1204 1.378 . S
C1206 C1207 1.367 . S
C1207 C1206 1.367 . S
C1207 C1209 1.433 . S
C1208 C1204 1.350 . S
C1208 C1205 1.463 . S
C1208 N1212 1.427 . S
C1209 H1199 0.929 . S
C1209 C1207 1.433 . S
C1209 N1212 1.384 . S
C1210 H1201 0.929 . S
C1210 C1202 1.378 . S
C1210 C1205 1.350 . S
C1211 H1198 0.929 . S
C1211 C1203 1.433 . S
C1211 N1213 1.384 . S
N1212 C1208 1.427 . S
N1212 C1209 1.384 . S
N1213 C1205 1.427 . S
N1213 C1211 1.384 . S
H1214 C1220 0.930 . S
H1215 C1224 0.930 . S
H1216 C1229 0.929 . S
H1217 C1227 0.929 . S
H1218 C1222 0.929 . S
H1219 C1228 0.929 . S
C1220 H1214 0.930 . S
C1220 C1221 1.367 . S
C1220 C1228 1.378 . S
C1221 C1220 1.367 . S
C1221 C1229 1.433 . S
C1222 H1218 0.929 . S
C1222 C1224 1.378 . S
C1222 C1226 1.350 . S
C1223 C1226 1.463 . S
C1223 C1228 1.350 . S
C1223 N1231 1.427 . S
C1224 H1215 0.930 . S
C1224 C1222 1.378 . S
C1224 C1225 1.367 . S
C1225 C1224 1.367 . S
C1225 C1227 1.433 . S
C1226 C1222 1.350 . S
C1226 C1223 1.463 . S
C1226 N1230 1.427 . S
C1227 H1217 0.929 . S
C1227 C1225 1.433 . S
C1227 N1230 1.384 . S
C1228 H1219 0.929 . S
C1228 C1220 1.378 . S
C1228 C1223 1.350 . S
C1229 H1216 0.929 . S
C1229 C1221 1.433 . S
C1229 N1231 1.384 . S
N1230 C1226 1.427 . S
N1230 C1227 1.384 . S
N1231 C1223 1.427 . S
N1231 C1229 1.384 . S
H1232 C1238 0.930 . S
H1233 C1242 0.930 . S
H1234 C1247 0.929 . S
H1235 C1245 0.929 . S
H1236 C1240 0.929 . S
H1237 C1246 0.929 . S
C1238 H1232 0.930 . S
C1238 C1239 1.367 1_565 S
C1238 C1246 1.378 . S
C1239 C1238 1.367 1_545 S
C1239 C1247 1.433 . S
C1240 H1236 0.929 . S
C1240 C1242 1.378 . S
C1240 C1244 1.350 . S
C1241 C1244 1.463 . S
C1241 C1246 1.350 1_545 S
C1241 N1249 1.427 . S
C1242 H1233 0.930 . S
C1242 C1240 1.378 . S
C1242 C1243 1.367 . S
C1243 C1242 1.367 . S
C1243 C1245 1.433 1_545 S
C1244 C1240 1.350 . S
C1244 C1241 1.463 . S
C1244 N1248 1.427 1_545 S
C1245 H1235 0.929 . S
C1245 C1243 1.433 1_565 S
C1245 N1248 1.384 . S
C1246 H1237 0.929 . S
C1246 C1238 1.378 . S
C1246 C1241 1.350 1_565 S
C1247 H1234 0.929 . S
C1247 C1239 1.433 . S
C1247 N1249 1.384 . S
N1248 C1244 1.427 1_565 S
N1248 C1245 1.384 . S
N1249 C1241 1.427 . S
N1249 C1247 1.384 . S
H1250 C1256 0.930 . S
H1251 C1260 0.930 . S
H1252 C1265 0.929 . S
H1253 C1263 0.929 . S
H1254 C1258 0.929 . S
H1255 C1264 0.929 . S
C1256 H1250 0.930 . S
C1256 C1257 1.367 . S
C1256 C1264 1.378 . S
C1257 C1256 1.367 . S
C1257 C1265 1.433 . S
C1258 H1254 0.929 . S
C1258 C1260 1.378 . S
C1258 C1262 1.350 . S
C1259 C1262 1.463 . S
C1259 C1264 1.350 . S
C1259 N1267 1.427 . S
C1260 H1251 0.930 . S
C1260 C1258 1.378 . S
C1260 C1261 1.367 . S
C1261 C1260 1.367 . S
C1261 C1263 1.433 . S
C1262 C1258 1.350 . S
C1262 C1259 1.463 . S
C1262 N1266 1.427 . S
C1263 H1253 0.929 . S
C1263 C1261 1.433 . S
C1263 N1266 1.384 . S
C1264 H1255 0.929 . S
C1264 C1256 1.378 . S
C1264 C1259 1.350 . S
C1265 H1252 0.929 . S
C1265 C1257 1.433 . S
C1265 N1267 1.384 . S
N1266 C1262 1.427 . S
N1266 C1263 1.384 . S
N1267 C1259 1.427 . S
N1267 C1265 1.384 . S
H1268 C1274 0.930 . S
H1269 C1278 0.930 . S
H1270 C1283 0.929 . S
H1271 C1281 0.929 . S
H1272 C1276 0.929 . S
H1273 C1282 0.929 . S
C1274 H1268 0.930 . S
C1274 C1275 1.367 . S
C1274 C1282 1.378 . S
C1275 C1274 1.367 . S
C1275 C1283 1.433 . S
C1276 H1272 0.929 . S
C1276 C1278 1.378 . S
C1276 C1280 1.350 . S
C1277 C1280 1.463 . S
C1277 C1282 1.350 . S
C1277 N1285 1.427 . S
C1278 H1269 0.930 . S
C1278 C1276 1.378 . S
C1278 C1279 1.367 . S
C1279 C1278 1.367 . S
C1279 C1281 1.433 . S
C1280 C1276 1.350 . S
C1280 C1277 1.463 . S
C1280 N1284 1.427 . S
C1281 H1271 0.929 . S
C1281 C1279 1.433 . S
C1281 N1284 1.384 . S
C1282 H1273 0.929 . S
C1282 C1274 1.378 . S
C1282 C1277 1.350 . S
C1283 H1270 0.929 . S
C1283 C1275 1.433 . S
C1283 N1285 1.384 . S
N1284 C1280 1.427 . S
N1284 C1281 1.384 . S
N1285 C1277 1.427 . S
N1285 C1283 1.384 . S
H1286 C1292 0.930 . S
H1287 C1296 0.930 . S
H1288 C1301 0.929 . S
H1289 C1299 0.929 . S
H1290 C1294 0.929 . S
H1291 C1300 0.929 . S
C1292 H1286 0.930 . S
C1292 C1293 1.367 . S
C1292 C1300 1.378 . S
C1293 C1292 1.367 . S
C1293 C1301 1.433 . S
C1294 H1290 0.929 . S
C1294 C1296 1.378 . S
C1294 C1298 1.350 . S
C1295 C1298 1.463 . S
C1295 C1300 1.350 . S
C1295 N1303 1.427 . S
C1296 H1287 0.930 . S
C1296 C1294 1.378 . S
C1296 C1297 1.367 . S
C1297 C1296 1.367 . S
C1297 C1299 1.433 . S
C1298 C1294 1.350 . S
C1298 C1295 1.463 . S
C1298 N1302 1.427 . S
C1299 H1289 0.929 . S
C1299 C1297 1.433 . S
C1299 N1302 1.384 . S
C1300 H1291 0.929 . S
C1300 C1292 1.378 . S
C1300 C1295 1.350 . S
C1301 H1288 0.929 . S
C1301 C1293 1.433 . S
C1301 N1303 1.384 . S
N1302 C1298 1.427 . S
N1302 C1299 1.384 . S
N1303 C1295 1.427 . S
N1303 C1301 1.384 . S
H1304 C1310 0.930 . S
H1305 C1314 0.930 . S
H1306 C1319 0.929 . S
H1307 C1317 0.929 . S
H1308 C1312 0.929 . S
H1309 C1318 0.929 . S
C1310 H1304 0.930 . S
C1310 C1311 1.367 1_545 S
C1310 C1318 1.378 . S
C1311 C1310 1.367 1_565 S
C1311 C1319 1.433 . S
C1312 H1308 0.929 . S
C1312 C1314 1.378 . S
C1312 C1316 1.350 1_565 S
C1313 C1316 1.463 . S
C1313 C1318 1.350 . S
C1313 N1321 1.427 1_545 S
C1314 H1305 0.930 . S
C1314 C1312 1.378 . S
C1314 C1315 1.367 1_565 S
C1315 C1314 1.367 1_545 S
C1315 C1317 1.433 . S
C1316 C1312 1.350 1_545 S
C1316 C1313 1.463 . S
C1316 N1320 1.427 . S
C1317 H1307 0.929 . S
C1317 C1315 1.433 . S
C1317 N1320 1.384 . S
C1318 H1309 0.929 . S
C1318 C1310 1.378 . S
C1318 C1313 1.350 . S
C1319 H1306 0.929 . S
C1319 C1311 1.433 . S
C1319 N1321 1.384 . S
N1320 C1316 1.427 . S
N1320 C1317 1.384 . S
N1321 C1313 1.427 1_565 S
N1321 C1319 1.384 . S
H1322 C1328 0.930 . S
H1323 C1332 0.930 . S
H1324 C1337 0.929 . S
H1325 C1335 0.929 . S
H1326 C1330 0.929 . S
H1327 C1336 0.929 . S
C1328 H1322 0.930 . S
C1328 C1329 1.367 . S
C1328 C1336 1.378 . S
C1329 C1328 1.367 . S
C1329 C1337 1.433 . S
C1330 H1326 0.929 . S
C1330 C1332 1.378 . S
C1330 C1334 1.350 . S
C1331 C1334 1.463 . S
C1331 C1336 1.350 . S
C1331 N1339 1.427 . S
C1332 H1323 0.930 . S
C1332 C1330 1.378 . S
C1332 C1333 1.367 . S
C1333 C1332 1.367 . S
C1333 C1335 1.433 . S
C1334 C1330 1.350 . S
C1334 C1331 1.463 . S
C1334 N1338 1.427 . S
C1335 H1325 0.929 . S
C1335 C1333 1.433 . S
C1335 N1338 1.384 . S
C1336 H1327 0.929 . S
C1336 C1328 1.378 . S
C1336 C1331 1.350 . S
C1337 H1324 0.929 . S
C1337 C1329 1.433 . S
C1337 N1339 1.384 . S
N1338 C1334 1.427 . S
N1338 C1335 1.384 . S
N1339 C1331 1.427 . S
N1339 C1337 1.384 . S
H1340 C1346 0.930 . S
H1341 C1350 0.930 1_565 S
H1342 C1355 0.929 . S
H1343 C1353 0.929 . S
H1344 C1348 0.929 1_565 S
H1345 C1354 0.929 . S
C1346 H1340 0.930 . S
C1346 C1347 1.367 . S
C1346 C1354 1.378 . S
C1347 C1346 1.367 . S
C1347 C1355 1.433 . S
C1348 H1344 0.929 1_545 S
C1348 C1350 1.378 . S
C1348 C1352 1.350 . S
C1349 C1352 1.463 . S
C1349 C1354 1.350 . S
C1349 N1357 1.427 . S
C1350 H1341 0.930 1_545 S
C1350 C1348 1.378 . S
C1350 C1351 1.367 . S
C1351 C1350 1.367 . S
C1351 C1353 1.433 . S
C1352 C1348 1.350 . S
C1352 C1349 1.463 . S
C1352 N1356 1.427 . S
C1353 H1343 0.929 . S
C1353 C1351 1.433 . S
C1353 N1356 1.384 . S
C1354 H1345 0.929 . S
C1354 C1346 1.378 . S
C1354 C1349 1.350 . S
C1355 H1342 0.929 . S
C1355 C1347 1.433 . S
C1355 N1357 1.384 . S
N1356 C1352 1.427 . S
N1356 C1353 1.384 . S
N1357 C1349 1.427 . S
N1357 C1355 1.384 . S
H1358 C1364 0.930 . S
H1359 C1368 0.930 . S
H1360 C1373 0.929 . S
H1361 C1371 0.929 . S
H1362 C1366 0.929 . S
H1363 C1372 0.929 . S
C1364 H1358 0.930 . S
C1364 C1365 1.367 . S
C1364 C1372 1.378 . S
C1365 C1364 1.367 . S
C1365 C1373 1.433 . S
C1366 H1362 0.929 . S
C1366 C1368 1.378 . S
C1366 C1370 1.350 . S
C1367 C1370 1.463 . S
C1367 C1372 1.350 . S
C1367 N1375 1.427 . S
C1368 H1359 0.930 . S
C1368 C1366 1.378 . S
C1368 C1369 1.367 . S
C1369 C1368 1.367 . S
C1369 C1371 1.433 . S
C1370 C1366 1.350 . S
C1370 C1367 1.463 . S
C1370 N1374 1.427 . S
C1371 H1361 0.929 . S
C1371 C1369 1.433 . S
C1371 N1374 1.384 . S
C1372 H1363 0.929 . S
C1372 C1364 1.378 . S
C1372 C1367 1.350 . S
C1373 H1360 0.929 . S
C1373 C1365 1.433 . S
C1373 N1375 1.384 . S
N1374 C1370 1.427 . S
N1374 C1371 1.384 . S
N1375 C1367 1.427 . S
N1375 C1373 1.384 . S
H1376 C1382 0.930 . S
H1377 C1386 0.930 . S
H1378 C1391 0.929 . S
H1379 C1389 0.929 . S
H1380 C1384 0.929 . S
H1381 C1390 0.929 . S
C1382 H1376 0.930 . S
C1382 C1383 1.367 1_556 S
C1382 C1390 1.378 . S
C1383 C1382 1.367 1_554 S
C1383 C1391 1.433 . S
C1384 H1380 0.929 . S
C1384 C1386 1.378 . S
C1384 C1388 1.350 . S
C1385 C1388 1.463 . S
C1385 C1390 1.350 1_554 S
C1385 N1393 1.427 . S
C1386 H1377 0.930 . S
C1386 C1384 1.378 . S
C1386 C1387 1.367 . S
C1387 C1386 1.367 . S
C1387 C1389 1.433 1_554 S
C1388 C1384 1.350 . S
C1388 C1385 1.463 . S
C1388 N1392 1.427 1_554 S
C1389 H1379 0.929 . S
C1389 C1387 1.433 1_556 S
C1389 N1392 1.384 . S
C1390 H1381 0.929 . S
C1390 C1382 1.378 . S
C1390 C1385 1.350 1_556 S
C1391 H1378 0.929 . S
C1391 C1383 1.433 . S
C1391 N1393 1.384 . S
N1392 C1388 1.427 1_556 S
N1392 C1389 1.384 . S
N1393 C1385 1.427 . S
N1393 C1391 1.384 . S
H1394 C1400 0.930 . S
H1395 C1404 0.930 . S
H1396 C1409 0.929 . S
H1397 C1407 0.929 1_556 S
H1398 C1402 0.929 . S
H1399 C1408 0.929 . S
C1400 H1394 0.930 . S
C1400 C1401 1.367 . S
C1400 C1408 1.378 . S
C1401 C1400 1.367 . S
C1401 C1409 1.433 . S
C1402 H1398 0.929 . S
C1402 C1404 1.378 . S
C1402 C1406 1.350 . S
C1403 C1406 1.463 . S
C1403 C1408 1.350 . S
C1403 N1411 1.427 . S
C1404 H1395 0.930 . S
C1404 C1402 1.378 . S
C1404 C1405 1.367 . S
C1405 C1404 1.367 . S
C1405 C1407 1.433 . S
C1406 C1402 1.350 . S
C1406 C1403 1.463 . S
C1406 N1410 1.427 . S
C1407 H1397 0.929 1_554 S
C1407 C1405 1.433 . S
C1407 N1410 1.384 . S
C1408 H1399 0.929 . S
C1408 C1400 1.378 . S
C1408 C1403 1.350 . S
C1409 H1396 0.929 . S
C1409 C1401 1.433 . S
C1409 N1411 1.384 . S
N1410 C1406 1.427 . S
N1410 C1407 1.384 . S
N1411 C1403 1.427 . S
N1411 C1409 1.384 . S
H1412 C1418 0.930 . S
H1413 C1422 0.930 . S
H1414 C1427 0.929 . S
H1415 C1425 0.929 . S
H1416 C1420 0.929 . S
H1417 C1426 0.929 . S
C1418 H1412 0.930 . S
C1418 C1419 1.367 . S
C1418 C1426 1.378 . S
C1419 C1418 1.367 . S
C1419 C1427 1.433 . S
C1420 H1416 0.929 . S
C1420 C1422 1.378 . S
C1420 C1424 1.350 . S
C1421 C1424 1.463 . S
C1421 C1426 1.350 . S
C1421 N1429 1.427 . S
C1422 H1413 0.930 . S
C1422 C1420 1.378 . S
C1422 C1423 1.367 . S
C1423 C1422 1.367 . S
C1423 C1425 1.433 . S
C1424 C1420 1.350 . S
C1424 C1421 1.463 . S
C1424 N1428 1.427 . S
C1425 H1415 0.929 . S
C1425 C1423 1.433 . S
C1425 N1428 1.384 . S
C1426 H1417 0.929 . S
C1426 C1418 1.378 . S
C1426 C1421 1.350 . S
C1427 H1414 0.929 . S
C1427 C1419 1.433 . S
C1427 N1429 1.384 . S
N1428 C1424 1.427 . S
N1428 C1425 1.384 . S
N1429 C1421 1.427 . S
N1429 C1427 1.384 . S
H1430 C1436 0.930 . S
H1431 C1440 0.930 . S
H1432 C1445 0.929 . S
H1433 C1443 0.929 . S
H1434 C1438 0.929 . S
H1435 C1444 0.929 . S
C1436 H1430 0.930 . S
C1436 C1437 1.367 . S
C1436 C1444 1.378 . S
C1437 C1436 1.367 . S
C1437 C1445 1.433 . S
C1438 H1434 0.929 . S
C1438 C1440 1.378 . S
C1438 C1442 1.350 . S
C1439 C1442 1.463 . S
C1439 C1444 1.350 . S
C1439 N1447 1.427 . S
C1440 H1431 0.930 . S
C1440 C1438 1.378 . S
C1440 C1441 1.367 . S
C1441 C1440 1.367 . S
C1441 C1443 1.433 . S
C1442 C1438 1.350 . S
C1442 C1439 1.463 . S
C1442 N1446 1.427 . S
C1443 H1433 0.929 . S
C1443 C1441 1.433 . S
C1443 N1446 1.384 . S
C1444 H1435 0.929 . S
C1444 C1436 1.378 . S
C1444 C1439 1.350 . S
C1445 H1432 0.929 . S
C1445 C1437 1.433 . S
C1445 N1447 1.384 . S
N1446 C1442 1.427 . S
N1446 C1443 1.384 . S
N1447 C1439 1.427 . S
N1447 C1445 1.384 . S
H1448 C1454 0.930 . S
H1449 C1458 0.930 . S
H1450 C1463 0.929 . S
H1451 C1461 0.929 . S
H1452 C1456 0.929 . S
H1453 C1462 0.929 . S
C1454 H1448 0.930 . S
C1454 C1455 1.367 . S
C1454 C1462 1.378 . S
C1455 C1454 1.367 . S
C1455 C1463 1.433 . S
C1456 H1452 0.929 . S
C1456 C1458 1.378 . S
C1456 C1460 1.350 . S
C1457 C1460 1.463 . S
C1457 C1462 1.350 . S
C1457 N1465 1.427 . S
C1458 H1449 0.930 . S
C1458 C1456 1.378 . S
C1458 C1459 1.367 . S
C1459 C1458 1.367 . S
C1459 C1461 1.433 . S
C1460 C1456 1.350 . S
C1460 C1457 1.463 . S
C1460 N1464 1.427 . S
C1461 H1451 0.929 . S
C1461 C1459 1.433 . S
C1461 N1464 1.384 . S
C1462 H1453 0.929 . S
C1462 C1454 1.378 . S
C1462 C1457 1.350 . S
C1463 H1450 0.929 . S
C1463 C1455 1.433 . S
C1463 N1465 1.384 . S
N1464 C1460 1.427 . S
N1464 C1461 1.384 . S
N1465 C1457 1.427 . S
N1465 C1463 1.384 . S
H1466 C1472 0.930 . S
H1467 C1476 0.930 . S
H1468 C1481 0.929 . S
H1469 C1479 0.929 . S
H1470 C1474 0.929 . S
H1471 C1480 0.929 . S
C1472 H1466 0.930 . S
C1472 C1473 1.367 . S
C1472 C1480 1.378 . S
C1473 C1472 1.367 . S
C1473 C1481 1.433 . S
C1474 H1470 0.929 . S
C1474 C1476 1.378 . S
C1474 C1478 1.350 . S
C1475 C1478 1.463 . S
C1475 C1480 1.350 . S
C1475 N1483 1.427 . S
C1476 H1467 0.930 . S
C1476 C1474 1.378 . S
C1476 C1477 1.367 . S
C1477 C1476 1.367 . S
C1477 C1479 1.433 . S
C1478 C1474 1.350 . S
C1478 C1475 1.463 . S
C1478 N1482 1.427 . S
C1479 H1469 0.929 . S
C1479 C1477 1.433 . S
C1479 N1482 1.384 . S
C1480 H1471 0.929 . S
C1480 C1472 1.378 . S
C1480 C1475 1.350 . S
C1481 H1468 0.929 . S
C1481 C1473 1.433 . S
C1481 N1483 1.384 . S
N1482 C1478 1.427 . S
N1482 C1479 1.384 . S
N1483 C1475 1.427 . S
N1483 C1481 1.384 . S
H1484 C1490 0.930 . S
H1485 C1494 0.930 . S
H1486 C1499 0.929 . S
H1487 C1497 0.929 . S
H1488 C1492 0.929 . S
H1489 C1498 0.929 . S
C1490 H1484 0.930 . S
C1490 C1491 1.367 . S
C1490 C1498 1.378 . S
C1491 C1490 1.367 . S
C1491 C1499 1.433 . S
C1492 H1488 0.929 . S
C1492 C1494 1.378 . S
C1492 C1496 1.350 . S
C1493 C1496 1.463 . S
C1493 C1498 1.350 . S
C1493 N1501 1.427 . S
C1494 H1485 0.930 . S
C1494 C1492 1.378 . S
C1494 C1495 1.367 . S
C1495 C1494 1.367 . S
C1495 C1497 1.433 . S
C1496 C1492 1.350 . S
C1496 C1493 1.463 . S
C1496 N1500 1.427 . S
C1497 H1487 0.929 . S
C1497 C1495 1.433 . S
C1497 N1500 1.384 . S
C1498 H1489 0.929 . S
C1498 C1490 1.378 . S
C1498 C1493 1.350 . S
C1499 H1486 0.929 . S
C1499 C1491 1.433 . S
C1499 N1501 1.384 . S
N1500 C1496 1.427 . S
N1500 C1497 1.384 . S
N1501 C1493 1.427 . S
N1501 C1499 1.384 . S
H1502 C1508 0.930 . S
H1503 C1512 0.930 . S
H1504 C1517 0.929 . S
H1505 C1515 0.929 . S
H1506 C1510 0.929 . S
H1507 C1516 0.929 . S
C1508 H1502 0.930 . S
C1508 C1509 1.367 . S
C1508 C1516 1.378 . S
C1509 C1508 1.367 . S
C1509 C1517 1.433 . S
C1510 H1506 0.929 . S
C1510 C1512 1.378 . S
C1510 C1514 1.350 . S
C1511 C1514 1.463 . S
C1511 C1516 1.350 . S
C1511 N1519 1.427 . S
C1512 H1503 0.930 . S
C1512 C1510 1.378 . S
C1512 C1513 1.367 . S
C1513 C1512 1.367 . S
C1513 C1515 1.433 . S
C1514 C1510 1.350 . S
C1514 C1511 1.463 . S
C1514 N1518 1.427 . S
C1515 H1505 0.929 . S
C1515 C1513 1.433 . S
C1515 N1518 1.384 . S
C1516 H1507 0.929 . S
C1516 C1508 1.378 . S
C1516 C1511 1.350 . S
C1517 H1504 0.929 . S
C1517 C1509 1.433 . S
C1517 N1519 1.384 . S
N1518 C1514 1.427 . S
N1518 C1515 1.384 . S
N1519 C1511 1.427 . S
N1519 C1517 1.384 . S
H1520 C1526 0.930 . S
H1521 C1530 0.930 . S
H1522 C1535 0.929 . S
H1523 C1533 0.929 . S
H1524 C1528 0.929 . S
H1525 C1534 0.929 . S
C1526 H1520 0.930 . S
C1526 C1527 1.367 . S
C1526 C1534 1.378 . S
C1527 C1526 1.367 . S
C1527 C1535 1.433 . S
C1528 H1524 0.929 . S
C1528 C1530 1.378 . S
C1528 C1532 1.350 . S
C1529 C1532 1.463 . S
C1529 C1534 1.350 . S
C1529 N1537 1.427 . S
C1530 H1521 0.930 . S
C1530 C1528 1.378 . S
C1530 C1531 1.367 . S
C1531 C1530 1.367 . S
C1531 C1533 1.433 . S
C1532 C1528 1.350 . S
C1532 C1529 1.463 . S
C1532 N1536 1.427 . S
C1533 H1523 0.929 . S
C1533 C1531 1.433 . S
C1533 N1536 1.384 . S
C1534 H1525 0.929 . S
C1534 C1526 1.378 . S
C1534 C1529 1.350 . S
C1535 H1522 0.929 . S
C1535 C1527 1.433 . S
C1535 N1537 1.384 . S
N1536 C1532 1.427 . S
N1536 C1533 1.384 . S
N1537 C1529 1.427 . S
N1537 C1535 1.384 . S
H1538 C1544 0.930 . S
H1539 C1548 0.930 . S
H1540 C1553 0.929 . S
H1541 C1551 0.929 . S
H1542 C1546 0.929 . S
H1543 C1552 0.929 . S
C1544 H1538 0.930 . S
C1544 C1545 1.367 . S
C1544 C1552 1.378 . S
C1545 C1544 1.367 . S
C1545 C1553 1.433 . S
C1546 H1542 0.929 . S
C1546 C1548 1.378 . S
C1546 C1550 1.350 . S
C1547 C1550 1.463 . S
C1547 C1552 1.350 . S
C1547 N1555 1.427 . S
C1548 H1539 0.930 . S
C1548 C1546 1.378 . S
C1548 C1549 1.367 . S
C1549 C1548 1.367 . S
C1549 C1551 1.433 . S
C1550 C1546 1.350 . S
C1550 C1547 1.463 . S
C1550 N1554 1.427 . S
C1551 H1541 0.929 . S
C1551 C1549 1.433 . S
C1551 N1554 1.384 . S
C1552 H1543 0.929 . S
C1552 C1544 1.378 . S
C1552 C1547 1.350 . S
C1553 H1540 0.929 . S
C1553 C1545 1.433 . S
C1553 N1555 1.384 . S
N1554 C1550 1.427 . S
N1554 C1551 1.384 . S
N1555 C1547 1.427 . S
N1555 C1553 1.384 . S
H1556 C1562 0.930 . S
H1557 C1566 0.930 1_554 S
H1558 C1571 0.922 1_655 S
H1559 C1569 0.929 . S
H1560 C1564 0.929 . S
H1561 C1570 0.929 . S
C1562 H1556 0.930 . S
C1562 C1563 1.367 . S
C1562 C1570 1.378 . S
C1563 C1562 1.367 . S
C1563 C1571 1.446 . S
C1564 H1560 0.929 . S
C1564 C1566 1.378 . S
C1564 C1568 1.350 1_655 S
C1565 C1568 1.463 . S
C1565 C1570 1.350 . S
C1565 N1573 1.427 1_455 S
C1566 H1557 0.930 1_556 S
C1566 C1564 1.378 . S
C1566 C1567 1.367 1_655 S
C1567 C1566 1.367 1_455 S
C1567 C1569 1.433 . S
C1568 C1564 1.350 1_455 S
C1568 C1565 1.463 . S
C1568 N1572 1.427 . S
C1569 H1559 0.929 . S
C1569 C1567 1.433 . S
C1569 N1572 1.384 . S
C1570 H1561 0.929 . S
C1570 C1562 1.378 . S
C1570 C1565 1.350 . S
C1571 H1558 0.922 1_455 S
C1571 C1563 1.446 . S
C1571 N1573 1.378 1_455 S
N1572 C1568 1.427 . S
N1572 C1569 1.384 . S
N1573 C1565 1.427 1_655 S
N1573 C1571 1.378 1_655 S
H1574 C1580 0.930 . S
H1575 C1584 0.930 . S
H1576 C1589 0.929 . S
H1577 C1587 0.929 . S
H1578 C1582 0.929 . S
H1579 C1588 0.929 . S
C1580 H1574 0.930 . S
C1580 C1581 1.367 . S
C1580 C1588 1.378 . S
C1581 C1580 1.367 . S
C1581 C1589 1.433 . S
C1582 H1578 0.929 . S
C1582 C1584 1.378 . S
C1582 C1586 1.350 . S
C1583 C1586 1.463 . S
C1583 C1588 1.350 . S
C1583 N1591 1.427 . S
C1584 H1575 0.930 . S
C1584 C1582 1.378 . S
C1584 C1585 1.367 . S
C1585 C1584 1.367 . S
C1585 C1587 1.433 . S
C1586 C1582 1.350 . S
C1586 C1583 1.463 . S
C1586 N1590 1.427 . S
C1587 H1577 0.929 . S
C1587 C1585 1.433 . S
C1587 N1590 1.384 . S
C1588 H1579 0.929 . S
C1588 C1580 1.378 . S
C1588 C1583 1.350 . S
C1589 H1576 0.929 . S
C1589 C1581 1.433 . S
C1589 N1591 1.384 . S
N1590 C1586 1.427 . S
N1590 C1587 1.384 . S
N1591 C1583 1.427 . S
N1591 C1589 1.384 . S
H1592 C1598 0.930 . S
H1593 C1602 0.930 . S
H1594 C1607 0.929 . S
H1595 C1605 0.929 . S
H1596 C1600 0.929 . S
H1597 C1606 0.929 . S
C1598 H1592 0.930 . S
C1598 C1599 1.367 . S
C1598 C1606 1.378 . S
C1599 C1598 1.367 . S
C1599 C1607 1.433 . S
C1600 H1596 0.929 . S
C1600 C1602 1.378 . S
C1600 C1604 1.350 . S
C1601 C1604 1.463 . S
C1601 C1606 1.350 . S
C1601 N1609 1.427 . S
C1602 H1593 0.930 . S
C1602 C1600 1.378 . S
C1602 C1603 1.367 . S
C1603 C1602 1.367 . S
C1603 C1605 1.433 . S
C1604 C1600 1.350 . S
C1604 C1601 1.463 . S
C1604 N1608 1.427 . S
C1605 H1595 0.929 . S
C1605 C1603 1.433 . S
C1605 N1608 1.384 . S
C1606 H1597 0.929 . S
C1606 C1598 1.378 . S
C1606 C1601 1.350 . S
C1607 H1594 0.929 . S
C1607 C1599 1.433 . S
C1607 N1609 1.384 . S
N1608 C1604 1.427 . S
N1608 C1605 1.384 . S
N1609 C1601 1.427 . S
N1609 C1607 1.384 . S
H1610 C1616 0.930 . S
H1611 C1620 0.930 . S
H1612 C1625 0.929 . S
H1613 C1623 0.929 . S
H1614 C1618 0.929 . S
H1615 C1624 0.929 . S
C1616 H1610 0.930 . S
C1616 C1617 1.367 . S
C1616 C1624 1.378 . S
C1617 C1616 1.367 . S
C1617 C1625 1.433 . S
C1618 H1614 0.929 . S
C1618 C1620 1.378 . S
C1618 C1622 1.350 . S
C1619 C1622 1.463 . S
C1619 C1624 1.350 . S
C1619 N1627 1.427 . S
C1620 H1611 0.930 . S
C1620 C1618 1.378 . S
C1620 C1621 1.367 . S
C1621 C1620 1.367 . S
C1621 C1623 1.433 . S
C1622 C1618 1.350 . S
C1622 C1619 1.463 . S
C1622 N1626 1.427 . S
C1623 H1613 0.929 . S
C1623 C1621 1.433 . S
C1623 N1626 1.384 . S
C1624 H1615 0.929 . S
C1624 C1616 1.378 . S
C1624 C1619 1.350 . S
C1625 H1612 0.929 . S
C1625 C1617 1.433 . S
C1625 N1627 1.384 . S
N1626 C1622 1.427 . S
N1626 C1623 1.384 . S
N1627 C1619 1.427 . S
N1627 C1625 1.384 . S
H1628 C1634 0.930 . S
H1629 C1638 0.930 . S
H1630 C1643 0.929 . S
H1631 C1641 0.929 . S
H1632 C1636 0.929 . S
H1633 C1642 0.929 . S
C1634 H1628 0.930 . S
C1634 C1635 1.367 1_455 S
C1634 C1642 1.378 . S
C1635 C1634 1.367 1_655 S
C1635 C1643 1.433 . S
C1636 H1632 0.929 . S
C1636 C1638 1.378 . S
C1636 C1640 1.350 . S
C1637 C1640 1.463 . S
C1637 C1642 1.350 1_655 S
C1637 N1645 1.427 . S
C1638 H1629 0.930 . S
C1638 C1636 1.378 . S
C1638 C1639 1.367 . S
C1639 C1638 1.367 . S
C1639 C1641 1.433 1_655 S
C1640 C1636 1.350 . S
C1640 C1637 1.463 . S
C1640 N1644 1.427 1_655 S
C1641 H1631 0.929 . S
C1641 C1639 1.433 1_455 S
C1641 N1644 1.384 . S
C1642 H1633 0.929 . S
C1642 C1634 1.378 . S
C1642 C1637 1.350 1_455 S
C1643 H1630 0.929 . S
C1643 C1635 1.433 . S
C1643 N1645 1.384 . S
N1644 C1640 1.427 1_455 S
N1644 C1641 1.384 . S
N1645 C1637 1.427 . S
N1645 C1643 1.384 . S
H1646 C1652 0.930 . S
H1647 C1656 0.930 . S
H1648 C1661 0.929 . S
H1649 C1659 0.929 . S
H1650 C1654 0.929 . S
H1651 C1660 0.929 . S
C1652 H1646 0.930 . S
C1652 C1653 1.367 . S
C1652 C1660 1.378 . S
C1653 C1652 1.367 . S
C1653 C1661 1.433 . S
C1654 H1650 0.929 . S
C1654 C1656 1.378 . S
C1654 C1658 1.350 . S
C1655 C1658 1.463 . S
C1655 C1660 1.350 . S
C1655 N1663 1.427 . S
C1656 H1647 0.930 . S
C1656 C1654 1.378 . S
C1656 C1657 1.367 . S
C1657 C1656 1.367 . S
C1657 C1659 1.433 . S
C1658 C1654 1.350 . S
C1658 C1655 1.463 . S
C1658 N1662 1.427 . S
C1659 H1649 0.929 . S
C1659 C1657 1.433 . S
C1659 N1662 1.384 . S
C1660 H1651 0.929 . S
C1660 C1652 1.378 . S
C1660 C1655 1.350 . S
C1661 H1648 0.929 . S
C1661 C1653 1.433 . S
C1661 N1663 1.384 . S
N1662 C1658 1.427 . S
N1662 C1659 1.384 . S
N1663 C1655 1.427 . S
N1663 C1661 1.384 . S
H1664 C1670 0.930 . S
H1665 C1674 0.930 . S
H1666 C1679 0.929 . S
H1667 C1677 0.929 . S
H1668 C1672 0.929 . S
H1669 C1678 0.929 . S
C1670 H1664 0.930 . S
C1670 C1671 1.367 . S
C1670 C1678 1.378 . S
C1671 C1670 1.367 . S
C1671 C1679 1.433 . S
C1672 H1668 0.929 . S
C1672 C1674 1.378 . S
C1672 C1676 1.350 . S
C1673 C1676 1.463 . S
C1673 C1678 1.350 . S
C1673 N1681 1.427 . S
C1674 H1665 0.930 . S
C1674 C1672 1.378 . S
C1674 C1675 1.367 . S
C1675 C1674 1.367 . S
C1675 C1677 1.433 . S
C1676 C1672 1.350 . S
C1676 C1673 1.463 . S
C1676 N1680 1.427 . S
C1677 H1667 0.929 . S
C1677 C1675 1.433 . S
C1677 N1680 1.384 . S
C1678 H1669 0.929 . S
C1678 C1670 1.378 . S
C1678 C1673 1.350 . S
C1679 H1666 0.929 . S
C1679 C1671 1.433 . S
C1679 N1681 1.384 . S
N1680 C1676 1.427 . S
N1680 C1677 1.384 . S
N1681 C1673 1.427 . S
N1681 C1679 1.384 . S
H1682 C1688 0.930 . S
H1683 C1692 0.930 . S
H1684 C1697 0.929 . S
H1685 C1695 0.929 . S
H1686 C1690 0.929 . S
H1687 C1696 0.929 . S
C1688 H1682 0.930 . S
C1688 C1689 1.367 . S
C1688 C1696 1.378 . S
C1689 C1688 1.367 . S
C1689 C1697 1.433 . S
C1690 H1686 0.929 . S
C1690 C1692 1.378 . S
C1690 C1694 1.350 . S
C1691 C1694 1.463 . S
C1691 C1696 1.350 . S
C1691 N1699 1.427 . S
C1692 H1683 0.930 . S
C1692 C1690 1.378 . S
C1692 C1693 1.367 . S
C1693 C1692 1.367 . S
C1693 C1695 1.433 . S
C1694 C1690 1.350 . S
C1694 C1691 1.463 . S
C1694 N1698 1.427 . S
C1695 H1685 0.929 . S
C1695 C1693 1.433 . S
C1695 N1698 1.384 . S
C1696 H1687 0.929 . S
C1696 C1688 1.378 . S
C1696 C1691 1.350 . S
C1697 H1684 0.929 . S
C1697 C1689 1.433 . S
C1697 N1699 1.384 . S
N1698 C1694 1.427 . S
N1698 C1695 1.384 . S
N1699 C1691 1.427 . S
N1699 C1697 1.384 . S
H1700 C1706 0.930 . S
H1701 C1710 0.930 . S
H1702 C1715 0.929 . S
H1703 C1713 0.929 . S
H1704 C1708 0.929 . S
H1705 C1714 0.929 . S
C1706 H1700 0.930 . S
C1706 C1707 1.367 . S
C1706 C1714 1.378 . S
C1707 C1706 1.367 . S
C1707 C1715 1.433 . S
C1708 H1704 0.929 . S
C1708 C1710 1.378 . S
C1708 C1712 1.350 . S
C1709 C1712 1.463 . S
C1709 C1714 1.350 . S
C1709 N1717 1.427 . S
C1710 H1701 0.930 . S
C1710 C1708 1.378 . S
C1710 C1711 1.367 . S
C1711 C1710 1.367 . S
C1711 C1713 1.433 . S
C1712 C1708 1.350 . S
C1712 C1709 1.463 . S
C1712 N1716 1.427 . S
C1713 H1703 0.929 . S
C1713 C1711 1.433 . S
C1713 N1716 1.384 . S
C1714 H1705 0.929 . S
C1714 C1706 1.378 . S
C1714 C1709 1.350 . S
C1715 H1702 0.929 . S
C1715 C1707 1.433 . S
C1715 N1717 1.384 . S
N1716 C1712 1.427 . S
N1716 C1713 1.384 . S
N1717 C1709 1.427 . S
N1717 C1715 1.384 . S
H1718 C1724 0.930 . S
H1719 C1728 0.930 . S
H1720 C1733 0.929 . S
H1721 C1731 0.929 . S
H1722 C1726 0.929 . S
H1723 C1732 0.929 . S
C1724 H1718 0.930 . S
C1724 C1725 1.367 . S
C1724 C1732 1.378 . S
C1725 C1724 1.367 . S
C1725 C1733 1.433 . S
C1726 H1722 0.929 . S
C1726 C1728 1.378 . S
C1726 C1730 1.350 . S
C1727 C1730 1.463 . S
C1727 C1732 1.350 . S
C1727 N1735 1.427 . S
C1728 H1719 0.930 . S
C1728 C1726 1.378 . S
C1728 C1729 1.367 . S
C1729 C1728 1.367 . S
C1729 C1731 1.433 . S
C1730 C1726 1.350 . S
C1730 C1727 1.463 . S
C1730 N1734 1.427 . S
C1731 H1721 0.929 . S
C1731 C1729 1.433 . S
C1731 N1734 1.384 . S
C1732 H1723 0.929 . S
C1732 C1724 1.378 . S
C1732 C1727 1.350 . S
C1733 H1720 0.929 . S
C1733 C1725 1.433 . S
C1733 N1735 1.384 . S
N1734 C1730 1.427 . S
N1734 C1731 1.384 . S
N1735 C1727 1.427 . S
N1735 C1733 1.384 . S
H1736 C1742 0.930 . S
H1737 C1746 0.930 . S
H1738 C1751 0.929 . S
H1739 C1749 0.929 . S
H1740 C1744 0.929 . S
H1741 C1750 0.929 . S
C1742 H1736 0.930 . S
C1742 C1743 1.367 . S
C1742 C1750 1.378 . S
C1743 C1742 1.367 . S
C1743 C1751 1.433 . S
C1744 H1740 0.929 . S
C1744 C1746 1.378 . S
C1744 C1748 1.350 . S
C1745 C1748 1.463 . S
C1745 C1750 1.350 . S
C1745 N1753 1.427 . S
C1746 H1737 0.930 . S
C1746 C1744 1.378 . S
C1746 C1747 1.367 . S
C1747 C1746 1.367 . S
C1747 C1749 1.433 . S
C1748 C1744 1.350 . S
C1748 C1745 1.463 . S
C1748 N1752 1.427 . S
C1749 H1739 0.929 . S
C1749 C1747 1.433 . S
C1749 N1752 1.384 . S
C1750 H1741 0.929 . S
C1750 C1742 1.378 . S
C1750 C1745 1.350 . S
C1751 H1738 0.929 . S
C1751 C1743 1.433 . S
C1751 N1753 1.384 . S
N1752 C1748 1.427 . S
N1752 C1749 1.384 . S
N1753 C1745 1.427 . S
N1753 C1751 1.384 . S
H1754 C1760 0.930 . S
H1755 C1764 0.930 . S
H1756 C1769 0.929 . S
H1757 C1767 0.929 . S
H1758 C1762 0.929 . S
H1759 C1768 0.929 . S
C1760 H1754 0.930 . S
C1760 C1761 1.367 . S
C1760 C1768 1.378 . S
C1761 C1760 1.367 . S
C1761 C1769 1.433 . S
C1762 H1758 0.929 . S
C1762 C1764 1.378 . S
C1762 C1766 1.350 . S
C1763 C1766 1.463 . S
C1763 C1768 1.350 . S
C1763 N1771 1.427 . S
C1764 H1755 0.930 . S
C1764 C1762 1.378 . S
C1764 C1765 1.367 . S
C1765 C1764 1.367 . S
C1765 C1767 1.433 . S
C1766 C1762 1.350 . S
C1766 C1763 1.463 . S
C1766 N1770 1.427 . S
C1767 H1757 0.929 . S
C1767 C1765 1.433 . S
C1767 N1770 1.384 . S
C1768 H1759 0.929 . S
C1768 C1760 1.378 . S
C1768 C1763 1.350 . S
C1769 H1756 0.929 . S
C1769 C1761 1.433 . S
C1769 N1771 1.384 . S
N1770 C1766 1.427 . S
N1770 C1767 1.384 . S
N1771 C1763 1.427 . S
N1771 C1769 1.384 . S
H1772 C1778 0.930 . S
H1773 C1782 0.930 . S
H1774 C1787 0.929 . S
H1775 C1785 0.929 . S
H1776 C1780 0.929 . S
H1777 C1786 0.929 . S
C1778 H1772 0.930 . S
C1778 C1779 1.367 . S
C1778 C1786 1.378 . S
C1779 C1778 1.367 . S
C1779 C1787 1.433 . S
C1780 H1776 0.929 . S
C1780 C1782 1.378 . S
C1780 C1784 1.350 . S
C1781 C1784 1.463 . S
C1781 C1786 1.350 . S
C1781 N1789 1.427 . S
C1782 H1773 0.930 . S
C1782 C1780 1.378 . S
C1782 C1783 1.367 . S
C1783 C1782 1.367 . S
C1783 C1785 1.433 . S
C1784 C1780 1.350 . S
C1784 C1781 1.463 . S
C1784 N1788 1.427 . S
C1785 H1775 0.929 . S
C1785 C1783 1.433 . S
C1785 N1788 1.384 . S
C1786 H1777 0.929 . S
C1786 C1778 1.378 . S
C1786 C1781 1.350 . S
C1787 H1774 0.929 . S
C1787 C1779 1.433 . S
C1787 N1789 1.384 . S
N1788 C1784 1.427 . S
N1788 C1785 1.384 . S
N1789 C1781 1.427 . S
N1789 C1787 1.384 . S
H1790 C1796 0.930 . S
H1791 C1800 0.930 . S
H1792 C1805 0.929 . S
H1793 C1803 0.929 . S
H1794 C1798 0.929 . S
H1795 C1804 0.929 . S
C1796 H1790 0.930 . S
C1796 C1797 1.367 . S
C1796 C1804 1.378 . S
C1797 C1796 1.367 . S
C1797 C1805 1.433 . S
C1798 H1794 0.929 . S
C1798 C1800 1.378 . S
C1798 C1802 1.350 . S
C1799 C1802 1.463 . S
C1799 C1804 1.350 . S
C1799 N1807 1.427 . S
C1800 H1791 0.930 . S
C1800 C1798 1.378 . S
C1800 C1801 1.367 . S
C1801 C1800 1.367 . S
C1801 C1803 1.433 . S
C1802 C1798 1.350 . S
C1802 C1799 1.463 . S
C1802 N1806 1.427 . S
C1803 H1793 0.929 . S
C1803 C1801 1.433 . S
C1803 N1806 1.384 . S
C1804 H1795 0.929 . S
C1804 C1796 1.378 . S
C1804 C1799 1.350 . S
C1805 H1792 0.929 . S
C1805 C1797 1.433 . S
C1805 N1807 1.384 . S
N1806 C1802 1.427 . S
N1806 C1803 1.384 . S
N1807 C1799 1.427 . S
N1807 C1805 1.384 . S
H1808 C1814 0.930 . S
H1809 C1818 0.930 . S
H1810 C1823 0.929 . S
H1811 C1821 0.929 . S
H1812 C1816 0.929 . S
H1813 C1822 0.929 . S
C1814 H1808 0.930 . S
C1814 C1815 1.367 . S
C1814 C1822 1.378 . S
C1815 C1814 1.367 . S
C1815 C1823 1.433 . S
C1816 H1812 0.929 . S
C1816 C1818 1.378 . S
C1816 C1820 1.350 . S
C1817 C1820 1.463 . S
C1817 C1822 1.350 . S
C1817 N1825 1.427 . S
C1818 H1809 0.930 . S
C1818 C1816 1.378 . S
C1818 C1819 1.367 . S
C1819 C1818 1.367 . S
C1819 C1821 1.433 . S
C1820 C1816 1.350 . S
C1820 C1817 1.463 . S
C1820 N1824 1.427 . S
C1821 H1811 0.929 . S
C1821 C1819 1.433 . S
C1821 N1824 1.384 . S
C1822 H1813 0.929 . S
C1822 C1814 1.378 . S
C1822 C1817 1.350 . S
C1823 H1810 0.929 . S
C1823 C1815 1.433 . S
C1823 N1825 1.384 . S
N1824 C1820 1.427 . S
N1824 C1821 1.384 . S
N1825 C1817 1.427 . S
N1825 C1823 1.384 . S
H1826 C1832 0.930 . S
H1827 C1836 0.930 . S
H1828 C1841 0.929 . S
H1829 C1839 0.929 . S
H1830 C1834 0.929 . S
H1831 C1840 0.929 . S
C1832 H1826 0.930 . S
C1832 C1833 1.367 . S
C1832 C1840 1.378 . S
C1833 C1832 1.367 . S
C1833 C1841 1.433 . S
C1834 H1830 0.929 . S
C1834 C1836 1.378 . S
C1834 C1838 1.350 . S
C1835 C1838 1.463 . S
C1835 C1840 1.350 . S
C1835 N1843 1.427 . S
C1836 H1827 0.930 . S
C1836 C1834 1.378 . S
C1836 C1837 1.367 . S
C1837 C1836 1.367 . S
C1837 C1839 1.433 . S
C1838 C1834 1.350 . S
C1838 C1835 1.463 . S
C1838 N1842 1.427 . S
C1839 H1829 0.929 . S
C1839 C1837 1.433 . S
C1839 N1842 1.384 . S
C1840 H1831 0.929 . S
C1840 C1832 1.378 . S
C1840 C1835 1.350 . S
C1841 H1828 0.929 . S
C1841 C1833 1.433 . S
C1841 N1843 1.384 . S
N1842 C1838 1.427 . S
N1842 C1839 1.384 . S
N1843 C1835 1.427 . S
N1843 C1841 1.384 . S
H1844 C1850 0.930 . S
H1845 C1854 0.930 . S
H1846 C1859 0.929 . S
H1847 C1857 0.929 . S
H1848 C1852 0.929 . S
H1849 C1858 0.929 . S
C1850 H1844 0.930 . S
C1850 C1851 1.367 . S
C1850 C1858 1.378 . S
C1851 C1850 1.367 . S
C1851 C1859 1.433 . S
C1852 H1848 0.929 . S
C1852 C1854 1.378 . S
C1852 C1856 1.350 . S
C1853 C1856 1.463 . S
C1853 C1858 1.350 . S
C1853 N1861 1.427 . S
C1854 H1845 0.930 . S
C1854 C1852 1.378 . S
C1854 C1855 1.367 . S
C1855 C1854 1.367 . S
C1855 C1857 1.433 . S
C1856 C1852 1.350 . S
C1856 C1853 1.463 . S
C1856 N1860 1.427 . S
C1857 H1847 0.929 . S
C1857 C1855 1.433 . S
C1857 N1860 1.384 . S
C1858 H1849 0.929 . S
C1858 C1850 1.378 . S
C1858 C1853 1.350 . S
C1859 H1846 0.929 . S
C1859 C1851 1.433 . S
C1859 N1861 1.384 . S
N1860 C1856 1.427 . S
N1860 C1857 1.384 . S
N1861 C1853 1.427 . S
N1861 C1859 1.384 . S
H1862 C1868 0.930 1_556 S
H1863 C1872 0.930 . S
H1864 C1877 0.929 . S
H1865 C1875 0.929 1_556 S
H1866 C1870 0.929 . S
H1867 C1876 0.929 1_556 S
C1868 H1862 0.930 1_554 S
C1868 C1869 1.367 . S
C1868 C1876 1.378 . S
C1869 C1868 1.367 . S
C1869 C1877 1.433 . S
C1870 H1866 0.929 . S
C1870 C1872 1.378 1_565 S
C1870 C1874 1.350 . S
C1871 C1874 1.463 . S
C1871 C1876 1.350 . S
C1871 N1879 1.427 . S
C1872 H1863 0.930 . S
C1872 C1870 1.378 1_545 S
C1872 C1873 1.369 . S
C1873 C1872 1.369 . S
C1873 C1875 1.425 1_545 S
C1874 C1870 1.350 . S
C1874 C1871 1.463 . S
C1874 N1878 1.427 . S
C1875 H1865 0.929 1_554 S
C1875 C1873 1.425 1_565 S
C1875 N1878 1.384 . S
C1876 H1867 0.929 1_554 S
C1876 C1868 1.378 . S
C1876 C1871 1.350 . S
C1877 H1864 0.929 . S
C1877 C1869 1.433 . S
C1877 N1879 1.384 . S
N1878 C1874 1.427 . S
N1878 C1875 1.384 . S
N1879 C1871 1.427 . S
N1879 C1877 1.384 . S
H1880 C1886 0.930 . S
H1881 C1890 0.930 . S
H1882 C1895 0.929 . S
H1883 C1893 0.929 . S
H1884 C1888 0.929 . S
H1885 C1894 0.929 . S
C1886 H1880 0.930 . S
C1886 C1887 1.367 . S
C1886 C1894 1.378 . S
C1887 C1886 1.367 . S
C1887 C1895 1.433 . S
C1888 H1884 0.929 . S
C1888 C1890 1.378 . S
C1888 C1892 1.350 . S
C1889 C1892 1.463 . S
C1889 C1894 1.350 . S
C1889 N1897 1.427 . S
C1890 H1881 0.930 . S
C1890 C1888 1.378 . S
C1890 C1891 1.367 . S
C1891 C1890 1.367 . S
C1891 C1893 1.433 . S
C1892 C1888 1.350 . S
C1892 C1889 1.463 . S
C1892 N1896 1.427 . S
C1893 H1883 0.929 . S
C1893 C1891 1.433 . S
C1893 N1896 1.384 . S
C1894 H1885 0.929 . S
C1894 C1886 1.378 . S
C1894 C1889 1.350 . S
C1895 H1882 0.929 . S
C1895 C1887 1.433 . S
C1895 N1897 1.384 . S
N1896 C1892 1.427 . S
N1896 C1893 1.384 . S
N1897 C1889 1.427 . S
N1897 C1895 1.384 . S
H1898 C1904 0.930 . S
H1899 C1908 0.930 . S
H1900 C1913 0.929 . S
H1901 C1911 0.929 . S
H1902 C1906 0.929 . S
H1903 C1912 0.929 1_556 S
C1904 H1898 0.930 . S
C1904 C1905 1.367 1_556 S
C1904 C1912 1.378 1_556 S
C1905 C1904 1.367 1_554 S
C1905 C1913 1.433 . S
C1906 H1902 0.929 . S
C1906 C1908 1.378 . S
C1906 C1910 1.350 . S
C1907 C1910 1.463 . S
C1907 C1912 1.350 . S
C1907 N1915 1.427 . S
C1908 H1899 0.930 . S
C1908 C1906 1.378 . S
C1908 C1909 1.367 . S
C1909 C1908 1.367 . S
C1909 C1911 1.433 . S
C1910 C1906 1.350 . S
C1910 C1907 1.463 . S
C1910 N1914 1.427 . S
C1911 H1901 0.929 . S
C1911 C1909 1.433 . S
C1911 N1914 1.384 . S
C1912 H1903 0.929 1_554 S
C1912 C1904 1.378 1_554 S
C1912 C1907 1.350 . S
C1913 H1900 0.929 . S
C1913 C1905 1.433 . S
C1913 N1915 1.384 . S
N1914 C1910 1.427 . S
N1914 C1911 1.384 . S
N1915 C1907 1.427 . S
N1915 C1913 1.384 . S
H1916 C1922 0.930 . S
H1917 C1926 0.930 . S
H1918 C1931 0.929 . S
H1919 C1929 0.929 . S
H1920 C1924 0.929 . S
H1921 C1930 0.929 . S
C1922 H1916 0.930 . S
C1922 C1923 1.367 . S
C1922 C1930 1.378 . S
C1923 C1922 1.367 . S
C1923 C1931 1.433 . S
C1924 H1920 0.929 . S
C1924 C1926 1.378 . S
C1924 C1928 1.350 . S
C1925 C1928 1.463 . S
C1925 C1930 1.350 . S
C1925 N1933 1.427 . S
C1926 H1917 0.930 . S
C1926 C1924 1.378 . S
C1926 C1927 1.367 . S
C1927 C1926 1.367 . S
C1927 C1929 1.433 . S
C1928 C1924 1.350 . S
C1928 C1925 1.463 . S
C1928 N1932 1.427 . S
C1929 H1919 0.929 . S
C1929 C1927 1.433 . S
C1929 N1932 1.384 . S
C1930 H1921 0.929 . S
C1930 C1922 1.378 . S
C1930 C1925 1.350 . S
C1931 H1918 0.929 . S
C1931 C1923 1.433 . S
C1931 N1933 1.384 . S
N1932 C1928 1.427 . S
N1932 C1929 1.384 . S
N1933 C1925 1.427 . S
N1933 C1931 1.384 . S
H1934 C1940 0.930 . S
H1935 C1944 0.930 . S
H1936 C1949 0.929 . S
H1937 C1947 0.929 . S
H1938 C1942 0.929 . S
H1939 C1948 0.929 . S
C1940 H1934 0.930 . S
C1940 C1941 1.367 . S
C1940 C1948 1.378 . S
C1941 C1940 1.367 . S
C1941 C1949 1.433 . S
C1942 H1938 0.929 . S
C1942 C1944 1.378 . S
C1942 C1946 1.350 . S
C1943 C1946 1.463 . S
C1943 C1948 1.350 . S
C1943 N1951 1.427 . S
C1944 H1935 0.930 . S
C1944 C1942 1.378 . S
C1944 C1945 1.367 . S
C1945 C1944 1.367 . S
C1945 C1947 1.433 . S
C1946 C1942 1.350 . S
C1946 C1943 1.463 . S
C1946 N1950 1.427 . S
C1947 H1937 0.929 . S
C1947 C1945 1.433 . S
C1947 N1950 1.384 . S
C1948 H1939 0.929 . S
C1948 C1940 1.378 . S
C1948 C1943 1.350 . S
C1949 H1936 0.929 . S
C1949 C1941 1.433 . S
C1949 N1951 1.384 . S
N1950 C1946 1.427 . S
N1950 C1947 1.384 . S
N1951 C1943 1.427 . S
N1951 C1949 1.384 . S
H1952 C1958 0.930 . S
H1953 C1962 0.930 . S
H1954 C1967 0.929 . S
H1955 C1965 0.929 . S
H1956 C1960 0.929 . S
H1957 C1966 0.929 . S
C1958 H1952 0.930 . S
C1958 C1959 1.367 . S
C1958 C1966 1.378 . S
C1959 C1958 1.367 . S
C1959 C1967 1.433 . S
C1960 H1956 0.929 . S
C1960 C1962 1.378 . S
C1960 C1964 1.350 . S
C1961 C1964 1.463 . S
C1961 C1966 1.350 . S
C1961 N1969 1.427 . S
C1962 H1953 0.930 . S
C1962 C1960 1.378 . S
C1962 C1963 1.367 . S
C1963 C1962 1.367 . S
C1963 C1965 1.433 . S
C1964 C1960 1.350 . S
C1964 C1961 1.463 . S
C1964 N1968 1.427 . S
C1965 H1955 0.929 . S
C1965 C1963 1.433 . S
C1965 N1968 1.384 . S
C1966 H1957 0.929 . S
C1966 C1958 1.378 . S
C1966 C1961 1.350 . S
C1967 H1954 0.929 . S
C1967 C1959 1.433 . S
C1967 N1969 1.384 . S
N1968 C1964 1.427 . S
N1968 C1965 1.384 . S
N1969 C1961 1.427 . S
N1969 C1967 1.384 . S
H1970 C1976 0.930 . S
H1971 C1980 0.930 . S
H1972 C1985 0.929 . S
H1973 C1983 0.929 . S
H1974 C1978 0.929 . S
H1975 C1984 0.929 . S
C1976 H1970 0.930 . S
C1976 C1977 1.367 . S
C1976 C1984 1.378 . S
C1977 C1976 1.367 . S
C1977 C1985 1.433 . S
C1978 H1974 0.929 . S
C1978 C1980 1.378 . S
C1978 C1982 1.350 . S
C1979 C1982 1.463 . S
C1979 C1984 1.350 . S
C1979 N1987 1.427 . S
C1980 H1971 0.930 . S
C1980 C1978 1.378 . S
C1980 C1981 1.367 . S
C1981 C1980 1.367 . S
C1981 C1983 1.433 . S
C1982 C1978 1.350 . S
C1982 C1979 1.463 . S
C1982 N1986 1.427 . S
C1983 H1973 0.929 . S
C1983 C1981 1.433 . S
C1983 N1986 1.384 . S
C1984 H1975 0.929 . S
C1984 C1976 1.378 . S
C1984 C1979 1.350 . S
C1985 H1972 0.929 . S
C1985 C1977 1.433 . S
C1985 N1987 1.384 . S
N1986 C1982 1.427 . S
N1986 C1983 1.384 . S
N1987 C1979 1.427 . S
N1987 C1985 1.384 . S
H1988 C1994 0.930 . S
H1989 C1998 0.930 1_655 S
H1990 C2003 0.929 . S
H1991 C2001 0.929 . S
H1992 C1996 0.925 1_655 S
H1993 C2002 0.929 . S
C1994 H1988 0.930 . S
C1994 C1995 1.367 . S
C1994 C2002 1.378 . S
C1995 C1994 1.367 . S
C1995 C2003 1.433 1_455 S
C1996 H1992 0.925 1_455 S
C1996 C1998 1.380 . S
C1996 C2000 1.351 . S
C1997 C2000 1.463 . S
C1997 C2002 1.350 . S
C1997 N2005 1.427 1_455 S
C1998 H1989 0.930 1_455 S
C1998 C1996 1.380 . S
C1998 C1999 1.367 . S
C1999 C1998 1.367 . S
C1999 C2001 1.433 . S
C2000 C1996 1.351 . S
C2000 C1997 1.463 . S
C2000 N2004 1.427 . S
C2001 H1991 0.929 . S
C2001 C1999 1.433 . S
C2001 N2004 1.384 . S
C2002 H1993 0.929 . S
C2002 C1994 1.378 . S
C2002 C1997 1.350 . S
C2003 H1990 0.929 . S
C2003 C1995 1.433 1_655 S
C2003 N2005 1.384 . S
N2004 C2000 1.427 . S
N2004 C2001 1.384 . S
N2005 C1997 1.427 1_655 S
N2005 C2003 1.384 . S
H2006 C2012 0.930 . S
H2007 C2016 0.930 . S
H2008 C2021 0.929 . S
H2009 C2019 0.929 . S
H2010 C2014 0.929 . S
H2011 C2020 0.929 . S
C2012 H2006 0.930 . S
C2012 C2013 1.367 . S
C2012 C2020 1.378 . S
C2013 C2012 1.367 . S
C2013 C2021 1.433 . S
C2014 H2010 0.929 . S
C2014 C2016 1.378 . S
C2014 C2018 1.350 . S
C2015 C2018 1.463 . S
C2015 C2020 1.350 . S
C2015 N2023 1.427 . S
C2016 H2007 0.930 . S
C2016 C2014 1.378 . S
C2016 C2017 1.367 . S
C2017 C2016 1.367 . S
C2017 C2019 1.433 . S
C2018 C2014 1.350 . S
C2018 C2015 1.463 . S
C2018 N2022 1.427 . S
C2019 H2009 0.929 . S
C2019 C2017 1.433 . S
C2019 N2022 1.384 . S
C2020 H2011 0.929 . S
C2020 C2012 1.378 . S
C2020 C2015 1.350 . S
C2021 H2008 0.929 . S
C2021 C2013 1.433 . S
C2021 N2023 1.384 . S
N2022 C2018 1.427 . S
N2022 C2019 1.384 . S
N2023 C2015 1.427 . S
N2023 C2021 1.384 . S
H2024 C2030 0.930 . S
H2025 C2034 0.930 1_554 S
H2026 C2039 0.929 . S
H2027 C2037 0.929 . S
H2028 C2032 0.929 . S
H2029 C2038 0.929 . S
C2030 H2024 0.930 . S
C2030 C2031 1.367 . S
C2030 C2038 1.378 . S
C2031 C2030 1.367 . S
C2031 C2039 1.433 . S
C2032 H2028 0.929 . S
C2032 C2034 1.378 . S
C2032 C2036 1.350 . S
C2033 C2036 1.463 . S
C2033 C2038 1.350 . S
C2033 N2041 1.427 . S
C2034 H2025 0.930 1_556 S
C2034 C2032 1.378 . S
C2034 C2035 1.367 . S
C2035 C2034 1.367 . S
C2035 C2037 1.433 . S
C2036 C2032 1.350 . S
C2036 C2033 1.463 . S
C2036 N2040 1.427 . S
C2037 H2027 0.929 . S
C2037 C2035 1.433 . S
C2037 N2040 1.384 . S
C2038 H2029 0.929 . S
C2038 C2030 1.378 . S
C2038 C2033 1.350 . S
C2039 H2026 0.929 . S
C2039 C2031 1.433 . S
C2039 N2041 1.384 . S
N2040 C2036 1.427 . S
N2040 C2037 1.384 . S
N2041 C2033 1.427 . S
N2041 C2039 1.384 . S
H2042 C2048 0.930 . S
H2043 C2052 0.930 . S
H2044 C2057 0.929 . S
H2045 C2055 0.929 . S
H2046 C2050 0.929 . S
H2047 C2056 0.929 . S
C2048 H2042 0.930 . S
C2048 C2049 1.367 . S
C2048 C2056 1.378 . S
C2049 C2048 1.367 . S
C2049 C2057 1.433 . S
C2050 H2046 0.929 . S
C2050 C2052 1.378 . S
C2050 C2054 1.350 . S
C2051 C2054 1.463 . S
C2051 C2056 1.350 . S
C2051 N2059 1.427 . S
C2052 H2043 0.930 . S
C2052 C2050 1.378 . S
C2052 C2053 1.367 . S
C2053 C2052 1.367 . S
C2053 C2055 1.433 . S
C2054 C2050 1.350 . S
C2054 C2051 1.463 . S
C2054 N2058 1.427 . S
C2055 H2045 0.929 . S
C2055 C2053 1.433 . S
C2055 N2058 1.384 . S
C2056 H2047 0.929 . S
C2056 C2048 1.378 . S
C2056 C2051 1.350 . S
C2057 H2044 0.929 . S
C2057 C2049 1.433 . S
C2057 N2059 1.384 . S
N2058 C2054 1.427 . S
N2058 C2055 1.384 . S
N2059 C2051 1.427 . S
N2059 C2057 1.384 . S
H2060 C2066 0.930 . S
H2061 C2070 0.930 . S
H2062 C2075 0.929 1_655 S
H2063 C2073 0.929 . S
H2064 C2068 0.929 . S
H2065 C2074 0.929 . S
C2066 H2060 0.930 . S
C2066 C2067 1.367 . S
C2066 C2074 1.378 . S
C2067 C2066 1.367 . S
C2067 C2075 1.433 . S
C2068 H2064 0.929 . S
C2068 C2070 1.378 . S
C2068 C2072 1.350 1_655 S
C2069 C2072 1.463 . S
C2069 C2074 1.350 . S
C2069 N2077 1.434 . S
C2070 H2061 0.930 . S
C2070 C2068 1.378 . S
C2070 C2071 1.367 1_655 S
C2071 C2070 1.367 1_455 S
C2071 C2073 1.433 . S
C2072 C2068 1.350 1_455 S
C2072 C2069 1.463 . S
C2072 N2076 1.427 . S
C2073 H2063 0.929 . S
C2073 C2071 1.433 . S
C2073 N2076 1.384 . S
C2074 H2065 0.929 . S
C2074 C2066 1.378 . S
C2074 C2069 1.350 . S
C2075 H2062 0.929 1_455 S
C2075 C2067 1.433 . S
C2075 N2077 1.386 . S
N2076 C2072 1.427 . S
N2076 C2073 1.384 . S
N2077 C2069 1.434 . S
N2077 C2075 1.386 . S
H2078 C2084 0.930 . S
H2079 C2088 0.930 . S
H2080 C2093 0.929 . S
H2081 C2091 0.929 . S
H2082 C2086 0.929 . S
H2083 C2092 0.929 . S
C2084 H2078 0.930 . S
C2084 C2085 1.367 . S
C2084 C2092 1.378 . S
C2085 C2084 1.367 . S
C2085 C2093 1.433 . S
C2086 H2082 0.929 . S
C2086 C2088 1.378 . S
C2086 C2090 1.350 . S
C2087 C2090 1.463 . S
C2087 C2092 1.350 . S
C2087 N2095 1.427 . S
C2088 H2079 0.930 . S
C2088 C2086 1.378 . S
C2088 C2089 1.367 . S
C2089 C2088 1.367 . S
C2089 C2091 1.433 . S
C2090 C2086 1.350 . S
C2090 C2087 1.463 . S
C2090 N2094 1.427 . S
C2091 H2081 0.929 . S
C2091 C2089 1.433 . S
C2091 N2094 1.384 . S
C2092 H2083 0.929 . S
C2092 C2084 1.378 . S
C2092 C2087 1.350 . S
C2093 H2080 0.929 . S
C2093 C2085 1.433 . S
C2093 N2095 1.384 . S
N2094 C2090 1.427 . S
N2094 C2091 1.384 . S
N2095 C2087 1.427 . S
N2095 C2093 1.384 . S
H2096 C2102 0.930 . S
H2097 C2106 0.930 . S
H2098 C2111 0.929 . S
H2099 C2109 0.929 . S
H2100 C2104 0.929 . S
H2101 C2110 0.929 . S
C2102 H2096 0.930 . S
C2102 C2103 1.367 . S
C2102 C2110 1.378 . S
C2103 C2102 1.367 . S
C2103 C2111 1.433 . S
C2104 H2100 0.929 . S
C2104 C2106 1.378 . S
C2104 C2108 1.350 . S
C2105 C2108 1.463 . S
C2105 C2110 1.350 . S
C2105 N2113 1.427 . S
C2106 H2097 0.930 . S
C2106 C2104 1.378 . S
C2106 C2107 1.367 . S
C2107 C2106 1.367 . S
C2107 C2109 1.433 . S
C2108 C2104 1.350 . S
C2108 C2105 1.463 . S
C2108 N2112 1.427 . S
C2109 H2099 0.929 . S
C2109 C2107 1.433 . S
C2109 N2112 1.384 . S
C2110 H2101 0.929 . S
C2110 C2102 1.378 . S
C2110 C2105 1.350 . S
C2111 H2098 0.929 . S
C2111 C2103 1.433 . S
C2111 N2113 1.384 . S
N2112 C2108 1.427 . S
N2112 C2109 1.384 . S
N2113 C2105 1.427 . S
N2113 C2111 1.384 . S
H2114 C2120 0.930 . S
H2115 C2124 0.930 . S
H2116 C2129 0.929 . S
H2117 C2127 0.929 . S
H2118 C2122 0.929 . S
H2119 C2128 0.929 . S
C2120 H2114 0.930 . S
C2120 C2121 1.367 . S
C2120 C2128 1.378 . S
C2121 C2120 1.367 . S
C2121 C2129 1.433 . S
C2122 H2118 0.929 . S
C2122 C2124 1.378 . S
C2122 C2126 1.350 . S
C2123 C2126 1.463 . S
C2123 C2128 1.350 . S
C2123 N2131 1.427 . S
C2124 H2115 0.930 . S
C2124 C2122 1.378 . S
C2124 C2125 1.367 . S
C2125 C2124 1.367 . S
C2125 C2127 1.433 . S
C2126 C2122 1.350 . S
C2126 C2123 1.463 . S
C2126 N2130 1.427 . S
C2127 H2117 0.929 . S
C2127 C2125 1.433 . S
C2127 N2130 1.384 . S
C2128 H2119 0.929 . S
C2128 C2120 1.378 . S
C2128 C2123 1.350 . S
C2129 H2116 0.929 . S
C2129 C2121 1.433 . S
C2129 N2131 1.384 . S
N2130 C2126 1.427 . S
N2130 C2127 1.384 . S
N2131 C2123 1.427 . S
N2131 C2129 1.384 . S
H2132 C2138 0.930 . S
H2133 C2142 0.930 1_455 S
H2134 C2147 0.929 . S
H2135 C2145 0.929 . S
H2136 C2140 0.929 . S
H2137 C2146 0.929 . S
C2138 H2132 0.930 . S
C2138 C2139 1.367 . S
C2138 C2146 1.378 . S
C2139 C2138 1.367 . S
C2139 C2147 1.433 . S
C2140 H2136 0.929 . S
C2140 C2142 1.378 . S
C2140 C2144 1.350 . S
C2141 C2144 1.463 . S
C2141 C2146 1.350 . S
C2141 N2149 1.427 . S
C2142 H2133 0.930 1_655 S
C2142 C2140 1.378 . S
C2142 C2143 1.367 . S
C2143 C2142 1.367 . S
C2143 C2145 1.433 . S
C2144 C2140 1.350 . S
C2144 C2141 1.463 . S
C2144 N2148 1.427 . S
C2145 H2135 0.929 . S
C2145 C2143 1.433 . S
C2145 N2148 1.384 . S
C2146 H2137 0.929 . S
C2146 C2138 1.378 . S
C2146 C2141 1.350 . S
C2147 H2134 0.929 . S
C2147 C2139 1.433 . S
C2147 N2149 1.384 . S
N2148 C2144 1.427 . S
N2148 C2145 1.384 . S
N2149 C2141 1.427 . S
N2149 C2147 1.384 . S
H2150 C2156 0.930 . S
H2151 C2160 0.930 . S
H2152 C2165 0.929 . S
H2153 C2163 0.929 . S
H2154 C2158 0.929 . S
H2155 C2164 0.929 . S
C2156 H2150 0.930 . S
C2156 C2157 1.367 . S
C2156 C2164 1.378 . S
C2157 C2156 1.367 . S
C2157 C2165 1.433 . S
C2158 H2154 0.929 . S
C2158 C2160 1.378 . S
C2158 C2162 1.350 . S
C2159 C2162 1.463 . S
C2159 C2164 1.350 . S
C2159 N2167 1.427 . S
C2160 H2151 0.930 . S
C2160 C2158 1.378 . S
C2160 C2161 1.367 . S
C2161 C2160 1.367 . S
C2161 C2163 1.433 . S
C2162 C2158 1.350 . S
C2162 C2159 1.463 . S
C2162 N2166 1.427 . S
C2163 H2153 0.929 . S
C2163 C2161 1.433 . S
C2163 N2166 1.384 . S
C2164 H2155 0.929 . S
C2164 C2156 1.378 . S
C2164 C2159 1.350 . S
C2165 H2152 0.929 . S
C2165 C2157 1.433 . S
C2165 N2167 1.384 . S
N2166 C2162 1.427 . S
N2166 C2163 1.384 . S
N2167 C2159 1.427 . S
N2167 C2165 1.384 . S
H2168 C2174 0.930 . S
H2169 C2178 0.930 . S
H2170 C2183 0.929 . S
H2171 C2181 0.929 . S
H2172 C2176 0.929 . S
H2173 C2182 0.929 . S
C2174 H2168 0.930 . S
C2174 C2175 1.367 . S
C2174 C2182 1.378 . S
C2175 C2174 1.367 . S
C2175 C2183 1.433 . S
C2176 H2172 0.929 . S
C2176 C2178 1.378 . S
C2176 C2180 1.350 . S
C2177 C2180 1.463 . S
C2177 C2182 1.350 . S
C2177 N2185 1.427 . S
C2178 H2169 0.930 . S
C2178 C2176 1.378 . S
C2178 C2179 1.367 . S
C2179 C2178 1.367 . S
C2179 C2181 1.433 . S
C2180 C2176 1.350 . S
C2180 C2177 1.463 . S
C2180 N2184 1.427 . S
C2181 H2171 0.929 . S
C2181 C2179 1.433 . S
C2181 N2184 1.384 . S
C2182 H2173 0.929 . S
C2182 C2174 1.378 . S
C2182 C2177 1.350 . S
C2183 H2170 0.929 . S
C2183 C2175 1.433 . S
C2183 N2185 1.384 . S
N2184 C2180 1.427 . S
N2184 C2181 1.384 . S
N2185 C2177 1.427 . S
N2185 C2183 1.384 . S
H2186 C2192 0.930 . S
H2187 C2196 0.930 . S
H2188 C2201 0.929 . S
H2189 C2199 0.929 . S
H2190 C2194 0.929 . S
H2191 C2200 0.929 . S
C2192 H2186 0.930 . S
C2192 C2193 1.367 . S
C2192 C2200 1.378 . S
C2193 C2192 1.367 . S
C2193 C2201 1.433 . S
C2194 H2190 0.929 . S
C2194 C2196 1.378 . S
C2194 C2198 1.350 . S
C2195 C2198 1.463 . S
C2195 C2200 1.350 . S
C2195 N2203 1.427 . S
C2196 H2187 0.930 . S
C2196 C2194 1.378 . S
C2196 C2197 1.367 . S
C2197 C2196 1.367 . S
C2197 C2199 1.433 . S
C2198 C2194 1.350 . S
C2198 C2195 1.463 . S
C2198 N2202 1.427 . S
C2199 H2189 0.929 . S
C2199 C2197 1.433 . S
C2199 N2202 1.384 . S
C2200 H2191 0.929 . S
C2200 C2192 1.378 . S
C2200 C2195 1.350 . S
C2201 H2188 0.929 . S
C2201 C2193 1.433 . S
C2201 N2203 1.384 . S
N2202 C2198 1.427 . S
N2202 C2199 1.384 . S
N2203 C2195 1.427 . S
N2203 C2201 1.384 . S
H2204 C2210 0.930 . S
H2205 C2214 0.930 . S
H2206 C2219 0.929 . S
H2207 C2217 0.929 1_455 S
H2208 C2212 0.929 . S
H2209 C2218 0.929 . S
C2210 H2204 0.930 . S
C2210 C2211 1.367 . S
C2210 C2218 1.378 . S
C2211 C2210 1.367 . S
C2211 C2219 1.433 . S
C2212 H2208 0.929 . S
C2212 C2214 1.378 . S
C2212 C2216 1.350 . S
C2213 C2216 1.463 . S
C2213 C2218 1.350 . S
C2213 N2221 1.427 . S
C2214 H2205 0.930 . S
C2214 C2212 1.378 . S
C2214 C2215 1.367 . S
C2215 C2214 1.367 . S
C2215 C2217 1.433 . S
C2216 C2212 1.350 . S
C2216 C2213 1.463 . S
C2216 N2220 1.427 . S
C2217 H2207 0.929 1_655 S
C2217 C2215 1.433 . S
C2217 N2220 1.384 . S
C2218 H2209 0.929 . S
C2218 C2210 1.378 . S
C2218 C2213 1.350 . S
C2219 H2206 0.929 . S
C2219 C2211 1.433 . S
C2219 N2221 1.384 . S
N2220 C2216 1.427 . S
N2220 C2217 1.384 . S
N2221 C2213 1.427 . S
N2221 C2219 1.384 . S
H2222 C2228 0.930 . S
H2223 C2232 0.930 . S
H2224 C2237 0.929 . S
H2225 C2235 0.929 . S
H2226 C2230 0.929 . S
H2227 C2236 0.929 . S
C2228 H2222 0.930 . S
C2228 C2229 1.367 . S
C2228 C2236 1.378 . S
C2229 C2228 1.367 . S
C2229 C2237 1.433 . S
C2230 H2226 0.929 . S
C2230 C2232 1.378 . S
C2230 C2234 1.350 . S
C2231 C2234 1.463 . S
C2231 C2236 1.350 . S
C2231 N2239 1.427 . S
C2232 H2223 0.930 . S
C2232 C2230 1.378 . S
C2232 C2233 1.367 . S
C2233 C2232 1.367 . S
C2233 C2235 1.433 . S
C2234 C2230 1.350 . S
C2234 C2231 1.463 . S
C2234 N2238 1.427 . S
C2235 H2225 0.929 . S
C2235 C2233 1.433 . S
C2235 N2238 1.384 . S
C2236 H2227 0.929 . S
C2236 C2228 1.378 . S
C2236 C2231 1.350 . S
C2237 H2224 0.929 . S
C2237 C2229 1.433 . S
C2237 N2239 1.384 . S
N2238 C2234 1.427 . S
N2238 C2235 1.384 . S
N2239 C2231 1.427 . S
N2239 C2237 1.384 . S
H2240 C2246 0.930 . S
H2241 C2250 0.930 . S
H2242 C2255 0.929 . S
H2243 C2253 0.929 . S
H2244 C2248 0.929 . S
H2245 C2254 0.929 . S
C2246 H2240 0.930 . S
C2246 C2247 1.367 . S
C2246 C2254 1.378 . S
C2247 C2246 1.367 . S
C2247 C2255 1.433 . S
C2248 H2244 0.929 . S
C2248 C2250 1.378 . S
C2248 C2252 1.350 . S
C2249 C2252 1.463 . S
C2249 C2254 1.350 . S
C2249 N2257 1.427 . S
C2250 H2241 0.930 . S
C2250 C2248 1.378 . S
C2250 C2251 1.367 . S
C2251 C2250 1.367 . S
C2251 C2253 1.433 . S
C2252 C2248 1.350 . S
C2252 C2249 1.463 . S
C2252 N2256 1.427 . S
C2253 H2243 0.929 . S
C2253 C2251 1.433 . S
C2253 N2256 1.384 . S
C2254 H2245 0.929 . S
C2254 C2246 1.378 . S
C2254 C2249 1.350 . S
C2255 H2242 0.929 . S
C2255 C2247 1.433 . S
C2255 N2257 1.384 . S
N2256 C2252 1.427 . S
N2256 C2253 1.384 . S
N2257 C2249 1.427 . S
N2257 C2255 1.384 . S
H2258 C2264 0.930 . S
H2259 C2268 0.930 . S
H2260 C2273 0.929 . S
H2261 C2271 0.929 . S
H2262 C2266 0.929 . S
H2263 C2272 0.929 . S
C2264 H2258 0.930 . S
C2264 C2265 1.367 . S
C2264 C2272 1.378 . S
C2265 C2264 1.367 . S
C2265 C2273 1.433 . S
C2266 H2262 0.929 . S
C2266 C2268 1.378 1_565 S
C2266 C2270 1.350 . S
C2267 C2270 1.463 . S
C2267 C2272 1.350 . S
C2267 N2275 1.427 . S
C2268 H2259 0.930 . S
C2268 C2266 1.378 1_545 S
C2268 C2269 1.367 1_545 S
C2269 C2268 1.367 1_565 S
C2269 C2271 1.433 . S
C2270 C2266 1.350 . S
C2270 C2267 1.463 . S
C2270 N2274 1.427 . S
C2271 H2261 0.929 . S
C2271 C2269 1.433 . S
C2271 N2274 1.384 . S
C2272 H2263 0.929 . S
C2272 C2264 1.378 . S
C2272 C2267 1.350 . S
C2273 H2260 0.929 . S
C2273 C2265 1.433 . S
C2273 N2275 1.384 . S
N2274 C2270 1.427 . S
N2274 C2271 1.384 . S
N2275 C2267 1.427 . S
N2275 C2273 1.384 . S
H2276 C2282 0.930 . S
H2277 C2286 0.930 . S
H2278 C2291 0.929 . S
H2279 C2289 0.929 . S
H2280 C2284 0.929 . S
H2281 C2290 0.929 . S
C2282 H2276 0.930 . S
C2282 C2283 1.367 . S
C2282 C2290 1.378 . S
C2283 C2282 1.367 . S
C2283 C2291 1.433 . S
C2284 H2280 0.929 . S
C2284 C2286 1.378 . S
C2284 C2288 1.350 . S
C2285 C2288 1.463 . S
C2285 C2290 1.350 . S
C2285 N2293 1.427 . S
C2286 H2277 0.930 . S
C2286 C2284 1.378 . S
C2286 C2287 1.367 . S
C2287 C2286 1.367 . S
C2287 C2289 1.433 . S
C2288 C2284 1.350 . S
C2288 C2285 1.463 . S
C2288 N2292 1.427 . S
C2289 H2279 0.929 . S
C2289 C2287 1.433 . S
C2289 N2292 1.384 . S
C2290 H2281 0.929 . S
C2290 C2282 1.378 . S
C2290 C2285 1.350 . S
C2291 H2278 0.929 . S
C2291 C2283 1.433 . S
C2291 N2293 1.384 . S
N2292 C2288 1.427 . S
N2292 C2289 1.384 . S
N2293 C2285 1.427 . S
N2293 C2291 1.384 . S
H2294 C2300 0.930 . S
H2295 C2304 0.930 . S
H2296 C2309 0.929 . S
H2297 C2307 0.929 . S
H2298 C2302 0.929 . S
H2299 C2308 0.929 . S
C2300 H2294 0.930 . S
C2300 C2301 1.367 . S
C2300 C2308 1.378 . S
C2301 C2300 1.367 . S
C2301 C2309 1.433 1_556 S
C2302 H2298 0.929 . S
C2302 C2304 1.378 . S
C2302 C2306 1.350 . S
C2303 C2306 1.463 1_556 S
C2303 C2308 1.347 . S
C2303 N2311 1.430 1_556 S
C2304 H2295 0.930 . S
C2304 C2302 1.378 . S
C2304 C2305 1.367 . S
C2305 C2304 1.367 . S
C2305 C2307 1.433 1_554 S
C2306 C2302 1.350 . S
C2306 C2303 1.463 1_554 S
C2306 N2310 1.427 1_554 S
C2307 H2297 0.929 . S
C2307 C2305 1.433 1_556 S
C2307 N2310 1.384 . S
C2308 H2299 0.929 . S
C2308 C2300 1.378 . S
C2308 C2303 1.347 . S
C2309 H2296 0.929 . S
C2309 C2301 1.433 1_554 S
C2309 N2311 1.384 . S
N2310 C2306 1.427 1_556 S
N2310 C2307 1.384 . S
N2311 C2303 1.430 1_554 S
N2311 C2309 1.384 . S
H2312 C2318 0.930 . S
H2313 C2322 0.930 . S
H2314 C2327 0.929 . S
H2315 C2325 0.929 . S
H2316 C2320 0.929 . S
H2317 C2326 0.929 . S
C2318 H2312 0.930 . S
C2318 C2319 1.367 . S
C2318 C2326 1.378 . S
C2319 C2318 1.367 . S
C2319 C2327 1.433 . S
C2320 H2316 0.929 . S
C2320 C2322 1.378 . S
C2320 C2324 1.350 . S
C2321 C2324 1.463 . S
C2321 C2326 1.350 . S
C2321 N2329 1.427 . S
C2322 H2313 0.930 . S
C2322 C2320 1.378 . S
C2322 C2323 1.367 . S
C2323 C2322 1.367 . S
C2323 C2325 1.433 . S
C2324 C2320 1.350 . S
C2324 C2321 1.463 . S
C2324 N2328 1.427 . S
C2325 H2315 0.929 . S
C2325 C2323 1.433 . S
C2325 N2328 1.384 . S
C2326 H2317 0.929 . S
C2326 C2318 1.378 . S
C2326 C2321 1.350 . S
C2327 H2314 0.929 . S
C2327 C2319 1.433 . S
C2327 N2329 1.384 . S
N2328 C2324 1.427 . S
N2328 C2325 1.384 . S
N2329 C2321 1.427 . S
N2329 C2327 1.384 . S
H2330 C2336 0.930 1_556 S
H2331 C2340 0.930 . S
H2332 C2345 0.929 . S
H2333 C2343 0.929 . S
H2334 C2338 0.929 . S
H2335 C2344 0.929 . S
C2336 H2330 0.930 1_554 S
C2336 C2337 1.367 . S
C2336 C2344 1.378 1_554 S
C2337 C2336 1.367 . S
C2337 C2345 1.433 . S
C2338 H2334 0.929 . S
C2338 C2340 1.378 . S
C2338 C2342 1.350 . S
C2339 C2342 1.463 . S
C2339 C2344 1.350 1_554 S
C2339 N2347 1.427 . S
C2340 H2331 0.930 . S
C2340 C2338 1.378 . S
C2340 C2341 1.331 1_554 S
C2341 C2340 1.331 1_556 S
C2341 C2343 1.463 . S
C2342 C2338 1.350 . S
C2342 C2339 1.463 . S
C2342 N2346 1.427 1_554 S
C2343 H2333 0.929 . S
C2343 C2341 1.463 . S
C2343 N2346 1.384 . S
C2344 H2335 0.929 . S
C2344 C2336 1.378 1_556 S
C2344 C2339 1.350 1_556 S
C2345 H2332 0.929 . S
C2345 C2337 1.433 . S
C2345 N2347 1.384 . S
N2346 C2342 1.427 1_556 S
N2346 C2343 1.384 . S
N2347 C2339 1.427 . S
N2347 C2345 1.384 . S
H2348 C2354 0.930 . S
H2349 C2358 0.930 . S
H2350 C2363 0.929 . S
H2351 C2361 0.929 . S
H2352 C2356 0.929 . S
H2353 C2362 0.929 . S
C2354 H2348 0.930 . S
C2354 C2355 1.367 . S
C2354 C2362 1.378 . S
C2355 C2354 1.367 . S
C2355 C2363 1.433 . S
C2356 H2352 0.929 . S
C2356 C2358 1.378 . S
C2356 C2360 1.350 . S
C2357 C2360 1.463 . S
C2357 C2362 1.350 . S
C2357 N2365 1.427 . S
C2358 H2349 0.930 . S
C2358 C2356 1.378 . S
C2358 C2359 1.367 . S
C2359 C2358 1.367 . S
C2359 C2361 1.433 . S
C2360 C2356 1.350 . S
C2360 C2357 1.463 . S
C2360 N2364 1.427 . S
C2361 H2351 0.929 . S
C2361 C2359 1.433 . S
C2361 N2364 1.384 . S
C2362 H2353 0.929 . S
C2362 C2354 1.378 . S
C2362 C2357 1.350 . S
C2363 H2350 0.929 . S
C2363 C2355 1.433 . S
C2363 N2365 1.384 . S
N2364 C2360 1.427 . S
N2364 C2361 1.384 . S
N2365 C2357 1.427 . S
N2365 C2363 1.384 . S
H2366 C2372 0.930 . S
H2367 C2376 0.930 . S
H2368 C2381 0.929 . S
H2369 C2379 0.929 . S
H2370 C2374 0.929 . S
H2371 C2380 0.929 . S
C2372 H2366 0.930 . S
C2372 C2373 1.367 . S
C2372 C2380 1.378 . S
C2373 C2372 1.367 . S
C2373 C2381 1.433 . S
C2374 H2370 0.929 . S
C2374 C2376 1.378 . S
C2374 C2378 1.350 . S
C2375 C2378 1.463 . S
C2375 C2380 1.350 . S
C2375 N2383 1.427 . S
C2376 H2367 0.930 . S
C2376 C2374 1.378 . S
C2376 C2377 1.367 . S
C2377 C2376 1.367 . S
C2377 C2379 1.433 . S
C2378 C2374 1.350 . S
C2378 C2375 1.463 . S
C2378 N2382 1.427 . S
C2379 H2369 0.929 . S
C2379 C2377 1.433 . S
C2379 N2382 1.384 . S
C2380 H2371 0.929 . S
C2380 C2372 1.378 . S
C2380 C2375 1.350 . S
C2381 H2368 0.929 . S
C2381 C2373 1.433 . S
C2381 N2383 1.384 . S
N2382 C2378 1.427 . S
N2382 C2379 1.384 . S
N2383 C2375 1.427 . S
N2383 C2381 1.384 . S
C663 C109 1.223 . S
C667 C352 1.188 1_556 S
C681 C65 1.315 . S
C685 C365 1.298 . S
C699 C75 1.350 . S
C703 C384 1.335 . S
C721 C415 1.926 . S
C717 C84 1.966 . S
C735 C25 1.721 . S
C739 C435 1.697 . S
C757 C452 0.856 . S
C753 C28 0.844 . S
C775 C465 1.504 . S
C771 C47 1.511 . S
C789 C9 1.052 . S
C793 C492 1.012 . S
C811 C345 1.276 . S
C807 C233 1.295 . S
C825 C249 1.432 . S
C829 C375 1.431 . S
C847 C377 1.710 . S
C843 C275 1.761 . S
C865 C412 0.864 . S
C861 C173 0.880 . S
C879 C224 1.174 . S
C883 C432 1.167 . S
C901 C445 1.776 . S
C897 C243 1.770 . S
C919 C475 1.285 . S
C915 C266 1.295 . S
C937 C485 1.133 . S
C933 C179 1.158 . S
C955 C355 1.627 1_565 S
C951 C163 1.650 . S
C969 C289 1.781 . S
C973 C505 1.764 . S
C991 C535 1.578 . S
C987 C333 1.569 . S
C1009 C552 1.140 . S
C1005 C308 1.165 . S
C1023 C123 1.922 . S
C1027 C495 1.907 . S
C1041 C126 1.273 . S
C1045 C382 1.246 . S
C1059 C327 1.870 . S
C1063 C565 1.860 . S
C1081 C592 1.036 . S
C1077 C299 1.053 . S
C1099 C342 1.208 . S
C1095 C67 1.240 . S
C1117 C577 1.317 . S
C1113 C98 1.321 . S
C1131 C89 1.370 . S
C1135 C395 1.361 . S
C1149 C79 2.000 . S
C1153 C564 1.963 . S
C1171 C424 1.723 . S
C1167 C11 1.743 . S
C1185 C51 0.878 . S
C1189 C522 0.860 . S
C1207 C457 1.531 1_556 S
C1203 C33 1.534 . S
C1225 C602 1.010 . S
C1221 C14 1.039 . S
C1243 C337 1.251 . S
C1239 C140 1.271 . S
C1261 C584 1.435 . S
C1257 C319 1.463 . S
C1275 C112 1.759 . S
C1279 C385 1.723 . S
C1293 C285 0.902 . S
C1297 C562 0.891 . S
C1311 C149 1.213 . S
C1315 C422 1.203 . S
C1333 C517 1.802 . S
C1329 C313 1.806 . S
C1347 C121 1.370 . S
C1351 C464 1.337 . S
C1365 C291 1.182 . S
C1369 C597 1.162 . S
C1383 C182 1.649 . S
C1387 C344 1.635 . S
C1401 C168 1.774 . S
C1405 C497 1.776 . S
C1419 C263 1.620 . S
C1423 C444 1.621 . S
C1437 C247 1.215 . S
C1441 C542 1.198 . S
C1459 C604 1.905 . S
C1455 C277 1.924 . S
C1473 C219 1.321 . S
C1477 C392 1.267 . S
C1495 C397 1.895 . S
C1491 C257 1.904 . S
C1513 C362 1.030 . S
C1509 C201 1.061 . S
C1527 C81 1.222 . S
C1531 C632 1.187 . S
C1549 C585 1.291 . S
C1545 C93 1.312 . S
C1563 C103 1.353 . S
C1567 C644 1.327 1_456 S
C1581 C56 1.968 . S
C1585 C575 1.919 . S
C1599 C53 1.722 . S
C1603 C515 1.695 . S
C1621 C532 0.858 . S
C1617 C0 0.845 . S
C1639 C545 1.507 1_655 S
C1635 C19 1.507 . S
C1657 C612 1.022 . S
C1653 C37 1.045 . S
C1675 C625 1.275 . S
C1671 C261 1.295 . S
C1689 C193 1.433 . S
C1693 C595 1.434 . S
C1711 C637 1.706 . S
C1707 C205 1.762 . S
C1729 C572 0.869 . S
C1725 C215 0.874 . S
C1747 C512 1.170 . S
C1743 C252 1.176 . S
C1761 C187 1.770 . S
C1765 C525 1.772 . S
C1783 C555 1.277 . S
C1779 C196 1.292 . S
C1797 C221 1.151 . S
C1801 C605 1.138 . S
C1819 C635 1.629 . S
C1815 C317 1.652 . S
C1833 C135 1.781 . S
C1837 C425 1.763 . S
C1855 C455 1.576 . S
C1851 C151 1.576 . S
C1873 C472 1.159 . S
C1869 C154 1.158 . S
C1891 C615 1.909 . S
C1887 C305 1.920 . S
C1905 C280 1.280 . S
C1909 C642 1.258 . S
C1927 C405 1.857 . S
C1923 C145 1.867 . S
C1945 C372 1.039 . S
C1941 C117 1.053 . S
C1959 C95 1.238 . S
C1963 C622 1.215 . S
C1981 C357 1.316 . S
C1977 C70 1.321 . S
C1995 C61 1.370 . S
C1999 C655 1.360 . S
C2013 C107 2.001 . S
C2017 C404 1.957 . S
C2031 C39 1.746 . S
C2035 C504 1.715 1_556 S
C2053 C442 0.860 . S
C2049 C23 0.875 . S
C2067 C5 1.537 . S
C2071 C537 1.527 . S
C2085 C42 1.035 . S
C2089 C482 1.008 . S
C2107 C617 1.263 . S
C2103 C322 1.262 . S
C2121 C165 1.455 . S
C2125 C364 1.441 . S
C2143 C645 1.733 . S
C2139 C294 1.761 . S
C2157 C131 0.897 . S
C2161 C402 0.897 . S
C2175 C331 1.217 . S
C2179 C502 1.197 . S
C2197 C437 1.807 . S
C2193 C159 1.802 . S
C2211 C303 1.371 . S
C2215 C544 1.340 . S
C2233 C477 1.165 . S
C2229 C137 1.182 . S
C2251 C624 1.632 . S
C2247 C238 1.650 . S
C2269 C417 1.770 1_565 S
C2265 C210 1.780 . S
C2283 C235 1.624 . S
C2287 C524 1.618 . S
C2305 C462 1.183 . S
C2301 C191 1.217 . S
C2319 C207 1.919 . S
C2323 C484 1.909 . S
C2337 C177 1.321 . S
C2341 C652 1.261 1_556 S
C2359 C557 1.889 . S
C2355 C229 1.907 1_565 S
C2377 C582 1.047 . S
C2373 C271 1.063 . S
