# Generated by pormake.
# Topology pyr, (3,6)-cn, num edge types: 1
# Building blocks:
#     Node 0, Type 0, BuildingBlock: OLANEW_clean_sbu_2, # of connection points: 3
#     Node 1, Type 0, BuildingBlock: OLANEW_clean_sbu_2, # of connection points: 3
#     Node 2, Type 0, BuildingBlock: OLANEW_clean_sbu_2, # of connection points: 3
#     Node 3, Type 0, BuildingBlock: OLANEW_clean_sbu_2, # of connection points: 3
#     Node 4, Type 0, BuildingBlock: OLANEW_clean_sbu_2, # of connection points: 3
#     Node 5, Type 0, BuildingBlock: OLANEW_clean_sbu_2, # of connection points: 3
#     Node 6, Type 0, BuildingBlock: OLANEW_clean_sbu_2, # of connection points: 3
#     Node 7, Type 0, BuildingBlock: OLANEW_clean_sbu_2, # of connection points: 3
#     Node 8, Type 1, BuildingBlock: BETDAH_clean_sbu_0, # of connection points: 6
#     Node 9, Type 1, BuildingBlock: BETDAH_clean_sbu_0, # of connection points: 6
#     Node 10, Type 1, BuildingBlock: BETDAH_clean_sbu_0, # of connection points: 6
#     Node 11, Type 1, BuildingBlock: BETDAH_clean_sbu_0, # of connection points: 6
#     Edge 12, Type (0, 1), BuildingBlock: KIFKEQ_clean_linker_1, # of connection points: 2
#     Edge 13, Type (0, 1), BuildingBlock: KIFKEQ_clean_linker_1, # of connection points: 2
#     Edge 14, Type (0, 1), BuildingBlock: KIFKEQ_clean_linker_1, # of connection points: 2
#     Edge 15, Type (0, 1), BuildingBlock: KIFKEQ_clean_linker_1, # of connection points: 2
#     Edge 16, Type (0, 1), BuildingBlock: KIFKEQ_clean_linker_1, # of connection points: 2
#     Edge 17, Type (0, 1), BuildingBlock: KIFKEQ_clean_linker_1, # of connection points: 2
#     Edge 18, Type (0, 1), BuildingBlock: KIFKEQ_clean_linker_1, # of connection points: 2
#     Edge 19, Type (0, 1), BuildingBlock: KIFKEQ_clean_linker_1, # of connection points: 2
#     Edge 20, Type (0, 1), BuildingBlock: KIFKEQ_clean_linker_1, # of connection points: 2
#     Edge 21, Type (0, 1), BuildingBlock: KIFKEQ_clean_linker_1, # of connection points: 2
#     Edge 22, Type (0, 1), BuildingBlock: KIFKEQ_clean_linker_1, # of connection points: 2
#     Edge 23, Type (0, 1), BuildingBlock: KIFKEQ_clean_linker_1, # of connection points: 2
#     Edge 24, Type (0, 1), BuildingBlock: KIFKEQ_clean_linker_1, # of connection points: 2
#     Edge 25, Type (0, 1), BuildingBlock: KIFKEQ_clean_linker_1, # of connection points: 2
#     Edge 26, Type (0, 1), BuildingBlock: KIFKEQ_clean_linker_1, # of connection points: 2
#     Edge 27, Type (0, 1), BuildingBlock: KIFKEQ_clean_linker_1, # of connection points: 2
#     Edge 28, Type (0, 1), BuildingBlock: KIFKEQ_clean_linker_1, # of connection points: 2
#     Edge 29, Type (0, 1), BuildingBlock: KIFKEQ_clean_linker_1, # of connection points: 2
#     Edge 30, Type (0, 1), BuildingBlock: KIFKEQ_clean_linker_1, # of connection points: 2
#     Edge 31, Type (0, 1), BuildingBlock: KIFKEQ_clean_linker_1, # of connection points: 2
#     Edge 32, Type (0, 1), BuildingBlock: KIFKEQ_clean_linker_1, # of connection points: 2
#     Edge 33, Type (0, 1), BuildingBlock: KIFKEQ_clean_linker_1, # of connection points: 2
#     Edge 34, Type (0, 1), BuildingBlock: KIFKEQ_clean_linker_1, # of connection points: 2
#     Edge 35, Type (0, 1), BuildingBlock: KIFKEQ_clean_linker_1, # of connection points: 2
# Relax obj value: 0.124
# Max RMSD: 0.167
# Mean RMSD: 0.121
data_MOF--net-pyr--node1-OLANEW_clean_sbu_2--node2-BETDAH_clean_sbu_0--edge1-KIFKEQ_clean_linker_1
_symmetry_space_group_name_H-M    P1
_symmetry_Int_Tables_number       1
_symmetry_cell_setting            triclinic
loop_
_symmetry_equiv_pos_as_xyz
'x, y, z'
_cell_length_a     41.112361
_cell_length_b     45.318356
_cell_length_c     39.64284
_cell_angle_alpha  95.374274
_cell_angle_beta   88.269828
_cell_angle_gamma 104.22753
loop_
_atom_site_label
_atom_site_type_symbol
_atom_site_fract_x
_atom_site_fract_y
_atom_site_fract_z
_atom_type_partial_charge
O0 O 0.33299 0.24123 0.19573 0.0
Cd1 Cd 0.30392 0.28044 0.21914 0.0
O2 O 0.36211 0.24797 0.24277 0.0
Cd3 Cd 0.3319 0.27577 0.27026 0.0
O4 O 0.28593 0.27549 0.29912 0.0
C5 C 0.28663 0.27991 0.33123 0.0
O6 O 0.31582 0.28754 0.3465 0.0
C7 C 0.35589 0.23513 0.21292 0.0
C8 C 0.25667 0.29914 0.18225 0.0
O9 O 0.28816 0.3114 0.17946 0.0
O10 O 0.24768 0.27694 0.20105 0.0
O11 O 0.46497 1.01303 0.66284 0.0
Cd12 Cd 0.47908 1.00627 0.60291 0.0
O13 O 0.41248 0.99598 0.64793 0.0
Cd14 Cd 0.35783 0.98441 0.65327 0.0
O15 O 0.30595 0.98224 0.64041 0.0
C16 C 0.30112 0.989 0.61086 0.0
O17 O 0.327 0.99615 0.59033 0.0
C18 C 0.43421 1.00505 0.67122 0.0
C19 C 0.48059 0.94527 0.58906 0.0
O20 O 0.50723 0.96579 0.59766 0.0
O21 O 0.45343 0.95381 0.58584 0.0
O22 O 0.70708 0.41904 0.86797 0.0
Cd23 Cd 0.65241 0.40804 0.83668 0.0
O24 O 0.69384 0.37815 0.89622 0.0
Cd25 Cd 0.68985 0.33952 0.92883 0.0
O26 O 0.67034 0.29495 0.95169 0.0
C27 C 0.63868 0.28437 0.95421 0.0
O28 O 0.61892 0.30045 0.94383 0.0
C29 C 0.715 0.40293 0.88986 0.0
C30 C 0.63858 0.44222 0.7842 0.0
O31 O 0.63631 0.45144 0.81558 0.0
O32 O 0.64911 0.41791 0.7774 0.0
O33 O 0.92137 0.75325 0.36728 0.0
Cd34 Cd 0.88982 0.70475 0.33686 0.0
O35 O 0.89123 0.74294 0.41364 0.0
Cd36 Cd 0.85678 0.69909 0.3981 0.0
O37 O 0.81037 0.66887 0.41546 0.0
C38 C 0.78225 0.67327 0.40771 0.0
O39 O 0.78176 0.6942 0.38705 0.0
C40 C 0.9144 0.76068 0.39799 0.0
C41 C 0.92012 0.67407 0.28435 0.0
O42 O 0.90618 0.6954 0.27831 0.0
O43 O 0.92111 0.66819 0.31528 0.0
O44 O 0.72682 0.76253 0.79553 0.0
Cd45 Cd 0.68323 0.72719 0.8252 0.0
O46 O 0.71566 0.80097 0.82723 0.0
Cd47 Cd 0.71625 0.84784 0.84739 0.0
O48 O 0.69898 0.88421 0.8773 0.0
C49 C 0.67854 0.87535 0.90111 0.0
O50 O 0.67042 0.84615 0.90601 0.0
C51 C 0.73329 0.79111 0.80392 0.0
C52 C 0.71413 0.69807 0.86901 0.0
O53 O 0.70759 0.68691 0.83835 0.0
O54 O 0.70524 0.72263 0.87922 0.0
O55 O 0.64813 0.06533 0.50283 0.0
Cd56 Cd 0.66177 0.05672 0.55974 0.0
O57 O 0.64718 0.11277 0.5187 0.0
Cd58 Cd 0.64522 0.15947 0.5109 0.0
O59 O 0.63726 0.20444 0.50416 0.0
C60 C 0.62791 0.21994 0.52933 0.0
O61 O 0.62375 0.20861 0.55893 0.0
C62 C 0.64473 0.09105 0.49539 0.0
C63 C 0.72861 0.0537 0.5596 0.0
O64 O 0.70503 0.02963 0.55281 0.0
O65 O 0.72046 0.07908 0.56714 0.0
O66 O 0.41008 0.78538 0.23849 0.0
Cd67 Cd 0.3847 0.73738 0.26718 0.0
O68 O 0.38036 0.77353 0.19101 0.0
Cd69 Cd 0.34536 0.72811 0.19491 0.0
O70 O 0.30231 0.69051 0.17586 0.0
C71 C 0.27244 0.69276 0.18238 0.0
O72 O 0.26809 0.71669 0.20173 0.0
C73 C 0.40271 0.79212 0.20944 0.0
C74 C 0.41622 0.71197 0.31688 0.0
O75 O 0.40259 0.73427 0.32504 0.0
O76 O 0.41682 0.70283 0.28529 0.0
O77 O 0.17184 0.43334 0.77631 0.0
Cd78 Cd 0.19736 0.40687 0.72942 0.0
O79 O 0.12568 0.39612 0.77662 0.0
Cd80 Cd 0.13864 0.363 0.73755 0.0
O81 O 0.13283 0.31867 0.70726 0.0
C82 C 0.11922 0.29466 0.72166 0.0
O83 O 0.11031 0.29757 0.75368 0.0
C84 C 0.14273 0.42233 0.78833 0.0
C85 C 0.25316 0.44224 0.69663 0.0
O86 O 0.22321 0.43982 0.68651 0.0
O87 O 0.25672 0.42866 0.72274 0.0
Ho88 Ho 0.02465 0.04051 0.52668 0.0
Ho89 Ho 0.01949 1.01401 0.59295 0.0
C90 C 0.05008 0.0848 0.5948 0.0
C91 C 0.02305 0.07363 0.47731 0.0
C92 C 0.04448 0.10268 0.46783 0.0
C93 C 0.04281 0.11145 0.43512 0.0
C94 C 0.06561 0.13743 0.42481 0.0
C95 C 0.09046 0.155 0.44712 0.0
C96 C 0.0911 0.14668 0.48036 0.0
C97 C 0.06844 0.12066 0.49055 0.0
C98 C 0.07924 0.02133 0.54295 0.0
C99 C 0.99841 0.96961 0.52359 0.0
C100 C 0.01716 0.98184 0.64394 0.0
C101 C 0.98872 0.96057 0.65879 0.0
C102 C 0.99359 0.94366 0.68518 0.0
C103 C 0.96602 0.9247 0.70033 0.0
C104 C 0.93314 0.9225 0.68937 0.0
C105 C 0.9286 0.93934 0.66257 0.0
C106 C 0.95612 0.95808 0.64737 0.0
C107 C 0.96496 0.03335 0.5773 0.0
O108 O 0.03614 0.08225 0.5647 0.0
O109 O 0.05275 0.06014 0.60875 0.0
O110 O 0.03743 0.05084 0.4751 0.0
O111 O 1.00556 0.07506 0.50525 0.0
O112 O 0.06833 0.01953 0.51239 0.0
O113 O 0.0625 0.03519 0.56271 0.0
O114 O 0.01145 0.97258 0.55425 0.0
O115 O 0.99474 0.99374 0.50939 0.0
O116 O 0.01526 1.01027 0.64688 0.0
O117 O 0.02632 0.97325 0.6135 0.0
O118 O 0.97683 0.03551 0.60738 0.0
O119 O 0.98106 0.01907 0.5571 0.0
H120 H 0.0246 0.09767 0.41721 0.0
H121 H 0.06469 0.14293 0.39891 0.0
H122 H 0.10963 0.15991 0.4983 0.0
H123 H 0.07027 0.11411 0.51586 0.0
H124 H 0.01863 0.94533 0.69425 0.0
H125 H 0.97047 0.91171 0.72055 0.0
H126 H 0.90371 0.93863 0.65378 0.0
H127 H 0.95192 0.9711 0.62704 0.0
Ho128 Ho 0.54534 0.05297 0.10389 0.0
Ho129 Ho 0.482 0.0258 0.0589 0.0
C130 C 0.47568 0.07384 0.12177 0.0
C131 C 0.59432 0.08635 0.14026 0.0
C132 C 0.59898 0.09288 0.17693 0.0
C133 C 0.62825 0.11309 0.18988 0.0
C134 C 0.63335 0.1181 0.22488 0.0
C135 C 0.60922 0.10286 0.2474 0.0
C136 C 0.57954 0.0831 0.23414 0.0
C137 C 0.57446 0.0782 0.19921 0.0
C138 C 0.50908 0.99652 0.11801 0.0
C139 C 0.55262 1.01101 0.03791 0.0
C140 C 0.43022 0.99195 0.02738 0.0
C141 C 0.42057 0.98807 0.99119 0.0
C142 C 0.43505 0.97012 0.96721 0.0
C143 C 0.42924 0.96997 0.93261 0.0
C144 C 0.40891 0.98779 0.92125 0.0
C145 C 0.39306 1.00446 0.94529 0.0
C146 C 0.39865 1.00444 0.97988 0.0
C147 C 0.52195 0.07677 0.03252 0.0
O148 O 0.50823 0.07837 0.12735 0.0
O149 O 0.45933 0.0522 0.09947 0.0
O150 O 0.59275 0.0581 0.12866 0.0
O151 O 0.57121 0.09719 0.12748 0.0
O152 O 0.54125 1.00627 0.12085 0.0
O153 O 0.49688 0.01808 0.11031 0.0
O154 O 0.51985 0.99965 0.04038 0.0
O155 O 0.56785 0.03663 0.05566 0.0
O156 O 0.43065 0.01874 0.04322 0.0
O157 O 0.45597 0.98166 0.03514 0.0
O158 O 0.49387 0.06099 0.01939 0.0
O159 O 0.52628 0.06379 0.05791 0.0
H160 H 0.64733 0.12469 0.17294 0.0
H161 H 0.65627 0.13374 0.2343 0.0
H162 H 0.56068 0.07064 0.25066 0.0
H163 H 0.55169 0.06248 0.18951 0.0
H164 H 0.45187 0.95704 0.975 0.0
H165 H 0.44193 0.95699 0.91468 0.0
H166 H 0.37684 0.01803 0.93731 0.0
H167 H 0.38674 0.01817 0.99772 0.0
Ho168 Ho 0.51699 0.54199 0.52476 0.0
Ho169 Ho 0.51218 0.59356 0.57676 0.0
C170 C 0.54228 0.54169 0.60248 0.0
C171 C 0.53707 0.5009 0.48559 0.0
C172 C 0.54685 0.47256 0.49039 0.0
C173 C 0.55946 0.45694 0.4629 0.0
C174 C 0.56924 0.43011 0.4672 0.0
C175 C 0.56661 0.41849 0.49914 0.0
C176 C 0.55402 0.43438 0.52669 0.0
C177 C 0.54418 0.46119 0.52233 0.0
C178 C 0.45777 0.53392 0.55886 0.0
C179 C 0.48923 0.59541 0.49831 0.0
C180 C 0.49264 0.63532 0.61509 0.0
C181 C 0.48815 0.66549 0.60901 0.0
C182 C 0.49588 0.67669 0.57718 0.0
C183 C 0.49279 0.70586 0.57169 0.0
C184 C 0.48207 0.72439 0.598 0.0
C185 C 0.47391 0.71282 0.62975 0.0
C186 C 0.47694 0.68357 0.63518 0.0
C187 C 0.57127 0.60113 0.54284 0.0
O188 O 0.54532 0.53292 0.56987 0.0
O189 O 0.52523 0.56232 0.61215 0.0
O190 O 0.50545 0.50043 0.49115 0.0
O191 O 0.55725 0.52602 0.49879 0.0
O192 O 0.46062 0.52515 0.52706 0.0
O193 O 0.48647 0.54499 0.57127 0.0
O194 O 0.4862 0.60444 0.53086 0.0
O195 O 0.50443 0.57332 0.48903 0.0
O196 O 0.52366 0.6328 0.61361 0.0
O197 O 0.47188 0.61199 0.59906 0.0
O198 O 0.56868 0.61057 0.57445 0.0
O199 O 0.54255 0.59037 0.53064 0.0
H200 H 0.56185 0.46557 0.43813 0.0
H201 H 0.57925 0.41866 0.44558 0.0
H202 H 0.55131 0.42587 0.55152 0.0
H203 H 0.53442 0.47297 0.54384 0.0
H204 H 0.50467 0.66302 0.55668 0.0
H205 H 0.49885 0.71391 0.54684 0.0
H206 H 0.46599 0.72666 0.65066 0.0
H207 H 0.47099 0.67525 0.65993 0.0
Ho208 Ho 0.00849 0.49778 0.0449 0.0
Ho209 Ho 0.9985 0.55828 0.0233 0.0
C210 C 0.06509 0.55987 0.06333 0.0
C211 C 0.01958 0.44421 0.04712 0.0
C212 C 0.04154 0.4289 0.06381 0.0
C213 C 0.04391 0.39983 0.05025 0.0
C214 C 0.06619 0.38537 0.06389 0.0
C215 C 0.08662 0.39968 0.09153 0.0
C216 C 0.08389 0.42883 0.10531 0.0
C217 C 0.06159 0.44336 0.09149 0.0
C218 C 0.9895 0.53472 0.09517 0.0
C219 C 0.93848 0.49715 1.00787 0.0
C220 C 0.97948 0.6067 1.01212 0.0
C221 C 0.94791 0.61517 1.00706 0.0
C222 C 0.9168 0.59523 1.01329 0.0
C223 C 0.88702 0.60271 1.00535 0.0
C224 C 0.88801 0.63027 0.99118 0.0
C225 C 0.91936 0.65041 0.98585 0.0
C226 C 0.949 0.64289 0.99372 0.0
C227 C 0.03814 0.53056 0.98213 0.0
O228 O 0.05984 0.53003 0.05466 0.0
O229 O 0.04208 0.57485 0.05834 0.0
O230 O 0.99677 0.45386 0.06584 0.0
O231 O 0.03458 0.46374 0.02587 0.0
O232 O 0.00944 0.51719 0.09945 0.0
O233 O 0.97903 0.5303 0.06507 0.0
O234 O 0.94889 0.52715 1.00726 0.0
O235 O 0.95711 0.48081 0.02065 0.0
O236 O 0.98764 0.58799 0.98806 0.0
O237 O 0.98482 0.59988 0.04253 0.0
O238 O 0.0438 0.55991 0.98888 0.0
O239 O 0.01137 0.51788 0.99654 0.0
H240 H 0.02891 0.38849 0.02859 0.0
H241 H 0.06798 0.36327 0.05214 0.0
H242 H 0.09893 0.44043 0.1268 0.0
H243 H 0.06028 0.46595 0.10212 0.0
H244 H 0.91557 0.57371 0.02367 0.0
H245 H 0.86329 0.58683 1.01002 0.0
H246 H 0.92111 0.67155 0.97443 0.0
H247 H 0.97286 0.65841 0.98855 0.0
H248 H 0.22297 0.25675 0.30716 0.0
H249 H 0.27923 0.28217 0.40018 0.0
H250 H 0.17368 0.23251 0.33891 0.0
H251 H 0.22953 0.25852 0.43208 0.0
H252 H 0.15736 0.168 0.46063 0.0
H253 H 0.20235 0.20519 0.43606 0.0
H254 H 0.12992 0.23597 0.38054 0.0
H255 H 0.08454 0.19847 0.40533 0.0
C256 C 0.22461 0.25784 0.33449 0.0
C257 C 0.25523 0.27088 0.35107 0.0
C258 C 0.19623 0.24408 0.35275 0.0
C259 C 0.1978 0.24317 0.388 0.0
C260 C 0.22771 0.25829 0.40486 0.0
C261 C 0.25615 0.27199 0.38658 0.0
C262 C 0.15085 0.18319 0.44388 0.0
C263 C 0.11731 0.18017 0.43488 0.0
C264 C 0.17673 0.20461 0.42978 0.0
C265 C 0.16977 0.22358 0.40629 0.0
C266 C 0.13613 0.22144 0.39825 0.0
C267 C 0.11016 0.19994 0.4124 0.0
H268 H 0.38145 0.96681 0.70107 0.0
H269 H 0.46668 0.04295 0.72335 0.0
H270 H 0.37013 0.96369 0.76168 0.0
H271 H 0.45578 0.03951 0.78385 0.0
H272 H 0.41379 0.04001 0.89033 0.0
H273 H 0.4147 0.04577 0.82969 0.0
H274 H 0.40035 0.94823 0.80839 0.0
H275 H 0.39885 0.94239 0.86915 0.0
C276 C 0.39718 0.98342 0.71885 0.0
C277 C 0.42465 1.00543 0.70746 0.0
C278 C 0.391 0.98134 0.75356 0.0
C279 C 0.41207 1.00134 0.77751 0.0
C280 C 0.43884 0.02401 0.76604 0.0
C281 C 0.44519 0.02589 0.7314 0.0
C282 C 0.41015 0.01973 0.87272 0.0
C283 C 0.40631 0.99074 0.88449 0.0
C284 C 0.41097 0.02307 0.83801 0.0
C285 C 0.40773 0.99748 0.81429 0.0
C286 C 0.40263 0.96835 0.82606 0.0
C287 C 0.40208 0.96503 0.86081 0.0
H288 H 0.62383 0.49842 0.78913 0.0
H289 H 0.62734 0.42173 0.71716 0.0
H290 H 0.60257 0.52289 0.74534 0.0
H291 H 0.60455 0.44534 0.67367 0.0
H292 H 0.58683 0.50511 0.59324 0.0
H293 H 0.6121 0.48272 0.63607 0.0
H294 H 0.55581 0.52228 0.71403 0.0
H295 H 0.5319 0.54572 0.67132 0.0
C296 C 0.62004 0.48672 0.76392 0.0
C297 C 0.62744 0.45807 0.7568 0.0
C298 C 0.60744 0.50065 0.73872 0.0
C299 C 0.60133 0.4862 0.7056 0.0
C300 C 0.60923 0.45765 0.69847 0.0
C301 C 0.62223 0.44392 0.72359 0.0
C302 C 0.57992 0.50911 0.61955 0.0
C303 C 0.55735 0.52742 0.62868 0.0
C304 C 0.59431 0.49603 0.64428 0.0
C305 C 0.5863 0.50052 0.67896 0.0
C306 C 0.56343 0.51866 0.6879 0.0
C307 C 0.54938 0.53201 0.66323 0.0
H308 H 0.92458 0.68252 0.2165 0.0
H309 H 0.94421 0.6234 0.28862 0.0
H310 H 0.94275 0.65048 0.1704 0.0
H311 H 0.96125 0.59085 0.24265 0.0
H312 H 0.01775 0.55175 0.15727 0.0
H313 H 1.00337 0.58708 0.20205 0.0
H314 H 0.9262 0.60201 0.13867 0.0
H315 H 0.94156 0.56728 0.09343 0.0
C316 C 0.93284 0.66272 0.22256 0.0
C317 C 0.93301 0.65563 0.25635 0.0
C318 C 0.943 0.64414 0.19604 0.0
C319 C 0.95346 0.61788 0.20257 0.0
C320 C 0.95394 0.61107 0.23649 0.0
C321 C 0.94398 0.62972 0.26297 0.0
C322 C 0.99774 0.56263 0.15291 0.0
C323 C 0.98067 0.55663 0.12192 0.0
C324 C 0.98933 0.58281 0.17869 0.0
C325 C 0.96337 0.59738 0.17431 0.0
C326 C 0.94657 0.59159 0.14298 0.0
C327 C 0.9552 0.57152 0.11706 0.0
H328 H 0.34903 0.2014 0.151 0.0
H329 H 0.40404 0.21607 0.24475 0.0
H330 H 0.37768 0.1618 0.13068 0.0
H331 H 0.43186 0.17614 0.22489 0.0
H332 H 0.5013 0.12575 0.16328 0.0
H333 H 0.4728 0.16487 0.18483 0.0
H334 H 0.38 0.11054 0.14065 0.0
H335 H 0.40863 0.07171 0.11837 0.0
C336 C 0.36722 0.19624 0.16725 0.0
C337 C 0.37422 0.21201 0.19948 0.0
C338 C 0.38345 0.17333 0.15575 0.0
C339 C 0.40701 0.16562 0.17621 0.0
C340 C 0.4142 0.18166 0.20826 0.0
C341 C 0.39808 0.20454 0.21971 0.0
C342 C 0.47471 0.1219 0.1585 0.0
C343 C 0.45735 0.09553 0.13898 0.0
C344 C 0.45833 0.1444 0.1709 0.0
C345 C 0.42412 0.14106 0.16421 0.0
C346 C 0.4065 0.11419 0.14569 0.0
C347 C 0.42289 0.09173 0.13322 0.0
H348 H 0.28396 1.00637 0.55114 0.0
H349 H 0.24185 0.97456 0.64621 0.0
H350 H 0.22929 1.01148 0.53452 0.0
H351 H 0.18681 0.97892 0.62915 0.0
H352 H 0.10695 0.02951 0.6055 0.0
H353 H 0.15949 0.01903 0.62135 0.0
H354 H 0.17332 0.98366 0.51821 0.0
H355 H 0.12099 0.99502 0.50224 0.0
C356 C 0.26295 1.00014 0.56837 0.0
C357 C 0.26733 0.99025 0.60011 0.0
C358 C 0.2315 1.00286 0.55871 0.0
C359 C 0.20362 0.99568 0.58051 0.0
C360 C 0.20785 0.98509 0.61196 0.0
C361 C 0.23937 0.98244 0.62167 0.0
C362 C 0.12119 0.01941 0.58625 0.0
C363 C 0.11013 1.01332 0.55258 0.0
C364 C 0.15118 1.01316 0.59539 0.0
C365 C 0.17071 1.00054 0.57106 0.0
C366 C 0.15915 0.9938 0.53747 0.0
C367 C 0.12913 1.00015 0.52833 0.0
H368 H 0.73929 0.38086 0.94471 0.0
H369 H 0.76648 0.45063 0.87482 0.0
H370 H 0.7926 0.40209 0.97426 0.0
H371 H 0.81936 0.47137 0.90378 0.0
H372 H 0.89255 0.52394 0.98286 0.0
H373 H 0.8393 0.49979 0.95595 0.0
H374 H 0.85429 0.41086 0.97059 0.0
H375 H 0.9079 0.43528 0.99841 0.0
C376 C 0.75663 0.40044 0.93535 0.0
C377 C 0.74821 0.41398 0.90732 0.0
C378 C 0.78733 0.41265 0.95232 0.0
C379 C 0.81034 0.43879 0.9418 0.0
C380 C 0.80214 0.45172 0.91327 0.0
C381 C 0.77169 0.4396 0.89642 0.0
C382 C 0.88467 0.49922 0.98057 0.0
C383 C 0.90494 0.48167 0.99278 0.0
C384 C 0.854 0.48528 0.96481 0.0
C385 C 0.84243 0.45324 0.96053 0.0
C386 C 0.86221 0.43558 0.9735 0.0
C387 C 0.89308 0.44961 0.98936 0.0
H388 H 0.77576 0.6377 0.46092 0.0
H389 H 0.71796 0.67451 0.3938 0.0
H390 H 0.72477 0.617 0.49281 0.0
H391 H 0.66715 0.65397 0.42577 0.0
H392 H 0.57759 0.59163 0.47436 0.0
H393 H 0.62858 0.60531 0.44012 0.0
H394 H 0.68616 0.63961 0.53102 0.0
H395 H 0.63509 0.62575 0.56527 0.0
C396 C 0.75216 0.64108 0.45271 0.0
C397 C 0.75097 0.65789 0.42488 0.0
C398 C 0.723 0.6294 0.47114 0.0
C399 C 0.69198 0.634 0.46193 0.0
C400 C 0.69061 0.64982 0.43335 0.0
C401 C 0.71978 0.66171 0.41511 0.0
C402 C 0.60119 0.60191 0.48702 0.0
C403 C 0.60242 0.60783 0.52244 0.0
C404 C 0.63034 0.60984 0.46741 0.0
C405 C 0.66138 0.62363 0.48284 0.0
C406 C 0.66269 0.62875 0.51839 0.0
C407 C 0.63346 0.62101 0.53799 0.0
H408 H 0.26773 0.34443 0.13909 0.0
H409 H 0.18839 0.28279 0.18977 0.0
H410 H 0.22659 0.36793 0.11663 0.0
H411 H 0.14737 0.30684 0.1682 0.0
H412 H 0.07837 0.33875 0.09963 0.0
H413 H 0.11931 0.31346 0.11885 0.0
H414 H 0.19096 0.40081 0.13524 0.0
H415 H 0.15061 0.42592 0.11422 0.0
C416 C 0.24149 0.3358 0.14534 0.0
C417 C 0.23139 0.3117 0.16624 0.0
C418 C 0.21789 0.34948 0.13271 0.0
C419 C 0.18358 0.33953 0.14079 0.0
C420 C 0.17346 0.31495 0.1611 0.0
C421 C 0.19704 0.30117 0.17358 0.0
C422 C 0.10297 0.35258 0.10699 0.0
C423 C 0.11113 0.38444 0.10518 0.0
C424 C 0.12638 0.33807 0.11842 0.0
C425 C 0.15858 0.355 0.12857 0.0
C426 C 0.16662 0.38691 0.12716 0.0
C427 C 0.14324 0.40142 0.11558 0.0
H428 H 0.67061 0.24296 0.97736 0.0
H429 H 0.57225 0.25699 0.96149 0.0
H430 H 0.64451 0.19259 0.99687 0.0
H431 H 0.54652 0.20742 0.98117 0.0
H432 H 0.50944 0.10513 0.979 0.0
H433 H 0.53928 0.15447 0.96098 0.0
H434 H 0.60962 0.16544 0.04265 0.0
H435 H 0.57962 0.11526 0.06045 0.0
C436 C 0.6435 0.23544 0.97816 0.0
C437 C 0.62363 0.2541 0.96754 0.0
C438 C 0.62852 0.2066 0.98951 0.0
C439 C 0.59332 0.19563 0.99029 0.0
C440 C 0.57365 0.21466 0.9803 0.0
C441 C 0.58851 0.24333 0.96914 0.0
C442 C 0.53134 0.11795 0.9931 0.0
C443 C 0.54198 0.10634 0.02133 0.0
C444 C 0.5484 0.14644 0.98288 0.0
C445 C 0.5767 0.16434 1.00056 0.0
C446 C 0.588 0.15233 0.02834 0.0
C447 C 0.57075 0.12365 0.03867 0.0
H448 H 0.91211 0.77808 0.46546 0.0
H449 H 0.95463 0.81141 0.3712 0.0
H450 H 0.93433 0.8281 0.49478 0.0
H451 H 0.97756 0.86188 0.401 0.0
H452 H 0.97292 0.95496 0.45935 0.0
H453 H 0.95635 0.90451 0.42846 0.0
H454 H 0.98543 0.86418 0.51366 0.0
H455 H 1.00147 0.9145 0.54478 0.0
C456 C 0.92659 0.79601 0.45098 0.0
C457 C 0.93144 0.79064 0.41584 0.0
C458 C 0.93955 0.82476 0.46794 0.0
C459 C 0.95772 0.84914 0.45033 0.0
C460 C 0.96335 0.84369 0.41529 0.0
C461 C 0.95047 0.8147 0.39825 0.0
C462 C 0.97578 0.93535 0.47155 0.0
C463 C 0.98832 0.93885 0.50472 0.0
C464 C 0.96656 0.90641 0.45366 0.0
C465 C 0.96953 0.8802 0.4685 0.0
C466 C 0.98241 0.88378 0.50155 0.0
C467 C 0.99169 0.9127 0.5194 0.0
H468 H 0.53401 0.92031 0.59476 0.0
H469 H 0.42754 0.89616 0.57475 0.0
H470 H 0.5334 0.86639 0.59379 0.0
H471 H 0.42709 0.8421 0.57317 0.0
H472 H 0.43369 0.75395 0.62014 0.0
H473 H 0.43316 0.80694 0.61439 0.0
H474 H 0.52592 0.81908 0.5572 0.0
H475 H 0.52714 0.76649 0.56407 0.0
C476 C 0.51055 0.90349 0.58968 0.0
C477 C 0.48079 0.91253 0.585 0.0
C478 C 0.51024 0.87255 0.58895 0.0
C479 C 0.48016 0.84995 0.58354 0.0
C480 C 0.45057 0.85898 0.57786 0.0
C481 C 0.45089 0.88995 0.57854 0.0
C482 C 0.45402 0.76797 0.60644 0.0
C483 C 0.48054 0.75604 0.59272 0.0
C484 C 0.4535 0.79822 0.60278 0.0
C485 C 0.47953 0.81723 0.58536 0.0
C486 C 0.50568 0.80511 0.57105 0.0
C487 C 0.50618 0.77487 0.57468 0.0
H488 H 0.76016 0.77997 0.74202 0.0
H489 H 0.77056 0.84813 0.82733 0.0
H490 H 0.80827 0.81155 0.71465 0.0
H491 H 0.81747 0.88063 0.79909 0.0
H492 H 0.92346 0.91446 0.75701 0.0
H493 H 0.87486 0.88322 0.78427 0.0
H494 H 0.82633 0.85721 0.68705 0.0
H495 H 0.87566 0.88694 0.65961 0.0
C496 C 0.77234 0.80197 0.7547 0.0
C497 C 0.761 0.81177 0.78661 0.0
C498 C 0.79982 0.82021 0.73886 0.0
C499 C 0.81671 0.84877 0.75452 0.0
C500 C 0.80521 0.85868 0.78636 0.0
C501 C 0.77777 0.84031 0.8023 0.0
C502 C 0.90264 0.90172 0.74138 0.0
C503 C 0.90358 0.90321 0.70607 0.0
C504 C 0.8745 0.88417 0.75709 0.0
C505 C 0.84654 0.86776 0.73791 0.0
C506 C 0.84751 0.86926 0.70261 0.0
C507 C 0.87569 0.88665 0.68689 0.0
H508 H 0.60879 0.12762 0.46981 0.0
H509 H 0.66879 0.06345 0.44009 0.0
H510 H 0.60236 0.13493 0.4103 0.0
H511 H 0.66104 0.0695 0.38078 0.0
H512 H 0.66817 0.10548 0.279 0.0
H513 H 0.67773 0.10632 0.33939 0.0
H514 H 0.57397 0.10652 0.35996 0.0
H515 H 0.56477 0.10716 0.29957 0.0
C516 C 0.6211 0.11552 0.45064 0.0
C517 C 0.64002 0.09558 0.45962 0.0
C518 C 0.61693 0.11929 0.41652 0.0
C519 C 0.63149 0.10304 0.3908 0.0
C520 C 0.65011 0.08288 0.39994 0.0
C521 C 0.65425 0.07915 0.43392 0.0
C522 C 0.64756 0.1064 0.29642 0.0
C523 C 0.61565 0.10607 0.28441 0.0
C524 C 0.65294 0.10648 0.33102 0.0
C525 C 0.62651 0.1061 0.35446 0.0
C526 C 0.59491 0.10695 0.34261 0.0
C527 C 0.58954 0.10696 0.30796 0.0
H528 H 0.42814 0.73074 0.38446 0.0
H529 H 0.43245 0.65653 0.30934 0.0
H530 H 0.44635 0.70352 0.42771 0.0
H531 H 0.44885 0.6285 0.35259 0.0
H532 H 0.5049 0.59345 0.4305 0.0
H533 H 0.4895 0.62239 0.38764 0.0
H534 H 0.43213 0.6642 0.46257 0.0
H535 H 0.44919 0.63628 0.5058 0.0
C536 C 0.43292 0.70855 0.37714 0.0
C537 C 0.42896 0.69602 0.34322 0.0
C538 C 0.44308 0.69265 0.40213 0.0
C539 C 0.44914 0.66342 0.39417 0.0
C540 C 0.44523 0.65105 0.36007 0.0
C541 C 0.43558 0.66715 0.33505 0.0
C542 C 0.48889 0.60873 0.43788 0.0
C543 C 0.47821 0.61228 0.47176 0.0
C544 C 0.4798 0.62536 0.41307 0.0
C545 C 0.45925 0.64587 0.42109 0.0
C546 C 0.44841 0.64921 0.45508 0.0
C547 C 0.45794 0.63287 0.48002 0.0
H548 H 0.0776 0.41154 0.80995 0.0
H549 H 0.17526 0.47192 0.83041 0.0
H550 H 0.05373 0.43818 0.85653 0.0
H551 H 0.15161 0.49797 0.87826 0.0
H552 H 0.09085 0.55638 0.94207 0.0
H553 H 0.11669 0.53122 0.89512 0.0
H554 H 0.05092 0.44433 0.91552 0.0
H555 H 0.02409 0.46984 0.96095 0.0
C556 C 0.09409 0.43042 0.82457 0.0
C557 C 0.12841 0.43949 0.81642 0.0
C558 C 0.08041 0.44561 0.8516 0.0
C559 C 0.10069 0.47012 0.87168 0.0
C560 C 0.13504 0.47944 0.86328 0.0
C561 C 0.14869 0.46441 0.83589 0.0
C562 C 0.08206 0.53188 0.93649 0.0
C563 C 0.05549 0.51508 0.95525 0.0
C564 C 0.097 0.51738 0.90968 0.0
C565 C 0.08588 0.48564 0.90115 0.0
C566 C 0.0598 0.46885 0.92066 0.0
C567 C 0.04465 0.48341 0.94713 0.0
H568 H 0.69002 0.93757 0.89911 0.0
H569 H 0.6309 0.86189 0.95025 0.0
H570 H 0.66091 0.97213 0.93172 0.0
H571 H 0.60223 0.89629 0.98266 0.0
H572 H 0.52935 0.95645 1.00097 0.0
H573 H 0.56147 0.92544 0.96808 0.0
H574 H 0.65302 0.99392 0.99231 0.0
H575 H 0.62071 0.02544 0.02547 0.0
C576 C 0.67102 0.92834 0.9174 0.0
C577 C 0.66261 0.89693 0.92189 0.0
C578 C 0.65449 0.94816 0.93615 0.0
C579 C 0.62908 0.93684 0.95947 0.0
C580 C 0.6213 0.90559 0.96445 0.0
C581 C 0.63789 0.8859 0.94597 0.0
C582 C 0.5563 0.96512 0.99929 0.0
C583 C 0.57246 0.9934 0.01613 0.0
C584 C 0.57473 0.9472 0.98053 0.0
C585 C 0.60979 0.95708 0.97795 0.0
C586 C 0.62599 0.98578 0.99383 0.0
C587 C 0.6075 1.00374 1.01288 0.0
H588 H 0.78367 0.1 0.57627 0.0
H589 H 0.75403 1.0042 0.54061 0.0
H590 H 0.84219 0.09729 0.57635 0.0
H591 H 0.81259 1.00151 0.54102 0.0
H592 H 0.92543 1.01401 0.52111 0.0
H593 H 0.8687 0.02063 0.51339 0.0
H594 H 0.87438 0.07224 0.61127 0.0
H595 H 0.93066 0.06576 0.61879 0.0
C596 C 0.78963 0.07839 0.56836 0.0
C597 C 0.76418 0.05225 0.55873 0.0
C598 C 0.82314 0.07684 0.56845 0.0
C599 C 0.83195 0.04918 0.55876 0.0
C600 C 0.80661 0.02322 0.54827 0.0
C601 C 0.77305 0.02472 0.54834 0.0
C602 C 0.91457 0.02703 0.5407 0.0
C603 C 0.9322 0.03924 0.57061 0.0
C604 C 0.88213 0.03068 0.5364 0.0
C605 C 0.8671 0.04691 0.56177 0.0
C606 C 0.88537 0.05992 0.59112 0.0
C607 C 0.91752 0.05604 0.59552 0.0
H608 H 0.27122 0.64341 0.13544 0.0
H609 H 0.20628 0.69102 0.19375 0.0
H610 H 0.22209 0.60954 0.10676 0.0
H611 H 0.15762 0.65715 0.16575 0.0
H612 H 0.0839 0.62117 0.08104 0.0
H613 H 0.13411 0.65063 0.10986 0.0
H614 H 0.16947 0.5688 0.11322 0.0
H615 H 0.11872 0.53887 0.08352 0.0
C616 C 0.24652 0.64647 0.14243 0.0
C617 C 0.24283 0.67022 0.16671 0.0
C618 C 0.21832 0.62696 0.12607 0.0
C619 C 0.18583 0.63082 0.13355 0.0
C620 C 0.18223 0.65387 0.15873 0.0
C621 C 0.21025 0.67326 0.17499 0.0
C622 C 0.10223 0.60922 0.08778 0.0
C623 C 0.09696 0.57746 0.08 0.0
C624 C 0.13109 0.62622 0.10461 0.0
C625 C 0.15577 0.61213 0.11439 0.0
C626 C 0.15103 0.58044 0.10601 0.0
C627 C 0.12189 0.56326 0.08907 0.0
H628 H 0.25386 0.4717 0.63919 0.0
H629 H 0.31962 0.45074 0.71145 0.0
H630 H 0.30254 0.49677 0.6067 0.0
H631 H 0.36822 0.47529 0.67868 0.0
H632 H 0.45027 0.54323 0.62741 0.0
H633 H 0.40043 0.52401 0.66161 0.0
H634 H 0.34599 0.48265 0.5707 0.0
H635 H 0.39568 0.50237 0.53659 0.0
C636 C 0.27869 0.47254 0.64825 0.0
C637 C 0.28278 0.45912 0.67793 0.0
C638 C 0.30663 0.48676 0.62948 0.0
C639 C 0.33939 0.48799 0.63993 0.0
C640 C 0.34344 0.47513 0.67004 0.0
C641 C 0.31551 0.46088 0.68877 0.0
C642 C 0.42754 0.53025 0.61476 0.0
C643 C 0.42691 0.52417 0.57934 0.0
C644 C 0.39903 0.51905 0.63436 0.0
C645 C 0.36917 0.50158 0.61899 0.0
C646 C 0.36838 0.49627 0.58342 0.0
C647 C 0.39692 0.50742 0.56384 0.0
H648 H 0.74249 0.65012 0.85229 0.0
H649 H 0.72938 0.7146 0.93591 0.0
H650 H 0.77981 0.63131 0.88651 0.0
H651 H 0.76601 0.6951 0.97062 0.0
H652 H 0.87164 0.68551 0.99778 0.0
H653 H 0.82507 0.69892 0.97176 0.0
H654 H 0.78644 0.60445 0.93414 0.0
H655 H 0.83409 0.59131 0.95879 0.0
C656 C 0.74706 0.65989 0.87822 0.0
C657 C 0.73327 0.68409 0.89125 0.0
C658 C 0.76831 0.64893 0.89797 0.0
C659 C 0.77612 0.66181 0.9313 0.0
C660 C 0.76099 0.68503 0.94486 0.0
C661 C 0.73986 0.6961 0.92502 0.0
C662 C 0.85314 0.66757 0.98407 0.0
C663 C 0.85687 0.63743 0.97995 0.0
C664 C 0.82615 0.67519 0.96949 0.0
C665 C 0.8021 0.65281 0.95059 0.0
C666 C 0.80481 0.62233 0.94807 0.0
C667 C 0.83192 0.61473 0.96257 0.0
H668 H 0.42632 0.84822 0.24553 0.0
H669 H 0.41565 0.80446 0.14364 0.0
H670 H 0.44921 0.898 0.22275 0.0
H671 H 0.4395 0.85378 0.12122 0.0
H672 H 0.52916 0.94386 0.11041 0.0
H673 H 0.50305 0.8949 0.13265 0.0
H674 H 0.42241 0.93214 0.17532 0.0
H675 H 0.44805 0.9812 0.15173 0.0
C676 C 0.42921 0.84913 0.21837 0.0
C677 C 0.41924 0.82224 0.19646 0.0
C678 C 0.44199 0.87766 0.20533 0.0
C679 C 0.4459 0.87982 0.17016 0.0
C680 C 0.43664 0.85289 0.14839 0.0
C681 C 0.42307 0.82461 0.1613 0.0
C682 C 0.50558 0.94152 0.12411 0.0
C683 C 0.49054 0.96634 0.12905 0.0
C684 C 0.49072 0.91349 0.13694 0.0
C685 C 0.46085 0.90972 0.15598 0.0
C686 C 0.44557 0.93447 0.16091 0.0
C687 C 0.46003 0.9624 0.14716 0.0
H688 H 0.09062 0.23969 0.74589 0.0
H689 H 0.13143 0.27992 0.65438 0.0
H690 H 0.07629 0.18945 0.71476 0.0
H691 H 0.11761 0.22932 0.62324 0.0
H692 H 0.04946 0.14019 0.57293 0.0
H693 H 0.06847 0.19064 0.60301 0.0
H694 H 0.10015 0.14999 0.68662 0.0
H695 H 0.08054 0.09938 0.65678 0.0
C696 C 0.09682 0.23781 0.71915 0.0
C697 C 0.1121 0.26393 0.70265 0.0
C698 C 0.08878 0.20889 0.70132 0.0
C699 C 0.09579 0.20524 0.66645 0.0
C700 C 0.11149 0.23132 0.64999 0.0
C701 C 0.11959 0.26032 0.66788 0.0
C702 C 0.06063 0.14196 0.59766 0.0
C703 C 0.06329 0.11563 0.61249 0.0
C704 C 0.07175 0.17098 0.61484 0.0
C705 C 0.08578 0.17446 0.64733 0.0
C706 C 0.08903 0.14816 0.66186 0.0
C707 C 0.07793 0.11911 0.64466 0.0
H708 H 0.6062 0.25801 0.57761 0.0
H709 H 0.63331 0.24954 0.47158 0.0
H710 H 0.59228 0.30627 0.57029 0.0
H711 H 0.62 0.29811 0.46446 0.0
H712 H 0.55447 0.36587 0.45673 0.0
H713 H 0.57065 0.31866 0.4641 0.0
H714 H 0.61782 0.35892 0.55903 0.0
H715 H 0.60158 0.4062 0.55166 0.0
C716 C 0.60942 0.26654 0.55279 0.0
C717 C 0.62074 0.24985 0.52515 0.0
C718 C 0.60162 0.2943 0.54865 0.0
C719 C 0.60494 0.30601 0.51677 0.0
C720 C 0.61669 0.28951 0.48924 0.0
C721 C 0.62451 0.26175 0.49337 0.0
C722 C 0.56859 0.36477 0.47901 0.0
C723 C 0.57673 0.38981 0.5036 0.0
C724 C 0.57789 0.33771 0.48322 0.0
C725 C 0.59557 0.33502 0.51213 0.0
C726 C 0.60381 0.36009 0.5367 0.0
C727 C 0.59449 0.38717 0.53248 0.0
loop_
_geom_bond_atom_site_label_1
_geom_bond_atom_site_label_2
_geom_bond_distance
_geom_bond_site_symmetry_2
_ccdc_geom_bond_type
O0 Cd1 2.300 . S
O0 C7 1.275 . S
Cd1 O0 2.300 . S
Cd1 O9 2.381 . S
Cd1 O10 2.378 . S
O2 Cd3 2.385 . S
O2 C7 1.255 . S
Cd3 O2 2.385 . S
Cd3 O4 2.317 . S
O4 Cd3 2.317 . S
O4 C5 1.232 . S
C5 O4 1.232 . S
C5 O6 1.218 . S
O6 C5 1.218 . S
C7 O0 1.275 . S
C7 O2 1.255 . S
C8 O9 1.258 . S
C8 O10 1.256 . S
O9 Cd1 2.381 . S
O9 C8 1.258 . S
O10 Cd1 2.378 . S
O10 C8 1.256 . S
O11 Cd12 2.300 . S
O11 C18 1.275 . S
Cd12 O11 2.300 . S
Cd12 O20 2.381 . S
Cd12 O21 2.378 . S
O13 Cd14 2.385 . S
O13 C18 1.255 . S
Cd14 O13 2.385 . S
Cd14 O15 2.317 . S
O15 Cd14 2.317 . S
O15 C16 1.232 . S
C16 O15 1.232 . S
C16 O17 1.218 . S
O17 C16 1.218 . S
C18 O11 1.275 . S
C18 O13 1.255 . S
C19 O20 1.258 . S
C19 O21 1.256 . S
O20 Cd12 2.381 . S
O20 C19 1.258 . S
O21 Cd12 2.378 . S
O21 C19 1.256 . S
O22 Cd23 2.300 . S
O22 C29 1.275 . S
Cd23 O22 2.300 . S
Cd23 O31 2.381 . S
Cd23 O32 2.378 . S
O24 Cd25 2.385 . S
O24 C29 1.255 . S
Cd25 O24 2.385 . S
Cd25 O26 2.317 . S
O26 Cd25 2.317 . S
O26 C27 1.232 . S
C27 O26 1.232 . S
C27 O28 1.218 . S
O28 C27 1.218 . S
C29 O22 1.275 . S
C29 O24 1.255 . S
C30 O31 1.258 . S
C30 O32 1.256 . S
O31 Cd23 2.381 . S
O31 C30 1.258 . S
O32 Cd23 2.378 . S
O32 C30 1.256 . S
O33 Cd34 2.300 . S
O33 C40 1.275 . S
Cd34 O33 2.300 . S
Cd34 O42 2.381 . S
Cd34 O43 2.378 . S
O35 Cd36 2.385 . S
O35 C40 1.255 . S
Cd36 O35 2.385 . S
Cd36 O37 2.317 . S
O37 Cd36 2.317 . S
O37 C38 1.232 . S
C38 O37 1.232 . S
C38 O39 1.218 . S
O39 C38 1.218 . S
C40 O33 1.275 . S
C40 O35 1.255 . S
C41 O42 1.258 . S
C41 O43 1.256 . S
O42 Cd34 2.381 . S
O42 C41 1.258 . S
O43 Cd34 2.378 . S
O43 C41 1.256 . S
O44 Cd45 2.300 . S
O44 C51 1.275 . S
Cd45 O44 2.300 . S
Cd45 O53 2.381 . S
Cd45 O54 2.378 . S
O46 Cd47 2.385 . S
O46 C51 1.255 . S
Cd47 O46 2.385 . S
Cd47 O48 2.317 . S
O48 Cd47 2.317 . S
O48 C49 1.232 . S
C49 O48 1.232 . S
C49 O50 1.218 . S
O50 C49 1.218 . S
C51 O44 1.275 . S
C51 O46 1.255 . S
C52 O53 1.258 . S
C52 O54 1.256 . S
O53 Cd45 2.381 . S
O53 C52 1.258 . S
O54 Cd45 2.378 . S
O54 C52 1.256 . S
O55 Cd56 2.300 . S
O55 C62 1.275 . S
Cd56 O55 2.300 . S
Cd56 O64 2.381 . S
Cd56 O65 2.378 . S
O57 Cd58 2.385 . S
O57 C62 1.255 . S
Cd58 O57 2.385 . S
Cd58 O59 2.317 . S
O59 Cd58 2.317 . S
O59 C60 1.232 . S
C60 O59 1.232 . S
C60 O61 1.218 . S
O61 C60 1.218 . S
C62 O55 1.275 . S
C62 O57 1.255 . S
C63 O64 1.258 . S
C63 O65 1.256 . S
O64 Cd56 2.381 . S
O64 C63 1.258 . S
O65 Cd56 2.378 . S
O65 C63 1.256 . S
O66 Cd67 2.300 . S
O66 C73 1.275 . S
Cd67 O66 2.300 . S
Cd67 O75 2.381 . S
Cd67 O76 2.378 . S
O68 Cd69 2.385 . S
O68 C73 1.255 . S
Cd69 O68 2.385 . S
Cd69 O70 2.317 . S
O70 Cd69 2.317 . S
O70 C71 1.232 . S
C71 O70 1.232 . S
C71 O72 1.218 . S
O72 C71 1.218 . S
C73 O66 1.275 . S
C73 O68 1.255 . S
C74 O75 1.258 . S
C74 O76 1.256 . S
O75 Cd67 2.381 . S
O75 C74 1.258 . S
O76 Cd67 2.378 . S
O76 C74 1.256 . S
O77 Cd78 2.300 . S
O77 C84 1.275 . S
Cd78 O77 2.300 . S
Cd78 O86 2.381 . S
Cd78 O87 2.378 . S
O79 Cd80 2.385 . S
O79 C84 1.255 . S
Cd80 O79 2.385 . S
Cd80 O81 2.317 . S
O81 Cd80 2.317 . S
O81 C82 1.232 . S
C82 O81 1.232 . S
C82 O83 1.218 . S
O83 C82 1.218 . S
C84 O77 1.275 . S
C84 O79 1.255 . S
C85 O86 1.258 . S
C85 O87 1.256 . S
O86 Cd78 2.381 . S
O86 C85 1.258 . S
O87 Cd78 2.378 . S
O87 C85 1.256 . S
Ho88 C91 2.811 . S
Ho88 O108 2.322 . S
Ho88 O110 2.378 . S
Ho88 O111 2.524 . S
Ho88 O112 2.370 1_545 S
Ho88 O113 2.669 1_545 S
Ho88 O115 2.346 1_445 S
Ho88 O119 2.305 1_455 S
Ho89 C100 2.811 1_545 S
Ho89 O109 2.346 1_655 S
Ho89 O113 2.305 1_645 S
Ho89 O114 2.322 1_545 S
Ho89 O116 2.378 1_545 S
Ho89 O117 2.524 1_545 S
Ho89 O118 2.381 . S
Ho89 O119 2.669 . S
C90 O108 1.259 . S
C90 O109 1.268 . S
C91 Ho88 2.811 . S
C91 C92 1.488 . S
C91 O110 1.215 . S
C91 O111 1.289 . S
C92 C91 1.488 . S
C92 C93 1.348 . S
C92 C97 1.413 . S
C93 C92 1.348 . S
C93 C94 1.442 . S
C93 H120 0.930 . S
C94 C93 1.442 . S
C94 C95 1.381 . S
C94 H121 0.931 . S
C95 C94 1.381 . S
C95 C96 1.321 . S
C96 C95 1.321 . S
C96 C97 1.403 . S
C96 H122 0.934 . S
C97 C92 1.413 . S
C97 C96 1.403 . S
C97 H123 0.930 . S
C98 O112 1.279 . S
C98 O113 1.256 . S
C99 O114 1.259 . S
C99 O115 1.268 . S
C100 Ho89 2.811 1_565 S
C100 C101 1.488 . S
C100 O116 1.215 . S
C100 O117 1.289 . S
C101 C100 1.488 . S
C101 C102 1.348 . S
C101 C106 1.413 . S
C102 C101 1.348 . S
C102 C103 1.442 . S
C102 H124 0.930 . S
C103 C102 1.442 . S
C103 C104 1.381 . S
C103 H125 0.931 . S
C104 C103 1.381 . S
C104 C105 1.321 . S
C105 C104 1.321 . S
C105 C106 1.403 . S
C105 H126 0.934 . S
C106 C101 1.413 . S
C106 C105 1.403 . S
C106 H127 0.930 . S
C107 O118 1.275 . S
C107 O119 1.256 . S
O108 Ho88 2.322 . S
O108 C90 1.259 . S
O109 Ho89 2.346 1_455 S
O109 C90 1.268 . S
O110 Ho88 2.378 . S
O110 C91 1.215 . S
O111 Ho88 2.524 . S
O111 C91 1.289 . S
O112 Ho88 2.370 1_565 S
O112 C98 1.279 . S
O113 Ho88 2.669 1_565 S
O113 Ho89 2.305 1_465 S
O113 C98 1.256 . S
O114 Ho89 2.322 1_565 S
O114 C99 1.259 . S
O115 Ho88 2.346 1_665 S
O115 C99 1.268 . S
O116 Ho89 2.378 1_565 S
O116 C100 1.215 . S
O117 Ho89 2.524 1_565 S
O117 C100 1.289 . S
O118 Ho89 2.381 . S
O118 C107 1.275 . S
O119 Ho88 2.305 1_655 S
O119 Ho89 2.669 . S
O119 C107 1.256 . S
H120 C93 0.930 . S
H121 C94 0.931 . S
H122 C96 0.934 . S
H123 C97 0.930 . S
H124 C102 0.930 . S
H125 C103 0.931 . S
H126 C105 0.934 . S
H127 C106 0.930 . S
Ho128 C131 2.811 . S
Ho128 O148 2.322 . S
Ho128 O150 2.378 . S
Ho128 O151 2.524 . S
Ho128 O152 2.381 1_545 S
Ho128 O153 2.669 . S
Ho128 O155 2.346 . S
Ho128 O159 2.305 . S
Ho129 C140 2.811 1_544 S
Ho129 O149 2.346 . S
Ho129 O153 2.305 . S
Ho129 O154 2.322 . S
Ho129 O156 2.378 1_554 S
Ho129 O157 2.524 1_544 S
Ho129 O158 2.381 . S
Ho129 O159 2.669 . S
C130 O148 1.259 . S
C130 O149 1.268 . S
C131 Ho128 2.811 . S
C131 C132 1.488 . S
C131 O150 1.215 . S
C131 O151 1.289 . S
C132 C131 1.488 . S
C132 C133 1.348 . S
C132 C137 1.413 . S
C133 C132 1.348 . S
C133 C134 1.442 . S
C133 H160 0.930 . S
C134 C133 1.442 . S
C134 C135 1.381 . S
C134 H161 0.931 . S
C135 C134 1.381 . S
C135 C136 1.321 . S
C136 C135 1.321 . S
C136 C137 1.403 . S
C136 H162 0.934 . S
C137 C132 1.413 . S
C137 C136 1.403 . S
C137 H163 0.930 . S
C138 O152 1.275 . S
C138 O153 1.256 1_565 S
C139 O154 1.231 1_565 S
C139 O155 1.268 1_565 S
C140 Ho129 2.811 1_566 S
C140 C141 1.488 . S
C140 O156 1.215 1_565 S
C140 O157 1.289 . S
C141 C140 1.488 . S
C141 C142 1.348 . S
C141 C146 1.413 . S
C142 C141 1.348 . S
C142 C143 1.442 . S
C142 H164 0.930 . S
C143 C142 1.442 . S
C143 C144 1.381 . S
C143 H165 0.931 . S
C144 C143 1.381 . S
C144 C145 1.321 . S
C145 C144 1.321 . S
C145 C146 1.403 . S
C145 H166 0.934 . S
C146 C141 1.413 . S
C146 C145 1.403 . S
C146 H167 0.930 1_565 S
C147 O158 1.275 . S
C147 O159 1.256 . S
O148 Ho128 2.322 . S
O148 C130 1.259 . S
O149 Ho129 2.346 . S
O149 C130 1.268 . S
O150 Ho128 2.378 . S
O150 C131 1.215 . S
O151 Ho128 2.524 . S
O151 C131 1.289 . S
O152 Ho128 2.381 1_565 S
O152 C138 1.275 . S
O153 Ho128 2.669 . S
O153 Ho129 2.305 . S
O153 C138 1.256 1_545 S
O154 Ho129 2.322 . S
O154 C139 1.231 1_545 S
O155 Ho128 2.346 . S
O155 C139 1.268 1_545 S
O156 Ho129 2.378 1_556 S
O156 C140 1.215 1_545 S
O157 Ho129 2.524 1_566 S
O157 C140 1.289 . S
O158 Ho129 2.381 . S
O158 C147 1.275 . S
O159 Ho128 2.305 . S
O159 Ho129 2.669 . S
O159 C147 1.256 . S
H160 C133 0.930 . S
H161 C134 0.931 . S
H162 C136 0.934 . S
H163 C137 0.930 . S
H164 C142 0.930 . S
H165 C143 0.931 . S
H166 C145 0.934 . S
H167 C146 0.930 1_545 S
Ho168 C171 2.811 . S
Ho168 O188 2.322 . S
Ho168 O190 2.378 . S
Ho168 O191 2.524 . S
Ho168 O192 2.381 . S
Ho168 O193 2.669 . S
Ho168 O195 2.346 . S
Ho168 O199 2.305 . S
Ho169 C180 2.811 . S
Ho169 O189 2.346 . S
Ho169 O193 2.305 . S
Ho169 O194 2.322 . S
Ho169 O196 2.378 . S
Ho169 O197 2.524 . S
Ho169 O198 2.381 . S
Ho169 O199 2.669 . S
C170 O188 1.259 . S
C170 O189 1.268 . S
C171 Ho168 2.811 . S
C171 C172 1.488 . S
C171 O190 1.215 . S
C171 O191 1.289 . S
C172 C171 1.488 . S
C172 C173 1.348 . S
C172 C177 1.413 . S
C173 C172 1.348 . S
C173 C174 1.442 . S
C173 H200 0.930 . S
C174 C173 1.442 . S
C174 C175 1.381 . S
C174 H201 0.931 . S
C175 C174 1.381 . S
C175 C176 1.321 . S
C176 C175 1.321 . S
C176 C177 1.403 . S
C176 H202 0.934 . S
C177 C172 1.413 . S
C177 C176 1.403 . S
C177 H203 0.930 . S
C178 O192 1.275 . S
C178 O193 1.256 . S
C179 O194 1.259 . S
C179 O195 1.268 . S
C180 Ho169 2.811 . S
C180 C181 1.488 . S
C180 O196 1.215 . S
C180 O197 1.289 . S
C181 C180 1.488 . S
C181 C182 1.348 . S
C181 C186 1.413 . S
C182 C181 1.348 . S
C182 C183 1.442 . S
C182 H204 0.930 . S
C183 C182 1.442 . S
C183 C184 1.381 . S
C183 H205 0.931 . S
C184 C183 1.381 . S
C184 C185 1.321 . S
C185 C184 1.321 . S
C185 C186 1.403 . S
C185 H206 0.934 . S
C186 C181 1.413 . S
C186 C185 1.403 . S
C186 H207 0.930 . S
C187 O198 1.275 . S
C187 O199 1.256 . S
O188 Ho168 2.322 . S
O188 C170 1.259 . S
O189 Ho169 2.346 . S
O189 C170 1.268 . S
O190 Ho168 2.378 . S
O190 C171 1.215 . S
O191 Ho168 2.524 . S
O191 C171 1.289 . S
O192 Ho168 2.381 . S
O192 C178 1.275 . S
O193 Ho168 2.669 . S
O193 Ho169 2.305 . S
O193 C178 1.256 . S
O194 Ho169 2.322 . S
O194 C179 1.259 . S
O195 Ho168 2.346 . S
O195 C179 1.268 . S
O196 Ho169 2.378 . S
O196 C180 1.215 . S
O197 Ho169 2.524 . S
O197 C180 1.289 . S
O198 Ho169 2.381 . S
O198 C187 1.275 . S
O199 Ho168 2.305 . S
O199 Ho169 2.669 . S
O199 C187 1.256 . S
H200 C173 0.930 . S
H201 C174 0.931 . S
H202 C176 0.934 . S
H203 C177 0.930 . S
H204 C182 0.930 . S
H205 C183 0.931 . S
H206 C185 0.934 . S
H207 C186 0.930 . S
Ho208 C211 2.811 . S
Ho208 O228 2.322 . S
Ho208 O230 2.378 . S
Ho208 O231 2.524 . S
Ho208 O232 2.381 1_455 S
Ho208 O233 2.669 1_455 S
Ho208 O235 2.346 1_455 S
Ho208 O239 2.305 1_554 S
Ho209 C220 2.811 1_455 S
Ho209 O229 2.346 1_556 S
Ho209 O233 2.305 1_456 S
Ho209 O234 2.322 1_455 S
Ho209 O236 2.378 1_455 S
Ho209 O237 2.524 1_455 S
Ho209 O238 2.381 . S
Ho209 O239 2.669 . S
C210 O228 1.259 . S
C210 O229 1.268 . S
C211 Ho208 2.811 . S
C211 C212 1.488 . S
C211 O230 1.215 . S
C211 O231 1.289 . S
C212 C211 1.488 . S
C212 C213 1.348 . S
C212 C217 1.413 . S
C213 C212 1.348 . S
C213 C214 1.442 . S
C213 H240 0.930 . S
C214 C213 1.442 . S
C214 C215 1.381 . S
C214 H241 0.931 . S
C215 C214 1.381 . S
C215 C216 1.321 . S
C216 C215 1.321 . S
C216 C217 1.403 . S
C216 H242 0.934 . S
C217 C212 1.413 . S
C217 C216 1.403 . S
C217 H243 0.930 . S
C218 O232 1.275 . S
C218 O233 1.256 . S
C219 O234 1.259 . S
C219 O235 1.268 1_556 S
C220 Ho209 2.811 1_655 S
C220 C221 1.488 . S
C220 O236 1.215 . S
C220 O237 1.289 . S
C221 C220 1.488 . S
C221 C222 1.348 . S
C221 C226 1.413 . S
C222 C221 1.348 . S
C222 C223 1.442 . S
C222 H244 0.930 . S
C223 C222 1.442 . S
C223 C224 1.381 . S
C223 H245 0.931 . S
C224 C223 1.381 . S
C224 C225 1.321 . S
C225 C224 1.321 . S
C225 C226 1.403 . S
C225 H246 0.934 . S
C226 C221 1.413 . S
C226 C225 1.403 . S
C226 H247 0.930 . S
C227 O238 1.275 . S
C227 O239 1.256 . S
O228 Ho208 2.322 . S
O228 C210 1.259 . S
O229 Ho209 2.346 1_554 S
O229 C210 1.268 . S
O230 Ho208 2.378 . S
O230 C211 1.215 . S
O231 Ho208 2.524 . S
O231 C211 1.289 . S
O232 Ho208 2.381 1_655 S
O232 C218 1.275 . S
O233 Ho208 2.669 1_655 S
O233 Ho209 2.305 1_654 S
O233 C218 1.256 . S
O234 Ho209 2.322 1_655 S
O234 C219 1.259 . S
O235 Ho208 2.346 1_655 S
O235 C219 1.268 1_554 S
O236 Ho209 2.378 1_655 S
O236 C220 1.215 . S
O237 Ho209 2.524 1_655 S
O237 C220 1.289 . S
O238 Ho209 2.381 . S
O238 C227 1.275 . S
O239 Ho208 2.305 1_556 S
O239 Ho209 2.669 . S
O239 C227 1.256 . S
H240 C213 0.930 . S
H241 C214 0.931 . S
H242 C216 0.934 . S
H243 C217 0.930 . S
H244 C222 0.930 . S
H245 C223 0.931 . S
H246 C225 0.934 . S
H247 C226 0.930 . S
H248 C256 0.950 . S
H249 C261 0.950 . S
H250 C258 0.950 . S
H251 C260 0.950 . S
H252 C262 0.950 . S
H253 C264 0.950 . S
H254 C266 0.950 . S
H255 C267 0.950 . S
C256 H248 0.950 . S
C256 C257 1.386 . S
C256 C258 1.391 . S
C257 C256 1.386 . S
C257 C261 1.393 . S
C258 H250 0.950 . S
C258 C256 1.391 . S
C258 C259 1.400 . S
C259 C258 1.400 . S
C259 C260 1.398 . S
C259 C265 1.491 . S
C260 H251 0.950 . S
C260 C259 1.398 . S
C260 C261 1.391 . S
C261 H249 0.950 . S
C261 C257 1.393 . S
C261 C260 1.391 . S
C262 H252 0.950 . S
C262 C263 1.386 . S
C262 C264 1.391 . S
C263 C262 1.386 . S
C263 C267 1.393 . S
C264 H253 0.950 . S
C264 C262 1.391 . S
C264 C265 1.400 . S
C265 C259 1.491 . S
C265 C264 1.400 . S
C265 C266 1.398 . S
C266 H254 0.950 . S
C266 C265 1.398 . S
C266 C267 1.391 . S
C267 H255 0.950 . S
C267 C263 1.393 . S
C267 C266 1.391 . S
H268 C276 0.950 . S
H269 C281 0.950 . S
H270 C278 0.950 . S
H271 C280 0.950 . S
H272 C282 0.950 . S
H273 C284 0.950 . S
H274 C286 0.950 . S
H275 C287 0.950 . S
C276 H268 0.950 . S
C276 C277 1.386 . S
C276 C278 1.391 . S
C277 C276 1.386 . S
C277 C281 1.393 . S
C278 H270 0.950 . S
C278 C276 1.391 . S
C278 C279 1.400 . S
C279 C278 1.400 . S
C279 C280 1.398 . S
C279 C285 1.491 . S
C280 H271 0.950 . S
C280 C279 1.398 . S
C280 C281 1.391 . S
C281 H269 0.950 . S
C281 C277 1.393 . S
C281 C280 1.391 . S
C282 H272 0.950 . S
C282 C283 1.386 . S
C282 C284 1.391 . S
C283 C282 1.386 . S
C283 C287 1.393 . S
C284 H273 0.950 . S
C284 C282 1.391 . S
C284 C285 1.400 . S
C285 C279 1.491 . S
C285 C284 1.400 . S
C285 C286 1.398 . S
C286 H274 0.950 . S
C286 C285 1.398 . S
C286 C287 1.391 . S
C287 H275 0.950 . S
C287 C283 1.393 . S
C287 C286 1.391 . S
H288 C296 0.950 . S
H289 C301 0.950 . S
H290 C298 0.950 . S
H291 C300 0.950 . S
H292 C302 0.950 . S
H293 C304 0.950 . S
H294 C306 0.950 . S
H295 C307 0.950 . S
C296 H288 0.950 . S
C296 C297 1.386 . S
C296 C298 1.391 . S
C297 C296 1.386 . S
C297 C301 1.393 . S
C298 H290 0.950 . S
C298 C296 1.391 . S
C298 C299 1.400 . S
C299 C298 1.400 . S
C299 C300 1.398 . S
C299 C305 1.491 . S
C300 H291 0.950 . S
C300 C299 1.398 . S
C300 C301 1.391 . S
C301 H289 0.950 . S
C301 C297 1.393 . S
C301 C300 1.391 . S
C302 H292 0.950 . S
C302 C303 1.386 . S
C302 C304 1.391 . S
C303 C302 1.386 . S
C303 C307 1.393 . S
C304 H293 0.950 . S
C304 C302 1.391 . S
C304 C305 1.400 . S
C305 C299 1.491 . S
C305 C304 1.400 . S
C305 C306 1.398 . S
C306 H294 0.950 . S
C306 C305 1.398 . S
C306 C307 1.391 . S
C307 H295 0.950 . S
C307 C303 1.393 . S
C307 C306 1.391 . S
H308 C316 0.950 . S
H309 C321 0.950 . S
H310 C318 0.950 . S
H311 C320 0.950 . S
H312 C322 0.950 1_455 S
H313 C324 0.973 . S
H314 C326 0.950 . S
H315 C327 0.950 . S
C316 H308 0.950 . S
C316 C317 1.386 . S
C316 C318 1.391 . S
C317 C316 1.386 . S
C317 C321 1.393 . S
C318 H310 0.950 . S
C318 C316 1.391 . S
C318 C319 1.400 . S
C319 C318 1.400 . S
C319 C320 1.398 . S
C319 C325 1.491 . S
C320 H311 0.950 . S
C320 C319 1.398 . S
C320 C321 1.391 . S
C321 H309 0.950 . S
C321 C317 1.393 . S
C321 C320 1.391 . S
C322 H312 0.950 1_655 S
C322 C323 1.386 . S
C322 C324 1.391 . S
C323 C322 1.386 . S
C323 C327 1.393 . S
C324 H313 0.973 . S
C324 C322 1.391 . S
C324 C325 1.400 . S
C325 C319 1.491 . S
C325 C324 1.400 . S
C325 C326 1.398 . S
C326 H314 0.950 . S
C326 C325 1.398 . S
C326 C327 1.391 . S
C327 H315 0.950 . S
C327 C323 1.393 . S
C327 C326 1.391 . S
H328 C336 0.950 . S
H329 C341 0.950 . S
H330 C338 0.950 . S
H331 C340 0.950 . S
H332 C342 0.950 . S
H333 C344 0.950 . S
H334 C346 0.950 . S
H335 C347 0.950 . S
C336 H328 0.950 . S
C336 C337 1.386 . S
C336 C338 1.391 . S
C337 C336 1.386 . S
C337 C341 1.393 . S
C338 H330 0.950 . S
C338 C336 1.391 . S
C338 C339 1.400 . S
C339 C338 1.400 . S
C339 C340 1.398 . S
C339 C345 1.491 . S
C340 H331 0.950 . S
C340 C339 1.398 . S
C340 C341 1.391 . S
C341 H329 0.950 . S
C341 C337 1.393 . S
C341 C340 1.391 . S
C342 H332 0.950 . S
C342 C343 1.386 . S
C342 C344 1.391 . S
C343 C342 1.386 . S
C343 C347 1.393 . S
C344 H333 0.950 . S
C344 C342 1.391 . S
C344 C345 1.400 . S
C345 C339 1.491 . S
C345 C344 1.400 . S
C345 C346 1.398 . S
C346 H334 0.950 . S
C346 C345 1.398 . S
C346 C347 1.391 . S
C347 H335 0.950 . S
C347 C343 1.393 . S
C347 C346 1.391 . S
H348 C356 0.950 . S
H349 C361 0.950 . S
H350 C358 0.950 . S
H351 C360 0.950 . S
H352 C362 0.950 . S
H353 C364 0.950 . S
H354 C366 0.950 . S
H355 C367 0.930 1_545 S
C356 H348 0.950 . S
C356 C357 1.386 . S
C356 C358 1.391 . S
C357 C356 1.386 . S
C357 C361 1.393 . S
C358 H350 0.950 . S
C358 C356 1.391 . S
C358 C359 1.400 . S
C359 C358 1.400 . S
C359 C360 1.398 . S
C359 C365 1.491 . S
C360 H351 0.950 . S
C360 C359 1.398 . S
C360 C361 1.391 . S
C361 H349 0.950 . S
C361 C357 1.393 . S
C361 C360 1.391 . S
C362 H352 0.950 . S
C362 C363 1.386 . S
C362 C364 1.391 . S
C363 C362 1.386 . S
C363 C367 1.393 . S
C364 H353 0.950 . S
C364 C362 1.391 . S
C364 C365 1.400 . S
C365 C359 1.491 . S
C365 C364 1.400 . S
C365 C366 1.398 . S
C366 H354 0.950 . S
C366 C365 1.398 . S
C366 C367 1.391 . S
C367 H355 0.930 1_565 S
C367 C363 1.393 . S
C367 C366 1.391 . S
H368 C376 0.950 . S
H369 C381 0.950 . S
H370 C378 0.950 . S
H371 C380 0.950 . S
H372 C382 0.950 1_554 S
H373 C384 0.950 . S
H374 C386 0.950 . S
H375 C387 0.950 . S
C376 H368 0.950 . S
C376 C377 1.386 . S
C376 C378 1.391 . S
C377 C376 1.386 . S
C377 C381 1.393 . S
C378 H370 0.950 . S
C378 C376 1.391 . S
C378 C379 1.400 . S
C379 C378 1.400 . S
C379 C380 1.398 . S
C379 C385 1.491 . S
C380 H371 0.950 . S
C380 C379 1.398 . S
C380 C381 1.391 . S
C381 H369 0.950 . S
C381 C377 1.393 . S
C381 C380 1.391 . S
C382 H372 0.950 1_556 S
C382 C383 1.386 . S
C382 C384 1.391 . S
C383 C382 1.386 . S
C383 C387 1.393 . S
C384 H373 0.950 . S
C384 C382 1.391 . S
C384 C385 1.400 . S
C385 C379 1.491 . S
C385 C384 1.400 . S
C385 C386 1.398 . S
C386 H374 0.950 . S
C386 C385 1.398 . S
C386 C387 1.391 . S
C387 H375 0.950 . S
C387 C383 1.393 . S
C387 C386 1.391 . S
H388 C396 0.950 . S
H389 C401 0.950 . S
H390 C398 0.950 . S
H391 C400 0.950 . S
H392 C402 0.950 . S
H393 C404 0.950 . S
H394 C406 0.950 . S
H395 C407 0.950 . S
C396 H388 0.950 . S
C396 C397 1.386 . S
C396 C398 1.391 . S
C397 C396 1.386 . S
C397 C401 1.393 . S
C398 H390 0.950 . S
C398 C396 1.391 . S
C398 C399 1.400 . S
C399 C398 1.400 . S
C399 C400 1.398 . S
C399 C405 1.491 . S
C400 H391 0.950 . S
C400 C399 1.398 . S
C400 C401 1.391 . S
C401 H389 0.950 . S
C401 C397 1.393 . S
C401 C400 1.391 . S
C402 H392 0.950 . S
C402 C403 1.386 . S
C402 C404 1.391 . S
C403 C402 1.386 . S
C403 C407 1.393 . S
C404 H393 0.950 . S
C404 C402 1.391 . S
C404 C405 1.400 . S
C405 C399 1.491 . S
C405 C404 1.400 . S
C405 C406 1.398 . S
C406 H394 0.950 . S
C406 C405 1.398 . S
C406 C407 1.391 . S
C407 H395 0.950 . S
C407 C403 1.393 . S
C407 C406 1.391 . S
H408 C416 0.950 . S
H409 C421 0.950 . S
H410 C418 0.950 . S
H411 C420 0.950 . S
H412 C422 0.950 . S
H413 C424 0.950 . S
H414 C426 0.950 . S
H415 C427 0.950 . S
C416 H408 0.950 . S
C416 C417 1.386 . S
C416 C418 1.391 . S
C417 C416 1.386 . S
C417 C421 1.393 . S
C418 H410 0.950 . S
C418 C416 1.391 . S
C418 C419 1.400 . S
C419 C418 1.400 . S
C419 C420 1.398 . S
C419 C425 1.491 . S
C420 H411 0.950 . S
C420 C419 1.398 . S
C420 C421 1.391 . S
C421 H409 0.950 . S
C421 C417 1.393 . S
C421 C420 1.391 . S
C422 H412 0.950 . S
C422 C423 1.386 . S
C422 C424 1.391 . S
C423 C422 1.386 . S
C423 C427 1.393 . S
C424 H413 0.950 . S
C424 C422 1.391 . S
C424 C425 1.400 . S
C425 C419 1.491 . S
C425 C424 1.400 . S
C425 C426 1.398 . S
C426 H414 0.950 . S
C426 C425 1.398 . S
C426 C427 1.391 . S
C427 H415 0.950 . S
C427 C423 1.393 . S
C427 C426 1.391 . S
H428 C436 0.950 . S
H429 C441 0.950 . S
H430 C438 0.950 . S
H431 C440 0.950 . S
H432 C442 0.950 . S
H433 C444 0.951 . S
H434 C446 0.950 . S
H435 C447 0.950 . S
C436 H428 0.950 . S
C436 C437 1.386 . S
C436 C438 1.391 . S
C437 C436 1.386 . S
C437 C441 1.393 . S
C438 H430 0.950 . S
C438 C436 1.391 . S
C438 C439 1.400 . S
C439 C438 1.400 . S
C439 C440 1.398 . S
C439 C445 1.491 . S
C440 H431 0.950 . S
C440 C439 1.398 . S
C440 C441 1.391 . S
C441 H429 0.950 . S
C441 C437 1.393 . S
C441 C440 1.391 . S
C442 H432 0.950 . S
C442 C443 1.386 . S
C442 C444 1.393 . S
C443 C442 1.386 . S
C443 C447 1.393 1_554 S
C444 H433 0.951 . S
C444 C442 1.393 . S
C444 C445 1.397 1_554 S
C445 C439 1.491 . S
C445 C444 1.397 1_556 S
C445 C446 1.398 . S
C446 H434 0.950 . S
C446 C445 1.398 . S
C446 C447 1.391 . S
C447 H435 0.950 . S
C447 C443 1.393 1_556 S
C447 C446 1.391 . S
H448 C456 0.950 . S
H449 C461 0.950 . S
H450 C458 0.950 . S
H451 C460 0.950 . S
H452 C462 0.950 . S
H453 C464 0.950 . S
H454 C466 0.950 . S
H455 C467 0.950 . S
C456 H448 0.950 . S
C456 C457 1.386 . S
C456 C458 1.391 . S
C457 C456 1.386 . S
C457 C461 1.393 . S
C458 H450 0.950 . S
C458 C456 1.391 . S
C458 C459 1.400 . S
C459 C458 1.400 . S
C459 C460 1.398 . S
C459 C465 1.491 . S
C460 H451 0.950 . S
C460 C459 1.398 . S
C460 C461 1.391 . S
C461 H449 0.950 . S
C461 C457 1.393 . S
C461 C460 1.391 . S
C462 H452 0.950 . S
C462 C463 1.386 . S
C462 C464 1.391 . S
C463 C462 1.386 . S
C463 C467 1.393 . S
C464 H453 0.950 . S
C464 C462 1.391 . S
C464 C465 1.400 . S
C465 C459 1.491 . S
C465 C464 1.400 . S
C465 C466 1.398 . S
C466 H454 0.950 . S
C466 C465 1.398 . S
C466 C467 1.391 . S
C467 H455 0.950 . S
C467 C463 1.393 . S
C467 C466 1.391 . S
H468 C476 0.950 . S
H469 C481 0.950 . S
H470 C478 0.950 . S
H471 C480 0.950 . S
H472 C482 0.950 . S
H473 C484 0.950 . S
H474 C486 0.950 . S
H475 C487 0.950 . S
C476 H468 0.950 . S
C476 C477 1.386 . S
C476 C478 1.391 . S
C477 C476 1.386 . S
C477 C481 1.393 . S
C478 H470 0.950 . S
C478 C476 1.391 . S
C478 C479 1.400 . S
C479 C478 1.400 . S
C479 C480 1.398 . S
C479 C485 1.491 . S
C480 H471 0.950 . S
C480 C479 1.398 . S
C480 C481 1.391 . S
C481 H469 0.950 . S
C481 C477 1.393 . S
C481 C480 1.391 . S
C482 H472 0.950 . S
C482 C483 1.386 . S
C482 C484 1.391 . S
C483 C482 1.386 . S
C483 C487 1.393 . S
C484 H473 0.950 . S
C484 C482 1.391 . S
C484 C485 1.400 . S
C485 C479 1.491 . S
C485 C484 1.400 . S
C485 C486 1.398 . S
C486 H474 0.950 . S
C486 C485 1.398 . S
C486 C487 1.391 . S
C487 H475 0.950 . S
C487 C483 1.393 . S
C487 C486 1.391 . S
H488 C496 0.950 . S
H489 C501 0.950 . S
H490 C498 0.950 . S
H491 C500 0.950 . S
H492 C502 0.950 . S
H493 C504 0.950 . S
H494 C506 0.950 . S
H495 C507 0.950 . S
C496 H488 0.950 . S
C496 C497 1.386 . S
C496 C498 1.391 . S
C497 C496 1.386 . S
C497 C501 1.393 . S
C498 H490 0.950 . S
C498 C496 1.391 . S
C498 C499 1.400 . S
C499 C498 1.400 . S
C499 C500 1.398 . S
C499 C505 1.491 . S
C500 H491 0.950 . S
C500 C499 1.398 . S
C500 C501 1.391 . S
C501 H489 0.950 . S
C501 C497 1.393 . S
C501 C500 1.391 . S
C502 H492 0.950 . S
C502 C503 1.386 . S
C502 C504 1.391 . S
C503 C502 1.386 . S
C503 C507 1.393 . S
C504 H493 0.950 . S
C504 C502 1.391 . S
C504 C505 1.400 . S
C505 C499 1.491 . S
C505 C504 1.400 . S
C505 C506 1.398 . S
C506 H494 0.950 . S
C506 C505 1.398 . S
C506 C507 1.391 . S
C507 H495 0.950 . S
C507 C503 1.393 . S
C507 C506 1.391 . S
H508 C516 0.950 . S
H509 C521 0.950 . S
H510 C518 0.950 . S
H511 C520 0.950 . S
H512 C522 0.950 . S
H513 C524 0.950 . S
H514 C526 0.950 . S
H515 C527 0.950 . S
C516 H508 0.950 . S
C516 C517 1.386 . S
C516 C518 1.391 . S
C517 C516 1.386 . S
C517 C521 1.393 . S
C518 H510 0.950 . S
C518 C516 1.391 . S
C518 C519 1.400 . S
C519 C518 1.400 . S
C519 C520 1.398 . S
C519 C525 1.491 . S
C520 H511 0.950 . S
C520 C519 1.398 . S
C520 C521 1.391 . S
C521 H509 0.950 . S
C521 C517 1.393 . S
C521 C520 1.391 . S
C522 H512 0.950 . S
C522 C523 1.386 . S
C522 C524 1.391 . S
C523 C522 1.386 . S
C523 C527 1.393 . S
C524 H513 0.950 . S
C524 C522 1.391 . S
C524 C525 1.400 . S
C525 C519 1.491 . S
C525 C524 1.400 . S
C525 C526 1.398 . S
C526 H514 0.950 . S
C526 C525 1.398 . S
C526 C527 1.391 . S
C527 H515 0.950 . S
C527 C523 1.393 . S
C527 C526 1.391 . S
H528 C536 0.950 . S
H529 C541 0.950 . S
H530 C538 0.950 . S
H531 C540 0.950 . S
H532 C542 0.950 . S
H533 C544 0.950 . S
H534 C546 0.950 . S
H535 C547 0.950 . S
C536 H528 0.950 . S
C536 C537 1.386 . S
C536 C538 1.391 . S
C537 C536 1.386 . S
C537 C541 1.393 . S
C538 H530 0.950 . S
C538 C536 1.391 . S
C538 C539 1.400 . S
C539 C538 1.400 . S
C539 C540 1.398 . S
C539 C545 1.491 . S
C540 H531 0.950 . S
C540 C539 1.398 . S
C540 C541 1.391 . S
C541 H529 0.950 . S
C541 C537 1.393 . S
C541 C540 1.391 . S
C542 H532 0.950 . S
C542 C543 1.386 . S
C542 C544 1.391 . S
C543 C542 1.386 . S
C543 C547 1.393 . S
C544 H533 0.950 . S
C544 C542 1.391 . S
C544 C545 1.400 . S
C545 C539 1.491 . S
C545 C544 1.400 . S
C545 C546 1.398 . S
C546 H534 0.950 . S
C546 C545 1.398 . S
C546 C547 1.391 . S
C547 H535 0.950 . S
C547 C543 1.393 . S
C547 C546 1.391 . S
H548 C556 0.950 . S
H549 C561 0.950 . S
H550 C558 0.950 . S
H551 C560 0.950 . S
H552 C562 0.950 . S
H553 C564 0.950 . S
H554 C566 0.950 . S
H555 C567 0.950 . S
C556 H548 0.950 . S
C556 C557 1.386 . S
C556 C558 1.391 . S
C557 C556 1.386 . S
C557 C561 1.393 . S
C558 H550 0.950 . S
C558 C556 1.391 . S
C558 C559 1.400 . S
C559 C558 1.400 . S
C559 C560 1.398 . S
C559 C565 1.491 . S
C560 H551 0.950 . S
C560 C559 1.398 . S
C560 C561 1.391 . S
C561 H549 0.950 . S
C561 C557 1.393 . S
C561 C560 1.391 . S
C562 H552 0.950 . S
C562 C563 1.386 . S
C562 C564 1.391 . S
C563 C562 1.386 . S
C563 C567 1.393 . S
C564 H553 0.950 . S
C564 C562 1.391 . S
C564 C565 1.400 . S
C565 C559 1.491 . S
C565 C564 1.400 . S
C565 C566 1.398 . S
C566 H554 0.950 . S
C566 C565 1.398 . S
C566 C567 1.391 . S
C567 H555 0.950 . S
C567 C563 1.393 . S
C567 C566 1.391 . S
H568 C576 0.950 . S
H569 C581 0.950 . S
H570 C578 0.950 . S
H571 C580 0.950 . S
H572 C582 0.950 . S
H573 C584 0.950 . S
H574 C586 0.950 . S
H575 C587 0.950 . S
C576 H568 0.950 . S
C576 C577 1.386 . S
C576 C578 1.391 . S
C577 C576 1.386 . S
C577 C581 1.393 . S
C578 H570 0.950 . S
C578 C576 1.391 . S
C578 C579 1.400 . S
C579 C578 1.400 . S
C579 C580 1.398 . S
C579 C585 1.491 . S
C580 H571 0.950 . S
C580 C579 1.398 . S
C580 C581 1.391 . S
C581 H569 0.950 . S
C581 C577 1.393 . S
C581 C580 1.391 . S
C582 H572 0.950 . S
C582 C583 1.386 . S
C582 C584 1.391 . S
C583 C582 1.386 . S
C583 C587 1.393 . S
C584 H573 0.950 . S
C584 C582 1.391 . S
C584 C585 1.400 . S
C585 C579 1.491 . S
C585 C584 1.400 . S
C585 C586 1.398 . S
C586 H574 0.950 . S
C586 C585 1.398 . S
C586 C587 1.391 . S
C587 H575 0.950 . S
C587 C583 1.393 . S
C587 C586 1.391 . S
H588 C596 0.950 . S
H589 C601 0.950 . S
H590 C598 0.950 . S
H591 C600 0.950 . S
H592 C602 0.950 . S
H593 C604 0.950 . S
H594 C606 0.950 . S
H595 C607 0.950 . S
C596 H588 0.950 . S
C596 C597 1.386 . S
C596 C598 1.391 . S
C597 C596 1.386 . S
C597 C601 1.393 . S
C598 H590 0.950 . S
C598 C596 1.391 . S
C598 C599 1.400 . S
C599 C598 1.400 . S
C599 C600 1.398 . S
C599 C605 1.491 . S
C600 H591 0.950 . S
C600 C599 1.398 . S
C600 C601 1.391 . S
C601 H589 0.950 . S
C601 C597 1.393 . S
C601 C600 1.391 . S
C602 H592 0.950 . S
C602 C603 1.386 . S
C602 C604 1.391 . S
C603 C602 1.386 . S
C603 C607 1.393 . S
C604 H593 0.950 . S
C604 C602 1.391 . S
C604 C605 1.400 . S
C605 C599 1.491 . S
C605 C604 1.400 . S
C605 C606 1.398 . S
C606 H594 0.950 . S
C606 C605 1.398 . S
C606 C607 1.391 . S
C607 H595 0.950 . S
C607 C603 1.393 . S
C607 C606 1.391 . S
H608 C616 0.950 . S
H609 C621 0.950 . S
H610 C618 0.950 . S
H611 C620 0.950 . S
H612 C622 0.950 . S
H613 C624 0.950 . S
H614 C626 0.950 . S
H615 C627 0.950 . S
C616 H608 0.950 . S
C616 C617 1.386 . S
C616 C618 1.391 . S
C617 C616 1.386 . S
C617 C621 1.393 . S
C618 H610 0.950 . S
C618 C616 1.391 . S
C618 C619 1.400 . S
C619 C618 1.400 . S
C619 C620 1.398 . S
C619 C625 1.491 . S
C620 H611 0.950 . S
C620 C619 1.398 . S
C620 C621 1.391 . S
C621 H609 0.950 . S
C621 C617 1.393 . S
C621 C620 1.391 . S
C622 H612 0.950 . S
C622 C623 1.386 . S
C622 C624 1.391 . S
C623 C622 1.386 . S
C623 C627 1.393 . S
C624 H613 0.950 . S
C624 C622 1.391 . S
C624 C625 1.400 . S
C625 C619 1.491 . S
C625 C624 1.400 . S
C625 C626 1.398 . S
C626 H614 0.950 . S
C626 C625 1.398 . S
C626 C627 1.391 . S
C627 H615 0.950 . S
C627 C623 1.393 . S
C627 C626 1.391 . S
H628 C636 0.950 . S
H629 C641 0.950 . S
H630 C638 0.950 . S
H631 C640 0.950 . S
H632 C642 0.950 . S
H633 C644 0.950 . S
H634 C646 0.950 . S
H635 C647 0.950 . S
C636 H628 0.950 . S
C636 C637 1.386 . S
C636 C638 1.391 . S
C637 C636 1.386 . S
C637 C641 1.393 . S
C638 H630 0.950 . S
C638 C636 1.391 . S
C638 C639 1.400 . S
C639 C638 1.400 . S
C639 C640 1.398 . S
C639 C645 1.491 . S
C640 H631 0.950 . S
C640 C639 1.398 . S
C640 C641 1.391 . S
C641 H629 0.950 . S
C641 C637 1.393 . S
C641 C640 1.391 . S
C642 H632 0.950 . S
C642 C643 1.386 . S
C642 C644 1.391 . S
C643 C642 1.386 . S
C643 C647 1.393 . S
C644 H633 0.950 . S
C644 C642 1.391 . S
C644 C645 1.400 . S
C645 C639 1.491 . S
C645 C644 1.400 . S
C645 C646 1.398 . S
C646 H634 0.950 . S
C646 C645 1.398 . S
C646 C647 1.391 . S
C647 H635 0.950 . S
C647 C643 1.393 . S
C647 C646 1.391 . S
H648 C656 0.950 . S
H649 C661 0.950 . S
H650 C658 0.950 . S
H651 C660 0.950 . S
H652 C662 0.950 . S
H653 C664 0.950 . S
H654 C666 0.950 . S
H655 C667 0.950 . S
C656 H648 0.950 . S
C656 C657 1.386 . S
C656 C658 1.391 . S
C657 C656 1.386 . S
C657 C661 1.393 . S
C658 H650 0.950 . S
C658 C656 1.391 . S
C658 C659 1.400 . S
C659 C658 1.400 . S
C659 C660 1.398 . S
C659 C665 1.491 . S
C660 H651 0.950 . S
C660 C659 1.398 . S
C660 C661 1.391 . S
C661 H649 0.950 . S
C661 C657 1.393 . S
C661 C660 1.391 . S
C662 H652 0.950 . S
C662 C663 1.386 . S
C662 C664 1.391 . S
C663 C662 1.386 . S
C663 C667 1.393 . S
C664 H653 0.950 . S
C664 C662 1.391 . S
C664 C665 1.400 . S
C665 C659 1.491 . S
C665 C664 1.400 . S
C665 C666 1.398 . S
C666 H654 0.950 . S
C666 C665 1.398 . S
C666 C667 1.391 . S
C667 H655 0.950 . S
C667 C663 1.393 . S
C667 C666 1.391 . S
H668 C676 0.950 . S
H669 C681 0.950 . S
H670 C678 0.950 . S
H671 C680 0.950 . S
H672 C682 0.950 . S
H673 C684 0.950 . S
H674 C686 0.950 . S
H675 C687 0.950 . S
C676 H668 0.950 . S
C676 C677 1.386 . S
C676 C678 1.391 . S
C677 C676 1.386 . S
C677 C681 1.393 . S
C678 H670 0.950 . S
C678 C676 1.391 . S
C678 C679 1.400 . S
C679 C678 1.400 . S
C679 C680 1.398 . S
C679 C685 1.491 . S
C680 H671 0.950 . S
C680 C679 1.398 . S
C680 C681 1.391 . S
C681 H669 0.950 . S
C681 C677 1.393 . S
C681 C680 1.391 . S
C682 H672 0.950 . S
C682 C683 1.386 . S
C682 C684 1.391 . S
C683 C682 1.386 . S
C683 C687 1.393 . S
C684 H673 0.950 . S
C684 C682 1.391 . S
C684 C685 1.400 . S
C685 C679 1.491 . S
C685 C684 1.400 . S
C685 C686 1.398 . S
C686 H674 0.950 . S
C686 C685 1.398 . S
C686 C687 1.391 . S
C687 H675 0.950 . S
C687 C683 1.393 . S
C687 C686 1.391 . S
H688 C696 0.950 . S
H689 C701 0.950 . S
H690 C698 0.950 . S
H691 C700 0.950 . S
H692 C702 0.950 . S
H693 C704 0.950 . S
H694 C706 0.950 . S
H695 C707 0.950 . S
C696 H688 0.950 . S
C696 C697 1.386 . S
C696 C698 1.391 . S
C697 C696 1.386 . S
C697 C701 1.393 . S
C698 H690 0.950 . S
C698 C696 1.391 . S
C698 C699 1.400 . S
C699 C698 1.400 . S
C699 C700 1.398 . S
C699 C705 1.491 . S
C700 H691 0.950 . S
C700 C699 1.398 . S
C700 C701 1.391 . S
C701 H689 0.950 . S
C701 C697 1.393 . S
C701 C700 1.391 . S
C702 H692 0.950 . S
C702 C703 1.386 . S
C702 C704 1.391 . S
C703 C702 1.386 . S
C703 C707 1.393 . S
C704 H693 0.950 . S
C704 C702 1.391 . S
C704 C705 1.400 . S
C705 C699 1.491 . S
C705 C704 1.400 . S
C705 C706 1.398 . S
C706 H694 0.950 . S
C706 C705 1.398 . S
C706 C707 1.391 . S
C707 H695 0.950 . S
C707 C703 1.393 . S
C707 C706 1.391 . S
H708 C716 0.950 . S
H709 C721 0.950 . S
H710 C718 0.950 . S
H711 C720 0.950 . S
H712 C722 0.950 . S
H713 C724 0.950 . S
H714 C726 0.950 . S
H715 C727 0.950 . S
C716 H708 0.950 . S
C716 C717 1.386 . S
C716 C718 1.391 . S
C717 C716 1.386 . S
C717 C721 1.393 . S
C718 H710 0.950 . S
C718 C716 1.391 . S
C718 C719 1.400 . S
C719 C718 1.400 . S
C719 C720 1.398 . S
C719 C725 1.491 . S
C720 H711 0.950 . S
C720 C719 1.398 . S
C720 C721 1.391 . S
C721 H709 0.950 . S
C721 C717 1.393 . S
C721 C720 1.391 . S
C722 H712 0.950 . S
C722 C723 1.386 . S
C722 C724 1.391 . S
C723 C722 1.386 . S
C723 C727 1.393 . S
C724 H713 0.950 . S
C724 C722 1.391 . S
C724 C725 1.400 . S
C725 C719 1.491 . S
C725 C724 1.400 . S
C725 C726 1.398 . S
C726 H714 0.950 . S
C726 C725 1.398 . S
C726 C727 1.391 . S
C727 H715 0.950 . S
C727 C723 1.393 . S
C727 C726 1.391 . S
C257 C5 0.976 . S
C263 C95 1.240 . S
C277 C18 0.986 . S
C283 C144 1.076 . S
C303 C170 2.321 . S
C297 C30 2.353 . S
C317 C41 2.062 . S
C323 C218 2.013 . S
C343 C130 2.363 . S
C337 C7 2.183 . S
C363 C98 0.964 . S
C357 C16 0.881 . S
C383 C219 1.950 . S
C377 C29 1.902 . S
C403 C187 1.225 . S
C397 C38 1.113 . S
C417 C8 1.530 . S
C423 C215 1.608 . S
C443 C147 2.551 . S
C437 C27 2.371 . S
C457 C40 2.422 . S
C463 C99 2.453 . S
C477 C19 0.674 . S
C483 C184 0.683 . S
C503 C104 1.153 . S
C497 C51 1.010 . S
C517 C62 1.359 . S
C523 C135 1.343 . S
C537 C74 2.435 . S
C543 C179 2.412 . S
C557 C84 2.155 . S
C563 C227 2.233 . S
C577 C49 1.984 . S
C583 C139 2.608 1_556 S
C603 C107 0.986 . S
C597 C63 0.993 . S
C623 C210 1.817 . S
C617 C71 1.678 . S
C643 C178 1.339 . S
C637 C85 1.347 . S
C657 C52 1.514 . S
C663 C224 1.613 . S
C683 C138 2.638 . S
C677 C73 2.675 . S
C703 C90 1.972 . S
C697 C82 1.697 . S
C717 C60 0.804 . S
C723 C175 0.826 . S
