# Generated by pormake.
# Topology zzz, (3,6)-cn, num edge types: 1
# Building blocks:
#     Node 0, Type 0, BuildingBlock: WUSLED_clean_sbu_0, # of connection points: 3
#     Node 1, Type 0, BuildingBlock: WUSLED_clean_sbu_0, # of connection points: 3
#     Node 2, Type 0, BuildingBlock: WUSLED_clean_sbu_0, # of connection points: 3
#     Node 3, Type 0, BuildingBlock: WUSLED_clean_sbu_0, # of connection points: 3
#     Node 4, Type 0, BuildingBlock: WUSLED_clean_sbu_0, # of connection points: 3
#     Node 5, Type 0, BuildingBlock: WUSLED_clean_sbu_0, # of connection points: 3
#     Node 6, Type 0, BuildingBlock: WUSLED_clean_sbu_0, # of connection points: 3
#     Node 7, Type 0, BuildingBlock: WUSLED_clean_sbu_0, # of connection points: 3
#     Node 8, Type 1, BuildingBlock: BETGAK_clean_sbu_0, # of connection points: 6
#     Node 9, Type 1, BuildingBlock: BETGAK_clean_sbu_0, # of connection points: 6
#     Node 10, Type 1, BuildingBlock: BETGAK_clean_sbu_0, # of connection points: 6
#     Node 11, Type 1, BuildingBlock: BETGAK_clean_sbu_0, # of connection points: 6
#     Edge 12, Type (0, 1), BuildingBlock: AJUNOK_clean_linker_0, # of connection points: 2
#     Edge 13, Type (0, 1), BuildingBlock: AJUNOK_clean_linker_0, # of connection points: 2
#     Edge 14, Type (0, 1), BuildingBlock: AJUNOK_clean_linker_0, # of connection points: 2
#     Edge 15, Type (0, 1), BuildingBlock: AJUNOK_clean_linker_0, # of connection points: 2
#     Edge 16, Type (0, 1), BuildingBlock: AJUNOK_clean_linker_0, # of connection points: 2
#     Edge 17, Type (0, 1), BuildingBlock: AJUNOK_clean_linker_0, # of connection points: 2
#     Edge 18, Type (0, 1), BuildingBlock: AJUNOK_clean_linker_0, # of connection points: 2
#     Edge 19, Type (0, 1), BuildingBlock: AJUNOK_clean_linker_0, # of connection points: 2
#     Edge 20, Type (0, 1), BuildingBlock: AJUNOK_clean_linker_0, # of connection points: 2
#     Edge 21, Type (0, 1), BuildingBlock: AJUNOK_clean_linker_0, # of connection points: 2
#     Edge 22, Type (0, 1), BuildingBlock: AJUNOK_clean_linker_0, # of connection points: 2
#     Edge 23, Type (0, 1), BuildingBlock: AJUNOK_clean_linker_0, # of connection points: 2
#     Edge 24, Type (0, 1), BuildingBlock: AJUNOK_clean_linker_0, # of connection points: 2
#     Edge 25, Type (0, 1), BuildingBlock: AJUNOK_clean_linker_0, # of connection points: 2
#     Edge 26, Type (0, 1), BuildingBlock: AJUNOK_clean_linker_0, # of connection points: 2
#     Edge 27, Type (0, 1), BuildingBlock: AJUNOK_clean_linker_0, # of connection points: 2
#     Edge 28, Type (0, 1), BuildingBlock: AJUNOK_clean_linker_0, # of connection points: 2
#     Edge 29, Type (0, 1), BuildingBlock: AJUNOK_clean_linker_0, # of connection points: 2
#     Edge 30, Type (0, 1), BuildingBlock: AJUNOK_clean_linker_0, # of connection points: 2
#     Edge 31, Type (0, 1), BuildingBlock: AJUNOK_clean_linker_0, # of connection points: 2
#     Edge 32, Type (0, 1), BuildingBlock: AJUNOK_clean_linker_0, # of connection points: 2
#     Edge 33, Type (0, 1), BuildingBlock: AJUNOK_clean_linker_0, # of connection points: 2
#     Edge 34, Type (0, 1), BuildingBlock: AJUNOK_clean_linker_0, # of connection points: 2
#     Edge 35, Type (0, 1), BuildingBlock: AJUNOK_clean_linker_0, # of connection points: 2
# Relax obj value: 0.464
# Max RMSD: 0.259
# Mean RMSD: 0.249
data_MOF--net-zzz--node1-WUSLED_clean_sbu_0--node2-BETGAK_clean_sbu_0--edge1-AJUNOK_clean_linker_0
_symmetry_space_group_name_H-M    P1
_symmetry_Int_Tables_number       1
_symmetry_cell_setting            triclinic
loop_
_symmetry_equiv_pos_as_xyz
'x, y, z'
_cell_length_a     50.567988
_cell_length_b     50.639914
_cell_length_c     15.478857
_cell_angle_alpha  90.233158
_cell_angle_beta   89.993316
_cell_angle_gamma 90.029906
loop_
_atom_site_label
_atom_site_type_symbol
_atom_site_fract_x
_atom_site_fract_y
_atom_site_fract_z
_atom_type_partial_charge
C0 C 0.80857 0.52658 0.50172 0.0
C1 C 0.8164 0.50352 0.54562 0.0
C2 C 0.86107 0.52141 0.56938 0.0
C3 C 0.84232 0.50094 0.57865 0.0
C4 C 0.85311 0.5443 0.52493 0.0
C5 C 0.82737 0.54684 0.49195 0.0
U6 U 0.74509 0.5115 0.36297 0.0
O7 O 0.72172 0.54134 0.2943 0.0
O8 O 0.70207 0.51587 0.38843 0.0
C9 C 0.69906 0.53345 0.32676 0.0
C10 C 0.78084 0.53113 0.47043 0.0
C11 C 0.67747 0.52891 0.26252 0.0
C12 C 0.63125 0.53463 0.21921 0.0
C13 C 0.65119 0.53567 0.28269 0.0
C14 C 0.6633 0.51926 0.11473 0.0
C15 C 0.63715 0.52694 0.13376 0.0
C16 C 0.68313 0.52011 0.17818 0.0
C17 C 0.7836 0.45393 0.27424 0.0
C18 C 0.8165 0.43313 0.1832 0.0
C19 C 0.82846 0.44865 0.32638 0.0
C20 C 0.80242 0.4567 0.34023 0.0
C21 C 0.836 0.43806 0.24599 0.0
C22 C 0.79043 0.44099 0.19739 0.0
C23 C 0.75894 0.46894 0.27776 0.0
O24 O 0.77821 0.53874 0.38982 0.0
O25 O 0.76213 0.5146 0.49444 0.0
O26 O 0.74592 0.46815 0.35124 0.0
O27 O 0.76109 0.49286 0.24612 0.0
H28 H 0.80252 0.4875 0.55484 0.0
H29 H 0.84772 0.48276 0.61072 0.0
H30 H 0.86673 0.56061 0.51675 0.0
H31 H 0.822 0.56499 0.45956 0.0
H32 H 0.61145 0.54093 0.23618 0.0
H33 H 0.64623 0.5426 0.34698 0.0
H34 H 0.66854 0.51298 0.04998 0.0
H35 H 0.70312 0.51462 0.16047 0.0
H36 H 0.82177 0.42554 0.11998 0.0
H37 H 0.84312 0.45267 0.37576 0.0
H38 H 0.79748 0.46688 0.39974 0.0
H39 H 0.77615 0.43899 0.14556 0.0
C40 C 0.02833 0.8049 0.4895 0.0
C41 C 0.05112 0.82071 0.49693 0.0
C42 C 0.02551 0.85706 0.55878 0.0
C43 C 0.04978 0.84634 0.53173 0.0
C44 C 1.00264 0.84134 0.55137 0.0
C45 C 1.0041 0.81543 0.51843 0.0
U46 U 1.00884 0.74633 0.3372 0.0
O47 O 1.00726 0.70307 0.3581 0.0
O48 O 0.03634 0.71988 0.26906 0.0
C49 C 0.02542 0.69824 0.29921 0.0
C50 C 0.03082 0.77741 0.45467 0.0
C51 C 1.0196 0.67723 0.23424 0.0
C52 C 1.0196 0.63048 0.19408 0.0
C53 C 0.02281 0.65053 0.25632 0.0
C54 C 1.00973 0.66344 0.08627 0.0
C55 C 1.01312 0.63661 0.1079 0.0
C56 C 1.01277 0.68344 0.14863 0.0
C57 C 0.95936 0.79449 0.25064 0.0
C58 C 0.95242 0.8346 0.16913 0.0
C59 C 0.9585 0.83692 0.32427 0.0
C60 C 0.95997 0.8094 0.32726 0.0
C61 C 0.95622 0.84979 0.24446 0.0
C62 C 0.95405 0.80711 0.17226 0.0
C63 C 0.97014 0.76757 0.2491 0.0
O64 O 1.01176 0.76053 0.47206 0.0
O65 O 0.0396 0.77515 0.37508 0.0
O66 O 0.99461 0.76644 0.22083 0.0
O67 O 0.96618 0.75323 0.31861 0.0
H68 H 0.07014 0.81311 0.47628 0.0
H69 H 0.06772 0.85796 0.53655 0.0
H70 H 0.98369 0.84897 0.57247 0.0
H71 H 0.9863 0.80361 0.51653 0.0
H72 H 1.02233 0.61014 0.21342 0.0
H73 H 0.02827 0.64517 0.32162 0.0
H74 H 1.00549 0.66912 1.02037 0.0
H75 H 1.01038 0.70384 0.1293 0.0
H76 H 0.95108 0.84394 0.10645 0.0
H77 H 0.96145 0.84817 0.38319 0.0
H78 H 0.96381 0.79994 0.38838 0.0
H79 H 0.95366 0.79594 0.1124 0.0
C80 C 0.74396 0.99738 0.48836 0.0
C81 C 0.74001 1.0175 0.55031 0.0
C82 C 0.6929 1.00621 0.56327 0.0
C83 C 0.71481 1.02192 0.58694 0.0
C84 C 0.69699 0.98623 0.50106 0.0
C85 C 0.72204 0.98187 0.46454 0.0
U86 U 0.807 1.01169 0.34931 0.0
O87 O 0.82616 0.98333 0.2618 0.0
O88 O 0.84965 1.00215 0.3636 0.0
C89 C 0.84995 0.98744 0.29324 0.0
C90 C 0.77066 0.99089 0.45141 0.0
C91 C 0.87101 0.99279 0.22789 0.0
C92 C 0.91664 0.98722 0.17804 0.0
C93 C 0.89723 0.98467 0.24276 0.0
C94 C 0.8841 1.00638 0.08271 0.0
C95 C 0.91015 0.99753 0.09642 0.0
C96 C 0.86484 1.00414 0.14753 0.0
C97 C 0.77189 0.07475 0.30134 0.0
C98 C 0.73727 0.09847 0.22687 0.0
C99 C 0.7279 0.07697 0.36316 0.0
C100 C 0.75428 0.06916 0.36894 0.0
C101 C 0.71885 0.09023 0.28931 0.0
C102 C 0.76368 0.09074 0.23292 0.0
C103 C 0.79577 0.05876 0.29086 0.0
O104 O 0.77165 0.98678 0.36758 0.0
O105 O 0.79142 1.00388 0.48048 0.0
O106 O 0.80999 0.05498 0.36086 0.0
O107 O 0.79158 0.037 0.24651 0.0
H108 H 0.75637 0.02983 0.57075 0.0
H109 H 0.71248 0.03785 0.63316 0.0
H110 H 0.68081 0.97354 0.48138 0.0
H111 H 0.72433 0.96599 0.41803 0.0
H112 H 0.93653 0.98033 0.19087 0.0
H113 H 0.90257 0.97578 0.30384 0.0
H114 H 0.87855 1.0149 1.02125 0.0
H115 H 0.84491 1.01078 0.13393 0.0
H116 H 0.73083 0.10829 0.16852 0.0
H117 H 0.71409 0.0704 0.41214 0.0
H118 H 0.76027 0.05663 0.42198 0.0
H119 H 0.77698 0.09496 0.17983 0.0
C120 C 0.54249 0.72497 0.45531 0.0
C121 C 0.5202 0.72031 0.50782 0.0
C122 C 0.53363 0.67422 0.53084 0.0
C123 C 0.51578 0.69524 0.54474 0.0
C124 C 0.55566 0.67898 0.47735 0.0
C125 C 0.56001 0.70389 0.44047 0.0
U126 U 0.53034 0.78965 0.32098 0.0
O127 O 0.56005 0.80919 0.23903 0.0
O128 O 0.54143 0.83131 0.34453 0.0
C129 C 0.55689 0.83233 0.27613 0.0
C130 C 0.54927 0.75171 0.42038 0.0
C131 C 0.55337 0.85488 0.21579 0.0
C132 C 0.52571 0.88511 0.13244 0.0
C133 C 0.52826 0.86463 0.19321 0.0
C134 C 0.57323 0.88639 0.11585 0.0
C135 C 0.5482 0.89617 0.09251 0.0
C136 C 0.57577 0.86611 0.17676 0.0
C137 C 0.46591 0.75843 0.25591 0.0
C138 C 0.44147 0.7269 0.16935 0.0
C139 C 0.4586 0.7141 0.30935 0.0
C140 C 0.46848 0.73958 0.32156 0.0
C141 C 0.44644 0.70713 0.23081 0.0
C142 C 0.45111 0.75242 0.18205 0.0
C143 C 0.48352 0.78135 0.25401 0.0
O144 O 0.55381 0.75321 0.33694 0.0
O145 O 0.53638 0.77237 0.45052 0.0
O146 O 0.487 0.794 0.32752 0.0
O147 O 0.50568 0.77672 0.21246 0.0
H148 H 0.50627 0.73604 0.52106 0.0
H149 H 0.49827 0.69232 0.5838 0.0
H150 H 0.56998 0.6635 0.4653 0.0
H151 H 0.57751 0.70682 0.40126 0.0
H152 H 0.5061 0.89177 0.11492 0.0
H153 H 0.51061 0.85614 0.22144 0.0
H154 H 0.59096 0.89443 0.08669 0.0
H155 H 0.59534 0.8589 0.19262 0.0
H156 H 0.43266 0.72209 0.10749 0.0
H157 H 0.46261 0.69926 0.35784 0.0
H158 H 0.48008 0.74383 0.37875 0.0
H159 H 0.44923 0.76669 0.13041 0.0
C160 C 0.24026 0.50404 0.99684 0.0
C161 C 0.22016 0.48527 1.00989 0.0
C162 C 0.18833 0.5114 0.92672 0.0
C163 C 0.1947 0.48889 0.97575 0.0
C164 C 0.2084 0.53039 0.91404 0.0
C165 C 0.23403 0.52673 0.94836 0.0
U166 U 0.30432 0.51597 0.13644 0.0
O167 O 0.34678 0.50901 0.11006 0.0
O168 O 0.32617 0.48513 0.20649 0.0
C169 C 0.34899 0.49115 0.17123 0.0
C170 C 0.26765 0.49815 0.02887 0.0
C171 C 0.37156 0.49368 0.23259 0.0
C172 C 0.40732 0.47234 0.31218 0.0
C173 C 0.38721 0.47141 0.24975 0.0
C174 C 0.39718 0.51821 0.34039 0.0
C175 C 0.41234 0.49559 0.35958 0.0
C176 C 0.37689 0.51723 0.27795 0.0
C177 C 0.26838 0.57513 0.22372 0.0
C178 C 0.23582 0.59674 0.31414 0.0
C179 C 0.22372 0.58145 0.17083 0.0
C180 C 0.24959 0.57279 0.15742 0.0
C181 C 0.2163 0.59224 0.25105 0.0
C182 C 0.26173 0.58825 0.30041 0.0
C183 C 0.29251 0.55924 0.22099 0.0
O184 O 0.28723 0.51363 1.00489 0.0
O185 O 0.26977 0.49053 0.10965 0.0
O186 O 0.30566 0.55934 0.14767 0.0
O187 O 0.28938 0.5355 0.25321 0.0
H188 H 0.22426 0.4674 0.04572 0.0
H189 H 0.18001 0.47368 0.98665 0.0
H190 H 0.20426 0.54825 0.87827 0.0
H191 H 0.24896 0.54161 0.93643 0.0
H192 H 0.41885 0.45469 0.32394 0.0
H193 H 0.38355 0.45302 0.21576 0.0
H194 H 0.40046 0.53643 0.37567 0.0
H195 H 0.36505 0.53467 0.26638 0.0
H196 H 0.23063 0.60447 0.37723 0.0
H197 H 0.20905 0.57776 0.12121 0.0
H198 H 0.25435 0.56244 0.09805 0.0
H199 H 0.27595 0.58988 0.35253 0.0
C200 C 0.0348 0.23194 1.01427 0.0
C201 C 0.0289 0.21056 0.06885 0.0
C202 C 0.03069 0.1795 0.94671 0.0
C203 C 0.02673 0.18474 0.03544 0.0
C204 C 0.03543 0.2011 0.89187 0.0
C205 C 0.03754 0.22689 0.92525 0.0
U206 U 0.02433 0.29597 0.15637 0.0
O207 O 0.03183 0.33798 0.12665 0.0
O208 O 0.05614 0.31773 0.22279 0.0
C209 C 0.04998 0.34039 0.18715 0.0
C210 C 0.04109 0.25889 0.04863 0.0
C211 C 0.04735 0.36291 0.24843 0.0
C212 C 0.06848 0.39824 0.33103 0.0
C213 C 0.06969 0.37828 0.26803 0.0
C214 C 1.02224 0.38844 0.35471 0.0
C215 C 0.04488 0.40331 0.37637 0.0
C216 C 0.0235 0.36832 0.29179 0.0
C217 C 0.96386 0.26391 0.25706 0.0
C218 C 0.93442 0.24034 0.3532 0.0
C219 C 0.95795 0.21676 0.24027 0.0
C220 C 0.96893 0.24044 0.21183 0.0
C221 C 0.94186 0.21635 0.31435 0.0
C222 C 0.94556 0.26403 0.32499 0.0
C223 C 0.98127 0.28666 0.24569 0.0
O224 O 0.02586 0.27861 1.02469 0.0
O225 O 0.04856 0.26071 0.12981 0.0
O226 O 1.00526 0.28284 0.27559 0.0
O227 O 0.98093 0.29803 0.16949 0.0
H228 H 0.02661 0.21363 0.13773 0.0
H229 H 1.02237 0.16877 0.07953 0.0
H230 H 0.03859 0.19794 0.8234 0.0
H231 H 0.04228 0.24287 0.88156 0.0
H232 H 0.08615 0.40958 0.34489 0.0
H233 H 0.08831 0.3745 0.23562 0.0
H234 H 1.00378 0.39179 0.38847 0.0
H235 H 1.00601 0.35664 0.27834 0.0
H236 H 0.92175 0.24051 0.40963 0.0
H237 H 0.96409 0.19854 0.20929 0.0
H238 H 0.98308 0.24012 0.15929 0.0
H239 H 0.94148 0.28206 0.36046 0.0
C240 C 0.31738 1.01149 1.00755 0.0
C241 C 0.32297 0.03114 0.9458 0.0
C242 C 0.36892 1.01617 0.93314 0.0
C243 C 0.3484 0.03349 0.90932 0.0
C244 C 0.36323 0.99646 0.99419 0.0
C245 C 0.3379 0.99411 0.0306 0.0
U246 U 0.26001 0.03013 0.16385 0.0
O247 O 0.23572 1.00283 0.241 0.0
O248 O 0.21642 0.03011 0.15142 0.0
C249 C 0.21321 1.01219 0.21197 0.0
C250 C 0.29021 1.00779 0.04488 0.0
C251 C 0.19233 1.01683 0.27816 0.0
C252 C 0.16988 0.04418 0.38607 0.0
C253 C 0.18942 0.04106 0.32184 0.0
C254 C 0.15583 0.99905 0.36357 0.0
C255 C 0.15295 0.0231 0.40856 0.0
C256 C 0.17524 0.99599 0.29951 0.0
C257 C 0.30998 0.07953 0.22737 0.0
C258 C 0.35242 0.08667 0.29611 0.0
C259 C 0.35057 0.07235 0.14666 0.0
C260 C 0.32301 0.07347 0.14951 0.0
C261 C 0.36534 0.07722 0.22174 0.0
C262 C 0.32482 0.08769 0.29903 0.0
C263 C 0.2828 0.07017 0.24034 0.0
O264 O 0.28904 0.99976 0.12544 0.0
O265 O 0.27209 0.02563 0.02716 0.0
O266 O 0.28184 0.04646 0.27429 0.0
O267 O 0.26658 0.07308 0.17456 0.0
H268 H 0.30772 0.04478 0.92559 0.0
H269 H 0.3521 0.04909 0.86323 0.0
H270 H 0.37842 0.98259 1.01328 0.0
H271 H 0.33435 0.97847 0.07669 0.0
H272 H 0.16797 0.06318 0.41779 0.0
H273 H 0.20231 0.05749 0.30665 0.0
H274 H 0.1434 0.98231 0.37916 0.0
H275 H 0.17709 0.97708 0.26707 0.0
H276 H 0.36342 0.0904 0.35497 0.0
H277 H 0.36015 0.06511 0.08858 0.0
H278 H 0.31191 0.06698 0.0935 0.0
H279 H 0.31515 0.09216 0.35981 0.0
C280 C 0.50827 0.30347 1.00501 0.0
C281 C 0.50835 0.32626 0.05737 0.0
C282 C 0.51496 0.35477 0.93131 0.0
C283 C 0.51142 0.35144 1.02098 0.0
C284 C 0.51526 0.33187 0.87916 0.0
C285 C 0.51193 0.30663 0.91551 0.0
U286 U 0.5219 0.24642 0.16491 0.0
O287 O 0.52075 0.20285 0.15112 0.0
O288 O 0.49338 0.22282 0.2394 0.0
C289 C 0.50264 0.20008 0.21148 0.0
C290 C 0.50265 0.27669 0.04153 0.0
C291 C 0.50735 0.17949 0.2784 0.0
C292 C 0.50229 0.13373 0.32571 0.0
C293 C 0.49988 0.15322 0.26177 0.0
C294 C 0.51997 0.16633 0.42453 0.0
C295 C 0.5123 0.13999 0.40824 0.0
C296 C 0.51761 0.18581 0.3604 0.0
C297 C 0.57504 0.29297 0.23756 0.0
C298 C 0.59354 0.33165 0.307 0.0
C299 C 0.58238 0.33306 0.15481 0.0
C300 C 0.57402 0.30676 0.15894 0.0
C301 C 0.59137 0.34607 0.22966 0.0
C302 C 0.58549 0.30535 0.31078 0.0
C303 C 0.56205 0.26723 0.24686 0.0
O304 O 0.52029 0.2581 0.02714 0.0
O305 O 0.49303 0.27591 0.12042 0.0
O306 O 0.56489 0.25072 0.18171 0.0
O307 O 0.53765 0.26865 0.2756 0.0
H308 H 0.50557 0.32476 0.12655 0.0
H309 H 0.51073 0.36841 0.06344 0.0
H310 H 0.51718 0.33344 0.80972 0.0
H311 H 0.51166 0.28954 0.87319 0.0
H312 H 0.49568 0.11386 0.31111 0.0
H313 H 0.49165 0.14783 0.19953 0.0
H314 H 0.52786 0.17188 0.48707 0.0
H315 H 0.52349 0.20589 0.37531 0.0
H316 H 0.6 0.34111 0.36623 0.0
H317 H 0.58091 0.34343 0.09396 0.0
H318 H 0.56577 0.29755 0.10167 0.0
H319 H 0.58614 0.29512 0.3721 0.0
La320 La 0.04518 1.00978 0.82388 0.0
La321 La 1.01356 0.0254 0.67441 0.0
C322 C 0.05776 0.98964 0.96653 0.0
C323 C 0.04299 0.97099 1.02071 0.0
C324 C 0.02701 0.95161 0.98217 0.0
C325 C 1.00975 0.93669 0.03203 0.0
C326 C 1.00808 0.9408 0.12156 0.0
C327 C 0.02451 0.95971 0.16085 0.0
C328 C 0.04171 0.97492 0.11047 0.0
C329 C 0.07469 0.02463 0.69026 0.0
C330 C 0.02535 0.96609 0.69023 0.0
C331 C 0.99605 0.04436 0.53566 0.0
C332 C 0.98061 0.06722 0.50818 0.0
C333 C 0.96421 0.08088 0.56622 0.0
C334 C 0.95093 0.10362 0.53955 0.0
C335 C 0.95426 0.11313 0.45501 0.0
C336 C 0.96991 0.0987 0.39645 0.0
C337 C 0.98295 0.0759 0.4229 0.0
C338 C 0.98499 1.00897 0.80873 0.0
C339 C 0.03221 0.07039 0.8087 0.0
O340 O 0.06652 0.98086 0.89213 0.0
O341 O 0.04623 1.01251 0.95888 0.0
O342 O 0.08117 0.02756 0.77079 0.0
O343 O 0.05339 1.01161 0.68755 0.0
O344 O 0.02996 0.97167 0.77263 0.0
O345 O 0.02304 0.9854 0.63407 0.0
O346 O 0.98345 0.02685 0.58186 0.0
O347 O 1.01969 0.04945 0.56607 0.0
O348 O 0.97864 1.00551 0.72853 0.0
O349 O 1.00552 0.02302 0.81059 0.0
O350 O 1.02023 0.06471 0.73449 0.0
O351 O 0.04283 0.05155 0.85599 0.0
H352 H 0.02749 0.94813 0.91333 0.0
H353 H 0.99793 0.92161 1.00055 0.0
H354 H 0.0238 0.96289 0.23007 0.0
H355 H 0.05357 0.9901 0.14121 0.0
H356 H 0.96214 0.07429 0.6324 0.0
H357 H 0.93873 0.1142 0.58559 0.0
H358 H 0.97309 0.10573 0.33125 0.0
H359 H 0.99551 0.06548 0.37742 0.0
La360 La 0.53769 0.03501 0.82631 0.0
La361 La 0.52415 1.00217 0.67667 0.0
C362 C 0.55215 0.05502 0.96823 0.0
C363 C 0.57559 0.06263 1.01768 0.0
C364 C 0.57336 0.0827 0.07996 0.0
C365 C 0.59491 0.08921 0.13221 0.0
C366 C 0.61887 0.07558 0.12276 0.0
C367 C 0.62115 0.05573 0.05941 0.0
C368 C 0.59965 0.04933 1.00698 0.0
C369 C 0.52122 0.06225 0.68886 0.0
C370 C 0.58418 1.01626 0.69999 0.0
C371 C 0.50601 0.98664 0.53351 0.0
C372 C 0.48993 1.00117 0.47093 0.0
C373 C 0.48889 0.99325 0.38417 0.0
C374 C 0.4737 1.00758 0.32506 0.0
C375 C 0.45921 0.02982 0.35249 0.0
C376 C 0.46149 0.03833 0.43865 0.0
C377 C 0.47682 0.02424 0.49706 0.0
C378 C 0.53897 0.97416 0.8136 0.0
C379 C 0.4783 1.02194 0.80219 0.0
O380 O 0.54691 0.06888 0.89938 0.0
O381 O 0.54854 0.02972 0.95552 0.0
O382 O 0.51584 0.06812 0.76839 0.0
O383 O 0.53608 0.0423 0.68913 0.0
O384 O 0.57794 0.02504 0.77847 0.0
O385 O 0.56554 1.0087 0.64561 0.0
O386 O 0.49476 0.98155 0.60766 0.0
O387 O 0.52975 0.99604 0.54379 0.0
O388 O 0.54299 0.96729 0.73401 0.0
O389 O 0.5251 0.9948 0.81313 0.0
O390 O 0.48491 1.01674 0.72091 0.0
O391 O 0.49693 0.0263 0.85989 0.0
H392 H 0.55479 0.09301 0.08917 0.0
H393 H 0.59272 0.10441 0.18112 0.0
H394 H 0.63957 0.04513 0.05073 0.0
H395 H 0.60166 0.03375 0.95929 0.0
H396 H 0.4996 0.97594 0.36241 0.0
H397 H 0.47278 1.00093 0.25855 0.0
H398 H 0.45054 0.05529 0.46206 0.0
H399 H 0.47814 0.03123 0.56303 0.0
La400 La 0.50388 0.52175 0.7987 0.0
La401 La 0.54622 0.51083 0.68851 0.0
C402 C 0.47112 0.53775 0.91077 0.0
C403 C 0.46523 0.56166 0.96016 0.0
C404 C 0.44226 0.56269 1.01073 0.0
C405 C 0.43692 0.58492 0.06146 0.0
C406 C 0.45456 0.60632 0.06191 0.0
C407 C 0.47743 0.60527 1.01031 0.0
C408 C 0.48276 0.58306 0.95982 0.0
C409 C 0.48725 0.50041 0.64968 0.0
C410 C 0.52491 0.56727 0.67983 0.0
C411 C 0.58079 0.4959 0.58014 0.0
C412 C 0.58218 0.4834 0.49487 0.0
C413 C 0.60605 0.48397 0.44888 0.0
C414 C 0.60939 0.46801 0.37584 0.0
C415 C 0.58887 0.45124 0.34841 0.0
C416 C 0.56421 0.45258 0.39056 0.0
C417 C 0.56086 0.46863 0.46312 0.0
C418 C 0.5628 0.53011 0.84156 0.0
C419 C 0.52153 0.46338 0.79472 0.0
O420 O 0.46705 0.53891 0.82766 0.0
O421 O 0.49354 0.52632 0.92895 0.0
O422 O 0.47832 0.49492 0.72563 0.0
O423 O 0.50526 0.51751 0.65859 0.0
O424 O 0.51663 0.56189 0.75895 0.0
O425 O 0.53288 0.54756 0.63079 0.0
O426 O 0.57167 0.48126 0.6425 0.0
O427 O 0.57105 0.51963 0.58319 0.0
O428 O 0.57207 0.53613 0.7669 0.0
O429 O 0.54461 0.51362 0.82839 0.0
O430 O 0.53335 0.47014 0.72155 0.0
O431 O 0.51059 0.48176 0.84316 0.0
H432 H 0.42865 0.54615 1.01185 0.0
H433 H 0.41935 0.58518 0.10148 0.0
H434 H 0.49122 0.62166 1.00918 0.0
H435 H 0.50065 0.58242 0.92142 0.0
H436 H 0.62261 0.49554 0.47234 0.0
H437 H 0.62853 0.46742 0.34441 0.0
H438 H 0.54815 0.43956 0.3723 0.0
H439 H 0.54223 0.46815 0.49772 0.0
La440 La 1.02008 0.49877 0.81258 0.0
La441 La 0.02999 0.53754 0.6804 0.0
C442 C 1.00626 0.47151 0.94109 0.0
C443 C 0.98222 0.46427 0.98776 0.0
C444 C 0.98199 0.44122 0.03766 0.0
C445 C 0.95962 0.4346 0.08586 0.0
C446 C 0.93731 0.45105 0.08457 0.0
C447 C 0.93752 0.47394 0.03353 0.0
C448 C 0.95983 0.4805 0.98533 0.0
C449 C 0.03849 0.47815 0.6662 0.0
C450 C 0.97154 0.51836 0.69635 0.0
C451 C 0.04419 0.56483 0.55229 0.0
C452 C 0.06841 0.57103 0.50491 0.0
C453 C 0.06945 0.59384 0.454 0.0
C454 C 0.09213 0.59958 0.40603 0.0
C455 C 0.11393 0.58246 0.40854 0.0
C456 C 0.11284 0.55973 0.46025 0.0
C457 C 0.09025 0.55407 0.50824 0.0
C458 C 1.01196 0.55816 0.82763 0.0
C459 C 0.07842 0.51779 0.79705 0.0
O460 O 1.00865 0.462 0.86297 0.0
O461 O 1.01318 0.49635 0.94563 0.0
O462 O 0.04549 0.47097 0.74292 0.0
O463 O 1.02148 0.49625 0.67355 0.0
O464 O 0.97895 0.50808 0.77144 0.0
O465 O 0.98933 0.52888 0.64455 0.0
O466 O 0.04266 0.57404 0.63102 0.0
O467 O 0.03604 0.54038 0.54696 0.0
O468 O 1.00475 0.56536 0.75109 0.0
O469 O 0.02887 0.54003 0.81921 0.0
O470 O 0.07115 0.52769 0.72121 0.0
O471 O 0.06048 0.50782 0.84935 0.0
H472 H 0.99925 0.42857 0.04025 0.0
H473 H 0.95994 0.417 0.1254 0.0
H474 H 0.92041 0.48679 0.03114 0.0
H475 H 0.95973 0.49839 0.9472 0.0
H476 H 0.05263 0.60705 0.45064 0.0
H477 H 0.09248 0.61706 0.36594 0.0
H478 H 0.12953 0.54636 0.46355 0.0
H479 H 0.08971 0.53634 0.54711 0.0
C480 C 0.10688 1.01533 0.4682 0.0
C481 C 0.13263 0.02561 0.47941 0.0
C482 C 0.08805 1.01579 0.53547 0.0
C483 C 0.09412 0.02642 0.61737 0.0
H484 H 0.10123 1.00664 0.40686 0.0
H485 H 0.06873 1.00726 0.52358 0.0
S486 S 0.15839 0.05627 0.68098 0.0
N487 N 0.1629 0.04699 0.57968 0.0
N488 N 0.12762 0.0482 0.70489 0.0
C489 C 0.11954 0.03732 0.62895 0.0
C490 C 0.13871 0.03686 0.56048 0.0
C491 C 0.50475 0.1248 0.56182 0.0
C492 C 0.51416 0.11939 0.47783 0.0
C493 C 0.50655 0.10604 0.6286 0.0
C494 C 0.51817 0.08107 0.61499 0.0
H495 H 0.49573 0.14372 0.57608 0.0
H496 H 0.49906 0.11135 0.69188 0.0
S497 S 0.54616 0.05688 0.40745 0.0
N498 N 0.53551 0.08692 0.38513 0.0
N499 N 0.53927 0.05204 0.51045 0.0
C500 C 0.52755 0.07532 0.53128 0.0
C501 C 0.52544 0.09431 0.46293 0.0
C502 C 0.45195 0.51576 0.43645 0.0
C503 C 0.43248 0.49583 0.43115 0.0
C504 C 0.4705 0.51651 0.50475 0.0
C505 C 0.47006 0.49761 0.57144 0.0
H506 H 0.45281 0.53095 0.38747 0.0
H507 H 0.48472 0.53251 0.50672 0.0
S508 S 0.42334 0.44131 0.58818 0.0
N509 N 0.4143 0.45661 0.49895 0.0
N510 N 0.44878 0.45812 0.62647 0.0
C511 C 0.45098 0.47743 0.56612 0.0
C512 C 0.43232 0.47651 0.49642 0.0
C513 C 0.0244 0.44282 0.45194 0.0
C514 C 0.04422 0.42325 0.44837 0.0
C515 C 0.02322 0.46125 0.52054 0.0
C516 C 0.04154 0.46056 0.58915 0.0
H517 H 1.00966 0.44389 0.40128 0.0
H518 H 1.0074 0.47567 0.52095 0.0
S519 S 0.09729 0.41341 0.61084 0.0
N520 N 0.08267 0.4046 0.5198 0.0
N521 N 0.08037 0.43891 0.648 0.0
C522 C 0.06159 0.44132 0.58572 0.0
C523 C 0.06295 0.42278 0.5157 0.0
C524 C 0.9548 1.011 0.03605 0.0
C525 C 0.93008 0.99857 1.02462 0.0
C526 C 0.97275 1.01384 0.96671 0.0
C527 C 0.9668 1.00414 0.88337 0.0
H528 H 0.95997 1.01932 0.09838 0.0
H529 H 0.99117 0.0242 0.97815 0.0
S530 S 0.90637 0.96671 0.82264 0.0
N531 N 0.90184 0.97426 0.92544 0.0
N532 N 0.93535 0.97936 0.7962 0.0
C533 C 0.94272 0.99053 0.87247 0.0
C534 C 0.92445 0.98783 0.94265 0.0
C535 C 0.55952 0.91396 0.94507 0.0
C536 C 0.54576 0.9169 1.02373 0.0
C537 C 0.55739 0.93272 0.87857 0.0
C538 C 0.54161 0.95547 0.88774 0.0
H539 H 0.57174 0.89671 0.93405 0.0
H540 H 0.56814 0.92924 0.81907 0.0
S541 S 0.50241 0.9734 0.0823 0.0
N542 N 0.51638 0.94499 0.10781 0.0
N543 N 0.51241 0.98016 0.98323 0.0
C544 C 0.52807 0.95896 0.96659 0.0
C545 C 0.53008 0.9397 0.03422 0.0
C546 C 0.62332 0.54115 0.98471 0.0
C547 C 0.61687 0.52849 0.06283 0.0
C548 C 0.60533 0.54238 0.91555 0.0
C549 C 0.58004 0.53073 0.92039 0.0
H550 H 0.64256 0.55023 0.97676 0.0
H551 H 0.61163 0.55212 0.85686 0.0
S552 S 0.55281 0.49584 0.11117 0.0
N553 N 0.58287 0.50466 0.14168 0.0
N554 N 0.54919 0.50676 1.01143 0.0
C555 C 0.57303 0.51847 0.99872 0.0
C556 C 0.59135 0.51742 0.06981 0.0
C557 C 0.03003 0.59488 0.03577 0.0
C558 C 1.01104 0.61528 0.04015 0.0
C559 C 0.02961 0.57578 0.96918 0.0
C560 C 1.01027 0.57633 0.90372 0.0
H561 H 0.04592 0.59412 0.08258 0.0
H562 H 0.04514 0.56106 0.96736 0.0
S563 S 0.95406 0.62322 0.89092 0.0
N564 N 0.9707 0.63292 0.97721 0.0
N565 N 0.97036 0.5976 0.85166 0.0
C566 C 0.99057 0.59588 0.90923 0.0
C567 C 0.99086 0.61519 0.97725 0.0
C568 C 0.92967 0.16852 0.31352 0.0
C569 C 0.9379 0.191 0.35975 0.0
C570 C 0.93284 0.14319 0.34807 0.0
C571 C 0.9445 0.13955 0.42973 0.0
H572 H 0.92227 0.17043 0.24815 0.0
H573 H 0.92764 0.12628 0.30849 0.0
S574 S 0.96756 0.1922 0.5791 0.0
N575 N 0.95642 0.20815 0.49379 0.0
N576 N 0.96258 0.16061 0.55825 0.0
C577 C 0.95095 0.16198 0.47918 0.0
C578 C 0.94761 0.18773 0.44422 0.0
C579 C 0.41274 0.08176 0.26564 0.0
C580 C 0.3923 0.06628 0.23067 0.0
C581 C 0.43587 0.07 0.2973 0.0
C582 C 0.43905 0.04234 0.29635 0.0
H583 H 0.41011 0.10287 0.2735 0.0
H584 H 0.45055 0.08246 0.32812 0.0
S585 S 0.39174 0.99337 0.20689 0.0
N586 N 0.37739 0.02221 0.19134 0.0
N587 N 0.42047 1.00008 0.25238 0.0
C588 C 0.41957 0.0269 0.25559 0.0
C589 C 0.39622 0.03889 0.22256 0.0
C590 C 0.61629 0.38555 0.28234 0.0
C591 C 0.59549 0.37514 0.23229 0.0
C592 C 0.61574 0.41172 0.3115 0.0
C593 C 0.59447 0.42844 0.29093 0.0
H594 H 0.63189 0.37275 0.30557 0.0
H595 H 0.63066 0.41791 0.35755 0.0
S596 S 0.53949 0.4134 0.14082 0.0
N597 N 0.55595 0.38534 0.14877 0.0
N598 N 0.55563 0.43485 0.2016 0.0
C599 C 0.57578 0.41952 0.23053 0.0
C600 C 0.57613 0.39276 0.20145 0.0
C601 C 0.17259 0.5703 0.26363 0.0
C602 C 0.18808 0.5931 0.27618 0.0
C603 C 0.14796 0.56764 0.3034 0.0
C604 C 0.13786 0.5877 0.35681 0.0
H605 H 0.18025 0.55361 0.22748 0.0
H606 H 0.1372 0.54929 0.29514 0.0
S607 S 0.169 0.65258 0.40183 0.0
N608 N 0.19038 0.63717 0.3386 0.0
N609 N 0.14393 0.63202 0.41441 0.0
C610 C 0.15221 0.61133 0.36526 0.0
C611 C 0.17741 0.61403 0.32482 0.0
C612 C 0.9896 0.88499 0.26803 0.0
C613 C 0.96459 0.87767 0.23571 0.0
C614 C 1.00262 0.90745 0.23732 0.0
C615 C 0.99106 0.92318 0.17316 0.0
H616 H 1.00034 0.87197 0.3109 0.0
H617 H 0.0228 0.91101 0.25785 0.0
S618 S 0.92335 0.91638 0.08426 0.0
N619 N 0.92677 0.89071 0.14894 0.0
N620 N 0.9514 0.93301 0.09071 0.0
C621 C 0.96485 0.91792 0.14829 0.0
C622 C 0.95156 0.89509 0.17969 0.0
C623 C 0.6777 0.0645 0.26706 0.0
C624 C 0.69051 0.08919 0.26593 0.0
C625 C 0.65371 0.06067 0.22424 0.0
C626 C 0.64157 0.08142 0.17941 0.0
H627 H 0.68719 0.04746 0.29563 0.0
H628 H 0.64519 0.04103 0.22283 0.0
S629 S 0.66489 0.15069 0.16772 0.0
N630 N 0.68779 0.13538 0.22481 0.0
N631 N 0.64243 0.12811 0.14379 0.0
C632 C 0.65297 0.10669 0.18353 0.0
C633 C 0.67755 0.11058 0.22687 0.0
C634 C 0.46784 0.66336 0.21297 0.0
C635 C 0.44504 0.67905 0.20403 0.0
C636 C 0.47013 0.63918 0.17009 0.0
C637 C 0.44972 0.62974 0.11683 0.0
H638 H 0.48485 0.67058 0.24849 0.0
H639 H 0.48849 0.62829 0.17576 0.0
S640 S 0.38459 0.66145 0.08114 0.0
N641 N 0.4005 0.68206 0.14582 0.0
N642 N 0.405 0.63654 0.06364 0.0
C643 C 0.42606 0.64421 0.11215 0.0
C644 C 0.4237 0.66892 0.15603 0.0
C645 C 0.87901 0.46122 0.23243 0.0
C646 C 0.86417 0.43799 0.22021 0.0
C647 C 0.90336 0.46466 0.19155 0.0
C648 C 0.9138 0.445 0.1373 0.0
H649 H 0.87101 0.47763 0.26911 0.0
H650 H 0.91359 0.48332 0.19959 0.0
S651 S 0.88449 0.37923 0.09304 0.0
N652 N 0.86294 0.39391 0.15746 0.0
N653 N 0.90886 0.40056 0.07949 0.0
C654 C 0.90016 0.42094 0.12927 0.0
C655 C 0.87526 0.41742 0.1709 0.0
C656 C 1.0177 0.14468 0.83533 0.0
C657 C 0.03118 0.15161 0.91205 0.0
C658 C 1.01827 0.11865 0.80186 0.0
C659 C 0.03252 0.09831 0.84316 0.0
H660 H 1.00629 0.15944 0.80129 0.0
H661 H 1.00723 0.11444 0.74344 0.0
S662 S 0.07311 0.10661 0.04224 0.0
N663 N 0.0605 0.13617 1.02524 0.0
N664 N 0.06158 0.08771 0.96375 0.0
C665 C 0.04651 0.10521 0.91913 0.0
C666 C 0.04583 0.13162 0.95311 0.0
C667 C 0.41832 1.01904 0.95288 0.0
C668 C 0.3964 1.01874 0.8968 0.0
C669 C 0.44439 1.02052 0.92141 0.0
C670 C 0.44999 1.02146 0.83203 0.0
H671 H 0.41532 1.0182 1.02213 0.0
H672 H 0.46033 1.0205 0.96815 0.0
S673 S 0.39969 1.02113 0.65719 0.0
N674 N 0.38207 1.01961 0.74695 0.0
N675 N 0.43097 0.02217 0.6878 0.0
C676 C 0.42824 1.02129 0.77503 0.0
C677 C 0.40156 1.02006 0.80732 0.0
C678 C 0.50038 0.40247 0.92315 0.0
C679 C 0.517 0.38209 0.89292 0.0
C680 C 0.50186 0.42827 0.89006 0.0
C681 C 0.51994 0.43517 0.82441 0.0
H682 H 0.48583 0.39847 0.97277 0.0
H683 H 0.48855 0.44297 0.91654 0.0
S684 S 0.56884 0.38972 0.72444 0.0
N685 N 0.55293 0.37106 0.79466 0.0
N686 N 0.55529 0.41932 0.73146 0.0
C687 C 0.53664 0.41503 0.79297 0.0
C688 C 0.53526 0.38866 0.82728 0.0
C689 C 0.13872 0.50881 0.94402 0.0
C690 C 0.16065 0.5148 0.89147 0.0
C691 C 0.11264 0.51021 0.9128 0.0
C692 C 0.10683 0.51768 0.82701 0.0
H693 H 0.1417 0.50294 1.01053 0.0
H694 H 0.09684 0.50521 0.95706 0.0
S695 S 0.15691 0.53556 0.66163 0.0
N696 N 0.17466 0.52862 0.74824 0.0
N697 N 0.12568 0.53151 0.69001 0.0
C698 C 0.12851 0.52419 0.77377 0.0
C699 C 0.15528 0.52272 0.80577 0.0
C700 C 0.03871 0.89187 0.66823 0.0
C701 C 0.02417 0.88463 0.59407 0.0
C702 C 0.03829 0.91796 0.7008 0.0
C703 C 0.0239 0.93806 0.65914 0.0
H704 H 0.0505 0.87721 0.70137 0.0
H705 H 0.04994 0.92256 0.75763 0.0
S706 S 0.98228 0.92927 0.46315 0.0
N707 N 0.99448 0.89956 0.48139 0.0
N708 N 0.99428 0.94851 0.5402 0.0
C709 C 1.00918 0.93096 0.58514 0.0
C710 C 1.00916 0.90432 0.55329 0.0
C711 C 0.64332 1.00977 0.54672 0.0
C712 C 0.66567 1.01051 0.60106 0.0
C713 C 0.61747 1.01206 0.57954 0.0
C714 C 0.61239 1.01529 0.6687 0.0
H715 H 0.64577 1.00735 0.47762 0.0
H716 H 0.60126 1.01118 0.53387 0.0
S717 S 0.66376 1.01864 0.83987 0.0
N718 N 0.68082 1.01479 0.74965 0.0
N719 N 0.63233 1.01943 0.81093 0.0
C720 C 0.63453 1.01662 0.72395 0.0
C721 C 0.66103 1.01419 0.69037 0.0
C722 C 0.53398 0.62435 0.52076 0.0
C723 C 0.52964 0.64731 0.57061 0.0
C724 C 0.53198 0.59891 0.55652 0.0
C725 C 0.52553 0.59491 0.64426 0.0
H726 H 0.53903 0.62601 0.45299 0.0
H727 H 0.53575 0.58217 0.5145 0.0
S728 S 0.51219 0.64821 0.80398 0.0
N729 N 0.51857 0.66418 0.71347 0.0
N730 N 0.51452 0.61648 0.78011 0.0
C731 C 0.5207 0.61764 0.69483 0.0
C732 C 0.52278 0.64369 0.65827 0.0
C733 C 0.91045 0.52764 0.55261 0.0
C734 C 0.889 0.5192 0.60372 0.0
C735 C 0.93666 0.52708 0.58324 0.0
C736 C 0.94306 0.51805 0.66694 0.0
H737 H 0.90701 0.53472 0.48765 0.0
H738 H 0.95208 0.53391 0.54019 0.0
S739 S 0.89437 0.49389 0.82821 0.0
N740 N 0.87609 0.50166 0.74357 0.0
N741 N 0.92525 0.50031 0.80056 0.0
C742 C 0.92186 0.50927 0.71876 0.0
C743 C 0.89499 0.50987 0.6874 0.0
loop_
_geom_bond_atom_site_label_1
_geom_bond_atom_site_label_2
_geom_bond_distance
_geom_bond_site_symmetry_2
_ccdc_geom_bond_type
C0 C1 1.264 . S
C0 C5 1.479 . S
C0 C10 1.465 . S
C1 C0 1.264 . S
C1 C3 1.339 . S
C1 H28 0.931 . S
C2 C3 1.395 . S
C2 C4 1.320 . S
C3 C1 1.339 . S
C3 C2 1.395 . S
C3 H29 0.929 . S
C4 C2 1.320 . S
C4 C5 1.405 . S
C4 H30 0.930 . S
C5 C0 1.479 . S
C5 C4 1.405 . S
C5 H31 0.931 . S
U6 O7 2.454 . S
U6 O8 2.458 . S
U6 C9 2.984 . S
U6 C10 2.847 . S
U6 C23 2.882 . S
U6 O24 2.441 . S
U6 O25 2.420 . S
U6 O26 2.455 . S
U6 O27 2.449 . S
O7 U6 2.454 . S
O7 C9 1.353 . S
O8 U6 2.458 . S
O8 C9 1.286 . S
C9 U6 2.984 . S
C9 O7 1.353 . S
C9 O8 1.286 . S
C9 C11 1.363 . S
C10 C0 1.465 . S
C10 U6 2.847 . S
C10 O24 1.249 . S
C10 O25 1.202 . S
C11 C9 1.363 . S
C11 C13 1.408 . S
C11 C16 1.342 . S
C12 C13 1.310 . S
C12 C15 1.461 . S
C12 H32 0.932 . S
C13 C11 1.408 . S
C13 C12 1.310 . S
C13 H33 0.930 . S
C14 C15 1.474 . S
C14 C16 1.285 . S
C14 H34 0.929 . S
C15 C12 1.461 . S
C15 C14 1.474 . S
C16 C11 1.342 . S
C16 C14 1.285 . S
C16 H35 0.930 . S
C17 C20 1.424 . S
C17 C22 1.245 . S
C17 C23 1.428 . S
C18 C21 1.260 . S
C18 C22 1.477 . S
C18 H36 0.932 . S
C19 C20 1.384 . S
C19 C21 1.479 . S
C19 H37 0.929 . S
C20 C17 1.424 . S
C20 C19 1.384 . S
C20 H38 0.928 . S
C21 C18 1.260 . S
C21 C19 1.479 . S
C22 C17 1.245 . S
C22 C18 1.477 . S
C22 H39 0.932 . S
C23 U6 2.882 . S
C23 C17 1.428 . S
C23 O26 1.301 . S
C23 O27 1.282 . S
O24 U6 2.441 . S
O24 C10 1.249 . S
O25 U6 2.420 . S
O25 C10 1.202 . S
O26 U6 2.455 . S
O26 C23 1.301 . S
O27 U6 2.449 . S
O27 C23 1.282 . S
H28 C1 0.931 . S
H29 C3 0.929 . S
H30 C4 0.930 . S
H31 C5 0.931 . S
H32 C12 0.932 . S
H33 C13 0.930 . S
H34 C14 0.929 . S
H35 C16 0.930 . S
H36 C18 0.932 . S
H37 C19 0.929 . S
H38 C20 0.928 . S
H39 C22 0.932 . S
C40 C41 1.264 . S
C40 C45 1.479 . S
C40 C50 1.465 . S
C41 C40 1.264 . S
C41 C43 1.339 . S
C41 H68 0.931 . S
C42 C43 1.395 . S
C42 C44 1.320 . S
C43 C41 1.339 . S
C43 C42 1.395 . S
C43 H69 0.929 . S
C44 C42 1.320 . S
C44 C45 1.405 . S
C44 H70 0.921 1_455 S
C45 C40 1.479 . S
C45 C44 1.405 . S
C45 H71 0.931 . S
U46 O47 2.454 . S
U46 O48 2.458 . S
U46 C49 2.984 . S
U46 C50 2.847 . S
U46 C63 2.882 . S
U46 O64 2.441 . S
U46 O65 2.420 . S
U46 O66 2.455 . S
U46 O67 2.449 . S
O47 U46 2.454 . S
O47 C49 1.353 . S
O48 U46 2.458 . S
O48 C49 1.286 . S
C49 U46 2.984 . S
C49 O47 1.353 . S
C49 O48 1.286 . S
C49 C51 1.363 . S
C50 C40 1.465 . S
C50 U46 2.847 . S
C50 O64 1.249 . S
C50 O65 1.202 . S
C51 C49 1.363 . S
C51 C53 1.408 . S
C51 C56 1.342 . S
C52 C53 1.310 . S
C52 C55 1.461 . S
C52 H72 0.932 . S
C53 C51 1.408 . S
C53 C52 1.310 . S
C53 H73 0.930 . S
C54 C55 1.474 1_655 S
C54 C56 1.285 1_655 S
C54 H74 0.930 . S
C55 C52 1.461 . S
C55 C54 1.474 1_455 S
C56 C51 1.342 . S
C56 C54 1.285 1_455 S
C56 H75 0.933 . S
C57 C60 1.424 . S
C57 C62 1.245 . S
C57 C63 1.428 . S
C58 C61 1.260 . S
C58 C62 1.477 . S
C58 H76 0.932 . S
C59 C60 1.384 . S
C59 C61 1.479 . S
C59 H77 0.929 . S
C60 C57 1.424 . S
C60 C59 1.384 . S
C60 H78 0.928 . S
C61 C58 1.260 . S
C61 C59 1.479 . S
C62 C57 1.245 . S
C62 C58 1.477 . S
C62 H79 0.932 . S
C63 U46 2.882 . S
C63 C57 1.428 . S
C63 O66 1.301 . S
C63 O67 1.282 . S
O64 U46 2.441 . S
O64 C50 1.249 . S
O65 U46 2.420 . S
O65 C50 1.202 . S
O66 U46 2.455 . S
O66 C63 1.301 . S
O67 U46 2.449 . S
O67 C63 1.282 . S
H68 C41 0.931 . S
H69 C43 0.929 . S
H70 C44 0.921 1_655 S
H71 C45 0.931 . S
H72 C52 0.932 . S
H73 C53 0.930 . S
H74 C54 0.930 . S
H75 C56 0.933 . S
H76 C58 0.932 . S
H77 C59 0.929 . S
H78 C60 0.928 . S
H79 C62 0.932 . S
C80 C81 1.264 . S
C80 C85 1.479 . S
C80 C90 1.465 . S
C81 C80 1.264 . S
C81 C83 1.339 . S
C81 H108 0.931 . S
C82 C83 1.395 . S
C82 C84 1.320 . S
C83 C81 1.339 . S
C83 C82 1.395 . S
C83 H109 0.929 . S
C84 C82 1.320 . S
C84 C85 1.405 . S
C84 H110 0.921 1_545 S
C85 C80 1.479 . S
C85 C84 1.405 . S
C85 H111 0.931 . S
U86 O87 2.454 . S
U86 O88 2.458 . S
U86 C89 2.984 . S
U86 C90 2.847 . S
U86 C103 2.882 . S
U86 O104 2.441 . S
U86 O105 2.420 . S
U86 O106 2.455 . S
U86 O107 2.449 . S
O87 U86 2.454 . S
O87 C89 1.353 . S
O88 U86 2.458 . S
O88 C89 1.286 . S
C89 U86 2.984 . S
C89 O87 1.353 . S
C89 O88 1.286 . S
C89 C91 1.363 . S
C90 C80 1.465 . S
C90 U86 2.847 . S
C90 O104 1.249 . S
C90 O105 1.202 . S
C91 C89 1.363 . S
C91 C93 1.408 . S
C91 C96 1.342 . S
C92 C93 1.310 . S
C92 C95 1.461 . S
C92 H112 0.932 . S
C93 C91 1.408 . S
C93 C92 1.310 . S
C93 H113 0.930 . S
C94 C95 1.474 1_565 S
C94 C96 1.285 1_565 S
C94 H114 0.931 . S
C95 C92 1.461 . S
C95 C94 1.474 1_545 S
C96 C91 1.342 . S
C96 C94 1.285 1_545 S
C96 H115 0.933 . S
C97 C100 1.424 . S
C97 C102 1.245 . S
C97 C103 1.428 . S
C98 C101 1.260 . S
C98 C102 1.477 . S
C98 H116 0.932 . S
C99 C100 1.384 . S
C99 C101 1.479 . S
C99 H117 0.929 . S
C100 C97 1.424 . S
C100 C99 1.384 . S
C100 H118 0.928 . S
C101 C98 1.260 . S
C101 C99 1.479 . S
C102 C97 1.245 . S
C102 C98 1.477 . S
C102 H119 0.932 . S
C103 U86 2.882 . S
C103 C97 1.428 . S
C103 O106 1.301 . S
C103 O107 1.282 . S
O104 U86 2.441 . S
O104 C90 1.249 . S
O105 U86 2.420 . S
O105 C90 1.202 . S
O106 U86 2.455 . S
O106 C103 1.301 . S
O107 U86 2.449 . S
O107 C103 1.282 . S
H108 C81 0.931 . S
H109 C83 0.929 . S
H110 C84 0.921 1_565 S
H111 C85 0.931 . S
H112 C92 0.932 . S
H113 C93 0.930 . S
H114 C94 0.931 . S
H115 C96 0.933 . S
H116 C98 0.932 . S
H117 C99 0.929 . S
H118 C100 0.928 . S
H119 C102 0.932 . S
C120 C121 1.264 . S
C120 C125 1.479 . S
C120 C130 1.465 . S
C121 C120 1.264 . S
C121 C123 1.339 . S
C121 H148 0.931 . S
C122 C123 1.395 . S
C122 C124 1.320 . S
C123 C121 1.339 . S
C123 C122 1.395 . S
C123 H149 0.929 . S
C124 C122 1.320 . S
C124 C125 1.405 . S
C124 H150 0.930 . S
C125 C120 1.479 . S
C125 C124 1.405 . S
C125 H151 0.931 . S
U126 O127 2.454 . S
U126 O128 2.458 . S
U126 C129 2.984 . S
U126 C130 2.847 . S
U126 C143 2.882 . S
U126 O144 2.441 . S
U126 O145 2.420 . S
U126 O146 2.455 . S
U126 O147 2.449 . S
O127 U126 2.454 . S
O127 C129 1.353 . S
O128 U126 2.458 . S
O128 C129 1.286 . S
C129 U126 2.984 . S
C129 O127 1.353 . S
C129 O128 1.286 . S
C129 C131 1.363 . S
C130 C120 1.465 . S
C130 U126 2.847 . S
C130 O144 1.249 . S
C130 O145 1.202 . S
C131 C129 1.363 . S
C131 C133 1.408 . S
C131 C136 1.342 . S
C132 C133 1.310 . S
C132 C135 1.461 . S
C132 H152 0.932 . S
C133 C131 1.408 . S
C133 C132 1.310 . S
C133 H153 0.930 . S
C134 C135 1.474 . S
C134 C136 1.285 . S
C134 H154 0.929 . S
C135 C132 1.461 . S
C135 C134 1.474 . S
C136 C131 1.342 . S
C136 C134 1.285 . S
C136 H155 0.930 . S
C137 C140 1.424 . S
C137 C142 1.245 . S
C137 C143 1.428 . S
C138 C141 1.260 . S
C138 C142 1.477 . S
C138 H156 0.932 . S
C139 C140 1.384 . S
C139 C141 1.479 . S
C139 H157 0.929 . S
C140 C137 1.424 . S
C140 C139 1.384 . S
C140 H158 0.928 . S
C141 C138 1.260 . S
C141 C139 1.479 . S
C142 C137 1.245 . S
C142 C138 1.477 . S
C142 H159 0.932 . S
C143 U126 2.882 . S
C143 C137 1.428 . S
C143 O146 1.301 . S
C143 O147 1.282 . S
O144 U126 2.441 . S
O144 C130 1.249 . S
O145 U126 2.420 . S
O145 C130 1.202 . S
O146 U126 2.455 . S
O146 C143 1.301 . S
O147 U126 2.449 . S
O147 C143 1.282 . S
H148 C121 0.931 . S
H149 C123 0.929 . S
H150 C124 0.930 . S
H151 C125 0.931 . S
H152 C132 0.932 . S
H153 C133 0.930 . S
H154 C134 0.929 . S
H155 C136 0.930 . S
H156 C138 0.932 . S
H157 C139 0.929 . S
H158 C140 0.928 . S
H159 C142 0.932 . S
C160 C161 1.264 . S
C160 C165 1.479 . S
C160 C170 1.465 . S
C161 C160 1.264 . S
C161 C163 1.339 . S
C161 H188 0.931 . S
C162 C163 1.395 . S
C162 C164 1.320 . S
C163 C161 1.339 . S
C163 C162 1.395 . S
C163 H189 0.929 . S
C164 C162 1.320 . S
C164 C165 1.405 . S
C164 H190 0.930 . S
C165 C160 1.479 . S
C165 C164 1.405 . S
C165 H191 0.931 . S
U166 O167 2.454 . S
U166 O168 2.458 . S
U166 C169 2.984 . S
U166 C170 2.847 1_554 S
U166 C183 2.882 . S
U166 O184 2.441 1_554 S
U166 O185 2.420 1_554 S
U166 O186 2.455 . S
U166 O187 2.449 . S
O167 U166 2.454 . S
O167 C169 1.353 . S
O168 U166 2.458 . S
O168 C169 1.286 . S
C169 U166 2.984 . S
C169 O167 1.353 . S
C169 O168 1.286 . S
C169 C171 1.363 . S
C170 C160 1.465 . S
C170 U166 2.847 1_556 S
C170 O184 1.249 . S
C170 O185 1.202 . S
C171 C169 1.363 . S
C171 C173 1.408 . S
C171 C176 1.342 . S
C172 C173 1.310 . S
C172 C175 1.461 . S
C172 H192 0.932 . S
C173 C171 1.408 . S
C173 C172 1.310 . S
C173 H193 0.930 1_554 S
C174 C175 1.474 . S
C174 C176 1.285 . S
C174 H194 0.929 . S
C175 C172 1.461 . S
C175 C174 1.474 . S
C176 C171 1.342 . S
C176 C174 1.285 . S
C176 H195 0.930 . S
C177 C180 1.424 . S
C177 C182 1.245 . S
C177 C183 1.428 . S
C178 C181 1.260 . S
C178 C182 1.477 . S
C178 H196 0.932 . S
C179 C180 1.384 . S
C179 C181 1.479 . S
C179 H197 0.929 . S
C180 C177 1.424 . S
C180 C179 1.384 . S
C180 H198 0.928 . S
C181 C178 1.260 . S
C181 C179 1.479 . S
C182 C177 1.245 . S
C182 C178 1.477 . S
C182 H199 0.932 . S
C183 U166 2.882 . S
C183 C177 1.428 . S
C183 O186 1.301 . S
C183 O187 1.282 . S
O184 U166 2.441 1_556 S
O184 C170 1.249 . S
O185 U166 2.420 1_556 S
O185 C170 1.202 . S
O186 U166 2.455 . S
O186 C183 1.301 . S
O187 U166 2.449 . S
O187 C183 1.282 . S
H188 C161 0.931 . S
H189 C163 0.929 . S
H190 C164 0.930 . S
H191 C165 0.931 . S
H192 C172 0.932 . S
H193 C173 0.930 1_556 S
H194 C174 0.929 . S
H195 C176 0.930 . S
H196 C178 0.932 . S
H197 C179 0.929 . S
H198 C180 0.928 . S
H199 C182 0.932 . S
C200 C201 1.264 . S
C200 C205 1.479 . S
C200 C210 1.465 . S
C201 C200 1.264 . S
C201 C203 1.339 . S
C201 H228 0.931 . S
C202 C203 1.395 . S
C202 C204 1.320 . S
C203 C201 1.339 . S
C203 C202 1.395 . S
C203 H229 0.929 . S
C204 C202 1.320 . S
C204 C205 1.405 . S
C204 H230 0.923 1_455 S
C205 C200 1.479 . S
C205 C204 1.405 . S
C205 H231 0.931 . S
U206 O207 2.454 . S
U206 O208 2.458 . S
U206 C209 2.984 . S
U206 C210 2.847 1_554 S
U206 C223 2.882 . S
U206 O224 2.441 1_554 S
U206 O225 2.420 1_554 S
U206 O226 2.455 . S
U206 O227 2.449 . S
O207 U206 2.454 . S
O207 C209 1.353 . S
O208 U206 2.458 . S
O208 C209 1.286 . S
C209 U206 2.984 . S
C209 O207 1.353 . S
C209 O208 1.286 . S
C209 C211 1.363 . S
C210 C200 1.465 . S
C210 U206 2.847 1_556 S
C210 O224 1.249 . S
C210 O225 1.202 . S
C211 C209 1.363 . S
C211 C213 1.408 . S
C211 C216 1.342 . S
C212 C213 1.310 . S
C212 C215 1.462 . S
C212 H232 0.932 . S
C213 C211 1.408 . S
C213 C212 1.310 . S
C213 H233 0.930 1_554 S
C214 C215 1.474 1_655 S
C214 C216 1.286 1_655 S
C214 H234 0.929 . S
C215 C212 1.462 . S
C215 C214 1.474 1_455 S
C216 C211 1.342 . S
C216 C214 1.286 1_455 S
C216 H235 0.930 . S
C217 C220 1.424 . S
C217 C222 1.245 . S
C217 C223 1.428 . S
C218 C221 1.260 . S
C218 C222 1.477 . S
C218 H236 0.932 . S
C219 C220 1.384 . S
C219 C221 1.479 . S
C219 H237 0.929 . S
C220 C217 1.424 . S
C220 C219 1.384 . S
C220 H238 0.928 . S
C221 C218 1.260 . S
C221 C219 1.479 . S
C222 C217 1.245 . S
C222 C218 1.477 . S
C222 H239 0.932 . S
C223 U206 2.882 . S
C223 C217 1.428 . S
C223 O226 1.301 . S
C223 O227 1.282 . S
O224 U206 2.441 1_556 S
O224 C210 1.249 . S
O225 U206 2.420 1_556 S
O225 C210 1.202 . S
O226 U206 2.455 . S
O226 C223 1.301 . S
O227 U206 2.449 . S
O227 C223 1.282 . S
H228 C201 0.931 . S
H229 C203 0.929 . S
H230 C204 0.923 1_655 S
H231 C205 0.931 . S
H232 C212 0.932 . S
H233 C213 0.930 1_556 S
H234 C214 0.929 . S
H235 C216 0.930 . S
H236 C218 0.932 . S
H237 C219 0.929 . S
H238 C220 0.928 . S
H239 C222 0.932 . S
C240 C241 1.264 . S
C240 C245 1.479 . S
C240 C250 1.465 . S
C241 C240 1.264 . S
C241 C243 1.339 . S
C241 H268 0.931 . S
C242 C243 1.395 . S
C242 C244 1.320 . S
C243 C241 1.339 . S
C243 C242 1.395 . S
C243 H269 0.929 . S
C244 C242 1.320 . S
C244 C245 1.405 . S
C244 H270 0.923 1_545 S
C245 C240 1.479 . S
C245 C244 1.405 . S
C245 H271 0.931 . S
U246 O247 2.454 . S
U246 O248 2.458 . S
U246 C249 2.984 . S
U246 C250 2.847 1_554 S
U246 C263 2.882 . S
U246 O264 2.441 1_554 S
U246 O265 2.420 1_554 S
U246 O266 2.455 . S
U246 O267 2.449 . S
O247 U246 2.454 . S
O247 C249 1.353 . S
O248 U246 2.458 . S
O248 C249 1.286 . S
C249 U246 2.984 . S
C249 O247 1.353 . S
C249 O248 1.286 . S
C249 C251 1.363 . S
C250 C240 1.465 . S
C250 U246 2.847 1_556 S
C250 O264 1.249 . S
C250 O265 1.202 . S
C251 C249 1.363 . S
C251 C253 1.408 . S
C251 C256 1.342 . S
C252 C253 1.310 . S
C252 C255 1.462 . S
C252 H272 0.932 . S
C253 C251 1.408 . S
C253 C252 1.310 . S
C253 H273 0.930 1_554 S
C254 C255 1.474 1_565 S
C254 C256 1.286 1_565 S
C254 H274 0.929 . S
C255 C252 1.462 . S
C255 C254 1.474 1_545 S
C256 C251 1.342 . S
C256 C254 1.286 1_545 S
C256 H275 0.930 . S
C257 C260 1.424 . S
C257 C262 1.245 . S
C257 C263 1.428 . S
C258 C261 1.260 . S
C258 C262 1.477 . S
C258 H276 0.932 . S
C259 C260 1.384 . S
C259 C261 1.479 . S
C259 H277 0.929 . S
C260 C257 1.424 . S
C260 C259 1.384 . S
C260 H278 0.928 . S
C261 C258 1.260 . S
C261 C259 1.479 . S
C262 C257 1.245 . S
C262 C258 1.477 . S
C262 H279 0.932 . S
C263 U246 2.882 . S
C263 C257 1.428 . S
C263 O266 1.301 . S
C263 O267 1.282 . S
O264 U246 2.441 1_556 S
O264 C250 1.249 . S
O265 U246 2.420 1_556 S
O265 C250 1.202 . S
O266 U246 2.455 . S
O266 C263 1.301 . S
O267 U246 2.449 . S
O267 C263 1.282 . S
H268 C241 0.931 . S
H269 C243 0.929 . S
H270 C244 0.923 1_565 S
H271 C245 0.931 . S
H272 C252 0.932 . S
H273 C253 0.930 1_556 S
H274 C254 0.929 . S
H275 C256 0.930 . S
H276 C258 0.932 . S
H277 C259 0.929 . S
H278 C260 0.928 . S
H279 C262 0.932 . S
C280 C281 1.264 . S
C280 C285 1.479 . S
C280 C290 1.465 . S
C281 C280 1.264 . S
C281 C283 1.339 . S
C281 H308 0.931 . S
C282 C283 1.395 . S
C282 C284 1.320 . S
C283 C281 1.339 . S
C283 C282 1.395 . S
C283 H309 0.929 . S
C284 C282 1.320 . S
C284 C285 1.405 . S
C284 H310 0.930 . S
C285 C280 1.479 . S
C285 C284 1.405 . S
C285 H311 0.931 . S
U286 O287 2.454 . S
U286 O288 2.458 . S
U286 C289 2.984 . S
U286 C290 2.847 1_554 S
U286 C303 2.882 . S
U286 O304 2.441 1_554 S
U286 O305 2.420 1_554 S
U286 O306 2.455 . S
U286 O307 2.449 . S
O287 U286 2.454 . S
O287 C289 1.353 . S
O288 U286 2.458 . S
O288 C289 1.286 . S
C289 U286 2.984 . S
C289 O287 1.353 . S
C289 O288 1.286 . S
C289 C291 1.363 . S
C290 C280 1.465 . S
C290 U286 2.847 1_556 S
C290 O304 1.249 . S
C290 O305 1.202 . S
C291 C289 1.363 . S
C291 C293 1.408 . S
C291 C296 1.342 . S
C292 C293 1.310 . S
C292 C295 1.461 . S
C292 H312 0.932 . S
C293 C291 1.408 . S
C293 C292 1.310 . S
C293 H313 0.930 1_554 S
C294 C295 1.474 . S
C294 C296 1.285 . S
C294 H314 0.929 . S
C295 C292 1.461 . S
C295 C294 1.474 . S
C296 C291 1.342 . S
C296 C294 1.285 . S
C296 H315 0.930 . S
C297 C300 1.424 . S
C297 C302 1.245 . S
C297 C303 1.428 . S
C298 C301 1.260 . S
C298 C302 1.477 . S
C298 H316 0.932 . S
C299 C300 1.384 . S
C299 C301 1.479 . S
C299 H317 0.929 . S
C300 C297 1.424 . S
C300 C299 1.384 . S
C300 H318 0.928 . S
C301 C298 1.260 . S
C301 C299 1.479 . S
C302 C297 1.245 . S
C302 C298 1.477 . S
C302 H319 0.932 . S
C303 U286 2.882 . S
C303 C297 1.428 . S
C303 O306 1.301 . S
C303 O307 1.282 . S
O304 U286 2.441 1_556 S
O304 C290 1.249 . S
O305 U286 2.420 1_556 S
O305 C290 1.202 . S
O306 U286 2.455 . S
O306 C303 1.301 . S
O307 U286 2.449 . S
O307 C303 1.282 . S
H308 C281 0.931 . S
H309 C283 0.929 . S
H310 C284 0.930 . S
H311 C285 0.931 . S
H312 C292 0.932 . S
H313 C293 0.930 1_556 S
H314 C294 0.929 . S
H315 C296 0.930 . S
H316 C298 0.932 . S
H317 C299 0.929 . S
H318 C300 0.928 . S
H319 C302 0.932 . S
La320 C322 2.928 . S
La320 O340 2.521 . S
La320 O341 2.628 . S
La320 O342 2.554 . S
La320 O343 2.757 1_565 S
La320 O344 2.470 . S
La320 O349 2.482 1_455 S
La320 O351 2.503 1_565 S
La321 C331 2.928 . S
La321 O343 2.482 1_655 S
La321 O345 2.503 1_545 S
La321 O346 2.521 . S
La321 O347 2.628 . S
La321 O348 2.554 . S
La321 O349 2.757 1_545 S
La321 O350 2.470 . S
C322 La320 2.928 . S
C322 C323 1.503 . S
C322 O340 1.261 . S
C322 O341 1.243 . S
C323 C322 1.503 . S
C323 C324 1.394 . S
C323 C328 1.373 . S
C324 C323 1.394 . S
C324 C325 1.380 . S
C324 H352 0.930 . S
C325 C324 1.380 . S
C325 C326 1.376 1_556 S
C325 H353 0.930 . S
C326 C325 1.376 1_554 S
C326 C327 1.370 . S
C327 C326 1.370 . S
C327 C328 1.396 1_554 S
C327 H354 0.929 . S
C328 C323 1.373 . S
C328 C327 1.396 1_556 S
C328 H355 0.929 1_455 S
C329 O342 1.240 . S
C329 O343 1.289 1_565 S
C330 O344 1.258 1_655 S
C330 O345 1.256 . S
C331 La321 2.928 . S
C331 C332 1.503 . S
C331 O346 1.261 . S
C331 O347 1.243 . S
C332 C331 1.503 . S
C332 C333 1.394 . S
C332 C337 1.373 . S
C333 C332 1.394 . S
C333 C334 1.380 . S
C333 H356 0.930 . S
C334 C333 1.380 . S
C334 C335 1.376 . S
C334 H357 0.930 . S
C335 C334 1.376 . S
C335 C336 1.370 . S
C336 C335 1.370 . S
C336 C337 1.396 . S
C336 H358 0.929 . S
C337 C332 1.373 . S
C337 C336 1.396 . S
C337 H359 0.929 1_655 S
C338 O348 1.240 . S
C338 O349 1.289 1_545 S
C339 O350 1.258 1_455 S
C339 O351 1.256 . S
O340 La320 2.521 . S
O340 C322 1.261 . S
O341 La320 2.628 . S
O341 C322 1.243 . S
O342 La320 2.554 . S
O342 C329 1.240 . S
O343 La320 2.757 1_545 S
O343 La321 2.482 1_455 S
O343 C329 1.289 1_545 S
O344 La320 2.470 . S
O344 C330 1.258 1_455 S
O345 La321 2.503 1_565 S
O345 C330 1.256 . S
O346 La321 2.521 . S
O346 C331 1.261 . S
O347 La321 2.628 . S
O347 C331 1.243 . S
O348 La321 2.554 . S
O348 C338 1.240 . S
O349 La320 2.482 1_655 S
O349 La321 2.757 1_565 S
O349 C338 1.289 1_565 S
O350 La321 2.470 . S
O350 C339 1.258 1_655 S
O351 La320 2.503 1_545 S
O351 C339 1.256 . S
H352 C324 0.930 . S
H353 C325 0.930 . S
H354 C327 0.929 . S
H355 C328 0.929 1_655 S
H356 C333 0.930 . S
H357 C334 0.930 . S
H358 C336 0.929 . S
H359 C337 0.929 1_455 S
La360 C362 2.928 . S
La360 O380 2.521 . S
La360 O381 2.628 . S
La360 O382 2.554 . S
La360 O383 2.757 . S
La360 O384 2.470 . S
La360 O389 2.482 1_545 S
La360 O391 2.503 . S
La361 C371 2.928 . S
La361 O383 2.482 1_565 S
La361 O385 2.503 . S
La361 O386 2.521 . S
La361 O387 2.628 . S
La361 O388 2.554 . S
La361 O389 2.757 . S
La361 O390 2.470 . S
C362 La360 2.928 . S
C362 C363 1.503 . S
C362 O380 1.261 . S
C362 O381 1.243 . S
C363 C362 1.503 . S
C363 C364 1.394 . S
C363 C368 1.373 . S
C364 C363 1.394 . S
C364 C365 1.380 . S
C364 H392 0.930 . S
C365 C364 1.380 . S
C365 C366 1.376 1_556 S
C365 H393 0.930 . S
C366 C365 1.376 1_554 S
C366 C367 1.370 . S
C367 C366 1.370 . S
C367 C368 1.396 1_554 S
C367 H394 0.964 . S
C368 C363 1.373 . S
C368 C367 1.396 1_556 S
C368 H395 0.929 1_545 S
C369 O382 1.240 . S
C369 O383 1.289 . S
C370 O384 1.258 1_565 S
C370 O385 1.256 . S
C371 La361 2.928 . S
C371 C372 1.503 . S
C371 O386 1.261 . S
C371 O387 1.243 . S
C372 C371 1.503 . S
C372 C373 1.394 . S
C372 C377 1.373 . S
C373 C372 1.394 . S
C373 C374 1.380 . S
C373 H396 0.930 . S
C374 C373 1.380 . S
C374 C375 1.376 . S
C374 H397 0.930 . S
C375 C374 1.376 . S
C375 C376 1.370 . S
C376 C375 1.370 . S
C376 C377 1.396 . S
C376 H398 0.956 . S
C377 C372 1.373 . S
C377 C376 1.396 . S
C377 H399 0.929 1_565 S
C378 O388 1.240 . S
C378 O389 1.289 . S
C379 O390 1.258 1_545 S
C379 O391 1.256 . S
O380 La360 2.521 . S
O380 C362 1.261 . S
O381 La360 2.628 . S
O381 C362 1.243 . S
O382 La360 2.554 . S
O382 C369 1.240 . S
O383 La360 2.757 . S
O383 La361 2.482 1_545 S
O383 C369 1.289 . S
O384 La360 2.470 . S
O384 C370 1.258 1_545 S
O385 La361 2.503 . S
O385 C370 1.256 . S
O386 La361 2.521 . S
O386 C371 1.261 . S
O387 La361 2.628 . S
O387 C371 1.243 . S
O388 La361 2.554 . S
O388 C378 1.240 . S
O389 La360 2.482 1_565 S
O389 La361 2.757 . S
O389 C378 1.289 . S
O390 La361 2.470 . S
O390 C379 1.258 1_565 S
O391 La360 2.503 . S
O391 C379 1.256 . S
H392 C364 0.930 . S
H393 C365 0.930 . S
H394 C367 0.964 . S
H395 C368 0.929 1_565 S
H396 C373 0.930 . S
H397 C374 0.930 . S
H398 C376 0.956 . S
H399 C377 0.929 1_545 S
La400 C402 2.928 . S
La400 O420 2.521 . S
La400 O421 2.628 . S
La400 O422 2.554 . S
La400 O423 2.757 . S
La400 O424 2.470 . S
La400 O429 2.482 . S
La400 O431 2.503 . S
La401 C411 2.928 . S
La401 O423 2.482 . S
La401 O425 2.503 . S
La401 O426 2.521 . S
La401 O427 2.628 . S
La401 O428 2.554 . S
La401 O429 2.757 . S
La401 O430 2.470 . S
C402 La400 2.928 . S
C402 C403 1.503 . S
C402 O420 1.261 . S
C402 O421 1.243 . S
C403 C402 1.503 . S
C403 C404 1.394 . S
C403 C408 1.373 . S
C404 C403 1.394 . S
C404 C405 1.380 . S
C404 H432 0.930 . S
C405 C404 1.380 . S
C405 C406 1.376 1_556 S
C405 H433 0.930 . S
C406 C405 1.376 1_554 S
C406 C407 1.370 . S
C407 C406 1.370 . S
C407 C408 1.396 1_554 S
C407 H434 0.929 . S
C408 C403 1.373 . S
C408 C407 1.396 1_556 S
C408 H435 0.929 . S
C409 O422 1.240 . S
C409 O423 1.289 . S
C410 O424 1.258 . S
C410 O425 1.256 . S
C411 La401 2.928 . S
C411 C412 1.503 . S
C411 O426 1.261 . S
C411 O427 1.243 . S
C412 C411 1.503 . S
C412 C413 1.394 . S
C412 C417 1.373 . S
C413 C412 1.394 . S
C413 C414 1.380 . S
C413 H436 0.930 . S
C414 C413 1.380 . S
C414 C415 1.376 . S
C414 H437 0.930 . S
C415 C414 1.376 . S
C415 C416 1.370 . S
C416 C415 1.370 . S
C416 C417 1.396 . S
C416 H438 0.929 . S
C417 C412 1.373 . S
C417 C416 1.396 . S
C417 H439 0.929 . S
C418 O428 1.240 . S
C418 O429 1.289 . S
C419 O430 1.258 . S
C419 O431 1.256 . S
O420 La400 2.521 . S
O420 C402 1.261 . S
O421 La400 2.628 . S
O421 C402 1.243 . S
O422 La400 2.554 . S
O422 C409 1.240 . S
O423 La400 2.757 . S
O423 La401 2.482 . S
O423 C409 1.289 . S
O424 La400 2.470 . S
O424 C410 1.258 . S
O425 La401 2.503 . S
O425 C410 1.256 . S
O426 La401 2.521 . S
O426 C411 1.261 . S
O427 La401 2.628 . S
O427 C411 1.243 . S
O428 La401 2.554 . S
O428 C418 1.240 . S
O429 La400 2.482 . S
O429 La401 2.757 . S
O429 C418 1.289 . S
O430 La401 2.470 . S
O430 C419 1.258 . S
O431 La400 2.503 . S
O431 C419 1.256 . S
H432 C404 0.930 . S
H433 C405 0.930 . S
H434 C407 0.929 . S
H435 C408 0.929 . S
H436 C413 0.930 . S
H437 C414 0.930 . S
H438 C416 0.929 . S
H439 C417 0.929 . S
La440 C442 2.928 . S
La440 O460 2.521 . S
La440 O461 2.628 . S
La440 O462 2.554 . S
La440 O463 2.757 1_655 S
La440 O464 2.470 . S
La440 O469 2.482 . S
La440 O471 2.503 1_655 S
La441 C451 2.928 . S
La441 O463 2.482 . S
La441 O465 2.503 1_455 S
La441 O466 2.521 . S
La441 O467 2.628 . S
La441 O468 2.554 . S
La441 O469 2.757 1_455 S
La441 O470 2.470 . S
C442 La440 2.928 . S
C442 C443 1.503 . S
C442 O460 1.261 . S
C442 O461 1.243 . S
C443 C442 1.503 . S
C443 C444 1.394 . S
C443 C448 1.373 . S
C444 C443 1.394 . S
C444 C445 1.380 . S
C444 H472 0.930 . S
C445 C444 1.380 . S
C445 C446 1.376 1_556 S
C445 H473 0.930 . S
C446 C445 1.376 1_554 S
C446 C447 1.370 . S
C447 C446 1.370 . S
C447 C448 1.396 1_554 S
C447 H474 0.929 . S
C448 C443 1.373 . S
C448 C447 1.396 1_556 S
C448 H475 0.929 . S
C449 O462 1.251 . S
C449 O463 1.283 1_655 S
C450 O464 1.258 . S
C450 O465 1.256 . S
C451 La441 2.928 . S
C451 C452 1.503 . S
C451 O466 1.261 . S
C451 O467 1.243 . S
C452 C451 1.503 . S
C452 C453 1.394 . S
C452 C457 1.373 . S
C453 C452 1.394 . S
C453 C454 1.380 . S
C453 H476 0.930 . S
C454 C453 1.380 . S
C454 C455 1.376 . S
C454 H477 0.930 . S
C455 C454 1.376 . S
C455 C456 1.370 . S
C456 C455 1.370 . S
C456 C457 1.396 . S
C456 H478 0.929 . S
C457 C452 1.373 . S
C457 C456 1.396 . S
C457 H479 0.929 . S
C458 O468 1.256 . S
C458 O469 1.280 1_455 S
C459 O470 1.258 . S
C459 O471 1.256 . S
O460 La440 2.521 . S
O460 C442 1.261 . S
O461 La440 2.628 . S
O461 C442 1.243 . S
O462 La440 2.554 . S
O462 C449 1.251 . S
O463 La440 2.757 1_455 S
O463 La441 2.482 . S
O463 C449 1.283 1_455 S
O464 La440 2.470 . S
O464 C450 1.258 . S
O465 La441 2.503 1_655 S
O465 C450 1.256 . S
O466 La441 2.521 . S
O466 C451 1.261 . S
O467 La441 2.628 . S
O467 C451 1.243 . S
O468 La441 2.554 . S
O468 C458 1.256 . S
O469 La440 2.482 . S
O469 La441 2.757 1_655 S
O469 C458 1.280 1_655 S
O470 La441 2.470 . S
O470 C459 1.258 . S
O471 La440 2.503 1_455 S
O471 C459 1.256 . S
H472 C444 0.930 . S
H473 C445 0.930 . S
H474 C447 0.929 . S
H475 C448 0.929 . S
H476 C453 0.930 . S
H477 C454 0.930 . S
H478 C456 0.929 . S
H479 C457 0.929 . S
C480 C481 1.343 1_565 S
C480 C482 1.419 . S
C480 H484 0.930 . S
C481 C480 1.343 1_545 S
C481 C490 1.457 . S
C482 C480 1.419 . S
C482 C483 1.363 1_565 S
C482 H485 0.929 . S
C483 C482 1.363 1_545 S
C483 C489 1.428 . S
H484 C480 0.930 . S
H485 C482 0.929 . S
S486 N487 1.613 . S
S486 N488 1.610 . S
N487 S486 1.613 . S
N487 C490 1.350 . S
N488 S486 1.610 . S
N488 C489 1.351 . S
C489 C483 1.428 . S
C489 N488 1.351 . S
C489 C490 1.434 . S
C490 C481 1.457 . S
C490 N487 1.350 . S
C490 C489 1.434 . S
C491 C492 1.369 . S
C491 C493 1.419 . S
C491 H495 0.930 . S
C492 C491 1.369 . S
C492 C501 1.429 . S
C493 C491 1.419 . S
C493 C494 1.363 . S
C493 H496 0.929 . S
C494 C493 1.363 . S
C494 C500 1.428 . S
H495 C491 0.930 . S
H496 C493 0.929 . S
S497 N498 1.613 1_565 S
S497 N499 1.610 1_565 S
N498 S497 1.613 1_545 S
N498 C501 1.350 . S
N499 S497 1.610 1_545 S
N499 C500 1.351 . S
C500 C494 1.428 . S
C500 N499 1.351 . S
C500 C501 1.434 . S
C501 C492 1.429 . S
C501 N498 1.350 . S
C501 C500 1.434 . S
C502 C503 1.369 . S
C502 C504 1.419 . S
C502 H506 0.930 . S
C503 C502 1.369 . S
C503 C512 1.429 . S
C504 C502 1.419 . S
C504 C505 1.363 . S
C504 H507 0.929 . S
C505 C504 1.363 . S
C505 C511 1.428 . S
H506 C502 0.930 . S
H507 C504 0.929 . S
S508 N509 1.613 . S
S508 N510 1.610 . S
N509 S508 1.613 . S
N509 C512 1.350 . S
N510 S508 1.610 . S
N510 C511 1.351 . S
C511 C505 1.428 . S
C511 N510 1.351 . S
C511 C512 1.434 . S
C512 C503 1.429 . S
C512 N509 1.350 . S
C512 C511 1.434 . S
C513 C514 1.369 1_655 S
C513 C515 1.419 . S
C513 H517 0.930 . S
C514 C513 1.369 1_455 S
C514 C523 1.429 . S
C515 C513 1.419 . S
C515 C516 1.363 1_655 S
C515 H518 0.929 . S
C516 C515 1.363 1_455 S
C516 C522 1.428 . S
H517 C513 0.930 . S
H518 C515 0.929 . S
S519 N520 1.613 . S
S519 N521 1.610 . S
N520 S519 1.613 . S
N520 C523 1.350 . S
N521 S519 1.610 . S
N521 C522 1.351 . S
C522 C516 1.428 . S
C522 N521 1.351 . S
C522 C523 1.434 . S
C523 C514 1.429 . S
C523 N520 1.350 . S
C523 C522 1.434 . S
C524 C525 1.347 1_545 S
C524 C526 1.419 . S
C524 H528 0.930 . S
C525 C524 1.347 1_565 S
C525 C534 1.452 . S
C526 C524 1.419 . S
C526 C527 1.363 1_544 S
C526 H529 0.929 1_554 S
C527 C526 1.363 1_566 S
C527 C533 1.428 1_556 S
H528 C524 0.930 . S
H529 C526 0.929 1_556 S
S530 N531 1.613 . S
S530 N532 1.610 1_554 S
N531 S530 1.613 . S
N531 C534 1.350 . S
N532 S530 1.610 1_556 S
N532 C533 1.351 1_556 S
C533 C527 1.428 1_554 S
C533 N532 1.351 1_554 S
C533 C534 1.434 . S
C534 C525 1.452 . S
C534 N531 1.350 . S
C534 C533 1.434 . S
C535 C536 1.369 . S
C535 C537 1.419 . S
C535 H539 0.930 . S
C536 C535 1.369 . S
C536 C545 1.429 . S
C537 C535 1.419 . S
C537 C538 1.363 1_554 S
C537 H540 0.929 1_554 S
C538 C537 1.363 1_556 S
C538 C544 1.428 1_556 S
H539 C535 0.930 . S
H540 C537 0.929 1_556 S
S541 N542 1.613 . S
S541 N543 1.610 . S
N542 S541 1.613 . S
N542 C545 1.350 . S
N543 S541 1.610 . S
N543 C544 1.351 . S
C544 C538 1.428 1_554 S
C544 N543 1.351 . S
C544 C545 1.434 . S
C545 C536 1.429 . S
C545 N542 1.350 . S
C545 C544 1.434 . S
C546 C547 1.369 . S
C546 C548 1.419 . S
C546 H550 0.930 . S
C547 C546 1.369 . S
C547 C556 1.429 . S
C548 C546 1.419 . S
C548 C549 1.363 1_554 S
C548 H551 0.929 1_554 S
C549 C548 1.363 1_556 S
C549 C555 1.428 1_556 S
H550 C546 0.930 . S
H551 C548 0.929 1_556 S
S552 N553 1.613 . S
S552 N554 1.610 1_554 S
N553 S552 1.613 . S
N553 C556 1.350 . S
N554 S552 1.610 1_556 S
N554 C555 1.351 1_556 S
C555 C549 1.428 1_554 S
C555 N554 1.351 1_554 S
C555 C556 1.434 . S
C556 C547 1.429 . S
C556 N553 1.350 . S
C556 C555 1.434 . S
C557 C558 1.369 1_455 S
C557 C559 1.419 . S
C557 H561 0.930 . S
C558 C557 1.369 1_655 S
C558 C567 1.429 . S
C559 C557 1.419 . S
C559 C560 1.363 1_454 S
C559 H562 0.929 1_554 S
C560 C559 1.363 1_656 S
C560 C566 1.428 1_556 S
H561 C557 0.930 . S
H562 C559 0.929 1_556 S
S563 N564 1.613 . S
S563 N565 1.610 1_554 S
N564 S563 1.613 . S
N564 C567 1.350 . S
N565 S563 1.610 1_556 S
N565 C566 1.351 1_556 S
C566 C560 1.428 1_554 S
C566 N565 1.351 1_554 S
C566 C567 1.434 . S
C567 C558 1.429 . S
C567 N564 1.350 . S
C567 C566 1.434 . S
C568 C569 1.369 . S
C568 C570 1.419 . S
C568 H572 0.930 . S
C569 C568 1.369 . S
C569 C578 1.429 . S
C570 C568 1.419 . S
C570 C571 1.363 . S
C570 H573 0.929 . S
C571 C570 1.363 . S
C571 C577 1.428 . S
H572 C568 0.930 . S
H573 C570 0.929 . S
S574 N575 1.613 1_655 S
S574 N576 1.610 . S
N575 S574 1.613 1_455 S
N575 C578 1.350 1_455 S
N576 S574 1.610 . S
N576 C577 1.351 . S
C577 C571 1.428 . S
C577 N576 1.351 . S
C577 C578 1.434 . S
C578 C569 1.429 . S
C578 N575 1.350 1_655 S
C578 C577 1.434 . S
C579 C580 1.369 1_545 S
C579 C581 1.413 1_545 S
C579 H583 0.936 . S
C580 C579 1.369 1_565 S
C580 C589 1.429 . S
C581 C579 1.413 1_565 S
C581 C582 1.363 . S
C581 H584 0.929 . S
C582 C581 1.363 . S
C582 C588 1.428 . S
H583 C579 0.936 . S
H584 C581 0.929 . S
S585 N586 1.613 . S
S585 N587 1.610 . S
N586 S585 1.613 . S
N586 C589 1.350 . S
N587 S585 1.610 . S
N587 C588 1.351 . S
C588 C582 1.428 . S
C588 N587 1.351 . S
C588 C589 1.434 . S
C589 C580 1.429 . S
C589 N586 1.350 . S
C589 C588 1.434 . S
C590 C591 1.369 . S
C590 C592 1.419 . S
C590 H594 0.930 . S
C591 C590 1.369 . S
C591 C600 1.429 . S
C592 C590 1.419 . S
C592 C593 1.363 . S
C592 H595 0.929 . S
C593 C592 1.363 . S
C593 C599 1.428 . S
H594 C590 0.930 . S
H595 C592 0.929 . S
S596 N597 1.613 . S
S596 N598 1.610 . S
N597 S596 1.613 . S
N597 C600 1.350 . S
N598 S596 1.610 . S
N598 C599 1.351 . S
C599 C593 1.428 . S
C599 N598 1.351 . S
C599 C600 1.434 . S
C600 C591 1.429 . S
C600 N597 1.350 . S
C600 C599 1.434 . S
C601 C602 1.369 . S
C601 C603 1.419 . S
C601 H605 0.930 . S
C602 C601 1.369 . S
C602 C611 1.429 . S
C603 C601 1.419 . S
C603 C604 1.363 . S
C603 H606 0.929 . S
C604 C603 1.363 . S
C604 C610 1.428 . S
H605 C601 0.930 . S
H606 C603 0.929 . S
S607 N608 1.613 . S
S607 N609 1.610 . S
N608 S607 1.613 . S
N608 C611 1.350 . S
N609 S607 1.610 . S
N609 C610 1.351 . S
C610 C604 1.428 . S
C610 N609 1.351 . S
C610 C611 1.434 . S
C611 C602 1.429 . S
C611 N608 1.350 . S
C611 C610 1.434 . S
C612 C613 1.369 . S
C612 C614 1.419 . S
C612 H616 0.930 . S
C613 C612 1.369 . S
C613 C622 1.429 1_455 S
C614 C612 1.419 . S
C614 C615 1.363 . S
C614 H617 0.929 . S
C615 C614 1.363 . S
C615 C621 1.428 . S
H616 C612 0.930 . S
H617 C614 0.929 . S
S618 N619 1.613 . S
S618 N620 1.610 1_655 S
N619 S618 1.613 . S
N619 C622 1.350 1_556 S
N620 S618 1.610 1_455 S
N620 C621 1.351 1_556 S
C621 C615 1.428 . S
C621 N620 1.351 1_554 S
C621 C622 1.434 1_455 S
C622 C613 1.429 1_655 S
C622 N619 1.350 1_554 S
C622 C621 1.434 1_655 S
C623 C624 1.369 1_565 S
C623 C625 1.419 1_565 S
C623 H627 0.930 . S
C624 C623 1.369 1_545 S
C624 C633 1.429 . S
C625 C623 1.419 1_545 S
C625 C626 1.363 . S
C625 H628 0.929 . S
C626 C625 1.363 . S
C626 C632 1.428 . S
H627 C623 0.930 . S
H628 C625 0.929 . S
S629 N630 1.613 . S
S629 N631 1.610 . S
N630 S629 1.613 . S
N630 C633 1.350 . S
N631 S629 1.610 . S
N631 C632 1.351 . S
C632 C626 1.428 . S
C632 N631 1.351 . S
C632 C633 1.434 . S
C633 C624 1.429 . S
C633 N630 1.350 . S
C633 C632 1.434 . S
C634 C635 1.369 . S
C634 C636 1.419 . S
C634 H638 0.930 . S
C635 C634 1.369 . S
C635 C644 1.429 . S
C636 C634 1.419 . S
C636 C637 1.363 . S
C636 H639 0.929 . S
C637 C636 1.363 . S
C637 C643 1.428 . S
H638 C634 0.930 . S
H639 C636 0.929 . S
S640 N641 1.613 . S
S640 N642 1.610 . S
N641 S640 1.613 . S
N641 C644 1.350 1_556 S
N642 S640 1.610 . S
N642 C643 1.351 1_556 S
C643 C637 1.428 . S
C643 N642 1.351 1_554 S
C643 C644 1.434 . S
C644 C635 1.429 . S
C644 N641 1.350 1_554 S
C644 C643 1.434 . S
C645 C646 1.369 . S
C645 C647 1.419 . S
C645 H649 0.930 . S
C646 C645 1.369 . S
C646 C655 1.429 . S
C647 C645 1.419 . S
C647 C648 1.363 . S
C647 H650 0.929 . S
C648 C647 1.363 . S
C648 C654 1.428 . S
H649 C645 0.930 . S
H650 C647 0.929 . S
S651 N652 1.613 . S
S651 N653 1.610 . S
N652 S651 1.613 . S
N652 C655 1.350 . S
N653 S651 1.610 . S
N653 C654 1.351 . S
C654 C648 1.428 . S
C654 N653 1.351 . S
C654 C655 1.434 . S
C655 C646 1.429 . S
C655 N652 1.350 . S
C655 C654 1.434 . S
C656 C657 1.369 1_655 S
C656 C658 1.419 . S
C656 H660 0.930 . S
C657 C656 1.369 1_455 S
C657 C666 1.429 . S
C658 C656 1.419 . S
C658 C659 1.363 1_655 S
C658 H661 0.929 . S
C659 C658 1.363 1_455 S
C659 C665 1.428 . S
H660 C656 0.930 . S
H661 C658 0.929 . S
S662 N663 1.613 . S
S662 N664 1.610 . S
N663 S662 1.613 . S
N663 C666 1.350 . S
N664 S662 1.610 . S
N664 C665 1.351 . S
C665 C659 1.428 . S
C665 N664 1.351 . S
C665 C666 1.434 . S
C666 C657 1.429 . S
C666 N663 1.350 . S
C666 C665 1.434 . S
C667 C668 1.369 1_565 S
C667 C669 1.419 . S
C667 H671 0.930 . S
C668 C667 1.369 1_545 S
C668 C677 1.429 . S
C669 C667 1.419 . S
C669 C670 1.360 1_565 S
C669 H672 0.932 . S
C670 C669 1.360 1_545 S
C670 C676 1.428 . S
H671 C667 0.930 . S
H672 C669 0.932 . S
S673 N674 1.613 . S
S673 N675 1.610 . S
N674 S673 1.613 . S
N674 C677 1.350 . S
N675 S673 1.610 . S
N675 C676 1.351 . S
C676 C670 1.428 . S
C676 N675 1.351 . S
C676 C677 1.434 . S
C677 C668 1.429 . S
C677 N674 1.350 . S
C677 C676 1.434 . S
C678 C679 1.369 . S
C678 C680 1.419 . S
C678 H682 0.930 . S
C679 C678 1.369 . S
C679 C688 1.429 . S
C680 C678 1.419 . S
C680 C681 1.363 . S
C680 H683 0.929 . S
C681 C680 1.363 . S
C681 C687 1.428 . S
H682 C678 0.930 . S
H683 C680 0.929 . S
S684 N685 1.613 . S
S684 N686 1.610 . S
N685 S684 1.613 . S
N685 C688 1.350 . S
N686 S684 1.610 . S
N686 C687 1.351 . S
C687 C681 1.428 . S
C687 N686 1.351 . S
C687 C688 1.434 . S
C688 C679 1.429 . S
C688 N685 1.350 . S
C688 C687 1.434 . S
C689 C690 1.369 . S
C689 C691 1.419 . S
C689 H693 0.930 . S
C690 C689 1.369 . S
C690 C699 1.429 . S
C691 C689 1.419 . S
C691 C692 1.363 . S
C691 H694 0.929 . S
C692 C691 1.363 . S
C692 C698 1.428 . S
H693 C689 0.930 . S
H694 C691 0.929 . S
S695 N696 1.613 . S
S695 N697 1.610 . S
N696 S695 1.613 . S
N696 C699 1.350 . S
N697 S695 1.610 . S
N697 C698 1.351 . S
C698 C692 1.428 . S
C698 N697 1.351 . S
C698 C699 1.434 . S
C699 C690 1.429 . S
C699 N696 1.350 . S
C699 C698 1.434 . S
C700 C701 1.369 1_455 S
C700 C702 1.419 . S
C700 H704 0.930 . S
C701 C700 1.369 1_655 S
C701 C710 1.429 . S
C702 C700 1.419 . S
C702 C703 1.363 1_455 S
C702 H705 0.929 . S
C703 C702 1.363 1_655 S
C703 C709 1.428 . S
H704 C700 0.930 . S
H705 C702 0.929 . S
S706 N707 1.613 . S
S706 N708 1.610 . S
N707 S706 1.613 . S
N707 C710 1.350 . S
N708 S706 1.610 . S
N708 C709 1.351 . S
C709 C703 1.428 . S
C709 N708 1.351 . S
C709 C710 1.434 . S
C710 C701 1.429 . S
C710 N707 1.350 . S
C710 C709 1.434 . S
C711 C712 1.369 . S
C711 C713 1.419 . S
C711 H715 0.930 . S
C712 C711 1.369 . S
C712 C721 1.429 1_565 S
C713 C711 1.419 . S
C713 C714 1.363 . S
C713 H716 0.929 . S
C714 C713 1.363 . S
C714 C720 1.428 1_565 S
H715 C711 0.930 . S
H716 C713 0.929 . S
S717 N718 1.613 . S
S717 N719 1.610 . S
N718 S717 1.613 . S
N718 C721 1.350 . S
N719 S717 1.610 . S
N719 C720 1.351 . S
C720 C714 1.428 1_545 S
C720 N719 1.351 . S
C720 C721 1.434 . S
C721 C712 1.429 1_545 S
C721 N718 1.350 . S
C721 C720 1.434 . S
C722 C723 1.369 . S
C722 C724 1.419 . S
C722 H726 0.930 . S
C723 C722 1.369 . S
C723 C732 1.429 . S
C724 C722 1.419 . S
C724 C725 1.363 . S
C724 H727 0.929 . S
C725 C724 1.363 . S
C725 C731 1.428 . S
H726 C722 0.930 . S
H727 C724 0.929 . S
S728 N729 1.613 . S
S728 N730 1.610 . S
N729 S728 1.613 . S
N729 C732 1.350 . S
N730 S728 1.610 . S
N730 C731 1.351 . S
C731 C725 1.428 . S
C731 N730 1.351 . S
C731 C732 1.434 . S
C732 C723 1.429 . S
C732 N729 1.350 . S
C732 C731 1.434 . S
C733 C734 1.369 . S
C733 C735 1.419 . S
C733 H737 0.930 . S
C734 C733 1.369 . S
C734 C743 1.429 . S
C735 C733 1.419 . S
C735 C736 1.363 . S
C735 H738 0.929 . S
C736 C735 1.363 . S
C736 C742 1.428 . S
H737 C733 0.930 . S
H738 C735 0.929 . S
S739 N740 1.613 . S
S739 N741 1.610 . S
N740 S739 1.613 . S
N740 C743 1.350 . S
N741 S739 1.610 . S
N741 C742 1.351 . S
C742 C736 1.428 . S
C742 N741 1.351 . S
C742 C743 1.434 . S
C743 C734 1.429 . S
C743 N740 1.350 . S
C743 C742 1.434 . S
C481 C255 2.639 . S
C483 C329 2.986 1_545 S
C494 C369 2.999 . S
C492 C295 2.656 . S
C505 C409 3.004 . S
C503 C175 2.656 . S
C516 C449 2.989 1_455 S
C514 C215 2.641 . S
C527 C338 2.987 1_565 S
C525 C95 2.641 1_565 S
C536 C135 2.661 . S
C538 C378 3.000 . S
C547 C15 2.661 . S
C549 C418 3.001 . S
C558 C55 2.643 1_655 S
C560 C458 2.988 1_655 S
C571 C335 0.789 . S
C569 C221 0.824 1_655 S
C582 C375 0.797 . S
C580 C261 0.819 1_565 S
C593 C415 0.776 . S
C591 C301 0.768 . S
C602 C181 0.792 . S
C604 C455 0.765 . S
C613 C61 0.801 . S
C615 C326 0.791 . S
C626 C366 0.807 . S
C624 C101 0.768 . S
C637 C406 0.780 . S
C635 C141 0.758 . S
C646 C21 0.753 . S
C648 C446 0.789 . S
C657 C202 3.609 . S
C659 C339 4.077 . S
C668 C242 3.587 . S
C670 C379 4.059 . S
C681 C419 4.054 . S
C679 C282 3.575 . S
C692 C459 4.076 . S
C690 C162 3.594 . S
C701 C42 3.634 1_655 S
C703 C330 4.086 . S
C714 C370 4.059 . S
C712 C82 3.610 1_565 S
C725 C410 4.054 . S
C723 C122 3.613 . S
C734 C2 3.635 . S
C736 C450 4.080 . S
