# Generated by pormake.
# Topology zzz, (3,6)-cn, num edge types: 1
# Building blocks:
#     Node 0, Type 0, BuildingBlock: WUSLED_clean_sbu_0, # of connection points: 3
#     Node 1, Type 0, BuildingBlock: WUSLED_clean_sbu_0, # of connection points: 3
#     Node 2, Type 0, BuildingBlock: WUSLED_clean_sbu_0, # of connection points: 3
#     Node 3, Type 0, BuildingBlock: WUSLED_clean_sbu_0, # of connection points: 3
#     Node 4, Type 0, BuildingBlock: WUSLED_clean_sbu_0, # of connection points: 3
#     Node 5, Type 0, BuildingBlock: WUSLED_clean_sbu_0, # of connection points: 3
#     Node 6, Type 0, BuildingBlock: WUSLED_clean_sbu_0, # of connection points: 3
#     Node 7, Type 0, BuildingBlock: WUSLED_clean_sbu_0, # of connection points: 3
#     Node 8, Type 1, BuildingBlock: KUMJIN_clean_sbu_1, # of connection points: 6
#     Node 9, Type 1, BuildingBlock: KUMJIN_clean_sbu_1, # of connection points: 6
#     Node 10, Type 1, BuildingBlock: KUMJIN_clean_sbu_1, # of connection points: 6
#     Node 11, Type 1, BuildingBlock: KUMJIN_clean_sbu_1, # of connection points: 6
#     Edge 12, Type (0, 1), BuildingBlock: EZIPEK_clean_linker_0, # of connection points: 2
#     Edge 13, Type (0, 1), BuildingBlock: EZIPEK_clean_linker_0, # of connection points: 2
#     Edge 14, Type (0, 1), BuildingBlock: EZIPEK_clean_linker_0, # of connection points: 2
#     Edge 15, Type (0, 1), BuildingBlock: EZIPEK_clean_linker_0, # of connection points: 2
#     Edge 16, Type (0, 1), BuildingBlock: EZIPEK_clean_linker_0, # of connection points: 2
#     Edge 17, Type (0, 1), BuildingBlock: EZIPEK_clean_linker_0, # of connection points: 2
#     Edge 18, Type (0, 1), BuildingBlock: EZIPEK_clean_linker_0, # of connection points: 2
#     Edge 19, Type (0, 1), BuildingBlock: EZIPEK_clean_linker_0, # of connection points: 2
#     Edge 20, Type (0, 1), BuildingBlock: EZIPEK_clean_linker_0, # of connection points: 2
#     Edge 21, Type (0, 1), BuildingBlock: EZIPEK_clean_linker_0, # of connection points: 2
#     Edge 22, Type (0, 1), BuildingBlock: EZIPEK_clean_linker_0, # of connection points: 2
#     Edge 23, Type (0, 1), BuildingBlock: EZIPEK_clean_linker_0, # of connection points: 2
#     Edge 24, Type (0, 1), BuildingBlock: EZIPEK_clean_linker_0, # of connection points: 2
#     Edge 25, Type (0, 1), BuildingBlock: EZIPEK_clean_linker_0, # of connection points: 2
#     Edge 26, Type (0, 1), BuildingBlock: EZIPEK_clean_linker_0, # of connection points: 2
#     Edge 27, Type (0, 1), BuildingBlock: EZIPEK_clean_linker_0, # of connection points: 2
#     Edge 28, Type (0, 1), BuildingBlock: EZIPEK_clean_linker_0, # of connection points: 2
#     Edge 29, Type (0, 1), BuildingBlock: EZIPEK_clean_linker_0, # of connection points: 2
#     Edge 30, Type (0, 1), BuildingBlock: EZIPEK_clean_linker_0, # of connection points: 2
#     Edge 31, Type (0, 1), BuildingBlock: EZIPEK_clean_linker_0, # of connection points: 2
#     Edge 32, Type (0, 1), BuildingBlock: EZIPEK_clean_linker_0, # of connection points: 2
#     Edge 33, Type (0, 1), BuildingBlock: EZIPEK_clean_linker_0, # of connection points: 2
#     Edge 34, Type (0, 1), BuildingBlock: EZIPEK_clean_linker_0, # of connection points: 2
#     Edge 35, Type (0, 1), BuildingBlock: EZIPEK_clean_linker_0, # of connection points: 2
# Relax obj value: 0.318
# Max RMSD: 0.197
# Mean RMSD: 0.176
data_MOF--net-zzz--node1-WUSLED_clean_sbu_0--node2-KUMJIN_clean_sbu_1--edge1-EZIPEK_clean_linker_0
_symmetry_space_group_name_H-M    P1
_symmetry_Int_Tables_number       1
_symmetry_cell_setting            triclinic
loop_
_symmetry_equiv_pos_as_xyz
'x, y, z'
_cell_length_a     48.592548
_cell_length_b     48.733323
_cell_length_c     18.045394
_cell_angle_alpha  90.134223
_cell_angle_beta   89.837995
_cell_angle_gamma 90.383263
loop_
_atom_site_label
_atom_site_type_symbol
_atom_site_fract_x
_atom_site_fract_y
_atom_site_fract_z
_atom_type_partial_charge
C0 C 0.79556 0.5254 0.41001 0.0
C1 C 0.81426 0.50346 0.40155 0.0
C2 C 0.84981 0.52592 0.47971 0.0
C3 C 0.84063 0.50373 0.43538 0.0
C4 C 0.83127 0.54804 0.48799 0.0
C5 C 0.80471 0.54769 0.45445 0.0
U6 U 0.73365 0.53416 0.26444 0.0
O7 O 0.70126 0.50398 0.23461 0.0
O8 O 0.68927 0.54476 0.27182 0.0
C9 C 0.68108 0.52168 0.24026 0.0
C10 C 0.7659 0.52317 0.38079 0.0
C11 C 0.66184 0.52343 0.17408 0.0
C12 C 0.61768 0.51099 0.115 0.0
C13 C 0.63549 0.51114 0.17708 0.0
C14 C 0.65175 0.5358 0.04422 0.0
C15 C 0.62547 0.52315 0.04712 0.0
C16 C 0.66964 0.53587 0.10645 0.0
C17 C 0.78649 0.56283 0.13072 0.0
C18 C 0.81625 0.58297 0.03788 0.0
C19 C 0.8303 0.5423 0.10488 0.0
C20 C 0.80689 0.54375 0.14836 0.0
C21 C 0.834 0.56065 0.04577 0.0
C22 C 0.79195 0.5836 0.07913 0.0
C23 C 0.75817 0.55704 0.15169 0.0
O24 O 0.75088 0.54549 0.37503 0.0
O25 O 0.76068 0.50574 0.32665 0.0
O26 O 0.7524 0.53072 0.15548 0.0
O27 O 0.7478 0.57154 0.20633 0.0
H28 H 0.80832 0.48557 0.36954 0.0
H29 H 0.85397 0.48628 0.42704 0.0
H30 H 0.83725 0.56565 0.52108 0.0
H31 H 0.79115 0.56485 0.46438 0.0
H32 H 0.59773 0.50112 0.11992 0.0
H33 H 0.62869 0.50125 0.22766 0.0
H34 H 0.6586 0.5454 0.99329 0.0
H35 H 0.68974 0.54543 0.10137 0.0
H36 H 0.81966 0.59805 0.99479 0.0
H37 H 0.84421 0.52527 0.11307 0.0
H38 H 0.80325 0.52793 0.18945 0.0
H39 H 0.77647 0.59873 0.06613 0.0
C40 C 1.00697 0.79942 0.41199 0.0
C41 C 1.00127 0.8231 0.36981 0.0
C42 C 1.00668 0.85399 0.47886 0.0
C43 C 1.00109 0.84977 0.40254 0.0
C44 C 0.01195 0.83021 0.52101 0.0
C45 C 0.01203 0.80363 0.48838 0.0
U46 U 1.00048 0.73846 0.26002 0.0
O47 O 0.0303 0.70555 0.23504 0.0
O48 O 0.98863 0.69428 0.26838 0.0
C49 C 0.01175 0.68579 0.23794 0.0
C50 C 1.0092 0.77046 0.37908 0.0
C51 C 1.00978 0.66685 0.17052 0.0
C52 C 1.00136 0.62088 0.1162 0.0
C53 C 1.00179 0.63905 0.17793 0.0
C54 C 0.01664 0.6576 0.03679 0.0
C55 C 1.0091 0.62969 0.04441 0.0
C56 C 0.01689 0.6758 0.09837 0.0
C57 C 0.97243 0.78631 0.10845 0.0
C58 C 0.95623 0.80946 0.99901 0.0
C59 C 0.98373 0.83387 0.08991 0.0
C60 C 0.98437 0.81061 0.13396 0.0
C61 C 0.97073 0.83336 0.01974 0.0
C62 C 0.95741 0.78602 0.04269 0.0
C63 C 0.98009 0.76028 0.14052 0.0
O64 O 0.98662 0.7559 0.36831 0.0
O65 O 0.02752 0.76602 0.3266 0.0
O66 O 1.00659 0.75758 0.15238 0.0
O67 O 0.96446 0.75064 0.19411 0.0
H68 H 0.99721 0.82109 0.31123 0.0
H69 H 0.99692 0.86731 0.36768 0.0
H70 H 0.01644 0.8322 0.57954 0.0
H71 H 0.01656 0.78618 0.52324 0.0
H72 H 0.99535 0.59969 0.12482 0.0
H73 H 0.99615 0.63118 0.23202 0.0
H74 H 0.02257 0.66535 0.98284 0.0
H75 H 0.023 0.69695 0.08947 0.0
H76 H 0.94494 0.80791 0.9481 0.0
H77 H 0.99555 0.85143 0.10878 0.0
H78 H 0.99636 0.81091 0.1844 0.0
H79 H 0.94814 0.76714 0.02256 0.0
C80 C 0.73745 1.00837 0.41292 0.0
C81 C 0.71368 0.01423 0.37096 0.0
C82 C 0.68289 1.00916 0.48029 0.0
C83 C 0.68699 0.01445 0.40384 0.0
C84 C 0.70666 1.00296 0.52183 0.0
C85 C 0.73324 1.0025 0.48887 0.0
U86 U 0.79986 1.00126 0.2662 0.0
O87 O 0.83297 0.03132 0.24169 0.0
O88 O 0.8439 0.99018 0.27784 0.0
C89 C 0.85274 0.01318 0.24747 0.0
C90 C 0.76677 1.01092 0.38223 0.0
C91 C 0.87201 0.01094 0.18146 0.0
C92 C 0.91651 0.02189 0.12228 0.0
C93 C 0.89879 0.02217 0.18469 0.0
C94 C 0.88153 0.99856 0.05117 0.0
C95 C 0.90818 1.01027 0.05421 0.0
C96 C 0.86372 0.99895 0.11364 0.0
C97 C 0.75149 0.97192 0.11964 0.0
C98 C 0.72541 0.95222 0.0187 0.0
C99 C 0.70434 0.98499 0.10302 0.0
C100 C 0.72835 0.98634 0.1439 0.0
C101 C 0.70326 0.96886 0.03859 0.0
C102 C 0.74974 0.95401 0.059 0.0
C103 C 0.77837 0.9793 0.14774 0.0
O104 O 0.78178 0.98864 0.37493 0.0
O105 O 0.77165 0.0286 0.32865 0.0
O106 O 0.78209 1.00583 0.15651 0.0
O107 O 0.78783 0.96445 0.20259 0.0
H108 H 0.7157 0.01919 0.31278 0.0
H109 H 0.66946 0.0193 0.36948 0.0
H110 H 0.70473 0.99885 0.58058 0.0
H111 H 0.75078 0.99818 0.52373 0.0
H112 H 0.93678 0.03111 0.12699 0.0
H113 H 0.90595 0.03162 0.23554 0.0
H114 H 0.87429 0.9895 0.99989 0.0
H115 H 0.84327 0.99018 0.10858 0.0
H116 H 0.72452 0.93958 0.96932 0.0
H117 H 0.68719 0.99789 0.11883 0.0
H118 H 0.72955 1.0003 0.19061 0.0
H119 H 0.76767 0.9429 0.03997 0.0
C120 C 0.52913 0.73876 0.41447 0.0
C121 C 0.53504 0.71494 0.37273 0.0
C122 C 0.52925 0.68432 0.4814 0.0
C123 C 0.53517 0.68838 0.40535 0.0
C124 C 0.52388 0.70818 0.52358 0.0
C125 C 0.52387 0.73472 0.49088 0.0
U126 U 0.53874 0.80044 0.26598 0.0
O127 O 0.50743 0.83107 0.23556 0.0
O128 O 0.54721 0.8454 0.27617 0.0
C129 C 0.52425 0.85218 0.24212 0.0
C130 C 0.52647 0.76753 0.38079 0.0
C131 C 0.52592 0.8719 0.17635 0.0
C132 C 0.53823 0.91729 0.12403 0.0
C133 C 0.53844 0.89806 0.18313 0.0
C134 C 0.51317 0.885 0.04848 0.0
C135 C 0.5253 0.91125 0.05582 0.0
C136 C 0.5135 0.86573 0.1073 0.0
C137 C 0.5711 0.75174 0.12574 0.0
C138 C 0.57834 0.72757 1.01038 0.0
C139 C 0.54865 0.70821 0.10547 0.0
C140 C 0.5552 0.72981 0.15226 0.0
C141 C 0.55826 0.70847 0.03233 0.0
C142 C 0.58461 0.74951 0.05732 0.0
C143 C 0.56465 0.77903 0.15281 0.0
O144 O 0.54827 0.78373 0.37815 0.0
O145 O 0.51069 0.77077 0.32231 0.0
O146 O 0.53805 0.78345 0.1548 0.0
O147 O 0.57771 0.78812 0.21169 0.0
H148 H 0.53924 0.71662 0.31449 0.0
H149 H 0.53944 0.67079 0.37049 0.0
H150 H 0.51914 0.70626 0.58202 0.0
H151 H 0.51912 0.75223 0.52559 0.0
H152 H 0.54791 0.93716 0.13203 0.0
H153 H 0.54812 0.90388 0.23487 0.0
H154 H 0.50317 0.8794 0.997 0.0
H155 H 0.50362 0.84601 0.09874 0.0
H156 H 0.58615 0.72758 0.9541 0.0
H157 H 0.53332 0.69332 0.12321 0.0
H158 H 0.54392 0.73185 0.20341 0.0
H159 H 0.59684 0.76644 0.03609 0.0
C160 C 0.23588 0.49825 0.91285 0.0
C161 C 0.21168 0.50199 0.95521 0.0
C162 C 0.18247 0.50064 0.84369 0.0
C163 C 0.18545 0.50314 0.9212 0.0
C164 C 0.20658 0.4965 0.80153 0.0
C165 C 0.23278 0.49533 0.83552 0.0
U166 U 0.28513 0.48707 0.07914 0.0
O167 O 0.31588 0.51484 0.13076 0.0
O168 O 0.32874 0.47422 0.09349 0.0
C169 C 0.33599 0.49689 0.12844 0.0
C170 C 0.26431 0.49912 0.94735 0.0
C171 C 0.35506 0.49486 0.19494 0.0
C172 C 0.40098 0.48362 0.24478 0.0
C173 C 0.38122 0.48262 0.18718 0.0
C174 C 0.369 0.50861 0.32115 0.0
C175 C 0.39536 0.49687 0.31271 0.0
C176 C 0.34928 0.5077 0.26345 0.0
C177 C 0.24025 0.46038 0.24566 0.0
C178 C 0.23235 0.48395 0.36157 0.0
C179 C 0.19722 0.45374 0.31096 0.0
C180 C 0.21502 0.44654 0.25354 0.0
C181 C 0.20507 0.47435 0.36091 0.0
C182 C 0.25011 0.47679 0.30396 0.0
C183 C 0.24826 0.46695 0.16977 0.0
O184 O 0.26809 0.51716 1.00064 0.0
O185 O 0.27636 0.47561 0.96197 0.0
O186 O 0.26544 0.45106 0.13356 0.0
O187 O 0.25159 0.49325 0.1566 0.0
H188 H 0.21305 0.50447 1.01475 0.0
H189 H 0.16744 0.50637 0.95551 0.0
H190 H 0.20519 0.49468 0.74183 0.0
H191 H 0.25081 0.49264 0.80089 0.0
H192 H 0.42098 0.47454 0.23555 0.0
H193 H 0.38679 0.47292 0.13525 0.0
H194 H 0.36385 0.51913 0.37222 0.0
H195 H 0.32968 0.51769 0.27205 0.0
H196 H 0.23862 0.49983 0.40024 0.0
H197 H 0.17621 0.44618 0.31009 0.0
H198 H 0.20716 0.43377 0.20901 0.0
H199 H 0.2696 0.48757 0.29878 0.0
C200 C 0.03237 0.2398 0.91547 0.0
C201 C 0.02621 0.21656 0.95938 0.0
C202 C 0.03074 0.18516 0.85261 0.0
C203 C 0.02535 0.18984 0.92853 0.0
C204 C 0.03767 0.20828 0.80912 0.0
C205 C 0.03835 0.23509 0.83992 0.0
U206 U 0.04581 0.29245 0.07271 0.0
O207 O 0.01748 0.32063 0.13143 0.0
O208 O 0.05521 0.33711 0.08225 0.0
C209 C 0.03325 0.34244 0.12261 0.0
C210 C 0.03076 0.2688 0.94644 0.0
C211 C 0.03589 0.36241 0.18695 0.0
C212 C 0.03099 0.40983 0.2334 0.0
C213 C 0.03128 0.3906 0.17455 0.0
C214 C 0.04088 0.37358 0.31973 0.0
C215 C 0.03555 0.40171 0.30722 0.0
C216 C 0.04092 0.35422 0.26067 0.0
C217 C 0.0809 0.25121 0.23307 0.0
C218 C 0.05545 0.24008 0.34396 0.0
C219 C 0.08503 0.20616 0.28679 0.0
C220 C 0.09426 0.22583 0.23649 0.0
C221 C 0.0635 0.21269 0.3352 0.0
C222 C 0.06467 0.25967 0.29334 0.0
C223 C 0.07178 0.25849 0.15886 0.0
O224 O 0.01422 0.27235 1.00333 0.0
O225 O 0.05382 0.28295 0.95366 0.0
O226 O 0.08508 0.27703 0.1197 0.0
O227 O 0.04493 0.25904 0.15106 0.0
H228 H 0.02158 0.21905 0.01775 0.0
H229 H 0.0201 0.1727 0.96411 0.0
H230 H 0.04215 0.20565 0.75072 0.0
H231 H 0.04316 0.25228 0.80412 0.0
H232 H 0.02672 0.43113 0.22128 0.0
H233 H 0.02721 0.39778 0.1189 0.0
H234 H 0.04433 0.36644 0.37571 0.0
H235 H 0.04441 0.33278 0.27289 0.0
H236 H 0.03907 0.24537 0.38217 0.0
H237 H 0.09163 0.18509 0.28037 0.0
H238 H 0.10733 0.21917 0.19117 0.0
H239 H 0.05458 0.27943 0.29231 0.0
C240 C 0.29708 0.04067 0.93565 0.0
C241 C 0.3213 0.03549 0.97642 0.0
C242 C 0.35043 0.03853 0.86405 0.0
C243 C 0.3475 0.03451 0.94123 0.0
C244 C 0.32632 0.04428 0.82379 0.0
C245 C 0.30024 0.04531 0.85885 0.0
U246 U 0.23575 0.05083 0.08322 0.0
O247 O 0.20386 0.02015 0.11144 0.0
O248 O 0.19127 0.0603 0.07101 0.0
C249 C 0.18342 0.03744 0.10401 0.0
C250 C 0.26827 0.03845 0.96859 0.0
C251 C 0.1644 0.03988 0.17009 0.0
C252 C 0.11762 0.03943 0.22285 0.0
C253 C 0.1356 0.03954 0.16104 0.0
C254 C 0.1567 0.04056 0.30496 0.0
C255 C 0.12789 0.03966 0.29586 0.0
C256 C 0.17465 0.04077 0.24319 0.0
C257 C 0.28369 0.08272 0.22841 0.0
C258 C 0.30697 0.08509 0.34632 0.0
C259 C 0.32966 0.06513 0.23899 0.0
C260 C 0.30719 0.07161 0.19514 0.0
C261 C 0.32858 0.07005 0.31549 0.0
C262 C 0.28441 0.09145 0.30243 0.0
C263 C 0.25697 0.07573 0.19824 0.0
O264 O 0.26432 0.02237 0.02623 0.0
O265 O 0.25288 0.06058 0.97159 0.0
O266 O 0.24842 0.0892 0.13975 0.0
O267 O 0.25299 0.04912 0.19393 0.0
H268 H 0.31997 0.03153 0.03532 0.0
H269 H 0.36548 0.03 0.97423 0.0
H270 H 0.32757 0.0473 0.76443 0.0
H271 H 0.28225 0.04897 0.82508 0.0
H272 H 0.09562 0.0384 0.21364 0.0
H273 H 0.12694 0.03858 0.10593 0.0
H274 H 0.16537 0.04041 0.3602 0.0
H275 H 0.19665 0.04095 0.25271 0.0
H276 H 0.30617 0.089 0.4054 0.0
H277 H 0.34648 0.0536 0.2149 0.0
H278 H 0.30669 0.06454 0.13818 0.0
H279 H 0.2662 0.09982 0.32866 0.0
C280 C 0.49909 0.29918 0.94447 0.0
C281 C 0.5058 0.3219 0.99017 0.0
C282 C 0.50128 0.35482 0.88062 0.0
C283 C 0.50745 0.34933 0.96494 0.0
C284 C 0.49285 0.33011 0.83615 0.0
C285 C 0.49243 0.3038 0.8691 0.0
U286 U 0.48877 0.23702 0.0864 0.0
O287 O 0.51983 0.20605 0.11612 0.0
O288 O 0.47998 0.19244 0.07395 0.0
C289 C 0.50318 0.18507 0.1057 0.0
C290 C 0.5014 0.26984 0.97277 0.0
C291 C 0.5018 0.16442 0.16804 0.0
C292 C 0.5171 0.12056 0.22081 0.0
C293 C 0.51608 0.13945 0.16162 0.0
C294 C 0.48889 0.15062 0.29483 0.0
C295 C 0.50367 0.12579 0.28869 0.0
C296 C 0.48807 0.16969 0.23561 0.0
C297 C 0.45651 0.28629 0.22529 0.0
C298 C 0.46407 0.31466 0.33263 0.0
C299 C 0.46799 0.3343 0.20949 0.0
C300 C 0.46062 0.309 0.17869 0.0
C301 C 0.47236 0.33621 0.28619 0.0
C302 C 0.45577 0.28984 0.30212 0.0
C303 C 0.46329 0.25894 0.19946 0.0
O304 O 0.51768 0.26532 0.02955 0.0
O305 O 0.47911 0.25432 0.97513 0.0
O306 O 0.45003 0.24915 0.14167 0.0
O307 O 0.48996 0.25508 0.19661 0.0
H308 H 0.51043 0.31837 0.04799 0.0
H309 H 0.50538 0.35692 0.92196 0.0
H310 H 0.48761 0.33221 0.77818 0.0
H311 H 0.48726 0.28639 0.83426 0.0
H312 H 0.52887 0.10193 0.21395 0.0
H313 H 0.52705 0.13474 0.11087 0.0
H314 H 0.47851 0.15556 0.3463 0.0
H315 H 0.47711 0.18877 0.24313 0.0
H316 H 0.46689 0.31601 0.39211 0.0
H317 H 0.47392 0.35105 0.17329 0.0
H318 H 0.46149 0.30639 0.11909 0.0
H319 H 0.45272 0.27241 0.33857 0.0
Eu320 Eu 0.98808 0.03059 0.61351 0.0
C321 C 0.10098 0.0364 0.79916 0.0
N322 N 0.09314 0.02491 0.73367 0.0
C323 C 0.13757 0.03534 0.68153 0.0
C324 C 0.12729 0.04854 0.80734 0.0
C325 C 0.11148 0.02333 0.67616 0.0
C326 C 0.14539 0.04837 0.747 0.0
C327 C 0.0919 0.04426 0.92988 0.0
C328 C 0.08342 0.03444 0.85979 0.0
C329 C 0.1175 0.05746 0.93714 0.0
C330 C 0.13514 0.0596 0.87604 0.0
Eu331 Eu 0.04797 1.00573 0.73143 0.0
N332 N 0.05858 0.02189 0.85128 0.0
C333 C 0.07454 0.04018 0.99095 0.0
C334 C 0.04235 0.01639 0.91155 0.0
C335 C 0.04983 0.02586 0.98185 0.0
H336 H 0.10682 0.01222 0.62641 0.0
H337 H 0.0366 0.02195 0.02906 0.0
H338 H 0.92863 0.03482 0.71285 0.0
H339 H 1.00711 0.98155 0.34648 0.0
H340 H 0.02367 1.00456 0.90647 0.0
H341 H 0.08024 0.04752 0.04553 0.0
H342 H 0.01782 1.01058 0.454 0.0
H343 H 0.15183 0.03411 0.63544 0.0
H344 H 0.1241 0.0656 0.99013 0.0
H345 H 0.15515 0.06919 0.88301 0.0
H346 H 0.88168 0.01618 0.7078 0.0
H347 H 0.16577 0.05737 0.75124 0.0
H348 H 0.96154 0.95897 0.33689 0.0
N349 N 0.9424 0.01334 0.61651 0.0
C350 C 0.93503 0.99694 0.55863 0.0
C351 C 0.89656 1.01036 0.66599 0.0
C352 C 0.90799 0.98642 0.55277 0.0
C353 C 0.92349 0.02049 0.66932 0.0
C354 C 0.88879 0.99315 0.60771 0.0
N355 N 0.97991 1.00252 0.50913 0.0
C356 C 0.99832 1.00008 0.45235 0.0
C357 C 0.94687 0.97538 0.44133 0.0
C358 C 0.95424 0.99149 0.50335 0.0
C359 C 0.96639 0.97126 0.38529 0.0
C360 C 0.99213 0.98393 0.3905 0.0
H361 H 0.8678 0.98559 0.6049 0.0
H362 H 0.88006 0.96186 0.48623 0.0
H363 H 0.91411 0.95215 0.38884 0.0
O364 O 0.99629 0.06259 0.53513 0.0
O365 O 0.9921 0.98303 0.61987 0.0
O366 O 0.0384 0.97734 0.6318 0.0
O367 O 0.95429 0.05812 0.57936 0.0
O368 O 0.03097 0.03847 0.56095 0.0
O369 O 0.0599 1.00705 0.61061 0.0
O370 O 0.0371 0.96831 0.78465 0.0
O371 O 0.04371 0.05343 0.7375 0.0
O372 O 0.99859 0.06126 0.70656 0.0
O373 O 0.08114 0.97742 0.76462 0.0
O374 O 1.0051 1.00135 0.78636 0.0
O375 O 0.97647 0.03325 0.73612 0.0
C376 C 0.01411 0.96741 0.6123 0.0
C377 C 0.96406 0.09615 0.49424 0.0
C378 C 0.97962 0.13857 0.43774 0.0
C379 C 0.95236 0.14789 0.43578 0.0
C380 C 0.93681 0.10541 0.49168 0.0
C381 C 0.93101 0.13118 0.46202 0.0
C382 C 0.98528 0.11255 0.46548 0.0
C383 C 0.05437 0.0248 0.5587 0.0
C384 C 0.97114 0.07177 0.5369 0.0
C385 C 0.90075 0.97005 0.49164 0.0
C386 C 0.92014 0.96451 0.43616 0.0
C387 C 0.02237 0.07026 0.73289 0.0
C388 C 0.06867 0.93442 0.8266 0.0
C389 C 0.05045 0.89515 0.89184 0.0
C390 C 0.07719 0.88648 0.90827 0.0
C391 C 0.09557 0.92599 0.84235 0.0
C392 C 0.04641 0.91846 0.84967 0.0
C393 C 0.09977 0.90184 0.88265 0.0
C394 C 0.98265 0.01638 0.79027 0.0
C395 C 0.06267 0.96057 0.79153 0.0
H396 H 0.94771 0.16804 0.41409 0.0
H397 H 0.92019 0.09317 0.51472 0.0
H398 H 0.91002 0.13844 0.46084 0.0
H399 H 1.00649 0.10578 0.46764 0.0
H400 H 0.08049 0.86817 0.94084 0.0
H401 H 0.11311 0.93821 0.82486 0.0
H402 H 0.02545 0.92462 0.83766 0.0
H403 H 0.12048 0.89533 0.89522 0.0
Eu404 Eu 0.52583 0.0509 0.73464 0.0
C405 C 0.52156 0.92391 0.60546 0.0
N406 N 0.52842 0.94809 0.57247 0.0
C407 C 0.55648 0.92438 0.4838 0.0
C408 C 0.53182 0.89886 0.57793 0.0
C409 C 0.54542 0.94865 0.51194 0.0
C410 C 0.54966 0.89937 0.5169 0.0
C411 C 0.49462 0.89907 0.69733 0.0
C412 C 0.50311 0.92405 0.66456 0.0
C413 C 0.50495 0.87417 0.67024 0.0
C414 C 0.52351 0.87406 0.61081 0.0
Eu415 Eu 0.50717 0.98781 0.62079 0.0
N416 N 0.49295 0.9484 0.68886 0.0
C417 C 0.47562 0.89975 0.7557 0.0
C418 C 0.47416 0.94897 0.74546 0.0
C419 C 0.46543 0.92484 0.77998 0.0
H420 H 0.54984 0.96781 0.48406 0.0
H421 H 0.45082 0.92567 0.82532 0.0
H422 H 0.47686 0.06983 0.85925 0.0
H423 H 0.61258 0.1169 0.65645 0.0
H424 H 0.46642 0.96802 0.76644 0.0
H425 H 0.46863 0.88102 0.7822 0.0
H426 H 0.59015 0.07378 0.69296 0.0
H427 H 0.56988 0.92491 0.43582 0.0
H428 H 0.49851 0.85484 0.6945 0.0
H429 H 0.53106 0.85463 0.59007 0.0
H430 H 0.45188 0.11173 0.89485 0.0
H431 H 0.55793 0.88054 0.49417 0.0
H432 H 0.58674 0.16044 0.66163 0.0
N433 N 0.50247 0.09022 0.78022 0.0
C434 C 0.5118 0.11485 0.75554 0.0
C435 C 0.46833 0.11286 0.85439 0.0
C436 C 0.49848 0.13943 0.77543 0.0
C437 C 0.48234 0.08911 0.83335 0.0
C438 C 0.47582 0.13803 0.82334 0.0
N439 N 0.55068 0.09186 0.7102 0.0
C440 C 0.5781 0.09226 0.69261 0.0
C441 C 0.54934 0.14114 0.70205 0.0
C442 C 0.53691 0.11572 0.7196 0.0
C443 C 0.5765 0.14136 0.67599 0.0
C444 C 0.59116 0.11685 0.67303 0.0
H445 H 0.46511 0.15645 0.8403 0.0
H446 H 0.49918 0.18373 0.76505 0.0
H447 H 0.54378 0.1852 0.70021 0.0
O448 O 0.55846 0.03058 0.79384 0.0
O449 O 0.51108 0.0631 0.61736 0.0
O450 O 0.52162 0.0249 0.54888 0.0
O451 O 0.53916 0.0684 0.8392 0.0
O452 O 0.56217 0.03699 0.65798 0.0
O453 O 0.55252 0.99643 0.5968 0.0
O454 O 0.47038 1.00215 0.56643 0.0
O455 O 0.52521 0.97801 0.73479 0.0
O456 O 0.50915 0.01402 0.80172 0.0
O457 O 0.4903 0.96389 0.52876 0.0
O458 O 0.4692 1.00474 0.68238 0.0
O459 O 0.47913 0.04455 0.74411 0.0
C460 C 0.51476 0.05122 0.5519 0.0
C461 C 0.57481 0.04765 0.91174 0.0
C462 C 0.61287 0.0264 0.97261 0.0
C463 C 0.61115 0.0454 0.03086 0.0
C464 C 0.57273 0.06685 0.96968 0.0
C465 C 0.5909 0.0656 0.02941 0.0
C466 C 0.59468 0.02736 0.91392 0.0
C467 C 0.56998 0.01594 0.616 0.0
C468 C 0.55707 0.04881 0.84757 0.0
C469 C 0.50941 0.16467 0.75157 0.0
C470 C 0.53484 0.16552 0.71481 0.0
C471 C 0.51852 0.98864 0.79938 0.0
C472 C 0.44881 0.97752 0.46564 0.0
C473 C 0.40891 0.99601 0.4053 0.0
C474 C 0.41096 0.97596 0.34965 0.0
C475 C 0.45102 0.95739 0.41019 0.0
C476 C 0.42715 0.99609 0.46439 0.0
C477 C 0.43188 0.95649 0.35265 0.0
C478 C 0.46107 0.02606 0.72167 0.0
C479 C 0.47006 0.981 0.52142 0.0
H480 H 0.62557 0.04475 0.07646 0.0
H481 H 0.55732 0.0828 0.96858 0.0
H482 H 0.58947 0.08043 0.07397 0.0
H483 H 0.59668 0.01259 0.86913 0.0
H484 H 0.39662 0.97563 0.30382 0.0
H485 H 0.46776 0.94283 0.41042 0.0
H486 H 0.42518 0.0117 0.50707 0.0
H487 H 0.43364 0.94111 0.30956 0.0
Eu488 Eu 0.5442 0.50741 0.60713 0.0
C489 C 0.43353 0.50156 0.79774 0.0
N490 N 0.44114 0.51244 0.73125 0.0
C491 C 0.39709 0.50014 0.68028 0.0
C492 C 0.40758 0.48879 0.80704 0.0
C493 C 0.42276 0.51297 0.67397 0.0
C494 C 0.38961 0.48762 0.74672 0.0
C495 C 0.44252 0.49594 0.92924 0.0
C496 C 0.45089 0.5049 0.85829 0.0
C497 C 0.41724 0.48223 0.93778 0.0
C498 C 0.39986 0.4786 0.87681 0.0
Eu499 Eu 0.48558 0.53317 0.72804 0.0
N500 N 0.47528 0.51823 0.84881 0.0
C501 C 0.45945 0.50175 0.99003 0.0
C502 C 0.4911 0.52532 0.90841 0.0
C503 C 0.48369 0.51679 0.97962 0.0
H504 H 0.427 0.52401 0.62384 0.0
H505 H 0.49657 0.52201 0.02649 0.0
H506 H 0.60259 0.50927 0.71203 0.0
H507 H 0.5229 0.55514 0.34079 0.0
H508 H 0.50942 0.53767 0.90174 0.0
H509 H 0.45369 0.49527 0.04536 0.0
H510 H 0.51321 0.52607 0.44901 0.0
H511 H 0.38284 0.50045 0.63429 0.0
H512 H 0.41062 0.47497 0.99172 0.0
H513 H 0.38007 0.46863 0.88472 0.0
H514 H 0.64776 0.53166 0.70885 0.0
H515 H 0.36949 0.47808 0.75176 0.0
H516 H 0.56703 0.58048 0.33221 0.0
N517 N 0.58778 0.52919 0.61476 0.0
C518 C 0.59443 0.54556 0.55617 0.0
C519 C 0.63283 0.53605 0.66615 0.0
C520 C 0.62063 0.55812 0.55127 0.0
C521 C 0.60678 0.52381 0.66851 0.0
C522 C 0.63976 0.55336 0.60752 0.0
N523 N 0.55027 0.53666 0.50471 0.0
C524 C 0.53206 0.53776 0.44747 0.0
C525 C 0.58198 0.56559 0.4376 0.0
C526 C 0.57528 0.54929 0.49964 0.0
C527 C 0.56264 0.56814 0.38072 0.0
C528 C 0.53769 0.55392 0.38537 0.0
H529 H 0.66012 0.56253 0.60545 0.0
H530 H 0.64723 0.58426 0.48516 0.0
H531 H 0.61343 0.59083 0.3859 0.0
O532 O 0.5457 0.483 0.50704 0.0
O533 O 0.54129 0.55492 0.62311 0.0
O534 O 0.49519 0.56083 0.62785 0.0
O535 O 0.57891 0.48005 0.58557 0.0
O536 O 0.50063 0.49772 0.55948 0.0
O537 O 0.47379 0.53146 0.60691 0.0
O538 O 0.49544 0.5714 0.7814 0.0
O539 O 0.49005 0.48603 0.74318 0.0
O540 O 0.53079 0.47306 0.68717 0.0
O541 O 0.45189 0.56065 0.75979 0.0
O542 O 0.52903 0.53646 0.77987 0.0
O543 O 0.55516 0.50237 0.7296 0.0
C544 C 0.51974 0.5708 0.61183 0.0
C545 C 0.56718 0.44021 0.51659 0.0
C546 C 0.54611 0.39998 0.46071 0.0
C547 C 0.56474 0.38313 0.4982 0.0
C548 C 0.5858 0.42325 0.55413 0.0
C549 C 0.58453 0.3948 0.54481 0.0
C550 C 0.54759 0.42835 0.46922 0.0
C551 C 0.47767 0.51226 0.55729 0.0
C552 C 0.56806 0.47017 0.52527 0.0
C553 C 0.62717 0.57457 0.48986 0.0
C554 C 0.60792 0.57832 0.4333 0.0
C555 C 0.50893 0.4672 0.7283 0.0
C556 C 0.46171 0.60419 0.82036 0.0
C557 C 0.47751 0.64422 0.88646 0.0
C558 C 0.45067 0.64889 0.91238 0.0
C559 C 0.43475 0.60884 0.84512 0.0
C560 C 0.48257 0.62288 0.83739 0.0
C561 C 0.42921 0.63152 0.89017 0.0
C562 C 0.54997 0.5194 0.78456 0.0
C563 C 0.46953 0.57824 0.78695 0.0
H564 H 0.56402 0.36106 0.49099 0.0
H565 H 0.60128 0.43194 0.59049 0.0
H566 H 0.59891 0.38179 0.57367 0.0
H567 H 0.53334 0.44105 0.43858 0.0
H568 H 0.44652 0.66562 0.95031 0.0
H569 H 0.41834 0.59446 0.8323 0.0
H570 H 0.50347 0.61956 0.81809 0.0
H571 H 0.40852 0.63497 0.9103 0.0
Eu572 Eu 0.02758 0.54987 0.60213 0.0
C573 C 0.04045 0.4366 0.78967 0.0
N574 N 0.02627 0.44385 0.72763 0.0
C575 C 0.03724 0.40052 0.67154 0.0
C576 C 0.05459 0.41144 0.79328 0.0
C577 C 0.02328 0.42549 0.67071 0.0
C578 C 0.0534 0.39369 0.7324 0.0
C579 C 0.0522 0.44565 0.91849 0.0
C580 C 0.0393 0.45346 0.8519 0.0
C581 C 0.06744 0.42135 0.92073 0.0
C582 C 0.06865 0.4043 0.85829 0.0
Eu583 Eu 1.00629 0.48829 0.73206 0.0
N584 N 0.02422 0.47669 0.84874 0.0
C585 C 0.0486 0.46203 0.98165 0.0
C586 C 0.01901 0.49167 0.91132 0.0
C587 C 0.03152 0.48489 0.97829 0.0
H588 H 1.00969 0.42935 0.62498 0.0
H589 H 0.0278 0.49716 0.02734 0.0
H590 H 0.02338 0.60997 0.6988 0.0
H591 H 0.99733 0.52872 0.31534 0.0
H592 H 1.00514 0.5089 0.90999 0.0
H593 H 0.05812 0.45667 0.03382 0.0
H594 H 0.02165 0.52013 0.43174 0.0
H595 H 0.03515 0.38633 0.62562 0.0
H596 H 0.07769 0.41514 0.97118 0.0
H597 H 0.07982 0.38518 0.86162 0.0
H598 H 1.00026 0.65433 0.68717 0.0
H599 H 0.06394 0.37418 0.7331 0.0
H600 H 0.96924 0.57044 0.3012 0.0
N601 N 1.00607 0.59326 0.59951 0.0
C602 C 0.99196 0.59879 0.53625 0.0
C603 C 0.99733 0.63875 0.64501 0.0
C604 C 0.97881 0.62431 0.52704 0.0
C605 C 1.01005 0.6133 0.65182 0.0
C606 C 0.98127 0.64413 0.58294 0.0
N607 N 1.00622 0.5558 0.48602 0.0
C608 C 1.00911 0.53817 0.42757 0.0
C609 C 0.97817 0.58554 0.41154 0.0
C610 C 0.99196 0.57964 0.47831 0.0
C611 C 0.97966 0.56666 0.35316 0.0
C612 C 0.99554 0.54311 0.36084 0.0
H613 H 0.97165 0.66402 0.57751 0.0
H614 H 0.95417 0.64918 0.45369 0.0
H615 H 0.95333 0.61518 0.35313 0.0
O616 O 0.05291 0.56638 0.51305 0.0
O617 O 0.98133 0.54097 0.5889 0.0
O618 O 0.97094 0.5011 0.65313 0.0
O619 O 0.05928 0.58044 0.62594 0.0
O620 O 0.037 0.5073 0.55163 0.0
O621 O 1.00839 0.4764 0.61058 0.0
O622 O 0.96966 0.5 0.78968 0.0
O623 O 0.05189 0.49711 0.74681 0.0
O624 O 0.06465 0.52975 0.66021 0.0
O625 O 0.97956 0.45579 0.77593 0.0
O626 O 0.01899 0.52775 0.79272 0.0
O627 O 1.00966 0.56305 0.71483 0.0
C628 C 0.96381 0.52156 0.60893 0.0
C629 C 0.09801 0.57842 0.54862 0.0
C630 C 0.13811 0.55334 0.50706 0.0
C631 C 0.15504 0.57526 0.52913 0.0
C632 C 0.11506 0.6002 0.57093 0.0
C633 C 0.14351 0.59855 0.56148 0.0
C634 C 0.10964 0.5547 0.51771 0.0
C635 C 0.02403 0.48328 0.55397 0.0
C636 C 0.06822 0.58091 0.55779 0.0
C637 C 0.96448 0.62975 0.46137 0.0
C638 C 0.96405 0.61039 0.40402 0.0
C639 C 0.07067 0.51235 0.71386 0.0
C640 C 0.93755 0.46754 0.84137 0.0
C641 C 0.89829 0.48416 0.90856 0.0
C642 C 0.8905 0.45721 0.92641 0.0
C643 C 0.93007 0.4404 0.85848 0.0
C644 C 0.9212 0.48912 0.86495 0.0
C645 C 0.90637 0.43529 0.90063 0.0
C646 C 0.01362 0.55375 0.78218 0.0
C647 C 0.96265 0.4743 0.80157 0.0
H648 H 0.17708 0.57446 0.52035 0.0
H649 H 0.10633 0.61854 0.59527 0.0
H650 H 0.1566 0.61548 0.57831 0.0
H651 H 0.09669 0.53768 0.50015 0.0
H652 H 0.87241 0.45328 0.96001 0.0
H653 H 0.94256 0.42335 0.84008 0.0
H654 H 0.92664 0.5102 0.85173 0.0
H655 H 0.90053 0.41442 0.91408 0.0
C656 C 0.09365 0.05844 0.39217 0.0
C657 C 0.10892 0.03613 0.36262 0.0
C658 C 0.09139 1.00668 0.4644 0.0
C659 C 0.07461 0.02867 0.49318 0.0
N660 N 0.06796 0.07781 0.49537 0.0
N661 N 0.11705 0.98763 0.36091 0.0
C662 C 0.07773 0.05514 0.45925 0.0
C663 C 0.10636 1.01003 0.3964 0.0
N664 N 0.09398 0.08287 0.35516 0.0
N665 N 0.09496 0.98278 0.50277 0.0
H666 H 0.12844 0.98892 0.31197 0.0
H667 H 0.11223 0.96748 0.37557 0.0
H668 H 0.08454 0.97678 0.55002 0.0
H669 H 0.11062 0.96898 0.49053 0.0
H670 H 0.08063 0.09895 0.36663 0.0
H671 H 0.10635 0.0864 0.30876 0.0
H672 H 0.07124 0.09787 0.47769 0.0
H673 H 0.05954 0.07715 0.54847 0.0
C674 C 0.49616 0.07893 0.35209 0.0
C675 C 0.5068 0.10623 0.35443 0.0
C676 C 0.52441 0.09675 0.48042 0.0
C677 C 0.51368 0.06922 0.48015 0.0
N678 N 0.49466 0.03288 0.40332 0.0
N679 N 0.53707 0.13845 0.41413 0.0
C680 C 0.50125 0.05994 0.41213 0.0
C681 C 0.52231 0.11443 0.41713 0.0
N682 N 0.48042 0.0713 0.29267 0.0
N683 N 0.53814 0.10595 0.54081 0.0
H684 H 0.53677 0.15165 0.36879 0.0
H685 H 0.55171 0.14433 0.45316 0.0
H686 H 0.54704 0.0923 0.57686 0.0
H687 H 0.5413 0.12663 0.55283 0.0
H688 H 0.47045 0.05248 0.28736 0.0
H689 H 0.47555 0.08471 0.2498 0.0
H690 H 0.48897 0.02404 0.3531 0.0
H691 H 0.49702 0.01832 0.44417 0.0
C692 C 0.42655 0.52655 0.39411 0.0
C693 C 0.4173 0.50005 0.37319 0.0
C694 C 0.44862 0.48102 0.46941 0.0
C695 C 0.45586 0.50799 0.49538 0.0
N696 N 0.4402 0.55582 0.49427 0.0
N697 N 0.41661 0.45182 0.40031 0.0
C698 C 0.44159 0.53057 0.46143 0.0
C699 C 0.42776 0.4772 0.41307 0.0
N700 N 0.42148 0.54834 0.34875 0.0
N701 N 0.46068 0.45863 0.50039 0.0
H702 H 0.40149 0.44824 0.36049 0.0
H703 H 0.42043 0.43479 0.43333 0.0
H704 H 0.47192 0.45928 0.54937 0.0
H705 H 0.45975 0.4393 0.47609 0.0
H706 H 0.4304 0.56763 0.35711 0.0
H707 H 0.41104 0.54639 0.29854 0.0
H708 H 0.42762 0.57136 0.47418 0.0
H709 H 0.44837 0.56103 0.54525 0.0
C710 C 1.00829 0.42381 0.41329 0.0
C711 C 0.03298 0.42236 0.37108 0.0
C712 C 0.05293 0.45844 0.45325 0.0
C713 C 0.02712 0.46231 0.49023 0.0
N714 N 0.97841 0.4504 0.49264 0.0
N715 N 0.07756 0.44182 0.34448 0.0
C716 C 1.00439 0.44535 0.46693 0.0
C717 C 0.05479 0.4409 0.38894 0.0
N718 N 0.98824 0.4044 0.40253 0.0
N719 N 0.07631 0.46983 0.48236 0.0
H720 H 0.08031 0.42859 0.29958 0.0
H721 H 0.09261 0.45707 0.34874 0.0
H722 H 0.07666 0.48052 0.53238 0.0
H723 H 0.09595 0.46582 0.46196 0.0
H724 H 0.97157 0.40177 0.43831 0.0
H725 H 0.98929 0.38945 0.36123 0.0
H726 H 0.96084 0.44133 0.47021 0.0
H727 H 0.97359 0.4655 0.531 0.0
C728 C 0.93104 0.03653 0.94728 0.0
C729 C 0.92697 0.01144 0.98598 0.0
C730 C 0.95713 0.98879 0.89293 0.0
C731 C 0.96368 0.01454 0.85876 0.0
N732 N 0.96131 0.06395 0.87015 0.0
N733 N 0.94051 0.96447 1.00217 0.0
C734 C 0.95169 0.03866 0.89034 0.0
C735 C 0.94135 0.98785 0.96065 0.0
N736 N 0.91485 0.05851 0.96411 0.0
N737 N 0.96464 0.96491 0.85901 0.0
H738 H 0.92901 0.96283 0.0509 0.0
H739 H 0.95306 0.94767 0.99174 0.0
H740 H 0.9747 0.96434 0.8082 0.0
H741 H 0.95826 0.94559 0.87705 0.0
H742 H 0.91454 0.07633 0.93234 0.0
H743 H 0.89984 0.05795 1.00556 0.0
H744 H 0.95517 0.08208 0.8958 0.0
H745 H 0.97807 0.06667 0.83503 0.0
C746 C 0.50344 0.9527 0.99034 0.0
C747 C 0.52425 0.93224 0.99247 0.0
C748 C 0.54392 0.95259 0.87752 0.0
C749 C 0.52098 0.97064 0.86938 0.0
N750 N 0.47644 0.98431 0.91685 0.0
N751 N 0.56273 0.91102 0.93155 0.0
C752 C 0.50022 0.96992 0.92592 0.0
C753 C 0.54391 0.9317 0.93389 0.0
N754 N 0.48665 0.95597 0.05051 0.0
N755 N 0.56676 0.95644 0.83432 0.0
H756 H 0.5643 0.89625 0.97303 0.0
H757 H 0.57535 0.90734 0.88587 0.0
H758 H 0.56871 0.97259 0.79688 0.0
H759 H 0.58507 0.94586 0.84202 0.0
H760 H 0.47349 0.97259 0.05701 0.0
H761 H 0.48755 0.9433 0.09694 0.0
H762 H 0.45933 0.98195 0.95115 0.0
H763 H 0.4725 0.99671 0.87138 0.0
C764 C 0.60038 0.4971 0.94238 0.0
C765 C 0.60626 0.52227 0.97955 0.0
C766 C 0.57781 0.54594 0.88505 0.0
C767 C 0.56939 0.52042 0.85236 0.0
N768 N 0.56901 0.47102 0.86476 0.0
N769 N 0.59546 0.57006 0.99333 0.0
C770 C 0.5798 0.49584 0.88506 0.0
C771 C 0.59343 0.54646 0.95284 0.0
N772 N 0.615 0.47424 0.96042 0.0
N773 N 0.57242 0.56995 0.84936 0.0
H774 H 0.60658 0.57142 0.04258 0.0
H775 H 0.58392 0.58742 0.98171 0.0
H776 H 0.56299 0.57061 0.79789 0.0
H777 H 0.58021 0.58891 0.86634 0.0
H778 H 0.61406 0.45608 0.92994 0.0
H779 H 0.63005 0.47422 1.00153 0.0
H780 H 0.5735 0.45277 0.89196 0.0
H781 H 0.55319 0.46893 0.82656 0.0
C782 C 0.03147 0.59044 0.96982 0.0
C783 C 1.0098 0.60982 0.97778 0.0
C784 C 0.98939 0.59128 0.86062 0.0
C785 C 0.01225 0.57331 0.84963 0.0
N786 N 0.05714 0.55909 0.89111 0.0
N787 N 0.96839 0.6293 0.92866 0.0
C788 C 0.03367 0.57367 0.90403 0.0
C789 C 0.98896 0.61043 0.92215 0.0
N790 N 0.05012 0.5878 0.02591 0.0
N791 N 0.96722 0.58902 0.81443 0.0
H792 H 0.96623 0.642 0.97489 0.0
H793 H 0.9542 0.63348 0.88723 0.0
H794 H 0.96609 0.5748 0.77136 0.0
H795 H 0.94884 0.59948 0.82183 0.0
H796 H 0.06399 0.57167 0.0295 0.0
H797 H 0.05055 0.6007 0.07206 0.0
H798 H 0.07492 0.56097 0.92279 0.0
H799 H 0.05998 0.54677 0.84468 0.0
C800 C 0.02309 0.18228 0.30995 0.0
C801 C 0.04434 0.19095 0.359 0.0
C802 C 0.02313 0.16562 0.46007 0.0
C803 C 1.00251 0.15594 0.41042 0.0
N804 N 0.98745 0.14871 0.28454 0.0
N805 N 0.06856 0.18585 0.47398 0.0
C806 C 1.00389 0.1623 0.33412 0.0
C807 C 0.04574 0.18082 0.43189 0.0
N808 N 0.02058 0.19381 0.24131 0.0
N809 N 0.02023 0.16179 0.53452 0.0
H810 H 0.08529 0.19731 0.45451 0.0
H811 H 0.07195 0.17661 0.52511 0.0
H812 H 1.00289 0.15249 0.55711 0.0
H813 H 0.03337 0.17035 0.57392 0.0
H814 H 1.00346 0.19073 0.20757 0.0
H815 H 0.03455 0.20804 0.21993 0.0
H816 H 0.9896 0.15063 0.22733 0.0
H817 H 0.97346 0.13344 0.30013 0.0
C818 C 0.37456 0.06418 0.36987 0.0
C819 C 0.34728 0.05467 0.36304 0.0
C820 C 0.36006 1.00993 0.41164 0.0
C821 C 0.3879 0.01743 0.40119 0.0
N822 N 0.42257 0.05197 0.37512 0.0
N823 N 0.31284 0.0191 0.37933 0.0
C824 C 0.39552 0.04487 0.38343 0.0
C825 C 0.33949 0.0279 0.38628 0.0
N826 N 0.38018 0.09151 0.36131 0.0
N827 N 0.35349 0.98572 0.44573 0.0
H828 H 0.29692 0.0319 0.36277 0.0
H829 H 0.30674 0.99874 0.38633 0.0
H830 H 0.3684 0.97225 0.46531 0.0
H831 H 0.3335 0.98026 0.46095 0.0
H832 H 0.39936 0.10039 0.37133 0.0
H833 H 0.36475 0.10578 0.35074 0.0
H834 H 0.42917 0.07098 0.35568 0.0
H835 H 0.43861 0.03832 0.38368 0.0
C836 C 0.51849 0.35902 0.30079 0.0
C837 C 0.48991 0.35792 0.31835 0.0
C838 C 0.49772 0.38627 0.42765 0.0
C839 C 0.52601 0.38806 0.40855 0.0
N840 N 0.56128 0.38402 0.31513 0.0
N841 N 0.4514 0.37597 0.38649 0.0
C842 C 0.53566 0.37719 0.34082 0.0
C843 C 0.47922 0.37358 0.3777 0.0
N844 N 0.52988 0.34113 0.25108 0.0
N845 N 0.48871 0.39543 0.4948 0.0
H846 H 0.43741 0.36703 0.34969 0.0
H847 H 0.44236 0.38875 0.4258 0.0
H848 H 0.50111 0.40677 0.53031 0.0
H849 H 0.46929 0.39084 0.51625 0.0
H850 H 0.55106 0.33938 0.24334 0.0
H851 H 0.51877 0.32611 0.22282 0.0
H852 H 0.56821 0.37865 0.26237 0.0
H853 H 0.57444 0.3974 0.34344 0.0
C854 C 0.17556 0.48662 0.4697 0.0
C855 C 0.18368 0.49146 0.39557 0.0
C856 C 0.15463 0.53219 0.39005 0.0
C857 C 0.15032 0.52991 0.46736 0.0
N858 N 0.1551 0.50518 0.58194 0.0
N859 N 0.18192 0.51891 0.28392 0.0
C860 C 0.16 0.50693 0.50747 0.0
C861 C 0.17315 0.51404 0.3549 0.0
N862 N 0.18273 0.46263 0.50337 0.0
N863 N 0.1409 0.55169 0.35045 0.0
H864 H 0.19476 0.5057 0.25459 0.0
H865 H 0.17788 0.53694 0.25522 0.0
H866 H 0.12746 0.56567 0.37489 0.0
H867 H 0.14086 0.55254 0.29281 0.0
H868 H 0.17555 0.45663 0.55526 0.0
H869 H 0.19437 0.44763 0.47666 0.0
H870 H 0.16398 0.49061 0.61632 0.0
H871 H 0.14283 0.51923 0.61028 0.0
C872 C 0.98421 0.88152 0.99633 0.0
C873 C 0.97711 0.85582 0.96588 0.0
C874 C 0.01465 0.85898 0.87713 0.0
C875 C 0.02564 0.88106 0.91907 0.0
N876 N 0.01986 0.91608 1.01313 0.0
N877 N 0.9728 0.83468 0.84621 0.0
C878 C 1.00979 0.89363 0.97625 0.0
C879 C 0.98846 0.84849 0.89662 0.0
N880 N 0.96712 0.8927 0.04815 0.0
N881 N 0.02891 0.84833 0.81848 0.0
H882 H 0.95169 0.83214 0.85408 0.0
H883 H 0.97941 0.83026 0.79255 0.0
H884 H 0.04776 0.85626 0.80045 0.0
H885 H 0.02279 0.83051 0.79088 0.0
H886 H 0.97028 0.91161 0.07359 0.0
H887 H 0.94862 0.88295 0.06239 0.0
H888 H 1.01005 0.92533 0.05786 0.0
H889 H 0.03898 0.92489 1.00119 0.0
C890 C 0.65391 0.96384 0.0168 0.0
C891 C 0.6797 0.9727 0.98966 0.0
C892 C 0.65953 0.01266 0.93181 0.0
C893 C 0.63474 1.00613 0.96957 0.0
N894 N 0.60482 0.97207 0.02453 0.0
N895 N 0.70579 0.99829 0.89971 0.0
C896 C 0.63065 0.98032 1.00375 0.0
C897 C 0.68188 0.99447 0.93838 0.0
N898 N 0.65258 0.9411 0.06073 0.0
N899 N 0.66198 0.03675 0.89342 0.0
H900 H 0.72238 0.98498 0.90477 0.0
H901 H 0.70843 0.01288 0.85827 0.0
H902 H 0.64567 0.05029 0.8863 0.0
H903 H 0.68033 0.04402 0.87078 0.0
H904 H 0.63516 0.9351 0.09036 0.0
H905 H 0.66971 0.9286 0.06859 0.0
H906 H 0.60027 0.95259 0.04489 0.0
H907 H 0.58742 0.98411 0.0162 0.0
C908 C 0.5224 0.70498 0.93421 0.0
C909 C 0.54287 0.69213 0.97788 0.0
C910 C 0.52156 0.64744 0.9578 0.0
C911 C 0.50104 0.66035 0.91396 0.0
N912 N 0.48584 0.70078 0.84743 0.0
N913 N 0.56661 0.65148 0.01491 0.0
C914 C 0.50287 0.68864 0.89727 0.0
C915 C 0.5441 0.66333 0.98341 0.0
N916 N 0.52063 0.73291 0.92975 0.0
N917 N 0.51857 0.62066 0.97922 0.0
H918 H 0.5834 0.66303 0.03361 0.0
H919 H 0.56977 0.63043 0.01641 0.0
H920 H 0.50164 0.60852 0.96512 0.0
H921 H 0.53159 0.61108 0.0167 0.0
H922 H 0.50531 0.74264 0.8992 0.0
H923 H 0.53368 0.74637 0.95773 0.0
H924 H 0.47126 0.69023 0.81573 0.0
H925 H 0.47126 0.69023 0.81573 0.0
C926 C 0.88106 0.54884 1.01339 0.0
C927 C 0.85403 0.55291 0.9883 0.0
C928 C 0.85871 0.51582 0.898 0.0
C929 C 0.88315 0.50813 0.93493 0.0
N930 N 0.91904 0.51727 0.02455 0.0
N931 N 0.82011 0.54716 0.89224 0.0
C932 C 0.89517 0.52501 0.99062 0.0
C933 C 0.84394 0.53879 0.92497 0.0
N934 N 0.89207 0.56715 0.06261 0.0
N935 N 0.8496 0.50077 0.8386 0.0
H936 H 0.80976 0.56476 0.90859 0.0
H937 H 0.8112 0.53803 0.84602 0.0
H938 H 0.86058 0.48438 0.81621 0.0
H939 H 0.83132 0.50413 0.8105 0.0
H940 H 0.9123 0.56664 0.08126 0.0
H941 H 0.88108 0.58439 0.07991 0.0
H942 H 0.92762 0.52749 0.06966 0.0
H943 H 0.92964 0.49943 1.01069 0.0
C944 C 0.04609 0.13494 0.84551 0.0
C945 C 0.02882 0.15619 0.81941 0.0
C946 C 1.00869 0.12216 0.73131 0.0
C947 C 0.02429 0.10023 0.76283 0.0
N948 N 0.04676 0.08702 0.87515 0.0
N949 N 0.98938 0.16812 0.74596 0.0
C950 C 0.04034 0.107 0.82626 0.0
C951 C 1.00866 0.14914 0.76505 0.0
N952 N 0.06808 0.1411 0.88951 0.0
N953 N 0.99443 0.11748 0.66773 0.0
H954 H 0.98866 0.18764 0.76964 0.0
H955 H 0.97265 0.164 0.71183 0.0
H956 H 0.99907 0.10101 0.63359 0.0
H957 H 0.98026 0.13088 0.64497 0.0
H958 H 0.08243 0.12635 0.90494 0.0
H959 H 0.07335 0.16119 0.90409 0.0
H960 H 0.0564 0.0911 0.92558 0.0
H961 H 0.03727 0.06796 0.87124 0.0
C962 C 0.38545 1.00961 0.79146 0.0
C963 C 0.37818 0.03517 0.82431 0.0
C964 C 0.42021 0.05544 0.76725 0.0
C965 C 0.43046 0.02907 0.74655 0.0
N966 N 0.41776 0.98163 0.72276 0.0
N967 N 0.38987 0.08256 0.84547 0.0
C968 C 0.41158 1.00633 0.75389 0.0
C969 C 0.39601 0.05804 0.81283 0.0
N970 N 0.36662 0.98861 0.79303 0.0
N971 N 0.43181 0.07831 0.73633 0.0
H972 H 0.37209 0.08556 0.87694 0.0
H973 H 0.40345 0.0992 0.84592 0.0
H974 H 0.44718 0.07724 0.69598 0.0
H975 H 0.42377 0.09793 0.74291 0.0
H976 H 0.36848 0.97046 0.76305 0.0
H977 H 0.34798 0.98983 0.82157 0.0
H978 H 0.40914 0.9631 0.74006 0.0
H979 H 0.43032 0.9797 0.67643 0.0
C980 C 0.51769 0.38827 0.76807 0.0
C981 C 0.50193 0.38446 0.83408 0.0
C982 C 0.49556 0.43475 0.83679 0.0
C983 C 0.50667 0.4383 0.76419 0.0
N984 N 0.5248 0.41498 0.65638 0.0
N985 N 0.47041 0.40501 0.92063 0.0
C986 C 0.51673 0.41401 0.7286 0.0
C987 C 0.48901 0.40797 0.86451 0.0
N988 N 0.53487 0.36794 0.7448 0.0
N989 N 0.49458 0.45647 0.88387 0.0
H990 H 0.46444 0.38584 0.94094 0.0
H991 H 0.45891 0.42145 0.94075 0.0
H992 H 0.50436 0.47485 0.87074 0.0
H993 H 0.48886 0.45449 0.93935 0.0
H994 H 0.54902 0.37052 0.70184 0.0
H995 H 0.53725 0.34966 0.77382 0.0
H996 H 0.53063 0.39756 0.62695 0.0
H997 H 0.5224 0.4323 0.62349 0.0
C998 C 0.14496 0.52973 0.78335 0.0
C999 C 0.1544 0.50355 0.80659 0.0
C1000 C 0.11182 0.48315 0.7538 0.0
C1001 C 0.10045 0.50965 0.7408 0.0
N1002 N 0.10605 0.55876 0.75515 0.0
N1003 N 0.14473 0.45535 0.82122 0.0
C1004 C 0.11711 0.53311 0.75817 0.0
C1005 C 0.13715 0.4803 0.79403 0.0
N1006 N 0.16272 0.55157 0.78454 0.0
N1007 N 0.09932 0.46058 0.72361 0.0
H1008 H 0.16334 0.45228 0.84858 0.0
H1009 H 0.13161 0.43835 0.82175 0.0
H1010 H 0.08218 0.46195 0.68919 0.0
H1011 H 0.10776 0.441 0.7253 0.0
H1012 H 0.15836 0.57031 0.75966 0.0
H1013 H 0.18278 0.55022 0.80457 0.0
H1014 H 0.11614 0.57624 0.77471 0.0
H1015 H 0.08574 0.56242 0.74049 0.0
C1016 C 0.98961 0.8917 0.57048 0.0
C1017 C 1.00824 0.88307 0.51363 0.0
C1018 C 0.02824 0.93032 0.51584 0.0
C1019 C 0.01163 0.93829 0.57765 0.0
N1020 N 0.97907 0.92369 0.6706 0.0
N1021 N 0.04954 0.89361 0.44512 0.0
C1022 C 0.99295 0.91813 0.60652 0.0
C1023 C 0.02869 0.90229 0.49014 0.0
N1024 N 0.96797 0.875 0.58874 0.0
N1025 N 0.04262 0.94989 0.47809 0.0
H1026 H 0.05111 0.87344 0.42624 0.0
H1027 H 0.06675 0.90566 0.43285 0.0
H1028 H 0.04206 0.97047 0.49296 0.0
H1029 H 0.05253 0.94621 0.42779 0.0
H1030 H 0.95195 0.88101 0.6235 0.0
H1031 H 0.96471 0.85592 0.56385 0.0
H1032 H 0.96771 0.90908 0.6998 0.0
H1033 H 0.98096 0.94236 0.69825 0.0
C1034 C 0.63935 0.03618 0.51809 0.0
C1035 C 0.65414 0.01097 0.51698 0.0
C1036 C 0.61551 0.99029 0.59015 0.0
C1037 C 0.59941 0.01464 0.58352 0.0
N1038 N 0.59489 0.0585 0.52405 0.0
N1039 N 0.65338 0.96253 0.54357 0.0
C1040 C 0.61116 0.03699 0.54313 0.0
C1041 C 0.64137 0.98765 0.55098 0.0
N1042 N 0.65245 0.05982 0.49733 0.0
N1043 N 0.60664 0.96985 0.63627 0.0
H1044 H 0.67181 0.95961 0.515 0.0
H1045 H 0.64385 0.94428 0.55958 0.0
H1046 H 0.58842 0.97104 0.66672 0.0
H1047 H 0.61857 0.95295 0.65006 0.0
H1048 H 0.64386 0.07918 0.50441 0.0
H1049 H 0.67297 0.06035 0.48024 0.0
H1050 H 0.60128 0.07426 0.48897 0.0
H1051 H 0.57397 0.05874 0.53602 0.0
C1052 C 0.50648 0.63647 0.49165 0.0
C1053 C 0.52724 0.65526 0.51539 0.0
C1054 C 0.5421 0.61971 0.60656 0.0
C1055 C 0.52296 0.59994 0.57774 0.0
N1056 N 0.49165 0.58924 0.47845 0.0
N1057 N 0.56786 0.66241 0.58912 0.0
C1058 C 0.50645 0.6084 0.51652 0.0
C1059 C 0.54588 0.64614 0.57116 0.0
N1060 N 0.48581 0.64561 0.44705 0.0
N1061 N 0.55589 0.61387 0.67025 0.0
H1062 H 0.57131 0.68154 0.56489 0.0
H1063 H 0.58391 0.65598 0.62289 0.0
H1064 H 0.55333 0.59539 0.69807 0.0
H1065 H 0.5677 0.62819 0.69921 0.0
H1066 H 0.46839 0.6339 0.43469 0.0
H1067 H 0.48463 0.66582 0.42855 0.0
H1068 H 0.48198 0.5932 0.42816 0.0
H1069 H 0.49163 0.56865 0.49289 0.0
C1070 C 0.88324 0.52657 0.59305 0.0
C1071 C 0.87895 0.52598 0.51452 0.0
C1072 C 0.92949 0.51951 0.49968 0.0
C1073 C 0.93427 0.5225 0.57724 0.0
N1074 N 0.91496 0.53356 0.69647 0.0
N1075 N 0.90017 0.52872 0.39399 0.0
C1076 C 0.91085 0.52734 0.62349 0.0
C1077 C 0.90275 0.52438 0.46839 0.0
N1078 N 0.86093 0.52535 0.63915 0.0
N1079 N 0.95031 0.51055 0.45538 0.0
H1080 H 0.88141 0.53319 0.369 0.0
H1081 H 0.91702 0.53086 0.35856 0.0
H1082 H 0.96976 0.50632 0.47603 0.0
H1083 H 0.94749 0.50466 0.40036 0.0
H1084 H 0.86243 0.52296 0.69628 0.0
H1085 H 0.84078 0.52439 0.61966 0.0
H1086 H 0.89939 0.54012 0.73197 0.0
H1087 H 0.93451 0.53441 0.72007 0.0
loop_
_geom_bond_atom_site_label_1
_geom_bond_atom_site_label_2
_geom_bond_distance
_geom_bond_site_symmetry_2
_ccdc_geom_bond_type
C0 C1 1.264 . S
C0 C5 1.479 . S
C0 C10 1.465 . S
C1 C0 1.264 . S
C1 C3 1.339 . S
C1 H28 0.931 . S
C2 C3 1.395 . S
C2 C4 1.320 . S
C3 C1 1.339 . S
C3 C2 1.395 . S
C3 H29 0.929 . S
C4 C2 1.320 . S
C4 C5 1.405 . S
C4 H30 0.930 . S
C5 C0 1.479 . S
C5 C4 1.405 . S
C5 H31 0.931 . S
U6 O7 2.454 . S
U6 O8 2.458 . S
U6 C9 2.984 . S
U6 C10 2.847 . S
U6 C23 2.882 . S
U6 O24 2.441 . S
U6 O25 2.420 . S
U6 O26 2.455 . S
U6 O27 2.449 . S
O7 U6 2.454 . S
O7 C9 1.353 . S
O8 U6 2.458 . S
O8 C9 1.286 . S
C9 U6 2.984 . S
C9 O7 1.353 . S
C9 O8 1.286 . S
C9 C11 1.363 . S
C10 C0 1.465 . S
C10 U6 2.847 . S
C10 O24 1.249 . S
C10 O25 1.202 . S
C11 C9 1.363 . S
C11 C13 1.408 . S
C11 C16 1.342 . S
C12 C13 1.310 . S
C12 C15 1.461 . S
C12 H32 0.932 . S
C13 C11 1.408 . S
C13 C12 1.310 . S
C13 H33 0.930 . S
C14 C15 1.474 . S
C14 C16 1.285 . S
C14 H34 0.929 . S
C15 C12 1.461 . S
C15 C14 1.474 . S
C16 C11 1.342 . S
C16 C14 1.285 . S
C16 H35 0.930 . S
C17 C20 1.424 . S
C17 C22 1.245 . S
C17 C23 1.428 . S
C18 C21 1.260 1_556 S
C18 C22 1.477 1_556 S
C18 H36 0.932 . S
C19 C20 1.384 . S
C19 C21 1.479 . S
C19 H37 0.929 . S
C20 C17 1.424 . S
C20 C19 1.384 . S
C20 H38 0.928 . S
C21 C18 1.260 1_554 S
C21 C19 1.479 . S
C22 C17 1.245 . S
C22 C18 1.477 1_554 S
C22 H39 0.932 . S
C23 U6 2.882 . S
C23 C17 1.428 . S
C23 O26 1.301 . S
C23 O27 1.282 . S
O24 U6 2.441 . S
O24 C10 1.249 . S
O25 U6 2.420 . S
O25 C10 1.202 . S
O26 U6 2.455 . S
O26 C23 1.301 . S
O27 U6 2.449 . S
O27 C23 1.282 . S
H28 C1 0.931 . S
H29 C3 0.929 . S
H30 C4 0.930 . S
H31 C5 0.931 . S
H32 C12 0.932 . S
H33 C13 0.930 . S
H34 C14 0.929 . S
H35 C16 0.930 . S
H36 C18 0.932 . S
H37 C19 0.929 . S
H38 C20 0.928 . S
H39 C22 0.932 . S
C40 C41 1.264 . S
C40 C45 1.479 . S
C40 C50 1.465 . S
C41 C40 1.264 . S
C41 C43 1.339 . S
C41 H68 0.931 . S
C42 C43 1.395 . S
C42 C44 1.320 . S
C43 C41 1.339 . S
C43 C42 1.395 . S
C43 H69 0.929 . S
C44 C42 1.320 . S
C44 C45 1.405 . S
C44 H70 0.930 . S
C45 C40 1.479 . S
C45 C44 1.405 . S
C45 H71 0.931 . S
U46 O47 2.454 . S
U46 O48 2.458 . S
U46 C49 2.984 . S
U46 C50 2.847 . S
U46 C63 2.882 . S
U46 O64 2.441 . S
U46 O65 2.420 . S
U46 O66 2.455 . S
U46 O67 2.449 . S
O47 U46 2.454 . S
O47 C49 1.353 . S
O48 U46 2.458 . S
O48 C49 1.286 . S
C49 U46 2.984 . S
C49 O47 1.353 . S
C49 O48 1.286 . S
C49 C51 1.363 . S
C50 C40 1.465 . S
C50 U46 2.847 . S
C50 O64 1.249 . S
C50 O65 1.202 . S
C51 C49 1.363 . S
C51 C53 1.408 . S
C51 C56 1.342 . S
C52 C53 1.310 . S
C52 C55 1.461 . S
C52 H72 0.932 . S
C53 C51 1.408 . S
C53 C52 1.310 . S
C53 H73 0.930 . S
C54 C55 1.474 . S
C54 C56 1.285 . S
C54 H74 0.929 . S
C55 C52 1.461 . S
C55 C54 1.474 . S
C56 C51 1.342 . S
C56 C54 1.285 . S
C56 H75 0.930 . S
C57 C60 1.424 . S
C57 C62 1.245 . S
C57 C63 1.428 . S
C58 C61 1.260 1_556 S
C58 C62 1.477 1_556 S
C58 H76 0.932 . S
C59 C60 1.384 . S
C59 C61 1.479 . S
C59 H77 0.929 . S
C60 C57 1.424 . S
C60 C59 1.384 . S
C60 H78 0.928 . S
C61 C58 1.260 1_554 S
C61 C59 1.479 . S
C62 C57 1.245 . S
C62 C58 1.477 1_554 S
C62 H79 0.932 . S
C63 U46 2.882 . S
C63 C57 1.428 . S
C63 O66 1.301 . S
C63 O67 1.282 . S
O64 U46 2.441 . S
O64 C50 1.249 . S
O65 U46 2.420 . S
O65 C50 1.202 . S
O66 U46 2.455 . S
O66 C63 1.301 . S
O67 U46 2.449 . S
O67 C63 1.282 . S
H68 C41 0.931 . S
H69 C43 0.929 . S
H70 C44 0.930 . S
H71 C45 0.931 . S
H72 C52 0.932 . S
H73 C53 0.930 . S
H74 C54 0.929 . S
H75 C56 0.930 . S
H76 C58 0.932 . S
H77 C59 0.929 . S
H78 C60 0.928 . S
H79 C62 0.932 . S
C80 C81 1.264 . S
C80 C85 1.479 . S
C80 C90 1.465 . S
C81 C80 1.264 . S
C81 C83 1.339 . S
C81 H108 0.931 . S
C82 C83 1.395 . S
C82 C84 1.320 . S
C83 C81 1.339 . S
C83 C82 1.395 . S
C83 H109 0.929 . S
C84 C82 1.320 . S
C84 C85 1.405 . S
C84 H110 0.930 . S
C85 C80 1.479 . S
C85 C84 1.405 . S
C85 H111 0.931 . S
U86 O87 2.454 . S
U86 O88 2.458 . S
U86 C89 2.984 . S
U86 C90 2.847 . S
U86 C103 2.882 . S
U86 O104 2.441 . S
U86 O105 2.420 . S
U86 O106 2.455 . S
U86 O107 2.449 . S
O87 U86 2.454 . S
O87 C89 1.353 . S
O88 U86 2.458 . S
O88 C89 1.286 . S
C89 U86 2.984 . S
C89 O87 1.353 . S
C89 O88 1.286 . S
C89 C91 1.363 . S
C90 C80 1.465 . S
C90 U86 2.847 . S
C90 O104 1.249 . S
C90 O105 1.202 . S
C91 C89 1.363 . S
C91 C93 1.408 . S
C91 C96 1.342 . S
C92 C93 1.310 . S
C92 C95 1.461 . S
C92 H112 0.932 . S
C93 C91 1.408 . S
C93 C92 1.310 . S
C93 H113 0.930 . S
C94 C95 1.474 . S
C94 C96 1.285 . S
C94 H114 0.929 . S
C95 C92 1.461 . S
C95 C94 1.474 . S
C96 C91 1.342 . S
C96 C94 1.285 . S
C96 H115 0.930 . S
C97 C100 1.424 . S
C97 C102 1.245 . S
C97 C103 1.428 . S
C98 C101 1.260 1_556 S
C98 C102 1.477 1_556 S
C98 H116 0.932 . S
C99 C100 1.384 . S
C99 C101 1.479 . S
C99 H117 0.929 . S
C100 C97 1.424 . S
C100 C99 1.384 . S
C100 H118 0.928 . S
C101 C98 1.260 1_554 S
C101 C99 1.479 . S
C102 C97 1.245 . S
C102 C98 1.477 1_554 S
C102 H119 0.932 . S
C103 U86 2.882 . S
C103 C97 1.428 . S
C103 O106 1.301 . S
C103 O107 1.282 . S
O104 U86 2.441 . S
O104 C90 1.249 . S
O105 U86 2.420 . S
O105 C90 1.202 . S
O106 U86 2.455 . S
O106 C103 1.301 . S
O107 U86 2.449 . S
O107 C103 1.282 . S
H108 C81 0.931 . S
H109 C83 0.929 . S
H110 C84 0.930 . S
H111 C85 0.931 . S
H112 C92 0.932 . S
H113 C93 0.930 . S
H114 C94 0.929 . S
H115 C96 0.930 . S
H116 C98 0.932 . S
H117 C99 0.929 . S
H118 C100 0.928 . S
H119 C102 0.932 . S
C120 C121 1.264 . S
C120 C125 1.479 . S
C120 C130 1.465 . S
C121 C120 1.264 . S
C121 C123 1.339 . S
C121 H148 0.931 . S
C122 C123 1.395 . S
C122 C124 1.320 . S
C123 C121 1.339 . S
C123 C122 1.395 . S
C123 H149 0.929 . S
C124 C122 1.320 . S
C124 C125 1.405 . S
C124 H150 0.930 . S
C125 C120 1.479 . S
C125 C124 1.405 . S
C125 H151 0.931 . S
U126 O127 2.454 . S
U126 O128 2.458 . S
U126 C129 2.984 . S
U126 C130 2.847 . S
U126 C143 2.882 . S
U126 O144 2.441 . S
U126 O145 2.420 . S
U126 O146 2.455 . S
U126 O147 2.449 . S
O127 U126 2.454 . S
O127 C129 1.353 . S
O128 U126 2.458 . S
O128 C129 1.286 . S
C129 U126 2.984 . S
C129 O127 1.353 . S
C129 O128 1.286 . S
C129 C131 1.363 . S
C130 C120 1.465 . S
C130 U126 2.847 . S
C130 O144 1.249 . S
C130 O145 1.202 . S
C131 C129 1.363 . S
C131 C133 1.408 . S
C131 C136 1.342 . S
C132 C133 1.310 . S
C132 C135 1.461 . S
C132 H152 0.932 . S
C133 C131 1.408 . S
C133 C132 1.310 . S
C133 H153 0.930 . S
C134 C135 1.474 . S
C134 C136 1.285 . S
C134 H154 0.929 . S
C135 C132 1.461 . S
C135 C134 1.474 . S
C136 C131 1.342 . S
C136 C134 1.285 . S
C136 H155 0.930 . S
C137 C140 1.424 . S
C137 C142 1.245 . S
C137 C143 1.428 . S
C138 C141 1.260 1_556 S
C138 C142 1.477 1_556 S
C138 H156 0.932 . S
C139 C140 1.384 . S
C139 C141 1.479 . S
C139 H157 0.929 . S
C140 C137 1.424 . S
C140 C139 1.384 . S
C140 H158 0.928 . S
C141 C138 1.260 1_554 S
C141 C139 1.479 . S
C142 C137 1.245 . S
C142 C138 1.477 1_554 S
C142 H159 0.932 . S
C143 U126 2.882 . S
C143 C137 1.428 . S
C143 O146 1.301 . S
C143 O147 1.282 . S
O144 U126 2.441 . S
O144 C130 1.249 . S
O145 U126 2.420 . S
O145 C130 1.202 . S
O146 U126 2.455 . S
O146 C143 1.301 . S
O147 U126 2.449 . S
O147 C143 1.282 . S
H148 C121 0.931 . S
H149 C123 0.929 . S
H150 C124 0.930 . S
H151 C125 0.931 . S
H152 C132 0.932 . S
H153 C133 0.930 . S
H154 C134 0.929 . S
H155 C136 0.930 . S
H156 C138 0.932 . S
H157 C139 0.929 . S
H158 C140 0.928 . S
H159 C142 0.932 . S
C160 C161 1.264 . S
C160 C165 1.479 . S
C160 C170 1.465 . S
C161 C160 1.264 . S
C161 C163 1.339 . S
C161 H188 0.931 . S
C162 C163 1.395 . S
C162 C164 1.320 . S
C163 C161 1.339 . S
C163 C162 1.395 . S
C163 H189 0.929 . S
C164 C162 1.320 . S
C164 C165 1.405 . S
C164 H190 0.930 . S
C165 C160 1.479 . S
C165 C164 1.405 . S
C165 H191 0.931 . S
U166 O167 2.454 . S
U166 O168 2.458 . S
U166 C169 2.984 . S
U166 C170 2.847 1_554 S
U166 C183 2.882 . S
U166 O184 2.441 1_554 S
U166 O185 2.420 1_554 S
U166 O186 2.455 . S
U166 O187 2.449 . S
O167 U166 2.454 . S
O167 C169 1.353 . S
O168 U166 2.458 . S
O168 C169 1.286 . S
C169 U166 2.984 . S
C169 O167 1.353 . S
C169 O168 1.286 . S
C169 C171 1.363 . S
C170 C160 1.465 . S
C170 U166 2.847 1_556 S
C170 O184 1.249 . S
C170 O185 1.202 . S
C171 C169 1.363 . S
C171 C173 1.408 . S
C171 C176 1.342 . S
C172 C173 1.310 . S
C172 C175 1.461 . S
C172 H192 0.932 . S
C173 C171 1.408 . S
C173 C172 1.310 . S
C173 H193 0.930 1_554 S
C174 C175 1.474 . S
C174 C176 1.285 . S
C174 H194 0.929 . S
C175 C172 1.461 . S
C175 C174 1.474 . S
C176 C171 1.342 . S
C176 C174 1.285 . S
C176 H195 0.930 . S
C177 C180 1.424 . S
C177 C182 1.245 . S
C177 C183 1.428 . S
C178 C181 1.260 . S
C178 C182 1.477 . S
C178 H196 0.932 . S
C179 C180 1.384 . S
C179 C181 1.479 . S
C179 H197 0.929 . S
C180 C177 1.424 . S
C180 C179 1.384 . S
C180 H198 0.928 . S
C181 C178 1.260 . S
C181 C179 1.479 . S
C182 C177 1.245 . S
C182 C178 1.477 . S
C182 H199 0.932 . S
C183 U166 2.882 . S
C183 C177 1.428 . S
C183 O186 1.301 . S
C183 O187 1.282 . S
O184 U166 2.441 1_556 S
O184 C170 1.249 . S
O185 U166 2.420 1_556 S
O185 C170 1.202 . S
O186 U166 2.455 . S
O186 C183 1.301 . S
O187 U166 2.449 . S
O187 C183 1.282 . S
H188 C161 0.931 . S
H189 C163 0.929 . S
H190 C164 0.930 . S
H191 C165 0.931 . S
H192 C172 0.932 . S
H193 C173 0.930 1_556 S
H194 C174 0.929 . S
H195 C176 0.930 . S
H196 C178 0.932 . S
H197 C179 0.929 . S
H198 C180 0.928 . S
H199 C182 0.932 . S
C200 C201 1.264 . S
C200 C205 1.479 . S
C200 C210 1.465 . S
C201 C200 1.264 . S
C201 C203 1.339 . S
C201 H228 0.931 . S
C202 C203 1.395 . S
C202 C204 1.320 . S
C203 C201 1.339 . S
C203 C202 1.395 . S
C203 H229 0.929 . S
C204 C202 1.320 . S
C204 C205 1.405 . S
C204 H230 0.930 . S
C205 C200 1.479 . S
C205 C204 1.405 . S
C205 H231 0.931 . S
U206 O207 2.454 . S
U206 O208 2.458 . S
U206 C209 2.984 . S
U206 C210 2.847 1_554 S
U206 C223 2.882 . S
U206 O224 2.441 1_554 S
U206 O225 2.420 1_554 S
U206 O226 2.455 . S
U206 O227 2.449 . S
O207 U206 2.454 . S
O207 C209 1.353 . S
O208 U206 2.458 . S
O208 C209 1.286 . S
C209 U206 2.984 . S
C209 O207 1.353 . S
C209 O208 1.286 . S
C209 C211 1.363 . S
C210 C200 1.465 . S
C210 U206 2.847 1_556 S
C210 O224 1.249 . S
C210 O225 1.202 . S
C211 C209 1.363 . S
C211 C213 1.408 . S
C211 C216 1.342 . S
C212 C213 1.310 . S
C212 C215 1.461 . S
C212 H232 0.932 . S
C213 C211 1.408 . S
C213 C212 1.310 . S
C213 H233 0.930 1_554 S
C214 C215 1.474 . S
C214 C216 1.285 . S
C214 H234 0.929 . S
C215 C212 1.461 . S
C215 C214 1.474 . S
C216 C211 1.342 . S
C216 C214 1.285 . S
C216 H235 0.930 . S
C217 C220 1.424 . S
C217 C222 1.245 . S
C217 C223 1.428 . S
C218 C221 1.260 . S
C218 C222 1.477 . S
C218 H236 0.932 . S
C219 C220 1.384 . S
C219 C221 1.479 . S
C219 H237 0.929 . S
C220 C217 1.424 . S
C220 C219 1.384 . S
C220 H238 0.928 . S
C221 C218 1.260 . S
C221 C219 1.479 . S
C222 C217 1.245 . S
C222 C218 1.477 . S
C222 H239 0.932 . S
C223 U206 2.882 . S
C223 C217 1.428 . S
C223 O226 1.301 . S
C223 O227 1.282 . S
O224 U206 2.441 1_556 S
O224 C210 1.249 . S
O225 U206 2.420 1_556 S
O225 C210 1.202 . S
O226 U206 2.455 . S
O226 C223 1.301 . S
O227 U206 2.449 . S
O227 C223 1.282 . S
H228 C201 0.931 . S
H229 C203 0.929 . S
H230 C204 0.930 . S
H231 C205 0.931 . S
H232 C212 0.932 . S
H233 C213 0.930 1_556 S
H234 C214 0.929 . S
H235 C216 0.930 . S
H236 C218 0.932 . S
H237 C219 0.929 . S
H238 C220 0.928 . S
H239 C222 0.932 . S
C240 C241 1.264 . S
C240 C245 1.479 . S
C240 C250 1.465 . S
C241 C240 1.264 . S
C241 C243 1.339 . S
C241 H268 0.931 . S
C242 C243 1.395 . S
C242 C244 1.320 . S
C243 C241 1.339 . S
C243 C242 1.395 . S
C243 H269 0.929 . S
C244 C242 1.320 . S
C244 C245 1.405 . S
C244 H270 0.930 . S
C245 C240 1.479 . S
C245 C244 1.405 . S
C245 H271 0.931 . S
U246 O247 2.454 . S
U246 O248 2.458 . S
U246 C249 2.984 . S
U246 C250 2.847 1_554 S
U246 C263 2.882 . S
U246 O264 2.441 1_554 S
U246 O265 2.420 1_554 S
U246 O266 2.455 . S
U246 O267 2.449 . S
O247 U246 2.454 . S
O247 C249 1.353 . S
O248 U246 2.458 . S
O248 C249 1.286 . S
C249 U246 2.984 . S
C249 O247 1.353 . S
C249 O248 1.286 . S
C249 C251 1.363 . S
C250 C240 1.465 . S
C250 U246 2.847 1_556 S
C250 O264 1.249 . S
C250 O265 1.202 . S
C251 C249 1.363 . S
C251 C253 1.408 . S
C251 C256 1.342 . S
C252 C253 1.310 . S
C252 C255 1.461 . S
C252 H272 0.932 . S
C253 C251 1.408 . S
C253 C252 1.310 . S
C253 H273 0.930 1_554 S
C254 C255 1.474 . S
C254 C256 1.285 . S
C254 H274 0.929 . S
C255 C252 1.461 . S
C255 C254 1.474 . S
C256 C251 1.342 . S
C256 C254 1.285 . S
C256 H275 0.930 . S
C257 C260 1.424 . S
C257 C262 1.245 . S
C257 C263 1.428 . S
C258 C261 1.260 . S
C258 C262 1.477 . S
C258 H276 0.932 . S
C259 C260 1.384 . S
C259 C261 1.479 . S
C259 H277 0.929 . S
C260 C257 1.424 . S
C260 C259 1.384 . S
C260 H278 0.928 . S
C261 C258 1.260 . S
C261 C259 1.479 . S
C262 C257 1.245 . S
C262 C258 1.477 . S
C262 H279 0.932 . S
C263 U246 2.882 . S
C263 C257 1.428 . S
C263 O266 1.301 . S
C263 O267 1.282 . S
O264 U246 2.441 1_556 S
O264 C250 1.249 . S
O265 U246 2.420 1_556 S
O265 C250 1.202 . S
O266 U246 2.455 . S
O266 C263 1.301 . S
O267 U246 2.449 . S
O267 C263 1.282 . S
H268 C241 0.931 . S
H269 C243 0.929 . S
H270 C244 0.930 . S
H271 C245 0.931 . S
H272 C252 0.932 . S
H273 C253 0.930 1_556 S
H274 C254 0.929 . S
H275 C256 0.930 . S
H276 C258 0.932 . S
H277 C259 0.929 . S
H278 C260 0.928 . S
H279 C262 0.932 . S
C280 C281 1.264 . S
C280 C285 1.479 . S
C280 C290 1.465 . S
C281 C280 1.264 . S
C281 C283 1.339 . S
C281 H308 0.931 . S
C282 C283 1.395 . S
C282 C284 1.320 . S
C283 C281 1.339 . S
C283 C282 1.395 . S
C283 H309 0.929 . S
C284 C282 1.320 . S
C284 C285 1.405 . S
C284 H310 0.930 . S
C285 C280 1.479 . S
C285 C284 1.405 . S
C285 H311 0.931 . S
U286 O287 2.454 . S
U286 O288 2.458 . S
U286 C289 2.984 . S
U286 C290 2.847 1_554 S
U286 C303 2.882 . S
U286 O304 2.441 1_554 S
U286 O305 2.420 1_554 S
U286 O306 2.455 . S
U286 O307 2.449 . S
O287 U286 2.454 . S
O287 C289 1.353 . S
O288 U286 2.458 . S
O288 C289 1.286 . S
C289 U286 2.984 . S
C289 O287 1.353 . S
C289 O288 1.286 . S
C289 C291 1.363 . S
C290 C280 1.465 . S
C290 U286 2.847 1_556 S
C290 O304 1.249 . S
C290 O305 1.202 . S
C291 C289 1.363 . S
C291 C293 1.408 . S
C291 C296 1.342 . S
C292 C293 1.310 . S
C292 C295 1.461 . S
C292 H312 0.932 . S
C293 C291 1.408 . S
C293 C292 1.310 . S
C293 H313 0.930 1_554 S
C294 C295 1.474 . S
C294 C296 1.285 . S
C294 H314 0.929 . S
C295 C292 1.461 . S
C295 C294 1.474 . S
C296 C291 1.342 . S
C296 C294 1.285 . S
C296 H315 0.930 . S
C297 C300 1.424 . S
C297 C302 1.245 . S
C297 C303 1.428 . S
C298 C301 1.260 . S
C298 C302 1.477 . S
C298 H316 0.932 . S
C299 C300 1.384 . S
C299 C301 1.479 . S
C299 H317 0.929 . S
C300 C297 1.424 . S
C300 C299 1.384 . S
C300 H318 0.928 . S
C301 C298 1.260 . S
C301 C299 1.479 . S
C302 C297 1.245 . S
C302 C298 1.477 . S
C302 H319 0.932 . S
C303 U286 2.882 . S
C303 C297 1.428 . S
C303 O306 1.301 . S
C303 O307 1.282 . S
O304 U286 2.441 1_556 S
O304 C290 1.249 . S
O305 U286 2.420 1_556 S
O305 C290 1.202 . S
O306 U286 2.455 . S
O306 C303 1.301 . S
O307 U286 2.449 . S
O307 C303 1.282 . S
H308 C281 0.931 . S
H309 C283 0.929 . S
H310 C284 0.930 . S
H311 C285 0.931 . S
H312 C292 0.932 . S
H313 C293 0.930 1_556 S
H314 C294 0.929 . S
H315 C296 0.930 . S
H316 C298 0.932 . S
H317 C299 0.929 . S
H318 C300 0.928 . S
H319 C302 0.932 . S
Eu320 N349 2.600 . S
Eu320 N355 2.562 . S
Eu320 O364 2.462 . S
Eu320 O365 2.373 1_545 S
Eu320 O367 2.432 . S
Eu320 O368 2.291 1_655 S
Eu320 O372 2.335 1_655 S
Eu320 O375 2.372 . S
Eu320 C384 2.787 . S
C321 N322 1.384 . S
C321 C324 1.405 . S
C321 C328 1.448 . S
N322 C321 1.384 . S
N322 C325 1.314 1_545 S
N322 Eu331 2.591 1_545 S
C323 C325 1.397 1_545 S
C323 C326 1.367 . S
C323 H343 0.931 . S
C324 C321 1.405 . S
C324 C326 1.403 . S
C324 C330 1.439 . S
C325 N322 1.314 1_565 S
C325 C323 1.397 1_565 S
C325 H336 0.930 . S
C326 C323 1.367 . S
C326 C324 1.403 . S
C326 H347 0.929 . S
C327 C328 1.430 . S
C327 C329 1.387 . S
C327 C333 1.404 . S
C328 C321 1.448 . S
C328 C327 1.430 . S
C328 N332 1.351 . S
C329 C327 1.387 . S
C329 C330 1.374 . S
C329 H344 0.931 1_556 S
C330 C324 1.439 . S
C330 C329 1.374 . S
C330 H345 0.931 . S
Eu331 N322 2.591 1_565 S
Eu331 N332 2.562 1_565 S
Eu331 O366 2.335 . S
Eu331 O369 2.372 . S
Eu331 O370 2.462 . S
Eu331 O371 2.373 1_565 S
Eu331 O373 2.432 . S
Eu331 O374 2.291 1_465 S
Eu331 C395 2.787 . S
N332 C328 1.351 . S
N332 Eu331 2.562 1_545 S
N332 C334 1.325 . S
C333 C327 1.404 . S
C333 C335 1.366 . S
C333 H341 0.930 1_556 S
C334 N332 1.325 . S
C334 C335 1.416 . S
C334 H340 0.951 . S
C335 C333 1.366 . S
C335 C334 1.416 . S
C335 H337 0.930 1_556 S
H336 C325 0.930 . S
H337 C335 0.930 1_554 S
H338 C353 0.930 . S
H339 C360 0.930 1_455 S
H340 C334 0.951 . S
H341 C333 0.930 1_554 S
H342 C356 0.929 1_455 S
H343 C323 0.931 . S
H344 C329 0.931 1_554 S
H345 C330 0.931 . S
H346 C351 0.931 . S
H347 C326 0.929 . S
H348 C359 0.930 . S
N349 Eu320 2.600 . S
N349 C350 1.365 . S
N349 C353 1.319 . S
C350 N349 1.365 . S
C350 C352 1.405 1_545 S
C350 C358 1.447 1_545 S
C351 H346 0.931 . S
C351 C353 1.397 . S
C351 C354 1.367 1_545 S
C352 C350 1.405 1_565 S
C352 C354 1.403 . S
C352 C385 1.439 . S
C353 H338 0.930 . S
C353 N349 1.319 . S
C353 C351 1.397 . S
C354 C351 1.367 1_565 S
C354 C352 1.403 . S
C354 H361 0.929 . S
N355 Eu320 2.562 . S
N355 C356 1.325 . S
N355 C358 1.350 1_545 S
C356 H342 0.929 1_655 S
C356 N355 1.325 . S
C356 C360 1.416 1_545 S
C357 C358 1.431 . S
C357 C359 1.404 . S
C357 C386 1.387 . S
C358 C350 1.447 1_565 S
C358 N355 1.350 1_565 S
C358 C357 1.431 . S
C359 H348 0.930 . S
C359 C357 1.404 . S
C359 C360 1.366 . S
C360 H339 0.930 1_655 S
C360 C356 1.416 1_565 S
C360 C359 1.366 . S
H361 C354 0.929 . S
H362 C385 0.931 . S
H363 C386 0.931 . S
O364 Eu320 2.462 . S
O364 C384 1.252 . S
O365 Eu320 2.373 1_565 S
O365 C376 1.249 . S
O366 Eu331 2.335 . S
O366 C376 1.264 1_455 S
O367 Eu320 2.432 . S
O367 C384 1.268 . S
O368 Eu320 2.291 1_455 S
O368 C383 1.255 . S
O369 Eu331 2.372 . S
O369 C383 1.257 1_565 S
O370 Eu331 2.462 . S
O370 C395 1.252 . S
O371 Eu331 2.373 1_545 S
O371 C387 1.249 . S
O372 Eu320 2.335 1_455 S
O372 C387 1.264 . S
O373 Eu331 2.432 . S
O373 C395 1.268 . S
O374 Eu331 2.291 1_645 S
O374 C394 1.255 . S
O375 Eu320 2.372 . S
O375 C394 1.257 . S
C376 O365 1.249 . S
C376 O366 1.264 1_655 S
C377 C380 1.382 . S
C377 C382 1.390 . S
C377 C384 1.506 . S
C378 C379 1.398 . S
C378 C382 1.392 . S
C379 C378 1.398 . S
C379 C381 1.372 . S
C379 H396 0.931 . S
C380 C377 1.382 . S
C380 C381 1.390 . S
C380 H397 0.931 . S
C381 C379 1.372 . S
C381 C380 1.390 . S
C381 H398 0.929 . S
C382 C377 1.390 . S
C382 C378 1.392 . S
C382 H399 0.930 1_655 S
C383 O368 1.255 . S
C383 O369 1.257 1_545 S
C384 Eu320 2.787 . S
C384 O364 1.252 . S
C384 O367 1.268 . S
C384 C377 1.506 . S
C385 C352 1.439 . S
C385 H362 0.931 . S
C385 C386 1.374 . S
C386 C357 1.387 . S
C386 H363 0.931 . S
C386 C385 1.374 . S
C387 O371 1.249 . S
C387 O372 1.264 . S
C388 C391 1.382 . S
C388 C392 1.390 . S
C388 C395 1.506 . S
C389 C390 1.398 . S
C389 C392 1.392 . S
C390 C389 1.398 . S
C390 C393 1.372 . S
C390 H400 0.931 . S
C391 C388 1.382 . S
C391 C393 1.390 . S
C391 H401 0.931 . S
C392 C388 1.390 . S
C392 C389 1.392 . S
C392 H402 0.930 . S
C393 C390 1.372 . S
C393 C391 1.390 . S
C393 H403 0.929 . S
C394 O374 1.255 . S
C394 O375 1.257 . S
C395 Eu331 2.787 . S
C395 O370 1.252 . S
C395 O373 1.268 . S
C395 C388 1.506 . S
H396 C379 0.931 . S
H397 C380 0.931 . S
H398 C381 0.929 . S
H399 C382 0.930 1_455 S
H400 C390 0.931 . S
H401 C391 0.931 . S
H402 C392 0.930 . S
H403 C393 0.929 . S
Eu404 N433 2.600 . S
Eu404 N439 2.562 . S
Eu404 O448 2.462 . S
Eu404 O449 2.373 . S
Eu404 O451 2.432 . S
Eu404 O452 2.291 . S
Eu404 O456 2.335 1_545 S
Eu404 O459 2.372 . S
Eu404 C468 2.787 . S
C405 N406 1.365 . S
C405 C408 1.405 . S
C405 C412 1.448 . S
N406 C405 1.365 . S
N406 C409 1.319 . S
N406 Eu415 2.600 . S
C407 C409 1.397 . S
C407 C410 1.367 . S
C407 H427 0.931 . S
C408 C405 1.405 . S
C408 C410 1.403 . S
C408 C414 1.439 . S
C409 N406 1.319 . S
C409 C407 1.397 . S
C409 H420 0.930 . S
C410 C407 1.367 . S
C410 C408 1.403 . S
C410 H431 0.929 . S
C411 C412 1.430 . S
C411 C413 1.387 . S
C411 C417 1.404 . S
C412 C405 1.448 . S
C412 C411 1.430 . S
C412 N416 1.351 . S
C413 C411 1.387 . S
C413 C414 1.374 . S
C413 H428 0.931 . S
C414 C408 1.439 . S
C414 C413 1.374 . S
C414 H429 0.931 . S
Eu415 N406 2.600 . S
Eu415 N416 2.562 . S
Eu415 O450 2.335 1_565 S
Eu415 O453 2.372 . S
Eu415 O454 2.462 . S
Eu415 O455 2.373 . S
Eu415 O457 2.432 . S
Eu415 O458 2.291 1_565 S
Eu415 C479 2.787 . S
N416 C412 1.351 . S
N416 Eu415 2.562 . S
N416 C418 1.325 . S
C417 C411 1.404 . S
C417 C419 1.366 . S
C417 H425 0.930 . S
C418 N416 1.325 . S
C418 C419 1.416 . S
C418 H424 0.929 . S
C419 C417 1.366 . S
C419 C418 1.416 . S
C419 H421 0.930 . S
H420 C409 0.930 . S
H421 C419 0.930 . S
H422 C437 0.930 . S
H423 C444 0.930 . S
H424 C418 0.929 . S
H425 C417 0.930 . S
H426 C440 0.929 . S
H427 C407 0.931 . S
H428 C413 0.931 . S
H429 C414 0.931 . S
H430 C435 0.931 . S
H431 C410 0.929 . S
H432 C443 0.930 . S
N433 Eu404 2.600 . S
N433 C434 1.365 . S
N433 C437 1.319 . S
C434 N433 1.365 . S
C434 C436 1.405 . S
C434 C442 1.448 . S
C435 H430 0.931 . S
C435 C437 1.397 . S
C435 C438 1.367 . S
C436 C434 1.405 . S
C436 C438 1.403 . S
C436 C469 1.439 . S
C437 H422 0.930 . S
C437 N433 1.319 . S
C437 C435 1.397 . S
C438 C435 1.367 . S
C438 C436 1.403 . S
C438 H445 0.929 . S
N439 Eu404 2.562 . S
N439 C440 1.325 . S
N439 C442 1.351 . S
C440 H426 0.929 . S
C440 N439 1.325 . S
C440 C444 1.416 . S
C441 C442 1.430 . S
C441 C443 1.404 . S
C441 C470 1.387 . S
C442 C434 1.448 . S
C442 N439 1.351 . S
C442 C441 1.430 . S
C443 H432 0.930 . S
C443 C441 1.404 . S
C443 C444 1.366 . S
C444 H423 0.930 . S
C444 C440 1.416 . S
C444 C443 1.366 . S
H445 C438 0.929 . S
H446 C469 0.931 . S
H447 C470 0.931 . S
O448 Eu404 2.462 . S
O448 C468 1.252 . S
O449 Eu404 2.373 . S
O449 C460 1.249 . S
O450 Eu415 2.335 1_545 S
O450 C460 1.264 . S
O451 Eu404 2.432 . S
O451 C468 1.268 . S
O452 Eu404 2.291 . S
O452 C467 1.255 1_545 S
O453 Eu415 2.372 . S
O453 C467 1.257 . S
O454 Eu415 2.462 . S
O454 C479 1.252 . S
O455 Eu415 2.373 . S
O455 C471 1.249 . S
O456 Eu404 2.335 1_565 S
O456 C471 1.264 . S
O457 Eu415 2.432 . S
O457 C479 1.268 . S
O458 Eu415 2.291 1_545 S
O458 C478 1.255 . S
O459 Eu404 2.372 . S
O459 C478 1.257 . S
C460 O449 1.249 . S
C460 O450 1.264 . S
C461 C464 1.382 . S
C461 C466 1.390 . S
C461 C468 1.506 . S
C462 C463 1.398 1_556 S
C462 C466 1.392 . S
C463 C462 1.398 1_554 S
C463 C465 1.372 . S
C463 H480 0.931 . S
C464 C461 1.382 . S
C464 C465 1.390 1_556 S
C464 H481 0.931 . S
C465 C463 1.372 . S
C465 C464 1.390 1_554 S
C465 H482 0.929 . S
C466 C461 1.390 . S
C466 C462 1.392 . S
C466 H483 0.930 . S
C467 O452 1.255 1_565 S
C467 O453 1.257 . S
C468 Eu404 2.787 . S
C468 O448 1.252 . S
C468 O451 1.268 . S
C468 C461 1.506 . S
C469 C436 1.439 . S
C469 H446 0.931 . S
C469 C470 1.374 . S
C470 C441 1.387 . S
C470 H447 0.931 . S
C470 C469 1.374 . S
C471 O455 1.249 . S
C471 O456 1.264 . S
C472 C475 1.382 . S
C472 C476 1.390 . S
C472 C479 1.506 . S
C473 C474 1.398 . S
C473 C476 1.392 . S
C474 C473 1.398 . S
C474 C477 1.372 . S
C474 H484 0.931 . S
C475 C472 1.382 . S
C475 C477 1.390 . S
C475 H485 0.931 . S
C476 C472 1.390 . S
C476 C473 1.392 . S
C476 H486 0.930 1_565 S
C477 C474 1.372 . S
C477 C475 1.390 . S
C477 H487 0.929 . S
C478 O458 1.255 . S
C478 O459 1.257 . S
C479 Eu415 2.787 . S
C479 O454 1.252 . S
C479 O457 1.268 . S
C479 C472 1.506 . S
H480 C463 0.931 . S
H481 C464 0.931 . S
H482 C465 0.929 . S
H483 C466 0.930 . S
H484 C474 0.931 . S
H485 C475 0.931 . S
H486 C476 0.930 1_545 S
H487 C477 0.929 . S
Eu488 N517 2.600 . S
Eu488 N523 2.562 . S
Eu488 O532 2.462 . S
Eu488 O533 2.373 . S
Eu488 O535 2.432 . S
Eu488 O536 2.291 . S
Eu488 O540 2.335 . S
Eu488 O543 2.372 . S
Eu488 C552 2.787 . S
C489 N490 1.365 . S
C489 C492 1.405 . S
C489 C496 1.448 . S
N490 C489 1.365 . S
N490 C493 1.319 . S
N490 Eu499 2.600 . S
C491 C493 1.397 . S
C491 C494 1.367 . S
C491 H511 0.931 . S
C492 C489 1.405 . S
C492 C494 1.403 . S
C492 C498 1.439 . S
C493 N490 1.319 . S
C493 C491 1.397 . S
C493 H504 0.930 . S
C494 C491 1.367 . S
C494 C492 1.403 . S
C494 H515 0.929 . S
C495 C496 1.430 . S
C495 C497 1.387 . S
C495 C501 1.404 . S
C496 C489 1.448 . S
C496 C495 1.430 . S
C496 N500 1.351 . S
C497 C495 1.387 . S
C497 C498 1.374 . S
C497 H512 0.931 1_556 S
C498 C492 1.439 . S
C498 C497 1.374 . S
C498 H513 0.931 . S
Eu499 N490 2.600 . S
Eu499 N500 2.562 . S
Eu499 O534 2.335 . S
Eu499 O537 2.372 . S
Eu499 O538 2.462 . S
Eu499 O539 2.373 . S
Eu499 O541 2.432 . S
Eu499 O542 2.291 . S
Eu499 C563 2.787 . S
N500 C496 1.351 . S
N500 Eu499 2.562 . S
N500 C502 1.325 . S
C501 C495 1.404 . S
C501 C503 1.366 . S
C501 H509 0.930 1_556 S
C502 N500 1.325 . S
C502 C503 1.416 . S
C502 H508 0.929 . S
C503 C501 1.366 . S
C503 C502 1.416 . S
C503 H505 0.930 1_556 S
H504 C493 0.930 . S
H505 C503 0.930 1_554 S
H506 C521 0.930 . S
H507 C528 0.930 . S
H508 C502 0.929 . S
H509 C501 0.930 1_554 S
H510 C524 0.929 . S
H511 C491 0.931 . S
H512 C497 0.931 1_554 S
H513 C498 0.931 . S
H514 C519 0.931 . S
H515 C494 0.929 . S
H516 C527 0.930 . S
N517 Eu488 2.600 . S
N517 C518 1.365 . S
N517 C521 1.319 . S
C518 N517 1.365 . S
C518 C520 1.405 . S
C518 C526 1.448 . S
C519 H514 0.931 . S
C519 C521 1.397 . S
C519 C522 1.367 . S
C520 C518 1.405 . S
C520 C522 1.403 . S
C520 C553 1.439 . S
C521 H506 0.930 . S
C521 N517 1.319 . S
C521 C519 1.397 . S
C522 C519 1.367 . S
C522 C520 1.403 . S
C522 H529 0.929 . S
N523 Eu488 2.562 . S
N523 C524 1.325 . S
N523 C526 1.351 . S
C524 H510 0.929 . S
C524 N523 1.325 . S
C524 C528 1.416 . S
C525 C526 1.430 . S
C525 C527 1.404 . S
C525 C554 1.387 . S
C526 C518 1.448 . S
C526 N523 1.351 . S
C526 C525 1.430 . S
C527 H516 0.930 . S
C527 C525 1.404 . S
C527 C528 1.366 . S
C528 H507 0.930 . S
C528 C524 1.416 . S
C528 C527 1.366 . S
H529 C522 0.929 . S
H530 C553 0.931 . S
H531 C554 0.931 . S
O532 Eu488 2.462 . S
O532 C552 1.252 . S
O533 Eu488 2.373 . S
O533 C544 1.249 . S
O534 Eu499 2.335 . S
O534 C544 1.264 . S
O535 Eu488 2.432 . S
O535 C552 1.268 . S
O536 Eu488 2.291 . S
O536 C551 1.255 . S
O537 Eu499 2.372 . S
O537 C551 1.257 . S
O538 Eu499 2.462 . S
O538 C563 1.252 . S
O539 Eu499 2.373 . S
O539 C555 1.249 . S
O540 Eu488 2.335 . S
O540 C555 1.264 . S
O541 Eu499 2.432 . S
O541 C563 1.268 . S
O542 Eu499 2.291 . S
O542 C562 1.255 . S
O543 Eu488 2.372 . S
O543 C562 1.257 . S
C544 O533 1.249 . S
C544 O534 1.264 . S
C545 C548 1.382 . S
C545 C550 1.390 . S
C545 C552 1.506 . S
C546 C547 1.398 . S
C546 C550 1.392 . S
C547 C546 1.398 . S
C547 C549 1.372 . S
C547 H564 0.931 . S
C548 C545 1.382 . S
C548 C549 1.390 . S
C548 H565 0.931 . S
C549 C547 1.372 . S
C549 C548 1.390 . S
C549 H566 0.929 . S
C550 C545 1.390 . S
C550 C546 1.392 . S
C550 H567 0.930 . S
C551 O536 1.255 . S
C551 O537 1.257 . S
C552 Eu488 2.787 . S
C552 O532 1.252 . S
C552 O535 1.268 . S
C552 C545 1.506 . S
C553 C520 1.439 . S
C553 H530 0.931 . S
C553 C554 1.374 . S
C554 C525 1.387 . S
C554 H531 0.931 . S
C554 C553 1.374 . S
C555 O539 1.249 . S
C555 O540 1.264 . S
C556 C559 1.382 . S
C556 C560 1.390 . S
C556 C563 1.506 . S
C557 C558 1.398 . S
C557 C560 1.392 . S
C558 C557 1.398 . S
C558 C561 1.372 . S
C558 H568 0.931 . S
C559 C556 1.382 . S
C559 C561 1.390 . S
C559 H569 0.931 . S
C560 C556 1.390 . S
C560 C557 1.392 . S
C560 H570 0.930 . S
C561 C558 1.372 . S
C561 C559 1.390 . S
C561 H571 0.929 . S
C562 O542 1.255 . S
C562 O543 1.257 . S
C563 Eu499 2.787 . S
C563 O538 1.252 . S
C563 O541 1.268 . S
C563 C556 1.506 . S
H564 C547 0.931 . S
H565 C548 0.931 . S
H566 C549 0.929 . S
H567 C550 0.930 . S
H568 C558 0.931 . S
H569 C559 0.931 . S
H570 C560 0.930 . S
H571 C561 0.929 . S
Eu572 N601 2.600 . S
Eu572 N607 2.562 . S
Eu572 O616 2.462 . S
Eu572 O617 2.373 1_455 S
Eu572 O619 2.432 . S
Eu572 O620 2.291 . S
Eu572 O624 2.335 . S
Eu572 O627 2.372 . S
Eu572 C636 2.787 . S
C573 N574 1.365 1_455 S
C573 C576 1.405 . S
C573 C580 1.448 . S
N574 C573 1.365 1_655 S
N574 C577 1.319 . S
N574 Eu583 2.600 . S
C575 C577 1.397 1_455 S
C575 C578 1.367 . S
C575 H595 0.931 . S
C576 C573 1.405 . S
C576 C578 1.403 . S
C576 C582 1.439 . S
C577 N574 1.319 . S
C577 C575 1.397 1_655 S
C577 H588 0.930 . S
C578 C575 1.367 . S
C578 C576 1.403 . S
C578 H599 0.929 . S
C579 C580 1.430 . S
C579 C581 1.387 . S
C579 C585 1.404 . S
C580 C573 1.448 . S
C580 C579 1.430 . S
C580 N584 1.351 . S
C581 C579 1.387 . S
C581 C582 1.374 . S
C581 H596 0.931 1_556 S
C582 C576 1.439 . S
C582 C581 1.374 . S
C582 H597 0.931 . S
Eu583 N574 2.600 . S
Eu583 N584 2.562 1_655 S
Eu583 O618 2.335 . S
Eu583 O621 2.372 . S
Eu583 O622 2.462 . S
Eu583 O623 2.373 1_655 S
Eu583 O625 2.432 . S
Eu583 O626 2.300 . S
Eu583 C647 2.787 . S
N584 C580 1.351 . S
N584 Eu583 2.562 1_455 S
N584 C586 1.325 . S
C585 C579 1.404 . S
C585 C587 1.366 . S
C585 H593 0.930 1_556 S
C586 N584 1.325 . S
C586 C587 1.416 . S
C586 H592 0.926 1_455 S
C587 C585 1.366 . S
C587 C586 1.416 . S
C587 H589 0.930 1_556 S
H588 C577 0.930 . S
H589 C587 0.930 1_554 S
H590 C605 0.930 . S
H591 C612 0.930 . S
H592 C586 0.926 1_655 S
H593 C585 0.930 1_554 S
H594 C608 0.929 . S
H595 C575 0.931 . S
H596 C581 0.931 1_554 S
H597 C582 0.931 . S
H598 C603 0.931 . S
H599 C578 0.929 . S
H600 C611 0.930 . S
N601 Eu572 2.600 . S
N601 C602 1.365 . S
N601 C605 1.319 . S
C602 N601 1.365 . S
C602 C604 1.405 1_455 S
C602 C610 1.448 1_455 S
C603 H598 0.931 . S
C603 C605 1.397 . S
C603 C606 1.367 1_455 S
C604 C602 1.405 1_655 S
C604 C606 1.403 . S
C604 C637 1.439 . S
C605 H590 0.930 . S
C605 N601 1.319 . S
C605 C603 1.397 . S
C606 C603 1.367 1_655 S
C606 C604 1.403 . S
C606 H613 0.929 . S
N607 Eu572 2.562 . S
N607 C608 1.325 . S
N607 C610 1.351 1_455 S
C608 H594 0.929 . S
C608 N607 1.325 . S
C608 C612 1.416 1_455 S
C609 C610 1.430 . S
C609 C611 1.404 . S
C609 C638 1.387 . S
C610 C602 1.448 1_655 S
C610 N607 1.351 1_655 S
C610 C609 1.430 . S
C611 H600 0.930 . S
C611 C609 1.404 . S
C611 C612 1.366 . S
C612 H591 0.930 . S
C612 C608 1.416 1_655 S
C612 C611 1.366 . S
H613 C606 0.929 . S
H614 C637 0.931 . S
H615 C638 0.931 . S
O616 Eu572 2.462 . S
O616 C636 1.252 . S
O617 Eu572 2.373 1_655 S
O617 C628 1.249 . S
O618 Eu583 2.335 . S
O618 C628 1.264 . S
O619 Eu572 2.432 . S
O619 C636 1.268 . S
O620 Eu572 2.291 . S
O620 C635 1.255 . S
O621 Eu583 2.372 . S
O621 C635 1.257 1_655 S
O622 Eu583 2.462 . S
O622 C647 1.252 . S
O623 Eu583 2.373 1_455 S
O623 C639 1.249 . S
O624 Eu572 2.335 . S
O624 C639 1.264 . S
O625 Eu583 2.432 . S
O625 C647 1.268 . S
O626 Eu583 2.300 . S
O626 C646 1.249 1_655 S
O627 Eu572 2.372 . S
O627 C646 1.257 . S
C628 O617 1.249 . S
C628 O618 1.264 . S
C629 C632 1.382 . S
C629 C634 1.390 . S
C629 C636 1.506 . S
C630 C631 1.398 . S
C630 C634 1.392 . S
C631 C630 1.398 . S
C631 C633 1.372 . S
C631 H648 0.931 . S
C632 C629 1.382 . S
C632 C633 1.390 . S
C632 H649 0.931 . S
C633 C631 1.372 . S
C633 C632 1.390 . S
C633 H650 0.929 . S
C634 C629 1.390 . S
C634 C630 1.392 . S
C634 H651 0.930 . S
C635 O620 1.255 . S
C635 O621 1.257 1_455 S
C636 Eu572 2.787 . S
C636 O616 1.252 . S
C636 O619 1.268 . S
C636 C629 1.506 . S
C637 C604 1.439 . S
C637 H614 0.931 . S
C637 C638 1.374 . S
C638 C609 1.387 . S
C638 H615 0.931 . S
C638 C637 1.374 . S
C639 O623 1.249 . S
C639 O624 1.264 . S
C640 C643 1.382 . S
C640 C644 1.390 . S
C640 C647 1.506 . S
C641 C642 1.398 . S
C641 C644 1.392 . S
C642 C641 1.398 . S
C642 C645 1.372 . S
C642 H652 0.931 . S
C643 C640 1.382 . S
C643 C645 1.390 . S
C643 H653 0.931 . S
C644 C640 1.390 . S
C644 C641 1.392 . S
C644 H654 0.930 . S
C645 C642 1.372 . S
C645 C643 1.390 . S
C645 H655 0.929 . S
C646 O626 1.249 1_455 S
C646 O627 1.257 . S
C647 Eu583 2.787 . S
C647 O622 1.252 . S
C647 O625 1.268 . S
C647 C640 1.506 . S
H648 C631 0.931 . S
H649 C632 0.931 . S
H650 C633 0.929 . S
H651 C634 0.930 . S
H652 C642 0.931 . S
H653 C643 0.931 . S
H654 C644 0.930 . S
H655 C645 0.929 . S
C656 C657 1.363 . S
C656 C662 1.379 . S
C656 N664 1.356 . S
C657 C656 1.363 . S
C657 C663 1.363 . S
C658 C659 1.363 . S
C658 C663 1.379 . S
C658 N665 1.356 1_545 S
C659 C658 1.363 . S
C659 C662 1.363 . S
N660 C662 1.356 . S
N660 H672 0.984 . S
N660 H673 0.985 . S
N661 C663 1.358 1_565 S
N661 H666 0.986 1_565 S
N661 H667 0.982 . S
C662 C656 1.379 . S
C662 C659 1.363 . S
C662 N660 1.356 . S
C663 C657 1.363 . S
C663 C658 1.379 . S
C663 N661 1.358 1_545 S
N664 C656 1.356 . S
N664 H670 0.984 . S
N664 H671 0.984 . S
N665 C658 1.356 1_565 S
N665 H668 0.984 . S
N665 H669 0.985 . S
H666 N661 0.986 1_545 S
H667 N661 0.982 . S
H668 N665 0.984 . S
H669 N665 0.985 . S
H670 N664 0.984 . S
H671 N664 0.984 . S
H672 N660 0.984 . S
H673 N660 0.985 . S
C674 C675 1.363 . S
C674 C680 1.379 . S
C674 N682 1.356 . S
C675 C674 1.363 . S
C675 C681 1.363 . S
C676 C677 1.363 . S
C676 C681 1.379 . S
C676 N683 1.356 . S
C677 C676 1.363 . S
C677 C680 1.363 . S
N678 C680 1.356 . S
N678 H690 0.984 . S
N678 H691 0.985 . S
N679 C681 1.356 . S
N679 H684 0.984 . S
N679 H685 0.985 . S
C680 C674 1.379 . S
C680 C677 1.363 . S
C680 N678 1.356 . S
C681 C675 1.363 . S
C681 C676 1.379 . S
C681 N679 1.356 . S
N682 C674 1.356 . S
N682 H688 0.984 . S
N682 H689 0.984 . S
N683 C676 1.356 . S
N683 H686 0.984 . S
N683 H687 0.985 . S
H684 N679 0.984 . S
H685 N679 0.985 . S
H686 N683 0.984 . S
H687 N683 0.985 . S
H688 N682 0.984 . S
H689 N682 0.984 . S
H690 N678 0.984 . S
H691 N678 0.985 . S
C692 C693 1.363 . S
C692 C698 1.379 . S
C692 N700 1.356 . S
C693 C692 1.363 . S
C693 C699 1.363 . S
C694 C695 1.363 . S
C694 C699 1.379 . S
C694 N701 1.356 . S
C695 C694 1.363 . S
C695 C698 1.363 . S
N696 C698 1.356 . S
N696 H708 0.984 . S
N696 H709 0.985 . S
N697 C699 1.356 . S
N697 H702 0.984 . S
N697 H703 0.985 . S
C698 C692 1.379 . S
C698 C695 1.363 . S
C698 N696 1.356 . S
C699 C693 1.363 . S
C699 C694 1.379 . S
C699 N697 1.356 . S
N700 C692 1.356 . S
N700 H706 0.984 . S
N700 H707 0.984 . S
N701 C694 1.356 . S
N701 H704 0.984 . S
N701 H705 0.985 . S
H702 N697 0.984 . S
H703 N697 0.985 . S
H704 N701 0.984 . S
H705 N701 0.985 . S
H706 N700 0.984 . S
H707 N700 0.984 . S
H708 N696 0.984 . S
H709 N696 0.985 . S
C710 C711 1.363 . S
C710 C716 1.379 . S
C710 N718 1.356 . S
C711 C710 1.363 . S
C711 C717 1.363 . S
C712 C713 1.363 . S
C712 C717 1.379 . S
C712 N719 1.356 . S
C713 C712 1.363 . S
C713 C716 1.363 . S
N714 C716 1.356 1_655 S
N714 H726 0.984 . S
N714 H727 0.985 . S
N715 C717 1.356 . S
N715 H720 0.984 . S
N715 H721 0.985 . S
C716 C710 1.379 . S
C716 C713 1.363 . S
C716 N714 1.356 1_455 S
C717 C711 1.363 . S
C717 C712 1.379 . S
C717 N715 1.356 . S
N718 C710 1.356 . S
N718 H724 0.984 1_455 S
N718 H725 0.984 . S
N719 C712 1.356 . S
N719 H722 0.984 . S
N719 H723 0.985 . S
H720 N715 0.984 . S
H721 N715 0.985 . S
H722 N719 0.984 . S
H723 N719 0.985 . S
H724 N718 0.984 1_655 S
H725 N718 0.984 . S
H726 N714 0.984 . S
H727 N714 0.985 . S
C728 C729 1.363 1_545 S
C728 C734 1.379 1_554 S
C728 N736 1.356 . S
C729 C728 1.363 1_565 S
C729 C735 1.363 1_554 S
C730 C731 1.363 . S
C730 C735 1.379 . S
C730 N737 1.356 . S
C731 C730 1.363 . S
C731 C734 1.363 1_565 S
N732 C734 1.356 . S
N732 H744 0.984 . S
N732 H745 0.985 . S
N733 C735 1.356 1_554 S
N733 H738 0.984 . S
N733 H739 0.985 . S
C734 C728 1.379 1_556 S
C734 C731 1.363 1_545 S
C734 N732 1.356 . S
C735 C729 1.363 1_556 S
C735 C730 1.379 . S
C735 N733 1.356 1_556 S
N736 C728 1.356 . S
N736 H742 0.984 . S
N736 H743 0.984 . S
N737 C730 1.356 . S
N737 H740 0.984 . S
N737 H741 0.985 . S
H738 N733 0.984 . S
H739 N733 0.985 . S
H740 N737 0.984 . S
H741 N737 0.985 . S
H742 N736 0.984 . S
H743 N736 0.984 . S
H744 N732 0.984 . S
H745 N732 0.985 . S
C746 C747 1.363 . S
C746 C752 1.379 1_554 S
C746 N754 1.356 . S
C747 C746 1.363 . S
C747 C753 1.363 1_554 S
C748 C749 1.363 . S
C748 C753 1.379 . S
C748 N755 1.356 . S
C749 C748 1.363 . S
C749 C752 1.363 . S
N750 C752 1.356 . S
N750 H762 0.984 1_565 S
N750 H763 0.985 . S
N751 C753 1.356 1_554 S
N751 H756 0.984 . S
N751 H757 0.985 . S
C752 C746 1.379 1_556 S
C752 C749 1.363 . S
C752 N750 1.356 . S
C753 C747 1.363 1_556 S
C753 C748 1.379 . S
C753 N751 1.356 1_556 S
N754 C746 1.356 . S
N754 H760 0.984 . S
N754 H761 0.984 . S
N755 C748 1.356 . S
N755 H758 0.984 . S
N755 H759 0.985 . S
H756 N751 0.984 . S
H757 N751 0.985 . S
H758 N755 0.984 . S
H759 N755 0.985 . S
H760 N754 0.984 . S
H761 N754 0.984 . S
H762 N750 0.984 1_545 S
H763 N750 0.985 . S
C764 C765 1.363 . S
C764 C770 1.379 1_554 S
C764 N772 1.356 . S
C765 C764 1.363 . S
C765 C771 1.363 1_554 S
C766 C767 1.363 . S
C766 C771 1.379 . S
C766 N773 1.356 . S
C767 C766 1.363 . S
C767 C770 1.363 . S
N768 C770 1.356 . S
N768 H780 0.984 . S
N768 H781 0.985 . S
N769 C771 1.356 1_554 S
N769 H774 0.984 . S
N769 H775 0.985 . S
C770 C764 1.379 1_556 S
C770 C767 1.363 . S
C770 N768 1.356 . S
C771 C765 1.363 1_556 S
C771 C766 1.379 . S
C771 N769 1.356 1_556 S
N772 C764 1.356 . S
N772 H778 0.984 . S
N772 H779 0.984 . S
N773 C766 1.356 . S
N773 H776 0.984 . S
N773 H777 0.985 . S
H774 N769 0.984 . S
H775 N769 0.985 . S
H776 N773 0.984 . S
H777 N773 0.985 . S
H778 N772 0.984 . S
H779 N772 0.984 . S
H780 N768 0.984 . S
H781 N768 0.985 . S
C782 C783 1.363 . S
C782 C788 1.374 1_654 S
C782 N790 1.356 1_655 S
C783 C782 1.363 . S
C783 C789 1.363 1_554 S
C784 C785 1.363 . S
C784 C789 1.379 . S
C784 N791 1.356 . S
C785 C784 1.363 . S
C785 C788 1.351 1_655 S
N786 C788 1.372 . S
N786 H798 0.984 . S
N786 H799 0.985 . S
N787 C789 1.356 1_554 S
N787 H792 0.984 . S
N787 H793 0.985 . S
C788 C782 1.374 1_456 S
C788 C785 1.351 1_455 S
C788 N786 1.372 . S
C789 C783 1.363 1_556 S
C789 C784 1.379 . S
C789 N787 1.356 1_556 S
N790 C782 1.356 1_455 S
N790 H796 0.984 . S
N790 H797 0.984 1_455 S
N791 C784 1.356 . S
N791 H794 0.984 . S
N791 H795 0.985 . S
H792 N787 0.984 . S
H793 N787 0.985 . S
H794 N791 0.984 . S
H795 N791 0.985 . S
H796 N790 0.984 . S
H797 N790 0.984 1_655 S
H798 N786 0.984 . S
H799 N786 0.985 . S
C800 C801 1.363 . S
C800 C806 1.402 . S
C800 N808 1.356 . S
C801 C800 1.363 . S
C801 C807 1.363 . S
C802 C803 1.333 1_455 S
C802 C807 1.379 . S
C802 N809 1.356 . S
C803 C802 1.333 1_655 S
C803 C806 1.361 1_655 S
N804 C806 1.331 1_655 S
N804 H816 0.984 . S
N804 H817 0.985 . S
N805 C807 1.356 . S
N805 H810 0.984 . S
N805 H811 0.985 . S
C806 C800 1.402 . S
C806 C803 1.361 1_455 S
C806 N804 1.331 1_455 S
C807 C801 1.363 . S
C807 C802 1.379 . S
C807 N805 1.356 . S
N808 C800 1.356 . S
N808 H814 0.984 . S
N808 H815 0.984 . S
N809 C802 1.356 . S
N809 H812 0.984 1_455 S
N809 H813 0.985 . S
H810 N805 0.984 . S
H811 N805 0.985 . S
H812 N809 0.984 1_655 S
H813 N809 0.985 . S
H814 N808 0.984 . S
H815 N808 0.984 . S
H816 N804 0.984 . S
H817 N804 0.985 . S
C818 C819 1.363 . S
C818 C824 1.379 . S
C818 N826 1.356 . S
C819 C818 1.363 . S
C819 C825 1.363 . S
C820 C821 1.361 1_565 S
C820 C825 1.355 1_565 S
C820 N827 1.386 . S
C821 C820 1.361 1_545 S
C821 C824 1.363 . S
N822 C824 1.356 . S
N822 H834 0.984 . S
N822 H835 0.985 . S
N823 C825 1.356 . S
N823 H828 0.984 . S
N823 H829 0.985 . S
C824 C818 1.379 . S
C824 C821 1.363 . S
C824 N822 1.356 . S
C825 C819 1.363 . S
C825 C820 1.355 1_545 S
C825 N823 1.356 . S
N826 C818 1.356 . S
N826 H832 0.984 . S
N826 H833 0.984 . S
N827 C820 1.386 . S
N827 H830 0.984 . S
N827 H831 0.985 . S
H828 N823 0.984 . S
H829 N823 0.985 . S
H830 N827 0.984 . S
H831 N827 0.985 . S
H832 N826 0.984 . S
H833 N826 0.984 . S
H834 N822 0.984 . S
H835 N822 0.985 . S
C836 C837 1.363 . S
C836 C842 1.379 . S
C836 N844 1.356 . S
C837 C836 1.363 . S
C837 C843 1.363 . S
C838 C839 1.363 . S
C838 C843 1.379 . S
C838 N845 1.356 . S
C839 C838 1.363 . S
C839 C842 1.363 . S
N840 C842 1.356 . S
N840 H852 0.984 . S
N840 H853 0.985 . S
N841 C843 1.356 . S
N841 H846 0.984 . S
N841 H847 0.985 . S
C842 C836 1.379 . S
C842 C839 1.363 . S
C842 N840 1.356 . S
C843 C837 1.363 . S
C843 C838 1.379 . S
C843 N841 1.356 . S
N844 C836 1.356 . S
N844 H850 0.984 . S
N844 H851 0.984 . S
N845 C838 1.356 . S
N845 H848 0.984 . S
N845 H849 0.985 . S
H846 N841 0.984 . S
H847 N841 0.985 . S
H848 N845 0.984 . S
H849 N845 0.985 . S
H850 N844 0.984 . S
H851 N844 0.984 . S
H852 N840 0.984 . S
H853 N840 0.985 . S
C854 C855 1.363 . S
C854 C860 1.379 . S
C854 N862 1.356 . S
C855 C854 1.363 . S
C855 C861 1.363 . S
C856 C857 1.363 . S
C856 C861 1.379 . S
C856 N863 1.356 . S
C857 C856 1.363 . S
C857 C860 1.363 . S
N858 C860 1.356 . S
N858 H870 0.984 . S
N858 H871 0.985 . S
N859 C861 1.356 . S
N859 H864 0.984 . S
N859 H865 0.985 . S
C860 C854 1.379 . S
C860 C857 1.363 . S
C860 N858 1.356 . S
C861 C855 1.363 . S
C861 C856 1.379 . S
C861 N859 1.356 . S
N862 C854 1.356 . S
N862 H868 0.984 . S
N862 H869 0.984 . S
N863 C856 1.356 . S
N863 H866 0.984 . S
N863 H867 0.985 . S
H864 N859 0.984 . S
H865 N859 0.985 . S
H866 N863 0.984 . S
H867 N863 0.985 . S
H868 N862 0.984 . S
H869 N862 0.984 . S
H870 N858 0.984 . S
H871 N858 0.985 . S
C872 C873 1.363 1_554 S
C872 C878 1.379 1_554 S
C872 N880 1.356 . S
C873 C872 1.363 1_556 S
C873 C879 1.363 . S
C874 C875 1.363 . S
C874 C879 1.379 1_455 S
C874 N881 1.356 . S
C875 C874 1.363 . S
C875 C878 1.363 1_455 S
N876 C878 1.357 1_454 S
N876 H888 0.987 1_455 S
N876 H889 0.981 1_554 S
N877 C879 1.356 . S
N877 H882 0.984 . S
N877 H883 0.985 . S
C878 C872 1.379 1_556 S
C878 C875 1.363 1_655 S
C878 N876 1.357 1_656 S
C879 C873 1.363 . S
C879 C874 1.379 1_655 S
C879 N877 1.356 . S
N880 C872 1.356 . S
N880 H886 0.984 . S
N880 H887 0.984 . S
N881 C874 1.356 . S
N881 H884 0.984 . S
N881 H885 0.985 . S
H882 N877 0.984 . S
H883 N877 0.985 . S
H884 N881 0.984 . S
H885 N881 0.985 . S
H886 N880 0.984 . S
H887 N880 0.984 . S
H888 N876 0.987 1_655 S
H889 N876 0.981 1_556 S
C890 C891 1.363 1_554 S
C890 C896 1.379 . S
C890 N898 1.356 . S
C891 C890 1.363 1_556 S
C891 C897 1.363 . S
C892 C893 1.363 . S
C892 C897 1.379 1_545 S
C892 N899 1.356 . S
C893 C892 1.363 . S
C893 C896 1.363 1_546 S
N894 C896 1.356 1_545 S
N894 H906 0.984 . S
N894 H907 0.985 . S
N895 C897 1.356 . S
N895 H900 0.984 . S
N895 H901 0.985 . S
C896 C890 1.379 . S
C896 C893 1.363 1_564 S
C896 N894 1.356 1_565 S
C897 C891 1.363 . S
C897 C892 1.379 1_565 S
C897 N895 1.356 . S
N898 C890 1.356 . S
N898 H904 0.984 . S
N898 H905 0.984 . S
N899 C892 1.356 . S
N899 H902 0.984 . S
N899 H903 0.985 . S
H900 N895 0.984 . S
H901 N895 0.985 . S
H902 N899 0.984 . S
H903 N899 0.985 . S
H904 N898 0.984 . S
H905 N898 0.984 . S
H906 N894 0.984 . S
H907 N894 0.985 . S
C908 C909 1.363 . S
C908 C914 1.379 . S
C908 N916 1.356 . S
C909 C908 1.363 . S
C909 C915 1.363 . S
C910 C911 1.363 . S
C910 C915 1.379 . S
C910 N917 1.356 . S
C911 C910 1.363 . S
C911 C914 1.363 . S
N912 C914 1.356 . S
N912 H924 0.984 . S
N912 H925 0.985 . S
N913 C915 1.356 . S
N913 H918 0.984 1_556 S
N913 H919 0.984 1_556 S
C914 C908 1.379 . S
C914 C911 1.363 . S
C914 N912 1.356 . S
C915 C909 1.363 . S
C915 C910 1.379 . S
C915 N913 1.356 . S
N916 C908 1.356 . S
N916 H922 0.984 . S
N916 H923 0.984 . S
N917 C910 1.356 . S
N917 H920 0.984 . S
N917 H921 0.985 . S
H918 N913 0.984 1_554 S
H919 N913 0.984 1_554 S
H920 N917 0.984 . S
H921 N917 0.985 . S
H922 N916 0.984 . S
H923 N916 0.984 . S
H924 N912 0.984 . S
H925 N912 0.985 . S
C926 C927 1.363 1_554 S
C926 C932 1.379 . S
C926 N934 1.356 . S
C927 C926 1.363 1_556 S
C927 C933 1.363 . S
C928 C929 1.363 . S
C928 C933 1.379 . S
C928 N935 1.356 . S
C929 C928 1.363 . S
C929 C932 1.363 1_556 S
N930 C932 1.356 . S
N930 H942 0.984 . S
N930 H943 0.985 . S
N931 C933 1.356 . S
N931 H936 0.984 . S
N931 H937 0.985 . S
C932 C926 1.379 . S
C932 C929 1.363 1_554 S
C932 N930 1.356 . S
C933 C927 1.363 . S
C933 C928 1.379 . S
C933 N931 1.356 . S
N934 C926 1.356 . S
N934 H940 0.984 . S
N934 H941 0.984 . S
N935 C928 1.356 . S
N935 H938 0.984 . S
N935 H939 0.985 . S
H936 N931 0.984 . S
H937 N931 0.985 . S
H938 N935 0.984 . S
H939 N935 0.985 . S
H940 N934 0.984 . S
H941 N934 0.984 . S
H942 N930 0.984 . S
H943 N930 0.985 . S
C944 C945 1.363 . S
C944 C950 1.379 . S
C944 N952 1.356 . S
C945 C944 1.363 . S
C945 C951 1.363 . S
C946 C947 1.363 . S
C946 C951 1.379 . S
C946 N953 1.356 . S
C947 C946 1.363 . S
C947 C950 1.363 . S
N948 C950 1.356 . S
N948 H960 0.984 . S
N948 H961 0.985 . S
N949 C951 1.356 . S
N949 H954 0.984 . S
N949 H955 0.985 1_455 S
C950 C944 1.379 . S
C950 C947 1.363 . S
C950 N948 1.356 . S
C951 C945 1.363 . S
C951 C946 1.379 . S
C951 N949 1.356 . S
N952 C944 1.356 . S
N952 H958 0.984 . S
N952 H959 0.984 . S
N953 C946 1.356 . S
N953 H956 0.984 . S
N953 H957 0.985 1_455 S
H954 N949 0.984 . S
H955 N949 0.985 1_655 S
H956 N953 0.984 . S
H957 N953 0.985 1_655 S
H958 N952 0.984 . S
H959 N952 0.984 . S
H960 N948 0.984 . S
H961 N948 0.985 . S
C962 C963 1.363 . S
C962 C968 1.379 . S
C962 N970 1.356 1_545 S
C963 C962 1.363 . S
C963 C969 1.363 . S
C964 C965 1.363 . S
C964 C969 1.379 . S
C964 N971 1.356 . S
C965 C964 1.363 . S
C965 C968 1.363 . S
N966 C968 1.356 1_565 S
N966 H978 0.984 . S
N966 H979 0.985 . S
N967 C969 1.356 . S
N967 H972 0.984 . S
N967 H973 0.985 . S
C968 C962 1.379 . S
C968 C965 1.363 . S
C968 N966 1.356 1_545 S
C969 C963 1.363 . S
C969 C964 1.379 . S
C969 N967 1.356 . S
N970 C962 1.356 1_565 S
N970 H976 0.984 . S
N970 H977 0.984 1_565 S
N971 C964 1.356 . S
N971 H974 0.984 . S
N971 H975 0.985 . S
H972 N967 0.984 . S
H973 N967 0.985 . S
H974 N971 0.984 . S
H975 N971 0.985 . S
H976 N970 0.984 . S
H977 N970 0.984 1_545 S
H978 N966 0.984 . S
H979 N966 0.985 . S
C980 C981 1.363 . S
C980 C986 1.379 . S
C980 N988 1.356 . S
C981 C980 1.363 . S
C981 C987 1.363 . S
C982 C983 1.363 . S
C982 C987 1.379 . S
C982 N989 1.356 . S
C983 C982 1.363 . S
C983 C986 1.363 . S
N984 C986 1.356 . S
N984 H996 0.984 . S
N984 H997 0.985 . S
N985 C987 1.356 . S
N985 H990 0.984 . S
N985 H991 0.985 . S
C986 C980 1.379 . S
C986 C983 1.363 . S
C986 N984 1.356 . S
C987 C981 1.363 . S
C987 C982 1.379 . S
C987 N985 1.356 . S
N988 C980 1.356 . S
N988 H994 0.984 . S
N988 H995 0.984 . S
N989 C982 1.356 . S
N989 H992 0.984 . S
N989 H993 0.985 . S
H990 N985 0.984 . S
H991 N985 0.985 . S
H992 N989 0.984 . S
H993 N989 0.985 . S
H994 N988 0.984 . S
H995 N988 0.984 . S
H996 N984 0.984 . S
H997 N984 0.985 . S
C998 C999 1.363 . S
C998 C1004 1.379 . S
C998 N1006 1.356 . S
C999 C998 1.363 . S
C999 C1005 1.363 . S
C1000 C1001 1.363 . S
C1000 C1005 1.379 . S
C1000 N1007 1.356 . S
C1001 C1000 1.363 . S
C1001 C1004 1.363 . S
N1002 C1004 1.356 . S
N1002 H1014 0.984 . S
N1002 H1015 0.985 . S
N1003 C1005 1.356 . S
N1003 H1008 0.984 . S
N1003 H1009 0.985 . S
C1004 C998 1.379 . S
C1004 C1001 1.363 . S
C1004 N1002 1.356 . S
C1005 C999 1.363 . S
C1005 C1000 1.379 . S
C1005 N1003 1.356 . S
N1006 C998 1.356 . S
N1006 H1012 0.984 . S
N1006 H1013 0.984 . S
N1007 C1000 1.356 . S
N1007 H1010 0.984 . S
N1007 H1011 0.985 . S
H1008 N1003 0.984 . S
H1009 N1003 0.985 . S
H1010 N1007 0.984 . S
H1011 N1007 0.985 . S
H1012 N1006 0.984 . S
H1013 N1006 0.984 . S
H1014 N1002 0.984 . S
H1015 N1002 0.985 . S
C1016 C1017 1.363 . S
C1016 C1022 1.379 . S
C1016 N1024 1.356 . S
C1017 C1016 1.363 . S
C1017 C1023 1.363 . S
C1018 C1019 1.363 . S
C1018 C1023 1.379 . S
C1018 N1025 1.356 1_655 S
C1019 C1018 1.363 . S
C1019 C1022 1.363 . S
N1020 C1022 1.356 . S
N1020 H1032 0.984 . S
N1020 H1033 0.985 . S
N1021 C1023 1.356 1_455 S
N1021 H1026 0.984 1_455 S
N1021 H1027 0.985 . S
C1022 C1016 1.379 . S
C1022 C1019 1.363 . S
C1022 N1020 1.356 . S
C1023 C1017 1.363 . S
C1023 C1018 1.379 . S
C1023 N1021 1.356 1_655 S
N1024 C1016 1.356 . S
N1024 H1030 0.984 . S
N1024 H1031 0.984 . S
N1025 C1018 1.356 1_455 S
N1025 H1028 0.984 . S
N1025 H1029 0.985 . S
H1026 N1021 0.984 1_655 S
H1027 N1021 0.985 . S
H1028 N1025 0.984 . S
H1029 N1025 0.985 . S
H1030 N1024 0.984 . S
H1031 N1024 0.984 . S
H1032 N1020 0.984 . S
H1033 N1020 0.985 . S
C1034 C1035 1.363 1_545 S
C1034 C1040 1.379 . S
C1034 N1042 1.356 . S
C1035 C1034 1.363 1_565 S
C1035 C1041 1.363 . S
C1036 C1037 1.363 . S
C1036 C1041 1.379 . S
C1036 N1043 1.356 . S
C1037 C1036 1.363 . S
C1037 C1040 1.363 1_565 S
N1038 C1040 1.356 . S
N1038 H1050 0.984 . S
N1038 H1051 0.985 . S
N1039 C1041 1.356 . S
N1039 H1044 0.984 . S
N1039 H1045 0.985 . S
C1040 C1034 1.379 . S
C1040 C1037 1.363 1_545 S
C1040 N1038 1.356 . S
C1041 C1035 1.363 . S
C1041 C1036 1.379 . S
C1041 N1039 1.356 . S
N1042 C1034 1.356 . S
N1042 H1048 0.984 . S
N1042 H1049 0.984 . S
N1043 C1036 1.356 . S
N1043 H1046 0.984 . S
N1043 H1047 0.985 . S
H1044 N1039 0.984 . S
H1045 N1039 0.985 . S
H1046 N1043 0.984 . S
H1047 N1043 0.985 . S
H1048 N1042 0.984 . S
H1049 N1042 0.984 . S
H1050 N1038 0.984 . S
H1051 N1038 0.985 . S
C1052 C1053 1.363 . S
C1052 C1058 1.379 . S
C1052 N1060 1.356 . S
C1053 C1052 1.363 . S
C1053 C1059 1.363 . S
C1054 C1055 1.363 . S
C1054 C1059 1.379 . S
C1054 N1061 1.356 . S
C1055 C1054 1.363 . S
C1055 C1058 1.363 . S
N1056 C1058 1.356 . S
N1056 H1068 0.984 . S
N1056 H1069 0.985 . S
N1057 C1059 1.356 . S
N1057 H1062 0.984 . S
N1057 H1063 0.985 . S
C1058 C1052 1.379 . S
C1058 C1055 1.363 . S
C1058 N1056 1.356 . S
C1059 C1053 1.363 . S
C1059 C1054 1.379 . S
C1059 N1057 1.356 . S
N1060 C1052 1.356 . S
N1060 H1066 0.984 . S
N1060 H1067 0.984 . S
N1061 C1054 1.356 . S
N1061 H1064 0.984 . S
N1061 H1065 0.985 . S
H1062 N1057 0.984 . S
H1063 N1057 0.985 . S
H1064 N1061 0.984 . S
H1065 N1061 0.985 . S
H1066 N1060 0.984 . S
H1067 N1060 0.984 . S
H1068 N1056 0.984 . S
H1069 N1056 0.985 . S
C1070 C1071 1.363 . S
C1070 C1076 1.379 . S
C1070 N1078 1.356 . S
C1071 C1070 1.363 . S
C1071 C1077 1.363 . S
C1072 C1073 1.363 . S
C1072 C1077 1.379 . S
C1072 N1079 1.356 . S
C1073 C1072 1.363 . S
C1073 C1076 1.363 . S
N1074 C1076 1.356 . S
N1074 H1086 0.984 . S
N1074 H1087 0.985 . S
N1075 C1077 1.356 . S
N1075 H1080 0.984 . S
N1075 H1081 0.985 . S
C1076 C1070 1.379 . S
C1076 C1073 1.363 . S
C1076 N1074 1.356 . S
C1077 C1071 1.363 . S
C1077 C1072 1.379 . S
C1077 N1075 1.356 . S
N1078 C1070 1.356 . S
N1078 H1084 0.984 . S
N1078 H1085 0.984 . S
N1079 C1072 1.356 . S
N1079 H1082 0.984 . S
N1079 H1083 0.985 . S
H1080 N1075 0.984 . S
H1081 N1075 0.985 . S
H1082 N1079 0.984 . S
H1083 N1079 0.985 . S
H1084 N1078 0.984 . S
H1085 N1078 0.984 . S
H1086 N1074 0.984 . S
H1087 N1074 0.985 . S
C657 C255 2.731 . S
C659 C383 2.993 . S
C677 C460 2.987 . S
C675 C295 2.738 . S
C695 C551 3.000 . S
C693 C175 2.737 . S
C713 C635 2.976 . S
C711 C215 2.716 . S
C731 C394 2.993 1_565 S
C729 C95 2.726 . S
C747 C135 2.733 . S
C749 C471 2.987 . S
C765 C15 2.732 . S
C767 C562 2.999 . S
C783 C55 2.711 . S
C785 C646 2.976 1_655 S
C803 C378 0.841 . S
C801 C221 0.801 . S
C821 C473 0.794 1_545 S
C819 C261 0.792 . S
C839 C546 0.826 . S
C837 C301 0.816 . S
C855 C181 0.791 . S
C857 C630 0.798 . S
C873 C61 0.780 1_556 S
C875 C389 0.809 . S
C893 C462 0.794 . S
C891 C101 0.773 1_556 S
C911 C557 0.826 . S
C909 C141 0.788 1_556 S
C927 C21 0.773 1_556 S
C929 C641 0.798 . S
C945 C202 3.263 . S
C947 C387 3.578 . S
C963 C242 3.273 . S
C965 C478 3.703 . S
C983 C555 3.600 . S
C981 C282 3.283 . S
C1001 C639 3.600 . S
C999 C162 3.285 . S
C1017 C42 3.229 . S
C1019 C376 3.578 . S
C1037 C467 3.703 . S
C1035 C82 3.236 . S
C1055 C544 3.599 . S
C1053 C122 3.247 . S
C1071 C2 3.250 . S
C1073 C628 3.599 . S
