# Generated by pormake.
# Topology iac, (4,6)-cn, num edge types: 1
# Building blocks:
#     Node 0, Type 0, BuildingBlock: UXUYUI_clean_sbu_0, # of connection points: 4
#     Node 1, Type 0, BuildingBlock: UXUYUI_clean_sbu_0, # of connection points: 4
#     Node 2, Type 0, BuildingBlock: UXUYUI_clean_sbu_0, # of connection points: 4
#     Node 3, Type 0, BuildingBlock: UXUYUI_clean_sbu_0, # of connection points: 4
#     Node 4, Type 0, BuildingBlock: UXUYUI_clean_sbu_0, # of connection points: 4
#     Node 5, Type 0, BuildingBlock: UXUYUI_clean_sbu_0, # of connection points: 4
#     Node 6, Type 0, BuildingBlock: UXUYUI_clean_sbu_0, # of connection points: 4
#     Node 7, Type 0, BuildingBlock: UXUYUI_clean_sbu_0, # of connection points: 4
#     Node 8, Type 0, BuildingBlock: UXUYUI_clean_sbu_0, # of connection points: 4
#     Node 9, Type 0, BuildingBlock: UXUYUI_clean_sbu_0, # of connection points: 4
#     Node 10, Type 0, BuildingBlock: UXUYUI_clean_sbu_0, # of connection points: 4
#     Node 11, Type 0, BuildingBlock: UXUYUI_clean_sbu_0, # of connection points: 4
#     Node 12, Type 0, BuildingBlock: UXUYUI_clean_sbu_0, # of connection points: 4
#     Node 13, Type 0, BuildingBlock: UXUYUI_clean_sbu_0, # of connection points: 4
#     Node 14, Type 0, BuildingBlock: UXUYUI_clean_sbu_0, # of connection points: 4
#     Node 15, Type 0, BuildingBlock: UXUYUI_clean_sbu_0, # of connection points: 4
#     Node 16, Type 0, BuildingBlock: UXUYUI_clean_sbu_0, # of connection points: 4
#     Node 17, Type 0, BuildingBlock: UXUYUI_clean_sbu_0, # of connection points: 4
#     Node 18, Type 0, BuildingBlock: UXUYUI_clean_sbu_0, # of connection points: 4
#     Node 19, Type 0, BuildingBlock: UXUYUI_clean_sbu_0, # of connection points: 4
#     Node 20, Type 0, BuildingBlock: UXUYUI_clean_sbu_0, # of connection points: 4
#     Node 21, Type 0, BuildingBlock: UXUYUI_clean_sbu_0, # of connection points: 4
#     Node 22, Type 0, BuildingBlock: UXUYUI_clean_sbu_0, # of connection points: 4
#     Node 23, Type 0, BuildingBlock: UXUYUI_clean_sbu_0, # of connection points: 4
#     Node 24, Type 1, BuildingBlock: LEVNOQ01_clean_sbu_1, # of connection points: 6
#     Node 25, Type 1, BuildingBlock: LEVNOQ01_clean_sbu_1, # of connection points: 6
#     Node 26, Type 1, BuildingBlock: LEVNOQ01_clean_sbu_1, # of connection points: 6
#     Node 27, Type 1, BuildingBlock: LEVNOQ01_clean_sbu_1, # of connection points: 6
#     Node 28, Type 1, BuildingBlock: LEVNOQ01_clean_sbu_1, # of connection points: 6
#     Node 29, Type 1, BuildingBlock: LEVNOQ01_clean_sbu_1, # of connection points: 6
#     Node 30, Type 1, BuildingBlock: LEVNOQ01_clean_sbu_1, # of connection points: 6
#     Node 31, Type 1, BuildingBlock: LEVNOQ01_clean_sbu_1, # of connection points: 6
#     Node 32, Type 1, BuildingBlock: LEVNOQ01_clean_sbu_1, # of connection points: 6
#     Node 33, Type 1, BuildingBlock: LEVNOQ01_clean_sbu_1, # of connection points: 6
#     Node 34, Type 1, BuildingBlock: LEVNOQ01_clean_sbu_1, # of connection points: 6
#     Node 35, Type 1, BuildingBlock: LEVNOQ01_clean_sbu_1, # of connection points: 6
#     Node 36, Type 1, BuildingBlock: LEVNOQ01_clean_sbu_1, # of connection points: 6
#     Node 37, Type 1, BuildingBlock: LEVNOQ01_clean_sbu_1, # of connection points: 6
#     Node 38, Type 1, BuildingBlock: LEVNOQ01_clean_sbu_1, # of connection points: 6
#     Node 39, Type 1, BuildingBlock: LEVNOQ01_clean_sbu_1, # of connection points: 6
#     Edge 40, Type (0, 1), BuildingBlock: KIFKEQ_clean_linker_1, # of connection points: 2
#     Edge 41, Type (0, 1), BuildingBlock: KIFKEQ_clean_linker_1, # of connection points: 2
#     Edge 42, Type (0, 1), BuildingBlock: KIFKEQ_clean_linker_1, # of connection points: 2
#     Edge 43, Type (0, 1), BuildingBlock: KIFKEQ_clean_linker_1, # of connection points: 2
#     Edge 44, Type (0, 1), BuildingBlock: KIFKEQ_clean_linker_1, # of connection points: 2
#     Edge 45, Type (0, 1), BuildingBlock: KIFKEQ_clean_linker_1, # of connection points: 2
#     Edge 46, Type (0, 1), BuildingBlock: KIFKEQ_clean_linker_1, # of connection points: 2
#     Edge 47, Type (0, 1), BuildingBlock: KIFKEQ_clean_linker_1, # of connection points: 2
#     Edge 48, Type (0, 1), BuildingBlock: KIFKEQ_clean_linker_1, # of connection points: 2
#     Edge 49, Type (0, 1), BuildingBlock: KIFKEQ_clean_linker_1, # of connection points: 2
#     Edge 50, Type (0, 1), BuildingBlock: KIFKEQ_clean_linker_1, # of connection points: 2
#     Edge 51, Type (0, 1), BuildingBlock: KIFKEQ_clean_linker_1, # of connection points: 2
#     Edge 52, Type (0, 1), BuildingBlock: KIFKEQ_clean_linker_1, # of connection points: 2
#     Edge 53, Type (0, 1), BuildingBlock: KIFKEQ_clean_linker_1, # of connection points: 2
#     Edge 54, Type (0, 1), BuildingBlock: KIFKEQ_clean_linker_1, # of connection points: 2
#     Edge 55, Type (0, 1), BuildingBlock: KIFKEQ_clean_linker_1, # of connection points: 2
#     Edge 56, Type (0, 1), BuildingBlock: KIFKEQ_clean_linker_1, # of connection points: 2
#     Edge 57, Type (0, 1), BuildingBlock: KIFKEQ_clean_linker_1, # of connection points: 2
#     Edge 58, Type (0, 1), BuildingBlock: KIFKEQ_clean_linker_1, # of connection points: 2
#     Edge 59, Type (0, 1), BuildingBlock: KIFKEQ_clean_linker_1, # of connection points: 2
#     Edge 60, Type (0, 1), BuildingBlock: KIFKEQ_clean_linker_1, # of connection points: 2
#     Edge 61, Type (0, 1), BuildingBlock: KIFKEQ_clean_linker_1, # of connection points: 2
#     Edge 62, Type (0, 1), BuildingBlock: KIFKEQ_clean_linker_1, # of connection points: 2
#     Edge 63, Type (0, 1), BuildingBlock: KIFKEQ_clean_linker_1, # of connection points: 2
#     Edge 64, Type (0, 1), BuildingBlock: KIFKEQ_clean_linker_1, # of connection points: 2
#     Edge 65, Type (0, 1), BuildingBlock: KIFKEQ_clean_linker_1, # of connection points: 2
#     Edge 66, Type (0, 1), BuildingBlock: KIFKEQ_clean_linker_1, # of connection points: 2
#     Edge 67, Type (0, 1), BuildingBlock: KIFKEQ_clean_linker_1, # of connection points: 2
#     Edge 68, Type (0, 1), BuildingBlock: KIFKEQ_clean_linker_1, # of connection points: 2
#     Edge 69, Type (0, 1), BuildingBlock: KIFKEQ_clean_linker_1, # of connection points: 2
#     Edge 70, Type (0, 1), BuildingBlock: KIFKEQ_clean_linker_1, # of connection points: 2
#     Edge 71, Type (0, 1), BuildingBlock: KIFKEQ_clean_linker_1, # of connection points: 2
#     Edge 72, Type (0, 1), BuildingBlock: KIFKEQ_clean_linker_1, # of connection points: 2
#     Edge 73, Type (0, 1), BuildingBlock: KIFKEQ_clean_linker_1, # of connection points: 2
#     Edge 74, Type (0, 1), BuildingBlock: KIFKEQ_clean_linker_1, # of connection points: 2
#     Edge 75, Type (0, 1), BuildingBlock: KIFKEQ_clean_linker_1, # of connection points: 2
#     Edge 76, Type (0, 1), BuildingBlock: KIFKEQ_clean_linker_1, # of connection points: 2
#     Edge 77, Type (0, 1), BuildingBlock: KIFKEQ_clean_linker_1, # of connection points: 2
#     Edge 78, Type (0, 1), BuildingBlock: KIFKEQ_clean_linker_1, # of connection points: 2
#     Edge 79, Type (0, 1), BuildingBlock: KIFKEQ_clean_linker_1, # of connection points: 2
#     Edge 80, Type (0, 1), BuildingBlock: KIFKEQ_clean_linker_1, # of connection points: 2
#     Edge 81, Type (0, 1), BuildingBlock: KIFKEQ_clean_linker_1, # of connection points: 2
#     Edge 82, Type (0, 1), BuildingBlock: KIFKEQ_clean_linker_1, # of connection points: 2
#     Edge 83, Type (0, 1), BuildingBlock: KIFKEQ_clean_linker_1, # of connection points: 2
#     Edge 84, Type (0, 1), BuildingBlock: KIFKEQ_clean_linker_1, # of connection points: 2
#     Edge 85, Type (0, 1), BuildingBlock: KIFKEQ_clean_linker_1, # of connection points: 2
#     Edge 86, Type (0, 1), BuildingBlock: KIFKEQ_clean_linker_1, # of connection points: 2
#     Edge 87, Type (0, 1), BuildingBlock: KIFKEQ_clean_linker_1, # of connection points: 2
#     Edge 88, Type (0, 1), BuildingBlock: KIFKEQ_clean_linker_1, # of connection points: 2
#     Edge 89, Type (0, 1), BuildingBlock: KIFKEQ_clean_linker_1, # of connection points: 2
#     Edge 90, Type (0, 1), BuildingBlock: KIFKEQ_clean_linker_1, # of connection points: 2
#     Edge 91, Type (0, 1), BuildingBlock: KIFKEQ_clean_linker_1, # of connection points: 2
#     Edge 92, Type (0, 1), BuildingBlock: KIFKEQ_clean_linker_1, # of connection points: 2
#     Edge 93, Type (0, 1), BuildingBlock: KIFKEQ_clean_linker_1, # of connection points: 2
#     Edge 94, Type (0, 1), BuildingBlock: KIFKEQ_clean_linker_1, # of connection points: 2
#     Edge 95, Type (0, 1), BuildingBlock: KIFKEQ_clean_linker_1, # of connection points: 2
#     Edge 96, Type (0, 1), BuildingBlock: KIFKEQ_clean_linker_1, # of connection points: 2
#     Edge 97, Type (0, 1), BuildingBlock: KIFKEQ_clean_linker_1, # of connection points: 2
#     Edge 98, Type (0, 1), BuildingBlock: KIFKEQ_clean_linker_1, # of connection points: 2
#     Edge 99, Type (0, 1), BuildingBlock: KIFKEQ_clean_linker_1, # of connection points: 2
#     Edge 100, Type (0, 1), BuildingBlock: KIFKEQ_clean_linker_1, # of connection points: 2
#     Edge 101, Type (0, 1), BuildingBlock: KIFKEQ_clean_linker_1, # of connection points: 2
#     Edge 102, Type (0, 1), BuildingBlock: KIFKEQ_clean_linker_1, # of connection points: 2
#     Edge 103, Type (0, 1), BuildingBlock: KIFKEQ_clean_linker_1, # of connection points: 2
#     Edge 104, Type (0, 1), BuildingBlock: KIFKEQ_clean_linker_1, # of connection points: 2
#     Edge 105, Type (0, 1), BuildingBlock: KIFKEQ_clean_linker_1, # of connection points: 2
#     Edge 106, Type (0, 1), BuildingBlock: KIFKEQ_clean_linker_1, # of connection points: 2
#     Edge 107, Type (0, 1), BuildingBlock: KIFKEQ_clean_linker_1, # of connection points: 2
#     Edge 108, Type (0, 1), BuildingBlock: KIFKEQ_clean_linker_1, # of connection points: 2
#     Edge 109, Type (0, 1), BuildingBlock: KIFKEQ_clean_linker_1, # of connection points: 2
#     Edge 110, Type (0, 1), BuildingBlock: KIFKEQ_clean_linker_1, # of connection points: 2
#     Edge 111, Type (0, 1), BuildingBlock: KIFKEQ_clean_linker_1, # of connection points: 2
#     Edge 112, Type (0, 1), BuildingBlock: KIFKEQ_clean_linker_1, # of connection points: 2
#     Edge 113, Type (0, 1), BuildingBlock: KIFKEQ_clean_linker_1, # of connection points: 2
#     Edge 114, Type (0, 1), BuildingBlock: KIFKEQ_clean_linker_1, # of connection points: 2
#     Edge 115, Type (0, 1), BuildingBlock: KIFKEQ_clean_linker_1, # of connection points: 2
#     Edge 116, Type (0, 1), BuildingBlock: KIFKEQ_clean_linker_1, # of connection points: 2
#     Edge 117, Type (0, 1), BuildingBlock: KIFKEQ_clean_linker_1, # of connection points: 2
#     Edge 118, Type (0, 1), BuildingBlock: KIFKEQ_clean_linker_1, # of connection points: 2
#     Edge 119, Type (0, 1), BuildingBlock: KIFKEQ_clean_linker_1, # of connection points: 2
#     Edge 120, Type (0, 1), BuildingBlock: KIFKEQ_clean_linker_1, # of connection points: 2
#     Edge 121, Type (0, 1), BuildingBlock: KIFKEQ_clean_linker_1, # of connection points: 2
#     Edge 122, Type (0, 1), BuildingBlock: KIFKEQ_clean_linker_1, # of connection points: 2
#     Edge 123, Type (0, 1), BuildingBlock: KIFKEQ_clean_linker_1, # of connection points: 2
#     Edge 124, Type (0, 1), BuildingBlock: KIFKEQ_clean_linker_1, # of connection points: 2
#     Edge 125, Type (0, 1), BuildingBlock: KIFKEQ_clean_linker_1, # of connection points: 2
#     Edge 126, Type (0, 1), BuildingBlock: KIFKEQ_clean_linker_1, # of connection points: 2
#     Edge 127, Type (0, 1), BuildingBlock: KIFKEQ_clean_linker_1, # of connection points: 2
#     Edge 128, Type (0, 1), BuildingBlock: KIFKEQ_clean_linker_1, # of connection points: 2
#     Edge 129, Type (0, 1), BuildingBlock: KIFKEQ_clean_linker_1, # of connection points: 2
#     Edge 130, Type (0, 1), BuildingBlock: KIFKEQ_clean_linker_1, # of connection points: 2
#     Edge 131, Type (0, 1), BuildingBlock: KIFKEQ_clean_linker_1, # of connection points: 2
#     Edge 132, Type (0, 1), BuildingBlock: KIFKEQ_clean_linker_1, # of connection points: 2
#     Edge 133, Type (0, 1), BuildingBlock: KIFKEQ_clean_linker_1, # of connection points: 2
#     Edge 134, Type (0, 1), BuildingBlock: KIFKEQ_clean_linker_1, # of connection points: 2
#     Edge 135, Type (0, 1), BuildingBlock: KIFKEQ_clean_linker_1, # of connection points: 2
# Relax obj value: 0.124
# Max RMSD: 0.161
# Mean RMSD: 0.151
data_MOF--net-iac--node1-UXUYUI_clean_sbu_0--node2-LEVNOQ01_clean_sbu_1--edge1-KIFKEQ_clean_linker_1
_symmetry_space_group_name_H-M    P1
_symmetry_Int_Tables_number       1
_symmetry_cell_setting            triclinic
loop_
_symmetry_equiv_pos_as_xyz
'x, y, z'
_cell_length_a     67.586807
_cell_length_b     67.417909
_cell_length_c     67.632668
_cell_angle_alpha  90.059944
_cell_angle_beta   89.892192
_cell_angle_gamma 90.101244
loop_
_atom_site_label
_atom_site_type_symbol
_atom_site_fract_x
_atom_site_fract_y
_atom_site_fract_z
_atom_type_partial_charge
Li0 Li -0.0036 0.27189 0.10875 0.0
Li1 Li 0.0141 0.25711 0.13637 0.0
Li2 Li -0.00093 0.23561 0.10994 0.0
Li3 Li 0.9786 0.2542 0.13491 0.0
C4 C 0.03256 0.25861 0.09149 0.0
N5 N 0.05657 0.26469 0.0589 0.0
C6 C 0.0498 0.26996 0.09318 0.0
C7 C 0.02766 0.25018 0.07324 0.0
C8 C 0.06171 0.27291 0.07653 0.0
C9 C 0.03994 0.25348 0.05694 0.0
C10 C 0.00159 0.29151 0.15059 0.0
C11 C 0.00813 0.30043 0.18448 0.0
N12 N 0.01714 0.31735 0.1782 0.0
C13 C 0.01079 0.30904 0.14445 0.0
C14 C 0.00011 0.2872 0.17074 0.0
C15 C 0.01861 0.3219 0.15866 0.0
C16 C 0.97598 0.30494 0.09699 0.0
N17 N 0.99271 0.29468 0.09253 0.0
C18 C 0.00151 0.31863 0.06802 0.0
C19 C 0.00535 0.30104 0.07822 0.0
C20 C 0.98448 0.32974 0.07258 0.0
C21 C 0.97149 0.3225 0.0871 0.0
H22 H 0.96622 0.29956 0.1085 0.0
H23 H 0.01861 0.29281 0.07494 0.0
C24 C 0.04046 0.24468 0.16657 0.0
N25 N 0.03655 0.25925 0.15324 0.0
C26 C 0.05812 0.24493 0.17733 0.0
C27 C 0.06702 0.27547 0.16083 0.0
C28 C 0.04921 0.27467 0.1505 0.0
C29 C 0.07188 0.26022 0.17409 0.0
H30 H 0.03021 0.23247 0.16832 0.0
H31 H 0.04575 0.28606 0.13984 0.0
C32 C 0.96221 0.25734 0.09163 0.0
N33 N 0.936 0.26863 0.06243 0.0
C34 C 0.94276 0.26243 0.09652 0.0
C35 C 0.96831 0.25799 0.07188 0.0
C36 C 0.92973 0.26805 0.08154 0.0
C37 C 0.95486 0.2638 0.05734 0.0
C38 C 0.98857 0.21955 0.15166 0.0
C39 C 0.98091 0.20182 0.14413 0.0
C40 C 0.9862 0.22403 0.1717 0.0
C41 C 0.97081 0.18892 0.15679 0.0
C42 C 0.97598 0.21076 0.18387 0.0
N43 N 0.96856 0.19363 0.17623 0.0
C44 C 0.01848 0.20112 0.09615 0.0
C45 C 0.98644 0.20651 0.08299 0.0
C46 C 0.02049 0.18372 0.08506 0.0
N47 N 0.00163 0.21203 0.09492 0.0
C48 C 0.98787 0.18935 0.07157 0.0
C49 C 0.00505 0.17768 0.07254 0.0
H50 H 0.03033 0.20596 0.10576 0.0
H51 H 0.97316 0.21539 0.08245 0.0
C52 C 0.94861 0.27342 0.15568 0.0
N53 N 0.95421 0.25533 0.14875 0.0
C54 C 0.9297 0.2762 0.16347 0.0
C55 C 0.92276 0.24158 0.15718 0.0
C56 C 0.94176 0.23951 0.14934 0.0
C57 C 0.91638 0.26022 0.16406 0.0
H58 H 0.95855 0.28592 0.15442 0.0
H59 H 0.94629 0.22548 0.14311 0.0
O60 O 0.02088 0.25537 0.10773 0.0
O61 O 0.994 0.27866 0.13692 0.0
O62 O 0.97504 0.25133 0.10607 0.0
O63 O -0.00146 0.23232 0.13952 0.0
H64 H 0.05397 0.27647 0.10717 0.0
H65 H 0.01458 0.24112 0.07165 0.0
H66 H 0.07506 0.28172 0.07763 0.0
H67 H 0.03627 0.24708 0.04273 0.0
H68 H 0.00718 0.29725 0.20012 0.0
H69 H 0.012 0.31258 0.12889 0.0
H70 H 0.99291 0.27375 0.17569 0.0
H71 H 0.02586 0.33548 0.15415 0.0
H72 H 0.01214 0.32381 0.05719 0.0
H73 H 0.95811 0.33043 0.09096 0.0
H74 H 0.06139 0.23283 0.18731 0.0
H75 H 0.07714 0.28765 0.15811 0.0
H76 H 0.93772 0.26193 0.11168 0.0
H77 H 0.98326 0.25414 0.06781 0.0
H78 H 0.91461 0.27193 0.0851 0.0
H79 H 0.95942 0.26442 0.04201 0.0
H80 H 0.98265 0.19808 0.12867 0.0
H81 H 0.99215 0.23763 0.17777 0.0
H82 H 0.96475 0.17517 0.15116 0.0
H83 H 0.97397 0.21407 0.1994 0.0
H84 H 0.03399 0.17516 0.08617 0.0
H85 H 0.97546 0.18503 0.0624 0.0
H86 H 0.92534 0.29088 0.1683 0.0
H87 H 0.9131 0.22876 0.15758 0.0
Li88 Li 0.98435 0.74922 0.36673 0.0
Li89 Li 0.00825 0.76944 0.3857 0.0
Li90 Li 0.0202 0.74805 0.35912 0.0
Li91 Li 0.00716 0.73455 0.39067 0.0
C92 C -0.00364 0.78194 0.34197 0.0
N93 N 0.98492 0.80554 0.31064 0.0
C94 C 0.98987 0.80133 0.34534 0.0
C95 C -0.00285 0.7746 0.32265 0.0
C96 C 0.9841 0.81301 0.32931 0.0
C97 C 0.99128 0.78675 0.30702 0.0
C98 C 0.97603 0.74634 0.41159 0.0
C99 C 0.9738 0.74087 0.44677 0.0
N100 N 0.95728 0.72968 0.44393 0.0
C101 C 0.95893 0.73494 0.40905 0.0
C102 C 0.98344 0.74949 0.43062 0.0
C103 C 0.9497 0.7266 0.42557 0.0
C104 C 0.94852 0.73217 0.35318 0.0
N105 N 0.95837 0.74933 0.35693 0.0
C106 C 0.92968 0.76848 0.34967 0.0
C107 C 0.94934 0.76724 0.35558 0.0
C108 C 0.91897 0.75104 0.34569 0.0
C109 C 0.92865 0.73267 0.34761 0.0
H110 H 0.95595 0.7181 0.35503 0.0
H111 H 0.95734 0.78057 0.35939 0.0
C112 C 0.02315 0.80836 0.38685 0.0
N113 N 0.0103 0.79541 0.39542 0.0
C114 C 0.02131 0.82868 0.39035 0.0
C115 C 0.99332 0.82171 0.41163 0.0
C116 C 0.9958 0.80158 0.40787 0.0
C117 C 0.00584 0.83553 0.40241 0.0
H118 H 0.034 0.80302 0.37635 0.0
H119 H 0.98546 0.79098 0.41397 0.0
C120 C 0.0015 0.71208 0.34827 0.0
N121 N 0.00291 0.6848 0.31781 0.0
C122 C 0.01053 0.69369 0.35115 0.0
C123 C 0.99297 0.71653 0.33001 0.0
C124 C 0.01115 0.68011 0.33553 0.0
C125 C 0.9939 0.70256 0.31476 0.0
C126 C 0.0447 0.76254 0.39602 0.0
C127 C 0.06082 0.77058 0.38582 0.0
C128 C 0.04219 0.76674 0.4161 0.0
C129 C 0.07402 0.78299 0.39585 0.0
C130 C 0.05568 0.77923 0.4256 0.0
N131 N 0.07118 0.78704 0.41536 0.0
C132 C 0.04542 0.76582 0.33232 0.0
C133 C 0.04688 0.73074 0.33056 0.0
C134 C 0.06014 0.76759 0.31798 0.0
N135 N 0.03919 0.74763 0.33838 0.0
C136 C 0.06165 0.73182 0.31611 0.0
C137 C 0.06866 0.75045 0.30987 0.0
H138 H 0.03927 0.77901 0.33902 0.0
H139 H 0.04201 0.71646 0.3359 0.0
C140 C 0.99365 0.6996 0.40749 0.0
N141 N 0.00829 0.71335 0.40895 0.0
C142 C 0.99285 0.68372 0.42063 0.0
C143 C 0.0226 0.69612 0.43622 0.0
C144 C 0.02263 0.71199 0.42294 0.0
C145 C 0.00752 0.68178 0.43514 0.0
H146 H 0.98257 0.70101 0.39606 0.0
H147 H 0.03413 0.72313 0.42369 0.0
O148 O 0.00239 0.77043 0.35748 0.0
O149 O 0.9855 0.75432 0.39555 0.0
O150 O 0.00084 0.72553 0.36339 0.0
O151 O 0.03151 0.75051 0.38642 0.0
H152 H 0.98914 0.80726 0.36019 0.0
H153 H 0.0025 0.75979 0.31971 0.0
H154 H 0.97898 0.82801 0.33172 0.0
H155 H 0.99186 0.78127 0.29199 0.0
H156 H 0.97945 0.74308 0.46156 0.0
H157 H 0.95295 0.73236 0.39448 0.0
H158 H -0.00349 0.75845 0.43291 0.0
H159 H 0.93653 0.71763 0.42379 0.0
H160 H 0.92307 0.783 0.34811 0.0
H161 H 0.92095 0.7188 0.34513 0.0
H162 H 0.03118 0.83895 0.38295 0.0
H163 H 0.98141 0.82647 0.42126 0.0
H164 H 0.01709 0.69 0.36526 0.0
H165 H 0.98558 0.73053 0.32767 0.0
H166 H 0.01818 0.66585 0.3375 0.0
H167 H 0.98741 0.70582 0.30052 0.0
H168 H 0.06314 0.7673 0.37034 0.0
H169 H 0.0299 0.76052 0.42424 0.0
H170 H 0.08652 0.78938 0.38813 0.0
H171 H 0.05384 0.78271 0.44111 0.0
H172 H 0.06506 0.78223 0.31356 0.0
H173 H 0.0681 0.71822 0.31053 0.0
H174 H 0.98122 0.67276 0.4191 0.0
H175 H 0.0342 0.69504 0.44719 0.0
Li176 Li 0.51376 0.75454 0.63916 0.0
Li177 Li 0.50053 0.77334 0.61096 0.0
Li178 Li 0.47839 0.75296 0.63167 0.0
Li179 Li 0.5026 0.73712 0.60975 0.0
C180 C 0.49637 0.79087 0.65284 0.0
N181 N 0.50058 0.8209 0.68034 0.0
C182 C 0.50806 0.80744 0.64851 0.0
C183 C 0.48664 0.78968 0.67105 0.0
C184 C 0.51004 0.82244 0.66264 0.0
C185 C 0.48903 0.80498 0.68479 0.0
C186 C 0.53433 0.7582 0.59386 0.0
C187 C 0.53328 0.75953 0.55823 0.0
N188 N 0.55331 0.76143 0.55777 0.0
C189 C 0.5549 0.76015 0.59303 0.0
C190 C 0.5234 0.75788 0.57632 0.0
C191 C 0.56422 0.76178 0.57464 0.0
C192 C 0.54167 0.7345 0.66141 0.0
N193 N 0.53365 0.75283 0.6591 0.0
C194 C 0.55707 0.76668 0.68171 0.0
C195 C 0.54081 0.76876 0.66916 0.0
C196 C 0.56618 0.74807 0.68372 0.0
C197 C 0.55798 0.73175 0.67373 0.0
H198 H 0.53581 0.72211 0.6531 0.0
H199 H 0.53452 0.78325 0.6669 0.0
C200 C 0.48101 0.80495 0.59474 0.0
N201 N 0.49957 0.79774 0.59741 0.0
C202 C 0.47821 0.82381 0.5868 0.0
C203 C 0.51375 0.82733 0.58422 0.0
C204 C 0.51586 0.80833 0.59217 0.0
C205 C 0.49471 0.83539 0.58172 0.0
H206 H 0.46838 0.79621 0.59933 0.0
H207 H 0.53045 0.80229 0.5947 0.0
C208 C 0.49083 0.72088 0.65423 0.0
N209 N 0.47897 0.70091 0.68786 0.0
C210 C 0.48526 0.70095 0.65309 0.0
C211 C 0.49046 0.73065 0.67244 0.0
C212 C 0.47928 0.69111 0.67027 0.0
C213 C 0.4844 0.7203 0.68928 0.0
C214 C 0.46549 0.74496 0.59179 0.0
C215 C 0.45737 0.72718 0.59866 0.0
C216 C 0.45903 0.75296 0.57388 0.0
C217 C 0.44279 0.7177 0.58746 0.0
C218 C 0.44446 0.743 0.5631 0.0
N219 N 0.4367 0.72574 0.57006 0.0
C220 C 0.44478 0.77272 0.64311 0.0
C221 C 0.44184 0.73801 0.64799 0.0
C222 C 0.42582 0.77582 0.65064 0.0
N223 N 0.45243 0.75411 0.6421 0.0
C224 C 0.4227 0.7404 0.65545 0.0
C225 C 0.41454 0.75953 0.65692 0.0
H226 H 0.45348 0.78521 0.63806 0.0
H227 H 0.4482 0.72336 0.64691 0.0
C228 C 0.5223 0.702 0.60394 0.0
N229 N 0.5088 0.71388 0.59499 0.0
C230 C 0.52721 0.68364 0.59578 0.0
C231 C 0.50459 0.69025 0.56897 0.0
C232 C 0.50026 0.70862 0.57757 0.0
C233 C 0.51799 0.67729 0.57828 0.0
H234 H 0.52897 0.70668 0.61771 0.0
H235 H 0.48976 0.71841 0.57058 0.0
O236 O 0.49406 0.77614 0.63911 0.0
O237 O 0.52508 0.75667 0.61181 0.0
O238 O 0.49658 0.73069 0.63751 0.0
O239 O 0.47995 0.75442 0.60228 0.0
H240 H 0.51571 0.80861 0.63451 0.0
H241 H 0.47728 0.77712 0.67452 0.0
H242 H 0.51913 0.8353 0.65954 0.0
H243 H 0.48164 0.80422 0.69897 0.0
H244 H 0.525 0.7593 0.54455 0.0
H245 H 0.56356 0.76044 0.60648 0.0
H246 H 0.5075 0.75642 0.57658 0.0
H247 H 0.58013 0.76332 0.57379 0.0
H248 H 0.56313 0.77972 0.68886 0.0
H249 H 0.56449 0.71713 0.67493 0.0
H250 H 0.46332 0.82952 0.58529 0.0
H251 H 0.52686 0.83568 0.58024 0.0
H252 H 0.48549 0.6932 0.63905 0.0
H253 H 0.49486 0.74603 0.67356 0.0
H254 H 0.47488 0.67569 0.66961 0.0
H255 H 0.48403 0.72768 0.70349 0.0
H256 H 0.46245 0.72066 0.61234 0.0
H257 H 0.4653 0.76666 0.56834 0.0
H258 H 0.43637 0.70391 0.59256 0.0
H259 H 0.43935 0.74899 0.54918 0.0
H260 H 0.41998 0.79075 0.65137 0.0
H261 H 0.41451 0.72748 0.66033 0.0
H262 H 0.53789 0.67439 0.6033 0.0
H263 H 0.49692 0.68598 0.55558 0.0
Li264 Li 0.4781 0.24679 0.86327 0.0
Li265 Li 0.50045 0.2712 0.88111 0.0
Li266 Li 0.5142 0.24584 0.85723 0.0
Li267 Li 0.50064 0.23582 0.88847 0.0
C268 C 0.49601 0.27905 0.83561 0.0
N269 N 0.49786 0.30222 0.80196 0.0
C270 C 0.4916 0.29927 0.8366 0.0
C271 C 0.50132 0.27061 0.81747 0.0
C272 C 0.49262 0.31074 0.81944 0.0
C273 C 0.50218 0.28257 0.80064 0.0
C274 C 0.47136 0.24971 0.90963 0.0
C275 C 0.47367 0.25052 0.94519 0.0
N276 N 0.45778 0.23816 0.9464 0.0
C277 C 0.45501 0.23709 0.91122 0.0
C278 C 0.48073 0.25657 0.92672 0.0
C279 C 0.44838 0.2314 0.92995 0.0
C280 C 0.44021 0.22982 0.85684 0.0
N281 N 0.45188 0.24601 0.85405 0.0
C282 C 0.42403 0.26573 0.84526 0.0
C283 C 0.44431 0.26365 0.84811 0.0
C284 C 0.41137 0.24958 0.8489 0.0
C285 C 0.41974 0.23127 0.85429 0.0
H286 H 0.44667 0.21614 0.86209 0.0
H287 H 0.45393 0.27637 0.84648 0.0
C288 C 0.51665 0.30981 0.88292 0.0
N289 N 0.50145 0.29792 0.88869 0.0
C290 C 0.51558 0.33028 0.88599 0.0
C291 C 0.48342 0.32559 0.9011 0.0
C292 C 0.48511 0.3053 0.89772 0.0
C293 C 0.49864 0.33842 0.89493 0.0
H294 H 0.52925 0.30345 0.87533 0.0
H295 H 0.47313 0.29546 0.9018 0.0
C296 C 0.49366 0.21117 0.84625 0.0
N297 N 0.48982 0.18674 0.81367 0.0
C298 C 0.50009 0.1915 0.84711 0.0
C299 C 0.48508 0.21836 0.82891 0.0
C300 C 0.49808 0.1794 0.83046 0.0
C301 C 0.48332 0.20579 0.81257 0.0
C302 C 0.53854 0.25241 0.89697 0.0
C303 C 0.55364 0.23862 0.89388 0.0
C304 C 0.53934 0.26516 0.91325 0.0
C305 C 0.56925 0.23765 0.90735 0.0
C306 C 0.55519 0.2637 0.9264 0.0
N307 N 0.56969 0.2501 0.9232 0.0
C308 C 0.54768 0.26003 0.83986 0.0
C309 C 0.54121 0.22703 0.8295 0.0
C310 C 0.56596 0.25987 0.83034 0.0
N311 N 0.53596 0.24365 0.83965 0.0
C312 C 0.55941 0.22627 0.81963 0.0
C313 C 0.57227 0.24265 0.82054 0.0
H314 H 0.54312 0.27296 0.84818 0.0
H315 H 0.53179 0.2141 0.82976 0.0
C316 C 0.48927 0.20077 0.90529 0.0
N317 N 0.50217 0.21591 0.90851 0.0
C318 C 0.48915 0.18424 0.91762 0.0
C319 C 0.5154 0.19924 0.93673 0.0
C320 C 0.51483 0.21568 0.92412 0.0
C321 C 0.50259 0.18314 0.93336 0.0
H322 H 0.47929 0.20139 0.89283 0.0
H323 H 0.52472 0.22798 0.92667 0.0
O324 O 0.49553 0.26775 0.85242 0.0
O325 O 0.47832 0.25513 0.89143 0.0
O326 O 0.49561 0.22311 0.86248 0.0
O327 O 0.52344 0.25398 0.88369 0.0
H328 H 0.48733 0.30606 0.85047 0.0
H329 H 0.50497 0.25505 0.81637 0.0
H330 H 0.48926 0.32641 0.82001 0.0
H331 H 0.50634 0.27623 0.78653 0.0
H332 H 0.48084 0.25562 0.95855 0.0
H333 H 0.44761 0.23162 0.89815 0.0
H334 H 0.49341 0.26634 0.92571 0.0
H335 H 0.43579 0.22158 0.93141 0.0
H336 H 0.41831 0.27997 0.84062 0.0
H337 H 0.41053 0.21847 0.85732 0.0
H338 H 0.52759 0.33966 0.88095 0.0
H339 H 0.47031 0.33116 0.90845 0.0
H340 H 0.50668 0.1857 0.86049 0.0
H341 H 0.47976 0.23344 0.82808 0.0
H342 H 0.50309 0.16417 0.83087 0.0
H343 H 0.47675 0.21117 0.79903 0.0
H344 H 0.5533 0.22883 0.88118 0.0
H345 H 0.52788 0.27609 0.91568 0.0
H346 H 0.58105 0.22704 0.90519 0.0
H347 H 0.55599 0.27343 0.93911 0.0
H348 H 0.57538 0.27286 0.83122 0.0
H349 H 0.56385 0.21266 0.81237 0.0
H350 H 0.4792 0.17207 0.91431 0.0
H351 H 0.52589 0.199 0.94881 0.0
Li352 Li 0.1169 -0.00318 0.27132 0.0
Li353 Li 0.14056 0.01434 0.24921 0.0
Li354 Li 0.11513 0.99269 0.23503 0.0
Li355 Li 0.14346 0.97947 0.25487 0.0
C356 C 0.09998 0.03247 0.25643 0.0
N357 N 0.07708 0.06411 0.26864 0.0
C358 C 0.10853 0.04804 0.26711 0.0
C359 C 0.07981 0.03299 0.25196 0.0
C360 C 0.09669 0.06392 0.27312 0.0
C361 C 0.06847 0.0491 0.2583 0.0
C362 C 0.16129 0.99515 0.28617 0.0
C363 C 0.19626 0.98935 0.29023 0.0
N364 N 0.19278 0.98212 0.30868 0.0
C365 C 0.15809 0.98789 0.30527 0.0
C366 C 0.18054 -0.0039 0.27867 0.0
C367 C 0.17419 0.98128 0.31638 0.0
C368 C 0.10371 0.97761 0.30461 0.0
N369 N 0.10197 0.99528 0.2951 0.0
C370 C 0.08048 0.00745 0.32037 0.0
C371 C 0.09055 0.0101 0.30253 0.0
C372 C 0.08236 0.98946 0.33068 0.0
C373 C 0.0941 0.97439 0.32257 0.0
H374 H 0.11285 0.96607 0.29834 0.0
H375 H 0.08935 0.02403 0.29484 0.0
C376 C 0.14753 0.04978 0.22818 0.0
N377 N 0.15324 0.0391 0.24425 0.0
C378 C 0.15508 0.06882 0.22501 0.0
C379 C 0.17389 0.06566 0.25521 0.0
C380 C 0.16629 0.04655 0.2576 0.0
C381 C 0.16812 0.07707 0.23885 0.0
H382 H 0.13661 0.04375 0.21818 0.0
H383 H 0.17023 0.03794 0.27047 0.0
C384 C 0.09815 0.96146 0.25706 0.0
N385 N 0.06359 0.93965 0.25872 0.0
C386 C 0.09888 0.94076 0.25716 0.0
C387 C 0.07989 0.97111 0.25785 0.0
C388 C 0.08122 0.92998 0.25798 0.0
C389 C 0.06257 0.95981 0.25869 0.0
C390 C 0.1561 0.00128 0.21492 0.0
C391 C 0.148 0.00932 0.19771 0.0
C392 C 0.17657 0.00178 0.21774 0.0
C393 C 0.16052 0.01816 0.18379 0.0
C394 C 0.18859 0.01076 0.2035 0.0
N395 N 0.18038 0.01872 0.18697 0.0
C396 C 0.09049 0.00628 0.20504 0.0
C397 C 0.09249 0.97122 0.20682 0.0
C398 C 0.07791 0.00509 0.18876 0.0
N399 N 0.09758 0.9895 0.21357 0.0
C400 C 0.07986 0.96932 0.19061 0.0
C401 C 0.0726 0.98642 0.18119 0.0
H402 H 0.09499 0.02062 0.21065 0.0
H403 H 0.0984 0.95813 0.21388 0.0
C404 C 0.15463 0.94619 0.27581 0.0
N405 N 0.15877 0.95642 0.25898 0.0
C406 C 0.16283 0.92752 0.27898 0.0
C407 C 0.17954 0.93028 0.24744 0.0
C408 C 0.17114 0.94904 0.24496 0.0
C409 C 0.17507 0.91915 0.26447 0.0
H410 H 0.14428 0.95222 0.2864 0.0
H411 H 0.17383 0.95734 0.23154 0.0
O412 O 0.11129 0.01688 0.2502 0.0
O413 O 0.14568 0.00148 0.27497 0.0
O414 O 0.1153 0.97216 0.25604 0.0
O415 O 0.14406 0.99266 0.22875 0.0
H416 H 0.12406 0.04779 0.27088 0.0
H417 H 0.07297 0.02106 0.2437 0.0
H418 H 0.10309 0.07607 0.28141 0.0
H419 H 0.05283 0.04967 0.25498 0.0
H420 H 0.21122 0.98991 0.28455 0.0
H421 H 0.14336 0.98734 0.31146 0.0
H422 H 0.18332 0.00203 0.2641 0.0
H423 H 0.17191 0.97552 0.33113 0.0
H424 H 0.07175 0.01953 0.32632 0.0
H425 H 0.09581 0.96029 0.33002 0.0
H426 H 0.15011 0.07733 0.21238 0.0
H427 H 0.18392 0.07162 0.2662 0.0
H428 H 0.11294 0.93311 0.25653 0.0
H429 H 0.07913 0.98713 0.25779 0.0
H430 H 0.08154 0.91394 0.25802 0.0
H431 H 0.04831 0.96706 0.25929 0.0
H432 H 0.13222 0.00889 0.19518 0.0
H433 H 0.18312 0.99521 0.23073 0.0
H434 H 0.15444 0.02458 0.17048 0.0
H435 H 0.20445 0.01134 0.20555 0.0
H436 H 0.07297 0.01865 0.18178 0.0
H437 H 0.076 0.95463 0.18539 0.0
H438 H 0.15883 0.91931 0.29216 0.0
H439 H 0.18904 0.92434 0.23596 0.0
Li440 Li 0.23822 0.89373 0.50161 0.0
Li441 Li 0.24974 0.8619 0.51618 0.0
Li442 Li 0.27266 0.88759 0.50454 0.0
Li443 Li 0.25361 0.86844 0.48046 0.0
C444 C 0.26434 0.90035 0.53938 0.0
N445 N 0.28818 0.92206 0.56457 0.0
C446 C 0.27362 0.8911 0.55534 0.0
C447 C 0.26704 0.92068 0.53634 0.0
C448 C 0.28565 0.90232 0.56788 0.0
C449 C 0.27919 0.93139 0.5492 0.0
C450 C 0.21517 0.85163 0.49371 0.0
C451 C 0.20695 0.81739 0.48741 0.0
N452 N 0.18748 0.82166 0.49021 0.0
C453 C 0.1951 0.85571 0.49649 0.0
C454 C 0.22118 0.83235 0.48912 0.0
C455 C 0.18132 0.84034 0.49466 0.0
C456 C 0.20503 0.91454 0.4873 0.0
N457 N 0.21716 0.91211 0.50312 0.0
C458 C 0.19636 0.93249 0.52316 0.0
C459 C 0.21332 0.92096 0.52078 0.0
C460 C 0.18349 0.93502 0.50714 0.0
C461 C 0.18814 0.92629 0.48891 0.0
H462 H 0.20801 0.90669 0.47368 0.0
H463 H 0.22295 0.91836 0.53324 0.0
C464 C 0.26216 0.83632 0.54563 0.0
N465 N 0.24578 0.84228 0.5357 0.0
C466 C 0.2604 0.82396 0.56204 0.0
C467 C 0.22506 0.82281 0.55671 0.0
C468 C 0.22747 0.83559 0.54068 0.0
C469 C 0.24158 0.81743 0.56813 0.0
H470 H 0.27653 0.84199 0.54135 0.0
H471 H 0.21463 0.84073 0.53275 0.0
C472 C 0.25144 0.91229 0.46938 0.0
N473 N 0.23591 0.9425 0.44662 0.0
C474 C 0.24295 0.90808 0.45102 0.0
C475 C 0.25225 0.93191 0.47605 0.0
C476 C 0.23513 0.92355 0.43975 0.0
C477 C 0.24424 0.94696 0.46437 0.0
C478 C 0.28548 0.84372 0.49478 0.0
C479 C 0.30428 0.84778 0.48713 0.0
C480 C 0.27954 0.82403 0.49745 0.0
C481 C 0.31669 0.83207 0.48191 0.0
C482 C 0.29239 0.80873 0.49207 0.0
N483 N 0.31053 0.81303 0.48446 0.0
C484 C 0.31177 0.88824 0.51933 0.0
C485 C 0.30394 0.91186 0.49455 0.0
C486 C 0.33191 0.89262 0.51754 0.0
N487 N 0.29842 0.89759 0.50756 0.0
C488 C 0.32382 0.91659 0.4922 0.0
C489 C 0.33809 0.90644 0.50331 0.0
H490 H 0.30691 0.87654 0.52914 0.0
H491 H 0.29303 0.91876 0.48517 0.0
C492 C 0.23905 0.8494 0.44582 0.0
N493 N 0.25528 0.85652 0.45531 0.0
C494 C 0.2411 0.83978 0.42768 0.0
C495 C 0.27637 0.84585 0.42907 0.0
C496 C 0.27358 0.85555 0.44704 0.0
C497 C 0.26002 0.83761 0.41934 0.0
H498 H 0.22455 0.85108 0.45234 0.0
H499 H 0.28603 0.86227 0.45445 0.0
O500 O 0.25277 0.88958 0.52672 0.0
O501 O 0.22882 0.86649 0.49567 0.0
O502 O 0.2591 0.89733 0.48068 0.0
O503 O 0.27322 0.85893 0.50021 0.0
H504 H 0.2716 0.87542 0.558 0.0
H505 H 0.25986 0.92809 0.52415 0.0
H506 H 0.29298 0.89533 0.58025 0.0
H507 H 0.28148 0.94711 0.54696 0.0
H508 H 0.21139 0.8024 0.48383 0.0
H509 H 0.19023 0.87058 0.50008 0.0
H510 H 0.23662 0.82903 0.48671 0.0
H511 H 0.16573 0.84326 0.49681 0.0
H512 H 0.19299 0.93884 0.5375 0.0
H513 H 0.17823 0.9276 0.4764 0.0
H514 H 0.27357 0.82057 0.57046 0.0
H515 H 0.2103 0.81787 0.56054 0.0
H516 H 0.24225 0.89304 0.44554 0.0
H517 H 0.25892 0.93548 0.49012 0.0
H518 H 0.22842 0.92048 0.42557 0.0
H519 H 0.24466 0.96218 0.46942 0.0
H520 H 0.30917 0.86292 0.48499 0.0
H521 H 0.26526 0.82056 0.50379 0.0
H522 H 0.33122 0.83502 0.47584 0.0
H523 H 0.28796 0.79343 0.49403 0.0
H524 H 0.34257 0.88454 0.52635 0.0
H525 H 0.32806 0.92762 0.48135 0.0
H526 H 0.22814 0.83367 0.4205 0.0
H527 H 0.29111 0.84481 0.42284 0.0
Li528 Li 0.3703 0.98065 0.7482 0.0
Li529 Li 0.38965 0.00421 0.76937 0.0
Li530 Li 0.36429 0.01648 0.74456 0.0
Li531 Li 0.39496 0.00199 0.73414 0.0
C532 C 0.34515 -0.0021 0.78099 0.0
N533 N 0.31396 0.99468 0.80732 0.0
C534 C 0.34846 0.99147 0.80036 0.0
C535 C 0.32596 0.00289 0.77511 0.0
C536 C 0.3325 0.98987 0.81341 0.0
C537 C 0.3104 0.00111 0.78862 0.0
C538 C 0.41502 0.97147 0.74688 0.0
C539 C 0.45031 0.96981 0.74183 0.0
N540 N 0.4479 0.95275 0.73134 0.0
C541 C 0.41289 0.95389 0.73612 0.0
C542 C 0.43388 0.97947 0.74985 0.0
C543 C 0.4297 0.94466 0.72836 0.0
C544 C 0.35626 0.94285 0.73468 0.0
N545 N 0.36001 0.95497 0.75031 0.0
C546 C 0.35267 0.9292 0.77322 0.0
C547 C 0.35863 0.94849 0.76925 0.0
C548 C 0.34867 0.91634 0.75748 0.0
C549 C 0.35057 0.92319 0.73797 0.0
H550 H 0.35811 0.9483 0.71975 0.0
H551 H 0.36265 0.95822 0.78126 0.0
C552 C 0.39329 0.01909 0.80889 0.0
N553 N 0.39951 0.00567 0.79521 0.0
C554 C 0.39917 0.01714 0.82864 0.0
C555 C 0.41775 0.98789 0.81943 0.0
C556 C 0.4115 0.99033 0.80008 0.0
C557 C 0.41152 0.00131 0.83401 0.0
H558 H 0.38331 0.03085 0.80459 0.0
H559 H 0.41568 0.97954 0.78906 0.0
C560 C 0.35146 0.99269 0.71266 0.0
N561 N 0.3176 0.98592 0.69082 0.0
C562 C 0.35169 0.99521 0.69215 0.0
C563 C 0.33407 0.98656 0.72204 0.0
C564 C 0.33441 0.99175 0.68137 0.0
C565 C 0.31709 0.98326 0.71075 0.0
C566 C 0.40642 0.03978 0.74841 0.0
C567 C 0.40466 0.05533 0.73488 0.0
C568 C 0.42332 0.03834 0.76019 0.0
C569 C 0.42005 0.0691 0.73319 0.0
C570 C 0.43838 0.0524 0.75804 0.0
N571 N 0.43645 0.06736 0.74469 0.0
C572 C 0.3426 0.04837 0.75745 0.0
C573 C 0.33681 0.04113 0.72363 0.0
C574 C 0.33055 0.06506 0.75639 0.0
N575 N 0.34564 0.03696 0.74118 0.0
C576 C 0.32453 0.05767 0.72192 0.0
C577 C 0.32158 0.07011 0.73836 0.0
H578 H 0.35007 0.04478 0.77111 0.0
H579 H 0.33972 0.03203 0.71082 0.0
C580 C 0.40925 0.98809 0.69921 0.0
N581 N 0.4138 0.00184 0.71317 0.0
C582 C 0.42008 0.98703 0.68176 0.0
C583 C 0.44085 0.0137 0.69365 0.0
C584 C 0.4297 0.01408 0.71107 0.0
C585 C 0.43559 0.00049 0.67846 0.0
H586 H 0.39679 0.97827 0.70144 0.0
H587 H 0.43344 0.02455 0.72251 0.0
O588 O 0.36072 1e-05 0.76816 0.0
O589 O 0.39872 0.98087 0.75436 0.0
O590 O 0.36831 -0.00392 0.72331 0.0
O591 O 0.39132 0.02648 0.75062 0.0
H592 H 0.36319 0.98762 0.80524 0.0
H593 H 0.32307 0.00828 0.76035 0.0
H594 H 0.33487 0.98484 0.8284 0.0
H595 H 0.2955 0.00492 0.78424 0.0
H596 H 0.46498 0.97589 0.74392 0.0
H597 H 0.39843 0.9475 0.73366 0.0
H598 H 0.43577 0.99309 0.75811 0.0
H599 H 0.42826 0.93108 0.71995 0.0
H600 H 0.35154 0.92424 0.78841 0.0
H601 H 0.34752 0.91352 0.72554 0.0
H602 H 0.39408 0.02777 0.83953 0.0
H603 H 0.42693 0.97525 0.82304 0.0
H604 H 0.36509 -0.00013 0.68465 0.0
H605 H 0.33375 0.98414 0.7378 0.0
H606 H 0.33436 0.99371 0.6655 0.0
H607 H 0.30352 0.97851 0.71783 0.0
H608 H 0.39155 0.05673 0.72582 0.0
H609 H 0.42483 0.02649 0.77084 0.0
H610 H 0.41894 0.0812 0.72276 0.0
H611 H 0.45158 0.05144 0.767 0.0
H612 H 0.32908 0.07441 0.76933 0.0
H613 H 0.31783 0.06095 0.70776 0.0
H614 H 0.41583 0.9763 0.6706 0.0
H615 H 0.45271 0.02434 0.69168 0.0
Li616 Li 0.25789 0.13618 0.01459 0.0
Li617 Li 0.27271 0.11353 0.99006 0.0
Li618 Li 0.25976 0.14494 0.97997 0.0
Li619 Li 0.23653 0.12001 0.99016 0.0
C620 C 0.29238 0.15725 -0.00191 0.0
N621 N 0.3132 0.19252 -0.00303 0.0
C622 C 0.3118 0.15761 0.99097 0.0
C623 C 0.28352 0.17482 0.00459 0.0
C624 C 0.32209 0.1756 0.99055 0.0
C625 C 0.2943 0.1925 0.00391 0.0
C626 C 0.25759 0.09685 0.02741 0.0
C627 C 0.24892 0.07392 0.05335 0.0
N628 N 0.26733 0.07609 0.06117 0.0
C629 C 0.2764 0.09889 0.03569 0.0
C630 C 0.24369 0.08433 0.03629 0.0
C631 C 0.28104 0.08827 0.05278 0.0
C632 C 0.2431 0.142 0.05322 0.0
N633 N 0.25946 0.14389 0.04166 0.0
C634 C 0.27846 0.15515 0.06926 0.0
C635 C 0.277 0.15007 0.0493 0.0
C636 C 0.26179 0.15352 0.08166 0.0
C637 C 0.24395 0.14669 0.07335 0.0
H638 H 0.22944 0.13665 0.04681 0.0
H639 H 0.28993 0.151 0.03992 0.0
C640 C 0.30719 0.10292 0.97113 0.0
N641 N 0.2938 0.09591 0.98441 0.0
C642 C 0.32453 0.09245 0.96723 0.0
C643 C 0.31355 0.06719 0.99012 0.0
C644 C 0.29631 0.07813 0.99346 0.0
C645 C 0.32818 0.07459 0.9772 0.0
H646 H 0.30465 0.11701 0.964 0.0
H647 H 0.2853 0.07273 0.00374 0.0
C648 C 0.22197 0.15914 0.98978 0.0
N649 N 0.19199 0.18084 0.97255 0.0
C650 C 0.21583 0.15478 0.97053 0.0
C651 C 0.2129 0.17452 0.00025 0.0
C652 C 0.20062 0.16592 0.96209 0.0
C653 C 0.19777 0.18533 0.99128 0.0
C654 C 0.25276 0.102 0.95649 0.0
C655 C 0.25362 0.10268 0.93586 0.0
C656 C 0.2496 0.08384 0.96599 0.0
C657 C 0.25113 0.08519 0.92504 0.0
C658 C 0.24718 0.06669 0.95464 0.0
N659 N 0.24799 0.06771 0.93458 0.0
C660 C 0.27959 0.15743 0.94729 0.0
C661 C 0.25617 0.18158 0.95728 0.0
C662 C 0.28362 0.16782 0.92998 0.0
N663 N 0.26567 0.16407 0.96019 0.0
C664 C 0.25956 0.19238 0.93993 0.0
C665 C 0.27295 0.18511 0.92567 0.0
H666 H 0.28691 0.14349 0.95005 0.0
H667 H 0.2453 0.18667 0.96784 0.0
C668 C 0.19879 0.1084 0.00328 0.0
N669 N 0.21042 0.10929 0.98686 0.0
C670 C 0.1796 0.10065 0.00214 0.0
C671 C 0.18469 0.09495 0.96722 0.0
C672 C 0.20359 0.10317 0.96894 0.0
C673 C 0.17251 0.09353 0.98398 0.0
H674 H 0.2045 0.11361 0.01729 0.0
H675 H 0.21274 0.10461 0.95593 0.0
O676 O 0.282 0.13984 -0.00142 0.0
O677 O 0.25263 0.10723 0.01081 0.0
O678 O 0.23691 0.14862 -0.0016 0.0
O679 O 0.25536 0.11903 0.96719 0.0
H680 H 0.31887 0.14415 0.9859 0.0
H681 H 0.26845 0.17479 0.01004 0.0
H682 H 0.33715 0.17611 0.98512 0.0
H683 H 0.28764 0.2062 0.00889 0.0
H684 H 0.23835 0.06413 0.06036 0.0
H685 H 0.28729 0.1086 0.02899 0.0
H686 H 0.22905 0.08266 0.03005 0.0
H687 H 0.29554 0.0897 0.05938 0.0
H688 H 0.29248 0.16059 0.07478 0.0
H689 H 0.23078 0.14481 0.0823 0.0
H690 H 0.33519 0.09857 0.95693 0.0
H691 H 0.31576 0.0536 -0.00168 0.0
H692 H 0.22285 0.14307 0.96214 0.0
H693 H 0.21757 0.17809 0.01515 0.0
H694 H 0.19572 0.16274 0.9472 0.0
H695 H 0.19064 0.1973 -0.0008 0.0
H696 H 0.25617 0.11661 0.9283 0.0
H697 H 0.24895 0.08295 0.98193 0.0
H698 H 0.25172 0.08551 0.90906 0.0
H699 H 0.24468 0.05256 0.9618 0.0
H700 H 0.29435 0.16187 0.91965 0.0
H701 H 0.25088 0.20558 0.93722 0.0
H702 H 0.17063 0.09971 0.01539 0.0
H703 H 0.1796 0.08977 0.95294 0.0
Li704 Li 0.73551 0.38869 0.00195 0.0
Li705 Li 0.75055 0.35808 0.01195 0.0
Li706 Li 0.77126 0.38331 -0.00223 0.0
Li707 Li 0.74802 0.36366 0.97675 0.0
C708 C 0.75847 0.40144 0.03401 0.0
N709 N 0.7633 0.43493 0.05708 0.0
C710 C 0.75496 0.40059 0.05436 0.0
C711 C 0.76455 0.41926 0.02542 0.0
C712 C 0.75746 0.4177 0.06577 0.0
C713 C 0.76688 0.43605 0.03731 0.0
C714 C 0.71276 0.34637 -0.00169 0.0
C715 C 0.70011 0.31418 0.98921 0.0
N716 N 0.68544 0.31621 0.00287 0.0
C717 C 0.6975 0.34823 0.01215 0.0
C718 C 0.71404 0.3293 0.98664 0.0
C719 C 0.68386 0.33277 0.01427 0.0
C720 C 0.70603 0.41634 0.99216 0.0
N721 N 0.71492 0.40664 0.00733 0.0
C722 C 0.69112 0.41905 0.03028 0.0
C723 C 0.70799 0.40792 0.02616 0.0
C724 C 0.68131 0.42882 0.01483 0.0
C725 C 0.6892 0.42777 -0.00436 0.0
H726 H 0.71153 0.41452 0.97725 0.0
H727 H 0.71506 0.39959 0.03781 0.0
C728 C 0.76471 0.34449 0.04694 0.0
N729 N 0.75087 0.33958 0.03324 0.0
C730 C 0.76521 0.33482 0.06507 0.0
C731 C 0.73789 0.3143 0.05436 0.0
C732 C 0.7381 0.32425 0.03624 0.0
C733 C 0.75109 0.32014 0.06932 0.0
H734 H 0.77489 0.35654 0.04405 0.0
H735 H 0.72752 0.32022 0.02504 0.0
C736 C 0.75536 0.4082 0.96524 0.0
N737 N 0.76201 0.43888 0.93893 0.0
C738 C 0.76194 0.40419 0.94603 0.0
C739 C 0.75193 0.42784 0.97095 0.0
C740 C 0.76531 0.41989 0.93299 0.0
C741 C 0.75543 0.44314 0.95746 0.0
C742 C 0.78103 0.33847 -0.00126 0.0
C743 C 0.79867 0.34061 0.00929 0.0
C744 C 0.77303 0.31957 -0.00421 0.0
C745 C 0.80797 0.32376 0.01684 0.0
C746 C 0.78276 0.30309 0.00361 0.0
N747 N 0.79988 0.30551 0.01388 0.0
C748 C 0.8082 0.39814 0.01229 0.0
C749 C 0.80389 0.39605 0.97753 0.0
C750 C 0.82765 0.40473 0.00975 0.0
N751 N 0.79678 0.39418 -0.00379 0.0
C752 C 0.82299 0.40294 0.97431 0.0
C753 C 0.83503 0.40731 0.99053 0.0
H754 H 0.80232 0.39584 0.027 0.0
H755 H 0.79484 0.39175 0.96513 0.0
C756 C 0.73227 0.35943 0.93768 0.0
N757 N 0.74631 0.35376 0.95089 0.0
C758 C 0.73386 0.35366 0.91784 0.0
C759 C 0.76411 0.33635 0.92596 0.0
C760 C 0.76196 0.34243 0.94544 0.0
C761 C 0.75002 0.342 0.91184 0.0
H762 H 0.72025 0.36889 0.94242 0.0
H763 H 0.77321 0.33867 0.95611 0.0
O764 O 0.75602 0.38478 0.02269 0.0
O765 O 0.72599 0.36148 -0.00425 0.0
O766 O 0.7515 0.39292 0.97804 0.0
O767 O 0.77158 0.35481 0.99145 0.0
H768 H 0.75029 0.38686 0.06125 0.0
H769 H 0.7677 0.42006 0.00979 0.0
H770 H 0.75475 0.41727 0.08154 0.0
H771 H 0.77159 0.44994 0.03084 0.0
H772 H 0.70095 0.30085 0.98034 0.0
H773 H 0.69624 0.36145 0.02116 0.0
H774 H 0.72566 0.32773 0.97573 0.0
H775 H 0.67199 0.33395 0.02496 0.0
H776 H 0.6854 0.41947 0.04525 0.0
H777 H 0.68179 0.43475 0.98329 0.0
H778 H 0.776 0.33942 0.07598 0.0
H779 H 0.72679 0.30301 0.05701 0.0
H780 H 0.76462 0.38911 0.94127 0.0
H781 H 0.74635 0.43129 0.98554 0.0
H782 H 0.77052 0.41698 0.91814 0.0
H783 H 0.75283 0.45839 0.9617 0.0
H784 H 0.80506 0.35512 0.01171 0.0
H785 H 0.75938 0.31768 0.98768 0.0
H786 H 0.8216 0.32519 0.02508 0.0
H787 H 0.7767 0.28838 0.00152 0.0
H788 H 0.83672 0.40797 0.02254 0.0
H789 H 0.82842 0.40455 0.95931 0.0
H790 H 0.72271 0.35829 0.90735 0.0
H791 H 0.77702 0.32775 0.9219 0.0
Li792 Li 0.8836 0.50281 0.26797 0.0
Li793 Li 0.86475 0.48225 0.24481 0.0
Li794 Li 0.8896 0.50562 0.23196 0.0
Li795 Li 0.85803 0.51671 0.24707 0.0
C796 C 0.90736 0.46916 0.25422 0.0
N797 N 0.93541 0.44115 0.26428 0.0
C798 C 0.90173 0.45183 0.26408 0.0
C799 C 0.92725 0.47211 0.24926 0.0
C800 C 0.91613 0.43788 0.26909 0.0
C801 C 0.9412 0.45782 0.25455 0.0
C802 C 0.84005 0.504 0.2795 0.0
C803 C 0.8052 0.50923 0.28519 0.0
N804 N 0.80955 0.51954 0.30193 0.0
C805 C 0.84416 0.51455 0.29683 0.0
C806 C 0.8204 0.50121 0.27369 0.0
C807 C 0.82854 0.52231 0.30794 0.0
C808 C 0.90446 0.51695 0.30226 0.0
N809 N 0.89492 0.50155 0.29346 0.0
C810 C 0.90015 0.48096 0.32167 0.0
C811 C 0.89217 0.484 0.30294 0.0
C812 C 0.91096 0.49623 0.33068 0.0
C813 C 0.91283 0.51452 0.32093 0.0
H814 H 0.90559 0.5311 0.29491 0.0
H815 H 0.88378 0.47233 0.29589 0.0
C816 C 0.86215 0.44295 0.22924 0.0
N817 N 0.85495 0.45616 0.24264 0.0
C818 C 0.8565 0.423 0.23024 0.0
C819 C 0.83627 0.43093 0.25871 0.0
C820 C 0.84219 0.45059 0.2571 0.0
C821 C 0.8435 0.41678 0.24527 0.0
H822 H 0.87271 0.44778 0.21821 0.0
H823 H 0.83722 0.46127 0.26791 0.0
C824 C 0.90175 0.53886 0.2545 0.0
N825 N 0.93531 0.56189 0.25885 0.0
C826 C 0.90037 0.55953 0.25407 0.0
C827 C 0.92018 0.5299 0.25711 0.0
C828 C 0.91752 0.57092 0.2563 0.0
C829 C 0.93698 0.5418 0.25931 0.0
C830 C 0.85166 0.48971 0.20936 0.0
C831 C 0.8607 0.48289 0.19206 0.0
C832 C 0.83203 0.48451 0.21337 0.0
C833 C 0.85003 0.47073 0.17916 0.0
C834 C 0.82186 0.47229 0.20013 0.0
N835 N 0.831 0.4657 0.18345 0.0
C836 C 0.91436 0.4924 0.20206 0.0
C837 C 0.91552 0.52725 0.20649 0.0
C838 C 0.92655 0.49372 0.18547 0.0
N839 N 0.90873 0.50905 0.21185 0.0
C840 C 0.92812 0.52924 0.19024 0.0
C841 C 0.93324 0.5124 0.17903 0.0
H842 H 0.90858 0.47814 0.20662 0.0
H843 H 0.91068 0.54031 0.21438 0.0
C844 C 0.83772 0.55017 0.26096 0.0
N845 N 0.83848 0.53673 0.24599 0.0
C846 C 0.82424 0.56577 0.26032 0.0
C847 C 0.81286 0.55366 0.22862 0.0
C848 C 0.82632 0.53806 0.23007 0.0
C849 C 0.81186 0.56781 0.24382 0.0
H850 H 0.84796 0.54903 0.27317 0.0
H851 H 0.82747 0.52735 0.21822 0.0
O852 O 0.89341 0.48277 0.24871 0.0
O853 O 0.85515 0.49641 0.26832 0.0
O854 O 0.88514 0.52756 0.25188 0.0
O855 O 0.86189 0.50156 0.22224 0.0
H856 H 0.8864 0.44914 0.26784 0.0
H857 H 0.93189 0.4852 0.24127 0.0
H858 H 0.91197 0.42444 0.27677 0.0
H859 H 0.95664 0.45995 0.25083 0.0
H860 H 0.78993 0.50726 0.28081 0.0
H861 H 0.85924 0.51694 0.30156 0.0
H862 H 0.81691 0.49298 0.26042 0.0
H863 H 0.83152 0.5306 0.32132 0.0
H864 H 0.89837 0.46666 0.32875 0.0
H865 H 0.92072 0.52679 0.32766 0.0
H866 H 0.86236 0.41257 0.21956 0.0
H867 H 0.82663 0.42676 0.27083 0.0
H868 H 0.8862 0.56668 0.25195 0.0
H869 H 0.92144 0.51396 0.25764 0.0
H870 H 0.91668 0.58694 0.25596 0.0
H871 H 0.95133 0.53505 0.26141 0.0
H872 H 0.87576 0.487 0.18854 0.0
H873 H 0.82478 0.48977 0.22662 0.0
H874 H 0.85686 0.46531 0.16573 0.0
H875 H 0.80671 0.46806 0.20312 0.0
H876 H 0.92973 0.48034 0.17721 0.0
H877 H 0.93318 0.5439 0.18612 0.0
H878 H 0.82416 0.57668 0.27209 0.0
H879 H 0.80364 0.55493 0.2156 0.0
Li880 Li 0.75594 0.63821 0.51558 0.0
Li881 Li 0.77176 0.61331 0.49389 0.0
Li882 Li 0.75804 0.64316 0.48082 0.0
Li883 Li 0.73515 0.61791 0.49429 0.0
C884 C 0.79369 0.65402 0.4927 0.0
N885 N 0.82056 0.68108 0.4777 0.0
C886 C 0.81179 0.64754 0.48503 0.0
C887 C 0.78939 0.67429 0.49297 0.0
C888 C 0.82515 0.66145 0.47747 0.0
C889 C 0.80312 0.68773 0.48524 0.0
C890 C 0.75852 0.59673 0.53092 0.0
C891 C 0.75638 0.56589 0.54887 0.0
N892 N 0.77027 0.57263 0.56177 0.0
C893 C 0.7728 0.60333 0.54434 0.0
C894 C 0.75024 0.57785 0.5332 0.0
C895 C 0.77854 0.59094 0.55984 0.0
C896 C 0.74491 0.64217 0.55575 0.0
N897 N 0.75686 0.64967 0.54138 0.0
C898 C 0.77269 0.67104 0.56468 0.0
C899 C 0.77049 0.66391 0.54544 0.0
C900 C 0.76088 0.66328 0.57999 0.0
C901 C 0.74669 0.64877 0.57525 0.0
H902 H 0.73438 0.63062 0.55214 0.0
H903 H 0.77995 0.66948 0.53382 0.0
C904 C 0.80016 0.59458 0.47014 0.0
N905 N 0.79409 0.59672 0.48924 0.0
C906 C 0.81864 0.58637 0.46584 0.0
C907 C 0.82416 0.58245 0.5009 0.0
C908 C 0.80559 0.59064 0.50451 0.0
C909 C 0.83109 0.58069 0.48139 0.0
H910 H 0.79117 0.60031 0.45825 0.0
H911 H 0.8009 0.59305 0.51952 0.0
C912 C 0.72447 0.65979 0.50985 0.0
N913 N 0.70515 0.68486 0.53578 0.0
C914 C 0.70933 0.65251 0.52194 0.0
C915 C 0.72966 0.67984 0.51079 0.0
C916 C 0.69977 0.66542 0.53499 0.0
C917 C 0.71975 0.69226 0.52404 0.0
C918 C 0.75008 0.59801 0.46195 0.0
C919 C 0.7471 0.59748 0.44152 0.0
C920 C 0.74951 0.5804 0.47281 0.0
C921 C 0.74359 0.57927 0.43227 0.0
C922 C 0.74595 0.56249 0.46303 0.0
N923 N 0.74309 0.5623 0.44312 0.0
C924 C 0.77719 0.65415 0.44644 0.0
C925 C 0.74917 0.67409 0.45364 0.0
C926 C 0.77945 0.66315 0.42804 0.0
N927 N 0.76214 0.6596 0.45866 0.0
C928 C 0.75069 0.68328 0.43521 0.0
C929 C 0.76572 0.67745 0.42204 0.0
H930 H 0.78684 0.64208 0.4506 0.0
H931 H 0.73709 0.67774 0.46349 0.0
C932 C 0.70227 0.59592 0.50761 0.0
N933 N 0.70992 0.60566 0.49176 0.0
C934 C 0.68364 0.58703 0.50643 0.0
C935 C 0.68083 0.59882 0.47281 0.0
C936 C 0.69962 0.60737 0.47459 0.0
C937 C 0.6727 0.58835 0.48884 0.0
H938 H 0.71058 0.59522 0.52122 0.0
H939 H 0.70603 0.61537 0.46228 0.0
O940 O 0.78034 0.64059 0.50001 0.0
O941 O 0.75215 0.60884 0.516 0.0
O942 O 0.73423 0.64731 0.49723 0.0
O943 O 0.7535 0.61576 0.47115 0.0
H944 H 0.81552 0.63196 0.4849 0.0
H945 H 0.7755 0.67956 0.49888 0.0
H946 H 0.83917 0.65663 0.47142 0.0
H947 H 0.79989 0.70344 0.48522 0.0
H948 H 0.75008 0.55126 0.55081 0.0
H949 H 0.77965 0.61773 0.54264 0.0
H950 H 0.73915 0.57247 0.52298 0.0
H951 H 0.78961 0.59585 0.57029 0.0
H952 H 0.78355 0.68252 0.56751 0.0
H953 H 0.7374 0.6422 0.58654 0.0
H954 H 0.82353 0.58542 0.45061 0.0
H955 H 0.83323 0.57799 0.51331 0.0
H956 H 0.70515 0.63703 0.52141 0.0
H957 H 0.74119 0.68575 0.50139 0.0
H958 H 0.68811 0.65997 0.54453 0.0
H959 H 0.72366 0.7078 0.52497 0.0
H960 H 0.74752 0.61101 0.43291 0.0
H961 H 0.75187 0.58052 0.4886 0.0
H962 H 0.74127 0.57863 0.41646 0.0
H963 H 0.74548 0.54875 0.47125 0.0
H964 H 0.79098 0.65806 0.41812 0.0
H965 H 0.7398 0.69424 0.43096 0.0
H966 H 0.67779 0.57933 0.51922 0.0
H967 H 0.67292 0.60004 0.45895 0.0
Li968 Li 0.64133 0.516 0.74929 0.0
Li969 Li 0.61851 0.4972 0.77084 0.0
Li970 Li 0.64344 0.47936 0.74999 0.0
Li971 Li 0.61418 0.49538 0.73518 0.0
C972 C 0.66357 0.50372 0.78334 0.0
N973 N 0.6954 0.51406 0.8068 0.0
C974 C 0.66062 0.51469 0.80064 0.0
C975 C 0.68267 0.4977 0.77816 0.0
C976 C 0.67692 0.51988 0.81224 0.0
C977 C 0.69858 0.50316 0.79016 0.0
C978 C 0.59891 0.5309 0.76197 0.0
C979 C 0.56581 0.53702 0.77385 0.0
N980 N 0.57198 0.55452 0.78177 0.0
C981 C 0.6049 0.54901 0.7701 0.0
C982 C 0.57918 0.52491 0.76373 0.0
C983 C 0.59107 0.56072 0.78009 0.0
C984 C 0.65588 0.54758 0.72643 0.0
N985 N 0.65464 0.5407 0.7453 0.0
C986 C 0.66802 0.57104 0.75776 0.0
C987 C 0.6607 0.55192 0.76085 0.0
C988 C 0.66907 0.57872 0.73847 0.0
C989 C 0.66325 0.56659 0.72263 0.0
H990 H 0.65057 0.53851 0.71435 0.0
H991 H 0.65911 0.5464 0.77573 0.0
C992 C 0.60049 0.47652 0.80161 0.0
N993 N 0.60611 0.49506 0.79598 0.0
C994 C 0.59254 0.47326 0.82038 0.0
C995 C 0.59642 0.50823 0.82729 0.0
C996 C 0.60427 0.51082 0.80837 0.0
C997 C 0.59057 0.48921 0.83356 0.0
H998 H 0.60257 0.46414 0.79167 0.0
H999 H 0.60926 0.52532 0.80376 0.0
C1000 C 0.65896 0.49477 0.7151 0.0
N1001 N 0.69259 0.48982 0.69237 0.0
C1002 C 0.65765 0.48615 0.69635 0.0
C1003 C 0.67733 0.50105 0.72222 0.0
C1004 C 0.67484 0.48372 0.68511 0.0
C1005 C 0.69417 0.49838 0.71052 0.0
C1006 C 0.60108 0.45991 0.7485 0.0
C1007 C 0.60662 0.44265 0.73847 0.0
C1008 C 0.58111 0.4634 0.75257 0.0
C1009 C 0.59202 0.4293 0.73237 0.0
C1010 C 0.56695 0.4497 0.74622 0.0
N1011 N 0.57265 0.43309 0.73632 0.0
C1012 C 0.66308 0.44874 0.76906 0.0
C1013 C 0.66391 0.44585 0.73413 0.0
C1014 C 0.67146 0.42994 0.77118 0.0
N1015 N 0.65923 0.45613 0.75076 0.0
C1016 C 0.67227 0.42699 0.73557 0.0
C1017 C 0.67565 0.41859 0.75429 0.0
H1018 H 0.65878 0.45709 0.78203 0.0
H1019 H 0.66021 0.45178 0.71979 0.0
C1020 C 0.58364 0.51033 0.71106 0.0
N1021 N 0.59548 0.49435 0.71419 0.0
C1022 C 0.57044 0.51053 0.6952 0.0
C1023 C 0.58172 0.47774 0.68617 0.0
C1024 C 0.5949 0.47829 0.70204 0.0
C1025 C 0.56937 0.49408 0.68252 0.0
H1026 H 0.58471 0.5231 0.72066 0.0
H1027 H 0.60494 0.46608 0.70441 0.0
O1028 O 0.64774 0.49828 0.77196 0.0
O1029 O 0.61222 0.51925 0.75211 0.0
O1030 O 0.64229 0.49708 0.72634 0.0
O1031 O 0.61515 0.4732 0.75451 0.0
H1032 H 0.64594 0.51934 0.80496 0.0
H1033 H 0.68519 0.48874 0.76512 0.0
H1034 H 0.67486 0.52851 0.82558 0.0
H1035 H 0.71345 0.49865 0.7863 0.0
H1036 H 0.55051 0.53253 0.77538 0.0
H1037 H 0.62005 0.55395 0.76877 0.0
H1038 H 0.57424 0.51109 0.75729 0.0
H1039 H 0.59553 0.57472 0.78653 0.0
H1040 H 0.67257 0.57983 0.77038 0.0
H1041 H 0.66369 0.572 0.70756 0.0
H1042 H 0.58845 0.45834 0.82469 0.0
H1043 H 0.59495 0.521 0.83692 0.0
H1044 H 0.6435 0.48126 0.69063 0.0
H1045 H 0.67855 0.50804 0.73654 0.0
H1046 H 0.67407 0.47697 0.67061 0.0
H1047 H 0.70849 0.50315 0.71586 0.0
H1048 H 0.62201 0.43966 0.73529 0.0
H1049 H 0.57661 0.4765 0.76061 0.0
H1050 H 0.59609 0.41594 0.72449 0.0
H1051 H 0.55143 0.45225 0.74919 0.0
H1052 H 0.67363 0.42397 0.78588 0.0
H1053 H 0.6755 0.41882 0.72215 0.0
H1054 H 0.56122 0.52344 0.69281 0.0
H1055 H 0.58167 0.46495 0.67647 0.0
Li1056 Li 0.98784 0.75023 0.85718 0.0
Li1057 Li 0.00325 0.77056 0.88292 0.0
Li1058 Li 0.02403 0.74972 0.8596 0.0
Li1059 Li 0.00569 0.73404 0.88611 0.0
C1060 C 0.0023 0.78459 0.83807 0.0
N1061 N 0.99323 0.80865 0.80631 0.0
C1062 C 0.9953 0.80384 0.84122 0.0
C1063 C 0.00493 0.77768 0.81876 0.0
C1064 C 0.99072 0.81574 0.82498 0.0
C1065 C 0.00019 0.79004 0.8029 0.0
C1066 C 0.96809 0.75386 0.90069 0.0
C1067 C 0.95908 0.75283 0.9352 0.0
N1068 N 0.94076 0.75972 0.93056 0.0
C1069 C 0.94908 0.76063 0.89623 0.0
C1070 C 0.97306 0.74966 0.92029 0.0
C1071 C 0.93552 0.76362 0.91156 0.0
C1072 C 0.95841 0.73217 0.83322 0.0
N1073 N 0.96531 0.74964 0.8405 0.0
C1074 C 0.93869 0.76731 0.82548 0.0
C1075 C 0.95576 0.767 0.83699 0.0
C1076 C 0.93092 0.74948 0.81797 0.0
C1077 C 0.94114 0.73173 0.82189 0.0
H1078 H 0.96606 0.71852 0.83661 0.0
H1079 H 0.96117 0.78059 0.84349 0.0
C1080 C 0.0154 0.8058 0.90283 0.0
N1081 N -0.00034 0.79551 0.89565 0.0
C1082 C 0.0127 0.82469 0.91092 0.0
C1083 C 0.9777 0.82201 0.90412 0.0
C1084 C 0.98111 0.80328 0.89599 0.0
C1085 C 0.99365 0.83301 0.91158 0.0
H1086 H 0.03006 0.79945 0.90201 0.0
H1087 H 0.96901 0.79522 0.88938 0.0
C1088 C 0.01235 0.7139 0.84374 0.0
N1089 N 0.02626 0.68763 0.8156 0.0
C1090 C 0.02235 0.69674 0.84952 0.0
C1091 C 0.00912 0.71752 0.82367 0.0
C1092 C 0.02936 0.68369 0.83507 0.0
C1093 C 0.01635 0.70411 0.80966 0.0
C1094 C 0.03738 0.75374 0.90598 0.0
C1095 C 0.057 0.74723 0.90635 0.0
C1096 C 0.02844 0.76031 0.92343 0.0
C1097 C 0.0672 0.74693 0.9243 0.0
C1098 C 0.03914 0.75982 0.94108 0.0
N1099 N 0.05812 0.75316 0.94115 0.0
C1100 C 0.05455 0.75883 0.83153 0.0
C1101 C 0.05912 0.73029 0.85143 0.0
C1102 C 0.07254 0.75536 0.82193 0.0
N1103 N 0.04824 0.74629 0.84593 0.0
C1104 C 0.07709 0.72619 0.84217 0.0
C1105 C 0.08409 0.73886 0.82726 0.0
H1106 H 0.0458 0.77165 0.8277 0.0
H1107 H 0.05383 0.72075 0.86315 0.0
C1108 C 0.99018 0.70154 0.90755 0.0
N1109 N 0.00705 0.71127 0.90249 0.0
C1110 C 0.99118 0.68311 0.9169 0.0
C1111 C 0.02689 0.68535 0.91613 0.0
C1112 C 0.02519 0.70363 0.90664 0.0
C1113 C 0.00974 0.67467 0.92098 0.0
H1114 H 0.97596 0.70773 0.90363 0.0
H1115 H 0.03835 0.7112 0.90165 0.0
O1116 O 0.00684 0.77275 0.85384 0.0
O1117 O 0.98147 0.75072 0.88582 0.0
O1118 O 0.0054 0.72686 0.85769 0.0
O1119 O 0.02724 0.75419 0.88848 0.0
H1120 H 0.99337 0.80953 0.85605 0.0
H1121 H 0.01068 0.763 0.81603 0.0
H1122 H 0.9852 0.83063 0.82721 0.0
H1123 H 0.00212 0.78486 0.78788 0.0
H1124 H 0.96276 0.7497 0.95044 0.0
H1125 H 0.9449 0.76368 0.88109 0.0
H1126 H 0.98744 0.74376 0.92395 0.0
H1127 H 0.92081 0.76902 0.90834 0.0
H1128 H 0.93155 0.7814 0.82274 0.0
H1129 H 0.93555 0.71755 0.81687 0.0
H1130 H 0.02538 0.83268 0.91665 0.0
H1131 H 0.96286 0.82804 0.90406 0.0
H1132 H 0.02477 0.69357 0.865 0.0
H1133 H 0.00097 0.73044 0.81896 0.0
H1134 H 0.03724 0.67042 0.83933 0.0
H1135 H 0.01401 0.70678 0.79407 0.0
H1136 H 0.06426 0.74236 0.89293 0.0
H1137 H 0.01351 0.76599 0.92333 0.0
H1138 H 0.08234 0.74178 0.92481 0.0
H1139 H 0.03238 0.76483 0.9547 0.0
H1140 H 0.07758 0.7658 0.81084 0.0
H1141 H 0.08543 0.71328 0.84671 0.0
H1142 H 0.97761 0.67534 0.9205 0.0
H1143 H 0.04144 0.67918 0.91871 0.0
Li1144 Li 0.00419 0.26401 0.61165 0.0
Li1145 Li 0.02509 0.25099 0.63798 0.0
Li1146 Li 0.00293 0.22819 0.6189 0.0
Li1147 Li 0.98934 0.25124 0.6431 0.0
C1148 C 0.03723 0.24658 0.59313 0.0
N1149 N 0.06101 0.251 0.56011 0.0
C1150 C 0.05458 0.25784 0.59418 0.0
C1151 C 0.0322 0.23724 0.57537 0.0
C1152 C 0.06634 0.26 0.57731 0.0
C1153 C 0.04435 0.23974 0.55882 0.0
C1154 C 0.01691 0.28814 0.65051 0.0
C1155 C 0.02826 0.29956 0.68234 0.0
N1156 N 0.03684 0.31553 0.6735 0.0
C1157 C 0.02566 0.30476 0.64176 0.0
C1158 C 0.01803 0.28561 0.67097 0.0
C1159 C 0.03573 0.31841 0.65364 0.0
C1160 C 0.98376 0.28886 0.58535 0.0
N1161 N 0.0021 0.2841 0.59202 0.0
C1162 C 0.01648 0.31064 0.57345 0.0
C1163 C 0.01835 0.29453 0.58626 0.0
C1164 C -0.00234 0.31618 0.5667 0.0
C1165 C 0.98121 0.30479 0.57248 0.0
H1166 H 0.971 0.28071 0.59055 0.0
H1167 H 0.03265 0.29102 0.59236 0.0
C1168 C 0.05668 0.23237 0.65467 0.0
N1169 N 0.05087 0.25074 0.64891 0.0
C1170 C 0.07617 0.22893 0.66025 0.0
C1171 C 0.0835 0.26347 0.65399 0.0
C1172 C 0.06374 0.26626 0.64854 0.0
C1173 C 0.08993 0.24453 0.65977 0.0
H1174 H 0.04631 0.22015 0.65421 0.0
H1175 H 0.05898 0.28056 0.64323 0.0
C1176 C 0.96881 0.23914 0.60049 0.0
N1177 N 0.94566 0.22383 0.57047 0.0
C1178 C 0.95005 0.23145 0.60468 0.0
C1179 C 0.97568 0.23925 0.58099 0.0
C1180 C 0.9386 0.22371 0.58931 0.0
C1181 C 0.96379 0.2314 0.56603 0.0
C1182 C 0.00288 0.2205 0.66514 0.0
C1183 C 0.99031 0.20401 0.66538 0.0
C1184 C 0.01037 0.2279 0.68292 0.0
C1185 C 0.98502 0.19552 0.68347 0.0
C1186 C 0.00475 0.21899 0.70072 0.0
N1187 N 0.99227 0.20314 0.70062 0.0
C1188 C 0.01938 0.19419 0.60315 0.0
C1189 C 0.98525 0.19073 0.61052 0.0
C1190 C 0.0206 0.17431 0.59775 0.0
N1191 N 0.0019 0.20198 0.60927 0.0
C1192 C 0.98584 0.17064 0.60549 0.0
C1193 C 0.00374 0.16214 0.5991 0.0
H1194 H 0.03251 0.20337 0.60283 0.0
H1195 H 0.9717 0.19715 0.61608 0.0
C1196 C 0.96438 0.27078 0.67137 0.0
N1197 N 0.96776 0.25387 0.66093 0.0
C1198 C 0.94699 0.27283 0.68244 0.0
C1199 C 0.93724 0.23991 0.67209 0.0
C1200 C 0.95472 0.23853 0.66124 0.0
C1201 C 0.93299 0.25736 0.68262 0.0
H1202 H 0.97481 0.28292 0.67057 0.0
H1203 H 0.95755 0.22548 0.65241 0.0
O1204 O 0.02564 0.24415 0.60959 0.0
O1205 O 0.00703 0.2746 0.63912 0.0
O1206 O 0.98032 0.24665 0.61537 0.0
O1207 O 0.00809 0.22911 0.64757 0.0
H1208 H 0.05879 0.26509 0.60779 0.0
H1209 H 0.01918 0.22795 0.57439 0.0
H1210 H 0.0797 0.26885 0.57788 0.0
H1211 H 0.04058 0.23264 0.54498 0.0
H1212 H 0.02932 0.29773 0.69819 0.0
H1213 H 0.02476 0.30708 0.62598 0.0
H1214 H 0.01099 0.27306 0.67802 0.0
H1215 H 0.04267 0.33129 0.64705 0.0
H1216 H 0.02949 0.31928 0.56974 0.0
H1217 H 0.96643 0.30849 0.56756 0.0
H1218 H 0.08055 0.21403 0.66427 0.0
H1219 H 0.09364 0.27592 0.6535 0.0
H1220 H 0.94437 0.23142 0.61963 0.0
H1221 H 0.98994 0.24555 0.57743 0.0
H1222 H 0.92409 0.21764 0.59237 0.0
H1223 H 0.96896 0.23138 0.55088 0.0
H1224 H 0.98454 0.19795 0.65177 0.0
H1225 H 0.02055 0.24029 0.68299 0.0
H1226 H 0.97516 0.18288 0.68387 0.0
H1227 H 0.01037 0.22463 0.7146 0.0
H1228 H 0.03463 0.16858 0.59255 0.0
H1229 H 0.97254 0.1618 0.60704 0.0
H1230 H 0.94433 0.28652 0.6904 0.0
H1231 H 0.92673 0.22779 0.67141 0.0
Li1232 Li 0.48834 0.25093 0.35809 0.0
Li1233 Li 0.50266 0.27021 0.38513 0.0
Li1234 Li 0.52472 0.25138 0.36122 0.0
Li1235 Li 0.5063 0.23399 0.38658 0.0
C1236 C 0.50417 0.28585 0.33985 0.0
N1237 N 0.49883 0.3095 0.30692 0.0
C1238 C 0.49768 0.30542 0.34198 0.0
C1239 C 0.50823 0.27843 0.32098 0.0
C1240 C 0.49499 0.31711 0.32516 0.0
C1241 C 0.50537 0.29058 0.30452 0.0
C1242 C 0.46706 0.25524 0.39974 0.0
C1243 C 0.45415 0.25694 0.43297 0.0
N1244 N 0.43786 0.26651 0.42609 0.0
C1245 C 0.45005 0.26479 0.39295 0.0
C1246 C 0.46902 0.25102 0.41987 0.0
C1247 C 0.43551 0.27049 0.40652 0.0
C1248 C 0.45867 0.23149 0.33632 0.0
N1249 N 0.46631 0.24961 0.34072 0.0
C1250 C 0.4412 0.26561 0.32176 0.0
C1251 C 0.4579 0.26652 0.33381 0.0
C1252 C 0.43273 0.24712 0.31715 0.0
C1253 C 0.44182 0.22988 0.32452 0.0
H1254 H 0.46546 0.21829 0.34234 0.0
H1255 H 0.46385 0.28078 0.33798 0.0
C1256 C 0.51047 0.30116 0.41334 0.0
N1257 N 0.49775 0.29417 0.39943 0.0
C1258 C 0.50638 0.31889 0.42328 0.0
C1259 C 0.47634 0.32201 0.40423 0.0
C1260 C 0.481 0.30423 0.39472 0.0
C1261 C 0.48912 0.32959 0.41873 0.0
H1262 H 0.52393 0.29317 0.41653 0.0
H1263 H 0.47136 0.29859 0.38328 0.0
C1264 C 0.51274 0.21591 0.34292 0.0
N1265 N 0.52432 0.19074 0.31276 0.0
C1266 C 0.52318 0.19855 0.34719 0.0
C1267 C 0.50783 0.22021 0.32333 0.0
C1268 C 0.52902 0.18609 0.33174 0.0
C1269 C 0.51391 0.20737 0.30828 0.0
C1270 C 0.53732 0.25072 0.40744 0.0
C1271 C 0.55725 0.24522 0.40661 0.0
C1272 C 0.52793 0.2524 0.42578 0.0
C1273 C 0.56732 0.24112 0.42415 0.0
C1274 C 0.53851 0.2482 0.44299 0.0
N1275 N 0.55782 0.24266 0.44183 0.0
C1276 C 0.55635 0.26196 0.33453 0.0
C1277 C 0.55948 0.23206 0.35265 0.0
C1278 C 0.57444 0.25848 0.32514 0.0
N1279 N 0.54924 0.24871 0.3479 0.0
C1280 C 0.57759 0.228 0.34368 0.0
C1281 C 0.58531 0.24131 0.32974 0.0
H1282 H 0.54814 0.2753 0.33132 0.0
H1283 H 0.55359 0.22198 0.3636 0.0
C1284 C 0.49165 0.2014 0.40858 0.0
N1285 N 0.50823 0.21049 0.40173 0.0
C1286 C 0.49286 0.18254 0.41698 0.0
C1287 C 0.52823 0.18302 0.41158 0.0
C1288 C 0.52632 0.20183 0.40324 0.0
C1289 C 0.51129 0.17295 0.41815 0.0
H1290 H 0.47741 0.20846 0.40681 0.0
H1291 H 0.53916 0.20906 0.397 0.0
O1292 O 0.50663 0.27415 0.3562 0.0
O1293 O 0.4814 0.24949 0.38665 0.0
O1294 O 0.50683 0.22826 0.3579 0.0
O1295 O 0.52718 0.25466 0.39039 0.0
H1296 H 0.49475 0.31155 0.35645 0.0
H1297 H 0.51375 0.26355 0.31907 0.0
H1298 H 0.48988 0.33224 0.3266 0.0
H1299 H 0.50842 0.28499 0.28983 0.0
H1300 H 0.45552 0.25384 0.4486 0.0
H1301 H 0.44816 0.26791 0.37738 0.0
H1302 H 0.48175 0.24305 0.42531 0.0
H1303 H 0.42235 0.27806 0.4015 0.0
H1304 H 0.43488 0.2793 0.31633 0.0
H1305 H 0.43563 0.21531 0.32179 0.0
H1306 H 0.51687 0.3244 0.43406 0.0
H1307 H 0.46288 0.32971 0.40028 0.0
H1308 H 0.52682 0.19476 0.36227 0.0
H1309 H 0.49918 0.23317 0.31976 0.0
H1310 H 0.53724 0.1727 0.33484 0.0
H1311 H 0.51026 0.21058 0.29305 0.0
H1312 H 0.56486 0.24412 0.39259 0.0
H1313 H 0.51269 0.25708 0.42671 0.0
H1314 H 0.58271 0.23674 0.42371 0.0
H1315 H 0.53139 0.24942 0.45728 0.0
H1316 H 0.58011 0.26935 0.31479 0.0
H1317 H 0.58546 0.21461 0.34764 0.0
H1318 H 0.47945 0.17533 0.42206 0.0
H1319 H 0.54265 0.17605 0.41194 0.0
Li1320 Li 0.49693 0.76343 0.10916 0.0
Li1321 Li 0.51903 0.74973 0.13413 0.0
Li1322 Li 0.49752 0.72764 0.11362 0.0
Li1323 Li 0.4833 0.74752 0.14012 0.0
C1324 C 0.52954 0.75048 0.08854 0.0
N1325 N 0.54969 0.76147 0.05464 0.0
C1326 C 0.54744 0.76082 0.08988 0.0
C1327 C 0.52215 0.74533 0.06994 0.0
C1328 C 0.55734 0.76634 0.07259 0.0
C1329 C 0.53247 0.75113 0.05298 0.0
C1330 C 0.50823 0.78516 0.15033 0.0
C1331 C 0.5174 0.79441 0.18355 0.0
N1332 N 0.52503 0.81173 0.17658 0.0
C1333 C 0.51595 0.80316 0.14353 0.0
C1334 C 0.50878 0.78084 0.17052 0.0
C1335 C 0.52447 0.81635 0.15701 0.0
C1336 C 0.47683 0.78833 0.08197 0.0
N1337 N 0.49449 0.78458 0.09078 0.0
C1338 C 0.50921 0.81268 0.07504 0.0
C1339 C 0.51054 0.79631 0.08752 0.0
C1340 C 0.49106 0.81724 0.06614 0.0
C1341 C 0.47476 0.80472 0.06952 0.0
H1342 H 0.46422 0.77893 0.08503 0.0
H1343 H 0.52422 0.79337 0.09517 0.0
C1344 C 0.55194 0.73327 0.15169 0.0
N1345 N 0.54468 0.7508 0.14507 0.0
C1346 C 0.57142 0.73189 0.15811 0.0
C1347 C 0.57589 0.76659 0.15024 0.0
C1348 C 0.55614 0.76737 0.14431 0.0
C1349 C 0.58384 0.74861 0.15716 0.0
H1350 H 0.54269 0.72018 0.15157 0.0
H1351 H 0.55024 0.78094 0.13827 0.0
C1352 C 0.46087 0.73527 0.10003 0.0
N1353 N 0.43511 0.71505 0.07549 0.0
C1354 C 0.44454 0.7253 0.10795 0.0
C1355 C 0.46385 0.7353 0.07958 0.0
C1356 C 0.43174 0.71508 0.09532 0.0
C1357 C 0.45075 0.72489 0.06743 0.0
C1358 C 0.50069 0.7157 0.15921 0.0
C1359 C 0.49098 0.69738 0.15873 0.0
C1360 C 0.50814 0.72283 0.17712 0.0
C1361 C 0.48843 0.68675 0.17628 0.0
C1362 C 0.50532 0.71176 0.19435 0.0
N1363 N 0.49558 0.69411 0.19358 0.0
C1364 C 0.51578 0.69741 0.09351 0.0
C1365 C 0.48331 0.68878 0.10375 0.0
C1366 C 0.5192 0.67817 0.08696 0.0
N1367 N 0.49812 0.70232 0.10175 0.0
C1368 C 0.48614 0.66925 0.09746 0.0
C1369 C 0.50438 0.66374 0.08913 0.0
H1370 H 0.52755 0.70823 0.09277 0.0
H1371 H 0.46967 0.69288 0.111 0.0
C1372 C 0.45894 0.76515 0.16937 0.0
N1373 N 0.46313 0.74793 0.1598 0.0
C1374 C 0.44386 0.76579 0.18348 0.0
C1375 C 0.43749 0.73103 0.17745 0.0
C1376 C 0.45281 0.73103 0.1636 0.0
C1377 C 0.4327 0.74863 0.18751 0.0
H1378 H 0.46709 0.77848 0.16584 0.0
H1379 H 0.4561 0.71764 0.15548 0.0
O1380 O 0.51952 0.74514 0.10534 0.0
O1381 O 0.49984 0.77205 0.13733 0.0
O1382 O 0.47366 0.74524 0.11219 0.0
O1383 O 0.50336 0.72629 0.14213 0.0
H1384 H 0.55354 0.76474 0.10408 0.0
H1385 H 0.5087 0.73678 0.0686 0.0
H1386 H 0.5711 0.77452 0.07344 0.0
H1387 H 0.52684 0.74735 0.0385 0.0
H1388 H 0.51794 0.79122 0.19921 0.0
H1389 H 0.51542 0.80691 0.12801 0.0
H1390 H 0.50238 0.76728 0.17612 0.0
H1391 H 0.5306 0.83028 0.15193 0.0
H1392 H 0.52198 0.82223 0.07317 0.0
H1393 H 0.46049 0.80784 0.06297 0.0
H1394 H 0.57664 0.71781 0.1637 0.0
H1395 H 0.58493 0.77979 0.14888 0.0
H1396 H 0.44176 0.7254 0.12368 0.0
H1397 H 0.47604 0.74342 0.07314 0.0
H1398 H 0.41913 0.70718 0.10128 0.0
H1399 H 0.45296 0.72471 0.05158 0.0
H1400 H 0.48528 0.69151 0.14501 0.0
H1401 H 0.51627 0.73662 0.1777 0.0
H1402 H 0.48079 0.67264 0.17613 0.0
H1403 H 0.51098 0.71716 0.20831 0.0
H1404 H 0.53359 0.67447 0.08094 0.0
H1405 H 0.47432 0.65854 0.09932 0.0
H1406 H 0.44085 0.77966 0.19096 0.0
H1407 H 0.42905 0.71755 0.1797 0.0
Li1408 Li 0.89067 0.00346 0.76186 0.0
Li1409 Li 0.8654 0.98282 0.74769 0.0
Li1410 Li 0.8901 0.00183 0.72557 0.0
Li1411 Li 0.86321 0.0189 0.74367 0.0
C1412 C 0.91133 0.9715 0.75219 0.0
N1413 N 0.94512 0.95527 0.76829 0.0
C1414 C 0.90999 0.95489 0.76446 0.0
C1415 C 0.92981 0.9798 0.74798 0.0
C1416 C 0.92726 0.94691 0.77248 0.0
C1417 C 0.94673 0.97139 0.75631 0.0
C1418 C 0.84567 0.00048 0.77991 0.0
C1419 C 0.81051 0.99489 0.78274 0.0
N1420 N 0.81242 0.99324 0.80268 0.0
C1421 C 0.84724 -0.00107 0.80046 0.0
C1422 C 0.82714 -0.00141 0.771 0.0
C1423 C 0.83028 0.99519 0.8117 0.0
C1424 C 0.92308 0.01547 0.78833 0.0
N1425 N 0.90704 0.0037 0.78494 0.0
C1426 C 0.91032 0.98875 0.81676 0.0
C1427 C 0.90092 0.99019 0.79853 0.0
C1428 C 0.92639 0.0012 0.82104 0.0
C1429 C 0.93309 0.01441 0.80642 0.0
H1430 H 0.92802 0.02581 0.77721 0.0
H1431 H 0.88851 0.98061 0.79521 0.0
C1432 C 0.84549 0.94765 0.7361 0.0
N1433 N 0.85216 0.95826 0.75183 0.0
C1434 C 0.83702 0.92895 0.73895 0.0
C1435 C 0.84235 0.93249 0.77411 0.0
C1436 C 0.85085 0.95105 0.77057 0.0
C1437 C 0.83547 0.9211 0.75815 0.0
H1438 H 0.84702 0.9536 0.72133 0.0
H1439 H 0.8568 0.95955 0.78275 0.0
C1440 C 0.90372 0.04061 0.74719 0.0
N1441 N 0.92797 0.0721 0.757 0.0
C1442 C 0.89696 0.0553 0.76011 0.0
C1443 C 0.92276 0.04194 0.73918 0.0
C1444 C 0.90947 0.07111 0.7649 0.0
C1445 C 0.93481 0.05797 0.74436 0.0
C1446 C 0.84518 0.00294 0.71068 0.0
C1447 C 0.84814 0.01591 0.69484 0.0
C1448 C 0.82641 0.99479 0.71385 0.0
C1449 C 0.83214 0.02107 0.68286 0.0
C1450 C 0.81077 0.00029 0.70154 0.0
N1451 N 0.81393 0.01324 0.68646 0.0
C1452 C 0.91449 0.98824 0.69375 0.0
C1453 C 0.90414 0.02184 0.69288 0.0
C1454 C 0.92425 0.99051 0.67565 0.0
N1455 N 0.90457 0.00379 0.7018 0.0
C1456 C 0.91342 0.02469 0.67469 0.0
C1457 C 0.92351 0.00886 0.66581 0.0
H1458 H 0.91459 0.97408 0.70125 0.0
H1459 H 0.89632 0.03397 0.69981 0.0
C1460 C 0.83245 0.04789 0.75172 0.0
N1461 N 0.84782 0.04226 0.74002 0.0
C1462 C 0.82305 0.06607 0.74849 0.0
C1463 C 0.84528 0.07211 0.72112 0.0
C1464 C 0.85428 0.05394 0.72495 0.0
C1465 C 0.82963 0.07857 0.73316 0.0
H1466 H 0.82787 0.03866 0.76393 0.0
H1467 H 0.86678 0.04928 0.71613 0.0
O1468 O 0.8946 0.97968 0.7444 0.0
O1469 O 0.86224 0.00349 0.7686 0.0
O1470 O 0.89165 0.02518 0.7421 0.0
O1471 O 0.86069 -0.00221 0.72264 0.0
H1472 H 0.89576 0.94831 0.76782 0.0
H1473 H 0.93104 0.99269 0.73852 0.0
H1474 H 0.92647 0.9341 0.78206 0.0
H1475 H 0.96115 0.9777 0.75327 0.0
H1476 H 0.79609 0.99337 0.77599 0.0
H1477 H 0.86138 0.00064 0.80771 0.0
H1478 H 0.82561 0.00015 0.75523 0.0
H1479 H 0.83132 0.99387 0.82761 0.0
H1480 H 0.90495 0.97811 0.8275 0.0
H1481 H 0.94548 0.02423 0.8092 0.0
H1482 H 0.83172 0.92072 0.72625 0.0
H1483 H 0.84166 0.92688 0.7891 0.0
H1484 H 0.88222 0.05449 0.76634 0.0
H1485 H 0.92819 0.03067 0.72915 0.0
H1486 H 0.90446 0.0826 0.77489 0.0
H1487 H 0.9496 0.05917 0.73833 0.0
H1488 H 0.8626 0.02204 0.69185 0.0
H1489 H 0.82391 0.98417 0.72555 0.0
H1490 H 0.83421 0.03125 0.67068 0.0
H1491 H 0.79615 0.99418 0.70393 0.0
H1492 H 0.93178 0.97792 0.66914 0.0
H1493 H 0.91269 0.03907 0.66761 0.0
H1494 H 0.81133 0.07063 0.75843 0.0
H1495 H 0.85079 0.08116 0.70909 0.0
Li1496 Li 0.75307 0.13741 0.51887 0.0
Li1497 Li 0.7694 0.11154 0.49875 0.0
Li1498 Li 0.7582 0.14295 0.4833 0.0
Li1499 Li 0.7343 0.11776 0.49452 0.0
C1500 C 0.79132 0.15472 0.50643 0.0
N1501 N 0.81694 0.18652 0.50957 0.0
C1502 C 0.8114 0.15232 0.50209 0.0
C1503 C 0.7843 0.17321 0.51256 0.0
C1504 C 0.82411 0.16861 0.50371 0.0
C1505 C 0.79748 0.18913 0.514 0.0
C1506 C 0.75159 0.09272 0.53052 0.0
C1507 C 0.75346 0.05737 0.53577 0.0
N1508 N 0.75915 0.06063 0.55477 0.0
C1509 C 0.75735 0.0957 0.55016 0.0
C1510 C 0.74952 0.07339 0.5233 0.0
C1511 C 0.76114 0.07929 0.56216 0.0
C1512 C 0.73134 0.14771 0.55154 0.0
N1513 N 0.75017 0.14778 0.54451 0.0
C1514 C 0.76277 0.15645 0.57631 0.0
C1515 C 0.76585 0.15205 0.55635 0.0
C1516 C 0.74341 0.1565 0.58389 0.0
C1517 C 0.72756 0.15232 0.57123 0.0
H1518 H 0.71932 0.14325 0.54202 0.0
H1519 H 0.78073 0.15126 0.5505 0.0
C1520 C 0.79745 0.08783 0.48002 0.0
N1521 N 0.78995 0.09251 0.49806 0.0
C1522 C 0.8135 0.07497 0.47841 0.0
C1523 C 0.81337 0.07146 0.51397 0.0
C1524 C 0.79768 0.08481 0.51491 0.0
C1525 C 0.82183 0.06666 0.49557 0.0
H1526 H 0.79131 0.09457 0.4669 0.0
H1527 H 0.79202 0.08931 0.52913 0.0
C1528 C 0.72185 0.16225 0.50234 0.0
N1529 N 0.69699 0.19396 0.50946 0.0
C1530 C 0.70232 0.15896 0.50835 0.0
C1531 C 0.72864 0.18166 0.49965 0.0
C1532 C 0.69001 0.17519 0.51197 0.0
C1533 C 0.71587 0.19749 0.50341 0.0
C1534 C 0.746 0.10266 0.46045 0.0
C1535 C 0.73574 0.11033 0.44426 0.0
C1536 C 0.74688 0.08215 0.46324 0.0
C1537 C 0.72631 0.09731 0.43123 0.0
C1538 C 0.73726 0.06962 0.44989 0.0
N1539 N 0.72724 0.0774 0.4343 0.0
C1540 C 0.7812 0.16702 0.45709 0.0
C1541 C 0.74646 0.16698 0.45239 0.0
C1542 C 0.78388 0.17839 0.44004 0.0
N1543 N 0.76272 0.16139 0.46272 0.0
C1544 C 0.74846 0.17811 0.43514 0.0
C1545 C 0.76741 0.18361 0.42848 0.0
H1546 H 0.79392 0.16205 0.46531 0.0
H1547 H 0.73198 0.16197 0.45706 0.0
C1548 C 0.70298 0.09412 0.50524 0.0
N1549 N 0.70876 0.10705 0.491 0.0
C1550 C 0.68378 0.08689 0.50561 0.0
C1551 C 0.67638 0.10671 0.47678 0.0
C1552 C 0.69597 0.11353 0.4769 0.0
C1553 C 0.6702 0.09318 0.49132 0.0
H1554 H 0.71306 0.08993 0.5168 0.0
H1555 H 0.7008 0.12439 0.46616 0.0
O1556 O 0.77869 0.13896 0.50471 0.0
O1557 O 0.74767 0.10863 0.51857 0.0
O1558 O 0.73398 0.14651 0.49837 0.0
O1559 O 0.75517 0.11517 0.47347 0.0
H1560 H 0.81705 0.13806 0.49739 0.0
H1561 H 0.76889 0.17519 0.51633 0.0
H1562 H 0.83967 0.167 0.5003 0.0
H1563 H 0.79225 0.20354 0.5187 0.0
H1564 H 0.75194 0.04234 0.53034 0.0
H1565 H 0.75896 0.11047 0.5561 0.0
H1566 H 0.74483 0.07077 0.50826 0.0
H1567 H 0.76567 0.0814 0.57735 0.0
H1568 H 0.77531 0.15967 0.58573 0.0
H1569 H 0.71248 0.15197 0.57667 0.0
H1570 H 0.81974 0.07225 0.46392 0.0
H1571 H 0.81903 0.06534 0.52762 0.0
H1572 H 0.69676 0.14403 0.51029 0.0
H1573 H 0.74353 0.18449 0.4945 0.0
H1574 H 0.6749 0.17287 0.51674 0.0
H1575 H 0.72094 0.21259 0.50142 0.0
H1576 H 0.73498 0.12617 0.44184 0.0
H1577 H 0.75499 0.07597 0.47553 0.0
H1578 H 0.71824 0.10304 0.41868 0.0
H1579 H 0.73778 0.05372 0.45191 0.0
H1580 H 0.79875 0.18247 0.43564 0.0
H1581 H 0.73534 0.18139 0.4266 0.0
H1582 H 0.67944 0.07689 0.51739 0.0
H1583 H 0.66622 0.11197 0.4656 0.0
Li1584 Li 0.61172 -0.00028 0.26539 0.0
Li1585 Li 0.63852 0.02105 0.25209 0.0
Li1586 Li 0.61809 0.00193 0.23003 0.0
Li1587 Li 0.64264 0.98576 0.24978 0.0
C1588 C 0.59687 0.03399 0.23753 0.0
N1589 N 0.5712 0.05508 0.2138 0.0
C1590 C 0.60349 0.05084 0.22745 0.0
C1591 C 0.57718 0.02793 0.23564 0.0
C1592 C 0.59028 0.06129 0.21551 0.0
C1593 C 0.56444 0.03876 0.22354 0.0
C1594 C 0.65037 0.01237 0.28806 0.0
C1595 C 0.6812 0.02566 0.30018 0.0
N1596 N 0.6713 0.03463 0.31525 0.0
C1597 C 0.64049 0.02161 0.30372 0.0
C1598 C 0.67089 0.01429 0.28631 0.0
C1599 C 0.65134 0.03283 0.3173 0.0
C1600 C 0.59262 0.98048 0.29678 0.0
N1601 N 0.59285 -0.00275 0.2857 0.0
C1602 C 0.56675 0.01134 0.30489 0.0
C1603 C 0.58023 0.0125 0.2893 0.0
C1604 C 0.56643 0.99438 0.31695 0.0
C1605 C 0.57944 0.97871 0.31257 0.0
H1606 H 0.60295 0.96867 0.29355 0.0
H1607 H 0.58088 0.0257 0.28026 0.0
C1608 C 0.66246 0.05147 0.23898 0.0
N1609 N 0.65023 0.04631 0.25404 0.0
C1610 C 0.66855 0.07102 0.23677 0.0
C1611 C 0.6497 0.07966 0.26596 0.0
C1612 C 0.64382 0.05984 0.26751 0.0
C1613 C 0.66198 0.0855 0.2502 0.0
H1614 H 0.66658 0.04065 0.22796 0.0
H1615 H 0.63342 0.05545 0.27886 0.0
C1616 C 0.59996 0.96559 0.23875 0.0
N1617 N 0.57068 0.94076 0.22451 0.0
C1618 C 0.60472 0.95031 0.22561 0.0
C1619 C 0.58032 0.96817 0.24474 0.0
C1620 C 0.5897 0.93794 0.21855 0.0
C1621 C 0.56573 0.95549 0.23734 0.0
C1622 C 0.66257 -0.00077 0.21816 0.0
C1623 C 0.65967 0.99016 0.19978 0.0
C1624 C 0.68178 0.00151 0.22547 0.0
C1625 C 0.67603 0.98339 0.18909 0.0
C1626 C 0.69775 0.99451 0.21435 0.0
N1627 N 0.69457 0.98567 0.19655 0.0
C1628 C 0.61662 0.01754 0.19267 0.0
C1629 C 0.58999 0.9953 0.19829 0.0
C1630 C 0.60979 0.02166 0.17372 0.0
N1631 N 0.60682 0.00444 0.20445 0.0
C1632 C 0.58254 -0.00091 0.17946 0.0
C1633 C 0.5925 0.01244 0.16697 0.0
H1634 H 0.62968 0.02501 0.19815 0.0
H1635 H 0.58209 0.98541 0.20799 0.0
C1636 C 0.67081 0.96009 0.26735 0.0
N1637 N 0.66078 0.96439 0.25051 0.0
C1638 C 0.6837 0.94391 0.26787 0.0
C1639 C 0.67625 0.93755 0.23351 0.0
C1640 C 0.66308 0.95337 0.23387 0.0
C1641 C 0.68651 0.93227 0.25078 0.0
H1642 H 0.66847 0.96894 0.28048 0.0
H1643 H 0.65457 0.95678 0.22084 0.0
O1644 O 0.60967 0.02333 0.24896 0.0
O1645 O 0.64001 0.00143 0.27456 0.0
O1646 O 0.61456 0.97748 0.24625 0.0
O1647 O 0.64673 0.00597 0.22887 0.0
H1648 H 0.61869 0.0557 0.22867 0.0
H1649 H 0.57185 0.01488 0.24329 0.0
H1650 H 0.59521 0.07431 0.20756 0.0
H1651 H 0.54919 0.03418 0.22185 0.0
H1652 H 0.69708 0.02733 0.29897 0.0
H1653 H 0.62461 0.02021 0.3053 0.0
H1654 H 0.67875 0.00707 0.27439 0.0
H1655 H 0.6439 0.04014 0.32946 0.0
H1656 H 0.5569 0.02369 0.30765 0.0
H1657 H 0.57999 0.96553 0.32169 0.0
H1658 H 0.67757 0.07487 0.22409 0.0
H1659 H 0.64436 0.09032 0.27669 0.0
H1660 H 0.61985 0.948 0.22093 0.0
H1661 H 0.5763 0.9799 0.25485 0.0
H1662 H 0.59318 0.92606 0.20836 0.0
H1663 H 0.55046 0.95736 0.2418 0.0
H1664 H 0.64494 0.98796 0.19397 0.0
H1665 H 0.68432 0.00858 0.23959 0.0
H1666 H 0.67398 0.97622 0.17492 0.0
H1667 H 0.71268 -0.00388 0.21987 0.0
H1668 H 0.61766 0.0323 0.16464 0.0
H1669 H 0.56911 0.9917 0.17472 0.0
H1670 H 0.69084 0.94028 0.2817 0.0
H1671 H 0.6781 0.92943 0.21982 0.0
Li1672 Li 0.7277 0.89388 0.00953 0.0
Li1673 Li 0.74117 0.86373 0.02326 0.0
Li1674 Li 0.76326 0.8891 0.00679 0.0
Li1675 Li 0.7415 0.86795 0.98663 0.0
C1676 C 0.74197 0.90568 0.04442 0.0
N1677 N 0.73064 0.93476 0.0709 0.0
C1678 C 0.73304 0.90047 0.06234 0.0
C1679 C 0.74537 0.92565 0.04008 0.0
C1680 C 0.72736 0.9154 0.0755 0.0
C1681 C 0.73947 0.94015 0.05363 0.0
C1682 C 0.70625 0.85005 0.00451 0.0
C1683 C 0.70036 0.81575 -0.00382 0.0
N1684 N 0.68158 0.81733 0.00325 0.0
C1685 C 0.68682 0.8514 0.01149 0.0
C1686 C 0.71302 0.83213 -0.00338 0.0
C1687 C 0.6746 0.83467 0.01081 0.0
C1688 C 0.70104 0.92643 0.00282 0.0
N1689 N 0.70599 0.91091 0.01459 0.0
C1690 C 0.67687 0.91535 0.03415 0.0
C1691 C 0.69447 0.9054 0.03013 0.0
C1692 C 0.67079 0.93089 0.02178 0.0
C1693 C 0.68338 0.93671 0.00618 0.0
H1694 H 0.71037 0.93029 0.99039 0.0
H1695 H 0.69865 0.89277 0.03903 0.0
C1696 C 0.75532 0.84093 0.05468 0.0
N1697 N 0.73853 0.8473 0.04576 0.0
C1698 C 0.75442 0.83223 0.07335 0.0
C1699 C 0.7189 0.83645 0.07315 0.0
C1700 C 0.72049 0.84507 0.05444 0.0
C1701 C 0.73609 0.83039 0.08304 0.0
H1702 H 0.76951 0.84343 0.04767 0.0
H1703 H 0.70748 0.85106 0.04742 0.0
C1704 C 0.75495 0.9101 0.97379 0.0
N1705 N 0.77653 0.93559 0.95013 0.0
C1706 C 0.76386 0.90311 0.95648 0.0
C1707 C 0.75678 0.93009 0.97894 0.0
C1708 C 0.77477 0.91622 0.94474 0.0
C1709 C 0.76783 0.94273 0.96682 0.0
C1710 C 0.77406 0.84263 0.00172 0.0
C1711 C 0.79303 0.84339 0.99346 0.0
C1712 C 0.76619 0.82434 0.00753 0.0
C1713 C 0.80366 0.82582 0.99085 0.0
C1714 C 0.77729 0.80711 0.00469 0.0
N1715 N 0.79563 0.8082 -0.00354 0.0
C1716 C 0.79555 0.90857 0.02513 0.0
C1717 C 0.80155 0.8985 0.99211 0.0
C1718 C 0.81512 0.915 0.02707 0.0
N1719 N 0.78919 0.90043 0.00787 0.0
C1720 C 0.82127 0.90458 0.99344 0.0
C1721 C 0.8284 0.91281 0.01117 0.0
H1722 H 0.78556 0.90964 0.03758 0.0
H1723 H 0.79631 0.89156 0.97871 0.0
C1724 C 0.72223 0.86032 0.95036 0.0
N1725 N 0.73841 0.85551 0.9613 0.0
C1726 C 0.71926 0.85171 0.93175 0.0
C1727 C 0.74968 0.83345 0.93601 0.0
C1728 C 0.75214 0.84252 0.95439 0.0
C1729 C 0.73301 0.83791 0.92447 0.0
H1730 H 0.71159 0.8708 0.95616 0.0
H1731 H 0.76503 0.83913 0.96306 0.0
O1732 O 0.74741 0.89129 0.03121 0.0
O1733 O 0.71836 0.86634 0.00501 0.0
O1734 O 0.74418 0.8975 0.98545 0.0
O1735 O 0.7635 0.85974 0.00448 0.0
H1736 H 0.73043 0.88508 0.066 0.0
H1737 H 0.75247 0.9299 0.02639 0.0
H1738 H 0.72033 0.91159 0.08937 0.0
H1739 H 0.74192 0.95567 0.05041 0.0
H1740 H 0.70545 0.80178 0.99015 0.0
H1741 H 0.68125 0.86521 0.01745 0.0
H1742 H 0.72782 0.8309 0.99074 0.0
H1743 H 0.65957 0.83548 0.01627 0.0
H1744 H 0.66783 0.91049 0.04647 0.0
H1745 H 0.67918 0.94838 -0.00396 0.0
H1746 H 0.76802 0.82753 0.08038 0.0
H1747 H 0.70453 0.83555 0.08021 0.0
H1748 H 0.76253 0.8877 0.95223 0.0
H1749 H 0.7497 0.93581 0.9921 0.0
H1750 H 0.78185 0.911 0.93136 0.0
H1751 H 0.76944 0.95823 0.97067 0.0
H1752 H 0.79946 0.85734 0.98897 0.0
H1753 H 0.75176 0.82343 0.01436 0.0
H1754 H 0.8183 0.82622 0.98436 0.0
H1755 H 0.77135 0.79288 0.00911 0.0
H1756 H 0.81977 0.92155 0.04093 0.0
H1757 H 0.83094 0.90226 0.98088 0.0
H1758 H 0.70617 0.85547 0.92335 0.0
H1759 H 0.76079 0.82312 0.93082 0.0
Li1760 Li 0.25425 0.63289 0.01731 0.0
Li1761 Li 0.26809 0.60759 -0.00426 0.0
Li1762 Li 0.25198 0.63777 0.98135 0.0
Li1763 Li 0.23298 0.61119 -0.00317 0.0
C1764 C 0.28928 0.65094 0.00212 0.0
N1765 N 0.3157 0.6812 0.01033 0.0
C1766 C 0.30801 0.64661 0.00969 0.0
C1767 C 0.28415 0.67067 -0.00162 0.0
C1768 C 0.32112 0.66211 0.01384 0.0
C1769 C 0.29766 0.68575 0.00273 0.0
C1770 C 0.25925 0.58927 0.02971 0.0
C1771 C 0.26694 0.55473 0.03477 0.0
N1772 N 0.27727 0.55963 0.05131 0.0
C1773 C 0.26981 0.59395 0.04685 0.0
C1774 C 0.25765 0.56949 0.02368 0.0
C1775 C 0.27886 0.57876 0.05754 0.0
C1776 C 0.23653 0.64542 0.05126 0.0
N1777 N 0.2544 0.64556 0.04205 0.0
C1778 C 0.26861 0.66441 0.06826 0.0
C1779 C 0.27044 0.65449 0.05025 0.0
C1780 C 0.25013 0.66506 0.0778 0.0
C1781 C 0.23401 0.65518 0.06922 0.0
H1782 H 0.2241 0.63802 0.04436 0.0
H1783 H 0.28457 0.65404 0.04286 0.0
C1784 C 0.29169 0.57865 0.97642 0.0
N1785 N 0.2896 0.58986 0.993 0.0
C1786 C 0.30845 0.56681 0.9739 0.0
C1787 C 0.32022 0.57796 0.00578 0.0
C1788 C 0.30333 0.5896 0.00762 0.0
C1789 C 0.3231 0.56658 0.98862 0.0
H1790 H 0.2806 0.57929 0.96494 0.0
H1791 H 0.30142 0.59886 0.02052 0.0
C1792 C 0.2204 0.65711 0.00343 0.0
N1793 N 0.19901 0.69171 0.00824 0.0
C1794 C 0.20025 0.65758 -0.00118 0.0
C1795 C 0.22959 0.6742 0.01073 0.0
C1796 C 0.18972 0.67523 0.00127 0.0
C1797 C 0.21855 0.69155 0.01301 0.0
C1798 C 0.23819 0.59846 0.96053 0.0
C1799 C 0.22829 0.60749 0.94482 0.0
C1800 C 0.23598 0.5781 0.96373 0.0
C1801 C 0.21613 0.59598 0.93266 0.0
C1802 C 0.22367 0.56712 0.95127 0.0
N1803 N 0.21408 0.57621 0.93612 0.0
C1804 C 0.26986 0.65853 0.95068 0.0
C1805 C 0.23612 0.66683 0.95549 0.0
C1806 C 0.27115 0.67143 0.93465 0.0
N1807 N 0.25253 0.65644 0.96063 0.0
C1808 C 0.23677 0.68003 0.93964 0.0
C1809 C 0.2544 0.68228 0.92881 0.0
H1810 H 0.28259 0.64987 0.95503 0.0
H1811 H 0.22242 0.66461 0.96339 0.0
C1812 C 0.20428 0.58716 0.01343 0.0
N1813 N 0.20802 0.59892 -0.00242 0.0
C1814 C 0.18519 0.58031 0.01702 0.0
C1815 C 0.17418 0.5975 0.98765 0.0
C1816 C 0.19356 0.60401 0.98461 0.0
C1817 C 0.1698 0.58574 0.00422 0.0
H1818 H 0.21595 0.58381 0.02378 0.0
H1819 H 0.19689 0.61383 0.97242 0.0
O1820 O 0.2763 0.63589 -0.00206 0.0
O1821 O 0.25032 0.60394 0.01903 0.0
O1822 O 0.23087 0.63986 0.00121 0.0
O1823 O 0.25012 0.60947 0.97261 0.0
H1824 H 0.3124 0.63146 0.01243 0.0
H1825 H 0.26999 0.67434 0.99203 0.0
H1826 H 0.3356 0.65895 0.01983 0.0
H1827 H 0.29383 0.70107 -2e-05 0.0
H1828 H 0.26591 0.53937 0.03022 0.0
H1829 H 0.27114 0.60916 0.05176 0.0
H1830 H 0.24939 0.56561 0.01056 0.0
H1831 H 0.28717 0.58217 0.07076 0.0
H1832 H 0.28149 0.67155 0.0746 0.0
H1833 H 0.21948 0.65546 0.076 0.0
H1834 H 0.31009 0.5582 0.96047 0.0
H1835 H 0.3313 0.57855 0.01732 0.0
H1836 H 0.19281 0.64451 0.99333 0.0
H1837 H 0.24498 0.67404 0.01492 0.0
H1838 H 0.17415 0.6758 -0.00235 0.0
H1839 H 0.22549 0.70486 0.01866 0.0
H1840 H 0.22992 0.62323 0.9421 0.0
H1841 H 0.24364 0.57089 0.97576 0.0
H1842 H 0.20831 0.60277 0.92048 0.0
H1843 H 0.22175 0.55136 0.95362 0.0
H1844 H 0.28493 0.67231 0.92651 0.0
H1845 H 0.22353 0.68815 0.93574 0.0
H1846 H 0.18239 0.5715 0.03012 0.0
H1847 H 0.16274 0.60184 0.97735 0.0
Li1848 Li 0.14134 0.5219 0.75103 0.0
Li1849 Li 0.1143 0.50226 0.76545 0.0
Li1850 Li 0.14405 0.48681 0.74914 0.0
Li1851 Li 0.11904 0.50314 0.72942 0.0
C1852 C 0.15379 0.5139 0.78665 0.0
N1853 N 0.17595 0.53659 0.81245 0.0
C1854 C 0.14453 0.52413 0.80206 0.0
C1855 C 0.17432 0.51505 0.78444 0.0
C1856 C 0.156 0.53557 0.81493 0.0
C1857 C 0.18526 0.52665 0.79761 0.0
C1858 C 0.09691 0.53634 0.7419 0.0
C1859 C 0.06292 0.53895 0.73143 0.0
N1860 N 0.06502 0.55896 0.72998 0.0
C1861 C 0.09879 0.55691 0.74013 0.0
C1862 C 0.07885 0.52728 0.73745 0.0
C1863 C 0.08248 0.56809 0.73418 0.0
C1864 C 0.16774 0.55036 0.73812 0.0
N1865 N 0.15421 0.54645 0.75243 0.0
C1866 C 0.15434 0.58023 0.76292 0.0
C1867 C 0.14767 0.56075 0.76501 0.0
C1868 C 0.16773 0.58485 0.7477 0.0
C1869 C 0.17479 0.56954 0.7355 0.0
H1870 H 0.17224 0.53882 0.72801 0.0
H1871 H 0.13644 0.55726 0.77587 0.0
C1872 C 0.09495 0.48373 0.79675 0.0
N1873 N 0.09581 0.50078 0.78615 0.0
C1874 C 0.0821 0.48218 0.8128 0.0
C1875 C 0.07102 0.51568 0.80643 0.0
C1876 C 0.08416 0.51659 0.79053 0.0
C1877 C 0.07005 0.49837 0.81796 0.0
H1878 H 0.10453 0.47147 0.79289 0.0
H1879 H 0.08531 0.53003 0.78192 0.0
C1880 C 0.16253 0.49839 0.71589 0.0
N1881 N 0.19207 0.48219 0.69268 0.0
C1882 C 0.15809 0.49089 0.69713 0.0
C1883 C 0.18202 0.49786 0.72275 0.0
C1884 C 0.17323 0.48272 0.68564 0.0
C1885 C 0.19673 0.48954 0.71083 0.0
C1886 C 0.10112 0.46603 0.74246 0.0
C1887 C 0.10592 0.44834 0.73277 0.0
C1888 C 0.08152 0.46948 0.74814 0.0
C1889 C 0.091 0.4346 0.7286 0.0
C1890 C 0.06702 0.45539 0.7437 0.0
N1891 N 0.07201 0.43839 0.73409 0.0
C1892 C 0.17052 0.45935 0.76644 0.0
C1893 C 0.16125 0.45282 0.73326 0.0
C1894 C 0.18056 0.44128 0.76745 0.0
N1895 N 0.1608 0.46447 0.74964 0.0
C1896 C 0.17113 0.43477 0.73357 0.0
C1897 C 0.18037 0.42851 0.75103 0.0
H1898 H 0.16972 0.46885 0.77931 0.0
H1899 H 0.15319 0.45715 0.7202 0.0
C1900 C 0.10888 0.52241 0.69508 0.0
N1901 N 0.10611 0.505 0.70484 0.0
C1902 C 0.09921 0.52593 0.67724 0.0
C1903 C 0.08458 0.49324 0.67956 0.0
C1904 C 0.09453 0.49036 0.69733 0.0
C1905 C 0.08662 0.51134 0.66948 0.0
H1906 H 0.11832 0.53372 0.70143 0.0
H1907 H 0.09277 0.47656 0.70512 0.0
O1908 O 0.14281 0.50275 0.77381 0.0
O1909 O 0.11268 0.5252 0.748 0.0
O1910 O 0.14789 0.50641 0.72736 0.0
O1911 O 0.11562 0.47959 0.74677 0.0
H1912 H 0.12864 0.52335 0.80397 0.0
H1913 H 0.1817 0.5071 0.77266 0.0
H1914 H 0.14903 0.54365 0.82689 0.0
H1915 H 0.20116 0.52774 0.79604 0.0
H1916 H 0.04888 0.53209 0.72788 0.0
H1917 H 0.11266 0.5642 0.74337 0.0
H1918 H 0.07721 0.5114 0.73837 0.0
H1919 H 0.0837 0.58404 0.73288 0.0
H1920 H 0.14869 0.59162 0.77272 0.0
H1921 H 0.18486 0.5725 0.72338 0.0
H1922 H 0.08216 0.4687 0.82148 0.0
H1923 H 0.06192 0.52845 0.80981 0.0
H1924 H 0.14311 0.49125 0.69156 0.0
H1925 H 0.18571 0.50369 0.73718 0.0
H1926 H 0.17 0.47677 0.67114 0.0
H1927 H 0.21185 0.48891 0.716 0.0
H1928 H 0.12096 0.44525 0.72839 0.0
H1929 H 0.07749 0.48279 0.75604 0.0
H1930 H 0.09452 0.42092 0.72102 0.0
H1931 H 0.0518 0.45793 0.74797 0.0
H1932 H 0.18736 0.43687 0.78125 0.0
H1933 H 0.17085 0.42544 0.72052 0.0
H1934 H 0.10107 0.54011 0.66994 0.0
H1935 H 0.07525 0.48149 0.67383 0.0
Li1936 Li 0.22571 0.38729 0.51217 0.0
Li1937 Li 0.2403 0.35715 0.52493 0.0
Li1938 Li 0.26222 0.38312 0.509 0.0
Li1939 Li 0.24044 0.36178 0.48917 0.0
C1940 C 0.24481 0.39979 0.54701 0.0
N1941 N 0.24312 0.42992 0.57475 0.0
C1942 C 0.23491 0.39688 0.56494 0.0
C1943 C 0.25427 0.4179 0.54343 0.0
C1944 C 0.23409 0.41232 0.5787 0.0
C1945 C 0.25314 0.43298 0.55756 0.0
C1946 C 0.20472 0.34457 0.51278 0.0
C1947 C 0.19773 0.3097 0.5167 0.0
N1948 N 0.17995 0.31428 0.52496 0.0
C1949 C 0.1863 0.34893 0.52113 0.0
C1950 C 0.21041 0.32481 0.51038 0.0
C1951 C 0.17402 0.33341 0.52726 0.0
C1952 C 0.1969 0.41683 0.50292 0.0
N1953 N 0.20383 0.40434 0.51705 0.0
C1954 C 0.17658 0.41214 0.53829 0.0
C1955 C 0.1941 0.40189 0.5345 0.0
C1956 C 0.16899 0.42504 0.52393 0.0
C1957 C 0.17952 0.42754 0.50615 0.0
H1958 H 0.20444 0.41796 0.48886 0.0
H1959 H 0.19947 0.39126 0.54514 0.0
C1960 C 0.2535 0.32789 0.55169 0.0
N1961 N 0.23814 0.33994 0.547 0.0
C1962 C 0.25375 0.31811 0.56987 0.0
C1963 C 0.22192 0.33255 0.57758 0.0
C1964 C 0.22232 0.34209 0.55927 0.0
C1965 C 0.23812 0.32094 0.58334 0.0
H1966 H 0.26603 0.32674 0.5418 0.0
H1967 H 0.21055 0.35218 0.55539 0.0
C1968 C 0.24687 0.40902 0.47931 0.0
N1969 N 0.25534 0.44483 0.46125 0.0
C1970 C 0.25247 0.40956 0.4594 0.0
C1971 C 0.24524 0.42674 0.4899 0.0
C1972 C 0.25679 0.42779 0.45057 0.0
C1973 C 0.24966 0.44468 0.48055 0.0
C1974 C 0.27389 0.34045 0.49571 0.0
C1975 C 0.28947 0.34718 0.48386 0.0
C1976 C 0.26976 0.32015 0.49668 0.0
C1977 C 0.30045 0.3335 0.47287 0.0
C1978 C 0.28107 0.30694 0.48547 0.0
N1979 N 0.29604 0.31384 0.47388 0.0
C1980 C 0.29793 0.39464 0.52748 0.0
C1981 C 0.29574 0.40428 0.49389 0.0
C1982 C 0.31662 0.40345 0.52911 0.0
N1983 N 0.2878 0.39544 0.51013 0.0
C1984 C 0.31427 0.4134 0.4949 0.0
C1985 C 0.32491 0.41321 0.51273 0.0
H1986 H 0.29137 0.3873 0.54012 0.0
H1987 H 0.28778 0.40417 0.48008 0.0
C1988 C 0.22217 0.33836 0.45917 0.0
N1989 N 0.23824 0.34964 0.46367 0.0
C1990 C 0.22023 0.32997 0.44037 0.0
C1991 C 0.25116 0.34534 0.43097 0.0
C1992 C 0.2526 0.35327 0.45001 0.0
C1993 C 0.23483 0.33347 0.42597 0.0
H1994 H 0.21073 0.33603 0.47009 0.0
H1995 H 0.26513 0.36245 0.45387 0.0
O1996 O 0.24585 0.38476 0.5334 0.0
O1997 O 0.21708 0.35957 0.50692 0.0
O1998 O 0.24275 0.39125 0.4882 0.0
O1999 O 0.26303 0.35363 0.50661 0.0
H2000 H 0.22783 0.38287 0.5682 0.0
H2001 H 0.26256 0.42028 0.52998 0.0
H2002 H 0.22631 0.41031 0.59255 0.0
H2003 H 0.26032 0.44709 0.5549 0.0
H2004 H 0.20201 0.29434 0.51501 0.0
H2005 H 0.1815 0.36412 0.52285 0.0
H2006 H 0.22448 0.32119 0.5037 0.0
H2007 H 0.15976 0.33658 0.53383 0.0
H2008 H 0.16886 0.40973 0.55213 0.0
H2009 H 0.17392 0.43701 0.49452 0.0
H2010 H 0.26645 0.30916 0.57373 0.0
H2011 H 0.20974 0.33535 0.58762 0.0
H2012 H 0.25354 0.39606 0.45085 0.0
H2013 H 0.24027 0.4267 0.50508 0.0
H2014 H 0.26127 0.42839 0.43522 0.0
H2015 H 0.24848 0.4585 0.48861 0.0
H2016 H 0.29295 0.36281 0.48302 0.0
H2017 H 0.25806 0.31462 0.5061 0.0
H2018 H 0.31246 0.33852 0.46353 0.0
H2019 H 0.278 0.2912 0.48604 0.0
H2020 H 0.32427 0.40306 0.54316 0.0
H2021 H 0.32027 0.42046 0.48181 0.0
H2022 H 0.2073 0.32107 0.43704 0.0
H2023 H 0.26283 0.34825 0.42036 0.0
Li2024 Li 0.39461 0.5006 0.26277 0.0
Li2025 Li 0.36707 0.48274 0.24783 0.0
Li2026 Li 0.39272 0.50006 0.22633 0.0
Li2027 Li 0.36772 0.51894 0.24402 0.0
C2028 C 0.4118 0.46508 0.24872 0.0
N2029 N 0.44368 0.44079 0.25681 0.0
C2030 C 0.40884 0.44658 0.25758 0.0
C2031 C 0.43095 0.47103 0.24363 0.0
C2032 C 0.42515 0.43457 0.26165 0.0
C2033 C 0.44688 0.4586 0.24793 0.0
C2034 C 0.35278 0.49734 0.28311 0.0
C2035 C 0.31955 0.49534 0.29602 0.0
N2036 N 0.32636 0.48488 0.31178 0.0
C2037 C 0.3595 0.48684 0.29958 0.0
C2038 C 0.33269 0.50187 0.28144 0.0
C2039 C 0.3459 0.48057 0.31386 0.0
C2040 C 0.41642 0.52054 0.29159 0.0
N2041 N 0.41148 0.50206 0.28524 0.0
C2042 C 0.42843 0.4874 0.31257 0.0
C2043 C 0.41727 0.4856 0.29529 0.0
C2044 C 0.43342 0.50634 0.31968 0.0
C2045 C 0.42751 0.52303 0.30878 0.0
H2046 H 0.41136 0.53339 0.2835 0.0
H2047 H 0.41264 0.4711 0.29034 0.0
C2048 C 0.33706 0.45488 0.23741 0.0
N2049 N 0.35068 0.45977 0.25135 0.0
C2050 C 0.32542 0.43788 0.23962 0.0
C2051 C 0.34212 0.43109 0.27042 0.0
C2052 C 0.35334 0.44829 0.26766 0.0
C2053 C 0.32796 0.42564 0.25625 0.0
H2054 H 0.33546 0.46395 0.22436 0.0
H2055 H 0.36447 0.45229 0.2784 0.0
C2056 C 0.41259 0.53441 0.23873 0.0
N2057 N 0.44478 0.55747 0.22816 0.0
C2058 C 0.40981 0.5524 0.22886 0.0
C2059 C 0.43175 0.52838 0.24358 0.0
C2060 C 0.42627 0.56378 0.22353 0.0
C2061 C 0.44783 0.54017 0.23802 0.0
C2062 C 0.34739 0.50398 0.21222 0.0
C2063 C 0.34952 0.5084 0.19213 0.0
C2064 C 0.32872 0.50514 0.22102 0.0
C2065 C 0.33297 0.51428 0.18129 0.0
C2066 C 0.31252 0.51106 0.20969 0.0
N2067 N 0.31496 0.5155 0.19022 0.0
C2068 C 0.41877 0.48797 0.19448 0.0
C2069 C 0.40286 0.51917 0.19203 0.0
C2070 C 0.42802 0.49097 0.17621 0.0
N2071 N 0.40651 0.50206 0.20197 0.0
C2072 C 0.41169 0.52275 0.17377 0.0
C2073 C 0.42439 0.50853 0.16558 0.0
H2074 H 0.42112 0.47431 0.20249 0.0
H2075 H 0.39275 0.52992 0.19819 0.0
C2076 C 0.34555 0.55234 0.25712 0.0
N2077 N 0.35382 0.54315 0.24127 0.0
C2078 C 0.33711 0.57112 0.25499 0.0
C2079 C 0.34566 0.57041 0.22026 0.0
C2080 C 0.35401 0.55175 0.22309 0.0
C2081 C 0.33727 0.58044 0.23639 0.0
H2082 H 0.34589 0.54528 0.27147 0.0
H2083 H 0.36122 0.54437 0.21088 0.0
O2084 O 0.39597 0.47704 0.24467 0.0
O2085 O 0.3659 0.5036 0.26899 0.0
O2086 O 0.39662 0.52308 0.24409 0.0
O2087 O 0.3635 0.49846 0.22315 0.0
H2088 H 0.39413 0.44153 0.26131 0.0
H2089 H 0.43349 0.48498 0.23622 0.0
H2090 H 0.42307 0.42028 0.26862 0.0
H2091 H 0.46179 0.46308 0.24412 0.0
H2092 H 0.30394 0.49866 0.29485 0.0
H2093 H 0.37502 0.48338 0.30123 0.0
H2094 H 0.3273 0.51049 0.26912 0.0
H2095 H 0.35087 0.47227 0.32659 0.0
H2096 H 0.43236 0.47417 0.32073 0.0
H2097 H 0.43114 0.5379 0.31368 0.0
H2098 H 0.31498 0.43403 0.22811 0.0
H2099 H 0.34454 0.42211 0.28346 0.0
H2100 H 0.39511 0.55752 0.22527 0.0
H2101 H 0.43419 0.51489 0.2518 0.0
H2102 H 0.42431 0.57765 0.21576 0.0
H2103 H 0.46273 0.53563 0.24164 0.0
H2104 H 0.36378 0.50728 0.18496 0.0
H2105 H 0.32675 0.50142 0.23642 0.0
H2106 H 0.33443 0.51783 0.16576 0.0
H2107 H 0.29799 0.51209 0.21635 0.0
H2108 H 0.43743 0.47945 0.17021 0.0
H2109 H 0.40851 0.53647 0.16609 0.0
H2110 H 0.33057 0.57829 0.26776 0.0
H2111 H 0.34631 0.57717 0.20575 0.0
O2112 O 0.96111 0.00555 0.97334 0.0
Mg2113 Mg 0.9663 0.0145 0.00316 0.0
O2114 O 0.99299 0.00176 0.96784 0.0
Mg2115 Mg 0.00185 -0.00173 0.00081 0.0
O2116 O 0.99109 0.03069 0.00941 0.0
O2117 O 0.96044 0.04343 0.00759 0.0
O2118 O 0.01073 0.99411 0.034 0.0
O2119 O 0.03145 0.01531 0.99402 0.0
Mg2120 Mg 0.04127 0.96937 0.00492 0.0
O2121 O 0.01435 0.9686 0.99218 0.0
O2122 O 0.03484 0.97157 0.03552 0.0
O2123 O 0.05636 0.99376 0.99191 0.0
O2124 O 0.03472 0.94324 0.98947 0.0
C2125 C 0.95887 0.97994 0.01931 0.0
C2126 C 0.9753 0.0025 0.96146 0.0
C2127 C 0.97904 0.04565 0.01125 0.0
C2128 C 0.02246 0.98304 0.04387 0.0
C2129 C 0.04958 0.01126 0.99035 0.0
C2130 C 0.01778 0.95103 0.98559 0.0
O2131 O 0.95502 -0.00311 0.02611 0.0
O2132 O 0.97332 0.97822 0.00725 0.0
O2133 O 0.25005 0.73128 0.30519 0.0
Mg2134 Mg 0.23716 0.71243 0.28342 0.0
O2135 O 0.25584 0.75575 0.28402 0.0
Mg2136 Mg 0.25127 0.74652 0.25169 0.0
O2137 O 0.25429 0.71383 0.25872 0.0
O2138 O 0.24965 0.68561 0.27477 0.0
O2139 O 0.24687 0.73756 0.21902 0.0
O2140 O 0.28584 0.74707 0.24792 0.0
Mg2141 Mg 0.26599 0.78168 0.2213 0.0
O2142 O 0.24814 0.77933 0.24517 0.0
O2143 O 0.25356 0.7631 0.19926 0.0
O2144 O 0.29451 0.77431 0.23137 0.0
O2145 O 0.25279 0.80808 0.23006 0.0
C2146 C 0.20365 0.7345 0.26332 0.0
C2147 C 0.25561 0.74893 0.30158 0.0
C2148 C 0.25771 0.69509 0.2603 0.0
C2149 C 0.24761 0.74539 0.20185 0.0
C2150 C 0.29902 0.75888 0.24109 0.0
C2151 C 0.24442 0.79805 0.24397 0.0
O2152 O 0.20838 0.71979 0.27403 0.0
O2153 O 0.21673 0.74578 0.25546 0.0
O2154 O 0.53791 0.97755 0.4659 0.0
Mg2155 Mg 0.54283 0.97774 0.49704 0.0
O2156 O 0.51124 -0.00306 0.46542 0.0
Mg2157 Mg 0.50078 0.00326 0.49738 0.0
O2158 O 0.51548 0.97573 0.50871 0.0
O2159 O 0.53755 0.95244 0.51432 0.0
O2160 O 0.49007 0.00957 0.52929 0.0
O2161 O 0.47351 0.9833 0.49153 0.0
Mg2162 Mg 0.45829 0.02836 0.49692 0.0
O2163 O 0.48594 0.03053 0.48599 0.0
O2164 O 0.46284 0.02816 0.52811 0.0
O2165 O 0.44687 0.00156 0.48509 0.0
O2166 O 0.464 0.05369 0.47964 0.0
C2167 C 0.54622 0.02124 0.50821 0.0
C2168 C 0.52456 0.9869 0.4565 0.0
C2169 C 0.51984 0.95902 0.51671 0.0
C2170 C 0.47623 0.01922 0.53787 0.0
C2171 C 0.45547 0.98484 0.48623 0.0
C2172 C 0.4818 0.04717 0.4778 0.0
O2173 O 0.55453 0.00435 0.50884 0.0
O2174 O 0.52816 0.02328 0.50313 0.0
O2175 O 0.30248 0.26906 0.76527 0.0
Mg2176 Mg 0.29727 0.25652 0.73712 0.0
O2177 O 0.27455 0.25818 0.77903 0.0
Mg2178 Mg 0.2517 0.24965 0.75455 0.0
O2179 O 0.26929 0.26404 0.73034 0.0
O2180 O 0.29408 0.27431 0.71183 0.0
O2181 O 0.22908 0.24129 0.72969 0.0
O2182 O 0.23604 0.27938 0.75917 0.0
Mg2183 Mg 0.20637 0.24135 0.76978 0.0
O2184 O 0.234 0.23625 0.77958 0.0
O2185 O 0.20353 0.22553 0.74305 0.0
O2186 O 0.20489 0.2731 0.76812 0.0
O2187 O 0.20806 0.22712 0.79717 0.0
C2188 C 0.28334 0.2131 0.74198 0.0
C2189 C 0.29169 0.26612 0.78038 0.0
C2190 C 0.2753 0.27355 0.71499 0.0
C2191 C 0.21337 0.23088 0.72799 0.0
C2192 C 0.21872 0.28527 0.76387 0.0
C2193 C 0.22701 0.22864 0.79561 0.0
O2194 O 0.29682 0.22484 0.73586 0.0
O2195 O 0.26715 0.21955 0.74935 0.0
O2196 O 0.98928 0.94522 0.49228 0.0
Mg2197 Mg 0.00024 0.95474 0.52003 0.0
O2198 O 0.99547 0.97307 0.47557 0.0
Mg2199 Mg 0.00129 -0.00096 0.49748 0.0
O2200 O 0.98911 0.98215 0.52325 0.0
O2201 O 0.98166 0.95886 0.54474 0.0
O2202 O 0.00696 0.02506 0.51942 0.0
O2203 O 0.96975 0.01026 0.4916 0.0
Mg2204 Mg 0.00152 0.0434 0.47517 0.0
O2205 O 0.01322 0.01614 0.4717 0.0
O2206 O 0.01246 0.05316 0.50287 0.0
O2207 O 0.97027 0.03818 0.47395 0.0
O2208 O 0.02003 0.03979 0.45034 0.0
C2209 C 0.04127 0.97354 0.51296 0.0
C2210 C 0.99024 0.95486 0.47616 0.0
C2211 C 0.98028 0.97709 0.53929 0.0
C2212 C 0.01179 0.04338 0.51892 0.0
C2213 C 0.96086 0.02416 0.48243 0.0
C2214 C 0.02188 0.02156 0.45567 0.0
O2215 O 0.03145 0.95984 0.52146 0.0
O2216 O 0.03293 0.98757 0.50343 0.0
O2217 O 0.27601 0.71313 0.77988 0.0
Mg2218 Mg 0.27684 0.71024 0.74845 0.0
O2219 O 0.25691 0.74 0.78102 0.0
Mg2220 Mg 0.25269 0.75347 0.75004 0.0
O2221 O 0.27966 0.73819 0.73844 0.0
O2222 O 0.30264 0.71607 0.73195 0.0
O2223 O 0.24811 0.76735 0.71921 0.0
O2224 O 0.27409 0.77859 0.75918 0.0
Mg2225 Mg 0.23097 0.79742 0.75443 0.0
O2226 O 0.22598 0.76898 0.76214 0.0
O2227 O 0.23251 0.79624 0.72289 0.0
O2228 O 0.25747 0.80528 0.76909 0.0
O2229 O 0.20468 0.79227 0.77028 0.0
C2230 C 0.2337 0.70999 0.73465 0.0
C2231 C 0.26617 0.72596 0.78959 0.0
C2232 C 0.29626 0.73396 0.73022 0.0
C2233 C 0.24024 0.78294 0.71194 0.0
C2234 C 0.27352 0.79571 0.76715 0.0
C2235 C 0.20957 0.77382 0.77044 0.0
O2236 O 0.25016 0.70088 0.73493 0.0
O2237 O 0.23184 0.7278 0.74081 0.0
O2238 O 0.47695 0.96786 0.04007 0.0
Mg2239 Mg 0.47634 -0.00088 0.04247 0.0
O2240 O 0.49548 0.96851 0.01296 0.0
Mg2241 Mg 0.49844 0.001 0.00161 0.0
O2242 O 0.46883 0.01087 0.01579 0.0
O2243 O 0.44958 0.0129 0.04249 0.0
O2244 O 0.50205 0.033 0.98893 0.0
O2245 O 0.47848 0.99191 0.97519 0.0
Mg2246 Mg 0.52221 -0.00067 0.95895 0.0
O2247 O 0.52673 0.99077 0.98709 0.0
O2248 O 0.51948 0.03075 0.96097 0.0
O2249 O 0.4969 0.98376 0.94917 0.0
O2250 O 0.54909 0.98483 0.96403 0.0
C2251 C 0.51672 0.01597 0.0459 0.0
C2252 C 0.4866 0.95899 0.02663 0.0
C2253 C 0.45229 0.01635 0.02391 0.0
C2254 C 0.51055 0.04106 0.97401 0.0
C2255 C 0.48024 0.98474 0.95782 0.0
C2256 C 0.54378 0.98374 0.98229 0.0
O2257 O 0.50032 0.01432 0.05479 0.0
O2258 O 0.51879 0.01058 0.02793 0.0
O2259 O 0.27459 0.24544 0.20215 0.0
Mg2260 Mg 0.25462 0.26479 0.21598 0.0
O2261 O 0.25783 0.22705 0.22272 0.0
Mg2262 Mg 0.25108 0.24671 0.25114 0.0
O2263 O 0.26211 0.27915 0.24158 0.0
O2264 O 0.26298 0.29286 0.21129 0.0
O2265 O 0.24359 0.26303 0.28106 0.0
O2266 O 0.2836 0.24147 0.26114 0.0
Mg2267 Mg 0.25401 0.21642 0.28931 0.0
O2268 O 0.24107 0.2168 0.26235 0.0
O2269 O 0.2413 0.24043 0.30504 0.0
O2270 O 0.28504 0.21807 0.28426 0.0
O2271 O 0.23763 0.19108 0.28225 0.0
C2272 C 0.212 0.25719 0.22415 0.0
C2273 C 0.26848 0.22855 0.20723 0.0
C2274 C 0.26576 0.29428 0.23009 0.0
C2275 C 0.2397 0.25818 0.29896 0.0
C2276 C 0.29353 0.23023 0.27264 0.0
C2277 C 0.23382 0.19942 0.26556 0.0
O2278 O 0.22398 0.26212 0.21059 0.0
O2279 O 0.21843 0.25171 0.241 0.0
O2280 O 0.47674 0.54073 0.97511 0.0
Mg2281 Mg 0.50839 0.54173 0.9761 0.0
O2282 O 0.47212 0.5118 0.99037 0.0
Mg2283 Mg 0.50222 0.49741 -0.00256 0.0
O2284 O 0.51643 0.5133 0.97217 0.0
O2285 O 0.52583 0.53603 0.95086 0.0
O2286 O 0.53245 0.48321 0.00465 0.0
O2287 O 0.49506 0.47257 0.97474 0.0
Mg2288 Mg 0.4966 0.45314 0.01862 0.0
O2289 O 0.48741 0.48133 0.02249 0.0
O2290 O 0.52794 0.45541 0.022 0.0
O2291 O 0.4863 0.44477 0.99023 0.0
O2292 O 0.47729 0.45768 0.04256 0.0
C2293 C 0.51765 0.53963 0.01982 0.0
C2294 C 0.46533 0.52737 0.98205 0.0
C2295 C 0.5256 0.51769 0.95613 0.0
C2296 C 0.53923 0.46847 0.01435 0.0
C2297 C 0.48859 0.45478 0.97448 0.0
C2298 C 0.47756 0.47621 0.03795 0.0
O2299 O 0.52077 0.54903 0.00384 0.0
O2300 O 0.50962 0.52246 0.02006 0.0
O2301 O 0.77285 0.20709 0.27284 0.0
Mg2302 Mg 0.77143 0.20647 0.24118 0.0
O2303 O 0.7587 0.23643 0.27853 0.0
Mg2304 Mg 0.75154 0.25152 0.24874 0.0
O2305 O 0.77571 0.23496 0.23391 0.0
O2306 O 0.79642 0.2124 0.22316 0.0
O2307 O 0.74472 0.26631 0.21886 0.0
O2308 O 0.77535 0.27557 0.25571 0.0
Mg2309 Mg 0.73215 0.2964 0.25507 0.0
O2310 O 0.72711 0.26827 0.26378 0.0
O2311 O 0.72982 0.29538 0.2235 0.0
O2312 O 0.76055 0.30318 0.26612 0.0
O2313 O 0.70782 0.29249 0.27404 0.0
C2314 C 0.72745 0.21024 0.23326 0.0
C2315 C 0.76663 0.2204 0.28472 0.0
C2316 C 0.79143 0.23078 0.22418 0.0
C2317 C 0.73655 0.28194 0.21208 0.0
C2318 C 0.77607 0.29301 0.26306 0.0
C2319 C 0.71187 0.27384 0.27373 0.0
O2320 O 0.74306 0.20046 0.22944 0.0
O2321 O 0.72798 0.22726 0.24157 0.0
O2322 O 0.96896 0.46171 0.53087 0.0
Mg2323 Mg 0.96328 0.49201 0.5368 0.0
O2324 O 0.99412 0.4658 0.50985 0.0
Mg2325 Mg -0.00329 0.49937 0.50167 0.0
O2326 O 0.96499 0.50518 0.51003 0.0
O2327 O 0.93707 0.50507 0.52698 0.0
O2328 O -0.00078 0.53296 0.49358 0.0
O2329 O 0.9847 0.49152 0.47057 0.0
Mg2330 Mg 0.02971 0.50691 0.46676 0.0
O2331 O 0.02859 0.49316 0.49333 0.0
O2332 O 0.02473 0.53729 0.47306 0.0
O2333 O 0.00886 0.49257 0.44825 0.0
O2334 O 0.05596 0.49334 0.47533 0.0
C2335 C 0.00194 0.51062 0.55022 0.0
C2336 C 0.98264 0.45467 0.52003 0.0
C2337 C 0.94663 0.51005 0.51125 0.0
C2338 C 0.01087 0.54419 0.48373 0.0
C2339 C 0.99102 0.48891 0.45297 0.0
C2340 C 0.04692 0.48826 0.49133 0.0
O2341 O 0.98405 0.50708 0.55491 0.0
O2342 O 0.00844 0.50748 0.53276 0.0
O2343 O 0.71925 0.78798 0.27748 0.0
Mg2344 Mg 0.71078 0.75754 0.27942 0.0
O2345 O 0.74405 0.7846 0.25588 0.0
Mg2346 Mg 0.7514 0.75134 0.25151 0.0
O2347 O 0.73694 0.74336 0.28007 0.0
O2348 O 0.71624 0.74061 0.30501 0.0
O2349 O 0.7587 0.71803 0.24721 0.0
O2350 O 0.7802 0.75608 0.26931 0.0
Mg2351 Mg 0.79207 0.74541 0.22375 0.0
O2352 O 0.76576 0.75931 0.22279 0.0
O2353 O 0.78373 0.71496 0.22578 0.0
O2354 O 0.80628 0.75751 0.2491 0.0
O2355 O 0.7865 0.76178 0.19783 0.0
C2356 C 0.70414 0.74386 0.23692 0.0
C2357 C 0.73256 0.7954 0.26637 0.0
C2358 C 0.73312 0.73635 0.29728 0.0
C2359 C 0.77036 0.70743 0.23674 0.0
C2360 C 0.79861 0.75902 0.26622 0.0
C2361 C 0.76954 0.76599 0.20542 0.0
O2362 O 0.69649 0.7457 0.25401 0.0
O2363 O 0.72258 0.74654 0.23377 0.0
O2364 O 0.77166 0.25585 0.80027 0.0
Mg2365 Mg 0.75908 0.22789 0.79383 0.0
O2366 O 0.76011 0.27065 0.77331 0.0
Mg2367 Mg 0.75208 0.24704 0.74954 0.0
O2368 O 0.76682 0.22181 0.76564 0.0
O2369 O 0.77681 0.20271 0.79011 0.0
O2370 O 0.74385 0.22374 0.72549 0.0
O2371 O 0.78213 0.25332 0.73437 0.0
Mg2372 Mg 0.74579 0.26714 0.70507 0.0
O2373 O 0.73783 0.27222 0.73339 0.0
O2374 O 0.73327 0.23916 0.69836 0.0
O2375 O 0.77752 0.26832 0.70543 0.0
O2376 O 0.72822 0.29247 0.70983 0.0
C2377 C 0.71563 0.23319 0.781 0.0
C2378 C 0.76829 0.27141 0.79027 0.0
C2379 C 0.77629 0.2063 0.77141 0.0
C2380 C 0.73597 0.22346 0.70835 0.0
C2381 C 0.78895 0.26138 0.71868 0.0
C2382 C 0.72861 0.28806 0.72834 0.0
O2383 O 0.72746 0.22666 0.7941 0.0
O2384 O 0.72199 0.24087 0.76491 0.0
O2385 O 0.76214 0.75838 0.69853 0.0
Mg2386 Mg 0.74585 0.77958 0.71472 0.0
O2387 O 0.75733 0.73579 0.72182 0.0
Mg2388 Mg 0.74811 0.75056 0.75184 0.0
O2389 O 0.75673 0.78222 0.74264 0.0
O2390 O 0.75775 0.80699 0.72089 0.0
O2391 O 0.73876 0.76467 0.78233 0.0
O2392 O 0.78092 0.74708 0.76229 0.0
Mg2393 Mg 0.75228 0.719 0.78828 0.0
O2394 O 0.73996 0.71919 0.76099 0.0
O2395 O 0.73767 0.74099 0.80519 0.0
O2396 O 0.78316 0.72258 0.78419 0.0
O2397 O 0.73841 0.69269 0.78024 0.0
C2398 C 0.70596 0.76332 0.72767 0.0
C2399 C 0.76286 0.74053 0.70438 0.0
C2400 C 0.76193 0.80018 0.7382 0.0
C2401 C 0.73491 0.75886 0.79994 0.0
C2402 C 0.7912 0.73575 0.77341 0.0
C2403 C 0.73426 0.70111 0.76366 0.0
O2404 O 0.715 0.77495 0.71596 0.0
O2405 O 0.71528 0.75373 0.74104 0.0
O2406 O 0.55163 0.49131 0.49258 0.0
Mg2407 Mg 0.53288 0.47028 0.5059 0.0
O2408 O 0.52971 0.51565 0.49484 0.0
Mg2409 Mg 0.49829 0.50221 0.50261 0.0
O2410 O 0.50592 0.47053 0.49264 0.0
O2411 O 0.5261 0.44447 0.49123 0.0
O2412 O 0.46681 0.4889 0.51013 0.0
O2413 O 0.48941 0.50758 0.46956 0.0
Mg2414 Mg 0.46404 0.53455 0.49834 0.0
O2415 O 0.49048 0.53384 0.51266 0.0
O2416 O 0.44468 0.51315 0.51034 0.0
O2417 O 0.4692 0.53341 0.46757 0.0
O2418 O 0.47039 0.55997 0.51393 0.0
C2419 C 0.51833 0.48481 0.54549 0.0
C2420 C 0.54718 0.50949 0.49087 0.0
C2421 C 0.50949 0.45263 0.48665 0.0
C2422 C 0.44911 0.49506 0.51288 0.0
C2423 C 0.47947 0.52 0.45935 0.0
C2424 C 0.48688 0.5517 0.51874 0.0
O2425 O 0.52909 0.4721 0.53677 0.0
O2426 O 0.50737 0.49674 0.53571 0.0
O2427 O 0.03976 0.47711 0.96745 0.0
Mg2428 Mg 0.04196 0.47562 -0.0011 0.0
O2429 O 0.01344 0.49688 0.9663 0.0
Mg2430 Mg 0.00012 0.50115 -0.00256 0.0
O2431 O 0.01379 0.47277 0.00845 0.0
O2432 O 0.03588 0.44953 0.01456 0.0
O2433 O 0.98635 0.50554 0.02847 0.0
O2434 O 0.97391 0.48119 0.98783 0.0
Mg2435 Mg 0.95792 0.5243 0.99321 0.0
O2436 O 0.98655 0.52967 0.98634 0.0
O2437 O 0.9576 0.52115 0.02456 0.0
O2438 O 0.94898 0.49932 0.9766 0.0
O2439 O 0.96324 0.5517 0.97992 0.0
C2440 C 0.04424 0.51811 0.01368 0.0
C2441 C 0.0273 0.48731 0.95773 0.0
C2442 C 0.01793 0.45575 0.01598 0.0
C2443 C 0.97058 0.51317 0.0356 0.0
C2444 C 0.95725 0.48266 0.97915 0.0
C2445 C 0.98164 0.54676 0.97941 0.0
O2446 O 0.05263 0.50126 0.01338 0.0
O2447 O 0.02668 0.52066 0.00728 0.0
H2448 H 0.01833 0.14148 0.08509 0.0
H2449 H 0.99453 0.17156 0.03407 0.0
H2450 H 0.01564 0.10979 0.06775 0.0
H2451 H 0.99197 0.13994 0.0167 0.0
H2452 H 0.95894 0.08044 0.00997 0.0
H2453 H 0.9691 0.1125 0.0225 0.0
H2454 H 0.0257 0.08819 0.03935 0.0
H2455 H 0.01536 0.0556 0.02683 0.0
C2456 C 0.01298 0.14138 0.07 0.0
C2457 C 0.0063 0.15895 0.06106 0.0
C2458 C 0.01149 0.12323 0.06005 0.0
C2459 C 0.00332 0.12233 0.04096 0.0
C2460 C -0.00206 0.1401 0.03155 0.0
C2461 C -0.00063 0.15819 0.0415 0.0
C2462 C 0.97363 0.08186 0.01619 0.0
C2463 C 0.98628 0.06539 0.01756 0.0
C2464 C 0.97954 0.10035 0.02321 0.0
C2465 C -0.00176 0.10293 0.03186 0.0
C2466 C 0.01115 0.08661 0.03285 0.0
C2467 C 0.00527 0.068 0.02563 0.0
H2468 H 0.07623 0.72887 0.27631 0.0
H2469 H 0.10037 0.77525 0.31324 0.0
H2470 H 0.10714 0.72786 0.25753 0.0
H2471 H 0.13113 0.77413 0.29474 0.0
H2472 H 0.17353 0.70807 0.26284 0.0
H2473 H 0.13869 0.71493 0.26782 0.0
H2474 H 0.15061 0.77787 0.26467 0.0
H2475 H 0.18586 0.77082 0.26007 0.0
C2476 C 0.08803 0.73902 0.28023 0.0
C2477 C 0.08597 0.75193 0.29642 0.0
C2478 C 0.10569 0.7385 0.26945 0.0
C2479 C 0.12169 0.75078 0.27475 0.0
C2480 C 0.11906 0.76466 0.29005 0.0
C2481 C 0.10141 0.76523 0.30075 0.0
C2482 C 0.16865 0.72337 0.26271 0.0
C2483 C 0.1824 0.73894 0.26135 0.0
C2484 C 0.14861 0.72733 0.26537 0.0
C2485 C 0.14186 0.74697 0.26687 0.0
C2486 C 0.15541 0.76258 0.26382 0.0
C2487 C 0.17555 0.75858 0.261 0.0
H2488 H 0.51578 0.86821 0.5922 0.0
H2489 H 0.46765 0.84906 0.55481 0.0
H2490 H 0.5138 0.90127 0.57818 0.0
H2491 H 0.46514 0.88254 0.54117 0.0
H2492 H 0.49952 0.92888 0.50061 0.0
H2493 H 0.48664 0.90049 0.51875 0.0
H2494 H 0.4958 0.93188 0.57377 0.0
H2495 H 0.50918 0.96014 0.55534 0.0
C2496 C 0.50463 0.87114 0.5811 0.0
C2497 C 0.49216 0.85594 0.57433 0.0
C2498 C 0.50321 0.89023 0.57332 0.0
C2499 C 0.48926 0.8946 0.55856 0.0
C2500 C 0.47611 0.87962 0.55245 0.0
C2501 C 0.47752 0.86047 0.56029 0.0
C2502 C 0.49786 0.92999 0.51652 0.0
C2503 C 0.50525 0.94652 0.52668 0.0
C2504 C 0.49049 0.91374 0.52696 0.0
C2505 C 0.49065 0.91373 0.54775 0.0
C2506 C 0.49589 0.9313 0.55776 0.0
C2507 C 0.5033 0.94756 0.54727 0.0
H2508 H 0.38458 0.22331 0.83344 0.0
H2509 H 0.38886 0.28139 0.86026 0.0
H2510 H 0.34999 0.22944 0.82582 0.0
H2511 H 0.35427 0.28768 0.8521 0.0
H2512 H 0.31648 0.29557 0.7919 0.0
H2513 H 0.34182 0.29231 0.81715 0.0
H2514 H 0.31488 0.2377 0.83707 0.0
H2515 H 0.28939 0.24119 0.81172 0.0
C2516 C 0.37803 0.23717 0.83819 0.0
C2517 C 0.38962 0.25203 0.84701 0.0
C2518 C 0.35813 0.24065 0.83393 0.0
C2519 C 0.34947 0.2591 0.83831 0.0
C2520 C 0.36063 0.27339 0.84846 0.0
C2521 C 0.38048 0.26985 0.85288 0.0
C2522 C 0.31542 0.28342 0.80233 0.0
C2523 C 0.3012 0.26846 0.79977 0.0
C2524 C 0.32991 0.28155 0.81684 0.0
C2525 C 0.33055 0.26451 0.82877 0.0
C2526 C 0.31483 0.25086 0.82789 0.0
C2527 C 0.30013 0.25294 0.81353 0.0
H2528 H 0.97089 0.85524 0.39935 0.0
H2529 H 0.03294 0.86402 0.41165 0.0
H2530 H 0.96404 0.8893 0.40952 0.0
H2531 H 0.02615 0.89792 0.42213 0.0
H2532 H 0.01275 0.95683 0.44297 0.0
H2533 H 0.0144 0.9318 0.41687 0.0
H2534 H 0.9646 0.90135 0.44331 0.0
H2535 H 0.96272 0.92667 0.46881 0.0
C2536 C 0.98309 0.86459 0.40399 0.0
C2537 C 0.00237 0.85695 0.40523 0.0
C2538 C 0.97919 0.88408 0.40968 0.0
C2539 C 0.99449 0.89621 0.41688 0.0
C2540 C 0.01404 0.88904 0.41648 0.0
C2541 C 0.01795 0.86958 0.41064 0.0
C2542 C 0.00152 0.9454 0.44246 0.0
C2543 C 0.9876 0.94362 0.45777 0.0
C2544 C 0.00263 0.9309 0.42773 0.0
C2545 C 0.98984 0.91444 0.4282 0.0
C2546 C 0.97461 0.91389 0.44239 0.0
C2547 C 0.97358 0.92831 0.4571 0.0
H2548 H 0.38103 0.73871 0.64844 0.0
H2549 H 0.4029 0.78695 0.68436 0.0
H2550 H 0.34907 0.74084 0.66496 0.0
H2551 H 0.37069 0.78932 0.70078 0.0
H2552 H 0.32863 0.75218 0.74442 0.0
H2553 H 0.35547 0.76553 0.72433 0.0
H2554 H 0.31882 0.76044 0.67226 0.0
H2555 H 0.29195 0.74697 0.69263 0.0
C2556 C 0.37888 0.74996 0.65968 0.0
C2557 C 0.3945 0.76245 0.66532 0.0
C2558 C 0.36048 0.75141 0.66894 0.0
C2559 C 0.35735 0.7653 0.68416 0.0
C2560 C 0.37269 0.77848 0.68912 0.0
C2561 C 0.39109 0.77713 0.67971 0.0
C2562 C 0.32605 0.75488 0.72884 0.0
C2563 C 0.30842 0.74863 0.71995 0.0
C2564 C 0.34139 0.76251 0.7173 0.0
C2565 C 0.33937 0.76367 0.69665 0.0
C2566 C 0.32085 0.75944 0.68811 0.0
C2567 C 0.30544 0.75193 0.69973 0.0
H2568 H 0.47267 0.16027 0.94849 0.0
H2569 H 0.53631 0.16363 0.94372 0.0
H2570 H 0.47534 0.12667 0.96173 0.0
H2571 H 0.539 0.13026 0.95735 0.0
H2572 H 0.53146 0.06293 0.94737 0.0
H2573 H 0.53011 0.09837 0.94172 0.0
H2574 H 0.48755 0.10457 0.98902 0.0
H2575 H 0.48873 0.06866 0.9947 0.0
C2576 C 0.48723 0.15396 0.95065 0.0
C2577 C 0.50427 0.16448 0.94486 0.0
C2578 C 0.48876 0.1348 0.95838 0.0
C2579 C 0.50736 0.12575 0.96035 0.0
C2580 C 0.52445 0.13677 0.95575 0.0
C2581 C 0.52292 0.15595 0.94813 0.0
C2582 C 0.52187 0.07176 0.95672 0.0
C2583 C 0.51015 0.06289 0.97147 0.0
C2584 C 0.52126 0.09217 0.95357 0.0
C2585 C 0.50885 0.1043 0.96503 0.0
C2586 C 0.49723 0.09555 0.97995 0.0
C2587 C 0.49795 0.07503 0.98322 0.0
H2588 H 0.10697 0.26582 0.15552 0.0
H2589 H 0.08194 0.2524 0.21274 0.0
H2590 H 0.13995 0.26494 0.16949 0.0
H2591 H 0.11529 0.252 0.22708 0.0
H2592 H 0.18174 0.23376 0.2384 0.0
H2593 H 0.14701 0.23424 0.22765 0.0
H2594 H 0.15972 0.28484 0.19049 0.0
H2595 H 0.19411 0.28376 0.2005 0.0
C2596 C 0.10854 0.26296 0.1712 0.0
C2597 C 0.09186 0.25951 0.1831 0.0
C2598 C 0.12747 0.26249 0.17926 0.0
C2599 C 0.1303 0.25877 0.19952 0.0
C2600 C 0.11364 0.25487 0.21142 0.0
C2601 C 0.09457 0.25516 0.20325 0.0
C2602 C 0.17694 0.24504 0.22809 0.0
C2603 C 0.19061 0.25852 0.22002 0.0
C2604 C 0.15709 0.24537 0.22196 0.0
C2605 C 0.15067 0.25932 0.20787 0.0
C2606 C 0.16424 0.27348 0.20085 0.0
C2607 C 0.18396 0.27294 0.20667 0.0
H2608 H 0.07846 0.96098 0.15048 0.0
H2609 H 0.04042 0.00864 0.16992 0.0
H2610 H 0.06129 0.95987 0.11914 0.0
H2611 H 0.02303 0.00752 0.13821 0.0
H2612 H 0.02181 0.01544 0.06824 0.0
H2613 H 0.03004 0.01567 0.10353 0.0
H2614 H 0.03072 0.95155 0.1035 0.0
H2615 H 0.02347 0.95148 0.06825 0.0
C2616 C 0.0661 0.97093 0.14825 0.0
C2617 C 0.0608 0.98485 0.16276 0.0
C2618 C 0.05619 0.97029 0.13023 0.0
C2619 C 0.04065 0.98352 0.12618 0.0
C2620 C 0.03502 -0.00277 0.14081 0.0
C2621 C 0.04499 -0.00213 0.15895 0.0
C2622 C 0.02323 0.00146 0.076 0.0
C2623 C 0.02236 0.98345 0.06561 0.0
C2624 C 0.02791 0.00155 0.09618 0.0
C2625 C 0.03151 0.98361 0.10621 0.0
C2626 C 0.02863 0.96562 0.09609 0.0
C2627 C 0.02435 0.96556 0.07596 0.0
H2628 H 0.23928 0.84117 0.38508 0.0
H2629 H 0.2867 0.80826 0.41235 0.0
H2630 H 0.24184 0.8203 0.35564 0.0
H2631 H 0.28934 0.7874 0.38283 0.0
H2632 H 0.26111 0.73921 0.34043 0.0
H2633 H 0.2655 0.76196 0.36815 0.0
H2634 H 0.26572 0.8116 0.32786 0.0
H2635 H 0.26132 0.78898 0.30008 0.0
C2636 C 0.25035 0.82958 0.38465 0.0
C2637 C 0.26272 0.8262 0.40093 0.0
C2638 C 0.25195 0.81778 0.36779 0.0
C2639 C 0.26579 0.80227 0.36704 0.0
C2640 C 0.27851 0.79922 0.38313 0.0
C2641 C 0.27707 0.81119 0.39991 0.0
C2642 C 0.26237 0.75494 0.33745 0.0
C2643 C 0.26066 0.7623 0.3181 0.0
C2644 C 0.26501 0.76793 0.3533 0.0
C2645 C 0.26582 0.78849 0.35008 0.0
C2646 C 0.26496 0.7958 0.33069 0.0
C2647 C 0.26251 0.78283 0.31483 0.0
H2648 H 0.47473 0.00602 0.66813 0.0
H2649 H 0.41603 -0.00031 0.64358 0.0
H2650 H 0.48794 0.01187 0.63468 0.0
H2651 H 0.42918 0.00515 0.61068 0.0
H2652 H 0.45179 0.04146 0.5609 0.0
H2653 H 0.44486 0.03718 0.59587 0.0
H2654 H 0.48975 0.9919 0.59952 0.0
H2655 H 0.49689 -0.00387 0.5642 0.0
C2656 C 0.46473 0.00572 0.65564 0.0
C2657 C 0.44436 0.00234 0.65846 0.0
C2658 C 0.47228 0.00896 0.63659 0.0
C2659 C 0.45948 0.00918 0.62027 0.0
C2660 C 0.43929 0.00531 0.62309 0.0
C2661 C 0.43182 0.00194 0.64193 0.0
C2662 C 0.46044 0.03077 0.56912 0.0
C2663 C 0.47462 0.01884 0.55966 0.0
C2664 C 0.45645 0.02835 0.58915 0.0
C2665 C 0.46656 0.014 0.6002 0.0
C2666 C 0.48178 0.00306 0.59123 0.0
C2667 C 0.48578 0.00545 0.57104 0.0
H2668 H 0.27196 0.22454 0.91527 0.0
H2669 H 0.27556 0.16556 0.89036 0.0
H2670 H 0.26677 0.23804 0.88216 0.0
H2671 H 0.2706 0.17906 0.85754 0.0
H2672 H 0.26265 0.20922 0.79842 0.0
H2673 H 0.28039 0.20123 0.82922 0.0
H2674 H 0.23621 0.23327 0.86266 0.0
H2675 H 0.21871 0.24085 0.83233 0.0
C2676 C 0.27202 0.21451 0.90275 0.0
C2677 C 0.27385 0.19394 0.90555 0.0
C2678 C 0.26917 0.22224 0.88379 0.0
C2679 C 0.26805 0.20956 0.8673 0.0
C2680 C 0.27159 0.18924 0.8699 0.0
C2681 C 0.2744 0.1815 0.88882 0.0
C2682 C 0.25704 0.21471 0.8124 0.0
C2683 C 0.2393 0.22541 0.81319 0.0
C2684 C 0.26711 0.21017 0.82996 0.0
C2685 C 0.25974 0.21673 0.84834 0.0
C2686 C 0.24251 0.2283 0.84877 0.0
C2687 C 0.23234 0.23244 0.83142 0.0
H2688 H 0.09894 0.97498 0.36446 0.0
H2689 H 0.04438 -0.00177 0.34089 0.0
H2690 H 0.08449 0.97488 0.39767 0.0
H2691 H 0.03002 -0.0017 0.37398 0.0
H2692 H 0.00479 0.99347 0.43309 0.0
H2693 H 0.01951 0.97825 0.40363 0.0
H2694 H 0.0758 0.00489 0.41831 0.0
H2695 H 0.06097 0.01999 0.44763 0.0
C2696 C 0.08372 0.97963 0.36633 0.0
C2697 C 0.07282 0.98686 0.3502 0.0
C2698 C 0.07549 0.97961 0.3853 0.0
C2699 C 0.05616 0.98658 0.38839 0.0
C2700 C 0.04487 0.9926 0.37203 0.0
C2701 C 0.05315 0.99282 0.35313 0.0
C2702 C 0.02051 0.99524 0.43041 0.0
C2703 C 0.03191 0.00762 0.44254 0.0
C2704 C 0.02887 0.98672 0.41352 0.0
C2705 C 0.04873 0.99057 0.4086 0.0
C2706 C 0.06052 0.00149 0.42182 0.0
C2707 C 0.05209 0.01015 0.43858 0.0
H2708 H 0.21094 0.82155 0.59433 0.0
H2709 H 0.26651 0.79074 0.58636 0.0
H2710 H 0.20919 0.80985 0.62803 0.0
H2711 H 0.26543 0.78033 0.62084 0.0
H2712 H 0.25144 0.75654 0.68302 0.0
H2713 H 0.24984 0.7613 0.64721 0.0
H2714 H 0.22721 0.82054 0.65638 0.0
H2715 H 0.22824 0.81566 0.69178 0.0
C2716 C 0.22264 0.81197 0.59955 0.0
C2717 C 0.23904 0.80738 0.58756 0.0
C2718 C 0.22178 0.80553 0.61908 0.0
C2719 C 0.23744 0.79465 0.62729 0.0
C2720 C 0.25316 0.78879 0.615 0.0
C2721 C 0.25389 0.795 0.59528 0.0
C2722 C 0.24605 0.77054 0.67734 0.0
C2723 C 0.23983 0.78567 0.69026 0.0
C2724 C 0.24519 0.77327 0.65684 0.0
C2725 C 0.23812 0.79118 0.64894 0.0
C2726 C 0.23219 0.80634 0.66193 0.0
C2727 C 0.23296 0.8036 0.68229 0.0
H2728 H 0.38921 0.0029 0.86803 0.0
H2729 H 0.44853 0.99279 0.8464 0.0
H2730 H 0.40012 0.99438 0.90168 0.0
H2731 H 0.45919 0.98414 0.87945 0.0
H2732 H 0.47483 0.95488 0.93161 0.0
H2733 H 0.45268 0.95622 0.90326 0.0
H2734 H 0.42485 0.00851 0.92748 0.0
H2735 H 0.44658 0.00669 0.95627 0.0
C2736 C 0.40455 -0.00099 0.87051 0.0
C2737 C 0.41801 -0.00174 0.85463 0.0
C2738 C 0.4107 0.99397 0.88964 0.0
C2739 C 0.43031 0.98798 0.89299 0.0
C2740 C 0.4438 0.98796 0.87718 0.0
C2741 C 0.43775 0.99307 0.85827 0.0
C2742 C 0.46333 0.96605 0.93132 0.0
C2743 C 0.4626 0.98092 0.94579 0.0
C2744 C 0.45075 0.96691 0.91508 0.0
C2745 C 0.43761 0.98289 0.91292 0.0
C2746 C 0.43496 -0.00387 0.92875 0.0
C2747 C 0.44738 0.99506 0.94523 0.0
H2748 H 0.23317 0.17164 0.10418 0.0
H2749 H 0.29304 0.14933 0.10743 0.0
H2750 H 0.23611 0.18443 0.13768 0.0
H2751 H 0.29613 0.16303 0.14072 0.0
H2752 H 0.2972 0.22287 0.17953 0.0
H2753 H 0.29618 0.19995 0.15159 0.0
H2754 H 0.24218 0.17434 0.17435 0.0
H2755 H 0.24336 0.1971 0.20257 0.0
C2756 C 0.24683 0.16907 0.1121 0.0
C2757 C 0.26294 0.1596 0.10287 0.0
C2758 C 0.24849 0.17644 0.13135 0.0
C2759 C 0.26636 0.17476 0.14176 0.0
C2760 C 0.28223 0.16465 0.13294 0.0
C2761 C 0.28048 0.15699 0.11378 0.0
C2762 C 0.28543 0.21197 0.17887 0.0
C2763 C 0.27028 0.21188 0.19312 0.0
C2764 C 0.28488 0.1988 0.16291 0.0
C2765 C 0.26898 0.18553 0.16071 0.0
C2766 C 0.25452 0.18454 0.17564 0.0
C2767 C 0.25528 0.19747 0.19184 0.0
H2768 H 0.16476 0.05664 0.97018 0.0
H2769 H 0.13639 0.10815 0.99511 0.0
H2770 H 0.13332 0.03925 0.96962 0.0
H2771 H 0.10434 0.09131 0.99342 0.0
H2772 H 0.05624 0.04531 0.01095 0.0
H2773 H 0.08495 0.06708 0.00785 0.0
H2774 H 0.10313 0.03501 0.95539 0.0
H2775 H 0.07533 0.01243 0.9597 0.0
C2776 C 0.15161 0.06436 0.97516 0.0
C2777 C 0.15295 0.08368 0.98269 0.0
C2778 C 0.13345 0.05448 0.97468 0.0
C2779 C 0.11599 0.06382 0.9813 0.0
C2780 C 0.11737 0.08343 0.98846 0.0
C2781 C 0.1357 0.09316 0.98935 0.0
C2782 C 0.06623 0.04327 -0.00144 0.0
C2783 C 0.06375 0.02719 0.98563 0.0
C2784 C 0.08273 0.05576 -0.00328 0.0
C2785 C 0.09683 0.05263 0.98161 0.0
C2786 C 0.09316 0.0375 0.96768 0.0
C2787 C 0.07705 0.02471 0.96991 0.0
H2788 H 0.66809 0.46498 0.00209 0.0
H2789 H 0.65025 0.41283 0.03456 0.0
H2790 H 0.63442 0.47798 0.00453 0.0
H2791 H 0.61668 0.42517 0.03634 0.0
H2792 H 0.55882 0.45353 0.04597 0.0
H2793 H 0.59422 0.44777 0.04912 0.0
H2794 H 0.60329 0.47177 0.99046 0.0
H2795 H 0.568 0.47864 0.98801 0.0
C2796 C 0.65696 0.4564 0.00986 0.0
C2797 C 0.66173 0.43795 0.01817 0.0
C2798 C 0.63767 0.46375 0.01117 0.0
C2799 C 0.62272 0.45261 0.02054 0.0
C2800 C 0.62778 0.43442 0.02937 0.0
C2801 C 0.64706 0.42726 0.0283 0.0
C2802 C 0.56848 0.45775 0.03388 0.0
C2803 C 0.56075 0.46631 0.01667 0.0
C2804 C 0.58875 0.45438 0.03561 0.0
C2805 C 0.60167 0.45899 0.01992 0.0
C2806 C 0.59392 0.46824 0.00296 0.0
C2807 C 0.57366 0.47205 0.00145 0.0
H2808 H 0.86666 0.38339 0.2411 0.0
H2809 H 0.80707 0.40247 0.25448 0.0
H2810 H 0.85699 0.34888 0.24809 0.0
H2811 H 0.79787 0.36855 0.26207 0.0
H2812 H 0.78795 0.3158 0.29364 0.0
H2813 H 0.81044 0.34391 0.29047 0.0
H2814 H 0.82813 0.32333 0.23266 0.0
H2815 H 0.80582 0.29484 0.23602 0.0
C2816 C 0.85154 0.38024 0.24538 0.0
C2817 C 0.83768 0.39569 0.24754 0.0
C2818 C 0.84612 0.36058 0.24955 0.0
C2819 C 0.82691 0.35628 0.25618 0.0
C2820 C 0.81297 0.37161 0.2576 0.0
C2821 C 0.81824 0.39103 0.25322 0.0
C2822 C 0.79747 0.31669 0.28075 0.0
C2823 C 0.79501 0.30347 0.26494 0.0
C2824 C 0.81025 0.33278 0.2789 0.0
C2825 C 0.82051 0.33595 0.26111 0.0
C2826 C 0.8203 0.32116 0.24648 0.0
C2827 C 0.8076 0.30485 0.24844 0.0
H2828 H 0.84343 0.55373 0.45362 0.0
H2829 H 0.86479 0.59182 0.50032 0.0
H2830 H 0.87621 0.53857 0.45096 0.0
H2831 H 0.89716 0.57645 0.49812 0.0
H2832 H 0.95305 0.54734 0.49734 0.0
H2833 H 0.92786 0.56774 0.48107 0.0
H2834 H 0.8906 0.5159 0.47488 0.0
H2835 H 0.9157 0.49589 0.49088 0.0
C2836 C 0.85523 0.55913 0.46301 0.0
C2837 C 0.85146 0.57354 0.47755 0.0
C2838 C 0.87398 0.55047 0.4615 0.0
C2839 C 0.88927 0.55615 0.47444 0.0
C2840 C 0.88585 0.57179 0.48778 0.0
C2841 C 0.86716 0.58037 0.48932 0.0
C2842 C 0.93988 0.54027 0.49151 0.0
C2843 C 0.93607 0.52022 0.49537 0.0
C2844 C 0.9254 0.55191 0.48239 0.0
C2845 C 0.90704 0.54352 0.47708 0.0
C2846 C 0.90452 0.52288 0.47868 0.0
C2847 C 0.91887 0.51137 0.48792 0.0
H2848 H 0.18671 0.09505 0.20756 0.0
H2849 H 0.16411 0.10599 0.26625 0.0
H2850 H 0.19986 0.1291 0.20635 0.0
H2851 H 0.17691 0.13973 0.26507 0.0
H2852 H 0.19416 0.20033 0.26109 0.0
H2853 H 0.17447 0.17274 0.24817 0.0
H2854 H 0.22775 0.14502 0.22626 0.0
H2855 H 0.24725 0.17271 0.23906 0.0
C2856 C 0.1843 0.10487 0.22002 0.0
C2857 C 0.17467 0.09794 0.23711 0.0
C2858 C 0.19177 0.12428 0.21932 0.0
C2859 C 0.18926 0.13713 0.23553 0.0
C2860 C 0.17878 0.13035 0.25219 0.0
C2861 C 0.17168 0.11095 0.25301 0.0
C2862 C 0.20145 0.18885 0.25254 0.0
C2863 C 0.22211 0.18852 0.25097 0.0
C2864 C 0.19025 0.17298 0.24533 0.0
C2865 C 0.19964 0.15653 0.23662 0.0
C2866 C 0.22008 0.15748 0.23286 0.0
C2867 C 0.23127 0.17334 0.24014 0.0
H2868 H 0.36739 0.91432 0.52997 0.0
H2869 H 0.3564 0.90655 0.46758 0.0
H2870 H 0.40054 0.92684 0.5225 0.0
H2871 H 0.38953 0.91888 0.46008 0.0
H2872 H 0.42367 0.98027 0.46235 0.0
H2873 H 0.39888 0.95424 0.46435 0.0
H2874 H 0.43458 0.9231 0.50718 0.0
H2875 H 0.4596 0.94935 0.50508 0.0
C2876 C 0.37232 0.91473 0.51472 0.0
C2877 C 0.35926 0.91004 0.49931 0.0
C2878 C 0.39132 0.92174 0.51043 0.0
C2879 C 0.39746 0.92407 0.49068 0.0
C2880 C 0.38504 0.91751 0.47541 0.0
C2881 C 0.36609 0.91059 0.47969 0.0
C2882 C 0.42651 0.96756 0.47171 0.0
C2883 C 0.44337 0.96689 0.48372 0.0
C2884 C 0.41239 0.95256 0.47278 0.0
C2885 C 0.41475 0.93673 0.48607 0.0
C2886 C 0.43238 0.93522 0.49692 0.0
C2887 C 0.44672 0.95015 0.49562 0.0
H2888 H 0.81225 0.59311 0.21291 0.0
H2889 H 0.785 0.58342 0.26979 0.0
H2890 H 0.79709 0.62552 0.21095 0.0
H2891 H 0.76855 0.61561 0.26748 0.0
H2892 H 0.77129 0.68447 0.26964 0.0
H2893 H 0.77665 0.64875 0.27075 0.0
H2894 H 0.77056 0.64599 0.20706 0.0
H2895 H 0.76699 0.68192 0.20611 0.0
C2896 C 0.80241 0.59773 0.2247 0.0
C2897 C 0.79982 0.58588 0.24151 0.0
C2898 C 0.79355 0.61633 0.22358 0.0
C2899 C 0.78152 0.62341 0.23909 0.0
C2900 C 0.77801 0.61092 0.25543 0.0
C2901 C 0.78728 0.59243 0.25673 0.0
C2902 C 0.77079 0.67605 0.25598 0.0
C2903 C 0.76907 0.68576 0.23777 0.0
C2904 C 0.77373 0.65553 0.25656 0.0
C2905 C 0.77451 0.64437 0.23893 0.0
C2906 C 0.77083 0.65409 0.22089 0.0
C2907 C 0.76855 0.67463 0.22029 0.0
H2908 H 0.70301 0.40274 0.7799 0.0
H2909 H 0.66259 0.38694 0.73305 0.0
H2910 H 0.71419 0.36824 0.78163 0.0
H2911 H 0.67414 0.353 0.73419 0.0
H2912 H 0.69023 0.29217 0.73886 0.0
H2913 H 0.67551 0.32256 0.75199 0.0
H2914 H 0.73404 0.34704 0.76068 0.0
H2915 H 0.74851 0.31629 0.74835 0.0
C2916 C 0.69642 0.39189 0.77008 0.0
C2917 C 0.68216 0.39763 0.75609 0.0
C2918 C 0.70286 0.37216 0.77104 0.0
C2919 C 0.69504 0.35778 0.75812 0.0
C2920 C 0.68028 0.3635 0.74465 0.0
C2921 C 0.67391 0.38311 0.74369 0.0
C2922 C 0.69984 0.30372 0.74454 0.0
C2923 C 0.7204 0.30207 0.74268 0.0
C2924 C 0.69148 0.32121 0.7518 0.0
C2925 C 0.70359 0.33749 0.75678 0.0
C2926 C 0.72424 0.33487 0.75697 0.0
C2927 C 0.73258 0.31725 0.74993 0.0
H2928 H 0.96506 0.84508 0.93765 0.0
H2929 H 0.01512 0.86637 0.90404 0.0
H2930 H 0.96223 0.87749 0.95381 0.0
H2931 H 0.01248 0.89853 0.92023 0.0
H2932 H 0.00597 0.95592 0.94755 0.0
H2933 H 0.99286 0.92924 0.92663 0.0
H2934 H 0.98523 0.89244 0.97838 0.0
H2935 H -0.00166 0.919 -0.00102 0.0
C2936 C 0.97521 0.8568 0.93346 0.0
C2937 C 0.99053 0.85315 0.91985 0.0
C2938 C 0.97358 0.87532 0.94269 0.0
C2939 C 0.9871 0.89058 0.93829 0.0
C2940 C 0.00164 0.88721 0.92377 0.0
C2941 C 0.00338 0.86869 0.91472 0.0
C2942 C 0.00054 0.94246 0.95444 0.0
C2943 C 0.00314 0.93932 0.97474 0.0
C2944 C 0.99322 0.92715 0.94251 0.0
C2945 C 0.9884 0.90861 0.95083 0.0
C2946 C 0.98874 0.90652 0.9715 0.0
C2947 C -0.00376 0.92171 0.98333 0.0
H2948 H 0.91182 0.23001 0.70392 0.0
H2949 H 0.90942 0.2903 0.68246 0.0
H2950 H 0.87745 0.23239 0.7146 0.0
H2951 H 0.87532 0.29295 0.69388 0.0
H2952 H 0.80896 0.2783 0.68782 0.0
H2953 H 0.84445 0.27884 0.68208 0.0
H2954 H 0.85384 0.2478 0.73711 0.0
H2955 H 0.81818 0.24688 0.74274 0.0
C2956 C 0.90405 0.24387 0.70176 0.0
C2957 C 0.9133 0.25988 0.69212 0.0
C2958 C 0.8844 0.24531 0.70806 0.0
C2959 C 0.87357 0.26279 0.70488 0.0
C2960 C 0.88317 0.27916 0.69624 0.0
C2961 C 0.90281 0.27772 0.68993 0.0
C2962 C 0.81855 0.27166 0.69878 0.0
C2963 C 0.81066 0.26247 0.7157 0.0
C2964 C 0.83895 0.27213 0.69556 0.0
C2965 C 0.852 0.26342 0.70917 0.0
C2966 C 0.84417 0.25449 0.72626 0.0
C2967 C 0.82373 0.25404 0.72951 0.0
H2968 H 0.53877 0.15634 0.44299 0.0
H2969 H 0.48699 0.14238 0.40832 0.0
H2970 H 0.53968 0.12211 0.45509 0.0
H2971 H 0.48747 0.10867 0.42073 0.0
H2972 H 0.48994 0.04843 0.43869 0.0
H2973 H 0.50404 0.07707 0.42152 0.0
H2974 H 0.51871 0.10355 0.47788 0.0
H2975 H 0.50524 0.07458 0.49477 0.0
C2976 C 0.52771 0.14592 0.43783 0.0
C2977 C 0.51259 0.1521 0.42498 0.0
C2978 C 0.52822 0.12636 0.44477 0.0
C2979 C 0.51372 0.11261 0.43883 0.0
C2980 C 0.49911 0.1187 0.42536 0.0
C2981 C 0.49857 0.13817 0.41853 0.0
C2982 C 0.49715 0.05994 0.44725 0.0
C2983 C 0.4966 0.05949 0.46792 0.0
C2984 C 0.50499 0.07644 0.4375 0.0
C2985 C 0.51194 0.09285 0.44837 0.0
C2986 C 0.51349 0.09122 0.46904 0.0
C2987 C 0.50579 0.07463 0.47875 0.0
H2988 H 0.6061 0.77705 0.17583 0.0
H2989 H 0.60925 0.71701 0.15326 0.0
H2990 H 0.63919 0.7735 0.18952 0.0
H2991 H 0.64186 0.71326 0.16828 0.0
H2992 H 0.67262 0.71906 0.2358 0.0
H2993 H 0.64647 0.71856 0.21086 0.0
H2994 H 0.67871 0.76155 0.17619 0.0
H2995 H 0.70535 0.76151 0.20083 0.0
C2996 C 0.61391 0.76326 0.17338 0.0
C2997 C 0.60479 0.74723 0.16366 0.0
C2998 C 0.63286 0.76127 0.18124 0.0
C2999 C 0.6429 0.74315 0.17981 0.0
C3000 C 0.6343 0.72737 0.16945 0.0
C3001 C 0.61552 0.72949 0.16117 0.0
C3002 C 0.6744 0.72787 0.22252 0.0
C3003 C 0.69083 0.74038 0.22017 0.0
C3004 C 0.65955 0.72752 0.20827 0.0
C3005 C 0.66072 0.74004 0.19178 0.0
C3006 C 0.67767 0.75171 0.18881 0.0
C3007 C 0.69284 0.75164 0.20282 0.0
H3008 H 0.03438 0.13618 0.60532 0.0
H3009 H 0.97576 0.13981 0.58003 0.0
H3010 H 0.03812 0.10289 0.59158 0.0
H3011 H 0.97929 0.10631 0.56716 0.0
H3012 H 0.98685 0.04368 0.55025 0.0
H3013 H 0.98545 0.06911 0.57609 0.0
H3014 H 0.03976 0.0946 0.55385 0.0
H3015 H 0.04101 0.06928 0.52803 0.0
C3016 C 0.0222 0.12984 0.59706 0.0
C3017 C 0.0049 0.14087 0.59344 0.0
C3018 C 0.0243 0.1107 0.58943 0.0
C3019 C 0.00899 0.10209 0.57839 0.0
C3020 C 0.9912 0.11252 0.57592 0.0
C3021 C 0.9892 0.13175 0.58327 0.0
C3022 C -0.00104 0.05413 0.55157 0.0
C3023 C 0.01411 0.05455 0.53737 0.0
C3024 C -0.00195 0.06878 0.56616 0.0
C3025 C 0.01244 0.08383 0.56683 0.0
C3026 C 0.02859 0.08306 0.55376 0.0
C3027 C 0.02929 0.06864 0.53898 0.0
H3028 H 0.59665 0.24648 0.29126 0.0
H3029 H 0.6188 0.2287 0.34842 0.0
H3030 H 0.63028 0.24627 0.27815 0.0
H3031 H 0.65239 0.22804 0.33517 0.0
H3032 H 0.70105 0.27391 0.31201 0.0
H3033 H 0.67167 0.25815 0.32579 0.0
H3034 H 0.66178 0.22786 0.27032 0.0
H3035 H 0.69148 0.24376 0.25661 0.0
C3036 C 0.60866 0.24216 0.3009 0.0
C3037 C 0.60514 0.23799 0.32094 0.0
C3038 C 0.62789 0.24173 0.29333 0.0
C3039 C 0.64396 0.23723 0.30569 0.0
C3040 C 0.64027 0.23165 0.32536 0.0
C3041 C 0.62103 0.23199 0.33291 0.0
C3042 C 0.69305 0.2632 0.30311 0.0
C3043 C 0.69843 0.25985 0.28339 0.0
C3044 C 0.67626 0.25413 0.31097 0.0
C3045 C 0.66434 0.2419 0.29906 0.0
C3046 C 0.67067 0.2373 0.27977 0.0
C3047 C 0.68771 0.2462 0.272 0.0
H3048 H 0.4622 0.8446 0.07124 0.0
H3049 H 0.51499 0.8328 0.03727 0.0
H3050 H 0.46069 0.87774 0.05768 0.0
H3051 H 0.51308 0.86593 0.02272 0.0
H3052 H 0.51874 0.93468 0.02588 0.0
H3053 H 0.51892 0.89889 0.03159 0.0
H3054 H 0.45486 0.89873 0.03169 0.0
H3055 H 0.45498 0.9346 0.02764 0.0
C3056 C 0.47315 0.84894 0.06034 0.0
C3057 C 0.48871 0.83617 0.05533 0.0
C3058 C 0.47228 0.86799 0.05244 0.0
C3059 C 0.48679 0.8747 0.03903 0.0
C3060 C 0.50186 0.86148 0.03326 0.0
C3061 C 0.5029 0.84246 0.04147 0.0
C3062 C 0.50478 0.92681 0.02695 0.0
C3063 C 0.48686 0.93723 0.02672 0.0
C3064 C 0.50481 0.90629 0.03006 0.0
C3065 C 0.48688 0.89583 0.03252 0.0
C3066 C 0.46897 0.90628 0.03061 0.0
C3067 C 0.46898 0.9268 0.02812 0.0
H3068 H 0.89844 0.77297 0.82454 0.0
H3069 H 0.9195 0.72536 0.78711 0.0
H3070 H 0.86619 0.77094 0.80893 0.0
H3071 H 0.88671 0.72284 0.77215 0.0
H3072 H 0.81847 0.7074 0.78152 0.0
H3073 H 0.85363 0.71207 0.78812 0.0
H3074 H 0.848 0.77454 0.77537 0.0
H3075 H 0.81268 0.76981 0.76856 0.0
C3076 C 0.89641 0.76234 0.81272 0.0
C3077 C 0.91168 0.74926 0.80721 0.0
C3078 C 0.87784 0.76118 0.80379 0.0
C3079 C 0.87398 0.74674 0.78936 0.0
C3080 C 0.88931 0.73404 0.78335 0.0
C3081 C 0.90802 0.73539 0.79206 0.0
C3082 C 0.82481 0.72207 0.77978 0.0
C3083 C 0.81285 0.73829 0.77462 0.0
C3084 C 0.84495 0.7247 0.78341 0.0
C3085 C 0.85349 0.74366 0.78229 0.0
C3086 C 0.84173 0.75978 0.77637 0.0
C3087 C 0.82159 0.75707 0.77237 0.0
H3088 H 0.90681 0.00321 0.85589 0.0
H3089 H 0.96565 -0.00096 0.83141 0.0
H3090 H 0.92029 0.00228 0.88905 0.0
H3091 H 0.97939 -0.00272 0.86491 0.0
H3092 H -0.00387 0.01612 0.92938 0.0
H3093 H 0.98557 0.01522 0.89473 0.0
H3094 H 0.9344 0.98046 0.91159 0.0
H3095 H 0.94438 0.9825 0.94602 0.0
C3096 C 0.92268 0.00184 0.85767 0.0
C3097 C 0.93517 0.00101 0.84111 0.0
C3098 C 0.93045 0.00115 0.87671 0.0
C3099 C 0.95096 -0.00069 0.87978 0.0
C3100 C 0.96354 -0.00121 0.86315 0.0
C3101 C 0.95571 -0.00025 0.84398 0.0
C3102 C 0.98274 0.00818 0.92552 0.0
C3103 C 0.97084 -0.00029 0.94031 0.0
C3104 C 0.9767 0.00758 0.90569 0.0
C3105 C 0.95884 -0.00183 0.90034 0.0
C3106 C 0.94781 0.9885 0.91516 0.0
C3107 C 0.95359 0.9895 0.9349 0.0
H3108 H 0.76045 0.13949 0.61627 0.0
H3109 H 0.71762 0.18337 0.59864 0.0
H3110 H 0.75473 0.14789 0.65101 0.0
H3111 H 0.71252 0.19254 0.63289 0.0
H3112 H 0.70218 0.2096 0.69184 0.0
H3113 H 0.70077 0.18612 0.66442 0.0
H3114 H 0.76313 0.17388 0.67212 0.0
H3115 H 0.7639 0.19618 0.7003 0.0
C3116 C 0.74983 0.15095 0.61991 0.0
C3117 C 0.73959 0.16095 0.6049 0.0
C3118 C 0.74651 0.15575 0.63976 0.0
C3119 C 0.73313 0.1709 0.64491 0.0
C3120 C 0.72254 0.18044 0.62973 0.0
C3121 C 0.72562 0.1754 0.61 0.0
C3122 C 0.71524 0.20101 0.68822 0.0
C3123 C 0.73316 0.20465 0.69794 0.0
C3124 C 0.71458 0.18782 0.67234 0.0
C3125 C 0.73204 0.17876 0.66545 0.0
C3126 C 0.74937 0.18059 0.67685 0.0
C3127 C 0.74986 0.19336 0.6931 0.0
H3128 H 0.55885 0.02441 0.34305 0.0
H3129 H 0.54584 0.96262 0.33179 0.0
H3130 H 0.54302 0.02187 0.37525 0.0
H3131 H 0.53027 0.96005 0.36431 0.0
H3132 H 0.54285 0.95994 0.43282 0.0
H3133 H 0.54728 0.96148 0.39719 0.0
H3134 H 0.51207 0.01485 0.39504 0.0
H3135 H 0.50758 0.01332 0.43094 0.0
C3136 C 0.55212 0.01042 0.34718 0.0
C3137 C 0.55388 0.99363 0.33496 0.0
C3138 C 0.54302 0.00899 0.36566 0.0
C3139 C 0.53561 0.99072 0.37234 0.0
C3140 C 0.53613 0.97425 0.3596 0.0
C3141 C 0.54512 0.97571 0.34106 0.0
C3142 C 0.53581 0.97186 0.42474 0.0
C3143 C 0.52508 0.98665 0.43469 0.0
C3144 C 0.53817 0.97262 0.4043 0.0
C3145 C 0.53003 0.9883 0.39336 0.0
C3146 C 0.51856 0.00265 0.40316 0.0
C3147 C 0.51597 0.00174 0.42366 0.0
H3148 H 0.76059 0.84059 0.11322 0.0
H3149 H 0.70935 0.80467 0.09988 0.0
H3150 H 0.76149 0.82707 0.14636 0.0
H3151 H 0.70971 0.79156 0.13362 0.0
H3152 H 0.74583 0.75042 0.1776 0.0
H3153 H 0.73142 0.76859 0.15008 0.0
H3154 H 0.7471 0.82394 0.17846 0.0
H3155 H 0.76228 0.80543 0.20556 0.0
C3156 C 0.74939 0.8299 0.11746 0.0
C3157 C 0.7352 0.82334 0.10379 0.0
C3158 C 0.74964 0.82242 0.13664 0.0
C3159 C 0.73564 0.80821 0.14273 0.0
C3160 C 0.72079 0.80238 0.12936 0.0
C3161 C 0.72054 0.80991 0.11007 0.0
C3162 C 0.74539 0.76648 0.17826 0.0
C3163 C 0.75499 0.77665 0.19356 0.0
C3164 C 0.73711 0.77694 0.16253 0.0
C3165 C 0.7385 0.79775 0.16184 0.0
C3166 C 0.74617 0.8079 0.17836 0.0
C3167 C 0.75459 0.79739 0.19402 0.0
H3168 H 0.90645 0.02452 0.63285 0.0
H3169 H 0.96063 -0.00165 0.65413 0.0
H3170 H 0.91986 0.02478 0.59917 0.0
H3171 H 0.97404 -0.00131 0.62058 0.0
H3172 H -0.00217 0.00577 0.56086 0.0
H3173 H 0.984 0.02069 0.59092 0.0
H3174 H 0.9274 0.99389 0.57792 0.0
H3175 H 0.94138 0.97885 0.54815 0.0
C3176 C 0.92139 0.01925 0.63037 0.0
C3177 C 0.93247 0.01121 0.64599 0.0
C3178 C 0.92902 0.01941 0.61115 0.0
C3179 C 0.94798 0.01185 0.60732 0.0
C3180 C 0.95948 0.00488 0.62316 0.0
C3181 C 0.95174 0.00444 0.64229 0.0
C3182 C 0.98222 0.00391 0.56403 0.0
C3183 C 0.97054 0.99136 0.55233 0.0
C3184 C 0.97437 0.01226 0.58126 0.0
C3185 C 0.95472 0.00823 0.58681 0.0
C3186 C 0.94254 -0.00264 0.57391 0.0
C3187 C 0.95049 0.98877 0.55689 0.0
H3188 H 0.79674 0.17655 0.40143 0.0
H3189 H 0.74373 0.21127 0.41035 0.0
H3190 H 0.79865 0.18805 0.36752 0.0
H3191 H 0.74493 0.22172 0.37592 0.0
H3192 H 0.75885 0.24645 0.31496 0.0
H3193 H 0.76142 0.24032 0.35042 0.0
H3194 H 0.78039 0.18028 0.33849 0.0
H3195 H 0.77845 0.18654 0.30327 0.0
C3196 C 0.78565 0.18689 0.39631 0.0
C3197 C 0.76996 0.19281 0.40865 0.0
C3198 C 0.78657 0.19324 0.3767 0.0
C3199 C 0.77173 0.20549 0.36886 0.0
C3200 C 0.75664 0.21231 0.38147 0.0
C3201 C 0.75581 0.2061 0.40116 0.0
C3202 C 0.76369 0.23198 0.31993 0.0
C3203 C 0.76846 0.21699 0.30626 0.0
C3204 C 0.76509 0.22845 0.34026 0.0
C3205 C 0.77121 0.20984 0.34733 0.0
C3206 C 0.77605 0.19493 0.33361 0.0
C3207 C 0.77478 0.19848 0.31335 0.0
H3208 H 0.55454 0.02142 0.15777 0.0
H3209 H 0.61253 0.01427 0.13181 0.0
H3210 H 0.54072 0.02762 0.12523 0.0
H3211 H 0.59865 0.0208 0.09896 0.0
H3212 H 0.55235 -0.00228 0.04923 0.0
H3213 H 0.57494 0.00146 0.07718 0.0
H3214 H 0.5412 0.05183 0.09771 0.0
H3215 H 0.51851 0.04777 0.07 0.0
C3216 C 0.56433 0.0213 0.14507 0.0
C3217 C 0.58452 0.01718 0.14723 0.0
C3218 C 0.5565 0.02515 0.12646 0.0
C3219 C 0.56868 0.02491 0.10958 0.0
C3220 C 0.58898 0.02114 0.11175 0.0
C3221 C 0.59688 0.01745 0.13048 0.0
C3222 C 0.55044 0.01018 0.05916 0.0
C3223 C 0.53374 0.02239 0.05767 0.0
C3224 C 0.56328 0.01228 0.07522 0.0
C3225 C 0.55948 0.02664 0.08984 0.0
C3226 C 0.54419 0.04038 0.08686 0.0
C3227 C 0.5313 0.03816 0.07098 0.0
H3228 H 0.73708 0.79859 0.91672 0.0
H3229 H 0.72198 0.8541 0.88884 0.0
H3230 H 0.73379 0.7816 0.88521 0.0
H3231 H 0.71833 0.83689 0.85701 0.0
H3232 H 0.74398 0.79851 0.80283 0.0
H3233 H 0.74032 0.81933 0.83237 0.0
H3234 H 0.70838 0.77204 0.8614 0.0
H3235 H 0.71243 0.75124 0.83228 0.0
C3236 C 0.73299 0.80715 0.90382 0.0
C3237 C 0.72991 0.82769 0.90524 0.0
C3238 C 0.73087 0.79738 0.88578 0.0
C3239 C 0.72565 0.80786 0.8686 0.0
C3240 C 0.72239 0.82842 0.86997 0.0
C3241 C 0.72436 0.83823 0.88818 0.0
C3242 C 0.73574 0.79281 0.81535 0.0
C3243 C 0.7288 0.77314 0.8154 0.0
C3244 C 0.73364 0.80472 0.83226 0.0
C3245 C 0.72447 0.79714 0.84939 0.0
C3246 C 0.71599 0.77812 0.84865 0.0
C3247 C 0.71822 0.76623 0.83192 0.0
H3248 H 0.85237 0.92981 0.98307 0.0
H3249 H 0.85253 0.90953 0.04371 0.0
H3250 H 0.88648 0.94082 0.98662 0.0
H3251 H 0.88655 0.92119 0.04734 0.0
H3252 H 0.93142 0.97581 0.0485 0.0
H3253 H 0.90153 0.95557 0.04738 0.0
H3254 H 0.92158 0.92881 0.9929 0.0
H3255 H 0.95166 0.94902 0.99407 0.0
C3256 C 0.85972 0.9274 -0.00293 0.0
C3257 C 0.84954 0.91889 0.01314 0.0
C3258 C 0.87932 0.9337 -0.00092 0.0
C3259 C 0.88921 0.93181 0.01724 0.0
C3260 C 0.87925 0.92294 0.0332 0.0
C3261 C 0.85969 0.91644 0.03114 0.0
C3262 C 0.92973 0.96519 0.03659 0.0
C3263 C 0.94376 0.96418 0.02126 0.0
C3264 C 0.91262 0.95356 0.03597 0.0
C3265 C 0.90908 0.94085 0.01988 0.0
C3266 C 0.92382 0.9387 0.00533 0.0
C3267 C 0.94111 0.95015 0.0061 0.0
H3268 H 0.34532 0.56504 0.9549 0.0
H3269 H 0.34401 0.54473 0.01546 0.0
H3270 H 0.37883 0.55225 0.95126 0.0
H3271 H 0.37781 0.53263 0.01205 0.0
H3272 H 0.43603 0.50328 -0.0033 0.0
H3273 H 0.40041 0.50916 -0.00388 0.0
H3274 H 0.41014 0.56405 0.96463 0.0
H3275 H 0.44554 0.55808 0.96483 0.0
C3276 C 0.35203 0.55749 0.96731 0.0
C3277 C 0.3421 0.55607 0.98553 0.0
C3278 C 0.37131 0.55037 0.9653 0.0
C3279 C 0.38106 0.5417 0.98145 0.0
C3280 C 0.37069 0.53917 -0.0007 0.0
C3281 C 0.35141 0.54628 0.00132 0.0
C3282 C 0.43055 0.51651 0.98947 0.0
C3283 C 0.44367 0.53026 0.98087 0.0
C3284 C 0.41015 0.51988 0.98921 0.0
C3285 C 0.40246 0.53703 0.9803 0.0
C3286 C 0.41555 0.55052 0.97132 0.0
C3287 C 0.4359 0.54717 0.97159 0.0
H3288 H 0.14446 0.61816 0.74819 0.0
H3289 H 0.20442 0.59828 0.73806 0.0
H3290 H 0.15443 0.65215 0.73985 0.0
H3291 H 0.2141 0.63179 0.72935 0.0
H3292 H 0.22896 0.68591 0.70312 0.0
H3293 H 0.20724 0.65699 0.70249 0.0
H3294 H 0.17848 0.67753 0.75578 0.0
H3295 H 0.19998 0.70667 0.7561 0.0
C3296 C 0.15974 0.62106 0.74427 0.0
C3297 C 0.17368 0.60557 0.7437 0.0
C3298 C 0.16533 0.64041 0.73929 0.0
C3299 C 0.18485 0.64443 0.73346 0.0
C3300 C 0.19876 0.62897 0.73313 0.0
C3301 C 0.19326 0.6098 0.73825 0.0
C3302 C 0.21728 0.68472 0.71407 0.0
C3303 C 0.21618 0.69822 0.72979 0.0
C3304 C 0.20496 0.66818 0.71378 0.0
C3305 C 0.19169 0.66482 0.72944 0.0
C3306 C 0.18865 0.67978 0.74358 0.0
C3307 C 0.20088 0.6965 0.74372 0.0
H3308 H 0.13473 0.40846 0.53785 0.0
H3309 H 0.15926 0.46348 0.51613 0.0
H3310 H 0.10175 0.42333 0.53836 0.0
H3311 H 0.1264 0.4782 0.5163 0.0
H3312 H 0.06886 0.50487 0.52012 0.0
H3313 H 0.09746 0.48916 0.53567 0.0
H3314 H 0.08015 0.43289 0.51034 0.0
H3315 H 0.05149 0.44868 0.49515 0.0
C3316 C 0.13314 0.42386 0.53361 0.0
C3317 C 0.14953 0.43478 0.52677 0.0
C3318 C 0.11425 0.43232 0.53382 0.0
C3319 C 0.11145 0.45192 0.52738 0.0
C3320 C 0.12806 0.46315 0.52163 0.0
C3321 C 0.14687 0.45466 0.52128 0.0
C3322 C 0.07067 0.48895 0.51884 0.0
C3323 C 0.05806 0.47787 0.50664 0.0
C3324 C 0.08714 0.48 0.52749 0.0
C3325 C 0.09129 0.45989 0.52386 0.0
C3326 C 0.07734 0.44839 0.51349 0.0
C3327 C 0.06088 0.45737 0.50484 0.0
H3328 H 0.84307 0.88738 0.73725 0.0
H3329 H 0.80868 0.90952 0.78638 0.0
H3330 H 0.82675 0.85532 0.74014 0.0
H3331 H 0.79247 0.87716 0.78953 0.0
H3332 H 0.74803 0.83291 0.75629 0.0
H3333 H 0.76819 0.86073 0.7675 0.0
H3334 H 0.82085 0.82521 0.76008 0.0
H3335 H 0.80043 0.79745 0.74863 0.0
C3336 C 0.83216 0.8853 0.74882 0.0
C3337 C 0.82692 0.90106 0.76137 0.0
C3338 C 0.82302 0.86682 0.7507 0.0
C3339 C 0.80833 0.86366 0.76512 0.0
C3340 C 0.8037 0.87916 0.77826 0.0
C3341 C 0.813 0.89766 0.77648 0.0
C3342 C 0.76382 0.8308 0.75805 0.0
C3343 C 0.77274 0.81309 0.75187 0.0
C3344 C 0.77541 0.84673 0.76443 0.0
C3345 C 0.79616 0.84528 0.76437 0.0
C3346 C 0.80491 0.82683 0.76007 0.0
C3347 C 0.79325 0.81084 0.75382 0.0
H3348 H 0.65866 0.05509 0.4958 0.0
H3349 H 0.6356 0.11444 0.48939 0.0
H3350 H 0.62565 0.04281 0.50297 0.0
H3351 H 0.60205 0.10193 0.49646 0.0
H3352 H 0.5473 0.05433 0.48519 0.0
H3353 H 0.57616 0.07612 0.48156 0.0
H3354 H 0.60286 0.04873 0.53264 0.0
H3355 H 0.57443 0.02669 0.53586 0.0
C3356 C 0.64645 0.06548 0.49582 0.0
C3357 C 0.64967 0.08572 0.49234 0.0
C3358 C 0.62759 0.0585 0.50007 0.0
C3359 C 0.61146 0.07158 0.50088 0.0
C3360 C 0.61435 0.09166 0.49618 0.0
C3361 C 0.63343 0.09874 0.49199 0.0
C3362 C 0.55897 0.05364 0.49613 0.0
C3363 C 0.55897 0.03869 0.51058 0.0
C3364 C 0.57547 0.06605 0.49401 0.0
C3365 C 0.59189 0.06361 0.50647 0.0
C3366 C 0.59054 0.05052 0.52257 0.0
C3367 C 0.57427 0.03802 0.5245 0.0
H3368 H 0.21488 0.41533 0.76788 0.0
H3369 H 0.16189 0.39517 0.73831 0.0
H3370 H 0.2253 0.38073 0.77218 0.0
H3371 H 0.17242 0.36099 0.7422 0.0
H3372 H 0.2436 0.31572 0.75358 0.0
H3373 H 0.23547 0.35091 0.75102 0.0
H3374 H 0.17608 0.33849 0.77122 0.0
H3375 H 0.184 0.30342 0.77365 0.0
C3376 C 0.20556 0.40354 0.76222 0.0
C3377 C 0.18763 0.40791 0.7527 0.0
C3378 C 0.21155 0.38383 0.76458 0.0
C3379 C 0.19955 0.36826 0.75767 0.0
C3380 C 0.18182 0.37271 0.74791 0.0
C3381 C 0.17592 0.39229 0.74546 0.0
C3382 C 0.22885 0.32052 0.75764 0.0
C3383 C 0.21438 0.30673 0.76365 0.0
C3384 C 0.22426 0.34066 0.75624 0.0
C3385 C 0.20512 0.34732 0.76075 0.0
C3386 C 0.19088 0.33366 0.76736 0.0
C3387 C 0.19545 0.31359 0.7688 0.0
H3388 H 0.31359 0.5939 0.2065 0.0
H3389 H 0.34219 0.6125 0.26049 0.0
H3390 H 0.2972 0.62612 0.20424 0.0
H3391 H 0.32554 0.64441 0.2585 0.0
H3392 H 0.29677 0.70137 0.25338 0.0
H3393 H 0.31983 0.67626 0.24081 0.0
H3394 H 0.2703 0.63858 0.22566 0.0
H3395 H 0.24761 0.6636 0.23815 0.0
C3396 C 0.31664 0.605 0.21768 0.0
C3397 C 0.32887 0.60058 0.23388 0.0
C3398 C 0.30727 0.62342 0.21639 0.0
C3399 C 0.31005 0.6378 0.23119 0.0
C3400 C 0.32326 0.63378 0.24671 0.0
C3401 C 0.33253 0.61536 0.24806 0.0
C3402 C 0.29094 0.68814 0.24639 0.0
C3403 C 0.27057 0.68426 0.24665 0.0
C3404 C 0.30407 0.67369 0.23942 0.0
C3405 C 0.29688 0.65531 0.23257 0.0
C3406 C 0.27635 0.65258 0.23074 0.0
C3407 C 0.26331 0.66687 0.23791 0.0
H3408 H 0.52292 0.643 0.59952 0.0
H3409 H 0.52023 0.66499 0.53958 0.0
H3410 H 0.52381 0.60915 0.58713 0.0
H3411 H 0.51996 0.63111 0.52727 0.0
H3412 H 0.48339 0.5606 0.55732 0.0
H3413 H 0.49782 0.58949 0.57331 0.0
H3414 H 0.53516 0.59915 0.52221 0.0
H3415 H 0.52012 0.57028 0.50613 0.0
C3416 C 0.52291 0.64069 0.58367 0.0
C3417 C 0.52119 0.65681 0.57056 0.0
C3418 C 0.52324 0.62121 0.57658 0.0
C3419 C 0.52171 0.61732 0.55622 0.0
C3420 C 0.52132 0.63347 0.54305 0.0
C3421 C 0.52111 0.65296 0.55013 0.0
C3422 C 0.49539 0.56836 0.54998 0.0
C3423 C 0.50087 0.5632 0.53068 0.0
C3424 C 0.50367 0.58498 0.55909 0.0
C3425 C 0.51744 0.59691 0.54891 0.0
C3426 C 0.52437 0.59048 0.53033 0.0
C3427 C 0.51605 0.57376 0.52124 0.0
H3428 H 0.58542 0.2282 0.78485 0.0
H3429 H 0.60565 0.25348 0.83994 0.0
H3430 H 0.61994 0.2248 0.77384 0.0
H3431 H 0.6398 0.25022 0.82898 0.0
H3432 H 0.69712 0.2193 0.81411 0.0
H3433 H 0.66213 0.22093 0.82225 0.0
H3434 H 0.65002 0.24763 0.76559 0.0
H3435 H 0.68526 0.24606 0.75726 0.0
C3436 C 0.59722 0.23307 0.79453 0.0
C3437 C 0.59288 0.24118 0.81319 0.0
C3438 C 0.6169 0.23123 0.78821 0.0
C3439 C 0.6325 0.23714 0.80063 0.0
C3440 C 0.62808 0.24535 0.81919 0.0
C3441 C 0.60852 0.2474 0.82538 0.0
C3442 C 0.68707 0.2254 0.80326 0.0
C3443 C 0.69407 0.23271 0.78508 0.0
C3444 C 0.66701 0.22638 0.80799 0.0
C3445 C 0.65343 0.23458 0.79463 0.0
C3446 C 0.6602 0.24118 0.77612 0.0
C3447 C 0.68037 0.24033 0.77141 0.0
H3448 H 0.9709 0.36364 0.09027 0.0
H3449 H 0.99069 0.34056 0.03399 0.0
H3450 H 0.97025 0.39699 0.07647 0.0
H3451 H 0.99077 0.37401 0.02045 0.0
H3452 H 0.98929 0.43458 -0.00244 0.0
H3453 H 0.97326 0.40483 0.01104 0.0
H3454 H -0.00094 0.41742 0.06814 0.0
H3455 H 0.01484 0.44691 0.05459 0.0
C3456 C 0.97467 0.36558 0.07482 0.0
C3457 C 0.98116 0.34945 0.06331 0.0
C3458 C 0.97439 0.38473 0.06696 0.0
C3459 C 0.98063 0.38819 0.04744 0.0
C3460 C 0.98571 0.37187 0.0355 0.0
C3461 C 0.98598 0.35271 0.04336 0.0
C3462 C 0.99066 0.43138 0.0132 0.0
C3463 C 0.00307 0.44294 0.02518 0.0
C3464 C 0.98171 0.41429 0.02086 0.0
C3465 C 0.98511 0.40863 0.04059 0.0
C3466 C -0.00403 0.42141 0.05295 0.0
C3467 C 0.00502 0.43833 0.04524 0.0
H3468 H 0.9002 0.72684 0.31909 0.0
H3469 H 0.8903 0.77792 0.35669 0.0
H3470 H 0.86724 0.7308 0.30529 0.0
H3471 H 0.85771 0.78243 0.34166 0.0
H3472 H 0.8302 0.78375 0.26814 0.0
H3473 H 0.8566 0.78297 0.29288 0.0
H3474 H 0.82421 0.73897 0.32608 0.0
H3475 H 0.79749 0.74009 0.30158 0.0
C3476 C 0.89095 0.73864 0.32477 0.0
C3477 C 0.89809 0.75217 0.3389 0.0
C3478 C 0.8721 0.7409 0.31678 0.0
C3479 C 0.86017 0.75684 0.32257 0.0
C3480 C 0.86678 0.76999 0.33715 0.0
C3481 C 0.88552 0.76751 0.34547 0.0
C3482 C 0.82843 0.77448 0.2811 0.0
C3483 C 0.81192 0.762 0.28307 0.0
C3484 C 0.84341 0.7741 0.29522 0.0
C3485 C 0.8422 0.76098 0.31123 0.0
C3486 C 0.82518 0.74937 0.31391 0.0
C3487 C 0.80996 0.75007 0.29998 0.0
H3488 H 0.52728 0.36405 0.90778 0.0
H3489 H 0.46592 0.36172 0.89007 0.0
H3490 H 0.52258 0.39781 0.91968 0.0
H3491 H 0.46117 0.39545 0.90232 0.0
H3492 H 0.46059 0.42751 0.9656 0.0
H3493 H 0.46181 0.40365 0.93866 0.0
H3494 H 0.51265 0.43392 0.91418 0.0
H3495 H 0.51123 0.45807 0.94126 0.0
C3496 C 0.51295 0.37095 0.90586 0.0
C3497 C 0.49685 0.36005 0.89847 0.0
C3498 C 0.51027 0.39035 0.91259 0.0
C3499 C 0.49144 0.39915 0.9121 0.0
C3500 C 0.47578 0.38891 0.90306 0.0
C3501 C 0.47848 0.36956 0.89624 0.0
C3502 C 0.47155 0.42949 0.95405 0.0
C3503 C 0.48594 0.44441 0.95555 0.0
C3504 C 0.4722 0.41591 0.93854 0.0
C3505 C 0.48748 0.41682 0.92445 0.0
C3506 C 0.5008 0.43286 0.92493 0.0
C3507 C 0.49991 0.44671 0.94033 0.0
H3508 H 0.90358 0.28298 0.1953 0.0
H3509 H 0.88251 0.24402 0.1491 0.0
H3510 H 0.87013 0.28512 0.20871 0.0
H3511 H 0.84956 0.24512 0.16311 0.0
H3512 H 0.79127 0.24637 0.18725 0.0
H3513 H 0.81983 0.26173 0.17106 0.0
H3514 H 0.85082 0.26223 0.22698 0.0
H3515 H 0.82199 0.24775 0.24298 0.0
C3516 C 0.89179 0.27505 0.18786 0.0
C3517 C 0.89582 0.26297 0.17137 0.0
C3518 C 0.87263 0.2762 0.19562 0.0
C3519 C 0.85711 0.26518 0.18714 0.0
C3520 C 0.86099 0.25403 0.16997 0.0
C3521 C 0.88006 0.25303 0.16215 0.0
C3522 C 0.80389 0.25073 0.19612 0.0
C3523 C 0.80467 0.24595 0.21623 0.0
C3524 C 0.82033 0.25928 0.18687 0.0
C3525 C 0.83788 0.26266 0.19758 0.0
C3526 C 0.83764 0.25989 0.21821 0.0
C3527 C 0.82114 0.25155 0.22744 0.0
H3528 H 0.0386 0.65743 0.44222 0.0
H3529 H 0.97696 0.66592 0.4565 0.0
H3530 H 0.03822 0.62571 0.45905 0.0
H3531 H 0.97661 0.63437 0.47429 0.0
H3532 H 0.97801 0.56505 0.47372 0.0
H3533 H 0.9766 0.60047 0.46645 0.0
H3534 H 0.03658 0.60721 0.4878 0.0
H3535 H 0.03819 0.5716 0.49368 0.0
C3536 C 0.0251 0.65272 0.44951 0.0
C3537 C 0.0078 0.66403 0.44797 0.0
C3538 C 0.02485 0.63453 0.45931 0.0
C3539 C 0.00734 0.62732 0.46809 0.0
C3540 C 0.99026 0.63922 0.46742 0.0
C3541 C 0.99046 0.65733 0.45733 0.0
C3542 C 0.99064 0.5743 0.47728 0.0
C3543 C 0.00825 0.56577 0.48407 0.0
C3544 C 0.98988 0.59462 0.47318 0.0
C3545 C 0.00666 0.60675 0.47612 0.0
C3546 C 0.02361 0.59829 0.48471 0.0
C3547 C 0.02451 0.57795 0.48831 0.0
H3548 H 0.57713 0.76425 0.71942 0.0
H3549 H 0.59895 0.72833 0.67114 0.0
H3550 H 0.61068 0.76568 0.73331 0.0
H3551 H 0.63218 0.72984 0.68505 0.0
H3552 H 0.68413 0.77624 0.69661 0.0
H3553 H 0.64969 0.76936 0.6893 0.0
H3554 H 0.64413 0.73615 0.74347 0.0
H3555 H 0.67925 0.74266 0.75091 0.0
C3556 C 0.58896 0.75633 0.71203 0.0
C3557 C 0.58542 0.74626 0.69414 0.0
C3558 C 0.60804 0.75701 0.72008 0.0
C3559 C 0.62382 0.7478 0.71022 0.0
C3560 C 0.62012 0.73688 0.69296 0.0
C3561 C 0.6011 0.73601 0.68505 0.0
C3562 C 0.6757 0.76756 0.70714 0.0
C3563 C 0.68452 0.76 0.72439 0.0
C3564 C 0.65597 0.76359 0.70286 0.0
C3565 C 0.64445 0.75219 0.71578 0.0
C3566 C 0.65287 0.74499 0.73332 0.0
C3567 C 0.67288 0.74872 0.73753 0.0
H3568 H 0.54462 0.46475 0.66973 0.0
H3569 H 0.56492 0.52377 0.65545 0.0
H3570 H 0.52672 0.46325 0.63846 0.0
H3571 H 0.54745 0.52215 0.62395 0.0
H3572 H 0.50927 0.51651 0.56957 0.0
H3573 H 0.51675 0.51976 0.60491 0.0
H3574 H 0.53882 0.45963 0.60538 0.0
H3575 H 0.53109 0.45632 0.57063 0.0
C3576 C 0.5451 0.47746 0.65995 0.0
C3577 C 0.55637 0.49426 0.66488 0.0
C3578 C 0.53487 0.47662 0.64205 0.0
C3579 C 0.53588 0.49246 0.62855 0.0
C3580 C 0.54618 0.50975 0.63405 0.0
C3581 C 0.55628 0.51066 0.65206 0.0
C3582 C 0.51529 0.50389 0.5774 0.0
C3583 C 0.51976 0.48622 0.56728 0.0
C3584 C 0.51971 0.50579 0.59758 0.0
C3585 C 0.52846 0.48998 0.60799 0.0
C3586 C 0.53186 0.47203 0.59799 0.0
C3587 C 0.52759 0.47019 0.57794 0.0
H3588 H 0.74533 0.36405 0.87789 0.0
H3589 H 0.76069 0.30556 0.89891 0.0
H3590 H 0.7531 0.35358 0.84384 0.0
H3591 H 0.76882 0.29549 0.86548 0.0
H3592 H 0.79894 0.283 0.81316 0.0
H3593 H 0.79623 0.30642 0.8405 0.0
H3594 H 0.73905 0.32502 0.81915 0.0
H3595 H 0.74203 0.30188 0.79141 0.0
C3596 C 0.75022 0.34899 0.87523 0.0
C3597 C 0.75269 0.33567 0.89106 0.0
C3598 C 0.75483 0.34312 0.85586 0.0
C3599 C 0.76216 0.32399 0.85223 0.0
C3600 C 0.76388 0.31057 0.86799 0.0
C3601 C 0.75913 0.3163 0.88712 0.0
C3602 C 0.78631 0.29287 0.81373 0.0
C3603 C 0.77053 0.29046 0.80052 0.0
C3604 C 0.78471 0.30619 0.82937 0.0
C3605 C 0.76716 0.31697 0.83216 0.0
C3606 C 0.75267 0.31677 0.81732 0.0
C3607 C 0.75441 0.30356 0.80143 0.0
H3608 H 0.92927 0.54249 0.15224 0.0
H3609 H 0.95983 0.4869 0.16132 0.0
H3610 H 0.94137 0.54363 0.11862 0.0
H3611 H 0.97076 0.48742 0.12693 0.0
H3612 H -0.0037 0.50206 0.06505 0.0
H3613 H 0.99051 0.50333 0.10079 0.0
H3614 H 0.93121 0.52472 0.09034 0.0
H3615 H 0.93705 0.52395 0.05506 0.0
C3616 C 0.93887 0.53066 0.14727 0.0
C3617 C 0.94332 0.51446 0.15956 0.0
C3618 C 0.94555 0.53116 0.12779 0.0
C3619 C 0.95657 0.51536 0.11995 0.0
C3620 C 0.96221 0.49979 0.13251 0.0
C3621 C 0.95571 0.49939 0.15216 0.0
C3622 C 0.98206 0.50706 0.07045 0.0
C3623 C 0.9672 0.51308 0.05721 0.0
C3624 C 0.97874 0.50775 0.09088 0.0
C3625 C 0.96053 0.51445 0.09839 0.0
C3626 C 0.94561 0.52004 0.08508 0.0
C3627 C 0.94892 0.51943 0.06479 0.0
H3628 H 0.79633 0.69323 0.40044 0.0
H3629 H 0.73478 0.67643 0.39693 0.0
H3630 H 0.79529 0.70433 0.36577 0.0
H3631 H 0.73374 0.68722 0.36268 0.0
H3632 H 0.73433 0.69656 0.30071 0.0
H3633 H 0.74814 0.67886 0.32904 0.0
H3634 H 0.77595 0.73301 0.34899 0.0
H3635 H 0.76226 0.75053 0.3205 0.0
C3636 C 0.78267 0.69183 0.39219 0.0
C3637 C 0.76553 0.68431 0.40132 0.0
C3638 C 0.78211 0.69806 0.37244 0.0
C3639 C 0.76454 0.69634 0.3615 0.0
C3640 C 0.74761 0.68835 0.37061 0.0
C3641 C 0.74809 0.68249 0.39031 0.0
C3642 C 0.74425 0.70434 0.31062 0.0
C3643 C 0.74733 0.72477 0.30862 0.0
C3644 C 0.75203 0.6943 0.32687 0.0
C3645 C 0.76271 0.70471 0.34139 0.0
C3646 C 0.76779 0.72464 0.33801 0.0
C3647 C 0.75999 0.73466 0.32174 0.0
H3648 H 0.55907 0.46611 0.84475 0.0
H3649 H 0.60407 0.50519 0.86804 0.0
H3650 H 0.54394 0.46393 0.87751 0.0
H3651 H 0.58862 0.50369 0.90043 0.0
H3652 H 0.56185 0.50064 0.95782 0.0
H3653 H 0.5791 0.48559 0.92968 0.0
H3654 H 0.52511 0.48836 0.89558 0.0
H3655 H 0.50806 0.5028 0.92383 0.0
C3656 C 0.56591 0.47397 0.85692 0.0
C3657 C 0.58254 0.48613 0.85375 0.0
C3658 C 0.5572 0.47278 0.87566 0.0
C3659 C 0.56498 0.4837 0.89159 0.0
C3660 C 0.58233 0.49486 0.88861 0.0
C3661 C 0.59101 0.49605 0.86993 0.0
C3662 C 0.55356 0.49703 0.94459 0.0
C3663 C 0.53374 0.50272 0.94281 0.0
C3664 C 0.56343 0.48866 0.92842 0.0
C3665 C 0.5536 0.4862 0.91024 0.0
C3666 C 0.53315 0.48994 0.90933 0.0
C3667 C 0.52334 0.49825 0.92548 0.0
H3668 H 0.74318 0.28209 0.08198 0.0
H3669 H 0.75327 0.34179 0.1031 0.0
H3670 H 0.7376 0.27109 0.11612 0.0
H3671 H 0.74845 0.33075 0.13682 0.0
H3672 H 0.71826 0.31186 0.19208 0.0
H3673 H 0.72055 0.31932 0.15699 0.0
H3674 H 0.75637 0.26708 0.14795 0.0
H3675 H 0.75381 0.25932 0.18311 0.0
C3676 C 0.7443 0.2928 0.09387 0.0
C3677 C 0.74879 0.31277 0.08985 0.0
C3678 C 0.74123 0.2865 0.11337 0.0
C3679 C 0.74239 0.30012 0.12908 0.0
C3680 C 0.74711 0.31998 0.12501 0.0
C3681 C 0.7502 0.32623 0.10566 0.0
C3682 C 0.72645 0.30181 0.18262 0.0
C3683 C 0.73606 0.28514 0.19046 0.0
C3684 C 0.72782 0.30614 0.16252 0.0
C3685 C 0.7389 0.29395 0.14981 0.0
C3686 C 0.74768 0.27671 0.1574 0.0
C3687 C 0.74628 0.27233 0.17756 0.0
H3688 H 0.89616 0.47898 0.36432 0.0
H3689 H 0.94892 0.50539 0.33953 0.0
H3690 H 0.91398 0.47255 0.39528 0.0
H3691 H 0.9665 0.49923 0.37024 0.0
H3692 H -0.00039 0.47127 0.41791 0.0
H3693 H 0.97841 0.46954 0.3889 0.0
H3694 H 0.92984 0.49358 0.42283 0.0
H3695 H 0.951 0.495 0.45211 0.0
C3696 C 0.91154 0.48336 0.36552 0.0
C3697 C 0.9212 0.49274 0.34963 0.0
C3698 C 0.92166 0.47974 0.38318 0.0
C3699 C 0.94165 0.48516 0.38501 0.0
C3700 C 0.9512 0.49456 0.3691 0.0
C3701 C 0.94108 0.49834 0.35162 0.0
C3702 C 0.98429 0.47577 0.41931 0.0
C3703 C 0.97705 0.48365 0.43711 0.0
C3704 C 0.97219 0.47481 0.40271 0.0
C3705 C 0.95268 0.48188 0.40355 0.0
C3706 C 0.94485 0.48807 0.4218 0.0
C3707 C 0.95697 0.4889 0.43853 0.0
H3708 H 0.73207 0.66988 0.60787 0.0
H3709 H 0.7954 0.67271 0.59914 0.0
H3710 H 0.736 0.68419 0.64073 0.0
H3711 H 0.79917 0.68755 0.63184 0.0
H3712 H 0.78639 0.74408 0.67194 0.0
H3713 H 0.78831 0.72136 0.64397 0.0
H3714 H 0.75121 0.6795 0.67509 0.0
H3715 H 0.74945 0.70225 0.70331 0.0
C3716 C 0.74686 0.67319 0.61306 0.0
C3717 C 0.76338 0.6704 0.60069 0.0
C3718 C 0.7491 0.68136 0.63193 0.0
C3719 C 0.76789 0.68705 0.6388 0.0
C3720 C 0.78449 0.68348 0.62683 0.0
C3721 C 0.78229 0.67515 0.60803 0.0
C3722 C 0.77909 0.7298 0.67303 0.0
C3723 C 0.76763 0.72501 0.68971 0.0
C3724 C 0.78024 0.71675 0.65704 0.0
C3725 C 0.76973 0.69877 0.65728 0.0
C3726 C 0.75931 0.69337 0.67447 0.0
C3727 C 0.75843 0.70631 0.69066 0.0
H3728 H 0.66356 0.55082 0.50023 0.0
H3729 H 0.63795 0.60298 0.47361 0.0
H3730 H 0.63187 0.53379 0.49778 0.0
H3731 H 0.60594 0.58572 0.47109 0.0
H3732 H 0.58141 0.50094 0.47172 0.0
H3733 H 0.61078 0.52161 0.46898 0.0
H3734 H 0.57942 0.5704 0.49588 0.0
H3735 H 0.54969 0.54954 0.49869 0.0
C3736 C 0.65111 0.55867 0.49391 0.0
C3737 C 0.65324 0.57823 0.48714 0.0
C3738 C 0.63301 0.54887 0.49235 0.0
C3739 C 0.6165 0.5584 0.48411 0.0
C3740 C 0.61845 0.57806 0.47751 0.0
C3741 C 0.63675 0.58784 0.47884 0.0
C3742 C 0.5806 0.51617 0.47678 0.0
C3743 C 0.5633 0.52351 0.48573 0.0
C3744 C 0.59746 0.52799 0.47523 0.0
C3745 C 0.59749 0.54746 0.48257 0.0
C3746 C 0.57978 0.55541 0.49013 0.0
C3747 C 0.56278 0.5435 0.49171 0.0
H3748 H 0.15504 0.92361 0.53265 0.0
H3749 H 0.16818 0.96699 0.48771 0.0
H3750 H 0.12144 0.93587 0.53505 0.0
H3751 H 0.13477 0.98053 0.49096 0.0
H3752 H 0.06702 0.98016 0.48277 0.0
H3753 H 0.10246 0.9736 0.4826 0.0
H3754 H 0.09976 0.95968 0.54506 0.0
H3755 H 0.06412 0.96464 0.54455 0.0
C3756 C 0.15078 0.93622 0.5237 0.0
C3757 C 0.16406 0.94443 0.51005 0.0
C3758 C 0.13152 0.94342 0.52513 0.0
C3759 C 0.1252 0.95934 0.51325 0.0
C3760 C 0.13889 0.96804 0.5001 0.0
C3761 C 0.15807 0.96046 0.49833 0.0
C3762 C 0.07416 0.97587 0.49645 0.0
C3763 C 0.06296 0.9726 0.5136 0.0
C3764 C 0.09452 0.97223 0.49644 0.0
C3765 C 0.10411 0.96575 0.51376 0.0
C3766 C 0.0929 0.96393 0.53126 0.0
C3767 C 0.0725 0.96695 0.53107 0.0
H3768 H 0.31686 0.90587 0.77904 0.0
H3769 H 0.36548 0.88155 0.74556 0.0
H3770 H 0.30458 0.87278 0.78561 0.0
H3771 H 0.35389 0.8479 0.75301 0.0
H3772 H 0.30478 0.79953 0.74254 0.0
H3773 H 0.32823 0.82687 0.74326 0.0
H3774 H 0.3077 0.84277 0.80183 0.0
H3775 H 0.28306 0.81639 0.80015 0.0
C3776 C 0.32509 0.89327 0.77341 0.0
C3777 C 0.34192 0.89607 0.76168 0.0
C3778 C 0.31827 0.87424 0.77741 0.0
C3779 C 0.32838 0.85751 0.77007 0.0
C3780 C 0.34565 0.86041 0.75876 0.0
C3781 C 0.35227 0.87958 0.75444 0.0
C3782 C 0.30583 0.8085 0.75582 0.0
C3783 C 0.29194 0.80636 0.77108 0.0
C3784 C 0.31931 0.82418 0.7563 0.0
C3785 C 0.31929 0.83757 0.77229 0.0
C3786 C 0.30746 0.83329 0.7889 0.0
C3787 C 0.29354 0.81806 0.78811 0.0
H3788 H 0.36469 0.09226 0.9751 0.0
H3789 H 0.3363 0.03474 0.97646 0.0
H3790 H 0.39672 0.07653 0.9802 0.0
H3791 H 0.36839 0.01922 0.98219 0.0
H3792 H 0.41413 0.01768 0.03537 0.0
H3793 H 0.38588 0.02992 0.01732 0.0
H3794 H 0.42354 0.04547 0.96811 0.0
H3795 H 0.45249 0.03261 0.9863 0.0
C3796 C 0.3653 0.07623 0.97575 0.0
C3797 C 0.34783 0.06478 0.97579 0.0
C3798 C 0.3837 0.06725 0.97861 0.0
C3799 C 0.3849 0.04674 0.98166 0.0
C3800 C 0.36775 0.0351 0.97987 0.0
C3801 C 0.34939 0.04402 0.97686 0.0
C3802 C 0.41658 0.02361 0.02068 0.0
C3803 C 0.4356 0.02425 0.01229 0.0
C3804 C 0.4003 0.03042 0.01028 0.0
C3805 C 0.40255 0.03832 0.99128 0.0
C3806 C 0.42152 0.03923 0.98273 0.0
C3807 C 0.43798 0.03197 0.99311 0.0
H3808 H 0.69469 0.59266 0.71013 0.0
H3809 H 0.65831 0.61167 0.75912 0.0
H3810 H 0.70823 0.62625 0.70724 0.0
H3811 H 0.67207 0.64487 0.75663 0.0
H3812 H 0.69578 0.70356 0.75244 0.0
H3813 H 0.67679 0.67581 0.73869 0.0
H3814 H 0.73119 0.64359 0.72896 0.0
H3815 H 0.74986 0.67132 0.74243 0.0
C3816 C 0.68935 0.60408 0.72005 0.0
C3817 C 0.67575 0.59945 0.73512 0.0
C3818 C 0.69712 0.6233 0.71842 0.0
C3819 C 0.6913 0.63827 0.73173 0.0
C3820 C 0.67674 0.63384 0.74595 0.0
C3821 C 0.66909 0.61469 0.74763 0.0
C3822 C 0.70362 0.69094 0.74635 0.0
C3823 C 0.72418 0.68941 0.74844 0.0
C3824 C 0.69279 0.67496 0.73871 0.0
C3825 C 0.70244 0.65727 0.7332 0.0
C3826 C 0.72324 0.65693 0.73301 0.0
C3827 C 0.73399 0.67283 0.74071 0.0
H3828 H 0.8446 0.44108 0.97169 0.0
H3829 H 0.87012 0.39067 0.00133 0.0
H3830 H 0.8774 0.45428 0.96525 0.0
H3831 H 0.90341 0.40326 0.99401 0.0
H3832 H 0.95283 0.45147 0.00381 0.0
H3833 H 0.92477 0.42893 0.00417 0.0
H3834 H 0.90657 0.45111 0.94702 0.0
H3835 H 0.93406 0.47457 0.94744 0.0
C3836 C 0.85739 0.43275 0.97658 0.0
C3837 C 0.85504 0.41504 0.98707 0.0
C3838 C 0.87622 0.44009 0.97264 0.0
C3839 C 0.89315 0.42966 0.97878 0.0
C3840 C 0.89071 0.41171 0.98914 0.0
C3841 C 0.87175 0.40453 0.99339 0.0
C3842 C 0.94326 0.45092 0.99099 0.0
C3843 C 0.94529 0.46486 0.97574 0.0
C3844 C 0.9271 0.43802 0.99119 0.0
C3845 C 0.91298 0.43872 0.97594 0.0
C3846 C 0.91673 0.45078 0.95937 0.0
C3847 C 0.93257 0.46403 0.95945 0.0
H3848 H 0.32316 0.09605 0.70738 0.0
H3849 H 0.29651 0.08785 0.76496 0.0
H3850 H 0.31065 0.1298 0.70641 0.0
H3851 H 0.28486 0.12204 0.76439 0.0
H3852 H 0.25807 0.18295 0.75252 0.0
H3853 H 0.26368 0.14729 0.74931 0.0
H3854 H 0.32149 0.15887 0.72444 0.0
H3855 H 0.31582 0.19424 0.72722 0.0
C3856 C 0.31429 0.10128 0.71967 0.0
C3857 C 0.31107 0.08932 0.73638 0.0
C3858 C 0.30734 0.12073 0.71921 0.0
C3859 C 0.29714 0.12871 0.7355 0.0
C3860 C 0.29269 0.11634 0.75161 0.0
C3861 C 0.29956 0.09682 0.75203 0.0
C3862 C 0.27193 0.17786 0.74628 0.0
C3863 C 0.28651 0.19147 0.74015 0.0
C3864 C 0.27514 0.15745 0.74448 0.0
C3865 C 0.29295 0.15027 0.73647 0.0
C3866 C 0.30743 0.1639 0.73027 0.0
C3867 C 0.30424 0.18423 0.73206 0.0
H3868 H 0.17398 0.89023 0.23655 0.0
H3869 H 0.19139 0.90123 0.29697 0.0
H3870 H 0.18664 0.85661 0.23882 0.0
H3871 H 0.20393 0.86721 0.2994 0.0
H3872 H 0.25411 0.82397 0.27267 0.0
H3873 H 0.23302 0.85123 0.2834 0.0
H3874 H 0.18315 0.82368 0.25433 0.0
H3875 H 0.20458 0.79666 0.24326 0.0
C3876 C 0.18044 0.88538 0.25037 0.0
C3877 C 0.18203 0.89843 0.26645 0.0
C3878 C 0.18735 0.86598 0.25182 0.0
C3879 C 0.19613 0.85917 0.26937 0.0
C3880 C 0.19719 0.87204 0.28571 0.0
C3881 C 0.19006 0.89147 0.28431 0.0
C3882 C 0.2384 0.82326 0.26955 0.0
C3883 C 0.23082 0.8083 0.2573 0.0
C3884 C 0.2263 0.83888 0.27565 0.0
C3885 C 0.20653 0.83982 0.26929 0.0
C3886 C 0.19842 0.82347 0.25917 0.0
C3887 C 0.21055 0.80784 0.25311 0.0
H3888 H 0.47522 0.3638 0.40185 0.0
H3889 H 0.49355 0.33907 0.45777 0.0
H3890 H 0.47144 0.3963 0.41741 0.0
H3891 H 0.49036 0.37154 0.47314 0.0
H3892 H 0.48117 0.42822 0.50085 0.0
H3893 H 0.46896 0.39882 0.48348 0.0
H3894 H 0.49618 0.41988 0.42956 0.0
H3895 H 0.50799 0.44927 0.44697 0.0
C3896 C 0.47811 0.36521 0.41753 0.0
C3897 C 0.48492 0.34889 0.42854 0.0
C3898 C 0.47603 0.38386 0.42641 0.0
C3899 C 0.48059 0.38656 0.4465 0.0
C3900 C 0.48642 0.36999 0.45769 0.0
C3901 C 0.48858 0.3514 0.44882 0.0
C3902 C 0.48353 0.42701 0.48504 0.0
C3903 C 0.49535 0.44093 0.47513 0.0
C3904 C 0.47682 0.41007 0.47515 0.0
C3905 C 0.48202 0.40677 0.45526 0.0
C3906 C 0.49185 0.42194 0.44485 0.0
C3907 C 0.49855 0.43886 0.45477 0.0
H3908 H 0.41943 0.72021 0.21369 0.0
H3909 H 0.40604 0.77871 0.19132 0.0
H3910 H 0.38883 0.72075 0.23315 0.0
H3911 H 0.37608 0.77937 0.2109 0.0
H3912 H 0.31741 0.72398 0.23243 0.0
H3913 H 0.35257 0.7203 0.22456 0.0
H3914 H 0.36326 0.78016 0.24484 0.0
H3915 H 0.32813 0.78388 0.25217 0.0
C3916 C 0.4101 0.73323 0.21304 0.0
C3917 C 0.41524 0.74944 0.20092 0.0
C3918 C 0.39266 0.73355 0.22426 0.0
C3919 C 0.38015 0.75016 0.22372 0.0
C3920 C 0.38562 0.76653 0.21205 0.0
C3921 C 0.40287 0.76616 0.20078 0.0
C3922 C 0.32747 0.73596 0.23601 0.0
C3923 C 0.32017 0.75424 0.24275 0.0
C3924 C 0.34759 0.73392 0.23145 0.0
C3925 C 0.36056 0.75013 0.23365 0.0
C3926 C 0.35352 0.76758 0.24256 0.0
C3927 C 0.33347 0.76967 0.2469 0.0
H3928 H 0.03326 0.66125 0.95114 0.0
H3929 H 0.98967 0.64204 0.90861 0.0
H3930 H 0.03429 0.62764 0.96498 0.0
H3931 H 0.99048 0.60878 0.92244 0.0
H3932 H -0.00253 0.54867 0.9427 0.0
H3933 H 0.01081 0.57877 0.92742 0.0
H3934 H 0.00941 0.60818 0.98421 0.0
H3935 H -0.00361 0.57799 -0.00069 0.0
C3936 C 0.02407 0.6498 0.94465 0.0
C3937 C 0.01115 0.65428 0.92901 0.0
C3938 C 0.02466 0.63061 0.95254 0.0
C3939 C 0.01258 0.61553 0.94471 0.0
C3940 C 0.00024 0.61994 0.9286 0.0
C3941 C -0.0005 0.63909 0.92089 0.0
C3942 C 0.00103 0.56127 0.95199 0.0
C3943 C -0.00389 0.56114 0.97211 0.0
C3944 C 0.00841 0.57856 0.94326 0.0
C3945 C 0.01078 0.59595 0.95456 0.0
C3946 C 0.00784 0.59504 0.97512 0.0
C3947 C 0.00042 0.57777 0.9838 0.0
H3948 H 0.12358 0.2583 0.64141 0.0
H3949 H 0.10351 0.22232 0.69035 0.0
H3950 H 0.158 0.25178 0.65073 0.0
H3951 H 0.13747 0.21583 0.69954 0.0
H3952 H 0.1953 0.19829 0.71299 0.0
H3953 H 0.16767 0.19921 0.68989 0.0
H3954 H 0.17968 0.26111 0.67839 0.0
H3955 H 0.20774 0.25986 0.70088 0.0
C3956 C 0.12652 0.24902 0.65413 0.0
C3957 C 0.11085 0.2408 0.66516 0.0
C3958 C 0.14619 0.24516 0.65935 0.0
C3959 C 0.1505 0.23298 0.67563 0.0
C3960 C 0.13476 0.22473 0.6865 0.0
C3961 C 0.11523 0.22858 0.68134 0.0
C3962 C 0.19264 0.21176 0.70468 0.0
C3963 C 0.20341 0.22905 0.70881 0.0
C3964 C 0.1767 0.21238 0.69164 0.0
C3965 C 0.17103 0.23044 0.68297 0.0
C3966 C 0.18356 0.247 0.68494 0.0
C3967 C 0.19975 0.24627 0.69776 0.0
H3968 H 0.52259 0.65138 0.05551 0.0
H3969 H 0.49506 0.62945 0.10891 0.0
H3970 H 0.52973 0.6177 0.04531 0.0
H3971 H 0.50222 0.59533 0.09856 0.0
H3972 H 0.49109 0.54462 0.04943 0.0
H3973 H 0.49047 0.57306 0.07173 0.0
H3974 H 0.54974 0.58871 0.05336 0.0
H3975 H 0.54999 0.56062 0.03062 0.0
C3976 C 0.51831 0.63933 0.06521 0.0
C3977 C 0.50829 0.64305 0.083 0.0
C3978 C 0.52255 0.61999 0.05946 0.0
C3979 C 0.51689 0.60384 0.07134 0.0
C3980 C 0.50683 0.6075 0.08917 0.0
C3981 C 0.5026 0.62697 0.09498 0.0
C3982 C 0.50434 0.55354 0.05098 0.0
C3983 C 0.52049 0.5507 0.03825 0.0
C3984 C 0.50397 0.56991 0.06367 0.0
C3985 C 0.51982 0.58345 0.06376 0.0
C3986 C 0.5371 0.57881 0.05314 0.0
C3987 C 0.53734 0.56266 0.04028 0.0
H3988 H 0.11814 0.72695 0.84557 0.0
H3989 H 0.09488 0.74363 0.78849 0.0
H3990 H 0.15147 0.72663 0.83185 0.0
H3991 H 0.1283 0.74409 0.77501 0.0
H3992 H 0.18917 0.74405 0.75267 0.0
H3993 H 0.15988 0.72742 0.76642 0.0
H3994 H 0.17058 0.75606 0.82264 0.0
H3995 H 0.19956 0.77243 0.80883 0.0
C3996 C 0.12005 0.7301 0.82999 0.0
C3997 C 0.10387 0.73569 0.8182 0.0
C3998 C 0.13919 0.73 0.82217 0.0
C3999 C 0.14256 0.73554 0.80243 0.0
C4000 C 0.12622 0.73961 0.79025 0.0
C4001 C 0.10708 0.73968 0.79806 0.0
C4002 C 0.18563 0.74599 0.76818 0.0
C4003 C 0.19644 0.75937 0.77981 0.0
C4004 C 0.16882 0.73667 0.776 0.0
C4005 C 0.16279 0.74061 0.79554 0.0
C4006 C 0.17487 0.75253 0.8076 0.0
C4007 C 0.19145 0.76198 0.79973 0.0
H4008 H 0.96909 0.34391 0.5723 0.0
H4009 H 0.02038 0.33107 0.5363 0.0
H4010 H 0.96568 0.37575 0.55628 0.0
H4011 H 0.01685 0.36329 0.51993 0.0
H4012 H 0.0173 0.43376 0.52058 0.0
H4013 H 0.02084 0.39839 0.52806 0.0
H4014 H 0.95724 0.39164 0.52612 0.0
H4015 H 0.95381 0.42696 0.51968 0.0
C4016 C 0.97937 0.34768 0.56057 0.0
C4017 C 0.99492 0.33488 0.55548 0.0
C4018 C 0.9774 0.366 0.55133 0.0
C4019 C 0.99088 0.37204 0.53665 0.0
C4020 C 0.0063 0.35912 0.53126 0.0
C4021 C 0.0083 0.3407 0.54061 0.0
C4022 C 0.00417 0.42454 0.52134 0.0
C4023 C 0.98528 0.43302 0.51997 0.0
C4024 C 0.00616 0.40429 0.52556 0.0
C4025 C 0.98927 0.39229 0.52817 0.0
C4026 C 0.97051 0.40058 0.52483 0.0
C4027 C 0.96853 0.42076 0.52103 0.0
H4028 H 0.40111 0.27251 0.31869 0.0
H4029 H 0.4213 0.21873 0.2902 0.0
H4030 H 0.36908 0.26879 0.30288 0.0
H4031 H 0.38876 0.21469 0.27501 0.0
H4032 H 0.32001 0.20268 0.28535 0.0
H4033 H 0.3552 0.20745 0.29162 0.0
H4034 H 0.35143 0.26721 0.26909 0.0
H4035 H 0.31611 0.2624 0.26257 0.0
C4036 C 0.39894 0.26012 0.30874 0.0
C4037 C 0.41385 0.24584 0.30588 0.0
C4038 C 0.38051 0.258 0.29969 0.0
C4039 C 0.37645 0.24143 0.28778 0.0
C4040 C 0.39149 0.22752 0.28428 0.0
C4041 C 0.41005 0.22978 0.29311 0.0
C4042 C 0.32675 0.21672 0.28139 0.0
C4043 C 0.31528 0.23223 0.27364 0.0
C4044 C 0.34692 0.21939 0.28486 0.0
C4045 C 0.35598 0.23772 0.28092 0.0
C4046 C 0.34474 0.25296 0.27233 0.0
C4047 C 0.32459 0.25018 0.26854 0.0
H4048 H 0.46489 0.48539 0.33464 0.0
H4049 H 0.42403 0.53252 0.34877 0.0
H4050 H 0.48016 0.48902 0.36727 0.0
H4051 H 0.43886 0.53593 0.38117 0.0
H4052 H 0.47501 0.54979 0.4329 0.0
H4053 H 0.46759 0.54689 0.39785 0.0
H4054 H 0.47307 0.48313 0.40185 0.0
H4055 H 0.48146 0.48623 0.4369 0.0
C4056 C 0.4592 0.49652 0.3447 0.0
C4057 C 0.44337 0.50879 0.33908 0.0
C4058 C 0.46792 0.49858 0.36338 0.0
C4059 C 0.4609 0.5129 0.37682 0.0
C4060 C 0.44507 0.52512 0.37107 0.0
C4061 C 0.43649 0.52314 0.35246 0.0
C4062 C 0.47501 0.53519 0.42618 0.0
C4063 C 0.47854 0.51821 0.43763 0.0
C4064 C 0.47061 0.53349 0.40613 0.0
C4065 C 0.4692 0.51474 0.39711 0.0
C4066 C 0.47405 0.49781 0.40828 0.0
C4067 C 0.47882 0.49956 0.42837 0.0
H4068 H 0.26511 0.70155 0.0863 0.0
H4069 H 0.22899 0.65463 0.1108 0.0
H4070 H 0.26114 0.72057 0.11656 0.0
H4071 H 0.22429 0.67413 0.14092 0.0
H4072 H 0.24624 0.70495 0.19922 0.0
H4073 H 0.24425 0.68521 0.16905 0.0
H4074 H 0.23622 0.7387 0.13485 0.0
H4075 H 0.23876 0.75846 0.16487 0.0
C4076 C 0.25633 0.6953 0.09818 0.0
C4077 C 0.2475 0.67655 0.09625 0.0
C4078 C 0.25377 0.70633 0.11539 0.0
C4079 C 0.24225 0.69891 0.13105 0.0
C4080 C 0.23331 0.68019 0.12912 0.0
C4081 C 0.23589 0.66911 0.11185 0.0
C4082 C 0.24369 0.71245 0.1853 0.0
C4083 C 0.24301 0.73325 0.18432 0.0
C4084 C 0.24249 0.70114 0.16803 0.0
C4085 C 0.24044 0.71046 0.14957 0.0
C4086 C 0.23831 0.73116 0.14883 0.0
C4087 C 0.23968 0.74246 0.16602 0.0
H4088 H 0.04835 0.46715 0.8323 0.0
H4089 H 0.06442 0.52792 0.84511 0.0
H4090 H 0.0336 0.4642 0.86517 0.0
H4091 H 0.04921 0.52505 0.87763 0.0
H4092 H 0.01181 0.51518 0.93284 0.0
H4093 H 0.01723 0.51811 0.89716 0.0
H4094 H 0.0522 0.46458 0.89807 0.0
H4095 H 0.04699 0.46171 0.93358 0.0
C4096 C 0.04849 0.47995 0.84199 0.0
C4097 C 0.05788 0.49765 0.83622 0.0
C4098 C 0.03996 0.47828 0.86072 0.0
C4099 C 0.04047 0.49434 0.87393 0.0
C4100 C 0.04849 0.51249 0.86765 0.0
C4101 C 0.05718 0.51412 0.84899 0.0
C4102 C 0.02046 0.50394 0.92535 0.0
C4103 C 0.02915 0.48832 0.93601 0.0
C4104 C 0.02355 0.50563 0.90498 0.0
C4105 C 0.03506 0.49154 0.89492 0.0
C4106 C 0.04305 0.47551 0.90544 0.0
C4107 C 0.04023 0.47398 0.9258 0.0
H4108 H 0.20995 0.30295 0.60683 0.0
H4109 H 0.27032 0.32409 0.60685 0.0
H4110 H 0.21333 0.29338 0.64176 0.0
H4111 H 0.27375 0.31441 0.64115 0.0
H4112 H 0.27464 0.31191 0.70425 0.0
H4113 H 0.26079 0.325 0.67366 0.0
H4114 H 0.23344 0.26824 0.66189 0.0
H4115 H 0.24693 0.25539 0.69299 0.0
C4116 C 0.2239 0.3055 0.61427 0.0
C4117 C 0.23995 0.31407 0.60407 0.0
C4118 C 0.22582 0.30004 0.63419 0.0
C4119 C 0.24368 0.30345 0.64425 0.0
C4120 C 0.25964 0.31197 0.63395 0.0
C4121 C 0.2578 0.31721 0.61416 0.0
C4122 C 0.26497 0.30255 0.69551 0.0
C4123 C 0.26181 0.28273 0.70079 0.0
C4124 C 0.25718 0.30994 0.67795 0.0
C4125 C 0.24653 0.29745 0.66514 0.0
C4126 C 0.24163 0.27818 0.67146 0.0
C4127 C 0.24926 0.27085 0.68925 0.0
H4128 H 0.46221 0.50129 0.15317 0.0
H4129 H 0.40547 0.52223 0.13269 0.0
H4130 H 0.47463 0.50172 0.11926 0.0
H4131 H 0.41801 0.52294 0.09882 0.0
H4132 H 0.43925 0.47703 0.04882 0.0
H4133 H 0.42619 0.49258 0.07863 0.0
H4134 H 0.48238 0.5217 0.0881 0.0
H4135 H 0.49532 0.50617 0.05791 0.0
C4136 C 0.45252 0.5063 0.14146 0.0
C4137 C 0.43281 0.51143 0.14553 0.0
C4138 C 0.45971 0.50685 0.12209 0.0
C4139 C 0.44725 0.51236 0.10641 0.0
C4140 C 0.4279 0.51862 0.11064 0.0
C4141 C 0.42076 0.51823 0.13003 0.0
C4142 C 0.44845 0.48751 0.05679 0.0
C4143 C 0.46816 0.49056 0.05118 0.0
C4144 C 0.44101 0.49643 0.07384 0.0
C4145 C 0.45336 0.50816 0.0858 0.0
C4146 C 0.47261 0.51261 0.07919 0.0
C4147 C 0.47993 0.50393 0.06187 0.0
H4148 H 0.28471 0.7058 0.91534 0.0
H4149 H 0.22551 0.68624 0.90081 0.0
H4150 H 0.28775 0.72084 0.88264 0.0
H4151 H 0.22841 0.70186 0.86853 0.0
H4152 H 0.23758 0.74063 0.81416 0.0
H4153 H 0.2343 0.73499 0.84978 0.0
H4154 H 0.28893 0.70188 0.84939 0.0
H4155 H 0.29214 0.70726 0.81391 0.0
C4156 C 0.27226 0.70494 0.90532 0.0
C4157 C 0.255 0.6945 0.91058 0.0
C4158 C 0.27397 0.71366 0.88669 0.0
C4159 C 0.25837 0.71235 0.8731 0.0
C4160 C 0.24059 0.70323 0.87884 0.0
C4161 C 0.23894 0.69431 0.89737 0.0
C4162 C 0.24902 0.73239 0.82176 0.0
C4163 C 0.26504 0.72422 0.81127 0.0
C4164 C 0.24711 0.72917 0.84208 0.0
C4165 C 0.2614 0.71808 0.85226 0.0
C4166 C 0.27784 0.71069 0.84191 0.0
C4167 C 0.27957 0.7136 0.82159 0.0
H4168 H 0.04772 0.50346 0.6639 0.0
H4169 H 0.09907 0.52801 0.63462 0.0
H4170 H 0.0284 0.50803 0.63407 0.0
H4171 H 0.07942 0.53315 0.60461 0.0
H4172 H 0.04219 0.50675 0.55088 0.0
H4173 H 0.06375 0.51119 0.57947 0.0
H4174 H 0.01431 0.53376 0.61323 0.0
H4175 H 0.9927 0.52881 0.58491 0.0
C4176 C 0.05484 0.50992 0.65106 0.0
C4177 C 0.07492 0.51517 0.65147 0.0
C4178 C 0.04371 0.51282 0.63405 0.0
C4179 C 0.05236 0.5211 0.61705 0.0
C4180 C 0.0724 0.52671 0.61751 0.0
C4181 C 0.08358 0.52386 0.63466 0.0
C4182 C 0.03605 0.51307 0.56428 0.0
C4183 C 0.0157 0.517 0.56586 0.0
C4184 C 0.04841 0.51569 0.58062 0.0
C4185 C 0.04059 0.52243 0.59868 0.0
C4186 C 0.02061 0.52807 0.59962 0.0
C4187 C 0.00826 0.52526 0.58341 0.0
H4188 H 0.22523 0.29533 0.41687 0.0
H4189 H 0.241 0.35119 0.38999 0.0
H4190 H 0.22377 0.27991 0.38447 0.0
H4191 H 0.23889 0.33595 0.35723 0.0
H4192 H 0.25844 0.29336 0.30605 0.0
H4193 H 0.25542 0.31354 0.33597 0.0
H4194 H 0.20615 0.27723 0.35508 0.0
H4195 H 0.21013 0.25652 0.32584 0.0
C4196 C 0.22803 0.3044 0.40395 0.0
C4197 C 0.23322 0.32445 0.40598 0.0
C4198 C 0.22708 0.2956 0.38528 0.0
C4199 C 0.23102 0.30668 0.36805 0.0
C4200 C 0.23597 0.32687 0.3701 0.0
C4201 C 0.23715 0.33563 0.38887 0.0
C4202 C 0.24668 0.2901 0.31646 0.0
C4203 C 0.2346 0.27336 0.3138 0.0
C4204 C 0.24492 0.30163 0.33365 0.0
C4205 C 0.23084 0.29676 0.34829 0.0
C4206 C 0.21762 0.28104 0.34455 0.0
C4207 C 0.21969 0.26931 0.32766 0.0
H4208 H 0.35951 0.40041 0.52986 0.0
H4209 H 0.33364 0.45018 0.49927 0.0
H4210 H 0.39091 0.41869 0.53262 0.0
H4211 H 0.36475 0.46821 0.5019 0.0
H4212 H 0.41315 0.50404 0.52839 0.0
H4213 H 0.38406 0.48292 0.53021 0.0
H4214 H 0.41835 0.4332 0.50922 0.0
H4215 H 0.44785 0.45449 0.5074 0.0
C4216 C 0.36053 0.41523 0.52377 0.0
C4217 C 0.34412 0.42387 0.51433 0.0
C4218 C 0.3785 0.4256 0.52524 0.0
C4219 C 0.38022 0.44492 0.51761 0.0
C4220 C 0.36381 0.45344 0.50814 0.0
C4221 C 0.34603 0.44305 0.50647 0.0
C4222 C 0.41465 0.48854 0.5244 0.0
C4223 C 0.43277 0.48104 0.51744 0.0
C4224 C 0.39793 0.47646 0.5254 0.0
C4225 C 0.39883 0.45654 0.51946 0.0
C4226 C 0.41724 0.44854 0.51385 0.0
C4227 C 0.43411 0.46072 0.51283 0.0
H4228 H 0.8335 0.04097 0.466 0.0
H4229 H 0.85233 0.06522 0.52225 0.0
H4230 H 0.8661 0.0259 0.46178 0.0
H4231 H 0.88409 0.04906 0.51843 0.0
H4232 H 0.93625 0.00785 0.50995 0.0
H4233 H 0.90054 0.01294 0.51307 0.0
H4234 H 0.90067 0.0466 0.45883 0.0
H4235 H 0.9364 0.04194 0.45584 0.0
C4236 C 0.84437 0.04289 0.47759 0.0
C4237 C 0.84024 0.05462 0.49435 0.0
C4238 C 0.86291 0.03407 0.47522 0.0
C4239 C 0.87745 0.03635 0.48981 0.0
C4240 C 0.87297 0.04688 0.50711 0.0
C4241 C 0.85466 0.05608 0.50929 0.0
C4242 C 0.92858 0.01599 0.49848 0.0
C4243 C 0.93908 0.02472 0.48276 0.0
C4244 C 0.90821 0.01887 0.50029 0.0
C4245 C 0.898 0.0301 0.48617 0.0
C4246 C 0.90826 0.03772 0.46979 0.0
C4247 C 0.92868 0.0352 0.46818 0.0
H4248 H 0.63884 0.1187 0.25557 0.0
H4249 H 0.69742 0.10007 0.23769 0.0
H4250 H 0.6478 0.15326 0.24829 0.0
H4251 H 0.70582 0.13409 0.22971 0.0
H4252 H 0.71513 0.18892 0.20174 0.0
H4253 H 0.69291 0.16044 0.20385 0.0
H4254 H 0.67651 0.17763 0.26314 0.0
H4255 H 0.69875 0.20613 0.26098 0.0
C4256 C 0.65358 0.12193 0.25017 0.0
C4257 C 0.66738 0.10659 0.24703 0.0
C4258 C 0.65856 0.14163 0.24579 0.0
C4259 C 0.67723 0.14614 0.23791 0.0
C4260 C 0.69106 0.13088 0.23515 0.0
C4261 C 0.68626 0.11139 0.23978 0.0
C4262 C 0.70593 0.1872 0.21478 0.0
C4263 C 0.70866 0.19954 0.23125 0.0
C4264 C 0.6933 0.17091 0.21602 0.0
C4265 C 0.68345 0.1667 0.23382 0.0
C4266 C 0.68396 0.18063 0.24925 0.0
C4267 C 0.69657 0.19703 0.24797 0.0
H4268 H 0.63646 0.91151 0.03124 0.0
H4269 H 0.65926 0.96964 0.01666 0.0
H4270 H 0.60289 0.92419 0.02959 0.0
H4271 H 0.6255 0.9821 0.01414 0.0
H4272 H 0.56308 0.00211 0.01235 0.0
H4273 H 0.59268 0.98949 0.02917 0.0
H4274 H 0.58512 0.93315 -0.00048 0.0
H4275 H 0.55581 0.94582 0.983 0.0
C4276 C 0.63439 0.92712 0.02816 0.0
C4277 C 0.65062 0.9395 0.02381 0.0
C4278 C 0.61508 0.93434 0.02707 0.0
C4279 C 0.61151 0.95407 0.0215 0.0
C4280 C 0.62774 0.96684 0.01859 0.0
C4281 C 0.64709 0.95962 0.01973 0.0
C4282 C 0.56739 0.98678 0.0102 0.0
C4283 C 0.55725 0.97478 -0.00337 0.0
C4284 C 0.5844 0.97964 0.0196 0.0
C4285 C 0.59134 0.96038 0.01555 0.0
C4286 C 0.58009 0.94795 0.00318 0.0
C4287 C 0.56331 0.95516 0.99368 0.0
H4288 H 0.34168 0.38915 0.26755 0.0
H4289 H 0.28865 0.41949 0.24902 0.0
H4290 H 0.32428 0.35742 0.26562 0.0
H4291 H 0.27125 0.38782 0.2472 0.0
H4292 H 0.26313 0.32986 0.21197 0.0
H4293 H 0.27601 0.3615 0.22273 0.0
H4294 H 0.2965 0.33488 0.27702 0.0
H4295 H 0.28345 0.30257 0.26602 0.0
C4296 C 0.32617 0.3891 0.26356 0.0
C4297 C 0.31664 0.4068 0.25807 0.0
C4298 C 0.31619 0.37091 0.26252 0.0
C4299 C 0.29648 0.37008 0.25599 0.0
C4300 C 0.28656 0.38794 0.25192 0.0
C4301 C 0.29653 0.40607 0.25289 0.0
C4302 C 0.27024 0.33065 0.2263 0.0
C4303 C 0.27245 0.31362 0.23806 0.0
C4304 C 0.27745 0.34892 0.23257 0.0
C4305 C 0.28719 0.35077 0.25078 0.0
C4306 C 0.28908 0.33387 0.26287 0.0
C4307 C 0.28159 0.31543 0.25663 0.0
H4308 H 0.15756 0.54937 0.01638 0.0
H4309 H 0.13581 0.60776 0.00174 0.0
H4310 H 0.12418 0.53863 0.02388 0.0
H4311 H 0.102 0.5969 0.00928 0.0
H4312 H 0.04845 0.55251 0.9933 0.0
H4313 H 0.07783 0.57361 0.99453 0.0
H4314 H 0.09721 0.54308 0.0472 0.0
H4315 H 0.06836 0.52143 0.0453 0.0
C4316 C 0.14564 0.56 0.01505 0.0
C4317 C 0.14929 0.57939 0.0085 0.0
C4318 C 0.12649 0.55391 0.0195 0.0
C4319 C 0.11047 0.56705 0.01754 0.0
C4320 C 0.11407 0.58649 0.01098 0.0
C4321 C 0.13335 0.59263 0.00653 0.0
C4322 C 0.05859 0.55095 0.00559 0.0
C4323 C 0.05654 0.53519 0.01897 0.0
C4324 C 0.07543 0.563 0.0063 0.0
C4325 C 0.09012 0.55948 0.02057 0.0
C4326 C 0.0864 0.54567 0.03568 0.0
C4327 C 0.06985 0.53341 0.03472 0.0
H4328 H 0.71999 0.92477 0.273 0.0
H4329 H 0.68086 0.89775 0.22999 0.0
H4330 H 0.73718 0.89308 0.27661 0.0
H4331 H 0.69899 0.867 0.23267 0.0
H4332 H 0.74188 0.81671 0.23352 0.0
H4333 H 0.73638 0.85224 0.22845 0.0
H4334 H 0.71949 0.85843 0.28971 0.0
H4335 H 0.72455 0.82289 0.29469 0.0
C4336 C 0.71517 0.91231 0.26412 0.0
C4337 C 0.69884 0.91396 0.2513 0.0
C4338 C 0.72522 0.89428 0.26604 0.0
C4339 C 0.71948 0.8778 0.25475 0.0
C4340 C 0.70393 0.87967 0.24123 0.0
C4341 C 0.69358 0.89743 0.23967 0.0
C4342 C 0.73761 0.82579 0.24601 0.0
C4343 C 0.73343 0.81712 0.26442 0.0
C4344 C 0.73446 0.84605 0.24311 0.0
C4345 C 0.72754 0.85792 0.25872 0.0
C4346 C 0.72502 0.84956 0.27754 0.0
C4347 C 0.72775 0.82925 0.28032 0.0
H4348 H 0.84992 0.11276 0.72508 0.0
H4349 H 0.79094 0.09056 0.73639 0.0
H4350 H 0.83759 0.14661 0.72652 0.0
H4351 H 0.77876 0.12457 0.73849 0.0
H4352 H 0.75995 0.18787 0.73944 0.0
H4353 H 0.77313 0.15823 0.72288 0.0
H4354 H 0.82677 0.16344 0.75721 0.0
H4355 H 0.81353 0.19268 0.7736 0.0
C4356 C 0.83422 0.11504 0.72738 0.0
C4357 C 0.82146 0.09892 0.73093 0.0
C4358 C 0.8272 0.13448 0.72829 0.0
C4359 C 0.80727 0.13825 0.73282 0.0
C4360 C 0.79418 0.12214 0.73486 0.0
C4361 C 0.80122 0.10267 0.73396 0.0
C4362 C 0.77485 0.18305 0.74275 0.0
C4363 C 0.78583 0.19244 0.75767 0.0
C4364 C 0.78231 0.16602 0.73347 0.0
C4365 C 0.80093 0.15843 0.73885 0.0
C4366 C 0.81248 0.16898 0.75256 0.0
C4367 C 0.80491 0.1857 0.76201 0.0
loop_
_geom_bond_atom_site_label_1
_geom_bond_atom_site_label_2
_geom_bond_distance
_geom_bond_site_symmetry_2
_ccdc_geom_bond_type
Li0 N17 1.990 . S
Li0 O60 1.956 . S
Li0 O61 1.970 . S
Li0 O62 1.961 1_455 S
Li1 N25 1.990 . S
Li1 O60 1.970 . S
Li1 O61 1.956 . S
Li1 O63 1.961 . S
Li2 N47 1.990 . S
Li2 O60 1.961 . S
Li2 O62 1.956 1_455 S
Li2 O63 1.970 . S
Li3 N53 1.990 . S
Li3 O61 1.961 1_655 S
Li3 O62 1.970 . S
Li3 O63 1.956 1_655 S
C4 C6 1.348 . S
C4 C7 1.356 . S
C4 O60 1.325 . S
N5 C8 1.314 . S
N5 C9 1.279 . S
C6 C4 1.348 . S
C6 C8 1.353 . S
C6 H64 0.929 . S
C7 C4 1.356 . S
C7 C9 1.358 . S
C7 H65 0.930 . S
C8 N5 1.314 . S
C8 C6 1.353 . S
C8 H66 0.930 . S
C9 N5 1.279 . S
C9 C7 1.358 . S
C9 H67 0.930 . S
C10 C13 1.348 . S
C10 C14 1.355 . S
C10 O61 1.325 . S
C11 N12 1.288 . S
C11 C14 1.358 . S
C11 H68 0.923 1_455 S
N12 C11 1.288 . S
N12 C15 1.314 . S
C13 C10 1.348 . S
C13 C15 1.353 . S
C13 H69 0.929 . S
C14 C10 1.355 . S
C14 C11 1.358 . S
C14 H70 0.931 1_455 S
C15 N12 1.314 . S
C15 C13 1.353 . S
C15 H71 0.930 . S
C16 N17 1.314 1_655 S
C16 C21 1.353 . S
C16 H22 0.930 . S
N17 Li0 1.990 . S
N17 C16 1.314 1_455 S
N17 C19 1.279 . S
C18 C19 1.358 . S
C18 C20 1.356 . S
C18 H72 0.930 . S
C19 N17 1.279 . S
C19 C18 1.358 . S
C19 H23 0.930 . S
C20 C18 1.356 . S
C20 C21 1.348 1_455 S
C21 C16 1.353 . S
C21 C20 1.348 1_655 S
C21 H73 0.929 . S
H22 C16 0.930 . S
H23 C19 0.930 . S
C24 N25 1.314 . S
C24 C26 1.353 . S
C24 H30 0.930 . S
N25 Li1 1.990 . S
N25 C24 1.314 . S
N25 C28 1.279 . S
C26 C24 1.353 . S
C26 C29 1.348 . S
C26 H74 0.929 . S
C27 C28 1.358 . S
C27 C29 1.356 . S
C27 H75 0.930 . S
C28 N25 1.279 . S
C28 C27 1.358 . S
C28 H31 0.930 . S
C29 C26 1.348 . S
C29 C27 1.356 . S
H30 C24 0.930 . S
H31 C28 0.930 . S
C32 C34 1.348 . S
C32 C35 1.356 . S
C32 O62 1.325 . S
N33 C36 1.314 . S
N33 C37 1.279 . S
C34 C32 1.348 . S
C34 C36 1.353 . S
C34 H76 0.929 . S
C35 C32 1.356 . S
C35 C37 1.358 . S
C35 H77 0.930 . S
C36 N33 1.314 . S
C36 C34 1.353 . S
C36 H78 0.930 . S
C37 N33 1.279 . S
C37 C35 1.358 . S
C37 H79 0.930 . S
C38 C39 1.348 1_455 S
C38 C40 1.356 . S
C38 O63 1.325 . S
C39 C38 1.348 1_655 S
C39 C41 1.353 . S
C39 H80 0.929 . S
C40 C38 1.356 . S
C40 C42 1.358 . S
C40 H81 0.930 . S
C41 C39 1.353 . S
C41 N43 1.314 1_655 S
C41 H82 0.930 . S
C42 C40 1.358 . S
C42 N43 1.279 . S
C42 H83 0.930 . S
N43 C41 1.314 1_455 S
N43 C42 1.279 . S
C44 C46 1.353 . S
C44 N47 1.314 . S
C44 H50 0.930 . S
C45 N47 1.279 1_655 S
C45 C48 1.358 . S
C45 H51 0.930 . S
C46 C44 1.353 . S
C46 C49 1.348 . S
C46 H84 0.929 . S
N47 Li2 1.990 . S
N47 C44 1.314 . S
N47 C45 1.279 1_455 S
C48 C45 1.358 . S
C48 C49 1.356 1_655 S
C48 H85 0.930 . S
C49 C46 1.348 . S
C49 C48 1.356 1_455 S
H50 C44 0.930 . S
H51 C45 0.930 . S
C52 N53 1.314 . S
C52 C54 1.353 . S
C52 H58 0.930 . S
N53 Li3 1.990 . S
N53 C52 1.314 . S
N53 C56 1.279 . S
C54 C52 1.353 . S
C54 C57 1.348 . S
C54 H86 0.929 . S
C55 C56 1.358 . S
C55 C57 1.356 . S
C55 H87 0.930 . S
C56 N53 1.279 . S
C56 C55 1.358 . S
C56 H59 0.930 . S
C57 C54 1.348 . S
C57 C55 1.356 . S
H58 C52 0.930 . S
H59 C56 0.930 . S
O60 Li0 1.956 . S
O60 Li1 1.970 . S
O60 Li2 1.961 . S
O60 C4 1.325 . S
O61 Li0 1.970 . S
O61 Li1 1.956 . S
O61 Li3 1.961 1_455 S
O61 C10 1.325 . S
O62 Li0 1.961 1_655 S
O62 Li2 1.956 1_655 S
O62 Li3 1.970 . S
O62 C32 1.325 . S
O63 Li1 1.961 . S
O63 Li2 1.970 . S
O63 Li3 1.956 1_455 S
O63 C38 1.325 . S
H64 C6 0.929 . S
H65 C7 0.930 . S
H66 C8 0.930 . S
H67 C9 0.930 . S
H68 C11 0.923 1_655 S
H69 C13 0.929 . S
H70 C14 0.931 1_655 S
H71 C15 0.930 . S
H72 C18 0.930 . S
H73 C21 0.929 . S
H74 C26 0.929 . S
H75 C27 0.930 . S
H76 C34 0.929 . S
H77 C35 0.930 . S
H78 C36 0.930 . S
H79 C37 0.930 . S
H80 C39 0.929 . S
H81 C40 0.930 . S
H82 C41 0.930 . S
H83 C42 0.930 . S
H84 C46 0.929 . S
H85 C48 0.930 . S
H86 C54 0.929 . S
H87 C55 0.930 . S
Li88 N105 1.990 . S
Li88 O148 1.956 1_655 S
Li88 O149 1.970 . S
Li88 O150 1.961 1_655 S
Li89 N113 1.990 . S
Li89 O148 1.970 . S
Li89 O149 1.956 1_455 S
Li89 O151 1.961 . S
Li90 N135 1.990 . S
Li90 O148 1.961 . S
Li90 O150 1.956 . S
Li90 O151 1.970 . S
Li91 N141 1.990 . S
Li91 O149 1.961 1_455 S
Li91 O150 1.970 . S
Li91 O151 1.956 . S
C92 C94 1.348 . S
C92 C95 1.356 . S
C92 O148 1.325 . S
N93 C96 1.314 . S
N93 C97 1.279 . S
C94 C92 1.348 . S
C94 C96 1.353 . S
C94 H152 0.929 1_455 S
C95 C92 1.356 . S
C95 C97 1.358 . S
C95 H153 0.930 . S
C96 N93 1.314 . S
C96 C94 1.353 . S
C96 H154 0.930 1_455 S
C97 N93 1.279 . S
C97 C95 1.358 . S
C97 H155 0.930 . S
C98 C101 1.348 . S
C98 C102 1.356 . S
C98 O149 1.325 . S
C99 N100 1.279 . S
C99 C102 1.358 . S
C99 H156 0.930 . S
N100 C99 1.279 . S
N100 C103 1.314 . S
C101 C98 1.348 . S
C101 C103 1.353 . S
C101 H157 0.929 . S
C102 C98 1.356 . S
C102 C99 1.358 . S
C102 H158 0.930 . S
C103 N100 1.314 . S
C103 C101 1.353 . S
C103 H159 0.930 . S
C104 N105 1.314 . S
C104 C109 1.353 . S
C104 H110 0.930 . S
N105 Li88 1.990 . S
N105 C104 1.314 . S
N105 C107 1.279 . S
C106 C107 1.358 . S
C106 C108 1.356 . S
C106 H160 0.930 . S
C107 N105 1.279 . S
C107 C106 1.358 . S
C107 H111 0.930 . S
C108 C106 1.356 . S
C108 C109 1.348 . S
C109 C104 1.353 . S
C109 C108 1.348 . S
C109 H161 0.929 . S
H110 C104 0.930 . S
H111 C107 0.930 . S
C112 N113 1.314 . S
C112 C114 1.353 . S
C112 H118 0.930 . S
N113 Li89 1.990 . S
N113 C112 1.314 . S
N113 C116 1.279 1_455 S
C114 C112 1.353 . S
C114 C117 1.348 . S
C114 H162 0.929 . S
C115 C116 1.358 . S
C115 C117 1.356 1_655 S
C115 H163 0.930 . S
C116 N113 1.279 1_655 S
C116 C115 1.358 . S
C116 H119 0.930 . S
C117 C114 1.348 . S
C117 C115 1.356 1_455 S
H118 C112 0.930 . S
H119 C116 0.930 . S
C120 C122 1.348 . S
C120 C123 1.356 . S
C120 O150 1.325 . S
N121 C124 1.314 . S
N121 C125 1.279 . S
C122 C120 1.348 . S
C122 C124 1.353 . S
C122 H164 0.929 . S
C123 C120 1.356 . S
C123 C125 1.358 . S
C123 H165 0.928 1_455 S
C124 N121 1.314 . S
C124 C122 1.353 . S
C124 H166 0.930 . S
C125 N121 1.279 . S
C125 C123 1.358 . S
C125 H167 0.928 1_455 S
C126 C127 1.348 . S
C126 C128 1.356 . S
C126 O151 1.325 . S
C127 C126 1.348 . S
C127 C129 1.353 . S
C127 H168 0.929 . S
C128 C126 1.356 . S
C128 C130 1.358 . S
C128 H169 0.930 . S
C129 C127 1.353 . S
C129 N131 1.314 . S
C129 H170 0.930 . S
C130 C128 1.358 . S
C130 N131 1.279 . S
C130 H171 0.930 . S
N131 C129 1.314 . S
N131 C130 1.279 . S
C132 C134 1.353 . S
C132 N135 1.314 . S
C132 H138 0.930 . S
C133 N135 1.279 . S
C133 C136 1.358 . S
C133 H139 0.930 . S
C134 C132 1.353 . S
C134 C137 1.348 . S
C134 H172 0.929 . S
N135 Li90 1.990 . S
N135 C132 1.314 . S
N135 C133 1.279 . S
C136 C133 1.358 . S
C136 C137 1.356 . S
C136 H173 0.930 . S
C137 C134 1.348 . S
C137 C136 1.356 . S
H138 C132 0.930 . S
H139 C133 0.930 . S
C140 N141 1.314 1_655 S
C140 C142 1.353 . S
C140 H146 0.930 . S
N141 Li91 1.990 . S
N141 C140 1.314 1_455 S
N141 C144 1.279 . S
C142 C140 1.353 . S
C142 C145 1.348 1_655 S
C142 H174 0.929 . S
C143 C144 1.358 . S
C143 C145 1.356 . S
C143 H175 0.930 . S
C144 N141 1.279 . S
C144 C143 1.358 . S
C144 H147 0.930 . S
C145 C142 1.348 1_455 S
C145 C143 1.356 . S
H146 C140 0.930 . S
H147 C144 0.930 . S
O148 Li88 1.956 1_455 S
O148 Li89 1.970 . S
O148 Li90 1.961 . S
O148 C92 1.325 . S
O149 Li88 1.970 . S
O149 Li89 1.956 1_655 S
O149 Li91 1.961 1_655 S
O149 C98 1.325 . S
O150 Li88 1.961 1_455 S
O150 Li90 1.956 . S
O150 Li91 1.970 . S
O150 C120 1.325 . S
O151 Li89 1.961 . S
O151 Li90 1.970 . S
O151 Li91 1.956 . S
O151 C126 1.325 . S
H152 C94 0.929 1_655 S
H153 C95 0.930 . S
H154 C96 0.930 1_655 S
H155 C97 0.930 . S
H156 C99 0.930 . S
H157 C101 0.929 . S
H158 C102 0.930 . S
H159 C103 0.930 . S
H160 C106 0.930 . S
H161 C109 0.929 . S
H162 C114 0.929 . S
H163 C115 0.930 . S
H164 C122 0.929 . S
H165 C123 0.928 1_655 S
H166 C124 0.930 . S
H167 C125 0.928 1_655 S
H168 C127 0.929 . S
H169 C128 0.930 . S
H170 C129 0.930 . S
H171 C130 0.930 . S
H172 C134 0.929 . S
H173 C136 0.930 . S
H174 C142 0.929 . S
H175 C143 0.930 . S
Li176 N193 1.990 . S
Li176 O236 1.956 . S
Li176 O237 1.970 . S
Li176 O238 1.961 . S
Li177 N201 1.990 . S
Li177 O236 1.970 . S
Li177 O237 1.956 . S
Li177 O239 1.961 . S
Li178 N223 1.990 . S
Li178 O236 1.961 . S
Li178 O238 1.956 . S
Li178 O239 1.970 . S
Li179 N229 1.990 . S
Li179 O237 1.961 . S
Li179 O238 1.970 . S
Li179 O239 1.956 . S
C180 C182 1.348 . S
C180 C183 1.356 . S
C180 O236 1.325 . S
N181 C184 1.314 . S
N181 C185 1.279 . S
C182 C180 1.348 . S
C182 C184 1.353 . S
C182 H240 0.929 . S
C183 C180 1.356 . S
C183 C185 1.358 . S
C183 H241 0.930 . S
C184 N181 1.314 . S
C184 C182 1.353 . S
C184 H242 0.930 . S
C185 N181 1.279 . S
C185 C183 1.358 . S
C185 H243 0.930 . S
C186 C189 1.348 . S
C186 C190 1.356 . S
C186 O237 1.325 . S
C187 N188 1.279 . S
C187 C190 1.358 . S
C187 H244 0.930 . S
N188 C187 1.279 . S
N188 C191 1.314 . S
C189 C186 1.348 . S
C189 C191 1.353 . S
C189 H245 0.929 . S
C190 C186 1.356 . S
C190 C187 1.358 . S
C190 H246 0.930 . S
C191 N188 1.314 . S
C191 C189 1.353 . S
C191 H247 0.930 . S
C192 N193 1.314 . S
C192 C197 1.353 . S
C192 H198 0.930 . S
N193 Li176 1.990 . S
N193 C192 1.314 . S
N193 C195 1.279 . S
C194 C195 1.358 . S
C194 C196 1.356 . S
C194 H248 0.930 . S
C195 N193 1.279 . S
C195 C194 1.358 . S
C195 H199 0.930 . S
C196 C194 1.356 . S
C196 C197 1.348 . S
C197 C192 1.353 . S
C197 C196 1.348 . S
C197 H249 0.929 . S
H198 C192 0.930 . S
H199 C195 0.930 . S
C200 N201 1.314 . S
C200 C202 1.353 . S
C200 H206 0.930 . S
N201 Li177 1.990 . S
N201 C200 1.314 . S
N201 C204 1.279 . S
C202 C200 1.353 . S
C202 C205 1.348 . S
C202 H250 0.929 . S
C203 C204 1.358 . S
C203 C205 1.356 . S
C203 H251 0.930 . S
C204 N201 1.279 . S
C204 C203 1.358 . S
C204 H207 0.930 . S
C205 C202 1.348 . S
C205 C203 1.356 . S
H206 C200 0.930 . S
H207 C204 0.930 . S
C208 C210 1.348 . S
C208 C211 1.356 . S
C208 O238 1.325 . S
N209 C212 1.314 . S
N209 C213 1.279 . S
C210 C208 1.348 . S
C210 C212 1.353 . S
C210 H252 0.929 . S
C211 C208 1.356 . S
C211 C213 1.358 . S
C211 H253 0.930 . S
C212 N209 1.314 . S
C212 C210 1.353 . S
C212 H254 0.930 . S
C213 N209 1.279 . S
C213 C211 1.358 . S
C213 H255 0.930 . S
C214 C215 1.348 . S
C214 C216 1.356 . S
C214 O239 1.325 . S
C215 C214 1.348 . S
C215 C217 1.353 . S
C215 H256 0.929 . S
C216 C214 1.356 . S
C216 C218 1.358 . S
C216 H257 0.930 . S
C217 C215 1.353 . S
C217 N219 1.314 . S
C217 H258 0.930 . S
C218 C216 1.358 . S
C218 N219 1.279 . S
C218 H259 0.930 . S
N219 C217 1.314 . S
N219 C218 1.279 . S
C220 C222 1.353 . S
C220 N223 1.314 . S
C220 H226 0.930 . S
C221 N223 1.279 . S
C221 C224 1.358 . S
C221 H227 0.930 . S
C222 C220 1.353 . S
C222 C225 1.348 . S
C222 H260 0.929 . S
N223 Li178 1.990 . S
N223 C220 1.314 . S
N223 C221 1.279 . S
C224 C221 1.358 . S
C224 C225 1.356 . S
C224 H261 0.930 . S
C225 C222 1.348 . S
C225 C224 1.356 . S
H226 C220 0.930 . S
H227 C221 0.930 . S
C228 N229 1.314 . S
C228 C230 1.353 . S
C228 H234 0.930 . S
N229 Li179 1.990 . S
N229 C228 1.314 . S
N229 C232 1.279 . S
C230 C228 1.353 . S
C230 C233 1.348 . S
C230 H262 0.929 . S
C231 C232 1.358 . S
C231 C233 1.356 . S
C231 H263 0.930 . S
C232 N229 1.279 . S
C232 C231 1.358 . S
C232 H235 0.930 . S
C233 C230 1.348 . S
C233 C231 1.356 . S
H234 C228 0.930 . S
H235 C232 0.930 . S
O236 Li176 1.956 . S
O236 Li177 1.970 . S
O236 Li178 1.961 . S
O236 C180 1.325 . S
O237 Li176 1.970 . S
O237 Li177 1.956 . S
O237 Li179 1.961 . S
O237 C186 1.325 . S
O238 Li176 1.961 . S
O238 Li178 1.956 . S
O238 Li179 1.970 . S
O238 C208 1.325 . S
O239 Li177 1.961 . S
O239 Li178 1.970 . S
O239 Li179 1.956 . S
O239 C214 1.325 . S
H240 C182 0.929 . S
H241 C183 0.930 . S
H242 C184 0.930 . S
H243 C185 0.930 . S
H244 C187 0.930 . S
H245 C189 0.929 . S
H246 C190 0.930 . S
H247 C191 0.930 . S
H248 C194 0.930 . S
H249 C197 0.929 . S
H250 C202 0.929 . S
H251 C203 0.930 . S
H252 C210 0.929 . S
H253 C211 0.930 . S
H254 C212 0.930 . S
H255 C213 0.930 . S
H256 C215 0.929 . S
H257 C216 0.930 . S
H258 C217 0.930 . S
H259 C218 0.930 . S
H260 C222 0.929 . S
H261 C224 0.930 . S
H262 C230 0.929 . S
H263 C231 0.930 . S
Li264 N281 1.990 . S
Li264 O324 1.956 . S
Li264 O325 1.970 . S
Li264 O326 1.961 . S
Li265 N289 1.990 . S
Li265 O324 1.970 . S
Li265 O325 1.956 . S
Li265 O327 1.961 . S
Li266 N311 1.990 . S
Li266 O324 1.961 . S
Li266 O326 1.956 . S
Li266 O327 1.970 . S
Li267 N317 1.990 . S
Li267 O325 1.961 . S
Li267 O326 1.970 . S
Li267 O327 1.956 . S
C268 C270 1.348 . S
C268 C271 1.356 . S
C268 O324 1.325 . S
N269 C272 1.314 . S
N269 C273 1.279 . S
C270 C268 1.348 . S
C270 C272 1.353 . S
C270 H328 0.929 . S
C271 C268 1.356 . S
C271 C273 1.358 . S
C271 H329 0.930 . S
C272 N269 1.314 . S
C272 C270 1.353 . S
C272 H330 0.930 . S
C273 N269 1.279 . S
C273 C271 1.358 . S
C273 H331 0.930 . S
C274 C277 1.348 . S
C274 C278 1.356 . S
C274 O325 1.325 . S
C275 N276 1.279 . S
C275 C278 1.358 . S
C275 H332 0.930 . S
N276 C275 1.279 . S
N276 C279 1.314 . S
C277 C274 1.348 . S
C277 C279 1.353 . S
C277 H333 0.929 . S
C278 C274 1.356 . S
C278 C275 1.358 . S
C278 H334 0.930 . S
C279 N276 1.314 . S
C279 C277 1.353 . S
C279 H335 0.930 . S
C280 N281 1.314 . S
C280 C285 1.353 . S
C280 H286 0.930 . S
N281 Li264 1.990 . S
N281 C280 1.314 . S
N281 C283 1.279 . S
C282 C283 1.358 . S
C282 C284 1.356 . S
C282 H336 0.930 . S
C283 N281 1.279 . S
C283 C282 1.358 . S
C283 H287 0.930 . S
C284 C282 1.356 . S
C284 C285 1.348 . S
C285 C280 1.353 . S
C285 C284 1.348 . S
C285 H337 0.929 . S
H286 C280 0.930 . S
H287 C283 0.930 . S
C288 N289 1.314 . S
C288 C290 1.353 . S
C288 H294 0.930 . S
N289 Li265 1.990 . S
N289 C288 1.314 . S
N289 C292 1.279 . S
C290 C288 1.353 . S
C290 C293 1.348 . S
C290 H338 0.929 . S
C291 C292 1.358 . S
C291 C293 1.356 . S
C291 H339 0.930 . S
C292 N289 1.279 . S
C292 C291 1.358 . S
C292 H295 0.930 . S
C293 C290 1.348 . S
C293 C291 1.356 . S
H294 C288 0.930 . S
H295 C292 0.930 . S
C296 C298 1.348 . S
C296 C299 1.356 . S
C296 O326 1.325 . S
N297 C300 1.314 . S
N297 C301 1.279 . S
C298 C296 1.348 . S
C298 C300 1.353 . S
C298 H340 0.929 . S
C299 C296 1.356 . S
C299 C301 1.358 . S
C299 H341 0.930 . S
C300 N297 1.314 . S
C300 C298 1.353 . S
C300 H342 0.930 . S
C301 N297 1.279 . S
C301 C299 1.358 . S
C301 H343 0.930 . S
C302 C303 1.348 . S
C302 C304 1.356 . S
C302 O327 1.325 . S
C303 C302 1.348 . S
C303 C305 1.353 . S
C303 H344 0.929 . S
C304 C302 1.356 . S
C304 C306 1.358 . S
C304 H345 0.930 . S
C305 C303 1.353 . S
C305 N307 1.314 . S
C305 H346 0.930 . S
C306 C304 1.358 . S
C306 N307 1.279 . S
C306 H347 0.930 . S
N307 C305 1.314 . S
N307 C306 1.279 . S
C308 C310 1.353 . S
C308 N311 1.314 . S
C308 H314 0.930 . S
C309 N311 1.279 . S
C309 C312 1.358 . S
C309 H315 0.930 . S
C310 C308 1.353 . S
C310 C313 1.348 . S
C310 H348 0.929 . S
N311 Li266 1.990 . S
N311 C308 1.314 . S
N311 C309 1.279 . S
C312 C309 1.358 . S
C312 C313 1.356 . S
C312 H349 0.930 . S
C313 C310 1.348 . S
C313 C312 1.356 . S
H314 C308 0.930 . S
H315 C309 0.930 . S
C316 N317 1.314 . S
C316 C318 1.353 . S
C316 H322 0.930 . S
N317 Li267 1.990 . S
N317 C316 1.314 . S
N317 C320 1.279 . S
C318 C316 1.353 . S
C318 C321 1.348 . S
C318 H350 0.929 . S
C319 C320 1.358 . S
C319 C321 1.356 . S
C319 H351 0.930 . S
C320 N317 1.279 . S
C320 C319 1.358 . S
C320 H323 0.930 . S
C321 C318 1.348 . S
C321 C319 1.356 . S
H322 C316 0.930 . S
H323 C320 0.930 . S
O324 Li264 1.956 . S
O324 Li265 1.970 . S
O324 Li266 1.961 . S
O324 C268 1.325 . S
O325 Li264 1.970 . S
O325 Li265 1.956 . S
O325 Li267 1.961 . S
O325 C274 1.325 . S
O326 Li264 1.961 . S
O326 Li266 1.956 . S
O326 Li267 1.970 . S
O326 C296 1.325 . S
O327 Li265 1.961 . S
O327 Li266 1.970 . S
O327 Li267 1.956 . S
O327 C302 1.325 . S
H328 C270 0.929 . S
H329 C271 0.930 . S
H330 C272 0.930 . S
H331 C273 0.930 . S
H332 C275 0.930 . S
H333 C277 0.929 . S
H334 C278 0.930 . S
H335 C279 0.930 . S
H336 C282 0.930 . S
H337 C285 0.929 . S
H338 C290 0.929 . S
H339 C291 0.930 . S
H340 C298 0.929 . S
H341 C299 0.930 . S
H342 C300 0.930 . S
H343 C301 0.930 . S
H344 C303 0.929 . S
H345 C304 0.930 . S
H346 C305 0.930 . S
H347 C306 0.930 . S
H348 C310 0.929 . S
H349 C312 0.930 . S
H350 C318 0.929 . S
H351 C319 0.930 . S
Li352 N369 1.990 . S
Li352 O412 1.956 . S
Li352 O413 1.970 . S
Li352 O414 1.961 1_545 S
Li353 N377 1.990 . S
Li353 O412 1.970 . S
Li353 O413 1.956 . S
Li353 O415 1.961 . S
Li354 N399 1.990 . S
Li354 O412 1.961 . S
Li354 O414 1.956 1_545 S
Li354 O415 1.970 . S
Li355 N405 1.990 . S
Li355 O413 1.961 1_565 S
Li355 O414 1.970 . S
Li355 O415 1.956 1_565 S
C356 C358 1.348 . S
C356 C359 1.356 . S
C356 O412 1.325 . S
N357 C360 1.314 . S
N357 C361 1.279 . S
C358 C356 1.348 . S
C358 C360 1.353 . S
C358 H416 0.929 . S
C359 C356 1.356 . S
C359 C361 1.358 . S
C359 H417 0.930 . S
C360 N357 1.314 . S
C360 C358 1.353 . S
C360 H418 0.930 . S
C361 N357 1.279 . S
C361 C359 1.358 . S
C361 H419 0.930 . S
C362 C365 1.348 . S
C362 C366 1.349 1_545 S
C362 O413 1.325 . S
C363 N364 1.279 1_565 S
C363 C366 1.358 . S
C363 H420 0.931 . S
N364 C363 1.279 1_545 S
N364 C367 1.314 . S
C365 C362 1.348 . S
C365 C367 1.353 . S
C365 H421 0.929 . S
C366 C362 1.349 1_565 S
C366 C363 1.358 . S
C366 H422 0.939 . S
C367 N364 1.314 . S
C367 C365 1.353 . S
C367 H423 0.930 . S
C368 N369 1.314 1_565 S
C368 C373 1.353 . S
C368 H374 0.930 . S
N369 Li352 1.990 . S
N369 C368 1.314 1_545 S
N369 C371 1.279 . S
C370 C371 1.358 . S
C370 C372 1.356 . S
C370 H424 0.930 . S
C371 N369 1.279 . S
C371 C370 1.358 . S
C371 H375 0.930 . S
C372 C370 1.356 . S
C372 C373 1.348 1_545 S
C373 C368 1.353 . S
C373 C372 1.348 1_565 S
C373 H425 0.929 . S
H374 C368 0.930 . S
H375 C371 0.930 . S
C376 N377 1.314 . S
C376 C378 1.353 . S
C376 H382 0.930 . S
N377 Li353 1.990 . S
N377 C376 1.314 . S
N377 C380 1.279 . S
C378 C376 1.353 . S
C378 C381 1.348 . S
C378 H426 0.929 . S
C379 C380 1.358 . S
C379 C381 1.356 . S
C379 H427 0.930 . S
C380 N377 1.279 . S
C380 C379 1.358 . S
C380 H383 0.930 . S
C381 C378 1.348 . S
C381 C379 1.356 . S
H382 C376 0.930 . S
H383 C380 0.930 . S
C384 C386 1.348 . S
C384 C387 1.356 . S
C384 O414 1.325 . S
N385 C388 1.314 . S
N385 C389 1.279 . S
C386 C384 1.348 . S
C386 C388 1.353 . S
C386 H428 0.929 . S
C387 C384 1.356 . S
C387 C389 1.358 . S
C387 H429 0.930 . S
C388 N385 1.314 . S
C388 C386 1.353 . S
C388 H430 0.930 . S
C389 N385 1.279 . S
C389 C387 1.358 . S
C389 H431 0.930 . S
C390 C391 1.348 1_545 S
C390 C392 1.356 . S
C390 O415 1.325 . S
C391 C390 1.348 1_565 S
C391 C393 1.353 . S
C391 H432 0.929 . S
C392 C390 1.356 . S
C392 C394 1.358 . S
C392 H433 0.930 . S
C393 C391 1.353 . S
C393 N395 1.314 1_565 S
C393 H434 0.930 . S
C394 C392 1.358 . S
C394 N395 1.279 . S
C394 H435 0.930 . S
N395 C393 1.314 1_545 S
N395 C394 1.279 . S
C396 C398 1.353 . S
C396 N399 1.314 . S
C396 H402 0.930 . S
C397 N399 1.279 1_565 S
C397 C400 1.358 . S
C397 H403 0.930 . S
C398 C396 1.353 . S
C398 C401 1.348 . S
C398 H436 0.929 . S
N399 Li354 1.990 . S
N399 C396 1.314 . S
N399 C397 1.279 1_545 S
C400 C397 1.358 . S
C400 C401 1.356 1_565 S
C400 H437 0.930 . S
C401 C398 1.348 . S
C401 C400 1.356 1_545 S
H402 C396 0.930 . S
H403 C397 0.930 . S
C404 N405 1.314 . S
C404 C406 1.353 . S
C404 H410 0.930 . S
N405 Li355 1.990 . S
N405 C404 1.314 . S
N405 C408 1.279 . S
C406 C404 1.353 . S
C406 C409 1.348 . S
C406 H438 0.929 . S
C407 C408 1.358 . S
C407 C409 1.356 . S
C407 H439 0.930 . S
C408 N405 1.279 . S
C408 C407 1.358 . S
C408 H411 0.930 . S
C409 C406 1.348 . S
C409 C407 1.356 . S
H410 C404 0.930 . S
H411 C408 0.930 . S
O412 Li352 1.956 . S
O412 Li353 1.970 . S
O412 Li354 1.961 . S
O412 C356 1.325 . S
O413 Li352 1.970 . S
O413 Li353 1.956 . S
O413 Li355 1.961 1_545 S
O413 C362 1.325 . S
O414 Li352 1.961 1_565 S
O414 Li354 1.956 1_565 S
O414 Li355 1.970 . S
O414 C384 1.325 . S
O415 Li353 1.961 . S
O415 Li354 1.970 . S
O415 Li355 1.956 1_545 S
O415 C390 1.325 . S
H416 C358 0.929 . S
H417 C359 0.930 . S
H418 C360 0.930 . S
H419 C361 0.930 . S
H420 C363 0.931 . S
H421 C365 0.929 . S
H422 C366 0.939 . S
H423 C367 0.930 . S
H424 C370 0.930 . S
H425 C373 0.929 . S
H426 C378 0.929 . S
H427 C379 0.930 . S
H428 C386 0.929 . S
H429 C387 0.930 . S
H430 C388 0.930 . S
H431 C389 0.930 . S
H432 C391 0.929 . S
H433 C392 0.930 . S
H434 C393 0.930 . S
H435 C394 0.930 . S
H436 C398 0.929 . S
H437 C400 0.930 . S
H438 C406 0.929 . S
H439 C407 0.930 . S
Li440 N457 1.990 . S
Li440 O500 1.956 . S
Li440 O501 1.970 . S
Li440 O502 1.961 . S
Li441 N465 1.990 . S
Li441 O500 1.970 . S
Li441 O501 1.956 . S
Li441 O503 1.961 . S
Li442 N487 1.990 . S
Li442 O500 1.961 . S
Li442 O502 1.956 . S
Li442 O503 1.970 . S
Li443 N493 1.990 . S
Li443 O501 1.961 . S
Li443 O502 1.970 . S
Li443 O503 1.956 . S
C444 C446 1.348 . S
C444 C447 1.356 . S
C444 O500 1.325 . S
N445 C448 1.314 . S
N445 C449 1.279 . S
C446 C444 1.348 . S
C446 C448 1.353 . S
C446 H504 0.929 . S
C447 C444 1.356 . S
C447 C449 1.358 . S
C447 H505 0.930 . S
C448 N445 1.314 . S
C448 C446 1.353 . S
C448 H506 0.930 . S
C449 N445 1.279 . S
C449 C447 1.358 . S
C449 H507 0.930 . S
C450 C453 1.348 . S
C450 C454 1.356 . S
C450 O501 1.325 . S
C451 N452 1.279 . S
C451 C454 1.358 . S
C451 H508 0.930 . S
N452 C451 1.279 . S
N452 C455 1.314 . S
C453 C450 1.348 . S
C453 C455 1.353 . S
C453 H509 0.929 . S
C454 C450 1.356 . S
C454 C451 1.358 . S
C454 H510 0.930 . S
C455 N452 1.314 . S
C455 C453 1.353 . S
C455 H511 0.930 . S
C456 N457 1.314 . S
C456 C461 1.353 . S
C456 H462 0.930 . S
N457 Li440 1.990 . S
N457 C456 1.314 . S
N457 C459 1.279 . S
C458 C459 1.358 . S
C458 C460 1.356 . S
C458 H512 0.930 . S
C459 N457 1.279 . S
C459 C458 1.358 . S
C459 H463 0.930 . S
C460 C458 1.356 . S
C460 C461 1.348 . S
C461 C456 1.353 . S
C461 C460 1.348 . S
C461 H513 0.929 . S
H462 C456 0.930 . S
H463 C459 0.930 . S
C464 N465 1.314 . S
C464 C466 1.353 . S
C464 H470 0.930 . S
N465 Li441 1.990 . S
N465 C464 1.314 . S
N465 C468 1.279 . S
C466 C464 1.353 . S
C466 C469 1.348 . S
C466 H514 0.929 . S
C467 C468 1.358 . S
C467 C469 1.356 . S
C467 H515 0.930 . S
C468 N465 1.279 . S
C468 C467 1.358 . S
C468 H471 0.930 . S
C469 C466 1.348 . S
C469 C467 1.356 . S
H470 C464 0.930 . S
H471 C468 0.930 . S
C472 C474 1.348 . S
C472 C475 1.356 . S
C472 O502 1.325 . S
N473 C476 1.314 . S
N473 C477 1.279 . S
C474 C472 1.348 . S
C474 C476 1.353 . S
C474 H516 0.929 . S
C475 C472 1.356 . S
C475 C477 1.358 . S
C475 H517 0.930 . S
C476 N473 1.314 . S
C476 C474 1.353 . S
C476 H518 0.930 . S
C477 N473 1.279 . S
C477 C475 1.358 . S
C477 H519 0.930 . S
C478 C479 1.348 . S
C478 C480 1.356 . S
C478 O503 1.325 . S
C479 C478 1.348 . S
C479 C481 1.353 . S
C479 H520 0.929 . S
C480 C478 1.356 . S
C480 C482 1.358 . S
C480 H521 0.930 . S
C481 C479 1.353 . S
C481 N483 1.314 . S
C481 H522 0.930 . S
C482 C480 1.358 . S
C482 N483 1.279 . S
C482 H523 0.930 . S
N483 C481 1.314 . S
N483 C482 1.279 . S
C484 C486 1.353 . S
C484 N487 1.314 . S
C484 H490 0.930 . S
C485 N487 1.279 . S
C485 C488 1.358 . S
C485 H491 0.930 . S
C486 C484 1.353 . S
C486 C489 1.348 . S
C486 H524 0.929 . S
N487 Li442 1.990 . S
N487 C484 1.314 . S
N487 C485 1.279 . S
C488 C485 1.358 . S
C488 C489 1.356 . S
C488 H525 0.930 . S
C489 C486 1.348 . S
C489 C488 1.356 . S
H490 C484 0.930 . S
H491 C485 0.930 . S
C492 N493 1.314 . S
C492 C494 1.353 . S
C492 H498 0.930 . S
N493 Li443 1.990 . S
N493 C492 1.314 . S
N493 C496 1.279 . S
C494 C492 1.353 . S
C494 C497 1.348 . S
C494 H526 0.929 . S
C495 C496 1.358 . S
C495 C497 1.356 . S
C495 H527 0.930 . S
C496 N493 1.279 . S
C496 C495 1.358 . S
C496 H499 0.930 . S
C497 C494 1.348 . S
C497 C495 1.356 . S
H498 C492 0.930 . S
H499 C496 0.930 . S
O500 Li440 1.956 . S
O500 Li441 1.970 . S
O500 Li442 1.961 . S
O500 C444 1.325 . S
O501 Li440 1.970 . S
O501 Li441 1.956 . S
O501 Li443 1.961 . S
O501 C450 1.325 . S
O502 Li440 1.961 . S
O502 Li442 1.956 . S
O502 Li443 1.970 . S
O502 C472 1.325 . S
O503 Li441 1.961 . S
O503 Li442 1.970 . S
O503 Li443 1.956 . S
O503 C478 1.325 . S
H504 C446 0.929 . S
H505 C447 0.930 . S
H506 C448 0.930 . S
H507 C449 0.930 . S
H508 C451 0.930 . S
H509 C453 0.929 . S
H510 C454 0.930 . S
H511 C455 0.930 . S
H512 C458 0.930 . S
H513 C461 0.929 . S
H514 C466 0.929 . S
H515 C467 0.930 . S
H516 C474 0.929 . S
H517 C475 0.930 . S
H518 C476 0.930 . S
H519 C477 0.930 . S
H520 C479 0.929 . S
H521 C480 0.930 . S
H522 C481 0.930 . S
H523 C482 0.930 . S
H524 C486 0.929 . S
H525 C488 0.930 . S
H526 C494 0.929 . S
H527 C495 0.930 . S
Li528 N545 1.990 . S
Li528 O588 1.956 1_565 S
Li528 O589 1.970 . S
Li528 O590 1.961 1_565 S
Li529 N553 1.990 . S
Li529 O588 1.970 . S
Li529 O589 1.956 1_545 S
Li529 O591 1.961 . S
Li530 N575 1.990 . S
Li530 O588 1.961 . S
Li530 O590 1.956 . S
Li530 O591 1.970 . S
Li531 N581 1.990 . S
Li531 O589 1.961 1_545 S
Li531 O590 1.970 . S
Li531 O591 1.956 . S
C532 C534 1.359 . S
C532 C535 1.356 . S
C532 O588 1.325 . S
N533 C536 1.321 . S
N533 C537 1.279 . S
C534 C532 1.359 . S
C534 C536 1.353 . S
C534 H592 0.920 1_545 S
C535 C532 1.356 . S
C535 C537 1.358 . S
C535 H593 0.930 . S
C536 N533 1.321 . S
C536 C534 1.353 . S
C536 H594 0.923 1_545 S
C537 N533 1.279 . S
C537 C535 1.358 . S
C537 H595 0.930 . S
C538 C541 1.348 . S
C538 C542 1.356 . S
C538 O589 1.325 . S
C539 N540 1.279 . S
C539 C542 1.358 . S
C539 H596 0.930 . S
N540 C539 1.279 . S
N540 C543 1.314 . S
C541 C538 1.348 . S
C541 C543 1.353 . S
C541 H597 0.929 . S
C542 C538 1.356 . S
C542 C539 1.358 . S
C542 H598 0.930 . S
C543 N540 1.314 . S
C543 C541 1.353 . S
C543 H599 0.930 . S
C544 N545 1.314 . S
C544 C549 1.353 . S
C544 H550 0.930 . S
N545 Li528 1.990 . S
N545 C544 1.314 . S
N545 C547 1.279 . S
C546 C547 1.358 . S
C546 C548 1.356 . S
C546 H600 0.930 . S
C547 N545 1.279 . S
C547 C546 1.358 . S
C547 H551 0.930 . S
C548 C546 1.356 . S
C548 C549 1.348 . S
C549 C544 1.353 . S
C549 C548 1.348 . S
C549 H601 0.929 . S
H550 C544 0.930 . S
H551 C547 0.930 . S
C552 N553 1.314 . S
C552 C554 1.353 . S
C552 H558 0.930 . S
N553 Li529 1.990 . S
N553 C552 1.314 . S
N553 C556 1.279 1_545 S
C554 C552 1.353 . S
C554 C557 1.348 . S
C554 H602 0.929 . S
C555 C556 1.358 . S
C555 C557 1.356 1_565 S
C555 H603 0.930 . S
C556 N553 1.279 1_565 S
C556 C555 1.358 . S
C556 H559 0.930 . S
C557 C554 1.348 . S
C557 C555 1.356 1_545 S
H558 C552 0.930 . S
H559 C556 0.930 . S
C560 C562 1.348 . S
C560 C563 1.356 . S
C560 O590 1.325 . S
N561 C564 1.314 . S
N561 C565 1.279 . S
C562 C560 1.348 . S
C562 C564 1.353 . S
C562 H604 0.929 . S
C563 C560 1.356 . S
C563 C565 1.358 . S
C563 H605 0.930 1_545 S
C564 N561 1.314 . S
C564 C562 1.353 . S
C564 H606 0.930 . S
C565 N561 1.279 . S
C565 C563 1.358 . S
C565 H607 0.929 . S
C566 C567 1.348 . S
C566 C568 1.356 . S
C566 O591 1.325 . S
C567 C566 1.348 . S
C567 C569 1.353 . S
C567 H608 0.929 . S
C568 C566 1.356 . S
C568 C570 1.358 . S
C568 H609 0.930 . S
C569 C567 1.353 . S
C569 N571 1.314 . S
C569 H610 0.930 . S
C570 C568 1.358 . S
C570 N571 1.279 . S
C570 H611 0.930 . S
N571 C569 1.314 . S
N571 C570 1.279 . S
C572 C574 1.353 . S
C572 N575 1.314 . S
C572 H578 0.930 . S
C573 N575 1.279 . S
C573 C576 1.358 . S
C573 H579 0.930 . S
C574 C572 1.353 . S
C574 C577 1.348 . S
C574 H612 0.929 . S
N575 Li530 1.990 . S
N575 C572 1.314 . S
N575 C573 1.279 . S
C576 C573 1.358 . S
C576 C577 1.356 . S
C576 H613 0.930 . S
C577 C574 1.348 . S
C577 C576 1.356 . S
H578 C572 0.930 . S
H579 C573 0.930 . S
C580 N581 1.314 1_565 S
C580 C582 1.353 . S
C580 H586 0.930 . S
N581 Li531 1.990 . S
N581 C580 1.314 1_545 S
N581 C584 1.279 . S
C582 C580 1.353 . S
C582 C585 1.348 1_565 S
C582 H614 0.929 . S
C583 C584 1.358 . S
C583 C585 1.356 . S
C583 H615 0.930 . S
C584 N581 1.279 . S
C584 C583 1.358 . S
C584 H587 0.930 . S
C585 C582 1.348 1_545 S
C585 C583 1.356 . S
H586 C580 0.930 . S
H587 C584 0.930 . S
O588 Li528 1.956 1_545 S
O588 Li529 1.970 . S
O588 Li530 1.961 . S
O588 C532 1.325 . S
O589 Li528 1.970 . S
O589 Li529 1.956 1_565 S
O589 Li531 1.961 1_565 S
O589 C538 1.325 . S
O590 Li528 1.961 1_545 S
O590 Li530 1.956 . S
O590 Li531 1.970 . S
O590 C560 1.325 . S
O591 Li529 1.961 . S
O591 Li530 1.970 . S
O591 Li531 1.956 . S
O591 C566 1.325 . S
H592 C534 0.920 1_565 S
H593 C535 0.930 . S
H594 C536 0.923 1_565 S
H595 C537 0.930 . S
H596 C539 0.930 . S
H597 C541 0.929 . S
H598 C542 0.930 . S
H599 C543 0.930 . S
H600 C546 0.930 . S
H601 C549 0.929 . S
H602 C554 0.929 . S
H603 C555 0.930 . S
H604 C562 0.929 . S
H605 C563 0.930 1_565 S
H606 C564 0.930 . S
H607 C565 0.929 . S
H608 C567 0.929 . S
H609 C568 0.930 . S
H610 C569 0.930 . S
H611 C570 0.930 . S
H612 C574 0.929 . S
H613 C576 0.930 . S
H614 C582 0.929 . S
H615 C583 0.930 . S
Li616 N633 1.990 . S
Li616 O676 1.956 . S
Li616 O677 1.970 . S
Li616 O678 1.961 . S
Li617 N641 1.990 . S
Li617 O676 1.970 . S
Li617 O677 1.956 . S
Li617 O679 1.961 1_554 S
Li618 N663 1.990 . S
Li618 O676 1.961 1_556 S
Li618 O678 1.956 1_556 S
Li618 O679 1.970 . S
Li619 N669 1.990 . S
Li619 O677 1.961 . S
Li619 O678 1.970 . S
Li619 O679 1.956 1_554 S
C620 C622 1.348 . S
C620 C623 1.356 . S
C620 O676 1.325 . S
N621 C624 1.314 . S
N621 C625 1.279 . S
C622 C620 1.348 . S
C622 C624 1.353 . S
C622 H680 0.929 . S
C623 C620 1.356 . S
C623 C625 1.358 . S
C623 H681 0.930 1_554 S
C624 N621 1.314 . S
C624 C622 1.353 . S
C624 H682 0.930 . S
C625 N621 1.279 . S
C625 C623 1.358 . S
C625 H683 0.920 1_554 S
C626 C629 1.348 . S
C626 C630 1.356 . S
C626 O677 1.325 . S
C627 N628 1.279 . S
C627 C630 1.358 . S
C627 H684 0.930 . S
N628 C627 1.279 . S
N628 C631 1.314 . S
C629 C626 1.348 . S
C629 C631 1.353 . S
C629 H685 0.929 . S
C630 C626 1.356 . S
C630 C627 1.358 . S
C630 H686 0.930 . S
C631 N628 1.314 . S
C631 C629 1.353 . S
C631 H687 0.930 . S
C632 N633 1.314 . S
C632 C637 1.353 . S
C632 H638 0.930 . S
N633 Li616 1.990 . S
N633 C632 1.314 . S
N633 C635 1.279 . S
C634 C635 1.358 . S
C634 C636 1.356 . S
C634 H688 0.930 . S
C635 N633 1.279 . S
C635 C634 1.358 . S
C635 H639 0.930 . S
C636 C634 1.356 . S
C636 C637 1.348 . S
C637 C632 1.353 . S
C637 C636 1.348 . S
C637 H689 0.929 . S
H638 C632 0.930 . S
H639 C635 0.930 . S
C640 N641 1.314 1_556 S
C640 C642 1.353 . S
C640 H646 0.930 . S
N641 Li617 1.990 . S
N641 C640 1.314 1_554 S
N641 C644 1.279 . S
C642 C640 1.353 . S
C642 C645 1.348 1_556 S
C642 H690 0.929 . S
C643 C644 1.358 . S
C643 C645 1.356 . S
C643 H691 0.930 . S
C644 N641 1.279 . S
C644 C643 1.358 . S
C644 H647 0.930 . S
C645 C642 1.348 1_554 S
C645 C643 1.356 . S
H646 C640 0.930 . S
H647 C644 0.930 . S
C648 C650 1.342 1_554 S
C648 C651 1.356 . S
C648 O678 1.325 . S
N649 C652 1.310 1_554 S
N649 C653 1.279 . S
C650 C648 1.342 1_556 S
C650 C652 1.353 . S
C650 H692 0.936 . S
C651 C648 1.356 . S
C651 C653 1.358 . S
C651 H693 0.930 . S
C652 N649 1.310 1_556 S
C652 C650 1.353 . S
C652 H694 0.934 . S
C653 N649 1.279 . S
C653 C651 1.358 . S
C653 H695 0.930 . S
C654 C655 1.348 . S
C654 C656 1.356 . S
C654 O679 1.325 . S
C655 C654 1.348 . S
C655 C657 1.353 . S
C655 H696 0.929 . S
C656 C654 1.356 . S
C656 C658 1.358 . S
C656 H697 0.930 . S
C657 C655 1.353 . S
C657 N659 1.314 . S
C657 H698 0.930 . S
C658 C656 1.358 . S
C658 N659 1.279 . S
C658 H699 0.930 . S
N659 C657 1.314 . S
N659 C658 1.279 . S
C660 C662 1.353 . S
C660 N663 1.314 . S
C660 H666 0.930 . S
C661 N663 1.279 . S
C661 C664 1.358 . S
C661 H667 0.930 . S
C662 C660 1.353 . S
C662 C665 1.348 . S
C662 H700 0.929 . S
N663 Li618 1.990 . S
N663 C660 1.314 . S
N663 C661 1.279 . S
C664 C661 1.358 . S
C664 C665 1.356 . S
C664 H701 0.930 . S
C665 C662 1.348 . S
C665 C664 1.356 . S
H666 C660 0.930 . S
H667 C661 0.930 . S
C668 N669 1.314 . S
C668 C670 1.353 . S
C668 H674 0.930 . S
N669 Li619 1.990 . S
N669 C668 1.314 . S
N669 C672 1.279 1_554 S
C670 C668 1.353 . S
C670 C673 1.348 . S
C670 H702 0.929 . S
C671 C672 1.358 . S
C671 C673 1.356 1_556 S
C671 H703 0.930 . S
C672 N669 1.279 1_556 S
C672 C671 1.358 . S
C672 H675 0.930 . S
C673 C670 1.348 . S
C673 C671 1.356 1_554 S
H674 C668 0.930 . S
H675 C672 0.930 . S
O676 Li616 1.956 . S
O676 Li617 1.970 . S
O676 Li618 1.961 1_554 S
O676 C620 1.325 . S
O677 Li616 1.970 . S
O677 Li617 1.956 . S
O677 Li619 1.961 . S
O677 C626 1.325 . S
O678 Li616 1.961 . S
O678 Li618 1.956 1_554 S
O678 Li619 1.970 . S
O678 C648 1.325 . S
O679 Li617 1.961 1_556 S
O679 Li618 1.970 . S
O679 Li619 1.956 1_556 S
O679 C654 1.325 . S
H680 C622 0.929 . S
H681 C623 0.930 1_556 S
H682 C624 0.930 . S
H683 C625 0.920 1_556 S
H684 C627 0.930 . S
H685 C629 0.929 . S
H686 C630 0.930 . S
H687 C631 0.930 . S
H688 C634 0.930 . S
H689 C637 0.929 . S
H690 C642 0.929 . S
H691 C643 0.930 . S
H692 C650 0.936 . S
H693 C651 0.930 . S
H694 C652 0.934 . S
H695 C653 0.930 . S
H696 C655 0.929 . S
H697 C656 0.930 . S
H698 C657 0.930 . S
H699 C658 0.930 . S
H700 C662 0.929 . S
H701 C664 0.930 . S
H702 C670 0.929 . S
H703 C671 0.930 . S
Li704 N721 1.990 . S
Li704 O764 1.956 . S
Li704 O765 1.970 . S
Li704 O766 1.961 1_554 S
Li705 N729 1.990 . S
Li705 O764 1.970 . S
Li705 O765 1.956 . S
Li705 O767 1.961 . S
Li706 N751 1.990 . S
Li706 O764 1.961 . S
Li706 O766 1.956 1_554 S
Li706 O767 1.970 . S
Li707 N757 1.990 . S
Li707 O765 1.961 1_556 S
Li707 O766 1.970 . S
Li707 O767 1.956 1_556 S
C708 C710 1.348 . S
C708 C711 1.356 . S
C708 O764 1.325 . S
N709 C712 1.314 . S
N709 C713 1.279 . S
C710 C708 1.348 . S
C710 C712 1.353 . S
C710 H768 0.929 . S
C711 C708 1.356 . S
C711 C713 1.358 . S
C711 H769 0.930 . S
C712 N709 1.314 . S
C712 C710 1.353 . S
C712 H770 0.930 . S
C713 N709 1.279 . S
C713 C711 1.358 . S
C713 H771 0.930 . S
C714 C717 1.348 . S
C714 C718 1.356 . S
C714 O765 1.325 . S
C715 N716 1.279 . S
C715 C718 1.358 . S
C715 H772 0.930 1_554 S
N716 C715 1.279 . S
N716 C719 1.314 . S
C717 C714 1.348 . S
C717 C719 1.353 . S
C717 H773 0.929 . S
C718 C714 1.356 . S
C718 C715 1.358 . S
C718 H774 0.930 1_554 S
C719 N716 1.314 . S
C719 C717 1.353 . S
C719 H775 0.930 . S
C720 N721 1.314 1_556 S
C720 C725 1.353 . S
C720 H726 0.930 . S
N721 Li704 1.990 . S
N721 C720 1.314 1_554 S
N721 C723 1.279 . S
C722 C723 1.358 . S
C722 C724 1.356 . S
C722 H776 0.930 . S
C723 N721 1.279 . S
C723 C722 1.358 . S
C723 H727 0.930 . S
C724 C722 1.356 . S
C724 C725 1.348 1_554 S
C725 C720 1.353 . S
C725 C724 1.348 1_556 S
C725 H777 0.929 . S
H726 C720 0.930 . S
H727 C723 0.930 . S
C728 N729 1.314 . S
C728 C730 1.353 . S
C728 H734 0.930 . S
N729 Li705 1.990 . S
N729 C728 1.314 . S
N729 C732 1.279 . S
C730 C728 1.353 . S
C730 C733 1.348 . S
C730 H778 0.929 . S
C731 C732 1.358 . S
C731 C733 1.356 . S
C731 H779 0.930 . S
C732 N729 1.279 . S
C732 C731 1.358 . S
C732 H735 0.930 . S
C733 C730 1.348 . S
C733 C731 1.356 . S
H734 C728 0.930 . S
H735 C732 0.930 . S
C736 C738 1.348 . S
C736 C739 1.356 . S
C736 O766 1.325 . S
N737 C740 1.314 . S
N737 C741 1.279 . S
C738 C736 1.348 . S
C738 C740 1.353 . S
C738 H780 0.929 . S
C739 C736 1.356 . S
C739 C741 1.358 . S
C739 H781 0.930 . S
C740 N737 1.314 . S
C740 C738 1.353 . S
C740 H782 0.930 . S
C741 N737 1.279 . S
C741 C739 1.358 . S
C741 H783 0.930 . S
C742 C743 1.332 1_554 S
C742 C744 1.356 . S
C742 O767 1.325 . S
C743 C742 1.332 1_556 S
C743 C745 1.353 . S
C743 H784 0.947 . S
C744 C742 1.356 . S
C744 C746 1.358 . S
C744 H785 0.930 . S
C745 C743 1.353 . S
C745 N747 1.303 1_556 S
C745 H786 0.945 . S
C746 C744 1.358 . S
C746 N747 1.279 . S
C746 H787 0.930 . S
N747 C745 1.303 1_554 S
N747 C746 1.279 . S
C748 C750 1.353 . S
C748 N751 1.314 . S
C748 H754 0.930 . S
C749 N751 1.279 1_556 S
C749 C752 1.358 . S
C749 H755 0.930 . S
C750 C748 1.353 . S
C750 C753 1.348 . S
C750 H788 0.929 . S
N751 Li706 1.990 . S
N751 C748 1.314 . S
N751 C749 1.279 1_554 S
C752 C749 1.358 . S
C752 C753 1.356 1_556 S
C752 H789 0.930 . S
C753 C750 1.348 . S
C753 C752 1.356 1_554 S
H754 C748 0.930 . S
H755 C749 0.930 . S
C756 N757 1.314 . S
C756 C758 1.353 . S
C756 H762 0.930 . S
N757 Li707 1.990 . S
N757 C756 1.314 . S
N757 C760 1.279 . S
C758 C756 1.353 . S
C758 C761 1.348 . S
C758 H790 0.929 . S
C759 C760 1.358 . S
C759 C761 1.356 . S
C759 H791 0.930 . S
C760 N757 1.279 . S
C760 C759 1.358 . S
C760 H763 0.930 . S
C761 C758 1.348 . S
C761 C759 1.356 . S
H762 C756 0.930 . S
H763 C760 0.930 . S
O764 Li704 1.956 . S
O764 Li705 1.970 . S
O764 Li706 1.961 . S
O764 C708 1.325 . S
O765 Li704 1.970 . S
O765 Li705 1.956 . S
O765 Li707 1.961 1_554 S
O765 C714 1.325 . S
O766 Li704 1.961 1_556 S
O766 Li706 1.956 1_556 S
O766 Li707 1.970 . S
O766 C736 1.325 . S
O767 Li705 1.961 . S
O767 Li706 1.970 . S
O767 Li707 1.956 1_554 S
O767 C742 1.325 . S
H768 C710 0.929 . S
H769 C711 0.930 . S
H770 C712 0.930 . S
H771 C713 0.930 . S
H772 C715 0.930 1_556 S
H773 C717 0.929 . S
H774 C718 0.930 1_556 S
H775 C719 0.930 . S
H776 C722 0.930 . S
H777 C725 0.929 . S
H778 C730 0.929 . S
H779 C731 0.930 . S
H780 C738 0.929 . S
H781 C739 0.930 . S
H782 C740 0.930 . S
H783 C741 0.930 . S
H784 C743 0.947 . S
H785 C744 0.930 . S
H786 C745 0.945 . S
H787 C746 0.930 . S
H788 C750 0.929 . S
H789 C752 0.930 . S
H790 C758 0.929 . S
H791 C759 0.930 . S
Li792 N809 1.990 . S
Li792 O852 1.956 . S
Li792 O853 1.970 . S
Li792 O854 1.961 . S
Li793 N817 1.990 . S
Li793 O852 1.970 . S
Li793 O853 1.956 . S
Li793 O855 1.961 . S
Li794 N839 1.990 . S
Li794 O852 1.961 . S
Li794 O854 1.956 . S
Li794 O855 1.970 . S
Li795 N845 1.990 . S
Li795 O853 1.961 . S
Li795 O854 1.970 . S
Li795 O855 1.956 . S
C796 C798 1.348 . S
C796 C799 1.356 . S
C796 O852 1.325 . S
N797 C800 1.314 . S
N797 C801 1.279 . S
C798 C796 1.348 . S
C798 C800 1.353 . S
C798 H856 0.929 . S
C799 C796 1.356 . S
C799 C801 1.358 . S
C799 H857 0.930 . S
C800 N797 1.314 . S
C800 C798 1.353 . S
C800 H858 0.930 . S
C801 N797 1.279 . S
C801 C799 1.358 . S
C801 H859 0.930 . S
C802 C805 1.348 . S
C802 C806 1.356 . S
C802 O853 1.325 . S
C803 N804 1.279 . S
C803 C806 1.358 . S
C803 H860 0.930 . S
N804 C803 1.279 . S
N804 C807 1.314 . S
C805 C802 1.348 . S
C805 C807 1.353 . S
C805 H861 0.929 . S
C806 C802 1.356 . S
C806 C803 1.358 . S
C806 H862 0.930 . S
C807 N804 1.314 . S
C807 C805 1.353 . S
C807 H863 0.930 . S
C808 N809 1.314 . S
C808 C813 1.353 . S
C808 H814 0.930 . S
N809 Li792 1.990 . S
N809 C808 1.314 . S
N809 C811 1.279 . S
C810 C811 1.358 . S
C810 C812 1.356 . S
C810 H864 0.930 . S
C811 N809 1.279 . S
C811 C810 1.358 . S
C811 H815 0.930 . S
C812 C810 1.356 . S
C812 C813 1.348 . S
C813 C808 1.353 . S
C813 C812 1.348 . S
C813 H865 0.929 . S
H814 C808 0.930 . S
H815 C811 0.930 . S
C816 N817 1.314 . S
C816 C818 1.353 . S
C816 H822 0.930 . S
N817 Li793 1.990 . S
N817 C816 1.314 . S
N817 C820 1.279 . S
C818 C816 1.353 . S
C818 C821 1.348 . S
C818 H866 0.929 . S
C819 C820 1.358 . S
C819 C821 1.356 . S
C819 H867 0.930 . S
C820 N817 1.279 . S
C820 C819 1.358 . S
C820 H823 0.930 . S
C821 C818 1.348 . S
C821 C819 1.356 . S
H822 C816 0.930 . S
H823 C820 0.930 . S
C824 C826 1.348 . S
C824 C827 1.356 . S
C824 O854 1.325 . S
N825 C828 1.314 . S
N825 C829 1.279 . S
C826 C824 1.348 . S
C826 C828 1.353 . S
C826 H868 0.929 . S
C827 C824 1.356 . S
C827 C829 1.358 . S
C827 H869 0.930 . S
C828 N825 1.314 . S
C828 C826 1.353 . S
C828 H870 0.930 . S
C829 N825 1.279 . S
C829 C827 1.358 . S
C829 H871 0.930 . S
C830 C831 1.348 . S
C830 C832 1.356 . S
C830 O855 1.325 . S
C831 C830 1.348 . S
C831 C833 1.353 . S
C831 H872 0.929 . S
C832 C830 1.356 . S
C832 C834 1.358 . S
C832 H873 0.930 . S
C833 C831 1.353 . S
C833 N835 1.314 . S
C833 H874 0.930 . S
C834 C832 1.358 . S
C834 N835 1.279 . S
C834 H875 0.930 . S
N835 C833 1.314 . S
N835 C834 1.279 . S
C836 C838 1.353 . S
C836 N839 1.314 . S
C836 H842 0.930 . S
C837 N839 1.279 . S
C837 C840 1.358 . S
C837 H843 0.930 . S
C838 C836 1.353 . S
C838 C841 1.348 . S
C838 H876 0.929 . S
N839 Li794 1.990 . S
N839 C836 1.314 . S
N839 C837 1.279 . S
C840 C837 1.358 . S
C840 C841 1.356 . S
C840 H877 0.930 . S
C841 C838 1.348 . S
C841 C840 1.356 . S
H842 C836 0.930 . S
H843 C837 0.930 . S
C844 N845 1.314 . S
C844 C846 1.353 . S
C844 H850 0.930 . S
N845 Li795 1.990 . S
N845 C844 1.314 . S
N845 C848 1.279 . S
C846 C844 1.353 . S
C846 C849 1.348 . S
C846 H878 0.929 . S
C847 C848 1.358 . S
C847 C849 1.356 . S
C847 H879 0.930 . S
C848 N845 1.279 . S
C848 C847 1.358 . S
C848 H851 0.930 . S
C849 C846 1.348 . S
C849 C847 1.356 . S
H850 C844 0.930 . S
H851 C848 0.930 . S
O852 Li792 1.956 . S
O852 Li793 1.970 . S
O852 Li794 1.961 . S
O852 C796 1.325 . S
O853 Li792 1.970 . S
O853 Li793 1.956 . S
O853 Li795 1.961 . S
O853 C802 1.325 . S
O854 Li792 1.961 . S
O854 Li794 1.956 . S
O854 Li795 1.970 . S
O854 C824 1.325 . S
O855 Li793 1.961 . S
O855 Li794 1.970 . S
O855 Li795 1.956 . S
O855 C830 1.325 . S
H856 C798 0.929 . S
H857 C799 0.930 . S
H858 C800 0.930 . S
H859 C801 0.930 . S
H860 C803 0.930 . S
H861 C805 0.929 . S
H862 C806 0.930 . S
H863 C807 0.930 . S
H864 C810 0.930 . S
H865 C813 0.929 . S
H866 C818 0.929 . S
H867 C819 0.930 . S
H868 C826 0.929 . S
H869 C827 0.930 . S
H870 C828 0.930 . S
H871 C829 0.930 . S
H872 C831 0.929 . S
H873 C832 0.930 . S
H874 C833 0.930 . S
H875 C834 0.930 . S
H876 C838 0.929 . S
H877 C840 0.930 . S
H878 C846 0.929 . S
H879 C847 0.930 . S
Li880 N897 1.990 . S
Li880 O940 1.956 . S
Li880 O941 1.970 . S
Li880 O942 1.961 . S
Li881 N905 1.990 . S
Li881 O940 1.970 . S
Li881 O941 1.956 . S
Li881 O943 1.961 . S
Li882 N927 1.990 . S
Li882 O940 1.961 . S
Li882 O942 1.956 . S
Li882 O943 1.970 . S
Li883 N933 1.990 . S
Li883 O941 1.961 . S
Li883 O942 1.970 . S
Li883 O943 1.956 . S
C884 C886 1.348 . S
C884 C887 1.356 . S
C884 O940 1.325 . S
N885 C888 1.314 . S
N885 C889 1.279 . S
C886 C884 1.348 . S
C886 C888 1.353 . S
C886 H944 0.929 . S
C887 C884 1.356 . S
C887 C889 1.358 . S
C887 H945 0.930 . S
C888 N885 1.314 . S
C888 C886 1.353 . S
C888 H946 0.930 . S
C889 N885 1.279 . S
C889 C887 1.358 . S
C889 H947 0.930 . S
C890 C893 1.348 . S
C890 C894 1.356 . S
C890 O941 1.325 . S
C891 N892 1.279 . S
C891 C894 1.358 . S
C891 H948 0.930 . S
N892 C891 1.279 . S
N892 C895 1.314 . S
C893 C890 1.348 . S
C893 C895 1.353 . S
C893 H949 0.929 . S
C894 C890 1.356 . S
C894 C891 1.358 . S
C894 H950 0.930 . S
C895 N892 1.314 . S
C895 C893 1.353 . S
C895 H951 0.930 . S
C896 N897 1.314 . S
C896 C901 1.353 . S
C896 H902 0.930 . S
N897 Li880 1.990 . S
N897 C896 1.314 . S
N897 C899 1.279 . S
C898 C899 1.358 . S
C898 C900 1.356 . S
C898 H952 0.930 . S
C899 N897 1.279 . S
C899 C898 1.358 . S
C899 H903 0.930 . S
C900 C898 1.356 . S
C900 C901 1.348 . S
C901 C896 1.353 . S
C901 C900 1.348 . S
C901 H953 0.929 . S
H902 C896 0.930 . S
H903 C899 0.930 . S
C904 N905 1.314 . S
C904 C906 1.353 . S
C904 H910 0.930 . S
N905 Li881 1.990 . S
N905 C904 1.314 . S
N905 C908 1.279 . S
C906 C904 1.353 . S
C906 C909 1.348 . S
C906 H954 0.929 . S
C907 C908 1.358 . S
C907 C909 1.356 . S
C907 H955 0.930 . S
C908 N905 1.279 . S
C908 C907 1.358 . S
C908 H911 0.930 . S
C909 C906 1.348 . S
C909 C907 1.356 . S
H910 C904 0.930 . S
H911 C908 0.930 . S
C912 C914 1.348 . S
C912 C915 1.356 . S
C912 O942 1.325 . S
N913 C916 1.314 . S
N913 C917 1.279 . S
C914 C912 1.348 . S
C914 C916 1.353 . S
C914 H956 0.929 . S
C915 C912 1.356 . S
C915 C917 1.358 . S
C915 H957 0.930 . S
C916 N913 1.314 . S
C916 C914 1.353 . S
C916 H958 0.930 . S
C917 N913 1.279 . S
C917 C915 1.358 . S
C917 H959 0.930 . S
C918 C919 1.348 . S
C918 C920 1.356 . S
C918 O943 1.325 . S
C919 C918 1.348 . S
C919 C921 1.353 . S
C919 H960 0.929 . S
C920 C918 1.356 . S
C920 C922 1.358 . S
C920 H961 0.930 . S
C921 C919 1.353 . S
C921 N923 1.314 . S
C921 H962 0.930 . S
C922 C920 1.358 . S
C922 N923 1.279 . S
C922 H963 0.930 . S
N923 C921 1.314 . S
N923 C922 1.279 . S
C924 C926 1.353 . S
C924 N927 1.314 . S
C924 H930 0.930 . S
C925 N927 1.279 . S
C925 C928 1.358 . S
C925 H931 0.930 . S
C926 C924 1.353 . S
C926 C929 1.348 . S
C926 H964 0.929 . S
N927 Li882 1.990 . S
N927 C924 1.314 . S
N927 C925 1.279 . S
C928 C925 1.358 . S
C928 C929 1.356 . S
C928 H965 0.930 . S
C929 C926 1.348 . S
C929 C928 1.356 . S
H930 C924 0.930 . S
H931 C925 0.930 . S
C932 N933 1.314 . S
C932 C934 1.353 . S
C932 H938 0.930 . S
N933 Li883 1.990 . S
N933 C932 1.314 . S
N933 C936 1.279 . S
C934 C932 1.353 . S
C934 C937 1.348 . S
C934 H966 0.929 . S
C935 C936 1.358 . S
C935 C937 1.356 . S
C935 H967 0.930 . S
C936 N933 1.279 . S
C936 C935 1.358 . S
C936 H939 0.930 . S
C937 C934 1.348 . S
C937 C935 1.356 . S
H938 C932 0.930 . S
H939 C936 0.930 . S
O940 Li880 1.956 . S
O940 Li881 1.970 . S
O940 Li882 1.961 . S
O940 C884 1.325 . S
O941 Li880 1.970 . S
O941 Li881 1.956 . S
O941 Li883 1.961 . S
O941 C890 1.325 . S
O942 Li880 1.961 . S
O942 Li882 1.956 . S
O942 Li883 1.970 . S
O942 C912 1.325 . S
O943 Li881 1.961 . S
O943 Li882 1.970 . S
O943 Li883 1.956 . S
O943 C918 1.325 . S
H944 C886 0.929 . S
H945 C887 0.930 . S
H946 C888 0.930 . S
H947 C889 0.930 . S
H948 C891 0.930 . S
H949 C893 0.929 . S
H950 C894 0.930 . S
H951 C895 0.930 . S
H952 C898 0.930 . S
H953 C901 0.929 . S
H954 C906 0.929 . S
H955 C907 0.930 . S
H956 C914 0.929 . S
H957 C915 0.930 . S
H958 C916 0.930 . S
H959 C917 0.930 . S
H960 C919 0.929 . S
H961 C920 0.930 . S
H962 C921 0.930 . S
H963 C922 0.930 . S
H964 C926 0.929 . S
H965 C928 0.930 . S
H966 C934 0.929 . S
H967 C935 0.930 . S
Li968 N985 1.990 . S
Li968 O1028 1.956 . S
Li968 O1029 1.970 . S
Li968 O1030 1.961 . S
Li969 N993 1.990 . S
Li969 O1028 1.970 . S
Li969 O1029 1.956 . S
Li969 O1031 1.961 . S
Li970 N1015 1.990 . S
Li970 O1028 1.961 . S
Li970 O1030 1.956 . S
Li970 O1031 1.970 . S
Li971 N1021 1.990 . S
Li971 O1029 1.961 . S
Li971 O1030 1.970 . S
Li971 O1031 1.956 . S
C972 C974 1.348 . S
C972 C975 1.356 . S
C972 O1028 1.325 . S
N973 C976 1.314 . S
N973 C977 1.279 . S
C974 C972 1.348 . S
C974 C976 1.353 . S
C974 H1032 0.929 . S
C975 C972 1.356 . S
C975 C977 1.358 . S
C975 H1033 0.930 . S
C976 N973 1.314 . S
C976 C974 1.353 . S
C976 H1034 0.930 . S
C977 N973 1.279 . S
C977 C975 1.358 . S
C977 H1035 0.930 . S
C978 C981 1.348 . S
C978 C982 1.356 . S
C978 O1029 1.325 . S
C979 N980 1.279 . S
C979 C982 1.358 . S
C979 H1036 0.930 . S
N980 C979 1.279 . S
N980 C983 1.314 . S
C981 C978 1.348 . S
C981 C983 1.353 . S
C981 H1037 0.929 . S
C982 C978 1.356 . S
C982 C979 1.358 . S
C982 H1038 0.930 . S
C983 N980 1.314 . S
C983 C981 1.353 . S
C983 H1039 0.930 . S
C984 N985 1.314 . S
C984 C989 1.353 . S
C984 H990 0.930 . S
N985 Li968 1.990 . S
N985 C984 1.314 . S
N985 C987 1.279 . S
C986 C987 1.358 . S
C986 C988 1.356 . S
C986 H1040 0.930 . S
C987 N985 1.279 . S
C987 C986 1.358 . S
C987 H991 0.930 . S
C988 C986 1.356 . S
C988 C989 1.348 . S
C989 C984 1.353 . S
C989 C988 1.348 . S
C989 H1041 0.929 . S
H990 C984 0.930 . S
H991 C987 0.930 . S
C992 N993 1.314 . S
C992 C994 1.353 . S
C992 H998 0.930 . S
N993 Li969 1.990 . S
N993 C992 1.314 . S
N993 C996 1.279 . S
C994 C992 1.353 . S
C994 C997 1.348 . S
C994 H1042 0.929 . S
C995 C996 1.358 . S
C995 C997 1.356 . S
C995 H1043 0.930 . S
C996 N993 1.279 . S
C996 C995 1.358 . S
C996 H999 0.930 . S
C997 C994 1.348 . S
C997 C995 1.356 . S
H998 C992 0.930 . S
H999 C996 0.930 . S
C1000 C1002 1.348 . S
C1000 C1003 1.356 . S
C1000 O1030 1.325 . S
N1001 C1004 1.314 . S
N1001 C1005 1.279 . S
C1002 C1000 1.348 . S
C1002 C1004 1.353 . S
C1002 H1044 0.929 . S
C1003 C1000 1.356 . S
C1003 C1005 1.358 . S
C1003 H1045 0.930 . S
C1004 N1001 1.314 . S
C1004 C1002 1.353 . S
C1004 H1046 0.930 . S
C1005 N1001 1.279 . S
C1005 C1003 1.358 . S
C1005 H1047 0.930 . S
C1006 C1007 1.348 . S
C1006 C1008 1.356 . S
C1006 O1031 1.325 . S
C1007 C1006 1.348 . S
C1007 C1009 1.353 . S
C1007 H1048 0.929 . S
C1008 C1006 1.356 . S
C1008 C1010 1.358 . S
C1008 H1049 0.930 . S
C1009 C1007 1.353 . S
C1009 N1011 1.314 . S
C1009 H1050 0.930 . S
C1010 C1008 1.358 . S
C1010 N1011 1.279 . S
C1010 H1051 0.930 . S
N1011 C1009 1.314 . S
N1011 C1010 1.279 . S
C1012 C1014 1.353 . S
C1012 N1015 1.314 . S
C1012 H1018 0.930 . S
C1013 N1015 1.279 . S
C1013 C1016 1.358 . S
C1013 H1019 0.930 . S
C1014 C1012 1.353 . S
C1014 C1017 1.348 . S
C1014 H1052 0.929 . S
N1015 Li970 1.990 . S
N1015 C1012 1.314 . S
N1015 C1013 1.279 . S
C1016 C1013 1.358 . S
C1016 C1017 1.356 . S
C1016 H1053 0.930 . S
C1017 C1014 1.348 . S
C1017 C1016 1.356 . S
H1018 C1012 0.930 . S
H1019 C1013 0.930 . S
C1020 N1021 1.314 . S
C1020 C1022 1.353 . S
C1020 H1026 0.930 . S
N1021 Li971 1.990 . S
N1021 C1020 1.314 . S
N1021 C1024 1.279 . S
C1022 C1020 1.353 . S
C1022 C1025 1.348 . S
C1022 H1054 0.929 . S
C1023 C1024 1.358 . S
C1023 C1025 1.356 . S
C1023 H1055 0.930 . S
C1024 N1021 1.279 . S
C1024 C1023 1.358 . S
C1024 H1027 0.930 . S
C1025 C1022 1.348 . S
C1025 C1023 1.356 . S
H1026 C1020 0.930 . S
H1027 C1024 0.930 . S
O1028 Li968 1.956 . S
O1028 Li969 1.970 . S
O1028 Li970 1.961 . S
O1028 C972 1.325 . S
O1029 Li968 1.970 . S
O1029 Li969 1.956 . S
O1029 Li971 1.961 . S
O1029 C978 1.325 . S
O1030 Li968 1.961 . S
O1030 Li970 1.956 . S
O1030 Li971 1.970 . S
O1030 C1000 1.325 . S
O1031 Li969 1.961 . S
O1031 Li970 1.970 . S
O1031 Li971 1.956 . S
O1031 C1006 1.325 . S
H1032 C974 0.929 . S
H1033 C975 0.930 . S
H1034 C976 0.930 . S
H1035 C977 0.930 . S
H1036 C979 0.930 . S
H1037 C981 0.929 . S
H1038 C982 0.930 . S
H1039 C983 0.930 . S
H1040 C986 0.930 . S
H1041 C989 0.929 . S
H1042 C994 0.929 . S
H1043 C995 0.930 . S
H1044 C1002 0.929 . S
H1045 C1003 0.930 . S
H1046 C1004 0.930 . S
H1047 C1005 0.930 . S
H1048 C1007 0.929 . S
H1049 C1008 0.930 . S
H1050 C1009 0.930 . S
H1051 C1010 0.930 . S
H1052 C1014 0.929 . S
H1053 C1016 0.930 . S
H1054 C1022 0.929 . S
H1055 C1023 0.930 . S
Li1056 N1073 1.990 . S
Li1056 O1116 1.956 1_655 S
Li1056 O1117 1.970 . S
Li1056 O1118 1.961 1_655 S
Li1057 N1081 1.990 . S
Li1057 O1116 1.970 . S
Li1057 O1117 1.956 1_455 S
Li1057 O1119 1.961 . S
Li1058 N1103 1.990 . S
Li1058 O1116 1.961 . S
Li1058 O1118 1.956 . S
Li1058 O1119 1.970 . S
Li1059 N1109 1.990 . S
Li1059 O1117 1.961 1_455 S
Li1059 O1118 1.970 . S
Li1059 O1119 1.956 . S
C1060 C1062 1.348 . S
C1060 C1063 1.356 . S
C1060 O1116 1.325 . S
N1061 C1064 1.328 . S
N1061 C1065 1.279 . S
C1062 C1060 1.348 . S
C1062 C1064 1.355 . S
C1062 H1120 0.929 1_455 S
C1063 C1060 1.356 . S
C1063 C1065 1.358 . S
C1063 H1121 0.930 . S
C1064 N1061 1.328 . S
C1064 C1062 1.355 . S
C1064 H1122 0.917 1_455 S
C1065 N1061 1.279 . S
C1065 C1063 1.358 . S
C1065 H1123 0.930 . S
C1066 C1069 1.348 . S
C1066 C1070 1.356 . S
C1066 O1117 1.325 . S
C1067 N1068 1.279 . S
C1067 C1070 1.358 . S
C1067 H1124 0.930 . S
N1068 C1067 1.279 . S
N1068 C1071 1.314 . S
C1069 C1066 1.348 . S
C1069 C1071 1.353 . S
C1069 H1125 0.929 . S
C1070 C1066 1.356 . S
C1070 C1067 1.358 . S
C1070 H1126 0.930 . S
C1071 N1068 1.314 . S
C1071 C1069 1.353 . S
C1071 H1127 0.930 . S
C1072 N1073 1.314 . S
C1072 C1077 1.353 . S
C1072 H1078 0.930 . S
N1073 Li1056 1.990 . S
N1073 C1072 1.314 . S
N1073 C1075 1.279 . S
C1074 C1075 1.358 . S
C1074 C1076 1.356 . S
C1074 H1128 0.930 . S
C1075 N1073 1.279 . S
C1075 C1074 1.358 . S
C1075 H1079 0.930 . S
C1076 C1074 1.356 . S
C1076 C1077 1.348 . S
C1077 C1072 1.353 . S
C1077 C1076 1.348 . S
C1077 H1129 0.929 . S
H1078 C1072 0.930 . S
H1079 C1075 0.930 . S
C1080 N1081 1.314 . S
C1080 C1082 1.353 . S
C1080 H1086 0.930 . S
N1081 Li1057 1.990 . S
N1081 C1080 1.314 . S
N1081 C1084 1.279 1_455 S
C1082 C1080 1.353 . S
C1082 C1085 1.348 . S
C1082 H1130 0.929 . S
C1083 C1084 1.358 . S
C1083 C1085 1.356 1_655 S
C1083 H1131 0.930 . S
C1084 N1081 1.279 1_655 S
C1084 C1083 1.358 . S
C1084 H1087 0.930 . S
C1085 C1082 1.348 . S
C1085 C1083 1.356 1_455 S
H1086 C1080 0.930 . S
H1087 C1084 0.930 . S
C1088 C1090 1.348 . S
C1088 C1091 1.356 . S
C1088 O1118 1.325 . S
N1089 C1092 1.314 . S
N1089 C1093 1.279 . S
C1090 C1088 1.348 . S
C1090 C1092 1.353 . S
C1090 H1132 0.929 . S
C1091 C1088 1.356 . S
C1091 C1093 1.358 . S
C1091 H1133 0.931 . S
C1092 N1089 1.314 . S
C1092 C1090 1.353 . S
C1092 H1134 0.930 . S
C1093 N1089 1.279 . S
C1093 C1091 1.358 . S
C1093 H1135 0.933 . S
C1094 C1095 1.348 . S
C1094 C1096 1.356 . S
C1094 O1119 1.325 . S
C1095 C1094 1.348 . S
C1095 C1097 1.353 . S
C1095 H1136 0.929 . S
C1096 C1094 1.356 . S
C1096 C1098 1.358 . S
C1096 H1137 0.930 . S
C1097 C1095 1.353 . S
C1097 N1099 1.314 . S
C1097 H1138 0.930 . S
C1098 C1096 1.358 . S
C1098 N1099 1.279 . S
C1098 H1139 0.930 . S
N1099 C1097 1.314 . S
N1099 C1098 1.279 . S
C1100 C1102 1.353 . S
C1100 N1103 1.314 . S
C1100 H1106 0.930 . S
C1101 N1103 1.279 . S
C1101 C1104 1.358 . S
C1101 H1107 0.930 . S
C1102 C1100 1.353 . S
C1102 C1105 1.348 . S
C1102 H1140 0.929 . S
N1103 Li1058 1.990 . S
N1103 C1100 1.314 . S
N1103 C1101 1.279 . S
C1104 C1101 1.358 . S
C1104 C1105 1.356 . S
C1104 H1141 0.930 . S
C1105 C1102 1.348 . S
C1105 C1104 1.356 . S
H1106 C1100 0.930 . S
H1107 C1101 0.930 . S
C1108 N1109 1.314 1_655 S
C1108 C1110 1.353 . S
C1108 H1114 0.930 . S
N1109 Li1059 1.990 . S
N1109 C1108 1.314 1_455 S
N1109 C1112 1.279 . S
C1110 C1108 1.353 . S
C1110 C1113 1.348 1_655 S
C1110 H1142 0.929 . S
C1111 C1112 1.358 . S
C1111 C1113 1.356 . S
C1111 H1143 0.930 . S
C1112 N1109 1.279 . S
C1112 C1111 1.358 . S
C1112 H1115 0.930 . S
C1113 C1110 1.348 1_455 S
C1113 C1111 1.356 . S
H1114 C1108 0.930 . S
H1115 C1112 0.930 . S
O1116 Li1056 1.956 1_455 S
O1116 Li1057 1.970 . S
O1116 Li1058 1.961 . S
O1116 C1060 1.325 . S
O1117 Li1056 1.970 . S
O1117 Li1057 1.956 1_655 S
O1117 Li1059 1.961 1_655 S
O1117 C1066 1.325 . S
O1118 Li1056 1.961 1_455 S
O1118 Li1058 1.956 . S
O1118 Li1059 1.970 . S
O1118 C1088 1.325 . S
O1119 Li1057 1.961 . S
O1119 Li1058 1.970 . S
O1119 Li1059 1.956 . S
O1119 C1094 1.325 . S
H1120 C1062 0.929 1_655 S
H1121 C1063 0.930 . S
H1122 C1064 0.917 1_655 S
H1123 C1065 0.930 . S
H1124 C1067 0.930 . S
H1125 C1069 0.929 . S
H1126 C1070 0.930 . S
H1127 C1071 0.930 . S
H1128 C1074 0.930 . S
H1129 C1077 0.929 . S
H1130 C1082 0.929 . S
H1131 C1083 0.930 . S
H1132 C1090 0.929 . S
H1133 C1091 0.931 . S
H1134 C1092 0.930 . S
H1135 C1093 0.933 . S
H1136 C1095 0.929 . S
H1137 C1096 0.930 . S
H1138 C1097 0.930 . S
H1139 C1098 0.930 . S
H1140 C1102 0.929 . S
H1141 C1104 0.930 . S
H1142 C1110 0.929 . S
H1143 C1111 0.930 . S
Li1144 N1161 1.990 . S
Li1144 O1204 1.956 . S
Li1144 O1205 1.970 . S
Li1144 O1206 1.961 1_455 S
Li1145 N1169 1.990 . S
Li1145 O1204 1.970 . S
Li1145 O1205 1.956 . S
Li1145 O1207 1.961 . S
Li1146 N1191 1.990 . S
Li1146 O1204 1.961 . S
Li1146 O1206 1.956 1_455 S
Li1146 O1207 1.970 . S
Li1147 N1197 1.990 . S
Li1147 O1205 1.961 1_655 S
Li1147 O1206 1.970 . S
Li1147 O1207 1.956 1_655 S
C1148 C1150 1.348 . S
C1148 C1151 1.356 . S
C1148 O1204 1.325 . S
N1149 C1152 1.314 . S
N1149 C1153 1.279 . S
C1150 C1148 1.348 . S
C1150 C1152 1.353 . S
C1150 H1208 0.929 . S
C1151 C1148 1.356 . S
C1151 C1153 1.358 . S
C1151 H1209 0.930 . S
C1152 N1149 1.314 . S
C1152 C1150 1.353 . S
C1152 H1210 0.930 . S
C1153 N1149 1.279 . S
C1153 C1151 1.358 . S
C1153 H1211 0.930 . S
C1154 C1157 1.348 . S
C1154 C1158 1.363 . S
C1154 O1205 1.325 . S
C1155 N1156 1.279 . S
C1155 C1158 1.360 . S
C1155 H1212 0.930 1_455 S
N1156 C1155 1.279 . S
N1156 C1159 1.314 . S
C1157 C1154 1.348 . S
C1157 C1159 1.353 . S
C1157 H1213 0.929 . S
C1158 C1154 1.363 . S
C1158 C1155 1.360 . S
C1158 H1214 0.923 1_455 S
C1159 N1156 1.314 . S
C1159 C1157 1.353 . S
C1159 H1215 0.930 . S
C1160 N1161 1.314 1_655 S
C1160 C1165 1.353 . S
C1160 H1166 0.930 . S
N1161 Li1144 1.990 . S
N1161 C1160 1.314 1_455 S
N1161 C1163 1.279 . S
C1162 C1163 1.358 . S
C1162 C1164 1.356 . S
C1162 H1216 0.930 . S
C1163 N1161 1.279 . S
C1163 C1162 1.358 . S
C1163 H1167 0.930 . S
C1164 C1162 1.356 . S
C1164 C1165 1.348 1_455 S
C1165 C1160 1.353 . S
C1165 C1164 1.348 1_655 S
C1165 H1217 0.929 . S
H1166 C1160 0.930 . S
H1167 C1163 0.930 . S
C1168 N1169 1.314 . S
C1168 C1170 1.353 . S
C1168 H1174 0.930 . S
N1169 Li1145 1.990 . S
N1169 C1168 1.314 . S
N1169 C1172 1.279 . S
C1170 C1168 1.353 . S
C1170 C1173 1.348 . S
C1170 H1218 0.929 . S
C1171 C1172 1.358 . S
C1171 C1173 1.356 . S
C1171 H1219 0.930 . S
C1172 N1169 1.279 . S
C1172 C1171 1.358 . S
C1172 H1175 0.930 . S
C1173 C1170 1.348 . S
C1173 C1171 1.356 . S
H1174 C1168 0.930 . S
H1175 C1172 0.930 . S
C1176 C1178 1.348 . S
C1176 C1179 1.356 . S
C1176 O1206 1.325 . S
N1177 C1180 1.314 . S
N1177 C1181 1.279 . S
C1178 C1176 1.348 . S
C1178 C1180 1.353 . S
C1178 H1220 0.929 . S
C1179 C1176 1.356 . S
C1179 C1181 1.358 . S
C1179 H1221 0.930 . S
C1180 N1177 1.314 . S
C1180 C1178 1.353 . S
C1180 H1222 0.930 . S
C1181 N1177 1.279 . S
C1181 C1179 1.358 . S
C1181 H1223 0.930 . S
C1182 C1183 1.348 1_455 S
C1182 C1184 1.356 . S
C1182 O1207 1.325 . S
C1183 C1182 1.348 1_655 S
C1183 C1185 1.353 . S
C1183 H1224 0.929 . S
C1184 C1182 1.356 . S
C1184 C1186 1.358 . S
C1184 H1225 0.930 . S
C1185 C1183 1.353 . S
C1185 N1187 1.314 1_655 S
C1185 H1226 0.930 . S
C1186 C1184 1.358 . S
C1186 N1187 1.279 . S
C1186 H1227 0.930 . S
N1187 C1185 1.314 1_455 S
N1187 C1186 1.279 . S
C1188 C1190 1.353 . S
C1188 N1191 1.314 . S
C1188 H1194 0.930 . S
C1189 N1191 1.279 1_655 S
C1189 C1192 1.358 . S
C1189 H1195 0.930 . S
C1190 C1188 1.353 . S
C1190 C1193 1.348 . S
C1190 H1228 0.929 . S
N1191 Li1146 1.990 . S
N1191 C1188 1.314 . S
N1191 C1189 1.279 1_455 S
C1192 C1189 1.358 . S
C1192 C1193 1.356 1_655 S
C1192 H1229 0.930 . S
C1193 C1190 1.348 . S
C1193 C1192 1.356 1_455 S
H1194 C1188 0.930 . S
H1195 C1189 0.930 . S
C1196 N1197 1.314 . S
C1196 C1198 1.353 . S
C1196 H1202 0.930 . S
N1197 Li1147 1.990 . S
N1197 C1196 1.314 . S
N1197 C1200 1.279 . S
C1198 C1196 1.353 . S
C1198 C1201 1.348 . S
C1198 H1230 0.929 . S
C1199 C1200 1.358 . S
C1199 C1201 1.356 . S
C1199 H1231 0.930 . S
C1200 N1197 1.279 . S
C1200 C1199 1.358 . S
C1200 H1203 0.930 . S
C1201 C1198 1.348 . S
C1201 C1199 1.356 . S
H1202 C1196 0.930 . S
H1203 C1200 0.930 . S
O1204 Li1144 1.956 . S
O1204 Li1145 1.970 . S
O1204 Li1146 1.961 . S
O1204 C1148 1.325 . S
O1205 Li1144 1.970 . S
O1205 Li1145 1.956 . S
O1205 Li1147 1.961 1_455 S
O1205 C1154 1.325 . S
O1206 Li1144 1.961 1_655 S
O1206 Li1146 1.956 1_655 S
O1206 Li1147 1.970 . S
O1206 C1176 1.325 . S
O1207 Li1145 1.961 . S
O1207 Li1146 1.970 . S
O1207 Li1147 1.956 1_455 S
O1207 C1182 1.325 . S
H1208 C1150 0.929 . S
H1209 C1151 0.930 . S
H1210 C1152 0.930 . S
H1211 C1153 0.930 . S
H1212 C1155 0.930 1_655 S
H1213 C1157 0.929 . S
H1214 C1158 0.923 1_655 S
H1215 C1159 0.930 . S
H1216 C1162 0.930 . S
H1217 C1165 0.929 . S
H1218 C1170 0.929 . S
H1219 C1171 0.930 . S
H1220 C1178 0.929 . S
H1221 C1179 0.930 . S
H1222 C1180 0.930 . S
H1223 C1181 0.930 . S
H1224 C1183 0.929 . S
H1225 C1184 0.930 . S
H1226 C1185 0.930 . S
H1227 C1186 0.930 . S
H1228 C1190 0.929 . S
H1229 C1192 0.930 . S
H1230 C1198 0.929 . S
H1231 C1199 0.930 . S
Li1232 N1249 1.990 . S
Li1232 O1292 1.956 . S
Li1232 O1293 1.970 . S
Li1232 O1294 1.961 . S
Li1233 N1257 1.990 . S
Li1233 O1292 1.970 . S
Li1233 O1293 1.956 . S
Li1233 O1295 1.961 . S
Li1234 N1279 1.990 . S
Li1234 O1292 1.961 . S
Li1234 O1294 1.956 . S
Li1234 O1295 1.970 . S
Li1235 N1285 1.990 . S
Li1235 O1293 1.961 . S
Li1235 O1294 1.970 . S
Li1235 O1295 1.956 . S
C1236 C1238 1.348 . S
C1236 C1239 1.356 . S
C1236 O1292 1.325 . S
N1237 C1240 1.314 . S
N1237 C1241 1.279 . S
C1238 C1236 1.348 . S
C1238 C1240 1.353 . S
C1238 H1296 0.929 . S
C1239 C1236 1.356 . S
C1239 C1241 1.358 . S
C1239 H1297 0.930 . S
C1240 N1237 1.314 . S
C1240 C1238 1.353 . S
C1240 H1298 0.930 . S
C1241 N1237 1.279 . S
C1241 C1239 1.358 . S
C1241 H1299 0.930 . S
C1242 C1245 1.348 . S
C1242 C1246 1.356 . S
C1242 O1293 1.325 . S
C1243 N1244 1.279 . S
C1243 C1246 1.358 . S
C1243 H1300 0.930 . S
N1244 C1243 1.279 . S
N1244 C1247 1.314 . S
C1245 C1242 1.348 . S
C1245 C1247 1.353 . S
C1245 H1301 0.929 . S
C1246 C1242 1.356 . S
C1246 C1243 1.358 . S
C1246 H1302 0.930 . S
C1247 N1244 1.314 . S
C1247 C1245 1.353 . S
C1247 H1303 0.930 . S
C1248 N1249 1.314 . S
C1248 C1253 1.353 . S
C1248 H1254 0.930 . S
N1249 Li1232 1.990 . S
N1249 C1248 1.314 . S
N1249 C1251 1.279 . S
C1250 C1251 1.358 . S
C1250 C1252 1.356 . S
C1250 H1304 0.930 . S
C1251 N1249 1.279 . S
C1251 C1250 1.358 . S
C1251 H1255 0.930 . S
C1252 C1250 1.356 . S
C1252 C1253 1.348 . S
C1253 C1248 1.353 . S
C1253 C1252 1.348 . S
C1253 H1305 0.929 . S
H1254 C1248 0.930 . S
H1255 C1251 0.930 . S
C1256 N1257 1.314 . S
C1256 C1258 1.353 . S
C1256 H1262 0.930 . S
N1257 Li1233 1.990 . S
N1257 C1256 1.314 . S
N1257 C1260 1.279 . S
C1258 C1256 1.353 . S
C1258 C1261 1.348 . S
C1258 H1306 0.929 . S
C1259 C1260 1.358 . S
C1259 C1261 1.356 . S
C1259 H1307 0.930 . S
C1260 N1257 1.279 . S
C1260 C1259 1.358 . S
C1260 H1263 0.930 . S
C1261 C1258 1.348 . S
C1261 C1259 1.356 . S
H1262 C1256 0.930 . S
H1263 C1260 0.930 . S
C1264 C1266 1.348 . S
C1264 C1267 1.356 . S
C1264 O1294 1.325 . S
N1265 C1268 1.314 . S
N1265 C1269 1.279 . S
C1266 C1264 1.348 . S
C1266 C1268 1.353 . S
C1266 H1308 0.929 . S
C1267 C1264 1.356 . S
C1267 C1269 1.358 . S
C1267 H1309 0.930 . S
C1268 N1265 1.314 . S
C1268 C1266 1.353 . S
C1268 H1310 0.930 . S
C1269 N1265 1.279 . S
C1269 C1267 1.358 . S
C1269 H1311 0.930 . S
C1270 C1271 1.348 . S
C1270 C1272 1.356 . S
C1270 O1295 1.325 . S
C1271 C1270 1.348 . S
C1271 C1273 1.353 . S
C1271 H1312 0.929 . S
C1272 C1270 1.356 . S
C1272 C1274 1.358 . S
C1272 H1313 0.930 . S
C1273 C1271 1.353 . S
C1273 N1275 1.314 . S
C1273 H1314 0.930 . S
C1274 C1272 1.358 . S
C1274 N1275 1.279 . S
C1274 H1315 0.930 . S
N1275 C1273 1.314 . S
N1275 C1274 1.279 . S
C1276 C1278 1.353 . S
C1276 N1279 1.314 . S
C1276 H1282 0.930 . S
C1277 N1279 1.279 . S
C1277 C1280 1.358 . S
C1277 H1283 0.930 . S
C1278 C1276 1.353 . S
C1278 C1281 1.348 . S
C1278 H1316 0.929 . S
N1279 Li1234 1.990 . S
N1279 C1276 1.314 . S
N1279 C1277 1.279 . S
C1280 C1277 1.358 . S
C1280 C1281 1.356 . S
C1280 H1317 0.930 . S
C1281 C1278 1.348 . S
C1281 C1280 1.356 . S
H1282 C1276 0.930 . S
H1283 C1277 0.930 . S
C1284 N1285 1.314 . S
C1284 C1286 1.353 . S
C1284 H1290 0.930 . S
N1285 Li1235 1.990 . S
N1285 C1284 1.314 . S
N1285 C1288 1.279 . S
C1286 C1284 1.353 . S
C1286 C1289 1.348 . S
C1286 H1318 0.929 . S
C1287 C1288 1.358 . S
C1287 C1289 1.356 . S
C1287 H1319 0.930 . S
C1288 N1285 1.279 . S
C1288 C1287 1.358 . S
C1288 H1291 0.930 . S
C1289 C1286 1.348 . S
C1289 C1287 1.356 . S
H1290 C1284 0.930 . S
H1291 C1288 0.930 . S
O1292 Li1232 1.956 . S
O1292 Li1233 1.970 . S
O1292 Li1234 1.961 . S
O1292 C1236 1.325 . S
O1293 Li1232 1.970 . S
O1293 Li1233 1.956 . S
O1293 Li1235 1.961 . S
O1293 C1242 1.325 . S
O1294 Li1232 1.961 . S
O1294 Li1234 1.956 . S
O1294 Li1235 1.970 . S
O1294 C1264 1.325 . S
O1295 Li1233 1.961 . S
O1295 Li1234 1.970 . S
O1295 Li1235 1.956 . S
O1295 C1270 1.325 . S
H1296 C1238 0.929 . S
H1297 C1239 0.930 . S
H1298 C1240 0.930 . S
H1299 C1241 0.930 . S
H1300 C1243 0.930 . S
H1301 C1245 0.929 . S
H1302 C1246 0.930 . S
H1303 C1247 0.930 . S
H1304 C1250 0.930 . S
H1305 C1253 0.929 . S
H1306 C1258 0.929 . S
H1307 C1259 0.930 . S
H1308 C1266 0.929 . S
H1309 C1267 0.930 . S
H1310 C1268 0.930 . S
H1311 C1269 0.930 . S
H1312 C1271 0.929 . S
H1313 C1272 0.930 . S
H1314 C1273 0.930 . S
H1315 C1274 0.930 . S
H1316 C1278 0.929 . S
H1317 C1280 0.930 . S
H1318 C1286 0.929 . S
H1319 C1287 0.930 . S
Li1320 N1337 1.990 . S
Li1320 O1380 1.956 . S
Li1320 O1381 1.970 . S
Li1320 O1382 1.961 . S
Li1321 N1345 1.990 . S
Li1321 O1380 1.970 . S
Li1321 O1381 1.956 . S
Li1321 O1383 1.961 . S
Li1322 N1367 1.990 . S
Li1322 O1380 1.961 . S
Li1322 O1382 1.956 . S
Li1322 O1383 1.970 . S
Li1323 N1373 1.990 . S
Li1323 O1381 1.961 . S
Li1323 O1382 1.970 . S
Li1323 O1383 1.956 . S
C1324 C1326 1.348 . S
C1324 C1327 1.356 . S
C1324 O1380 1.325 . S
N1325 C1328 1.314 . S
N1325 C1329 1.279 . S
C1326 C1324 1.348 . S
C1326 C1328 1.353 . S
C1326 H1384 0.929 . S
C1327 C1324 1.356 . S
C1327 C1329 1.358 . S
C1327 H1385 0.930 . S
C1328 N1325 1.314 . S
C1328 C1326 1.353 . S
C1328 H1386 0.930 . S
C1329 N1325 1.279 . S
C1329 C1327 1.358 . S
C1329 H1387 0.930 . S
C1330 C1333 1.348 . S
C1330 C1334 1.356 . S
C1330 O1381 1.325 . S
C1331 N1332 1.279 . S
C1331 C1334 1.358 . S
C1331 H1388 0.930 . S
N1332 C1331 1.279 . S
N1332 C1335 1.314 . S
C1333 C1330 1.348 . S
C1333 C1335 1.353 . S
C1333 H1389 0.929 . S
C1334 C1330 1.356 . S
C1334 C1331 1.358 . S
C1334 H1390 0.930 . S
C1335 N1332 1.314 . S
C1335 C1333 1.353 . S
C1335 H1391 0.930 . S
C1336 N1337 1.314 . S
C1336 C1341 1.353 . S
C1336 H1342 0.930 . S
N1337 Li1320 1.990 . S
N1337 C1336 1.314 . S
N1337 C1339 1.279 . S
C1338 C1339 1.358 . S
C1338 C1340 1.356 . S
C1338 H1392 0.930 . S
C1339 N1337 1.279 . S
C1339 C1338 1.358 . S
C1339 H1343 0.930 . S
C1340 C1338 1.356 . S
C1340 C1341 1.348 . S
C1341 C1336 1.353 . S
C1341 C1340 1.348 . S
C1341 H1393 0.929 . S
H1342 C1336 0.930 . S
H1343 C1339 0.930 . S
C1344 N1345 1.314 . S
C1344 C1346 1.353 . S
C1344 H1350 0.930 . S
N1345 Li1321 1.990 . S
N1345 C1344 1.314 . S
N1345 C1348 1.279 . S
C1346 C1344 1.353 . S
C1346 C1349 1.348 . S
C1346 H1394 0.929 . S
C1347 C1348 1.358 . S
C1347 C1349 1.356 . S
C1347 H1395 0.930 . S
C1348 N1345 1.279 . S
C1348 C1347 1.358 . S
C1348 H1351 0.930 . S
C1349 C1346 1.348 . S
C1349 C1347 1.356 . S
H1350 C1344 0.930 . S
H1351 C1348 0.930 . S
C1352 C1354 1.348 . S
C1352 C1355 1.356 . S
C1352 O1382 1.325 . S
N1353 C1356 1.314 . S
N1353 C1357 1.279 . S
C1354 C1352 1.348 . S
C1354 C1356 1.353 . S
C1354 H1396 0.929 . S
C1355 C1352 1.356 . S
C1355 C1357 1.358 . S
C1355 H1397 0.930 . S
C1356 N1353 1.314 . S
C1356 C1354 1.353 . S
C1356 H1398 0.930 . S
C1357 N1353 1.279 . S
C1357 C1355 1.358 . S
C1357 H1399 0.930 . S
C1358 C1359 1.348 . S
C1358 C1360 1.356 . S
C1358 O1383 1.325 . S
C1359 C1358 1.348 . S
C1359 C1361 1.353 . S
C1359 H1400 0.929 . S
C1360 C1358 1.356 . S
C1360 C1362 1.358 . S
C1360 H1401 0.930 . S
C1361 C1359 1.353 . S
C1361 N1363 1.314 . S
C1361 H1402 0.930 . S
C1362 C1360 1.358 . S
C1362 N1363 1.279 . S
C1362 H1403 0.930 . S
N1363 C1361 1.314 . S
N1363 C1362 1.279 . S
C1364 C1366 1.353 . S
C1364 N1367 1.314 . S
C1364 H1370 0.930 . S
C1365 N1367 1.279 . S
C1365 C1368 1.358 . S
C1365 H1371 0.930 . S
C1366 C1364 1.353 . S
C1366 C1369 1.348 . S
C1366 H1404 0.929 . S
N1367 Li1322 1.990 . S
N1367 C1364 1.314 . S
N1367 C1365 1.279 . S
C1368 C1365 1.358 . S
C1368 C1369 1.356 . S
C1368 H1405 0.930 . S
C1369 C1366 1.348 . S
C1369 C1368 1.356 . S
H1370 C1364 0.930 . S
H1371 C1365 0.930 . S
C1372 N1373 1.314 . S
C1372 C1374 1.353 . S
C1372 H1378 0.930 . S
N1373 Li1323 1.990 . S
N1373 C1372 1.314 . S
N1373 C1376 1.279 . S
C1374 C1372 1.353 . S
C1374 C1377 1.348 . S
C1374 H1406 0.929 . S
C1375 C1376 1.358 . S
C1375 C1377 1.356 . S
C1375 H1407 0.930 . S
C1376 N1373 1.279 . S
C1376 C1375 1.358 . S
C1376 H1379 0.930 . S
C1377 C1374 1.348 . S
C1377 C1375 1.356 . S
H1378 C1372 0.930 . S
H1379 C1376 0.930 . S
O1380 Li1320 1.956 . S
O1380 Li1321 1.970 . S
O1380 Li1322 1.961 . S
O1380 C1324 1.325 . S
O1381 Li1320 1.970 . S
O1381 Li1321 1.956 . S
O1381 Li1323 1.961 . S
O1381 C1330 1.325 . S
O1382 Li1320 1.961 . S
O1382 Li1322 1.956 . S
O1382 Li1323 1.970 . S
O1382 C1352 1.325 . S
O1383 Li1321 1.961 . S
O1383 Li1322 1.970 . S
O1383 Li1323 1.956 . S
O1383 C1358 1.325 . S
H1384 C1326 0.929 . S
H1385 C1327 0.930 . S
H1386 C1328 0.930 . S
H1387 C1329 0.930 . S
H1388 C1331 0.930 . S
H1389 C1333 0.929 . S
H1390 C1334 0.930 . S
H1391 C1335 0.930 . S
H1392 C1338 0.930 . S
H1393 C1341 0.929 . S
H1394 C1346 0.929 . S
H1395 C1347 0.930 . S
H1396 C1354 0.929 . S
H1397 C1355 0.930 . S
H1398 C1356 0.930 . S
H1399 C1357 0.930 . S
H1400 C1359 0.929 . S
H1401 C1360 0.930 . S
H1402 C1361 0.930 . S
H1403 C1362 0.930 . S
H1404 C1366 0.929 . S
H1405 C1368 0.930 . S
H1406 C1374 0.929 . S
H1407 C1375 0.930 . S
Li1408 N1425 1.990 . S
Li1408 O1468 1.956 1_545 S
Li1408 O1469 1.970 . S
Li1408 O1470 1.961 . S
Li1409 N1433 1.990 . S
Li1409 O1468 1.970 . S
Li1409 O1469 1.956 1_565 S
Li1409 O1471 1.961 1_565 S
Li1410 N1455 1.990 . S
Li1410 O1468 1.961 1_545 S
Li1410 O1470 1.956 . S
Li1410 O1471 1.970 . S
Li1411 N1461 1.990 . S
Li1411 O1469 1.961 . S
Li1411 O1470 1.970 . S
Li1411 O1471 1.956 . S
C1412 C1414 1.348 . S
C1412 C1415 1.356 . S
C1412 O1468 1.325 . S
N1413 C1416 1.314 . S
N1413 C1417 1.279 . S
C1414 C1412 1.348 . S
C1414 C1416 1.353 . S
C1414 H1472 0.929 . S
C1415 C1412 1.356 . S
C1415 C1417 1.358 . S
C1415 H1473 0.930 . S
C1416 N1413 1.314 . S
C1416 C1414 1.353 . S
C1416 H1474 0.930 . S
C1417 N1413 1.279 . S
C1417 C1415 1.358 . S
C1417 H1475 0.930 . S
C1418 C1421 1.348 1_545 S
C1418 C1422 1.356 . S
C1418 O1469 1.325 . S
C1419 N1420 1.287 . S
C1419 C1422 1.358 . S
C1419 H1476 0.930 . S
N1420 C1419 1.287 . S
N1420 C1423 1.308 1_545 S
C1421 C1418 1.348 1_565 S
C1421 C1423 1.353 . S
C1421 H1477 0.929 . S
C1422 C1418 1.356 . S
C1422 C1419 1.358 . S
C1422 H1478 0.930 . S
C1423 N1420 1.308 1_565 S
C1423 C1421 1.353 . S
C1423 H1479 0.930 . S
C1424 N1425 1.314 . S
C1424 C1429 1.353 . S
C1424 H1430 0.930 . S
N1425 Li1408 1.990 . S
N1425 C1424 1.314 . S
N1425 C1427 1.279 1_545 S
C1426 C1427 1.358 . S
C1426 C1428 1.356 1_565 S
C1426 H1480 0.930 . S
C1427 N1425 1.279 1_565 S
C1427 C1426 1.358 . S
C1427 H1431 0.930 . S
C1428 C1426 1.356 1_545 S
C1428 C1429 1.348 . S
C1429 C1424 1.353 . S
C1429 C1428 1.348 . S
C1429 H1481 0.929 . S
H1430 C1424 0.930 . S
H1431 C1427 0.930 . S
C1432 N1433 1.314 . S
C1432 C1434 1.353 . S
C1432 H1438 0.930 . S
N1433 Li1409 1.990 . S
N1433 C1432 1.314 . S
N1433 C1436 1.279 . S
C1434 C1432 1.353 . S
C1434 C1437 1.348 . S
C1434 H1482 0.929 . S
C1435 C1436 1.358 . S
C1435 C1437 1.356 . S
C1435 H1483 0.930 . S
C1436 N1433 1.279 . S
C1436 C1435 1.358 . S
C1436 H1439 0.930 . S
C1437 C1434 1.348 . S
C1437 C1435 1.356 . S
H1438 C1432 0.930 . S
H1439 C1436 0.930 . S
C1440 C1442 1.348 . S
C1440 C1443 1.356 . S
C1440 O1470 1.325 . S
N1441 C1444 1.314 . S
N1441 C1445 1.279 . S
C1442 C1440 1.348 . S
C1442 C1444 1.353 . S
C1442 H1484 0.929 . S
C1443 C1440 1.356 . S
C1443 C1445 1.358 . S
C1443 H1485 0.930 . S
C1444 N1441 1.314 . S
C1444 C1442 1.353 . S
C1444 H1486 0.930 . S
C1445 N1441 1.279 . S
C1445 C1443 1.358 . S
C1445 H1487 0.930 . S
C1446 C1447 1.348 . S
C1446 C1448 1.356 1_545 S
C1446 O1471 1.325 . S
C1447 C1446 1.348 . S
C1447 C1449 1.353 . S
C1447 H1488 0.929 . S
C1448 C1446 1.356 1_565 S
C1448 C1450 1.358 . S
C1448 H1489 0.930 . S
C1449 C1447 1.353 . S
C1449 N1451 1.314 . S
C1449 H1490 0.930 . S
C1450 C1448 1.358 . S
C1450 N1451 1.279 1_565 S
C1450 H1491 0.930 . S
N1451 C1449 1.314 . S
N1451 C1450 1.279 1_545 S
C1452 C1454 1.353 . S
C1452 N1455 1.314 1_565 S
C1452 H1458 0.930 . S
C1453 N1455 1.279 . S
C1453 C1456 1.358 . S
C1453 H1459 0.930 . S
C1454 C1452 1.353 . S
C1454 C1457 1.348 1_565 S
C1454 H1492 0.929 . S
N1455 Li1410 1.990 . S
N1455 C1452 1.314 1_545 S
N1455 C1453 1.279 . S
C1456 C1453 1.358 . S
C1456 C1457 1.356 . S
C1456 H1493 0.930 . S
C1457 C1454 1.348 1_545 S
C1457 C1456 1.356 . S
H1458 C1452 0.930 . S
H1459 C1453 0.930 . S
C1460 N1461 1.314 . S
C1460 C1462 1.353 . S
C1460 H1466 0.930 . S
N1461 Li1411 1.990 . S
N1461 C1460 1.314 . S
N1461 C1464 1.279 . S
C1462 C1460 1.353 . S
C1462 C1465 1.348 . S
C1462 H1494 0.929 . S
C1463 C1464 1.358 . S
C1463 C1465 1.356 . S
C1463 H1495 0.930 . S
C1464 N1461 1.279 . S
C1464 C1463 1.358 . S
C1464 H1467 0.930 . S
C1465 C1462 1.348 . S
C1465 C1463 1.356 . S
H1466 C1460 0.930 . S
H1467 C1464 0.930 . S
O1468 Li1408 1.956 1_565 S
O1468 Li1409 1.970 . S
O1468 Li1410 1.961 1_565 S
O1468 C1412 1.325 . S
O1469 Li1408 1.970 . S
O1469 Li1409 1.956 1_545 S
O1469 Li1411 1.961 . S
O1469 C1418 1.325 . S
O1470 Li1408 1.961 . S
O1470 Li1410 1.956 . S
O1470 Li1411 1.970 . S
O1470 C1440 1.325 . S
O1471 Li1409 1.961 1_545 S
O1471 Li1410 1.970 . S
O1471 Li1411 1.956 . S
O1471 C1446 1.325 . S
H1472 C1414 0.929 . S
H1473 C1415 0.930 . S
H1474 C1416 0.930 . S
H1475 C1417 0.930 . S
H1476 C1419 0.930 . S
H1477 C1421 0.929 . S
H1478 C1422 0.930 . S
H1479 C1423 0.930 . S
H1480 C1426 0.930 . S
H1481 C1429 0.929 . S
H1482 C1434 0.929 . S
H1483 C1435 0.930 . S
H1484 C1442 0.929 . S
H1485 C1443 0.930 . S
H1486 C1444 0.930 . S
H1487 C1445 0.930 . S
H1488 C1447 0.929 . S
H1489 C1448 0.930 . S
H1490 C1449 0.930 . S
H1491 C1450 0.930 . S
H1492 C1454 0.929 . S
H1493 C1456 0.930 . S
H1494 C1462 0.929 . S
H1495 C1463 0.930 . S
Li1496 N1513 1.990 . S
Li1496 O1556 1.956 . S
Li1496 O1557 1.970 . S
Li1496 O1558 1.961 . S
Li1497 N1521 1.990 . S
Li1497 O1556 1.970 . S
Li1497 O1557 1.956 . S
Li1497 O1559 1.961 . S
Li1498 N1543 1.990 . S
Li1498 O1556 1.961 . S
Li1498 O1558 1.956 . S
Li1498 O1559 1.970 . S
Li1499 N1549 1.990 . S
Li1499 O1557 1.961 . S
Li1499 O1558 1.970 . S
Li1499 O1559 1.956 . S
C1500 C1502 1.348 . S
C1500 C1503 1.356 . S
C1500 O1556 1.325 . S
N1501 C1504 1.314 . S
N1501 C1505 1.279 . S
C1502 C1500 1.348 . S
C1502 C1504 1.353 . S
C1502 H1560 0.929 . S
C1503 C1500 1.356 . S
C1503 C1505 1.358 . S
C1503 H1561 0.930 . S
C1504 N1501 1.314 . S
C1504 C1502 1.353 . S
C1504 H1562 0.930 . S
C1505 N1501 1.279 . S
C1505 C1503 1.358 . S
C1505 H1563 0.930 . S
C1506 C1509 1.348 . S
C1506 C1510 1.356 . S
C1506 O1557 1.325 . S
C1507 N1508 1.279 . S
C1507 C1510 1.358 . S
C1507 H1564 0.930 . S
N1508 C1507 1.279 . S
N1508 C1511 1.314 . S
C1509 C1506 1.348 . S
C1509 C1511 1.353 . S
C1509 H1565 0.929 . S
C1510 C1506 1.356 . S
C1510 C1507 1.358 . S
C1510 H1566 0.930 . S
C1511 N1508 1.314 . S
C1511 C1509 1.353 . S
C1511 H1567 0.930 . S
C1512 N1513 1.314 . S
C1512 C1517 1.353 . S
C1512 H1518 0.930 . S
N1513 Li1496 1.990 . S
N1513 C1512 1.314 . S
N1513 C1515 1.279 . S
C1514 C1515 1.358 . S
C1514 C1516 1.356 . S
C1514 H1568 0.930 . S
C1515 N1513 1.279 . S
C1515 C1514 1.358 . S
C1515 H1519 0.930 . S
C1516 C1514 1.356 . S
C1516 C1517 1.348 . S
C1517 C1512 1.353 . S
C1517 C1516 1.348 . S
C1517 H1569 0.929 . S
H1518 C1512 0.930 . S
H1519 C1515 0.930 . S
C1520 N1521 1.314 . S
C1520 C1522 1.353 . S
C1520 H1526 0.930 . S
N1521 Li1497 1.990 . S
N1521 C1520 1.314 . S
N1521 C1524 1.279 . S
C1522 C1520 1.353 . S
C1522 C1525 1.348 . S
C1522 H1570 0.929 . S
C1523 C1524 1.358 . S
C1523 C1525 1.356 . S
C1523 H1571 0.930 . S
C1524 N1521 1.279 . S
C1524 C1523 1.358 . S
C1524 H1527 0.930 . S
C1525 C1522 1.348 . S
C1525 C1523 1.356 . S
H1526 C1520 0.930 . S
H1527 C1524 0.930 . S
C1528 C1530 1.348 . S
C1528 C1531 1.356 . S
C1528 O1558 1.325 . S
N1529 C1532 1.314 . S
N1529 C1533 1.279 . S
C1530 C1528 1.348 . S
C1530 C1532 1.353 . S
C1530 H1572 0.929 . S
C1531 C1528 1.356 . S
C1531 C1533 1.358 . S
C1531 H1573 0.930 . S
C1532 N1529 1.314 . S
C1532 C1530 1.353 . S
C1532 H1574 0.930 . S
C1533 N1529 1.279 . S
C1533 C1531 1.358 . S
C1533 H1575 0.930 . S
C1534 C1535 1.348 . S
C1534 C1536 1.356 . S
C1534 O1559 1.325 . S
C1535 C1534 1.348 . S
C1535 C1537 1.353 . S
C1535 H1576 0.929 . S
C1536 C1534 1.356 . S
C1536 C1538 1.358 . S
C1536 H1577 0.930 . S
C1537 C1535 1.353 . S
C1537 N1539 1.314 . S
C1537 H1578 0.930 . S
C1538 C1536 1.358 . S
C1538 N1539 1.279 . S
C1538 H1579 0.930 . S
N1539 C1537 1.314 . S
N1539 C1538 1.279 . S
C1540 C1542 1.353 . S
C1540 N1543 1.314 . S
C1540 H1546 0.930 . S
C1541 N1543 1.279 . S
C1541 C1544 1.358 . S
C1541 H1547 0.930 . S
C1542 C1540 1.353 . S
C1542 C1545 1.348 . S
C1542 H1580 0.929 . S
N1543 Li1498 1.990 . S
N1543 C1540 1.314 . S
N1543 C1541 1.279 . S
C1544 C1541 1.358 . S
C1544 C1545 1.356 . S
C1544 H1581 0.930 . S
C1545 C1542 1.348 . S
C1545 C1544 1.356 . S
H1546 C1540 0.930 . S
H1547 C1541 0.930 . S
C1548 N1549 1.314 . S
C1548 C1550 1.353 . S
C1548 H1554 0.930 . S
N1549 Li1499 1.990 . S
N1549 C1548 1.314 . S
N1549 C1552 1.279 . S
C1550 C1548 1.353 . S
C1550 C1553 1.348 . S
C1550 H1582 0.929 . S
C1551 C1552 1.358 . S
C1551 C1553 1.356 . S
C1551 H1583 0.930 . S
C1552 N1549 1.279 . S
C1552 C1551 1.358 . S
C1552 H1555 0.930 . S
C1553 C1550 1.348 . S
C1553 C1551 1.356 . S
H1554 C1548 0.930 . S
H1555 C1552 0.930 . S
O1556 Li1496 1.956 . S
O1556 Li1497 1.970 . S
O1556 Li1498 1.961 . S
O1556 C1500 1.325 . S
O1557 Li1496 1.970 . S
O1557 Li1497 1.956 . S
O1557 Li1499 1.961 . S
O1557 C1506 1.325 . S
O1558 Li1496 1.961 . S
O1558 Li1498 1.956 . S
O1558 Li1499 1.970 . S
O1558 C1528 1.325 . S
O1559 Li1497 1.961 . S
O1559 Li1498 1.970 . S
O1559 Li1499 1.956 . S
O1559 C1534 1.325 . S
H1560 C1502 0.929 . S
H1561 C1503 0.930 . S
H1562 C1504 0.930 . S
H1563 C1505 0.930 . S
H1564 C1507 0.930 . S
H1565 C1509 0.929 . S
H1566 C1510 0.930 . S
H1567 C1511 0.930 . S
H1568 C1514 0.930 . S
H1569 C1517 0.929 . S
H1570 C1522 0.929 . S
H1571 C1523 0.930 . S
H1572 C1530 0.929 . S
H1573 C1531 0.930 . S
H1574 C1532 0.930 . S
H1575 C1533 0.930 . S
H1576 C1535 0.929 . S
H1577 C1536 0.930 . S
H1578 C1537 0.930 . S
H1579 C1538 0.930 . S
H1580 C1542 0.929 . S
H1581 C1544 0.930 . S
H1582 C1550 0.929 . S
H1583 C1551 0.930 . S
Li1584 N1601 1.990 . S
Li1584 O1644 1.956 . S
Li1584 O1645 1.970 . S
Li1584 O1646 1.961 1_545 S
Li1585 N1609 1.990 . S
Li1585 O1644 1.970 . S
Li1585 O1645 1.956 . S
Li1585 O1647 1.961 . S
Li1586 N1631 1.990 . S
Li1586 O1644 1.961 . S
Li1586 O1646 1.956 1_545 S
Li1586 O1647 1.970 . S
Li1587 N1637 1.990 . S
Li1587 O1645 1.961 1_565 S
Li1587 O1646 1.970 . S
Li1587 O1647 1.956 1_565 S
C1588 C1590 1.348 . S
C1588 C1591 1.356 . S
C1588 O1644 1.325 . S
N1589 C1592 1.314 . S
N1589 C1593 1.279 . S
C1590 C1588 1.348 . S
C1590 C1592 1.353 . S
C1590 H1648 0.929 . S
C1591 C1588 1.356 . S
C1591 C1593 1.358 . S
C1591 H1649 0.930 . S
C1592 N1589 1.314 . S
C1592 C1590 1.353 . S
C1592 H1650 0.930 . S
C1593 N1589 1.279 . S
C1593 C1591 1.358 . S
C1593 H1651 0.930 . S
C1594 C1597 1.348 . S
C1594 C1598 1.364 . S
C1594 O1645 1.325 . S
C1595 N1596 1.279 . S
C1595 C1598 1.360 . S
C1595 H1652 0.930 1_545 S
N1596 C1595 1.279 . S
N1596 C1599 1.314 . S
C1597 C1594 1.348 . S
C1597 C1599 1.353 . S
C1597 H1653 0.929 . S
C1598 C1594 1.364 . S
C1598 C1595 1.360 . S
C1598 H1654 0.922 1_545 S
C1599 N1596 1.314 . S
C1599 C1597 1.353 . S
C1599 H1655 0.930 . S
C1600 N1601 1.314 1_565 S
C1600 C1605 1.353 . S
C1600 H1606 0.930 . S
N1601 Li1584 1.990 . S
N1601 C1600 1.314 1_545 S
N1601 C1603 1.279 . S
C1602 C1603 1.358 . S
C1602 C1604 1.356 . S
C1602 H1656 0.930 . S
C1603 N1601 1.279 . S
C1603 C1602 1.358 . S
C1603 H1607 0.930 . S
C1604 C1602 1.356 . S
C1604 C1605 1.348 1_545 S
C1605 C1600 1.353 . S
C1605 C1604 1.348 1_565 S
C1605 H1657 0.929 . S
H1606 C1600 0.930 . S
H1607 C1603 0.930 . S
C1608 N1609 1.314 . S
C1608 C1610 1.353 . S
C1608 H1614 0.930 . S
N1609 Li1585 1.990 . S
N1609 C1608 1.314 . S
N1609 C1612 1.279 . S
C1610 C1608 1.353 . S
C1610 C1613 1.348 . S
C1610 H1658 0.929 . S
C1611 C1612 1.358 . S
C1611 C1613 1.356 . S
C1611 H1659 0.930 . S
C1612 N1609 1.279 . S
C1612 C1611 1.358 . S
C1612 H1615 0.930 . S
C1613 C1610 1.348 . S
C1613 C1611 1.356 . S
H1614 C1608 0.930 . S
H1615 C1612 0.930 . S
C1616 C1618 1.348 . S
C1616 C1619 1.356 . S
C1616 O1646 1.325 . S
N1617 C1620 1.314 . S
N1617 C1621 1.279 . S
C1618 C1616 1.348 . S
C1618 C1620 1.353 . S
C1618 H1660 0.929 . S
C1619 C1616 1.356 . S
C1619 C1621 1.358 . S
C1619 H1661 0.930 . S
C1620 N1617 1.314 . S
C1620 C1618 1.353 . S
C1620 H1662 0.930 . S
C1621 N1617 1.279 . S
C1621 C1619 1.358 . S
C1621 H1663 0.930 . S
C1622 C1623 1.348 1_545 S
C1622 C1624 1.356 . S
C1622 O1647 1.325 . S
C1623 C1622 1.348 1_565 S
C1623 C1625 1.353 . S
C1623 H1664 0.929 . S
C1624 C1622 1.356 . S
C1624 C1626 1.358 . S
C1624 H1665 0.930 . S
C1625 C1623 1.353 . S
C1625 N1627 1.314 1_565 S
C1625 H1666 0.930 . S
C1626 C1624 1.358 . S
C1626 N1627 1.279 . S
C1626 H1667 0.930 . S
N1627 C1625 1.314 1_545 S
N1627 C1626 1.279 . S
C1628 C1630 1.353 . S
C1628 N1631 1.314 . S
C1628 H1634 0.930 . S
C1629 N1631 1.279 1_565 S
C1629 C1632 1.358 . S
C1629 H1635 0.930 . S
C1630 C1628 1.353 . S
C1630 C1633 1.348 . S
C1630 H1668 0.929 . S
N1631 Li1586 1.990 . S
N1631 C1628 1.314 . S
N1631 C1629 1.279 1_545 S
C1632 C1629 1.358 . S
C1632 C1633 1.356 1_565 S
C1632 H1669 0.930 . S
C1633 C1630 1.348 . S
C1633 C1632 1.356 1_545 S
H1634 C1628 0.930 . S
H1635 C1629 0.930 . S
C1636 N1637 1.314 . S
C1636 C1638 1.353 . S
C1636 H1642 0.930 . S
N1637 Li1587 1.990 . S
N1637 C1636 1.314 . S
N1637 C1640 1.279 . S
C1638 C1636 1.353 . S
C1638 C1641 1.348 . S
C1638 H1670 0.929 . S
C1639 C1640 1.358 . S
C1639 C1641 1.356 . S
C1639 H1671 0.930 . S
C1640 N1637 1.279 . S
C1640 C1639 1.358 . S
C1640 H1643 0.930 . S
C1641 C1638 1.348 . S
C1641 C1639 1.356 . S
H1642 C1636 0.930 . S
H1643 C1640 0.930 . S
O1644 Li1584 1.956 . S
O1644 Li1585 1.970 . S
O1644 Li1586 1.961 . S
O1644 C1588 1.325 . S
O1645 Li1584 1.970 . S
O1645 Li1585 1.956 . S
O1645 Li1587 1.961 1_545 S
O1645 C1594 1.325 . S
O1646 Li1584 1.961 1_565 S
O1646 Li1586 1.956 1_565 S
O1646 Li1587 1.970 . S
O1646 C1616 1.325 . S
O1647 Li1585 1.961 . S
O1647 Li1586 1.970 . S
O1647 Li1587 1.956 1_545 S
O1647 C1622 1.325 . S
H1648 C1590 0.929 . S
H1649 C1591 0.930 . S
H1650 C1592 0.930 . S
H1651 C1593 0.930 . S
H1652 C1595 0.930 1_565 S
H1653 C1597 0.929 . S
H1654 C1598 0.922 1_565 S
H1655 C1599 0.930 . S
H1656 C1602 0.930 . S
H1657 C1605 0.929 . S
H1658 C1610 0.929 . S
H1659 C1611 0.930 . S
H1660 C1618 0.929 . S
H1661 C1619 0.930 . S
H1662 C1620 0.930 . S
H1663 C1621 0.930 . S
H1664 C1623 0.929 . S
H1665 C1624 0.930 . S
H1666 C1625 0.930 . S
H1667 C1626 0.930 . S
H1668 C1630 0.929 . S
H1669 C1632 0.930 . S
H1670 C1638 0.929 . S
H1671 C1639 0.930 . S
Li1672 N1689 1.990 . S
Li1672 O1732 1.956 . S
Li1672 O1733 1.970 . S
Li1672 O1734 1.961 1_554 S
Li1673 N1697 1.990 . S
Li1673 O1732 1.970 . S
Li1673 O1733 1.956 . S
Li1673 O1735 1.961 . S
Li1674 N1719 1.990 . S
Li1674 O1732 1.961 . S
Li1674 O1734 1.956 1_554 S
Li1674 O1735 1.970 . S
Li1675 N1725 1.990 . S
Li1675 O1733 1.961 1_556 S
Li1675 O1734 1.970 . S
Li1675 O1735 1.956 1_556 S
C1676 C1678 1.348 . S
C1676 C1679 1.356 . S
C1676 O1732 1.325 . S
N1677 C1680 1.314 . S
N1677 C1681 1.279 . S
C1678 C1676 1.348 . S
C1678 C1680 1.353 . S
C1678 H1736 0.929 . S
C1679 C1676 1.356 . S
C1679 C1681 1.358 . S
C1679 H1737 0.930 . S
C1680 N1677 1.314 . S
C1680 C1678 1.353 . S
C1680 H1738 0.930 . S
C1681 N1677 1.279 . S
C1681 C1679 1.358 . S
C1681 H1739 0.930 . S
C1682 C1685 1.348 . S
C1682 C1686 1.356 . S
C1682 O1733 1.325 . S
C1683 N1684 1.279 . S
C1683 C1686 1.358 . S
C1683 H1740 0.930 . S
N1684 C1683 1.279 . S
N1684 C1687 1.314 . S
C1685 C1682 1.348 . S
C1685 C1687 1.353 . S
C1685 H1741 0.929 . S
C1686 C1682 1.356 . S
C1686 C1683 1.358 . S
C1686 H1742 0.930 . S
C1687 N1684 1.314 . S
C1687 C1685 1.353 . S
C1687 H1743 0.930 . S
C1688 N1689 1.314 1_556 S
C1688 C1693 1.353 . S
C1688 H1694 0.930 . S
N1689 Li1672 1.990 . S
N1689 C1688 1.314 1_554 S
N1689 C1691 1.279 . S
C1690 C1691 1.358 . S
C1690 C1692 1.356 . S
C1690 H1744 0.930 . S
C1691 N1689 1.279 . S
C1691 C1690 1.358 . S
C1691 H1695 0.930 . S
C1692 C1690 1.356 . S
C1692 C1693 1.348 1_554 S
C1693 C1688 1.353 . S
C1693 C1692 1.348 1_556 S
C1693 H1745 0.929 . S
H1694 C1688 0.930 . S
H1695 C1691 0.930 . S
C1696 N1697 1.314 . S
C1696 C1698 1.353 . S
C1696 H1702 0.930 . S
N1697 Li1673 1.990 . S
N1697 C1696 1.314 . S
N1697 C1700 1.279 . S
C1698 C1696 1.353 . S
C1698 C1701 1.348 . S
C1698 H1746 0.929 . S
C1699 C1700 1.358 . S
C1699 C1701 1.356 . S
C1699 H1747 0.930 . S
C1700 N1697 1.279 . S
C1700 C1699 1.358 . S
C1700 H1703 0.930 . S
C1701 C1698 1.348 . S
C1701 C1699 1.356 . S
H1702 C1696 0.930 . S
H1703 C1700 0.930 . S
C1704 C1706 1.348 . S
C1704 C1707 1.356 . S
C1704 O1734 1.325 . S
N1705 C1708 1.314 . S
N1705 C1709 1.279 . S
C1706 C1704 1.348 . S
C1706 C1708 1.353 . S
C1706 H1748 0.929 . S
C1707 C1704 1.356 . S
C1707 C1709 1.358 . S
C1707 H1749 0.930 . S
C1708 N1705 1.314 . S
C1708 C1706 1.353 . S
C1708 H1750 0.930 . S
C1709 N1705 1.279 . S
C1709 C1707 1.358 . S
C1709 H1751 0.930 . S
C1710 C1711 1.348 . S
C1710 C1712 1.356 . S
C1710 O1735 1.325 . S
C1711 C1710 1.348 . S
C1711 C1713 1.353 . S
C1711 H1752 0.929 1_554 S
C1712 C1710 1.356 . S
C1712 C1714 1.358 . S
C1712 H1753 0.930 . S
C1713 C1711 1.353 . S
C1713 N1715 1.314 . S
C1713 H1754 0.930 1_554 S
C1714 C1712 1.358 . S
C1714 N1715 1.279 . S
C1714 H1755 0.930 . S
N1715 C1713 1.314 . S
N1715 C1714 1.279 . S
C1716 C1718 1.353 . S
C1716 N1719 1.314 . S
C1716 H1722 0.930 . S
C1717 N1719 1.279 1_556 S
C1717 C1720 1.358 . S
C1717 H1723 0.930 . S
C1718 C1716 1.353 . S
C1718 C1721 1.348 . S
C1718 H1756 0.929 . S
N1719 Li1674 1.990 . S
N1719 C1716 1.314 . S
N1719 C1717 1.279 1_554 S
C1720 C1717 1.358 . S
C1720 C1721 1.356 1_556 S
C1720 H1757 0.930 . S
C1721 C1718 1.348 . S
C1721 C1720 1.356 1_554 S
H1722 C1716 0.930 . S
H1723 C1717 0.930 . S
C1724 N1725 1.314 . S
C1724 C1726 1.353 . S
C1724 H1730 0.930 . S
N1725 Li1675 1.990 . S
N1725 C1724 1.314 . S
N1725 C1728 1.279 . S
C1726 C1724 1.353 . S
C1726 C1729 1.348 . S
C1726 H1758 0.929 . S
C1727 C1728 1.358 . S
C1727 C1729 1.356 . S
C1727 H1759 0.930 . S
C1728 N1725 1.279 . S
C1728 C1727 1.358 . S
C1728 H1731 0.930 . S
C1729 C1726 1.348 . S
C1729 C1727 1.356 . S
H1730 C1724 0.930 . S
H1731 C1728 0.930 . S
O1732 Li1672 1.956 . S
O1732 Li1673 1.970 . S
O1732 Li1674 1.961 . S
O1732 C1676 1.325 . S
O1733 Li1672 1.970 . S
O1733 Li1673 1.956 . S
O1733 Li1675 1.961 1_554 S
O1733 C1682 1.325 . S
O1734 Li1672 1.961 1_556 S
O1734 Li1674 1.956 1_556 S
O1734 Li1675 1.970 . S
O1734 C1704 1.325 . S
O1735 Li1673 1.961 . S
O1735 Li1674 1.970 . S
O1735 Li1675 1.956 1_554 S
O1735 C1710 1.325 . S
H1736 C1678 0.929 . S
H1737 C1679 0.930 . S
H1738 C1680 0.930 . S
H1739 C1681 0.930 . S
H1740 C1683 0.930 . S
H1741 C1685 0.929 . S
H1742 C1686 0.930 . S
H1743 C1687 0.930 . S
H1744 C1690 0.930 . S
H1745 C1693 0.929 . S
H1746 C1698 0.929 . S
H1747 C1699 0.930 . S
H1748 C1706 0.929 . S
H1749 C1707 0.930 . S
H1750 C1708 0.930 . S
H1751 C1709 0.930 . S
H1752 C1711 0.929 1_556 S
H1753 C1712 0.930 . S
H1754 C1713 0.930 1_556 S
H1755 C1714 0.930 . S
H1756 C1718 0.929 . S
H1757 C1720 0.930 . S
H1758 C1726 0.929 . S
H1759 C1727 0.930 . S
Li1760 N1777 1.990 . S
Li1760 O1820 1.991 . S
Li1760 O1821 1.970 . S
Li1760 O1822 1.961 . S
Li1761 N1785 1.990 . S
Li1761 O1820 1.973 . S
Li1761 O1821 1.956 . S
Li1761 O1823 1.961 1_554 S
Li1762 N1807 1.990 . S
Li1762 O1820 1.929 1_556 S
Li1762 O1822 1.956 1_556 S
Li1762 O1823 1.970 . S
Li1763 N1813 1.990 . S
Li1763 O1821 1.991 . S
Li1763 O1822 1.972 . S
Li1763 O1823 1.928 1_554 S
C1764 C1766 1.348 . S
C1764 C1767 1.356 1_554 S
C1764 O1820 1.327 . S
N1765 C1768 1.314 . S
N1765 C1769 1.279 1_554 S
C1766 C1764 1.348 . S
C1766 C1768 1.353 . S
C1766 H1824 0.929 . S
C1767 C1764 1.356 1_556 S
C1767 C1769 1.358 . S
C1767 H1825 0.930 . S
C1768 N1765 1.314 . S
C1768 C1766 1.353 . S
C1768 H1826 0.930 . S
C1769 N1765 1.279 1_556 S
C1769 C1767 1.358 . S
C1769 H1827 0.930 . S
C1770 C1773 1.348 . S
C1770 C1774 1.356 . S
C1770 O1821 1.325 . S
C1771 N1772 1.279 . S
C1771 C1774 1.358 . S
C1771 H1828 0.930 . S
N1772 C1771 1.279 . S
N1772 C1775 1.314 . S
C1773 C1770 1.348 . S
C1773 C1775 1.353 . S
C1773 H1829 0.929 . S
C1774 C1770 1.356 . S
C1774 C1771 1.358 . S
C1774 H1830 0.930 . S
C1775 N1772 1.314 . S
C1775 C1773 1.353 . S
C1775 H1831 0.930 . S
C1776 N1777 1.314 . S
C1776 C1781 1.353 . S
C1776 H1782 0.930 . S
N1777 Li1760 1.990 . S
N1777 C1776 1.314 . S
N1777 C1779 1.279 . S
C1778 C1779 1.358 . S
C1778 C1780 1.356 . S
C1778 H1832 0.930 . S
C1779 N1777 1.279 . S
C1779 C1778 1.358 . S
C1779 H1783 0.930 . S
C1780 C1778 1.356 . S
C1780 C1781 1.348 . S
C1781 C1776 1.353 . S
C1781 C1780 1.348 . S
C1781 H1833 0.929 . S
H1782 C1776 0.930 . S
H1783 C1779 0.930 . S
C1784 N1785 1.314 1_556 S
C1784 C1786 1.353 . S
C1784 H1790 0.930 . S
N1785 Li1761 1.990 . S
N1785 C1784 1.314 1_554 S
N1785 C1788 1.279 . S
C1786 C1784 1.353 . S
C1786 C1789 1.348 1_556 S
C1786 H1834 0.929 . S
C1787 C1788 1.358 . S
C1787 C1789 1.356 . S
C1787 H1835 0.930 . S
C1788 N1785 1.279 . S
C1788 C1787 1.358 . S
C1788 H1791 0.930 . S
C1789 C1786 1.348 1_554 S
C1789 C1787 1.356 . S
H1790 C1784 0.930 . S
H1791 C1788 0.930 . S
C1792 C1794 1.348 1_554 S
C1792 C1795 1.356 . S
C1792 O1822 1.325 . S
N1793 C1796 1.314 1_554 S
N1793 C1797 1.279 . S
C1794 C1792 1.348 1_556 S
C1794 C1796 1.353 . S
C1794 H1836 0.929 . S
C1795 C1792 1.356 . S
C1795 C1797 1.358 . S
C1795 H1837 0.930 . S
C1796 N1793 1.314 1_556 S
C1796 C1794 1.353 . S
C1796 H1838 0.930 . S
C1797 N1793 1.279 . S
C1797 C1795 1.358 . S
C1797 H1839 0.930 . S
C1798 C1799 1.348 . S
C1798 C1800 1.356 . S
C1798 O1823 1.325 . S
C1799 C1798 1.348 . S
C1799 C1801 1.353 . S
C1799 H1840 0.929 . S
C1800 C1798 1.356 . S
C1800 C1802 1.358 . S
C1800 H1841 0.930 . S
C1801 C1799 1.353 . S
C1801 N1803 1.314 . S
C1801 H1842 0.930 . S
C1802 C1800 1.358 . S
C1802 N1803 1.279 . S
C1802 H1843 0.930 . S
N1803 C1801 1.314 . S
N1803 C1802 1.279 . S
C1804 C1806 1.353 . S
C1804 N1807 1.314 . S
C1804 H1810 0.930 . S
C1805 N1807 1.279 . S
C1805 C1808 1.358 . S
C1805 H1811 0.930 . S
C1806 C1804 1.353 . S
C1806 C1809 1.348 . S
C1806 H1844 0.929 . S
N1807 Li1762 1.990 . S
N1807 C1804 1.314 . S
N1807 C1805 1.279 . S
C1808 C1805 1.358 . S
C1808 C1809 1.356 . S
C1808 H1845 0.930 . S
C1809 C1806 1.348 . S
C1809 C1808 1.356 . S
H1810 C1804 0.930 . S
H1811 C1805 0.930 . S
C1812 N1813 1.323 . S
C1812 C1814 1.353 . S
C1812 H1818 0.930 . S
N1813 Li1763 1.990 . S
N1813 C1812 1.323 . S
N1813 C1816 1.271 1_554 S
C1814 C1812 1.353 . S
C1814 C1817 1.395 . S
C1814 H1846 0.929 . S
C1815 C1816 1.358 . S
C1815 C1817 1.310 1_556 S
C1815 H1847 0.930 . S
C1816 N1813 1.271 1_556 S
C1816 C1815 1.358 . S
C1816 H1819 0.930 . S
C1817 C1814 1.395 . S
C1817 C1815 1.310 1_554 S
H1818 C1812 0.930 . S
H1819 C1816 0.930 . S
O1820 Li1760 1.991 . S
O1820 Li1761 1.973 . S
O1820 Li1762 1.929 1_554 S
O1820 C1764 1.327 . S
O1821 Li1760 1.970 . S
O1821 Li1761 1.956 . S
O1821 Li1763 1.991 . S
O1821 C1770 1.325 . S
O1822 Li1760 1.961 . S
O1822 Li1762 1.956 1_554 S
O1822 Li1763 1.972 . S
O1822 C1792 1.325 . S
O1823 Li1761 1.961 1_556 S
O1823 Li1762 1.970 . S
O1823 Li1763 1.928 1_556 S
O1823 C1798 1.325 . S
H1824 C1766 0.929 . S
H1825 C1767 0.930 . S
H1826 C1768 0.930 . S
H1827 C1769 0.930 . S
H1828 C1771 0.930 . S
H1829 C1773 0.929 . S
H1830 C1774 0.930 . S
H1831 C1775 0.930 . S
H1832 C1778 0.930 . S
H1833 C1781 0.929 . S
H1834 C1786 0.929 . S
H1835 C1787 0.930 . S
H1836 C1794 0.929 . S
H1837 C1795 0.930 . S
H1838 C1796 0.930 . S
H1839 C1797 0.930 . S
H1840 C1799 0.929 . S
H1841 C1800 0.930 . S
H1842 C1801 0.930 . S
H1843 C1802 0.930 . S
H1844 C1806 0.929 . S
H1845 C1808 0.930 . S
H1846 C1814 0.929 . S
H1847 C1815 0.930 . S
Li1848 N1865 1.990 . S
Li1848 O1908 1.956 . S
Li1848 O1909 1.970 . S
Li1848 O1910 1.961 . S
Li1849 N1873 1.990 . S
Li1849 O1908 1.970 . S
Li1849 O1909 1.956 . S
Li1849 O1911 1.961 . S
Li1850 N1895 1.990 . S
Li1850 O1908 1.961 . S
Li1850 O1910 1.956 . S
Li1850 O1911 1.970 . S
Li1851 N1901 1.990 . S
Li1851 O1909 1.961 . S
Li1851 O1910 1.970 . S
Li1851 O1911 1.956 . S
C1852 C1854 1.348 . S
C1852 C1855 1.356 . S
C1852 O1908 1.325 . S
N1853 C1856 1.314 . S
N1853 C1857 1.279 . S
C1854 C1852 1.348 . S
C1854 C1856 1.353 . S
C1854 H1912 0.929 . S
C1855 C1852 1.356 . S
C1855 C1857 1.358 . S
C1855 H1913 0.930 . S
C1856 N1853 1.314 . S
C1856 C1854 1.353 . S
C1856 H1914 0.930 . S
C1857 N1853 1.279 . S
C1857 C1855 1.358 . S
C1857 H1915 0.930 . S
C1858 C1861 1.348 . S
C1858 C1862 1.356 . S
C1858 O1909 1.325 . S
C1859 N1860 1.279 . S
C1859 C1862 1.358 . S
C1859 H1916 0.930 . S
N1860 C1859 1.279 . S
N1860 C1863 1.314 . S
C1861 C1858 1.348 . S
C1861 C1863 1.353 . S
C1861 H1917 0.929 . S
C1862 C1858 1.356 . S
C1862 C1859 1.358 . S
C1862 H1918 0.930 . S
C1863 N1860 1.314 . S
C1863 C1861 1.353 . S
C1863 H1919 0.930 . S
C1864 N1865 1.314 . S
C1864 C1869 1.353 . S
C1864 H1870 0.930 . S
N1865 Li1848 1.990 . S
N1865 C1864 1.314 . S
N1865 C1867 1.279 . S
C1866 C1867 1.358 . S
C1866 C1868 1.356 . S
C1866 H1920 0.930 . S
C1867 N1865 1.279 . S
C1867 C1866 1.358 . S
C1867 H1871 0.930 . S
C1868 C1866 1.356 . S
C1868 C1869 1.348 . S
C1869 C1864 1.353 . S
C1869 C1868 1.348 . S
C1869 H1921 0.929 . S
H1870 C1864 0.930 . S
H1871 C1867 0.930 . S
C1872 N1873 1.314 . S
C1872 C1874 1.353 . S
C1872 H1878 0.930 . S
N1873 Li1849 1.990 . S
N1873 C1872 1.314 . S
N1873 C1876 1.279 . S
C1874 C1872 1.353 . S
C1874 C1877 1.348 . S
C1874 H1922 0.929 . S
C1875 C1876 1.358 . S
C1875 C1877 1.356 . S
C1875 H1923 0.930 . S
C1876 N1873 1.279 . S
C1876 C1875 1.358 . S
C1876 H1879 0.930 . S
C1877 C1874 1.348 . S
C1877 C1875 1.356 . S
H1878 C1872 0.930 . S
H1879 C1876 0.930 . S
C1880 C1882 1.348 . S
C1880 C1883 1.356 . S
C1880 O1910 1.325 . S
N1881 C1884 1.314 . S
N1881 C1885 1.279 . S
C1882 C1880 1.348 . S
C1882 C1884 1.353 . S
C1882 H1924 0.929 . S
C1883 C1880 1.356 . S
C1883 C1885 1.358 . S
C1883 H1925 0.930 . S
C1884 N1881 1.314 . S
C1884 C1882 1.353 . S
C1884 H1926 0.930 . S
C1885 N1881 1.279 . S
C1885 C1883 1.358 . S
C1885 H1927 0.930 . S
C1886 C1887 1.348 . S
C1886 C1888 1.356 . S
C1886 O1911 1.325 . S
C1887 C1886 1.348 . S
C1887 C1889 1.353 . S
C1887 H1928 0.929 . S
C1888 C1886 1.356 . S
C1888 C1890 1.358 . S
C1888 H1929 0.930 . S
C1889 C1887 1.353 . S
C1889 N1891 1.314 . S
C1889 H1930 0.930 . S
C1890 C1888 1.358 . S
C1890 N1891 1.279 . S
C1890 H1931 0.930 . S
N1891 C1889 1.314 . S
N1891 C1890 1.279 . S
C1892 C1894 1.353 . S
C1892 N1895 1.314 . S
C1892 H1898 0.930 . S
C1893 N1895 1.279 . S
C1893 C1896 1.358 . S
C1893 H1899 0.930 . S
C1894 C1892 1.353 . S
C1894 C1897 1.348 . S
C1894 H1932 0.929 . S
N1895 Li1850 1.990 . S
N1895 C1892 1.314 . S
N1895 C1893 1.279 . S
C1896 C1893 1.358 . S
C1896 C1897 1.356 . S
C1896 H1933 0.930 . S
C1897 C1894 1.348 . S
C1897 C1896 1.356 . S
H1898 C1892 0.930 . S
H1899 C1893 0.930 . S
C1900 N1901 1.314 . S
C1900 C1902 1.353 . S
C1900 H1906 0.930 . S
N1901 Li1851 1.990 . S
N1901 C1900 1.314 . S
N1901 C1904 1.279 . S
C1902 C1900 1.353 . S
C1902 C1905 1.348 . S
C1902 H1934 0.929 . S
C1903 C1904 1.358 . S
C1903 C1905 1.356 . S
C1903 H1935 0.930 . S
C1904 N1901 1.279 . S
C1904 C1903 1.358 . S
C1904 H1907 0.930 . S
C1905 C1902 1.348 . S
C1905 C1903 1.356 . S
H1906 C1900 0.930 . S
H1907 C1904 0.930 . S
O1908 Li1848 1.956 . S
O1908 Li1849 1.970 . S
O1908 Li1850 1.961 . S
O1908 C1852 1.325 . S
O1909 Li1848 1.970 . S
O1909 Li1849 1.956 . S
O1909 Li1851 1.961 . S
O1909 C1858 1.325 . S
O1910 Li1848 1.961 . S
O1910 Li1850 1.956 . S
O1910 Li1851 1.970 . S
O1910 C1880 1.325 . S
O1911 Li1849 1.961 . S
O1911 Li1850 1.970 . S
O1911 Li1851 1.956 . S
O1911 C1886 1.325 . S
H1912 C1854 0.929 . S
H1913 C1855 0.930 . S
H1914 C1856 0.930 . S
H1915 C1857 0.930 . S
H1916 C1859 0.930 . S
H1917 C1861 0.929 . S
H1918 C1862 0.930 . S
H1919 C1863 0.930 . S
H1920 C1866 0.930 . S
H1921 C1869 0.929 . S
H1922 C1874 0.929 . S
H1923 C1875 0.930 . S
H1924 C1882 0.929 . S
H1925 C1883 0.930 . S
H1926 C1884 0.930 . S
H1927 C1885 0.930 . S
H1928 C1887 0.929 . S
H1929 C1888 0.930 . S
H1930 C1889 0.930 . S
H1931 C1890 0.930 . S
H1932 C1894 0.929 . S
H1933 C1896 0.930 . S
H1934 C1902 0.929 . S
H1935 C1903 0.930 . S
Li1936 N1953 1.990 . S
Li1936 O1996 1.956 . S
Li1936 O1997 1.970 . S
Li1936 O1998 1.961 . S
Li1937 N1961 1.990 . S
Li1937 O1996 1.970 . S
Li1937 O1997 1.956 . S
Li1937 O1999 1.961 . S
Li1938 N1983 1.990 . S
Li1938 O1996 1.961 . S
Li1938 O1998 1.956 . S
Li1938 O1999 1.970 . S
Li1939 N1989 1.990 . S
Li1939 O1997 1.961 . S
Li1939 O1998 1.970 . S
Li1939 O1999 1.956 . S
C1940 C1942 1.348 . S
C1940 C1943 1.356 . S
C1940 O1996 1.325 . S
N1941 C1944 1.314 . S
N1941 C1945 1.279 . S
C1942 C1940 1.348 . S
C1942 C1944 1.353 . S
C1942 H2000 0.929 . S
C1943 C1940 1.356 . S
C1943 C1945 1.358 . S
C1943 H2001 0.930 . S
C1944 N1941 1.314 . S
C1944 C1942 1.353 . S
C1944 H2002 0.930 . S
C1945 N1941 1.279 . S
C1945 C1943 1.358 . S
C1945 H2003 0.930 . S
C1946 C1949 1.348 . S
C1946 C1950 1.356 . S
C1946 O1997 1.325 . S
C1947 N1948 1.279 . S
C1947 C1950 1.358 . S
C1947 H2004 0.930 . S
N1948 C1947 1.279 . S
N1948 C1951 1.314 . S
C1949 C1946 1.348 . S
C1949 C1951 1.353 . S
C1949 H2005 0.929 . S
C1950 C1946 1.356 . S
C1950 C1947 1.358 . S
C1950 H2006 0.930 . S
C1951 N1948 1.314 . S
C1951 C1949 1.353 . S
C1951 H2007 0.930 . S
C1952 N1953 1.314 . S
C1952 C1957 1.353 . S
C1952 H1958 0.930 . S
N1953 Li1936 1.990 . S
N1953 C1952 1.314 . S
N1953 C1955 1.279 . S
C1954 C1955 1.358 . S
C1954 C1956 1.356 . S
C1954 H2008 0.930 . S
C1955 N1953 1.279 . S
C1955 C1954 1.358 . S
C1955 H1959 0.930 . S
C1956 C1954 1.356 . S
C1956 C1957 1.348 . S
C1957 C1952 1.353 . S
C1957 C1956 1.348 . S
C1957 H2009 0.929 . S
H1958 C1952 0.930 . S
H1959 C1955 0.930 . S
C1960 N1961 1.314 . S
C1960 C1962 1.353 . S
C1960 H1966 0.930 . S
N1961 Li1937 1.990 . S
N1961 C1960 1.314 . S
N1961 C1964 1.279 . S
C1962 C1960 1.353 . S
C1962 C1965 1.348 . S
C1962 H2010 0.929 . S
C1963 C1964 1.358 . S
C1963 C1965 1.356 . S
C1963 H2011 0.930 . S
C1964 N1961 1.279 . S
C1964 C1963 1.358 . S
C1964 H1967 0.930 . S
C1965 C1962 1.348 . S
C1965 C1963 1.356 . S
H1966 C1960 0.930 . S
H1967 C1964 0.930 . S
C1968 C1970 1.348 . S
C1968 C1971 1.356 . S
C1968 O1998 1.325 . S
N1969 C1972 1.314 . S
N1969 C1973 1.279 . S
C1970 C1968 1.348 . S
C1970 C1972 1.353 . S
C1970 H2012 0.929 . S
C1971 C1968 1.356 . S
C1971 C1973 1.358 . S
C1971 H2013 0.930 . S
C1972 N1969 1.314 . S
C1972 C1970 1.353 . S
C1972 H2014 0.930 . S
C1973 N1969 1.279 . S
C1973 C1971 1.358 . S
C1973 H2015 0.930 . S
C1974 C1975 1.348 . S
C1974 C1976 1.356 . S
C1974 O1999 1.325 . S
C1975 C1974 1.348 . S
C1975 C1977 1.353 . S
C1975 H2016 0.929 . S
C1976 C1974 1.356 . S
C1976 C1978 1.358 . S
C1976 H2017 0.930 . S
C1977 C1975 1.353 . S
C1977 N1979 1.314 . S
C1977 H2018 0.930 . S
C1978 C1976 1.358 . S
C1978 N1979 1.279 . S
C1978 H2019 0.930 . S
N1979 C1977 1.314 . S
N1979 C1978 1.279 . S
C1980 C1982 1.353 . S
C1980 N1983 1.314 . S
C1980 H1986 0.930 . S
C1981 N1983 1.279 . S
C1981 C1984 1.358 . S
C1981 H1987 0.930 . S
C1982 C1980 1.353 . S
C1982 C1985 1.348 . S
C1982 H2020 0.929 . S
N1983 Li1938 1.990 . S
N1983 C1980 1.314 . S
N1983 C1981 1.279 . S
C1984 C1981 1.358 . S
C1984 C1985 1.356 . S
C1984 H2021 0.930 . S
C1985 C1982 1.348 . S
C1985 C1984 1.356 . S
H1986 C1980 0.930 . S
H1987 C1981 0.930 . S
C1988 N1989 1.314 . S
C1988 C1990 1.353 . S
C1988 H1994 0.930 . S
N1989 Li1939 1.990 . S
N1989 C1988 1.314 . S
N1989 C1992 1.279 . S
C1990 C1988 1.353 . S
C1990 C1993 1.348 . S
C1990 H2022 0.929 . S
C1991 C1992 1.358 . S
C1991 C1993 1.356 . S
C1991 H2023 0.930 . S
C1992 N1989 1.279 . S
C1992 C1991 1.358 . S
C1992 H1995 0.930 . S
C1993 C1990 1.348 . S
C1993 C1991 1.356 . S
H1994 C1988 0.930 . S
H1995 C1992 0.930 . S
O1996 Li1936 1.956 . S
O1996 Li1937 1.970 . S
O1996 Li1938 1.961 . S
O1996 C1940 1.325 . S
O1997 Li1936 1.970 . S
O1997 Li1937 1.956 . S
O1997 Li1939 1.961 . S
O1997 C1946 1.325 . S
O1998 Li1936 1.961 . S
O1998 Li1938 1.956 . S
O1998 Li1939 1.970 . S
O1998 C1968 1.325 . S
O1999 Li1937 1.961 . S
O1999 Li1938 1.970 . S
O1999 Li1939 1.956 . S
O1999 C1974 1.325 . S
H2000 C1942 0.929 . S
H2001 C1943 0.930 . S
H2002 C1944 0.930 . S
H2003 C1945 0.930 . S
H2004 C1947 0.930 . S
H2005 C1949 0.929 . S
H2006 C1950 0.930 . S
H2007 C1951 0.930 . S
H2008 C1954 0.930 . S
H2009 C1957 0.929 . S
H2010 C1962 0.929 . S
H2011 C1963 0.930 . S
H2012 C1970 0.929 . S
H2013 C1971 0.930 . S
H2014 C1972 0.930 . S
H2015 C1973 0.930 . S
H2016 C1975 0.929 . S
H2017 C1976 0.930 . S
H2018 C1977 0.930 . S
H2019 C1978 0.930 . S
H2020 C1982 0.929 . S
H2021 C1984 0.930 . S
H2022 C1990 0.929 . S
H2023 C1991 0.930 . S
Li2024 N2041 1.990 . S
Li2024 O2084 1.956 . S
Li2024 O2085 1.970 . S
Li2024 O2086 1.961 . S
Li2025 N2049 1.990 . S
Li2025 O2084 1.970 . S
Li2025 O2085 1.956 . S
Li2025 O2087 1.961 . S
Li2026 N2071 1.990 . S
Li2026 O2084 1.961 . S
Li2026 O2086 1.956 . S
Li2026 O2087 1.970 . S
Li2027 N2077 1.990 . S
Li2027 O2085 1.961 . S
Li2027 O2086 1.970 . S
Li2027 O2087 1.956 . S
C2028 C2030 1.348 . S
C2028 C2031 1.356 . S
C2028 O2084 1.325 . S
N2029 C2032 1.314 . S
N2029 C2033 1.279 . S
C2030 C2028 1.348 . S
C2030 C2032 1.353 . S
C2030 H2088 0.929 . S
C2031 C2028 1.356 . S
C2031 C2033 1.358 . S
C2031 H2089 0.930 . S
C2032 N2029 1.314 . S
C2032 C2030 1.353 . S
C2032 H2090 0.930 . S
C2033 N2029 1.279 . S
C2033 C2031 1.358 . S
C2033 H2091 0.930 . S
C2034 C2037 1.348 . S
C2034 C2038 1.356 . S
C2034 O2085 1.325 . S
C2035 N2036 1.279 . S
C2035 C2038 1.358 . S
C2035 H2092 0.930 . S
N2036 C2035 1.279 . S
N2036 C2039 1.314 . S
C2037 C2034 1.348 . S
C2037 C2039 1.353 . S
C2037 H2093 0.929 . S
C2038 C2034 1.356 . S
C2038 C2035 1.358 . S
C2038 H2094 0.930 . S
C2039 N2036 1.314 . S
C2039 C2037 1.353 . S
C2039 H2095 0.930 . S
C2040 N2041 1.314 . S
C2040 C2045 1.353 . S
C2040 H2046 0.930 . S
N2041 Li2024 1.990 . S
N2041 C2040 1.314 . S
N2041 C2043 1.279 . S
C2042 C2043 1.358 . S
C2042 C2044 1.356 . S
C2042 H2096 0.930 . S
C2043 N2041 1.279 . S
C2043 C2042 1.358 . S
C2043 H2047 0.930 . S
C2044 C2042 1.356 . S
C2044 C2045 1.348 . S
C2045 C2040 1.353 . S
C2045 C2044 1.348 . S
C2045 H2097 0.929 . S
H2046 C2040 0.930 . S
H2047 C2043 0.930 . S
C2048 N2049 1.314 . S
C2048 C2050 1.353 . S
C2048 H2054 0.930 . S
N2049 Li2025 1.990 . S
N2049 C2048 1.314 . S
N2049 C2052 1.279 . S
C2050 C2048 1.353 . S
C2050 C2053 1.348 . S
C2050 H2098 0.929 . S
C2051 C2052 1.358 . S
C2051 C2053 1.356 . S
C2051 H2099 0.930 . S
C2052 N2049 1.279 . S
C2052 C2051 1.358 . S
C2052 H2055 0.930 . S
C2053 C2050 1.348 . S
C2053 C2051 1.356 . S
H2054 C2048 0.930 . S
H2055 C2052 0.930 . S
C2056 C2058 1.348 . S
C2056 C2059 1.356 . S
C2056 O2086 1.325 . S
N2057 C2060 1.314 . S
N2057 C2061 1.279 . S
C2058 C2056 1.348 . S
C2058 C2060 1.353 . S
C2058 H2100 0.929 . S
C2059 C2056 1.356 . S
C2059 C2061 1.358 . S
C2059 H2101 0.930 . S
C2060 N2057 1.314 . S
C2060 C2058 1.353 . S
C2060 H2102 0.930 . S
C2061 N2057 1.279 . S
C2061 C2059 1.358 . S
C2061 H2103 0.930 . S
C2062 C2063 1.348 . S
C2062 C2064 1.356 . S
C2062 O2087 1.325 . S
C2063 C2062 1.348 . S
C2063 C2065 1.353 . S
C2063 H2104 0.929 . S
C2064 C2062 1.356 . S
C2064 C2066 1.358 . S
C2064 H2105 0.930 . S
C2065 C2063 1.353 . S
C2065 N2067 1.314 . S
C2065 H2106 0.930 . S
C2066 C2064 1.358 . S
C2066 N2067 1.279 . S
C2066 H2107 0.930 . S
N2067 C2065 1.314 . S
N2067 C2066 1.279 . S
C2068 C2070 1.353 . S
C2068 N2071 1.314 . S
C2068 H2074 0.930 . S
C2069 N2071 1.279 . S
C2069 C2072 1.358 . S
C2069 H2075 0.930 . S
C2070 C2068 1.353 . S
C2070 C2073 1.348 . S
C2070 H2108 0.929 . S
N2071 Li2026 1.990 . S
N2071 C2068 1.314 . S
N2071 C2069 1.279 . S
C2072 C2069 1.358 . S
C2072 C2073 1.356 . S
C2072 H2109 0.930 . S
C2073 C2070 1.348 . S
C2073 C2072 1.356 . S
H2074 C2068 0.930 . S
H2075 C2069 0.930 . S
C2076 N2077 1.314 . S
C2076 C2078 1.353 . S
C2076 H2082 0.930 . S
N2077 Li2027 1.990 . S
N2077 C2076 1.314 . S
N2077 C2080 1.279 . S
C2078 C2076 1.353 . S
C2078 C2081 1.348 . S
C2078 H2110 0.929 . S
C2079 C2080 1.358 . S
C2079 C2081 1.356 . S
C2079 H2111 0.930 . S
C2080 N2077 1.279 . S
C2080 C2079 1.358 . S
C2080 H2083 0.930 . S
C2081 C2078 1.348 . S
C2081 C2079 1.356 . S
H2082 C2076 0.930 . S
H2083 C2080 0.930 . S
O2084 Li2024 1.956 . S
O2084 Li2025 1.970 . S
O2084 Li2026 1.961 . S
O2084 C2028 1.325 . S
O2085 Li2024 1.970 . S
O2085 Li2025 1.956 . S
O2085 Li2027 1.961 . S
O2085 C2034 1.325 . S
O2086 Li2024 1.961 . S
O2086 Li2026 1.956 . S
O2086 Li2027 1.970 . S
O2086 C2056 1.325 . S
O2087 Li2025 1.961 . S
O2087 Li2026 1.970 . S
O2087 Li2027 1.956 . S
O2087 C2062 1.325 . S
H2088 C2030 0.929 . S
H2089 C2031 0.930 . S
H2090 C2032 0.930 . S
H2091 C2033 0.930 . S
H2092 C2035 0.930 . S
H2093 C2037 0.929 . S
H2094 C2038 0.930 . S
H2095 C2039 0.930 . S
H2096 C2042 0.930 . S
H2097 C2045 0.929 . S
H2098 C2050 0.929 . S
H2099 C2051 0.930 . S
H2100 C2058 0.929 . S
H2101 C2059 0.930 . S
H2102 C2060 0.930 . S
H2103 C2061 0.930 . S
H2104 C2063 0.929 . S
H2105 C2064 0.930 . S
H2106 C2065 0.930 . S
H2107 C2066 0.930 . S
H2108 C2070 0.929 . S
H2109 C2072 0.930 . S
H2110 C2078 0.929 . S
H2111 C2079 0.930 . S
O2112 Mg2113 2.039 . S
O2112 C2126 1.253 . S
Mg2113 O2112 2.039 . S
Mg2113 O2116 2.154 1_556 S
Mg2113 O2117 2.106 1_556 S
Mg2113 O2131 2.025 1_556 S
O2114 Mg2115 2.072 1_656 S
O2114 C2126 1.260 . S
Mg2115 O2114 2.072 1_454 S
Mg2115 O2116 2.099 1_455 S
Mg2115 O2118 2.079 1_545 S
Mg2115 O2119 2.072 . S
Mg2115 O2121 2.099 1_545 S
Mg2115 O2132 2.079 1_445 S
O2116 Mg2113 2.154 1_554 S
O2116 Mg2115 2.099 1_655 S
O2116 C2127 1.279 . S
O2117 Mg2113 2.106 1_554 S
O2117 C2127 1.250 . S
O2118 Mg2115 2.079 1_565 S
O2118 C2128 1.264 . S
O2119 Mg2115 2.072 . S
O2119 C2129 1.260 . S
Mg2120 O2121 2.180 . S
Mg2120 O2122 2.030 . S
Mg2120 O2123 1.978 1_554 S
Mg2120 O2124 2.117 1_554 S
O2121 Mg2115 2.099 1_565 S
O2121 Mg2120 2.180 . S
O2121 C2130 1.279 1_554 S
O2122 Mg2120 2.030 . S
O2122 C2128 1.248 . S
O2123 Mg2120 1.978 1_556 S
O2123 C2129 1.242 1_566 S
O2124 Mg2120 2.117 1_556 S
O2124 C2130 1.250 . S
C2125 O2131 1.248 1_565 S
C2125 O2132 1.264 . S
C2126 O2112 1.253 . S
C2126 O2114 1.260 . S
C2127 O2116 1.279 . S
C2127 O2117 1.250 . S
C2128 O2118 1.264 . S
C2128 O2122 1.248 . S
C2129 O2119 1.260 . S
C2129 O2123 1.242 1_544 S
C2130 O2121 1.279 1_556 S
C2130 O2124 1.250 . S
O2131 Mg2113 2.025 1_554 S
O2131 C2125 1.248 1_545 S
O2132 Mg2115 2.079 1_665 S
O2132 C2125 1.264 . S
O2133 Mg2134 1.990 . S
O2133 C2147 1.253 . S
Mg2134 O2133 1.990 . S
Mg2134 O2137 2.180 . S
Mg2134 O2138 2.117 . S
Mg2134 O2152 2.030 . S
O2135 Mg2136 2.072 . S
O2135 C2147 1.260 . S
Mg2136 O2135 2.072 . S
Mg2136 O2137 2.099 . S
Mg2136 O2139 2.079 . S
Mg2136 O2140 2.072 . S
Mg2136 O2142 2.099 . S
Mg2136 O2153 2.079 . S
O2137 Mg2134 2.180 . S
O2137 Mg2136 2.099 . S
O2137 C2148 1.279 . S
O2138 Mg2134 2.117 . S
O2138 C2148 1.250 . S
O2139 Mg2136 2.079 . S
O2139 C2149 1.264 . S
O2140 Mg2136 2.072 . S
O2140 C2150 1.260 . S
Mg2141 O2142 2.180 . S
Mg2141 O2143 2.030 . S
Mg2141 O2144 1.990 . S
Mg2141 O2145 2.117 . S
O2142 Mg2136 2.099 . S
O2142 Mg2141 2.180 . S
O2142 C2151 1.279 . S
O2143 Mg2141 2.030 . S
O2143 C2149 1.248 . S
O2144 Mg2141 1.990 . S
O2144 C2150 1.253 . S
O2145 Mg2141 2.117 . S
O2145 C2151 1.250 . S
C2146 O2152 1.248 . S
C2146 O2153 1.264 . S
C2147 O2133 1.253 . S
C2147 O2135 1.260 . S
C2148 O2137 1.279 . S
C2148 O2138 1.250 . S
C2149 O2139 1.264 . S
C2149 O2143 1.248 . S
C2150 O2140 1.260 . S
C2150 O2144 1.253 . S
C2151 O2142 1.279 . S
C2151 O2145 1.250 . S
O2152 Mg2134 2.030 . S
O2152 C2146 1.248 . S
O2153 Mg2136 2.079 . S
O2153 C2146 1.264 . S
O2154 Mg2155 1.990 . S
O2154 C2168 1.253 . S
Mg2155 O2154 1.990 . S
Mg2155 O2158 2.180 . S
Mg2155 O2159 2.117 . S
Mg2155 O2173 2.030 1_565 S
O2156 Mg2157 2.072 . S
O2156 C2168 1.260 1_545 S
Mg2157 O2156 2.072 . S
Mg2157 O2158 2.099 1_545 S
Mg2157 O2160 2.079 . S
Mg2157 O2161 2.072 1_545 S
Mg2157 O2163 2.099 . S
Mg2157 O2174 2.079 . S
O2158 Mg2155 2.180 . S
O2158 Mg2157 2.099 1_565 S
O2158 C2169 1.279 . S
O2159 Mg2155 2.117 . S
O2159 C2169 1.250 . S
O2160 Mg2157 2.079 . S
O2160 C2170 1.264 . S
O2161 Mg2157 2.072 1_565 S
O2161 C2171 1.260 . S
Mg2162 O2163 2.180 . S
Mg2162 O2164 2.030 . S
Mg2162 O2165 1.990 . S
Mg2162 O2166 2.117 . S
O2163 Mg2157 2.099 . S
O2163 Mg2162 2.180 . S
O2163 C2172 1.279 . S
O2164 Mg2162 2.030 . S
O2164 C2170 1.248 . S
O2165 Mg2162 1.990 . S
O2165 C2171 1.253 1_545 S
O2166 Mg2162 2.117 . S
O2166 C2172 1.250 . S
C2167 O2173 1.248 . S
C2167 O2174 1.264 . S
C2168 O2154 1.253 . S
C2168 O2156 1.260 1_565 S
C2169 O2158 1.279 . S
C2169 O2159 1.250 . S
C2170 O2160 1.264 . S
C2170 O2164 1.248 . S
C2171 O2161 1.260 . S
C2171 O2165 1.253 1_565 S
C2172 O2163 1.279 . S
C2172 O2166 1.250 . S
O2173 Mg2155 2.030 1_545 S
O2173 C2167 1.248 . S
O2174 Mg2157 2.079 . S
O2174 C2167 1.264 . S
O2175 Mg2176 1.990 . S
O2175 C2189 1.253 . S
Mg2176 O2175 1.990 . S
Mg2176 O2179 2.180 . S
Mg2176 O2180 2.117 . S
Mg2176 O2194 2.030 . S
O2177 Mg2178 2.072 . S
O2177 C2189 1.260 . S
Mg2178 O2177 2.072 . S
Mg2178 O2179 2.099 . S
Mg2178 O2181 2.079 . S
Mg2178 O2182 2.072 . S
Mg2178 O2184 2.099 . S
Mg2178 O2195 2.079 . S
O2179 Mg2176 2.180 . S
O2179 Mg2178 2.099 . S
O2179 C2190 1.279 . S
O2180 Mg2176 2.117 . S
O2180 C2190 1.250 . S
O2181 Mg2178 2.079 . S
O2181 C2191 1.264 . S
O2182 Mg2178 2.072 . S
O2182 C2192 1.260 . S
Mg2183 O2184 2.180 . S
Mg2183 O2185 2.030 . S
Mg2183 O2186 1.990 . S
Mg2183 O2187 2.117 . S
O2184 Mg2178 2.099 . S
O2184 Mg2183 2.180 . S
O2184 C2193 1.279 . S
O2185 Mg2183 2.030 . S
O2185 C2191 1.248 . S
O2186 Mg2183 1.990 . S
O2186 C2192 1.253 . S
O2187 Mg2183 2.117 . S
O2187 C2193 1.250 . S
C2188 O2194 1.248 . S
C2188 O2195 1.264 . S
C2189 O2175 1.253 . S
C2189 O2177 1.260 . S
C2190 O2179 1.279 . S
C2190 O2180 1.250 . S
C2191 O2181 1.264 . S
C2191 O2185 1.248 . S
C2192 O2182 1.260 . S
C2192 O2186 1.253 . S
C2193 O2184 1.279 . S
C2193 O2187 1.250 . S
O2194 Mg2176 2.030 . S
O2194 C2188 1.248 . S
O2195 Mg2178 2.079 . S
O2195 C2188 1.264 . S
O2196 Mg2197 2.003 . S
O2196 C2210 1.255 . S
Mg2197 O2196 2.003 . S
Mg2197 O2200 2.180 . S
Mg2197 O2201 2.117 1_455 S
Mg2197 O2215 2.030 . S
O2198 Mg2199 2.072 1_565 S
O2198 C2210 1.260 . S
Mg2199 O2198 2.072 1_545 S
Mg2199 O2200 2.099 1_545 S
Mg2199 O2202 2.079 . S
Mg2199 O2203 2.072 1_455 S
Mg2199 O2205 2.099 . S
Mg2199 O2216 2.079 1_545 S
O2200 Mg2197 2.180 . S
O2200 Mg2199 2.099 1_565 S
O2200 C2211 1.279 1_455 S
O2201 Mg2197 2.117 1_655 S
O2201 C2211 1.250 . S
O2202 Mg2199 2.079 . S
O2202 C2212 1.264 . S
O2203 Mg2199 2.072 1_655 S
O2203 C2213 1.260 . S
Mg2204 O2205 2.208 . S
Mg2204 O2206 2.035 . S
Mg2204 O2207 1.941 1_455 S
Mg2204 O2208 2.130 . S
O2205 Mg2199 2.099 . S
O2205 Mg2204 2.208 . S
O2205 C2214 1.279 . S
O2206 Mg2204 2.035 . S
O2206 C2212 1.248 . S
O2207 Mg2204 1.941 1_655 S
O2207 C2213 1.253 . S
O2208 Mg2204 2.130 . S
O2208 C2214 1.250 . S
C2209 O2215 1.248 . S
C2209 O2216 1.264 . S
C2210 O2196 1.255 . S
C2210 O2198 1.260 . S
C2211 O2200 1.279 1_655 S
C2211 O2201 1.250 . S
C2212 O2202 1.264 . S
C2212 O2206 1.248 . S
C2213 O2203 1.260 . S
C2213 O2207 1.253 . S
C2214 O2205 1.279 . S
C2214 O2208 1.250 . S
O2215 Mg2197 2.030 . S
O2215 C2209 1.248 . S
O2216 Mg2199 2.079 1_565 S
O2216 C2209 1.264 . S
O2217 Mg2218 1.990 . S
O2217 C2231 1.253 . S
Mg2218 O2217 1.990 . S
Mg2218 O2221 2.180 . S
Mg2218 O2222 2.117 . S
Mg2218 O2236 2.030 . S
O2219 Mg2220 2.072 . S
O2219 C2231 1.260 . S
Mg2220 O2219 2.072 . S
Mg2220 O2221 2.099 . S
Mg2220 O2223 2.079 . S
Mg2220 O2224 2.072 . S
Mg2220 O2226 2.099 . S
Mg2220 O2237 2.079 . S
O2221 Mg2218 2.180 . S
O2221 Mg2220 2.099 . S
O2221 C2232 1.279 . S
O2222 Mg2218 2.117 . S
O2222 C2232 1.250 . S
O2223 Mg2220 2.079 . S
O2223 C2233 1.264 . S
O2224 Mg2220 2.072 . S
O2224 C2234 1.260 . S
Mg2225 O2226 2.180 . S
Mg2225 O2227 2.030 . S
Mg2225 O2228 1.990 . S
Mg2225 O2229 2.117 . S
O2226 Mg2220 2.099 . S
O2226 Mg2225 2.180 . S
O2226 C2235 1.279 . S
O2227 Mg2225 2.030 . S
O2227 C2233 1.248 . S
O2228 Mg2225 1.990 . S
O2228 C2234 1.253 . S
O2229 Mg2225 2.117 . S
O2229 C2235 1.250 . S
C2230 O2236 1.248 . S
C2230 O2237 1.264 . S
C2231 O2217 1.253 . S
C2231 O2219 1.260 . S
C2232 O2221 1.279 . S
C2232 O2222 1.250 . S
C2233 O2223 1.264 . S
C2233 O2227 1.248 . S
C2234 O2224 1.260 . S
C2234 O2228 1.253 . S
C2235 O2226 1.279 . S
C2235 O2229 1.250 . S
O2236 Mg2218 2.030 . S
O2236 C2230 1.248 . S
O2237 Mg2220 2.079 . S
O2237 C2230 1.264 . S
O2238 Mg2239 1.990 . S
O2238 C2252 1.253 . S
Mg2239 O2238 1.990 . S
Mg2239 O2242 2.180 1_565 S
Mg2239 O2243 2.117 1_565 S
Mg2239 O2257 2.030 1_565 S
O2240 Mg2241 2.072 1_565 S
O2240 C2252 1.260 . S
Mg2241 O2240 2.072 1_545 S
Mg2241 O2242 2.099 . S
Mg2241 O2244 2.079 1_554 S
Mg2241 O2245 2.072 1_554 S
Mg2241 O2247 2.099 1_554 S
Mg2241 O2258 2.079 . S
O2242 Mg2239 2.180 1_545 S
O2242 Mg2241 2.099 . S
O2242 C2253 1.279 . S
O2243 Mg2239 2.117 1_545 S
O2243 C2253 1.250 . S
O2244 Mg2241 2.079 1_556 S
O2244 C2254 1.264 . S
O2245 Mg2241 2.072 1_556 S
O2245 C2255 1.257 1_545 S
Mg2246 O2247 2.180 . S
Mg2246 O2248 2.030 . S
Mg2246 O2249 1.990 1_545 S
Mg2246 O2250 2.117 1_545 S
O2247 Mg2241 2.099 1_556 S
O2247 Mg2246 2.180 . S
O2247 C2256 1.279 1_545 S
O2248 Mg2246 2.030 . S
O2248 C2254 1.248 . S
O2249 Mg2246 1.990 1_565 S
O2249 C2255 1.255 . S
O2250 Mg2246 2.117 1_565 S
O2250 C2256 1.250 . S
C2251 O2257 1.248 . S
C2251 O2258 1.264 . S
C2252 O2238 1.253 . S
C2252 O2240 1.260 . S
C2253 O2242 1.279 . S
C2253 O2243 1.250 . S
C2254 O2244 1.264 . S
C2254 O2248 1.248 . S
C2255 O2245 1.257 1_565 S
C2255 O2249 1.255 . S
C2256 O2247 1.279 1_565 S
C2256 O2250 1.250 . S
O2257 Mg2239 2.030 1_545 S
O2257 C2251 1.248 . S
O2258 Mg2241 2.079 . S
O2258 C2251 1.264 . S
O2259 Mg2260 1.990 . S
O2259 C2273 1.253 . S
Mg2260 O2259 1.990 . S
Mg2260 O2263 2.180 . S
Mg2260 O2264 2.117 . S
Mg2260 O2278 2.030 . S
O2261 Mg2262 2.072 . S
O2261 C2273 1.260 . S
Mg2262 O2261 2.072 . S
Mg2262 O2263 2.099 . S
Mg2262 O2265 2.079 . S
Mg2262 O2266 2.072 . S
Mg2262 O2268 2.099 . S
Mg2262 O2279 2.079 . S
O2263 Mg2260 2.180 . S
O2263 Mg2262 2.099 . S
O2263 C2274 1.279 . S
O2264 Mg2260 2.117 . S
O2264 C2274 1.250 . S
O2265 Mg2262 2.079 . S
O2265 C2275 1.264 . S
O2266 Mg2262 2.072 . S
O2266 C2276 1.260 . S
Mg2267 O2268 2.180 . S
Mg2267 O2269 2.030 . S
Mg2267 O2270 1.990 . S
Mg2267 O2271 2.117 . S
O2268 Mg2262 2.099 . S
O2268 Mg2267 2.180 . S
O2268 C2277 1.279 . S
O2269 Mg2267 2.030 . S
O2269 C2275 1.248 . S
O2270 Mg2267 1.990 . S
O2270 C2276 1.253 . S
O2271 Mg2267 2.117 . S
O2271 C2277 1.250 . S
C2272 O2278 1.248 . S
C2272 O2279 1.264 . S
C2273 O2259 1.253 . S
C2273 O2261 1.260 . S
C2274 O2263 1.279 . S
C2274 O2264 1.250 . S
C2275 O2265 1.264 . S
C2275 O2269 1.248 . S
C2276 O2266 1.260 . S
C2276 O2270 1.253 . S
C2277 O2268 1.279 . S
C2277 O2271 1.250 . S
O2278 Mg2260 2.030 . S
O2278 C2272 1.248 . S
O2279 Mg2262 2.079 . S
O2279 C2272 1.264 . S
O2280 Mg2281 1.990 . S
O2280 C2294 1.253 . S
Mg2281 O2280 1.990 . S
Mg2281 O2284 2.180 . S
Mg2281 O2285 2.117 . S
Mg2281 O2299 2.030 1_556 S
O2282 Mg2283 2.072 . S
O2282 C2294 1.260 1_554 S
Mg2283 O2282 2.072 . S
Mg2283 O2284 2.099 1_554 S
Mg2283 O2286 2.079 . S
Mg2283 O2287 2.072 1_554 S
Mg2283 O2289 2.099 . S
Mg2283 O2300 2.079 . S
O2284 Mg2281 2.180 . S
O2284 Mg2283 2.099 1_556 S
O2284 C2295 1.279 . S
O2285 Mg2281 2.117 . S
O2285 C2295 1.250 . S
O2286 Mg2283 2.079 . S
O2286 C2296 1.264 . S
O2287 Mg2283 2.072 1_556 S
O2287 C2297 1.260 . S
Mg2288 O2289 2.180 . S
Mg2288 O2290 2.030 . S
Mg2288 O2291 1.990 . S
Mg2288 O2292 2.117 . S
O2289 Mg2283 2.099 . S
O2289 Mg2288 2.180 . S
O2289 C2298 1.279 . S
O2290 Mg2288 2.030 . S
O2290 C2296 1.248 . S
O2291 Mg2288 1.990 . S
O2291 C2297 1.253 1_554 S
O2292 Mg2288 2.117 . S
O2292 C2298 1.250 . S
C2293 O2299 1.248 . S
C2293 O2300 1.264 . S
C2294 O2280 1.253 . S
C2294 O2282 1.260 1_556 S
C2295 O2284 1.279 . S
C2295 O2285 1.250 . S
C2296 O2286 1.264 . S
C2296 O2290 1.248 . S
C2297 O2287 1.260 . S
C2297 O2291 1.253 1_556 S
C2298 O2289 1.279 . S
C2298 O2292 1.250 . S
O2299 Mg2281 2.030 1_554 S
O2299 C2293 1.248 . S
O2300 Mg2283 2.079 . S
O2300 C2293 1.264 . S
O2301 Mg2302 1.990 . S
O2301 C2315 1.253 . S
Mg2302 O2301 1.990 . S
Mg2302 O2305 2.180 . S
Mg2302 O2306 2.117 . S
Mg2302 O2320 2.030 . S
O2303 Mg2304 2.072 . S
O2303 C2315 1.260 . S
Mg2304 O2303 2.072 . S
Mg2304 O2305 2.099 . S
Mg2304 O2307 2.079 . S
Mg2304 O2308 2.072 . S
Mg2304 O2310 2.099 . S
Mg2304 O2321 2.079 . S
O2305 Mg2302 2.180 . S
O2305 Mg2304 2.099 . S
O2305 C2316 1.279 . S
O2306 Mg2302 2.117 . S
O2306 C2316 1.250 . S
O2307 Mg2304 2.079 . S
O2307 C2317 1.264 . S
O2308 Mg2304 2.072 . S
O2308 C2318 1.260 . S
Mg2309 O2310 2.180 . S
Mg2309 O2311 2.030 . S
Mg2309 O2312 1.990 . S
Mg2309 O2313 2.117 . S
O2310 Mg2304 2.099 . S
O2310 Mg2309 2.180 . S
O2310 C2319 1.279 . S
O2311 Mg2309 2.030 . S
O2311 C2317 1.248 . S
O2312 Mg2309 1.990 . S
O2312 C2318 1.253 . S
O2313 Mg2309 2.117 . S
O2313 C2319 1.250 . S
C2314 O2320 1.248 . S
C2314 O2321 1.264 . S
C2315 O2301 1.253 . S
C2315 O2303 1.260 . S
C2316 O2305 1.279 . S
C2316 O2306 1.250 . S
C2317 O2307 1.264 . S
C2317 O2311 1.248 . S
C2318 O2308 1.260 . S
C2318 O2312 1.253 . S
C2319 O2310 1.279 . S
C2319 O2313 1.250 . S
O2320 Mg2302 2.030 . S
O2320 C2314 1.248 . S
O2321 Mg2304 2.079 . S
O2321 C2314 1.264 . S
O2322 Mg2323 1.990 . S
O2322 C2336 1.253 . S
Mg2323 O2322 1.990 . S
Mg2323 O2326 2.180 . S
Mg2323 O2327 2.117 . S
Mg2323 O2341 2.030 1_655 S
O2324 Mg2325 2.072 . S
O2324 C2336 1.260 1_455 S
Mg2325 O2324 2.072 . S
Mg2325 O2326 2.099 1_455 S
Mg2325 O2328 2.079 . S
Mg2325 O2329 2.072 1_455 S
Mg2325 O2331 2.099 . S
Mg2325 O2342 2.079 . S
O2326 Mg2323 2.180 . S
O2326 Mg2325 2.099 1_655 S
O2326 C2337 1.279 . S
O2327 Mg2323 2.117 . S
O2327 C2337 1.250 . S
O2328 Mg2325 2.079 . S
O2328 C2338 1.264 . S
O2329 Mg2325 2.072 1_655 S
O2329 C2339 1.260 . S
Mg2330 O2331 2.180 . S
Mg2330 O2332 2.030 . S
Mg2330 O2333 1.990 . S
Mg2330 O2334 2.117 . S
O2331 Mg2325 2.099 . S
O2331 Mg2330 2.180 . S
O2331 C2340 1.279 . S
O2332 Mg2330 2.030 . S
O2332 C2338 1.248 . S
O2333 Mg2330 1.990 . S
O2333 C2339 1.253 1_455 S
O2334 Mg2330 2.117 . S
O2334 C2340 1.250 . S
C2335 O2341 1.248 . S
C2335 O2342 1.264 . S
C2336 O2322 1.253 . S
C2336 O2324 1.260 1_655 S
C2337 O2326 1.279 . S
C2337 O2327 1.250 . S
C2338 O2328 1.264 . S
C2338 O2332 1.248 . S
C2339 O2329 1.260 . S
C2339 O2333 1.253 1_655 S
C2340 O2331 1.279 . S
C2340 O2334 1.250 . S
O2341 Mg2323 2.030 1_455 S
O2341 C2335 1.248 . S
O2342 Mg2325 2.079 . S
O2342 C2335 1.264 . S
O2343 Mg2344 1.990 . S
O2343 C2357 1.253 . S
Mg2344 O2343 1.990 . S
Mg2344 O2347 2.180 . S
Mg2344 O2348 2.117 . S
Mg2344 O2362 2.030 . S
O2345 Mg2346 2.072 . S
O2345 C2357 1.260 . S
Mg2346 O2345 2.072 . S
Mg2346 O2347 2.099 . S
Mg2346 O2349 2.079 . S
Mg2346 O2350 2.072 . S
Mg2346 O2352 2.099 . S
Mg2346 O2363 2.079 . S
O2347 Mg2344 2.180 . S
O2347 Mg2346 2.099 . S
O2347 C2358 1.279 . S
O2348 Mg2344 2.117 . S
O2348 C2358 1.250 . S
O2349 Mg2346 2.079 . S
O2349 C2359 1.264 . S
O2350 Mg2346 2.072 . S
O2350 C2360 1.260 . S
Mg2351 O2352 2.180 . S
Mg2351 O2353 2.030 . S
Mg2351 O2354 1.990 . S
Mg2351 O2355 2.117 . S
O2352 Mg2346 2.099 . S
O2352 Mg2351 2.180 . S
O2352 C2361 1.279 . S
O2353 Mg2351 2.030 . S
O2353 C2359 1.248 . S
O2354 Mg2351 1.990 . S
O2354 C2360 1.253 . S
O2355 Mg2351 2.117 . S
O2355 C2361 1.250 . S
C2356 O2362 1.248 . S
C2356 O2363 1.264 . S
C2357 O2343 1.253 . S
C2357 O2345 1.260 . S
C2358 O2347 1.279 . S
C2358 O2348 1.250 . S
C2359 O2349 1.264 . S
C2359 O2353 1.248 . S
C2360 O2350 1.260 . S
C2360 O2354 1.253 . S
C2361 O2352 1.279 . S
C2361 O2355 1.250 . S
O2362 Mg2344 2.030 . S
O2362 C2356 1.248 . S
O2363 Mg2346 2.079 . S
O2363 C2356 1.264 . S
O2364 Mg2365 1.990 . S
O2364 C2378 1.253 . S
Mg2365 O2364 1.990 . S
Mg2365 O2368 2.180 . S
Mg2365 O2369 2.117 . S
Mg2365 O2383 2.030 . S
O2366 Mg2367 2.072 . S
O2366 C2378 1.260 . S
Mg2367 O2366 2.072 . S
Mg2367 O2368 2.099 . S
Mg2367 O2370 2.079 . S
Mg2367 O2371 2.072 . S
Mg2367 O2373 2.099 . S
Mg2367 O2384 2.079 . S
O2368 Mg2365 2.180 . S
O2368 Mg2367 2.099 . S
O2368 C2379 1.279 . S
O2369 Mg2365 2.117 . S
O2369 C2379 1.250 . S
O2370 Mg2367 2.079 . S
O2370 C2380 1.264 . S
O2371 Mg2367 2.072 . S
O2371 C2381 1.260 . S
Mg2372 O2373 2.180 . S
Mg2372 O2374 2.030 . S
Mg2372 O2375 1.990 . S
Mg2372 O2376 2.117 . S
O2373 Mg2367 2.099 . S
O2373 Mg2372 2.180 . S
O2373 C2382 1.279 . S
O2374 Mg2372 2.030 . S
O2374 C2380 1.248 . S
O2375 Mg2372 1.990 . S
O2375 C2381 1.253 . S
O2376 Mg2372 2.117 . S
O2376 C2382 1.250 . S
C2377 O2383 1.248 . S
C2377 O2384 1.264 . S
C2378 O2364 1.253 . S
C2378 O2366 1.260 . S
C2379 O2368 1.279 . S
C2379 O2369 1.250 . S
C2380 O2370 1.264 . S
C2380 O2374 1.248 . S
C2381 O2371 1.260 . S
C2381 O2375 1.253 . S
C2382 O2373 1.279 . S
C2382 O2376 1.250 . S
O2383 Mg2365 2.030 . S
O2383 C2377 1.248 . S
O2384 Mg2367 2.079 . S
O2384 C2377 1.264 . S
O2385 Mg2386 1.990 . S
O2385 C2399 1.253 . S
Mg2386 O2385 1.990 . S
Mg2386 O2389 2.180 . S
Mg2386 O2390 2.117 . S
Mg2386 O2404 2.030 . S
O2387 Mg2388 2.072 . S
O2387 C2399 1.260 . S
Mg2388 O2387 2.072 . S
Mg2388 O2389 2.099 . S
Mg2388 O2391 2.079 . S
Mg2388 O2392 2.072 . S
Mg2388 O2394 2.099 . S
Mg2388 O2405 2.079 . S
O2389 Mg2386 2.180 . S
O2389 Mg2388 2.099 . S
O2389 C2400 1.279 . S
O2390 Mg2386 2.117 . S
O2390 C2400 1.250 . S
O2391 Mg2388 2.079 . S
O2391 C2401 1.264 . S
O2392 Mg2388 2.072 . S
O2392 C2402 1.260 . S
Mg2393 O2394 2.180 . S
Mg2393 O2395 2.030 . S
Mg2393 O2396 1.990 . S
Mg2393 O2397 2.117 . S
O2394 Mg2388 2.099 . S
O2394 Mg2393 2.180 . S
O2394 C2403 1.279 . S
O2395 Mg2393 2.030 . S
O2395 C2401 1.248 . S
O2396 Mg2393 1.990 . S
O2396 C2402 1.253 . S
O2397 Mg2393 2.117 . S
O2397 C2403 1.250 . S
C2398 O2404 1.248 . S
C2398 O2405 1.264 . S
C2399 O2385 1.253 . S
C2399 O2387 1.260 . S
C2400 O2389 1.279 . S
C2400 O2390 1.250 . S
C2401 O2391 1.264 . S
C2401 O2395 1.248 . S
C2402 O2392 1.260 . S
C2402 O2396 1.253 . S
C2403 O2394 1.279 . S
C2403 O2397 1.250 . S
O2404 Mg2386 2.030 . S
O2404 C2398 1.248 . S
O2405 Mg2388 2.079 . S
O2405 C2398 1.264 . S
O2406 Mg2407 1.990 . S
O2406 C2420 1.253 . S
Mg2407 O2406 1.990 . S
Mg2407 O2410 2.180 . S
Mg2407 O2411 2.117 . S
Mg2407 O2425 2.030 . S
O2408 Mg2409 2.072 . S
O2408 C2420 1.260 . S
Mg2409 O2408 2.072 . S
Mg2409 O2410 2.099 . S
Mg2409 O2412 2.079 . S
Mg2409 O2413 2.072 . S
Mg2409 O2415 2.099 . S
Mg2409 O2426 2.079 . S
O2410 Mg2407 2.180 . S
O2410 Mg2409 2.099 . S
O2410 C2421 1.279 . S
O2411 Mg2407 2.117 . S
O2411 C2421 1.250 . S
O2412 Mg2409 2.079 . S
O2412 C2422 1.264 . S
O2413 Mg2409 2.072 . S
O2413 C2423 1.260 . S
Mg2414 O2415 2.180 . S
Mg2414 O2416 2.030 . S
Mg2414 O2417 1.990 . S
Mg2414 O2418 2.117 . S
O2415 Mg2409 2.099 . S
O2415 Mg2414 2.180 . S
O2415 C2424 1.279 . S
O2416 Mg2414 2.030 . S
O2416 C2422 1.248 . S
O2417 Mg2414 1.990 . S
O2417 C2423 1.253 . S
O2418 Mg2414 2.117 . S
O2418 C2424 1.250 . S
C2419 O2425 1.248 . S
C2419 O2426 1.264 . S
C2420 O2406 1.253 . S
C2420 O2408 1.260 . S
C2421 O2410 1.279 . S
C2421 O2411 1.250 . S
C2422 O2412 1.264 . S
C2422 O2416 1.248 . S
C2423 O2413 1.260 . S
C2423 O2417 1.253 . S
C2424 O2415 1.279 . S
C2424 O2418 1.250 . S
O2425 Mg2407 2.030 . S
O2425 C2419 1.248 . S
O2426 Mg2409 2.079 . S
O2426 C2419 1.264 . S
O2427 Mg2428 1.990 . S
O2427 C2441 1.253 . S
Mg2428 O2427 1.990 . S
Mg2428 O2431 2.180 1_556 S
Mg2428 O2432 2.117 1_556 S
Mg2428 O2446 2.030 . S
O2429 Mg2430 2.072 1_556 S
O2429 C2441 1.260 . S
Mg2430 O2429 2.072 1_554 S
Mg2430 O2431 2.099 . S
Mg2430 O2433 2.079 1_455 S
Mg2430 O2434 2.081 1_455 S
Mg2430 O2436 2.102 1_455 S
Mg2430 O2447 2.079 . S
O2431 Mg2428 2.180 1_554 S
O2431 Mg2430 2.099 . S
O2431 C2442 1.279 . S
O2432 Mg2428 2.117 1_554 S
O2432 C2442 1.250 . S
O2433 Mg2430 2.079 1_655 S
O2433 C2443 1.264 . S
O2434 Mg2430 2.081 1_655 S
O2434 C2444 1.255 1_554 S
Mg2435 O2436 2.185 . S
Mg2435 O2437 2.030 . S
Mg2435 O2438 1.990 1_554 S
Mg2435 O2439 2.117 1_554 S
O2436 Mg2430 2.102 1_655 S
O2436 Mg2435 2.185 . S
O2436 C2445 1.268 1_554 S
O2437 Mg2435 2.030 . S
O2437 C2443 1.248 . S
O2438 Mg2435 1.990 1_556 S
O2438 C2444 1.253 . S
O2439 Mg2435 2.117 1_556 S
O2439 C2445 1.250 . S
C2440 O2446 1.246 1_554 S
C2440 O2447 1.264 . S
C2441 O2427 1.253 . S
C2441 O2429 1.260 . S
C2442 O2431 1.279 . S
C2442 O2432 1.250 . S
C2443 O2433 1.264 . S
C2443 O2437 1.248 . S
C2444 O2434 1.255 1_556 S
C2444 O2438 1.253 . S
C2445 O2436 1.268 1_556 S
C2445 O2439 1.250 . S
O2446 Mg2428 2.030 . S
O2446 C2440 1.246 1_556 S
O2447 Mg2430 2.079 . S
O2447 C2440 1.264 . S
H2448 C2456 0.950 . S
H2449 C2461 0.950 . S
H2450 C2458 0.950 . S
H2451 C2460 0.950 . S
H2452 C2462 0.950 . S
H2453 C2464 0.950 . S
H2454 C2466 0.950 . S
H2455 C2467 0.950 . S
C2456 H2448 0.950 . S
C2456 C2457 1.386 . S
C2456 C2458 1.391 . S
C2457 C2456 1.386 . S
C2457 C2461 1.393 1_455 S
C2458 H2450 0.950 . S
C2458 C2456 1.391 . S
C2458 C2459 1.400 . S
C2459 C2458 1.400 . S
C2459 C2460 1.398 1_455 S
C2459 C2465 1.492 . S
C2460 H2451 0.950 . S
C2460 C2459 1.398 1_655 S
C2460 C2461 1.391 . S
C2461 H2449 0.950 . S
C2461 C2457 1.393 1_655 S
C2461 C2460 1.391 . S
C2462 H2452 0.950 . S
C2462 C2463 1.413 . S
C2462 C2464 1.391 . S
C2463 C2462 1.413 . S
C2463 C2467 1.364 1_655 S
C2464 H2453 0.950 . S
C2464 C2462 1.391 . S
C2464 C2465 1.373 1_655 S
C2465 C2459 1.492 . S
C2465 C2464 1.373 1_455 S
C2465 C2466 1.426 . S
C2466 H2454 0.950 . S
C2466 C2465 1.426 . S
C2466 C2467 1.391 . S
C2467 H2455 0.950 . S
C2467 C2463 1.364 1_455 S
C2467 C2466 1.391 . S
H2468 C2476 0.950 . S
H2469 C2481 0.950 . S
H2470 C2478 0.950 . S
H2471 C2480 0.950 . S
H2472 C2482 0.950 . S
H2473 C2484 0.950 . S
H2474 C2486 0.950 . S
H2475 C2487 0.950 . S
C2476 H2468 0.950 . S
C2476 C2477 1.386 . S
C2476 C2478 1.391 . S
C2477 C2476 1.386 . S
C2477 C2481 1.393 . S
C2478 H2470 0.950 . S
C2478 C2476 1.391 . S
C2478 C2479 1.400 . S
C2479 C2478 1.400 . S
C2479 C2480 1.398 . S
C2479 C2485 1.491 . S
C2480 H2471 0.950 . S
C2480 C2479 1.398 . S
C2480 C2481 1.391 . S
C2481 H2469 0.950 . S
C2481 C2477 1.393 . S
C2481 C2480 1.391 . S
C2482 H2472 0.950 . S
C2482 C2483 1.386 . S
C2482 C2484 1.391 . S
C2483 C2482 1.386 . S
C2483 C2487 1.393 . S
C2484 H2473 0.950 . S
C2484 C2482 1.391 . S
C2484 C2485 1.400 . S
C2485 C2479 1.491 . S
C2485 C2484 1.400 . S
C2485 C2486 1.398 . S
C2486 H2474 0.950 . S
C2486 C2485 1.398 . S
C2486 C2487 1.391 . S
C2487 H2475 0.950 . S
C2487 C2483 1.393 . S
C2487 C2486 1.391 . S
H2488 C2496 0.950 . S
H2489 C2501 0.950 . S
H2490 C2498 0.950 . S
H2491 C2500 0.950 . S
H2492 C2502 0.950 . S
H2493 C2504 0.950 . S
H2494 C2506 0.950 . S
H2495 C2507 0.950 . S
C2496 H2488 0.950 . S
C2496 C2497 1.386 . S
C2496 C2498 1.391 . S
C2497 C2496 1.386 . S
C2497 C2501 1.393 . S
C2498 H2490 0.950 . S
C2498 C2496 1.391 . S
C2498 C2499 1.400 . S
C2499 C2498 1.400 . S
C2499 C2500 1.398 . S
C2499 C2505 1.491 . S
C2500 H2491 0.950 . S
C2500 C2499 1.398 . S
C2500 C2501 1.391 . S
C2501 H2489 0.950 . S
C2501 C2497 1.393 . S
C2501 C2500 1.391 . S
C2502 H2492 0.950 . S
C2502 C2503 1.386 . S
C2502 C2504 1.391 . S
C2503 C2502 1.386 . S
C2503 C2507 1.393 . S
C2504 H2493 0.950 . S
C2504 C2502 1.391 . S
C2504 C2505 1.400 . S
C2505 C2499 1.491 . S
C2505 C2504 1.400 . S
C2505 C2506 1.398 . S
C2506 H2494 0.950 . S
C2506 C2505 1.398 . S
C2506 C2507 1.391 . S
C2507 H2495 0.950 . S
C2507 C2503 1.393 . S
C2507 C2506 1.391 . S
H2508 C2516 0.950 . S
H2509 C2521 0.950 . S
H2510 C2518 0.950 . S
H2511 C2520 0.950 . S
H2512 C2522 0.950 . S
H2513 C2524 0.950 . S
H2514 C2526 0.950 . S
H2515 C2527 0.950 . S
C2516 H2508 0.950 . S
C2516 C2517 1.386 . S
C2516 C2518 1.391 . S
C2517 C2516 1.386 . S
C2517 C2521 1.393 . S
C2518 H2510 0.950 . S
C2518 C2516 1.391 . S
C2518 C2519 1.400 . S
C2519 C2518 1.400 . S
C2519 C2520 1.398 . S
C2519 C2525 1.491 . S
C2520 H2511 0.950 . S
C2520 C2519 1.398 . S
C2520 C2521 1.391 . S
C2521 H2509 0.950 . S
C2521 C2517 1.393 . S
C2521 C2520 1.391 . S
C2522 H2512 0.950 . S
C2522 C2523 1.386 . S
C2522 C2524 1.391 . S
C2523 C2522 1.386 . S
C2523 C2527 1.393 . S
C2524 H2513 0.950 . S
C2524 C2522 1.391 . S
C2524 C2525 1.400 . S
C2525 C2519 1.491 . S
C2525 C2524 1.400 . S
C2525 C2526 1.398 . S
C2526 H2514 0.950 . S
C2526 C2525 1.398 . S
C2526 C2527 1.391 . S
C2527 H2515 0.950 . S
C2527 C2523 1.393 . S
C2527 C2526 1.391 . S
H2528 C2536 0.950 . S
H2529 C2541 0.950 . S
H2530 C2538 0.950 . S
H2531 C2540 0.950 . S
H2532 C2542 0.950 . S
H2533 C2544 0.950 . S
H2534 C2546 0.950 . S
H2535 C2547 0.950 . S
C2536 H2528 0.950 . S
C2536 C2537 1.386 1_655 S
C2536 C2538 1.391 . S
C2537 C2536 1.386 1_455 S
C2537 C2541 1.393 . S
C2538 H2530 0.950 . S
C2538 C2536 1.391 . S
C2538 C2539 1.400 1_655 S
C2539 C2538 1.400 1_455 S
C2539 C2540 1.398 . S
C2539 C2545 1.491 . S
C2540 H2531 0.950 . S
C2540 C2539 1.398 . S
C2540 C2541 1.391 . S
C2541 H2529 0.950 . S
C2541 C2537 1.393 . S
C2541 C2540 1.391 . S
C2542 H2532 0.950 . S
C2542 C2543 1.386 . S
C2542 C2544 1.391 . S
C2543 C2542 1.386 . S
C2543 C2547 1.393 1_455 S
C2544 H2533 0.950 . S
C2544 C2542 1.391 . S
C2544 C2545 1.400 . S
C2545 C2539 1.491 . S
C2545 C2544 1.400 . S
C2545 C2546 1.398 1_455 S
C2546 H2534 0.950 . S
C2546 C2545 1.398 1_655 S
C2546 C2547 1.391 . S
C2547 H2535 0.950 . S
C2547 C2543 1.393 1_655 S
C2547 C2546 1.391 . S
H2548 C2556 0.950 . S
H2549 C2561 0.950 . S
H2550 C2558 0.950 . S
H2551 C2560 0.950 . S
H2552 C2562 0.950 . S
H2553 C2564 0.950 . S
H2554 C2566 0.950 . S
H2555 C2567 0.950 . S
C2556 H2548 0.950 . S
C2556 C2557 1.386 . S
C2556 C2558 1.391 . S
C2557 C2556 1.386 . S
C2557 C2561 1.393 . S
C2558 H2550 0.950 . S
C2558 C2556 1.391 . S
C2558 C2559 1.400 . S
C2559 C2558 1.400 . S
C2559 C2560 1.398 . S
C2559 C2565 1.491 . S
C2560 H2551 0.950 . S
C2560 C2559 1.398 . S
C2560 C2561 1.391 . S
C2561 H2549 0.950 . S
C2561 C2557 1.393 . S
C2561 C2560 1.391 . S
C2562 H2552 0.950 . S
C2562 C2563 1.386 . S
C2562 C2564 1.391 . S
C2563 C2562 1.386 . S
C2563 C2567 1.393 . S
C2564 H2553 0.950 . S
C2564 C2562 1.391 . S
C2564 C2565 1.400 . S
C2565 C2559 1.491 . S
C2565 C2564 1.400 . S
C2565 C2566 1.398 . S
C2566 H2554 0.950 . S
C2566 C2565 1.398 . S
C2566 C2567 1.391 . S
C2567 H2555 0.950 . S
C2567 C2563 1.393 . S
C2567 C2566 1.391 . S
H2568 C2576 0.950 . S
H2569 C2581 0.950 . S
H2570 C2578 0.950 . S
H2571 C2580 0.950 . S
H2572 C2582 0.950 . S
H2573 C2584 0.950 . S
H2574 C2586 0.950 . S
H2575 C2587 0.950 1_554 S
C2576 H2568 0.950 . S
C2576 C2577 1.386 . S
C2576 C2578 1.391 . S
C2577 C2576 1.386 . S
C2577 C2581 1.393 . S
C2578 H2570 0.950 . S
C2578 C2576 1.391 . S
C2578 C2579 1.400 . S
C2579 C2578 1.400 . S
C2579 C2580 1.398 . S
C2579 C2585 1.491 . S
C2580 H2571 0.950 . S
C2580 C2579 1.398 . S
C2580 C2581 1.391 . S
C2581 H2569 0.950 . S
C2581 C2577 1.393 . S
C2581 C2580 1.391 . S
C2582 H2572 0.950 . S
C2582 C2583 1.386 . S
C2582 C2584 1.391 . S
C2583 C2582 1.386 . S
C2583 C2587 1.393 . S
C2584 H2573 0.950 . S
C2584 C2582 1.391 . S
C2584 C2585 1.400 . S
C2585 C2579 1.491 . S
C2585 C2584 1.400 . S
C2585 C2586 1.398 . S
C2586 H2574 0.950 . S
C2586 C2585 1.398 . S
C2586 C2587 1.391 . S
C2587 H2575 0.950 1_556 S
C2587 C2583 1.393 . S
C2587 C2586 1.391 . S
H2588 C2596 0.950 . S
H2589 C2601 0.950 . S
H2590 C2598 0.950 . S
H2591 C2600 0.950 . S
H2592 C2602 0.950 . S
H2593 C2604 0.950 . S
H2594 C2606 0.950 . S
H2595 C2607 0.950 . S
C2596 H2588 0.950 . S
C2596 C2597 1.386 . S
C2596 C2598 1.391 . S
C2597 C2596 1.386 . S
C2597 C2601 1.393 . S
C2598 H2590 0.950 . S
C2598 C2596 1.391 . S
C2598 C2599 1.400 . S
C2599 C2598 1.400 . S
C2599 C2600 1.398 . S
C2599 C2605 1.491 . S
C2600 H2591 0.950 . S
C2600 C2599 1.398 . S
C2600 C2601 1.391 . S
C2601 H2589 0.950 . S
C2601 C2597 1.393 . S
C2601 C2600 1.391 . S
C2602 H2592 0.950 . S
C2602 C2603 1.386 . S
C2602 C2604 1.391 . S
C2603 C2602 1.386 . S
C2603 C2607 1.393 . S
C2604 H2593 0.950 . S
C2604 C2602 1.391 . S
C2604 C2605 1.400 . S
C2605 C2599 1.491 . S
C2605 C2604 1.400 . S
C2605 C2606 1.398 . S
C2606 H2594 0.950 . S
C2606 C2605 1.398 . S
C2606 C2607 1.391 . S
C2607 H2595 0.950 . S
C2607 C2603 1.393 . S
C2607 C2606 1.391 . S
H2608 C2616 0.950 . S
H2609 C2621 0.950 . S
H2610 C2618 0.950 . S
H2611 C2620 0.950 . S
H2612 C2622 0.950 . S
H2613 C2624 0.950 . S
H2614 C2626 0.950 . S
H2615 C2627 0.950 . S
C2616 H2608 0.950 . S
C2616 C2617 1.386 1_565 S
C2616 C2618 1.391 . S
C2617 C2616 1.386 1_545 S
C2617 C2621 1.393 . S
C2618 H2610 0.950 . S
C2618 C2616 1.391 . S
C2618 C2619 1.400 . S
C2619 C2618 1.400 . S
C2619 C2620 1.399 1_565 S
C2619 C2625 1.491 . S
C2620 H2611 0.950 . S
C2620 C2619 1.399 1_545 S
C2620 C2621 1.391 . S
C2621 H2609 0.950 . S
C2621 C2617 1.393 . S
C2621 C2620 1.391 . S
C2622 H2612 0.950 . S
C2622 C2623 1.386 1_545 S
C2622 C2624 1.391 . S
C2623 C2622 1.386 1_565 S
C2623 C2627 1.393 . S
C2624 H2613 0.950 . S
C2624 C2622 1.391 . S
C2624 C2625 1.400 1_545 S
C2625 C2619 1.491 . S
C2625 C2624 1.400 1_565 S
C2625 C2626 1.398 . S
C2626 H2614 0.950 . S
C2626 C2625 1.398 . S
C2626 C2627 1.391 . S
C2627 H2615 0.950 . S
C2627 C2623 1.393 . S
C2627 C2626 1.391 . S
H2628 C2636 0.950 . S
H2629 C2641 0.950 . S
H2630 C2638 0.950 . S
H2631 C2640 0.950 . S
H2632 C2642 0.950 . S
H2633 C2644 0.950 . S
H2634 C2646 0.950 . S
H2635 C2647 0.950 . S
C2636 H2628 0.950 . S
C2636 C2637 1.386 . S
C2636 C2638 1.391 . S
C2637 C2636 1.386 . S
C2637 C2641 1.393 . S
C2638 H2630 0.950 . S
C2638 C2636 1.391 . S
C2638 C2639 1.400 . S
C2639 C2638 1.400 . S
C2639 C2640 1.398 . S
C2639 C2645 1.491 . S
C2640 H2631 0.950 . S
C2640 C2639 1.398 . S
C2640 C2641 1.391 . S
C2641 H2629 0.950 . S
C2641 C2637 1.393 . S
C2641 C2640 1.391 . S
C2642 H2632 0.950 . S
C2642 C2643 1.386 . S
C2642 C2644 1.391 . S
C2643 C2642 1.386 . S
C2643 C2647 1.393 . S
C2644 H2633 0.950 . S
C2644 C2642 1.391 . S
C2644 C2645 1.400 . S
C2645 C2639 1.491 . S
C2645 C2644 1.400 . S
C2645 C2646 1.398 . S
C2646 H2634 0.950 . S
C2646 C2645 1.398 . S
C2646 C2647 1.391 . S
C2647 H2635 0.950 . S
C2647 C2643 1.393 . S
C2647 C2646 1.391 . S
H2648 C2656 0.950 . S
H2649 C2661 0.950 . S
H2650 C2658 0.950 . S
H2651 C2660 0.950 . S
H2652 C2662 0.950 . S
H2653 C2664 0.950 . S
H2654 C2666 0.950 1_565 S
H2655 C2667 0.950 1_565 S
C2656 H2648 0.950 . S
C2656 C2657 1.386 1_565 S
C2656 C2658 1.391 . S
C2657 C2656 1.386 1_545 S
C2657 C2661 1.393 . S
C2658 H2650 0.950 . S
C2658 C2656 1.391 . S
C2658 C2659 1.400 1_565 S
C2659 C2658 1.400 1_545 S
C2659 C2660 1.398 . S
C2659 C2665 1.491 . S
C2660 H2651 0.950 . S
C2660 C2659 1.398 . S
C2660 C2661 1.391 . S
C2661 H2649 0.950 . S
C2661 C2657 1.393 . S
C2661 C2660 1.391 . S
C2662 H2652 0.950 . S
C2662 C2663 1.386 . S
C2662 C2664 1.391 . S
C2663 C2662 1.386 . S
C2663 C2667 1.393 . S
C2664 H2653 0.950 . S
C2664 C2662 1.391 . S
C2664 C2665 1.400 . S
C2665 C2659 1.491 . S
C2665 C2664 1.400 . S
C2665 C2666 1.398 . S
C2666 H2654 0.950 1_545 S
C2666 C2665 1.398 . S
C2666 C2667 1.391 . S
C2667 H2655 0.950 1_545 S
C2667 C2663 1.393 . S
C2667 C2666 1.391 . S
H2668 C2676 0.950 . S
H2669 C2681 0.950 . S
H2670 C2678 0.950 . S
H2671 C2680 0.950 . S
H2672 C2682 0.950 . S
H2673 C2684 0.950 . S
H2674 C2686 0.950 . S
H2675 C2687 0.950 . S
C2676 H2668 0.950 . S
C2676 C2677 1.386 . S
C2676 C2678 1.391 . S
C2677 C2676 1.386 . S
C2677 C2681 1.393 . S
C2678 H2670 0.950 . S
C2678 C2676 1.391 . S
C2678 C2679 1.400 . S
C2679 C2678 1.400 . S
C2679 C2680 1.398 . S
C2679 C2685 1.491 . S
C2680 H2671 0.950 . S
C2680 C2679 1.398 . S
C2680 C2681 1.391 . S
C2681 H2669 0.950 . S
C2681 C2677 1.393 . S
C2681 C2680 1.391 . S
C2682 H2672 0.950 . S
C2682 C2683 1.386 . S
C2682 C2684 1.391 . S
C2683 C2682 1.386 . S
C2683 C2687 1.393 . S
C2684 H2673 0.950 . S
C2684 C2682 1.391 . S
C2684 C2685 1.400 . S
C2685 C2679 1.491 . S
C2685 C2684 1.400 . S
C2685 C2686 1.398 . S
C2686 H2674 0.950 . S
C2686 C2685 1.398 . S
C2686 C2687 1.391 . S
C2687 H2675 0.950 . S
C2687 C2683 1.393 . S
C2687 C2686 1.391 . S
H2688 C2696 0.950 . S
H2689 C2701 0.950 . S
H2690 C2698 0.950 . S
H2691 C2700 0.950 . S
H2692 C2702 0.950 . S
H2693 C2704 0.950 . S
H2694 C2706 0.950 . S
H2695 C2707 0.949 . S
C2696 H2688 0.950 . S
C2696 C2697 1.386 1_565 S
C2696 C2698 1.391 . S
C2697 C2696 1.386 1_545 S
C2697 C2701 1.393 . S
C2698 H2690 0.950 . S
C2698 C2696 1.391 . S
C2698 C2699 1.400 1_565 S
C2699 C2698 1.400 1_545 S
C2699 C2700 1.398 . S
C2699 C2705 1.491 . S
C2700 H2691 0.950 . S
C2700 C2699 1.398 . S
C2700 C2701 1.391 . S
C2701 H2689 0.950 . S
C2701 C2697 1.393 . S
C2701 C2700 1.391 . S
C2702 H2692 0.950 . S
C2702 C2703 1.386 . S
C2702 C2704 1.391 . S
C2703 C2702 1.386 . S
C2703 C2707 1.394 1_545 S
C2704 H2693 0.950 . S
C2704 C2702 1.391 . S
C2704 C2705 1.400 . S
C2705 C2699 1.491 . S
C2705 C2704 1.400 . S
C2705 C2706 1.398 1_545 S
C2706 H2694 0.950 . S
C2706 C2705 1.398 1_565 S
C2706 C2707 1.390 . S
C2707 H2695 0.949 . S
C2707 C2703 1.394 1_565 S
C2707 C2706 1.390 . S
H2708 C2716 0.950 . S
H2709 C2721 0.950 . S
H2710 C2718 0.950 . S
H2711 C2720 0.950 . S
H2712 C2722 0.950 . S
H2713 C2724 0.950 . S
H2714 C2726 0.950 . S
H2715 C2727 0.950 . S
C2716 H2708 0.950 . S
C2716 C2717 1.386 . S
C2716 C2718 1.391 . S
C2717 C2716 1.386 . S
C2717 C2721 1.393 . S
C2718 H2710 0.950 . S
C2718 C2716 1.391 . S
C2718 C2719 1.400 . S
C2719 C2718 1.400 . S
C2719 C2720 1.398 . S
C2719 C2725 1.491 . S
C2720 H2711 0.950 . S
C2720 C2719 1.398 . S
C2720 C2721 1.391 . S
C2721 H2709 0.950 . S
C2721 C2717 1.393 . S
C2721 C2720 1.391 . S
C2722 H2712 0.950 . S
C2722 C2723 1.386 . S
C2722 C2724 1.391 . S
C2723 C2722 1.386 . S
C2723 C2727 1.393 . S
C2724 H2713 0.950 . S
C2724 C2722 1.391 . S
C2724 C2725 1.400 . S
C2725 C2719 1.491 . S
C2725 C2724 1.400 . S
C2725 C2726 1.398 . S
C2726 H2714 0.950 . S
C2726 C2725 1.398 . S
C2726 C2727 1.391 . S
C2727 H2715 0.950 . S
C2727 C2723 1.393 . S
C2727 C2726 1.391 . S
H2728 C2736 0.950 . S
H2729 C2741 0.950 . S
H2730 C2738 0.950 . S
H2731 C2740 0.950 . S
H2732 C2742 0.950 . S
H2733 C2744 0.950 . S
H2734 C2746 0.950 . S
H2735 C2747 0.950 . S
C2736 H2728 0.950 . S
C2736 C2737 1.386 . S
C2736 C2738 1.391 . S
C2737 C2736 1.386 . S
C2737 C2741 1.393 1_545 S
C2738 H2730 0.950 . S
C2738 C2736 1.391 . S
C2738 C2739 1.400 . S
C2739 C2738 1.400 . S
C2739 C2740 1.398 1_545 S
C2739 C2745 1.491 . S
C2740 H2731 0.950 . S
C2740 C2739 1.398 1_565 S
C2740 C2741 1.391 . S
C2741 H2729 0.950 . S
C2741 C2737 1.393 1_565 S
C2741 C2740 1.391 . S
C2742 H2732 0.950 . S
C2742 C2743 1.396 . S
C2742 C2744 1.391 . S
C2743 C2742 1.396 . S
C2743 C2747 1.381 1_565 S
C2744 H2733 0.950 . S
C2744 C2742 1.391 . S
C2744 C2745 1.400 1_565 S
C2745 C2739 1.491 . S
C2745 C2744 1.400 1_545 S
C2745 C2746 1.398 . S
C2746 H2734 0.950 . S
C2746 C2745 1.398 . S
C2746 C2747 1.391 . S
C2747 H2735 0.950 . S
C2747 C2743 1.381 1_545 S
C2747 C2746 1.391 . S
H2748 C2756 0.950 . S
H2749 C2761 0.950 . S
H2750 C2758 0.950 . S
H2751 C2760 0.950 . S
H2752 C2762 0.950 . S
H2753 C2764 0.950 . S
H2754 C2766 0.950 . S
H2755 C2767 0.950 . S
C2756 H2748 0.950 . S
C2756 C2757 1.386 . S
C2756 C2758 1.391 . S
C2757 C2756 1.386 . S
C2757 C2761 1.393 . S
C2758 H2750 0.950 . S
C2758 C2756 1.391 . S
C2758 C2759 1.400 . S
C2759 C2758 1.400 . S
C2759 C2760 1.398 . S
C2759 C2765 1.491 . S
C2760 H2751 0.950 . S
C2760 C2759 1.398 . S
C2760 C2761 1.391 . S
C2761 H2749 0.950 . S
C2761 C2757 1.393 . S
C2761 C2760 1.391 . S
C2762 H2752 0.950 . S
C2762 C2763 1.386 . S
C2762 C2764 1.391 . S
C2763 C2762 1.386 . S
C2763 C2767 1.393 . S
C2764 H2753 0.950 . S
C2764 C2762 1.391 . S
C2764 C2765 1.400 . S
C2765 C2759 1.491 . S
C2765 C2764 1.400 . S
C2765 C2766 1.398 . S
C2766 H2754 0.950 . S
C2766 C2765 1.398 . S
C2766 C2767 1.391 . S
C2767 H2755 0.950 . S
C2767 C2763 1.393 . S
C2767 C2766 1.391 . S
H2768 C2776 0.950 . S
H2769 C2781 0.950 . S
H2770 C2778 0.950 . S
H2771 C2780 0.950 . S
H2772 C2782 0.950 . S
H2773 C2784 0.950 . S
H2774 C2786 0.950 . S
H2775 C2787 0.950 . S
C2776 H2768 0.950 . S
C2776 C2777 1.386 1_556 S
C2776 C2778 1.391 . S
C2777 C2776 1.386 1_554 S
C2777 C2781 1.393 . S
C2778 H2770 0.950 . S
C2778 C2776 1.391 . S
C2778 C2779 1.400 1_556 S
C2779 C2778 1.400 1_554 S
C2779 C2780 1.398 . S
C2779 C2785 1.491 . S
C2780 H2771 0.950 . S
C2780 C2779 1.398 . S
C2780 C2781 1.391 . S
C2781 H2769 0.950 . S
C2781 C2777 1.393 . S
C2781 C2780 1.391 . S
C2782 H2772 0.950 . S
C2782 C2783 1.360 1_554 S
C2782 C2784 1.391 . S
C2783 C2782 1.360 1_556 S
C2783 C2787 1.418 . S
C2784 H2773 0.950 . S
C2784 C2782 1.391 . S
C2784 C2785 1.400 . S
C2785 C2779 1.491 . S
C2785 C2784 1.400 . S
C2785 C2786 1.398 1_554 S
C2786 H2774 0.950 . S
C2786 C2785 1.398 1_556 S
C2786 C2787 1.391 . S
C2787 H2775 0.950 . S
C2787 C2783 1.418 . S
C2787 C2786 1.391 . S
H2788 C2796 0.950 . S
H2789 C2801 0.950 . S
H2790 C2798 0.950 . S
H2791 C2800 0.950 . S
H2792 C2802 0.950 . S
H2793 C2804 0.950 . S
H2794 C2806 0.950 . S
H2795 C2807 0.950 . S
C2796 H2788 0.950 . S
C2796 C2797 1.386 1_556 S
C2796 C2798 1.391 . S
C2797 C2796 1.386 1_554 S
C2797 C2801 1.393 . S
C2798 H2790 0.950 . S
C2798 C2796 1.391 . S
C2798 C2799 1.400 1_556 S
C2799 C2798 1.400 1_554 S
C2799 C2800 1.398 . S
C2799 C2805 1.491 . S
C2800 H2791 0.950 . S
C2800 C2799 1.398 . S
C2800 C2801 1.391 . S
C2801 H2789 0.950 . S
C2801 C2797 1.393 . S
C2801 C2800 1.391 . S
C2802 H2792 0.950 . S
C2802 C2803 1.386 . S
C2802 C2804 1.391 . S
C2803 C2802 1.386 . S
C2803 C2807 1.393 1_554 S
C2804 H2793 0.950 . S
C2804 C2802 1.391 . S
C2804 C2805 1.400 . S
C2805 C2799 1.491 . S
C2805 C2804 1.400 . S
C2805 C2806 1.398 1_554 S
C2806 H2794 0.950 . S
C2806 C2805 1.398 1_556 S
C2806 C2807 1.391 . S
C2807 H2795 0.950 . S
C2807 C2803 1.393 1_556 S
C2807 C2806 1.391 . S
H2808 C2816 0.950 . S
H2809 C2821 0.950 . S
H2810 C2818 0.950 . S
H2811 C2820 0.950 . S
H2812 C2822 0.950 . S
H2813 C2824 0.950 . S
H2814 C2826 0.950 . S
H2815 C2827 0.950 . S
C2816 H2808 0.950 . S
C2816 C2817 1.386 . S
C2816 C2818 1.391 . S
C2817 C2816 1.386 . S
C2817 C2821 1.393 . S
C2818 H2810 0.950 . S
C2818 C2816 1.391 . S
C2818 C2819 1.400 . S
C2819 C2818 1.400 . S
C2819 C2820 1.398 . S
C2819 C2825 1.491 . S
C2820 H2811 0.950 . S
C2820 C2819 1.398 . S
C2820 C2821 1.391 . S
C2821 H2809 0.950 . S
C2821 C2817 1.393 . S
C2821 C2820 1.391 . S
C2822 H2812 0.950 . S
C2822 C2823 1.386 . S
C2822 C2824 1.391 . S
C2823 C2822 1.386 . S
C2823 C2827 1.393 . S
C2824 H2813 0.950 . S
C2824 C2822 1.391 . S
C2824 C2825 1.400 . S
C2825 C2819 1.491 . S
C2825 C2824 1.400 . S
C2825 C2826 1.398 . S
C2826 H2814 0.950 . S
C2826 C2825 1.398 . S
C2826 C2827 1.391 . S
C2827 H2815 0.950 . S
C2827 C2823 1.393 . S
C2827 C2826 1.391 . S
H2828 C2836 0.950 . S
H2829 C2841 0.950 . S
H2830 C2838 0.950 . S
H2831 C2840 0.950 . S
H2832 C2842 0.950 . S
H2833 C2844 0.950 . S
H2834 C2846 0.950 . S
H2835 C2847 0.950 . S
C2836 H2828 0.950 . S
C2836 C2837 1.386 . S
C2836 C2838 1.391 . S
C2837 C2836 1.386 . S
C2837 C2841 1.393 . S
C2838 H2830 0.950 . S
C2838 C2836 1.391 . S
C2838 C2839 1.400 . S
C2839 C2838 1.400 . S
C2839 C2840 1.398 . S
C2839 C2845 1.491 . S
C2840 H2831 0.950 . S
C2840 C2839 1.398 . S
C2840 C2841 1.391 . S
C2841 H2829 0.950 . S
C2841 C2837 1.393 . S
C2841 C2840 1.391 . S
C2842 H2832 0.950 . S
C2842 C2843 1.386 . S
C2842 C2844 1.391 . S
C2843 C2842 1.386 . S
C2843 C2847 1.393 . S
C2844 H2833 0.950 . S
C2844 C2842 1.391 . S
C2844 C2845 1.400 . S
C2845 C2839 1.491 . S
C2845 C2844 1.400 . S
C2845 C2846 1.398 . S
C2846 H2834 0.950 . S
C2846 C2845 1.398 . S
C2846 C2847 1.391 . S
C2847 H2835 0.950 . S
C2847 C2843 1.393 . S
C2847 C2846 1.391 . S
H2848 C2856 0.950 . S
H2849 C2861 0.950 . S
H2850 C2858 0.950 . S
H2851 C2860 0.950 . S
H2852 C2862 0.950 . S
H2853 C2864 0.950 . S
H2854 C2866 0.950 . S
H2855 C2867 0.950 . S
C2856 H2848 0.950 . S
C2856 C2857 1.386 . S
C2856 C2858 1.391 . S
C2857 C2856 1.386 . S
C2857 C2861 1.393 . S
C2858 H2850 0.950 . S
C2858 C2856 1.391 . S
C2858 C2859 1.400 . S
C2859 C2858 1.400 . S
C2859 C2860 1.398 . S
C2859 C2865 1.491 . S
C2860 H2851 0.950 . S
C2860 C2859 1.398 . S
C2860 C2861 1.391 . S
C2861 H2849 0.950 . S
C2861 C2857 1.393 . S
C2861 C2860 1.391 . S
C2862 H2852 0.950 . S
C2862 C2863 1.386 . S
C2862 C2864 1.391 . S
C2863 C2862 1.386 . S
C2863 C2867 1.393 . S
C2864 H2853 0.950 . S
C2864 C2862 1.391 . S
C2864 C2865 1.400 . S
C2865 C2859 1.491 . S
C2865 C2864 1.400 . S
C2865 C2866 1.398 . S
C2866 H2854 0.950 . S
C2866 C2865 1.398 . S
C2866 C2867 1.391 . S
C2867 H2855 0.950 . S
C2867 C2863 1.393 . S
C2867 C2866 1.391 . S
H2868 C2876 0.950 . S
H2869 C2881 0.950 . S
H2870 C2878 0.950 . S
H2871 C2880 0.950 . S
H2872 C2882 0.950 . S
H2873 C2884 0.950 . S
H2874 C2886 0.950 . S
H2875 C2887 0.950 . S
C2876 H2868 0.950 . S
C2876 C2877 1.386 . S
C2876 C2878 1.391 . S
C2877 C2876 1.386 . S
C2877 C2881 1.393 . S
C2878 H2870 0.950 . S
C2878 C2876 1.391 . S
C2878 C2879 1.400 . S
C2879 C2878 1.400 . S
C2879 C2880 1.398 . S
C2879 C2885 1.491 . S
C2880 H2871 0.950 . S
C2880 C2879 1.398 . S
C2880 C2881 1.391 . S
C2881 H2869 0.950 . S
C2881 C2877 1.393 . S
C2881 C2880 1.391 . S
C2882 H2872 0.950 . S
C2882 C2883 1.386 . S
C2882 C2884 1.391 . S
C2883 C2882 1.386 . S
C2883 C2887 1.393 . S
C2884 H2873 0.950 . S
C2884 C2882 1.391 . S
C2884 C2885 1.400 . S
C2885 C2879 1.491 . S
C2885 C2884 1.400 . S
C2885 C2886 1.398 . S
C2886 H2874 0.950 . S
C2886 C2885 1.398 . S
C2886 C2887 1.391 . S
C2887 H2875 0.950 . S
C2887 C2883 1.393 . S
C2887 C2886 1.391 . S
H2888 C2896 0.950 . S
H2889 C2901 0.950 . S
H2890 C2898 0.950 . S
H2891 C2900 0.950 . S
H2892 C2902 0.950 . S
H2893 C2904 0.950 . S
H2894 C2906 0.950 . S
H2895 C2907 0.950 . S
C2896 H2888 0.950 . S
C2896 C2897 1.386 . S
C2896 C2898 1.391 . S
C2897 C2896 1.386 . S
C2897 C2901 1.393 . S
C2898 H2890 0.950 . S
C2898 C2896 1.391 . S
C2898 C2899 1.400 . S
C2899 C2898 1.400 . S
C2899 C2900 1.398 . S
C2899 C2905 1.491 . S
C2900 H2891 0.950 . S
C2900 C2899 1.398 . S
C2900 C2901 1.391 . S
C2901 H2889 0.950 . S
C2901 C2897 1.393 . S
C2901 C2900 1.391 . S
C2902 H2892 0.950 . S
C2902 C2903 1.386 . S
C2902 C2904 1.391 . S
C2903 C2902 1.386 . S
C2903 C2907 1.393 . S
C2904 H2893 0.950 . S
C2904 C2902 1.391 . S
C2904 C2905 1.400 . S
C2905 C2899 1.491 . S
C2905 C2904 1.400 . S
C2905 C2906 1.398 . S
C2906 H2894 0.950 . S
C2906 C2905 1.398 . S
C2906 C2907 1.391 . S
C2907 H2895 0.950 . S
C2907 C2903 1.393 . S
C2907 C2906 1.391 . S
H2908 C2916 0.950 . S
H2909 C2921 0.950 . S
H2910 C2918 0.950 . S
H2911 C2920 0.950 . S
H2912 C2922 0.950 . S
H2913 C2924 0.950 . S
H2914 C2926 0.950 . S
H2915 C2927 0.950 . S
C2916 H2908 0.950 . S
C2916 C2917 1.386 . S
C2916 C2918 1.391 . S
C2917 C2916 1.386 . S
C2917 C2921 1.393 . S
C2918 H2910 0.950 . S
C2918 C2916 1.391 . S
C2918 C2919 1.400 . S
C2919 C2918 1.400 . S
C2919 C2920 1.398 . S
C2919 C2925 1.491 . S
C2920 H2911 0.950 . S
C2920 C2919 1.398 . S
C2920 C2921 1.391 . S
C2921 H2909 0.950 . S
C2921 C2917 1.393 . S
C2921 C2920 1.391 . S
C2922 H2912 0.950 . S
C2922 C2923 1.386 . S
C2922 C2924 1.391 . S
C2923 C2922 1.386 . S
C2923 C2927 1.393 . S
C2924 H2913 0.950 . S
C2924 C2922 1.391 . S
C2924 C2925 1.400 . S
C2925 C2919 1.491 . S
C2925 C2924 1.400 . S
C2925 C2926 1.398 . S
C2926 H2914 0.950 . S
C2926 C2925 1.398 . S
C2926 C2927 1.391 . S
C2927 H2915 0.950 . S
C2927 C2923 1.393 . S
C2927 C2926 1.391 . S
H2928 C2936 0.950 . S
H2929 C2941 0.950 . S
H2930 C2938 0.950 . S
H2931 C2940 0.950 . S
H2932 C2942 0.950 . S
H2933 C2944 0.950 . S
H2934 C2946 0.950 . S
H2935 C2947 0.950 1_554 S
C2936 H2928 0.950 . S
C2936 C2937 1.386 . S
C2936 C2938 1.391 . S
C2937 C2936 1.386 . S
C2937 C2941 1.393 . S
C2938 H2930 0.950 . S
C2938 C2936 1.391 . S
C2938 C2939 1.400 . S
C2939 C2938 1.400 . S
C2939 C2940 1.398 . S
C2939 C2945 1.491 . S
C2940 H2931 0.950 . S
C2940 C2939 1.398 . S
C2940 C2941 1.391 . S
C2941 H2929 0.950 . S
C2941 C2937 1.393 . S
C2941 C2940 1.391 . S
C2942 H2932 0.950 . S
C2942 C2943 1.386 . S
C2942 C2944 1.391 . S
C2943 C2942 1.386 . S
C2943 C2947 1.393 . S
C2944 H2933 0.950 . S
C2944 C2942 1.391 . S
C2944 C2945 1.400 . S
C2945 C2939 1.491 . S
C2945 C2944 1.400 . S
C2945 C2946 1.398 . S
C2946 H2934 0.950 . S
C2946 C2945 1.398 . S
C2946 C2947 1.391 . S
C2947 H2935 0.950 1_556 S
C2947 C2943 1.393 . S
C2947 C2946 1.391 . S
H2948 C2956 0.950 . S
H2949 C2961 0.950 . S
H2950 C2958 0.950 . S
H2951 C2960 0.950 . S
H2952 C2962 0.950 . S
H2953 C2964 0.950 . S
H2954 C2966 0.950 . S
H2955 C2967 0.950 . S
C2956 H2948 0.950 . S
C2956 C2957 1.386 . S
C2956 C2958 1.391 . S
C2957 C2956 1.386 . S
C2957 C2961 1.393 . S
C2958 H2950 0.950 . S
C2958 C2956 1.391 . S
C2958 C2959 1.400 . S
C2959 C2958 1.400 . S
C2959 C2960 1.398 . S
C2959 C2965 1.491 . S
C2960 H2951 0.950 . S
C2960 C2959 1.398 . S
C2960 C2961 1.391 . S
C2961 H2949 0.950 . S
C2961 C2957 1.393 . S
C2961 C2960 1.391 . S
C2962 H2952 0.950 . S
C2962 C2963 1.386 . S
C2962 C2964 1.391 . S
C2963 C2962 1.386 . S
C2963 C2967 1.393 . S
C2964 H2953 0.950 . S
C2964 C2962 1.391 . S
C2964 C2965 1.400 . S
C2965 C2959 1.491 . S
C2965 C2964 1.400 . S
C2965 C2966 1.398 . S
C2966 H2954 0.950 . S
C2966 C2965 1.398 . S
C2966 C2967 1.391 . S
C2967 H2955 0.950 . S
C2967 C2963 1.393 . S
C2967 C2966 1.391 . S
H2968 C2976 0.950 . S
H2969 C2981 0.950 . S
H2970 C2978 0.950 . S
H2971 C2980 0.950 . S
H2972 C2982 0.950 . S
H2973 C2984 0.950 . S
H2974 C2986 0.950 . S
H2975 C2987 0.950 . S
C2976 H2968 0.950 . S
C2976 C2977 1.386 . S
C2976 C2978 1.391 . S
C2977 C2976 1.386 . S
C2977 C2981 1.393 . S
C2978 H2970 0.950 . S
C2978 C2976 1.391 . S
C2978 C2979 1.400 . S
C2979 C2978 1.400 . S
C2979 C2980 1.398 . S
C2979 C2985 1.491 . S
C2980 H2971 0.950 . S
C2980 C2979 1.398 . S
C2980 C2981 1.391 . S
C2981 H2969 0.950 . S
C2981 C2977 1.393 . S
C2981 C2980 1.391 . S
C2982 H2972 0.950 . S
C2982 C2983 1.386 . S
C2982 C2984 1.391 . S
C2983 C2982 1.386 . S
C2983 C2987 1.393 . S
C2984 H2973 0.950 . S
C2984 C2982 1.391 . S
C2984 C2985 1.400 . S
C2985 C2979 1.491 . S
C2985 C2984 1.400 . S
C2985 C2986 1.398 . S
C2986 H2974 0.950 . S
C2986 C2985 1.398 . S
C2986 C2987 1.391 . S
C2987 H2975 0.950 . S
C2987 C2983 1.393 . S
C2987 C2986 1.391 . S
H2988 C2996 0.950 . S
H2989 C3001 0.950 . S
H2990 C2998 0.950 . S
H2991 C3000 0.950 . S
H2992 C3002 0.950 . S
H2993 C3004 0.950 . S
H2994 C3006 0.950 . S
H2995 C3007 0.950 . S
C2996 H2988 0.950 . S
C2996 C2997 1.386 . S
C2996 C2998 1.391 . S
C2997 C2996 1.386 . S
C2997 C3001 1.393 . S
C2998 H2990 0.950 . S
C2998 C2996 1.391 . S
C2998 C2999 1.400 . S
C2999 C2998 1.400 . S
C2999 C3000 1.398 . S
C2999 C3005 1.491 . S
C3000 H2991 0.950 . S
C3000 C2999 1.398 . S
C3000 C3001 1.391 . S
C3001 H2989 0.950 . S
C3001 C2997 1.393 . S
C3001 C3000 1.391 . S
C3002 H2992 0.950 . S
C3002 C3003 1.386 . S
C3002 C3004 1.391 . S
C3003 C3002 1.386 . S
C3003 C3007 1.393 . S
C3004 H2993 0.950 . S
C3004 C3002 1.391 . S
C3004 C3005 1.400 . S
C3005 C2999 1.491 . S
C3005 C3004 1.400 . S
C3005 C3006 1.398 . S
C3006 H2994 0.950 . S
C3006 C3005 1.398 . S
C3006 C3007 1.391 . S
C3007 H2995 0.950 . S
C3007 C3003 1.393 . S
C3007 C3006 1.391 . S
H3008 C3016 0.950 . S
H3009 C3021 0.950 . S
H3010 C3018 0.950 . S
H3011 C3020 0.950 . S
H3012 C3022 0.973 . S
H3013 C3024 0.950 . S
H3014 C3026 0.950 . S
H3015 C3027 0.950 . S
C3016 H3008 0.950 . S
C3016 C3017 1.386 . S
C3016 C3018 1.391 . S
C3017 C3016 1.386 . S
C3017 C3021 1.393 1_455 S
C3018 H3010 0.950 . S
C3018 C3016 1.391 . S
C3018 C3019 1.400 . S
C3019 C3018 1.400 . S
C3019 C3020 1.398 1_455 S
C3019 C3025 1.491 . S
C3020 H3011 0.950 . S
C3020 C3019 1.398 1_655 S
C3020 C3021 1.391 . S
C3021 H3009 0.950 . S
C3021 C3017 1.393 1_655 S
C3021 C3020 1.391 . S
C3022 H3012 0.973 . S
C3022 C3023 1.360 1_655 S
C3022 C3024 1.395 . S
C3023 C3022 1.360 1_455 S
C3023 C3027 1.393 . S
C3024 H3013 0.950 . S
C3024 C3022 1.395 . S
C3024 C3025 1.400 1_655 S
C3025 C3019 1.491 . S
C3025 C3024 1.400 1_455 S
C3025 C3026 1.398 . S
C3026 H3014 0.950 . S
C3026 C3025 1.398 . S
C3026 C3027 1.391 . S
C3027 H3015 0.950 . S
C3027 C3023 1.393 . S
C3027 C3026 1.391 . S
H3028 C3036 0.950 . S
H3029 C3041 0.950 . S
H3030 C3038 0.950 . S
H3031 C3040 0.950 . S
H3032 C3042 0.950 . S
H3033 C3044 0.950 . S
H3034 C3046 0.950 . S
H3035 C3047 0.950 . S
C3036 H3028 0.950 . S
C3036 C3037 1.386 . S
C3036 C3038 1.391 . S
C3037 C3036 1.386 . S
C3037 C3041 1.393 . S
C3038 H3030 0.950 . S
C3038 C3036 1.391 . S
C3038 C3039 1.400 . S
C3039 C3038 1.400 . S
C3039 C3040 1.398 . S
C3039 C3045 1.491 . S
C3040 H3031 0.950 . S
C3040 C3039 1.398 . S
C3040 C3041 1.391 . S
C3041 H3029 0.950 . S
C3041 C3037 1.393 . S
C3041 C3040 1.391 . S
C3042 H3032 0.950 . S
C3042 C3043 1.386 . S
C3042 C3044 1.391 . S
C3043 C3042 1.386 . S
C3043 C3047 1.393 . S
C3044 H3033 0.950 . S
C3044 C3042 1.391 . S
C3044 C3045 1.400 . S
C3045 C3039 1.491 . S
C3045 C3044 1.400 . S
C3045 C3046 1.398 . S
C3046 H3034 0.950 . S
C3046 C3045 1.398 . S
C3046 C3047 1.391 . S
C3047 H3035 0.950 . S
C3047 C3043 1.393 . S
C3047 C3046 1.391 . S
H3048 C3056 0.950 . S
H3049 C3061 0.950 . S
H3050 C3058 0.950 . S
H3051 C3060 0.950 . S
H3052 C3062 0.950 . S
H3053 C3064 0.950 . S
H3054 C3066 0.950 . S
H3055 C3067 0.950 . S
C3056 H3048 0.950 . S
C3056 C3057 1.386 . S
C3056 C3058 1.391 . S
C3057 C3056 1.386 . S
C3057 C3061 1.393 . S
C3058 H3050 0.950 . S
C3058 C3056 1.391 . S
C3058 C3059 1.400 . S
C3059 C3058 1.400 . S
C3059 C3060 1.398 . S
C3059 C3065 1.491 . S
C3060 H3051 0.950 . S
C3060 C3059 1.398 . S
C3060 C3061 1.391 . S
C3061 H3049 0.950 . S
C3061 C3057 1.393 . S
C3061 C3060 1.391 . S
C3062 H3052 0.950 . S
C3062 C3063 1.386 . S
C3062 C3064 1.391 . S
C3063 C3062 1.386 . S
C3063 C3067 1.393 . S
C3064 H3053 0.950 . S
C3064 C3062 1.391 . S
C3064 C3065 1.400 . S
C3065 C3059 1.491 . S
C3065 C3064 1.400 . S
C3065 C3066 1.398 . S
C3066 H3054 0.950 . S
C3066 C3065 1.398 . S
C3066 C3067 1.391 . S
C3067 H3055 0.950 . S
C3067 C3063 1.393 . S
C3067 C3066 1.391 . S
H3068 C3076 0.950 . S
H3069 C3081 0.950 . S
H3070 C3078 0.950 . S
H3071 C3080 0.950 . S
H3072 C3082 0.950 . S
H3073 C3084 0.950 . S
H3074 C3086 0.950 . S
H3075 C3087 0.950 . S
C3076 H3068 0.950 . S
C3076 C3077 1.386 . S
C3076 C3078 1.391 . S
C3077 C3076 1.386 . S
C3077 C3081 1.393 . S
C3078 H3070 0.950 . S
C3078 C3076 1.391 . S
C3078 C3079 1.400 . S
C3079 C3078 1.400 . S
C3079 C3080 1.398 . S
C3079 C3085 1.491 . S
C3080 H3071 0.950 . S
C3080 C3079 1.398 . S
C3080 C3081 1.391 . S
C3081 H3069 0.950 . S
C3081 C3077 1.393 . S
C3081 C3080 1.391 . S
C3082 H3072 0.950 . S
C3082 C3083 1.386 . S
C3082 C3084 1.391 . S
C3083 C3082 1.386 . S
C3083 C3087 1.393 . S
C3084 H3073 0.950 . S
C3084 C3082 1.391 . S
C3084 C3085 1.400 . S
C3085 C3079 1.491 . S
C3085 C3084 1.400 . S
C3085 C3086 1.398 . S
C3086 H3074 0.950 . S
C3086 C3085 1.398 . S
C3086 C3087 1.391 . S
C3087 H3075 0.950 . S
C3087 C3083 1.393 . S
C3087 C3086 1.391 . S
H3088 C3096 0.950 . S
H3089 C3101 0.950 . S
H3090 C3098 0.950 . S
H3091 C3100 0.950 . S
H3092 C3102 0.950 1_455 S
H3093 C3104 0.950 . S
H3094 C3106 0.938 1_565 S
H3095 C3107 0.950 1_565 S
C3096 H3088 0.950 . S
C3096 C3097 1.386 1_565 S
C3096 C3098 1.391 . S
C3097 C3096 1.386 1_545 S
C3097 C3101 1.393 . S
C3098 H3090 0.950 . S
C3098 C3096 1.391 . S
C3098 C3099 1.400 1_565 S
C3099 C3098 1.400 1_545 S
C3099 C3100 1.398 . S
C3099 C3105 1.491 . S
C3100 H3091 0.950 . S
C3100 C3099 1.398 . S
C3100 C3101 1.391 . S
C3101 H3089 0.950 . S
C3101 C3097 1.393 . S
C3101 C3100 1.391 . S
C3102 H3092 0.950 1_655 S
C3102 C3103 1.386 . S
C3102 C3104 1.391 . S
C3103 C3102 1.386 . S
C3103 C3107 1.393 . S
C3104 H3093 0.950 . S
C3104 C3102 1.391 . S
C3104 C3105 1.400 . S
C3105 C3099 1.491 . S
C3105 C3104 1.400 . S
C3105 C3106 1.410 . S
C3106 H3094 0.938 1_545 S
C3106 C3105 1.410 . S
C3106 C3107 1.393 . S
C3107 H3095 0.950 1_545 S
C3107 C3103 1.393 . S
C3107 C3106 1.393 . S
H3108 C3116 0.950 . S
H3109 C3121 0.950 . S
H3110 C3118 0.950 . S
H3111 C3120 0.950 . S
H3112 C3122 0.950 . S
H3113 C3124 0.950 . S
H3114 C3126 0.950 . S
H3115 C3127 0.950 . S
C3116 H3108 0.950 . S
C3116 C3117 1.386 . S
C3116 C3118 1.391 . S
C3117 C3116 1.386 . S
C3117 C3121 1.393 . S
C3118 H3110 0.950 . S
C3118 C3116 1.391 . S
C3118 C3119 1.400 . S
C3119 C3118 1.400 . S
C3119 C3120 1.398 . S
C3119 C3125 1.491 . S
C3120 H3111 0.950 . S
C3120 C3119 1.398 . S
C3120 C3121 1.391 . S
C3121 H3109 0.950 . S
C3121 C3117 1.393 . S
C3121 C3120 1.391 . S
C3122 H3112 0.950 . S
C3122 C3123 1.386 . S
C3122 C3124 1.391 . S
C3123 C3122 1.386 . S
C3123 C3127 1.393 . S
C3124 H3113 0.950 . S
C3124 C3122 1.391 . S
C3124 C3125 1.400 . S
C3125 C3119 1.491 . S
C3125 C3124 1.400 . S
C3125 C3126 1.398 . S
C3126 H3114 0.950 . S
C3126 C3125 1.398 . S
C3126 C3127 1.391 . S
C3127 H3115 0.950 . S
C3127 C3123 1.393 . S
C3127 C3126 1.391 . S
H3128 C3136 0.950 . S
H3129 C3141 0.950 . S
H3130 C3138 0.950 . S
H3131 C3140 0.950 . S
H3132 C3142 0.950 . S
H3133 C3144 0.950 . S
H3134 C3146 0.950 . S
H3135 C3147 0.950 . S
C3136 H3128 0.950 . S
C3136 C3137 1.386 . S
C3136 C3138 1.391 . S
C3137 C3136 1.386 . S
C3137 C3141 1.393 1_545 S
C3138 H3130 0.950 . S
C3138 C3136 1.391 . S
C3138 C3139 1.400 . S
C3139 C3138 1.400 . S
C3139 C3140 1.398 1_545 S
C3139 C3145 1.491 . S
C3140 H3131 0.950 . S
C3140 C3139 1.398 1_565 S
C3140 C3141 1.391 . S
C3141 H3129 0.950 . S
C3141 C3137 1.393 1_565 S
C3141 C3140 1.391 . S
C3142 H3132 0.950 . S
C3142 C3143 1.387 1_565 S
C3142 C3144 1.391 . S
C3143 C3142 1.387 1_545 S
C3143 C3147 1.392 . S
C3144 H3133 0.950 . S
C3144 C3142 1.391 . S
C3144 C3145 1.400 1_565 S
C3145 C3139 1.491 . S
C3145 C3144 1.400 1_545 S
C3145 C3146 1.398 . S
C3146 H3134 0.950 . S
C3146 C3145 1.398 . S
C3146 C3147 1.391 . S
C3147 H3135 0.950 . S
C3147 C3143 1.392 . S
C3147 C3146 1.391 . S
H3148 C3156 0.950 . S
H3149 C3161 0.950 . S
H3150 C3158 0.950 . S
H3151 C3160 0.950 . S
H3152 C3162 0.950 . S
H3153 C3164 0.950 . S
H3154 C3166 0.950 . S
H3155 C3167 0.950 . S
C3156 H3148 0.950 . S
C3156 C3157 1.386 . S
C3156 C3158 1.391 . S
C3157 C3156 1.386 . S
C3157 C3161 1.393 . S
C3158 H3150 0.950 . S
C3158 C3156 1.391 . S
C3158 C3159 1.400 . S
C3159 C3158 1.400 . S
C3159 C3160 1.398 . S
C3159 C3165 1.491 . S
C3160 H3151 0.950 . S
C3160 C3159 1.398 . S
C3160 C3161 1.391 . S
C3161 H3149 0.950 . S
C3161 C3157 1.393 . S
C3161 C3160 1.391 . S
C3162 H3152 0.950 . S
C3162 C3163 1.386 . S
C3162 C3164 1.391 . S
C3163 C3162 1.386 . S
C3163 C3167 1.393 . S
C3164 H3153 0.950 . S
C3164 C3162 1.391 . S
C3164 C3165 1.400 . S
C3165 C3159 1.491 . S
C3165 C3164 1.400 . S
C3165 C3166 1.398 . S
C3166 H3154 0.950 . S
C3166 C3165 1.398 . S
C3166 C3167 1.391 . S
C3167 H3155 0.950 . S
C3167 C3163 1.393 . S
C3167 C3166 1.391 . S
H3168 C3176 0.950 . S
H3169 C3181 0.950 . S
H3170 C3178 0.950 . S
H3171 C3180 0.950 . S
H3172 C3182 0.950 . S
H3173 C3184 0.950 . S
H3174 C3186 0.950 . S
H3175 C3187 0.950 . S
C3176 H3168 0.950 . S
C3176 C3177 1.386 . S
C3176 C3178 1.391 . S
C3177 C3176 1.386 . S
C3177 C3181 1.393 1_545 S
C3178 H3170 0.950 . S
C3178 C3176 1.391 . S
C3178 C3179 1.400 1_545 S
C3179 C3178 1.400 1_565 S
C3179 C3180 1.398 . S
C3179 C3185 1.491 . S
C3180 H3171 0.950 . S
C3180 C3179 1.398 . S
C3180 C3181 1.391 . S
C3181 H3169 0.950 . S
C3181 C3177 1.393 1_565 S
C3181 C3180 1.391 . S
C3182 H3172 0.950 . S
C3182 C3183 1.386 . S
C3182 C3184 1.391 . S
C3183 C3182 1.386 . S
C3183 C3187 1.393 1_565 S
C3184 H3173 0.950 . S
C3184 C3182 1.391 . S
C3184 C3185 1.400 . S
C3185 C3179 1.491 . S
C3185 C3184 1.400 . S
C3185 C3186 1.398 1_565 S
C3186 H3174 0.950 . S
C3186 C3185 1.398 1_545 S
C3186 C3187 1.391 . S
C3187 H3175 0.950 . S
C3187 C3183 1.393 1_545 S
C3187 C3186 1.391 . S
H3188 C3196 0.950 . S
H3189 C3201 0.950 . S
H3190 C3198 0.950 . S
H3191 C3200 0.950 . S
H3192 C3202 0.950 . S
H3193 C3204 0.950 . S
H3194 C3206 0.950 . S
H3195 C3207 0.950 . S
C3196 H3188 0.950 . S
C3196 C3197 1.386 . S
C3196 C3198 1.391 . S
C3197 C3196 1.386 . S
C3197 C3201 1.393 . S
C3198 H3190 0.950 . S
C3198 C3196 1.391 . S
C3198 C3199 1.400 . S
C3199 C3198 1.400 . S
C3199 C3200 1.398 . S
C3199 C3205 1.491 . S
C3200 H3191 0.950 . S
C3200 C3199 1.398 . S
C3200 C3201 1.391 . S
C3201 H3189 0.950 . S
C3201 C3197 1.393 . S
C3201 C3200 1.391 . S
C3202 H3192 0.950 . S
C3202 C3203 1.386 . S
C3202 C3204 1.391 . S
C3203 C3202 1.386 . S
C3203 C3207 1.393 . S
C3204 H3193 0.950 . S
C3204 C3202 1.391 . S
C3204 C3205 1.400 . S
C3205 C3199 1.491 . S
C3205 C3204 1.400 . S
C3205 C3206 1.398 . S
C3206 H3194 0.950 . S
C3206 C3205 1.398 . S
C3206 C3207 1.391 . S
C3207 H3195 0.950 . S
C3207 C3203 1.393 . S
C3207 C3206 1.391 . S
H3208 C3216 0.950 . S
H3209 C3221 0.950 . S
H3210 C3218 0.950 . S
H3211 C3220 0.950 . S
H3212 C3222 0.950 . S
H3213 C3224 0.950 . S
H3214 C3226 0.950 . S
H3215 C3227 0.950 . S
C3216 H3208 0.950 . S
C3216 C3217 1.386 . S
C3216 C3218 1.391 . S
C3217 C3216 1.386 . S
C3217 C3221 1.393 . S
C3218 H3210 0.950 . S
C3218 C3216 1.391 . S
C3218 C3219 1.400 . S
C3219 C3218 1.400 . S
C3219 C3220 1.398 . S
C3219 C3225 1.491 . S
C3220 H3211 0.950 . S
C3220 C3219 1.398 . S
C3220 C3221 1.391 . S
C3221 H3209 0.950 . S
C3221 C3217 1.393 . S
C3221 C3220 1.391 . S
C3222 H3212 0.950 . S
C3222 C3223 1.386 . S
C3222 C3224 1.391 . S
C3223 C3222 1.386 . S
C3223 C3227 1.393 . S
C3224 H3213 0.950 . S
C3224 C3222 1.391 . S
C3224 C3225 1.400 . S
C3225 C3219 1.491 . S
C3225 C3224 1.400 . S
C3225 C3226 1.398 . S
C3226 H3214 0.950 . S
C3226 C3225 1.398 . S
C3226 C3227 1.391 . S
C3227 H3215 0.950 . S
C3227 C3223 1.393 . S
C3227 C3226 1.391 . S
H3228 C3236 0.950 . S
H3229 C3241 0.950 . S
H3230 C3238 0.950 . S
H3231 C3240 0.950 . S
H3232 C3242 0.950 . S
H3233 C3244 0.950 . S
H3234 C3246 0.950 . S
H3235 C3247 0.950 . S
C3236 H3228 0.950 . S
C3236 C3237 1.386 . S
C3236 C3238 1.391 . S
C3237 C3236 1.386 . S
C3237 C3241 1.393 . S
C3238 H3230 0.950 . S
C3238 C3236 1.391 . S
C3238 C3239 1.400 . S
C3239 C3238 1.400 . S
C3239 C3240 1.398 . S
C3239 C3245 1.491 . S
C3240 H3231 0.950 . S
C3240 C3239 1.398 . S
C3240 C3241 1.391 . S
C3241 H3229 0.950 . S
C3241 C3237 1.393 . S
C3241 C3240 1.391 . S
C3242 H3232 0.950 . S
C3242 C3243 1.386 . S
C3242 C3244 1.391 . S
C3243 C3242 1.386 . S
C3243 C3247 1.393 . S
C3244 H3233 0.950 . S
C3244 C3242 1.391 . S
C3244 C3245 1.400 . S
C3245 C3239 1.491 . S
C3245 C3244 1.400 . S
C3245 C3246 1.398 . S
C3246 H3234 0.950 . S
C3246 C3245 1.398 . S
C3246 C3247 1.391 . S
C3247 H3235 0.950 . S
C3247 C3243 1.393 . S
C3247 C3246 1.391 . S
H3248 C3256 0.950 . S
H3249 C3261 0.950 . S
H3250 C3258 0.950 . S
H3251 C3260 0.950 . S
H3252 C3262 0.950 . S
H3253 C3264 0.950 . S
H3254 C3266 0.950 . S
H3255 C3267 0.950 . S
C3256 H3248 0.950 . S
C3256 C3257 1.386 1_556 S
C3256 C3258 1.391 . S
C3257 C3256 1.386 1_554 S
C3257 C3261 1.393 . S
C3258 H3250 0.950 . S
C3258 C3256 1.391 . S
C3258 C3259 1.400 1_556 S
C3259 C3258 1.400 1_554 S
C3259 C3260 1.398 . S
C3259 C3265 1.491 . S
C3260 H3251 0.950 . S
C3260 C3259 1.398 . S
C3260 C3261 1.391 . S
C3261 H3249 0.950 . S
C3261 C3257 1.393 . S
C3261 C3260 1.391 . S
C3262 H3252 0.950 . S
C3262 C3263 1.386 . S
C3262 C3264 1.391 . S
C3263 C3262 1.386 . S
C3263 C3267 1.393 1_554 S
C3264 H3253 0.950 . S
C3264 C3262 1.391 . S
C3264 C3265 1.400 . S
C3265 C3259 1.491 . S
C3265 C3264 1.400 . S
C3265 C3266 1.398 1_554 S
C3266 H3254 0.950 . S
C3266 C3265 1.398 1_556 S
C3266 C3267 1.391 . S
C3267 H3255 0.950 . S
C3267 C3263 1.393 1_556 S
C3267 C3266 1.391 . S
H3268 C3276 0.950 . S
H3269 C3281 0.950 . S
H3270 C3278 0.950 . S
H3271 C3280 0.950 . S
H3272 C3282 0.950 . S
H3273 C3284 0.950 . S
H3274 C3286 0.949 . S
H3275 C3287 0.947 1_554 S
C3276 H3268 0.950 . S
C3276 C3277 1.386 . S
C3276 C3278 1.391 . S
C3277 C3276 1.386 . S
C3277 C3281 1.393 1_554 S
C3278 H3270 0.950 . S
C3278 C3276 1.391 . S
C3278 C3279 1.397 1_554 S
C3279 C3278 1.397 1_556 S
C3279 C3280 1.400 . S
C3279 C3285 1.492 . S
C3280 H3271 0.950 . S
C3280 C3279 1.400 . S
C3280 C3281 1.391 . S
C3281 H3269 0.950 . S
C3281 C3277 1.393 1_556 S
C3281 C3280 1.391 . S
C3282 H3272 0.950 . S
C3282 C3283 1.386 . S
C3282 C3284 1.391 . S
C3283 C3282 1.386 . S
C3283 C3287 1.397 . S
C3284 H3273 0.950 . S
C3284 C3282 1.391 . S
C3284 C3285 1.400 . S
C3285 C3279 1.492 . S
C3285 C3284 1.400 . S
C3285 C3286 1.399 1_556 S
C3286 H3274 0.949 . S
C3286 C3285 1.399 1_554 S
C3286 C3287 1.390 1_554 S
C3287 H3275 0.947 1_556 S
C3287 C3283 1.397 . S
C3287 C3286 1.390 1_556 S
H3288 C3296 0.950 . S
H3289 C3301 0.950 . S
H3290 C3298 0.950 . S
H3291 C3300 0.950 . S
H3292 C3302 0.950 . S
H3293 C3304 0.950 . S
H3294 C3306 0.950 . S
H3295 C3307 0.950 . S
C3296 H3288 0.950 . S
C3296 C3297 1.386 . S
C3296 C3298 1.391 . S
C3297 C3296 1.386 . S
C3297 C3301 1.393 . S
C3298 H3290 0.950 . S
C3298 C3296 1.391 . S
C3298 C3299 1.400 . S
C3299 C3298 1.400 . S
C3299 C3300 1.398 . S
C3299 C3305 1.491 . S
C3300 H3291 0.950 . S
C3300 C3299 1.398 . S
C3300 C3301 1.391 . S
C3301 H3289 0.950 . S
C3301 C3297 1.393 . S
C3301 C3300 1.391 . S
C3302 H3292 0.950 . S
C3302 C3303 1.386 . S
C3302 C3304 1.391 . S
C3303 C3302 1.386 . S
C3303 C3307 1.393 . S
C3304 H3293 0.950 . S
C3304 C3302 1.391 . S
C3304 C3305 1.400 . S
C3305 C3299 1.491 . S
C3305 C3304 1.400 . S
C3305 C3306 1.398 . S
C3306 H3294 0.950 . S
C3306 C3305 1.398 . S
C3306 C3307 1.391 . S
C3307 H3295 0.950 . S
C3307 C3303 1.393 . S
C3307 C3306 1.391 . S
H3308 C3316 0.950 . S
H3309 C3321 0.950 . S
H3310 C3318 0.950 . S
H3311 C3320 0.950 . S
H3312 C3322 0.950 . S
H3313 C3324 0.950 . S
H3314 C3326 0.950 . S
H3315 C3327 0.950 . S
C3316 H3308 0.950 . S
C3316 C3317 1.386 . S
C3316 C3318 1.391 . S
C3317 C3316 1.386 . S
C3317 C3321 1.393 . S
C3318 H3310 0.950 . S
C3318 C3316 1.391 . S
C3318 C3319 1.400 . S
C3319 C3318 1.400 . S
C3319 C3320 1.398 . S
C3319 C3325 1.491 . S
C3320 H3311 0.950 . S
C3320 C3319 1.398 . S
C3320 C3321 1.391 . S
C3321 H3309 0.950 . S
C3321 C3317 1.393 . S
C3321 C3320 1.391 . S
C3322 H3312 0.950 . S
C3322 C3323 1.386 . S
C3322 C3324 1.391 . S
C3323 C3322 1.386 . S
C3323 C3327 1.393 . S
C3324 H3313 0.950 . S
C3324 C3322 1.391 . S
C3324 C3325 1.400 . S
C3325 C3319 1.491 . S
C3325 C3324 1.400 . S
C3325 C3326 1.398 . S
C3326 H3314 0.950 . S
C3326 C3325 1.398 . S
C3326 C3327 1.391 . S
C3327 H3315 0.950 . S
C3327 C3323 1.393 . S
C3327 C3326 1.391 . S
H3328 C3336 0.950 . S
H3329 C3341 0.950 . S
H3330 C3338 0.950 . S
H3331 C3340 0.950 . S
H3332 C3342 0.950 . S
H3333 C3344 0.950 . S
H3334 C3346 0.950 . S
H3335 C3347 0.950 . S
C3336 H3328 0.950 . S
C3336 C3337 1.386 . S
C3336 C3338 1.391 . S
C3337 C3336 1.386 . S
C3337 C3341 1.393 . S
C3338 H3330 0.950 . S
C3338 C3336 1.391 . S
C3338 C3339 1.400 . S
C3339 C3338 1.400 . S
C3339 C3340 1.398 . S
C3339 C3345 1.491 . S
C3340 H3331 0.950 . S
C3340 C3339 1.398 . S
C3340 C3341 1.391 . S
C3341 H3329 0.950 . S
C3341 C3337 1.393 . S
C3341 C3340 1.391 . S
C3342 H3332 0.950 . S
C3342 C3343 1.386 . S
C3342 C3344 1.391 . S
C3343 C3342 1.386 . S
C3343 C3347 1.393 . S
C3344 H3333 0.950 . S
C3344 C3342 1.391 . S
C3344 C3345 1.400 . S
C3345 C3339 1.491 . S
C3345 C3344 1.400 . S
C3345 C3346 1.398 . S
C3346 H3334 0.950 . S
C3346 C3345 1.398 . S
C3346 C3347 1.391 . S
C3347 H3335 0.950 . S
C3347 C3343 1.393 . S
C3347 C3346 1.391 . S
H3348 C3356 0.950 . S
H3349 C3361 0.950 . S
H3350 C3358 0.950 . S
H3351 C3360 0.950 . S
H3352 C3362 0.950 . S
H3353 C3364 0.950 . S
H3354 C3366 0.950 . S
H3355 C3367 0.950 . S
C3356 H3348 0.950 . S
C3356 C3357 1.386 . S
C3356 C3358 1.391 . S
C3357 C3356 1.386 . S
C3357 C3361 1.393 . S
C3358 H3350 0.950 . S
C3358 C3356 1.391 . S
C3358 C3359 1.400 . S
C3359 C3358 1.400 . S
C3359 C3360 1.398 . S
C3359 C3365 1.491 . S
C3360 H3351 0.950 . S
C3360 C3359 1.398 . S
C3360 C3361 1.391 . S
C3361 H3349 0.950 . S
C3361 C3357 1.393 . S
C3361 C3360 1.391 . S
C3362 H3352 0.950 . S
C3362 C3363 1.386 . S
C3362 C3364 1.391 . S
C3363 C3362 1.386 . S
C3363 C3367 1.393 . S
C3364 H3353 0.950 . S
C3364 C3362 1.391 . S
C3364 C3365 1.400 . S
C3365 C3359 1.491 . S
C3365 C3364 1.400 . S
C3365 C3366 1.398 . S
C3366 H3354 0.950 . S
C3366 C3365 1.398 . S
C3366 C3367 1.391 . S
C3367 H3355 0.950 . S
C3367 C3363 1.393 . S
C3367 C3366 1.391 . S
H3368 C3376 0.950 . S
H3369 C3381 0.950 . S
H3370 C3378 0.950 . S
H3371 C3380 0.950 . S
H3372 C3382 0.950 . S
H3373 C3384 0.950 . S
H3374 C3386 0.950 . S
H3375 C3387 0.950 . S
C3376 H3368 0.950 . S
C3376 C3377 1.386 . S
C3376 C3378 1.391 . S
C3377 C3376 1.386 . S
C3377 C3381 1.393 . S
C3378 H3370 0.950 . S
C3378 C3376 1.391 . S
C3378 C3379 1.400 . S
C3379 C3378 1.400 . S
C3379 C3380 1.398 . S
C3379 C3385 1.491 . S
C3380 H3371 0.950 . S
C3380 C3379 1.398 . S
C3380 C3381 1.391 . S
C3381 H3369 0.950 . S
C3381 C3377 1.393 . S
C3381 C3380 1.391 . S
C3382 H3372 0.950 . S
C3382 C3383 1.386 . S
C3382 C3384 1.391 . S
C3383 C3382 1.386 . S
C3383 C3387 1.393 . S
C3384 H3373 0.950 . S
C3384 C3382 1.391 . S
C3384 C3385 1.400 . S
C3385 C3379 1.491 . S
C3385 C3384 1.400 . S
C3385 C3386 1.398 . S
C3386 H3374 0.950 . S
C3386 C3385 1.398 . S
C3386 C3387 1.391 . S
C3387 H3375 0.950 . S
C3387 C3383 1.393 . S
C3387 C3386 1.391 . S
H3388 C3396 0.950 . S
H3389 C3401 0.950 . S
H3390 C3398 0.950 . S
H3391 C3400 0.950 . S
H3392 C3402 0.950 . S
H3393 C3404 0.950 . S
H3394 C3406 0.950 . S
H3395 C3407 0.950 . S
C3396 H3388 0.950 . S
C3396 C3397 1.386 . S
C3396 C3398 1.391 . S
C3397 C3396 1.386 . S
C3397 C3401 1.393 . S
C3398 H3390 0.950 . S
C3398 C3396 1.391 . S
C3398 C3399 1.400 . S
C3399 C3398 1.400 . S
C3399 C3400 1.398 . S
C3399 C3405 1.491 . S
C3400 H3391 0.950 . S
C3400 C3399 1.398 . S
C3400 C3401 1.391 . S
C3401 H3389 0.950 . S
C3401 C3397 1.393 . S
C3401 C3400 1.391 . S
C3402 H3392 0.950 . S
C3402 C3403 1.386 . S
C3402 C3404 1.391 . S
C3403 C3402 1.386 . S
C3403 C3407 1.393 . S
C3404 H3393 0.950 . S
C3404 C3402 1.391 . S
C3404 C3405 1.400 . S
C3405 C3399 1.491 . S
C3405 C3404 1.400 . S
C3405 C3406 1.398 . S
C3406 H3394 0.950 . S
C3406 C3405 1.398 . S
C3406 C3407 1.391 . S
C3407 H3395 0.950 . S
C3407 C3403 1.393 . S
C3407 C3406 1.391 . S
H3408 C3416 0.950 . S
H3409 C3421 0.950 . S
H3410 C3418 0.950 . S
H3411 C3420 0.950 . S
H3412 C3422 0.950 . S
H3413 C3424 0.950 . S
H3414 C3426 0.950 . S
H3415 C3427 0.950 . S
C3416 H3408 0.950 . S
C3416 C3417 1.386 . S
C3416 C3418 1.391 . S
C3417 C3416 1.386 . S
C3417 C3421 1.393 . S
C3418 H3410 0.950 . S
C3418 C3416 1.391 . S
C3418 C3419 1.400 . S
C3419 C3418 1.400 . S
C3419 C3420 1.398 . S
C3419 C3425 1.491 . S
C3420 H3411 0.950 . S
C3420 C3419 1.398 . S
C3420 C3421 1.391 . S
C3421 H3409 0.950 . S
C3421 C3417 1.393 . S
C3421 C3420 1.391 . S
C3422 H3412 0.950 . S
C3422 C3423 1.386 . S
C3422 C3424 1.391 . S
C3423 C3422 1.386 . S
C3423 C3427 1.393 . S
C3424 H3413 0.950 . S
C3424 C3422 1.391 . S
C3424 C3425 1.400 . S
C3425 C3419 1.491 . S
C3425 C3424 1.400 . S
C3425 C3426 1.398 . S
C3426 H3414 0.950 . S
C3426 C3425 1.398 . S
C3426 C3427 1.391 . S
C3427 H3415 0.950 . S
C3427 C3423 1.393 . S
C3427 C3426 1.391 . S
H3428 C3436 0.950 . S
H3429 C3441 0.950 . S
H3430 C3438 0.950 . S
H3431 C3440 0.950 . S
H3432 C3442 0.950 . S
H3433 C3444 0.950 . S
H3434 C3446 0.950 . S
H3435 C3447 0.950 . S
C3436 H3428 0.950 . S
C3436 C3437 1.386 . S
C3436 C3438 1.391 . S
C3437 C3436 1.386 . S
C3437 C3441 1.393 . S
C3438 H3430 0.950 . S
C3438 C3436 1.391 . S
C3438 C3439 1.400 . S
C3439 C3438 1.400 . S
C3439 C3440 1.398 . S
C3439 C3445 1.491 . S
C3440 H3431 0.950 . S
C3440 C3439 1.398 . S
C3440 C3441 1.391 . S
C3441 H3429 0.950 . S
C3441 C3437 1.393 . S
C3441 C3440 1.391 . S
C3442 H3432 0.950 . S
C3442 C3443 1.386 . S
C3442 C3444 1.391 . S
C3443 C3442 1.386 . S
C3443 C3447 1.393 . S
C3444 H3433 0.950 . S
C3444 C3442 1.391 . S
C3444 C3445 1.400 . S
C3445 C3439 1.491 . S
C3445 C3444 1.400 . S
C3445 C3446 1.398 . S
C3446 H3434 0.950 . S
C3446 C3445 1.398 . S
C3446 C3447 1.391 . S
C3447 H3435 0.950 . S
C3447 C3443 1.393 . S
C3447 C3446 1.391 . S
H3448 C3456 0.950 . S
H3449 C3461 0.950 . S
H3450 C3458 0.950 . S
H3451 C3460 0.950 . S
H3452 C3462 0.969 . S
H3453 C3464 0.950 . S
H3454 C3466 0.950 . S
H3455 C3467 0.950 . S
C3456 H3448 0.950 . S
C3456 C3457 1.386 1_655 S
C3456 C3458 1.391 . S
C3457 C3456 1.386 1_455 S
C3457 C3461 1.393 . S
C3458 H3450 0.950 . S
C3458 C3456 1.391 . S
C3458 C3459 1.400 1_655 S
C3459 C3458 1.400 1_455 S
C3459 C3460 1.398 . S
C3459 C3465 1.491 . S
C3460 H3451 0.950 . S
C3460 C3459 1.398 . S
C3460 C3461 1.391 . S
C3461 H3449 0.950 . S
C3461 C3457 1.393 . S
C3461 C3460 1.391 . S
C3462 H3452 0.969 . S
C3462 C3463 1.386 . S
C3462 C3464 1.391 . S
C3463 C3462 1.386 . S
C3463 C3467 1.393 1_455 S
C3464 H3453 0.950 . S
C3464 C3462 1.391 . S
C3464 C3465 1.400 . S
C3465 C3459 1.491 . S
C3465 C3464 1.400 . S
C3465 C3466 1.398 1_455 S
C3466 H3454 0.950 . S
C3466 C3465 1.398 1_655 S
C3466 C3467 1.391 . S
C3467 H3455 0.950 . S
C3467 C3463 1.393 1_655 S
C3467 C3466 1.391 . S
H3468 C3476 0.950 . S
H3469 C3481 0.950 . S
H3470 C3478 0.950 . S
H3471 C3480 0.950 . S
H3472 C3482 0.950 . S
H3473 C3484 0.950 . S
H3474 C3486 0.950 . S
H3475 C3487 0.950 . S
C3476 H3468 0.950 . S
C3476 C3477 1.386 . S
C3476 C3478 1.391 . S
C3477 C3476 1.386 . S
C3477 C3481 1.393 . S
C3478 H3470 0.950 . S
C3478 C3476 1.391 . S
C3478 C3479 1.400 . S
C3479 C3478 1.400 . S
C3479 C3480 1.398 . S
C3479 C3485 1.491 . S
C3480 H3471 0.950 . S
C3480 C3479 1.398 . S
C3480 C3481 1.391 . S
C3481 H3469 0.950 . S
C3481 C3477 1.393 . S
C3481 C3480 1.391 . S
C3482 H3472 0.950 . S
C3482 C3483 1.386 . S
C3482 C3484 1.391 . S
C3483 C3482 1.386 . S
C3483 C3487 1.393 . S
C3484 H3473 0.950 . S
C3484 C3482 1.391 . S
C3484 C3485 1.400 . S
C3485 C3479 1.491 . S
C3485 C3484 1.400 . S
C3485 C3486 1.398 . S
C3486 H3474 0.950 . S
C3486 C3485 1.398 . S
C3486 C3487 1.391 . S
C3487 H3475 0.950 . S
C3487 C3483 1.393 . S
C3487 C3486 1.391 . S
H3488 C3496 0.950 . S
H3489 C3501 0.950 . S
H3490 C3498 0.950 . S
H3491 C3500 0.950 . S
H3492 C3502 0.950 . S
H3493 C3504 0.950 . S
H3494 C3506 0.950 . S
H3495 C3507 0.950 . S
C3496 H3488 0.950 . S
C3496 C3497 1.386 . S
C3496 C3498 1.391 . S
C3497 C3496 1.386 . S
C3497 C3501 1.393 . S
C3498 H3490 0.950 . S
C3498 C3496 1.391 . S
C3498 C3499 1.400 . S
C3499 C3498 1.400 . S
C3499 C3500 1.398 . S
C3499 C3505 1.491 . S
C3500 H3491 0.950 . S
C3500 C3499 1.398 . S
C3500 C3501 1.391 . S
C3501 H3489 0.950 . S
C3501 C3497 1.393 . S
C3501 C3500 1.391 . S
C3502 H3492 0.950 . S
C3502 C3503 1.386 . S
C3502 C3504 1.391 . S
C3503 C3502 1.386 . S
C3503 C3507 1.393 . S
C3504 H3493 0.950 . S
C3504 C3502 1.391 . S
C3504 C3505 1.400 . S
C3505 C3499 1.491 . S
C3505 C3504 1.400 . S
C3505 C3506 1.398 . S
C3506 H3494 0.950 . S
C3506 C3505 1.398 . S
C3506 C3507 1.391 . S
C3507 H3495 0.950 . S
C3507 C3503 1.393 . S
C3507 C3506 1.391 . S
H3508 C3516 0.950 . S
H3509 C3521 0.950 . S
H3510 C3518 0.950 . S
H3511 C3520 0.950 . S
H3512 C3522 0.950 . S
H3513 C3524 0.950 . S
H3514 C3526 0.950 . S
H3515 C3527 0.950 . S
C3516 H3508 0.950 . S
C3516 C3517 1.386 . S
C3516 C3518 1.391 . S
C3517 C3516 1.386 . S
C3517 C3521 1.393 . S
C3518 H3510 0.950 . S
C3518 C3516 1.391 . S
C3518 C3519 1.400 . S
C3519 C3518 1.400 . S
C3519 C3520 1.398 . S
C3519 C3525 1.491 . S
C3520 H3511 0.950 . S
C3520 C3519 1.398 . S
C3520 C3521 1.391 . S
C3521 H3509 0.950 . S
C3521 C3517 1.393 . S
C3521 C3520 1.391 . S
C3522 H3512 0.950 . S
C3522 C3523 1.386 . S
C3522 C3524 1.391 . S
C3523 C3522 1.386 . S
C3523 C3527 1.393 . S
C3524 H3513 0.950 . S
C3524 C3522 1.391 . S
C3524 C3525 1.400 . S
C3525 C3519 1.491 . S
C3525 C3524 1.400 . S
C3525 C3526 1.398 . S
C3526 H3514 0.950 . S
C3526 C3525 1.398 . S
C3526 C3527 1.391 . S
C3527 H3515 0.950 . S
C3527 C3523 1.393 . S
C3527 C3526 1.391 . S
H3528 C3536 0.950 . S
H3529 C3541 0.950 . S
H3530 C3538 0.950 . S
H3531 C3540 0.950 . S
H3532 C3542 0.950 . S
H3533 C3544 0.950 . S
H3534 C3546 0.950 . S
H3535 C3547 0.950 . S
C3536 H3528 0.950 . S
C3536 C3537 1.386 . S
C3536 C3538 1.391 . S
C3537 C3536 1.386 . S
C3537 C3541 1.393 1_455 S
C3538 H3530 0.950 . S
C3538 C3536 1.391 . S
C3538 C3539 1.400 . S
C3539 C3538 1.400 . S
C3539 C3540 1.398 1_455 S
C3539 C3545 1.491 . S
C3540 H3531 0.950 . S
C3540 C3539 1.398 1_655 S
C3540 C3541 1.391 . S
C3541 H3529 0.950 . S
C3541 C3537 1.393 1_655 S
C3541 C3540 1.391 . S
C3542 H3532 0.950 . S
C3542 C3543 1.386 1_655 S
C3542 C3544 1.391 . S
C3543 C3542 1.386 1_455 S
C3543 C3547 1.393 . S
C3544 H3533 0.950 . S
C3544 C3542 1.391 . S
C3544 C3545 1.400 1_655 S
C3545 C3539 1.491 . S
C3545 C3544 1.400 1_455 S
C3545 C3546 1.398 . S
C3546 H3534 0.950 . S
C3546 C3545 1.398 . S
C3546 C3547 1.391 . S
C3547 H3535 0.950 . S
C3547 C3543 1.393 . S
C3547 C3546 1.391 . S
H3548 C3556 0.950 . S
H3549 C3561 0.950 . S
H3550 C3558 0.950 . S
H3551 C3560 0.950 . S
H3552 C3562 0.950 . S
H3553 C3564 0.950 . S
H3554 C3566 0.950 . S
H3555 C3567 0.950 . S
C3556 H3548 0.950 . S
C3556 C3557 1.386 . S
C3556 C3558 1.391 . S
C3557 C3556 1.386 . S
C3557 C3561 1.393 . S
C3558 H3550 0.950 . S
C3558 C3556 1.391 . S
C3558 C3559 1.400 . S
C3559 C3558 1.400 . S
C3559 C3560 1.398 . S
C3559 C3565 1.491 . S
C3560 H3551 0.950 . S
C3560 C3559 1.398 . S
C3560 C3561 1.391 . S
C3561 H3549 0.950 . S
C3561 C3557 1.393 . S
C3561 C3560 1.391 . S
C3562 H3552 0.950 . S
C3562 C3563 1.386 . S
C3562 C3564 1.391 . S
C3563 C3562 1.386 . S
C3563 C3567 1.393 . S
C3564 H3553 0.950 . S
C3564 C3562 1.391 . S
C3564 C3565 1.400 . S
C3565 C3559 1.491 . S
C3565 C3564 1.400 . S
C3565 C3566 1.398 . S
C3566 H3554 0.950 . S
C3566 C3565 1.398 . S
C3566 C3567 1.391 . S
C3567 H3555 0.950 . S
C3567 C3563 1.393 . S
C3567 C3566 1.391 . S
H3568 C3576 0.950 . S
H3569 C3581 0.950 . S
H3570 C3578 0.950 . S
H3571 C3580 0.950 . S
H3572 C3582 0.950 . S
H3573 C3584 0.950 . S
H3574 C3586 0.950 . S
H3575 C3587 0.950 . S
C3576 H3568 0.950 . S
C3576 C3577 1.386 . S
C3576 C3578 1.391 . S
C3577 C3576 1.386 . S
C3577 C3581 1.393 . S
C3578 H3570 0.950 . S
C3578 C3576 1.391 . S
C3578 C3579 1.400 . S
C3579 C3578 1.400 . S
C3579 C3580 1.398 . S
C3579 C3585 1.491 . S
C3580 H3571 0.950 . S
C3580 C3579 1.398 . S
C3580 C3581 1.391 . S
C3581 H3569 0.950 . S
C3581 C3577 1.393 . S
C3581 C3580 1.391 . S
C3582 H3572 0.950 . S
C3582 C3583 1.386 . S
C3582 C3584 1.391 . S
C3583 C3582 1.386 . S
C3583 C3587 1.393 . S
C3584 H3573 0.950 . S
C3584 C3582 1.391 . S
C3584 C3585 1.400 . S
C3585 C3579 1.491 . S
C3585 C3584 1.400 . S
C3585 C3586 1.398 . S
C3586 H3574 0.950 . S
C3586 C3585 1.398 . S
C3586 C3587 1.391 . S
C3587 H3575 0.950 . S
C3587 C3583 1.393 . S
C3587 C3586 1.391 . S
H3588 C3596 0.950 . S
H3589 C3601 0.950 . S
H3590 C3598 0.950 . S
H3591 C3600 0.950 . S
H3592 C3602 0.950 . S
H3593 C3604 0.950 . S
H3594 C3606 0.950 . S
H3595 C3607 0.950 . S
C3596 H3588 0.950 . S
C3596 C3597 1.386 . S
C3596 C3598 1.391 . S
C3597 C3596 1.386 . S
C3597 C3601 1.393 . S
C3598 H3590 0.950 . S
C3598 C3596 1.391 . S
C3598 C3599 1.400 . S
C3599 C3598 1.400 . S
C3599 C3600 1.398 . S
C3599 C3605 1.491 . S
C3600 H3591 0.950 . S
C3600 C3599 1.398 . S
C3600 C3601 1.391 . S
C3601 H3589 0.950 . S
C3601 C3597 1.393 . S
C3601 C3600 1.391 . S
C3602 H3592 0.950 . S
C3602 C3603 1.386 . S
C3602 C3604 1.391 . S
C3603 C3602 1.386 . S
C3603 C3607 1.393 . S
C3604 H3593 0.950 . S
C3604 C3602 1.391 . S
C3604 C3605 1.400 . S
C3605 C3599 1.491 . S
C3605 C3604 1.400 . S
C3605 C3606 1.398 . S
C3606 H3594 0.950 . S
C3606 C3605 1.398 . S
C3606 C3607 1.391 . S
C3607 H3595 0.950 . S
C3607 C3603 1.393 . S
C3607 C3606 1.391 . S
H3608 C3616 0.950 . S
H3609 C3621 0.950 . S
H3610 C3618 0.950 . S
H3611 C3620 0.950 . S
H3612 C3622 0.950 1_455 S
H3613 C3624 0.950 . S
H3614 C3626 0.950 . S
H3615 C3627 0.950 . S
C3616 H3608 0.950 . S
C3616 C3617 1.386 . S
C3616 C3618 1.391 . S
C3617 C3616 1.386 . S
C3617 C3621 1.393 . S
C3618 H3610 0.950 . S
C3618 C3616 1.391 . S
C3618 C3619 1.400 . S
C3619 C3618 1.400 . S
C3619 C3620 1.398 . S
C3619 C3625 1.491 . S
C3620 H3611 0.950 . S
C3620 C3619 1.398 . S
C3620 C3621 1.391 . S
C3621 H3609 0.950 . S
C3621 C3617 1.393 . S
C3621 C3620 1.391 . S
C3622 H3612 0.950 1_655 S
C3622 C3623 1.386 . S
C3622 C3624 1.391 . S
C3623 C3622 1.386 . S
C3623 C3627 1.393 . S
C3624 H3613 0.950 . S
C3624 C3622 1.391 . S
C3624 C3625 1.400 . S
C3625 C3619 1.491 . S
C3625 C3624 1.400 . S
C3625 C3626 1.398 . S
C3626 H3614 0.950 . S
C3626 C3625 1.398 . S
C3626 C3627 1.391 . S
C3627 H3615 0.950 . S
C3627 C3623 1.393 . S
C3627 C3626 1.391 . S
H3628 C3636 0.950 . S
H3629 C3641 0.950 . S
H3630 C3638 0.950 . S
H3631 C3640 0.950 . S
H3632 C3642 0.950 . S
H3633 C3644 0.950 . S
H3634 C3646 0.950 . S
H3635 C3647 0.950 . S
C3636 H3628 0.950 . S
C3636 C3637 1.386 . S
C3636 C3638 1.391 . S
C3637 C3636 1.386 . S
C3637 C3641 1.393 . S
C3638 H3630 0.950 . S
C3638 C3636 1.391 . S
C3638 C3639 1.400 . S
C3639 C3638 1.400 . S
C3639 C3640 1.398 . S
C3639 C3645 1.491 . S
C3640 H3631 0.950 . S
C3640 C3639 1.398 . S
C3640 C3641 1.391 . S
C3641 H3629 0.950 . S
C3641 C3637 1.393 . S
C3641 C3640 1.391 . S
C3642 H3632 0.950 . S
C3642 C3643 1.386 . S
C3642 C3644 1.391 . S
C3643 C3642 1.386 . S
C3643 C3647 1.393 . S
C3644 H3633 0.950 . S
C3644 C3642 1.391 . S
C3644 C3645 1.400 . S
C3645 C3639 1.491 . S
C3645 C3644 1.400 . S
C3645 C3646 1.398 . S
C3646 H3634 0.950 . S
C3646 C3645 1.398 . S
C3646 C3647 1.391 . S
C3647 H3635 0.950 . S
C3647 C3643 1.393 . S
C3647 C3646 1.391 . S
H3648 C3656 0.950 . S
H3649 C3661 0.950 . S
H3650 C3658 0.950 . S
H3651 C3660 0.950 . S
H3652 C3662 0.950 . S
H3653 C3664 0.950 . S
H3654 C3666 0.950 . S
H3655 C3667 0.950 . S
C3656 H3648 0.950 . S
C3656 C3657 1.386 . S
C3656 C3658 1.391 . S
C3657 C3656 1.386 . S
C3657 C3661 1.393 . S
C3658 H3650 0.950 . S
C3658 C3656 1.391 . S
C3658 C3659 1.400 . S
C3659 C3658 1.400 . S
C3659 C3660 1.398 . S
C3659 C3665 1.491 . S
C3660 H3651 0.950 . S
C3660 C3659 1.398 . S
C3660 C3661 1.391 . S
C3661 H3649 0.950 . S
C3661 C3657 1.393 . S
C3661 C3660 1.391 . S
C3662 H3652 0.950 . S
C3662 C3663 1.386 . S
C3662 C3664 1.391 . S
C3663 C3662 1.386 . S
C3663 C3667 1.393 . S
C3664 H3653 0.950 . S
C3664 C3662 1.391 . S
C3664 C3665 1.400 . S
C3665 C3659 1.491 . S
C3665 C3664 1.400 . S
C3665 C3666 1.398 . S
C3666 H3654 0.950 . S
C3666 C3665 1.398 . S
C3666 C3667 1.391 . S
C3667 H3655 0.950 . S
C3667 C3663 1.393 . S
C3667 C3666 1.391 . S
H3668 C3676 0.950 . S
H3669 C3681 0.950 . S
H3670 C3678 0.950 . S
H3671 C3680 0.950 . S
H3672 C3682 0.950 . S
H3673 C3684 0.950 . S
H3674 C3686 0.950 . S
H3675 C3687 0.950 . S
C3676 H3668 0.950 . S
C3676 C3677 1.386 . S
C3676 C3678 1.391 . S
C3677 C3676 1.386 . S
C3677 C3681 1.393 . S
C3678 H3670 0.950 . S
C3678 C3676 1.391 . S
C3678 C3679 1.400 . S
C3679 C3678 1.400 . S
C3679 C3680 1.398 . S
C3679 C3685 1.491 . S
C3680 H3671 0.950 . S
C3680 C3679 1.398 . S
C3680 C3681 1.391 . S
C3681 H3669 0.950 . S
C3681 C3677 1.393 . S
C3681 C3680 1.391 . S
C3682 H3672 0.950 . S
C3682 C3683 1.386 . S
C3682 C3684 1.391 . S
C3683 C3682 1.386 . S
C3683 C3687 1.393 . S
C3684 H3673 0.950 . S
C3684 C3682 1.391 . S
C3684 C3685 1.400 . S
C3685 C3679 1.491 . S
C3685 C3684 1.400 . S
C3685 C3686 1.398 . S
C3686 H3674 0.950 . S
C3686 C3685 1.398 . S
C3686 C3687 1.391 . S
C3687 H3675 0.950 . S
C3687 C3683 1.393 . S
C3687 C3686 1.391 . S
H3688 C3696 0.950 . S
H3689 C3701 0.950 . S
H3690 C3698 0.950 . S
H3691 C3700 0.950 . S
H3692 C3702 0.950 1_455 S
H3693 C3704 0.950 . S
H3694 C3706 0.950 . S
H3695 C3707 0.950 . S
C3696 H3688 0.950 . S
C3696 C3697 1.386 . S
C3696 C3698 1.391 . S
C3697 C3696 1.386 . S
C3697 C3701 1.393 . S
C3698 H3690 0.950 . S
C3698 C3696 1.391 . S
C3698 C3699 1.400 . S
C3699 C3698 1.400 . S
C3699 C3700 1.398 . S
C3699 C3705 1.491 . S
C3700 H3691 0.950 . S
C3700 C3699 1.398 . S
C3700 C3701 1.391 . S
C3701 H3689 0.950 . S
C3701 C3697 1.393 . S
C3701 C3700 1.391 . S
C3702 H3692 0.950 1_655 S
C3702 C3703 1.386 . S
C3702 C3704 1.391 . S
C3703 C3702 1.386 . S
C3703 C3707 1.393 . S
C3704 H3693 0.950 . S
C3704 C3702 1.391 . S
C3704 C3705 1.400 . S
C3705 C3699 1.491 . S
C3705 C3704 1.400 . S
C3705 C3706 1.398 . S
C3706 H3694 0.950 . S
C3706 C3705 1.398 . S
C3706 C3707 1.391 . S
C3707 H3695 0.950 . S
C3707 C3703 1.393 . S
C3707 C3706 1.391 . S
H3708 C3716 0.950 . S
H3709 C3721 0.950 . S
H3710 C3718 0.950 . S
H3711 C3720 0.950 . S
H3712 C3722 0.950 . S
H3713 C3724 0.950 . S
H3714 C3726 0.950 . S
H3715 C3727 0.950 . S
C3716 H3708 0.950 . S
C3716 C3717 1.386 . S
C3716 C3718 1.391 . S
C3717 C3716 1.386 . S
C3717 C3721 1.393 . S
C3718 H3710 0.950 . S
C3718 C3716 1.391 . S
C3718 C3719 1.400 . S
C3719 C3718 1.400 . S
C3719 C3720 1.398 . S
C3719 C3725 1.491 . S
C3720 H3711 0.950 . S
C3720 C3719 1.398 . S
C3720 C3721 1.391 . S
C3721 H3709 0.950 . S
C3721 C3717 1.393 . S
C3721 C3720 1.391 . S
C3722 H3712 0.950 . S
C3722 C3723 1.386 . S
C3722 C3724 1.391 . S
C3723 C3722 1.386 . S
C3723 C3727 1.393 . S
C3724 H3713 0.950 . S
C3724 C3722 1.391 . S
C3724 C3725 1.400 . S
C3725 C3719 1.491 . S
C3725 C3724 1.400 . S
C3725 C3726 1.398 . S
C3726 H3714 0.950 . S
C3726 C3725 1.398 . S
C3726 C3727 1.391 . S
C3727 H3715 0.950 . S
C3727 C3723 1.393 . S
C3727 C3726 1.391 . S
H3728 C3736 0.950 . S
H3729 C3741 0.950 . S
H3730 C3738 0.950 . S
H3731 C3740 0.950 . S
H3732 C3742 0.950 . S
H3733 C3744 0.950 . S
H3734 C3746 0.950 . S
H3735 C3747 0.950 . S
C3736 H3728 0.950 . S
C3736 C3737 1.386 . S
C3736 C3738 1.391 . S
C3737 C3736 1.386 . S
C3737 C3741 1.393 . S
C3738 H3730 0.950 . S
C3738 C3736 1.391 . S
C3738 C3739 1.400 . S
C3739 C3738 1.400 . S
C3739 C3740 1.398 . S
C3739 C3745 1.491 . S
C3740 H3731 0.950 . S
C3740 C3739 1.398 . S
C3740 C3741 1.391 . S
C3741 H3729 0.950 . S
C3741 C3737 1.393 . S
C3741 C3740 1.391 . S
C3742 H3732 0.950 . S
C3742 C3743 1.386 . S
C3742 C3744 1.391 . S
C3743 C3742 1.386 . S
C3743 C3747 1.393 . S
C3744 H3733 0.950 . S
C3744 C3742 1.391 . S
C3744 C3745 1.400 . S
C3745 C3739 1.491 . S
C3745 C3744 1.400 . S
C3745 C3746 1.398 . S
C3746 H3734 0.950 . S
C3746 C3745 1.398 . S
C3746 C3747 1.391 . S
C3747 H3735 0.950 . S
C3747 C3743 1.393 . S
C3747 C3746 1.391 . S
H3748 C3756 0.950 . S
H3749 C3761 0.950 . S
H3750 C3758 0.950 . S
H3751 C3760 0.950 . S
H3752 C3762 0.950 . S
H3753 C3764 0.950 . S
H3754 C3766 0.950 . S
H3755 C3767 0.950 . S
C3756 H3748 0.950 . S
C3756 C3757 1.386 . S
C3756 C3758 1.391 . S
C3757 C3756 1.386 . S
C3757 C3761 1.393 . S
C3758 H3750 0.950 . S
C3758 C3756 1.391 . S
C3758 C3759 1.400 . S
C3759 C3758 1.400 . S
C3759 C3760 1.398 . S
C3759 C3765 1.491 . S
C3760 H3751 0.950 . S
C3760 C3759 1.398 . S
C3760 C3761 1.391 . S
C3761 H3749 0.950 . S
C3761 C3757 1.393 . S
C3761 C3760 1.391 . S
C3762 H3752 0.950 . S
C3762 C3763 1.386 . S
C3762 C3764 1.391 . S
C3763 C3762 1.386 . S
C3763 C3767 1.393 . S
C3764 H3753 0.950 . S
C3764 C3762 1.391 . S
C3764 C3765 1.400 . S
C3765 C3759 1.491 . S
C3765 C3764 1.400 . S
C3765 C3766 1.398 . S
C3766 H3754 0.950 . S
C3766 C3765 1.398 . S
C3766 C3767 1.391 . S
C3767 H3755 0.950 . S
C3767 C3763 1.393 . S
C3767 C3766 1.391 . S
H3768 C3776 0.950 . S
H3769 C3781 0.950 . S
H3770 C3778 0.950 . S
H3771 C3780 0.950 . S
H3772 C3782 0.950 . S
H3773 C3784 0.950 . S
H3774 C3786 0.950 . S
H3775 C3787 0.950 . S
C3776 H3768 0.950 . S
C3776 C3777 1.386 . S
C3776 C3778 1.391 . S
C3777 C3776 1.386 . S
C3777 C3781 1.393 . S
C3778 H3770 0.950 . S
C3778 C3776 1.391 . S
C3778 C3779 1.400 . S
C3779 C3778 1.400 . S
C3779 C3780 1.398 . S
C3779 C3785 1.491 . S
C3780 H3771 0.950 . S
C3780 C3779 1.398 . S
C3780 C3781 1.391 . S
C3781 H3769 0.950 . S
C3781 C3777 1.393 . S
C3781 C3780 1.391 . S
C3782 H3772 0.950 . S
C3782 C3783 1.386 . S
C3782 C3784 1.391 . S
C3783 C3782 1.386 . S
C3783 C3787 1.393 . S
C3784 H3773 0.950 . S
C3784 C3782 1.391 . S
C3784 C3785 1.400 . S
C3785 C3779 1.491 . S
C3785 C3784 1.400 . S
C3785 C3786 1.398 . S
C3786 H3774 0.950 . S
C3786 C3785 1.398 . S
C3786 C3787 1.391 . S
C3787 H3775 0.950 . S
C3787 C3783 1.393 . S
C3787 C3786 1.391 . S
H3788 C3796 0.950 . S
H3789 C3801 0.950 . S
H3790 C3798 0.950 . S
H3791 C3800 0.950 . S
H3792 C3802 0.950 . S
H3793 C3804 0.950 . S
H3794 C3806 0.950 . S
H3795 C3807 0.950 . S
C3796 H3788 0.950 . S
C3796 C3797 1.386 1_556 S
C3796 C3798 1.391 . S
C3797 C3796 1.386 1_554 S
C3797 C3801 1.393 . S
C3798 H3790 0.950 . S
C3798 C3796 1.391 . S
C3798 C3799 1.400 1_556 S
C3799 C3798 1.400 1_554 S
C3799 C3800 1.398 . S
C3799 C3805 1.491 . S
C3800 H3791 0.950 . S
C3800 C3799 1.398 . S
C3800 C3801 1.391 . S
C3801 H3789 0.950 . S
C3801 C3797 1.393 . S
C3801 C3800 1.391 . S
C3802 H3792 0.950 . S
C3802 C3803 1.386 . S
C3802 C3804 1.391 . S
C3803 C3802 1.386 . S
C3803 C3807 1.393 1_554 S
C3804 H3793 0.950 . S
C3804 C3802 1.391 . S
C3804 C3805 1.400 . S
C3805 C3799 1.491 . S
C3805 C3804 1.400 . S
C3805 C3806 1.398 1_554 S
C3806 H3794 0.950 . S
C3806 C3805 1.398 1_556 S
C3806 C3807 1.391 . S
C3807 H3795 0.950 . S
C3807 C3803 1.393 1_556 S
C3807 C3806 1.391 . S
H3808 C3816 0.950 . S
H3809 C3821 0.950 . S
H3810 C3818 0.950 . S
H3811 C3820 0.950 . S
H3812 C3822 0.950 . S
H3813 C3824 0.950 . S
H3814 C3826 0.950 . S
H3815 C3827 0.950 . S
C3816 H3808 0.950 . S
C3816 C3817 1.386 . S
C3816 C3818 1.391 . S
C3817 C3816 1.386 . S
C3817 C3821 1.393 . S
C3818 H3810 0.950 . S
C3818 C3816 1.391 . S
C3818 C3819 1.400 . S
C3819 C3818 1.400 . S
C3819 C3820 1.398 . S
C3819 C3825 1.491 . S
C3820 H3811 0.950 . S
C3820 C3819 1.398 . S
C3820 C3821 1.391 . S
C3821 H3809 0.950 . S
C3821 C3817 1.393 . S
C3821 C3820 1.391 . S
C3822 H3812 0.950 . S
C3822 C3823 1.386 . S
C3822 C3824 1.391 . S
C3823 C3822 1.386 . S
C3823 C3827 1.393 . S
C3824 H3813 0.950 . S
C3824 C3822 1.391 . S
C3824 C3825 1.400 . S
C3825 C3819 1.491 . S
C3825 C3824 1.400 . S
C3825 C3826 1.398 . S
C3826 H3814 0.950 . S
C3826 C3825 1.398 . S
C3826 C3827 1.391 . S
C3827 H3815 0.950 . S
C3827 C3823 1.393 . S
C3827 C3826 1.391 . S
H3828 C3836 0.950 . S
H3829 C3841 0.956 . S
H3830 C3838 0.950 . S
H3831 C3840 0.948 1_556 S
H3832 C3842 0.950 . S
H3833 C3844 0.950 . S
H3834 C3846 0.950 . S
H3835 C3847 0.954 . S
C3836 H3828 0.950 . S
C3836 C3837 1.386 . S
C3836 C3838 1.391 . S
C3837 C3836 1.386 . S
C3837 C3841 1.393 . S
C3838 H3830 0.950 . S
C3838 C3836 1.391 . S
C3838 C3839 1.400 . S
C3839 C3838 1.400 . S
C3839 C3840 1.398 . S
C3839 C3845 1.493 . S
C3840 H3831 0.948 1_554 S
C3840 C3839 1.398 . S
C3840 C3841 1.391 . S
C3841 H3829 0.956 . S
C3841 C3837 1.393 . S
C3841 C3840 1.391 . S
C3842 H3832 0.950 . S
C3842 C3843 1.386 . S
C3842 C3844 1.391 . S
C3843 C3842 1.386 . S
C3843 C3847 1.388 1_556 S
C3844 H3833 0.950 . S
C3844 C3842 1.391 . S
C3844 C3845 1.397 1_556 S
C3845 C3839 1.493 . S
C3845 C3844 1.397 1_554 S
C3845 C3846 1.400 . S
C3846 H3834 0.950 . S
C3846 C3845 1.400 . S
C3846 C3847 1.393 . S
C3847 H3835 0.954 . S
C3847 C3843 1.388 1_554 S
C3847 C3846 1.393 . S
H3848 C3856 0.950 . S
H3849 C3861 0.950 . S
H3850 C3858 0.950 . S
H3851 C3860 0.950 . S
H3852 C3862 0.950 . S
H3853 C3864 0.950 . S
H3854 C3866 0.950 . S
H3855 C3867 0.950 . S
C3856 H3848 0.950 . S
C3856 C3857 1.386 . S
C3856 C3858 1.391 . S
C3857 C3856 1.386 . S
C3857 C3861 1.393 . S
C3858 H3850 0.950 . S
C3858 C3856 1.391 . S
C3858 C3859 1.400 . S
C3859 C3858 1.400 . S
C3859 C3860 1.398 . S
C3859 C3865 1.491 . S
C3860 H3851 0.950 . S
C3860 C3859 1.398 . S
C3860 C3861 1.391 . S
C3861 H3849 0.950 . S
C3861 C3857 1.393 . S
C3861 C3860 1.391 . S
C3862 H3852 0.950 . S
C3862 C3863 1.386 . S
C3862 C3864 1.391 . S
C3863 C3862 1.386 . S
C3863 C3867 1.393 . S
C3864 H3853 0.950 . S
C3864 C3862 1.391 . S
C3864 C3865 1.400 . S
C3865 C3859 1.491 . S
C3865 C3864 1.400 . S
C3865 C3866 1.398 . S
C3866 H3854 0.950 . S
C3866 C3865 1.398 . S
C3866 C3867 1.391 . S
C3867 H3855 0.950 . S
C3867 C3863 1.393 . S
C3867 C3866 1.391 . S
H3868 C3876 0.950 . S
H3869 C3881 0.950 . S
H3870 C3878 0.950 . S
H3871 C3880 0.950 . S
H3872 C3882 0.950 . S
H3873 C3884 0.950 . S
H3874 C3886 0.950 . S
H3875 C3887 0.950 . S
C3876 H3868 0.950 . S
C3876 C3877 1.386 . S
C3876 C3878 1.391 . S
C3877 C3876 1.386 . S
C3877 C3881 1.393 . S
C3878 H3870 0.950 . S
C3878 C3876 1.391 . S
C3878 C3879 1.400 . S
C3879 C3878 1.400 . S
C3879 C3880 1.398 . S
C3879 C3885 1.491 . S
C3880 H3871 0.950 . S
C3880 C3879 1.398 . S
C3880 C3881 1.391 . S
C3881 H3869 0.950 . S
C3881 C3877 1.393 . S
C3881 C3880 1.391 . S
C3882 H3872 0.950 . S
C3882 C3883 1.386 . S
C3882 C3884 1.391 . S
C3883 C3882 1.386 . S
C3883 C3887 1.393 . S
C3884 H3873 0.950 . S
C3884 C3882 1.391 . S
C3884 C3885 1.400 . S
C3885 C3879 1.491 . S
C3885 C3884 1.400 . S
C3885 C3886 1.398 . S
C3886 H3874 0.950 . S
C3886 C3885 1.398 . S
C3886 C3887 1.391 . S
C3887 H3875 0.950 . S
C3887 C3883 1.393 . S
C3887 C3886 1.391 . S
H3888 C3896 0.950 . S
H3889 C3901 0.950 . S
H3890 C3898 0.950 . S
H3891 C3900 0.950 . S
H3892 C3902 0.950 . S
H3893 C3904 0.950 . S
H3894 C3906 0.950 . S
H3895 C3907 0.950 . S
C3896 H3888 0.950 . S
C3896 C3897 1.386 . S
C3896 C3898 1.391 . S
C3897 C3896 1.386 . S
C3897 C3901 1.393 . S
C3898 H3890 0.950 . S
C3898 C3896 1.391 . S
C3898 C3899 1.400 . S
C3899 C3898 1.400 . S
C3899 C3900 1.398 . S
C3899 C3905 1.491 . S
C3900 H3891 0.950 . S
C3900 C3899 1.398 . S
C3900 C3901 1.391 . S
C3901 H3889 0.950 . S
C3901 C3897 1.393 . S
C3901 C3900 1.391 . S
C3902 H3892 0.950 . S
C3902 C3903 1.386 . S
C3902 C3904 1.391 . S
C3903 C3902 1.386 . S
C3903 C3907 1.393 . S
C3904 H3893 0.950 . S
C3904 C3902 1.391 . S
C3904 C3905 1.400 . S
C3905 C3899 1.491 . S
C3905 C3904 1.400 . S
C3905 C3906 1.398 . S
C3906 H3894 0.950 . S
C3906 C3905 1.398 . S
C3906 C3907 1.391 . S
C3907 H3895 0.950 . S
C3907 C3903 1.393 . S
C3907 C3906 1.391 . S
H3908 C3916 0.950 . S
H3909 C3921 0.950 . S
H3910 C3918 0.950 . S
H3911 C3920 0.950 . S
H3912 C3922 0.950 . S
H3913 C3924 0.950 . S
H3914 C3926 0.950 . S
H3915 C3927 0.950 . S
C3916 H3908 0.950 . S
C3916 C3917 1.386 . S
C3916 C3918 1.391 . S
C3917 C3916 1.386 . S
C3917 C3921 1.393 . S
C3918 H3910 0.950 . S
C3918 C3916 1.391 . S
C3918 C3919 1.400 . S
C3919 C3918 1.400 . S
C3919 C3920 1.398 . S
C3919 C3925 1.491 . S
C3920 H3911 0.950 . S
C3920 C3919 1.398 . S
C3920 C3921 1.391 . S
C3921 H3909 0.950 . S
C3921 C3917 1.393 . S
C3921 C3920 1.391 . S
C3922 H3912 0.950 . S
C3922 C3923 1.386 . S
C3922 C3924 1.391 . S
C3923 C3922 1.386 . S
C3923 C3927 1.393 . S
C3924 H3913 0.950 . S
C3924 C3922 1.391 . S
C3924 C3925 1.400 . S
C3925 C3919 1.491 . S
C3925 C3924 1.400 . S
C3925 C3926 1.398 . S
C3926 H3914 0.950 . S
C3926 C3925 1.398 . S
C3926 C3927 1.391 . S
C3927 H3915 0.950 . S
C3927 C3923 1.393 . S
C3927 C3926 1.391 . S
H3928 C3936 0.950 . S
H3929 C3941 0.950 . S
H3930 C3938 0.950 . S
H3931 C3940 0.950 . S
H3932 C3942 0.950 . S
H3933 C3944 0.950 . S
H3934 C3946 0.950 . S
H3935 C3947 0.950 . S
C3936 H3928 0.950 . S
C3936 C3937 1.386 . S
C3936 C3938 1.391 . S
C3937 C3936 1.386 . S
C3937 C3941 1.393 1_455 S
C3938 H3930 0.950 . S
C3938 C3936 1.391 . S
C3938 C3939 1.400 . S
C3939 C3938 1.400 . S
C3939 C3940 1.398 1_455 S
C3939 C3945 1.491 . S
C3940 H3931 0.950 . S
C3940 C3939 1.398 1_655 S
C3940 C3941 1.391 . S
C3941 H3929 0.950 . S
C3941 C3937 1.393 1_655 S
C3941 C3940 1.391 . S
C3942 H3932 0.950 . S
C3942 C3943 1.386 . S
C3942 C3944 1.391 . S
C3943 C3942 1.386 . S
C3943 C3947 1.393 1_655 S
C3944 H3933 0.950 . S
C3944 C3942 1.391 . S
C3944 C3945 1.400 1_655 S
C3945 C3939 1.491 . S
C3945 C3944 1.400 1_455 S
C3945 C3946 1.398 . S
C3946 H3934 0.950 . S
C3946 C3945 1.398 . S
C3946 C3947 1.391 . S
C3947 H3935 0.950 . S
C3947 C3943 1.393 1_455 S
C3947 C3946 1.391 . S
H3948 C3956 0.950 . S
H3949 C3961 0.950 . S
H3950 C3958 0.950 . S
H3951 C3960 0.950 . S
H3952 C3962 0.950 . S
H3953 C3964 0.950 . S
H3954 C3966 0.950 . S
H3955 C3967 0.950 . S
C3956 H3948 0.950 . S
C3956 C3957 1.386 . S
C3956 C3958 1.391 . S
C3957 C3956 1.386 . S
C3957 C3961 1.393 . S
C3958 H3950 0.950 . S
C3958 C3956 1.391 . S
C3958 C3959 1.400 . S
C3959 C3958 1.400 . S
C3959 C3960 1.398 . S
C3959 C3965 1.491 . S
C3960 H3951 0.950 . S
C3960 C3959 1.398 . S
C3960 C3961 1.391 . S
C3961 H3949 0.950 . S
C3961 C3957 1.393 . S
C3961 C3960 1.391 . S
C3962 H3952 0.950 . S
C3962 C3963 1.386 . S
C3962 C3964 1.391 . S
C3963 C3962 1.386 . S
C3963 C3967 1.393 . S
C3964 H3953 0.950 . S
C3964 C3962 1.391 . S
C3964 C3965 1.400 . S
C3965 C3959 1.491 . S
C3965 C3964 1.400 . S
C3965 C3966 1.398 . S
C3966 H3954 0.950 . S
C3966 C3965 1.398 . S
C3966 C3967 1.391 . S
C3967 H3955 0.950 . S
C3967 C3963 1.393 . S
C3967 C3966 1.391 . S
H3968 C3976 0.950 . S
H3969 C3981 0.950 . S
H3970 C3978 0.950 . S
H3971 C3980 0.950 . S
H3972 C3982 0.950 . S
H3973 C3984 0.950 . S
H3974 C3986 0.950 . S
H3975 C3987 0.950 . S
C3976 H3968 0.950 . S
C3976 C3977 1.386 . S
C3976 C3978 1.391 . S
C3977 C3976 1.386 . S
C3977 C3981 1.393 . S
C3978 H3970 0.950 . S
C3978 C3976 1.391 . S
C3978 C3979 1.400 . S
C3979 C3978 1.400 . S
C3979 C3980 1.398 . S
C3979 C3985 1.491 . S
C3980 H3971 0.950 . S
C3980 C3979 1.398 . S
C3980 C3981 1.391 . S
C3981 H3969 0.950 . S
C3981 C3977 1.393 . S
C3981 C3980 1.391 . S
C3982 H3972 0.950 . S
C3982 C3983 1.386 . S
C3982 C3984 1.391 . S
C3983 C3982 1.386 . S
C3983 C3987 1.393 . S
C3984 H3973 0.950 . S
C3984 C3982 1.391 . S
C3984 C3985 1.400 . S
C3985 C3979 1.491 . S
C3985 C3984 1.400 . S
C3985 C3986 1.398 . S
C3986 H3974 0.950 . S
C3986 C3985 1.398 . S
C3986 C3987 1.391 . S
C3987 H3975 0.950 . S
C3987 C3983 1.393 . S
C3987 C3986 1.391 . S
H3988 C3996 0.950 . S
H3989 C4001 0.950 . S
H3990 C3998 0.950 . S
H3991 C4000 0.950 . S
H3992 C4002 0.950 . S
H3993 C4004 0.950 . S
H3994 C4006 0.950 . S
H3995 C4007 0.950 . S
C3996 H3988 0.950 . S
C3996 C3997 1.386 . S
C3996 C3998 1.391 . S
C3997 C3996 1.386 . S
C3997 C4001 1.393 . S
C3998 H3990 0.950 . S
C3998 C3996 1.391 . S
C3998 C3999 1.400 . S
C3999 C3998 1.400 . S
C3999 C4000 1.398 . S
C3999 C4005 1.491 . S
C4000 H3991 0.950 . S
C4000 C3999 1.398 . S
C4000 C4001 1.391 . S
C4001 H3989 0.950 . S
C4001 C3997 1.393 . S
C4001 C4000 1.391 . S
C4002 H3992 0.950 . S
C4002 C4003 1.386 . S
C4002 C4004 1.391 . S
C4003 C4002 1.386 . S
C4003 C4007 1.393 . S
C4004 H3993 0.950 . S
C4004 C4002 1.391 . S
C4004 C4005 1.400 . S
C4005 C3999 1.491 . S
C4005 C4004 1.400 . S
C4005 C4006 1.398 . S
C4006 H3994 0.950 . S
C4006 C4005 1.398 . S
C4006 C4007 1.391 . S
C4007 H3995 0.950 . S
C4007 C4003 1.393 . S
C4007 C4006 1.391 . S
H4008 C4016 0.950 . S
H4009 C4021 0.950 . S
H4010 C4018 0.950 . S
H4011 C4020 0.950 . S
H4012 C4022 0.950 . S
H4013 C4024 0.950 . S
H4014 C4026 0.950 . S
H4015 C4027 0.950 . S
C4016 H4008 0.950 . S
C4016 C4017 1.386 1_655 S
C4016 C4018 1.391 . S
C4017 C4016 1.386 1_455 S
C4017 C4021 1.393 . S
C4018 H4010 0.950 . S
C4018 C4016 1.391 . S
C4018 C4019 1.400 1_655 S
C4019 C4018 1.400 1_455 S
C4019 C4020 1.398 . S
C4019 C4025 1.490 1_455 S
C4020 H4011 0.950 . S
C4020 C4019 1.398 . S
C4020 C4021 1.391 . S
C4021 H4009 0.950 . S
C4021 C4017 1.393 . S
C4021 C4020 1.391 . S
C4022 H4012 0.950 . S
C4022 C4023 1.386 1_455 S
C4022 C4024 1.391 . S
C4023 C4022 1.386 1_655 S
C4023 C4027 1.393 . S
C4024 H4013 0.950 . S
C4024 C4022 1.391 . S
C4024 C4025 1.398 1_455 S
C4025 C4019 1.490 1_655 S
C4025 C4024 1.398 1_655 S
C4025 C4026 1.401 . S
C4026 H4014 0.950 . S
C4026 C4025 1.401 . S
C4026 C4027 1.391 . S
C4027 H4015 0.950 . S
C4027 C4023 1.393 . S
C4027 C4026 1.391 . S
H4028 C4036 0.950 . S
H4029 C4041 0.950 . S
H4030 C4038 0.950 . S
H4031 C4040 0.950 . S
H4032 C4042 0.950 . S
H4033 C4044 0.950 . S
H4034 C4046 0.950 . S
H4035 C4047 0.950 . S
C4036 H4028 0.950 . S
C4036 C4037 1.386 . S
C4036 C4038 1.391 . S
C4037 C4036 1.386 . S
C4037 C4041 1.393 . S
C4038 H4030 0.950 . S
C4038 C4036 1.391 . S
C4038 C4039 1.400 . S
C4039 C4038 1.400 . S
C4039 C4040 1.398 . S
C4039 C4045 1.491 . S
C4040 H4031 0.950 . S
C4040 C4039 1.398 . S
C4040 C4041 1.391 . S
C4041 H4029 0.950 . S
C4041 C4037 1.393 . S
C4041 C4040 1.391 . S
C4042 H4032 0.950 . S
C4042 C4043 1.386 . S
C4042 C4044 1.391 . S
C4043 C4042 1.386 . S
C4043 C4047 1.393 . S
C4044 H4033 0.950 . S
C4044 C4042 1.391 . S
C4044 C4045 1.400 . S
C4045 C4039 1.491 . S
C4045 C4044 1.400 . S
C4045 C4046 1.398 . S
C4046 H4034 0.950 . S
C4046 C4045 1.398 . S
C4046 C4047 1.391 . S
C4047 H4035 0.950 . S
C4047 C4043 1.393 . S
C4047 C4046 1.391 . S
H4048 C4056 0.950 . S
H4049 C4061 0.950 . S
H4050 C4058 0.950 . S
H4051 C4060 0.950 . S
H4052 C4062 0.950 . S
H4053 C4064 0.950 . S
H4054 C4066 0.950 . S
H4055 C4067 0.950 . S
C4056 H4048 0.950 . S
C4056 C4057 1.386 . S
C4056 C4058 1.391 . S
C4057 C4056 1.386 . S
C4057 C4061 1.393 . S
C4058 H4050 0.950 . S
C4058 C4056 1.391 . S
C4058 C4059 1.400 . S
C4059 C4058 1.400 . S
C4059 C4060 1.398 . S
C4059 C4065 1.491 . S
C4060 H4051 0.950 . S
C4060 C4059 1.398 . S
C4060 C4061 1.391 . S
C4061 H4049 0.950 . S
C4061 C4057 1.393 . S
C4061 C4060 1.391 . S
C4062 H4052 0.950 . S
C4062 C4063 1.386 . S
C4062 C4064 1.391 . S
C4063 C4062 1.386 . S
C4063 C4067 1.393 . S
C4064 H4053 0.950 . S
C4064 C4062 1.391 . S
C4064 C4065 1.400 . S
C4065 C4059 1.491 . S
C4065 C4064 1.400 . S
C4065 C4066 1.398 . S
C4066 H4054 0.950 . S
C4066 C4065 1.398 . S
C4066 C4067 1.391 . S
C4067 H4055 0.950 . S
C4067 C4063 1.393 . S
C4067 C4066 1.391 . S
H4068 C4076 0.950 . S
H4069 C4081 0.950 . S
H4070 C4078 0.950 . S
H4071 C4080 0.950 . S
H4072 C4082 0.950 . S
H4073 C4084 0.950 . S
H4074 C4086 0.950 . S
H4075 C4087 0.950 . S
C4076 H4068 0.950 . S
C4076 C4077 1.386 . S
C4076 C4078 1.391 . S
C4077 C4076 1.386 . S
C4077 C4081 1.393 . S
C4078 H4070 0.950 . S
C4078 C4076 1.391 . S
C4078 C4079 1.400 . S
C4079 C4078 1.400 . S
C4079 C4080 1.398 . S
C4079 C4085 1.491 . S
C4080 H4071 0.950 . S
C4080 C4079 1.398 . S
C4080 C4081 1.391 . S
C4081 H4069 0.950 . S
C4081 C4077 1.393 . S
C4081 C4080 1.391 . S
C4082 H4072 0.950 . S
C4082 C4083 1.386 . S
C4082 C4084 1.391 . S
C4083 C4082 1.386 . S
C4083 C4087 1.393 . S
C4084 H4073 0.950 . S
C4084 C4082 1.391 . S
C4084 C4085 1.400 . S
C4085 C4079 1.491 . S
C4085 C4084 1.400 . S
C4085 C4086 1.398 . S
C4086 H4074 0.950 . S
C4086 C4085 1.398 . S
C4086 C4087 1.391 . S
C4087 H4075 0.950 . S
C4087 C4083 1.393 . S
C4087 C4086 1.391 . S
H4088 C4096 0.950 . S
H4089 C4101 0.950 . S
H4090 C4098 0.950 . S
H4091 C4100 0.950 . S
H4092 C4102 0.950 . S
H4093 C4104 0.950 . S
H4094 C4106 0.950 . S
H4095 C4107 0.950 . S
C4096 H4088 0.950 . S
C4096 C4097 1.386 . S
C4096 C4098 1.391 . S
C4097 C4096 1.386 . S
C4097 C4101 1.393 . S
C4098 H4090 0.950 . S
C4098 C4096 1.391 . S
C4098 C4099 1.400 . S
C4099 C4098 1.400 . S
C4099 C4100 1.398 . S
C4099 C4105 1.491 . S
C4100 H4091 0.950 . S
C4100 C4099 1.398 . S
C4100 C4101 1.391 . S
C4101 H4089 0.950 . S
C4101 C4097 1.393 . S
C4101 C4100 1.391 . S
C4102 H4092 0.950 . S
C4102 C4103 1.386 . S
C4102 C4104 1.391 . S
C4103 C4102 1.386 . S
C4103 C4107 1.393 . S
C4104 H4093 0.950 . S
C4104 C4102 1.391 . S
C4104 C4105 1.400 . S
C4105 C4099 1.491 . S
C4105 C4104 1.400 . S
C4105 C4106 1.398 . S
C4106 H4094 0.950 . S
C4106 C4105 1.398 . S
C4106 C4107 1.391 . S
C4107 H4095 0.950 . S
C4107 C4103 1.393 . S
C4107 C4106 1.391 . S
H4108 C4116 0.950 . S
H4109 C4121 0.950 . S
H4110 C4118 0.950 . S
H4111 C4120 0.950 . S
H4112 C4122 0.950 . S
H4113 C4124 0.950 . S
H4114 C4126 0.950 . S
H4115 C4127 0.950 . S
C4116 H4108 0.950 . S
C4116 C4117 1.386 . S
C4116 C4118 1.391 . S
C4117 C4116 1.386 . S
C4117 C4121 1.393 . S
C4118 H4110 0.950 . S
C4118 C4116 1.391 . S
C4118 C4119 1.400 . S
C4119 C4118 1.400 . S
C4119 C4120 1.398 . S
C4119 C4125 1.491 . S
C4120 H4111 0.950 . S
C4120 C4119 1.398 . S
C4120 C4121 1.391 . S
C4121 H4109 0.950 . S
C4121 C4117 1.393 . S
C4121 C4120 1.391 . S
C4122 H4112 0.950 . S
C4122 C4123 1.386 . S
C4122 C4124 1.391 . S
C4123 C4122 1.386 . S
C4123 C4127 1.393 . S
C4124 H4113 0.950 . S
C4124 C4122 1.391 . S
C4124 C4125 1.400 . S
C4125 C4119 1.491 . S
C4125 C4124 1.400 . S
C4125 C4126 1.398 . S
C4126 H4114 0.950 . S
C4126 C4125 1.398 . S
C4126 C4127 1.391 . S
C4127 H4115 0.950 . S
C4127 C4123 1.393 . S
C4127 C4126 1.391 . S
H4128 C4136 0.950 . S
H4129 C4141 0.950 . S
H4130 C4138 0.950 . S
H4131 C4140 0.950 . S
H4132 C4142 0.950 . S
H4133 C4144 0.950 . S
H4134 C4146 0.950 . S
H4135 C4147 0.950 . S
C4136 H4128 0.950 . S
C4136 C4137 1.386 . S
C4136 C4138 1.391 . S
C4137 C4136 1.386 . S
C4137 C4141 1.393 . S
C4138 H4130 0.950 . S
C4138 C4136 1.391 . S
C4138 C4139 1.400 . S
C4139 C4138 1.400 . S
C4139 C4140 1.398 . S
C4139 C4145 1.491 . S
C4140 H4131 0.950 . S
C4140 C4139 1.398 . S
C4140 C4141 1.391 . S
C4141 H4129 0.950 . S
C4141 C4137 1.393 . S
C4141 C4140 1.391 . S
C4142 H4132 0.950 . S
C4142 C4143 1.386 . S
C4142 C4144 1.391 . S
C4143 C4142 1.386 . S
C4143 C4147 1.393 . S
C4144 H4133 0.950 . S
C4144 C4142 1.391 . S
C4144 C4145 1.400 . S
C4145 C4139 1.491 . S
C4145 C4144 1.400 . S
C4145 C4146 1.398 . S
C4146 H4134 0.950 . S
C4146 C4145 1.398 . S
C4146 C4147 1.391 . S
C4147 H4135 0.950 . S
C4147 C4143 1.393 . S
C4147 C4146 1.391 . S
H4148 C4156 0.950 . S
H4149 C4161 0.950 . S
H4150 C4158 0.950 . S
H4151 C4160 0.950 . S
H4152 C4162 0.950 . S
H4153 C4164 0.950 . S
H4154 C4166 0.950 . S
H4155 C4167 0.950 . S
C4156 H4148 0.950 . S
C4156 C4157 1.386 . S
C4156 C4158 1.391 . S
C4157 C4156 1.386 . S
C4157 C4161 1.393 . S
C4158 H4150 0.950 . S
C4158 C4156 1.391 . S
C4158 C4159 1.400 . S
C4159 C4158 1.400 . S
C4159 C4160 1.398 . S
C4159 C4165 1.491 . S
C4160 H4151 0.950 . S
C4160 C4159 1.398 . S
C4160 C4161 1.391 . S
C4161 H4149 0.950 . S
C4161 C4157 1.393 . S
C4161 C4160 1.391 . S
C4162 H4152 0.950 . S
C4162 C4163 1.386 . S
C4162 C4164 1.391 . S
C4163 C4162 1.386 . S
C4163 C4167 1.393 . S
C4164 H4153 0.950 . S
C4164 C4162 1.391 . S
C4164 C4165 1.400 . S
C4165 C4159 1.491 . S
C4165 C4164 1.400 . S
C4165 C4166 1.398 . S
C4166 H4154 0.950 . S
C4166 C4165 1.398 . S
C4166 C4167 1.391 . S
C4167 H4155 0.950 . S
C4167 C4163 1.393 . S
C4167 C4166 1.391 . S
H4168 C4176 0.950 . S
H4169 C4181 0.950 . S
H4170 C4178 0.950 . S
H4171 C4180 0.950 . S
H4172 C4182 0.950 . S
H4173 C4184 0.950 . S
H4174 C4186 0.950 . S
H4175 C4187 0.950 . S
C4176 H4168 0.950 . S
C4176 C4177 1.386 . S
C4176 C4178 1.391 . S
C4177 C4176 1.386 . S
C4177 C4181 1.393 . S
C4178 H4170 0.950 . S
C4178 C4176 1.391 . S
C4178 C4179 1.400 . S
C4179 C4178 1.400 . S
C4179 C4180 1.398 . S
C4179 C4185 1.491 . S
C4180 H4171 0.950 . S
C4180 C4179 1.398 . S
C4180 C4181 1.391 . S
C4181 H4169 0.950 . S
C4181 C4177 1.393 . S
C4181 C4180 1.391 . S
C4182 H4172 0.950 . S
C4182 C4183 1.386 . S
C4182 C4184 1.391 . S
C4183 C4182 1.386 . S
C4183 C4187 1.393 . S
C4184 H4173 0.950 . S
C4184 C4182 1.391 . S
C4184 C4185 1.400 . S
C4185 C4179 1.491 . S
C4185 C4184 1.400 . S
C4185 C4186 1.398 . S
C4186 H4174 0.950 . S
C4186 C4185 1.398 . S
C4186 C4187 1.391 . S
C4187 H4175 0.950 . S
C4187 C4183 1.393 . S
C4187 C4186 1.391 . S
H4188 C4196 0.950 . S
H4189 C4201 0.950 . S
H4190 C4198 0.950 . S
H4191 C4200 0.950 . S
H4192 C4202 0.950 . S
H4193 C4204 0.950 . S
H4194 C4206 0.950 . S
H4195 C4207 0.950 . S
C4196 H4188 0.950 . S
C4196 C4197 1.386 . S
C4196 C4198 1.391 . S
C4197 C4196 1.386 . S
C4197 C4201 1.393 . S
C4198 H4190 0.950 . S
C4198 C4196 1.391 . S
C4198 C4199 1.400 . S
C4199 C4198 1.400 . S
C4199 C4200 1.398 . S
C4199 C4205 1.491 . S
C4200 H4191 0.950 . S
C4200 C4199 1.398 . S
C4200 C4201 1.391 . S
C4201 H4189 0.950 . S
C4201 C4197 1.393 . S
C4201 C4200 1.391 . S
C4202 H4192 0.950 . S
C4202 C4203 1.386 . S
C4202 C4204 1.391 . S
C4203 C4202 1.386 . S
C4203 C4207 1.393 . S
C4204 H4193 0.950 . S
C4204 C4202 1.391 . S
C4204 C4205 1.400 . S
C4205 C4199 1.491 . S
C4205 C4204 1.400 . S
C4205 C4206 1.398 . S
C4206 H4194 0.950 . S
C4206 C4205 1.398 . S
C4206 C4207 1.391 . S
C4207 H4195 0.950 . S
C4207 C4203 1.393 . S
C4207 C4206 1.391 . S
H4208 C4216 0.950 . S
H4209 C4221 0.950 . S
H4210 C4218 0.950 . S
H4211 C4220 0.950 . S
H4212 C4222 0.950 . S
H4213 C4224 0.950 . S
H4214 C4226 0.950 . S
H4215 C4227 0.950 . S
C4216 H4208 0.950 . S
C4216 C4217 1.386 . S
C4216 C4218 1.391 . S
C4217 C4216 1.386 . S
C4217 C4221 1.393 . S
C4218 H4210 0.950 . S
C4218 C4216 1.391 . S
C4218 C4219 1.400 . S
C4219 C4218 1.400 . S
C4219 C4220 1.398 . S
C4219 C4225 1.491 . S
C4220 H4211 0.950 . S
C4220 C4219 1.398 . S
C4220 C4221 1.391 . S
C4221 H4209 0.950 . S
C4221 C4217 1.393 . S
C4221 C4220 1.391 . S
C4222 H4212 0.950 . S
C4222 C4223 1.386 . S
C4222 C4224 1.391 . S
C4223 C4222 1.386 . S
C4223 C4227 1.393 . S
C4224 H4213 0.950 . S
C4224 C4222 1.391 . S
C4224 C4225 1.400 . S
C4225 C4219 1.491 . S
C4225 C4224 1.400 . S
C4225 C4226 1.398 . S
C4226 H4214 0.950 . S
C4226 C4225 1.398 . S
C4226 C4227 1.391 . S
C4227 H4215 0.950 . S
C4227 C4223 1.393 . S
C4227 C4226 1.391 . S
H4228 C4236 0.950 . S
H4229 C4241 0.950 . S
H4230 C4238 0.950 . S
H4231 C4240 0.950 . S
H4232 C4242 0.950 . S
H4233 C4244 0.950 . S
H4234 C4246 0.950 . S
H4235 C4247 0.950 . S
C4236 H4228 0.950 . S
C4236 C4237 1.386 . S
C4236 C4238 1.391 . S
C4237 C4236 1.386 . S
C4237 C4241 1.393 . S
C4238 H4230 0.950 . S
C4238 C4236 1.391 . S
C4238 C4239 1.400 . S
C4239 C4238 1.400 . S
C4239 C4240 1.398 . S
C4239 C4245 1.491 . S
C4240 H4231 0.950 . S
C4240 C4239 1.398 . S
C4240 C4241 1.391 . S
C4241 H4229 0.950 . S
C4241 C4237 1.393 . S
C4241 C4240 1.391 . S
C4242 H4232 0.950 . S
C4242 C4243 1.386 . S
C4242 C4244 1.391 . S
C4243 C4242 1.386 . S
C4243 C4247 1.393 . S
C4244 H4233 0.950 . S
C4244 C4242 1.391 . S
C4244 C4245 1.400 . S
C4245 C4239 1.491 . S
C4245 C4244 1.400 . S
C4245 C4246 1.398 . S
C4246 H4234 0.950 . S
C4246 C4245 1.398 . S
C4246 C4247 1.391 . S
C4247 H4235 0.950 . S
C4247 C4243 1.393 . S
C4247 C4246 1.391 . S
H4248 C4256 0.950 . S
H4249 C4261 0.950 . S
H4250 C4258 0.950 . S
H4251 C4260 0.950 . S
H4252 C4262 0.950 . S
H4253 C4264 0.950 . S
H4254 C4266 0.950 . S
H4255 C4267 0.950 . S
C4256 H4248 0.950 . S
C4256 C4257 1.386 . S
C4256 C4258 1.391 . S
C4257 C4256 1.386 . S
C4257 C4261 1.393 . S
C4258 H4250 0.950 . S
C4258 C4256 1.391 . S
C4258 C4259 1.400 . S
C4259 C4258 1.400 . S
C4259 C4260 1.398 . S
C4259 C4265 1.491 . S
C4260 H4251 0.950 . S
C4260 C4259 1.398 . S
C4260 C4261 1.391 . S
C4261 H4249 0.950 . S
C4261 C4257 1.393 . S
C4261 C4260 1.391 . S
C4262 H4252 0.950 . S
C4262 C4263 1.386 . S
C4262 C4264 1.391 . S
C4263 C4262 1.386 . S
C4263 C4267 1.393 . S
C4264 H4253 0.950 . S
C4264 C4262 1.391 . S
C4264 C4265 1.400 . S
C4265 C4259 1.491 . S
C4265 C4264 1.400 . S
C4265 C4266 1.398 . S
C4266 H4254 0.950 . S
C4266 C4265 1.398 . S
C4266 C4267 1.391 . S
C4267 H4255 0.950 . S
C4267 C4263 1.393 . S
C4267 C4266 1.391 . S
H4268 C4276 0.950 . S
H4269 C4281 0.950 . S
H4270 C4278 0.950 . S
H4271 C4280 0.947 1_556 S
H4272 C4282 0.950 1_545 S
H4273 C4284 0.950 . S
H4274 C4286 0.950 . S
H4275 C4287 0.948 1_554 S
C4276 H4268 0.950 . S
C4276 C4277 1.386 . S
C4276 C4278 1.391 . S
C4277 C4276 1.386 . S
C4277 C4281 1.393 . S
C4278 H4270 0.950 . S
C4278 C4276 1.391 . S
C4278 C4279 1.400 . S
C4279 C4278 1.400 . S
C4279 C4280 1.398 . S
C4279 C4285 1.492 . S
C4280 H4271 0.947 1_554 S
C4280 C4279 1.398 . S
C4280 C4281 1.391 . S
C4281 H4269 0.950 . S
C4281 C4277 1.393 . S
C4281 C4280 1.391 . S
C4282 H4272 0.950 1_565 S
C4282 C4283 1.386 . S
C4282 C4284 1.391 . S
C4283 C4282 1.386 . S
C4283 C4287 1.396 . S
C4284 H4273 0.950 . S
C4284 C4282 1.391 . S
C4284 C4285 1.399 1_556 S
C4285 C4279 1.492 . S
C4285 C4284 1.399 1_554 S
C4285 C4286 1.399 . S
C4286 H4274 0.950 . S
C4286 C4285 1.399 . S
C4286 C4287 1.389 1_554 S
C4287 H4275 0.948 1_556 S
C4287 C4283 1.396 . S
C4287 C4286 1.389 1_556 S
H4288 C4296 0.950 . S
H4289 C4301 0.950 . S
H4290 C4298 0.950 . S
H4291 C4300 0.950 . S
H4292 C4302 0.950 . S
H4293 C4304 0.950 . S
H4294 C4306 0.950 . S
H4295 C4307 0.950 . S
C4296 H4288 0.950 . S
C4296 C4297 1.386 . S
C4296 C4298 1.391 . S
C4297 C4296 1.386 . S
C4297 C4301 1.393 . S
C4298 H4290 0.950 . S
C4298 C4296 1.391 . S
C4298 C4299 1.400 . S
C4299 C4298 1.400 . S
C4299 C4300 1.398 . S
C4299 C4305 1.491 . S
C4300 H4291 0.950 . S
C4300 C4299 1.398 . S
C4300 C4301 1.391 . S
C4301 H4289 0.950 . S
C4301 C4297 1.393 . S
C4301 C4300 1.391 . S
C4302 H4292 0.950 . S
C4302 C4303 1.386 . S
C4302 C4304 1.391 . S
C4303 C4302 1.386 . S
C4303 C4307 1.393 . S
C4304 H4293 0.950 . S
C4304 C4302 1.391 . S
C4304 C4305 1.400 . S
C4305 C4299 1.491 . S
C4305 C4304 1.400 . S
C4305 C4306 1.398 . S
C4306 H4294 0.950 . S
C4306 C4305 1.398 . S
C4306 C4307 1.391 . S
C4307 H4295 0.950 . S
C4307 C4303 1.393 . S
C4307 C4306 1.391 . S
H4308 C4316 0.950 . S
H4309 C4321 0.950 . S
H4310 C4318 0.950 . S
H4311 C4320 0.950 . S
H4312 C4322 0.950 . S
H4313 C4324 0.950 . S
H4314 C4326 0.950 . S
H4315 C4327 0.950 . S
C4316 H4308 0.950 . S
C4316 C4317 1.386 . S
C4316 C4318 1.391 . S
C4317 C4316 1.386 . S
C4317 C4321 1.393 1_554 S
C4318 H4310 0.950 . S
C4318 C4316 1.391 . S
C4318 C4319 1.400 . S
C4319 C4318 1.400 . S
C4319 C4320 1.398 1_554 S
C4319 C4325 1.491 . S
C4320 H4311 0.950 . S
C4320 C4319 1.398 1_556 S
C4320 C4321 1.391 . S
C4321 H4309 0.950 . S
C4321 C4317 1.393 1_556 S
C4321 C4320 1.391 . S
C4322 H4312 0.950 . S
C4322 C4323 1.386 1_556 S
C4322 C4324 1.391 . S
C4323 C4322 1.386 1_554 S
C4323 C4327 1.393 . S
C4324 H4313 0.950 . S
C4324 C4322 1.391 . S
C4324 C4325 1.400 1_556 S
C4325 C4319 1.491 . S
C4325 C4324 1.400 1_554 S
C4325 C4326 1.398 . S
C4326 H4314 0.950 . S
C4326 C4325 1.398 . S
C4326 C4327 1.391 . S
C4327 H4315 0.950 . S
C4327 C4323 1.393 . S
C4327 C4326 1.391 . S
H4328 C4336 0.950 . S
H4329 C4341 0.950 . S
H4330 C4338 0.950 . S
H4331 C4340 0.950 . S
H4332 C4342 0.950 . S
H4333 C4344 0.950 . S
H4334 C4346 0.950 . S
H4335 C4347 0.950 . S
C4336 H4328 0.950 . S
C4336 C4337 1.386 . S
C4336 C4338 1.391 . S
C4337 C4336 1.386 . S
C4337 C4341 1.393 . S
C4338 H4330 0.950 . S
C4338 C4336 1.391 . S
C4338 C4339 1.400 . S
C4339 C4338 1.400 . S
C4339 C4340 1.398 . S
C4339 C4345 1.491 . S
C4340 H4331 0.950 . S
C4340 C4339 1.398 . S
C4340 C4341 1.391 . S
C4341 H4329 0.950 . S
C4341 C4337 1.393 . S
C4341 C4340 1.391 . S
C4342 H4332 0.950 . S
C4342 C4343 1.386 . S
C4342 C4344 1.391 . S
C4343 C4342 1.386 . S
C4343 C4347 1.393 . S
C4344 H4333 0.950 . S
C4344 C4342 1.391 . S
C4344 C4345 1.400 . S
C4345 C4339 1.491 . S
C4345 C4344 1.400 . S
C4345 C4346 1.398 . S
C4346 H4334 0.950 . S
C4346 C4345 1.398 . S
C4346 C4347 1.391 . S
C4347 H4335 0.950 . S
C4347 C4343 1.393 . S
C4347 C4346 1.391 . S
H4348 C4356 0.950 . S
H4349 C4361 0.950 . S
H4350 C4358 0.950 . S
H4351 C4360 0.950 . S
H4352 C4362 0.950 . S
H4353 C4364 0.950 . S
H4354 C4366 0.950 . S
H4355 C4367 0.950 . S
C4356 H4348 0.950 . S
C4356 C4357 1.386 . S
C4356 C4358 1.391 . S
C4357 C4356 1.386 . S
C4357 C4361 1.393 . S
C4358 H4350 0.950 . S
C4358 C4356 1.391 . S
C4358 C4359 1.400 . S
C4359 C4358 1.400 . S
C4359 C4360 1.398 . S
C4359 C4365 1.491 . S
C4360 H4351 0.950 . S
C4360 C4359 1.398 . S
C4360 C4361 1.391 . S
C4361 H4349 0.950 . S
C4361 C4357 1.393 . S
C4361 C4360 1.391 . S
C4362 H4352 0.950 . S
C4362 C4363 1.386 . S
C4362 C4364 1.391 . S
C4363 C4362 1.386 . S
C4363 C4367 1.393 . S
C4364 H4353 0.950 . S
C4364 C4362 1.391 . S
C4364 C4365 1.400 . S
C4365 C4359 1.491 . S
C4365 C4364 1.400 . S
C4365 C4366 1.398 . S
C4366 H4354 0.950 . S
C4366 C4365 1.398 . S
C4366 C4367 1.391 . S
C4367 H4355 0.950 . S
C4367 C4363 1.393 . S
C4367 C4366 1.391 . S
C2463 C2127 1.146 . S
C2457 C49 1.211 . S
C2477 C137 1.085 . S
C2483 C2146 1.076 . S
C2497 C205 1.215 . S
C2503 C2169 1.140 . S
C2523 C2189 1.219 . S
C2517 C284 1.271 . S
C2537 C117 1.249 . S
C2543 C2210 1.216 . S
C2563 C2232 1.195 . S
C2557 C225 1.273 . S
C2583 C2254 1.048 . S
C2577 C321 1.064 . S
C2597 C29 1.206 . S
C2603 C2272 1.174 . S
C2617 C401 1.208 . S
C2623 C2128 1.170 . S
C2637 C497 1.273 . S
C2643 C2147 1.235 . S
C2663 C2170 1.082 . S
C2657 C585 1.081 . S
C2683 C2193 1.165 . S
C2677 C665 1.289 . S
C2697 C372 1.269 . S
C2703 C2214 1.188 . S
C2723 C2233 1.031 . S
C2717 C469 1.049 . S
C2743 C2255 1.212 . S
C2737 C557 1.267 . S
C2763 C2273 1.153 . S
C2757 C636 1.199 . S
C2783 C2129 1.177 1_556 S
C2777 C673 1.208 . S
C2803 C2296 1.048 . S
C2797 C724 1.041 . S
C2817 C821 1.237 . S
C2823 C2318 1.185 . S
C2843 C2337 1.158 . S
C2837 C909 1.280 . S
C2857 C381 1.211 . S
C2863 C2277 1.094 . S
C2883 C2171 1.215 . S
C2877 C489 1.266 . S
C2897 C849 1.068 . S
C2903 C2359 1.036 . S
C2923 C2382 1.093 . S
C2917 C1017 1.208 . S
C2937 C1085 1.196 . S
C2943 C2130 1.122 . S
C2963 C2381 1.169 . S
C2957 C1201 1.184 . S
C2977 C1289 1.323 . S
C2983 C2172 1.237 . S
C2997 C1349 1.119 . S
C3003 C2356 1.083 . S
C3023 C2212 1.076 . S
C3017 C1193 1.119 . S
C3043 C2319 1.200 . S
C3037 C1281 1.292 . S
C3063 C2252 1.209 . S
C3057 C1340 1.212 . S
C3083 C2402 1.291 . S
C3077 C1076 1.315 . S
C3103 C2126 1.290 . S
C3097 C1428 1.313 . S
C3117 C1516 1.143 . S
C3123 C2380 1.105 . S
C3143 C2168 1.162 1_545 S
C3137 C1604 1.186 . S
C3157 C1701 1.258 . S
C3163 C2361 1.138 . S
C3177 C1457 1.301 . S
C3183 C2211 1.183 . S
C3197 C1545 1.215 . S
C3203 C2315 1.198 . S
C3223 C2251 1.061 . S
C3217 C1633 1.111 . S
C3237 C1729 1.163 . S
C3243 C2401 1.109 . S
C3257 C1721 1.171 . S
C3263 C2125 1.130 . S
C3277 C1789 1.218 . S
C3283 C2294 1.195 . S
C3297 C1868 1.129 . S
C3303 C2230 1.100 . S
C3317 C1956 1.264 . S
C3323 C2340 1.162 . S
C3343 C2400 1.073 . S
C3337 C1437 1.193 . S
C3363 C2167 1.073 . S
C3357 C1553 1.129 . S
C3383 C2192 1.216 . S
C3377 C1897 1.210 . S
C3403 C2148 1.237 . S
C3397 C2081 1.327 . S
C3417 C233 1.210 . S
C3423 C2424 1.111 . S
C3443 C2377 1.083 . S
C3437 C313 1.081 . S
C3463 C2442 1.128 . S
C3457 C20 1.208 . S
C3477 C108 1.271 . S
C3483 C2360 1.219 . S
C3497 C293 1.238 . S
C3503 C2297 1.186 . S
C3523 C2316 1.152 . S
C3517 C57 1.271 . S
C3543 C2338 1.036 . S
C3537 C145 1.069 . S
C3563 C2398 1.185 . S
C3557 C196 1.202 . S
C3583 C2419 1.171 . S
C3577 C1025 1.208 . S
C3597 C761 1.267 . S
C3603 C2378 1.218 . S
C3617 C841 1.082 . S
C3623 C2443 1.077 . S
C3643 C2358 1.168 . S
C3637 C929 1.279 . S
C3663 C2295 1.150 . S
C3657 C997 1.271 . S
C3677 C733 1.046 . S
C3683 C2317 1.041 . S
C3703 C2339 1.218 . S
C3697 C812 1.269 . S
C3717 C900 1.194 . S
C3723 C2399 1.143 . S
C3743 C2420 1.150 . S
C3737 C937 1.197 . S
C3763 C2209 1.027 . S
C3757 C460 1.052 . S
C3783 C2234 1.217 . S
C3777 C548 1.250 . S
C3797 C645 1.279 . S
C3803 C2253 1.185 . S
C3823 C2403 1.089 . S
C3817 C988 1.214 . S
C3837 C753 1.273 . S
C3843 C2444 1.230 . S
C3863 C2188 1.044 . S
C3857 C577 1.063 . S
C3883 C2151 1.124 . S
C3877 C409 1.219 . S
C3897 C1261 1.203 . S
C3903 C2421 1.101 . S
C3923 C2150 1.179 . S
C3917 C1377 1.177 . S
C3943 C2445 1.238 . S
C3937 C1113 1.326 . S
C3957 C1173 1.122 . S
C3963 C2191 1.094 . S
C3977 C1369 1.116 . S
C3983 C2293 1.061 . S
C3997 C1105 1.300 . S
C4003 C2235 1.175 . S
C4017 C1164 1.213 . S
C4023 C2336 1.207 . S
C4037 C1252 1.314 . S
C4043 C2276 1.291 . S
C4063 C2423 1.299 . S
C4057 C2044 1.312 . S
C4077 C1780 1.134 . S
C4083 C2149 1.082 . S
C4103 C2441 1.179 . S
C4097 C1877 1.173 . S
C4117 C1965 1.260 . S
C4123 C2190 1.183 . S
C4137 C2073 1.289 . S
C4143 C2298 1.191 . S
C4163 C2231 1.215 . S
C4157 C1809 1.210 . S
C4177 C1905 1.110 . S
C4183 C2335 1.058 . S
C4203 C2275 1.104 . S
C4197 C1993 1.161 . S
C4223 C2422 1.125 . S
C4217 C1985 1.164 . S
C4243 C2213 1.211 . S
C4237 C1525 1.209 . S
C4257 C1613 1.130 . S
C4263 C2314 1.100 . S
C4283 C2256 1.144 . S
C4277 C1692 1.261 . S
C4303 C2274 1.110 . S
C4297 C2053 1.203 . S
C4317 C1817 1.134 . S
C4323 C2440 1.073 . S
C4343 C2357 1.218 . S
C4337 C1641 1.210 . S
C4363 C2379 1.200 . S
C4357 C1465 1.327 . S
