# Generated by pormake.
# Topology tph, (6,8)-cn, num edge types: 1
# Building blocks:
#     Node 0, Type 0, BuildingBlock: OJICUG_clean_sbu_0, # of connection points: 6
#     Node 1, Type 0, BuildingBlock: OJICUG_clean_sbu_0, # of connection points: 6
#     Node 2, Type 0, BuildingBlock: OJICUG_clean_sbu_0, # of connection points: 6
#     Node 3, Type 0, BuildingBlock: OJICUG_clean_sbu_0, # of connection points: 6
#     Node 4, Type 0, BuildingBlock: OJICUG_clean_sbu_0, # of connection points: 6
#     Node 5, Type 0, BuildingBlock: OJICUG_clean_sbu_0, # of connection points: 6
#     Node 6, Type 0, BuildingBlock: OJICUG_clean_sbu_0, # of connection points: 6
#     Node 7, Type 0, BuildingBlock: OJICUG_clean_sbu_0, # of connection points: 6
#     Node 8, Type 0, BuildingBlock: OJICUG_clean_sbu_0, # of connection points: 6
#     Node 9, Type 0, BuildingBlock: OJICUG_clean_sbu_0, # of connection points: 6
#     Node 10, Type 0, BuildingBlock: OJICUG_clean_sbu_0, # of connection points: 6
#     Node 11, Type 0, BuildingBlock: OJICUG_clean_sbu_0, # of connection points: 6
#     Node 12, Type 0, BuildingBlock: OJICUG_clean_sbu_0, # of connection points: 6
#     Node 13, Type 0, BuildingBlock: OJICUG_clean_sbu_0, # of connection points: 6
#     Node 14, Type 0, BuildingBlock: OJICUG_clean_sbu_0, # of connection points: 6
#     Node 15, Type 0, BuildingBlock: OJICUG_clean_sbu_0, # of connection points: 6
#     Node 16, Type 1, BuildingBlock: TAGTUT_clean_sbu_3, # of connection points: 8
#     Node 17, Type 1, BuildingBlock: TAGTUT_clean_sbu_3, # of connection points: 8
#     Node 18, Type 1, BuildingBlock: TAGTUT_clean_sbu_3, # of connection points: 8
#     Node 19, Type 1, BuildingBlock: TAGTUT_clean_sbu_3, # of connection points: 8
#     Node 20, Type 1, BuildingBlock: TAGTUT_clean_sbu_3, # of connection points: 8
#     Node 21, Type 1, BuildingBlock: TAGTUT_clean_sbu_3, # of connection points: 8
#     Node 22, Type 1, BuildingBlock: TAGTUT_clean_sbu_3, # of connection points: 8
#     Node 23, Type 1, BuildingBlock: TAGTUT_clean_sbu_3, # of connection points: 8
#     Node 24, Type 1, BuildingBlock: TAGTUT_clean_sbu_3, # of connection points: 8
#     Node 25, Type 1, BuildingBlock: TAGTUT_clean_sbu_3, # of connection points: 8
#     Node 26, Type 1, BuildingBlock: TAGTUT_clean_sbu_3, # of connection points: 8
#     Node 27, Type 1, BuildingBlock: TAGTUT_clean_sbu_3, # of connection points: 8
#     Edge 28, Type (0, 1), BuildingBlock: UVAHIK_clean_linker_0, # of connection points: 2
#     Edge 29, Type (0, 1), BuildingBlock: UVAHIK_clean_linker_0, # of connection points: 2
#     Edge 30, Type (0, 1), BuildingBlock: UVAHIK_clean_linker_0, # of connection points: 2
#     Edge 31, Type (0, 1), BuildingBlock: UVAHIK_clean_linker_0, # of connection points: 2
#     Edge 32, Type (0, 1), BuildingBlock: UVAHIK_clean_linker_0, # of connection points: 2
#     Edge 33, Type (0, 1), BuildingBlock: UVAHIK_clean_linker_0, # of connection points: 2
#     Edge 34, Type (0, 1), BuildingBlock: UVAHIK_clean_linker_0, # of connection points: 2
#     Edge 35, Type (0, 1), BuildingBlock: UVAHIK_clean_linker_0, # of connection points: 2
#     Edge 36, Type (0, 1), BuildingBlock: UVAHIK_clean_linker_0, # of connection points: 2
#     Edge 37, Type (0, 1), BuildingBlock: UVAHIK_clean_linker_0, # of connection points: 2
#     Edge 38, Type (0, 1), BuildingBlock: UVAHIK_clean_linker_0, # of connection points: 2
#     Edge 39, Type (0, 1), BuildingBlock: UVAHIK_clean_linker_0, # of connection points: 2
#     Edge 40, Type (0, 1), BuildingBlock: UVAHIK_clean_linker_0, # of connection points: 2
#     Edge 41, Type (0, 1), BuildingBlock: UVAHIK_clean_linker_0, # of connection points: 2
#     Edge 42, Type (0, 1), BuildingBlock: UVAHIK_clean_linker_0, # of connection points: 2
#     Edge 43, Type (0, 1), BuildingBlock: UVAHIK_clean_linker_0, # of connection points: 2
#     Edge 44, Type (0, 1), BuildingBlock: UVAHIK_clean_linker_0, # of connection points: 2
#     Edge 45, Type (0, 1), BuildingBlock: UVAHIK_clean_linker_0, # of connection points: 2
#     Edge 46, Type (0, 1), BuildingBlock: UVAHIK_clean_linker_0, # of connection points: 2
#     Edge 47, Type (0, 1), BuildingBlock: UVAHIK_clean_linker_0, # of connection points: 2
#     Edge 48, Type (0, 1), BuildingBlock: UVAHIK_clean_linker_0, # of connection points: 2
#     Edge 49, Type (0, 1), BuildingBlock: UVAHIK_clean_linker_0, # of connection points: 2
#     Edge 50, Type (0, 1), BuildingBlock: UVAHIK_clean_linker_0, # of connection points: 2
#     Edge 51, Type (0, 1), BuildingBlock: UVAHIK_clean_linker_0, # of connection points: 2
#     Edge 52, Type (0, 1), BuildingBlock: UVAHIK_clean_linker_0, # of connection points: 2
#     Edge 53, Type (0, 1), BuildingBlock: UVAHIK_clean_linker_0, # of connection points: 2
#     Edge 54, Type (0, 1), BuildingBlock: UVAHIK_clean_linker_0, # of connection points: 2
#     Edge 55, Type (0, 1), BuildingBlock: UVAHIK_clean_linker_0, # of connection points: 2
#     Edge 56, Type (0, 1), BuildingBlock: UVAHIK_clean_linker_0, # of connection points: 2
#     Edge 57, Type (0, 1), BuildingBlock: UVAHIK_clean_linker_0, # of connection points: 2
#     Edge 58, Type (0, 1), BuildingBlock: UVAHIK_clean_linker_0, # of connection points: 2
#     Edge 59, Type (0, 1), BuildingBlock: UVAHIK_clean_linker_0, # of connection points: 2
#     Edge 60, Type (0, 1), BuildingBlock: UVAHIK_clean_linker_0, # of connection points: 2
#     Edge 61, Type (0, 1), BuildingBlock: UVAHIK_clean_linker_0, # of connection points: 2
#     Edge 62, Type (0, 1), BuildingBlock: UVAHIK_clean_linker_0, # of connection points: 2
#     Edge 63, Type (0, 1), BuildingBlock: UVAHIK_clean_linker_0, # of connection points: 2
#     Edge 64, Type (0, 1), BuildingBlock: UVAHIK_clean_linker_0, # of connection points: 2
#     Edge 65, Type (0, 1), BuildingBlock: UVAHIK_clean_linker_0, # of connection points: 2
#     Edge 66, Type (0, 1), BuildingBlock: UVAHIK_clean_linker_0, # of connection points: 2
#     Edge 67, Type (0, 1), BuildingBlock: UVAHIK_clean_linker_0, # of connection points: 2
#     Edge 68, Type (0, 1), BuildingBlock: UVAHIK_clean_linker_0, # of connection points: 2
#     Edge 69, Type (0, 1), BuildingBlock: UVAHIK_clean_linker_0, # of connection points: 2
#     Edge 70, Type (0, 1), BuildingBlock: UVAHIK_clean_linker_0, # of connection points: 2
#     Edge 71, Type (0, 1), BuildingBlock: UVAHIK_clean_linker_0, # of connection points: 2
#     Edge 72, Type (0, 1), BuildingBlock: UVAHIK_clean_linker_0, # of connection points: 2
#     Edge 73, Type (0, 1), BuildingBlock: UVAHIK_clean_linker_0, # of connection points: 2
#     Edge 74, Type (0, 1), BuildingBlock: UVAHIK_clean_linker_0, # of connection points: 2
#     Edge 75, Type (0, 1), BuildingBlock: UVAHIK_clean_linker_0, # of connection points: 2
#     Edge 76, Type (0, 1), BuildingBlock: UVAHIK_clean_linker_0, # of connection points: 2
#     Edge 77, Type (0, 1), BuildingBlock: UVAHIK_clean_linker_0, # of connection points: 2
#     Edge 78, Type (0, 1), BuildingBlock: UVAHIK_clean_linker_0, # of connection points: 2
#     Edge 79, Type (0, 1), BuildingBlock: UVAHIK_clean_linker_0, # of connection points: 2
#     Edge 80, Type (0, 1), BuildingBlock: UVAHIK_clean_linker_0, # of connection points: 2
#     Edge 81, Type (0, 1), BuildingBlock: UVAHIK_clean_linker_0, # of connection points: 2
#     Edge 82, Type (0, 1), BuildingBlock: UVAHIK_clean_linker_0, # of connection points: 2
#     Edge 83, Type (0, 1), BuildingBlock: UVAHIK_clean_linker_0, # of connection points: 2
#     Edge 84, Type (0, 1), BuildingBlock: UVAHIK_clean_linker_0, # of connection points: 2
#     Edge 85, Type (0, 1), BuildingBlock: UVAHIK_clean_linker_0, # of connection points: 2
#     Edge 86, Type (0, 1), BuildingBlock: UVAHIK_clean_linker_0, # of connection points: 2
#     Edge 87, Type (0, 1), BuildingBlock: UVAHIK_clean_linker_0, # of connection points: 2
#     Edge 88, Type (0, 1), BuildingBlock: UVAHIK_clean_linker_0, # of connection points: 2
#     Edge 89, Type (0, 1), BuildingBlock: UVAHIK_clean_linker_0, # of connection points: 2
#     Edge 90, Type (0, 1), BuildingBlock: UVAHIK_clean_linker_0, # of connection points: 2
#     Edge 91, Type (0, 1), BuildingBlock: UVAHIK_clean_linker_0, # of connection points: 2
#     Edge 92, Type (0, 1), BuildingBlock: UVAHIK_clean_linker_0, # of connection points: 2
#     Edge 93, Type (0, 1), BuildingBlock: UVAHIK_clean_linker_0, # of connection points: 2
#     Edge 94, Type (0, 1), BuildingBlock: UVAHIK_clean_linker_0, # of connection points: 2
#     Edge 95, Type (0, 1), BuildingBlock: UVAHIK_clean_linker_0, # of connection points: 2
#     Edge 96, Type (0, 1), BuildingBlock: UVAHIK_clean_linker_0, # of connection points: 2
#     Edge 97, Type (0, 1), BuildingBlock: UVAHIK_clean_linker_0, # of connection points: 2
#     Edge 98, Type (0, 1), BuildingBlock: UVAHIK_clean_linker_0, # of connection points: 2
#     Edge 99, Type (0, 1), BuildingBlock: UVAHIK_clean_linker_0, # of connection points: 2
#     Edge 100, Type (0, 1), BuildingBlock: UVAHIK_clean_linker_0, # of connection points: 2
#     Edge 101, Type (0, 1), BuildingBlock: UVAHIK_clean_linker_0, # of connection points: 2
#     Edge 102, Type (0, 1), BuildingBlock: UVAHIK_clean_linker_0, # of connection points: 2
#     Edge 103, Type (0, 1), BuildingBlock: UVAHIK_clean_linker_0, # of connection points: 2
#     Edge 104, Type (0, 1), BuildingBlock: UVAHIK_clean_linker_0, # of connection points: 2
#     Edge 105, Type (0, 1), BuildingBlock: UVAHIK_clean_linker_0, # of connection points: 2
#     Edge 106, Type (0, 1), BuildingBlock: UVAHIK_clean_linker_0, # of connection points: 2
#     Edge 107, Type (0, 1), BuildingBlock: UVAHIK_clean_linker_0, # of connection points: 2
#     Edge 108, Type (0, 1), BuildingBlock: UVAHIK_clean_linker_0, # of connection points: 2
#     Edge 109, Type (0, 1), BuildingBlock: UVAHIK_clean_linker_0, # of connection points: 2
#     Edge 110, Type (0, 1), BuildingBlock: UVAHIK_clean_linker_0, # of connection points: 2
#     Edge 111, Type (0, 1), BuildingBlock: UVAHIK_clean_linker_0, # of connection points: 2
#     Edge 112, Type (0, 1), BuildingBlock: UVAHIK_clean_linker_0, # of connection points: 2
#     Edge 113, Type (0, 1), BuildingBlock: UVAHIK_clean_linker_0, # of connection points: 2
#     Edge 114, Type (0, 1), BuildingBlock: UVAHIK_clean_linker_0, # of connection points: 2
#     Edge 115, Type (0, 1), BuildingBlock: UVAHIK_clean_linker_0, # of connection points: 2
#     Edge 116, Type (0, 1), BuildingBlock: UVAHIK_clean_linker_0, # of connection points: 2
#     Edge 117, Type (0, 1), BuildingBlock: UVAHIK_clean_linker_0, # of connection points: 2
#     Edge 118, Type (0, 1), BuildingBlock: UVAHIK_clean_linker_0, # of connection points: 2
#     Edge 119, Type (0, 1), BuildingBlock: UVAHIK_clean_linker_0, # of connection points: 2
#     Edge 120, Type (0, 1), BuildingBlock: UVAHIK_clean_linker_0, # of connection points: 2
#     Edge 121, Type (0, 1), BuildingBlock: UVAHIK_clean_linker_0, # of connection points: 2
#     Edge 122, Type (0, 1), BuildingBlock: UVAHIK_clean_linker_0, # of connection points: 2
#     Edge 123, Type (0, 1), BuildingBlock: UVAHIK_clean_linker_0, # of connection points: 2
# Relax obj value: 0.171
# Max RMSD: 0.261
# Mean RMSD: 0.252
data_MOF--net-tph--node1-OJICUG_clean_sbu_0--node2-TAGTUT_clean_sbu_3--edge1-UVAHIK_clean_linker_0
_symmetry_space_group_name_H-M    P1
_symmetry_Int_Tables_number       1
_symmetry_cell_setting            triclinic
loop_
_symmetry_equiv_pos_as_xyz
'x, y, z'
_cell_length_a     60.32026
_cell_length_b     60.295411
_cell_length_c     60.261418
_cell_angle_alpha  89.539709
_cell_angle_beta   89.991422
_cell_angle_gamma 89.612603
loop_
_atom_site_label
_atom_site_type_symbol
_atom_site_fract_x
_atom_site_fract_y
_atom_site_fract_z
_atom_type_partial_charge
Sc0 Sc 0.16169 0.21006 0.19784 0.0
Sc1 Sc 0.19857 0.16524 0.19416 0.0
Sc2 Sc 0.19097 0.20116 0.14924 0.0
O3 O 0.18399 0.1922 0.18058 0.0
C4 C 0.14011 0.2083 0.14969 0.0
C5 C 0.14791 0.16122 0.20921 0.0
C6 C 0.19237 0.14825 0.14576 0.0
C7 C 0.19665 0.19601 0.2357 0.0
C8 C 0.18613 0.24806 0.17367 0.0
C9 C 0.2379 0.1885 0.16642 0.0
O10 O 0.14069 0.21645 0.16912 0.0
O11 O 0.16786 0.15405 0.20929 0.0
O12 O 0.19499 0.16752 0.13748 0.0
O13 O 0.17897 0.20559 0.22905 0.0
O14 O 0.18809 0.23639 0.15623 0.0
O15 O 0.23054 0.17331 0.17932 0.0
O16 O 0.1798 0.23998 0.19214 0.0
O17 O 0.20776 0.18291 0.2235 0.0
O18 O 0.22538 0.20252 0.15664 0.0
O19 O 0.14267 0.181 0.20387 0.0
O20 O 0.15684 0.19934 0.1406 0.0
O21 O 0.19041 0.14483 0.16645 0.0
Sc22 Sc 0.43716 0.59561 0.06314 0.0
Sc23 Sc 0.39281 0.56176 0.07944 0.0
Sc24 Sc 0.44161 0.5627 0.11164 0.0
O25 O 0.42398 0.57313 0.08462 0.0
C26 C 0.47994 0.56705 0.07477 0.0
C27 C 0.41068 0.56516 0.02969 0.0
C28 C 0.41994 0.51808 0.09373 0.0
C29 C 0.38753 0.61331 0.06905 0.0
C30 C 0.45084 0.61444 0.11063 0.0
C31 C 0.39294 0.56528 0.13214 0.0
O32 O 0.4684 0.57868 0.06138 0.0
O33 O 0.39728 0.55836 0.04441 0.0
O34 O 0.43483 0.52849 0.10438 0.0
O35 O 0.4076 0.61533 0.06308 0.0
O36 O 0.44865 0.5961 0.12091 0.0
O37 O 0.38355 0.56425 0.11341 0.0
O38 O 0.44848 0.61646 0.08973 0.0
O39 O 0.3794 0.59497 0.0756 0.0
O40 O 0.41384 0.56436 0.13441 0.0
O41 O 0.42675 0.57795 0.034 0.0
O42 O 0.47266 0.56045 0.09351 0.0
O43 O 0.40387 0.5277 0.08367 0.0
Sc44 Sc 0.82917 0.29686 0.1834 0.0
Sc45 Sc 0.78392 0.30242 0.14814 0.0
Sc46 Sc 0.79362 0.34174 0.18805 0.0
O47 O 0.80225 0.31359 0.17322 0.0
C48 C 0.80774 0.31466 0.22897 0.0
C49 C 0.79805 0.25773 0.17413 0.0
C50 C 0.74664 0.31918 0.17857 0.0
C51 C 0.83081 0.29232 0.13022 0.0
C52 C 0.84651 0.34476 0.1864 0.0
C53 C 0.78418 0.35487 0.13964 0.0
O54 O 0.82391 0.30571 0.21848 0.0
O55 O 0.78975 0.26772 0.15727 0.0
O56 O 0.75825 0.33581 0.18422 0.0
O57 O 0.83781 0.28655 0.14949 0.0
O58 O 0.82782 0.35156 0.19365 0.0
O59 O 0.77615 0.33579 0.13557 0.0
O60 O 0.84936 0.32547 0.17858 0.0
O61 O 0.81226 0.30192 0.12718 0.0
O62 O 0.79478 0.35902 0.15727 0.0
O63 O 0.80999 0.26751 0.18835 0.0
O64 O 0.79229 0.32518 0.21916 0.0
O65 O 0.75486 0.30273 0.16833 0.0
Sc66 Sc 0.60802 0.94122 0.08039 0.0
Sc67 Sc 0.58447 0.8906 0.06667 0.0
Sc68 Sc 0.55964 0.92348 0.10627 0.0
O69 O 0.58387 0.91885 0.08394 0.0
C70 C 0.60111 0.93809 0.13299 0.0
C71 C 0.63587 0.89765 0.07575 0.0
C72 C 0.57114 0.87338 0.11336 0.0
C73 C 0.59799 0.92523 0.03027 0.0
C74 C 0.56857 0.97321 0.08928 0.0
C75 C 0.53245 0.90307 0.06885 0.0
O76 O 0.60993 0.94688 0.11582 0.0
O77 O 0.62005 0.88774 0.06623 0.0
O78 O 0.55662 0.88867 0.11415 0.0
O79 O 0.60812 0.93711 0.0445 0.0
O80 O 0.55925 0.95904 0.10187 0.0
O81 O 0.54833 0.88964 0.06458 0.0
O82 O 0.58475 0.96818 0.07671 0.0
O83 O 0.58584 0.90878 0.03574 0.0
O84 O 0.535 0.92 0.08105 0.0
O85 O 0.63366 0.9165 0.0847 0.0
O86 O 0.58369 0.92636 0.13231 0.0
O87 O 0.5851 0.87213 0.09764 0.0
Sc88 Sc 0.18148 0.83259 0.28698 0.0
Sc89 Sc 0.14417 0.78833 0.28707 0.0
Sc90 Sc 0.17146 0.80233 0.33507 0.0
O91 O 0.16579 0.80785 0.30274 0.0
C92 C 0.21912 0.80838 0.31742 0.0
C93 C 0.18056 0.79664 0.24923 0.0
C94 C 0.16253 0.7531 0.3183 0.0
C95 C 0.13186 0.83529 0.26738 0.0
C96 C 0.17718 0.8548 0.33288 0.0
C97 C 0.12089 0.79898 0.3337 0.0
O98 O 0.2128 0.82354 0.30367 0.0
O99 O 0.16315 0.78738 0.25668 0.0
O100 O 0.16383 0.76722 0.33377 0.0
O101 O 0.15129 0.84338 0.26962 0.0
O102 O 0.17953 0.83623 0.34267 0.0
O103 O 0.122 0.78778 0.31579 0.0
O104 O 0.17356 0.85634 0.31222 0.0
O105 O 0.12642 0.81623 0.27454 0.0
O106 O 0.13744 0.8091 0.34173 0.0
O107 O 0.19068 0.81176 0.25968 0.0
O108 O 0.20559 0.79615 0.32812 0.0
O109 O 0.16095 0.75891 0.29813 0.0
Sc110 Sc 0.07511 0.6167 0.93924 0.0
Sc111 Sc 0.06062 0.58319 0.89429 0.0
Sc112 Sc 0.10117 0.56481 0.93212 0.0
O113 O 0.07872 0.58808 0.92215 0.0
C114 C 0.12753 0.6097 0.9393 0.0
C115 C 0.07046 0.6347 0.8899 0.0
C116 C 0.10824 0.56694 0.87973 0.0
C117 C 0.02498 0.60396 0.92657 0.0
C118 C 0.08139 0.58147 0.9786 0.0
C119 C 0.06353 0.53374 0.91446 0.0
O120 O 0.11006 0.62108 0.94252 0.0
O121 O 0.06187 0.61692 0.88313 0.0
O122 O 0.11286 0.55935 0.89892 0.0
O123 O 0.03946 0.61531 0.93679 0.0
O124 O 0.09202 0.56787 0.96648 0.0
O125 O 0.05683 0.54821 0.90052 0.0
O126 O 0.07332 0.59965 0.97113 0.0
O127 O 0.02996 0.58979 0.91171 0.0
O128 O 0.078 0.53792 0.92917 0.0
O129 O 0.07784 0.63701 0.90947 0.0
O130 O 0.12724 0.58906 0.93517 0.0
O131 O 0.09052 0.57765 0.87528 0.0
Sc132 Sc 0.84217 0.68456 0.30887 0.0
Sc133 Sc 0.80015 0.64704 0.30405 0.0
Sc134 Sc 0.79467 0.69029 0.34047 0.0
O135 O 0.81235 0.67415 0.3179 0.0
C136 C 0.84098 0.69487 0.36138 0.0
C137 C 0.85199 0.63553 0.30735 0.0
C138 C 0.78768 0.63874 0.35236 0.0
C139 C 0.82003 0.66783 0.26308 0.0
C140 C 0.81794 0.72943 0.31228 0.0
C141 C 0.75641 0.67683 0.31096 0.0
O142 O 0.85036 0.69637 0.34237 0.0
O143 O 0.83308 0.63217 0.29849 0.0
O144 O 0.78161 0.65903 0.35455 0.0
O145 O 0.83716 0.67355 0.27425 0.0
O146 O 0.80651 0.72278 0.32893 0.0
O147 O 0.76545 0.65792 0.30764 0.0
O148 O 0.82896 0.71623 0.30013 0.0
O149 O 0.80191 0.66266 0.27247 0.0
O150 O 0.7675 0.69308 0.31805 0.0
O151 O 0.85612 0.65321 0.31771 0.0
O152 O 0.82108 0.68856 0.36371 0.0
O153 O 0.79881 0.63194 0.33583 0.0
Sc154 Sc 0.94582 0.92922 0.88887 0.0
Sc155 Sc 0.89994 0.93665 0.92458 0.0
Sc156 Sc 0.94227 0.89906 0.93924 0.0
O157 O 0.92948 0.9218 0.91761 0.0
C158 C 0.95258 0.87691 0.89241 0.0
C159 C 0.89554 0.92919 0.8725 0.0
C160 C 0.89101 0.8864 0.93838 0.0
C161 C 0.92824 0.97682 0.90495 0.0
C162 C 0.98595 0.92422 0.92337 0.0
C163 C 0.92193 0.93398 0.97287 0.0
O164 O 0.95229 0.89501 0.88148 0.0
O165 O 0.8878 0.93343 0.89152 0.0
O166 O 0.9112 0.88262 0.94308 0.0
O167 O 0.94079 0.96429 0.89346 0.0
O168 O 0.97492 0.91271 0.93718 0.0
O169 O 0.90782 0.94128 0.95894 0.0
O170 O 0.9778 0.93162 0.90524 0.0
O171 O 0.91308 0.96938 0.91769 0.0
O172 O 0.9363 0.91928 0.96803 0.0
O173 O 0.91613 0.92684 0.8686 0.0
O174 O 0.9491 0.87572 0.91317 0.0
O175 O 0.88411 0.90514 0.93124 0.0
Sc176 Sc 0.39974 0.43868 0.43593 0.0
Sc177 Sc 0.43979 0.39619 0.44161 0.0
Sc178 Sc 0.43752 0.42846 0.39251 0.0
O179 O 0.42582 0.42125 0.42343 0.0
C180 C 0.38515 0.43336 0.3854 0.0
C181 C 0.38838 0.38864 0.44974 0.0
C182 C 0.43981 0.37577 0.39275 0.0
C183 C 0.42875 0.43122 0.47957 0.0
C184 C 0.42785 0.47683 0.41204 0.0
C185 C 0.48212 0.41913 0.42033 0.0
O186 O 0.38159 0.43742 0.40568 0.0
O187 O 0.40843 0.38216 0.44927 0.0
O188 O 0.43835 0.39446 0.38306 0.0
O189 O 0.41442 0.44176 0.46815 0.0
O190 O 0.43726 0.46351 0.39868 0.0
O191 O 0.47246 0.40819 0.43555 0.0
O192 O 0.41419 0.47042 0.42689 0.0
O193 O 0.43937 0.41454 0.47224 0.0
O194 O 0.47205 0.42709 0.40339 0.0
O195 O 0.38236 0.4085 0.44538 0.0
O196 O 0.40453 0.42975 0.3778 0.0
O197 O 0.44134 0.37371 0.41371 0.0
Sc198 Sc 0.33358 0.79754 0.68339 0.0
Sc199 Sc 0.28667 0.80269 0.65033 0.0
Sc200 Sc 0.29936 0.84332 0.68769 0.0
O201 O 0.3066 0.81439 0.67382 0.0
C202 C 0.31445 0.81774 0.72906 0.0
C203 C 0.30134 0.75867 0.67704 0.0
C204 C 0.25147 0.82185 0.68118 0.0
C205 C 0.33233 0.79095 0.63035 0.0
C206 C 0.35226 0.84488 0.68464 0.0
C207 C 0.28731 0.85492 0.64 0.0
O208 O 0.32992 0.80797 0.71823 0.0
O209 O 0.29247 0.7682 0.66022 0.0
O210 O 0.26372 0.83858 0.6848 0.0
O211 O 0.34021 0.78587 0.64948 0.0
O212 O 0.33391 0.8522 0.69221 0.0
O213 O 0.27849 0.8359 0.63742 0.0
O214 O 0.35435 0.82551 0.67675 0.0
O215 O 0.31385 0.80091 0.62782 0.0
O216 O 0.30014 0.85907 0.65609 0.0
O217 O 0.31406 0.76875 0.69035 0.0
O218 O 0.29861 0.82794 0.71948 0.0
O219 O 0.25888 0.80422 0.67236 0.0
Sc220 Sc 0.10911 0.4331 0.58094 0.0
Sc221 Sc 0.08272 0.38407 0.56592 0.0
Sc222 Sc 0.06075 0.41596 0.60782 0.0
O223 O 0.08403 0.41151 0.58436 0.0
C224 C 0.10379 0.42723 0.63357 0.0
C225 C 0.1344 0.38766 0.57518 0.0
C226 C 0.06977 0.36527 0.61229 0.0
C227 C 0.09716 0.41979 0.53053 0.0
C228 C 0.07155 0.46614 0.59328 0.0
C229 C 0.03159 0.39937 0.56971 0.0
O230 O 0.11245 0.43657 0.61659 0.0
O231 O 0.11782 0.37873 0.56599 0.0
O232 O 0.05602 0.38108 0.61445 0.0
O233 O 0.1078 0.431 0.54492 0.0
O234 O 0.06206 0.45155 0.60522 0.0
O235 O 0.04669 0.38559 0.56403 0.0
O236 O 0.087 0.46135 0.57973 0.0
O237 O 0.08497 0.40328 0.53568 0.0
O238 O 0.03511 0.41499 0.58334 0.0
O239 O 0.13389 0.40716 0.58295 0.0
O240 O 0.08583 0.41635 0.63295 0.0
O241 O 0.08278 0.36415 0.59581 0.0
Sc242 Sc 0.93995 0.09599 0.55891 0.0
Sc243 Sc 0.89545 0.06228 0.57523 0.0
Sc244 Sc 0.94399 0.06358 0.60781 0.0
O245 O 0.92659 0.07376 0.58055 0.0
C246 C 0.98254 0.06706 0.5714 0.0
C247 C 0.91421 0.06473 0.52569 0.0
C248 C 0.92185 0.01865 0.59087 0.0
C249 C 0.89013 0.11364 0.56348 0.0
C250 C 0.95409 0.11532 0.60598 0.0
C251 C 0.89525 0.06735 0.62785 0.0
O252 O 0.97155 0.07957 0.55834 0.0
O253 O 0.90034 0.05853 0.54026 0.0
O254 O 0.93629 0.02934 0.60181 0.0
O255 O 0.91021 0.11538 0.55745 0.0
O256 O 0.9526 0.09684 0.61613 0.0
O257 O 0.88599 0.06513 0.60916 0.0
O258 O 0.95032 0.11759 0.58531 0.0
O259 O 0.88204 0.09558 0.57089 0.0
O260 O 0.91616 0.06703 0.63027 0.0
O261 O 0.9304 0.07738 0.53006 0.0
O262 O 0.97477 0.05975 0.58967 0.0
O263 O 0.90631 0.02808 0.57983 0.0
Sc264 Sc 0.69859 0.70389 0.66063 0.0
Sc265 Sc 0.66007 0.71519 0.70142 0.0
Sc266 Sc 0.69721 0.67098 0.70826 0.0
O267 O 0.6854 0.69667 0.69027 0.0
C268 C 0.70038 0.65083 0.66088 0.0
C269 C 0.6489 0.71031 0.65003 0.0
C270 C 0.64457 0.66745 0.71389 0.0
C271 C 0.68874 0.752 0.6805 0.0
C272 C 0.74099 0.69318 0.68765 0.0
C273 C 0.68694 0.7043 0.7462 0.0
O274 O 0.7051 0.66958 0.65233 0.0
O275 O 0.64554 0.71965 0.66864 0.0
O276 O 0.66418 0.66088 0.71859 0.0
O277 O 0.69395 0.7394 0.66444 0.0
O278 O 0.73144 0.67801 0.699 0.0
O279 O 0.67051 0.71257 0.73569 0.0
O280 O 0.73049 0.70673 0.67522 0.0
O281 O 0.67902 0.74493 0.69785 0.0
O282 O 0.70086 0.6912 0.73725 0.0
O283 O 0.66707 0.70083 0.64517 0.0
O284 O 0.69412 0.64864 0.68088 0.0
O285 O 0.64032 0.6863 0.70526 0.0
Sc286 Sc 0.68329 0.33537 0.79336 0.0
Sc287 Sc 0.64544 0.29163 0.79337 0.0
Sc288 Sc 0.6726 0.30562 0.84156 0.0
O289 O 0.66723 0.31092 0.80913 0.0
C290 C 0.72046 0.3114 0.82446 0.0
C291 C 0.6825 0.2992 0.75598 0.0
C292 C 0.66355 0.25631 0.82486 0.0
C293 C 0.63405 0.33843 0.77299 0.0
C294 C 0.678 0.35809 0.83895 0.0
C295 C 0.62187 0.30333 0.8394 0.0
O296 O 0.71425 0.32644 0.81056 0.0
O297 O 0.66476 0.29035 0.76317 0.0
O298 O 0.66486 0.27042 0.84037 0.0
O299 O 0.6536 0.34615 0.77529 0.0
O300 O 0.68054 0.33966 0.84897 0.0
O301 O 0.62285 0.29156 0.82186 0.0
O302 O 0.67488 0.35934 0.81819 0.0
O303 O 0.62812 0.31964 0.78048 0.0
O304 O 0.63863 0.31284 0.84768 0.0
O305 O 0.69281 0.31408 0.76658 0.0
O306 O 0.70684 0.29924 0.83513 0.0
O307 O 0.66181 0.26211 0.80471 0.0
Sc308 Sc 0.57848 0.11513 0.43881 0.0
Sc309 Sc 0.56828 0.08062 0.39321 0.0
Sc310 Sc 0.60484 0.06271 0.43537 0.0
O311 O 0.5836 0.08603 0.42266 0.0
C312 C 0.63063 0.10816 0.44259 0.0
C313 C 0.57814 0.13212 0.38854 0.0
C314 C 0.61721 0.06339 0.38396 0.0
C315 C 0.52982 0.10232 0.42268 0.0
C316 C 0.58247 0.0806 0.47973 0.0
C317 C 0.5678 0.03184 0.4148 0.0
O318 O 0.61331 0.12024 0.44195 0.0
O319 O 0.57352 0.11331 0.38079 0.0
O320 O 0.62073 0.05762 0.40396 0.0
O321 O 0.54308 0.1122 0.43571 0.0
O322 O 0.59186 0.06545 0.46849 0.0
O323 O 0.56154 0.04643 0.4008 0.0
O324 O 0.57684 0.09925 0.47131 0.0
O325 O 0.53633 0.08994 0.40682 0.0
O326 O 0.58243 0.03559 0.42949 0.0
O327 O 0.58036 0.13572 0.40914 0.0
O328 O 0.63022 0.08709 0.44169 0.0
O329 O 0.5993 0.0725 0.37737 0.0
Sc330 Sc 0.33945 0.19471 0.80591 0.0
Sc331 Sc 0.30416 0.1502 0.80472 0.0
Sc332 Sc 0.29718 0.19053 0.84398 0.0
O333 O 0.31369 0.17843 0.81816 0.0
C334 C 0.34471 0.19913 0.85883 0.0
C335 C 0.35749 0.14751 0.8014 0.0
C336 C 0.29688 0.13836 0.85323 0.0
C337 C 0.31569 0.17539 0.76224 0.0
C338 C 0.3114 0.2345 0.81728 0.0
C339 C 0.25817 0.17488 0.81642 0.0
O340 O 0.34986 0.20575 0.83923 0.0
O341 O 0.3383 0.14012 0.79638 0.0
O342 O 0.28837 0.15749 0.85668 0.0
O343 O 0.33229 0.18458 0.77159 0.0
O344 O 0.30471 0.22509 0.83511 0.0
O345 O 0.26893 0.1572 0.81152 0.0
O346 O 0.31917 0.22336 0.80129 0.0
O347 O 0.30045 0.16601 0.7733 0.0
O348 O 0.2675 0.19173 0.82475 0.0
O349 O 0.36019 0.16645 0.80996 0.0
O350 O 0.32675 0.18907 0.86308 0.0
O351 O 0.30788 0.134 0.83587 0.0
C352 C 0.03698 0.22307 0.8797 0.0
C353 C 0.00909 0.24195 0.96211 0.0
C354 C 0.9466 0.24654 0.93187 0.0
Mg355 Mg 0.01442 0.23607 0.83356 0.0
Mg356 Mg 0.98532 0.28197 0.82666 0.0
O357 O 0.98861 0.25522 0.8425 0.0
Mg358 Mg 0.99413 0.2558 0.87519 0.0
O359 O 0.00112 0.25344 0.90762 0.0
Mg360 Mg 0.99378 0.22127 0.91312 0.0
Mg361 Mg 0.98779 0.27347 0.92669 0.0
C362 C 0.95045 0.28811 0.86588 0.0
O363 O 0.00854 0.29162 0.87575 0.0
O364 O 0.99813 0.23563 0.79907 0.0
O365 O -0.0003 0.30295 0.91038 0.0
O366 O 0.03529 0.26572 0.82155 0.0
O367 O 0.97822 0.26717 0.79484 0.0
O368 O 0.01699 0.29778 0.82345 0.0
O369 O 0.98003 0.22073 0.87747 0.0
O370 O 0.99349 0.20685 0.84602 0.0
C371 C 0.98237 0.20455 0.86401 0.0
C372 C 0.98534 0.24846 0.78764 0.0
O373 O 0.95985 0.27314 0.87813 0.0
O374 O 0.008 0.22564 0.94853 0.0
O375 O 0.95875 0.29492 0.84738 0.0
O376 O 0.95904 0.22956 0.92855 0.0
O377 O 0.00242 0.26155 0.957 0.0
O378 O 0.95343 0.26614 0.92798 0.0
O379 O 0.02717 0.23895 0.86937 0.0
O380 O 0.02837 0.21414 0.89711 0.0
C381 C 0.03461 0.28679 0.81918 0.0
C382 C 0.00794 0.30644 0.89104 0.0
C383 C 0.53493 0.72254 0.37859 0.0
C384 C 0.50939 0.73841 0.46093 0.0
C385 C 0.44515 0.74425 0.43267 0.0
Mg386 Mg 0.51265 0.7372 0.33282 0.0
Mg387 Mg 0.48273 0.78268 0.3274 0.0
O388 O 0.48636 0.75552 0.34225 0.0
Mg389 Mg 0.49184 0.75528 0.375 0.0
O390 O 0.49879 0.752 0.40737 0.0
Mg391 Mg 0.49187 0.71966 0.41184 0.0
Mg392 Mg 0.48665 0.77136 0.42793 0.0
C393 C 0.44764 0.78728 0.36654 0.0
O394 O 0.50605 0.79121 0.37676 0.0
O395 O 0.49767 0.73831 0.2978 0.0
O396 O 0.49806 0.80129 0.412 0.0
O397 O 0.53326 0.76771 0.32228 0.0
O398 O 0.47661 0.7692 0.29476 0.0
O399 O 0.51412 0.79916 0.32567 0.0
O400 O 0.47813 0.72018 0.37611 0.0
O401 O 0.49177 0.70714 0.34428 0.0
C402 C 0.48069 0.70433 0.36229 0.0
C403 C 0.48497 0.75142 0.28659 0.0
O404 O 0.45725 0.77218 0.37848 0.0
O405 O 0.50684 0.72275 0.44687 0.0
O406 O 0.45585 0.79459 0.34821 0.0
O407 O 0.4572 0.72738 0.42775 0.0
O408 O 0.50303 0.75839 0.45703 0.0
O409 O 0.45233 0.76398 0.43047 0.0
O410 O 0.52509 0.73867 0.36867 0.0
O411 O 0.52637 0.7133 0.39582 0.0
C412 C 0.53204 0.78886 0.321 0.0
C413 C 0.5058 0.80549 0.39258 0.0
C414 C 0.97698 0.79307 0.63082 0.0
C415 C 0.97851 0.74962 0.70823 0.0
C416 C 0.03584 0.71897 0.68305 0.0
Mg417 Mg 0.99524 0.77708 0.58323 0.0
Mg418 Mg 0.99691 0.72447 0.57117 0.0
O419 O 0.00663 0.74618 0.59038 0.0
Mg420 Mg 0.99683 0.74356 0.62205 0.0
O421 O 0.98784 0.74373 0.65404 0.0
Mg422 Mg 0.00959 0.76612 0.66518 0.0
Mg423 Mg 0.98782 0.71664 0.66964 0.0
C424 C 0.0149 0.69363 0.61 0.0
O425 O 0.96633 0.72187 0.61593 0.0
O426 O 0.01268 0.77344 0.54909 0.0
O427 O 0.96665 0.69945 0.64623 0.0
O428 O 0.963 0.7649 0.56523 0.0
O429 O 0.01269 0.73685 0.54174 0.0
O430 O 0.96234 0.72804 0.56632 0.0
O431 O 0.02619 0.76441 0.63069 0.0
O432 O 0.02711 0.78824 0.60202 0.0
C433 C 0.03489 0.78096 0.62062 0.0
C434 C 0.01697 0.75697 0.53628 0.0
O435 O 0.01521 0.70948 0.6242 0.0
O436 O 0.98987 0.76445 0.69794 0.0
O437 O 0.00756 0.69605 0.59014 0.0
O438 O 0.03335 0.73989 0.68039 0.0
O439 O 0.97548 0.73006 0.70059 0.0
O440 O 0.02103 0.70552 0.67656 0.0
O441 O 0.97845 0.77666 0.6175 0.0
O442 O 0.98613 0.79216 0.65 0.0
C443 C 0.95326 0.7465 0.56135 0.0
C444 C 0.95904 0.70508 0.62702 0.0
C445 C 0.86368 0.98418 0.19776 0.0
C446 C 0.78952 0.97929 0.2468 0.0
C447 C 0.81931 0.0322 0.28184 0.0
Mg448 Mg 0.91162 0.00088 0.21275 0.0
Mg449 Mg 0.92813 0.99451 0.26421 0.0
O450 O 0.90699 0.00684 0.24531 0.0
Mg451 Mg 0.87572 0.99638 0.24865 0.0
O452 O 0.84396 0.98729 0.24923 0.0
Mg453 Mg 0.83113 0.01215 0.2307 0.0
Mg454 Mg 0.83099 0.98403 0.27732 0.0
C455 C 0.89207 0.01054 0.29878 0.0
O456 O 0.88341 0.96248 0.26553 0.0
O457 O 0.94536 0.01887 0.21639 0.0
O458 O 0.85485 0.95995 0.28974 0.0
O459 O 0.93049 0.96769 0.21931 0.0
O460 O 0.95599 0.01264 0.25177 0.0
O461 O 0.93283 0.96067 0.25558 0.0
O462 O 0.86532 0.02867 0.23241 0.0
O463 O 0.89181 0.03366 0.20698 0.0
C464 C 0.87385 0.03996 0.21657 0.0
C465 C 0.95935 0.02076 0.23236 0.0
O466 O 0.8763 0.01022 0.2844 0.0
O467 O 0.79852 0.99225 0.23237 0.0
O468 O 0.91191 0.00396 0.29459 0.0
O469 O 0.81888 0.0322 0.26066 0.0
O470 O 0.79883 0.9741 0.26529 0.0
O471 O 0.82701 0.01568 0.29272 0.0
O472 O 0.87781 0.98341 0.21356 0.0
O473 O 0.8444 0.99277 0.20063 0.0
C474 C 0.93593 0.95492 0.23552 0.0
C475 C 0.8733 0.95279 0.28174 0.0
C476 C 0.22241 0.86441 0.03097 0.0
C477 C 0.24047 0.95055 0.0235 0.0
C478 C 0.25182 0.93346 0.95576 0.0
Mg479 Mg 0.23819 0.82407 0.00031 0.0
Mg480 Mg 0.2872 0.82442 0.97721 0.0
O481 O 0.25928 0.83833 0.97869 0.0
Mg482 Mg 0.25852 0.8691 0.99098 0.0
O483 O 0.25477 0.89925 0.00458 0.0
Mg484 Mg 0.22313 0.90585 0.9957 0.0
Mg485 Mg 0.27516 0.92132 0.99847 0.0
C486 C 0.29556 0.86929 0.95068 0.0
O487 O 0.29301 0.8668 0.00829 0.0
O488 O 0.24131 0.79311 0.97821 0.0
O489 O 0.304 0.90261 0.00892 0.0
O490 O 0.26587 0.80967 0.02263 0.0
O491 O 0.27582 0.79329 0.96374 0.0
O492 O 0.29943 0.81767 0.00989 0.0
O493 O 0.22481 0.87392 0.97492 0.0
O494 O 0.21047 0.84012 0.97886 0.0
C495 C 0.20879 0.86037 0.97227 0.0
C496 C 0.25672 0.78439 0.96631 0.0
O497 O 0.27885 0.87923 0.9597 0.0
O498 O 0.22497 0.93743 0.01735 0.0
O499 O 0.30229 0.84989 0.95676 0.0
O500 O 0.23382 0.92748 0.9653 0.0
O501 O 0.26084 0.94744 0.01822 0.0
O502 O 0.27073 0.92966 0.96448 0.0
O503 O 0.23876 0.85639 0.02009 0.0
O504 O 0.21405 0.88343 0.02587 0.0
C505 C 0.2869 0.80961 0.02488 0.0
C506 C 0.30744 0.88185 0.01252 0.0
C507 C 0.12869 0.4658 0.21346 0.0
C508 C 0.04272 0.46822 0.23304 0.0
C509 C 0.05657 0.53499 0.25047 0.0
Mg510 Mg 0.16842 0.49565 0.2315 0.0
Mg511 Mg 0.16787 0.51498 0.282 0.0
O512 O 0.15346 0.51468 0.25446 0.0
Mg513 Mg 0.12301 0.50158 0.25299 0.0
O514 O 0.09329 0.48763 0.24831 0.0
Mg515 Mg 0.08605 0.49956 0.21773 0.0
Mg516 Mg 0.07119 0.49076 0.26947 0.0
C517 C 0.12123 0.5373 0.29372 0.0
O518 O 0.12605 0.48125 0.28622 0.0
O519 O 0.19837 0.51892 0.23551 0.0
O520 O 0.09029 0.47854 0.29726 0.0
O521 O 0.18509 0.47203 0.25708 0.0
O522 O 0.19782 0.53138 0.27072 0.0
O523 O 0.17744 0.48205 0.29165 0.0
O524 O 0.11734 0.52103 0.22055 0.0
O525 O 0.15127 0.51861 0.20603 0.0
C526 C 0.13101 0.52511 0.20475 0.0
C527 C 0.20662 0.53041 0.25135 0.0
O528 O 0.11163 0.5299 0.27617 0.0
O529 O 0.05532 0.4766 0.218 0.0
O530 O 0.14117 0.53191 0.29928 0.0
O531 O 0.06316 0.52788 0.23157 0.0
O532 O 0.04595 0.47134 0.2538 0.0
O533 O 0.06082 0.52447 0.26841 0.0
O534 O 0.13662 0.47472 0.23092 0.0
O535 O 0.10967 0.47161 0.20566 0.0
C536 C 0.18635 0.46865 0.27801 0.0
C537 C 0.11112 0.47537 0.30038 0.0
C538 C 0.69995 0.63575 0.02602 0.0
C539 C 0.74682 0.70961 0.0406 0.0
C540 C 0.77715 0.69218 0.97892 0.0
Mg541 Mg 0.71353 0.5933 0.99772 0.0
Mg542 Mg 0.76524 0.57697 0.99121 0.0
O543 O 0.74502 0.60012 0.98878 0.0
Mg544 Mg 0.74939 0.62851 0.00549 0.0
O545 O 0.75028 0.65774 0.02106 0.0
Mg546 Mg 0.72875 0.67467 0.0016 0.0
Mg547 Mg 0.77783 0.67132 0.02455 0.0
C548 C 0.79745 0.61725 0.98084 0.0
O549 O 0.77034 0.61459 0.03508 0.0
O550 O 0.71427 0.56442 0.97258 0.0
O551 O 0.79352 0.64334 0.04111 0.0
O552 O 0.7249 0.56831 0.02532 0.0
O553 O 0.74991 0.55386 0.96886 0.0
O554 O 0.76177 0.56473 0.02414 0.0
O555 O 0.7295 0.64476 0.97818 0.0
O556 O 0.70412 0.61914 0.97044 0.0
C557 C 0.71295 0.63816 0.96683 0.0
C558 C 0.7293 0.55187 0.96415 0.0
O559 O 0.78348 0.63201 0.98758 0.0
O560 O 0.73168 0.70276 0.02733 0.0
O561 O 0.79379 0.59631 0.98198 0.0
O562 O 0.75606 0.69176 0.98081 0.0
O563 O 0.76589 0.70017 0.04225 0.0
O564 O 0.78964 0.68237 0.99298 0.0
O565 O 0.71607 0.62257 0.02174 0.0
O566 O 0.70129 0.65652 0.02141 0.0
C567 C 0.74317 0.5608 0.03333 0.0
C568 C 0.78723 0.62331 0.04476 0.0
C569 C 0.20252 0.13121 0.51885 0.0
C570 C 0.25065 0.20457 0.53259 0.0
C571 C 0.28339 0.18494 0.47403 0.0
Mg572 Mg 0.21694 0.08707 0.49366 0.0
Mg573 Mg 0.26817 0.069 0.49301 0.0
O574 O 0.24915 0.09256 0.48666 0.0
Mg575 Mg 0.25298 0.12201 0.50161 0.0
O576 O 0.25356 0.152 0.51553 0.0
Mg577 Mg 0.23341 0.16851 0.49439 0.0
Mg578 Mg 0.28135 0.16487 0.51951 0.0
C579 C 0.30282 0.10765 0.48354 0.0
O580 O 0.27145 0.10943 0.53332 0.0
O581 O 0.21895 0.05696 0.47028 0.0
O582 O 0.29545 0.13765 0.5385 0.0
O583 O 0.22492 0.06346 0.52347 0.0
O584 O 0.25444 0.04522 0.47018 0.0
O585 O 0.26147 0.05848 0.52601 0.0
O586 O 0.23515 0.13746 0.47208 0.0
O587 O 0.2104 0.11124 0.46443 0.0
C588 C 0.21932 0.13007 0.46015 0.0
C589 C 0.23426 0.04366 0.46368 0.0
O590 O 0.28847 0.12341 0.48605 0.0
O591 O 0.23561 0.19746 0.51931 0.0
O592 O 0.29819 0.0871 0.48671 0.0
O593 O 0.26223 0.18495 0.47511 0.0
O594 O 0.26947 0.19484 0.53513 0.0
O595 O 0.29503 0.17435 0.48826 0.0
O596 O 0.21863 0.11767 0.51597 0.0
O597 O 0.20436 0.1517 0.51335 0.0
C598 C 0.24198 0.05576 0.53361 0.0
C599 C 0.28812 0.11823 0.54332 0.0
C600 C 0.37061 0.53872 0.72102 0.0
C601 C 0.45579 0.52714 0.74327 0.0
C602 C 0.43897 0.45883 0.74156 0.0
Mg603 Mg 0.32966 0.50625 0.73153 0.0
Mg604 Mg 0.32982 0.47942 0.77873 0.0
O605 O 0.34366 0.48284 0.75107 0.0
Mg606 Mg 0.37432 0.49484 0.75261 0.0
O607 O 0.40466 0.50798 0.75174 0.0
Mg608 Mg 0.41195 0.5034 0.71938 0.0
Mg609 Mg 0.42549 0.49617 0.77144 0.0
C610 C 0.37416 0.452 0.78628 0.0
O611 O 0.37113 0.50746 0.7887 0.0
O612 O 0.2991 0.48311 0.73184 0.0
O613 O 0.4058 0.49976 0.80105 0.0
O614 O 0.31354 0.52551 0.76018 0.0
O615 O 0.29964 0.46612 0.7654 0.0
O616 O 0.32169 0.51085 0.7931 0.0
O617 O 0.38004 0.48283 0.71755 0.0
O618 O 0.34666 0.48776 0.70245 0.0
C619 C 0.367 0.48159 0.7009 0.0
C620 C 0.29077 0.46974 0.74635 0.0
O621 O 0.38406 0.46161 0.76988 0.0
O622 O 0.44337 0.52411 0.72622 0.0
O623 O 0.35498 0.4581 0.79335 0.0
O624 O 0.43316 0.47173 0.72564 0.0
O625 O 0.45195 0.51809 0.76222 0.0
O626 O 0.43463 0.46355 0.76163 0.0
O627 O 0.36188 0.52622 0.7358 0.0
O628 O 0.38987 0.5344 0.71301 0.0
C629 C 0.31281 0.52613 0.78133 0.0
C630 C 0.3855 0.50535 0.80439 0.0
C631 C 0.72231 0.37159 0.5384 0.0
C632 C 0.7384 0.45692 0.52829 0.0
C633 C 0.74311 0.44032 0.4595 0.0
Mg634 Mg 0.73562 0.33049 0.50828 0.0
Mg635 Mg 0.78165 0.32977 0.47967 0.0
O636 O 0.75431 0.34396 0.48407 0.0
Mg637 Mg 0.75451 0.37535 0.49498 0.0
O638 O 0.75162 0.40604 0.50756 0.0
Mg639 Mg 0.71914 0.41192 0.5021 0.0
Mg640 Mg 0.77097 0.42856 0.49971 0.0
C641 C 0.78733 0.3738 0.45101 0.0
O642 O 0.79028 0.37414 0.50922 0.0
O643 O 0.73688 0.29825 0.48825 0.0
O644 O 0.80082 0.41011 0.50766 0.0
O645 O 0.76569 0.31651 0.52796 0.0
O646 O 0.7688 0.29813 0.46885 0.0
O647 O 0.79751 0.32351 0.51085 0.0
O648 O 0.71957 0.37937 0.48184 0.0
O649 O 0.70587 0.34565 0.48843 0.0
C650 C 0.70362 0.36553 0.48082 0.0
C651 C 0.75068 0.28887 0.47499 0.0
O652 O 0.77172 0.38421 0.4614 0.0
O653 O 0.72257 0.44374 0.52322 0.0
O654 O 0.7945 0.35453 0.45697 0.0
O655 O 0.72641 0.43333 0.4706 0.0
O656 O 0.75828 0.45409 0.52129 0.0
O657 O 0.76292 0.43752 0.46642 0.0
O658 O 0.73779 0.36358 0.52635 0.0
O659 O 0.7131 0.39022 0.53346 0.0
C660 C 0.78685 0.31585 0.52744 0.0
C661 C 0.80481 0.38949 0.51164 0.0
C662 C 0.63325 0.02883 0.70499 0.0
C663 C 0.70995 0.03745 0.74931 0.0
C664 C 0.69345 0.97468 0.7763 0.0
Mg665 Mg 0.59009 0.00113 0.71899 0.0
Mg666 Mg 0.57676 0.98993 0.77077 0.0
O667 O 0.59865 0.98924 0.74922 0.0
Mg668 Mg 0.62778 0.00463 0.75336 0.0
O669 O 0.65763 0.01915 0.75405 0.0
Mg670 Mg 0.67278 0.00104 0.73046 0.0
Mg671 Mg 0.67294 0.02013 0.78107 0.0
C672 C 0.6183 0.97692 0.80062 0.0
O673 O 0.61583 0.03242 0.77713 0.0
O674 O 0.56051 0.97667 0.71942 0.0
O675 O 0.64603 0.0357 0.79921 0.0
O676 O 0.56643 0.0282 0.73402 0.0
O677 O 0.55248 0.96925 0.75515 0.0
O678 O 0.56423 0.02282 0.77067 0.0
O679 O 0.64202 0.97862 0.73068 0.0
O680 O 0.61463 0.97444 0.70604 0.0
C681 C 0.63406 0.96944 0.71337 0.0
C682 C 0.54886 0.96686 0.73436 0.0
O683 O 0.63256 0.98414 0.78637 0.0
O684 O 0.70175 0.02561 0.73371 0.0
O685 O 0.59726 0.97856 0.79786 0.0
O686 O 0.69124 0.978 0.75544 0.0
O687 O 0.70168 0.03801 0.76893 0.0
O688 O 0.68454 0.98772 0.7903 0.0
O689 O 0.6204 0.02396 0.72126 0.0
O690 O 0.65384 0.02339 0.70551 0.0
C691 C 0.55958 0.03408 0.75328 0.0
C692 C 0.62571 0.04021 0.79436 0.0
C693 C 0.46825 0.29314 0.13497 0.0
C694 C 0.47016 0.24793 0.21097 0.0
C695 C 0.53141 0.22308 0.18714 0.0
Mg696 Mg 0.49036 0.28162 0.08789 0.0
Mg697 Mg 0.50093 0.23051 0.07287 0.0
O698 O 0.50479 0.25199 0.09434 0.0
Mg699 Mg 0.49384 0.24667 0.12541 0.0
O700 O 0.48325 0.24448 0.15689 0.0
Mg701 Mg 0.50187 0.26851 0.17002 0.0
Mg702 Mg 0.48404 0.21713 0.172 0.0
C703 C 0.52131 0.20103 0.11178 0.0
O704 O 0.46632 0.22201 0.11684 0.0
O705 O 0.51003 0.28253 0.05476 0.0
O706 O 0.46557 0.19923 0.14686 0.0
O707 O 0.46134 0.26622 0.06754 0.0
O708 O 0.51725 0.24703 0.04591 0.0
O709 O 0.46668 0.22975 0.06424 0.0
O710 O 0.52028 0.27044 0.13651 0.0
O711 O 0.51936 0.29539 0.10878 0.0
C712 C 0.52716 0.28843 0.12746 0.0
C713 C 0.51822 0.26786 0.04167 0.0
O714 O 0.51609 0.21505 0.12697 0.0
O715 O 0.4809 0.26378 0.20162 0.0
O716 O 0.51606 0.20361 0.09127 0.0
O717 O 0.52747 0.24387 0.18514 0.0
O718 O 0.46893 0.22843 0.2027 0.0
O719 O 0.51771 0.20877 0.18001 0.0
O720 O 0.47209 0.27749 0.1212 0.0
O721 O 0.47653 0.29253 0.15456 0.0
C722 C 0.45499 0.24715 0.0609 0.0
C723 C 0.45924 0.20462 0.12712 0.0
C724 C 0.09482 0.34767 0.64014 0.0
C725 C 0.0733 0.3506 0.63161 0.0
C726 C 0.09796 0.33881 0.66145 0.0
C727 C 0.07505 0.30461 0.70481 0.0
H728 H 0.09259 0.34865 0.74796 0.0
C729 C 0.04914 0.31907 0.79728 0.0
C730 C 0.05216 0.29736 0.80554 0.0
C731 C 0.06027 0.326 0.77809 0.0
C732 C 0.0881 0.33609 0.73605 0.0
H733 H 0.03836 0.34561 0.63791 0.0
H734 H 0.04394 0.32885 0.67469 0.0
H735 H 0.0949 0.35728 0.70808 0.0
H736 H 0.07207 0.26738 0.80234 0.0
H737 H 0.09109 0.27944 0.76877 0.0
H738 H 0.0675 0.28366 0.73254 0.0
C739 C 0.05829 0.33375 0.66504 0.0
C740 C 0.08947 0.34097 0.71334 0.0
C741 C 0.0551 0.3432 0.64404 0.0
C742 C 0.06895 0.28404 0.79618 0.0
C743 C 0.07985 0.29088 0.77689 0.0
C744 C 0.07415 0.29955 0.72743 0.0
C745 C 0.07966 0.33217 0.67417 0.0
C746 C 0.08229 0.32549 0.69763 0.0
C747 C 0.07454 0.31134 0.76692 0.0
C748 C 0.08002 0.31547 0.74329 0.0
H749 H 0.10908 0.35372 0.63103 0.0
H750 H 0.11455 0.33781 0.66829 0.0
H751 H 0.0693 0.29254 0.69293 0.0
H752 H 0.03657 0.3299 0.80422 0.0
H753 H 0.05596 0.34194 0.7708 0.0
C754 C 0.61512 0.72763 0.63287 0.0
C755 C 0.63136 0.71084 0.63307 0.0
C756 C 0.59965 0.72886 0.61563 0.0
C757 C 0.59315 0.71097 0.55769 0.0
H758 H 0.53241 0.73097 0.56535 0.0
C759 C 0.53154 0.71298 0.4854 0.0
C760 C 0.52046 0.73333 0.48223 0.0
C761 C 0.5431 0.7087 0.50501 0.0
C762 C 0.54936 0.7254 0.56305 0.0
H763 H 0.6433 0.68134 0.61636 0.0
H764 H 0.616 0.68307 0.58678 0.0
H765 H 0.55624 0.72596 0.5979 0.0
H766 H 0.51202 0.76478 0.49753 0.0
H767 H 0.53226 0.7572 0.53182 0.0
H768 H 0.58631 0.71037 0.52293 0.0
C769 C 0.61563 0.69577 0.5994 0.0
C770 C 0.563 0.72261 0.58161 0.0
C771 C 0.63123 0.69473 0.61638 0.0
C772 C 0.52053 0.749 0.49939 0.0
C773 C 0.53195 0.74462 0.51909 0.0
C774 C 0.57949 0.71355 0.53924 0.0
C775 C 0.60002 0.71315 0.5985 0.0
C776 C 0.58509 0.71545 0.5791 0.0
C777 C 0.54363 0.72459 0.52189 0.0
C778 C 0.55753 0.72089 0.54173 0.0
H779 H 0.61488 0.74026 0.64555 0.0
H780 H 0.58796 0.74257 0.61532 0.0
H781 H 0.61022 0.70595 0.55509 0.0
H782 H 0.53175 0.70053 0.47254 0.0
H783 H 0.55185 0.69304 0.5069 0.0
C784 C 0.95401 0.15671 0.61113 0.0
C785 C 0.95836 0.13521 0.61946 0.0
C786 C 0.95458 0.17502 0.62529 0.0
C787 C 0.9418 0.18776 0.68115 0.0
H788 H 0.98764 0.23241 0.68453 0.0
C789 C 0.97676 0.21807 0.76161 0.0
C790 C 0.97825 0.24089 0.76562 0.0
C791 C 0.97043 0.21049 0.74086 0.0
C792 C 0.97434 0.22048 0.6834 0.0
H793 H 0.96836 0.11636 0.64872 0.0
H794 H 0.96913 0.14814 0.67317 0.0
H795 H 0.985 0.20893 0.65144 0.0
H796 H 0.97442 0.27375 0.75114 0.0
H797 H 0.96393 0.2602 0.71416 0.0
H798 H 0.9322 0.19792 0.71369 0.0
C799 C 0.96507 0.15074 0.65582 0.0
C800 C 0.97287 0.20711 0.66458 0.0
C801 C 0.96463 0.13259 0.64179 0.0
C802 C 0.97326 0.25605 0.74843 0.0
C803 C 0.96735 0.24838 0.72738 0.0
C804 C 0.94327 0.20102 0.69986 0.0
C805 C 0.95943 0.17192 0.64785 0.0
C806 C 0.95725 0.19 0.66391 0.0
C807 C 0.96578 0.22553 0.72357 0.0
C808 C 0.96024 0.21669 0.70158 0.0
H809 H 0.94913 0.15927 0.594 0.0
H810 H 0.95027 0.19134 0.61892 0.0
H811 H 0.92961 0.17464 0.68084 0.0
H812 H 0.9804 0.20603 0.77457 0.0
H813 H 0.96958 0.19276 0.73817 0.0
C814 C 0.35737 0.76469 0.6097 0.0
C815 C 0.34396 0.78383 0.60994 0.0
C816 C 0.36585 0.75664 0.58962 0.0
C817 C 0.35663 0.76124 0.52842 0.0
H818 H 0.41596 0.73656 0.52466 0.0
C819 C 0.41015 0.75889 0.44932 0.0
C820 C 0.4252 0.74121 0.44663 0.0
C821 C 0.39614 0.75959 0.46778 0.0
C822 C 0.39917 0.743 0.52549 0.0
H823 H 0.32989 0.81016 0.58954 0.0
H824 H 0.34527 0.79675 0.55491 0.0
H825 H 0.40129 0.74762 0.56059 0.0
H826 H 0.43558 0.70922 0.45988 0.0
H827 H 0.41114 0.71052 0.49213 0.0
H828 H 0.35506 0.7576 0.49308 0.0
C829 C 0.3486 0.78736 0.56995 0.0
C830 C 0.39076 0.74939 0.54613 0.0
C831 C 0.33997 0.79522 0.58989 0.0
C832 C 0.42419 0.72309 0.46144 0.0
C833 C 0.41038 0.72393 0.48007 0.0
C834 C 0.36515 0.75508 0.50777 0.0
C835 C 0.36125 0.7677 0.56942 0.0
C836 C 0.36955 0.75904 0.54781 0.0
C837 C 0.39706 0.7427 0.48399 0.0
C838 C 0.38665 0.74624 0.50603 0.0
H839 H 0.36056 0.75545 0.62487 0.0
H840 H 0.37545 0.7414 0.58986 0.0
H841 H 0.33999 0.76806 0.52911 0.0
H842 H 0.41049 0.77305 0.43814 0.0
H843 H 0.38602 0.77426 0.47031 0.0
C844 C 0.09529 0.65422 0.86357 0.0
C845 C 0.07413 0.65196 0.873 0.0
C846 C 0.09789 0.66515 0.84315 0.0
C847 C 0.07112 0.70252 0.80245 0.0
H848 H 0.09567 0.66353 0.75763 0.0
C849 C 0.05295 0.68885 0.70653 0.0
C850 C 0.05284 0.71106 0.69917 0.0
C851 C 0.06305 0.68297 0.72667 0.0
C852 C 0.08907 0.67472 0.76999 0.0
H853 H 0.03933 0.65993 0.86927 0.0
H854 H 0.04395 0.67998 0.83412 0.0
H855 H 0.09835 0.65315 0.79694 0.0
H856 H 0.06601 0.74382 0.70574 0.0
H857 H 0.08336 0.73351 0.74084 0.0
H858 H 0.06108 0.7237 0.77558 0.0
C859 C 0.05851 0.67333 0.8424 0.0
C860 C 0.09071 0.66887 0.79247 0.0
C861 C 0.05586 0.66199 0.86253 0.0
C862 C 0.06542 0.72662 0.71101 0.0
C863 C 0.07529 0.72078 0.73124 0.0
C864 C 0.06981 0.70855 0.78004 0.0
C865 C 0.07941 0.67427 0.83209 0.0
C866 C 0.08117 0.68241 0.80886 0.0
C867 C 0.07317 0.69919 0.73982 0.0
C868 C 0.07821 0.69442 0.76353 0.0
H869 H 0.1095 0.64607 0.87112 0.0
H870 H 0.11416 0.66564 0.83554 0.0
H871 H 0.06362 0.71323 0.81474 0.0
H872 H 0.04361 0.67638 0.69778 0.0
H873 H 0.06121 0.66616 0.73283 0.0
C874 C 0.83979 0.70921 0.40002 0.0
C875 C 0.85251 0.70244 0.38166 0.0
C876 C 0.84992 0.71654 0.41936 0.0
C877 C 0.89967 0.71018 0.45225 0.0
H878 H 0.87842 0.7627 0.48276 0.0
C879 C 0.93024 0.76354 0.53098 0.0
C880 C 0.93417 0.74586 0.54589 0.0
C881 C 0.91781 0.7602 0.51166 0.0
C882 C 0.8845 0.74803 0.4744 0.0
H883 H 0.88597 0.69829 0.36922 0.0
H884 H 0.90389 0.71064 0.40363 0.0
H885 H 0.86357 0.75354 0.44609 0.0
H886 H 0.92572 0.71172 0.55364 0.0
H887 H 0.9041 0.70604 0.52007 0.0
H888 H 0.92029 0.7044 0.48065 0.0
C889 C 0.88596 0.71035 0.40274 0.0
C890 C 0.87603 0.74278 0.45348 0.0
C891 C 0.87574 0.70333 0.38309 0.0
C892 C 0.92331 0.72561 0.54235 0.0
C893 C 0.91108 0.72226 0.52302 0.0
C894 C 0.90787 0.71524 0.47328 0.0
C895 C 0.87308 0.71706 0.42103 0.0
C896 C 0.88344 0.72372 0.44227 0.0
C897 C 0.90917 0.73916 0.50698 0.0
C898 C 0.90023 0.73409 0.48466 0.0
H899 H 0.82184 0.70899 0.39947 0.0
H900 H 0.83959 0.72135 0.43324 0.0
H901 H 0.90553 0.69531 0.44409 0.0
H902 H 0.93835 0.77934 0.53318 0.0
H903 H 0.91643 0.77358 0.49962 0.0
C904 C 0.94257 0.83769 0.88442 0.0
C905 C 0.95585 0.85627 0.87999 0.0
C906 C 0.94337 0.81933 0.87041 0.0
C907 C 0.97597 0.79 0.82917 0.0
H908 H 0.92276 0.7865 0.7932 0.0
C909 C 0.96162 0.77654 0.73435 0.0
C910 C 0.96978 0.75512 0.73028 0.0
C911 C 0.95603 0.78285 0.75585 0.0
C912 C 0.9375 0.78688 0.80346 0.0
H913 H 0.98125 0.86987 0.85854 0.0
H914 H 0.98326 0.8374 0.83455 0.0
H915 H 0.92236 0.8083 0.82737 0.0
H916 H 0.978 0.72326 0.74513 0.0
H917 H 0.96913 0.73476 0.78317 0.0
H918 H 0.99142 0.76946 0.80468 0.0
C919 C 0.97209 0.83716 0.84864 0.0
C920 C 0.93727 0.79923 0.82296 0.0
C921 C 0.97086 0.85572 0.86223 0.0
C922 C 0.97155 0.73982 0.74791 0.0
C923 C 0.96654 0.74635 0.76957 0.0
C924 C 0.97607 0.77724 0.80994 0.0
C925 C 0.95795 0.8191 0.85227 0.0
C926 C 0.95676 0.80162 0.8354 0.0
C927 C 0.95905 0.76801 0.77367 0.0
C928 C 0.9571 0.77639 0.79648 0.0
H929 H 0.93072 0.83788 0.89795 0.0
H930 H 0.93221 0.8056 0.87332 0.0
H931 H 0.9912 0.79178 0.8385 0.0
H932 H 0.96013 0.78858 0.72098 0.0
H933 H 0.95054 0.79973 0.75872 0.0
C934 C 0.08775 0.77845 0.34745 0.0
C935 C 0.10091 0.79758 0.34764 0.0
C936 C 0.07241 0.7747 0.36441 0.0
C937 C 0.04511 0.79941 0.4137 0.0
H938 H 0.06061 0.74325 0.44162 0.0
C939 C 0.03165 0.78274 0.50696 0.0
C940 C 0.02505 0.76137 0.51353 0.0
C941 C 0.03749 0.78706 0.48491 0.0
C942 C 0.05568 0.75881 0.43392 0.0
H943 H 0.10664 0.8289 0.36404 0.0
H944 H 0.0799 0.8224 0.39353 0.0
H945 H 0.07372 0.75137 0.4044 0.0
H946 H 0.01929 0.72783 0.50204 0.0
H947 H 0.02908 0.73547 0.46375 0.0
H948 H 0.02746 0.80702 0.44353 0.0
C949 C 0.08142 0.81024 0.38047 0.0
C950 C 0.06314 0.76342 0.41251 0.0
C951 C 0.09687 0.81389 0.36367 0.0
C952 C 0.02456 0.74443 0.49765 0.0
C953 C 0.03018 0.74879 0.47564 0.0
C954 C 0.03749 0.79472 0.43511 0.0
C955 C 0.06988 0.79014 0.38161 0.0
C956 C 0.05836 0.78396 0.40239 0.0
C957 C 0.03667 0.77015 0.46898 0.0
C958 C 0.04314 0.77456 0.44563 0.0
H959 H 0.09051 0.76562 0.33526 0.0
H960 H 0.06349 0.75917 0.36482 0.0
H961 H 0.04113 0.81533 0.4062 0.0
H962 H 0.03218 0.79616 0.51878 0.0
H963 H 0.04283 0.80361 0.4804 0.0
C964 C 0.65041 0.0445 0.36853 0.0
C965 C 0.63644 0.06311 0.36907 0.0
C966 C 0.67137 0.04594 0.35886 0.0
C967 C 0.7086 0.08313 0.32567 0.0
H968 H 0.75297 0.04494 0.35276 0.0
C969 C 0.80542 0.04946 0.31689 0.0
C970 C 0.80553 0.04869 0.29362 0.0
C971 C 0.78744 0.05893 0.32809 0.0
C972 C 0.74113 0.05628 0.34528 0.0
H973 H 0.6329 0.09765 0.35963 0.0
H974 H 0.66984 0.10064 0.34372 0.0
H975 H 0.71583 0.04496 0.36713 0.0
H976 H 0.78857 0.0602 0.26386 0.0
H977 H 0.75702 0.07524 0.28299 0.0
H978 H 0.73432 0.09544 0.30468 0.0
C979 C 0.66455 0.08463 0.34991 0.0
C980 C 0.71943 0.05578 0.35319 0.0
C981 C 0.6433 0.08295 0.35898 0.0
C982 C 0.78886 0.06015 0.28183 0.0
C983 C 0.77062 0.06898 0.29296 0.0
C984 C 0.73051 0.08412 0.31815 0.0
C985 C 0.67915 0.06631 0.35034 0.0
C986 C 0.70264 0.06851 0.34294 0.0
C987 C 0.76895 0.06715 0.3162 0.0
C988 C 0.74695 0.07004 0.32725 0.0
H989 H 0.64542 0.02906 0.37632 0.0
H990 H 0.6817 0.0312 0.35874 0.0
H991 H 0.69627 0.09333 0.31736 0.0
H992 H 0.81834 0.04125 0.32645 0.0
H993 H 0.78736 0.05825 0.34604 0.0
C994 C 0.30679 0.1017 0.86929 0.0
C995 C 0.29172 0.11949 0.86794 0.0
C996 C 0.30065 0.08176 0.87921 0.0
C997 C 0.25167 0.04806 0.88994 0.0
H998 H 0.29353 0.01236 0.92379 0.0
C999 C 0.23326 0.96481 0.93581 0.0
C1000 C 0.25096 0.94956 0.93723 0.0
C1001 C 0.23589 0.98486 0.92433 0.0
C1002 C 0.28177 0.022 0.91406 0.0
H1003 H 0.25875 0.13084 0.87678 0.0
H1004 H 0.24795 0.09572 0.89449 0.0
H1005 H 0.30291 0.05026 0.91379 0.0
H1006 H 0.28384 0.94164 0.925 0.0
H1007 H 0.28821 0.97636 0.90455 0.0
H1008 H 0.23046 0.01959 0.89049 0.0
C1009 C 0.26448 0.09726 0.88764 0.0
C1010 C 0.28708 0.04377 0.90849 0.0
C1011 C 0.27073 0.11741 0.87781 0.0
C1012 C 0.27008 0.95329 0.92449 0.0
C1013 C 0.27265 0.97323 0.91295 0.0
C1014 C 0.24628 0.02619 0.89566 0.0
C1015 C 0.27924 0.0791 0.88796 0.0
C1016 C 0.27229 0.05694 0.89606 0.0
C1017 C 0.25618 0.98977 0.91402 0.0
C1018 C 0.26149 0.01285 0.90743 0.0
H1019 H 0.32307 0.10287 0.86178 0.0
H1020 H 0.31235 0.06806 0.87898 0.0
H1021 H 0.24003 0.05775 0.88013 0.0
H1022 H 0.21829 0.96236 0.94544 0.0
H1023 H 0.22286 0.99726 0.92529 0.0
C1024 C 0.34415 0.43481 0.38002 0.0
C1025 C 0.36537 0.43152 0.37083 0.0
C1026 C 0.32515 0.4318 0.36738 0.0
C1027 C 0.3037 0.43315 0.3111 0.0
H1028 H 0.25247 0.4067 0.33965 0.0
C1029 C 0.21773 0.44198 0.27187 0.0
C1030 C 0.20256 0.45204 0.28651 0.0
C1031 C 0.23708 0.43189 0.27996 0.0
C1032 C 0.26664 0.41399 0.33137 0.0
H1033 H 0.38306 0.42273 0.34078 0.0
H1034 H 0.34943 0.41782 0.31835 0.0
H1035 H 0.28872 0.40423 0.35751 0.0
H1036 H 0.19452 0.45686 0.32124 0.0
H1037 H 0.22807 0.43919 0.33529 0.0
H1038 H 0.28144 0.44382 0.28546 0.0
C1039 C 0.34779 0.4226 0.33557 0.0
C1040 C 0.28739 0.4126 0.34159 0.0
C1041 C 0.36701 0.42547 0.34837 0.0
C1042 C 0.20593 0.4495 0.30947 0.0
C1043 C 0.22519 0.43928 0.31755 0.0
C1044 C 0.28292 0.43451 0.30084 0.0
C1045 C 0.32665 0.42547 0.34509 0.0
C1046 C 0.30595 0.42296 0.33202 0.0
C1047 C 0.2415 0.43139 0.30284 0.0
C1048 C 0.264 0.42569 0.31129 0.0
H1049 H 0.34206 0.43957 0.39719 0.0
H1050 H 0.30917 0.43473 0.37508 0.0
H1051 H 0.31765 0.44137 0.30336 0.0
H1052 H 0.21558 0.4434 0.25407 0.0
H1053 H 0.24914 0.42557 0.26824 0.0
C1054 C 0.69148 0.37855 0.87208 0.0
C1055 C 0.68005 0.37875 0.85179 0.0
C1056 C 0.69452 0.39811 0.88384 0.0
C1057 C 0.69357 0.45941 0.87689 0.0
H1058 H 0.69787 0.45726 0.9411 0.0
C1059 C 0.70234 0.53465 0.93781 0.0
C1060 C 0.7225 0.5336 0.94952 0.0
C1061 C 0.69551 0.51673 0.92494 0.0
C1062 C 0.6966 0.45804 0.92317 0.0
H1063 H 0.66228 0.39954 0.82817 0.0
H1064 H 0.66678 0.43366 0.84916 0.0
H1065 H 0.68748 0.42401 0.92096 0.0
H1066 H 0.75128 0.51305 0.95693 0.0
H1067 H 0.73893 0.48156 0.93497 0.0
H1068 H 0.70224 0.4938 0.87951 0.0
C1069 C 0.67401 0.41848 0.85569 0.0
C1070 C 0.69085 0.43899 0.91158 0.0
C1071 C 0.6713 0.3989 0.84371 0.0
C1072 C 0.73575 0.51441 0.94798 0.0
C1073 C 0.72868 0.49638 0.93554 0.0
C1074 C 0.69889 0.4786 0.88858 0.0
C1075 C 0.68584 0.41837 0.87584 0.0
C1076 C 0.68978 0.43926 0.88823 0.0
C1077 C 0.7085 0.49738 0.92404 0.0
C1078 C 0.70087 0.47787 0.91174 0.0
H1079 H 0.69866 0.36333 0.87863 0.0
H1080 H 0.70419 0.39735 0.89896 0.0
H1081 H 0.69319 0.46025 0.85894 0.0
H1082 H 0.69184 0.54926 0.93866 0.0
H1083 H 0.67986 0.51774 0.91615 0.0
C1084 C 0.62407 0.96014 0.15881 0.0
C1085 C 0.61275 0.94046 0.15423 0.0
C1086 C 0.63824 0.96126 0.177 0.0
C1087 C 0.66398 0.96015 0.22062 0.0
H1088 H 0.71163 0.91816 0.20943 0.0
C1089 C 0.75229 0.96594 0.25908 0.0
C1090 C 0.76752 0.97013 0.2419 0.0
C1091 C 0.73097 0.95844 0.25417 0.0
C1092 C 0.69825 0.92964 0.21313 0.0
H1093 H 0.6063 0.90689 0.16555 0.0
H1094 H 0.63196 0.90861 0.19708 0.0
H1095 H 0.67551 0.91288 0.19193 0.0
H1096 H 0.77289 0.96898 0.20637 0.0
H1097 H 0.73587 0.95525 0.19788 0.0
H1098 H 0.68725 0.97757 0.24083 0.0
C1099 C 0.62943 0.92324 0.18682 0.0
C1100 C 0.6776 0.92657 0.20326 0.0
C1101 C 0.61481 0.92229 0.16886 0.0
C1102 C 0.76141 0.96599 0.21988 0.0
C1103 C 0.74036 0.95799 0.21505 0.0
C1104 C 0.68454 0.96298 0.23083 0.0
C1105 C 0.64168 0.94257 0.19065 0.0
C1106 C 0.66065 0.94239 0.20609 0.0
C1107 C 0.72491 0.95443 0.2321 0.0
C1108 C 0.70208 0.9483 0.22628 0.0
H1109 H 0.62264 0.97436 0.14778 0.0
H1110 H 0.64771 0.97625 0.17945 0.0
H1111 H 0.65113 0.97255 0.22297 0.0
H1112 H 0.75662 0.96912 0.2762 0.0
H1113 H 0.71919 0.95593 0.2675 0.0
C1114 C 0.20602 0.12976 0.11137 0.0
C1115 C 0.19355 0.12882 0.13105 0.0
C1116 C 0.20957 0.11063 0.09892 0.0
C1117 C 0.1891 0.05602 0.0856 0.0
H1118 H 0.25093 0.03949 0.07865 0.0
C1119 C 0.21518 0.97134 0.04911 0.0
C1120 C 0.23456 0.97057 0.03622 0.0
C1121 C 0.20954 0.99056 0.06073 0.0
C1122 C 0.23358 0.04398 0.08001 0.0
H1123 H 0.174 0.10748 0.15247 0.0
H1124 H 0.17971 0.07413 0.1302 0.0
H1125 H 0.24127 0.07388 0.09725 0.0
H1126 H 0.26293 0.98942 0.02491 0.0
H1127 H 0.25268 0.02311 0.04422 0.0
H1128 H 0.18128 0.02661 0.06773 0.0
C1129 C 0.18693 0.08962 0.12468 0.0
C1130 C 0.22809 0.06365 0.09079 0.0
C1131 C 0.18376 0.10865 0.13742 0.0
C1132 C 0.24806 0.9894 0.03499 0.0
C1133 C 0.24221 0.00872 0.04621 0.0
C1134 C 0.19458 0.03652 0.07437 0.0
C1135 C 0.20031 0.09037 0.10565 0.0
C1136 C 0.20584 0.0698 0.09369 0.0
C1137 C 0.22293 0.00957 0.05934 0.0
C1138 C 0.21692 0.03022 0.07144 0.0
H1139 H 0.21387 0.14503 0.10612 0.0
H1140 H 0.21989 0.11155 0.08422 0.0
H1141 H 0.17181 0.06053 0.08765 0.0
H1142 H 0.20451 0.95701 0.05042 0.0
H1143 H 0.19479 0.99038 0.07096 0.0
C1144 C 0.38524 0.56222 0.17324 0.0
C1145 C 0.37849 0.5684 0.15171 0.0
C1146 C 0.37038 0.56391 0.19109 0.0
C1147 C 0.31564 0.58852 0.20678 0.0
H1148 H 0.30683 0.53334 0.23894 0.0
C1149 C 0.23179 0.55112 0.22608 0.0
C1150 C 0.22764 0.54198 0.24713 0.0
C1151 C 0.25255 0.55981 0.22103 0.0
C1152 C 0.30939 0.54908 0.23056 0.0
H1153 H 0.35143 0.58244 0.13229 0.0
H1154 H 0.32584 0.58514 0.16294 0.0
H1155 H 0.34088 0.53881 0.2177 0.0
H1156 H 0.24162 0.53514 0.27962 0.0
H1157 H 0.27851 0.54965 0.27037 0.0
H1158 H 0.28322 0.59786 0.21799 0.0
C1159 C 0.34248 0.57911 0.1663 0.0
C1160 C 0.32891 0.55225 0.21843 0.0
C1161 C 0.3571 0.57724 0.14859 0.0
C1162 C 0.24441 0.54228 0.26332 0.0
C1163 C 0.26545 0.55048 0.25805 0.0
C1164 C 0.29607 0.58523 0.21864 0.0
C1165 C 0.34874 0.57216 0.1877 0.0
C1166 C 0.33167 0.57151 0.20545 0.0
C1167 C 0.26971 0.55908 0.23677 0.0
C1168 C 0.29236 0.56507 0.22974 0.0
H1169 H 0.40166 0.55544 0.17613 0.0
H1170 H 0.37567 0.55843 0.20742 0.0
H1171 H 0.31754 0.60376 0.19735 0.0
H1172 H 0.2191 0.55108 0.21334 0.0
H1173 H 0.25552 0.5661 0.2044 0.0
C1174 C 0.75911 0.37598 0.11377 0.0
C1175 C 0.77957 0.37379 0.12472 0.0
C1176 C 0.75342 0.39599 0.10318 0.0
C1177 C 0.77725 0.44807 0.08142 0.0
H1178 H 0.72074 0.47471 0.09727 0.0
C1179 C 0.76216 0.53898 0.06298 0.0
C1180 C 0.74277 0.54365 0.05088 0.0
C1181 C 0.76451 0.51885 0.07427 0.0
C1182 C 0.7365 0.4674 0.09263 0.0
H1183 H 0.81062 0.39007 0.13211 0.0
H1184 H 0.8009 0.42464 0.1135 0.0
H1185 H 0.7293 0.43662 0.1091 0.0
H1186 H 0.7097 0.53211 0.04316 0.0
H1187 H 0.7139 0.49678 0.0628 0.0
H1188 H 0.78463 0.47866 0.06511 0.0
C1189 C 0.78917 0.41112 0.11308 0.0
C1190 C 0.74133 0.44559 0.09923 0.0
C1191 C 0.79472 0.39134 0.1238 0.0
C1192 C 0.72484 0.52893 0.05234 0.0
C1193 C 0.72727 0.50865 0.06354 0.0
C1194 C 0.77246 0.46977 0.07488 0.0
C1195 C 0.76828 0.41388 0.10313 0.0
C1196 C 0.76192 0.43587 0.09397 0.0
C1197 C 0.74759 0.50296 0.07354 0.0
C1198 C 0.75222 0.47983 0.08073 0.0
H1199 H 0.74708 0.36273 0.11442 0.0
H1200 H 0.73728 0.39766 0.09545 0.0
H1201 H 0.79309 0.44089 0.07683 0.0
H1202 H 0.77611 0.55021 0.06241 0.0
H1203 H 0.78011 0.51516 0.08245 0.0
C1204 C 0.35327 0.63428 0.08093 0.0
C1205 C 0.37407 0.6339 0.07034 0.0
C1206 C 0.34211 0.65445 0.08425 0.0
C1207 C 0.35241 0.71477 0.08685 0.0
H1208 H 0.29219 0.72164 0.06547 0.0
C1209 C 0.31966 0.79194 0.04345 0.0
C1210 C 0.29677 0.79631 0.04313 0.0
C1211 C 0.32812 0.7744 0.05619 0.0
C1212 C 0.30878 0.72 0.07217 0.0
H1213 H 0.39901 0.65442 0.05432 0.0
H1214 H 0.37959 0.68912 0.05996 0.0
H1215 H 0.30835 0.68467 0.06883 0.0
H1216 H 0.26528 0.78794 0.05848 0.0
H1217 H 0.28014 0.75739 0.08073 0.0
H1218 H 0.35328 0.75018 0.08899 0.0
C1219 C 0.37211 0.67399 0.06614 0.0
C1220 C 0.31805 0.69878 0.07401 0.0
C1221 C 0.38312 0.654 0.06269 0.0
C1222 C 0.28296 0.78468 0.05796 0.0
C1223 C 0.29143 0.76712 0.07068 0.0
C1224 C 0.34315 0.73598 0.08504 0.0
C1225 C 0.35168 0.67451 0.07724 0.0
C1226 C 0.34029 0.69608 0.08032 0.0
C1227 C 0.31385 0.761 0.0689 0.0
C1228 C 0.3216 0.73888 0.07667 0.0
H1229 H 0.34589 0.61913 0.08713 0.0
H1230 H 0.32625 0.65442 0.0927 0.0
H1231 H 0.36948 0.71307 0.09223 0.0
H1232 H 0.33082 0.80078 0.03247 0.0
H1233 H 0.34551 0.77016 0.05444 0.0
C1234 C 0.35202 0.37049 0.44159 0.0
C1235 C 0.37174 0.37134 0.45396 0.0
C1236 C 0.33909 0.35123 0.44194 0.0
C1237 C 0.33179 0.29776 0.47243 0.0
H1238 H 0.31496 0.27438 0.41505 0.0
C1239 C 0.31697 0.20646 0.46336 0.0
C1240 C 0.2943 0.20217 0.46027 0.0
C1241 C 0.32556 0.22723 0.45797 0.0
C1242 C 0.31956 0.28083 0.43112 0.0
H1243 H 0.39261 0.3536 0.47747 0.0
H1244 H 0.37034 0.3204 0.47816 0.0
H1245 H 0.32899 0.31244 0.41769 0.0
H1246 H 0.26387 0.21491 0.44548 0.0
H1247 H 0.27916 0.25113 0.43579 0.0
H1248 H 0.32333 0.26594 0.4857 0.0
C1249 C 0.3646 0.33435 0.46823 0.0
C1250 C 0.32732 0.30263 0.43272 0.0
C1251 C 0.37746 0.35338 0.46779 0.0
C1252 C 0.28132 0.2178 0.44845 0.0
C1253 C 0.29002 0.23856 0.44288 0.0
C1254 C 0.32443 0.27601 0.47076 0.0
C1255 C 0.34561 0.33274 0.45484 0.0
C1256 C 0.33402 0.31113 0.45336 0.0
C1257 C 0.31176 0.24384 0.44899 0.0
C1258 C 0.31874 0.26721 0.45007 0.0
H1259 H 0.34739 0.38406 0.43062 0.0
H1260 H 0.32442 0.35057 0.43162 0.0
H1261 H 0.33628 0.30392 0.48864 0.0
H1262 H 0.32757 0.19468 0.47203 0.0
H1263 H 0.34252 0.23093 0.46249 0.0
C1264 C 0.60165 0.3396 0.74787 0.0
C1265 C 0.617 0.35118 0.76084 0.0
C1266 C 0.58282 0.35022 0.73961 0.0
C1267 C 0.55467 0.40424 0.73107 0.0
H1268 H 0.50196 0.37042 0.74549 0.0
C1269 C 0.46747 0.44068 0.7176 0.0
C1270 C 0.45473 0.44053 0.73716 0.0
C1271 C 0.48632 0.42722 0.71587 0.0
C1272 C 0.51651 0.37998 0.74121 0.0
H1273 H 0.62566 0.38326 0.77402 0.0
H1274 H 0.59224 0.402 0.7598 0.0
H1275 H 0.53844 0.35363 0.75066 0.0
H1276 H 0.45038 0.42453 0.76921 0.0
H1277 H 0.48305 0.40084 0.76604 0.0
H1278 H 0.53259 0.43092 0.7225 0.0
C1279 C 0.59496 0.38469 0.75587 0.0
C1280 C 0.53741 0.37035 0.744 0.0
C1281 C 0.61405 0.37403 0.76402 0.0
C1282 C 0.45996 0.42514 0.75401 0.0
C1283 C 0.47866 0.41153 0.75217 0.0
C1284 C 0.5337 0.41385 0.72814 0.0
C1285 C 0.57876 0.37262 0.74432 0.0
C1286 C 0.55673 0.38248 0.73931 0.0
C1287 C 0.49254 0.41315 0.7335 0.0
C1288 C 0.51445 0.40193 0.7336 0.0
H1289 H 0.60378 0.32202 0.74485 0.0
H1290 H 0.57093 0.34063 0.7303 0.0
H1291 H 0.56925 0.41392 0.72722 0.0
H1292 H 0.46385 0.45231 0.70427 0.0
H1293 H 0.49656 0.42851 0.70115 0.0
C1294 C 0.6712 0.11045 0.45205 0.0
C1295 C 0.65212 0.11958 0.44209 0.0
C1296 C 0.69102 0.12245 0.45215 0.0
C1297 C 0.71824 0.17213 0.42742 0.0
H1298 H 0.73442 0.18565 0.48802 0.0
C1299 C 0.75945 0.25493 0.45244 0.0
C1300 C 0.74646 0.26566 0.46859 0.0
C1301 C 0.75605 0.23249 0.44772 0.0
C1302 C 0.73048 0.18178 0.47095 0.0
H1303 H 0.63917 0.14741 0.42293 0.0
H1304 H 0.67336 0.16812 0.42312 0.0
H1305 H 0.71363 0.15208 0.48032 0.0
H1306 H 0.7199 0.26114 0.49254 0.0
H1307 H 0.71403 0.22243 0.48427 0.0
H1308 H 0.73321 0.203 0.41838 0.0
C1309 C 0.67324 0.15185 0.43089 0.0
C1310 C 0.71876 0.16245 0.46651 0.0
C1311 C 0.6535 0.14016 0.43115 0.0
C1312 C 0.73014 0.25352 0.47991 0.0
C1313 C 0.72699 0.23118 0.47544 0.0
C1314 C 0.72996 0.19148 0.43187 0.0
C1315 C 0.69209 0.14341 0.44178 0.0
C1316 C 0.7112 0.1583 0.44493 0.0
C1317 C 0.73993 0.2204 0.45939 0.0
C1318 C 0.73479 0.19716 0.45386 0.0
H1319 H 0.67056 0.09449 0.4604 0.0
H1320 H 0.70532 0.11566 0.46077 0.0
H1321 H 0.71287 0.16908 0.41057 0.0
H1322 H 0.77222 0.26383 0.44348 0.0
H1323 H 0.76606 0.22457 0.43509 0.0
C1324 C 0.87289 0.61163 0.28065 0.0
C1325 C 0.8712 0.62134 0.30171 0.0
C1326 C 0.89324 0.60312 0.27325 0.0
C1327 C 0.95321 0.61028 0.28383 0.0
H1328 H 0.96017 0.55779 0.24777 0.0
C1329 C 0.03577 0.56363 0.27182 0.0
C1330 C 0.03974 0.55288 0.25158 0.0
C1331 C 0.01605 0.57538 0.27521 0.0
C1332 C 0.95845 0.57274 0.25748 0.0
H1333 H 0.88886 0.62814 0.33218 0.0
H1334 H 0.924 0.61259 0.31969 0.0
H1335 H 0.92326 0.56892 0.2602 0.0
H1336 H 0.0271 0.54774 0.21834 0.0
H1337 H 0.99264 0.5684 0.22427 0.0
H1338 H 0.98846 0.61377 0.28158 0.0
C1339 C 0.90993 0.61223 0.30853 0.0
C1340 C 0.93729 0.57905 0.26469 0.0
C1341 C 0.88972 0.62087 0.31582 0.0
C1342 C 0.02455 0.55588 0.23411 0.0
C1343 C 0.00468 0.56746 0.23759 0.0
C1344 C 0.97434 0.60392 0.27671 0.0
C1345 C 0.91219 0.60406 0.28686 0.0
C1346 C 0.93447 0.59769 0.27829 0.0
C1347 C -0.00016 0.57651 0.25848 0.0
C1348 C 0.97724 0.5849 0.26373 0.0
H1349 H 0.85896 0.61203 0.2693 0.0
H1350 H 0.89439 0.59696 0.25646 0.0
H1351 H 0.95159 0.62509 0.29377 0.0
H1352 H 0.04722 0.56167 0.28556 0.0
H1353 H 0.01285 0.58216 0.2915 0.0
C1354 C 0.17569 0.38125 0.57738 0.0
C1355 C 0.15389 0.37336 0.57907 0.0
C1356 C 0.19366 0.36648 0.57965 0.0
C1357 C 0.2078 0.30926 0.59877 0.0
H1358 H 0.24311 0.30556 0.54515 0.0
C1359 C 0.22466 0.2303 0.55172 0.0
C1360 C 0.24628 0.22514 0.54488 0.0
C1361 C 0.22018 0.25033 0.56223 0.0
C1362 C 0.23388 0.30666 0.56053 0.0
H1363 H 0.13369 0.34451 0.58604 0.0
H1364 H 0.1646 0.3191 0.59005 0.0
H1365 H 0.22266 0.3397 0.55324 0.0
H1366 H 0.28026 0.23664 0.54373 0.0
H1367 H 0.27209 0.2724 0.56137 0.0
H1368 H 0.21714 0.27541 0.60477 0.0
C1369 C 0.1681 0.33645 0.58693 0.0
C1370 C 0.22224 0.32622 0.56521 0.0
C1371 C 0.15034 0.35096 0.58428 0.0
C1372 C 0.26346 0.24023 0.54901 0.0
C1373 C 0.25885 0.2606 0.55904 0.0
C1374 C 0.21918 0.28968 0.59394 0.0
C1375 C 0.18994 0.34388 0.58425 0.0
C1376 C 0.208 0.32714 0.58364 0.0
C1377 C 0.23715 0.26577 0.56565 0.0
C1378 C 0.23128 0.28788 0.57418 0.0
H1379 H 0.17876 0.39852 0.57349 0.0
H1380 H 0.21037 0.37258 0.5774 0.0
H1381 H 0.19724 0.30969 0.6133 0.0
H1382 H 0.21117 0.21891 0.54878 0.0
H1383 H 0.20325 0.25415 0.56693 0.0
C1384 C 0.62749 0.63483 0.73333 0.0
C1385 C 0.62575 0.65254 0.71814 0.0
C1386 C 0.60933 0.62108 0.7373 0.0
C1387 C 0.54827 0.61936 0.73001 0.0
H1388 H 0.55651 0.5559 0.73749 0.0
C1389 C 0.4771 0.55668 0.72345 0.0
C1390 C 0.47546 0.54134 0.74103 0.0
C1391 C 0.49568 0.57022 0.72155 0.0
C1392 C 0.55405 0.57363 0.73557 0.0
H1393 H 0.60392 0.66935 0.6947 0.0
H1394 H 0.57268 0.64511 0.70108 0.0
H1395 H 0.58883 0.57966 0.73268 0.0
H1396 H 0.49211 0.52783 0.77014 0.0
H1397 H 0.52473 0.55132 0.76653 0.0
H1398 H 0.51344 0.61315 0.73221 0.0
C1399 C 0.58771 0.6422 0.71053 0.0
C1400 C 0.57251 0.58724 0.73294 0.0
C1401 C 0.60569 0.65604 0.70678 0.0
C1402 C 0.49285 0.5396 0.75649 0.0
C1403 C 0.51156 0.5529 0.75438 0.0
C1404 C 0.52985 0.60573 0.73234 0.0
C1405 C 0.58921 0.62468 0.72596 0.0
C1406 C 0.5698 0.61025 0.72994 0.0
C1407 C 0.51304 0.56839 0.73698 0.0
C1408 C 0.5326 0.58277 0.735 0.0
H1409 H 0.64275 0.6318 0.74237 0.0
H1410 H 0.61095 0.60785 0.74946 0.0
H1411 H 0.54561 0.63707 0.72826 0.0
H1412 H 0.46394 0.55841 0.71131 0.0
H1413 H 0.49658 0.58199 0.7079 0.0
C1414 C 0.39071 0.85516 0.67294 0.0
C1415 C 0.37217 0.85884 0.68656 0.0
C1416 C 0.40992 0.8677 0.67561 0.0
C1417 C 0.43121 0.91856 0.70327 0.0
H1418 H 0.4881 0.88884 0.69712 0.0
C1419 C 0.51185 0.9503 0.74215 0.0
C1420 C 0.52967 0.9535 0.72745 0.0
C1421 C 0.49294 0.93909 0.73531 0.0
C1422 C 0.4723 0.89734 0.69868 0.0
H1423 H 0.35918 0.87848 0.71366 0.0
H1424 H 0.39281 0.89965 0.71895 0.0
H1425 H 0.45412 0.8689 0.68848 0.0
H1426 H 0.5419 0.94692 0.69428 0.0
H1427 H 0.50887 0.92657 0.68256 0.0
H1428 H 0.44954 0.9466 0.7146 0.0
C1429 C 0.39242 0.88767 0.70567 0.0
C1430 C 0.45282 0.88602 0.69362 0.0
C1431 C 0.37312 0.87542 0.70274 0.0
C1432 C 0.5284 0.94473 0.70594 0.0
C1433 C 0.5096 0.93309 0.69925 0.0
C1434 C 0.45064 0.92969 0.70871 0.0
C1435 C 0.41114 0.88393 0.69222 0.0
C1436 C 0.43198 0.89641 0.6961 0.0
C1437 C 0.49162 0.9305 0.7138 0.0
C1438 C 0.47129 0.9191 0.70666 0.0
H1439 H 0.39038 0.84259 0.6602 0.0
H1440 H 0.42381 0.86462 0.66465 0.0
H1441 H 0.41557 0.92733 0.70485 0.0
H1442 H 0.51226 0.95697 0.75878 0.0
H1443 H 0.4793 0.93711 0.74685 0.0
C1444 C 0.55408 0.85203 0.14415 0.0
C1445 C 0.57329 0.8591 0.13318 0.0
C1446 C 0.55518 0.84429 0.16598 0.0
C1447 C 0.59233 0.82668 0.21204 0.0
H1448 H 0.54328 0.84939 0.24688 0.0
C1449 C 0.54771 0.82376 0.30476 0.0
C1450 C 0.54922 0.8007 0.30799 0.0
C1451 C 0.55789 0.83376 0.28641 0.0
C1452 C 0.55746 0.84329 0.2377 0.0
H1453 H 0.6089 0.86255 0.13584 0.0
H1454 H 0.61085 0.84927 0.17433 0.0
H1455 H 0.5459 0.85902 0.20805 0.0
H1456 H 0.56559 0.77069 0.29657 0.0
H1457 H 0.58244 0.78779 0.26441 0.0
H1458 H 0.60398 0.81112 0.24199 0.0
C1459 C 0.59497 0.84936 0.16594 0.0
C1460 C 0.55866 0.84843 0.21517 0.0
C1461 C 0.5939 0.85681 0.14386 0.0
C1462 C 0.56373 0.78846 0.29441 0.0
C1463 C 0.57353 0.79836 0.27585 0.0
C1464 C 0.59121 0.82162 0.23478 0.0
C1465 C 0.57546 0.84393 0.17752 0.0
C1466 C 0.57566 0.83962 0.20188 0.0
C1467 C 0.56942 0.82081 0.27076 0.0
C1468 C 0.5734 0.82939 0.2478 0.0
H1469 H 0.53801 0.85368 0.13624 0.0
H1470 H 0.53992 0.83955 0.17416 0.0
H1471 H 0.60577 0.8198 0.20231 0.0
H1472 H 0.53709 0.83379 0.31522 0.0
H1473 H 0.55519 0.85132 0.28356 0.0
C1474 C 0.11592 0.1947 0.11945 0.0
C1475 C 0.11956 0.20987 0.1366 0.0
C1476 C 0.0979 0.19732 0.10526 0.0
C1477 C 0.0659 0.24135 0.08056 0.0
H1478 H 0.03373 0.19283 0.05393 0.0
C1479 C 0.01446 0.25414 0.00124 0.0
C1480 C 0.01747 0.23795 0.98482 0.0
C1481 C 0.02212 0.25047 0.02279 0.0
C1482 C 0.0426 0.20654 0.0612 0.0
H1483 H 0.10656 0.23894 0.15324 0.0
H1484 H 0.07503 0.24381 0.12794 0.0
H1485 H 0.05483 0.18639 0.088 0.0
H1486 H 0.03063 0.20509 0.97822 0.0
H1487 H 0.04463 0.19895 0.0157 0.0
H1488 H 0.05482 0.26123 0.05323 0.0
C1489 C 0.08619 0.22987 0.12562 0.0
C1490 C 0.05453 0.20288 0.08074 0.0
C1491 C 0.10415 0.22707 0.14007 0.0
C1492 C 0.02807 0.21789 0.99048 0.0
C1493 C 0.03588 0.21429 0.01202 0.0
C1494 C 0.05408 0.24498 0.06098 0.0
C1495 C 0.08323 0.21528 0.10781 0.0
C1496 C 0.06685 0.22009 0.09018 0.0
C1497 C 0.0331 0.2306 0.02837 0.0
C1498 C 0.04289 0.22744 0.05072 0.0
H1499 H 0.1274 0.18112 0.11657 0.0
H1500 H 0.09619 0.18597 0.09153 0.0
H1501 H 0.07549 0.25483 0.08732 0.0
H1502 H 0.00607 0.26967 0.99753 0.0
H1503 H 0.01946 0.26323 0.03507 0.0
C1504 C 0.46017 0.65487 0.11389 0.0
C1505 C 0.4541 0.63463 0.12391 0.0
C1506 C 0.46155 0.67417 0.12655 0.0
C1507 C 0.44126 0.69857 0.1783 0.0
H1508 H 0.49825 0.72752 0.18271 0.0
C1509 C 0.46189 0.75439 0.25202 0.0
C1510 C 0.48064 0.746 0.26319 0.0
C1511 C 0.45746 0.74793 0.23022 0.0
C1512 C 0.48209 0.71991 0.18134 0.0
H1513 H 0.44466 0.61885 0.15503 0.0
H1514 H 0.447 0.65236 0.17686 0.0
H1515 H 0.49158 0.70137 0.15264 0.0
H1516 H 0.51019 0.72554 0.25993 0.0
H1517 H 0.50247 0.71432 0.22218 0.0
H1518 H 0.43227 0.71576 0.20787 0.0
C1519 C 0.45056 0.65333 0.15925 0.0
C1520 C 0.47826 0.70508 0.16411 0.0
C1521 C 0.44953 0.63408 0.14677 0.0
C1522 C 0.49543 0.73203 0.25187 0.0
C1523 C 0.49119 0.72587 0.2301 0.0
C1524 C 0.44502 0.71349 0.19541 0.0
C1525 C 0.45642 0.67355 0.14926 0.0
C1526 C 0.45825 0.69342 0.16323 0.0
C1527 C 0.47196 0.73336 0.2192 0.0
C1528 C 0.46589 0.72334 0.19777 0.0
H1529 H 0.46375 0.65581 0.0963 0.0
H1530 H 0.46631 0.68959 0.11859 0.0
H1531 H 0.42559 0.68991 0.17774 0.0
H1532 H 0.45029 0.7653 0.26034 0.0
H1533 H 0.44248 0.75386 0.22216 0.0
C1534 C 0.85793 0.26819 0.10945 0.0
C1535 C 0.84373 0.28676 0.11011 0.0
C1536 C 0.86778 0.26177 0.08937 0.0
C1537 C 0.88259 0.28335 0.03391 0.0
H1538 H 0.8801 0.22205 0.0151 0.0
C1539 C 0.92645 0.22794 0.96289 0.0
C1540 C 0.92681 0.24439 0.9462 0.0
C1541 C 0.91302 0.23057 0.98165 0.0
C1542 C 0.88099 0.23922 0.02016 0.0
H1543 H 0.82938 0.31357 0.09049 0.0
H1544 H 0.84661 0.30258 0.05587 0.0
H1545 H 0.8659 0.23235 0.05173 0.0
H1546 H 0.9111 0.27471 0.93452 0.0
H1547 H 0.88692 0.27872 0.9666 0.0
H1548 H 0.89793 0.29037 0.0028 0.0
C1549 C 0.85015 0.29291 0.07069 0.0
C1550 C 0.87298 0.24507 0.04117 0.0
C1551 C 0.84021 0.29915 0.09055 0.0
C1552 C 0.91136 0.26188 0.9472 0.0
C1553 C 0.89774 0.26434 0.96577 0.0
C1554 C 0.89062 0.27753 0.01305 0.0
C1555 C 0.86383 0.27401 0.06976 0.0
C1556 C 0.87356 0.26726 0.04818 0.0
C1557 C 0.89951 0.24952 0.98386 0.0
C1558 C 0.88978 0.25544 0.00578 0.0
H1559 H 0.86081 0.25823 0.12422 0.0
H1560 H 0.87842 0.24723 0.08916 0.0
H1561 H 0.88361 0.30052 0.03896 0.0
H1562 H 0.9382 0.21428 0.96266 0.0
H1563 H 0.91474 0.21876 0.99517 0.0
C1564 C 0.60176 0.14877 0.35949 0.0
C1565 C 0.58232 0.14977 0.37222 0.0
C1566 C 0.60349 0.16095 0.33975 0.0
C1567 C 0.57593 0.20415 0.30456 0.0
H1568 H 0.59497 0.16644 0.25619 0.0
C1569 C 0.5509 0.19327 0.20896 0.0
C1570 C 0.54914 0.21573 0.20267 0.0
C1571 C 0.5622 0.18713 0.22834 0.0
C1572 C 0.58977 0.17726 0.2695 0.0
H1573 H 0.5498 0.16472 0.37508 0.0
H1574 H 0.55267 0.18613 0.34056 0.0
H1575 H 0.60018 0.154 0.29439 0.0
H1576 H 0.56044 0.24895 0.21027 0.0
H1577 H 0.58028 0.23813 0.24389 0.0
H1578 H 0.56431 0.22682 0.27962 0.0
C1579 C 0.56681 0.17632 0.34592 0.0
C1580 C 0.59295 0.17025 0.29144 0.0
C1581 C 0.56514 0.16415 0.36573 0.0
C1582 C 0.56114 0.23152 0.21476 0.0
C1583 C 0.57238 0.22538 0.23417 0.0
C1584 C 0.5728 0.21119 0.2826 0.0
C1585 C 0.58566 0.17416 0.33226 0.0
C1586 C 0.58549 0.18333 0.30924 0.0
C1587 C 0.57204 0.20329 0.24179 0.0
C1588 C 0.5791 0.19754 0.2648 0.0
H1589 H 0.61507 0.13749 0.36412 0.0
H1590 H 0.61834 0.15915 0.32981 0.0
H1591 H 0.5702 0.21471 0.31786 0.0
H1592 H 0.54205 0.18061 0.19997 0.0
H1593 H 0.56162 0.16995 0.23366 0.0
C1594 C 0.36776 0.22607 0.88029 0.0
C1595 C 0.35858 0.20486 0.87811 0.0
C1596 C 0.37687 0.23264 0.90062 0.0
C1597 C 0.37409 0.21764 0.96066 0.0
H1598 H 0.42563 0.25524 0.96586 0.0
C1599 C 0.4274 0.22493 0.03965 0.0
C1600 C 0.43647 0.24568 0.04483 0.0
C1601 C 0.41456 0.22233 0.02056 0.0
C1602 C 0.41098 0.24502 0.96466 0.0
H1603 H 0.35306 0.17341 0.89476 0.0
H1604 H 0.36976 0.18437 0.92965 0.0
H1605 H 0.41193 0.24545 0.92911 0.0
H1606 H 0.43774 0.28032 0.03485 0.0
H1607 H 0.41543 0.27566 0.0014 0.0
H1608 H 0.37369 0.21658 0.99621 0.0
C1609 C 0.3692 0.19634 0.91616 0.0
C1610 C 0.40315 0.23938 0.94358 0.0
C1611 C 0.35989 0.18993 0.89607 0.0
C1612 C 0.43095 0.26412 0.03142 0.0
C1613 C 0.41839 0.26143 0.01211 0.0
C1614 C 0.38205 0.2231 0.98168 0.0
C1615 C 0.37711 0.21802 0.91901 0.0
C1616 C 0.38483 0.22527 0.94131 0.0
C1617 C 0.41075 0.24036 0.00609 0.0
C1618 C 0.40076 0.2366 0.98391 0.0
H1619 H 0.36668 0.23798 0.86677 0.0
H1620 H 0.38277 0.24947 0.9022 0.0
H1621 H 0.35955 0.20727 0.95961 0.0
H1622 H 0.43136 0.21039 0.04959 0.0
H1623 H 0.40892 0.20587 0.01635 0.0
C1624 C 0.43011 0.35784 0.35703 0.0
C1625 C 0.43843 0.35576 0.37874 0.0
C1626 C 0.42859 0.33945 0.34338 0.0
C1627 C 0.41754 0.29714 0.32046 0.0
H1628 H 0.47245 0.26499 0.31042 0.0
C1629 C 0.46115 0.23742 0.2502 0.0
C1630 C 0.4595 0.25255 0.23241 0.0
C1631 C 0.45402 0.24355 0.27143 0.0
C1632 C 0.45678 0.27333 0.3134 0.0
H1633 H 0.4514 0.33254 0.40324 0.0
H1634 H 0.44917 0.30011 0.37887 0.0
H1635 H 0.46867 0.28837 0.34319 0.0
H1636 H 0.448 0.2852 0.22231 0.0
H1637 H 0.4349 0.2956 0.25905 0.0
H1638 H 0.40638 0.2836 0.28971 0.0
C1639 C 0.44369 0.31615 0.37268 0.0
C1640 C 0.45461 0.28671 0.33216 0.0
C1641 C 0.44498 0.33467 0.38657 0.0
C1642 C 0.44945 0.27328 0.23579 0.0
C1643 C 0.44184 0.27915 0.25677 0.0
C1644 C 0.41977 0.28393 0.30169 0.0
C1645 C 0.43544 0.31842 0.35094 0.0
C1646 C 0.43541 0.29967 0.33517 0.0
C1647 C 0.44457 0.2646 0.2749 0.0
C1648 C 0.43982 0.27283 0.29745 0.0
H1649 H 0.42472 0.37376 0.35046 0.0
H1650 H 0.42261 0.34187 0.32658 0.0
H1651 H 0.40237 0.3066 0.32263 0.0
H1652 H 0.46904 0.2214 0.24795 0.0
H1653 H 0.45638 0.23213 0.28522 0.0
C1654 C 0.59536 0.32361 0.86325 0.0
C1655 C 0.6015 0.30388 0.85265 0.0
C1656 C 0.58001 0.32328 0.88051 0.0
C1657 C 0.54258 0.28648 0.91352 0.0
H1658 H 0.56768 0.31874 0.96291 0.0
C1659 C 0.53222 0.25879 0.00383 0.0
C1660 C 0.5268 0.27487 0.01975 0.0
C1661 C 0.53769 0.26504 0.98223 0.0
C1662 C 0.56021 0.30995 0.94923 0.0
H1663 H 0.59534 0.26867 0.8503 0.0
H1664 H 0.56905 0.2678 0.88102 0.0
H1665 H 0.58162 0.32529 0.92566 0.0
H1666 H 0.52357 0.31024 0.02555 0.0
H1667 H 0.53369 0.32116 0.98772 0.0
H1668 H 0.52206 0.27024 0.93758 0.0
C1669 C 0.57559 0.28367 0.87578 0.0
C1670 C 0.56809 0.31377 0.9278 0.0
C1671 C 0.59067 0.28411 0.85817 0.0
C1672 C 0.5277 0.29743 0.01372 0.0
C1673 C 0.5334 0.3037 0.99208 0.0
C1674 C 0.53485 0.28253 0.93502 0.0
C1675 C 0.57097 0.30309 0.88785 0.0
C1676 C 0.55977 0.30167 0.90975 0.0
C1677 C 0.53807 0.28751 0.97607 0.0
C1678 C 0.54403 0.29382 0.95311 0.0
H1679 H 0.60344 0.33909 0.85904 0.0
H1680 H 0.57631 0.33862 0.88903 0.0
H1681 H 0.53558 0.27716 0.89996 0.0
H1682 H 0.53172 0.24125 0.00782 0.0
H1683 H 0.54171 0.25225 0.97033 0.0
C1684 C 0.13481 0.58548 0.85432 0.0
C1685 C 0.12609 0.56581 0.86323 0.0
C1686 C 0.15576 0.58541 0.84432 0.0
C1687 C 0.20713 0.55135 0.84598 0.0
H1688 H 0.22655 0.59046 0.79864 0.0
C1689 C 0.28099 0.55259 0.77881 0.0
C1690 C 0.29717 0.54185 0.79189 0.0
C1691 C 0.26198 0.5615 0.78856 0.0
C1692 C 0.22141 0.57936 0.81185 0.0
H1693 H 0.13116 0.53047 0.86714 0.0
H1694 H 0.16688 0.52992 0.84829 0.0
H1695 H 0.18796 0.59144 0.81056 0.0
H1696 H 0.30785 0.53523 0.82565 0.0
H1697 H 0.27527 0.55196 0.84281 0.0
H1698 H 0.23988 0.53813 0.84645 0.0
C1699 C 0.15824 0.54563 0.84989 0.0
C1700 C 0.19927 0.58007 0.81882 0.0
C1701 C 0.13761 0.54581 0.86031 0.0
C1702 C 0.29542 0.54294 0.81509 0.0
C1703 C 0.27659 0.55231 0.82489 0.0
C1704 C 0.22906 0.55038 0.83882 0.0
C1705 C 0.16812 0.56558 0.84284 0.0
C1706 C 0.19175 0.56571 0.83567 0.0
C1707 C 0.25894 0.56032 0.81167 0.0
C1708 C 0.23649 0.56408 0.82138 0.0
H1709 H 0.12632 0.60117 0.85677 0.0
H1710 H 0.16279 0.60108 0.83914 0.0
H1711 H 0.20221 0.54055 0.85953 0.0
H1712 H 0.2819 0.55232 0.76086 0.0
H1713 H 0.24894 0.56753 0.7777 0.0
C1714 C 0.75726 0.62102 0.37447 0.0
C1715 C 0.7795 0.62134 0.3675 0.0
C1716 C 0.74817 0.60144 0.38324 0.0
C1717 C 0.75625 0.54192 0.3774 0.0
H1718 H 0.72539 0.53402 0.43324 0.0
C1719 C 0.7572 0.46119 0.42663 0.0
C1720 C 0.73952 0.45598 0.44086 0.0
C1721 C 0.75643 0.48034 0.41352 0.0
C1722 C 0.73345 0.53601 0.4173 0.0
H1723 H 0.81014 0.60245 0.36606 0.0
H1724 H 0.79446 0.56865 0.38153 0.0
H1725 H 0.73547 0.57138 0.42084 0.0
H1726 H 0.70621 0.46547 0.45076 0.0
H1727 H 0.70489 0.49897 0.42773 0.0
H1728 H 0.75495 0.50668 0.37405 0.0
C1729 C 0.7839 0.58317 0.3798 0.0
C1730 C 0.7393 0.55739 0.41032 0.0
C1731 C 0.79291 0.60256 0.37116 0.0
C1732 C 0.72014 0.46907 0.44 0.0
C1733 C 0.71945 0.48838 0.427 0.0
C1734 C 0.75031 0.52065 0.38428 0.0
C1735 C 0.76126 0.58212 0.38498 0.0
C1736 C 0.75156 0.56037 0.39076 0.0
C1737 C 0.738 0.49472 0.41442 0.0
C1738 C 0.73964 0.51736 0.40473 0.0
H1739 H 0.74654 0.63524 0.37158 0.0
H1740 H 0.73069 0.60101 0.38732 0.0
H1741 H 0.7653 0.54389 0.36198 0.0
H1742 H 0.77229 0.45133 0.42681 0.0
H1743 H 0.77105 0.48473 0.40406 0.0
C1744 C 0.87368 0.94254 0.83995 0.0
C1745 C 0.87917 0.92549 0.85492 0.0
C1746 C 0.85408 0.94145 0.82755 0.0
C1747 C 0.79862 0.917 0.83293 0.0
H1748 H 0.78908 0.94514 0.77568 0.0
C1749 C 0.71604 0.95729 0.80678 0.0
C1750 C 0.71043 0.95849 0.78415 0.0
C1751 C 0.73575 0.94698 0.81359 0.0
C1752 C 0.79143 0.93682 0.7915 0.0
H1753 H 0.86947 0.89351 0.86806 0.0
H1754 H 0.83571 0.89111 0.84586 0.0
H1755 H 0.82679 0.93891 0.78896 0.0
H1756 H 0.71998 0.94756 0.75123 0.0
H1757 H 0.75418 0.92934 0.76321 0.0
H1758 H 0.76329 0.91523 0.83563 0.0
C1759 C 0.84618 0.90551 0.84385 0.0
C1760 C 0.81309 0.93351 0.79924 0.0
C1761 C 0.86563 0.90671 0.85633 0.0
C1762 C 0.72389 0.94721 0.76878 0.0
C1763 C 0.74362 0.93692 0.7756 0.0
C1764 C 0.777 0.92029 0.82519 0.0
C1765 C 0.83966 0.92327 0.83001 0.0
C1766 C 0.81695 0.92405 0.82029 0.0
C1767 C 0.75026 0.93755 0.79794 0.0
C1768 C 0.77311 0.93077 0.80464 0.0
H1769 H 0.88368 0.95739 0.83903 0.0
H1770 H 0.84951 0.95554 0.81724 0.0
H1771 H 0.80088 0.90988 0.84933 0.0
H1772 H 0.70604 0.96566 0.81912 0.0
H1773 H 0.74031 0.94783 0.83094 0.0
C1774 C 0.17239 0.8958 0.33835 0.0
C1775 C 0.1808 0.87522 0.34572 0.0
C1776 C 0.17712 0.91517 0.35003 0.0
C1777 C 0.21942 0.93975 0.38352 0.0
H1778 H 0.17391 0.97663 0.41014 0.0
C1779 C 0.24126 0.00631 0.44734 0.0
C1780 C 0.22826 0.02567 0.44838 0.0
C1781 C 0.23512 0.98891 0.43355 0.0
C1782 C 0.18685 0.96682 0.40245 0.0
H1783 H 0.20068 0.85878 0.37108 0.0
H1784 H 0.20934 0.89267 0.39102 0.0
H1785 H 0.16328 0.94471 0.3879 0.0
H1786 H 0.19899 0.04228 0.43536 0.0
H1787 H 0.18877 0.01233 0.41057 0.0
H1788 H 0.24305 0.96187 0.39737 0.0
C1789 C 0.19891 0.89372 0.3764 0.0
C1790 C 0.18071 0.94849 0.38984 0.0
C1791 C 0.19383 0.87436 0.36506 0.0
C1792 C 0.20923 0.02745 0.43504 0.0
C1793 C 0.2033 0.01021 0.42093 0.0
C1794 C 0.22557 0.95827 0.39573 0.0
C1795 C 0.19073 0.91426 0.36891 0.0
C1796 C 0.19697 0.93464 0.38064 0.0
C1797 C 0.21607 0.99061 0.42013 0.0
C1798 C 0.2094 0.97182 0.40575 0.0
H1799 H 0.16227 0.89693 0.32353 0.0
H1800 H 0.17066 0.93092 0.34402 0.0
H1801 H 0.23221 0.92935 0.37633 0.0
H1802 H 0.25589 0.00436 0.45761 0.0
H1803 H 0.24513 0.97394 0.43382 0.0
C1804 C 0.12751 0.44741 0.66014 0.0
C1805 C 0.11603 0.42811 0.65456 0.0
C1806 C 0.14185 0.44736 0.67823 0.0
C1807 C 0.16715 0.44334 0.722 0.0
H1808 H 0.21631 0.40475 0.70615 0.0
C1809 C 0.25511 0.45271 0.75844 0.0
C1810 C 0.26979 0.45858 0.74125 0.0
C1811 C 0.23447 0.44363 0.75353 0.0
C1812 C 0.20254 0.41522 0.71112 0.0
H1813 H 0.10952 0.39396 0.66387 0.0
H1814 H 0.13561 0.39362 0.69515 0.0
H1815 H 0.18001 0.39937 0.68898 0.0
H1816 H 0.27498 0.45859 0.70566 0.0
H1817 H 0.23905 0.44225 0.69713 0.0
H1818 H 0.19007 0.46004 0.74311 0.0
C1819 C 0.13302 0.40884 0.68581 0.0
C1820 C 0.1818 0.41207 0.70147 0.0
C1821 C 0.11818 0.40906 0.668 0.0
C1822 C 0.26391 0.45434 0.71918 0.0
C1823 C 0.2435 0.44482 0.71433 0.0
C1824 C 0.18779 0.44623 0.73197 0.0
C1825 C 0.1453 0.42788 0.6907 0.0
C1826 C 0.1643 0.42682 0.70599 0.0
C1827 C 0.22849 0.43978 0.73143 0.0
C1828 C 0.20586 0.43289 0.72572 0.0
H1829 H 0.12599 0.46228 0.65003 0.0
H1830 H 0.15139 0.46214 0.68153 0.0
H1831 H 0.15385 0.45493 0.72561 0.0
H1832 H 0.25924 0.45589 0.77561 0.0
H1833 H 0.22303 0.43999 0.76691 0.0
C1834 C 0.69149 0.6112 0.65257 0.0
C1835 C 0.7028 0.63079 0.64709 0.0
C1836 C 0.69396 0.59226 0.63955 0.0
C1837 C 0.71445 0.5738 0.58421 0.0
H1838 H 0.71551 0.51583 0.61258 0.0
C1839 C 0.74749 0.49491 0.54171 0.0
C1840 C 0.73348 0.47638 0.54227 0.0
C1841 C 0.74263 0.51359 0.5544 0.0
C1842 C 0.71507 0.53193 0.60447 0.0
H1843 H 0.72584 0.64578 0.62387 0.0
H1844 H 0.73084 0.61264 0.60173 0.0
H1845 H 0.70935 0.54885 0.63498 0.0
H1846 H 0.70359 0.46275 0.55686 0.0
H1847 H 0.69543 0.49535 0.57953 0.0
H1848 H 0.72107 0.55676 0.55384 0.0
C1849 C 0.71945 0.612 0.6156 0.0
C1850 C 0.71143 0.55086 0.61724 0.0
C1851 C 0.7167 0.63101 0.62839 0.0
C1852 C 0.71466 0.47681 0.55603 0.0
C1853 C 0.71003 0.49537 0.56905 0.0
C1854 C 0.71844 0.55491 0.57154 0.0
C1855 C 0.70807 0.59236 0.62095 0.0
C1856 C 0.71119 0.57208 0.6073 0.0
C1857 C 0.72389 0.51398 0.56819 0.0
C1858 C 0.71889 0.53384 0.58157 0.0
H1859 H 0.68051 0.61058 0.66679 0.0
H1860 H 0.68462 0.57761 0.64399 0.0
H1861 H 0.71386 0.58975 0.57585 0.0
H1862 H 0.76207 0.49514 0.5312 0.0
H1863 H 0.75366 0.52769 0.55359 0.0
C1864 C 0.88753 0.06695 0.66904 0.0
C1865 C 0.88064 0.07136 0.64714 0.0
C1866 C 0.87267 0.06968 0.68675 0.0
C1867 C 0.81771 0.09466 0.70079 0.0
H1868 H 0.80961 0.04189 0.73698 0.0
C1869 C 0.73424 0.05828 0.72326 0.0
C1870 C 0.73052 0.04964 0.7446 0.0
C1871 C 0.7548 0.06712 0.71767 0.0
C1872 C 0.81196 0.05702 0.72746 0.0
H1873 H 0.85325 0.08329 0.62681 0.0
H1874 H 0.82766 0.0878 0.65725 0.0
H1875 H 0.8435 0.04612 0.71522 0.0
H1876 H 0.74501 0.04402 0.77709 0.0
H1877 H 0.78151 0.05884 0.76695 0.0
H1878 H 0.78528 0.10455 0.71152 0.0
C1879 C 0.84442 0.08237 0.66098 0.0
C1880 C 0.83139 0.05946 0.71502 0.0
C1881 C 0.85905 0.07945 0.64343 0.0
C1882 C 0.74746 0.05076 0.76056 0.0
C1883 C 0.76829 0.05913 0.75478 0.0
C1884 C 0.79823 0.09209 0.71301 0.0
C1885 C 0.85087 0.07724 0.68282 0.0
C1886 C 0.83389 0.07775 0.70064 0.0
C1887 C 0.77219 0.06705 0.73317 0.0
C1888 C 0.79477 0.07274 0.72558 0.0
H1889 H 0.90411 0.06079 0.6724 0.0
H1890 H 0.87808 0.06559 0.70343 0.0
H1891 H 0.8194 0.10918 0.69024 0.0
H1892 H 0.72142 0.05762 0.71069 0.0
H1893 H 0.75747 0.07286 0.7008 0.0
C1894 C 0.25836 0.87505 0.61761 0.0
C1895 C 0.27992 0.87407 0.62646 0.0
C1896 C 0.24982 0.89516 0.60938 0.0
C1897 C 0.25776 0.95501 0.61677 0.0
H1898 H 0.22716 0.96227 0.56064 0.0
C1899 C 0.25717 0.03505 0.56615 0.0
C1900 C 0.23914 0.04001 0.55221 0.0
C1901 C 0.25695 0.01611 0.57955 0.0
C1902 C 0.23517 0.96046 0.57664 0.0
H1903 H 0.31002 0.89273 0.63195 0.0
H1904 H 0.29531 0.92748 0.6173 0.0
H1905 H 0.23773 0.92513 0.57344 0.0
H1906 H 0.20581 0.03035 0.54302 0.0
H1907 H 0.20548 0.99712 0.56651 0.0
H1908 H 0.25596 0.99032 0.61966 0.0
C1909 C 0.28477 0.913 0.6173 0.0
C1910 C 0.24132 0.9392 0.58388 0.0
C1911 C 0.29326 0.89305 0.62547 0.0
C1912 C 0.21999 0.0269 0.55356 0.0
C1913 C 0.21986 0.00778 0.56684 0.0
C1914 C 0.25161 0.9762 0.60958 0.0
C1915 C 0.26273 0.91448 0.60995 0.0
C1916 C 0.25339 0.93639 0.60361 0.0
C1917 C 0.23873 0.0017 0.57918 0.0
C1918 C 0.24093 0.97922 0.58908 0.0
H1919 H 0.24765 0.86071 0.61834 0.0
H1920 H 0.23281 0.89585 0.60365 0.0
H1921 H 0.26657 0.95324 0.63236 0.0
H1922 H 0.27207 0.04499 0.56558 0.0
H1923 H 0.27179 0.01188 0.58883 0.0
C1924 C 0.85664 0.13589 0.57548 0.0
C1925 C 0.87671 0.13435 0.56364 0.0
C1926 C 0.84592 0.15646 0.57789 0.0
C1927 C 0.85788 0.21645 0.57631 0.0
H1928 H 0.79575 0.22443 0.56191 0.0
C1929 C 0.82132 0.29672 0.54081 0.0
C1930 C 0.79863 0.30136 0.54361 0.0
C1931 C 0.8309 0.27805 0.5509 0.0
C1932 C 0.813 0.22249 0.56658 0.0
H1933 H 0.90056 0.15313 0.54417 0.0
H1934 H 0.88193 0.18852 0.54832 0.0
H1935 H 0.81149 0.18711 0.56373 0.0
H1936 H 0.76902 0.29182 0.56177 0.0
H1937 H 0.78587 0.25943 0.57952 0.0
H1938 H 0.85964 0.25182 0.57837 0.0
C1939 C 0.87472 0.17403 0.55615 0.0
C1940 C 0.822 0.20107 0.56753 0.0
C1941 C 0.88528 0.15363 0.55362 0.0
C1942 C 0.78647 0.28853 0.55892 0.0
C1943 C 0.79606 0.26984 0.56898 0.0
C1944 C 0.84888 0.23784 0.57545 0.0
C1945 C 0.8552 0.1758 0.56867 0.0
C1946 C 0.84472 0.19792 0.57156 0.0
C1947 C 0.81802 0.26371 0.56409 0.0
C1948 C 0.82652 0.24116 0.56977 0.0
H1949 H 0.84964 0.1214 0.58349 0.0
H1950 H 0.83077 0.15736 0.58751 0.0
H1951 H 0.87538 0.21445 0.57993 0.0
H1952 H 0.83127 0.30638 0.52936 0.0
H1953 H 0.84789 0.27389 0.54678 0.0
C1954 C 0.85432 0.8685 0.92988 0.0
C1955 C 0.87575 0.86723 0.93908 0.0
C1956 C 0.84141 0.84936 0.92795 0.0
C1957 C 0.84737 0.7887 0.92465 0.0
H1958 H 0.78794 0.78582 0.94882 0.0
C1959 C 0.81035 0.71027 0.962 0.0
C1960 C 0.78723 0.70764 0.96266 0.0
C1961 C 0.81962 0.72869 0.95148 0.0
C1962 C 0.80429 0.7864 0.94141 0.0
H1963 H 0.89991 0.84492 0.95433 0.0
H1964 H 0.8775 0.81197 0.95097 0.0
H1965 H 0.8066 0.8215 0.94622 0.0
H1966 H 0.75592 0.7208 0.95033 0.0
H1967 H 0.77221 0.75288 0.93181 0.0
H1968 H 0.84547 0.75355 0.92058 0.0
C1969 C 0.87084 0.8276 0.94488 0.0
C1970 C 0.81498 0.80686 0.94003 0.0
C1971 C 0.88359 0.84661 0.94699 0.0
C1972 C 0.77379 0.72251 0.95047 0.0
C1973 C 0.78308 0.74098 0.93995 0.0
C1974 C 0.83667 0.76829 0.92592 0.0
C1975 C 0.84983 0.82867 0.93497 0.0
C1976 C 0.83694 0.80803 0.93249 0.0
C1977 C 0.80599 0.74484 0.9413 0.0
C1978 C 0.81535 0.76677 0.93516 0.0
H1979 H 0.84781 0.88408 0.92353 0.0
H1980 H 0.82515 0.8506 0.92039 0.0
H1981 H 0.86418 0.78925 0.91835 0.0
H1982 H 0.82122 0.69899 0.97099 0.0
H1983 H 0.83734 0.73112 0.95288 0.0
C1984 C 0.11111 0.8707 0.25906 0.0
C1985 C 0.11431 0.8479 0.25574 0.0
C1986 C 0.09166 0.88113 0.25142 0.0
C1987 C 0.03396 0.86627 0.24064 0.0
H1988 H 0.02836 0.92618 0.21749 0.0
C1989 C 0.95578 0.92078 0.24861 0.0
C1990 C 0.95076 0.93579 0.23135 0.0
C1991 C 0.97445 0.90704 0.24726 0.0
C1992 C 0.02968 0.90928 0.22362 0.0
H1993 H 0.101 0.8186 0.24005 0.0
H1994 H 0.06753 0.83677 0.22648 0.0
H1995 H 0.06523 0.90977 0.22263 0.0
H1996 H 0.96004 0.94647 0.19813 0.0
H1997 H 0.99262 0.92243 0.19585 0.0
H1998 H -0.0015 0.86594 0.24218 0.0
C1999 C 0.07953 0.84651 0.23548 0.0
C2000 C 0.05078 0.90003 0.2268 0.0
C2001 C 0.09874 0.83615 0.24318 0.0
C2002 C 0.96348 0.93516 0.21178 0.0
C2003 C 0.98229 0.92159 0.21054 0.0
C2004 C 0.01293 0.87557 0.23764 0.0
C2005 C 0.07532 0.86886 0.24028 0.0
C2006 C 0.05312 0.8785 0.23554 0.0
C2007 C 0.98848 0.90814 0.22866 0.0
C2008 C 0.01057 0.89726 0.22935 0.0
H2009 H 0.12286 0.88008 0.26875 0.0
H2010 H 0.08883 0.89841 0.25537 0.0
H2011 H 0.03522 0.84973 0.24768 0.0
H2012 H 0.94621 0.92076 0.26383 0.0
H2013 H 0.97878 0.89679 0.26147 0.0
C2014 C 0.16937 0.61147 0.94028 0.0
C2015 C 0.1486 0.62196 0.9377 0.0
C2016 C 0.18896 0.62373 0.93791 0.0
C2017 C 0.20995 0.67533 0.91296 0.0
H2018 H 0.24387 0.68407 0.96678 0.0
C2019 C 0.23106 0.75858 0.94759 0.0
C2020 C 0.2523 0.76295 0.95582 0.0
C2021 C 0.22599 0.73764 0.93953 0.0
C2022 C 0.23512 0.68137 0.95134 0.0
H2023 H 0.13214 0.65326 0.92993 0.0
H2024 H 0.16587 0.6742 0.92571 0.0
H2025 H 0.22022 0.65142 0.96343 0.0
H2026 H 0.28507 0.74919 0.96181 0.0
H2027 H 0.27575 0.7119 0.94851 0.0
H2028 H 0.22295 0.70644 0.90185 0.0
C2029 C 0.16717 0.65665 0.92957 0.0
C2030 C 0.22163 0.66269 0.94942 0.0
C2031 C 0.14781 0.64466 0.93234 0.0
C2032 C 0.26861 0.74618 0.95536 0.0
C2033 C 0.26333 0.72495 0.94782 0.0
C2034 C 0.22327 0.694 0.91493 0.0
C2035 C 0.18791 0.64638 0.9323 0.0
C2036 C 0.20786 0.66038 0.93083 0.0
C2037 C 0.24191 0.72054 0.94001 0.0
C2038 C 0.23483 0.69783 0.9347 0.0
H2039 H 0.17044 0.59396 0.94431 0.0
H2040 H 0.20484 0.61557 0.94033 0.0
H2041 H 0.19961 0.67373 0.89836 0.0
H2042 H 0.21825 0.77126 0.94775 0.0
H2043 H 0.20925 0.73452 0.9339 0.0
C2044 C 0.39802 0.1466 0.79354 0.0
C2045 C 0.37778 0.13517 0.79495 0.0
C2046 C 0.41722 0.13594 0.78639 0.0
C2047 C 0.44483 0.083 0.78482 0.0
H2048 H 0.48301 0.11135 0.74127 0.0
C2049 C 0.52993 0.05859 0.73688 0.0
C2050 C 0.5425 0.05169 0.75539 0.0
C2051 C 0.51007 0.07039 0.73982 0.0
C2052 C 0.47245 0.10323 0.75335 0.0
H2053 H 0.36198 0.1034 0.79002 0.0
H2054 H 0.39614 0.08438 0.7781 0.0
H2055 H 0.44638 0.12727 0.74929 0.0
H2056 H 0.54534 0.05386 0.79123 0.0
H2057 H 0.51079 0.07427 0.79623 0.0
H2058 H 0.4711 0.05935 0.78939 0.0
C2059 C 0.39678 0.10179 0.78235 0.0
C2060 C 0.45158 0.1123 0.75796 0.0
C2061 C 0.37731 0.11263 0.78919 0.0
C2062 C 0.53588 0.05859 0.77664 0.0
C2063 C 0.51603 0.07015 0.77956 0.0
C2064 C 0.46581 0.07414 0.78047 0.0
C2065 C 0.41684 0.11348 0.78071 0.0
C2066 C 0.43771 0.10242 0.77395 0.0
C2067 C 0.5025 0.07532 0.76129 0.0
C2068 C 0.47994 0.08436 0.76495 0.0
H2069 H 0.39906 0.16403 0.79764 0.0
H2070 H 0.43251 0.14525 0.78559 0.0
H2071 H 0.43452 0.07518 0.79731 0.0
H2072 H 0.53456 0.05357 0.72029 0.0
H2073 H 0.49998 0.07438 0.72546 0.0
C2074 C 0.66536 0.87498 0.05834 0.0
C2075 C 0.65723 0.88591 0.07712 0.0
C2076 C 0.68318 0.86027 0.0602 0.0
C2077 C 0.72495 0.8329 0.06806 0.0
H2078 H 0.70568 0.78473 0.10634 0.0
C2079 C 0.7597 0.74429 0.05904 0.0
C2080 C 0.74237 0.72987 0.05346 0.0
C2081 C 0.75503 0.76493 0.06846 0.0
C2082 C 0.71158 0.79819 0.09595 0.0
H2083 H 0.66172 0.89106 0.11235 0.0
H2084 H 0.69263 0.86444 0.11581 0.0
H2085 H 0.68859 0.82139 0.10989 0.0
H2086 H 0.70683 0.72498 0.05476 0.0
H2087 H 0.69874 0.76076 0.07157 0.0
H2088 H 0.74685 0.80929 0.05308 0.0
C2089 C 0.68549 0.8677 0.09961 0.0
C2090 C 0.70194 0.81919 0.09807 0.0
C2091 C 0.66793 0.8829 0.09763 0.0
C2092 C 0.72048 0.73583 0.05876 0.0
C2093 C 0.71588 0.75621 0.06856 0.0
C2094 C 0.7348 0.81198 0.06613 0.0
C2095 C 0.69285 0.85584 0.08098 0.0
C2096 C 0.70773 0.83639 0.08335 0.0
C2097 C 0.73303 0.77121 0.07293 0.0
C2098 C 0.72735 0.79419 0.07928 0.0
H2099 H 0.65728 0.87707 0.04239 0.0
H2100 H 0.6883 0.85114 0.04564 0.0
H2101 H 0.72968 0.84594 0.05656 0.0
H2102 H 0.77673 0.74012 0.05507 0.0
H2103 H 0.76851 0.77626 0.07163 0.0
C2104 C 0.13366 0.12488 0.22383 0.0
C2105 C 0.12973 0.14551 0.21347 0.0
C2106 C 0.1165 0.10953 0.22606 0.0
C2107 C 0.0656 0.09254 0.19961 0.0
H2108 H 0.04723 0.06975 0.25699 0.0
C2109 C 0.98175 0.04935 0.21231 0.0
C2110 C 0.98029 0.03259 0.2285 0.0
C2111 C 0.00131 0.06139 0.20985 0.0
C2112 C 0.05239 0.07555 0.24076 0.0
H2113 H 0.1047 0.16625 0.19746 0.0
H2114 H 0.07507 0.13937 0.2011 0.0
H2115 H 0.0796 0.09365 0.2544 0.0
H2116 H -0.00165 0.01439 0.25398 0.0
H2117 H 0.03266 0.03473 0.24911 0.0
H2118 H 0.03873 0.07436 0.18578 0.0
C2119 C 0.09135 0.13516 0.20754 0.0
C2120 C 0.07087 0.0893 0.23936 0.0
C2121 C 0.1083 0.15058 0.20567 0.0
C2122 C -0.00108 0.0275 0.24159 0.0
C2123 C 0.01856 0.03924 0.23888 0.0
C2124 C 0.04735 0.07853 0.20093 0.0
C2125 C 0.09536 0.11447 0.21755 0.0
C2126 C 0.07732 0.0982 0.21884 0.0
C2127 C 0.01989 0.05661 0.22327 0.0
C2128 C 0.04027 0.07018 0.22158 0.0
H2129 H 0.15 0.12052 0.23 0.0
H2130 H 0.11985 0.09362 0.23389 0.0
H2131 H 0.07049 0.09912 0.18357 0.0
H2132 H 0.96758 0.05365 0.20207 0.0
H2133 H 0.00161 0.07487 0.19787 0.0
C2134 C 0.86659 0.37614 0.20409 0.0
C2135 C 0.86594 0.35938 0.18809 0.0
C2136 C 0.88563 0.38891 0.2067 0.0
C2137 C 0.94589 0.38794 0.19428 0.0
H2138 H 0.94223 0.44892 0.214 0.0
C2139 C 0.02179 0.44592 0.20513 0.0
C2140 C 0.02304 0.45555 0.22626 0.0
C2141 C 0.00273 0.43457 0.19868 0.0
C2142 C 0.94343 0.4319 0.20846 0.0
H2143 H 0.88425 0.34346 0.16158 0.0
H2144 H 0.91712 0.36629 0.1655 0.0
H2145 H 0.90832 0.42906 0.20509 0.0
H2146 H 0.00527 0.46102 0.2571 0.0
H2147 H 0.97193 0.44158 0.24561 0.0
H2148 H 0.98114 0.3911 0.19739 0.0
C2149 C 0.90328 0.36912 0.1766 0.0
C2150 C 0.92404 0.42046 0.20349 0.0
C2151 C 0.88439 0.35611 0.17425 0.0
C2152 C 0.00488 0.45366 0.24076 0.0
C2153 C 0.98574 0.44271 0.23416 0.0
C2154 C 0.96529 0.39953 0.1989 0.0
C2155 C 0.9043 0.38544 0.19311 0.0
C2156 C 0.92499 0.39819 0.19673 0.0
C2157 C 0.9845 0.4331 0.21309 0.0
C2158 C 0.96417 0.42145 0.20639 0.0
H2159 H 0.85267 0.37892 0.21511 0.0
H2160 H 0.88589 0.40103 0.21985 0.0
H2161 H 0.94731 0.37072 0.18948 0.0
H2162 H 0.03554 0.4471 0.19363 0.0
H2163 H 0.00208 0.42726 0.18233 0.0
C2164 C 0.2216 0.15611 0.82163 0.0
C2165 C 0.23369 0.17508 0.8156 0.0
C2166 C 0.19868 0.15758 0.82522 0.0
C2167 C 0.14883 0.19176 0.81502 0.0
H2168 H 0.13109 0.17433 0.87446 0.0
C2169 C 0.07024 0.22734 0.85536 0.0
C2170 C 0.05818 0.21447 0.87063 0.0
C2171 C 0.0903 0.21962 0.84672 0.0
C2172 C 0.13551 0.17888 0.85763 0.0
H2173 H 0.2312 0.21002 0.80725 0.0
H2174 H 0.19117 0.2124 0.81278 0.0
H2175 H 0.16818 0.16511 0.86124 0.0
H2176 H 0.05759 0.18317 0.88854 0.0
H2177 H 0.09241 0.16936 0.87301 0.0
H2178 H 0.1163 0.20553 0.81125 0.0
C2179 C 0.19936 0.19649 0.81496 0.0
C2180 C 0.15682 0.1736 0.85008 0.0
C2181 C 0.22227 0.19514 0.81184 0.0
C2182 C 0.06658 0.19356 0.87693 0.0
C2183 C 0.0866 0.18569 0.86806 0.0
C2184 C 0.12741 0.19675 0.82242 0.0
C2185 C 0.18745 0.1779 0.82234 0.0
C2186 C 0.16387 0.18049 0.82892 0.0
C2187 C 0.09879 0.19867 0.85288 0.0
C2188 C 0.12065 0.19096 0.84407 0.0
H2189 H 0.23003 0.1405 0.82488 0.0
H2190 H 0.18984 0.143 0.83084 0.0
H2191 H 0.15379 0.19708 0.79855 0.0
H2192 H 0.06441 0.24364 0.85032 0.0
H2193 H 0.09937 0.2304 0.83555 0.0
C2194 C 0.4233 0.51684 0.42358 0.0
C2195 C 0.4324 0.5009 0.40918 0.0
C2196 C 0.42685 0.53953 0.41978 0.0
C2197 C 0.44034 0.57862 0.37459 0.0
H2198 H 0.45915 0.61847 0.42099 0.0
C2199 C 0.47768 0.66371 0.35435 0.0
C2200 C 0.4727 0.68178 0.36812 0.0
C2201 C 0.47092 0.64232 0.3601 0.0
C2202 C 0.45356 0.60766 0.4079 0.0
H2203 H 0.45281 0.49653 0.37977 0.0
H2204 H 0.45883 0.53575 0.37329 0.0
H2205 H 0.45069 0.57984 0.43016 0.0
H2206 H 0.45637 0.69145 0.39867 0.0
H2207 H 0.44433 0.65408 0.40858 0.0
H2208 H 0.44317 0.60618 0.35229 0.0
C2209 C 0.44878 0.53077 0.38735 0.0
C2210 C 0.44875 0.58552 0.41317 0.0
C2211 C 0.44542 0.50821 0.39121 0.0
C2212 C 0.46058 0.67792 0.38771 0.0
C2213 C 0.45377 0.65646 0.39346 0.0
C2214 C 0.445 0.60069 0.36935 0.0
C2215 C 0.43935 0.54671 0.40141 0.0
C2216 C 0.44253 0.57067 0.39647 0.0
C2217 C 0.45889 0.63838 0.37973 0.0
C2218 C 0.45212 0.6154 0.38583 0.0
H2219 H 0.41324 0.51182 0.4376 0.0
H2220 H 0.41937 0.55147 0.43089 0.0
H2221 H 0.43514 0.56768 0.36143 0.0
H2222 H 0.48708 0.66598 0.3392 0.0
H2223 H 0.47552 0.62877 0.34931 0.0
C2224 C 0.75995 0.32443 0.82207 0.0
C2225 C 0.74434 0.30909 0.83004 0.0
C2226 C 0.78203 0.32334 0.82918 0.0
C2227 C 0.82331 0.28532 0.85452 0.0
H2228 H 0.85437 0.33963 0.86824 0.0
C2229 C 0.91346 0.28167 0.88357 0.0
C2230 C 0.92755 0.29536 0.87101 0.0
C2231 C 0.89053 0.28532 0.88334 0.0
C2232 C 0.84591 0.32432 0.86448 0.0
H2233 H 0.73997 0.28021 0.85136 0.0
H2234 H 0.77824 0.27842 0.86369 0.0
H2235 H 0.81564 0.34135 0.85646 0.0
H2236 H 0.92891 0.32495 0.85036 0.0
H2237 H 0.88911 0.33119 0.84984 0.0
H2238 H 0.8536 0.2683 0.86203 0.0
C2239 C 0.77349 0.29122 0.85188 0.0
C2240 C 0.82377 0.32532 0.85761 0.0
C2241 C 0.75148 0.29232 0.84482 0.0
C2242 C 0.91848 0.31398 0.86004 0.0
C2243 C 0.89561 0.31763 0.85984 0.0
C2244 C 0.8454 0.28433 0.86138 0.0
C2245 C 0.78899 0.30684 0.84433 0.0
C2246 C 0.81231 0.30584 0.85228 0.0
C2247 C 0.8813 0.30274 0.87061 0.0
C2248 C 0.85707 0.30383 0.86617 0.0
H2249 H 0.75506 0.33758 0.8107 0.0
H2250 H 0.79366 0.3354 0.82277 0.0
H2251 H 0.81506 0.27003 0.85031 0.0
H2252 H 0.9199 0.26717 0.89217 0.0
H2253 H 0.87994 0.27382 0.8922 0.0
C2254 C 0.54572 0.00365 0.39405 0.0
C2255 C 0.55947 0.0089 0.41213 0.0
C2256 C 0.54043 0.98163 0.38947 0.0
C2257 C 0.5611 0.92463 0.39993 0.0
H2258 H 0.50292 0.90708 0.37937 0.0
C2259 C 0.5284 0.83631 0.40672 0.0
C2260 C 0.51581 0.82747 0.38936 0.0
C2261 C 0.5357 0.85813 0.40577 0.0
C2262 C 0.51937 0.91183 0.38466 0.0
H2263 H 0.5774 0.99504 0.44026 0.0
H2264 H 0.56768 0.95671 0.43261 0.0
H2265 H 0.51027 0.94612 0.38682 0.0
H2266 H 0.50157 0.83412 0.35699 0.0
H2267 H 0.51409 0.87294 0.35546 0.0
H2268 H 0.56991 0.89022 0.39854 0.0
C2269 C 0.56152 0.96962 0.4216 0.0
C2270 C 0.52357 0.93416 0.38904 0.0
C2271 C 0.56689 0.99164 0.42613 0.0
C2272 C 0.51136 0.84059 0.37051 0.0
C2273 C 0.51837 0.86275 0.36973 0.0
C2274 C 0.55686 0.90234 0.39569 0.0
C2275 C 0.54866 0.96431 0.40291 0.0
C2276 C 0.54436 0.94077 0.39717 0.0
C2277 C 0.53033 0.87176 0.38756 0.0
C2278 C 0.53583 0.89565 0.38844 0.0
H2279 H 0.53968 0.01646 0.38286 0.0
H2280 H 0.53058 0.97817 0.3749 0.0
H2281 H 0.57748 0.92919 0.40558 0.0
H2282 H 0.53211 0.82647 0.4214 0.0
H2283 H 0.54467 0.86464 0.41984 0.0
C2284 C 0.21419 0.80548 0.68783 0.0
C2285 C 0.22729 0.8242 0.68364 0.0
C2286 C 0.19115 0.80691 0.68618 0.0
C2287 C 0.15084 0.83281 0.65211 0.0
H2288 H 0.10794 0.80799 0.69308 0.0
C2289 C 0.06204 0.81232 0.62352 0.0
C2290 C 0.05424 0.79166 0.63096 0.0
C2291 C 0.08088 0.8217 0.63315 0.0
C2292 C 0.1197 0.81492 0.6814 0.0
H2293 H 0.22666 0.85927 0.67531 0.0
H2294 H 0.18626 0.86152 0.67169 0.0
H2295 H 0.14591 0.81431 0.70546 0.0
H2296 H 0.06006 0.76471 0.6544 0.0
H2297 H 0.09286 0.78051 0.67056 0.0
H2298 H 0.12544 0.83173 0.62747 0.0
C2299 C 0.19388 0.84593 0.67667 0.0
C2300 C 0.14134 0.81869 0.68859 0.0
C2301 C 0.21691 0.84464 0.67884 0.0
C2302 C 0.06542 0.78077 0.6484 0.0
C2303 C 0.08423 0.78998 0.65785 0.0
C2304 C 0.12932 0.82864 0.64477 0.0
C2305 C 0.1809 0.82696 0.67984 0.0
C2306 C 0.1572 0.82707 0.67382 0.0
C2307 C 0.09236 0.81048 0.65028 0.0
C2308 C 0.11371 0.81889 0.65912 0.0
H2309 H 0.22182 0.78955 0.69152 0.0
H2310 H 0.18144 0.79201 0.68849 0.0
H2311 H 0.16292 0.8391 0.64037 0.0
H2312 H 0.05368 0.82119 0.6102 0.0
H2313 H 0.08655 0.83762 0.62705 0.0
C2314 C 0.07396 0.50685 0.58379 0.0
C2315 C 0.06591 0.4897 0.59744 0.0
C2316 C 0.06977 0.52907 0.58911 0.0
C2317 C 0.06818 0.57494 0.61001 0.0
H2318 H 0.01004 0.58976 0.63325 0.0
C2319 C 0.04103 0.66577 0.62727 0.0
C2320 C 0.02089 0.67092 0.61672 0.0
C2321 C 0.04767 0.64352 0.62977 0.0
C2322 C 0.02642 0.58588 0.62692 0.0
H2323 H 0.04747 0.48256 0.62764 0.0
H2324 H 0.04074 0.52088 0.63704 0.0
H2325 H 0.01933 0.55135 0.62583 0.0
H2326 H 0.99119 0.65735 0.60204 0.0
H2327 H 0.00249 0.61898 0.60648 0.0
H2328 H 0.07457 0.60989 0.60984 0.0
C2329 C 0.04974 0.51735 0.62192 0.0
C2330 C 0.03183 0.5638 0.6228 0.0
C2331 C 0.05365 0.49527 0.61648 0.0
C2332 C 0.00689 0.65373 0.61009 0.0
C2333 C 0.01332 0.63173 0.6128 0.0
C2334 C 0.06266 0.59715 0.61399 0.0
C2335 C 0.05766 0.53456 0.6083 0.0
C2336 C 0.05262 0.55805 0.61389 0.0
C2337 C 0.03399 0.62633 0.62213 0.0
C2338 C 0.0415 0.60286 0.62195 0.0
H2339 H 0.08353 0.50313 0.56906 0.0
H2340 H 0.07583 0.5419 0.57804 0.0
H2341 H 0.0845 0.57106 0.60356 0.0
H2342 H 0.05205 0.67886 0.63247 0.0
H2343 H 0.06364 0.63977 0.63715 0.0
C2344 C 0.77763 0.67347 0.68863 0.0
C2345 C 0.76533 0.69312 0.68554 0.0
C2346 C 0.79946 0.67201 0.68089 0.0
C2347 C 0.84566 0.70625 0.65861 0.0
H2348 H 0.86143 0.65262 0.62689 0.0
C2349 C 0.9224 0.70745 0.60836 0.0
C2350 C 0.9381 0.69473 0.62017 0.0
C2351 C 0.8999 0.70274 0.61053 0.0
C2352 C 0.85701 0.66771 0.63552 0.0
H2353 H 0.76679 0.72722 0.67387 0.0
H2354 H 0.8043 0.72464 0.66016 0.0
H2355 H 0.8261 0.65464 0.64699 0.0
H2356 H 0.94321 0.66451 0.63934 0.0
H2357 H 0.90389 0.65632 0.64302 0.0
H2358 H 0.87624 0.71946 0.64685 0.0
C2359 C 0.79742 0.71031 0.66856 0.0
C2360 C 0.83705 0.66879 0.64732 0.0
C2361 C 0.77579 0.71178 0.67635 0.0
C2362 C 0.93135 0.6749 0.63053 0.0
C2363 C 0.90885 0.67012 0.63256 0.0
C2364 C 0.86525 0.70532 0.64652 0.0
C2365 C 0.80928 0.69021 0.67003 0.0
C2366 C 0.83114 0.68815 0.65893 0.0
C2367 C 0.89303 0.68513 0.62423 0.0
C2368 C 0.87104 0.68613 0.63477 0.0
H2369 H 0.76998 0.65879 0.69563 0.0
H2370 H 0.80835 0.65644 0.68273 0.0
H2371 H 0.84196 0.72119 0.66779 0.0
H2372 H 0.9271 0.72266 0.59996 0.0
H2373 H 0.88786 0.71433 0.60369 0.0
C2374 C 0.91459 0.98085 0.57479 0.0
C2375 C 0.92295 0.99411 0.59195 0.0
C2376 C 0.91626 0.95764 0.57612 0.0
C2377 C 0.92027 0.91224 0.61624 0.0
H2378 H 0.95462 0.87942 0.57295 0.0
C2379 C 0.96399 0.83146 0.63927 0.0
C2380 C 0.96608 0.81417 0.62389 0.0
C2381 C 0.95472 0.8518 0.63309 0.0
C2382 C 0.94455 0.88819 0.58494 0.0
H2383 H 0.93915 0.99338 0.62411 0.0
H2384 H 0.94148 0.95315 0.62662 0.0
H2385 H 0.94526 0.91848 0.56589 0.0
H2386 H 0.9596 0.80473 0.58986 0.0
H2387 H 0.9432 0.84055 0.57899 0.0
H2388 H 0.91974 0.88237 0.63552 0.0
C2389 C 0.93388 0.96065 0.61207 0.0
C2390 C 0.93924 0.91055 0.58089 0.0
C2391 C 0.93266 0.9837 0.61054 0.0
C2392 C 0.95828 0.81769 0.60212 0.0
C2393 C 0.94897 0.83823 0.59587 0.0
C2394 C 0.92533 0.88994 0.62016 0.0
C2395 C 0.92577 0.94738 0.59489 0.0
C2396 C 0.92776 0.92294 0.59691 0.0
C2397 C 0.94713 0.85555 0.61133 0.0
C2398 C 0.93831 0.87786 0.60501 0.0
H2399 H 0.90709 0.98843 0.56023 0.0
H2400 H 0.90992 0.94771 0.56267 0.0
H2401 H 0.91114 0.92138 0.6287 0.0
H2402 H 0.96979 0.82946 0.65618 0.0
H2403 H 0.95405 0.86484 0.64534 0.0
C2404 C 0.79811 0.22047 0.15636 0.0
C2405 C 0.79679 0.23334 0.17567 0.0
C2406 C 0.80188 0.19759 0.15789 0.0
C2407 C 0.79994 0.14868 0.19407 0.0
H2408 H 0.8565 0.13239 0.16806 0.0
C2409 C 0.84803 0.07156 0.22371 0.0
C2410 C 0.86228 0.06038 0.20909 0.0
C2411 C 0.83728 0.09108 0.21713 0.0
C2412 C 0.84041 0.13633 0.17501 0.0
H2413 H 0.79669 0.23228 0.21161 0.0
H2414 H 0.80243 0.19216 0.21427 0.0
H2415 H 0.84065 0.16889 0.16049 0.0
H2416 H 0.87596 0.06048 0.17586 0.0
H2417 H 0.85652 0.09416 0.16396 0.0
H2418 H 0.79942 0.1162 0.20846 0.0
C2419 C 0.80086 0.19981 0.19801 0.0
C2420 C 0.83139 0.15733 0.17069 0.0
C2421 C 0.79762 0.22273 0.19649 0.0
C2422 C 0.86525 0.0689 0.18756 0.0
C2423 C 0.85414 0.08827 0.1808 0.0
C2424 C 0.80872 0.1275 0.19803 0.0
C2425 C 0.8038 0.18718 0.17874 0.0
C2426 C 0.81137 0.16387 0.18063 0.0
C2427 C 0.84016 0.09977 0.19559 0.0
C2428 C 0.82942 0.12125 0.1891 0.0
H2429 H 0.79776 0.22826 0.1401 0.0
H2430 H 0.80409 0.18814 0.14283 0.0
H2431 H 0.7844 0.15335 0.20181 0.0
H2432 H 0.84557 0.06553 0.24051 0.0
H2433 H 0.82717 0.09962 0.22925 0.0
C2434 C 0.49144 0.90973 0.06928 0.0
C2435 C 0.5097 0.89742 0.06154 0.0
C2436 C 0.46986 0.90301 0.06468 0.0
C2437 C 0.43561 0.87092 0.02686 0.0
H2438 H 0.39368 0.87338 0.07561 0.0
C2439 C 0.34147 0.85766 0.01378 0.0
C2440 C 0.32913 0.87564 0.02199 0.0
C2441 C 0.36362 0.8546 0.02029 0.0
C2442 C 0.40521 0.87247 0.06185 0.0
H2443 H 0.51948 0.86884 0.04203 0.0
H2444 H 0.48158 0.85733 0.03373 0.0
H2445 H 0.43284 0.88026 0.08254 0.0
H2446 H 0.32952 0.90361 0.04431 0.0
H2447 H 0.36772 0.8982 0.05583 0.0
H2448 H 0.40772 0.86411 0.006 0.0
C2449 C 0.48413 0.87207 0.04354 0.0
C2450 C 0.42759 0.8765 0.0658 0.0
C2451 C 0.50581 0.8787 0.0483 0.0
C2452 C 0.33873 0.88963 0.03773 0.0
C2453 C 0.36058 0.88642 0.04443 0.0
C2454 C 0.41312 0.86696 0.02288 0.0
C2455 C 0.46596 0.88391 0.0521 0.0
C2456 C 0.44289 0.87654 0.04823 0.0
C2457 C 0.37349 0.86927 0.03536 0.0
C2458 C 0.3976 0.86849 0.04023 0.0
H2459 H 0.49373 0.92426 0.07944 0.0
H2460 H 0.45616 0.91274 0.07109 0.0
H2461 H 0.44707 0.87082 0.01302 0.0
H2462 H 0.33445 0.8468 0.00143 0.0
H2463 H 0.37319 0.84121 0.01309 0.0
C2464 C 0.18536 0.28339 0.15166 0.0
C2465 C 0.18904 0.27231 0.17196 0.0
C2466 C 0.18455 0.30655 0.15078 0.0
C2467 C 0.19794 0.35778 0.18042 0.0
H2468 H 0.13971 0.37802 0.16164 0.0
C2469 C 0.15776 0.43623 0.21504 0.0
C2470 C 0.14123 0.44755 0.20297 0.0
C2471 C 0.1679 0.41733 0.20641 0.0
C2472 C 0.15631 0.37297 0.16638 0.0
H2473 H 0.19644 0.2767 0.20685 0.0
H2474 H 0.19546 0.31716 0.20519 0.0
H2475 H 0.15099 0.33996 0.15486 0.0
H2476 H 0.1235 0.44891 0.1717 0.0
H2477 H 0.14179 0.41629 0.15622 0.0
H2478 H 0.20327 0.39066 0.19218 0.0
C2479 C 0.19303 0.30794 0.19003 0.0
C2480 C 0.16272 0.35105 0.16254 0.0
C2481 C 0.19342 0.2848 0.19101 0.0
C2482 C 0.13597 0.44033 0.18152 0.0
C2483 C 0.1464 0.42157 0.17271 0.0
C2484 C 0.19171 0.37984 0.18391 0.0
C2485 C 0.18788 0.31898 0.17007 0.0
C2486 C 0.18325 0.34308 0.17023 0.0
C2487 C 0.16202 0.40943 0.18533 0.0
C2488 C 0.17044 0.38748 0.17775 0.0
H2489 H 0.18187 0.2742 0.1367 0.0
H2490 H 0.18057 0.31475 0.1352 0.0
H2491 H 0.21396 0.352 0.18631 0.0
H2492 H 0.16213 0.44128 0.23167 0.0
H2493 H 0.17952 0.40833 0.21687 0.0
C2494 C 0.51111 0.56665 0.04749 0.0
C2495 C 0.5038 0.56446 0.06954 0.0
C2496 C 0.53349 0.57012 0.04281 0.0
C2497 C 0.59037 0.57182 0.06711 0.0
H2498 H 0.59763 0.61939 0.02407 0.0
C2499 C 0.65962 0.64011 0.03549 0.0
C2500 C 0.67847 0.62644 0.03352 0.0
C2501 C 0.639 0.63102 0.04075 0.0
C2502 C 0.59592 0.60623 0.03628 0.0
H2503 H 0.51451 0.56237 0.10384 0.0
H2504 H 0.55355 0.56879 0.09571 0.0
H2505 H 0.56103 0.60441 0.03091 0.0
H2506 H 0.69047 0.59256 0.03659 0.0
H2507 H 0.65451 0.57669 0.04534 0.0
H2508 H 0.62532 0.57429 0.07293 0.0
C2509 C 0.54204 0.56763 0.08198 0.0
C2510 C 0.57493 0.59733 0.03993 0.0
C2511 C 0.51963 0.5639 0.08666 0.0
C2512 C 0.67631 0.60357 0.03774 0.0
C2513 C 0.65567 0.59446 0.04294 0.0
C2514 C 0.61144 0.58078 0.06345 0.0
C2515 C 0.54907 0.57176 0.06007 0.0
C2516 C 0.57183 0.58005 0.05543 0.0
C2517 C 0.63668 0.60803 0.04415 0.0
C2518 C 0.61442 0.59822 0.0481 0.0
H2519 H 0.49934 0.56689 0.03391 0.0
H2520 H 0.53842 0.57256 0.02568 0.0
H2521 H 0.5886 0.55847 0.07909 0.0
H2522 H 0.66065 0.65782 0.03255 0.0
H2523 H 0.6248 0.64203 0.04201 0.0
C2524 C 0.83115 0.76066 0.28846 0.0
C2525 C 0.82162 0.75343 0.30854 0.0
C2526 C 0.83917 0.78217 0.2862 0.0
C2527 C 0.86002 0.82831 0.32 0.0
H2528 H 0.85572 0.86107 0.26454 0.0
C2529 C 0.87296 0.92216 0.30954 0.0
C2530 C 0.88015 0.93029 0.28885 0.0
C2531 C 0.87136 0.89939 0.31338 0.0
C2532 C 0.85752 0.85194 0.28 0.0
H2533 H 0.81185 0.76363 0.34156 0.0
H2534 H 0.82537 0.8016 0.33739 0.0
H2535 H 0.83822 0.82503 0.26791 0.0
H2536 H 0.89426 0.92107 0.25713 0.0
H2537 H 0.89162 0.88115 0.26391 0.0
H2538 H 0.87878 0.85571 0.33223 0.0
C2539 C 0.82709 0.79033 0.32358 0.0
C2540 C 0.84733 0.83131 0.28198 0.0
C2541 C 0.81902 0.7687 0.32585 0.0
C2542 C 0.88853 0.91528 0.27319 0.0
C2543 C 0.88677 0.89243 0.27698 0.0
C2544 C 0.87013 0.84905 0.31804 0.0
C2545 C 0.8378 0.79711 0.30392 0.0
C2546 C 0.84832 0.81928 0.30204 0.0
C2547 C 0.87687 0.88434 0.29656 0.0
C2548 C 0.86888 0.86115 0.29805 0.0
H2549 H 0.83336 0.74935 0.27474 0.0
H2550 H 0.8474 0.78673 0.27087 0.0
H2551 H 0.8615 0.81928 0.33555 0.0
H2552 H 0.86661 0.9334 0.32201 0.0
H2553 H 0.86378 0.89372 0.32869 0.0
C2554 C 0.02529 0.92612 0.91008 0.0
C2555 C 0.00999 0.92637 0.92768 0.0
C2556 C 0.0479 0.92254 0.91427 0.0
C2557 C 0.08255 0.895 0.95672 0.0
H2558 H 0.13177 0.9177 0.9222 0.0
C2559 C 0.18405 0.89142 0.9588 0.0
C2560 C 0.18705 0.86883 0.96416 0.0
C2561 C 0.16309 0.89974 0.95307 0.0
C2562 C 0.11821 0.91131 0.93209 0.0
H2563 H 0.00656 0.92537 0.96347 0.0
H2564 H 0.04591 0.91997 0.97079 0.0
H2565 H 0.09439 0.93238 0.91574 0.0
H2566 H 0.17043 0.83709 0.96654 0.0
H2567 H 0.13407 0.85149 0.95619 0.0
H2568 H 0.10619 0.87422 0.97332 0.0
C2569 C 0.04047 0.92167 0.95373 0.0
C2570 C 0.09677 0.91961 0.92826 0.0
C2571 C 0.01794 0.92497 0.94955 0.0
C2572 C 0.16874 0.85462 0.96275 0.0
C2573 C 0.14782 0.86291 0.95696 0.0
C2574 C 0.10388 0.88676 0.96054 0.0
C2575 C 0.0556 0.91936 0.93612 0.0
C2576 C 0.07867 0.91153 0.94055 0.0
C2577 C 0.14464 0.88565 0.95248 0.0
C2578 C 0.12198 0.89468 0.9482 0.0
H2579 H 0.01964 0.92702 0.89304 0.0
H2580 H 0.05906 0.92084 0.9003 0.0
H2581 H 0.06901 0.88804 0.96623 0.0
H2582 H 0.19777 0.90284 0.95953 0.0
H2583 H 0.16124 0.91735 0.94983 0.0
C2584 C 0.16434 0.71276 0.30963 0.0
C2585 C 0.15795 0.72981 0.32404 0.0
C2586 C 0.1569 0.69116 0.31322 0.0
C2587 C 0.1103 0.6607 0.3295 0.0
H2588 H 0.15026 0.61059 0.33694 0.0
C2589 C 0.11765 0.55893 0.32832 0.0
C2590 C 0.11113 0.55567 0.30621 0.0
C2591 C 0.1166 0.58002 0.33756 0.0
C2592 C 0.13875 0.62438 0.33536 0.0
H2593 H 0.13892 0.73774 0.35354 0.0
H2594 H 0.1254 0.69988 0.35938 0.0
H2595 H 0.16468 0.64817 0.33916 0.0
H2596 H 0.09491 0.57081 0.27775 0.0
H2597 H 0.0932 0.60779 0.29386 0.0
H2598 H 0.08463 0.63682 0.32403 0.0
C2599 C 0.1365 0.70329 0.34565 0.0
C2600 C 0.14709 0.64583 0.33648 0.0
C2601 C 0.14441 0.7248 0.3424 0.0
C2602 C 0.10021 0.57294 0.29478 0.0
C2603 C 0.09925 0.59414 0.30403 0.0
C2604 C 0.10198 0.63915 0.32795 0.0
C2605 C 0.1425 0.68643 0.33092 0.0
C2606 C 0.13303 0.66409 0.33311 0.0
C2607 C 0.10906 0.59811 0.32479 0.0
C2608 C 0.11625 0.6208 0.33046 0.0
H2609 H 0.17461 0.71626 0.29529 0.0
H2610 H 0.16162 0.6783 0.30165 0.0
H2611 H 0.09926 0.67469 0.32669 0.0
H2612 H 0.12576 0.54573 0.33762 0.0
H2613 H 0.1238 0.58258 0.3538 0.0
C2614 C 0.9954 0.62456 0.94734 0.0
C2615 C 0.00129 0.60839 0.93162 0.0
C2616 C 0.97319 0.62977 0.95135 0.0
C2617 C 0.91729 0.62565 0.92657 0.0
H2618 H 0.89704 0.6326 0.98722 0.0
C2619 C 0.82807 0.61132 0.95416 0.0
C2620 C 0.81888 0.624 0.97133 0.0
C2621 C 0.84981 0.61473 0.94728 0.0
C2622 C 0.9025 0.63124 0.97016 0.0
H2623 H 0.98822 0.58483 0.90802 0.0
H2624 H 0.94942 0.59367 0.91533 0.0
H2625 H 0.93637 0.6268 0.97983 0.0
H2626 H 0.8247 0.65096 0.99407 0.0
H2627 H 0.86319 0.65689 0.9821 0.0
H2628 H 0.88327 0.62929 0.91701 0.0
C2629 C 0.96208 0.6026 0.92425 0.0
C2630 C 0.92503 0.6278 0.96591 0.0
C2631 C 0.98434 0.59738 0.92021 0.0
C2632 C 0.83141 0.64108 0.9807 0.0
C2633 C 0.85342 0.64432 0.97398 0.0
C2634 C 0.89477 0.62905 0.93082 0.0
C2635 C 0.95626 0.61895 0.93977 0.0
C2636 C 0.93261 0.62443 0.94411 0.0
C2637 C 0.86297 0.63076 0.95757 0.0
C2638 C 0.88707 0.63132 0.9527 0.0
H2639 H 0.00796 0.63347 0.95642 0.0
H2640 H 0.96929 0.64257 0.96327 0.0
H2641 H 0.92266 0.62364 0.90955 0.0
H2642 H 0.81869 0.59811 0.94659 0.0
H2643 H 0.85669 0.60386 0.93478 0.0
C2644 C 0.17174 0.78354 0.21096 0.0
C2645 C 0.18705 0.79268 0.22589 0.0
C2646 C 0.17521 0.78521 0.18808 0.0
C2647 C 0.17764 0.81161 0.14492 0.0
H2648 H 0.23429 0.80687 0.11491 0.0
C2649 C 0.20086 0.86232 0.06659 0.0
C2650 C 0.21407 0.85192 0.05048 0.0
C2651 C 0.1956 0.85122 0.08638 0.0
C2652 C 0.21827 0.80802 0.12295 0.0
H2653 H 0.21911 0.80854 0.22853 0.0
H2654 H 0.22522 0.81123 0.18869 0.0
H2655 H 0.23031 0.79207 0.15252 0.0
H2656 H 0.23053 0.8211 0.04183 0.0
H2657 H 0.22159 0.80192 0.07621 0.0
H2658 H 0.16577 0.82813 0.11559 0.0
C2659 C 0.21045 0.80298 0.19464 0.0
C2660 C 0.21605 0.79966 0.14451 0.0
C2661 C 0.2069 0.8015 0.2175 0.0
C2662 C 0.22082 0.82981 0.05405 0.0
C2663 C 0.21566 0.81877 0.07378 0.0
C2664 C 0.1799 0.82012 0.12342 0.0
C2665 C 0.19417 0.79577 0.17971 0.0
C2666 C 0.19582 0.80171 0.15586 0.0
C2667 C 0.20347 0.82953 0.09039 0.0
C2668 C 0.20034 0.81875 0.11236 0.0
H2669 H 0.15629 0.77655 0.21682 0.0
H2670 H 0.16256 0.77919 0.17692 0.0
H2671 H 0.1619 0.81368 0.15335 0.0
H2672 H 0.19536 0.87933 0.06437 0.0
H2673 H 0.18625 0.85998 0.09894 0.0
C2674 C 0.22114 0.18566 0.26775 0.0
C2675 C 0.20266 0.19744 0.2595 0.0
C2676 C 0.22401 0.18263 0.29055 0.0
C2677 C 0.2052 0.19939 0.34644 0.0
H2678 H 0.21409 0.13694 0.35995 0.0
C2679 C 0.22301 0.16262 0.43426 0.0
C2680 C 0.21323 0.14211 0.43949 0.0
C2681 C 0.22024 0.17219 0.41323 0.0
C2682 C 0.21142 0.15441 0.35646 0.0
H2683 H 0.17395 0.21716 0.26894 0.0
H2684 H 0.179 0.21176 0.30874 0.0
H2685 H 0.21466 0.14958 0.32156 0.0
H2686 H 0.19148 0.11642 0.42723 0.0
H2687 H 0.18663 0.13315 0.39061 0.0
H2688 H 0.20183 0.20403 0.38158 0.0
C2689 C 0.19119 0.20481 0.29752 0.0
C2690 C 0.21209 0.16171 0.33449 0.0
C2691 C 0.18828 0.20784 0.27467 0.0
C2692 C 0.19941 0.13213 0.42373 0.0
C2693 C 0.19673 0.14164 0.4027 0.0
C2694 C 0.20474 0.19208 0.36856 0.0
C2695 C 0.20852 0.19135 0.3056 0.0
C2696 C 0.20897 0.18425 0.32921 0.0
C2697 C 0.20769 0.16138 0.39701 0.0
C2698 C 0.20768 0.16947 0.37373 0.0
H2699 H 0.23274 0.17767 0.2566 0.0
H2700 H 0.23781 0.17257 0.29638 0.0
H2701 H 0.20272 0.21686 0.34282 0.0
H2702 H 0.23358 0.17086 0.44605 0.0
H2703 H 0.2289 0.1874 0.40931 0.0
C2704 C 0.42078 0.56545 0.98926 0.0
C2705 C 0.40638 0.5589 0.0064 0.0
C2706 C 0.41594 0.56036 0.96722 0.0
C2707 C 0.37028 0.545 0.92979 0.0
H2708 H 0.41749 0.51985 0.89413 0.0
C2709 C 0.38748 0.49443 0.84374 0.0
C2710 C 0.37909 0.50903 0.82754 0.0
C2711 C 0.38696 0.50019 0.86601 0.0
C2712 C 0.4041 0.52677 0.90393 0.0
H2713 H 0.37554 0.54184 0.01371 0.0
H2714 H 0.36733 0.53288 0.97534 0.0
H2715 H 0.42529 0.53146 0.93186 0.0
H2716 H 0.36162 0.54 0.82171 0.0
H2717 H 0.36087 0.55037 0.86113 0.0
H2718 H 0.34907 0.54001 0.90164 0.0
C2719 C 0.38219 0.54217 0.97896 0.0
C2720 C 0.40865 0.53365 0.92542 0.0
C2721 C 0.38707 0.54712 0.00097 0.0
C2722 C 0.36819 0.52855 0.83404 0.0
C2723 C 0.36781 0.53445 0.85649 0.0
C2724 C 0.36575 0.53824 0.9081 0.0
C2725 C 0.39656 0.54873 0.96188 0.0
C2726 C 0.39177 0.54263 0.93865 0.0
C2727 C 0.37823 0.52077 0.87245 0.0
C2728 C 0.38258 0.52874 0.89514 0.0
H2729 H 0.43572 0.57463 0.99282 0.0
H2730 H 0.42726 0.56571 0.95432 0.0
H2731 H 0.35701 0.55207 0.93963 0.0
H2732 H 0.39566 0.4791 0.83905 0.0
H2733 H 0.39457 0.4891 0.87807 0.0
C2734 C 0.78778 0.32018 0.26451 0.0
C2735 C 0.80791 0.31624 0.25345 0.0
C2736 C 0.78755 0.32761 0.28632 0.0
C2737 C 0.82292 0.35732 0.3264 0.0
H2738 H 0.77372 0.34471 0.36582 0.0
C2739 C 0.81533 0.37516 0.42089 0.0
C2740 C 0.79411 0.38107 0.42862 0.0
C2741 C 0.81912 0.37216 0.39824 0.0
C2742 C 0.78738 0.34866 0.35483 0.0
H2743 H 0.84362 0.31543 0.25717 0.0
H2744 H 0.84325 0.32762 0.29588 0.0
H2745 H 0.7769 0.32499 0.331 0.0
H2746 H 0.76113 0.39147 0.41863 0.0
H2747 H 0.76771 0.38606 0.37901 0.0
H2748 H 0.83382 0.3803 0.35118 0.0
C2749 C 0.82762 0.32557 0.28735 0.0
C2750 C 0.78927 0.33729 0.33486 0.0
C2751 C 0.82784 0.31819 0.26531 0.0
C2752 C 0.77766 0.38697 0.41315 0.0
C2753 C 0.78134 0.38361 0.3905 0.0
C2754 C 0.82123 0.36842 0.3467 0.0
C2755 C 0.80745 0.33108 0.29787 0.0
C2756 C 0.80687 0.34167 0.32017 0.0
C2757 C 0.80165 0.37481 0.38306 0.0
C2758 C 0.80323 0.36441 0.36092 0.0
H2759 H 0.77212 0.31881 0.25583 0.0
H2760 H 0.77168 0.33183 0.2936 0.0
H2761 H 0.83655 0.36138 0.31543 0.0
H2762 H 0.8283 0.37054 0.43252 0.0
H2763 H 0.83495 0.36546 0.39293 0.0
C2764 C 0.08862 0.41368 0.49022 0.0
C2765 C 0.09997 0.42554 0.50665 0.0
C2766 C 0.09206 0.41832 0.46773 0.0
C2767 C 0.13166 0.44399 0.42838 0.0
H2768 H 0.08067 0.44483 0.38927 0.0
C2769 C 0.132 0.47572 0.33628 0.0
C2770 C 0.1174 0.4651 0.32174 0.0
C2771 C 0.13281 0.46938 0.35875 0.0
C2772 C 0.09518 0.44432 0.39986 0.0
H2773 H 0.12384 0.45176 0.51208 0.0
H2774 H 0.1296 0.45998 0.47281 0.0
H2775 H 0.07551 0.43767 0.42861 0.0
H2776 H 0.09386 0.4384 0.31847 0.0
H2777 H 0.09595 0.42673 0.35716 0.0
H2778 H 0.15127 0.45085 0.39939 0.0
C2779 C 0.11823 0.44689 0.4774 0.0
C2780 C 0.09218 0.44026 0.42247 0.0
C2781 C 0.11476 0.44229 0.49994 0.0
C2782 C 0.10518 0.44689 0.32943 0.0
C2783 C 0.10619 0.4404 0.35165 0.0
C2784 C 0.13467 0.44807 0.40563 0.0
C2785 C 0.10694 0.43494 0.46102 0.0
C2786 C 0.11036 0.43986 0.43702 0.0
C2787 C 0.11912 0.45226 0.36683 0.0
C2788 C 0.11646 0.44805 0.39107 0.0
H2789 H 0.0772 0.4006 0.49469 0.0
H2790 H 0.08328 0.4086 0.45556 0.0
H2791 H 0.14604 0.44364 0.43913 0.0
H2792 H 0.14137 0.48999 0.33073 0.0
H2793 H 0.14298 0.47883 0.37001 0.0
C2794 C 0.29587 0.16482 0.72769 0.0
C2795 C 0.31563 0.17149 0.738 0.0
C2796 C 0.29623 0.15558 0.70657 0.0
C2797 C 0.32787 0.14966 0.65528 0.0
H2798 H 0.2937 0.09569 0.64938 0.0
C2799 C 0.3187 0.11215 0.5701 0.0
C2800 C 0.29643 0.10872 0.56432 0.0
C2801 C 0.32492 0.1134 0.59237 0.0
C2802 C 0.30331 0.11073 0.6507 0.0
H2803 H 0.35109 0.17515 0.73346 0.0
H2804 H 0.35159 0.15941 0.69607 0.0
H2805 H 0.29631 0.11371 0.6854 0.0
H2806 H 0.26388 0.10077 0.57705 0.0
H2807 H 0.2745 0.10326 0.61586 0.0
H2808 H 0.33404 0.14745 0.62051 0.0
C2809 C 0.33588 0.16114 0.70462 0.0
C2810 C 0.30477 0.12107 0.67133 0.0
C2811 C 0.33556 0.17033 0.72593 0.0
C2812 C 0.28118 0.10335 0.58106 0.0
C2813 C 0.28732 0.10495 0.60339 0.0
C2814 C 0.32625 0.13944 0.6346 0.0
C2815 C 0.31631 0.1529 0.69513 0.0
C2816 C 0.31662 0.14093 0.6737 0.0
C2817 C 0.3089 0.11156 0.60923 0.0
C2818 C 0.31355 0.12009 0.63192 0.0
H2819 H 0.28019 0.16568 0.73642 0.0
H2820 H 0.28079 0.14997 0.69941 0.0
H2821 H 0.33705 0.16498 0.6566 0.0
H2822 H 0.33081 0.11619 0.55744 0.0
H2823 H 0.34188 0.11768 0.59628 0.0
C2824 C 0.4353 0.42034 0.51914 0.0
C2825 C 0.43074 0.43696 0.50326 0.0
C2826 C 0.43231 0.42453 0.54173 0.0
C2827 C 0.40337 0.43472 0.58237 0.0
H2828 H 0.42393 0.48662 0.61371 0.0
C2829 C 0.3617 0.46987 0.66137 0.0
C2830 C 0.37598 0.47468 0.67912 0.0
C2831 C 0.37032 0.46399 0.64067 0.0
C2832 C 0.41819 0.472 0.60516 0.0
H2833 H 0.42126 0.47144 0.49863 0.0
H2834 H 0.41667 0.47891 0.53815 0.0
H2835 H 0.43768 0.47908 0.57621 0.0
H2836 H 0.41052 0.47671 0.68891 0.0
H2837 H 0.42542 0.46704 0.65274 0.0
H2838 H 0.38326 0.42807 0.61097 0.0
C2839 C 0.42226 0.4626 0.53309 0.0
C2840 C 0.426 0.46774 0.58377 0.0
C2841 C 0.42484 0.45831 0.5105 0.0
C2842 C 0.39902 0.47326 0.6757 0.0
C2843 C 0.4076 0.46777 0.65494 0.0
C2844 C 0.39526 0.4392 0.60358 0.0
C2845 C 0.42517 0.44553 0.54882 0.0
C2846 C 0.41857 0.44911 0.57216 0.0
C2847 C 0.39334 0.46315 0.63723 0.0
C2848 C 0.40249 0.45795 0.6151 0.0
H2849 H 0.43974 0.4037 0.51406 0.0
H2850 H 0.43479 0.41116 0.5536 0.0
H2851 H 0.39719 0.42039 0.57363 0.0
H2852 H 0.34388 0.4707 0.66344 0.0
H2853 H 0.35898 0.46058 0.62719 0.0
C2854 C 0.57786 0.09501 0.51859 0.0
C2855 C 0.58018 0.07696 0.50408 0.0
C2856 C 0.57931 0.09184 0.54162 0.0
C2857 C 0.57794 0.04927 0.58658 0.0
H2858 H 0.61952 0.08794 0.61611 0.0
C2859 C 0.63851 0.04572 0.66722 0.0
C2860 C 0.62406 0.0383 0.68401 0.0
C2861 C 0.63033 0.05288 0.64666 0.0
C2862 C 0.60778 0.07707 0.60814 0.0
H2863 H 0.58447 0.04124 0.50262 0.0
H2864 H 0.58675 0.03575 0.54264 0.0
H2865 H 0.60924 0.09534 0.57756 0.0
H2866 H 0.58944 0.03346 0.69238 0.0
H2867 H 0.57519 0.04559 0.65623 0.0
H2868 H 0.57702 0.03063 0.61704 0.0
C2869 C 0.58389 0.05236 0.53625 0.0
C2870 C 0.60173 0.08142 0.5861 0.0
C2871 C 0.58269 0.05554 0.51325 0.0
C2872 C 0.6011 0.03886 0.67985 0.0
C2873 C 0.59291 0.04576 0.6591 0.0
C2874 C 0.58383 0.04505 0.60873 0.0
C2875 C 0.58282 0.07052 0.5507 0.0
C2876 C 0.58709 0.06732 0.5749 0.0
C2877 C 0.60748 0.05265 0.6422 0.0
C2878 C 0.5992 0.05862 0.61961 0.0
H2879 H 0.57595 0.11173 0.51216 0.0
H2880 H 0.57818 0.10614 0.55233 0.0
H2881 H 0.56651 0.03818 0.57848 0.0
H2882 H 0.65629 0.04565 0.6698 0.0
H2883 H 0.64203 0.05789 0.63397 0.0
C2884 C 0.72233 0.70026 0.31481 0.0
C2885 C 0.73188 0.67931 0.31073 0.0
C2886 C 0.69983 0.70232 0.31969 0.0
C2887 C 0.65999 0.69388 0.35036 0.0
H2888 H 0.60942 0.68138 0.31287 0.0
C2889 C 0.56993 0.69999 0.38242 0.0
C2890 C 0.55618 0.71394 0.36955 0.0
C2891 C 0.59049 0.69286 0.37427 0.0
C2892 C 0.62343 0.68477 0.32353 0.0
H2893 H 0.72468 0.64434 0.30673 0.0
H2894 H 0.68491 0.64822 0.31471 0.0
H2895 H 0.64721 0.6745 0.29897 0.0
H2896 H 0.55312 0.7307 0.33768 0.0
H2897 H 0.58871 0.71797 0.32341 0.0
H2898 H 0.6365 0.70425 0.37487 0.0
C2899 C 0.69518 0.66288 0.31442 0.0
C2900 C 0.64494 0.68077 0.31562 0.0
C2901 C 0.71791 0.66071 0.30979 0.0
C2902 C 0.56321 0.72003 0.34809 0.0
C2903 C 0.58357 0.7126 0.33982 0.0
C2904 C 0.63858 0.69747 0.3584 0.0
C2905 C 0.68622 0.6836 0.32022 0.0
C2906 C 0.66337 0.68572 0.32886 0.0
C2907 C 0.59756 0.69922 0.35294 0.0
C2908 C 0.62009 0.69331 0.34495 0.0
H2909 H 0.73246 0.71501 0.31545 0.0
H2910 H 0.69319 0.71851 0.32386 0.0
H2911 H 0.674 0.69775 0.36086 0.0
H2912 H 0.56506 0.69499 0.39902 0.0
H2913 H 0.60097 0.68251 0.38472 0.0
C2914 C 0.94353 0.00977 0.88483 0.0
C2915 C 0.93119 0.00116 0.90269 0.0
C2916 C 0.94603 0.03259 0.88205 0.0
C2917 C 0.94646 0.08533 0.91107 0.0
H2918 H 0.93888 0.10977 0.8518 0.0
C2919 C 0.96178 0.17846 0.88954 0.0
C2920 C 0.97356 0.1823 0.86973 0.0
C2921 C 0.95388 0.15721 0.89473 0.0
C2922 C 0.9412 0.10322 0.86843 0.0
H2923 H 0.91208 0.00994 0.93188 0.0
H2924 H 0.91683 0.05009 0.92713 0.0
H2925 H 0.93028 0.07097 0.85894 0.0
H2926 H 0.98627 0.1667 0.83992 0.0
H2927 H 0.97289 0.12999 0.84904 0.0
H2928 H 0.95815 0.11746 0.92036 0.0
C2929 C 0.9244 0.03897 0.91526 0.0
C2930 C 0.93621 0.081 0.87252 0.0
C2931 C 0.92163 0.01602 0.91791 0.0
C2932 C 0.97719 0.16447 0.85527 0.0
C2933 C 0.96934 0.14336 0.86043 0.0
C2934 C 0.95163 0.10762 0.90693 0.0
C2935 C 0.93645 0.04746 0.89715 0.0
C2936 C 0.93928 0.07167 0.89373 0.0
C2937 C 0.95754 0.13942 0.88016 0.0
C2938 C 0.9496 0.11665 0.88541 0.0
H2939 H 0.9511 -0.00111 0.87274 0.0
H2940 H 0.95567 0.03863 0.86812 0.0
H2941 H 0.94905 0.07853 0.92756 0.0
H2942 H 0.95866 0.19182 0.90104 0.0
H2943 H 0.94474 0.15476 0.91001 0.0
C2944 C 0.25019 0.78846 0.33682 0.0
C2945 C 0.243 0.80606 0.32306 0.0
C2946 C 0.272 0.78741 0.34447 0.0
C2947 C 0.3209 0.82249 0.35451 0.0
H2948 H 0.35203 0.76607 0.35751 0.0
C2949 C 0.41559 0.8131 0.36128 0.0
C2950 C 0.42458 0.79408 0.37162 0.0
C2951 C 0.39269 0.81633 0.36025 0.0
C2952 C 0.34343 0.7819 0.35727 0.0
H2953 H 0.25348 0.83605 0.30605 0.0
H2954 H 0.29181 0.83397 0.31912 0.0
H2955 H 0.31418 0.76751 0.34369 0.0
H2956 H 0.41668 0.76482 0.39116 0.0
H2957 H 0.37657 0.77064 0.3896 0.0
H2958 H 0.35046 0.83691 0.36764 0.0
C2959 C 0.28033 0.82119 0.32428 0.0
C2960 C 0.32174 0.78275 0.34919 0.0
C2961 C 0.25843 0.82224 0.31657 0.0
C2962 C 0.41028 0.77959 0.38297 0.0
C2963 C 0.38729 0.78279 0.38185 0.0
C2964 C 0.34265 0.82164 0.36258 0.0
C2965 C 0.28728 0.80391 0.33856 0.0
C2966 C 0.31028 0.80307 0.34748 0.0
C2967 C 0.37825 0.80061 0.36953 0.0
C2968 C 0.35426 0.80136 0.36382 0.0
H2969 H 0.23882 0.77566 0.34218 0.0
H2970 H 0.2767 0.77397 0.35557 0.0
H2971 H 0.31239 0.83835 0.35383 0.0
H2972 H 0.42619 0.82471 0.35257 0.0
H2973 H 0.38635 0.83025 0.35065 0.0
C2974 C 0.06442 0.49338 0.92519 0.0
C2975 C 0.056 0.51055 0.91165 0.0
C2976 C 0.05983 0.47123 0.92039 0.0
C2977 C 0.02252 0.43486 0.88822 0.0
H2978 H 0.0708 0.39264 0.89553 0.0
C2979 C 0.01254 0.34148 0.86881 0.0
C2980 C 0.01802 0.32827 0.88731 0.0
C2981 C 0.01911 0.36376 0.86797 0.0
C2982 C 0.05721 0.40428 0.89329 0.0
H2983 H 0.03526 0.5178 0.88296 0.0
H2984 H 0.0275 0.4793 0.87456 0.0
H2985 H 0.07703 0.43177 0.90311 0.0
H2986 H 0.03571 0.32717 0.91858 0.0
H2987 H 0.04756 0.36558 0.9169 0.0
H2988 H 0.00266 0.40717 0.87868 0.0
C2989 C 0.03755 0.48292 0.88896 0.0
C2990 C 0.06069 0.42665 0.89785 0.0
C2991 C 0.04206 0.50505 0.8938 0.0
C2992 C 0.03128 0.3371 0.90415 0.0
C2993 C 0.03815 0.35905 0.90313 0.0
C2994 C 0.01907 0.41246 0.88355 0.0
C2995 C 0.04676 0.46573 0.90191 0.0
C2996 C 0.04326 0.44214 0.89586 0.0
C2997 C 0.03161 0.37282 0.88539 0.0
C2998 C 0.03626 0.39689 0.88653 0.0
H2999 H 0.07511 0.49696 0.93913 0.0
H3000 H 0.06676 0.45839 0.93103 0.0
H3001 H 0.0087 0.44632 0.88662 0.0
H3002 H 0.00218 0.33499 0.85572 0.0
H3003 H 0.01394 0.37405 0.85407 0.0
C3004 C 0.70926 0.30236 0.174 0.0
C3005 C 0.72226 0.32017 0.18123 0.0
C3006 C 0.68634 0.30458 0.17245 0.0
C3007 C 0.64588 0.3274 0.15063 0.0
H3008 H 0.60148 0.32647 0.19717 0.0
C3009 C 0.55509 0.31902 0.12766 0.0
C3010 C 0.54531 0.30068 0.13825 0.0
C3011 C 0.5744 0.32833 0.13622 0.0
C3012 C 0.61372 0.32706 0.18403 0.0
H3013 H 0.72112 0.35366 0.19427 0.0
H3014 H 0.68065 0.35729 0.19174 0.0
H3015 H 0.64099 0.32834 0.20697 0.0
H3016 H 0.547 0.27911 0.16722 0.0
H3017 H 0.58075 0.295 0.18183 0.0
H3018 H 0.61918 0.32491 0.12766 0.0
C3019 C 0.68852 0.34179 0.18712 0.0
C3020 C 0.6362 0.32822 0.18965 0.0
C3021 C 0.7116 0.33966 0.18853 0.0
C3022 C 0.55423 0.29303 0.15849 0.0
C3023 C 0.5735 0.30233 0.16702 0.0
C3024 C 0.62354 0.32643 0.14501 0.0
C3025 C 0.67592 0.3245 0.17835 0.0
C3026 C 0.65235 0.32761 0.17295 0.0
C3027 C 0.58427 0.31949 0.15552 0.0
C3028 C 0.60724 0.32546 0.16165 0.0
H3029 H 0.71682 0.28702 0.16846 0.0
H3030 H 0.67678 0.29101 0.16578 0.0
H3031 H 0.6582 0.32692 0.13755 0.0
H3032 H 0.54848 0.32553 0.1122 0.0
H3033 H 0.5822 0.34177 0.12716 0.0
C3034 C 0.57367 0.01354 0.08005 0.0
C3035 C 0.56235 0.99688 0.09182 0.0
C3036 C 0.57033 0.03588 0.08518 0.0
C3037 C 0.53236 0.07456 0.11419 0.0
H3038 H 0.58412 0.11238 0.11459 0.0
C3039 C 0.52442 0.16684 0.13516 0.0
C3040 C 0.53245 0.18008 0.11773 0.0
C3041 C 0.53073 0.14448 0.1367 0.0
C3042 C 0.56956 0.10196 0.11469 0.0
H3043 H 0.53779 0.99082 0.11751 0.0
H3044 H 0.53217 0.02961 0.1265 0.0
H3045 H 0.58831 0.07309 0.10598 0.0
H3046 H 0.55474 0.18131 0.08959 0.0
H3047 H 0.56613 0.14263 0.09253 0.0
H3048 H 0.51359 0.10354 0.12256 0.0
C3049 C 0.54355 0.02547 0.11324 0.0
C3050 C 0.5719 0.07953 0.10953 0.0
C3051 C 0.54681 0.00317 0.10806 0.0
C3052 C 0.54837 0.17135 0.10319 0.0
C3053 C 0.55492 0.14922 0.10492 0.0
C3054 C 0.53005 0.09697 0.11947 0.0
C3055 C 0.55563 0.04206 0.10221 0.0
C3056 C 0.55326 0.06566 0.10876 0.0
C3057 C 0.5454 0.1353 0.12104 0.0
C3058 C 0.54856 0.11099 0.11932 0.0
H3059 H 0.58569 0.00934 0.06738 0.0
H3060 H 0.5795 0.0483 0.07599 0.0
H3061 H 0.51763 0.06441 0.11359 0.0
H3062 H 0.51196 0.17321 0.14643 0.0
H3063 H 0.5233 0.13411 0.1494 0.0
C3064 C 0.27625 0.17191 0.16798 0.0
C3065 C 0.26157 0.18833 0.15999 0.0
C3066 C 0.29774 0.17024 0.1594 0.0
C3067 C 0.33929 0.20281 0.12837 0.0
H3068 H 0.36728 0.14553 0.11905 0.0
C3069 C 0.42702 0.20283 0.1013 0.0
C3070 C 0.43993 0.1928 0.11803 0.0
C3071 C 0.40493 0.19675 0.09856 0.0
C3072 C 0.35951 0.1616 0.12132 0.0
H3073 H 0.25821 0.21612 0.13695 0.0
H3074 H 0.2951 0.21287 0.12187 0.0
H3075 H 0.329 0.14737 0.13258 0.0
H3076 H 0.44123 0.16573 0.14199 0.0
H3077 H 0.4026 0.15568 0.13773 0.0
H3078 H 0.36965 0.21713 0.11773 0.0
C3079 C 0.2903 0.2015 0.13498 0.0
C3080 C 0.33775 0.16268 0.12931 0.0
C3081 C 0.26903 0.20332 0.14367 0.0
C3082 C 0.4315 0.1742 0.12936 0.0
C3083 C 0.40935 0.16827 0.12678 0.0
C3084 C 0.36081 0.20173 0.12023 0.0
C3085 C 0.30488 0.18488 0.14261 0.0
C3086 C 0.32756 0.18334 0.13325 0.0
C3087 C 0.39547 0.18076 0.1127 0.0
C3088 C 0.37132 0.18116 0.11696 0.0
H3089 H 0.27101 0.16006 0.1805 0.0
H3090 H 0.30875 0.15751 0.16591 0.0
H3091 H 0.33216 0.219 0.13161 0.0
H3092 H 0.43304 0.21701 0.09208 0.0
H3093 H 0.39467 0.20624 0.08713 0.0
C3094 C 0.43113 0.48256 0.11209 0.0
C3095 C 0.42082 0.49356 0.09419 0.0
C3096 C 0.43131 0.45948 0.11336 0.0
C3097 C 0.43415 0.40967 0.08333 0.0
H3098 H 0.40921 0.38235 0.13613 0.0
C3099 C 0.45014 0.31711 0.10553 0.0
C3100 C 0.45649 0.31362 0.12775 0.0
C3101 C 0.44089 0.33748 0.09878 0.0
C3102 C 0.41627 0.38967 0.12128 0.0
H3103 H 0.40302 0.48898 0.0633 0.0
H3104 H 0.4041 0.44819 0.06524 0.0
H3105 H 0.403 0.42177 0.1289 0.0
H3106 H 0.45719 0.32851 0.16045 0.0
H3107 H 0.44162 0.36368 0.14875 0.0
H3108 H 0.44886 0.37801 0.07651 0.0
C3109 C 0.41165 0.45769 0.07838 0.0
C3110 C 0.41257 0.41218 0.11711 0.0
C3111 C 0.41102 0.48092 0.07733 0.0
C3112 C 0.4526 0.33056 0.14317 0.0
C3113 C 0.44341 0.35077 0.13648 0.0
C3114 C 0.43817 0.38714 0.08768 0.0
C3115 C 0.42157 0.44687 0.09657 0.0
C3116 C 0.42203 0.42247 0.09848 0.0
C3117 C 0.43768 0.35464 0.11417 0.0
C3118 C 0.42994 0.3771 0.10716 0.0
H3119 H 0.43869 0.4918 0.12542 0.0
H3120 H 0.43919 0.45142 0.12747 0.0
H3121 H 0.44168 0.41738 0.06891 0.0
H3122 H 0.45277 0.30437 0.09324 0.0
H3123 H 0.43648 0.33986 0.0815 0.0
C3124 C 0.30111 0.72444 0.70069 0.0
C3125 C 0.29961 0.73436 0.67956 0.0
C3126 C 0.30353 0.70145 0.70289 0.0
C3127 C 0.33162 0.65728 0.67669 0.0
H3128 H 0.29722 0.61724 0.71342 0.0
C3129 C 0.36223 0.56792 0.6924 0.0
C3130 C 0.35848 0.55878 0.71353 0.0
C3131 C 0.35155 0.58757 0.68587 0.0
C3132 C 0.30723 0.62821 0.70333 0.0
H3133 H 0.29868 0.72802 0.64421 0.0
H3134 H 0.30369 0.6878 0.6481 0.0
H3135 H 0.28404 0.65514 0.70701 0.0
H3136 H 0.34047 0.56283 0.74436 0.0
H3137 H 0.32288 0.5976 0.73364 0.0
H3138 H 0.35569 0.63141 0.67421 0.0
C3139 C 0.30254 0.69784 0.66289 0.0
C3140 C 0.29948 0.64984 0.6995 0.0
C3141 C 0.29956 0.72078 0.6607 0.0
C3142 C 0.34357 0.56943 0.72789 0.0
C3143 C 0.33332 0.58935 0.7216 0.0
C3144 C 0.33966 0.6359 0.68094 0.0
C3145 C 0.30501 0.68808 0.68398 0.0
C3146 C 0.31173 0.66457 0.68629 0.0
C3147 C 0.33731 0.59889 0.70056 0.0
C3148 C 0.32773 0.62108 0.69455 0.0
H3149 H 0.30124 0.73453 0.71548 0.0
H3150 H 0.30556 0.69427 0.71931 0.0
H3151 H 0.3415 0.66851 0.66669 0.0
H3152 H 0.37343 0.55987 0.68089 0.0
H3153 H 0.35465 0.59392 0.66932 0.0
C3154 C 0.99123 0.40932 0.56957 0.0
C3155 C 0.00859 0.39567 0.56201 0.0
C3156 C 0.96927 0.40438 0.5645 0.0
C3157 C 0.93342 0.37428 0.52613 0.0
H3158 H 0.89073 0.38113 0.57379 0.0
C3159 C 0.83847 0.36475 0.5132 0.0
C3160 C 0.82703 0.38384 0.52013 0.0
C3161 C 0.86057 0.36126 0.51963 0.0
C3162 C 0.90249 0.37898 0.56037 0.0
H3163 H 0.01643 0.3666 0.54235 0.0
H3164 H 0.97794 0.3581 0.53345 0.0
H3165 H 0.93013 0.38553 0.58144 0.0
H3166 H 0.82908 0.41361 0.53993 0.0
H3167 H 0.86723 0.40744 0.55131 0.0
H3168 H 0.90554 0.36846 0.50493 0.0
C3169 C 0.98144 0.37256 0.54337 0.0
C3170 C 0.925 0.38164 0.5647 0.0
C3171 C 0.00347 0.37746 0.54849 0.0
C3172 C 0.83758 0.3988 0.53429 0.0
C3173 C 0.85937 0.39517 0.54095 0.0
C3174 C 0.91081 0.3716 0.52179 0.0
C3175 C 0.96411 0.38572 0.55173 0.0
C3176 C 0.94062 0.38008 0.54749 0.0
C3177 C 0.87124 0.37661 0.5334 0.0
C3178 C 0.89512 0.37468 0.53874 0.0
H3179 H 0.99451 0.42356 0.57988 0.0
H3180 H 0.95627 0.41514 0.57074 0.0
H3181 H 0.94511 0.37296 0.51256 0.0
H3182 H 0.8307 0.35312 0.50208 0.0
H3183 H 0.86941 0.34682 0.5136 0.0
C3184 C 0.69088 0.78622 0.65701 0.0
C3185 C 0.69215 0.77607 0.67806 0.0
C3186 C 0.69079 0.80932 0.65499 0.0
C3187 C 0.70355 0.86149 0.68229 0.0
H3188 H 0.64592 0.88196 0.66196 0.0
C3189 C 0.6639 0.94073 0.71472 0.0
C3190 C 0.64701 0.95159 0.70274 0.0
C3191 C 0.67426 0.92193 0.7062 0.0
C3192 C 0.6624 0.87686 0.66706 0.0
H3193 H 0.69592 0.78192 0.7133 0.0
H3194 H 0.6964 0.82233 0.70968 0.0
H3195 H 0.65665 0.84348 0.6568 0.0
H3196 H 0.62896 0.95238 0.67165 0.0
H3197 H 0.64771 0.91996 0.65627 0.0
H3198 H 0.70938 0.89472 0.69272 0.0
C3199 C 0.69525 0.8124 0.69482 0.0
C3200 C 0.66846 0.85471 0.66417 0.0
C3201 C 0.69481 0.78934 0.6969 0.0
C3202 C 0.64171 0.94413 0.68139 0.0
C3203 C 0.6524 0.92548 0.67265 0.0
C3204 C 0.69772 0.8838 0.68473 0.0
C3205 C 0.69257 0.82255 0.67394 0.0
C3206 C 0.68867 0.84669 0.67257 0.0
C3207 C 0.66827 0.91367 0.68528 0.0
C3208 C 0.67661 0.89154 0.67812 0.0
H3209 H 0.68872 0.77636 0.64222 0.0
H3210 H 0.68861 0.81687 0.63876 0.0
H3211 H 0.71931 0.85562 0.68873 0.0
H3212 H 0.66832 0.94598 0.73127 0.0
H3213 H 0.68605 0.91321 0.71669 0.0
C3214 C 0.02178 0.06329 0.58421 0.0
C3215 C 0.00645 0.06429 0.56666 0.0
C3216 C 0.04433 0.06681 0.58021 0.0
C3217 C 0.08374 0.09592 0.56712 0.0
H3218 H 0.11808 0.0709 0.5189 0.0
C3219 C 0.16263 0.13673 0.53009 0.0
C3220 C 0.18083 0.12249 0.52651 0.0
C3221 C 0.14204 0.12812 0.53644 0.0
C3222 C 0.10871 0.07795 0.5325 0.0
H3223 H 0.00292 0.0677 0.53099 0.0
H3224 H 0.04235 0.07318 0.52396 0.0
H3225 H 0.08132 0.05607 0.52736 0.0
H3226 H 0.19158 0.08812 0.52749 0.0
H3227 H 0.15581 0.0732 0.53805 0.0
H3228 H 0.11087 0.1182 0.57186 0.0
C3229 C 0.03692 0.07 0.54082 0.0
C3230 C 0.08771 0.0695 0.53729 0.0
C3231 C 0.01435 0.06687 0.54485 0.0
C3232 C 0.178 0.09957 0.52981 0.0
C3233 C 0.15744 0.09097 0.53584 0.0
C3234 C 0.1046 0.10459 0.56212 0.0
C3235 C 0.05198 0.07094 0.55855 0.0
C3236 C 0.07499 0.07846 0.55459 0.0
C3237 C 0.13921 0.10512 0.53908 0.0
C3238 C 0.11724 0.09575 0.5447 0.0
H3239 H 0.01621 0.0615 0.60122 0.0
H3240 H 0.05568 0.06722 0.59413 0.0
H3241 H 0.07415 0.10334 0.58036 0.0
H3242 H 0.1642 0.15448 0.5278 0.0
H3243 H 0.12819 0.1394 0.53876 0.0
C3244 C 0.32196 0.26893 0.7968 0.0
C3245 C 0.31561 0.25867 0.81684 0.0
C3246 C 0.33162 0.28986 0.79678 0.0
C3247 C 0.33904 0.34089 0.82776 0.0
H3248 H 0.39325 0.3454 0.79333 0.0
C3249 C 0.37838 0.42509 0.81724 0.0
C3250 C 0.3823 0.43058 0.7949 0.0
C3251 C 0.37657 0.40294 0.82382 0.0
C3252 C 0.37815 0.34446 0.803 0.0
H3253 H 0.31285 0.26321 0.85243 0.0
H3254 H 0.32924 0.30025 0.85224 0.0
H3255 H 0.37432 0.30986 0.79636 0.0
H3256 H 0.39034 0.41745 0.76256 0.0
H3257 H 0.38671 0.37884 0.77376 0.0
H3258 H 0.34203 0.37558 0.83351 0.0
C3259 C 0.327 0.29178 0.83662 0.0
C3260 C 0.3673 0.32412 0.80471 0.0
C3261 C 0.31744 0.27066 0.83669 0.0
C3262 C 0.38738 0.41363 0.77991 0.0
C3263 C 0.38518 0.39142 0.78639 0.0
C3264 C 0.34974 0.3613 0.82586 0.0
C3265 C 0.33495 0.30115 0.81675 0.0
C3266 C 0.34737 0.32227 0.81668 0.0
C3267 C 0.37823 0.38592 0.80807 0.0
C3268 C 0.3692 0.36348 0.81305 0.0
H3269 H 0.3206 0.26027 0.78118 0.0
H3270 H 0.33706 0.29697 0.78115 0.0
H3271 H 0.32369 0.33993 0.83704 0.0
H3272 H 0.37458 0.43795 0.82914 0.0
H3273 H 0.37205 0.39927 0.84085 0.0
C3274 C 0.52044 0.41758 0.4042 0.0
C3275 C 0.50639 0.42127 0.42241 0.0
C3276 C 0.54333 0.41484 0.40746 0.0
C3277 C 0.58528 0.3908 0.42456 0.0
H3278 H 0.61915 0.42602 0.46592 0.0
C3279 C 0.66421 0.35829 0.46929 0.0
C3280 C 0.68201 0.37304 0.47153 0.0
C3281 C 0.64386 0.36565 0.46069 0.0
C3282 C 0.61002 0.41613 0.45415 0.0
H3283 H 0.50523 0.42651 0.45792 0.0
H3284 H 0.54501 0.42234 0.46349 0.0
H3285 H 0.58217 0.43835 0.45467 0.0
H3286 H 0.69232 0.40706 0.46604 0.0
H3287 H 0.65695 0.41983 0.45127 0.0
H3288 H 0.61296 0.36828 0.42448 0.0
C3289 C 0.53851 0.42136 0.44678 0.0
C3290 C 0.58881 0.42315 0.44779 0.0
C3291 C 0.51572 0.42369 0.4436 0.0
C3292 C 0.679 0.39525 0.46475 0.0
C3293 C 0.65867 0.40262 0.4563 0.0
C3294 C 0.60645 0.38366 0.43108 0.0
C3295 C 0.55249 0.41621 0.42888 0.0
C3296 C 0.57607 0.41039 0.4332 0.0
C3297 C 0.64082 0.38795 0.45426 0.0
C3298 C 0.61892 0.39609 0.4462 0.0
H3299 H 0.51361 0.41542 0.38774 0.0
H3300 H 0.55377 0.41101 0.39335 0.0
H3301 H 0.57576 0.38049 0.41348 0.0
H3302 H 0.66593 0.34106 0.47429 0.0
H3303 H 0.63033 0.35399 0.45953 0.0
C3304 C 0.64521 0.22736 0.84805 0.0
C3305 C 0.65951 0.23287 0.83043 0.0
C3306 C 0.63773 0.20559 0.85072 0.0
C3307 C 0.65019 0.14825 0.8404 0.0
H3308 H 0.58806 0.13854 0.82696 0.0
C3309 C 0.60434 0.0756 0.79626 0.0
C3310 C 0.61535 0.05814 0.8073 0.0
C3311 C 0.6033 0.09661 0.80596 0.0
C3312 C 0.60533 0.14104 0.83113 0.0
H3313 H 0.67798 0.22 0.80248 0.0
H3314 H 0.66578 0.18167 0.80788 0.0
H3315 H 0.60193 0.17654 0.83111 0.0
H3316 H 0.63022 0.04765 0.83841 0.0
H3317 H 0.62805 0.08413 0.85542 0.0
H3318 H 0.65402 0.11308 0.83965 0.0
C3319 C 0.66012 0.19427 0.81933 0.0
C3320 C 0.61322 0.16268 0.83355 0.0
C3321 C 0.66712 0.2161 0.81628 0.0
C3322 C 0.62197 0.06099 0.82944 0.0
C3323 C 0.62084 0.08188 0.83913 0.0
C3324 C 0.64227 0.1267 0.83841 0.0
C3325 C 0.64494 0.18899 0.83619 0.0
C3326 C 0.63584 0.16639 0.83755 0.0
C3327 C 0.61312 0.1002 0.8268 0.0
C3328 C 0.6199 0.12286 0.83315 0.0
H3329 H 0.6388 0.24009 0.85893 0.0
H3330 H 0.62601 0.20179 0.86381 0.0
H3331 H 0.66771 0.1508 0.84338 0.0
H3332 H 0.59904 0.0738 0.77919 0.0
H3333 H 0.59713 0.11044 0.79611 0.0
C3334 C 0.49784 0.11735 0.44458 0.0
C3335 C 0.50573 0.10617 0.42573 0.0
C3336 C 0.47521 0.12142 0.44736 0.0
C3337 C 0.42133 0.09961 0.43056 0.0
H3338 H 0.39879 0.15164 0.46096 0.0
C3339 C 0.34223 0.09633 0.48007 0.0
C3340 C 0.32575 0.11255 0.47645 0.0
C3341 C 0.36337 0.09893 0.4714 0.0
C3342 C 0.40481 0.13722 0.45213 0.0
H3343 H 0.49593 0.09105 0.3947 0.0
H3344 H 0.45644 0.09829 0.39952 0.0
H3345 H 0.43768 0.15021 0.44918 0.0
H3346 H 0.31897 0.14489 0.46188 0.0
H3347 H 0.35664 0.14962 0.44681 0.0
H3348 H 0.38871 0.08641 0.43393 0.0
C3349 C 0.46778 0.10363 0.4123 0.0
C3350 C 0.42708 0.13627 0.44561 0.0
C3351 C 0.49043 0.09944 0.40956 0.0
C3352 C 0.33132 0.13212 0.46493 0.0
C3353 C 0.35278 0.13478 0.45625 0.0
C3354 C 0.39919 0.10057 0.43707 0.0
C3355 C 0.45989 0.11452 0.43132 0.0
C3356 C 0.43572 0.11715 0.43535 0.0
C3357 C 0.36873 0.11784 0.45892 0.0
C3358 C 0.39092 0.11903 0.44857 0.0
H3359 H 0.50912 0.12278 0.45739 0.0
H3360 H 0.46969 0.12945 0.46242 0.0
H3361 H 0.42739 0.08459 0.42285 0.0
H3362 H 0.33872 0.08125 0.48928 0.0
H3363 H 0.37554 0.0859 0.47424 0.0
C3364 C 0.70921 0.30392 0.72459 0.0
C3365 C 0.68914 0.2953 0.73268 0.0
C3366 C 0.71284 0.30598 0.70179 0.0
C3367 C 0.71845 0.3048 0.65166 0.0
H3368 H 0.66811 0.33398 0.62356 0.0
C3369 C 0.72285 0.33723 0.56194 0.0
C3370 C 0.71527 0.35908 0.55843 0.0
C3371 C 0.71822 0.32595 0.58164 0.0
C3372 C 0.68228 0.32583 0.63117 0.0
H3373 H 0.65815 0.27994 0.7231 0.0
H3374 H 0.66461 0.28348 0.68331 0.0
H3375 H 0.66421 0.31827 0.66078 0.0
H3376 H 0.69593 0.38588 0.57265 0.0
H3377 H 0.68785 0.36615 0.60729 0.0
H3378 H 0.73677 0.31316 0.62243 0.0
C3379 C 0.67733 0.28898 0.69465 0.0
C3380 C 0.67998 0.31656 0.65236 0.0
C3381 C 0.67375 0.28677 0.71747 0.0
C3382 C 0.70205 0.36907 0.5748 0.0
C3383 C 0.69736 0.35774 0.59461 0.0
C3384 C 0.72071 0.31397 0.63043 0.0
C3385 C 0.69646 0.29952 0.68663 0.0
C3386 C 0.69817 0.30632 0.66299 0.0
C3387 C 0.7058 0.33621 0.59839 0.0
C3388 C 0.70276 0.32495 0.62014 0.0
H3389 H 0.7215 0.31048 0.73584 0.0
H3390 H 0.72776 0.31417 0.69613 0.0
H3391 H 0.73271 0.29696 0.65942 0.0
H3392 H 0.73267 0.32884 0.54961 0.0
H3393 H 0.7246 0.30924 0.58387 0.0
C3394 C 0.70787 0.70363 0.78212 0.0
C3395 C 0.68797 0.7073 0.77049 0.0
C3396 C 0.70788 0.7025 0.8053 0.0
C3397 C 0.67645 0.67948 0.84776 0.0
H3398 H 0.70921 0.71434 0.89023 0.0
C3399 C 0.68483 0.64899 0.93791 0.0
C3400 C 0.70571 0.65185 0.94769 0.0
C3401 C 0.67927 0.66044 0.91837 0.0
C3402 C 0.70013 0.70426 0.8786 0.0
H3403 H 0.65267 0.71368 0.77407 0.0
H3404 H 0.65272 0.71089 0.81455 0.0
H3405 H 0.7073 0.72642 0.85146 0.0
H3406 H 0.73693 0.66936 0.94502 0.0
H3407 H 0.72785 0.68823 0.91074 0.0
H3408 H 0.67072 0.6563 0.87395 0.0
C3409 C 0.66826 0.70934 0.80566 0.0
C3410 C 0.69891 0.71136 0.85649 0.0
C3411 C 0.66831 0.71098 0.78254 0.0
C3412 C 0.72059 0.66692 0.93802 0.0
C3413 C 0.71527 0.67794 0.91831 0.0
C3414 C 0.67813 0.67206 0.86969 0.0
C3415 C 0.68795 0.70459 0.81713 0.0
C3416 C 0.68731 0.69883 0.84091 0.0
C3417 C 0.6947 0.67455 0.9079 0.0
C3418 C 0.69038 0.6841 0.88537 0.0
H3419 H 0.72326 0.70076 0.77328 0.0
H3420 H 0.72322 0.69865 0.81392 0.0
H3421 H 0.66759 0.66949 0.83587 0.0
H3422 H 0.67294 0.63765 0.94515 0.0
H3423 H 0.66304 0.6578 0.91124 0.0
C3424 C 0.89142 0.04553 0.49703 0.0
C3425 C 0.91004 0.05839 0.50238 0.0
C3426 C 0.88593 0.04151 0.47495 0.0
C3427 C 0.89483 0.064 0.41861 0.0
H3428 H 0.8762 0.00576 0.39942 0.0
C3429 C 0.90463 0.03299 0.33038 0.0
C3430 C 0.88809 0.01989 0.32085 0.0
C3431 C 0.90268 0.04014 0.35215 0.0
C3432 C 0.88088 0.02224 0.40463 0.0
H3433 H 0.93798 0.07636 0.48862 0.0
H3434 H 0.92864 0.06893 0.45008 0.0
H3435 H 0.88335 0.01226 0.4387 0.0
H3436 H 0.85621 0.00446 0.32617 0.0
H3437 H 0.85288 0.01677 0.3649 0.0
H3438 H 0.89323 0.07368 0.38441 0.0
C3439 C 0.91799 0.06242 0.46302 0.0
C3440 C 0.88508 0.02594 0.42709 0.0
C3441 C 0.92348 0.06648 0.48512 0.0
C3442 C 0.86906 0.01471 0.33319 0.0
C3443 C 0.86725 0.0216 0.35528 0.0
C3444 C 0.8907 0.06027 0.39619 0.0
C3445 C 0.89895 0.05021 0.4577 0.0
C3446 C 0.89268 0.04671 0.43422 0.0
C3447 C 0.88425 0.0341 0.36499 0.0
C3448 C 0.88427 0.0392 0.38893 0.0
H3449 H 0.88067 0.03901 0.50988 0.0
H3450 H 0.87112 0.03213 0.4714 0.0
H3451 H 0.90009 0.08034 0.42368 0.0
H3452 H 0.91941 0.03729 0.3211 0.0
H3453 H 0.91615 0.04951 0.35927 0.0
C3454 C 0.33695 0.82052 0.76412 0.0
C3455 C 0.31626 0.82089 0.75335 0.0
C3456 C 0.33899 0.82875 0.78575 0.0
C3457 C 0.31237 0.8694 0.82201 0.0
H3458 H 0.33947 0.83769 0.8712 0.0
C3459 C 0.29016 0.88517 0.91292 0.0
C3460 C 0.3047 0.87756 0.92951 0.0
C3461 C 0.29626 0.88378 0.89056 0.0
C3462 C 0.33237 0.84716 0.85759 0.0
H3463 H 0.28125 0.82843 0.75751 0.0
H3464 H 0.28489 0.84265 0.79492 0.0
H3465 H 0.34089 0.82186 0.83418 0.0
H3466 H 0.33814 0.86604 0.93619 0.0
H3467 H 0.34924 0.86479 0.89734 0.0
H3468 H 0.30358 0.8946 0.84528 0.0
C3469 C 0.29957 0.8365 0.78655 0.0
C3470 C 0.33307 0.83792 0.83639 0.0
C3471 C 0.2975 0.82815 0.76519 0.0
C3472 C 0.32652 0.87175 0.92364 0.0
C3473 C 0.33274 0.87071 0.90135 0.0
C3474 C 0.31189 0.87878 0.84314 0.0
C3475 C 0.32041 0.83761 0.79676 0.0
C3476 C 0.32245 0.84861 0.81857 0.0
C3477 C 0.31716 0.87512 0.88451 0.0
C3478 C 0.32126 0.86746 0.86138 0.0
H3479 H 0.35173 0.81516 0.75542 0.0
H3480 H 0.35523 0.82925 0.7934 0.0
H3481 H 0.3044 0.87818 0.80841 0.0
H3482 H 0.27322 0.88967 0.91696 0.0
H3483 H 0.28378 0.88745 0.87814 0.0
C3484 C 0.59251 0.91634 0.98994 0.0
C3485 C 0.60155 0.9301 0.0063 0.0
C3486 C 0.59693 0.92019 0.96746 0.0
C3487 C 0.63608 0.94864 0.92928 0.0
H3488 H 0.58832 0.94159 0.88699 0.0
C3489 C 0.63769 0.97948 0.83711 0.0
C3490 C 0.62556 0.967 0.82181 0.0
C3491 C 0.63824 0.97311 0.85956 0.0
C3492 C 0.60199 0.94328 0.89849 0.0
H3493 H 0.6222 0.95895 0.01162 0.0
H3494 H 0.62953 0.96584 0.97243 0.0
H3495 H 0.5814 0.93498 0.92614 0.0
H3496 H 0.60629 0.93726 0.81725 0.0
H3497 H 0.60804 0.92562 0.85602 0.0
H3498 H 0.65654 0.95733 0.9014 0.0
C3499 C 0.61934 0.95182 0.97703 0.0
C3500 C 0.59798 0.93952 0.92101 0.0
C3501 C 0.61495 0.94796 -0.00047 0.0
C3502 C 0.61579 0.9471 0.82879 0.0
C3503 C 0.61654 0.94062 0.85104 0.0
C3504 C 0.6401 0.95246 0.90665 0.0
C3505 C 0.61044 0.93794 0.96071 0.0
C3506 C 0.61495 0.94207 0.93671 0.0
C3507 C 0.62673 0.95415 0.8669 0.0
C3508 C 0.6231 0.94969 0.89097 0.0
H3509 H 0.58226 0.90233 0.99446 0.0
H3510 H 0.59001 0.90899 0.95536 0.0
H3511 H 0.6496 0.95055 0.94091 0.0
H3512 H 0.64505 0.99509 0.83211 0.0
H3513 H 0.64624 0.98389 0.87135 0.0
C3514 C 0.84256 0.65996 0.22868 0.0
C3515 C 0.82184 0.66285 0.23907 0.0
C3516 C 0.84384 0.65098 0.20728 0.0
C3517 C 0.81345 0.61389 0.17078 0.0
H3518 H 0.84042 0.64465 0.12116 0.0
C3519 C 0.78385 0.60473 0.0814 0.0
C3520 C 0.79749 0.61231 0.06413 0.0
C3521 C 0.79189 0.60397 0.10318 0.0
C3522 C 0.83334 0.63534 0.13483 0.0
H3523 H 0.78624 0.6599 0.23444 0.0
H3524 H 0.78863 0.6442 0.19758 0.0
H3525 H 0.84507 0.65895 0.1585 0.0
H3526 H 0.83098 0.62148 0.05525 0.0
H3527 H 0.84543 0.61876 0.09293 0.0
H3528 H 0.80138 0.59045 0.1473 0.0
C3529 C 0.80383 0.64852 0.20605 0.0
C3530 C 0.83593 0.64372 0.15625 0.0
C3531 C 0.80251 0.6577 0.22714 0.0
C3532 C 0.82009 0.61576 0.06838 0.0
C3533 C 0.82825 0.61458 0.09005 0.0
C3534 C 0.81112 0.6053 0.14944 0.0
C3535 C 0.82447 0.64452 0.19615 0.0
C3536 C 0.82529 0.63355 0.17426 0.0
C3537 C 0.81383 0.61039 0.10792 0.0
C3538 C 0.82029 0.6164 0.13103 0.0
H3539 H 0.85776 0.66363 0.23742 0.0
H3540 H 0.85996 0.64824 0.19981 0.0
H3541 H 0.80534 0.60556 0.18453 0.0
H3542 H 0.76633 0.60209 0.07857 0.0
H3543 H 0.7802 0.60056 0.11638 0.0
C3544 C 0.90309 0.95655 0.00204 0.0
C3545 C 0.91996 0.94147 0.99617 0.0
C3546 C 0.89884 0.96122 0.02424 0.0
C3547 C 0.92085 0.95958 0.08075 0.0
H3548 H 0.85894 0.95362 0.09703 0.0
C3549 C 0.8905 0.96589 0.17175 0.0
C3550 C 0.87056 0.97758 0.17519 0.0
C3551 C 0.8974 0.96057 0.15027 0.0
C3552 C 0.87625 0.95562 0.09275 0.0
H3553 H 0.94655 0.92064 0.00911 0.0
H3554 H 0.93915 0.9291 0.04808 0.0
H3555 H 0.87029 0.94745 0.05884 0.0
H3556 H 0.84225 0.99287 0.15877 0.0
H3557 H 0.85442 0.98401 0.12147 0.0
H3558 H 0.92674 0.96825 0.11462 0.0
C3559 C 0.92918 0.93709 0.03534 0.0
C3560 C 0.88274 0.95203 0.07088 0.0
C3561 C 0.93337 0.93225 0.01304 0.0
C3562 C 0.8576 0.98367 0.15674 0.0
C3563 C 0.86455 0.9785 0.13532 0.0
C3564 C 0.91431 0.9634 0.10268 0.0
C3565 C 0.91143 0.9511 0.04112 0.0
C3566 C 0.90504 0.95423 0.0646 0.0
C3567 C 0.88454 0.9669 0.1318 0.0
C3568 C 0.89187 0.9617 0.10886 0.0
H3569 H 0.89255 0.96418 0.98955 0.0
H3570 H 0.88532 0.97242 0.02826 0.0
H3571 H 0.93814 0.96141 0.07628 0.0
H3572 H 0.90078 0.96082 0.18563 0.0
H3573 H 0.91272 0.95136 0.14818 0.0
C3574 C 0.08371 0.55441 0.01021 0.0
C3575 C 0.07997 0.57626 0.00271 0.0
C3576 C 0.08581 0.54966 0.03282 0.0
C3577 C 0.07819 0.57159 0.0899 0.0
H3578 H 0.12758 0.532 0.1026 0.0
C3579 C 0.13866 0.54042 0.16684 0.0
C3580 C 0.12315 0.53476 0.18333 0.0
C3581 C 0.13173 0.54712 0.14573 0.0
C3582 C 0.11383 0.54322 0.09942 0.0
H3583 H 0.07423 0.61009 0.01333 0.0
H3584 H 0.07826 0.60182 0.05298 0.0
H3585 H 0.11771 0.54011 0.0644 0.0
H3586 H 0.08801 0.53305 0.19075 0.0
H3587 H 0.07587 0.5445 0.15359 0.0
H3588 H 0.07478 0.57494 0.12523 0.0
C3589 C 0.07937 0.58832 0.04128 0.0
C3590 C 0.10794 0.54763 0.07744 0.0
C3591 C 0.07709 0.59307 0.01854 0.0
C3592 C 0.10042 0.53709 0.17844 0.0
C3593 C 0.09346 0.54376 0.15715 0.0
C3594 C 0.08409 0.56709 0.11205 0.0
C3595 C 0.08445 0.56665 0.04863 0.0
C3596 C 0.09006 0.56186 0.07232 0.0
C3597 C 0.10908 0.54828 0.14038 0.0
C3598 C 0.10212 0.55297 0.11704 0.0
H3599 H 0.08566 0.54097 0.99853 0.0
H3600 H 0.08911 0.53268 0.03789 0.0
H3601 H 0.06428 0.58255 0.08655 0.0
H3602 H 0.1563 0.53921 0.17005 0.0
H3603 H 0.14422 0.55104 0.13342 0.0
loop_
_geom_bond_atom_site_label_1
_geom_bond_atom_site_label_2
_geom_bond_distance
_geom_bond_site_symmetry_2
_ccdc_geom_bond_type
Sc0 O3 2.025 . S
Sc0 O10 2.105 . S
Sc0 O13 2.105 . S
Sc0 O16 2.105 . S
Sc0 O19 2.105 . S
Sc1 O3 2.025 . S
Sc1 O11 2.105 . S
Sc1 O15 2.105 . S
Sc1 O17 2.105 . S
Sc1 O21 2.105 . S
Sc2 O3 2.025 . S
Sc2 O12 2.105 . S
Sc2 O14 2.105 . S
Sc2 O18 2.105 . S
Sc2 O20 2.105 . S
O3 Sc0 2.025 . S
O3 Sc1 2.025 . S
O3 Sc2 2.025 . S
C4 O10 1.268 . S
C4 O20 1.268 . S
C5 O11 1.268 . S
C5 O19 1.268 . S
C6 O12 1.268 . S
C6 O21 1.268 . S
C7 O13 1.268 . S
C7 O17 1.268 . S
C8 O14 1.268 . S
C8 O16 1.268 . S
C9 O15 1.268 . S
C9 O18 1.268 . S
O10 Sc0 2.105 . S
O10 C4 1.268 . S
O11 Sc1 2.105 . S
O11 C5 1.268 . S
O12 Sc2 2.105 . S
O12 C6 1.268 . S
O13 Sc0 2.105 . S
O13 C7 1.268 . S
O14 Sc2 2.105 . S
O14 C8 1.268 . S
O15 Sc1 2.105 . S
O15 C9 1.268 . S
O16 Sc0 2.105 . S
O16 C8 1.268 . S
O17 Sc1 2.105 . S
O17 C7 1.268 . S
O18 Sc2 2.105 . S
O18 C9 1.268 . S
O19 Sc0 2.105 . S
O19 C5 1.268 . S
O20 Sc2 2.105 . S
O20 C4 1.268 . S
O21 Sc1 2.105 . S
O21 C6 1.268 . S
Sc22 O25 2.025 . S
Sc22 O32 2.105 . S
Sc22 O35 2.105 . S
Sc22 O38 2.105 . S
Sc22 O41 2.105 . S
Sc23 O25 2.025 . S
Sc23 O33 2.105 . S
Sc23 O37 2.105 . S
Sc23 O39 2.105 . S
Sc23 O43 2.105 . S
Sc24 O25 2.025 . S
Sc24 O34 2.105 . S
Sc24 O36 2.105 . S
Sc24 O40 2.105 . S
Sc24 O42 2.105 . S
O25 Sc22 2.025 . S
O25 Sc23 2.025 . S
O25 Sc24 2.025 . S
C26 O32 1.268 . S
C26 O42 1.268 . S
C27 O33 1.268 . S
C27 O41 1.268 . S
C28 O34 1.268 . S
C28 O43 1.268 . S
C29 O35 1.268 . S
C29 O39 1.268 . S
C30 O36 1.268 . S
C30 O38 1.268 . S
C31 O37 1.268 . S
C31 O40 1.268 . S
O32 Sc22 2.105 . S
O32 C26 1.268 . S
O33 Sc23 2.105 . S
O33 C27 1.268 . S
O34 Sc24 2.105 . S
O34 C28 1.268 . S
O35 Sc22 2.105 . S
O35 C29 1.268 . S
O36 Sc24 2.105 . S
O36 C30 1.268 . S
O37 Sc23 2.105 . S
O37 C31 1.268 . S
O38 Sc22 2.105 . S
O38 C30 1.268 . S
O39 Sc23 2.105 . S
O39 C29 1.268 . S
O40 Sc24 2.105 . S
O40 C31 1.268 . S
O41 Sc22 2.105 . S
O41 C27 1.268 . S
O42 Sc24 2.105 . S
O42 C26 1.268 . S
O43 Sc23 2.105 . S
O43 C28 1.268 . S
Sc44 O47 2.025 . S
Sc44 O54 2.105 . S
Sc44 O57 2.105 . S
Sc44 O60 2.105 . S
Sc44 O63 2.105 . S
Sc45 O47 2.025 . S
Sc45 O55 2.105 . S
Sc45 O59 2.105 . S
Sc45 O61 2.105 . S
Sc45 O65 2.105 . S
Sc46 O47 2.025 . S
Sc46 O56 2.105 . S
Sc46 O58 2.105 . S
Sc46 O62 2.105 . S
Sc46 O64 2.105 . S
O47 Sc44 2.025 . S
O47 Sc45 2.025 . S
O47 Sc46 2.025 . S
C48 O54 1.268 . S
C48 O64 1.268 . S
C49 O55 1.268 . S
C49 O63 1.268 . S
C50 O56 1.268 . S
C50 O65 1.268 . S
C51 O57 1.268 . S
C51 O61 1.268 . S
C52 O58 1.268 . S
C52 O60 1.268 . S
C53 O59 1.268 . S
C53 O62 1.268 . S
O54 Sc44 2.105 . S
O54 C48 1.268 . S
O55 Sc45 2.105 . S
O55 C49 1.268 . S
O56 Sc46 2.105 . S
O56 C50 1.268 . S
O57 Sc44 2.105 . S
O57 C51 1.268 . S
O58 Sc46 2.105 . S
O58 C52 1.268 . S
O59 Sc45 2.105 . S
O59 C53 1.268 . S
O60 Sc44 2.105 . S
O60 C52 1.268 . S
O61 Sc45 2.105 . S
O61 C51 1.268 . S
O62 Sc46 2.105 . S
O62 C53 1.268 . S
O63 Sc44 2.105 . S
O63 C49 1.268 . S
O64 Sc46 2.105 . S
O64 C48 1.268 . S
O65 Sc45 2.105 . S
O65 C50 1.268 . S
Sc66 O69 2.025 . S
Sc66 O76 2.105 . S
Sc66 O79 2.105 . S
Sc66 O82 2.105 . S
Sc66 O85 2.105 . S
Sc67 O69 2.025 . S
Sc67 O77 2.105 . S
Sc67 O81 2.105 . S
Sc67 O83 2.105 . S
Sc67 O87 2.105 . S
Sc68 O69 2.025 . S
Sc68 O78 2.105 . S
Sc68 O80 2.105 . S
Sc68 O84 2.105 . S
Sc68 O86 2.105 . S
O69 Sc66 2.025 . S
O69 Sc67 2.025 . S
O69 Sc68 2.025 . S
C70 O76 1.268 . S
C70 O86 1.268 . S
C71 O77 1.268 . S
C71 O85 1.268 . S
C72 O78 1.268 . S
C72 O87 1.268 . S
C73 O79 1.268 . S
C73 O83 1.268 . S
C74 O80 1.268 . S
C74 O82 1.268 . S
C75 O81 1.268 . S
C75 O84 1.268 . S
O76 Sc66 2.105 . S
O76 C70 1.268 . S
O77 Sc67 2.105 . S
O77 C71 1.268 . S
O78 Sc68 2.105 . S
O78 C72 1.268 . S
O79 Sc66 2.105 . S
O79 C73 1.268 . S
O80 Sc68 2.105 . S
O80 C74 1.268 . S
O81 Sc67 2.105 . S
O81 C75 1.268 . S
O82 Sc66 2.105 . S
O82 C74 1.268 . S
O83 Sc67 2.105 . S
O83 C73 1.268 . S
O84 Sc68 2.105 . S
O84 C75 1.268 . S
O85 Sc66 2.105 . S
O85 C71 1.268 . S
O86 Sc68 2.105 . S
O86 C70 1.268 . S
O87 Sc67 2.105 . S
O87 C72 1.268 . S
Sc88 O91 2.025 . S
Sc88 O98 2.105 . S
Sc88 O101 2.105 . S
Sc88 O104 2.105 . S
Sc88 O107 2.105 . S
Sc89 O91 2.025 . S
Sc89 O99 2.105 . S
Sc89 O103 2.105 . S
Sc89 O105 2.105 . S
Sc89 O109 2.105 . S
Sc90 O91 2.025 . S
Sc90 O100 2.105 . S
Sc90 O102 2.105 . S
Sc90 O106 2.105 . S
Sc90 O108 2.105 . S
O91 Sc88 2.025 . S
O91 Sc89 2.025 . S
O91 Sc90 2.025 . S
C92 O98 1.268 . S
C92 O108 1.268 . S
C93 O99 1.268 . S
C93 O107 1.268 . S
C94 O100 1.268 . S
C94 O109 1.268 . S
C95 O101 1.268 . S
C95 O105 1.268 . S
C96 O102 1.268 . S
C96 O104 1.268 . S
C97 O103 1.268 . S
C97 O106 1.268 . S
O98 Sc88 2.105 . S
O98 C92 1.268 . S
O99 Sc89 2.105 . S
O99 C93 1.268 . S
O100 Sc90 2.105 . S
O100 C94 1.268 . S
O101 Sc88 2.105 . S
O101 C95 1.268 . S
O102 Sc90 2.105 . S
O102 C96 1.268 . S
O103 Sc89 2.105 . S
O103 C97 1.268 . S
O104 Sc88 2.105 . S
O104 C96 1.268 . S
O105 Sc89 2.105 . S
O105 C95 1.268 . S
O106 Sc90 2.105 . S
O106 C97 1.268 . S
O107 Sc88 2.105 . S
O107 C93 1.268 . S
O108 Sc90 2.105 . S
O108 C92 1.268 . S
O109 Sc89 2.105 . S
O109 C94 1.268 . S
Sc110 O113 2.025 . S
Sc110 O120 2.105 . S
Sc110 O123 2.105 . S
Sc110 O126 2.105 . S
Sc110 O129 2.105 . S
Sc111 O113 2.025 . S
Sc111 O121 2.105 . S
Sc111 O125 2.105 . S
Sc111 O127 2.105 . S
Sc111 O131 2.105 . S
Sc112 O113 2.025 . S
Sc112 O122 2.105 . S
Sc112 O124 2.105 . S
Sc112 O128 2.105 . S
Sc112 O130 2.105 . S
O113 Sc110 2.025 . S
O113 Sc111 2.025 . S
O113 Sc112 2.025 . S
C114 O120 1.268 . S
C114 O130 1.268 . S
C115 O121 1.268 . S
C115 O129 1.268 . S
C116 O122 1.268 . S
C116 O131 1.268 . S
C117 O123 1.268 . S
C117 O127 1.268 . S
C118 O124 1.268 . S
C118 O126 1.268 . S
C119 O125 1.268 . S
C119 O128 1.268 . S
O120 Sc110 2.105 . S
O120 C114 1.268 . S
O121 Sc111 2.105 . S
O121 C115 1.268 . S
O122 Sc112 2.105 . S
O122 C116 1.268 . S
O123 Sc110 2.105 . S
O123 C117 1.268 . S
O124 Sc112 2.105 . S
O124 C118 1.268 . S
O125 Sc111 2.105 . S
O125 C119 1.268 . S
O126 Sc110 2.105 . S
O126 C118 1.268 . S
O127 Sc111 2.105 . S
O127 C117 1.268 . S
O128 Sc112 2.105 . S
O128 C119 1.268 . S
O129 Sc110 2.105 . S
O129 C115 1.268 . S
O130 Sc112 2.105 . S
O130 C114 1.268 . S
O131 Sc111 2.105 . S
O131 C116 1.268 . S
Sc132 O135 2.025 . S
Sc132 O142 2.105 . S
Sc132 O145 2.105 . S
Sc132 O148 2.105 . S
Sc132 O151 2.105 . S
Sc133 O135 2.025 . S
Sc133 O143 2.105 . S
Sc133 O147 2.105 . S
Sc133 O149 2.105 . S
Sc133 O153 2.105 . S
Sc134 O135 2.025 . S
Sc134 O144 2.105 . S
Sc134 O146 2.105 . S
Sc134 O150 2.105 . S
Sc134 O152 2.105 . S
O135 Sc132 2.025 . S
O135 Sc133 2.025 . S
O135 Sc134 2.025 . S
C136 O142 1.268 . S
C136 O152 1.268 . S
C137 O143 1.268 . S
C137 O151 1.268 . S
C138 O144 1.268 . S
C138 O153 1.268 . S
C139 O145 1.268 . S
C139 O149 1.268 . S
C140 O146 1.268 . S
C140 O148 1.268 . S
C141 O147 1.268 . S
C141 O150 1.268 . S
O142 Sc132 2.105 . S
O142 C136 1.268 . S
O143 Sc133 2.105 . S
O143 C137 1.268 . S
O144 Sc134 2.105 . S
O144 C138 1.268 . S
O145 Sc132 2.105 . S
O145 C139 1.268 . S
O146 Sc134 2.105 . S
O146 C140 1.268 . S
O147 Sc133 2.105 . S
O147 C141 1.268 . S
O148 Sc132 2.105 . S
O148 C140 1.268 . S
O149 Sc133 2.105 . S
O149 C139 1.268 . S
O150 Sc134 2.105 . S
O150 C141 1.268 . S
O151 Sc132 2.105 . S
O151 C137 1.268 . S
O152 Sc134 2.105 . S
O152 C136 1.268 . S
O153 Sc133 2.105 . S
O153 C138 1.268 . S
Sc154 O157 2.025 . S
Sc154 O164 2.105 . S
Sc154 O167 2.105 . S
Sc154 O170 2.105 . S
Sc154 O173 2.105 . S
Sc155 O157 2.025 . S
Sc155 O165 2.105 . S
Sc155 O169 2.105 . S
Sc155 O171 2.105 . S
Sc155 O175 2.105 . S
Sc156 O157 2.025 . S
Sc156 O166 2.105 . S
Sc156 O168 2.105 . S
Sc156 O172 2.105 . S
Sc156 O174 2.105 . S
O157 Sc154 2.025 . S
O157 Sc155 2.025 . S
O157 Sc156 2.025 . S
C158 O164 1.268 . S
C158 O174 1.268 . S
C159 O165 1.268 . S
C159 O173 1.268 . S
C160 O166 1.268 . S
C160 O175 1.268 . S
C161 O167 1.268 . S
C161 O171 1.268 . S
C162 O168 1.268 . S
C162 O170 1.268 . S
C163 O169 1.268 . S
C163 O172 1.268 . S
O164 Sc154 2.105 . S
O164 C158 1.268 . S
O165 Sc155 2.105 . S
O165 C159 1.268 . S
O166 Sc156 2.105 . S
O166 C160 1.268 . S
O167 Sc154 2.105 . S
O167 C161 1.268 . S
O168 Sc156 2.105 . S
O168 C162 1.268 . S
O169 Sc155 2.105 . S
O169 C163 1.268 . S
O170 Sc154 2.105 . S
O170 C162 1.268 . S
O171 Sc155 2.105 . S
O171 C161 1.268 . S
O172 Sc156 2.105 . S
O172 C163 1.268 . S
O173 Sc154 2.105 . S
O173 C159 1.268 . S
O174 Sc156 2.105 . S
O174 C158 1.268 . S
O175 Sc155 2.105 . S
O175 C160 1.268 . S
Sc176 O179 2.025 . S
Sc176 O186 2.105 . S
Sc176 O189 2.105 . S
Sc176 O192 2.105 . S
Sc176 O195 2.105 . S
Sc177 O179 2.025 . S
Sc177 O187 2.105 . S
Sc177 O191 2.105 . S
Sc177 O193 2.105 . S
Sc177 O197 2.105 . S
Sc178 O179 2.025 . S
Sc178 O188 2.105 . S
Sc178 O190 2.105 . S
Sc178 O194 2.105 . S
Sc178 O196 2.105 . S
O179 Sc176 2.025 . S
O179 Sc177 2.025 . S
O179 Sc178 2.025 . S
C180 O186 1.268 . S
C180 O196 1.268 . S
C181 O187 1.268 . S
C181 O195 1.268 . S
C182 O188 1.268 . S
C182 O197 1.268 . S
C183 O189 1.268 . S
C183 O193 1.268 . S
C184 O190 1.268 . S
C184 O192 1.268 . S
C185 O191 1.268 . S
C185 O194 1.268 . S
O186 Sc176 2.105 . S
O186 C180 1.268 . S
O187 Sc177 2.105 . S
O187 C181 1.268 . S
O188 Sc178 2.105 . S
O188 C182 1.268 . S
O189 Sc176 2.105 . S
O189 C183 1.268 . S
O190 Sc178 2.105 . S
O190 C184 1.268 . S
O191 Sc177 2.105 . S
O191 C185 1.268 . S
O192 Sc176 2.105 . S
O192 C184 1.268 . S
O193 Sc177 2.105 . S
O193 C183 1.268 . S
O194 Sc178 2.105 . S
O194 C185 1.268 . S
O195 Sc176 2.105 . S
O195 C181 1.268 . S
O196 Sc178 2.105 . S
O196 C180 1.268 . S
O197 Sc177 2.105 . S
O197 C182 1.268 . S
Sc198 O201 2.025 . S
Sc198 O208 2.105 . S
Sc198 O211 2.105 . S
Sc198 O214 2.105 . S
Sc198 O217 2.105 . S
Sc199 O201 2.025 . S
Sc199 O209 2.105 . S
Sc199 O213 2.105 . S
Sc199 O215 2.105 . S
Sc199 O219 2.105 . S
Sc200 O201 2.025 . S
Sc200 O210 2.105 . S
Sc200 O212 2.105 . S
Sc200 O216 2.105 . S
Sc200 O218 2.105 . S
O201 Sc198 2.025 . S
O201 Sc199 2.025 . S
O201 Sc200 2.025 . S
C202 O208 1.268 . S
C202 O218 1.268 . S
C203 O209 1.268 . S
C203 O217 1.268 . S
C204 O210 1.268 . S
C204 O219 1.268 . S
C205 O211 1.268 . S
C205 O215 1.268 . S
C206 O212 1.268 . S
C206 O214 1.268 . S
C207 O213 1.268 . S
C207 O216 1.268 . S
O208 Sc198 2.105 . S
O208 C202 1.268 . S
O209 Sc199 2.105 . S
O209 C203 1.268 . S
O210 Sc200 2.105 . S
O210 C204 1.268 . S
O211 Sc198 2.105 . S
O211 C205 1.268 . S
O212 Sc200 2.105 . S
O212 C206 1.268 . S
O213 Sc199 2.105 . S
O213 C207 1.268 . S
O214 Sc198 2.105 . S
O214 C206 1.268 . S
O215 Sc199 2.105 . S
O215 C205 1.268 . S
O216 Sc200 2.105 . S
O216 C207 1.268 . S
O217 Sc198 2.105 . S
O217 C203 1.268 . S
O218 Sc200 2.105 . S
O218 C202 1.268 . S
O219 Sc199 2.105 . S
O219 C204 1.268 . S
Sc220 O223 2.025 . S
Sc220 O230 2.105 . S
Sc220 O233 2.105 . S
Sc220 O236 2.105 . S
Sc220 O239 2.105 . S
Sc221 O223 2.025 . S
Sc221 O231 2.105 . S
Sc221 O235 2.105 . S
Sc221 O237 2.105 . S
Sc221 O241 2.105 . S
Sc222 O223 2.025 . S
Sc222 O232 2.105 . S
Sc222 O234 2.105 . S
Sc222 O238 2.105 . S
Sc222 O240 2.105 . S
O223 Sc220 2.025 . S
O223 Sc221 2.025 . S
O223 Sc222 2.025 . S
C224 O230 1.268 . S
C224 O240 1.268 . S
C225 O231 1.268 . S
C225 O239 1.268 . S
C226 O232 1.268 . S
C226 O241 1.268 . S
C227 O233 1.268 . S
C227 O237 1.268 . S
C228 O234 1.268 . S
C228 O236 1.268 . S
C229 O235 1.268 . S
C229 O238 1.268 . S
O230 Sc220 2.105 . S
O230 C224 1.268 . S
O231 Sc221 2.105 . S
O231 C225 1.268 . S
O232 Sc222 2.105 . S
O232 C226 1.268 . S
O233 Sc220 2.105 . S
O233 C227 1.268 . S
O234 Sc222 2.105 . S
O234 C228 1.268 . S
O235 Sc221 2.105 . S
O235 C229 1.268 . S
O236 Sc220 2.105 . S
O236 C228 1.268 . S
O237 Sc221 2.105 . S
O237 C227 1.268 . S
O238 Sc222 2.105 . S
O238 C229 1.268 . S
O239 Sc220 2.105 . S
O239 C225 1.268 . S
O240 Sc222 2.105 . S
O240 C224 1.268 . S
O241 Sc221 2.105 . S
O241 C226 1.268 . S
Sc242 O245 2.025 . S
Sc242 O252 2.105 . S
Sc242 O255 2.105 . S
Sc242 O258 2.105 . S
Sc242 O261 2.105 . S
Sc243 O245 2.025 . S
Sc243 O253 2.105 . S
Sc243 O257 2.105 . S
Sc243 O259 2.105 . S
Sc243 O263 2.105 . S
Sc244 O245 2.025 . S
Sc244 O254 2.105 . S
Sc244 O256 2.105 . S
Sc244 O260 2.105 . S
Sc244 O262 2.105 . S
O245 Sc242 2.025 . S
O245 Sc243 2.025 . S
O245 Sc244 2.025 . S
C246 O252 1.268 . S
C246 O262 1.268 . S
C247 O253 1.268 . S
C247 O261 1.268 . S
C248 O254 1.268 . S
C248 O263 1.268 . S
C249 O255 1.268 . S
C249 O259 1.268 . S
C250 O256 1.268 . S
C250 O258 1.268 . S
C251 O257 1.268 . S
C251 O260 1.268 . S
O252 Sc242 2.105 . S
O252 C246 1.268 . S
O253 Sc243 2.105 . S
O253 C247 1.268 . S
O254 Sc244 2.105 . S
O254 C248 1.268 . S
O255 Sc242 2.105 . S
O255 C249 1.268 . S
O256 Sc244 2.105 . S
O256 C250 1.268 . S
O257 Sc243 2.105 . S
O257 C251 1.268 . S
O258 Sc242 2.105 . S
O258 C250 1.268 . S
O259 Sc243 2.105 . S
O259 C249 1.268 . S
O260 Sc244 2.105 . S
O260 C251 1.268 . S
O261 Sc242 2.105 . S
O261 C247 1.268 . S
O262 Sc244 2.105 . S
O262 C246 1.268 . S
O263 Sc243 2.105 . S
O263 C248 1.268 . S
Sc264 O267 2.025 . S
Sc264 O274 2.105 . S
Sc264 O277 2.105 . S
Sc264 O280 2.105 . S
Sc264 O283 2.105 . S
Sc265 O267 2.025 . S
Sc265 O275 2.105 . S
Sc265 O279 2.105 . S
Sc265 O281 2.105 . S
Sc265 O285 2.105 . S
Sc266 O267 2.025 . S
Sc266 O276 2.105 . S
Sc266 O278 2.105 . S
Sc266 O282 2.105 . S
Sc266 O284 2.105 . S
O267 Sc264 2.025 . S
O267 Sc265 2.025 . S
O267 Sc266 2.025 . S
C268 O274 1.268 . S
C268 O284 1.268 . S
C269 O275 1.268 . S
C269 O283 1.268 . S
C270 O276 1.268 . S
C270 O285 1.268 . S
C271 O277 1.268 . S
C271 O281 1.268 . S
C272 O278 1.268 . S
C272 O280 1.268 . S
C273 O279 1.268 . S
C273 O282 1.268 . S
O274 Sc264 2.105 . S
O274 C268 1.268 . S
O275 Sc265 2.105 . S
O275 C269 1.268 . S
O276 Sc266 2.105 . S
O276 C270 1.268 . S
O277 Sc264 2.105 . S
O277 C271 1.268 . S
O278 Sc266 2.105 . S
O278 C272 1.268 . S
O279 Sc265 2.105 . S
O279 C273 1.268 . S
O280 Sc264 2.105 . S
O280 C272 1.268 . S
O281 Sc265 2.105 . S
O281 C271 1.268 . S
O282 Sc266 2.105 . S
O282 C273 1.268 . S
O283 Sc264 2.105 . S
O283 C269 1.268 . S
O284 Sc266 2.105 . S
O284 C268 1.268 . S
O285 Sc265 2.105 . S
O285 C270 1.268 . S
Sc286 O289 2.025 . S
Sc286 O296 2.105 . S
Sc286 O299 2.105 . S
Sc286 O302 2.105 . S
Sc286 O305 2.105 . S
Sc287 O289 2.025 . S
Sc287 O297 2.105 . S
Sc287 O301 2.105 . S
Sc287 O303 2.105 . S
Sc287 O307 2.105 . S
Sc288 O289 2.025 . S
Sc288 O298 2.105 . S
Sc288 O300 2.105 . S
Sc288 O304 2.105 . S
Sc288 O306 2.105 . S
O289 Sc286 2.025 . S
O289 Sc287 2.025 . S
O289 Sc288 2.025 . S
C290 O296 1.268 . S
C290 O306 1.268 . S
C291 O297 1.268 . S
C291 O305 1.268 . S
C292 O298 1.268 . S
C292 O307 1.268 . S
C293 O299 1.268 . S
C293 O303 1.268 . S
C294 O300 1.268 . S
C294 O302 1.268 . S
C295 O301 1.268 . S
C295 O304 1.268 . S
O296 Sc286 2.105 . S
O296 C290 1.268 . S
O297 Sc287 2.105 . S
O297 C291 1.268 . S
O298 Sc288 2.105 . S
O298 C292 1.268 . S
O299 Sc286 2.105 . S
O299 C293 1.268 . S
O300 Sc288 2.105 . S
O300 C294 1.268 . S
O301 Sc287 2.105 . S
O301 C295 1.268 . S
O302 Sc286 2.105 . S
O302 C294 1.268 . S
O303 Sc287 2.105 . S
O303 C293 1.268 . S
O304 Sc288 2.105 . S
O304 C295 1.268 . S
O305 Sc286 2.105 . S
O305 C291 1.268 . S
O306 Sc288 2.105 . S
O306 C290 1.268 . S
O307 Sc287 2.105 . S
O307 C292 1.268 . S
Sc308 O311 2.025 . S
Sc308 O318 2.105 . S
Sc308 O321 2.105 . S
Sc308 O324 2.105 . S
Sc308 O327 2.105 . S
Sc309 O311 2.025 . S
Sc309 O319 2.105 . S
Sc309 O323 2.105 . S
Sc309 O325 2.105 . S
Sc309 O329 2.105 . S
Sc310 O311 2.025 . S
Sc310 O320 2.105 . S
Sc310 O322 2.105 . S
Sc310 O326 2.105 . S
Sc310 O328 2.105 . S
O311 Sc308 2.025 . S
O311 Sc309 2.025 . S
O311 Sc310 2.025 . S
C312 O318 1.268 . S
C312 O328 1.268 . S
C313 O319 1.268 . S
C313 O327 1.268 . S
C314 O320 1.268 . S
C314 O329 1.268 . S
C315 O321 1.268 . S
C315 O325 1.268 . S
C316 O322 1.268 . S
C316 O324 1.268 . S
C317 O323 1.268 . S
C317 O326 1.268 . S
O318 Sc308 2.105 . S
O318 C312 1.268 . S
O319 Sc309 2.105 . S
O319 C313 1.268 . S
O320 Sc310 2.105 . S
O320 C314 1.268 . S
O321 Sc308 2.105 . S
O321 C315 1.268 . S
O322 Sc310 2.105 . S
O322 C316 1.268 . S
O323 Sc309 2.105 . S
O323 C317 1.268 . S
O324 Sc308 2.105 . S
O324 C316 1.268 . S
O325 Sc309 2.105 . S
O325 C315 1.268 . S
O326 Sc310 2.105 . S
O326 C317 1.268 . S
O327 Sc308 2.105 . S
O327 C313 1.268 . S
O328 Sc310 2.105 . S
O328 C312 1.268 . S
O329 Sc309 2.105 . S
O329 C314 1.268 . S
Sc330 O333 2.025 . S
Sc330 O340 2.105 . S
Sc330 O343 2.105 . S
Sc330 O346 2.105 . S
Sc330 O349 2.105 . S
Sc331 O333 2.025 . S
Sc331 O341 2.105 . S
Sc331 O345 2.105 . S
Sc331 O347 2.105 . S
Sc331 O351 2.105 . S
Sc332 O333 2.025 . S
Sc332 O342 2.105 . S
Sc332 O344 2.105 . S
Sc332 O348 2.105 . S
Sc332 O350 2.105 . S
O333 Sc330 2.025 . S
O333 Sc331 2.025 . S
O333 Sc332 2.025 . S
C334 O340 1.268 . S
C334 O350 1.268 . S
C335 O341 1.268 . S
C335 O349 1.268 . S
C336 O342 1.268 . S
C336 O351 1.268 . S
C337 O343 1.268 . S
C337 O347 1.268 . S
C338 O344 1.268 . S
C338 O346 1.268 . S
C339 O345 1.268 . S
C339 O348 1.268 . S
O340 Sc330 2.105 . S
O340 C334 1.268 . S
O341 Sc331 2.105 . S
O341 C335 1.268 . S
O342 Sc332 2.105 . S
O342 C336 1.268 . S
O343 Sc330 2.105 . S
O343 C337 1.268 . S
O344 Sc332 2.105 . S
O344 C338 1.268 . S
O345 Sc331 2.105 . S
O345 C339 1.268 . S
O346 Sc330 2.105 . S
O346 C338 1.268 . S
O347 Sc331 2.105 . S
O347 C337 1.268 . S
O348 Sc332 2.105 . S
O348 C339 1.268 . S
O349 Sc330 2.105 . S
O349 C335 1.268 . S
O350 Sc332 2.105 . S
O350 C334 1.268 . S
O351 Sc331 2.105 . S
O351 C336 1.268 . S
C352 O379 1.312 . S
C352 O380 1.208 . S
C353 O374 1.331 . S
C353 O377 1.244 . S
C354 O376 1.264 . S
C354 O378 1.273 . S
Mg355 O357 1.936 1_455 S
Mg355 O364 2.081 1_455 S
Mg355 O366 2.023 . S
Mg355 O370 2.025 1_455 S
Mg355 O379 2.291 . S
Mg356 O357 1.963 . S
Mg356 O367 1.942 . S
Mg356 O368 1.955 1_655 S
Mg356 O375 1.986 . S
O357 Mg355 1.936 1_655 S
O357 Mg356 1.963 . S
O357 Mg358 1.926 . S
Mg358 O357 1.926 . S
Mg358 O359 1.904 1_655 S
Mg358 O363 2.001 1_655 S
Mg358 O369 2.120 . S
Mg358 O373 2.055 . S
Mg358 O379 2.075 1_655 S
O359 Mg358 1.904 1_455 S
O359 Mg360 1.936 . S
O359 Mg361 1.963 1_455 S
Mg360 O359 1.936 . S
Mg360 O369 2.291 1_455 S
Mg360 O374 2.081 . S
Mg360 O376 2.023 1_455 S
Mg360 O380 2.031 . S
Mg361 O359 1.963 1_655 S
Mg361 O365 1.986 1_655 S
Mg361 O377 1.942 1_655 S
Mg361 O378 1.955 . S
C362 O373 1.191 . S
C362 O375 1.307 . S
O363 Mg358 2.001 1_455 S
O363 C382 1.191 . S
O364 Mg355 2.081 1_655 S
O364 C372 1.331 . S
O365 Mg361 1.986 1_455 S
O365 C382 1.307 . S
O366 Mg355 2.023 . S
O366 C381 1.264 . S
O367 Mg356 1.942 . S
O367 C372 1.244 . S
O368 Mg356 1.955 1_455 S
O368 C381 1.273 . S
O369 Mg358 2.120 . S
O369 Mg360 2.291 1_655 S
O369 C371 1.312 . S
O370 Mg355 2.025 1_655 S
O370 C371 1.214 . S
C371 O369 1.312 . S
C371 O370 1.214 . S
C372 O364 1.331 . S
C372 O367 1.244 . S
O373 Mg358 2.055 . S
O373 C362 1.191 . S
O374 C353 1.331 . S
O374 Mg360 2.081 . S
O375 Mg356 1.986 . S
O375 C362 1.307 . S
O376 C354 1.264 . S
O376 Mg360 2.023 1_655 S
O377 C353 1.244 . S
O377 Mg361 1.942 1_455 S
O378 C354 1.273 . S
O378 Mg361 1.955 . S
O379 C352 1.312 . S
O379 Mg355 2.291 . S
O379 Mg358 2.075 1_455 S
O380 C352 1.208 . S
O380 Mg360 2.031 . S
C381 O366 1.264 . S
C381 O368 1.273 . S
C382 O363 1.191 . S
C382 O365 1.307 . S
C383 O410 1.312 . S
C383 O411 1.208 . S
C384 O405 1.331 . S
C384 O408 1.244 . S
C385 O407 1.264 . S
C385 O409 1.273 . S
Mg386 O388 1.936 . S
Mg386 O395 2.081 . S
Mg386 O397 2.023 . S
Mg386 O401 2.031 . S
Mg386 O410 2.291 . S
Mg387 O388 1.963 . S
Mg387 O398 1.942 . S
Mg387 O399 1.955 . S
Mg387 O406 1.986 . S
O388 Mg386 1.936 . S
O388 Mg387 1.963 . S
O388 Mg389 1.915 . S
Mg389 O388 1.915 . S
Mg389 O390 1.915 . S
Mg389 O394 2.013 . S
Mg389 O400 2.114 . S
Mg389 O404 2.013 . S
Mg389 O410 2.114 . S
O390 Mg389 1.915 . S
O390 Mg391 1.936 . S
O390 Mg392 1.963 . S
Mg391 O390 1.936 . S
Mg391 O400 2.291 . S
Mg391 O405 2.081 . S
Mg391 O407 2.023 . S
Mg391 O411 2.031 . S
Mg392 O390 1.963 . S
Mg392 O396 1.986 . S
Mg392 O408 1.942 . S
Mg392 O409 1.955 . S
C393 O404 1.191 . S
C393 O406 1.307 . S
O394 Mg389 2.013 . S
O394 C413 1.191 . S
O395 Mg386 2.081 . S
O395 C403 1.331 . S
O396 Mg392 1.986 . S
O396 C413 1.307 . S
O397 Mg386 2.023 . S
O397 C412 1.264 . S
O398 Mg387 1.942 . S
O398 C403 1.244 . S
O399 Mg387 1.955 . S
O399 C412 1.273 . S
O400 Mg389 2.114 . S
O400 Mg391 2.291 . S
O400 C402 1.312 . S
O401 Mg386 2.031 . S
O401 C402 1.208 . S
C402 O400 1.312 . S
C402 O401 1.208 . S
C403 O395 1.331 . S
C403 O398 1.244 . S
O404 Mg389 2.013 . S
O404 C393 1.191 . S
O405 C384 1.331 . S
O405 Mg391 2.081 . S
O406 Mg387 1.986 . S
O406 C393 1.307 . S
O407 C385 1.264 . S
O407 Mg391 2.023 . S
O408 C384 1.244 . S
O408 Mg392 1.942 . S
O409 C385 1.273 . S
O409 Mg392 1.955 . S
O410 C383 1.312 . S
O410 Mg386 2.291 . S
O410 Mg389 2.114 . S
O411 C383 1.208 . S
O411 Mg391 2.031 . S
C412 O397 1.264 . S
C412 O399 1.273 . S
C413 O394 1.191 . S
C413 O396 1.307 . S
C414 O441 1.312 . S
C414 O442 1.217 . S
C415 O436 1.331 . S
C415 O439 1.244 . S
C416 O438 1.264 . S
C416 O440 1.273 . S
Mg417 O419 1.936 . S
Mg417 O426 2.081 . S
Mg417 O428 2.023 1_455 S
Mg417 O432 2.031 . S
Mg417 O441 2.291 1_455 S
Mg418 O419 1.963 1_655 S
Mg418 O429 1.942 1_655 S
Mg418 O430 1.955 . S
Mg418 O437 1.986 1_655 S
O419 Mg417 1.936 . S
O419 Mg418 1.963 1_455 S
O419 Mg420 1.904 1_455 S
Mg420 O419 1.904 1_655 S
Mg420 O421 1.926 . S
Mg420 O425 2.055 . S
Mg420 O431 2.075 1_655 S
Mg420 O435 2.001 1_655 S
Mg420 O441 2.120 . S
O421 Mg420 1.926 . S
O421 Mg422 1.936 1_655 S
O421 Mg423 1.963 . S
Mg422 O421 1.936 1_455 S
Mg422 O431 2.291 . S
Mg422 O436 2.081 1_455 S
Mg422 O438 2.023 . S
Mg422 O442 2.022 1_455 S
Mg423 O421 1.963 . S
Mg423 O427 1.986 . S
Mg423 O439 1.942 . S
Mg423 O440 1.955 1_655 S
C424 O435 1.191 . S
C424 O437 1.307 . S
O425 Mg420 2.055 . S
O425 C444 1.191 . S
O426 Mg417 2.081 . S
O426 C434 1.331 . S
O427 Mg423 1.986 . S
O427 C444 1.307 . S
O428 Mg417 2.023 1_655 S
O428 C443 1.264 . S
O429 Mg418 1.942 1_455 S
O429 C434 1.244 . S
O430 Mg418 1.955 . S
O430 C443 1.273 . S
O431 Mg420 2.075 1_455 S
O431 Mg422 2.291 . S
O431 C433 1.312 . S
O432 Mg417 2.031 . S
O432 C433 1.208 . S
C433 O431 1.312 . S
C433 O432 1.208 . S
C434 O426 1.331 . S
C434 O429 1.244 . S
O435 Mg420 2.001 1_455 S
O435 C424 1.191 . S
O436 C415 1.331 . S
O436 Mg422 2.081 1_655 S
O437 Mg418 1.986 1_455 S
O437 C424 1.307 . S
O438 C416 1.264 . S
O438 Mg422 2.023 . S
O439 C415 1.244 . S
O439 Mg423 1.942 . S
O440 C416 1.273 . S
O440 Mg423 1.955 1_455 S
O441 C414 1.312 . S
O441 Mg417 2.291 1_655 S
O441 Mg420 2.120 . S
O442 C414 1.217 . S
O442 Mg422 2.022 1_655 S
C443 O428 1.264 . S
C443 O430 1.273 . S
C444 O425 1.191 . S
C444 O427 1.307 . S
C445 O472 1.312 . S
C445 O473 1.213 . S
C446 O467 1.331 . S
C446 O470 1.244 . S
C447 O469 1.264 . S
C447 O471 1.273 . S
Mg448 O450 1.936 . S
Mg448 O457 2.081 . S
Mg448 O459 2.023 1_545 S
Mg448 O463 2.031 . S
Mg448 O472 2.291 1_545 S
Mg449 O450 1.963 1_565 S
Mg449 O460 1.942 1_565 S
Mg449 O461 1.955 . S
Mg449 O468 1.986 1_565 S
O450 Mg448 1.936 . S
O450 Mg449 1.963 1_545 S
O450 Mg451 1.904 1_545 S
Mg451 O450 1.904 1_565 S
Mg451 O452 1.926 . S
Mg451 O456 2.055 . S
Mg451 O462 2.075 1_565 S
Mg451 O466 2.001 1_565 S
Mg451 O472 2.120 . S
O452 Mg451 1.926 . S
O452 Mg453 1.936 1_565 S
O452 Mg454 1.963 . S
Mg453 O452 1.936 1_545 S
Mg453 O462 2.291 . S
Mg453 O467 2.081 1_545 S
Mg453 O469 2.023 . S
Mg453 O473 2.025 1_545 S
Mg454 O452 1.963 . S
Mg454 O458 1.986 . S
Mg454 O470 1.942 . S
Mg454 O471 1.955 1_565 S
C455 O466 1.191 . S
C455 O468 1.307 . S
O456 Mg451 2.055 . S
O456 C475 1.191 . S
O457 Mg448 2.081 . S
O457 C465 1.331 . S
O458 Mg454 1.986 . S
O458 C475 1.307 . S
O459 Mg448 2.023 1_565 S
O459 C474 1.264 . S
O460 Mg449 1.942 1_545 S
O460 C465 1.244 . S
O461 Mg449 1.955 . S
O461 C474 1.273 . S
O462 Mg451 2.075 1_545 S
O462 Mg453 2.291 . S
O462 C464 1.312 . S
O463 Mg448 2.031 . S
O463 C464 1.208 . S
C464 O462 1.312 . S
C464 O463 1.208 . S
C465 O457 1.331 . S
C465 O460 1.244 . S
O466 Mg451 2.001 1_545 S
O466 C455 1.191 . S
O467 C446 1.331 . S
O467 Mg453 2.081 1_565 S
O468 Mg449 1.986 1_545 S
O468 C455 1.307 . S
O469 C447 1.264 . S
O469 Mg453 2.023 . S
O470 C446 1.244 . S
O470 Mg454 1.942 . S
O471 C447 1.273 . S
O471 Mg454 1.955 1_545 S
O472 C445 1.312 . S
O472 Mg448 2.291 1_565 S
O472 Mg451 2.120 . S
O473 C445 1.213 . S
O473 Mg453 2.025 1_565 S
C474 O459 1.264 . S
C474 O461 1.273 . S
C475 O456 1.191 . S
C475 O458 1.307 . S
C476 O503 1.312 . S
C476 O504 1.208 . S
C477 O498 1.331 . S
C477 O501 1.244 . S
C478 O500 1.264 . S
C478 O502 1.273 . S
Mg479 O481 1.936 1_554 S
Mg479 O488 2.081 1_554 S
Mg479 O490 2.023 . S
Mg479 O494 2.023 1_554 S
Mg479 O503 2.291 . S
Mg480 O481 1.963 . S
Mg480 O491 1.942 . S
Mg480 O492 1.955 1_556 S
Mg480 O499 1.986 . S
O481 Mg479 1.936 1_556 S
O481 Mg480 1.963 . S
O481 Mg482 1.926 . S
Mg482 O481 1.926 . S
Mg482 O483 1.904 1_556 S
Mg482 O487 2.001 1_556 S
Mg482 O493 2.120 . S
Mg482 O497 2.055 . S
Mg482 O503 2.075 1_556 S
O483 Mg482 1.904 1_554 S
O483 Mg484 1.936 . S
O483 Mg485 1.963 1_554 S
Mg484 O483 1.936 . S
Mg484 O493 2.291 1_554 S
Mg484 O498 2.081 . S
Mg484 O500 2.023 1_554 S
Mg484 O504 2.031 . S
Mg485 O483 1.963 1_556 S
Mg485 O489 1.986 1_556 S
Mg485 O501 1.942 1_556 S
Mg485 O502 1.955 . S
C486 O497 1.191 . S
C486 O499 1.307 . S
O487 Mg482 2.001 1_554 S
O487 C506 1.191 . S
O488 Mg479 2.081 1_556 S
O488 C496 1.331 . S
O489 Mg485 1.986 1_554 S
O489 C506 1.307 . S
O490 Mg479 2.023 . S
O490 C505 1.264 . S
O491 Mg480 1.942 . S
O491 C496 1.244 . S
O492 Mg480 1.955 1_554 S
O492 C505 1.273 . S
O493 Mg482 2.120 . S
O493 Mg484 2.291 1_556 S
O493 C495 1.312 . S
O494 Mg479 2.023 1_556 S
O494 C495 1.215 . S
C495 O493 1.312 . S
C495 O494 1.215 . S
C496 O488 1.331 . S
C496 O491 1.244 . S
O497 Mg482 2.055 . S
O497 C486 1.191 . S
O498 C477 1.331 . S
O498 Mg484 2.081 . S
O499 Mg480 1.986 . S
O499 C486 1.307 . S
O500 C478 1.264 . S
O500 Mg484 2.023 1_556 S
O501 C477 1.244 . S
O501 Mg485 1.942 1_554 S
O502 C478 1.273 . S
O502 Mg485 1.955 . S
O503 C476 1.312 . S
O503 Mg479 2.291 . S
O503 Mg482 2.075 1_554 S
O504 C476 1.208 . S
O504 Mg484 2.031 . S
C505 O490 1.264 . S
C505 O492 1.273 . S
C506 O487 1.191 . S
C506 O489 1.307 . S
C507 O534 1.312 . S
C507 O535 1.208 . S
C508 O529 1.331 . S
C508 O532 1.244 . S
C509 O531 1.264 . S
C509 O533 1.273 . S
Mg510 O512 1.936 . S
Mg510 O519 2.081 . S
Mg510 O521 2.023 . S
Mg510 O525 2.031 . S
Mg510 O534 2.291 . S
Mg511 O512 1.963 . S
Mg511 O522 1.942 . S
Mg511 O523 1.955 . S
Mg511 O530 1.986 . S
O512 Mg510 1.936 . S
O512 Mg511 1.963 . S
O512 Mg513 1.915 . S
Mg513 O512 1.915 . S
Mg513 O514 1.915 . S
Mg513 O518 2.013 . S
Mg513 O524 2.114 . S
Mg513 O528 2.013 . S
Mg513 O534 2.114 . S
O514 Mg513 1.915 . S
O514 Mg515 1.936 . S
O514 Mg516 1.963 . S
Mg515 O514 1.936 . S
Mg515 O524 2.291 . S
Mg515 O529 2.081 . S
Mg515 O531 2.023 . S
Mg515 O535 2.031 . S
Mg516 O514 1.963 . S
Mg516 O520 1.986 . S
Mg516 O532 1.942 . S
Mg516 O533 1.955 . S
C517 O528 1.191 . S
C517 O530 1.307 . S
O518 Mg513 2.013 . S
O518 C537 1.191 . S
O519 Mg510 2.081 . S
O519 C527 1.331 . S
O520 Mg516 1.986 . S
O520 C537 1.307 . S
O521 Mg510 2.023 . S
O521 C536 1.264 . S
O522 Mg511 1.942 . S
O522 C527 1.244 . S
O523 Mg511 1.955 . S
O523 C536 1.273 . S
O524 Mg513 2.114 . S
O524 Mg515 2.291 . S
O524 C526 1.312 . S
O525 Mg510 2.031 . S
O525 C526 1.208 . S
C526 O524 1.312 . S
C526 O525 1.208 . S
C527 O519 1.331 . S
C527 O522 1.244 . S
O528 Mg513 2.013 . S
O528 C517 1.191 . S
O529 C508 1.331 . S
O529 Mg515 2.081 . S
O530 Mg511 1.986 . S
O530 C517 1.307 . S
O531 C509 1.264 . S
O531 Mg515 2.023 . S
O532 C508 1.244 . S
O532 Mg516 1.942 . S
O533 C509 1.273 . S
O533 Mg516 1.955 . S
O534 C507 1.312 . S
O534 Mg510 2.291 . S
O534 Mg513 2.114 . S
O535 C507 1.208 . S
O535 Mg515 2.031 . S
C536 O521 1.264 . S
C536 O523 1.273 . S
C537 O518 1.191 . S
C537 O520 1.307 . S
C538 O565 1.312 . S
C538 O566 1.208 . S
C539 O560 1.331 . S
C539 O563 1.244 . S
C540 O562 1.264 . S
C540 O564 1.273 . S
Mg541 O543 1.936 . S
Mg541 O550 2.081 . S
Mg541 O552 2.023 1_556 S
Mg541 O556 2.031 . S
Mg541 O565 2.291 1_556 S
Mg542 O543 1.963 1_554 S
Mg542 O553 1.942 1_554 S
Mg542 O554 1.955 . S
Mg542 O561 1.986 1_554 S
O543 Mg541 1.936 . S
O543 Mg542 1.963 1_556 S
O543 Mg544 1.915 1_556 S
Mg544 O543 1.915 1_554 S
Mg544 O545 1.915 . S
Mg544 O549 2.013 . S
Mg544 O555 2.114 1_554 S
Mg544 O559 2.013 1_554 S
Mg544 O565 2.114 . S
O545 Mg544 1.915 . S
O545 Mg546 1.936 1_554 S
O545 Mg547 1.963 . S
Mg546 O545 1.936 1_556 S
Mg546 O555 2.291 . S
Mg546 O560 2.081 1_556 S
Mg546 O562 2.023 . S
Mg546 O566 2.031 1_556 S
Mg547 O545 1.963 . S
Mg547 O551 1.986 . S
Mg547 O563 1.942 . S
Mg547 O564 1.955 1_554 S
C548 O559 1.191 . S
C548 O561 1.307 . S
O549 Mg544 2.013 . S
O549 C568 1.191 . S
O550 Mg541 2.081 . S
O550 C558 1.331 . S
O551 Mg547 1.986 . S
O551 C568 1.307 . S
O552 Mg541 2.023 1_554 S
O552 C567 1.264 . S
O553 Mg542 1.942 1_556 S
O553 C558 1.244 . S
O554 Mg542 1.955 . S
O554 C567 1.273 . S
O555 Mg544 2.114 1_556 S
O555 Mg546 2.291 . S
O555 C557 1.312 . S
O556 Mg541 2.031 . S
O556 C557 1.208 . S
C557 O555 1.312 . S
C557 O556 1.208 . S
C558 O550 1.331 . S
C558 O553 1.244 . S
O559 Mg544 2.013 1_556 S
O559 C548 1.191 . S
O560 C539 1.331 . S
O560 Mg546 2.081 1_554 S
O561 Mg542 1.986 1_556 S
O561 C548 1.307 . S
O562 C540 1.264 . S
O562 Mg546 2.023 . S
O563 C539 1.244 . S
O563 Mg547 1.942 . S
O564 C540 1.273 . S
O564 Mg547 1.955 1_556 S
O565 C538 1.312 . S
O565 Mg541 2.291 1_554 S
O565 Mg544 2.114 . S
O566 C538 1.208 . S
O566 Mg546 2.031 1_554 S
C567 O552 1.264 . S
C567 O554 1.273 . S
C568 O549 1.191 . S
C568 O551 1.307 . S
C569 O596 1.312 . S
C569 O597 1.208 . S
C570 O591 1.331 . S
C570 O594 1.244 . S
C571 O593 1.264 . S
C571 O595 1.273 . S
Mg572 O574 1.936 . S
Mg572 O581 2.081 . S
Mg572 O583 2.023 . S
Mg572 O587 2.031 . S
Mg572 O596 2.291 . S
Mg573 O574 1.963 . S
Mg573 O584 1.942 . S
Mg573 O585 1.955 . S
Mg573 O592 1.986 . S
O574 Mg572 1.936 . S
O574 Mg573 1.963 . S
O574 Mg575 1.915 . S
Mg575 O574 1.915 . S
Mg575 O576 1.915 . S
Mg575 O580 2.013 . S
Mg575 O586 2.114 . S
Mg575 O590 2.013 . S
Mg575 O596 2.114 . S
O576 Mg575 1.915 . S
O576 Mg577 1.936 . S
O576 Mg578 1.963 . S
Mg577 O576 1.936 . S
Mg577 O586 2.291 . S
Mg577 O591 2.081 . S
Mg577 O593 2.023 . S
Mg577 O597 2.031 . S
Mg578 O576 1.963 . S
Mg578 O582 1.986 . S
Mg578 O594 1.942 . S
Mg578 O595 1.955 . S
C579 O590 1.191 . S
C579 O592 1.307 . S
O580 Mg575 2.013 . S
O580 C599 1.191 . S
O581 Mg572 2.081 . S
O581 C589 1.331 . S
O582 Mg578 1.986 . S
O582 C599 1.307 . S
O583 Mg572 2.023 . S
O583 C598 1.264 . S
O584 Mg573 1.942 . S
O584 C589 1.244 . S
O585 Mg573 1.955 . S
O585 C598 1.273 . S
O586 Mg575 2.114 . S
O586 Mg577 2.291 . S
O586 C588 1.312 . S
O587 Mg572 2.031 . S
O587 C588 1.208 . S
C588 O586 1.312 . S
C588 O587 1.208 . S
C589 O581 1.331 . S
C589 O584 1.244 . S
O590 Mg575 2.013 . S
O590 C579 1.191 . S
O591 C570 1.331 . S
O591 Mg577 2.081 . S
O592 Mg573 1.986 . S
O592 C579 1.307 . S
O593 C571 1.264 . S
O593 Mg577 2.023 . S
O594 C570 1.244 . S
O594 Mg578 1.942 . S
O595 C571 1.273 . S
O595 Mg578 1.955 . S
O596 C569 1.312 . S
O596 Mg572 2.291 . S
O596 Mg575 2.114 . S
O597 C569 1.208 . S
O597 Mg577 2.031 . S
C598 O583 1.264 . S
C598 O585 1.273 . S
C599 O580 1.191 . S
C599 O582 1.307 . S
C600 O627 1.312 . S
C600 O628 1.208 . S
C601 O622 1.331 . S
C601 O625 1.244 . S
C602 O624 1.264 . S
C602 O626 1.273 . S
Mg603 O605 1.936 . S
Mg603 O612 2.081 . S
Mg603 O614 2.023 . S
Mg603 O618 2.031 . S
Mg603 O627 2.291 . S
Mg604 O605 1.963 . S
Mg604 O615 1.942 . S
Mg604 O616 1.955 . S
Mg604 O623 1.986 . S
O605 Mg603 1.936 . S
O605 Mg604 1.963 . S
O605 Mg606 1.915 . S
Mg606 O605 1.915 . S
Mg606 O607 1.915 . S
Mg606 O611 2.013 . S
Mg606 O617 2.114 . S
Mg606 O621 2.013 . S
Mg606 O627 2.114 . S
O607 Mg606 1.915 . S
O607 Mg608 1.936 . S
O607 Mg609 1.963 . S
Mg608 O607 1.936 . S
Mg608 O617 2.291 . S
Mg608 O622 2.081 . S
Mg608 O624 2.023 . S
Mg608 O628 2.031 . S
Mg609 O607 1.963 . S
Mg609 O613 1.986 . S
Mg609 O625 1.942 . S
Mg609 O626 1.955 . S
C610 O621 1.191 . S
C610 O623 1.307 . S
O611 Mg606 2.013 . S
O611 C630 1.191 . S
O612 Mg603 2.081 . S
O612 C620 1.331 . S
O613 Mg609 1.986 . S
O613 C630 1.307 . S
O614 Mg603 2.023 . S
O614 C629 1.264 . S
O615 Mg604 1.942 . S
O615 C620 1.244 . S
O616 Mg604 1.955 . S
O616 C629 1.273 . S
O617 Mg606 2.114 . S
O617 Mg608 2.291 . S
O617 C619 1.312 . S
O618 Mg603 2.031 . S
O618 C619 1.208 . S
C619 O617 1.312 . S
C619 O618 1.208 . S
C620 O612 1.331 . S
C620 O615 1.244 . S
O621 Mg606 2.013 . S
O621 C610 1.191 . S
O622 C601 1.331 . S
O622 Mg608 2.081 . S
O623 Mg604 1.986 . S
O623 C610 1.307 . S
O624 C602 1.264 . S
O624 Mg608 2.023 . S
O625 C601 1.244 . S
O625 Mg609 1.942 . S
O626 C602 1.273 . S
O626 Mg609 1.955 . S
O627 C600 1.312 . S
O627 Mg603 2.291 . S
O627 Mg606 2.114 . S
O628 C600 1.208 . S
O628 Mg608 2.031 . S
C629 O614 1.264 . S
C629 O616 1.273 . S
C630 O611 1.191 . S
C630 O613 1.307 . S
C631 O658 1.312 . S
C631 O659 1.208 . S
C632 O653 1.331 . S
C632 O656 1.244 . S
C633 O655 1.264 . S
C633 O657 1.273 . S
Mg634 O636 1.936 . S
Mg634 O643 2.081 . S
Mg634 O645 2.023 . S
Mg634 O649 2.031 . S
Mg634 O658 2.291 . S
Mg635 O636 1.963 . S
Mg635 O646 1.942 . S
Mg635 O647 1.955 . S
Mg635 O654 1.986 . S
O636 Mg634 1.936 . S
O636 Mg635 1.963 . S
O636 Mg637 1.915 . S
Mg637 O636 1.915 . S
Mg637 O638 1.915 . S
Mg637 O642 2.013 . S
Mg637 O648 2.114 . S
Mg637 O652 2.013 . S
Mg637 O658 2.114 . S
O638 Mg637 1.915 . S
O638 Mg639 1.936 . S
O638 Mg640 1.963 . S
Mg639 O638 1.936 . S
Mg639 O648 2.291 . S
Mg639 O653 2.081 . S
Mg639 O655 2.023 . S
Mg639 O659 2.031 . S
Mg640 O638 1.963 . S
Mg640 O644 1.986 . S
Mg640 O656 1.942 . S
Mg640 O657 1.955 . S
C641 O652 1.191 . S
C641 O654 1.307 . S
O642 Mg637 2.013 . S
O642 C661 1.191 . S
O643 Mg634 2.081 . S
O643 C651 1.331 . S
O644 Mg640 1.986 . S
O644 C661 1.307 . S
O645 Mg634 2.023 . S
O645 C660 1.264 . S
O646 Mg635 1.942 . S
O646 C651 1.244 . S
O647 Mg635 1.955 . S
O647 C660 1.273 . S
O648 Mg637 2.114 . S
O648 Mg639 2.291 . S
O648 C650 1.312 . S
O649 Mg634 2.031 . S
O649 C650 1.208 . S
C650 O648 1.312 . S
C650 O649 1.208 . S
C651 O643 1.331 . S
C651 O646 1.244 . S
O652 Mg637 2.013 . S
O652 C641 1.191 . S
O653 C632 1.331 . S
O653 Mg639 2.081 . S
O654 Mg635 1.986 . S
O654 C641 1.307 . S
O655 C633 1.264 . S
O655 Mg639 2.023 . S
O656 C632 1.244 . S
O656 Mg640 1.942 . S
O657 C633 1.273 . S
O657 Mg640 1.955 . S
O658 C631 1.312 . S
O658 Mg634 2.291 . S
O658 Mg637 2.114 . S
O659 C631 1.208 . S
O659 Mg639 2.031 . S
C660 O645 1.264 . S
C660 O647 1.273 . S
C661 O642 1.191 . S
C661 O644 1.307 . S
C662 O689 1.312 . S
C662 O690 1.208 . S
C663 O684 1.331 . S
C663 O687 1.244 . S
C664 O686 1.264 . S
C664 O688 1.273 . S
Mg665 O667 1.936 . S
Mg665 O674 2.081 . S
Mg665 O676 2.023 1_565 S
Mg665 O680 2.031 . S
Mg665 O689 2.291 1_565 S
Mg666 O667 1.963 1_545 S
Mg666 O677 1.942 1_545 S
Mg666 O678 1.955 . S
Mg666 O685 1.986 1_545 S
O667 Mg665 1.936 . S
O667 Mg666 1.963 1_565 S
O667 Mg668 1.915 1_565 S
Mg668 O667 1.915 1_545 S
Mg668 O669 1.915 . S
Mg668 O673 2.013 . S
Mg668 O679 2.114 1_545 S
Mg668 O683 2.013 1_545 S
Mg668 O689 2.114 . S
O669 Mg668 1.915 . S
O669 Mg670 1.936 1_545 S
O669 Mg671 1.963 . S
Mg670 O669 1.936 1_565 S
Mg670 O679 2.291 . S
Mg670 O684 2.081 1_565 S
Mg670 O686 2.023 . S
Mg670 O690 2.031 1_565 S
Mg671 O669 1.963 . S
Mg671 O675 1.986 . S
Mg671 O687 1.942 . S
Mg671 O688 1.955 1_545 S
C672 O683 1.191 . S
C672 O685 1.307 . S
O673 Mg668 2.013 . S
O673 C692 1.191 . S
O674 Mg665 2.081 . S
O674 C682 1.331 . S
O675 Mg671 1.986 . S
O675 C692 1.307 . S
O676 Mg665 2.023 1_545 S
O676 C691 1.264 . S
O677 Mg666 1.942 1_565 S
O677 C682 1.244 . S
O678 Mg666 1.955 . S
O678 C691 1.273 . S
O679 Mg668 2.114 1_565 S
O679 Mg670 2.291 . S
O679 C681 1.312 . S
O680 Mg665 2.031 . S
O680 C681 1.208 . S
C681 O679 1.312 . S
C681 O680 1.208 . S
C682 O674 1.331 . S
C682 O677 1.244 . S
O683 Mg668 2.013 1_565 S
O683 C672 1.191 . S
O684 C663 1.331 . S
O684 Mg670 2.081 1_545 S
O685 Mg666 1.986 1_565 S
O685 C672 1.307 . S
O686 C664 1.264 . S
O686 Mg670 2.023 . S
O687 C663 1.244 . S
O687 Mg671 1.942 . S
O688 C664 1.273 . S
O688 Mg671 1.955 1_565 S
O689 C662 1.312 . S
O689 Mg665 2.291 1_545 S
O689 Mg668 2.114 . S
O690 C662 1.208 . S
O690 Mg670 2.031 1_545 S
C691 O676 1.264 . S
C691 O678 1.273 . S
C692 O673 1.191 . S
C692 O675 1.307 . S
C693 O720 1.312 . S
C693 O721 1.208 . S
C694 O715 1.331 . S
C694 O718 1.244 . S
C695 O717 1.264 . S
C695 O719 1.273 . S
Mg696 O698 1.936 . S
Mg696 O705 2.081 . S
Mg696 O707 2.023 . S
Mg696 O711 2.031 . S
Mg696 O720 2.291 . S
Mg697 O698 1.963 . S
Mg697 O708 1.942 . S
Mg697 O709 1.955 . S
Mg697 O716 1.986 . S
O698 Mg696 1.936 . S
O698 Mg697 1.963 . S
O698 Mg699 1.915 . S
Mg699 O698 1.915 . S
Mg699 O700 1.915 . S
Mg699 O704 2.013 . S
Mg699 O710 2.114 . S
Mg699 O714 2.013 . S
Mg699 O720 2.114 . S
O700 Mg699 1.915 . S
O700 Mg701 1.936 . S
O700 Mg702 1.963 . S
Mg701 O700 1.936 . S
Mg701 O710 2.291 . S
Mg701 O715 2.081 . S
Mg701 O717 2.023 . S
Mg701 O721 2.031 . S
Mg702 O700 1.963 . S
Mg702 O706 1.986 . S
Mg702 O718 1.942 . S
Mg702 O719 1.955 . S
C703 O714 1.191 . S
C703 O716 1.307 . S
O704 Mg699 2.013 . S
O704 C723 1.191 . S
O705 Mg696 2.081 . S
O705 C713 1.331 . S
O706 Mg702 1.986 . S
O706 C723 1.307 . S
O707 Mg696 2.023 . S
O707 C722 1.264 . S
O708 Mg697 1.942 . S
O708 C713 1.244 . S
O709 Mg697 1.955 . S
O709 C722 1.273 . S
O710 Mg699 2.114 . S
O710 Mg701 2.291 . S
O710 C712 1.312 . S
O711 Mg696 2.031 . S
O711 C712 1.208 . S
C712 O710 1.312 . S
C712 O711 1.208 . S
C713 O705 1.331 . S
C713 O708 1.244 . S
O714 Mg699 2.013 . S
O714 C703 1.191 . S
O715 C694 1.331 . S
O715 Mg701 2.081 . S
O716 Mg697 1.986 . S
O716 C703 1.307 . S
O717 C695 1.264 . S
O717 Mg701 2.023 . S
O718 C694 1.244 . S
O718 Mg702 1.942 . S
O719 C695 1.273 . S
O719 Mg702 1.955 . S
O720 C693 1.312 . S
O720 Mg696 2.291 . S
O720 Mg699 2.114 . S
O721 C693 1.208 . S
O721 Mg701 2.031 . S
C722 O707 1.264 . S
C722 O709 1.273 . S
C723 O704 1.191 . S
C723 O706 1.307 . S
C724 C725 1.349 . S
C724 C726 1.327 . S
C724 H749 0.950 . S
C725 C724 1.349 . S
C725 C741 1.349 . S
C726 C724 1.327 . S
C726 C745 1.429 . S
C726 H750 0.950 . S
C727 C744 1.574 . S
C727 C746 1.368 . S
C727 H751 0.949 . S
H728 C732 0.949 . S
C729 C730 1.349 . S
C729 C731 1.327 . S
C729 H752 0.950 . S
C730 C729 1.349 . S
C730 C742 1.349 . S
C731 C729 1.327 . S
C731 C747 1.429 . S
C731 H753 0.950 . S
C732 H728 0.949 . S
C732 C740 1.574 . S
C732 C748 1.368 . S
H733 C741 0.950 . S
H734 C739 0.950 . S
H735 C740 0.949 . S
H736 C742 0.950 . S
H737 C743 0.950 . S
H738 C744 0.949 . S
C739 H734 0.950 . S
C739 C741 1.327 . S
C739 C745 1.429 . S
C740 C732 1.574 . S
C740 H735 0.949 . S
C740 C746 1.368 . S
C741 C725 1.349 . S
C741 H733 0.950 . S
C741 C739 1.327 . S
C742 C730 1.349 . S
C742 H736 0.950 . S
C742 C743 1.327 . S
C743 H737 0.950 . S
C743 C742 1.327 . S
C743 C747 1.429 . S
C744 C727 1.574 . S
C744 H738 0.949 . S
C744 C748 1.368 . S
C745 C726 1.429 . S
C745 C739 1.429 . S
C745 C746 1.523 . S
C746 C727 1.368 . S
C746 C740 1.368 . S
C746 C745 1.523 . S
C747 C731 1.429 . S
C747 C743 1.429 . S
C747 C748 1.523 . S
C748 C732 1.368 . S
C748 C744 1.368 . S
C748 C747 1.523 . S
H749 C724 0.950 . S
H750 C726 0.950 . S
H751 C727 0.949 . S
H752 C729 0.950 . S
H753 C731 0.950 . S
C754 C755 1.349 . S
C754 C756 1.327 . S
C754 H779 0.950 . S
C755 C754 1.349 . S
C755 C771 1.349 . S
C756 C754 1.327 . S
C756 C775 1.429 . S
C756 H780 0.950 . S
C757 C774 1.574 . S
C757 C776 1.368 . S
C757 H781 0.949 . S
H758 C762 0.949 . S
C759 C760 1.349 . S
C759 C761 1.327 . S
C759 H782 0.950 . S
C760 C759 1.349 . S
C760 C772 1.349 . S
C761 C759 1.327 . S
C761 C777 1.429 . S
C761 H783 0.950 . S
C762 H758 0.949 . S
C762 C770 1.574 . S
C762 C778 1.368 . S
H763 C771 0.950 . S
H764 C769 0.950 . S
H765 C770 0.949 . S
H766 C772 0.950 . S
H767 C773 0.950 . S
H768 C774 0.949 . S
C769 H764 0.950 . S
C769 C771 1.327 . S
C769 C775 1.429 . S
C770 C762 1.574 . S
C770 H765 0.949 . S
C770 C776 1.368 . S
C771 C755 1.349 . S
C771 H763 0.950 . S
C771 C769 1.327 . S
C772 C760 1.349 . S
C772 H766 0.950 . S
C772 C773 1.327 . S
C773 H767 0.950 . S
C773 C772 1.327 . S
C773 C777 1.429 . S
C774 C757 1.574 . S
C774 H768 0.949 . S
C774 C778 1.368 . S
C775 C756 1.429 . S
C775 C769 1.429 . S
C775 C776 1.523 . S
C776 C757 1.368 . S
C776 C770 1.368 . S
C776 C775 1.523 . S
C777 C761 1.429 . S
C777 C773 1.429 . S
C777 C778 1.523 . S
C778 C762 1.368 . S
C778 C774 1.368 . S
C778 C777 1.523 . S
H779 C754 0.950 . S
H780 C756 0.950 . S
H781 C757 0.949 . S
H782 C759 0.950 . S
H783 C761 0.950 . S
C784 C785 1.349 . S
C784 C786 1.327 . S
C784 H809 0.950 . S
C785 C784 1.349 . S
C785 C801 1.349 . S
C786 C784 1.327 . S
C786 C805 1.429 . S
C786 H810 0.950 . S
C787 C804 1.574 . S
C787 C806 1.368 . S
C787 H811 0.949 . S
H788 C792 0.949 . S
C789 C790 1.349 . S
C789 C791 1.327 . S
C789 H812 0.950 . S
C790 C789 1.349 . S
C790 C802 1.349 . S
C791 C789 1.327 . S
C791 C807 1.429 . S
C791 H813 0.950 . S
C792 H788 0.949 . S
C792 C800 1.574 . S
C792 C808 1.368 . S
H793 C801 0.950 . S
H794 C799 0.950 . S
H795 C800 0.949 . S
H796 C802 0.950 . S
H797 C803 0.950 . S
H798 C804 0.949 . S
C799 H794 0.950 . S
C799 C801 1.327 . S
C799 C805 1.429 . S
C800 C792 1.574 . S
C800 H795 0.949 . S
C800 C806 1.368 . S
C801 C785 1.349 . S
C801 H793 0.950 . S
C801 C799 1.327 . S
C802 C790 1.349 . S
C802 H796 0.950 . S
C802 C803 1.327 . S
C803 H797 0.950 . S
C803 C802 1.327 . S
C803 C807 1.429 . S
C804 C787 1.574 . S
C804 H798 0.949 . S
C804 C808 1.368 . S
C805 C786 1.429 . S
C805 C799 1.429 . S
C805 C806 1.523 . S
C806 C787 1.368 . S
C806 C800 1.368 . S
C806 C805 1.523 . S
C807 C791 1.429 . S
C807 C803 1.429 . S
C807 C808 1.523 . S
C808 C792 1.368 . S
C808 C804 1.368 . S
C808 C807 1.523 . S
H809 C784 0.950 . S
H810 C786 0.950 . S
H811 C787 0.949 . S
H812 C789 0.950 . S
H813 C791 0.950 . S
C814 C815 1.349 . S
C814 C816 1.327 . S
C814 H839 0.950 . S
C815 C814 1.349 . S
C815 C831 1.349 . S
C816 C814 1.327 . S
C816 C835 1.429 . S
C816 H840 0.950 . S
C817 C834 1.574 . S
C817 C836 1.368 . S
C817 H841 0.949 . S
H818 C822 0.949 . S
C819 C820 1.349 . S
C819 C821 1.327 . S
C819 H842 0.950 . S
C820 C819 1.349 . S
C820 C832 1.349 . S
C821 C819 1.327 . S
C821 C837 1.429 . S
C821 H843 0.950 . S
C822 H818 0.949 . S
C822 C830 1.574 . S
C822 C838 1.368 . S
H823 C831 0.950 . S
H824 C829 0.950 . S
H825 C830 0.949 . S
H826 C832 0.950 . S
H827 C833 0.950 . S
H828 C834 0.949 . S
C829 H824 0.950 . S
C829 C831 1.327 . S
C829 C835 1.429 . S
C830 C822 1.574 . S
C830 H825 0.949 . S
C830 C836 1.368 . S
C831 C815 1.349 . S
C831 H823 0.950 . S
C831 C829 1.327 . S
C832 C820 1.349 . S
C832 H826 0.950 . S
C832 C833 1.327 . S
C833 H827 0.950 . S
C833 C832 1.327 . S
C833 C837 1.429 . S
C834 C817 1.574 . S
C834 H828 0.949 . S
C834 C838 1.368 . S
C835 C816 1.429 . S
C835 C829 1.429 . S
C835 C836 1.523 . S
C836 C817 1.368 . S
C836 C830 1.368 . S
C836 C835 1.523 . S
C837 C821 1.429 . S
C837 C833 1.429 . S
C837 C838 1.523 . S
C838 C822 1.368 . S
C838 C834 1.368 . S
C838 C837 1.523 . S
H839 C814 0.950 . S
H840 C816 0.950 . S
H841 C817 0.949 . S
H842 C819 0.950 . S
H843 C821 0.950 . S
C844 C845 1.349 . S
C844 C846 1.327 . S
C844 H869 0.950 . S
C845 C844 1.349 . S
C845 C861 1.349 . S
C846 C844 1.327 . S
C846 C865 1.429 . S
C846 H870 0.950 . S
C847 C864 1.574 . S
C847 C866 1.368 . S
C847 H871 0.949 . S
H848 C852 0.949 . S
C849 C850 1.349 . S
C849 C851 1.327 . S
C849 H872 0.950 . S
C850 C849 1.349 . S
C850 C862 1.349 . S
C851 C849 1.327 . S
C851 C867 1.429 . S
C851 H873 0.950 . S
C852 H848 0.949 . S
C852 C860 1.574 . S
C852 C868 1.368 . S
H853 C861 0.950 . S
H854 C859 0.950 . S
H855 C860 0.949 . S
H856 C862 0.950 . S
H857 C863 0.950 . S
H858 C864 0.949 . S
C859 H854 0.950 . S
C859 C861 1.327 . S
C859 C865 1.429 . S
C860 C852 1.574 . S
C860 H855 0.949 . S
C860 C866 1.368 . S
C861 C845 1.349 . S
C861 H853 0.950 . S
C861 C859 1.327 . S
C862 C850 1.349 . S
C862 H856 0.950 . S
C862 C863 1.327 . S
C863 H857 0.950 . S
C863 C862 1.327 . S
C863 C867 1.429 . S
C864 C847 1.574 . S
C864 H858 0.949 . S
C864 C868 1.368 . S
C865 C846 1.429 . S
C865 C859 1.429 . S
C865 C866 1.523 . S
C866 C847 1.368 . S
C866 C860 1.368 . S
C866 C865 1.523 . S
C867 C851 1.429 . S
C867 C863 1.429 . S
C867 C868 1.523 . S
C868 C852 1.368 . S
C868 C864 1.368 . S
C868 C867 1.523 . S
H869 C844 0.950 . S
H870 C846 0.950 . S
H871 C847 0.949 . S
H872 C849 0.950 . S
H873 C851 0.950 . S
C874 C875 1.349 . S
C874 C876 1.327 . S
C874 H899 0.950 . S
C875 C874 1.349 . S
C875 C891 1.349 . S
C876 C874 1.327 . S
C876 C895 1.429 . S
C876 H900 0.950 . S
C877 C894 1.574 . S
C877 C896 1.368 . S
C877 H901 0.949 . S
H878 C882 0.949 . S
C879 C880 1.349 . S
C879 C881 1.327 . S
C879 H902 0.950 . S
C880 C879 1.349 . S
C880 C892 1.349 . S
C881 C879 1.327 . S
C881 C897 1.429 . S
C881 H903 0.950 . S
C882 H878 0.949 . S
C882 C890 1.574 . S
C882 C898 1.368 . S
H883 C891 0.950 . S
H884 C889 0.950 . S
H885 C890 0.949 . S
H886 C892 0.950 . S
H887 C893 0.950 . S
H888 C894 0.949 . S
C889 H884 0.950 . S
C889 C891 1.327 . S
C889 C895 1.429 . S
C890 C882 1.574 . S
C890 H885 0.949 . S
C890 C896 1.368 . S
C891 C875 1.349 . S
C891 H883 0.950 . S
C891 C889 1.327 . S
C892 C880 1.349 . S
C892 H886 0.950 . S
C892 C893 1.327 . S
C893 H887 0.950 . S
C893 C892 1.327 . S
C893 C897 1.429 . S
C894 C877 1.574 . S
C894 H888 0.949 . S
C894 C898 1.368 . S
C895 C876 1.429 . S
C895 C889 1.429 . S
C895 C896 1.523 . S
C896 C877 1.368 . S
C896 C890 1.368 . S
C896 C895 1.523 . S
C897 C881 1.429 . S
C897 C893 1.429 . S
C897 C898 1.523 . S
C898 C882 1.368 . S
C898 C894 1.368 . S
C898 C897 1.523 . S
H899 C874 0.950 . S
H900 C876 0.950 . S
H901 C877 0.949 . S
H902 C879 0.950 . S
H903 C881 0.950 . S
C904 C905 1.349 . S
C904 C906 1.327 . S
C904 H929 0.950 . S
C905 C904 1.349 . S
C905 C921 1.349 . S
C906 C904 1.327 . S
C906 C925 1.429 . S
C906 H930 0.950 . S
C907 C924 1.574 . S
C907 C926 1.368 . S
C907 H931 0.949 . S
H908 C912 0.949 . S
C909 C910 1.349 . S
C909 C911 1.327 . S
C909 H932 0.950 . S
C910 C909 1.349 . S
C910 C922 1.349 . S
C911 C909 1.327 . S
C911 C927 1.429 . S
C911 H933 0.950 . S
C912 H908 0.949 . S
C912 C920 1.574 . S
C912 C928 1.368 . S
H913 C921 0.950 . S
H914 C919 0.950 . S
H915 C920 0.949 . S
H916 C922 0.950 . S
H917 C923 0.950 . S
H918 C924 0.949 . S
C919 H914 0.950 . S
C919 C921 1.327 . S
C919 C925 1.429 . S
C920 C912 1.574 . S
C920 H915 0.949 . S
C920 C926 1.368 . S
C921 C905 1.349 . S
C921 H913 0.950 . S
C921 C919 1.327 . S
C922 C910 1.349 . S
C922 H916 0.950 . S
C922 C923 1.327 . S
C923 H917 0.950 . S
C923 C922 1.327 . S
C923 C927 1.429 . S
C924 C907 1.574 . S
C924 H918 0.949 . S
C924 C928 1.368 . S
C925 C906 1.429 . S
C925 C919 1.429 . S
C925 C926 1.523 . S
C926 C907 1.368 . S
C926 C920 1.368 . S
C926 C925 1.523 . S
C927 C911 1.429 . S
C927 C923 1.429 . S
C927 C928 1.523 . S
C928 C912 1.368 . S
C928 C924 1.368 . S
C928 C927 1.523 . S
H929 C904 0.950 . S
H930 C906 0.950 . S
H931 C907 0.949 . S
H932 C909 0.950 . S
H933 C911 0.950 . S
C934 C935 1.349 . S
C934 C936 1.327 . S
C934 H959 0.950 . S
C935 C934 1.349 . S
C935 C951 1.349 . S
C936 C934 1.327 . S
C936 C955 1.429 . S
C936 H960 0.950 . S
C937 C954 1.574 . S
C937 C956 1.368 . S
C937 H961 0.949 . S
H938 C942 0.949 . S
C939 C940 1.349 . S
C939 C941 1.327 . S
C939 H962 0.950 . S
C940 C939 1.349 . S
C940 C952 1.349 . S
C941 C939 1.327 . S
C941 C957 1.429 . S
C941 H963 0.950 . S
C942 H938 0.949 . S
C942 C950 1.574 . S
C942 C958 1.368 . S
H943 C951 0.950 . S
H944 C949 0.950 . S
H945 C950 0.949 . S
H946 C952 0.950 . S
H947 C953 0.950 . S
H948 C954 0.949 . S
C949 H944 0.950 . S
C949 C951 1.327 . S
C949 C955 1.429 . S
C950 C942 1.574 . S
C950 H945 0.949 . S
C950 C956 1.368 . S
C951 C935 1.349 . S
C951 H943 0.950 . S
C951 C949 1.327 . S
C952 C940 1.349 . S
C952 H946 0.950 . S
C952 C953 1.327 . S
C953 H947 0.950 . S
C953 C952 1.327 . S
C953 C957 1.429 . S
C954 C937 1.574 . S
C954 H948 0.949 . S
C954 C958 1.368 . S
C955 C936 1.429 . S
C955 C949 1.429 . S
C955 C956 1.523 . S
C956 C937 1.368 . S
C956 C950 1.368 . S
C956 C955 1.523 . S
C957 C941 1.429 . S
C957 C953 1.429 . S
C957 C958 1.523 . S
C958 C942 1.368 . S
C958 C954 1.368 . S
C958 C957 1.523 . S
H959 C934 0.950 . S
H960 C936 0.950 . S
H961 C937 0.949 . S
H962 C939 0.950 . S
H963 C941 0.950 . S
C964 C965 1.349 . S
C964 C966 1.327 . S
C964 H989 0.950 . S
C965 C964 1.349 . S
C965 C981 1.349 . S
C966 C964 1.327 . S
C966 C985 1.429 . S
C966 H990 0.950 . S
C967 C984 1.574 . S
C967 C986 1.368 . S
C967 H991 0.949 . S
H968 C972 0.949 . S
C969 C970 1.349 . S
C969 C971 1.327 . S
C969 H992 0.950 . S
C970 C969 1.349 . S
C970 C982 1.349 . S
C971 C969 1.327 . S
C971 C987 1.429 . S
C971 H993 0.950 . S
C972 H968 0.949 . S
C972 C980 1.574 . S
C972 C988 1.368 . S
H973 C981 0.950 . S
H974 C979 0.950 . S
H975 C980 0.949 . S
H976 C982 0.950 . S
H977 C983 0.950 . S
H978 C984 0.949 . S
C979 H974 0.950 . S
C979 C981 1.327 . S
C979 C985 1.429 . S
C980 C972 1.574 . S
C980 H975 0.949 . S
C980 C986 1.368 . S
C981 C965 1.349 . S
C981 H973 0.950 . S
C981 C979 1.327 . S
C982 C970 1.349 . S
C982 H976 0.950 . S
C982 C983 1.327 . S
C983 H977 0.950 . S
C983 C982 1.327 . S
C983 C987 1.429 . S
C984 C967 1.574 . S
C984 H978 0.949 . S
C984 C988 1.368 . S
C985 C966 1.429 . S
C985 C979 1.429 . S
C985 C986 1.523 . S
C986 C967 1.368 . S
C986 C980 1.368 . S
C986 C985 1.523 . S
C987 C971 1.429 . S
C987 C983 1.429 . S
C987 C988 1.523 . S
C988 C972 1.368 . S
C988 C984 1.368 . S
C988 C987 1.523 . S
H989 C964 0.950 . S
H990 C966 0.950 . S
H991 C967 0.949 . S
H992 C969 0.950 . S
H993 C971 0.950 . S
C994 C995 1.349 . S
C994 C996 1.327 . S
C994 H1019 0.950 . S
C995 C994 1.349 . S
C995 C1011 1.349 . S
C996 C994 1.327 . S
C996 C1015 1.429 . S
C996 H1020 0.950 . S
C997 C1014 1.574 . S
C997 C1016 1.368 . S
C997 H1021 0.949 . S
H998 C1002 0.949 . S
C999 C1000 1.349 . S
C999 C1001 1.327 1_565 S
C999 H1022 0.950 . S
C1000 C999 1.349 . S
C1000 C1012 1.349 . S
C1001 C999 1.327 1_545 S
C1001 C1017 1.429 . S
C1001 H1023 0.950 . S
C1002 H998 0.949 . S
C1002 C1010 1.574 . S
C1002 C1018 1.368 . S
H1003 C1011 0.950 . S
H1004 C1009 0.950 . S
H1005 C1010 0.949 . S
H1006 C1012 0.950 . S
H1007 C1013 0.950 . S
H1008 C1014 0.949 . S
C1009 H1004 0.950 . S
C1009 C1011 1.327 . S
C1009 C1015 1.429 . S
C1010 C1002 1.574 . S
C1010 H1005 0.949 . S
C1010 C1016 1.368 . S
C1011 C995 1.349 . S
C1011 H1003 0.950 . S
C1011 C1009 1.327 . S
C1012 C1000 1.349 . S
C1012 H1006 0.950 . S
C1012 C1013 1.327 . S
C1013 H1007 0.950 . S
C1013 C1012 1.327 . S
C1013 C1017 1.429 1_565 S
C1014 C997 1.574 . S
C1014 H1008 0.949 . S
C1014 C1018 1.368 . S
C1015 C996 1.429 . S
C1015 C1009 1.429 . S
C1015 C1016 1.523 . S
C1016 C997 1.368 . S
C1016 C1010 1.368 . S
C1016 C1015 1.523 . S
C1017 C1001 1.429 . S
C1017 C1013 1.429 1_545 S
C1017 C1018 1.523 . S
C1018 C1002 1.368 . S
C1018 C1014 1.368 . S
C1018 C1017 1.523 . S
H1019 C994 0.950 . S
H1020 C996 0.950 . S
H1021 C997 0.949 . S
H1022 C999 0.950 . S
H1023 C1001 0.950 . S
C1024 C1025 1.349 . S
C1024 C1026 1.327 . S
C1024 H1049 0.950 . S
C1025 C1024 1.349 . S
C1025 C1041 1.349 . S
C1026 C1024 1.327 . S
C1026 C1045 1.429 . S
C1026 H1050 0.950 . S
C1027 C1044 1.574 . S
C1027 C1046 1.368 . S
C1027 H1051 0.949 . S
H1028 C1032 0.949 . S
C1029 C1030 1.349 . S
C1029 C1031 1.327 . S
C1029 H1052 0.950 . S
C1030 C1029 1.349 . S
C1030 C1042 1.349 . S
C1031 C1029 1.327 . S
C1031 C1047 1.429 . S
C1031 H1053 0.950 . S
C1032 H1028 0.949 . S
C1032 C1040 1.574 . S
C1032 C1048 1.368 . S
H1033 C1041 0.950 . S
H1034 C1039 0.950 . S
H1035 C1040 0.949 . S
H1036 C1042 0.950 . S
H1037 C1043 0.950 . S
H1038 C1044 0.949 . S
C1039 H1034 0.950 . S
C1039 C1041 1.327 . S
C1039 C1045 1.429 . S
C1040 C1032 1.574 . S
C1040 H1035 0.949 . S
C1040 C1046 1.368 . S
C1041 C1025 1.349 . S
C1041 H1033 0.950 . S
C1041 C1039 1.327 . S
C1042 C1030 1.349 . S
C1042 H1036 0.950 . S
C1042 C1043 1.327 . S
C1043 H1037 0.950 . S
C1043 C1042 1.327 . S
C1043 C1047 1.429 . S
C1044 C1027 1.574 . S
C1044 H1038 0.949 . S
C1044 C1048 1.368 . S
C1045 C1026 1.429 . S
C1045 C1039 1.429 . S
C1045 C1046 1.523 . S
C1046 C1027 1.368 . S
C1046 C1040 1.368 . S
C1046 C1045 1.523 . S
C1047 C1031 1.429 . S
C1047 C1043 1.429 . S
C1047 C1048 1.523 . S
C1048 C1032 1.368 . S
C1048 C1044 1.368 . S
C1048 C1047 1.523 . S
H1049 C1024 0.950 . S
H1050 C1026 0.950 . S
H1051 C1027 0.949 . S
H1052 C1029 0.950 . S
H1053 C1031 0.950 . S
C1054 C1055 1.349 . S
C1054 C1056 1.327 . S
C1054 H1079 0.950 . S
C1055 C1054 1.349 . S
C1055 C1071 1.349 . S
C1056 C1054 1.327 . S
C1056 C1075 1.429 . S
C1056 H1080 0.950 . S
C1057 C1074 1.574 . S
C1057 C1076 1.368 . S
C1057 H1081 0.949 . S
H1058 C1062 0.949 . S
C1059 C1060 1.349 . S
C1059 C1061 1.327 . S
C1059 H1082 0.950 . S
C1060 C1059 1.349 . S
C1060 C1072 1.349 . S
C1061 C1059 1.327 . S
C1061 C1077 1.429 . S
C1061 H1083 0.950 . S
C1062 H1058 0.949 . S
C1062 C1070 1.574 . S
C1062 C1078 1.368 . S
H1063 C1071 0.950 . S
H1064 C1069 0.950 . S
H1065 C1070 0.949 . S
H1066 C1072 0.950 . S
H1067 C1073 0.950 . S
H1068 C1074 0.949 . S
C1069 H1064 0.950 . S
C1069 C1071 1.327 . S
C1069 C1075 1.429 . S
C1070 C1062 1.574 . S
C1070 H1065 0.949 . S
C1070 C1076 1.368 . S
C1071 C1055 1.349 . S
C1071 H1063 0.950 . S
C1071 C1069 1.327 . S
C1072 C1060 1.349 . S
C1072 H1066 0.950 . S
C1072 C1073 1.327 . S
C1073 H1067 0.950 . S
C1073 C1072 1.327 . S
C1073 C1077 1.429 . S
C1074 C1057 1.574 . S
C1074 H1068 0.949 . S
C1074 C1078 1.368 . S
C1075 C1056 1.429 . S
C1075 C1069 1.429 . S
C1075 C1076 1.523 . S
C1076 C1057 1.368 . S
C1076 C1070 1.368 . S
C1076 C1075 1.523 . S
C1077 C1061 1.429 . S
C1077 C1073 1.429 . S
C1077 C1078 1.523 . S
C1078 C1062 1.368 . S
C1078 C1074 1.368 . S
C1078 C1077 1.523 . S
H1079 C1054 0.950 . S
H1080 C1056 0.950 . S
H1081 C1057 0.949 . S
H1082 C1059 0.950 . S
H1083 C1061 0.950 . S
C1084 C1085 1.349 . S
C1084 C1086 1.327 . S
C1084 H1109 0.950 . S
C1085 C1084 1.349 . S
C1085 C1101 1.349 . S
C1086 C1084 1.327 . S
C1086 C1105 1.429 . S
C1086 H1110 0.950 . S
C1087 C1104 1.574 . S
C1087 C1106 1.368 . S
C1087 H1111 0.949 . S
H1088 C1092 0.949 . S
C1089 C1090 1.349 . S
C1089 C1091 1.327 . S
C1089 H1112 0.950 . S
C1090 C1089 1.349 . S
C1090 C1102 1.349 . S
C1091 C1089 1.327 . S
C1091 C1107 1.429 . S
C1091 H1113 0.950 . S
C1092 H1088 0.949 . S
C1092 C1100 1.574 . S
C1092 C1108 1.368 . S
H1093 C1101 0.950 . S
H1094 C1099 0.950 . S
H1095 C1100 0.949 . S
H1096 C1102 0.950 . S
H1097 C1103 0.950 . S
H1098 C1104 0.949 . S
C1099 H1094 0.950 . S
C1099 C1101 1.327 . S
C1099 C1105 1.429 . S
C1100 C1092 1.574 . S
C1100 H1095 0.949 . S
C1100 C1106 1.368 . S
C1101 C1085 1.349 . S
C1101 H1093 0.950 . S
C1101 C1099 1.327 . S
C1102 C1090 1.349 . S
C1102 H1096 0.950 . S
C1102 C1103 1.327 . S
C1103 H1097 0.950 . S
C1103 C1102 1.327 . S
C1103 C1107 1.429 . S
C1104 C1087 1.574 . S
C1104 H1098 0.949 . S
C1104 C1108 1.368 . S
C1105 C1086 1.429 . S
C1105 C1099 1.429 . S
C1105 C1106 1.523 . S
C1106 C1087 1.368 . S
C1106 C1100 1.368 . S
C1106 C1105 1.523 . S
C1107 C1091 1.429 . S
C1107 C1103 1.429 . S
C1107 C1108 1.523 . S
C1108 C1092 1.368 . S
C1108 C1104 1.368 . S
C1108 C1107 1.523 . S
H1109 C1084 0.950 . S
H1110 C1086 0.950 . S
H1111 C1087 0.949 . S
H1112 C1089 0.950 . S
H1113 C1091 0.950 . S
C1114 C1115 1.349 . S
C1114 C1116 1.327 . S
C1114 H1139 0.950 . S
C1115 C1114 1.349 . S
C1115 C1131 1.349 . S
C1116 C1114 1.327 . S
C1116 C1135 1.429 . S
C1116 H1140 0.950 . S
C1117 C1134 1.574 . S
C1117 C1136 1.368 . S
C1117 H1141 0.949 . S
H1118 C1122 0.949 . S
C1119 C1120 1.349 . S
C1119 C1121 1.327 . S
C1119 H1142 0.950 . S
C1120 C1119 1.349 . S
C1120 C1132 1.349 . S
C1121 C1119 1.327 . S
C1121 C1137 1.429 1_565 S
C1121 H1143 0.950 . S
C1122 H1118 0.949 . S
C1122 C1130 1.574 . S
C1122 C1138 1.368 . S
H1123 C1131 0.950 . S
H1124 C1129 0.950 . S
H1125 C1130 0.949 . S
H1126 C1132 0.950 . S
H1127 C1133 0.950 . S
H1128 C1134 0.949 . S
C1129 H1124 0.950 . S
C1129 C1131 1.327 . S
C1129 C1135 1.429 . S
C1130 C1122 1.574 . S
C1130 H1125 0.949 . S
C1130 C1136 1.368 . S
C1131 C1115 1.349 . S
C1131 H1123 0.950 . S
C1131 C1129 1.327 . S
C1132 C1120 1.349 . S
C1132 H1126 0.950 . S
C1132 C1133 1.327 1_565 S
C1133 H1127 0.950 . S
C1133 C1132 1.327 1_545 S
C1133 C1137 1.429 . S
C1134 C1117 1.574 . S
C1134 H1128 0.949 . S
C1134 C1138 1.368 . S
C1135 C1116 1.429 . S
C1135 C1129 1.429 . S
C1135 C1136 1.523 . S
C1136 C1117 1.368 . S
C1136 C1130 1.368 . S
C1136 C1135 1.523 . S
C1137 C1121 1.429 1_545 S
C1137 C1133 1.429 . S
C1137 C1138 1.523 . S
C1138 C1122 1.368 . S
C1138 C1134 1.368 . S
C1138 C1137 1.523 . S
H1139 C1114 0.950 . S
H1140 C1116 0.950 . S
H1141 C1117 0.949 . S
H1142 C1119 0.950 . S
H1143 C1121 0.950 . S
C1144 C1145 1.349 . S
C1144 C1146 1.327 . S
C1144 H1169 0.950 . S
C1145 C1144 1.349 . S
C1145 C1161 1.349 . S
C1146 C1144 1.327 . S
C1146 C1165 1.429 . S
C1146 H1170 0.950 . S
C1147 C1164 1.574 . S
C1147 C1166 1.368 . S
C1147 H1171 0.949 . S
H1148 C1152 0.949 . S
C1149 C1150 1.349 . S
C1149 C1151 1.327 . S
C1149 H1172 0.950 . S
C1150 C1149 1.349 . S
C1150 C1162 1.349 . S
C1151 C1149 1.327 . S
C1151 C1167 1.429 . S
C1151 H1173 0.950 . S
C1152 H1148 0.949 . S
C1152 C1160 1.574 . S
C1152 C1168 1.368 . S
H1153 C1161 0.950 . S
H1154 C1159 0.950 . S
H1155 C1160 0.949 . S
H1156 C1162 0.950 . S
H1157 C1163 0.950 . S
H1158 C1164 0.949 . S
C1159 H1154 0.950 . S
C1159 C1161 1.327 . S
C1159 C1165 1.429 . S
C1160 C1152 1.574 . S
C1160 H1155 0.949 . S
C1160 C1166 1.368 . S
C1161 C1145 1.349 . S
C1161 H1153 0.950 . S
C1161 C1159 1.327 . S
C1162 C1150 1.349 . S
C1162 H1156 0.950 . S
C1162 C1163 1.327 . S
C1163 H1157 0.950 . S
C1163 C1162 1.327 . S
C1163 C1167 1.429 . S
C1164 C1147 1.574 . S
C1164 H1158 0.949 . S
C1164 C1168 1.368 . S
C1165 C1146 1.429 . S
C1165 C1159 1.429 . S
C1165 C1166 1.523 . S
C1166 C1147 1.368 . S
C1166 C1160 1.368 . S
C1166 C1165 1.523 . S
C1167 C1151 1.429 . S
C1167 C1163 1.429 . S
C1167 C1168 1.523 . S
C1168 C1152 1.368 . S
C1168 C1164 1.368 . S
C1168 C1167 1.523 . S
H1169 C1144 0.950 . S
H1170 C1146 0.950 . S
H1171 C1147 0.949 . S
H1172 C1149 0.950 . S
H1173 C1151 0.950 . S
C1174 C1175 1.349 . S
C1174 C1176 1.327 . S
C1174 H1199 0.950 . S
C1175 C1174 1.349 . S
C1175 C1191 1.349 . S
C1176 C1174 1.327 . S
C1176 C1195 1.429 . S
C1176 H1200 0.950 . S
C1177 C1194 1.574 . S
C1177 C1196 1.368 . S
C1177 H1201 0.949 . S
H1178 C1182 0.949 . S
C1179 C1180 1.349 . S
C1179 C1181 1.327 . S
C1179 H1202 0.950 . S
C1180 C1179 1.349 . S
C1180 C1192 1.349 . S
C1181 C1179 1.327 . S
C1181 C1197 1.429 . S
C1181 H1203 0.950 . S
C1182 H1178 0.949 . S
C1182 C1190 1.574 . S
C1182 C1198 1.368 . S
H1183 C1191 0.950 . S
H1184 C1189 0.950 . S
H1185 C1190 0.949 . S
H1186 C1192 0.950 . S
H1187 C1193 0.950 . S
H1188 C1194 0.949 . S
C1189 H1184 0.950 . S
C1189 C1191 1.327 . S
C1189 C1195 1.429 . S
C1190 C1182 1.574 . S
C1190 H1185 0.949 . S
C1190 C1196 1.368 . S
C1191 C1175 1.349 . S
C1191 H1183 0.950 . S
C1191 C1189 1.327 . S
C1192 C1180 1.349 . S
C1192 H1186 0.950 . S
C1192 C1193 1.327 . S
C1193 H1187 0.950 . S
C1193 C1192 1.327 . S
C1193 C1197 1.429 . S
C1194 C1177 1.574 . S
C1194 H1188 0.949 . S
C1194 C1198 1.368 . S
C1195 C1176 1.429 . S
C1195 C1189 1.429 . S
C1195 C1196 1.523 . S
C1196 C1177 1.368 . S
C1196 C1190 1.368 . S
C1196 C1195 1.523 . S
C1197 C1181 1.429 . S
C1197 C1193 1.429 . S
C1197 C1198 1.523 . S
C1198 C1182 1.368 . S
C1198 C1194 1.368 . S
C1198 C1197 1.523 . S
H1199 C1174 0.950 . S
H1200 C1176 0.950 . S
H1201 C1177 0.949 . S
H1202 C1179 0.950 . S
H1203 C1181 0.950 . S
C1204 C1205 1.349 . S
C1204 C1206 1.327 . S
C1204 H1229 0.950 . S
C1205 C1204 1.349 . S
C1205 C1221 1.349 . S
C1206 C1204 1.327 . S
C1206 C1225 1.429 . S
C1206 H1230 0.950 . S
C1207 C1224 1.574 . S
C1207 C1226 1.368 . S
C1207 H1231 0.949 . S
H1208 C1212 0.949 . S
C1209 C1210 1.349 . S
C1209 C1211 1.327 . S
C1209 H1232 0.950 . S
C1210 C1209 1.349 . S
C1210 C1222 1.349 . S
C1211 C1209 1.327 . S
C1211 C1227 1.429 . S
C1211 H1233 0.950 . S
C1212 H1208 0.949 . S
C1212 C1220 1.574 . S
C1212 C1228 1.368 . S
H1213 C1221 0.950 . S
H1214 C1219 0.950 . S
H1215 C1220 0.949 . S
H1216 C1222 0.950 . S
H1217 C1223 0.950 . S
H1218 C1224 0.949 . S
C1219 H1214 0.950 . S
C1219 C1221 1.327 . S
C1219 C1225 1.429 . S
C1220 C1212 1.574 . S
C1220 H1215 0.949 . S
C1220 C1226 1.368 . S
C1221 C1205 1.349 . S
C1221 H1213 0.950 . S
C1221 C1219 1.327 . S
C1222 C1210 1.349 . S
C1222 H1216 0.950 . S
C1222 C1223 1.327 . S
C1223 H1217 0.950 . S
C1223 C1222 1.327 . S
C1223 C1227 1.429 . S
C1224 C1207 1.574 . S
C1224 H1218 0.949 . S
C1224 C1228 1.368 . S
C1225 C1206 1.429 . S
C1225 C1219 1.429 . S
C1225 C1226 1.523 . S
C1226 C1207 1.368 . S
C1226 C1220 1.368 . S
C1226 C1225 1.523 . S
C1227 C1211 1.429 . S
C1227 C1223 1.429 . S
C1227 C1228 1.523 . S
C1228 C1212 1.368 . S
C1228 C1224 1.368 . S
C1228 C1227 1.523 . S
H1229 C1204 0.950 . S
H1230 C1206 0.950 . S
H1231 C1207 0.949 . S
H1232 C1209 0.950 . S
H1233 C1211 0.950 . S
C1234 C1235 1.349 . S
C1234 C1236 1.327 . S
C1234 H1259 0.950 . S
C1235 C1234 1.349 . S
C1235 C1251 1.349 . S
C1236 C1234 1.327 . S
C1236 C1255 1.429 . S
C1236 H1260 0.950 . S
C1237 C1254 1.574 . S
C1237 C1256 1.368 . S
C1237 H1261 0.949 . S
H1238 C1242 0.949 . S
C1239 C1240 1.349 . S
C1239 C1241 1.327 . S
C1239 H1262 0.950 . S
C1240 C1239 1.349 . S
C1240 C1252 1.349 . S
C1241 C1239 1.327 . S
C1241 C1257 1.429 . S
C1241 H1263 0.950 . S
C1242 H1238 0.949 . S
C1242 C1250 1.574 . S
C1242 C1258 1.368 . S
H1243 C1251 0.950 . S
H1244 C1249 0.950 . S
H1245 C1250 0.949 . S
H1246 C1252 0.950 . S
H1247 C1253 0.950 . S
H1248 C1254 0.949 . S
C1249 H1244 0.950 . S
C1249 C1251 1.327 . S
C1249 C1255 1.429 . S
C1250 C1242 1.574 . S
C1250 H1245 0.949 . S
C1250 C1256 1.368 . S
C1251 C1235 1.349 . S
C1251 H1243 0.950 . S
C1251 C1249 1.327 . S
C1252 C1240 1.349 . S
C1252 H1246 0.950 . S
C1252 C1253 1.327 . S
C1253 H1247 0.950 . S
C1253 C1252 1.327 . S
C1253 C1257 1.429 . S
C1254 C1237 1.574 . S
C1254 H1248 0.949 . S
C1254 C1258 1.368 . S
C1255 C1236 1.429 . S
C1255 C1249 1.429 . S
C1255 C1256 1.523 . S
C1256 C1237 1.368 . S
C1256 C1250 1.368 . S
C1256 C1255 1.523 . S
C1257 C1241 1.429 . S
C1257 C1253 1.429 . S
C1257 C1258 1.523 . S
C1258 C1242 1.368 . S
C1258 C1254 1.368 . S
C1258 C1257 1.523 . S
H1259 C1234 0.950 . S
H1260 C1236 0.950 . S
H1261 C1237 0.949 . S
H1262 C1239 0.950 . S
H1263 C1241 0.950 . S
C1264 C1265 1.349 . S
C1264 C1266 1.327 . S
C1264 H1289 0.950 . S
C1265 C1264 1.349 . S
C1265 C1281 1.349 . S
C1266 C1264 1.327 . S
C1266 C1285 1.429 . S
C1266 H1290 0.950 . S
C1267 C1284 1.574 . S
C1267 C1286 1.368 . S
C1267 H1291 0.949 . S
H1268 C1272 0.949 . S
C1269 C1270 1.349 . S
C1269 C1271 1.327 . S
C1269 H1292 0.950 . S
C1270 C1269 1.349 . S
C1270 C1282 1.349 . S
C1271 C1269 1.327 . S
C1271 C1287 1.429 . S
C1271 H1293 0.950 . S
C1272 H1268 0.949 . S
C1272 C1280 1.574 . S
C1272 C1288 1.368 . S
H1273 C1281 0.950 . S
H1274 C1279 0.950 . S
H1275 C1280 0.949 . S
H1276 C1282 0.950 . S
H1277 C1283 0.950 . S
H1278 C1284 0.949 . S
C1279 H1274 0.950 . S
C1279 C1281 1.327 . S
C1279 C1285 1.429 . S
C1280 C1272 1.574 . S
C1280 H1275 0.949 . S
C1280 C1286 1.368 . S
C1281 C1265 1.349 . S
C1281 H1273 0.950 . S
C1281 C1279 1.327 . S
C1282 C1270 1.349 . S
C1282 H1276 0.950 . S
C1282 C1283 1.327 . S
C1283 H1277 0.950 . S
C1283 C1282 1.327 . S
C1283 C1287 1.429 . S
C1284 C1267 1.574 . S
C1284 H1278 0.949 . S
C1284 C1288 1.368 . S
C1285 C1266 1.429 . S
C1285 C1279 1.429 . S
C1285 C1286 1.523 . S
C1286 C1267 1.368 . S
C1286 C1280 1.368 . S
C1286 C1285 1.523 . S
C1287 C1271 1.429 . S
C1287 C1283 1.429 . S
C1287 C1288 1.523 . S
C1288 C1272 1.368 . S
C1288 C1284 1.368 . S
C1288 C1287 1.523 . S
H1289 C1264 0.950 . S
H1290 C1266 0.950 . S
H1291 C1267 0.949 . S
H1292 C1269 0.950 . S
H1293 C1271 0.950 . S
C1294 C1295 1.349 . S
C1294 C1296 1.327 . S
C1294 H1319 0.950 . S
C1295 C1294 1.349 . S
C1295 C1311 1.349 . S
C1296 C1294 1.327 . S
C1296 C1315 1.429 . S
C1296 H1320 0.950 . S
C1297 C1314 1.574 . S
C1297 C1316 1.368 . S
C1297 H1321 0.949 . S
H1298 C1302 0.949 . S
C1299 C1300 1.349 . S
C1299 C1301 1.327 . S
C1299 H1322 0.950 . S
C1300 C1299 1.349 . S
C1300 C1312 1.349 . S
C1301 C1299 1.327 . S
C1301 C1317 1.429 . S
C1301 H1323 0.950 . S
C1302 H1298 0.949 . S
C1302 C1310 1.574 . S
C1302 C1318 1.368 . S
H1303 C1311 0.950 . S
H1304 C1309 0.950 . S
H1305 C1310 0.949 . S
H1306 C1312 0.950 . S
H1307 C1313 0.950 . S
H1308 C1314 0.949 . S
C1309 H1304 0.950 . S
C1309 C1311 1.327 . S
C1309 C1315 1.429 . S
C1310 C1302 1.574 . S
C1310 H1305 0.949 . S
C1310 C1316 1.368 . S
C1311 C1295 1.349 . S
C1311 H1303 0.950 . S
C1311 C1309 1.327 . S
C1312 C1300 1.349 . S
C1312 H1306 0.950 . S
C1312 C1313 1.327 . S
C1313 H1307 0.950 . S
C1313 C1312 1.327 . S
C1313 C1317 1.429 . S
C1314 C1297 1.574 . S
C1314 H1308 0.949 . S
C1314 C1318 1.368 . S
C1315 C1296 1.429 . S
C1315 C1309 1.429 . S
C1315 C1316 1.523 . S
C1316 C1297 1.368 . S
C1316 C1310 1.368 . S
C1316 C1315 1.523 . S
C1317 C1301 1.429 . S
C1317 C1313 1.429 . S
C1317 C1318 1.523 . S
C1318 C1302 1.368 . S
C1318 C1314 1.368 . S
C1318 C1317 1.523 . S
H1319 C1294 0.950 . S
H1320 C1296 0.950 . S
H1321 C1297 0.949 . S
H1322 C1299 0.950 . S
H1323 C1301 0.950 . S
C1324 C1325 1.349 . S
C1324 C1326 1.327 . S
C1324 H1349 0.950 . S
C1325 C1324 1.349 . S
C1325 C1341 1.349 . S
C1326 C1324 1.327 . S
C1326 C1345 1.429 . S
C1326 H1350 0.950 . S
C1327 C1344 1.574 . S
C1327 C1346 1.368 . S
C1327 H1351 0.949 . S
H1328 C1332 0.949 . S
C1329 C1330 1.349 . S
C1329 C1331 1.327 . S
C1329 H1352 0.950 . S
C1330 C1329 1.349 . S
C1330 C1342 1.349 . S
C1331 C1329 1.327 . S
C1331 C1347 1.429 1_455 S
C1331 H1353 0.950 . S
C1332 H1328 0.949 . S
C1332 C1340 1.574 . S
C1332 C1348 1.368 . S
H1333 C1341 0.950 . S
H1334 C1339 0.950 . S
H1335 C1340 0.949 . S
H1336 C1342 0.950 . S
H1337 C1343 0.950 1_655 S
H1338 C1344 0.949 . S
C1339 H1334 0.950 . S
C1339 C1341 1.327 . S
C1339 C1345 1.429 . S
C1340 C1332 1.574 . S
C1340 H1335 0.949 . S
C1340 C1346 1.368 . S
C1341 C1325 1.349 . S
C1341 H1333 0.950 . S
C1341 C1339 1.327 . S
C1342 C1330 1.349 . S
C1342 H1336 0.950 . S
C1342 C1343 1.327 . S
C1343 H1337 0.950 1_455 S
C1343 C1342 1.327 . S
C1343 C1347 1.429 1_455 S
C1344 C1327 1.574 . S
C1344 H1338 0.949 . S
C1344 C1348 1.368 . S
C1345 C1326 1.429 . S
C1345 C1339 1.429 . S
C1345 C1346 1.523 . S
C1346 C1327 1.368 . S
C1346 C1340 1.368 . S
C1346 C1345 1.523 . S
C1347 C1331 1.429 1_655 S
C1347 C1343 1.429 1_655 S
C1347 C1348 1.523 . S
C1348 C1332 1.368 . S
C1348 C1344 1.368 . S
C1348 C1347 1.523 . S
H1349 C1324 0.950 . S
H1350 C1326 0.950 . S
H1351 C1327 0.949 . S
H1352 C1329 0.950 . S
H1353 C1331 0.950 . S
C1354 C1355 1.349 . S
C1354 C1356 1.327 . S
C1354 H1379 0.950 . S
C1355 C1354 1.349 . S
C1355 C1371 1.349 . S
C1356 C1354 1.327 . S
C1356 C1375 1.429 . S
C1356 H1380 0.950 . S
C1357 C1374 1.574 . S
C1357 C1376 1.368 . S
C1357 H1381 0.949 . S
H1358 C1362 0.949 . S
C1359 C1360 1.349 . S
C1359 C1361 1.327 . S
C1359 H1382 0.950 . S
C1360 C1359 1.349 . S
C1360 C1372 1.349 . S
C1361 C1359 1.327 . S
C1361 C1377 1.429 . S
C1361 H1383 0.950 . S
C1362 H1358 0.949 . S
C1362 C1370 1.574 . S
C1362 C1378 1.368 . S
H1363 C1371 0.950 . S
H1364 C1369 0.950 . S
H1365 C1370 0.949 . S
H1366 C1372 0.950 . S
H1367 C1373 0.950 . S
H1368 C1374 0.949 . S
C1369 H1364 0.950 . S
C1369 C1371 1.327 . S
C1369 C1375 1.429 . S
C1370 C1362 1.574 . S
C1370 H1365 0.949 . S
C1370 C1376 1.368 . S
C1371 C1355 1.349 . S
C1371 H1363 0.950 . S
C1371 C1369 1.327 . S
C1372 C1360 1.349 . S
C1372 H1366 0.950 . S
C1372 C1373 1.327 . S
C1373 H1367 0.950 . S
C1373 C1372 1.327 . S
C1373 C1377 1.429 . S
C1374 C1357 1.574 . S
C1374 H1368 0.949 . S
C1374 C1378 1.368 . S
C1375 C1356 1.429 . S
C1375 C1369 1.429 . S
C1375 C1376 1.523 . S
C1376 C1357 1.368 . S
C1376 C1370 1.368 . S
C1376 C1375 1.523 . S
C1377 C1361 1.429 . S
C1377 C1373 1.429 . S
C1377 C1378 1.523 . S
C1378 C1362 1.368 . S
C1378 C1374 1.368 . S
C1378 C1377 1.523 . S
H1379 C1354 0.950 . S
H1380 C1356 0.950 . S
H1381 C1357 0.949 . S
H1382 C1359 0.950 . S
H1383 C1361 0.950 . S
C1384 C1385 1.349 . S
C1384 C1386 1.327 . S
C1384 H1409 0.950 . S
C1385 C1384 1.349 . S
C1385 C1401 1.349 . S
C1386 C1384 1.327 . S
C1386 C1405 1.429 . S
C1386 H1410 0.950 . S
C1387 C1404 1.574 . S
C1387 C1406 1.368 . S
C1387 H1411 0.949 . S
H1388 C1392 0.949 . S
C1389 C1390 1.349 . S
C1389 C1391 1.327 . S
C1389 H1412 0.950 . S
C1390 C1389 1.349 . S
C1390 C1402 1.349 . S
C1391 C1389 1.327 . S
C1391 C1407 1.429 . S
C1391 H1413 0.950 . S
C1392 H1388 0.949 . S
C1392 C1400 1.574 . S
C1392 C1408 1.368 . S
H1393 C1401 0.950 . S
H1394 C1399 0.950 . S
H1395 C1400 0.949 . S
H1396 C1402 0.950 . S
H1397 C1403 0.950 . S
H1398 C1404 0.949 . S
C1399 H1394 0.950 . S
C1399 C1401 1.327 . S
C1399 C1405 1.429 . S
C1400 C1392 1.574 . S
C1400 H1395 0.949 . S
C1400 C1406 1.368 . S
C1401 C1385 1.349 . S
C1401 H1393 0.950 . S
C1401 C1399 1.327 . S
C1402 C1390 1.349 . S
C1402 H1396 0.950 . S
C1402 C1403 1.327 . S
C1403 H1397 0.950 . S
C1403 C1402 1.327 . S
C1403 C1407 1.429 . S
C1404 C1387 1.574 . S
C1404 H1398 0.949 . S
C1404 C1408 1.368 . S
C1405 C1386 1.429 . S
C1405 C1399 1.429 . S
C1405 C1406 1.523 . S
C1406 C1387 1.368 . S
C1406 C1400 1.368 . S
C1406 C1405 1.523 . S
C1407 C1391 1.429 . S
C1407 C1403 1.429 . S
C1407 C1408 1.523 . S
C1408 C1392 1.368 . S
C1408 C1404 1.368 . S
C1408 C1407 1.523 . S
H1409 C1384 0.950 . S
H1410 C1386 0.950 . S
H1411 C1387 0.949 . S
H1412 C1389 0.950 . S
H1413 C1391 0.950 . S
C1414 C1415 1.349 . S
C1414 C1416 1.327 . S
C1414 H1439 0.950 . S
C1415 C1414 1.349 . S
C1415 C1431 1.349 . S
C1416 C1414 1.327 . S
C1416 C1435 1.429 . S
C1416 H1440 0.950 . S
C1417 C1434 1.574 . S
C1417 C1436 1.368 . S
C1417 H1441 0.949 . S
H1418 C1422 0.949 . S
C1419 C1420 1.349 . S
C1419 C1421 1.327 . S
C1419 H1442 0.950 . S
C1420 C1419 1.349 . S
C1420 C1432 1.349 . S
C1421 C1419 1.327 . S
C1421 C1437 1.429 . S
C1421 H1443 0.950 . S
C1422 H1418 0.949 . S
C1422 C1430 1.574 . S
C1422 C1438 1.368 . S
H1423 C1431 0.950 . S
H1424 C1429 0.950 . S
H1425 C1430 0.949 . S
H1426 C1432 0.950 . S
H1427 C1433 0.950 . S
H1428 C1434 0.949 . S
C1429 H1424 0.950 . S
C1429 C1431 1.327 . S
C1429 C1435 1.429 . S
C1430 C1422 1.574 . S
C1430 H1425 0.949 . S
C1430 C1436 1.368 . S
C1431 C1415 1.349 . S
C1431 H1423 0.950 . S
C1431 C1429 1.327 . S
C1432 C1420 1.349 . S
C1432 H1426 0.950 . S
C1432 C1433 1.327 . S
C1433 H1427 0.950 . S
C1433 C1432 1.327 . S
C1433 C1437 1.429 . S
C1434 C1417 1.574 . S
C1434 H1428 0.949 . S
C1434 C1438 1.368 . S
C1435 C1416 1.429 . S
C1435 C1429 1.429 . S
C1435 C1436 1.523 . S
C1436 C1417 1.368 . S
C1436 C1430 1.368 . S
C1436 C1435 1.523 . S
C1437 C1421 1.429 . S
C1437 C1433 1.429 . S
C1437 C1438 1.523 . S
C1438 C1422 1.368 . S
C1438 C1434 1.368 . S
C1438 C1437 1.523 . S
H1439 C1414 0.950 . S
H1440 C1416 0.950 . S
H1441 C1417 0.949 . S
H1442 C1419 0.950 . S
H1443 C1421 0.950 . S
C1444 C1445 1.349 . S
C1444 C1446 1.327 . S
C1444 H1469 0.950 . S
C1445 C1444 1.349 . S
C1445 C1461 1.349 . S
C1446 C1444 1.327 . S
C1446 C1465 1.429 . S
C1446 H1470 0.950 . S
C1447 C1464 1.574 . S
C1447 C1466 1.368 . S
C1447 H1471 0.949 . S
H1448 C1452 0.949 . S
C1449 C1450 1.349 . S
C1449 C1451 1.327 . S
C1449 H1472 0.950 . S
C1450 C1449 1.349 . S
C1450 C1462 1.349 . S
C1451 C1449 1.327 . S
C1451 C1467 1.429 . S
C1451 H1473 0.950 . S
C1452 H1448 0.949 . S
C1452 C1460 1.574 . S
C1452 C1468 1.368 . S
H1453 C1461 0.950 . S
H1454 C1459 0.950 . S
H1455 C1460 0.949 . S
H1456 C1462 0.950 . S
H1457 C1463 0.950 . S
H1458 C1464 0.949 . S
C1459 H1454 0.950 . S
C1459 C1461 1.327 . S
C1459 C1465 1.429 . S
C1460 C1452 1.574 . S
C1460 H1455 0.949 . S
C1460 C1466 1.368 . S
C1461 C1445 1.349 . S
C1461 H1453 0.950 . S
C1461 C1459 1.327 . S
C1462 C1450 1.349 . S
C1462 H1456 0.950 . S
C1462 C1463 1.327 . S
C1463 H1457 0.950 . S
C1463 C1462 1.327 . S
C1463 C1467 1.429 . S
C1464 C1447 1.574 . S
C1464 H1458 0.949 . S
C1464 C1468 1.368 . S
C1465 C1446 1.429 . S
C1465 C1459 1.429 . S
C1465 C1466 1.523 . S
C1466 C1447 1.368 . S
C1466 C1460 1.368 . S
C1466 C1465 1.523 . S
C1467 C1451 1.429 . S
C1467 C1463 1.429 . S
C1467 C1468 1.523 . S
C1468 C1452 1.368 . S
C1468 C1464 1.368 . S
C1468 C1467 1.523 . S
H1469 C1444 0.950 . S
H1470 C1446 0.950 . S
H1471 C1447 0.949 . S
H1472 C1449 0.950 . S
H1473 C1451 0.950 . S
C1474 C1475 1.349 . S
C1474 C1476 1.327 . S
C1474 H1499 0.950 . S
C1475 C1474 1.349 . S
C1475 C1491 1.349 . S
C1476 C1474 1.327 . S
C1476 C1495 1.429 . S
C1476 H1500 0.950 . S
C1477 C1494 1.574 . S
C1477 C1496 1.368 . S
C1477 H1501 0.949 . S
H1478 C1482 0.949 . S
C1479 C1480 1.349 . S
C1479 C1481 1.327 1_556 S
C1479 H1502 0.950 . S
C1480 C1479 1.349 . S
C1480 C1492 1.349 . S
C1481 C1479 1.327 1_554 S
C1481 C1497 1.429 . S
C1481 H1503 0.950 . S
C1482 H1478 0.949 . S
C1482 C1490 1.574 . S
C1482 C1498 1.368 . S
H1483 C1491 0.950 . S
H1484 C1489 0.950 . S
H1485 C1490 0.949 . S
H1486 C1492 0.950 . S
H1487 C1493 0.950 . S
H1488 C1494 0.949 . S
C1489 H1484 0.950 . S
C1489 C1491 1.327 . S
C1489 C1495 1.429 . S
C1490 C1482 1.574 . S
C1490 H1485 0.949 . S
C1490 C1496 1.368 . S
C1491 C1475 1.349 . S
C1491 H1483 0.950 . S
C1491 C1489 1.327 . S
C1492 C1480 1.349 . S
C1492 H1486 0.950 . S
C1492 C1493 1.327 . S
C1493 H1487 0.950 . S
C1493 C1492 1.327 . S
C1493 C1497 1.429 1_556 S
C1494 C1477 1.574 . S
C1494 H1488 0.949 . S
C1494 C1498 1.368 . S
C1495 C1476 1.429 . S
C1495 C1489 1.429 . S
C1495 C1496 1.523 . S
C1496 C1477 1.368 . S
C1496 C1490 1.368 . S
C1496 C1495 1.523 . S
C1497 C1481 1.429 . S
C1497 C1493 1.429 1_554 S
C1497 C1498 1.523 . S
C1498 C1482 1.368 . S
C1498 C1494 1.368 . S
C1498 C1497 1.523 . S
H1499 C1474 0.950 . S
H1500 C1476 0.950 . S
H1501 C1477 0.949 . S
H1502 C1479 0.950 . S
H1503 C1481 0.950 . S
C1504 C1505 1.349 . S
C1504 C1506 1.327 . S
C1504 H1529 0.950 . S
C1505 C1504 1.349 . S
C1505 C1521 1.349 . S
C1506 C1504 1.327 . S
C1506 C1525 1.429 . S
C1506 H1530 0.950 . S
C1507 C1524 1.574 . S
C1507 C1526 1.368 . S
C1507 H1531 0.949 . S
H1508 C1512 0.949 . S
C1509 C1510 1.349 . S
C1509 C1511 1.327 . S
C1509 H1532 0.950 . S
C1510 C1509 1.349 . S
C1510 C1522 1.349 . S
C1511 C1509 1.327 . S
C1511 C1527 1.429 . S
C1511 H1533 0.950 . S
C1512 H1508 0.949 . S
C1512 C1520 1.574 . S
C1512 C1528 1.368 . S
H1513 C1521 0.950 . S
H1514 C1519 0.950 . S
H1515 C1520 0.949 . S
H1516 C1522 0.950 . S
H1517 C1523 0.950 . S
H1518 C1524 0.949 . S
C1519 H1514 0.950 . S
C1519 C1521 1.327 . S
C1519 C1525 1.429 . S
C1520 C1512 1.574 . S
C1520 H1515 0.949 . S
C1520 C1526 1.368 . S
C1521 C1505 1.349 . S
C1521 H1513 0.950 . S
C1521 C1519 1.327 . S
C1522 C1510 1.349 . S
C1522 H1516 0.950 . S
C1522 C1523 1.327 . S
C1523 H1517 0.950 . S
C1523 C1522 1.327 . S
C1523 C1527 1.429 . S
C1524 C1507 1.574 . S
C1524 H1518 0.949 . S
C1524 C1528 1.368 . S
C1525 C1506 1.429 . S
C1525 C1519 1.429 . S
C1525 C1526 1.523 . S
C1526 C1507 1.368 . S
C1526 C1520 1.368 . S
C1526 C1525 1.523 . S
C1527 C1511 1.429 . S
C1527 C1523 1.429 . S
C1527 C1528 1.523 . S
C1528 C1512 1.368 . S
C1528 C1524 1.368 . S
C1528 C1527 1.523 . S
H1529 C1504 0.950 . S
H1530 C1506 0.950 . S
H1531 C1507 0.949 . S
H1532 C1509 0.950 . S
H1533 C1511 0.950 . S
C1534 C1535 1.349 . S
C1534 C1536 1.327 . S
C1534 H1559 0.950 . S
C1535 C1534 1.349 . S
C1535 C1551 1.349 . S
C1536 C1534 1.327 . S
C1536 C1555 1.429 . S
C1536 H1560 0.950 . S
C1537 C1554 1.574 . S
C1537 C1556 1.368 . S
C1537 H1561 0.949 . S
H1538 C1542 0.949 . S
C1539 C1540 1.349 . S
C1539 C1541 1.327 . S
C1539 H1562 0.950 . S
C1540 C1539 1.349 . S
C1540 C1552 1.349 . S
C1541 C1539 1.327 . S
C1541 C1557 1.429 1_556 S
C1541 H1563 0.950 . S
C1542 H1538 0.949 . S
C1542 C1550 1.574 . S
C1542 C1558 1.368 . S
H1543 C1551 0.950 . S
H1544 C1549 0.950 . S
H1545 C1550 0.949 . S
H1546 C1552 0.950 . S
H1547 C1553 0.950 1_554 S
H1548 C1554 0.949 . S
C1549 H1544 0.950 . S
C1549 C1551 1.327 . S
C1549 C1555 1.429 . S
C1550 C1542 1.574 . S
C1550 H1545 0.949 . S
C1550 C1556 1.368 . S
C1551 C1535 1.349 . S
C1551 H1543 0.950 . S
C1551 C1549 1.327 . S
C1552 C1540 1.349 . S
C1552 H1546 0.950 . S
C1552 C1553 1.327 . S
C1553 H1547 0.950 1_556 S
C1553 C1552 1.327 . S
C1553 C1557 1.429 1_556 S
C1554 C1537 1.574 . S
C1554 H1548 0.949 . S
C1554 C1558 1.368 . S
C1555 C1536 1.429 . S
C1555 C1549 1.429 . S
C1555 C1556 1.523 . S
C1556 C1537 1.368 . S
C1556 C1550 1.368 . S
C1556 C1555 1.523 . S
C1557 C1541 1.429 1_554 S
C1557 C1553 1.429 1_554 S
C1557 C1558 1.523 . S
C1558 C1542 1.368 . S
C1558 C1554 1.368 . S
C1558 C1557 1.523 . S
H1559 C1534 0.950 . S
H1560 C1536 0.950 . S
H1561 C1537 0.949 . S
H1562 C1539 0.950 . S
H1563 C1541 0.950 . S
C1564 C1565 1.349 . S
C1564 C1566 1.327 . S
C1564 H1589 0.950 . S
C1565 C1564 1.349 . S
C1565 C1581 1.349 . S
C1566 C1564 1.327 . S
C1566 C1585 1.429 . S
C1566 H1590 0.950 . S
C1567 C1584 1.574 . S
C1567 C1586 1.368 . S
C1567 H1591 0.949 . S
H1568 C1572 0.949 . S
C1569 C1570 1.349 . S
C1569 C1571 1.327 . S
C1569 H1592 0.950 . S
C1570 C1569 1.349 . S
C1570 C1582 1.349 . S
C1571 C1569 1.327 . S
C1571 C1587 1.429 . S
C1571 H1593 0.950 . S
C1572 H1568 0.949 . S
C1572 C1580 1.574 . S
C1572 C1588 1.368 . S
H1573 C1581 0.950 . S
H1574 C1579 0.950 . S
H1575 C1580 0.949 . S
H1576 C1582 0.950 . S
H1577 C1583 0.950 . S
H1578 C1584 0.949 . S
C1579 H1574 0.950 . S
C1579 C1581 1.327 . S
C1579 C1585 1.429 . S
C1580 C1572 1.574 . S
C1580 H1575 0.949 . S
C1580 C1586 1.368 . S
C1581 C1565 1.349 . S
C1581 H1573 0.950 . S
C1581 C1579 1.327 . S
C1582 C1570 1.349 . S
C1582 H1576 0.950 . S
C1582 C1583 1.327 . S
C1583 H1577 0.950 . S
C1583 C1582 1.327 . S
C1583 C1587 1.429 . S
C1584 C1567 1.574 . S
C1584 H1578 0.949 . S
C1584 C1588 1.368 . S
C1585 C1566 1.429 . S
C1585 C1579 1.429 . S
C1585 C1586 1.523 . S
C1586 C1567 1.368 . S
C1586 C1580 1.368 . S
C1586 C1585 1.523 . S
C1587 C1571 1.429 . S
C1587 C1583 1.429 . S
C1587 C1588 1.523 . S
C1588 C1572 1.368 . S
C1588 C1584 1.368 . S
C1588 C1587 1.523 . S
H1589 C1564 0.950 . S
H1590 C1566 0.950 . S
H1591 C1567 0.949 . S
H1592 C1569 0.950 . S
H1593 C1571 0.950 . S
C1594 C1595 1.349 . S
C1594 C1596 1.327 . S
C1594 H1619 0.950 . S
C1595 C1594 1.349 . S
C1595 C1611 1.349 . S
C1596 C1594 1.327 . S
C1596 C1615 1.429 . S
C1596 H1620 0.950 . S
C1597 C1614 1.574 . S
C1597 C1616 1.368 . S
C1597 H1621 0.949 . S
H1598 C1602 0.949 . S
C1599 C1600 1.349 . S
C1599 C1601 1.327 . S
C1599 H1622 0.950 . S
C1600 C1599 1.349 . S
C1600 C1612 1.349 . S
C1601 C1599 1.327 . S
C1601 C1617 1.429 1_554 S
C1601 H1623 0.950 . S
C1602 H1598 0.949 . S
C1602 C1610 1.574 . S
C1602 C1618 1.368 . S
H1603 C1611 0.950 . S
H1604 C1609 0.950 . S
H1605 C1610 0.949 . S
H1606 C1612 0.950 . S
H1607 C1613 0.950 1_556 S
H1608 C1614 0.949 . S
C1609 H1604 0.950 . S
C1609 C1611 1.327 . S
C1609 C1615 1.429 . S
C1610 C1602 1.574 . S
C1610 H1605 0.949 . S
C1610 C1616 1.368 . S
C1611 C1595 1.349 . S
C1611 H1603 0.950 . S
C1611 C1609 1.327 . S
C1612 C1600 1.349 . S
C1612 H1606 0.950 . S
C1612 C1613 1.327 . S
C1613 H1607 0.950 1_554 S
C1613 C1612 1.327 . S
C1613 C1617 1.429 1_554 S
C1614 C1597 1.574 . S
C1614 H1608 0.949 . S
C1614 C1618 1.368 . S
C1615 C1596 1.429 . S
C1615 C1609 1.429 . S
C1615 C1616 1.523 . S
C1616 C1597 1.368 . S
C1616 C1610 1.368 . S
C1616 C1615 1.523 . S
C1617 C1601 1.429 1_556 S
C1617 C1613 1.429 1_556 S
C1617 C1618 1.523 . S
C1618 C1602 1.368 . S
C1618 C1614 1.368 . S
C1618 C1617 1.523 . S
H1619 C1594 0.950 . S
H1620 C1596 0.950 . S
H1621 C1597 0.949 . S
H1622 C1599 0.950 . S
H1623 C1601 0.950 . S
C1624 C1625 1.349 . S
C1624 C1626 1.327 . S
C1624 H1649 0.950 . S
C1625 C1624 1.349 . S
C1625 C1641 1.349 . S
C1626 C1624 1.327 . S
C1626 C1645 1.429 . S
C1626 H1650 0.950 . S
C1627 C1644 1.574 . S
C1627 C1646 1.368 . S
C1627 H1651 0.949 . S
H1628 C1632 0.949 . S
C1629 C1630 1.349 . S
C1629 C1631 1.327 . S
C1629 H1652 0.950 . S
C1630 C1629 1.349 . S
C1630 C1642 1.349 . S
C1631 C1629 1.327 . S
C1631 C1647 1.429 . S
C1631 H1653 0.950 . S
C1632 H1628 0.949 . S
C1632 C1640 1.574 . S
C1632 C1648 1.368 . S
H1633 C1641 0.950 . S
H1634 C1639 0.950 . S
H1635 C1640 0.949 . S
H1636 C1642 0.950 . S
H1637 C1643 0.950 . S
H1638 C1644 0.949 . S
C1639 H1634 0.950 . S
C1639 C1641 1.327 . S
C1639 C1645 1.429 . S
C1640 C1632 1.574 . S
C1640 H1635 0.949 . S
C1640 C1646 1.368 . S
C1641 C1625 1.349 . S
C1641 H1633 0.950 . S
C1641 C1639 1.327 . S
C1642 C1630 1.349 . S
C1642 H1636 0.950 . S
C1642 C1643 1.327 . S
C1643 H1637 0.950 . S
C1643 C1642 1.327 . S
C1643 C1647 1.429 . S
C1644 C1627 1.574 . S
C1644 H1638 0.949 . S
C1644 C1648 1.368 . S
C1645 C1626 1.429 . S
C1645 C1639 1.429 . S
C1645 C1646 1.523 . S
C1646 C1627 1.368 . S
C1646 C1640 1.368 . S
C1646 C1645 1.523 . S
C1647 C1631 1.429 . S
C1647 C1643 1.429 . S
C1647 C1648 1.523 . S
C1648 C1632 1.368 . S
C1648 C1644 1.368 . S
C1648 C1647 1.523 . S
H1649 C1624 0.950 . S
H1650 C1626 0.950 . S
H1651 C1627 0.949 . S
H1652 C1629 0.950 . S
H1653 C1631 0.950 . S
C1654 C1655 1.349 . S
C1654 C1656 1.327 . S
C1654 H1679 0.950 . S
C1655 C1654 1.349 . S
C1655 C1671 1.349 . S
C1656 C1654 1.327 . S
C1656 C1675 1.429 . S
C1656 H1680 0.950 . S
C1657 C1674 1.574 . S
C1657 C1676 1.368 . S
C1657 H1681 0.949 . S
H1658 C1662 0.949 . S
C1659 C1660 1.349 . S
C1659 C1661 1.307 1_554 S
C1659 H1682 0.950 . S
C1660 C1659 1.349 . S
C1660 C1672 1.349 . S
C1661 C1659 1.307 1_556 S
C1661 C1677 1.438 . S
C1661 H1683 0.961 . S
C1662 H1658 0.949 . S
C1662 C1670 1.574 . S
C1662 C1678 1.368 . S
H1663 C1671 0.950 . S
H1664 C1669 0.950 . S
H1665 C1670 0.949 . S
H1666 C1672 0.950 . S
H1667 C1673 0.950 1_556 S
H1668 C1674 0.949 . S
C1669 H1664 0.950 . S
C1669 C1671 1.327 . S
C1669 C1675 1.429 . S
C1670 C1662 1.574 . S
C1670 H1665 0.949 . S
C1670 C1676 1.368 . S
C1671 C1655 1.349 . S
C1671 H1663 0.950 . S
C1671 C1669 1.327 . S
C1672 C1660 1.349 . S
C1672 H1666 0.950 . S
C1672 C1673 1.327 . S
C1673 H1667 0.950 1_554 S
C1673 C1672 1.327 . S
C1673 C1677 1.429 1_554 S
C1674 C1657 1.574 . S
C1674 H1668 0.949 . S
C1674 C1678 1.368 . S
C1675 C1656 1.429 . S
C1675 C1669 1.429 . S
C1675 C1676 1.523 . S
C1676 C1657 1.368 . S
C1676 C1670 1.368 . S
C1676 C1675 1.523 . S
C1677 C1661 1.438 . S
C1677 C1673 1.429 1_556 S
C1677 C1678 1.523 . S
C1678 C1662 1.368 . S
C1678 C1674 1.368 . S
C1678 C1677 1.523 . S
H1679 C1654 0.950 . S
H1680 C1656 0.950 . S
H1681 C1657 0.949 . S
H1682 C1659 0.950 . S
H1683 C1661 0.961 . S
C1684 C1685 1.349 . S
C1684 C1686 1.327 . S
C1684 H1709 0.950 . S
C1685 C1684 1.349 . S
C1685 C1701 1.349 . S
C1686 C1684 1.327 . S
C1686 C1705 1.429 . S
C1686 H1710 0.950 . S
C1687 C1704 1.574 . S
C1687 C1706 1.368 . S
C1687 H1711 0.949 . S
H1688 C1692 0.949 . S
C1689 C1690 1.349 . S
C1689 C1691 1.327 . S
C1689 H1712 0.950 . S
C1690 C1689 1.349 . S
C1690 C1702 1.349 . S
C1691 C1689 1.327 . S
C1691 C1707 1.429 . S
C1691 H1713 0.950 . S
C1692 H1688 0.949 . S
C1692 C1700 1.574 . S
C1692 C1708 1.368 . S
H1693 C1701 0.950 . S
H1694 C1699 0.950 . S
H1695 C1700 0.949 . S
H1696 C1702 0.950 . S
H1697 C1703 0.950 . S
H1698 C1704 0.949 . S
C1699 H1694 0.950 . S
C1699 C1701 1.327 . S
C1699 C1705 1.429 . S
C1700 C1692 1.574 . S
C1700 H1695 0.949 . S
C1700 C1706 1.368 . S
C1701 C1685 1.349 . S
C1701 H1693 0.950 . S
C1701 C1699 1.327 . S
C1702 C1690 1.349 . S
C1702 H1696 0.950 . S
C1702 C1703 1.327 . S
C1703 H1697 0.950 . S
C1703 C1702 1.327 . S
C1703 C1707 1.429 . S
C1704 C1687 1.574 . S
C1704 H1698 0.949 . S
C1704 C1708 1.368 . S
C1705 C1686 1.429 . S
C1705 C1699 1.429 . S
C1705 C1706 1.523 . S
C1706 C1687 1.368 . S
C1706 C1700 1.368 . S
C1706 C1705 1.523 . S
C1707 C1691 1.429 . S
C1707 C1703 1.429 . S
C1707 C1708 1.523 . S
C1708 C1692 1.368 . S
C1708 C1704 1.368 . S
C1708 C1707 1.523 . S
H1709 C1684 0.950 . S
H1710 C1686 0.950 . S
H1711 C1687 0.949 . S
H1712 C1689 0.950 . S
H1713 C1691 0.950 . S
C1714 C1715 1.349 . S
C1714 C1716 1.327 . S
C1714 H1739 0.950 . S
C1715 C1714 1.349 . S
C1715 C1731 1.349 . S
C1716 C1714 1.327 . S
C1716 C1735 1.429 . S
C1716 H1740 0.950 . S
C1717 C1734 1.574 . S
C1717 C1736 1.368 . S
C1717 H1741 0.949 . S
H1718 C1722 0.949 . S
C1719 C1720 1.349 . S
C1719 C1721 1.327 . S
C1719 H1742 0.950 . S
C1720 C1719 1.349 . S
C1720 C1732 1.349 . S
C1721 C1719 1.327 . S
C1721 C1737 1.429 . S
C1721 H1743 0.950 . S
C1722 H1718 0.949 . S
C1722 C1730 1.574 . S
C1722 C1738 1.368 . S
H1723 C1731 0.950 . S
H1724 C1729 0.950 . S
H1725 C1730 0.949 . S
H1726 C1732 0.950 . S
H1727 C1733 0.950 . S
H1728 C1734 0.949 . S
C1729 H1724 0.950 . S
C1729 C1731 1.327 . S
C1729 C1735 1.429 . S
C1730 C1722 1.574 . S
C1730 H1725 0.949 . S
C1730 C1736 1.368 . S
C1731 C1715 1.349 . S
C1731 H1723 0.950 . S
C1731 C1729 1.327 . S
C1732 C1720 1.349 . S
C1732 H1726 0.950 . S
C1732 C1733 1.327 . S
C1733 H1727 0.950 . S
C1733 C1732 1.327 . S
C1733 C1737 1.429 . S
C1734 C1717 1.574 . S
C1734 H1728 0.949 . S
C1734 C1738 1.368 . S
C1735 C1716 1.429 . S
C1735 C1729 1.429 . S
C1735 C1736 1.523 . S
C1736 C1717 1.368 . S
C1736 C1730 1.368 . S
C1736 C1735 1.523 . S
C1737 C1721 1.429 . S
C1737 C1733 1.429 . S
C1737 C1738 1.523 . S
C1738 C1722 1.368 . S
C1738 C1734 1.368 . S
C1738 C1737 1.523 . S
H1739 C1714 0.950 . S
H1740 C1716 0.950 . S
H1741 C1717 0.949 . S
H1742 C1719 0.950 . S
H1743 C1721 0.950 . S
C1744 C1745 1.349 . S
C1744 C1746 1.327 . S
C1744 H1769 0.950 . S
C1745 C1744 1.349 . S
C1745 C1761 1.349 . S
C1746 C1744 1.327 . S
C1746 C1765 1.429 . S
C1746 H1770 0.950 . S
C1747 C1764 1.574 . S
C1747 C1766 1.368 . S
C1747 H1771 0.949 . S
H1748 C1752 0.949 . S
C1749 C1750 1.349 . S
C1749 C1751 1.327 . S
C1749 H1772 0.950 . S
C1750 C1749 1.349 . S
C1750 C1762 1.349 . S
C1751 C1749 1.327 . S
C1751 C1767 1.429 . S
C1751 H1773 0.950 . S
C1752 H1748 0.949 . S
C1752 C1760 1.574 . S
C1752 C1768 1.368 . S
H1753 C1761 0.950 . S
H1754 C1759 0.950 . S
H1755 C1760 0.949 . S
H1756 C1762 0.950 . S
H1757 C1763 0.950 . S
H1758 C1764 0.949 . S
C1759 H1754 0.950 . S
C1759 C1761 1.327 . S
C1759 C1765 1.429 . S
C1760 C1752 1.574 . S
C1760 H1755 0.949 . S
C1760 C1766 1.368 . S
C1761 C1745 1.349 . S
C1761 H1753 0.950 . S
C1761 C1759 1.327 . S
C1762 C1750 1.349 . S
C1762 H1756 0.950 . S
C1762 C1763 1.327 . S
C1763 H1757 0.950 . S
C1763 C1762 1.327 . S
C1763 C1767 1.429 . S
C1764 C1747 1.574 . S
C1764 H1758 0.949 . S
C1764 C1768 1.368 . S
C1765 C1746 1.429 . S
C1765 C1759 1.429 . S
C1765 C1766 1.523 . S
C1766 C1747 1.368 . S
C1766 C1760 1.368 . S
C1766 C1765 1.523 . S
C1767 C1751 1.429 . S
C1767 C1763 1.429 . S
C1767 C1768 1.523 . S
C1768 C1752 1.368 . S
C1768 C1764 1.368 . S
C1768 C1767 1.523 . S
H1769 C1744 0.950 . S
H1770 C1746 0.950 . S
H1771 C1747 0.949 . S
H1772 C1749 0.950 . S
H1773 C1751 0.950 . S
C1774 C1775 1.349 . S
C1774 C1776 1.327 . S
C1774 H1799 0.950 . S
C1775 C1774 1.349 . S
C1775 C1791 1.349 . S
C1776 C1774 1.327 . S
C1776 C1795 1.429 . S
C1776 H1800 0.950 . S
C1777 C1794 1.574 . S
C1777 C1796 1.368 . S
C1777 H1801 0.949 . S
H1778 C1782 0.949 . S
C1779 C1780 1.349 . S
C1779 C1781 1.327 1_545 S
C1779 H1802 0.950 . S
C1780 C1779 1.349 . S
C1780 C1792 1.349 . S
C1781 C1779 1.327 1_565 S
C1781 C1797 1.429 . S
C1781 H1803 0.950 . S
C1782 H1778 0.949 . S
C1782 C1790 1.574 . S
C1782 C1798 1.368 . S
H1783 C1791 0.950 . S
H1784 C1789 0.950 . S
H1785 C1790 0.949 . S
H1786 C1792 0.950 . S
H1787 C1793 0.950 . S
H1788 C1794 0.949 . S
C1789 H1784 0.950 . S
C1789 C1791 1.327 . S
C1789 C1795 1.429 . S
C1790 C1782 1.574 . S
C1790 H1785 0.949 . S
C1790 C1796 1.368 . S
C1791 C1775 1.349 . S
C1791 H1783 0.950 . S
C1791 C1789 1.327 . S
C1792 C1780 1.349 . S
C1792 H1786 0.950 . S
C1792 C1793 1.327 . S
C1793 H1787 0.950 . S
C1793 C1792 1.327 . S
C1793 C1797 1.429 1_545 S
C1794 C1777 1.574 . S
C1794 H1788 0.949 . S
C1794 C1798 1.368 . S
C1795 C1776 1.429 . S
C1795 C1789 1.429 . S
C1795 C1796 1.523 . S
C1796 C1777 1.368 . S
C1796 C1790 1.368 . S
C1796 C1795 1.523 . S
C1797 C1781 1.429 . S
C1797 C1793 1.429 1_565 S
C1797 C1798 1.523 . S
C1798 C1782 1.368 . S
C1798 C1794 1.368 . S
C1798 C1797 1.523 . S
H1799 C1774 0.950 . S
H1800 C1776 0.950 . S
H1801 C1777 0.949 . S
H1802 C1779 0.950 . S
H1803 C1781 0.950 . S
C1804 C1805 1.349 . S
C1804 C1806 1.327 . S
C1804 H1829 0.950 . S
C1805 C1804 1.349 . S
C1805 C1821 1.349 . S
C1806 C1804 1.327 . S
C1806 C1825 1.429 . S
C1806 H1830 0.950 . S
C1807 C1824 1.574 . S
C1807 C1826 1.368 . S
C1807 H1831 0.949 . S
H1808 C1812 0.949 . S
C1809 C1810 1.349 . S
C1809 C1811 1.327 . S
C1809 H1832 0.950 . S
C1810 C1809 1.349 . S
C1810 C1822 1.349 . S
C1811 C1809 1.327 . S
C1811 C1827 1.429 . S
C1811 H1833 0.950 . S
C1812 H1808 0.949 . S
C1812 C1820 1.574 . S
C1812 C1828 1.368 . S
H1813 C1821 0.950 . S
H1814 C1819 0.950 . S
H1815 C1820 0.949 . S
H1816 C1822 0.950 . S
H1817 C1823 0.950 . S
H1818 C1824 0.949 . S
C1819 H1814 0.950 . S
C1819 C1821 1.327 . S
C1819 C1825 1.429 . S
C1820 C1812 1.574 . S
C1820 H1815 0.949 . S
C1820 C1826 1.368 . S
C1821 C1805 1.349 . S
C1821 H1813 0.950 . S
C1821 C1819 1.327 . S
C1822 C1810 1.349 . S
C1822 H1816 0.950 . S
C1822 C1823 1.327 . S
C1823 H1817 0.950 . S
C1823 C1822 1.327 . S
C1823 C1827 1.429 . S
C1824 C1807 1.574 . S
C1824 H1818 0.949 . S
C1824 C1828 1.368 . S
C1825 C1806 1.429 . S
C1825 C1819 1.429 . S
C1825 C1826 1.523 . S
C1826 C1807 1.368 . S
C1826 C1820 1.368 . S
C1826 C1825 1.523 . S
C1827 C1811 1.429 . S
C1827 C1823 1.429 . S
C1827 C1828 1.523 . S
C1828 C1812 1.368 . S
C1828 C1824 1.368 . S
C1828 C1827 1.523 . S
H1829 C1804 0.950 . S
H1830 C1806 0.950 . S
H1831 C1807 0.949 . S
H1832 C1809 0.950 . S
H1833 C1811 0.950 . S
C1834 C1835 1.349 . S
C1834 C1836 1.327 . S
C1834 H1859 0.950 . S
C1835 C1834 1.349 . S
C1835 C1851 1.349 . S
C1836 C1834 1.327 . S
C1836 C1855 1.429 . S
C1836 H1860 0.950 . S
C1837 C1854 1.574 . S
C1837 C1856 1.368 . S
C1837 H1861 0.949 . S
H1838 C1842 0.949 . S
C1839 C1840 1.349 . S
C1839 C1841 1.327 . S
C1839 H1862 0.950 . S
C1840 C1839 1.349 . S
C1840 C1852 1.349 . S
C1841 C1839 1.327 . S
C1841 C1857 1.429 . S
C1841 H1863 0.950 . S
C1842 H1838 0.949 . S
C1842 C1850 1.574 . S
C1842 C1858 1.368 . S
H1843 C1851 0.950 . S
H1844 C1849 0.950 . S
H1845 C1850 0.949 . S
H1846 C1852 0.950 . S
H1847 C1853 0.950 . S
H1848 C1854 0.949 . S
C1849 H1844 0.950 . S
C1849 C1851 1.327 . S
C1849 C1855 1.429 . S
C1850 C1842 1.574 . S
C1850 H1845 0.949 . S
C1850 C1856 1.368 . S
C1851 C1835 1.349 . S
C1851 H1843 0.950 . S
C1851 C1849 1.327 . S
C1852 C1840 1.349 . S
C1852 H1846 0.950 . S
C1852 C1853 1.327 . S
C1853 H1847 0.950 . S
C1853 C1852 1.327 . S
C1853 C1857 1.429 . S
C1854 C1837 1.574 . S
C1854 H1848 0.949 . S
C1854 C1858 1.368 . S
C1855 C1836 1.429 . S
C1855 C1849 1.429 . S
C1855 C1856 1.523 . S
C1856 C1837 1.368 . S
C1856 C1850 1.368 . S
C1856 C1855 1.523 . S
C1857 C1841 1.429 . S
C1857 C1853 1.429 . S
C1857 C1858 1.523 . S
C1858 C1842 1.368 . S
C1858 C1854 1.368 . S
C1858 C1857 1.523 . S
H1859 C1834 0.950 . S
H1860 C1836 0.950 . S
H1861 C1837 0.949 . S
H1862 C1839 0.950 . S
H1863 C1841 0.950 . S
C1864 C1865 1.349 . S
C1864 C1866 1.327 . S
C1864 H1889 0.950 . S
C1865 C1864 1.349 . S
C1865 C1881 1.349 . S
C1866 C1864 1.327 . S
C1866 C1885 1.429 . S
C1866 H1890 0.950 . S
C1867 C1884 1.574 . S
C1867 C1886 1.368 . S
C1867 H1891 0.949 . S
H1868 C1872 0.949 . S
C1869 C1870 1.349 . S
C1869 C1871 1.327 . S
C1869 H1892 0.950 . S
C1870 C1869 1.349 . S
C1870 C1882 1.349 . S
C1871 C1869 1.327 . S
C1871 C1887 1.429 . S
C1871 H1893 0.950 . S
C1872 H1868 0.949 . S
C1872 C1880 1.574 . S
C1872 C1888 1.368 . S
H1873 C1881 0.950 . S
H1874 C1879 0.950 . S
H1875 C1880 0.949 . S
H1876 C1882 0.950 . S
H1877 C1883 0.950 . S
H1878 C1884 0.949 . S
C1879 H1874 0.950 . S
C1879 C1881 1.327 . S
C1879 C1885 1.429 . S
C1880 C1872 1.574 . S
C1880 H1875 0.949 . S
C1880 C1886 1.368 . S
C1881 C1865 1.349 . S
C1881 H1873 0.950 . S
C1881 C1879 1.327 . S
C1882 C1870 1.349 . S
C1882 H1876 0.950 . S
C1882 C1883 1.327 . S
C1883 H1877 0.950 . S
C1883 C1882 1.327 . S
C1883 C1887 1.429 . S
C1884 C1867 1.574 . S
C1884 H1878 0.949 . S
C1884 C1888 1.368 . S
C1885 C1866 1.429 . S
C1885 C1879 1.429 . S
C1885 C1886 1.523 . S
C1886 C1867 1.368 . S
C1886 C1880 1.368 . S
C1886 C1885 1.523 . S
C1887 C1871 1.429 . S
C1887 C1883 1.429 . S
C1887 C1888 1.523 . S
C1888 C1872 1.368 . S
C1888 C1884 1.368 . S
C1888 C1887 1.523 . S
H1889 C1864 0.950 . S
H1890 C1866 0.950 . S
H1891 C1867 0.949 . S
H1892 C1869 0.950 . S
H1893 C1871 0.950 . S
C1894 C1895 1.349 . S
C1894 C1896 1.327 . S
C1894 H1919 0.950 . S
C1895 C1894 1.349 . S
C1895 C1911 1.349 . S
C1896 C1894 1.327 . S
C1896 C1915 1.429 . S
C1896 H1920 0.950 . S
C1897 C1914 1.574 . S
C1897 C1916 1.368 . S
C1897 H1921 0.949 . S
H1898 C1902 0.949 . S
C1899 C1900 1.349 . S
C1899 C1901 1.327 . S
C1899 H1922 0.950 . S
C1900 C1899 1.349 . S
C1900 C1912 1.349 . S
C1901 C1899 1.327 . S
C1901 C1917 1.429 1_545 S
C1901 H1923 0.950 . S
C1902 H1898 0.949 . S
C1902 C1910 1.574 . S
C1902 C1918 1.368 . S
H1903 C1911 0.950 . S
H1904 C1909 0.950 . S
H1905 C1910 0.949 . S
H1906 C1912 0.950 . S
H1907 C1913 0.950 . S
H1908 C1914 0.949 . S
C1909 H1904 0.950 . S
C1909 C1911 1.327 . S
C1909 C1915 1.429 . S
C1910 C1902 1.574 . S
C1910 H1905 0.949 . S
C1910 C1916 1.368 . S
C1911 C1895 1.349 . S
C1911 H1903 0.950 . S
C1911 C1909 1.327 . S
C1912 C1900 1.349 . S
C1912 H1906 0.950 . S
C1912 C1913 1.327 1_545 S
C1913 H1907 0.950 . S
C1913 C1912 1.327 1_565 S
C1913 C1917 1.429 . S
C1914 C1897 1.574 . S
C1914 H1908 0.949 . S
C1914 C1918 1.368 . S
C1915 C1896 1.429 . S
C1915 C1909 1.429 . S
C1915 C1916 1.523 . S
C1916 C1897 1.368 . S
C1916 C1910 1.368 . S
C1916 C1915 1.523 . S
C1917 C1901 1.429 1_565 S
C1917 C1913 1.429 . S
C1917 C1918 1.523 . S
C1918 C1902 1.368 . S
C1918 C1914 1.368 . S
C1918 C1917 1.523 . S
H1919 C1894 0.950 . S
H1920 C1896 0.950 . S
H1921 C1897 0.949 . S
H1922 C1899 0.950 . S
H1923 C1901 0.950 . S
C1924 C1925 1.349 . S
C1924 C1926 1.327 . S
C1924 H1949 0.950 . S
C1925 C1924 1.349 . S
C1925 C1941 1.349 . S
C1926 C1924 1.327 . S
C1926 C1945 1.429 . S
C1926 H1950 0.950 . S
C1927 C1944 1.574 . S
C1927 C1946 1.368 . S
C1927 H1951 0.949 . S
H1928 C1932 0.949 . S
C1929 C1930 1.349 . S
C1929 C1931 1.327 . S
C1929 H1952 0.950 . S
C1930 C1929 1.349 . S
C1930 C1942 1.349 . S
C1931 C1929 1.327 . S
C1931 C1947 1.429 . S
C1931 H1953 0.950 . S
C1932 H1928 0.949 . S
C1932 C1940 1.574 . S
C1932 C1948 1.368 . S
H1933 C1941 0.950 . S
H1934 C1939 0.950 . S
H1935 C1940 0.949 . S
H1936 C1942 0.950 . S
H1937 C1943 0.950 . S
H1938 C1944 0.949 . S
C1939 H1934 0.950 . S
C1939 C1941 1.327 . S
C1939 C1945 1.429 . S
C1940 C1932 1.574 . S
C1940 H1935 0.949 . S
C1940 C1946 1.368 . S
C1941 C1925 1.349 . S
C1941 H1933 0.950 . S
C1941 C1939 1.327 . S
C1942 C1930 1.349 . S
C1942 H1936 0.950 . S
C1942 C1943 1.327 . S
C1943 H1937 0.950 . S
C1943 C1942 1.327 . S
C1943 C1947 1.429 . S
C1944 C1927 1.574 . S
C1944 H1938 0.949 . S
C1944 C1948 1.368 . S
C1945 C1926 1.429 . S
C1945 C1939 1.429 . S
C1945 C1946 1.523 . S
C1946 C1927 1.368 . S
C1946 C1940 1.368 . S
C1946 C1945 1.523 . S
C1947 C1931 1.429 . S
C1947 C1943 1.429 . S
C1947 C1948 1.523 . S
C1948 C1932 1.368 . S
C1948 C1944 1.368 . S
C1948 C1947 1.523 . S
H1949 C1924 0.950 . S
H1950 C1926 0.950 . S
H1951 C1927 0.949 . S
H1952 C1929 0.950 . S
H1953 C1931 0.950 . S
C1954 C1955 1.349 . S
C1954 C1956 1.327 . S
C1954 H1979 0.950 . S
C1955 C1954 1.349 . S
C1955 C1971 1.349 . S
C1956 C1954 1.327 . S
C1956 C1975 1.429 . S
C1956 H1980 0.950 . S
C1957 C1974 1.574 . S
C1957 C1976 1.368 . S
C1957 H1981 0.949 . S
H1958 C1962 0.949 . S
C1959 C1960 1.349 . S
C1959 C1961 1.327 . S
C1959 H1982 0.950 . S
C1960 C1959 1.349 . S
C1960 C1972 1.349 . S
C1961 C1959 1.327 . S
C1961 C1977 1.429 . S
C1961 H1983 0.950 . S
C1962 H1958 0.949 . S
C1962 C1970 1.574 . S
C1962 C1978 1.368 . S
H1963 C1971 0.950 . S
H1964 C1969 0.950 . S
H1965 C1970 0.949 . S
H1966 C1972 0.950 . S
H1967 C1973 0.950 . S
H1968 C1974 0.949 . S
C1969 H1964 0.950 . S
C1969 C1971 1.327 . S
C1969 C1975 1.429 . S
C1970 C1962 1.574 . S
C1970 H1965 0.949 . S
C1970 C1976 1.368 . S
C1971 C1955 1.349 . S
C1971 H1963 0.950 . S
C1971 C1969 1.327 . S
C1972 C1960 1.349 . S
C1972 H1966 0.950 . S
C1972 C1973 1.327 . S
C1973 H1967 0.950 . S
C1973 C1972 1.327 . S
C1973 C1977 1.429 . S
C1974 C1957 1.574 . S
C1974 H1968 0.949 . S
C1974 C1978 1.368 . S
C1975 C1956 1.429 . S
C1975 C1969 1.429 . S
C1975 C1976 1.523 . S
C1976 C1957 1.368 . S
C1976 C1970 1.368 . S
C1976 C1975 1.523 . S
C1977 C1961 1.429 . S
C1977 C1973 1.429 . S
C1977 C1978 1.523 . S
C1978 C1962 1.368 . S
C1978 C1974 1.368 . S
C1978 C1977 1.523 . S
H1979 C1954 0.950 . S
H1980 C1956 0.950 . S
H1981 C1957 0.949 . S
H1982 C1959 0.950 . S
H1983 C1961 0.950 . S
C1984 C1985 1.349 . S
C1984 C1986 1.327 . S
C1984 H2009 0.950 . S
C1985 C1984 1.349 . S
C1985 C2001 1.349 . S
C1986 C1984 1.327 . S
C1986 C2005 1.429 . S
C1986 H2010 0.950 . S
C1987 C2004 1.574 . S
C1987 C2006 1.368 . S
C1987 H2011 0.949 . S
H1988 C1992 0.949 . S
C1989 C1990 1.349 . S
C1989 C1991 1.327 . S
C1989 H2012 0.950 . S
C1990 C1989 1.349 . S
C1990 C2002 1.349 . S
C1991 C1989 1.327 . S
C1991 C2007 1.429 1_655 S
C1991 H2013 0.950 . S
C1992 H1988 0.949 . S
C1992 C2000 1.574 . S
C1992 C2008 1.368 . S
H1993 C2001 0.950 . S
H1994 C1999 0.950 . S
H1995 C2000 0.949 . S
H1996 C2002 0.950 . S
H1997 C2003 0.950 . S
H1998 C2004 0.949 . S
C1999 H1994 0.950 . S
C1999 C2001 1.327 . S
C1999 C2005 1.429 . S
C2000 C1992 1.574 . S
C2000 H1995 0.949 . S
C2000 C2006 1.368 . S
C2001 C1985 1.349 . S
C2001 H1993 0.950 . S
C2001 C1999 1.327 . S
C2002 C1990 1.349 . S
C2002 H1996 0.950 . S
C2002 C2003 1.327 1_655 S
C2003 H1997 0.950 . S
C2003 C2002 1.327 1_455 S
C2003 C2007 1.429 . S
C2004 C1987 1.574 . S
C2004 H1998 0.949 . S
C2004 C2008 1.368 . S
C2005 C1986 1.429 . S
C2005 C1999 1.429 . S
C2005 C2006 1.523 . S
C2006 C1987 1.368 . S
C2006 C2000 1.368 . S
C2006 C2005 1.523 . S
C2007 C1991 1.429 1_455 S
C2007 C2003 1.429 . S
C2007 C2008 1.523 . S
C2008 C1992 1.368 . S
C2008 C2004 1.368 . S
C2008 C2007 1.523 . S
H2009 C1984 0.950 . S
H2010 C1986 0.950 . S
H2011 C1987 0.949 . S
H2012 C1989 0.950 . S
H2013 C1991 0.950 . S
C2014 C2015 1.349 . S
C2014 C2016 1.327 . S
C2014 H2039 0.950 . S
C2015 C2014 1.349 . S
C2015 C2031 1.349 . S
C2016 C2014 1.327 . S
C2016 C2035 1.429 . S
C2016 H2040 0.950 . S
C2017 C2034 1.574 . S
C2017 C2036 1.368 . S
C2017 H2041 0.949 . S
H2018 C2022 0.949 . S
C2019 C2020 1.349 . S
C2019 C2021 1.327 . S
C2019 H2042 0.950 . S
C2020 C2019 1.349 . S
C2020 C2032 1.349 . S
C2021 C2019 1.327 . S
C2021 C2037 1.429 . S
C2021 H2043 0.950 . S
C2022 H2018 0.949 . S
C2022 C2030 1.574 . S
C2022 C2038 1.368 . S
H2023 C2031 0.950 . S
H2024 C2029 0.950 . S
H2025 C2030 0.949 . S
H2026 C2032 0.950 . S
H2027 C2033 0.950 . S
H2028 C2034 0.949 . S
C2029 H2024 0.950 . S
C2029 C2031 1.327 . S
C2029 C2035 1.429 . S
C2030 C2022 1.574 . S
C2030 H2025 0.949 . S
C2030 C2036 1.368 . S
C2031 C2015 1.349 . S
C2031 H2023 0.950 . S
C2031 C2029 1.327 . S
C2032 C2020 1.349 . S
C2032 H2026 0.950 . S
C2032 C2033 1.327 . S
C2033 H2027 0.950 . S
C2033 C2032 1.327 . S
C2033 C2037 1.429 . S
C2034 C2017 1.574 . S
C2034 H2028 0.949 . S
C2034 C2038 1.368 . S
C2035 C2016 1.429 . S
C2035 C2029 1.429 . S
C2035 C2036 1.523 . S
C2036 C2017 1.368 . S
C2036 C2030 1.368 . S
C2036 C2035 1.523 . S
C2037 C2021 1.429 . S
C2037 C2033 1.429 . S
C2037 C2038 1.523 . S
C2038 C2022 1.368 . S
C2038 C2034 1.368 . S
C2038 C2037 1.523 . S
H2039 C2014 0.950 . S
H2040 C2016 0.950 . S
H2041 C2017 0.949 . S
H2042 C2019 0.950 . S
H2043 C2021 0.950 . S
C2044 C2045 1.349 . S
C2044 C2046 1.327 . S
C2044 H2069 0.950 . S
C2045 C2044 1.349 . S
C2045 C2061 1.349 . S
C2046 C2044 1.327 . S
C2046 C2065 1.429 . S
C2046 H2070 0.950 . S
C2047 C2064 1.574 . S
C2047 C2066 1.368 . S
C2047 H2071 0.949 . S
H2048 C2052 0.949 . S
C2049 C2050 1.349 . S
C2049 C2051 1.327 . S
C2049 H2072 0.950 . S
C2050 C2049 1.349 . S
C2050 C2062 1.349 . S
C2051 C2049 1.327 . S
C2051 C2067 1.429 . S
C2051 H2073 0.950 . S
C2052 H2048 0.949 . S
C2052 C2060 1.574 . S
C2052 C2068 1.368 . S
H2053 C2061 0.950 . S
H2054 C2059 0.950 . S
H2055 C2060 0.949 . S
H2056 C2062 0.950 . S
H2057 C2063 0.950 . S
H2058 C2064 0.949 . S
C2059 H2054 0.950 . S
C2059 C2061 1.327 . S
C2059 C2065 1.429 . S
C2060 C2052 1.574 . S
C2060 H2055 0.949 . S
C2060 C2066 1.368 . S
C2061 C2045 1.349 . S
C2061 H2053 0.950 . S
C2061 C2059 1.327 . S
C2062 C2050 1.349 . S
C2062 H2056 0.950 . S
C2062 C2063 1.327 . S
C2063 H2057 0.950 . S
C2063 C2062 1.327 . S
C2063 C2067 1.429 . S
C2064 C2047 1.574 . S
C2064 H2058 0.949 . S
C2064 C2068 1.368 . S
C2065 C2046 1.429 . S
C2065 C2059 1.429 . S
C2065 C2066 1.523 . S
C2066 C2047 1.368 . S
C2066 C2060 1.368 . S
C2066 C2065 1.523 . S
C2067 C2051 1.429 . S
C2067 C2063 1.429 . S
C2067 C2068 1.523 . S
C2068 C2052 1.368 . S
C2068 C2064 1.368 . S
C2068 C2067 1.523 . S
H2069 C2044 0.950 . S
H2070 C2046 0.950 . S
H2071 C2047 0.949 . S
H2072 C2049 0.950 . S
H2073 C2051 0.950 . S
C2074 C2075 1.349 . S
C2074 C2076 1.327 . S
C2074 H2099 0.950 . S
C2075 C2074 1.349 . S
C2075 C2091 1.349 . S
C2076 C2074 1.327 . S
C2076 C2095 1.429 . S
C2076 H2100 0.950 . S
C2077 C2094 1.574 . S
C2077 C2096 1.368 . S
C2077 H2101 0.949 . S
H2078 C2082 0.949 . S
C2079 C2080 1.349 . S
C2079 C2081 1.327 . S
C2079 H2102 0.950 . S
C2080 C2079 1.349 . S
C2080 C2092 1.349 . S
C2081 C2079 1.327 . S
C2081 C2097 1.429 . S
C2081 H2103 0.950 . S
C2082 H2078 0.949 . S
C2082 C2090 1.574 . S
C2082 C2098 1.368 . S
H2083 C2091 0.950 . S
H2084 C2089 0.950 . S
H2085 C2090 0.949 . S
H2086 C2092 0.950 . S
H2087 C2093 0.950 . S
H2088 C2094 0.949 . S
C2089 H2084 0.950 . S
C2089 C2091 1.327 . S
C2089 C2095 1.429 . S
C2090 C2082 1.574 . S
C2090 H2085 0.949 . S
C2090 C2096 1.368 . S
C2091 C2075 1.349 . S
C2091 H2083 0.950 . S
C2091 C2089 1.327 . S
C2092 C2080 1.349 . S
C2092 H2086 0.950 . S
C2092 C2093 1.327 . S
C2093 H2087 0.950 . S
C2093 C2092 1.327 . S
C2093 C2097 1.429 . S
C2094 C2077 1.574 . S
C2094 H2088 0.949 . S
C2094 C2098 1.368 . S
C2095 C2076 1.429 . S
C2095 C2089 1.429 . S
C2095 C2096 1.523 . S
C2096 C2077 1.368 . S
C2096 C2090 1.368 . S
C2096 C2095 1.523 . S
C2097 C2081 1.429 . S
C2097 C2093 1.429 . S
C2097 C2098 1.523 . S
C2098 C2082 1.368 . S
C2098 C2094 1.368 . S
C2098 C2097 1.523 . S
H2099 C2074 0.950 . S
H2100 C2076 0.950 . S
H2101 C2077 0.949 . S
H2102 C2079 0.950 . S
H2103 C2081 0.950 . S
C2104 C2105 1.349 . S
C2104 C2106 1.327 . S
C2104 H2129 0.950 . S
C2105 C2104 1.349 . S
C2105 C2121 1.349 . S
C2106 C2104 1.327 . S
C2106 C2125 1.429 . S
C2106 H2130 0.950 . S
C2107 C2124 1.574 . S
C2107 C2126 1.368 . S
C2107 H2131 0.949 . S
H2108 C2112 0.949 . S
C2109 C2110 1.349 . S
C2109 C2111 1.327 . S
C2109 H2132 0.950 . S
C2110 C2109 1.349 . S
C2110 C2122 1.349 . S
C2111 C2109 1.327 . S
C2111 C2127 1.429 1_655 S
C2111 H2133 0.950 . S
C2112 H2108 0.949 . S
C2112 C2120 1.574 . S
C2112 C2128 1.368 . S
H2113 C2121 0.950 . S
H2114 C2119 0.950 . S
H2115 C2120 0.949 . S
H2116 C2122 0.950 . S
H2117 C2123 0.950 . S
H2118 C2124 0.949 . S
C2119 H2114 0.950 . S
C2119 C2121 1.327 . S
C2119 C2125 1.429 . S
C2120 C2112 1.574 . S
C2120 H2115 0.949 . S
C2120 C2126 1.368 . S
C2121 C2105 1.349 . S
C2121 H2113 0.950 . S
C2121 C2119 1.327 . S
C2122 C2110 1.349 . S
C2122 H2116 0.950 . S
C2122 C2123 1.327 1_655 S
C2123 H2117 0.950 . S
C2123 C2122 1.327 1_455 S
C2123 C2127 1.429 . S
C2124 C2107 1.574 . S
C2124 H2118 0.949 . S
C2124 C2128 1.368 . S
C2125 C2106 1.429 . S
C2125 C2119 1.429 . S
C2125 C2126 1.523 . S
C2126 C2107 1.368 . S
C2126 C2120 1.368 . S
C2126 C2125 1.523 . S
C2127 C2111 1.429 1_455 S
C2127 C2123 1.429 . S
C2127 C2128 1.523 . S
C2128 C2112 1.368 . S
C2128 C2124 1.368 . S
C2128 C2127 1.523 . S
H2129 C2104 0.950 . S
H2130 C2106 0.950 . S
H2131 C2107 0.949 . S
H2132 C2109 0.950 . S
H2133 C2111 0.950 . S
C2134 C2135 1.349 . S
C2134 C2136 1.327 . S
C2134 H2159 0.950 . S
C2135 C2134 1.349 . S
C2135 C2151 1.349 . S
C2136 C2134 1.327 . S
C2136 C2155 1.429 . S
C2136 H2160 0.950 . S
C2137 C2154 1.574 . S
C2137 C2156 1.368 . S
C2137 H2161 0.949 . S
H2138 C2142 0.949 . S
C2139 C2140 1.349 . S
C2139 C2141 1.327 . S
C2139 H2162 0.950 . S
C2140 C2139 1.349 . S
C2140 C2152 1.349 . S
C2141 C2139 1.327 . S
C2141 C2157 1.429 1_455 S
C2141 H2163 0.950 . S
C2142 H2138 0.949 . S
C2142 C2150 1.574 . S
C2142 C2158 1.368 . S
H2143 C2151 0.950 . S
H2144 C2149 0.950 . S
H2145 C2150 0.949 . S
H2146 C2152 0.950 . S
H2147 C2153 0.950 . S
H2148 C2154 0.949 . S
C2149 H2144 0.950 . S
C2149 C2151 1.327 . S
C2149 C2155 1.429 . S
C2150 C2142 1.574 . S
C2150 H2145 0.949 . S
C2150 C2156 1.368 . S
C2151 C2135 1.349 . S
C2151 H2143 0.950 . S
C2151 C2149 1.327 . S
C2152 C2140 1.349 . S
C2152 H2146 0.950 . S
C2152 C2153 1.327 1_455 S
C2153 H2147 0.950 . S
C2153 C2152 1.327 1_655 S
C2153 C2157 1.429 . S
C2154 C2137 1.574 . S
C2154 H2148 0.949 . S
C2154 C2158 1.368 . S
C2155 C2136 1.429 . S
C2155 C2149 1.429 . S
C2155 C2156 1.523 . S
C2156 C2137 1.368 . S
C2156 C2150 1.368 . S
C2156 C2155 1.523 . S
C2157 C2141 1.429 1_655 S
C2157 C2153 1.429 . S
C2157 C2158 1.523 . S
C2158 C2142 1.368 . S
C2158 C2154 1.368 . S
C2158 C2157 1.523 . S
H2159 C2134 0.950 . S
H2160 C2136 0.950 . S
H2161 C2137 0.949 . S
H2162 C2139 0.950 . S
H2163 C2141 0.950 . S
C2164 C2165 1.349 . S
C2164 C2166 1.327 . S
C2164 H2189 0.950 . S
C2165 C2164 1.349 . S
C2165 C2181 1.349 . S
C2166 C2164 1.327 . S
C2166 C2185 1.429 . S
C2166 H2190 0.950 . S
C2167 C2184 1.574 . S
C2167 C2186 1.368 . S
C2167 H2191 0.949 . S
H2168 C2172 0.949 . S
C2169 C2170 1.349 . S
C2169 C2171 1.327 . S
C2169 H2192 0.950 . S
C2170 C2169 1.349 . S
C2170 C2182 1.349 . S
C2171 C2169 1.327 . S
C2171 C2187 1.429 . S
C2171 H2193 0.950 . S
C2172 H2168 0.949 . S
C2172 C2180 1.574 . S
C2172 C2188 1.368 . S
H2173 C2181 0.950 . S
H2174 C2179 0.950 . S
H2175 C2180 0.949 . S
H2176 C2182 0.950 . S
H2177 C2183 0.950 . S
H2178 C2184 0.949 . S
C2179 H2174 0.950 . S
C2179 C2181 1.327 . S
C2179 C2185 1.429 . S
C2180 C2172 1.574 . S
C2180 H2175 0.949 . S
C2180 C2186 1.368 . S
C2181 C2165 1.349 . S
C2181 H2173 0.950 . S
C2181 C2179 1.327 . S
C2182 C2170 1.349 . S
C2182 H2176 0.950 . S
C2182 C2183 1.327 . S
C2183 H2177 0.950 . S
C2183 C2182 1.327 . S
C2183 C2187 1.429 . S
C2184 C2167 1.574 . S
C2184 H2178 0.949 . S
C2184 C2188 1.368 . S
C2185 C2166 1.429 . S
C2185 C2179 1.429 . S
C2185 C2186 1.523 . S
C2186 C2167 1.368 . S
C2186 C2180 1.368 . S
C2186 C2185 1.523 . S
C2187 C2171 1.429 . S
C2187 C2183 1.429 . S
C2187 C2188 1.523 . S
C2188 C2172 1.368 . S
C2188 C2184 1.368 . S
C2188 C2187 1.523 . S
H2189 C2164 0.950 . S
H2190 C2166 0.950 . S
H2191 C2167 0.949 . S
H2192 C2169 0.950 . S
H2193 C2171 0.950 . S
C2194 C2195 1.349 . S
C2194 C2196 1.327 . S
C2194 H2219 0.950 . S
C2195 C2194 1.349 . S
C2195 C2211 1.349 . S
C2196 C2194 1.327 . S
C2196 C2215 1.429 . S
C2196 H2220 0.950 . S
C2197 C2214 1.574 . S
C2197 C2216 1.368 . S
C2197 H2221 0.949 . S
H2198 C2202 0.949 . S
C2199 C2200 1.349 . S
C2199 C2201 1.327 . S
C2199 H2222 0.950 . S
C2200 C2199 1.349 . S
C2200 C2212 1.349 . S
C2201 C2199 1.327 . S
C2201 C2217 1.429 . S
C2201 H2223 0.950 . S
C2202 H2198 0.949 . S
C2202 C2210 1.574 . S
C2202 C2218 1.368 . S
H2203 C2211 0.950 . S
H2204 C2209 0.950 . S
H2205 C2210 0.949 . S
H2206 C2212 0.950 . S
H2207 C2213 0.950 . S
H2208 C2214 0.949 . S
C2209 H2204 0.950 . S
C2209 C2211 1.327 . S
C2209 C2215 1.429 . S
C2210 C2202 1.574 . S
C2210 H2205 0.949 . S
C2210 C2216 1.368 . S
C2211 C2195 1.349 . S
C2211 H2203 0.950 . S
C2211 C2209 1.327 . S
C2212 C2200 1.349 . S
C2212 H2206 0.950 . S
C2212 C2213 1.327 . S
C2213 H2207 0.950 . S
C2213 C2212 1.327 . S
C2213 C2217 1.429 . S
C2214 C2197 1.574 . S
C2214 H2208 0.949 . S
C2214 C2218 1.368 . S
C2215 C2196 1.429 . S
C2215 C2209 1.429 . S
C2215 C2216 1.523 . S
C2216 C2197 1.368 . S
C2216 C2210 1.368 . S
C2216 C2215 1.523 . S
C2217 C2201 1.429 . S
C2217 C2213 1.429 . S
C2217 C2218 1.523 . S
C2218 C2202 1.368 . S
C2218 C2214 1.368 . S
C2218 C2217 1.523 . S
H2219 C2194 0.950 . S
H2220 C2196 0.950 . S
H2221 C2197 0.949 . S
H2222 C2199 0.950 . S
H2223 C2201 0.950 . S
C2224 C2225 1.349 . S
C2224 C2226 1.327 . S
C2224 H2249 0.950 . S
C2225 C2224 1.349 . S
C2225 C2241 1.349 . S
C2226 C2224 1.327 . S
C2226 C2245 1.429 . S
C2226 H2250 0.950 . S
C2227 C2244 1.574 . S
C2227 C2246 1.368 . S
C2227 H2251 0.949 . S
H2228 C2232 0.949 . S
C2229 C2230 1.349 . S
C2229 C2231 1.327 . S
C2229 H2252 0.950 . S
C2230 C2229 1.349 . S
C2230 C2242 1.349 . S
C2231 C2229 1.327 . S
C2231 C2247 1.429 . S
C2231 H2253 0.950 . S
C2232 H2228 0.949 . S
C2232 C2240 1.574 . S
C2232 C2248 1.368 . S
H2233 C2241 0.950 . S
H2234 C2239 0.950 . S
H2235 C2240 0.949 . S
H2236 C2242 0.950 . S
H2237 C2243 0.950 . S
H2238 C2244 0.949 . S
C2239 H2234 0.950 . S
C2239 C2241 1.327 . S
C2239 C2245 1.429 . S
C2240 C2232 1.574 . S
C2240 H2235 0.949 . S
C2240 C2246 1.368 . S
C2241 C2225 1.349 . S
C2241 H2233 0.950 . S
C2241 C2239 1.327 . S
C2242 C2230 1.349 . S
C2242 H2236 0.950 . S
C2242 C2243 1.327 . S
C2243 H2237 0.950 . S
C2243 C2242 1.327 . S
C2243 C2247 1.429 . S
C2244 C2227 1.574 . S
C2244 H2238 0.949 . S
C2244 C2248 1.368 . S
C2245 C2226 1.429 . S
C2245 C2239 1.429 . S
C2245 C2246 1.523 . S
C2246 C2227 1.368 . S
C2246 C2240 1.368 . S
C2246 C2245 1.523 . S
C2247 C2231 1.429 . S
C2247 C2243 1.429 . S
C2247 C2248 1.523 . S
C2248 C2232 1.368 . S
C2248 C2244 1.368 . S
C2248 C2247 1.523 . S
H2249 C2224 0.950 . S
H2250 C2226 0.950 . S
H2251 C2227 0.949 . S
H2252 C2229 0.950 . S
H2253 C2231 0.950 . S
C2254 C2255 1.349 1_565 S
C2254 C2256 1.327 . S
C2254 H2279 0.950 1_565 S
C2255 C2254 1.349 1_545 S
C2255 C2271 1.349 1_545 S
C2256 C2254 1.327 . S
C2256 C2275 1.429 . S
C2256 H2280 0.950 . S
C2257 C2274 1.574 . S
C2257 C2276 1.368 . S
C2257 H2281 0.949 . S
H2258 C2262 0.949 . S
C2259 C2260 1.349 . S
C2259 C2261 1.327 . S
C2259 H2282 0.950 . S
C2260 C2259 1.349 . S
C2260 C2272 1.349 . S
C2261 C2259 1.327 . S
C2261 C2277 1.429 . S
C2261 H2283 0.950 . S
C2262 H2258 0.949 . S
C2262 C2270 1.574 . S
C2262 C2278 1.368 . S
H2263 C2271 0.950 . S
H2264 C2269 0.950 . S
H2265 C2270 0.949 . S
H2266 C2272 0.950 . S
H2267 C2273 0.950 . S
H2268 C2274 0.949 . S
C2269 H2264 0.950 . S
C2269 C2271 1.327 . S
C2269 C2275 1.429 . S
C2270 C2262 1.574 . S
C2270 H2265 0.949 . S
C2270 C2276 1.368 . S
C2271 C2255 1.349 1_565 S
C2271 H2263 0.950 . S
C2271 C2269 1.327 . S
C2272 C2260 1.349 . S
C2272 H2266 0.950 . S
C2272 C2273 1.327 . S
C2273 H2267 0.950 . S
C2273 C2272 1.327 . S
C2273 C2277 1.429 . S
C2274 C2257 1.574 . S
C2274 H2268 0.949 . S
C2274 C2278 1.368 . S
C2275 C2256 1.429 . S
C2275 C2269 1.429 . S
C2275 C2276 1.523 . S
C2276 C2257 1.368 . S
C2276 C2270 1.368 . S
C2276 C2275 1.523 . S
C2277 C2261 1.429 . S
C2277 C2273 1.429 . S
C2277 C2278 1.523 . S
C2278 C2262 1.368 . S
C2278 C2274 1.368 . S
C2278 C2277 1.523 . S
H2279 C2254 0.950 1_545 S
H2280 C2256 0.950 . S
H2281 C2257 0.949 . S
H2282 C2259 0.950 . S
H2283 C2261 0.950 . S
C2284 C2285 1.349 . S
C2284 C2286 1.327 . S
C2284 H2309 0.950 . S
C2285 C2284 1.349 . S
C2285 C2301 1.349 . S
C2286 C2284 1.327 . S
C2286 C2305 1.429 . S
C2286 H2310 0.950 . S
C2287 C2304 1.574 . S
C2287 C2306 1.368 . S
C2287 H2311 0.949 . S
H2288 C2292 0.949 . S
C2289 C2290 1.349 . S
C2289 C2291 1.327 . S
C2289 H2312 0.950 . S
C2290 C2289 1.349 . S
C2290 C2302 1.349 . S
C2291 C2289 1.327 . S
C2291 C2307 1.429 . S
C2291 H2313 0.950 . S
C2292 H2288 0.949 . S
C2292 C2300 1.574 . S
C2292 C2308 1.368 . S
H2293 C2301 0.950 . S
H2294 C2299 0.950 . S
H2295 C2300 0.949 . S
H2296 C2302 0.950 . S
H2297 C2303 0.950 . S
H2298 C2304 0.949 . S
C2299 H2294 0.950 . S
C2299 C2301 1.327 . S
C2299 C2305 1.429 . S
C2300 C2292 1.574 . S
C2300 H2295 0.949 . S
C2300 C2306 1.368 . S
C2301 C2285 1.349 . S
C2301 H2293 0.950 . S
C2301 C2299 1.327 . S
C2302 C2290 1.349 . S
C2302 H2296 0.950 . S
C2302 C2303 1.327 . S
C2303 H2297 0.950 . S
C2303 C2302 1.327 . S
C2303 C2307 1.429 . S
C2304 C2287 1.574 . S
C2304 H2298 0.949 . S
C2304 C2308 1.368 . S
C2305 C2286 1.429 . S
C2305 C2299 1.429 . S
C2305 C2306 1.523 . S
C2306 C2287 1.368 . S
C2306 C2300 1.368 . S
C2306 C2305 1.523 . S
C2307 C2291 1.429 . S
C2307 C2303 1.429 . S
C2307 C2308 1.523 . S
C2308 C2292 1.368 . S
C2308 C2304 1.368 . S
C2308 C2307 1.523 . S
H2309 C2284 0.950 . S
H2310 C2286 0.950 . S
H2311 C2287 0.949 . S
H2312 C2289 0.950 . S
H2313 C2291 0.950 . S
C2314 C2315 1.349 . S
C2314 C2316 1.327 . S
C2314 H2339 0.950 . S
C2315 C2314 1.349 . S
C2315 C2331 1.349 . S
C2316 C2314 1.327 . S
C2316 C2335 1.429 . S
C2316 H2340 0.950 . S
C2317 C2334 1.574 . S
C2317 C2336 1.368 . S
C2317 H2341 0.949 . S
H2318 C2322 0.949 . S
C2319 C2320 1.349 . S
C2319 C2321 1.327 . S
C2319 H2342 0.950 . S
C2320 C2319 1.349 . S
C2320 C2332 1.349 . S
C2321 C2319 1.327 . S
C2321 C2337 1.429 . S
C2321 H2343 0.950 . S
C2322 H2318 0.949 . S
C2322 C2330 1.574 . S
C2322 C2338 1.368 . S
H2323 C2331 0.950 . S
H2324 C2329 0.950 . S
H2325 C2330 0.949 . S
H2326 C2332 0.950 . S
H2327 C2333 0.950 . S
H2328 C2334 0.949 . S
C2329 H2324 0.950 . S
C2329 C2331 1.327 . S
C2329 C2335 1.429 . S
C2330 C2322 1.574 . S
C2330 H2325 0.949 . S
C2330 C2336 1.368 . S
C2331 C2315 1.349 . S
C2331 H2323 0.950 . S
C2331 C2329 1.327 . S
C2332 C2320 1.349 . S
C2332 H2326 0.950 . S
C2332 C2333 1.327 . S
C2333 H2327 0.950 . S
C2333 C2332 1.327 . S
C2333 C2337 1.429 . S
C2334 C2317 1.574 . S
C2334 H2328 0.949 . S
C2334 C2338 1.368 . S
C2335 C2316 1.429 . S
C2335 C2329 1.429 . S
C2335 C2336 1.523 . S
C2336 C2317 1.368 . S
C2336 C2330 1.368 . S
C2336 C2335 1.523 . S
C2337 C2321 1.429 . S
C2337 C2333 1.429 . S
C2337 C2338 1.523 . S
C2338 C2322 1.368 . S
C2338 C2334 1.368 . S
C2338 C2337 1.523 . S
H2339 C2314 0.950 . S
H2340 C2316 0.950 . S
H2341 C2317 0.949 . S
H2342 C2319 0.950 . S
H2343 C2321 0.950 . S
C2344 C2345 1.349 . S
C2344 C2346 1.327 . S
C2344 H2369 0.950 . S
C2345 C2344 1.349 . S
C2345 C2361 1.349 . S
C2346 C2344 1.327 . S
C2346 C2365 1.429 . S
C2346 H2370 0.950 . S
C2347 C2364 1.574 . S
C2347 C2366 1.368 . S
C2347 H2371 0.949 . S
H2348 C2352 0.949 . S
C2349 C2350 1.349 . S
C2349 C2351 1.327 . S
C2349 H2372 0.950 . S
C2350 C2349 1.349 . S
C2350 C2362 1.349 . S
C2351 C2349 1.327 . S
C2351 C2367 1.429 . S
C2351 H2373 0.950 . S
C2352 H2348 0.949 . S
C2352 C2360 1.574 . S
C2352 C2368 1.368 . S
H2353 C2361 0.950 . S
H2354 C2359 0.950 . S
H2355 C2360 0.949 . S
H2356 C2362 0.950 . S
H2357 C2363 0.950 . S
H2358 C2364 0.949 . S
C2359 H2354 0.950 . S
C2359 C2361 1.327 . S
C2359 C2365 1.429 . S
C2360 C2352 1.574 . S
C2360 H2355 0.949 . S
C2360 C2366 1.368 . S
C2361 C2345 1.349 . S
C2361 H2353 0.950 . S
C2361 C2359 1.327 . S
C2362 C2350 1.349 . S
C2362 H2356 0.950 . S
C2362 C2363 1.327 . S
C2363 H2357 0.950 . S
C2363 C2362 1.327 . S
C2363 C2367 1.429 . S
C2364 C2347 1.574 . S
C2364 H2358 0.949 . S
C2364 C2368 1.368 . S
C2365 C2346 1.429 . S
C2365 C2359 1.429 . S
C2365 C2366 1.523 . S
C2366 C2347 1.368 . S
C2366 C2360 1.368 . S
C2366 C2365 1.523 . S
C2367 C2351 1.429 . S
C2367 C2363 1.429 . S
C2367 C2368 1.523 . S
C2368 C2352 1.368 . S
C2368 C2364 1.368 . S
C2368 C2367 1.523 . S
H2369 C2344 0.950 . S
H2370 C2346 0.950 . S
H2371 C2347 0.949 . S
H2372 C2349 0.950 . S
H2373 C2351 0.950 . S
C2374 C2375 1.349 1_565 S
C2374 C2376 1.327 . S
C2374 H2399 0.964 . S
C2375 C2374 1.349 1_545 S
C2375 C2391 1.349 1_545 S
C2376 C2374 1.327 . S
C2376 C2395 1.429 . S
C2376 H2400 0.950 . S
C2377 C2394 1.574 . S
C2377 C2396 1.368 . S
C2377 H2401 0.949 . S
H2378 C2382 0.949 . S
C2379 C2380 1.349 . S
C2379 C2381 1.327 . S
C2379 H2402 0.950 . S
C2380 C2379 1.349 . S
C2380 C2392 1.349 . S
C2381 C2379 1.327 . S
C2381 C2397 1.429 . S
C2381 H2403 0.950 . S
C2382 H2378 0.949 . S
C2382 C2390 1.574 . S
C2382 C2398 1.368 . S
H2383 C2391 0.967 . S
H2384 C2389 0.950 . S
H2385 C2390 0.949 . S
H2386 C2392 0.950 . S
H2387 C2393 0.950 . S
H2388 C2394 0.949 . S
C2389 H2384 0.950 . S
C2389 C2391 1.327 . S
C2389 C2395 1.429 . S
C2390 C2382 1.574 . S
C2390 H2385 0.949 . S
C2390 C2396 1.368 . S
C2391 C2375 1.349 1_565 S
C2391 H2383 0.967 . S
C2391 C2389 1.327 . S
C2392 C2380 1.349 . S
C2392 H2386 0.950 . S
C2392 C2393 1.327 . S
C2393 H2387 0.950 . S
C2393 C2392 1.327 . S
C2393 C2397 1.429 . S
C2394 C2377 1.574 . S
C2394 H2388 0.949 . S
C2394 C2398 1.368 . S
C2395 C2376 1.429 . S
C2395 C2389 1.429 . S
C2395 C2396 1.523 . S
C2396 C2377 1.368 . S
C2396 C2390 1.368 . S
C2396 C2395 1.523 . S
C2397 C2381 1.429 . S
C2397 C2393 1.429 . S
C2397 C2398 1.523 . S
C2398 C2382 1.368 . S
C2398 C2394 1.368 . S
C2398 C2397 1.523 . S
H2399 C2374 0.964 . S
H2400 C2376 0.950 . S
H2401 C2377 0.949 . S
H2402 C2379 0.950 . S
H2403 C2381 0.950 . S
C2404 C2405 1.349 . S
C2404 C2406 1.327 . S
C2404 H2429 0.950 . S
C2405 C2404 1.349 . S
C2405 C2421 1.349 . S
C2406 C2404 1.327 . S
C2406 C2425 1.429 . S
C2406 H2430 0.950 . S
C2407 C2424 1.574 . S
C2407 C2426 1.368 . S
C2407 H2431 0.949 . S
H2408 C2412 0.949 . S
C2409 C2410 1.349 . S
C2409 C2411 1.327 . S
C2409 H2432 0.950 . S
C2410 C2409 1.349 . S
C2410 C2422 1.349 . S
C2411 C2409 1.327 . S
C2411 C2427 1.429 . S
C2411 H2433 0.950 . S
C2412 H2408 0.949 . S
C2412 C2420 1.574 . S
C2412 C2428 1.368 . S
H2413 C2421 0.950 . S
H2414 C2419 0.950 . S
H2415 C2420 0.949 . S
H2416 C2422 0.950 . S
H2417 C2423 0.950 . S
H2418 C2424 0.949 . S
C2419 H2414 0.950 . S
C2419 C2421 1.327 . S
C2419 C2425 1.429 . S
C2420 C2412 1.574 . S
C2420 H2415 0.949 . S
C2420 C2426 1.368 . S
C2421 C2405 1.349 . S
C2421 H2413 0.950 . S
C2421 C2419 1.327 . S
C2422 C2410 1.349 . S
C2422 H2416 0.950 . S
C2422 C2423 1.327 . S
C2423 H2417 0.950 . S
C2423 C2422 1.327 . S
C2423 C2427 1.429 . S
C2424 C2407 1.574 . S
C2424 H2418 0.949 . S
C2424 C2428 1.368 . S
C2425 C2406 1.429 . S
C2425 C2419 1.429 . S
C2425 C2426 1.523 . S
C2426 C2407 1.368 . S
C2426 C2420 1.368 . S
C2426 C2425 1.523 . S
C2427 C2411 1.429 . S
C2427 C2423 1.429 . S
C2427 C2428 1.523 . S
C2428 C2412 1.368 . S
C2428 C2424 1.368 . S
C2428 C2427 1.523 . S
H2429 C2404 0.950 . S
H2430 C2406 0.950 . S
H2431 C2407 0.949 . S
H2432 C2409 0.950 . S
H2433 C2411 0.950 . S
C2434 C2435 1.349 . S
C2434 C2436 1.327 . S
C2434 H2459 0.950 . S
C2435 C2434 1.349 . S
C2435 C2451 1.349 . S
C2436 C2434 1.327 . S
C2436 C2455 1.429 . S
C2436 H2460 0.950 . S
C2437 C2454 1.574 . S
C2437 C2456 1.368 . S
C2437 H2461 0.949 . S
H2438 C2442 0.949 . S
C2439 C2440 1.349 . S
C2439 C2441 1.327 . S
C2439 H2462 0.950 1_554 S
C2440 C2439 1.349 . S
C2440 C2452 1.349 . S
C2441 C2439 1.327 . S
C2441 C2457 1.429 . S
C2441 H2463 0.950 . S
C2442 H2438 0.949 . S
C2442 C2450 1.574 . S
C2442 C2458 1.368 . S
H2443 C2451 0.950 . S
H2444 C2449 0.950 . S
H2445 C2450 0.949 . S
H2446 C2452 0.950 . S
H2447 C2453 0.950 . S
H2448 C2454 0.949 . S
C2449 H2444 0.950 . S
C2449 C2451 1.327 . S
C2449 C2455 1.429 . S
C2450 C2442 1.574 . S
C2450 H2445 0.949 . S
C2450 C2456 1.368 . S
C2451 C2435 1.349 . S
C2451 H2443 0.950 . S
C2451 C2449 1.327 . S
C2452 C2440 1.349 . S
C2452 H2446 0.950 . S
C2452 C2453 1.327 . S
C2453 H2447 0.950 . S
C2453 C2452 1.327 . S
C2453 C2457 1.429 . S
C2454 C2437 1.574 . S
C2454 H2448 0.949 . S
C2454 C2458 1.368 . S
C2455 C2436 1.429 . S
C2455 C2449 1.429 . S
C2455 C2456 1.523 . S
C2456 C2437 1.368 . S
C2456 C2450 1.368 . S
C2456 C2455 1.523 . S
C2457 C2441 1.429 . S
C2457 C2453 1.429 . S
C2457 C2458 1.523 . S
C2458 C2442 1.368 . S
C2458 C2454 1.368 . S
C2458 C2457 1.523 . S
H2459 C2434 0.950 . S
H2460 C2436 0.950 . S
H2461 C2437 0.949 . S
H2462 C2439 0.950 1_556 S
H2463 C2441 0.950 . S
C2464 C2465 1.349 . S
C2464 C2466 1.327 . S
C2464 H2489 0.950 . S
C2465 C2464 1.349 . S
C2465 C2481 1.349 . S
C2466 C2464 1.327 . S
C2466 C2485 1.429 . S
C2466 H2490 0.950 . S
C2467 C2484 1.574 . S
C2467 C2486 1.368 . S
C2467 H2491 0.949 . S
H2468 C2472 0.949 . S
C2469 C2470 1.349 . S
C2469 C2471 1.327 . S
C2469 H2492 0.950 . S
C2470 C2469 1.349 . S
C2470 C2482 1.349 . S
C2471 C2469 1.327 . S
C2471 C2487 1.429 . S
C2471 H2493 0.950 . S
C2472 H2468 0.949 . S
C2472 C2480 1.574 . S
C2472 C2488 1.368 . S
H2473 C2481 0.950 . S
H2474 C2479 0.950 . S
H2475 C2480 0.949 . S
H2476 C2482 0.950 . S
H2477 C2483 0.950 . S
H2478 C2484 0.949 . S
C2479 H2474 0.950 . S
C2479 C2481 1.327 . S
C2479 C2485 1.429 . S
C2480 C2472 1.574 . S
C2480 H2475 0.949 . S
C2480 C2486 1.368 . S
C2481 C2465 1.349 . S
C2481 H2473 0.950 . S
C2481 C2479 1.327 . S
C2482 C2470 1.349 . S
C2482 H2476 0.950 . S
C2482 C2483 1.327 . S
C2483 H2477 0.950 . S
C2483 C2482 1.327 . S
C2483 C2487 1.429 . S
C2484 C2467 1.574 . S
C2484 H2478 0.949 . S
C2484 C2488 1.368 . S
C2485 C2466 1.429 . S
C2485 C2479 1.429 . S
C2485 C2486 1.523 . S
C2486 C2467 1.368 . S
C2486 C2480 1.368 . S
C2486 C2485 1.523 . S
C2487 C2471 1.429 . S
C2487 C2483 1.429 . S
C2487 C2488 1.523 . S
C2488 C2472 1.368 . S
C2488 C2484 1.368 . S
C2488 C2487 1.523 . S
H2489 C2464 0.950 . S
H2490 C2466 0.950 . S
H2491 C2467 0.949 . S
H2492 C2469 0.950 . S
H2493 C2471 0.950 . S
C2494 C2495 1.349 . S
C2494 C2496 1.327 . S
C2494 H2519 0.950 . S
C2495 C2494 1.349 . S
C2495 C2511 1.349 . S
C2496 C2494 1.327 . S
C2496 C2515 1.429 . S
C2496 H2520 0.950 . S
C2497 C2514 1.574 . S
C2497 C2516 1.368 . S
C2497 H2521 0.949 . S
H2498 C2502 0.949 . S
C2499 C2500 1.349 . S
C2499 C2501 1.327 . S
C2499 H2522 0.950 . S
C2500 C2499 1.349 . S
C2500 C2512 1.349 . S
C2501 C2499 1.327 . S
C2501 C2517 1.429 . S
C2501 H2523 0.950 . S
C2502 H2498 0.949 . S
C2502 C2510 1.574 . S
C2502 C2518 1.368 . S
H2503 C2511 0.950 . S
H2504 C2509 0.950 . S
H2505 C2510 0.949 . S
H2506 C2512 0.950 1_556 S
H2507 C2513 0.950 . S
H2508 C2514 0.949 . S
C2509 H2504 0.950 . S
C2509 C2511 1.327 . S
C2509 C2515 1.429 . S
C2510 C2502 1.574 . S
C2510 H2505 0.949 . S
C2510 C2516 1.368 . S
C2511 C2495 1.349 . S
C2511 H2503 0.950 . S
C2511 C2509 1.327 . S
C2512 C2500 1.349 . S
C2512 H2506 0.950 1_554 S
C2512 C2513 1.327 . S
C2513 H2507 0.950 . S
C2513 C2512 1.327 . S
C2513 C2517 1.429 . S
C2514 C2497 1.574 . S
C2514 H2508 0.949 . S
C2514 C2518 1.368 . S
C2515 C2496 1.429 . S
C2515 C2509 1.429 . S
C2515 C2516 1.523 . S
C2516 C2497 1.368 . S
C2516 C2510 1.368 . S
C2516 C2515 1.523 . S
C2517 C2501 1.429 . S
C2517 C2513 1.429 . S
C2517 C2518 1.523 . S
C2518 C2502 1.368 . S
C2518 C2514 1.368 . S
C2518 C2517 1.523 . S
H2519 C2494 0.950 . S
H2520 C2496 0.950 . S
H2521 C2497 0.949 . S
H2522 C2499 0.950 . S
H2523 C2501 0.950 . S
C2524 C2525 1.349 . S
C2524 C2526 1.327 . S
C2524 H2549 0.950 . S
C2525 C2524 1.349 . S
C2525 C2541 1.349 . S
C2526 C2524 1.327 . S
C2526 C2545 1.429 . S
C2526 H2550 0.950 . S
C2527 C2544 1.574 . S
C2527 C2546 1.368 . S
C2527 H2551 0.949 . S
H2528 C2532 0.949 . S
C2529 C2530 1.349 . S
C2529 C2531 1.327 . S
C2529 H2552 0.950 . S
C2530 C2529 1.349 . S
C2530 C2542 1.349 . S
C2531 C2529 1.327 . S
C2531 C2547 1.429 . S
C2531 H2553 0.950 . S
C2532 H2528 0.949 . S
C2532 C2540 1.574 . S
C2532 C2548 1.368 . S
H2533 C2541 0.950 . S
H2534 C2539 0.950 . S
H2535 C2540 0.949 . S
H2536 C2542 0.950 . S
H2537 C2543 0.950 . S
H2538 C2544 0.949 . S
C2539 H2534 0.950 . S
C2539 C2541 1.327 . S
C2539 C2545 1.429 . S
C2540 C2532 1.574 . S
C2540 H2535 0.949 . S
C2540 C2546 1.368 . S
C2541 C2525 1.349 . S
C2541 H2533 0.950 . S
C2541 C2539 1.327 . S
C2542 C2530 1.349 . S
C2542 H2536 0.950 . S
C2542 C2543 1.327 . S
C2543 H2537 0.950 . S
C2543 C2542 1.327 . S
C2543 C2547 1.429 . S
C2544 C2527 1.574 . S
C2544 H2538 0.949 . S
C2544 C2548 1.368 . S
C2545 C2526 1.429 . S
C2545 C2539 1.429 . S
C2545 C2546 1.523 . S
C2546 C2527 1.368 . S
C2546 C2540 1.368 . S
C2546 C2545 1.523 . S
C2547 C2531 1.429 . S
C2547 C2543 1.429 . S
C2547 C2548 1.523 . S
C2548 C2532 1.368 . S
C2548 C2544 1.368 . S
C2548 C2547 1.523 . S
H2549 C2524 0.950 . S
H2550 C2526 0.950 . S
H2551 C2527 0.949 . S
H2552 C2529 0.950 . S
H2553 C2531 0.950 . S
C2554 C2555 1.349 1_455 S
C2554 C2556 1.327 . S
C2554 H2579 0.950 . S
C2555 C2554 1.349 1_655 S
C2555 C2571 1.349 1_655 S
C2556 C2554 1.327 . S
C2556 C2575 1.429 . S
C2556 H2580 0.950 . S
C2557 C2574 1.574 . S
C2557 C2576 1.368 . S
C2557 H2581 0.949 . S
H2558 C2562 0.949 . S
C2559 C2560 1.349 . S
C2559 C2561 1.327 . S
C2559 H2582 0.950 1_556 S
C2560 C2559 1.349 . S
C2560 C2572 1.349 . S
C2561 C2559 1.327 . S
C2561 C2577 1.429 . S
C2561 H2583 0.950 . S
C2562 H2558 0.949 . S
C2562 C2570 1.574 . S
C2562 C2578 1.368 . S
H2563 C2571 0.950 1_655 S
H2564 C2569 0.950 . S
H2565 C2570 0.949 . S
H2566 C2572 0.950 . S
H2567 C2573 0.950 . S
H2568 C2574 0.949 . S
C2569 H2564 0.950 . S
C2569 C2571 1.327 . S
C2569 C2575 1.429 . S
C2570 C2562 1.574 . S
C2570 H2565 0.949 . S
C2570 C2576 1.368 . S
C2571 C2555 1.349 1_455 S
C2571 H2563 0.950 1_455 S
C2571 C2569 1.327 . S
C2572 C2560 1.349 . S
C2572 H2566 0.950 . S
C2572 C2573 1.327 . S
C2573 H2567 0.950 . S
C2573 C2572 1.327 . S
C2573 C2577 1.429 . S
C2574 C2557 1.574 . S
C2574 H2568 0.949 . S
C2574 C2578 1.368 . S
C2575 C2556 1.429 . S
C2575 C2569 1.429 . S
C2575 C2576 1.523 . S
C2576 C2557 1.368 . S
C2576 C2570 1.368 . S
C2576 C2575 1.523 . S
C2577 C2561 1.429 . S
C2577 C2573 1.429 . S
C2577 C2578 1.523 . S
C2578 C2562 1.368 . S
C2578 C2574 1.368 . S
C2578 C2577 1.523 . S
H2579 C2554 0.950 . S
H2580 C2556 0.950 . S
H2581 C2557 0.949 . S
H2582 C2559 0.950 1_554 S
H2583 C2561 0.950 . S
C2584 C2585 1.349 . S
C2584 C2586 1.327 . S
C2584 H2609 0.950 . S
C2585 C2584 1.349 . S
C2585 C2601 1.349 . S
C2586 C2584 1.327 . S
C2586 C2605 1.429 . S
C2586 H2610 0.950 . S
C2587 C2604 1.574 . S
C2587 C2606 1.368 . S
C2587 H2611 0.949 . S
H2588 C2592 0.949 . S
C2589 C2590 1.349 . S
C2589 C2591 1.327 . S
C2589 H2612 0.950 . S
C2590 C2589 1.349 . S
C2590 C2602 1.349 . S
C2591 C2589 1.327 . S
C2591 C2607 1.429 . S
C2591 H2613 0.950 . S
C2592 H2588 0.949 . S
C2592 C2600 1.574 . S
C2592 C2608 1.368 . S
H2593 C2601 0.950 . S
H2594 C2599 0.950 . S
H2595 C2600 0.949 . S
H2596 C2602 0.950 . S
H2597 C2603 0.950 . S
H2598 C2604 0.949 . S
C2599 H2594 0.950 . S
C2599 C2601 1.327 . S
C2599 C2605 1.429 . S
C2600 C2592 1.574 . S
C2600 H2595 0.949 . S
C2600 C2606 1.368 . S
C2601 C2585 1.349 . S
C2601 H2593 0.950 . S
C2601 C2599 1.327 . S
C2602 C2590 1.349 . S
C2602 H2596 0.950 . S
C2602 C2603 1.327 . S
C2603 H2597 0.950 . S
C2603 C2602 1.327 . S
C2603 C2607 1.429 . S
C2604 C2587 1.574 . S
C2604 H2598 0.949 . S
C2604 C2608 1.368 . S
C2605 C2586 1.429 . S
C2605 C2599 1.429 . S
C2605 C2606 1.523 . S
C2606 C2587 1.368 . S
C2606 C2600 1.368 . S
C2606 C2605 1.523 . S
C2607 C2591 1.429 . S
C2607 C2603 1.429 . S
C2607 C2608 1.523 . S
C2608 C2592 1.368 . S
C2608 C2604 1.368 . S
C2608 C2607 1.523 . S
H2609 C2584 0.950 . S
H2610 C2586 0.950 . S
H2611 C2587 0.949 . S
H2612 C2589 0.950 . S
H2613 C2591 0.950 . S
C2614 C2615 1.349 1_655 S
C2614 C2616 1.327 . S
C2614 H2639 0.950 1_655 S
C2615 C2614 1.349 1_455 S
C2615 C2631 1.349 1_455 S
C2616 C2614 1.327 . S
C2616 C2635 1.429 . S
C2616 H2640 0.950 . S
C2617 C2634 1.574 . S
C2617 C2636 1.368 . S
C2617 H2641 0.949 . S
H2618 C2622 0.949 . S
C2619 C2620 1.349 . S
C2619 C2621 1.327 . S
C2619 H2642 0.950 . S
C2620 C2619 1.349 . S
C2620 C2632 1.349 . S
C2621 C2619 1.327 . S
C2621 C2637 1.429 . S
C2621 H2643 0.950 . S
C2622 H2618 0.949 . S
C2622 C2630 1.574 . S
C2622 C2638 1.368 . S
H2623 C2631 0.950 . S
H2624 C2629 0.950 . S
H2625 C2630 0.949 . S
H2626 C2632 0.950 1_554 S
H2627 C2633 0.950 . S
H2628 C2634 0.949 . S
C2629 H2624 0.950 . S
C2629 C2631 1.327 . S
C2629 C2635 1.429 . S
C2630 C2622 1.574 . S
C2630 H2625 0.949 . S
C2630 C2636 1.368 . S
C2631 C2615 1.349 1_655 S
C2631 H2623 0.950 . S
C2631 C2629 1.327 . S
C2632 C2620 1.349 . S
C2632 H2626 0.950 1_556 S
C2632 C2633 1.327 . S
C2633 H2627 0.950 . S
C2633 C2632 1.327 . S
C2633 C2637 1.429 . S
C2634 C2617 1.574 . S
C2634 H2628 0.949 . S
C2634 C2638 1.368 . S
C2635 C2616 1.429 . S
C2635 C2629 1.429 . S
C2635 C2636 1.523 . S
C2636 C2617 1.368 . S
C2636 C2630 1.368 . S
C2636 C2635 1.523 . S
C2637 C2621 1.429 . S
C2637 C2633 1.429 . S
C2637 C2638 1.523 . S
C2638 C2622 1.368 . S
C2638 C2634 1.368 . S
C2638 C2637 1.523 . S
H2639 C2614 0.950 1_455 S
H2640 C2616 0.950 . S
H2641 C2617 0.949 . S
H2642 C2619 0.950 . S
H2643 C2621 0.950 . S
C2644 C2645 1.349 . S
C2644 C2646 1.327 . S
C2644 H2669 0.950 . S
C2645 C2644 1.349 . S
C2645 C2661 1.349 . S
C2646 C2644 1.327 . S
C2646 C2665 1.429 . S
C2646 H2670 0.950 . S
C2647 C2664 1.574 . S
C2647 C2666 1.368 . S
C2647 H2671 0.949 . S
H2648 C2652 0.949 . S
C2649 C2650 1.349 . S
C2649 C2651 1.327 . S
C2649 H2672 0.950 . S
C2650 C2649 1.349 . S
C2650 C2662 1.349 . S
C2651 C2649 1.327 . S
C2651 C2667 1.429 . S
C2651 H2673 0.950 . S
C2652 H2648 0.949 . S
C2652 C2660 1.574 . S
C2652 C2668 1.368 . S
H2653 C2661 0.950 . S
H2654 C2659 0.950 . S
H2655 C2660 0.949 . S
H2656 C2662 0.950 . S
H2657 C2663 0.950 . S
H2658 C2664 0.949 . S
C2659 H2654 0.950 . S
C2659 C2661 1.327 . S
C2659 C2665 1.429 . S
C2660 C2652 1.574 . S
C2660 H2655 0.949 . S
C2660 C2666 1.368 . S
C2661 C2645 1.349 . S
C2661 H2653 0.950 . S
C2661 C2659 1.327 . S
C2662 C2650 1.349 . S
C2662 H2656 0.950 . S
C2662 C2663 1.327 . S
C2663 H2657 0.950 . S
C2663 C2662 1.327 . S
C2663 C2667 1.429 . S
C2664 C2647 1.574 . S
C2664 H2658 0.949 . S
C2664 C2668 1.368 . S
C2665 C2646 1.429 . S
C2665 C2659 1.429 . S
C2665 C2666 1.523 . S
C2666 C2647 1.368 . S
C2666 C2660 1.368 . S
C2666 C2665 1.523 . S
C2667 C2651 1.429 . S
C2667 C2663 1.429 . S
C2667 C2668 1.523 . S
C2668 C2652 1.368 . S
C2668 C2664 1.368 . S
C2668 C2667 1.523 . S
H2669 C2644 0.950 . S
H2670 C2646 0.950 . S
H2671 C2647 0.949 . S
H2672 C2649 0.950 . S
H2673 C2651 0.950 . S
C2674 C2675 1.349 . S
C2674 C2676 1.327 . S
C2674 H2699 0.950 . S
C2675 C2674 1.349 . S
C2675 C2691 1.349 . S
C2676 C2674 1.327 . S
C2676 C2695 1.429 . S
C2676 H2700 0.950 . S
C2677 C2694 1.574 . S
C2677 C2696 1.368 . S
C2677 H2701 0.949 . S
H2678 C2682 0.949 . S
C2679 C2680 1.349 . S
C2679 C2681 1.327 . S
C2679 H2702 0.950 . S
C2680 C2679 1.349 . S
C2680 C2692 1.349 . S
C2681 C2679 1.327 . S
C2681 C2697 1.429 . S
C2681 H2703 0.950 . S
C2682 H2678 0.949 . S
C2682 C2690 1.574 . S
C2682 C2698 1.368 . S
H2683 C2691 0.950 . S
H2684 C2689 0.950 . S
H2685 C2690 0.949 . S
H2686 C2692 0.950 . S
H2687 C2693 0.950 . S
H2688 C2694 0.949 . S
C2689 H2684 0.950 . S
C2689 C2691 1.327 . S
C2689 C2695 1.429 . S
C2690 C2682 1.574 . S
C2690 H2685 0.949 . S
C2690 C2696 1.368 . S
C2691 C2675 1.349 . S
C2691 H2683 0.950 . S
C2691 C2689 1.327 . S
C2692 C2680 1.349 . S
C2692 H2686 0.950 . S
C2692 C2693 1.327 . S
C2693 H2687 0.950 . S
C2693 C2692 1.327 . S
C2693 C2697 1.429 . S
C2694 C2677 1.574 . S
C2694 H2688 0.949 . S
C2694 C2698 1.368 . S
C2695 C2676 1.429 . S
C2695 C2689 1.429 . S
C2695 C2696 1.523 . S
C2696 C2677 1.368 . S
C2696 C2690 1.368 . S
C2696 C2695 1.523 . S
C2697 C2681 1.429 . S
C2697 C2693 1.429 . S
C2697 C2698 1.523 . S
C2698 C2682 1.368 . S
C2698 C2694 1.368 . S
C2698 C2697 1.523 . S
H2699 C2674 0.950 . S
H2700 C2676 0.950 . S
H2701 C2677 0.949 . S
H2702 C2679 0.950 . S
H2703 C2681 0.950 . S
C2704 C2705 1.349 1_556 S
C2704 C2706 1.327 . S
C2704 H2729 0.950 . S
C2705 C2704 1.349 1_554 S
C2705 C2721 1.349 1_554 S
C2706 C2704 1.327 . S
C2706 C2725 1.429 . S
C2706 H2730 0.950 . S
C2707 C2724 1.574 . S
C2707 C2726 1.368 . S
C2707 H2731 0.949 . S
H2708 C2712 0.949 . S
C2709 C2710 1.349 . S
C2709 C2711 1.327 . S
C2709 H2732 0.950 . S
C2710 C2709 1.349 . S
C2710 C2722 1.349 . S
C2711 C2709 1.327 . S
C2711 C2727 1.429 . S
C2711 H2733 0.950 . S
C2712 H2708 0.949 . S
C2712 C2720 1.574 . S
C2712 C2728 1.368 . S
H2713 C2721 0.950 1_554 S
H2714 C2719 0.950 . S
H2715 C2720 0.949 . S
H2716 C2722 0.950 . S
H2717 C2723 0.950 . S
H2718 C2724 0.949 . S
C2719 H2714 0.950 . S
C2719 C2721 1.327 . S
C2719 C2725 1.429 . S
C2720 C2712 1.574 . S
C2720 H2715 0.949 . S
C2720 C2726 1.368 . S
C2721 C2705 1.349 1_556 S
C2721 H2713 0.950 1_556 S
C2721 C2719 1.327 . S
C2722 C2710 1.349 . S
C2722 H2716 0.950 . S
C2722 C2723 1.327 . S
C2723 H2717 0.950 . S
C2723 C2722 1.327 . S
C2723 C2727 1.429 . S
C2724 C2707 1.574 . S
C2724 H2718 0.949 . S
C2724 C2728 1.368 . S
C2725 C2706 1.429 . S
C2725 C2719 1.429 . S
C2725 C2726 1.523 . S
C2726 C2707 1.368 . S
C2726 C2720 1.368 . S
C2726 C2725 1.523 . S
C2727 C2711 1.429 . S
C2727 C2723 1.429 . S
C2727 C2728 1.523 . S
C2728 C2712 1.368 . S
C2728 C2724 1.368 . S
C2728 C2727 1.523 . S
H2729 C2704 0.950 . S
H2730 C2706 0.950 . S
H2731 C2707 0.949 . S
H2732 C2709 0.950 . S
H2733 C2711 0.950 . S
C2734 C2735 1.349 . S
C2734 C2736 1.327 . S
C2734 H2759 0.950 . S
C2735 C2734 1.349 . S
C2735 C2751 1.349 . S
C2736 C2734 1.327 . S
C2736 C2755 1.429 . S
C2736 H2760 0.950 . S
C2737 C2754 1.574 . S
C2737 C2756 1.368 . S
C2737 H2761 0.949 . S
H2738 C2742 0.949 . S
C2739 C2740 1.349 . S
C2739 C2741 1.327 . S
C2739 H2762 0.950 . S
C2740 C2739 1.349 . S
C2740 C2752 1.349 . S
C2741 C2739 1.327 . S
C2741 C2757 1.429 . S
C2741 H2763 0.950 . S
C2742 H2738 0.949 . S
C2742 C2750 1.574 . S
C2742 C2758 1.368 . S
H2743 C2751 0.950 . S
H2744 C2749 0.950 . S
H2745 C2750 0.949 . S
H2746 C2752 0.950 . S
H2747 C2753 0.950 . S
H2748 C2754 0.949 . S
C2749 H2744 0.950 . S
C2749 C2751 1.327 . S
C2749 C2755 1.429 . S
C2750 C2742 1.574 . S
C2750 H2745 0.949 . S
C2750 C2756 1.368 . S
C2751 C2735 1.349 . S
C2751 H2743 0.950 . S
C2751 C2749 1.327 . S
C2752 C2740 1.349 . S
C2752 H2746 0.950 . S
C2752 C2753 1.327 . S
C2753 H2747 0.950 . S
C2753 C2752 1.327 . S
C2753 C2757 1.429 . S
C2754 C2737 1.574 . S
C2754 H2748 0.949 . S
C2754 C2758 1.368 . S
C2755 C2736 1.429 . S
C2755 C2749 1.429 . S
C2755 C2756 1.523 . S
C2756 C2737 1.368 . S
C2756 C2750 1.368 . S
C2756 C2755 1.523 . S
C2757 C2741 1.429 . S
C2757 C2753 1.429 . S
C2757 C2758 1.523 . S
C2758 C2742 1.368 . S
C2758 C2754 1.368 . S
C2758 C2757 1.523 . S
H2759 C2734 0.950 . S
H2760 C2736 0.950 . S
H2761 C2737 0.949 . S
H2762 C2739 0.950 . S
H2763 C2741 0.950 . S
C2764 C2765 1.349 . S
C2764 C2766 1.327 . S
C2764 H2789 0.950 . S
C2765 C2764 1.349 . S
C2765 C2781 1.349 . S
C2766 C2764 1.327 . S
C2766 C2785 1.429 . S
C2766 H2790 0.950 . S
C2767 C2784 1.574 . S
C2767 C2786 1.368 . S
C2767 H2791 0.949 . S
H2768 C2772 0.949 . S
C2769 C2770 1.349 . S
C2769 C2771 1.327 . S
C2769 H2792 0.950 . S
C2770 C2769 1.349 . S
C2770 C2782 1.349 . S
C2771 C2769 1.327 . S
C2771 C2787 1.429 . S
C2771 H2793 0.950 . S
C2772 H2768 0.949 . S
C2772 C2780 1.574 . S
C2772 C2788 1.368 . S
H2773 C2781 0.950 . S
H2774 C2779 0.950 . S
H2775 C2780 0.949 . S
H2776 C2782 0.950 . S
H2777 C2783 0.950 . S
H2778 C2784 0.949 . S
C2779 H2774 0.950 . S
C2779 C2781 1.327 . S
C2779 C2785 1.429 . S
C2780 C2772 1.574 . S
C2780 H2775 0.949 . S
C2780 C2786 1.368 . S
C2781 C2765 1.349 . S
C2781 H2773 0.950 . S
C2781 C2779 1.327 . S
C2782 C2770 1.349 . S
C2782 H2776 0.950 . S
C2782 C2783 1.327 . S
C2783 H2777 0.950 . S
C2783 C2782 1.327 . S
C2783 C2787 1.429 . S
C2784 C2767 1.574 . S
C2784 H2778 0.949 . S
C2784 C2788 1.368 . S
C2785 C2766 1.429 . S
C2785 C2779 1.429 . S
C2785 C2786 1.523 . S
C2786 C2767 1.368 . S
C2786 C2780 1.368 . S
C2786 C2785 1.523 . S
C2787 C2771 1.429 . S
C2787 C2783 1.429 . S
C2787 C2788 1.523 . S
C2788 C2772 1.368 . S
C2788 C2784 1.368 . S
C2788 C2787 1.523 . S
H2789 C2764 0.950 . S
H2790 C2766 0.950 . S
H2791 C2767 0.949 . S
H2792 C2769 0.950 . S
H2793 C2771 0.950 . S
C2794 C2795 1.349 . S
C2794 C2796 1.327 . S
C2794 H2819 0.950 . S
C2795 C2794 1.349 . S
C2795 C2811 1.349 . S
C2796 C2794 1.327 . S
C2796 C2815 1.429 . S
C2796 H2820 0.950 . S
C2797 C2814 1.574 . S
C2797 C2816 1.368 . S
C2797 H2821 0.949 . S
H2798 C2802 0.949 . S
C2799 C2800 1.349 . S
C2799 C2801 1.327 . S
C2799 H2822 0.950 . S
C2800 C2799 1.349 . S
C2800 C2812 1.349 . S
C2801 C2799 1.327 . S
C2801 C2817 1.429 . S
C2801 H2823 0.950 . S
C2802 H2798 0.949 . S
C2802 C2810 1.574 . S
C2802 C2818 1.368 . S
H2803 C2811 0.950 . S
H2804 C2809 0.950 . S
H2805 C2810 0.949 . S
H2806 C2812 0.950 . S
H2807 C2813 0.950 . S
H2808 C2814 0.949 . S
C2809 H2804 0.950 . S
C2809 C2811 1.327 . S
C2809 C2815 1.429 . S
C2810 C2802 1.574 . S
C2810 H2805 0.949 . S
C2810 C2816 1.368 . S
C2811 C2795 1.349 . S
C2811 H2803 0.950 . S
C2811 C2809 1.327 . S
C2812 C2800 1.349 . S
C2812 H2806 0.950 . S
C2812 C2813 1.327 . S
C2813 H2807 0.950 . S
C2813 C2812 1.327 . S
C2813 C2817 1.429 . S
C2814 C2797 1.574 . S
C2814 H2808 0.949 . S
C2814 C2818 1.368 . S
C2815 C2796 1.429 . S
C2815 C2809 1.429 . S
C2815 C2816 1.523 . S
C2816 C2797 1.368 . S
C2816 C2810 1.368 . S
C2816 C2815 1.523 . S
C2817 C2801 1.429 . S
C2817 C2813 1.429 . S
C2817 C2818 1.523 . S
C2818 C2802 1.368 . S
C2818 C2814 1.368 . S
C2818 C2817 1.523 . S
H2819 C2794 0.950 . S
H2820 C2796 0.950 . S
H2821 C2797 0.949 . S
H2822 C2799 0.950 . S
H2823 C2801 0.950 . S
C2824 C2825 1.349 . S
C2824 C2826 1.327 . S
C2824 H2849 0.950 . S
C2825 C2824 1.349 . S
C2825 C2841 1.349 . S
C2826 C2824 1.327 . S
C2826 C2845 1.429 . S
C2826 H2850 0.950 . S
C2827 C2844 1.574 . S
C2827 C2846 1.368 . S
C2827 H2851 0.949 . S
H2828 C2832 0.949 . S
C2829 C2830 1.349 . S
C2829 C2831 1.327 . S
C2829 H2852 0.950 . S
C2830 C2829 1.349 . S
C2830 C2842 1.349 . S
C2831 C2829 1.327 . S
C2831 C2847 1.429 . S
C2831 H2853 0.950 . S
C2832 H2828 0.949 . S
C2832 C2840 1.574 . S
C2832 C2848 1.368 . S
H2833 C2841 0.950 . S
H2834 C2839 0.950 . S
H2835 C2840 0.949 . S
H2836 C2842 0.950 . S
H2837 C2843 0.950 . S
H2838 C2844 0.949 . S
C2839 H2834 0.950 . S
C2839 C2841 1.327 . S
C2839 C2845 1.429 . S
C2840 C2832 1.574 . S
C2840 H2835 0.949 . S
C2840 C2846 1.368 . S
C2841 C2825 1.349 . S
C2841 H2833 0.950 . S
C2841 C2839 1.327 . S
C2842 C2830 1.349 . S
C2842 H2836 0.950 . S
C2842 C2843 1.327 . S
C2843 H2837 0.950 . S
C2843 C2842 1.327 . S
C2843 C2847 1.429 . S
C2844 C2827 1.574 . S
C2844 H2838 0.949 . S
C2844 C2848 1.368 . S
C2845 C2826 1.429 . S
C2845 C2839 1.429 . S
C2845 C2846 1.523 . S
C2846 C2827 1.368 . S
C2846 C2840 1.368 . S
C2846 C2845 1.523 . S
C2847 C2831 1.429 . S
C2847 C2843 1.429 . S
C2847 C2848 1.523 . S
C2848 C2832 1.368 . S
C2848 C2844 1.368 . S
C2848 C2847 1.523 . S
H2849 C2824 0.950 . S
H2850 C2826 0.950 . S
H2851 C2827 0.949 . S
H2852 C2829 0.950 . S
H2853 C2831 0.950 . S
C2854 C2855 1.349 . S
C2854 C2856 1.327 . S
C2854 H2879 0.950 . S
C2855 C2854 1.349 . S
C2855 C2871 1.349 . S
C2856 C2854 1.327 . S
C2856 C2875 1.429 . S
C2856 H2880 0.950 . S
C2857 C2874 1.574 . S
C2857 C2876 1.368 . S
C2857 H2881 0.949 . S
H2858 C2862 0.949 . S
C2859 C2860 1.349 . S
C2859 C2861 1.327 . S
C2859 H2882 0.950 . S
C2860 C2859 1.349 . S
C2860 C2872 1.349 . S
C2861 C2859 1.327 . S
C2861 C2877 1.429 . S
C2861 H2883 0.950 . S
C2862 H2858 0.949 . S
C2862 C2870 1.574 . S
C2862 C2878 1.368 . S
H2863 C2871 0.950 . S
H2864 C2869 0.950 . S
H2865 C2870 0.949 . S
H2866 C2872 0.950 . S
H2867 C2873 0.950 . S
H2868 C2874 0.949 . S
C2869 H2864 0.950 . S
C2869 C2871 1.327 . S
C2869 C2875 1.429 . S
C2870 C2862 1.574 . S
C2870 H2865 0.949 . S
C2870 C2876 1.368 . S
C2871 C2855 1.349 . S
C2871 H2863 0.950 . S
C2871 C2869 1.327 . S
C2872 C2860 1.349 . S
C2872 H2866 0.950 . S
C2872 C2873 1.327 . S
C2873 H2867 0.950 . S
C2873 C2872 1.327 . S
C2873 C2877 1.429 . S
C2874 C2857 1.574 . S
C2874 H2868 0.949 . S
C2874 C2878 1.368 . S
C2875 C2856 1.429 . S
C2875 C2869 1.429 . S
C2875 C2876 1.523 . S
C2876 C2857 1.368 . S
C2876 C2870 1.368 . S
C2876 C2875 1.523 . S
C2877 C2861 1.429 . S
C2877 C2873 1.429 . S
C2877 C2878 1.523 . S
C2878 C2862 1.368 . S
C2878 C2874 1.368 . S
C2878 C2877 1.523 . S
H2879 C2854 0.950 . S
H2880 C2856 0.950 . S
H2881 C2857 0.949 . S
H2882 C2859 0.950 . S
H2883 C2861 0.950 . S
C2884 C2885 1.349 . S
C2884 C2886 1.327 . S
C2884 H2909 0.950 . S
C2885 C2884 1.349 . S
C2885 C2901 1.349 . S
C2886 C2884 1.327 . S
C2886 C2905 1.429 . S
C2886 H2910 0.950 . S
C2887 C2904 1.574 . S
C2887 C2906 1.368 . S
C2887 H2911 0.949 . S
H2888 C2892 0.949 . S
C2889 C2890 1.349 . S
C2889 C2891 1.327 . S
C2889 H2912 0.950 . S
C2890 C2889 1.349 . S
C2890 C2902 1.349 . S
C2891 C2889 1.327 . S
C2891 C2907 1.429 . S
C2891 H2913 0.950 . S
C2892 H2888 0.949 . S
C2892 C2900 1.574 . S
C2892 C2908 1.368 . S
H2893 C2901 0.950 . S
H2894 C2899 0.950 . S
H2895 C2900 0.949 . S
H2896 C2902 0.950 . S
H2897 C2903 0.950 . S
H2898 C2904 0.949 . S
C2899 H2894 0.950 . S
C2899 C2901 1.327 . S
C2899 C2905 1.429 . S
C2900 C2892 1.574 . S
C2900 H2895 0.949 . S
C2900 C2906 1.368 . S
C2901 C2885 1.349 . S
C2901 H2893 0.950 . S
C2901 C2899 1.327 . S
C2902 C2890 1.349 . S
C2902 H2896 0.950 . S
C2902 C2903 1.327 . S
C2903 H2897 0.950 . S
C2903 C2902 1.327 . S
C2903 C2907 1.429 . S
C2904 C2887 1.574 . S
C2904 H2898 0.949 . S
C2904 C2908 1.368 . S
C2905 C2886 1.429 . S
C2905 C2899 1.429 . S
C2905 C2906 1.523 . S
C2906 C2887 1.368 . S
C2906 C2900 1.368 . S
C2906 C2905 1.523 . S
C2907 C2891 1.429 . S
C2907 C2903 1.429 . S
C2907 C2908 1.523 . S
C2908 C2892 1.368 . S
C2908 C2904 1.368 . S
C2908 C2907 1.523 . S
H2909 C2884 0.950 . S
H2910 C2886 0.950 . S
H2911 C2887 0.949 . S
H2912 C2889 0.950 . S
H2913 C2891 0.950 . S
C2914 C2915 1.350 1_545 S
C2914 C2916 1.327 . S
C2914 H2939 0.950 . S
C2915 C2914 1.350 1_565 S
C2915 C2931 1.350 1_565 S
C2916 C2914 1.327 . S
C2916 C2935 1.429 . S
C2916 H2940 0.950 . S
C2917 C2934 1.574 . S
C2917 C2936 1.368 . S
C2917 H2941 0.949 . S
H2918 C2922 0.949 . S
C2919 C2920 1.349 . S
C2919 C2921 1.327 . S
C2919 H2942 0.950 . S
C2920 C2919 1.349 . S
C2920 C2932 1.349 . S
C2921 C2919 1.327 . S
C2921 C2937 1.429 . S
C2921 H2943 0.950 . S
C2922 H2918 0.949 . S
C2922 C2930 1.574 . S
C2922 C2938 1.368 . S
H2923 C2931 0.950 . S
H2924 C2929 0.950 . S
H2925 C2930 0.949 . S
H2926 C2932 0.950 . S
H2927 C2933 0.950 . S
H2928 C2934 0.949 . S
C2929 H2924 0.950 . S
C2929 C2931 1.327 . S
C2929 C2935 1.429 . S
C2930 C2922 1.574 . S
C2930 H2925 0.949 . S
C2930 C2936 1.368 . S
C2931 C2915 1.350 1_545 S
C2931 H2923 0.950 . S
C2931 C2929 1.327 . S
C2932 C2920 1.349 . S
C2932 H2926 0.950 . S
C2932 C2933 1.327 . S
C2933 H2927 0.950 . S
C2933 C2932 1.327 . S
C2933 C2937 1.429 . S
C2934 C2917 1.574 . S
C2934 H2928 0.949 . S
C2934 C2938 1.368 . S
C2935 C2916 1.429 . S
C2935 C2929 1.429 . S
C2935 C2936 1.523 . S
C2936 C2917 1.368 . S
C2936 C2930 1.368 . S
C2936 C2935 1.523 . S
C2937 C2921 1.429 . S
C2937 C2933 1.429 . S
C2937 C2938 1.523 . S
C2938 C2922 1.368 . S
C2938 C2934 1.368 . S
C2938 C2937 1.523 . S
H2939 C2914 0.950 . S
H2940 C2916 0.950 . S
H2941 C2917 0.949 . S
H2942 C2919 0.950 . S
H2943 C2921 0.950 . S
C2944 C2945 1.349 . S
C2944 C2946 1.327 . S
C2944 H2969 0.950 . S
C2945 C2944 1.349 . S
C2945 C2961 1.349 . S
C2946 C2944 1.327 . S
C2946 C2965 1.429 . S
C2946 H2970 0.950 . S
C2947 C2964 1.574 . S
C2947 C2966 1.368 . S
C2947 H2971 0.949 . S
H2948 C2952 0.949 . S
C2949 C2950 1.349 . S
C2949 C2951 1.327 . S
C2949 H2972 0.950 . S
C2950 C2949 1.349 . S
C2950 C2962 1.349 . S
C2951 C2949 1.327 . S
C2951 C2967 1.429 . S
C2951 H2973 0.950 . S
C2952 H2948 0.949 . S
C2952 C2960 1.574 . S
C2952 C2968 1.368 . S
H2953 C2961 0.950 . S
H2954 C2959 0.950 . S
H2955 C2960 0.949 . S
H2956 C2962 0.950 . S
H2957 C2963 0.950 . S
H2958 C2964 0.949 . S
C2959 H2954 0.950 . S
C2959 C2961 1.327 . S
C2959 C2965 1.429 . S
C2960 C2952 1.574 . S
C2960 H2955 0.949 . S
C2960 C2966 1.368 . S
C2961 C2945 1.349 . S
C2961 H2953 0.950 . S
C2961 C2959 1.327 . S
C2962 C2950 1.349 . S
C2962 H2956 0.950 . S
C2962 C2963 1.327 . S
C2963 H2957 0.950 . S
C2963 C2962 1.327 . S
C2963 C2967 1.429 . S
C2964 C2947 1.574 . S
C2964 H2958 0.949 . S
C2964 C2968 1.368 . S
C2965 C2946 1.429 . S
C2965 C2959 1.429 . S
C2965 C2966 1.523 . S
C2966 C2947 1.368 . S
C2966 C2960 1.368 . S
C2966 C2965 1.523 . S
C2967 C2951 1.429 . S
C2967 C2963 1.429 . S
C2967 C2968 1.523 . S
C2968 C2952 1.368 . S
C2968 C2964 1.368 . S
C2968 C2967 1.523 . S
H2969 C2944 0.950 . S
H2970 C2946 0.950 . S
H2971 C2947 0.949 . S
H2972 C2949 0.950 . S
H2973 C2951 0.950 . S
C2974 C2975 1.349 . S
C2974 C2976 1.327 . S
C2974 H2999 0.950 . S
C2975 C2974 1.349 . S
C2975 C2991 1.349 . S
C2976 C2974 1.327 . S
C2976 C2995 1.429 . S
C2976 H3000 0.950 . S
C2977 C2994 1.574 . S
C2977 C2996 1.368 . S
C2977 H3001 0.949 . S
H2978 C2982 0.949 . S
C2979 C2980 1.349 . S
C2979 C2981 1.327 . S
C2979 H3002 0.950 . S
C2980 C2979 1.349 . S
C2980 C2992 1.349 . S
C2981 C2979 1.327 . S
C2981 C2997 1.429 . S
C2981 H3003 0.950 . S
C2982 H2978 0.949 . S
C2982 C2990 1.574 . S
C2982 C2998 1.368 . S
H2983 C2991 0.950 . S
H2984 C2989 0.950 . S
H2985 C2990 0.949 . S
H2986 C2992 0.950 . S
H2987 C2993 0.950 . S
H2988 C2994 0.949 . S
C2989 H2984 0.950 . S
C2989 C2991 1.327 . S
C2989 C2995 1.429 . S
C2990 C2982 1.574 . S
C2990 H2985 0.949 . S
C2990 C2996 1.368 . S
C2991 C2975 1.349 . S
C2991 H2983 0.950 . S
C2991 C2989 1.327 . S
C2992 C2980 1.349 . S
C2992 H2986 0.950 . S
C2992 C2993 1.327 . S
C2993 H2987 0.950 . S
C2993 C2992 1.327 . S
C2993 C2997 1.429 . S
C2994 C2977 1.574 . S
C2994 H2988 0.949 . S
C2994 C2998 1.368 . S
C2995 C2976 1.429 . S
C2995 C2989 1.429 . S
C2995 C2996 1.523 . S
C2996 C2977 1.368 . S
C2996 C2990 1.368 . S
C2996 C2995 1.523 . S
C2997 C2981 1.429 . S
C2997 C2993 1.429 . S
C2997 C2998 1.523 . S
C2998 C2982 1.368 . S
C2998 C2994 1.368 . S
C2998 C2997 1.523 . S
H2999 C2974 0.950 . S
H3000 C2976 0.950 . S
H3001 C2977 0.949 . S
H3002 C2979 0.950 . S
H3003 C2981 0.950 . S
C3004 C3005 1.349 . S
C3004 C3006 1.327 . S
C3004 H3029 0.950 . S
C3005 C3004 1.349 . S
C3005 C3021 1.349 . S
C3006 C3004 1.327 . S
C3006 C3025 1.429 . S
C3006 H3030 0.950 . S
C3007 C3024 1.574 . S
C3007 C3026 1.368 . S
C3007 H3031 0.949 . S
H3008 C3012 0.949 . S
C3009 C3010 1.349 . S
C3009 C3011 1.327 . S
C3009 H3032 0.950 . S
C3010 C3009 1.349 . S
C3010 C3022 1.349 . S
C3011 C3009 1.327 . S
C3011 C3027 1.429 . S
C3011 H3033 0.950 . S
C3012 H3008 0.949 . S
C3012 C3020 1.574 . S
C3012 C3028 1.368 . S
H3013 C3021 0.950 . S
H3014 C3019 0.950 . S
H3015 C3020 0.949 . S
H3016 C3022 0.950 . S
H3017 C3023 0.950 . S
H3018 C3024 0.949 . S
C3019 H3014 0.950 . S
C3019 C3021 1.327 . S
C3019 C3025 1.429 . S
C3020 C3012 1.574 . S
C3020 H3015 0.949 . S
C3020 C3026 1.368 . S
C3021 C3005 1.349 . S
C3021 H3013 0.950 . S
C3021 C3019 1.327 . S
C3022 C3010 1.349 . S
C3022 H3016 0.950 . S
C3022 C3023 1.327 . S
C3023 H3017 0.950 . S
C3023 C3022 1.327 . S
C3023 C3027 1.429 . S
C3024 C3007 1.574 . S
C3024 H3018 0.949 . S
C3024 C3028 1.368 . S
C3025 C3006 1.429 . S
C3025 C3019 1.429 . S
C3025 C3026 1.523 . S
C3026 C3007 1.368 . S
C3026 C3020 1.368 . S
C3026 C3025 1.523 . S
C3027 C3011 1.429 . S
C3027 C3023 1.429 . S
C3027 C3028 1.523 . S
C3028 C3012 1.368 . S
C3028 C3024 1.368 . S
C3028 C3027 1.523 . S
H3029 C3004 0.950 . S
H3030 C3006 0.950 . S
H3031 C3007 0.949 . S
H3032 C3009 0.950 . S
H3033 C3011 0.950 . S
C3034 C3035 1.349 1_545 S
C3034 C3036 1.327 . S
C3034 H3059 0.950 . S
C3035 C3034 1.349 1_565 S
C3035 C3051 1.349 1_565 S
C3036 C3034 1.327 . S
C3036 C3055 1.429 . S
C3036 H3060 0.950 . S
C3037 C3054 1.574 . S
C3037 C3056 1.368 . S
C3037 H3061 0.949 . S
H3038 C3042 0.949 . S
C3039 C3040 1.349 . S
C3039 C3041 1.327 . S
C3039 H3062 0.950 . S
C3040 C3039 1.349 . S
C3040 C3052 1.349 . S
C3041 C3039 1.327 . S
C3041 C3057 1.429 . S
C3041 H3063 0.950 . S
C3042 H3038 0.949 . S
C3042 C3050 1.574 . S
C3042 C3058 1.368 . S
H3043 C3051 0.950 1_565 S
H3044 C3049 0.950 . S
H3045 C3050 0.949 . S
H3046 C3052 0.950 . S
H3047 C3053 0.950 . S
H3048 C3054 0.949 . S
C3049 H3044 0.950 . S
C3049 C3051 1.327 . S
C3049 C3055 1.429 . S
C3050 C3042 1.574 . S
C3050 H3045 0.949 . S
C3050 C3056 1.368 . S
C3051 C3035 1.349 1_545 S
C3051 H3043 0.950 1_545 S
C3051 C3049 1.327 . S
C3052 C3040 1.349 . S
C3052 H3046 0.950 . S
C3052 C3053 1.327 . S
C3053 H3047 0.950 . S
C3053 C3052 1.327 . S
C3053 C3057 1.429 . S
C3054 C3037 1.574 . S
C3054 H3048 0.949 . S
C3054 C3058 1.368 . S
C3055 C3036 1.429 . S
C3055 C3049 1.429 . S
C3055 C3056 1.523 . S
C3056 C3037 1.368 . S
C3056 C3050 1.368 . S
C3056 C3055 1.523 . S
C3057 C3041 1.429 . S
C3057 C3053 1.429 . S
C3057 C3058 1.523 . S
C3058 C3042 1.368 . S
C3058 C3054 1.368 . S
C3058 C3057 1.523 . S
H3059 C3034 0.950 . S
H3060 C3036 0.950 . S
H3061 C3037 0.949 . S
H3062 C3039 0.950 . S
H3063 C3041 0.950 . S
C3064 C3065 1.349 . S
C3064 C3066 1.327 . S
C3064 H3089 0.950 . S
C3065 C3064 1.349 . S
C3065 C3081 1.349 . S
C3066 C3064 1.327 . S
C3066 C3085 1.429 . S
C3066 H3090 0.950 . S
C3067 C3084 1.574 . S
C3067 C3086 1.368 . S
C3067 H3091 0.949 . S
H3068 C3072 0.949 . S
C3069 C3070 1.349 . S
C3069 C3071 1.327 . S
C3069 H3092 0.950 . S
C3070 C3069 1.349 . S
C3070 C3082 1.349 . S
C3071 C3069 1.327 . S
C3071 C3087 1.429 . S
C3071 H3093 0.950 . S
C3072 H3068 0.949 . S
C3072 C3080 1.574 . S
C3072 C3088 1.368 . S
H3073 C3081 0.950 . S
H3074 C3079 0.950 . S
H3075 C3080 0.949 . S
H3076 C3082 0.950 . S
H3077 C3083 0.950 . S
H3078 C3084 0.949 . S
C3079 H3074 0.950 . S
C3079 C3081 1.327 . S
C3079 C3085 1.429 . S
C3080 C3072 1.574 . S
C3080 H3075 0.949 . S
C3080 C3086 1.368 . S
C3081 C3065 1.349 . S
C3081 H3073 0.950 . S
C3081 C3079 1.327 . S
C3082 C3070 1.349 . S
C3082 H3076 0.950 . S
C3082 C3083 1.327 . S
C3083 H3077 0.950 . S
C3083 C3082 1.327 . S
C3083 C3087 1.429 . S
C3084 C3067 1.574 . S
C3084 H3078 0.949 . S
C3084 C3088 1.368 . S
C3085 C3066 1.429 . S
C3085 C3079 1.429 . S
C3085 C3086 1.523 . S
C3086 C3067 1.368 . S
C3086 C3080 1.368 . S
C3086 C3085 1.523 . S
C3087 C3071 1.429 . S
C3087 C3083 1.429 . S
C3087 C3088 1.523 . S
C3088 C3072 1.368 . S
C3088 C3084 1.368 . S
C3088 C3087 1.523 . S
H3089 C3064 0.950 . S
H3090 C3066 0.950 . S
H3091 C3067 0.949 . S
H3092 C3069 0.950 . S
H3093 C3071 0.950 . S
C3094 C3095 1.349 . S
C3094 C3096 1.327 . S
C3094 H3119 0.950 . S
C3095 C3094 1.349 . S
C3095 C3111 1.349 . S
C3096 C3094 1.327 . S
C3096 C3115 1.429 . S
C3096 H3120 0.950 . S
C3097 C3114 1.574 . S
C3097 C3116 1.368 . S
C3097 H3121 0.949 . S
H3098 C3102 0.949 . S
C3099 C3100 1.349 . S
C3099 C3101 1.327 . S
C3099 H3122 0.950 . S
C3100 C3099 1.349 . S
C3100 C3112 1.349 . S
C3101 C3099 1.327 . S
C3101 C3117 1.429 . S
C3101 H3123 0.950 . S
C3102 H3098 0.949 . S
C3102 C3110 1.574 . S
C3102 C3118 1.368 . S
H3103 C3111 0.950 . S
H3104 C3109 0.950 . S
H3105 C3110 0.949 . S
H3106 C3112 0.950 . S
H3107 C3113 0.950 . S
H3108 C3114 0.949 . S
C3109 H3104 0.950 . S
C3109 C3111 1.327 . S
C3109 C3115 1.429 . S
C3110 C3102 1.574 . S
C3110 H3105 0.949 . S
C3110 C3116 1.368 . S
C3111 C3095 1.349 . S
C3111 H3103 0.950 . S
C3111 C3109 1.327 . S
C3112 C3100 1.349 . S
C3112 H3106 0.950 . S
C3112 C3113 1.327 . S
C3113 H3107 0.950 . S
C3113 C3112 1.327 . S
C3113 C3117 1.429 . S
C3114 C3097 1.574 . S
C3114 H3108 0.949 . S
C3114 C3118 1.368 . S
C3115 C3096 1.429 . S
C3115 C3109 1.429 . S
C3115 C3116 1.523 . S
C3116 C3097 1.368 . S
C3116 C3110 1.368 . S
C3116 C3115 1.523 . S
C3117 C3101 1.429 . S
C3117 C3113 1.429 . S
C3117 C3118 1.523 . S
C3118 C3102 1.368 . S
C3118 C3114 1.368 . S
C3118 C3117 1.523 . S
H3119 C3094 0.950 . S
H3120 C3096 0.950 . S
H3121 C3097 0.949 . S
H3122 C3099 0.950 . S
H3123 C3101 0.950 . S
C3124 C3125 1.349 . S
C3124 C3126 1.327 . S
C3124 H3149 0.950 . S
C3125 C3124 1.349 . S
C3125 C3141 1.349 . S
C3126 C3124 1.327 . S
C3126 C3145 1.429 . S
C3126 H3150 0.950 . S
C3127 C3144 1.574 . S
C3127 C3146 1.368 . S
C3127 H3151 0.949 . S
H3128 C3132 0.949 . S
C3129 C3130 1.349 . S
C3129 C3131 1.327 . S
C3129 H3152 0.950 . S
C3130 C3129 1.349 . S
C3130 C3142 1.349 . S
C3131 C3129 1.327 . S
C3131 C3147 1.429 . S
C3131 H3153 0.950 . S
C3132 H3128 0.949 . S
C3132 C3140 1.574 . S
C3132 C3148 1.368 . S
H3133 C3141 0.950 . S
H3134 C3139 0.950 . S
H3135 C3140 0.949 . S
H3136 C3142 0.950 . S
H3137 C3143 0.950 . S
H3138 C3144 0.949 . S
C3139 H3134 0.950 . S
C3139 C3141 1.327 . S
C3139 C3145 1.429 . S
C3140 C3132 1.574 . S
C3140 H3135 0.949 . S
C3140 C3146 1.368 . S
C3141 C3125 1.349 . S
C3141 H3133 0.950 . S
C3141 C3139 1.327 . S
C3142 C3130 1.349 . S
C3142 H3136 0.950 . S
C3142 C3143 1.327 . S
C3143 H3137 0.950 . S
C3143 C3142 1.327 . S
C3143 C3147 1.429 . S
C3144 C3127 1.574 . S
C3144 H3138 0.949 . S
C3144 C3148 1.368 . S
C3145 C3126 1.429 . S
C3145 C3139 1.429 . S
C3145 C3146 1.523 . S
C3146 C3127 1.368 . S
C3146 C3140 1.368 . S
C3146 C3145 1.523 . S
C3147 C3131 1.429 . S
C3147 C3143 1.429 . S
C3147 C3148 1.523 . S
C3148 C3132 1.368 . S
C3148 C3144 1.368 . S
C3148 C3147 1.523 . S
H3149 C3124 0.950 . S
H3150 C3126 0.950 . S
H3151 C3127 0.949 . S
H3152 C3129 0.950 . S
H3153 C3131 0.950 . S
C3154 C3155 1.349 1_655 S
C3154 C3156 1.327 . S
C3154 H3179 0.950 . S
C3155 C3154 1.349 1_455 S
C3155 C3171 1.349 1_455 S
C3156 C3154 1.327 . S
C3156 C3175 1.429 . S
C3156 H3180 0.950 . S
C3157 C3174 1.574 . S
C3157 C3176 1.368 . S
C3157 H3181 0.949 . S
H3158 C3162 0.949 . S
C3159 C3160 1.349 . S
C3159 C3161 1.327 . S
C3159 H3182 0.950 . S
C3160 C3159 1.349 . S
C3160 C3172 1.349 . S
C3161 C3159 1.327 . S
C3161 C3177 1.429 . S
C3161 H3183 0.950 . S
C3162 H3158 0.949 . S
C3162 C3170 1.574 . S
C3162 C3178 1.368 . S
H3163 C3171 0.950 1_455 S
H3164 C3169 0.950 . S
H3165 C3170 0.949 . S
H3166 C3172 0.950 . S
H3167 C3173 0.950 . S
H3168 C3174 0.949 . S
C3169 H3164 0.950 . S
C3169 C3171 1.327 . S
C3169 C3175 1.429 . S
C3170 C3162 1.574 . S
C3170 H3165 0.949 . S
C3170 C3176 1.368 . S
C3171 C3155 1.349 1_655 S
C3171 H3163 0.950 1_655 S
C3171 C3169 1.327 . S
C3172 C3160 1.349 . S
C3172 H3166 0.950 . S
C3172 C3173 1.327 . S
C3173 H3167 0.950 . S
C3173 C3172 1.327 . S
C3173 C3177 1.429 . S
C3174 C3157 1.574 . S
C3174 H3168 0.949 . S
C3174 C3178 1.368 . S
C3175 C3156 1.429 . S
C3175 C3169 1.429 . S
C3175 C3176 1.523 . S
C3176 C3157 1.368 . S
C3176 C3170 1.368 . S
C3176 C3175 1.523 . S
C3177 C3161 1.429 . S
C3177 C3173 1.429 . S
C3177 C3178 1.523 . S
C3178 C3162 1.368 . S
C3178 C3174 1.368 . S
C3178 C3177 1.523 . S
H3179 C3154 0.950 . S
H3180 C3156 0.950 . S
H3181 C3157 0.949 . S
H3182 C3159 0.950 . S
H3183 C3161 0.950 . S
C3184 C3185 1.349 . S
C3184 C3186 1.327 . S
C3184 H3209 0.950 . S
C3185 C3184 1.349 . S
C3185 C3201 1.349 . S
C3186 C3184 1.327 . S
C3186 C3205 1.429 . S
C3186 H3210 0.950 . S
C3187 C3204 1.574 . S
C3187 C3206 1.368 . S
C3187 H3211 0.949 . S
H3188 C3192 0.949 . S
C3189 C3190 1.349 . S
C3189 C3191 1.327 . S
C3189 H3212 0.950 . S
C3190 C3189 1.349 . S
C3190 C3202 1.349 . S
C3191 C3189 1.327 . S
C3191 C3207 1.429 . S
C3191 H3213 0.950 . S
C3192 H3188 0.949 . S
C3192 C3200 1.574 . S
C3192 C3208 1.368 . S
H3193 C3201 0.950 . S
H3194 C3199 0.950 . S
H3195 C3200 0.949 . S
H3196 C3202 0.950 . S
H3197 C3203 0.950 . S
H3198 C3204 0.949 . S
C3199 H3194 0.950 . S
C3199 C3201 1.327 . S
C3199 C3205 1.429 . S
C3200 C3192 1.574 . S
C3200 H3195 0.949 . S
C3200 C3206 1.368 . S
C3201 C3185 1.349 . S
C3201 H3193 0.950 . S
C3201 C3199 1.327 . S
C3202 C3190 1.349 . S
C3202 H3196 0.950 . S
C3202 C3203 1.327 . S
C3203 H3197 0.950 . S
C3203 C3202 1.327 . S
C3203 C3207 1.429 . S
C3204 C3187 1.574 . S
C3204 H3198 0.949 . S
C3204 C3208 1.368 . S
C3205 C3186 1.429 . S
C3205 C3199 1.429 . S
C3205 C3206 1.523 . S
C3206 C3187 1.368 . S
C3206 C3200 1.368 . S
C3206 C3205 1.523 . S
C3207 C3191 1.429 . S
C3207 C3203 1.429 . S
C3207 C3208 1.523 . S
C3208 C3192 1.368 . S
C3208 C3204 1.368 . S
C3208 C3207 1.523 . S
H3209 C3184 0.950 . S
H3210 C3186 0.950 . S
H3211 C3187 0.949 . S
H3212 C3189 0.950 . S
H3213 C3191 0.950 . S
C3214 C3215 1.350 1_455 S
C3214 C3216 1.327 . S
C3214 H3239 0.954 . S
C3215 C3214 1.350 1_655 S
C3215 C3231 1.351 1_655 S
C3216 C3214 1.327 . S
C3216 C3235 1.429 . S
C3216 H3240 0.950 . S
C3217 C3234 1.574 . S
C3217 C3236 1.368 . S
C3217 H3241 0.949 . S
H3218 C3222 0.949 . S
C3219 C3220 1.349 . S
C3219 C3221 1.327 . S
C3219 H3242 0.950 . S
C3220 C3219 1.349 . S
C3220 C3232 1.349 . S
C3221 C3219 1.327 . S
C3221 C3237 1.429 . S
C3221 H3243 0.950 . S
C3222 H3218 0.949 . S
C3222 C3230 1.574 . S
C3222 C3238 1.368 . S
H3223 C3231 0.950 . S
H3224 C3229 0.950 . S
H3225 C3230 0.949 . S
H3226 C3232 0.950 . S
H3227 C3233 0.950 . S
H3228 C3234 0.949 . S
C3229 H3224 0.950 . S
C3229 C3231 1.327 . S
C3229 C3235 1.429 . S
C3230 C3222 1.574 . S
C3230 H3225 0.949 . S
C3230 C3236 1.368 . S
C3231 C3215 1.351 1_455 S
C3231 H3223 0.950 . S
C3231 C3229 1.327 . S
C3232 C3220 1.349 . S
C3232 H3226 0.950 . S
C3232 C3233 1.327 . S
C3233 H3227 0.950 . S
C3233 C3232 1.327 . S
C3233 C3237 1.429 . S
C3234 C3217 1.574 . S
C3234 H3228 0.949 . S
C3234 C3238 1.368 . S
C3235 C3216 1.429 . S
C3235 C3229 1.429 . S
C3235 C3236 1.523 . S
C3236 C3217 1.368 . S
C3236 C3230 1.368 . S
C3236 C3235 1.523 . S
C3237 C3221 1.429 . S
C3237 C3233 1.429 . S
C3237 C3238 1.523 . S
C3238 C3222 1.368 . S
C3238 C3234 1.368 . S
C3238 C3237 1.523 . S
H3239 C3214 0.954 . S
H3240 C3216 0.950 . S
H3241 C3217 0.949 . S
H3242 C3219 0.950 . S
H3243 C3221 0.950 . S
C3244 C3245 1.349 . S
C3244 C3246 1.327 . S
C3244 H3269 0.950 . S
C3245 C3244 1.349 . S
C3245 C3261 1.349 . S
C3246 C3244 1.327 . S
C3246 C3265 1.429 . S
C3246 H3270 0.950 . S
C3247 C3264 1.574 . S
C3247 C3266 1.368 . S
C3247 H3271 0.949 . S
H3248 C3252 0.949 . S
C3249 C3250 1.349 . S
C3249 C3251 1.327 . S
C3249 H3272 0.950 . S
C3250 C3249 1.349 . S
C3250 C3262 1.349 . S
C3251 C3249 1.327 . S
C3251 C3267 1.429 . S
C3251 H3273 0.950 . S
C3252 H3248 0.949 . S
C3252 C3260 1.574 . S
C3252 C3268 1.368 . S
H3253 C3261 0.950 . S
H3254 C3259 0.950 . S
H3255 C3260 0.949 . S
H3256 C3262 0.950 . S
H3257 C3263 0.950 . S
H3258 C3264 0.949 . S
C3259 H3254 0.950 . S
C3259 C3261 1.327 . S
C3259 C3265 1.429 . S
C3260 C3252 1.574 . S
C3260 H3255 0.949 . S
C3260 C3266 1.368 . S
C3261 C3245 1.349 . S
C3261 H3253 0.950 . S
C3261 C3259 1.327 . S
C3262 C3250 1.349 . S
C3262 H3256 0.950 . S
C3262 C3263 1.327 . S
C3263 H3257 0.950 . S
C3263 C3262 1.327 . S
C3263 C3267 1.429 . S
C3264 C3247 1.574 . S
C3264 H3258 0.949 . S
C3264 C3268 1.368 . S
C3265 C3246 1.429 . S
C3265 C3259 1.429 . S
C3265 C3266 1.523 . S
C3266 C3247 1.368 . S
C3266 C3260 1.368 . S
C3266 C3265 1.523 . S
C3267 C3251 1.429 . S
C3267 C3263 1.429 . S
C3267 C3268 1.523 . S
C3268 C3252 1.368 . S
C3268 C3264 1.368 . S
C3268 C3267 1.523 . S
H3269 C3244 0.950 . S
H3270 C3246 0.950 . S
H3271 C3247 0.949 . S
H3272 C3249 0.950 . S
H3273 C3251 0.950 . S
C3274 C3275 1.349 . S
C3274 C3276 1.327 . S
C3274 H3299 0.950 . S
C3275 C3274 1.349 . S
C3275 C3291 1.349 . S
C3276 C3274 1.327 . S
C3276 C3295 1.429 . S
C3276 H3300 0.950 . S
C3277 C3294 1.574 . S
C3277 C3296 1.368 . S
C3277 H3301 0.949 . S
H3278 C3282 0.949 . S
C3279 C3280 1.349 . S
C3279 C3281 1.327 . S
C3279 H3302 0.950 . S
C3280 C3279 1.349 . S
C3280 C3292 1.349 . S
C3281 C3279 1.327 . S
C3281 C3297 1.429 . S
C3281 H3303 0.950 . S
C3282 H3278 0.949 . S
C3282 C3290 1.574 . S
C3282 C3298 1.368 . S
H3283 C3291 0.950 . S
H3284 C3289 0.950 . S
H3285 C3290 0.949 . S
H3286 C3292 0.950 . S
H3287 C3293 0.950 . S
H3288 C3294 0.949 . S
C3289 H3284 0.950 . S
C3289 C3291 1.327 . S
C3289 C3295 1.429 . S
C3290 C3282 1.574 . S
C3290 H3285 0.949 . S
C3290 C3296 1.368 . S
C3291 C3275 1.349 . S
C3291 H3283 0.950 . S
C3291 C3289 1.327 . S
C3292 C3280 1.349 . S
C3292 H3286 0.950 . S
C3292 C3293 1.327 . S
C3293 H3287 0.950 . S
C3293 C3292 1.327 . S
C3293 C3297 1.429 . S
C3294 C3277 1.574 . S
C3294 H3288 0.949 . S
C3294 C3298 1.368 . S
C3295 C3276 1.429 . S
C3295 C3289 1.429 . S
C3295 C3296 1.523 . S
C3296 C3277 1.368 . S
C3296 C3290 1.368 . S
C3296 C3295 1.523 . S
C3297 C3281 1.429 . S
C3297 C3293 1.429 . S
C3297 C3298 1.523 . S
C3298 C3282 1.368 . S
C3298 C3294 1.368 . S
C3298 C3297 1.523 . S
H3299 C3274 0.950 . S
H3300 C3276 0.950 . S
H3301 C3277 0.949 . S
H3302 C3279 0.950 . S
H3303 C3281 0.950 . S
C3304 C3305 1.349 . S
C3304 C3306 1.327 . S
C3304 H3329 0.950 . S
C3305 C3304 1.349 . S
C3305 C3321 1.349 . S
C3306 C3304 1.327 . S
C3306 C3325 1.429 . S
C3306 H3330 0.950 . S
C3307 C3324 1.574 . S
C3307 C3326 1.368 . S
C3307 H3331 0.949 . S
H3308 C3312 0.949 . S
C3309 C3310 1.349 . S
C3309 C3311 1.327 . S
C3309 H3332 0.950 . S
C3310 C3309 1.349 . S
C3310 C3322 1.349 . S
C3311 C3309 1.327 . S
C3311 C3327 1.429 . S
C3311 H3333 0.950 . S
C3312 H3308 0.949 . S
C3312 C3320 1.574 . S
C3312 C3328 1.368 . S
H3313 C3321 0.950 . S
H3314 C3319 0.950 . S
H3315 C3320 0.949 . S
H3316 C3322 0.950 . S
H3317 C3323 0.950 . S
H3318 C3324 0.949 . S
C3319 H3314 0.950 . S
C3319 C3321 1.327 . S
C3319 C3325 1.429 . S
C3320 C3312 1.574 . S
C3320 H3315 0.949 . S
C3320 C3326 1.368 . S
C3321 C3305 1.349 . S
C3321 H3313 0.950 . S
C3321 C3319 1.327 . S
C3322 C3310 1.349 . S
C3322 H3316 0.950 . S
C3322 C3323 1.327 . S
C3323 H3317 0.950 . S
C3323 C3322 1.327 . S
C3323 C3327 1.429 . S
C3324 C3307 1.574 . S
C3324 H3318 0.949 . S
C3324 C3328 1.368 . S
C3325 C3306 1.429 . S
C3325 C3319 1.429 . S
C3325 C3326 1.523 . S
C3326 C3307 1.368 . S
C3326 C3320 1.368 . S
C3326 C3325 1.523 . S
C3327 C3311 1.429 . S
C3327 C3323 1.429 . S
C3327 C3328 1.523 . S
C3328 C3312 1.368 . S
C3328 C3324 1.368 . S
C3328 C3327 1.523 . S
H3329 C3304 0.950 . S
H3330 C3306 0.950 . S
H3331 C3307 0.949 . S
H3332 C3309 0.950 . S
H3333 C3311 0.950 . S
C3334 C3335 1.349 . S
C3334 C3336 1.327 . S
C3334 H3359 0.950 . S
C3335 C3334 1.349 . S
C3335 C3351 1.349 . S
C3336 C3334 1.327 . S
C3336 C3355 1.429 . S
C3336 H3360 0.950 . S
C3337 C3354 1.574 . S
C3337 C3356 1.368 . S
C3337 H3361 0.949 . S
H3338 C3342 0.949 . S
C3339 C3340 1.349 . S
C3339 C3341 1.327 . S
C3339 H3362 0.950 . S
C3340 C3339 1.349 . S
C3340 C3352 1.349 . S
C3341 C3339 1.327 . S
C3341 C3357 1.429 . S
C3341 H3363 0.950 . S
C3342 H3338 0.949 . S
C3342 C3350 1.574 . S
C3342 C3358 1.368 . S
H3343 C3351 0.950 . S
H3344 C3349 0.950 . S
H3345 C3350 0.949 . S
H3346 C3352 0.950 . S
H3347 C3353 0.950 . S
H3348 C3354 0.949 . S
C3349 H3344 0.950 . S
C3349 C3351 1.327 . S
C3349 C3355 1.429 . S
C3350 C3342 1.574 . S
C3350 H3345 0.949 . S
C3350 C3356 1.368 . S
C3351 C3335 1.349 . S
C3351 H3343 0.950 . S
C3351 C3349 1.327 . S
C3352 C3340 1.349 . S
C3352 H3346 0.950 . S
C3352 C3353 1.327 . S
C3353 H3347 0.950 . S
C3353 C3352 1.327 . S
C3353 C3357 1.429 . S
C3354 C3337 1.574 . S
C3354 H3348 0.949 . S
C3354 C3358 1.368 . S
C3355 C3336 1.429 . S
C3355 C3349 1.429 . S
C3355 C3356 1.523 . S
C3356 C3337 1.368 . S
C3356 C3350 1.368 . S
C3356 C3355 1.523 . S
C3357 C3341 1.429 . S
C3357 C3353 1.429 . S
C3357 C3358 1.523 . S
C3358 C3342 1.368 . S
C3358 C3354 1.368 . S
C3358 C3357 1.523 . S
H3359 C3334 0.950 . S
H3360 C3336 0.950 . S
H3361 C3337 0.949 . S
H3362 C3339 0.950 . S
H3363 C3341 0.950 . S
C3364 C3365 1.349 . S
C3364 C3366 1.327 . S
C3364 H3389 0.950 . S
C3365 C3364 1.349 . S
C3365 C3381 1.349 . S
C3366 C3364 1.327 . S
C3366 C3385 1.429 . S
C3366 H3390 0.950 . S
C3367 C3384 1.574 . S
C3367 C3386 1.368 . S
C3367 H3391 0.949 . S
H3368 C3372 0.949 . S
C3369 C3370 1.349 . S
C3369 C3371 1.327 . S
C3369 H3392 0.950 . S
C3370 C3369 1.349 . S
C3370 C3382 1.349 . S
C3371 C3369 1.327 . S
C3371 C3387 1.429 . S
C3371 H3393 0.950 . S
C3372 H3368 0.949 . S
C3372 C3380 1.574 . S
C3372 C3388 1.368 . S
H3373 C3381 0.950 . S
H3374 C3379 0.950 . S
H3375 C3380 0.949 . S
H3376 C3382 0.950 . S
H3377 C3383 0.950 . S
H3378 C3384 0.949 . S
C3379 H3374 0.950 . S
C3379 C3381 1.327 . S
C3379 C3385 1.429 . S
C3380 C3372 1.574 . S
C3380 H3375 0.949 . S
C3380 C3386 1.368 . S
C3381 C3365 1.349 . S
C3381 H3373 0.950 . S
C3381 C3379 1.327 . S
C3382 C3370 1.349 . S
C3382 H3376 0.950 . S
C3382 C3383 1.327 . S
C3383 H3377 0.950 . S
C3383 C3382 1.327 . S
C3383 C3387 1.429 . S
C3384 C3367 1.574 . S
C3384 H3378 0.949 . S
C3384 C3388 1.368 . S
C3385 C3366 1.429 . S
C3385 C3379 1.429 . S
C3385 C3386 1.523 . S
C3386 C3367 1.368 . S
C3386 C3380 1.368 . S
C3386 C3385 1.523 . S
C3387 C3371 1.429 . S
C3387 C3383 1.429 . S
C3387 C3388 1.523 . S
C3388 C3372 1.368 . S
C3388 C3384 1.368 . S
C3388 C3387 1.523 . S
H3389 C3364 0.950 . S
H3390 C3366 0.950 . S
H3391 C3367 0.949 . S
H3392 C3369 0.950 . S
H3393 C3371 0.950 . S
C3394 C3395 1.349 . S
C3394 C3396 1.327 . S
C3394 H3419 0.950 . S
C3395 C3394 1.349 . S
C3395 C3411 1.349 . S
C3396 C3394 1.327 . S
C3396 C3415 1.429 . S
C3396 H3420 0.950 . S
C3397 C3414 1.574 . S
C3397 C3416 1.368 . S
C3397 H3421 0.949 . S
H3398 C3402 0.949 . S
C3399 C3400 1.349 . S
C3399 C3401 1.327 . S
C3399 H3422 0.950 . S
C3400 C3399 1.349 . S
C3400 C3412 1.349 . S
C3401 C3399 1.327 . S
C3401 C3417 1.429 . S
C3401 H3423 0.950 . S
C3402 H3398 0.949 . S
C3402 C3410 1.574 . S
C3402 C3418 1.368 . S
H3403 C3411 0.950 . S
H3404 C3409 0.950 . S
H3405 C3410 0.949 . S
H3406 C3412 0.950 . S
H3407 C3413 0.950 . S
H3408 C3414 0.949 . S
C3409 H3404 0.950 . S
C3409 C3411 1.327 . S
C3409 C3415 1.429 . S
C3410 C3402 1.574 . S
C3410 H3405 0.949 . S
C3410 C3416 1.368 . S
C3411 C3395 1.349 . S
C3411 H3403 0.950 . S
C3411 C3409 1.327 . S
C3412 C3400 1.349 . S
C3412 H3406 0.950 . S
C3412 C3413 1.327 . S
C3413 H3407 0.950 . S
C3413 C3412 1.327 . S
C3413 C3417 1.429 . S
C3414 C3397 1.574 . S
C3414 H3408 0.949 . S
C3414 C3418 1.368 . S
C3415 C3396 1.429 . S
C3415 C3409 1.429 . S
C3415 C3416 1.523 . S
C3416 C3397 1.368 . S
C3416 C3410 1.368 . S
C3416 C3415 1.523 . S
C3417 C3401 1.429 . S
C3417 C3413 1.429 . S
C3417 C3418 1.523 . S
C3418 C3402 1.368 . S
C3418 C3414 1.368 . S
C3418 C3417 1.523 . S
H3419 C3394 0.950 . S
H3420 C3396 0.950 . S
H3421 C3397 0.949 . S
H3422 C3399 0.950 . S
H3423 C3401 0.950 . S
C3424 C3425 1.349 . S
C3424 C3426 1.327 . S
C3424 H3449 0.950 . S
C3425 C3424 1.349 . S
C3425 C3441 1.349 . S
C3426 C3424 1.327 . S
C3426 C3445 1.429 . S
C3426 H3450 0.950 . S
C3427 C3444 1.574 . S
C3427 C3446 1.368 . S
C3427 H3451 0.949 . S
H3428 C3432 0.949 . S
C3429 C3430 1.349 . S
C3429 C3431 1.327 . S
C3429 H3452 0.950 . S
C3430 C3429 1.349 . S
C3430 C3442 1.349 . S
C3431 C3429 1.327 . S
C3431 C3447 1.429 . S
C3431 H3453 0.950 . S
C3432 H3428 0.949 . S
C3432 C3440 1.574 . S
C3432 C3448 1.368 . S
H3433 C3441 0.950 . S
H3434 C3439 0.950 . S
H3435 C3440 0.949 . S
H3436 C3442 0.950 1_565 S
H3437 C3443 0.950 . S
H3438 C3444 0.949 . S
C3439 H3434 0.950 . S
C3439 C3441 1.327 . S
C3439 C3445 1.429 . S
C3440 C3432 1.574 . S
C3440 H3435 0.949 . S
C3440 C3446 1.368 . S
C3441 C3425 1.349 . S
C3441 H3433 0.950 . S
C3441 C3439 1.327 . S
C3442 C3430 1.349 . S
C3442 H3436 0.950 1_545 S
C3442 C3443 1.327 . S
C3443 H3437 0.950 . S
C3443 C3442 1.327 . S
C3443 C3447 1.429 . S
C3444 C3427 1.574 . S
C3444 H3438 0.949 . S
C3444 C3448 1.368 . S
C3445 C3426 1.429 . S
C3445 C3439 1.429 . S
C3445 C3446 1.523 . S
C3446 C3427 1.368 . S
C3446 C3440 1.368 . S
C3446 C3445 1.523 . S
C3447 C3431 1.429 . S
C3447 C3443 1.429 . S
C3447 C3448 1.523 . S
C3448 C3432 1.368 . S
C3448 C3444 1.368 . S
C3448 C3447 1.523 . S
H3449 C3424 0.950 . S
H3450 C3426 0.950 . S
H3451 C3427 0.949 . S
H3452 C3429 0.950 . S
H3453 C3431 0.950 . S
C3454 C3455 1.349 . S
C3454 C3456 1.327 . S
C3454 H3479 0.950 . S
C3455 C3454 1.349 . S
C3455 C3471 1.349 . S
C3456 C3454 1.327 . S
C3456 C3475 1.429 . S
C3456 H3480 0.950 . S
C3457 C3474 1.574 . S
C3457 C3476 1.368 . S
C3457 H3481 0.949 . S
H3458 C3462 0.949 . S
C3459 C3460 1.349 . S
C3459 C3461 1.327 . S
C3459 H3482 0.950 . S
C3460 C3459 1.349 . S
C3460 C3472 1.349 . S
C3461 C3459 1.327 . S
C3461 C3477 1.429 . S
C3461 H3483 0.950 . S
C3462 H3458 0.949 . S
C3462 C3470 1.574 . S
C3462 C3478 1.368 . S
H3463 C3471 0.950 . S
H3464 C3469 0.950 . S
H3465 C3470 0.949 . S
H3466 C3472 0.950 . S
H3467 C3473 0.950 . S
H3468 C3474 0.949 . S
C3469 H3464 0.950 . S
C3469 C3471 1.327 . S
C3469 C3475 1.429 . S
C3470 C3462 1.574 . S
C3470 H3465 0.949 . S
C3470 C3476 1.368 . S
C3471 C3455 1.349 . S
C3471 H3463 0.950 . S
C3471 C3469 1.327 . S
C3472 C3460 1.349 . S
C3472 H3466 0.950 . S
C3472 C3473 1.327 . S
C3473 H3467 0.950 . S
C3473 C3472 1.327 . S
C3473 C3477 1.429 . S
C3474 C3457 1.574 . S
C3474 H3468 0.949 . S
C3474 C3478 1.368 . S
C3475 C3456 1.429 . S
C3475 C3469 1.429 . S
C3475 C3476 1.523 . S
C3476 C3457 1.368 . S
C3476 C3470 1.368 . S
C3476 C3475 1.523 . S
C3477 C3461 1.429 . S
C3477 C3473 1.429 . S
C3477 C3478 1.523 . S
C3478 C3462 1.368 . S
C3478 C3474 1.368 . S
C3478 C3477 1.523 . S
H3479 C3454 0.950 . S
H3480 C3456 0.950 . S
H3481 C3457 0.949 . S
H3482 C3459 0.950 . S
H3483 C3461 0.950 . S
C3484 C3485 1.349 1_556 S
C3484 C3486 1.327 . S
C3484 H3509 0.950 . S
C3485 C3484 1.349 1_554 S
C3485 C3501 1.351 . S
C3486 C3484 1.327 . S
C3486 C3505 1.429 . S
C3486 H3510 0.950 . S
C3487 C3504 1.574 . S
C3487 C3506 1.368 . S
C3487 H3511 0.949 . S
H3488 C3492 0.949 . S
C3489 C3490 1.349 . S
C3489 C3491 1.327 . S
C3489 H3512 0.950 1_565 S
C3490 C3489 1.349 . S
C3490 C3502 1.349 . S
C3491 C3489 1.327 . S
C3491 C3507 1.429 . S
C3491 H3513 0.950 . S
C3492 H3488 0.949 . S
C3492 C3500 1.574 . S
C3492 C3508 1.368 . S
H3493 C3501 0.957 . S
H3494 C3499 0.950 . S
H3495 C3500 0.949 . S
H3496 C3502 0.950 . S
H3497 C3503 0.950 . S
H3498 C3504 0.949 . S
C3499 H3494 0.950 . S
C3499 C3501 1.318 1_556 S
C3499 C3505 1.429 . S
C3500 C3492 1.574 . S
C3500 H3495 0.949 . S
C3500 C3506 1.368 . S
C3501 C3485 1.351 . S
C3501 H3493 0.957 . S
C3501 C3499 1.318 1_554 S
C3502 C3490 1.349 . S
C3502 H3496 0.950 . S
C3502 C3503 1.327 . S
C3503 H3497 0.950 . S
C3503 C3502 1.327 . S
C3503 C3507 1.429 . S
C3504 C3487 1.574 . S
C3504 H3498 0.949 . S
C3504 C3508 1.368 . S
C3505 C3486 1.429 . S
C3505 C3499 1.429 . S
C3505 C3506 1.523 . S
C3506 C3487 1.368 . S
C3506 C3500 1.368 . S
C3506 C3505 1.523 . S
C3507 C3491 1.429 . S
C3507 C3503 1.429 . S
C3507 C3508 1.523 . S
C3508 C3492 1.368 . S
C3508 C3504 1.368 . S
C3508 C3507 1.523 . S
H3509 C3484 0.950 . S
H3510 C3486 0.950 . S
H3511 C3487 0.949 . S
H3512 C3489 0.950 1_545 S
H3513 C3491 0.950 . S
C3514 C3515 1.349 . S
C3514 C3516 1.327 . S
C3514 H3539 0.950 . S
C3515 C3514 1.349 . S
C3515 C3531 1.349 . S
C3516 C3514 1.327 . S
C3516 C3535 1.429 . S
C3516 H3540 0.950 . S
C3517 C3534 1.574 . S
C3517 C3536 1.368 . S
C3517 H3541 0.949 . S
H3518 C3522 0.949 . S
C3519 C3520 1.349 . S
C3519 C3521 1.327 . S
C3519 H3542 0.950 . S
C3520 C3519 1.349 . S
C3520 C3532 1.349 . S
C3521 C3519 1.327 . S
C3521 C3537 1.429 . S
C3521 H3543 0.950 . S
C3522 H3518 0.949 . S
C3522 C3530 1.574 . S
C3522 C3538 1.368 . S
H3523 C3531 0.950 . S
H3524 C3529 0.950 . S
H3525 C3530 0.949 . S
H3526 C3532 0.950 . S
H3527 C3533 0.950 . S
H3528 C3534 0.949 . S
C3529 H3524 0.950 . S
C3529 C3531 1.327 . S
C3529 C3535 1.429 . S
C3530 C3522 1.574 . S
C3530 H3525 0.949 . S
C3530 C3536 1.368 . S
C3531 C3515 1.349 . S
C3531 H3523 0.950 . S
C3531 C3529 1.327 . S
C3532 C3520 1.349 . S
C3532 H3526 0.950 . S
C3532 C3533 1.327 . S
C3533 H3527 0.950 . S
C3533 C3532 1.327 . S
C3533 C3537 1.429 . S
C3534 C3517 1.574 . S
C3534 H3528 0.949 . S
C3534 C3538 1.368 . S
C3535 C3516 1.429 . S
C3535 C3529 1.429 . S
C3535 C3536 1.523 . S
C3536 C3517 1.368 . S
C3536 C3530 1.368 . S
C3536 C3535 1.523 . S
C3537 C3521 1.429 . S
C3537 C3533 1.429 . S
C3537 C3538 1.523 . S
C3538 C3522 1.368 . S
C3538 C3534 1.368 . S
C3538 C3537 1.523 . S
H3539 C3514 0.950 . S
H3540 C3516 0.950 . S
H3541 C3517 0.949 . S
H3542 C3519 0.950 . S
H3543 C3521 0.950 . S
C3544 C3545 1.357 . S
C3544 C3546 1.327 . S
C3544 H3569 0.950 1_554 S
C3545 C3544 1.357 . S
C3545 C3561 1.373 . S
C3546 C3544 1.327 . S
C3546 C3565 1.429 . S
C3546 H3570 0.950 . S
C3547 C3564 1.574 . S
C3547 C3566 1.368 . S
C3547 H3571 0.949 . S
H3548 C3552 0.949 . S
C3549 C3550 1.349 . S
C3549 C3551 1.327 . S
C3549 H3572 0.950 . S
C3550 C3549 1.349 . S
C3550 C3562 1.349 . S
C3551 C3549 1.327 . S
C3551 C3567 1.429 . S
C3551 H3573 0.950 . S
C3552 H3548 0.949 . S
C3552 C3560 1.574 . S
C3552 C3568 1.368 . S
H3553 C3561 0.950 . S
H3554 C3559 0.950 . S
H3555 C3560 0.949 . S
H3556 C3562 0.950 1_545 S
H3557 C3563 0.957 . S
H3558 C3564 0.949 . S
C3559 H3554 0.950 . S
C3559 C3561 1.327 . S
C3559 C3565 1.429 . S
C3560 C3552 1.574 . S
C3560 H3555 0.949 . S
C3560 C3566 1.368 . S
C3561 C3545 1.373 . S
C3561 H3553 0.950 . S
C3561 C3559 1.327 . S
C3562 C3550 1.349 . S
C3562 H3556 0.950 1_565 S
C3562 C3563 1.327 . S
C3563 H3557 0.957 . S
C3563 C3562 1.327 . S
C3563 C3567 1.429 . S
C3564 C3547 1.574 . S
C3564 H3558 0.949 . S
C3564 C3568 1.368 . S
C3565 C3546 1.429 . S
C3565 C3559 1.429 . S
C3565 C3566 1.523 . S
C3566 C3547 1.368 . S
C3566 C3560 1.368 . S
C3566 C3565 1.523 . S
C3567 C3551 1.429 . S
C3567 C3563 1.429 . S
C3567 C3568 1.523 . S
C3568 C3552 1.368 . S
C3568 C3564 1.368 . S
C3568 C3567 1.523 . S
H3569 C3544 0.950 1_556 S
H3570 C3546 0.950 . S
H3571 C3547 0.949 . S
H3572 C3549 0.950 . S
H3573 C3551 0.950 . S
C3574 C3575 1.349 1_554 S
C3574 C3576 1.327 . S
C3574 H3599 0.950 1_554 S
C3575 C3574 1.349 1_556 S
C3575 C3591 1.349 1_556 S
C3576 C3574 1.327 . S
C3576 C3595 1.429 . S
C3576 H3600 0.950 . S
C3577 C3594 1.574 . S
C3577 C3596 1.368 . S
C3577 H3601 0.949 . S
H3578 C3582 0.949 . S
C3579 C3580 1.349 . S
C3579 C3581 1.327 . S
C3579 H3602 0.950 . S
C3580 C3579 1.349 . S
C3580 C3592 1.349 . S
C3581 C3579 1.327 . S
C3581 C3597 1.429 . S
C3581 H3603 0.950 . S
C3582 H3578 0.949 . S
C3582 C3590 1.574 . S
C3582 C3598 1.368 . S
H3583 C3591 0.950 . S
H3584 C3589 0.950 . S
H3585 C3590 0.949 . S
H3586 C3592 0.950 . S
H3587 C3593 0.950 . S
H3588 C3594 0.949 . S
C3589 H3584 0.950 . S
C3589 C3591 1.327 . S
C3589 C3595 1.429 . S
C3590 C3582 1.574 . S
C3590 H3585 0.949 . S
C3590 C3596 1.368 . S
C3591 C3575 1.349 1_554 S
C3591 H3583 0.950 . S
C3591 C3589 1.327 . S
C3592 C3580 1.349 . S
C3592 H3586 0.950 . S
C3592 C3593 1.327 . S
C3593 H3587 0.950 . S
C3593 C3592 1.327 . S
C3593 C3597 1.429 . S
C3594 C3577 1.574 . S
C3594 H3588 0.949 . S
C3594 C3598 1.368 . S
C3595 C3576 1.429 . S
C3595 C3589 1.429 . S
C3595 C3596 1.523 . S
C3596 C3577 1.368 . S
C3596 C3590 1.368 . S
C3596 C3595 1.523 . S
C3597 C3581 1.429 . S
C3597 C3593 1.429 . S
C3597 C3598 1.523 . S
C3598 C3582 1.368 . S
C3598 C3594 1.368 . S
C3598 C3597 1.523 . S
H3599 C3574 0.950 1_556 S
H3600 C3576 0.950 . S
H3601 C3577 0.949 . S
H3602 C3579 0.950 . S
H3603 C3581 0.950 . S
C730 C381 1.073 . S
C725 C226 1.106 . S
C760 C384 1.552 . S
C755 C269 1.626 . S
C790 C372 0.958 . S
C785 C250 0.978 . S
C815 C205 1.782 . S
C820 C385 1.682 . S
C850 C416 1.083 . S
C845 C115 1.114 . S
C875 C136 1.794 . S
C880 C443 1.693 . S
C910 C415 0.967 . S
C905 C158 0.985 . S
C935 C97 1.639 . S
C940 C434 1.560 . S
C965 C314 1.129 . S
C970 C447 1.093 . S
C995 C336 1.743 . S
C1000 C478 1.646 . S
C1030 C536 1.087 . S
C1025 C180 1.120 . S
C1060 C558 1.595 . S
C1055 C294 1.673 . S
C1090 C446 0.955 . S
C1085 C70 0.972 . S
C1120 C477 1.600 . S
C1115 C6 1.673 . S
C1145 C31 0.963 . S
C1150 C527 0.946 . S
C1175 C53 1.748 . S
C1180 C567 1.650 . S
C1205 C29 1.129 . S
C1210 C505 1.092 . S
C1240 C571 1.114 . S
C1235 C181 1.148 . S
C1265 C293 1.763 . S
C1270 C602 1.665 . S
C1300 C651 0.946 . S
C1295 C312 0.963 . S
C1325 C137 1.778 . S
C1330 C509 1.676 . S
C1360 C570 0.929 . S
C1355 C225 0.945 . S
C1390 C601 1.566 . S
C1385 C270 1.641 . S
C1420 C682 1.580 . S
C1415 C206 1.659 . S
C1445 C72 1.106 . S
C1450 C412 1.073 . S
C1475 C4 1.626 . S
C1480 C353 1.549 . S
C1510 C403 0.958 . S
C1505 C30 0.978 . S
C1535 C51 1.782 . S
C1540 C354 1.685 . S
C1565 C313 1.114 . S
C1570 C695 1.083 . S
C1595 C334 1.794 . S
C1600 C722 1.691 . S
C1630 C694 0.967 . S
C1625 C182 0.985 . S
C1655 C295 1.639 . S
C1660 C713 1.562 . S
C1685 C116 1.129 . S
C1690 C629 1.097 . S
C1720 C633 1.642 . S
C1715 C138 1.743 . S
C1750 C664 1.087 . S
C1745 C159 1.120 . S
C1780 C589 1.595 . S
C1775 C96 1.673 . S
C1810 C620 0.955 . S
C1805 C224 0.973 . S
C1835 C268 1.676 . S
C1840 C632 1.600 . S
C1865 C251 0.963 . S
C1870 C663 0.946 . S
C1900 C598 1.650 . S
C1895 C207 1.748 . S
C1925 C249 1.129 . S
C1930 C660 1.095 . S
C1960 C540 1.114 . S
C1955 C160 1.148 . S
C1985 C95 1.763 . S
C1990 C474 1.669 . S
C2015 C114 0.964 . S
C2020 C496 0.950 . S
C2045 C335 1.778 . S
C2050 C691 1.676 . S
C2075 C71 0.945 . S
C2080 C539 0.929 . S
C2105 C5 1.641 . S
C2110 C465 1.562 . S
C2140 C508 1.580 . S
C2135 C52 1.659 . S
C2170 C352 1.388 . S
C2165 C339 1.333 . S
C2200 C402 1.946 . S
C2195 C184 1.924 . S
C2230 C362 1.238 . S
C2225 C290 1.251 . S
C2260 C413 1.826 . S
C2255 C317 1.837 . S
C2290 C433 1.354 . S
C2285 C204 1.303 . S
C2315 C228 1.811 . S
C2320 C424 1.797 . S
C2345 C272 1.217 . S
C2350 C444 1.211 . S
C2375 C248 1.897 . S
C2380 C414 1.918 . S
C2410 C464 1.348 . S
C2405 C49 1.292 . S
C2440 C506 1.793 . S
C2435 C75 1.802 . S
C2465 C8 1.285 . S
C2470 C507 1.335 . S
C2500 C538 1.916 . S
C2495 C26 1.896 . S
C2525 C140 1.268 . S
C2530 C475 1.263 . S
C2560 C495 1.949 . S
C2555 C162 1.933 . S
C2590 C517 1.245 . S
C2585 C94 1.255 . S
C2615 C117 1.839 . S
C2620 C548 1.827 . S
C2650 C476 1.302 . S
C2645 C93 1.249 . S
C2675 C7 1.257 . S
C2680 C588 1.305 . S
C2705 C27 1.817 . S
C2710 C630 1.807 . S
C2735 C48 1.297 . S
C2740 C641 1.287 . S
C2770 C537 1.834 . S
C2765 C227 1.846 . S
C2800 C599 1.284 . S
C2795 C337 1.296 . S
C2825 C183 1.889 . S
C2830 C619 1.909 . S
C2860 C662 1.937 . S
C2855 C316 1.918 . S
C2890 C383 1.388 . S
C2885 C141 1.337 . S
C2915 C161 1.922 . S
C2920 C371 1.947 . S
C2945 C92 1.247 . S
C2950 C393 1.238 . S
C2975 C119 1.837 . S
C2980 C382 1.825 . S
C3010 C712 1.354 . S
C3005 C50 1.306 . S
C3040 C703 1.798 . S
C3035 C74 1.811 . S
C3065 C9 1.217 . S
C3070 C723 1.208 . S
C3095 C28 1.897 . S
C3100 C693 1.917 . S
C3125 C203 1.298 . S
C3130 C600 1.348 . S
C3160 C661 1.793 . S
C3155 C229 1.804 . S
C3190 C681 1.335 . S
C3185 C271 1.285 . S
C3215 C246 1.893 . S
C3220 C569 1.916 . S
C3250 C610 1.257 . S
C3245 C338 1.268 . S
C3275 C185 1.931 . S
C3280 C650 1.949 . S
C3310 C692 1.245 . S
C3305 C292 1.255 . S
C3335 C315 1.839 . S
C3340 C579 1.827 . S
C3365 C291 1.255 . S
C3370 C631 1.302 . S
C3395 C273 1.257 . S
C3400 C557 1.305 . S
C3430 C455 1.807 . S
C3425 C247 1.816 . S
C3455 C202 1.297 . S
C3460 C486 1.293 . S
C3485 C73 1.846 . S
C3490 C672 1.834 . S
C3515 C139 1.296 . S
C3520 C568 1.284 . S
C3550 C445 1.909 . S
C3545 C163 1.859 1_554 S
C3575 C118 1.918 . S
C3580 C526 1.937 . S
