# Generated by pormake.
# Topology nia, (6,6)-cn, num edge types: 1
# Building blocks:
#     Node 0, Type 0, BuildingBlock: NUHQIS_clean_sbu_0, # of connection points: 6
#     Node 1, Type 0, BuildingBlock: NUHQIS_clean_sbu_0, # of connection points: 6
#     Node 2, Type 1, BuildingBlock: MIDCAF_clean_sbu_0, # of connection points: 6
#     Node 3, Type 1, BuildingBlock: MIDCAF_clean_sbu_0, # of connection points: 6
#     Edge 4, Type (0, 1), BuildingBlock: CIFDUS_clean_linker_0, # of connection points: 2
#     Edge 5, Type (0, 1), BuildingBlock: CIFDUS_clean_linker_0, # of connection points: 2
#     Edge 6, Type (0, 1), BuildingBlock: CIFDUS_clean_linker_0, # of connection points: 2
#     Edge 7, Type (0, 1), BuildingBlock: CIFDUS_clean_linker_0, # of connection points: 2
#     Edge 8, Type (0, 1), BuildingBlock: CIFDUS_clean_linker_0, # of connection points: 2
#     Edge 9, Type (0, 1), BuildingBlock: CIFDUS_clean_linker_0, # of connection points: 2
#     Edge 10, Type (0, 1), BuildingBlock: CIFDUS_clean_linker_0, # of connection points: 2
#     Edge 11, Type (0, 1), BuildingBlock: CIFDUS_clean_linker_0, # of connection points: 2
#     Edge 12, Type (0, 1), BuildingBlock: CIFDUS_clean_linker_0, # of connection points: 2
#     Edge 13, Type (0, 1), BuildingBlock: CIFDUS_clean_linker_0, # of connection points: 2
#     Edge 14, Type (0, 1), BuildingBlock: CIFDUS_clean_linker_0, # of connection points: 2
#     Edge 15, Type (0, 1), BuildingBlock: CIFDUS_clean_linker_0, # of connection points: 2
# Relax obj value: 0.217
# Max RMSD: 0.284
# Mean RMSD: 0.217
data_MOF--net-nia--node1-NUHQIS_clean_sbu_0--node2-MIDCAF_clean_sbu_0--edge1-CIFDUS_clean_linker_0
_symmetry_space_group_name_H-M    P1
_symmetry_Int_Tables_number       1
_symmetry_cell_setting            triclinic
loop_
_symmetry_equiv_pos_as_xyz
'x, y, z'
_cell_length_a     25.92138
_cell_length_b     25.995774
_cell_length_c     28.242671
_cell_angle_alpha  91.040304
_cell_angle_beta   90.704582
_cell_angle_gamma 135.70918
loop_
_atom_site_label
_atom_site_type_symbol
_atom_site_fract_x
_atom_site_fract_y
_atom_site_fract_z
_atom_type_partial_charge
Tb0 Tb -0.01371 0.02855 0.98912 0.0
Eu1 Eu 0.01467 0.96529 0.07515 0.0
C2 C 0.12413 0.05022 0.98755 0.0
C3 C 0.93252 0.87677 0.97915 0.0
C4 C 0.92641 0.09824 0.91368 0.0
C5 C 0.88278 0.13001 0.85653 0.0
C6 C 0.9198 0.11058 0.86691 0.0
C7 C 0.89597 0.10589 0.95017 0.0
C8 C 0.859 0.12543 0.93986 0.0
C9 C 0.8515 0.13726 0.89283 0.0
C10 C 0.96407 0.07618 0.92321 0.0
O11 O 0.88398 0.95463 1.02816 0.0
O12 O 0.92647 0.95597 0.10065 0.0
O13 O 0.09797 0.08757 0.08278 0.0
O14 O 0.02283 0.09688 0.05344 0.0
C15 C 0.87543 0.94168 0.07385 0.0
O16 O -0.0089 0.8748 0.10642 0.0
O17 O 0.06349 0.98044 0.1445 0.0
O18 O 0.09511 -0.00036 1.01927 0.0
O19 O 0.09662 0.07626 0.97745 0.0
O20 O 0.96676 0.93833 0.95817 0.0
O21 O 0.92601 0.87242 1.02505 0.0
C22 C 0.07841 0.12185 0.08125 0.0
O23 O 0.02111 0.11843 0.9528 0.0
O24 O 0.92151 0.00652 0.93054 0.0
C25 C 0.08576 0.9078 0.15482 0.0
C26 C 0.17071 0.88061 0.17572 0.0
C27 C 0.13273 0.87941 0.21161 0.0
C28 C 0.0904 0.89274 0.20114 0.0
C29 C 0.12578 0.91198 0.11929 0.0
C30 C 0.1677 0.89824 0.1296 0.0
C31 C 0.03538 0.9142 0.14326 0.0
H32 H 0.87755 0.13804 0.82 0.0
H33 H 0.94282 0.10459 0.83828 0.0
H34 H 0.90065 0.09657 0.98651 0.0
H35 H 0.83669 0.13175 0.96882 0.0
H36 H 0.13485 0.8671 0.24759 0.0
H37 H 0.05991 0.88961 0.22897 0.0
H38 H 0.1227 0.92354 0.08328 0.0
H39 H 0.19538 0.89862 0.10097 0.0
Tb40 Tb 0.95418 0.00495 0.57065 0.0
Eu41 Eu 0.04362 -0.00332 0.49501 0.0
C42 C 0.95035 0.88095 0.57815 0.0
C43 C 0.1161 0.09296 0.58832 0.0
C44 C 0.85798 0.03853 0.64492 0.0
C45 C 0.81663 0.06938 0.70496 0.0
C46 C 0.84653 0.0431 0.69251 0.0
C47 C 0.83901 0.06027 0.60963 0.0
C48 C 0.80887 0.0865 0.62205 0.0
C49 C 0.79766 0.09168 0.66993 0.0
C50 C 0.89023 0.01127 0.63366 0.0
O51 O 0.01716 0.10524 0.53023 0.0
O52 O 0.04322 0.07531 0.46368 0.0
O53 O 0.92271 0.90517 0.47554 0.0
O54 O 0.89342 0.96502 0.50277 0.0
C55 C 0.04059 0.11789 0.48646 0.0
O56 O 0.14261 0.02291 0.48092 0.0
O57 O 0.05849 0.97267 0.425 0.0
O58 O 0.00941 0.91846 0.55249 0.0
O59 O 0.91377 0.89841 0.58095 0.0
O60 O 0.0511 0.04095 0.60605 0.0
O61 O 0.12247 0.09791 0.5425 0.0
C62 C 0.88004 0.91543 0.47464 0.0
O63 O 0.85555 0.95775 0.60171 0.0
O64 O 0.96164 0.0609 0.62936 0.0
C65 C 0.13321 0.95094 0.42242 0.0
C66 C 0.1632 0.86876 0.39927 0.0
C67 C 0.21974 0.94625 0.39983 0.0
C68 C 0.20475 -0.01319 0.41116 0.0
C69 C 0.07602 0.87367 0.4211 0.0
C70 C 0.09085 0.83285 0.40936 0.0
C71 C 0.12124 -0.00407 0.43747 0.0
H72 H 0.80958 0.07341 0.74209 0.0
H73 H 0.86119 0.02668 0.7202 0.0
H74 H 0.8475 0.057 0.57268 0.0
H75 H 0.7939 0.10226 0.59411 0.0
H76 H 0.27629 0.97588 0.3932 0.0
H77 H 0.24959 0.0465 0.41229 0.0
H78 H 0.02037 0.84501 0.42984 0.0
H79 H 0.04585 0.77326 0.40871 0.0
Zn80 Zn 0.34578 0.62676 0.18942 0.0
Zn81 Zn 0.37138 0.64402 0.37383 0.0
Zn82 Zn 0.3626 0.63063 0.28096 0.0
C83 C 0.51215 0.71947 0.33971 0.0
C84 C 0.27117 0.49351 0.35339 0.0
O85 O 0.31501 0.67236 0.25922 0.0
O86 O 0.31149 0.67298 0.18085 0.0
C87 C 0.49461 0.70992 0.20522 0.0
O88 O 0.47947 0.70008 0.29872 0.0
O89 O 0.47712 0.70049 0.37723 0.0
O90 O 0.29794 0.53921 0.38764 0.0
O91 O 0.29025 0.51653 0.31066 0.0
O92 O 0.44761 0.68449 0.17212 0.0
O93 O 0.47405 0.69546 0.24864 0.0
O94 O 0.28396 0.51333 0.26037 0.0
O95 O 0.27054 0.51846 0.18343 0.0
C96 C 0.25364 0.48147 0.21937 0.0
O97 O 0.33254 0.68721 0.30797 0.0
O98 O 0.34385 0.69652 0.38632 0.0
C99 C 0.29946 0.68516 0.22043 0.0
C100 C 0.32911 0.70888 0.34819 0.0
Zn101 Zn 0.64581 0.35864 0.86519 0.0
Zn102 Zn 0.62716 0.35841 0.68471 0.0
Zn103 Zn 0.6322 0.36127 0.77501 0.0
C104 C 0.72436 0.50474 0.70739 0.0
C105 C 0.48612 0.28363 0.71726 0.0
O106 O 0.6827 0.32013 0.79262 0.0
O107 O 0.68599 0.318 0.87083 0.0
C108 C 0.73135 0.50552 0.84132 0.0
O109 O 0.70096 0.47699 0.74881 0.0
O110 O 0.70431 0.46355 0.67168 0.0
O111 O 0.52422 0.30962 0.68069 0.0
O112 O 0.51525 0.29265 0.75783 0.0
O113 O 0.71488 0.46604 0.87564 0.0
O114 O 0.70519 0.47649 0.79925 0.0
O115 O 0.51962 0.29176 0.80737 0.0
O116 O 0.54289 0.2941 0.88337 0.0
C117 C 0.49728 0.27222 0.85021 0.0
O118 O 0.66848 0.31157 0.74369 0.0
O119 O 0.64872 0.30283 0.66614 0.0
C120 C 0.69867 0.30694 0.83107 0.0
C121 C 0.66938 0.2919 0.70159 0.0
H122 H 0.12535 0.7696 0.2302 0.0
H123 H 0.30305 0.9429 0.14229 0.0
H124 H 0.35902 0.89791 0.14939 0.0
H125 H 0.35357 0.80512 0.17649 0.0
H126 H 0.17932 0.63439 0.26645 0.0
H127 H 0.12586 0.68299 0.26315 0.0
C128 C 0.1771 0.79849 0.21337 0.0
C129 C 0.20944 0.85901 0.18522 0.0
C130 C 0.20905 0.77236 0.21763 0.0
C131 C 0.27619 0.8953 0.16334 0.0
C132 C 0.30837 0.86978 0.16748 0.0
C133 C 0.30409 0.77902 0.1955 0.0
C134 C 0.26992 0.71652 0.22149 0.0
C135 C 0.27448 0.80755 0.19369 0.0
C136 C 0.20616 0.68277 0.24627 0.0
C137 C 0.17571 0.7104 0.24426 0.0
H138 H 0.14833 0.06035 0.66707 0.0
H139 H 0.23413 0.23751 0.57646 0.0
H140 H 0.35523 0.31795 0.61663 0.0
H141 H 0.44027 0.33091 0.66745 0.0
H142 H 0.36111 0.15213 0.75311 0.0
H143 H 0.23323 0.07937 0.72612 0.0
C144 C 0.19332 0.11716 0.65715 0.0
C145 C 0.18329 0.1433 0.61877 0.0
C146 C 0.26375 0.16219 0.6792 0.0
C147 C 0.24145 0.2165 0.60566 0.0
C148 C 0.31048 0.26233 0.62853 0.0
C149 C 0.39468 0.27651 0.68092 0.0
C150 C 0.40929 0.24619 0.71163 0.0
C151 C 0.32286 0.23471 0.66381 0.0
C152 C 0.3505 0.17624 0.72943 0.0
C153 C 0.27776 0.13462 0.71364 0.0
H154 H 0.0274 0.17706 0.11459 0.0
H155 H 0.21526 0.20896 0.12222 0.0
H156 H 0.28115 0.31618 0.17572 0.0
H157 H 0.29091 0.40905 0.21268 0.0
H158 H 0.10624 0.38111 0.2026 0.0
H159 H 0.03221 0.26266 0.1594 0.0
C160 C 0.08272 0.20757 0.12802 0.0
C161 C 0.117 0.18615 0.1138 0.0
C162 C 0.12021 0.26897 0.1591 0.0
C163 C 0.18801 0.22496 0.13229 0.0
C164 C 0.22565 0.28606 0.16306 0.0
C165 C 0.2334 0.37518 0.20273 0.0
C166 C 0.20309 0.40219 0.2113 0.0
C167 C 0.19285 0.30934 0.176 0.0
C168 C 0.12957 0.35982 0.19711 0.0
C169 C 0.08789 0.29298 0.17172 0.0
H170 H 0.83158 0.20801 0.63291 0.0
H171 H 0.69754 0.04349 0.73802 0.0
H172 H 0.64792 0.09261 0.75906 0.0
H173 H 0.63831 0.17942 0.74465 0.0
H174 H 0.77157 0.34144 0.6383 0.0
H175 H 0.82428 0.29503 0.6198 0.0
C176 C 0.79078 0.18217 0.65999 0.0
C177 C 0.76773 0.12161 0.68334 0.0
C178 C 0.76186 0.20996 0.67146 0.0
C179 C 0.71646 0.09033 0.71945 0.0
C180 C 0.68763 0.11804 0.73132 0.0
C181 C 0.67939 0.20467 0.71782 0.0
C182 C 0.7017 0.26393 0.69308 0.0
C183 C 0.70938 0.17744 0.70721 0.0
C184 C 0.7539 0.29574 0.65778 0.0
C185 C 0.78409 0.26937 0.64724 0.0
H186 H 0.82419 0.88143 0.16141 0.0
H187 H 0.76666 0.92328 0.03405 0.0
H188 H 0.647 0.85975 0.06543 0.0
H189 H 0.55644 0.78752 0.12633 0.0
H190 H 0.60806 0.73941 0.25294 0.0
H191 H 0.73294 0.81162 0.22507 0.0
C192 C 0.78573 0.87719 0.14067 0.0
C193 C 0.8046 0.90687 0.0951 0.0
C194 C 0.71604 0.83962 0.15883 0.0
C195 C 0.7538 0.90063 0.06888 0.0
C196 C 0.6852 0.86431 0.08685 0.0
C197 C 0.59489 0.79278 0.1481 0.0
C198 C 0.57272 0.75801 0.19185 0.0
C199 C 0.66541 0.83274 0.13135 0.0
C200 C 0.62385 0.76643 0.21962 0.0
C201 C 0.69503 0.80712 0.20334 0.0
H202 H 0.83937 0.80023 0.64101 0.0
H203 H -0.00083 0.81586 0.57461 0.0
H204 H 0.94956 0.70615 0.61475 0.0
H205 H 0.85402 0.59973 0.66349 0.0
H206 H 0.68923 0.57963 0.72456 0.0
H207 H 0.74884 0.69819 0.69327 0.0
C208 C 0.8638 0.78005 0.6354 0.0
C209 C 0.92264 0.81618 0.60427 0.0
C210 C 0.83477 0.71667 0.65848 0.0
C211 C 0.9537 0.78922 0.59801 0.0
C212 C 0.92538 0.72642 0.62106 0.0
C213 C 0.8328 0.62276 0.67118 0.0
C214 C 0.76961 0.58297 0.69853 0.0
C215 C 0.86525 0.68909 0.65082 0.0
C216 C 0.74057 0.61154 0.70649 0.0
C217 C 0.77359 0.67843 0.68742 0.0
H218 H 0.25974 0.89616 0.33695 0.0
H219 H 0.10776 0.74636 0.44448 0.0
H220 H 0.14435 0.68267 0.4368 0.0
H221 H 0.22414 0.6733 0.40284 0.0
H222 H 0.3812 0.8266 0.29901 0.0
H223 H 0.33988 0.88695 0.303 0.0
C224 C 0.2349 0.84987 0.35894 0.0
C225 C 0.18115 0.82635 0.39135 0.0
C226 C 0.25789 0.81485 0.35548 0.0
C227 C 0.14839 0.76512 0.41872 0.0
C228 C 0.16989 0.72909 0.41478 0.0
C229 C 0.24912 0.71996 0.38116 0.0
C230 C 0.30479 0.74534 0.35034 0.0
C231 C 0.22524 0.75411 0.38381 0.0
C232 C 0.33749 0.80593 0.32253 0.0
C233 C 0.31404 0.84037 0.32493 0.0
H234 H 0.18546 0.1341 0.90868 0.0
H235 H 0.2141 0.03384 1.01089 0.0
H236 H 0.32776 0.088 0.97405 0.0
H237 H 0.42337 0.17014 0.91662 0.0
H238 H 0.39815 0.27257 0.81449 0.0
H239 H 0.27791 0.20976 0.84657 0.0
C240 C 0.21641 0.12386 0.92282 0.0
C241 C 0.19134 0.08046 0.96303 0.0
C242 C 0.28206 0.15511 0.90121 0.0
C243 C 0.23184 0.06709 0.98029 0.0
C244 C 0.29703 0.09812 0.9592 0.0
C245 C 0.39106 0.17795 0.9009 0.0
C246 C 0.41942 0.22562 0.86301 0.0
C247 C 0.32316 0.14299 0.92017 0.0
C248 C 0.37695 0.23512 0.84302 0.0
C249 C 0.30867 0.19993 0.86184 0.0
H250 H 0.10215 0.16787 0.39914 0.0
H251 H 0.04661 0.22081 0.52144 0.0
H252 H 0.10631 0.33764 0.48786 0.0
H253 H 0.18273 0.42901 0.42778 0.0
H254 H 0.24339 0.3811 0.30631 0.0
H255 H 0.17155 0.25716 0.33493 0.0
C256 C 0.10234 0.20453 0.4183 0.0
C257 C 0.0703 0.18542 0.46323 0.0
C258 C 0.13761 0.27248 0.39887 0.0
C259 C 0.07101 0.2338 0.48715 0.0
C260 C 0.10525 0.30084 0.46794 0.0
C261 C 0.17974 0.39127 0.40717 0.0
C262 C 0.21876 0.41449 0.36498 0.0
C263 C 0.14001 0.32133 0.42444 0.0
C264 C 0.21337 0.36447 0.33852 0.0
C265 C 0.17294 0.29392 0.35527 0.0
H266 H 0.88583 0.23616 0.82952 0.0
H267 H 0.72364 0.07971 0.93095 0.0
H268 H 0.65977 0.1153 0.9178 0.0
H269 H 0.6538 0.19555 0.88151 0.0
H270 H 0.81433 0.35265 0.78034 0.0
H271 H 0.87407 0.31077 0.78827 0.0
C272 C 0.83595 0.20912 0.84827 0.0
C273 C 0.81043 0.15617 0.88187 0.0
C274 C 0.79915 0.22981 0.84046 0.0
C275 C 0.74575 0.12196 0.90588 0.0
C276 C 0.70879 0.14186 0.89813 0.0
C277 C 0.70146 0.22 0.86084 0.0
C278 C 0.72966 0.27666 0.83028 0.0
C279 C 0.73571 0.19651 0.8662 0.0
C280 C 0.79144 0.30836 0.80374 0.0
C281 C 0.82576 0.28479 0.80857 0.0
H282 H 0.8308 0.96099 0.4237 0.0
H283 H 0.78769 0.77045 0.45037 0.0
H284 H 0.67315 0.69256 0.40175 0.0
H285 H 0.57735 0.67684 0.36185 0.0
H286 H 0.62136 0.86729 0.33377 0.0
H287 H 0.74496 0.94806 0.37137 0.0
C288 C 0.7965 0.90252 0.41833 0.0
C289 C 0.81602 0.87072 0.44127 0.0
C290 C 0.73163 0.85857 0.38979 0.0
C291 C 0.77279 0.79555 0.43333 0.0
C292 C 0.70752 0.75116 0.40558 0.0
C293 C 0.61547 0.7363 0.36234 0.0
C294 C 0.59146 0.76674 0.34509 0.0
C295 C 0.68537 0.78176 0.38485 0.0
C296 C 0.6399 0.84339 0.34634 0.0
C297 C 0.70988 0.88924 0.36843 0.0
H298 H 0.85594 0.81416 0.89453 0.0
H299 H 0.9621 0.80122 1.00516 0.0
H300 H 0.91955 0.69112 0.96647 0.0
H301 H 0.84116 0.5915 0.90687 0.0
H302 H 0.71906 0.59188 0.80282 0.0
H303 H 0.78055 0.71499 0.83146 0.0
C304 C 0.87023 0.7874 0.90954 0.0
C305 C 0.91105 0.81455 0.95267 0.0
C306 C 0.84324 0.7224 0.88794 0.0
C307 C 0.92954 0.78005 0.97227 0.0
C308 C 0.90558 0.71746 0.95013 0.0
C309 C 0.82918 0.6193 0.8899 0.0
C310 C 0.7773 0.58401 0.85191 0.0
C311 C 0.86073 0.68708 0.90879 0.0
C312 C 0.76153 0.61989 0.83045 0.0
C313 C 0.79537 0.68937 0.84771 0.0
loop_
_geom_bond_atom_site_label_1
_geom_bond_atom_site_label_2
_geom_bond_distance
_geom_bond_site_symmetry_2
_ccdc_geom_bond_type
Tb0 C10 2.825 . S
Tb0 O11 2.347 1_546 S
Tb0 O14 2.366 1_656 S
Tb0 O19 2.418 1_655 S
Tb0 O20 2.384 1_545 S
Tb0 O23 2.479 . S
Tb0 O24 2.471 . S
Eu1 O12 2.418 1_455 S
Eu1 O13 2.384 1_565 S
Eu1 O16 2.479 . S
Eu1 O17 2.471 . S
Eu1 O18 2.347 1_564 S
Eu1 O21 2.366 1_455 S
Eu1 C31 2.825 . S
C2 O18 1.259 . S
C2 O19 1.265 . S
C3 O20 1.255 . S
C3 O21 1.265 1_556 S
C4 C6 1.380 . S
C4 C7 1.374 . S
C4 C10 1.507 . S
C5 C6 1.384 . S
C5 C9 1.387 . S
C5 H32 0.930 . S
C6 C4 1.380 . S
C6 C5 1.384 . S
C6 H33 0.931 . S
C7 C4 1.374 . S
C7 C8 1.390 . S
C7 H34 0.930 . S
C8 C7 1.390 . S
C8 C9 1.391 . S
C8 H35 0.930 . S
C9 C5 1.387 . S
C9 C8 1.391 . S
C10 Tb0 2.825 . S
C10 C4 1.507 . S
C10 O23 1.238 . S
C10 O24 1.247 . S
O11 Tb0 2.347 1_564 S
O11 C15 1.259 . S
O12 Eu1 2.418 1_655 S
O12 C15 1.265 . S
O13 Eu1 2.384 1_545 S
O13 C22 1.255 . S
O14 Tb0 2.366 1_454 S
O14 C22 1.265 . S
C15 O11 1.259 . S
C15 O12 1.265 . S
O16 Eu1 2.479 . S
O16 C31 1.238 . S
O17 Eu1 2.471 . S
O17 C31 1.247 . S
O18 Eu1 2.347 1_546 S
O18 C2 1.259 . S
O19 Tb0 2.418 1_455 S
O19 C2 1.265 . S
O20 Tb0 2.384 1_565 S
O20 C3 1.255 . S
O21 Eu1 2.366 1_655 S
O21 C3 1.265 1_554 S
C22 O13 1.255 . S
C22 O14 1.265 . S
O23 Tb0 2.479 . S
O23 C10 1.238 . S
O24 Tb0 2.471 . S
O24 C10 1.247 . S
C25 C28 1.380 . S
C25 C29 1.374 . S
C25 C31 1.507 . S
C26 C27 1.387 . S
C26 C30 1.391 . S
C27 C26 1.387 . S
C27 C28 1.384 . S
C27 H36 0.930 . S
C28 C25 1.380 . S
C28 C27 1.384 . S
C28 H37 0.931 . S
C29 C25 1.374 . S
C29 C30 1.390 . S
C29 H38 0.930 . S
C30 C26 1.391 . S
C30 C29 1.390 . S
C30 H39 0.930 . S
C31 Eu1 2.825 . S
C31 O16 1.238 . S
C31 O17 1.247 . S
C31 C25 1.507 . S
H32 C5 0.930 . S
H33 C6 0.931 . S
H34 C7 0.930 . S
H35 C8 0.930 . S
H36 C27 0.930 . S
H37 C28 0.931 . S
H38 C29 0.930 . S
H39 C30 0.930 . S
Tb40 C50 2.825 1_455 S
Tb40 O51 2.347 . S
Tb40 O54 2.366 1_445 S
Tb40 O59 2.418 1_445 S
Tb40 O60 2.384 . S
Tb40 O63 2.479 1_455 S
Tb40 O64 2.471 1_455 S
Eu41 O52 2.418 1_565 S
Eu41 O53 2.384 1_455 S
Eu41 O56 2.479 . S
Eu41 O57 2.471 . S
Eu41 O58 2.347 1_455 S
Eu41 O61 2.366 1_565 S
Eu41 C71 2.825 . S
C42 O58 1.259 . S
C42 O59 1.265 . S
C43 O60 1.255 . S
C43 O61 1.265 . S
C44 C46 1.380 . S
C44 C47 1.374 . S
C44 C50 1.507 . S
C45 C46 1.384 . S
C45 C49 1.387 . S
C45 H72 0.930 . S
C46 C44 1.380 . S
C46 C45 1.384 . S
C46 H73 0.931 . S
C47 C44 1.374 . S
C47 C48 1.390 . S
C47 H74 0.930 . S
C48 C47 1.390 . S
C48 C49 1.391 . S
C48 H75 0.930 . S
C49 C45 1.387 . S
C49 C48 1.391 . S
C50 Tb40 2.825 1_655 S
C50 C44 1.507 . S
C50 O63 1.238 . S
C50 O64 1.247 . S
O51 Tb40 2.347 . S
O51 C55 1.259 . S
O52 Eu41 2.418 1_545 S
O52 C55 1.265 . S
O53 Eu41 2.384 1_655 S
O53 C62 1.255 . S
O54 Tb40 2.366 1_665 S
O54 C62 1.265 . S
C55 O51 1.259 . S
C55 O52 1.265 . S
O56 Eu41 2.479 . S
O56 C71 1.238 . S
O57 Eu41 2.471 . S
O57 C71 1.247 . S
O58 Eu41 2.347 1_655 S
O58 C42 1.259 . S
O59 Tb40 2.418 1_665 S
O59 C42 1.265 . S
O60 Tb40 2.384 . S
O60 C43 1.255 . S
O61 Eu41 2.366 1_545 S
O61 C43 1.265 . S
C62 O53 1.255 . S
C62 O54 1.265 . S
O63 Tb40 2.479 1_655 S
O63 C50 1.238 . S
O64 Tb40 2.471 1_655 S
O64 C50 1.247 . S
C65 C68 1.380 . S
C65 C69 1.374 . S
C65 C71 1.507 . S
C66 C67 1.387 . S
C66 C70 1.391 . S
C67 C66 1.387 . S
C67 C68 1.384 . S
C67 H76 0.930 . S
C68 C65 1.380 . S
C68 C67 1.384 . S
C68 H77 0.931 . S
C69 C65 1.374 . S
C69 C70 1.390 . S
C69 H78 0.930 . S
C70 C66 1.391 . S
C70 C69 1.390 . S
C70 H79 0.930 . S
C71 Eu41 2.825 . S
C71 O56 1.238 . S
C71 O57 1.247 . S
C71 C65 1.507 . S
H72 C45 0.930 . S
H73 C46 0.931 . S
H74 C47 0.930 . S
H75 C48 0.930 . S
H76 C67 0.930 . S
H77 C68 0.931 . S
H78 C69 0.930 . S
H79 C70 0.930 . S
Zn80 O86 1.920 . S
Zn80 O92 1.898 . S
Zn80 O95 1.905 . S
Zn81 O89 1.905 . S
Zn81 O90 1.898 . S
Zn81 O98 1.920 . S
Zn82 O85 2.080 . S
Zn82 O88 2.114 . S
Zn82 O91 2.120 . S
Zn82 O93 2.120 . S
Zn82 O94 2.114 . S
Zn82 O97 2.080 . S
C83 O88 1.166 . S
C83 O89 1.182 . S
C84 O90 1.167 . S
C84 O91 1.299 . S
O85 Zn82 2.080 . S
O85 C99 1.305 . S
O86 Zn80 1.920 . S
O86 C99 1.234 . S
C87 O92 1.167 . S
C87 O93 1.299 . S
O88 Zn82 2.114 . S
O88 C83 1.166 . S
O89 Zn81 1.905 . S
O89 C83 1.182 . S
O90 Zn81 1.898 . S
O90 C84 1.167 . S
O91 Zn82 2.120 . S
O91 C84 1.299 . S
O92 Zn80 1.898 . S
O92 C87 1.167 . S
O93 Zn82 2.120 . S
O93 C87 1.299 . S
O94 Zn82 2.114 . S
O94 C96 1.166 . S
O95 Zn80 1.905 . S
O95 C96 1.182 . S
C96 O94 1.166 . S
C96 O95 1.182 . S
O97 Zn82 2.080 . S
O97 C100 1.305 . S
O98 Zn81 1.920 . S
O98 C100 1.234 . S
C99 O85 1.305 . S
C99 O86 1.234 . S
C100 O97 1.305 . S
C100 O98 1.234 . S
Zn101 O107 1.920 . S
Zn101 O113 1.898 . S
Zn101 O116 1.905 . S
Zn102 O110 1.905 . S
Zn102 O111 1.898 . S
Zn102 O119 1.920 . S
Zn103 O106 2.080 . S
Zn103 O109 2.114 . S
Zn103 O112 2.120 . S
Zn103 O114 2.120 . S
Zn103 O115 2.114 . S
Zn103 O118 2.080 . S
C104 O109 1.166 . S
C104 O110 1.182 . S
C105 O111 1.167 . S
C105 O112 1.299 . S
O106 Zn103 2.080 . S
O106 C120 1.305 . S
O107 Zn101 1.920 . S
O107 C120 1.234 . S
C108 O113 1.167 . S
C108 O114 1.299 . S
O109 Zn103 2.114 . S
O109 C104 1.166 . S
O110 Zn102 1.905 . S
O110 C104 1.182 . S
O111 Zn102 1.898 . S
O111 C105 1.167 . S
O112 Zn103 2.120 . S
O112 C105 1.299 . S
O113 Zn101 1.898 . S
O113 C108 1.167 . S
O114 Zn103 2.120 . S
O114 C108 1.299 . S
O115 Zn103 2.114 . S
O115 C117 1.166 . S
O116 Zn101 1.905 . S
O116 C117 1.182 . S
C117 O115 1.166 . S
C117 O116 1.182 . S
O118 Zn103 2.080 . S
O118 C121 1.305 . S
O119 Zn102 1.920 . S
O119 C121 1.234 . S
C120 O106 1.305 . S
C120 O107 1.234 . S
C121 O118 1.305 . S
C121 O119 1.234 . S
H122 C128 0.930 . S
H123 C131 0.930 . S
H124 C132 0.930 . S
H125 C133 0.930 . S
H126 C136 0.930 . S
H127 C137 0.930 . S
C128 H122 0.930 . S
C128 C129 1.355 . S
C128 C130 1.415 . S
C129 C128 1.355 . S
C129 C131 1.419 . S
C130 C128 1.415 . S
C130 C135 1.425 . S
C130 C137 1.409 . S
C131 H123 0.930 . S
C131 C129 1.419 . S
C131 C132 1.362 . S
C132 H124 0.930 . S
C132 C131 1.362 . S
C132 C135 1.409 . S
C133 H125 0.930 . S
C133 C134 1.355 . S
C133 C135 1.415 . S
C134 C133 1.355 . S
C134 C136 1.419 . S
C135 C130 1.425 . S
C135 C132 1.409 . S
C135 C133 1.415 . S
C136 H126 0.930 . S
C136 C134 1.419 . S
C136 C137 1.362 . S
C137 H127 0.930 . S
C137 C130 1.409 . S
C137 C136 1.362 . S
H138 C144 0.930 . S
H139 C147 0.930 . S
H140 C148 0.930 . S
H141 C149 0.930 . S
H142 C152 0.930 . S
H143 C153 0.930 . S
C144 H138 0.930 . S
C144 C145 1.355 . S
C144 C146 1.415 . S
C145 C144 1.355 . S
C145 C147 1.419 . S
C146 C144 1.415 . S
C146 C151 1.425 . S
C146 C153 1.409 . S
C147 H139 0.930 . S
C147 C145 1.419 . S
C147 C148 1.362 . S
C148 H140 0.930 . S
C148 C147 1.362 . S
C148 C151 1.409 . S
C149 H141 0.930 . S
C149 C150 1.355 . S
C149 C151 1.415 . S
C150 C149 1.355 . S
C150 C152 1.419 . S
C151 C146 1.425 . S
C151 C148 1.409 . S
C151 C149 1.415 . S
C152 H142 0.930 . S
C152 C150 1.419 . S
C152 C153 1.362 . S
C153 H143 0.930 . S
C153 C146 1.409 . S
C153 C152 1.362 . S
H154 C160 0.930 . S
H155 C163 0.930 . S
H156 C164 0.930 . S
H157 C165 0.930 . S
H158 C168 0.930 . S
H159 C169 0.930 . S
C160 H154 0.930 . S
C160 C161 1.355 . S
C160 C162 1.415 . S
C161 C160 1.355 . S
C161 C163 1.419 . S
C162 C160 1.415 . S
C162 C167 1.425 . S
C162 C169 1.409 . S
C163 H155 0.930 . S
C163 C161 1.419 . S
C163 C164 1.362 . S
C164 H156 0.930 . S
C164 C163 1.362 . S
C164 C167 1.409 . S
C165 H157 0.930 . S
C165 C166 1.355 . S
C165 C167 1.415 . S
C166 C165 1.355 . S
C166 C168 1.419 . S
C167 C162 1.425 . S
C167 C164 1.409 . S
C167 C165 1.415 . S
C168 H158 0.930 . S
C168 C166 1.419 . S
C168 C169 1.362 . S
C169 H159 0.930 . S
C169 C162 1.409 . S
C169 C168 1.362 . S
H170 C176 0.930 . S
H171 C179 0.930 . S
H172 C180 0.930 . S
H173 C181 0.930 . S
H174 C184 0.930 . S
H175 C185 0.930 . S
C176 H170 0.930 . S
C176 C177 1.355 . S
C176 C178 1.415 . S
C177 C176 1.355 . S
C177 C179 1.419 . S
C178 C176 1.415 . S
C178 C183 1.425 . S
C178 C185 1.409 . S
C179 H171 0.930 . S
C179 C177 1.419 . S
C179 C180 1.362 . S
C180 H172 0.930 . S
C180 C179 1.362 . S
C180 C183 1.409 . S
C181 H173 0.930 . S
C181 C182 1.355 . S
C181 C183 1.415 . S
C182 C181 1.355 . S
C182 C184 1.419 . S
C183 C178 1.425 . S
C183 C180 1.409 . S
C183 C181 1.415 . S
C184 H174 0.930 . S
C184 C182 1.419 . S
C184 C185 1.362 . S
C185 H175 0.930 . S
C185 C178 1.409 . S
C185 C184 1.362 . S
H186 C192 0.930 . S
H187 C195 0.930 . S
H188 C196 0.930 . S
H189 C197 0.930 . S
H190 C200 0.930 . S
H191 C201 0.930 . S
C192 H186 0.930 . S
C192 C193 1.355 . S
C192 C194 1.415 . S
C193 C192 1.355 . S
C193 C195 1.419 . S
C194 C192 1.415 . S
C194 C199 1.425 . S
C194 C201 1.409 . S
C195 H187 0.930 . S
C195 C193 1.419 . S
C195 C196 1.362 . S
C196 H188 0.930 . S
C196 C195 1.362 . S
C196 C199 1.409 . S
C197 H189 0.930 . S
C197 C198 1.355 . S
C197 C199 1.415 . S
C198 C197 1.355 . S
C198 C200 1.419 . S
C199 C194 1.425 . S
C199 C196 1.409 . S
C199 C197 1.415 . S
C200 H190 0.930 . S
C200 C198 1.419 . S
C200 C201 1.362 . S
C201 H191 0.930 . S
C201 C194 1.409 . S
C201 C200 1.362 . S
H202 C208 0.930 . S
H203 C211 0.930 1_455 S
H204 C212 0.930 . S
H205 C213 0.930 . S
H206 C216 0.930 . S
H207 C217 0.930 . S
C208 H202 0.930 . S
C208 C209 1.355 . S
C208 C210 1.415 . S
C209 C208 1.355 . S
C209 C211 1.419 . S
C210 C208 1.415 . S
C210 C215 1.425 . S
C210 C217 1.409 . S
C211 H203 0.930 1_655 S
C211 C209 1.419 . S
C211 C212 1.362 . S
C212 H204 0.930 . S
C212 C211 1.362 . S
C212 C215 1.409 . S
C213 H205 0.930 . S
C213 C214 1.355 . S
C213 C215 1.415 . S
C214 C213 1.355 . S
C214 C216 1.419 . S
C215 C210 1.425 . S
C215 C212 1.409 . S
C215 C213 1.415 . S
C216 H206 0.930 . S
C216 C214 1.419 . S
C216 C217 1.362 . S
C217 H207 0.930 . S
C217 C210 1.409 . S
C217 C216 1.362 . S
H218 C224 0.930 . S
H219 C227 0.930 . S
H220 C228 0.930 . S
H221 C229 0.930 . S
H222 C232 0.930 . S
H223 C233 0.930 . S
C224 H218 0.930 . S
C224 C225 1.355 . S
C224 C226 1.415 . S
C225 C224 1.355 . S
C225 C227 1.419 . S
C226 C224 1.415 . S
C226 C231 1.425 . S
C226 C233 1.409 . S
C227 H219 0.930 . S
C227 C225 1.419 . S
C227 C228 1.362 . S
C228 H220 0.930 . S
C228 C227 1.362 . S
C228 C231 1.409 . S
C229 H221 0.930 . S
C229 C230 1.355 . S
C229 C231 1.415 . S
C230 C229 1.355 . S
C230 C232 1.419 . S
C231 C226 1.425 . S
C231 C228 1.409 . S
C231 C229 1.415 . S
C232 H222 0.930 . S
C232 C230 1.419 . S
C232 C233 1.362 . S
C233 H223 0.930 . S
C233 C226 1.409 . S
C233 C232 1.362 . S
H234 C240 0.930 . S
H235 C243 0.930 . S
H236 C244 0.930 . S
H237 C245 0.930 . S
H238 C248 0.930 . S
H239 C249 0.930 . S
C240 H234 0.930 . S
C240 C241 1.355 . S
C240 C242 1.415 . S
C241 C240 1.355 . S
C241 C243 1.419 . S
C242 C240 1.415 . S
C242 C247 1.425 . S
C242 C249 1.409 . S
C243 H235 0.930 . S
C243 C241 1.419 . S
C243 C244 1.362 . S
C244 H236 0.930 . S
C244 C243 1.362 . S
C244 C247 1.409 . S
C245 H237 0.930 . S
C245 C246 1.355 . S
C245 C247 1.415 . S
C246 C245 1.355 . S
C246 C248 1.419 . S
C247 C242 1.425 . S
C247 C244 1.409 . S
C247 C245 1.415 . S
C248 H238 0.930 . S
C248 C246 1.419 . S
C248 C249 1.362 . S
C249 H239 0.930 . S
C249 C242 1.409 . S
C249 C248 1.362 . S
H250 C256 0.930 . S
H251 C259 0.930 . S
H252 C260 0.930 . S
H253 C261 0.930 . S
H254 C264 0.930 . S
H255 C265 0.930 . S
C256 H250 0.930 . S
C256 C257 1.355 . S
C256 C258 1.415 . S
C257 C256 1.355 . S
C257 C259 1.419 . S
C258 C256 1.415 . S
C258 C263 1.425 . S
C258 C265 1.409 . S
C259 H251 0.930 . S
C259 C257 1.419 . S
C259 C260 1.362 . S
C260 H252 0.930 . S
C260 C259 1.362 . S
C260 C263 1.409 . S
C261 H253 0.930 . S
C261 C262 1.355 . S
C261 C263 1.415 . S
C262 C261 1.355 . S
C262 C264 1.419 . S
C263 C258 1.425 . S
C263 C260 1.409 . S
C263 C261 1.415 . S
C264 H254 0.930 . S
C264 C262 1.419 . S
C264 C265 1.362 . S
C265 H255 0.930 . S
C265 C258 1.409 . S
C265 C264 1.362 . S
H266 C272 0.930 . S
H267 C275 0.930 . S
H268 C276 0.930 . S
H269 C277 0.930 . S
H270 C280 0.930 . S
H271 C281 0.930 . S
C272 H266 0.930 . S
C272 C273 1.355 . S
C272 C274 1.415 . S
C273 C272 1.355 . S
C273 C275 1.419 . S
C274 C272 1.415 . S
C274 C279 1.425 . S
C274 C281 1.409 . S
C275 H267 0.930 . S
C275 C273 1.419 . S
C275 C276 1.362 . S
C276 H268 0.930 . S
C276 C275 1.362 . S
C276 C279 1.409 . S
C277 H269 0.930 . S
C277 C278 1.355 . S
C277 C279 1.415 . S
C278 C277 1.355 . S
C278 C280 1.419 . S
C279 C274 1.425 . S
C279 C276 1.409 . S
C279 C277 1.415 . S
C280 H270 0.930 . S
C280 C278 1.419 . S
C280 C281 1.362 . S
C281 H271 0.930 . S
C281 C274 1.409 . S
C281 C280 1.362 . S
H282 C288 0.930 . S
H283 C291 0.930 . S
H284 C292 0.930 . S
H285 C293 0.930 . S
H286 C296 0.930 . S
H287 C297 0.930 . S
C288 H282 0.930 . S
C288 C289 1.355 . S
C288 C290 1.415 . S
C289 C288 1.355 . S
C289 C291 1.419 . S
C290 C288 1.415 . S
C290 C295 1.425 . S
C290 C297 1.409 . S
C291 H283 0.930 . S
C291 C289 1.419 . S
C291 C292 1.362 . S
C292 H284 0.930 . S
C292 C291 1.362 . S
C292 C295 1.409 . S
C293 H285 0.930 . S
C293 C294 1.355 . S
C293 C295 1.415 . S
C294 C293 1.355 . S
C294 C296 1.419 . S
C295 C290 1.425 . S
C295 C292 1.409 . S
C295 C293 1.415 . S
C296 H286 0.930 . S
C296 C294 1.419 . S
C296 C297 1.362 . S
C297 H287 0.930 . S
C297 C290 1.409 . S
C297 C296 1.362 . S
H298 C304 0.930 . S
H299 C307 0.930 . S
H300 C308 0.930 . S
H301 C309 0.930 . S
H302 C312 0.930 . S
H303 C313 0.930 . S
C304 H298 0.930 . S
C304 C305 1.355 . S
C304 C306 1.415 . S
C305 C304 1.355 . S
C305 C307 1.419 . S
C306 C304 1.415 . S
C306 C311 1.425 . S
C306 C313 1.409 . S
C307 H299 0.930 . S
C307 C305 1.419 . S
C307 C308 1.362 . S
C308 H300 0.930 . S
C308 C307 1.362 . S
C308 C311 1.409 . S
C309 H301 0.930 . S
C309 C310 1.355 . S
C309 C311 1.415 . S
C310 C309 1.355 . S
C310 C312 1.419 . S
C311 C306 1.425 . S
C311 C308 1.409 . S
C311 C309 1.415 . S
C312 H302 0.930 . S
C312 C310 1.419 . S
C312 C313 1.362 . S
C313 H303 0.930 . S
C313 C306 1.409 . S
C313 C312 1.362 . S
C129 C26 1.348 . S
C134 C99 1.330 . S
C145 C43 1.310 . S
C150 C105 1.111 . S
C161 C22 1.430 . S
C166 C96 1.334 . S
C177 C49 1.488 . S
C182 C121 1.420 . S
C193 C15 1.862 . S
C198 C87 1.693 . S
C214 C104 1.750 . S
C209 C42 1.903 . S
C225 C66 1.375 . S
C230 C100 1.351 . S
C246 C117 1.742 . S
C241 C2 1.897 . S
C262 C84 1.718 . S
C257 C55 1.867 . S
C278 C120 1.404 . S
C273 C9 1.458 . S
C294 C83 1.342 . S
C289 C62 1.435 . S
C310 C108 1.235 . S
C305 C3 1.342 . S
