# Generated by pormake.
# Topology pto, (3,4)-cn, num edge types: 1
# Building blocks:
#     Node 0, Type 0, BuildingBlock: WUSLED_clean_sbu_0, # of connection points: 3
#     Node 1, Type 0, BuildingBlock: WUSLED_clean_sbu_0, # of connection points: 3
#     Node 2, Type 0, BuildingBlock: WUSLED_clean_sbu_0, # of connection points: 3
#     Node 3, Type 0, BuildingBlock: WUSLED_clean_sbu_0, # of connection points: 3
#     Node 4, Type 0, BuildingBlock: WUSLED_clean_sbu_0, # of connection points: 3
#     Node 5, Type 0, BuildingBlock: WUSLED_clean_sbu_0, # of connection points: 3
#     Node 6, Type 0, BuildingBlock: WUSLED_clean_sbu_0, # of connection points: 3
#     Node 7, Type 0, BuildingBlock: WUSLED_clean_sbu_0, # of connection points: 3
#     Node 8, Type 1, BuildingBlock: KOZSID_clean_sbu_0, # of connection points: 4
#     Node 9, Type 1, BuildingBlock: KOZSID_clean_sbu_0, # of connection points: 4
#     Node 10, Type 1, BuildingBlock: KOZSID_clean_sbu_0, # of connection points: 4
#     Node 11, Type 1, BuildingBlock: KOZSID_clean_sbu_0, # of connection points: 4
#     Node 12, Type 1, BuildingBlock: KOZSID_clean_sbu_0, # of connection points: 4
#     Node 13, Type 1, BuildingBlock: KOZSID_clean_sbu_0, # of connection points: 4
#     Edge 14, Type (0, 1), BuildingBlock: AJUNOK_clean_linker_0, # of connection points: 2
#     Edge 15, Type (0, 1), BuildingBlock: AJUNOK_clean_linker_0, # of connection points: 2
#     Edge 16, Type (0, 1), BuildingBlock: AJUNOK_clean_linker_0, # of connection points: 2
#     Edge 17, Type (0, 1), BuildingBlock: AJUNOK_clean_linker_0, # of connection points: 2
#     Edge 18, Type (0, 1), BuildingBlock: AJUNOK_clean_linker_0, # of connection points: 2
#     Edge 19, Type (0, 1), BuildingBlock: AJUNOK_clean_linker_0, # of connection points: 2
#     Edge 20, Type (0, 1), BuildingBlock: AJUNOK_clean_linker_0, # of connection points: 2
#     Edge 21, Type (0, 1), BuildingBlock: AJUNOK_clean_linker_0, # of connection points: 2
#     Edge 22, Type (0, 1), BuildingBlock: AJUNOK_clean_linker_0, # of connection points: 2
#     Edge 23, Type (0, 1), BuildingBlock: AJUNOK_clean_linker_0, # of connection points: 2
#     Edge 24, Type (0, 1), BuildingBlock: AJUNOK_clean_linker_0, # of connection points: 2
#     Edge 25, Type (0, 1), BuildingBlock: AJUNOK_clean_linker_0, # of connection points: 2
#     Edge 26, Type (0, 1), BuildingBlock: AJUNOK_clean_linker_0, # of connection points: 2
#     Edge 27, Type (0, 1), BuildingBlock: AJUNOK_clean_linker_0, # of connection points: 2
#     Edge 28, Type (0, 1), BuildingBlock: AJUNOK_clean_linker_0, # of connection points: 2
#     Edge 29, Type (0, 1), BuildingBlock: AJUNOK_clean_linker_0, # of connection points: 2
#     Edge 30, Type (0, 1), BuildingBlock: AJUNOK_clean_linker_0, # of connection points: 2
#     Edge 31, Type (0, 1), BuildingBlock: AJUNOK_clean_linker_0, # of connection points: 2
#     Edge 32, Type (0, 1), BuildingBlock: AJUNOK_clean_linker_0, # of connection points: 2
#     Edge 33, Type (0, 1), BuildingBlock: AJUNOK_clean_linker_0, # of connection points: 2
#     Edge 34, Type (0, 1), BuildingBlock: AJUNOK_clean_linker_0, # of connection points: 2
#     Edge 35, Type (0, 1), BuildingBlock: AJUNOK_clean_linker_0, # of connection points: 2
#     Edge 36, Type (0, 1), BuildingBlock: AJUNOK_clean_linker_0, # of connection points: 2
#     Edge 37, Type (0, 1), BuildingBlock: AJUNOK_clean_linker_0, # of connection points: 2
# Relax obj value: 0.000
# Max RMSD: 0.027
# Mean RMSD: 0.012
data_MOF--net-pto--node1-WUSLED_clean_sbu_0--node2-KOZSID_clean_sbu_0--edge1-AJUNOK_clean_linker_0
_symmetry_space_group_name_H-M    P1
_symmetry_Int_Tables_number       1
_symmetry_cell_setting            triclinic
loop_
_symmetry_equiv_pos_as_xyz
'x, y, z'
_cell_length_a     39.79692
_cell_length_b     52.861691
_cell_length_c     46.309011
_cell_angle_alpha  87.134424
_cell_angle_beta   87.849351
_cell_angle_gamma 93.317325
loop_
_atom_site_label
_atom_site_type_symbol
_atom_site_fract_x
_atom_site_fract_y
_atom_site_fract_z
_atom_type_partial_charge
C0 C 0.26858 0.22788 0.3871 0.0
C1 C 0.25491 0.20512 0.37657 0.0
C2 C 0.27103 0.18117 0.41983 0.0
C3 C 0.25623 0.18206 0.39271 0.0
C4 C 0.28527 0.20383 0.43006 0.0
C5 C 0.28386 0.22689 0.41399 0.0
U6 U 0.2912 0.2778 0.32435 0.0
O7 O 0.25887 0.30275 0.29984 0.0
O8 O 0.2991 0.31942 0.32535 0.0
C9 C 0.27317 0.32361 0.30937 0.0
C10 C 0.26537 0.25284 0.37137 0.0
C11 C 0.2507 0.34334 0.3188 0.0
C12 C 0.19483 0.35803 0.32952 0.0
C13 C 0.2158 0.3383 0.32375 0.0
C14 C 0.24326 0.38804 0.32622 0.0
C15 C 0.20828 0.38319 0.33057 0.0
C16 C 0.26417 0.36835 0.3204 0.0
C17 C 0.35702 0.26246 0.2652 0.0
C18 C 0.36546 0.28193 0.21648 0.0
C19 C 0.408 0.25603 0.23653 0.0
C20 C 0.38832 0.2518 0.26217 0.0
C21 C 0.39679 0.27109 0.21335 0.0
C22 C 0.34579 0.27777 0.24225 0.0
C23 C 0.33626 0.25652 0.29206 0.0
O24 O 0.29155 0.2692 0.37142 0.0
O25 O 0.25101 0.25266 0.34624 0.0
O26 O 0.3036 0.25304 0.28918 0.0
O27 O 0.34405 0.26983 0.31433 0.0
H28 H 0.24274 0.2051 0.35605 0.0
H29 H 0.24496 0.16497 0.38424 0.0
H30 H 0.29756 0.20377 0.45054 0.0
H31 H 0.29447 0.24406 0.4228 0.0
H32 H 0.16793 0.35369 0.3322 0.0
H33 H 0.20457 0.31925 0.32244 0.0
H34 H 0.25444 0.40715 0.32701 0.0
H35 H 0.29093 0.37279 0.31646 0.0
H36 H 0.35619 0.29363 0.19899 0.0
H37 H 0.43165 0.24698 0.23459 0.0
H38 H 0.39736 0.23982 0.27954 0.0
H39 H 0.32172 0.28625 0.24411 0.0
C40 C 0.24744 0.8411 0.69482 0.0
C41 C 0.2654 0.8618 0.70605 0.0
C42 C 0.25537 0.88827 0.66278 0.0
C43 C 0.26934 0.88519 0.69016 0.0
C44 C 0.23775 0.86734 0.65159 0.0
C45 C 0.2338 0.84404 0.66747 0.0
U46 U 0.26558 0.79421 0.75796 0.0
O47 O 0.23076 0.76775 0.78427 0.0
O48 O 0.2716 0.75297 0.75807 0.0
C49 C 0.24494 0.74752 0.77535 0.0
C50 C 0.24246 0.81635 0.71117 0.0
C51 C 0.22215 0.72596 0.76788 0.0
C52 C 0.17052 0.70834 0.74803 0.0
C53 C 0.19256 0.72931 0.75287 0.0
C54 C 0.20772 0.68054 0.77262 0.0
C55 C 0.17768 0.68372 0.75819 0.0
C56 C 0.22964 0.70141 0.77742 0.0
C57 C 0.32939 0.81395 0.81443 0.0
C58 C 0.35588 0.78536 0.84836 0.0
C59 C 0.36011 0.83065 0.85445 0.0
C60 C 0.34107 0.83454 0.83 0.0
C61 C 0.36804 0.80605 0.86377 0.0
C62 C 0.33667 0.78927 0.82392 0.0
C63 C 0.31032 0.8188 0.78817 0.0
O64 O 0.26824 0.80189 0.71068 0.0
O65 O 0.22751 0.81663 0.73695 0.0
O66 O 0.27767 0.82037 0.79225 0.0
O67 O 0.31831 0.80581 0.7657 0.0
H68 H 0.27634 0.85987 0.72706 0.0
H69 H 0.28359 0.90077 0.69916 0.0
H70 H 0.22659 0.86908 0.63066 0.0
H71 H 0.21988 0.8283 0.6584 0.0
H72 H 0.14793 0.71139 0.73633 0.0
H73 H 0.18633 0.74809 0.7452 0.0
H74 H 0.21394 0.66191 0.78085 0.0
H75 H 0.25227 0.6984 0.78912 0.0
H76 H 0.36106 0.76616 0.85531 0.0
H77 H 0.36918 0.84696 0.8658 0.0
H78 H 0.33571 0.85372 0.82306 0.0
H79 H 0.32766 0.77306 0.81235 0.0
C80 C 0.73407 0.81014 0.26618 0.0
C81 C 0.72473 0.78544 0.25837 0.0
C82 C 0.69454 0.8025 0.21749 0.0
C83 C 0.70508 0.78165 0.23423 0.0
C84 C 0.70451 0.82714 0.22517 0.0
C85 C 0.72399 0.83089 0.24928 0.0
U86 U 0.79767 0.79262 0.32402 0.0
O87 O 0.83665 0.8175 0.34282 0.0
O88 O 0.79559 0.79905 0.37062 0.0
C89 C 0.8216 0.81565 0.36866 0.0
C90 C 0.75358 0.81495 0.29206 0.0
C91 C 0.81775 0.83979 0.38312 0.0
C92 C 0.78319 0.87166 0.40357 0.0
C93 C 0.78605 0.84952 0.38835 0.0
C94 C 0.84365 0.87502 0.408 0.0
C95 C 0.81198 0.88465 0.41369 0.0
C96 C 0.84647 0.85287 0.39293 0.0
C97 C 0.8398 0.72763 0.32003 0.0
C98 C 0.89576 0.71177 0.32542 0.0
C99 C 0.84652 0.68264 0.33099 0.0
C100 C 0.82584 0.70279 0.3258 0.0
C101 C 0.88177 0.68679 0.33049 0.0
C102 C 0.87502 0.73198 0.32025 0.0
C103 C 0.81737 0.74777 0.31072 0.0
O104 O 0.74518 0.80049 0.31545 0.0
O105 O 0.78631 0.81888 0.28766 0.0
O106 O 0.83166 0.76932 0.2996 0.0
O107 O 0.79067 0.75082 0.3275 0.0
H108 H 0.73245 0.76912 0.27099 0.0
H109 H 0.6983 0.76245 0.22856 0.0
H110 H 0.6967 0.84357 0.21281 0.0
H111 H 0.73092 0.85009 0.25492 0.0
H112 H 0.75835 0.87824 0.40802 0.0
H113 H 0.76343 0.83981 0.38109 0.0
H114 H 0.86634 0.8846 0.41528 0.0
H115 H 0.87118 0.84577 0.38919 0.0
H116 H 0.92282 0.71559 0.32434 0.0
H117 H 0.83493 0.66368 0.33494 0.0
H118 H 0.79885 0.69881 0.32547 0.0
H119 H 0.88667 0.75084 0.31558 0.0
C120 C 0.78273 0.22579 0.74068 0.0
C121 C 0.78801 0.23261 0.71104 0.0
C122 C 0.79176 0.18804 0.70016 0.0
C123 C 0.79236 0.21387 0.69096 0.0
C124 C 0.78665 0.18141 0.72986 0.0
C125 C 0.78226 0.20006 0.74983 0.0
U126 U 0.79499 0.29087 0.77624 0.0
O127 O 0.75651 0.3132 0.79667 0.0
O128 O 0.79635 0.29792 0.82268 0.0
C129 C 0.76872 0.31037 0.82253 0.0
C130 C 0.77588 0.24464 0.76247 0.0
C131 C 0.74408 0.30411 0.84675 0.0
C132 C 0.69902 0.27714 0.87127 0.0
C133 C 0.72243 0.28211 0.84793 0.0
C134 C 0.71894 0.31596 0.89238 0.0
C135 C 0.69695 0.29411 0.89372 0.0
C136 C 0.74219 0.32089 0.86914 0.0
C137 C 0.85774 0.34466 0.7467 0.0
C138 C 0.89033 0.37632 0.77234 0.0
C139 C 0.87444 0.38606 0.72328 0.0
C140 C 0.85819 0.36187 0.72255 0.0
C141 C 0.89076 0.39354 0.74816 0.0
C142 C 0.87385 0.3522 0.7717 0.0
C143 C 0.84105 0.31892 0.74511 0.0
O144 O 0.79991 0.2495 0.78046 0.0
O145 O 0.76075 0.26497 0.75375 0.0
O146 O 0.80891 0.31802 0.73937 0.0
O147 O 0.84826 0.30179 0.76517 0.0
H148 H 0.78843 0.25232 0.70337 0.0
H149 H 0.79624 0.21958 0.66824 0.0
H150 H 0.78524 0.16169 0.73763 0.0
H151 H 0.77788 0.19432 0.77252 0.0
H152 H 0.68279 0.25994 0.87191 0.0
H153 H 0.72364 0.26886 0.83086 0.0
H154 H 0.71785 0.32948 0.90917 0.0
H155 H 0.75867 0.33799 0.86859 0.0
H156 H 0.90261 0.38159 0.79183 0.0
H157 H 0.8748 0.39875 0.70415 0.0
H158 H 0.84616 0.35651 0.70298 0.0
H159 H 0.8739 0.33946 0.79075 0.0
C160 C 0.82582 0.73745 0.77781 0.0
C161 C 0.83309 0.73172 0.74899 0.0
C162 C 0.86913 0.69833 0.76528 0.0
C163 C 0.85458 0.71233 0.74279 0.0
C164 C 0.86225 0.70456 0.79399 0.0
C165 C 0.84083 0.72383 0.80015 0.0
U166 U 0.78155 0.80116 0.76842 0.0
O167 O 0.72785 0.80772 0.77645 0.0
O168 O 0.76614 0.82626 0.80239 0.0
C169 C 0.73383 0.8219 0.79843 0.0
C170 C 0.80149 0.7564 0.78561 0.0
C171 C 0.71217 0.81616 0.8248 0.0
C172 C 0.69877 0.79276 0.87084 0.0
C173 C 0.71919 0.79703 0.84547 0.0
C174 C 0.66395 0.82644 0.85494 0.0
C175 C 0.67086 0.80741 0.87583 0.0
C176 C 0.68436 0.83071 0.82969 0.0
C177 C 0.80612 0.84992 0.7052 0.0
C178 C 0.78314 0.89151 0.69916 0.0
C179 C 0.82269 0.87779 0.66302 0.0
C180 C 0.82474 0.85478 0.67901 0.0
C181 C 0.80203 0.89652 0.67293 0.0
C182 C 0.78518 0.86841 0.71517 0.0
C183 C 0.80921 0.82556 0.72169 0.0
O184 O 0.81417 0.77785 0.79499 0.0
O185 O 0.7763 0.75947 0.76843 0.0
O186 O 0.78342 0.80892 0.72115 0.0
O187 O 0.82156 0.82707 0.74751 0.0
H188 H 0.82194 0.74202 0.73132 0.0
H189 H 0.85985 0.70834 0.72042 0.0
H190 H 0.87285 0.6941 0.81183 0.0
H191 H 0.8355 0.72781 0.82253 0.0
H192 H 0.70473 0.77798 0.88654 0.0
H193 H 0.74057 0.78558 0.84211 0.0
H194 H 0.64318 0.83845 0.85839 0.0
H195 H 0.67865 0.84568 0.81411 0.0
H196 H 0.7665 0.90532 0.70713 0.0
H197 H 0.83766 0.88106 0.64302 0.0
H198 H 0.84106 0.84078 0.67095 0.0
H199 H 0.77045 0.86496 0.73528 0.0
C200 C 0.73354 0.26465 0.27735 0.0
C201 C 0.72658 0.28932 0.26755 0.0
C202 C 0.69582 0.27238 0.2274 0.0
C203 C 0.70783 0.29314 0.24279 0.0
C204 C 0.70338 0.2478 0.23711 0.0
C205 C 0.72196 0.244 0.26184 0.0
U206 U 0.79618 0.28427 0.33503 0.0
O207 O 0.79336 0.2753 0.3821 0.0
O208 O 0.83466 0.26184 0.35544 0.0
C209 C 0.81962 0.26134 0.38124 0.0
C210 C 0.75235 0.25983 0.30376 0.0
C211 C 0.81557 0.23629 0.39707 0.0
C212 C 0.79479 0.19191 0.40119 0.0
C213 C 0.79776 0.21556 0.38575 0.0
C214 C 0.82712 0.20954 0.43944 0.0
C215 C 0.80962 0.18859 0.42818 0.0
C216 C 0.83009 0.23309 0.42403 0.0
C217 C 0.83947 0.353 0.32769 0.0
C218 C 0.89342 0.37749 0.32155 0.0
C219 C 0.84695 0.39486 0.34747 0.0
C220 C 0.8267 0.37288 0.3431 0.0
C221 C 0.88037 0.39765 0.33625 0.0
C222 C 0.87321 0.35552 0.31719 0.0
C223 C 0.81657 0.33147 0.31942 0.0
O224 O 0.7851 0.25872 0.29995 0.0
O225 O 0.74375 0.27244 0.3264 0.0
O226 O 0.78967 0.32536 0.33626 0.0
O227 O 0.83057 0.31157 0.30937 0.0
H228 H 0.73552 0.30556 0.27907 0.0
H229 H 0.70294 0.31233 0.23557 0.0
H230 H 0.6944 0.23143 0.22581 0.0
H231 H 0.72709 0.22483 0.26902 0.0
H232 H 0.78059 0.17632 0.39214 0.0
H233 H 0.78618 0.21767 0.36503 0.0
H234 H 0.83894 0.20763 0.46007 0.0
H235 H 0.84393 0.24883 0.43315 0.0
H236 H 0.919 0.37905 0.31251 0.0
H237 H 0.83631 0.4098 0.3594 0.0
H238 H 0.80074 0.37178 0.35118 0.0
H239 H 0.88383 0.34085 0.30481 0.0
C240 C 0.25535 0.23857 0.7008 0.0
C241 C 0.25442 0.21435 0.715 0.0
C242 C 0.25936 0.19447 0.66863 0.0
C243 C 0.25645 0.19254 0.69906 0.0
C244 C 0.26147 0.21879 0.65462 0.0
C245 C 0.25932 0.24053 0.67052 0.0
U246 U 0.27298 0.28355 0.76273 0.0
O247 O 0.27728 0.32531 0.76158 0.0
O248 O 0.23746 0.30449 0.78878 0.0
C249 C 0.25063 0.32678 0.77895 0.0
C250 C 0.25048 0.26187 0.71671 0.0
C251 C 0.22668 0.34624 0.77136 0.0
C252 C 0.20099 0.37487 0.73683 0.0
C253 C 0.22221 0.35504 0.74267 0.0
C254 C 0.18808 0.37697 0.78811 0.0
C255 C 0.18394 0.38626 0.75956 0.0
C256 C 0.20919 0.35726 0.7939 0.0
C257 C 0.33649 0.26562 0.82039 0.0
C258 C 0.36448 0.29336 0.85373 0.0
C259 C 0.36354 0.24777 0.86237 0.0
C260 C 0.34533 0.24454 0.83744 0.0
C261 C 0.37328 0.2722 0.87088 0.0
C262 C 0.34607 0.29011 0.82877 0.0
C263 C 0.31793 0.26133 0.79384 0.0
O264 O 0.23527 0.25886 0.74246 0.0
O265 O 0.27596 0.27892 0.71558 0.0
O266 O 0.32588 0.27699 0.77134 0.0
O267 O 0.28534 0.25607 0.79756 0.0
H268 H 0.25154 0.2122 0.73836 0.0
H269 H 0.25486 0.17411 0.71052 0.0
H270 H 0.26466 0.22103 0.63129 0.0
H271 H 0.26028 0.25895 0.65905 0.0
H272 H 0.19787 0.38126 0.71456 0.0
H273 H 0.23534 0.34681 0.72486 0.0
H274 H 0.17555 0.38537 0.80613 0.0
H275 H 0.21237 0.3509 0.8162 0.0
H276 H 0.37164 0.31241 0.85976 0.0
H277 H 0.37052 0.23109 0.87475 0.0
H278 H 0.33837 0.22549 0.83129 0.0
H279 H 0.33947 0.30668 0.81599 0.0
C280 C 0.20087 0.73353 0.3395 0.0
C281 C 0.21115 0.71553 0.32022 0.0
C282 C 0.16404 0.68624 0.33736 0.0
C283 C 0.19297 0.69206 0.31925 0.0
C284 C 0.15387 0.70441 0.35656 0.0
C285 C 0.17209 0.72781 0.35758 0.0
U286 U 0.26864 0.78443 0.31114 0.0
O287 O 0.26785 0.82608 0.30955 0.0
O288 O 0.30547 0.80721 0.33503 0.0
C289 C 0.29215 0.82871 0.32785 0.0
C290 C 0.21999 0.75816 0.3414 0.0
C291 C 0.2873 0.8464 0.35136 0.0
C292 C 0.25197 0.87187 0.38119 0.0
C293 C 0.25524 0.85361 0.3604 0.0
C294 C 0.31255 0.87564 0.38459 0.0
C295 C 0.28061 0.88312 0.39351 0.0
C296 C 0.31581 0.85751 0.3638 0.0
C297 C 0.31913 0.7713 0.24036 0.0
C298 C 0.36544 0.79775 0.21687 0.0
C299 C 0.34535 0.75925 0.19521 0.0
C300 C 0.32136 0.75454 0.21796 0.0
C301 C 0.36778 0.78085 0.19437 0.0
C302 C 0.34129 0.793 0.23972 0.0
C303 C 0.29351 0.7654 0.26396 0.0
O304 O 0.25205 0.75701 0.34689 0.0
O305 O 0.21451 0.77568 0.32126 0.0
O306 O 0.26738 0.7795 0.26422 0.0
O307 O 0.30479 0.76063 0.28986 0.0
H308 H 0.23329 0.71959 0.30606 0.0
H309 H 0.20142 0.67848 0.30422 0.0
H310 H 0.13217 0.70034 0.37122 0.0
H311 H 0.16384 0.74138 0.37271 0.0
H312 H 0.22702 0.87721 0.38764 0.0
H313 H 0.23277 0.84543 0.35116 0.0
H314 H 0.33516 0.88429 0.39315 0.0
H315 H 0.34081 0.8525 0.35699 0.0
H316 H 0.38198 0.81477 0.21662 0.0
H317 H 0.34661 0.74579 0.17837 0.0
H318 H 0.30452 0.73767 0.21809 0.0
H319 H 0.33986 0.80623 0.25679 0.0
C320 C 0.08553 0.572 0.36624 0.0
C321 C 0.09893 0.57849 0.39227 0.0
C322 C 0.08761 0.55973 0.41245 0.0
C323 C 0.06801 0.54293 0.39764 0.0
N324 N 0.06636 0.54994 0.36944 0.0
Co325 Co 0.04023 0.53174 0.34033 0.0
N326 N 0.01173 0.51209 0.37086 0.0
C327 C 0.01862 0.50968 0.39912 0.0
C328 C 0.99496 0.49454 0.41518 0.0
C329 C 0.97204 0.48648 0.39579 0.0
C330 C 0.98317 0.49706 0.36881 0.0
N331 N 0.01435 0.51355 0.31093 0.0
C332 C 0.9856 0.49835 0.31389 0.0
C333 C 0.97734 0.48858 0.28758 0.0
C334 C 1.00206 0.49755 0.26771 0.0
C335 C 0.024 0.51227 0.28284 0.0
N336 N 0.06891 0.55139 0.31005 0.0
C337 C 0.07318 0.54563 0.28226 0.0
C338 C 0.09414 0.56314 0.26641 0.0
C339 C 0.1036 0.58104 0.28548 0.0
C340 C 0.08778 0.57336 0.31192 0.0
N341 N 0.0724 0.50483 0.341 0.0
C342 C 0.11798 0.4661 0.34093 0.0
C343 C 0.12953 0.49172 0.34011 0.0
C344 C 0.10638 0.51075 0.34031 0.0
C345 C 0.08318 0.46037 0.34169 0.0
C346 C 0.06097 0.47987 0.34175 0.0
N347 N 1.00828 0.55868 0.33959 0.0
C348 C 0.97833 0.58974 0.3126 0.0
C349 C 0.96684 0.60001 0.33824 0.0
C350 C 0.97588 0.58864 0.36461 0.0
C351 C 0.99655 0.56807 0.36481 0.0
C352 C 0.99891 0.56916 0.31374 0.0
H353 H 1.0034 0.55999 0.38542 0.0
H354 H 1.00774 0.56203 0.29362 0.0
H355 H 0.11601 0.53028 0.33976 0.0
H356 H 0.0345 0.47457 0.34215 0.0
C357 C 0.04568 0.52374 0.41017 0.0
C358 C 0.09231 0.58656 0.33868 0.0
C359 C 0.96841 0.48966 0.34161 0.0
C360 C 0.05209 0.52685 0.27091 0.0
H361 H 0.11488 0.59512 0.39629 0.0
H362 H 0.09171 0.55917 0.43544 0.0
H363 H 0.99428 0.49004 0.43826 0.0
H364 H 0.95022 0.47361 0.40078 0.0
H365 H 0.95634 0.47555 0.28335 0.0
H366 H 1.00376 0.49382 0.24495 0.0
H367 H 0.10042 0.56358 0.24344 0.0
H368 H 0.12004 0.59785 0.28051 0.0
H369 H 0.15626 0.49702 0.33947 0.0
H370 H 0.07307 0.4409 0.34166 0.0
H371 H 0.972 0.59788 0.29171 0.0
H372 H 0.96692 0.59548 0.38499 0.0
C373 C 0.07697 0.57924 0.77703 0.0
C374 C 0.0883 0.58588 0.80377 0.0
C375 C 0.07022 0.57064 0.82411 0.0
C376 C 0.04909 0.55552 0.80873 0.0
N377 N 0.0529 0.5599 0.77972 0.0
Co378 Co 0.02659 0.54265 0.74935 0.0
N379 N 0.9978 0.5219 0.77939 0.0
C380 C 0.99902 0.52306 0.80847 0.0
C381 C 0.97683 0.506 0.82355 0.0
C382 C 0.96085 0.49284 0.80292 0.0
C383 C 0.97441 0.50258 0.77635 0.0
N384 N 1.00043 0.5252 0.71901 0.0
C385 C 0.97713 0.50531 0.72168 0.0
C386 C 0.96703 0.49782 0.69487 0.0
C387 C 0.9847 0.51336 0.67456 0.0
C388 C 1.00464 0.52929 0.69 0.0
N389 N 0.05525 0.56356 0.71932 0.0
C390 C 0.05328 0.56293 0.69027 0.0
C391 C 0.07487 0.58036 0.67514 0.0
C392 C 0.09133 0.59321 0.69573 0.0
C393 C 0.07885 0.58276 0.72236 0.0
N394 N 0.05906 0.51525 0.74879 0.0
C395 C 0.10075 0.47364 0.74847 0.0
C396 C 0.0927 0.48633 0.72265 0.0
C397 C 0.07201 0.50695 0.72329 0.0
C398 C 0.08822 0.48255 0.77438 0.0
C399 C 0.06786 0.50322 0.77407 0.0
N400 N 0.99412 0.57009 0.74999 0.0
C401 C 0.96276 0.60207 0.72514 0.0
C402 C 0.9527 0.61186 0.75139 0.0
C403 C 0.96307 0.59997 0.77685 0.0
C404 C 0.98332 0.57928 0.77569 0.0
C405 C 0.98327 0.58133 0.72493 0.0
H406 H 0.99023 0.57127 0.79595 0.0
H407 H 0.99044 0.57499 0.70424 0.0
H408 H 0.0664 0.51561 0.70289 0.0
H409 H 0.05918 0.50888 0.79461 0.0
C410 C 0.02351 0.5386 0.82093 0.0
C411 C 0.08887 0.5926 0.74986 0.0
C412 C 0.96534 0.49205 0.74896 0.0
C413 C 0.02943 0.54684 0.67791 0.0
H414 H 0.10711 0.60068 0.80813 0.0
H415 H 0.07154 0.57111 0.84739 0.0
H416 H 0.97358 0.50286 0.84678 0.0
H417 H 0.94203 0.47733 0.80697 0.0
H418 H 0.94949 0.48226 0.69036 0.0
H419 H 0.98404 0.51248 0.65128 0.0
H420 H 0.07754 0.58385 0.65191 0.0
H421 H 0.10976 0.60896 0.69157 0.0
H422 H 0.10161 0.48003 0.70198 0.0
H423 H 0.09414 0.47358 0.79497 0.0
H424 H 0.95557 0.61074 0.70478 0.0
H425 H 0.95554 0.6066 0.79776 0.0
C426 C 0.29683 0.99652 0.58318 0.0
C427 C 0.3272 0.98958 0.594 0.0
C428 C 0.35188 1.00475 0.57954 0.0
C429 C 0.33525 0.02009 0.56086 0.0
N430 N 0.30137 1.01587 0.56272 0.0
Co431 Co 0.26769 0.03346 0.53885 0.0
N432 N 0.30422 0.05427 0.51584 0.0
C433 C 0.33784 0.0531 0.51851 0.0
C434 C 0.35666 0.07043 0.50071 0.0
C435 C 0.33373 0.08375 0.48606 0.0
C436 C 0.30209 0.0737 0.49578 0.0
N437 N 0.23401 0.05123 0.5152 0.0
C438 C 0.23855 0.07106 0.49538 0.0
C439 C 0.20817 0.07831 0.48484 0.0
C440 C 0.18348 0.06292 0.49895 0.0
C441 C 0.20011 0.04716 0.51715 0.0
N442 N 0.23117 1.01252 0.5617 0.0
C443 C 0.19758 1.01319 0.55846 0.0
C444 C 0.17873 0.99587 0.57622 0.0
C445 C 0.20162 0.98306 0.59149 0.0
C446 C 0.23327 0.99342 0.58219 0.0
N447 N 0.26574 0.06067 0.56716 0.0
C448 C 0.26279 0.103 0.60213 0.0
C449 C 0.23344 0.08967 0.59427 0.0
C450 C 0.23546 0.06879 0.57695 0.0
C451 C 0.29366 0.09394 0.59336 0.0
C452 C 0.29456 0.0729 0.57613 0.0
N453 N 0.26964 1.00631 0.5104 0.0
C454 C 0.24166 0.97548 0.48088 0.0
C455 C 0.27233 0.96575 0.47277 0.0
C456 C 0.30169 0.97719 0.48319 0.0
C457 C 0.2998 0.99723 0.50174 0.0
C458 C 0.24088 0.99553 0.49955 0.0
H459 H 0.32313 1.00494 0.50893 0.0
H460 H 0.21665 1.00177 0.50512 0.0
H461 H 0.21214 0.05977 0.5714 0.0
H462 H 0.31889 0.06722 0.56987 0.0
C463 C 0.35081 0.03725 0.53987 0.0
C464 C 0.26452 0.98362 0.59244 0.0
C465 C 0.27084 0.08429 0.48673 0.0
C466 C 0.18458 0.02947 0.53756 0.0
H467 H 0.33111 0.97474 0.61028 0.0
H468 H 0.37881 1.00417 0.5818 0.0
H469 H 0.38379 0.07369 0.49941 0.0
H470 H 0.33966 0.0996 0.47067 0.0
H471 H 0.20426 0.09356 0.46906 0.0
H472 H 0.15655 0.06363 0.49681 0.0
H473 H 0.15162 0.99249 0.57738 0.0
H474 H 0.19567 0.96746 0.60721 0.0
H475 H 0.20887 0.09535 0.60133 0.0
H476 H 0.31713 0.10344 0.5991 0.0
H477 H 0.2182 0.96733 0.47328 0.0
H478 H 0.32617 0.97083 0.47692 0.0
C479 C 0.4799 0.81689 0.08492 0.0
C480 C 0.46965 0.83973 0.09469 0.0
C481 C 0.48823 0.85851 0.07904 0.0
C482 C 0.50866 0.84615 0.06066 0.0
N483 N 0.50406 0.82056 0.06337 0.0
Co484 Co 0.52957 0.79532 0.04164 0.0
N485 N 0.55735 0.82301 0.01899 0.0
C486 C 0.5554 0.84832 0.02116 0.0
C487 C 0.57645 0.86266 1.00185 0.0
C488 C 0.59248 0.84552 0.98604 0.0
C489 C 0.58023 0.82162 0.99671 0.0
N490 N 0.55547 0.77009 0.02026 0.0
C491 C 0.5789 0.77374 0.99815 0.0
C492 C 0.59006 0.75095 0.98908 0.0
C493 C 0.57276 0.73216 1.00577 0.0
C494 C 0.55215 0.74452 0.02403 0.0
N495 N 0.50134 0.76762 0.06384 0.0
C496 C 0.5031 0.74233 0.06137 0.0
C497 C 0.48092 0.72793 0.07964 0.0
C498 C 0.46404 0.745 0.09486 0.0
C499 C 0.47694 0.76895 0.08491 0.0
N500 N 0.4961 0.79568 1.01072 0.0
C501 C 0.45252 0.79682 0.96392 0.0
C502 C 0.46371 0.7739 0.97516 0.0
C503 C 0.48522 0.77375 0.99842 0.0
C504 C 0.4627 0.81903 0.9771 0.0
C505 C 0.48428 0.81804 1.00023 0.0
N506 N 0.56316 0.79501 0.0726 0.0
C507 C 0.59414 0.77226 0.1087 0.0
C508 C 0.60769 0.79497 0.11884 0.0
C509 C 0.59925 0.81763 0.10493 0.0
C510 C 0.57719 0.81723 0.08213 0.0
C511 C 0.57221 0.7727 0.08573 0.0
H512 H 0.57161 0.83521 0.07283 0.0
H513 H 0.56275 0.75475 0.07913 0.0
H514 H 0.49295 0.75569 1.00593 0.0
H515 H 0.4914 0.8357 1.00899 0.0
C516 C 0.53256 0.85801 0.04078 0.0
C517 C 0.46608 0.79228 0.09702 0.0
C518 C 0.5902 0.79826 0.98422 0.0
C519 C 0.52727 0.73267 0.04297 0.0
H520 H 0.45084 0.8425 0.11155 0.0
H521 H 0.48717 0.87877 0.081 0.0
H522 H 0.57923 0.88314 0.99913 0.0
H523 H 0.61065 0.85006 0.9683 0.0
H524 H 0.60823 0.74819 0.9717 0.0
H525 H 0.57417 0.7119 1.00411 0.0
H526 H 0.47794 0.70744 0.0821 0.0
H527 H 0.44486 0.74031 0.11177 0.0
H528 H 0.45583 0.75611 0.96613 0.0
H529 H 0.45465 0.83725 0.9692 0.0
H530 H 0.60054 0.75416 0.11835 0.0
H531 H 0.60911 0.83574 0.11198 0.0
C532 C 0.83212 1.00432 0.59265 0.0
C533 C 0.86285 0.99713 0.60251 0.0
C534 C 0.88714 1.0124 0.5877 0.0
C535 C 0.86998 0.02797 0.5697 0.0
N536 N 0.83611 0.02379 0.5723 0.0
Co537 Co 0.80176 0.04166 0.54945 0.0
N538 N 0.83767 0.06274 0.52602 0.0
C539 C 0.87139 0.06162 0.52806 0.0
C540 C 0.88978 0.07894 0.50995 0.0
C541 C 0.86648 0.09216 0.49567 0.0
C542 C 0.83504 0.08204 0.50587 0.0
N543 N 0.76741 0.05969 0.52679 0.0
C544 C 0.77139 0.07942 0.50677 0.0
C545 C 0.74068 0.08673 0.49702 0.0
C546 C 0.71637 0.07143 0.51177 0.0
C547 C 0.73353 0.05566 0.52954 0.0
N548 N 0.76585 0.02042 0.57268 0.0
C549 C 0.73214 0.02128 0.57039 0.0
C550 C 0.71379 1.0039 0.58847 0.0
C551 C 0.73713 0.99087 0.60295 0.0
C552 C 0.76851 1.00109 0.59277 0.0
N553 N 0.80065 0.06836 0.57843 0.0
C554 C 0.79924 0.10739 0.61818 0.0
C555 C 0.76946 0.09562 0.60892 0.0
C556 C 0.77072 0.0763 0.5893 0.0
C557 C 0.82972 0.09929 0.60708 0.0
C558 C 0.82985 0.0799 0.58757 0.0
N559 N 0.8029 1.01487 0.52053 0.0
C560 C 0.77402 0.98364 0.49208 0.0
C561 C 0.80453 0.97399 0.4833 0.0
C562 C 0.83419 0.98558 0.49294 0.0
C563 C 0.83284 1.00587 0.51118 0.0
C564 C 0.77379 1.00394 0.51045 0.0
H565 H 0.85639 1.0137 0.51774 0.0
H566 H 0.7497 1.01015 0.5166 0.0
H567 H 0.74712 0.06815 0.58317 0.0
H568 H 0.85394 0.07474 0.57999 0.0
C569 C 0.88496 0.04544 0.54877 0.0
C570 C 0.80001 0.99129 0.60234 0.0
C571 C 0.80352 0.09227 0.49682 0.0
C572 C 0.71857 0.0378 0.55007 0.0
H573 H 0.86729 0.98203 0.6183 0.0
H574 H 0.91415 1.01173 0.58926 0.0
H575 H 0.91691 0.08214 0.50805 0.0
H576 H 0.87204 0.10789 0.48004 0.0
H577 H 0.73632 0.10186 0.48122 0.0
H578 H 0.68936 0.0721 0.5102 0.0
H579 H 0.68666 1.00069 0.59042 0.0
H580 H 0.73173 0.97532 0.61886 0.0
H581 H 0.74519 0.10113 0.61697 0.0
H582 H 0.85351 0.10814 0.61305 0.0
H583 H 0.7503 0.97515 0.48547 0.0
H584 H 0.85849 0.97898 0.48648 0.0
C585 C 0.48721 0.30272 0.08998 0.0
C586 C 0.47564 0.32562 0.09836 0.0
C587 C 0.49299 0.34422 0.08144 0.0
C588 C 0.51396 0.33167 0.06371 0.0
N589 N 0.51082 0.30613 0.06801 0.0
Co590 Co 0.53706 0.28066 0.04741 0.0
N591 N 0.56541 0.30814 0.02497 0.0
C592 C 0.56356 0.33347 0.02698 0.0
C593 C 0.58587 0.34768 1.00863 0.0
C594 C 0.6029 0.33042 0.99383 0.0
C595 C 0.58994 0.30656 1.00409 0.0
N596 N 0.56292 0.25516 0.02642 0.0
C597 C 0.58718 0.2586 1.00495 0.0
C598 C 0.59769 0.23565 0.99571 0.0
C599 C 0.57917 0.21702 1.01165 0.0
C600 C 0.55851 0.22958 0.02964 0.0
N601 N 0.50915 0.25319 0.0703 0.0
C602 C 0.51134 0.22784 0.06869 0.0
C603 C 0.49024 0.2137 0.08813 0.0
C604 C 0.47393 0.23101 0.10343 0.0
C605 C 0.48599 0.25482 0.09231 0.0
N606 N 0.50381 0.28042 1.01617 0.0
C607 C 0.45844 0.27962 0.97055 0.0
C608 C 0.46742 0.25717 0.98462 0.0
C609 C 0.48983 0.258 1.00714 0.0
C610 C 0.47257 0.30252 0.97969 0.0
C611 C 0.49483 0.3025 1.00245 0.0
N612 N 0.57016 0.28086 0.07866 0.0
C613 C 0.60324 0.25811 0.11307 0.0
C614 C 0.61311 0.28055 0.12595 0.0
C615 C 0.60193 0.30327 0.11414 0.0
C616 C 0.58073 0.30301 0.09066 0.0
C617 C 0.582 0.25868 0.08969 0.0
H618 H 0.57296 0.32094 0.08275 0.0
H619 H 0.57512 0.24087 0.08119 0.0
H620 H 0.49567 0.24017 1.01667 0.0
H621 H 0.50456 0.32059 1.00843 0.0
C622 C 0.53905 0.34334 0.04486 0.0
C623 C 0.47594 0.27837 0.10434 0.0
C624 C 0.60076 0.28309 0.99237 0.0
C625 C 0.53448 0.21792 0.04953 0.0
H626 H 0.45716 0.32856 0.11543 0.0
H627 H 0.49135 0.36452 0.08263 0.0
H628 H 0.58878 0.36815 1.00579 0.0
H629 H 0.62217 0.33492 0.97695 0.0
H630 H 0.61661 0.23271 0.979 0.0
H631 H 0.58037 0.19672 1.0101 0.0
H632 H 0.48768 0.19324 0.09131 0.0
H633 H 0.45578 0.22658 0.12121 0.0
H634 H 0.45769 0.2389 0.97794 0.0
H635 H 0.4663 0.32042 0.96946 0.0
H636 H 0.61128 0.24001 0.1214 0.0
H637 H 0.60958 0.32124 0.1229 0.0
C638 C 0.18994 0.42667 0.31626 0.0
C639 C 0.18586 0.40456 0.33467 0.0
C640 C 0.16844 0.44668 0.31885 0.0
C641 C 0.1419 0.4454 0.33992 0.0
H642 H 0.20944 0.42829 0.2992 0.0
H643 H 0.17208 0.46299 0.3037 0.0
S644 S 0.12256 0.39302 0.39551 0.0
N645 N 0.15472 0.38353 0.37614 0.0
N646 N 0.11431 0.42102 0.38093 0.0
C647 C 0.1381 0.42374 0.35899 0.0
C648 C 0.16002 0.40338 0.35638 0.0
C649 C 0.16651 0.63852 0.74485 0.0
C650 C 0.15401 0.66125 0.75434 0.0
C651 C 0.14527 0.61654 0.74294 0.0
C652 C 0.11073 0.61647 0.75041 0.0
H653 H 0.19301 0.63765 0.73902 0.0
H654 H 0.15597 0.59937 0.73594 0.0
S655 S 0.06511 0.6705 0.77661 0.0
N656 N 0.10452 0.68196 0.77149 0.0
N657 N 0.06474 0.64071 0.76739 0.0
C658 C 0.09774 0.63898 0.75955 0.0
C659 C 0.1193 0.66138 0.76155 0.0
C660 C 0.89739 0.64335 0.3172 0.0
C661 C 0.90366 0.66483 0.33346 0.0
C662 C 0.91782 0.62259 0.31895 0.0
C663 C 0.94529 0.62225 0.33723 0.0
H664 H 0.87674 0.64272 0.3026 0.0
H665 H 0.91189 0.60655 0.30597 0.0
S666 S 0.97244 0.67359 0.38464 0.0
N667 N 0.93919 0.68429 0.36879 0.0
N668 N 0.97776 0.64542 0.37189 0.0
C669 C 0.95176 0.64353 0.35377 0.0
C670 C 0.93102 0.66477 0.35187 0.0
C671 C 0.94261 0.42099 0.75721 0.0
C672 C 0.90898 0.41896 0.74868 0.0
C673 C 0.96059 0.44467 0.75726 0.0
C674 C 0.94555 0.46717 0.74896 0.0
H675 H 0.9553 0.4041 0.76345 0.0
H676 H 0.98653 0.44541 0.76365 0.0
S677 S 0.85764 0.47262 0.72697 0.0
N678 N 0.861 0.44181 0.73304 0.0
N679 N 0.8948 0.48625 0.73349 0.0
C680 C 0.91183 0.46554 0.74103 0.0
C681 C 0.89358 0.44145 0.74074 0.0
C682 C 0.28091 0.13449 0.42442 0.0
C683 C 0.27132 0.15668 0.43741 0.0
C684 C 0.28106 0.11119 0.44047 0.0
C685 C 0.2716 0.10924 0.47007 0.0
H686 H 0.28859 0.13515 0.40169 0.0
H687 H 0.28848 0.09456 0.42967 0.0
S688 S 0.24311 0.16098 0.5143 0.0
N689 N 0.251 0.17468 0.48172 0.0
N690 N 0.25188 0.13099 0.51173 0.0
C691 C 0.26184 0.13109 0.48333 0.0
C692 C 0.26163 0.15478 0.46708 0.0
C693 C 0.38138 0.81422 0.91519 0.0
C694 C 0.38906 0.80228 0.88945 0.0
C695 C 0.40168 0.81202 0.93924 0.0
C696 C 0.43052 0.7978 0.93856 0.0
H697 H 0.35948 0.82539 0.91676 0.0
H698 H 0.39472 0.82156 0.95856 0.0
S699 S 0.46282 0.76405 0.87586 0.0
N700 N 0.42818 0.77639 0.86445 0.0
N701 N 0.46634 0.77232 0.90958 0.0
C702 C 0.43846 0.78571 0.91299 0.0
C703 C 0.41775 0.78793 0.88849 0.0
C704 C 0.82717 0.90982 0.45651 0.0
C705 C 0.8092 0.90765 0.43102 0.0
C706 C 0.82545 0.93124 0.47315 0.0
C707 C 0.80561 0.95145 0.46512 0.0
H708 H 0.8425 0.89469 0.46389 0.0
H709 H 0.83953 0.93185 0.4927 0.0
S710 S 0.75525 0.95602 0.39942 0.0
N711 N 0.77196 0.9282 0.39795 0.0
N712 N 0.76857 0.96833 0.42932 0.0
C713 C 0.78758 0.94962 0.43965 0.0
C714 C 0.7894 0.9278 0.42262 0.0
C715 C 0.68269 0.29221 0.94711 0.0
C716 C 0.67217 0.28939 0.91865 0.0
C717 C 0.6596 0.28964 0.9709 0.0
C718 C 0.62515 0.28424 0.96708 0.0
H719 H 0.709 0.29661 0.95102 0.0
H720 H 0.66862 0.29226 0.99239 0.0
S721 S 0.58426 0.27521 0.89755 0.0
N722 N 0.6246 0.28092 0.8883 0.0
N723 N 0.5814 0.27598 0.93317 0.0
C724 C 0.61426 0.28098 0.93899 0.0
C725 C 0.63772 0.28355 0.91473 0.0
C726 C 0.26898 0.91389 0.61608 0.0
C727 C 0.25902 0.91309 0.64568 0.0
C728 C 0.27126 0.9368 0.59917 0.0
C729 C 0.26347 0.95974 0.61117 0.0
H730 H 0.27506 0.89664 0.60588 0.0
H731 H 0.27875 0.93657 0.57645 0.0
S732 S 0.23595 0.96831 0.68713 0.0
N733 N 0.24112 0.93758 0.68602 0.0
N734 N 0.24576 0.98055 0.65417 0.0
C735 C 0.25387 0.95937 0.64066 0.0
C736 C 0.25159 0.93609 0.65793 0.0
C737 C 0.68135 0.81249 0.16567 0.0
C738 C 0.673 0.7989 0.19215 0.0
C739 C 0.66047 0.81072 0.142 0.0
C740 C 0.63035 0.79529 0.14378 0.0
H741 H 0.7042 0.8247 0.16327 0.0
H742 H 0.66795 0.82161 0.12213 0.0
S743 S 0.59614 0.75673 0.20857 0.0
N744 N 0.63203 0.76995 0.21892 0.0
N745 N 0.5928 0.76666 0.17448 0.0
C746 C 0.6218 0.78144 0.17004 0.0
C747 C 0.6431 0.78323 0.19417 0.0
C748 C 0.77546 0.16765 0.6543 0.0
C749 C 0.79525 0.16791 0.67888 0.0
C750 C 0.77688 0.14808 0.63488 0.0
C751 C 0.7984 0.12807 0.63904 0.0
H752 H 0.75819 0.18243 0.65035 0.0
H753 H 0.76107 0.14869 0.61634 0.0
S754 S 0.8561 0.1202 0.6996 0.0
N755 N 0.83777 0.14674 0.70582 0.0
N756 N 0.84003 0.10985 0.66971 0.0
C757 C 0.81863 0.12828 0.66335 0.0
C758 C 0.81712 0.14816 0.68315 0.0
C759 C 0.40196 0.26973 0.1592 0.0
C760 C 0.41711 0.27448 0.18558 0.0
C761 C 0.42102 0.27122 0.13294 0.0
C762 C 0.45581 0.27761 0.13216 0.0
H763 H 0.37534 0.26422 0.15895 0.0
H764 H 0.4086 0.26707 0.11315 0.0
S765 S 0.50724 0.29356 0.19442 0.0
N766 N 0.46886 0.28718 0.20877 0.0
N767 N 0.50449 0.28975 0.15938 0.0
C768 C 0.47113 0.283 0.15809 0.0
C769 C 0.45185 0.28145 0.18482 0.0
C770 C 0.92168 0.67521 0.77358 0.0
C771 C 0.8912 0.67707 0.75932 0.0
C772 C 0.94164 0.65441 0.77033 0.0
C773 C 0.93206 0.63453 0.75265 0.0
H774 H 0.93008 0.6899 0.78761 0.0
H775 H 0.96474 0.65382 0.78194 0.0
S776 S 0.85433 0.62984 0.71097 0.0
N777 N 0.85231 0.65697 0.72696 0.0
N778 N 0.88991 0.61797 0.72078 0.0
C779 C 0.90199 0.63632 0.73782 0.0
C780 C 0.88158 0.65753 0.74116 0.0
C781 C 0.93507 0.42053 0.34778 0.0
C782 C 0.90157 0.42161 0.33917 0.0
C783 C 0.95613 0.44264 0.34919 0.0
C784 C 0.94455 0.46673 0.3421 0.0
H785 H 0.94517 0.4024 0.35332 0.0
H786 H 0.9819 0.44089 0.35542 0.0
S787 S 0.85968 0.48026 0.31761 0.0
N788 N 0.85821 0.44906 0.32291 0.0
N789 N 0.8979 0.49053 0.32599 0.0
C790 C 0.91122 0.46821 0.3337 0.0
C791 C 0.88969 0.44571 0.33221 0.0
C792 C 0.1303 0.40802 0.76848 0.0
C793 C 0.16211 0.40794 0.75408 0.0
C794 C 0.11044 0.42904 0.76594 0.0
C795 C 0.12143 0.45094 0.74884 0.0
H796 H 0.12078 0.39174 0.78213 0.0
H797 H 0.08631 0.42822 0.7777 0.0
S798 S 0.2028 0.46071 0.70688 0.0
N799 N 0.20368 0.43183 0.72209 0.0
N800 N 0.16622 0.47127 0.7172 0.0
C801 C 0.15281 0.45097 0.73377 0.0
C802 C 0.17314 0.42952 0.73641 0.0
C803 C 0.16267 0.63855 0.33844 0.0
C804 C 0.14519 0.661 0.33691 0.0
C805 C 0.14546 0.61454 0.33899 0.0
C806 C 0.11019 0.61212 0.3379 0.0
H807 H 0.18983 0.63954 0.33972 0.0
H808 H 0.15976 0.59773 0.34041 0.0
S809 S 0.05262 0.66447 0.33196 0.0
N810 N 0.09046 0.67894 0.33302 0.0
N811 N 0.05838 0.63375 0.3342 0.0
C812 C 0.09241 0.63421 0.33591 0.0
C813 C 0.10983 0.65867 0.33543 0.0
C814 C 0.79599 0.92101 0.62555 0.0
C815 C 0.80028 0.92104 0.65565 0.0
C816 C 0.79549 0.94377 0.60856 0.0
C817 C 0.79946 0.9674 0.62098 0.0
H818 H 0.79293 0.90322 0.61502 0.0
H819 H 0.79229 0.94291 0.58549 0.0
S820 S 0.812 0.97831 0.69828 0.0
N821 N 0.80895 0.94709 0.69689 0.0
N822 N 0.80775 0.98973 0.66484 0.0
C823 C 0.80354 0.96783 0.65091 0.0
C824 C 0.80397 0.94469 0.66827 0.0
C825 C 0.68334 0.26366 0.17593 0.0
C826 C 0.67538 0.27604 0.20131 0.0
C827 C 0.66348 0.26559 0.15158 0.0
C828 C 0.63478 0.27998 0.15157 0.0
H829 H 0.70512 0.2523 0.17489 0.0
H830 H 0.67064 0.25568 0.13259 0.0
S831 S 0.60202 0.31509 0.21304 0.0
N832 N 0.63626 0.30266 0.22517 0.0
N833 N 0.59892 0.30627 0.17949 0.0
C834 C 0.62663 0.29259 0.17674 0.0
C835 C 0.6469 0.29063 0.20155 0.0
C836 C 0.28068 0.15152 0.659 0.0
C837 C 0.25969 0.1712 0.65154 0.0
C838 C 0.28162 0.12963 0.64297 0.0
C839 C 0.2613 0.12635 0.619 0.0
H840 H 0.29687 0.1532 0.67719 0.0
H841 H 0.29818 0.11504 0.64957 0.0
S842 S 0.20156 0.17203 0.59066 0.0
N843 N 0.21758 0.18564 0.6188 0.0
N844 N 0.21979 0.14489 0.58847 0.0
C845 C 0.2401 0.14583 0.6114 0.0
C846 C 0.23922 0.16812 0.62765 0.0
C847 C 0.38327 0.78288 0.14113 0.0
C848 C 0.39317 0.78547 0.16982 0.0
C849 C 0.40685 0.78555 0.11768 0.0
C850 C 0.44121 0.79085 0.12203 0.0
H851 H 0.35705 0.77863 0.13677 0.0
H852 H 0.39826 0.78316 0.096 0.0
S853 S 0.48065 0.79909 0.19235 0.0
N854 N 0.44014 0.79348 0.20095 0.0
N855 N 0.48424 0.79862 0.15672 0.0
C856 C 0.45152 0.79379 0.15036 0.0
C857 C 0.42756 0.79112 0.17429 0.0
C858 C 0.79796 0.16225 0.4747 0.0
C859 C 0.8069 0.16353 0.44487 0.0
C860 C 0.7965 0.13913 0.49121 0.0
C861 C 0.8041 0.11643 0.47858 0.0
H862 H 0.79201 0.17929 0.4854 0.0
H863 H 0.78971 0.13902 0.5141 0.0
S864 S 0.82909 0.10907 0.40177 0.0
N865 N 0.82369 0.13971 0.40363 0.0
N866 N 0.82051 0.09634 0.43472 0.0
C867 C 0.81271 0.11726 0.44887 0.0
C868 C 0.81418 0.14077 0.432 0.0
C869 C 0.42339 0.29091 0.89574 0.0
C870 C 0.39333 0.27539 0.89718 0.0
C871 C 0.44391 0.29266 0.91972 0.0
C872 C 0.43515 0.27897 0.94606 0.0
H873 H 0.43164 0.30118 0.87566 0.0
H874 H 0.46731 0.30424 0.91734 0.0
S875 S 0.35688 0.23832 0.96222 0.0
N876 N 0.35438 0.24792 0.92792 0.0
N877 N 0.39281 0.25122 0.97287 0.0
C878 C 0.40452 0.26418 0.94809 0.0
C879 C 0.38367 0.26239 0.92372 0.0
C880 C 0.25756 0.924 0.40888 0.0
C881 C 0.27744 0.9033 0.4148 0.0
C882 C 0.25573 0.94393 0.42781 0.0
C883 C 0.27372 0.94398 0.45344 0.0
H884 H 0.24394 0.92514 0.38908 0.0
H885 H 0.24069 0.9597 0.42199 0.0
S886 S 0.32618 0.8928 0.48067 0.0
N887 N 0.3133 0.88316 0.44934 0.0
N888 N 0.30984 0.92046 0.48483 0.0
C889 C 0.29286 0.92302 0.46003 0.0
C890 C 0.29472 0.90275 0.44078 0.0
C891 C 0.66513 0.80264 0.93018 0.0
C892 C 0.64975 0.80364 0.90323 0.0
C893 C 0.64578 0.80067 0.95632 0.0
C894 C 0.61043 0.79948 0.95641 0.0
H895 H 0.69232 0.80402 0.93108 0.0
H896 H 0.6585 0.80035 0.9766 0.0
S897 S 0.55764 0.79949 0.8923 0.0
N898 N 0.59672 0.80189 0.87862 0.0
N899 N 0.56067 0.79833 0.92782 0.0
C900 C 0.59469 0.79986 0.92984 0.0
C901 C 0.61427 0.80193 0.90324 0.0
loop_
_geom_bond_atom_site_label_1
_geom_bond_atom_site_label_2
_geom_bond_distance
_geom_bond_site_symmetry_2
_ccdc_geom_bond_type
C0 C1 1.264 . S
C0 C5 1.479 . S
C0 C10 1.465 . S
C1 C0 1.264 . S
C1 C3 1.339 . S
C1 H28 0.931 . S
C2 C3 1.395 . S
C2 C4 1.320 . S
C3 C1 1.339 . S
C3 C2 1.395 . S
C3 H29 0.929 . S
C4 C2 1.320 . S
C4 C5 1.405 . S
C4 H30 0.930 . S
C5 C0 1.479 . S
C5 C4 1.405 . S
C5 H31 0.931 . S
U6 O7 2.454 . S
U6 O8 2.458 . S
U6 C9 2.984 . S
U6 C10 2.847 . S
U6 C23 2.882 . S
U6 O24 2.441 . S
U6 O25 2.420 . S
U6 O26 2.455 . S
U6 O27 2.449 . S
O7 U6 2.454 . S
O7 C9 1.353 . S
O8 U6 2.458 . S
O8 C9 1.286 . S
C9 U6 2.984 . S
C9 O7 1.353 . S
C9 O8 1.286 . S
C9 C11 1.363 . S
C10 C0 1.465 . S
C10 U6 2.847 . S
C10 O24 1.249 . S
C10 O25 1.202 . S
C11 C9 1.363 . S
C11 C13 1.408 . S
C11 C16 1.342 . S
C12 C13 1.310 . S
C12 C15 1.461 . S
C12 H32 0.932 . S
C13 C11 1.408 . S
C13 C12 1.310 . S
C13 H33 0.930 . S
C14 C15 1.474 . S
C14 C16 1.285 . S
C14 H34 0.929 . S
C15 C12 1.461 . S
C15 C14 1.474 . S
C16 C11 1.342 . S
C16 C14 1.285 . S
C16 H35 0.930 . S
C17 C20 1.424 . S
C17 C22 1.245 . S
C17 C23 1.428 . S
C18 C21 1.260 . S
C18 C22 1.477 . S
C18 H36 0.932 . S
C19 C20 1.384 . S
C19 C21 1.479 . S
C19 H37 0.929 . S
C20 C17 1.424 . S
C20 C19 1.384 . S
C20 H38 0.928 . S
C21 C18 1.260 . S
C21 C19 1.479 . S
C22 C17 1.245 . S
C22 C18 1.477 . S
C22 H39 0.932 . S
C23 U6 2.882 . S
C23 C17 1.428 . S
C23 O26 1.301 . S
C23 O27 1.282 . S
O24 U6 2.441 . S
O24 C10 1.249 . S
O25 U6 2.420 . S
O25 C10 1.202 . S
O26 U6 2.455 . S
O26 C23 1.301 . S
O27 U6 2.449 . S
O27 C23 1.282 . S
H28 C1 0.931 . S
H29 C3 0.929 . S
H30 C4 0.930 . S
H31 C5 0.931 . S
H32 C12 0.932 . S
H33 C13 0.930 . S
H34 C14 0.929 . S
H35 C16 0.930 . S
H36 C18 0.932 . S
H37 C19 0.929 . S
H38 C20 0.928 . S
H39 C22 0.932 . S
C40 C41 1.264 . S
C40 C45 1.479 . S
C40 C50 1.465 . S
C41 C40 1.264 . S
C41 C43 1.339 . S
C41 H68 0.931 . S
C42 C43 1.395 . S
C42 C44 1.320 . S
C43 C41 1.339 . S
C43 C42 1.395 . S
C43 H69 0.929 . S
C44 C42 1.320 . S
C44 C45 1.405 . S
C44 H70 0.930 . S
C45 C40 1.479 . S
C45 C44 1.405 . S
C45 H71 0.931 . S
U46 O47 2.454 . S
U46 O48 2.458 . S
U46 C49 2.984 . S
U46 C50 2.847 . S
U46 C63 2.882 . S
U46 O64 2.441 . S
U46 O65 2.420 . S
U46 O66 2.455 . S
U46 O67 2.449 . S
O47 U46 2.454 . S
O47 C49 1.353 . S
O48 U46 2.458 . S
O48 C49 1.286 . S
C49 U46 2.984 . S
C49 O47 1.353 . S
C49 O48 1.286 . S
C49 C51 1.363 . S
C50 C40 1.465 . S
C50 U46 2.847 . S
C50 O64 1.249 . S
C50 O65 1.202 . S
C51 C49 1.363 . S
C51 C53 1.408 . S
C51 C56 1.342 . S
C52 C53 1.310 . S
C52 C55 1.461 . S
C52 H72 0.932 . S
C53 C51 1.408 . S
C53 C52 1.310 . S
C53 H73 0.930 . S
C54 C55 1.474 . S
C54 C56 1.285 . S
C54 H74 0.929 . S
C55 C52 1.461 . S
C55 C54 1.474 . S
C56 C51 1.342 . S
C56 C54 1.285 . S
C56 H75 0.930 . S
C57 C60 1.424 . S
C57 C62 1.245 . S
C57 C63 1.428 . S
C58 C61 1.260 . S
C58 C62 1.477 . S
C58 H76 0.932 . S
C59 C60 1.384 . S
C59 C61 1.479 . S
C59 H77 0.929 . S
C60 C57 1.424 . S
C60 C59 1.384 . S
C60 H78 0.928 . S
C61 C58 1.260 . S
C61 C59 1.479 . S
C62 C57 1.245 . S
C62 C58 1.477 . S
C62 H79 0.932 . S
C63 U46 2.882 . S
C63 C57 1.428 . S
C63 O66 1.301 . S
C63 O67 1.282 . S
O64 U46 2.441 . S
O64 C50 1.249 . S
O65 U46 2.420 . S
O65 C50 1.202 . S
O66 U46 2.455 . S
O66 C63 1.301 . S
O67 U46 2.449 . S
O67 C63 1.282 . S
H68 C41 0.931 . S
H69 C43 0.929 . S
H70 C44 0.930 . S
H71 C45 0.931 . S
H72 C52 0.932 . S
H73 C53 0.930 . S
H74 C54 0.929 . S
H75 C56 0.930 . S
H76 C58 0.932 . S
H77 C59 0.929 . S
H78 C60 0.928 . S
H79 C62 0.932 . S
C80 C81 1.264 . S
C80 C85 1.479 . S
C80 C90 1.465 . S
C81 C80 1.264 . S
C81 C83 1.339 . S
C81 H108 0.931 . S
C82 C83 1.395 . S
C82 C84 1.320 . S
C83 C81 1.339 . S
C83 C82 1.395 . S
C83 H109 0.929 . S
C84 C82 1.320 . S
C84 C85 1.405 . S
C84 H110 0.930 . S
C85 C80 1.479 . S
C85 C84 1.405 . S
C85 H111 0.931 . S
U86 O87 2.454 . S
U86 O88 2.458 . S
U86 C89 2.984 . S
U86 C90 2.847 . S
U86 C103 2.882 . S
U86 O104 2.441 . S
U86 O105 2.420 . S
U86 O106 2.455 . S
U86 O107 2.449 . S
O87 U86 2.454 . S
O87 C89 1.353 . S
O88 U86 2.458 . S
O88 C89 1.286 . S
C89 U86 2.984 . S
C89 O87 1.353 . S
C89 O88 1.286 . S
C89 C91 1.363 . S
C90 C80 1.465 . S
C90 U86 2.847 . S
C90 O104 1.249 . S
C90 O105 1.202 . S
C91 C89 1.363 . S
C91 C93 1.408 . S
C91 C96 1.342 . S
C92 C93 1.310 . S
C92 C95 1.461 . S
C92 H112 0.932 . S
C93 C91 1.408 . S
C93 C92 1.310 . S
C93 H113 0.930 . S
C94 C95 1.474 . S
C94 C96 1.285 . S
C94 H114 0.929 . S
C95 C92 1.461 . S
C95 C94 1.474 . S
C96 C91 1.342 . S
C96 C94 1.285 . S
C96 H115 0.930 . S
C97 C100 1.424 . S
C97 C102 1.245 . S
C97 C103 1.428 . S
C98 C101 1.260 . S
C98 C102 1.477 . S
C98 H116 0.932 . S
C99 C100 1.384 . S
C99 C101 1.479 . S
C99 H117 0.929 . S
C100 C97 1.424 . S
C100 C99 1.384 . S
C100 H118 0.928 . S
C101 C98 1.260 . S
C101 C99 1.479 . S
C102 C97 1.245 . S
C102 C98 1.477 . S
C102 H119 0.932 . S
C103 U86 2.882 . S
C103 C97 1.428 . S
C103 O106 1.301 . S
C103 O107 1.282 . S
O104 U86 2.441 . S
O104 C90 1.249 . S
O105 U86 2.420 . S
O105 C90 1.202 . S
O106 U86 2.455 . S
O106 C103 1.301 . S
O107 U86 2.449 . S
O107 C103 1.282 . S
H108 C81 0.931 . S
H109 C83 0.929 . S
H110 C84 0.930 . S
H111 C85 0.931 . S
H112 C92 0.932 . S
H113 C93 0.930 . S
H114 C94 0.929 . S
H115 C96 0.930 . S
H116 C98 0.932 . S
H117 C99 0.929 . S
H118 C100 0.928 . S
H119 C102 0.932 . S
C120 C121 1.264 . S
C120 C125 1.479 . S
C120 C130 1.465 . S
C121 C120 1.264 . S
C121 C123 1.339 . S
C121 H148 0.931 . S
C122 C123 1.395 . S
C122 C124 1.320 . S
C123 C121 1.339 . S
C123 C122 1.395 . S
C123 H149 0.929 . S
C124 C122 1.320 . S
C124 C125 1.405 . S
C124 H150 0.930 . S
C125 C120 1.479 . S
C125 C124 1.405 . S
C125 H151 0.931 . S
U126 O127 2.454 . S
U126 O128 2.458 . S
U126 C129 2.984 . S
U126 C130 2.847 . S
U126 C143 2.882 . S
U126 O144 2.441 . S
U126 O145 2.420 . S
U126 O146 2.455 . S
U126 O147 2.449 . S
O127 U126 2.454 . S
O127 C129 1.353 . S
O128 U126 2.458 . S
O128 C129 1.286 . S
C129 U126 2.984 . S
C129 O127 1.353 . S
C129 O128 1.286 . S
C129 C131 1.363 . S
C130 C120 1.465 . S
C130 U126 2.847 . S
C130 O144 1.249 . S
C130 O145 1.202 . S
C131 C129 1.363 . S
C131 C133 1.408 . S
C131 C136 1.342 . S
C132 C133 1.310 . S
C132 C135 1.461 . S
C132 H152 0.932 . S
C133 C131 1.408 . S
C133 C132 1.310 . S
C133 H153 0.930 . S
C134 C135 1.474 . S
C134 C136 1.285 . S
C134 H154 0.929 . S
C135 C132 1.461 . S
C135 C134 1.474 . S
C136 C131 1.342 . S
C136 C134 1.285 . S
C136 H155 0.930 . S
C137 C140 1.424 . S
C137 C142 1.245 . S
C137 C143 1.428 . S
C138 C141 1.260 . S
C138 C142 1.477 . S
C138 H156 0.932 . S
C139 C140 1.384 . S
C139 C141 1.479 . S
C139 H157 0.929 . S
C140 C137 1.424 . S
C140 C139 1.384 . S
C140 H158 0.928 . S
C141 C138 1.260 . S
C141 C139 1.479 . S
C142 C137 1.245 . S
C142 C138 1.477 . S
C142 H159 0.932 . S
C143 U126 2.882 . S
C143 C137 1.428 . S
C143 O146 1.301 . S
C143 O147 1.282 . S
O144 U126 2.441 . S
O144 C130 1.249 . S
O145 U126 2.420 . S
O145 C130 1.202 . S
O146 U126 2.455 . S
O146 C143 1.301 . S
O147 U126 2.449 . S
O147 C143 1.282 . S
H148 C121 0.931 . S
H149 C123 0.929 . S
H150 C124 0.930 . S
H151 C125 0.931 . S
H152 C132 0.932 . S
H153 C133 0.930 . S
H154 C134 0.929 . S
H155 C136 0.930 . S
H156 C138 0.932 . S
H157 C139 0.929 . S
H158 C140 0.928 . S
H159 C142 0.932 . S
C160 C161 1.264 . S
C160 C165 1.479 . S
C160 C170 1.465 . S
C161 C160 1.264 . S
C161 C163 1.339 . S
C161 H188 0.931 . S
C162 C163 1.395 . S
C162 C164 1.320 . S
C163 C161 1.339 . S
C163 C162 1.395 . S
C163 H189 0.929 . S
C164 C162 1.320 . S
C164 C165 1.405 . S
C164 H190 0.930 . S
C165 C160 1.479 . S
C165 C164 1.405 . S
C165 H191 0.931 . S
U166 O167 2.454 . S
U166 O168 2.458 . S
U166 C169 2.984 . S
U166 C170 2.847 . S
U166 C183 2.882 . S
U166 O184 2.441 . S
U166 O185 2.420 . S
U166 O186 2.455 . S
U166 O187 2.449 . S
O167 U166 2.454 . S
O167 C169 1.353 . S
O168 U166 2.458 . S
O168 C169 1.286 . S
C169 U166 2.984 . S
C169 O167 1.353 . S
C169 O168 1.286 . S
C169 C171 1.363 . S
C170 C160 1.465 . S
C170 U166 2.847 . S
C170 O184 1.249 . S
C170 O185 1.202 . S
C171 C169 1.363 . S
C171 C173 1.408 . S
C171 C176 1.342 . S
C172 C173 1.310 . S
C172 C175 1.461 . S
C172 H192 0.932 . S
C173 C171 1.408 . S
C173 C172 1.310 . S
C173 H193 0.930 . S
C174 C175 1.474 . S
C174 C176 1.285 . S
C174 H194 0.929 . S
C175 C172 1.461 . S
C175 C174 1.474 . S
C176 C171 1.342 . S
C176 C174 1.285 . S
C176 H195 0.930 . S
C177 C180 1.424 . S
C177 C182 1.245 . S
C177 C183 1.428 . S
C178 C181 1.260 . S
C178 C182 1.477 . S
C178 H196 0.932 . S
C179 C180 1.384 . S
C179 C181 1.479 . S
C179 H197 0.929 . S
C180 C177 1.424 . S
C180 C179 1.384 . S
C180 H198 0.928 . S
C181 C178 1.260 . S
C181 C179 1.479 . S
C182 C177 1.245 . S
C182 C178 1.477 . S
C182 H199 0.932 . S
C183 U166 2.882 . S
C183 C177 1.428 . S
C183 O186 1.301 . S
C183 O187 1.282 . S
O184 U166 2.441 . S
O184 C170 1.249 . S
O185 U166 2.420 . S
O185 C170 1.202 . S
O186 U166 2.455 . S
O186 C183 1.301 . S
O187 U166 2.449 . S
O187 C183 1.282 . S
H188 C161 0.931 . S
H189 C163 0.929 . S
H190 C164 0.930 . S
H191 C165 0.931 . S
H192 C172 0.932 . S
H193 C173 0.930 . S
H194 C174 0.929 . S
H195 C176 0.930 . S
H196 C178 0.932 . S
H197 C179 0.929 . S
H198 C180 0.928 . S
H199 C182 0.932 . S
C200 C201 1.264 . S
C200 C205 1.479 . S
C200 C210 1.465 . S
C201 C200 1.264 . S
C201 C203 1.339 . S
C201 H228 0.931 . S
C202 C203 1.395 . S
C202 C204 1.320 . S
C203 C201 1.339 . S
C203 C202 1.395 . S
C203 H229 0.929 . S
C204 C202 1.320 . S
C204 C205 1.405 . S
C204 H230 0.930 . S
C205 C200 1.479 . S
C205 C204 1.405 . S
C205 H231 0.931 . S
U206 O207 2.454 . S
U206 O208 2.458 . S
U206 C209 2.984 . S
U206 C210 2.847 . S
U206 C223 2.882 . S
U206 O224 2.441 . S
U206 O225 2.420 . S
U206 O226 2.455 . S
U206 O227 2.449 . S
O207 U206 2.454 . S
O207 C209 1.353 . S
O208 U206 2.458 . S
O208 C209 1.286 . S
C209 U206 2.984 . S
C209 O207 1.353 . S
C209 O208 1.286 . S
C209 C211 1.363 . S
C210 C200 1.465 . S
C210 U206 2.847 . S
C210 O224 1.249 . S
C210 O225 1.202 . S
C211 C209 1.363 . S
C211 C213 1.408 . S
C211 C216 1.342 . S
C212 C213 1.310 . S
C212 C215 1.461 . S
C212 H232 0.932 . S
C213 C211 1.408 . S
C213 C212 1.310 . S
C213 H233 0.930 . S
C214 C215 1.474 . S
C214 C216 1.285 . S
C214 H234 0.929 . S
C215 C212 1.461 . S
C215 C214 1.474 . S
C216 C211 1.342 . S
C216 C214 1.285 . S
C216 H235 0.930 . S
C217 C220 1.424 . S
C217 C222 1.245 . S
C217 C223 1.428 . S
C218 C221 1.260 . S
C218 C222 1.477 . S
C218 H236 0.932 . S
C219 C220 1.384 . S
C219 C221 1.479 . S
C219 H237 0.929 . S
C220 C217 1.424 . S
C220 C219 1.384 . S
C220 H238 0.928 . S
C221 C218 1.260 . S
C221 C219 1.479 . S
C222 C217 1.245 . S
C222 C218 1.477 . S
C222 H239 0.932 . S
C223 U206 2.882 . S
C223 C217 1.428 . S
C223 O226 1.301 . S
C223 O227 1.282 . S
O224 U206 2.441 . S
O224 C210 1.249 . S
O225 U206 2.420 . S
O225 C210 1.202 . S
O226 U206 2.455 . S
O226 C223 1.301 . S
O227 U206 2.449 . S
O227 C223 1.282 . S
H228 C201 0.931 . S
H229 C203 0.929 . S
H230 C204 0.930 . S
H231 C205 0.931 . S
H232 C212 0.932 . S
H233 C213 0.930 . S
H234 C214 0.929 . S
H235 C216 0.930 . S
H236 C218 0.932 . S
H237 C219 0.929 . S
H238 C220 0.928 . S
H239 C222 0.932 . S
C240 C241 1.264 . S
C240 C245 1.479 . S
C240 C250 1.465 . S
C241 C240 1.264 . S
C241 C243 1.339 . S
C241 H268 0.931 . S
C242 C243 1.395 . S
C242 C244 1.320 . S
C243 C241 1.339 . S
C243 C242 1.395 . S
C243 H269 0.929 . S
C244 C242 1.320 . S
C244 C245 1.405 . S
C244 H270 0.930 . S
C245 C240 1.479 . S
C245 C244 1.405 . S
C245 H271 0.931 . S
U246 O247 2.454 . S
U246 O248 2.458 . S
U246 C249 2.984 . S
U246 C250 2.847 . S
U246 C263 2.882 . S
U246 O264 2.441 . S
U246 O265 2.420 . S
U246 O266 2.455 . S
U246 O267 2.449 . S
O247 U246 2.454 . S
O247 C249 1.353 . S
O248 U246 2.458 . S
O248 C249 1.286 . S
C249 U246 2.984 . S
C249 O247 1.353 . S
C249 O248 1.286 . S
C249 C251 1.363 . S
C250 C240 1.465 . S
C250 U246 2.847 . S
C250 O264 1.249 . S
C250 O265 1.202 . S
C251 C249 1.363 . S
C251 C253 1.408 . S
C251 C256 1.342 . S
C252 C253 1.310 . S
C252 C255 1.461 . S
C252 H272 0.932 . S
C253 C251 1.408 . S
C253 C252 1.310 . S
C253 H273 0.930 . S
C254 C255 1.474 . S
C254 C256 1.285 . S
C254 H274 0.929 . S
C255 C252 1.461 . S
C255 C254 1.474 . S
C256 C251 1.342 . S
C256 C254 1.285 . S
C256 H275 0.930 . S
C257 C260 1.424 . S
C257 C262 1.245 . S
C257 C263 1.428 . S
C258 C261 1.260 . S
C258 C262 1.477 . S
C258 H276 0.932 . S
C259 C260 1.384 . S
C259 C261 1.479 . S
C259 H277 0.929 . S
C260 C257 1.424 . S
C260 C259 1.384 . S
C260 H278 0.928 . S
C261 C258 1.260 . S
C261 C259 1.479 . S
C262 C257 1.245 . S
C262 C258 1.477 . S
C262 H279 0.932 . S
C263 U246 2.882 . S
C263 C257 1.428 . S
C263 O266 1.301 . S
C263 O267 1.282 . S
O264 U246 2.441 . S
O264 C250 1.249 . S
O265 U246 2.420 . S
O265 C250 1.202 . S
O266 U246 2.455 . S
O266 C263 1.301 . S
O267 U246 2.449 . S
O267 C263 1.282 . S
H268 C241 0.931 . S
H269 C243 0.929 . S
H270 C244 0.930 . S
H271 C245 0.931 . S
H272 C252 0.932 . S
H273 C253 0.930 . S
H274 C254 0.929 . S
H275 C256 0.930 . S
H276 C258 0.932 . S
H277 C259 0.929 . S
H278 C260 0.928 . S
H279 C262 0.932 . S
C280 C281 1.264 . S
C280 C285 1.479 . S
C280 C290 1.465 . S
C281 C280 1.264 . S
C281 C283 1.339 . S
C281 H308 0.931 . S
C282 C283 1.395 . S
C282 C284 1.320 . S
C283 C281 1.339 . S
C283 C282 1.395 . S
C283 H309 0.929 . S
C284 C282 1.320 . S
C284 C285 1.405 . S
C284 H310 0.930 . S
C285 C280 1.479 . S
C285 C284 1.405 . S
C285 H311 0.931 . S
U286 O287 2.454 . S
U286 O288 2.458 . S
U286 C289 2.984 . S
U286 C290 2.847 . S
U286 C303 2.882 . S
U286 O304 2.441 . S
U286 O305 2.420 . S
U286 O306 2.455 . S
U286 O307 2.449 . S
O287 U286 2.454 . S
O287 C289 1.353 . S
O288 U286 2.458 . S
O288 C289 1.286 . S
C289 U286 2.984 . S
C289 O287 1.353 . S
C289 O288 1.286 . S
C289 C291 1.363 . S
C290 C280 1.465 . S
C290 U286 2.847 . S
C290 O304 1.249 . S
C290 O305 1.202 . S
C291 C289 1.363 . S
C291 C293 1.408 . S
C291 C296 1.342 . S
C292 C293 1.310 . S
C292 C295 1.461 . S
C292 H312 0.932 . S
C293 C291 1.408 . S
C293 C292 1.310 . S
C293 H313 0.930 . S
C294 C295 1.474 . S
C294 C296 1.285 . S
C294 H314 0.929 . S
C295 C292 1.461 . S
C295 C294 1.474 . S
C296 C291 1.342 . S
C296 C294 1.285 . S
C296 H315 0.930 . S
C297 C300 1.424 . S
C297 C302 1.245 . S
C297 C303 1.428 . S
C298 C301 1.260 . S
C298 C302 1.477 . S
C298 H316 0.932 . S
C299 C300 1.384 . S
C299 C301 1.479 . S
C299 H317 0.929 . S
C300 C297 1.424 . S
C300 C299 1.384 . S
C300 H318 0.928 . S
C301 C298 1.260 . S
C301 C299 1.479 . S
C302 C297 1.245 . S
C302 C298 1.477 . S
C302 H319 0.932 . S
C303 U286 2.882 . S
C303 C297 1.428 . S
C303 O306 1.301 . S
C303 O307 1.282 . S
O304 U286 2.441 . S
O304 C290 1.249 . S
O305 U286 2.420 . S
O305 C290 1.202 . S
O306 U286 2.455 . S
O306 C303 1.301 . S
O307 U286 2.449 . S
O307 C303 1.282 . S
H308 C281 0.931 . S
H309 C283 0.929 . S
H310 C284 0.930 . S
H311 C285 0.931 . S
H312 C292 0.932 . S
H313 C293 0.930 . S
H314 C294 0.929 . S
H315 C296 0.930 . S
H316 C298 0.932 . S
H317 C299 0.929 . S
H318 C300 0.928 . S
H319 C302 0.932 . S
C320 C321 1.443 . S
C320 N324 1.376 . S
C320 C358 1.389 . S
C321 C320 1.443 . S
C321 C322 1.340 . S
C321 H361 0.951 . S
C322 C321 1.340 . S
C322 C323 1.439 . S
C322 H362 0.950 . S
C323 C322 1.439 . S
C323 N324 1.374 . S
C323 C357 1.395 . S
N324 C320 1.376 . S
N324 C323 1.374 . S
N324 Co325 2.008 . S
Co325 N324 2.008 . S
Co325 N326 1.996 1_455 S
Co325 N331 2.008 . S
Co325 N336 1.995 . S
Co325 N341 2.282 . S
Co325 N347 2.282 1_455 S
N326 Co325 1.996 1_655 S
N326 C327 1.375 1_655 S
N326 C330 1.382 . S
C327 N326 1.375 1_455 S
C327 C328 1.437 1_455 S
C327 C357 1.401 . S
C328 C327 1.437 1_655 S
C328 C329 1.339 . S
C328 H363 0.949 . S
C329 C328 1.339 . S
C329 C330 1.439 . S
C329 H364 0.950 . S
C330 N326 1.382 . S
C330 C329 1.439 . S
C330 C359 1.392 . S
N331 Co325 2.008 . S
N331 C332 1.376 1_455 S
N331 C335 1.374 . S
C332 N331 1.376 1_655 S
C332 C333 1.443 . S
C332 C359 1.389 . S
C333 C332 1.443 . S
C333 C334 1.340 . S
C333 H365 0.951 . S
C334 C333 1.340 . S
C334 C335 1.439 1_655 S
C334 H366 0.950 . S
C335 N331 1.374 . S
C335 C334 1.439 1_455 S
C335 C360 1.395 . S
N336 Co325 1.995 . S
N336 C337 1.376 . S
N336 C340 1.383 . S
C337 N336 1.376 . S
C337 C338 1.446 . S
C337 C360 1.391 . S
C338 C337 1.446 . S
C338 C339 1.339 . S
C338 H367 0.949 . S
C339 C338 1.339 . S
C339 C340 1.439 . S
C339 H368 0.950 . S
C340 N336 1.383 . S
C340 C339 1.439 . S
C340 C358 1.392 . S
N341 Co325 2.282 . S
N341 C344 1.332 . S
N341 C346 1.332 . S
C342 C343 1.386 . S
C342 C345 1.388 . S
C343 C342 1.386 . S
C343 C344 1.382 . S
C343 H369 0.950 . S
C344 N341 1.332 . S
C344 C343 1.382 . S
C344 H355 0.952 . S
C345 C342 1.388 . S
C345 C346 1.382 . S
C345 H370 0.950 . S
C346 N341 1.332 . S
C346 C345 1.382 . S
C346 H356 0.948 . S
N347 Co325 2.282 1_655 S
N347 C351 1.332 . S
N347 C352 1.332 . S
C348 C349 1.388 . S
C348 C352 1.382 . S
C348 H371 0.950 . S
C349 C348 1.388 . S
C349 C350 1.386 . S
C350 C349 1.386 . S
C350 C351 1.382 . S
C350 H372 0.950 . S
C351 N347 1.332 . S
C351 C350 1.382 . S
C351 H353 0.952 . S
C352 N347 1.332 . S
C352 C348 1.382 . S
C352 H354 0.948 . S
H353 C351 0.952 . S
H354 C352 0.948 . S
H355 C344 0.952 . S
H356 C346 0.948 . S
C357 C323 1.395 . S
C357 C327 1.401 . S
C358 C320 1.389 . S
C358 C340 1.392 . S
C359 C330 1.392 . S
C359 C332 1.389 . S
C360 C335 1.395 . S
C360 C337 1.391 . S
H361 C321 0.951 . S
H362 C322 0.950 . S
H363 C328 0.949 . S
H364 C329 0.950 . S
H365 C333 0.951 . S
H366 C334 0.950 . S
H367 C338 0.949 . S
H368 C339 0.950 . S
H369 C343 0.950 . S
H370 C345 0.950 . S
H371 C348 0.950 . S
H372 C350 0.950 . S
C373 C374 1.443 . S
C373 N377 1.376 . S
C373 C411 1.389 . S
C374 C373 1.443 . S
C374 C375 1.340 . S
C374 H414 0.951 . S
C375 C374 1.340 . S
C375 C376 1.439 . S
C375 H415 0.950 . S
C376 C375 1.439 . S
C376 N377 1.374 . S
C376 C410 1.395 . S
N377 C373 1.376 . S
N377 C376 1.374 . S
N377 Co378 2.008 . S
Co378 N377 2.008 . S
Co378 N379 1.995 1_455 S
Co378 N384 2.008 1_455 S
Co378 N389 1.995 . S
Co378 N394 2.282 . S
Co378 N400 2.282 1_455 S
N379 Co378 1.995 1_655 S
N379 C380 1.376 . S
N379 C383 1.383 . S
C380 N379 1.376 . S
C380 C381 1.446 . S
C380 C410 1.391 1_655 S
C381 C380 1.446 . S
C381 C382 1.339 . S
C381 H416 0.949 . S
C382 C381 1.339 . S
C382 C383 1.439 . S
C382 H417 0.950 . S
C383 N379 1.383 . S
C383 C382 1.439 . S
C383 C412 1.392 . S
N384 Co378 2.008 1_655 S
N384 C385 1.376 . S
N384 C388 1.371 1_655 S
C385 N384 1.376 . S
C385 C386 1.443 . S
C385 C412 1.389 . S
C386 C385 1.443 . S
C386 C387 1.340 . S
C386 H418 0.951 . S
C387 C386 1.340 . S
C387 C388 1.432 1_655 S
C387 H419 0.950 . S
C388 N384 1.371 1_455 S
C388 C387 1.432 1_455 S
C388 C413 1.405 . S
N389 Co378 1.995 . S
N389 C390 1.376 . S
N389 C393 1.383 . S
C390 N389 1.376 . S
C390 C391 1.446 . S
C390 C413 1.391 . S
C391 C390 1.446 . S
C391 C392 1.339 . S
C391 H420 0.949 . S
C392 C391 1.339 . S
C392 C393 1.439 . S
C392 H421 0.950 . S
C393 N389 1.383 . S
C393 C392 1.439 . S
C393 C411 1.392 . S
N394 Co378 2.282 . S
N394 C397 1.332 . S
N394 C399 1.332 . S
C395 C396 1.386 . S
C395 C398 1.388 . S
C396 C395 1.386 . S
C396 C397 1.382 . S
C396 H422 0.950 . S
C397 N394 1.332 . S
C397 C396 1.382 . S
C397 H408 0.952 . S
C398 C395 1.388 . S
C398 C399 1.382 . S
C398 H423 0.950 . S
C399 N394 1.332 . S
C399 C398 1.382 . S
C399 H409 0.948 . S
N400 Co378 2.282 1_655 S
N400 C404 1.332 . S
N400 C405 1.332 . S
C401 C402 1.388 . S
C401 C405 1.382 . S
C401 H424 0.950 . S
C402 C401 1.388 . S
C402 C403 1.386 . S
C403 C402 1.386 . S
C403 C404 1.382 . S
C403 H425 0.950 . S
C404 N400 1.332 . S
C404 C403 1.382 . S
C404 H406 0.952 . S
C405 N400 1.332 . S
C405 C401 1.382 . S
C405 H407 0.948 . S
H406 C404 0.952 . S
H407 C405 0.948 . S
H408 C397 0.952 . S
H409 C399 0.948 . S
C410 C376 1.395 . S
C410 C380 1.391 1_455 S
C411 C373 1.389 . S
C411 C393 1.392 . S
C412 C383 1.392 . S
C412 C385 1.389 . S
C413 C388 1.405 . S
C413 C390 1.391 . S
H414 C374 0.951 . S
H415 C375 0.950 . S
H416 C381 0.949 . S
H417 C382 0.950 . S
H418 C386 0.951 . S
H419 C387 0.950 . S
H420 C391 0.949 . S
H421 C392 0.950 . S
H422 C396 0.950 . S
H423 C398 0.950 . S
H424 C401 0.950 . S
H425 C403 0.950 . S
C426 C427 1.443 . S
C426 N430 1.376 . S
C426 C464 1.389 . S
C427 C426 1.443 . S
C427 C428 1.340 . S
C427 H467 0.951 . S
C428 C427 1.340 . S
C428 C429 1.439 . S
C428 H468 0.950 . S
C429 C428 1.439 . S
C429 N430 1.374 . S
C429 C463 1.395 1_565 S
N430 C426 1.376 . S
N430 C429 1.374 . S
N430 Co431 2.008 1_565 S
Co431 N430 2.008 1_545 S
Co431 N432 1.995 . S
Co431 N437 2.008 . S
Co431 N442 1.995 1_545 S
Co431 N447 2.282 . S
Co431 N453 2.282 1_545 S
N432 Co431 1.995 . S
N432 C433 1.376 . S
N432 C436 1.383 . S
C433 N432 1.376 . S
C433 C434 1.446 . S
C433 C463 1.391 . S
C434 C433 1.446 . S
C434 C435 1.339 . S
C434 H469 0.949 . S
C435 C434 1.339 . S
C435 C436 1.439 . S
C435 H470 0.950 . S
C436 N432 1.383 . S
C436 C435 1.439 . S
C436 C465 1.392 . S
N437 Co431 2.008 . S
N437 C438 1.376 . S
N437 C441 1.374 . S
C438 N437 1.376 . S
C438 C439 1.443 . S
C438 C465 1.389 . S
C439 C438 1.443 . S
C439 C440 1.340 . S
C439 H471 0.951 . S
C440 C439 1.340 . S
C440 C441 1.439 . S
C440 H472 0.950 . S
C441 N437 1.374 . S
C441 C440 1.439 . S
C441 C466 1.395 . S
N442 Co431 1.995 1_565 S
N442 C443 1.376 . S
N442 C446 1.383 . S
C443 N442 1.376 . S
C443 C444 1.446 . S
C443 C466 1.391 1_565 S
C444 C443 1.446 . S
C444 C445 1.339 . S
C444 H473 0.949 . S
C445 C444 1.339 . S
C445 C446 1.439 . S
C445 H474 0.950 . S
C446 N442 1.383 . S
C446 C445 1.439 . S
C446 C464 1.392 . S
N447 Co431 2.282 . S
N447 C450 1.332 . S
N447 C452 1.332 . S
C448 C449 1.386 . S
C448 C451 1.388 . S
C449 C448 1.386 . S
C449 C450 1.382 . S
C449 H475 0.950 . S
C450 N447 1.332 . S
C450 C449 1.382 . S
C450 H461 0.952 . S
C451 C448 1.388 . S
C451 C452 1.382 . S
C451 H476 0.950 . S
C452 N447 1.332 . S
C452 C451 1.382 . S
C452 H462 0.948 . S
N453 Co431 2.282 1_565 S
N453 C457 1.332 . S
N453 C458 1.332 . S
C454 C455 1.388 . S
C454 C458 1.382 . S
C454 H477 0.950 . S
C455 C454 1.388 . S
C455 C456 1.386 . S
C456 C455 1.386 . S
C456 C457 1.382 . S
C456 H478 0.950 . S
C457 N453 1.332 . S
C457 C456 1.382 . S
C457 H459 0.952 . S
C458 N453 1.332 . S
C458 C454 1.382 . S
C458 H460 0.948 . S
H459 C457 0.952 . S
H460 C458 0.948 . S
H461 C450 0.952 . S
H462 C452 0.948 . S
C463 C429 1.395 1_545 S
C463 C433 1.391 . S
C464 C426 1.389 . S
C464 C446 1.392 . S
C465 C436 1.392 . S
C465 C438 1.389 . S
C466 C441 1.395 . S
C466 C443 1.391 1_545 S
H467 C427 0.951 . S
H468 C428 0.950 . S
H469 C434 0.949 . S
H470 C435 0.950 . S
H471 C439 0.951 . S
H472 C440 0.950 . S
H473 C444 0.949 . S
H474 C445 0.950 . S
H475 C449 0.950 . S
H476 C451 0.950 . S
H477 C454 0.950 . S
H478 C456 0.950 . S
C479 C480 1.443 . S
C479 N483 1.376 . S
C479 C517 1.389 . S
C480 C479 1.443 . S
C480 C481 1.340 . S
C480 H520 0.951 . S
C481 C480 1.340 . S
C481 C482 1.439 . S
C481 H521 0.950 . S
C482 C481 1.439 . S
C482 N483 1.374 . S
C482 C516 1.395 . S
N483 C479 1.376 . S
N483 C482 1.374 . S
N483 Co484 2.008 . S
Co484 N483 2.008 . S
Co484 N485 1.995 . S
Co484 N490 2.010 . S
Co484 N495 1.995 . S
Co484 N500 2.282 1_554 S
Co484 N506 2.282 . S
N485 Co484 1.995 . S
N485 C486 1.376 . S
N485 C489 1.383 1_554 S
C486 N485 1.376 . S
C486 C487 1.446 1_554 S
C486 C516 1.391 . S
C487 C486 1.446 1_556 S
C487 C488 1.339 . S
C487 H522 0.949 . S
C488 C487 1.339 . S
C488 C489 1.439 . S
C488 H523 0.950 . S
C489 N485 1.383 1_556 S
C489 C488 1.439 . S
C489 C518 1.392 . S
N490 Co484 2.010 . S
N490 C491 1.373 1_554 S
N490 C494 1.374 . S
C491 N490 1.373 1_556 S
C491 C492 1.443 . S
C491 C518 1.389 . S
C492 C491 1.443 . S
C492 C493 1.340 . S
C492 H524 0.951 . S
C493 C492 1.340 . S
C493 C494 1.439 1_556 S
C493 H525 0.950 . S
C494 N490 1.374 . S
C494 C493 1.439 1_554 S
C494 C519 1.395 . S
N495 Co484 1.995 . S
N495 C496 1.376 . S
N495 C499 1.383 . S
C496 N495 1.376 . S
C496 C497 1.446 . S
C496 C519 1.391 . S
C497 C496 1.446 . S
C497 C498 1.339 . S
C497 H526 0.949 . S
C498 C497 1.339 . S
C498 C499 1.439 . S
C498 H527 0.950 . S
C499 N495 1.383 . S
C499 C498 1.439 . S
C499 C517 1.392 . S
N500 Co484 2.282 1_556 S
N500 C503 1.332 . S
N500 C505 1.332 . S
C501 C502 1.386 . S
C501 C504 1.388 . S
C502 C501 1.386 . S
C502 C503 1.382 . S
C502 H528 0.950 . S
C503 N500 1.332 . S
C503 C502 1.382 . S
C503 H514 0.952 . S
C504 C501 1.388 . S
C504 C505 1.382 . S
C504 H529 0.950 . S
C505 N500 1.332 . S
C505 C504 1.382 . S
C505 H515 0.948 . S
N506 Co484 2.282 . S
N506 C510 1.332 . S
N506 C511 1.332 . S
C507 C508 1.388 . S
C507 C511 1.382 . S
C507 H530 0.950 . S
C508 C507 1.388 . S
C508 C509 1.386 . S
C509 C508 1.386 . S
C509 C510 1.382 . S
C509 H531 0.950 . S
C510 N506 1.332 . S
C510 C509 1.382 . S
C510 H512 0.952 . S
C511 N506 1.332 . S
C511 C507 1.382 . S
C511 H513 0.948 . S
H512 C510 0.952 . S
H513 C511 0.948 . S
H514 C503 0.952 . S
H515 C505 0.948 . S
C516 C482 1.395 . S
C516 C486 1.391 . S
C517 C479 1.389 . S
C517 C499 1.392 . S
C518 C489 1.392 . S
C518 C491 1.389 . S
C519 C494 1.395 . S
C519 C496 1.391 . S
H520 C480 0.951 . S
H521 C481 0.950 . S
H522 C487 0.949 . S
H523 C488 0.950 . S
H524 C492 0.951 . S
H525 C493 0.950 . S
H526 C497 0.949 . S
H527 C498 0.950 . S
H528 C502 0.950 . S
H529 C504 0.950 . S
H530 C507 0.950 . S
H531 C509 0.950 . S
C532 C533 1.443 . S
C532 N536 1.376 1_565 S
C532 C570 1.389 . S
C533 C532 1.443 . S
C533 C534 1.340 . S
C533 H573 0.951 . S
C534 C533 1.340 . S
C534 C535 1.439 1_565 S
C534 H574 0.950 . S
C535 C534 1.439 1_545 S
C535 N536 1.374 . S
C535 C569 1.395 . S
N536 C532 1.376 1_545 S
N536 C535 1.374 . S
N536 Co537 2.008 . S
Co537 N536 2.008 . S
Co537 N538 1.995 . S
Co537 N543 2.008 . S
Co537 N548 1.995 . S
Co537 N553 2.282 . S
Co537 N559 2.282 1_545 S
N538 Co537 1.995 . S
N538 C539 1.376 . S
N538 C542 1.383 . S
C539 N538 1.376 . S
C539 C540 1.446 . S
C539 C569 1.391 . S
C540 C539 1.446 . S
C540 C541 1.339 . S
C540 H575 0.949 . S
C541 C540 1.339 . S
C541 C542 1.439 . S
C541 H576 0.950 . S
C542 N538 1.383 . S
C542 C541 1.439 . S
C542 C571 1.392 . S
N543 Co537 2.008 . S
N543 C544 1.376 . S
N543 C547 1.374 . S
C544 N543 1.376 . S
C544 C545 1.443 . S
C544 C571 1.389 . S
C545 C544 1.443 . S
C545 C546 1.340 . S
C545 H577 0.951 . S
C546 C545 1.340 . S
C546 C547 1.439 . S
C546 H578 0.950 . S
C547 N543 1.374 . S
C547 C546 1.439 . S
C547 C572 1.395 . S
N548 Co537 1.995 . S
N548 C549 1.376 . S
N548 C552 1.383 1_545 S
C549 N548 1.376 . S
C549 C550 1.446 1_545 S
C549 C572 1.391 . S
C550 C549 1.446 1_565 S
C550 C551 1.339 . S
C550 H579 0.949 . S
C551 C550 1.339 . S
C551 C552 1.439 . S
C551 H580 0.950 . S
C552 N548 1.383 1_565 S
C552 C551 1.439 . S
C552 C570 1.392 . S
N553 Co537 2.282 . S
N553 C556 1.332 . S
N553 C558 1.332 . S
C554 C555 1.386 . S
C554 C557 1.388 . S
C555 C554 1.386 . S
C555 C556 1.382 . S
C555 H581 0.950 . S
C556 N553 1.332 . S
C556 C555 1.382 . S
C556 H567 0.952 . S
C557 C554 1.388 . S
C557 C558 1.382 . S
C557 H582 0.950 . S
C558 N553 1.332 . S
C558 C557 1.382 . S
C558 H568 0.948 . S
N559 Co537 2.282 1_565 S
N559 C563 1.332 . S
N559 C564 1.332 . S
C560 C561 1.388 . S
C560 C564 1.382 . S
C560 H583 0.950 . S
C561 C560 1.388 . S
C561 C562 1.386 . S
C562 C561 1.386 . S
C562 C563 1.382 . S
C562 H584 0.950 . S
C563 N559 1.332 . S
C563 C562 1.382 . S
C563 H565 0.952 . S
C564 N559 1.332 . S
C564 C560 1.382 . S
C564 H566 0.948 . S
H565 C563 0.952 . S
H566 C564 0.948 . S
H567 C556 0.952 . S
H568 C558 0.948 . S
C569 C535 1.395 . S
C569 C539 1.391 . S
C570 C532 1.389 . S
C570 C552 1.392 . S
C571 C542 1.392 . S
C571 C544 1.389 . S
C572 C547 1.395 . S
C572 C549 1.391 . S
H573 C533 0.951 . S
H574 C534 0.950 . S
H575 C540 0.949 . S
H576 C541 0.950 . S
H577 C545 0.951 . S
H578 C546 0.950 . S
H579 C550 0.949 . S
H580 C551 0.950 . S
H581 C555 0.950 . S
H582 C557 0.950 . S
H583 C560 0.950 . S
H584 C562 0.950 . S
C585 C586 1.443 . S
C585 N589 1.376 . S
C585 C623 1.389 . S
C586 C585 1.443 . S
C586 C587 1.340 . S
C586 H626 0.951 . S
C587 C586 1.340 . S
C587 C588 1.439 . S
C587 H627 0.950 . S
C588 C587 1.439 . S
C588 N589 1.374 . S
C588 C622 1.395 . S
N589 C585 1.376 . S
N589 C588 1.374 . S
N589 Co590 2.008 . S
Co590 N589 2.008 . S
Co590 N591 1.995 . S
Co590 N596 2.008 . S
Co590 N601 1.995 . S
Co590 N606 2.282 . S
Co590 N612 2.282 . S
N591 Co590 1.995 . S
N591 C592 1.376 . S
N591 C595 1.383 1_554 S
C592 N591 1.376 . S
C592 C593 1.446 1_554 S
C592 C622 1.391 . S
C593 C592 1.446 1_556 S
C593 C594 1.339 . S
C593 H628 0.949 . S
C594 C593 1.339 . S
C594 C595 1.439 . S
C594 H629 0.950 . S
C595 N591 1.383 1_556 S
C595 C594 1.439 . S
C595 C624 1.392 . S
N596 Co590 2.008 . S
N596 C597 1.376 1_554 S
N596 C600 1.374 . S
C597 N596 1.376 1_556 S
C597 C598 1.443 . S
C597 C624 1.389 . S
C598 C597 1.443 . S
C598 C599 1.340 . S
C598 H630 0.951 . S
C599 C598 1.340 . S
C599 C600 1.439 1_556 S
C599 H631 0.950 . S
C600 N596 1.374 . S
C600 C599 1.439 1_554 S
C600 C625 1.395 . S
N601 Co590 1.995 . S
N601 C602 1.376 . S
N601 C605 1.383 . S
C602 N601 1.376 . S
C602 C603 1.446 . S
C602 C625 1.391 . S
C603 C602 1.446 . S
C603 C604 1.339 . S
C603 H632 0.949 . S
C604 C603 1.339 . S
C604 C605 1.439 . S
C604 H633 0.950 . S
C605 N601 1.383 . S
C605 C604 1.439 . S
C605 C623 1.392 . S
N606 Co590 2.282 . S
N606 C609 1.332 1_554 S
N606 C611 1.332 1_554 S
C607 C608 1.386 . S
C607 C610 1.388 . S
C608 C607 1.386 . S
C608 C609 1.382 . S
C608 H634 0.950 . S
C609 N606 1.332 1_556 S
C609 C608 1.382 . S
C609 H620 0.952 1_556 S
C610 C607 1.388 . S
C610 C611 1.382 . S
C610 H635 0.950 . S
C611 N606 1.332 1_556 S
C611 C610 1.382 . S
C611 H621 0.948 . S
N612 Co590 2.282 . S
N612 C616 1.332 . S
N612 C617 1.332 . S
C613 C614 1.388 . S
C613 C617 1.382 . S
C613 H636 0.950 . S
C614 C613 1.388 . S
C614 C615 1.386 . S
C615 C614 1.386 . S
C615 C616 1.382 . S
C615 H637 0.950 . S
C616 N612 1.332 . S
C616 C615 1.382 . S
C616 H618 0.952 . S
C617 N612 1.332 . S
C617 C613 1.382 . S
C617 H619 0.948 . S
H618 C616 0.952 . S
H619 C617 0.948 . S
H620 C609 0.952 1_554 S
H621 C611 0.948 . S
C622 C588 1.395 . S
C622 C592 1.391 . S
C623 C585 1.389 . S
C623 C605 1.392 . S
C624 C595 1.392 . S
C624 C597 1.389 . S
C625 C600 1.395 . S
C625 C602 1.391 . S
H626 C586 0.951 . S
H627 C587 0.950 . S
H628 C593 0.949 . S
H629 C594 0.950 . S
H630 C598 0.951 . S
H631 C599 0.950 . S
H632 C603 0.949 . S
H633 C604 0.950 . S
H634 C608 0.950 . S
H635 C610 0.950 . S
H636 C613 0.950 . S
H637 C615 0.950 . S
C638 C639 1.369 . S
C638 C640 1.419 . S
C638 H642 0.930 . S
C639 C638 1.369 . S
C639 C648 1.429 . S
C640 C638 1.419 . S
C640 C641 1.363 . S
C640 H643 0.929 . S
C641 C640 1.363 . S
C641 C647 1.428 . S
H642 C638 0.930 . S
H643 C640 0.929 . S
S644 N645 1.613 . S
S644 N646 1.610 . S
N645 S644 1.613 . S
N645 C648 1.350 . S
N646 S644 1.610 . S
N646 C647 1.351 . S
C647 C641 1.428 . S
C647 N646 1.351 . S
C647 C648 1.434 . S
C648 C639 1.429 . S
C648 N645 1.350 . S
C648 C647 1.434 . S
C649 C650 1.369 . S
C649 C651 1.419 . S
C649 H653 0.930 . S
C650 C649 1.369 . S
C650 C659 1.429 . S
C651 C649 1.419 . S
C651 C652 1.363 . S
C651 H654 0.929 . S
C652 C651 1.363 . S
C652 C658 1.428 . S
H653 C649 0.930 . S
H654 C651 0.929 . S
S655 N656 1.613 . S
S655 N657 1.610 . S
N656 S655 1.613 . S
N656 C659 1.350 . S
N657 S655 1.610 . S
N657 C658 1.351 . S
C658 C652 1.428 . S
C658 N657 1.351 . S
C658 C659 1.434 . S
C659 C650 1.429 . S
C659 N656 1.350 . S
C659 C658 1.434 . S
C660 C661 1.369 . S
C660 C662 1.419 . S
C660 H664 0.930 . S
C661 C660 1.369 . S
C661 C670 1.429 . S
C662 C660 1.419 . S
C662 C663 1.363 . S
C662 H665 0.929 . S
C663 C662 1.363 . S
C663 C669 1.428 . S
H664 C660 0.930 . S
H665 C662 0.929 . S
S666 N667 1.613 . S
S666 N668 1.610 . S
N667 S666 1.613 . S
N667 C670 1.350 . S
N668 S666 1.610 . S
N668 C669 1.351 . S
C669 C663 1.428 . S
C669 N668 1.351 . S
C669 C670 1.434 . S
C670 C661 1.429 . S
C670 N667 1.350 . S
C670 C669 1.434 . S
C671 C672 1.369 . S
C671 C673 1.419 . S
C671 H675 0.930 . S
C672 C671 1.369 . S
C672 C681 1.429 . S
C673 C671 1.419 . S
C673 C674 1.363 . S
C673 H676 0.929 . S
C674 C673 1.363 . S
C674 C680 1.428 . S
H675 C671 0.930 . S
H676 C673 0.929 . S
S677 N678 1.613 . S
S677 N679 1.610 . S
N678 S677 1.613 . S
N678 C681 1.350 . S
N679 S677 1.610 . S
N679 C680 1.351 . S
C680 C674 1.428 . S
C680 N679 1.351 . S
C680 C681 1.434 . S
C681 C672 1.429 . S
C681 N678 1.350 . S
C681 C680 1.434 . S
C682 C683 1.369 . S
C682 C684 1.419 . S
C682 H686 0.930 . S
C683 C682 1.369 . S
C683 C692 1.429 . S
C684 C682 1.419 . S
C684 C685 1.363 . S
C684 H687 0.929 . S
C685 C684 1.363 . S
C685 C691 1.428 . S
H686 C682 0.930 . S
H687 C684 0.929 . S
S688 N689 1.613 . S
S688 N690 1.610 . S
N689 S688 1.613 . S
N689 C692 1.350 . S
N690 S688 1.610 . S
N690 C691 1.351 . S
C691 C685 1.428 . S
C691 N690 1.351 . S
C691 C692 1.434 . S
C692 C683 1.429 . S
C692 N689 1.350 . S
C692 C691 1.434 . S
C693 C694 1.369 . S
C693 C695 1.419 . S
C693 H697 0.930 . S
C694 C693 1.369 . S
C694 C703 1.429 . S
C695 C693 1.419 . S
C695 C696 1.363 . S
C695 H698 0.929 . S
C696 C695 1.363 . S
C696 C702 1.428 . S
H697 C693 0.930 . S
H698 C695 0.929 . S
S699 N700 1.613 . S
S699 N701 1.610 . S
N700 S699 1.613 . S
N700 C703 1.350 . S
N701 S699 1.610 . S
N701 C702 1.351 . S
C702 C696 1.428 . S
C702 N701 1.351 . S
C702 C703 1.434 . S
C703 C694 1.429 . S
C703 N700 1.350 . S
C703 C702 1.434 . S
C704 C705 1.369 . S
C704 C706 1.419 . S
C704 H708 0.930 . S
C705 C704 1.369 . S
C705 C714 1.429 . S
C706 C704 1.419 . S
C706 C707 1.363 . S
C706 H709 0.929 . S
C707 C706 1.363 . S
C707 C713 1.428 . S
H708 C704 0.930 . S
H709 C706 0.929 . S
S710 N711 1.613 . S
S710 N712 1.610 . S
N711 S710 1.613 . S
N711 C714 1.350 . S
N712 S710 1.610 . S
N712 C713 1.351 . S
C713 C707 1.428 . S
C713 N712 1.351 . S
C713 C714 1.434 . S
C714 C705 1.429 . S
C714 N711 1.350 . S
C714 C713 1.434 . S
C715 C716 1.369 . S
C715 C717 1.419 . S
C715 H719 0.930 . S
C716 C715 1.369 . S
C716 C725 1.429 . S
C717 C715 1.419 . S
C717 C718 1.363 . S
C717 H720 0.929 . S
C718 C717 1.363 . S
C718 C724 1.428 . S
H719 C715 0.930 . S
H720 C717 0.929 . S
S721 N722 1.613 . S
S721 N723 1.610 . S
N722 S721 1.613 . S
N722 C725 1.350 . S
N723 S721 1.610 . S
N723 C724 1.351 . S
C724 C718 1.428 . S
C724 N723 1.351 . S
C724 C725 1.434 . S
C725 C716 1.429 . S
C725 N722 1.350 . S
C725 C724 1.434 . S
C726 C727 1.369 . S
C726 C728 1.419 . S
C726 H730 0.930 . S
C727 C726 1.369 . S
C727 C736 1.429 . S
C728 C726 1.419 . S
C728 C729 1.363 . S
C728 H731 0.929 . S
C729 C728 1.363 . S
C729 C735 1.428 . S
H730 C726 0.930 . S
H731 C728 0.929 . S
S732 N733 1.613 . S
S732 N734 1.610 . S
N733 S732 1.613 . S
N733 C736 1.350 . S
N734 S732 1.610 . S
N734 C735 1.351 . S
C735 C729 1.428 . S
C735 N734 1.351 . S
C735 C736 1.434 . S
C736 C727 1.429 . S
C736 N733 1.350 . S
C736 C735 1.434 . S
C737 C738 1.369 . S
C737 C739 1.419 . S
C737 H741 0.930 . S
C738 C737 1.369 . S
C738 C747 1.429 . S
C739 C737 1.419 . S
C739 C740 1.363 . S
C739 H742 0.929 . S
C740 C739 1.363 . S
C740 C746 1.428 . S
H741 C737 0.930 . S
H742 C739 0.929 . S
S743 N744 1.613 . S
S743 N745 1.610 . S
N744 S743 1.613 . S
N744 C747 1.350 . S
N745 S743 1.610 . S
N745 C746 1.351 . S
C746 C740 1.428 . S
C746 N745 1.351 . S
C746 C747 1.434 . S
C747 C738 1.429 . S
C747 N744 1.350 . S
C747 C746 1.434 . S
C748 C749 1.369 . S
C748 C750 1.419 . S
C748 H752 0.930 . S
C749 C748 1.369 . S
C749 C758 1.429 . S
C750 C748 1.419 . S
C750 C751 1.363 . S
C750 H753 0.929 . S
C751 C750 1.363 . S
C751 C757 1.428 . S
H752 C748 0.930 . S
H753 C750 0.929 . S
S754 N755 1.613 . S
S754 N756 1.610 . S
N755 S754 1.613 . S
N755 C758 1.350 . S
N756 S754 1.610 . S
N756 C757 1.351 . S
C757 C751 1.428 . S
C757 N756 1.351 . S
C757 C758 1.434 . S
C758 C749 1.429 . S
C758 N755 1.350 . S
C758 C757 1.434 . S
C759 C760 1.369 . S
C759 C761 1.419 . S
C759 H763 0.930 . S
C760 C759 1.369 . S
C760 C769 1.429 . S
C761 C759 1.419 . S
C761 C762 1.363 . S
C761 H764 0.929 . S
C762 C761 1.363 . S
C762 C768 1.428 . S
H763 C759 0.930 . S
H764 C761 0.929 . S
S765 N766 1.613 . S
S765 N767 1.610 . S
N766 S765 1.613 . S
N766 C769 1.350 . S
N767 S765 1.610 . S
N767 C768 1.351 . S
C768 C762 1.428 . S
C768 N767 1.351 . S
C768 C769 1.434 . S
C769 C760 1.429 . S
C769 N766 1.350 . S
C769 C768 1.434 . S
C770 C771 1.369 . S
C770 C772 1.419 . S
C770 H774 0.930 . S
C771 C770 1.369 . S
C771 C780 1.429 . S
C772 C770 1.419 . S
C772 C773 1.363 . S
C772 H775 0.929 . S
C773 C772 1.363 . S
C773 C779 1.428 . S
H774 C770 0.930 . S
H775 C772 0.929 . S
S776 N777 1.613 . S
S776 N778 1.610 . S
N777 S776 1.613 . S
N777 C780 1.350 . S
N778 S776 1.610 . S
N778 C779 1.351 . S
C779 C773 1.428 . S
C779 N778 1.351 . S
C779 C780 1.434 . S
C780 C771 1.429 . S
C780 N777 1.350 . S
C780 C779 1.434 . S
C781 C782 1.369 . S
C781 C783 1.419 . S
C781 H785 0.930 . S
C782 C781 1.369 . S
C782 C791 1.429 . S
C783 C781 1.419 . S
C783 C784 1.363 . S
C783 H786 0.929 . S
C784 C783 1.363 . S
C784 C790 1.428 . S
H785 C781 0.930 . S
H786 C783 0.929 . S
S787 N788 1.613 . S
S787 N789 1.610 . S
N788 S787 1.613 . S
N788 C791 1.350 . S
N789 S787 1.610 . S
N789 C790 1.351 . S
C790 C784 1.428 . S
C790 N789 1.351 . S
C790 C791 1.434 . S
C791 C782 1.429 . S
C791 N788 1.350 . S
C791 C790 1.434 . S
C792 C793 1.369 . S
C792 C794 1.419 . S
C792 H796 0.930 . S
C793 C792 1.369 . S
C793 C802 1.429 . S
C794 C792 1.419 . S
C794 C795 1.363 . S
C794 H797 0.929 . S
C795 C794 1.363 . S
C795 C801 1.428 . S
H796 C792 0.930 . S
H797 C794 0.929 . S
S798 N799 1.613 . S
S798 N800 1.610 . S
N799 S798 1.613 . S
N799 C802 1.350 . S
N800 S798 1.610 . S
N800 C801 1.351 . S
C801 C795 1.428 . S
C801 N800 1.351 . S
C801 C802 1.434 . S
C802 C793 1.429 . S
C802 N799 1.350 . S
C802 C801 1.434 . S
C803 C804 1.369 . S
C803 C805 1.419 . S
C803 H807 0.930 . S
C804 C803 1.369 . S
C804 C813 1.429 . S
C805 C803 1.419 . S
C805 C806 1.363 . S
C805 H808 0.929 . S
C806 C805 1.363 . S
C806 C812 1.428 . S
H807 C803 0.930 . S
H808 C805 0.929 . S
S809 N810 1.613 . S
S809 N811 1.610 . S
N810 S809 1.613 . S
N810 C813 1.350 . S
N811 S809 1.610 . S
N811 C812 1.351 . S
C812 C806 1.428 . S
C812 N811 1.351 . S
C812 C813 1.434 . S
C813 C804 1.429 . S
C813 N810 1.350 . S
C813 C812 1.434 . S
C814 C815 1.369 . S
C814 C816 1.419 . S
C814 H818 0.930 . S
C815 C814 1.369 . S
C815 C824 1.429 . S
C816 C814 1.419 . S
C816 C817 1.363 . S
C816 H819 0.929 . S
C817 C816 1.363 . S
C817 C823 1.428 . S
H818 C814 0.930 . S
H819 C816 0.929 . S
S820 N821 1.613 . S
S820 N822 1.610 . S
N821 S820 1.613 . S
N821 C824 1.350 . S
N822 S820 1.610 . S
N822 C823 1.351 . S
C823 C817 1.428 . S
C823 N822 1.351 . S
C823 C824 1.434 . S
C824 C815 1.429 . S
C824 N821 1.350 . S
C824 C823 1.434 . S
C825 C826 1.369 . S
C825 C827 1.419 . S
C825 H829 0.930 . S
C826 C825 1.369 . S
C826 C835 1.429 . S
C827 C825 1.419 . S
C827 C828 1.363 . S
C827 H830 0.929 . S
C828 C827 1.363 . S
C828 C834 1.428 . S
H829 C825 0.930 . S
H830 C827 0.929 . S
S831 N832 1.613 . S
S831 N833 1.610 . S
N832 S831 1.613 . S
N832 C835 1.350 . S
N833 S831 1.610 . S
N833 C834 1.351 . S
C834 C828 1.428 . S
C834 N833 1.351 . S
C834 C835 1.434 . S
C835 C826 1.429 . S
C835 N832 1.350 . S
C835 C834 1.434 . S
C836 C837 1.369 . S
C836 C838 1.419 . S
C836 H840 0.930 . S
C837 C836 1.369 . S
C837 C846 1.429 . S
C838 C836 1.419 . S
C838 C839 1.363 . S
C838 H841 0.929 . S
C839 C838 1.363 . S
C839 C845 1.428 . S
H840 C836 0.930 . S
H841 C838 0.929 . S
S842 N843 1.613 . S
S842 N844 1.610 . S
N843 S842 1.613 . S
N843 C846 1.350 . S
N844 S842 1.610 . S
N844 C845 1.351 . S
C845 C839 1.428 . S
C845 N844 1.351 . S
C845 C846 1.434 . S
C846 C837 1.429 . S
C846 N843 1.350 . S
C846 C845 1.434 . S
C847 C848 1.369 . S
C847 C849 1.419 . S
C847 H851 0.930 . S
C848 C847 1.369 . S
C848 C857 1.429 . S
C849 C847 1.419 . S
C849 C850 1.363 . S
C849 H852 0.929 . S
C850 C849 1.363 . S
C850 C856 1.428 . S
H851 C847 0.930 . S
H852 C849 0.929 . S
S853 N854 1.613 . S
S853 N855 1.610 . S
N854 S853 1.613 . S
N854 C857 1.350 . S
N855 S853 1.610 . S
N855 C856 1.351 . S
C856 C850 1.428 . S
C856 N855 1.351 . S
C856 C857 1.434 . S
C857 C848 1.429 . S
C857 N854 1.350 . S
C857 C856 1.434 . S
C858 C859 1.369 . S
C858 C860 1.419 . S
C858 H862 0.930 . S
C859 C858 1.369 . S
C859 C868 1.429 . S
C860 C858 1.419 . S
C860 C861 1.363 . S
C860 H863 0.929 . S
C861 C860 1.363 . S
C861 C867 1.428 . S
H862 C858 0.930 . S
H863 C860 0.929 . S
S864 N865 1.613 . S
S864 N866 1.610 . S
N865 S864 1.613 . S
N865 C868 1.350 . S
N866 S864 1.610 . S
N866 C867 1.351 . S
C867 C861 1.428 . S
C867 N866 1.351 . S
C867 C868 1.434 . S
C868 C859 1.429 . S
C868 N865 1.350 . S
C868 C867 1.434 . S
C869 C870 1.369 . S
C869 C871 1.419 . S
C869 H873 0.930 . S
C870 C869 1.369 . S
C870 C879 1.429 . S
C871 C869 1.419 . S
C871 C872 1.363 . S
C871 H874 0.929 . S
C872 C871 1.363 . S
C872 C878 1.428 . S
H873 C869 0.930 . S
H874 C871 0.929 . S
S875 N876 1.613 . S
S875 N877 1.610 . S
N876 S875 1.613 . S
N876 C879 1.350 . S
N877 S875 1.610 . S
N877 C878 1.351 . S
C878 C872 1.428 . S
C878 N877 1.351 . S
C878 C879 1.434 . S
C879 C870 1.429 . S
C879 N876 1.350 . S
C879 C878 1.434 . S
C880 C881 1.369 . S
C880 C882 1.419 . S
C880 H884 0.930 . S
C881 C880 1.369 . S
C881 C890 1.429 . S
C882 C880 1.419 . S
C882 C883 1.363 . S
C882 H885 0.929 . S
C883 C882 1.363 . S
C883 C889 1.428 . S
H884 C880 0.930 . S
H885 C882 0.929 . S
S886 N887 1.613 . S
S886 N888 1.610 . S
N887 S886 1.613 . S
N887 C890 1.350 . S
N888 S886 1.610 . S
N888 C889 1.351 . S
C889 C883 1.428 . S
C889 N888 1.351 . S
C889 C890 1.434 . S
C890 C881 1.429 . S
C890 N887 1.350 . S
C890 C889 1.434 . S
C891 C892 1.369 . S
C891 C893 1.419 . S
C891 H895 0.930 . S
C892 C891 1.369 . S
C892 C901 1.429 . S
C893 C891 1.419 . S
C893 C894 1.363 . S
C893 H896 0.929 . S
C894 C893 1.363 . S
C894 C900 1.428 . S
H895 C891 0.930 . S
H896 C893 0.929 . S
S897 N898 1.613 . S
S897 N899 1.610 . S
N898 S897 1.613 . S
N898 C901 1.350 . S
N899 S897 1.610 . S
N899 C900 1.351 . S
C900 C894 1.428 . S
C900 N899 1.351 . S
C900 C901 1.434 . S
C901 C892 1.429 . S
C901 N898 1.350 . S
C901 C900 1.434 . S
C641 C342 1.536 . S
C639 C15 1.537 . S
C652 C411 1.530 . S
C650 C55 1.541 . S
C663 C349 1.565 . S
C661 C101 1.548 . S
C674 C412 1.575 . S
C672 C141 1.571 . S
C685 C465 1.527 . S
C683 C2 1.494 . S
C696 C501 1.521 . S
C694 C61 1.497 . S
C705 C95 1.614 . S
C707 C561 1.608 . S
C718 C624 1.518 . S
C716 C135 1.518 . S
C729 C464 1.509 . S
C727 C42 1.478 . S
C738 C82 1.510 . S
C740 C508 1.541 . S
C751 C554 1.602 . S
C749 C122 1.621 . S
C762 C623 1.537 . S
C760 C21 1.512 . S
C771 C162 1.574 . S
C773 C402 1.573 . S
C784 C359 1.553 . S
C782 C221 1.558 . S
C793 C255 1.551 . S
C795 C395 1.539 . S
C804 C282 1.506 . S
C806 C358 1.524 . S
C817 C570 1.607 . S
C815 C181 1.627 . S
C828 C614 1.528 . S
C826 C202 1.524 . S
C839 C448 1.515 . S
C837 C242 1.513 . S
C848 C301 1.503 . S
C850 C517 1.527 . S
C861 C571 1.590 . S
C859 C215 1.600 . S
C872 C607 1.524 . S
C870 C261 1.525 . S
C883 C455 1.510 . S
C881 C295 1.512 . S
C892 C175 1.526 . S
C894 C518 1.527 . S
