# Generated by pormake.
# Topology ibd, (4,6)-cn, num edge types: 1
# Building blocks:
#     Node 0, Type 0, BuildingBlock: GALJAG_clean_sbu_0, # of connection points: 4
#     Node 1, Type 0, BuildingBlock: GALJAG_clean_sbu_0, # of connection points: 4
#     Node 2, Type 0, BuildingBlock: GALJAG_clean_sbu_0, # of connection points: 4
#     Node 3, Type 0, BuildingBlock: GALJAG_clean_sbu_0, # of connection points: 4
#     Node 4, Type 0, BuildingBlock: GALJAG_clean_sbu_0, # of connection points: 4
#     Node 5, Type 0, BuildingBlock: GALJAG_clean_sbu_0, # of connection points: 4
#     Node 6, Type 0, BuildingBlock: GALJAG_clean_sbu_0, # of connection points: 4
#     Node 7, Type 0, BuildingBlock: GALJAG_clean_sbu_0, # of connection points: 4
#     Node 8, Type 0, BuildingBlock: GALJAG_clean_sbu_0, # of connection points: 4
#     Node 9, Type 0, BuildingBlock: GALJAG_clean_sbu_0, # of connection points: 4
#     Node 10, Type 0, BuildingBlock: GALJAG_clean_sbu_0, # of connection points: 4
#     Node 11, Type 0, BuildingBlock: GALJAG_clean_sbu_0, # of connection points: 4
#     Node 12, Type 0, BuildingBlock: GALJAG_clean_sbu_0, # of connection points: 4
#     Node 13, Type 0, BuildingBlock: GALJAG_clean_sbu_0, # of connection points: 4
#     Node 14, Type 0, BuildingBlock: GALJAG_clean_sbu_0, # of connection points: 4
#     Node 15, Type 0, BuildingBlock: GALJAG_clean_sbu_0, # of connection points: 4
#     Node 16, Type 0, BuildingBlock: GALJAG_clean_sbu_0, # of connection points: 4
#     Node 17, Type 0, BuildingBlock: GALJAG_clean_sbu_0, # of connection points: 4
#     Node 18, Type 0, BuildingBlock: GALJAG_clean_sbu_0, # of connection points: 4
#     Node 19, Type 0, BuildingBlock: GALJAG_clean_sbu_0, # of connection points: 4
#     Node 20, Type 0, BuildingBlock: GALJAG_clean_sbu_0, # of connection points: 4
#     Node 21, Type 0, BuildingBlock: GALJAG_clean_sbu_0, # of connection points: 4
#     Node 22, Type 0, BuildingBlock: GALJAG_clean_sbu_0, # of connection points: 4
#     Node 23, Type 0, BuildingBlock: GALJAG_clean_sbu_0, # of connection points: 4
#     Node 24, Type 1, BuildingBlock: IZENUY_clean_sbu_0, # of connection points: 6
#     Node 25, Type 1, BuildingBlock: IZENUY_clean_sbu_0, # of connection points: 6
#     Node 26, Type 1, BuildingBlock: IZENUY_clean_sbu_0, # of connection points: 6
#     Node 27, Type 1, BuildingBlock: IZENUY_clean_sbu_0, # of connection points: 6
#     Node 28, Type 1, BuildingBlock: IZENUY_clean_sbu_0, # of connection points: 6
#     Node 29, Type 1, BuildingBlock: IZENUY_clean_sbu_0, # of connection points: 6
#     Node 30, Type 1, BuildingBlock: IZENUY_clean_sbu_0, # of connection points: 6
#     Node 31, Type 1, BuildingBlock: IZENUY_clean_sbu_0, # of connection points: 6
#     Node 32, Type 1, BuildingBlock: IZENUY_clean_sbu_0, # of connection points: 6
#     Node 33, Type 1, BuildingBlock: IZENUY_clean_sbu_0, # of connection points: 6
#     Node 34, Type 1, BuildingBlock: IZENUY_clean_sbu_0, # of connection points: 6
#     Node 35, Type 1, BuildingBlock: IZENUY_clean_sbu_0, # of connection points: 6
#     Node 36, Type 1, BuildingBlock: IZENUY_clean_sbu_0, # of connection points: 6
#     Node 37, Type 1, BuildingBlock: IZENUY_clean_sbu_0, # of connection points: 6
#     Node 38, Type 1, BuildingBlock: IZENUY_clean_sbu_0, # of connection points: 6
#     Node 39, Type 1, BuildingBlock: IZENUY_clean_sbu_0, # of connection points: 6
#     Edge 40, Type (0, 1), BuildingBlock: XUDNAN_clean_linker_2, # of connection points: 2
#     Edge 41, Type (0, 1), BuildingBlock: XUDNAN_clean_linker_2, # of connection points: 2
#     Edge 42, Type (0, 1), BuildingBlock: XUDNAN_clean_linker_2, # of connection points: 2
#     Edge 43, Type (0, 1), BuildingBlock: XUDNAN_clean_linker_2, # of connection points: 2
#     Edge 44, Type (0, 1), BuildingBlock: XUDNAN_clean_linker_2, # of connection points: 2
#     Edge 45, Type (0, 1), BuildingBlock: XUDNAN_clean_linker_2, # of connection points: 2
#     Edge 46, Type (0, 1), BuildingBlock: XUDNAN_clean_linker_2, # of connection points: 2
#     Edge 47, Type (0, 1), BuildingBlock: XUDNAN_clean_linker_2, # of connection points: 2
#     Edge 48, Type (0, 1), BuildingBlock: XUDNAN_clean_linker_2, # of connection points: 2
#     Edge 49, Type (0, 1), BuildingBlock: XUDNAN_clean_linker_2, # of connection points: 2
#     Edge 50, Type (0, 1), BuildingBlock: XUDNAN_clean_linker_2, # of connection points: 2
#     Edge 51, Type (0, 1), BuildingBlock: XUDNAN_clean_linker_2, # of connection points: 2
#     Edge 52, Type (0, 1), BuildingBlock: XUDNAN_clean_linker_2, # of connection points: 2
#     Edge 53, Type (0, 1), BuildingBlock: XUDNAN_clean_linker_2, # of connection points: 2
#     Edge 54, Type (0, 1), BuildingBlock: XUDNAN_clean_linker_2, # of connection points: 2
#     Edge 55, Type (0, 1), BuildingBlock: XUDNAN_clean_linker_2, # of connection points: 2
#     Edge 56, Type (0, 1), BuildingBlock: XUDNAN_clean_linker_2, # of connection points: 2
#     Edge 57, Type (0, 1), BuildingBlock: XUDNAN_clean_linker_2, # of connection points: 2
#     Edge 58, Type (0, 1), BuildingBlock: XUDNAN_clean_linker_2, # of connection points: 2
#     Edge 59, Type (0, 1), BuildingBlock: XUDNAN_clean_linker_2, # of connection points: 2
#     Edge 60, Type (0, 1), BuildingBlock: XUDNAN_clean_linker_2, # of connection points: 2
#     Edge 61, Type (0, 1), BuildingBlock: XUDNAN_clean_linker_2, # of connection points: 2
#     Edge 62, Type (0, 1), BuildingBlock: XUDNAN_clean_linker_2, # of connection points: 2
#     Edge 63, Type (0, 1), BuildingBlock: XUDNAN_clean_linker_2, # of connection points: 2
#     Edge 64, Type (0, 1), BuildingBlock: XUDNAN_clean_linker_2, # of connection points: 2
#     Edge 65, Type (0, 1), BuildingBlock: XUDNAN_clean_linker_2, # of connection points: 2
#     Edge 66, Type (0, 1), BuildingBlock: XUDNAN_clean_linker_2, # of connection points: 2
#     Edge 67, Type (0, 1), BuildingBlock: XUDNAN_clean_linker_2, # of connection points: 2
#     Edge 68, Type (0, 1), BuildingBlock: XUDNAN_clean_linker_2, # of connection points: 2
#     Edge 69, Type (0, 1), BuildingBlock: XUDNAN_clean_linker_2, # of connection points: 2
#     Edge 70, Type (0, 1), BuildingBlock: XUDNAN_clean_linker_2, # of connection points: 2
#     Edge 71, Type (0, 1), BuildingBlock: XUDNAN_clean_linker_2, # of connection points: 2
#     Edge 72, Type (0, 1), BuildingBlock: XUDNAN_clean_linker_2, # of connection points: 2
#     Edge 73, Type (0, 1), BuildingBlock: XUDNAN_clean_linker_2, # of connection points: 2
#     Edge 74, Type (0, 1), BuildingBlock: XUDNAN_clean_linker_2, # of connection points: 2
#     Edge 75, Type (0, 1), BuildingBlock: XUDNAN_clean_linker_2, # of connection points: 2
#     Edge 76, Type (0, 1), BuildingBlock: XUDNAN_clean_linker_2, # of connection points: 2
#     Edge 77, Type (0, 1), BuildingBlock: XUDNAN_clean_linker_2, # of connection points: 2
#     Edge 78, Type (0, 1), BuildingBlock: XUDNAN_clean_linker_2, # of connection points: 2
#     Edge 79, Type (0, 1), BuildingBlock: XUDNAN_clean_linker_2, # of connection points: 2
#     Edge 80, Type (0, 1), BuildingBlock: XUDNAN_clean_linker_2, # of connection points: 2
#     Edge 81, Type (0, 1), BuildingBlock: XUDNAN_clean_linker_2, # of connection points: 2
#     Edge 82, Type (0, 1), BuildingBlock: XUDNAN_clean_linker_2, # of connection points: 2
#     Edge 83, Type (0, 1), BuildingBlock: XUDNAN_clean_linker_2, # of connection points: 2
#     Edge 84, Type (0, 1), BuildingBlock: XUDNAN_clean_linker_2, # of connection points: 2
#     Edge 85, Type (0, 1), BuildingBlock: XUDNAN_clean_linker_2, # of connection points: 2
#     Edge 86, Type (0, 1), BuildingBlock: XUDNAN_clean_linker_2, # of connection points: 2
#     Edge 87, Type (0, 1), BuildingBlock: XUDNAN_clean_linker_2, # of connection points: 2
#     Edge 88, Type (0, 1), BuildingBlock: XUDNAN_clean_linker_2, # of connection points: 2
#     Edge 89, Type (0, 1), BuildingBlock: XUDNAN_clean_linker_2, # of connection points: 2
#     Edge 90, Type (0, 1), BuildingBlock: XUDNAN_clean_linker_2, # of connection points: 2
#     Edge 91, Type (0, 1), BuildingBlock: XUDNAN_clean_linker_2, # of connection points: 2
#     Edge 92, Type (0, 1), BuildingBlock: XUDNAN_clean_linker_2, # of connection points: 2
#     Edge 93, Type (0, 1), BuildingBlock: XUDNAN_clean_linker_2, # of connection points: 2
#     Edge 94, Type (0, 1), BuildingBlock: XUDNAN_clean_linker_2, # of connection points: 2
#     Edge 95, Type (0, 1), BuildingBlock: XUDNAN_clean_linker_2, # of connection points: 2
#     Edge 96, Type (0, 1), BuildingBlock: XUDNAN_clean_linker_2, # of connection points: 2
#     Edge 97, Type (0, 1), BuildingBlock: XUDNAN_clean_linker_2, # of connection points: 2
#     Edge 98, Type (0, 1), BuildingBlock: XUDNAN_clean_linker_2, # of connection points: 2
#     Edge 99, Type (0, 1), BuildingBlock: XUDNAN_clean_linker_2, # of connection points: 2
#     Edge 100, Type (0, 1), BuildingBlock: XUDNAN_clean_linker_2, # of connection points: 2
#     Edge 101, Type (0, 1), BuildingBlock: XUDNAN_clean_linker_2, # of connection points: 2
#     Edge 102, Type (0, 1), BuildingBlock: XUDNAN_clean_linker_2, # of connection points: 2
#     Edge 103, Type (0, 1), BuildingBlock: XUDNAN_clean_linker_2, # of connection points: 2
#     Edge 104, Type (0, 1), BuildingBlock: XUDNAN_clean_linker_2, # of connection points: 2
#     Edge 105, Type (0, 1), BuildingBlock: XUDNAN_clean_linker_2, # of connection points: 2
#     Edge 106, Type (0, 1), BuildingBlock: XUDNAN_clean_linker_2, # of connection points: 2
#     Edge 107, Type (0, 1), BuildingBlock: XUDNAN_clean_linker_2, # of connection points: 2
#     Edge 108, Type (0, 1), BuildingBlock: XUDNAN_clean_linker_2, # of connection points: 2
#     Edge 109, Type (0, 1), BuildingBlock: XUDNAN_clean_linker_2, # of connection points: 2
#     Edge 110, Type (0, 1), BuildingBlock: XUDNAN_clean_linker_2, # of connection points: 2
#     Edge 111, Type (0, 1), BuildingBlock: XUDNAN_clean_linker_2, # of connection points: 2
#     Edge 112, Type (0, 1), BuildingBlock: XUDNAN_clean_linker_2, # of connection points: 2
#     Edge 113, Type (0, 1), BuildingBlock: XUDNAN_clean_linker_2, # of connection points: 2
#     Edge 114, Type (0, 1), BuildingBlock: XUDNAN_clean_linker_2, # of connection points: 2
#     Edge 115, Type (0, 1), BuildingBlock: XUDNAN_clean_linker_2, # of connection points: 2
#     Edge 116, Type (0, 1), BuildingBlock: XUDNAN_clean_linker_2, # of connection points: 2
#     Edge 117, Type (0, 1), BuildingBlock: XUDNAN_clean_linker_2, # of connection points: 2
#     Edge 118, Type (0, 1), BuildingBlock: XUDNAN_clean_linker_2, # of connection points: 2
#     Edge 119, Type (0, 1), BuildingBlock: XUDNAN_clean_linker_2, # of connection points: 2
#     Edge 120, Type (0, 1), BuildingBlock: XUDNAN_clean_linker_2, # of connection points: 2
#     Edge 121, Type (0, 1), BuildingBlock: XUDNAN_clean_linker_2, # of connection points: 2
#     Edge 122, Type (0, 1), BuildingBlock: XUDNAN_clean_linker_2, # of connection points: 2
#     Edge 123, Type (0, 1), BuildingBlock: XUDNAN_clean_linker_2, # of connection points: 2
#     Edge 124, Type (0, 1), BuildingBlock: XUDNAN_clean_linker_2, # of connection points: 2
#     Edge 125, Type (0, 1), BuildingBlock: XUDNAN_clean_linker_2, # of connection points: 2
#     Edge 126, Type (0, 1), BuildingBlock: XUDNAN_clean_linker_2, # of connection points: 2
#     Edge 127, Type (0, 1), BuildingBlock: XUDNAN_clean_linker_2, # of connection points: 2
#     Edge 128, Type (0, 1), BuildingBlock: XUDNAN_clean_linker_2, # of connection points: 2
#     Edge 129, Type (0, 1), BuildingBlock: XUDNAN_clean_linker_2, # of connection points: 2
#     Edge 130, Type (0, 1), BuildingBlock: XUDNAN_clean_linker_2, # of connection points: 2
#     Edge 131, Type (0, 1), BuildingBlock: XUDNAN_clean_linker_2, # of connection points: 2
#     Edge 132, Type (0, 1), BuildingBlock: XUDNAN_clean_linker_2, # of connection points: 2
#     Edge 133, Type (0, 1), BuildingBlock: XUDNAN_clean_linker_2, # of connection points: 2
#     Edge 134, Type (0, 1), BuildingBlock: XUDNAN_clean_linker_2, # of connection points: 2
#     Edge 135, Type (0, 1), BuildingBlock: XUDNAN_clean_linker_2, # of connection points: 2
# Relax obj value: 0.206
# Max RMSD: 0.229
# Mean RMSD: 0.214
data_MOF--net-ibd--node1-GALJAG_clean_sbu_0--node2-IZENUY_clean_sbu_0--edge1-XUDNAN_clean_linker_2
_symmetry_space_group_name_H-M    P1
_symmetry_Int_Tables_number       1
_symmetry_cell_setting            triclinic
loop_
_symmetry_equiv_pos_as_xyz
'x, y, z'
_cell_length_a     49.344057
_cell_length_b     49.329144
_cell_length_c     49.349789
_cell_angle_alpha  90.052818
_cell_angle_beta   90.0161
_cell_angle_gamma 90.084106
loop_
_atom_site_label
_atom_site_type_symbol
_atom_site_fract_x
_atom_site_fract_y
_atom_site_fract_z
_atom_type_partial_charge
In0 In 0.00107 0.24317 0.37396 0.0
O1 O 0.03782 0.25008 0.34677 0.0
O2 O 0.01791 0.21189 0.34465 0.0
C3 C 0.01786 0.27619 0.4139 0.0
C4 C 0.96629 0.27113 0.34237 0.0
C5 C 0.98438 0.20283 0.40682 0.0
O6 O 0.03445 0.26324 0.39927 0.0
O7 O 0.99323 0.27253 0.4081 0.0
O8 O 0.96791 0.21778 0.39417 0.0
O9 O 0.009 0.20756 0.4019 0.0
C10 C 0.03662 0.22695 0.33588 0.0
O11 O 0.98208 0.28217 0.35911 0.0
O12 O 0.96753 0.24558 0.34165 0.0
In13 In 0.98708 0.77409 0.62623 0.0
O14 O 0.97302 0.81228 0.64771 0.0
O15 O 0.95166 0.7757 0.65596 0.0
C16 C 0.02689 0.7961 0.59613 0.0
C17 C 0.01638 0.74344 0.66022 0.0
C18 C 0.95785 0.75598 0.58376 0.0
O19 O 0.00588 0.80917 0.60253 0.0
O20 O 0.02839 0.77264 0.60608 0.0
O21 O 0.96453 0.74033 0.60287 0.0
O22 O 0.96424 0.7804 0.58728 0.0
C23 C 0.95427 0.80072 0.66066 0.0
O24 O 0.00288 0.73341 0.64084 0.0
O25 O 0.01486 0.76891 0.66257 0.0
In26 In 0.49151 0.74584 0.87945 0.0
O27 O 0.52388 0.71524 0.86705 0.0
O28 O 0.51999 0.75069 0.84311 0.0
C29 C 0.50651 0.78172 0.91799 0.0
C30 C 0.45554 0.77067 0.8469 0.0
C31 C 0.46833 0.70511 0.90786 0.0
O32 O 0.5235 0.77127 0.90193 0.0
O33 O 0.48235 0.77438 0.91418 0.0
O34 O 0.45716 0.71548 0.88736 0.0
O35 O 0.49132 0.71473 0.91339 0.0
C36 C 0.53182 0.72835 0.84664 0.0
O37 O 0.46186 0.74604 0.84386 0.0
O38 O 0.46723 0.78253 0.86631 0.0
In39 In 0.49669 0.24525 0.13092 0.0
O40 O 0.51829 0.21251 0.15545 0.0
O41 O 0.53209 0.25321 0.15908 0.0
C42 C 0.46753 0.2155 0.09615 0.0
C43 C 0.45873 0.26947 0.16182 0.0
C44 C 0.52738 0.26457 0.09068 0.0
O45 O 0.47869 0.20494 0.11667 0.0
O46 O 0.47 0.24088 0.09418 0.0
O47 O 0.51231 0.28006 0.1045 0.0
O48 O 0.52761 0.24009 0.09804 0.0
C49 C 0.53514 0.22877 0.16582 0.0
O50 O 0.47722 0.28282 0.15019 0.0
O51 O 0.45953 0.24426 0.15779 0.0
In52 In 0.01545 0.74924 0.12489 0.0
O53 O 0.97827 0.77491 0.11562 0.0
O54 O 0.01207 0.77894 0.08944 0.0
C55 C 0.98199 0.72232 0.15883 0.0
C56 C 0.03332 0.71553 0.08593 0.0
C57 C 0.05465 0.7686 0.15795 0.0
O58 O 0.99507 0.71068 0.14024 0.0
O59 O 0.98613 0.74749 0.16065 0.0
O60 O 0.05182 0.7437 0.15288 0.0
O61 O 0.03805 0.78382 0.14594 0.0
C62 C 0.98808 0.78585 0.09477 0.0
O63 O 0.04879 0.73243 0.09745 0.0
O64 O 0.00915 0.71564 0.09426 0.0
In65 In 0.49498 0.74796 0.38337 0.0
O66 O 0.52928 0.72084 0.39782 0.0
O67 O 0.49212 0.71848 0.4193 0.0
C68 C 0.45862 0.73087 0.34593 0.0
C69 C 0.47672 0.78353 0.42059 0.0
C70 C 0.53297 0.76893 0.34998 0.0
O71 O 0.47283 0.71459 0.3595 0.0
O72 O 0.46206 0.75541 0.35198 0.0
O73 O 0.5153 0.78356 0.36132 0.0
O74 O 0.5317 0.74413 0.35597 0.0
C75 C 0.51625 0.71039 0.4171 0.0
O76 O 0.50106 0.78327 0.41262 0.0
O77 O 0.46159 0.76609 0.40952 0.0
In78 In 0.51053 0.26279 0.62294 0.0
O79 O 0.54456 0.24324 0.59831 0.0
O80 O 0.5044 0.22885 0.59243 0.0
C81 C 0.54933 0.27827 0.65787 0.0
C82 C 0.49097 0.30119 0.58918 0.0
C83 C 0.47453 0.2409 0.65789 0.0
O84 O 0.54672 0.254 0.65009 0.0
O85 O 0.53245 0.29467 0.64789 0.0
O86 O 0.4841 0.22816 0.63793 0.0
O87 O 0.48296 0.26493 0.66031 0.0
C88 C 0.529 0.22723 0.58578 0.0
O89 O 0.47576 0.28617 0.60315 0.0
O90 O 0.5159 0.29757 0.59308 0.0
In91 In 0.99639 0.25683 0.87543 0.0
O92 O 0.0289 0.22524 0.88528 0.0
O93 O 0.99553 0.22877 0.91209 0.0
C94 C 0.9585 0.23565 0.84212 0.0
C95 C 0.97274 0.29378 0.90803 0.0
C96 C 0.03552 0.27995 0.84482 0.0
O97 O 0.96997 0.25803 0.83757 0.0
O98 O 0.96578 0.22413 0.86372 0.0
O99 O 0.02581 0.29144 0.86552 0.0
O100 O 0.02592 0.25674 0.84005 0.0
C101 C 0.01752 0.21707 0.90664 0.0
O102 O 0.99625 0.2847 0.91228 0.0
O103 O 0.96155 0.28497 0.88678 0.0
In104 In 0.37616 0.02854 0.25071 0.0
O105 O 0.33917 0.00051 0.25159 0.0
O106 O 0.35928 0.00908 0.28878 0.0
C107 C 0.4068 0.99776 0.21714 0.0
C108 C 0.34481 0.06655 0.2269 0.0
C109 C 0.41288 0.04783 0.28648 0.0
O110 O 0.38438 0.98987 0.22645 0.0
O111 O 0.41333 0.02147 0.22397 0.0
O112 O 0.40171 0.06302 0.26916 0.0
O113 O 0.40498 0.02354 0.28598 0.0
C114 C 0.34028 0.99675 0.27687 0.0
O115 O 0.34232 0.06006 0.25147 0.0
O116 O 0.36381 0.05468 0.21461 0.0
In117 In 0.24307 0.1243 0.49471 0.0
O118 O 0.21045 0.15021 0.51517 0.0
O119 O 0.25136 0.15525 0.52769 0.0
C120 C 0.20171 0.09253 0.47851 0.0
C121 C 0.26786 0.15317 0.4553 0.0
C122 C 0.27679 0.08876 0.51903 0.0
O123 O 0.20676 0.09712 0.50317 0.0
O124 O 0.21714 0.10455 0.46201 0.0
O125 O 0.2709 0.11146 0.52913 0.0
O126 O 0.26571 0.08386 0.49654 0.0
C127 C 0.22701 0.16245 0.53041 0.0
O128 O 0.27853 0.13269 0.46611 0.0
O129 O 0.24441 0.15858 0.46375 0.0
In130 In 0.12069 0.99483 0.76737 0.0
O131 O 0.09929 0.9636 0.79395 0.0
O132 O 0.09345 0.0052 0.80332 0.0
C133 C 0.1501 0.95505 0.7438 0.0
C134 C 0.08574 0.01835 0.73253 0.0
C135 C 0.16002 0.03062 0.7802 0.0
O136 O 0.15516 0.96392 0.76721 0.0
O137 O 0.12955 0.96539 0.73278 0.0
O138 O 0.15114 0.02735 0.75648 0.0
O139 O 0.14877 0.01596 0.79797 0.0
C140 C 0.08756 0.98089 0.80869 0.0
O141 O 0.10698 0.02983 0.74087 0.0
O142 O 0.0819 0.99484 0.74179 0.0
In143 In 0.25805 0.87802 0.99223 0.0
O144 O 0.23069 0.88881 0.02787 0.0
O145 O 0.22829 0.9133 0.99258 0.0
C146 C 0.23539 0.84687 0.95335 0.0
C147 C 0.29563 0.91165 0.97081 0.0
C148 C 0.27962 0.84421 0.02933 0.0
O149 O 0.22395 0.86778 0.96257 0.0
O150 O 0.25843 0.84209 0.96326 0.0
O151 O 0.29202 0.86496 0.02089 0.0
O152 O 0.25633 0.84085 0.01938 0.0
C153 C 0.22021 0.90911 0.01645 0.0
O154 O 0.28484 0.91568 0.99358 0.0
O155 O 0.28811 0.89017 0.95912 0.0
In156 In 0.24377 0.37905 0.99584 0.0
O157 O 0.24508 0.34159 0.96887 0.0
O158 O 0.27947 0.36743 0.96853 0.0
C159 C 0.20959 0.41377 0.971 0.0
C160 C 0.21687 0.3463 0.03015 0.0
C161 C 0.27957 0.40948 0.02391 0.0
O162 O 0.21787 0.39232 0.95984 0.0
O163 O 0.21799 0.41735 0.99484 0.0
O164 O 0.26712 0.38973 0.03434 0.0
O165 O 0.27466 0.41327 -0.00087 0.0
C166 C 0.26854 0.34597 0.95987 0.0
O167 O 0.20566 0.36626 0.01874 0.0
O168 O 0.24169 0.34344 0.02482 0.0
In169 In 0.74426 0.12708 0.02574 0.0
O170 O 0.72029 0.10324 0.0573 0.0
O171 O 0.70689 0.10155 0.01641 0.0
C172 C 0.7641 0.1618 0.06308 0.0
C173 C 0.77877 0.08786 0.00992 0.0
C174 C 0.7313 0.16431 0.98791 0.0
O175 O 0.73922 0.15603 0.06152 0.0
O176 O 0.77894 0.14953 0.04631 0.0
O177 O 0.75489 0.15488 0.99053 0.0
O178 O 0.71404 0.15465 0.00413 0.0
C179 C 0.70358 0.0936 0.04047 0.0
O180 O 0.76482 0.10144 0.99338 0.0
O181 O 0.77573 0.09444 0.03442 0.0
In182 In 0.12253 0.49855 0.25692 0.0
O183 O 0.13246 0.47188 0.29349 0.0
O184 O 0.15583 0.46661 0.25784 0.0
C185 C 0.08666 0.52502 0.28876 0.0
C186 C 0.16146 0.53331 0.24061 0.0
C187 C 0.09123 0.4804 0.21588 0.0
O188 O 0.08278 0.50101 0.28089 0.0
O189 O 0.10852 0.53545 0.28075 0.0
O190 O 0.09726 0.50509 0.21883 0.0
O191 O 0.10138 0.46478 0.23338 0.0
C192 C 0.15176 0.45968 0.28206 0.0
O193 O 0.14801 0.51909 0.22407 0.0
O194 O 0.15524 0.52992 0.26516 0.0
In195 In 0.74623 0.88099 0.49899 0.0
O196 O 0.7424 0.8455 0.46952 0.0
O197 O 0.77772 0.87002 0.46705 0.0
C198 C 0.70768 0.91531 0.48151 0.0
C199 C 0.72391 0.8473 0.53573 0.0
C200 C 0.78519 0.91258 0.5213 0.0
O201 O 0.72093 0.90043 0.46546 0.0
O202 O 0.71354 0.9124 0.50619 0.0
O203 O 0.77836 0.89011 0.53138 0.0
O204 O 0.77276 0.91875 0.49994 0.0
C205 C 0.76487 0.8498 0.45813 0.0
O206 O 0.71179 0.8678 0.52654 0.0
O207 O 0.74758 0.84387 0.52665 0.0
In208 In 0.87863 0.98698 0.24858 0.0
O209 O 0.91519 0.98386 0.27642 0.0
O210 O 0.8914 0.9484 0.27125 0.0
C211 C 0.84919 0.02498 0.27473 0.0
C212 C 0.91391 0.00713 0.2119 0.0
C213 C 0.84087 0.95583 0.2239 0.0
O214 O 0.86674 0.01059 0.28642 0.0
O215 O 0.84682 0.02066 0.24964 0.0
O216 O 0.86047 0.9665 0.21145 0.0
O217 O 0.84039 0.96053 0.24904 0.0
C218 C 0.91197 0.95917 0.28202 0.0
O219 O 0.90927 0.98217 0.2147 0.0
O220 O 0.90021 0.02233 0.22728 0.0
In221 In 0.2562 0.62341 0.50705 0.0
O222 O 0.2748 0.59808 0.47339 0.0
O223 O 0.29061 0.59327 0.51314 0.0
C224 C 0.24462 0.66269 0.47095 0.0
C225 C 0.21629 0.58893 0.52176 0.0
C226 C 0.27282 0.65671 0.54698 0.0
O227 O 0.26843 0.65456 0.47527 0.0
O228 O 0.22655 0.65063 0.48446 0.0
O229 O 0.24823 0.65059 0.54345 0.0
O230 O 0.2891 0.64546 0.5308 0.0
C231 C 0.29143 0.5861 0.48861 0.0
O232 O 0.23359 0.59798 0.5383 0.0
O233 O 0.21877 0.59772 0.49789 0.0
In234 In 0.37887 0.49617 0.75394 0.0
O235 O 0.41138 0.49433 0.78688 0.0
O236 O 0.38943 0.45837 0.77843 0.0
C237 C 0.34571 0.5367 0.76947 0.0
C238 C 0.41838 0.51404 0.72097 0.0
C239 C 0.34327 0.46467 0.727 0.0
O240 O 0.35548 0.51996 0.78617 0.0
O241 O 0.35324 0.5333 0.74531 0.0
O242 O 0.36462 0.47374 0.71629 0.0
O243 O 0.34002 0.47111 0.75153 0.0
C244 C 0.40821 0.46946 0.79173 0.0
O245 O 0.41043 0.48972 0.72114 0.0
O246 O 0.40629 0.52947 0.73741 0.0
In247 In 0.62508 0.99747 0.74592 0.0
O248 O 0.63492 0.96945 0.78115 0.0
O249 O 0.66029 0.96733 0.7465 0.0
C250 C 0.59329 0.02402 0.78174 0.0
C251 C 0.66002 0.03148 0.72122 0.0
C252 C 0.58973 0.9784 0.70888 0.0
O253 O 0.58745 0.00108 0.7722 0.0
O254 O 0.61551 0.03362 0.77354 0.0
O255 O 0.5941 0.00329 0.71268 0.0
O256 O 0.60387 0.96271 0.72333 0.0
C257 C 0.65547 0.95904 0.77018 0.0
O258 O 0.64106 0.0196 0.70883 0.0
O259 O 0.66145 0.02626 0.74621 0.0
In260 In 0.7434 0.62551 -0.00041 0.0
O261 O 0.70898 0.64035 0.02603 0.0
O262 O 0.74608 0.66214 0.02835 0.0
C263 C 0.70506 0.59061 0.98172 0.0
C264 C 0.76479 0.65858 0.96158 0.0
C265 C 0.78161 0.59154 0.01911 0.0
O266 O 0.71154 0.59315 0.00625 0.0
O267 O 0.71778 0.606 0.96571 0.0
O268 O 0.77517 0.59287 0.99448 0.0
O269 O 0.76899 0.60776 0.03435 0.0
C270 C 0.72186 0.65985 0.03632 0.0
O271 O 0.74027 0.66025 0.96875 0.0
O272 O 0.77808 0.64018 0.97321 0.0
In273 In 0.87632 0.50184 0.75342 0.0
O274 O 0.84025 0.47306 0.75505 0.0
O275 O 0.86576 0.47545 0.78968 0.0
C276 C 0.90674 0.47765 0.71513 0.0
C277 C 0.84489 0.5407 0.73122 0.0
C278 C 0.91044 0.5236 0.78997 0.0
O279 O 0.8859 0.46654 0.725 0.0
O280 O 0.91164 0.5011 0.72405 0.0
O281 O 0.88891 0.53531 0.78275 0.0
O282 O 0.91448 0.50087 0.77905 0.0
C283 C 0.84486 0.46534 0.77898 0.0
O284 O 0.84 0.53027 0.75398 0.0
O285 O 0.86582 0.53173 0.71966 0.0
In286 In 0.75785 0.38336 0.50187 0.0
O287 O 0.72676 0.41754 0.50075 0.0
O288 O 0.72949 0.39429 0.53677 0.0
C289 C 0.74178 0.35098 0.4609 0.0
C290 C 0.79312 0.42216 0.48648 0.0
C291 C 0.78092 0.34677 0.53543 0.0
O292 O 0.72522 0.36253 0.4766 0.0
O293 O 0.76636 0.35655 0.46532 0.0
O294 O 0.79281 0.36816 0.52806 0.0
O295 O 0.75726 0.34398 0.52625 0.0
C296 C 0.71855 0.4139 0.52463 0.0
O297 O 0.77952 0.40845 0.46963 0.0
O298 O 0.7894 0.41579 0.51096 0.0
In299 In 0.62115 0.50545 0.24985 0.0
O300 O 0.59697 0.47051 0.26845 0.0
O301 O 0.5886 0.51065 0.28177 0.0
C302 C 0.65973 0.4698 0.23547 0.0
C303 C 0.58839 0.52257 0.20958 0.0
C304 C 0.65334 0.54269 0.27369 0.0
O305 O 0.65097 0.47153 0.25944 0.0
O306 O 0.64859 0.4856 0.21878 0.0
O307 O 0.65505 0.53714 0.24879 0.0
O308 O 0.63511 0.52998 0.28626 0.0
C309 C 0.58299 0.48577 0.28351 0.0
O310 O 0.60023 0.53882 0.22541 0.0
O311 O 0.59374 0.49796 0.21362 0.0
Fe312 Fe 0.12648 0.1014 0.1444 0.0
Fe313 Fe 0.09389 0.14553 0.11526 0.0
O314 O 0.12253 0.12396 0.1168 0.0
Fe315 Fe 0.14725 0.12504 0.09088 0.0
O316 O 0.14176 0.08965 0.08255 0.0
O317 O 0.14356 0.07504 0.12456 0.0
O318 O 0.09503 0.08445 0.13618 0.0
C319 C 0.07235 0.09602 0.13467 0.0
C320 C 0.17861 0.11909 0.13863 0.0
O321 O 0.07072 0.12152 0.1321 0.0
C322 C 0.13672 0.17905 0.09724 0.0
O323 O 0.10989 0.12365 0.16933 0.0
O324 O 0.10311 0.16149 0.14693 0.0
O325 O 0.17579 0.11696 0.11321 0.0
O326 O 0.15846 0.1168 0.15423 0.0
C327 C 0.09769 0.13087 0.06215 0.0
O328 O 0.11172 0.17339 0.09838 0.0
O329 O 0.15432 0.16053 0.09755 0.0
C330 C 0.10645 0.14907 0.16893 0.0
O331 O 0.08302 0.13128 0.08311 0.0
O332 O 0.12318 0.13337 0.06389 0.0
C333 C 0.14361 0.07045 0.09932 0.0
Fe334 Fe 0.11534 0.84349 0.37408 0.0
Fe335 Fe 0.13132 0.89892 0.35026 0.0
O336 O 0.13528 0.87326 0.37509 0.0
Fe337 Fe 0.15935 0.87736 0.40125 0.0
O338 O 0.17804 0.8477 0.39013 0.0
O339 O 0.14197 0.82157 0.38803 0.0
O340 O 0.12826 0.83487 0.34093 0.0
C341 C 0.12716 0.84988 0.32031 0.0
C342 C 0.1159 0.85185 0.42842 0.0
O343 O 0.12328 0.8752 0.32251 0.0
C344 C 0.13725 0.92786 0.39963 0.0
O345 O 0.08529 0.85996 0.35965 0.0
O346 O 0.09581 0.90324 0.35854 0.0
O347 O 0.14075 0.85753 0.42633 0.0
O348 O 0.10117 0.85005 0.40759 0.0
C349 C 0.18631 0.8998 0.3561 0.0
O350 O 0.13848 0.92698 0.37394 0.0
O351 O 0.14179 0.90701 0.4137 0.0
C352 C 0.0783 0.8846 0.35823 0.0
O353 O 0.16671 0.89665 0.33998 0.0
O354 O 0.18274 0.89794 0.38136 0.0
C355 C 0.1675 0.82438 0.38905 0.0
Fe356 Fe 0.36488 0.90367 0.65719 0.0
Fe357 Fe 0.34256 0.87589 0.60639 0.0
O358 O 0.36666 0.87746 0.63291 0.0
Fe359 Fe 0.39259 0.8528 0.63515 0.0
O360 O 0.3813 0.84206 0.66834 0.0
O361 O 0.3784 0.88319 0.68515 0.0
O362 O 0.33139 0.8931 0.66783 0.0
C363 C 0.31131 0.89109 0.65212 0.0
C364 C 0.41935 0.90168 0.64826 0.0
O365 O 0.31464 0.88998 0.62666 0.0
C366 C 0.39193 0.86171 0.58072 0.0
O367 O 0.35115 0.92889 0.63373 0.0
O368 O 0.35214 0.90911 0.59381 0.0
O369 O 0.41801 0.87607 0.64963 0.0
O370 O 0.39814 0.91584 0.64778 0.0
C371 C 0.34633 0.82254 0.62006 0.0
O372 O 0.36623 0.86125 0.58134 0.0
O373 O 0.40554 0.86218 0.60228 0.0
C374 C 0.35193 0.93031 0.60813 0.0
O375 O 0.33128 0.84294 0.61752 0.0
O376 O 0.37188 0.82504 0.62096 0.0
C377 C 0.37943 0.85774 0.68844 0.0
Fe378 Fe 0.40373 0.15838 0.87134 0.0
Fe379 Fe 0.38051 0.10779 0.8435 0.0
O380 O 0.3789 0.13233 0.86966 0.0
Fe381 Fe 0.35247 0.13078 0.89409 0.0
O382 O 0.34049 0.16454 0.88525 0.0
O383 O 0.3807 0.18385 0.88501 0.0
O384 O 0.39511 0.17083 0.83779 0.0
C385 C 0.39498 0.15642 0.81667 0.0
C386 C 0.39853 0.14541 0.92497 0.0
O387 O 0.39468 0.13084 0.81819 0.0
C388 C 0.36486 0.07693 0.88928 0.0
O389 O 0.43135 0.13754 0.85797 0.0
O390 O 0.41389 0.09674 0.85414 0.0
O391 O 0.37313 0.14395 0.92196 0.0
O392 O 0.41419 0.14802 0.90495 0.0
C393 C 0.32596 0.11652 0.84503 0.0
O394 O 0.36664 0.0801 0.86392 0.0
O395 O 0.36252 0.09707 0.90486 0.0
C396 C 0.43422 0.11212 0.85631 0.0
O397 O 0.3473 0.11717 0.83101 0.0
O398 O 0.32703 0.11697 0.87065 0.0
C399 C 0.35514 0.18557 0.88512 0.0
Fe400 Fe 0.60782 0.34311 0.87428 0.0
Fe401 Fe 0.62751 0.39832 0.85412 0.0
O402 O 0.62837 0.37209 0.87853 0.0
Fe403 Fe 0.64986 0.37485 0.907 0.0
O404 O 0.66806 0.34435 0.89773 0.0
O405 O 0.63177 0.31956 0.8904 0.0
O406 O 0.62403 0.33507 0.84246 0.0
C407 C 0.62417 0.35068 0.82232 0.0
C408 C 0.60242 0.34996 0.92841 0.0
O409 O 0.61982 0.37582 0.82531 0.0
C410 C 0.63203 0.4268 0.90385 0.0
O411 O 0.57999 0.36152 0.85766 0.0
O412 O 0.5919 0.40441 0.86052 0.0
O413 O 0.62734 0.35592 0.92996 0.0
O414 O 0.59054 0.34923 0.90587 0.0
C415 C 0.68172 0.39485 0.86384 0.0
O416 O 0.63512 0.42566 0.87839 0.0
O417 O 0.63303 0.40555 0.91799 0.0
C418 C 0.57376 0.38647 0.85835 0.0
O419 O 0.66301 0.39354 0.84645 0.0
O420 O 0.67641 0.39379 0.88896 0.0
C421 C 0.65697 0.32151 0.89482 0.0
Fe422 Fe 0.8478 0.37984 0.10719 0.0
Fe423 Fe 0.87962 0.40837 0.15187 0.0
O424 O 0.87598 0.38097 0.12914 0.0
Fe425 Fe 0.90043 0.35477 0.12837 0.0
O426 O 0.90824 0.36157 0.09316 0.0
O427 O 0.86585 0.36252 0.0796 0.0
O428 O 0.85774 0.41131 0.09136 0.0
C429 C 0.86061 0.43331 0.10399 0.0
C430 C 0.85045 0.32699 0.12267 0.0
O431 O 0.86331 0.43354 0.12953 0.0
C432 C 0.8962 0.36298 0.1828 0.0
O433 O 0.82455 0.39703 0.13079 0.0
O434 O 0.84804 0.40008 0.16843 0.0
O435 O 0.87595 0.32787 0.11934 0.0
O436 O 0.83645 0.3483 0.12185 0.0
C437 C 0.93178 0.4026 0.13518 0.0
O438 O 0.89646 0.38829 0.17835 0.0
O439 O 0.89413 0.34636 0.1635 0.0
C440 C 0.8256 0.39883 0.15638 0.0
O441 O 0.91148 0.418 0.13658 0.0
O442 O 0.92914 0.3771 0.13737 0.0
C443 C 0.89095 0.36133 0.07434 0.0
Fe444 Fe 0.8479 0.64058 0.39763 0.0
Fe445 Fe 0.89481 0.66331 0.36374 0.0
O446 O 0.87105 0.63735 0.37038 0.0
Fe447 Fe 0.87028 0.60795 0.34964 0.0
O448 O 0.83586 0.61519 0.33912 0.0
O449 O 0.82049 0.62211 0.38037 0.0
O450 O 0.83356 0.67137 0.38372 0.0
C451 C 0.84704 0.69228 0.37776 0.0
C452 C 0.86051 0.58712 0.4022 0.0
O453 O 0.8724 0.69104 0.37409 0.0
C454 C 0.92478 0.6148 0.35605 0.0
O455 O 0.87091 0.65997 0.41963 0.0
O456 O 0.90932 0.66071 0.3972 0.0
O457 O 0.85862 0.58516 0.37668 0.0
O458 O 0.86076 0.61005 0.41348 0.0
C459 C 0.88222 0.64977 0.31189 0.0
O460 O 0.92149 0.64003 0.35245 0.0
O461 O 0.90473 0.59911 0.35887 0.0
C462 C 0.89626 0.66373 0.41888 0.0
O463 O 0.88213 0.66804 0.3297 0.0
O464 O 0.88199 0.62505 0.3187 0.0
C465 C 0.81629 0.61789 0.35537 0.0
Fe466 Fe 0.89406 0.85542 0.88382 0.0
Fe467 Fe 0.84187 0.87274 0.91279 0.0
O468 O 0.86742 0.87899 0.88847 0.0
Fe469 Fe 0.86643 0.90898 0.86886 0.0
O470 O 0.89897 0.91998 0.88201 0.0
O471 O 0.91958 0.88117 0.87488 0.0
O472 O 0.90499 0.85919 0.91873 0.0
C473 C 0.88986 0.85602 0.93909 0.0
C474 C 0.8838 0.86912 0.83134 0.0
O475 O 0.86435 0.85524 0.93656 0.0
C476 C 0.81305 0.89448 0.8682 0.0
O477 O 0.87338 0.82543 0.89202 0.0
O478 O 0.83209 0.84136 0.89649 0.0
O479 O 0.88209 0.89361 0.83886 0.0
O480 O 0.88484 0.85026 0.84858 0.0
C481 C 0.84983 0.92686 0.92066 0.0
O482 O 0.81478 0.88919 0.89327 0.0
O483 O 0.83396 0.89975 0.85449 0.0
C484 C 0.84794 0.82177 0.8925 0.0
O485 O 0.85004 0.90354 0.93094 0.0
O486 O 0.85049 0.92992 0.89522 0.0
C487 C 0.9205 0.90643 0.87962 0.0
Fe488 Fe 0.87501 0.1015 0.65218 0.0
Fe489 Fe 0.85519 0.12649 0.59854 0.0
O490 O 0.87807 0.12625 0.62632 0.0
Fe491 Fe 0.90421 0.15082 0.62812 0.0
O492 O 0.89161 0.16387 0.66008 0.0
O493 O 0.88648 0.12401 0.67941 0.0
O494 O 0.84076 0.11209 0.66012 0.0
C495 C 0.82156 0.11296 0.64328 0.0
C496 C 0.9301 0.10334 0.64669 0.0
O497 O 0.8262 0.11393 0.61807 0.0
C498 C 0.90579 0.13828 0.57428 0.0
O499 O 0.86298 0.0747 0.62954 0.0
O500 O 0.86475 0.09235 0.58862 0.0
O501 O 0.92853 0.12884 0.64522 0.0
O502 O 0.90905 0.08886 0.64622 0.0
C503 C 0.85955 0.18081 0.60847 0.0
O504 O 0.88014 0.13901 0.57389 0.0
O505 O 0.91857 0.13918 0.59639 0.0
C506 C 0.86419 0.07197 0.60407 0.0
O507 O 0.8439 0.16066 0.6065 0.0
O508 O 0.8848 0.17754 0.61135 0.0
C509 C 0.88791 0.1496 0.68098 0.0
Fe510 Fe 0.63962 0.1073 0.34929 0.0
Fe511 Fe 0.66175 0.13428 0.40056 0.0
O512 O 0.63913 0.13421 0.3729 0.0
Fe513 Fe 0.61584 0.16104 0.369 0.0
O514 O 0.63032 0.16994 0.33665 0.0
O515 O 0.62948 0.12852 0.32024 0.0
O516 O 0.67454 0.11424 0.34029 0.0
C517 C 0.69376 0.11417 0.35715 0.0
C518 C 0.58522 0.11473 0.35496 0.0
O519 O 0.6891 0.1167 0.38231 0.0
C520 C 0.61277 0.15307 0.42336 0.0
O521 O 0.64965 0.0814 0.37417 0.0
O522 O 0.64778 0.10284 0.41318 0.0
O523 O 0.58912 0.14006 0.3532 0.0
O524 O 0.60491 0.09866 0.35713 0.0
C525 C 0.66382 0.18735 0.38613 0.0
O526 O 0.63843 0.15187 0.42391 0.0
O527 O 0.6002 0.15338 0.40116 0.0
C528 C 0.64685 0.08115 0.39971 0.0
O529 O 0.6769 0.16569 0.38932 0.0
O530 O 0.63821 0.18699 0.3841 0.0
C531 C 0.6314 0.15393 0.31679 0.0
Fe532 Fe 0.59007 0.84697 0.13578 0.0
Fe533 Fe 0.63664 0.87285 0.10416 0.0
O534 O 0.61491 0.87255 0.13266 0.0
Fe535 Fe 0.61788 0.89791 0.15799 0.0
O536 O 0.58344 0.90928 0.15219 0.0
O537 O 0.56528 0.86861 0.15314 0.0
O538 O 0.57404 0.85697 0.10436 0.0
C539 C 0.58595 0.85764 0.08179 0.0
C540 C 0.60738 0.85009 0.18803 0.0
O541 O 0.61158 0.85849 0.08053 0.0
C542 C 0.67122 0.88782 0.14773 0.0
O543 O 0.61027 0.82065 0.11897 0.0
O544 O 0.64999 0.8396 0.11222 0.0
O545 O 0.60722 0.87571 0.18614 0.0
O546 O 0.60462 0.83541 0.16733 0.0
C547 C 0.6261 0.92685 0.10904 0.0
O548 O 0.66565 0.88714 0.12265 0.0
O549 O 0.6526 0.88827 0.16526 0.0
C550 C 0.63555 0.81869 0.115 0.0
O551 O 0.62466 0.90607 0.09421 0.0
O552 O 0.62898 0.92466 0.13447 0.0
C553 C 0.56285 0.89417 0.15364 0.0
Fe554 Fe 0.39782 0.64895 0.12244 0.0
Fe555 Fe 0.34275 0.62584 0.10511 0.0
O556 O 0.37078 0.62597 0.12752 0.0
Fe557 Fe 0.3719 0.60311 0.15504 0.0
O558 O 0.40275 0.58789 0.14245 0.0
O559 O 0.42415 0.62638 0.13607 0.0
O560 O 0.40497 0.63493 0.08925 0.0
C561 C 0.38783 0.63376 0.07028 0.0
C562 C 0.39214 0.65186 0.17728 0.0
O563 O 0.36267 0.63552 0.07518 0.0
C564 C 0.31868 0.61717 0.15675 0.0
O565 O 0.37661 0.6757 0.10812 0.0
O566 O 0.33479 0.661 0.11285 0.0
O567 O 0.39047 0.62623 0.17783 0.0
O568 O 0.39198 0.66446 0.15511 0.0
C569 C 0.35013 0.57147 0.11236 0.0
O570 O 0.31788 0.61585 0.1311 0.0
O571 O 0.341 0.61682 0.16916 0.0
C572 C 0.35149 0.68027 0.11036 0.0
O573 O 0.34894 0.59087 0.09578 0.0
O574 O 0.3536 0.57586 0.13741 0.0
C575 C 0.42434 0.60082 0.13823 0.0
Fe576 Fe 0.12822 0.60727 0.83762 0.0
Fe577 Fe 0.15467 0.63279 0.88787 0.0
O578 O 0.12867 0.6326 0.86298 0.0
Fe579 Fe 0.10295 0.65749 0.86348 0.0
O580 O 0.11141 0.66923 0.82964 0.0
O581 O 0.11258 0.62859 0.81166 0.0
O582 O 0.16086 0.61833 0.82499 0.0
C583 C 0.18209 0.61916 0.83924 0.0
C584 C 0.07465 0.6094 0.85118 0.0
O585 O 0.1808 0.61935 0.86491 0.0
C586 C 0.10757 0.64633 0.91752 0.0
O587 O 0.14363 0.58108 0.85878 0.0
O588 O 0.14553 0.59899 0.89946 0.0
O589 O 0.07644 0.63497 0.85067 0.0
O590 O 0.09549 0.59477 0.84889 0.0
C591 C 0.15034 0.68702 0.87717 0.0
O592 O 0.13312 0.64631 0.9152 0.0
O593 O 0.09249 0.64728 0.89699 0.0
C594 C 0.14444 0.57844 0.88425 0.0
O595 O 0.16561 0.66654 0.87812 0.0
O596 O 0.12483 0.68443 0.87664 0.0
C597 C 0.11096 0.65404 0.80906 0.0
Fe598 Fe 0.14638 0.37575 0.59891 0.0
Fe599 Fe 0.10092 0.34868 0.6313 0.0
O600 O 0.12376 0.37594 0.62667 0.0
Fe601 Fe 0.1239 0.40346 0.64969 0.0
O602 O 0.15884 0.397 0.65887 0.0
O603 O 0.17358 0.39367 0.61696 0.0
O604 O 0.16185 0.34466 0.61043 0.0
C605 C 0.14915 0.32282 0.61401 0.0
C606 C 0.13226 0.42898 0.59879 0.0
O607 O 0.12367 0.32272 0.61708 0.0
C608 C 0.06955 0.39484 0.64393 0.0
O609 O 0.12331 0.35759 0.5758 0.0
O610 O 0.08533 0.35495 0.59883 0.0
O611 O 0.13397 0.42895 0.62441 0.0
O612 O 0.13239 0.40702 0.58572 0.0
C613 C 0.11551 0.35774 0.68371 0.0
O614 O 0.07404 0.36966 0.64596 0.0
O615 O 0.08888 0.41151 0.64188 0.0
C616 C 0.09778 0.35519 0.57659 0.0
O617 O 0.11485 0.34094 0.66441 0.0
O618 O 0.11402 0.38298 0.67917 0.0
C619 C 0.17813 0.39628 0.6421 0.0
Fe620 Fe 0.65388 0.63095 0.60482 0.0
Fe621 Fe 0.63339 0.60466 0.65702 0.0
O622 O 0.62959 0.62922 0.6312 0.0
Fe623 Fe 0.60152 0.65172 0.63174 0.0
O624 O 0.58995 0.64046 0.59863 0.0
O625 O 0.62982 0.64181 0.57883 0.0
O626 O 0.64689 0.59628 0.59435 0.0
C627 C 0.64834 0.57609 0.60994 0.0
C628 C 0.64556 0.68484 0.61479 0.0
O629 O 0.64949 0.57933 0.63531 0.0
C630 C 0.61401 0.65048 0.6857 0.0
O631 O 0.6825 0.62048 0.62608 0.0
O632 O 0.66578 0.61862 0.66729 0.0
O633 O 0.62036 0.68029 0.61707 0.0
O634 O 0.66234 0.66561 0.61339 0.0
C635 C 0.57906 0.60125 0.64736 0.0
O636 O 0.61782 0.62522 0.68368 0.0
O637 O 0.61079 0.66488 0.66486 0.0
C638 C 0.68579 0.62086 0.65154 0.0
O639 O 0.60148 0.58913 0.64813 0.0
O640 O 0.57787 0.62691 0.64656 0.0
C641 C 0.60427 0.64031 0.57747 0.0
Fe642 Fe 0.39813 0.34823 0.3689 0.0
Fe643 Fe 0.36553 0.3979 0.35138 0.0
O644 O 0.37107 0.37097 0.37427 0.0
Fe645 Fe 0.34973 0.36683 0.40265 0.0
O646 O 0.33938 0.33357 0.39129 0.0
O647 O 0.38068 0.31884 0.38393 0.0
O648 O 0.384 0.33777 0.33684 0.0
C649 C 0.37917 0.35371 0.31753 0.0
C650 C 0.40185 0.35596 0.42339 0.0
O651 O 0.37769 0.37908 0.32136 0.0
C652 C 0.35631 0.42162 0.40271 0.0
O653 O 0.42056 0.37345 0.35279 0.0
O654 O 0.39868 0.41178 0.35822 0.0
O655 O 0.37638 0.3529 0.42472 0.0
O656 O 0.41359 0.35765 0.40078 0.0
C657 C 0.31346 0.38244 0.36081 0.0
O658 O 0.35256 0.42149 0.37728 0.0
O659 O 0.35903 0.39978 0.41559 0.0
C660 C 0.42052 0.39905 0.35498 0.0
O661 O 0.3319 0.38566 0.34342 0.0
O662 O 0.31926 0.38015 0.38574 0.0
C663 C 0.35558 0.3143 0.38708 0.0
H664 H 0.04092 0.17674 0.31291 0.0
H665 H 0.07103 0.25921 0.30687 0.0
H666 H 0.09585 0.24701 0.26514 0.0
H667 H 0.103 0.14326 0.28646 0.0
H668 H 0.08365 0.11781 0.26872 0.0
H669 H 0.07071 0.13235 0.29963 0.0
H670 H 0.02659 0.146 0.2746 0.0
H671 H 0.03944 0.13169 0.24365 0.0
H672 H 0.02874 0.1666 0.24452 0.0
H673 H 0.11177 0.22764 0.22104 0.0
H674 H 0.12085 0.2013 0.17934 0.0
H675 H 0.08267 0.1308 0.21539 0.0
C676 C 0.05321 0.19207 0.30311 0.0
C677 C 0.05413 0.2189 0.31306 0.0
C678 C 0.07022 0.23849 0.29963 0.0
C679 C 0.08436 0.23176 0.27593 0.0
C680 C 0.08249 0.20527 0.26625 0.0
C681 C 0.06767 0.18561 0.27964 0.0
C682 C 0.06786 0.15901 0.2643 0.0
C683 C 0.08217 0.1368 0.28076 0.0
C684 C 0.03895 0.15034 0.25629 0.0
C685 C 0.08436 0.16704 0.23974 0.0
C686 C 0.09262 0.1938 0.24126 0.0
C687 C 0.10598 0.2065 0.21988 0.0
C688 C 0.11093 0.19148 0.19628 0.0
C689 C 0.10279 0.16402 0.19446 0.0
C690 C 0.0897 0.15158 0.21661 0.0
H691 H 0.0173 0.83233 0.55545 0.0
H692 H 0.07883 0.77935 0.58902 0.0
H693 H 0.10858 0.78919 0.55001 0.0
H694 H 0.02549 0.81154 0.48823 0.0
H695 H 0.02009 0.84439 0.47321 0.0
H696 H 0.00482 0.83632 0.50534 0.0
H697 H 0.02764 0.87828 0.52729 0.0
H698 H 0.04264 0.88677 0.4951 0.0
H699 H 0.06382 0.88258 0.52455 0.0
H700 H 0.1303 0.80229 0.50684 0.0
H701 H 0.14368 0.81872 0.46167 0.0
H702 H 0.06716 0.86132 0.45408 0.0
C703 C 0.03738 0.82351 0.55495 0.0
C704 C 0.04608 0.80546 0.57537 0.0
C705 C 0.07204 0.79349 0.57368 0.0
C706 C 0.089 0.7989 0.55161 0.0
C707 C 0.07952 0.81612 0.53137 0.0
C708 C 0.0544 0.82836 0.53281 0.0
C709 C 0.04845 0.84453 0.50735 0.0
C710 C 0.02322 0.83352 0.49267 0.0
C711 C 0.04547 0.87484 0.51397 0.0
C712 C 0.07402 0.83912 0.49125 0.0
C713 C 0.09172 0.82291 0.50571 0.0
C714 C 0.11672 0.81512 0.49538 0.0
C715 C 0.12411 0.82455 0.46975 0.0
C716 C 0.10642 0.84128 0.45458 0.0
C717 C 0.08089 0.84839 0.46528 0.0
H718 H 0.43969 0.7551 0.79611 0.0
H719 H 0.43123 0.81944 0.85547 0.0
H720 H 0.40484 0.8463 0.82261 0.0
H721 H 0.45233 0.79689 0.74182 0.0
H722 H 0.43424 0.77709 0.71698 0.0
H723 H 0.44818 0.76087 0.74644 0.0
H724 H 0.40076 0.74173 0.75859 0.0
H725 H 0.38666 0.75788 0.72903 0.0
H726 H 0.37248 0.76457 0.76202 0.0
H727 H 0.38464 0.86836 0.78214 0.0
H728 H 0.37293 0.88467 0.73642 0.0
H729 H 0.39503 0.80633 0.70288 0.0
C730 C 0.43157 0.7745 0.8024 0.0
C731 C 0.43723 0.78515 0.82834 0.0
C732 C 0.42697 0.8109 0.83569 0.0
C733 C 0.41186 0.82623 0.81723 0.0
C734 C 0.40719 0.81549 0.79154 0.0
C735 C 0.41666 0.79018 0.7841 0.0
C736 C 0.41144 0.78461 0.75437 0.0
C737 C 0.43813 0.77958 0.73901 0.0
C738 C 0.39165 0.76078 0.7508 0.0
C739 C 0.39849 0.81114 0.74605 0.0
C740 C 0.39579 0.82846 0.7679 0.0
C741 C 0.38624 0.85484 0.76493 0.0
C742 C 0.37974 0.86395 0.73886 0.0
C743 C 0.38304 0.84678 0.71607 0.0
C744 C 0.39195 0.81984 0.71991 0.0
H745 H 0.4703 0.22692 0.04285 0.0
H746 H 0.43924 0.16765 0.09975 0.0
H747 H 0.41977 0.14124 0.06147 0.0
H748 H 0.41591 0.22636 0.99632 0.0
H749 H 0.43725 0.22929 0.96683 0.0
H750 H 0.44838 0.24299 0.99876 0.0
H751 H 0.49228 0.21433 0.99581 0.0
H752 H 0.48122 0.2004 0.9639 0.0
H753 H 0.48983 0.17811 0.9915 0.0
H754 H 0.40031 0.12418 0.01687 0.0
H755 H 0.38566 0.11563 0.96954 0.0
H756 H 0.43412 0.18365 0.9423 0.0
C757 C 0.45926 0.20843 0.04724 0.0
C758 C 0.45572 0.19941 0.07409 0.0
C759 C 0.44186 0.17485 0.07919 0.0
C760 C 0.43084 0.1598 0.05763 0.0
C761 C 0.43464 0.16934 0.03127 0.0
C762 C 0.44889 0.1929 0.02605 0.0
C763 C 0.45069 0.19867 0.99604 0.0
C764 C 0.43725 0.22593 0.98909 0.0
C765 C 0.48026 0.19781 0.98624 0.0
C766 C 0.43457 0.17504 0.98507 0.0
C767 C 0.42528 0.15842 0.00567 0.0
C768 C 0.40795 0.13667 0.00055 0.0
C769 C 0.39973 0.13199 0.97373 0.0
C770 C 0.40933 0.14866 0.95248 0.0
C771 C 0.42724 0.17015 0.95818 0.0
H772 H 0.0575 0.81961 0.17951 0.0
H773 H 0.09484 0.74013 0.18305 0.0
H774 H 0.1232 0.75527 0.2214 0.0
H775 H 0.11876 0.85977 0.2012 0.0
H776 H 0.0983 0.88274 0.22089 0.0
H777 H 0.08462 0.86737 0.19067 0.0
H778 H 0.04413 0.8487 0.21845 0.0
H779 H 0.05769 0.86388 0.24867 0.0
H780 H 0.05064 0.82803 0.24785 0.0
H781 H 0.14179 0.77619 0.26328 0.0
H782 H 0.14957 0.80159 0.30568 0.0
H783 H 0.10078 0.86789 0.27499 0.0
C784 C 0.07227 0.80568 0.18782 0.0
C785 C 0.07415 0.77876 0.17824 0.0
C786 C 0.0932 0.76089 0.19002 0.0
C787 C 0.10947 0.76934 0.21173 0.0
C788 C 0.10655 0.79578 0.22127 0.0
C789 C 0.08858 0.81379 0.20957 0.0
C790 C 0.08719 0.84003 0.22549 0.0
C791 C 0.09786 0.86389 0.20855 0.0
C792 C 0.0582 0.84545 0.23572 0.0
C793 C 0.10625 0.8335 0.24862 0.0
C794 C 0.11753 0.80803 0.24556 0.0
C795 C 0.1336 0.7964 0.26562 0.0
C796 C 0.13782 0.81092 0.28966 0.0
C797 C 0.126 0.83678 0.29344 0.0
C798 C 0.11062 0.84846 0.27234 0.0
H799 H 0.42614 0.78507 0.4434 0.0
H800 H 0.5057 0.82251 0.44727 0.0
H801 H 0.49073 0.8503 0.4861 0.0
H802 H 0.38684 0.8458 0.46328 0.0
H803 H 0.36309 0.82625 0.483 0.0
H804 H 0.3791 0.81136 0.45375 0.0
H805 H 0.39664 0.77175 0.48343 0.0
H806 H 0.38068 0.78651 0.51268 0.0
H807 H 0.41644 0.77917 0.51325 0.0
H808 H 0.46908 0.87001 0.52724 0.0
H809 H 0.44178 0.88106 0.5677 0.0
H810 H 0.37568 0.83203 0.5366 0.0
C811 C 0.44024 0.7995 0.45209 0.0
C812 C 0.46706 0.80175 0.44228 0.0
C813 C 0.48504 0.82056 0.45441 0.0
C814 C 0.4767 0.83646 0.47643 0.0
C815 C 0.45027 0.83344 0.4859 0.0
C816 C 0.43222 0.81556 0.47405 0.0
C817 C 0.40552 0.81497 0.48923 0.0
C818 C 0.38226 0.82521 0.47124 0.0
C819 C 0.39949 0.78641 0.5003 0.0
C820 C 0.41163 0.83477 0.5119 0.0
C821 C 0.43752 0.8453 0.50948 0.0
C822 C 0.44861 0.86231 0.5291 0.0
C823 C 0.43302 0.86841 0.55201 0.0
C824 C 0.40657 0.85766 0.55501 0.0
C825 C 0.39558 0.84106 0.53444 0.0
H826 H 0.46518 0.25544 0.71069 0.0
H827 H 0.44273 0.19679 0.64907 0.0
H828 H 0.41458 0.17239 0.68241 0.0
H829 H 0.47411 0.20846 0.76214 0.0
H830 H 0.46114 0.22936 0.78914 0.0
H831 H 0.47588 0.24488 0.75965 0.0
H832 H 0.43178 0.27223 0.75181 0.0
H833 H 0.41687 0.25677 0.78137 0.0
H834 H 0.39987 0.25458 0.7491 0.0
H835 H 0.39336 0.15164 0.72265 0.0
H836 H 0.38155 0.13453 0.768 0.0
H837 H 0.41811 0.20583 0.80454 0.0
C838 C 0.45371 0.23789 0.70412 0.0
C839 C 0.45582 0.22809 0.6773 0.0
C840 C 0.44123 0.20464 0.66953 0.0
C841 C 0.42509 0.19075 0.68826 0.0
C842 C 0.42384 0.20055 0.71471 0.0
C843 C 0.43774 0.22355 0.72272 0.0
C844 C 0.43524 0.22801 0.75305 0.0
C845 C 0.46325 0.22764 0.76679 0.0
C846 C 0.42003 0.25447 0.75919 0.0
C847 C 0.41848 0.20345 0.76089 0.0
C848 C 0.41179 0.18818 0.73834 0.0
C849 C 0.39812 0.16359 0.74044 0.0
C850 C 0.3916 0.154 0.76629 0.0
C851 C 0.39884 0.1689 0.78975 0.0
C852 C 0.41189 0.19426 0.78694 0.0
H853 H 0.0017 0.20411 0.958 0.0
H854 H 0.06126 0.18469 0.89636 0.0
H855 H 0.08407 0.15365 0.9283 0.0
H856 H 0.04679 0.20887 0.01071 0.0
H857 H 0.02482 0.19461 0.03618 0.0
H858 H 0.0105 0.21128 0.00717 0.0
H859 H 0.98278 0.16804 0.99587 0.0
H860 H 0.99715 0.15116 0.0249 0.0
H861 H 3e-05 0.13611 0.99172 0.0
H862 H 0.1038 0.13006 0.96824 0.0
H863 H 0.12018 0.11722 0.01368 0.0
H864 H 0.04787 0.15188 0.04963 0.0
C865 C 0.01911 0.19273 0.951 0.0
C866 C 0.02963 0.19657 0.92468 0.0
C867 C 0.05282 0.1819 0.91642 0.0
C868 C 0.0658 0.16412 0.93437 0.0
C869 C 0.05524 0.1612 0.96041 0.0
C870 C 0.03238 0.17507 0.96872 0.0
C871 C 0.02698 0.17085 0.99863 0.0
C872 C 0.02731 0.19801 0.01406 0.0
C873 C 0.00014 0.15563 0.00303 0.0
C874 C 0.051 0.15333 0.00613 0.0
C875 C 0.06676 0.14758 0.98367 0.0
C876 C 0.09136 0.13396 0.98588 0.0
C877 C 0.10052 0.12679 0.01176 0.0
C878 C 0.08517 0.13335 0.0351 0.0
C879 C 0.05969 0.14599 0.0321 0.0
H880 H 0.29329 0.07817 0.24301 0.0
H881 H 0.35082 0.09165 0.178 0.0
H882 H 0.31494 0.11357 0.15086 0.0
H883 H 0.24151 0.05744 0.20244 0.0
H884 H 0.21436 0.07262 0.22158 0.0
H885 H 0.24541 0.06355 0.23826 0.0
H886 H 0.25103 0.11285 0.25554 0.0
H887 H 0.21978 0.12209 0.23903 0.0
H888 H 0.25048 0.1405 0.23167 0.0
H889 H 0.27208 0.12747 0.12841 0.0
H890 H 0.22523 0.13163 0.11171 0.0
H891 H 0.19487 0.10798 0.1908 0.0
C892 C 0.29854 0.0867 0.22349 0.0
C893 C 0.32486 0.08364 0.21269 0.0
C894 C 0.33081 0.0941 0.18669 0.0
C895 C 0.31059 0.10664 0.1712 0.0
C896 C 0.28455 0.1085 0.18202 0.0
C897 C 0.27848 0.09892 0.20763 0.0
C898 C 0.24828 0.10014 0.21311 0.0
C899 C 0.23673 0.07175 0.21919 0.0
C900 C 0.24203 0.12009 0.23621 0.0
C901 C 0.2382 0.11082 0.18618 0.0
C902 C 0.25951 0.11602 0.16875 0.0
C903 C 0.25525 0.12393 0.14202 0.0
C904 C 0.22854 0.12611 0.13268 0.0
C905 C 0.20637 0.12016 0.14995 0.0
C906 C 0.21136 0.11306 0.17724 0.0
H907 H 0.19241 0.0744 0.42708 0.0
H908 H 0.16707 0.06355 0.51052 0.0
H909 H 0.14007 0.02362 0.49708 0.0
H910 H 0.12768 0.04784 0.39433 0.0
H911 H 0.14682 0.03167 0.36776 0.0
H912 H 0.15894 0.06279 0.3827 0.0
H913 H 0.20462 0.0395 0.39397 0.0
H914 H 0.19264 0.00841 0.37931 0.0
H915 H 0.2046 0.00883 0.41382 0.0
H916 H 0.12417 0.98037 0.47686 0.0
H917 H 0.11927 0.9378 0.45094 0.0
H918 H 0.1538 0.97693 0.38026 0.0
C919 C 0.18034 0.06422 0.44232 0.0
C920 C 0.18168 0.07209 0.46979 0.0
C921 C 0.16616 0.05794 0.48932 0.0
C922 C 0.15069 0.03528 0.48185 0.0
C923 C 0.15071 0.02731 0.45475 0.0
C924 C 0.16483 0.04157 0.43518 0.0
C925 C 0.16435 0.02692 0.4082 0.0
C926 C 0.14849 0.04328 0.387 0.0
C927 C 0.19326 0.02054 0.39828 0.0
C928 C 0.1492 0.00142 0.41606 0.0
C929 C 0.14106 0.00226 0.44287 0.0
C930 C 0.12971 0.97976 0.45565 0.0
C931 C 0.12714 0.95564 0.44084 0.0
C932 C 0.13588 0.95426 0.41356 0.0
C933 C 0.14627 0.97768 0.40086 0.0
H934 H 0.20157 0.94096 0.75828 0.0
H935 H 0.14137 0.93015 0.69511 0.0
H936 H 0.1754 0.90698 0.66666 0.0
H937 H 0.25341 0.95905 0.71632 0.0
H938 H 0.28011 0.94224 0.73468 0.0
H939 H 0.2501 0.95309 0.75221 0.0
H940 H 0.24198 0.90416 0.7695 0.0
H941 H 0.27222 0.89316 0.75222 0.0
H942 H 0.24033 0.87659 0.74555 0.0
H943 H 0.21715 0.89134 0.6427 0.0
H944 H 0.26333 0.88347 0.62528 0.0
H945 H 0.29652 0.90489 0.70396 0.0
C946 C 0.19531 0.93284 0.73886 0.0
C947 C 0.1688 0.93707 0.72896 0.0
C948 C 0.16154 0.92689 0.70313 0.0
C949 C 0.18071 0.91368 0.68686 0.0
C950 C 0.20699 0.91073 0.69679 0.0
C951 C 0.21425 0.9198 0.72231 0.0
C952 C 0.24443 0.9168 0.72705 0.0
C953 C 0.25778 0.94444 0.7329 0.0
C954 C 0.25006 0.89646 0.74994 0.0
C955 C 0.25315 0.90562 0.69986 0.0
C956 C 0.23121 0.9019 0.68282 0.0
C957 C 0.23443 0.8937 0.656 0.0
C958 C 0.26077 0.88942 0.64625 0.0
C959 C 0.28357 0.89351 0.66325 0.0
C960 C 0.27954 0.90126 0.69053 0.0
H961 H 0.30455 0.96394 0.98667 0.0
H962 H 0.32573 0.90515 0.92479 0.0
H963 H 0.35084 0.94061 0.89987 0.0
H964 H 0.29039 0.01632 0.94272 0.0
H965 H 0.30363 0.04309 0.9638 0.0
H966 H 0.29122 0.0124 0.97903 0.0
H967 H 0.33738 0.00546 0.00311 0.0
H968 H 0.34993 0.03628 0.98801 0.0
H969 H 0.3681 0.00495 0.98336 0.0
H970 H 0.36867 0.98309 0.87913 0.0
H971 H 0.37784 0.0297 0.86367 0.0
H972 H 0.34467 0.06124 0.93882 0.0
C973 C 0.31515 0.95836 0.96829 0.0
C974 C 0.31347 0.93178 0.95775 0.0
C975 C 0.32696 0.92538 0.93328 0.0
C976 C 0.34132 0.94535 0.91904 0.0
C977 C 0.34199 0.97157 0.92961 0.0
C978 C 0.32937 0.9781 0.95374 0.0
C979 C 0.33087 0.00828 0.95932 0.0
C980 C 0.30233 0.02074 0.96132 0.0
C981 C 0.34757 0.01408 0.98497 0.0
C982 C 0.34555 0.01782 0.93413 0.0
C983 C 0.35209 0.99626 0.91746 0.0
C984 C 0.36402 0.0001 0.89219 0.0
C985 C 0.36903 0.02667 0.88355 0.0
C986 C 0.36202 0.04911 0.90006 0.0
C987 C 0.35062 0.04451 0.92591 0.0
H988 H 0.29035 0.97871 0.25987 0.0
H989 H 0.34687 0.97564 0.32721 0.0
H990 H 0.31482 0.94707 0.35278 0.0
H991 H 0.23129 0.98521 0.30032 0.0
H992 H 0.21002 0.96477 0.27871 0.0
H993 H 0.23832 0.98293 0.26454 0.0
H994 H 0.25719 0.93807 0.24479 0.0
H995 H 0.22895 0.91974 0.25903 0.0
H996 H 0.26314 0.90973 0.26706 0.0
H997 H 0.2768 0.9208 0.37171 0.0
H998 H 0.23327 0.90049 0.38471 0.0
H999 H 0.19977 0.92128 0.30599 0.0
C1000 C 0.29606 0.97167 0.27985 0.0
C1001 C 0.32113 0.97915 0.29155 0.0
C1002 C 0.32777 0.97007 0.31791 0.0
C1003 C 0.30978 0.95373 0.33252 0.0
C1004 C 0.28518 0.94681 0.32053 0.0
C1005 C 0.27813 0.95558 0.2949 0.0
C1006 C 0.24956 0.94671 0.28765 0.0
C1007 C 0.23122 0.97137 0.28251 0.0
C1008 C 0.24973 0.92741 0.26318 0.0
C1009 C 0.24158 0.93194 0.3134 0.0
C1010 C 0.26265 0.93201 0.33186 0.0
C1011 C 0.26016 0.9205 0.35742 0.0
C1012 C 0.23528 0.90905 0.36461 0.0
C1013 C 0.21303 0.90935 0.34641 0.0
C1014 C 0.21644 0.92053 0.32025 0.0
H1015 H 0.28465 0.03521 0.5066 0.0
H1016 H 0.30812 0.09812 0.56351 0.0
H1017 H 0.33496 0.06479 0.5893 0.0
H1018 H 0.27422 0.98492 0.55461 0.0
H1019 H 0.28704 0.95734 0.53436 0.0
H1020 H 0.27289 0.98672 0.51814 0.0
H1021 H 0.31741 0.99344 0.49109 0.0
H1022 H 0.33173 0.96401 0.50727 0.0
H1023 H 0.34915 0.9961 0.509 0.0
H1024 H 0.35473 0.02443 0.61157 0.0
H1025 H 0.36562 0.97915 0.62961 0.0
H1026 H 0.32965 0.94192 0.55843 0.0
C1027 C 0.29596 0.04205 0.52414 0.0
C1028 C 0.29449 0.06923 0.53302 0.0
C1029 C 0.30906 0.07738 0.55635 0.0
C1030 C 0.32446 0.05864 0.57104 0.0
C1031 C 0.32512 0.03188 0.56205 0.0
C1032 C 0.31133 0.02354 0.53912 0.0
C1033 C 0.31344 0.99313 0.53528 0.0
C1034 C 0.28523 0.97975 0.53563 0.0
C1035 C 0.32886 0.98627 0.5091 0.0
C1036 C 0.3298 0.98559 0.56012 0.0
C1037 C 0.33662 0.00833 0.57506 0.0
C1038 C 0.3499 0.00649 0.59987 0.0
C1039 C 0.3559 0.9807 0.60999 0.0
C1040 C 0.34859 0.9571 0.59534 0.0
C1041 C 0.33594 0.95964 0.5698 0.0
H1042 H 0.18517 0.03977 0.82911 0.0
H1043 H 0.18672 0.06286 0.74427 0.0
H1044 H 0.22719 0.09099 0.75261 0.0
H1045 H 0.20899 0.10573 0.85627 0.0
H1046 H 0.22906 0.0899 0.88233 0.0
H1047 H 0.1986 0.07363 0.87032 0.0
H1048 H 0.22608 0.03033 0.85899 0.0
H1049 H 0.25655 0.04646 0.87092 0.0
H1050 H 0.25518 0.03284 0.83704 0.0
H1051 H 0.27014 0.11237 0.7688 0.0
H1052 H 0.31196 0.12679 0.7924 0.0
H1053 H 0.28178 0.09134 0.867 0.0
C1054 C 0.19375 0.05116 0.81243 0.0
C1055 C 0.18279 0.04919 0.78606 0.0
C1056 C 0.19475 0.06413 0.76466 0.0
C1057 C 0.21771 0.08022 0.76919 0.0
C1058 C 0.22833 0.08137 0.79529 0.0
C1059 C 0.21665 0.06745 0.81663 0.0
C1060 C 0.23297 0.071 0.84238 0.0
C1061 C 0.21641 0.08596 0.86411 0.0
C1062 C 0.24331 0.04353 0.85294 0.0
C1063 C 0.25601 0.08845 0.83198 0.0
C1064 C 0.25288 0.09431 0.8048 0.0
C1065 C 0.2726 0.10836 0.79022 0.0
C1066 C 0.29629 0.11639 0.80374 0.0
C1067 C 0.29993 0.11047 0.83156 0.0
C1068 C 0.27928 0.09671 0.84587 0.0
H1069 H 0.2039 0.95927 -0.00025 0.0
H1070 H 0.19676 0.90199 0.06604 0.0
H1071 H 0.17148 0.93601 0.09265 0.0
H1072 H 0.21784 0.01512 0.03922 0.0
H1073 H 0.1992 0.03922 0.01912 0.0
H1074 H 0.21273 0.0092 0.00353 0.0
H1075 H 0.16487 0.99617 0.98616 0.0
H1076 H 0.15118 0.02634 0.00156 0.0
H1077 H 0.13719 0.99361 0.00986 0.0
H1078 H 0.15233 0.97754 0.11398 0.0
H1079 H 0.14002 0.0237 0.12859 0.0
H1080 H 0.15977 0.05429 0.0485 0.0
C1081 C 0.19632 0.95364 0.01956 0.0
C1082 C 0.20206 0.92797 0.03081 0.0
C1083 C 0.19241 0.92152 0.05703 0.0
C1084 C 0.17799 0.94067 0.07224 0.0
C1085 C 0.17333 0.96609 0.06087 0.0
C1086 C 0.18203 0.97257 0.03505 0.0
C1087 C 0.17665 0.00208 0.02854 0.0
C1088 C 0.20318 0.01728 0.02225 0.0
C1089 C 0.15625 0.00469 0.00515 0.0
C1090 C 0.16441 0.0114 0.05507 0.0
C1091 C 0.16237 0.99024 0.07331 0.0
C1092 C 0.15343 0.99419 0.09976 0.0
C1093 C 0.14663 0.02052 0.1079 0.0
C1094 C 0.14892 0.04259 0.08968 0.0
C1095 C 0.15749 0.0378 0.06279 0.0
H1096 H 0.23449 0.2968 0.04706 0.0
H1097 H 0.16464 0.35011 0.04829 0.0
H1098 H 0.13762 0.31406 0.07025 0.0
H1099 H 0.19961 0.23906 0.0283 0.0
H1100 H 0.21929 0.21578 0.04839 0.0
H1101 H 0.23429 0.24691 0.03677 0.0
H1102 H 0.24643 0.25997 0.08619 0.0
H1103 H 0.23162 0.22871 0.09799 0.0
H1104 H 0.22019 0.26063 0.1116 0.0
H1105 H 0.11714 0.271 0.0873 0.0
H1106 H 0.10437 0.22398 0.09828 0.0
H1107 H 0.18756 0.19843 0.08513 0.0
C1108 C 0.21372 0.30114 0.05263 0.0
C1109 C 0.20166 0.32627 0.04624 0.0
C1110 C 0.17426 0.33102 0.05322 0.0
C1111 C 0.15881 0.31071 0.06572 0.0
C1112 C 0.17112 0.28587 0.0711 0.0
C1113 C 0.198 0.28105 0.0649 0.0
C1114 C 0.20571 0.25188 0.07047 0.0
C1115 C 0.21527 0.23758 0.04443 0.0
C1116 C 0.22726 0.25021 0.0929 0.0
C1117 C 0.17877 0.24084 0.08006 0.0
C1118 C 0.15918 0.26084 0.0806 0.0
C1119 C 0.13237 0.25523 0.0873 0.0
C1120 C 0.12531 0.22841 0.09338 0.0
C1121 C 0.14496 0.20748 0.09254 0.0
C1122 C 0.17211 0.21397 0.08617 0.0
H1123 H 0.68128 0.18489 0.97555 0.0
H1124 H 0.76683 0.19325 0.95694 0.0
H1125 H 0.75662 0.23234 0.92745 0.0
H1126 H 0.65613 0.2042 0.90764 0.0
H1127 H 0.6274 0.22208 0.92137 0.0
H1128 H 0.6412 0.19335 0.93917 0.0
H1129 H 0.64726 0.22296 0.98219 0.0
H1130 H 0.63353 0.25169 0.9645 0.0
H1131 H 0.6665 0.25398 0.98007 0.0
H1132 H 0.73782 0.27367 0.90465 0.0
H1133 H 0.71122 0.3128 0.88805 0.0
H1134 H 0.63778 0.27589 0.91928 0.0
C1135 C 0.69779 0.19468 0.96491 0.0
C1136 C 0.72484 0.18608 0.96848 0.0
C1137 C 0.74595 0.19947 0.95438 0.0
C1138 C 0.74035 0.22167 0.93758 0.0
C1139 C 0.71351 0.22995 0.93483 0.0
C1140 C 0.69253 0.21668 0.94785 0.0
C1141 C 0.66561 0.23032 0.94238 0.0
C1142 C 0.64646 0.21135 0.9267 0.0
C1143 C 0.65247 0.24033 0.96886 0.0
C1144 C 0.67486 0.25377 0.9249 0.0
C1145 C 0.70256 0.2532 0.92075 0.0
C1146 C 0.71605 0.27404 0.90724 0.0
C1147 C 0.70084 0.29617 0.89795 0.0
C1148 C 0.67247 0.29705 0.90199 0.0
C1149 C 0.65935 0.27535 0.91524 0.0
H1150 H 0.0698 0.42955 0.21031 0.0
H1151 H 0.06812 0.51022 0.17544 0.0
H1152 H 0.03114 0.49609 0.14482 0.0
H1153 H 0.05101 0.39151 0.14667 0.0
H1154 H 0.03042 0.36787 0.16544 0.0
H1155 H 0.06002 0.38272 0.18096 0.0
H1156 H 0.0305 0.40002 0.2208 0.0
H1157 H 0.00092 0.38532 0.20543 0.0
H1158 H 0.00139 0.42091 0.21371 0.0
H1159 H 0.98985 0.47602 0.12405 0.0
H1160 H 0.94744 0.45121 0.11427 0.0
H1161 H 0.9763 0.38305 0.16153 0.0
C1162 C 0.06222 0.44397 0.19563 0.0
C1163 C 0.07189 0.47092 0.1951 0.0
C1164 C 0.06108 0.48942 0.17606 0.0
C1165 C 0.04016 0.48154 0.15851 0.0
C1166 C 0.03048 0.45503 0.1601 0.0
C1167 C 0.04132 0.43643 0.178 0.0
C1168 C 0.02535 0.41017 0.17779 0.0
C1169 C 0.04274 0.38668 0.16707 0.0
C1170 C 0.01386 0.40375 0.2061 0.0
C1171 C 0.00309 0.41738 0.15796 0.0
C1172 C 0.00666 0.44321 0.14767 0.0
C1173 C 0.98717 0.45552 0.13138 0.0
C1174 C 0.96314 0.44134 0.126 0.0
C1175 C 0.95887 0.41512 0.13682 0.0
C1176 C 0.97944 0.40274 0.15233 0.0
H1177 H 0.74938 0.79779 0.44747 0.0
H1178 H 0.80705 0.85982 0.42383 0.0
H1179 H 0.83002 0.82695 0.39386 0.0
H1180 H 0.79585 0.74723 0.45453 0.0
H1181 H 0.77473 0.72007 0.44215 0.0
H1182 H 0.75947 0.74953 0.45712 0.0
H1183 H 0.73103 0.7571 0.41361 0.0
H1184 H 0.74623 0.72751 0.39847 0.0
H1185 H 0.74786 0.7597 0.3813 0.0
H1186 H 0.85046 0.78642 0.37211 0.0
H1187 H 0.86804 0.7409 0.3615 0.0
H1188 H 0.7976 0.70474 0.39994 0.0
C1189 C 0.76628 0.80466 0.43526 0.0
C1190 C 0.77631 0.83135 0.43764 0.0
C1191 C 0.79898 0.83946 0.42208 0.0
C1192 C 0.81204 0.82098 0.40492 0.0
C1193 C 0.80214 0.79454 0.40358 0.0
C1194 C 0.77972 0.78637 0.41829 0.0
C1195 C 0.77532 0.75606 0.41606 0.0
C1196 C 0.77643 0.74244 0.44412 0.0
C1197 C 0.74852 0.74973 0.40148 0.0
C1198 C 0.79943 0.74829 0.39878 0.0
C1199 C 0.8143 0.77085 0.39132 0.0
C1200 C 0.83873 0.76863 0.37738 0.0
C1201 C 0.84859 0.74267 0.37153 0.0
C1202 C 0.83417 0.71925 0.37983 0.0
C1203 C 0.80888 0.72222 0.39291 0.0
H1204 H 0.933 0.0593 0.20689 0.0
H1205 H 0.94377 0.97749 0.17629 0.0
H1206 H 0.98312 0.99267 0.14957 0.0
H1207 H 0.9546 0.0949 0.14386 0.0
H1208 H 0.97166 0.12132 0.16252 0.0
H1209 H 0.94235 0.10483 0.17682 0.0
H1210 H 0.97022 0.09252 0.21958 0.0
H1211 H -0.00041 0.10882 0.20539 0.0
H1212 H 0.0014 0.07388 0.21586 0.0
H1213 H 0.02437 0.01483 0.13119 0.0
H1214 H 0.0639 0.04355 0.12016 0.0
H1215 H 0.02597 0.11161 0.16086 0.0
C1216 C 0.94326 0.04476 0.19405 0.0
C1217 C 0.9353 0.01724 0.19357 0.0
C1218 C 0.94948 0.99869 0.17689 0.0
C1219 C 0.97183 0.00712 0.1616 0.0
C1220 C 0.97961 0.03422 0.163 0.0
C1221 C 0.96564 0.05288 0.17855 0.0
C1222 C 0.97935 0.0804 0.17779 0.0
C1223 C 0.96088 0.10161 0.16444 0.0
C1224 C 0.98816 0.08942 0.20634 0.0
C1225 C 0.0036 0.07403 0.16006 0.0
C1226 C 0.00327 0.04728 0.15169 0.0
C1227 C 0.02461 0.03596 0.13711 0.0
C1228 C 0.04699 0.05235 0.13105 0.0
C1229 C 0.04772 0.0798 0.13937 0.0
C1230 C 0.02556 0.09085 0.1537 0.0
H1231 H 0.3231 0.67952 0.55194 0.0
H1232 H 0.24173 0.68183 0.58518 0.0
H1233 H 0.25435 0.72141 0.61309 0.0
H1234 H 0.35933 0.70392 0.61459 0.0
H1235 H 0.38291 0.72364 0.59483 0.0
H1236 H 0.36904 0.69265 0.58122 0.0
H1237 H 0.35199 0.71887 0.53903 0.0
H1238 H 0.36566 0.74984 0.55256 0.0
H1239 H 0.33029 0.74789 0.54361 0.0
H1240 H 0.27294 0.76451 0.631 0.0
H1241 H 0.29694 0.80772 0.63911 0.0
H1242 H 0.36681 0.7773 0.59541 0.0
C1243 C 0.30822 0.68783 0.56576 0.0
C1244 C 0.2815 0.67756 0.56658 0.0
C1245 C 0.26236 0.68932 0.58439 0.0
C1246 C 0.26937 0.71175 0.60037 0.0
C1247 C 0.29564 0.72197 0.59844 0.0
C1248 C 0.31489 0.71026 0.5818 0.0
C1249 C 0.34078 0.72681 0.58135 0.0
C1250 C 0.36441 0.71079 0.59374 0.0
C1251 C 0.34755 0.73642 0.55243 0.0
C1252 C 0.33265 0.75028 0.59937 0.0
C1253 C 0.30663 0.74689 0.60927 0.0
C1254 C 0.29356 0.76711 0.62398 0.0
C1255 C 0.30726 0.79159 0.62837 0.0
C1256 C 0.33377 0.79555 0.61817 0.0
C1257 C 0.34683 0.77442 0.60404 0.0
H1258 H 0.03425 0.51071 0.30054 0.0
H1259 H 0.09398 0.57424 0.31267 0.0
H1260 H 0.05976 0.60196 0.33627 0.0
H1261 H 0.98069 0.55342 0.28464 0.0
H1262 H 0.95484 0.53385 0.30148 0.0
H1263 H 0.98479 0.51736 0.28893 0.0
H1264 H 0.99447 0.49813 0.33682 0.0
H1265 H 0.96444 0.51459 0.34954 0.0
H1266 H 0.99681 0.52097 0.36527 0.0
H1267 H 0.01851 0.62474 0.35362 0.0
H1268 H 0.9725 0.64139 0.36364 0.0
H1269 H 0.93911 0.5632 0.34073 0.0
C1270 C 0.04024 0.53019 0.30874 0.0
C1271 C 0.06676 0.54031 0.30496 0.0
C1272 C 0.07377 0.5661 0.31545 0.0
C1273 C 0.05452 0.58194 0.32897 0.0
C1274 C 0.0284 0.57163 0.33191 0.0
C1275 C 0.02121 0.54633 0.32221 0.0
C1276 C 0.99119 0.54105 0.32604 0.0
C1277 C 0.97706 0.53614 0.29864 0.0
C1278 C 0.98646 0.51727 0.34559 0.0
C1279 C 0.9825 0.56768 0.3386 0.0
C1280 C 0.00437 0.58489 0.34208 0.0
C1281 C 0.00127 0.61133 0.35142 0.0
C1282 C 0.97506 0.62063 0.35695 0.0
C1283 C 0.9523 0.60353 0.3531 0.0
C1284 C 0.95618 0.57654 0.34434 0.0
H1285 H 0.45654 0.48669 0.8125 0.0
H1286 H 0.4037 0.41652 0.80733 0.0
H1287 H 0.43915 0.38834 0.8286 0.0
H1288 H 0.51465 0.45395 0.79316 0.0
H1289 H 0.5374 0.47212 0.81528 0.0
H1290 H 0.50648 0.48782 0.80418 0.0
H1291 H 0.4922 0.49593 0.85406 0.0
H1292 H 0.5233 0.4805 0.86537 0.0
H1293 H 0.49119 0.46777 0.8773 0.0
H1294 H 0.48215 0.36677 0.84458 0.0
H1295 H 0.52911 0.35356 0.85541 0.0
H1296 H 0.55411 0.43782 0.84973 0.0
C1297 C 0.4521 0.46559 0.81668 0.0
C1298 C 0.42732 0.4538 0.80853 0.0
C1299 C 0.42249 0.42597 0.81364 0.0
C1300 C 0.4425 0.40983 0.82571 0.0
C1301 C 0.46712 0.42187 0.83263 0.0
C1302 C 0.4719 0.44919 0.82854 0.0
C1303 C 0.5009 0.45663 0.83537 0.0
C1304 C 0.51572 0.4683 0.81051 0.0
C1305 C 0.50195 0.47637 0.85946 0.0
C1306 C 0.51192 0.42908 0.84307 0.0
C1307 C 0.49205 0.40936 0.84166 0.0
C1308 C 0.49779 0.3821 0.84618 0.0
C1309 C 0.52457 0.37478 0.85218 0.0
C1310 C 0.54532 0.39464 0.85347 0.0
C1311 C 0.53871 0.42217 0.84917 0.0
H1312 H 0.93136 0.77924 0.70612 0.0
H1313 H 0.9427 0.85458 0.66236 0.0
H1314 H 0.92037 0.87959 0.69957 0.0
H1315 H 0.86599 0.79655 0.73982 0.0
H1316 H 0.87587 0.7803 0.77098 0.0
H1317 H 0.88841 0.76774 0.73904 0.0
H1318 H 0.93772 0.77289 0.75644 0.0
H1319 H 0.92537 0.78555 0.7883 0.0
H1320 H 0.94909 0.80537 0.76882 0.0
H1321 H 0.90094 0.89676 0.74269 0.0
H1322 H 0.88801 0.90567 0.78999 0.0
H1323 H 0.89144 0.81935 0.80714 0.0
C1324 C 0.92834 0.80088 0.70408 0.0
C1325 C 0.93825 0.81503 0.6813 0.0
C1326 C 0.93494 0.84345 0.67962 0.0
C1327 C 0.92221 0.85776 0.70056 0.0
C1328 C 0.91318 0.84333 0.72309 0.0
C1329 C 0.91615 0.81553 0.72506 0.0
C1330 C 0.90761 0.80537 0.75275 0.0
C1331 C 0.883 0.78637 0.7505 0.0
C1332 C 0.93136 0.79149 0.76743 0.0
C1333 C 0.90004 0.83188 0.76624 0.0
C1334 C 0.90291 0.85342 0.74858 0.0
C1335 C 0.89835 0.88005 0.75665 0.0
C1336 C 0.89107 0.88488 0.78363 0.0
C1337 C 0.88877 0.86322 0.80237 0.0
C1338 C 0.89289 0.83634 0.79332 0.0
H1339 H 0.93322 0.19488 0.42677 0.0
H1340 H 0.01685 0.16982 0.43692 0.0
H1341 H 0.00445 0.14542 0.47871 0.0
H1342 H 0.92112 0.20988 0.49295 0.0
H1343 H 0.88669 0.19769 0.49423 0.0
H1344 H 0.90079 0.2089 0.46259 0.0
H1345 H 0.88948 0.16251 0.4406 0.0
H1346 H 0.87499 0.15121 0.47217 0.0
H1347 H 0.90147 0.13176 0.45623 0.0
H1348 H 0.98488 0.13085 0.52299 0.0
H1349 H 0.95861 0.12428 0.56512 0.0
H1350 H 0.88742 0.15756 0.52573 0.0
C1351 C 0.94872 0.18345 0.43727 0.0
C1352 C 0.97595 0.18411 0.42856 0.0
C1353 C 0.99581 0.16943 0.44316 0.0
C1354 C 0.98897 0.15549 0.46692 0.0
C1355 C 0.96212 0.15616 0.4756 0.0
C1356 C 0.9422 0.16938 0.46101 0.0
C1357 C 0.91542 0.1691 0.476 0.0
C1358 C 0.90544 0.19811 0.48178 0.0
C1359 C 0.89408 0.15266 0.46032 0.0
C1360 C 0.92372 0.15476 0.5018 0.0
C1361 C 0.95068 0.14723 0.50108 0.0
C1362 C 0.96359 0.13603 0.52356 0.0
C1363 C 0.94858 0.13254 0.54743 0.0
C1364 C 0.92095 0.14017 0.54857 0.0
C1365 C 0.90835 0.151 0.52528 0.0
H1366 H 0.5432 0.17818 0.18714 0.0
H1367 H 0.57563 0.26 0.18673 0.0
H1368 H 0.61032 0.24651 0.22 0.0
H1369 H 0.5477 0.16804 0.25568 0.0
H1370 H 0.55722 0.1328 0.254 0.0
H1371 H 0.53806 0.14766 0.22688 0.0
H1372 H 0.57504 0.13239 0.19276 0.0
H1373 H 0.59437 0.11775 0.22009 0.0
H1374 H 0.60975 0.14253 0.19808 0.0
H1375 H 0.63635 0.22673 0.25777 0.0
H1376 H 0.65076 0.20231 0.29893 0.0
H1377 H 0.60266 0.13281 0.27458 0.0
C1378 C 0.55801 0.19305 0.19362 0.0
C1379 C 0.55683 0.22009 0.18437 0.0
C1380 C 0.57622 0.23915 0.19357 0.0
C1381 C 0.59614 0.23163 0.21229 0.0
C1382 C 0.59654 0.20492 0.22137 0.0
C1383 C 0.57805 0.18587 0.21232 0.0
C1384 C 0.58101 0.15938 0.2275 0.0
C1385 C 0.55442 0.15155 0.24186 0.0
C1386 C 0.59062 0.13667 0.20847 0.0
C1387 C 0.60294 0.16706 0.24757 0.0
C1388 C 0.61205 0.19323 0.24325 0.0
C1389 C 0.62994 0.20599 0.261 0.0
C1390 C 0.63797 0.19202 0.28431 0.0
C1391 C 0.62807 0.16563 0.28961 0.0
C1392 C 0.61116 0.15265 0.27052 0.0
H1393 H 0.55759 0.79349 0.93678 0.0
H1394 H 0.47233 0.80955 0.95108 0.0
H1395 H 0.48406 0.83528 0.99229 0.0
H1396 H 0.5746 0.78113 0.00374 0.0
H1397 H 0.60753 0.79696 0.00262 0.0
H1398 H 0.59296 0.78308 0.97221 0.0
H1399 H 0.59816 0.82954 0.94828 0.0
H1400 H 0.61289 0.84358 0.97866 0.0
H1401 H 0.58364 0.85939 0.96356 0.0
H1402 H 0.50416 0.85414 0.03454 0.0
H1403 H 0.53166 0.86583 0.0747 0.0
H1404 H 0.60403 0.83838 0.03295 0.0
C1405 C 0.54148 0.80303 0.94823 0.0
C1406 C 0.51408 0.79967 0.94071 0.0
C1407 C 0.49349 0.81197 0.95646 0.0
C1408 C 0.49993 0.82669 0.97985 0.0
C1409 C 0.52709 0.82909 0.98713 0.0
C1410 C 0.54758 0.8178 0.97172 0.0
C1411 C 0.57491 0.82157 0.98522 0.0
C1412 C 0.58827 0.79405 0.99131 0.0
C1413 C 0.59349 0.8396 0.9679 0.0
C1414 C 0.56643 0.83591 0.01101 0.0
C1415 C 0.53878 0.84027 0.01158 0.0
C1416 C 0.5259 0.85129 0.03416 0.0
C1417 C 0.54165 0.85776 0.0569 0.0
C1418 C 0.56998 0.8532 0.05686 0.0
C1419 C 0.5825 0.84258 0.03339 0.0
H1420 H 0.95009 0.25005 0.78943 0.0
H1421 H 0.92586 0.19174 0.85057 0.0
H1422 H 0.89895 0.167 0.81631 0.0
H1423 H 0.88596 0.24827 0.74845 0.0
H1424 H 0.90445 0.25065 0.71705 0.0
H1425 H 0.91759 0.26656 0.74723 0.0
H1426 H 0.96259 0.24013 0.74156 0.0
H1427 H 0.94961 0.22412 0.71152 0.0
H1428 H 0.96172 0.20366 0.73922 0.0
H1429 H 0.88025 0.14532 0.77488 0.0
H1430 H 0.87178 0.12752 0.72897 0.0
H1431 H 0.90855 0.19959 0.69435 0.0
C1432 C 0.93842 0.23256 0.79576 0.0
C1433 C 0.93978 0.22289 0.82264 0.0
C1434 C 0.9249 0.19953 0.83007 0.0
C1435 C 0.90948 0.18544 0.8108 0.0
C1436 C 0.90914 0.19506 0.78426 0.0
C1437 C 0.92313 0.21815 0.77672 0.0
C1438 C 0.92203 0.22242 0.74634 0.0
C1439 C 0.90658 0.24853 0.73936 0.0
C1440 C 0.95068 0.22258 0.73395 0.0
C1441 C 0.90619 0.19752 0.73786 0.0
C1442 C 0.89853 0.18229 0.76009 0.0
C1443 C 0.8857 0.15729 0.75733 0.0
C1444 C 0.8811 0.1473 0.73117 0.0
C1445 C 0.88945 0.1622 0.7081 0.0
C1446 C 0.90152 0.18795 0.71157 0.0
H1447 H 0.58016 0.22365 0.56439 0.0
H1448 H 0.49861 0.19142 0.55666 0.0
H1449 H 0.51267 0.16535 0.5164 0.0
H1450 H 0.5916 0.2336 0.49558 0.0
H1451 H 0.6268 0.22393 0.49594 0.0
H1452 H 0.61141 0.23754 0.52604 0.0
H1453 H 0.62578 0.19486 0.55303 0.0
H1454 H 0.64138 0.18114 0.52298 0.0
H1455 H 0.61611 0.16175 0.54087 0.0
H1456 H 0.53362 0.14757 0.47424 0.0
H1457 H 0.56103 0.13732 0.43365 0.0
H1458 H 0.62953 0.17962 0.46918 0.0
C1459 C 0.56545 0.21062 0.55457 0.0
C1460 C 0.53833 0.20945 0.56365 0.0
C1461 C 0.51952 0.19252 0.55007 0.0
C1462 C 0.52732 0.17761 0.52723 0.0
C1463 C 0.55403 0.17968 0.51839 0.0
C1464 C 0.57292 0.19553 0.53175 0.0
C1465 C 0.59986 0.19552 0.51701 0.0
C1466 C 0.60787 0.22435 0.50812 0.0
C1467 C 0.6221 0.18254 0.53452 0.0
C1468 C 0.5929 0.17783 0.4929 0.0
C1469 C 0.56638 0.16883 0.49418 0.0
C1470 C 0.55456 0.15403 0.47323 0.0
C1471 C 0.57021 0.14843 0.45024 0.0
C1472 C 0.59739 0.15746 0.44851 0.0
C1473 C 0.60897 0.17198 0.4703 0.0
H1474 H 0.53509 0.81991 0.32773 0.0
H1475 H 0.5736 0.74092 0.32534 0.0
H1476 H 0.60191 0.75585 0.28703 0.0
H1477 H 0.52929 0.8281 0.25888 0.0
H1478 H 0.53626 0.86397 0.25815 0.0
H1479 H 0.52218 0.84883 0.28813 0.0
H1480 H 0.56207 0.86773 0.31665 0.0
H1481 H 0.57627 0.88305 0.28667 0.0
H1482 H 0.59642 0.8602 0.30678 0.0
H1483 H 0.62032 0.77621 0.24495 0.0
H1484 H 0.62888 0.80159 0.20265 0.0
H1485 H 0.58025 0.86825 0.23275 0.0
C1486 C 0.55005 0.80606 0.31963 0.0
C1487 C 0.55226 0.7793 0.32957 0.0
C1488 C 0.57165 0.76155 0.31811 0.0
C1489 C 0.5879 0.76987 0.29639 0.0
C1490 C 0.58473 0.79611 0.28653 0.0
C1491 C 0.56651 0.81409 0.29792 0.0
C1492 C 0.56537 0.84029 0.28192 0.0
C1493 C 0.53657 0.84559 0.27113 0.0
C1494 C 0.57565 0.86423 0.29903 0.0
C1495 C 0.5849 0.83375 0.25914 0.0
C1496 C 0.59604 0.80825 0.26236 0.0
C1497 C 0.61234 0.79649 0.24253 0.0
C1498 C 0.61703 0.81097 0.21858 0.0
C1499 C 0.60564 0.83699 0.21478 0.0
C1500 C 0.5899 0.84874 0.23558 0.0
H1501 H 0.00031 0.80151 0.04304 0.0
H1502 H 0.93848 0.80767 0.10523 0.0
H1503 H 0.90826 0.83085 0.07286 0.0
H1504 H 0.98467 0.86686 0.00794 0.0
H1505 H 0.99092 0.85233 0.975 0.0
H1506 H 0.00924 0.84011 0.00413 0.0
H1507 H 0.99293 0.79125 0.99369 0.0
H1508 H 0.97438 0.80331 0.96474 0.0
H1509 H 0.95711 0.78449 0.99086 0.0
H1510 H 0.88292 0.84781 0.03288 0.0
H1511 H 0.86422 0.85871 0.98791 0.0
H1512 H 0.94232 0.84149 0.95121 0.0
C1513 C 0.98072 0.80848 0.05004 0.0
C1514 C 0.97175 0.80303 0.07665 0.0
C1515 C 0.94575 0.81182 0.08494 0.0
C1516 C 0.92849 0.82503 0.06673 0.0
C1517 C 0.9376 0.82936 0.04037 0.0
C1518 C 0.96317 0.82157 0.03205 0.0
C1519 C 0.96706 0.82644 0.00198 0.0
C1520 C 0.98929 0.84771 0.99697 0.0
C1521 C 0.97322 0.79979 0.98695 0.0
C1522 C 0.93936 0.83732 0.99456 0.0
C1523 C 0.92281 0.83911 0.01708 0.0
C1524 C 0.89579 0.8469 0.01514 0.0
C1525 C 0.88532 0.85287 0.98948 0.0
C1526 C 0.90182 0.85095 0.96606 0.0
C1527 C 0.9293 0.84343 0.96877 0.0
H1528 H 0.70841 0.94825 0.75845 0.0
H1529 H 0.64487 0.93131 0.81674 0.0
H1530 H 0.67795 0.90778 0.84597 0.0
H1531 H 0.74907 0.88496 0.76976 0.0
H1532 H 0.78061 0.90314 0.76639 0.0
H1533 H 0.75113 0.91411 0.74783 0.0
H1534 H 0.75601 0.96205 0.7688 0.0
H1535 H 0.78525 0.9512 0.78761 0.0
H1536 H 0.75671 0.96573 0.80515 0.0
H1537 H 0.71851 0.89168 0.87139 0.0
H1538 H 0.76368 0.8838 0.89121 0.0
H1539 H 0.80116 0.91218 0.81679 0.0
C1540 C 0.70132 0.93873 0.77691 0.0
C1541 C 0.67409 0.94126 0.78526 0.0
C1542 C 0.66564 0.92936 0.80994 0.0
C1543 C 0.68426 0.91593 0.82661 0.0
C1544 C 0.7112 0.9146 0.81828 0.0
C1545 C 0.71972 0.92552 0.79392 0.0
C1546 C 0.75024 0.92398 0.79108 0.0
C1547 C 0.75823 0.90543 0.76736 0.0
C1548 C 0.76277 0.95243 0.78799 0.0
C1549 C 0.75761 0.91137 0.81804 0.0
C1550 C 0.73478 0.90573 0.83324 0.0
C1551 C 0.73653 0.89562 0.85953 0.0
C1552 C 0.7623 0.89134 0.87065 0.0
C1553 C 0.786 0.89739 0.85559 0.0
C1554 C 0.78348 0.90715 0.82879 0.0
H1555 H 0.7978 0.96411 0.50578 0.0
H1556 H 0.81526 0.90356 0.56703 0.0
H1557 H 0.84335 0.93691 0.5918 0.0
H1558 H 0.86462 4e-05 0.50867 0.0
H1559 H 0.84882 0.03266 0.50419 0.0
H1560 H 0.83394 0.00288 0.48904 0.0
H1561 H 0.78852 0.01318 0.5133 0.0
H1562 H 0.80323 0.04286 0.52854 0.0
H1563 H 0.78814 0.01712 0.54963 0.0
H1564 H 0.86389 0.97805 0.61287 0.0
H1565 H 0.8753 0.024 0.62898 0.0
H1566 H 0.84467 0.05793 0.55389 0.0
C1567 C 0.80814 0.95765 0.52402 0.0
C1568 C 0.80454 0.93124 0.53445 0.0
C1569 C 0.81792 0.92367 0.55864 0.0
C1570 C 0.83397 0.94243 0.57277 0.0
C1571 C 0.83655 0.96856 0.56229 0.0
C1572 C 0.82414 0.97613 0.53836 0.0
C1573 C 0.82784 0.00611 0.53286 0.0
C1574 C 0.84482 0.01068 0.50716 0.0
C1575 C 0.8003 0.02066 0.53099 0.0
C1576 C 0.84331 0.01448 0.558 0.0
C1577 C 0.84849 0.99243 0.5745 0.0
C1578 C 0.86041 0.99538 0.5999 0.0
C1579 C 0.86671 0.02157 0.60891 0.0
C1580 C 0.86099 0.04449 0.59261 0.0
C1581 C 0.84977 0.04076 0.56655 0.0
H1582 H 0.80121 0.04684 0.25774 0.0
H1583 H 0.85657 0.04437 0.32598 0.0
H1584 H 0.82453 0.07173 0.353 0.0
H1585 H 0.77374 0.11593 0.27021 0.0
H1586 H 0.73995 0.10598 0.26045 0.0
H1587 H 0.76886 0.08967 0.24524 0.0
H1588 H 0.75028 0.04283 0.26014 0.0
H1589 H 0.72142 0.05896 0.27544 0.0
H1590 H 0.74269 0.037 0.29539 0.0
H1591 H 0.78489 0.09521 0.37392 0.0
H1592 H 0.74001 0.11221 0.38773 0.0
H1593 H 0.7099 0.09863 0.30612 0.0
C1594 C 0.80688 0.0527 0.27812 0.0
C1595 C 0.83145 0.04378 0.28973 0.0
C1596 C 0.83789 0.05118 0.31669 0.0
C1597 C 0.81987 0.06677 0.33215 0.0
C1598 C 0.79552 0.07476 0.32032 0.0
C1599 C 0.78899 0.06802 0.29391 0.0
C1600 C 0.76047 0.07691 0.28689 0.0
C1601 C 0.76078 0.09841 0.26436 0.0
C1602 C 0.74268 0.05247 0.27901 0.0
C1603 C 0.75172 0.08903 0.31369 0.0
C1604 C 0.77237 0.08793 0.33258 0.0
C1605 C 0.76866 0.09649 0.35922 0.0
C1606 C 0.74305 0.10606 0.36688 0.0
C1607 C 0.72138 0.10679 0.34803 0.0
C1608 C 0.72606 0.09859 0.32097 0.0
H1609 H 0.69628 0.06978 0.08996 0.0
H1610 H 0.66706 0.0687 0.00704 0.0
H1611 H 0.63893 0.02862 0.01745 0.0
H1612 H 0.70448 0.00122 0.09649 0.0
H1613 H 0.69372 0.99887 0.13131 0.0
H1614 H 0.70791 0.03 0.11878 0.0
H1615 H 0.6649 0.05605 0.13391 0.0
H1616 H 0.6506 0.02493 0.14669 0.0
H1617 H 0.63207 0.04487 0.12235 0.0
H1618 H 0.61986 0.98492 0.03473 0.0
H1619 H 0.60986 0.94183 0.05821 0.0
H1620 H 0.65051 0.97193 0.1302 0.0
C1621 C 0.68333 0.0616 0.07422 0.0
C1622 C 0.68372 0.0724 0.04774 0.0
C1623 C 0.66693 0.06083 0.02753 0.0
C1624 C 0.65084 0.03809 0.03325 0.0
C1625 C 0.65158 0.02738 0.05936 0.0
C1626 C 0.66714 0.03894 0.07963 0.0
C1627 C 0.66624 0.02215 0.10528 0.0
C1628 C 0.69477 0.01249 0.11342 0.0
C1629 C 0.65264 0.03795 0.12843 0.0
C1630 C 0.64866 0.99877 0.09594 0.0
C1631 C 0.64017 0.00229 0.06948 0.0
C1632 C 0.62586 0.9822 0.05564 0.0
C1633 C 0.62039 0.95776 0.06908 0.0
C1634 C 0.62918 0.95366 0.09608 0.0
C1635 C 0.643 0.97471 0.10977 0.0
H1636 H 0.70985 0.04805 0.73919 0.0
H1637 H 0.65435 0.05424 0.67128 0.0
H1638 H 0.68815 0.08127 0.64616 0.0
H1639 H 0.74205 0.11583 0.7317 0.0
H1640 H 0.77513 0.10304 0.74036 0.0
H1641 H 0.74524 0.08755 0.75458 0.0
H1642 H 0.76043 0.0408 0.73601 0.0
H1643 H 0.79031 0.05612 0.72181 0.0
H1644 H 0.76757 0.03716 0.70036 0.0
H1645 H 0.72904 0.10355 0.62683 0.0
H1646 H 0.77507 0.11773 0.61359 0.0
H1647 H 0.8046 0.09645 0.69371 0.0
C1648 C 0.70462 0.05567 0.71929 0.0
C1649 C 0.67946 0.04932 0.70721 0.0
C1650 C 0.67351 0.05901 0.6809 0.0
C1651 C 0.69251 0.07448 0.66655 0.0
C1652 C 0.71733 0.08004 0.67881 0.0
C1653 C 0.72348 0.07091 0.70457 0.0
C1654 C 0.75257 0.07738 0.71201 0.0
C1655 C 0.75381 0.09713 0.73609 0.0
C1656 C 0.76866 0.05132 0.71788 0.0
C1657 C 0.76202 0.09086 0.68611 0.0
C1658 C 0.74124 0.09258 0.66741 0.0
C1659 C 0.74541 0.10264 0.6414 0.0
C1660 C 0.77166 0.11059 0.63406 0.0
C1661 C 0.79346 0.10825 0.65261 0.0
C1662 C 0.78833 0.09884 0.67917 0.0
H1663 H 0.70102 0.93395 0.42984 0.0
H1664 H 0.67357 0.94567 0.51251 0.0
H1665 H 0.64847 0.98648 0.49843 0.0
H1666 H 0.71558 -0.00023 0.41726 0.0
H1667 H 0.70473 0.00043 0.38239 0.0
H1668 H 0.7156 0.9691 0.39735 0.0
H1669 H 0.66984 0.9466 0.38459 0.0
H1670 H 0.65887 0.97791 0.3693 0.0
H1671 H 0.63855 0.96213 0.39524 0.0
H1672 H 0.63365 0.0297 0.47766 0.0
H1673 H 0.62891 0.07183 0.45116 0.0
H1674 H 0.66548 0.03217 0.38171 0.0
C1675 C 0.68888 0.94456 0.44474 0.0
C1676 C 0.68903 0.93663 0.47219 0.0
C1677 C 0.67357 0.95137 0.49132 0.0
C1678 C 0.65917 0.97451 0.4835 0.0
C1679 C 0.66029 0.98246 0.45645 0.0
C1680 C 0.6745 0.96778 0.43726 0.0
C1681 C 0.67517 0.9824 0.4103 0.0
C1682 C 0.70451 0.98828 0.40133 0.0
C1683 C 0.65968 0.9663 0.38857 0.0
C1684 C 0.66033 0.00818 0.41773 0.0
C1685 C 0.65153 0.00762 0.44431 0.0
C1686 C 0.63983 0.03016 0.45663 0.0
C1687 C 0.63739 0.05404 0.44149 0.0
C1688 C 0.64668 0.05515 0.41438 0.0
C1689 C 0.65769 0.03171 0.40222 0.0
H1690 H 0.79013 0.94285 0.24251 0.0
H1691 H 0.84327 0.9348 0.17294 0.0
H1692 H 0.80655 0.91222 0.14748 0.0
H1693 H 0.75224 0.87863 0.23299 0.0
H1694 H 0.72052 0.89362 0.2431 0.0
H1695 H 0.75189 0.90614 0.25707 0.0
H1696 H 0.73992 0.95462 0.24081 0.0
H1697 H 0.70859 0.94225 0.2268 0.0
H1698 H 0.73223 0.96025 0.20554 0.0
H1699 H 0.76349 0.89417 0.12836 0.0
H1700 H 0.7164 0.88279 0.11622 0.0
H1701 H 0.69055 0.90316 0.19787 0.0
C1702 C 0.79417 0.93576 0.22213 0.0
C1703 C 0.81957 0.94031 0.20973 0.0
C1704 C 0.82397 0.93138 0.18282 0.0
C1705 C 0.80328 0.91846 0.16825 0.0
C1706 C 0.77831 0.91469 0.18086 0.0
C1707 C 0.77363 0.92305 0.20719 0.0
C1708 C 0.74429 0.91855 0.21516 0.0
C1709 C 0.74212 0.89801 0.23846 0.0
C1710 C 0.73045 0.94552 0.2225 0.0
C1711 C 0.73312 0.90691 0.18901 0.0
C1712 C 0.75319 0.90457 0.16962 0.0
C1713 C 0.74764 0.89564 0.14344 0.0
C1714 C 0.72079 0.8893 0.13673 0.0
C1715 C 0.69974 0.89205 0.15608 0.0
C1716 C 0.70618 0.90055 0.1827 0.0
H1717 H 0.78871 0.07071 0.95824 0.0
H1718 H 0.80615 0.0524 0.04244 0.0
H1719 H 0.83014 0.01078 0.02832 0.0
H1720 H 0.77397 0.00504 0.93809 0.0
H1721 H 0.78928 0.00758 0.90503 0.0
H1722 H 0.7764 0.03747 0.92143 0.0
H1723 H 0.82335 0.06066 0.91683 0.0
H1724 H 0.83637 0.03084 0.90023 0.0
H1725 H 0.85304 0.04396 0.93 0.0
H1726 H 0.84727 0.96872 0.00548 0.0
H1727 H 0.85807 0.93017 0.97538 0.0
H1728 H 0.83047 0.97669 0.90605 0.0
C1729 C 0.79807 0.05824 0.97366 0.0
C1730 C 0.79567 0.06475 0.00141 0.0
C1731 C 0.80791 0.04782 0.02105 0.0
C1732 C 0.82157 0.02417 0.01323 0.0
C1733 C 0.82304 0.01799 0.98571 0.0
C1734 C 0.81188 0.03469 0.9662 0.0
C1735 C 0.81484 0.02267 0.93814 0.0
C1736 C 0.78697 0.0179 0.92492 0.0
C1737 C 0.83299 0.0406 0.92025 0.0
C1738 C 0.82864 0.9962 0.94498 0.0
C1739 C 0.83335 0.99393 0.9725 0.0
C1740 C 0.84412 0.97044 0.98385 0.0
C1741 C 0.85006 0.94863 0.96662 0.0
C1742 C 0.84526 0.95053 0.93839 0.0
C1743 C 0.83478 0.9748 0.92749 0.0
H1744 H 0.74763 0.70956 0.94802 0.0
H1745 H 0.81219 0.65161 0.93434 0.0
H1746 H 0.83765 0.686 0.90842 0.0
H1747 H 0.7546 0.74747 0.88207 0.0
H1748 H 0.74813 0.77952 0.89837 0.0
H1749 H 0.7326 0.74901 0.91119 0.0
H1750 H 0.75302 0.75864 0.95863 0.0
H1751 H 0.76864 0.78902 0.94598 0.0
H1752 H 0.78911 0.76337 0.96196 0.0
H1753 H 0.85892 0.72789 0.89006 0.0
H1754 H 0.87484 0.77452 0.88138 0.0
H1755 H 0.79678 0.80569 0.90732 0.0
C1756 C 0.76668 0.70389 0.93873 0.0
C1757 C 0.77785 0.6779 0.94286 0.0
C1758 C 0.80323 0.6714 0.93121 0.0
C1759 C 0.81778 0.69075 0.91636 0.0
C1760 C 0.80664 0.71651 0.91334 0.0
C1761 C 0.78161 0.72311 0.92408 0.0
C1762 C 0.77573 0.75306 0.92078 0.0
C1763 C 0.75131 0.75752 0.90198 0.0
C1764 C 0.77139 0.76682 0.94848 0.0
C1765 C 0.80181 0.76242 0.90754 0.0
C1766 C 0.81916 0.74095 0.90296 0.0
C1767 C 0.84533 0.74483 0.89306 0.0
C1768 C 0.85423 0.77141 0.88827 0.0
C1769 C 0.83706 0.79379 0.89356 0.0
C1770 C 0.81028 0.78905 0.90264 0.0
H1771 H 0.26077 0.79371 0.04197 0.0
H1772 H 0.3267 0.84979 0.05799 0.0
H1773 H 0.34935 0.81501 0.08595 0.0
H1774 H 0.26165 0.75855 0.10875 0.0
H1775 H 0.25471 0.72605 0.09351 0.0
H1776 H 0.24174 0.75654 0.07817 0.0
H1777 H 0.26503 0.74374 0.03288 0.0
H1778 H 0.27806 0.7133 0.04804 0.0
H1779 H 0.30096 0.73716 0.03248 0.0
H1780 H 0.36715 0.77312 0.10741 0.0
H1781 H 0.37971 0.72651 0.12015 0.0
H1782 H 0.30237 0.69716 0.09012 0.0
C1783 C 0.27964 0.79889 0.05193 0.0
C1784 C 0.29193 0.82448 0.04805 0.0
C1785 C 0.31692 0.83033 0.06085 0.0
C1786 C 0.32984 0.81076 0.07685 0.0
C1787 C 0.31745 0.78552 0.07984 0.0
C1788 C 0.29288 0.77953 0.0678 0.0
C1789 C 0.28519 0.75007 0.07202 0.0
C1790 C 0.25928 0.74767 0.08914 0.0
C1791 C 0.28215 0.7352 0.04474 0.0
C1792 C 0.30972 0.7402 0.08756 0.0
C1793 C 0.32787 0.7611 0.09218 0.0
C1794 C 0.35294 0.75668 0.1043 0.0
C1795 C 0.35992 0.73013 0.11136 0.0
C1796 C 0.34195 0.70829 0.10621 0.0
C1797 C 0.31626 0.71353 0.09476 0.0
H1798 H 0.96281 0.5082 0.79764 0.0
H1799 H 0.9036 0.56861 0.82145 0.0
H1800 H 0.93912 0.5935 0.84653 0.0
H1801 H 0.00619 0.51178 0.86048 0.0
H1802 H 0.03679 0.50805 0.8409 0.0
H1803 H 0.00586 0.49206 0.82971 0.0
H1804 H 0.01018 0.51631 0.78334 0.0
H1805 H 0.04092 0.53245 0.79438 0.0
H1806 H 0.01303 0.55274 0.78242 0.0
H1807 H 0.98139 0.61514 0.86259 0.0
H1808 H 0.02777 0.63278 0.86807 0.0
H1809 H 0.06006 0.55872 0.83325 0.0
C1810 C 0.95717 0.52618 0.80891 0.0
C1811 C 0.93051 0.53644 0.8079 0.0
C1812 C 0.92393 0.5604 0.82218 0.0
C1813 C 0.94392 0.57455 0.83657 0.0
C1814 C 0.97026 0.56437 0.83647 0.0
C1815 C 0.97692 0.54065 0.82313 0.0
C1816 C 0.00724 0.53593 0.82319 0.0
C1817 C 0.01444 0.51044 0.83955 0.0
C1818 C 0.01848 0.53428 0.79411 0.0
C1819 C 0.01669 0.56136 0.83752 0.0
C1820 C 0.99498 0.57718 0.8455 0.0
C1821 C 0.99854 0.60273 0.85692 0.0
C1822 C 0.02495 0.61263 0.85977 0.0
C1823 C 0.04745 0.59708 0.85105 0.0
C1824 C 0.04325 0.57084 0.84047 0.0
H1825 H 0.17627 0.18396 0.53792 0.0
H1826 H 0.25984 0.19082 0.56459 0.0
H1827 H 0.2476 0.2299 0.59321 0.0
H1828 H 0.16387 0.25335 0.53193 0.0
H1829 H 0.12944 0.25204 0.54406 0.0
H1830 H 0.14411 0.22283 0.52795 0.0
H1831 H 0.13279 0.19382 0.57029 0.0
H1832 H 0.11816 0.22311 0.58652 0.0
H1833 H 0.14481 0.20448 0.60312 0.0
H1834 H 0.2279 0.27119 0.61422 0.0
H1835 H 0.20141 0.31162 0.6273 0.0
H1836 H 0.13015 0.27727 0.58886 0.0
C1837 C 0.19185 0.19338 0.55019 0.0
C1838 C 0.21898 0.18435 0.54912 0.0
C1839 C 0.23891 0.19738 0.56518 0.0
C1840 C 0.23215 0.21954 0.58156 0.0
C1841 C 0.20533 0.22825 0.58185 0.0
C1842 C 0.18542 0.21551 0.56676 0.0
C1843 C 0.1585 0.23002 0.56942 0.0
C1844 C 0.14841 0.24016 0.5417 0.0
C1845 C 0.13732 0.21177 0.58316 0.0
C1846 C 0.16664 0.25336 0.58767 0.0
C1847 C 0.19371 0.25184 0.59472 0.0
C1848 C 0.20654 0.27233 0.60937 0.0
C1849 C 0.1914 0.2952 0.61666 0.0
C1850 C 0.16372 0.29722 0.60947 0.0
C1851 C 0.15109 0.2758 0.59528 0.0
H1852 H 0.0665 0.9305 0.81795 0.0
H1853 H 0.05889 0.01477 0.84191 0.0
H1854 H 0.01782 0.00347 0.86823 0.0
H1855 H -0.00069 0.91958 0.80565 0.0
H1856 H 0.99803 0.88527 0.81812 0.0
H1857 H 0.02936 0.89883 0.80541 0.0
H1858 H 0.05314 0.88752 0.85084 0.0
H1859 H 0.02184 0.87367 0.86367 0.0
H1860 H 0.03912 0.90007 0.88216 0.0
H1861 H 0.97403 0.98443 0.88582 0.0
H1862 H 0.93176 0.95891 0.89432 0.0
H1863 H 0.96826 0.88699 0.85921 0.0
C1864 C 0.05671 0.94641 0.82946 0.0
C1865 C 0.06596 0.97347 0.82807 0.0
C1866 C 0.05225 0.99385 0.84289 0.0
C1867 C 0.02892 0.98762 0.85792 0.0
C1868 C 0.01975 0.96087 0.8581 0.0
C1869 C 0.0334 0.94053 0.8445 0.0
C1870 C 0.01796 0.914 0.84565 0.0
C1871 C 0.01074 0.90385 0.81701 0.0
C1872 C 0.03397 0.89255 0.86154 0.0
C1873 C 0.99297 0.92285 0.86106 0.0
C1874 C 0.99451 0.94986 0.86837 0.0
C1875 C 0.97283 0.96312 0.88069 0.0
C1876 C 0.94886 0.9485 0.88534 0.0
C1877 C 0.94673 0.92091 0.87759 0.0
C1878 C 0.96936 0.9079 0.86582 0.0
H1879 H 0.6908 0.33069 0.4528 0.0
H1880 H 0.77411 0.3231 0.42574 0.0
H1881 H 0.76151 0.28308 0.39846 0.0
H1882 H 0.6793 0.26302 0.46277 0.0
H1883 H 0.64466 0.26259 0.45121 0.0
H1884 H 0.65893 0.29327 0.4648 0.0
H1885 H 0.64661 0.31896 0.4207 0.0
H1886 H 0.63205 0.28833 0.407 0.0
H1887 H 0.65811 0.30605 0.38851 0.0
H1888 H 0.74191 0.24009 0.38071 0.0
H1889 H 0.71584 0.19827 0.37149 0.0
H1890 H 0.64484 0.23426 0.40865 0.0
C1891 C 0.70619 0.32112 0.44044 0.0
C1892 C 0.73339 0.33005 0.44123 0.0
C1893 C 0.75311 0.31668 0.42527 0.0
C1894 C 0.74614 0.29396 0.40969 0.0
C1895 C 0.71933 0.28507 0.41009 0.0
C1896 C 0.69956 0.29842 0.42476 0.0
C1897 C 0.67282 0.28332 0.42372 0.0
C1898 C 0.6634 0.27506 0.45232 0.0
C1899 C 0.65112 0.30017 0.4091 0.0
C1900 C 0.68093 0.25885 0.40708 0.0
C1901 C 0.7078 0.26037 0.39924 0.0
C1902 C 0.72068 0.23895 0.38612 0.0
C1903 C 0.7058 0.21527 0.38109 0.0
C1904 C 0.67832 0.2133 0.38904 0.0
C1905 C 0.66563 0.23557 0.40172 0.0
H1906 H 0.95677 0.49463 0.69907 0.0
H1907 H 0.89984 0.42795 0.69145 0.0
H1908 H 0.93431 0.40147 0.6666 0.0
H1909 H 0.99256 0.48429 0.63291 0.0
H1910 H 0.02488 0.49291 0.64764 0.0
H1911 H 0.99432 0.50828 0.66044 0.0
H1912 H 0.00616 0.49148 0.70875 0.0
H1913 H 0.03655 0.4759 0.69614 0.0
H1914 H 0.01202 0.45585 0.71433 0.0
H1915 H 0.9764 0.38018 0.64866 0.0
H1916 H 0.02302 0.36551 0.63843 0.0
H1917 H 0.0528 0.44604 0.65801 0.0
C1918 C 0.95127 0.47479 0.69143 0.0
C1919 C 0.92561 0.46336 0.69695 0.0
C1920 C 0.91935 0.4371 0.68723 0.0
C1921 C 0.93876 0.42197 0.67305 0.0
C1922 C 0.96421 0.43351 0.6687 0.0
C1923 C 0.97044 0.45941 0.67742 0.0
C1924 C 4e-05 0.46604 0.67273 0.0
C1925 C 0.00312 0.48926 0.6522 0.0
C1926 C 0.01453 0.47269 0.69958 0.0
C1927 C 0.00975 0.43945 0.66096 0.0
C1928 C 0.98868 0.4211 0.65845 0.0
C1929 C 0.99298 0.3945 0.65008 0.0
C1930 C 0.01956 0.38633 0.64448 0.0
C1931 C 0.04151 0.40466 0.64739 0.0
C1932 C 0.03639 0.4317 0.65521 0.0
H1933 H 0.56858 0.57376 0.20175 0.0
H1934 H 0.56018 0.49052 0.17446 0.0
H1935 H 0.52004 0.50329 0.14763 0.0
H1936 H 0.50148 0.58551 0.21257 0.0
H1937 H 0.50097 0.62016 0.20103 0.0
H1938 H 0.53182 0.60588 0.21404 0.0
H1939 H 0.55675 0.6181 0.16946 0.0
H1940 H 0.52595 0.63269 0.15634 0.0
H1941 H 0.54322 0.60659 0.13751 0.0
H1942 H 0.47677 0.52281 0.131 0.0
H1943 H 0.4347 0.54878 0.12309 0.0
H1944 H 0.47179 0.61983 0.15934 0.0
C1945 C 0.55882 0.55844 0.18939 0.0
C1946 C 0.5675 0.5312 0.19006 0.0
C1947 C 0.55391 0.51156 0.17411 0.0
C1948 C 0.53113 0.51862 0.15876 0.0
C1949 C 0.52244 0.54546 0.15932 0.0
C1950 C 0.53607 0.56518 0.17389 0.0
C1951 C 0.52107 0.59194 0.17315 0.0
C1952 C 0.51338 0.6014 0.2019 0.0
C1953 C 0.53775 0.61361 0.15822 0.0
C1954 C 0.4963 0.58382 0.15696 0.0
C1955 C 0.49759 0.55698 0.14898 0.0
C1956 C 0.4758 0.54404 0.13645 0.0
C1957 C 0.45199 0.55886 0.13218 0.0
C1958 C 0.45028 0.58632 0.14026 0.0
C1959 C 0.4729 0.59906 0.15229 0.0
H1960 H 0.53961 0.74366 0.79395 0.0
H1961 H 0.56734 0.68694 0.85504 0.0
H1962 H 0.59629 0.66446 0.82098 0.0
H1963 H 0.53247 0.69622 0.74287 0.0
H1964 H 0.54333 0.71792 0.71557 0.0
H1965 H 0.5284 0.73245 0.74546 0.0
H1966 H 0.5708 0.76276 0.75224 0.0
H1967 H 0.58587 0.74835 0.72224 0.0
H1968 H 0.60386 0.74735 0.75402 0.0
H1969 H 0.61769 0.64493 0.77981 0.0
H1970 H 0.62963 0.62895 0.73403 0.0
H1971 H 0.58758 0.69778 0.69902 0.0
C1972 C 0.55243 0.72703 0.8003 0.0
C1973 C 0.55156 0.71719 0.82716 0.0
C1974 C 0.56792 0.69488 0.83459 0.0
C1975 C 0.58447 0.68205 0.81542 0.0
C1976 C 0.58438 0.69179 0.78891 0.0
C1977 C 0.56884 0.71381 0.78131 0.0
C1978 C 0.57022 0.7184 0.75096 0.0
C1979 C 0.54193 0.7161 0.73797 0.0
C1980 C 0.58349 0.74585 0.74449 0.0
C1981 C 0.58831 0.69505 0.74261 0.0
C1982 C 0.59654 0.68021 0.76489 0.0
C1983 C 0.61173 0.6566 0.76224 0.0
C1984 C 0.61831 0.64764 0.73614 0.0
C1985 C 0.60962 0.66217 0.71296 0.0
C1986 C 0.59491 0.6865 0.71634 0.0
H1987 H 0.54559 0.31544 0.07635 0.0
H1988 H 0.53784 0.23253 0.04771 0.0
H1989 H 0.55606 0.24599 0.00333 0.0
H1990 H 0.5278 0.34861 0.01506 0.0
H1991 H 0.55265 0.37528 0.0179 0.0
H1992 H 0.53941 0.35944 0.04799 0.0
H1993 H 0.58812 0.34736 0.06341 0.0
H1994 H 0.60153 0.3634 0.03348 0.0
H1995 H 0.60994 0.32864 0.04088 0.0
H1996 H 0.57126 0.26821 0.96166 0.0
H1997 H 0.58831 0.29769 0.92515 0.0
H1998 H 0.59063 0.36592 0.98063 0.0
C1999 C 0.54804 0.30019 0.06074 0.0
C2000 C 0.54043 0.27299 0.06533 0.0
C2001 C 0.54387 0.25344 0.04461 0.0
C2002 C 0.55404 0.26088 0.01932 0.0
C2003 C 0.56115 0.28785 0.01528 0.0
C2004 C 0.55885 0.30717 0.03544 0.0
C2005 C 0.56863 0.33462 0.02559 0.0
C2006 C 0.54575 0.35573 0.0267 0.0
C2007 C 0.59354 0.34406 0.04181 0.0
C2008 C 0.57612 0.32772 0.9966 0.0
C2009 C 0.57133 0.30062 0.99117 0.0
C2010 C 0.57537 0.2894 0.96565 0.0
C2011 C 0.58486 0.30628 0.94507 0.0
C2012 C 0.59056 0.33389 0.95029 0.0
C2013 C 0.58634 0.34481 0.97635 0.0
H2014 H 0.94612 0.25612 0.29283 0.0
H2015 H 0.95016 0.32322 0.34955 0.0
H2016 H 0.92785 0.35291 0.31613 0.0
H2017 H 0.96398 0.2934 0.23637 0.0
H2018 H 0.94212 0.27607 0.21275 0.0
H2019 H 0.9541 0.25873 0.24246 0.0
H2020 H 0.90464 0.24813 0.25663 0.0
H2021 H 0.89248 0.26527 0.22677 0.0
H2022 H 0.8806 0.27543 0.25978 0.0
H2023 H 0.91039 0.37653 0.27532 0.0
H2024 H 0.8985 0.39265 0.22958 0.0
H2025 H 0.90644 0.31056 0.19867 0.0
C2026 C 0.94148 0.27683 0.29846 0.0
C2027 C 0.94953 0.28738 0.32381 0.0
C2028 C 0.94395 0.31477 0.33025 0.0
C2029 C 0.93124 0.33175 0.31144 0.0
C2030 C 0.92428 0.32102 0.28629 0.0
C2031 C 0.92905 0.29417 0.27975 0.0
C2032 C 0.92205 0.28849 0.25039 0.0
C2033 C 0.94705 0.2786 0.23457 0.0
C2034 C 0.89854 0.26812 0.24828 0.0
C2035 C 0.91339 0.3165 0.24129 0.0
C2036 C 0.91451 0.33486 0.26242 0.0
C2037 C 0.90905 0.36229 0.25867 0.0
C2038 C 0.90244 0.37127 0.23258 0.0
C2039 C 0.90151 0.35289 0.21051 0.0
C2040 C 0.90672 0.32509 0.21513 0.0
H2041 H 0.92853 0.70962 0.57153 0.0
H2042 H 0.96682 0.78044 0.53586 0.0
H2043 H 0.95656 0.76319 0.49029 0.0
H2044 H 0.94899 0.66112 0.52196 0.0
H2045 H 0.91725 0.64302 0.52106 0.0
H2046 H 0.92747 0.66049 0.55148 0.0
H2047 H 0.88267 0.68781 0.55132 0.0
H2048 H 0.87215 0.67015 0.52112 0.0
H2049 H 0.87328 0.70667 0.52149 0.0
H2050 H 0.94631 0.73718 0.44914 0.0
H2051 H 0.92864 0.70733 0.4132 0.0
H2052 H 0.89211 0.65525 0.47393 0.0
C2053 C 0.93442 0.72152 0.55406 0.0
C2054 C 0.94848 0.74631 0.55714 0.0
C2055 C 0.95584 0.76149 0.53393 0.0
C2056 C 0.95031 0.75179 0.50795 0.0
C2057 C 0.93688 0.72713 0.5055 0.0
C2058 C 0.92833 0.71248 0.52778 0.0
C2059 C 0.91312 0.68715 0.51903 0.0
C2060 C 0.92758 0.66143 0.52898 0.0
C2061 C 0.88355 0.68801 0.52882 0.0
C2062 C 0.9149 0.68982 0.48844 0.0
C2063 C 0.92921 0.71281 0.48125 0.0
C2064 C 0.93479 0.71926 0.4544 0.0
C2065 C 0.9249 0.70208 0.43419 0.0
C2066 C 0.90915 0.67906 0.44092 0.0
C2067 C 0.90411 0.67279 0.46838 0.0
H2068 H 0.55548 0.32835 0.68052 0.0
H2069 H 0.58735 0.24646 0.68254 0.0
H2070 H 0.61662 0.25895 0.72119 0.0
H2071 H 0.61938 0.3638 0.70294 0.0
H2072 H 0.60041 0.38779 0.72291 0.0
H2073 H 0.58592 0.37392 0.69234 0.0
H2074 H 0.54402 0.35759 0.71953 0.0
H2075 H 0.55834 0.37133 0.75006 0.0
H2076 H 0.54888 0.33605 0.74862 0.0
H2077 H 0.63614 0.27778 0.76371 0.0
H2078 H 0.64451 0.30162 0.80694 0.0
H2079 H 0.60077 0.37161 0.77682 0.0
C2080 C 0.56922 0.31328 0.68859 0.0
C2081 C 0.56928 0.2865 0.67853 0.0
C2082 C 0.58711 0.26715 0.6899 0.0
C2083 C 0.6039 0.27409 0.71176 0.0
C2084 C 0.60279 0.30051 0.72174 0.0
C2085 C 0.58607 0.31989 0.71037 0.0
C2086 C 0.58634 0.34588 0.72669 0.0
C2087 C 0.59876 0.36923 0.71023 0.0
C2088 C 0.55771 0.35311 0.73683 0.0
C2089 C 0.60473 0.33764 0.74977 0.0
C2090 C 0.61439 0.31155 0.7463 0.0
C2091 C 0.62928 0.29844 0.76637 0.0
C2092 C 0.63384 0.31208 0.79087 0.0
C2093 C 0.6235 0.33851 0.79505 0.0
C2094 C 0.60951 0.35169 0.7739 0.0
H2095 H 0.98961 0.30776 0.95889 0.0
H2096 H 0.9227 0.31683 0.90258 0.0
H2097 H 0.89583 0.33938 0.9383 0.0
H2098 H 0.95096 0.28979 0.01418 0.0
H2099 H 0.97097 0.30752 0.03912 0.0
H2100 H 0.98649 0.29597 0.00824 0.0
H2101 H 0.00279 0.34481 0.99776 0.0
H2102 H 0.98752 0.35651 0.02881 0.0
H2103 H 0.97855 0.37211 0.99704 0.0
H2104 H 0.87444 0.35565 0.98133 0.0
H2105 H 0.86046 0.3658 0.02825 0.0
H2106 H 0.9414 0.34603 0.05654 0.0
C2107 C 0.9696 0.3152 0.95385 0.0
C2108 C 0.95827 0.31075 0.92795 0.0
C2109 C 0.9318 0.32021 0.92227 0.0
C2110 C 0.91641 0.33305 0.94241 0.0
C2111 C 0.92787 0.33637 0.96802 0.0
C2112 C 0.95396 0.32795 0.97373 0.0
C2113 C 0.96071 0.33186 0.00341 0.0
C2114 C 0.96768 0.30467 0.01702 0.0
C2115 C 0.98376 0.35256 0.00696 0.0
C2116 C 0.93407 0.34301 0.01368 0.0
C2117 C 0.91548 0.34571 0.9929 0.0
C2118 C 0.88894 0.35401 0.9977 0.0
C2119 C 0.88116 0.35959 0.02444 0.0
C2120 C 0.89984 0.35675 0.04608 0.0
C2121 C 0.92672 0.34868 0.04045 0.0
H2122 H 0.95643 0.74187 0.20393 0.0
H2123 H 0.96549 0.66961 0.15458 0.0
H2124 H 0.93507 0.64463 0.18553 0.0
H2125 H 0.9594 0.70895 0.26632 0.0
H2126 H 0.93503 0.73052 0.28289 0.0
H2127 H 0.95469 0.74338 0.25505 0.0
H2128 H 0.91042 0.75629 0.22986 0.0
H2129 H 0.89061 0.7432 0.25762 0.0
H2130 H 0.88502 0.7307 0.22374 0.0
H2131 H 0.90711 0.62655 0.22381 0.0
H2132 H 0.88639 0.61589 0.26803 0.0
H2133 H 0.89561 0.70004 0.29236 0.0
C2134 C 0.95165 0.72091 0.19941 0.0
C2135 C 0.96317 0.70767 0.17683 0.0
C2136 C 0.95681 0.68012 0.17178 0.0
C2137 C 0.93943 0.66583 0.18913 0.0
C2138 C 0.92853 0.67943 0.21135 0.0
C2139 C 0.93445 0.70634 0.21657 0.0
C2140 C 0.92207 0.71557 0.24306 0.0
C2141 C 0.94411 0.72515 0.263 0.0
C2142 C 0.90076 0.73775 0.23827 0.0
C2143 C 0.90897 0.68942 0.25234 0.0
C2144 C 0.91252 0.66893 0.23356 0.0
C2145 C 0.90388 0.6425 0.23853 0.0
C2146 C 0.89211 0.63665 0.26372 0.0
C2147 C 0.88932 0.65711 0.2837 0.0
C2148 C 0.8971 0.68399 0.27746 0.0
H2149 H 0.50147 0.70078 0.46971 0.0
H2150 H 0.56094 0.67942 0.40867 0.0
H2151 H 0.58634 0.65298 0.44262 0.0
H2152 H 0.54753 0.71339 0.52037 0.0
H2153 H 0.52751 0.70021 0.54794 0.0
H2154 H 0.51106 0.71299 0.51806 0.0
H2155 H 0.48612 0.66715 0.51183 0.0
H2156 H 0.50245 0.65422 0.54184 0.0
H2157 H 0.50543 0.6362 0.51019 0.0
H2158 H 0.60843 0.63452 0.48353 0.0
H2159 H 0.62657 0.62594 0.52922 0.0
H2160 H 0.55352 0.65962 0.5647 0.0
C2161 C 0.51934 0.68974 0.46337 0.0
C2162 C 0.52913 0.69178 0.43656 0.0
C2163 C 0.55306 0.6779 0.4291 0.0
C2164 C 0.56753 0.66275 0.4482 0.0
C2165 C 0.55782 0.66173 0.47469 0.0
C2166 C 0.53425 0.67478 0.48234 0.0
C2167 C 0.53007 0.67314 0.51275 0.0
C2168 C 0.52899 0.70162 0.52552 0.0
C2169 C 0.5045 0.65669 0.51955 0.0
C2170 C 0.5555 0.65807 0.52106 0.0
C2171 C 0.57093 0.65127 0.49869 0.0
C2172 C 0.59633 0.63929 0.50119 0.0
C2173 C 0.60651 0.63461 0.52723 0.0
C2174 C 0.5914 0.642 0.55048 0.0
C2175 C 0.56528 0.65327 0.5473 0.0
H2176 H 0.79456 0.55555 0.74839 0.0
H2177 H 0.85338 0.56927 0.68454 0.0
H2178 H 0.8204 0.59819 0.66045 0.0
H2179 H 0.74004 0.5466 0.70667 0.0
H2180 H 0.7155 0.56294 0.72822 0.0
H2181 H 0.74517 0.54778 0.74283 0.0
H2182 H 0.7576 0.59351 0.76561 0.0
H2183 H 0.72785 0.60887 0.75102 0.0
H2184 H 0.76077 0.6236 0.74514 0.0
H2185 H 0.77945 0.61981 0.64042 0.0
H2186 H 0.73331 0.63142 0.6252 0.0
H2187 H 0.70095 0.60346 0.70205 0.0
C2188 C 0.80076 0.5653 0.72973 0.0
C2189 C 0.82653 0.5604 0.71837 0.0
C2190 C 0.83374 0.57293 0.69362 0.0
C2191 C 0.8152 0.58948 0.67989 0.0
C2192 C 0.78966 0.59336 0.6913 0.0
C2193 C 0.78245 0.58171 0.71573 0.0
C2194 C 0.75281 0.5864 0.72208 0.0
C2195 C 0.7375 0.55933 0.72511 0.0
C2196 C 0.74958 0.60416 0.74747 0.0
C2197 C 0.74417 0.60146 0.69683 0.0
C2198 C 0.76583 0.60574 0.67958 0.0
C2199 C 0.76243 0.61705 0.65396 0.0
C2200 C 0.73612 0.62348 0.64546 0.0
C2201 C 0.71355 0.61841 0.66247 0.0
C2202 C 0.71782 0.60802 0.68878 0.0
H2203 H 0.69757 0.57051 0.93038 0.0
H2204 H 0.66956 0.56279 0.01333 0.0
H2205 H 0.64161 0.52345 0.00032 0.0
H2206 H 0.63313 0.5464 0.89672 0.0
H2207 H 0.65179 0.52836 0.87102 0.0
H2208 H 0.66561 0.55894 0.88559 0.0
H2209 H 0.7093 0.53295 0.89872 0.0
H2210 H 0.69562 0.50239 0.88432 0.0
H2211 H 0.70666 0.50276 0.91913 0.0
H2212 H 0.62298 0.48113 0.98055 0.0
H2213 H 0.61452 0.4389 0.95496 0.0
H2214 H 0.65371 0.47397 0.88451 0.0
C2215 C 0.68483 0.56106 0.94555 0.0
C2216 C 0.68554 0.56976 0.97279 0.0
C2217 C 0.66921 0.55648 0.9923 0.0
C2218 C 0.65316 0.5342 0.98509 0.0
C2219 C 0.65353 0.52552 0.95824 0.0
C2220 C 0.66876 0.53864 0.93868 0.0
C2221 C 0.66792 0.5234 0.91202 0.0
C2222 C 0.65376 0.54028 0.89004 0.0
C2223 C 0.69657 0.51487 0.90305 0.0
C2224 C 0.65089 0.49911 0.92003 0.0
C2225 C 0.64246 0.50094 0.94666 0.0
C2226 C 0.62888 0.47972 0.95947 0.0
C2227 C 0.62425 0.45579 0.94484 0.0
C2228 C 0.63318 0.45331 0.91771 0.0
C2229 C 0.64603 0.47555 0.90501 0.0
H2230 H 0.68101 0.4625 0.18497 0.0
H2231 H 0.69098 0.43874 0.26903 0.0
H2232 H 0.73291 0.41418 0.25702 0.0
H2233 H 0.70814 0.39929 0.15463 0.0
H2234 H 0.72447 0.41746 0.12747 0.0
H2235 H 0.69369 0.43045 0.14222 0.0
H2236 H 0.71787 0.47606 0.15229 0.0
H2237 H 0.74871 0.46319 0.13779 0.0
H2238 H 0.74867 0.47609 0.17196 0.0
H2239 H 0.77642 0.39745 0.23699 0.0
H2240 H 0.81726 0.38742 0.20979 0.0
H2241 H 0.77801 0.42074 0.13855 0.0
C2242 C 0.69169 0.45162 0.20075 0.0
C2243 C 0.68278 0.45241 0.22791 0.0
C2244 C 0.69742 0.43823 0.24806 0.0
C2245 C 0.72123 0.42424 0.24143 0.0
C2246 C 0.72985 0.42442 0.21454 0.0
C2247 C 0.71536 0.43747 0.19446 0.0
C2248 C 0.7298 0.436 0.16744 0.0
C2249 C 0.71302 0.41983 0.14672 0.0
C2250 C 0.73667 0.46452 0.15676 0.0
C2251 C 0.75506 0.42075 0.17563 0.0
C2252 C 0.75468 0.41418 0.20286 0.0
C2253 C 0.77674 0.40201 0.21554 0.0
C2254 C 0.79986 0.39653 0.19999 0.0
C2255 C 0.8006 0.4031 0.17208 0.0
C2256 C 0.77775 0.415 0.15973 0.0
H2257 H 0.80255 0.44092 0.4352 0.0
H2258 H 0.82125 0.45646 0.51972 0.0
H2259 H 0.84507 0.49856 0.50676 0.0
H2260 H 0.86645 0.4693 0.40677 0.0
H2261 H 0.84911 0.48336 0.37788 0.0
H2262 H 0.83664 0.45278 0.39352 0.0
H2263 H 0.78961 0.47524 0.39995 0.0
H2264 H 0.80193 0.50586 0.38449 0.0
H2265 H 0.78727 0.50699 0.41792 0.0
H2266 H 0.8616 0.54166 0.48524 0.0
H2267 H 0.87091 0.58165 0.45653 0.0
H2268 H 0.84239 0.53727 0.38606 0.0
C2269 C 0.81223 0.45285 0.45091 0.0
C2270 C 0.81017 0.44541 0.47844 0.0
C2271 C 0.82273 0.46173 0.49847 0.0
C2272 C 0.83633 0.48565 0.49131 0.0
C2273 C 0.83741 0.49279 0.46402 0.0
C2274 C 0.82594 0.47671 0.4441 0.0
C2275 C 0.82826 0.48983 0.41649 0.0
C2276 C 0.84619 0.4728 0.39755 0.0
C2277 C 0.8001 0.49477 0.404 0.0
C2278 C 0.842 0.51619 0.42411 0.0
C2279 C 0.84732 0.51746 0.45158 0.0
C2280 C 0.858 0.54071 0.46362 0.0
C2281 C 0.86313 0.56335 0.44719 0.0
C2282 C 0.85757 0.56252 0.41904 0.0
C2283 C 0.84732 0.53841 0.40741 0.0
H2284 H 0.79492 0.44795 0.76273 0.0
H2285 H 0.85124 0.44547 0.83022 0.0
H2286 H 0.81653 0.4228 0.85826 0.0
H2287 H 0.73878 0.4655 0.79998 0.0
H2288 H 0.71476 0.44547 0.78104 0.0
H2289 H 0.74515 0.45746 0.7649 0.0
H2290 H 0.75795 0.40825 0.75166 0.0
H2291 H 0.72737 0.39609 0.76754 0.0
H2292 H 0.75977 0.38254 0.77753 0.0
H2293 H 0.77421 0.40595 0.88047 0.0
H2294 H 0.7277 0.39453 0.89488 0.0
H2295 H 0.69905 0.40813 0.81278 0.0
C2296 C 0.8002 0.44192 0.78315 0.0
C2297 C 0.82576 0.44828 0.79431 0.0
C2298 C 0.83179 0.44061 0.82127 0.0
C2299 C 0.81223 0.42771 0.83733 0.0
C2300 C 0.78688 0.42251 0.826 0.0
C2301 C 0.78091 0.42912 0.79944 0.0
C2302 C 0.75149 0.42347 0.79284 0.0
C2303 C 0.73669 0.44953 0.7842 0.0
C2304 C 0.74901 0.40126 0.77111 0.0
C2305 C 0.74165 0.4135 0.82008 0.0
C2306 C 0.76241 0.41283 0.83886 0.0
C2307 C 0.75786 0.40597 0.86585 0.0
C2308 C 0.73135 0.39967 0.87387 0.0
C2309 C 0.70974 0.40042 0.85496 0.0
C2310 C 0.71515 0.40712 0.82768 0.0
H2311 H 0.78823 0.57303 0.07122 0.0
H2312 H 0.81793 0.56332 0.98904 0.0
H2313 H 0.84627 0.52499 0.00371 0.0
H2314 H 0.85233 0.55207 0.10657 0.0
H2315 H 0.83393 0.53426 0.13262 0.0
H2316 H 0.81926 0.56372 0.11679 0.0
H2317 H 0.77677 0.53556 0.10398 0.0
H2318 H 0.79132 0.50606 0.1196 0.0
H2319 H 0.78079 0.50479 0.08465 0.0
H2320 H 0.86565 0.48417 0.02499 0.0
H2321 H 0.87623 0.44369 0.05238 0.0
H2322 H 0.83531 0.47957 0.12138 0.0
C2323 C 0.80136 0.56333 0.05656 0.0
C2324 C 0.80108 0.5712 0.02905 0.0
C2325 C 0.81794 0.55763 0.01023 0.0
C2326 C 0.83418 0.5359 0.01838 0.0
C2327 C 0.83344 0.52806 0.04546 0.0
C2328 C 0.81765 0.54142 0.06437 0.0
C2329 C 0.81864 0.52718 0.09159 0.0
C2330 C 0.83184 0.5454 0.11317 0.0
C2331 C 0.7902 0.51784 0.10045 0.0
C2332 C 0.83664 0.50327 0.08468 0.0
C2333 C 0.84512 0.50437 0.05801 0.0
C2334 C 0.8597 0.48335 0.04608 0.0
C2335 C 0.86551 0.46043 0.06171 0.0
C2336 C 0.85689 0.4588 0.08899 0.0
C2337 C 0.84274 0.48071 0.10077 0.0
H2338 H 0.70374 0.55795 0.25656 0.0
H2339 H 0.64694 0.5665 0.32307 0.0
H2340 H 0.68147 0.59151 0.34936 0.0
H2341 H 0.75926 0.54316 0.29643 0.0
H2342 H 0.78386 0.56098 0.27613 0.0
H2343 H 0.75354 0.54792 0.26066 0.0
H2344 H 0.74178 0.59582 0.24267 0.0
H2345 H 0.77224 0.60904 0.25795 0.0
H2346 H 0.73987 0.62388 0.26602 0.0
H2347 H 0.72318 0.61083 0.3702 0.0
H2348 H 0.76948 0.62283 0.38458 0.0
H2349 H 0.79979 0.60066 0.30495 0.0
C2350 C 0.69835 0.56585 0.27632 0.0
C2351 C 0.67265 0.56065 0.28773 0.0
C2352 C 0.66651 0.5705 0.31395 0.0
C2353 C 0.68594 0.58477 0.32898 0.0
C2354 C 0.71139 0.58893 0.31748 0.0
C2355 C 0.71764 0.57985 0.29172 0.0
C2356 C 0.74729 0.58449 0.2852 0.0
C2357 C 0.76183 0.55754 0.27927 0.0
C2358 C 0.75047 0.60451 0.26156 0.0
C2359 C 0.75687 0.59688 0.31161 0.0
C2360 C 0.73575 0.59961 0.32979 0.0
C2361 C 0.73983 0.60912 0.35604 0.0
C2362 C 0.76625 0.61577 0.36405 0.0
C2363 C 0.78831 0.61267 0.34592 0.0
C2364 C 0.78337 0.60347 0.31923 0.0
H2365 H 0.70497 0.46496 0.50834 0.0
H2366 H 0.69203 0.40636 0.57254 0.0
H2367 H 0.6669 0.44075 0.5988 0.0
H2368 H 0.72005 0.51839 0.54995 0.0
H2369 H 0.7038 0.5443 0.53003 0.0
H2370 H 0.71607 0.51403 0.51389 0.0
H2371 H 0.66829 0.50462 0.4942 0.0
H2372 H 0.65586 0.53508 0.51012 0.0
H2373 H 0.63953 0.50303 0.51667 0.0
H2374 H 0.64918 0.4824 0.62053 0.0
H2375 H 0.63979 0.52869 0.63664 0.0
H2376 H 0.66475 0.56101 0.55873 0.0
C2377 C 0.69603 0.45914 0.52751 0.0
C2378 C 0.70012 0.43296 0.53835 0.0
C2379 C 0.68889 0.42626 0.56384 0.0
C2380 C 0.67454 0.44563 0.57883 0.0
C2381 C 0.67161 0.47154 0.56799 0.0
C2382 C 0.68188 0.47832 0.54284 0.0
C2383 C 0.67861 0.50835 0.53719 0.0
C2384 C 0.70628 0.52206 0.5325 0.0
C2385 C 0.65942 0.51304 0.51312 0.0
C2386 C 0.66586 0.51757 0.56353 0.0
C2387 C 0.66161 0.49591 0.5808 0.0
C2388 C 0.65198 0.49946 0.60705 0.0
C2389 C 0.64689 0.52586 0.61605 0.0
C2390 C 0.65156 0.54844 0.59892 0.0
C2391 C 0.66065 0.54413 0.57213 0.0
H2392 H 0.74129 0.79657 0.54974 0.0
H2393 H 0.67591 0.85395 0.56225 0.0
H2394 H 0.65095 0.81973 0.58888 0.0
H2395 H 0.70046 0.74088 0.53811 0.0
H2396 H 0.72182 0.71657 0.55499 0.0
H2397 H 0.73646 0.74669 0.54061 0.0
H2398 H 0.75738 0.75914 0.58717 0.0
H2399 H 0.74286 0.72892 0.60172 0.0
H2400 H 0.73579 0.76157 0.61654 0.0
H2401 H 0.63083 0.77807 0.60922 0.0
H2402 H 0.61686 0.73173 0.62183 0.0
H2403 H 0.69528 0.70129 0.59603 0.0
C2404 C 0.72205 0.80214 0.55872 0.0
C2405 C 0.71057 0.82791 0.55414 0.0
C2406 C 0.68509 0.83431 0.56564 0.0
C2407 C 0.67082 0.81506 0.58087 0.0
C2408 C 0.68237 0.78957 0.58446 0.0
C2409 C 0.70748 0.7831 0.57384 0.0
C2410 C 0.71422 0.75353 0.5785 0.0
C2411 C 0.71848 0.73855 0.55144 0.0
C2412 C 0.73904 0.75063 0.5971 0.0
C2413 C 0.6886 0.7442 0.59258 0.0
C2414 C 0.67065 0.76538 0.59614 0.0
C2415 C 0.64487 0.76139 0.60694 0.0
C2416 C 0.63709 0.73498 0.61394 0.0
C2417 C 0.65498 0.71289 0.60999 0.0
C2418 C 0.68125 0.71777 0.59965 0.0
H2419 H 0.19478 0.68159 0.45634 0.0
H2420 H 0.28084 0.69627 0.44576 0.0
H2421 H 0.27057 0.73769 0.41954 0.0
H2422 H 0.1733 0.70687 0.38925 0.0
H2423 H 0.14276 0.72163 0.40277 0.0
H2424 H 0.15701 0.69181 0.41827 0.0
H2425 H 0.15857 0.71667 0.4646 0.0
H2426 H 0.14442 0.74651 0.44925 0.0
H2427 H 0.17615 0.74863 0.46723 0.0
H2428 H 0.25075 0.78033 0.39926 0.0
H2429 H 0.22286 0.8195 0.38495 0.0
H2430 H 0.15011 0.77539 0.40749 0.0
C2431 C 0.21146 0.69323 0.44806 0.0
C2432 C 0.23858 0.68576 0.45298 0.0
C2433 C 0.25988 0.70161 0.44205 0.0
C2434 C 0.25426 0.72514 0.42714 0.0
C2435 C 0.22724 0.73227 0.4231 0.0
C2436 C 0.2062 0.7166 0.43301 0.0
C2437 C 0.179 0.72937 0.4272 0.0
C2438 C 0.16202 0.71134 0.40824 0.0
C2439 C 0.16365 0.73567 0.45364 0.0
C2440 C 0.18802 0.75502 0.41311 0.0
C2441 C 0.21589 0.75637 0.41083 0.0
C2442 C 0.22888 0.77926 0.40045 0.0
C2443 C 0.21292 0.80141 0.39245 0.0
C2444 C 0.18434 0.80036 0.39481 0.0
C2445 C 0.17187 0.77664 0.40486 0.0
H2446 H 0.56706 0.92763 0.70665 0.0
H2447 H 0.5616 0.00835 0.67224 0.0
H2448 H 0.5197 0.99533 0.64836 0.0
H2449 H 0.53706 0.89044 0.64683 0.0
H2450 H 0.51924 0.86713 0.6686 0.0
H2451 H 0.5513 0.88119 0.67916 0.0
H2452 H 0.52892 0.89872 0.7233 0.0
H2453 H 0.49681 0.88504 0.71278 0.0
H2454 H 0.49969 0.92051 0.72112 0.0
H2455 H 0.47525 0.97654 0.6346 0.0
H2456 H 0.43198 0.95193 0.62937 0.0
H2457 H 0.46611 0.8828 0.6716 0.0
C2458 C 0.55753 0.94222 0.69333 0.0
C2459 C 0.5676 0.96894 0.69113 0.0
C2460 C 0.55425 0.98774 0.67409 0.0
C2461 C 0.53048 0.98052 0.66041 0.0
C2462 C 0.52044 0.95435 0.66379 0.0
C2463 C 0.53368 0.93533 0.67953 0.0
C2464 C 0.51723 0.90945 0.68177 0.0
C2465 C 0.5321 0.88564 0.66828 0.0
C2466 C 0.51025 0.90308 0.7115 0.0
C2467 C 0.49223 0.91737 0.66582 0.0
C2468 C 0.49465 0.94326 0.65543 0.0
C2469 C 0.4733 0.95602 0.64209 0.0
C2470 C 0.44877 0.94197 0.63939 0.0
C2471 C 0.44584 0.91545 0.64991 0.0
C2472 C 0.468 0.90287 0.6629 0.0
H2473 H 0.25459 0.2933 0.94997 0.0
H2474 H 0.31495 0.3544 0.93087 0.0
H2475 H 0.34072 0.32051 0.90449 0.0
H2476 H 0.30031 0.24127 0.96194 0.0
H2477 H 0.27967 0.21458 0.94783 0.0
H2478 H 0.26391 0.24438 0.96168 0.0
H2479 H 0.23911 0.25257 0.91612 0.0
H2480 H 0.25482 0.22272 0.9021 0.0
H2481 H 0.25849 0.25491 0.88524 0.0
H2482 H 0.36197 0.27958 0.88431 0.0
H2483 H 0.37859 0.23392 0.87304 0.0
H2484 H 0.30495 0.19869 0.90594 0.0
C2485 C 0.27288 0.29969 0.93965 0.0
C2486 C 0.28269 0.32651 0.94215 0.0
C2487 C 0.30705 0.33399 0.92902 0.0
C2488 C 0.32172 0.31492 0.91392 0.0
C2489 C 0.31175 0.2885 0.91224 0.0
C2490 C 0.2879 0.28084 0.92475 0.0
C2491 C 0.28304 0.2506 0.92203 0.0
C2492 C 0.28167 0.23692 0.95003 0.0
C2493 C 0.25734 0.24487 0.90537 0.0
C2494 C 0.30829 0.24231 0.90668 0.0
C2495 C 0.32432 0.26459 0.9009 0.0
C2496 C 0.34945 0.26202 0.88841 0.0
C2497 C 0.35874 0.23597 0.88219 0.0
C2498 C 0.34304 0.21275 0.88857 0.0
C2499 C 0.3172 0.21607 0.90042 0.0
H2500 H 0.43848 0.56557 0.71646 0.0
H2501 H 0.44941 0.48334 0.68709 0.0
H2502 H 0.48946 0.49805 0.66099 0.0
H2503 H 0.46095 0.60014 0.6536 0.0
H2504 H 0.47767 0.62685 0.67216 0.0
H2505 H 0.44817 0.61048 0.68623 0.0
H2506 H 0.47537 0.59873 0.7296 0.0
H2507 H 0.50488 0.61499 0.71568 0.0
H2508 H 0.50668 0.58018 0.72659 0.0
H2509 H 0.53096 0.52019 0.64278 0.0
H2510 H 0.57069 0.54884 0.63234 0.0
H2511 H 0.53203 0.61713 0.67199 0.0
C2512 C 0.44903 0.55078 0.70414 0.0
C2513 C 0.44089 0.52334 0.70372 0.0
C2514 C 0.45529 0.50449 0.68759 0.0
C2515 C 0.478 0.51266 0.67266 0.0
C2516 C 0.48579 0.53978 0.67386 0.0
C2517 C 0.47163 0.55863 0.68898 0.0
C2518 C 0.48521 0.58616 0.6881 0.0
C2519 C 0.46691 0.60715 0.67419 0.0
C2520 C 0.49353 0.59555 0.71668 0.0
C2521 C 0.5097 0.57961 0.67086 0.0
C2522 C 0.50954 0.55278 0.66272 0.0
C2523 C 0.5311 0.54136 0.64855 0.0
C2524 C 0.55357 0.55772 0.64282 0.0
C2525 C 0.5542 0.58519 0.65114 0.0
C2526 C 0.53177 0.59636 0.66487 0.0
H2527 H 0.81572 0.18173 0.06499 0.0
H2528 H 0.73595 0.19116 0.10069 0.0
H2529 H 0.75201 0.23152 0.12563 0.0
H2530 H 0.85571 0.20756 0.12467 0.0
H2531 H 0.87967 0.22444 0.10285 0.0
H2532 H 0.86339 0.19361 0.09178 0.0
H2533 H 0.84637 0.21813 0.0486 0.0
H2534 H 0.86239 0.24899 0.05956 0.0
H2535 H 0.82665 0.24869 0.05201 0.0
H2536 H 0.77413 0.27442 0.14043 0.0
H2537 H 0.80109 0.31637 0.14491 0.0
H2538 H 0.86691 0.27891 0.10033 0.0
C2539 C 0.80188 0.19179 0.07872 0.0
C2540 C 0.77464 0.18327 0.08107 0.0
C2541 C 0.75695 0.19727 0.09876 0.0
C2542 C 0.76592 0.22016 0.11306 0.0
C2543 C 0.79268 0.22858 0.10962 0.0
C2544 C 0.81051 0.21466 0.0931 0.0
C2545 C 0.83732 0.22946 0.09067 0.0
C2546 C 0.86039 0.21277 0.10325 0.0
C2547 C 0.84352 0.23675 0.06096 0.0
C2548 C 0.83137 0.25449 0.10739 0.0
C2549 C 0.80564 0.25339 0.11845 0.0
C2550 C 0.79453 0.27526 0.13242 0.0
C2551 C 0.80993 0.29903 0.13475 0.0
C2552 C 0.83614 0.30072 0.12318 0.0
C2553 C 0.84719 0.27792 0.10992 0.0
H2554 H 0.54168 0.00986 0.7953 0.0
H2555 H 0.60235 0.07248 0.80729 0.0
H2556 H 0.56912 0.0996 0.8332 0.0
H2557 H 0.48848 0.0531 0.7822 0.0
H2558 H 0.46291 0.03312 0.79901 0.0
H2559 H 0.49246 0.0169 0.78524 0.0
H2560 H 0.50318 0.99611 0.83225 0.0
H2561 H 0.47355 0.01226 0.8462 0.0
H2562 H 0.50629 0.01799 0.86137 0.0
H2563 H 0.52815 0.12189 0.85301 0.0
H2564 H 0.4824 0.13829 0.86448 0.0
H2565 H 0.44836 0.0611 0.83913 0.0
C2566 C 0.54818 0.02898 0.80396 0.0
C2567 C 0.5746 0.03905 0.79951 0.0
C2568 C 0.58222 0.06438 0.81064 0.0
C2569 C 0.56353 0.07984 0.82545 0.0
C2570 C 0.53742 0.06957 0.82897 0.0
C2571 C 0.52978 0.04467 0.81862 0.0
C2572 C 0.49986 0.03937 0.82294 0.0
C2573 C 0.48508 0.03541 0.79573 0.0
C2574 C 0.49547 0.01498 0.84182 0.0
C2575 C 0.49165 0.06558 0.83654 0.0
C2576 C 0.51367 0.08256 0.8402 0.0
C2577 C 0.51082 0.10863 0.85061 0.0
C2578 C 0.48472 0.11778 0.85698 0.0
C2579 C 0.46178 0.10097 0.85273 0.0
C2580 C 0.46548 0.07432 0.84295 0.0
H2581 H 0.95979 0.9779 0.30243 0.0
H2582 H 0.9097 0.90573 0.2972 0.0
H2583 H 0.94547 0.87941 0.32048 0.0
H2584 H 0.02082 0.94634 0.28711 0.0
H2585 H 0.04118 0.96658 0.30975 0.0
H2586 H 0.01043 0.98027 0.29584 0.0
H2587 H 0.99265 0.9901 0.34429 0.0
H2588 H 0.02346 0.97648 0.35838 0.0
H2589 H 0.99111 0.963 0.36873 0.0
H2590 H 0.98841 0.86031 0.34051 0.0
H2591 H 0.03502 0.84974 0.35518 0.0
H2592 H 0.05685 0.93466 0.34688 0.0
C2593 C 0.95608 0.95668 0.30669 0.0
C2594 C 0.93192 0.94385 0.2982 0.0
C2595 C 0.92802 0.91596 0.30371 0.0
C2596 C 0.94819 0.90089 0.31694 0.0
C2597 C 0.97202 0.91408 0.32459 0.0
C2598 C 0.97598 0.94139 0.31975 0.0
C2599 C 0.0041 0.95037 0.32813 0.0
C2600 C 0.02006 0.96153 0.30376 0.0
C2601 C 0.00274 0.97122 0.35126 0.0
C2602 C 0.01565 0.92371 0.33785 0.0
C2603 C 0.99676 0.90307 0.33593 0.0
C2604 C 0.00325 0.87638 0.3424 0.0
C2605 C 0.02982 0.87058 0.35068 0.0
C2606 C 0.04966 0.89137 0.35226 0.0
C2607 C 0.04218 0.91832 0.34616 0.0
H2608 H 0.45964 0.32034 0.18438 0.0
H2609 H 0.41283 0.24589 0.18107 0.0
H2610 H 0.3818 0.2638 0.2158 0.0
H2611 H 0.4586 0.32716 0.25319 0.0
H2612 H 0.45563 0.36356 0.2542 0.0
H2613 H 0.47104 0.34743 0.22544 0.0
H2614 H 0.43671 0.3711 0.19356 0.0
H2615 H 0.4212 0.38737 0.22238 0.0
H2616 H 0.40088 0.36726 0.19959 0.0
H2617 H 0.36136 0.28534 0.2558 0.0
H2618 H 0.35249 0.30975 0.2986 0.0
H2619 H 0.41087 0.37133 0.27596 0.0
C2620 C 0.44233 0.30823 0.19038 0.0
C2621 C 0.43848 0.28183 0.17998 0.0
C2622 C 0.41607 0.26622 0.18876 0.0
C2623 C 0.39824 0.27628 0.20835 0.0
C2624 C 0.40298 0.30207 0.21883 0.0
C2625 C 0.42435 0.31798 0.21007 0.0
C2626 C 0.42672 0.34361 0.22689 0.0
C2627 C 0.45465 0.34552 0.24075 0.0
C2628 C 0.42103 0.36883 0.20957 0.0
C2629 C 0.40427 0.33889 0.24731 0.0
C2630 C 0.39055 0.31499 0.24197 0.0
C2631 C 0.37131 0.3045 0.25977 0.0
C2632 C 0.36642 0.31841 0.284 0.0
C2633 C 0.38052 0.34262 0.29 0.0
C2634 C 0.39911 0.35339 0.27116 0.0
H2635 H 0.4865 0.68596 0.95625 0.0
H2636 H 0.41828 0.68196 0.90095 0.0
H2637 H 0.39231 0.6559 0.93496 0.0
H2638 H 0.47535 0.61825 0.99008 0.0
H2639 H 0.48521 0.63186 0.02254 0.0
H2640 H 0.50022 0.645 0.99193 0.0
H2641 H 0.48529 0.6935 0.00551 0.0
H2642 H 0.47013 0.68055 0.03595 0.0
H2643 H 0.45002 0.7 0.01249 0.0
H2644 H 0.37148 0.63733 0.97727 0.0
H2645 H 0.35736 0.62787 0.02426 0.0
H2646 H 0.43925 0.64426 0.05203 0.0
C2647 C 0.46644 0.67878 0.95093 0.0
C2648 C 0.45443 0.68577 0.92593 0.0
C2649 C 0.42791 0.67661 0.91993 0.0
C2650 C 0.41306 0.66174 0.93909 0.0
C2651 C 0.42515 0.65604 0.964 0.0
C2652 C 0.45136 0.66408 0.96984 0.0
C2653 C 0.45857 0.65842 -0.00089 0.0
C2654 C 0.48118 0.63711 0.00101 0.0
C2655 C 0.46644 0.68468 0.01413 0.0
C2656 C 0.43189 0.64718 0.0092 0.0
C2657 C 0.41303 0.64547 0.98854 0.0
C2658 C 0.38623 0.63806 0.99349 0.0
C2659 C 0.37838 0.63284 0.02029 0.0
C2660 C 0.39721 0.63528 0.04184 0.0
C2661 C 0.42446 0.64181 0.036 0.0
H2662 H 0.03668 0.75734 0.70994 0.0
H2663 H 0.03401 0.69188 0.65121 0.0
H2664 H 0.06254 0.66382 0.68125 0.0
H2665 H 0.10602 0.74602 0.73416 0.0
H2666 H 0.09754 0.75346 0.7689 0.0
H2667 H 0.07906 0.76945 0.74177 0.0
H2668 H 0.03387 0.75133 0.76154 0.0
H2669 H 0.05218 0.73551 0.78879 0.0
H2670 H 0.03005 0.7155 0.76765 0.0
H2671 H 0.08958 0.64241 0.71796 0.0
H2672 H 0.1096 0.62697 0.76088 0.0
H2673 H 0.09348 0.70572 0.79689 0.0
C2674 C 0.0424 0.73721 0.70331 0.0
C2675 C 0.03337 0.72677 0.67822 0.0
C2676 C 0.04078 0.70021 0.67037 0.0
C2677 C 0.05711 0.68423 0.68719 0.0
C2678 C 0.0657 0.6951 0.71181 0.0
C2679 C 0.05841 0.72086 0.72001 0.0
C2680 C 0.06852 0.72683 0.74841 0.0
C2681 C 0.08901 0.75033 0.74829 0.0
C2682 C 0.04474 0.73262 0.76773 0.0
C2683 C 0.0822 0.70019 0.75507 0.0
C2684 C 0.08072 0.68239 0.73347 0.0
C2685 C 0.09097 0.65618 0.73499 0.0
C2686 C 0.10231 0.64762 0.75951 0.0
C2687 C 0.10305 0.66509 0.78234 0.0
C2688 C 0.09345 0.69195 0.77978 0.0
H2689 H 0.06895 0.28292 0.43516 0.0
H2690 H 0.98518 0.30799 0.44473 0.0
H2691 H 0.99764 0.33425 0.48533 0.0
H2692 H 0.08245 0.27304 0.50428 0.0
H2693 H 0.11669 0.28577 0.50322 0.0
H2694 H 0.10181 0.27102 0.47336 0.0
H2695 H 0.11216 0.31505 0.44657 0.0
H2696 H 0.12701 0.32988 0.47649 0.0
H2697 H 0.09987 0.34707 0.45915 0.0
H2698 H 0.01767 0.35368 0.52697 0.0
H2699 H 0.04476 0.36641 0.56705 0.0
H2700 H 0.11599 0.33009 0.53046 0.0
C2701 C 0.05338 0.29436 0.44554 0.0
C2702 C 0.02613 0.29351 0.4368 0.0
C2703 C 0.0062 0.3084 0.45108 0.0
C2704 C 0.01307 0.32344 0.47411 0.0
C2705 C 0.03998 0.32351 0.48251 0.0
C2706 C 0.0599 0.30953 0.46864 0.0
C2707 C 0.087 0.31182 0.48296 0.0
C2708 C 0.09759 0.28374 0.49146 0.0
C2709 C 0.10773 0.32686 0.46523 0.0
C2710 C 0.07895 0.32865 0.50735 0.0
C2711 C 0.05176 0.33526 0.50656 0.0
C2712 C 0.03909 0.34904 0.52766 0.0
C2713 C 0.05458 0.35608 0.55035 0.0
C2714 C 0.08244 0.34943 0.55166 0.0
C2715 C 0.09484 0.3359 0.5297 0.0
H2716 H 0.45364 0.67996 0.32394 0.0
H2717 H 0.42636 0.76307 0.31488 0.0
H2718 H 0.40325 0.75079 0.27231 0.0
H2719 H 0.46904 0.66889 0.25622 0.0
H2720 H 0.45756 0.63422 0.25492 0.0
H2721 H 0.46914 0.64842 0.28646 0.0
H2722 H 0.42349 0.63591 0.30925 0.0
H2723 H 0.41185 0.62137 0.2778 0.0
H2724 H 0.39219 0.64735 0.29432 0.0
H2725 H 0.38832 0.73127 0.22829 0.0
H2726 H 0.37961 0.70473 0.18676 0.0
H2727 H 0.41519 0.63378 0.22457 0.0
C2728 C 0.4422 0.69538 0.31335 0.0
C2729 C 0.44167 0.72244 0.32275 0.0
C2730 C 0.42691 0.74219 0.3081 0.0
C2731 C 0.41372 0.73542 0.2839 0.0
C2732 C 0.41528 0.70876 0.27475 0.0
C2733 C 0.42884 0.68894 0.28914 0.0
C2734 C 0.42879 0.66222 0.27393 0.0
C2735 C 0.45786 0.65291 0.26751 0.0
C2736 C 0.41314 0.64042 0.28977 0.0
C2737 C 0.41377 0.67037 0.24844 0.0
C2738 C 0.40611 0.69729 0.24939 0.0
C2739 C 0.39375 0.71004 0.22748 0.0
C2740 C 0.38904 0.69486 0.20394 0.0
C2741 C 0.39655 0.6672 0.20258 0.0
C2742 C 0.40881 0.65477 0.22525 0.0
H2743 H 0.08296 0.7147 0.06085 0.0
H2744 H 0.00324 0.6774 0.05967 0.0
H2745 H 0.016 0.65123 0.01909 0.0
H2746 H 0.08868 0.72394 0.99161 0.0
H2747 H 0.12435 0.71644 0.98934 0.0
H2748 H 0.11049 0.72946 0.02042 0.0
H2749 H 0.12954 0.68808 0.0465 0.0
H2750 H 0.14355 0.67493 0.01542 0.0
H2751 H 0.12098 0.6543 0.03542 0.0
H2752 H 0.03461 0.63419 0.97576 0.0
H2753 H 0.05873 0.62612 0.93269 0.0
H2754 H 0.12718 0.67287 0.9622 0.0
C2755 C 0.06845 0.70054 0.05239 0.0
C2756 C 0.04215 0.69799 0.0634 0.0
C2757 C 0.02353 0.6796 0.05158 0.0
C2758 C 0.03061 0.66457 0.02859 0.0
C2759 C 0.05647 0.66797 0.01785 0.0
C2760 C 0.07523 0.6853 0.02944 0.0
C2761 C 0.1009 0.68671 0.01263 0.0
C2762 C 0.10641 0.71586 0.00293 0.0
C2763 C 0.12518 0.67532 0.02844 0.0
C2764 C 0.09319 0.6683 0.98927 0.0
C2765 C 0.06755 0.65753 0.99286 0.0
C2766 C 0.05492 0.64198 0.97295 0.0
C2767 C 0.0687 0.6376 0.94856 0.0
C2768 C 0.09487 0.64861 0.94439 0.0
C2769 C 0.10747 0.66367 0.96521 0.0
H2770 H 0.05224 0.26198 0.79531 0.0
H2771 H 0.0612 0.3287 0.85192 0.0
H2772 H 0.08903 0.35339 0.81834 0.0
H2773 H 0.12031 0.26796 0.76257 0.0
H2774 H 0.10664 0.25992 0.72965 0.0
H2775 H 0.09144 0.2457 0.75967 0.0
H2776 H 0.04487 0.26537 0.74548 0.0
H2777 H 0.05989 0.27962 0.71553 0.0
H2778 H 0.04189 0.30119 0.73888 0.0
H2779 H 0.11045 0.3731 0.77677 0.0
H2780 H 0.12289 0.3868 0.73034 0.0
H2781 H 0.09981 0.30716 0.70074 0.0
C2782 C 0.0607 0.28145 0.80093 0.0
C2783 C 0.05479 0.29337 0.82627 0.0
C2784 C 0.06567 0.31915 0.83267 0.0
C2785 C 0.08157 0.33326 0.81376 0.0
C2786 C 0.08647 0.32121 0.78866 0.0
C2787 C 0.07645 0.29582 0.78227 0.0
C2788 C 0.08214 0.28856 0.75299 0.0
C2789 C 0.10128 0.26408 0.75112 0.0
C2790 C 0.05562 0.2834 0.73731 0.0
C2791 C 0.09602 0.31426 0.74359 0.0
C2792 C 0.09873 0.33267 0.76457 0.0
C2793 C 0.10888 0.35868 0.76031 0.0
C2794 C 0.11583 0.3663 0.73383 0.0
C2795 C 0.11245 0.34801 0.71191 0.0
C2796 C 0.10311 0.32143 0.7171 0.0
H2797 H 0.43876 0.30547 0.57125 0.0
H2798 H 0.52037 0.33485 0.5566 0.0
H2799 H 0.50485 0.35694 0.51455 0.0
H2800 H 0.42497 0.28709 0.50631 0.0
H2801 H 0.38986 0.29712 0.50595 0.0
H2802 H 0.40581 0.28806 0.5374 0.0
H2803 H 0.39269 0.33452 0.55809 0.0
H2804 H 0.37628 0.34363 0.52675 0.0
H2805 H 0.40217 0.36529 0.54082 0.0
H2806 H 0.48256 0.36901 0.47091 0.0
H2807 H 0.4542 0.37287 0.42989 0.0
H2808 H 0.38684 0.33619 0.47304 0.0
C2809 C 0.45314 0.31737 0.55968 0.0
C2810 C 0.48071 0.31861 0.5672 0.0
C2811 C 0.4991 0.33382 0.55127 0.0
C2812 C 0.49047 0.34645 0.52736 0.0
C2813 C 0.46336 0.34388 0.51988 0.0
C2814 C 0.44485 0.33008 0.53577 0.0
C2815 C 0.41753 0.3281 0.52191 0.0
C2816 C 0.40907 0.29833 0.51764 0.0
C2817 C 0.39589 0.34383 0.53784 0.0
C2818 C 0.42393 0.34187 0.49528 0.0
C2819 C 0.45038 0.35109 0.49463 0.0
C2820 C 0.46165 0.3624 0.47136 0.0
C2821 C 0.44545 0.36431 0.44811 0.0
C2822 C 0.41831 0.35491 0.44834 0.0
C2823 C 0.40739 0.34392 0.47238 0.0
H2824 H 0.19927 0.4384 0.26379 0.0
H2825 H 0.14586 0.43994 0.33356 0.0
H2826 H 0.1796 0.41391 0.35987 0.0
H2827 H 0.23012 0.37021 0.27671 0.0
H2828 H 0.26295 0.38169 0.26552 0.0
H2829 H 0.23267 0.39592 0.25089 0.0
H2830 H 0.2492 0.44414 0.26381 0.0
H2831 H 0.27937 0.4301 0.27855 0.0
H2832 H 0.25759 0.45148 0.29862 0.0
H2833 H 0.22148 0.39346 0.38018 0.0
H2834 H 0.26815 0.38095 0.39306 0.0
H2835 H 0.29418 0.39335 0.30993 0.0
C2836 C 0.19431 0.43252 0.28434 0.0
C2837 C 0.16991 0.44095 0.29661 0.0
C2838 C 0.16439 0.43348 0.32374 0.0
C2839 C 0.18339 0.41864 0.3388 0.0
C2840 C 0.20767 0.41134 0.32633 0.0
C2841 C 0.21308 0.4179 0.29964 0.0
C2842 C 0.24176 0.4104 0.29185 0.0
C2843 C 0.24187 0.38823 0.26994 0.0
C2844 C 0.25792 0.43552 0.28269 0.0
C2845 C 0.25202 0.39961 0.31862 0.0
C2846 C 0.23194 0.39985 0.33814 0.0
C2847 C 0.23724 0.39274 0.36495 0.0
C2848 C 0.26385 0.38573 0.37208 0.0
C2849 C 0.28487 0.38616 0.35252 0.0
C2850 C 0.27858 0.39257 0.32534 0.0
H2851 H 0.2977 0.45949 0.0088 0.0
H2852 H 0.29736 0.40278 0.07593 0.0
H2853 H 0.31966 0.43709 0.10491 0.0
H2854 H 0.36271 0.49389 0.02547 0.0
H2855 H 0.34978 0.52656 0.01551 0.0
H2856 H 0.33755 0.49626 -0.00091 0.0
H2857 H 0.28826 0.50952 0.01146 0.0
H2858 H 0.30032 0.53967 0.02808 0.0
H2859 H 0.27964 0.51577 0.04641 0.0
H2860 H 0.33747 0.47888 0.12769 0.0
H2861 H 0.34962 0.525 0.14271 0.0
H2862 H 0.33741 0.55472 0.06078 0.0
C2863 C 0.30303 0.45403 0.02937 0.0
C2864 C 0.29609 0.42843 0.0401 0.0
C2865 C 0.30272 0.42224 0.0673 0.0
C2866 C 0.3154 0.44157 0.08388 0.0
C2867 C 0.32129 0.46692 0.07289 0.0
C2868 C 0.31545 0.47315 0.04622 0.0
C2869 C 0.32162 0.50258 0.04002 0.0
C2870 C 0.34427 0.50495 0.01877 0.0
C2871 C 0.29593 0.51776 0.03097 0.0
C2872 C 0.33118 0.51211 0.06756 0.0
C2873 C 0.33115 0.49118 0.08615 0.0
C2874 C 0.33789 0.49536 0.11324 0.0
C2875 C 0.34468 0.52168 0.12159 0.0
C2876 C 0.34447 0.54353 0.10294 0.0
C2877 C 0.33793 0.53848 0.07552 0.0
H2878 H 0.3227 0.54507 0.81931 0.0
H2879 H 0.32113 0.57307 0.73599 0.0
H2880 H 0.28189 0.60212 0.7465 0.0
H2881 H 0.25399 0.53867 0.82719 0.0
H2882 H 0.25249 0.55023 0.86182 0.0
H2883 H 0.28302 0.53502 0.84908 0.0
H2884 H 0.31044 0.5777 0.86291 0.0
H2885 H 0.27994 0.59302 0.87589 0.0
H2886 H 0.29996 0.61055 0.85087 0.0
H2887 H 0.23887 0.62201 0.76383 0.0
H2888 H 0.19637 0.63346 0.78775 0.0
H2889 H 0.2267 0.5942 0.86027 0.0
C2890 C 0.31458 0.55792 0.8035 0.0
C2891 C 0.32498 0.55691 0.77688 0.0
C2892 C 0.31354 0.57364 0.75658 0.0
C2893 C 0.29128 0.59025 0.76235 0.0
C2894 C 0.28094 0.59016 0.7886 0.0
C2895 C 0.29242 0.57473 0.80897 0.0
C2896 C 0.27607 0.57658 0.83487 0.0
C2897 C 0.26579 0.54846 0.84374 0.0
C2898 C 0.29259 0.59029 0.85747 0.0
C2899 C 0.25303 0.59452 0.82553 0.0
C2900 C 0.25632 0.60231 0.79883 0.0
C2901 C 0.23635 0.61664 0.78493 0.0
C2902 C 0.21227 0.62293 0.7986 0.0
C2903 C 0.20848 0.61503 0.8259 0.0
C2904 C 0.22937 0.60111 0.83961 0.0
H2905 H 0.2064 0.56842 0.57222 0.0
H2906 H 0.18167 0.56157 0.48812 0.0
H2907 H 0.15234 0.52268 0.4999 0.0
H2908 H 0.21245 0.50014 0.58479 0.0
H2909 H 0.19965 0.50115 0.61898 0.0
H2910 H 0.21551 0.53067 0.60468 0.0
H2911 H 0.17254 0.55903 0.61501 0.0
H2912 H 0.15652 0.52952 0.62945 0.0
H2913 H 0.1401 0.54779 0.60244 0.0
H2914 H 0.13129 0.48065 0.51958 0.0
H2915 H 0.11886 0.4399 0.54603 0.0
H2916 H 0.15586 0.47541 0.61751 0.0
C2917 C 0.1943 0.55915 0.5564 0.0
C2918 C 0.19622 0.56801 0.52928 0.0
C2919 C 0.18036 0.55518 0.50907 0.0
C2920 C 0.16362 0.53311 0.51557 0.0
C2921 C 0.1627 0.52441 0.54243 0.0
C2922 C 0.17737 0.53726 0.56258 0.0
C2923 C 0.17445 0.52278 0.58945 0.0
C2924 C 0.20215 0.51311 0.60007 0.0
C2925 C 0.16004 0.54086 0.61032 0.0
C2926 C 0.15673 0.49917 0.58105 0.0
C2927 C 0.14996 0.50055 0.5539 0.0
C2928 C 0.13592 0.47965 0.54099 0.0
C2929 C 0.12902 0.45657 0.55613 0.0
C2930 C 0.13608 0.45466 0.58387 0.0
C2931 C 0.14956 0.47656 0.59652 0.0
H2932 H 0.18056 0.54214 0.1892 0.0
H2933 H 0.19204 0.56606 0.27307 0.0
H2934 H 0.23058 0.59499 0.25962 0.0
H2935 H 0.24899 0.53603 0.17316 0.0
H2936 H 0.24606 0.54903 0.13916 0.0
H2937 H 0.21749 0.53279 0.15491 0.0
H2938 H 0.18832 0.57561 0.14627 0.0
H2939 H 0.21693 0.59204 0.13054 0.0
H2940 H 0.19986 0.60805 0.15859 0.0
H2941 H 0.27071 0.61704 0.23805 0.0
H2942 H 0.30983 0.63041 0.20979 0.0
H2943 H 0.27165 0.59325 0.13975 0.0
C2944 C 0.19089 0.55386 0.20464 0.0
C2945 C 0.1833 0.55195 0.23215 0.0
C2946 C 0.19749 0.5673 0.25185 0.0
C2947 C 0.21933 0.58387 0.2444 0.0
C2948 C 0.22656 0.58504 0.21715 0.0
C2949 C 0.21271 0.57055 0.19754 0.0
C2950 C 0.2258 0.57384 0.16998 0.0
C2951 C 0.23514 0.54629 0.15866 0.0
C2952 C 0.20658 0.58825 0.15018 0.0
C2953 C 0.24966 0.59172 0.17733 0.0
C2954 C 0.24958 0.59818 0.20459 0.0
C2955 C 0.27076 0.61256 0.21658 0.0
C2956 C 0.29288 0.62003 0.2004 0.0
C2957 C 0.2936 0.61314 0.17255 0.0
C2958 C 0.27136 0.59939 0.16083 0.0
H2959 H 0.20124 0.46657 0.98547 0.0
H2960 H 0.18211 0.40716 0.92345 0.0
H2961 H 0.15864 0.4425 0.89692 0.0
H2962 H 0.13856 0.50785 0.97899 0.0
H2963 H 0.1567 0.53922 0.98393 0.0
H2964 H 0.16854 0.50857 -0.00013 0.0
H2965 H 0.21558 0.5151 0.97745 0.0
H2966 H 0.20389 0.54564 0.96139 0.0
H2967 H 0.21776 0.51859 0.94114 0.0
H2968 H 0.1416 0.48455 0.87522 0.0
H2969 H 0.13266 0.53085 0.85897 0.0
H2970 H 0.1635 0.56362 0.93466 0.0
C2971 C 0.19148 0.46088 0.96664 0.0
C2972 C 0.19319 0.43412 0.95657 0.0
C2973 C 0.18084 0.42753 0.93155 0.0
C2974 C 0.16741 0.44744 0.91642 0.0
C2975 C 0.16658 0.47378 0.92662 0.0
C2976 C 0.17823 0.48057 0.95117 0.0
C2977 C 0.17667 0.51084 0.95631 0.0
C2978 C 0.15906 0.51697 0.98126 0.0
C2979 C 0.20517 0.52326 0.95923 0.0
C2980 C 0.16297 0.52009 0.93047 0.0
C2981 C 0.15703 0.49831 0.91382 0.0
C2982 C 0.14584 0.50175 0.88818 0.0
C2983 C 0.14097 0.52815 0.87911 0.0
C2984 C 0.14738 0.55085 0.89555 0.0
C2985 C 0.15806 0.54667 0.92178 0.0
H2986 H 0.29174 0.45151 0.74261 0.0
H2987 H 0.34865 0.44404 0.676 0.0
H2988 H 0.31324 0.42205 0.64823 0.0
H2989 H 0.25458 0.3875 0.73027 0.0
H2990 H 0.2224 0.40237 0.73904 0.0
H2991 H 0.25305 0.41463 0.75472 0.0
H2992 H 0.24185 0.46336 0.73865 0.0
H2993 H 0.21129 0.45125 0.72284 0.0
H2994 H 0.23599 0.46957 0.70313 0.0
H2995 H 0.271 0.40471 0.62653 0.0
H2996 H 0.2246 0.39303 0.61216 0.0
H2997 H 0.19493 0.41214 0.69281 0.0
C2998 C 0.29689 0.4447 0.72239 0.0
C2999 C 0.32292 0.44927 0.71145 0.0
C3000 C 0.32882 0.4406 0.68475 0.0
C3001 C 0.30888 0.42805 0.66888 0.0
C3002 C 0.28323 0.42432 0.68005 0.0
C3003 C 0.27719 0.43228 0.70622 0.0
C3004 C 0.24754 0.42771 0.71269 0.0
C3005 C 0.24421 0.4068 0.73553 0.0
C3006 C 0.23334 0.45457 0.71973 0.0
C3007 C 0.23774 0.41651 0.68585 0.0
C3008 C 0.25871 0.41448 0.66741 0.0
C3009 C 0.25445 0.40592 0.64087 0.0
C3010 C 0.22799 0.39943 0.63288 0.0
C3011 C 0.20611 0.40166 0.65135 0.0
C3012 C 0.21122 0.41 0.67827 0.0
H3013 H 0.29367 0.56522 0.43744 0.0
H3014 H 0.32756 0.55629 0.51809 0.0
H3015 H 0.35238 0.51553 0.50303 0.0
H3016 H 0.28092 0.49756 0.42635 0.0
H3017 H 0.28946 0.49748 0.39084 0.0
H3018 H 0.27772 0.52814 0.40663 0.0
H3019 H 0.32108 0.55331 0.39087 0.0
H3020 H 0.33292 0.5227 0.37483 0.0
H3021 H 0.35389 0.53977 0.39943 0.0
H3022 H 0.36827 0.47283 0.48117 0.0
H3023 H 0.37533 0.43167 0.45362 0.0
H3024 H 0.33167 0.46875 0.38691 0.0
C3025 C 0.30686 0.55508 0.45174 0.0
C3026 C 0.30883 0.5639 0.47889 0.0
C3027 C 0.32591 0.5499 0.49715 0.0
C3028 C 0.34012 0.52679 0.48877 0.0
C3029 C 0.33716 0.51818 0.46203 0.0
C3030 C 0.32117 0.53204 0.4437 0.0
C3031 C 0.31964 0.51734 0.4168 0.0
C3032 C 0.29019 0.50967 0.40976 0.0
C3033 C 0.33267 0.53429 0.39415 0.0
C3034 C 0.33644 0.49254 0.42318 0.0
C3035 C 0.34659 0.49356 0.44928 0.0
C3036 C 0.36087 0.47201 0.46054 0.0
C3037 C 0.36464 0.44868 0.4448 0.0
C3038 C 0.35415 0.44713 0.41812 0.0
C3039 C 0.34032 0.46956 0.40707 0.0
H3040 H 0.2521 0.20288 0.43732 0.0
H3041 H 0.31805 0.145 0.43324 0.0
H3042 H 0.3461 0.17873 0.40905 0.0
H3043 H 0.26615 0.2381 0.37116 0.0
H3044 H 0.25737 0.27057 0.38542 0.0
H3045 H 0.24086 0.24025 0.39742 0.0
H3046 H 0.25541 0.25203 0.44652 0.0
H3047 H 0.27214 0.28213 0.4347 0.0
H3048 H 0.2908 0.25735 0.45393 0.0
H3049 H 0.36905 0.22068 0.39182 0.0
H3050 H 0.38491 0.26725 0.38255 0.0
H3051 H 0.3039 0.29766 0.39847 0.0
C3052 C 0.27211 0.19699 0.4305 0.0
C3053 C 0.28288 0.17132 0.43692 0.0
C3054 C 0.30938 0.16453 0.42831 0.0
C3055 C 0.32541 0.18353 0.41451 0.0
C3056 C 0.31454 0.20909 0.40939 0.0
C3057 C 0.28838 0.21574 0.4169 0.0
C3058 C 0.28251 0.2454 0.41186 0.0
C3059 C 0.26041 0.24877 0.39017 0.0
C3060 C 0.27478 0.26007 0.43833 0.0
C3061 C 0.3098 0.25467 0.40146 0.0
C3062 C 0.32789 0.23338 0.39972 0.0
C3063 C 0.35493 0.23743 0.39262 0.0
C3064 C 0.36377 0.26398 0.38751 0.0
C3065 C 0.34567 0.28613 0.3898 0.0
C3066 C 0.31823 0.28118 0.39633 0.0
H3067 H 0.76505 0.29412 0.54297 0.0
H3068 H 0.82733 0.35232 0.56492 0.0
H3069 H 0.85171 0.31666 0.59012 0.0
H3070 H 0.76678 0.25388 0.60629 0.0
H3071 H 0.76215 0.22225 0.58856 0.0
H3072 H 0.74782 0.25301 0.57507 0.0
H3073 H 0.77301 0.24493 0.52971 0.0
H3074 H 0.78742 0.21423 0.54305 0.0
H3075 H 0.80927 0.24043 0.52993 0.0
H3076 H 0.87115 0.27447 0.60941 0.0
H3077 H 0.88538 0.22804 0.62067 0.0
H3078 H 0.81096 0.19649 0.58568 0.0
C3079 C 0.78351 0.29946 0.5536 0.0
C3080 C 0.79424 0.32599 0.55225 0.0
C3081 C 0.81874 0.33212 0.56584 0.0
C3082 C 0.83266 0.31204 0.58027 0.0
C3083 C 0.82179 0.28596 0.58085 0.0
C3084 C 0.79778 0.27957 0.5679 0.0
C3085 C 0.79173 0.24948 0.56978 0.0
C3086 C 0.76557 0.24437 0.58589 0.0
C3087 C 0.79029 0.23651 0.54144 0.0
C3088 C 0.81642 0.23987 0.58529 0.0
C3089 C 0.83328 0.26134 0.59173 0.0
C3090 C 0.858 0.25753 0.60473 0.0
C3091 C 0.86593 0.23104 0.61095 0.0
C3092 C 0.84929 0.20861 0.60406 0.0
C3093 C 0.82396 0.21321 0.59149 0.0
H3094 H 0.44066 0.09629 0.28565 0.0
H3095 H 0.43614 0.01877 0.32697 0.0
H3096 H 0.47735 0.03009 0.35272 0.0
H3097 H 0.51017 0.0974 0.27651 0.0
H3098 H 0.51444 0.13319 0.28264 0.0
H3099 H 0.48264 0.12055 0.27014 0.0
H3100 H 0.4583 0.14329 0.31088 0.0
H3101 H 0.4904 0.15559 0.32335 0.0
H3102 H 0.46895 0.13535 0.34491 0.0
H3103 H 0.52192 0.04622 0.36878 0.0
H3104 H 0.56648 0.06764 0.37629 0.0
H3105 H 0.54243 0.13563 0.32603 0.0
C3106 C 0.44795 0.08208 0.30068 0.0
C3107 C 0.43518 0.05669 0.30439 0.0
C3108 C 0.44557 0.03837 0.32385 0.0
C3109 C 0.46894 0.04463 0.33864 0.0
C3110 C 0.48157 0.06943 0.33395 0.0
C3111 C 0.47133 0.08807 0.31573 0.0
C3112 C 0.49002 0.11239 0.31322 0.0
C3113 C 0.4999 0.11605 0.28387 0.0
C3114 C 0.47608 0.13818 0.32372 0.0
C3115 C 0.51292 0.10383 0.33183 0.0
C3116 C 0.5074 0.0791 0.34379 0.0
C3117 C 0.52628 0.06584 0.36002 0.0
C3118 C 0.55157 0.07807 0.36401 0.0
C3119 C 0.55774 0.10334 0.35192 0.0
C3120 C 0.53799 0.11657 0.33597 0.0
H3121 H 0.73607 0.71272 0.04628 0.0
H3122 H 0.67726 0.65073 0.06712 0.0
H3123 H 0.65163 0.68406 0.09414 0.0
H3124 H 0.73273 0.7515 0.11133 0.0
H3125 H 0.73528 0.78368 0.09424 0.0
H3126 H 0.75141 0.75413 0.08005 0.0
H3127 H 0.72552 0.76159 0.03498 0.0
H3128 H 0.70925 0.79102 0.04905 0.0
H3129 H 0.68904 0.76374 0.03544 0.0
H3130 H 0.6298 0.72441 0.11441 0.0
H3131 H 0.61257 0.7697 0.12636 0.0
H3132 H 0.68482 0.80635 0.09187 0.0
C3133 C 0.71825 0.70607 0.05722 0.0
C3134 C 0.70874 0.67915 0.05494 0.0
C3135 C 0.68491 0.67126 0.06879 0.0
C3136 C 0.67029 0.69 0.08425 0.0
C3137 C 0.67975 0.71657 0.08558 0.0
C3138 C 0.70319 0.72467 0.07251 0.0
C3139 C 0.70734 0.75503 0.07502 0.0
C3140 C 0.73323 0.76146 0.09113 0.0
C3141 C 0.7078 0.76863 0.04696 0.0
C3142 C 0.68219 0.76277 0.09086 0.0
C3143 C 0.66678 0.74019 0.09703 0.0
C3144 C 0.64184 0.74223 0.11004 0.0
C3145 C 0.63218 0.76807 0.11664 0.0
C3146 C 0.64735 0.79158 0.1101 0.0
C3147 C 0.67291 0.78877 0.09746 0.0
H3148 H 0.56143 0.43448 0.28494 0.0
H3149 H 0.55365 0.51481 0.32005 0.0
H3150 H 0.51341 0.49974 0.34554 0.0
H3151 H 0.49236 0.42336 0.27452 0.0
H3152 H 0.49286 0.3878 0.28286 0.0
H3153 H 0.52287 0.40384 0.26979 0.0
H3154 H 0.54989 0.38777 0.31189 0.0
H3155 H 0.51983 0.37167 0.32503 0.0
H3156 H 0.53781 0.39621 0.34532 0.0
H3157 H 0.47171 0.47794 0.36311 0.0
H3158 H 0.43128 0.45012 0.37277 0.0
H3159 H 0.46603 0.38348 0.32703 0.0
C3160 C 0.55159 0.44869 0.29846 0.0
C3161 C 0.56067 0.47577 0.30065 0.0
C3162 C 0.54704 0.49395 0.31816 0.0
C3163 C 0.52422 0.48557 0.33277 0.0
C3164 C 0.51541 0.45892 0.32974 0.0
C3165 C 0.52871 0.44065 0.31319 0.0
C3166 C 0.51392 0.41372 0.3122 0.0
C3167 C 0.50497 0.4068 0.28312 0.0
C3168 C 0.53141 0.391 0.32434 0.0
C3169 C 0.48984 0.42001 0.33015 0.0
C3170 C 0.49125 0.44614 0.3402 0.0
C3171 C 0.47054 0.4573 0.35574 0.0
C3172 C 0.44763 0.44141 0.36099 0.0
C3173 C 0.44565 0.41465 0.35076 0.0
C3174 C 0.46723 0.40371 0.33549 0.0
H3175 H 0.2506 0.79521 0.94091 0.0
H3176 H 0.18907 0.85569 0.92434 0.0
H3177 H 0.1635 0.82213 0.89726 0.0
H3178 H 0.2459 0.75808 0.87493 0.0
H3179 H 0.25042 0.7257 0.89122 0.0
H3180 H 0.26614 0.7556 0.90525 0.0
H3181 H 0.24272 0.74626 0.95132 0.0
H3182 H 0.22689 0.71649 0.93745 0.0
H3183 H 0.20637 0.74267 0.95252 0.0
H3184 H 0.14197 0.78103 0.87732 0.0
H3185 H 0.12546 0.73513 0.86641 0.0
H3186 H 0.20074 0.70098 0.89642 0.0
C3187 C 0.23216 0.8016 0.93089 0.0
C3188 C 0.22188 0.82807 0.93443 0.0
C3189 C 0.19733 0.83553 0.92167 0.0
C3190 C 0.18275 0.81665 0.90619 0.0
C3191 C 0.19307 0.79047 0.90368 0.0
C3192 C 0.21727 0.78295 0.91559 0.0
C3193 C 0.22242 0.75285 0.9123 0.0
C3194 C 0.24772 0.74777 0.89488 0.0
C3195 C 0.22472 0.73876 0.94004 0.0
C3196 C 0.19687 0.74445 0.89751 0.0
C3197 C 0.18043 0.76653 0.89237 0.0
C3198 C 0.15485 0.76364 0.88083 0.0
C3199 C 0.14561 0.73747 0.87481 0.0
C3200 C 0.16185 0.71449 0.88049 0.0
C3201 C 0.18806 0.71817 0.89142 0.0
H3202 H 0.4592 0.00789 0.20224 0.0
H3203 H 0.3962 0.94652 0.19887 0.0
H3204 H 0.42871 0.91429 0.17863 0.0
H3205 H 0.49468 0.988 0.13897 0.0
H3206 H 0.52758 0.99485 0.15333 0.0
H3207 H 0.49853 0.01403 0.16436 0.0
H3208 H 0.50847 0.00042 0.21408 0.0
H3209 H 0.53737 0.98105 0.20323 0.0
H3210 H 0.51099 0.96502 0.22277 0.0
H3211 H 0.46894 0.88753 0.16328 0.0
H3212 H 0.51382 0.86827 0.15278 0.0
H3213 H 0.55076 0.94712 0.16626 0.0
C3214 C 0.45208 0.98789 0.19661 0.0
C3215 C 0.42516 0.97971 0.20192 0.0
C3216 C 0.41671 0.95321 0.1948 0.0
C3217 C 0.43502 0.93479 0.18329 0.0
C3218 C 0.46162 0.94326 0.17895 0.0
C3219 C 0.47011 0.96924 0.18519 0.0
C3220 C 0.50023 0.97265 0.18031 0.0
C3221 C 0.50556 0.99362 0.15791 0.0
C3222 C 0.51513 0.98022 0.20667 0.0
C3223 C 0.50749 0.94433 0.17102 0.0
C3224 C 0.4849 0.92776 0.17016 0.0
C3225 C 0.48673 0.90038 0.16354 0.0
C3226 C 0.51235 0.88961 0.15774 0.0
C3227 C 0.53584 0.90617 0.15867 0.0
C3228 C 0.5332 0.93396 0.16513 0.0
H3229 H 0.03285 0.00473 0.72208 0.0
H3230 H 0.0957 0.06287 0.70171 0.0
H3231 H 0.06338 0.08772 0.67286 0.0
H3232 H 0.99713 0.00572 0.6557 0.0
H3233 H 0.96416 0.00365 0.6713 0.0
H3234 H 0.99303 0.9882 0.68749 0.0
H3235 H 0.98343 0.01576 0.73117 0.0
H3236 H 0.9546 0.03124 0.71516 0.0
H3237 H 0.98107 0.05218 0.72923 0.0
H3238 H 0.02406 0.10857 0.65012 0.0
H3239 H 0.97934 0.12542 0.63588 0.0
H3240 H 0.94113 0.05437 0.6711 0.0
C3241 C 0.03989 0.02235 0.71103 0.0
C3242 C 0.06676 0.03183 0.71389 0.0
C3243 C 0.07518 0.05528 0.6997 0.0
C3244 C 0.05704 0.06942 0.68316 0.0
C3245 C 0.03056 0.05984 0.68107 0.0
C3246 C 0.02193 0.03688 0.6946 0.0
C3247 C 0.99175 0.03244 0.69082 0.0
C3248 C 0.9862 0.00593 0.67541 0.0
C3249 C 0.97684 0.03295 0.71822 0.0
C3250 C 0.98469 0.05694 0.67372 0.0
C3251 C 0.00751 0.0722 0.66804 0.0
C3252 C 0.00607 0.09666 0.65411 0.0
C3253 C 0.98057 0.10609 0.64622 0.0
C3254 C 0.9568 0.09117 0.65236 0.0
C3255 C 0.95899 0.06597 0.66577 0.0
loop_
_geom_bond_atom_site_label_1
_geom_bond_atom_site_label_2
_geom_bond_distance
_geom_bond_site_symmetry_2
_ccdc_geom_bond_type
In0 O1 2.317 . S
In0 O2 2.323 1_455 S
In0 O6 2.289 . S
In0 O7 2.322 1_455 S
In0 O8 2.244 1_455 S
In0 O9 2.330 . S
In0 O11 2.271 1_455 S
In0 O12 2.330 . S
O1 In0 2.317 . S
O1 C10 1.240 . S
O2 In0 2.323 1_655 S
O2 C10 1.252 1_655 S
C3 O6 1.252 . S
C3 O7 1.260 1_455 S
C4 O11 1.240 . S
C4 O12 1.252 1_655 S
C5 O8 1.252 . S
C5 O9 1.260 1_655 S
O6 In0 2.289 . S
O6 C3 1.252 . S
O7 In0 2.322 1_655 S
O7 C3 1.260 1_655 S
O8 In0 2.244 1_655 S
O8 C5 1.252 . S
O9 In0 2.330 . S
O9 C5 1.260 1_455 S
C10 O1 1.240 . S
C10 O2 1.252 1_455 S
O11 In0 2.271 1_655 S
O11 C4 1.240 . S
O12 In0 2.330 . S
O12 C4 1.252 1_455 S
In13 O14 2.294 1_455 S
In13 O15 2.326 1_455 S
In13 O19 2.266 . S
In13 O20 2.326 . S
In13 O21 2.266 1_455 S
In13 O22 2.326 1_455 S
In13 O24 2.294 . S
In13 O25 2.326 . S
O14 In13 2.294 1_655 S
O14 C23 1.240 . S
O15 In13 2.326 1_655 S
O15 C23 1.252 . S
C16 O19 1.252 . S
C16 O20 1.260 . S
C17 O24 1.240 . S
C17 O25 1.252 . S
C18 O21 1.252 . S
C18 O22 1.260 . S
O19 In13 2.266 . S
O19 C16 1.252 . S
O20 In13 2.326 . S
O20 C16 1.260 . S
O21 In13 2.266 1_655 S
O21 C18 1.252 . S
O22 In13 2.326 1_655 S
O22 C18 1.260 . S
C23 O14 1.240 . S
C23 O15 1.252 . S
O24 In13 2.294 . S
O24 C17 1.240 . S
O25 In13 2.326 . S
O25 C17 1.252 . S
In26 O27 2.294 . S
In26 O28 2.326 . S
In26 O32 2.266 . S
In26 O33 2.326 . S
In26 O34 2.266 . S
In26 O35 2.326 . S
In26 O37 2.294 . S
In26 O38 2.326 . S
O27 In26 2.294 . S
O27 C36 1.240 . S
O28 In26 2.326 . S
O28 C36 1.252 . S
C29 O32 1.252 . S
C29 O33 1.260 . S
C30 O37 1.240 . S
C30 O38 1.252 . S
C31 O34 1.252 . S
C31 O35 1.260 . S
O32 In26 2.266 . S
O32 C29 1.252 . S
O33 In26 2.326 . S
O33 C29 1.260 . S
O34 In26 2.266 . S
O34 C31 1.252 . S
O35 In26 2.326 . S
O35 C31 1.260 . S
C36 O27 1.240 . S
C36 O28 1.252 . S
O37 In26 2.294 . S
O37 C30 1.240 . S
O38 In26 2.326 . S
O38 C30 1.252 . S
In39 O40 2.294 . S
In39 O41 2.326 . S
In39 O45 2.266 . S
In39 O46 2.326 . S
In39 O47 2.266 . S
In39 O48 2.326 . S
In39 O50 2.294 . S
In39 O51 2.326 . S
O40 In39 2.294 . S
O40 C49 1.240 . S
O41 In39 2.326 . S
O41 C49 1.252 . S
C42 O45 1.252 . S
C42 O46 1.260 . S
C43 O50 1.240 . S
C43 O51 1.252 . S
C44 O47 1.252 . S
C44 O48 1.260 . S
O45 In39 2.266 . S
O45 C42 1.252 . S
O46 In39 2.326 . S
O46 C42 1.260 . S
O47 In39 2.266 . S
O47 C44 1.252 . S
O48 In39 2.326 . S
O48 C44 1.260 . S
C49 O40 1.240 . S
C49 O41 1.252 . S
O50 In39 2.294 . S
O50 C43 1.240 . S
O51 In39 2.326 . S
O51 C43 1.252 . S
In52 O53 2.284 1_455 S
In52 O54 2.328 . S
In52 O58 2.257 1_455 S
In52 O59 2.327 . S
In52 O60 2.276 . S
In52 O61 2.324 1_455 S
In52 O63 2.304 . S
In52 O64 2.325 1_455 S
O53 In52 2.284 1_655 S
O53 C62 1.240 . S
O54 In52 2.328 . S
O54 C62 1.252 1_455 S
C55 O58 1.252 . S
C55 O59 1.260 1_655 S
C56 O63 1.240 . S
C56 O64 1.252 1_455 S
C57 O60 1.252 . S
C57 O61 1.260 1_455 S
O58 In52 2.257 1_655 S
O58 C55 1.252 . S
O59 In52 2.327 . S
O59 C55 1.260 1_455 S
O60 In52 2.276 . S
O60 C57 1.252 . S
O61 In52 2.324 1_655 S
O61 C57 1.260 1_655 S
C62 O53 1.240 . S
C62 O54 1.252 1_655 S
O63 In52 2.304 . S
O63 C56 1.240 . S
O64 In52 2.325 1_655 S
O64 C56 1.252 1_655 S
In65 O66 2.294 . S
In65 O67 2.326 . S
In65 O71 2.266 . S
In65 O72 2.326 . S
In65 O73 2.266 . S
In65 O74 2.326 . S
In65 O76 2.294 . S
In65 O77 2.326 . S
O66 In65 2.294 . S
O66 C75 1.240 . S
O67 In65 2.326 . S
O67 C75 1.252 . S
C68 O71 1.252 . S
C68 O72 1.260 . S
C69 O76 1.240 . S
C69 O77 1.252 . S
C70 O73 1.252 . S
C70 O74 1.260 . S
O71 In65 2.266 . S
O71 C68 1.252 . S
O72 In65 2.326 . S
O72 C68 1.260 . S
O73 In65 2.266 . S
O73 C70 1.252 . S
O74 In65 2.326 . S
O74 C70 1.260 . S
C75 O66 1.240 . S
C75 O67 1.252 . S
O76 In65 2.294 . S
O76 C69 1.240 . S
O77 In65 2.326 . S
O77 C69 1.252 . S
In78 O79 2.294 . S
In78 O80 2.326 . S
In78 O84 2.266 . S
In78 O85 2.326 . S
In78 O86 2.266 . S
In78 O87 2.326 . S
In78 O89 2.294 . S
In78 O90 2.326 . S
O79 In78 2.294 . S
O79 C88 1.240 . S
O80 In78 2.326 . S
O80 C88 1.252 . S
C81 O84 1.252 . S
C81 O85 1.260 . S
C82 O89 1.240 . S
C82 O90 1.252 . S
C83 O86 1.252 . S
C83 O87 1.260 . S
O84 In78 2.266 . S
O84 C81 1.252 . S
O85 In78 2.326 . S
O85 C81 1.260 . S
O86 In78 2.266 . S
O86 C83 1.252 . S
O87 In78 2.326 . S
O87 C83 1.260 . S
C88 O79 1.240 . S
C88 O80 1.252 . S
O89 In78 2.294 . S
O89 C82 1.240 . S
O90 In78 2.326 . S
O90 C82 1.252 . S
In91 O92 2.297 . S
In91 O93 2.332 . S
In91 O97 2.263 1_455 S
In91 O98 2.320 1_455 S
In91 O99 2.269 . S
In91 O100 2.331 . S
In91 O102 2.291 1_455 S
In91 O103 2.321 1_455 S
O92 In91 2.297 . S
O92 C101 1.240 . S
O93 In91 2.332 . S
O93 C101 1.252 . S
C94 O97 1.252 . S
C94 O98 1.260 . S
C95 O102 1.240 . S
C95 O103 1.252 . S
C96 O99 1.252 . S
C96 O100 1.260 . S
O97 In91 2.263 1_655 S
O97 C94 1.252 . S
O98 In91 2.320 1_655 S
O98 C94 1.260 . S
O99 In91 2.269 . S
O99 C96 1.252 . S
O100 In91 2.331 . S
O100 C96 1.260 . S
C101 O92 1.240 . S
C101 O93 1.252 . S
O102 In91 2.291 1_655 S
O102 C95 1.240 . S
O103 In91 2.321 1_655 S
O103 C95 1.252 . S
In104 O105 2.294 1_545 S
In104 O106 2.326 . S
In104 O110 2.266 1_545 S
In104 O111 2.326 . S
In104 O112 2.266 . S
In104 O113 2.326 1_545 S
In104 O115 2.294 . S
In104 O116 2.326 1_545 S
O105 In104 2.294 1_565 S
O105 C114 1.240 . S
O106 In104 2.326 . S
O106 C114 1.252 1_545 S
C107 O110 1.252 . S
C107 O111 1.260 1_565 S
C108 O115 1.240 . S
C108 O116 1.252 1_545 S
C109 O112 1.252 . S
C109 O113 1.260 1_545 S
O110 In104 2.266 1_565 S
O110 C107 1.252 . S
O111 In104 2.326 . S
O111 C107 1.260 1_545 S
O112 In104 2.266 . S
O112 C109 1.252 . S
O113 In104 2.326 1_565 S
O113 C109 1.260 1_565 S
C114 O105 1.240 . S
C114 O106 1.252 1_565 S
O115 In104 2.294 . S
O115 C108 1.240 . S
O116 In104 2.326 1_565 S
O116 C108 1.252 1_565 S
In117 O118 2.294 . S
In117 O119 2.326 . S
In117 O123 2.266 . S
In117 O124 2.326 . S
In117 O125 2.266 . S
In117 O126 2.326 . S
In117 O128 2.294 . S
In117 O129 2.326 . S
O118 In117 2.294 . S
O118 C127 1.240 . S
O119 In117 2.326 . S
O119 C127 1.252 . S
C120 O123 1.252 . S
C120 O124 1.260 . S
C121 O128 1.240 . S
C121 O129 1.252 . S
C122 O125 1.252 . S
C122 O126 1.260 . S
O123 In117 2.266 . S
O123 C120 1.252 . S
O124 In117 2.326 . S
O124 C120 1.260 . S
O125 In117 2.266 . S
O125 C122 1.252 . S
O126 In117 2.326 . S
O126 C122 1.260 . S
C127 O118 1.240 . S
C127 O119 1.252 . S
O128 In117 2.294 . S
O128 C121 1.240 . S
O129 In117 2.326 . S
O129 C121 1.252 . S
In130 O131 2.294 1_545 S
In130 O132 2.326 . S
In130 O136 2.266 1_545 S
In130 O137 2.326 . S
In130 O138 2.266 . S
In130 O139 2.326 1_545 S
In130 O141 2.294 . S
In130 O142 2.324 1_545 S
O131 In130 2.294 1_565 S
O131 C140 1.240 . S
O132 In130 2.326 . S
O132 C140 1.252 1_545 S
C133 O136 1.252 . S
C133 O137 1.260 1_565 S
C134 O141 1.240 . S
C134 O142 1.226 1_545 S
C135 O138 1.252 . S
C135 O139 1.260 1_545 S
O136 In130 2.266 1_565 S
O136 C133 1.252 . S
O137 In130 2.326 . S
O137 C133 1.260 1_545 S
O138 In130 2.266 . S
O138 C135 1.252 . S
O139 In130 2.326 1_565 S
O139 C135 1.260 1_565 S
C140 O131 1.240 . S
C140 O132 1.252 1_565 S
O141 In130 2.294 . S
O141 C134 1.240 . S
O142 In130 2.324 1_565 S
O142 C134 1.226 1_565 S
In143 O144 2.294 . S
In143 O145 2.326 . S
In143 O149 2.266 1_554 S
In143 O150 2.326 1_554 S
In143 O151 2.266 . S
In143 O152 2.326 . S
In143 O154 2.294 1_554 S
In143 O155 2.326 1_554 S
O144 In143 2.294 . S
O144 C153 1.240 . S
O145 In143 2.326 . S
O145 C153 1.252 . S
C146 O149 1.252 . S
C146 O150 1.260 . S
C147 O154 1.240 . S
C147 O155 1.252 . S
C148 O151 1.252 . S
C148 O152 1.260 . S
O149 In143 2.266 1_556 S
O149 C146 1.252 . S
O150 In143 2.326 1_556 S
O150 C146 1.260 . S
O151 In143 2.266 . S
O151 C148 1.252 . S
O152 In143 2.326 . S
O152 C148 1.260 . S
C153 O144 1.240 . S
C153 O145 1.252 . S
O154 In143 2.294 1_556 S
O154 C147 1.240 . S
O155 In143 2.326 1_556 S
O155 C147 1.252 . S
In156 O157 2.281 1_554 S
In156 O158 2.328 . S
In156 O162 2.253 1_554 S
In156 O163 2.328 . S
In156 O164 2.279 . S
In156 O165 2.323 1_554 S
In156 O167 2.307 . S
In156 O168 2.324 1_554 S
O157 In156 2.281 1_556 S
O157 C166 1.240 . S
O158 In156 2.328 . S
O158 C166 1.252 1_554 S
C159 O162 1.252 . S
C159 O163 1.260 1_556 S
C160 O167 1.240 . S
C160 O168 1.252 1_554 S
C161 O164 1.252 . S
C161 O165 1.260 1_554 S
O162 In156 2.253 1_556 S
O162 C159 1.252 . S
O163 In156 2.328 . S
O163 C159 1.260 1_554 S
O164 In156 2.279 . S
O164 C161 1.252 . S
O165 In156 2.323 1_556 S
O165 C161 1.260 1_556 S
C166 O157 1.240 . S
C166 O158 1.252 1_556 S
O167 In156 2.307 . S
O167 C160 1.240 . S
O168 In156 2.324 1_556 S
O168 C160 1.252 1_556 S
In169 O170 2.295 . S
In169 O171 2.326 1_554 S
In169 O175 2.267 . S
In169 O176 2.325 1_554 S
In169 O177 2.265 1_554 S
In169 O178 2.326 . S
In169 O180 2.293 1_554 S
In169 O181 2.326 . S
O170 In169 2.295 . S
O170 C179 1.240 . S
O171 In169 2.326 1_556 S
O171 C179 1.252 1_556 S
C172 O175 1.252 . S
C172 O176 1.260 1_554 S
C173 O180 1.240 . S
C173 O181 1.252 1_556 S
C174 O177 1.252 . S
C174 O178 1.260 1_556 S
O175 In169 2.267 . S
O175 C172 1.252 . S
O176 In169 2.325 1_556 S
O176 C172 1.260 1_556 S
O177 In169 2.265 1_556 S
O177 C174 1.252 . S
O178 In169 2.326 . S
O178 C174 1.260 1_554 S
C179 O170 1.240 . S
C179 O171 1.252 1_554 S
O180 In169 2.293 1_556 S
O180 C173 1.240 . S
O181 In169 2.326 . S
O181 C173 1.252 1_554 S
In182 O183 2.294 . S
In182 O184 2.326 . S
In182 O188 2.266 . S
In182 O189 2.326 . S
In182 O190 2.266 . S
In182 O191 2.326 . S
In182 O193 2.294 . S
In182 O194 2.326 . S
O183 In182 2.294 . S
O183 C192 1.240 . S
O184 In182 2.326 . S
O184 C192 1.252 . S
C185 O188 1.252 . S
C185 O189 1.260 . S
C186 O193 1.240 . S
C186 O194 1.252 . S
C187 O190 1.252 . S
C187 O191 1.260 . S
O188 In182 2.266 . S
O188 C185 1.252 . S
O189 In182 2.326 . S
O189 C185 1.260 . S
O190 In182 2.266 . S
O190 C187 1.252 . S
O191 In182 2.326 . S
O191 C187 1.260 . S
C192 O183 1.240 . S
C192 O184 1.252 . S
O193 In182 2.294 . S
O193 C186 1.240 . S
O194 In182 2.326 . S
O194 C186 1.252 . S
In195 O196 2.294 . S
In195 O197 2.326 . S
In195 O201 2.266 . S
In195 O202 2.326 . S
In195 O203 2.266 . S
In195 O204 2.326 . S
In195 O206 2.294 . S
In195 O207 2.326 . S
O196 In195 2.294 . S
O196 C205 1.240 . S
O197 In195 2.326 . S
O197 C205 1.252 . S
C198 O201 1.252 . S
C198 O202 1.260 . S
C199 O206 1.240 . S
C199 O207 1.252 . S
C200 O203 1.252 . S
C200 O204 1.260 . S
O201 In195 2.266 . S
O201 C198 1.252 . S
O202 In195 2.326 . S
O202 C198 1.260 . S
O203 In195 2.266 . S
O203 C200 1.252 . S
O204 In195 2.326 . S
O204 C200 1.260 . S
C205 O196 1.240 . S
C205 O197 1.252 . S
O206 In195 2.294 . S
O206 C199 1.240 . S
O207 In195 2.326 . S
O207 C199 1.252 . S
In208 O209 2.294 1_545 S
In208 O210 2.326 1_545 S
In208 O214 2.266 . S
In208 O215 2.326 . S
In208 O216 2.266 1_545 S
In208 O217 2.326 1_545 S
In208 O219 2.294 . S
In208 O220 2.326 . S
O209 In208 2.294 1_565 S
O209 C218 1.240 . S
O210 In208 2.326 1_565 S
O210 C218 1.252 . S
C211 O214 1.252 . S
C211 O215 1.260 . S
C212 O219 1.240 . S
C212 O220 1.252 . S
C213 O216 1.252 . S
C213 O217 1.260 . S
O214 In208 2.266 . S
O214 C211 1.252 . S
O215 In208 2.326 . S
O215 C211 1.260 . S
O216 In208 2.266 1_565 S
O216 C213 1.252 . S
O217 In208 2.326 1_565 S
O217 C213 1.260 . S
C218 O209 1.240 . S
C218 O210 1.252 . S
O219 In208 2.294 . S
O219 C212 1.240 . S
O220 In208 2.326 . S
O220 C212 1.252 . S
In221 O222 2.294 . S
In221 O223 2.326 . S
In221 O227 2.266 . S
In221 O228 2.326 . S
In221 O229 2.266 . S
In221 O230 2.326 . S
In221 O232 2.294 . S
In221 O233 2.326 . S
O222 In221 2.294 . S
O222 C231 1.240 . S
O223 In221 2.326 . S
O223 C231 1.252 . S
C224 O227 1.252 . S
C224 O228 1.260 . S
C225 O232 1.240 . S
C225 O233 1.252 . S
C226 O229 1.252 . S
C226 O230 1.260 . S
O227 In221 2.266 . S
O227 C224 1.252 . S
O228 In221 2.326 . S
O228 C224 1.260 . S
O229 In221 2.266 . S
O229 C226 1.252 . S
O230 In221 2.326 . S
O230 C226 1.260 . S
C231 O222 1.240 . S
C231 O223 1.252 . S
O232 In221 2.294 . S
O232 C225 1.240 . S
O233 In221 2.326 . S
O233 C225 1.252 . S
In234 O235 2.294 . S
In234 O236 2.326 . S
In234 O240 2.266 . S
In234 O241 2.326 . S
In234 O242 2.266 . S
In234 O243 2.326 . S
In234 O245 2.294 . S
In234 O246 2.326 . S
O235 In234 2.294 . S
O235 C244 1.240 . S
O236 In234 2.326 . S
O236 C244 1.252 . S
C237 O240 1.252 . S
C237 O241 1.260 . S
C238 O245 1.240 . S
C238 O246 1.252 . S
C239 O242 1.252 . S
C239 O243 1.260 . S
O240 In234 2.266 . S
O240 C237 1.252 . S
O241 In234 2.326 . S
O241 C237 1.260 . S
O242 In234 2.266 . S
O242 C239 1.252 . S
O243 In234 2.326 . S
O243 C239 1.260 . S
C244 O235 1.240 . S
C244 O236 1.252 . S
O245 In234 2.294 . S
O245 C238 1.240 . S
O246 In234 2.326 . S
O246 C238 1.252 . S
In247 O248 2.294 1_545 S
In247 O249 2.326 1_545 S
In247 O253 2.266 . S
In247 O254 2.326 . S
In247 O255 2.266 1_545 S
In247 O256 2.326 1_545 S
In247 O258 2.294 . S
In247 O259 2.326 . S
O248 In247 2.294 1_565 S
O248 C257 1.240 . S
O249 In247 2.326 1_565 S
O249 C257 1.252 . S
C250 O253 1.252 . S
C250 O254 1.260 . S
C251 O258 1.240 . S
C251 O259 1.252 . S
C252 O255 1.252 . S
C252 O256 1.260 . S
O253 In247 2.266 . S
O253 C250 1.252 . S
O254 In247 2.326 . S
O254 C250 1.260 . S
O255 In247 2.266 1_565 S
O255 C252 1.252 . S
O256 In247 2.326 1_565 S
O256 C252 1.260 . S
C257 O248 1.240 . S
C257 O249 1.252 . S
O258 In247 2.294 . S
O258 C251 1.240 . S
O259 In247 2.326 . S
O259 C251 1.252 . S
In260 O261 2.294 . S
In260 O262 2.326 . S
In260 O266 2.266 1_554 S
In260 O267 2.326 1_554 S
In260 O268 2.266 . S
In260 O269 2.326 . S
In260 O271 2.294 1_554 S
In260 O272 2.326 1_554 S
O261 In260 2.294 . S
O261 C270 1.240 . S
O262 In260 2.326 . S
O262 C270 1.252 . S
C263 O266 1.252 . S
C263 O267 1.260 . S
C264 O271 1.240 . S
C264 O272 1.252 . S
C265 O268 1.252 . S
C265 O269 1.260 . S
O266 In260 2.266 1_556 S
O266 C263 1.252 . S
O267 In260 2.326 1_556 S
O267 C263 1.260 . S
O268 In260 2.266 . S
O268 C265 1.252 . S
O269 In260 2.326 . S
O269 C265 1.260 . S
C270 O261 1.240 . S
C270 O262 1.252 . S
O271 In260 2.294 1_556 S
O271 C264 1.240 . S
O272 In260 2.326 1_556 S
O272 C264 1.252 . S
In273 O274 2.294 . S
In273 O275 2.326 . S
In273 O279 2.266 . S
In273 O280 2.326 . S
In273 O281 2.266 . S
In273 O282 2.326 . S
In273 O284 2.294 . S
In273 O285 2.326 . S
O274 In273 2.294 . S
O274 C283 1.240 . S
O275 In273 2.326 . S
O275 C283 1.252 . S
C276 O279 1.252 . S
C276 O280 1.260 . S
C277 O284 1.240 . S
C277 O285 1.252 . S
C278 O281 1.252 . S
C278 O282 1.260 . S
O279 In273 2.266 . S
O279 C276 1.252 . S
O280 In273 2.326 . S
O280 C276 1.260 . S
O281 In273 2.266 . S
O281 C278 1.252 . S
O282 In273 2.326 . S
O282 C278 1.260 . S
C283 O274 1.240 . S
C283 O275 1.252 . S
O284 In273 2.294 . S
O284 C277 1.240 . S
O285 In273 2.326 . S
O285 C277 1.252 . S
In286 O287 2.294 . S
In286 O288 2.326 . S
In286 O292 2.266 . S
In286 O293 2.326 . S
In286 O294 2.266 . S
In286 O295 2.326 . S
In286 O297 2.294 . S
In286 O298 2.326 . S
O287 In286 2.294 . S
O287 C296 1.240 . S
O288 In286 2.326 . S
O288 C296 1.252 . S
C289 O292 1.252 . S
C289 O293 1.260 . S
C290 O297 1.240 . S
C290 O298 1.252 . S
C291 O294 1.252 . S
C291 O295 1.260 . S
O292 In286 2.266 . S
O292 C289 1.252 . S
O293 In286 2.326 . S
O293 C289 1.260 . S
O294 In286 2.266 . S
O294 C291 1.252 . S
O295 In286 2.326 . S
O295 C291 1.260 . S
C296 O287 1.240 . S
C296 O288 1.252 . S
O297 In286 2.294 . S
O297 C290 1.240 . S
O298 In286 2.326 . S
O298 C290 1.252 . S
In299 O300 2.294 . S
In299 O301 2.326 . S
In299 O305 2.266 . S
In299 O306 2.326 . S
In299 O307 2.266 . S
In299 O308 2.326 . S
In299 O310 2.294 . S
In299 O311 2.326 . S
O300 In299 2.294 . S
O300 C309 1.240 . S
O301 In299 2.326 . S
O301 C309 1.252 . S
C302 O305 1.252 . S
C302 O306 1.260 . S
C303 O310 1.240 . S
C303 O311 1.252 . S
C304 O307 1.252 . S
C304 O308 1.260 . S
O305 In299 2.266 . S
O305 C302 1.252 . S
O306 In299 2.326 . S
O306 C302 1.260 . S
O307 In299 2.266 . S
O307 C304 1.252 . S
O308 In299 2.326 . S
O308 C304 1.260 . S
C309 O300 1.240 . S
C309 O301 1.252 . S
O310 In299 2.294 . S
O310 C303 1.240 . S
O311 In299 2.326 . S
O311 C303 1.252 . S
Fe312 O314 1.918 . S
Fe312 O317 1.997 . S
Fe312 O318 2.002 . S
Fe312 O323 1.976 . S
Fe312 O326 1.996 . S
Fe313 O314 1.918 . S
Fe313 O321 1.997 . S
Fe313 O324 1.996 . S
Fe313 O328 1.976 . S
Fe313 O331 2.002 . S
O314 Fe312 1.918 . S
O314 Fe313 1.918 . S
O314 Fe315 1.918 . S
Fe315 O314 1.918 . S
Fe315 O316 2.002 . S
Fe315 O325 1.976 . S
Fe315 O329 1.996 . S
Fe315 O332 1.997 . S
O316 Fe315 2.002 . S
O316 C333 1.295 . S
O317 Fe312 1.997 . S
O317 C333 1.235 . S
O318 Fe312 2.002 . S
O318 C319 1.295 . S
C319 O318 1.295 . S
C319 O321 1.235 . S
C320 O325 1.287 . S
C320 O326 1.255 . S
O321 Fe313 1.997 . S
O321 C319 1.235 . S
C322 O328 1.287 . S
C322 O329 1.255 . S
O323 Fe312 1.976 . S
O323 C330 1.287 . S
O324 Fe313 1.996 . S
O324 C330 1.255 . S
O325 Fe315 1.976 . S
O325 C320 1.287 . S
O326 Fe312 1.996 . S
O326 C320 1.255 . S
C327 O331 1.295 . S
C327 O332 1.235 . S
O328 Fe313 1.976 . S
O328 C322 1.287 . S
O329 Fe315 1.996 . S
O329 C322 1.255 . S
C330 O323 1.287 . S
C330 O324 1.255 . S
O331 Fe313 2.002 . S
O331 C327 1.295 . S
O332 Fe315 1.997 . S
O332 C327 1.235 . S
C333 O316 1.295 . S
C333 O317 1.235 . S
Fe334 O336 1.918 . S
Fe334 O339 1.997 . S
Fe334 O340 2.002 . S
Fe334 O345 1.976 . S
Fe334 O348 1.996 . S
Fe335 O336 1.918 . S
Fe335 O343 1.997 . S
Fe335 O346 1.996 . S
Fe335 O350 1.976 . S
Fe335 O353 2.002 . S
O336 Fe334 1.918 . S
O336 Fe335 1.918 . S
O336 Fe337 1.918 . S
Fe337 O336 1.918 . S
Fe337 O338 2.002 . S
Fe337 O347 1.976 . S
Fe337 O351 1.996 . S
Fe337 O354 1.997 . S
O338 Fe337 2.002 . S
O338 C355 1.295 . S
O339 Fe334 1.997 . S
O339 C355 1.235 . S
O340 Fe334 2.002 . S
O340 C341 1.295 . S
C341 O340 1.295 . S
C341 O343 1.235 . S
C342 O347 1.287 . S
C342 O348 1.255 . S
O343 Fe335 1.997 . S
O343 C341 1.235 . S
C344 O350 1.287 . S
C344 O351 1.255 . S
O345 Fe334 1.976 . S
O345 C352 1.287 . S
O346 Fe335 1.996 . S
O346 C352 1.255 . S
O347 Fe337 1.976 . S
O347 C342 1.287 . S
O348 Fe334 1.996 . S
O348 C342 1.255 . S
C349 O353 1.295 . S
C349 O354 1.235 . S
O350 Fe335 1.976 . S
O350 C344 1.287 . S
O351 Fe337 1.996 . S
O351 C344 1.255 . S
C352 O345 1.287 . S
C352 O346 1.255 . S
O353 Fe335 2.002 . S
O353 C349 1.295 . S
O354 Fe337 1.997 . S
O354 C349 1.235 . S
C355 O338 1.295 . S
C355 O339 1.235 . S
Fe356 O358 1.918 . S
Fe356 O361 1.997 . S
Fe356 O362 2.002 . S
Fe356 O367 1.976 . S
Fe356 O370 1.996 . S
Fe357 O358 1.918 . S
Fe357 O365 1.997 . S
Fe357 O368 1.996 . S
Fe357 O372 1.976 . S
Fe357 O375 2.002 . S
O358 Fe356 1.918 . S
O358 Fe357 1.918 . S
O358 Fe359 1.918 . S
Fe359 O358 1.918 . S
Fe359 O360 2.002 . S
Fe359 O369 1.976 . S
Fe359 O373 1.996 . S
Fe359 O376 1.997 . S
O360 Fe359 2.002 . S
O360 C377 1.295 . S
O361 Fe356 1.997 . S
O361 C377 1.235 . S
O362 Fe356 2.002 . S
O362 C363 1.295 . S
C363 O362 1.295 . S
C363 O365 1.235 . S
C364 O369 1.287 . S
C364 O370 1.255 . S
O365 Fe357 1.997 . S
O365 C363 1.235 . S
C366 O372 1.287 . S
C366 O373 1.255 . S
O367 Fe356 1.976 . S
O367 C374 1.287 . S
O368 Fe357 1.996 . S
O368 C374 1.255 . S
O369 Fe359 1.976 . S
O369 C364 1.287 . S
O370 Fe356 1.996 . S
O370 C364 1.255 . S
C371 O375 1.295 . S
C371 O376 1.235 . S
O372 Fe357 1.976 . S
O372 C366 1.287 . S
O373 Fe359 1.996 . S
O373 C366 1.255 . S
C374 O367 1.287 . S
C374 O368 1.255 . S
O375 Fe357 2.002 . S
O375 C371 1.295 . S
O376 Fe359 1.997 . S
O376 C371 1.235 . S
C377 O360 1.295 . S
C377 O361 1.235 . S
Fe378 O380 1.918 . S
Fe378 O383 1.997 . S
Fe378 O384 2.002 . S
Fe378 O389 1.976 . S
Fe378 O392 1.996 . S
Fe379 O380 1.918 . S
Fe379 O387 1.997 . S
Fe379 O390 1.996 . S
Fe379 O394 1.976 . S
Fe379 O397 2.002 . S
O380 Fe378 1.918 . S
O380 Fe379 1.918 . S
O380 Fe381 1.918 . S
Fe381 O380 1.918 . S
Fe381 O382 2.002 . S
Fe381 O391 1.976 . S
Fe381 O395 1.996 . S
Fe381 O398 1.997 . S
O382 Fe381 2.002 . S
O382 C399 1.295 . S
O383 Fe378 1.997 . S
O383 C399 1.235 . S
O384 Fe378 2.002 . S
O384 C385 1.295 . S
C385 O384 1.295 . S
C385 O387 1.235 . S
C386 O391 1.287 . S
C386 O392 1.255 . S
O387 Fe379 1.997 . S
O387 C385 1.235 . S
C388 O394 1.287 . S
C388 O395 1.255 . S
O389 Fe378 1.976 . S
O389 C396 1.287 . S
O390 Fe379 1.996 . S
O390 C396 1.255 . S
O391 Fe381 1.976 . S
O391 C386 1.287 . S
O392 Fe378 1.996 . S
O392 C386 1.255 . S
C393 O397 1.295 . S
C393 O398 1.235 . S
O394 Fe379 1.976 . S
O394 C388 1.287 . S
O395 Fe381 1.996 . S
O395 C388 1.255 . S
C396 O389 1.287 . S
C396 O390 1.255 . S
O397 Fe379 2.002 . S
O397 C393 1.295 . S
O398 Fe381 1.997 . S
O398 C393 1.235 . S
C399 O382 1.295 . S
C399 O383 1.235 . S
Fe400 O402 1.918 . S
Fe400 O405 1.997 . S
Fe400 O406 2.002 . S
Fe400 O411 1.976 . S
Fe400 O414 1.996 . S
Fe401 O402 1.918 . S
Fe401 O409 1.997 . S
Fe401 O412 1.996 . S
Fe401 O416 1.976 . S
Fe401 O419 2.002 . S
O402 Fe400 1.918 . S
O402 Fe401 1.918 . S
O402 Fe403 1.918 . S
Fe403 O402 1.918 . S
Fe403 O404 2.002 . S
Fe403 O413 1.976 . S
Fe403 O417 1.996 . S
Fe403 O420 1.997 . S
O404 Fe403 2.002 . S
O404 C421 1.295 . S
O405 Fe400 1.997 . S
O405 C421 1.235 . S
O406 Fe400 2.002 . S
O406 C407 1.295 . S
C407 O406 1.295 . S
C407 O409 1.235 . S
C408 O413 1.287 . S
C408 O414 1.255 . S
O409 Fe401 1.997 . S
O409 C407 1.235 . S
C410 O416 1.287 . S
C410 O417 1.255 . S
O411 Fe400 1.976 . S
O411 C418 1.287 . S
O412 Fe401 1.996 . S
O412 C418 1.255 . S
O413 Fe403 1.976 . S
O413 C408 1.287 . S
O414 Fe400 1.996 . S
O414 C408 1.255 . S
C415 O419 1.295 . S
C415 O420 1.235 . S
O416 Fe401 1.976 . S
O416 C410 1.287 . S
O417 Fe403 1.996 . S
O417 C410 1.255 . S
C418 O411 1.287 . S
C418 O412 1.255 . S
O419 Fe401 2.002 . S
O419 C415 1.295 . S
O420 Fe403 1.997 . S
O420 C415 1.235 . S
C421 O404 1.295 . S
C421 O405 1.235 . S
Fe422 O424 1.918 . S
Fe422 O427 1.997 . S
Fe422 O428 2.002 . S
Fe422 O433 1.976 . S
Fe422 O436 1.996 . S
Fe423 O424 1.918 . S
Fe423 O431 1.997 . S
Fe423 O434 1.996 . S
Fe423 O438 1.976 . S
Fe423 O441 2.002 . S
O424 Fe422 1.918 . S
O424 Fe423 1.918 . S
O424 Fe425 1.918 . S
Fe425 O424 1.918 . S
Fe425 O426 2.002 . S
Fe425 O435 1.976 . S
Fe425 O439 1.996 . S
Fe425 O442 1.997 . S
O426 Fe425 2.002 . S
O426 C443 1.295 . S
O427 Fe422 1.997 . S
O427 C443 1.235 . S
O428 Fe422 2.002 . S
O428 C429 1.295 . S
C429 O428 1.295 . S
C429 O431 1.235 . S
C430 O435 1.287 . S
C430 O436 1.255 . S
O431 Fe423 1.997 . S
O431 C429 1.235 . S
C432 O438 1.287 . S
C432 O439 1.255 . S
O433 Fe422 1.976 . S
O433 C440 1.287 . S
O434 Fe423 1.996 . S
O434 C440 1.255 . S
O435 Fe425 1.976 . S
O435 C430 1.287 . S
O436 Fe422 1.996 . S
O436 C430 1.255 . S
C437 O441 1.295 . S
C437 O442 1.235 . S
O438 Fe423 1.976 . S
O438 C432 1.287 . S
O439 Fe425 1.996 . S
O439 C432 1.255 . S
C440 O433 1.287 . S
C440 O434 1.255 . S
O441 Fe423 2.002 . S
O441 C437 1.295 . S
O442 Fe425 1.997 . S
O442 C437 1.235 . S
C443 O426 1.295 . S
C443 O427 1.235 . S
Fe444 O446 1.918 . S
Fe444 O449 1.997 . S
Fe444 O450 2.002 . S
Fe444 O455 1.976 . S
Fe444 O458 1.996 . S
Fe445 O446 1.918 . S
Fe445 O453 1.997 . S
Fe445 O456 1.996 . S
Fe445 O460 1.976 . S
Fe445 O463 2.002 . S
O446 Fe444 1.918 . S
O446 Fe445 1.918 . S
O446 Fe447 1.918 . S
Fe447 O446 1.918 . S
Fe447 O448 2.002 . S
Fe447 O457 1.976 . S
Fe447 O461 1.996 . S
Fe447 O464 1.997 . S
O448 Fe447 2.002 . S
O448 C465 1.295 . S
O449 Fe444 1.997 . S
O449 C465 1.235 . S
O450 Fe444 2.002 . S
O450 C451 1.295 . S
C451 O450 1.295 . S
C451 O453 1.235 . S
C452 O457 1.287 . S
C452 O458 1.255 . S
O453 Fe445 1.997 . S
O453 C451 1.235 . S
C454 O460 1.287 . S
C454 O461 1.255 . S
O455 Fe444 1.976 . S
O455 C462 1.287 . S
O456 Fe445 1.996 . S
O456 C462 1.255 . S
O457 Fe447 1.976 . S
O457 C452 1.287 . S
O458 Fe444 1.996 . S
O458 C452 1.255 . S
C459 O463 1.295 . S
C459 O464 1.235 . S
O460 Fe445 1.976 . S
O460 C454 1.287 . S
O461 Fe447 1.996 . S
O461 C454 1.255 . S
C462 O455 1.287 . S
C462 O456 1.255 . S
O463 Fe445 2.002 . S
O463 C459 1.295 . S
O464 Fe447 1.997 . S
O464 C459 1.235 . S
C465 O448 1.295 . S
C465 O449 1.235 . S
Fe466 O468 1.918 . S
Fe466 O471 1.997 . S
Fe466 O472 2.002 . S
Fe466 O477 1.976 . S
Fe466 O480 1.996 . S
Fe467 O468 1.918 . S
Fe467 O475 1.997 . S
Fe467 O478 1.996 . S
Fe467 O482 1.976 . S
Fe467 O485 2.002 . S
O468 Fe466 1.918 . S
O468 Fe467 1.918 . S
O468 Fe469 1.918 . S
Fe469 O468 1.918 . S
Fe469 O470 2.002 . S
Fe469 O479 1.976 . S
Fe469 O483 1.996 . S
Fe469 O486 1.997 . S
O470 Fe469 2.002 . S
O470 C487 1.295 . S
O471 Fe466 1.997 . S
O471 C487 1.235 . S
O472 Fe466 2.002 . S
O472 C473 1.295 . S
C473 O472 1.295 . S
C473 O475 1.235 . S
C474 O479 1.287 . S
C474 O480 1.255 . S
O475 Fe467 1.997 . S
O475 C473 1.235 . S
C476 O482 1.287 . S
C476 O483 1.255 . S
O477 Fe466 1.976 . S
O477 C484 1.287 . S
O478 Fe467 1.996 . S
O478 C484 1.255 . S
O479 Fe469 1.976 . S
O479 C474 1.287 . S
O480 Fe466 1.996 . S
O480 C474 1.255 . S
C481 O485 1.295 . S
C481 O486 1.235 . S
O482 Fe467 1.976 . S
O482 C476 1.287 . S
O483 Fe469 1.996 . S
O483 C476 1.255 . S
C484 O477 1.287 . S
C484 O478 1.255 . S
O485 Fe467 2.002 . S
O485 C481 1.295 . S
O486 Fe469 1.997 . S
O486 C481 1.235 . S
C487 O470 1.295 . S
C487 O471 1.235 . S
Fe488 O490 1.918 . S
Fe488 O493 1.997 . S
Fe488 O494 2.002 . S
Fe488 O499 1.976 . S
Fe488 O502 1.996 . S
Fe489 O490 1.918 . S
Fe489 O497 1.997 . S
Fe489 O500 1.996 . S
Fe489 O504 1.976 . S
Fe489 O507 2.002 . S
O490 Fe488 1.918 . S
O490 Fe489 1.918 . S
O490 Fe491 1.918 . S
Fe491 O490 1.918 . S
Fe491 O492 2.002 . S
Fe491 O501 1.976 . S
Fe491 O505 1.996 . S
Fe491 O508 1.997 . S
O492 Fe491 2.002 . S
O492 C509 1.295 . S
O493 Fe488 1.997 . S
O493 C509 1.235 . S
O494 Fe488 2.002 . S
O494 C495 1.295 . S
C495 O494 1.295 . S
C495 O497 1.235 . S
C496 O501 1.287 . S
C496 O502 1.255 . S
O497 Fe489 1.997 . S
O497 C495 1.235 . S
C498 O504 1.287 . S
C498 O505 1.255 . S
O499 Fe488 1.976 . S
O499 C506 1.287 . S
O500 Fe489 1.996 . S
O500 C506 1.255 . S
O501 Fe491 1.976 . S
O501 C496 1.287 . S
O502 Fe488 1.996 . S
O502 C496 1.255 . S
C503 O507 1.295 . S
C503 O508 1.235 . S
O504 Fe489 1.976 . S
O504 C498 1.287 . S
O505 Fe491 1.996 . S
O505 C498 1.255 . S
C506 O499 1.287 . S
C506 O500 1.255 . S
O507 Fe489 2.002 . S
O507 C503 1.295 . S
O508 Fe491 1.997 . S
O508 C503 1.235 . S
C509 O492 1.295 . S
C509 O493 1.235 . S
Fe510 O512 1.918 . S
Fe510 O515 1.997 . S
Fe510 O516 2.002 . S
Fe510 O521 1.976 . S
Fe510 O524 1.996 . S
Fe511 O512 1.918 . S
Fe511 O519 1.997 . S
Fe511 O522 1.996 . S
Fe511 O526 1.976 . S
Fe511 O529 2.002 . S
O512 Fe510 1.918 . S
O512 Fe511 1.918 . S
O512 Fe513 1.918 . S
Fe513 O512 1.918 . S
Fe513 O514 2.002 . S
Fe513 O523 1.976 . S
Fe513 O527 1.996 . S
Fe513 O530 1.997 . S
O514 Fe513 2.002 . S
O514 C531 1.295 . S
O515 Fe510 1.997 . S
O515 C531 1.235 . S
O516 Fe510 2.002 . S
O516 C517 1.295 . S
C517 O516 1.295 . S
C517 O519 1.235 . S
C518 O523 1.287 . S
C518 O524 1.255 . S
O519 Fe511 1.997 . S
O519 C517 1.235 . S
C520 O526 1.287 . S
C520 O527 1.255 . S
O521 Fe510 1.976 . S
O521 C528 1.287 . S
O522 Fe511 1.996 . S
O522 C528 1.255 . S
O523 Fe513 1.976 . S
O523 C518 1.287 . S
O524 Fe510 1.996 . S
O524 C518 1.255 . S
C525 O529 1.295 . S
C525 O530 1.235 . S
O526 Fe511 1.976 . S
O526 C520 1.287 . S
O527 Fe513 1.996 . S
O527 C520 1.255 . S
C528 O521 1.287 . S
C528 O522 1.255 . S
O529 Fe511 2.002 . S
O529 C525 1.295 . S
O530 Fe513 1.997 . S
O530 C525 1.235 . S
C531 O514 1.295 . S
C531 O515 1.235 . S
Fe532 O534 1.918 . S
Fe532 O537 1.997 . S
Fe532 O538 2.002 . S
Fe532 O543 1.976 . S
Fe532 O546 1.996 . S
Fe533 O534 1.918 . S
Fe533 O541 1.997 . S
Fe533 O544 1.996 . S
Fe533 O548 1.976 . S
Fe533 O551 2.002 . S
O534 Fe532 1.918 . S
O534 Fe533 1.918 . S
O534 Fe535 1.918 . S
Fe535 O534 1.918 . S
Fe535 O536 2.002 . S
Fe535 O545 1.976 . S
Fe535 O549 1.996 . S
Fe535 O552 1.997 . S
O536 Fe535 2.002 . S
O536 C553 1.295 . S
O537 Fe532 1.997 . S
O537 C553 1.235 . S
O538 Fe532 2.002 . S
O538 C539 1.295 . S
C539 O538 1.295 . S
C539 O541 1.235 . S
C540 O545 1.287 . S
C540 O546 1.255 . S
O541 Fe533 1.997 . S
O541 C539 1.235 . S
C542 O548 1.287 . S
C542 O549 1.255 . S
O543 Fe532 1.976 . S
O543 C550 1.287 . S
O544 Fe533 1.996 . S
O544 C550 1.255 . S
O545 Fe535 1.976 . S
O545 C540 1.287 . S
O546 Fe532 1.996 . S
O546 C540 1.255 . S
C547 O551 1.295 . S
C547 O552 1.235 . S
O548 Fe533 1.976 . S
O548 C542 1.287 . S
O549 Fe535 1.996 . S
O549 C542 1.255 . S
C550 O543 1.287 . S
C550 O544 1.255 . S
O551 Fe533 2.002 . S
O551 C547 1.295 . S
O552 Fe535 1.997 . S
O552 C547 1.235 . S
C553 O536 1.295 . S
C553 O537 1.235 . S
Fe554 O556 1.918 . S
Fe554 O559 1.997 . S
Fe554 O560 2.002 . S
Fe554 O565 1.976 . S
Fe554 O568 1.996 . S
Fe555 O556 1.918 . S
Fe555 O563 1.997 . S
Fe555 O566 1.996 . S
Fe555 O570 1.976 . S
Fe555 O573 2.002 . S
O556 Fe554 1.918 . S
O556 Fe555 1.918 . S
O556 Fe557 1.918 . S
Fe557 O556 1.918 . S
Fe557 O558 2.002 . S
Fe557 O567 1.976 . S
Fe557 O571 1.996 . S
Fe557 O574 1.997 . S
O558 Fe557 2.002 . S
O558 C575 1.295 . S
O559 Fe554 1.997 . S
O559 C575 1.235 . S
O560 Fe554 2.002 . S
O560 C561 1.295 . S
C561 O560 1.295 . S
C561 O563 1.235 . S
C562 O567 1.287 . S
C562 O568 1.255 . S
O563 Fe555 1.997 . S
O563 C561 1.235 . S
C564 O570 1.287 . S
C564 O571 1.255 . S
O565 Fe554 1.976 . S
O565 C572 1.287 . S
O566 Fe555 1.996 . S
O566 C572 1.255 . S
O567 Fe557 1.976 . S
O567 C562 1.287 . S
O568 Fe554 1.996 . S
O568 C562 1.255 . S
C569 O573 1.295 . S
C569 O574 1.235 . S
O570 Fe555 1.976 . S
O570 C564 1.287 . S
O571 Fe557 1.996 . S
O571 C564 1.255 . S
C572 O565 1.287 . S
C572 O566 1.255 . S
O573 Fe555 2.002 . S
O573 C569 1.295 . S
O574 Fe557 1.997 . S
O574 C569 1.235 . S
C575 O558 1.295 . S
C575 O559 1.235 . S
Fe576 O578 1.918 . S
Fe576 O581 1.997 . S
Fe576 O582 2.002 . S
Fe576 O587 1.976 . S
Fe576 O590 1.996 . S
Fe577 O578 1.918 . S
Fe577 O585 1.997 . S
Fe577 O588 1.996 . S
Fe577 O592 1.976 . S
Fe577 O595 2.002 . S
O578 Fe576 1.918 . S
O578 Fe577 1.918 . S
O578 Fe579 1.918 . S
Fe579 O578 1.918 . S
Fe579 O580 2.002 . S
Fe579 O589 1.976 . S
Fe579 O593 1.996 . S
Fe579 O596 1.997 . S
O580 Fe579 2.002 . S
O580 C597 1.295 . S
O581 Fe576 1.997 . S
O581 C597 1.235 . S
O582 Fe576 2.002 . S
O582 C583 1.295 . S
C583 O582 1.295 . S
C583 O585 1.235 . S
C584 O589 1.287 . S
C584 O590 1.255 . S
O585 Fe577 1.997 . S
O585 C583 1.235 . S
C586 O592 1.287 . S
C586 O593 1.255 . S
O587 Fe576 1.976 . S
O587 C594 1.287 . S
O588 Fe577 1.996 . S
O588 C594 1.255 . S
O589 Fe579 1.976 . S
O589 C584 1.287 . S
O590 Fe576 1.996 . S
O590 C584 1.255 . S
C591 O595 1.295 . S
C591 O596 1.235 . S
O592 Fe577 1.976 . S
O592 C586 1.287 . S
O593 Fe579 1.996 . S
O593 C586 1.255 . S
C594 O587 1.287 . S
C594 O588 1.255 . S
O595 Fe577 2.002 . S
O595 C591 1.295 . S
O596 Fe579 1.997 . S
O596 C591 1.235 . S
C597 O580 1.295 . S
C597 O581 1.235 . S
Fe598 O600 1.918 . S
Fe598 O603 1.997 . S
Fe598 O604 2.002 . S
Fe598 O609 1.976 . S
Fe598 O612 1.996 . S
Fe599 O600 1.918 . S
Fe599 O607 1.997 . S
Fe599 O610 1.996 . S
Fe599 O614 1.976 . S
Fe599 O617 2.002 . S
O600 Fe598 1.918 . S
O600 Fe599 1.918 . S
O600 Fe601 1.918 . S
Fe601 O600 1.918 . S
Fe601 O602 2.002 . S
Fe601 O611 1.976 . S
Fe601 O615 1.996 . S
Fe601 O618 1.997 . S
O602 Fe601 2.002 . S
O602 C619 1.295 . S
O603 Fe598 1.997 . S
O603 C619 1.235 . S
O604 Fe598 2.002 . S
O604 C605 1.295 . S
C605 O604 1.295 . S
C605 O607 1.235 . S
C606 O611 1.287 . S
C606 O612 1.255 . S
O607 Fe599 1.997 . S
O607 C605 1.235 . S
C608 O614 1.287 . S
C608 O615 1.255 . S
O609 Fe598 1.976 . S
O609 C616 1.287 . S
O610 Fe599 1.996 . S
O610 C616 1.255 . S
O611 Fe601 1.976 . S
O611 C606 1.287 . S
O612 Fe598 1.996 . S
O612 C606 1.255 . S
C613 O617 1.295 . S
C613 O618 1.235 . S
O614 Fe599 1.976 . S
O614 C608 1.287 . S
O615 Fe601 1.996 . S
O615 C608 1.255 . S
C616 O609 1.287 . S
C616 O610 1.255 . S
O617 Fe599 2.002 . S
O617 C613 1.295 . S
O618 Fe601 1.997 . S
O618 C613 1.235 . S
C619 O602 1.295 . S
C619 O603 1.235 . S
Fe620 O622 1.918 . S
Fe620 O625 1.997 . S
Fe620 O626 2.002 . S
Fe620 O631 1.976 . S
Fe620 O634 1.996 . S
Fe621 O622 1.918 . S
Fe621 O629 1.997 . S
Fe621 O632 1.996 . S
Fe621 O636 1.976 . S
Fe621 O639 2.002 . S
O622 Fe620 1.918 . S
O622 Fe621 1.918 . S
O622 Fe623 1.918 . S
Fe623 O622 1.918 . S
Fe623 O624 2.002 . S
Fe623 O633 1.976 . S
Fe623 O637 1.996 . S
Fe623 O640 1.997 . S
O624 Fe623 2.002 . S
O624 C641 1.295 . S
O625 Fe620 1.997 . S
O625 C641 1.235 . S
O626 Fe620 2.002 . S
O626 C627 1.295 . S
C627 O626 1.295 . S
C627 O629 1.235 . S
C628 O633 1.287 . S
C628 O634 1.255 . S
O629 Fe621 1.997 . S
O629 C627 1.235 . S
C630 O636 1.287 . S
C630 O637 1.255 . S
O631 Fe620 1.976 . S
O631 C638 1.287 . S
O632 Fe621 1.996 . S
O632 C638 1.255 . S
O633 Fe623 1.976 . S
O633 C628 1.287 . S
O634 Fe620 1.996 . S
O634 C628 1.255 . S
C635 O639 1.295 . S
C635 O640 1.235 . S
O636 Fe621 1.976 . S
O636 C630 1.287 . S
O637 Fe623 1.996 . S
O637 C630 1.255 . S
C638 O631 1.287 . S
C638 O632 1.255 . S
O639 Fe621 2.002 . S
O639 C635 1.295 . S
O640 Fe623 1.997 . S
O640 C635 1.235 . S
C641 O624 1.295 . S
C641 O625 1.235 . S
Fe642 O644 1.918 . S
Fe642 O647 1.997 . S
Fe642 O648 2.002 . S
Fe642 O653 1.976 . S
Fe642 O656 1.996 . S
Fe643 O644 1.918 . S
Fe643 O651 1.997 . S
Fe643 O654 1.996 . S
Fe643 O658 1.976 . S
Fe643 O661 2.002 . S
O644 Fe642 1.918 . S
O644 Fe643 1.918 . S
O644 Fe645 1.918 . S
Fe645 O644 1.918 . S
Fe645 O646 2.002 . S
Fe645 O655 1.976 . S
Fe645 O659 1.996 . S
Fe645 O662 1.997 . S
O646 Fe645 2.002 . S
O646 C663 1.295 . S
O647 Fe642 1.997 . S
O647 C663 1.235 . S
O648 Fe642 2.002 . S
O648 C649 1.295 . S
C649 O648 1.295 . S
C649 O651 1.235 . S
C650 O655 1.287 . S
C650 O656 1.255 . S
O651 Fe643 1.997 . S
O651 C649 1.235 . S
C652 O658 1.287 . S
C652 O659 1.255 . S
O653 Fe642 1.976 . S
O653 C660 1.287 . S
O654 Fe643 1.996 . S
O654 C660 1.255 . S
O655 Fe645 1.976 . S
O655 C650 1.287 . S
O656 Fe642 1.996 . S
O656 C650 1.255 . S
C657 O661 1.295 . S
C657 O662 1.235 . S
O658 Fe643 1.976 . S
O658 C652 1.287 . S
O659 Fe645 1.996 . S
O659 C652 1.255 . S
C660 O653 1.287 . S
C660 O654 1.255 . S
O661 Fe643 2.002 . S
O661 C657 1.295 . S
O662 Fe645 1.997 . S
O662 C657 1.235 . S
C663 O646 1.295 . S
C663 O647 1.235 . S
H664 C676 0.930 . S
H665 C678 0.930 . S
H666 C679 0.930 . S
H667 C683 0.959 . S
H668 C683 0.959 . S
H669 C683 0.961 . S
H670 C684 0.960 . S
H671 C684 0.961 . S
H672 C684 0.959 . S
H673 C687 0.929 . S
H674 C688 0.931 . S
H675 C690 0.930 . S
C676 H664 0.930 . S
C676 C677 1.399 . S
C676 C681 1.399 . S
C677 C676 1.399 . S
C677 C678 1.376 . S
C678 H665 0.930 . S
C678 C677 1.376 . S
C678 C679 1.388 . S
C679 H666 0.930 . S
C679 C678 1.388 . S
C679 C680 1.390 . S
C680 C679 1.390 . S
C680 C681 1.394 . S
C680 C686 1.465 . S
C681 C676 1.399 . S
C681 C680 1.394 . S
C681 C682 1.516 . S
C682 C681 1.516 . S
C682 C683 1.502 . S
C682 C684 1.561 . S
C682 C685 1.526 . S
C683 H667 0.959 . S
C683 H668 0.959 . S
C683 H669 0.961 . S
C683 C682 1.502 . S
C684 H670 0.960 . S
C684 H671 0.961 . S
C684 H672 0.959 . S
C684 C682 1.561 . S
C685 C682 1.526 . S
C685 C686 1.396 . S
C685 C690 1.390 . S
C686 C680 1.465 . S
C686 C685 1.396 . S
C686 C687 1.399 . S
C687 H673 0.929 . S
C687 C686 1.399 . S
C687 C688 1.385 . S
C688 H674 0.931 . S
C688 C687 1.385 . S
C688 C689 1.389 . S
C689 C688 1.389 . S
C689 C690 1.387 . S
C690 H675 0.930 . S
C690 C685 1.390 . S
C690 C689 1.387 . S
H691 C703 0.930 . S
H692 C705 0.930 . S
H693 C706 0.930 . S
H694 C710 0.959 . S
H695 C710 0.959 . S
H696 C710 0.961 . S
H697 C711 0.960 . S
H698 C711 0.961 . S
H699 C711 0.959 . S
H700 C714 0.929 . S
H701 C715 0.931 . S
H702 C717 0.930 . S
C703 H691 0.930 . S
C703 C704 1.399 . S
C703 C708 1.399 . S
C704 C703 1.399 . S
C704 C705 1.376 . S
C705 H692 0.930 . S
C705 C704 1.376 . S
C705 C706 1.388 . S
C706 H693 0.930 . S
C706 C705 1.388 . S
C706 C707 1.390 . S
C707 C706 1.390 . S
C707 C708 1.394 . S
C707 C713 1.465 . S
C708 C703 1.399 . S
C708 C707 1.394 . S
C708 C709 1.516 . S
C709 C708 1.516 . S
C709 C710 1.502 . S
C709 C711 1.561 . S
C709 C712 1.526 . S
C710 H694 0.959 . S
C710 H695 0.959 . S
C710 H696 0.961 . S
C710 C709 1.502 . S
C711 H697 0.960 . S
C711 H698 0.961 . S
C711 H699 0.959 . S
C711 C709 1.561 . S
C712 C709 1.526 . S
C712 C713 1.396 . S
C712 C717 1.390 . S
C713 C707 1.465 . S
C713 C712 1.396 . S
C713 C714 1.399 . S
C714 H700 0.929 . S
C714 C713 1.399 . S
C714 C715 1.385 . S
C715 H701 0.931 . S
C715 C714 1.385 . S
C715 C716 1.389 . S
C716 C715 1.389 . S
C716 C717 1.387 . S
C717 H702 0.930 . S
C717 C712 1.390 . S
C717 C716 1.387 . S
H718 C730 0.930 . S
H719 C732 0.930 . S
H720 C733 0.930 . S
H721 C737 0.959 . S
H722 C737 0.959 . S
H723 C737 0.961 . S
H724 C738 0.960 . S
H725 C738 0.961 . S
H726 C738 0.959 . S
H727 C741 0.929 . S
H728 C742 0.931 . S
H729 C744 0.930 . S
C730 H718 0.930 . S
C730 C731 1.399 . S
C730 C735 1.399 . S
C731 C730 1.399 . S
C731 C732 1.376 . S
C732 H719 0.930 . S
C732 C731 1.376 . S
C732 C733 1.388 . S
C733 H720 0.930 . S
C733 C732 1.388 . S
C733 C734 1.390 . S
C734 C733 1.390 . S
C734 C735 1.394 . S
C734 C740 1.465 . S
C735 C730 1.399 . S
C735 C734 1.394 . S
C735 C736 1.516 . S
C736 C735 1.516 . S
C736 C737 1.502 . S
C736 C738 1.561 . S
C736 C739 1.526 . S
C737 H721 0.959 . S
C737 H722 0.959 . S
C737 H723 0.961 . S
C737 C736 1.502 . S
C738 H724 0.960 . S
C738 H725 0.961 . S
C738 H726 0.959 . S
C738 C736 1.561 . S
C739 C736 1.526 . S
C739 C740 1.396 . S
C739 C744 1.390 . S
C740 C734 1.465 . S
C740 C739 1.396 . S
C740 C741 1.399 . S
C741 H727 0.929 . S
C741 C740 1.399 . S
C741 C742 1.385 . S
C742 H728 0.931 . S
C742 C741 1.385 . S
C742 C743 1.389 . S
C743 C742 1.389 . S
C743 C744 1.387 . S
C744 H729 0.930 . S
C744 C739 1.390 . S
C744 C743 1.387 . S
H745 C757 0.930 . S
H746 C759 0.930 . S
H747 C760 0.930 . S
H748 C764 0.959 1_554 S
H749 C764 0.959 . S
H750 C764 0.961 1_554 S
H751 C765 0.960 . S
H752 C765 0.961 . S
H753 C765 0.959 . S
H754 C768 0.929 . S
H755 C769 0.931 . S
H756 C771 0.930 . S
C757 H745 0.930 . S
C757 C758 1.399 . S
C757 C762 1.399 . S
C758 C757 1.399 . S
C758 C759 1.376 . S
C759 H746 0.930 . S
C759 C758 1.376 . S
C759 C760 1.388 . S
C760 H747 0.930 . S
C760 C759 1.388 . S
C760 C761 1.390 . S
C761 C760 1.390 . S
C761 C762 1.394 . S
C761 C767 1.465 . S
C762 C757 1.399 . S
C762 C761 1.394 . S
C762 C763 1.516 1_554 S
C763 C762 1.516 1_556 S
C763 C764 1.502 . S
C763 C765 1.561 . S
C763 C766 1.526 . S
C764 H748 0.959 1_556 S
C764 H749 0.959 . S
C764 H750 0.961 1_556 S
C764 C763 1.502 . S
C765 H751 0.960 . S
C765 H752 0.961 . S
C765 H753 0.959 . S
C765 C763 1.561 . S
C766 C763 1.526 . S
C766 C767 1.396 1_556 S
C766 C771 1.390 . S
C767 C761 1.465 . S
C767 C766 1.396 1_554 S
C767 C768 1.399 . S
C768 H754 0.929 . S
C768 C767 1.399 . S
C768 C769 1.385 1_554 S
C769 H755 0.931 . S
C769 C768 1.385 1_556 S
C769 C770 1.389 . S
C770 C769 1.389 . S
C770 C771 1.387 . S
C771 H756 0.930 . S
C771 C766 1.390 . S
C771 C770 1.387 . S
H772 C784 0.930 . S
H773 C786 0.930 . S
H774 C787 0.930 . S
H775 C791 0.959 . S
H776 C791 0.959 . S
H777 C791 0.961 . S
H778 C792 0.960 . S
H779 C792 0.961 . S
H780 C792 0.959 . S
H781 C795 0.929 . S
H782 C796 0.931 . S
H783 C798 0.930 . S
C784 H772 0.930 . S
C784 C785 1.399 . S
C784 C789 1.399 . S
C785 C784 1.399 . S
C785 C786 1.376 . S
C786 H773 0.930 . S
C786 C785 1.376 . S
C786 C787 1.388 . S
C787 H774 0.930 . S
C787 C786 1.388 . S
C787 C788 1.390 . S
C788 C787 1.390 . S
C788 C789 1.394 . S
C788 C794 1.465 . S
C789 C784 1.399 . S
C789 C788 1.394 . S
C789 C790 1.516 . S
C790 C789 1.516 . S
C790 C791 1.502 . S
C790 C792 1.561 . S
C790 C793 1.526 . S
C791 H775 0.959 . S
C791 H776 0.959 . S
C791 H777 0.961 . S
C791 C790 1.502 . S
C792 H778 0.960 . S
C792 H779 0.961 . S
C792 H780 0.959 . S
C792 C790 1.561 . S
C793 C790 1.526 . S
C793 C794 1.396 . S
C793 C798 1.390 . S
C794 C788 1.465 . S
C794 C793 1.396 . S
C794 C795 1.399 . S
C795 H781 0.929 . S
C795 C794 1.399 . S
C795 C796 1.385 . S
C796 H782 0.931 . S
C796 C795 1.385 . S
C796 C797 1.389 . S
C797 C796 1.389 . S
C797 C798 1.387 . S
C798 H783 0.930 . S
C798 C793 1.390 . S
C798 C797 1.387 . S
H799 C811 0.930 . S
H800 C813 0.930 . S
H801 C814 0.930 . S
H802 C818 0.959 . S
H803 C818 0.959 . S
H804 C818 0.961 . S
H805 C819 0.960 . S
H806 C819 0.961 . S
H807 C819 0.959 . S
H808 C822 0.929 . S
H809 C823 0.931 . S
H810 C825 0.930 . S
C811 H799 0.930 . S
C811 C812 1.399 . S
C811 C816 1.399 . S
C812 C811 1.399 . S
C812 C813 1.376 . S
C813 H800 0.930 . S
C813 C812 1.376 . S
C813 C814 1.388 . S
C814 H801 0.930 . S
C814 C813 1.388 . S
C814 C815 1.390 . S
C815 C814 1.390 . S
C815 C816 1.394 . S
C815 C821 1.465 . S
C816 C811 1.399 . S
C816 C815 1.394 . S
C816 C817 1.516 . S
C817 C816 1.516 . S
C817 C818 1.502 . S
C817 C819 1.561 . S
C817 C820 1.526 . S
C818 H802 0.959 . S
C818 H803 0.959 . S
C818 H804 0.961 . S
C818 C817 1.502 . S
C819 H805 0.960 . S
C819 H806 0.961 . S
C819 H807 0.959 . S
C819 C817 1.561 . S
C820 C817 1.526 . S
C820 C821 1.396 . S
C820 C825 1.390 . S
C821 C815 1.465 . S
C821 C820 1.396 . S
C821 C822 1.399 . S
C822 H808 0.929 . S
C822 C821 1.399 . S
C822 C823 1.385 . S
C823 H809 0.931 . S
C823 C822 1.385 . S
C823 C824 1.389 . S
C824 C823 1.389 . S
C824 C825 1.387 . S
C825 H810 0.930 . S
C825 C820 1.390 . S
C825 C824 1.387 . S
H826 C838 0.930 . S
H827 C840 0.930 . S
H828 C841 0.930 . S
H829 C845 0.959 . S
H830 C845 0.959 . S
H831 C845 0.961 . S
H832 C846 0.960 . S
H833 C846 0.961 . S
H834 C846 0.959 . S
H835 C849 0.929 . S
H836 C850 0.931 . S
H837 C852 0.930 . S
C838 H826 0.930 . S
C838 C839 1.399 . S
C838 C843 1.399 . S
C839 C838 1.399 . S
C839 C840 1.376 . S
C840 H827 0.930 . S
C840 C839 1.376 . S
C840 C841 1.388 . S
C841 H828 0.930 . S
C841 C840 1.388 . S
C841 C842 1.390 . S
C842 C841 1.390 . S
C842 C843 1.394 . S
C842 C848 1.465 . S
C843 C838 1.399 . S
C843 C842 1.394 . S
C843 C844 1.516 . S
C844 C843 1.516 . S
C844 C845 1.502 . S
C844 C846 1.561 . S
C844 C847 1.526 . S
C845 H829 0.959 . S
C845 H830 0.959 . S
C845 H831 0.961 . S
C845 C844 1.502 . S
C846 H832 0.960 . S
C846 H833 0.961 . S
C846 H834 0.959 . S
C846 C844 1.561 . S
C847 C844 1.526 . S
C847 C848 1.396 . S
C847 C852 1.390 . S
C848 C842 1.465 . S
C848 C847 1.396 . S
C848 C849 1.399 . S
C849 H835 0.929 . S
C849 C848 1.399 . S
C849 C850 1.385 . S
C850 H836 0.931 . S
C850 C849 1.385 . S
C850 C851 1.389 . S
C851 C850 1.389 . S
C851 C852 1.387 . S
C852 H837 0.930 . S
C852 C847 1.390 . S
C852 C851 1.387 . S
H853 C865 0.930 . S
H854 C867 0.930 . S
H855 C868 0.930 . S
H856 C872 0.959 . S
H857 C872 0.959 . S
H858 C872 0.961 . S
H859 C873 0.960 . S
H860 C873 0.961 . S
H861 C873 0.959 . S
H862 C876 0.929 . S
H863 C877 0.931 . S
H864 C879 0.930 . S
C865 H853 0.930 . S
C865 C866 1.399 . S
C865 C870 1.399 . S
C866 C865 1.399 . S
C866 C867 1.376 . S
C867 H854 0.930 . S
C867 C866 1.376 . S
C867 C868 1.388 . S
C868 H855 0.930 . S
C868 C867 1.388 . S
C868 C869 1.390 . S
C869 C868 1.390 . S
C869 C870 1.394 . S
C869 C875 1.465 . S
C870 C865 1.399 . S
C870 C869 1.394 . S
C870 C871 1.516 1_556 S
C871 C870 1.516 1_554 S
C871 C872 1.502 . S
C871 C873 1.561 . S
C871 C874 1.526 . S
C872 H856 0.959 . S
C872 H857 0.959 . S
C872 H858 0.961 . S
C872 C871 1.502 . S
C873 H859 0.960 . S
C873 H860 0.961 . S
C873 H861 0.959 . S
C873 C871 1.561 . S
C874 C871 1.526 . S
C874 C875 1.396 1_554 S
C874 C879 1.390 . S
C875 C869 1.465 . S
C875 C874 1.396 1_556 S
C875 C876 1.399 . S
C876 H862 0.929 . S
C876 C875 1.399 . S
C876 C877 1.385 1_556 S
C877 H863 0.931 . S
C877 C876 1.385 1_554 S
C877 C878 1.389 . S
C878 C877 1.389 . S
C878 C879 1.387 . S
C879 H864 0.930 . S
C879 C874 1.390 . S
C879 C878 1.387 . S
H880 C892 0.930 . S
H881 C894 0.930 . S
H882 C895 0.930 . S
H883 C899 0.959 . S
H884 C899 0.959 . S
H885 C899 0.961 . S
H886 C900 0.960 . S
H887 C900 0.961 . S
H888 C900 0.959 . S
H889 C903 0.929 . S
H890 C904 0.931 . S
H891 C906 0.930 . S
C892 H880 0.930 . S
C892 C893 1.399 . S
C892 C897 1.399 . S
C893 C892 1.399 . S
C893 C894 1.376 . S
C894 H881 0.930 . S
C894 C893 1.376 . S
C894 C895 1.388 . S
C895 H882 0.930 . S
C895 C894 1.388 . S
C895 C896 1.390 . S
C896 C895 1.390 . S
C896 C897 1.394 . S
C896 C902 1.465 . S
C897 C892 1.399 . S
C897 C896 1.394 . S
C897 C898 1.516 . S
C898 C897 1.516 . S
C898 C899 1.502 . S
C898 C900 1.561 . S
C898 C901 1.526 . S
C899 H883 0.959 . S
C899 H884 0.959 . S
C899 H885 0.961 . S
C899 C898 1.502 . S
C900 H886 0.960 . S
C900 H887 0.961 . S
C900 H888 0.959 . S
C900 C898 1.561 . S
C901 C898 1.526 . S
C901 C902 1.396 . S
C901 C906 1.390 . S
C902 C896 1.465 . S
C902 C901 1.396 . S
C902 C903 1.399 . S
C903 H889 0.929 . S
C903 C902 1.399 . S
C903 C904 1.385 . S
C904 H890 0.931 . S
C904 C903 1.385 . S
C904 C905 1.389 . S
C905 C904 1.389 . S
C905 C906 1.387 . S
C906 H891 0.930 . S
C906 C901 1.390 . S
C906 C905 1.387 . S
H907 C919 0.930 . S
H908 C921 0.930 . S
H909 C922 0.930 . S
H910 C926 0.959 . S
H911 C926 0.959 . S
H912 C926 0.961 . S
H913 C927 0.960 . S
H914 C927 0.961 . S
H915 C927 0.959 . S
H916 C930 0.929 . S
H917 C931 0.931 . S
H918 C933 0.930 . S
C919 H907 0.930 . S
C919 C920 1.399 . S
C919 C924 1.399 . S
C920 C919 1.399 . S
C920 C921 1.376 . S
C921 H908 0.930 . S
C921 C920 1.376 . S
C921 C922 1.388 . S
C922 H909 0.930 . S
C922 C921 1.388 . S
C922 C923 1.390 . S
C923 C922 1.390 . S
C923 C924 1.394 . S
C923 C929 1.465 1_545 S
C924 C919 1.399 . S
C924 C923 1.394 . S
C924 C925 1.516 . S
C925 C924 1.516 . S
C925 C926 1.502 . S
C925 C927 1.561 . S
C925 C928 1.526 . S
C926 H910 0.959 . S
C926 H911 0.959 . S
C926 H912 0.961 . S
C926 C925 1.502 . S
C927 H913 0.960 . S
C927 H914 0.961 . S
C927 H915 0.959 . S
C927 C925 1.561 . S
C928 C925 1.526 . S
C928 C929 1.396 1_545 S
C928 C933 1.390 1_545 S
C929 C923 1.465 1_565 S
C929 C928 1.396 1_565 S
C929 C930 1.399 . S
C930 H916 0.929 . S
C930 C929 1.399 . S
C930 C931 1.385 . S
C931 H917 0.931 . S
C931 C930 1.385 . S
C931 C932 1.389 . S
C932 C931 1.389 . S
C932 C933 1.387 . S
C933 H918 0.930 . S
C933 C928 1.390 1_565 S
C933 C932 1.387 . S
H934 C946 0.930 . S
H935 C948 0.961 . S
H936 C949 0.930 . S
H937 C953 0.959 . S
H938 C953 0.959 . S
H939 C953 0.961 . S
H940 C954 0.960 . S
H941 C954 0.961 . S
H942 C954 0.959 . S
H943 C957 0.929 . S
H944 C958 0.931 . S
H945 C960 0.930 . S
C946 H934 0.930 . S
C946 C947 1.399 . S
C946 C951 1.399 . S
C947 C946 1.399 . S
C947 C948 1.376 . S
C948 H935 0.961 . S
C948 C947 1.376 . S
C948 C949 1.388 . S
C949 H936 0.930 . S
C949 C948 1.388 . S
C949 C950 1.390 . S
C950 C949 1.390 . S
C950 C951 1.394 . S
C950 C956 1.465 . S
C951 C946 1.399 . S
C951 C950 1.394 . S
C951 C952 1.516 . S
C952 C951 1.516 . S
C952 C953 1.502 . S
C952 C954 1.561 . S
C952 C955 1.526 . S
C953 H937 0.959 . S
C953 H938 0.959 . S
C953 H939 0.961 . S
C953 C952 1.502 . S
C954 H940 0.960 . S
C954 H941 0.961 . S
C954 H942 0.959 . S
C954 C952 1.561 . S
C955 C952 1.526 . S
C955 C956 1.396 . S
C955 C960 1.390 . S
C956 C950 1.465 . S
C956 C955 1.396 . S
C956 C957 1.399 . S
C957 H943 0.929 . S
C957 C956 1.399 . S
C957 C958 1.385 . S
C958 H944 0.931 . S
C958 C957 1.385 . S
C958 C959 1.389 . S
C959 C958 1.389 . S
C959 C960 1.387 . S
C960 H945 0.930 . S
C960 C955 1.390 . S
C960 C959 1.387 . S
H961 C973 0.930 . S
H962 C975 0.930 . S
H963 C976 0.930 . S
H964 C980 0.959 . S
H965 C980 0.959 . S
H966 C980 0.961 . S
H967 C981 0.974 . S
H968 C981 0.961 1_545 S
H969 C981 0.959 . S
H970 C984 0.925 1_565 S
H971 C985 0.931 . S
H972 C987 0.930 . S
C973 H961 0.930 . S
C973 C974 1.399 . S
C973 C978 1.399 . S
C974 C973 1.399 . S
C974 C975 1.376 . S
C975 H962 0.930 . S
C975 C974 1.376 . S
C975 C976 1.388 . S
C976 H963 0.930 . S
C976 C975 1.388 . S
C976 C977 1.390 . S
C977 C976 1.390 . S
C977 C978 1.394 . S
C977 C983 1.465 . S
C978 C973 1.399 . S
C978 C977 1.394 . S
C978 C979 1.516 1_565 S
C979 C978 1.516 1_545 S
C979 C980 1.502 . S
C979 C981 1.561 1_545 S
C979 C982 1.526 . S
C980 H964 0.959 . S
C980 H965 0.959 . S
C980 H966 0.961 . S
C980 C979 1.502 . S
C981 H967 0.974 . S
C981 H968 0.961 1_565 S
C981 H969 0.959 . S
C981 C979 1.561 1_565 S
C982 C979 1.526 . S
C982 C983 1.396 1_545 S
C982 C987 1.390 . S
C983 C977 1.465 . S
C983 C982 1.396 1_565 S
C983 C984 1.398 1_565 S
C984 H970 0.925 1_545 S
C984 C983 1.398 1_545 S
C984 C985 1.391 . S
C985 H971 0.931 . S
C985 C984 1.391 . S
C985 C986 1.389 . S
C986 C985 1.389 . S
C986 C987 1.387 . S
C987 H972 0.930 . S
C987 C982 1.390 . S
C987 C986 1.387 . S
H988 C1000 0.930 . S
H989 C1002 0.930 1_545 S
H990 C1003 0.930 . S
H991 C1007 0.959 . S
H992 C1007 0.959 . S
H993 C1007 0.961 . S
H994 C1008 0.960 . S
H995 C1008 0.961 . S
H996 C1008 0.959 . S
H997 C1011 0.929 . S
H998 C1012 0.931 . S
H999 C1014 0.930 . S
C1000 H988 0.930 . S
C1000 C1001 1.399 . S
C1000 C1005 1.399 . S
C1001 C1000 1.399 . S
C1001 C1002 1.376 . S
C1002 H989 0.930 1_565 S
C1002 C1001 1.376 . S
C1002 C1003 1.388 . S
C1003 H990 0.930 . S
C1003 C1002 1.388 . S
C1003 C1004 1.390 . S
C1004 C1003 1.390 . S
C1004 C1005 1.394 . S
C1004 C1010 1.465 . S
C1005 C1000 1.399 . S
C1005 C1004 1.394 . S
C1005 C1006 1.516 . S
C1006 C1005 1.516 . S
C1006 C1007 1.502 . S
C1006 C1008 1.561 . S
C1006 C1009 1.526 . S
C1007 H991 0.959 . S
C1007 H992 0.959 . S
C1007 H993 0.961 . S
C1007 C1006 1.502 . S
C1008 H994 0.960 . S
C1008 H995 0.961 . S
C1008 H996 0.959 . S
C1008 C1006 1.561 . S
C1009 C1006 1.526 . S
C1009 C1010 1.396 . S
C1009 C1014 1.390 . S
C1010 C1004 1.465 . S
C1010 C1009 1.396 . S
C1010 C1011 1.399 . S
C1011 H997 0.929 . S
C1011 C1010 1.399 . S
C1011 C1012 1.385 . S
C1012 H998 0.931 . S
C1012 C1011 1.385 . S
C1012 C1013 1.389 . S
C1013 C1012 1.389 . S
C1013 C1014 1.387 . S
C1014 H999 0.930 . S
C1014 C1009 1.390 . S
C1014 C1013 1.387 . S
H1015 C1027 0.930 . S
H1016 C1029 0.930 . S
H1017 C1030 0.930 . S
H1018 C1034 0.959 . S
H1019 C1034 0.959 . S
H1020 C1034 0.961 . S
H1021 C1035 0.960 . S
H1022 C1035 0.961 . S
H1023 C1035 0.959 . S
H1024 C1038 0.929 . S
H1025 C1039 0.931 . S
H1026 C1041 0.930 . S
C1027 H1015 0.930 . S
C1027 C1028 1.399 . S
C1027 C1032 1.399 . S
C1028 C1027 1.399 . S
C1028 C1029 1.376 . S
C1029 H1016 0.930 . S
C1029 C1028 1.376 . S
C1029 C1030 1.388 . S
C1030 H1017 0.930 . S
C1030 C1029 1.388 . S
C1030 C1031 1.390 . S
C1031 C1030 1.390 . S
C1031 C1032 1.394 . S
C1031 C1037 1.465 . S
C1032 C1027 1.399 . S
C1032 C1031 1.394 . S
C1032 C1033 1.516 1_545 S
C1033 C1032 1.516 1_565 S
C1033 C1034 1.502 . S
C1033 C1035 1.561 . S
C1033 C1036 1.526 . S
C1034 H1018 0.959 . S
C1034 H1019 0.959 . S
C1034 H1020 0.961 . S
C1034 C1033 1.502 . S
C1035 H1021 0.960 . S
C1035 H1022 0.961 . S
C1035 H1023 0.959 . S
C1035 C1033 1.561 . S
C1036 C1033 1.526 . S
C1036 C1037 1.396 1_565 S
C1036 C1041 1.390 . S
C1037 C1031 1.465 . S
C1037 C1036 1.396 1_545 S
C1037 C1038 1.399 . S
C1038 H1024 0.929 . S
C1038 C1037 1.399 . S
C1038 C1039 1.385 1_545 S
C1039 H1025 0.931 . S
C1039 C1038 1.385 1_565 S
C1039 C1040 1.389 . S
C1040 C1039 1.389 . S
C1040 C1041 1.387 . S
C1041 H1026 0.930 . S
C1041 C1036 1.390 . S
C1041 C1040 1.387 . S
H1042 C1054 0.930 . S
H1043 C1056 0.930 . S
H1044 C1057 0.930 . S
H1045 C1061 0.959 . S
H1046 C1061 0.959 . S
H1047 C1061 0.961 . S
H1048 C1062 0.960 . S
H1049 C1062 0.961 . S
H1050 C1062 0.959 . S
H1051 C1065 0.929 . S
H1052 C1066 0.931 . S
H1053 C1068 0.930 . S
C1054 H1042 0.930 . S
C1054 C1055 1.399 . S
C1054 C1059 1.399 . S
C1055 C1054 1.399 . S
C1055 C1056 1.376 . S
C1056 H1043 0.930 . S
C1056 C1055 1.376 . S
C1056 C1057 1.388 . S
C1057 H1044 0.930 . S
C1057 C1056 1.388 . S
C1057 C1058 1.390 . S
C1058 C1057 1.390 . S
C1058 C1059 1.394 . S
C1058 C1064 1.465 . S
C1059 C1054 1.399 . S
C1059 C1058 1.394 . S
C1059 C1060 1.516 . S
C1060 C1059 1.516 . S
C1060 C1061 1.502 . S
C1060 C1062 1.561 . S
C1060 C1063 1.526 . S
C1061 H1045 0.959 . S
C1061 H1046 0.959 . S
C1061 H1047 0.961 . S
C1061 C1060 1.502 . S
C1062 H1048 0.960 . S
C1062 H1049 0.961 . S
C1062 H1050 0.959 . S
C1062 C1060 1.561 . S
C1063 C1060 1.526 . S
C1063 C1064 1.396 . S
C1063 C1068 1.390 . S
C1064 C1058 1.465 . S
C1064 C1063 1.396 . S
C1064 C1065 1.399 . S
C1065 H1051 0.929 . S
C1065 C1064 1.399 . S
C1065 C1066 1.385 . S
C1066 H1052 0.931 . S
C1066 C1065 1.385 . S
C1066 C1067 1.389 . S
C1067 C1066 1.389 . S
C1067 C1068 1.387 . S
C1068 H1053 0.930 . S
C1068 C1063 1.390 . S
C1068 C1067 1.387 . S
H1069 C1081 0.930 . S
H1070 C1083 0.930 . S
H1071 C1084 0.930 . S
H1072 C1088 0.959 . S
H1073 C1088 0.959 . S
H1074 C1088 0.961 . S
H1075 C1089 0.996 . S
H1076 C1089 0.961 . S
H1077 C1089 0.941 1_565 S
H1078 C1092 0.929 . S
H1079 C1093 0.931 . S
H1080 C1095 0.930 . S
C1081 H1069 0.930 . S
C1081 C1082 1.399 . S
C1081 C1086 1.399 . S
C1082 C1081 1.399 . S
C1082 C1083 1.376 . S
C1083 H1070 0.930 . S
C1083 C1082 1.376 . S
C1083 C1084 1.388 . S
C1084 H1071 0.930 . S
C1084 C1083 1.388 . S
C1084 C1085 1.390 . S
C1085 C1084 1.390 . S
C1085 C1086 1.394 . S
C1085 C1091 1.465 . S
C1086 C1081 1.399 . S
C1086 C1085 1.394 . S
C1086 C1087 1.516 1_565 S
C1087 C1086 1.516 1_545 S
C1087 C1088 1.502 . S
C1087 C1089 1.561 . S
C1087 C1090 1.526 . S
C1088 H1072 0.959 . S
C1088 H1073 0.959 . S
C1088 H1074 0.961 . S
C1088 C1087 1.502 . S
C1089 H1075 0.996 . S
C1089 H1076 0.961 . S
C1089 H1077 0.941 1_545 S
C1089 C1087 1.561 . S
C1090 C1087 1.526 . S
C1090 C1091 1.396 1_545 S
C1090 C1095 1.390 . S
C1091 C1085 1.465 . S
C1091 C1090 1.396 1_565 S
C1091 C1092 1.399 . S
C1092 H1078 0.929 . S
C1092 C1091 1.399 . S
C1092 C1093 1.385 1_565 S
C1093 H1079 0.931 . S
C1093 C1092 1.385 1_545 S
C1093 C1094 1.389 . S
C1094 C1093 1.389 . S
C1094 C1095 1.387 . S
C1095 H1080 0.930 . S
C1095 C1090 1.390 . S
C1095 C1094 1.387 . S
H1096 C1108 0.930 . S
H1097 C1110 0.930 . S
H1098 C1111 0.930 . S
H1099 C1115 0.959 . S
H1100 C1115 0.959 . S
H1101 C1115 0.961 . S
H1102 C1116 0.960 . S
H1103 C1116 0.961 . S
H1104 C1116 0.959 . S
H1105 C1119 0.929 . S
H1106 C1120 0.931 . S
H1107 C1122 0.930 . S
C1108 H1096 0.930 . S
C1108 C1109 1.399 . S
C1108 C1113 1.399 . S
C1109 C1108 1.399 . S
C1109 C1110 1.376 . S
C1110 H1097 0.930 . S
C1110 C1109 1.376 . S
C1110 C1111 1.388 . S
C1111 H1098 0.930 . S
C1111 C1110 1.388 . S
C1111 C1112 1.390 . S
C1112 C1111 1.390 . S
C1112 C1113 1.394 . S
C1112 C1118 1.465 . S
C1113 C1108 1.399 . S
C1113 C1112 1.394 . S
C1113 C1114 1.516 . S
C1114 C1113 1.516 . S
C1114 C1115 1.502 . S
C1114 C1116 1.561 . S
C1114 C1117 1.526 . S
C1115 H1099 0.959 . S
C1115 H1100 0.959 . S
C1115 H1101 0.961 . S
C1115 C1114 1.502 . S
C1116 H1102 0.960 . S
C1116 H1103 0.961 . S
C1116 H1104 0.959 . S
C1116 C1114 1.561 . S
C1117 C1114 1.526 . S
C1117 C1118 1.396 . S
C1117 C1122 1.390 . S
C1118 C1112 1.465 . S
C1118 C1117 1.396 . S
C1118 C1119 1.399 . S
C1119 H1105 0.929 . S
C1119 C1118 1.399 . S
C1119 C1120 1.385 . S
C1120 H1106 0.931 . S
C1120 C1119 1.385 . S
C1120 C1121 1.389 . S
C1121 C1120 1.389 . S
C1121 C1122 1.387 . S
C1122 H1107 0.930 . S
C1122 C1117 1.390 . S
C1122 C1121 1.387 . S
H1123 C1135 0.930 . S
H1124 C1137 0.930 1_554 S
H1125 C1138 0.930 . S
H1126 C1142 0.959 . S
H1127 C1142 0.959 . S
H1128 C1142 0.961 . S
H1129 C1143 0.960 . S
H1130 C1143 0.961 . S
H1131 C1143 0.959 . S
H1132 C1146 0.929 . S
H1133 C1147 0.931 . S
H1134 C1149 0.930 . S
C1135 H1123 0.930 . S
C1135 C1136 1.399 . S
C1135 C1140 1.399 . S
C1136 C1135 1.399 . S
C1136 C1137 1.376 . S
C1137 H1124 0.930 1_556 S
C1137 C1136 1.376 . S
C1137 C1138 1.388 . S
C1138 H1125 0.930 . S
C1138 C1137 1.388 . S
C1138 C1139 1.390 . S
C1139 C1138 1.390 . S
C1139 C1140 1.394 . S
C1139 C1145 1.465 . S
C1140 C1135 1.399 . S
C1140 C1139 1.394 . S
C1140 C1141 1.516 . S
C1141 C1140 1.516 . S
C1141 C1142 1.502 . S
C1141 C1143 1.561 . S
C1141 C1144 1.526 . S
C1142 H1126 0.959 . S
C1142 H1127 0.959 . S
C1142 H1128 0.961 . S
C1142 C1141 1.502 . S
C1143 H1129 0.960 . S
C1143 H1130 0.961 . S
C1143 H1131 0.959 . S
C1143 C1141 1.561 . S
C1144 C1141 1.526 . S
C1144 C1145 1.396 . S
C1144 C1149 1.390 . S
C1145 C1139 1.465 . S
C1145 C1144 1.396 . S
C1145 C1146 1.399 . S
C1146 H1132 0.929 . S
C1146 C1145 1.399 . S
C1146 C1147 1.385 . S
C1147 H1133 0.931 . S
C1147 C1146 1.385 . S
C1147 C1148 1.389 . S
C1148 C1147 1.389 . S
C1148 C1149 1.387 . S
C1149 H1134 0.930 . S
C1149 C1144 1.390 . S
C1149 C1148 1.387 . S
H1150 C1162 0.930 . S
H1151 C1164 0.930 . S
H1152 C1165 0.930 . S
H1153 C1169 0.959 1_455 S
H1154 C1169 0.959 . S
H1155 C1169 0.961 1_455 S
H1156 C1170 0.960 . S
H1157 C1170 0.961 . S
H1158 C1170 0.959 . S
H1159 C1173 0.929 1_455 S
H1160 C1174 0.931 . S
H1161 C1176 0.930 . S
C1162 H1150 0.930 . S
C1162 C1163 1.399 . S
C1162 C1167 1.399 . S
C1163 C1162 1.399 . S
C1163 C1164 1.376 . S
C1164 H1151 0.930 . S
C1164 C1163 1.376 . S
C1164 C1165 1.388 . S
C1165 H1152 0.930 . S
C1165 C1164 1.388 . S
C1165 C1166 1.390 . S
C1166 C1165 1.390 . S
C1166 C1167 1.394 . S
C1166 C1172 1.465 . S
C1167 C1162 1.399 . S
C1167 C1166 1.394 . S
C1167 C1168 1.516 1_455 S
C1168 C1167 1.516 1_655 S
C1168 C1169 1.502 . S
C1168 C1170 1.561 . S
C1168 C1171 1.526 . S
C1169 H1153 0.959 1_655 S
C1169 H1154 0.959 . S
C1169 H1155 0.961 1_655 S
C1169 C1168 1.502 . S
C1170 H1156 0.960 . S
C1170 H1157 0.961 . S
C1170 H1158 0.959 . S
C1170 C1168 1.561 . S
C1171 C1168 1.526 . S
C1171 C1172 1.396 1_655 S
C1171 C1176 1.390 . S
C1172 C1166 1.465 . S
C1172 C1171 1.396 1_455 S
C1172 C1173 1.399 1_455 S
C1173 H1159 0.929 1_655 S
C1173 C1172 1.399 1_655 S
C1173 C1174 1.385 . S
C1174 H1160 0.931 . S
C1174 C1173 1.385 . S
C1174 C1175 1.389 . S
C1175 C1174 1.389 . S
C1175 C1176 1.387 . S
C1176 H1161 0.930 . S
C1176 C1171 1.390 . S
C1176 C1175 1.387 . S
H1177 C1189 0.930 . S
H1178 C1191 0.930 . S
H1179 C1192 0.930 . S
H1180 C1196 0.959 . S
H1181 C1196 0.959 . S
H1182 C1196 0.961 . S
H1183 C1197 0.960 . S
H1184 C1197 0.961 . S
H1185 C1197 0.959 . S
H1186 C1200 0.929 . S
H1187 C1201 0.931 . S
H1188 C1203 0.930 . S
C1189 H1177 0.930 . S
C1189 C1190 1.399 . S
C1189 C1194 1.399 . S
C1190 C1189 1.399 . S
C1190 C1191 1.376 . S
C1191 H1178 0.930 . S
C1191 C1190 1.376 . S
C1191 C1192 1.388 . S
C1192 H1179 0.930 . S
C1192 C1191 1.388 . S
C1192 C1193 1.390 . S
C1193 C1192 1.390 . S
C1193 C1194 1.394 . S
C1193 C1199 1.465 . S
C1194 C1189 1.399 . S
C1194 C1193 1.394 . S
C1194 C1195 1.516 . S
C1195 C1194 1.516 . S
C1195 C1196 1.502 . S
C1195 C1197 1.561 . S
C1195 C1198 1.526 . S
C1196 H1180 0.959 . S
C1196 H1181 0.959 . S
C1196 H1182 0.961 . S
C1196 C1195 1.502 . S
C1197 H1183 0.960 . S
C1197 H1184 0.961 . S
C1197 H1185 0.959 . S
C1197 C1195 1.561 . S
C1198 C1195 1.526 . S
C1198 C1199 1.396 . S
C1198 C1203 1.390 . S
C1199 C1193 1.465 . S
C1199 C1198 1.396 . S
C1199 C1200 1.399 . S
C1200 H1186 0.929 . S
C1200 C1199 1.399 . S
C1200 C1201 1.385 . S
C1201 H1187 0.931 . S
C1201 C1200 1.385 . S
C1201 C1202 1.389 . S
C1202 C1201 1.389 . S
C1202 C1203 1.387 . S
C1203 H1188 0.930 . S
C1203 C1198 1.390 . S
C1203 C1202 1.387 . S
H1204 C1216 0.930 . S
H1205 C1218 0.930 . S
H1206 C1219 0.930 . S
H1207 C1223 0.959 . S
H1208 C1223 0.959 . S
H1209 C1223 0.961 . S
H1210 C1224 0.960 . S
H1211 C1224 0.961 . S
H1212 C1224 0.959 . S
H1213 C1227 0.929 . S
H1214 C1228 0.931 . S
H1215 C1230 0.930 . S
C1216 H1204 0.930 . S
C1216 C1217 1.399 . S
C1216 C1221 1.399 . S
C1217 C1216 1.399 . S
C1217 C1218 1.376 . S
C1218 H1205 0.930 . S
C1218 C1217 1.376 . S
C1218 C1219 1.388 . S
C1219 H1206 0.930 . S
C1219 C1218 1.388 . S
C1219 C1220 1.390 . S
C1220 C1219 1.390 . S
C1220 C1221 1.394 . S
C1220 C1226 1.465 1_655 S
C1221 C1216 1.399 . S
C1221 C1220 1.394 . S
C1221 C1222 1.516 . S
C1222 C1221 1.516 . S
C1222 C1223 1.502 . S
C1222 C1224 1.561 . S
C1222 C1225 1.526 1_655 S
C1223 H1207 0.959 . S
C1223 H1208 0.959 . S
C1223 H1209 0.961 . S
C1223 C1222 1.502 . S
C1224 H1210 0.960 . S
C1224 H1211 0.961 . S
C1224 H1212 0.959 . S
C1224 C1222 1.561 . S
C1225 C1222 1.526 1_455 S
C1225 C1226 1.396 . S
C1225 C1230 1.390 . S
C1226 C1220 1.465 1_455 S
C1226 C1225 1.396 . S
C1226 C1227 1.399 . S
C1227 H1213 0.929 . S
C1227 C1226 1.399 . S
C1227 C1228 1.385 . S
C1228 H1214 0.931 . S
C1228 C1227 1.385 . S
C1228 C1229 1.389 . S
C1229 C1228 1.389 . S
C1229 C1230 1.387 . S
C1230 H1215 0.930 . S
C1230 C1225 1.390 . S
C1230 C1229 1.387 . S
H1231 C1243 0.930 . S
H1232 C1245 0.930 . S
H1233 C1246 0.930 . S
H1234 C1250 0.959 . S
H1235 C1250 0.959 . S
H1236 C1250 0.961 . S
H1237 C1251 0.960 . S
H1238 C1251 0.961 . S
H1239 C1251 0.959 . S
H1240 C1254 0.929 . S
H1241 C1255 0.931 . S
H1242 C1257 0.930 . S
C1243 H1231 0.930 . S
C1243 C1244 1.399 . S
C1243 C1248 1.399 . S
C1244 C1243 1.399 . S
C1244 C1245 1.376 . S
C1245 H1232 0.930 . S
C1245 C1244 1.376 . S
C1245 C1246 1.388 . S
C1246 H1233 0.930 . S
C1246 C1245 1.388 . S
C1246 C1247 1.390 . S
C1247 C1246 1.390 . S
C1247 C1248 1.394 . S
C1247 C1253 1.465 . S
C1248 C1243 1.399 . S
C1248 C1247 1.394 . S
C1248 C1249 1.516 . S
C1249 C1248 1.516 . S
C1249 C1250 1.502 . S
C1249 C1251 1.561 . S
C1249 C1252 1.526 . S
C1250 H1234 0.959 . S
C1250 H1235 0.959 . S
C1250 H1236 0.961 . S
C1250 C1249 1.502 . S
C1251 H1237 0.960 . S
C1251 H1238 0.961 . S
C1251 H1239 0.959 . S
C1251 C1249 1.561 . S
C1252 C1249 1.526 . S
C1252 C1253 1.396 . S
C1252 C1257 1.390 . S
C1253 C1247 1.465 . S
C1253 C1252 1.396 . S
C1253 C1254 1.399 . S
C1254 H1240 0.929 . S
C1254 C1253 1.399 . S
C1254 C1255 1.385 . S
C1255 H1241 0.931 . S
C1255 C1254 1.385 . S
C1255 C1256 1.389 . S
C1256 C1255 1.389 . S
C1256 C1257 1.387 . S
C1257 H1242 0.930 . S
C1257 C1252 1.390 . S
C1257 C1256 1.387 . S
H1258 C1270 0.930 . S
H1259 C1272 0.930 . S
H1260 C1273 0.930 . S
H1261 C1277 0.959 . S
H1262 C1277 0.959 . S
H1263 C1277 0.961 . S
H1264 C1278 0.960 . S
H1265 C1278 0.961 1_655 S
H1266 C1278 0.959 . S
H1267 C1281 0.928 1_455 S
H1268 C1282 0.931 . S
H1269 C1284 0.930 . S
C1270 H1258 0.930 . S
C1270 C1271 1.399 . S
C1270 C1275 1.399 . S
C1271 C1270 1.399 . S
C1271 C1272 1.376 . S
C1272 H1259 0.930 . S
C1272 C1271 1.376 . S
C1272 C1273 1.388 . S
C1273 H1260 0.930 . S
C1273 C1272 1.388 . S
C1273 C1274 1.390 . S
C1274 C1273 1.390 . S
C1274 C1275 1.394 . S
C1274 C1280 1.465 . S
C1275 C1270 1.399 . S
C1275 C1274 1.394 . S
C1275 C1276 1.516 . S
C1276 C1275 1.516 . S
C1276 C1277 1.502 1_455 S
C1276 C1278 1.561 . S
C1276 C1279 1.526 1_455 S
C1277 H1261 0.959 . S
C1277 H1262 0.959 . S
C1277 H1263 0.961 . S
C1277 C1276 1.502 1_655 S
C1278 H1264 0.960 . S
C1278 H1265 0.961 1_455 S
C1278 H1266 0.959 . S
C1278 C1276 1.561 . S
C1279 C1276 1.526 1_655 S
C1279 C1280 1.396 1_655 S
C1279 C1284 1.390 . S
C1280 C1274 1.465 . S
C1280 C1279 1.396 1_455 S
C1280 C1281 1.398 1_455 S
C1281 H1267 0.928 1_655 S
C1281 C1280 1.398 1_655 S
C1281 C1282 1.387 . S
C1282 H1268 0.931 . S
C1282 C1281 1.387 . S
C1282 C1283 1.389 . S
C1283 C1282 1.389 . S
C1283 C1284 1.387 . S
C1284 H1269 0.930 . S
C1284 C1279 1.390 . S
C1284 C1283 1.387 . S
H1285 C1297 0.930 . S
H1286 C1299 0.930 . S
H1287 C1300 0.930 . S
H1288 C1304 0.959 . S
H1289 C1304 0.959 . S
H1290 C1304 0.961 . S
H1291 C1305 0.960 . S
H1292 C1305 0.961 . S
H1293 C1305 0.959 . S
H1294 C1308 0.929 . S
H1295 C1309 0.931 . S
H1296 C1311 0.930 . S
C1297 H1285 0.930 . S
C1297 C1298 1.399 . S
C1297 C1302 1.399 . S
C1298 C1297 1.399 . S
C1298 C1299 1.376 . S
C1299 H1286 0.930 . S
C1299 C1298 1.376 . S
C1299 C1300 1.388 . S
C1300 H1287 0.930 . S
C1300 C1299 1.388 . S
C1300 C1301 1.390 . S
C1301 C1300 1.390 . S
C1301 C1302 1.394 . S
C1301 C1307 1.465 . S
C1302 C1297 1.399 . S
C1302 C1301 1.394 . S
C1302 C1303 1.516 . S
C1303 C1302 1.516 . S
C1303 C1304 1.502 . S
C1303 C1305 1.561 . S
C1303 C1306 1.526 . S
C1304 H1288 0.959 . S
C1304 H1289 0.959 . S
C1304 H1290 0.961 . S
C1304 C1303 1.502 . S
C1305 H1291 0.960 . S
C1305 H1292 0.961 . S
C1305 H1293 0.959 . S
C1305 C1303 1.561 . S
C1306 C1303 1.526 . S
C1306 C1307 1.396 . S
C1306 C1311 1.390 . S
C1307 C1301 1.465 . S
C1307 C1306 1.396 . S
C1307 C1308 1.399 . S
C1308 H1294 0.929 . S
C1308 C1307 1.399 . S
C1308 C1309 1.385 . S
C1309 H1295 0.931 . S
C1309 C1308 1.385 . S
C1309 C1310 1.389 . S
C1310 C1309 1.389 . S
C1310 C1311 1.387 . S
C1311 H1296 0.930 . S
C1311 C1306 1.390 . S
C1311 C1310 1.387 . S
H1312 C1324 0.930 . S
H1313 C1326 0.930 . S
H1314 C1327 0.930 . S
H1315 C1331 0.959 . S
H1316 C1331 0.959 . S
H1317 C1331 0.961 . S
H1318 C1332 0.960 . S
H1319 C1332 0.961 . S
H1320 C1332 0.959 . S
H1321 C1335 0.929 . S
H1322 C1336 0.931 . S
H1323 C1338 0.930 . S
C1324 H1312 0.930 . S
C1324 C1325 1.399 . S
C1324 C1329 1.399 . S
C1325 C1324 1.399 . S
C1325 C1326 1.376 . S
C1326 H1313 0.930 . S
C1326 C1325 1.376 . S
C1326 C1327 1.388 . S
C1327 H1314 0.930 . S
C1327 C1326 1.388 . S
C1327 C1328 1.390 . S
C1328 C1327 1.390 . S
C1328 C1329 1.394 . S
C1328 C1334 1.465 . S
C1329 C1324 1.399 . S
C1329 C1328 1.394 . S
C1329 C1330 1.516 . S
C1330 C1329 1.516 . S
C1330 C1331 1.502 . S
C1330 C1332 1.561 . S
C1330 C1333 1.526 . S
C1331 H1315 0.959 . S
C1331 H1316 0.959 . S
C1331 H1317 0.961 . S
C1331 C1330 1.502 . S
C1332 H1318 0.960 . S
C1332 H1319 0.961 . S
C1332 H1320 0.959 . S
C1332 C1330 1.561 . S
C1333 C1330 1.526 . S
C1333 C1334 1.396 . S
C1333 C1338 1.390 . S
C1334 C1328 1.465 . S
C1334 C1333 1.396 . S
C1334 C1335 1.399 . S
C1335 H1321 0.929 . S
C1335 C1334 1.399 . S
C1335 C1336 1.385 . S
C1336 H1322 0.931 . S
C1336 C1335 1.385 . S
C1336 C1337 1.389 . S
C1337 C1336 1.389 . S
C1337 C1338 1.387 . S
C1338 H1323 0.930 . S
C1338 C1333 1.390 . S
C1338 C1337 1.387 . S
H1339 C1351 0.930 . S
H1340 C1353 0.930 . S
H1341 C1354 0.930 . S
H1342 C1358 0.959 . S
H1343 C1358 0.959 . S
H1344 C1358 0.961 . S
H1345 C1359 0.960 . S
H1346 C1359 0.961 . S
H1347 C1359 0.959 . S
H1348 C1362 0.929 . S
H1349 C1363 0.931 . S
H1350 C1365 0.930 . S
C1351 H1339 0.930 . S
C1351 C1352 1.399 . S
C1351 C1356 1.399 . S
C1352 C1351 1.399 . S
C1352 C1353 1.376 . S
C1353 H1340 0.930 . S
C1353 C1352 1.376 . S
C1353 C1354 1.388 . S
C1354 H1341 0.930 . S
C1354 C1353 1.388 . S
C1354 C1355 1.390 . S
C1355 C1354 1.390 . S
C1355 C1356 1.394 . S
C1355 C1361 1.465 . S
C1356 C1351 1.399 . S
C1356 C1355 1.394 . S
C1356 C1357 1.516 . S
C1357 C1356 1.516 . S
C1357 C1358 1.502 . S
C1357 C1359 1.561 . S
C1357 C1360 1.526 . S
C1358 H1342 0.959 . S
C1358 H1343 0.959 . S
C1358 H1344 0.961 . S
C1358 C1357 1.502 . S
C1359 H1345 0.960 . S
C1359 H1346 0.961 . S
C1359 H1347 0.959 . S
C1359 C1357 1.561 . S
C1360 C1357 1.526 . S
C1360 C1361 1.396 . S
C1360 C1365 1.390 . S
C1361 C1355 1.465 . S
C1361 C1360 1.396 . S
C1361 C1362 1.399 . S
C1362 H1348 0.929 . S
C1362 C1361 1.399 . S
C1362 C1363 1.385 . S
C1363 H1349 0.931 . S
C1363 C1362 1.385 . S
C1363 C1364 1.389 . S
C1364 C1363 1.389 . S
C1364 C1365 1.387 . S
C1365 H1350 0.930 . S
C1365 C1360 1.390 . S
C1365 C1364 1.387 . S
H1366 C1378 0.930 . S
H1367 C1380 0.930 . S
H1368 C1381 0.930 . S
H1369 C1385 0.959 . S
H1370 C1385 0.959 . S
H1371 C1385 0.961 . S
H1372 C1386 0.960 . S
H1373 C1386 0.961 . S
H1374 C1386 0.959 . S
H1375 C1389 0.929 . S
H1376 C1390 0.931 . S
H1377 C1392 0.930 . S
C1378 H1366 0.930 . S
C1378 C1379 1.399 . S
C1378 C1383 1.399 . S
C1379 C1378 1.399 . S
C1379 C1380 1.376 . S
C1380 H1367 0.930 . S
C1380 C1379 1.376 . S
C1380 C1381 1.388 . S
C1381 H1368 0.930 . S
C1381 C1380 1.388 . S
C1381 C1382 1.390 . S
C1382 C1381 1.390 . S
C1382 C1383 1.394 . S
C1382 C1388 1.465 . S
C1383 C1378 1.399 . S
C1383 C1382 1.394 . S
C1383 C1384 1.516 . S
C1384 C1383 1.516 . S
C1384 C1385 1.502 . S
C1384 C1386 1.561 . S
C1384 C1387 1.526 . S
C1385 H1369 0.959 . S
C1385 H1370 0.959 . S
C1385 H1371 0.961 . S
C1385 C1384 1.502 . S
C1386 H1372 0.960 . S
C1386 H1373 0.961 . S
C1386 H1374 0.959 . S
C1386 C1384 1.561 . S
C1387 C1384 1.526 . S
C1387 C1388 1.396 . S
C1387 C1392 1.390 . S
C1388 C1382 1.465 . S
C1388 C1387 1.396 . S
C1388 C1389 1.399 . S
C1389 H1375 0.929 . S
C1389 C1388 1.399 . S
C1389 C1390 1.385 . S
C1390 H1376 0.931 . S
C1390 C1389 1.385 . S
C1390 C1391 1.389 . S
C1391 C1390 1.389 . S
C1391 C1392 1.387 . S
C1392 H1377 0.930 . S
C1392 C1387 1.390 . S
C1392 C1391 1.387 . S
H1393 C1405 0.930 . S
H1394 C1407 0.930 . S
H1395 C1408 0.930 1_554 S
H1396 C1412 0.959 . S
H1397 C1412 0.959 . S
H1398 C1412 0.961 . S
H1399 C1413 0.960 . S
H1400 C1413 0.961 . S
H1401 C1413 0.959 . S
H1402 C1416 0.929 . S
H1403 C1417 0.931 . S
H1404 C1419 0.930 . S
C1405 H1393 0.930 . S
C1405 C1406 1.399 . S
C1405 C1410 1.399 . S
C1406 C1405 1.399 . S
C1406 C1407 1.376 . S
C1407 H1394 0.930 . S
C1407 C1406 1.376 . S
C1407 C1408 1.388 . S
C1408 H1395 0.930 1_556 S
C1408 C1407 1.388 . S
C1408 C1409 1.390 . S
C1409 C1408 1.390 . S
C1409 C1410 1.394 . S
C1409 C1415 1.465 1_556 S
C1410 C1405 1.399 . S
C1410 C1409 1.394 . S
C1410 C1411 1.516 . S
C1411 C1410 1.516 . S
C1411 C1412 1.502 . S
C1411 C1413 1.561 . S
C1411 C1414 1.526 1_556 S
C1412 H1396 0.959 . S
C1412 H1397 0.959 . S
C1412 H1398 0.961 . S
C1412 C1411 1.502 . S
C1413 H1399 0.960 . S
C1413 H1400 0.961 . S
C1413 H1401 0.959 . S
C1413 C1411 1.561 . S
C1414 C1411 1.526 1_554 S
C1414 C1415 1.396 . S
C1414 C1419 1.390 . S
C1415 C1409 1.465 1_554 S
C1415 C1414 1.396 . S
C1415 C1416 1.399 . S
C1416 H1402 0.929 . S
C1416 C1415 1.399 . S
C1416 C1417 1.385 . S
C1417 H1403 0.931 . S
C1417 C1416 1.385 . S
C1417 C1418 1.389 . S
C1418 C1417 1.389 . S
C1418 C1419 1.387 . S
C1419 H1404 0.930 . S
C1419 C1414 1.390 . S
C1419 C1418 1.387 . S
H1420 C1432 0.930 . S
H1421 C1434 0.930 . S
H1422 C1435 0.930 . S
H1423 C1439 0.959 . S
H1424 C1439 0.959 . S
H1425 C1439 0.961 . S
H1426 C1440 0.960 . S
H1427 C1440 0.961 . S
H1428 C1440 0.959 . S
H1429 C1443 0.929 . S
H1430 C1444 0.931 . S
H1431 C1446 0.930 . S
C1432 H1420 0.930 . S
C1432 C1433 1.399 . S
C1432 C1437 1.399 . S
C1433 C1432 1.399 . S
C1433 C1434 1.376 . S
C1434 H1421 0.930 . S
C1434 C1433 1.376 . S
C1434 C1435 1.388 . S
C1435 H1422 0.930 . S
C1435 C1434 1.388 . S
C1435 C1436 1.390 . S
C1436 C1435 1.390 . S
C1436 C1437 1.394 . S
C1436 C1442 1.465 . S
C1437 C1432 1.399 . S
C1437 C1436 1.394 . S
C1437 C1438 1.516 . S
C1438 C1437 1.516 . S
C1438 C1439 1.502 . S
C1438 C1440 1.561 . S
C1438 C1441 1.526 . S
C1439 H1423 0.959 . S
C1439 H1424 0.959 . S
C1439 H1425 0.961 . S
C1439 C1438 1.502 . S
C1440 H1426 0.960 . S
C1440 H1427 0.961 . S
C1440 H1428 0.959 . S
C1440 C1438 1.561 . S
C1441 C1438 1.526 . S
C1441 C1442 1.396 . S
C1441 C1446 1.390 . S
C1442 C1436 1.465 . S
C1442 C1441 1.396 . S
C1442 C1443 1.399 . S
C1443 H1429 0.929 . S
C1443 C1442 1.399 . S
C1443 C1444 1.385 . S
C1444 H1430 0.931 . S
C1444 C1443 1.385 . S
C1444 C1445 1.389 . S
C1445 C1444 1.389 . S
C1445 C1446 1.387 . S
C1446 H1431 0.930 . S
C1446 C1441 1.390 . S
C1446 C1445 1.387 . S
H1447 C1459 0.930 . S
H1448 C1461 0.930 . S
H1449 C1462 0.930 . S
H1450 C1466 0.959 . S
H1451 C1466 0.959 . S
H1452 C1466 0.961 . S
H1453 C1467 0.960 . S
H1454 C1467 0.961 . S
H1455 C1467 0.959 . S
H1456 C1470 0.929 . S
H1457 C1471 0.931 . S
H1458 C1473 0.930 . S
C1459 H1447 0.930 . S
C1459 C1460 1.399 . S
C1459 C1464 1.399 . S
C1460 C1459 1.399 . S
C1460 C1461 1.376 . S
C1461 H1448 0.930 . S
C1461 C1460 1.376 . S
C1461 C1462 1.388 . S
C1462 H1449 0.930 . S
C1462 C1461 1.388 . S
C1462 C1463 1.390 . S
C1463 C1462 1.390 . S
C1463 C1464 1.394 . S
C1463 C1469 1.465 . S
C1464 C1459 1.399 . S
C1464 C1463 1.394 . S
C1464 C1465 1.516 . S
C1465 C1464 1.516 . S
C1465 C1466 1.502 . S
C1465 C1467 1.561 . S
C1465 C1468 1.526 . S
C1466 H1450 0.959 . S
C1466 H1451 0.959 . S
C1466 H1452 0.961 . S
C1466 C1465 1.502 . S
C1467 H1453 0.960 . S
C1467 H1454 0.961 . S
C1467 H1455 0.959 . S
C1467 C1465 1.561 . S
C1468 C1465 1.526 . S
C1468 C1469 1.396 . S
C1468 C1473 1.390 . S
C1469 C1463 1.465 . S
C1469 C1468 1.396 . S
C1469 C1470 1.399 . S
C1470 H1456 0.929 . S
C1470 C1469 1.399 . S
C1470 C1471 1.385 . S
C1471 H1457 0.931 . S
C1471 C1470 1.385 . S
C1471 C1472 1.389 . S
C1472 C1471 1.389 . S
C1472 C1473 1.387 . S
C1473 H1458 0.930 . S
C1473 C1468 1.390 . S
C1473 C1472 1.387 . S
H1474 C1486 0.930 . S
H1475 C1488 0.930 . S
H1476 C1489 0.930 . S
H1477 C1493 0.959 . S
H1478 C1493 0.959 . S
H1479 C1493 0.961 . S
H1480 C1494 0.960 . S
H1481 C1494 0.961 . S
H1482 C1494 0.959 . S
H1483 C1497 0.929 . S
H1484 C1498 0.931 . S
H1485 C1500 0.930 . S
C1486 H1474 0.930 . S
C1486 C1487 1.399 . S
C1486 C1491 1.399 . S
C1487 C1486 1.399 . S
C1487 C1488 1.376 . S
C1488 H1475 0.930 . S
C1488 C1487 1.376 . S
C1488 C1489 1.388 . S
C1489 H1476 0.930 . S
C1489 C1488 1.388 . S
C1489 C1490 1.390 . S
C1490 C1489 1.390 . S
C1490 C1491 1.394 . S
C1490 C1496 1.465 . S
C1491 C1486 1.399 . S
C1491 C1490 1.394 . S
C1491 C1492 1.516 . S
C1492 C1491 1.516 . S
C1492 C1493 1.502 . S
C1492 C1494 1.561 . S
C1492 C1495 1.526 . S
C1493 H1477 0.959 . S
C1493 H1478 0.959 . S
C1493 H1479 0.961 . S
C1493 C1492 1.502 . S
C1494 H1480 0.960 . S
C1494 H1481 0.961 . S
C1494 H1482 0.959 . S
C1494 C1492 1.561 . S
C1495 C1492 1.526 . S
C1495 C1496 1.396 . S
C1495 C1500 1.390 . S
C1496 C1490 1.465 . S
C1496 C1495 1.396 . S
C1496 C1497 1.399 . S
C1497 H1483 0.929 . S
C1497 C1496 1.399 . S
C1497 C1498 1.385 . S
C1498 H1484 0.931 . S
C1498 C1497 1.385 . S
C1498 C1499 1.389 . S
C1499 C1498 1.389 . S
C1499 C1500 1.387 . S
C1500 H1485 0.930 . S
C1500 C1495 1.390 . S
C1500 C1499 1.387 . S
H1501 C1513 0.930 . S
H1502 C1515 0.930 . S
H1503 C1516 0.930 . S
H1504 C1520 0.959 . S
H1505 C1520 0.959 . S
H1506 C1520 0.961 . S
H1507 C1521 0.960 . S
H1508 C1521 0.961 . S
H1509 C1521 0.959 . S
H1510 C1524 0.929 . S
H1511 C1525 0.931 . S
H1512 C1527 0.930 . S
C1513 H1501 0.930 . S
C1513 C1514 1.399 . S
C1513 C1518 1.399 . S
C1514 C1513 1.399 . S
C1514 C1515 1.376 . S
C1515 H1502 0.930 . S
C1515 C1514 1.376 . S
C1515 C1516 1.388 . S
C1516 H1503 0.930 . S
C1516 C1515 1.388 . S
C1516 C1517 1.390 . S
C1517 C1516 1.390 . S
C1517 C1518 1.394 . S
C1517 C1523 1.465 . S
C1518 C1513 1.399 . S
C1518 C1517 1.394 . S
C1518 C1519 1.516 1_554 S
C1519 C1518 1.516 1_556 S
C1519 C1520 1.502 . S
C1519 C1521 1.561 . S
C1519 C1522 1.526 . S
C1520 H1504 0.959 . S
C1520 H1505 0.959 . S
C1520 H1506 0.961 . S
C1520 C1519 1.502 . S
C1521 H1507 0.960 . S
C1521 H1508 0.961 . S
C1521 H1509 0.959 . S
C1521 C1519 1.561 . S
C1522 C1519 1.526 . S
C1522 C1523 1.396 1_556 S
C1522 C1527 1.390 . S
C1523 C1517 1.465 . S
C1523 C1522 1.396 1_554 S
C1523 C1524 1.399 . S
C1524 H1510 0.929 . S
C1524 C1523 1.399 . S
C1524 C1525 1.385 1_554 S
C1525 H1511 0.931 . S
C1525 C1524 1.385 1_556 S
C1525 C1526 1.389 . S
C1526 C1525 1.389 . S
C1526 C1527 1.387 . S
C1527 H1512 0.930 . S
C1527 C1522 1.390 . S
C1527 C1526 1.387 . S
H1528 C1540 0.930 . S
H1529 C1542 0.930 . S
H1530 C1543 0.930 . S
H1531 C1547 0.959 . S
H1532 C1547 0.959 . S
H1533 C1547 0.961 . S
H1534 C1548 0.960 . S
H1535 C1548 0.961 . S
H1536 C1548 0.959 . S
H1537 C1551 0.929 . S
H1538 C1552 0.931 . S
H1539 C1554 0.930 . S
C1540 H1528 0.930 . S
C1540 C1541 1.399 . S
C1540 C1545 1.399 . S
C1541 C1540 1.399 . S
C1541 C1542 1.376 . S
C1542 H1529 0.930 . S
C1542 C1541 1.376 . S
C1542 C1543 1.388 . S
C1543 H1530 0.930 . S
C1543 C1542 1.388 . S
C1543 C1544 1.390 . S
C1544 C1543 1.390 . S
C1544 C1545 1.394 . S
C1544 C1550 1.465 . S
C1545 C1540 1.399 . S
C1545 C1544 1.394 . S
C1545 C1546 1.516 . S
C1546 C1545 1.516 . S
C1546 C1547 1.502 . S
C1546 C1548 1.561 . S
C1546 C1549 1.526 . S
C1547 H1531 0.959 . S
C1547 H1532 0.959 . S
C1547 H1533 0.961 . S
C1547 C1546 1.502 . S
C1548 H1534 0.960 . S
C1548 H1535 0.961 . S
C1548 H1536 0.959 . S
C1548 C1546 1.561 . S
C1549 C1546 1.526 . S
C1549 C1550 1.396 . S
C1549 C1554 1.390 . S
C1550 C1544 1.465 . S
C1550 C1549 1.396 . S
C1550 C1551 1.399 . S
C1551 H1537 0.929 . S
C1551 C1550 1.399 . S
C1551 C1552 1.385 . S
C1552 H1538 0.931 . S
C1552 C1551 1.385 . S
C1552 C1553 1.389 . S
C1553 C1552 1.389 . S
C1553 C1554 1.387 . S
C1554 H1539 0.930 . S
C1554 C1549 1.390 . S
C1554 C1553 1.387 . S
H1555 C1567 0.930 . S
H1556 C1569 0.930 . S
H1557 C1570 0.930 . S
H1558 C1574 0.959 . S
H1559 C1574 0.959 1_545 S
H1560 C1574 0.961 . S
H1561 C1575 0.960 . S
H1562 C1575 0.961 . S
H1563 C1575 0.959 . S
H1564 C1578 0.929 . S
H1565 C1579 0.931 . S
H1566 C1581 0.930 . S
C1567 H1555 0.930 . S
C1567 C1568 1.399 . S
C1567 C1572 1.399 . S
C1568 C1567 1.399 . S
C1568 C1569 1.376 . S
C1569 H1556 0.930 . S
C1569 C1568 1.376 . S
C1569 C1570 1.388 . S
C1570 H1557 0.930 . S
C1570 C1569 1.388 . S
C1570 C1571 1.390 . S
C1571 C1570 1.390 . S
C1571 C1572 1.394 . S
C1571 C1577 1.447 1_565 S
C1572 C1567 1.399 . S
C1572 C1571 1.394 . S
C1572 C1573 1.516 . S
C1573 C1572 1.516 . S
C1573 C1574 1.502 . S
C1573 C1575 1.561 1_565 S
C1573 C1576 1.526 1_565 S
C1574 H1558 0.959 . S
C1574 H1559 0.959 1_565 S
C1574 H1560 0.961 . S
C1574 C1573 1.502 . S
C1575 H1561 0.960 . S
C1575 H1562 0.961 . S
C1575 H1563 0.959 . S
C1575 C1573 1.561 1_545 S
C1576 C1573 1.526 1_545 S
C1576 C1577 1.406 . S
C1576 C1581 1.390 . S
C1577 C1571 1.447 1_545 S
C1577 C1576 1.406 . S
C1577 C1578 1.408 . S
C1578 H1564 0.929 . S
C1578 C1577 1.408 . S
C1578 C1579 1.385 . S
C1579 H1565 0.931 . S
C1579 C1578 1.385 . S
C1579 C1580 1.389 . S
C1580 C1579 1.389 . S
C1580 C1581 1.387 . S
C1581 H1566 0.930 . S
C1581 C1576 1.390 . S
C1581 C1580 1.387 . S
H1582 C1594 0.930 . S
H1583 C1596 0.930 . S
H1584 C1597 0.930 . S
H1585 C1601 0.959 . S
H1586 C1601 0.959 . S
H1587 C1601 0.961 . S
H1588 C1602 0.960 . S
H1589 C1602 0.961 . S
H1590 C1602 0.959 . S
H1591 C1605 0.929 . S
H1592 C1606 0.931 . S
H1593 C1608 0.930 . S
C1594 H1582 0.930 . S
C1594 C1595 1.399 . S
C1594 C1599 1.399 . S
C1595 C1594 1.399 . S
C1595 C1596 1.376 . S
C1596 H1583 0.930 . S
C1596 C1595 1.376 . S
C1596 C1597 1.388 . S
C1597 H1584 0.930 . S
C1597 C1596 1.388 . S
C1597 C1598 1.390 . S
C1598 C1597 1.390 . S
C1598 C1599 1.394 . S
C1598 C1604 1.465 . S
C1599 C1594 1.399 . S
C1599 C1598 1.394 . S
C1599 C1600 1.516 . S
C1600 C1599 1.516 . S
C1600 C1601 1.502 . S
C1600 C1602 1.561 . S
C1600 C1603 1.526 . S
C1601 H1585 0.959 . S
C1601 H1586 0.959 . S
C1601 H1587 0.961 . S
C1601 C1600 1.502 . S
C1602 H1588 0.960 . S
C1602 H1589 0.961 . S
C1602 H1590 0.959 . S
C1602 C1600 1.561 . S
C1603 C1600 1.526 . S
C1603 C1604 1.396 . S
C1603 C1608 1.390 . S
C1604 C1598 1.465 . S
C1604 C1603 1.396 . S
C1604 C1605 1.399 . S
C1605 H1591 0.929 . S
C1605 C1604 1.399 . S
C1605 C1606 1.385 . S
C1606 H1592 0.931 . S
C1606 C1605 1.385 . S
C1606 C1607 1.389 . S
C1607 C1606 1.389 . S
C1607 C1608 1.387 . S
C1608 H1593 0.930 . S
C1608 C1603 1.390 . S
C1608 C1607 1.387 . S
H1609 C1621 0.930 . S
H1610 C1623 0.930 . S
H1611 C1624 0.930 . S
H1612 C1628 0.959 . S
H1613 C1628 0.959 . S
H1614 C1628 0.961 1_545 S
H1615 C1629 0.960 . S
H1616 C1629 0.961 . S
H1617 C1629 0.959 . S
H1618 C1632 0.929 . S
H1619 C1633 0.931 . S
H1620 C1635 0.930 . S
C1621 H1609 0.930 . S
C1621 C1622 1.399 . S
C1621 C1626 1.399 . S
C1622 C1621 1.399 . S
C1622 C1623 1.376 . S
C1623 H1610 0.930 . S
C1623 C1622 1.376 . S
C1623 C1624 1.388 . S
C1624 H1611 0.930 . S
C1624 C1623 1.388 . S
C1624 C1625 1.390 . S
C1625 C1624 1.390 . S
C1625 C1626 1.394 . S
C1625 C1631 1.465 . S
C1626 C1621 1.399 . S
C1626 C1625 1.394 . S
C1626 C1627 1.516 . S
C1627 C1626 1.516 . S
C1627 C1628 1.502 1_545 S
C1627 C1629 1.561 . S
C1627 C1630 1.526 1_545 S
C1628 H1612 0.959 . S
C1628 H1613 0.959 . S
C1628 H1614 0.961 1_565 S
C1628 C1627 1.502 1_565 S
C1629 H1615 0.960 . S
C1629 H1616 0.961 . S
C1629 H1617 0.959 . S
C1629 C1627 1.561 . S
C1630 C1627 1.526 1_565 S
C1630 C1631 1.396 1_565 S
C1630 C1635 1.390 . S
C1631 C1625 1.465 . S
C1631 C1630 1.396 1_545 S
C1631 C1632 1.399 1_545 S
C1632 H1618 0.929 . S
C1632 C1631 1.399 1_565 S
C1632 C1633 1.385 . S
C1633 H1619 0.931 . S
C1633 C1632 1.385 . S
C1633 C1634 1.389 . S
C1634 C1633 1.389 . S
C1634 C1635 1.387 . S
C1635 H1620 0.930 . S
C1635 C1630 1.390 . S
C1635 C1634 1.387 . S
H1636 C1648 0.930 . S
H1637 C1650 0.930 . S
H1638 C1651 0.930 . S
H1639 C1655 0.959 . S
H1640 C1655 0.959 . S
H1641 C1655 0.961 . S
H1642 C1656 0.960 . S
H1643 C1656 0.961 . S
H1644 C1656 0.959 . S
H1645 C1659 0.929 . S
H1646 C1660 0.931 . S
H1647 C1662 0.930 . S
C1648 H1636 0.930 . S
C1648 C1649 1.399 . S
C1648 C1653 1.399 . S
C1649 C1648 1.399 . S
C1649 C1650 1.376 . S
C1650 H1637 0.930 . S
C1650 C1649 1.376 . S
C1650 C1651 1.388 . S
C1651 H1638 0.930 . S
C1651 C1650 1.388 . S
C1651 C1652 1.390 . S
C1652 C1651 1.390 . S
C1652 C1653 1.394 . S
C1652 C1658 1.465 . S
C1653 C1648 1.399 . S
C1653 C1652 1.394 . S
C1653 C1654 1.516 . S
C1654 C1653 1.516 . S
C1654 C1655 1.502 . S
C1654 C1656 1.561 . S
C1654 C1657 1.526 . S
C1655 H1639 0.959 . S
C1655 H1640 0.959 . S
C1655 H1641 0.961 . S
C1655 C1654 1.502 . S
C1656 H1642 0.960 . S
C1656 H1643 0.961 . S
C1656 H1644 0.959 . S
C1656 C1654 1.561 . S
C1657 C1654 1.526 . S
C1657 C1658 1.396 . S
C1657 C1662 1.390 . S
C1658 C1652 1.465 . S
C1658 C1657 1.396 . S
C1658 C1659 1.399 . S
C1659 H1645 0.929 . S
C1659 C1658 1.399 . S
C1659 C1660 1.385 . S
C1660 H1646 0.931 . S
C1660 C1659 1.385 . S
C1660 C1661 1.389 . S
C1661 C1660 1.389 . S
C1661 C1662 1.387 . S
C1662 H1647 0.930 . S
C1662 C1657 1.390 . S
C1662 C1661 1.387 . S
H1663 C1675 0.930 . S
H1664 C1677 0.930 . S
H1665 C1678 0.930 . S
H1666 C1682 0.959 1_545 S
H1667 C1682 0.959 1_545 S
H1668 C1682 0.961 . S
H1669 C1683 0.960 . S
H1670 C1683 0.961 . S
H1671 C1683 0.959 . S
H1672 C1686 0.929 . S
H1673 C1687 0.931 . S
H1674 C1689 0.930 . S
C1675 H1663 0.930 . S
C1675 C1676 1.399 . S
C1675 C1680 1.399 . S
C1676 C1675 1.399 . S
C1676 C1677 1.376 . S
C1677 H1664 0.930 . S
C1677 C1676 1.376 . S
C1677 C1678 1.388 . S
C1678 H1665 0.930 . S
C1678 C1677 1.388 . S
C1678 C1679 1.390 . S
C1679 C1678 1.390 . S
C1679 C1680 1.394 . S
C1679 C1685 1.456 1_565 S
C1680 C1675 1.399 . S
C1680 C1679 1.394 . S
C1680 C1681 1.516 . S
C1681 C1680 1.516 . S
C1681 C1682 1.502 . S
C1681 C1683 1.561 . S
C1681 C1684 1.526 1_565 S
C1682 H1666 0.959 1_565 S
C1682 H1667 0.959 1_565 S
C1682 H1668 0.961 . S
C1682 C1681 1.502 . S
C1683 H1669 0.960 . S
C1683 H1670 0.961 . S
C1683 H1671 0.959 . S
C1683 C1681 1.561 . S
C1684 C1681 1.526 1_545 S
C1684 C1685 1.399 . S
C1684 C1689 1.390 . S
C1685 C1679 1.456 1_545 S
C1685 C1684 1.399 . S
C1685 C1686 1.405 . S
C1686 H1672 0.929 . S
C1686 C1685 1.405 . S
C1686 C1687 1.385 . S
C1687 H1673 0.931 . S
C1687 C1686 1.385 . S
C1687 C1688 1.389 . S
C1688 C1687 1.389 . S
C1688 C1689 1.387 . S
C1689 H1674 0.930 . S
C1689 C1684 1.390 . S
C1689 C1688 1.387 . S
H1690 C1702 0.930 . S
H1691 C1704 0.930 . S
H1692 C1705 0.930 . S
H1693 C1709 0.959 . S
H1694 C1709 0.959 . S
H1695 C1709 0.961 . S
H1696 C1710 0.960 . S
H1697 C1710 0.961 . S
H1698 C1710 0.959 . S
H1699 C1713 0.929 . S
H1700 C1714 0.931 . S
H1701 C1716 0.930 . S
C1702 H1690 0.930 . S
C1702 C1703 1.399 . S
C1702 C1707 1.399 . S
C1703 C1702 1.399 . S
C1703 C1704 1.376 . S
C1704 H1691 0.930 . S
C1704 C1703 1.376 . S
C1704 C1705 1.388 . S
C1705 H1692 0.930 . S
C1705 C1704 1.388 . S
C1705 C1706 1.390 . S
C1706 C1705 1.390 . S
C1706 C1707 1.394 . S
C1706 C1712 1.465 . S
C1707 C1702 1.399 . S
C1707 C1706 1.394 . S
C1707 C1708 1.516 . S
C1708 C1707 1.516 . S
C1708 C1709 1.502 . S
C1708 C1710 1.561 . S
C1708 C1711 1.526 . S
C1709 H1693 0.959 . S
C1709 H1694 0.959 . S
C1709 H1695 0.961 . S
C1709 C1708 1.502 . S
C1710 H1696 0.960 . S
C1710 H1697 0.961 . S
C1710 H1698 0.959 . S
C1710 C1708 1.561 . S
C1711 C1708 1.526 . S
C1711 C1712 1.396 . S
C1711 C1716 1.390 . S
C1712 C1706 1.465 . S
C1712 C1711 1.396 . S
C1712 C1713 1.399 . S
C1713 H1699 0.929 . S
C1713 C1712 1.399 . S
C1713 C1714 1.385 . S
C1714 H1700 0.931 . S
C1714 C1713 1.385 . S
C1714 C1715 1.389 . S
C1715 C1714 1.389 . S
C1715 C1716 1.387 . S
C1716 H1701 0.930 . S
C1716 C1711 1.390 . S
C1716 C1715 1.387 . S
H1717 C1729 0.930 . S
H1718 C1731 0.930 . S
H1719 C1732 0.930 . S
H1720 C1736 0.959 . S
H1721 C1736 0.959 . S
H1722 C1736 0.961 . S
H1723 C1737 0.960 . S
H1724 C1737 0.961 1_565 S
H1725 C1737 0.959 . S
H1726 C1740 0.929 . S
H1727 C1741 0.931 . S
H1728 C1743 0.930 . S
C1729 H1717 0.930 . S
C1729 C1730 1.399 . S
C1729 C1734 1.399 . S
C1730 C1729 1.399 . S
C1730 C1731 1.376 . S
C1731 H1718 0.930 . S
C1731 C1730 1.376 . S
C1731 C1732 1.388 . S
C1732 H1719 0.930 . S
C1732 C1731 1.388 . S
C1732 C1733 1.390 . S
C1733 C1732 1.390 . S
C1733 C1734 1.394 . S
C1733 C1739 1.465 . S
C1734 C1729 1.399 . S
C1734 C1733 1.394 . S
C1734 C1735 1.529 . S
C1735 C1734 1.529 . S
C1735 C1736 1.492 1_545 S
C1735 C1737 1.564 . S
C1735 C1738 1.521 1_545 S
C1736 H1720 0.959 . S
C1736 H1721 0.959 . S
C1736 H1722 0.961 . S
C1736 C1735 1.492 1_565 S
C1737 H1723 0.960 . S
C1737 H1724 0.961 1_545 S
C1737 H1725 0.959 . S
C1737 C1735 1.564 . S
C1738 C1735 1.521 1_565 S
C1738 C1739 1.396 1_565 S
C1738 C1743 1.390 . S
C1739 C1733 1.465 . S
C1739 C1738 1.396 1_545 S
C1739 C1740 1.399 . S
C1740 H1726 0.929 . S
C1740 C1739 1.399 . S
C1740 C1741 1.385 1_545 S
C1741 H1727 0.931 . S
C1741 C1740 1.385 1_565 S
C1741 C1742 1.389 . S
C1742 C1741 1.389 . S
C1742 C1743 1.387 . S
C1743 H1728 0.930 . S
C1743 C1738 1.390 . S
C1743 C1742 1.387 . S
H1744 C1756 0.930 . S
H1745 C1758 0.930 . S
H1746 C1759 0.930 . S
H1747 C1763 0.959 . S
H1748 C1763 0.959 . S
H1749 C1763 0.961 . S
H1750 C1764 0.960 . S
H1751 C1764 0.961 . S
H1752 C1764 0.959 . S
H1753 C1767 0.929 . S
H1754 C1768 0.931 . S
H1755 C1770 0.930 . S
C1756 H1744 0.930 . S
C1756 C1757 1.399 . S
C1756 C1761 1.399 . S
C1757 C1756 1.399 . S
C1757 C1758 1.376 . S
C1758 H1745 0.930 . S
C1758 C1757 1.376 . S
C1758 C1759 1.388 . S
C1759 H1746 0.930 . S
C1759 C1758 1.388 . S
C1759 C1760 1.390 . S
C1760 C1759 1.390 . S
C1760 C1761 1.394 . S
C1760 C1766 1.465 . S
C1761 C1756 1.399 . S
C1761 C1760 1.394 . S
C1761 C1762 1.516 . S
C1762 C1761 1.516 . S
C1762 C1763 1.502 . S
C1762 C1764 1.561 . S
C1762 C1765 1.526 . S
C1763 H1747 0.959 . S
C1763 H1748 0.959 . S
C1763 H1749 0.961 . S
C1763 C1762 1.502 . S
C1764 H1750 0.960 . S
C1764 H1751 0.961 . S
C1764 H1752 0.959 . S
C1764 C1762 1.561 . S
C1765 C1762 1.526 . S
C1765 C1766 1.396 . S
C1765 C1770 1.390 . S
C1766 C1760 1.465 . S
C1766 C1765 1.396 . S
C1766 C1767 1.399 . S
C1767 H1753 0.929 . S
C1767 C1766 1.399 . S
C1767 C1768 1.385 . S
C1768 H1754 0.931 . S
C1768 C1767 1.385 . S
C1768 C1769 1.389 . S
C1769 C1768 1.389 . S
C1769 C1770 1.387 . S
C1770 H1755 0.930 . S
C1770 C1765 1.390 . S
C1770 C1769 1.387 . S
H1771 C1783 0.930 . S
H1772 C1785 0.930 . S
H1773 C1786 0.930 . S
H1774 C1790 0.959 . S
H1775 C1790 0.959 . S
H1776 C1790 0.961 . S
H1777 C1791 0.960 . S
H1778 C1791 0.961 . S
H1779 C1791 0.959 . S
H1780 C1794 0.929 . S
H1781 C1795 0.931 . S
H1782 C1797 0.930 . S
C1783 H1771 0.930 . S
C1783 C1784 1.399 . S
C1783 C1788 1.399 . S
C1784 C1783 1.399 . S
C1784 C1785 1.376 . S
C1785 H1772 0.930 . S
C1785 C1784 1.376 . S
C1785 C1786 1.388 . S
C1786 H1773 0.930 . S
C1786 C1785 1.388 . S
C1786 C1787 1.390 . S
C1787 C1786 1.390 . S
C1787 C1788 1.394 . S
C1787 C1793 1.465 . S
C1788 C1783 1.399 . S
C1788 C1787 1.394 . S
C1788 C1789 1.516 . S
C1789 C1788 1.516 . S
C1789 C1790 1.502 . S
C1789 C1791 1.561 . S
C1789 C1792 1.526 . S
C1790 H1774 0.959 . S
C1790 H1775 0.959 . S
C1790 H1776 0.961 . S
C1790 C1789 1.502 . S
C1791 H1777 0.960 . S
C1791 H1778 0.961 . S
C1791 H1779 0.959 . S
C1791 C1789 1.561 . S
C1792 C1789 1.526 . S
C1792 C1793 1.396 . S
C1792 C1797 1.390 . S
C1793 C1787 1.465 . S
C1793 C1792 1.396 . S
C1793 C1794 1.399 . S
C1794 H1780 0.929 . S
C1794 C1793 1.399 . S
C1794 C1795 1.385 . S
C1795 H1781 0.931 . S
C1795 C1794 1.385 . S
C1795 C1796 1.389 . S
C1796 C1795 1.389 . S
C1796 C1797 1.387 . S
C1797 H1782 0.930 . S
C1797 C1792 1.390 . S
C1797 C1796 1.387 . S
H1798 C1810 0.930 . S
H1799 C1812 0.930 . S
H1800 C1813 0.930 . S
H1801 C1817 0.959 . S
H1802 C1817 0.959 . S
H1803 C1817 0.961 . S
H1804 C1818 0.960 . S
H1805 C1818 0.961 . S
H1806 C1818 0.959 . S
H1807 C1821 0.929 . S
H1808 C1822 0.931 . S
H1809 C1824 0.930 . S
C1810 H1798 0.930 . S
C1810 C1811 1.399 . S
C1810 C1815 1.399 . S
C1811 C1810 1.399 . S
C1811 C1812 1.376 . S
C1812 H1799 0.930 . S
C1812 C1811 1.376 . S
C1812 C1813 1.388 . S
C1813 H1800 0.930 . S
C1813 C1812 1.388 . S
C1813 C1814 1.390 . S
C1814 C1813 1.390 . S
C1814 C1815 1.394 . S
C1814 C1820 1.465 . S
C1815 C1810 1.399 . S
C1815 C1814 1.394 . S
C1815 C1816 1.516 1_655 S
C1816 C1815 1.516 1_455 S
C1816 C1817 1.502 . S
C1816 C1818 1.561 . S
C1816 C1819 1.526 . S
C1817 H1801 0.959 . S
C1817 H1802 0.959 . S
C1817 H1803 0.961 . S
C1817 C1816 1.502 . S
C1818 H1804 0.960 . S
C1818 H1805 0.961 . S
C1818 H1806 0.959 . S
C1818 C1816 1.561 . S
C1819 C1816 1.526 . S
C1819 C1820 1.396 1_455 S
C1819 C1824 1.390 . S
C1820 C1814 1.465 . S
C1820 C1819 1.396 1_655 S
C1820 C1821 1.399 . S
C1821 H1807 0.929 . S
C1821 C1820 1.399 . S
C1821 C1822 1.385 1_655 S
C1822 H1808 0.931 . S
C1822 C1821 1.385 1_455 S
C1822 C1823 1.389 . S
C1823 C1822 1.389 . S
C1823 C1824 1.387 . S
C1824 H1809 0.930 . S
C1824 C1819 1.390 . S
C1824 C1823 1.387 . S
H1825 C1837 0.930 . S
H1826 C1839 0.930 . S
H1827 C1840 0.930 . S
H1828 C1844 0.959 . S
H1829 C1844 0.959 . S
H1830 C1844 0.961 . S
H1831 C1845 0.960 . S
H1832 C1845 0.961 . S
H1833 C1845 0.959 . S
H1834 C1848 0.929 . S
H1835 C1849 0.931 . S
H1836 C1851 0.930 . S
C1837 H1825 0.930 . S
C1837 C1838 1.399 . S
C1837 C1842 1.399 . S
C1838 C1837 1.399 . S
C1838 C1839 1.376 . S
C1839 H1826 0.930 . S
C1839 C1838 1.376 . S
C1839 C1840 1.388 . S
C1840 H1827 0.930 . S
C1840 C1839 1.388 . S
C1840 C1841 1.390 . S
C1841 C1840 1.390 . S
C1841 C1842 1.394 . S
C1841 C1847 1.465 . S
C1842 C1837 1.399 . S
C1842 C1841 1.394 . S
C1842 C1843 1.516 . S
C1843 C1842 1.516 . S
C1843 C1844 1.502 . S
C1843 C1845 1.561 . S
C1843 C1846 1.526 . S
C1844 H1828 0.959 . S
C1844 H1829 0.959 . S
C1844 H1830 0.961 . S
C1844 C1843 1.502 . S
C1845 H1831 0.960 . S
C1845 H1832 0.961 . S
C1845 H1833 0.959 . S
C1845 C1843 1.561 . S
C1846 C1843 1.526 . S
C1846 C1847 1.396 . S
C1846 C1851 1.390 . S
C1847 C1841 1.465 . S
C1847 C1846 1.396 . S
C1847 C1848 1.399 . S
C1848 H1834 0.929 . S
C1848 C1847 1.399 . S
C1848 C1849 1.385 . S
C1849 H1835 0.931 . S
C1849 C1848 1.385 . S
C1849 C1850 1.389 . S
C1850 C1849 1.389 . S
C1850 C1851 1.387 . S
C1851 H1836 0.930 . S
C1851 C1846 1.390 . S
C1851 C1850 1.387 . S
H1852 C1864 0.930 . S
H1853 C1866 0.930 1_545 S
H1854 C1867 0.930 . S
H1855 C1871 0.959 1_655 S
H1856 C1871 0.959 1_655 S
H1857 C1871 0.961 . S
H1858 C1872 0.960 . S
H1859 C1872 0.961 . S
H1860 C1872 0.959 . S
H1861 C1875 0.929 . S
H1862 C1876 0.931 . S
H1863 C1878 0.930 . S
C1864 H1852 0.930 . S
C1864 C1865 1.399 . S
C1864 C1869 1.399 . S
C1865 C1864 1.399 . S
C1865 C1866 1.376 . S
C1866 H1853 0.930 1_565 S
C1866 C1865 1.376 . S
C1866 C1867 1.388 . S
C1867 H1854 0.930 . S
C1867 C1866 1.388 . S
C1867 C1868 1.390 . S
C1868 C1867 1.390 . S
C1868 C1869 1.394 . S
C1868 C1874 1.465 . S
C1869 C1864 1.399 . S
C1869 C1868 1.394 . S
C1869 C1870 1.516 . S
C1870 C1869 1.516 . S
C1870 C1871 1.502 . S
C1870 C1872 1.561 . S
C1870 C1873 1.526 1_455 S
C1871 H1855 0.959 1_455 S
C1871 H1856 0.959 1_455 S
C1871 H1857 0.961 . S
C1871 C1870 1.502 . S
C1872 H1858 0.960 . S
C1872 H1859 0.961 . S
C1872 H1860 0.959 . S
C1872 C1870 1.561 . S
C1873 C1870 1.526 1_655 S
C1873 C1874 1.396 1_655 S
C1873 C1878 1.390 . S
C1874 C1868 1.465 . S
C1874 C1873 1.396 1_455 S
C1874 C1875 1.399 1_455 S
C1875 H1861 0.929 . S
C1875 C1874 1.399 1_655 S
C1875 C1876 1.385 . S
C1876 H1862 0.931 . S
C1876 C1875 1.385 . S
C1876 C1877 1.389 . S
C1877 C1876 1.389 . S
C1877 C1878 1.387 . S
C1878 H1863 0.930 . S
C1878 C1873 1.390 . S
C1878 C1877 1.387 . S
H1879 C1891 0.930 . S
H1880 C1893 0.930 . S
H1881 C1894 0.930 . S
H1882 C1898 0.959 . S
H1883 C1898 0.959 . S
H1884 C1898 0.961 . S
H1885 C1899 0.960 . S
H1886 C1899 0.961 . S
H1887 C1899 0.959 . S
H1888 C1902 0.929 . S
H1889 C1903 0.931 . S
H1890 C1905 0.930 . S
C1891 H1879 0.930 . S
C1891 C1892 1.399 . S
C1891 C1896 1.399 . S
C1892 C1891 1.399 . S
C1892 C1893 1.376 . S
C1893 H1880 0.930 . S
C1893 C1892 1.376 . S
C1893 C1894 1.388 . S
C1894 H1881 0.930 . S
C1894 C1893 1.388 . S
C1894 C1895 1.390 . S
C1895 C1894 1.390 . S
C1895 C1896 1.394 . S
C1895 C1901 1.465 . S
C1896 C1891 1.399 . S
C1896 C1895 1.394 . S
C1896 C1897 1.516 . S
C1897 C1896 1.516 . S
C1897 C1898 1.502 . S
C1897 C1899 1.561 . S
C1897 C1900 1.526 . S
C1898 H1882 0.959 . S
C1898 H1883 0.959 . S
C1898 H1884 0.961 . S
C1898 C1897 1.502 . S
C1899 H1885 0.960 . S
C1899 H1886 0.961 . S
C1899 H1887 0.959 . S
C1899 C1897 1.561 . S
C1900 C1897 1.526 . S
C1900 C1901 1.396 . S
C1900 C1905 1.390 . S
C1901 C1895 1.465 . S
C1901 C1900 1.396 . S
C1901 C1902 1.399 . S
C1902 H1888 0.929 . S
C1902 C1901 1.399 . S
C1902 C1903 1.385 . S
C1903 H1889 0.931 . S
C1903 C1902 1.385 . S
C1903 C1904 1.389 . S
C1904 C1903 1.389 . S
C1904 C1905 1.387 . S
C1905 H1890 0.930 . S
C1905 C1900 1.390 . S
C1905 C1904 1.387 . S
H1906 C1918 0.930 . S
H1907 C1920 0.930 . S
H1908 C1921 0.930 . S
H1909 C1925 0.959 . S
H1910 C1925 0.959 . S
H1911 C1925 0.961 . S
H1912 C1926 0.960 . S
H1913 C1926 0.961 . S
H1914 C1926 0.959 . S
H1915 C1929 0.929 . S
H1916 C1930 0.931 . S
H1917 C1932 0.930 . S
C1918 H1906 0.930 . S
C1918 C1919 1.399 . S
C1918 C1923 1.399 . S
C1919 C1918 1.399 . S
C1919 C1920 1.376 . S
C1920 H1907 0.930 . S
C1920 C1919 1.376 . S
C1920 C1921 1.388 . S
C1921 H1908 0.930 . S
C1921 C1920 1.388 . S
C1921 C1922 1.390 . S
C1922 C1921 1.390 . S
C1922 C1923 1.394 . S
C1922 C1928 1.465 . S
C1923 C1918 1.399 . S
C1923 C1922 1.394 . S
C1923 C1924 1.516 1_655 S
C1924 C1923 1.516 1_455 S
C1924 C1925 1.502 . S
C1924 C1926 1.561 . S
C1924 C1927 1.526 . S
C1925 H1909 0.959 . S
C1925 H1910 0.959 . S
C1925 H1911 0.961 . S
C1925 C1924 1.502 . S
C1926 H1912 0.960 . S
C1926 H1913 0.961 . S
C1926 H1914 0.959 . S
C1926 C1924 1.561 . S
C1927 C1924 1.526 . S
C1927 C1928 1.396 1_455 S
C1927 C1932 1.390 . S
C1928 C1922 1.465 . S
C1928 C1927 1.396 1_655 S
C1928 C1929 1.399 . S
C1929 H1915 0.929 . S
C1929 C1928 1.399 . S
C1929 C1930 1.385 1_655 S
C1930 H1916 0.931 . S
C1930 C1929 1.385 1_455 S
C1930 C1931 1.389 . S
C1931 C1930 1.389 . S
C1931 C1932 1.387 . S
C1932 H1917 0.930 . S
C1932 C1927 1.390 . S
C1932 C1931 1.387 . S
H1933 C1945 0.930 . S
H1934 C1947 0.930 . S
H1935 C1948 0.930 . S
H1936 C1952 0.959 . S
H1937 C1952 0.959 . S
H1938 C1952 0.961 . S
H1939 C1953 0.960 . S
H1940 C1953 0.961 . S
H1941 C1953 0.959 . S
H1942 C1956 0.929 . S
H1943 C1957 0.931 . S
H1944 C1959 0.930 . S
C1945 H1933 0.930 . S
C1945 C1946 1.399 . S
C1945 C1950 1.399 . S
C1946 C1945 1.399 . S
C1946 C1947 1.376 . S
C1947 H1934 0.930 . S
C1947 C1946 1.376 . S
C1947 C1948 1.388 . S
C1948 H1935 0.930 . S
C1948 C1947 1.388 . S
C1948 C1949 1.390 . S
C1949 C1948 1.390 . S
C1949 C1950 1.394 . S
C1949 C1955 1.465 . S
C1950 C1945 1.399 . S
C1950 C1949 1.394 . S
C1950 C1951 1.516 . S
C1951 C1950 1.516 . S
C1951 C1952 1.502 . S
C1951 C1953 1.561 . S
C1951 C1954 1.526 . S
C1952 H1936 0.959 . S
C1952 H1937 0.959 . S
C1952 H1938 0.961 . S
C1952 C1951 1.502 . S
C1953 H1939 0.960 . S
C1953 H1940 0.961 . S
C1953 H1941 0.959 . S
C1953 C1951 1.561 . S
C1954 C1951 1.526 . S
C1954 C1955 1.396 . S
C1954 C1959 1.390 . S
C1955 C1949 1.465 . S
C1955 C1954 1.396 . S
C1955 C1956 1.399 . S
C1956 H1942 0.929 . S
C1956 C1955 1.399 . S
C1956 C1957 1.385 . S
C1957 H1943 0.931 . S
C1957 C1956 1.385 . S
C1957 C1958 1.389 . S
C1958 C1957 1.389 . S
C1958 C1959 1.387 . S
C1959 H1944 0.930 . S
C1959 C1954 1.390 . S
C1959 C1958 1.387 . S
H1960 C1972 0.930 . S
H1961 C1974 0.930 . S
H1962 C1975 0.930 . S
H1963 C1979 0.959 . S
H1964 C1979 0.959 . S
H1965 C1979 0.961 . S
H1966 C1980 0.960 . S
H1967 C1980 0.961 . S
H1968 C1980 0.959 . S
H1969 C1983 0.929 . S
H1970 C1984 0.931 . S
H1971 C1986 0.930 . S
C1972 H1960 0.930 . S
C1972 C1973 1.399 . S
C1972 C1977 1.399 . S
C1973 C1972 1.399 . S
C1973 C1974 1.376 . S
C1974 H1961 0.930 . S
C1974 C1973 1.376 . S
C1974 C1975 1.388 . S
C1975 H1962 0.930 . S
C1975 C1974 1.388 . S
C1975 C1976 1.390 . S
C1976 C1975 1.390 . S
C1976 C1977 1.394 . S
C1976 C1982 1.465 . S
C1977 C1972 1.399 . S
C1977 C1976 1.394 . S
C1977 C1978 1.516 . S
C1978 C1977 1.516 . S
C1978 C1979 1.502 . S
C1978 C1980 1.561 . S
C1978 C1981 1.526 . S
C1979 H1963 0.959 . S
C1979 H1964 0.959 . S
C1979 H1965 0.961 . S
C1979 C1978 1.502 . S
C1980 H1966 0.960 . S
C1980 H1967 0.961 . S
C1980 H1968 0.959 . S
C1980 C1978 1.561 . S
C1981 C1978 1.526 . S
C1981 C1982 1.396 . S
C1981 C1986 1.390 . S
C1982 C1976 1.465 . S
C1982 C1981 1.396 . S
C1982 C1983 1.399 . S
C1983 H1969 0.929 . S
C1983 C1982 1.399 . S
C1983 C1984 1.385 . S
C1984 H1970 0.931 . S
C1984 C1983 1.385 . S
C1984 C1985 1.389 . S
C1985 C1984 1.389 . S
C1985 C1986 1.387 . S
C1986 H1971 0.930 . S
C1986 C1981 1.390 . S
C1986 C1985 1.387 . S
H1987 C1999 0.930 . S
H1988 C2001 0.930 . S
H1989 C2002 0.930 . S
H1990 C2006 0.959 . S
H1991 C2006 0.959 . S
H1992 C2006 0.961 . S
H1993 C2007 0.960 . S
H1994 C2007 0.961 . S
H1995 C2007 0.959 . S
H1996 C2010 0.929 . S
H1997 C2011 0.931 . S
H1998 C2013 0.930 . S
C1999 H1987 0.930 . S
C1999 C2000 1.399 . S
C1999 C2004 1.399 . S
C2000 C1999 1.399 . S
C2000 C2001 1.376 . S
C2001 H1988 0.930 . S
C2001 C2000 1.376 . S
C2001 C2002 1.388 . S
C2002 H1989 0.930 . S
C2002 C2001 1.388 . S
C2002 C2003 1.390 . S
C2003 C2002 1.390 . S
C2003 C2004 1.394 . S
C2003 C2009 1.465 1_554 S
C2004 C1999 1.399 . S
C2004 C2003 1.394 . S
C2004 C2005 1.516 . S
C2005 C2004 1.516 . S
C2005 C2006 1.502 . S
C2005 C2007 1.561 . S
C2005 C2008 1.526 . S
C2006 H1990 0.959 . S
C2006 H1991 0.959 . S
C2006 H1992 0.961 . S
C2006 C2005 1.502 . S
C2007 H1993 0.960 . S
C2007 H1994 0.961 . S
C2007 H1995 0.959 . S
C2007 C2005 1.561 . S
C2008 C2005 1.526 . S
C2008 C2009 1.396 1_554 S
C2008 C2013 1.390 1_554 S
C2009 C2003 1.465 1_556 S
C2009 C2008 1.396 1_556 S
C2009 C2010 1.399 . S
C2010 H1996 0.929 . S
C2010 C2009 1.399 . S
C2010 C2011 1.385 . S
C2011 H1997 0.931 . S
C2011 C2010 1.385 . S
C2011 C2012 1.389 . S
C2012 C2011 1.389 . S
C2012 C2013 1.387 . S
C2013 H1998 0.930 . S
C2013 C2008 1.390 1_556 S
C2013 C2012 1.387 . S
H2014 C2026 0.930 . S
H2015 C2028 0.930 . S
H2016 C2029 0.930 . S
H2017 C2033 0.959 . S
H2018 C2033 0.959 . S
H2019 C2033 0.961 . S
H2020 C2034 0.960 . S
H2021 C2034 0.961 . S
H2022 C2034 0.959 . S
H2023 C2037 0.929 . S
H2024 C2038 0.931 . S
H2025 C2040 0.930 . S
C2026 H2014 0.930 . S
C2026 C2027 1.399 . S
C2026 C2031 1.399 . S
C2027 C2026 1.399 . S
C2027 C2028 1.376 . S
C2028 H2015 0.930 . S
C2028 C2027 1.376 . S
C2028 C2029 1.388 . S
C2029 H2016 0.930 . S
C2029 C2028 1.388 . S
C2029 C2030 1.390 . S
C2030 C2029 1.390 . S
C2030 C2031 1.394 . S
C2030 C2036 1.465 . S
C2031 C2026 1.399 . S
C2031 C2030 1.394 . S
C2031 C2032 1.516 . S
C2032 C2031 1.516 . S
C2032 C2033 1.502 . S
C2032 C2034 1.561 . S
C2032 C2035 1.526 . S
C2033 H2017 0.959 . S
C2033 H2018 0.959 . S
C2033 H2019 0.961 . S
C2033 C2032 1.502 . S
C2034 H2020 0.960 . S
C2034 H2021 0.961 . S
C2034 H2022 0.959 . S
C2034 C2032 1.561 . S
C2035 C2032 1.526 . S
C2035 C2036 1.396 . S
C2035 C2040 1.390 . S
C2036 C2030 1.465 . S
C2036 C2035 1.396 . S
C2036 C2037 1.399 . S
C2037 H2023 0.929 . S
C2037 C2036 1.399 . S
C2037 C2038 1.385 . S
C2038 H2024 0.931 . S
C2038 C2037 1.385 . S
C2038 C2039 1.389 . S
C2039 C2038 1.389 . S
C2039 C2040 1.387 . S
C2040 H2025 0.930 . S
C2040 C2035 1.390 . S
C2040 C2039 1.387 . S
H2041 C2053 0.930 . S
H2042 C2055 0.930 . S
H2043 C2056 0.930 . S
H2044 C2060 0.959 . S
H2045 C2060 0.959 . S
H2046 C2060 0.961 . S
H2047 C2061 0.960 . S
H2048 C2061 0.961 . S
H2049 C2061 0.959 . S
H2050 C2064 0.929 . S
H2051 C2065 0.931 . S
H2052 C2067 0.930 . S
C2053 H2041 0.930 . S
C2053 C2054 1.399 . S
C2053 C2058 1.399 . S
C2054 C2053 1.399 . S
C2054 C2055 1.376 . S
C2055 H2042 0.930 . S
C2055 C2054 1.376 . S
C2055 C2056 1.388 . S
C2056 H2043 0.930 . S
C2056 C2055 1.388 . S
C2056 C2057 1.390 . S
C2057 C2056 1.390 . S
C2057 C2058 1.394 . S
C2057 C2063 1.465 . S
C2058 C2053 1.399 . S
C2058 C2057 1.394 . S
C2058 C2059 1.516 . S
C2059 C2058 1.516 . S
C2059 C2060 1.502 . S
C2059 C2061 1.561 . S
C2059 C2062 1.526 . S
C2060 H2044 0.959 . S
C2060 H2045 0.959 . S
C2060 H2046 0.961 . S
C2060 C2059 1.502 . S
C2061 H2047 0.960 . S
C2061 H2048 0.961 . S
C2061 H2049 0.959 . S
C2061 C2059 1.561 . S
C2062 C2059 1.526 . S
C2062 C2063 1.396 . S
C2062 C2067 1.390 . S
C2063 C2057 1.465 . S
C2063 C2062 1.396 . S
C2063 C2064 1.399 . S
C2064 H2050 0.929 . S
C2064 C2063 1.399 . S
C2064 C2065 1.385 . S
C2065 H2051 0.931 . S
C2065 C2064 1.385 . S
C2065 C2066 1.389 . S
C2066 C2065 1.389 . S
C2066 C2067 1.387 . S
C2067 H2052 0.930 . S
C2067 C2062 1.390 . S
C2067 C2066 1.387 . S
H2068 C2080 0.930 . S
H2069 C2082 0.930 . S
H2070 C2083 0.930 . S
H2071 C2087 0.959 . S
H2072 C2087 0.959 . S
H2073 C2087 0.961 . S
H2074 C2088 0.960 . S
H2075 C2088 0.961 . S
H2076 C2088 0.959 . S
H2077 C2091 0.929 . S
H2078 C2092 0.931 . S
H2079 C2094 0.930 . S
C2080 H2068 0.930 . S
C2080 C2081 1.399 . S
C2080 C2085 1.399 . S
C2081 C2080 1.399 . S
C2081 C2082 1.376 . S
C2082 H2069 0.930 . S
C2082 C2081 1.376 . S
C2082 C2083 1.388 . S
C2083 H2070 0.930 . S
C2083 C2082 1.388 . S
C2083 C2084 1.390 . S
C2084 C2083 1.390 . S
C2084 C2085 1.394 . S
C2084 C2090 1.465 . S
C2085 C2080 1.399 . S
C2085 C2084 1.394 . S
C2085 C2086 1.516 . S
C2086 C2085 1.516 . S
C2086 C2087 1.502 . S
C2086 C2088 1.561 . S
C2086 C2089 1.526 . S
C2087 H2071 0.959 . S
C2087 H2072 0.959 . S
C2087 H2073 0.961 . S
C2087 C2086 1.502 . S
C2088 H2074 0.960 . S
C2088 H2075 0.961 . S
C2088 H2076 0.959 . S
C2088 C2086 1.561 . S
C2089 C2086 1.526 . S
C2089 C2090 1.396 . S
C2089 C2094 1.390 . S
C2090 C2084 1.465 . S
C2090 C2089 1.396 . S
C2090 C2091 1.399 . S
C2091 H2077 0.929 . S
C2091 C2090 1.399 . S
C2091 C2092 1.385 . S
C2092 H2078 0.931 . S
C2092 C2091 1.385 . S
C2092 C2093 1.389 . S
C2093 C2092 1.389 . S
C2093 C2094 1.387 . S
C2094 H2079 0.930 . S
C2094 C2089 1.390 . S
C2094 C2093 1.387 . S
H2095 C2107 0.930 . S
H2096 C2109 0.930 . S
H2097 C2110 0.930 . S
H2098 C2114 0.959 1_554 S
H2099 C2114 0.959 1_554 S
H2100 C2114 0.961 . S
H2101 C2115 0.960 . S
H2102 C2115 0.961 . S
H2103 C2115 0.959 . S
H2104 C2118 0.929 . S
H2105 C2119 0.931 . S
H2106 C2121 0.930 . S
C2107 H2095 0.930 . S
C2107 C2108 1.399 . S
C2107 C2112 1.399 . S
C2108 C2107 1.399 . S
C2108 C2109 1.376 . S
C2109 H2096 0.930 . S
C2109 C2108 1.376 . S
C2109 C2110 1.388 . S
C2110 H2097 0.930 . S
C2110 C2109 1.388 . S
C2110 C2111 1.390 . S
C2111 C2110 1.390 . S
C2111 C2112 1.394 . S
C2111 C2117 1.465 1_556 S
C2112 C2107 1.399 . S
C2112 C2111 1.394 . S
C2112 C2113 1.516 . S
C2113 C2112 1.516 . S
C2113 C2114 1.502 . S
C2113 C2115 1.561 . S
C2113 C2116 1.526 1_556 S
C2114 H2098 0.959 1_556 S
C2114 H2099 0.959 1_556 S
C2114 H2100 0.961 . S
C2114 C2113 1.502 . S
C2115 H2101 0.960 . S
C2115 H2102 0.961 . S
C2115 H2103 0.959 . S
C2115 C2113 1.561 . S
C2116 C2113 1.526 1_554 S
C2116 C2117 1.396 . S
C2116 C2121 1.390 . S
C2117 C2111 1.465 1_554 S
C2117 C2116 1.396 . S
C2117 C2118 1.399 . S
C2118 H2104 0.929 . S
C2118 C2117 1.399 . S
C2118 C2119 1.385 . S
C2119 H2105 0.931 . S
C2119 C2118 1.385 . S
C2119 C2120 1.389 . S
C2120 C2119 1.389 . S
C2120 C2121 1.387 . S
C2121 H2106 0.930 . S
C2121 C2116 1.390 . S
C2121 C2120 1.387 . S
H2122 C2134 0.930 . S
H2123 C2136 0.930 . S
H2124 C2137 0.930 . S
H2125 C2141 0.959 . S
H2126 C2141 0.959 . S
H2127 C2141 0.961 . S
H2128 C2142 0.960 . S
H2129 C2142 0.961 . S
H2130 C2142 0.959 . S
H2131 C2145 0.929 . S
H2132 C2146 0.931 . S
H2133 C2148 0.930 . S
C2134 H2122 0.930 . S
C2134 C2135 1.399 . S
C2134 C2139 1.399 . S
C2135 C2134 1.399 . S
C2135 C2136 1.376 . S
C2136 H2123 0.930 . S
C2136 C2135 1.376 . S
C2136 C2137 1.388 . S
C2137 H2124 0.930 . S
C2137 C2136 1.388 . S
C2137 C2138 1.390 . S
C2138 C2137 1.390 . S
C2138 C2139 1.394 . S
C2138 C2144 1.465 . S
C2139 C2134 1.399 . S
C2139 C2138 1.394 . S
C2139 C2140 1.516 . S
C2140 C2139 1.516 . S
C2140 C2141 1.502 . S
C2140 C2142 1.561 . S
C2140 C2143 1.526 . S
C2141 H2125 0.959 . S
C2141 H2126 0.959 . S
C2141 H2127 0.961 . S
C2141 C2140 1.502 . S
C2142 H2128 0.960 . S
C2142 H2129 0.961 . S
C2142 H2130 0.959 . S
C2142 C2140 1.561 . S
C2143 C2140 1.526 . S
C2143 C2144 1.396 . S
C2143 C2148 1.390 . S
C2144 C2138 1.465 . S
C2144 C2143 1.396 . S
C2144 C2145 1.399 . S
C2145 H2131 0.929 . S
C2145 C2144 1.399 . S
C2145 C2146 1.385 . S
C2146 H2132 0.931 . S
C2146 C2145 1.385 . S
C2146 C2147 1.389 . S
C2147 C2146 1.389 . S
C2147 C2148 1.387 . S
C2148 H2133 0.930 . S
C2148 C2143 1.390 . S
C2148 C2147 1.387 . S
H2149 C2161 0.930 . S
H2150 C2163 0.930 . S
H2151 C2164 0.930 . S
H2152 C2168 0.959 . S
H2153 C2168 0.959 . S
H2154 C2168 0.961 . S
H2155 C2169 0.960 . S
H2156 C2169 0.961 . S
H2157 C2169 0.959 . S
H2158 C2172 0.929 . S
H2159 C2173 0.931 . S
H2160 C2175 0.930 . S
C2161 H2149 0.930 . S
C2161 C2162 1.399 . S
C2161 C2166 1.399 . S
C2162 C2161 1.399 . S
C2162 C2163 1.376 . S
C2163 H2150 0.930 . S
C2163 C2162 1.376 . S
C2163 C2164 1.388 . S
C2164 H2151 0.930 . S
C2164 C2163 1.388 . S
C2164 C2165 1.390 . S
C2165 C2164 1.390 . S
C2165 C2166 1.394 . S
C2165 C2171 1.465 . S
C2166 C2161 1.399 . S
C2166 C2165 1.394 . S
C2166 C2167 1.516 . S
C2167 C2166 1.516 . S
C2167 C2168 1.502 . S
C2167 C2169 1.561 . S
C2167 C2170 1.526 . S
C2168 H2152 0.959 . S
C2168 H2153 0.959 . S
C2168 H2154 0.961 . S
C2168 C2167 1.502 . S
C2169 H2155 0.960 . S
C2169 H2156 0.961 . S
C2169 H2157 0.959 . S
C2169 C2167 1.561 . S
C2170 C2167 1.526 . S
C2170 C2171 1.396 . S
C2170 C2175 1.390 . S
C2171 C2165 1.465 . S
C2171 C2170 1.396 . S
C2171 C2172 1.399 . S
C2172 H2158 0.929 . S
C2172 C2171 1.399 . S
C2172 C2173 1.385 . S
C2173 H2159 0.931 . S
C2173 C2172 1.385 . S
C2173 C2174 1.389 . S
C2174 C2173 1.389 . S
C2174 C2175 1.387 . S
C2175 H2160 0.930 . S
C2175 C2170 1.390 . S
C2175 C2174 1.387 . S
H2176 C2188 0.930 . S
H2177 C2190 0.930 . S
H2178 C2191 0.930 . S
H2179 C2195 0.959 . S
H2180 C2195 0.959 . S
H2181 C2195 0.961 . S
H2182 C2196 0.960 . S
H2183 C2196 0.961 . S
H2184 C2196 0.959 . S
H2185 C2199 0.929 . S
H2186 C2200 0.931 . S
H2187 C2202 0.930 . S
C2188 H2176 0.930 . S
C2188 C2189 1.399 . S
C2188 C2193 1.399 . S
C2189 C2188 1.399 . S
C2189 C2190 1.376 . S
C2190 H2177 0.930 . S
C2190 C2189 1.376 . S
C2190 C2191 1.388 . S
C2191 H2178 0.930 . S
C2191 C2190 1.388 . S
C2191 C2192 1.390 . S
C2192 C2191 1.390 . S
C2192 C2193 1.394 . S
C2192 C2198 1.465 . S
C2193 C2188 1.399 . S
C2193 C2192 1.394 . S
C2193 C2194 1.516 . S
C2194 C2193 1.516 . S
C2194 C2195 1.502 . S
C2194 C2196 1.561 . S
C2194 C2197 1.526 . S
C2195 H2179 0.959 . S
C2195 H2180 0.959 . S
C2195 H2181 0.961 . S
C2195 C2194 1.502 . S
C2196 H2182 0.960 . S
C2196 H2183 0.961 . S
C2196 H2184 0.959 . S
C2196 C2194 1.561 . S
C2197 C2194 1.526 . S
C2197 C2198 1.396 . S
C2197 C2202 1.390 . S
C2198 C2192 1.465 . S
C2198 C2197 1.396 . S
C2198 C2199 1.399 . S
C2199 H2185 0.929 . S
C2199 C2198 1.399 . S
C2199 C2200 1.385 . S
C2200 H2186 0.931 . S
C2200 C2199 1.385 . S
C2200 C2201 1.389 . S
C2201 C2200 1.389 . S
C2201 C2202 1.387 . S
C2202 H2187 0.930 . S
C2202 C2197 1.390 . S
C2202 C2201 1.387 . S
H2203 C2215 0.930 . S
H2204 C2217 0.930 . S
H2205 C2218 0.930 . S
H2206 C2222 0.959 . S
H2207 C2222 0.959 . S
H2208 C2222 0.961 . S
H2209 C2223 0.960 . S
H2210 C2223 0.961 . S
H2211 C2223 0.959 . S
H2212 C2226 0.929 . S
H2213 C2227 0.931 . S
H2214 C2229 0.930 . S
C2215 H2203 0.930 . S
C2215 C2216 1.399 . S
C2215 C2220 1.399 . S
C2216 C2215 1.399 . S
C2216 C2217 1.376 . S
C2217 H2204 0.930 . S
C2217 C2216 1.376 . S
C2217 C2218 1.388 . S
C2218 H2205 0.930 . S
C2218 C2217 1.388 . S
C2218 C2219 1.390 . S
C2219 C2218 1.390 . S
C2219 C2220 1.394 . S
C2219 C2225 1.465 . S
C2220 C2215 1.399 . S
C2220 C2219 1.394 . S
C2220 C2221 1.516 . S
C2221 C2220 1.516 . S
C2221 C2222 1.502 . S
C2221 C2223 1.561 . S
C2221 C2224 1.526 . S
C2222 H2206 0.959 . S
C2222 H2207 0.959 . S
C2222 H2208 0.961 . S
C2222 C2221 1.502 . S
C2223 H2209 0.960 . S
C2223 H2210 0.961 . S
C2223 H2211 0.959 . S
C2223 C2221 1.561 . S
C2224 C2221 1.526 . S
C2224 C2225 1.396 . S
C2224 C2229 1.390 . S
C2225 C2219 1.465 . S
C2225 C2224 1.396 . S
C2225 C2226 1.399 . S
C2226 H2212 0.929 . S
C2226 C2225 1.399 . S
C2226 C2227 1.385 . S
C2227 H2213 0.931 . S
C2227 C2226 1.385 . S
C2227 C2228 1.389 . S
C2228 C2227 1.389 . S
C2228 C2229 1.387 . S
C2229 H2214 0.930 . S
C2229 C2224 1.390 . S
C2229 C2228 1.387 . S
H2230 C2242 0.930 . S
H2231 C2244 0.930 . S
H2232 C2245 0.930 . S
H2233 C2249 0.959 . S
H2234 C2249 0.959 . S
H2235 C2249 0.961 . S
H2236 C2250 0.960 . S
H2237 C2250 0.961 . S
H2238 C2250 0.959 . S
H2239 C2253 0.929 . S
H2240 C2254 0.931 . S
H2241 C2256 0.930 . S
C2242 H2230 0.930 . S
C2242 C2243 1.399 . S
C2242 C2247 1.399 . S
C2243 C2242 1.399 . S
C2243 C2244 1.376 . S
C2244 H2231 0.930 . S
C2244 C2243 1.376 . S
C2244 C2245 1.388 . S
C2245 H2232 0.930 . S
C2245 C2244 1.388 . S
C2245 C2246 1.390 . S
C2246 C2245 1.390 . S
C2246 C2247 1.394 . S
C2246 C2252 1.465 . S
C2247 C2242 1.399 . S
C2247 C2246 1.394 . S
C2247 C2248 1.516 . S
C2248 C2247 1.516 . S
C2248 C2249 1.502 . S
C2248 C2250 1.561 . S
C2248 C2251 1.526 . S
C2249 H2233 0.959 . S
C2249 H2234 0.959 . S
C2249 H2235 0.961 . S
C2249 C2248 1.502 . S
C2250 H2236 0.960 . S
C2250 H2237 0.961 . S
C2250 H2238 0.959 . S
C2250 C2248 1.561 . S
C2251 C2248 1.526 . S
C2251 C2252 1.396 . S
C2251 C2256 1.390 . S
C2252 C2246 1.465 . S
C2252 C2251 1.396 . S
C2252 C2253 1.399 . S
C2253 H2239 0.929 . S
C2253 C2252 1.399 . S
C2253 C2254 1.385 . S
C2254 H2240 0.931 . S
C2254 C2253 1.385 . S
C2254 C2255 1.389 . S
C2255 C2254 1.389 . S
C2255 C2256 1.387 . S
C2256 H2241 0.930 . S
C2256 C2251 1.390 . S
C2256 C2255 1.387 . S
H2257 C2269 0.930 . S
H2258 C2271 0.930 . S
H2259 C2272 0.930 . S
H2260 C2276 0.959 . S
H2261 C2276 0.959 . S
H2262 C2276 0.961 . S
H2263 C2277 0.960 . S
H2264 C2277 0.961 . S
H2265 C2277 0.959 . S
H2266 C2280 0.929 . S
H2267 C2281 0.931 . S
H2268 C2283 0.930 . S
C2269 H2257 0.930 . S
C2269 C2270 1.399 . S
C2269 C2274 1.399 . S
C2270 C2269 1.399 . S
C2270 C2271 1.376 . S
C2271 H2258 0.930 . S
C2271 C2270 1.376 . S
C2271 C2272 1.388 . S
C2272 H2259 0.930 . S
C2272 C2271 1.388 . S
C2272 C2273 1.390 . S
C2273 C2272 1.390 . S
C2273 C2274 1.394 . S
C2273 C2279 1.465 . S
C2274 C2269 1.399 . S
C2274 C2273 1.394 . S
C2274 C2275 1.516 . S
C2275 C2274 1.516 . S
C2275 C2276 1.502 . S
C2275 C2277 1.561 . S
C2275 C2278 1.526 . S
C2276 H2260 0.959 . S
C2276 H2261 0.959 . S
C2276 H2262 0.961 . S
C2276 C2275 1.502 . S
C2277 H2263 0.960 . S
C2277 H2264 0.961 . S
C2277 H2265 0.959 . S
C2277 C2275 1.561 . S
C2278 C2275 1.526 . S
C2278 C2279 1.396 . S
C2278 C2283 1.390 . S
C2279 C2273 1.465 . S
C2279 C2278 1.396 . S
C2279 C2280 1.399 . S
C2280 H2266 0.929 . S
C2280 C2279 1.399 . S
C2280 C2281 1.385 . S
C2281 H2267 0.931 . S
C2281 C2280 1.385 . S
C2281 C2282 1.389 . S
C2282 C2281 1.389 . S
C2282 C2283 1.387 . S
C2283 H2268 0.930 . S
C2283 C2278 1.390 . S
C2283 C2282 1.387 . S
H2284 C2296 0.930 . S
H2285 C2298 0.930 . S
H2286 C2299 0.930 . S
H2287 C2303 0.959 . S
H2288 C2303 0.959 . S
H2289 C2303 0.961 . S
H2290 C2304 0.960 . S
H2291 C2304 0.961 . S
H2292 C2304 0.959 . S
H2293 C2307 0.929 . S
H2294 C2308 0.931 . S
H2295 C2310 0.930 . S
C2296 H2284 0.930 . S
C2296 C2297 1.399 . S
C2296 C2301 1.399 . S
C2297 C2296 1.399 . S
C2297 C2298 1.376 . S
C2298 H2285 0.930 . S
C2298 C2297 1.376 . S
C2298 C2299 1.388 . S
C2299 H2286 0.930 . S
C2299 C2298 1.388 . S
C2299 C2300 1.390 . S
C2300 C2299 1.390 . S
C2300 C2301 1.394 . S
C2300 C2306 1.465 . S
C2301 C2296 1.399 . S
C2301 C2300 1.394 . S
C2301 C2302 1.516 . S
C2302 C2301 1.516 . S
C2302 C2303 1.502 . S
C2302 C2304 1.561 . S
C2302 C2305 1.526 . S
C2303 H2287 0.959 . S
C2303 H2288 0.959 . S
C2303 H2289 0.961 . S
C2303 C2302 1.502 . S
C2304 H2290 0.960 . S
C2304 H2291 0.961 . S
C2304 H2292 0.959 . S
C2304 C2302 1.561 . S
C2305 C2302 1.526 . S
C2305 C2306 1.396 . S
C2305 C2310 1.390 . S
C2306 C2300 1.465 . S
C2306 C2305 1.396 . S
C2306 C2307 1.399 . S
C2307 H2293 0.929 . S
C2307 C2306 1.399 . S
C2307 C2308 1.385 . S
C2308 H2294 0.931 . S
C2308 C2307 1.385 . S
C2308 C2309 1.389 . S
C2309 C2308 1.389 . S
C2309 C2310 1.387 . S
C2310 H2295 0.930 . S
C2310 C2305 1.390 . S
C2310 C2309 1.387 . S
H2311 C2323 0.930 . S
H2312 C2325 0.930 . S
H2313 C2326 0.930 . S
H2314 C2330 0.959 . S
H2315 C2330 0.959 . S
H2316 C2330 0.961 . S
H2317 C2331 0.960 . S
H2318 C2331 0.961 . S
H2319 C2331 0.959 . S
H2320 C2334 0.929 . S
H2321 C2335 0.931 . S
H2322 C2337 0.930 . S
C2323 H2311 0.930 . S
C2323 C2324 1.399 . S
C2323 C2328 1.399 . S
C2324 C2323 1.399 . S
C2324 C2325 1.376 . S
C2325 H2312 0.930 . S
C2325 C2324 1.376 . S
C2325 C2326 1.388 . S
C2326 H2313 0.930 . S
C2326 C2325 1.388 . S
C2326 C2327 1.390 . S
C2327 C2326 1.390 . S
C2327 C2328 1.394 . S
C2327 C2333 1.465 . S
C2328 C2323 1.399 . S
C2328 C2327 1.394 . S
C2328 C2329 1.516 . S
C2329 C2328 1.516 . S
C2329 C2330 1.502 . S
C2329 C2331 1.561 . S
C2329 C2332 1.526 . S
C2330 H2314 0.959 . S
C2330 H2315 0.959 . S
C2330 H2316 0.961 . S
C2330 C2329 1.502 . S
C2331 H2317 0.960 . S
C2331 H2318 0.961 . S
C2331 H2319 0.959 . S
C2331 C2329 1.561 . S
C2332 C2329 1.526 . S
C2332 C2333 1.396 . S
C2332 C2337 1.390 . S
C2333 C2327 1.465 . S
C2333 C2332 1.396 . S
C2333 C2334 1.399 . S
C2334 H2320 0.929 . S
C2334 C2333 1.399 . S
C2334 C2335 1.385 . S
C2335 H2321 0.931 . S
C2335 C2334 1.385 . S
C2335 C2336 1.389 . S
C2336 C2335 1.389 . S
C2336 C2337 1.387 . S
C2337 H2322 0.930 . S
C2337 C2332 1.390 . S
C2337 C2336 1.387 . S
H2338 C2350 0.930 . S
H2339 C2352 0.930 . S
H2340 C2353 0.930 . S
H2341 C2357 0.959 . S
H2342 C2357 0.959 . S
H2343 C2357 0.961 . S
H2344 C2358 0.960 . S
H2345 C2358 0.961 . S
H2346 C2358 0.959 . S
H2347 C2361 0.929 . S
H2348 C2362 0.931 . S
H2349 C2364 0.930 . S
C2350 H2338 0.930 . S
C2350 C2351 1.399 . S
C2350 C2355 1.399 . S
C2351 C2350 1.399 . S
C2351 C2352 1.376 . S
C2352 H2339 0.930 . S
C2352 C2351 1.376 . S
C2352 C2353 1.388 . S
C2353 H2340 0.930 . S
C2353 C2352 1.388 . S
C2353 C2354 1.390 . S
C2354 C2353 1.390 . S
C2354 C2355 1.394 . S
C2354 C2360 1.465 . S
C2355 C2350 1.399 . S
C2355 C2354 1.394 . S
C2355 C2356 1.516 . S
C2356 C2355 1.516 . S
C2356 C2357 1.502 . S
C2356 C2358 1.561 . S
C2356 C2359 1.526 . S
C2357 H2341 0.959 . S
C2357 H2342 0.959 . S
C2357 H2343 0.961 . S
C2357 C2356 1.502 . S
C2358 H2344 0.960 . S
C2358 H2345 0.961 . S
C2358 H2346 0.959 . S
C2358 C2356 1.561 . S
C2359 C2356 1.526 . S
C2359 C2360 1.396 . S
C2359 C2364 1.390 . S
C2360 C2354 1.465 . S
C2360 C2359 1.396 . S
C2360 C2361 1.399 . S
C2361 H2347 0.929 . S
C2361 C2360 1.399 . S
C2361 C2362 1.385 . S
C2362 H2348 0.931 . S
C2362 C2361 1.385 . S
C2362 C2363 1.389 . S
C2363 C2362 1.389 . S
C2363 C2364 1.387 . S
C2364 H2349 0.930 . S
C2364 C2359 1.390 . S
C2364 C2363 1.387 . S
H2365 C2377 0.930 . S
H2366 C2379 0.930 . S
H2367 C2380 0.930 . S
H2368 C2384 0.959 . S
H2369 C2384 0.959 . S
H2370 C2384 0.961 . S
H2371 C2385 0.960 . S
H2372 C2385 0.961 . S
H2373 C2385 0.959 . S
H2374 C2388 0.929 . S
H2375 C2389 0.931 . S
H2376 C2391 0.930 . S
C2377 H2365 0.930 . S
C2377 C2378 1.399 . S
C2377 C2382 1.399 . S
C2378 C2377 1.399 . S
C2378 C2379 1.376 . S
C2379 H2366 0.930 . S
C2379 C2378 1.376 . S
C2379 C2380 1.388 . S
C2380 H2367 0.930 . S
C2380 C2379 1.388 . S
C2380 C2381 1.390 . S
C2381 C2380 1.390 . S
C2381 C2382 1.394 . S
C2381 C2387 1.465 . S
C2382 C2377 1.399 . S
C2382 C2381 1.394 . S
C2382 C2383 1.516 . S
C2383 C2382 1.516 . S
C2383 C2384 1.502 . S
C2383 C2385 1.561 . S
C2383 C2386 1.526 . S
C2384 H2368 0.959 . S
C2384 H2369 0.959 . S
C2384 H2370 0.961 . S
C2384 C2383 1.502 . S
C2385 H2371 0.960 . S
C2385 H2372 0.961 . S
C2385 H2373 0.959 . S
C2385 C2383 1.561 . S
C2386 C2383 1.526 . S
C2386 C2387 1.396 . S
C2386 C2391 1.390 . S
C2387 C2381 1.465 . S
C2387 C2386 1.396 . S
C2387 C2388 1.399 . S
C2388 H2374 0.929 . S
C2388 C2387 1.399 . S
C2388 C2389 1.385 . S
C2389 H2375 0.931 . S
C2389 C2388 1.385 . S
C2389 C2390 1.389 . S
C2390 C2389 1.389 . S
C2390 C2391 1.387 . S
C2391 H2376 0.930 . S
C2391 C2386 1.390 . S
C2391 C2390 1.387 . S
H2392 C2404 0.930 . S
H2393 C2406 0.930 . S
H2394 C2407 0.930 . S
H2395 C2411 0.959 . S
H2396 C2411 0.959 . S
H2397 C2411 0.961 . S
H2398 C2412 0.960 . S
H2399 C2412 0.961 . S
H2400 C2412 0.959 . S
H2401 C2415 0.929 . S
H2402 C2416 0.931 . S
H2403 C2418 0.930 . S
C2404 H2392 0.930 . S
C2404 C2405 1.399 . S
C2404 C2409 1.399 . S
C2405 C2404 1.399 . S
C2405 C2406 1.376 . S
C2406 H2393 0.930 . S
C2406 C2405 1.376 . S
C2406 C2407 1.388 . S
C2407 H2394 0.930 . S
C2407 C2406 1.388 . S
C2407 C2408 1.390 . S
C2408 C2407 1.390 . S
C2408 C2409 1.394 . S
C2408 C2414 1.465 . S
C2409 C2404 1.399 . S
C2409 C2408 1.394 . S
C2409 C2410 1.516 . S
C2410 C2409 1.516 . S
C2410 C2411 1.502 . S
C2410 C2412 1.561 . S
C2410 C2413 1.526 . S
C2411 H2395 0.959 . S
C2411 H2396 0.959 . S
C2411 H2397 0.961 . S
C2411 C2410 1.502 . S
C2412 H2398 0.960 . S
C2412 H2399 0.961 . S
C2412 H2400 0.959 . S
C2412 C2410 1.561 . S
C2413 C2410 1.526 . S
C2413 C2414 1.396 . S
C2413 C2418 1.390 . S
C2414 C2408 1.465 . S
C2414 C2413 1.396 . S
C2414 C2415 1.399 . S
C2415 H2401 0.929 . S
C2415 C2414 1.399 . S
C2415 C2416 1.385 . S
C2416 H2402 0.931 . S
C2416 C2415 1.385 . S
C2416 C2417 1.389 . S
C2417 C2416 1.389 . S
C2417 C2418 1.387 . S
C2418 H2403 0.930 . S
C2418 C2413 1.390 . S
C2418 C2417 1.387 . S
H2419 C2431 0.930 . S
H2420 C2433 0.930 . S
H2421 C2434 0.930 . S
H2422 C2438 0.959 . S
H2423 C2438 0.959 . S
H2424 C2438 0.961 . S
H2425 C2439 0.960 . S
H2426 C2439 0.961 . S
H2427 C2439 0.959 . S
H2428 C2442 0.929 . S
H2429 C2443 0.931 . S
H2430 C2445 0.930 . S
C2431 H2419 0.930 . S
C2431 C2432 1.399 . S
C2431 C2436 1.399 . S
C2432 C2431 1.399 . S
C2432 C2433 1.376 . S
C2433 H2420 0.930 . S
C2433 C2432 1.376 . S
C2433 C2434 1.388 . S
C2434 H2421 0.930 . S
C2434 C2433 1.388 . S
C2434 C2435 1.390 . S
C2435 C2434 1.390 . S
C2435 C2436 1.394 . S
C2435 C2441 1.465 . S
C2436 C2431 1.399 . S
C2436 C2435 1.394 . S
C2436 C2437 1.516 . S
C2437 C2436 1.516 . S
C2437 C2438 1.502 . S
C2437 C2439 1.561 . S
C2437 C2440 1.526 . S
C2438 H2422 0.959 . S
C2438 H2423 0.959 . S
C2438 H2424 0.961 . S
C2438 C2437 1.502 . S
C2439 H2425 0.960 . S
C2439 H2426 0.961 . S
C2439 H2427 0.959 . S
C2439 C2437 1.561 . S
C2440 C2437 1.526 . S
C2440 C2441 1.396 . S
C2440 C2445 1.390 . S
C2441 C2435 1.465 . S
C2441 C2440 1.396 . S
C2441 C2442 1.399 . S
C2442 H2428 0.929 . S
C2442 C2441 1.399 . S
C2442 C2443 1.385 . S
C2443 H2429 0.931 . S
C2443 C2442 1.385 . S
C2443 C2444 1.389 . S
C2444 C2443 1.389 . S
C2444 C2445 1.387 . S
C2445 H2430 0.930 . S
C2445 C2440 1.390 . S
C2445 C2444 1.387 . S
H2446 C2458 0.930 . S
H2447 C2460 0.930 . S
H2448 C2461 0.930 . S
H2449 C2465 0.959 . S
H2450 C2465 0.959 . S
H2451 C2465 0.961 . S
H2452 C2466 0.960 . S
H2453 C2466 0.961 . S
H2454 C2466 0.959 . S
H2455 C2469 0.929 . S
H2456 C2470 0.931 . S
H2457 C2472 0.930 . S
C2458 H2446 0.930 . S
C2458 C2459 1.399 . S
C2458 C2463 1.399 . S
C2459 C2458 1.399 . S
C2459 C2460 1.376 . S
C2460 H2447 0.930 . S
C2460 C2459 1.376 . S
C2460 C2461 1.388 . S
C2461 H2448 0.930 . S
C2461 C2460 1.388 . S
C2461 C2462 1.390 . S
C2462 C2461 1.390 . S
C2462 C2463 1.394 . S
C2462 C2468 1.465 . S
C2463 C2458 1.399 . S
C2463 C2462 1.394 . S
C2463 C2464 1.516 . S
C2464 C2463 1.516 . S
C2464 C2465 1.502 . S
C2464 C2466 1.561 . S
C2464 C2467 1.526 . S
C2465 H2449 0.959 . S
C2465 H2450 0.959 . S
C2465 H2451 0.961 . S
C2465 C2464 1.502 . S
C2466 H2452 0.960 . S
C2466 H2453 0.961 . S
C2466 H2454 0.959 . S
C2466 C2464 1.561 . S
C2467 C2464 1.526 . S
C2467 C2468 1.396 . S
C2467 C2472 1.390 . S
C2468 C2462 1.465 . S
C2468 C2467 1.396 . S
C2468 C2469 1.399 . S
C2469 H2455 0.929 . S
C2469 C2468 1.399 . S
C2469 C2470 1.385 . S
C2470 H2456 0.931 . S
C2470 C2469 1.385 . S
C2470 C2471 1.389 . S
C2471 C2470 1.389 . S
C2471 C2472 1.387 . S
C2472 H2457 0.930 . S
C2472 C2467 1.390 . S
C2472 C2471 1.387 . S
H2473 C2485 0.930 . S
H2474 C2487 0.930 1_554 S
H2475 C2488 0.930 . S
H2476 C2492 0.959 . S
H2477 C2492 0.959 . S
H2478 C2492 0.961 . S
H2479 C2493 0.960 . S
H2480 C2493 0.961 . S
H2481 C2493 0.959 . S
H2482 C2496 0.929 . S
H2483 C2497 0.931 . S
H2484 C2499 0.930 . S
C2485 H2473 0.930 . S
C2485 C2486 1.399 . S
C2485 C2490 1.399 . S
C2486 C2485 1.399 . S
C2486 C2487 1.376 . S
C2487 H2474 0.930 1_556 S
C2487 C2486 1.376 . S
C2487 C2488 1.388 . S
C2488 H2475 0.930 . S
C2488 C2487 1.388 . S
C2488 C2489 1.390 . S
C2489 C2488 1.390 . S
C2489 C2490 1.394 . S
C2489 C2495 1.465 . S
C2490 C2485 1.399 . S
C2490 C2489 1.394 . S
C2490 C2491 1.516 . S
C2491 C2490 1.516 . S
C2491 C2492 1.502 . S
C2491 C2493 1.561 . S
C2491 C2494 1.526 . S
C2492 H2476 0.959 . S
C2492 H2477 0.959 . S
C2492 H2478 0.961 . S
C2492 C2491 1.502 . S
C2493 H2479 0.960 . S
C2493 H2480 0.961 . S
C2493 H2481 0.959 . S
C2493 C2491 1.561 . S
C2494 C2491 1.526 . S
C2494 C2495 1.396 . S
C2494 C2499 1.390 . S
C2495 C2489 1.465 . S
C2495 C2494 1.396 . S
C2495 C2496 1.399 . S
C2496 H2482 0.929 . S
C2496 C2495 1.399 . S
C2496 C2497 1.385 . S
C2497 H2483 0.931 . S
C2497 C2496 1.385 . S
C2497 C2498 1.389 . S
C2498 C2497 1.389 . S
C2498 C2499 1.387 . S
C2499 H2484 0.930 . S
C2499 C2494 1.390 . S
C2499 C2498 1.387 . S
H2500 C2512 0.930 . S
H2501 C2514 0.930 . S
H2502 C2515 0.930 . S
H2503 C2519 0.959 . S
H2504 C2519 0.959 . S
H2505 C2519 0.961 . S
H2506 C2520 0.960 . S
H2507 C2520 0.961 . S
H2508 C2520 0.959 . S
H2509 C2523 0.929 . S
H2510 C2524 0.931 . S
H2511 C2526 0.930 . S
C2512 H2500 0.930 . S
C2512 C2513 1.399 . S
C2512 C2517 1.399 . S
C2513 C2512 1.399 . S
C2513 C2514 1.376 . S
C2514 H2501 0.930 . S
C2514 C2513 1.376 . S
C2514 C2515 1.388 . S
C2515 H2502 0.930 . S
C2515 C2514 1.388 . S
C2515 C2516 1.390 . S
C2516 C2515 1.390 . S
C2516 C2517 1.394 . S
C2516 C2522 1.465 . S
C2517 C2512 1.399 . S
C2517 C2516 1.394 . S
C2517 C2518 1.516 . S
C2518 C2517 1.516 . S
C2518 C2519 1.502 . S
C2518 C2520 1.561 . S
C2518 C2521 1.526 . S
C2519 H2503 0.959 . S
C2519 H2504 0.959 . S
C2519 H2505 0.961 . S
C2519 C2518 1.502 . S
C2520 H2506 0.960 . S
C2520 H2507 0.961 . S
C2520 H2508 0.959 . S
C2520 C2518 1.561 . S
C2521 C2518 1.526 . S
C2521 C2522 1.396 . S
C2521 C2526 1.390 . S
C2522 C2516 1.465 . S
C2522 C2521 1.396 . S
C2522 C2523 1.399 . S
C2523 H2509 0.929 . S
C2523 C2522 1.399 . S
C2523 C2524 1.385 . S
C2524 H2510 0.931 . S
C2524 C2523 1.385 . S
C2524 C2525 1.389 . S
C2525 C2524 1.389 . S
C2525 C2526 1.387 . S
C2526 H2511 0.930 . S
C2526 C2521 1.390 . S
C2526 C2525 1.387 . S
H2527 C2539 0.930 . S
H2528 C2541 0.930 . S
H2529 C2542 0.930 . S
H2530 C2546 0.959 . S
H2531 C2546 0.959 . S
H2532 C2546 0.961 . S
H2533 C2547 0.960 . S
H2534 C2547 0.961 . S
H2535 C2547 0.959 . S
H2536 C2550 0.929 . S
H2537 C2551 0.931 . S
H2538 C2553 0.930 . S
C2539 H2527 0.930 . S
C2539 C2540 1.399 . S
C2539 C2544 1.399 . S
C2540 C2539 1.399 . S
C2540 C2541 1.376 . S
C2541 H2528 0.930 . S
C2541 C2540 1.376 . S
C2541 C2542 1.388 . S
C2542 H2529 0.930 . S
C2542 C2541 1.388 . S
C2542 C2543 1.390 . S
C2543 C2542 1.390 . S
C2543 C2544 1.394 . S
C2543 C2549 1.465 . S
C2544 C2539 1.399 . S
C2544 C2543 1.394 . S
C2544 C2545 1.516 . S
C2545 C2544 1.516 . S
C2545 C2546 1.502 . S
C2545 C2547 1.561 . S
C2545 C2548 1.526 . S
C2546 H2530 0.959 . S
C2546 H2531 0.959 . S
C2546 H2532 0.961 . S
C2546 C2545 1.502 . S
C2547 H2533 0.960 . S
C2547 H2534 0.961 . S
C2547 H2535 0.959 . S
C2547 C2545 1.561 . S
C2548 C2545 1.526 . S
C2548 C2549 1.396 . S
C2548 C2553 1.390 . S
C2549 C2543 1.465 . S
C2549 C2548 1.396 . S
C2549 C2550 1.399 . S
C2550 H2536 0.929 . S
C2550 C2549 1.399 . S
C2550 C2551 1.385 . S
C2551 H2537 0.931 . S
C2551 C2550 1.385 . S
C2551 C2552 1.389 . S
C2552 C2551 1.389 . S
C2552 C2553 1.387 . S
C2553 H2538 0.930 . S
C2553 C2548 1.390 . S
C2553 C2552 1.387 . S
H2554 C2566 0.930 . S
H2555 C2568 0.930 . S
H2556 C2569 0.930 . S
H2557 C2573 0.959 . S
H2558 C2573 0.959 . S
H2559 C2573 0.961 . S
H2560 C2574 0.960 . S
H2561 C2574 0.961 . S
H2562 C2574 0.959 . S
H2563 C2577 0.929 . S
H2564 C2578 0.931 . S
H2565 C2580 0.930 . S
C2566 H2554 0.930 . S
C2566 C2567 1.399 . S
C2566 C2571 1.399 . S
C2567 C2566 1.399 . S
C2567 C2568 1.376 . S
C2568 H2555 0.930 . S
C2568 C2567 1.376 . S
C2568 C2569 1.388 . S
C2569 H2556 0.930 . S
C2569 C2568 1.388 . S
C2569 C2570 1.390 . S
C2570 C2569 1.390 . S
C2570 C2571 1.394 . S
C2570 C2576 1.465 . S
C2571 C2566 1.399 . S
C2571 C2570 1.394 . S
C2571 C2572 1.516 . S
C2572 C2571 1.516 . S
C2572 C2573 1.502 . S
C2572 C2574 1.561 . S
C2572 C2575 1.526 . S
C2573 H2557 0.959 . S
C2573 H2558 0.959 . S
C2573 H2559 0.961 . S
C2573 C2572 1.502 . S
C2574 H2560 0.960 . S
C2574 H2561 0.961 . S
C2574 H2562 0.959 . S
C2574 C2572 1.561 . S
C2575 C2572 1.526 . S
C2575 C2576 1.396 . S
C2575 C2580 1.390 . S
C2576 C2570 1.465 . S
C2576 C2575 1.396 . S
C2576 C2577 1.399 . S
C2577 H2563 0.929 . S
C2577 C2576 1.399 . S
C2577 C2578 1.385 . S
C2578 H2564 0.931 . S
C2578 C2577 1.385 . S
C2578 C2579 1.389 . S
C2579 C2578 1.389 . S
C2579 C2580 1.387 . S
C2580 H2565 0.930 . S
C2580 C2575 1.390 . S
C2580 C2579 1.387 . S
H2581 C2593 0.930 . S
H2582 C2595 0.930 . S
H2583 C2596 0.930 . S
H2584 C2600 0.959 . S
H2585 C2600 0.959 . S
H2586 C2600 0.961 . S
H2587 C2601 0.960 . S
H2588 C2601 0.961 . S
H2589 C2601 0.959 . S
H2590 C2604 0.929 . S
H2591 C2605 0.931 . S
H2592 C2607 0.930 . S
C2593 H2581 0.930 . S
C2593 C2594 1.399 . S
C2593 C2598 1.399 . S
C2594 C2593 1.399 . S
C2594 C2595 1.376 . S
C2595 H2582 0.930 . S
C2595 C2594 1.376 . S
C2595 C2596 1.388 . S
C2596 H2583 0.930 . S
C2596 C2595 1.388 . S
C2596 C2597 1.390 . S
C2597 C2596 1.390 . S
C2597 C2598 1.394 . S
C2597 C2603 1.465 1_655 S
C2598 C2593 1.399 . S
C2598 C2597 1.394 . S
C2598 C2599 1.516 . S
C2599 C2598 1.516 . S
C2599 C2600 1.502 . S
C2599 C2601 1.561 . S
C2599 C2602 1.526 1_655 S
C2600 H2584 0.959 . S
C2600 H2585 0.959 . S
C2600 H2586 0.961 . S
C2600 C2599 1.502 . S
C2601 H2587 0.960 . S
C2601 H2588 0.961 . S
C2601 H2589 0.959 . S
C2601 C2599 1.561 . S
C2602 C2599 1.526 1_455 S
C2602 C2603 1.396 . S
C2602 C2607 1.390 . S
C2603 C2597 1.465 1_455 S
C2603 C2602 1.396 . S
C2603 C2604 1.399 . S
C2604 H2590 0.929 . S
C2604 C2603 1.399 . S
C2604 C2605 1.385 . S
C2605 H2591 0.931 . S
C2605 C2604 1.385 . S
C2605 C2606 1.389 . S
C2606 C2605 1.389 . S
C2606 C2607 1.387 . S
C2607 H2592 0.930 . S
C2607 C2602 1.390 . S
C2607 C2606 1.387 . S
H2608 C2620 0.930 . S
H2609 C2622 0.930 . S
H2610 C2623 0.930 . S
H2611 C2627 0.959 . S
H2612 C2627 0.959 . S
H2613 C2627 0.961 . S
H2614 C2628 0.960 . S
H2615 C2628 0.961 . S
H2616 C2628 0.959 . S
H2617 C2631 0.929 . S
H2618 C2632 0.931 . S
H2619 C2634 0.930 . S
C2620 H2608 0.930 . S
C2620 C2621 1.399 . S
C2620 C2625 1.399 . S
C2621 C2620 1.399 . S
C2621 C2622 1.376 . S
C2622 H2609 0.930 . S
C2622 C2621 1.376 . S
C2622 C2623 1.388 . S
C2623 H2610 0.930 . S
C2623 C2622 1.388 . S
C2623 C2624 1.390 . S
C2624 C2623 1.390 . S
C2624 C2625 1.394 . S
C2624 C2630 1.465 . S
C2625 C2620 1.399 . S
C2625 C2624 1.394 . S
C2625 C2626 1.516 . S
C2626 C2625 1.516 . S
C2626 C2627 1.502 . S
C2626 C2628 1.561 . S
C2626 C2629 1.526 . S
C2627 H2611 0.959 . S
C2627 H2612 0.959 . S
C2627 H2613 0.961 . S
C2627 C2626 1.502 . S
C2628 H2614 0.960 . S
C2628 H2615 0.961 . S
C2628 H2616 0.959 . S
C2628 C2626 1.561 . S
C2629 C2626 1.526 . S
C2629 C2630 1.396 . S
C2629 C2634 1.390 . S
C2630 C2624 1.465 . S
C2630 C2629 1.396 . S
C2630 C2631 1.399 . S
C2631 H2617 0.929 . S
C2631 C2630 1.399 . S
C2631 C2632 1.385 . S
C2632 H2618 0.931 . S
C2632 C2631 1.385 . S
C2632 C2633 1.389 . S
C2633 C2632 1.389 . S
C2633 C2634 1.387 . S
C2634 H2619 0.930 . S
C2634 C2629 1.390 . S
C2634 C2633 1.387 . S
H2635 C2647 0.930 . S
H2636 C2649 0.930 . S
H2637 C2650 0.930 . S
H2638 C2654 0.959 . S
H2639 C2654 0.959 . S
H2640 C2654 0.961 . S
H2641 C2655 0.960 . S
H2642 C2655 0.961 . S
H2643 C2655 0.959 . S
H2644 C2658 0.929 . S
H2645 C2659 0.931 . S
H2646 C2661 0.930 . S
C2647 H2635 0.930 . S
C2647 C2648 1.399 . S
C2647 C2652 1.399 . S
C2648 C2647 1.399 . S
C2648 C2649 1.376 . S
C2649 H2636 0.930 . S
C2649 C2648 1.376 . S
C2649 C2650 1.388 . S
C2650 H2637 0.930 . S
C2650 C2649 1.388 . S
C2650 C2651 1.390 . S
C2651 C2650 1.390 . S
C2651 C2652 1.394 . S
C2651 C2657 1.465 . S
C2652 C2647 1.399 . S
C2652 C2651 1.394 . S
C2652 C2653 1.516 1_556 S
C2653 C2652 1.516 1_554 S
C2653 C2654 1.502 . S
C2653 C2655 1.561 . S
C2653 C2656 1.526 . S
C2654 H2638 0.959 . S
C2654 H2639 0.959 . S
C2654 H2640 0.961 . S
C2654 C2653 1.502 . S
C2655 H2641 0.960 . S
C2655 H2642 0.961 . S
C2655 H2643 0.959 . S
C2655 C2653 1.561 . S
C2656 C2653 1.526 . S
C2656 C2657 1.396 1_554 S
C2656 C2661 1.390 . S
C2657 C2651 1.465 . S
C2657 C2656 1.396 1_556 S
C2657 C2658 1.399 . S
C2658 H2644 0.929 . S
C2658 C2657 1.399 . S
C2658 C2659 1.385 1_556 S
C2659 H2645 0.931 . S
C2659 C2658 1.385 1_554 S
C2659 C2660 1.389 . S
C2660 C2659 1.389 . S
C2660 C2661 1.387 . S
C2661 H2646 0.930 . S
C2661 C2656 1.390 . S
C2661 C2660 1.387 . S
H2662 C2674 0.930 . S
H2663 C2676 0.930 . S
H2664 C2677 0.930 . S
H2665 C2681 0.959 . S
H2666 C2681 0.959 . S
H2667 C2681 0.961 . S
H2668 C2682 0.960 . S
H2669 C2682 0.961 . S
H2670 C2682 0.959 . S
H2671 C2685 0.929 . S
H2672 C2686 0.931 . S
H2673 C2688 0.930 . S
C2674 H2662 0.930 . S
C2674 C2675 1.399 . S
C2674 C2679 1.399 . S
C2675 C2674 1.399 . S
C2675 C2676 1.376 . S
C2676 H2663 0.930 . S
C2676 C2675 1.376 . S
C2676 C2677 1.388 . S
C2677 H2664 0.930 . S
C2677 C2676 1.388 . S
C2677 C2678 1.390 . S
C2678 C2677 1.390 . S
C2678 C2679 1.394 . S
C2678 C2684 1.465 . S
C2679 C2674 1.399 . S
C2679 C2678 1.394 . S
C2679 C2680 1.516 . S
C2680 C2679 1.516 . S
C2680 C2681 1.502 . S
C2680 C2682 1.561 . S
C2680 C2683 1.526 . S
C2681 H2665 0.959 . S
C2681 H2666 0.959 . S
C2681 H2667 0.961 . S
C2681 C2680 1.502 . S
C2682 H2668 0.960 . S
C2682 H2669 0.961 . S
C2682 H2670 0.959 . S
C2682 C2680 1.561 . S
C2683 C2680 1.526 . S
C2683 C2684 1.396 . S
C2683 C2688 1.390 . S
C2684 C2678 1.465 . S
C2684 C2683 1.396 . S
C2684 C2685 1.399 . S
C2685 H2671 0.929 . S
C2685 C2684 1.399 . S
C2685 C2686 1.385 . S
C2686 H2672 0.931 . S
C2686 C2685 1.385 . S
C2686 C2687 1.389 . S
C2687 C2686 1.389 . S
C2687 C2688 1.387 . S
C2688 H2673 0.930 . S
C2688 C2683 1.390 . S
C2688 C2687 1.387 . S
H2689 C2701 0.930 . S
H2690 C2703 0.930 1_655 S
H2691 C2704 0.930 . S
H2692 C2708 0.959 . S
H2693 C2708 0.959 . S
H2694 C2708 0.961 . S
H2695 C2709 0.960 . S
H2696 C2709 0.961 . S
H2697 C2709 0.959 . S
H2698 C2712 0.929 . S
H2699 C2713 0.931 . S
H2700 C2715 0.930 . S
C2701 H2689 0.930 . S
C2701 C2702 1.399 . S
C2701 C2706 1.399 . S
C2702 C2701 1.399 . S
C2702 C2703 1.376 . S
C2703 H2690 0.930 1_455 S
C2703 C2702 1.376 . S
C2703 C2704 1.388 . S
C2704 H2691 0.930 . S
C2704 C2703 1.388 . S
C2704 C2705 1.390 . S
C2705 C2704 1.390 . S
C2705 C2706 1.394 . S
C2705 C2711 1.465 . S
C2706 C2701 1.399 . S
C2706 C2705 1.394 . S
C2706 C2707 1.516 . S
C2707 C2706 1.516 . S
C2707 C2708 1.502 . S
C2707 C2709 1.561 . S
C2707 C2710 1.526 . S
C2708 H2692 0.959 . S
C2708 H2693 0.959 . S
C2708 H2694 0.961 . S
C2708 C2707 1.502 . S
C2709 H2695 0.960 . S
C2709 H2696 0.961 . S
C2709 H2697 0.959 . S
C2709 C2707 1.561 . S
C2710 C2707 1.526 . S
C2710 C2711 1.396 . S
C2710 C2715 1.390 . S
C2711 C2705 1.465 . S
C2711 C2710 1.396 . S
C2711 C2712 1.399 . S
C2712 H2698 0.929 . S
C2712 C2711 1.399 . S
C2712 C2713 1.385 . S
C2713 H2699 0.931 . S
C2713 C2712 1.385 . S
C2713 C2714 1.389 . S
C2714 C2713 1.389 . S
C2714 C2715 1.387 . S
C2715 H2700 0.930 . S
C2715 C2710 1.390 . S
C2715 C2714 1.387 . S
H2716 C2728 0.930 . S
H2717 C2730 0.930 . S
H2718 C2731 0.930 . S
H2719 C2735 0.959 . S
H2720 C2735 0.959 . S
H2721 C2735 0.961 . S
H2722 C2736 0.960 . S
H2723 C2736 0.961 . S
H2724 C2736 0.959 . S
H2725 C2739 0.929 . S
H2726 C2740 0.931 . S
H2727 C2742 0.930 . S
C2728 H2716 0.930 . S
C2728 C2729 1.399 . S
C2728 C2733 1.399 . S
C2729 C2728 1.399 . S
C2729 C2730 1.376 . S
C2730 H2717 0.930 . S
C2730 C2729 1.376 . S
C2730 C2731 1.388 . S
C2731 H2718 0.930 . S
C2731 C2730 1.388 . S
C2731 C2732 1.390 . S
C2732 C2731 1.390 . S
C2732 C2733 1.394 . S
C2732 C2738 1.465 . S
C2733 C2728 1.399 . S
C2733 C2732 1.394 . S
C2733 C2734 1.516 . S
C2734 C2733 1.516 . S
C2734 C2735 1.502 . S
C2734 C2736 1.561 . S
C2734 C2737 1.526 . S
C2735 H2719 0.959 . S
C2735 H2720 0.959 . S
C2735 H2721 0.961 . S
C2735 C2734 1.502 . S
C2736 H2722 0.960 . S
C2736 H2723 0.961 . S
C2736 H2724 0.959 . S
C2736 C2734 1.561 . S
C2737 C2734 1.526 . S
C2737 C2738 1.396 . S
C2737 C2742 1.390 . S
C2738 C2732 1.465 . S
C2738 C2737 1.396 . S
C2738 C2739 1.399 . S
C2739 H2725 0.929 . S
C2739 C2738 1.399 . S
C2739 C2740 1.385 . S
C2740 H2726 0.931 . S
C2740 C2739 1.385 . S
C2740 C2741 1.389 . S
C2741 C2740 1.389 . S
C2741 C2742 1.387 . S
C2742 H2727 0.930 . S
C2742 C2737 1.390 . S
C2742 C2741 1.387 . S
H2743 C2755 0.930 . S
H2744 C2757 0.930 . S
H2745 C2758 0.930 . S
H2746 C2762 0.959 . S
H2747 C2762 0.959 . S
H2748 C2762 0.961 . S
H2749 C2763 0.960 . S
H2750 C2763 0.961 . S
H2751 C2763 0.959 . S
H2752 C2766 0.929 . S
H2753 C2767 0.931 . S
H2754 C2769 0.930 . S
C2755 H2743 0.930 . S
C2755 C2756 1.399 . S
C2755 C2760 1.399 . S
C2756 C2755 1.399 . S
C2756 C2757 1.376 . S
C2757 H2744 0.930 . S
C2757 C2756 1.376 . S
C2757 C2758 1.388 . S
C2758 H2745 0.930 . S
C2758 C2757 1.388 . S
C2758 C2759 1.390 . S
C2759 C2758 1.390 . S
C2759 C2760 1.394 . S
C2759 C2765 1.465 1_554 S
C2760 C2755 1.399 . S
C2760 C2759 1.394 . S
C2760 C2761 1.516 . S
C2761 C2760 1.516 . S
C2761 C2762 1.502 . S
C2761 C2763 1.561 . S
C2761 C2764 1.526 . S
C2762 H2746 0.959 . S
C2762 H2747 0.959 . S
C2762 H2748 0.961 . S
C2762 C2761 1.502 . S
C2763 H2749 0.960 . S
C2763 H2750 0.961 . S
C2763 H2751 0.959 . S
C2763 C2761 1.561 . S
C2764 C2761 1.526 . S
C2764 C2765 1.396 1_554 S
C2764 C2769 1.390 1_554 S
C2765 C2759 1.465 1_556 S
C2765 C2764 1.396 1_556 S
C2765 C2766 1.399 . S
C2766 H2752 0.929 . S
C2766 C2765 1.399 . S
C2766 C2767 1.385 . S
C2767 H2753 0.931 . S
C2767 C2766 1.385 . S
C2767 C2768 1.389 . S
C2768 C2767 1.389 . S
C2768 C2769 1.387 . S
C2769 H2754 0.930 . S
C2769 C2764 1.390 1_556 S
C2769 C2768 1.387 . S
H2770 C2782 0.930 . S
H2771 C2784 0.930 . S
H2772 C2785 0.930 . S
H2773 C2789 0.959 . S
H2774 C2789 0.959 . S
H2775 C2789 0.961 . S
H2776 C2790 0.960 . S
H2777 C2790 0.961 . S
H2778 C2790 0.959 . S
H2779 C2793 0.929 . S
H2780 C2794 0.931 . S
H2781 C2796 0.930 . S
C2782 H2770 0.930 . S
C2782 C2783 1.399 . S
C2782 C2787 1.399 . S
C2783 C2782 1.399 . S
C2783 C2784 1.376 . S
C2784 H2771 0.930 . S
C2784 C2783 1.376 . S
C2784 C2785 1.388 . S
C2785 H2772 0.930 . S
C2785 C2784 1.388 . S
C2785 C2786 1.390 . S
C2786 C2785 1.390 . S
C2786 C2787 1.394 . S
C2786 C2792 1.465 . S
C2787 C2782 1.399 . S
C2787 C2786 1.394 . S
C2787 C2788 1.516 . S
C2788 C2787 1.516 . S
C2788 C2789 1.502 . S
C2788 C2790 1.561 . S
C2788 C2791 1.526 . S
C2789 H2773 0.959 . S
C2789 H2774 0.959 . S
C2789 H2775 0.961 . S
C2789 C2788 1.502 . S
C2790 H2776 0.960 . S
C2790 H2777 0.961 . S
C2790 H2778 0.959 . S
C2790 C2788 1.561 . S
C2791 C2788 1.526 . S
C2791 C2792 1.396 . S
C2791 C2796 1.390 . S
C2792 C2786 1.465 . S
C2792 C2791 1.396 . S
C2792 C2793 1.399 . S
C2793 H2779 0.929 . S
C2793 C2792 1.399 . S
C2793 C2794 1.385 . S
C2794 H2780 0.931 . S
C2794 C2793 1.385 . S
C2794 C2795 1.389 . S
C2795 C2794 1.389 . S
C2795 C2796 1.387 . S
C2796 H2781 0.930 . S
C2796 C2791 1.390 . S
C2796 C2795 1.387 . S
H2797 C2809 0.930 . S
H2798 C2811 0.930 . S
H2799 C2812 0.930 . S
H2800 C2816 0.959 . S
H2801 C2816 0.959 . S
H2802 C2816 0.961 . S
H2803 C2817 0.960 . S
H2804 C2817 0.961 . S
H2805 C2817 0.959 . S
H2806 C2820 0.929 . S
H2807 C2821 0.931 . S
H2808 C2823 0.930 . S
C2809 H2797 0.930 . S
C2809 C2810 1.399 . S
C2809 C2814 1.399 . S
C2810 C2809 1.399 . S
C2810 C2811 1.376 . S
C2811 H2798 0.930 . S
C2811 C2810 1.376 . S
C2811 C2812 1.388 . S
C2812 H2799 0.930 . S
C2812 C2811 1.388 . S
C2812 C2813 1.390 . S
C2813 C2812 1.390 . S
C2813 C2814 1.394 . S
C2813 C2819 1.465 . S
C2814 C2809 1.399 . S
C2814 C2813 1.394 . S
C2814 C2815 1.516 . S
C2815 C2814 1.516 . S
C2815 C2816 1.502 . S
C2815 C2817 1.561 . S
C2815 C2818 1.526 . S
C2816 H2800 0.959 . S
C2816 H2801 0.959 . S
C2816 H2802 0.961 . S
C2816 C2815 1.502 . S
C2817 H2803 0.960 . S
C2817 H2804 0.961 . S
C2817 H2805 0.959 . S
C2817 C2815 1.561 . S
C2818 C2815 1.526 . S
C2818 C2819 1.396 . S
C2818 C2823 1.390 . S
C2819 C2813 1.465 . S
C2819 C2818 1.396 . S
C2819 C2820 1.399 . S
C2820 H2806 0.929 . S
C2820 C2819 1.399 . S
C2820 C2821 1.385 . S
C2821 H2807 0.931 . S
C2821 C2820 1.385 . S
C2821 C2822 1.389 . S
C2822 C2821 1.389 . S
C2822 C2823 1.387 . S
C2823 H2808 0.930 . S
C2823 C2818 1.390 . S
C2823 C2822 1.387 . S
H2824 C2836 0.930 . S
H2825 C2838 0.930 . S
H2826 C2839 0.930 . S
H2827 C2843 0.959 . S
H2828 C2843 0.959 . S
H2829 C2843 0.961 . S
H2830 C2844 0.960 . S
H2831 C2844 0.961 . S
H2832 C2844 0.959 . S
H2833 C2847 0.929 . S
H2834 C2848 0.931 . S
H2835 C2850 0.930 . S
C2836 H2824 0.930 . S
C2836 C2837 1.399 . S
C2836 C2841 1.399 . S
C2837 C2836 1.399 . S
C2837 C2838 1.376 . S
C2838 H2825 0.930 . S
C2838 C2837 1.376 . S
C2838 C2839 1.388 . S
C2839 H2826 0.930 . S
C2839 C2838 1.388 . S
C2839 C2840 1.390 . S
C2840 C2839 1.390 . S
C2840 C2841 1.394 . S
C2840 C2846 1.465 . S
C2841 C2836 1.399 . S
C2841 C2840 1.394 . S
C2841 C2842 1.516 . S
C2842 C2841 1.516 . S
C2842 C2843 1.502 . S
C2842 C2844 1.561 . S
C2842 C2845 1.526 . S
C2843 H2827 0.959 . S
C2843 H2828 0.959 . S
C2843 H2829 0.961 . S
C2843 C2842 1.502 . S
C2844 H2830 0.960 . S
C2844 H2831 0.961 . S
C2844 H2832 0.959 . S
C2844 C2842 1.561 . S
C2845 C2842 1.526 . S
C2845 C2846 1.396 . S
C2845 C2850 1.390 . S
C2846 C2840 1.465 . S
C2846 C2845 1.396 . S
C2846 C2847 1.399 . S
C2847 H2833 0.929 . S
C2847 C2846 1.399 . S
C2847 C2848 1.385 . S
C2848 H2834 0.931 . S
C2848 C2847 1.385 . S
C2848 C2849 1.389 . S
C2849 C2848 1.389 . S
C2849 C2850 1.387 . S
C2850 H2835 0.930 . S
C2850 C2845 1.390 . S
C2850 C2849 1.387 . S
H2851 C2863 0.930 . S
H2852 C2865 0.930 . S
H2853 C2866 0.930 . S
H2854 C2870 0.959 . S
H2855 C2870 0.959 . S
H2856 C2870 0.961 1_556 S
H2857 C2871 0.960 . S
H2858 C2871 0.961 . S
H2859 C2871 0.959 . S
H2860 C2874 0.929 . S
H2861 C2875 0.931 . S
H2862 C2877 0.930 . S
C2863 H2851 0.930 . S
C2863 C2864 1.399 . S
C2863 C2868 1.399 . S
C2864 C2863 1.399 . S
C2864 C2865 1.376 . S
C2865 H2852 0.930 . S
C2865 C2864 1.376 . S
C2865 C2866 1.388 . S
C2866 H2853 0.930 . S
C2866 C2865 1.388 . S
C2866 C2867 1.390 . S
C2867 C2866 1.390 . S
C2867 C2868 1.394 . S
C2867 C2873 1.465 . S
C2868 C2863 1.399 . S
C2868 C2867 1.394 . S
C2868 C2869 1.516 . S
C2869 C2868 1.516 . S
C2869 C2870 1.502 . S
C2869 C2871 1.561 . S
C2869 C2872 1.526 . S
C2870 H2854 0.959 . S
C2870 H2855 0.959 . S
C2870 H2856 0.961 1_554 S
C2870 C2869 1.502 . S
C2871 H2857 0.960 . S
C2871 H2858 0.961 . S
C2871 H2859 0.959 . S
C2871 C2869 1.561 . S
C2872 C2869 1.526 . S
C2872 C2873 1.396 . S
C2872 C2877 1.390 . S
C2873 C2867 1.465 . S
C2873 C2872 1.396 . S
C2873 C2874 1.399 . S
C2874 H2860 0.929 . S
C2874 C2873 1.399 . S
C2874 C2875 1.385 . S
C2875 H2861 0.931 . S
C2875 C2874 1.385 . S
C2875 C2876 1.389 . S
C2876 C2875 1.389 . S
C2876 C2877 1.387 . S
C2877 H2862 0.930 . S
C2877 C2872 1.390 . S
C2877 C2876 1.387 . S
H2878 C2890 0.930 . S
H2879 C2892 0.930 . S
H2880 C2893 0.930 . S
H2881 C2897 0.959 . S
H2882 C2897 0.959 . S
H2883 C2897 0.961 . S
H2884 C2898 0.960 . S
H2885 C2898 0.961 . S
H2886 C2898 0.959 . S
H2887 C2901 0.929 . S
H2888 C2902 0.931 . S
H2889 C2904 0.930 . S
C2890 H2878 0.930 . S
C2890 C2891 1.399 . S
C2890 C2895 1.399 . S
C2891 C2890 1.399 . S
C2891 C2892 1.376 . S
C2892 H2879 0.930 . S
C2892 C2891 1.376 . S
C2892 C2893 1.388 . S
C2893 H2880 0.930 . S
C2893 C2892 1.388 . S
C2893 C2894 1.390 . S
C2894 C2893 1.390 . S
C2894 C2895 1.394 . S
C2894 C2900 1.465 . S
C2895 C2890 1.399 . S
C2895 C2894 1.394 . S
C2895 C2896 1.516 . S
C2896 C2895 1.516 . S
C2896 C2897 1.502 . S
C2896 C2898 1.561 . S
C2896 C2899 1.526 . S
C2897 H2881 0.959 . S
C2897 H2882 0.959 . S
C2897 H2883 0.961 . S
C2897 C2896 1.502 . S
C2898 H2884 0.960 . S
C2898 H2885 0.961 . S
C2898 H2886 0.959 . S
C2898 C2896 1.561 . S
C2899 C2896 1.526 . S
C2899 C2900 1.396 . S
C2899 C2904 1.390 . S
C2900 C2894 1.465 . S
C2900 C2899 1.396 . S
C2900 C2901 1.399 . S
C2901 H2887 0.929 . S
C2901 C2900 1.399 . S
C2901 C2902 1.385 . S
C2902 H2888 0.931 . S
C2902 C2901 1.385 . S
C2902 C2903 1.389 . S
C2903 C2902 1.389 . S
C2903 C2904 1.387 . S
C2904 H2889 0.930 . S
C2904 C2899 1.390 . S
C2904 C2903 1.387 . S
H2905 C2917 0.930 . S
H2906 C2919 0.930 . S
H2907 C2920 0.930 . S
H2908 C2924 0.959 . S
H2909 C2924 0.959 . S
H2910 C2924 0.961 . S
H2911 C2925 0.960 . S
H2912 C2925 0.961 . S
H2913 C2925 0.959 . S
H2914 C2928 0.929 . S
H2915 C2929 0.931 . S
H2916 C2931 0.930 . S
C2917 H2905 0.930 . S
C2917 C2918 1.399 . S
C2917 C2922 1.399 . S
C2918 C2917 1.399 . S
C2918 C2919 1.376 . S
C2919 H2906 0.930 . S
C2919 C2918 1.376 . S
C2919 C2920 1.388 . S
C2920 H2907 0.930 . S
C2920 C2919 1.388 . S
C2920 C2921 1.390 . S
C2921 C2920 1.390 . S
C2921 C2922 1.394 . S
C2921 C2927 1.465 . S
C2922 C2917 1.399 . S
C2922 C2921 1.394 . S
C2922 C2923 1.516 . S
C2923 C2922 1.516 . S
C2923 C2924 1.502 . S
C2923 C2925 1.561 . S
C2923 C2926 1.526 . S
C2924 H2908 0.959 . S
C2924 H2909 0.959 . S
C2924 H2910 0.961 . S
C2924 C2923 1.502 . S
C2925 H2911 0.960 . S
C2925 H2912 0.961 . S
C2925 H2913 0.959 . S
C2925 C2923 1.561 . S
C2926 C2923 1.526 . S
C2926 C2927 1.396 . S
C2926 C2931 1.390 . S
C2927 C2921 1.465 . S
C2927 C2926 1.396 . S
C2927 C2928 1.399 . S
C2928 H2914 0.929 . S
C2928 C2927 1.399 . S
C2928 C2929 1.385 . S
C2929 H2915 0.931 . S
C2929 C2928 1.385 . S
C2929 C2930 1.389 . S
C2930 C2929 1.389 . S
C2930 C2931 1.387 . S
C2931 H2916 0.930 . S
C2931 C2926 1.390 . S
C2931 C2930 1.387 . S
H2932 C2944 0.930 . S
H2933 C2946 0.930 . S
H2934 C2947 0.930 . S
H2935 C2951 0.959 . S
H2936 C2951 0.959 . S
H2937 C2951 0.961 . S
H2938 C2952 0.960 . S
H2939 C2952 0.961 . S
H2940 C2952 0.959 . S
H2941 C2955 0.929 . S
H2942 C2956 0.931 . S
H2943 C2958 0.930 . S
C2944 H2932 0.930 . S
C2944 C2945 1.399 . S
C2944 C2949 1.399 . S
C2945 C2944 1.399 . S
C2945 C2946 1.376 . S
C2946 H2933 0.930 . S
C2946 C2945 1.376 . S
C2946 C2947 1.388 . S
C2947 H2934 0.930 . S
C2947 C2946 1.388 . S
C2947 C2948 1.390 . S
C2948 C2947 1.390 . S
C2948 C2949 1.394 . S
C2948 C2954 1.465 . S
C2949 C2944 1.399 . S
C2949 C2948 1.394 . S
C2949 C2950 1.516 . S
C2950 C2949 1.516 . S
C2950 C2951 1.502 . S
C2950 C2952 1.561 . S
C2950 C2953 1.526 . S
C2951 H2935 0.959 . S
C2951 H2936 0.959 . S
C2951 H2937 0.961 . S
C2951 C2950 1.502 . S
C2952 H2938 0.960 . S
C2952 H2939 0.961 . S
C2952 H2940 0.959 . S
C2952 C2950 1.561 . S
C2953 C2950 1.526 . S
C2953 C2954 1.396 . S
C2953 C2958 1.390 . S
C2954 C2948 1.465 . S
C2954 C2953 1.396 . S
C2954 C2955 1.399 . S
C2955 H2941 0.929 . S
C2955 C2954 1.399 . S
C2955 C2956 1.385 . S
C2956 H2942 0.931 . S
C2956 C2955 1.385 . S
C2956 C2957 1.389 . S
C2957 C2956 1.389 . S
C2957 C2958 1.387 . S
C2958 H2943 0.930 . S
C2958 C2953 1.390 . S
C2958 C2957 1.387 . S
H2959 C2971 0.930 . S
H2960 C2973 0.930 . S
H2961 C2974 0.930 . S
H2962 C2978 0.959 . S
H2963 C2978 0.959 . S
H2964 C2978 0.961 1_554 S
H2965 C2979 0.960 1_554 S
H2966 C2979 0.961 . S
H2967 C2979 0.959 . S
H2968 C2982 0.929 . S
H2969 C2983 0.931 . S
H2970 C2985 0.930 . S
C2971 H2959 0.930 . S
C2971 C2972 1.399 . S
C2971 C2976 1.399 . S
C2972 C2971 1.399 . S
C2972 C2973 1.376 . S
C2973 H2960 0.930 . S
C2973 C2972 1.376 . S
C2973 C2974 1.388 . S
C2974 H2961 0.930 . S
C2974 C2973 1.388 . S
C2974 C2975 1.390 . S
C2975 C2974 1.390 . S
C2975 C2976 1.394 . S
C2975 C2981 1.465 . S
C2976 C2971 1.399 . S
C2976 C2975 1.394 . S
C2976 C2977 1.516 . S
C2977 C2976 1.516 . S
C2977 C2978 1.502 . S
C2977 C2979 1.561 . S
C2977 C2980 1.526 . S
C2978 H2962 0.959 . S
C2978 H2963 0.959 . S
C2978 H2964 0.961 1_556 S
C2978 C2977 1.502 . S
C2979 H2965 0.960 1_556 S
C2979 H2966 0.961 . S
C2979 H2967 0.959 . S
C2979 C2977 1.561 . S
C2980 C2977 1.526 . S
C2980 C2981 1.396 . S
C2980 C2985 1.390 . S
C2981 C2975 1.465 . S
C2981 C2980 1.396 . S
C2981 C2982 1.399 . S
C2982 H2968 0.929 . S
C2982 C2981 1.399 . S
C2982 C2983 1.385 . S
C2983 H2969 0.931 . S
C2983 C2982 1.385 . S
C2983 C2984 1.389 . S
C2984 C2983 1.389 . S
C2984 C2985 1.387 . S
C2985 H2970 0.930 . S
C2985 C2980 1.390 . S
C2985 C2984 1.387 . S
H2986 C2998 0.930 . S
H2987 C3000 0.930 . S
H2988 C3001 0.930 . S
H2989 C3005 0.959 . S
H2990 C3005 0.959 . S
H2991 C3005 0.961 . S
H2992 C3006 0.960 . S
H2993 C3006 0.961 . S
H2994 C3006 0.959 . S
H2995 C3009 0.929 . S
H2996 C3010 0.931 . S
H2997 C3012 0.930 . S
C2998 H2986 0.930 . S
C2998 C2999 1.399 . S
C2998 C3003 1.399 . S
C2999 C2998 1.399 . S
C2999 C3000 1.376 . S
C3000 H2987 0.930 . S
C3000 C2999 1.376 . S
C3000 C3001 1.388 . S
C3001 H2988 0.930 . S
C3001 C3000 1.388 . S
C3001 C3002 1.390 . S
C3002 C3001 1.390 . S
C3002 C3003 1.394 . S
C3002 C3008 1.465 . S
C3003 C2998 1.399 . S
C3003 C3002 1.394 . S
C3003 C3004 1.516 . S
C3004 C3003 1.516 . S
C3004 C3005 1.502 . S
C3004 C3006 1.561 . S
C3004 C3007 1.526 . S
C3005 H2989 0.959 . S
C3005 H2990 0.959 . S
C3005 H2991 0.961 . S
C3005 C3004 1.502 . S
C3006 H2992 0.960 . S
C3006 H2993 0.961 . S
C3006 H2994 0.959 . S
C3006 C3004 1.561 . S
C3007 C3004 1.526 . S
C3007 C3008 1.396 . S
C3007 C3012 1.390 . S
C3008 C3002 1.465 . S
C3008 C3007 1.396 . S
C3008 C3009 1.399 . S
C3009 H2995 0.929 . S
C3009 C3008 1.399 . S
C3009 C3010 1.385 . S
C3010 H2996 0.931 . S
C3010 C3009 1.385 . S
C3010 C3011 1.389 . S
C3011 C3010 1.389 . S
C3011 C3012 1.387 . S
C3012 H2997 0.930 . S
C3012 C3007 1.390 . S
C3012 C3011 1.387 . S
H3013 C3025 0.930 . S
H3014 C3027 0.930 . S
H3015 C3028 0.930 . S
H3016 C3032 0.959 . S
H3017 C3032 0.959 . S
H3018 C3032 0.961 . S
H3019 C3033 0.960 . S
H3020 C3033 0.961 . S
H3021 C3033 0.959 . S
H3022 C3036 0.929 . S
H3023 C3037 0.931 . S
H3024 C3039 0.930 . S
C3025 H3013 0.930 . S
C3025 C3026 1.399 . S
C3025 C3030 1.399 . S
C3026 C3025 1.399 . S
C3026 C3027 1.376 . S
C3027 H3014 0.930 . S
C3027 C3026 1.376 . S
C3027 C3028 1.388 . S
C3028 H3015 0.930 . S
C3028 C3027 1.388 . S
C3028 C3029 1.390 . S
C3029 C3028 1.390 . S
C3029 C3030 1.394 . S
C3029 C3035 1.465 . S
C3030 C3025 1.399 . S
C3030 C3029 1.394 . S
C3030 C3031 1.516 . S
C3031 C3030 1.516 . S
C3031 C3032 1.502 . S
C3031 C3033 1.561 . S
C3031 C3034 1.526 . S
C3032 H3016 0.959 . S
C3032 H3017 0.959 . S
C3032 H3018 0.961 . S
C3032 C3031 1.502 . S
C3033 H3019 0.960 . S
C3033 H3020 0.961 . S
C3033 H3021 0.959 . S
C3033 C3031 1.561 . S
C3034 C3031 1.526 . S
C3034 C3035 1.396 . S
C3034 C3039 1.390 . S
C3035 C3029 1.465 . S
C3035 C3034 1.396 . S
C3035 C3036 1.399 . S
C3036 H3022 0.929 . S
C3036 C3035 1.399 . S
C3036 C3037 1.385 . S
C3037 H3023 0.931 . S
C3037 C3036 1.385 . S
C3037 C3038 1.389 . S
C3038 C3037 1.389 . S
C3038 C3039 1.387 . S
C3039 H3024 0.930 . S
C3039 C3034 1.390 . S
C3039 C3038 1.387 . S
H3040 C3052 0.930 . S
H3041 C3054 0.930 . S
H3042 C3055 0.930 . S
H3043 C3059 0.959 . S
H3044 C3059 0.959 . S
H3045 C3059 0.961 . S
H3046 C3060 0.960 . S
H3047 C3060 0.961 . S
H3048 C3060 0.959 . S
H3049 C3063 0.929 . S
H3050 C3064 0.931 . S
H3051 C3066 0.930 . S
C3052 H3040 0.930 . S
C3052 C3053 1.399 . S
C3052 C3057 1.399 . S
C3053 C3052 1.399 . S
C3053 C3054 1.376 . S
C3054 H3041 0.930 . S
C3054 C3053 1.376 . S
C3054 C3055 1.388 . S
C3055 H3042 0.930 . S
C3055 C3054 1.388 . S
C3055 C3056 1.390 . S
C3056 C3055 1.390 . S
C3056 C3057 1.394 . S
C3056 C3062 1.465 . S
C3057 C3052 1.399 . S
C3057 C3056 1.394 . S
C3057 C3058 1.516 . S
C3058 C3057 1.516 . S
C3058 C3059 1.502 . S
C3058 C3060 1.561 . S
C3058 C3061 1.526 . S
C3059 H3043 0.959 . S
C3059 H3044 0.959 . S
C3059 H3045 0.961 . S
C3059 C3058 1.502 . S
C3060 H3046 0.960 . S
C3060 H3047 0.961 . S
C3060 H3048 0.959 . S
C3060 C3058 1.561 . S
C3061 C3058 1.526 . S
C3061 C3062 1.396 . S
C3061 C3066 1.390 . S
C3062 C3056 1.465 . S
C3062 C3061 1.396 . S
C3062 C3063 1.399 . S
C3063 H3049 0.929 . S
C3063 C3062 1.399 . S
C3063 C3064 1.385 . S
C3064 H3050 0.931 . S
C3064 C3063 1.385 . S
C3064 C3065 1.389 . S
C3065 C3064 1.389 . S
C3065 C3066 1.387 . S
C3066 H3051 0.930 . S
C3066 C3061 1.390 . S
C3066 C3065 1.387 . S
H3067 C3079 0.930 . S
H3068 C3081 0.930 . S
H3069 C3082 0.930 . S
H3070 C3086 0.959 . S
H3071 C3086 0.959 . S
H3072 C3086 0.961 . S
H3073 C3087 0.960 . S
H3074 C3087 0.961 . S
H3075 C3087 0.959 . S
H3076 C3090 0.929 . S
H3077 C3091 0.931 . S
H3078 C3093 0.930 . S
C3079 H3067 0.930 . S
C3079 C3080 1.399 . S
C3079 C3084 1.399 . S
C3080 C3079 1.399 . S
C3080 C3081 1.376 . S
C3081 H3068 0.930 . S
C3081 C3080 1.376 . S
C3081 C3082 1.388 . S
C3082 H3069 0.930 . S
C3082 C3081 1.388 . S
C3082 C3083 1.390 . S
C3083 C3082 1.390 . S
C3083 C3084 1.394 . S
C3083 C3089 1.465 . S
C3084 C3079 1.399 . S
C3084 C3083 1.394 . S
C3084 C3085 1.516 . S
C3085 C3084 1.516 . S
C3085 C3086 1.502 . S
C3085 C3087 1.561 . S
C3085 C3088 1.526 . S
C3086 H3070 0.959 . S
C3086 H3071 0.959 . S
C3086 H3072 0.961 . S
C3086 C3085 1.502 . S
C3087 H3073 0.960 . S
C3087 H3074 0.961 . S
C3087 H3075 0.959 . S
C3087 C3085 1.561 . S
C3088 C3085 1.526 . S
C3088 C3089 1.396 . S
C3088 C3093 1.390 . S
C3089 C3083 1.465 . S
C3089 C3088 1.396 . S
C3089 C3090 1.399 . S
C3090 H3076 0.929 . S
C3090 C3089 1.399 . S
C3090 C3091 1.385 . S
C3091 H3077 0.931 . S
C3091 C3090 1.385 . S
C3091 C3092 1.389 . S
C3092 C3091 1.389 . S
C3092 C3093 1.387 . S
C3093 H3078 0.930 . S
C3093 C3088 1.390 . S
C3093 C3092 1.387 . S
H3094 C3106 0.930 . S
H3095 C3108 0.930 1_565 S
H3096 C3109 0.930 . S
H3097 C3113 0.959 . S
H3098 C3113 0.959 . S
H3099 C3113 0.961 . S
H3100 C3114 0.960 . S
H3101 C3114 0.961 . S
H3102 C3114 0.959 . S
H3103 C3117 0.929 . S
H3104 C3118 0.931 . S
H3105 C3120 0.930 . S
C3106 H3094 0.930 . S
C3106 C3107 1.399 . S
C3106 C3111 1.399 . S
C3107 C3106 1.399 . S
C3107 C3108 1.376 . S
C3108 H3095 0.930 1_545 S
C3108 C3107 1.376 . S
C3108 C3109 1.388 . S
C3109 H3096 0.930 . S
C3109 C3108 1.388 . S
C3109 C3110 1.390 . S
C3110 C3109 1.390 . S
C3110 C3111 1.394 . S
C3110 C3116 1.465 . S
C3111 C3106 1.399 . S
C3111 C3110 1.394 . S
C3111 C3112 1.516 . S
C3112 C3111 1.516 . S
C3112 C3113 1.502 . S
C3112 C3114 1.561 . S
C3112 C3115 1.526 . S
C3113 H3097 0.959 . S
C3113 H3098 0.959 . S
C3113 H3099 0.961 . S
C3113 C3112 1.502 . S
C3114 H3100 0.960 . S
C3114 H3101 0.961 . S
C3114 H3102 0.959 . S
C3114 C3112 1.561 . S
C3115 C3112 1.526 . S
C3115 C3116 1.396 . S
C3115 C3120 1.390 . S
C3116 C3110 1.465 . S
C3116 C3115 1.396 . S
C3116 C3117 1.399 . S
C3117 H3103 0.929 . S
C3117 C3116 1.399 . S
C3117 C3118 1.385 . S
C3118 H3104 0.931 . S
C3118 C3117 1.385 . S
C3118 C3119 1.389 . S
C3119 C3118 1.389 . S
C3119 C3120 1.387 . S
C3120 H3105 0.930 . S
C3120 C3115 1.390 . S
C3120 C3119 1.387 . S
H3121 C3133 0.930 . S
H3122 C3135 0.930 . S
H3123 C3136 0.930 . S
H3124 C3140 0.959 . S
H3125 C3140 0.959 . S
H3126 C3140 0.961 . S
H3127 C3141 0.960 . S
H3128 C3141 0.961 . S
H3129 C3141 0.959 . S
H3130 C3144 0.929 . S
H3131 C3145 0.931 . S
H3132 C3147 0.930 . S
C3133 H3121 0.930 . S
C3133 C3134 1.399 . S
C3133 C3138 1.399 . S
C3134 C3133 1.399 . S
C3134 C3135 1.376 . S
C3135 H3122 0.930 . S
C3135 C3134 1.376 . S
C3135 C3136 1.388 . S
C3136 H3123 0.930 . S
C3136 C3135 1.388 . S
C3136 C3137 1.390 . S
C3137 C3136 1.390 . S
C3137 C3138 1.394 . S
C3137 C3143 1.465 . S
C3138 C3133 1.399 . S
C3138 C3137 1.394 . S
C3138 C3139 1.516 . S
C3139 C3138 1.516 . S
C3139 C3140 1.502 . S
C3139 C3141 1.561 . S
C3139 C3142 1.526 . S
C3140 H3124 0.959 . S
C3140 H3125 0.959 . S
C3140 H3126 0.961 . S
C3140 C3139 1.502 . S
C3141 H3127 0.960 . S
C3141 H3128 0.961 . S
C3141 H3129 0.959 . S
C3141 C3139 1.561 . S
C3142 C3139 1.526 . S
C3142 C3143 1.396 . S
C3142 C3147 1.390 . S
C3143 C3137 1.465 . S
C3143 C3142 1.396 . S
C3143 C3144 1.399 . S
C3144 H3130 0.929 . S
C3144 C3143 1.399 . S
C3144 C3145 1.385 . S
C3145 H3131 0.931 . S
C3145 C3144 1.385 . S
C3145 C3146 1.389 . S
C3146 C3145 1.389 . S
C3146 C3147 1.387 . S
C3147 H3132 0.930 . S
C3147 C3142 1.390 . S
C3147 C3146 1.387 . S
H3148 C3160 0.930 . S
H3149 C3162 0.930 . S
H3150 C3163 0.930 . S
H3151 C3167 0.959 . S
H3152 C3167 0.959 . S
H3153 C3167 0.961 . S
H3154 C3168 0.960 . S
H3155 C3168 0.961 . S
H3156 C3168 0.959 . S
H3157 C3171 0.929 . S
H3158 C3172 0.931 . S
H3159 C3174 0.930 . S
C3160 H3148 0.930 . S
C3160 C3161 1.399 . S
C3160 C3165 1.399 . S
C3161 C3160 1.399 . S
C3161 C3162 1.376 . S
C3162 H3149 0.930 . S
C3162 C3161 1.376 . S
C3162 C3163 1.388 . S
C3163 H3150 0.930 . S
C3163 C3162 1.388 . S
C3163 C3164 1.390 . S
C3164 C3163 1.390 . S
C3164 C3165 1.394 . S
C3164 C3170 1.465 . S
C3165 C3160 1.399 . S
C3165 C3164 1.394 . S
C3165 C3166 1.516 . S
C3166 C3165 1.516 . S
C3166 C3167 1.502 . S
C3166 C3168 1.561 . S
C3166 C3169 1.526 . S
C3167 H3151 0.959 . S
C3167 H3152 0.959 . S
C3167 H3153 0.961 . S
C3167 C3166 1.502 . S
C3168 H3154 0.960 . S
C3168 H3155 0.961 . S
C3168 H3156 0.959 . S
C3168 C3166 1.561 . S
C3169 C3166 1.526 . S
C3169 C3170 1.396 . S
C3169 C3174 1.390 . S
C3170 C3164 1.465 . S
C3170 C3169 1.396 . S
C3170 C3171 1.399 . S
C3171 H3157 0.929 . S
C3171 C3170 1.399 . S
C3171 C3172 1.385 . S
C3172 H3158 0.931 . S
C3172 C3171 1.385 . S
C3172 C3173 1.389 . S
C3173 C3172 1.389 . S
C3173 C3174 1.387 . S
C3174 H3159 0.930 . S
C3174 C3169 1.390 . S
C3174 C3173 1.387 . S
H3175 C3187 0.930 . S
H3176 C3189 0.930 . S
H3177 C3190 0.930 . S
H3178 C3194 0.959 . S
H3179 C3194 0.959 . S
H3180 C3194 0.961 . S
H3181 C3195 0.960 . S
H3182 C3195 0.961 . S
H3183 C3195 0.959 . S
H3184 C3198 0.929 . S
H3185 C3199 0.931 . S
H3186 C3201 0.930 . S
C3187 H3175 0.930 . S
C3187 C3188 1.399 . S
C3187 C3192 1.399 . S
C3188 C3187 1.399 . S
C3188 C3189 1.376 . S
C3189 H3176 0.930 . S
C3189 C3188 1.376 . S
C3189 C3190 1.388 . S
C3190 H3177 0.930 . S
C3190 C3189 1.388 . S
C3190 C3191 1.390 . S
C3191 C3190 1.390 . S
C3191 C3192 1.394 . S
C3191 C3197 1.465 . S
C3192 C3187 1.399 . S
C3192 C3191 1.394 . S
C3192 C3193 1.516 . S
C3193 C3192 1.516 . S
C3193 C3194 1.502 . S
C3193 C3195 1.561 . S
C3193 C3196 1.526 . S
C3194 H3178 0.959 . S
C3194 H3179 0.959 . S
C3194 H3180 0.961 . S
C3194 C3193 1.502 . S
C3195 H3181 0.960 . S
C3195 H3182 0.961 . S
C3195 H3183 0.959 . S
C3195 C3193 1.561 . S
C3196 C3193 1.526 . S
C3196 C3197 1.396 . S
C3196 C3201 1.390 . S
C3197 C3191 1.465 . S
C3197 C3196 1.396 . S
C3197 C3198 1.399 . S
C3198 H3184 0.929 . S
C3198 C3197 1.399 . S
C3198 C3199 1.385 . S
C3199 H3185 0.931 . S
C3199 C3198 1.385 . S
C3199 C3200 1.389 . S
C3200 C3199 1.389 . S
C3200 C3201 1.387 . S
C3201 H3186 0.930 . S
C3201 C3196 1.390 . S
C3201 C3200 1.387 . S
H3202 C3214 0.930 . S
H3203 C3216 0.930 . S
H3204 C3217 0.930 . S
H3205 C3221 0.959 . S
H3206 C3221 0.959 . S
H3207 C3221 0.961 1_545 S
H3208 C3222 0.960 . S
H3209 C3222 0.961 . S
H3210 C3222 0.959 . S
H3211 C3225 0.929 . S
H3212 C3226 0.931 . S
H3213 C3228 0.930 . S
C3214 H3202 0.930 . S
C3214 C3215 1.399 . S
C3214 C3219 1.399 . S
C3215 C3214 1.399 . S
C3215 C3216 1.376 . S
C3216 H3203 0.930 . S
C3216 C3215 1.376 . S
C3216 C3217 1.388 . S
C3217 H3204 0.930 . S
C3217 C3216 1.388 . S
C3217 C3218 1.390 . S
C3218 C3217 1.390 . S
C3218 C3219 1.394 . S
C3218 C3224 1.465 . S
C3219 C3214 1.399 . S
C3219 C3218 1.394 . S
C3219 C3220 1.516 . S
C3220 C3219 1.516 . S
C3220 C3221 1.502 . S
C3220 C3222 1.561 . S
C3220 C3223 1.526 . S
C3221 H3205 0.959 . S
C3221 H3206 0.959 . S
C3221 H3207 0.961 1_565 S
C3221 C3220 1.502 . S
C3222 H3208 0.960 . S
C3222 H3209 0.961 . S
C3222 H3210 0.959 . S
C3222 C3220 1.561 . S
C3223 C3220 1.526 . S
C3223 C3224 1.396 . S
C3223 C3228 1.390 . S
C3224 C3218 1.465 . S
C3224 C3223 1.396 . S
C3224 C3225 1.399 . S
C3225 H3211 0.929 . S
C3225 C3224 1.399 . S
C3225 C3226 1.385 . S
C3226 H3212 0.931 . S
C3226 C3225 1.385 . S
C3226 C3227 1.389 . S
C3227 C3226 1.389 . S
C3227 C3228 1.387 . S
C3228 H3213 0.930 . S
C3228 C3223 1.390 . S
C3228 C3227 1.387 . S
H3229 C3241 0.930 . S
H3230 C3243 0.930 . S
H3231 C3244 0.930 . S
H3232 C3248 0.959 . S
H3233 C3248 0.959 . S
H3234 C3248 0.961 . S
H3235 C3249 0.960 . S
H3236 C3249 0.961 . S
H3237 C3249 0.959 . S
H3238 C3252 0.929 . S
H3239 C3253 0.931 . S
H3240 C3255 0.930 . S
C3241 H3229 0.930 . S
C3241 C3242 1.399 . S
C3241 C3246 1.399 . S
C3242 C3241 1.399 . S
C3242 C3243 1.376 . S
C3243 H3230 0.930 . S
C3243 C3242 1.376 . S
C3243 C3244 1.388 . S
C3244 H3231 0.930 . S
C3244 C3243 1.388 . S
C3244 C3245 1.390 . S
C3245 C3244 1.390 . S
C3245 C3246 1.394 . S
C3245 C3251 1.465 1_455 S
C3246 C3241 1.399 . S
C3246 C3245 1.394 . S
C3246 C3247 1.516 . S
C3247 C3246 1.516 . S
C3247 C3248 1.502 . S
C3247 C3249 1.561 . S
C3247 C3250 1.508 1_455 S
C3248 H3232 0.959 . S
C3248 H3233 0.959 . S
C3248 H3234 0.961 . S
C3248 C3247 1.502 . S
C3249 H3235 0.960 . S
C3249 H3236 0.961 . S
C3249 H3237 0.959 . S
C3249 C3247 1.561 . S
C3250 C3247 1.508 1_655 S
C3250 C3251 1.400 . S
C3250 C3255 1.403 . S
C3251 C3245 1.465 1_655 S
C3251 C3250 1.400 . S
C3251 C3252 1.399 . S
C3252 H3238 0.929 . S
C3252 C3251 1.399 . S
C3252 C3253 1.385 . S
C3253 H3239 0.931 . S
C3253 C3252 1.385 . S
C3253 C3254 1.389 . S
C3254 C3253 1.389 . S
C3254 C3255 1.387 . S
C3255 H3240 0.930 . S
C3255 C3250 1.403 . S
C3255 C3254 1.387 . S
C689 C330 1.199 . S
C677 C10 1.234 . S
C704 C16 1.270 . S
C716 C342 1.202 . S
C743 C377 1.265 . S
C731 C30 1.305 . S
C770 C386 1.278 . S
C758 C42 1.241 . S
C797 C341 1.232 . S
C785 C57 1.286 . S
C812 C69 1.233 . S
C824 C366 1.255 . S
C851 C385 1.264 . S
C839 C83 1.284 . S
C866 C101 1.284 . S
C878 C327 1.301 . S
C893 C108 1.282 . S
C905 C320 1.251 . S
C932 C344 1.237 . S
C920 C120 1.259 . S
C959 C363 1.227 . S
C947 C133 1.316 . S
C986 C388 1.255 . S
C974 C147 1.277 . S
C1013 C349 1.188 . S
C1001 C114 1.281 . S
C1040 C374 1.271 . S
C1028 C122 1.259 . S
C1055 C135 1.279 . S
C1067 C393 1.208 . S
C1094 C333 1.258 . S
C1082 C153 1.281 . S
C1109 C160 1.244 . S
C1121 C322 1.278 . S
C1136 C174 1.288 . S
C1148 C421 1.205 . S
C1175 C437 1.288 . S
C1163 C187 1.260 . S
C1202 C451 1.205 . S
C1190 C205 1.293 . S
C1217 C212 1.259 . S
C1229 C319 1.237 . S
C1244 C226 1.279 . S
C1256 C371 1.301 . S
C1283 C454 1.255 . S
C1271 C185 1.288 . S
C1310 C418 1.232 . S
C1298 C244 1.301 . S
C1337 C474 1.182 . S
C1325 C23 1.203 . S
C1364 C498 1.245 . S
C1352 C5 1.241 . S
C1379 C49 1.258 . S
C1391 C531 1.219 . S
C1406 C29 1.272 . S
C1418 C539 1.228 . S
C1433 C94 1.290 . S
C1445 C509 1.285 . S
C1460 C88 1.260 . S
C1472 C520 1.248 . S
C1499 C540 1.237 . S
C1487 C70 1.257 . S
C1514 C62 1.274 . S
C1526 C473 1.269 . S
C1541 C257 1.206 . S
C1553 C476 1.207 . S
C1580 C506 1.222 . S
C1568 C200 1.229 . S
C1607 C517 1.207 . S
C1595 C211 1.255 . S
C1634 C547 1.275 . S
C1622 C179 1.288 . S
C1661 C495 1.265 . S
C1649 C251 1.268 . S
C1688 C528 1.236 . S
C1676 C198 1.247 . S
C1715 C542 1.221 . S
C1703 C213 1.235 . S
C1730 C173 1.283 . S
C1742 C481 1.278 . S
C1769 C484 1.234 . S
C1757 C264 1.229 . S
C1784 C148 1.257 . S
C1796 C572 1.262 . S
C1823 C584 1.266 . S
C1811 C278 1.259 . S
C1838 C127 1.255 . S
C1850 C605 1.209 . S
C1877 C487 1.285 . S
C1865 C140 1.300 . S
C1904 C525 1.266 . S
C1892 C289 1.272 . S
C1931 C608 1.216 . S
C1919 C276 1.211 . S
C1946 C303 1.268 . S
C1958 C575 1.264 . S
C1973 C36 1.237 . S
C1985 C630 1.280 . S
C2000 C44 1.267 . S
C2012 C408 1.201 . S
C2039 C432 1.251 . S
C2027 C4 1.240 . S
C2054 C18 1.268 . S
C2066 C462 1.221 . S
C2081 C81 1.252 . S
C2093 C407 1.255 . S
C2108 C95 1.311 . S
C2120 C443 1.217 . S
C2147 C459 1.271 . S
C2135 C55 1.312 . S
C2174 C641 1.282 . S
C2162 C75 1.269 . S
C2201 C638 1.203 . S
C2189 C277 1.271 . S
C2228 C410 1.237 . S
C2216 C263 1.249 . S
C2255 C440 1.289 . S
C2243 C302 1.253 . S
C2270 C290 1.278 . S
C2282 C452 1.239 . S
C2309 C415 1.186 . S
C2297 C283 1.288 . S
C2324 C265 1.241 . S
C2336 C429 1.217 . S
C2363 C465 1.250 . S
C2351 C304 1.295 . S
C2378 C296 1.306 . S
C2390 C627 1.262 . S
C2417 C628 1.283 . S
C2405 C199 1.251 . S
C2432 C224 1.274 . S
C2444 C355 1.205 . S
C2471 C364 1.265 . S
C2459 C252 1.231 . S
C2486 C166 1.275 . S
C2498 C399 1.178 . S
C2525 C635 1.273 . S
C2513 C238 1.244 . S
C2552 C430 1.280 . S
C2540 C172 1.249 . S
C2579 C396 1.254 . S
C2567 C250 1.271 . S
C2606 C352 1.222 . S
C2594 C218 1.290 . S
C2621 C43 1.271 . S
C2633 C649 1.242 . S
C2648 C31 1.258 . S
C2660 C561 1.242 . S
C2675 C17 1.241 . S
C2687 C597 1.227 . S
C2714 C616 1.232 . S
C2702 C3 1.244 . S
C2741 C562 1.227 . S
C2729 C68 1.245 . S
C2756 C56 1.232 . S
C2768 C586 1.204 . S
C2795 C613 1.208 . S
C2783 C96 1.262 . S
C2810 C82 1.238 . S
C2822 C650 1.208 . S
C2849 C657 1.207 . S
C2837 C192 1.237 . S
C2864 C161 1.248 . S
C2876 C569 1.224 . S
C2891 C237 1.286 . S
C2903 C583 1.276 . S
C2930 C606 1.236 . S
C2918 C225 1.252 . S
C2957 C564 1.244 . S
C2945 C186 1.251 . S
C2972 C159 1.225 . S
C2984 C594 1.216 . S
C3011 C619 1.200 . S
C2999 C239 1.249 . S
C3038 C652 1.227 . S
C3026 C231 1.253 . S
C3065 C663 1.244 . S
C3053 C121 1.249 . S
C3092 C503 1.296 . S
C3080 C291 1.302 . S
C3107 C109 1.255 . S
C3119 C518 1.219 . S
C3134 C270 1.224 . S
C3146 C550 1.216 . S
C3173 C660 1.223 . S
C3161 C309 1.255 . S
C3200 C591 1.248 . S
C3188 C146 1.259 . S
C3227 C553 1.220 . S
C3215 C107 1.248 . S
C3254 C496 1.190 . S
C3242 C134 1.215 . S
