# Generated by pormake.
# Topology pyr, (3,6)-cn, num edge types: 1
# Building blocks:
#     Node 0, Type 0, BuildingBlock: WUSLED_clean_sbu_0, # of connection points: 3
#     Node 1, Type 0, BuildingBlock: WUSLED_clean_sbu_0, # of connection points: 3
#     Node 2, Type 0, BuildingBlock: WUSLED_clean_sbu_0, # of connection points: 3
#     Node 3, Type 0, BuildingBlock: WUSLED_clean_sbu_0, # of connection points: 3
#     Node 4, Type 0, BuildingBlock: WUSLED_clean_sbu_0, # of connection points: 3
#     Node 5, Type 0, BuildingBlock: WUSLED_clean_sbu_0, # of connection points: 3
#     Node 6, Type 0, BuildingBlock: WUSLED_clean_sbu_0, # of connection points: 3
#     Node 7, Type 0, BuildingBlock: WUSLED_clean_sbu_0, # of connection points: 3
#     Node 8, Type 1, BuildingBlock: PAMTOO_clean_sbu_0, # of connection points: 6
#     Node 9, Type 1, BuildingBlock: PAMTOO_clean_sbu_0, # of connection points: 6
#     Node 10, Type 1, BuildingBlock: PAMTOO_clean_sbu_0, # of connection points: 6
#     Node 11, Type 1, BuildingBlock: PAMTOO_clean_sbu_0, # of connection points: 6
#     Edge 12, Type (0, 1), BuildingBlock: XIVTED_clean_linker_0, # of connection points: 2
#     Edge 13, Type (0, 1), BuildingBlock: XIVTED_clean_linker_0, # of connection points: 2
#     Edge 14, Type (0, 1), BuildingBlock: XIVTED_clean_linker_0, # of connection points: 2
#     Edge 15, Type (0, 1), BuildingBlock: XIVTED_clean_linker_0, # of connection points: 2
#     Edge 16, Type (0, 1), BuildingBlock: XIVTED_clean_linker_0, # of connection points: 2
#     Edge 17, Type (0, 1), BuildingBlock: XIVTED_clean_linker_0, # of connection points: 2
#     Edge 18, Type (0, 1), BuildingBlock: XIVTED_clean_linker_0, # of connection points: 2
#     Edge 19, Type (0, 1), BuildingBlock: XIVTED_clean_linker_0, # of connection points: 2
#     Edge 20, Type (0, 1), BuildingBlock: XIVTED_clean_linker_0, # of connection points: 2
#     Edge 21, Type (0, 1), BuildingBlock: XIVTED_clean_linker_0, # of connection points: 2
#     Edge 22, Type (0, 1), BuildingBlock: XIVTED_clean_linker_0, # of connection points: 2
#     Edge 23, Type (0, 1), BuildingBlock: XIVTED_clean_linker_0, # of connection points: 2
#     Edge 24, Type (0, 1), BuildingBlock: XIVTED_clean_linker_0, # of connection points: 2
#     Edge 25, Type (0, 1), BuildingBlock: XIVTED_clean_linker_0, # of connection points: 2
#     Edge 26, Type (0, 1), BuildingBlock: XIVTED_clean_linker_0, # of connection points: 2
#     Edge 27, Type (0, 1), BuildingBlock: XIVTED_clean_linker_0, # of connection points: 2
#     Edge 28, Type (0, 1), BuildingBlock: XIVTED_clean_linker_0, # of connection points: 2
#     Edge 29, Type (0, 1), BuildingBlock: XIVTED_clean_linker_0, # of connection points: 2
#     Edge 30, Type (0, 1), BuildingBlock: XIVTED_clean_linker_0, # of connection points: 2
#     Edge 31, Type (0, 1), BuildingBlock: XIVTED_clean_linker_0, # of connection points: 2
#     Edge 32, Type (0, 1), BuildingBlock: XIVTED_clean_linker_0, # of connection points: 2
#     Edge 33, Type (0, 1), BuildingBlock: XIVTED_clean_linker_0, # of connection points: 2
#     Edge 34, Type (0, 1), BuildingBlock: XIVTED_clean_linker_0, # of connection points: 2
#     Edge 35, Type (0, 1), BuildingBlock: XIVTED_clean_linker_0, # of connection points: 2
# Relax obj value: 0.080
# Max RMSD: 0.154
# Mean RMSD: 0.063
data_MOF--net-pyr--node1-WUSLED_clean_sbu_0--node2-PAMTOO_clean_sbu_0--edge1-XIVTED_clean_linker_0
_symmetry_space_group_name_H-M    P1
_symmetry_Int_Tables_number       1
_symmetry_cell_setting            triclinic
loop_
_symmetry_equiv_pos_as_xyz
'x, y, z'
_cell_length_a     47.779749
_cell_length_b     50.693632
_cell_length_c     51.655398
_cell_angle_alpha  89.850899
_cell_angle_beta   90.089466
_cell_angle_gamma 101.91447
loop_
_atom_site_label
_atom_site_type_symbol
_atom_site_fract_x
_atom_site_fract_y
_atom_site_fract_z
_atom_type_partial_charge
C0 C 0.30784 0.31488 0.15891 0.0
C1 C 0.2866 0.31738 0.17701 0.0
C2 C 0.26764 0.34662 0.14737 0.0
C3 C 0.26664 0.33321 0.1713 0.0
C4 C 0.28981 0.34501 0.12991 0.0
C5 C 0.3097 0.32919 0.13563 0.0
U6 U 0.32688 0.26242 0.20187 0.0
O7 O 0.3316 0.221 0.19477 0.0
O8 O 0.36721 0.25027 0.21198 0.0
C9 C 0.3583 0.22582 0.20275 0.0
C10 C 0.32617 0.29543 0.16322 0.0
C11 C 0.37814 0.21561 0.18589 0.0
C12 C 0.39639 0.20874 0.14322 0.0
C13 C 0.37985 0.22153 0.15932 0.0
C14 C 0.41024 0.18494 0.18035 0.0
C15 C 0.4113 0.18991 0.15355 0.0
C16 C 0.39382 0.19773 0.19635 0.0
C17 C 0.2837 0.24968 0.26362 0.0
C18 C 0.28269 0.20993 0.28985 0.0
C19 C 0.25259 0.24151 0.30072 0.0
C20 C 0.26364 0.25761 0.27984 0.0
C21 C 0.26164 0.21731 0.30564 0.0
C22 C 0.29364 0.22605 0.26884 0.0
C23 C 0.29199 0.26503 0.24013 0.0
O24 O 0.3444 0.30099 0.18254 0.0
O25 O 0.31233 0.27018 0.16287 0.0
O26 O 0.28407 0.25163 0.21872 0.0
O27 O 0.31837 0.27909 0.23959 0.0
H28 H 0.28481 0.30628 0.19509 0.0
H29 H 0.24968 0.33389 0.18502 0.0
H30 H 0.29133 0.35545 0.11149 0.0
H31 H 0.32595 0.32742 0.12151 0.0
H32 H 0.39705 0.21315 0.12267 0.0
H33 H 0.36777 0.23535 0.15098 0.0
H34 H 0.42101 0.1702 0.18887 0.0
H35 H 0.3925 0.19287 0.21682 0.0
H36 H 0.29016 0.19147 0.2934 0.0
H37 H 0.23599 0.24742 0.31222 0.0
H38 H 0.25571 0.27573 0.27578 0.0
H39 H 0.30914 0.21973 0.25625 0.0
C40 C 0.15049 0.80834 0.6637 0.0
C41 C 0.1541 0.83354 0.67595 0.0
C42 C 0.11931 0.84648 0.64676 0.0
C43 C 0.13864 0.85253 0.6675 0.0
C44 C 0.1145 0.82056 0.63577 0.0
C45 C 0.13008 0.80169 0.64412 0.0
U46 U 0.20348 0.78728 0.70884 0.0
O47 O 0.213 0.74794 0.71958 0.0
O48 O 0.24619 0.77941 0.70188 0.0
C49 C 0.23941 0.75469 0.71096 0.0
C50 C 0.16946 0.78982 0.66976 0.0
C51 C 0.25043 0.73434 0.69637 0.0
C52 C 0.26116 0.71426 0.65595 0.0
C53 C 0.24689 0.73144 0.66949 0.0
C54 C 0.28178 0.70248 0.6962 0.0
C55 C 0.27921 0.69997 0.66915 0.0
C56 C 0.26745 0.71942 0.70962 0.0
C57 C 0.22302 0.82574 0.76992 0.0
C58 C 0.2653 0.81889 0.79267 0.0
C59 C 0.24057 0.85373 0.8066 0.0
C60 C 0.22048 0.84649 0.78696 0.0
C61 C 0.26327 0.84027 0.80913 0.0
C62 C 0.2451 0.81152 0.77314 0.0
C63 C 0.20459 0.82082 0.74724 0.0
O64 O 0.19683 0.80109 0.66956 0.0
O65 O 0.16185 0.77359 0.68958 0.0
O66 O 0.18708 0.79714 0.74658 0.0
O67 O 0.21817 0.82751 0.72534 0.0
H68 H 0.16973 0.83894 0.69128 0.0
H69 H 0.14294 0.87235 0.67626 0.0
H70 H 0.09932 0.81513 0.62011 0.0
H71 H 0.1269 0.78225 0.63465 0.0
H72 H 0.25849 0.71256 0.63516 0.0
H73 H 0.23384 0.74298 0.65897 0.0
H74 H 0.29592 0.69232 0.70698 0.0
H75 H 0.27062 0.72171 0.73035 0.0
H76 H 0.28303 0.80867 0.79434 0.0
H77 H 0.2392 0.8706 0.81904 0.0
H78 H 0.20368 0.85773 0.78443 0.0
H79 H 0.24738 0.79556 0.75989 0.0
C80 C 0.62487 0.39764 0.78177 0.0
C81 C 0.64364 0.42057 0.77189 0.0
C82 C 0.60951 0.42498 0.73705 0.0
C83 C 0.63597 0.43417 0.74982 0.0
C84 C 0.59081 0.40236 0.74762 0.0
C85 C 0.5984 0.38899 0.76946 0.0
U86 U 0.66035 0.36886 0.84454 0.0
O87 O 0.63389 0.34573 0.87551 0.0
O88 O 0.65878 0.32503 0.84886 0.0
C89 C 0.64104 0.3231 0.86853 0.0
C90 C 0.63162 0.38116 0.80403 0.0
C91 C 0.63014 0.29724 0.88212 0.0
C92 C 0.60074 0.25179 0.88267 0.0
C93 C 0.61102 0.2763 0.86981 0.0
C94 C 0.62903 0.26858 0.92025 0.0
C95 C 0.60974 0.24734 0.90808 0.0
C96 C 0.63886 0.29325 0.90751 0.0
C97 C 0.73133 0.40883 0.87929 0.0
C98 C 0.76676 0.39806 0.90966 0.0
C99 C 0.76948 0.44416 0.896 0.0
C100 C 0.74509 0.43599 0.88074 0.0
C101 C 0.78119 0.42538 0.91032 0.0
C102 C 0.74208 0.38981 0.89417 0.0
C103 C 0.70718 0.40187 0.86069 0.0
O104 O 0.65291 0.36849 0.80223 0.0
O105 O 0.62666 0.38806 0.82783 0.0
O106 O 0.68141 0.40328 0.86863 0.0
O107 O 0.70733 0.38244 0.84391 0.0
H108 H 0.66424 0.42774 0.78097 0.0
H109 H 0.65107 0.45143 0.74238 0.0
H110 H 0.57001 0.39484 0.73905 0.0
H111 H 0.58347 0.37145 0.77666 0.0
H112 H 0.58547 0.23648 0.87264 0.0
H113 H 0.60379 0.27899 0.85027 0.0
H114 H 0.63706 0.26612 0.93951 0.0
H115 H 0.6537 0.30911 0.91737 0.0
H116 H 0.77502 0.38295 0.92041 0.0
H117 H 0.77924 0.46542 0.89639 0.0
H118 H 0.73723 0.45106 0.86955 0.0
H119 H 0.73182 0.36867 0.89344 0.0
C120 C 0.80669 0.64335 0.37882 0.0
C121 C 0.80372 0.65643 0.40234 0.0
C122 C 0.75693 0.62631 0.41004 0.0
C123 C 0.77904 0.648 0.41779 0.0
C124 C 0.7607 0.6132 0.38666 0.0
C125 C 0.78497 0.62172 0.37132 0.0
U126 U 0.87962 0.68047 0.34329 0.0
O127 O 0.90958 0.65756 0.32567 0.0
O128 O 0.88481 0.67962 0.30064 0.0
C129 C 0.90457 0.66508 0.30205 0.0
C130 C 0.83179 0.65059 0.36131 0.0
C131 C 0.91177 0.64997 0.2791 0.0
C132 C 0.90384 0.61176 0.24913 0.0
C133 C 0.89579 0.62475 0.2713 0.0
C134 C 0.94402 0.64879 0.24263 0.0
C135 C 0.92806 0.62369 0.23424 0.0
C136 C 0.93592 0.66166 0.26454 0.0
C137 C 0.91207 0.75057 0.38125 0.0
C138 C 0.94905 0.78553 0.40056 0.0
C139 C 0.8994 0.78886 0.40362 0.0
C140 C 0.89128 0.76449 0.38988 0.0
C141 C 0.92844 0.79977 0.40902 0.0
C142 C 0.94095 0.76134 0.38682 0.0
C143 C 0.9052 0.72647 0.36423 0.0
O144 O 0.83235 0.66969 0.34393 0.0
O145 O 0.85728 0.64848 0.36961 0.0
O146 O 0.91065 0.70317 0.3715 0.0
O147 O 0.88477 0.72457 0.34683 0.0
H148 H 0.82028 0.67311 0.40868 0.0
H149 H 0.77714 0.65879 0.43554 0.0
H150 H 0.74503 0.59595 0.38011 0.0
H151 H 0.78685 0.6111 0.35343 0.0
H152 H 0.89075 0.5926 0.24343 0.0
H153 H 0.87706 0.61519 0.28219 0.0
H154 H 0.96316 0.65858 0.23247 0.0
H155 H 0.94877 0.68099 0.27019 0.0
H156 H 0.97159 0.79347 0.40395 0.0
H157 H 0.88295 0.79919 0.41003 0.0
H158 H 0.86887 0.75678 0.3857 0.0
H159 H 0.95748 0.75134 0.37993 0.0
C160 C 0.72723 0.72803 0.88477 0.0
C161 C 0.74954 0.72902 0.86689 0.0
C162 C 0.76947 0.6977 0.89327 0.0
C163 C 0.7705 0.71402 0.87112 0.0
C164 C 0.74625 0.69568 0.91041 0.0
C165 C 0.72531 0.71087 0.90622 0.0
U166 U 0.70492 0.7798 0.84377 0.0
O167 O 0.66424 0.79206 0.83535 0.0
O168 O 0.70075 0.82126 0.85133 0.0
C169 C 0.67381 0.81663 0.84408 0.0
C170 C 0.70774 0.74672 0.88195 0.0
C171 C 0.65483 0.82756 0.86122 0.0
C172 C 0.63641 0.83385 0.90394 0.0
C173 C 0.65206 0.82048 0.88749 0.0
C174 C 0.62576 0.86071 0.86768 0.0
C175 C 0.62349 0.85439 0.8942 0.0
C176 C 0.64127 0.84735 0.85135 0.0
C177 C 0.7458 0.79421 0.78112 0.0
C178 C 0.7525 0.8376 0.75982 0.0
C179 C 0.77336 0.80185 0.74175 0.0
C180 C 0.76156 0.78475 0.76175 0.0
C181 C 0.7695 0.82847 0.74122 0.0
C182 C 0.7404 0.82038 0.77968 0.0
C183 C 0.73832 0.7779 0.80423 0.0
O184 O 0.72079 0.77221 0.88232 0.0
O185 O 0.68873 0.74096 0.86325 0.0
O186 O 0.71196 0.76384 0.80528 0.0
O187 O 0.74714 0.79048 0.82587 0.0
H188 H 0.75128 0.74212 0.85012 0.0
H189 H 0.78789 0.71567 0.85737 0.0
H190 H 0.745 0.68339 0.92771 0.0
H191 H 0.70823 0.70994 0.92016 0.0
H192 H 0.63481 0.82847 0.92427 0.0
H193 H 0.66261 0.80524 0.89535 0.0
H194 H 0.61656 0.87678 0.85968 0.0
H195 H 0.64353 0.85317 0.83114 0.0
H196 H 0.74976 0.8583 0.75962 0.0
H197 H 0.78691 0.79486 0.72762 0.0
H198 H 0.76599 0.76466 0.76285 0.0
H199 H 0.72825 0.8279 0.79466 0.0
C200 C 0.78883 0.25132 0.28127 0.0
C201 C 0.79474 0.22538 0.27982 0.0
C202 C 0.76556 0.21684 0.24117 0.0
C203 C 0.78311 0.20818 0.25983 0.0
C204 C 0.7613 0.24343 0.24184 0.0
C205 C 0.77288 0.26056 0.26185 0.0
U206 U 0.83029 0.26624 0.34365 0.0
O207 O 0.84615 0.30509 0.36306 0.0
O208 O 0.81458 0.27338 0.38227 0.0
C209 C 0.82765 0.29888 0.38208 0.0
C210 C 0.79627 0.26767 0.30434 0.0
C211 C 0.80862 0.31774 0.38623 0.0
C212 C 0.76373 0.3315 0.37755 0.0
C213 C 0.78335 0.31545 0.3717 0.0
C214 C 0.79529 0.35337 0.41143 0.0
C215 C 0.7692 0.35026 0.39788 0.0
C216 C 0.81476 0.33714 0.4057 0.0
C217 C 0.88179 0.2194 0.36102 0.0
C218 C 0.89597 0.20764 0.40395 0.0
C219 C 0.91337 0.18808 0.36593 0.0
C220 C 0.89868 0.20287 0.35009 0.0
C221 C 0.91138 0.18967 0.39296 0.0
C222 C 0.8811 0.22241 0.38801 0.0
C223 C 0.86243 0.23023 0.34396 0.0
O224 O 0.7879 0.25497 0.32606 0.0
O225 O 0.82246 0.28213 0.3052 0.0
O226 O 0.87145 0.25489 0.33516 0.0
O227 O 0.83546 0.22503 0.35111 0.0
H228 H 0.80715 0.21804 0.29477 0.0
H229 H 0.78688 0.18782 0.25951 0.0
H230 H 0.74757 0.25047 0.22786 0.0
H231 H 0.76817 0.28054 0.26288 0.0
H232 H 0.74379 0.32838 0.36687 0.0
H233 H 0.77833 0.30059 0.35643 0.0
H234 H 0.80044 0.36802 0.42683 0.0
H235 H 0.83428 0.33928 0.4169 0.0
H236 H 0.8941 0.2091 0.42477 0.0
H237 H 0.92544 0.17461 0.35706 0.0
H238 H 0.89939 0.20037 0.32929 0.0
H239 H 0.86803 0.23509 0.39672 0.0
C240 C 0.3033 0.64534 0.1738 0.0
C241 C 0.29538 0.66336 0.15585 0.0
C242 C 0.25368 0.62901 0.14265 0.0
C243 C 0.27081 0.65521 0.1403 0.0
C244 C 0.2623 0.61113 0.16042 0.0
C245 C 0.28664 0.61922 0.17574 0.0
U246 U 0.37446 0.68015 0.21364 0.0
O247 O 0.37506 0.67469 0.25617 0.0
O248 O 0.40264 0.65517 0.23137 0.0
C249 C 0.39399 0.65925 0.25489 0.0
C250 C 0.32773 0.65264 0.19189 0.0
C251 C 0.4046 0.64731 0.2785 0.0
C252 C 0.39578 0.6268 0.32141 0.0
C253 C 0.3861 0.6385 0.29931 0.0
C254 C 0.44298 0.63295 0.3027 0.0
C255 C 0.42447 0.62392 0.32367 0.0
C256 C 0.43312 0.64427 0.2804 0.0
C257 C 0.40953 0.75112 0.17944 0.0
C258 C 0.44382 0.79228 0.16875 0.0
C259 C 0.399 0.78125 0.14546 0.0
C260 C 0.39108 0.75738 0.16021 0.0
C261 C 0.42546 0.79926 0.14973 0.0
C262 C 0.43589 0.76873 0.18338 0.0
C263 C 0.40266 0.72706 0.19645 0.0
O264 O 0.35348 0.65016 0.18484 0.0
O265 O 0.32746 0.67119 0.20957 0.0
O266 O 0.38132 0.72463 0.21292 0.0
O267 O 0.40766 0.70393 0.18831 0.0
H268 H 0.3079 0.68368 0.15408 0.0
H269 H 0.26485 0.66961 0.12695 0.0
H270 H 0.25029 0.59066 0.16253 0.0
H271 H 0.29232 0.60498 0.18947 0.0
H272 H 0.38048 0.61967 0.33659 0.0
H273 H 0.36391 0.64026 0.29832 0.0
H274 H 0.46529 0.63169 0.30357 0.0
H275 H 0.44796 0.65098 0.26475 0.0
H276 H 0.46464 0.80491 0.17235 0.0
H277 H 0.38413 0.78583 0.13113 0.0
H278 H 0.37059 0.74407 0.15679 0.0
H279 H 0.45053 0.76428 0.19802 0.0
C280 C 0.12477 0.29778 0.67661 0.0
C281 C 0.14102 0.29367 0.65487 0.0
C282 C 0.10876 0.24995 0.64643 0.0
C283 C 0.13308 0.26997 0.63994 0.0
C284 C 0.09295 0.2544 0.66842 0.0
C285 C 0.10078 0.27791 0.6831 0.0
U286 U 0.15999 0.3692 0.7098 0.0
O287 O 0.13233 0.39494 0.72704 0.0
O288 O 0.1594 0.37518 0.75225 0.0
C289 C 0.14082 0.39094 0.75069 0.0
C290 C 0.13135 0.32208 0.69334 0.0
C291 C 0.13048 0.40335 0.77417 0.0
C292 C 0.09273 0.41921 0.79788 0.0
C293 C 0.1024 0.40774 0.77563 0.0
C294 C 0.13926 0.42295 0.81748 0.0
C295 C 0.11098 0.42713 0.8193 0.0
C296 C 0.14872 0.41106 0.79542 0.0
C297 C 0.23269 0.40407 0.67121 0.0
C298 C 0.27628 0.43743 0.66264 0.0
C299 C 0.2633 0.39875 0.63454 0.0
C300 C 0.23863 0.3893 0.64965 0.0
C301 C 0.28245 0.42313 0.64073 0.0
C302 C 0.25178 0.42809 0.67749 0.0
C303 C 0.20731 0.39551 0.68805 0.0
O304 O 0.15236 0.32462 0.71021 0.0
O305 O 0.12688 0.34521 0.68451 0.0
O306 O 0.18178 0.39827 0.68047 0.0
O307 O 0.20714 0.37728 0.70622 0.0
H308 H 0.15965 0.30872 0.64942 0.0
H309 H 0.14577 0.26757 0.6231 0.0
H310 H 0.07458 0.23952 0.6747 0.0
H311 H 0.08795 0.28054 0.69982 0.0
H312 H 0.0707 0.42142 0.79831 0.0
H313 H 0.08771 0.4019 0.75967 0.0
H314 H 0.15445 0.42917 0.83295 0.0
H315 H 0.17058 0.40826 0.79486 0.0
H316 H 0.29057 0.45582 0.66868 0.0
H317 H 0.26706 0.38716 0.6178 0.0
H318 H 0.22425 0.37062 0.64446 0.0
H319 H 0.24778 0.43974 0.69414 0.0
Dy320 Dy 0.04368 0.02969 0.50731 0.0
Dy321 Dy 0.99038 0.01944 0.54557 0.0
C322 C 0.03996 0.07281 0.55215 0.0
O323 O 0.05031 0.99599 0.53223 0.0
O324 O 0.02338 1.00275 0.56718 0.0
O325 O 0.08866 0.03615 0.49856 0.0
O326 O 0.05678 0.02916 0.46774 0.0
O327 O 0.98921 0.97929 0.52698 0.0
O328 O 1.00912 0.99771 0.48957 0.0
O329 O 0.97734 0.03841 0.50963 0.0
O330 O 0.02125 0.06277 0.49888 0.0
O331 O 0.94493 1.00663 0.55019 0.0
O332 O 0.97162 0.02364 0.58275 0.0
C333 C 0.04288 0.99154 0.55644 0.0
O334 O 0.05718 0.06153 0.53795 0.0
O335 O 1.01263 0.06182 0.55412 0.0
C336 C 0.10087 0.05641 0.45762 0.0
C337 C 0.13528 0.09395 0.42545 0.0
C338 C 0.13517 0.09836 0.45228 0.0
C339 C 0.11791 0.0797 0.46834 0.0
C340 C 0.1002 0.05257 0.4308 0.0
C341 C 0.11711 0.07129 0.41479 0.0
C342 C 0.08387 0.0354 0.47363 0.0
C343 C 0.99449 0.97697 0.50231 0.0
C344 C 0.99344 0.05908 0.49808 0.0
C345 C 0.93143 0.99015 0.59196 0.0
C346 C 0.90114 0.95079 0.62493 0.0
C347 C 0.90784 0.94382 0.59977 0.0
C348 C 0.9231 0.96341 0.58335 0.0
C349 C 0.92538 0.99689 0.61726 0.0
C350 C 0.91035 0.97733 0.6337 0.0
C351 C 0.94625 1.01149 0.57501 0.0
H352 H 0.14911 0.11567 0.46094 0.0
H353 H 0.11842 0.08319 0.48903 0.0
H354 H 0.08686 0.03482 0.42225 0.0
H355 H 0.11632 0.06778 0.3941 0.0
H356 H 0.9011 0.92335 0.5928 0.0
H357 H 0.92799 0.95771 0.56393 0.0
H358 H 0.93189 1.01741 0.62417 0.0
H359 H 0.90512 0.98317 0.65297 0.0
Dy360 Dy 0.49038 1.01696 1.0055 0.0
Dy361 Dy 0.54543 0.02591 0.04445 0.0
C362 C 0.49421 0.97327 0.05074 0.0
O363 O 0.48455 0.05016 0.03121 0.0
O364 O 0.51402 0.04497 0.06516 0.0
O365 O 0.44499 1.01012 0.9985 0.0
O366 O 0.47518 0.01842 0.96652 0.0
O367 O 0.54828 0.06575 0.0246 0.0
O368 O 0.52421 0.04946 0.98793 0.0
O369 O 0.55759 1.00403 1.01035 0.0
O370 O 0.51323 0.98515 0.9943 0.0
O371 O 0.59094 0.03817 0.04935 0.0
O372 O 0.56392 0.02143 0.08178 0.0
C373 C 0.49382 0.0556 0.05481 0.0
O374 O 0.47784 0.98346 0.0346 0.0
O375 O 0.52101 0.98489 0.05498 0.0
C376 C 0.43158 0.98979 0.95827 0.0
C377 C 0.40217 0.94898 0.92634 0.0
C378 C 0.41376 0.94234 0.94987 0.0
C379 C 0.42866 0.96271 0.96575 0.0
C380 C 0.41985 0.99639 0.93498 0.0
C381 C 0.4052 0.97613 0.91909 0.0
C382 C 0.44845 1.01148 0.97343 0.0
C383 C 0.54112 0.06901 1.00045 0.0
C384 C 0.54075 0.98633 0.9959 0.0
C385 C 0.60516 0.05341 0.09108 0.0
C386 C 0.63632 0.09204 0.1242 0.0
C387 C 0.62059 0.10006 0.1037 0.0
C388 C 0.60493 0.08076 0.08722 0.0
C389 C 0.62041 0.04538 0.11168 0.0
C390 C 0.63597 0.06455 0.12813 0.0
C391 C 0.58956 0.03273 0.07408 0.0
H392 H 0.41172 0.92148 0.9557 0.0
H393 H 0.43811 0.95738 0.98359 0.0
H394 H 0.4223 1.01724 0.92896 0.0
H395 H 0.39604 0.98173 0.90121 0.0
H396 H 0.62038 0.12115 0.10049 0.0
H397 H 0.59285 0.08714 0.07146 0.0
H398 H 0.62052 0.02426 0.11487 0.0
H399 H 0.64825 0.05787 0.14355 0.0
Dy400 Dy 0.52398 0.49763 0.51435 0.0
Dy401 Dy 0.51952 0.55355 0.54409 0.0
C402 C 0.54454 0.50822 0.57358 0.0
O403 O 0.47812 0.48831 0.52734 0.0
O404 O 0.48039 0.52346 0.55593 0.0
O405 O 0.53707 0.45965 0.51728 0.0
O406 O 0.52107 0.47145 0.4808 0.0
O407 O 0.49385 0.55421 0.50756 0.0
O408 O 0.51117 0.52361 0.48294 0.0
O409 O 0.56083 0.56605 0.52231 0.0
O410 O 0.56703 0.52447 0.50833 0.0
O411 O 0.51643 0.59546 0.54424 0.0
O412 O 0.51428 0.57315 0.58026 0.0
C413 C 0.4669 0.50048 0.54598 0.0
O414 O 0.53042 0.49112 0.55678 0.0
O415 O 0.54833 0.5343 0.56934 0.0
C416 C 0.5598 0.44894 0.47966 0.0
C417 C 0.60788 0.43378 0.45744 0.0
C418 C 0.61116 0.45172 0.47844 0.0
C419 C 0.58737 0.45935 0.48937 0.0
C420 C 0.55658 0.43194 0.45806 0.0
C421 C 0.58044 0.42444 0.44697 0.0
C422 C 0.53436 0.45486 0.49258 0.0
C423 C 0.49733 0.5434 0.48497 0.0
C424 C 0.5759 0.55071 0.51048 0.0
C425 C 0.48413 0.60412 0.57648 0.0
C426 C 0.43364 0.6197 0.59274 0.0
C427 C 0.43684 0.61242 0.56684 0.0
C428 C 0.4618 0.60451 0.55878 0.0
C429 C 0.48089 0.6113 0.6023 0.0
C430 C 0.4559 0.61898 0.61038 0.0
C431 C 0.51031 0.59503 0.56887 0.0
H432 H 0.63209 0.45962 0.48662 0.0
H433 H 0.5905 0.47289 0.5058 0.0
H434 H 0.53552 0.42391 0.4502 0.0
H435 H 0.57726 0.4105 0.43087 0.0
H436 H 0.41989 0.61249 0.5529 0.0
H437 H 0.46352 0.59857 0.53881 0.0
H438 H 0.49772 0.61085 0.61628 0.0
H439 H 0.4542 0.62474 0.6304 0.0
Dy440 Dy 0.01631 0.55348 1.01132 0.0
Dy441 Dy 0.01991 0.49793 0.04159 0.0
C442 C 0.99492 0.54344 0.07036 0.0
O443 O 0.06234 0.56186 0.02434 0.0
O444 O 0.05704 0.52884 0.05546 0.0
O445 O 1.00425 0.59199 1.01346 0.0
O446 O 0.01959 0.5791 0.97724 0.0
O447 O 0.04695 0.49803 1.00568 0.0
O448 O 0.02693 0.52611 0.98023 0.0
O449 O 0.97925 0.48554 1.01903 0.0
O450 O 0.9725 0.52751 1.00694 0.0
O451 O 0.02358 0.45617 0.04215 0.0
O452 O 0.02416 0.47822 0.07805 0.0
C453 C 0.07183 0.5509 0.04485 0.0
O454 O 1.00941 0.56039 0.05356 0.0
O455 O 0.99079 0.51732 0.06624 0.0
C456 C 0.98163 0.60253 0.97555 0.0
C457 C 0.93401 0.61794 0.95224 0.0
C458 C 0.93038 0.60062 0.97385 0.0
C459 C 0.95392 0.59285 0.98528 0.0
C460 C 0.98524 0.61902 0.95355 0.0
C461 C 0.96167 0.62657 0.94191 0.0
C462 C 1.00686 0.59626 0.98866 0.0
C463 C 0.04206 0.50734 0.98264 0.0
C464 C 0.96378 0.50117 1.00813 0.0
C465 C 0.05495 0.44771 0.07543 0.0
C466 C 0.10451 0.43088 0.09269 0.0
C467 C 0.10175 0.43804 0.06662 0.0
C468 C 0.07726 0.44646 0.05806 0.0
C469 C 0.05799 0.44127 0.10156 0.0
C470 C 0.08253 0.43296 0.11014 0.0
C471 C 0.02886 0.45653 0.06695 0.0
H472 H 0.90951 0.59377 0.98251 0.0
H473 H 0.95051 0.5798 1.00213 0.0
H474 H 1.00638 0.62641 0.9456 0.0
H475 H 0.9652 0.6394 0.92494 0.0
H476 H 0.11855 0.43714 0.05279 0.0
H477 H 0.07579 0.45189 0.03788 0.0
H478 H 0.04122 0.44248 0.11532 0.0
H479 H 0.08392 0.42745 0.1303 0.0
H480 H 0.245 0.2302 0.35376 0.0
H481 H 0.1667 0.07957 0.38612 0.0
H482 H 0.24468 0.16263 0.30283 0.0
H483 H 0.14997 0.14901 0.42692 0.0
H484 H 0.20004 0.10936 0.35822 0.0
H485 H 0.21519 0.19996 0.3842 0.0
C486 C 0.23884 0.20897 0.3491 0.0
C487 C 0.24716 0.19889 0.32573 0.0
C488 C 0.18909 0.11808 0.37328 0.0
C489 C 0.21346 0.16437 0.36038 0.0
C490 C 0.16991 0.10114 0.38907 0.0
C491 C 0.15543 0.11195 0.40865 0.0
C492 C 0.19398 0.14596 0.37729 0.0
C493 C 0.1609 0.13993 0.41212 0.0
C494 C 0.22189 0.19178 0.36645 0.0
C495 C 0.23904 0.17119 0.32078 0.0
N496 N 0.17982 0.15608 0.39648 0.0
N497 N 0.22246 0.15487 0.33796 0.0
H498 H 0.26633 0.83118 0.86081 0.0
H499 H 0.40781 0.94504 0.8743 0.0
H500 H 0.31252 0.87386 0.79662 0.0
H501 H 0.36075 0.90553 0.93976 0.0
H502 H 0.37697 0.91402 0.84543 0.0
H503 H 0.30451 0.85322 0.89016 0.0
C504 C 0.28478 0.845 0.85304 0.0
C505 C 0.28672 0.85096 0.82662 0.0
C506 C 0.37355 0.91186 0.86612 0.0
C507 C 0.32974 0.87622 0.85948 0.0
C508 C 0.39109 0.92958 0.88255 0.0
C509 C 0.38642 0.92794 0.9093 0.0
C510 C 0.35114 0.89247 0.87657 0.0
C511 C 0.36492 0.90736 0.91917 0.0
C512 C 0.30644 0.85753 0.86963 0.0
C513 C 0.31065 0.86889 0.81704 0.0
N514 N 0.34773 0.89054 0.90271 0.0
N515 N 0.33122 0.88113 0.83355 0.0
H516 H 0.57932 0.40053 0.69502 0.0
H517 H 0.57588 0.5359 0.61419 0.0
H518 H 0.62072 0.47928 0.7225 0.0
H519 H 0.53762 0.45544 0.58902 0.0
H520 H 0.59248 0.51667 0.65382 0.0
H521 H 0.5639 0.42123 0.65653 0.0
C522 C 0.5851 0.42225 0.69318 0.0
C523 C 0.60123 0.43802 0.71259 0.0
C524 C 0.58048 0.50326 0.63958 0.0
C525 C 0.58374 0.4622 0.66742 0.0
C526 C 0.57097 0.51424 0.61689 0.0
C527 C 0.5553 0.49738 0.59796 0.0
C528 C 0.57427 0.47515 0.64355 0.0
C529 C 0.54963 0.46942 0.6028 0.0
C530 C 0.57636 0.43411 0.67089 0.0
C531 C 0.60851 0.46611 0.70823 0.0
N532 N 0.55902 0.45934 0.62492 0.0
N533 N 0.59966 0.47725 0.68625 0.0
H534 H 0.92245 0.56909 0.22266 0.0
H535 H 0.99934 0.59646 0.08375 0.0
H536 H 0.95376 0.64805 0.1898 0.0
H537 H 0.96637 0.51617 0.1127 0.0
H538 H 0.98297 0.615 0.12303 0.0
H539 H 0.93784 0.54896 0.18335 0.0
C540 C 0.93238 0.58231 0.20729 0.0
C541 C 0.93679 0.61055 0.21006 0.0
C542 C 0.97919 0.59331 0.1209 0.0
C543 C 0.95497 0.58731 0.16473 0.0
C544 C 0.98858 0.5826 0.09831 0.0
C545 C 0.98424 0.55454 0.09458 0.0
C546 C 0.9652 0.57603 0.14034 0.0
C547 C 0.97016 0.53789 0.1145 0.0
C548 C 0.94137 0.5707 0.18483 0.0
C549 C 0.95026 0.62629 0.18925 0.0
N550 N 0.96119 0.54884 0.13643 0.0
N551 N 0.9588 0.61454 0.16775 0.0
H552 H 0.3934 0.16795 0.10652 0.0
H553 H 0.51355 0.07978 0.10045 0.0
H554 H 0.46223 0.17442 0.16199 0.0
H555 H 0.44863 0.07824 0.0418 0.0
H556 H 0.49552 0.11509 0.12297 0.0
H557 H 0.41474 0.13663 0.08137 0.0
C558 C 0.41327 0.16317 0.11319 0.0
C559 C 0.42597 0.17371 0.13648 0.0
C560 C 0.48524 0.10701 0.10516 0.0
C561 C 0.45005 0.1373 0.10818 0.0
C562 C 0.4954 0.08673 0.09241 0.0
C563 C 0.48245 0.07594 0.06934 0.0
C564 C 0.46194 0.11645 0.09479 0.0
C565 C 0.45922 0.08593 0.05959 0.0
C566 C 0.42529 0.14506 0.09895 0.0
C567 C 0.45145 0.1664 0.14438 0.0
N568 N 0.44967 0.1056 0.07242 0.0
N569 N 0.46253 0.14845 0.13036 0.0
H570 H 0.09682 0.88601 0.67083 0.0
H571 H 0.0736 0.95684 0.53668 0.0
H572 H 0.11335 0.85598 0.59543 0.0
H573 H 0.03914 0.97971 0.60856 0.0
H574 H 0.0915 0.92189 0.55937 0.0
H575 H 0.0783 0.92239 0.64971 0.0
C576 C 0.09643 0.88698 0.64989 0.0
C577 C 0.10642 0.86779 0.63486 0.0
C578 C 0.08007 0.93453 0.57029 0.0
C579 C 0.08549 0.90917 0.61076 0.0
C580 C 0.06996 0.95467 0.55735 0.0
C581 C 0.05486 0.97128 0.57078 0.0
C582 C 0.07528 0.93093 0.59696 0.0
C583 C 0.05064 0.96728 0.5975 0.0
C584 C 0.08579 0.90764 0.6379 0.0
C585 C 0.10537 0.86994 0.60782 0.0
N586 N 0.06087 0.94745 0.6098 0.0
N587 N 0.0952 0.89026 0.5967 0.0
H588 H 0.82759 0.46424 0.89602 0.0
H589 H 0.92807 0.45162 1.01737 0.0
H590 H 0.7985 0.40776 0.9578 0.0
H591 H 0.93668 0.52245 0.96917 0.0
H592 H 0.88351 0.43182 0.99425 0.0
H593 H 0.87077 0.48188 0.92052 0.0
C594 C 0.83004 0.4556 0.91486 0.0
C595 C 0.80874 0.43471 0.92493 0.0
C596 C 0.89517 0.45171 0.98886 0.0
C597 C 0.85926 0.45473 0.95313 0.0
C598 C 0.92062 0.46302 1.002 0.0
C599 C 0.93614 0.48885 0.99535 0.0
C600 C 0.88556 0.46606 0.96849 0.0
C601 C 0.9254 0.50264 0.97523 0.0
C602 C 0.85496 0.46568 0.92883 0.0
C603 C 0.81415 0.42383 0.94913 0.0
N604 N 0.90105 0.49103 0.96248 0.0
N605 N 0.83881 0.43398 0.96242 0.0
H606 H 0.70246 0.60465 0.39239 0.0
H607 H 0.62081 0.59021 0.52815 0.0
H608 H 0.74871 0.6272 0.46358 0.0
H609 H 0.59261 0.53981 0.46219 0.0
H610 H 0.66546 0.60961 0.50474 0.0
H611 H 0.65974 0.5868 0.41735 0.0
C612 C 0.70394 0.60573 0.41328 0.0
C613 C 0.72992 0.61713 0.42566 0.0
C614 C 0.64944 0.59433 0.49545 0.0
C615 C 0.67981 0.59724 0.45467 0.0
C616 C 0.62395 0.58336 0.50874 0.0
C617 C 0.60304 0.56327 0.49714 0.0
C618 C 0.65357 0.58576 0.47009 0.0
C619 C 0.60826 0.55504 0.47198 0.0
C620 C 0.67923 0.59562 0.42756 0.0
C621 C 0.72945 0.61877 0.45294 0.0
N622 N 0.63274 0.56645 0.45928 0.0
N623 N 0.70487 0.60897 0.46648 0.0
H624 H 0.24048 0.34332 0.1009 0.0
H625 H 0.13518 0.44112 0.13808 0.0
H626 H 0.2413 0.38026 0.17616 0.0
H627 H 0.13064 0.39558 0.06714 0.0
H628 H 0.17538 0.42132 0.15214 0.0
H629 H 0.20179 0.36488 0.08782 0.0
C630 C 0.2327 0.35627 0.1146 0.0
C631 C 0.24437 0.36027 0.13955 0.0
C632 C 0.16557 0.41575 0.13349 0.0
C633 C 0.19953 0.38477 0.12481 0.0
C634 C 0.14259 0.42696 0.12549 0.0
C635 C 0.12956 0.42006 0.10134 0.0
C636 C 0.17551 0.39753 0.11722 0.0
C637 C 0.14028 0.40187 0.08569 0.0
C638 C 0.21041 0.36842 0.10719 0.0
C639 C 0.23287 0.37665 0.15674 0.0
N640 N 0.16255 0.39126 0.09392 0.0
N641 N 0.21107 0.38841 0.14902 0.0
H642 H 0.59394 0.19624 0.88676 0.0
H643 H 0.5668 0.11754 0.02208 0.0
H644 H 0.60159 0.23687 0.96068 0.0
H645 H 0.53948 0.08084 0.94853 0.0
H646 H 0.58314 0.1608 0.99995 0.0
H647 H 0.57696 0.15354 0.909 0.0
C648 C 0.59192 0.19645 0.90761 0.0
C649 C 0.59932 0.22072 0.92162 0.0
C650 C 0.5736 0.14328 0.98865 0.0
C651 C 0.58042 0.17106 0.94747 0.0
C652 C 0.56437 0.11849 1.00126 0.0
C653 C 0.5518 0.09535 0.98718 0.0
C654 C 0.57061 0.14502 0.96165 0.0
C655 C 0.54902 0.09803 0.96024 0.0
C656 C 0.58236 0.17182 0.92035 0.0
C657 C 0.59677 0.21897 0.94881 0.0
N658 N 0.55844 0.12229 0.9484 0.0
N659 N 0.58768 0.19469 0.96076 0.0
H660 H 0.91012 0.84724 0.40121 0.0
H661 H 0.99191 0.92615 0.52149 0.0
H662 H 0.96763 0.81244 0.44853 0.0
H663 H 0.97462 0.96806 0.4525 0.0
H664 H 0.97622 0.883 0.4988 0.0
H665 H 0.92628 0.89044 0.42363 0.0
C666 C 0.92597 0.8486 0.41643 0.0
C667 C 0.93745 0.82606 0.42298 0.0
C668 C 0.97578 0.90165 0.48868 0.0
C669 C 0.9559 0.8755 0.44885 0.0
C670 C 0.98456 0.92625 0.50164 0.0
C671 C 0.98446 0.95074 0.48889 0.0
C672 C 0.966 0.90141 0.46298 0.0
C673 C 0.97508 0.94966 0.46304 0.0
C674 C 0.93533 0.87332 0.42906 0.0
C675 C 0.95824 0.82923 0.44271 0.0
N676 N 0.96591 0.92545 0.45104 0.0
N677 N 0.96659 0.85334 0.45505 0.0
H678 H 0.29332 0.65222 0.68365 0.0
H679 H 0.40456 0.65367 0.56796 0.0
H680 H 0.30637 0.71169 0.62242 0.0
H681 H 0.40316 0.6057 0.63729 0.0
H682 H 0.36318 0.67011 0.58404 0.0
H683 H 0.32835 0.63017 0.66331 0.0
C684 C 0.30338 0.66057 0.66584 0.0
C685 C 0.2971 0.6841 0.65494 0.0
C686 C 0.37186 0.65588 0.59565 0.0
C687 C 0.33698 0.65865 0.63135 0.0
C688 C 0.39535 0.64637 0.58643 0.0
C689 C 0.40745 0.62846 0.60141 0.0
C690 C 0.36032 0.64731 0.61997 0.0
C691 C 0.3948 0.61985 0.62531 0.0
C692 C 0.32333 0.64789 0.6542 0.0
C693 C 0.31034 0.69354 0.63147 0.0
N694 N 0.37199 0.62943 0.63389 0.0
N695 N 0.32982 0.68089 0.62056 0.0
H696 H 0.76134 0.8351 0.68981 0.0
H697 H 0.90936 0.94118 0.67587 0.0
H698 H 0.81753 0.86376 0.75362 0.0
H699 H 0.85182 0.91608 0.61191 0.0
H700 H 0.87638 0.91166 0.7045 0.0
H701 H 0.79421 0.86457 0.66047 0.0
C702 C 0.78054 0.84789 0.69749 0.0
C703 C 0.78697 0.84757 0.72383 0.0
C704 C 0.871 0.91249 0.68418 0.0
C705 C 0.82459 0.88032 0.69095 0.0
C706 C 0.8898 0.92928 0.66791 0.0
C707 C 0.8831 0.93098 0.64167 0.0
C708 C 0.8454 0.89741 0.67404 0.0
C709 C 0.85777 0.91503 0.63207 0.0
C710 C 0.79929 0.8645 0.6809 0.0
C711 C 0.81198 0.86399 0.73329 0.0
N712 N 0.83966 0.89893 0.64835 0.0
N713 N 0.83007 0.87971 0.71677 0.0
H714 H 0.73685 0.16588 0.25166 0.0
H715 H 0.67115 0.13961 0.11005 0.0
H716 H 0.75569 0.2243 0.18977 0.0
H717 H 0.64188 0.08971 0.17654 0.0
H718 H 0.70389 0.17032 0.13809 0.0
H719 H 0.70499 0.13581 0.22282 0.0
C720 C 0.73464 0.17216 0.23183 0.0
C721 C 0.74896 0.1975 0.22297 0.0
C722 C 0.69019 0.15269 0.14651 0.0
C723 C 0.71196 0.16363 0.19018 0.0
C724 C 0.67138 0.13534 0.13059 0.0
C725 C 0.65402 0.11209 0.14105 0.0
C726 C 0.69161 0.14653 0.1729 0.0
C727 C 0.65532 0.10722 0.16768 0.0
C728 C 0.71616 0.15516 0.2155 0.0
C729 C 0.74484 0.20494 0.19732 0.0
N730 N 0.67398 0.12424 0.1827 0.0
N731 N 0.72657 0.18804 0.18175 0.0
H732 H 0.40637 0.62606 0.3745 0.0
H733 H 0.50852 0.53348 0.43393 0.0
H734 H 0.46674 0.59374 0.32846 0.0
H735 H 0.46041 0.57862 0.48083 0.0
H736 H 0.49103 0.55263 0.39497 0.0
H737 H 0.42305 0.60588 0.41296 0.0
C738 C 0.42299 0.61464 0.37224 0.0
C739 C 0.43492 0.61176 0.34772 0.0
C740 C 0.48424 0.55832 0.41377 0.0
C741 C 0.45469 0.58872 0.39251 0.0
C742 C 0.49414 0.54727 0.43612 0.0
C743 C 0.48596 0.55429 0.46093 0.0
C744 C 0.46568 0.57643 0.41599 0.0
C745 C 0.46739 0.57252 0.46227 0.0
C746 C 0.43273 0.60327 0.39445 0.0
C747 C 0.45694 0.59702 0.34671 0.0
N748 N 0.45787 0.5828 0.44023 0.0
N749 N 0.46599 0.5861 0.36863 0.0
H750 H 0.0693 0.4581 0.82382 0.0
H751 H 0.08018 0.47316 0.97891 0.0
H752 H 0.12872 0.42479 0.8705 0.0
H753 H 0.02929 0.5153 0.93139 0.0
H754 H 0.09701 0.45422 0.93962 0.0
H755 H 0.05287 0.4773 0.8629 0.0
C756 C 0.07894 0.45459 0.84214 0.0
C757 C 0.10067 0.43951 0.84333 0.0
C758 C 0.0822 0.46765 0.93775 0.0
C759 C 0.08193 0.46229 0.88874 0.0
C760 C 0.07253 0.47852 0.96027 0.0
C761 C 0.05324 0.49604 0.95872 0.0
C762 C 0.07239 0.47398 0.91324 0.0
C763 C 0.04421 0.50206 0.93377 0.0
C764 C 0.06961 0.46589 0.86456 0.0
C765 C 0.11235 0.43647 0.86804 0.0
N766 N 0.05371 0.49103 0.9122 0.0
N767 N 0.10287 0.44763 0.88953 0.0
H768 H 0.64092 0.87387 0.94227 0.0
H769 H 0.51949 0.96053 0.95202 0.0
H770 H 0.57415 0.8723 0.88548 0.0
H771 H 0.58906 0.9673 1.00666 0.0
H772 H 0.53819 0.92632 0.92864 0.0
H773 H 0.6202 0.90522 0.96824 0.0
C774 C 0.62166 0.87979 0.93546 0.0
C775 C 0.60932 0.87062 0.91161 0.0
C776 C 0.54939 0.93521 0.94576 0.0
C777 C 0.58601 0.90686 0.94083 0.0
C778 C 0.53873 0.95474 0.95908 0.0
C779 C 0.55283 0.96668 0.9812 0.0
C780 C 0.57418 0.92738 0.95479 0.0
C781 C 0.57776 0.95868 0.98949 0.0
C782 C 0.61005 0.8979 0.95014 0.0
C783 C 0.58462 0.87921 0.90355 0.0
N784 N 0.58764 0.93936 0.97628 0.0
N785 N 0.57389 0.897 0.91805 0.0
H786 H 0.90401 0.13558 0.38666 0.0
H787 H 1.01396 0.11293 0.49442 0.0
H788 H 0.94471 0.20049 0.4365 0.0
H789 H 0.94343 0.04984 0.47094 0.0
H790 H 0.99303 0.14561 0.47002 0.0
H791 H 0.92301 0.10379 0.41369 0.0
C792 C 0.9171 0.14311 0.40327 0.0
C793 C 0.92303 0.17065 0.40935 0.0
C794 C 0.98211 0.12464 0.47034 0.0
C795 C 0.94457 0.13447 0.4403 0.0
C796 C 0.99407 0.10603 0.48405 0.0
C797 C 0.98038 0.07878 0.48439 0.0
C798 C 0.95671 0.1157 0.45647 0.0
C799 C 0.95452 0.07075 0.47106 0.0
C800 C 0.92767 0.12496 0.41877 0.0
C801 C 0.93969 0.17937 0.43126 0.0
N802 N 0.94364 0.08915 0.45729 0.0
N803 N 0.95016 0.1613 0.44591 0.0
H804 H 0.24176 0.64125 0.09181 0.0
H805 H 0.0908 0.53761 0.09181 0.0
H806 H 0.20333 0.59635 0.1584 0.0
H807 H 0.11506 0.59381 0.02881 0.0
H808 H 0.13411 0.55783 0.11454 0.0
H809 H 0.19772 0.62392 0.06711 0.0
C810 C 0.22413 0.62795 0.10135 0.0
C811 C 0.22666 0.62008 0.12729 0.0
C812 C 0.13014 0.5659 0.09577 0.0
C813 C 0.1763 0.59989 0.09891 0.0
C814 C 0.10527 0.55422 0.08257 0.0
C815 C 0.09903 0.56386 0.05812 0.0
C816 C 0.14953 0.5875 0.08464 0.0
C817 C 0.11888 0.58565 0.04756 0.0
C818 C 0.19903 0.61797 0.08715 0.0
C819 C 0.20299 0.60258 0.13838 0.0
N820 N 0.14333 0.59669 0.06083 0.0
N821 N 0.1791 0.59307 0.12416 0.0
H822 H 0.30716 0.4762 0.63033 0.0
H823 H 0.43734 0.44727 0.54409 0.0
H824 H 0.31789 0.39539 0.61392 0.0
H825 H 0.43159 0.52519 0.5744 0.0
H826 H 0.39195 0.42763 0.56592 0.0
H827 H 0.35088 0.49403 0.6067 0.0
C828 C 0.3187 0.46205 0.62196 0.0
C829 C 0.30864 0.43405 0.62468 0.0
C830 C 0.40063 0.44904 0.56765 0.0
C831 C 0.35913 0.45476 0.59657 0.0
C832 C 0.42646 0.4603 0.55506 0.0
C833 C 0.43844 0.48799 0.55731 0.0
C834 C 0.38645 0.46562 0.58238 0.0
C835 C 0.42341 0.50376 0.57209 0.0
C836 C 0.34374 0.47237 0.6082 0.0
C837 C 0.32447 0.41707 0.61238 0.0
N838 N 0.39838 0.49242 0.58392 0.0
N839 N 0.34887 0.42766 0.59895 0.0
H840 H 0.82642 0.71948 0.88919 0.0
H841 H 0.87796 0.59088 0.94685 0.0
H842 H 0.76772 0.64652 0.91192 0.0
H843 H 0.93365 0.66831 0.9331 0.0
H844 H 0.83759 0.60918 0.93104 0.0
H845 H 0.86631 0.69898 0.90136 0.0
C846 C 0.82193 0.69898 0.89645 0.0
C847 C 0.79369 0.68464 0.89947 0.0
C848 C 0.8587 0.62206 0.93137 0.0
C849 C 0.83938 0.66114 0.9139 0.0
C850 C 0.88177 0.61169 0.94052 0.0
C851 C 0.90937 0.62804 0.94135 0.0
C852 C 0.86328 0.64893 0.92288 0.0
C853 C 0.91297 0.65473 0.93245 0.0
C854 C 0.84474 0.68734 0.9036 0.0
C855 C 0.78917 0.65833 0.90949 0.0
N856 N 0.89022 0.6643 0.92365 0.0
N857 N 0.81181 0.6474 0.91639 0.0
H858 H 0.45735 0.84774 0.16692 0.0
H859 H 0.44944 0.93199 0.03679 0.0
H860 H 0.41336 0.81111 0.09876 0.0
H861 H 0.51269 0.95579 0.09655 0.0
H862 H 0.43191 0.88942 0.06022 0.0
H863 H 0.47367 0.88908 0.14257 0.0
C864 C 0.45122 0.84813 0.14677 0.0
C865 C 0.43414 0.82534 0.13497 0.0
C866 C 0.44958 0.90402 0.06818 0.0
C867 C 0.45237 0.87369 0.1069 0.0
C868 C 0.45949 0.92838 0.0549 0.0
C869 C 0.48253 0.9476 0.06473 0.0
C870 C 0.46243 0.89904 0.09172 0.0
C871 C 0.49494 0.94163 0.08814 0.0
C872 C 0.46047 0.87201 0.13288 0.0
C873 C 0.42626 0.82797 0.10892 0.0
N874 N 0.48465 0.91807 0.10085 0.0
N875 N 0.4354 0.85163 0.0958 0.0
H876 H 0.14224 0.22035 0.61957 0.0
H877 H 1.00925 0.1024 0.5807 0.0
H878 H 0.05402 0.22092 0.63712 0.0
H879 H 0.09513 0.10378 0.55412 0.0
H880 H 0.02621 0.1453 0.60232 0.0
H881 H 0.12633 0.17798 0.59594 0.0
C882 C 0.11956 0.21182 0.61842 0.0
C883 C 0.09962 0.22451 0.63079 0.0
C884 C 0.04144 0.13633 0.59178 0.0
C885 C 0.08125 0.17537 0.60393 0.0
C886 C 0.03176 0.11165 0.57938 0.0
C887 C 0.05074 0.09916 0.56549 0.0
C888 C 0.0705 0.14897 0.59054 0.0
C889 C 0.07966 0.11249 0.5646 0.0
C890 C 0.11051 0.18743 0.60502 0.0
C891 C 0.07049 0.21192 0.62864 0.0
N892 N 0.08865 0.13658 0.57697 0.0
N893 N 0.06233 0.1882 0.61569 0.0
H894 H 0.75524 0.36156 0.44729 0.0
H895 H 0.62244 0.42629 0.40691 0.0
H896 H 0.732 0.37206 0.36764 0.0
H897 H 0.64974 0.41773 0.48563 0.0
H898 H 0.66284 0.40761 0.39162 0.0
H899 H 0.71751 0.38383 0.46117 0.0
C900 C 0.74248 0.36889 0.43265 0.0
C901 C 0.747 0.36504 0.40622 0.0
C902 C 0.66002 0.40997 0.41222 0.0
C903 C 0.70302 0.39008 0.42211 0.0
C904 C 0.63694 0.42051 0.42095 0.0
C905 C 0.63277 0.42362 0.44757 0.0
C906 C 0.67891 0.40236 0.43029 0.0
C907 C 0.65234 0.41606 0.46492 0.0
C908 C 0.72069 0.38143 0.44063 0.0
C909 C 0.72914 0.37436 0.38823 0.0
N910 N 0.67445 0.40572 0.45598 0.0
N911 N 0.70785 0.38639 0.39652 0.0
loop_
_geom_bond_atom_site_label_1
_geom_bond_atom_site_label_2
_geom_bond_distance
_geom_bond_site_symmetry_2
_ccdc_geom_bond_type
C0 C1 1.264 . S
C0 C5 1.479 . S
C0 C10 1.465 . S
C1 C0 1.264 . S
C1 C3 1.339 . S
C1 H28 0.931 . S
C2 C3 1.395 . S
C2 C4 1.320 . S
C3 C1 1.339 . S
C3 C2 1.395 . S
C3 H29 0.929 . S
C4 C2 1.320 . S
C4 C5 1.405 . S
C4 H30 0.930 . S
C5 C0 1.479 . S
C5 C4 1.405 . S
C5 H31 0.931 . S
U6 O7 2.454 . S
U6 O8 2.458 . S
U6 C9 2.984 . S
U6 C10 2.847 . S
U6 C23 2.882 . S
U6 O24 2.441 . S
U6 O25 2.420 . S
U6 O26 2.455 . S
U6 O27 2.449 . S
O7 U6 2.454 . S
O7 C9 1.353 . S
O8 U6 2.458 . S
O8 C9 1.286 . S
C9 U6 2.984 . S
C9 O7 1.353 . S
C9 O8 1.286 . S
C9 C11 1.363 . S
C10 C0 1.465 . S
C10 U6 2.847 . S
C10 O24 1.249 . S
C10 O25 1.202 . S
C11 C9 1.363 . S
C11 C13 1.408 . S
C11 C16 1.342 . S
C12 C13 1.310 . S
C12 C15 1.461 . S
C12 H32 0.932 . S
C13 C11 1.408 . S
C13 C12 1.310 . S
C13 H33 0.930 . S
C14 C15 1.474 . S
C14 C16 1.285 . S
C14 H34 0.929 . S
C15 C12 1.461 . S
C15 C14 1.474 . S
C16 C11 1.342 . S
C16 C14 1.285 . S
C16 H35 0.930 . S
C17 C20 1.424 . S
C17 C22 1.245 . S
C17 C23 1.428 . S
C18 C21 1.260 . S
C18 C22 1.477 . S
C18 H36 0.932 . S
C19 C20 1.384 . S
C19 C21 1.479 . S
C19 H37 0.929 . S
C20 C17 1.424 . S
C20 C19 1.384 . S
C20 H38 0.928 . S
C21 C18 1.260 . S
C21 C19 1.479 . S
C22 C17 1.245 . S
C22 C18 1.477 . S
C22 H39 0.932 . S
C23 U6 2.882 . S
C23 C17 1.428 . S
C23 O26 1.301 . S
C23 O27 1.282 . S
O24 U6 2.441 . S
O24 C10 1.249 . S
O25 U6 2.420 . S
O25 C10 1.202 . S
O26 U6 2.455 . S
O26 C23 1.301 . S
O27 U6 2.449 . S
O27 C23 1.282 . S
H28 C1 0.931 . S
H29 C3 0.929 . S
H30 C4 0.930 . S
H31 C5 0.931 . S
H32 C12 0.932 . S
H33 C13 0.930 . S
H34 C14 0.929 . S
H35 C16 0.930 . S
H36 C18 0.932 . S
H37 C19 0.929 . S
H38 C20 0.928 . S
H39 C22 0.932 . S
C40 C41 1.264 . S
C40 C45 1.479 . S
C40 C50 1.465 . S
C41 C40 1.264 . S
C41 C43 1.339 . S
C41 H68 0.931 . S
C42 C43 1.395 . S
C42 C44 1.320 . S
C43 C41 1.339 . S
C43 C42 1.395 . S
C43 H69 0.929 . S
C44 C42 1.320 . S
C44 C45 1.405 . S
C44 H70 0.930 . S
C45 C40 1.479 . S
C45 C44 1.405 . S
C45 H71 0.931 . S
U46 O47 2.454 . S
U46 O48 2.458 . S
U46 C49 2.984 . S
U46 C50 2.847 . S
U46 C63 2.882 . S
U46 O64 2.441 . S
U46 O65 2.420 . S
U46 O66 2.455 . S
U46 O67 2.449 . S
O47 U46 2.454 . S
O47 C49 1.353 . S
O48 U46 2.458 . S
O48 C49 1.286 . S
C49 U46 2.984 . S
C49 O47 1.353 . S
C49 O48 1.286 . S
C49 C51 1.363 . S
C50 C40 1.465 . S
C50 U46 2.847 . S
C50 O64 1.249 . S
C50 O65 1.202 . S
C51 C49 1.363 . S
C51 C53 1.408 . S
C51 C56 1.342 . S
C52 C53 1.310 . S
C52 C55 1.461 . S
C52 H72 0.932 . S
C53 C51 1.408 . S
C53 C52 1.310 . S
C53 H73 0.930 . S
C54 C55 1.474 . S
C54 C56 1.285 . S
C54 H74 0.929 . S
C55 C52 1.461 . S
C55 C54 1.474 . S
C56 C51 1.342 . S
C56 C54 1.285 . S
C56 H75 0.930 . S
C57 C60 1.424 . S
C57 C62 1.245 . S
C57 C63 1.428 . S
C58 C61 1.260 . S
C58 C62 1.477 . S
C58 H76 0.932 . S
C59 C60 1.384 . S
C59 C61 1.479 . S
C59 H77 0.929 . S
C60 C57 1.424 . S
C60 C59 1.384 . S
C60 H78 0.928 . S
C61 C58 1.260 . S
C61 C59 1.479 . S
C62 C57 1.245 . S
C62 C58 1.477 . S
C62 H79 0.932 . S
C63 U46 2.882 . S
C63 C57 1.428 . S
C63 O66 1.301 . S
C63 O67 1.282 . S
O64 U46 2.441 . S
O64 C50 1.249 . S
O65 U46 2.420 . S
O65 C50 1.202 . S
O66 U46 2.455 . S
O66 C63 1.301 . S
O67 U46 2.449 . S
O67 C63 1.282 . S
H68 C41 0.931 . S
H69 C43 0.929 . S
H70 C44 0.930 . S
H71 C45 0.931 . S
H72 C52 0.932 . S
H73 C53 0.930 . S
H74 C54 0.929 . S
H75 C56 0.930 . S
H76 C58 0.932 . S
H77 C59 0.929 . S
H78 C60 0.928 . S
H79 C62 0.932 . S
C80 C81 1.264 . S
C80 C85 1.479 . S
C80 C90 1.465 . S
C81 C80 1.264 . S
C81 C83 1.339 . S
C81 H108 0.931 . S
C82 C83 1.395 . S
C82 C84 1.320 . S
C83 C81 1.339 . S
C83 C82 1.395 . S
C83 H109 0.929 . S
C84 C82 1.320 . S
C84 C85 1.405 . S
C84 H110 0.930 . S
C85 C80 1.479 . S
C85 C84 1.405 . S
C85 H111 0.931 . S
U86 O87 2.454 . S
U86 O88 2.458 . S
U86 C89 2.984 . S
U86 C90 2.847 . S
U86 C103 2.882 . S
U86 O104 2.441 . S
U86 O105 2.420 . S
U86 O106 2.455 . S
U86 O107 2.449 . S
O87 U86 2.454 . S
O87 C89 1.353 . S
O88 U86 2.458 . S
O88 C89 1.286 . S
C89 U86 2.984 . S
C89 O87 1.353 . S
C89 O88 1.286 . S
C89 C91 1.363 . S
C90 C80 1.465 . S
C90 U86 2.847 . S
C90 O104 1.249 . S
C90 O105 1.202 . S
C91 C89 1.363 . S
C91 C93 1.408 . S
C91 C96 1.342 . S
C92 C93 1.310 . S
C92 C95 1.461 . S
C92 H112 0.932 . S
C93 C91 1.408 . S
C93 C92 1.310 . S
C93 H113 0.930 . S
C94 C95 1.474 . S
C94 C96 1.285 . S
C94 H114 0.929 . S
C95 C92 1.461 . S
C95 C94 1.474 . S
C96 C91 1.342 . S
C96 C94 1.285 . S
C96 H115 0.930 . S
C97 C100 1.424 . S
C97 C102 1.245 . S
C97 C103 1.428 . S
C98 C101 1.260 . S
C98 C102 1.477 . S
C98 H116 0.932 . S
C99 C100 1.384 . S
C99 C101 1.479 . S
C99 H117 0.929 . S
C100 C97 1.424 . S
C100 C99 1.384 . S
C100 H118 0.928 . S
C101 C98 1.260 . S
C101 C99 1.479 . S
C102 C97 1.245 . S
C102 C98 1.477 . S
C102 H119 0.932 . S
C103 U86 2.882 . S
C103 C97 1.428 . S
C103 O106 1.301 . S
C103 O107 1.282 . S
O104 U86 2.441 . S
O104 C90 1.249 . S
O105 U86 2.420 . S
O105 C90 1.202 . S
O106 U86 2.455 . S
O106 C103 1.301 . S
O107 U86 2.449 . S
O107 C103 1.282 . S
H108 C81 0.931 . S
H109 C83 0.929 . S
H110 C84 0.930 . S
H111 C85 0.931 . S
H112 C92 0.932 . S
H113 C93 0.930 . S
H114 C94 0.929 . S
H115 C96 0.930 . S
H116 C98 0.932 . S
H117 C99 0.929 . S
H118 C100 0.928 . S
H119 C102 0.932 . S
C120 C121 1.264 . S
C120 C125 1.479 . S
C120 C130 1.465 . S
C121 C120 1.264 . S
C121 C123 1.339 . S
C121 H148 0.931 . S
C122 C123 1.395 . S
C122 C124 1.320 . S
C123 C121 1.339 . S
C123 C122 1.395 . S
C123 H149 0.929 . S
C124 C122 1.320 . S
C124 C125 1.405 . S
C124 H150 0.930 . S
C125 C120 1.479 . S
C125 C124 1.405 . S
C125 H151 0.931 . S
U126 O127 2.454 . S
U126 O128 2.458 . S
U126 C129 2.984 . S
U126 C130 2.847 . S
U126 C143 2.882 . S
U126 O144 2.441 . S
U126 O145 2.420 . S
U126 O146 2.455 . S
U126 O147 2.449 . S
O127 U126 2.454 . S
O127 C129 1.353 . S
O128 U126 2.458 . S
O128 C129 1.286 . S
C129 U126 2.984 . S
C129 O127 1.353 . S
C129 O128 1.286 . S
C129 C131 1.363 . S
C130 C120 1.465 . S
C130 U126 2.847 . S
C130 O144 1.249 . S
C130 O145 1.202 . S
C131 C129 1.363 . S
C131 C133 1.408 . S
C131 C136 1.342 . S
C132 C133 1.310 . S
C132 C135 1.461 . S
C132 H152 0.932 . S
C133 C131 1.408 . S
C133 C132 1.310 . S
C133 H153 0.930 . S
C134 C135 1.474 . S
C134 C136 1.285 . S
C134 H154 0.929 . S
C135 C132 1.461 . S
C135 C134 1.474 . S
C136 C131 1.342 . S
C136 C134 1.285 . S
C136 H155 0.930 . S
C137 C140 1.424 . S
C137 C142 1.245 . S
C137 C143 1.428 . S
C138 C141 1.260 . S
C138 C142 1.477 . S
C138 H156 0.932 . S
C139 C140 1.384 . S
C139 C141 1.479 . S
C139 H157 0.929 . S
C140 C137 1.424 . S
C140 C139 1.384 . S
C140 H158 0.928 . S
C141 C138 1.260 . S
C141 C139 1.479 . S
C142 C137 1.245 . S
C142 C138 1.477 . S
C142 H159 0.932 . S
C143 U126 2.882 . S
C143 C137 1.428 . S
C143 O146 1.301 . S
C143 O147 1.282 . S
O144 U126 2.441 . S
O144 C130 1.249 . S
O145 U126 2.420 . S
O145 C130 1.202 . S
O146 U126 2.455 . S
O146 C143 1.301 . S
O147 U126 2.449 . S
O147 C143 1.282 . S
H148 C121 0.931 . S
H149 C123 0.929 . S
H150 C124 0.930 . S
H151 C125 0.931 . S
H152 C132 0.932 . S
H153 C133 0.930 . S
H154 C134 0.929 . S
H155 C136 0.930 . S
H156 C138 0.932 . S
H157 C139 0.929 . S
H158 C140 0.928 . S
H159 C142 0.932 . S
C160 C161 1.264 . S
C160 C165 1.479 . S
C160 C170 1.465 . S
C161 C160 1.264 . S
C161 C163 1.339 . S
C161 H188 0.931 . S
C162 C163 1.395 . S
C162 C164 1.320 . S
C163 C161 1.339 . S
C163 C162 1.395 . S
C163 H189 0.929 . S
C164 C162 1.320 . S
C164 C165 1.405 . S
C164 H190 0.930 . S
C165 C160 1.479 . S
C165 C164 1.405 . S
C165 H191 0.931 . S
U166 O167 2.454 . S
U166 O168 2.458 . S
U166 C169 2.984 . S
U166 C170 2.847 . S
U166 C183 2.882 . S
U166 O184 2.441 . S
U166 O185 2.420 . S
U166 O186 2.455 . S
U166 O187 2.449 . S
O167 U166 2.454 . S
O167 C169 1.353 . S
O168 U166 2.458 . S
O168 C169 1.286 . S
C169 U166 2.984 . S
C169 O167 1.353 . S
C169 O168 1.286 . S
C169 C171 1.363 . S
C170 C160 1.465 . S
C170 U166 2.847 . S
C170 O184 1.249 . S
C170 O185 1.202 . S
C171 C169 1.363 . S
C171 C173 1.408 . S
C171 C176 1.342 . S
C172 C173 1.310 . S
C172 C175 1.461 . S
C172 H192 0.932 . S
C173 C171 1.408 . S
C173 C172 1.310 . S
C173 H193 0.930 . S
C174 C175 1.474 . S
C174 C176 1.285 . S
C174 H194 0.929 . S
C175 C172 1.461 . S
C175 C174 1.474 . S
C176 C171 1.342 . S
C176 C174 1.285 . S
C176 H195 0.930 . S
C177 C180 1.424 . S
C177 C182 1.245 . S
C177 C183 1.428 . S
C178 C181 1.260 . S
C178 C182 1.477 . S
C178 H196 0.932 . S
C179 C180 1.384 . S
C179 C181 1.479 . S
C179 H197 0.929 . S
C180 C177 1.424 . S
C180 C179 1.384 . S
C180 H198 0.928 . S
C181 C178 1.260 . S
C181 C179 1.479 . S
C182 C177 1.245 . S
C182 C178 1.477 . S
C182 H199 0.932 . S
C183 U166 2.882 . S
C183 C177 1.428 . S
C183 O186 1.301 . S
C183 O187 1.282 . S
O184 U166 2.441 . S
O184 C170 1.249 . S
O185 U166 2.420 . S
O185 C170 1.202 . S
O186 U166 2.455 . S
O186 C183 1.301 . S
O187 U166 2.449 . S
O187 C183 1.282 . S
H188 C161 0.931 . S
H189 C163 0.929 . S
H190 C164 0.930 . S
H191 C165 0.931 . S
H192 C172 0.932 . S
H193 C173 0.930 . S
H194 C174 0.929 . S
H195 C176 0.930 . S
H196 C178 0.932 . S
H197 C179 0.929 . S
H198 C180 0.928 . S
H199 C182 0.932 . S
C200 C201 1.264 . S
C200 C205 1.479 . S
C200 C210 1.465 . S
C201 C200 1.264 . S
C201 C203 1.339 . S
C201 H228 0.931 . S
C202 C203 1.395 . S
C202 C204 1.320 . S
C203 C201 1.339 . S
C203 C202 1.395 . S
C203 H229 0.929 . S
C204 C202 1.320 . S
C204 C205 1.405 . S
C204 H230 0.930 . S
C205 C200 1.479 . S
C205 C204 1.405 . S
C205 H231 0.931 . S
U206 O207 2.454 . S
U206 O208 2.458 . S
U206 C209 2.984 . S
U206 C210 2.847 . S
U206 C223 2.882 . S
U206 O224 2.441 . S
U206 O225 2.420 . S
U206 O226 2.455 . S
U206 O227 2.449 . S
O207 U206 2.454 . S
O207 C209 1.353 . S
O208 U206 2.458 . S
O208 C209 1.286 . S
C209 U206 2.984 . S
C209 O207 1.353 . S
C209 O208 1.286 . S
C209 C211 1.363 . S
C210 C200 1.465 . S
C210 U206 2.847 . S
C210 O224 1.249 . S
C210 O225 1.202 . S
C211 C209 1.363 . S
C211 C213 1.408 . S
C211 C216 1.342 . S
C212 C213 1.310 . S
C212 C215 1.461 . S
C212 H232 0.932 . S
C213 C211 1.408 . S
C213 C212 1.310 . S
C213 H233 0.930 . S
C214 C215 1.474 . S
C214 C216 1.285 . S
C214 H234 0.929 . S
C215 C212 1.461 . S
C215 C214 1.474 . S
C216 C211 1.342 . S
C216 C214 1.285 . S
C216 H235 0.930 . S
C217 C220 1.424 . S
C217 C222 1.245 . S
C217 C223 1.428 . S
C218 C221 1.260 . S
C218 C222 1.477 . S
C218 H236 0.932 . S
C219 C220 1.384 . S
C219 C221 1.479 . S
C219 H237 0.929 . S
C220 C217 1.424 . S
C220 C219 1.384 . S
C220 H238 0.928 . S
C221 C218 1.260 . S
C221 C219 1.479 . S
C222 C217 1.245 . S
C222 C218 1.477 . S
C222 H239 0.932 . S
C223 U206 2.882 . S
C223 C217 1.428 . S
C223 O226 1.301 . S
C223 O227 1.282 . S
O224 U206 2.441 . S
O224 C210 1.249 . S
O225 U206 2.420 . S
O225 C210 1.202 . S
O226 U206 2.455 . S
O226 C223 1.301 . S
O227 U206 2.449 . S
O227 C223 1.282 . S
H228 C201 0.931 . S
H229 C203 0.929 . S
H230 C204 0.930 . S
H231 C205 0.931 . S
H232 C212 0.932 . S
H233 C213 0.930 . S
H234 C214 0.929 . S
H235 C216 0.930 . S
H236 C218 0.932 . S
H237 C219 0.929 . S
H238 C220 0.928 . S
H239 C222 0.932 . S
C240 C241 1.264 . S
C240 C245 1.479 . S
C240 C250 1.465 . S
C241 C240 1.264 . S
C241 C243 1.339 . S
C241 H268 0.931 . S
C242 C243 1.395 . S
C242 C244 1.320 . S
C243 C241 1.339 . S
C243 C242 1.395 . S
C243 H269 0.929 . S
C244 C242 1.320 . S
C244 C245 1.405 . S
C244 H270 0.930 . S
C245 C240 1.479 . S
C245 C244 1.405 . S
C245 H271 0.931 . S
U246 O247 2.454 . S
U246 O248 2.458 . S
U246 C249 2.984 . S
U246 C250 2.847 . S
U246 C263 2.882 . S
U246 O264 2.441 . S
U246 O265 2.420 . S
U246 O266 2.455 . S
U246 O267 2.449 . S
O247 U246 2.454 . S
O247 C249 1.353 . S
O248 U246 2.458 . S
O248 C249 1.286 . S
C249 U246 2.984 . S
C249 O247 1.353 . S
C249 O248 1.286 . S
C249 C251 1.363 . S
C250 C240 1.465 . S
C250 U246 2.847 . S
C250 O264 1.249 . S
C250 O265 1.202 . S
C251 C249 1.363 . S
C251 C253 1.408 . S
C251 C256 1.342 . S
C252 C253 1.310 . S
C252 C255 1.461 . S
C252 H272 0.932 . S
C253 C251 1.408 . S
C253 C252 1.310 . S
C253 H273 0.930 . S
C254 C255 1.474 . S
C254 C256 1.285 . S
C254 H274 0.929 . S
C255 C252 1.461 . S
C255 C254 1.474 . S
C256 C251 1.342 . S
C256 C254 1.285 . S
C256 H275 0.930 . S
C257 C260 1.424 . S
C257 C262 1.245 . S
C257 C263 1.428 . S
C258 C261 1.260 . S
C258 C262 1.477 . S
C258 H276 0.932 . S
C259 C260 1.384 . S
C259 C261 1.479 . S
C259 H277 0.929 . S
C260 C257 1.424 . S
C260 C259 1.384 . S
C260 H278 0.928 . S
C261 C258 1.260 . S
C261 C259 1.479 . S
C262 C257 1.245 . S
C262 C258 1.477 . S
C262 H279 0.932 . S
C263 U246 2.882 . S
C263 C257 1.428 . S
C263 O266 1.301 . S
C263 O267 1.282 . S
O264 U246 2.441 . S
O264 C250 1.249 . S
O265 U246 2.420 . S
O265 C250 1.202 . S
O266 U246 2.455 . S
O266 C263 1.301 . S
O267 U246 2.449 . S
O267 C263 1.282 . S
H268 C241 0.931 . S
H269 C243 0.929 . S
H270 C244 0.930 . S
H271 C245 0.931 . S
H272 C252 0.932 . S
H273 C253 0.930 . S
H274 C254 0.929 . S
H275 C256 0.930 . S
H276 C258 0.932 . S
H277 C259 0.929 . S
H278 C260 0.928 . S
H279 C262 0.932 . S
C280 C281 1.264 . S
C280 C285 1.479 . S
C280 C290 1.465 . S
C281 C280 1.264 . S
C281 C283 1.339 . S
C281 H308 0.931 . S
C282 C283 1.395 . S
C282 C284 1.320 . S
C283 C281 1.339 . S
C283 C282 1.395 . S
C283 H309 0.929 . S
C284 C282 1.320 . S
C284 C285 1.405 . S
C284 H310 0.930 . S
C285 C280 1.479 . S
C285 C284 1.405 . S
C285 H311 0.931 . S
U286 O287 2.454 . S
U286 O288 2.458 . S
U286 C289 2.984 . S
U286 C290 2.847 . S
U286 C303 2.882 . S
U286 O304 2.441 . S
U286 O305 2.420 . S
U286 O306 2.455 . S
U286 O307 2.449 . S
O287 U286 2.454 . S
O287 C289 1.353 . S
O288 U286 2.458 . S
O288 C289 1.286 . S
C289 U286 2.984 . S
C289 O287 1.353 . S
C289 O288 1.286 . S
C289 C291 1.363 . S
C290 C280 1.465 . S
C290 U286 2.847 . S
C290 O304 1.249 . S
C290 O305 1.202 . S
C291 C289 1.363 . S
C291 C293 1.408 . S
C291 C296 1.342 . S
C292 C293 1.310 . S
C292 C295 1.461 . S
C292 H312 0.932 . S
C293 C291 1.408 . S
C293 C292 1.310 . S
C293 H313 0.930 . S
C294 C295 1.474 . S
C294 C296 1.285 . S
C294 H314 0.929 . S
C295 C292 1.461 . S
C295 C294 1.474 . S
C296 C291 1.342 . S
C296 C294 1.285 . S
C296 H315 0.930 . S
C297 C300 1.424 . S
C297 C302 1.245 . S
C297 C303 1.428 . S
C298 C301 1.260 . S
C298 C302 1.477 . S
C298 H316 0.932 . S
C299 C300 1.384 . S
C299 C301 1.479 . S
C299 H317 0.929 . S
C300 C297 1.424 . S
C300 C299 1.384 . S
C300 H318 0.928 . S
C301 C298 1.260 . S
C301 C299 1.479 . S
C302 C297 1.245 . S
C302 C298 1.477 . S
C302 H319 0.932 . S
C303 U286 2.882 . S
C303 C297 1.428 . S
C303 O306 1.301 . S
C303 O307 1.282 . S
O304 U286 2.441 . S
O304 C290 1.249 . S
O305 U286 2.420 . S
O305 C290 1.202 . S
O306 U286 2.455 . S
O306 C303 1.301 . S
O307 U286 2.449 . S
O307 C303 1.282 . S
H308 C281 0.931 . S
H309 C283 0.929 . S
H310 C284 0.930 . S
H311 C285 0.931 . S
H312 C292 0.932 . S
H313 C293 0.930 . S
H314 C294 0.929 . S
H315 C296 0.930 . S
H316 C298 0.932 . S
H317 C299 0.929 . S
H318 C300 0.928 . S
H319 C302 0.932 . S
Dy320 O323 2.307 1_545 S
Dy320 O325 2.395 . S
Dy320 O326 2.379 . S
Dy320 O328 2.339 1_545 S
Dy320 O330 2.285 1_455 S
Dy320 O334 2.275 . S
Dy320 C342 2.738 . S
Dy321 O324 2.298 1_645 S
Dy321 O327 2.275 1_545 S
Dy321 O329 2.307 . S
Dy321 O331 2.395 1_545 S
Dy321 O332 2.379 1_545 S
Dy321 O335 2.339 . S
Dy321 C351 2.738 1_545 S
C322 O334 1.254 . S
C322 O335 1.257 1_455 S
O323 Dy320 2.307 1_565 S
O323 C333 1.266 . S
O324 Dy321 2.298 1_465 S
O324 C333 1.236 . S
O325 Dy320 2.395 . S
O325 C342 1.255 . S
O326 Dy320 2.379 . S
O326 C342 1.249 . S
O327 Dy321 2.275 1_565 S
O327 C343 1.254 . S
O328 Dy320 2.339 1_565 S
O328 C343 1.257 1_455 S
O329 Dy321 2.307 . S
O329 C344 1.266 . S
O330 Dy320 2.285 1_655 S
O330 C344 1.249 . S
O331 Dy321 2.395 1_565 S
O331 C351 1.255 . S
O332 Dy321 2.379 1_565 S
O332 C351 1.249 . S
C333 O323 1.266 . S
C333 O324 1.236 . S
O334 Dy320 2.275 . S
O334 C322 1.254 . S
O335 Dy321 2.339 . S
O335 C322 1.257 1_655 S
C336 C339 1.344 . S
C336 C340 1.328 . S
C336 C342 1.516 . S
C337 C338 1.304 . S
C337 C341 1.323 . S
C338 C337 1.304 . S
C338 C339 1.371 . S
C338 H352 0.930 . S
C339 C336 1.344 . S
C339 C338 1.371 . S
C339 H353 0.931 . S
C340 C336 1.328 . S
C340 C341 1.433 . S
C340 H354 0.931 . S
C341 C337 1.323 . S
C341 C340 1.433 . S
C341 H355 0.933 . S
C342 Dy320 2.738 . S
C342 O325 1.255 . S
C342 O326 1.249 . S
C342 C336 1.516 . S
C343 O327 1.254 . S
C343 O328 1.257 1_655 S
C344 O329 1.266 . S
C344 O330 1.249 . S
C345 C348 1.344 . S
C345 C349 1.328 . S
C345 C351 1.516 . S
C346 C347 1.304 . S
C346 C350 1.323 . S
C347 C346 1.304 . S
C347 C348 1.371 . S
C347 H356 0.930 . S
C348 C345 1.344 . S
C348 C347 1.371 . S
C348 H357 0.931 . S
C349 C345 1.328 . S
C349 C350 1.433 . S
C349 H358 0.931 . S
C350 C346 1.323 . S
C350 C349 1.433 . S
C350 H359 0.933 . S
C351 Dy321 2.738 1_565 S
C351 O331 1.255 . S
C351 O332 1.249 . S
C351 C345 1.516 . S
H352 C338 0.930 . S
H353 C339 0.931 . S
H354 C340 0.931 . S
H355 C341 0.933 . S
H356 C347 0.930 . S
H357 C348 0.931 . S
H358 C349 0.931 . S
H359 C350 0.933 . S
Dy360 O363 2.281 1_566 S
Dy360 O365 2.427 . S
Dy360 O366 2.384 . S
Dy360 O368 2.309 1_565 S
Dy360 O370 2.320 . S
Dy360 O374 2.298 1_556 S
Dy360 C382 2.759 . S
Dy361 O364 2.298 . S
Dy361 O367 2.275 1_554 S
Dy361 O369 2.307 1_544 S
Dy361 O371 2.395 . S
Dy361 O372 2.379 . S
Dy361 O375 2.339 1_545 S
Dy361 C391 2.738 . S
C362 O374 1.254 . S
C362 O375 1.257 . S
O363 Dy360 2.281 1_544 S
O363 C373 1.266 . S
O364 Dy361 2.298 . S
O364 C373 1.236 . S
O365 Dy360 2.427 . S
O365 C382 1.255 . S
O366 Dy360 2.384 . S
O366 C382 1.249 . S
O367 Dy361 2.275 1_556 S
O367 C383 1.254 . S
O368 Dy360 2.309 1_545 S
O368 C383 1.257 . S
O369 Dy361 2.307 1_566 S
O369 C384 1.266 . S
O370 Dy360 2.320 . S
O370 C384 1.236 . S
O371 Dy361 2.395 . S
O371 C391 1.255 . S
O372 Dy361 2.379 . S
O372 C391 1.249 . S
C373 O363 1.266 . S
C373 O364 1.236 . S
O374 Dy360 2.298 1_554 S
O374 C362 1.254 . S
O375 Dy361 2.339 1_565 S
O375 C362 1.257 . S
C376 C379 1.344 . S
C376 C380 1.328 . S
C376 C382 1.516 . S
C377 C378 1.304 . S
C377 C381 1.323 . S
C378 C377 1.304 . S
C378 C379 1.371 . S
C378 H392 0.930 . S
C379 C376 1.344 . S
C379 C378 1.371 . S
C379 H393 0.931 . S
C380 C376 1.328 . S
C380 C381 1.433 . S
C380 H394 0.931 . S
C381 C377 1.323 . S
C381 C380 1.433 . S
C381 H395 0.933 . S
C382 Dy360 2.759 . S
C382 O365 1.255 . S
C382 O366 1.249 . S
C382 C376 1.516 . S
C383 O367 1.254 . S
C383 O368 1.257 . S
C384 O369 1.266 . S
C384 O370 1.236 . S
C385 C388 1.344 . S
C385 C389 1.328 . S
C385 C391 1.516 . S
C386 C387 1.304 . S
C386 C390 1.323 . S
C387 C386 1.304 . S
C387 C388 1.371 . S
C387 H396 0.930 . S
C388 C385 1.344 . S
C388 C387 1.371 . S
C388 H397 0.931 . S
C389 C385 1.328 . S
C389 C390 1.433 . S
C389 H398 0.931 . S
C390 C386 1.323 . S
C390 C389 1.433 . S
C390 H399 0.933 . S
C391 Dy361 2.738 . S
C391 O371 1.255 . S
C391 O372 1.249 . S
C391 C385 1.516 . S
H392 C378 0.930 . S
H393 C379 0.931 . S
H394 C380 0.931 . S
H395 C381 0.933 . S
H396 C387 0.930 . S
H397 C388 0.931 . S
H398 C389 0.931 . S
H399 C390 0.933 . S
Dy400 O403 2.307 . S
Dy400 O405 2.395 . S
Dy400 O406 2.379 . S
Dy400 O408 2.339 . S
Dy400 O410 2.298 . S
Dy400 O414 2.275 . S
Dy400 C422 2.738 . S
Dy401 O404 2.298 . S
Dy401 O407 2.275 . S
Dy401 O409 2.307 . S
Dy401 O411 2.395 . S
Dy401 O412 2.379 . S
Dy401 O415 2.339 . S
Dy401 C431 2.738 . S
C402 O414 1.254 . S
C402 O415 1.257 . S
O403 Dy400 2.307 . S
O403 C413 1.266 . S
O404 Dy401 2.298 . S
O404 C413 1.236 . S
O405 Dy400 2.395 . S
O405 C422 1.255 . S
O406 Dy400 2.379 . S
O406 C422 1.249 . S
O407 Dy401 2.275 . S
O407 C423 1.254 . S
O408 Dy400 2.339 . S
O408 C423 1.257 . S
O409 Dy401 2.307 . S
O409 C424 1.266 . S
O410 Dy400 2.298 . S
O410 C424 1.236 . S
O411 Dy401 2.395 . S
O411 C431 1.255 . S
O412 Dy401 2.379 . S
O412 C431 1.249 . S
C413 O403 1.266 . S
C413 O404 1.236 . S
O414 Dy400 2.275 . S
O414 C402 1.254 . S
O415 Dy401 2.339 . S
O415 C402 1.257 . S
C416 C419 1.344 . S
C416 C420 1.328 . S
C416 C422 1.516 . S
C417 C418 1.304 . S
C417 C421 1.323 . S
C418 C417 1.304 . S
C418 C419 1.371 . S
C418 H432 0.930 . S
C419 C416 1.344 . S
C419 C418 1.371 . S
C419 H433 0.931 . S
C420 C416 1.328 . S
C420 C421 1.433 . S
C420 H434 0.931 . S
C421 C417 1.323 . S
C421 C420 1.433 . S
C421 H435 0.933 . S
C422 Dy400 2.738 . S
C422 O405 1.255 . S
C422 O406 1.249 . S
C422 C416 1.516 . S
C423 O407 1.254 . S
C423 O408 1.257 . S
C424 O409 1.266 . S
C424 O410 1.236 . S
C425 C428 1.344 . S
C425 C429 1.328 . S
C425 C431 1.516 . S
C426 C427 1.304 . S
C426 C430 1.323 . S
C427 C426 1.304 . S
C427 C428 1.371 . S
C427 H436 0.930 . S
C428 C425 1.344 . S
C428 C427 1.371 . S
C428 H437 0.931 . S
C429 C425 1.328 . S
C429 C430 1.433 . S
C429 H438 0.931 . S
C430 C426 1.323 . S
C430 C429 1.433 . S
C430 H439 0.933 . S
C431 Dy401 2.738 . S
C431 O411 1.255 . S
C431 O412 1.249 . S
C431 C425 1.516 . S
H432 C418 0.930 . S
H433 C419 0.931 . S
H434 C420 0.931 . S
H435 C421 0.933 . S
H436 C427 0.930 . S
H437 C428 0.931 . S
H438 C429 0.931 . S
H439 C430 0.933 . S
Dy440 O443 2.307 1_556 S
Dy440 O445 2.395 1_455 S
Dy440 O446 2.379 1_455 S
Dy440 O448 2.339 . S
Dy440 O450 2.298 1_455 S
Dy440 O454 2.275 1_456 S
Dy440 C462 2.738 1_455 S
Dy441 O444 2.298 . S
Dy441 O447 2.275 1_554 S
Dy441 O449 2.307 1_455 S
Dy441 O451 2.395 . S
Dy441 O452 2.379 . S
Dy441 O455 2.339 1_455 S
Dy441 C471 2.738 . S
C442 O454 1.254 . S
C442 O455 1.257 . S
O443 Dy440 2.307 1_554 S
O443 C453 1.266 . S
O444 Dy441 2.298 . S
O444 C453 1.236 . S
O445 Dy440 2.395 1_655 S
O445 C462 1.255 . S
O446 Dy440 2.379 1_655 S
O446 C462 1.249 . S
O447 Dy441 2.275 1_556 S
O447 C463 1.254 . S
O448 Dy440 2.339 . S
O448 C463 1.257 . S
O449 Dy441 2.307 1_655 S
O449 C464 1.266 1_554 S
O450 Dy440 2.298 1_655 S
O450 C464 1.236 . S
O451 Dy441 2.395 . S
O451 C471 1.255 . S
O452 Dy441 2.379 . S
O452 C471 1.249 . S
C453 O443 1.266 . S
C453 O444 1.236 . S
O454 Dy440 2.275 1_654 S
O454 C442 1.254 . S
O455 Dy441 2.339 1_655 S
O455 C442 1.257 . S
C456 C459 1.344 . S
C456 C460 1.328 . S
C456 C462 1.516 . S
C457 C458 1.304 . S
C457 C461 1.323 . S
C458 C457 1.304 . S
C458 C459 1.371 . S
C458 H472 0.930 . S
C459 C456 1.344 . S
C459 C458 1.371 . S
C459 H473 0.931 . S
C460 C456 1.328 . S
C460 C461 1.433 . S
C460 H474 0.931 . S
C461 C457 1.323 . S
C461 C460 1.433 . S
C461 H475 0.933 . S
C462 Dy440 2.738 1_655 S
C462 O445 1.255 . S
C462 O446 1.249 . S
C462 C456 1.516 . S
C463 O447 1.254 . S
C463 O448 1.257 . S
C464 O449 1.266 1_556 S
C464 O450 1.236 . S
C465 C468 1.344 . S
C465 C469 1.328 . S
C465 C471 1.516 . S
C466 C467 1.304 . S
C466 C470 1.323 . S
C467 C466 1.304 . S
C467 C468 1.371 . S
C467 H476 0.930 . S
C468 C465 1.344 . S
C468 C467 1.371 . S
C468 H477 0.931 . S
C469 C465 1.328 . S
C469 C470 1.433 . S
C469 H478 0.931 . S
C470 C466 1.323 . S
C470 C469 1.433 . S
C470 H479 0.933 . S
C471 Dy441 2.738 . S
C471 O451 1.255 . S
C471 O452 1.249 . S
C471 C465 1.516 . S
H472 C458 0.930 . S
H473 C459 0.931 . S
H474 C460 0.931 . S
H475 C461 0.933 . S
H476 C467 0.930 . S
H477 C468 0.931 . S
H478 C469 0.931 . S
H479 C470 0.933 . S
H480 C486 0.930 . S
H481 C490 0.930 . S
H482 C495 0.929 . S
H483 C493 0.929 . S
H484 C488 0.929 . S
H485 C494 0.929 . S
C486 H480 0.930 . S
C486 C487 1.367 . S
C486 C494 1.378 . S
C487 C486 1.367 . S
C487 C495 1.433 . S
C488 H484 0.929 . S
C488 C490 1.378 . S
C488 C492 1.350 . S
C489 C492 1.463 . S
C489 C494 1.350 . S
C489 N497 1.427 . S
C490 H481 0.930 . S
C490 C488 1.378 . S
C490 C491 1.367 . S
C491 C490 1.367 . S
C491 C493 1.433 . S
C492 C488 1.350 . S
C492 C489 1.463 . S
C492 N496 1.427 . S
C493 H483 0.929 . S
C493 C491 1.433 . S
C493 N496 1.384 . S
C494 H485 0.929 . S
C494 C486 1.378 . S
C494 C489 1.350 . S
C495 H482 0.929 . S
C495 C487 1.433 . S
C495 N497 1.384 . S
N496 C492 1.427 . S
N496 C493 1.384 . S
N497 C489 1.427 . S
N497 C495 1.384 . S
H498 C504 0.930 . S
H499 C508 0.930 . S
H500 C513 0.929 . S
H501 C511 0.929 . S
H502 C506 0.929 . S
H503 C512 0.929 . S
C504 H498 0.930 . S
C504 C505 1.367 . S
C504 C512 1.378 . S
C505 C504 1.367 . S
C505 C513 1.433 . S
C506 H502 0.929 . S
C506 C508 1.378 . S
C506 C510 1.350 . S
C507 C510 1.463 . S
C507 C512 1.350 . S
C507 N515 1.427 . S
C508 H499 0.930 . S
C508 C506 1.378 . S
C508 C509 1.367 . S
C509 C508 1.367 . S
C509 C511 1.433 . S
C510 C506 1.350 . S
C510 C507 1.463 . S
C510 N514 1.427 . S
C511 H501 0.929 . S
C511 C509 1.433 . S
C511 N514 1.384 . S
C512 H503 0.929 . S
C512 C504 1.378 . S
C512 C507 1.350 . S
C513 H500 0.929 . S
C513 C505 1.433 . S
C513 N515 1.384 . S
N514 C510 1.427 . S
N514 C511 1.384 . S
N515 C507 1.427 . S
N515 C513 1.384 . S
H516 C522 0.930 . S
H517 C526 0.930 . S
H518 C531 0.929 . S
H519 C529 0.929 . S
H520 C524 0.929 . S
H521 C530 0.929 . S
C522 H516 0.930 . S
C522 C523 1.367 . S
C522 C530 1.378 . S
C523 C522 1.367 . S
C523 C531 1.433 . S
C524 H520 0.929 . S
C524 C526 1.378 . S
C524 C528 1.350 . S
C525 C528 1.463 . S
C525 C530 1.350 . S
C525 N533 1.427 . S
C526 H517 0.930 . S
C526 C524 1.378 . S
C526 C527 1.367 . S
C527 C526 1.367 . S
C527 C529 1.433 . S
C528 C524 1.350 . S
C528 C525 1.463 . S
C528 N532 1.427 . S
C529 H519 0.929 . S
C529 C527 1.433 . S
C529 N532 1.384 . S
C530 H521 0.929 . S
C530 C522 1.378 . S
C530 C525 1.350 . S
C531 H518 0.929 . S
C531 C523 1.433 . S
C531 N533 1.384 . S
N532 C528 1.427 . S
N532 C529 1.384 . S
N533 C525 1.427 . S
N533 C531 1.384 . S
H534 C540 0.930 . S
H535 C544 0.930 . S
H536 C549 0.929 . S
H537 C547 0.929 . S
H538 C542 0.929 . S
H539 C548 0.929 . S
C540 H534 0.930 . S
C540 C541 1.367 . S
C540 C548 1.378 . S
C541 C540 1.367 . S
C541 C549 1.433 . S
C542 H538 0.929 . S
C542 C544 1.378 . S
C542 C546 1.350 . S
C543 C546 1.463 . S
C543 C548 1.350 . S
C543 N551 1.427 . S
C544 H535 0.930 . S
C544 C542 1.378 . S
C544 C545 1.367 . S
C545 C544 1.367 . S
C545 C547 1.433 . S
C546 C542 1.350 . S
C546 C543 1.463 . S
C546 N550 1.427 . S
C547 H537 0.929 . S
C547 C545 1.433 . S
C547 N550 1.384 . S
C548 H539 0.929 . S
C548 C540 1.378 . S
C548 C543 1.350 . S
C549 H536 0.929 . S
C549 C541 1.433 . S
C549 N551 1.384 . S
N550 C546 1.427 . S
N550 C547 1.384 . S
N551 C543 1.427 . S
N551 C549 1.384 . S
H552 C558 0.930 . S
H553 C562 0.930 . S
H554 C567 0.929 . S
H555 C565 0.929 . S
H556 C560 0.929 . S
H557 C566 0.929 . S
C558 H552 0.930 . S
C558 C559 1.367 . S
C558 C566 1.378 . S
C559 C558 1.367 . S
C559 C567 1.433 . S
C560 H556 0.929 . S
C560 C562 1.378 . S
C560 C564 1.350 . S
C561 C564 1.463 . S
C561 C566 1.350 . S
C561 N569 1.427 . S
C562 H553 0.930 . S
C562 C560 1.378 . S
C562 C563 1.367 . S
C563 C562 1.367 . S
C563 C565 1.433 . S
C564 C560 1.350 . S
C564 C561 1.463 . S
C564 N568 1.427 . S
C565 H555 0.929 . S
C565 C563 1.433 . S
C565 N568 1.384 . S
C566 H557 0.929 . S
C566 C558 1.378 . S
C566 C561 1.350 . S
C567 H554 0.929 . S
C567 C559 1.433 . S
C567 N569 1.384 . S
N568 C564 1.427 . S
N568 C565 1.384 . S
N569 C561 1.427 . S
N569 C567 1.384 . S
H570 C576 0.930 . S
H571 C580 0.930 . S
H572 C585 0.929 . S
H573 C583 0.929 . S
H574 C578 0.929 . S
H575 C584 0.929 . S
C576 H570 0.930 . S
C576 C577 1.367 . S
C576 C584 1.378 . S
C577 C576 1.367 . S
C577 C585 1.433 . S
C578 H574 0.929 . S
C578 C580 1.378 . S
C578 C582 1.350 . S
C579 C582 1.463 . S
C579 C584 1.350 . S
C579 N587 1.427 . S
C580 H571 0.930 . S
C580 C578 1.378 . S
C580 C581 1.367 . S
C581 C580 1.367 . S
C581 C583 1.433 . S
C582 C578 1.350 . S
C582 C579 1.463 . S
C582 N586 1.427 . S
C583 H573 0.929 . S
C583 C581 1.433 . S
C583 N586 1.384 . S
C584 H575 0.929 . S
C584 C576 1.378 . S
C584 C579 1.350 . S
C585 H572 0.929 . S
C585 C577 1.433 . S
C585 N587 1.384 . S
N586 C582 1.427 . S
N586 C583 1.384 . S
N587 C579 1.427 . S
N587 C585 1.384 . S
H588 C594 0.930 . S
H589 C598 0.930 . S
H590 C603 0.929 . S
H591 C601 0.929 . S
H592 C596 0.929 . S
H593 C602 0.929 . S
C594 H588 0.930 . S
C594 C595 1.367 . S
C594 C602 1.378 . S
C595 C594 1.367 . S
C595 C603 1.433 . S
C596 H592 0.929 . S
C596 C598 1.378 . S
C596 C600 1.350 . S
C597 C600 1.463 . S
C597 C602 1.350 . S
C597 N605 1.427 . S
C598 H589 0.930 . S
C598 C596 1.378 . S
C598 C599 1.367 . S
C599 C598 1.367 . S
C599 C601 1.433 . S
C600 C596 1.350 . S
C600 C597 1.463 . S
C600 N604 1.427 . S
C601 H591 0.929 . S
C601 C599 1.433 . S
C601 N604 1.384 . S
C602 H593 0.929 . S
C602 C594 1.378 . S
C602 C597 1.350 . S
C603 H590 0.929 . S
C603 C595 1.433 . S
C603 N605 1.384 . S
N604 C600 1.427 . S
N604 C601 1.384 . S
N605 C597 1.427 . S
N605 C603 1.384 . S
H606 C612 0.930 . S
H607 C616 0.930 . S
H608 C621 0.929 . S
H609 C619 0.929 . S
H610 C614 0.929 . S
H611 C620 0.929 . S
C612 H606 0.930 . S
C612 C613 1.367 . S
C612 C620 1.378 . S
C613 C612 1.367 . S
C613 C621 1.433 . S
C614 H610 0.929 . S
C614 C616 1.378 . S
C614 C618 1.350 . S
C615 C618 1.463 . S
C615 C620 1.350 . S
C615 N623 1.427 . S
C616 H607 0.930 . S
C616 C614 1.378 . S
C616 C617 1.367 . S
C617 C616 1.367 . S
C617 C619 1.433 . S
C618 C614 1.350 . S
C618 C615 1.463 . S
C618 N622 1.427 . S
C619 H609 0.929 . S
C619 C617 1.433 . S
C619 N622 1.384 . S
C620 H611 0.929 . S
C620 C612 1.378 . S
C620 C615 1.350 . S
C621 H608 0.929 . S
C621 C613 1.433 . S
C621 N623 1.384 . S
N622 C618 1.427 . S
N622 C619 1.384 . S
N623 C615 1.427 . S
N623 C621 1.384 . S
H624 C630 0.930 . S
H625 C634 0.930 . S
H626 C639 0.929 . S
H627 C637 0.929 . S
H628 C632 0.929 . S
H629 C638 0.929 . S
C630 H624 0.930 . S
C630 C631 1.367 . S
C630 C638 1.378 . S
C631 C630 1.367 . S
C631 C639 1.433 . S
C632 H628 0.929 . S
C632 C634 1.378 . S
C632 C636 1.350 . S
C633 C636 1.463 . S
C633 C638 1.350 . S
C633 N641 1.427 . S
C634 H625 0.930 . S
C634 C632 1.378 . S
C634 C635 1.367 . S
C635 C634 1.367 . S
C635 C637 1.433 . S
C636 C632 1.350 . S
C636 C633 1.463 . S
C636 N640 1.427 . S
C637 H627 0.929 . S
C637 C635 1.433 . S
C637 N640 1.384 . S
C638 H629 0.929 . S
C638 C630 1.378 . S
C638 C633 1.350 . S
C639 H626 0.929 . S
C639 C631 1.433 . S
C639 N641 1.384 . S
N640 C636 1.427 . S
N640 C637 1.384 . S
N641 C633 1.427 . S
N641 C639 1.384 . S
H642 C648 0.930 . S
H643 C652 0.930 . S
H644 C657 0.929 . S
H645 C655 0.929 . S
H646 C650 0.929 . S
H647 C656 0.929 . S
C648 H642 0.930 . S
C648 C649 1.367 . S
C648 C656 1.378 . S
C649 C648 1.367 . S
C649 C657 1.433 . S
C650 H646 0.929 . S
C650 C652 1.378 . S
C650 C654 1.350 . S
C651 C654 1.463 . S
C651 C656 1.350 . S
C651 N659 1.427 . S
C652 H643 0.930 . S
C652 C650 1.378 . S
C652 C653 1.367 . S
C653 C652 1.367 . S
C653 C655 1.433 . S
C654 C650 1.350 . S
C654 C651 1.463 . S
C654 N658 1.427 . S
C655 H645 0.929 . S
C655 C653 1.433 . S
C655 N658 1.384 . S
C656 H647 0.929 . S
C656 C648 1.378 . S
C656 C651 1.350 . S
C657 H644 0.929 . S
C657 C649 1.433 . S
C657 N659 1.384 . S
N658 C654 1.427 . S
N658 C655 1.384 . S
N659 C651 1.427 . S
N659 C657 1.384 . S
H660 C666 0.930 . S
H661 C670 0.930 . S
H662 C675 0.929 . S
H663 C673 0.929 . S
H664 C668 0.929 . S
H665 C674 0.929 . S
C666 H660 0.930 . S
C666 C667 1.367 . S
C666 C674 1.378 . S
C667 C666 1.367 . S
C667 C675 1.433 . S
C668 H664 0.929 . S
C668 C670 1.378 . S
C668 C672 1.350 . S
C669 C672 1.463 . S
C669 C674 1.350 . S
C669 N677 1.427 . S
C670 H661 0.930 . S
C670 C668 1.378 . S
C670 C671 1.367 . S
C671 C670 1.367 . S
C671 C673 1.433 . S
C672 C668 1.350 . S
C672 C669 1.463 . S
C672 N676 1.427 . S
C673 H663 0.929 . S
C673 C671 1.433 . S
C673 N676 1.384 . S
C674 H665 0.929 . S
C674 C666 1.378 . S
C674 C669 1.350 . S
C675 H662 0.929 . S
C675 C667 1.433 . S
C675 N677 1.384 . S
N676 C672 1.427 . S
N676 C673 1.384 . S
N677 C669 1.427 . S
N677 C675 1.384 . S
H678 C684 0.930 . S
H679 C688 0.930 . S
H680 C693 0.929 . S
H681 C691 0.929 . S
H682 C686 0.929 . S
H683 C692 0.929 . S
C684 H678 0.930 . S
C684 C685 1.367 . S
C684 C692 1.378 . S
C685 C684 1.367 . S
C685 C693 1.433 . S
C686 H682 0.929 . S
C686 C688 1.378 . S
C686 C690 1.350 . S
C687 C690 1.463 . S
C687 C692 1.350 . S
C687 N695 1.427 . S
C688 H679 0.930 . S
C688 C686 1.378 . S
C688 C689 1.367 . S
C689 C688 1.367 . S
C689 C691 1.433 . S
C690 C686 1.350 . S
C690 C687 1.463 . S
C690 N694 1.427 . S
C691 H681 0.929 . S
C691 C689 1.433 . S
C691 N694 1.384 . S
C692 H683 0.929 . S
C692 C684 1.378 . S
C692 C687 1.350 . S
C693 H680 0.929 . S
C693 C685 1.433 . S
C693 N695 1.384 . S
N694 C690 1.427 . S
N694 C691 1.384 . S
N695 C687 1.427 . S
N695 C693 1.384 . S
H696 C702 0.930 . S
H697 C706 0.930 . S
H698 C711 0.929 . S
H699 C709 0.929 . S
H700 C704 0.929 . S
H701 C710 0.929 . S
C702 H696 0.930 . S
C702 C703 1.367 . S
C702 C710 1.378 . S
C703 C702 1.367 . S
C703 C711 1.433 . S
C704 H700 0.929 . S
C704 C706 1.378 . S
C704 C708 1.350 . S
C705 C708 1.463 . S
C705 C710 1.350 . S
C705 N713 1.427 . S
C706 H697 0.930 . S
C706 C704 1.378 . S
C706 C707 1.367 . S
C707 C706 1.367 . S
C707 C709 1.433 . S
C708 C704 1.350 . S
C708 C705 1.463 . S
C708 N712 1.427 . S
C709 H699 0.929 . S
C709 C707 1.433 . S
C709 N712 1.384 . S
C710 H701 0.929 . S
C710 C702 1.378 . S
C710 C705 1.350 . S
C711 H698 0.929 . S
C711 C703 1.433 . S
C711 N713 1.384 . S
N712 C708 1.427 . S
N712 C709 1.384 . S
N713 C705 1.427 . S
N713 C711 1.384 . S
H714 C720 0.930 . S
H715 C724 0.930 . S
H716 C729 0.929 . S
H717 C727 0.929 . S
H718 C722 0.929 . S
H719 C728 0.929 . S
C720 H714 0.930 . S
C720 C721 1.367 . S
C720 C728 1.378 . S
C721 C720 1.367 . S
C721 C729 1.433 . S
C722 H718 0.929 . S
C722 C724 1.378 . S
C722 C726 1.350 . S
C723 C726 1.463 . S
C723 C728 1.350 . S
C723 N731 1.427 . S
C724 H715 0.930 . S
C724 C722 1.378 . S
C724 C725 1.367 . S
C725 C724 1.367 . S
C725 C727 1.433 . S
C726 C722 1.350 . S
C726 C723 1.463 . S
C726 N730 1.427 . S
C727 H717 0.929 . S
C727 C725 1.433 . S
C727 N730 1.384 . S
C728 H719 0.929 . S
C728 C720 1.378 . S
C728 C723 1.350 . S
C729 H716 0.929 . S
C729 C721 1.433 . S
C729 N731 1.384 . S
N730 C726 1.427 . S
N730 C727 1.384 . S
N731 C723 1.427 . S
N731 C729 1.384 . S
H732 C738 0.930 . S
H733 C742 0.930 . S
H734 C747 0.929 . S
H735 C745 0.929 . S
H736 C740 0.929 . S
H737 C746 0.929 . S
C738 H732 0.930 . S
C738 C739 1.367 . S
C738 C746 1.378 . S
C739 C738 1.367 . S
C739 C747 1.433 . S
C740 H736 0.929 . S
C740 C742 1.378 . S
C740 C744 1.350 . S
C741 C744 1.463 . S
C741 C746 1.350 . S
C741 N749 1.427 . S
C742 H733 0.930 . S
C742 C740 1.378 . S
C742 C743 1.367 . S
C743 C742 1.367 . S
C743 C745 1.433 . S
C744 C740 1.350 . S
C744 C741 1.463 . S
C744 N748 1.427 . S
C745 H735 0.929 . S
C745 C743 1.433 . S
C745 N748 1.384 . S
C746 H737 0.929 . S
C746 C738 1.378 . S
C746 C741 1.350 . S
C747 H734 0.929 . S
C747 C739 1.433 . S
C747 N749 1.384 . S
N748 C744 1.427 . S
N748 C745 1.384 . S
N749 C741 1.427 . S
N749 C747 1.384 . S
H750 C756 0.930 . S
H751 C760 0.930 . S
H752 C765 0.929 . S
H753 C763 0.929 . S
H754 C758 0.929 . S
H755 C764 0.929 . S
C756 H750 0.930 . S
C756 C757 1.367 . S
C756 C764 1.378 . S
C757 C756 1.367 . S
C757 C765 1.433 . S
C758 H754 0.929 . S
C758 C760 1.378 . S
C758 C762 1.350 . S
C759 C762 1.463 . S
C759 C764 1.350 . S
C759 N767 1.427 . S
C760 H751 0.930 . S
C760 C758 1.378 . S
C760 C761 1.367 . S
C761 C760 1.367 . S
C761 C763 1.433 . S
C762 C758 1.350 . S
C762 C759 1.463 . S
C762 N766 1.427 . S
C763 H753 0.929 . S
C763 C761 1.433 . S
C763 N766 1.384 . S
C764 H755 0.929 . S
C764 C756 1.378 . S
C764 C759 1.350 . S
C765 H752 0.929 . S
C765 C757 1.433 . S
C765 N767 1.384 . S
N766 C762 1.427 . S
N766 C763 1.384 . S
N767 C759 1.427 . S
N767 C765 1.384 . S
H768 C774 0.930 . S
H769 C778 0.930 . S
H770 C783 0.929 . S
H771 C781 0.929 . S
H772 C776 0.929 . S
H773 C782 0.929 . S
C774 H768 0.930 . S
C774 C775 1.367 . S
C774 C782 1.378 . S
C775 C774 1.367 . S
C775 C783 1.433 . S
C776 H772 0.929 . S
C776 C778 1.378 . S
C776 C780 1.350 . S
C777 C780 1.463 . S
C777 C782 1.350 . S
C777 N785 1.427 . S
C778 H769 0.930 . S
C778 C776 1.378 . S
C778 C779 1.367 . S
C779 C778 1.367 . S
C779 C781 1.433 . S
C780 C776 1.350 . S
C780 C777 1.463 . S
C780 N784 1.427 . S
C781 H771 0.929 . S
C781 C779 1.433 . S
C781 N784 1.384 . S
C782 H773 0.929 . S
C782 C774 1.378 . S
C782 C777 1.350 . S
C783 H770 0.929 . S
C783 C775 1.433 . S
C783 N785 1.384 . S
N784 C780 1.427 . S
N784 C781 1.384 . S
N785 C777 1.427 . S
N785 C783 1.384 . S
H786 C792 0.930 . S
H787 C796 0.930 . S
H788 C801 0.929 . S
H789 C799 0.929 . S
H790 C794 0.929 . S
H791 C800 0.929 . S
C792 H786 0.930 . S
C792 C793 1.367 . S
C792 C800 1.378 . S
C793 C792 1.367 . S
C793 C801 1.433 . S
C794 H790 0.929 . S
C794 C796 1.378 . S
C794 C798 1.350 . S
C795 C798 1.463 . S
C795 C800 1.350 . S
C795 N803 1.427 . S
C796 H787 0.930 . S
C796 C794 1.378 . S
C796 C797 1.367 . S
C797 C796 1.367 . S
C797 C799 1.433 . S
C798 C794 1.350 . S
C798 C795 1.463 . S
C798 N802 1.427 . S
C799 H789 0.929 . S
C799 C797 1.433 . S
C799 N802 1.384 . S
C800 H791 0.929 . S
C800 C792 1.378 . S
C800 C795 1.350 . S
C801 H788 0.929 . S
C801 C793 1.433 . S
C801 N803 1.384 . S
N802 C798 1.427 . S
N802 C799 1.384 . S
N803 C795 1.427 . S
N803 C801 1.384 . S
H804 C810 0.930 . S
H805 C814 0.930 . S
H806 C819 0.929 . S
H807 C817 0.929 . S
H808 C812 0.929 . S
H809 C818 0.929 . S
C810 H804 0.930 . S
C810 C811 1.367 . S
C810 C818 1.378 . S
C811 C810 1.367 . S
C811 C819 1.433 . S
C812 H808 0.929 . S
C812 C814 1.378 . S
C812 C816 1.350 . S
C813 C816 1.463 . S
C813 C818 1.350 . S
C813 N821 1.427 . S
C814 H805 0.930 . S
C814 C812 1.378 . S
C814 C815 1.367 . S
C815 C814 1.367 . S
C815 C817 1.433 . S
C816 C812 1.350 . S
C816 C813 1.463 . S
C816 N820 1.427 . S
C817 H807 0.929 . S
C817 C815 1.433 . S
C817 N820 1.384 . S
C818 H809 0.929 . S
C818 C810 1.378 . S
C818 C813 1.350 . S
C819 H806 0.929 . S
C819 C811 1.433 . S
C819 N821 1.384 . S
N820 C816 1.427 . S
N820 C817 1.384 . S
N821 C813 1.427 . S
N821 C819 1.384 . S
H822 C828 0.930 . S
H823 C832 0.930 . S
H824 C837 0.929 . S
H825 C835 0.929 . S
H826 C830 0.929 . S
H827 C836 0.929 . S
C828 H822 0.930 . S
C828 C829 1.367 . S
C828 C836 1.378 . S
C829 C828 1.367 . S
C829 C837 1.433 . S
C830 H826 0.929 . S
C830 C832 1.378 . S
C830 C834 1.350 . S
C831 C834 1.463 . S
C831 C836 1.350 . S
C831 N839 1.427 . S
C832 H823 0.930 . S
C832 C830 1.378 . S
C832 C833 1.367 . S
C833 C832 1.367 . S
C833 C835 1.433 . S
C834 C830 1.350 . S
C834 C831 1.463 . S
C834 N838 1.427 . S
C835 H825 0.929 . S
C835 C833 1.433 . S
C835 N838 1.384 . S
C836 H827 0.929 . S
C836 C828 1.378 . S
C836 C831 1.350 . S
C837 H824 0.929 . S
C837 C829 1.433 . S
C837 N839 1.384 . S
N838 C834 1.427 . S
N838 C835 1.384 . S
N839 C831 1.427 . S
N839 C837 1.384 . S
H840 C846 0.930 . S
H841 C850 0.930 . S
H842 C855 0.929 . S
H843 C853 0.929 . S
H844 C848 0.929 . S
H845 C854 0.929 . S
C846 H840 0.930 . S
C846 C847 1.367 . S
C846 C854 1.378 . S
C847 C846 1.367 . S
C847 C855 1.433 . S
C848 H844 0.929 . S
C848 C850 1.378 . S
C848 C852 1.350 . S
C849 C852 1.463 . S
C849 C854 1.350 . S
C849 N857 1.427 . S
C850 H841 0.930 . S
C850 C848 1.378 . S
C850 C851 1.367 . S
C851 C850 1.367 . S
C851 C853 1.433 . S
C852 C848 1.350 . S
C852 C849 1.463 . S
C852 N856 1.427 . S
C853 H843 0.929 . S
C853 C851 1.433 . S
C853 N856 1.384 . S
C854 H845 0.929 . S
C854 C846 1.378 . S
C854 C849 1.350 . S
C855 H842 0.929 . S
C855 C847 1.433 . S
C855 N857 1.384 . S
N856 C852 1.427 . S
N856 C853 1.384 . S
N857 C849 1.427 . S
N857 C855 1.384 . S
H858 C864 0.930 . S
H859 C868 0.930 . S
H860 C873 0.929 . S
H861 C871 0.929 . S
H862 C866 0.929 . S
H863 C872 0.929 . S
C864 H858 0.930 . S
C864 C865 1.367 . S
C864 C872 1.378 . S
C865 C864 1.367 . S
C865 C873 1.433 . S
C866 H862 0.929 . S
C866 C868 1.378 . S
C866 C870 1.350 . S
C867 C870 1.463 . S
C867 C872 1.350 . S
C867 N875 1.427 . S
C868 H859 0.930 . S
C868 C866 1.378 . S
C868 C869 1.367 . S
C869 C868 1.367 . S
C869 C871 1.433 . S
C870 C866 1.350 . S
C870 C867 1.463 . S
C870 N874 1.427 . S
C871 H861 0.929 . S
C871 C869 1.433 . S
C871 N874 1.384 . S
C872 H863 0.929 . S
C872 C864 1.378 . S
C872 C867 1.350 . S
C873 H860 0.929 . S
C873 C865 1.433 . S
C873 N875 1.384 . S
N874 C870 1.427 . S
N874 C871 1.384 . S
N875 C867 1.427 . S
N875 C873 1.384 . S
H876 C882 0.930 . S
H877 C886 0.930 1_655 S
H878 C891 0.929 . S
H879 C889 0.929 . S
H880 C884 0.929 . S
H881 C890 0.929 . S
C882 H876 0.930 . S
C882 C883 1.367 . S
C882 C890 1.378 . S
C883 C882 1.367 . S
C883 C891 1.433 . S
C884 H880 0.929 . S
C884 C886 1.378 . S
C884 C888 1.350 . S
C885 C888 1.463 . S
C885 C890 1.350 . S
C885 N893 1.427 . S
C886 H877 0.930 1_455 S
C886 C884 1.378 . S
C886 C887 1.367 . S
C887 C886 1.367 . S
C887 C889 1.433 . S
C888 C884 1.350 . S
C888 C885 1.463 . S
C888 N892 1.427 . S
C889 H879 0.929 . S
C889 C887 1.433 . S
C889 N892 1.384 . S
C890 H881 0.929 . S
C890 C882 1.378 . S
C890 C885 1.350 . S
C891 H878 0.929 . S
C891 C883 1.433 . S
C891 N893 1.384 . S
N892 C888 1.427 . S
N892 C889 1.384 . S
N893 C885 1.427 . S
N893 C891 1.384 . S
H894 C900 0.930 . S
H895 C904 0.930 . S
H896 C909 0.929 . S
H897 C907 0.929 . S
H898 C902 0.929 . S
H899 C908 0.929 . S
C900 H894 0.930 . S
C900 C901 1.367 . S
C900 C908 1.378 . S
C901 C900 1.367 . S
C901 C909 1.433 . S
C902 H898 0.929 . S
C902 C904 1.378 . S
C902 C906 1.350 . S
C903 C906 1.463 . S
C903 C908 1.350 . S
C903 N911 1.427 . S
C904 H895 0.930 . S
C904 C902 1.378 . S
C904 C905 1.367 . S
C905 C904 1.367 . S
C905 C907 1.433 . S
C906 C902 1.350 . S
C906 C903 1.463 . S
C906 N910 1.427 . S
C907 H897 0.929 . S
C907 C905 1.433 . S
C907 N910 1.384 . S
C908 H899 0.929 . S
C908 C900 1.378 . S
C908 C903 1.350 . S
C909 H896 0.929 . S
C909 C901 1.433 . S
C909 N911 1.384 . S
N910 C906 1.427 . S
N910 C907 1.384 . S
N911 C903 1.427 . S
N911 C909 1.384 . S
C487 C21 1.246 . S
C491 C337 1.339 . S
C505 C61 1.343 . S
C509 C377 1.339 . S
C527 C402 2.301 . S
C523 C82 2.355 . S
C541 C135 2.439 . S
C545 C442 2.378 . S
C563 C373 1.933 . S
C559 C15 1.838 . S
C581 C333 1.935 . S
C577 C42 1.908 . S
C599 C464 1.675 . S
C595 C101 1.686 . S
C617 C424 1.627 . S
C613 C122 1.647 . S
C631 C2 1.386 . S
C635 C466 1.468 . S
C653 C383 2.072 . S
C649 C95 2.112 . S
C667 C141 2.210 . S
C671 C343 2.174 . S
C685 C55 1.450 . S
C689 C426 1.477 . S
C707 C346 1.352 . S
C703 C181 1.354 . S
C721 C202 1.299 . S
C725 C386 1.309 . S
C739 C255 2.377 . S
C743 C423 2.313 . S
C757 C295 2.410 . S
C761 C463 2.352 . S
C775 C175 1.829 . S
C779 C384 1.910 . S
C797 C344 1.929 . S
C793 C221 1.893 . S
C815 C453 1.590 . S
C811 C242 1.616 . S
C833 C413 1.688 . S
C829 C301 1.693 . S
C847 C162 1.475 . S
C851 C457 1.455 . S
C869 C362 2.124 . S
C865 C261 2.136 . S
C887 C322 2.142 . S
C883 C282 2.190 . S
C901 C215 1.454 . S
C905 C417 1.489 . S
