# Generated by pormake.
# Topology ibd, (4,6)-cn, num edge types: 1
# Building blocks:
#     Node 0, Type 0, BuildingBlock: GALJAG_clean_sbu_0, # of connection points: 4
#     Node 1, Type 0, BuildingBlock: GALJAG_clean_sbu_0, # of connection points: 4
#     Node 2, Type 0, BuildingBlock: GALJAG_clean_sbu_0, # of connection points: 4
#     Node 3, Type 0, BuildingBlock: GALJAG_clean_sbu_0, # of connection points: 4
#     Node 4, Type 0, BuildingBlock: GALJAG_clean_sbu_0, # of connection points: 4
#     Node 5, Type 0, BuildingBlock: GALJAG_clean_sbu_0, # of connection points: 4
#     Node 6, Type 0, BuildingBlock: GALJAG_clean_sbu_0, # of connection points: 4
#     Node 7, Type 0, BuildingBlock: GALJAG_clean_sbu_0, # of connection points: 4
#     Node 8, Type 0, BuildingBlock: GALJAG_clean_sbu_0, # of connection points: 4
#     Node 9, Type 0, BuildingBlock: GALJAG_clean_sbu_0, # of connection points: 4
#     Node 10, Type 0, BuildingBlock: GALJAG_clean_sbu_0, # of connection points: 4
#     Node 11, Type 0, BuildingBlock: GALJAG_clean_sbu_0, # of connection points: 4
#     Node 12, Type 0, BuildingBlock: GALJAG_clean_sbu_0, # of connection points: 4
#     Node 13, Type 0, BuildingBlock: GALJAG_clean_sbu_0, # of connection points: 4
#     Node 14, Type 0, BuildingBlock: GALJAG_clean_sbu_0, # of connection points: 4
#     Node 15, Type 0, BuildingBlock: GALJAG_clean_sbu_0, # of connection points: 4
#     Node 16, Type 0, BuildingBlock: GALJAG_clean_sbu_0, # of connection points: 4
#     Node 17, Type 0, BuildingBlock: GALJAG_clean_sbu_0, # of connection points: 4
#     Node 18, Type 0, BuildingBlock: GALJAG_clean_sbu_0, # of connection points: 4
#     Node 19, Type 0, BuildingBlock: GALJAG_clean_sbu_0, # of connection points: 4
#     Node 20, Type 0, BuildingBlock: GALJAG_clean_sbu_0, # of connection points: 4
#     Node 21, Type 0, BuildingBlock: GALJAG_clean_sbu_0, # of connection points: 4
#     Node 22, Type 0, BuildingBlock: GALJAG_clean_sbu_0, # of connection points: 4
#     Node 23, Type 0, BuildingBlock: GALJAG_clean_sbu_0, # of connection points: 4
#     Node 24, Type 1, BuildingBlock: OJICUG_clean_sbu_0, # of connection points: 6
#     Node 25, Type 1, BuildingBlock: OJICUG_clean_sbu_0, # of connection points: 6
#     Node 26, Type 1, BuildingBlock: OJICUG_clean_sbu_0, # of connection points: 6
#     Node 27, Type 1, BuildingBlock: OJICUG_clean_sbu_0, # of connection points: 6
#     Node 28, Type 1, BuildingBlock: OJICUG_clean_sbu_0, # of connection points: 6
#     Node 29, Type 1, BuildingBlock: OJICUG_clean_sbu_0, # of connection points: 6
#     Node 30, Type 1, BuildingBlock: OJICUG_clean_sbu_0, # of connection points: 6
#     Node 31, Type 1, BuildingBlock: OJICUG_clean_sbu_0, # of connection points: 6
#     Node 32, Type 1, BuildingBlock: OJICUG_clean_sbu_0, # of connection points: 6
#     Node 33, Type 1, BuildingBlock: OJICUG_clean_sbu_0, # of connection points: 6
#     Node 34, Type 1, BuildingBlock: OJICUG_clean_sbu_0, # of connection points: 6
#     Node 35, Type 1, BuildingBlock: OJICUG_clean_sbu_0, # of connection points: 6
#     Node 36, Type 1, BuildingBlock: OJICUG_clean_sbu_0, # of connection points: 6
#     Node 37, Type 1, BuildingBlock: OJICUG_clean_sbu_0, # of connection points: 6
#     Node 38, Type 1, BuildingBlock: OJICUG_clean_sbu_0, # of connection points: 6
#     Node 39, Type 1, BuildingBlock: OJICUG_clean_sbu_0, # of connection points: 6
#     Edge 40, Type (0, 1), BuildingBlock: XIVTED_clean_linker_0, # of connection points: 2
#     Edge 41, Type (0, 1), BuildingBlock: XIVTED_clean_linker_0, # of connection points: 2
#     Edge 42, Type (0, 1), BuildingBlock: XIVTED_clean_linker_0, # of connection points: 2
#     Edge 43, Type (0, 1), BuildingBlock: XIVTED_clean_linker_0, # of connection points: 2
#     Edge 44, Type (0, 1), BuildingBlock: XIVTED_clean_linker_0, # of connection points: 2
#     Edge 45, Type (0, 1), BuildingBlock: XIVTED_clean_linker_0, # of connection points: 2
#     Edge 46, Type (0, 1), BuildingBlock: XIVTED_clean_linker_0, # of connection points: 2
#     Edge 47, Type (0, 1), BuildingBlock: XIVTED_clean_linker_0, # of connection points: 2
#     Edge 48, Type (0, 1), BuildingBlock: XIVTED_clean_linker_0, # of connection points: 2
#     Edge 49, Type (0, 1), BuildingBlock: XIVTED_clean_linker_0, # of connection points: 2
#     Edge 50, Type (0, 1), BuildingBlock: XIVTED_clean_linker_0, # of connection points: 2
#     Edge 51, Type (0, 1), BuildingBlock: XIVTED_clean_linker_0, # of connection points: 2
#     Edge 52, Type (0, 1), BuildingBlock: XIVTED_clean_linker_0, # of connection points: 2
#     Edge 53, Type (0, 1), BuildingBlock: XIVTED_clean_linker_0, # of connection points: 2
#     Edge 54, Type (0, 1), BuildingBlock: XIVTED_clean_linker_0, # of connection points: 2
#     Edge 55, Type (0, 1), BuildingBlock: XIVTED_clean_linker_0, # of connection points: 2
#     Edge 56, Type (0, 1), BuildingBlock: XIVTED_clean_linker_0, # of connection points: 2
#     Edge 57, Type (0, 1), BuildingBlock: XIVTED_clean_linker_0, # of connection points: 2
#     Edge 58, Type (0, 1), BuildingBlock: XIVTED_clean_linker_0, # of connection points: 2
#     Edge 59, Type (0, 1), BuildingBlock: XIVTED_clean_linker_0, # of connection points: 2
#     Edge 60, Type (0, 1), BuildingBlock: XIVTED_clean_linker_0, # of connection points: 2
#     Edge 61, Type (0, 1), BuildingBlock: XIVTED_clean_linker_0, # of connection points: 2
#     Edge 62, Type (0, 1), BuildingBlock: XIVTED_clean_linker_0, # of connection points: 2
#     Edge 63, Type (0, 1), BuildingBlock: XIVTED_clean_linker_0, # of connection points: 2
#     Edge 64, Type (0, 1), BuildingBlock: XIVTED_clean_linker_0, # of connection points: 2
#     Edge 65, Type (0, 1), BuildingBlock: XIVTED_clean_linker_0, # of connection points: 2
#     Edge 66, Type (0, 1), BuildingBlock: XIVTED_clean_linker_0, # of connection points: 2
#     Edge 67, Type (0, 1), BuildingBlock: XIVTED_clean_linker_0, # of connection points: 2
#     Edge 68, Type (0, 1), BuildingBlock: XIVTED_clean_linker_0, # of connection points: 2
#     Edge 69, Type (0, 1), BuildingBlock: XIVTED_clean_linker_0, # of connection points: 2
#     Edge 70, Type (0, 1), BuildingBlock: XIVTED_clean_linker_0, # of connection points: 2
#     Edge 71, Type (0, 1), BuildingBlock: XIVTED_clean_linker_0, # of connection points: 2
#     Edge 72, Type (0, 1), BuildingBlock: XIVTED_clean_linker_0, # of connection points: 2
#     Edge 73, Type (0, 1), BuildingBlock: XIVTED_clean_linker_0, # of connection points: 2
#     Edge 74, Type (0, 1), BuildingBlock: XIVTED_clean_linker_0, # of connection points: 2
#     Edge 75, Type (0, 1), BuildingBlock: XIVTED_clean_linker_0, # of connection points: 2
#     Edge 76, Type (0, 1), BuildingBlock: XIVTED_clean_linker_0, # of connection points: 2
#     Edge 77, Type (0, 1), BuildingBlock: XIVTED_clean_linker_0, # of connection points: 2
#     Edge 78, Type (0, 1), BuildingBlock: XIVTED_clean_linker_0, # of connection points: 2
#     Edge 79, Type (0, 1), BuildingBlock: XIVTED_clean_linker_0, # of connection points: 2
#     Edge 80, Type (0, 1), BuildingBlock: XIVTED_clean_linker_0, # of connection points: 2
#     Edge 81, Type (0, 1), BuildingBlock: XIVTED_clean_linker_0, # of connection points: 2
#     Edge 82, Type (0, 1), BuildingBlock: XIVTED_clean_linker_0, # of connection points: 2
#     Edge 83, Type (0, 1), BuildingBlock: XIVTED_clean_linker_0, # of connection points: 2
#     Edge 84, Type (0, 1), BuildingBlock: XIVTED_clean_linker_0, # of connection points: 2
#     Edge 85, Type (0, 1), BuildingBlock: XIVTED_clean_linker_0, # of connection points: 2
#     Edge 86, Type (0, 1), BuildingBlock: XIVTED_clean_linker_0, # of connection points: 2
#     Edge 87, Type (0, 1), BuildingBlock: XIVTED_clean_linker_0, # of connection points: 2
#     Edge 88, Type (0, 1), BuildingBlock: XIVTED_clean_linker_0, # of connection points: 2
#     Edge 89, Type (0, 1), BuildingBlock: XIVTED_clean_linker_0, # of connection points: 2
#     Edge 90, Type (0, 1), BuildingBlock: XIVTED_clean_linker_0, # of connection points: 2
#     Edge 91, Type (0, 1), BuildingBlock: XIVTED_clean_linker_0, # of connection points: 2
#     Edge 92, Type (0, 1), BuildingBlock: XIVTED_clean_linker_0, # of connection points: 2
#     Edge 93, Type (0, 1), BuildingBlock: XIVTED_clean_linker_0, # of connection points: 2
#     Edge 94, Type (0, 1), BuildingBlock: XIVTED_clean_linker_0, # of connection points: 2
#     Edge 95, Type (0, 1), BuildingBlock: XIVTED_clean_linker_0, # of connection points: 2
#     Edge 96, Type (0, 1), BuildingBlock: XIVTED_clean_linker_0, # of connection points: 2
#     Edge 97, Type (0, 1), BuildingBlock: XIVTED_clean_linker_0, # of connection points: 2
#     Edge 98, Type (0, 1), BuildingBlock: XIVTED_clean_linker_0, # of connection points: 2
#     Edge 99, Type (0, 1), BuildingBlock: XIVTED_clean_linker_0, # of connection points: 2
#     Edge 100, Type (0, 1), BuildingBlock: XIVTED_clean_linker_0, # of connection points: 2
#     Edge 101, Type (0, 1), BuildingBlock: XIVTED_clean_linker_0, # of connection points: 2
#     Edge 102, Type (0, 1), BuildingBlock: XIVTED_clean_linker_0, # of connection points: 2
#     Edge 103, Type (0, 1), BuildingBlock: XIVTED_clean_linker_0, # of connection points: 2
#     Edge 104, Type (0, 1), BuildingBlock: XIVTED_clean_linker_0, # of connection points: 2
#     Edge 105, Type (0, 1), BuildingBlock: XIVTED_clean_linker_0, # of connection points: 2
#     Edge 106, Type (0, 1), BuildingBlock: XIVTED_clean_linker_0, # of connection points: 2
#     Edge 107, Type (0, 1), BuildingBlock: XIVTED_clean_linker_0, # of connection points: 2
#     Edge 108, Type (0, 1), BuildingBlock: XIVTED_clean_linker_0, # of connection points: 2
#     Edge 109, Type (0, 1), BuildingBlock: XIVTED_clean_linker_0, # of connection points: 2
#     Edge 110, Type (0, 1), BuildingBlock: XIVTED_clean_linker_0, # of connection points: 2
#     Edge 111, Type (0, 1), BuildingBlock: XIVTED_clean_linker_0, # of connection points: 2
#     Edge 112, Type (0, 1), BuildingBlock: XIVTED_clean_linker_0, # of connection points: 2
#     Edge 113, Type (0, 1), BuildingBlock: XIVTED_clean_linker_0, # of connection points: 2
#     Edge 114, Type (0, 1), BuildingBlock: XIVTED_clean_linker_0, # of connection points: 2
#     Edge 115, Type (0, 1), BuildingBlock: XIVTED_clean_linker_0, # of connection points: 2
#     Edge 116, Type (0, 1), BuildingBlock: XIVTED_clean_linker_0, # of connection points: 2
#     Edge 117, Type (0, 1), BuildingBlock: XIVTED_clean_linker_0, # of connection points: 2
#     Edge 118, Type (0, 1), BuildingBlock: XIVTED_clean_linker_0, # of connection points: 2
#     Edge 119, Type (0, 1), BuildingBlock: XIVTED_clean_linker_0, # of connection points: 2
#     Edge 120, Type (0, 1), BuildingBlock: XIVTED_clean_linker_0, # of connection points: 2
#     Edge 121, Type (0, 1), BuildingBlock: XIVTED_clean_linker_0, # of connection points: 2
#     Edge 122, Type (0, 1), BuildingBlock: XIVTED_clean_linker_0, # of connection points: 2
#     Edge 123, Type (0, 1), BuildingBlock: XIVTED_clean_linker_0, # of connection points: 2
#     Edge 124, Type (0, 1), BuildingBlock: XIVTED_clean_linker_0, # of connection points: 2
#     Edge 125, Type (0, 1), BuildingBlock: XIVTED_clean_linker_0, # of connection points: 2
#     Edge 126, Type (0, 1), BuildingBlock: XIVTED_clean_linker_0, # of connection points: 2
#     Edge 127, Type (0, 1), BuildingBlock: XIVTED_clean_linker_0, # of connection points: 2
#     Edge 128, Type (0, 1), BuildingBlock: XIVTED_clean_linker_0, # of connection points: 2
#     Edge 129, Type (0, 1), BuildingBlock: XIVTED_clean_linker_0, # of connection points: 2
#     Edge 130, Type (0, 1), BuildingBlock: XIVTED_clean_linker_0, # of connection points: 2
#     Edge 131, Type (0, 1), BuildingBlock: XIVTED_clean_linker_0, # of connection points: 2
#     Edge 132, Type (0, 1), BuildingBlock: XIVTED_clean_linker_0, # of connection points: 2
#     Edge 133, Type (0, 1), BuildingBlock: XIVTED_clean_linker_0, # of connection points: 2
#     Edge 134, Type (0, 1), BuildingBlock: XIVTED_clean_linker_0, # of connection points: 2
#     Edge 135, Type (0, 1), BuildingBlock: XIVTED_clean_linker_0, # of connection points: 2
# Relax obj value: 0.277
# Max RMSD: 0.280
# Mean RMSD: 0.234
data_MOF--net-ibd--node1-GALJAG_clean_sbu_0--node2-OJICUG_clean_sbu_0--edge1-XIVTED_clean_linker_0
_symmetry_space_group_name_H-M    P1
_symmetry_Int_Tables_number       1
_symmetry_cell_setting            triclinic
loop_
_symmetry_equiv_pos_as_xyz
'x, y, z'
_cell_length_a     50.018623
_cell_length_b     50.047421
_cell_length_c     50.03042
_cell_angle_alpha  90.149175
_cell_angle_beta   90.062726
_cell_angle_gamma 90.024073
loop_
_atom_site_label
_atom_site_type_symbol
_atom_site_fract_x
_atom_site_fract_y
_atom_site_fract_z
_atom_type_partial_charge
In0 In 0.00379 0.22791 0.36262 0.0
O1 O 0.04564 0.21451 0.35074 0.0
O2 O 0.01246 0.19643 0.33118 0.0
C3 C 0.02087 0.26043 0.40208 0.0
C4 C 0.975 0.26061 0.33115 0.0
C5 C 0.97846 0.18775 0.38696 0.0
O6 O 0.03431 0.25637 0.38119 0.0
O7 O -0.00115 0.24827 0.40295 0.0
O8 O 0.96703 0.20282 0.37033 0.0
O9 O 0.00278 0.19302 0.39139 0.0
C10 C 0.03746 0.19734 0.3342 0.0
O11 O 0.96477 0.24553 0.34836 0.0
O12 O 0.00012 0.25928 0.32949 0.0
In13 In 0.96656 0.73533 0.63422 0.0
O14 O 0.93526 0.76658 0.6449 0.0
O15 O 0.93923 0.73358 0.67093 0.0
C16 C 0.98693 0.77658 0.60713 0.0
C17 C 0.00398 0.71321 0.66549 0.0
C18 C 0.95547 0.69946 0.59561 0.0
O19 O -0.00022 0.76491 0.62541 0.0
O20 O 0.96382 0.76744 0.60265 0.0
O21 O 0.97774 0.71094 0.59785 0.0
O22 O 0.93837 0.70606 0.61298 0.0
C23 C 0.9279 0.75555 0.66618 0.0
O24 O 0.98648 0.69948 0.65355 0.0
O25 O 0.00211 0.73814 0.66223 0.0
In26 In 0.46563 0.74774 0.86524 0.0
O27 O 0.49442 0.7162 0.84983 0.0
O28 O 0.49126 0.75255 0.82812 0.0
C29 C 0.48455 0.79086 0.89098 0.0
C30 C 0.42178 0.75958 0.83653 0.0
C31 C 0.45684 0.71145 0.9037 0.0
O32 O 0.49706 0.77972 0.87213 0.0
O33 O 0.46219 0.78053 0.89643 0.0
O34 O 0.43992 0.71638 0.88567 0.0
O35 O 0.47817 0.72476 0.90225 0.0
C36 C 0.50204 0.72987 0.83013 0.0
O37 O 0.4317 0.77552 0.85338 0.0
O38 O 0.43365 0.73745 0.83467 0.0
In39 In 0.5022 0.24366 0.10964 0.0
O40 O 0.53616 0.21833 0.12586 0.0
O41 O 0.52433 0.25218 0.14857 0.0
C42 C 0.49164 0.20099 0.07868 0.0
C43 C 0.45746 0.25769 0.13561 0.0
C44 C 0.51613 0.28296 0.07601 0.0
O45 O 0.47654 0.20828 0.09746 0.0
O46 O 0.51229 0.21511 0.07563 0.0
O47 O 0.49429 0.2705 0.07412 0.0
O48 O 0.53099 0.27569 0.09506 0.0
C49 C 0.53951 0.23218 0.14664 0.0
O50 O 0.47032 0.27387 0.12122 0.0
O51 O 0.4674 0.23459 0.13714 0.0
In52 In -0.00508 0.76474 0.12605 0.0
O53 O 0.967 0.79873 0.11483 0.0
O54 O 0.00334 0.79474 0.0932 0.0
C55 C 0.95252 0.74651 0.15347 0.0
C56 C 0.01281 0.72641 0.09317 0.0
C57 C 0.03302 0.77769 0.16153 0.0
O58 O 0.96421 0.76809 0.15928 0.0
O59 O 0.96206 0.73425 0.13364 0.0
O60 O 0.02089 0.75561 0.16207 0.0
O61 O 0.026 0.79319 0.143 0.0
C62 C 0.98194 0.80759 0.09662 0.0
O63 O 0.02605 0.7344 0.1131 0.0
O64 O 0.9906 0.73785 0.08979 0.0
In65 In 0.50911 0.7279 0.36331 0.0
O66 O 0.50166 0.69451 0.39289 0.0
O67 O 0.53948 0.69593 0.37335 0.0
C68 C 0.4616 0.7204 0.33906 0.0
C69 C 0.50334 0.76741 0.39967 0.0
C70 C 0.54619 0.73781 0.32589 0.0
O71 O 0.47338 0.702 0.35159 0.0
O72 O 0.47388 0.74237 0.33864 0.0
O73 O 0.54467 0.75115 0.34724 0.0
O74 O 0.52888 0.71968 0.32337 0.0
C75 C 0.52458 0.68427 0.38998 0.0
O76 O 0.49169 0.76749 0.37737 0.0
O77 O 0.5182 0.7475 0.40362 0.0
In78 In 0.49519 0.23206 0.60784 0.0
O79 O 0.52343 0.19726 0.60066 0.0
O80 O 0.48709 0.19778 0.57876 0.0
C81 C 0.53777 0.25048 0.63456 0.0
C82 C 0.47914 0.26674 0.57029 0.0
C83 C 0.45605 0.2272 0.64427 0.0
O84 O 0.52675 0.22844 0.63984 0.0
O85 O 0.52733 0.26334 0.61555 0.0
O86 O 0.46036 0.20954 0.62674 0.0
O87 O 0.47177 0.24684 0.64366 0.0
C88 C 0.50892 0.18606 0.58338 0.0
O89 O 0.46532 0.26117 0.59053 0.0
O90 O 0.50134 0.25485 0.56892 0.0
In91 In 0.99119 0.26367 0.87788 0.0
O92 O 0.01734 0.22972 0.89253 0.0
O93 O 0.00751 0.2607 0.92008 0.0
C94 C 0.97007 0.23752 0.83603 0.0
C95 C 0.94743 0.27931 0.90447 0.0
C96 C 0.02708 0.29666 0.85538 0.0
O97 O 0.97869 0.22557 0.85642 0.0
O98 O 0.97208 0.26261 0.83679 0.0
O99 O 0.00419 0.30454 0.86246 0.0
O100 O 0.03193 0.27248 0.86034 0.0
C101 C 0.0193 0.23879 0.91598 0.0
O102 O 0.96569 0.29549 0.89801 0.0
O103 O 0.95124 0.25546 0.89729 0.0
In104 In 0.36693 0.96538 0.25309 0.0
O105 O 0.34977 0.94154 0.28767 0.0
O106 O 0.32745 0.94292 0.25161 0.0
C107 C 0.40066 0.94085 0.21938 0.0
C108 C 0.34177 0.004 0.22586 0.0
C109 C 0.39767 0.98842 0.29057 0.0
O110 O 0.38248 0.92821 0.23144 0.0
O111 O 0.40186 0.96544 0.2247 0.0
O112 O 0.37954 0.00083 0.27831 0.0
O113 O 0.40028 0.96419 0.284 0.0
C114 C 0.32882 0.93487 0.27541 0.0
O115 O 0.34132 0.0026 0.25103 0.0
O116 O 0.35445 0.9855 0.21433 0.0
In117 In 0.2292 0.12015 0.51073 0.0
O118 O 0.20288 0.13308 0.54534 0.0
O119 O 0.23996 0.15316 0.54037 0.0
C120 C 0.18523 0.09205 0.49799 0.0
C121 C 0.24441 0.15116 0.46957 0.0
C122 C 0.26821 0.08455 0.5205 0.0
O123 O 0.19378 0.11086 0.48359 0.0
O124 O 0.19882 0.08759 0.51875 0.0
O125 O 0.25309 0.0831 0.50039 0.0
O126 O 0.26354 0.10392 0.53599 0.0
C127 C 0.21866 0.15087 0.55366 0.0
O128 O 0.25735 0.13087 0.47684 0.0
O129 O 0.22375 0.15604 0.48319 0.0
In130 In 0.12842 0.98562 0.71983 0.0
O131 O 0.10679 0.95965 0.75 0.0
O132 O 0.09367 -0.00015 0.74516 0.0
C133 C 0.15627 0.94913 0.69217 0.0
C134 C 0.0977 0.00255 0.6797 0.0
C135 C 0.16423 0.01454 0.74764 0.0
O136 O 0.14323 0.94294 0.71282 0.0
O137 O 0.15601 0.97358 0.68632 0.0
O138 O 0.15235 0.02359 0.72737 0.0
O139 O 0.15863 0.99071 0.7534 0.0
C140 C 0.09081 0.97787 0.75707 0.0
O141 O 0.11515 0.01728 0.69054 0.0
O142 O 0.09554 0.97938 0.68943 0.0
In143 In 0.26373 0.87673 0.9507 0.0
O144 O 0.24811 0.91971 0.95317 0.0
O145 O 0.22966 0.8904 0.97741 0.0
C146 C 0.24018 0.84682 0.91291 0.0
C147 C 0.30802 0.8984 0.92932 0.0
C148 C 0.27614 0.84343 0.99114 0.0
O149 O 0.2291 0.86718 0.92288 0.0
O150 O 0.26359 0.84228 0.92125 0.0
O151 O 0.28863 0.86495 0.98725 0.0
O152 O 0.25783 0.83866 0.97452 0.0
C153 C 0.23045 0.91445 0.97029 0.0
O154 O 0.28827 0.89128 0.91528 0.0
O155 O 0.30546 0.89432 0.95404 0.0
In156 In 0.24033 0.36911 0.02334 0.0
O157 O 0.26852 0.35105 -0.00735 0.0
O158 O 0.23332 0.32934 0.00226 0.0
C159 C 0.20325 0.40226 0.00293 0.0
C160 C 0.22327 0.3426 0.06648 0.0
C161 C 0.28153 0.40061 0.03755 0.0
O162 O 0.21173 0.3821 0.99043 0.0
O163 O 0.21304 0.40536 0.02595 0.0
O164 O 0.26972 0.38549 0.05379 0.0
O165 O 0.27279 0.39961 0.01392 0.0
C166 C 0.25453 0.33045 0.98875 0.0
O167 O 0.24707 0.34142 0.05823 0.0
O168 O 0.20793 0.35735 0.05291 0.0
In169 In 0.71631 0.12406 0.01185 0.0
O170 O 0.68779 0.10589 0.04203 0.0
O171 O 0.69136 0.08714 0.00397 0.0
C172 C 0.72441 0.15973 0.05138 0.0
C173 C 0.76117 0.09887 -0.00428 0.0
C174 C 0.69697 0.14913 0.96886 0.0
O175 O 0.70549 0.16176 0.03488 0.0
O176 O 0.73956 0.13994 0.04767 0.0
O177 O 0.72022 0.1532 0.97779 0.0
O178 O 0.68299 0.13295 0.98217 0.0
C179 C 0.68043 0.08728 0.02667 0.0
O180 O 0.75166 0.11884 0.98384 0.0
O181 O 0.74841 0.09182 0.01627 0.0
In182 In 0.10384 0.46766 0.21245 0.0
O183 O 0.11591 0.44424 0.24946 0.0
O184 O 0.14072 0.44158 0.21503 0.0
C185 C 0.06538 0.48847 0.24396 0.0
C186 C 0.13493 0.50805 0.19558 0.0
C187 C 0.08026 0.44125 0.17201 0.0
O188 O 0.08602 0.50109 0.23725 0.0
O189 O 0.06372 0.46516 0.2345 0.0
O190 O 0.07835 0.46625 0.17489 0.0
O191 O 0.09415 0.42963 0.18951 0.0
C192 C 0.13675 0.43473 0.23895 0.0
O193 O 0.11984 0.49532 0.17982 0.0
O194 O 0.13469 0.49995 0.21939 0.0
In195 In 0.74284 0.86618 0.4872 0.0
O196 O 0.74701 0.83787 0.45229 0.0
O197 O 0.78229 0.85712 0.46662 0.0
C198 C 0.70022 0.88869 0.46366 0.0
C199 C 0.7269 0.82941 0.52287 0.0
C200 C 0.77258 0.90517 0.5089 0.0
O201 O 0.71674 0.8745 0.45102 0.0
O202 O 0.70523 0.89158 0.48822 0.0
O203 O 0.76669 0.8842 0.52144 0.0
O204 O 0.76322 0.90658 0.48555 0.0
C205 C 0.7719 0.84129 0.44991 0.0
O206 O 0.71284 0.84932 0.51675 0.0
O207 O 0.74893 0.82786 0.51081 0.0
In208 In 0.86953 0.98269 0.23165 0.0
O209 O 0.89491 0.98523 0.26902 0.0
O210 O 0.88132 0.94673 0.25693 0.0
C211 C 0.83633 0.02086 0.25017 0.0
C212 C 0.90854 0.00099 0.19954 0.0
C213 C 0.83824 0.94673 0.20691 0.0
O214 O 0.85484 0.01095 0.26398 0.0
O215 O 0.83458 0.01171 0.22672 0.0
O216 O 0.85543 0.96037 0.19456 0.0
O217 O 0.83682 0.95133 0.23167 0.0
C218 C 0.8941 0.96051 0.27381 0.0
O219 O 0.90882 0.97784 0.20936 0.0
O220 O 0.88861 0.01498 0.20598 0.0
In221 In 0.25689 0.61242 0.47815 0.0
O222 O 0.28262 0.5986 0.44325 0.0
O223 O 0.28768 0.57964 0.48099 0.0
C224 C 0.23675 0.64958 0.44496 0.0
C225 C 0.21884 0.57857 0.49513 0.0
C226 C 0.2783 0.64031 0.51876 0.0
O227 O 0.22392 0.62901 0.45164 0.0
O228 O 0.26011 0.65097 0.45429 0.0
O229 O 0.25365 0.64085 0.51344 0.0
O230 O 0.29205 0.62543 0.50379 0.0
C231 C 0.29474 0.58117 0.45686 0.0
O232 O 0.22775 0.59733 0.50946 0.0
O233 O 0.22915 0.57685 0.47221 0.0
In234 In 0.36909 0.50966 0.7437 0.0
O235 O 0.38685 0.48245 0.77529 0.0
O236 O 0.41092 0.51428 0.76087 0.0
C237 C 0.34138 0.55023 0.76483 0.0
C238 C 0.39032 0.52515 0.69708 0.0
C239 C 0.33423 0.46998 0.73358 0.0
O240 O 0.36019 0.53893 0.77728 0.0
O241 O 0.33686 0.54117 0.74169 0.0
O242 O 0.35428 0.4745 0.71912 0.0
O243 O 0.33186 0.48531 0.75346 0.0
C244 C 0.40899 0.49442 0.77617 0.0
O245 O 0.3781 0.54112 0.71231 0.0
O246 O 0.39193 0.5015 0.70553 0.0
In247 In 0.62624 0.00411 0.75378 0.0
O248 O 0.63659 0.98121 0.79158 0.0
O249 O 0.64825 0.96462 0.75417 0.0
C250 C 0.60092 0.0454 0.77634 0.0
C251 C 0.66765 0.03162 0.73404 0.0
C252 C 0.58662 0.98079 0.72612 0.0
O253 O 0.60875 0.02559 0.78988 0.0
O254 O 0.60608 0.04423 0.75169 0.0
O255 O 0.60971 0.98364 0.71641 0.0
O256 O 0.58378 0.98936 0.74964 0.0
C257 C 0.6481 0.96242 0.77927 0.0
O258 O 0.64827 0.02418 0.71967 0.0
O259 O 0.66648 0.02447 0.75815 0.0
In260 In 0.77818 0.61344 0.97053 0.0
O261 O 0.74146 0.62514 -0.00564 0.0
O262 O 0.77773 0.64571 0.00266 0.0
C263 C 0.74439 0.57713 0.95041 0.0
C264 C 0.79437 0.65052 0.93556 0.0
C265 C 0.81774 0.58311 0.9901 0.0
O266 O 0.75591 0.59417 0.93585 0.0
O267 O 0.75019 0.57833 0.97491 0.0
O268 O 0.8108 0.58226 0.96587 0.0
O269 O 0.8051 0.59973 0.00424 0.0
C270 C 0.75318 0.64301 0.00773 0.0
O271 O 0.81047 0.63506 0.94721 0.0
O272 O 0.77008 0.64669 0.94099 0.0
In273 In 0.86882 0.48818 0.74741 0.0
O274 O 0.84141 0.45301 0.74027 0.0
O275 O 0.85961 0.4564 0.77862 0.0
C276 C 0.89693 0.476 0.70325 0.0
C277 C 0.83089 0.52458 0.73634 0.0
C278 C 0.90261 0.50504 0.78564 0.0
O279 O 0.87954 0.46072 0.71302 0.0
O280 O 0.90031 0.49763 0.71582 0.0
O281 O 0.88199 0.51797 0.77915 0.0
O282 O 0.90616 0.48358 0.77286 0.0
C283 C 0.84449 0.44321 0.76326 0.0
O284 O 0.85209 0.5225 0.72292 0.0
O285 O 0.82888 0.5084 0.75548 0.0
In286 In 0.74425 0.36583 0.49976 0.0
O287 O 0.70939 0.39463 0.49674 0.0
O288 O 0.71845 0.37849 0.53495 0.0
C289 C 0.72603 0.32691 0.46746 0.0
C290 C 0.77474 0.40177 0.47442 0.0
C291 C 0.77276 0.34164 0.53802 0.0
O292 O 0.71147 0.34568 0.47574 0.0
O293 O 0.74988 0.32764 0.47554 0.0
O294 O 0.78331 0.35704 0.52113 0.0
O295 O 0.74787 0.33833 0.53542 0.0
C296 C 0.70357 0.39343 0.52122 0.0
O297 O 0.76959 0.40328 0.49904 0.0
O298 O 0.76434 0.38217 0.46244 0.0
In299 In 0.60791 0.51081 0.27636 0.0
O300 O 0.59539 0.46774 0.28258 0.0
O301 O 0.58627 0.49571 0.31337 0.0
C302 C 0.64903 0.48614 0.25235 0.0
C303 C 0.56724 0.52969 0.24686 0.0
C304 C 0.62985 0.55443 0.29886 0.0
O305 O 0.62653 0.489 0.2413 0.0
O306 O 0.65081 0.49566 0.27564 0.0
O307 O 0.62188 0.55381 0.27499 0.0
O308 O 0.62604 0.53313 0.31178 0.0
C309 C 0.58465 0.47191 0.305 0.0
O310 O 0.59095 0.52934 0.23833 0.0
O311 O 0.56415 0.52061 0.27012 0.0
Sc312 Sc 0.10558 0.13691 0.13013 0.0
Sc313 Sc 0.13725 0.07542 0.13885 0.0
Sc314 Sc 0.1614 0.12077 0.0909 0.0
O315 O 0.13463 0.11093 0.11971 0.0
C316 C 0.1062 0.14352 0.06756 0.0
C317 C 0.07514 0.08044 0.13212 0.0
C318 C 0.15265 0.05965 0.07856 0.0
C319 C 0.12255 0.11488 0.18643 0.0
C320 C 0.15507 0.17592 0.12136 0.0
C321 C 0.19766 0.09339 0.13536 0.0
O322 O 0.09367 0.1426 0.0896 0.0
O323 O 0.09607 0.06607 0.13172 0.0
O324 O 0.1566 0.08336 0.07048 0.0
O325 O 0.11586 0.13404 0.17135 0.0
O326 O 0.16919 0.15907 0.10866 0.0
O327 O 0.17834 0.08264 0.14777 0.0
O328 O 0.13124 0.17121 0.12861 0.0
O329 O 0.1279 0.09161 0.17783 0.0
O330 O 0.19511 0.10562 0.11326 0.0
O331 O 0.07588 0.10583 0.1333 0.0
O332 O 0.13079 0.13736 0.06527 0.0
O333 O 0.14708 0.05411 0.10271 0.0
Sc334 Sc 0.13024 0.87421 0.42379 0.0
Sc335 Sc 0.07702 0.83953 0.39344 0.0
Sc336 Sc 0.0977 0.90121 0.36773 0.0
O337 O 0.10166 0.87168 0.39503 0.0
C338 C 0.10988 0.93418 0.42094 0.0
C339 C 0.07932 0.85237 0.45534 0.0
C340 C 0.03727 0.88713 0.3784 0.0
C341 C 0.1327 0.81267 0.40953 0.0
C342 C 0.16062 0.89504 0.37175 0.0
C343 C 0.09013 0.84821 0.33258 0.0
O344 O 0.11973 0.91452 0.43352 0.0
O345 O 0.06696 0.84429 0.43464 0.0
O346 O 0.05559 0.90407 0.37394 0.0
O347 O 0.14377 0.83423 0.41699 0.0
O348 O 0.1394 0.90073 0.35907 0.0
O349 O 0.08556 0.8328 0.35216 0.0
O350 O 0.16061 0.88664 0.39573 0.0
O351 O 0.1084 0.81145 0.40227 0.0
O352 O 0.09282 0.87336 0.33511 0.0
O353 O 0.10293 0.86184 0.45479 0.0
O354 O 0.10232 0.93271 0.39675 0.0
O355 O 0.04198 0.86277 0.38371 0.0
Sc356 Sc 0.40796 0.83738 0.61329 0.0
Sc357 Sc 0.35765 0.8637 0.57175 0.0
Sc358 Sc 0.36871 0.89125 0.63514 0.0
O359 O 0.37833 0.86424 0.60661 0.0
C360 C 0.37999 0.83941 0.67001 0.0
C361 C 0.3626 0.80219 0.58564 0.0
C362 C 0.31175 0.87407 0.61459 0.0
C363 C 0.41732 0.85065 0.55231 0.0
C364 C 0.43175 0.89163 0.6379 0.0
C365 C 0.3629 0.9255 0.58126 0.0
O366 O 0.39243 0.82698 0.65175 0.0
O367 O 0.35008 0.82193 0.57584 0.0
O368 O 0.32758 0.88035 0.63337 0.0
O369 O 0.42618 0.84445 0.57525 0.0
O370 O 0.40936 0.90349 0.63957 0.0
O371 O 0.36311 0.90564 0.56541 0.0
O372 O 0.43419 0.86755 0.62995 0.0
O373 O 0.39301 0.85677 0.54811 0.0
O374 O 0.3632 0.923 0.60656 0.0
O375 O 0.38485 0.80435 0.59776 0.0
O376 O 0.37216 0.86337 0.66752 0.0
O377 O 0.31933 0.87028 0.59064 0.0
Sc378 Sc 0.37549 0.10814 0.82679 0.0
Sc379 Sc 0.39461 0.1638 0.86511 0.0
Sc380 Sc 0.34942 0.11677 0.89175 0.0
O381 O 0.37313 0.12957 0.86121 0.0
C382 C 0.31364 0.10347 0.84077 0.0
C383 C 0.37495 0.16768 0.80469 0.0
C384 C 0.3394 0.17962 0.89274 0.0
C385 C 0.43588 0.12667 0.83471 0.0
C386 C 0.37524 0.0623 0.87077 0.0
C387 C 0.40101 0.13745 0.92266 0.0
O388 O 0.33318 0.1031 0.82465 0.0
O389 O 0.38375 0.17826 0.82608 0.0
O390 O 0.33235 0.15583 0.8982 0.0
O391 O 0.41821 0.11141 0.8247 0.0
O392 O 0.36422 0.07665 0.88862 0.0
O393 O 0.40844 0.15292 0.90405 0.0
O394 O 0.3803 0.07069 0.84736 0.0
O395 O 0.43058 0.14615 0.85004 0.0
O396 O 0.37978 0.12359 0.9215 0.0
O397 O 0.37078 0.14278 0.80231 0.0
O398 O 0.31618 0.10776 0.86569 0.0
O399 O 0.36114 0.18521 0.88094 0.0
Sc400 Sc 0.65093 0.35669 0.88226 0.0
Sc401 Sc 0.5905 0.33947 0.85109 0.0
Sc402 Sc 0.63179 0.38896 0.82313 0.0
O403 O 0.62433 0.3618 0.85221 0.0
C404 C 0.65143 0.4193 0.876 0.0
C405 C 0.59501 0.35151 0.91288 0.0
C406 C 0.56989 0.39711 0.83292 0.0
C407 C 0.63438 0.29716 0.86892 0.0
C408 C 0.6893 0.36443 0.83207 0.0
C409 C 0.60766 0.34019 0.79013 0.0
O410 O 0.6526 0.39859 0.89056 0.0
O411 O 0.58101 0.34769 0.89204 0.0
O412 O 0.59275 0.4062 0.82668 0.0
O413 O 0.65157 0.31449 0.87591 0.0
O414 O 0.67143 0.37409 0.81688 0.0
O415 O 0.59711 0.32887 0.81019 0.0
O416 O 0.68521 0.35907 0.85651 0.0
O417 O 0.61078 0.30301 0.86162 0.0
O418 O 0.61916 0.36277 0.7914 0.0
O419 O 0.62032 0.3536 0.91229 0.0
O420 O 0.64572 0.41852 0.85123 0.0
O421 O 0.56614 0.37322 0.84058 0.0
Sc422 Sc 0.86793 0.32847 0.12617 0.0
Sc423 Sc 0.86466 0.39591 0.14643 0.0
Sc424 Sc 0.81674 0.37005 0.10197 0.0
O425 O 0.84971 0.36472 0.12498 0.0
C426 C 0.85158 0.33231 0.06475 0.0
C427 C 0.91673 0.36923 0.12176 0.0
C428 C 0.84742 0.42453 0.09241 0.0
C429 C 0.87523 0.34739 0.1862 0.0
C430 C 0.80623 0.31248 0.12687 0.0
C431 C 0.80248 0.40275 0.15526 0.0
O432 O 0.8657 0.32302 0.08367 0.0
O433 O 0.90358 0.3893 0.13011 0.0
O434 O 0.83217 0.40588 0.08448 0.0
O435 O 0.87215 0.32926 0.16871 0.0
O436 O 0.79812 0.33416 0.11644 0.0
O437 O 0.82634 0.405 0.16383 0.0
O438 O 0.83076 0.30772 0.13155 0.0
O439 O 0.87395 0.37213 0.18095 0.0
O440 O 0.79665 0.39166 0.13311 0.0
O441 O 0.90724 0.34565 0.12067 0.0
O442 O 0.83325 0.34946 0.0682 0.0
O443 O 0.85881 0.42439 0.11504 0.0
Sc444 Sc 0.85792 0.59675 0.33221 0.0
Sc445 Sc 0.90225 0.64321 0.36231 0.0
Sc446 Sc 0.84338 0.62417 0.39498 0.0
O447 O 0.86799 0.62125 0.36314 0.0
C448 C 0.80074 0.61886 0.348 0.0
C449 C 0.88042 0.64811 0.30253 0.0
C450 C 0.85906 0.68435 0.38428 0.0
C451 C 0.92085 0.58782 0.33655 0.0
C452 C 0.84413 0.56205 0.38403 0.0
C453 C 0.90056 0.62799 0.42342 0.0
O454 O 0.81715 0.61032 0.33066 0.0
O455 O 0.89396 0.65619 0.32245 0.0
O456 O 0.84238 0.66658 0.3913 0.0
O457 O 0.89746 0.58052 0.32986 0.0
O458 O 0.84293 0.58191 0.39985 0.0
O459 O 0.91397 0.63324 0.40255 0.0
O460 O 0.84784 0.5643 0.35894 0.0
O461 O 0.92573 0.6099 0.34824 0.0
O462 O 0.87536 0.6255 0.42324 0.0
O463 O 0.86697 0.62655 0.30251 0.0
O464 O 0.80732 0.62326 0.37205 0.0
O465 O 0.88238 0.67914 0.37564 0.0
Sc466 Sc 0.90557 0.87056 0.87979 0.0
Sc467 Sc 0.84726 0.89235 0.91136 0.0
Sc468 Sc 0.8672 0.92161 0.85047 0.0
O469 O 0.87338 0.89501 0.88053 0.0
C470 C 0.93028 0.92435 0.85618 0.0
C471 C 0.90367 0.88562 0.94077 0.0
C472 C 0.85309 0.95492 0.90346 0.0
C473 C 0.85953 0.83165 0.90025 0.0
C474 C 0.88508 0.86847 0.8197 0.0
C475 C 0.8079 0.90226 0.86243 0.0
O476 O 0.93205 0.90123 0.86632 0.0
O477 O 0.87841 0.88821 0.94079 0.0
O478 O 0.85844 0.95375 0.87854 0.0
O479 O 0.8833 0.83625 0.89267 0.0
O480 O 0.87487 0.8918 0.81973 0.0
O481 O 0.81237 0.89613 0.88659 0.0
O482 O 0.89653 0.85835 0.83995 0.0
O483 O 0.84328 0.85003 0.90665 0.0
O484 O 0.82585 0.91105 0.84688 0.0
O485 O 0.91696 0.88073 0.91974 0.0
O486 O 0.90808 0.93499 0.85002 0.0
O487 O 0.84923 0.93438 0.91781 0.0
Sc488 Sc 0.84855 0.12714 0.59042 0.0
Sc489 Sc 0.91329 0.14808 0.60635 0.0
Sc490 Sc 0.88457 0.09415 0.64075 0.0
O491 O 0.88209 0.12313 0.61266 0.0
C492 C 0.82452 0.11196 0.64763 0.0
C493 C 0.86309 0.18709 0.60206 0.0
C494 C 0.91191 0.14464 0.66923 0.0
C495 C 0.89466 0.1358 0.5476 0.0
C496 C 0.85573 0.0646 0.59189 0.0
C497 C 0.94279 0.09261 0.6163 0.0
O498 O 0.82231 0.1197 0.62358 0.0
O499 O 0.88813 0.18284 0.60185 0.0
O500 O 0.90236 0.12104 0.66976 0.0
O501 O 0.87005 0.13431 0.55367 0.0
O502 O 0.86701 0.06432 0.61472 0.0
O503 O 0.94279 0.11711 0.60989 0.0
O504 O 0.84898 0.08591 0.57998 0.0
O505 O 0.91297 0.13956 0.56471 0.0
O506 O 0.92274 0.08111 0.62666 0.0
O507 O 0.84585 0.16864 0.59977 0.0
O508 O 0.84641 0.10378 0.6575 0.0
O509 O 0.9159 0.1575 0.64776 0.0
Sc510 Sc 0.61627 0.08355 0.33236 0.0
Sc511 Sc 0.6453 0.10291 0.39328 0.0
Sc512 Sc 0.58864 0.13665 0.36908 0.0
O513 O 0.61683 0.10782 0.36484 0.0
C514 C 0.60124 0.1404 0.30732 0.0
C515 C 0.67813 0.09336 0.33903 0.0
C516 C 0.64209 0.16571 0.3893 0.0
C517 C 0.62995 0.0432 0.37957 0.0
C518 C 0.55487 0.08739 0.347 0.0
C519 C 0.59336 0.11516 0.42828 0.0
O520 O 0.60814 0.11603 0.30531 0.0
O521 O 0.67684 0.09658 0.36424 0.0
O522 O 0.61766 0.16586 0.38216 0.0
O523 O 0.62423 0.04791 0.35528 0.0
O524 O 0.55628 0.11073 0.35698 0.0
O525 O 0.61775 0.10836 0.42617 0.0
O526 O 0.57496 0.07496 0.33784 0.0
O527 O 0.63696 0.06123 0.39601 0.0
O528 O 0.57998 0.12474 0.40903 0.0
O529 O 0.65763 0.08983 0.3245 0.0
O530 O 0.59446 0.15107 0.32932 0.0
O531 O 0.65532 0.14438 0.39296 0.0
Sc532 Sc 0.64321 0.85522 0.07287 0.0
Sc533 Sc 0.59231 0.81701 0.10264 0.0
Sc534 Sc 0.61919 0.87234 0.13628 0.0
O535 O 0.61828 0.84813 0.10396 0.0
C536 C 0.68057 0.86706 0.1234 0.0
C537 C 0.64549 0.79244 0.07703 0.0
C538 C 0.61163 0.81454 0.16247 0.0
C539 C 0.5886 0.83953 0.04385 0.0
C540 C 0.62537 0.9136 0.08818 0.0
C541 C 0.55723 0.86306 0.12945 0.0
O542 O 0.677 0.86437 0.09836 0.0
O543 O 0.62168 0.79022 0.08566 0.0
O544 O 0.61582 0.83956 0.16383 0.0
O545 O 0.61274 0.84745 0.0433 0.0
O546 O 0.62255 0.90828 0.11284 0.0
O547 O 0.55965 0.83968 0.11975 0.0
O548 O 0.63157 0.89614 0.07084 0.0
O549 O 0.57793 0.82905 0.0643 0.0
O550 O 0.577 0.87793 0.13504 0.0
O551 O 0.65659 0.81479 0.07259 0.0
O552 O 0.66148 0.86865 0.13999 0.0
O553 O 0.60438 0.80286 0.14111 0.0
Sc554 Sc 0.32781 0.63056 0.09672 0.0
Sc555 Sc 0.38082 0.66145 0.13096 0.0
Sc556 Sc 0.34589 0.608 0.16023 0.0
O557 O 0.35151 0.63343 0.12939 0.0
C558 C 0.28613 0.61786 0.14335 0.0
C559 C 0.33176 0.69292 0.10412 0.0
C560 C 0.3587 0.66293 0.19037 0.0
C561 C 0.38456 0.64408 0.07059 0.0
C562 C 0.33986 0.5701 0.10893 0.0
C563 C 0.4091 0.61083 0.15778 0.0
O564 O 0.29198 0.62199 0.11902 0.0
O565 O 0.35517 0.69201 0.11417 0.0
O566 O 0.35045 0.6389 0.18994 0.0
O567 O 0.35995 0.63803 0.06937 0.0
O568 O 0.34143 0.57384 0.13406 0.0
O569 O 0.41 0.63411 0.14763 0.0
O570 O 0.33629 0.58897 0.09241 0.0
O571 O 0.39591 0.65134 0.09211 0.0
O572 O 0.38734 0.59866 0.16234 0.0
O573 O 0.31816 0.67214 0.09864 0.0
O574 O 0.30371 0.61476 0.16136 0.0
O575 O 0.36889 0.67434 0.17012 0.0
Sc576 Sc 0.12044 0.5881 0.85226 0.0
Sc577 Sc 0.14733 0.62317 0.90668 0.0
Sc578 Sc 0.08961 0.64678 0.87477 0.0
O579 O 0.11901 0.61929 0.878 0.0
C580 C 0.10164 0.63559 0.81413 0.0
C581 C 0.1809 0.60501 0.85569 0.0
C582 C 0.14115 0.68257 0.88633 0.0
C583 C 0.13788 0.5612 0.90769 0.0
C584 C 0.05895 0.59129 0.86452 0.0
C585 C 0.09421 0.64096 0.93731 0.0
O586 O 0.10832 0.6114 0.81795 0.0
O587 O 0.17941 0.61193 0.88011 0.0
O588 O 0.11649 0.68027 0.88052 0.0
O589 O 0.13248 0.56006 0.88285 0.0
O590 O 0.05933 0.61652 0.868 0.0
O591 O 0.11896 0.6352 0.93688 0.0
O592 O 0.07994 0.57756 0.86051 0.0
O593 O 0.14184 0.58305 0.91997 0.0
O594 O 0.08046 0.64444 0.9163 0.0
O595 O 0.16086 0.59727 0.84214 0.0
O596 O 0.09622 0.6516 0.83302 0.0
O597 O 0.15515 0.6634 0.89518 0.0
Sc598 Sc 0.14663 0.36825 0.59796 0.0
Sc599 Sc 0.08838 0.34459 0.6292 0.0
Sc600 Sc 0.11329 0.40812 0.64518 0.0
O601 O 0.11609 0.37364 0.62402 0.0
C602 C 0.17499 0.39521 0.64864 0.0
C603 C 0.14202 0.31052 0.6235 0.0
C604 C 0.09597 0.36477 0.68844 0.0
C605 C 0.09667 0.34354 0.56641 0.0
C606 C 0.13411 0.42937 0.58871 0.0
C607 C 0.0533 0.39823 0.62935 0.0
O608 O 0.17581 0.38338 0.62608 0.0
O609 O 0.11736 0.31263 0.62923 0.0
O610 O 0.10111 0.38863 0.6816 0.0
O611 O 0.12059 0.35224 0.56729 0.0
O612 O 0.12505 0.43285 0.61214 0.0
O613 O 0.05565 0.37289 0.62964 0.0
O614 O 0.14145 0.4067 0.58003 0.0
O615 O 0.08227 0.34059 0.58709 0.0
O616 O 0.07286 0.41395 0.63306 0.0
O617 O 0.15534 0.32931 0.61299 0.0
O618 O 0.1536 0.40446 0.65869 0.0
O619 O 0.09256 0.34595 0.67174 0.0
Sc620 Sc 0.58685 0.64391 0.61364 0.0
Sc621 Sc 0.60617 0.58711 0.64993 0.0
Sc622 Sc 0.64478 0.60886 0.59545 0.0
O623 O 0.61272 0.61338 0.61979 0.0
C624 C 0.59851 0.62405 0.55459 0.0
C625 C 0.54782 0.59556 0.62703 0.0
C626 C 0.62641 0.54884 0.60333 0.0
C627 C 0.5897 0.64306 0.67656 0.0
C628 C 0.64322 0.67163 0.60216 0.0
C629 C 0.66871 0.59553 0.65336 0.0
O630 O 0.58337 0.63417 0.57224 0.0
O631 O 0.56567 0.58086 0.63747 0.0
O632 O 0.63654 0.56746 0.58952 0.0
O633 O 0.58766 0.65574 0.65471 0.0
O634 O 0.65594 0.64998 0.59867 0.0
O635 O 0.64632 0.59093 0.66442 0.0
O636 O 0.61822 0.6724 0.60654 0.0
O637 O 0.59479 0.61818 0.67762 0.0
O638 O 0.67108 0.60099 0.62865 0.0
O639 O 0.55213 0.61941 0.61964 0.0
O640 O 0.62205 0.61586 0.55946 0.0
O641 O 0.61643 0.5525 0.62637 0.0
Sc642 Sc 0.3344 0.35701 0.38229 0.0
Sc643 Sc 0.36234 0.38152 0.32306 0.0
Sc644 Sc 0.38443 0.32033 0.34902 0.0
O645 O 0.3603 0.35285 0.35145 0.0
C646 C 0.38661 0.33399 0.41089 0.0
C647 C 0.35383 0.41661 0.37557 0.0
C648 C 0.42319 0.36857 0.33345 0.0
C649 C 0.30014 0.37591 0.33164 0.0
C650 C 0.32959 0.29503 0.36987 0.0
C651 C 0.36945 0.32823 0.28842 0.0
O652 O 0.36373 0.34508 0.41164 0.0
O653 O 0.35835 0.41416 0.35075 0.0
O654 O 0.41922 0.34397 0.33849 0.0
O655 O 0.3022 0.36935 0.35614 0.0
O656 O 0.3529 0.29285 0.35995 0.0
O657 O 0.36671 0.35333 0.29082 0.0
O658 O 0.32 0.31708 0.37794 0.0
O659 O 0.32022 0.3799 0.31663 0.0
O660 O 0.37433 0.31306 0.3081 0.0
O661 O 0.34632 0.39731 0.3901 0.0
O662 O 0.39677 0.32462 0.38962 0.0
O663 O 0.40449 0.38496 0.32847 0.0
H664 H 0.02515 0.15012 0.31034 0.0
H665 H 0.14231 0.1575 0.21333 0.0
H666 H 0.09088 0.204 0.32522 0.0
H667 H 0.09866 0.08407 0.22425 0.0
H668 H 0.12823 0.17221 0.25767 0.0
H669 H 0.05423 0.12301 0.28207 0.0
C670 C 0.04581 0.15608 0.30779 0.0
C671 C 0.05557 0.17959 0.31949 0.0
C672 C 0.1224 0.15251 0.25081 0.0
C673 C 0.08884 0.14884 0.28724 0.0
C674 C 0.13042 0.14416 0.22553 0.0
C675 C 0.1212 0.11981 0.21522 0.0
C676 C 0.10432 0.13675 0.26528 0.0
C677 C 0.10598 0.10308 0.23161 0.0
C678 C 0.06248 0.14045 0.29194 0.0
C679 C 0.08257 0.18618 0.31612 0.0
N680 N 0.09728 0.11222 0.25566 0.0
N681 N 0.09819 0.17119 0.29974 0.0
H682 H 0.96244 0.80623 0.56873 0.0
H683 H 0.10133 0.8506 0.50559 0.0
H684 H 0.03874 0.79386 0.60712 0.0
H685 H 0.02574 0.84932 0.46381 0.0
H686 H 0.07768 0.84112 0.54738 0.0
H687 H 0.98433 0.83396 0.53527 0.0
C688 C 0.98376 0.80971 0.57033 0.0
C689 C -0.00103 0.79727 0.59024 0.0
C690 C 0.0663 0.84331 0.52909 0.0
C691 C 0.02416 0.82858 0.55194 0.0
C692 C 0.07976 0.8487 0.50529 0.0
C693 C 0.0655 0.85005 0.48117 0.0
C694 C 0.03848 0.83946 0.52863 0.0
C695 C 0.03758 0.84773 0.48187 0.0
C696 C -0.00374 0.82552 0.55124 0.0
C697 C 0.02642 0.80278 0.59175 0.0
N698 N 0.02502 0.84228 0.50518 0.0
N699 N 0.03828 0.81767 0.57247 0.0
H700 H 0.39645 0.80783 0.83345 0.0
H701 H 0.38093 0.78571 0.67935 0.0
H702 H 0.40158 0.73082 0.7948 0.0
H703 H 0.36714 0.86144 0.7185 0.0
H704 H 0.37812 0.7635 0.72247 0.0
H705 H 0.37436 0.82562 0.79381 0.0
C706 C 0.39226 0.79448 0.81688 0.0
C707 C 0.40161 0.76808 0.81695 0.0
C708 C 0.37531 0.78493 0.72165 0.0
C709 C 0.37693 0.78834 0.77148 0.0
C710 C 0.37714 0.79765 0.69703 0.0
C711 C 0.37507 0.82554 0.69547 0.0
C712 C 0.37191 0.80026 0.74495 0.0
C713 C 0.36938 0.83993 0.71889 0.0
C714 C 0.37971 0.80466 0.79421 0.0
C715 C 0.39527 0.75151 0.79524 0.0
N716 N 0.36855 0.82718 0.74278 0.0
N717 N 0.38389 0.76209 0.77306 0.0
H718 H 0.51876 0.18433 0.03438 0.0
H719 H 0.38643 0.12156 0.97305 0.0
H720 H 0.4464 0.17053 0.07922 0.0
H721 H 0.4537 0.15024 0.92731 0.0
H722 H 0.41309 0.12618 0.01389 0.0
H723 H 0.50035 0.15797 -0.00241 0.0
C724 C 0.49923 0.17526 0.03669 0.0
C725 C 0.48371 0.18019 0.05947 0.0
C726 C 0.42211 0.13102 -0.00517 0.0
C727 C 0.46246 0.15044 0.01749 0.0
C728 C 0.40692 0.12841 0.97156 0.0
C729 C 0.41766 0.13629 0.94692 0.0
C730 C 0.44815 0.14143 -0.00671 0.0
C731 C 0.44439 0.14469 0.94602 0.0
C732 C 0.48871 0.16027 0.01569 0.0
C733 C 0.45874 0.16765 0.06168 0.0
N734 N 0.45861 0.14737 0.96893 0.0
N735 N 0.44861 0.15376 0.04067 0.0
H736 H 0.05798 0.82587 0.16725 0.0
H737 H 0.09089 0.79521 0.31912 0.0
H738 H 0.0502 0.74831 0.20397 0.0
H739 H 0.09218 0.87419 0.28444 0.0
H740 H 0.0868 0.77614 0.27451 0.0
H741 H 0.0815 0.84187 0.20698 0.0
C742 C 0.06167 0.81209 0.18349 0.0
C743 C 0.05162 0.78595 0.18271 0.0
C744 C 0.08829 0.79763 0.27662 0.0
C745 C 0.0782 0.8041 0.22813 0.0
C746 C 0.09052 0.80857 0.30212 0.0
C747 C 0.09113 0.8364 0.30557 0.0
C748 C 0.08642 0.81464 0.25445 0.0
C749 C 0.09125 0.85265 0.28276 0.0
C750 C 0.07506 0.82123 0.20616 0.0
C751 C 0.05721 0.76878 0.20405 0.0
N752 N 0.08845 0.84153 0.25815 0.0
N753 N 0.06977 0.7783 0.22613 0.0
H754 H 0.52518 0.77105 0.44962 0.0
H755 H 0.40732 0.86336 0.49994 0.0
H756 H 0.46832 0.80906 0.3971 0.0
H757 H 0.46859 0.83135 0.55169 0.0
H758 H 0.43408 0.8506 0.46129 0.0
H759 H 0.50972 0.7995 0.48619 0.0
C760 C 0.50974 0.7857 0.4457 0.0
C761 C 0.49762 0.7874 0.4205 0.0
C762 C 0.44188 0.84675 0.48111 0.0
C763 C 0.47963 0.81975 0.4622 0.0
C764 C 0.42657 0.85402 0.50322 0.0
C765 C 0.43538 0.84781 0.52912 0.0
C766 C 0.46601 0.83292 0.48492 0.0
C767 C 0.46072 0.8361 0.53211 0.0
C768 C 0.50092 0.80195 0.46657 0.0
C769 C 0.47792 0.80688 0.41638 0.0
N770 N 0.47492 0.82859 0.51025 0.0
N771 N 0.46921 0.82201 0.43716 0.0
H772 H 0.4455 0.26132 0.68548 0.0
H773 H 0.35383 0.15376 0.75611 0.0
H774 H 0.41885 0.18757 0.64932 0.0
H775 H 0.39344 0.21873 0.79714 0.0
H776 H 0.36443 0.17474 0.71355 0.0
H777 H 0.41463 0.25387 0.72252 0.0
C778 C 0.43288 0.24373 0.68517 0.0
C779 C 0.43514 0.22466 0.66472 0.0
C780 C 0.3703 0.18469 0.73189 0.0
C781 C 0.39982 0.21612 0.70684 0.0
C782 C 0.36421 0.17277 0.75624 0.0
C783 C 0.37369 0.184 0.78019 0.0
C784 C 0.38607 0.20786 0.73156 0.0
C785 C 0.38635 0.20899 0.77914 0.0
C786 C 0.41522 0.23955 0.70625 0.0
C787 C 0.41807 0.20248 0.66502 0.0
N788 N 0.39278 0.21979 0.75513 0.0
N789 N 0.40137 0.19861 0.68601 0.0
H790 H 0.05388 0.19685 0.91092 0.0
H791 H 0.05801 0.16898 0.06707 0.0
H792 H 0.0154 0.24724 0.9695 0.0
H793 H 0.12201 0.14349 0.01493 0.0
H794 H 0.03683 0.19123 0.02946 0.0
H795 H 0.07467 0.17141 0.94731 0.0
C796 C 0.0499 0.20257 0.93143 0.0
C797 C 0.03301 0.22415 0.93734 0.0
C798 C 0.05546 0.18068 0.02626 0.0
C799 C 0.05615 0.19506 0.97866 0.0
C800 C 0.06751 0.16779 0.04766 0.0
C801 C 0.09198 0.1545 0.0442 0.0
C802 C 0.06776 0.18008 0.00113 0.0
C803 C 0.10327 0.15369 0.01852 0.0
C804 C 0.06174 0.18811 0.95208 0.0
C805 C 0.02843 0.23081 0.96415 0.0
N806 N 0.09105 0.16638 -0.00212 0.0
N807 N 0.0398 0.21617 0.98386 0.0
H808 H 0.33804 0.01032 0.17172 0.0
H809 H 0.21066 0.09951 0.18737 0.0
H810 H 0.31302 0.04526 0.24658 0.0
H811 H 0.24455 0.08067 0.11041 0.0
H812 H 0.25233 0.0862 0.20869 0.0
H813 H 0.3087 0.04137 0.14802 0.0
C814 C 0.32664 0.02479 0.18312 0.0
C815 C 0.32733 0.02484 0.21113 0.0
C816 C 0.25098 0.0854 0.1871 0.0
C817 C 0.29388 0.06024 0.18431 0.0
C818 C 0.22718 0.09295 0.17498 0.0
C819 C 0.22424 0.09064 0.14726 0.0
C820 C 0.27164 0.07471 0.1714 0.0
C821 C 0.24616 0.08246 0.13192 0.0
C822 C 0.31002 0.04258 0.1696 0.0
C823 C 0.31259 0.0442 0.22497 0.0
N824 N 0.26886 0.07411 0.14429 0.0
N825 N 0.29611 0.06085 0.21142 0.0
H826 H 0.15758 0.09266 0.45081 0.0
H827 H 0.11164 0.94389 0.4746 0.0
H828 H 0.1628 0.05145 0.5263 0.0
H829 H 0.10654 0.98394 0.39843 0.0
H830 H 0.11915 0.98684 0.49629 0.0
H831 H 0.12803 0.05745 0.4341 0.0
C832 C 0.15204 0.07648 0.46404 0.0
C833 C 0.16316 0.07449 0.48969 0.0
C834 C 0.11597 0.98635 0.47488 0.0
C835 C 0.1297 0.03418 0.47072 0.0
C836 C 0.11177 0.9618 0.46247 0.0
C837 C 0.10926 0.9603 0.43459 0.0
C838 C 0.11817 0.00949 0.45924 0.0
C839 C 0.10887 0.98416 0.41994 0.0
C840 C 0.1352 0.05638 0.4545 0.0
C841 C 0.15511 0.05338 0.50616 0.0
N842 N 0.11391 0.00778 0.43239 0.0
N843 N 0.13923 0.03377 0.49622 0.0
H844 H 0.17163 0.95407 0.6405 0.0
H845 H 0.28899 0.85675 0.66055 0.0
H846 H 0.17512 0.90025 0.70761 0.0
H847 H 0.26979 0.88994 0.58342 0.0
H848 H 0.24348 0.86576 0.67537 0.0
H849 H 0.20281 0.9255 0.61636 0.0
C850 C 0.17876 0.93598 0.64999 0.0
C851 C 0.17148 0.92976 0.67627 0.0
C852 C 0.24891 0.87047 0.65497 0.0
C853 C 0.20731 0.89717 0.64898 0.0
C854 C 0.27491 0.86543 0.64657 0.0
C855 C 0.28316 0.87328 0.62101 0.0
C856 C 0.23138 0.88416 0.63792 0.0
C857 C 0.26419 0.88395 0.60343 0.0
C858 C 0.19638 0.91955 0.63613 0.0
C859 C 0.18069 0.90588 0.6875 0.0
N860 N 0.23927 0.88979 0.61247 0.0
N861 N 0.19872 0.89071 0.674 0.0
H862 H 0.34936 0.92134 0.95663 0.0
H863 H 0.37562 0.02001 0.83598 0.0
H864 H 0.31735 0.91129 0.8771 0.0
H865 H 0.38426 0.03987 0.91954 0.0
H866 H 0.37121 0.97285 0.84809 0.0
H867 H 0.37889 0.95639 0.9399 0.0
C868 C 0.34903 0.92604 0.93551 0.0
C869 C 0.33034 0.91407 0.91834 0.0
C870 C 0.37479 0.98749 0.86368 0.0
C871 C 0.36386 0.95409 0.89922 0.0
C872 C 0.37738 0.01437 0.85679 0.0
C873 C 0.37952 0.03386 0.87689 0.0
C874 C 0.37453 0.98023 0.89076 0.0
C875 C 0.3819 0.02548 0.9035 0.0
C876 C 0.36587 0.94604 0.926 0.0
C877 C 0.33105 0.92055 0.89111 0.0
N878 N 0.37889 -0.0007 0.90972 0.0
N879 N 0.34715 0.94057 0.88244 0.0
H880 H 0.32546 0.91941 0.32763 0.0
H881 H 0.1677 0.90247 0.3183 0.0
H882 H 0.28057 0.92156 0.25393 0.0
H883 H 0.21177 0.89222 0.39191 0.0
H884 H 0.20955 0.90642 0.29427 0.0
H885 H 0.28504 0.90537 0.35119 0.0
C886 C 0.3072 0.91648 0.31635 0.0
C887 C 0.30618 0.92195 0.28889 0.0
C888 C 0.21016 0.9032 0.31565 0.0
C889 C 0.25999 0.90629 0.31566 0.0
C890 C 0.1862 0.90113 0.32948 0.0
C891 C 0.18619 0.89735 0.35727 0.0
C892 C 0.23441 0.90173 0.32965 0.0
C893 C 0.21085 0.89533 0.37052 0.0
C894 C 0.28414 0.90855 0.32981 0.0
C895 C 0.28212 0.91777 0.27517 0.0
N896 N 0.23404 0.89777 0.35659 0.0
N897 N 0.25988 0.91049 0.28878 0.0
H898 H 0.28267 0.04267 0.48892 0.0
H899 H 0.36476 0.94045 0.52858 0.0
H900 H 0.30058 0.08059 0.5644 0.0
H901 H 0.35148 0.97198 0.60791 0.0
H902 H 0.34915 0.98249 0.50987 0.0
H903 H 0.31316 0.0067 0.50009 0.0
C904 C 0.29348 0.04363 0.50768 0.0
C905 C 0.28892 0.06443 0.52591 0.0
C906 C 0.34943 0.98021 0.53135 0.0
C907 C 0.32453 0.02353 0.53874 0.0
C908 C 0.35868 0.95626 0.54208 0.0
C909 C 0.35867 0.95236 0.56986 0.0
C910 C 0.33966 0.00019 0.54855 0.0
C911 C 0.35132 0.97385 0.58636 0.0
C912 C 0.31123 0.02318 0.51397 0.0
C913 C 0.30342 0.06476 0.54989 0.0
N914 N 0.34168 -0.00332 0.57543 0.0
N915 N 0.32031 0.04437 0.55579 0.0
H916 H 0.18464 0.00296 0.79679 0.0
H917 H 0.29458 0.11498 0.79132 0.0
H918 H 0.18601 0.06281 0.73485 0.0
H919 H 0.27321 0.07598 0.86509 0.0
H920 H 0.25435 0.09682 0.77047 0.0
H921 H 0.21698 0.02933 0.82237 0.0
C922 C 0.19172 0.0217 0.78864 0.0
C923 C 0.18296 0.03064 0.76358 0.0
C924 C 0.25818 0.0926 0.79134 0.0
C925 C 0.21979 0.06078 0.79262 0.0
C926 C 0.28113 0.10291 0.80322 0.0
C927 C 0.28723 0.09671 0.82984 0.0
C928 C 0.24158 0.07549 0.80603 0.0
C929 C 0.26914 0.08118 0.84449 0.0
C930 C 0.20997 0.03682 0.80332 0.0
C931 C 0.19245 0.05515 0.75403 0.0
N932 N 0.2473 0.07062 0.83221 0.0
N933 N 0.21065 0.06925 0.76843 0.0
H934 H 0.18722 0.90648 0.00229 0.0
H935 H 0.14456 0.00631 0.08726 0.0
H936 H 0.23391 0.96874 0.96534 0.0
H937 H 0.17093 0.06196 0.0269 0.0
H938 H 0.15799 0.96961 0.05869 0.0
H939 H 0.16116 0.94034 0.02556 0.0
C940 C 0.19201 0.92735 -0.00083 0.0
C941 C 0.21306 0.93487 0.98232 0.0
C942 C 0.16016 0.98972 0.05117 0.0
C943 C 0.18403 0.97381 0.0097 0.0
C944 C 0.15268 0.01082 0.06772 0.0
C945 C 0.15688 0.03732 0.05964 0.0
C946 C 0.17191 -0.0049 0.02625 0.0
C947 C 0.16745 0.04187 0.03406 0.0
C948 C 0.17728 0.94673 0.01269 0.0
C949 C 0.21804 0.96213 0.97845 0.0
N950 N 0.17496 0.02095 0.01844 0.0
N951 N 0.2038 0.98065 -0.0077 0.0
H952 H 0.1719 0.3366 0.08395 0.0
H953 H 0.12879 0.22049 0.13967 0.0
H954 H 0.25228 0.3081 0.09687 0.0
H955 H 0.20652 0.19288 0.11411 0.0
H956 H 0.14552 0.26628 0.13937 0.0
H957 H 0.15489 0.29915 0.10968 0.0
C958 C 0.18601 0.3229 0.09298 0.0
C959 C 0.21343 0.32492 0.08769 0.0
C960 C 0.15891 0.25021 0.13388 0.0
C961 C 0.19426 0.28209 0.11736 0.0
C962 C 0.14945 0.224 0.13422 0.0
C963 C 0.16603 0.20291 0.12591 0.0
C964 C 0.18503 0.25522 0.12498 0.0
C965 C 0.19278 0.20859 0.11981 0.0
C966 C 0.17631 0.30153 0.10791 0.0
C967 C 0.2309 0.30685 0.1 0.0
N968 N 0.20132 0.23426 0.11908 0.0
N969 N 0.22096 0.28576 0.11371 0.0
H970 H 0.6453 0.15219 0.95111 0.0
H971 H 0.68349 0.27552 0.86138 0.0
H972 H 0.72569 0.17744 0.93272 0.0
H973 H 0.60244 0.25496 0.88235 0.0
H974 H 0.69805 0.23141 0.8757 0.0
H975 H 0.62851 0.18139 0.91565 0.0
C976 C 0.65941 0.16357 0.93931 0.0
C977 C 0.68679 0.16315 0.94526 0.0
C978 C 0.67699 0.23628 0.87677 0.0
C979 C 0.6679 0.19626 0.90487 0.0
C980 C 0.66871 0.26146 0.86862 0.0
C981 C 0.64192 0.26899 0.8715 0.0
C982 C 0.65843 0.21887 0.88855 0.0
C983 C 0.62339 0.24994 0.88029 0.0
C984 C 0.64986 0.18013 0.91906 0.0
C985 C 0.70434 0.17781 0.92919 0.0
N986 N 0.63211 0.22588 0.88923 0.0
N987 N 0.69454 0.19408 0.90997 0.0
H988 H 0.07441 0.38714 0.16719 0.0
H989 H 0.9375 0.41193 0.0959 0.0
H990 H 0.04991 0.4617 0.13167 0.0
H991 H 0.95973 0.33723 0.1324 0.0
H992 H 0.98436 0.42518 0.09526 0.0
H993 H 0.03948 0.36414 0.14186 0.0
C994 C 0.06209 0.39857 0.15355 0.0
C995 C 0.06436 0.42646 0.15214 0.0
C996 C 0.97918 0.40562 0.1029 0.0
C997 C 0.02438 0.4004 0.12338 0.0
C998 C 0.95243 0.39809 0.10326 0.0
C999 C 0.94487 0.37382 0.11489 0.0
C1000 C -0.00167 0.3891 0.11504 0.0
C1001 C 0.96486 0.35631 0.12363 0.0
C1002 C 0.04216 0.38542 0.13909 0.0
C1003 C 0.0483 0.44025 0.13386 0.0
N1004 N 0.99073 0.36462 0.12425 0.0
N1005 N 0.02859 0.42714 0.1206 0.0
H1006 H 0.75381 0.81338 0.40696 0.0
H1007 H 0.88803 0.72911 0.39747 0.0
H1008 H 0.82607 0.83411 0.44942 0.0
H1009 H 0.80973 0.7026 0.37269 0.0
H1010 H 0.86987 0.7743 0.4044 0.0
H1011 H 0.77883 0.78044 0.38122 0.0
C1012 C 0.77507 0.81124 0.41054 0.0
C1013 C 0.78782 0.82579 0.43079 0.0
C1014 C 0.85687 0.75863 0.39698 0.0
C1015 C 0.81639 0.78794 0.4019 0.0
C1016 C 0.86718 0.73297 0.39308 0.0
C1017 C 0.85008 0.71218 0.38527 0.0
C1018 C 0.8295 0.76327 0.39261 0.0
C1019 C 0.82334 0.71804 0.37949 0.0
C1020 C 0.78934 0.79248 0.39586 0.0
C1021 C 0.81547 0.82281 0.43426 0.0
N1022 N 0.81382 0.74299 0.38352 0.0
N1023 N 0.82881 0.80369 0.42035 0.0
H1024 H 0.91306 0.05054 0.17735 0.0
H1025 H 0.06467 0.0267 0.1348 0.0
H1026 H 0.95382 0.97486 0.18409 0.0
H1027 H 0.02558 0.10368 0.13353 0.0
H1028 H 0.02185 0.00577 0.14486 0.0
H1029 H 0.95172 0.06864 0.15372 0.0
C1030 C 0.93006 0.03768 0.17361 0.0
C1031 C 0.93048 0.01132 0.18299 0.0
C1032 C 0.0226 0.02721 0.14206 0.0
C1033 C 0.97471 0.03183 0.1561 0.0
C1034 C 0.04706 0.0392 0.13627 0.0
C1035 C 0.04886 0.06708 0.13385 0.0
C1036 C -0.00018 0.04322 0.14554 0.0
C1037 C 0.02526 0.08216 0.13566 0.0
C1038 C 0.95211 0.04799 0.16012 0.0
C1039 C 0.95286 -0.0046 0.17744 0.0
N1040 N 0.00178 0.07007 0.14174 0.0
N1041 N 0.97423 0.00601 0.16458 0.0
H1042 H 0.33107 0.64427 0.53231 0.0
H1043 H 0.3096 0.79135 0.58245 0.0
H1044 H 0.25352 0.67803 0.54926 0.0
H1045 H 0.38685 0.753 0.58435 0.0
H1046 H 0.28863 0.74811 0.57528 0.0
H1047 H 0.35193 0.68105 0.55686 0.0
C1048 C 0.31842 0.65914 0.54169 0.0
C1049 C 0.2906 0.65856 0.53826 0.0
C1050 C 0.31014 0.749 0.57755 0.0
C1051 C 0.31424 0.70068 0.56596 0.0
C1052 C 0.32215 0.77373 0.58139 0.0
C1053 C 0.35003 0.77573 0.58336 0.0
C1054 C 0.32616 0.72611 0.5751 0.0
C1055 C 0.36529 0.75226 0.58257 0.0
C1056 C 0.33033 0.68011 0.55569 0.0
C1057 C 0.27509 0.67804 0.55105 0.0
N1058 N 0.35317 0.72837 0.57798 0.0
N1059 N 0.28717 0.69863 0.56392 0.0
H1060 H 0.01639 0.46804 0.25735 0.0
H1061 H 0.97449 0.59898 0.33922 0.0
H1062 H 0.06808 0.53595 0.27029 0.0
H1063 H 0.91876 0.53731 0.31547 0.0
H1064 H 0.01088 0.57238 0.32061 0.0
H1065 H 0.98205 0.4898 0.28469 0.0
C1066 C 0.02053 0.48744 0.26608 0.0
C1067 C 0.04492 0.50038 0.26137 0.0
C1068 C 0.9907 0.56459 0.31967 0.0
C1069 C 0.00601 0.52523 0.29262 0.0
C1070 C 0.96991 0.57973 0.33039 0.0
C1071 C 0.94346 0.57058 0.32855 0.0
C1072 C 0.985 0.54013 0.30708 0.0
C1073 C 0.93879 0.54537 0.317 0.0
C1074 C 0.00099 0.49983 0.28165 0.0
C1075 C 0.04941 0.52541 0.27322 0.0
N1076 N 0.95934 0.53113 0.3065 0.0
N1077 N 0.03008 0.53708 0.2882 0.0
H1078 H 0.40959 0.45205 0.81028 0.0
H1079 H 0.56859 0.44901 0.81549 0.0
H1080 H 0.45998 0.51375 0.77734 0.0
H1081 H 0.51778 0.38584 0.84516 0.0
H1082 H 0.52907 0.47654 0.80822 0.0
H1083 H 0.44892 0.43144 0.83041 0.0
C1084 C 0.42892 0.46145 0.80761 0.0
C1085 C 0.4317 0.48434 0.79178 0.0
C1086 C 0.52661 0.45674 0.81655 0.0
C1087 C 0.47672 0.46079 0.81445 0.0
C1088 C 0.54917 0.44097 0.82065 0.0
C1089 C 0.54648 0.41486 0.83048 0.0
C1090 C 0.5012 0.44631 0.82223 0.0
C1091 C 0.52082 0.40568 0.83714 0.0
C1092 C 0.45136 0.44968 0.81906 0.0
C1093 C 0.45708 0.4959 0.78916 0.0
N1094 N 0.49916 0.4213 0.83263 0.0
N1095 N 0.47872 0.48377 0.80008 0.0
H1096 H 0.91061 0.73698 0.71445 0.0
H1097 H 0.87803 0.88391 0.76725 0.0
H1098 H 0.90787 0.8062 0.66326 0.0
H1099 H 0.88773 0.81436 0.81722 0.0
H1100 H 0.87972 0.85478 0.72768 0.0
H1101 H 0.89202 0.76378 0.75075 0.0
C1102 C 0.90559 0.7577 0.71071 0.0
C1103 C 0.91123 0.76954 0.68603 0.0
C1104 C 0.88117 0.84595 0.74736 0.0
C1105 C 0.89053 0.80049 0.72756 0.0
C1106 C 0.88023 0.86255 0.76989 0.0
C1107 C 0.8834 0.85161 0.79549 0.0
C1108 C 0.8851 0.8183 0.7506 0.0
C1109 C 0.88591 0.82377 0.79783 0.0
C1110 C 0.89509 0.77305 0.73146 0.0
C1111 C 0.90412 0.7964 0.68216 0.0
N1112 N 0.88693 0.80816 0.77572 0.0
N1113 N 0.89458 0.81114 0.70288 0.0
H1114 H -0.00116 0.1486 0.41867 0.0
H1115 H 0.86561 0.14688 0.50231 0.0
H1116 H 0.92439 0.18239 0.39123 0.0
H1117 H 0.94207 0.11733 0.52922 0.0
H1118 H 0.88287 0.1479 0.45646 0.0
H1119 H 0.97449 0.1241 0.45293 0.0
C1120 C 0.97728 0.15043 0.41957 0.0
C1121 C 0.96364 0.16812 0.40281 0.0
C1122 C 0.89567 0.14071 0.47237 0.0
C1123 C 0.93577 0.14087 0.44223 0.0
C1124 C 0.88585 0.14021 0.49848 0.0
C1125 C 0.9028 0.13294 0.51955 0.0
C1126 C 0.9225 0.13381 0.46757 0.0
C1127 C 0.92867 0.124 0.51359 0.0
C1128 C 0.96335 0.13647 0.43912 0.0
C1129 C 0.93567 0.16935 0.40428 0.0
N1130 N 0.93784 0.12506 0.48821 0.0
N1131 N 0.92266 0.15645 0.42422 0.0
H1132 H 0.54719 0.25639 0.19502 0.0
H1133 H 0.61312 0.12552 0.25586 0.0
H1134 H 0.57176 0.18832 0.14795 0.0
H1135 H 0.58661 0.19293 0.30303 0.0
H1136 H 0.60605 0.1517 0.21543 0.0
H1137 H 0.56985 0.23725 0.23375 0.0
C1138 C 0.55778 0.23765 0.19274 0.0
C1139 C 0.55721 0.22363 0.16846 0.0
C1140 C 0.60206 0.16085 0.23465 0.0
C1141 C 0.58282 0.20148 0.21262 0.0
C1142 C 0.60603 0.14588 0.25777 0.0
C1143 C 0.59989 0.15682 0.28288 0.0
C1144 C 0.59175 0.18687 0.23666 0.0
C1145 C 0.59116 0.18347 0.28409 0.0
C1146 C 0.57065 0.22669 0.21485 0.0
C1147 C 0.57141 0.19956 0.16647 0.0
N1148 N 0.58703 0.19746 0.26128 0.0
N1149 N 0.58331 0.18902 0.18841 0.0
H1150 H 0.53455 0.81234 0.88655 0.0
H1151 H 0.53428 0.84111 0.04093 0.0
H1152 H 0.46343 0.81461 0.93527 0.0
H1153 H 0.60516 0.84537 0.99194 0.0
H1154 H 0.50691 0.8413 0.00073 0.0
H1155 H 0.5591 0.83508 0.92214 0.0
C1156 C 0.52394 0.81826 0.90448 0.0
C1157 C 0.49718 0.8109 0.9084 0.0
C1158 C 0.52843 0.84253 -0.00131 0.0
C1159 C 0.52513 0.83641 0.94923 0.0
C1160 C 0.54408 0.84219 0.02166 0.0
C1161 C 0.57204 0.84244 0.01969 0.0
C1162 C 0.54081 0.84259 0.97352 0.0
C1163 C 0.58366 0.84466 -0.00571 0.0
C1164 C 0.53797 0.83117 0.92482 0.0
C1165 C 0.48425 0.81938 0.93174 0.0
N1166 N 0.56798 0.84411 0.97212 0.0
N1167 N 0.49852 0.83118 0.95157 0.0
H1168 H 0.96207 0.18377 0.83017 0.0
H1169 H 0.92216 0.19754 0.67669 0.0
H1170 H 0.95334 0.25901 0.78906 0.0
H1171 H 0.91661 0.12283 0.71945 0.0
H1172 H 0.93421 0.21993 0.718 0.0
H1173 H 0.94579 0.16059 0.79017 0.0
C1174 C 0.95661 0.19539 0.81276 0.0
C1175 C 0.95915 0.22329 0.81276 0.0
C1176 C 0.93027 0.19866 0.71845 0.0
C1177 C 0.94071 0.19704 0.76719 0.0
C1178 C 0.92349 0.18579 0.6948 0.0
C1179 C 0.91855 0.15819 0.69457 0.0
C1180 C 0.93234 0.18388 0.74212 0.0
C1181 C 0.92031 0.14413 0.71874 0.0
C1182 C 0.94729 0.18217 0.79001 0.0
C1183 C 0.95175 0.23745 0.78983 0.0
N1184 N 0.92725 0.15713 0.74159 0.0
N1185 N 0.943 0.22414 0.76789 0.0
H1186 H 0.55749 0.16132 0.58615 0.0
H1187 H 0.54006 0.11035 0.43778 0.0
H1188 H 0.48283 0.16032 0.54285 0.0
H1189 H 0.61611 0.116 0.47824 0.0
H1190 H 0.51738 0.1162 0.48041 0.0
H1191 H 0.57717 0.13262 0.55187 0.0
C1192 C 0.54505 0.15454 0.56974 0.0
C1193 C 0.51872 0.16375 0.56687 0.0
C1194 C 0.53903 0.11575 0.48011 0.0
C1195 C 0.54114 0.13124 0.52758 0.0
C1196 C 0.55199 0.1125 0.45575 0.0
C1197 C 0.57998 0.11348 0.45444 0.0
C1198 C 0.55415 0.12051 0.50328 0.0
C1199 C 0.59447 0.11557 0.47836 0.0
C1200 C 0.55632 0.13819 0.55016 0.0
C1201 C 0.50338 0.15409 0.5455 0.0
N1202 N 0.58135 0.11963 0.5018 0.0
N1203 N 0.51498 0.13875 0.52637 0.0
H1204 H 0.58253 0.7785 0.32481 0.0
H1205 H 0.60259 0.7609 0.16869 0.0
H1206 H 0.55336 0.71154 0.2787 0.0
H1207 H 0.6235 0.83216 0.213 0.0
H1208 H 0.59613 0.73738 0.21075 0.0
H1209 H 0.60875 0.79291 0.28627 0.0
C1210 C 0.58199 0.76662 0.30669 0.0
C1211 C 0.5653 0.74421 0.30461 0.0
C1212 C 0.60254 0.75805 0.21125 0.0
C1213 C 0.59503 0.76055 0.2606 0.0
C1214 C 0.60622 0.77153 0.18723 0.0
C1215 C 0.61277 0.7988 0.18732 0.0
C1216 C 0.60526 0.772 0.23547 0.0
C1217 C 0.61779 0.81132 0.21196 0.0
C1218 C 0.59696 0.77482 0.28473 0.0
C1219 C 0.56559 0.72927 0.28089 0.0
N1220 N 0.61344 0.79794 0.23509 0.0
N1221 N 0.57989 0.73795 0.25963 0.0
H1222 H 0.93563 0.8364 0.09815 0.0
H1223 H 0.95773 0.88381 0.94942 0.0
H1224 H 0.00986 0.82861 0.05491 0.0
H1225 H 0.88222 0.88805 0.99109 0.0
H1226 H 0.98008 0.87525 0.9918 0.0
H1227 H 0.91916 0.86656 0.06357 0.0
C1228 C 0.94863 0.84142 0.0816 0.0
C1229 C 0.97383 0.8295 0.07892 0.0
C1230 C 0.95868 0.87849 0.99174 0.0
C1231 C 0.95512 0.86368 0.03931 0.0
C1232 C 0.94587 0.88332 0.96752 0.0
C1233 C 0.91793 0.88577 0.96659 0.0
C1234 C 0.9434 0.87579 0.0151 0.0
C1235 C 0.90372 0.88563 0.99076 0.0
C1236 C 0.93924 0.85865 0.06188 0.0
C1237 C 0.99005 0.83697 0.05739 0.0
N1238 N 0.91656 0.88013 0.01399 0.0
N1239 N 0.98022 0.85324 0.03811 0.0
H1240 H 0.6776 0.9225 0.75683 0.0
H1241 H 0.76106 0.90423 0.89066 0.0
H1242 H 0.65477 0.95588 0.83309 0.0
H1243 H 0.79229 0.89549 0.81071 0.0
H1244 H 0.7159 0.90794 0.87196 0.0
H1245 H 0.71247 0.89669 0.77911 0.0
C1246 C 0.67951 0.9239 0.77836 0.0
C1247 C 0.6639 0.94192 0.7931 0.0
C1248 C 0.73264 0.90467 0.85862 0.0
C1249 C 0.70373 0.91273 0.81854 0.0
C1250 C 0.75835 0.90257 0.86923 0.0
C1251 C 0.78042 0.90027 0.8521 0.0
C1252 C 0.72912 0.90418 0.83079 0.0
C1253 C 0.77584 0.89796 0.82455 0.0
C1254 C 0.69942 0.90921 0.79103 0.0
C1255 C 0.66685 0.94263 0.82096 0.0
N1256 N 0.75071 0.90028 0.81471 0.0
N1257 N 0.68685 0.92865 0.83278 0.0
H1258 H 0.79356 0.90757 0.55929 0.0
H1259 H 0.84574 0.05655 0.53909 0.0
H1260 H 0.78891 0.95111 0.48505 0.0
H1261 H 0.85078 0.01487 0.61442 0.0
H1262 H 0.82985 0.01583 0.51792 0.0
H1263 H 0.81893 0.94455 0.57891 0.0
C1264 C 0.79802 0.92486 0.5471 0.0
C1265 C 0.78894 0.92652 0.52064 0.0
C1266 C 0.83459 0.01546 0.53904 0.0
C1267 C 0.81787 0.96863 0.5428 0.0
C1268 C 0.84362 0.03874 0.55117 0.0
C1269 C 0.84914 0.03917 0.57866 0.0
C1270 C 0.83076 -0.00755 0.55452 0.0
C1271 C 0.84655 0.0154 0.5932 0.0
C1272 C 0.81252 0.9459 0.55827 0.0
C1273 C 0.79535 0.94918 0.50562 0.0
N1274 N 0.83718 -0.007 0.581 0.0
N1275 N 0.8093 0.96944 0.51699 0.0
H1276 H 0.79407 0.04454 0.22497 0.0
H1277 H 0.72761 0.08833 0.36249 0.0
H1278 H 0.83417 0.03984 0.30124 0.0
H1279 H 0.68882 0.09441 0.28555 0.0
H1280 H 0.76967 0.07821 0.33978 0.0
H1281 H 0.75834 0.07033 0.24597 0.0
C1282 C 0.79551 0.04927 0.24607 0.0
C1283 C 0.8168 0.0397 0.26152 0.0
C1284 C 0.75201 0.08213 0.32788 0.0
C1285 C 0.77597 0.06888 0.28575 0.0
C1286 C 0.728 0.08795 0.34084 0.0
C1287 C 0.70452 0.0916 0.32593 0.0
C1288 C 0.75245 0.0799 0.29987 0.0
C1289 C 0.70628 0.09113 0.29791 0.0
C1290 C 0.77513 0.06398 0.25807 0.0
C1291 C 0.81788 0.04658 0.2887 0.0
N1292 N 0.72973 0.085 0.28583 0.0
N1293 N 0.79751 0.06043 0.30006 0.0
H1294 H 0.66026 0.0789 0.07665 0.0
H1295 H 0.61779 0.93147 0.03732 0.0
H1296 H 0.65917 0.04748 -0.00377 0.0
H1297 H 0.62683 0.95917 0.11867 0.0
H1298 H 0.62091 0.97741 0.02188 0.0
H1299 H 0.63638 0.03911 0.09187 0.0
C1300 C 0.65457 0.06382 0.06214 0.0
C1301 C 0.66222 0.06602 0.0353 0.0
C1302 C 0.62186 0.97351 0.04314 0.0
C1303 C 0.63512 0.02069 0.05248 0.0
C1304 C 0.62019 0.94727 0.05197 0.0
C1305 C 0.62287 0.94147 0.07925 0.0
C1306 C 0.62663 -0.00595 0.06169 0.0
C1307 C 0.62517 0.96275 0.0974 0.0
C1308 C 0.64096 0.04116 0.07083 0.0
C1309 C 0.65412 0.04621 0.01722 0.0
N1310 N 0.62754 0.98814 0.08823 0.0
N1311 N 0.64133 0.02414 0.02623 0.0
H1312 H 0.71326 0.04662 0.75999 0.0
H1313 H 0.77271 0.11999 0.63177 0.0
H1314 H 0.67158 0.0545 0.68482 0.0
H1315 H 0.82025 0.0967 0.70004 0.0
H1316 H 0.73264 0.10565 0.65538 0.0
H1317 H 0.74998 0.07334 0.74198 0.0
C1318 C 0.71183 0.05406 0.73972 0.0
C1319 C 0.68961 0.04809 0.72369 0.0
C1320 C 0.75182 0.10401 0.66529 0.0
C1321 C 0.73122 0.07878 0.70316 0.0
C1322 C 0.77473 0.11232 0.6519 0.0
C1323 C 0.79998 0.10894 0.66369 0.0
C1324 C 0.7542 0.09229 0.69063 0.0
C1325 C 0.80126 0.09919 0.68995 0.0
C1326 C 0.73271 0.06935 0.72951 0.0
C1327 C 0.68856 0.05839 0.69769 0.0
N1328 N 0.77869 0.09084 0.70241 0.0
N1329 N 0.70918 0.07315 0.68817 0.0
H1330 H 0.66089 0.91857 0.48664 0.0
H1331 H 0.63785 -0.00317 0.35128 0.0
H1332 H 0.69093 0.89258 0.41004 0.0
H1333 H 0.61999 0.02685 0.4302 0.0
H1334 H 0.64422 0.95216 0.3703 0.0
H1335 H 0.63232 0.95086 0.46396 0.0
C1336 C 0.66108 0.91935 0.465 0.0
C1337 C 0.67882 0.90356 0.45018 0.0
C1338 C 0.63838 0.96845 0.38333 0.0
C1339 C 0.64666 0.94063 0.42419 0.0
C1340 C 0.63476 -0.00612 0.37249 0.0
C1341 C 0.62924 0.01557 0.38938 0.0
C1342 C 0.63628 0.96491 0.41111 0.0
C1343 C 0.62507 0.01074 0.41664 0.0
C1344 C 0.64479 0.93776 0.45205 0.0
C1345 C 0.67791 0.90488 0.4222 0.0
N1346 N 0.62905 0.98599 0.42672 0.0
N1347 N 0.66254 0.92362 0.41007 0.0
H1348 H 0.83303 0.9379 0.15319 0.0
H1349 H 0.69784 0.85719 0.17397 0.0
H1350 H 0.80205 0.91324 0.22973 0.0
H1351 H 0.72536 0.88428 0.0969 0.0
H1352 H 0.74074 0.8696 0.19328 0.0
H1353 H 0.79859 0.91099 0.13108 0.0
C1354 C 0.81919 0.92653 0.16531 0.0
C1355 C 0.82 0.92812 0.19329 0.0
C1356 C 0.73759 0.87257 0.17207 0.0
C1357 C 0.78073 0.89744 0.16826 0.0
C1358 C 0.71307 0.86551 0.16104 0.0
C1359 C 0.70788 0.87028 0.13392 0.0
C1360 C 0.75695 0.88485 0.15597 0.0
C1361 C 0.72849 0.88055 0.11798 0.0
C1362 C 0.79958 0.91119 0.1527 0.0
C1363 C 0.80183 0.91287 0.20809 0.0
N1364 N 0.75203 0.88798 0.12936 0.0
N1365 N 0.78274 0.89839 0.19538 0.0
H1366 H 0.78842 0.05795 0.01924 0.0
H1367 H 0.84052 0.00334 0.88063 0.0
H1368 H 0.78385 0.10371 0.9464 0.0
H1369 H 0.85709 0.96594 0.95652 0.0
H1370 H 0.82579 0.04355 0.90452 0.0
H1371 H 0.81942 0.02728 -0.0026 0.0
C1372 C 0.7943 0.06174 -0.00123 0.0
C1373 C 0.78329 0.08307 0.98446 0.0
C1374 C 0.83313 0.0267 0.91589 0.0
C1375 C 0.81833 0.04788 0.95912 0.0
C1376 C 0.8416 0.00379 0.90225 0.0
C1377 C 0.84937 0.98107 0.91664 0.0
C1378 C 0.83241 0.02667 0.94401 0.0
C1379 C 0.85056 0.98278 0.94463 0.0
C1380 C 0.81201 0.04426 0.98626 0.0
C1381 C 0.79173 0.08729 0.95805 0.0
N1382 N 0.84175 0.00498 0.95739 0.0
N1383 N 0.80838 0.06952 0.94603 0.0
H1384 H 0.76369 0.69032 0.91471 0.0
H1385 H 0.88934 0.78613 0.89433 0.0
H1386 H 0.84559 0.66445 0.92315 0.0
H1387 H 0.80825 0.8136 0.90588 0.0
H1388 H 0.87319 0.7401 0.89473 0.0
H1389 H 0.77955 0.73391 0.89976 0.0
C1390 C 0.78501 0.69364 0.91284 0.0
C1391 C 0.80342 0.67405 0.92066 0.0
C1392 C 0.85897 0.75625 0.89703 0.0
C1393 C 0.8216 0.72377 0.904 0.0
C1394 C 0.86814 0.78251 0.89693 0.0
C1395 C 0.85016 0.80374 0.90052 0.0
C1396 C 0.83162 0.75122 0.9006 0.0
C1397 C 0.8229 0.79786 0.90349 0.0
C1398 C 0.79404 0.71855 0.90448 0.0
C1399 C 0.83078 0.67923 0.91766 0.0
N1400 N 0.81447 0.77212 0.90358 0.0
N1401 N 0.8391 0.70381 0.90992 0.0
H1402 H 0.31911 0.8448 0.02517 0.0
H1403 H 0.28032 0.70445 0.08991 0.0
H1404 H 0.24749 0.80017 0.00699 0.0
H1405 H 0.35828 0.74066 0.09852 0.0
H1406 H 0.26456 0.74466 0.06769 0.0
H1407 H 0.33053 0.81159 0.05931 0.0
C1408 C 0.3057 0.82815 0.02855 0.0
C1409 C 0.28253 0.82495 0.01305 0.0
C1410 C 0.28504 0.74396 0.0747 0.0
C1411 C 0.29528 0.78722 0.05199 0.0
C1412 C 0.29406 0.72101 0.08745 0.0
C1413 C 0.32083 0.71895 0.09558 0.0
C1414 C 0.30294 0.76499 0.06983 0.0
C1415 C 0.33755 0.74126 0.0923 0.0
C1416 C 0.3122 0.80926 0.048 0.0
C1417 C 0.26573 0.80318 0.01828 0.0
N1418 N 0.32844 0.76324 0.07926 0.0
N1419 N 0.27252 0.78507 0.03719 0.0
H1420 H 0.94643 0.47938 0.80532 0.0
H1421 H 0.00874 0.61344 0.86271 0.0
H1422 H 0.90308 0.55377 0.81031 0.0
H1423 H 0.04981 0.53751 0.86145 0.0
H1424 H 0.96723 0.59049 0.85107 0.0
H1425 H 0.98171 0.49867 0.83299 0.0
C1426 C 0.94422 0.49969 0.81253 0.0
C1427 C 0.92211 0.51519 0.80518 0.0
C1428 C 0.98526 0.57882 0.85375 0.0
C1429 C 0.96243 0.5375 0.83659 0.0
C1430 C 0.00898 0.59191 0.86044 0.0
C1431 C 0.03294 0.57747 0.86241 0.0
C1432 C 0.9856 0.55116 0.8489 0.0
C1433 C 0.03195 0.54957 0.85954 0.0
C1434 C 0.96433 0.5107 0.82836 0.0
C1435 C 0.92002 0.54127 0.81529 0.0
N1436 N 0.00876 0.5374 0.85253 0.0
N1437 N 0.94017 0.55177 0.83017 0.0
H1438 H 0.24862 0.19146 0.57467 0.0
H1439 H 0.11896 0.26131 0.63112 0.0
H1440 H 0.17182 0.15276 0.58147 0.0
H1441 H 0.19558 0.30007 0.62221 0.0
H1442 H 0.14079 0.21808 0.62501 0.0
H1443 H 0.23259 0.22736 0.60361 0.0
C1444 C 0.22854 0.1903 0.58266 0.0
C1445 C 0.21127 0.16955 0.57515 0.0
C1446 C 0.1529 0.23602 0.62493 0.0
C1447 C 0.19266 0.21062 0.60791 0.0
C1448 C 0.14044 0.26072 0.62848 0.0
C1449 C 0.15535 0.28436 0.62629 0.0
C1450 C 0.18035 0.23509 0.61904 0.0
C1451 C 0.18317 0.28237 0.62323 0.0
C1452 C 0.21937 0.21078 0.59919 0.0
C1453 C 0.1856 0.16873 0.58638 0.0
N1454 N 0.19469 0.2582 0.61918 0.0
N1455 N 0.17687 0.1893 0.60179 0.0
H1456 H 0.08545 0.93575 0.79101 0.0
H1457 H 0.93651 0.97145 0.8287 0.0
H1458 H 0.04842 0.01023 0.76843 0.0
H1459 H 0.98142 0.9082 0.86653 0.0
H1460 H 0.97804 0.98854 0.80961 0.0
H1461 H 0.04835 0.92715 0.82142 0.0
C1462 C 0.06956 0.95037 0.79262 0.0
C1463 C 0.06973 0.97354 0.77701 0.0
C1464 C 0.97881 0.97118 0.82246 0.0
C1465 C 0.02721 0.96384 0.81155 0.0
C1466 C 0.95511 0.96141 0.83338 0.0
C1467 C 0.95537 0.93798 0.84873 0.0
C1468 C 0.0028 0.95725 0.82675 0.0
C1469 C 0.98012 0.926 0.85436 0.0
C1470 C 0.04846 0.94555 0.81007 0.0
C1471 C 0.04886 -0.008 0.78002 0.0
N1472 N 0.00277 0.93552 0.843 0.0
N1473 N 0.02818 0.98658 0.7967 0.0
H1474 H 0.75251 0.28266 0.44964 0.0
H1475 H 0.61997 0.21585 0.39061 0.0
H1476 H 0.67573 0.32194 0.44714 0.0
H1477 H 0.69492 0.1741 0.40071 0.0
H1478 H 0.64187 0.2572 0.40451 0.0
H1479 H 0.73341 0.24496 0.42504 0.0
C1480 C 0.73169 0.28342 0.44369 0.0
C1481 C 0.71554 0.3052 0.45067 0.0
C1482 C 0.65354 0.239 0.40346 0.0
C1483 C 0.69359 0.2623 0.42269 0.0
C1484 C 0.64106 0.21539 0.3955 0.0
C1485 C 0.65551 0.19137 0.39492 0.0
C1486 C 0.68062 0.23856 0.41088 0.0
C1487 C 0.68286 0.19205 0.40125 0.0
C1488 C 0.7208 0.26193 0.42968 0.0
C1489 C 0.68877 0.30534 0.44237 0.0
N1490 N 0.69446 0.21523 0.4092 0.0
N1491 N 0.67855 0.28407 0.42898 0.0
H1492 H 0.93592 0.50493 0.67837 0.0
H1493 H 0.00464 0.37274 0.62997 0.0
H1494 H 0.89681 0.42806 0.67736 0.0
H1495 H 0.04052 0.45103 0.62387 0.0
H1496 H 0.96119 0.39381 0.63658 0.0
H1497 H 0.96991 0.48739 0.6481 0.0
C1498 C 0.93425 0.4845 0.67136 0.0
C1499 C 0.91407 0.46766 0.68092 0.0
C1500 C 0.97849 0.40639 0.63327 0.0
C1501 C 0.95296 0.44733 0.64672 0.0
C1502 C 0.00334 0.39434 0.62951 0.0
C1503 C 0.02639 0.41015 0.62736 0.0
C1504 C 0.97684 0.43437 0.63515 0.0
C1505 C 0.0234 0.43803 0.62635 0.0
C1506 C 0.95362 0.47447 0.65405 0.0
C1507 C 0.91246 0.44152 0.67089 0.0
N1508 N -0.00083 0.44925 0.63083 0.0
N1509 N 0.93203 0.43195 0.65478 0.0
H1510 H 0.51458 0.5197 0.25448 0.0
H1511 H 0.46098 0.62952 0.15476 0.0
H1512 H 0.56894 0.56321 0.20372 0.0
H1513 H 0.41416 0.56163 0.18038 0.0
H1514 H 0.50093 0.60822 0.17376 0.0
H1515 H 0.47706 0.53803 0.22942 0.0
C1516 C 0.51857 0.53311 0.23798 0.0
C1517 C 0.54477 0.54004 0.23111 0.0
C1518 C 0.48187 0.59799 0.17486 0.0
C1519 C 0.50202 0.56124 0.20251 0.0
C1520 C 0.4591 0.61011 0.1641 0.0
C1521 C 0.43407 0.59756 0.1663 0.0
C1522 C 0.47939 0.57342 0.18812 0.0
C1523 C 0.43288 0.57232 0.17847 0.0
C1524 C 0.49719 0.54345 0.2236 0.0
C1525 C 0.54892 0.55739 0.20951 0.0
N1526 N 0.45512 0.56128 0.18917 0.0
N1527 N 0.52767 0.56769 0.19606 0.0
H1528 H 0.52081 0.75527 0.78577 0.0
H1529 H 0.58748 0.62288 0.72745 0.0
H1530 H 0.52626 0.68106 0.8292 0.0
H1531 H 0.57873 0.69628 0.68296 0.0
H1532 H 0.57195 0.64602 0.76747 0.0
H1533 H 0.54859 0.73608 0.75053 0.0
C1534 C 0.52808 0.73501 0.78798 0.0
C1535 C 0.52096 0.71955 0.81017 0.0
C1536 C 0.57371 0.65711 0.749 0.0
C1537 C 0.55259 0.69746 0.77 0.0
C1538 C 0.5826 0.64392 0.72612 0.0
C1539 C 0.58392 0.65751 0.70165 0.0
C1540 C 0.56602 0.68403 0.74737 0.0
C1541 C 0.57762 0.68485 0.70126 0.0
C1542 C 0.54395 0.72407 0.76789 0.0
C1543 C 0.53109 0.69353 0.81222 0.0
N1544 N 0.56864 0.69712 0.72371 0.0
N1545 N 0.54618 0.68317 0.79221 0.0
H1546 H 0.48729 0.30197 0.03392 0.0
H1547 H 0.61772 0.35679 0.96254 0.0
H1548 H 0.56448 0.30805 0.07211 0.0
H1549 H 0.54151 0.34584 0.92323 0.0
H1550 H 0.59613 0.34896 0.00545 0.0
H1551 H 0.50432 0.32792 -0.00361 0.0
C1552 C 0.50772 0.30914 0.03457 0.0
C1553 C 0.52471 0.30242 0.05581 0.0
C1554 C 0.58407 0.34865 0.98746 0.0
C1555 C 0.54439 0.33182 0.01292 0.0
C1556 C 0.59638 0.3531 0.96291 0.0
C1557 C 0.58154 0.35128 0.93914 0.0
C1558 C 0.55677 0.34221 0.98823 0.0
C1559 C 0.55388 0.3469 0.94097 0.0
C1560 C 0.51744 0.32394 0.01315 0.0
C1561 C 0.55086 0.31249 0.05588 0.0
N1562 N 0.54247 0.3421 0.96506 0.0
N1563 N 0.56006 0.32635 0.0345 0.0
H1564 H 0.99113 0.30177 0.29905 0.0
H1565 H 0.86112 0.30251 0.21341 0.0
H1566 H 0.92132 0.25757 0.32376 0.0
H1567 H 0.91068 0.37291 0.21873 0.0
H1568 H 0.88319 0.28474 0.25324 0.0
H1569 H 0.96304 0.32739 0.2681 0.0
C1570 C 0.9699 0.29762 0.29806 0.0
C1571 C 0.95849 0.27745 0.3137 0.0
C1572 C 0.88883 0.30432 0.24599 0.0
C1573 C 0.92655 0.30631 0.27853 0.0
C1574 C 0.87628 0.31442 0.22333 0.0
C1575 C 0.88421 0.3391 0.21286 0.0
C1576 C 0.90994 0.3187 0.25767 0.0
C1577 C 0.90395 0.35383 0.22634 0.0
C1578 C 0.95389 0.31233 0.28062 0.0
C1579 C 0.93088 0.27291 0.31191 0.0
N1580 N 0.91662 0.34312 0.2478 0.0
N1581 N 0.91587 0.28696 0.29429 0.0
H1582 H 0.9092 0.67207 0.5856 0.0
H1583 H 0.88319 0.60434 0.46925 0.0
H1584 H 0.98865 0.6854 0.55483 0.0
H1585 H 0.94785 0.65185 0.43768 0.0
H1586 H 0.89905 0.61361 0.51438 0.0
H1587 H 0.8986 0.64616 0.54569 0.0
C1588 C 0.92456 0.66905 0.57065 0.0
C1589 C 0.9497 0.68107 0.57334 0.0
C1590 C 0.90977 0.62208 0.49765 0.0
C1591 C 0.93804 0.65099 0.52778 0.0
C1592 C 0.90092 0.61653 0.47184 0.0
C1593 C 0.91381 0.62799 0.44974 0.0
C1594 C 0.93137 0.6396 0.50135 0.0
C1595 C 0.93709 0.64295 0.45418 0.0
C1596 C 0.91864 0.65397 0.54793 0.0
C1597 C 0.96892 0.6766 0.55341 0.0
N1598 N 0.94487 0.64874 0.47957 0.0
N1599 N 0.96254 0.66227 0.53125 0.0
H1600 H 0.5661 0.22479 0.67309 0.0
H1601 H 0.61127 0.36184 0.73995 0.0
H1602 H 0.55703 0.30161 0.63515 0.0
H1603 H 0.6015 0.28691 0.78142 0.0
H1604 H 0.6042 0.33846 0.69741 0.0
H1605 H 0.593 0.24574 0.70799 0.0
C1606 C 0.57021 0.24601 0.67186 0.0
C1607 C 0.5588 0.26169 0.65171 0.0
C1608 C 0.60402 0.32715 0.71584 0.0
C1609 C 0.58907 0.28577 0.69167 0.0
C1610 C 0.60798 0.34044 0.74007 0.0
C1611 C 0.60627 0.32634 0.76421 0.0
C1612 C 0.59858 0.29962 0.71591 0.0
C1613 C 0.60228 0.29864 0.76328 0.0
C1614 C 0.58551 0.25796 0.69179 0.0
C1615 C 0.56513 0.28895 0.65068 0.0
N1616 N 0.59833 0.28623 0.73953 0.0
N1617 N 0.57944 0.30031 0.6708 0.0
H1618 H 0.91288 0.24614 0.93009 0.0
H1619 H 0.84885 0.36182 0.01906 0.0
H1620 H 0.93154 0.32959 0.91888 0.0
H1621 H 0.86845 0.28327 0.04857 0.0
H1622 H 0.86503 0.34846 0.97464 0.0
H1623 H 0.88169 0.25848 0.96562 0.0
C1624 C 0.90998 0.26709 0.93471 0.0
C1625 C 0.92513 0.28689 0.92199 0.0
C1626 C 0.86528 0.3341 0.9908 0.0
C1627 C 0.88955 0.30098 0.96226 0.0
C1628 C 0.85605 0.34162 0.01601 0.0
C1629 C 0.85773 0.32365 0.03741 0.0
C1630 C 0.87564 0.30833 0.98706 0.0
C1631 C 0.86723 0.29777 0.03259 0.0
C1632 C 0.89226 0.27406 0.95498 0.0
C1633 C 0.9205 0.31373 0.92858 0.0
N1634 N 0.87595 0.29088 0.00787 0.0
N1635 N 0.90325 0.32003 0.94855 0.0
H1636 H 0.9283 0.69777 0.14848 0.0
H1637 H 0.88565 0.70195 0.29994 0.0
H1638 H 0.92958 0.76881 0.19754 0.0
H1639 H 0.87632 0.63198 0.25024 0.0
H1640 H 0.89336 0.72871 0.26019 0.0
H1641 H 0.901 0.67553 0.18228 0.0
C1642 C 0.92237 0.70885 0.16613 0.0
C1643 C 0.9317 0.73491 0.17061 0.0
C1644 C 0.88928 0.70758 0.25782 0.0
C1645 C 0.90079 0.70962 0.20931 0.0
C1646 C 0.885 0.69228 0.28054 0.0
C1647 C 0.881 0.66466 0.27831 0.0
C1648 C 0.89015 0.69507 0.23269 0.0
C1649 C 0.87968 0.65321 0.25275 0.0
C1650 C 0.9068 0.69615 0.18541 0.0
C1651 C 0.92321 0.7485 0.19358 0.0
N1652 N 0.88484 0.66841 0.23087 0.0
N1653 N 0.90861 0.73553 0.21231 0.0
H1654 H 0.5754 0.66455 0.39302 0.0
H1655 H 0.54671 0.61739 0.5401 0.0
H1656 H 0.49676 0.65631 0.42744 0.0
H1657 H 0.62603 0.62515 0.50719 0.0
H1658 H 0.52811 0.62006 0.49526 0.0
H1659 H 0.59386 0.63858 0.42994 0.0
C1660 C 0.56193 0.6567 0.40801 0.0
C1661 C 0.53465 0.6632 0.40771 0.0
C1662 C 0.54962 0.62084 0.49769 0.0
C1663 C 0.5556 0.63385 0.44998 0.0
C1664 C 0.56022 0.61949 0.52332 0.0
C1665 C 0.58785 0.62188 0.5273 0.0
C1666 C 0.56672 0.62523 0.47593 0.0
C1667 C 0.60455 0.62372 0.50491 0.0
C1668 C 0.57249 0.64192 0.4291 0.0
C1669 C 0.51802 0.65225 0.42731 0.0
N1670 N 0.59366 0.62598 0.48012 0.0
N1671 N 0.52885 0.63853 0.44798 0.0
H1672 H 0.83032 0.56026 0.69524 0.0
H1673 H 0.67295 0.58059 0.7059 0.0
H1674 H 0.78198 0.52997 0.75985 0.0
H1675 H 0.7205 0.6043 0.63789 0.0
H1676 H 0.7139 0.57046 0.73028 0.0
H1677 H 0.79169 0.58499 0.67864 0.0
C1678 C 0.81165 0.55912 0.70614 0.0
C1679 C 0.80912 0.5427 0.72864 0.0
C1680 C 0.71536 0.57817 0.71013 0.0
C1681 C 0.7649 0.57069 0.70969 0.0
C1682 C 0.69197 0.58396 0.69616 0.0
C1683 C 0.69324 0.59275 0.66956 0.0
C1684 C 0.74017 0.58113 0.69739 0.0
C1685 C 0.7185 0.59709 0.65817 0.0
C1686 C 0.78961 0.57322 0.69665 0.0
C1687 C 0.78462 0.54215 0.7422 0.0
N1688 N 0.74096 0.59091 0.67205 0.0
N1689 N 0.7633 0.55566 0.73229 0.0
H1690 H 0.72793 0.57069 0.89871 0.0
H1691 H 0.65873 0.43092 0.92895 0.0
H1692 H 0.71908 0.53768 0.97785 0.0
H1693 H 0.66121 0.46663 0.85044 0.0
H1694 H 0.67662 0.4721 0.94781 0.0
H1695 H 0.69972 0.53484 0.88107 0.0
C1696 C 0.71989 0.55598 0.91237 0.0
C1697 C 0.72605 0.55687 0.93968 0.0
C1698 C 0.67299 0.47104 0.92649 0.0
C1699 C 0.69392 0.51595 0.91976 0.0
C1700 C 0.6628 0.4475 0.91569 0.0
C1701 C 0.65889 0.44517 0.88801 0.0
C1702 C 0.67955 0.49231 0.90946 0.0
C1703 C 0.66416 0.46745 0.87187 0.0
C1704 C 0.70375 0.53559 0.90233 0.0
C1705 C 0.71499 0.53753 0.95659 0.0
N1706 N 0.67457 0.49 0.88281 0.0
N1707 N 0.69964 0.51769 0.9463 0.0
H1708 H 0.64841 0.46101 0.20411 0.0
H1709 H 0.80491 0.42877 0.2038 0.0
H1710 H 0.70055 0.48092 0.27004 0.0
H1711 H 0.74928 0.40208 0.14317 0.0
H1712 H 0.76749 0.44822 0.22863 0.0
H1713 H 0.68582 0.43959 0.18152 0.0
C1714 C 0.66778 0.46083 0.21384 0.0
C1715 C 0.67147 0.47276 0.23891 0.0
C1716 C 0.76356 0.438 0.20993 0.0
C1717 C 0.71443 0.44834 0.21318 0.0
C1718 C 0.78489 0.42691 0.19574 0.0
C1719 C 0.7803 0.41387 0.17127 0.0
C1720 C 0.73755 0.43607 0.1995 0.0
C1721 C 0.7539 0.41202 0.16185 0.0
C1722 C 0.68913 0.44856 0.20096 0.0
C1723 C 0.69693 0.47192 0.25067 0.0
N1724 N 0.7336 0.42307 0.17592 0.0
N1725 N 0.71754 0.45997 0.23763 0.0
H1726 H 0.80389 0.44168 0.49702 0.0
H1727 H 0.83001 0.51541 0.3585 0.0
H1728 H 0.78211 0.4078 0.42062 0.0
H1729 H 0.84958 0.54792 0.43616 0.0
H1730 H 0.81859 0.47288 0.37982 0.0
H1731 H 0.82696 0.47776 0.47407 0.0
C1732 C 0.80413 0.44179 0.47537 0.0
C1733 C 0.79078 0.42205 0.46064 0.0
C1734 C 0.82568 0.48928 0.3921 0.0
C1735 C 0.81692 0.46335 0.43419 0.0
C1736 C 0.83223 0.5135 0.37995 0.0
C1737 C 0.84021 0.53535 0.39566 0.0
C1738 C 0.82726 0.48704 0.42005 0.0
C1739 C 0.84293 0.53178 0.42332 0.0
C1740 C 0.81734 0.46235 0.46224 0.0
C1741 C 0.792 0.42286 0.43265 0.0
N1742 N 0.83624 0.50818 0.43463 0.0
N1743 N 0.80457 0.44344 0.42026 0.0
H1744 H 0.81461 0.40958 0.73259 0.0
H1745 H 0.73618 0.36111 0.86023 0.0
H1746 H 0.84018 0.42326 0.8139 0.0
H1747 H 0.70478 0.36238 0.7798 0.0
H1748 H 0.78103 0.3682 0.84233 0.0
H1749 H 0.78219 0.37695 0.74861 0.0
C1750 C 0.8137 0.40535 0.7538 0.0
C1751 C 0.82938 0.4197 0.77209 0.0
C1752 C 0.76439 0.36629 0.82859 0.0
C1753 C 0.79226 0.38273 0.79052 0.0
C1754 C 0.73878 0.36222 0.83877 0.0
C1755 C 0.71666 0.36213 0.82149 0.0
C1756 C 0.76772 0.37026 0.80103 0.0
C1757 C 0.72122 0.36322 0.79388 0.0
C1758 C 0.79526 0.38668 0.76292 0.0
C1759 C 0.82795 0.41302 0.79923 0.0
N1760 N 0.74622 0.36775 0.78452 0.0
N1761 N 0.80918 0.3954 0.80774 0.0
H1762 H 0.84195 0.54097 0.96516 0.0
H1763 H 0.83764 0.42746 0.03882 0.0
H1764 H 0.83328 0.57905 0.04217 0.0
H1765 H 0.86813 0.47356 0.1053 0.0
H1766 H 0.84163 0.46658 0.01048 0.0
H1767 H 0.85988 0.50138 0.98729 0.0
C1768 C 0.84429 0.54117 0.98669 0.0
C1769 C 0.83528 0.56285 0.00201 0.0
C1770 C 0.84828 0.46803 0.03102 0.0
C1771 C 0.85467 0.51751 0.02737 0.0
C1772 C 0.84552 0.44576 0.04736 0.0
C1773 C 0.85206 0.44742 0.07457 0.0
C1774 C 0.85745 0.49221 0.04203 0.0
C1775 C 0.86256 0.4715 0.08448 0.0
C1776 C 0.85419 0.51845 -0.00068 0.0
C1777 C 0.83934 0.5624 0.02972 0.0
N1778 N 0.8644 0.49315 0.06832 0.0
N1779 N 0.84827 0.53979 0.04162 0.0
H1780 H 0.64753 0.59817 0.27164 0.0
H1781 H 0.77873 0.62045 0.29786 0.0
H1782 H 0.65159 0.55981 0.34871 0.0
H1783 H 0.75789 0.62287 0.38159 0.0
H1784 H 0.73148 0.61634 0.28676 0.0
H1785 H 0.6858 0.62594 0.28407 0.0
C1786 C 0.65609 0.59602 0.29141 0.0
C1787 C 0.64705 0.57608 0.30889 0.0
C1788 C 0.73711 0.61873 0.30752 0.0
C1789 C 0.69095 0.60718 0.32285 0.0
C1790 C 0.76417 0.62072 0.31387 0.0
C1791 C 0.77229 0.62144 0.34069 0.0
C1792 C 0.71816 0.61706 0.32817 0.0
C1793 C 0.75255 0.62202 0.36064 0.0
C1794 C 0.67806 0.61169 0.29836 0.0
C1795 C 0.65843 0.57451 0.33442 0.0
N1796 N 0.72641 0.61909 0.354 0.0
N1797 N 0.6802 0.58954 0.34049 0.0
H1798 H 0.66837 0.42594 0.4955 0.0
H1799 H 0.63 0.50128 0.63015 0.0
H1800 H 0.69099 0.39862 0.5741 0.0
H1801 H 0.62477 0.53491 0.55097 0.0
H1802 H 0.63944 0.45747 0.61016 0.0
H1803 H 0.6392 0.45919 0.51603 0.0
C1804 C 0.66688 0.4267 0.51709 0.0
C1805 C 0.68258 0.41008 0.53319 0.0
C1806 C 0.63571 0.47438 0.59722 0.0
C1807 C 0.64955 0.4481 0.55675 0.0
C1808 C 0.63029 0.49929 0.60859 0.0
C1809 C 0.62733 0.52172 0.59212 0.0
C1810 C 0.6379 0.47208 0.56931 0.0
C1811 C 0.62766 0.51817 0.56434 0.0
C1812 C 0.65022 0.44565 0.52879 0.0
C1813 C 0.67955 0.41149 0.56102 0.0
N1814 N 0.6332 0.49387 0.5538 0.0
N1815 N 0.66372 0.4306 0.57199 0.0
H1816 H 0.75345 0.78459 0.53875 0.0
H1817 H 0.62328 0.72257 0.60523 0.0
H1818 H 0.67942 0.82758 0.54947 0.0
H1819 H 0.69647 0.67871 0.59171 0.0
H1820 H 0.64631 0.76365 0.59295 0.0
H1821 H 0.73565 0.74819 0.56583 0.0
C1822 C 0.73354 0.78645 0.54705 0.0
C1823 C 0.71766 0.80882 0.54153 0.0
C1824 C 0.65741 0.74507 0.59299 0.0
C1825 C 0.69715 0.76736 0.57234 0.0
C1826 C 0.64427 0.72158 0.60001 0.0
C1827 C 0.65779 0.69704 0.59888 0.0
C1828 C 0.68418 0.74396 0.58468 0.0
C1829 C 0.68508 0.69709 0.59237 0.0
C1830 C 0.7234 0.76572 0.56253 0.0
C1831 C 0.69216 0.81045 0.55299 0.0
N1832 N 0.69728 0.72015 0.58514 0.0
N1833 N 0.68254 0.7898 0.5676 0.0
H1834 H 0.25836 0.69832 0.43364 0.0
H1835 H 0.11606 0.76146 0.39893 0.0
H1836 H 0.18597 0.65209 0.42515 0.0
H1837 H 0.18642 0.80763 0.41869 0.0
H1838 H 0.14307 0.72086 0.4002 0.0
H1839 H 0.23412 0.73799 0.41891 0.0
C1840 C 0.23749 0.69643 0.42817 0.0
C1841 C 0.224 0.67205 0.431 0.0
C1842 C 0.1526 0.73991 0.40408 0.0
C1843 C 0.19611 0.7173 0.41454 0.0
C1844 C 0.13718 0.76311 0.40344 0.0
C1845 C 0.14888 0.78798 0.40915 0.0
C1846 C 0.17989 0.74161 0.41043 0.0
C1847 C 0.17642 0.78888 0.41456 0.0
C1848 C 0.22362 0.71909 0.4199 0.0
C1849 C 0.19701 0.67063 0.42352 0.0
N1850 N 0.19094 0.76601 0.41524 0.0
N1851 N 0.18382 0.69306 0.41596 0.0
H1852 H 0.53385 0.98516 0.73732 0.0
H1853 H 0.48464 0.87745 0.63241 0.0
H1854 H 0.58877 0.94944 0.68117 0.0
H1855 H 0.43341 0.939 0.66489 0.0
H1856 H 0.52339 0.90057 0.65175 0.0
H1857 H 0.49667 0.96489 0.71316 0.0
C1858 C 0.53804 0.97301 0.71987 0.0
C1859 C 0.56432 0.96885 0.7112 0.0
C1860 C 0.50363 0.90903 0.65432 0.0
C1861 C 0.52197 0.94553 0.68357 0.0
C1862 C 0.48154 0.89586 0.64341 0.0
C1863 C 0.4557 0.90616 0.64724 0.0
C1864 C 0.4997 0.93235 0.66944 0.0
C1865 C 0.45288 0.93019 0.66149 0.0
C1866 C 0.51684 0.96159 0.706 0.0
C1867 C 0.56871 0.95309 0.68839 0.0
N1868 N 0.47457 0.94228 0.67232 0.0
N1869 N 0.54767 0.94172 0.67542 0.0
H1870 H 0.23254 0.28072 0.98328 0.0
H1871 H 0.34574 0.23264 0.88159 0.0
H1872 H 0.29565 0.33118 0.95318 0.0
H1873 H 0.29465 0.17801 0.92463 0.0
H1874 H 0.3214 0.26996 0.90099 0.0
H1875 H 0.24937 0.24399 0.95555 0.0
C1876 C 0.24977 0.28412 0.97063 0.0
C1877 C 0.26295 0.30886 0.97066 0.0
C1878 C 0.31539 0.24981 0.90605 0.0
C1879 C 0.28212 0.26718 0.939 0.0
C1880 C 0.32927 0.22843 0.89497 0.0
C1881 C 0.32255 0.20209 0.90186 0.0
C1882 C 0.29463 0.2449 0.92421 0.0
C1883 C 0.30071 0.19797 0.91897 0.0
C1884 C 0.25936 0.26318 0.95488 0.0
C1885 C 0.28509 0.3123 0.95392 0.0
N1886 N 0.28768 0.2192 0.92981 0.0
N1887 N 0.29406 0.29163 0.93884 0.0
H1888 H 0.41971 0.49481 0.66266 0.0
H1889 H 0.50098 0.62324 0.62105 0.0
H1890 H 0.39445 0.57592 0.67767 0.0
H1891 H 0.53272 0.54321 0.62668 0.0
H1892 H 0.45577 0.60498 0.62464 0.0
H1893 H 0.45352 0.5115 0.6318 0.0
C1894 C 0.42085 0.5161 0.65895 0.0
C1895 C 0.40506 0.53415 0.67342 0.0
C1896 C 0.47265 0.59142 0.6245 0.0
C1897 C 0.44369 0.55326 0.63856 0.0
C1898 C 0.49842 0.6018 0.62254 0.0
C1899 C 0.52059 0.58474 0.62455 0.0
C1900 C 0.46917 0.56388 0.62839 0.0
C1901 C 0.51617 0.55713 0.62596 0.0
C1902 C 0.44013 0.52559 0.64135 0.0
C1903 C 0.40684 0.56142 0.66743 0.0
N1904 N 0.49094 0.54758 0.62829 0.0
N1905 N 0.42637 0.57027 0.65088 0.0
H1906 H 0.69639 0.20552 0.0611 0.0
H1907 H 0.81508 0.26281 0.14814 0.0
H1908 H 0.76364 0.1595 0.08931 0.0
H1909 H 0.75356 0.31105 0.11156 0.0
H1910 H 0.78812 0.22314 0.13973 0.0
H1911 H 0.70922 0.2418 0.09128 0.0
C1912 C 0.71363 0.20291 0.07395 0.0
C1913 C 0.72944 0.17985 0.07225 0.0
C1914 C 0.78027 0.24247 0.13406 0.0
C1915 C 0.74419 0.22113 0.10671 0.0
C1916 C 0.79564 0.26519 0.1389 0.0
C1917 C 0.78706 0.29019 0.12955 0.0
C1918 C 0.75632 0.24481 0.1196 0.0
C1919 C 0.76136 0.29209 0.1184 0.0
C1920 C 0.72089 0.22357 0.09122 0.0
C1921 C 0.75127 0.17725 0.08962 0.0
N1922 N 0.74717 0.26957 0.1131 0.0
N1923 N 0.75827 0.19786 0.10584 0.0
H1924 H 0.5775 0.08625 0.74942 0.0
H1925 H 0.47932 0.12688 0.86778 0.0
H1926 H 0.58478 0.05203 0.82824 0.0
H1927 H 0.45547 0.11571 0.78562 0.0
H1928 H 0.52547 0.11478 0.85542 0.0
H1929 H 0.5408 0.11409 0.76546 0.0
C1930 C 0.57181 0.08505 0.77027 0.0
C1931 C 0.58362 0.06635 0.78742 0.0
C1932 C 0.51011 0.11547 0.84015 0.0
C1933 C 0.54196 0.0981 0.80571 0.0
C1934 C 0.48397 0.12228 0.84712 0.0
C1935 C 0.4638 0.1218 0.82765 0.0
C1936 C 0.51591 0.10902 0.81349 0.0
C1937 C 0.47053 0.11583 0.80119 0.0
C1938 C 0.55089 0.1009 0.77934 0.0
C1939 C 0.57577 0.06588 0.81431 0.0
N1940 N 0.4961 0.10964 0.79485 0.0
N1941 N 0.555 0.08128 0.82262 0.0
H1942 H 0.91781 0.98676 0.31518 0.0
H1943 H -0.00554 0.85658 0.36306 0.0
H1944 H 0.90178 0.90754 0.28485 0.0
H1945 H 0.01712 0.93742 0.38306 0.0
H1946 H 0.95222 0.87339 0.34498 0.0
H1947 H 0.94576 0.96741 0.35005 0.0
C1948 C 0.92 0.96524 0.31604 0.0
C1949 C 0.90807 0.94872 0.29678 0.0
C1950 C 0.9662 0.88736 0.35387 0.0
C1951 C 0.94011 0.92647 0.33647 0.0
C1952 C 0.99023 0.87777 0.36432 0.0
C1953 C 0.00952 0.89576 0.37391 0.0
C1954 C 0.96159 0.91503 0.35316 0.0
C1955 C 0.00301 0.92296 0.37522 0.0
C1956 C 0.93588 0.9542 0.336 0.0
C1957 C 0.91106 0.92097 0.2991 0.0
N1958 N 0.97976 0.93182 0.36454 0.0
N1959 N 0.92721 0.91069 0.31835 0.0
H1960 H 0.42692 0.22652 0.16814 0.0
H1961 H 0.3686 0.35439 0.24033 0.0
H1962 H 0.43468 0.30715 0.13875 0.0
H1963 H 0.37107 0.27529 0.27463 0.0
H1964 H 0.3794 0.3352 0.19683 0.0
H1965 H 0.39365 0.24201 0.20029 0.0
C1966 C 0.42128 0.24742 0.16818 0.0
C1967 C 0.43406 0.26577 0.15138 0.0
C1968 C 0.37707 0.322 0.21379 0.0
C1969 C 0.39629 0.2836 0.1881 0.0
C1970 C 0.37089 0.33293 0.23866 0.0
C1971 C 0.36988 0.31651 0.26134 0.0
C1972 C 0.38236 0.29453 0.2117 0.0
C1973 C 0.37247 0.28881 0.25783 0.0
C1974 C 0.40227 0.25624 0.18649 0.0
C1975 C 0.42569 0.29248 0.15182 0.0
N1976 N 0.37912 0.27874 0.23356 0.0
N1977 N 0.40765 0.30073 0.17031 0.0
H1978 H 0.48732 0.70282 0.94811 0.0
H1979 H 0.36864 0.62667 0.02121 0.0
H1980 H 0.41352 0.67903 0.9101 0.0
H1981 H 0.43539 0.6631 0.06238 0.0
H1982 H 0.39078 0.63511 0.97876 0.0
H1983 H 0.47421 0.67803 0.98805 0.0
C1984 C 0.46855 0.69201 0.94804 0.0
C1985 C 0.45119 0.69334 0.92606 0.0
C1986 C 0.40074 0.64094 -0.0029 0.0
C1987 C 0.43612 0.6651 0.9715 0.0
C1988 C 0.38811 0.63616 0.02138 0.0
C1989 C 0.39985 0.64485 0.04538 0.0
C1990 C 0.42521 0.65463 -0.00321 0.0
C1991 C 0.42536 0.65649 0.04435 0.0
C1992 C 0.46109 0.67791 0.97081 0.0
C1993 C 0.42726 0.67883 0.92683 0.0
N1994 N 0.43701 0.66145 0.02038 0.0
N1995 N 0.42026 0.66555 0.94936 0.0
H1996 H 0.04346 0.73872 0.69315 0.0
H1997 H 0.08717 0.60647 0.76999 0.0
H1998 H 0.0121 0.66023 0.67565 0.0
H1999 H 0.1053 0.68668 0.79624 0.0
H2000 H 0.06974 0.62465 0.72802 0.0
H2001 H 0.07559 0.71862 0.72386 0.0
C2002 C 0.04348 0.71723 0.69566 0.0
C2003 C 0.02479 0.70112 0.68233 0.0
C2004 C 0.07802 0.63819 0.74279 0.0
C2005 C 0.06145 0.67803 0.71729 0.0
C2006 C 0.08812 0.62782 0.76662 0.0
C2007 C 0.0971 0.6452 0.78675 0.0
C2008 C 0.07711 0.66601 0.73919 0.0
C2009 C 0.09798 0.67267 0.78141 0.0
C2010 C 0.06186 0.70576 0.7131 0.0
C2011 C 0.02592 0.67337 0.68593 0.0
N2012 N 0.08774 0.68227 0.75827 0.0
N2013 N 0.04376 0.66269 0.70335 0.0
H2014 H -0.00578 0.27359 0.44761 0.0
H2015 H 0.12171 0.33994 0.51757 0.0
H2016 H 0.06976 0.28441 0.40745 0.0
H2017 H 0.04509 0.32906 0.55588 0.0
H2018 H 0.10235 0.32341 0.47574 0.0
H2019 H 0.01178 0.2977 0.48617 0.0
C2020 C 0.01447 0.28123 0.44687 0.0
C2021 C 0.03066 0.27686 0.42446 0.0
C2022 C 0.08979 0.32484 0.49329 0.0
C2023 C 0.05101 0.30431 0.46858 0.0
C2024 C 0.10081 0.33429 0.51717 0.0
C2025 C 0.0851 0.3356 0.54038 0.0
C2026 C 0.06291 0.31669 0.49268 0.0
C2027 C 0.0581 0.32811 0.53862 0.0
C2028 C 0.02451 0.295 0.46889 0.0
C2029 C 0.05669 0.28729 0.42445 0.0
N2030 N 0.04795 0.31884 0.51526 0.0
N2031 N 0.06617 0.30038 0.44631 0.0
H2032 H 0.43101 0.75765 0.31361 0.0
H2033 H 0.36966 0.71572 0.19969 0.0
H2034 H 0.43542 0.67327 0.33044 0.0
H2035 H 0.35283 0.64166 0.24045 0.0
H2036 H 0.38565 0.73463 0.24132 0.0
H2037 H 0.3943 0.74906 0.28263 0.0
C2038 C 0.42412 0.73731 0.31084 0.0
C2039 C 0.43676 0.71601 0.32391 0.0
C2040 C 0.37757 0.7146 0.24163 0.0
C2041 C 0.39551 0.70587 0.28779 0.0
C2042 C 0.36856 0.70368 0.21762 0.0
C2043 C 0.36062 0.67682 0.21639 0.0
C2044 C 0.37879 0.69844 0.26455 0.0
C2045 C 0.35925 0.66233 0.24034 0.0
C2046 C 0.40329 0.73237 0.29296 0.0
C2047 C 0.4266 0.69018 0.32027 0.0
N2048 N 0.36896 0.6731 0.26331 0.0
N2049 N 0.40685 0.68577 0.30217 0.0
H2050 H 0.06193 0.70261 0.09343 0.0
H2051 H 0.04066 0.64394 0.9471 0.0
H2052 H 0.98735 0.70504 0.04999 0.0
H2053 H 0.11743 0.6478 0.98657 0.0
H2054 H 0.01919 0.65745 0.98856 0.0
H2055 H 0.08072 0.67406 0.05846 0.0
C2056 C 0.04942 0.69683 0.07669 0.0
C2057 C 0.02324 0.70653 0.07425 0.0
C2058 C 0.04071 0.65509 0.98827 0.0
C2059 C 0.04453 0.67407 0.03434 0.0
C2060 C 0.05301 0.64742 0.96457 0.0
C2061 C 0.08095 0.64537 0.96322 0.0
C2062 C 0.05646 0.66099 0.01073 0.0
C2063 C 0.09586 0.64952 0.98663 0.0
C2064 C 0.06014 0.68056 0.05677 0.0
C2065 C 0.00778 0.69829 0.05239 0.0
N2066 N 0.08344 0.65757 0.00938 0.0
N2067 N 0.01877 0.68275 0.03309 0.0
H2068 H 0.01916 0.3476 0.83714 0.0
H2069 H 0.10789 0.31801 0.71311 0.0
H2070 H 0.07513 0.28202 0.83454 0.0
H2071 H 0.07784 0.39736 0.72853 0.0
H2072 H 0.0987 0.30606 0.75938 0.0
H2073 H 0.04318 0.36875 0.80023 0.0
C2074 C 0.0369 0.338 0.82926 0.0
C2075 C 0.04484 0.31276 0.83841 0.0
C2076 C 0.09449 0.32624 0.75284 0.0
C2077 C 0.072 0.3365 0.79612 0.0
C2078 C 0.09954 0.33297 0.72638 0.0
C2079 C 0.09319 0.35853 0.717 0.0
C2080 C 0.08237 0.345 0.76986 0.0
C2081 C 0.08282 0.37735 0.73505 0.0
C2082 C 0.05059 0.35006 0.8082 0.0
C2083 C 0.06805 0.30127 0.8277 0.0
N2084 N 0.07718 0.37004 0.76057 0.0
N2085 N 0.08048 0.31296 0.8067 0.0
H2086 H 0.50325 0.27907 0.52295 0.0
H2087 H 0.36957 0.34139 0.46257 0.0
H2088 H 0.43174 0.29344 0.56901 0.0
H2089 H 0.43913 0.32031 0.41594 0.0
H2090 H 0.39484 0.33192 0.50333 0.0
H2091 H 0.48296 0.30243 0.48523 0.0
C2092 C 0.48342 0.28747 0.52521 0.0
C2093 C 0.46893 0.28397 0.54887 0.0
C2094 C 0.40461 0.32964 0.48415 0.0
C2095 C 0.44553 0.31041 0.50592 0.0
C2096 C 0.3902 0.33504 0.4609 0.0
C2097 C 0.40207 0.33109 0.43581 0.0
C2098 C 0.43103 0.3203 0.48221 0.0
C2099 C 0.42896 0.32309 0.43483 0.0
C2100 C 0.47182 0.30075 0.5037 0.0
C2101 C 0.44342 0.29541 0.55092 0.0
N2102 N 0.44243 0.31771 0.45769 0.0
N2103 N 0.43237 0.30785 0.52955 0.0
H2104 H 0.13804 0.4256 0.29278 0.0
H2105 H 0.2512 0.37493 0.35684 0.0
H2106 H 0.18036 0.40881 0.21954 0.0
H2107 H 0.28785 0.38391 0.27921 0.0
H2108 H 0.20755 0.3827 0.33648 0.0
H2109 H 0.17485 0.40621 0.31803 0.0
C2110 C 0.15486 0.41722 0.28202 0.0
C2111 C 0.15641 0.41909 0.2541 0.0
C2112 C 0.2251 0.38324 0.32391 0.0
C2113 C 0.19854 0.39654 0.28273 0.0
C2114 C 0.25008 0.37861 0.33554 0.0
C2115 C 0.27331 0.3793 0.31982 0.0
C2116 C 0.22349 0.38869 0.29639 0.0
C2117 C 0.27061 0.38368 0.29227 0.0
C2118 C 0.17591 0.406 0.29646 0.0
C2119 C 0.17855 0.40804 0.24109 0.0
N2120 N 0.24623 0.38833 0.28154 0.0
N2121 N 0.19888 0.39753 0.25554 0.0
H2122 H 0.30656 0.43852 0.00741 0.0
H2123 H 0.34114 0.52308 0.13708 0.0
H2124 H 0.3009 0.40829 0.08793 0.0
H2125 H 0.34175 0.55426 0.05662 0.0
H2126 H 0.33727 0.47797 0.11881 0.0
H2127 H 0.33081 0.47738 0.02437 0.0
C2128 C 0.31092 0.43981 0.02859 0.0
C2129 C 0.30117 0.4206 0.04642 0.0
C2130 C 0.33861 0.49468 0.10517 0.0
C2131 C 0.32845 0.46503 0.06597 0.0
C2132 C 0.34076 0.52046 0.11559 0.0
C2133 C 0.34101 0.54255 0.09838 0.0
C2134 C 0.3366 0.49104 0.07739 0.0
C2135 C 0.34094 0.53788 0.07069 0.0
C2136 C 0.3247 0.46201 0.03829 0.0
C2137 C 0.30765 0.42299 0.07359 0.0
N2138 N 0.33835 0.51267 0.06107 0.0
N2139 N 0.32046 0.44512 0.08264 0.0
H2140 H 0.34099 0.56621 0.81711 0.0
H2141 H 0.19031 0.60932 0.80238 0.0
H2142 H 0.30081 0.57799 0.74168 0.0
H2143 H 0.23079 0.60372 0.87842 0.0
H2144 H 0.23325 0.60682 0.7798 0.0
H2145 H 0.30439 0.58937 0.83969 0.0
C2146 C 0.32477 0.57425 0.80524 0.0
C2147 C 0.32344 0.56958 0.77763 0.0
C2148 C 0.23286 0.60642 0.80144 0.0
C2149 C 0.28155 0.59567 0.80322 0.0
C2150 C 0.20831 0.60763 0.81433 0.0
C2151 C 0.20701 0.60598 0.84225 0.0
C2152 C 0.25627 0.60301 0.81655 0.0
C2153 C 0.23094 0.6046 0.8568 0.0
C2154 C 0.30386 0.5874 0.81813 0.0
C2155 C 0.30224 0.58065 0.76311 0.0
N2156 N 0.25464 0.60262 0.84373 0.0
N2157 N 0.28184 0.59275 0.77616 0.0
H2158 H 0.20152 0.53294 0.4706 0.0
H2159 H 0.12692 0.48211 0.60173 0.0
H2160 H 0.19176 0.57997 0.54237 0.0
H2161 H 0.15099 0.43058 0.53662 0.0
H2162 H 0.14068 0.52075 0.57555 0.0
H2163 H 0.17339 0.49812 0.49014 0.0
C2164 C 0.19315 0.53607 0.49033 0.0
C2165 C 0.19929 0.55909 0.50513 0.0
C2166 C 0.14264 0.50099 0.5669 0.0
C2167 C 0.16725 0.5195 0.52751 0.0
C2168 C 0.13475 0.47889 0.5818 0.0
C2169 C 0.13837 0.45299 0.5716 0.0
C2170 C 0.1542 0.49716 0.54164 0.0
C2171 C 0.1483 0.45014 0.54551 0.0
C2172 C 0.17715 0.51621 0.50146 0.0
C2173 C 0.1878 0.56231 0.53047 0.0
N2174 N 0.15619 0.47196 0.53155 0.0
N2175 N 0.17253 0.54257 0.541 0.0
H2176 H 0.14332 0.52666 0.14479 0.0
H2177 H 0.26358 0.61854 0.19304 0.0
H2178 H 0.16469 0.54071 0.22724 0.0
H2179 H 0.24498 0.60381 0.11 0.0
H2180 H 0.22113 0.59834 0.20555 0.0
H2181 H 0.17466 0.5618 0.1314 0.0
C2182 C 0.15443 0.53732 0.16005 0.0
C2183 C 0.15186 0.5305 0.18708 0.0
C2184 C 0.22608 0.59991 0.18455 0.0
C2185 C 0.18746 0.57063 0.17204 0.0
C2186 C 0.25031 0.61152 0.1774 0.0
C2187 C 0.25809 0.61227 0.15049 0.0
C2188 C 0.20972 0.5886 0.16468 0.0
C2189 C 0.23991 0.60332 0.13103 0.0
C2190 C 0.17222 0.5574 0.15244 0.0
C2191 C 0.16644 0.54505 0.20612 0.0
N2192 N 0.21677 0.5913 0.13854 0.0
N2193 N 0.1838 0.56425 0.19821 0.0
H2194 H 0.183 0.40206 0.95219 0.0
H2195 H 0.14154 0.55525 0.96185 0.0
H2196 H 0.18424 0.44828 0.02513 0.0
H2197 H 0.14046 0.50989 0.88826 0.0
H2198 H 0.15049 0.51431 0.98638 0.0
H2199 H 0.16049 0.43908 0.9297 0.0
C2200 C 0.17813 0.41985 0.96357 0.0
C2201 C 0.18582 0.42234 0.99043 0.0
C2202 C 0.14807 0.51323 0.9649 0.0
C2203 C 0.16038 0.46475 0.96485 0.0
C2204 C 0.14304 0.53665 0.95083 0.0
C2205 C 0.14072 0.53609 0.92287 0.0
C2206 C 0.15105 0.48906 0.95093 0.0
C2207 C 0.14239 0.51131 0.90977 0.0
C2208 C 0.16535 0.44098 0.95072 0.0
C2209 C 0.17892 0.44569 0.00431 0.0
N2210 N 0.1478 0.48881 0.9239 0.0
N2211 N 0.16688 0.46614 0.99126 0.0
H2212 H 0.28777 0.45867 0.75975 0.0
H2213 H 0.2265 0.38589 0.63207 0.0
H2214 H 0.33358 0.43754 0.68975 0.0
H2215 H 0.18046 0.41262 0.7001 0.0
H2216 H 0.26749 0.39629 0.65659 0.0
H2217 H 0.25018 0.43291 0.7422 0.0
C2218 C 0.29005 0.44822 0.7409 0.0
C2219 C 0.31353 0.45063 0.72588 0.0
C2220 C 0.24839 0.39959 0.66621 0.0
C2221 C 0.27065 0.42151 0.70554 0.0
C2222 C 0.22499 0.39371 0.65221 0.0
C2223 C 0.20001 0.39897 0.66381 0.0
C2224 C 0.24673 0.41079 0.69194 0.0
C2225 C 0.19927 0.40879 0.69011 0.0
C2226 C 0.26859 0.43357 0.73085 0.0
C2227 C 0.31561 0.43649 0.70174 0.0
N2228 N 0.22228 0.41464 0.70316 0.0
N2229 N 0.29423 0.42285 0.69207 0.0
H2230 H 0.30969 0.5766 0.40447 0.0
H2231 H 0.35804 0.42892 0.42858 0.0
H2232 H 0.32269 0.54227 0.48246 0.0
H2233 H 0.35378 0.46514 0.35044 0.0
H2234 H 0.35368 0.47297 0.44883 0.0
H2235 H 0.33422 0.53935 0.3845 0.0
C2236 C 0.31814 0.56147 0.41741 0.0
C2237 C 0.31363 0.56206 0.44504 0.0
C2238 C 0.3541 0.47139 0.42725 0.0
C2239 C 0.34138 0.51944 0.42246 0.0
C2240 C 0.35647 0.4462 0.41568 0.0
C2241 C 0.35556 0.44333 0.38781 0.0
C2242 C 0.35031 0.4938 0.41083 0.0
C2243 C 0.35414 0.46643 0.37204 0.0
C2244 C 0.33215 0.54022 0.40603 0.0
C2245 C 0.32527 0.54223 0.46098 0.0
N2246 N 0.351 0.4907 0.3838 0.0
N2247 N 0.33822 0.52144 0.4494 0.0
H2248 H 0.2889 0.14509 0.43865 0.0
H2249 H 0.27603 0.29177 0.37964 0.0
H2250 H 0.22092 0.19675 0.45097 0.0
H2251 H 0.34682 0.24301 0.37193 0.0
H2252 H 0.2519 0.25332 0.39702 0.0
H2253 H 0.30666 0.17689 0.40624 0.0
C2254 C 0.27757 0.16301 0.4343 0.0
C2255 C 0.25366 0.1686 0.44782 0.0
C2256 C 0.2726 0.25089 0.39118 0.0
C2257 C 0.27384 0.20499 0.41086 0.0
C2258 C 0.28641 0.27285 0.38124 0.0
C2259 C 0.31367 0.27074 0.37493 0.0
C2260 C 0.28619 0.2267 0.39511 0.0
C2261 C 0.32592 0.24561 0.37687 0.0
C2262 C 0.2877 0.18112 0.41578 0.0
C2263 C 0.23962 0.19189 0.44124 0.0
N2264 N 0.3122 0.22464 0.38728 0.0
N2265 N 0.2501 0.20941 0.42343 0.0
H2266 H 0.82715 0.3396 0.54271 0.0
H2267 H 0.81526 0.20412 0.62134 0.0
H2268 H 0.75435 0.30922 0.57751 0.0
H2269 H 0.88865 0.23284 0.58637 0.0
H2270 H 0.79586 0.2484 0.61621 0.0
H2271 H 0.85268 0.30723 0.56884 0.0
C2272 C 0.81661 0.32646 0.55627 0.0
C2273 C 0.7886 0.32644 0.55744 0.0
C2274 C 0.81636 0.24521 0.61001 0.0
C2275 C 0.81751 0.28944 0.58713 0.0
C2276 C 0.82738 0.2199 0.61284 0.0
C2277 C 0.85327 0.21472 0.6035 0.0
C2278 C 0.83112 0.26529 0.59719 0.0
C2279 C 0.86842 0.23597 0.59337 0.0
C2280 C 0.83117 0.30801 0.57118 0.0
C2281 C 0.77591 0.30938 0.57557 0.0
N2282 N 0.85688 0.26026 0.58988 0.0
N2283 N 0.79044 0.29121 0.58937 0.0
H2284 H 0.43904 0.9665 0.3184 0.0
H2285 H 0.50429 0.10889 0.34754 0.0
H2286 H 0.39875 0.04132 0.30379 0.0
H2287 H 0.54686 0.03385 0.34635 0.0
H2288 H 0.46208 0.08423 0.34291 0.0
H2289 H 0.47479 0.9908 0.3411 0.0
C2290 C 0.43753 0.98801 0.32038 0.0
C2291 C 0.41635 0.00204 0.30868 0.0
C2292 C 0.4807 0.07324 0.344 0.0
C2293 C 0.45719 0.02993 0.33418 0.0
C2294 C 0.50471 0.08727 0.34658 0.0
C2295 C 0.52904 0.07338 0.34659 0.0
C2296 C 0.48123 0.04524 0.34171 0.0
C2297 C 0.52856 0.04538 0.34566 0.0
C2298 C 0.45793 0.00188 0.33327 0.0
C2299 C 0.41507 0.02983 0.31214 0.0
N2300 N 0.50505 0.03226 0.34303 0.0
N2301 N 0.43553 0.04299 0.32419 0.0
H2302 H 0.77297 0.68598 0.03493 0.0
H2303 H 0.62776 0.74064 0.07261 0.0
H2304 H 0.70018 0.64184 0.0205 0.0
H2305 H 0.69948 0.78875 0.07094 0.0
H2306 H 0.6548 0.70115 0.0623 0.0
H2307 H 0.74701 0.72037 0.05788 0.0
C2308 C 0.75157 0.68334 0.03697 0.0
C2309 C 0.73859 0.66134 0.02545 0.0
C2310 C 0.66456 0.72036 0.0644 0.0
C2311 C 0.70881 0.7006 0.05133 0.0
C2312 C 0.64917 0.74287 0.07025 0.0
C2313 C 0.66133 0.76808 0.07217 0.0
C2314 C 0.69225 0.72313 0.0607 0.0
C2315 C 0.68917 0.7698 0.06914 0.0
C2316 C 0.73676 0.703 0.04997 0.0
C2317 C 0.71088 0.65873 0.02884 0.0
N2318 N 0.70365 0.74766 0.06342 0.0
N2319 N 0.69681 0.67835 0.04121 0.0
H2320 H 0.55261 0.47843 0.34863 0.0
H2321 H 0.47068 0.34431 0.3199 0.0
H2322 H 0.57734 0.41979 0.29027 0.0
H2323 H 0.43752 0.41737 0.35163 0.0
H2324 H 0.51529 0.36526 0.3203 0.0
H2325 H 0.51651 0.44862 0.3624 0.0
C2326 C 0.55084 0.45901 0.33916 0.0
C2327 C 0.56753 0.45178 0.31787 0.0
C2328 C 0.49821 0.37646 0.32748 0.0
C2329 C 0.52624 0.41784 0.33329 0.0
C2330 C 0.47288 0.36459 0.3272 0.0
C2331 C 0.45047 0.37941 0.33516 0.0
C2332 C 0.50096 0.40299 0.33634 0.0
C2333 C 0.45426 0.4055 0.34471 0.0
C2334 C 0.53018 0.44208 0.34693 0.0
C2335 C 0.56453 0.42629 0.30646 0.0
N2336 N 0.47899 0.41648 0.34494 0.0
N2337 N 0.54391 0.41034 0.31401 0.0
H2338 H 0.18663 0.84609 0.90184 0.0
H2339 H 0.19389 0.69035 0.87656 0.0
H2340 H 0.25963 0.80206 0.88875 0.0
H2341 H 0.11946 0.7331 0.88529 0.0
H2342 H 0.21738 0.73261 0.87264 0.0
H2343 H 0.16104 0.80726 0.88669 0.0
C2344 C 0.19729 0.8285 0.89508 0.0
C2345 C 0.22523 0.82698 0.89711 0.0
C2346 C 0.19589 0.73288 0.87518 0.0
C2347 C 0.19618 0.78253 0.88021 0.0
C2348 C 0.18247 0.70872 0.87764 0.0
C2349 C 0.15477 0.70828 0.88193 0.0
C2350 C 0.18163 0.75692 0.87749 0.0
C2351 C 0.1409 0.73262 0.88238 0.0
C2352 C 0.18267 0.8063 0.88656 0.0
C2353 C 0.23807 0.80386 0.88795 0.0
N2354 N 0.15457 0.75606 0.88069 0.0
N2355 N 0.22341 0.78236 0.88034 0.0
H2356 H 0.4073 0.88741 0.20884 0.0
H2357 H 0.54149 0.91478 0.12836 0.0
H2358 H 0.43691 0.96556 0.1877 0.0
H2359 H 0.51237 0.83526 0.14442 0.0
H2360 H 0.49958 0.9331 0.14463 0.0
H2361 H 0.44203 0.86724 0.18066 0.0
C2362 C 0.42094 0.90028 0.19806 0.0
C2363 C 0.4196 0.92813 0.20088 0.0
C2364 C 0.50211 0.91162 0.1444 0.0
C2365 C 0.45904 0.90539 0.16876 0.0
C2366 C 0.52608 0.90117 0.13513 0.0
C2367 C 0.53047 0.87354 0.13551 0.0
C2368 C 0.48252 0.89435 0.15461 0.0
C2369 C 0.50973 0.85673 0.144 0.0
C2370 C 0.44068 0.8888 0.18198 0.0
C2371 C 0.43752 0.94397 0.1864 0.0
N2372 N 0.48671 0.86745 0.15371 0.0
N2373 N 0.45661 0.93236 0.17115 0.0
H2374 H 0.05689 0.97565 0.65546 0.0
H2375 H -0.00685 0.11155 0.60602 0.0
H2376 H 0.09716 0.05194 0.6568 0.0
H2377 H 0.94924 0.03852 0.61982 0.0
H2378 H 0.03488 0.08659 0.60995 0.0
H2379 H 0.02169 -0.00486 0.62788 0.0
C2380 C 0.05854 -0.00361 0.64954 0.0
C2381 C 0.07945 0.01248 0.65902 0.0
C2382 C 0.01608 0.07598 0.61162 0.0
C2383 C 0.03936 0.03485 0.62774 0.0
C2384 C -0.00775 0.0902 0.6094 0.0
C2385 C 0.96773 0.07723 0.61352 0.0
C2386 C 0.01527 0.0487 0.61801 0.0
C2387 C 0.96774 0.04947 0.61734 0.0
C2388 C 0.03849 0.00748 0.63379 0.0
C2389 C 0.08099 0.03905 0.65039 0.0
N2390 N 0.99119 0.0362 0.61995 0.0
N2391 N 0.06087 0.04958 0.63561 0.0
loop_
_geom_bond_atom_site_label_1
_geom_bond_atom_site_label_2
_geom_bond_distance
_geom_bond_site_symmetry_2
_ccdc_geom_bond_type
In0 O1 2.306 . S
In0 O2 2.325 1_455 S
In0 O6 2.279 . S
In0 O7 2.324 1_455 S
In0 O8 2.254 1_455 S
In0 O9 2.328 . S
In0 O11 2.281 1_455 S
In0 O12 2.328 . S
O1 In0 2.306 . S
O1 C10 1.240 . S
O2 In0 2.325 1_655 S
O2 C10 1.252 1_655 S
C3 O6 1.252 . S
C3 O7 1.260 1_455 S
C4 O11 1.240 . S
C4 O12 1.252 1_655 S
C5 O8 1.252 . S
C5 O9 1.260 1_655 S
O6 In0 2.279 . S
O6 C3 1.252 . S
O7 In0 2.324 1_655 S
O7 C3 1.260 1_655 S
O8 In0 2.254 1_655 S
O8 C5 1.252 . S
O9 In0 2.328 . S
O9 C5 1.260 1_455 S
C10 O1 1.240 . S
C10 O2 1.252 1_455 S
O11 In0 2.281 1_655 S
O11 C4 1.240 . S
O12 In0 2.328 . S
O12 C4 1.252 1_455 S
In13 O14 2.285 1_455 S
In13 O15 2.311 1_455 S
In13 O19 2.275 . S
In13 O20 2.342 . S
In13 O21 2.257 1_455 S
In13 O22 2.310 1_455 S
In13 O24 2.303 . S
In13 O25 2.342 . S
O14 In13 2.285 1_655 S
O14 C23 1.240 . S
O15 In13 2.311 1_655 S
O15 C23 1.252 . S
C16 O19 1.252 . S
C16 O20 1.260 . S
C17 O24 1.240 . S
C17 O25 1.252 . S
C18 O21 1.252 . S
C18 O22 1.260 . S
O19 In13 2.275 . S
O19 C16 1.252 . S
O20 In13 2.342 . S
O20 C16 1.260 . S
O21 In13 2.257 1_655 S
O21 C18 1.252 . S
O22 In13 2.310 1_655 S
O22 C18 1.260 . S
C23 O14 1.240 . S
C23 O15 1.252 . S
O24 In13 2.303 . S
O24 C17 1.240 . S
O25 In13 2.342 . S
O25 C17 1.252 . S
In26 O27 2.294 . S
In26 O28 2.326 . S
In26 O32 2.266 . S
In26 O33 2.326 . S
In26 O34 2.266 . S
In26 O35 2.326 . S
In26 O37 2.294 . S
In26 O38 2.326 . S
O27 In26 2.294 . S
O27 C36 1.240 . S
O28 In26 2.326 . S
O28 C36 1.252 . S
C29 O32 1.252 . S
C29 O33 1.260 . S
C30 O37 1.240 . S
C30 O38 1.252 . S
C31 O34 1.252 . S
C31 O35 1.260 . S
O32 In26 2.266 . S
O32 C29 1.252 . S
O33 In26 2.326 . S
O33 C29 1.260 . S
O34 In26 2.266 . S
O34 C31 1.252 . S
O35 In26 2.326 . S
O35 C31 1.260 . S
C36 O27 1.240 . S
C36 O28 1.252 . S
O37 In26 2.294 . S
O37 C30 1.240 . S
O38 In26 2.326 . S
O38 C30 1.252 . S
In39 O40 2.294 . S
In39 O41 2.326 . S
In39 O45 2.266 . S
In39 O46 2.326 . S
In39 O47 2.266 . S
In39 O48 2.326 . S
In39 O50 2.294 . S
In39 O51 2.326 . S
O40 In39 2.294 . S
O40 C49 1.240 . S
O41 In39 2.326 . S
O41 C49 1.252 . S
C42 O45 1.252 . S
C42 O46 1.260 . S
C43 O50 1.240 . S
C43 O51 1.252 . S
C44 O47 1.252 . S
C44 O48 1.260 . S
O45 In39 2.266 . S
O45 C42 1.252 . S
O46 In39 2.326 . S
O46 C42 1.260 . S
O47 In39 2.266 . S
O47 C44 1.252 . S
O48 In39 2.326 . S
O48 C44 1.260 . S
C49 O40 1.240 . S
C49 O41 1.252 . S
O50 In39 2.294 . S
O50 C43 1.240 . S
O51 In39 2.326 . S
O51 C43 1.252 . S
In52 O53 2.269 1_455 S
In52 O54 2.330 . S
In52 O58 2.241 1_455 S
In52 O59 2.330 . S
In52 O60 2.291 . S
In52 O61 2.322 1_455 S
In52 O63 2.319 . S
In52 O64 2.323 1_455 S
O53 In52 2.269 1_655 S
O53 C62 1.240 . S
O54 In52 2.330 . S
O54 C62 1.252 1_455 S
C55 O58 1.252 . S
C55 O59 1.260 1_655 S
C56 O63 1.240 . S
C56 O64 1.252 1_455 S
C57 O60 1.252 . S
C57 O61 1.260 1_455 S
O58 In52 2.241 1_655 S
O58 C55 1.252 . S
O59 In52 2.330 . S
O59 C55 1.260 1_455 S
O60 In52 2.291 . S
O60 C57 1.252 . S
O61 In52 2.322 1_655 S
O61 C57 1.260 1_655 S
C62 O53 1.240 . S
C62 O54 1.252 1_655 S
O63 In52 2.319 . S
O63 C56 1.240 . S
O64 In52 2.323 1_655 S
O64 C56 1.252 1_655 S
In65 O66 2.294 . S
In65 O67 2.326 . S
In65 O71 2.266 . S
In65 O72 2.326 . S
In65 O73 2.266 . S
In65 O74 2.326 . S
In65 O76 2.294 . S
In65 O77 2.326 . S
O66 In65 2.294 . S
O66 C75 1.240 . S
O67 In65 2.326 . S
O67 C75 1.252 . S
C68 O71 1.252 . S
C68 O72 1.260 . S
C69 O76 1.240 . S
C69 O77 1.252 . S
C70 O73 1.252 . S
C70 O74 1.260 . S
O71 In65 2.266 . S
O71 C68 1.252 . S
O72 In65 2.326 . S
O72 C68 1.260 . S
O73 In65 2.266 . S
O73 C70 1.252 . S
O74 In65 2.326 . S
O74 C70 1.260 . S
C75 O66 1.240 . S
C75 O67 1.252 . S
O76 In65 2.294 . S
O76 C69 1.240 . S
O77 In65 2.326 . S
O77 C69 1.252 . S
In78 O79 2.294 . S
In78 O80 2.326 . S
In78 O84 2.266 . S
In78 O85 2.326 . S
In78 O86 2.266 . S
In78 O87 2.326 . S
In78 O89 2.294 . S
In78 O90 2.326 . S
O79 In78 2.294 . S
O79 C88 1.240 . S
O80 In78 2.326 . S
O80 C88 1.252 . S
C81 O84 1.252 . S
C81 O85 1.260 . S
C82 O89 1.240 . S
C82 O90 1.252 . S
C83 O86 1.252 . S
C83 O87 1.260 . S
O84 In78 2.266 . S
O84 C81 1.252 . S
O85 In78 2.326 . S
O85 C81 1.260 . S
O86 In78 2.266 . S
O86 C83 1.252 . S
O87 In78 2.326 . S
O87 C83 1.260 . S
C88 O79 1.240 . S
C88 O80 1.252 . S
O89 In78 2.294 . S
O89 C82 1.240 . S
O90 In78 2.326 . S
O90 C82 1.252 . S
In91 O92 2.296 . S
In91 O93 2.331 . S
In91 O97 2.264 1_455 S
In91 O98 2.321 1_455 S
In91 O99 2.269 . S
In91 O100 2.330 . S
In91 O102 2.291 1_455 S
In91 O103 2.322 1_455 S
O92 In91 2.296 . S
O92 C101 1.240 . S
O93 In91 2.331 . S
O93 C101 1.252 . S
C94 O97 1.252 . S
C94 O98 1.260 . S
C95 O102 1.240 . S
C95 O103 1.252 . S
C96 O99 1.252 . S
C96 O100 1.260 . S
O97 In91 2.264 1_655 S
O97 C94 1.252 . S
O98 In91 2.321 1_655 S
O98 C94 1.260 . S
O99 In91 2.269 . S
O99 C96 1.252 . S
O100 In91 2.330 . S
O100 C96 1.260 . S
C101 O92 1.240 . S
C101 O93 1.252 . S
O102 In91 2.291 1_655 S
O102 C95 1.240 . S
O103 In91 2.322 1_655 S
O103 C95 1.252 . S
In104 O105 2.281 1_545 S
In104 O106 2.328 . S
In104 O110 2.254 1_545 S
In104 O111 2.328 . S
In104 O112 2.279 . S
In104 O113 2.324 1_545 S
In104 O115 2.306 . S
In104 O116 2.325 1_545 S
O105 In104 2.281 1_565 S
O105 C114 1.240 . S
O106 In104 2.328 . S
O106 C114 1.252 1_545 S
C107 O110 1.252 . S
C107 O111 1.260 1_565 S
C108 O115 1.240 . S
C108 O116 1.252 1_545 S
C109 O112 1.252 . S
C109 O113 1.260 1_545 S
O110 In104 2.254 1_565 S
O110 C107 1.252 . S
O111 In104 2.328 . S
O111 C107 1.260 1_545 S
O112 In104 2.279 . S
O112 C109 1.252 . S
O113 In104 2.324 1_565 S
O113 C109 1.260 1_565 S
C114 O105 1.240 . S
C114 O106 1.252 1_565 S
O115 In104 2.306 . S
O115 C108 1.240 . S
O116 In104 2.325 1_565 S
O116 C108 1.252 1_565 S
In117 O118 2.294 . S
In117 O119 2.326 . S
In117 O123 2.266 . S
In117 O124 2.326 . S
In117 O125 2.266 . S
In117 O126 2.326 . S
In117 O128 2.294 . S
In117 O129 2.326 . S
O118 In117 2.294 . S
O118 C127 1.240 . S
O119 In117 2.326 . S
O119 C127 1.252 . S
C120 O123 1.252 . S
C120 O124 1.260 . S
C121 O128 1.240 . S
C121 O129 1.252 . S
C122 O125 1.252 . S
C122 O126 1.260 . S
O123 In117 2.266 . S
O123 C120 1.252 . S
O124 In117 2.326 . S
O124 C120 1.260 . S
O125 In117 2.266 . S
O125 C122 1.252 . S
O126 In117 2.326 . S
O126 C122 1.260 . S
C127 O118 1.240 . S
C127 O119 1.252 . S
O128 In117 2.294 . S
O128 C121 1.240 . S
O129 In117 2.326 . S
O129 C121 1.252 . S
In130 O131 2.269 1_545 S
In130 O132 2.330 . S
In130 O136 2.241 1_545 S
In130 O137 2.330 . S
In130 O138 2.291 . S
In130 O139 2.322 1_545 S
In130 O141 2.319 . S
In130 O142 2.323 1_545 S
O131 In130 2.269 1_565 S
O131 C140 1.240 . S
O132 In130 2.330 . S
O132 C140 1.252 1_545 S
C133 O136 1.252 . S
C133 O137 1.260 1_565 S
C134 O141 1.240 . S
C134 O142 1.252 1_545 S
C135 O138 1.252 . S
C135 O139 1.260 1_545 S
O136 In130 2.241 1_565 S
O136 C133 1.252 . S
O137 In130 2.330 . S
O137 C133 1.260 1_545 S
O138 In130 2.291 . S
O138 C135 1.252 . S
O139 In130 2.322 1_565 S
O139 C135 1.260 1_565 S
C140 O131 1.240 . S
C140 O132 1.252 1_565 S
O141 In130 2.319 . S
O141 C134 1.240 . S
O142 In130 2.323 1_565 S
O142 C134 1.252 1_565 S
In143 O144 2.296 . S
In143 O145 2.331 . S
In143 O149 2.264 1_554 S
In143 O150 2.321 1_554 S
In143 O151 2.269 . S
In143 O152 2.330 . S
In143 O154 2.291 1_554 S
In143 O155 2.322 1_554 S
O144 In143 2.296 . S
O144 C153 1.240 . S
O145 In143 2.331 . S
O145 C153 1.252 . S
C146 O149 1.252 . S
C146 O150 1.260 . S
C147 O154 1.240 . S
C147 O155 1.252 . S
C148 O151 1.252 . S
C148 O152 1.260 . S
O149 In143 2.264 1_556 S
O149 C146 1.252 . S
O150 In143 2.321 1_556 S
O150 C146 1.260 . S
O151 In143 2.269 . S
O151 C148 1.252 . S
O152 In143 2.330 . S
O152 C148 1.260 . S
C153 O144 1.240 . S
C153 O145 1.252 . S
O154 In143 2.291 1_556 S
O154 C147 1.240 . S
O155 In143 2.322 1_556 S
O155 C147 1.252 . S
In156 O157 2.281 1_554 S
In156 O158 2.328 . S
In156 O162 2.254 1_554 S
In156 O163 2.328 . S
In156 O164 2.279 . S
In156 O165 2.324 1_554 S
In156 O167 2.306 . S
In156 O168 2.325 1_554 S
O157 In156 2.281 1_556 S
O157 C166 1.240 . S
O158 In156 2.328 . S
O158 C166 1.252 1_554 S
C159 O162 1.252 . S
C159 O163 1.260 1_556 S
C160 O167 1.240 . S
C160 O168 1.252 1_554 S
C161 O164 1.252 . S
C161 O165 1.260 1_554 S
O162 In156 2.254 1_556 S
O162 C159 1.252 . S
O163 In156 2.328 . S
O163 C159 1.260 1_554 S
O164 In156 2.279 . S
O164 C161 1.252 . S
O165 In156 2.324 1_556 S
O165 C161 1.260 1_556 S
C166 O157 1.240 . S
C166 O158 1.252 1_556 S
O167 In156 2.306 . S
O167 C160 1.240 . S
O168 In156 2.325 1_556 S
O168 C160 1.252 1_556 S
In169 O170 2.319 . S
In169 O171 2.323 1_554 S
In169 O175 2.291 . S
In169 O176 2.322 1_554 S
In169 O177 2.241 1_554 S
In169 O178 2.330 . S
In169 O180 2.269 1_554 S
In169 O181 2.330 . S
O170 In169 2.319 . S
O170 C179 1.240 . S
O171 In169 2.323 1_556 S
O171 C179 1.252 1_556 S
C172 O175 1.252 . S
C172 O176 1.260 1_554 S
C173 O180 1.240 . S
C173 O181 1.252 1_556 S
C174 O177 1.252 . S
C174 O178 1.260 1_556 S
O175 In169 2.291 . S
O175 C172 1.252 . S
O176 In169 2.322 1_556 S
O176 C172 1.260 1_556 S
O177 In169 2.241 1_556 S
O177 C174 1.252 . S
O178 In169 2.330 . S
O178 C174 1.260 1_554 S
C179 O170 1.240 . S
C179 O171 1.252 1_554 S
O180 In169 2.269 1_556 S
O180 C173 1.240 . S
O181 In169 2.330 . S
O181 C173 1.252 1_554 S
In182 O183 2.294 . S
In182 O184 2.326 . S
In182 O188 2.266 . S
In182 O189 2.326 . S
In182 O190 2.266 . S
In182 O191 2.326 . S
In182 O193 2.294 . S
In182 O194 2.326 . S
O183 In182 2.294 . S
O183 C192 1.240 . S
O184 In182 2.326 . S
O184 C192 1.252 . S
C185 O188 1.252 . S
C185 O189 1.260 . S
C186 O193 1.240 . S
C186 O194 1.252 . S
C187 O190 1.252 . S
C187 O191 1.260 . S
O188 In182 2.266 . S
O188 C185 1.252 . S
O189 In182 2.326 . S
O189 C185 1.260 . S
O190 In182 2.266 . S
O190 C187 1.252 . S
O191 In182 2.326 . S
O191 C187 1.260 . S
C192 O183 1.240 . S
C192 O184 1.252 . S
O193 In182 2.294 . S
O193 C186 1.240 . S
O194 In182 2.326 . S
O194 C186 1.252 . S
In195 O196 2.294 . S
In195 O197 2.326 . S
In195 O201 2.266 . S
In195 O202 2.326 . S
In195 O203 2.266 . S
In195 O204 2.326 . S
In195 O206 2.294 . S
In195 O207 2.326 . S
O196 In195 2.294 . S
O196 C205 1.240 . S
O197 In195 2.326 . S
O197 C205 1.252 . S
C198 O201 1.252 . S
C198 O202 1.260 . S
C199 O206 1.240 . S
C199 O207 1.252 . S
C200 O203 1.252 . S
C200 O204 1.260 . S
O201 In195 2.266 . S
O201 C198 1.252 . S
O202 In195 2.326 . S
O202 C198 1.260 . S
O203 In195 2.266 . S
O203 C200 1.252 . S
O204 In195 2.326 . S
O204 C200 1.260 . S
C205 O196 1.240 . S
C205 O197 1.252 . S
O206 In195 2.294 . S
O206 C199 1.240 . S
O207 In195 2.326 . S
O207 C199 1.252 . S
In208 O209 2.291 1_545 S
In208 O210 2.322 1_545 S
In208 O214 2.269 . S
In208 O215 2.330 . S
In208 O216 2.264 1_545 S
In208 O217 2.321 1_545 S
In208 O219 2.296 . S
In208 O220 2.331 . S
O209 In208 2.291 1_565 S
O209 C218 1.240 . S
O210 In208 2.322 1_565 S
O210 C218 1.252 . S
C211 O214 1.252 . S
C211 O215 1.260 . S
C212 O219 1.240 . S
C212 O220 1.252 . S
C213 O216 1.252 . S
C213 O217 1.260 . S
O214 In208 2.269 . S
O214 C211 1.252 . S
O215 In208 2.330 . S
O215 C211 1.260 . S
O216 In208 2.264 1_565 S
O216 C213 1.252 . S
O217 In208 2.321 1_565 S
O217 C213 1.260 . S
C218 O209 1.240 . S
C218 O210 1.252 . S
O219 In208 2.296 . S
O219 C212 1.240 . S
O220 In208 2.331 . S
O220 C212 1.252 . S
In221 O222 2.294 . S
In221 O223 2.326 . S
In221 O227 2.266 . S
In221 O228 2.326 . S
In221 O229 2.266 . S
In221 O230 2.326 . S
In221 O232 2.294 . S
In221 O233 2.326 . S
O222 In221 2.294 . S
O222 C231 1.240 . S
O223 In221 2.326 . S
O223 C231 1.252 . S
C224 O227 1.252 . S
C224 O228 1.260 . S
C225 O232 1.240 . S
C225 O233 1.252 . S
C226 O229 1.252 . S
C226 O230 1.260 . S
O227 In221 2.266 . S
O227 C224 1.252 . S
O228 In221 2.326 . S
O228 C224 1.260 . S
O229 In221 2.266 . S
O229 C226 1.252 . S
O230 In221 2.326 . S
O230 C226 1.260 . S
C231 O222 1.240 . S
C231 O223 1.252 . S
O232 In221 2.294 . S
O232 C225 1.240 . S
O233 In221 2.326 . S
O233 C225 1.252 . S
In234 O235 2.294 . S
In234 O236 2.326 . S
In234 O240 2.266 . S
In234 O241 2.326 . S
In234 O242 2.266 . S
In234 O243 2.326 . S
In234 O245 2.294 . S
In234 O246 2.326 . S
O235 In234 2.294 . S
O235 C244 1.240 . S
O236 In234 2.326 . S
O236 C244 1.252 . S
C237 O240 1.252 . S
C237 O241 1.260 . S
C238 O245 1.240 . S
C238 O246 1.252 . S
C239 O242 1.252 . S
C239 O243 1.260 . S
O240 In234 2.266 . S
O240 C237 1.252 . S
O241 In234 2.326 . S
O241 C237 1.260 . S
O242 In234 2.266 . S
O242 C239 1.252 . S
O243 In234 2.326 . S
O243 C239 1.260 . S
C244 O235 1.240 . S
C244 O236 1.252 . S
O245 In234 2.294 . S
O245 C238 1.240 . S
O246 In234 2.326 . S
O246 C238 1.252 . S
In247 O248 2.285 1_545 S
In247 O249 2.311 1_545 S
In247 O253 2.275 . S
In247 O254 2.342 . S
In247 O255 2.257 1_545 S
In247 O256 2.310 1_545 S
In247 O258 2.303 . S
In247 O259 2.342 . S
O248 In247 2.285 1_565 S
O248 C257 1.240 . S
O249 In247 2.311 1_565 S
O249 C257 1.252 . S
C250 O253 1.252 . S
C250 O254 1.260 . S
C251 O258 1.240 . S
C251 O259 1.252 . S
C252 O255 1.252 . S
C252 O256 1.260 . S
O253 In247 2.275 . S
O253 C250 1.252 . S
O254 In247 2.342 . S
O254 C250 1.260 . S
O255 In247 2.257 1_565 S
O255 C252 1.252 . S
O256 In247 2.310 1_565 S
O256 C252 1.260 . S
C257 O248 1.240 . S
C257 O249 1.252 . S
O258 In247 2.303 . S
O258 C251 1.240 . S
O259 In247 2.342 . S
O259 C251 1.252 . S
In260 O261 2.303 . S
In260 O262 2.342 . S
In260 O266 2.257 1_554 S
In260 O267 2.310 1_554 S
In260 O268 2.275 . S
In260 O269 2.342 . S
In260 O271 2.285 1_554 S
In260 O272 2.311 1_554 S
O261 In260 2.303 . S
O261 C270 1.240 . S
O262 In260 2.342 . S
O262 C270 1.252 . S
C263 O266 1.252 . S
C263 O267 1.260 . S
C264 O271 1.240 . S
C264 O272 1.252 . S
C265 O268 1.252 . S
C265 O269 1.260 . S
O266 In260 2.257 1_556 S
O266 C263 1.252 . S
O267 In260 2.310 1_556 S
O267 C263 1.260 . S
O268 In260 2.275 . S
O268 C265 1.252 . S
O269 In260 2.342 . S
O269 C265 1.260 . S
C270 O261 1.240 . S
C270 O262 1.252 . S
O271 In260 2.285 1_556 S
O271 C264 1.240 . S
O272 In260 2.311 1_556 S
O272 C264 1.252 . S
In273 O274 2.294 . S
In273 O275 2.326 . S
In273 O279 2.266 . S
In273 O280 2.326 . S
In273 O281 2.266 . S
In273 O282 2.326 . S
In273 O284 2.294 . S
In273 O285 2.326 . S
O274 In273 2.294 . S
O274 C283 1.240 . S
O275 In273 2.326 . S
O275 C283 1.252 . S
C276 O279 1.252 . S
C276 O280 1.260 . S
C277 O284 1.240 . S
C277 O285 1.252 . S
C278 O281 1.252 . S
C278 O282 1.260 . S
O279 In273 2.266 . S
O279 C276 1.252 . S
O280 In273 2.326 . S
O280 C276 1.260 . S
O281 In273 2.266 . S
O281 C278 1.252 . S
O282 In273 2.326 . S
O282 C278 1.260 . S
C283 O274 1.240 . S
C283 O275 1.252 . S
O284 In273 2.294 . S
O284 C277 1.240 . S
O285 In273 2.326 . S
O285 C277 1.252 . S
In286 O287 2.294 . S
In286 O288 2.326 . S
In286 O292 2.266 . S
In286 O293 2.326 . S
In286 O294 2.266 . S
In286 O295 2.326 . S
In286 O297 2.294 . S
In286 O298 2.326 . S
O287 In286 2.294 . S
O287 C296 1.240 . S
O288 In286 2.326 . S
O288 C296 1.252 . S
C289 O292 1.252 . S
C289 O293 1.260 . S
C290 O297 1.240 . S
C290 O298 1.252 . S
C291 O294 1.252 . S
C291 O295 1.260 . S
O292 In286 2.266 . S
O292 C289 1.252 . S
O293 In286 2.326 . S
O293 C289 1.260 . S
O294 In286 2.266 . S
O294 C291 1.252 . S
O295 In286 2.326 . S
O295 C291 1.260 . S
C296 O287 1.240 . S
C296 O288 1.252 . S
O297 In286 2.294 . S
O297 C290 1.240 . S
O298 In286 2.326 . S
O298 C290 1.252 . S
In299 O300 2.294 . S
In299 O301 2.326 . S
In299 O305 2.266 . S
In299 O306 2.326 . S
In299 O307 2.266 . S
In299 O308 2.326 . S
In299 O310 2.294 . S
In299 O311 2.326 . S
O300 In299 2.294 . S
O300 C309 1.240 . S
O301 In299 2.326 . S
O301 C309 1.252 . S
C302 O305 1.252 . S
C302 O306 1.260 . S
C303 O310 1.240 . S
C303 O311 1.252 . S
C304 O307 1.252 . S
C304 O308 1.260 . S
O305 In299 2.266 . S
O305 C302 1.252 . S
O306 In299 2.326 . S
O306 C302 1.260 . S
O307 In299 2.266 . S
O307 C304 1.252 . S
O308 In299 2.326 . S
O308 C304 1.260 . S
C309 O300 1.240 . S
C309 O301 1.252 . S
O310 In299 2.294 . S
O310 C303 1.240 . S
O311 In299 2.326 . S
O311 C303 1.252 . S
Sc312 O315 2.025 . S
Sc312 O322 2.105 . S
Sc312 O325 2.105 . S
Sc312 O328 2.105 . S
Sc312 O331 2.105 . S
Sc313 O315 2.025 . S
Sc313 O323 2.105 . S
Sc313 O327 2.105 . S
Sc313 O329 2.105 . S
Sc313 O333 2.105 . S
Sc314 O315 2.025 . S
Sc314 O324 2.105 . S
Sc314 O326 2.105 . S
Sc314 O330 2.105 . S
Sc314 O332 2.105 . S
O315 Sc312 2.025 . S
O315 Sc313 2.025 . S
O315 Sc314 2.025 . S
C316 O322 1.268 . S
C316 O332 1.268 . S
C317 O323 1.268 . S
C317 O331 1.268 . S
C318 O324 1.268 . S
C318 O333 1.268 . S
C319 O325 1.268 . S
C319 O329 1.268 . S
C320 O326 1.268 . S
C320 O328 1.268 . S
C321 O327 1.268 . S
C321 O330 1.268 . S
O322 Sc312 2.105 . S
O322 C316 1.268 . S
O323 Sc313 2.105 . S
O323 C317 1.268 . S
O324 Sc314 2.105 . S
O324 C318 1.268 . S
O325 Sc312 2.105 . S
O325 C319 1.268 . S
O326 Sc314 2.105 . S
O326 C320 1.268 . S
O327 Sc313 2.105 . S
O327 C321 1.268 . S
O328 Sc312 2.105 . S
O328 C320 1.268 . S
O329 Sc313 2.105 . S
O329 C319 1.268 . S
O330 Sc314 2.105 . S
O330 C321 1.268 . S
O331 Sc312 2.105 . S
O331 C317 1.268 . S
O332 Sc314 2.105 . S
O332 C316 1.268 . S
O333 Sc313 2.105 . S
O333 C318 1.268 . S
Sc334 O337 2.025 . S
Sc334 O344 2.105 . S
Sc334 O347 2.105 . S
Sc334 O350 2.105 . S
Sc334 O353 2.105 . S
Sc335 O337 2.025 . S
Sc335 O345 2.105 . S
Sc335 O349 2.105 . S
Sc335 O351 2.105 . S
Sc335 O355 2.105 . S
Sc336 O337 2.025 . S
Sc336 O346 2.105 . S
Sc336 O348 2.105 . S
Sc336 O352 2.105 . S
Sc336 O354 2.105 . S
O337 Sc334 2.025 . S
O337 Sc335 2.025 . S
O337 Sc336 2.025 . S
C338 O344 1.268 . S
C338 O354 1.268 . S
C339 O345 1.268 . S
C339 O353 1.268 . S
C340 O346 1.268 . S
C340 O355 1.268 . S
C341 O347 1.268 . S
C341 O351 1.268 . S
C342 O348 1.268 . S
C342 O350 1.268 . S
C343 O349 1.268 . S
C343 O352 1.268 . S
O344 Sc334 2.105 . S
O344 C338 1.268 . S
O345 Sc335 2.105 . S
O345 C339 1.268 . S
O346 Sc336 2.105 . S
O346 C340 1.268 . S
O347 Sc334 2.105 . S
O347 C341 1.268 . S
O348 Sc336 2.105 . S
O348 C342 1.268 . S
O349 Sc335 2.105 . S
O349 C343 1.268 . S
O350 Sc334 2.105 . S
O350 C342 1.268 . S
O351 Sc335 2.105 . S
O351 C341 1.268 . S
O352 Sc336 2.105 . S
O352 C343 1.268 . S
O353 Sc334 2.105 . S
O353 C339 1.268 . S
O354 Sc336 2.105 . S
O354 C338 1.268 . S
O355 Sc335 2.105 . S
O355 C340 1.268 . S
Sc356 O359 2.025 . S
Sc356 O366 2.105 . S
Sc356 O369 2.105 . S
Sc356 O372 2.105 . S
Sc356 O375 2.105 . S
Sc357 O359 2.025 . S
Sc357 O367 2.105 . S
Sc357 O371 2.105 . S
Sc357 O373 2.105 . S
Sc357 O377 2.105 . S
Sc358 O359 2.025 . S
Sc358 O368 2.105 . S
Sc358 O370 2.105 . S
Sc358 O374 2.105 . S
Sc358 O376 2.105 . S
O359 Sc356 2.025 . S
O359 Sc357 2.025 . S
O359 Sc358 2.025 . S
C360 O366 1.268 . S
C360 O376 1.268 . S
C361 O367 1.268 . S
C361 O375 1.268 . S
C362 O368 1.268 . S
C362 O377 1.268 . S
C363 O369 1.268 . S
C363 O373 1.268 . S
C364 O370 1.268 . S
C364 O372 1.268 . S
C365 O371 1.268 . S
C365 O374 1.268 . S
O366 Sc356 2.105 . S
O366 C360 1.268 . S
O367 Sc357 2.105 . S
O367 C361 1.268 . S
O368 Sc358 2.105 . S
O368 C362 1.268 . S
O369 Sc356 2.105 . S
O369 C363 1.268 . S
O370 Sc358 2.105 . S
O370 C364 1.268 . S
O371 Sc357 2.105 . S
O371 C365 1.268 . S
O372 Sc356 2.105 . S
O372 C364 1.268 . S
O373 Sc357 2.105 . S
O373 C363 1.268 . S
O374 Sc358 2.105 . S
O374 C365 1.268 . S
O375 Sc356 2.105 . S
O375 C361 1.268 . S
O376 Sc358 2.105 . S
O376 C360 1.268 . S
O377 Sc357 2.105 . S
O377 C362 1.268 . S
Sc378 O381 2.025 . S
Sc378 O388 2.105 . S
Sc378 O391 2.105 . S
Sc378 O394 2.105 . S
Sc378 O397 2.105 . S
Sc379 O381 2.025 . S
Sc379 O389 2.105 . S
Sc379 O393 2.105 . S
Sc379 O395 2.105 . S
Sc379 O399 2.105 . S
Sc380 O381 2.025 . S
Sc380 O390 2.105 . S
Sc380 O392 2.105 . S
Sc380 O396 2.105 . S
Sc380 O398 2.105 . S
O381 Sc378 2.025 . S
O381 Sc379 2.025 . S
O381 Sc380 2.025 . S
C382 O388 1.268 . S
C382 O398 1.268 . S
C383 O389 1.268 . S
C383 O397 1.268 . S
C384 O390 1.268 . S
C384 O399 1.268 . S
C385 O391 1.268 . S
C385 O395 1.268 . S
C386 O392 1.268 . S
C386 O394 1.268 . S
C387 O393 1.268 . S
C387 O396 1.268 . S
O388 Sc378 2.105 . S
O388 C382 1.268 . S
O389 Sc379 2.105 . S
O389 C383 1.268 . S
O390 Sc380 2.105 . S
O390 C384 1.268 . S
O391 Sc378 2.105 . S
O391 C385 1.268 . S
O392 Sc380 2.105 . S
O392 C386 1.268 . S
O393 Sc379 2.105 . S
O393 C387 1.268 . S
O394 Sc378 2.105 . S
O394 C386 1.268 . S
O395 Sc379 2.105 . S
O395 C385 1.268 . S
O396 Sc380 2.105 . S
O396 C387 1.268 . S
O397 Sc378 2.105 . S
O397 C383 1.268 . S
O398 Sc380 2.105 . S
O398 C382 1.268 . S
O399 Sc379 2.105 . S
O399 C384 1.268 . S
Sc400 O403 2.025 . S
Sc400 O410 2.105 . S
Sc400 O413 2.105 . S
Sc400 O416 2.105 . S
Sc400 O419 2.105 . S
Sc401 O403 2.025 . S
Sc401 O411 2.105 . S
Sc401 O415 2.105 . S
Sc401 O417 2.105 . S
Sc401 O421 2.105 . S
Sc402 O403 2.025 . S
Sc402 O412 2.105 . S
Sc402 O414 2.105 . S
Sc402 O418 2.105 . S
Sc402 O420 2.105 . S
O403 Sc400 2.025 . S
O403 Sc401 2.025 . S
O403 Sc402 2.025 . S
C404 O410 1.268 . S
C404 O420 1.268 . S
C405 O411 1.268 . S
C405 O419 1.268 . S
C406 O412 1.268 . S
C406 O421 1.268 . S
C407 O413 1.268 . S
C407 O417 1.268 . S
C408 O414 1.268 . S
C408 O416 1.268 . S
C409 O415 1.268 . S
C409 O418 1.268 . S
O410 Sc400 2.105 . S
O410 C404 1.268 . S
O411 Sc401 2.105 . S
O411 C405 1.268 . S
O412 Sc402 2.105 . S
O412 C406 1.268 . S
O413 Sc400 2.105 . S
O413 C407 1.268 . S
O414 Sc402 2.105 . S
O414 C408 1.268 . S
O415 Sc401 2.105 . S
O415 C409 1.268 . S
O416 Sc400 2.105 . S
O416 C408 1.268 . S
O417 Sc401 2.105 . S
O417 C407 1.268 . S
O418 Sc402 2.105 . S
O418 C409 1.268 . S
O419 Sc400 2.105 . S
O419 C405 1.268 . S
O420 Sc402 2.105 . S
O420 C404 1.268 . S
O421 Sc401 2.105 . S
O421 C406 1.268 . S
Sc422 O425 2.025 . S
Sc422 O432 2.105 . S
Sc422 O435 2.105 . S
Sc422 O438 2.105 . S
Sc422 O441 2.105 . S
Sc423 O425 2.025 . S
Sc423 O433 2.105 . S
Sc423 O437 2.105 . S
Sc423 O439 2.105 . S
Sc423 O443 2.105 . S
Sc424 O425 2.025 . S
Sc424 O434 2.105 . S
Sc424 O436 2.105 . S
Sc424 O440 2.105 . S
Sc424 O442 2.105 . S
O425 Sc422 2.025 . S
O425 Sc423 2.025 . S
O425 Sc424 2.025 . S
C426 O432 1.268 . S
C426 O442 1.268 . S
C427 O433 1.268 . S
C427 O441 1.268 . S
C428 O434 1.268 . S
C428 O443 1.268 . S
C429 O435 1.268 . S
C429 O439 1.268 . S
C430 O436 1.268 . S
C430 O438 1.268 . S
C431 O437 1.268 . S
C431 O440 1.268 . S
O432 Sc422 2.105 . S
O432 C426 1.268 . S
O433 Sc423 2.105 . S
O433 C427 1.268 . S
O434 Sc424 2.105 . S
O434 C428 1.268 . S
O435 Sc422 2.105 . S
O435 C429 1.268 . S
O436 Sc424 2.105 . S
O436 C430 1.268 . S
O437 Sc423 2.105 . S
O437 C431 1.268 . S
O438 Sc422 2.105 . S
O438 C430 1.268 . S
O439 Sc423 2.105 . S
O439 C429 1.268 . S
O440 Sc424 2.105 . S
O440 C431 1.268 . S
O441 Sc422 2.105 . S
O441 C427 1.268 . S
O442 Sc424 2.105 . S
O442 C426 1.268 . S
O443 Sc423 2.105 . S
O443 C428 1.268 . S
Sc444 O447 2.025 . S
Sc444 O454 2.105 . S
Sc444 O457 2.105 . S
Sc444 O460 2.105 . S
Sc444 O463 2.105 . S
Sc445 O447 2.025 . S
Sc445 O455 2.105 . S
Sc445 O459 2.105 . S
Sc445 O461 2.105 . S
Sc445 O465 2.105 . S
Sc446 O447 2.025 . S
Sc446 O456 2.105 . S
Sc446 O458 2.105 . S
Sc446 O462 2.105 . S
Sc446 O464 2.105 . S
O447 Sc444 2.025 . S
O447 Sc445 2.025 . S
O447 Sc446 2.025 . S
C448 O454 1.268 . S
C448 O464 1.268 . S
C449 O455 1.268 . S
C449 O463 1.268 . S
C450 O456 1.268 . S
C450 O465 1.268 . S
C451 O457 1.268 . S
C451 O461 1.268 . S
C452 O458 1.268 . S
C452 O460 1.268 . S
C453 O459 1.268 . S
C453 O462 1.268 . S
O454 Sc444 2.105 . S
O454 C448 1.268 . S
O455 Sc445 2.105 . S
O455 C449 1.268 . S
O456 Sc446 2.105 . S
O456 C450 1.268 . S
O457 Sc444 2.105 . S
O457 C451 1.268 . S
O458 Sc446 2.105 . S
O458 C452 1.268 . S
O459 Sc445 2.105 . S
O459 C453 1.268 . S
O460 Sc444 2.105 . S
O460 C452 1.268 . S
O461 Sc445 2.105 . S
O461 C451 1.268 . S
O462 Sc446 2.105 . S
O462 C453 1.268 . S
O463 Sc444 2.105 . S
O463 C449 1.268 . S
O464 Sc446 2.105 . S
O464 C448 1.268 . S
O465 Sc445 2.105 . S
O465 C450 1.268 . S
Sc466 O469 2.025 . S
Sc466 O476 2.105 . S
Sc466 O479 2.105 . S
Sc466 O482 2.105 . S
Sc466 O485 2.105 . S
Sc467 O469 2.025 . S
Sc467 O477 2.105 . S
Sc467 O481 2.105 . S
Sc467 O483 2.105 . S
Sc467 O487 2.105 . S
Sc468 O469 2.025 . S
Sc468 O478 2.105 . S
Sc468 O480 2.105 . S
Sc468 O484 2.105 . S
Sc468 O486 2.105 . S
O469 Sc466 2.025 . S
O469 Sc467 2.025 . S
O469 Sc468 2.025 . S
C470 O476 1.268 . S
C470 O486 1.268 . S
C471 O477 1.268 . S
C471 O485 1.268 . S
C472 O478 1.268 . S
C472 O487 1.268 . S
C473 O479 1.268 . S
C473 O483 1.268 . S
C474 O480 1.268 . S
C474 O482 1.268 . S
C475 O481 1.268 . S
C475 O484 1.268 . S
O476 Sc466 2.105 . S
O476 C470 1.268 . S
O477 Sc467 2.105 . S
O477 C471 1.268 . S
O478 Sc468 2.105 . S
O478 C472 1.268 . S
O479 Sc466 2.105 . S
O479 C473 1.268 . S
O480 Sc468 2.105 . S
O480 C474 1.268 . S
O481 Sc467 2.105 . S
O481 C475 1.268 . S
O482 Sc466 2.105 . S
O482 C474 1.268 . S
O483 Sc467 2.105 . S
O483 C473 1.268 . S
O484 Sc468 2.105 . S
O484 C475 1.268 . S
O485 Sc466 2.105 . S
O485 C471 1.268 . S
O486 Sc468 2.105 . S
O486 C470 1.268 . S
O487 Sc467 2.105 . S
O487 C472 1.268 . S
Sc488 O491 2.025 . S
Sc488 O498 2.105 . S
Sc488 O501 2.105 . S
Sc488 O504 2.105 . S
Sc488 O507 2.105 . S
Sc489 O491 2.025 . S
Sc489 O499 2.105 . S
Sc489 O503 2.105 . S
Sc489 O505 2.105 . S
Sc489 O509 2.105 . S
Sc490 O491 2.025 . S
Sc490 O500 2.105 . S
Sc490 O502 2.105 . S
Sc490 O506 2.105 . S
Sc490 O508 2.105 . S
O491 Sc488 2.025 . S
O491 Sc489 2.025 . S
O491 Sc490 2.025 . S
C492 O498 1.268 . S
C492 O508 1.268 . S
C493 O499 1.268 . S
C493 O507 1.268 . S
C494 O500 1.268 . S
C494 O509 1.268 . S
C495 O501 1.268 . S
C495 O505 1.268 . S
C496 O502 1.268 . S
C496 O504 1.268 . S
C497 O503 1.268 . S
C497 O506 1.268 . S
O498 Sc488 2.105 . S
O498 C492 1.268 . S
O499 Sc489 2.105 . S
O499 C493 1.268 . S
O500 Sc490 2.105 . S
O500 C494 1.268 . S
O501 Sc488 2.105 . S
O501 C495 1.268 . S
O502 Sc490 2.105 . S
O502 C496 1.268 . S
O503 Sc489 2.105 . S
O503 C497 1.268 . S
O504 Sc488 2.105 . S
O504 C496 1.268 . S
O505 Sc489 2.105 . S
O505 C495 1.268 . S
O506 Sc490 2.105 . S
O506 C497 1.268 . S
O507 Sc488 2.105 . S
O507 C493 1.268 . S
O508 Sc490 2.105 . S
O508 C492 1.268 . S
O509 Sc489 2.105 . S
O509 C494 1.268 . S
Sc510 O513 2.025 . S
Sc510 O520 2.105 . S
Sc510 O523 2.105 . S
Sc510 O526 2.105 . S
Sc510 O529 2.105 . S
Sc511 O513 2.025 . S
Sc511 O521 2.105 . S
Sc511 O525 2.105 . S
Sc511 O527 2.105 . S
Sc511 O531 2.105 . S
Sc512 O513 2.025 . S
Sc512 O522 2.105 . S
Sc512 O524 2.105 . S
Sc512 O528 2.105 . S
Sc512 O530 2.105 . S
O513 Sc510 2.025 . S
O513 Sc511 2.025 . S
O513 Sc512 2.025 . S
C514 O520 1.268 . S
C514 O530 1.268 . S
C515 O521 1.268 . S
C515 O529 1.268 . S
C516 O522 1.268 . S
C516 O531 1.268 . S
C517 O523 1.268 . S
C517 O527 1.268 . S
C518 O524 1.268 . S
C518 O526 1.268 . S
C519 O525 1.268 . S
C519 O528 1.268 . S
O520 Sc510 2.105 . S
O520 C514 1.268 . S
O521 Sc511 2.105 . S
O521 C515 1.268 . S
O522 Sc512 2.105 . S
O522 C516 1.268 . S
O523 Sc510 2.105 . S
O523 C517 1.268 . S
O524 Sc512 2.105 . S
O524 C518 1.268 . S
O525 Sc511 2.105 . S
O525 C519 1.268 . S
O526 Sc510 2.105 . S
O526 C518 1.268 . S
O527 Sc511 2.105 . S
O527 C517 1.268 . S
O528 Sc512 2.105 . S
O528 C519 1.268 . S
O529 Sc510 2.105 . S
O529 C515 1.268 . S
O530 Sc512 2.105 . S
O530 C514 1.268 . S
O531 Sc511 2.105 . S
O531 C516 1.268 . S
Sc532 O535 2.025 . S
Sc532 O542 2.105 . S
Sc532 O545 2.105 . S
Sc532 O548 2.105 . S
Sc532 O551 2.105 . S
Sc533 O535 2.025 . S
Sc533 O543 2.105 . S
Sc533 O547 2.105 . S
Sc533 O549 2.105 . S
Sc533 O553 2.105 . S
Sc534 O535 2.025 . S
Sc534 O544 2.105 . S
Sc534 O546 2.105 . S
Sc534 O550 2.105 . S
Sc534 O552 2.105 . S
O535 Sc532 2.025 . S
O535 Sc533 2.025 . S
O535 Sc534 2.025 . S
C536 O542 1.268 . S
C536 O552 1.268 . S
C537 O543 1.268 . S
C537 O551 1.268 . S
C538 O544 1.268 . S
C538 O553 1.268 . S
C539 O545 1.268 . S
C539 O549 1.268 . S
C540 O546 1.268 . S
C540 O548 1.268 . S
C541 O547 1.268 . S
C541 O550 1.268 . S
O542 Sc532 2.105 . S
O542 C536 1.268 . S
O543 Sc533 2.105 . S
O543 C537 1.268 . S
O544 Sc534 2.105 . S
O544 C538 1.268 . S
O545 Sc532 2.105 . S
O545 C539 1.268 . S
O546 Sc534 2.105 . S
O546 C540 1.268 . S
O547 Sc533 2.105 . S
O547 C541 1.268 . S
O548 Sc532 2.105 . S
O548 C540 1.268 . S
O549 Sc533 2.105 . S
O549 C539 1.268 . S
O550 Sc534 2.105 . S
O550 C541 1.268 . S
O551 Sc532 2.105 . S
O551 C537 1.268 . S
O552 Sc534 2.105 . S
O552 C536 1.268 . S
O553 Sc533 2.105 . S
O553 C538 1.268 . S
Sc554 O557 2.025 . S
Sc554 O564 2.105 . S
Sc554 O567 2.105 . S
Sc554 O570 2.105 . S
Sc554 O573 2.105 . S
Sc555 O557 2.025 . S
Sc555 O565 2.105 . S
Sc555 O569 2.105 . S
Sc555 O571 2.105 . S
Sc555 O575 2.105 . S
Sc556 O557 2.025 . S
Sc556 O566 2.105 . S
Sc556 O568 2.105 . S
Sc556 O572 2.105 . S
Sc556 O574 2.105 . S
O557 Sc554 2.025 . S
O557 Sc555 2.025 . S
O557 Sc556 2.025 . S
C558 O564 1.268 . S
C558 O574 1.268 . S
C559 O565 1.268 . S
C559 O573 1.268 . S
C560 O566 1.268 . S
C560 O575 1.268 . S
C561 O567 1.268 . S
C561 O571 1.268 . S
C562 O568 1.268 . S
C562 O570 1.268 . S
C563 O569 1.268 . S
C563 O572 1.268 . S
O564 Sc554 2.105 . S
O564 C558 1.268 . S
O565 Sc555 2.105 . S
O565 C559 1.268 . S
O566 Sc556 2.105 . S
O566 C560 1.268 . S
O567 Sc554 2.105 . S
O567 C561 1.268 . S
O568 Sc556 2.105 . S
O568 C562 1.268 . S
O569 Sc555 2.105 . S
O569 C563 1.268 . S
O570 Sc554 2.105 . S
O570 C562 1.268 . S
O571 Sc555 2.105 . S
O571 C561 1.268 . S
O572 Sc556 2.105 . S
O572 C563 1.268 . S
O573 Sc554 2.105 . S
O573 C559 1.268 . S
O574 Sc556 2.105 . S
O574 C558 1.268 . S
O575 Sc555 2.105 . S
O575 C560 1.268 . S
Sc576 O579 2.025 . S
Sc576 O586 2.105 . S
Sc576 O589 2.105 . S
Sc576 O592 2.105 . S
Sc576 O595 2.105 . S
Sc577 O579 2.025 . S
Sc577 O587 2.105 . S
Sc577 O591 2.105 . S
Sc577 O593 2.105 . S
Sc577 O597 2.105 . S
Sc578 O579 2.025 . S
Sc578 O588 2.105 . S
Sc578 O590 2.105 . S
Sc578 O594 2.105 . S
Sc578 O596 2.105 . S
O579 Sc576 2.025 . S
O579 Sc577 2.025 . S
O579 Sc578 2.025 . S
C580 O586 1.268 . S
C580 O596 1.268 . S
C581 O587 1.268 . S
C581 O595 1.268 . S
C582 O588 1.268 . S
C582 O597 1.268 . S
C583 O589 1.268 . S
C583 O593 1.268 . S
C584 O590 1.268 . S
C584 O592 1.268 . S
C585 O591 1.268 . S
C585 O594 1.268 . S
O586 Sc576 2.105 . S
O586 C580 1.268 . S
O587 Sc577 2.105 . S
O587 C581 1.268 . S
O588 Sc578 2.105 . S
O588 C582 1.268 . S
O589 Sc576 2.105 . S
O589 C583 1.268 . S
O590 Sc578 2.105 . S
O590 C584 1.268 . S
O591 Sc577 2.105 . S
O591 C585 1.268 . S
O592 Sc576 2.105 . S
O592 C584 1.268 . S
O593 Sc577 2.105 . S
O593 C583 1.268 . S
O594 Sc578 2.105 . S
O594 C585 1.268 . S
O595 Sc576 2.105 . S
O595 C581 1.268 . S
O596 Sc578 2.105 . S
O596 C580 1.268 . S
O597 Sc577 2.105 . S
O597 C582 1.268 . S
Sc598 O601 2.025 . S
Sc598 O608 2.105 . S
Sc598 O611 2.105 . S
Sc598 O614 2.105 . S
Sc598 O617 2.105 . S
Sc599 O601 2.025 . S
Sc599 O609 2.105 . S
Sc599 O613 2.105 . S
Sc599 O615 2.105 . S
Sc599 O619 2.105 . S
Sc600 O601 2.025 . S
Sc600 O610 2.105 . S
Sc600 O612 2.105 . S
Sc600 O616 2.105 . S
Sc600 O618 2.105 . S
O601 Sc598 2.025 . S
O601 Sc599 2.025 . S
O601 Sc600 2.025 . S
C602 O608 1.268 . S
C602 O618 1.268 . S
C603 O609 1.268 . S
C603 O617 1.268 . S
C604 O610 1.268 . S
C604 O619 1.268 . S
C605 O611 1.268 . S
C605 O615 1.268 . S
C606 O612 1.268 . S
C606 O614 1.268 . S
C607 O613 1.268 . S
C607 O616 1.268 . S
O608 Sc598 2.105 . S
O608 C602 1.268 . S
O609 Sc599 2.105 . S
O609 C603 1.268 . S
O610 Sc600 2.105 . S
O610 C604 1.268 . S
O611 Sc598 2.105 . S
O611 C605 1.268 . S
O612 Sc600 2.105 . S
O612 C606 1.268 . S
O613 Sc599 2.105 . S
O613 C607 1.268 . S
O614 Sc598 2.105 . S
O614 C606 1.268 . S
O615 Sc599 2.105 . S
O615 C605 1.268 . S
O616 Sc600 2.105 . S
O616 C607 1.268 . S
O617 Sc598 2.105 . S
O617 C603 1.268 . S
O618 Sc600 2.105 . S
O618 C602 1.268 . S
O619 Sc599 2.105 . S
O619 C604 1.268 . S
Sc620 O623 2.025 . S
Sc620 O630 2.105 . S
Sc620 O633 2.105 . S
Sc620 O636 2.105 . S
Sc620 O639 2.105 . S
Sc621 O623 2.025 . S
Sc621 O631 2.105 . S
Sc621 O635 2.105 . S
Sc621 O637 2.105 . S
Sc621 O641 2.105 . S
Sc622 O623 2.025 . S
Sc622 O632 2.105 . S
Sc622 O634 2.105 . S
Sc622 O638 2.105 . S
Sc622 O640 2.105 . S
O623 Sc620 2.025 . S
O623 Sc621 2.025 . S
O623 Sc622 2.025 . S
C624 O630 1.268 . S
C624 O640 1.268 . S
C625 O631 1.268 . S
C625 O639 1.268 . S
C626 O632 1.268 . S
C626 O641 1.268 . S
C627 O633 1.268 . S
C627 O637 1.268 . S
C628 O634 1.268 . S
C628 O636 1.268 . S
C629 O635 1.268 . S
C629 O638 1.268 . S
O630 Sc620 2.105 . S
O630 C624 1.268 . S
O631 Sc621 2.105 . S
O631 C625 1.268 . S
O632 Sc622 2.105 . S
O632 C626 1.268 . S
O633 Sc620 2.105 . S
O633 C627 1.268 . S
O634 Sc622 2.105 . S
O634 C628 1.268 . S
O635 Sc621 2.105 . S
O635 C629 1.268 . S
O636 Sc620 2.105 . S
O636 C628 1.268 . S
O637 Sc621 2.105 . S
O637 C627 1.268 . S
O638 Sc622 2.105 . S
O638 C629 1.268 . S
O639 Sc620 2.105 . S
O639 C625 1.268 . S
O640 Sc622 2.105 . S
O640 C624 1.268 . S
O641 Sc621 2.105 . S
O641 C626 1.268 . S
Sc642 O645 2.025 . S
Sc642 O652 2.105 . S
Sc642 O655 2.105 . S
Sc642 O658 2.105 . S
Sc642 O661 2.105 . S
Sc643 O645 2.025 . S
Sc643 O653 2.105 . S
Sc643 O657 2.105 . S
Sc643 O659 2.105 . S
Sc643 O663 2.105 . S
Sc644 O645 2.025 . S
Sc644 O654 2.105 . S
Sc644 O656 2.105 . S
Sc644 O660 2.105 . S
Sc644 O662 2.105 . S
O645 Sc642 2.025 . S
O645 Sc643 2.025 . S
O645 Sc644 2.025 . S
C646 O652 1.268 . S
C646 O662 1.268 . S
C647 O653 1.268 . S
C647 O661 1.268 . S
C648 O654 1.268 . S
C648 O663 1.268 . S
C649 O655 1.268 . S
C649 O659 1.268 . S
C650 O656 1.268 . S
C650 O658 1.268 . S
C651 O657 1.268 . S
C651 O660 1.268 . S
O652 Sc642 2.105 . S
O652 C646 1.268 . S
O653 Sc643 2.105 . S
O653 C647 1.268 . S
O654 Sc644 2.105 . S
O654 C648 1.268 . S
O655 Sc642 2.105 . S
O655 C649 1.268 . S
O656 Sc644 2.105 . S
O656 C650 1.268 . S
O657 Sc643 2.105 . S
O657 C651 1.268 . S
O658 Sc642 2.105 . S
O658 C650 1.268 . S
O659 Sc643 2.105 . S
O659 C649 1.268 . S
O660 Sc644 2.105 . S
O660 C651 1.268 . S
O661 Sc642 2.105 . S
O661 C647 1.268 . S
O662 Sc644 2.105 . S
O662 C646 1.268 . S
O663 Sc643 2.105 . S
O663 C648 1.268 . S
H664 C670 0.930 . S
H665 C674 0.930 . S
H666 C679 0.929 . S
H667 C677 0.929 . S
H668 C672 0.929 . S
H669 C678 0.929 . S
C670 H664 0.930 . S
C670 C671 1.367 . S
C670 C678 1.378 . S
C671 C670 1.367 . S
C671 C679 1.433 . S
C672 H668 0.929 . S
C672 C674 1.378 . S
C672 C676 1.350 . S
C673 C676 1.463 . S
C673 C678 1.350 . S
C673 N681 1.427 . S
C674 H665 0.930 . S
C674 C672 1.378 . S
C674 C675 1.367 . S
C675 C674 1.367 . S
C675 C677 1.433 . S
C676 C672 1.350 . S
C676 C673 1.463 . S
C676 N680 1.427 . S
C677 H667 0.929 . S
C677 C675 1.433 . S
C677 N680 1.384 . S
C678 H669 0.929 . S
C678 C670 1.378 . S
C678 C673 1.350 . S
C679 H666 0.929 . S
C679 C671 1.433 . S
C679 N681 1.384 . S
N680 C676 1.427 . S
N680 C677 1.384 . S
N681 C673 1.427 . S
N681 C679 1.384 . S
H682 C688 0.930 . S
H683 C692 0.930 . S
H684 C697 0.929 . S
H685 C695 0.929 . S
H686 C690 0.929 . S
H687 C696 0.929 . S
C688 H682 0.930 . S
C688 C689 1.367 . S
C688 C696 1.378 . S
C689 C688 1.367 . S
C689 C697 1.433 . S
C690 H686 0.929 . S
C690 C692 1.378 . S
C690 C694 1.350 . S
C691 C694 1.463 . S
C691 C696 1.350 . S
C691 N699 1.427 . S
C692 H683 0.930 . S
C692 C690 1.378 . S
C692 C693 1.367 . S
C693 C692 1.367 . S
C693 C695 1.433 . S
C694 C690 1.350 . S
C694 C691 1.463 . S
C694 N698 1.427 . S
C695 H685 0.929 . S
C695 C693 1.433 . S
C695 N698 1.384 . S
C696 H687 0.929 . S
C696 C688 1.378 . S
C696 C691 1.350 . S
C697 H684 0.929 . S
C697 C689 1.433 . S
C697 N699 1.384 . S
N698 C694 1.427 . S
N698 C695 1.384 . S
N699 C691 1.427 . S
N699 C697 1.384 . S
H700 C706 0.930 . S
H701 C710 0.930 . S
H702 C715 0.929 . S
H703 C713 0.929 . S
H704 C708 0.929 . S
H705 C714 0.929 . S
C706 H700 0.930 . S
C706 C707 1.367 . S
C706 C714 1.378 . S
C707 C706 1.367 . S
C707 C715 1.433 . S
C708 H704 0.929 . S
C708 C710 1.378 . S
C708 C712 1.350 . S
C709 C712 1.463 . S
C709 C714 1.350 . S
C709 N717 1.427 . S
C710 H701 0.930 . S
C710 C708 1.378 . S
C710 C711 1.367 . S
C711 C710 1.367 . S
C711 C713 1.433 . S
C712 C708 1.350 . S
C712 C709 1.463 . S
C712 N716 1.427 . S
C713 H703 0.929 . S
C713 C711 1.433 . S
C713 N716 1.384 . S
C714 H705 0.929 . S
C714 C706 1.378 . S
C714 C709 1.350 . S
C715 H702 0.929 . S
C715 C707 1.433 . S
C715 N717 1.384 . S
N716 C712 1.427 . S
N716 C713 1.384 . S
N717 C709 1.427 . S
N717 C715 1.384 . S
H718 C724 0.930 . S
H719 C728 0.930 . S
H720 C733 0.929 . S
H721 C731 0.929 . S
H722 C726 0.929 . S
H723 C732 0.929 . S
C724 H718 0.930 . S
C724 C725 1.367 . S
C724 C732 1.378 . S
C725 C724 1.367 . S
C725 C733 1.433 . S
C726 H722 0.929 . S
C726 C728 1.378 1_554 S
C726 C730 1.350 . S
C727 C730 1.463 . S
C727 C732 1.350 . S
C727 N735 1.427 . S
C728 H719 0.930 . S
C728 C726 1.378 1_556 S
C728 C729 1.367 . S
C729 C728 1.367 . S
C729 C731 1.433 . S
C730 C726 1.350 . S
C730 C727 1.463 . S
C730 N734 1.427 1_554 S
C731 H721 0.929 . S
C731 C729 1.433 . S
C731 N734 1.384 . S
C732 H723 0.929 . S
C732 C724 1.378 . S
C732 C727 1.350 . S
C733 H720 0.929 . S
C733 C725 1.433 . S
C733 N735 1.384 . S
N734 C730 1.427 1_556 S
N734 C731 1.384 . S
N735 C727 1.427 . S
N735 C733 1.384 . S
H736 C742 0.930 . S
H737 C746 0.930 . S
H738 C751 0.929 . S
H739 C749 0.929 . S
H740 C744 0.929 . S
H741 C750 0.929 . S
C742 H736 0.930 . S
C742 C743 1.367 . S
C742 C750 1.378 . S
C743 C742 1.367 . S
C743 C751 1.433 . S
C744 H740 0.929 . S
C744 C746 1.378 . S
C744 C748 1.350 . S
C745 C748 1.463 . S
C745 C750 1.350 . S
C745 N753 1.427 . S
C746 H737 0.930 . S
C746 C744 1.378 . S
C746 C747 1.367 . S
C747 C746 1.367 . S
C747 C749 1.433 . S
C748 C744 1.350 . S
C748 C745 1.463 . S
C748 N752 1.427 . S
C749 H739 0.929 . S
C749 C747 1.433 . S
C749 N752 1.384 . S
C750 H741 0.929 . S
C750 C742 1.378 . S
C750 C745 1.350 . S
C751 H738 0.929 . S
C751 C743 1.433 . S
C751 N753 1.384 . S
N752 C748 1.427 . S
N752 C749 1.384 . S
N753 C745 1.427 . S
N753 C751 1.384 . S
H754 C760 0.930 . S
H755 C764 0.930 . S
H756 C769 0.929 . S
H757 C767 0.929 . S
H758 C762 0.929 . S
H759 C768 0.929 . S
C760 H754 0.930 . S
C760 C761 1.367 . S
C760 C768 1.378 . S
C761 C760 1.367 . S
C761 C769 1.433 . S
C762 H758 0.929 . S
C762 C764 1.378 . S
C762 C766 1.350 . S
C763 C766 1.463 . S
C763 C768 1.350 . S
C763 N771 1.427 . S
C764 H755 0.930 . S
C764 C762 1.378 . S
C764 C765 1.367 . S
C765 C764 1.367 . S
C765 C767 1.433 . S
C766 C762 1.350 . S
C766 C763 1.463 . S
C766 N770 1.427 . S
C767 H757 0.929 . S
C767 C765 1.433 . S
C767 N770 1.384 . S
C768 H759 0.929 . S
C768 C760 1.378 . S
C768 C763 1.350 . S
C769 H756 0.929 . S
C769 C761 1.433 . S
C769 N771 1.384 . S
N770 C766 1.427 . S
N770 C767 1.384 . S
N771 C763 1.427 . S
N771 C769 1.384 . S
H772 C778 0.930 . S
H773 C782 0.930 . S
H774 C787 0.929 . S
H775 C785 0.929 . S
H776 C780 0.929 . S
H777 C786 0.929 . S
C778 H772 0.930 . S
C778 C779 1.367 . S
C778 C786 1.378 . S
C779 C778 1.367 . S
C779 C787 1.433 . S
C780 H776 0.929 . S
C780 C782 1.378 . S
C780 C784 1.350 . S
C781 C784 1.463 . S
C781 C786 1.350 . S
C781 N789 1.427 . S
C782 H773 0.930 . S
C782 C780 1.378 . S
C782 C783 1.367 . S
C783 C782 1.367 . S
C783 C785 1.433 . S
C784 C780 1.350 . S
C784 C781 1.463 . S
C784 N788 1.427 . S
C785 H775 0.929 . S
C785 C783 1.433 . S
C785 N788 1.384 . S
C786 H777 0.929 . S
C786 C778 1.378 . S
C786 C781 1.350 . S
C787 H774 0.929 . S
C787 C779 1.433 . S
C787 N789 1.384 . S
N788 C784 1.427 . S
N788 C785 1.384 . S
N789 C781 1.427 . S
N789 C787 1.384 . S
H790 C796 0.930 . S
H791 C800 0.930 . S
H792 C805 0.929 . S
H793 C803 0.929 . S
H794 C798 0.929 . S
H795 C804 0.929 . S
C796 H790 0.930 . S
C796 C797 1.367 . S
C796 C804 1.378 . S
C797 C796 1.367 . S
C797 C805 1.433 . S
C798 H794 0.929 . S
C798 C800 1.378 . S
C798 C802 1.353 . S
C799 C802 1.459 1_556 S
C799 C804 1.350 . S
C799 N807 1.427 . S
C800 H791 0.930 . S
C800 C798 1.378 . S
C800 C801 1.367 . S
C801 C800 1.367 . S
C801 C803 1.433 . S
C802 C798 1.353 . S
C802 C799 1.459 1_554 S
C802 N806 1.427 1_554 S
C803 H793 0.929 . S
C803 C801 1.433 . S
C803 N806 1.384 1_554 S
C804 H795 0.929 . S
C804 C796 1.378 . S
C804 C799 1.350 . S
C805 H792 0.929 . S
C805 C797 1.433 . S
C805 N807 1.384 . S
N806 C802 1.427 1_556 S
N806 C803 1.384 1_556 S
N807 C799 1.427 . S
N807 C805 1.384 . S
H808 C814 0.930 . S
H809 C818 0.930 . S
H810 C823 0.929 . S
H811 C821 0.929 . S
H812 C816 0.929 . S
H813 C822 0.929 . S
C814 H808 0.930 . S
C814 C815 1.367 . S
C814 C822 1.378 . S
C815 C814 1.367 . S
C815 C823 1.433 . S
C816 H812 0.929 . S
C816 C818 1.378 . S
C816 C820 1.350 . S
C817 C820 1.463 . S
C817 C822 1.350 . S
C817 N825 1.427 . S
C818 H809 0.930 . S
C818 C816 1.378 . S
C818 C819 1.367 . S
C819 C818 1.367 . S
C819 C821 1.433 . S
C820 C816 1.350 . S
C820 C817 1.463 . S
C820 N824 1.427 . S
C821 H811 0.929 . S
C821 C819 1.433 . S
C821 N824 1.384 . S
C822 H813 0.929 . S
C822 C814 1.378 . S
C822 C817 1.350 . S
C823 H810 0.929 . S
C823 C815 1.433 . S
C823 N825 1.384 . S
N824 C820 1.427 . S
N824 C821 1.384 . S
N825 C817 1.427 . S
N825 C823 1.384 . S
H826 C832 0.930 . S
H827 C836 0.930 . S
H828 C841 0.929 . S
H829 C839 0.929 . S
H830 C834 0.929 . S
H831 C840 0.929 . S
C832 H826 0.930 . S
C832 C833 1.367 . S
C832 C840 1.378 . S
C833 C832 1.367 . S
C833 C841 1.433 . S
C834 H830 0.929 . S
C834 C836 1.378 . S
C834 C838 1.325 1_565 S
C835 C838 1.486 . S
C835 C840 1.350 . S
C835 N843 1.427 . S
C836 H827 0.930 . S
C836 C834 1.378 . S
C836 C837 1.367 . S
C837 C836 1.367 . S
C837 C839 1.433 . S
C838 C834 1.325 1_545 S
C838 C835 1.486 . S
C838 N842 1.431 . S
C839 H829 0.929 . S
C839 C837 1.433 . S
C839 N842 1.384 1_565 S
C840 H831 0.929 . S
C840 C832 1.378 . S
C840 C835 1.350 . S
C841 H828 0.929 . S
C841 C833 1.433 . S
C841 N843 1.384 . S
N842 C838 1.431 . S
N842 C839 1.384 1_545 S
N843 C835 1.427 . S
N843 C841 1.384 . S
H844 C850 0.930 . S
H845 C854 0.930 . S
H846 C859 0.929 . S
H847 C857 0.929 . S
H848 C852 0.929 . S
H849 C858 0.929 . S
C850 H844 0.930 . S
C850 C851 1.367 . S
C850 C858 1.378 . S
C851 C850 1.367 . S
C851 C859 1.433 . S
C852 H848 0.929 . S
C852 C854 1.378 . S
C852 C856 1.350 . S
C853 C856 1.463 . S
C853 C858 1.350 . S
C853 N861 1.427 . S
C854 H845 0.930 . S
C854 C852 1.378 . S
C854 C855 1.367 . S
C855 C854 1.367 . S
C855 C857 1.433 . S
C856 C852 1.350 . S
C856 C853 1.463 . S
C856 N860 1.427 . S
C857 H847 0.929 . S
C857 C855 1.433 . S
C857 N860 1.384 . S
C858 H849 0.929 . S
C858 C850 1.378 . S
C858 C853 1.350 . S
C859 H846 0.929 . S
C859 C851 1.433 . S
C859 N861 1.384 . S
N860 C856 1.427 . S
N860 C857 1.384 . S
N861 C853 1.427 . S
N861 C859 1.384 . S
H862 C868 0.930 . S
H863 C872 0.930 . S
H864 C877 0.929 . S
H865 C875 0.929 . S
H866 C870 0.929 . S
H867 C876 0.947 . S
C868 H862 0.930 . S
C868 C869 1.367 . S
C868 C876 1.378 . S
C869 C868 1.367 . S
C869 C877 1.433 . S
C870 H866 0.929 . S
C870 C872 1.378 1_565 S
C870 C874 1.356 . S
C871 C874 1.489 . S
C871 C876 1.350 . S
C871 N879 1.427 . S
C872 H863 0.930 . S
C872 C870 1.378 1_545 S
C872 C873 1.367 . S
C873 C872 1.367 . S
C873 C875 1.433 . S
C874 C870 1.356 . S
C874 C871 1.489 . S
C874 N878 1.395 1_565 S
C875 H865 0.929 . S
C875 C873 1.433 . S
C875 N878 1.384 . S
C876 H867 0.947 . S
C876 C868 1.378 . S
C876 C871 1.350 . S
C877 H864 0.929 . S
C877 C869 1.433 . S
C877 N879 1.384 . S
N878 C874 1.395 1_545 S
N878 C875 1.384 . S
N879 C871 1.427 . S
N879 C877 1.384 . S
H880 C886 0.930 . S
H881 C890 0.930 . S
H882 C895 0.929 . S
H883 C893 0.929 . S
H884 C888 0.929 . S
H885 C894 0.929 . S
C886 H880 0.930 . S
C886 C887 1.367 . S
C886 C894 1.378 . S
C887 C886 1.367 . S
C887 C895 1.433 . S
C888 H884 0.929 . S
C888 C890 1.378 . S
C888 C892 1.350 . S
C889 C892 1.463 . S
C889 C894 1.350 . S
C889 N897 1.427 . S
C890 H881 0.930 . S
C890 C888 1.378 . S
C890 C891 1.367 . S
C891 C890 1.367 . S
C891 C893 1.433 . S
C892 C888 1.350 . S
C892 C889 1.463 . S
C892 N896 1.427 . S
C893 H883 0.929 . S
C893 C891 1.433 . S
C893 N896 1.384 . S
C894 H885 0.929 . S
C894 C886 1.378 . S
C894 C889 1.350 . S
C895 H882 0.929 . S
C895 C887 1.433 . S
C895 N897 1.384 . S
N896 C892 1.427 . S
N896 C893 1.384 . S
N897 C889 1.427 . S
N897 C895 1.384 . S
H898 C904 0.930 . S
H899 C908 0.930 . S
H900 C913 0.929 . S
H901 C911 0.929 . S
H902 C906 0.929 . S
H903 C912 0.929 . S
C904 H898 0.930 . S
C904 C905 1.367 . S
C904 C912 1.378 . S
C905 C904 1.367 . S
C905 C913 1.433 . S
C906 H902 0.929 . S
C906 C908 1.378 . S
C906 C910 1.350 1_565 S
C907 C910 1.463 . S
C907 C912 1.350 . S
C907 N915 1.427 . S
C908 H899 0.930 . S
C908 C906 1.378 . S
C908 C909 1.367 . S
C909 C908 1.367 . S
C909 C911 1.433 . S
C910 C906 1.350 1_545 S
C910 C907 1.463 . S
C910 N914 1.428 . S
C911 H901 0.929 . S
C911 C909 1.433 . S
C911 N914 1.351 1_565 S
C912 H903 0.929 . S
C912 C904 1.378 . S
C912 C907 1.350 . S
C913 H900 0.929 . S
C913 C905 1.433 . S
C913 N915 1.384 . S
N914 C910 1.428 . S
N914 C911 1.351 1_545 S
N915 C907 1.427 . S
N915 C913 1.384 . S
H916 C922 0.941 . S
H917 C926 0.930 . S
H918 C931 0.929 . S
H919 C929 0.929 . S
H920 C924 0.929 . S
H921 C930 0.929 . S
C922 H916 0.941 . S
C922 C923 1.367 . S
C922 C930 1.378 . S
C923 C922 1.367 . S
C923 C931 1.433 . S
C924 H920 0.929 . S
C924 C926 1.378 . S
C924 C928 1.350 . S
C925 C928 1.463 . S
C925 C930 1.350 . S
C925 N933 1.427 . S
C926 H917 0.930 . S
C926 C924 1.378 . S
C926 C927 1.367 . S
C927 C926 1.367 . S
C927 C929 1.433 . S
C928 C924 1.350 . S
C928 C925 1.463 . S
C928 N932 1.427 . S
C929 H919 0.929 . S
C929 C927 1.433 . S
C929 N932 1.384 . S
C930 H921 0.929 . S
C930 C922 1.378 . S
C930 C925 1.350 . S
C931 H918 0.929 . S
C931 C923 1.433 . S
C931 N933 1.384 . S
N932 C928 1.427 . S
N932 C929 1.384 . S
N933 C925 1.427 . S
N933 C931 1.384 . S
H934 C940 0.930 . S
H935 C944 0.930 . S
H936 C949 0.929 . S
H937 C947 0.929 . S
H938 C942 0.918 1_565 S
H939 C948 0.929 . S
C940 H934 0.930 . S
C940 C941 1.367 . S
C940 C948 1.378 . S
C941 C940 1.367 . S
C941 C949 1.433 . S
C942 H938 0.918 1_545 S
C942 C944 1.389 . S
C942 C946 1.349 1_545 S
C943 C946 1.482 . S
C943 C948 1.350 . S
C943 N951 1.427 . S
C944 H935 0.930 . S
C944 C942 1.389 . S
C944 C945 1.367 . S
C945 C944 1.367 . S
C945 C947 1.433 . S
C946 C942 1.349 1_565 S
C946 C943 1.482 . S
C946 N950 1.409 1_565 S
C947 H937 0.929 . S
C947 C945 1.433 . S
C947 N950 1.384 . S
C948 H939 0.929 . S
C948 C940 1.378 . S
C948 C943 1.350 . S
C949 H936 0.929 . S
C949 C941 1.433 . S
C949 N951 1.384 . S
N950 C946 1.409 1_545 S
N950 C947 1.384 . S
N951 C943 1.427 . S
N951 C949 1.384 . S
H952 C958 0.930 . S
H953 C962 0.930 . S
H954 C967 0.929 . S
H955 C965 0.929 . S
H956 C960 0.929 . S
H957 C966 0.929 . S
C958 H952 0.930 . S
C958 C959 1.367 . S
C958 C966 1.378 . S
C959 C958 1.367 . S
C959 C967 1.433 . S
C960 H956 0.929 . S
C960 C962 1.378 . S
C960 C964 1.350 . S
C961 C964 1.463 . S
C961 C966 1.350 . S
C961 N969 1.427 . S
C962 H953 0.930 . S
C962 C960 1.378 . S
C962 C963 1.367 . S
C963 C962 1.367 . S
C963 C965 1.433 . S
C964 C960 1.350 . S
C964 C961 1.463 . S
C964 N968 1.427 . S
C965 H955 0.929 . S
C965 C963 1.433 . S
C965 N968 1.384 . S
C966 H957 0.929 . S
C966 C958 1.378 . S
C966 C961 1.350 . S
C967 H954 0.929 . S
C967 C959 1.433 . S
C967 N969 1.384 . S
N968 C964 1.427 . S
N968 C965 1.384 . S
N969 C961 1.427 . S
N969 C967 1.384 . S
H970 C976 0.918 1_554 S
H971 C980 0.930 . S
H972 C985 0.929 . S
H973 C983 0.929 . S
H974 C978 0.929 . S
H975 C984 0.929 . S
C976 H970 0.918 1_556 S
C976 C977 1.367 . S
C976 C984 1.378 . S
C977 C976 1.367 . S
C977 C985 1.433 . S
C978 H974 0.929 . S
C978 C980 1.378 . S
C978 C982 1.350 . S
C979 C982 1.463 . S
C979 C984 1.350 . S
C979 N987 1.427 . S
C980 H971 0.930 . S
C980 C978 1.378 . S
C980 C981 1.367 . S
C981 C980 1.367 . S
C981 C983 1.433 . S
C982 C978 1.350 . S
C982 C979 1.463 . S
C982 N986 1.427 . S
C983 H973 0.929 . S
C983 C981 1.433 . S
C983 N986 1.384 . S
C984 H975 0.929 . S
C984 C976 1.378 . S
C984 C979 1.350 . S
C985 H972 0.929 . S
C985 C977 1.433 . S
C985 N987 1.384 . S
N986 C982 1.427 . S
N986 C983 1.384 . S
N987 C979 1.427 . S
N987 C985 1.384 . S
H988 C994 0.930 . S
H989 C998 0.930 . S
H990 C1003 0.929 . S
H991 C1001 0.929 . S
H992 C996 0.929 1_455 S
H993 C1002 0.929 . S
C994 H988 0.930 . S
C994 C995 1.367 . S
C994 C1002 1.378 . S
C995 C994 1.367 . S
C995 C1003 1.433 . S
C996 H992 0.929 1_655 S
C996 C998 1.378 . S
C996 C1000 1.350 1_655 S
C997 C1000 1.463 . S
C997 C1002 1.350 . S
C997 N1005 1.427 . S
C998 H989 0.930 . S
C998 C996 1.378 . S
C998 C999 1.367 . S
C999 C998 1.367 . S
C999 C1001 1.433 . S
C1000 C996 1.350 1_455 S
C1000 C997 1.463 . S
C1000 N1004 1.427 1_455 S
C1001 H991 0.929 . S
C1001 C999 1.433 . S
C1001 N1004 1.384 . S
C1002 H993 0.929 . S
C1002 C994 1.378 . S
C1002 C997 1.350 . S
C1003 H990 0.929 . S
C1003 C995 1.433 . S
C1003 N1005 1.384 . S
N1004 C1000 1.427 1_655 S
N1004 C1001 1.384 . S
N1005 C997 1.427 . S
N1005 C1003 1.384 . S
H1006 C1012 0.930 . S
H1007 C1016 0.930 . S
H1008 C1021 0.929 . S
H1009 C1019 0.929 . S
H1010 C1014 0.929 . S
H1011 C1020 0.929 . S
C1012 H1006 0.930 . S
C1012 C1013 1.367 . S
C1012 C1020 1.378 . S
C1013 C1012 1.367 . S
C1013 C1021 1.433 . S
C1014 H1010 0.929 . S
C1014 C1016 1.378 . S
C1014 C1018 1.350 . S
C1015 C1018 1.463 . S
C1015 C1020 1.350 . S
C1015 N1023 1.427 . S
C1016 H1007 0.930 . S
C1016 C1014 1.378 . S
C1016 C1017 1.367 . S
C1017 C1016 1.367 . S
C1017 C1019 1.433 . S
C1018 C1014 1.350 . S
C1018 C1015 1.463 . S
C1018 N1022 1.427 . S
C1019 H1009 0.929 . S
C1019 C1017 1.433 . S
C1019 N1022 1.384 . S
C1020 H1011 0.929 . S
C1020 C1012 1.378 . S
C1020 C1015 1.350 . S
C1021 H1008 0.929 . S
C1021 C1013 1.433 . S
C1021 N1023 1.384 . S
N1022 C1018 1.427 . S
N1022 C1019 1.384 . S
N1023 C1015 1.427 . S
N1023 C1021 1.384 . S
H1024 C1030 0.930 . S
H1025 C1034 0.930 . S
H1026 C1039 0.929 . S
H1027 C1037 0.929 . S
H1028 C1032 0.929 . S
H1029 C1038 0.929 . S
C1030 H1024 0.930 . S
C1030 C1031 1.367 . S
C1030 C1038 1.378 . S
C1031 C1030 1.367 . S
C1031 C1039 1.433 . S
C1032 H1028 0.929 . S
C1032 C1034 1.378 1_655 S
C1032 C1036 1.351 . S
C1033 C1036 1.484 . S
C1033 C1038 1.350 . S
C1033 N1041 1.427 . S
C1034 H1025 0.930 . S
C1034 C1032 1.378 1_455 S
C1034 C1035 1.367 . S
C1035 C1034 1.367 . S
C1035 C1037 1.433 . S
C1036 C1032 1.351 . S
C1036 C1033 1.484 . S
C1036 N1040 1.406 1_655 S
C1037 H1027 0.929 . S
C1037 C1035 1.433 . S
C1037 N1040 1.384 . S
C1038 H1029 0.929 . S
C1038 C1030 1.378 . S
C1038 C1033 1.350 . S
C1039 H1026 0.929 . S
C1039 C1031 1.433 . S
C1039 N1041 1.384 . S
N1040 C1036 1.406 1_455 S
N1040 C1037 1.384 . S
N1041 C1033 1.427 . S
N1041 C1039 1.384 . S
H1042 C1048 0.930 . S
H1043 C1052 0.930 . S
H1044 C1057 0.929 . S
H1045 C1055 0.929 . S
H1046 C1050 0.929 . S
H1047 C1056 0.929 . S
C1048 H1042 0.930 . S
C1048 C1049 1.367 . S
C1048 C1056 1.378 . S
C1049 C1048 1.367 . S
C1049 C1057 1.433 . S
C1050 H1046 0.929 . S
C1050 C1052 1.378 . S
C1050 C1054 1.350 . S
C1051 C1054 1.463 . S
C1051 C1056 1.350 . S
C1051 N1059 1.427 . S
C1052 H1043 0.930 . S
C1052 C1050 1.378 . S
C1052 C1053 1.367 . S
C1053 C1052 1.367 . S
C1053 C1055 1.433 . S
C1054 C1050 1.350 . S
C1054 C1051 1.463 . S
C1054 N1058 1.427 . S
C1055 H1045 0.929 . S
C1055 C1053 1.433 . S
C1055 N1058 1.384 . S
C1056 H1047 0.929 . S
C1056 C1048 1.378 . S
C1056 C1051 1.350 . S
C1057 H1044 0.929 . S
C1057 C1049 1.433 . S
C1057 N1059 1.384 . S
N1058 C1054 1.427 . S
N1058 C1055 1.384 . S
N1059 C1051 1.427 . S
N1059 C1057 1.384 . S
H1060 C1066 0.930 . S
H1061 C1070 0.930 . S
H1062 C1075 0.929 . S
H1063 C1073 0.929 . S
H1064 C1068 0.929 . S
H1065 C1074 0.929 . S
C1066 H1060 0.930 . S
C1066 C1067 1.367 . S
C1066 C1074 1.378 . S
C1067 C1066 1.367 . S
C1067 C1075 1.433 . S
C1068 H1064 0.929 . S
C1068 C1070 1.378 1_455 S
C1068 C1072 1.350 . S
C1069 C1072 1.463 . S
C1069 C1074 1.350 . S
C1069 N1077 1.427 . S
C1070 H1061 0.930 . S
C1070 C1068 1.378 1_655 S
C1070 C1071 1.367 . S
C1071 C1070 1.367 . S
C1071 C1073 1.433 . S
C1072 C1068 1.350 . S
C1072 C1069 1.463 . S
C1072 N1076 1.427 1_455 S
C1073 H1063 0.929 . S
C1073 C1071 1.433 . S
C1073 N1076 1.384 . S
C1074 H1065 0.929 . S
C1074 C1066 1.378 . S
C1074 C1069 1.350 . S
C1075 H1062 0.929 . S
C1075 C1067 1.433 . S
C1075 N1077 1.384 . S
N1076 C1072 1.427 1_655 S
N1076 C1073 1.384 . S
N1077 C1069 1.427 . S
N1077 C1075 1.384 . S
H1078 C1084 0.930 . S
H1079 C1088 0.930 . S
H1080 C1093 0.929 . S
H1081 C1091 0.929 . S
H1082 C1086 0.929 . S
H1083 C1092 0.929 . S
C1084 H1078 0.930 . S
C1084 C1085 1.367 . S
C1084 C1092 1.378 . S
C1085 C1084 1.367 . S
C1085 C1093 1.433 . S
C1086 H1082 0.929 . S
C1086 C1088 1.378 . S
C1086 C1090 1.350 . S
C1087 C1090 1.463 . S
C1087 C1092 1.350 . S
C1087 N1095 1.427 . S
C1088 H1079 0.930 . S
C1088 C1086 1.378 . S
C1088 C1089 1.367 . S
C1089 C1088 1.367 . S
C1089 C1091 1.433 . S
C1090 C1086 1.350 . S
C1090 C1087 1.463 . S
C1090 N1094 1.427 . S
C1091 H1081 0.929 . S
C1091 C1089 1.433 . S
C1091 N1094 1.384 . S
C1092 H1083 0.929 . S
C1092 C1084 1.378 . S
C1092 C1087 1.350 . S
C1093 H1080 0.929 . S
C1093 C1085 1.433 . S
C1093 N1095 1.384 . S
N1094 C1090 1.427 . S
N1094 C1091 1.384 . S
N1095 C1087 1.427 . S
N1095 C1093 1.384 . S
H1096 C1102 0.930 . S
H1097 C1106 0.930 . S
H1098 C1111 0.929 . S
H1099 C1109 0.929 . S
H1100 C1104 0.929 . S
H1101 C1110 0.929 . S
C1102 H1096 0.930 . S
C1102 C1103 1.367 . S
C1102 C1110 1.378 . S
C1103 C1102 1.367 . S
C1103 C1111 1.433 . S
C1104 H1100 0.929 . S
C1104 C1106 1.378 . S
C1104 C1108 1.350 . S
C1105 C1108 1.463 . S
C1105 C1110 1.350 . S
C1105 N1113 1.427 . S
C1106 H1097 0.930 . S
C1106 C1104 1.378 . S
C1106 C1107 1.367 . S
C1107 C1106 1.367 . S
C1107 C1109 1.433 . S
C1108 C1104 1.350 . S
C1108 C1105 1.463 . S
C1108 N1112 1.427 . S
C1109 H1099 0.929 . S
C1109 C1107 1.433 . S
C1109 N1112 1.384 . S
C1110 H1101 0.929 . S
C1110 C1102 1.378 . S
C1110 C1105 1.350 . S
C1111 H1098 0.929 . S
C1111 C1103 1.433 . S
C1111 N1113 1.384 . S
N1112 C1108 1.427 . S
N1112 C1109 1.384 . S
N1113 C1105 1.427 . S
N1113 C1111 1.384 . S
H1114 C1120 0.930 1_455 S
H1115 C1124 0.930 . S
H1116 C1129 0.929 . S
H1117 C1127 0.929 . S
H1118 C1122 0.929 . S
H1119 C1128 0.929 . S
C1120 H1114 0.930 1_655 S
C1120 C1121 1.367 . S
C1120 C1128 1.378 . S
C1121 C1120 1.367 . S
C1121 C1129 1.433 . S
C1122 H1118 0.929 . S
C1122 C1124 1.378 . S
C1122 C1126 1.350 . S
C1123 C1126 1.463 . S
C1123 C1128 1.350 . S
C1123 N1131 1.427 . S
C1124 H1115 0.930 . S
C1124 C1122 1.378 . S
C1124 C1125 1.367 . S
C1125 C1124 1.367 . S
C1125 C1127 1.433 . S
C1126 C1122 1.350 . S
C1126 C1123 1.463 . S
C1126 N1130 1.427 . S
C1127 H1117 0.929 . S
C1127 C1125 1.433 . S
C1127 N1130 1.384 . S
C1128 H1119 0.929 . S
C1128 C1120 1.378 . S
C1128 C1123 1.350 . S
C1129 H1116 0.929 . S
C1129 C1121 1.433 . S
C1129 N1131 1.384 . S
N1130 C1126 1.427 . S
N1130 C1127 1.384 . S
N1131 C1123 1.427 . S
N1131 C1129 1.384 . S
H1132 C1138 0.930 . S
H1133 C1142 0.930 . S
H1134 C1147 0.929 . S
H1135 C1145 0.929 . S
H1136 C1140 0.929 . S
H1137 C1146 0.929 . S
C1138 H1132 0.930 . S
C1138 C1139 1.367 . S
C1138 C1146 1.378 . S
C1139 C1138 1.367 . S
C1139 C1147 1.433 . S
C1140 H1136 0.929 . S
C1140 C1142 1.378 . S
C1140 C1144 1.350 . S
C1141 C1144 1.463 . S
C1141 C1146 1.350 . S
C1141 N1149 1.427 . S
C1142 H1133 0.930 . S
C1142 C1140 1.378 . S
C1142 C1143 1.367 . S
C1143 C1142 1.367 . S
C1143 C1145 1.433 . S
C1144 C1140 1.350 . S
C1144 C1141 1.463 . S
C1144 N1148 1.427 . S
C1145 H1135 0.929 . S
C1145 C1143 1.433 . S
C1145 N1148 1.384 . S
C1146 H1137 0.929 . S
C1146 C1138 1.378 . S
C1146 C1141 1.350 . S
C1147 H1134 0.929 . S
C1147 C1139 1.433 . S
C1147 N1149 1.384 . S
N1148 C1144 1.427 . S
N1148 C1145 1.384 . S
N1149 C1141 1.427 . S
N1149 C1147 1.384 . S
H1150 C1156 0.930 . S
H1151 C1160 0.930 . S
H1152 C1165 0.929 . S
H1153 C1163 0.929 . S
H1154 C1158 0.929 1_556 S
H1155 C1164 0.929 . S
C1156 H1150 0.930 . S
C1156 C1157 1.367 . S
C1156 C1164 1.378 . S
C1157 C1156 1.367 . S
C1157 C1165 1.433 . S
C1158 H1154 0.929 1_554 S
C1158 C1160 1.378 . S
C1158 C1162 1.350 1_554 S
C1159 C1162 1.462 . S
C1159 C1164 1.350 . S
C1159 N1167 1.427 . S
C1160 H1151 0.930 . S
C1160 C1158 1.378 . S
C1160 C1161 1.367 . S
C1161 C1160 1.367 . S
C1161 C1163 1.433 . S
C1162 C1158 1.350 1_556 S
C1162 C1159 1.462 . S
C1162 N1166 1.428 1_556 S
C1163 H1153 0.929 . S
C1163 C1161 1.433 . S
C1163 N1166 1.384 . S
C1164 H1155 0.929 . S
C1164 C1156 1.378 . S
C1164 C1159 1.350 . S
C1165 H1152 0.929 . S
C1165 C1157 1.433 . S
C1165 N1167 1.384 . S
N1166 C1162 1.428 1_554 S
N1166 C1163 1.384 . S
N1167 C1159 1.427 . S
N1167 C1165 1.384 . S
H1168 C1174 0.930 . S
H1169 C1178 0.930 . S
H1170 C1183 0.929 . S
H1171 C1181 0.929 . S
H1172 C1176 0.929 . S
H1173 C1182 0.929 . S
C1174 H1168 0.930 . S
C1174 C1175 1.367 . S
C1174 C1182 1.378 . S
C1175 C1174 1.367 . S
C1175 C1183 1.433 . S
C1176 H1172 0.929 . S
C1176 C1178 1.378 . S
C1176 C1180 1.350 . S
C1177 C1180 1.463 . S
C1177 C1182 1.350 . S
C1177 N1185 1.427 . S
C1178 H1169 0.930 . S
C1178 C1176 1.378 . S
C1178 C1179 1.367 . S
C1179 C1178 1.367 . S
C1179 C1181 1.433 . S
C1180 C1176 1.350 . S
C1180 C1177 1.463 . S
C1180 N1184 1.427 . S
C1181 H1171 0.929 . S
C1181 C1179 1.433 . S
C1181 N1184 1.384 . S
C1182 H1173 0.929 . S
C1182 C1174 1.378 . S
C1182 C1177 1.350 . S
C1183 H1170 0.929 . S
C1183 C1175 1.433 . S
C1183 N1185 1.384 . S
N1184 C1180 1.427 . S
N1184 C1181 1.384 . S
N1185 C1177 1.427 . S
N1185 C1183 1.384 . S
H1186 C1192 0.930 . S
H1187 C1196 0.930 . S
H1188 C1201 0.929 . S
H1189 C1199 0.929 . S
H1190 C1194 0.929 . S
H1191 C1200 0.929 . S
C1192 H1186 0.930 . S
C1192 C1193 1.367 . S
C1192 C1200 1.378 . S
C1193 C1192 1.367 . S
C1193 C1201 1.433 . S
C1194 H1190 0.929 . S
C1194 C1196 1.378 . S
C1194 C1198 1.350 . S
C1195 C1198 1.463 . S
C1195 C1200 1.350 . S
C1195 N1203 1.427 . S
C1196 H1187 0.930 . S
C1196 C1194 1.378 . S
C1196 C1197 1.367 . S
C1197 C1196 1.367 . S
C1197 C1199 1.433 . S
C1198 C1194 1.350 . S
C1198 C1195 1.463 . S
C1198 N1202 1.427 . S
C1199 H1189 0.929 . S
C1199 C1197 1.433 . S
C1199 N1202 1.384 . S
C1200 H1191 0.929 . S
C1200 C1192 1.378 . S
C1200 C1195 1.350 . S
C1201 H1188 0.929 . S
C1201 C1193 1.433 . S
C1201 N1203 1.384 . S
N1202 C1198 1.427 . S
N1202 C1199 1.384 . S
N1203 C1195 1.427 . S
N1203 C1201 1.384 . S
H1204 C1210 0.930 . S
H1205 C1214 0.930 . S
H1206 C1219 0.929 . S
H1207 C1217 0.929 . S
H1208 C1212 0.929 . S
H1209 C1218 0.929 . S
C1210 H1204 0.930 . S
C1210 C1211 1.367 . S
C1210 C1218 1.378 . S
C1211 C1210 1.367 . S
C1211 C1219 1.433 . S
C1212 H1208 0.929 . S
C1212 C1214 1.378 . S
C1212 C1216 1.350 . S
C1213 C1216 1.463 . S
C1213 C1218 1.350 . S
C1213 N1221 1.427 . S
C1214 H1205 0.930 . S
C1214 C1212 1.378 . S
C1214 C1215 1.367 . S
C1215 C1214 1.367 . S
C1215 C1217 1.433 . S
C1216 C1212 1.350 . S
C1216 C1213 1.463 . S
C1216 N1220 1.427 . S
C1217 H1207 0.929 . S
C1217 C1215 1.433 . S
C1217 N1220 1.384 . S
C1218 H1209 0.929 . S
C1218 C1210 1.378 . S
C1218 C1213 1.350 . S
C1219 H1206 0.929 . S
C1219 C1211 1.433 . S
C1219 N1221 1.384 . S
N1220 C1216 1.427 . S
N1220 C1217 1.384 . S
N1221 C1213 1.427 . S
N1221 C1219 1.384 . S
H1222 C1228 0.930 . S
H1223 C1232 0.930 . S
H1224 C1237 0.929 . S
H1225 C1235 0.929 . S
H1226 C1230 0.929 1_554 S
H1227 C1236 0.929 . S
C1228 H1222 0.930 . S
C1228 C1229 1.367 . S
C1228 C1236 1.378 . S
C1229 C1228 1.367 . S
C1229 C1237 1.433 . S
C1230 H1226 0.929 1_556 S
C1230 C1232 1.378 . S
C1230 C1234 1.350 1_556 S
C1231 C1234 1.463 . S
C1231 C1236 1.350 . S
C1231 N1239 1.427 . S
C1232 H1223 0.930 . S
C1232 C1230 1.378 . S
C1232 C1233 1.367 . S
C1233 C1232 1.367 . S
C1233 C1235 1.433 . S
C1234 C1230 1.350 1_554 S
C1234 C1231 1.463 . S
C1234 N1238 1.427 1_554 S
C1235 H1225 0.929 . S
C1235 C1233 1.433 . S
C1235 N1238 1.384 . S
C1236 H1227 0.929 . S
C1236 C1228 1.378 . S
C1236 C1231 1.350 . S
C1237 H1224 0.929 . S
C1237 C1229 1.433 . S
C1237 N1239 1.384 . S
N1238 C1234 1.427 1_556 S
N1238 C1235 1.384 . S
N1239 C1231 1.427 . S
N1239 C1237 1.384 . S
H1240 C1246 0.930 . S
H1241 C1250 0.930 . S
H1242 C1255 0.929 . S
H1243 C1253 0.929 . S
H1244 C1248 0.929 . S
H1245 C1254 0.929 . S
C1246 H1240 0.930 . S
C1246 C1247 1.367 . S
C1246 C1254 1.378 . S
C1247 C1246 1.367 . S
C1247 C1255 1.433 . S
C1248 H1244 0.929 . S
C1248 C1250 1.378 . S
C1248 C1252 1.350 . S
C1249 C1252 1.463 . S
C1249 C1254 1.350 . S
C1249 N1257 1.427 . S
C1250 H1241 0.930 . S
C1250 C1248 1.378 . S
C1250 C1251 1.367 . S
C1251 C1250 1.367 . S
C1251 C1253 1.433 . S
C1252 C1248 1.350 . S
C1252 C1249 1.463 . S
C1252 N1256 1.427 . S
C1253 H1243 0.929 . S
C1253 C1251 1.433 . S
C1253 N1256 1.384 . S
C1254 H1245 0.929 . S
C1254 C1246 1.378 . S
C1254 C1249 1.350 . S
C1255 H1242 0.929 . S
C1255 C1247 1.433 . S
C1255 N1257 1.384 . S
N1256 C1252 1.427 . S
N1256 C1253 1.384 . S
N1257 C1249 1.427 . S
N1257 C1255 1.384 . S
H1258 C1264 0.930 . S
H1259 C1268 0.930 . S
H1260 C1273 0.929 . S
H1261 C1271 0.929 . S
H1262 C1266 0.929 . S
H1263 C1272 0.929 . S
C1264 H1258 0.930 . S
C1264 C1265 1.367 . S
C1264 C1272 1.378 . S
C1265 C1264 1.367 . S
C1265 C1273 1.433 . S
C1266 H1262 0.929 . S
C1266 C1268 1.378 . S
C1266 C1270 1.369 . S
C1267 C1270 1.446 1_565 S
C1267 C1272 1.350 . S
C1267 N1275 1.427 . S
C1268 H1259 0.930 . S
C1268 C1266 1.378 . S
C1268 C1269 1.367 . S
C1269 C1268 1.367 . S
C1269 C1271 1.433 . S
C1270 C1266 1.369 . S
C1270 C1267 1.446 1_545 S
C1270 N1274 1.424 1_545 S
C1271 H1261 0.929 . S
C1271 C1269 1.433 . S
C1271 N1274 1.384 1_545 S
C1272 H1263 0.929 . S
C1272 C1264 1.378 . S
C1272 C1267 1.350 . S
C1273 H1260 0.929 . S
C1273 C1265 1.433 . S
C1273 N1275 1.384 . S
N1274 C1270 1.424 1_565 S
N1274 C1271 1.384 1_565 S
N1275 C1267 1.427 . S
N1275 C1273 1.384 . S
H1276 C1282 0.930 . S
H1277 C1286 0.930 . S
H1278 C1291 0.929 . S
H1279 C1289 0.929 . S
H1280 C1284 0.929 . S
H1281 C1290 0.929 . S
C1282 H1276 0.930 . S
C1282 C1283 1.367 . S
C1282 C1290 1.378 . S
C1283 C1282 1.367 . S
C1283 C1291 1.433 . S
C1284 H1280 0.929 . S
C1284 C1286 1.378 . S
C1284 C1288 1.350 . S
C1285 C1288 1.463 . S
C1285 C1290 1.350 . S
C1285 N1293 1.427 . S
C1286 H1277 0.930 . S
C1286 C1284 1.378 . S
C1286 C1287 1.367 . S
C1287 C1286 1.367 . S
C1287 C1289 1.433 . S
C1288 C1284 1.350 . S
C1288 C1285 1.463 . S
C1288 N1292 1.427 . S
C1289 H1279 0.929 . S
C1289 C1287 1.433 . S
C1289 N1292 1.384 . S
C1290 H1281 0.929 . S
C1290 C1282 1.378 . S
C1290 C1285 1.350 . S
C1291 H1278 0.929 . S
C1291 C1283 1.433 . S
C1291 N1293 1.384 . S
N1292 C1288 1.427 . S
N1292 C1289 1.384 . S
N1293 C1285 1.427 . S
N1293 C1291 1.384 . S
H1294 C1300 0.930 . S
H1295 C1304 0.930 . S
H1296 C1309 0.929 . S
H1297 C1307 0.929 . S
H1298 C1302 0.942 . S
H1299 C1308 0.929 . S
C1300 H1294 0.930 . S
C1300 C1301 1.367 . S
C1300 C1308 1.378 . S
C1301 C1300 1.367 . S
C1301 C1309 1.433 . S
C1302 H1298 0.942 . S
C1302 C1304 1.378 . S
C1302 C1306 1.350 1_565 S
C1303 C1306 1.463 . S
C1303 C1308 1.350 . S
C1303 N1311 1.427 . S
C1304 H1295 0.930 . S
C1304 C1302 1.378 . S
C1304 C1305 1.367 . S
C1305 C1304 1.367 . S
C1305 C1307 1.433 . S
C1306 C1302 1.350 1_545 S
C1306 C1303 1.463 . S
C1306 N1310 1.427 1_545 S
C1307 H1297 0.929 . S
C1307 C1305 1.433 . S
C1307 N1310 1.384 . S
C1308 H1299 0.929 . S
C1308 C1300 1.378 . S
C1308 C1303 1.350 . S
C1309 H1296 0.929 . S
C1309 C1301 1.433 . S
C1309 N1311 1.384 . S
N1310 C1306 1.427 1_565 S
N1310 C1307 1.384 . S
N1311 C1303 1.427 . S
N1311 C1309 1.384 . S
H1312 C1318 0.930 . S
H1313 C1322 0.930 . S
H1314 C1327 0.929 . S
H1315 C1325 0.929 . S
H1316 C1320 0.929 . S
H1317 C1326 0.929 . S
C1318 H1312 0.930 . S
C1318 C1319 1.367 . S
C1318 C1326 1.378 . S
C1319 C1318 1.367 . S
C1319 C1327 1.433 . S
C1320 H1316 0.929 . S
C1320 C1322 1.378 . S
C1320 C1324 1.350 . S
C1321 C1324 1.463 . S
C1321 C1326 1.350 . S
C1321 N1329 1.427 . S
C1322 H1313 0.930 . S
C1322 C1320 1.378 . S
C1322 C1323 1.367 . S
C1323 C1322 1.367 . S
C1323 C1325 1.433 . S
C1324 C1320 1.350 . S
C1324 C1321 1.463 . S
C1324 N1328 1.427 . S
C1325 H1315 0.929 . S
C1325 C1323 1.433 . S
C1325 N1328 1.384 . S
C1326 H1317 0.929 . S
C1326 C1318 1.378 . S
C1326 C1321 1.350 . S
C1327 H1314 0.929 . S
C1327 C1319 1.433 . S
C1327 N1329 1.384 . S
N1328 C1324 1.427 . S
N1328 C1325 1.384 . S
N1329 C1321 1.427 . S
N1329 C1327 1.384 . S
H1330 C1336 0.930 . S
H1331 C1340 0.930 . S
H1332 C1345 0.929 . S
H1333 C1343 0.929 . S
H1334 C1338 0.929 . S
H1335 C1344 0.929 . S
C1336 H1330 0.930 . S
C1336 C1337 1.367 . S
C1336 C1344 1.378 . S
C1337 C1336 1.367 . S
C1337 C1345 1.433 . S
C1338 H1334 0.929 . S
C1338 C1340 1.378 . S
C1338 C1342 1.348 1_545 S
C1339 C1342 1.465 . S
C1339 C1344 1.350 . S
C1339 N1347 1.427 . S
C1340 H1331 0.930 . S
C1340 C1338 1.378 . S
C1340 C1341 1.367 . S
C1341 C1340 1.367 . S
C1341 C1343 1.433 . S
C1342 C1338 1.348 1_565 S
C1342 C1339 1.465 . S
C1342 N1346 1.427 1_565 S
C1343 H1333 0.929 . S
C1343 C1341 1.433 . S
C1343 N1346 1.384 . S
C1344 H1335 0.929 . S
C1344 C1336 1.378 . S
C1344 C1339 1.350 . S
C1345 H1332 0.929 . S
C1345 C1337 1.433 . S
C1345 N1347 1.384 . S
N1346 C1342 1.427 1_545 S
N1346 C1343 1.384 . S
N1347 C1339 1.427 . S
N1347 C1345 1.384 . S
H1348 C1354 0.930 . S
H1349 C1358 0.930 . S
H1350 C1363 0.929 . S
H1351 C1361 0.929 . S
H1352 C1356 0.929 . S
H1353 C1362 0.929 . S
C1354 H1348 0.930 . S
C1354 C1355 1.367 . S
C1354 C1362 1.378 . S
C1355 C1354 1.367 . S
C1355 C1363 1.433 . S
C1356 H1352 0.929 . S
C1356 C1358 1.378 . S
C1356 C1360 1.350 . S
C1357 C1360 1.463 . S
C1357 C1362 1.350 . S
C1357 N1365 1.427 . S
C1358 H1349 0.930 . S
C1358 C1356 1.378 . S
C1358 C1359 1.367 . S
C1359 C1358 1.367 . S
C1359 C1361 1.433 . S
C1360 C1356 1.350 . S
C1360 C1357 1.463 . S
C1360 N1364 1.427 . S
C1361 H1351 0.929 . S
C1361 C1359 1.433 . S
C1361 N1364 1.384 . S
C1362 H1353 0.929 . S
C1362 C1354 1.378 . S
C1362 C1357 1.350 . S
C1363 H1350 0.929 . S
C1363 C1355 1.433 . S
C1363 N1365 1.384 . S
N1364 C1360 1.427 . S
N1364 C1361 1.384 . S
N1365 C1357 1.427 . S
N1365 C1363 1.384 . S
H1366 C1372 0.930 1_554 S
H1367 C1376 0.930 . S
H1368 C1381 0.929 . S
H1369 C1379 0.929 . S
H1370 C1374 0.929 . S
H1371 C1380 0.929 . S
C1372 H1366 0.930 1_556 S
C1372 C1373 1.367 . S
C1372 C1380 1.378 . S
C1373 C1372 1.367 . S
C1373 C1381 1.433 . S
C1374 H1370 0.929 . S
C1374 C1376 1.378 1_545 S
C1374 C1378 1.350 . S
C1375 C1378 1.463 . S
C1375 C1380 1.350 . S
C1375 N1383 1.427 . S
C1376 H1367 0.930 . S
C1376 C1374 1.378 1_565 S
C1376 C1377 1.367 . S
C1377 C1376 1.367 . S
C1377 C1379 1.433 . S
C1378 C1374 1.350 . S
C1378 C1375 1.463 . S
C1378 N1382 1.427 1_545 S
C1379 H1369 0.929 . S
C1379 C1377 1.433 . S
C1379 N1382 1.384 . S
C1380 H1371 0.929 . S
C1380 C1372 1.378 . S
C1380 C1375 1.350 . S
C1381 H1368 0.929 . S
C1381 C1373 1.433 . S
C1381 N1383 1.384 . S
N1382 C1378 1.427 1_565 S
N1382 C1379 1.384 . S
N1383 C1375 1.427 . S
N1383 C1381 1.384 . S
H1384 C1390 0.930 . S
H1385 C1394 0.930 . S
H1386 C1399 0.929 . S
H1387 C1397 0.929 . S
H1388 C1392 0.929 . S
H1389 C1398 0.929 . S
C1390 H1384 0.930 . S
C1390 C1391 1.367 . S
C1390 C1398 1.378 . S
C1391 C1390 1.367 . S
C1391 C1399 1.433 . S
C1392 H1388 0.929 . S
C1392 C1394 1.378 . S
C1392 C1396 1.350 . S
C1393 C1396 1.463 . S
C1393 C1398 1.350 . S
C1393 N1401 1.427 . S
C1394 H1385 0.930 . S
C1394 C1392 1.378 . S
C1394 C1395 1.367 . S
C1395 C1394 1.367 . S
C1395 C1397 1.433 . S
C1396 C1392 1.350 . S
C1396 C1393 1.463 . S
C1396 N1400 1.427 . S
C1397 H1387 0.929 . S
C1397 C1395 1.433 . S
C1397 N1400 1.384 . S
C1398 H1389 0.929 . S
C1398 C1390 1.378 . S
C1398 C1393 1.350 . S
C1399 H1386 0.929 . S
C1399 C1391 1.433 . S
C1399 N1401 1.384 . S
N1400 C1396 1.427 . S
N1400 C1397 1.384 . S
N1401 C1393 1.427 . S
N1401 C1399 1.384 . S
H1402 C1408 0.930 . S
H1403 C1412 0.930 . S
H1404 C1417 0.929 . S
H1405 C1415 0.929 . S
H1406 C1410 0.929 . S
H1407 C1416 0.929 . S
C1408 H1402 0.930 . S
C1408 C1409 1.367 . S
C1408 C1416 1.378 . S
C1409 C1408 1.367 . S
C1409 C1417 1.433 . S
C1410 H1406 0.929 . S
C1410 C1412 1.378 . S
C1410 C1414 1.350 . S
C1411 C1414 1.463 . S
C1411 C1416 1.350 . S
C1411 N1419 1.427 . S
C1412 H1403 0.930 . S
C1412 C1410 1.378 . S
C1412 C1413 1.367 . S
C1413 C1412 1.367 . S
C1413 C1415 1.433 . S
C1414 C1410 1.350 . S
C1414 C1411 1.463 . S
C1414 N1418 1.427 . S
C1415 H1405 0.929 . S
C1415 C1413 1.433 . S
C1415 N1418 1.384 . S
C1416 H1407 0.929 . S
C1416 C1408 1.378 . S
C1416 C1411 1.350 . S
C1417 H1404 0.929 . S
C1417 C1409 1.433 . S
C1417 N1419 1.384 . S
N1418 C1414 1.427 . S
N1418 C1415 1.384 . S
N1419 C1411 1.427 . S
N1419 C1417 1.384 . S
H1420 C1426 0.930 . S
H1421 C1430 0.930 . S
H1422 C1435 0.929 . S
H1423 C1433 0.929 . S
H1424 C1428 0.929 . S
H1425 C1434 0.929 . S
C1426 H1420 0.930 . S
C1426 C1427 1.367 . S
C1426 C1434 1.378 . S
C1427 C1426 1.367 . S
C1427 C1435 1.433 . S
C1428 H1424 0.929 . S
C1428 C1430 1.378 1_655 S
C1428 C1432 1.352 . S
C1429 C1432 1.476 . S
C1429 C1434 1.350 . S
C1429 N1437 1.427 . S
C1430 H1421 0.930 . S
C1430 C1428 1.378 1_455 S
C1430 C1431 1.367 . S
C1431 C1430 1.367 . S
C1431 C1433 1.433 . S
C1432 C1428 1.352 . S
C1432 C1429 1.476 . S
C1432 N1436 1.412 1_655 S
C1433 H1423 0.929 . S
C1433 C1431 1.433 . S
C1433 N1436 1.384 . S
C1434 H1425 0.929 . S
C1434 C1426 1.378 . S
C1434 C1429 1.350 . S
C1435 H1422 0.929 . S
C1435 C1427 1.433 . S
C1435 N1437 1.384 . S
N1436 C1432 1.412 1_455 S
N1436 C1433 1.384 . S
N1437 C1429 1.427 . S
N1437 C1435 1.384 . S
H1438 C1444 0.930 . S
H1439 C1448 0.930 . S
H1440 C1453 0.929 . S
H1441 C1451 0.929 . S
H1442 C1446 0.929 . S
H1443 C1452 0.929 . S
C1444 H1438 0.930 . S
C1444 C1445 1.367 . S
C1444 C1452 1.378 . S
C1445 C1444 1.367 . S
C1445 C1453 1.433 . S
C1446 H1442 0.929 . S
C1446 C1448 1.378 . S
C1446 C1450 1.350 . S
C1447 C1450 1.463 . S
C1447 C1452 1.350 . S
C1447 N1455 1.427 . S
C1448 H1439 0.930 . S
C1448 C1446 1.378 . S
C1448 C1449 1.367 . S
C1449 C1448 1.367 . S
C1449 C1451 1.433 . S
C1450 C1446 1.350 . S
C1450 C1447 1.463 . S
C1450 N1454 1.427 . S
C1451 H1441 0.929 . S
C1451 C1449 1.433 . S
C1451 N1454 1.384 . S
C1452 H1443 0.929 . S
C1452 C1444 1.378 . S
C1452 C1447 1.350 . S
C1453 H1440 0.929 . S
C1453 C1445 1.433 . S
C1453 N1455 1.384 . S
N1454 C1450 1.427 . S
N1454 C1451 1.384 . S
N1455 C1447 1.427 . S
N1455 C1453 1.384 . S
H1456 C1462 0.930 . S
H1457 C1466 0.930 . S
H1458 C1471 0.929 1_545 S
H1459 C1469 0.929 . S
H1460 C1464 0.929 . S
H1461 C1470 0.929 . S
C1462 H1456 0.930 . S
C1462 C1463 1.367 . S
C1462 C1470 1.378 . S
C1463 C1462 1.367 . S
C1463 C1471 1.433 . S
C1464 H1460 0.929 . S
C1464 C1466 1.378 . S
C1464 C1468 1.323 1_655 S
C1465 C1468 1.496 . S
C1465 C1470 1.350 . S
C1465 N1473 1.427 . S
C1466 H1457 0.930 . S
C1466 C1464 1.378 . S
C1466 C1467 1.367 . S
C1467 C1466 1.367 . S
C1467 C1469 1.433 . S
C1468 C1464 1.323 1_455 S
C1468 C1465 1.496 . S
C1468 N1472 1.424 1_455 S
C1469 H1459 0.929 . S
C1469 C1467 1.433 . S
C1469 N1472 1.384 . S
C1470 H1461 0.929 . S
C1470 C1462 1.378 . S
C1470 C1465 1.350 . S
C1471 H1458 0.929 1_565 S
C1471 C1463 1.433 . S
C1471 N1473 1.384 . S
N1472 C1468 1.424 1_655 S
N1472 C1469 1.384 . S
N1473 C1465 1.427 . S
N1473 C1471 1.384 . S
H1474 C1480 0.930 . S
H1475 C1484 0.930 . S
H1476 C1489 0.929 . S
H1477 C1487 0.929 . S
H1478 C1482 0.929 . S
H1479 C1488 0.929 . S
C1480 H1474 0.930 . S
C1480 C1481 1.367 . S
C1480 C1488 1.378 . S
C1481 C1480 1.367 . S
C1481 C1489 1.433 . S
C1482 H1478 0.929 . S
C1482 C1484 1.378 . S
C1482 C1486 1.350 . S
C1483 C1486 1.463 . S
C1483 C1488 1.350 . S
C1483 N1491 1.427 . S
C1484 H1475 0.930 . S
C1484 C1482 1.378 . S
C1484 C1485 1.367 . S
C1485 C1484 1.367 . S
C1485 C1487 1.433 . S
C1486 C1482 1.350 . S
C1486 C1483 1.463 . S
C1486 N1490 1.427 . S
C1487 H1477 0.929 . S
C1487 C1485 1.433 . S
C1487 N1490 1.384 . S
C1488 H1479 0.929 . S
C1488 C1480 1.378 . S
C1488 C1483 1.350 . S
C1489 H1476 0.929 . S
C1489 C1481 1.433 . S
C1489 N1491 1.384 . S
N1490 C1486 1.427 . S
N1490 C1487 1.384 . S
N1491 C1483 1.427 . S
N1491 C1489 1.384 . S
H1492 C1498 0.930 . S
H1493 C1502 0.930 . S
H1494 C1507 0.929 . S
H1495 C1505 0.929 . S
H1496 C1500 0.929 . S
H1497 C1506 0.929 . S
C1498 H1492 0.930 . S
C1498 C1499 1.367 . S
C1498 C1506 1.378 . S
C1499 C1498 1.367 . S
C1499 C1507 1.433 . S
C1500 H1496 0.929 . S
C1500 C1502 1.378 1_655 S
C1500 C1504 1.355 . S
C1501 C1504 1.493 . S
C1501 C1506 1.350 . S
C1501 N1509 1.427 . S
C1502 H1493 0.930 . S
C1502 C1500 1.378 1_455 S
C1502 C1503 1.367 . S
C1503 C1502 1.367 . S
C1503 C1505 1.433 . S
C1504 C1500 1.355 . S
C1504 C1501 1.493 . S
C1504 N1508 1.392 1_655 S
C1505 H1495 0.929 . S
C1505 C1503 1.433 . S
C1505 N1508 1.384 . S
C1506 H1497 0.929 . S
C1506 C1498 1.378 . S
C1506 C1501 1.350 . S
C1507 H1494 0.929 . S
C1507 C1499 1.433 . S
C1507 N1509 1.384 . S
N1508 C1504 1.392 1_455 S
N1508 C1505 1.384 . S
N1509 C1501 1.427 . S
N1509 C1507 1.384 . S
H1510 C1516 0.930 . S
H1511 C1520 0.930 . S
H1512 C1525 0.929 . S
H1513 C1523 0.929 . S
H1514 C1518 0.929 . S
H1515 C1524 0.929 . S
C1516 H1510 0.930 . S
C1516 C1517 1.367 . S
C1516 C1524 1.378 . S
C1517 C1516 1.367 . S
C1517 C1525 1.433 . S
C1518 H1514 0.929 . S
C1518 C1520 1.378 . S
C1518 C1522 1.350 . S
C1519 C1522 1.463 . S
C1519 C1524 1.350 . S
C1519 N1527 1.427 . S
C1520 H1511 0.930 . S
C1520 C1518 1.378 . S
C1520 C1521 1.367 . S
C1521 C1520 1.367 . S
C1521 C1523 1.433 . S
C1522 C1518 1.350 . S
C1522 C1519 1.463 . S
C1522 N1526 1.427 . S
C1523 H1513 0.929 . S
C1523 C1521 1.433 . S
C1523 N1526 1.384 . S
C1524 H1515 0.929 . S
C1524 C1516 1.378 . S
C1524 C1519 1.350 . S
C1525 H1512 0.929 . S
C1525 C1517 1.433 . S
C1525 N1527 1.384 . S
N1526 C1522 1.427 . S
N1526 C1523 1.384 . S
N1527 C1519 1.427 . S
N1527 C1525 1.384 . S
H1528 C1534 0.930 . S
H1529 C1538 0.930 . S
H1530 C1543 0.929 . S
H1531 C1541 0.929 . S
H1532 C1536 0.929 . S
H1533 C1542 0.929 . S
C1534 H1528 0.930 . S
C1534 C1535 1.367 . S
C1534 C1542 1.378 . S
C1535 C1534 1.367 . S
C1535 C1543 1.433 . S
C1536 H1532 0.929 . S
C1536 C1538 1.378 . S
C1536 C1540 1.350 . S
C1537 C1540 1.463 . S
C1537 C1542 1.350 . S
C1537 N1545 1.427 . S
C1538 H1529 0.930 . S
C1538 C1536 1.378 . S
C1538 C1539 1.367 . S
C1539 C1538 1.367 . S
C1539 C1541 1.433 . S
C1540 C1536 1.350 . S
C1540 C1537 1.463 . S
C1540 N1544 1.427 . S
C1541 H1531 0.929 . S
C1541 C1539 1.433 . S
C1541 N1544 1.384 . S
C1542 H1533 0.929 . S
C1542 C1534 1.378 . S
C1542 C1537 1.350 . S
C1543 H1530 0.929 . S
C1543 C1535 1.433 . S
C1543 N1545 1.384 . S
N1544 C1540 1.427 . S
N1544 C1541 1.384 . S
N1545 C1537 1.427 . S
N1545 C1543 1.384 . S
H1546 C1552 0.930 . S
H1547 C1556 0.930 . S
H1548 C1561 0.929 . S
H1549 C1559 0.929 . S
H1550 C1554 0.929 1_554 S
H1551 C1560 0.929 . S
C1552 H1546 0.930 . S
C1552 C1553 1.367 . S
C1552 C1560 1.378 . S
C1553 C1552 1.367 . S
C1553 C1561 1.433 . S
C1554 H1550 0.929 1_556 S
C1554 C1556 1.378 . S
C1554 C1558 1.350 1_556 S
C1555 C1558 1.463 . S
C1555 C1560 1.350 . S
C1555 N1563 1.427 . S
C1556 H1547 0.930 . S
C1556 C1554 1.378 . S
C1556 C1557 1.367 . S
C1557 C1556 1.367 . S
C1557 C1559 1.433 . S
C1558 C1554 1.350 1_554 S
C1558 C1555 1.463 . S
C1558 N1562 1.427 1_554 S
C1559 H1549 0.929 . S
C1559 C1557 1.433 . S
C1559 N1562 1.384 . S
C1560 H1551 0.929 . S
C1560 C1552 1.378 . S
C1560 C1555 1.350 . S
C1561 H1548 0.929 . S
C1561 C1553 1.433 . S
C1561 N1563 1.384 . S
N1562 C1558 1.427 1_556 S
N1562 C1559 1.384 . S
N1563 C1555 1.427 . S
N1563 C1561 1.384 . S
H1564 C1570 0.930 . S
H1565 C1574 0.930 . S
H1566 C1579 0.929 . S
H1567 C1577 0.929 . S
H1568 C1572 0.929 . S
H1569 C1578 0.929 . S
C1570 H1564 0.930 . S
C1570 C1571 1.367 . S
C1570 C1578 1.378 . S
C1571 C1570 1.367 . S
C1571 C1579 1.433 . S
C1572 H1568 0.929 . S
C1572 C1574 1.378 . S
C1572 C1576 1.350 . S
C1573 C1576 1.463 . S
C1573 C1578 1.350 . S
C1573 N1581 1.427 . S
C1574 H1565 0.930 . S
C1574 C1572 1.378 . S
C1574 C1575 1.367 . S
C1575 C1574 1.367 . S
C1575 C1577 1.433 . S
C1576 C1572 1.350 . S
C1576 C1573 1.463 . S
C1576 N1580 1.427 . S
C1577 H1567 0.929 . S
C1577 C1575 1.433 . S
C1577 N1580 1.384 . S
C1578 H1569 0.929 . S
C1578 C1570 1.378 . S
C1578 C1573 1.350 . S
C1579 H1566 0.929 . S
C1579 C1571 1.433 . S
C1579 N1581 1.384 . S
N1580 C1576 1.427 . S
N1580 C1577 1.384 . S
N1581 C1573 1.427 . S
N1581 C1579 1.384 . S
H1582 C1588 0.930 . S
H1583 C1592 0.930 . S
H1584 C1597 0.929 . S
H1585 C1595 0.929 . S
H1586 C1590 0.929 . S
H1587 C1596 0.929 . S
C1588 H1582 0.930 . S
C1588 C1589 1.367 . S
C1588 C1596 1.378 . S
C1589 C1588 1.367 . S
C1589 C1597 1.433 . S
C1590 H1586 0.929 . S
C1590 C1592 1.378 . S
C1590 C1594 1.350 . S
C1591 C1594 1.463 . S
C1591 C1596 1.350 . S
C1591 N1599 1.427 . S
C1592 H1583 0.930 . S
C1592 C1590 1.378 . S
C1592 C1593 1.367 . S
C1593 C1592 1.367 . S
C1593 C1595 1.433 . S
C1594 C1590 1.350 . S
C1594 C1591 1.463 . S
C1594 N1598 1.427 . S
C1595 H1585 0.929 . S
C1595 C1593 1.433 . S
C1595 N1598 1.384 . S
C1596 H1587 0.929 . S
C1596 C1588 1.378 . S
C1596 C1591 1.350 . S
C1597 H1584 0.929 . S
C1597 C1589 1.433 . S
C1597 N1599 1.384 . S
N1598 C1594 1.427 . S
N1598 C1595 1.384 . S
N1599 C1591 1.427 . S
N1599 C1597 1.384 . S
H1600 C1606 0.930 . S
H1601 C1610 0.930 . S
H1602 C1615 0.929 . S
H1603 C1613 0.929 . S
H1604 C1608 0.929 . S
H1605 C1614 0.929 . S
C1606 H1600 0.930 . S
C1606 C1607 1.367 . S
C1606 C1614 1.378 . S
C1607 C1606 1.367 . S
C1607 C1615 1.433 . S
C1608 H1604 0.929 . S
C1608 C1610 1.378 . S
C1608 C1612 1.350 . S
C1609 C1612 1.463 . S
C1609 C1614 1.350 . S
C1609 N1617 1.427 . S
C1610 H1601 0.930 . S
C1610 C1608 1.378 . S
C1610 C1611 1.367 . S
C1611 C1610 1.367 . S
C1611 C1613 1.433 . S
C1612 C1608 1.350 . S
C1612 C1609 1.463 . S
C1612 N1616 1.427 . S
C1613 H1603 0.929 . S
C1613 C1611 1.433 . S
C1613 N1616 1.384 . S
C1614 H1605 0.929 . S
C1614 C1606 1.378 . S
C1614 C1609 1.350 . S
C1615 H1602 0.929 . S
C1615 C1607 1.433 . S
C1615 N1617 1.384 . S
N1616 C1612 1.427 . S
N1616 C1613 1.384 . S
N1617 C1609 1.427 . S
N1617 C1615 1.384 . S
H1618 C1624 0.930 . S
H1619 C1628 0.930 . S
H1620 C1633 0.929 . S
H1621 C1631 0.929 . S
H1622 C1626 0.929 . S
H1623 C1632 0.929 . S
C1624 H1618 0.930 . S
C1624 C1625 1.367 . S
C1624 C1632 1.378 . S
C1625 C1624 1.367 . S
C1625 C1633 1.433 . S
C1626 H1622 0.929 . S
C1626 C1628 1.378 1_556 S
C1626 C1630 1.355 . S
C1627 C1630 1.488 . S
C1627 C1632 1.350 . S
C1627 N1635 1.427 . S
C1628 H1619 0.930 . S
C1628 C1626 1.378 1_554 S
C1628 C1629 1.367 . S
C1629 C1628 1.367 . S
C1629 C1631 1.433 . S
C1630 C1626 1.355 . S
C1630 C1627 1.488 . S
C1630 N1634 1.397 1_556 S
C1631 H1621 0.929 . S
C1631 C1629 1.433 . S
C1631 N1634 1.384 . S
C1632 H1623 0.929 . S
C1632 C1624 1.378 . S
C1632 C1627 1.350 . S
C1633 H1620 0.929 . S
C1633 C1625 1.433 . S
C1633 N1635 1.384 . S
N1634 C1630 1.397 1_554 S
N1634 C1631 1.384 . S
N1635 C1627 1.427 . S
N1635 C1633 1.384 . S
H1636 C1642 0.930 . S
H1637 C1646 0.930 . S
H1638 C1651 0.929 . S
H1639 C1649 0.929 . S
H1640 C1644 0.929 . S
H1641 C1650 0.929 . S
C1642 H1636 0.930 . S
C1642 C1643 1.367 . S
C1642 C1650 1.378 . S
C1643 C1642 1.367 . S
C1643 C1651 1.433 . S
C1644 H1640 0.929 . S
C1644 C1646 1.378 . S
C1644 C1648 1.350 . S
C1645 C1648 1.463 . S
C1645 C1650 1.350 . S
C1645 N1653 1.427 . S
C1646 H1637 0.930 . S
C1646 C1644 1.378 . S
C1646 C1647 1.367 . S
C1647 C1646 1.367 . S
C1647 C1649 1.433 . S
C1648 C1644 1.350 . S
C1648 C1645 1.463 . S
C1648 N1652 1.427 . S
C1649 H1639 0.929 . S
C1649 C1647 1.433 . S
C1649 N1652 1.384 . S
C1650 H1641 0.929 . S
C1650 C1642 1.378 . S
C1650 C1645 1.350 . S
C1651 H1638 0.929 . S
C1651 C1643 1.433 . S
C1651 N1653 1.384 . S
N1652 C1648 1.427 . S
N1652 C1649 1.384 . S
N1653 C1645 1.427 . S
N1653 C1651 1.384 . S
H1654 C1660 0.930 . S
H1655 C1664 0.930 . S
H1656 C1669 0.929 . S
H1657 C1667 0.929 . S
H1658 C1662 0.929 . S
H1659 C1668 0.929 . S
C1660 H1654 0.930 . S
C1660 C1661 1.367 . S
C1660 C1668 1.378 . S
C1661 C1660 1.367 . S
C1661 C1669 1.433 . S
C1662 H1658 0.929 . S
C1662 C1664 1.378 . S
C1662 C1666 1.350 . S
C1663 C1666 1.463 . S
C1663 C1668 1.350 . S
C1663 N1671 1.427 . S
C1664 H1655 0.930 . S
C1664 C1662 1.378 . S
C1664 C1665 1.367 . S
C1665 C1664 1.367 . S
C1665 C1667 1.433 . S
C1666 C1662 1.350 . S
C1666 C1663 1.463 . S
C1666 N1670 1.427 . S
C1667 H1657 0.929 . S
C1667 C1665 1.433 . S
C1667 N1670 1.384 . S
C1668 H1659 0.929 . S
C1668 C1660 1.378 . S
C1668 C1663 1.350 . S
C1669 H1656 0.929 . S
C1669 C1661 1.433 . S
C1669 N1671 1.384 . S
N1670 C1666 1.427 . S
N1670 C1667 1.384 . S
N1671 C1663 1.427 . S
N1671 C1669 1.384 . S
H1672 C1678 0.930 . S
H1673 C1682 0.930 . S
H1674 C1687 0.929 . S
H1675 C1685 0.929 . S
H1676 C1680 0.929 . S
H1677 C1686 0.929 . S
C1678 H1672 0.930 . S
C1678 C1679 1.367 . S
C1678 C1686 1.378 . S
C1679 C1678 1.367 . S
C1679 C1687 1.433 . S
C1680 H1676 0.929 . S
C1680 C1682 1.378 . S
C1680 C1684 1.350 . S
C1681 C1684 1.463 . S
C1681 C1686 1.350 . S
C1681 N1689 1.427 . S
C1682 H1673 0.930 . S
C1682 C1680 1.378 . S
C1682 C1683 1.367 . S
C1683 C1682 1.367 . S
C1683 C1685 1.433 . S
C1684 C1680 1.350 . S
C1684 C1681 1.463 . S
C1684 N1688 1.427 . S
C1685 H1675 0.929 . S
C1685 C1683 1.433 . S
C1685 N1688 1.384 . S
C1686 H1677 0.929 . S
C1686 C1678 1.378 . S
C1686 C1681 1.350 . S
C1687 H1674 0.929 . S
C1687 C1679 1.433 . S
C1687 N1689 1.384 . S
N1688 C1684 1.427 . S
N1688 C1685 1.384 . S
N1689 C1681 1.427 . S
N1689 C1687 1.384 . S
H1690 C1696 0.930 . S
H1691 C1700 0.930 . S
H1692 C1705 0.929 . S
H1693 C1703 0.929 . S
H1694 C1698 0.929 . S
H1695 C1704 0.929 . S
C1696 H1690 0.930 . S
C1696 C1697 1.367 . S
C1696 C1704 1.378 . S
C1697 C1696 1.367 . S
C1697 C1705 1.433 . S
C1698 H1694 0.929 . S
C1698 C1700 1.378 . S
C1698 C1702 1.350 . S
C1699 C1702 1.463 . S
C1699 C1704 1.350 . S
C1699 N1707 1.427 . S
C1700 H1691 0.930 . S
C1700 C1698 1.378 . S
C1700 C1701 1.367 . S
C1701 C1700 1.367 . S
C1701 C1703 1.433 . S
C1702 C1698 1.350 . S
C1702 C1699 1.463 . S
C1702 N1706 1.427 . S
C1703 H1693 0.929 . S
C1703 C1701 1.433 . S
C1703 N1706 1.384 . S
C1704 H1695 0.929 . S
C1704 C1696 1.378 . S
C1704 C1699 1.350 . S
C1705 H1692 0.929 . S
C1705 C1697 1.433 . S
C1705 N1707 1.384 . S
N1706 C1702 1.427 . S
N1706 C1703 1.384 . S
N1707 C1699 1.427 . S
N1707 C1705 1.384 . S
H1708 C1714 0.930 . S
H1709 C1718 0.930 . S
H1710 C1723 0.929 . S
H1711 C1721 0.929 . S
H1712 C1716 0.929 . S
H1713 C1722 0.929 . S
C1714 H1708 0.930 . S
C1714 C1715 1.367 . S
C1714 C1722 1.378 . S
C1715 C1714 1.367 . S
C1715 C1723 1.433 . S
C1716 H1712 0.929 . S
C1716 C1718 1.378 . S
C1716 C1720 1.350 . S
C1717 C1720 1.463 . S
C1717 C1722 1.350 . S
C1717 N1725 1.427 . S
C1718 H1709 0.930 . S
C1718 C1716 1.378 . S
C1718 C1719 1.367 . S
C1719 C1718 1.367 . S
C1719 C1721 1.433 . S
C1720 C1716 1.350 . S
C1720 C1717 1.463 . S
C1720 N1724 1.427 . S
C1721 H1711 0.929 . S
C1721 C1719 1.433 . S
C1721 N1724 1.384 . S
C1722 H1713 0.929 . S
C1722 C1714 1.378 . S
C1722 C1717 1.350 . S
C1723 H1710 0.929 . S
C1723 C1715 1.433 . S
C1723 N1725 1.384 . S
N1724 C1720 1.427 . S
N1724 C1721 1.384 . S
N1725 C1717 1.427 . S
N1725 C1723 1.384 . S
H1726 C1732 0.930 . S
H1727 C1736 0.930 . S
H1728 C1741 0.929 . S
H1729 C1739 0.929 . S
H1730 C1734 0.929 . S
H1731 C1740 0.929 . S
C1732 H1726 0.930 . S
C1732 C1733 1.367 . S
C1732 C1740 1.378 . S
C1733 C1732 1.367 . S
C1733 C1741 1.433 . S
C1734 H1730 0.929 . S
C1734 C1736 1.378 . S
C1734 C1738 1.350 . S
C1735 C1738 1.463 . S
C1735 C1740 1.350 . S
C1735 N1743 1.427 . S
C1736 H1727 0.930 . S
C1736 C1734 1.378 . S
C1736 C1737 1.367 . S
C1737 C1736 1.367 . S
C1737 C1739 1.433 . S
C1738 C1734 1.350 . S
C1738 C1735 1.463 . S
C1738 N1742 1.427 . S
C1739 H1729 0.929 . S
C1739 C1737 1.433 . S
C1739 N1742 1.384 . S
C1740 H1731 0.929 . S
C1740 C1732 1.378 . S
C1740 C1735 1.350 . S
C1741 H1728 0.929 . S
C1741 C1733 1.433 . S
C1741 N1743 1.384 . S
N1742 C1738 1.427 . S
N1742 C1739 1.384 . S
N1743 C1735 1.427 . S
N1743 C1741 1.384 . S
H1744 C1750 0.930 . S
H1745 C1754 0.930 . S
H1746 C1759 0.929 . S
H1747 C1757 0.929 . S
H1748 C1752 0.929 . S
H1749 C1758 0.929 . S
C1750 H1744 0.930 . S
C1750 C1751 1.367 . S
C1750 C1758 1.378 . S
C1751 C1750 1.367 . S
C1751 C1759 1.433 . S
C1752 H1748 0.929 . S
C1752 C1754 1.378 . S
C1752 C1756 1.350 . S
C1753 C1756 1.463 . S
C1753 C1758 1.350 . S
C1753 N1761 1.427 . S
C1754 H1745 0.930 . S
C1754 C1752 1.378 . S
C1754 C1755 1.367 . S
C1755 C1754 1.367 . S
C1755 C1757 1.433 . S
C1756 C1752 1.350 . S
C1756 C1753 1.463 . S
C1756 N1760 1.427 . S
C1757 H1747 0.929 . S
C1757 C1755 1.433 . S
C1757 N1760 1.384 . S
C1758 H1749 0.929 . S
C1758 C1750 1.378 . S
C1758 C1753 1.350 . S
C1759 H1746 0.929 . S
C1759 C1751 1.433 . S
C1759 N1761 1.384 . S
N1760 C1756 1.427 . S
N1760 C1757 1.384 . S
N1761 C1753 1.427 . S
N1761 C1759 1.384 . S
H1762 C1768 0.930 . S
H1763 C1772 0.930 . S
H1764 C1777 0.929 . S
H1765 C1775 0.929 . S
H1766 C1770 0.929 . S
H1767 C1776 0.929 . S
C1768 H1762 0.930 . S
C1768 C1769 1.367 . S
C1768 C1776 1.378 . S
C1769 C1768 1.367 . S
C1769 C1777 1.433 . S
C1770 H1766 0.929 . S
C1770 C1772 1.378 . S
C1770 C1774 1.350 . S
C1771 C1774 1.463 . S
C1771 C1776 1.350 . S
C1771 N1779 1.427 . S
C1772 H1763 0.930 . S
C1772 C1770 1.378 . S
C1772 C1773 1.367 . S
C1773 C1772 1.367 . S
C1773 C1775 1.433 . S
C1774 C1770 1.350 . S
C1774 C1771 1.463 . S
C1774 N1778 1.427 . S
C1775 H1765 0.929 . S
C1775 C1773 1.433 . S
C1775 N1778 1.384 . S
C1776 H1767 0.929 . S
C1776 C1768 1.378 . S
C1776 C1771 1.350 . S
C1777 H1764 0.929 . S
C1777 C1769 1.433 . S
C1777 N1779 1.384 . S
N1778 C1774 1.427 . S
N1778 C1775 1.384 . S
N1779 C1771 1.427 . S
N1779 C1777 1.384 . S
H1780 C1786 0.930 . S
H1781 C1790 0.930 . S
H1782 C1795 0.929 . S
H1783 C1793 0.929 . S
H1784 C1788 0.929 . S
H1785 C1794 0.929 . S
C1786 H1780 0.930 . S
C1786 C1787 1.367 . S
C1786 C1794 1.378 . S
C1787 C1786 1.367 . S
C1787 C1795 1.433 . S
C1788 H1784 0.929 . S
C1788 C1790 1.378 . S
C1788 C1792 1.350 . S
C1789 C1792 1.463 . S
C1789 C1794 1.350 . S
C1789 N1797 1.427 . S
C1790 H1781 0.930 . S
C1790 C1788 1.378 . S
C1790 C1791 1.367 . S
C1791 C1790 1.367 . S
C1791 C1793 1.433 . S
C1792 C1788 1.350 . S
C1792 C1789 1.463 . S
C1792 N1796 1.427 . S
C1793 H1783 0.929 . S
C1793 C1791 1.433 . S
C1793 N1796 1.384 . S
C1794 H1785 0.929 . S
C1794 C1786 1.378 . S
C1794 C1789 1.350 . S
C1795 H1782 0.929 . S
C1795 C1787 1.433 . S
C1795 N1797 1.384 . S
N1796 C1792 1.427 . S
N1796 C1793 1.384 . S
N1797 C1789 1.427 . S
N1797 C1795 1.384 . S
H1798 C1804 0.930 . S
H1799 C1808 0.930 . S
H1800 C1813 0.929 . S
H1801 C1811 0.929 . S
H1802 C1806 0.929 . S
H1803 C1812 0.929 . S
C1804 H1798 0.930 . S
C1804 C1805 1.367 . S
C1804 C1812 1.378 . S
C1805 C1804 1.367 . S
C1805 C1813 1.433 . S
C1806 H1802 0.929 . S
C1806 C1808 1.378 . S
C1806 C1810 1.350 . S
C1807 C1810 1.463 . S
C1807 C1812 1.350 . S
C1807 N1815 1.427 . S
C1808 H1799 0.930 . S
C1808 C1806 1.378 . S
C1808 C1809 1.367 . S
C1809 C1808 1.367 . S
C1809 C1811 1.433 . S
C1810 C1806 1.350 . S
C1810 C1807 1.463 . S
C1810 N1814 1.427 . S
C1811 H1801 0.929 . S
C1811 C1809 1.433 . S
C1811 N1814 1.384 . S
C1812 H1803 0.929 . S
C1812 C1804 1.378 . S
C1812 C1807 1.350 . S
C1813 H1800 0.929 . S
C1813 C1805 1.433 . S
C1813 N1815 1.384 . S
N1814 C1810 1.427 . S
N1814 C1811 1.384 . S
N1815 C1807 1.427 . S
N1815 C1813 1.384 . S
H1816 C1822 0.930 . S
H1817 C1826 0.930 . S
H1818 C1831 0.929 . S
H1819 C1829 0.929 . S
H1820 C1824 0.929 . S
H1821 C1830 0.929 . S
C1822 H1816 0.930 . S
C1822 C1823 1.367 . S
C1822 C1830 1.378 . S
C1823 C1822 1.367 . S
C1823 C1831 1.433 . S
C1824 H1820 0.929 . S
C1824 C1826 1.378 . S
C1824 C1828 1.350 . S
C1825 C1828 1.463 . S
C1825 C1830 1.350 . S
C1825 N1833 1.427 . S
C1826 H1817 0.930 . S
C1826 C1824 1.378 . S
C1826 C1827 1.367 . S
C1827 C1826 1.367 . S
C1827 C1829 1.433 . S
C1828 C1824 1.350 . S
C1828 C1825 1.463 . S
C1828 N1832 1.427 . S
C1829 H1819 0.929 . S
C1829 C1827 1.433 . S
C1829 N1832 1.384 . S
C1830 H1821 0.929 . S
C1830 C1822 1.378 . S
C1830 C1825 1.350 . S
C1831 H1818 0.929 . S
C1831 C1823 1.433 . S
C1831 N1833 1.384 . S
N1832 C1828 1.427 . S
N1832 C1829 1.384 . S
N1833 C1825 1.427 . S
N1833 C1831 1.384 . S
H1834 C1840 0.930 . S
H1835 C1844 0.930 . S
H1836 C1849 0.929 . S
H1837 C1847 0.929 . S
H1838 C1842 0.929 . S
H1839 C1848 0.929 . S
C1840 H1834 0.930 . S
C1840 C1841 1.367 . S
C1840 C1848 1.378 . S
C1841 C1840 1.367 . S
C1841 C1849 1.433 . S
C1842 H1838 0.929 . S
C1842 C1844 1.378 . S
C1842 C1846 1.350 . S
C1843 C1846 1.463 . S
C1843 C1848 1.350 . S
C1843 N1851 1.427 . S
C1844 H1835 0.930 . S
C1844 C1842 1.378 . S
C1844 C1845 1.367 . S
C1845 C1844 1.367 . S
C1845 C1847 1.433 . S
C1846 C1842 1.350 . S
C1846 C1843 1.463 . S
C1846 N1850 1.427 . S
C1847 H1837 0.929 . S
C1847 C1845 1.433 . S
C1847 N1850 1.384 . S
C1848 H1839 0.929 . S
C1848 C1840 1.378 . S
C1848 C1843 1.350 . S
C1849 H1836 0.929 . S
C1849 C1841 1.433 . S
C1849 N1851 1.384 . S
N1850 C1846 1.427 . S
N1850 C1847 1.384 . S
N1851 C1843 1.427 . S
N1851 C1849 1.384 . S
H1852 C1858 0.930 . S
H1853 C1862 0.930 . S
H1854 C1867 0.929 . S
H1855 C1865 0.929 . S
H1856 C1860 0.929 . S
H1857 C1866 0.929 . S
C1858 H1852 0.930 . S
C1858 C1859 1.367 . S
C1858 C1866 1.378 . S
C1859 C1858 1.367 . S
C1859 C1867 1.433 . S
C1860 H1856 0.929 . S
C1860 C1862 1.378 . S
C1860 C1864 1.350 . S
C1861 C1864 1.463 . S
C1861 C1866 1.350 . S
C1861 N1869 1.427 . S
C1862 H1853 0.930 . S
C1862 C1860 1.378 . S
C1862 C1863 1.367 . S
C1863 C1862 1.367 . S
C1863 C1865 1.433 . S
C1864 C1860 1.350 . S
C1864 C1861 1.463 . S
C1864 N1868 1.427 . S
C1865 H1855 0.929 . S
C1865 C1863 1.433 . S
C1865 N1868 1.384 . S
C1866 H1857 0.929 . S
C1866 C1858 1.378 . S
C1866 C1861 1.350 . S
C1867 H1854 0.929 . S
C1867 C1859 1.433 . S
C1867 N1869 1.384 . S
N1868 C1864 1.427 . S
N1868 C1865 1.384 . S
N1869 C1861 1.427 . S
N1869 C1867 1.384 . S
H1870 C1876 0.930 . S
H1871 C1880 0.930 . S
H1872 C1885 0.929 . S
H1873 C1883 0.929 . S
H1874 C1878 0.929 . S
H1875 C1884 0.929 . S
C1876 H1870 0.930 . S
C1876 C1877 1.367 . S
C1876 C1884 1.378 . S
C1877 C1876 1.367 . S
C1877 C1885 1.433 . S
C1878 H1874 0.929 . S
C1878 C1880 1.378 . S
C1878 C1882 1.350 . S
C1879 C1882 1.463 . S
C1879 C1884 1.350 . S
C1879 N1887 1.427 . S
C1880 H1871 0.930 . S
C1880 C1878 1.378 . S
C1880 C1881 1.367 . S
C1881 C1880 1.367 . S
C1881 C1883 1.433 . S
C1882 C1878 1.350 . S
C1882 C1879 1.463 . S
C1882 N1886 1.427 . S
C1883 H1873 0.929 . S
C1883 C1881 1.433 . S
C1883 N1886 1.384 . S
C1884 H1875 0.929 . S
C1884 C1876 1.378 . S
C1884 C1879 1.350 . S
C1885 H1872 0.929 . S
C1885 C1877 1.433 . S
C1885 N1887 1.384 . S
N1886 C1882 1.427 . S
N1886 C1883 1.384 . S
N1887 C1879 1.427 . S
N1887 C1885 1.384 . S
H1888 C1894 0.930 . S
H1889 C1898 0.930 . S
H1890 C1903 0.929 . S
H1891 C1901 0.929 . S
H1892 C1896 0.929 . S
H1893 C1902 0.929 . S
C1894 H1888 0.930 . S
C1894 C1895 1.367 . S
C1894 C1902 1.378 . S
C1895 C1894 1.367 . S
C1895 C1903 1.433 . S
C1896 H1892 0.929 . S
C1896 C1898 1.378 . S
C1896 C1900 1.350 . S
C1897 C1900 1.463 . S
C1897 C1902 1.350 . S
C1897 N1905 1.427 . S
C1898 H1889 0.930 . S
C1898 C1896 1.378 . S
C1898 C1899 1.367 . S
C1899 C1898 1.367 . S
C1899 C1901 1.433 . S
C1900 C1896 1.350 . S
C1900 C1897 1.463 . S
C1900 N1904 1.427 . S
C1901 H1891 0.929 . S
C1901 C1899 1.433 . S
C1901 N1904 1.384 . S
C1902 H1893 0.929 . S
C1902 C1894 1.378 . S
C1902 C1897 1.350 . S
C1903 H1890 0.929 . S
C1903 C1895 1.433 . S
C1903 N1905 1.384 . S
N1904 C1900 1.427 . S
N1904 C1901 1.384 . S
N1905 C1897 1.427 . S
N1905 C1903 1.384 . S
H1906 C1912 0.930 . S
H1907 C1916 0.930 . S
H1908 C1921 0.929 . S
H1909 C1919 0.929 . S
H1910 C1914 0.929 . S
H1911 C1920 0.929 . S
C1912 H1906 0.930 . S
C1912 C1913 1.367 . S
C1912 C1920 1.378 . S
C1913 C1912 1.367 . S
C1913 C1921 1.433 . S
C1914 H1910 0.929 . S
C1914 C1916 1.378 . S
C1914 C1918 1.350 . S
C1915 C1918 1.463 . S
C1915 C1920 1.350 . S
C1915 N1923 1.427 . S
C1916 H1907 0.930 . S
C1916 C1914 1.378 . S
C1916 C1917 1.367 . S
C1917 C1916 1.367 . S
C1917 C1919 1.433 . S
C1918 C1914 1.350 . S
C1918 C1915 1.463 . S
C1918 N1922 1.427 . S
C1919 H1909 0.929 . S
C1919 C1917 1.433 . S
C1919 N1922 1.384 . S
C1920 H1911 0.929 . S
C1920 C1912 1.378 . S
C1920 C1915 1.350 . S
C1921 H1908 0.929 . S
C1921 C1913 1.433 . S
C1921 N1923 1.384 . S
N1922 C1918 1.427 . S
N1922 C1919 1.384 . S
N1923 C1915 1.427 . S
N1923 C1921 1.384 . S
H1924 C1930 0.930 . S
H1925 C1934 0.930 . S
H1926 C1939 0.929 . S
H1927 C1937 0.929 . S
H1928 C1932 0.929 . S
H1929 C1938 0.929 . S
C1930 H1924 0.930 . S
C1930 C1931 1.367 . S
C1930 C1938 1.378 . S
C1931 C1930 1.367 . S
C1931 C1939 1.433 . S
C1932 H1928 0.929 . S
C1932 C1934 1.378 . S
C1932 C1936 1.350 . S
C1933 C1936 1.463 . S
C1933 C1938 1.350 . S
C1933 N1941 1.427 . S
C1934 H1925 0.930 . S
C1934 C1932 1.378 . S
C1934 C1935 1.367 . S
C1935 C1934 1.367 . S
C1935 C1937 1.433 . S
C1936 C1932 1.350 . S
C1936 C1933 1.463 . S
C1936 N1940 1.427 . S
C1937 H1927 0.929 . S
C1937 C1935 1.433 . S
C1937 N1940 1.384 . S
C1938 H1929 0.929 . S
C1938 C1930 1.378 . S
C1938 C1933 1.350 . S
C1939 H1926 0.929 . S
C1939 C1931 1.433 . S
C1939 N1941 1.384 . S
N1940 C1936 1.427 . S
N1940 C1937 1.384 . S
N1941 C1933 1.427 . S
N1941 C1939 1.384 . S
H1942 C1948 0.930 . S
H1943 C1952 0.930 . S
H1944 C1957 0.929 . S
H1945 C1955 0.929 . S
H1946 C1950 0.929 . S
H1947 C1956 0.929 . S
C1948 H1942 0.930 . S
C1948 C1949 1.367 . S
C1948 C1956 1.378 . S
C1949 C1948 1.367 . S
C1949 C1957 1.433 . S
C1950 H1946 0.929 . S
C1950 C1952 1.378 . S
C1950 C1954 1.349 1_455 S
C1951 C1954 1.465 . S
C1951 C1956 1.350 . S
C1951 N1959 1.427 . S
C1952 H1943 0.930 . S
C1952 C1950 1.378 . S
C1952 C1953 1.367 . S
C1953 C1952 1.367 . S
C1953 C1955 1.433 . S
C1954 C1950 1.349 1_655 S
C1954 C1951 1.465 . S
C1954 N1958 1.427 1_655 S
C1955 H1945 0.929 . S
C1955 C1953 1.433 . S
C1955 N1958 1.384 . S
C1956 H1947 0.929 . S
C1956 C1948 1.378 . S
C1956 C1951 1.350 . S
C1957 H1944 0.929 . S
C1957 C1949 1.433 . S
C1957 N1959 1.384 . S
N1958 C1954 1.427 1_455 S
N1958 C1955 1.384 . S
N1959 C1951 1.427 . S
N1959 C1957 1.384 . S
H1960 C1966 0.930 . S
H1961 C1970 0.930 . S
H1962 C1975 0.929 . S
H1963 C1973 0.929 . S
H1964 C1968 0.929 . S
H1965 C1974 0.929 . S
C1966 H1960 0.930 . S
C1966 C1967 1.367 . S
C1966 C1974 1.378 . S
C1967 C1966 1.367 . S
C1967 C1975 1.433 . S
C1968 H1964 0.929 . S
C1968 C1970 1.378 . S
C1968 C1972 1.350 . S
C1969 C1972 1.463 . S
C1969 C1974 1.350 . S
C1969 N1977 1.427 . S
C1970 H1961 0.930 . S
C1970 C1968 1.378 . S
C1970 C1971 1.367 . S
C1971 C1970 1.367 . S
C1971 C1973 1.433 . S
C1972 C1968 1.350 . S
C1972 C1969 1.463 . S
C1972 N1976 1.427 . S
C1973 H1963 0.929 . S
C1973 C1971 1.433 . S
C1973 N1976 1.384 . S
C1974 H1965 0.929 . S
C1974 C1966 1.378 . S
C1974 C1969 1.350 . S
C1975 H1962 0.929 . S
C1975 C1967 1.433 . S
C1975 N1977 1.384 . S
N1976 C1972 1.427 . S
N1976 C1973 1.384 . S
N1977 C1969 1.427 . S
N1977 C1975 1.384 . S
H1978 C1984 0.930 . S
H1979 C1988 0.930 . S
H1980 C1993 0.929 . S
H1981 C1991 0.929 . S
H1982 C1986 0.929 . S
H1983 C1992 0.929 . S
C1984 H1978 0.930 . S
C1984 C1985 1.367 . S
C1984 C1992 1.378 . S
C1985 C1984 1.367 . S
C1985 C1993 1.433 . S
C1986 H1982 0.929 . S
C1986 C1988 1.378 1_556 S
C1986 C1990 1.357 . S
C1987 C1990 1.494 . S
C1987 C1992 1.350 . S
C1987 N1995 1.427 . S
C1988 H1979 0.930 . S
C1988 C1986 1.378 1_554 S
C1988 C1989 1.367 . S
C1989 C1988 1.367 . S
C1989 C1991 1.433 . S
C1990 C1986 1.357 . S
C1990 C1987 1.494 . S
C1990 N1994 1.389 1_556 S
C1991 H1981 0.929 . S
C1991 C1989 1.433 . S
C1991 N1994 1.384 . S
C1992 H1983 0.929 . S
C1992 C1984 1.378 . S
C1992 C1987 1.350 . S
C1993 H1980 0.929 . S
C1993 C1985 1.433 . S
C1993 N1995 1.384 . S
N1994 C1990 1.389 1_554 S
N1994 C1991 1.384 . S
N1995 C1987 1.427 . S
N1995 C1993 1.384 . S
H1996 C2002 0.930 . S
H1997 C2006 0.930 . S
H1998 C2011 0.929 . S
H1999 C2009 0.929 . S
H2000 C2004 0.929 . S
H2001 C2010 0.929 . S
C2002 H1996 0.930 . S
C2002 C2003 1.367 . S
C2002 C2010 1.378 . S
C2003 C2002 1.367 . S
C2003 C2011 1.433 . S
C2004 H2000 0.929 . S
C2004 C2006 1.378 . S
C2004 C2008 1.350 . S
C2005 C2008 1.463 . S
C2005 C2010 1.350 . S
C2005 N2013 1.427 . S
C2006 H1997 0.930 . S
C2006 C2004 1.378 . S
C2006 C2007 1.367 . S
C2007 C2006 1.367 . S
C2007 C2009 1.433 . S
C2008 C2004 1.350 . S
C2008 C2005 1.463 . S
C2008 N2012 1.427 . S
C2009 H1999 0.929 . S
C2009 C2007 1.433 . S
C2009 N2012 1.384 . S
C2010 H2001 0.929 . S
C2010 C2002 1.378 . S
C2010 C2005 1.350 . S
C2011 H1998 0.929 . S
C2011 C2003 1.433 . S
C2011 N2013 1.384 . S
N2012 C2008 1.427 . S
N2012 C2009 1.384 . S
N2013 C2005 1.427 . S
N2013 C2011 1.384 . S
H2014 C2020 0.930 1_655 S
H2015 C2024 0.930 . S
H2016 C2029 0.929 . S
H2017 C2027 0.929 . S
H2018 C2022 0.929 . S
H2019 C2028 0.929 . S
C2020 H2014 0.930 1_455 S
C2020 C2021 1.367 . S
C2020 C2028 1.378 . S
C2021 C2020 1.367 . S
C2021 C2029 1.433 . S
C2022 H2018 0.929 . S
C2022 C2024 1.378 . S
C2022 C2026 1.350 . S
C2023 C2026 1.463 . S
C2023 C2028 1.350 . S
C2023 N2031 1.427 . S
C2024 H2015 0.930 . S
C2024 C2022 1.378 . S
C2024 C2025 1.367 . S
C2025 C2024 1.367 . S
C2025 C2027 1.433 . S
C2026 C2022 1.350 . S
C2026 C2023 1.463 . S
C2026 N2030 1.427 . S
C2027 H2017 0.929 . S
C2027 C2025 1.433 . S
C2027 N2030 1.384 . S
C2028 H2019 0.929 . S
C2028 C2020 1.378 . S
C2028 C2023 1.350 . S
C2029 H2016 0.929 . S
C2029 C2021 1.433 . S
C2029 N2031 1.384 . S
N2030 C2026 1.427 . S
N2030 C2027 1.384 . S
N2031 C2023 1.427 . S
N2031 C2029 1.384 . S
H2032 C2038 0.930 . S
H2033 C2042 0.930 . S
H2034 C2047 0.929 . S
H2035 C2045 0.929 . S
H2036 C2040 0.929 . S
H2037 C2046 0.929 . S
C2038 H2032 0.930 . S
C2038 C2039 1.367 . S
C2038 C2046 1.378 . S
C2039 C2038 1.367 . S
C2039 C2047 1.433 . S
C2040 H2036 0.929 . S
C2040 C2042 1.378 . S
C2040 C2044 1.350 . S
C2041 C2044 1.463 . S
C2041 C2046 1.350 . S
C2041 N2049 1.427 . S
C2042 H2033 0.930 . S
C2042 C2040 1.378 . S
C2042 C2043 1.367 . S
C2043 C2042 1.367 . S
C2043 C2045 1.433 . S
C2044 C2040 1.350 . S
C2044 C2041 1.463 . S
C2044 N2048 1.427 . S
C2045 H2035 0.929 . S
C2045 C2043 1.433 . S
C2045 N2048 1.384 . S
C2046 H2037 0.929 . S
C2046 C2038 1.378 . S
C2046 C2041 1.350 . S
C2047 H2034 0.929 . S
C2047 C2039 1.433 . S
C2047 N2049 1.384 . S
N2048 C2044 1.427 . S
N2048 C2045 1.384 . S
N2049 C2041 1.427 . S
N2049 C2047 1.384 . S
H2050 C2056 0.930 . S
H2051 C2060 0.930 . S
H2052 C2065 0.929 . S
H2053 C2063 0.929 . S
H2054 C2058 0.936 . S
H2055 C2064 0.929 . S
C2056 H2050 0.930 . S
C2056 C2057 1.367 . S
C2056 C2064 1.378 . S
C2057 C2056 1.367 . S
C2057 C2065 1.433 . S
C2058 H2054 0.936 . S
C2058 C2060 1.378 . S
C2058 C2062 1.350 1_556 S
C2059 C2062 1.463 . S
C2059 C2064 1.350 . S
C2059 N2067 1.427 . S
C2060 H2051 0.930 . S
C2060 C2058 1.378 . S
C2060 C2061 1.367 . S
C2061 C2060 1.367 . S
C2061 C2063 1.433 . S
C2062 C2058 1.350 1_554 S
C2062 C2059 1.463 . S
C2062 N2066 1.427 1_554 S
C2063 H2053 0.929 . S
C2063 C2061 1.433 . S
C2063 N2066 1.384 . S
C2064 H2055 0.929 . S
C2064 C2056 1.378 . S
C2064 C2059 1.350 . S
C2065 H2052 0.929 . S
C2065 C2057 1.433 . S
C2065 N2067 1.384 . S
N2066 C2062 1.427 1_556 S
N2066 C2063 1.384 . S
N2067 C2059 1.427 . S
N2067 C2065 1.384 . S
H2068 C2074 0.930 . S
H2069 C2078 0.930 . S
H2070 C2083 0.929 . S
H2071 C2081 0.929 . S
H2072 C2076 0.929 . S
H2073 C2082 0.929 . S
C2074 H2068 0.930 . S
C2074 C2075 1.367 . S
C2074 C2082 1.378 . S
C2075 C2074 1.367 . S
C2075 C2083 1.433 . S
C2076 H2072 0.929 . S
C2076 C2078 1.378 . S
C2076 C2080 1.350 . S
C2077 C2080 1.463 . S
C2077 C2082 1.350 . S
C2077 N2085 1.427 . S
C2078 H2069 0.930 . S
C2078 C2076 1.378 . S
C2078 C2079 1.367 . S
C2079 C2078 1.367 . S
C2079 C2081 1.433 . S
C2080 C2076 1.350 . S
C2080 C2077 1.463 . S
C2080 N2084 1.427 . S
C2081 H2071 0.929 . S
C2081 C2079 1.433 . S
C2081 N2084 1.384 . S
C2082 H2073 0.929 . S
C2082 C2074 1.378 . S
C2082 C2077 1.350 . S
C2083 H2070 0.929 . S
C2083 C2075 1.433 . S
C2083 N2085 1.384 . S
N2084 C2080 1.427 . S
N2084 C2081 1.384 . S
N2085 C2077 1.427 . S
N2085 C2083 1.384 . S
H2086 C2092 0.930 . S
H2087 C2096 0.930 . S
H2088 C2101 0.929 . S
H2089 C2099 0.929 . S
H2090 C2094 0.929 . S
H2091 C2100 0.929 . S
C2092 H2086 0.930 . S
C2092 C2093 1.367 . S
C2092 C2100 1.378 . S
C2093 C2092 1.367 . S
C2093 C2101 1.433 . S
C2094 H2090 0.929 . S
C2094 C2096 1.378 . S
C2094 C2098 1.350 . S
C2095 C2098 1.463 . S
C2095 C2100 1.350 . S
C2095 N2103 1.427 . S
C2096 H2087 0.930 . S
C2096 C2094 1.378 . S
C2096 C2097 1.367 . S
C2097 C2096 1.367 . S
C2097 C2099 1.433 . S
C2098 C2094 1.350 . S
C2098 C2095 1.463 . S
C2098 N2102 1.427 . S
C2099 H2089 0.929 . S
C2099 C2097 1.433 . S
C2099 N2102 1.384 . S
C2100 H2091 0.929 . S
C2100 C2092 1.378 . S
C2100 C2095 1.350 . S
C2101 H2088 0.929 . S
C2101 C2093 1.433 . S
C2101 N2103 1.384 . S
N2102 C2098 1.427 . S
N2102 C2099 1.384 . S
N2103 C2095 1.427 . S
N2103 C2101 1.384 . S
H2104 C2110 0.930 . S
H2105 C2114 0.930 . S
H2106 C2119 0.929 . S
H2107 C2117 0.929 . S
H2108 C2112 0.929 . S
H2109 C2118 0.929 . S
C2110 H2104 0.930 . S
C2110 C2111 1.367 . S
C2110 C2118 1.378 . S
C2111 C2110 1.367 . S
C2111 C2119 1.433 . S
C2112 H2108 0.929 . S
C2112 C2114 1.378 . S
C2112 C2116 1.350 . S
C2113 C2116 1.463 . S
C2113 C2118 1.350 . S
C2113 N2121 1.427 . S
C2114 H2105 0.930 . S
C2114 C2112 1.378 . S
C2114 C2115 1.367 . S
C2115 C2114 1.367 . S
C2115 C2117 1.433 . S
C2116 C2112 1.350 . S
C2116 C2113 1.463 . S
C2116 N2120 1.427 . S
C2117 H2107 0.929 . S
C2117 C2115 1.433 . S
C2117 N2120 1.384 . S
C2118 H2109 0.929 . S
C2118 C2110 1.378 . S
C2118 C2113 1.350 . S
C2119 H2106 0.929 . S
C2119 C2111 1.433 . S
C2119 N2121 1.384 . S
N2120 C2116 1.427 . S
N2120 C2117 1.384 . S
N2121 C2113 1.427 . S
N2121 C2119 1.384 . S
H2122 C2128 0.930 . S
H2123 C2132 0.930 . S
H2124 C2137 0.929 . S
H2125 C2135 0.929 . S
H2126 C2130 0.929 . S
H2127 C2136 0.929 . S
C2128 H2122 0.930 . S
C2128 C2129 1.367 . S
C2128 C2136 1.378 . S
C2129 C2128 1.367 . S
C2129 C2137 1.433 . S
C2130 H2126 0.929 . S
C2130 C2132 1.378 . S
C2130 C2134 1.350 . S
C2131 C2134 1.463 . S
C2131 C2136 1.350 . S
C2131 N2139 1.427 . S
C2132 H2123 0.930 . S
C2132 C2130 1.378 . S
C2132 C2133 1.367 . S
C2133 C2132 1.367 . S
C2133 C2135 1.433 . S
C2134 C2130 1.350 . S
C2134 C2131 1.463 . S
C2134 N2138 1.427 . S
C2135 H2125 0.929 . S
C2135 C2133 1.433 . S
C2135 N2138 1.384 . S
C2136 H2127 0.929 . S
C2136 C2128 1.378 . S
C2136 C2131 1.350 . S
C2137 H2124 0.929 . S
C2137 C2129 1.433 . S
C2137 N2139 1.384 . S
N2138 C2134 1.427 . S
N2138 C2135 1.384 . S
N2139 C2131 1.427 . S
N2139 C2137 1.384 . S
H2140 C2146 0.930 . S
H2141 C2150 0.930 . S
H2142 C2155 0.929 . S
H2143 C2153 0.929 . S
H2144 C2148 0.929 . S
H2145 C2154 0.929 . S
C2146 H2140 0.930 . S
C2146 C2147 1.367 . S
C2146 C2154 1.378 . S
C2147 C2146 1.367 . S
C2147 C2155 1.433 . S
C2148 H2144 0.929 . S
C2148 C2150 1.378 . S
C2148 C2152 1.350 . S
C2149 C2152 1.463 . S
C2149 C2154 1.350 . S
C2149 N2157 1.427 . S
C2150 H2141 0.930 . S
C2150 C2148 1.378 . S
C2150 C2151 1.367 . S
C2151 C2150 1.367 . S
C2151 C2153 1.433 . S
C2152 C2148 1.350 . S
C2152 C2149 1.463 . S
C2152 N2156 1.427 . S
C2153 H2143 0.929 . S
C2153 C2151 1.433 . S
C2153 N2156 1.384 . S
C2154 H2145 0.929 . S
C2154 C2146 1.378 . S
C2154 C2149 1.350 . S
C2155 H2142 0.929 . S
C2155 C2147 1.433 . S
C2155 N2157 1.384 . S
N2156 C2152 1.427 . S
N2156 C2153 1.384 . S
N2157 C2149 1.427 . S
N2157 C2155 1.384 . S
H2158 C2164 0.930 . S
H2159 C2168 0.930 . S
H2160 C2173 0.929 . S
H2161 C2171 0.929 . S
H2162 C2166 0.929 . S
H2163 C2172 0.929 . S
C2164 H2158 0.930 . S
C2164 C2165 1.367 . S
C2164 C2172 1.378 . S
C2165 C2164 1.367 . S
C2165 C2173 1.433 . S
C2166 H2162 0.929 . S
C2166 C2168 1.378 . S
C2166 C2170 1.350 . S
C2167 C2170 1.463 . S
C2167 C2172 1.350 . S
C2167 N2175 1.427 . S
C2168 H2159 0.930 . S
C2168 C2166 1.378 . S
C2168 C2169 1.367 . S
C2169 C2168 1.367 . S
C2169 C2171 1.433 . S
C2170 C2166 1.350 . S
C2170 C2167 1.463 . S
C2170 N2174 1.427 . S
C2171 H2161 0.929 . S
C2171 C2169 1.433 . S
C2171 N2174 1.384 . S
C2172 H2163 0.929 . S
C2172 C2164 1.378 . S
C2172 C2167 1.350 . S
C2173 H2160 0.929 . S
C2173 C2165 1.433 . S
C2173 N2175 1.384 . S
N2174 C2170 1.427 . S
N2174 C2171 1.384 . S
N2175 C2167 1.427 . S
N2175 C2173 1.384 . S
H2176 C2182 0.930 . S
H2177 C2186 0.930 . S
H2178 C2191 0.929 . S
H2179 C2189 0.929 . S
H2180 C2184 0.929 . S
H2181 C2190 0.929 . S
C2182 H2176 0.930 . S
C2182 C2183 1.367 . S
C2182 C2190 1.378 . S
C2183 C2182 1.367 . S
C2183 C2191 1.433 . S
C2184 H2180 0.929 . S
C2184 C2186 1.378 . S
C2184 C2188 1.350 . S
C2185 C2188 1.463 . S
C2185 C2190 1.350 . S
C2185 N2193 1.427 . S
C2186 H2177 0.930 . S
C2186 C2184 1.378 . S
C2186 C2187 1.367 . S
C2187 C2186 1.367 . S
C2187 C2189 1.433 . S
C2188 C2184 1.350 . S
C2188 C2185 1.463 . S
C2188 N2192 1.427 . S
C2189 H2179 0.929 . S
C2189 C2187 1.433 . S
C2189 N2192 1.384 . S
C2190 H2181 0.929 . S
C2190 C2182 1.378 . S
C2190 C2185 1.350 . S
C2191 H2178 0.929 . S
C2191 C2183 1.433 . S
C2191 N2193 1.384 . S
N2192 C2188 1.427 . S
N2192 C2189 1.384 . S
N2193 C2185 1.427 . S
N2193 C2191 1.384 . S
H2194 C2200 0.930 . S
H2195 C2204 0.930 . S
H2196 C2209 0.929 . S
H2197 C2207 0.929 . S
H2198 C2202 0.929 . S
H2199 C2208 0.929 . S
C2200 H2194 0.930 . S
C2200 C2201 1.367 . S
C2200 C2208 1.378 . S
C2201 C2200 1.367 . S
C2201 C2209 1.433 . S
C2202 H2198 0.929 . S
C2202 C2204 1.378 . S
C2202 C2206 1.350 . S
C2203 C2206 1.463 . S
C2203 C2208 1.350 . S
C2203 N2211 1.427 . S
C2204 H2195 0.930 . S
C2204 C2202 1.378 . S
C2204 C2205 1.367 . S
C2205 C2204 1.367 . S
C2205 C2207 1.433 . S
C2206 C2202 1.350 . S
C2206 C2203 1.463 . S
C2206 N2210 1.427 . S
C2207 H2197 0.929 . S
C2207 C2205 1.433 . S
C2207 N2210 1.384 . S
C2208 H2199 0.929 . S
C2208 C2200 1.378 . S
C2208 C2203 1.350 . S
C2209 H2196 0.929 . S
C2209 C2201 1.433 . S
C2209 N2211 1.384 . S
N2210 C2206 1.427 . S
N2210 C2207 1.384 . S
N2211 C2203 1.427 . S
N2211 C2209 1.384 . S
H2212 C2218 0.930 . S
H2213 C2222 0.930 . S
H2214 C2227 0.929 . S
H2215 C2225 0.929 . S
H2216 C2220 0.929 . S
H2217 C2226 0.929 . S
C2218 H2212 0.930 . S
C2218 C2219 1.367 . S
C2218 C2226 1.378 . S
C2219 C2218 1.367 . S
C2219 C2227 1.433 . S
C2220 H2216 0.929 . S
C2220 C2222 1.378 . S
C2220 C2224 1.350 . S
C2221 C2224 1.463 . S
C2221 C2226 1.350 . S
C2221 N2229 1.427 . S
C2222 H2213 0.930 . S
C2222 C2220 1.378 . S
C2222 C2223 1.367 . S
C2223 C2222 1.367 . S
C2223 C2225 1.433 . S
C2224 C2220 1.350 . S
C2224 C2221 1.463 . S
C2224 N2228 1.427 . S
C2225 H2215 0.929 . S
C2225 C2223 1.433 . S
C2225 N2228 1.384 . S
C2226 H2217 0.929 . S
C2226 C2218 1.378 . S
C2226 C2221 1.350 . S
C2227 H2214 0.929 . S
C2227 C2219 1.433 . S
C2227 N2229 1.384 . S
N2228 C2224 1.427 . S
N2228 C2225 1.384 . S
N2229 C2221 1.427 . S
N2229 C2227 1.384 . S
H2230 C2236 0.930 . S
H2231 C2240 0.930 . S
H2232 C2245 0.929 . S
H2233 C2243 0.929 . S
H2234 C2238 0.929 . S
H2235 C2244 0.929 . S
C2236 H2230 0.930 . S
C2236 C2237 1.367 . S
C2236 C2244 1.378 . S
C2237 C2236 1.367 . S
C2237 C2245 1.433 . S
C2238 H2234 0.929 . S
C2238 C2240 1.378 . S
C2238 C2242 1.350 . S
C2239 C2242 1.463 . S
C2239 C2244 1.350 . S
C2239 N2247 1.427 . S
C2240 H2231 0.930 . S
C2240 C2238 1.378 . S
C2240 C2241 1.367 . S
C2241 C2240 1.367 . S
C2241 C2243 1.433 . S
C2242 C2238 1.350 . S
C2242 C2239 1.463 . S
C2242 N2246 1.427 . S
C2243 H2233 0.929 . S
C2243 C2241 1.433 . S
C2243 N2246 1.384 . S
C2244 H2235 0.929 . S
C2244 C2236 1.378 . S
C2244 C2239 1.350 . S
C2245 H2232 0.929 . S
C2245 C2237 1.433 . S
C2245 N2247 1.384 . S
N2246 C2242 1.427 . S
N2246 C2243 1.384 . S
N2247 C2239 1.427 . S
N2247 C2245 1.384 . S
H2248 C2254 0.930 . S
H2249 C2258 0.930 . S
H2250 C2263 0.929 . S
H2251 C2261 0.929 . S
H2252 C2256 0.929 . S
H2253 C2262 0.929 . S
C2254 H2248 0.930 . S
C2254 C2255 1.367 . S
C2254 C2262 1.378 . S
C2255 C2254 1.367 . S
C2255 C2263 1.433 . S
C2256 H2252 0.929 . S
C2256 C2258 1.378 . S
C2256 C2260 1.350 . S
C2257 C2260 1.463 . S
C2257 C2262 1.350 . S
C2257 N2265 1.427 . S
C2258 H2249 0.930 . S
C2258 C2256 1.378 . S
C2258 C2259 1.367 . S
C2259 C2258 1.367 . S
C2259 C2261 1.433 . S
C2260 C2256 1.350 . S
C2260 C2257 1.463 . S
C2260 N2264 1.427 . S
C2261 H2251 0.929 . S
C2261 C2259 1.433 . S
C2261 N2264 1.384 . S
C2262 H2253 0.929 . S
C2262 C2254 1.378 . S
C2262 C2257 1.350 . S
C2263 H2250 0.929 . S
C2263 C2255 1.433 . S
C2263 N2265 1.384 . S
N2264 C2260 1.427 . S
N2264 C2261 1.384 . S
N2265 C2257 1.427 . S
N2265 C2263 1.384 . S
H2266 C2272 0.930 . S
H2267 C2276 0.930 . S
H2268 C2281 0.929 . S
H2269 C2279 0.929 . S
H2270 C2274 0.929 . S
H2271 C2280 0.929 . S
C2272 H2266 0.930 . S
C2272 C2273 1.367 . S
C2272 C2280 1.378 . S
C2273 C2272 1.367 . S
C2273 C2281 1.433 . S
C2274 H2270 0.929 . S
C2274 C2276 1.378 . S
C2274 C2278 1.350 . S
C2275 C2278 1.463 . S
C2275 C2280 1.350 . S
C2275 N2283 1.427 . S
C2276 H2267 0.930 . S
C2276 C2274 1.378 . S
C2276 C2277 1.367 . S
C2277 C2276 1.367 . S
C2277 C2279 1.433 . S
C2278 C2274 1.350 . S
C2278 C2275 1.463 . S
C2278 N2282 1.427 . S
C2279 H2269 0.929 . S
C2279 C2277 1.433 . S
C2279 N2282 1.384 . S
C2280 H2271 0.929 . S
C2280 C2272 1.378 . S
C2280 C2275 1.350 . S
C2281 H2268 0.929 . S
C2281 C2273 1.433 . S
C2281 N2283 1.384 . S
N2282 C2278 1.427 . S
N2282 C2279 1.384 . S
N2283 C2275 1.427 . S
N2283 C2281 1.384 . S
H2284 C2290 0.930 1_565 S
H2285 C2294 0.930 . S
H2286 C2299 0.929 . S
H2287 C2297 0.929 . S
H2288 C2292 0.929 . S
H2289 C2298 0.929 . S
C2290 H2284 0.930 1_545 S
C2290 C2291 1.367 . S
C2290 C2298 1.378 . S
C2291 C2290 1.367 . S
C2291 C2299 1.433 . S
C2292 H2288 0.929 . S
C2292 C2294 1.378 . S
C2292 C2296 1.350 . S
C2293 C2296 1.463 . S
C2293 C2298 1.350 . S
C2293 N2301 1.427 . S
C2294 H2285 0.930 . S
C2294 C2292 1.378 . S
C2294 C2295 1.367 . S
C2295 C2294 1.367 . S
C2295 C2297 1.433 . S
C2296 C2292 1.350 . S
C2296 C2293 1.463 . S
C2296 N2300 1.427 . S
C2297 H2287 0.929 . S
C2297 C2295 1.433 . S
C2297 N2300 1.384 . S
C2298 H2289 0.929 . S
C2298 C2290 1.378 . S
C2298 C2293 1.350 . S
C2299 H2286 0.929 . S
C2299 C2291 1.433 . S
C2299 N2301 1.384 . S
N2300 C2296 1.427 . S
N2300 C2297 1.384 . S
N2301 C2293 1.427 . S
N2301 C2299 1.384 . S
H2302 C2308 0.930 . S
H2303 C2312 0.930 . S
H2304 C2317 0.929 . S
H2305 C2315 0.929 . S
H2306 C2310 0.929 . S
H2307 C2316 0.929 . S
C2308 H2302 0.930 . S
C2308 C2309 1.367 . S
C2308 C2316 1.378 . S
C2309 C2308 1.367 . S
C2309 C2317 1.433 . S
C2310 H2306 0.929 . S
C2310 C2312 1.378 . S
C2310 C2314 1.350 . S
C2311 C2314 1.463 . S
C2311 C2316 1.350 . S
C2311 N2319 1.427 . S
C2312 H2303 0.930 . S
C2312 C2310 1.378 . S
C2312 C2313 1.367 . S
C2313 C2312 1.367 . S
C2313 C2315 1.433 . S
C2314 C2310 1.350 . S
C2314 C2311 1.463 . S
C2314 N2318 1.427 . S
C2315 H2305 0.929 . S
C2315 C2313 1.433 . S
C2315 N2318 1.384 . S
C2316 H2307 0.929 . S
C2316 C2308 1.378 . S
C2316 C2311 1.350 . S
C2317 H2304 0.929 . S
C2317 C2309 1.433 . S
C2317 N2319 1.384 . S
N2318 C2314 1.427 . S
N2318 C2315 1.384 . S
N2319 C2311 1.427 . S
N2319 C2317 1.384 . S
H2320 C2326 0.930 . S
H2321 C2330 0.930 . S
H2322 C2335 0.929 . S
H2323 C2333 0.929 . S
H2324 C2328 0.929 . S
H2325 C2334 0.929 . S
C2326 H2320 0.930 . S
C2326 C2327 1.367 . S
C2326 C2334 1.378 . S
C2327 C2326 1.367 . S
C2327 C2335 1.433 . S
C2328 H2324 0.929 . S
C2328 C2330 1.378 . S
C2328 C2332 1.350 . S
C2329 C2332 1.463 . S
C2329 C2334 1.350 . S
C2329 N2337 1.427 . S
C2330 H2321 0.930 . S
C2330 C2328 1.378 . S
C2330 C2331 1.367 . S
C2331 C2330 1.367 . S
C2331 C2333 1.433 . S
C2332 C2328 1.350 . S
C2332 C2329 1.463 . S
C2332 N2336 1.427 . S
C2333 H2323 0.929 . S
C2333 C2331 1.433 . S
C2333 N2336 1.384 . S
C2334 H2325 0.929 . S
C2334 C2326 1.378 . S
C2334 C2329 1.350 . S
C2335 H2322 0.929 . S
C2335 C2327 1.433 . S
C2335 N2337 1.384 . S
N2336 C2332 1.427 . S
N2336 C2333 1.384 . S
N2337 C2329 1.427 . S
N2337 C2335 1.384 . S
H2338 C2344 0.930 . S
H2339 C2348 0.930 . S
H2340 C2353 0.929 . S
H2341 C2351 0.929 . S
H2342 C2346 0.929 . S
H2343 C2352 0.929 . S
C2344 H2338 0.930 . S
C2344 C2345 1.367 . S
C2344 C2352 1.378 . S
C2345 C2344 1.367 . S
C2345 C2353 1.433 . S
C2346 H2342 0.929 . S
C2346 C2348 1.378 . S
C2346 C2350 1.350 . S
C2347 C2350 1.463 . S
C2347 C2352 1.350 . S
C2347 N2355 1.427 . S
C2348 H2339 0.930 . S
C2348 C2346 1.378 . S
C2348 C2349 1.367 . S
C2349 C2348 1.367 . S
C2349 C2351 1.433 . S
C2350 C2346 1.350 . S
C2350 C2347 1.463 . S
C2350 N2354 1.427 . S
C2351 H2341 0.929 . S
C2351 C2349 1.433 . S
C2351 N2354 1.384 . S
C2352 H2343 0.929 . S
C2352 C2344 1.378 . S
C2352 C2347 1.350 . S
C2353 H2340 0.929 . S
C2353 C2345 1.433 . S
C2353 N2355 1.384 . S
N2354 C2350 1.427 . S
N2354 C2351 1.384 . S
N2355 C2347 1.427 . S
N2355 C2353 1.384 . S
H2356 C2362 0.930 . S
H2357 C2366 0.930 . S
H2358 C2371 0.929 1_545 S
H2359 C2369 0.929 . S
H2360 C2364 0.929 . S
H2361 C2370 0.929 . S
C2362 H2356 0.930 . S
C2362 C2363 1.367 . S
C2362 C2370 1.378 . S
C2363 C2362 1.367 . S
C2363 C2371 1.433 . S
C2364 H2360 0.929 . S
C2364 C2366 1.378 . S
C2364 C2368 1.350 . S
C2365 C2368 1.463 . S
C2365 C2370 1.350 . S
C2365 N2373 1.427 . S
C2366 H2357 0.930 . S
C2366 C2364 1.378 . S
C2366 C2367 1.367 . S
C2367 C2366 1.367 . S
C2367 C2369 1.433 . S
C2368 C2364 1.350 . S
C2368 C2365 1.463 . S
C2368 N2372 1.427 . S
C2369 H2359 0.929 . S
C2369 C2367 1.433 . S
C2369 N2372 1.384 . S
C2370 H2361 0.929 . S
C2370 C2362 1.378 . S
C2370 C2365 1.350 . S
C2371 H2358 0.929 1_565 S
C2371 C2363 1.433 . S
C2371 N2373 1.384 . S
N2372 C2368 1.427 . S
N2372 C2369 1.384 . S
N2373 C2365 1.427 . S
N2373 C2371 1.384 . S
H2374 C2380 0.930 . S
H2375 C2384 0.930 . S
H2376 C2389 0.929 . S
H2377 C2387 0.929 . S
H2378 C2382 0.929 . S
H2379 C2388 0.929 . S
C2380 H2374 0.930 . S
C2380 C2381 1.367 . S
C2380 C2388 1.378 . S
C2381 C2380 1.367 . S
C2381 C2389 1.433 . S
C2382 H2378 0.929 . S
C2382 C2384 1.378 1_455 S
C2382 C2386 1.350 . S
C2383 C2386 1.463 . S
C2383 C2388 1.350 . S
C2383 N2391 1.427 . S
C2384 H2375 0.930 . S
C2384 C2382 1.378 1_655 S
C2384 C2385 1.367 . S
C2385 C2384 1.367 . S
C2385 C2387 1.433 . S
C2386 C2382 1.350 . S
C2386 C2383 1.463 . S
C2386 N2390 1.427 1_455 S
C2387 H2377 0.929 . S
C2387 C2385 1.433 . S
C2387 N2390 1.384 . S
C2388 H2379 0.929 . S
C2388 C2380 1.378 . S
C2388 C2383 1.350 . S
C2389 H2376 0.929 . S
C2389 C2381 1.433 . S
C2389 N2391 1.384 . S
N2390 C2386 1.427 1_655 S
N2390 C2387 1.384 . S
N2391 C2383 1.427 . S
N2391 C2389 1.384 . S
C675 C319 1.215 . S
C671 C10 1.278 . S
C689 C16 1.276 . S
C693 C339 1.216 . S
C711 C360 1.212 . S
C707 C30 1.278 . S
C729 C387 1.219 . S
C725 C42 1.278 . S
C747 C343 1.217 . S
C743 C57 1.284 . S
C761 C69 1.269 . S
C765 C363 1.211 . S
C783 C383 1.210 . S
C779 C83 1.274 . S
C797 C101 1.271 . S
C801 C316 1.197 . S
C815 C108 1.277 . S
C819 C321 1.219 . S
C837 C338 1.208 . S
C833 C120 1.282 . S
C855 C362 1.220 . S
C851 C133 1.282 . S
C873 C386 1.216 . S
C869 C147 1.271 . S
C891 C342 1.209 . S
C887 C114 1.277 . S
C909 C365 1.197 . S
C905 C122 1.275 . S
C923 C135 1.282 . S
C927 C382 1.222 . S
C945 C318 1.220 . S
C941 C153 1.276 . S
C959 C160 1.272 . S
C963 C320 1.218 . S
C977 C174 1.281 . S
C981 C407 1.220 . S
C999 C427 1.221 . S
C995 C187 1.283 . S
C1017 C450 1.197 . S
C1013 C205 1.271 . S
C1031 C212 1.275 . S
C1035 C317 1.220 . S
C1049 C226 1.284 . S
C1053 C361 1.216 . S
C1071 C451 1.220 . S
C1067 C185 1.279 . S
C1089 C406 1.211 . S
C1085 C244 1.278 . S
C1107 C474 1.195 . S
C1103 C23 1.240 . S
C1125 C495 1.184 . S
C1121 C5 1.246 . S
C1139 C49 1.239 . S
C1143 C514 1.196 . S
C1157 C29 1.244 . S
C1161 C539 1.202 . S
C1175 C94 1.249 . S
C1179 C494 1.183 . S
C1193 C88 1.238 . S
C1197 C519 1.201 . S
C1215 C538 1.186 . S
C1211 C70 1.247 . S
C1229 C62 1.239 . S
C1233 C471 1.200 . S
C1247 C257 1.244 . S
C1251 C475 1.183 . S
C1269 C496 1.189 . S
C1265 C200 1.248 . S
C1287 C515 1.196 . S
C1283 C211 1.243 . S
C1305 C540 1.199 . S
C1301 C179 1.239 . S
C1323 C492 1.194 . S
C1319 C251 1.240 . S
C1341 C517 1.181 . S
C1337 C198 1.248 . S
C1359 C536 1.203 . S
C1355 C213 1.244 . S
C1373 C173 1.241 . S
C1377 C472 1.192 . S
C1395 C473 1.182 . S
C1391 C264 1.245 . S
C1409 C148 1.247 . S
C1413 C559 1.183 . S
C1431 C584 1.195 . S
C1427 C278 1.245 . S
C1445 C127 1.238 . S
C1449 C603 1.200 . S
C1467 C470 1.195 . S
C1463 C140 1.241 . S
C1485 C516 1.183 . S
C1481 C289 1.249 . S
C1503 C607 1.194 . S
C1499 C276 1.244 . S
C1517 C303 1.239 . S
C1521 C563 1.198 . S
C1535 C36 1.267 . S
C1539 C627 1.204 . S
C1553 C44 1.273 . S
C1557 C405 1.204 . S
C1575 C429 1.215 . S
C1571 C4 1.278 . S
C1589 C18 1.277 . S
C1593 C453 1.216 . S
C1607 C81 1.274 . S
C1611 C409 1.201 . S
C1625 C95 1.273 . S
C1629 C426 1.219 . S
C1647 C449 1.217 . S
C1643 C55 1.282 . S
C1665 C624 1.220 . S
C1661 C75 1.276 . S
C1683 C629 1.196 . S
C1679 C277 1.269 . S
C1701 C404 1.202 . S
C1697 C263 1.280 . S
C1719 C431 1.202 . S
C1715 C302 1.279 . S
C1733 C290 1.267 . S
C1737 C452 1.199 . S
C1755 C408 1.200 . S
C1751 C283 1.267 . S
C1769 C265 1.278 . S
C1773 C428 1.200 . S
C1791 C448 1.201 . S
C1787 C304 1.279 . S
C1805 C296 1.267 . S
C1809 C626 1.202 . S
C1827 C628 1.213 . S
C1823 C199 1.269 . S
C1841 C224 1.278 . S
C1845 C341 1.219 . S
C1863 C364 1.221 . S
C1859 C252 1.280 . S
C1877 C166 1.271 . S
C1881 C384 1.216 . S
C1899 C625 1.210 . S
C1895 C238 1.268 . S
C1917 C430 1.199 . S
C1913 C172 1.276 . S
C1935 C385 1.220 . S
C1931 C250 1.279 . S
C1953 C340 1.198 . S
C1949 C218 1.268 . S
C1967 C43 1.243 . S
C1971 C651 1.185 . S
C1985 C31 1.243 . S
C1989 C561 1.197 . S
C2003 C17 1.243 . S
C2007 C580 1.185 . S
C2025 C605 1.192 . S
C2021 C3 1.246 . S
C2043 C560 1.203 . S
C2039 C68 1.244 . S
C2057 C56 1.239 . S
C2061 C585 1.199 . S
C2079 C604 1.201 . S
C2075 C96 1.243 . S
C2093 C82 1.244 . S
C2097 C646 1.182 . S
C2115 C649 1.201 . S
C2111 C192 1.238 . S
C2129 C161 1.244 . S
C2133 C562 1.202 . S
C2147 C237 1.244 . S
C2151 C581 1.197 . S
C2169 C606 1.201 . S
C2165 C225 1.238 . S
C2187 C558 1.193 . S
C2183 C186 1.242 . S
C2201 C159 1.247 . S
C2205 C583 1.184 . S
C2223 C602 1.202 . S
C2219 C239 1.244 . S
C2241 C647 1.184 . S
C2237 C231 1.245 . S
C2259 C650 1.193 . S
C2255 C121 1.242 . S
C2277 C493 1.182 . S
C2273 C291 1.248 . S
C2291 C109 1.247 . S
C2295 C518 1.187 . S
C2309 C270 1.240 . S
C2313 C537 1.195 . S
C2331 C648 1.198 . S
C2327 C309 1.239 . S
C2349 C582 1.201 . S
C2345 C146 1.245 . S
C2367 C541 1.189 . S
C2363 C107 1.246 . S
C2385 C497 1.201 . S
C2381 C134 1.238 . S
