# Generated by pormake.
# Topology ant, (3,6)-cn, num edge types: 1
# Building blocks:
#     Node 0, Type 0, BuildingBlock: WUSLED_clean_sbu_0, # of connection points: 3
#     Node 1, Type 0, BuildingBlock: WUSLED_clean_sbu_0, # of connection points: 3
#     Node 2, Type 0, BuildingBlock: WUSLED_clean_sbu_0, # of connection points: 3
#     Node 3, Type 0, BuildingBlock: WUSLED_clean_sbu_0, # of connection points: 3
#     Node 4, Type 0, BuildingBlock: WUSLED_clean_sbu_0, # of connection points: 3
#     Node 5, Type 0, BuildingBlock: WUSLED_clean_sbu_0, # of connection points: 3
#     Node 6, Type 0, BuildingBlock: WUSLED_clean_sbu_0, # of connection points: 3
#     Node 7, Type 0, BuildingBlock: WUSLED_clean_sbu_0, # of connection points: 3
#     Node 8, Type 1, BuildingBlock: MIDCAF_clean_sbu_0, # of connection points: 6
#     Node 9, Type 1, BuildingBlock: MIDCAF_clean_sbu_0, # of connection points: 6
#     Node 10, Type 1, BuildingBlock: MIDCAF_clean_sbu_0, # of connection points: 6
#     Node 11, Type 1, BuildingBlock: MIDCAF_clean_sbu_0, # of connection points: 6
#     Edge 12, Type (0, 1), BuildingBlock: EYOCIG_clean_linker_4, # of connection points: 2
#     Edge 13, Type (0, 1), BuildingBlock: EYOCIG_clean_linker_4, # of connection points: 2
#     Edge 14, Type (0, 1), BuildingBlock: EYOCIG_clean_linker_4, # of connection points: 2
#     Edge 15, Type (0, 1), BuildingBlock: EYOCIG_clean_linker_4, # of connection points: 2
#     Edge 16, Type (0, 1), BuildingBlock: EYOCIG_clean_linker_4, # of connection points: 2
#     Edge 17, Type (0, 1), BuildingBlock: EYOCIG_clean_linker_4, # of connection points: 2
#     Edge 18, Type (0, 1), BuildingBlock: EYOCIG_clean_linker_4, # of connection points: 2
#     Edge 19, Type (0, 1), BuildingBlock: EYOCIG_clean_linker_4, # of connection points: 2
#     Edge 20, Type (0, 1), BuildingBlock: EYOCIG_clean_linker_4, # of connection points: 2
#     Edge 21, Type (0, 1), BuildingBlock: EYOCIG_clean_linker_4, # of connection points: 2
#     Edge 22, Type (0, 1), BuildingBlock: EYOCIG_clean_linker_4, # of connection points: 2
#     Edge 23, Type (0, 1), BuildingBlock: EYOCIG_clean_linker_4, # of connection points: 2
#     Edge 24, Type (0, 1), BuildingBlock: EYOCIG_clean_linker_4, # of connection points: 2
#     Edge 25, Type (0, 1), BuildingBlock: EYOCIG_clean_linker_4, # of connection points: 2
#     Edge 26, Type (0, 1), BuildingBlock: EYOCIG_clean_linker_4, # of connection points: 2
#     Edge 27, Type (0, 1), BuildingBlock: EYOCIG_clean_linker_4, # of connection points: 2
#     Edge 28, Type (0, 1), BuildingBlock: EYOCIG_clean_linker_4, # of connection points: 2
#     Edge 29, Type (0, 1), BuildingBlock: EYOCIG_clean_linker_4, # of connection points: 2
#     Edge 30, Type (0, 1), BuildingBlock: EYOCIG_clean_linker_4, # of connection points: 2
#     Edge 31, Type (0, 1), BuildingBlock: EYOCIG_clean_linker_4, # of connection points: 2
#     Edge 32, Type (0, 1), BuildingBlock: EYOCIG_clean_linker_4, # of connection points: 2
#     Edge 33, Type (0, 1), BuildingBlock: EYOCIG_clean_linker_4, # of connection points: 2
#     Edge 34, Type (0, 1), BuildingBlock: EYOCIG_clean_linker_4, # of connection points: 2
#     Edge 35, Type (0, 1), BuildingBlock: EYOCIG_clean_linker_4, # of connection points: 2
# Relax obj value: 0.097
# Max RMSD: 0.155
# Mean RMSD: 0.100
data_MOF--net-ant--node1-WUSLED_clean_sbu_0--node2-MIDCAF_clean_sbu_0--edge1-EYOCIG_clean_linker_4
_symmetry_space_group_name_H-M    P1
_symmetry_Int_Tables_number       1
_symmetry_cell_setting            triclinic
loop_
_symmetry_equiv_pos_as_xyz
'x, y, z'
_cell_length_a     31.277281
_cell_length_b     30.894627
_cell_length_c     82.716824
_cell_angle_alpha  90.028643
_cell_angle_beta   95.036563
_cell_angle_gamma 90.130435
loop_
_atom_site_label
_atom_site_type_symbol
_atom_site_fract_x
_atom_site_fract_y
_atom_site_fract_z
_atom_type_partial_charge
C0 C 0.19177 0.13431 0.10094 0.0
C1 C 0.18846 0.1002 0.08969 0.0
C2 C 0.19851 0.04899 0.11201 0.0
C3 C 0.19168 0.0574 0.09529 0.0
C4 C 0.20189 0.08313 0.1231 0.0
C5 C 0.19845 0.12554 0.11756 0.0
U6 U 0.19307 0.24495 0.07641 0.0
O7 O 0.16467 0.3027 0.08681 0.0
O8 O 0.23541 0.29903 0.08492 0.0
C9 C 0.20271 0.32059 0.08979 0.0
C10 C 0.19142 0.17982 0.09634 0.0
C11 C 0.20802 0.3627 0.09765 0.0
C12 C 0.19959 0.40933 0.12083 0.0
C13 C 0.20381 0.36773 0.11433 0.0
C14 C 0.20657 0.44022 0.09422 0.0
C15 C 0.19914 0.4455 0.11052 0.0
C16 C 0.21106 0.39905 0.08782 0.0
C17 C 0.19085 0.23675 0.0277 0.0
C18 C 0.19076 0.27676 1.00241 0.0
C19 C 0.19577 0.19839 1.00248 0.0
C20 C 0.19482 0.19813 0.01919 0.0
C21 C 0.19239 0.23731 0.99396 0.0
C22 C 0.18996 0.27652 0.0194 0.0
C23 C 0.18912 0.23242 0.04521 0.0
O24 O 0.22712 0.1961 0.09168 0.0
O25 O 0.15612 0.1972 0.08936 0.0
O26 O 0.15542 0.24505 0.05246 0.0
O27 O 0.22494 0.22868 0.05461 0.0
H28 H 0.18373 0.10659 0.07679 0.0
H29 H 0.1889 0.03098 0.08664 0.0
H30 H 0.20704 0.07707 0.13603 0.0
H31 H 0.20146 0.15174 0.12632 0.0
H32 H 0.19411 0.41297 0.13351 0.0
H33 H 0.20146 0.33964 0.12206 0.0
H34 H 0.20639 0.46788 0.08616 0.0
H35 H 0.21409 0.39551 0.07493 0.0
H36 H 0.18832 0.3072 0.99589 0.0
H37 H 0.19725 0.1678 0.99613 0.0
H38 H 0.19628 0.16733 0.02548 0.0
H39 H 0.18775 0.30675 0.02592 0.0
C40 C 0.232 0.75635 0.35218 0.0
C41 C 0.26395 0.75479 0.3413 0.0
C42 C 0.31804 0.7686 0.36373 0.0
C43 C 0.30708 0.76067 0.34714 0.0
C44 C 0.28609 0.76926 0.3745 0.0
C45 C 0.24339 0.76304 0.36874 0.0
U46 U 0.11903 0.75896 0.32607 0.0
O47 O 0.06266 0.73007 0.33627 0.0
O48 O 0.06656 0.80152 0.33276 0.0
C49 C 0.04558 0.76837 0.33818 0.0
C50 C 0.18606 0.75591 0.34716 0.0
C51 C 0.00496 0.77349 0.34558 0.0
C52 C 0.962 0.77001 0.36876 0.0
C53 C 0.00237 0.77039 0.36247 0.0
C54 C 0.92761 0.77724 0.34146 0.0
C55 C 0.92449 0.77231 0.35811 0.0
C56 C 0.96749 0.77793 0.33526 0.0
C57 C 0.12133 0.75964 0.27744 0.0
C58 C 0.07453 0.7653 0.25251 0.0
C59 C 0.15171 0.76941 0.25164 0.0
C60 C 0.15701 0.7645 0.26844 0.0
C61 C 0.11051 0.76934 0.24358 0.0
C62 C 0.07985 0.76046 0.26946 0.0
C63 C 0.13005 0.75583 0.2951 0.0
O64 O 0.16917 0.79224 0.34145 0.0
O65 O 0.16781 0.72073 0.34075 0.0
O66 O 0.11654 0.72213 0.30299 0.0
O67 O 0.13429 0.79152 0.3037 0.0
H68 H 0.2556 0.75006 0.32843 0.0
H69 H 0.33173 0.7599 0.33872 0.0
H70 H 0.29401 0.77521 0.38733 0.0
H71 H 0.2189 0.76472 0.37722 0.0
H72 H 0.96008 0.76638 0.38171 0.0
H73 H 0.03121 0.76701 0.37063 0.0
H74 H 0.89895 0.7791 0.33312 0.0
H75 H 0.96898 0.78021 0.32225 0.0
H76 H 0.04247 0.76509 0.24637 0.0
H77 H 0.17984 0.77235 0.24494 0.0
H78 H 0.18923 0.76433 0.27446 0.0
H79 H 0.05193 0.75722 0.27623 0.0
C80 C 0.6955 0.62903 0.60153 0.0
C81 C 0.69189 0.59472 0.59038 0.0
C82 C 0.70263 0.54388 0.6128 0.0
C83 C 0.69531 0.55202 0.59607 0.0
C84 C 0.70628 0.57823 0.6238 0.0
C85 C 0.70266 0.62054 0.61817 0.0
U86 U 0.69613 0.73975 0.57693 0.0
O87 O 0.66795 0.79731 0.58763 0.0
O88 O 0.73855 0.79362 0.58545 0.0
C89 C 0.70615 0.81483 0.59072 0.0
C90 C 0.69501 0.67445 0.5968 0.0
C91 C 0.71182 0.85728 0.59828 0.0
C92 C 0.70392 0.90412 0.62143 0.0
C93 C 0.70805 0.86252 0.61497 0.0
C94 C 0.71026 0.93475 0.59474 0.0
C95 C 0.70322 0.94018 0.61108 0.0
C96 C 0.71457 0.8935 0.58835 0.0
C97 C 0.69264 0.73162 0.52814 0.0
C98 C 0.69189 0.77123 0.50274 0.0
C99 C 0.69699 0.69287 0.50295 0.0
C100 C 0.69643 0.69286 0.51968 0.0
C101 C 0.69339 0.73167 0.49435 0.0
C102 C 0.69149 0.77124 0.51975 0.0
C103 C 0.69149 0.72768 0.54569 0.0
O104 O 0.73057 0.69074 0.59201 0.0
O105 O 0.65956 0.69178 0.58993 0.0
O106 O 0.65804 0.74037 0.55307 0.0
O107 O 0.72748 0.7236 0.55497 0.0
H108 H 0.6868 0.60089 0.57747 0.0
H109 H 0.69232 0.52546 0.58748 0.0
H110 H 0.71183 0.57238 0.63673 0.0
H111 H 0.70591 0.6469 0.62686 0.0
H112 H 0.69868 0.90783 0.63413 0.0
H113 H 0.70585 0.83452 0.62274 0.0
H114 H 0.70985 0.96236 0.58665 0.0
H115 H 0.7172 0.88981 0.57544 0.0
H116 H 0.68928 0.80157 0.49617 0.0
H117 H 0.69836 0.66219 0.49665 0.0
H118 H 0.6981 0.66216 0.52605 0.0
H119 H 0.68943 0.80157 0.52621 0.0
C120 C 0.73508 0.25043 0.85315 0.0
C121 C 0.76748 0.24877 0.84245 0.0
C122 C 0.82063 0.26406 0.86506 0.0
C123 C 0.81037 0.25533 0.84848 0.0
C124 C 0.78827 0.26458 0.87566 0.0
C125 C 0.74581 0.25767 0.86972 0.0
U126 U 0.62229 0.25237 0.82677 0.0
O127 O 0.56593 0.2237 0.83705 0.0
O128 O 0.56971 0.29505 0.83333 0.0
C129 C 0.5487 0.262 0.83881 0.0
C130 C 0.68927 0.24982 0.84789 0.0
C131 C 0.50827 0.26722 0.84638 0.0
C132 C 0.46585 0.26515 0.86976 0.0
C133 C 0.50606 0.26488 0.86331 0.0
C134 C 0.43086 0.27132 0.84253 0.0
C135 C 0.42807 0.26735 0.85923 0.0
C136 C 0.47056 0.27137 0.83617 0.0
C137 C 0.62471 0.25161 0.77809 0.0
C138 C 0.57791 0.25614 0.75312 0.0
C139 C 0.65507 0.2601 0.75218 0.0
C140 C 0.66039 0.25601 0.76904 0.0
C141 C 0.61378 0.25975 0.74412 0.0
C142 C 0.58325 0.25206 0.77009 0.0
C143 C 0.63332 0.24849 0.7958 0.0
O144 O 0.6724 0.28602 0.84204 0.0
O145 O 0.67116 0.21448 0.84157 0.0
O146 O 0.62002 0.21495 0.80383 0.0
O147 O 0.63736 0.28443 0.80425 0.0
H148 H 0.75964 0.2436 0.82958 0.0
H149 H 0.83535 0.25466 0.8402 0.0
H150 H 0.79565 0.27116 0.88847 0.0
H151 H 0.72097 0.25941 0.87805 0.0
H152 H 0.46424 0.26229 0.88275 0.0
H153 H 0.53507 0.26175 0.8714 0.0
H154 H 0.40204 0.27313 0.83427 0.0
H155 H 0.47172 0.27309 0.82314 0.0
H156 H 0.54586 0.25576 0.74699 0.0
H157 H 0.6832 0.2628 0.74546 0.0
H158 H 0.69259 0.25612 0.77508 0.0
H159 H 0.5553 0.24914 0.77686 0.0
C160 C 0.02637 0.85467 0.90653 0.0
C161 C 0.0257 0.88792 0.91806 0.0
C162 C 0.04874 0.93972 0.89831 0.0
C163 C 0.03652 0.93036 0.91387 0.0
C164 C 0.04684 0.90696 0.88654 0.0
C165 C 0.03554 0.8648 0.89064 0.0
U166 U 0.02587 0.74346 0.93117 0.0
O167 O 0.99737 0.68454 0.91963 0.0
O168 O 0.06821 0.68923 0.92541 0.0
C169 C 0.03523 0.66636 0.91924 0.0
C170 C 0.02437 0.80845 0.91071 0.0
C171 C 0.04038 0.62509 0.91083 0.0
C172 C 0.04345 0.58135 0.88646 0.0
C173 C 0.03955 0.622 0.89383 0.0
C174 C 0.04905 0.54734 0.91297 0.0
C175 C 0.04793 0.54388 0.89607 0.0
C176 C 0.04538 0.58764 0.92028 0.0
C177 C 0.02634 0.74885 0.97988 0.0
C178 C 0.0384 0.70131 1.00326 0.0
C179 C 0.04378 0.77902 0.00688 0.0
C180 C 0.03312 0.78465 0.99026 0.0
C181 C 0.04751 0.73726 0.0134 0.0
C182 C 0.02805 0.70695 0.9865 0.0
C183 C 0.02225 0.75793 0.96231 0.0
O184 O 0.05982 0.79123 0.91751 0.0
O185 O 0.98916 0.79169 0.91575 0.0
O186 O 0.98878 0.74439 0.95289 0.0
O187 O 0.05774 0.76082 0.95501 0.0
H188 H 0.01886 0.88083 0.93039 0.0
H189 H 0.03743 0.9555 0.92304 0.0
H190 H 0.05586 0.91345 0.87442 0.0
H191 H 0.03631 0.83943 0.88161 0.0
H192 H 0.04271 0.57913 0.87336 0.0
H193 H 0.03574 0.65072 0.88634 0.0
H194 H 0.05255 0.51876 0.92056 0.0
H195 H 0.04601 0.58955 0.93338 0.0
H196 H 0.04086 0.66886 0.00821 0.0
H197 H 0.05046 0.80722 0.01449 0.0
H198 H 0.03191 0.8172 0.98535 0.0
H199 H 0.02295 0.67884 0.97875 0.0
C200 C 0.52422 0.75374 0.15569 0.0
C201 C 0.49202 0.75186 0.16647 0.0
C202 C 0.4388 0.76909 0.14414 0.0
C203 C 0.44917 0.75927 0.16062 0.0
C204 C 0.47093 0.76976 0.13345 0.0
C205 C 0.51332 0.76197 0.13921 0.0
U206 U 0.63723 0.75451 0.18185 0.0
O207 O 0.69328 0.7262 0.17129 0.0
O208 O 0.68988 0.79741 0.17544 0.0
C209 C 0.71058 0.7646 0.16969 0.0
C210 C 0.57006 0.75275 0.16083 0.0
C211 C 0.75142 0.7702 0.16245 0.0
C212 C 0.79477 0.76956 0.13933 0.0
C213 C 0.75427 0.76874 0.14554 0.0
C214 C 0.82875 0.77444 0.16677 0.0
C215 C 0.83215 0.7715 0.15008 0.0
C216 C 0.78876 0.77391 0.17289 0.0
C217 C 0.63507 0.75197 0.23048 0.0
C218 C 0.682 0.75573 0.2554 0.0
C219 C 0.60486 0.7597 0.25642 0.0
C220 C 0.59944 0.7561 0.23955 0.0
C221 C 0.64619 0.75911 0.26442 0.0
C222 C 0.67656 0.75215 0.23844 0.0
C223 C 0.62638 0.74945 0.21279 0.0
O224 O 0.58729 0.78873 0.16682 0.0
O225 O 0.58795 0.71716 0.16694 0.0
O226 O 0.63965 0.71627 0.20457 0.0
O227 O 0.62239 0.78571 0.20455 0.0
H228 H 0.50002 0.74593 0.17929 0.0
H229 H 0.42435 0.75844 0.16897 0.0
H230 H 0.46345 0.77715 0.12072 0.0
H231 H 0.53803 0.76391 0.13083 0.0
H232 H 0.79689 0.76743 0.12635 0.0
H233 H 0.72555 0.76592 0.13726 0.0
H234 H 0.85729 0.77599 0.17519 0.0
H235 H 0.78705 0.77493 0.18591 0.0
H236 H 0.71407 0.75513 0.26152 0.0
H237 H 0.57679 0.76218 0.26318 0.0
H238 H 0.56721 0.75639 0.23353 0.0
H239 H 0.70445 0.74942 0.23162 0.0
C240 C 0.53118 0.35105 0.4064 0.0
C241 C 0.5304 0.38393 0.41807 0.0
C242 C 0.55169 0.43666 0.39835 0.0
C243 C 0.54031 0.42665 0.41397 0.0
C244 C 0.55006 0.40422 0.38647 0.0
C245 C 0.5397 0.36174 0.3905 0.0
U246 U 0.53183 0.23982 0.4309 0.0
O247 O 0.5031 0.18093 0.41946 0.0
O248 O 0.57402 0.18563 0.42499 0.0
C249 C 0.54089 0.16264 0.41903 0.0
C250 C 0.52959 0.30474 0.41041 0.0
C251 C 0.54585 0.122 0.41022 0.0
C252 C 0.54763 0.07939 0.38553 0.0
C253 C 0.5443 0.11973 0.39319 0.0
C254 C 0.55413 0.04418 0.41182 0.0
C255 C 0.5522 0.0415 0.3949 0.0
C256 C 0.55105 0.08413 0.41941 0.0
C257 C 0.53342 0.24523 0.47965 0.0
C258 C 0.54594 0.19789 0.50306 0.0
C259 C 0.551 0.27564 0.50659 0.0
C260 C 0.54022 0.28112 0.48998 0.0
C261 C 0.55487 0.23394 0.51317 0.0
C262 C 0.53545 0.20338 0.4863 0.0
C263 C 0.52886 0.25424 0.46207 0.0
O264 O 0.56526 0.28769 0.41709 0.0
O265 O 0.49461 0.28777 0.41556 0.0
O266 O 0.49528 0.24049 0.45275 0.0
O267 O 0.56412 0.25738 0.45464 0.0
H268 H 0.52408 0.37636 0.43042 0.0
H269 H 0.54109 0.45155 0.42322 0.0
H270 H 0.5585 0.41123 0.37431 0.0
H271 H 0.54056 0.33664 0.38136 0.0
H272 H 0.54622 0.07771 0.37241 0.0
H273 H 0.54027 0.14879 0.3859 0.0
H274 H 0.55767 0.01525 0.41922 0.0
H275 H 0.55218 0.08543 0.43253 0.0
H276 H 0.54853 0.16548 0.50804 0.0
H277 H 0.55755 0.30391 0.51418 0.0
H278 H 0.5388 0.31364 0.48504 0.0
H279 H 0.53037 0.1752 0.47858 0.0
C280 C 0.0295 0.25055 0.65515 0.0
C281 C 0.99741 0.24879 0.66598 0.0
C282 C 0.94381 0.26427 0.64358 0.0
C283 C 0.95443 0.25539 0.66012 0.0
C284 C 0.97585 0.2649 0.63285 0.0
C285 C 0.01838 0.25794 0.63862 0.0
U286 U 0.14226 0.25243 0.68139 0.0
O287 O 0.19848 0.22402 0.67105 0.0
O288 O 0.19504 0.29531 0.67501 0.0
C289 C 0.2159 0.26236 0.66944 0.0
C290 C 0.07537 0.24997 0.66023 0.0
C291 C 0.25627 0.26773 0.66187 0.0
C292 C 0.29861 0.26597 0.63848 0.0
C293 C 0.25842 0.26558 0.64493 0.0
C294 C 0.33366 0.27178 0.66573 0.0
C295 C 0.33637 0.2681 0.64902 0.0
C296 C 0.29399 0.27172 0.67209 0.0
C297 C 0.13926 0.251 0.73003 0.0
C298 C 0.18535 0.25547 0.75518 0.0
C299 C 0.1081 0.25966 0.75573 0.0
C300 C 0.1033 0.25551 0.73889 0.0
C301 C 0.14907 0.25919 0.76398 0.0
C302 C 0.18054 0.25139 0.7382 0.0
C303 C 0.13107 0.24797 0.71232 0.0
O304 O 0.09236 0.28614 0.66615 0.0
O305 O 0.09341 0.21459 0.66647 0.0
O306 O 0.14475 0.21471 0.70426 0.0
O307 O 0.12675 0.28397 0.70393 0.0
H308 H 0.00557 0.24351 0.67882 0.0
H309 H 0.92969 0.25465 0.6685 0.0
H310 H 0.96817 0.27161 0.62007 0.0
H311 H 0.04299 0.25978 0.6302 0.0
H312 H 0.3002 0.26329 0.62548 0.0
H313 H 0.22939 0.26251 0.63684 0.0
H314 H 0.3625 0.27348 0.67399 0.0
H315 H 0.29285 0.27323 0.68513 0.0
H316 H 0.21725 0.25502 0.76147 0.0
H317 H 0.07975 0.26241 0.76231 0.0
H318 H 0.07124 0.25568 0.73272 0.0
H319 H 0.20868 0.24841 0.73154 0.0
Zn320 Zn 0.18498 0.70646 0.14894 0.0
Zn321 Zn 0.08267 0.80788 0.11147 0.0
Zn322 Zn 0.13378 0.74977 0.12803 0.0
C323 C 0.10243 0.73803 0.09112 0.0
C324 C 0.15598 0.8507 0.12216 0.0
O325 O 0.10531 0.74978 0.1518 0.0
O326 O 0.15886 0.72415 0.16843 0.0
C327 C 0.1559 0.64933 0.12465 0.0
O328 O 0.11757 0.71846 0.10417 0.0
O329 O 0.08921 0.77651 0.09143 0.0
O330 O 0.11784 0.8586 0.11688 0.0
O331 O 0.16867 0.81174 0.12546 0.0
O332 O 0.17208 0.65054 0.13913 0.0
O333 O 0.14175 0.68399 0.11725 0.0
O334 O 0.19901 0.78029 0.12984 0.0
O335 O 0.23931 0.73252 0.14414 0.0
C336 C 0.23608 0.76618 0.13558 0.0
O337 O 0.07136 0.75763 0.13961 0.0
O338 O 0.03081 0.79758 0.12199 0.0
C339 C 0.12263 0.7419 0.16624 0.0
C340 C 0.03475 0.77447 0.13453 0.0
Zn341 Zn 0.57266 0.69653 0.35969 0.0
Zn342 Zn 0.67472 0.79928 0.3968 0.0
Zn343 Zn 0.62382 0.74111 0.37986 0.0
C344 C 0.6023 0.84287 0.38566 0.0
C345 C 0.7224 0.76673 0.37345 0.0
O346 O 0.61647 0.67503 0.39106 0.0
O347 O 0.58479 0.64048 0.36966 0.0
C348 C 0.52172 0.75744 0.37254 0.0
O349 O 0.58921 0.80396 0.38221 0.0
O350 O 0.64021 0.85021 0.39141 0.0
O351 O 0.72634 0.7891 0.38619 0.0
O352 O 0.68587 0.74981 0.36824 0.0
O353 O 0.51836 0.72322 0.36427 0.0
O354 O 0.55888 0.77188 0.37813 0.0
O355 O 0.65217 0.74013 0.35618 0.0
O356 O 0.59858 0.71293 0.33992 0.0
C357 C 0.63476 0.73105 0.34187 0.0
O358 O 0.64047 0.70886 0.4033 0.0
O359 O 0.66791 0.76685 0.41647 0.0
C360 C 0.60185 0.63987 0.38403 0.0
C361 C 0.65562 0.72797 0.41644 0.0
Zn362 Zn 0.58839 0.30312 0.61167 0.0
Zn363 Zn 0.68908 0.20136 0.64899 0.0
Zn364 Zn 0.63827 0.24444 0.62822 0.0
C365 C 0.7407 0.26046 0.63582 0.0
C366 C 0.66058 0.14418 0.6247 0.0
O367 O 0.57573 0.2523 0.63962 0.0
O368 O 0.53621 0.29313 0.62199 0.0
C369 C 0.66125 0.34563 0.62271 0.0
O370 O 0.70368 0.27462 0.63004 0.0
O371 O 0.74378 0.22705 0.64452 0.0
O372 O 0.6769 0.14544 0.63916 0.0
O373 O 0.64622 0.17879 0.61732 0.0
O374 O 0.62338 0.35379 0.61717 0.0
O375 O 0.67355 0.30655 0.62604 0.0
O376 O 0.62232 0.2138 0.60417 0.0
O377 O 0.59476 0.27234 0.59153 0.0
C378 C 0.60764 0.23375 0.59113 0.0
O379 O 0.60927 0.24357 0.65202 0.0
O380 O 0.66285 0.21774 0.66859 0.0
C381 C 0.53944 0.2696 0.63442 0.0
C382 C 0.62643 0.23511 0.66645 0.0
Zn383 Zn 0.0747 0.1994 0.85982 0.0
Zn384 Zn 0.17558 0.30231 0.89616 0.0
Zn385 Zn 0.12552 0.24351 0.87972 0.0
C386 C 0.15688 0.23068 0.91603 0.0
C387 C 0.10329 0.34591 0.88597 0.0
O388 O 0.15396 0.24282 0.85601 0.0
O389 O 0.09989 0.21592 0.83992 0.0
C390 C 0.10302 0.14187 0.88369 0.0
O391 O 0.14175 0.21108 0.90301 0.0
O392 O 0.16921 0.26953 0.91584 0.0
O393 O 0.14133 0.35374 0.89143 0.0
O394 O 0.09081 0.30682 0.8824 0.0
O395 O 0.08621 0.14271 0.86929 0.0
O396 O 0.11766 0.17697 0.89079 0.0
O397 O 0.06085 0.27447 0.87835 0.0
O398 O 0.02038 0.22551 0.86466 0.0
C399 C 0.02368 0.25963 0.87298 0.0
O400 O 0.18826 0.2514 0.86832 0.0
O401 O 0.2277 0.293 0.88579 0.0
C402 C 0.13616 0.23389 0.84172 0.0
C403 C 0.22455 0.26901 0.87347 0.0
C404 C 0.17559 0.5251 0.1165 0.0
C405 C 0.18601 0.48768 0.11554 0.0
C406 C 0.16336 0.56919 0.11593 0.0
C407 C 0.15634 0.60743 0.11718 0.0
C408 C 0.84413 0.76283 0.36441 0.0
C409 C 0.88217 0.76678 0.36338 0.0
C410 C 0.79906 0.75887 0.36419 0.0
C411 C 0.76127 0.75846 0.36608 0.0
C412 C 0.70686 0.46298 0.6228 0.0
C413 C 0.70515 0.50032 0.61875 0.0
C414 C 0.70243 0.41832 0.62536 0.0
C415 C 0.68965 0.38164 0.62519 0.0
C416 C 0.90145 0.28082 0.87506 0.0
C417 C 0.86416 0.27341 0.87113 0.0
C418 C 0.94648 0.28464 0.87733 0.0
C419 C 0.98447 0.27935 0.87684 0.0
C420 C 0.05457 0.46387 0.88534 0.0
C421 C 0.05129 0.50146 0.889 0.0
C422 C 0.06201 0.41911 0.88342 0.0
C423 C 0.07527 0.38246 0.88366 0.0
C424 C 0.9128 0.76596 0.14359 0.0
C425 C 0.87467 0.76826 0.14476 0.0
C426 C 0.95799 0.76391 0.14364 0.0
C427 C 0.99577 0.76483 0.1417 0.0
C428 C 0.58106 0.51614 0.39411 0.0
C429 C 0.56802 0.47941 0.39515 0.0
C430 C 0.59461 0.56006 0.39377 0.0
C431 C 0.60162 0.59823 0.39186 0.0
C432 C 0.86301 0.28122 0.63378 0.0
C433 C 0.90025 0.27371 0.63767 0.0
C434 C 0.81804 0.28518 0.63148 0.0
C435 C 0.78002 0.27994 0.63191 0.0
C436 C 0.41678 0.26145 0.64246 0.0
C437 C 0.37864 0.26418 0.64353 0.0
C438 C 0.46201 0.25904 0.64281 0.0
C439 C 0.49997 0.25984 0.64122 0.0
C440 C 0.35834 0.78747 0.13426 0.0
C441 C 0.3954 0.77931 0.13824 0.0
C442 C 0.31341 0.79167 0.13172 0.0
C443 C 0.27534 0.78623 0.13191 0.0
C444 C 0.34756 0.26033 0.86577 0.0
C445 C 0.38573 0.2632 0.8647 0.0
C446 C 0.30226 0.25794 0.86537 0.0
C447 C 0.2642 0.25889 0.86685 0.0
C448 C 0.3995 0.7826 0.37362 0.0
C449 C 0.36198 0.77642 0.36969 0.0
C450 C 0.44464 0.78467 0.37609 0.0
C451 C 0.48253 0.77809 0.37592 0.0
C452 C 0.67987 0.01982 0.61697 0.0
C453 C 0.69023 0.98237 0.6161 0.0
C454 C 0.66772 0.06392 0.6162 0.0
C455 C 0.66078 0.10221 0.6173 0.0
C456 C 0.20213 0.96799 0.12188 0.0
C457 C 0.20068 0.00535 0.11787 0.0
C458 C 0.19731 0.9234 0.12445 0.0
C459 C 0.1843 0.88682 0.12437 0.0
C460 C 0.55684 0.96176 0.38385 0.0
C461 C 0.55442 0.99937 0.38756 0.0
C462 C 0.56301 0.9168 0.38214 0.0
C463 C 0.57522 0.87983 0.38278 0.0
C464 C 0.08015 0.01841 0.89391 0.0
C465 C 0.06619 0.98202 0.89506 0.0
C466 C 0.09457 0.06209 0.89345 0.0
C467 C 0.10211 0.10018 0.89151 0.0
C468 C 0.17897 0.22448 0.96254 0.0
C469 C 0.18507 0.23448 0.97662 0.0
C470 C 0.16857 0.21243 0.94622 0.0
C471 C 0.16013 0.21134 0.93174 0.0
C472 C 0.10116 0.77011 0.21146 0.0
C473 C 0.10545 0.76976 0.22609 0.0
C474 C 0.09909 0.76499 0.19444 0.0
C475 C 0.10418 0.75684 0.18048 0.0
C476 C 0.67937 0.71914 0.46289 0.0
C477 C 0.68573 0.72868 0.47702 0.0
C478 C 0.66844 0.70804 0.44649 0.0
C479 C 0.65947 0.70784 0.43203 0.0
C480 C 0.60477 0.26019 0.71196 0.0
C481 C 0.60836 0.25997 0.72662 0.0
C482 C 0.60268 0.25579 0.69488 0.0
C483 C 0.60761 0.24878 0.68081 0.0
C484 C 0.07594 0.7243 0.04421 0.0
C485 C 0.06305 0.73099 0.03022 0.0
C486 C 0.09014 0.71741 0.06077 0.0
C487 C 0.09908 0.71869 0.07528 0.0
C488 C 0.65557 0.7584 0.29651 0.0
C489 C 0.65175 0.7587 0.28188 0.0
C490 C 0.65782 0.75313 0.31351 0.0
C491 C 0.65288 0.74543 0.3275 0.0
C492 C 0.58255 0.22108 0.54407 0.0
C493 C 0.57 0.22782 0.53004 0.0
C494 C 0.59614 0.21392 0.56067 0.0
C495 C 0.6046 0.21483 0.57522 0.0
C496 C 0.15742 0.2594 0.79612 0.0
C497 C 0.15358 0.2593 0.78148 0.0
C498 C 0.15917 0.2548 0.81317 0.0
C499 C 0.15416 0.24764 0.82721 0.0
loop_
_geom_bond_atom_site_label_1
_geom_bond_atom_site_label_2
_geom_bond_distance
_geom_bond_site_symmetry_2
_ccdc_geom_bond_type
C0 C1 1.264 . S
C0 C5 1.479 . S
C0 C10 1.465 . S
C1 C0 1.264 . S
C1 C3 1.339 . S
C1 H28 0.931 . S
C2 C3 1.395 . S
C2 C4 1.320 . S
C3 C1 1.339 . S
C3 C2 1.395 . S
C3 H29 0.929 . S
C4 C2 1.320 . S
C4 C5 1.405 . S
C4 H30 0.930 . S
C5 C0 1.479 . S
C5 C4 1.405 . S
C5 H31 0.931 . S
U6 O7 2.454 . S
U6 O8 2.458 . S
U6 C9 2.984 . S
U6 C10 2.847 . S
U6 C23 2.882 . S
U6 O24 2.441 . S
U6 O25 2.420 . S
U6 O26 2.455 . S
U6 O27 2.449 . S
O7 U6 2.454 . S
O7 C9 1.353 . S
O8 U6 2.458 . S
O8 C9 1.286 . S
C9 U6 2.984 . S
C9 O7 1.353 . S
C9 O8 1.286 . S
C9 C11 1.363 . S
C10 C0 1.465 . S
C10 U6 2.847 . S
C10 O24 1.249 . S
C10 O25 1.202 . S
C11 C9 1.363 . S
C11 C13 1.408 . S
C11 C16 1.342 . S
C12 C13 1.310 . S
C12 C15 1.461 . S
C12 H32 0.932 . S
C13 C11 1.408 . S
C13 C12 1.310 . S
C13 H33 0.930 . S
C14 C15 1.474 . S
C14 C16 1.285 . S
C14 H34 0.929 . S
C15 C12 1.461 . S
C15 C14 1.474 . S
C16 C11 1.342 . S
C16 C14 1.285 . S
C16 H35 0.930 . S
C17 C20 1.424 . S
C17 C22 1.245 . S
C17 C23 1.428 . S
C18 C21 1.260 . S
C18 C22 1.477 1_556 S
C18 H36 0.932 . S
C19 C20 1.384 1_556 S
C19 C21 1.479 . S
C19 H37 0.929 . S
C20 C17 1.424 . S
C20 C19 1.384 1_554 S
C20 H38 0.928 . S
C21 C18 1.260 . S
C21 C19 1.479 . S
C22 C17 1.245 . S
C22 C18 1.477 1_554 S
C22 H39 0.932 . S
C23 U6 2.882 . S
C23 C17 1.428 . S
C23 O26 1.301 . S
C23 O27 1.282 . S
O24 U6 2.441 . S
O24 C10 1.249 . S
O25 U6 2.420 . S
O25 C10 1.202 . S
O26 U6 2.455 . S
O26 C23 1.301 . S
O27 U6 2.449 . S
O27 C23 1.282 . S
H28 C1 0.931 . S
H29 C3 0.929 . S
H30 C4 0.930 . S
H31 C5 0.931 . S
H32 C12 0.932 . S
H33 C13 0.930 . S
H34 C14 0.929 . S
H35 C16 0.930 . S
H36 C18 0.932 . S
H37 C19 0.929 . S
H38 C20 0.928 . S
H39 C22 0.932 . S
C40 C41 1.264 . S
C40 C45 1.479 . S
C40 C50 1.465 . S
C41 C40 1.264 . S
C41 C43 1.339 . S
C41 H68 0.931 . S
C42 C43 1.395 . S
C42 C44 1.320 . S
C43 C41 1.339 . S
C43 C42 1.395 . S
C43 H69 0.929 . S
C44 C42 1.320 . S
C44 C45 1.405 . S
C44 H70 0.930 . S
C45 C40 1.479 . S
C45 C44 1.405 . S
C45 H71 0.931 . S
U46 O47 2.454 . S
U46 O48 2.458 . S
U46 C49 2.984 . S
U46 C50 2.847 . S
U46 C63 2.882 . S
U46 O64 2.441 . S
U46 O65 2.420 . S
U46 O66 2.455 . S
U46 O67 2.449 . S
O47 U46 2.454 . S
O47 C49 1.353 . S
O48 U46 2.458 . S
O48 C49 1.286 . S
C49 U46 2.984 . S
C49 O47 1.353 . S
C49 O48 1.286 . S
C49 C51 1.363 1_455 S
C50 C40 1.465 . S
C50 U46 2.847 . S
C50 O64 1.249 . S
C50 O65 1.202 . S
C51 C49 1.363 1_655 S
C51 C53 1.408 . S
C51 C56 1.342 . S
C52 C53 1.310 . S
C52 C55 1.461 . S
C52 H72 0.932 . S
C53 C51 1.408 . S
C53 C52 1.310 . S
C53 H73 0.930 1_655 S
C54 C55 1.474 . S
C54 C56 1.285 . S
C54 H74 0.929 . S
C55 C52 1.461 . S
C55 C54 1.474 . S
C56 C51 1.342 . S
C56 C54 1.285 . S
C56 H75 0.930 . S
C57 C60 1.424 . S
C57 C62 1.245 . S
C57 C63 1.428 . S
C58 C61 1.260 . S
C58 C62 1.477 . S
C58 H76 0.932 . S
C59 C60 1.384 . S
C59 C61 1.479 . S
C59 H77 0.929 . S
C60 C57 1.424 . S
C60 C59 1.384 . S
C60 H78 0.928 . S
C61 C58 1.260 . S
C61 C59 1.479 . S
C62 C57 1.245 . S
C62 C58 1.477 . S
C62 H79 0.932 . S
C63 U46 2.882 . S
C63 C57 1.428 . S
C63 O66 1.301 . S
C63 O67 1.282 . S
O64 U46 2.441 . S
O64 C50 1.249 . S
O65 U46 2.420 . S
O65 C50 1.202 . S
O66 U46 2.455 . S
O66 C63 1.301 . S
O67 U46 2.449 . S
O67 C63 1.282 . S
H68 C41 0.931 . S
H69 C43 0.929 . S
H70 C44 0.930 . S
H71 C45 0.931 . S
H72 C52 0.932 . S
H73 C53 0.930 1_455 S
H74 C54 0.929 . S
H75 C56 0.930 . S
H76 C58 0.932 . S
H77 C59 0.929 . S
H78 C60 0.928 . S
H79 C62 0.932 . S
C80 C81 1.264 . S
C80 C85 1.479 . S
C80 C90 1.465 . S
C81 C80 1.264 . S
C81 C83 1.339 . S
C81 H108 0.931 . S
C82 C83 1.395 . S
C82 C84 1.320 . S
C83 C81 1.339 . S
C83 C82 1.395 . S
C83 H109 0.929 . S
C84 C82 1.320 . S
C84 C85 1.405 . S
C84 H110 0.930 . S
C85 C80 1.479 . S
C85 C84 1.405 . S
C85 H111 0.931 . S
U86 O87 2.454 . S
U86 O88 2.458 . S
U86 C89 2.984 . S
U86 C90 2.847 . S
U86 C103 2.882 . S
U86 O104 2.441 . S
U86 O105 2.420 . S
U86 O106 2.455 . S
U86 O107 2.449 . S
O87 U86 2.454 . S
O87 C89 1.353 . S
O88 U86 2.458 . S
O88 C89 1.286 . S
C89 U86 2.984 . S
C89 O87 1.353 . S
C89 O88 1.286 . S
C89 C91 1.363 . S
C90 C80 1.465 . S
C90 U86 2.847 . S
C90 O104 1.249 . S
C90 O105 1.202 . S
C91 C89 1.363 . S
C91 C93 1.408 . S
C91 C96 1.342 . S
C92 C93 1.310 . S
C92 C95 1.461 . S
C92 H112 0.932 . S
C93 C91 1.408 . S
C93 C92 1.310 . S
C93 H113 0.930 . S
C94 C95 1.474 . S
C94 C96 1.285 . S
C94 H114 0.929 . S
C95 C92 1.461 . S
C95 C94 1.474 . S
C96 C91 1.342 . S
C96 C94 1.285 . S
C96 H115 0.930 . S
C97 C100 1.424 . S
C97 C102 1.245 . S
C97 C103 1.428 . S
C98 C101 1.260 . S
C98 C102 1.477 . S
C98 H116 0.932 . S
C99 C100 1.384 . S
C99 C101 1.479 . S
C99 H117 0.929 . S
C100 C97 1.424 . S
C100 C99 1.384 . S
C100 H118 0.928 . S
C101 C98 1.260 . S
C101 C99 1.479 . S
C102 C97 1.245 . S
C102 C98 1.477 . S
C102 H119 0.932 . S
C103 U86 2.882 . S
C103 C97 1.428 . S
C103 O106 1.301 . S
C103 O107 1.282 . S
O104 U86 2.441 . S
O104 C90 1.249 . S
O105 U86 2.420 . S
O105 C90 1.202 . S
O106 U86 2.455 . S
O106 C103 1.301 . S
O107 U86 2.449 . S
O107 C103 1.282 . S
H108 C81 0.931 . S
H109 C83 0.929 . S
H110 C84 0.930 . S
H111 C85 0.931 . S
H112 C92 0.932 . S
H113 C93 0.930 . S
H114 C94 0.929 . S
H115 C96 0.930 . S
H116 C98 0.932 . S
H117 C99 0.929 . S
H118 C100 0.928 . S
H119 C102 0.932 . S
C120 C121 1.264 . S
C120 C125 1.479 . S
C120 C130 1.465 . S
C121 C120 1.264 . S
C121 C123 1.339 . S
C121 H148 0.931 . S
C122 C123 1.395 . S
C122 C124 1.320 . S
C123 C121 1.339 . S
C123 C122 1.395 . S
C123 H149 0.929 . S
C124 C122 1.320 . S
C124 C125 1.405 . S
C124 H150 0.930 . S
C125 C120 1.479 . S
C125 C124 1.405 . S
C125 H151 0.931 . S
U126 O127 2.454 . S
U126 O128 2.458 . S
U126 C129 2.984 . S
U126 C130 2.847 . S
U126 C143 2.882 . S
U126 O144 2.441 . S
U126 O145 2.420 . S
U126 O146 2.455 . S
U126 O147 2.449 . S
O127 U126 2.454 . S
O127 C129 1.353 . S
O128 U126 2.458 . S
O128 C129 1.286 . S
C129 U126 2.984 . S
C129 O127 1.353 . S
C129 O128 1.286 . S
C129 C131 1.363 . S
C130 C120 1.465 . S
C130 U126 2.847 . S
C130 O144 1.249 . S
C130 O145 1.202 . S
C131 C129 1.363 . S
C131 C133 1.408 . S
C131 C136 1.342 . S
C132 C133 1.310 . S
C132 C135 1.461 . S
C132 H152 0.932 . S
C133 C131 1.408 . S
C133 C132 1.310 . S
C133 H153 0.930 . S
C134 C135 1.474 . S
C134 C136 1.285 . S
C134 H154 0.929 . S
C135 C132 1.461 . S
C135 C134 1.474 . S
C136 C131 1.342 . S
C136 C134 1.285 . S
C136 H155 0.930 . S
C137 C140 1.424 . S
C137 C142 1.245 . S
C137 C143 1.428 . S
C138 C141 1.260 . S
C138 C142 1.477 . S
C138 H156 0.932 . S
C139 C140 1.384 . S
C139 C141 1.479 . S
C139 H157 0.929 . S
C140 C137 1.424 . S
C140 C139 1.384 . S
C140 H158 0.928 . S
C141 C138 1.260 . S
C141 C139 1.479 . S
C142 C137 1.245 . S
C142 C138 1.477 . S
C142 H159 0.932 . S
C143 U126 2.882 . S
C143 C137 1.428 . S
C143 O146 1.301 . S
C143 O147 1.282 . S
O144 U126 2.441 . S
O144 C130 1.249 . S
O145 U126 2.420 . S
O145 C130 1.202 . S
O146 U126 2.455 . S
O146 C143 1.301 . S
O147 U126 2.449 . S
O147 C143 1.282 . S
H148 C121 0.931 . S
H149 C123 0.929 . S
H150 C124 0.930 . S
H151 C125 0.931 . S
H152 C132 0.932 . S
H153 C133 0.930 . S
H154 C134 0.929 . S
H155 C136 0.930 . S
H156 C138 0.932 . S
H157 C139 0.929 . S
H158 C140 0.928 . S
H159 C142 0.932 . S
C160 C161 1.264 . S
C160 C165 1.479 . S
C160 C170 1.465 . S
C161 C160 1.264 . S
C161 C163 1.339 . S
C161 H188 0.931 . S
C162 C163 1.395 . S
C162 C164 1.320 . S
C163 C161 1.339 . S
C163 C162 1.395 . S
C163 H189 0.929 . S
C164 C162 1.320 . S
C164 C165 1.405 . S
C164 H190 0.930 . S
C165 C160 1.479 . S
C165 C164 1.405 . S
C165 H191 0.931 . S
U166 O167 2.454 . S
U166 O168 2.458 . S
U166 C169 2.984 . S
U166 C170 2.847 . S
U166 C183 2.882 . S
U166 O184 2.441 . S
U166 O185 2.420 . S
U166 O186 2.455 . S
U166 O187 2.449 . S
O167 U166 2.454 . S
O167 C169 1.353 . S
O168 U166 2.458 . S
O168 C169 1.286 . S
C169 U166 2.984 . S
C169 O167 1.353 . S
C169 O168 1.286 . S
C169 C171 1.363 . S
C170 C160 1.465 . S
C170 U166 2.847 . S
C170 O184 1.249 . S
C170 O185 1.202 . S
C171 C169 1.363 . S
C171 C173 1.408 . S
C171 C176 1.342 . S
C172 C173 1.310 . S
C172 C175 1.461 . S
C172 H192 0.932 . S
C173 C171 1.408 . S
C173 C172 1.310 . S
C173 H193 0.930 . S
C174 C175 1.474 . S
C174 C176 1.285 . S
C174 H194 0.929 . S
C175 C172 1.461 . S
C175 C174 1.474 . S
C176 C171 1.342 . S
C176 C174 1.285 . S
C176 H195 0.930 . S
C177 C180 1.424 . S
C177 C182 1.245 . S
C177 C183 1.428 . S
C178 C181 1.260 . S
C178 C182 1.477 1_554 S
C178 H196 0.932 . S
C179 C180 1.384 1_554 S
C179 C181 1.479 . S
C179 H197 0.929 . S
C180 C177 1.424 . S
C180 C179 1.384 1_556 S
C180 H198 0.928 . S
C181 C178 1.260 . S
C181 C179 1.479 . S
C182 C177 1.245 . S
C182 C178 1.477 1_556 S
C182 H199 0.932 . S
C183 U166 2.882 . S
C183 C177 1.428 . S
C183 O186 1.301 . S
C183 O187 1.282 . S
O184 U166 2.441 . S
O184 C170 1.249 . S
O185 U166 2.420 . S
O185 C170 1.202 . S
O186 U166 2.455 . S
O186 C183 1.301 . S
O187 U166 2.449 . S
O187 C183 1.282 . S
H188 C161 0.931 . S
H189 C163 0.929 . S
H190 C164 0.930 . S
H191 C165 0.931 . S
H192 C172 0.932 . S
H193 C173 0.930 . S
H194 C174 0.929 . S
H195 C176 0.930 . S
H196 C178 0.932 . S
H197 C179 0.929 . S
H198 C180 0.928 . S
H199 C182 0.932 . S
C200 C201 1.264 . S
C200 C205 1.479 . S
C200 C210 1.465 . S
C201 C200 1.264 . S
C201 C203 1.339 . S
C201 H228 0.931 . S
C202 C203 1.395 . S
C202 C204 1.320 . S
C203 C201 1.339 . S
C203 C202 1.395 . S
C203 H229 0.929 . S
C204 C202 1.320 . S
C204 C205 1.405 . S
C204 H230 0.930 . S
C205 C200 1.479 . S
C205 C204 1.405 . S
C205 H231 0.931 . S
U206 O207 2.454 . S
U206 O208 2.458 . S
U206 C209 2.984 . S
U206 C210 2.847 . S
U206 C223 2.882 . S
U206 O224 2.441 . S
U206 O225 2.420 . S
U206 O226 2.455 . S
U206 O227 2.449 . S
O207 U206 2.454 . S
O207 C209 1.353 . S
O208 U206 2.458 . S
O208 C209 1.286 . S
C209 U206 2.984 . S
C209 O207 1.353 . S
C209 O208 1.286 . S
C209 C211 1.363 . S
C210 C200 1.465 . S
C210 U206 2.847 . S
C210 O224 1.249 . S
C210 O225 1.202 . S
C211 C209 1.363 . S
C211 C213 1.408 . S
C211 C216 1.342 . S
C212 C213 1.310 . S
C212 C215 1.461 . S
C212 H232 0.932 . S
C213 C211 1.408 . S
C213 C212 1.310 . S
C213 H233 0.930 . S
C214 C215 1.474 . S
C214 C216 1.285 . S
C214 H234 0.929 . S
C215 C212 1.461 . S
C215 C214 1.474 . S
C216 C211 1.342 . S
C216 C214 1.285 . S
C216 H235 0.930 . S
C217 C220 1.424 . S
C217 C222 1.245 . S
C217 C223 1.428 . S
C218 C221 1.260 . S
C218 C222 1.477 . S
C218 H236 0.932 . S
C219 C220 1.384 . S
C219 C221 1.479 . S
C219 H237 0.929 . S
C220 C217 1.424 . S
C220 C219 1.384 . S
C220 H238 0.928 . S
C221 C218 1.260 . S
C221 C219 1.479 . S
C222 C217 1.245 . S
C222 C218 1.477 . S
C222 H239 0.932 . S
C223 U206 2.882 . S
C223 C217 1.428 . S
C223 O226 1.301 . S
C223 O227 1.282 . S
O224 U206 2.441 . S
O224 C210 1.249 . S
O225 U206 2.420 . S
O225 C210 1.202 . S
O226 U206 2.455 . S
O226 C223 1.301 . S
O227 U206 2.449 . S
O227 C223 1.282 . S
H228 C201 0.931 . S
H229 C203 0.929 . S
H230 C204 0.930 . S
H231 C205 0.931 . S
H232 C212 0.932 . S
H233 C213 0.930 . S
H234 C214 0.929 . S
H235 C216 0.930 . S
H236 C218 0.932 . S
H237 C219 0.929 . S
H238 C220 0.928 . S
H239 C222 0.932 . S
C240 C241 1.264 . S
C240 C245 1.479 . S
C240 C250 1.465 . S
C241 C240 1.264 . S
C241 C243 1.339 . S
C241 H268 0.931 . S
C242 C243 1.395 . S
C242 C244 1.320 . S
C243 C241 1.339 . S
C243 C242 1.395 . S
C243 H269 0.929 . S
C244 C242 1.320 . S
C244 C245 1.405 . S
C244 H270 0.930 . S
C245 C240 1.479 . S
C245 C244 1.405 . S
C245 H271 0.931 . S
U246 O247 2.454 . S
U246 O248 2.458 . S
U246 C249 2.984 . S
U246 C250 2.847 . S
U246 C263 2.882 . S
U246 O264 2.441 . S
U246 O265 2.420 . S
U246 O266 2.455 . S
U246 O267 2.449 . S
O247 U246 2.454 . S
O247 C249 1.353 . S
O248 U246 2.458 . S
O248 C249 1.286 . S
C249 U246 2.984 . S
C249 O247 1.353 . S
C249 O248 1.286 . S
C249 C251 1.363 . S
C250 C240 1.465 . S
C250 U246 2.847 . S
C250 O264 1.249 . S
C250 O265 1.202 . S
C251 C249 1.363 . S
C251 C253 1.408 . S
C251 C256 1.342 . S
C252 C253 1.310 . S
C252 C255 1.461 . S
C252 H272 0.932 . S
C253 C251 1.408 . S
C253 C252 1.310 . S
C253 H273 0.930 . S
C254 C255 1.474 . S
C254 C256 1.285 . S
C254 H274 0.929 . S
C255 C252 1.461 . S
C255 C254 1.474 . S
C256 C251 1.342 . S
C256 C254 1.285 . S
C256 H275 0.930 . S
C257 C260 1.424 . S
C257 C262 1.245 . S
C257 C263 1.428 . S
C258 C261 1.260 . S
C258 C262 1.477 . S
C258 H276 0.932 . S
C259 C260 1.384 . S
C259 C261 1.479 . S
C259 H277 0.929 . S
C260 C257 1.424 . S
C260 C259 1.384 . S
C260 H278 0.928 . S
C261 C258 1.260 . S
C261 C259 1.479 . S
C262 C257 1.245 . S
C262 C258 1.477 . S
C262 H279 0.932 . S
C263 U246 2.882 . S
C263 C257 1.428 . S
C263 O266 1.301 . S
C263 O267 1.282 . S
O264 U246 2.441 . S
O264 C250 1.249 . S
O265 U246 2.420 . S
O265 C250 1.202 . S
O266 U246 2.455 . S
O266 C263 1.301 . S
O267 U246 2.449 . S
O267 C263 1.282 . S
H268 C241 0.931 . S
H269 C243 0.929 . S
H270 C244 0.930 . S
H271 C245 0.931 . S
H272 C252 0.932 . S
H273 C253 0.930 . S
H274 C254 0.929 . S
H275 C256 0.930 . S
H276 C258 0.932 . S
H277 C259 0.929 . S
H278 C260 0.928 . S
H279 C262 0.932 . S
C280 C281 1.264 1_455 S
C280 C285 1.479 . S
C280 C290 1.465 . S
C281 C280 1.264 1_655 S
C281 C283 1.339 . S
C281 H308 0.931 . S
C282 C283 1.395 . S
C282 C284 1.320 . S
C283 C281 1.339 . S
C283 C282 1.395 . S
C283 H309 0.929 . S
C284 C282 1.320 . S
C284 C285 1.405 1_655 S
C284 H310 0.930 . S
C285 C280 1.479 . S
C285 C284 1.405 1_455 S
C285 H311 0.931 . S
U286 O287 2.454 . S
U286 O288 2.458 . S
U286 C289 2.984 . S
U286 C290 2.847 . S
U286 C303 2.882 . S
U286 O304 2.441 . S
U286 O305 2.420 . S
U286 O306 2.455 . S
U286 O307 2.449 . S
O287 U286 2.454 . S
O287 C289 1.353 . S
O288 U286 2.458 . S
O288 C289 1.286 . S
C289 U286 2.984 . S
C289 O287 1.353 . S
C289 O288 1.286 . S
C289 C291 1.363 . S
C290 C280 1.465 . S
C290 U286 2.847 . S
C290 O304 1.249 . S
C290 O305 1.202 . S
C291 C289 1.363 . S
C291 C293 1.408 . S
C291 C296 1.342 . S
C292 C293 1.310 . S
C292 C295 1.461 . S
C292 H312 0.932 . S
C293 C291 1.408 . S
C293 C292 1.310 . S
C293 H313 0.930 . S
C294 C295 1.474 . S
C294 C296 1.285 . S
C294 H314 0.929 . S
C295 C292 1.461 . S
C295 C294 1.474 . S
C296 C291 1.342 . S
C296 C294 1.285 . S
C296 H315 0.930 . S
C297 C300 1.424 . S
C297 C302 1.245 . S
C297 C303 1.428 . S
C298 C301 1.260 . S
C298 C302 1.477 . S
C298 H316 0.932 . S
C299 C300 1.384 . S
C299 C301 1.479 . S
C299 H317 0.929 . S
C300 C297 1.424 . S
C300 C299 1.384 . S
C300 H318 0.928 . S
C301 C298 1.260 . S
C301 C299 1.479 . S
C302 C297 1.245 . S
C302 C298 1.477 . S
C302 H319 0.932 . S
C303 U286 2.882 . S
C303 C297 1.428 . S
C303 O306 1.301 . S
C303 O307 1.282 . S
O304 U286 2.441 . S
O304 C290 1.249 . S
O305 U286 2.420 . S
O305 C290 1.202 . S
O306 U286 2.455 . S
O306 C303 1.301 . S
O307 U286 2.449 . S
O307 C303 1.282 . S
H308 C281 0.931 . S
H309 C283 0.929 . S
H310 C284 0.930 . S
H311 C285 0.931 . S
H312 C292 0.932 . S
H313 C293 0.930 . S
H314 C294 0.929 . S
H315 C296 0.930 . S
H316 C298 0.932 . S
H317 C299 0.929 . S
H318 C300 0.928 . S
H319 C302 0.932 . S
Zn320 O326 1.920 . S
Zn320 O332 1.898 . S
Zn320 O335 1.905 . S
Zn321 O329 1.905 . S
Zn321 O330 1.898 . S
Zn321 O338 1.920 . S
Zn322 O325 2.080 . S
Zn322 O328 2.114 . S
Zn322 O331 2.120 . S
Zn322 O333 2.120 . S
Zn322 O334 2.114 . S
Zn322 O337 2.080 . S
C323 O328 1.166 . S
C323 O329 1.182 . S
C324 O330 1.167 . S
C324 O331 1.299 . S
O325 Zn322 2.080 . S
O325 C339 1.305 . S
O326 Zn320 1.920 . S
O326 C339 1.234 . S
C327 O332 1.167 . S
C327 O333 1.299 . S
O328 Zn322 2.114 . S
O328 C323 1.166 . S
O329 Zn321 1.905 . S
O329 C323 1.182 . S
O330 Zn321 1.898 . S
O330 C324 1.167 . S
O331 Zn322 2.120 . S
O331 C324 1.299 . S
O332 Zn320 1.898 . S
O332 C327 1.167 . S
O333 Zn322 2.120 . S
O333 C327 1.299 . S
O334 Zn322 2.114 . S
O334 C336 1.166 . S
O335 Zn320 1.905 . S
O335 C336 1.182 . S
C336 O334 1.166 . S
C336 O335 1.182 . S
O337 Zn322 2.080 . S
O337 C340 1.305 . S
O338 Zn321 1.920 . S
O338 C340 1.234 . S
C339 O325 1.305 . S
C339 O326 1.234 . S
C340 O337 1.305 . S
C340 O338 1.234 . S
Zn341 O347 1.920 . S
Zn341 O353 1.898 . S
Zn341 O356 1.905 . S
Zn342 O350 1.905 . S
Zn342 O351 1.898 . S
Zn342 O359 1.920 . S
Zn343 O346 2.080 . S
Zn343 O349 2.114 . S
Zn343 O352 2.120 . S
Zn343 O354 2.120 . S
Zn343 O355 2.114 . S
Zn343 O358 2.080 . S
C344 O349 1.166 . S
C344 O350 1.182 . S
C345 O351 1.167 . S
C345 O352 1.299 . S
O346 Zn343 2.080 . S
O346 C360 1.305 . S
O347 Zn341 1.920 . S
O347 C360 1.234 . S
C348 O353 1.167 . S
C348 O354 1.299 . S
O349 Zn343 2.114 . S
O349 C344 1.166 . S
O350 Zn342 1.905 . S
O350 C344 1.182 . S
O351 Zn342 1.898 . S
O351 C345 1.167 . S
O352 Zn343 2.120 . S
O352 C345 1.299 . S
O353 Zn341 1.898 . S
O353 C348 1.167 . S
O354 Zn343 2.120 . S
O354 C348 1.299 . S
O355 Zn343 2.114 . S
O355 C357 1.166 . S
O356 Zn341 1.905 . S
O356 C357 1.182 . S
C357 O355 1.166 . S
C357 O356 1.182 . S
O358 Zn343 2.080 . S
O358 C361 1.305 . S
O359 Zn342 1.920 . S
O359 C361 1.234 . S
C360 O346 1.305 . S
C360 O347 1.234 . S
C361 O358 1.305 . S
C361 O359 1.234 . S
Zn362 O368 1.920 . S
Zn362 O374 1.898 . S
Zn362 O377 1.905 . S
Zn363 O371 1.905 . S
Zn363 O372 1.898 . S
Zn363 O380 1.920 . S
Zn364 O367 2.080 . S
Zn364 O370 2.114 . S
Zn364 O373 2.120 . S
Zn364 O375 2.120 . S
Zn364 O376 2.114 . S
Zn364 O379 2.080 . S
C365 O370 1.166 . S
C365 O371 1.182 . S
C366 O372 1.167 . S
C366 O373 1.299 . S
O367 Zn364 2.080 . S
O367 C381 1.305 . S
O368 Zn362 1.920 . S
O368 C381 1.234 . S
C369 O374 1.167 . S
C369 O375 1.299 . S
O370 Zn364 2.114 . S
O370 C365 1.166 . S
O371 Zn363 1.905 . S
O371 C365 1.182 . S
O372 Zn363 1.898 . S
O372 C366 1.167 . S
O373 Zn364 2.120 . S
O373 C366 1.299 . S
O374 Zn362 1.898 . S
O374 C369 1.167 . S
O375 Zn364 2.120 . S
O375 C369 1.299 . S
O376 Zn364 2.114 . S
O376 C378 1.166 . S
O377 Zn362 1.905 . S
O377 C378 1.182 . S
C378 O376 1.166 . S
C378 O377 1.182 . S
O379 Zn364 2.080 . S
O379 C382 1.305 . S
O380 Zn363 1.920 . S
O380 C382 1.234 . S
C381 O367 1.305 . S
C381 O368 1.234 . S
C382 O379 1.305 . S
C382 O380 1.234 . S
Zn383 O389 1.920 . S
Zn383 O395 1.898 . S
Zn383 O398 1.905 . S
Zn384 O392 1.905 . S
Zn384 O393 1.898 . S
Zn384 O401 1.920 . S
Zn385 O388 2.080 . S
Zn385 O391 2.114 . S
Zn385 O394 2.120 . S
Zn385 O396 2.120 . S
Zn385 O397 2.114 . S
Zn385 O400 2.080 . S
C386 O391 1.166 . S
C386 O392 1.182 . S
C387 O393 1.167 . S
C387 O394 1.299 . S
O388 Zn385 2.080 . S
O388 C402 1.305 . S
O389 Zn383 1.920 . S
O389 C402 1.234 . S
C390 O395 1.167 . S
C390 O396 1.299 . S
O391 Zn385 2.114 . S
O391 C386 1.166 . S
O392 Zn384 1.905 . S
O392 C386 1.182 . S
O393 Zn384 1.898 . S
O393 C387 1.167 . S
O394 Zn385 2.120 . S
O394 C387 1.299 . S
O395 Zn383 1.898 . S
O395 C390 1.167 . S
O396 Zn385 2.120 . S
O396 C390 1.299 . S
O397 Zn385 2.114 . S
O397 C399 1.166 . S
O398 Zn383 1.905 . S
O398 C399 1.182 . S
C399 O397 1.166 . S
C399 O398 1.182 . S
O400 Zn385 2.080 . S
O400 C403 1.305 . S
O401 Zn384 1.920 . S
O401 C403 1.234 . S
C402 O388 1.305 . S
C402 O389 1.234 . S
C403 O400 1.305 . S
C403 O401 1.234 . S
C404 C405 1.170 . S
C404 C406 1.380 . S
C405 C404 1.170 . S
C406 C404 1.380 . S
C406 C407 1.170 . S
C407 C406 1.170 . S
C408 C409 1.170 . S
C408 C410 1.380 . S
C409 C408 1.170 . S
C410 C408 1.380 . S
C410 C411 1.170 . S
C411 C410 1.170 . S
C412 C413 1.170 . S
C412 C414 1.380 . S
C413 C412 1.170 . S
C414 C412 1.380 . S
C414 C415 1.170 . S
C415 C414 1.170 . S
C416 C417 1.170 . S
C416 C418 1.380 . S
C417 C416 1.170 . S
C418 C416 1.380 . S
C418 C419 1.170 . S
C419 C418 1.170 . S
C420 C421 1.170 . S
C420 C422 1.380 . S
C421 C420 1.170 . S
C422 C420 1.380 . S
C422 C423 1.170 . S
C423 C422 1.170 . S
C424 C425 1.170 . S
C424 C426 1.380 . S
C425 C424 1.170 . S
C426 C424 1.380 . S
C426 C427 1.170 . S
C427 C426 1.170 . S
C428 C429 1.170 . S
C428 C430 1.380 . S
C429 C428 1.170 . S
C430 C428 1.380 . S
C430 C431 1.170 . S
C431 C430 1.170 . S
C432 C433 1.170 . S
C432 C434 1.380 . S
C433 C432 1.170 . S
C434 C432 1.380 . S
C434 C435 1.170 . S
C435 C434 1.170 . S
C436 C437 1.170 . S
C436 C438 1.380 . S
C437 C436 1.170 . S
C438 C436 1.380 . S
C438 C439 1.170 . S
C439 C438 1.170 . S
C440 C441 1.170 . S
C440 C442 1.380 . S
C441 C440 1.170 . S
C442 C440 1.380 . S
C442 C443 1.170 . S
C443 C442 1.170 . S
C444 C445 1.170 . S
C444 C446 1.380 . S
C445 C444 1.170 . S
C446 C444 1.380 . S
C446 C447 1.170 . S
C447 C446 1.170 . S
C448 C449 1.170 . S
C448 C450 1.380 . S
C449 C448 1.170 . S
C450 C448 1.380 . S
C450 C451 1.170 . S
C451 C450 1.170 . S
C452 C453 1.170 1_545 S
C452 C454 1.380 . S
C453 C452 1.170 1_565 S
C454 C452 1.380 . S
C454 C455 1.170 . S
C455 C454 1.170 . S
C456 C457 1.170 . S
C456 C458 1.380 . S
C457 C456 1.170 . S
C458 C456 1.380 . S
C458 C459 1.170 . S
C459 C458 1.170 . S
C460 C461 1.170 . S
C460 C462 1.380 . S
C461 C460 1.170 . S
C462 C460 1.380 . S
C462 C463 1.170 . S
C463 C462 1.170 . S
C464 C465 1.170 1_545 S
C464 C466 1.380 . S
C465 C464 1.170 1_565 S
C466 C464 1.380 . S
C466 C467 1.170 . S
C467 C466 1.170 . S
C468 C469 1.170 . S
C468 C470 1.380 . S
C469 C468 1.170 . S
C470 C468 1.380 . S
C470 C471 1.170 . S
C471 C470 1.170 . S
C472 C473 1.170 . S
C472 C474 1.380 . S
C473 C472 1.170 . S
C474 C472 1.380 . S
C474 C475 1.170 . S
C475 C474 1.170 . S
C476 C477 1.170 . S
C476 C478 1.380 . S
C477 C476 1.170 . S
C478 C476 1.380 . S
C478 C479 1.170 . S
C479 C478 1.170 . S
C480 C481 1.170 . S
C480 C482 1.380 . S
C481 C480 1.170 . S
C482 C480 1.380 . S
C482 C483 1.170 . S
C483 C482 1.170 . S
C484 C485 1.170 . S
C484 C486 1.380 . S
C485 C484 1.170 . S
C486 C484 1.380 . S
C486 C487 1.170 . S
C487 C486 1.170 . S
C488 C489 1.170 . S
C488 C490 1.380 . S
C489 C488 1.170 . S
C490 C488 1.380 . S
C490 C491 1.170 . S
C491 C490 1.170 . S
C492 C493 1.170 . S
C492 C494 1.380 . S
C493 C492 1.170 . S
C494 C492 1.380 . S
C494 C495 1.170 . S
C495 C494 1.170 . S
C496 C497 1.170 . S
C496 C498 1.380 . S
C497 C496 1.170 . S
C498 C496 1.380 . S
C498 C499 1.170 . S
C499 C498 1.170 . S
C407 C327 1.555 . S
C405 C15 1.731 . S
C411 C345 1.363 . S
C409 C55 1.443 . S
C413 C82 1.448 . S
C415 C369 1.468 . S
C419 C399 1.451 1_655 S
C417 C122 1.539 . S
C423 C387 1.485 . S
C421 C175 1.513 . S
C425 C215 1.456 . S
C427 C340 1.365 1_655 S
C429 C242 1.738 . S
C431 C360 1.520 . S
C433 C282 1.514 . S
C435 C365 1.400 . S
C437 C295 1.471 . S
C439 C381 1.322 . S
C441 C202 1.542 . S
C443 C336 1.443 . S
C447 C403 1.322 . S
C445 C135 1.473 . S
C451 C348 1.395 . S
C449 C42 1.509 . S
C453 C95 1.727 . S
C455 C366 1.556 . S
C457 C2 1.445 1_565 S
C459 C324 1.452 . S
C463 C344 1.499 . S
C461 C255 1.517 1_565 S
C467 C390 1.542 . S
C465 C162 1.767 . S
C471 C386 1.306 . S
C469 C21 1.517 . S
C475 C339 1.425 . S
C473 C61 1.461 . S
C477 C101 1.492 . S
C479 C361 1.308 . S
C481 C141 1.455 . S
C483 C382 1.420 . S
C487 C323 1.327 . S
C485 C181 1.565 . S
C489 C221 1.469 . S
C491 C357 1.428 . S
C495 C378 1.323 . S
C493 C261 1.573 . S
C499 C402 1.390 . S
C497 C301 1.444 . S
