# Generated by pormake.
# Topology gar, (4,6)-cn, num edge types: 1
# Building blocks:
#     Node 0, Type 0, BuildingBlock: TATPOV_clean_sbu_0, # of connection points: 4
#     Node 1, Type 0, BuildingBlock: TATPOV_clean_sbu_0, # of connection points: 4
#     Node 2, Type 0, BuildingBlock: TATPOV_clean_sbu_0, # of connection points: 4
#     Node 3, Type 0, BuildingBlock: TATPOV_clean_sbu_0, # of connection points: 4
#     Node 4, Type 0, BuildingBlock: TATPOV_clean_sbu_0, # of connection points: 4
#     Node 5, Type 0, BuildingBlock: TATPOV_clean_sbu_0, # of connection points: 4
#     Node 6, Type 0, BuildingBlock: TATPOV_clean_sbu_0, # of connection points: 4
#     Node 7, Type 0, BuildingBlock: TATPOV_clean_sbu_0, # of connection points: 4
#     Node 8, Type 0, BuildingBlock: TATPOV_clean_sbu_0, # of connection points: 4
#     Node 9, Type 0, BuildingBlock: TATPOV_clean_sbu_0, # of connection points: 4
#     Node 10, Type 0, BuildingBlock: TATPOV_clean_sbu_0, # of connection points: 4
#     Node 11, Type 0, BuildingBlock: TATPOV_clean_sbu_0, # of connection points: 4
#     Node 12, Type 0, BuildingBlock: TATPOV_clean_sbu_0, # of connection points: 4
#     Node 13, Type 0, BuildingBlock: TATPOV_clean_sbu_0, # of connection points: 4
#     Node 14, Type 0, BuildingBlock: TATPOV_clean_sbu_0, # of connection points: 4
#     Node 15, Type 0, BuildingBlock: TATPOV_clean_sbu_0, # of connection points: 4
#     Node 16, Type 0, BuildingBlock: TATPOV_clean_sbu_0, # of connection points: 4
#     Node 17, Type 0, BuildingBlock: TATPOV_clean_sbu_0, # of connection points: 4
#     Node 18, Type 0, BuildingBlock: TATPOV_clean_sbu_0, # of connection points: 4
#     Node 19, Type 0, BuildingBlock: TATPOV_clean_sbu_0, # of connection points: 4
#     Node 20, Type 0, BuildingBlock: TATPOV_clean_sbu_0, # of connection points: 4
#     Node 21, Type 0, BuildingBlock: TATPOV_clean_sbu_0, # of connection points: 4
#     Node 22, Type 0, BuildingBlock: TATPOV_clean_sbu_0, # of connection points: 4
#     Node 23, Type 0, BuildingBlock: TATPOV_clean_sbu_0, # of connection points: 4
#     Node 24, Type 1, BuildingBlock: INOVEN_clean_sbu_0, # of connection points: 6
#     Node 25, Type 1, BuildingBlock: INOVEN_clean_sbu_0, # of connection points: 6
#     Node 26, Type 1, BuildingBlock: INOVEN_clean_sbu_0, # of connection points: 6
#     Node 27, Type 1, BuildingBlock: INOVEN_clean_sbu_0, # of connection points: 6
#     Node 28, Type 1, BuildingBlock: INOVEN_clean_sbu_0, # of connection points: 6
#     Node 29, Type 1, BuildingBlock: INOVEN_clean_sbu_0, # of connection points: 6
#     Node 30, Type 1, BuildingBlock: INOVEN_clean_sbu_0, # of connection points: 6
#     Node 31, Type 1, BuildingBlock: INOVEN_clean_sbu_0, # of connection points: 6
#     Node 32, Type 1, BuildingBlock: INOVEN_clean_sbu_0, # of connection points: 6
#     Node 33, Type 1, BuildingBlock: INOVEN_clean_sbu_0, # of connection points: 6
#     Node 34, Type 1, BuildingBlock: INOVEN_clean_sbu_0, # of connection points: 6
#     Node 35, Type 1, BuildingBlock: INOVEN_clean_sbu_0, # of connection points: 6
#     Node 36, Type 1, BuildingBlock: INOVEN_clean_sbu_0, # of connection points: 6
#     Node 37, Type 1, BuildingBlock: INOVEN_clean_sbu_0, # of connection points: 6
#     Node 38, Type 1, BuildingBlock: INOVEN_clean_sbu_0, # of connection points: 6
#     Node 39, Type 1, BuildingBlock: INOVEN_clean_sbu_0, # of connection points: 6
#     Edge 40, Type (0, 1), BuildingBlock: UVAHIK_clean_linker_0, # of connection points: 2
#     Edge 41, Type (0, 1), BuildingBlock: UVAHIK_clean_linker_0, # of connection points: 2
#     Edge 42, Type (0, 1), BuildingBlock: UVAHIK_clean_linker_0, # of connection points: 2
#     Edge 43, Type (0, 1), BuildingBlock: UVAHIK_clean_linker_0, # of connection points: 2
#     Edge 44, Type (0, 1), BuildingBlock: UVAHIK_clean_linker_0, # of connection points: 2
#     Edge 45, Type (0, 1), BuildingBlock: UVAHIK_clean_linker_0, # of connection points: 2
#     Edge 46, Type (0, 1), BuildingBlock: UVAHIK_clean_linker_0, # of connection points: 2
#     Edge 47, Type (0, 1), BuildingBlock: UVAHIK_clean_linker_0, # of connection points: 2
#     Edge 48, Type (0, 1), BuildingBlock: UVAHIK_clean_linker_0, # of connection points: 2
#     Edge 49, Type (0, 1), BuildingBlock: UVAHIK_clean_linker_0, # of connection points: 2
#     Edge 50, Type (0, 1), BuildingBlock: UVAHIK_clean_linker_0, # of connection points: 2
#     Edge 51, Type (0, 1), BuildingBlock: UVAHIK_clean_linker_0, # of connection points: 2
#     Edge 52, Type (0, 1), BuildingBlock: UVAHIK_clean_linker_0, # of connection points: 2
#     Edge 53, Type (0, 1), BuildingBlock: UVAHIK_clean_linker_0, # of connection points: 2
#     Edge 54, Type (0, 1), BuildingBlock: UVAHIK_clean_linker_0, # of connection points: 2
#     Edge 55, Type (0, 1), BuildingBlock: UVAHIK_clean_linker_0, # of connection points: 2
#     Edge 56, Type (0, 1), BuildingBlock: UVAHIK_clean_linker_0, # of connection points: 2
#     Edge 57, Type (0, 1), BuildingBlock: UVAHIK_clean_linker_0, # of connection points: 2
#     Edge 58, Type (0, 1), BuildingBlock: UVAHIK_clean_linker_0, # of connection points: 2
#     Edge 59, Type (0, 1), BuildingBlock: UVAHIK_clean_linker_0, # of connection points: 2
#     Edge 60, Type (0, 1), BuildingBlock: UVAHIK_clean_linker_0, # of connection points: 2
#     Edge 61, Type (0, 1), BuildingBlock: UVAHIK_clean_linker_0, # of connection points: 2
#     Edge 62, Type (0, 1), BuildingBlock: UVAHIK_clean_linker_0, # of connection points: 2
#     Edge 63, Type (0, 1), BuildingBlock: UVAHIK_clean_linker_0, # of connection points: 2
#     Edge 64, Type (0, 1), BuildingBlock: UVAHIK_clean_linker_0, # of connection points: 2
#     Edge 65, Type (0, 1), BuildingBlock: UVAHIK_clean_linker_0, # of connection points: 2
#     Edge 66, Type (0, 1), BuildingBlock: UVAHIK_clean_linker_0, # of connection points: 2
#     Edge 67, Type (0, 1), BuildingBlock: UVAHIK_clean_linker_0, # of connection points: 2
#     Edge 68, Type (0, 1), BuildingBlock: UVAHIK_clean_linker_0, # of connection points: 2
#     Edge 69, Type (0, 1), BuildingBlock: UVAHIK_clean_linker_0, # of connection points: 2
#     Edge 70, Type (0, 1), BuildingBlock: UVAHIK_clean_linker_0, # of connection points: 2
#     Edge 71, Type (0, 1), BuildingBlock: UVAHIK_clean_linker_0, # of connection points: 2
#     Edge 72, Type (0, 1), BuildingBlock: UVAHIK_clean_linker_0, # of connection points: 2
#     Edge 73, Type (0, 1), BuildingBlock: UVAHIK_clean_linker_0, # of connection points: 2
#     Edge 74, Type (0, 1), BuildingBlock: UVAHIK_clean_linker_0, # of connection points: 2
#     Edge 75, Type (0, 1), BuildingBlock: UVAHIK_clean_linker_0, # of connection points: 2
#     Edge 76, Type (0, 1), BuildingBlock: UVAHIK_clean_linker_0, # of connection points: 2
#     Edge 77, Type (0, 1), BuildingBlock: UVAHIK_clean_linker_0, # of connection points: 2
#     Edge 78, Type (0, 1), BuildingBlock: UVAHIK_clean_linker_0, # of connection points: 2
#     Edge 79, Type (0, 1), BuildingBlock: UVAHIK_clean_linker_0, # of connection points: 2
#     Edge 80, Type (0, 1), BuildingBlock: UVAHIK_clean_linker_0, # of connection points: 2
#     Edge 81, Type (0, 1), BuildingBlock: UVAHIK_clean_linker_0, # of connection points: 2
#     Edge 82, Type (0, 1), BuildingBlock: UVAHIK_clean_linker_0, # of connection points: 2
#     Edge 83, Type (0, 1), BuildingBlock: UVAHIK_clean_linker_0, # of connection points: 2
#     Edge 84, Type (0, 1), BuildingBlock: UVAHIK_clean_linker_0, # of connection points: 2
#     Edge 85, Type (0, 1), BuildingBlock: UVAHIK_clean_linker_0, # of connection points: 2
#     Edge 86, Type (0, 1), BuildingBlock: UVAHIK_clean_linker_0, # of connection points: 2
#     Edge 87, Type (0, 1), BuildingBlock: UVAHIK_clean_linker_0, # of connection points: 2
#     Edge 88, Type (0, 1), BuildingBlock: UVAHIK_clean_linker_0, # of connection points: 2
#     Edge 89, Type (0, 1), BuildingBlock: UVAHIK_clean_linker_0, # of connection points: 2
#     Edge 90, Type (0, 1), BuildingBlock: UVAHIK_clean_linker_0, # of connection points: 2
#     Edge 91, Type (0, 1), BuildingBlock: UVAHIK_clean_linker_0, # of connection points: 2
#     Edge 92, Type (0, 1), BuildingBlock: UVAHIK_clean_linker_0, # of connection points: 2
#     Edge 93, Type (0, 1), BuildingBlock: UVAHIK_clean_linker_0, # of connection points: 2
#     Edge 94, Type (0, 1), BuildingBlock: UVAHIK_clean_linker_0, # of connection points: 2
#     Edge 95, Type (0, 1), BuildingBlock: UVAHIK_clean_linker_0, # of connection points: 2
#     Edge 96, Type (0, 1), BuildingBlock: UVAHIK_clean_linker_0, # of connection points: 2
#     Edge 97, Type (0, 1), BuildingBlock: UVAHIK_clean_linker_0, # of connection points: 2
#     Edge 98, Type (0, 1), BuildingBlock: UVAHIK_clean_linker_0, # of connection points: 2
#     Edge 99, Type (0, 1), BuildingBlock: UVAHIK_clean_linker_0, # of connection points: 2
#     Edge 100, Type (0, 1), BuildingBlock: UVAHIK_clean_linker_0, # of connection points: 2
#     Edge 101, Type (0, 1), BuildingBlock: UVAHIK_clean_linker_0, # of connection points: 2
#     Edge 102, Type (0, 1), BuildingBlock: UVAHIK_clean_linker_0, # of connection points: 2
#     Edge 103, Type (0, 1), BuildingBlock: UVAHIK_clean_linker_0, # of connection points: 2
#     Edge 104, Type (0, 1), BuildingBlock: UVAHIK_clean_linker_0, # of connection points: 2
#     Edge 105, Type (0, 1), BuildingBlock: UVAHIK_clean_linker_0, # of connection points: 2
#     Edge 106, Type (0, 1), BuildingBlock: UVAHIK_clean_linker_0, # of connection points: 2
#     Edge 107, Type (0, 1), BuildingBlock: UVAHIK_clean_linker_0, # of connection points: 2
#     Edge 108, Type (0, 1), BuildingBlock: UVAHIK_clean_linker_0, # of connection points: 2
#     Edge 109, Type (0, 1), BuildingBlock: UVAHIK_clean_linker_0, # of connection points: 2
#     Edge 110, Type (0, 1), BuildingBlock: UVAHIK_clean_linker_0, # of connection points: 2
#     Edge 111, Type (0, 1), BuildingBlock: UVAHIK_clean_linker_0, # of connection points: 2
#     Edge 112, Type (0, 1), BuildingBlock: UVAHIK_clean_linker_0, # of connection points: 2
#     Edge 113, Type (0, 1), BuildingBlock: UVAHIK_clean_linker_0, # of connection points: 2
#     Edge 114, Type (0, 1), BuildingBlock: UVAHIK_clean_linker_0, # of connection points: 2
#     Edge 115, Type (0, 1), BuildingBlock: UVAHIK_clean_linker_0, # of connection points: 2
#     Edge 116, Type (0, 1), BuildingBlock: UVAHIK_clean_linker_0, # of connection points: 2
#     Edge 117, Type (0, 1), BuildingBlock: UVAHIK_clean_linker_0, # of connection points: 2
#     Edge 118, Type (0, 1), BuildingBlock: UVAHIK_clean_linker_0, # of connection points: 2
#     Edge 119, Type (0, 1), BuildingBlock: UVAHIK_clean_linker_0, # of connection points: 2
#     Edge 120, Type (0, 1), BuildingBlock: UVAHIK_clean_linker_0, # of connection points: 2
#     Edge 121, Type (0, 1), BuildingBlock: UVAHIK_clean_linker_0, # of connection points: 2
#     Edge 122, Type (0, 1), BuildingBlock: UVAHIK_clean_linker_0, # of connection points: 2
#     Edge 123, Type (0, 1), BuildingBlock: UVAHIK_clean_linker_0, # of connection points: 2
#     Edge 124, Type (0, 1), BuildingBlock: UVAHIK_clean_linker_0, # of connection points: 2
#     Edge 125, Type (0, 1), BuildingBlock: UVAHIK_clean_linker_0, # of connection points: 2
#     Edge 126, Type (0, 1), BuildingBlock: UVAHIK_clean_linker_0, # of connection points: 2
#     Edge 127, Type (0, 1), BuildingBlock: UVAHIK_clean_linker_0, # of connection points: 2
#     Edge 128, Type (0, 1), BuildingBlock: UVAHIK_clean_linker_0, # of connection points: 2
#     Edge 129, Type (0, 1), BuildingBlock: UVAHIK_clean_linker_0, # of connection points: 2
#     Edge 130, Type (0, 1), BuildingBlock: UVAHIK_clean_linker_0, # of connection points: 2
#     Edge 131, Type (0, 1), BuildingBlock: UVAHIK_clean_linker_0, # of connection points: 2
#     Edge 132, Type (0, 1), BuildingBlock: UVAHIK_clean_linker_0, # of connection points: 2
#     Edge 133, Type (0, 1), BuildingBlock: UVAHIK_clean_linker_0, # of connection points: 2
#     Edge 134, Type (0, 1), BuildingBlock: UVAHIK_clean_linker_0, # of connection points: 2
#     Edge 135, Type (0, 1), BuildingBlock: UVAHIK_clean_linker_0, # of connection points: 2
# Relax obj value: 0.168
# Max RMSD: 0.292
# Mean RMSD: 0.169
data_MOF--net-gar--node1-TATPOV_clean_sbu_0--node2-INOVEN_clean_sbu_0--edge1-UVAHIK_clean_linker_0
_symmetry_space_group_name_H-M    P1
_symmetry_Int_Tables_number       1
_symmetry_cell_setting            triclinic
loop_
_symmetry_equiv_pos_as_xyz
'x, y, z'
_cell_length_a     77.847217
_cell_length_b     72.888264
_cell_length_c     73.22445
_cell_angle_alpha  99.061951
_cell_angle_beta   95.495955
_cell_angle_gamma 104.87868
loop_
_atom_site_label
_atom_site_type_symbol
_atom_site_fract_x
_atom_site_fract_y
_atom_site_fract_z
_atom_type_partial_charge
Zn0 Zn 0.07012 0.32717 0.4106 0.0
Zn1 Zn 0.09692 0.32468 0.39336 0.0
O2 O 0.10315 0.35327 0.40523 0.0
O3 O 0.07471 0.35006 0.39726 0.0
O4 O 0.11657 0.32148 0.37914 0.0
O5 O 0.06591 0.29781 0.40633 0.0
O6 O 0.09527 0.30425 0.40984 0.0
C7 C 0.09067 0.36072 0.40074 0.0
C8 C 0.05962 0.30791 0.37342 0.0
O9 O 0.07549 0.31767 0.3725 0.0
O10 O 0.05513 0.30516 0.38928 0.0
C11 C 0.12128 0.33199 0.36725 0.0
O12 O 0.11415 0.34625 0.36563 0.0
C13 C 0.08004 0.29285 0.41035 0.0
Zn14 Zn 0.99037 0.72215 0.66488 0.0
Zn15 Zn 0.99122 0.75193 0.6462 0.0
O16 O 0.97053 0.75114 0.66064 0.0
O17 O 0.97256 0.73053 0.67932 0.0
O18 O 0.99286 0.77433 0.63315 0.0
O19 O 0.01679 0.73391 0.67277 0.0
O20 O 0.0157 0.76003 0.66158 0.0
C21 C 0.96518 0.74259 0.67374 0.0
C22 C 0.98342 0.71038 0.62554 0.0
O23 O 0.98764 0.72848 0.62594 0.0
O24 O 0.98205 0.70379 0.64048 0.0
C25 C 0.99953 0.77429 0.61798 0.0
O26 O 0.00378 0.75884 0.61028 0.0
C27 C 0.02428 0.75079 0.67043 0.0
Zn28 Zn 0.56758 0.82604 0.9092 0.0
Zn29 Zn 0.59699 0.82559 0.89425 0.0
O30 O 0.6033 0.85346 0.90731 0.0
O31 O 0.57505 0.851 0.89875 0.0
O32 O 0.6172 0.82278 0.88088 0.0
O33 O 0.56536 0.7968 0.90349 0.0
O34 O 0.59465 0.8048 0.91023 0.0
C35 C 0.59113 0.86134 0.90304 0.0
C36 C 0.56059 0.8091 0.87157 0.0
O37 O 0.57647 0.81981 0.87242 0.0
O38 O 0.55491 0.80464 0.88647 0.0
C39 C 0.62255 0.83323 0.86912 0.0
O40 O 0.61585 0.84772 0.86713 0.0
C41 C 0.57953 0.79246 0.90871 0.0
Zn42 Zn 0.48837 0.22219 0.16652 0.0
Zn43 Zn 0.49344 0.25319 0.14897 0.0
O44 O 0.47002 0.25233 0.15868 0.0
O45 O 0.46789 0.23 0.17615 0.0
O46 O 0.49932 0.27645 0.13727 0.0
O47 O 0.51396 0.23314 0.17884 0.0
O48 O 0.51545 0.2598 0.16776 0.0
C49 C 0.46177 0.24249 0.16963 0.0
C50 C 0.48745 0.21255 0.12726 0.0
O51 O 0.49237 0.23077 0.12836 0.0
O52 O 0.48362 0.20528 0.14144 0.0
C53 C 0.49402 0.27651 0.12038 0.0
O54 O 0.48292 0.26085 0.10994 0.0
C55 C 0.52247 0.25008 0.17758 0.0
Zn56 Zn 0.09629 0.80839 0.09417 0.0
Zn57 Zn 0.07176 0.80434 0.11728 0.0
O58 O 0.07009 0.8284 0.10552 0.0
O59 O 0.091 0.83183 0.08708 0.0
O60 O 0.05124 0.80032 0.13324 0.0
O61 O 0.08354 0.78301 0.07806 0.0
O62 O 0.06427 0.77866 0.09818 0.0
C63 C 0.07827 0.83717 0.09369 0.0
C64 C 0.11137 0.80736 0.13133 0.0
O65 O 0.0954 0.80637 0.13489 0.0
O66 O 0.11514 0.80878 0.11508 0.0
C67 C 0.03643 0.80326 0.12727 0.0
O68 O 0.03513 0.80966 0.11154 0.0
C69 C 0.07003 0.77251 0.08333 0.0
Zn70 Zn 0.48653 0.76032 0.43195 0.0
Zn71 Zn 0.50948 0.76045 0.40645 0.0
O72 O 0.5176 0.78676 0.42405 0.0
O73 O 0.50203 0.78519 0.44757 0.0
O74 O 0.53032 0.76208 0.39074 0.0
O75 O 0.4894 0.73553 0.43826 0.0
O76 O 0.51016 0.73721 0.41969 0.0
C77 C 0.51431 0.79442 0.43969 0.0
C78 C 0.47091 0.76082 0.39406 0.0
O79 O 0.48578 0.75877 0.3892 0.0
O80 O 0.46842 0.76199 0.41101 0.0
C81 C 0.54047 0.77837 0.38909 0.0
O82 O 0.53632 0.79421 0.39582 0.0
C83 C 0.50157 0.72908 0.43163 0.0
Zn84 Zn 0.59611 0.30783 0.59287 0.0
Zn85 Zn 0.57201 0.3041 0.61697 0.0
O86 O 0.57025 0.32826 0.60548 0.0
O87 O 0.58978 0.33075 0.58547 0.0
O88 O 0.55184 0.30005 0.63333 0.0
O89 O 0.58315 0.282 0.57752 0.0
O90 O 0.56415 0.2784 0.59798 0.0
C91 C 0.57768 0.33654 0.59298 0.0
C92 C 0.61184 0.3076 0.63032 0.0
O93 O 0.59586 0.3061 0.63403 0.0
O94 O 0.61536 0.30919 0.614 0.0
C95 C 0.53735 0.30417 0.62834 0.0
O96 O 0.53619 0.31191 0.6134 0.0
C97 C 0.56965 0.27186 0.58311 0.0
Zn98 Zn 0.98346 0.25858 0.93116 0.0
Zn99 Zn 0.0084 0.26103 0.90694 0.0
O100 O 0.01563 0.28645 0.92552 0.0
O101 O 0.99689 0.2848 0.94625 0.0
O102 O 0.02955 0.26366 0.89147 0.0
O103 O 0.98903 0.23544 0.93869 0.0
O104 O 0.00928 0.2373 0.91949 0.0
C105 C 0.01051 0.29401 0.9401 0.0
C106 C 0.9689 0.25821 0.89283 0.0
O107 O 0.98501 0.25991 0.88944 0.0
O108 O 0.96499 0.25655 0.90901 0.0
C109 C 0.042 0.27948 0.89352 0.0
O110 O 0.04058 0.29486 0.90458 0.0
C111 C 0.00122 0.22924 0.9318 0.0
Zn112 Zn 0.46452 0.00857 0.27729 0.0
Zn113 Zn 0.43677 0.0387 0.27447 0.0
O114 O 0.43423 0.03858 0.30119 0.0
O115 O 0.45128 0.01898 0.29698 0.0
O116 O 0.42425 0.05715 0.26617 0.0
O117 O 0.48053 0.02767 0.26373 0.0
O118 O 0.46275 0.04424 0.2728 0.0
C119 C 0.44207 0.02702 0.30718 0.0
C120 C 0.42449 0.99474 0.26066 0.0
O121 O 0.42311 0.01191 0.26235 0.0
O122 O 0.43917 0.99086 0.26549 0.0
C123 C 0.40729 0.05187 0.26557 0.0
O124 O 0.3996 0.03497 0.26954 0.0
C125 C 0.46899 0.03622 0.25937 0.0
Zn126 Zn 0.26356 0.20852 0.49788 0.0
Zn127 Zn 0.28576 0.18692 0.49836 0.0
O128 O 0.28996 0.1985 0.47412 0.0
O129 O 0.26844 0.21307 0.47248 0.0
O130 O 0.30461 0.17242 0.50235 0.0
O131 O 0.27675 0.22752 0.5208 0.0
O132 O 0.292 0.20634 0.52347 0.0
C133 C 0.28111 0.20791 0.46554 0.0
C134 C 0.24565 0.16908 0.4987 0.0
O135 O 0.26097 0.16647 0.49638 0.0
O136 O 0.24355 0.18589 0.50076 0.0
C137 C 0.31433 0.16743 0.49055 0.0
O138 O 0.31194 0.17088 0.47355 0.0
C139 C 0.28808 0.22173 0.53021 0.0
Zn140 Zn 0.13625 0.02648 0.76952 0.0
Zn141 Zn 0.15865 0.00528 0.76842 0.0
O142 O 0.14502 0.004 0.79485 0.0
O143 O 0.12599 0.02166 0.79325 0.0
O144 O 0.17439 0.98265 0.76567 0.0
O145 O 0.12138 0.01611 0.74422 0.0
O146 O 0.14232 1.00107 0.74021 0.0
C147 C 0.13295 0.0112 0.80213 0.0
C148 C 0.17306 0.05044 0.77015 0.0
O149 O 0.1772 0.03439 0.77059 0.0
O150 O 0.15675 0.05044 0.7699 0.0
C151 C 0.17391 0.9685 0.77463 0.0
O152 O 0.16314 0.96685 0.78739 0.0
C153 C 0.12858 0.00608 0.73333 0.0
Zn154 Zn 0.32522 0.88108 1.0003 0.0
Zn155 Zn 0.29337 0.91048 0.00714 0.0
O156 O 0.29511 0.91189 0.9797 0.0
O157 O 0.31738 0.90342 0.99174 0.0
O158 O 0.27257 0.9179 0.01531 0.0
O159 O 0.30833 0.86284 0.01517 0.0
O160 O 0.29558 0.88436 0.00956 0.0
C161 C 0.30838 0.90521 0.97721 0.0
C162 C 0.33071 0.92664 0.02353 0.0
O163 O 0.31508 0.9291 0.02192 0.0
O164 O 0.33381 0.9109 0.01571 0.0
C165 C 0.27255 0.93391 0.01062 0.0
O166 O 0.28475 0.94183 0.00085 0.0
C167 C 0.29773 0.87272 0.02007 0.0
Zn168 Zn 0.31311 0.35983 0.02529 0.0
Zn169 Zn 0.29315 0.38368 0.02962 0.0
O170 O 0.28586 0.36746 0.00285 0.0
O171 O 0.2986 0.34374 0.00159 0.0
O172 O 0.27311 0.39734 0.03029 0.0
O173 O 0.30869 0.35067 0.04902 0.0
O174 O 0.29027 0.369 0.05223 0.0
C175 C 0.28821 0.352 0.99402 0.0
C176 C 0.33279 0.40026 0.02716 0.0
O177 O 0.31821 0.40396 0.03115 0.0
O178 O 0.33358 0.38293 0.02373 0.0
C179 C 0.26885 0.40498 0.01665 0.0
O180 O 0.27849 0.40563 0.00288 0.0
C181 C 0.29742 0.35658 0.05794 0.0
Zn182 Zn 0.76177 0.17735 0.01781 0.0
Zn183 Zn 0.78445 0.14617 0.02064 0.0
O184 O 0.78528 0.1563 0.99586 0.0
O185 O 0.77341 0.1811 0.99594 0.0
O186 O 0.80553 0.13599 0.02225 0.0
O187 O 0.77616 0.19066 0.04154 0.0
O188 O 0.78759 0.16607 0.04495 0.0
C189 C 0.78174 0.16981 0.98838 0.0
C190 C 0.75004 0.13206 0.01763 0.0
O191 O 0.76218 0.12359 0.01889 0.0
O192 O 0.75467 0.14983 0.0177 0.0
C193 C 0.80398 0.11859 0.01495 0.0
O194 O 0.78807 0.10703 0.00766 0.0
C195 C 0.78503 0.18238 0.05126 0.0
Zn196 Zn 0.12427 0.55885 0.25007 0.0
Zn197 Zn 0.147 0.5226 0.24136 0.0
O198 O 0.14216 0.51741 0.26795 0.0
O199 O 0.12962 0.53709 0.25807 0.0
O200 O 0.15886 0.50291 0.23164 0.0
O201 O 0.12039 0.55003 0.22245 0.0
O202 O 0.12491 0.52105 0.22308 0.0
C203 C 0.13341 0.52953 0.27146 0.0
C204 C 0.16441 0.56719 0.24913 0.0
O205 O 0.16403 0.54945 0.24458 0.0
O206 O 0.15076 0.57307 0.25274 0.0
C207 C 0.17559 0.50744 0.23093 0.0
O208 O 0.18437 0.52573 0.23258 0.0
C209 C 0.12266 0.53424 0.21425 0.0
Zn210 Zn 0.81558 0.86086 0.52711 0.0
Zn211 Zn 0.79348 0.88412 0.52961 0.0
O212 O 0.78666 0.86657 0.50373 0.0
O213 O 0.80308 0.84604 0.50198 0.0
O214 O 0.77379 0.89845 0.52929 0.0
O215 O 0.80804 0.85076 0.54947 0.0
O216 O 0.7903 0.86993 0.55255 0.0
C217 C 0.79091 0.85237 0.49476 0.0
C218 C 0.83394 0.90171 0.53038 0.0
O219 O 0.81832 0.90429 0.53075 0.0
O220 O 0.8361 0.88496 0.52935 0.0
C221 C 0.76624 0.90065 0.51382 0.0
O222 O 0.77224 0.89511 0.49831 0.0
C223 C 0.79678 0.85698 0.55814 0.0
Zn224 Zn 0.94325 0.03905 0.25025 0.0
Zn225 Zn 0.9228 0.0619 0.25349 0.0
O226 O 0.93973 0.06716 0.28125 0.0
O227 O 0.95768 0.04862 0.27573 0.0
O228 O 0.90744 0.08472 0.25425 0.0
O229 O 0.95484 0.04464 0.22771 0.0
O230 O 0.9367 0.06335 0.22713 0.0
C231 C 0.95259 0.06032 0.28718 0.0
C232 C 0.90695 0.01597 0.24996 0.0
O233 O 0.90393 0.03282 0.25231 0.0
O234 O 0.92263 0.01495 0.24771 0.0
C235 C 0.90932 0.10031 0.2666 0.0
O236 O 0.9216 0.10364 0.28125 0.0
C237 C 0.94854 0.056 0.21954 0.0
Zn238 Zn 0.26154 0.66522 0.51955 0.0
Zn239 Zn 0.2857 0.65116 0.52129 0.0
O240 O 0.29012 0.66313 0.49847 0.0
O241 O 0.26144 0.66031 0.49179 0.0
O242 O 0.30576 0.63936 0.52376 0.0
O243 O 0.27455 0.69025 0.53631 0.0
O244 O 0.28756 0.66948 0.54595 0.0
C245 C 0.27672 0.66203 0.48667 0.0
C246 C 0.24897 0.62862 0.52323 0.0
O247 O 0.26293 0.62871 0.51564 0.0
O248 O 0.24687 0.64444 0.53107 0.0
C249 C 0.30358 0.62263 0.5142 0.0
O250 O 0.2879 0.61319 0.50441 0.0
C251 C 0.28338 0.68534 0.54918 0.0
Zn252 Zn 0.4423 0.53847 0.74981 0.0
Zn253 Zn 0.4225 0.56177 0.75375 0.0
O254 O 0.43972 0.56683 0.78131 0.0
O255 O 0.45726 0.54801 0.77501 0.0
O256 O 0.40726 0.58476 0.75476 0.0
O257 O 0.45307 0.54313 0.72666 0.0
O258 O 0.43625 0.56329 0.72731 0.0
C259 C 0.45255 0.55973 0.78681 0.0
C260 C 0.40626 0.51569 0.7501 0.0
O261 O 0.40339 0.53263 0.75249 0.0
O262 O 0.42188 0.51454 0.74779 0.0
C263 C 0.40949 0.60055 0.76696 0.0
O264 O 0.42212 0.60404 0.78132 0.0
C265 C 0.44738 0.55526 0.7191 0.0
Zn266 Zn 0.62768 0.04663 0.753 0.0
Zn267 Zn 0.64917 0.02735 0.74087 0.0
O268 O 0.64747 0.02582 0.7678 0.0
O269 O 0.61907 0.02387 0.76602 0.0
O270 O 0.66486 0.0111 0.73422 0.0
O271 O 0.62175 0.04512 0.72532 0.0
O272 O 0.62767 0.01716 0.72168 0.0
C273 C 0.63328 0.0229 0.77528 0.0
C274 C 0.66386 0.06731 0.75341 0.0
O275 O 0.66257 0.05412 0.73942 0.0
O276 O 0.65175 0.06598 0.76392 0.0
C277 C 0.68152 0.01792 0.73976 0.0
O278 O 0.688 0.03619 0.74769 0.0
C279 C 0.62217 0.02982 0.71476 0.0
Zn280 Zn 0.76313 0.70701 0.99342 0.0
Zn281 Zn 0.78685 0.68729 0.99817 0.0
O282 O 0.79137 0.69795 0.97363 0.0
O283 O 0.77135 0.71421 0.97 0.0
O284 O 0.80742 0.67525 0.00296 0.0
O285 O 0.77239 0.7247 0.01787 0.0
O286 O 0.79096 0.70718 0.02272 0.0
C287 C 0.78421 0.7083 0.9645 0.0
C288 C 0.74652 0.66722 0.99501 0.0
O289 O 0.76263 0.66584 0.99655 0.0
O290 O 0.74336 0.6831 0.99333 0.0
C291 C 0.80854 0.65927 0.994 0.0
O292 O 0.79555 0.64924 0.98059 0.0
C293 C 0.78423 0.72085 0.02848 0.0
Zn294 Zn 0.96161 0.51076 0.77472 0.0
Zn295 Zn 0.93768 0.5386 0.77448 0.0
O296 O 0.93727 0.53691 0.80124 0.0
O297 O 0.95533 0.51759 0.80071 0.0
O298 O 0.92464 0.55779 0.76847 0.0
O299 O 0.98113 0.5295 0.76385 0.0
O300 O 0.96339 0.5464 0.77151 0.0
C301 C 0.94556 0.52669 0.80915 0.0
C302 C 0.92438 0.49493 0.75647 0.0
O303 O 0.92333 0.51211 0.76127 0.0
O304 O 0.93925 0.49089 0.75919 0.0
C305 C 0.90758 0.55191 0.76567 0.0
O306 O 0.89959 0.53406 0.76687 0.0
C307 C 0.96992 0.53806 0.75856 0.0
Zn308 Zn 0.81682 0.39787 0.51374 0.0
Zn309 Zn 0.79388 0.41274 0.50851 0.0
O310 O 0.79614 0.40193 0.4818 0.0
O311 O 0.82394 0.4012 0.48885 0.0
O312 O 0.77423 0.42484 0.50858 0.0
O313 O 0.8011 0.37257 0.51714 0.0
O314 O 0.78807 0.39462 0.52687 0.0
C315 C 0.81095 0.40031 0.47669 0.0
C316 C 0.82713 0.43485 0.53276 0.0
O317 O 0.81528 0.43513 0.51974 0.0
O318 O 0.82809 0.4187 0.53635 0.0
C319 C 0.77621 0.44178 0.50539 0.0
O320 O 0.79058 0.45052 0.49879 0.0
C321 C 0.79143 0.37867 0.52818 0.0
Zn322 Zn 0.6385 0.52752 0.27046 0.0
Zn323 Zn 0.6576 0.50453 0.2686 0.0
O324 O 0.6434 0.50322 0.29517 0.0
O325 O 0.62811 0.52456 0.29389 0.0
O326 O 0.67301 0.48151 0.26564 0.0
O327 O 0.62233 0.51807 0.24634 0.0
O328 O 0.64057 0.5001 0.2404 0.0
C329 C 0.63256 0.5124 0.30249 0.0
C330 C 0.67419 0.55 0.27007 0.0
O331 O 0.67723 0.53337 0.27038 0.0
O332 O 0.6583 0.5512 0.2702 0.0
C333 C 0.67312 0.46768 0.27492 0.0
O334 O 0.66306 0.46642 0.28834 0.0
C335 C 0.62752 0.50679 0.23459 0.0
Gd336 Gd 0.02471 0.02494 0.00284 0.0
Gd337 Gd 0.06264 0.04576 0.02348 0.0
C338 C 0.04078 0.07108 0.00508 0.0
C339 C 0.99039 0.01366 0.99403 0.0
C340 C 0.97724 0.0245 0.99143 0.0
C341 C 0.96414 0.01819 0.97561 0.0
C342 C 0.97868 0.04204 0.00344 0.0
C343 C 0.95293 0.04591 0.98461 0.0
C344 C 0.96653 0.05265 1.00008 0.0
C345 C 0.95209 0.02884 0.97218 0.0
C346 C 0.04806 0.02291 0.9766 0.0
C347 C 0.04649 0.99957 0.02169 0.0
C348 C 0.09701 0.05714 0.03225 0.0
C349 C 0.10998 0.04587 0.03295 0.0
C350 C 0.12583 0.05294 0.04567 0.0
C351 C 0.10564 0.0271 0.02234 0.0
C352 C 0.13346 0.02291 0.03641 0.0
C353 C 0.1173 0.01569 0.02407 0.0
C354 C 0.13756 0.04151 0.0474 0.0
C355 C 0.03901 0.04819 0.04934 0.0
O356 O 0.02633 0.05622 0.00249 0.0
O357 O 0.05683 0.07023 0.01166 0.0
O358 O 0.00142 0.01454 0.98169 0.0
O359 O 0.99833 0.01546 0.01107 0.0
O360 O 0.0309 0.01517 0.97391 0.0
O361 O 0.05229 0.0309 0.99396 0.0
O362 O 0.06077 0.01468 0.02475 0.0
O363 O 0.03062 1.00014 0.01415 0.0
O364 O 0.08603 0.0546 0.04456 0.0
O365 O 0.08894 0.05686 0.01564 0.0
O366 O 0.05612 0.05625 0.0522 0.0
O367 O 0.03511 0.0401 0.03206 0.0
H368 H 0.96324 0.005 0.96591 0.0
H369 H 0.98906 0.04746 0.01545 0.0
H370 H 0.96735 0.06568 0.00997 0.0
H371 H 0.94185 0.02352 0.96004 0.0
H372 H 0.12909 0.06724 0.05427 0.0
H373 H 0.09321 0.02125 0.01276 0.0
H374 H 0.11377 1.00128 0.01564 0.0
H375 H 0.15002 0.04738 0.05692 0.0
Gd376 Gd 0.29528 0.78757 0.25101 0.0
Gd377 Gd 0.28561 0.79567 0.28733 0.0
C378 C 0.30081 0.83145 0.27156 0.0
C379 C 0.30406 0.78757 0.21798 0.0
C380 C 0.31264 0.80311 0.20858 0.0
C381 C 0.32824 0.80229 0.20079 0.0
C382 C 0.30584 0.81909 0.20786 0.0
C383 C 0.32891 0.83204 0.18963 0.0
C384 C 0.3139 0.83344 0.19843 0.0
C385 C 0.33637 0.81669 0.19142 0.0
C386 C 0.31985 0.7846 0.27826 0.0
C387 C 0.27598 0.7519 0.26598 0.0
C388 C 0.27863 0.79577 0.32097 0.0
C389 C 0.26644 0.78195 0.32967 0.0
C390 C 0.25412 0.78821 0.34008 0.0
C391 C 0.26692 0.76262 0.32775 0.0
C392 C 0.24491 0.75692 0.34903 0.0
C393 C 0.25623 0.7502 0.3374 0.0
C394 C 0.2434 0.77577 0.3497 0.0
C395 C 0.25965 0.79631 0.25996 0.0
O396 O 0.29668 0.81917 0.25553 0.0
O397 O 0.30163 0.82531 0.28738 0.0
O398 O 0.31433 0.78483 0.23181 0.0
O399 O 0.28779 0.78674 0.22158 0.0
O400 O 0.31352 0.77203 0.26301 0.0
O401 O 0.31254 0.79835 0.27896 0.0
O402 O 0.28081 0.76356 0.28226 0.0
O403 O 0.27739 0.75839 0.25032 0.0
O404 O 0.27083 0.8039 0.30929 0.0
O405 O 0.29242 0.79076 0.31513 0.0
O406 O 0.26444 0.80835 0.27568 0.0
O407 O 0.26841 0.78393 0.25941 0.0
H408 H 0.33392 0.79028 0.20161 0.0
H409 H 0.29402 0.82027 0.21411 0.0
H410 H 0.30772 0.84497 0.19707 0.0
H411 H 0.34802 0.81541 0.18489 0.0
H412 H 0.2533 0.80297 0.34135 0.0
H413 H 0.27605 0.75729 0.31947 0.0
H414 H 0.25788 0.73581 0.33685 0.0
H415 H 0.23473 0.7812 0.35857 0.0
Gd416 Gd 0.5553 0.03294 0.51084 0.0
Gd417 Gd 0.51484 0.02847 0.51425 0.0
C418 C 0.52635 0.99042 0.50509 0.0
C419 C 0.58759 0.02918 0.51216 0.0
C420 C 0.59725 0.01405 0.50887 0.0
C421 C 0.60429 0.01074 0.492 0.0
C422 C 0.60114 0.0042 0.52311 0.0
C423 C 0.61992 0.98938 0.50428 0.0
C424 C 0.61238 0.99201 0.52082 0.0
C425 C 0.61551 0.99851 0.48973 0.0
C426 C 0.53447 0.03417 0.48034 0.0
C427 C 0.54384 0.07133 0.52044 0.0
C428 C 0.48242 0.03159 0.51261 0.0
C429 C 0.47325 0.04687 0.517 0.0
C430 C 0.4596 0.0442 0.52838 0.0
C431 C 0.47721 0.06362 0.50918 0.0
C432 C 0.4526 0.07355 0.5222 0.0
C433 C 0.46698 0.07678 0.51174 0.0
C434 C 0.44941 0.05745 0.53102 0.0
C435 C 0.53605 0.02807 0.5449 0.0
O436 O 0.54307 1.00118 0.51088 0.0
O437 O 0.51286 0.99791 0.50205 0.0
O438 O 0.57891 0.03271 0.4975 0.0
O439 O 0.57913 0.03005 0.5268 0.0
O440 O 0.55099 0.0446 0.48467 0.0
O441 O 0.53014 0.02288 0.49141 0.0
O442 O 0.52692 0.06059 0.51637 0.0
O443 O 0.55767 0.06397 0.52155 0.0
O444 O 0.49044 0.02663 0.52682 0.0
O445 O 0.49151 0.03226 0.49842 0.0
O446 O 0.51968 0.01704 0.5406 0.0
O447 O 0.53994 0.03884 0.53336 0.0
H448 H 0.60172 0.01821 0.48081 0.0
H449 H 0.59608 0.00646 0.53631 0.0
H450 H 0.61578 0.98523 0.53228 0.0
H451 H 0.62136 0.99684 0.47694 0.0
H452 H 0.4564 0.03148 0.5347 0.0
H453 H 0.48785 0.06628 0.50061 0.0
H454 H 0.47002 0.08926 0.50507 0.0
H455 H 0.43844 0.05452 0.53915 0.0
Gd456 Gd 0.27235 0.28598 0.76337 0.0
Gd457 Gd 0.31285 0.28007 0.76555 0.0
C458 C 0.29739 0.29208 0.80323 0.0
C459 C 0.23856 0.28035 0.76606 0.0
C460 C 0.22693 0.28396 0.78044 0.0
C461 C 0.22086 0.3007 0.78272 0.0
C462 C 0.22055 0.26978 0.79102 0.0
C463 C 0.20113 0.28805 0.80449 0.0
C464 C 0.20787 0.27182 0.80289 0.0
C465 C 0.20817 0.30278 0.79472 0.0
C466 C 0.29844 0.32076 0.76539 0.0
C467 C 0.28718 0.27195 0.72538 0.0
C468 C 0.34639 0.28586 0.76172 0.0
C469 C 0.35774 0.28081 0.74759 0.0
C470 C 0.36207 0.26305 0.74512 0.0
C471 C 0.3653 0.2946 0.73711 0.0
C472 C 0.38159 0.27332 0.72225 0.0
C473 C 0.37699 0.2909 0.72461 0.0
C474 C 0.37389 0.25935 0.73257 0.0
C475 C 0.28675 0.24606 0.76599 0.0
O476 O 0.28107 0.28798 0.79381 0.0
O477 O 0.31213 0.29247 0.79544 0.0
O478 O 0.24797 0.2952 0.75993 0.0
O479 O 0.24729 0.26747 0.76803 0.0
O480 O 0.28134 0.31885 0.76501 0.0
O481 O 0.30032 0.3039 0.76512 0.0
O482 O 0.30294 0.27321 0.73487 0.0
O483 O 0.27336 0.27572 0.73299 0.0
O484 O 0.33789 0.27229 0.77007 0.0
O485 O 0.33685 0.29751 0.75777 0.0
O486 O 0.304 0.24827 0.76869 0.0
O487 O 0.28507 0.26226 0.76291 0.0
H488 H 0.22544 0.31189 0.77475 0.0
H489 H 0.22488 0.25671 0.78968 0.0
H490 H 0.2029 0.26036 0.81044 0.0
H491 H 0.20318 0.31541 0.7956 0.0
H492 H 0.35656 0.25213 0.75306 0.0
H493 H 0.3625 0.30853 0.73886 0.0
H494 H 0.38293 0.30221 0.71728 0.0
H495 H 0.37708 0.24562 0.73105 0.0
Gd496 Gd 0.03887 0.05071 0.51845 0.0
Gd497 Gd 0.04145 0.01318 0.50113 0.0
C498 C 0.02701 0.03641 0.47252 0.0
C499 C 0.04027 0.08681 0.52479 0.0
C500 C 0.03817 0.09973 0.51168 0.0
C501 C 0.02501 0.10968 0.51311 0.0
C502 C 0.0486 0.10145 0.49705 0.0
C503 C 0.03351 0.12388 0.48622 0.0
C504 C 0.04634 0.11346 0.48452 0.0
C505 C 0.02266 0.12162 0.50046 0.0
C506 C 0.00994 0.02163 0.52035 0.0
C507 C 0.05324 0.02772 0.5471 0.0
C508 C 0.04029 0.97709 0.4943 0.0
C509 C 0.04169 0.96348 0.50683 0.0
C510 C 0.05333 0.95182 0.50399 0.0
C511 C 0.03224 0.96274 0.52224 0.0
C512 C 0.04532 0.93801 0.5312 0.0
C513 C 0.03398 0.95007 0.53426 0.0
C514 C 0.05516 0.9392 0.51609 0.0
C515 C 0.0702 0.0422 0.49875 0.0
O516 O 0.0319 0.05085 0.48717 0.0
O517 O 0.02824 0.01902 0.47446 0.0
O518 O 0.02579 0.07328 0.5256 0.0
O519 O 0.05462 0.08061 0.52468 0.0
O520 O 0.01759 0.03584 0.53414 0.0
O521 O 0.01786 0.0235 0.50621 0.0
O522 O 0.04733 0.01297 0.53273 0.0
O523 O 0.05303 0.04527 0.5447 0.0
O524 O 0.05494 0.99087 0.49475 0.0
O525 O 0.02586 0.9832 0.49394 0.0
O526 O 0.06265 0.02767 0.48526 0.0
O527 O 0.06244 0.04049 0.51303 0.0
H528 H 0.01658 0.10825 0.52404 0.0
H529 H 0.05864 0.09366 0.49534 0.0
H530 H 0.05509 0.11506 0.47389 0.0
H531 H 0.01248 0.12925 0.50196 0.0
H532 H 0.06102 0.95248 0.49242 0.0
H533 H 0.02341 0.97187 0.52496 0.0
H534 H 0.02607 0.94936 0.54564 0.0
H535 H 0.06422 0.93031 0.51356 0.0
Gd536 Gd 0.31121 0.80214 0.76787 0.0
Gd537 Gd 0.27699 0.77053 0.76572 0.0
C538 C 0.31337 0.75639 0.76859 0.0
C539 C 0.34297 0.82493 0.77872 0.0
C540 C 0.36077 0.82156 0.78201 0.0
C541 C 0.37349 0.82716 0.77015 0.0
C542 C 0.36502 0.81217 0.79648 0.0
C543 C 0.39443 0.81416 0.78721 0.0
C544 C 0.38169 0.80848 0.79902 0.0
C545 C 0.3902 0.82349 0.77273 0.0
C546 C 0.29576 0.7838 0.7335 0.0
C547 C 0.27458 0.81597 0.76387 0.0
C548 C 0.24569 0.74685 0.75478 0.0
C549 C 0.22778 0.74948 0.75027 0.0
C550 C 0.21595 0.74888 0.76368 0.0
C551 C 0.22265 0.75345 0.73271 0.0
C552 C 0.19456 0.75673 0.74221 0.0
C553 C 0.20617 0.75705 0.72875 0.0
C554 C 0.19944 0.75265 0.75971 0.0
C555 C 0.29261 0.78808 0.80022 0.0
O556 O 0.32196 0.77536 0.77177 0.0
O557 O 0.29557 0.75079 0.76461 0.0
O558 O 0.33534 0.82086 0.76129 0.0
O559 O 0.33177 0.8193 0.79031 0.0
O560 O 0.30383 0.80222 0.73725 0.0
O561 O 0.29734 0.77634 0.74761 0.0
O562 O 0.2661 0.79706 0.76172 0.0
O563 O 0.29245 0.82182 0.76746 0.0
O564 O 0.25286 0.75194 0.7724 0.0
O565 O 0.25716 0.75219 0.74334 0.0
O566 O 0.28454 0.76968 0.79589 0.0
O567 O 0.29106 0.79618 0.78646 0.0
H568 H 0.37048 0.8343 0.75883 0.0
H569 H 0.3555 0.80761 0.80585 0.0
H570 H 0.38475 0.80149 0.81045 0.0
H571 H 0.39978 0.82785 0.76336 0.0
H572 H 0.21954 0.74572 0.77727 0.0
H573 H 0.2314 0.75399 0.72205 0.0
H574 H 0.20251 0.76024 0.71518 0.0
H575 H 0.19044 0.75222 0.77014 0.0
Gd576 Gd 0.53342 0.03745 0.02417 0.0
Gd577 Gd 0.53066 0.0341 0.98295 0.0
C578 C 0.49498 0.02522 0.99777 0.0
C579 C 0.52967 0.04283 0.05887 0.0
C580 C 0.51757 0.03081 0.0694 0.0
C581 C 0.52231 0.01568 0.07658 0.0
C582 C 0.50083 0.03398 0.07184 0.0
C583 C 0.49424 0.00796 0.08935 0.0
C584 C 0.48927 0.02263 0.08162 0.0
C585 C 0.51074 0.00436 0.08647 0.0
C586 C 0.5333 0.00224 0.00603 0.0
C587 C 0.56868 0.04539 0.00735 0.0
C588 C 0.53582 0.0319 0.94873 0.0
C589 C 0.54751 0.04645 0.9401 0.0
C590 C 0.54248 0.06288 0.93638 0.0
C591 C 0.56447 0.04464 0.93672 0.0
C592 C 0.57093 0.07496 0.92537 0.0
C593 C 0.57605 0.05872 0.9295 0.0
C594 C 0.55408 0.07699 0.92903 0.0
C595 C 0.53169 0.06963 0.00192 0.0
O596 O 0.50458 0.03478 0.0139 0.0
O597 O 0.50255 0.01866 0.98384 0.0
O598 O 0.5423 0.03582 0.05259 0.0
O599 O 0.52205 0.05079 0.04674 0.0
O600 O 0.54226 0.01035 0.02233 0.0
O601 O 0.52378 0.01243 0.00068 0.0
O602 O 0.55867 0.03355 0.9926 0.0
O603 O 0.56123 0.05271 0.02107 0.0
O604 O 0.52179 0.03623 0.95466 0.0
O605 O 0.54407 0.02406 0.96044 0.0
O606 O 0.52132 0.06125 0.98649 0.0
O607 O 0.54098 0.05903 0.00652 0.0
H608 H 0.53507 0.01275 0.07482 0.0
H609 H 0.49677 0.04548 0.06645 0.0
H610 H 0.47683 0.02607 0.084 0.0
H611 H 0.5149 0.99319 0.09237 0.0
H612 H 0.52956 0.06485 0.93905 0.0
H613 H 0.56877 0.03223 0.93955 0.0
H614 H 0.58872 0.05639 0.92637 0.0
H615 H 0.54975 0.08928 0.9259 0.0
Gd616 Gd 0.29167 0.30041 0.26798 0.0
Gd617 Gd 0.27739 0.25878 0.25332 0.0
C618 C 0.24898 0.2805 0.26274 0.0
C619 C 0.2987 0.33741 0.27693 0.0
C620 C 0.28782 0.35088 0.27986 0.0
C621 C 0.29358 0.36665 0.29474 0.0
C622 C 0.27145 0.34782 0.2684 0.0
C623 C 0.26742 0.37719 0.28584 0.0
C624 C 0.26132 0.36093 0.27136 0.0
C625 C 0.28344 0.37975 0.29774 0.0
C626 C 0.29387 0.2784 0.29395 0.0
C627 C 0.32003 0.2793 0.25796 0.0
C628 C 0.27173 0.22181 0.24503 0.0
C629 C 0.28356 0.2092 0.24215 0.0
C630 C 0.27924 0.19415 0.22655 0.0
C631 C 0.2995 0.21246 0.25441 0.0
C632 C 0.30602 0.18485 0.23617 0.0
C633 C 0.3106 0.20034 0.25148 0.0
C634 C 0.29039 0.18207 0.22355 0.0
C635 C 0.27592 0.28098 0.22717 0.0
O636 O 0.26188 0.2962 0.26247 0.0
O637 O 0.25216 0.26358 0.26211 0.0
O638 O 0.29844 0.32626 0.28925 0.0
O639 O 0.29757 0.3283 0.25977 0.0
O640 O 0.30657 0.29327 0.29242 0.0
O641 O 0.28045 0.27577 0.2817 0.0
O642 O 0.30742 0.26337 0.25835 0.0
O643 O 0.31643 0.29595 0.25852 0.0
O644 O 0.27088 0.23252 0.23247 0.0
O645 O 0.27273 0.23114 0.26208 0.0
O646 O 0.26348 0.26552 0.22785 0.0
O647 O 0.28895 0.28344 0.23978 0.0
H648 H 0.30603 0.36894 0.3039 0.0
H649 H 0.26666 0.33554 0.25697 0.0
H650 H 0.24913 0.35878 0.26183 0.0
H651 H 0.28831 0.39212 0.30907 0.0
H652 H 0.26717 0.19169 0.21674 0.0
H653 H 0.30329 0.2242 0.26639 0.0
H654 H 0.32244 0.20273 0.26158 0.0
H655 H 0.28669 0.17042 0.21149 0.0
Gd656 Gd 0.53899 0.55089 0.01858 0.0
Gd657 Gd 0.54186 0.51363 0.00116 0.0
C658 C 0.52713 0.53675 0.97265 0.0
C659 C 0.54024 0.58696 0.025 0.0
C660 C 0.53837 0.60004 0.012 0.0
C661 C 0.52565 0.61052 0.01382 0.0
C662 C 0.54846 0.60134 0.99709 0.0
C663 C 0.53395 0.62446 0.98676 0.0
C664 C 0.54631 0.61349 0.98464 0.0
C665 C 0.52341 0.62259 0.00128 0.0
C666 C 0.5102 0.52183 0.02103 0.0
C667 C 0.55387 0.52796 0.04715 0.0
C668 C 0.54058 0.47751 0.99429 0.0
C669 C 0.54251 0.46396 0.00676 0.0
C670 C 0.55469 0.45294 0.00398 0.0
C671 C 0.53282 0.46246 0.02195 0.0
C672 C 0.5466 0.43806 0.03065 0.0
C673 C 0.53473 0.44955 0.03366 0.0
C674 C 0.55683 0.44022 0.01587 0.0
C675 C 0.57052 0.54286 0.99883 0.0
O676 O 0.5321 0.55117 0.98731 0.0
O677 O 0.52833 0.51936 0.97462 0.0
O678 O 0.52571 0.57332 0.02535 0.0
O679 O 0.55466 0.58084 0.02518 0.0
O680 O 0.5179 0.53636 0.03447 0.0
O681 O 0.51798 0.52342 0.0067 0.0
O682 O 0.54924 0.51354 0.03245 0.0
O683 O 0.55229 0.54523 0.04523 0.0
O684 O 0.5551 0.49121 0.99402 0.0
O685 O 0.52621 0.48368 0.99459 0.0
O686 O 0.56294 0.52838 0.98528 0.0
O687 O 0.56275 0.54104 0.01311 0.0
H688 H 0.51746 0.60938 0.02497 0.0
H689 H 0.55813 0.5931 0.99508 0.0
H690 H 0.55479 0.61476 0.97375 0.0
H691 H 0.51358 0.63063 0.00309 0.0
H692 H 0.56256 0.45417 0.99257 0.0
H693 H 0.52357 0.47108 0.02468 0.0
H694 H 0.52643 0.44819 0.04468 0.0
H695 H 0.56641 0.43199 0.01337 0.0
Gd696 Gd 0.81085 0.30164 0.26589 0.0
Gd697 Gd 0.77684 0.26988 0.26359 0.0
C698 C 0.8131 0.25579 0.26575 0.0
C699 C 0.84256 0.32457 0.27697 0.0
C700 C 0.86049 0.32142 0.28039 0.0
C701 C 0.8717 0.32231 0.26641 0.0
C702 C 0.86633 0.31687 0.29744 0.0
C703 C 0.89395 0.31359 0.28626 0.0
C704 C 0.88285 0.31293 0.30031 0.0
C705 C 0.8883 0.31843 0.26932 0.0
C706 C 0.79502 0.28467 0.23136 0.0
C707 C 0.77416 0.31533 0.26231 0.0
C708 C 0.74527 0.24628 0.25464 0.0
C709 C 0.72753 0.24927 0.25019 0.0
C710 C 0.71529 0.2474 0.26316 0.0
C711 C 0.72309 0.25513 0.23338 0.0
C712 C 0.69482 0.25762 0.24277 0.0
C713 C 0.70684 0.25927 0.22974 0.0
C714 C 0.69895 0.25162 0.25947 0.0
C715 C 0.79294 0.28717 0.29801 0.0
O716 O 0.82163 0.27478 0.26932 0.0
O717 O 0.79533 0.25014 0.26158 0.0
O718 O 0.83495 0.32055 0.25952 0.0
O719 O 0.83131 0.31876 0.28849 0.0
O720 O 0.80345 0.30297 0.2357 0.0
O721 O 0.79666 0.2764 0.24494 0.0
O722 O 0.76578 0.29633 0.25951 0.0
O723 O 0.792 0.32126 0.26628 0.0
O724 O 0.75293 0.25259 0.272 0.0
O725 O 0.75638 0.25024 0.24257 0.0
O726 O 0.78578 0.26863 0.29342 0.0
O727 O 0.7908 0.29529 0.28443 0.0
H728 H 0.86759 0.32584 0.25314 0.0
H729 H 0.85811 0.31623 0.30858 0.0
H730 H 0.88706 0.30959 0.31364 0.0
H731 H 0.89662 0.31898 0.25827 0.0
H732 H 0.71845 0.2429 0.2762 0.0
H733 H 0.7322 0.25675 0.22308 0.0
H734 H 0.70362 0.26378 0.21671 0.0
H735 H 0.68957 0.25016 0.26952 0.0
Gd736 Gd 0.03534 0.53814 0.52491 0.0
Gd737 Gd 0.03096 0.53472 0.48332 0.0
C738 C 0.99601 0.52388 0.49967 0.0
C739 C 0.03203 0.54207 0.55977 0.0
C740 C 0.01928 0.53017 0.56985 0.0
C741 C 0.02392 0.5156 0.57809 0.0
C742 C 0.00218 0.53295 0.57096 0.0
C743 C 0.99519 0.50798 0.58964 0.0
C744 C 0.99026 0.52193 0.58069 0.0
C745 C 0.01197 0.50458 0.58787 0.0
C746 C 0.03702 0.504 0.50596 0.0
C747 C 0.07013 0.54911 0.50732 0.0
C748 C 0.03489 0.53146 0.44881 0.0
C749 C 0.04704 0.54536 0.44007 0.0
C750 C 0.04529 0.5642 0.44043 0.0
C751 C 0.06179 0.54052 0.43321 0.0
C752 C 0.07293 0.57301 0.42732 0.0
C753 C 0.07468 0.55426 0.42699 0.0
C754 C 0.05808 0.57788 0.43388 0.0
C755 C 0.03075 0.56957 0.50242 0.0
O756 O 0.00585 0.5334 0.5157 0.0
O757 O 0.00337 0.51831 0.48517 0.0
O758 O 0.04374 0.53409 0.55266 0.0
O759 O 0.02535 0.55162 0.54854 0.0
O760 O 0.0465 0.5126 0.5219 0.0
O761 O 0.02624 0.5132 0.50134 0.0
O762 O 0.06026 0.53808 0.49199 0.0
O763 O 0.06275 0.55508 0.52175 0.0
O764 O 0.02156 0.53695 0.45525 0.0
O765 O 0.04283 0.52306 0.46025 0.0
O766 O 0.02053 0.56116 0.48688 0.0
O767 O 0.04074 0.55959 0.50687 0.0
H768 H 0.03692 0.51295 0.5773 0.0
H769 H 0.99811 0.54395 0.56467 0.0
H770 H 0.97757 0.52516 0.58212 0.0
H771 H 0.01608 0.49389 0.59464 0.0
H772 H 0.03418 0.56847 0.44592 0.0
H773 H 0.0635 0.52619 0.43292 0.0
H774 H 0.08582 0.55007 0.42145 0.0
H775 H 0.0564 0.59219 0.43392 0.0
Gd776 Gd 0.77448 0.78582 0.26359 0.0
Gd777 Gd 0.8119 0.77906 0.26701 0.0
C778 C 0.7983 0.79302 0.30402 0.0
C779 C 0.74056 0.78009 0.26632 0.0
C780 C 0.72866 0.78424 0.28032 0.0
C781 C 0.71999 0.79891 0.27957 0.0
C782 C 0.7245 0.77226 0.29353 0.0
C783 C 0.7023 0.78841 0.30379 0.0
C784 C 0.71155 0.77434 0.30508 0.0
C785 C 0.70704 0.80106 0.29126 0.0
C786 C 0.79958 0.82123 0.26593 0.0
C787 C 0.79013 0.77589 0.22598 0.0
C788 C 0.84389 0.77576 0.26333 0.0
C789 C 0.85587 0.77426 0.24891 0.0
C790 C 0.86243 0.75795 0.24585 0.0
C791 C 0.86156 0.78904 0.23879 0.0
C792 C 0.88098 0.77165 0.22363 0.0
C793 C 0.87397 0.78775 0.22631 0.0
C794 C 0.87477 0.75662 0.23334 0.0
C795 C 0.78453 0.74821 0.27101 0.0
O796 O 0.78216 0.78752 0.29418 0.0
O797 O 0.81303 0.79398 0.29632 0.0
O798 O 0.74965 0.7943 0.25912 0.0
O799 O 0.74974 0.76794 0.26953 0.0
O800 O 0.78236 0.81852 0.26486 0.0
O801 O 0.80252 0.8049 0.26621 0.0
O802 O 0.8056 0.77839 0.23647 0.0
O803 O 0.77529 0.77655 0.23311 0.0
O804 O 0.82983 0.76103 0.26206 0.0
O805 O 0.84053 0.79237 0.26855 0.0
O806 O 0.80014 0.75439 0.28131 0.0
O807 O 0.78398 0.75913 0.25908 0.0
H808 H 0.72277 0.80832 0.26951 0.0
H809 H 0.73083 0.76079 0.29459 0.0
H810 H 0.70847 0.76457 0.31478 0.0
H811 H 0.70014 0.81202 0.28987 0.0
H812 H 0.85823 0.74631 0.25342 0.0
H813 H 0.85673 0.80179 0.24079 0.0
H814 H 0.87854 0.79972 0.21926 0.0
H815 H 0.87957 0.74385 0.23143 0.0
Gd816 Gd 0.79313 0.28811 0.75165 0.0
Gd817 Gd 0.78401 0.2947 0.78853 0.0
C818 C 0.79771 0.3314 0.77345 0.0
C819 C 0.79982 0.28957 0.71806 0.0
C820 C 0.81052 0.30518 0.70992 0.0
C821 C 0.82768 0.30479 0.70578 0.0
C822 C 0.80402 0.32086 0.70678 0.0
C823 C 0.8312 0.33482 0.69432 0.0
C824 C 0.81426 0.33553 0.69906 0.0
C825 C 0.83797 0.31953 0.69813 0.0
C826 C 0.81985 0.28831 0.7782 0.0
C827 C 0.77843 0.25136 0.76729 0.0
C828 C 0.77765 0.29371 0.82224 0.0
C829 C 0.76517 0.27967 0.83052 0.0
C830 C 0.75173 0.28529 0.83957 0.0
C831 C 0.76643 0.26067 0.82944 0.0
C832 C 0.74251 0.25394 0.84847 0.0
C833 C 0.75519 0.24792 0.83833 0.0
C834 C 0.74045 0.2725 0.84847 0.0
C835 C 0.75659 0.2928 0.76163 0.0
O836 O 0.79351 0.3195 0.75719 0.0
O837 O 0.79898 0.32484 0.789 0.0
O838 O 0.8089 0.28255 0.72973 0.0
O839 O 0.78498 0.29194 0.72373 0.0
O840 O 0.81458 0.27581 0.76281 0.0
O841 O 0.81076 0.30048 0.77924 0.0
O842 O 0.78286 0.26331 0.78347 0.0
O843 O 0.77798 0.25789 0.75157 0.0
O844 O 0.7702 0.30293 0.81139 0.0
O845 O 0.791 0.28834 0.81567 0.0
O846 O 0.76082 0.30481 0.77736 0.0
O847 O 0.76658 0.28163 0.76085 0.0
H848 H 0.83306 0.29294 0.70822 0.0
H849 H 0.79089 0.32167 0.70992 0.0
H850 H 0.80846 0.34687 0.69588 0.0
H851 H 0.85097 0.31864 0.69459 0.0
H852 H 0.75034 0.29979 0.84027 0.0
H853 H 0.77651 0.25583 0.82236 0.0
H854 H 0.75736 0.23382 0.83837 0.0
H855 H 0.73079 0.27745 0.85621 0.0
Gd856 Gd 0.78987 0.79999 0.7681 0.0
Gd857 Gd 0.77613 0.75866 0.75209 0.0
C858 C 0.74736 0.77974 0.76203 0.0
C859 C 0.79691 0.83665 0.77963 0.0
C860 C 0.786 0.85011 0.78055 0.0
C861 C 0.79015 0.86586 0.79545 0.0
C862 C 0.77112 0.84701 0.7669 0.0
C863 C 0.76578 0.8765 0.78196 0.0
C864 C 0.76111 0.86026 0.76755 0.0
C865 C 0.78001 0.87908 0.79618 0.0
C866 C 0.79373 0.77708 0.79276 0.0
C867 C 0.8181 0.78012 0.75539 0.0
C868 C 0.77129 0.72188 0.74274 0.0
C869 C 0.78349 0.7095 0.74103 0.0
C870 C 0.7818 0.69637 0.72431 0.0
C871 C 0.79721 0.71108 0.75559 0.0
C872 C 0.8067 0.68567 0.73712 0.0
C873 C 0.80864 0.69921 0.75368 0.0
C874 C 0.79333 0.68458 0.72234 0.0
C875 C 0.77341 0.78179 0.72701 0.0
O876 O 0.76011 0.79566 0.76201 0.0
O877 O 0.75079 0.76289 0.76103 0.0
O878 O 0.79342 0.82417 0.79066 0.0
O879 O 0.79892 0.82898 0.76285 0.0
O880 O 0.80599 0.79225 0.79111 0.0
O881 O 0.77989 0.77443 0.78107 0.0
O882 O 0.80622 0.76396 0.75651 0.0
O883 O 0.81401 0.79652 0.75642 0.0
O884 O 0.77184 0.73325 0.73058 0.0
O885 O 0.77038 0.73038 0.75961 0.0
O886 O 0.76143 0.76584 0.72734 0.0
O887 O 0.78663 0.78415 0.73931 0.0
H888 H 0.80144 0.86813 0.80623 0.0
H889 H 0.76752 0.83465 0.75551 0.0
H890 H 0.75015 0.85827 0.75645 0.0
H891 H 0.78376 0.89173 0.80726 0.0
H892 H 0.7715 0.69521 0.7128 0.0
H893 H 0.79902 0.72134 0.76853 0.0
H894 H 0.81865 0.70025 0.76543 0.0
H895 H 0.7917 0.67451 0.70931 0.0
Gd896 Gd 0.52409 0.52504 0.50283 0.0
Gd897 Gd 0.56232 0.54569 0.52425 0.0
C898 C 0.54075 0.57126 0.50584 0.0
C899 C 0.48977 0.51402 0.49367 0.0
C900 C 0.47631 0.52468 0.49184 0.0
C901 C 0.46309 0.51871 0.47613 0.0
C902 C 0.4774 0.54163 0.50459 0.0
C903 C 0.45117 0.5456 0.48658 0.0
C904 C 0.46484 0.55198 0.50202 0.0
C905 C 0.45067 0.52911 0.47346 0.0
C906 C 0.54834 0.52353 0.4774 0.0
C907 C 0.54585 0.49927 0.52123 0.0
C908 C 0.59654 0.55661 0.53396 0.0
C909 C 0.60948 0.54527 0.53428 0.0
C910 C 0.62411 0.55075 0.5486 0.0
C911 C 0.60614 0.52775 0.52163 0.0
C912 C 0.6328 0.522 0.53675 0.0
C913 C 0.61778 0.51623 0.52281 0.0
C914 C 0.63573 0.53914 0.54986 0.0
C915 C 0.53806 0.54821 0.54936 0.0
O916 O 0.52614 0.55657 0.50345 0.0
O917 O 0.55681 0.57015 0.51212 0.0
O918 O 0.50094 0.516 0.48148 0.0
O919 O 0.49757 0.5148 0.51055 0.0
O920 O 0.53111 0.51637 0.4738 0.0
O921 O 0.55183 0.53099 0.49485 0.0
O922 O 0.56018 0.51436 0.52441 0.0
O923 O 0.52993 0.50003 0.51392 0.0
O924 O 0.58518 0.55324 0.54581 0.0
O925 O 0.58895 0.55747 0.51746 0.0
O926 O 0.55517 0.55627 0.55264 0.0
O927 O 0.53456 0.54017 0.53208 0.0
H928 H 0.46241 0.50598 0.46588 0.0
H929 H 0.48785 0.5468 0.51657 0.0
H930 H 0.46548 0.56457 0.51242 0.0
H931 H 0.44047 0.52409 0.46127 0.0
H932 H 0.62651 0.56397 0.55878 0.0
H933 H 0.59454 0.52296 0.51086 0.0
H934 H 0.61525 0.50295 0.51266 0.0
H935 H 0.64732 0.54386 0.56064 0.0
Gd936 Gd 0.05666 0.53344 0.01283 0.0
Gd937 Gd 0.01617 0.52905 0.0152 0.0
C938 C 0.02749 0.4909 0.00622 0.0
C939 C 0.08885 0.52934 0.01487 0.0
C940 C 0.09827 0.51425 0.00989 0.0
C941 C 0.10804 0.51482 0.9947 0.0
C942 C 0.09892 0.50024 0.02095 0.0
C943 C 0.12024 0.48898 0.00277 0.0
C944 C 0.10974 0.48773 0.0174 0.0
C945 C 0.11881 0.50232 0.99114 0.0
C946 C 0.03648 0.53407 0.98156 0.0
C947 C 0.04525 0.57188 0.02212 0.0
C948 C 0.98394 0.5328 0.01259 0.0
C949 C 0.97457 0.54778 0.01801 0.0
C950 C 0.96334 0.54575 0.03194 0.0
C951 C 0.97549 0.56325 0.00845 0.0
C952 C 0.95287 0.57307 0.02534 0.0
C953 C 0.9648 0.57582 0.01216 0.0
C954 C 0.95254 0.55821 0.03551 0.0
C955 C 0.03664 0.52887 0.04655 0.0
O956 O 0.04418 0.50158 0.01235 0.0
O957 O 0.01416 0.49853 0.00281 0.0
O958 O 0.08138 0.5353 0.00101 0.0
O959 O 0.07932 0.52805 0.02868 0.0
O960 O 0.05292 0.54464 0.98622 0.0
O961 O 0.0319 0.52309 0.99282 0.0
O962 O 0.0284 0.56111 0.01746 0.0
O963 O 0.05902 0.56448 0.02378 0.0
O964 O 0.99084 0.52587 0.0261 0.0
O965 O 0.99402 0.53507 0.9993 0.0
O966 O 0.02028 0.5179 0.04188 0.0
O967 O 0.04091 0.53954 0.03499 0.0
H968 H 0.10783 0.5254 0.98587 0.0
H969 H 0.09159 0.49936 0.03277 0.0
H970 H 0.11057 0.47776 0.02674 0.0
H971 H 0.12643 0.50348 0.97954 0.0
H972 H 0.96236 0.53402 0.03957 0.0
H973 H 0.98396 0.56525 0.99761 0.0
H974 H 0.96511 0.58702 0.00397 0.0
H975 H 0.94343 0.55582 0.04574 0.0
C976 C 0.99946 0.20705 0.95475 0.0
C977 C 0.00673 0.21351 0.93927 0.0
C978 C 0.00495 0.19287 0.96257 0.0
C979 C 0.02565 0.15306 0.95174 0.0
H980 H 0.03057 0.15599 0.00545 0.0
C981 C 0.05042 0.0976 0.98757 0.0
C982 C 0.03905 0.08907 0.99948 0.0
C983 C 0.04803 0.11389 0.981 0.0
C984 C 0.02919 0.15499 0.99044 0.0
H985 H 0.0256 0.21011 0.91994 0.0
H986 H 0.03521 0.18518 0.93362 0.0
H987 H 0.0239 0.18257 0.9922 0.0
H988 H 0.01681 0.09102 0.01455 0.0
H989 H 0.01303 0.12011 0.00364 0.0
H990 H 0.03099 0.12548 0.95006 0.0
C991 C 0.02512 0.19107 0.93959 0.0
C992 C 0.02533 0.17015 0.98282 0.0
C993 C 0.01965 0.20537 0.93177 0.0
C994 C 0.02566 0.09739 0.00529 0.0
C995 C 0.02358 0.11402 0.99914 0.0
C996 C 0.02967 0.13799 0.95938 0.0
C997 C 0.01785 0.1847 0.95513 0.0
C998 C 0.02327 0.16925 0.96335 0.0
C999 C 0.03452 0.12218 0.98664 0.0
C1000 C 0.03127 0.13871 0.97877 0.0
H1001 H 0.98955 0.21303 0.96101 0.0
H1002 H 0.99885 0.18813 0.97432 0.0
H1003 H 0.02387 0.15173 0.9367 0.0
H1004 H 0.06077 0.09128 0.98284 0.0
H1005 H 0.05668 0.11994 0.97144 0.0
C1006 C 0.13851 0.79631 0.13909 0.0
C1007 C 0.12538 0.80499 0.14531 0.0
C1008 C 0.15193 0.79379 0.15176 0.0
C1009 C 0.17764 0.81443 0.19797 0.0
H1010 H 0.19092 0.7663 0.19379 0.0
C1011 C 0.23156 0.8057 0.25252 0.0
C1012 C 0.24341 0.79501 0.24687 0.0
C1013 C 0.21652 0.80546 0.24037 0.0
C1014 C 0.18759 0.77994 0.19503 0.0
H1015 H 0.11599 0.8177 0.1698 0.0
H1016 H 0.13998 0.81391 0.19211 0.0
H1017 H 0.16569 0.76865 0.17251 0.0
H1018 H 0.24855 0.77527 0.22407 0.0
H1019 H 0.22253 0.7754 0.20237 0.0
H1020 H 0.19979 0.82611 0.21984 0.0
C1021 C 0.13967 0.80888 0.17732 0.0
C1022 C 0.17303 0.78123 0.18289 0.0
C1023 C 0.12593 0.81102 0.1646 0.0
C1024 C 0.23967 0.78371 0.22879 0.0
C1025 C 0.22467 0.78371 0.21641 0.0
C1026 C 0.19231 0.81325 0.20989 0.0
C1027 C 0.15282 0.80021 0.17102 0.0
C1028 C 0.16784 0.79849 0.18429 0.0
C1029 C 0.21299 0.79485 0.22197 0.0
C1030 C 0.19747 0.79595 0.20876 0.0
H1031 H 0.13836 0.79129 0.12433 0.0
H1032 H 0.16189 0.78721 0.14643 0.0
H1033 H 0.17424 0.82804 0.19915 0.0
H1034 H 0.23389 0.81432 0.26646 0.0
H1035 H 0.20764 0.8137 0.2455 0.0
C1036 C 0.52403 0.82255 0.46608 0.0
C1037 C 0.52235 0.81511 0.44692 0.0
C1038 C 0.52766 0.84241 0.47239 0.0
C1039 C 0.51388 0.88062 0.45861 0.0
H1040 H 0.55125 0.91592 0.49607 0.0
C1041 C 0.51551 0.96037 0.48141 0.0
C1042 C 0.52349 0.96966 0.49959 0.0
C1043 C 0.51583 0.94146 0.47488 0.0
C1044 C 0.5405 0.90615 0.48586 0.0
H1045 H 0.52413 0.82243 0.41943 0.0
H1046 H 0.52986 0.85716 0.4305 0.0
H1047 H 0.55343 0.88338 0.48477 0.0
H1048 H 0.537 0.96666 0.5257 0.0
H1049 H 0.53631 0.93304 0.5149 0.0
H1050 H 0.50026 0.9026 0.46035 0.0
C1051 C 0.52872 0.84765 0.44057 0.0
C1052 C 0.54195 0.88768 0.47925 0.0
C1053 C 0.52555 0.82785 0.4343 0.0
C1054 C 0.53083 0.9596 0.51158 0.0
C1055 C 0.53066 0.9405 0.50526 0.0
C1056 C 0.51217 0.89889 0.46553 0.0
C1057 C 0.52922 0.85492 0.45955 0.0
C1058 C 0.52865 0.87487 0.4656 0.0
C1059 C 0.52374 0.93141 0.48663 0.0
C1060 C 0.52544 0.91189 0.4793 0.0
H1061 H 0.52161 0.81295 0.47602 0.0
H1062 H 0.52793 0.84785 0.4871 0.0
H1063 H 0.50333 0.87072 0.44825 0.0
H1064 H 0.51004 0.96812 0.47191 0.0
H1065 H 0.5106 0.93511 0.46039 0.0
C1066 C 0.52032 0.28705 0.65136 0.0
C1067 C 0.52151 0.29949 0.63838 0.0
C1068 C 0.50481 0.28208 0.65993 0.0
C1069 C 0.46487 0.29898 0.67011 0.0
H1070 H 0.44506 0.24713 0.67892 0.0
C1071 C 0.39572 0.27769 0.69319 0.0
C1072 C 0.39526 0.27045 0.70991 0.0
C1073 C 0.41032 0.27844 0.68335 0.0
C1074 C 0.4505 0.26167 0.67658 0.0
H1075 H 0.5073 0.3165 0.62434 0.0
H1076 H 0.48049 0.30785 0.63904 0.0
H1077 H 0.47266 0.25464 0.66459 0.0
H1078 H 0.40916 0.25673 0.72841 0.0
H1079 H 0.43456 0.25774 0.71092 0.0
H1080 H 0.44271 0.30599 0.68181 0.0
C1081 C 0.49152 0.30203 0.64285 0.0
C1082 C 0.46636 0.26603 0.66847 0.0
C1083 C 0.50691 0.30692 0.63429 0.0
C1084 C 0.40905 0.26241 0.71561 0.0
C1085 C 0.42364 0.26303 0.70562 0.0
C1086 C 0.44903 0.29459 0.67798 0.0
C1087 C 0.4902 0.28956 0.65582 0.0
C1088 C 0.47369 0.28475 0.66502 0.0
C1089 C 0.42476 0.27179 0.68983 0.0
C1090 C 0.44157 0.2759 0.68122 0.0
H1091 H 0.53127 0.28096 0.65473 0.0
H1092 H 0.50435 0.27255 0.66994 0.0
H1093 H 0.47029 0.31367 0.66816 0.0
H1094 H 0.38509 0.28348 0.68807 0.0
H1095 H 0.41061 0.28487 0.67097 0.0
C1096 C 0.00682 0.81023 0.62187 0.0
C1097 C 0.00473 0.79218 0.61045 0.0
C1098 C 0.01353 0.82727 0.61531 0.0
C1099 C 0.03936 0.84588 0.57912 0.0
H1100 H 0.01777 0.88819 0.58865 0.0
C1101 C 0.04519 0.90438 0.53448 0.0
C1102 C 0.04576 0.92326 0.54291 0.0
C1103 C 0.04333 0.88978 0.54495 0.0
C1104 C 0.02421 0.87668 0.58618 0.0
H1105 H 0.00736 0.77772 0.58306 0.0
H1106 H 0.0185 0.80743 0.57138 0.0
H1107 H 0.00741 0.85968 0.60234 0.0
H1108 H 0.04606 0.94195 0.56919 0.0
H1109 H 0.04272 0.9163 0.58753 0.0
H1110 H 0.05582 0.86269 0.56255 0.0
C1111 C 0.0155 0.80846 0.58559 0.0
C1112 C 0.01823 0.86031 0.59398 0.0
C1113 C 0.00896 0.79145 0.5922 0.0
C1114 C 0.04532 0.92744 0.56225 0.0
C1115 C 0.04344 0.91279 0.57274 0.0
C1116 C 0.04533 0.86223 0.57131 0.0
C1117 C 0.01811 0.82655 0.59716 0.0
C1118 C 0.02546 0.84457 0.59019 0.0
C1119 C 0.042 0.89372 0.56409 0.0
C1120 C 0.03753 0.87762 0.57442 0.0
H1121 H 0.00383 0.81123 0.63608 0.0
H1122 H 0.01553 0.84099 0.62461 0.0
H1123 H 0.0455 0.83416 0.57631 0.0
H1124 H 0.04524 0.90062 0.51958 0.0
H1125 H 0.042 0.87519 0.53781 0.0
C1126 C 0.534 0.78793 0.85008 0.0
C1127 C 0.54753 0.80543 0.85477 0.0
C1128 C 0.51869 0.78632 0.83773 0.0
C1129 C 0.49667 0.81173 0.80635 0.0
H1130 H 0.45492 0.78876 0.82845 0.0
C1131 C 0.4278 0.82638 0.79137 0.0
C1132 C 0.41236 0.81109 0.79057 0.0
C1133 C 0.44478 0.82406 0.79615 0.0
C1134 C 0.46637 0.7949 0.82186 0.0
H1135 H 0.55657 0.83455 0.84949 0.0
H1136 H 0.52949 0.83205 0.82845 0.0
H1137 H 0.48424 0.78703 0.84106 0.0
H1138 H 0.40242 0.78114 0.79323 0.0
H1139 H 0.43215 0.77693 0.8013 0.0
H1140 H 0.47865 0.82015 0.78752 0.0
C1141 C 0.53081 0.81937 0.8338 0.0
C1142 C 0.48321 0.79386 0.82905 0.0
C1143 C 0.54633 0.82081 0.84582 0.0
C1144 C 0.41416 0.79322 0.79398 0.0
C1145 C 0.43114 0.79084 0.79863 0.0
C1146 C 0.47975 0.81279 0.79914 0.0
C1147 C 0.51649 0.80239 0.83036 0.0
C1148 C 0.49857 0.80229 0.82143 0.0
C1149 C 0.4466 0.80635 0.80009 0.0
C1150 C 0.46445 0.80444 0.80689 0.0
H1151 H 0.53478 0.7759 0.85682 0.0
H1152 H 0.50809 0.77287 0.8349 0.0
H1153 H 0.50826 0.81835 0.8002 0.0
H1154 H 0.42672 0.84037 0.789 0.0
H1155 H 0.45642 0.83636 0.79745 0.0
C1156 C 0.47956 0.18012 0.10724 0.0
C1157 C 0.48905 0.19973 0.11046 0.0
C1158 C 0.48431 0.1669 0.09427 0.0
C1159 C 0.51137 0.16168 0.05615 0.0
H1160 H 0.51383 0.11527 0.07478 0.0
C1161 C 0.54206 0.1029 0.02057 0.0
C1162 C 0.52865 0.08535 0.01489 0.0
C1163 C 0.53881 0.11796 0.03282 0.0
C1164 C 0.51331 0.12826 0.06957 0.0
H1165 H 0.50992 0.22131 0.10186 0.0
H1166 H 0.51848 0.1981 0.07938 0.0
H1167 H 0.50352 0.13986 0.09374 0.0
H1168 H 0.50175 0.06931 0.01742 0.0
H1169 H 0.49645 0.09514 0.03978 0.0
H1170 H 0.52135 0.14993 0.03201 0.0
C1171 C 0.50727 0.19294 0.08668 0.0
C1172 C 0.50722 0.14217 0.08022 0.0
C1173 C 0.50235 0.20622 0.09949 0.0
C1174 C 0.51224 0.08271 0.02181 0.0
C1175 C 0.50924 0.09742 0.03453 0.0
C1176 C 0.51769 0.14784 0.04559 0.0
C1177 C 0.49877 0.1731 0.08455 0.0
C1178 C 0.50581 0.15879 0.07341 0.0
C1179 C 0.5224 0.11518 0.0399 0.0
C1180 C 0.51835 0.13093 0.05212 0.0
H1181 H 0.46911 0.17487 0.11544 0.0
H1182 H 0.47718 0.15172 0.09246 0.0
H1183 H 0.51037 0.17434 0.05059 0.0
H1184 H 0.5548 0.10505 0.01525 0.0
H1185 H 0.54903 0.13168 0.03682 0.0
C1186 C 0.13527 0.30792 0.35152 0.0
C1187 C 0.13295 0.32661 0.35397 0.0
C1188 C 0.14557 0.30229 0.33834 0.0
C1189 C 0.1824 0.32183 0.31394 0.0
H1190 H 0.16678 0.27127 0.28152 0.0
C1191 C 0.22708 0.29987 0.2634 0.0
C1192 C 0.23122 0.28268 0.26576 0.0
C1193 C 0.21218 0.30408 0.27016 0.0
C1194 C 0.17124 0.28542 0.29048 0.0
H1195 H 0.1396 0.35409 0.34473 0.0
H1196 H 0.15799 0.34429 0.32181 0.0
H1197 H 0.14663 0.2816 0.30211 0.0
H1198 H 0.22218 0.25551 0.27522 0.0
H1199 H 0.19615 0.26303 0.28731 0.0
H1200 H 0.20714 0.32552 0.30284 0.0
C1201 C 0.15171 0.33404 0.33005 0.0
C1202 C 0.15979 0.2913 0.30224 0.0
C1203 C 0.14121 0.33962 0.34311 0.0
C1204 C 0.21931 0.26892 0.27334 0.0
C1205 C 0.2044 0.27319 0.28019 0.0
C1206 C 0.19381 0.31598 0.30222 0.0
C1207 C 0.15389 0.31529 0.32752 0.0
C1208 C 0.16537 0.30949 0.31417 0.0
C1209 C 0.20126 0.29121 0.27943 0.0
C1210 C 0.18836 0.2977 0.29048 0.0
H1211 H 0.12893 0.29752 0.35959 0.0
H1212 H 0.14726 0.28785 0.33683 0.0
H1213 H 0.18715 0.33575 0.32327 0.0
H1214 H 0.23586 0.31055 0.25724 0.0
H1215 H 0.20978 0.3179 0.26908 0.0
C1216 C 0.94512 0.05121 0.1836 0.0
C1217 C 0.95552 0.05978 0.20124 0.0
C1218 C 0.95303 0.05036 0.16678 0.0
C1219 C 0.99638 0.07045 0.14663 0.0
H1220 H 0.97676 0.02665 0.10605 0.0
C1221 C 0.03608 0.05895 0.08331 0.0
C1222 C 0.0275 0.04894 0.06525 0.0
C1223 C 0.02679 0.06009 0.09894 0.0
C1224 C 0.98247 0.0392 0.11701 0.0
H1225 H 0.98284 0.07373 0.21435 0.0
H1226 H 0.99636 0.07293 0.18561 0.0
H1227 H 0.96205 0.02941 0.13401 0.0
H1228 H 0.00157 0.03198 0.05023 0.0
H1229 H 0.98515 0.03416 0.07737 0.0
H1230 H 0.01663 0.08045 0.12979 0.0
C1231 C 0.98197 0.06703 0.18444 0.0
C1232 C 0.97388 0.04081 0.13333 0.0
C1233 C 0.97411 0.06765 0.20118 0.0
C1234 C 0.00888 0.03995 0.06366 0.0
C1235 C 0.99943 0.04114 0.0795 0.0
C1236 C 0.00488 0.0689 0.13034 0.0
C1237 C 0.97174 0.05806 0.16673 0.0
C1238 C 0.98065 0.05645 0.14869 0.0
C1239 C 0.00814 0.05138 0.09762 0.0
C1240 C 0.99831 0.05316 0.11504 0.0
H1241 H 0.93093 0.04426 0.18285 0.0
H1242 H 0.94436 0.0434 0.15376 0.0
H1243 H 0.00215 0.083 0.15758 0.0
H1244 H 0.05037 0.06598 0.08556 0.0
H1245 H 0.03456 0.06769 0.11227 0.0
C1246 C 0.28979 0.68323 0.4657 0.0
C1247 C 0.27875 0.66552 0.46792 0.0
C1248 C 0.28579 0.69086 0.45006 0.0
C1249 C 0.244 0.68787 0.42133 0.0
H1250 H 0.27448 0.72688 0.39941 0.0
C1251 C 0.23127 0.72578 0.35885 0.0
C1252 C 0.23836 0.74596 0.36339 0.0
C1253 C 0.23179 0.71474 0.37269 0.0
C1254 C 0.26589 0.71608 0.40562 0.0
H1255 H 0.25732 0.64016 0.45469 0.0
H1256 H 0.25097 0.65296 0.42678 0.0
H1257 H 0.28808 0.70762 0.41761 0.0
H1258 H 0.24925 0.77059 0.38609 0.0
H1259 H 0.25042 0.75121 0.41008 0.0
H1260 H 0.22179 0.69618 0.40876 0.0
C1261 C 0.26203 0.66144 0.43739 0.0
C1262 C 0.27363 0.70504 0.4159 0.0
C1263 C 0.2658 0.65401 0.45316 0.0
C1264 C 0.24359 0.75507 0.38223 0.0
C1265 C 0.24432 0.74403 0.39597 0.0
C1266 C 0.23624 0.69873 0.41075 0.0
C1267 C 0.27093 0.68058 0.43654 0.0
C1268 C 0.26278 0.69087 0.42391 0.0
C1269 C 0.23955 0.72386 0.39099 0.0
C1270 C 0.24721 0.71297 0.40304 0.0
H1271 H 0.29986 0.69223 0.47705 0.0
H1272 H 0.29302 0.7056 0.44972 0.0
H1273 H 0.2353 0.67745 0.42783 0.0
H1274 H 0.22709 0.71851 0.34441 0.0
H1275 H 0.22811 0.69912 0.3687 0.0
C1276 C 0.62272 0.04595 0.68736 0.0
C1277 C 0.62079 0.02891 0.69462 0.0
C1278 C 0.62124 0.04511 0.66817 0.0
C1279 C 0.58953 0.01581 0.63503 0.0
H1280 H 0.61147 0.03994 0.59626 0.0
C1281 C 0.54716 0.0096 0.56651 0.0
C1282 C 0.54924 0.02669 0.55958 0.0
C1283 C 0.56004 0.00836 0.58037 0.0
C1284 C 0.60526 0.03316 0.60702 0.0
H1285 H 0.6181 0.99814 0.68795 0.0
H1286 H 0.61446 0.99656 0.65422 0.0
H1287 H 0.63006 0.04135 0.62589 0.0
H1288 H 0.56619 0.05571 0.56088 0.0
H1289 H 0.58821 0.05402 0.58609 0.0
H1290 H 0.56462 0.0091 0.61752 0.0
C1291 C 0.61746 0.01051 0.66343 0.0
C1292 C 0.61587 0.03382 0.62373 0.0
C1293 C 0.61906 0.01135 0.68261 0.0
C1294 C 0.56439 0.04243 0.56627 0.0
C1295 C 0.57709 0.04136 0.58044 0.0
C1296 C 0.57896 0.01549 0.6187 0.0
C1297 C 0.61762 0.02721 0.65618 0.0
C1298 C 0.60794 0.025 0.63766 0.0
C1299 C 0.57484 0.0244 0.5878 0.0
C1300 C 0.58668 0.02406 0.6045 0.0
H1301 H 0.62484 0.05984 0.69643 0.0
H1302 H 0.6212 0.05808 0.6627 0.0
H1303 H 0.58314 0.0096 0.64602 0.0
H1304 H 0.53569 0.99721 0.56115 0.0
H1305 H 0.55821 0.99497 0.58556 0.0
C1306 C 0.27729 0.32622 0.96568 0.0
C1307 C 0.28218 0.34591 0.97387 0.0
C1308 C 0.27643 0.32058 0.94642 0.0
C1309 C 0.30134 0.3353 0.91117 0.0
H1310 H 0.26294 0.29992 0.87489 0.0
C1311 C 0.30898 0.31495 0.83341 0.0
C1312 C 0.29873 0.29677 0.82355 0.0
C1313 C 0.30701 0.32095 0.852 0.0
C1314 C 0.27393 0.30952 0.88492 0.0
H1315 H 0.28904 0.37514 0.96851 0.0
H1316 H 0.28815 0.36522 0.93481 0.0
H1317 H 0.25706 0.31069 0.90636 0.0
H1318 H 0.27943 0.27004 0.82522 0.0
H1319 H 0.2769 0.27982 0.85799 0.0
H1320 H 0.31854 0.33348 0.89033 0.0
C1321 C 0.28464 0.35423 0.94326 0.0
C1322 C 0.27043 0.31584 0.90282 0.0
C1323 C 0.28499 0.35986 0.96244 0.0
C1324 C 0.28743 0.28416 0.8327 0.0
C1325 C 0.2858 0.28992 0.85135 0.0
C1326 C 0.30496 0.32867 0.89342 0.0
C1327 C 0.28094 0.33459 0.93527 0.0
C1328 C 0.2841 0.3288 0.91601 0.0
C1329 C 0.295 0.30867 0.86103 0.0
C1330 C 0.29131 0.31565 0.88006 0.0
H1331 H 0.27518 0.31527 0.97431 0.0
H1332 H 0.27358 0.30535 0.94047 0.0
H1333 H 0.31214 0.34508 0.92133 0.0
H1334 H 0.31755 0.32496 0.82641 0.0
H1335 H 0.31422 0.33554 0.8589 0.0
C1336 C 0.9512 0.06477 0.32259 0.0
C1337 C 0.96107 0.06378 0.30745 0.0
C1338 C 0.95845 0.06326 0.34071 0.0
C1339 C 0.99585 0.04632 0.36476 0.0
H1340 H 0.98032 0.06726 0.41011 0.0
C1341 C 0.01976 0.02775 0.43679 0.0
C1342 C 0.01974 0.03996 0.45375 0.0
C1343 C 0.01283 0.03112 0.41938 0.0
C1344 C 0.98517 0.06139 0.39777 0.0
H1345 H 0.98691 0.06153 0.3003 0.0
H1346 H 0.9996 0.05984 0.33134 0.0
H1347 H 0.96885 0.07348 0.38036 0.0
H1348 H 0.0121 0.06546 0.46521 0.0
H1349 H 1.00037 0.07149 0.43544 0.0
H1350 H 0.01269 0.0349 0.38199 0.0
C1351 C 0.98599 0.061 0.3294 0.0
C1352 C 0.97822 0.06479 0.38037 0.0
C1353 C 0.97873 0.06232 0.31141 0.0
C1354 C 0.01251 0.05569 0.45259 0.0
C1355 C 0.0055 0.05902 0.43523 0.0
C1356 C 0.00293 0.04311 0.38213 0.0
C1357 C 0.97588 0.06077 0.34442 0.0
C1358 C 0.98338 0.05734 0.36339 0.0
C1359 C 0.00543 0.04684 0.41808 0.0
C1360 C 0.99778 0.05049 0.39918 0.0
H1361 H 0.93748 0.06554 0.32022 0.0
H1362 H 0.94999 0.06318 0.3516 0.0
H1363 H 1.00012 0.03982 0.3523 0.0
H1364 H 0.02527 0.01554 0.43691 0.0
H1365 H 0.01308 0.02101 0.40698 0.0
C1366 C 0.28016 0.71274 0.57232 0.0
C1367 C 0.28463 0.69519 0.56853 0.0
C1368 C 0.2783 0.72035 0.59046 0.0
C1369 C 0.29145 0.71778 0.63922 0.0
H1370 H 0.25599 0.74582 0.6484 0.0
C1371 C 0.28526 0.75189 0.71259 0.0
C1372 C 0.28915 0.7721 0.71484 0.0
C1373 C 0.28081 0.74048 0.69486 0.0
C1374 C 0.26583 0.73791 0.64592 0.0
H1375 H 0.29062 0.67179 0.58065 0.0
H1376 H 0.28712 0.6849 0.61216 0.0
H1377 H 0.25604 0.72891 0.61673 0.0
H1378 H 0.29045 0.79626 0.70069 0.0
H1379 H 0.2825 0.77606 0.66929 0.0
H1380 H 0.3012 0.72673 0.66836 0.0
C1381 C 0.28541 0.69301 0.60126 0.0
C1382 C 0.26597 0.72838 0.6279 0.0
C1383 C 0.28753 0.68556 0.58321 0.0
C1384 C 0.28757 0.7807 0.69919 0.0
C1385 C 0.2829 0.7692 0.68136 0.0
C1386 C 0.29112 0.72701 0.65721 0.0
C1387 C 0.28071 0.71043 0.60505 0.0
C1388 C 0.27912 0.71868 0.62432 0.0
C1389 C 0.28 0.7491 0.67915 0.0
C1390 C 0.27859 0.73749 0.66057 0.0
H1391 H 0.2777 0.72037 0.56123 0.0
H1392 H 0.27502 0.73401 0.59303 0.0
H1393 H 0.30189 0.71067 0.6369 0.0
H1394 H 0.28637 0.74489 0.72448 0.0
H1395 H 0.27864 0.72499 0.69336 0.0
C1396 C 0.62181 0.02058 0.80537 0.0
C1397 C 0.63524 0.02906 0.79553 0.0
C1398 C 0.6192 0.03099 0.82203 0.0
C1399 C 0.63468 0.07854 0.85525 0.0
H1400 H 0.58321 0.0684 0.85405 0.0
C1401 C 0.60083 0.09152 0.91771 0.0
C1402 C 0.58207 0.08762 0.9145 0.0
C1403 C 0.61076 0.09447 0.90306 0.0
C1404 C 0.59763 0.07203 0.8544 0.0
H1405 H 0.65801 0.05387 0.79629 0.0
H1406 H 0.65266 0.07253 0.8245 0.0
H1407 H 0.59478 0.04989 0.83078 0.0
H1408 H 0.55962 0.08892 0.89522 0.0
H1409 H 0.57712 0.09546 0.87014 0.0
H1410 H 0.63736 0.10118 0.87873 0.0
C1411 C 0.64438 0.05779 0.81987 0.0
C1412 C 0.60431 0.06084 0.8413 0.0
C1413 C 0.64745 0.04704 0.80365 0.0
C1414 C 0.57402 0.09129 0.89797 0.0
C1415 C 0.58406 0.09481 0.88348 0.0
C1416 C 0.62796 0.09005 0.86828 0.0
C1417 C 0.62943 0.05035 0.82847 0.0
C1418 C 0.62286 0.06331 0.84206 0.0
C1419 C 0.60198 0.09392 0.8852 0.0
C1420 C 0.60932 0.08636 0.86851 0.0
H1421 H 0.61239 0.00667 0.79939 0.0
H1422 H 0.60812 0.02449 0.82892 0.0
H1423 H 0.64908 0.08111 0.85598 0.0
H1424 H 0.60748 0.08964 0.9307 0.0
H1425 H 0.62468 0.09436 0.90522 0.0
C1426 C 0.28613 0.35852 0.08921 0.0
C1427 C 0.29262 0.34844 0.0747 0.0
C1428 C 0.28323 0.3511 0.10559 0.0
C1429 C 0.29704 0.31625 0.13197 0.0
H1430 H 0.2589 0.32297 0.16046 0.0
C1431 C 0.28042 0.27758 0.19379 0.0
C1432 C 0.2777 0.28892 0.21 0.0
C1433 C 0.28184 0.2849 0.17728 0.0
C1434 C 0.2697 0.32112 0.1527 0.0
H1435 H 0.29996 0.32208 0.06542 0.0
H1436 H 0.29436 0.30895 0.09337 0.0
H1437 H 0.26137 0.33533 0.13136 0.0
H1438 H 0.27416 0.31655 0.22193 0.0
H1439 H 0.27635 0.32939 0.19289 0.0
H1440 H 0.30519 0.30179 0.15312 0.0
C1441 C 0.2922 0.32293 0.09263 0.0
C1442 C 0.27115 0.32824 0.13605 0.0
C1443 C 0.29531 0.33043 0.0765 0.0
C1444 C 0.27632 0.30763 0.20953 0.0
C1445 C 0.27745 0.31488 0.19292 0.0
C1446 C 0.29548 0.30899 0.14847 0.0
C1447 C 0.28656 0.33335 0.10763 0.0
C1448 C 0.28484 0.32588 0.12543 0.0
C1449 C 0.28028 0.3036 0.17663 0.0
C1450 C 0.28182 0.31135 0.15905 0.0
H1451 H 0.2839 0.37243 0.0882 0.0
H1452 H 0.27895 0.35958 0.11685 0.0
H1453 H 0.30803 0.31451 0.12447 0.0
H1454 H 0.2815 0.26307 0.19392 0.0
H1455 H 0.2839 0.27582 0.16495 0.0
C1456 C 0.25217 0.95365 0.00385 0.0
C1457 C 0.25923 0.94365 0.01614 0.0
C1458 C 0.23882 0.96221 0.00869 0.0
C1459 C 0.2192 0.98402 0.04441 0.0
H1460 H 0.17364 0.9596 0.01251 0.0
C1461 C 0.15577 0.00987 0.05335 0.0
C1462 C 0.14669 0.01171 0.03652 0.0
C1463 C 0.1691 1.00019 0.05305 0.0
C1464 C 0.18627 0.9666 0.02149 0.0
H1465 H 0.25905 0.93556 0.04338 0.0
H1466 H 0.23578 0.95117 0.05211 0.0
H1467 H 0.19931 0.94699 0.0078 0.0
H1468 H 0.14435 0.00522 0.0063 0.0
H1469 H 0.16764 0.98869 0.00574 0.0
H1470 H 0.20646 0.00433 0.05748 0.0
C1471 C 0.24041 0.95201 0.03869 0.0
C1472 C 0.20085 0.95936 0.01882 0.0
C1473 C 0.25347 0.94302 0.03366 0.0
C1474 C 0.15092 0.00363 0.01946 0.0
C1475 C 0.16423 0.99414 0.01915 0.0
C1476 C 0.20462 0.99151 0.04694 0.0
C1477 C 0.2328 0.96122 0.02603 0.0
C1478 C 0.2174 0.96825 0.03003 0.0
C1479 C 0.17349 0.99237 0.03592 0.0
C1480 C 0.18816 0.98308 0.03519 0.0
H1481 H 0.25654 0.95427 0.99028 0.0
H1482 H 0.23295 0.96928 0.9988 0.0
H1483 H 0.23199 0.99095 0.05315 0.0
H1484 H 0.15261 0.01593 0.06667 0.0
H1485 H 0.17598 0.99888 0.06615 0.0
C1486 C 0.72295 0.65367 0.01341 0.0
C1487 C 0.73127 0.65137 0.99736 0.0
C1488 C 0.70634 0.6411 0.01454 0.0
C1489 C 0.67301 0.59431 0.99128 0.0
H1490 H 0.63959 0.61769 0.01558 0.0
C1491 C 0.59728 0.55488 0.98309 0.0
C1492 C 0.58863 0.55609 0.99905 0.0
C1493 C 0.61479 0.56637 0.98341 0.0
C1494 C 0.64879 0.61085 0.00891 0.0
H1495 H 0.72893 0.63419 0.9699 0.0
H1496 H 0.6997 0.61221 0.9716 0.0
H1497 H 0.67004 0.63716 0.01529 0.0
H1498 H 0.59146 0.57067 0.02778 0.0
H1499 H 0.62209 0.59083 0.02838 0.0
H1500 H 0.65156 0.5681 0.98459 0.0
C1501 C 0.70616 0.6234 0.98361 0.0
C1502 C 0.66635 0.62202 0.00878 0.0
C1503 C 0.72295 0.63593 0.9826 0.0
C1504 C 0.59776 0.56941 0.01525 0.0
C1505 C 0.6153 0.581 0.01556 0.0
C1506 C 0.65541 0.58319 0.99129 0.0
C1507 C 0.69741 0.62608 0.99945 0.0
C1508 C 0.67876 0.61395 0.99994 0.0
C1509 C 0.62413 0.57947 0.99969 0.0
C1510 C 0.64302 0.59131 1.00005 0.0
H1511 H 0.72905 0.66568 0.02487 0.0
H1512 H 0.70035 0.64345 0.02714 0.0
H1513 H 0.68216 0.58742 0.9846 0.0
H1514 H 0.59059 0.54485 0.97034 0.0
H1515 H 0.62099 0.56504 0.97083 0.0
C1516 C 0.6946 0.45057 0.25699 0.0
C1517 C 0.6841 0.4526 0.27161 0.0
C1518 C 0.70407 0.43593 0.25484 0.0
C1519 C 0.71005 0.39072 0.2752 0.0
H1520 H 0.74718 0.39211 0.24358 0.0
C1521 C 0.74517 0.32673 0.26457 0.0
C1522 C 0.76339 0.33052 0.26167 0.0
C1523 C 0.73563 0.34113 0.2649 0.0
C1524 C 0.73697 0.39136 0.2527 0.0
H1525 H 0.67617 0.43986 0.2954 0.0
H1526 H 0.69234 0.41589 0.29221 0.0
H1527 H 0.73139 0.41716 0.24574 0.0
H1528 H 0.78522 0.35331 0.25629 0.0
H1529 H 0.76878 0.37784 0.25639 0.0
H1530 H 0.71585 0.36517 0.2824 0.0
C1531 C 0.69324 0.42492 0.2818 0.0
C1532 C 0.72756 0.40596 0.25384 0.0
C1533 C 0.6838 0.43926 0.28382 0.0
C1534 C 0.77135 0.34943 0.25868 0.0
C1535 C 0.76171 0.36371 0.25864 0.0
C1536 C 0.71942 0.37621 0.27406 0.0
C1537 C 0.70367 0.4225 0.2672 0.0
C1538 C 0.71382 0.4063 0.26529 0.0
C1539 C 0.74358 0.36015 0.262 0.0
C1540 C 0.73325 0.37601 0.26285 0.0
H1541 H 0.69545 0.4602 0.24707 0.0
H1542 H 0.71158 0.43518 0.2432 0.0
H1543 H 0.6996 0.3893 0.284 0.0
H1544 H 0.73825 0.3126 0.26698 0.0
H1545 H 0.72177 0.33712 0.26731 0.0
C1546 C 0.8446 0.4672 0.52922 0.0
C1547 C 0.84306 0.45143 0.53837 0.0
C1548 C 0.86139 0.4772 0.52583 0.0
C1549 C 0.90995 0.48154 0.53474 0.0
H1550 H 0.90768 0.48926 0.48331 0.0
C1551 C 0.96906 0.52734 0.51303 0.0
C1552 C 0.97662 0.51822 0.4989 0.0
C1553 C 0.95143 0.51948 0.51516 0.0
C1554 C 0.90837 0.48685 0.49756 0.0
H1555 H 0.85777 0.43692 0.55521 0.0
H1556 H 0.88685 0.45386 0.5489 0.0
H1557 H 0.87992 0.47632 0.49575 0.0
H1558 H 0.97134 0.49559 0.47426 0.0
H1559 H 0.94008 0.48143 0.47837 0.0
H1560 H 0.93837 0.49142 0.53633 0.0
C1561 C 0.87531 0.45828 0.54381 0.0
C1562 C 0.89261 0.47987 0.50482 0.0
C1563 C 0.85858 0.44857 0.5475 0.0
C1564 C 0.96577 0.50253 0.48552 0.0
C1565 C 0.948 0.4945 0.48778 0.0
C1566 C 0.92561 0.48816 0.52741 0.0
C1567 C 0.87663 0.47155 0.53169 0.0
C1568 C 0.89329 0.47793 0.52372 0.0
C1569 C 0.94124 0.50236 0.50331 0.0
C1570 C 0.92483 0.4917 0.50912 0.0
H1571 H 0.83282 0.47018 0.5226 0.0
H1572 H 0.86222 0.48817 0.51729 0.0
H1573 H 0.91096 0.47996 0.54923 0.0
H1574 H 0.97704 0.53983 0.52318 0.0
H1575 H 0.94613 0.52595 0.52694 0.0
C1576 C 0.4047 0.08464 0.26267 0.0
C1577 C 0.39642 0.0649 0.26152 0.0
C1578 C 0.39443 0.09714 0.25928 0.0
C1579 C 0.35228 0.09856 0.2343 0.0
H1580 H 0.36148 0.14816 0.26746 0.0
C1581 C 0.30801 0.15083 0.23042 0.0
C1582 C 0.31671 0.17074 0.23447 0.0
C1583 C 0.31779 0.13744 0.23186 0.0
C1584 C 0.35897 0.13448 0.25792 0.0
H1585 H 0.37093 0.04269 0.25601 0.0
H1586 H 0.35295 0.06463 0.24976 0.0
H1587 H 0.37783 0.1253 0.27491 0.0
H1588 H 0.3426 0.19221 0.24158 0.0
H1589 H 0.35973 0.16877 0.24411 0.0
H1590 H 0.33343 0.10781 0.21727 0.0
C1591 C 0.36739 0.07035 0.2533 0.0
C1592 C 0.36823 0.12139 0.26225 0.0
C1593 C 0.37766 0.05785 0.25692 0.0
C1594 C 0.33551 0.17696 0.23877 0.0
C1595 C 0.34529 0.16357 0.24024 0.0
C1596 C 0.34302 0.11171 0.22993 0.0
C1597 C 0.37572 0.09009 0.25447 0.0
C1598 C 0.36508 0.1034 0.2504 0.0
C1599 C 0.33644 0.14374 0.2374 0.0
C1600 C 0.34641 0.12985 0.24163 0.0
H1601 H 0.41911 0.09049 0.26636 0.0
H1602 H 0.40117 0.11229 0.26013 0.0
H1603 H 0.34975 0.08482 0.22488 0.0
H1604 H 0.29352 0.1456 0.22722 0.0
H1605 H 0.31062 0.12225 0.22966 0.0
C1606 C 0.33903 0.1524 0.48299 0.0
C1607 C 0.32886 0.15874 0.49623 0.0
C1608 C 0.35317 0.14493 0.48834 0.0
C1609 C 0.37169 0.12291 0.52497 0.0
H1610 H 0.4146 0.13666 0.50153 0.0
C1611 C 0.433 0.09186 0.53845 0.0
C1612 C 0.43995 0.0858 0.52221 0.0
C1613 C 0.42047 0.10268 0.53781 0.0
C1614 C 0.40269 0.13259 0.50816 0.0
H1615 H 0.32557 0.16199 0.52556 0.0
H1616 H 0.35037 0.149 0.5349 0.0
H1617 H 0.39056 0.15156 0.49551 0.0
H1618 H 0.43872 0.08585 0.49252 0.0
H1619 H 0.41705 0.10444 0.49137 0.0
H1620 H 0.3838 0.10358 0.53731 0.0
C1621 C 0.34727 0.14969 0.52033 0.0
C1622 C 0.38888 0.14112 0.50468 0.0
C1623 C 0.33307 0.15718 0.51496 0.0
C1624 C 0.43405 0.09072 0.50539 0.0
C1625 C 0.42158 0.10141 0.50473 0.0
C1626 C 0.38556 0.11429 0.52843 0.0
C1627 C 0.3576 0.14364 0.5071 0.0
C1628 C 0.37298 0.136 0.51259 0.0
C1629 C 0.41463 0.10759 0.52089 0.0
C1630 C 0.401 0.11862 0.5196 0.0
H1631 H 0.33612 0.15325 0.46843 0.0
H1632 H 0.36059 0.14003 0.4777 0.0
H1633 H 0.35964 0.11867 0.53133 0.0
H1634 H 0.43732 0.08832 0.55164 0.0
H1635 H 0.41544 0.10729 0.55053 0.0
C1636 C 0.70469 0.57609 0.27949 0.0
C1637 C 0.688 0.56821 0.26795 0.0
C1638 C 0.71545 0.59505 0.27923 0.0
C1639 C 0.72077 0.63604 0.25142 0.0
H1640 H 0.74719 0.66783 0.298 0.0
C1641 C 0.7566 0.71953 0.25728 0.0
C1642 C 0.77239 0.728 0.27022 0.0
C1643 C 0.74618 0.70023 0.25669 0.0
C1644 C 0.74018 0.65927 0.28468 0.0
H1645 H 0.67006 0.57436 0.24672 0.0
H1646 H 0.68848 0.60656 0.24607 0.0
H1647 H 0.73094 0.63437 0.29718 0.0
H1648 H 0.78925 0.72223 0.29268 0.0
H1649 H 0.77179 0.68924 0.29142 0.0
H1650 H 0.73002 0.66094 0.23891 0.0
C1651 C 0.69357 0.59838 0.25534 0.0
C1652 C 0.73073 0.63977 0.28424 0.0
C1653 C 0.68286 0.57969 0.25575 0.0
C1654 C 0.77721 0.7165 0.28253 0.0
C1655 C 0.76695 0.69734 0.2819 0.0
C1656 C 0.73029 0.65554 0.25185 0.0
C1657 C 0.70998 0.60675 0.2673 0.0
C1658 C 0.72078 0.62764 0.26761 0.0
C1659 C 0.75115 0.68863 0.269 0.0
C1660 C 0.74032 0.66767 0.26849 0.0
H1661 H 0.70908 0.568 0.28932 0.0
H1662 H 0.72802 0.6006 0.28857 0.0
H1663 H 0.71358 0.62746 0.23817 0.0
H1664 H 0.75233 0.72777 0.24753 0.0
H1665 H 0.7341 0.69451 0.24663 0.0
C1666 C 0.90729 0.45983 0.74814 0.0
C1667 C 0.90745 0.47929 0.75304 0.0
C1668 C 0.89219 0.44517 0.7497 0.0
C1669 C 0.85465 0.43739 0.77667 0.0
H1670 H 0.8349 0.39072 0.73932 0.0
C1671 C 0.81322 0.36502 0.7894 0.0
C1672 C 0.80236 0.35215 0.77384 0.0
C1673 C 0.8217 0.38385 0.78779 0.0
C1674 C 0.83996 0.40388 0.74971 0.0
H1675 H 0.89146 0.49842 0.76263 0.0
H1676 H 0.86553 0.47314 0.7652 0.0
H1677 H 0.8598 0.41586 0.7334 0.0
H1678 H 0.78889 0.34946 0.74579 0.0
H1679 H 0.80339 0.38253 0.74316 0.0
H1680 H 0.83487 0.42527 0.79308 0.0
C1681 C 0.87703 0.46919 0.76028 0.0
C1682 C 0.85444 0.41805 0.74644 0.0
C1683 C 0.89188 0.4837 0.75847 0.0
C1684 C 0.79779 0.35902 0.75774 0.0
C1685 C 0.80602 0.37791 0.75625 0.0
C1686 C 0.84011 0.42319 0.77996 0.0
C1687 C 0.87722 0.44987 0.7564 0.0
C1688 C 0.86194 0.43485 0.7599 0.0
C1689 C 0.81916 0.38989 0.77068 0.0
C1690 C 0.8327 0.40627 0.76652 0.0
H1691 H 0.9191 0.45597 0.74404 0.0
H1692 H 0.89256 0.43026 0.74657 0.0
H1693 H 0.8604 0.4502 0.78738 0.0
H1694 H 0.81654 0.36009 0.80214 0.0
H1695 H 0.83161 0.39288 0.79925 0.0
C1696 C 0.07559 0.85593 0.06842 0.0
C1697 C 0.07224 0.8526 0.08632 0.0
C1698 C 0.07025 0.87047 0.06112 0.0
C1699 C 0.06093 0.91689 0.0759 0.0
H1700 H 0.04346 0.91073 0.02324 0.0
C1701 C 0.06326 0.98226 0.04054 0.0
C1702 C 0.0483 0.98166 0.02785 0.0
C1703 C 0.06456 0.96581 0.04746 0.0
C1704 C 0.04815 0.91264 0.038 0.0
H1705 H 0.06023 0.86161 0.11043 0.0
H1706 H 0.05115 0.8875 0.09778 0.0
H1707 H 0.04749 0.88281 0.03591 0.0
H1708 H 0.02317 0.9631 0.01209 0.0
H1709 H 0.02555 0.93422 0.02406 0.0
H1710 H 0.06163 0.94669 0.07801 0.0
C1711 C 0.05795 0.87876 0.08942 0.0
C1712 C 0.05061 0.89668 0.04524 0.0
C1713 C 0.06309 0.86394 0.09665 0.0
C1714 C 0.03484 0.96406 0.0219 0.0
C1715 C 0.03624 0.9475 0.0287 0.0
C1716 C 0.05852 0.93283 0.06866 0.0
C1717 C 0.06158 0.88225 0.0716 0.0
C1718 C 0.05728 0.89869 0.06423 0.0
C1719 C 0.05101 0.94827 0.04176 0.0
C1720 C 0.05238 0.93097 0.04957 0.0
H1721 H 0.08236 0.84723 0.05996 0.0
H1722 H 0.07341 0.87284 0.04744 0.0
H1723 H 0.06623 0.91899 0.09053 0.0
H1724 H 0.07386 0.99557 0.04548 0.0
H1725 H 0.07626 0.96682 0.05725 0.0
C1726 C 0.95817 0.27389 0.86734 0.0
C1727 C 0.95463 0.25991 0.87874 0.0
C1728 C 0.94399 0.27772 0.85656 0.0
C1729 C 0.89679 0.25604 0.83513 0.0
H1730 H 0.89411 0.3086 0.83748 0.0
C1731 C 0.83421 0.26865 0.79589 0.0
C1732 C 0.83397 0.28697 0.79258 0.0
C1733 C 0.84855 0.26612 0.80725 0.0
C1734 C 0.89444 0.29375 0.83622 0.0
H1735 H 0.93357 0.23875 0.88746 0.0
H1736 H 0.90903 0.24483 0.86821 0.0
H1737 H 0.92002 0.3025 0.85383 0.0
H1738 H 0.84844 0.31725 0.7988 0.0
H1739 H 0.87409 0.31307 0.81767 0.0
H1740 H 0.8723 0.24681 0.81697 0.0
C1741 C 0.92266 0.25297 0.86765 0.0
C1742 C 0.90952 0.29031 0.84579 0.0
C1743 C 0.93673 0.24944 0.87865 0.0
C1744 C 0.84826 0.30294 0.80126 0.0
C1745 C 0.86309 0.30036 0.81217 0.0
C1746 C 0.88201 0.25942 0.82518 0.0
C1747 C 0.92604 0.26736 0.85668 0.0
C1748 C 0.91073 0.27138 0.84558 0.0
C1749 C 0.8638 0.28173 0.8151 0.0
C1750 C 0.88019 0.27834 0.82569 0.0
H1751 H 0.9718 0.28246 0.86742 0.0
H1752 H 0.94705 0.28883 0.84819 0.0
H1753 H 0.8974 0.24126 0.83441 0.0
H1754 H 0.82325 0.25607 0.78946 0.0
H1755 H 0.84737 0.25161 0.80949 0.0
C1756 C 0.56596 0.24564 0.5556 0.0
C1757 C 0.56177 0.25168 0.5734 0.0
C1758 C 0.56174 0.22605 0.54783 0.0
C1759 C 0.5361 0.17721 0.55171 0.0
H1760 H 0.57791 0.16292 0.53609 0.0
C1761 C 0.53878 0.09874 0.54125 0.0
C1762 C 0.54686 0.09204 0.52629 0.0
C1763 C 0.54037 0.11837 0.5463 0.0
C1764 C 0.56601 0.16664 0.54009 0.0
H1765 H 0.54861 0.24209 0.5964 0.0
H1766 H 0.54134 0.20773 0.58282 0.0
H1767 H 0.57919 0.19688 0.54485 0.0
H1768 H 0.56304 0.09997 0.50486 0.0
H1769 H 0.56524 0.13449 0.5131 0.0
H1770 H 0.52286 0.147 0.54688 0.0
C1771 C 0.54784 0.21819 0.57488 0.0
C1772 C 0.56674 0.1861 0.5451 0.0
C1773 C 0.55201 0.23785 0.58266 0.0
C1774 C 0.55684 0.10508 0.51655 0.0
C1775 C 0.5581 0.12474 0.52132 0.0
C1776 C 0.53529 0.15774 0.5465 0.0
C1777 C 0.5533 0.21215 0.55774 0.0
C1778 C 0.55185 0.19154 0.55112 0.0
C1779 C 0.54968 0.13155 0.53613 0.0
C1780 C 0.55033 0.15224 0.54087 0.0
H1781 H 0.57323 0.25601 0.548 0.0
H1782 H 0.56574 0.22174 0.5344 0.0
H1783 H 0.5244 0.18106 0.55617 0.0
H1784 H 0.5312 0.08876 0.54901 0.0
H1785 H 0.5342 0.12317 0.55812 0.0
C1786 C 0.56222 0.76341 0.37284 0.0
C1787 C 0.55759 0.7799 0.3811 0.0
C1788 C 0.57865 0.76516 0.36589 0.0
C1789 C 0.61545 0.80081 0.35051 0.0
H1790 H 0.64107 0.76224 0.3547 0.0
C1791 C 0.68436 0.80616 0.32353 0.0
C1792 C 0.68689 0.78874 0.31445 0.0
C1793 C 0.6696 0.80606 0.33323 0.0
C1794 C 0.63404 0.77308 0.35323 0.0
H1795 H 0.56691 0.8112 0.3888 0.0
H1796 H 0.59545 0.81418 0.37703 0.0
H1797 H 0.6134 0.75992 0.36824 0.0
H1798 H 0.67557 0.75763 0.30813 0.0
H1799 H 0.64995 0.75744 0.32461 0.0
H1800 H 0.63603 0.81387 0.33535 0.0
C1801 C 0.58628 0.79989 0.37549 0.0
C1802 C 0.6181 0.77172 0.36101 0.0
C1803 C 0.56986 0.79815 0.38233 0.0
C1804 C 0.67428 0.7713 0.31527 0.0
C1805 C 0.65955 0.77119 0.32481 0.0
C1806 C 0.63141 0.80217 0.34271 0.0
C1807 C 0.59093 0.78345 0.36711 0.0
C1808 C 0.6084 0.78539 0.35953 0.0
C1809 C 0.65695 0.78854 0.33397 0.0
C1810 C 0.64078 0.78813 0.34368 0.0
H1811 H 0.55313 0.74913 0.37169 0.0
H1812 H 0.5816 0.75216 0.35932 0.0
H1813 H 0.60836 0.81157 0.34892 0.0
H1814 H 0.69388 0.81985 0.32329 0.0
H1815 H 0.66819 0.81971 0.34026 0.0
C1816 C 0.07276 0.27365 0.43462 0.0
C1817 C 0.07823 0.2748 0.41709 0.0
C1818 C 0.06671 0.25575 0.43969 0.0
C1819 C 0.06558 0.20463 0.42906 0.0
H1820 H 0.02258 0.19834 0.45298 0.0
C1821 C 0.03532 0.13494 0.45547 0.0
C1822 C 0.03279 0.13842 0.47434 0.0
C1823 C 0.03778 0.14987 0.44531 0.0
C1824 C 0.03455 0.19987 0.44628 0.0
H1825 H 0.08214 0.25868 0.39113 0.0
H1826 H 0.07157 0.227 0.40006 0.0
H1827 H 0.03482 0.22827 0.44205 0.0
H1828 H 0.02981 0.15999 0.49696 0.0
H1829 H 0.03392 0.18585 0.47928 0.0
H1830 H 0.0656 0.17643 0.43382 0.0
C1831 C 0.07219 0.23995 0.40996 0.0
C1832 C 0.04161 0.21701 0.44011 0.0
C1833 C 0.07833 0.25797 0.40491 0.0
C1834 C 0.03152 0.15674 0.48241 0.0
C1835 C 0.0339 0.1716 0.47226 0.0
C1836 C 0.05852 0.18746 0.43527 0.0
C1837 C 0.0658 0.23869 0.42718 0.0
C1838 C 0.05747 0.21976 0.43194 0.0
C1839 C 0.03764 0.16849 0.45381 0.0
C1840 C 0.04322 0.18514 0.4444 0.0
H1841 H 0.0724 0.28657 0.44403 0.0
H1842 H 0.06222 0.25522 0.45321 0.0
H1843 H 0.07782 0.2064 0.42281 0.0
H1844 H 0.036 0.12084 0.44876 0.0
H1845 H 0.04035 0.14701 0.431 0.0
C1846 C 0.55021 0.27678 0.18988 0.0
C1847 C 0.54173 0.25697 0.18382 0.0
C1848 C 0.56889 0.28332 0.19375 0.0
C1849 C 0.60991 0.26912 0.18587 0.0
H1850 H 0.62598 0.28984 0.23867 0.0
C1851 C 0.66434 0.24726 0.22555 0.0
C1852 C 0.67767 0.26141 0.23807 0.0
C1853 C 0.64946 0.25189 0.21765 0.0
C1854 C 0.62187 0.28457 0.2238 0.0
H1855 H 0.54574 0.2286 0.17584 0.0
H1856 H 0.57828 0.23996 0.18256 0.0
H1857 H 0.59633 0.29019 0.22485 0.0
H1858 H 0.68623 0.29113 0.25276 0.0
H1859 H 0.65971 0.2993 0.2391 0.0
H1860 H 0.63495 0.26228 0.18509 0.0
C1861 C 0.57061 0.25042 0.18449 0.0
C1862 C 0.60498 0.28486 0.21589 0.0
C1863 C 0.55203 0.24386 0.18109 0.0
C1864 C 0.67578 0.28004 0.24329 0.0
C1865 C 0.66082 0.2847 0.23539 0.0
C1866 C 0.62679 0.26888 0.19375 0.0
C1867 C 0.57915 0.27014 0.191 0.0
C1868 C 0.59854 0.27606 0.19719 0.0
C1869 C 0.64786 0.27078 0.22211 0.0
C1870 C 0.63238 0.27555 0.213 0.0
H1871 H 0.54239 0.28711 0.19165 0.0
H1872 H 0.57531 0.29856 0.19892 0.0
H1873 H 0.60517 0.26245 0.17133 0.0
H1874 H 0.66583 0.23288 0.22132 0.0
H1875 H 0.63935 0.24078 0.20782 0.0
C1876 C 0.58235 0.89033 0.89741 0.0
C1877 C 0.59405 0.88229 0.90725 0.0
C1878 C 0.57887 0.90726 0.90575 0.0
C1879 C 0.57351 0.92364 0.95243 0.0
H1880 H 0.56054 0.96647 0.93495 0.0
C1881 C 0.55188 0.97971 0.0006 0.0
C1882 C 0.53828 0.98724 0.99369 0.0
C1883 C 0.5585 0.96732 0.98865 0.0
C1884 C 0.56388 0.95437 0.93983 0.0
H1885 H 0.6136 0.88704 0.93185 0.0
H1886 H 0.60761 0.91683 0.94643 0.0
H1887 H 0.57644 0.94744 0.91579 0.0
H1888 H 0.5204 0.98739 0.96917 0.0
H1889 H 0.53185 0.96516 0.94809 0.0
H1890 H 0.56056 0.92993 0.97607 0.0
C1891 C 0.60092 0.90988 0.93246 0.0
C1892 C 0.57316 0.94372 0.92903 0.0
C1893 C 0.60447 0.89296 0.92407 0.0
C1894 C 0.5309 0.98167 0.97475 0.0
C1895 C 0.53753 0.96915 0.96272 0.0
C1896 C 0.56414 0.93408 0.96306 0.0
C1897 C 0.58707 0.9162 0.92398 0.0
C1898 C 0.57835 0.92854 0.93549 0.0
C1899 C 0.55155 0.96208 0.96958 0.0
C1900 C 0.55955 0.94977 0.95707 0.0
H1901 H 0.57435 0.88235 0.88427 0.0
H1902 H 0.56823 0.91194 0.89889 0.0
H1903 H 0.57668 0.91146 0.95734 0.0
H1904 H 0.55787 0.98389 0.01514 0.0
H1905 H 0.56951 0.96236 0.99428 0.0
C1906 C 0.94841 0.74398 0.70064 0.0
C1907 C 0.95006 0.74645 0.68223 0.0
C1908 C 0.9341 0.74791 0.70884 0.0
C1909 C 0.88891 0.7511 0.6987 0.0
H1910 H 0.8998 0.78634 0.74661 0.0
C1911 C 0.83731 0.78339 0.73115 0.0
C1912 C 0.83463 0.77897 0.74875 0.0
C1913 C 0.85211 0.7804 0.72339 0.0
C1914 C 0.8967 0.77642 0.7333 0.0
H1915 H 0.93804 0.75416 0.6576 0.0
H1916 H 0.91276 0.76091 0.67202 0.0
H1917 H 0.92426 0.77804 0.73157 0.0
H1918 H 0.84493 0.7689 0.77263 0.0
H1919 H 0.8716 0.76421 0.75917 0.0
H1920 H 0.86136 0.74957 0.70041 0.0
C1921 C 0.92262 0.75611 0.68005 0.0
C1922 C 0.91054 0.77167 0.72478 0.0
C1923 C 0.93708 0.75244 0.67193 0.0
C1924 C 0.84704 0.77231 0.759 0.0
C1925 C 0.86213 0.76973 0.75139 0.0
C1926 C 0.87509 0.7559 0.70719 0.0
C1927 C 0.92125 0.75409 0.6986 0.0
C1928 C 0.90667 0.75897 0.70749 0.0
C1929 C 0.86441 0.77333 0.73339 0.0
C1930 C 0.87898 0.76856 0.7245 0.0
H1931 H 0.95832 0.73934 0.70878 0.0
H1932 H 0.93306 0.74615 0.72315 0.0
H1933 H 0.88577 0.74114 0.68541 0.0
H1934 H 0.82758 0.78839 0.72313 0.0
H1935 H 0.8538 0.78325 0.70949 0.0
C1936 C 0.13695 0.01984 0.83804 0.0
C1937 C 0.1268 0.00859 0.82107 0.0
C1938 C 0.1295 0.02118 0.85512 0.0
C1939 C 0.08821 0.99883 0.87788 0.0
H1940 H 0.10666 0.04488 0.91622 0.0
C1941 C 0.05025 0.011 0.94264 0.0
C1942 C 0.05915 0.02194 0.9603 0.0
C1943 C 0.05897 0.00965 0.92659 0.0
C1944 C 0.10131 0.03172 0.9059 0.0
H1945 H 0.10017 0.99048 0.8094 0.0
H1946 H 0.08743 0.99223 0.83862 0.0
H1947 H 0.12029 0.04181 0.88759 0.0
H1948 H 0.08504 0.04039 0.97404 0.0
H1949 H 0.10045 0.03796 0.94612 0.0
H1950 H 0.06928 0.98869 0.89604 0.0
C1951 C 0.1014 0.99987 0.83913 0.0
C1952 C 0.10928 0.0299 0.88916 0.0
C1953 C 0.10883 0.99871 0.82208 0.0
C1954 C 0.07751 0.03166 0.96099 0.0
C1955 C 0.08636 0.03033 0.9447 0.0
C1956 C 0.08027 1.00066 0.89455 0.0
C1957 C 0.1114 0.01139 0.85618 0.0
C1958 C 0.10295 0.01339 0.87457 0.0
C1959 C 0.07732 0.01915 0.927 0.0
C1960 C 0.08649 0.01718 0.9091 0.0
H1961 H 0.15056 0.02839 0.838 0.0
H1962 H 0.13805 0.03016 0.86752 0.0
H1963 H 0.08279 0.98562 0.86765 0.0
H1964 H 0.03613 0.00333 0.94103 0.0
H1965 H 0.05097 1.00127 0.91363 0.0
C1966 C 0.79948 0.35824 0.54985 0.0
C1967 C 0.79196 0.37323 0.54669 0.0
C1968 C 0.8074 0.35819 0.56773 0.0
C1969 C 0.81135 0.37932 0.61746 0.0
H1970 H 0.85722 0.3674 0.61975 0.0
C1971 C 0.83932 0.36727 0.68517 0.0
C1972 C 0.83992 0.34794 0.6824 0.0
C1973 C 0.84105 0.37733 0.67045 0.0
C1974 C 0.84457 0.37105 0.61933 0.0
H1975 H 0.78463 0.39836 0.56021 0.0
H1976 H 0.79847 0.39826 0.59115 0.0
H1977 H 0.84136 0.36824 0.58959 0.0
H1978 H 0.84577 0.32514 0.66328 0.0
H1979 H 0.84854 0.34241 0.63777 0.0
H1980 H 0.81396 0.38125 0.6469 0.0
C1981 C 0.79848 0.3867 0.57988 0.0
C1982 C 0.83538 0.37126 0.60209 0.0
C1983 C 0.79038 0.38662 0.56209 0.0
C1984 C 0.84514 0.33998 0.66582 0.0
C1985 C 0.84678 0.34998 0.65112 0.0
C1986 C 0.8205 0.3791 0.63465 0.0
C1987 C 0.80781 0.37305 0.58267 0.0
C1988 C 0.81837 0.37466 0.60097 0.0
C1989 C 0.8432 0.36806 0.65282 0.0
C1990 C 0.83684 0.37417 0.6357 0.0
H1991 H 0.80073 0.34761 0.53829 0.0
H1992 H 0.81395 0.34705 0.56968 0.0
H1993 H 0.79829 0.38202 0.61703 0.0
H1994 H 0.83578 0.37391 0.69805 0.0
H1995 H 0.83875 0.39151 0.67227 0.0
C1996 C 0.44618 0.00635 0.32952 0.0
C1997 C 0.44192 0.02319 0.32603 0.0
C1998 C 0.4528 0.00532 0.34742 0.0
C1999 C 0.46143 0.02912 0.39666 0.0
H2000 H 0.50688 0.01654 0.39488 0.0
C2001 C 0.51845 0.04873 0.4586 0.0
C2002 C 0.52347 0.03264 0.46287 0.0
C2003 C 0.50707 0.04683 0.44215 0.0
C2004 C 0.49416 0.01995 0.39548 0.0
H2005 H 0.43827 0.05066 0.33837 0.0
H2006 H 0.44977 0.04884 0.37007 0.0
H2007 H 0.48711 0.01299 0.36588 0.0
H2008 H 0.5212 0.00224 0.45404 0.0
H2009 H 0.50181 0.99907 0.42466 0.0
H2010 H 0.46893 0.03668 0.42632 0.0
C2011 C 0.44831 0.03663 0.35892 0.0
C2012 C 0.48281 0.01778 0.37901 0.0
C2013 C 0.4417 0.03769 0.34088 0.0
C2014 C 0.51737 0.01475 0.4507 0.0
C2015 C 0.50641 0.01296 0.43406 0.0
C2016 C 0.47289 0.03147 0.41313 0.0
C2017 C 0.45496 0.02101 0.362 0.0
C2018 C 0.46632 0.02227 0.37953 0.0
C2019 C 0.50111 0.02896 0.42983 0.0
C2020 C 0.48925 0.02686 0.41256 0.0
H2021 H 0.44602 0.99475 0.31817 0.0
H2022 H 0.45745 0.99293 0.3496 0.0
H2023 H 0.44877 0.03263 0.3973 0.0
H2024 H 0.52298 0.06254 0.46814 0.0
H2025 H 0.50303 0.05927 0.43896 0.0
C2026 C 0.80312 0.73081 0.06009 0.0
C2027 C 0.7873 0.72959 0.04846 0.0
C2028 C 0.80464 0.73715 0.07942 0.0
C2029 C 0.78225 0.76113 0.11519 0.0
H2030 H 0.8056 0.7358 0.14867 0.0
C2031 C 0.77373 0.76695 0.19319 0.0
C2032 C 0.78979 0.77139 0.20556 0.0
C2033 C 0.77373 0.76197 0.17394 0.0
C2034 C 0.79908 0.74301 0.13944 0.0
H2035 H 0.76058 0.73358 0.04783 0.0
H2036 H 0.76285 0.74359 0.08114 0.0
H2037 H 0.80609 0.7278 0.11512 0.0
H2038 H 0.81847 0.77418 0.2074 0.0
H2039 H 0.81832 0.76556 0.17405 0.0
H2040 H 0.77481 0.77588 0.13951 0.0
C2041 C 0.77447 0.74068 0.07556 0.0
C2042 C 0.79949 0.73857 0.12025 0.0
C2043 C 0.77314 0.73486 0.05638 0.0
C2044 C 0.8058 0.77081 0.19832 0.0
C2045 C 0.80575 0.76573 0.1792 0.0
C2046 C 0.78161 0.76532 0.1343 0.0
C2047 C 0.79019 0.74191 0.08737 0.0
C2048 C 0.79097 0.74751 0.10788 0.0
C2049 C 0.78975 0.76125 0.16685 0.0
C2050 C 0.78999 0.75629 0.14657 0.0
H2051 H 0.81419 0.72672 0.05429 0.0
H2052 H 0.81704 0.73816 0.08811 0.0
H2053 H 0.77589 0.76864 0.10616 0.0
H2054 H 0.76118 0.76715 0.19834 0.0
H2055 H 0.76118 0.75845 0.16463 0.0
C2056 C 0.12972 0.02088 0.70441 0.0
C2057 C 0.12311 0.00465 0.71258 0.0
C2058 C 0.12203 0.02242 0.68661 0.0
C2059 C 0.09224 0.99477 0.64182 0.0
H2060 H 0.08686 0.04502 0.63629 0.0
C2061 C 0.05685 0.00598 0.57079 0.0
C2062 C 0.06037 0.02453 0.56613 0.0
C2063 C 0.0637 0.00311 0.58847 0.0
C2064 C 0.08845 0.03086 0.63713 0.0
H2065 H 0.10255 0.97739 0.70795 0.0
H2066 H 0.08959 0.97959 0.67656 0.0
H2067 H 0.10043 0.04059 0.66592 0.0
H2068 H 0.07432 0.0546 0.57704 0.0
H2069 H 0.0868 0.04974 0.607 0.0
H2070 H 0.08079 0.98505 0.61296 0.0
C2071 C 0.10097 0.99119 0.68395 0.0
C2072 C 0.09629 0.02829 0.65449 0.0
C2073 C 0.10855 0.98979 0.70199 0.0
C2074 C 0.07108 0.04007 0.57992 0.0
C2075 C 0.07821 0.03719 0.59745 0.0
C2076 C 0.08467 0.99739 0.62431 0.0
C2077 C 0.1073 0.00777 0.67603 0.0
C2078 C 0.09846 0.01022 0.65726 0.0
C2079 C 0.07472 0.01863 0.60231 0.0
C2080 C 0.08261 0.01556 0.62141 0.0
H2081 H 0.14049 0.03294 0.71224 0.0
H2082 H 0.12757 0.03537 0.68123 0.0
H2083 H 0.09365 0.9806 0.64308 0.0
H2084 H 0.04858 0.99355 0.56077 0.0
H2085 H 0.06009 0.98856 0.59122 0.0
C2086 C 0.82662 0.38667 0.45243 0.0
C2087 C 0.8122 0.39393 0.457 0.0
C2088 C 0.82585 0.37604 0.43476 0.0
C2089 C 0.7913 0.34597 0.39686 0.0
H2090 H 0.83224 0.34158 0.37188 0.0
C2091 C 0.78967 0.31426 0.32055 0.0
C2092 C 0.79572 0.29769 0.31708 0.0
C2093 C 0.79194 0.32457 0.33856 0.0
C2094 C 0.82084 0.34253 0.37902 0.0
H2095 H 0.78693 0.39825 0.44613 0.0
H2096 H 0.78601 0.38044 0.41476 0.0
H2097 H 0.83654 0.36614 0.40004 0.0
H2098 H 0.80884 0.27869 0.32919 0.0
H2099 H 0.81364 0.29763 0.36124 0.0
H2100 H 0.77553 0.32307 0.37504 0.0
C2101 C 0.79743 0.38207 0.42518 0.0
C2102 C 0.82321 0.35658 0.39499 0.0
C2103 C 0.79802 0.3924 0.44303 0.0
C2104 C 0.80412 0.29148 0.33178 0.0
C2105 C 0.80682 0.30218 0.3499 0.0
C2106 C 0.78892 0.33218 0.38074 0.0
C2107 C 0.81086 0.3729 0.42124 0.0
C2108 C 0.80842 0.35856 0.40395 0.0
C2109 C 0.80062 0.31867 0.35323 0.0
C2110 C 0.80365 0.33054 0.37175 0.0
H2111 H 0.83788 0.38783 0.46287 0.0
H2112 H 0.83642 0.36918 0.43223 0.0
H2113 H 0.77973 0.34673 0.40375 0.0
H2114 H 0.78298 0.31915 0.30935 0.0
H2115 H 0.78721 0.33738 0.34104 0.0
C2116 C 0.45561 0.00878 0.23284 0.0
C2117 C 0.45722 0.02787 0.24152 0.0
C2118 C 0.44833 0.00228 0.21417 0.0
C2119 C 0.45573 0.0254 0.17617 0.0
H2120 H 0.43743 0.97304 0.14765 0.0
C2121 C 0.49251 1.00004 0.12091 0.0
C2122 C 0.48369 0.99922 0.10304 0.0
C2123 C 0.48283 0.99859 0.13587 0.0
C2124 C 0.44233 0.98774 0.15542 0.0
H2125 H 0.45052 0.05434 0.23843 0.0
H2126 H 0.4386 0.04329 0.20517 0.0
H2127 H 0.42738 0.98159 0.17792 0.0
H2128 H 0.45771 0.99324 0.08617 0.0
H2129 H 0.44072 0.99072 0.11264 0.0
H2130 H 0.47166 0.03121 0.15449 0.0
C2131 C 0.44266 0.03327 0.21296 0.0
C2132 C 0.43653 0.99267 0.17255 0.0
C2133 C 0.44958 0.03964 0.23188 0.0
C2134 C 0.4648 0.99422 0.09992 0.0
C2135 C 0.45509 0.99269 0.11495 0.0
C2136 C 0.46159 0.02043 0.15926 0.0
C2137 C 0.44315 0.015 0.2037 0.0
C2138 C 0.44381 0.01134 0.18343 0.0
C2139 C 0.46424 0.99612 0.1331 0.0
C2140 C 0.45552 1.00141 0.14921 0.0
H2141 H 0.46114 0.99926 0.24007 0.0
H2142 H 0.44891 0.98813 0.20748 0.0
H2143 H 0.46186 0.03978 0.18431 0.0
H2144 H 0.50703 0.00392 0.12375 0.0
H2145 H 0.49006 1.00119 0.14986 0.0
C2146 C 0.80214 0.73041 0.94642 0.0
C2147 C 0.78982 0.71272 0.94679 0.0
C2148 C 0.80437 0.73666 0.92946 0.0
C2149 C 0.79278 0.72035 0.87764 0.0
H2150 H 0.79766 0.7748 0.87852 0.0
C2151 C 0.78047 0.7523 0.81138 0.0
C2152 C 0.794 0.76865 0.80975 0.0
C2153 C 0.78059 0.74504 0.82798 0.0
C2154 C 0.79639 0.75957 0.8781 0.0
H2155 H 0.77022 0.68764 0.93014 0.0
H2156 H 0.77384 0.69847 0.90056 0.0
H2157 H 0.79772 0.76277 0.90775 0.0
H2158 H 0.81823 0.79026 0.82406 0.0
H2159 H 0.81822 0.77778 0.85302 0.0
H2160 H 0.79087 0.71719 0.84784 0.0
C2161 C 0.78224 0.70737 0.91311 0.0
C2162 C 0.79657 0.75268 0.89485 0.0
C2163 C 0.78014 0.7011 0.93003 0.0
C2164 C 0.80764 0.77758 0.8249 0.0
C2165 C 0.80759 0.77054 0.84153 0.0
C2166 C 0.79235 0.72722 0.86087 0.0
C2167 C 0.79408 0.72544 0.91263 0.0
C2168 C 0.79477 0.73296 0.89485 0.0
C2169 C 0.79408 0.75422 0.84324 0.0
C2170 C 0.79417 0.74688 0.86096 0.0
H2171 H 0.80944 0.73975 0.95931 0.0
H2172 H 0.81382 0.75051 0.92962 0.0
H2173 H 0.79164 0.70515 0.87707 0.0
H2174 H 0.76978 0.74522 0.79991 0.0
H2175 H 0.76996 0.73248 0.82902 0.0
C2176 C 0.83655 0.12603 0.01258 0.0
C2177 C 0.82013 0.11228 0.01243 0.0
C2178 C 0.85164 0.12009 0.00868 0.0
C2179 C 0.87107 0.08007 0.00974 0.0
H2180 H 0.8987 0.10004 0.97218 0.0
C2181 C 0.92046 0.04344 0.98022 0.0
C2182 C 0.93824 0.05511 0.98294 0.0
C2183 C 0.90643 0.05178 0.98192 0.0
C2184 C 0.89114 0.09455 0.98279 0.0
H2185 H 0.80655 0.08171 0.00854 0.0
H2186 H 0.83313 0.07128 0.00209 0.0
H2187 H 0.87312 0.11211 0.9801 0.0
H2188 H 0.9553 0.08458 0.98814 0.0
H2189 H 0.93039 0.09932 0.9911 0.0
H2190 H 0.88884 0.06239 0.01233 0.0
C2191 C 0.83424 0.08661 0.0051 0.0
C2192 C 0.87663 0.10141 0.98733 0.0
C2193 C 0.81908 0.09254 0.00874 0.0
C2194 C 0.94168 0.07533 0.98615 0.0
C2195 C 0.92752 0.08372 0.98772 0.0
C2196 C 0.88548 0.07322 0.0052 0.0
C2197 C 0.85055 0.10035 0.00487 0.0
C2198 C 0.86639 0.094 0.00066 0.0
C2199 C 0.90992 0.07191 0.98632 0.0
C2200 C 0.89541 0.08019 0.99151 0.0
H2201 H 0.83765 0.14136 0.01523 0.0
H2202 H 0.86415 0.13089 0.0087 0.0
H2203 H 0.86354 0.07444 0.02031 0.0
H2204 H 0.91745 0.02783 0.97795 0.0
H2205 H 0.89288 0.04248 0.98066 0.0
C2206 C 0.35766 0.4129 0.00958 0.0
C2207 C 0.34888 0.41562 0.02528 0.0
C2208 C 0.37427 0.42552 0.00845 0.0
C2209 C 0.41455 0.45768 0.03852 0.0
H2210 H 0.42733 0.47491 0.99291 0.0
C2211 C 0.48345 0.51087 0.03704 0.0
C2212 C 0.49189 0.50905 0.02099 0.0
C2213 C 0.4659 0.49977 0.03713 0.0
C2214 C 0.42411 0.47002 0.0057 0.0
H2215 H 0.35046 0.43389 0.05203 0.0
H2216 H 0.37983 0.45595 0.05029 0.0
H2217 H 0.39661 0.45619 0.99386 0.0
H2218 H 0.48848 0.49388 0.9924 0.0
H2219 H 0.45785 0.47407 0.99261 0.0
H2220 H 0.44202 0.47094 0.05027 0.0
C2221 C 0.37372 0.44407 0.03874 0.0
C2222 C 0.40642 0.45937 0.00628 0.0
C2223 C 0.35684 0.4316 0.03968 0.0
C2224 C 0.48236 0.49562 0.00501 0.0
C2225 C 0.46473 0.48439 0.00511 0.0
C2226 C 0.43224 0.46815 0.0379 0.0
C2227 C 0.38276 0.44101 0.0232 0.0
C2228 C 0.40138 0.45311 0.02273 0.0
C2229 C 0.4562 0.48633 0.0212 0.0
C2230 C 0.43732 0.4746 0.02152 0.0
H2231 H 0.35184 0.40063 0.99829 0.0
H2232 H 0.38082 0.4226 0.99635 0.0
H2233 H 0.41128 0.45273 0.05128 0.0
H2234 H 0.49035 0.52115 0.04957 0.0
H2235 H 0.45982 0.50204 0.04969 0.0
C2236 C 0.40084 0.63087 0.7814 0.0
C2237 C 0.39858 0.61559 0.76596 0.0
C2238 C 0.39178 0.6455 0.78136 0.0
C2239 C 0.35529 0.6616 0.75259 0.0
H2240 H 0.37201 0.70772 0.79101 0.0
C2241 C 0.31492 0.7211 0.76042 0.0
C2242 C 0.32361 0.74075 0.76835 0.0
C2243 C 0.32397 0.70636 0.75982 0.0
C2244 C 0.36703 0.69515 0.77994 0.0
H2245 H 0.38414 0.60471 0.73799 0.0
H2246 H 0.36871 0.63013 0.73758 0.0
H2247 H 0.38728 0.68267 0.79009 0.0
H2248 H 0.34943 0.75951 0.78202 0.0
H2249 H 0.36506 0.73417 0.78119 0.0
H2250 H 0.33537 0.67465 0.74215 0.0
C2251 C 0.37745 0.63076 0.75019 0.0
C2252 C 0.37584 0.68018 0.77953 0.0
C2253 C 0.38649 0.61587 0.75033 0.0
C2254 C 0.34197 0.74479 0.77575 0.0
C2255 C 0.35102 0.72995 0.77534 0.0
C2256 C 0.34653 0.67664 0.75297 0.0
C2257 C 0.37985 0.64621 0.76573 0.0
C2258 C 0.37026 0.66275 0.7659 0.0
C2259 C 0.34231 0.71023 0.76729 0.0
C2260 C 0.35205 0.69391 0.7667 0.0
H2261 H 0.40978 0.63162 0.79394 0.0
H2262 H 0.39422 0.6562 0.79401 0.0
H2263 H 0.35 0.64891 0.74173 0.0
H2264 H 0.3009 0.71698 0.75443 0.0
H2265 H 0.31627 0.69173 0.75366 0.0
C2266 C 0.22064 0.60919 0.53018 0.0
C2267 C 0.23294 0.61245 0.51755 0.0
C2268 C 0.2025 0.60152 0.52354 0.0
C2269 C 0.16787 0.57932 0.48359 0.0
H2270 H 0.1436 0.61042 0.51392 0.0
C2271 C 0.09962 0.547 0.5 0.0
C2272 C 0.08852 0.55841 0.50579 0.0
C2273 C 0.11619 0.55556 0.49519 0.0
C2274 C 0.15001 0.60191 0.5048 0.0
H2275 H 0.23671 0.60786 0.48838 0.0
H2276 H 0.20471 0.59449 0.47669 0.0
H2277 H 0.17594 0.61964 0.51746 0.0
H2278 H 0.08492 0.58717 0.5102 0.0
H2279 H 0.11387 0.60232 0.50126 0.0
H2280 H 0.14183 0.56162 0.47083 0.0
C2281 C 0.20906 0.59795 0.49164 0.0
C2282 C 0.16859 0.607 0.50712 0.0
C2283 C 0.22732 0.60534 0.49834 0.0
C2284 C 0.0938 0.57837 0.5064 0.0
C2285 C 0.11019 0.58691 0.50104 0.0
C2286 C 0.14918 0.57444 0.48092 0.0
C2287 C 0.19656 0.59742 0.50423 0.0
C2288 C 0.17754 0.59479 0.49773 0.0
C2289 C 0.12164 0.5756 0.49552 0.0
C2290 C 0.14017 0.58471 0.49273 0.0
H2291 H 0.22481 0.61456 0.54504 0.0
H2292 H 0.19302 0.60044 0.5335 0.0
H2293 H 0.1746 0.57011 0.47573 0.0
H2294 H 0.09539 0.53147 0.49911 0.0
H2295 H 0.12485 0.54646 0.49162 0.0
C2296 C 0.68625 0.99607 0.76045 0.0
C2297 C 0.69084 0.00438 0.74499 0.0
C2298 C 0.69411 0.98222 0.76542 0.0
C2299 C 0.7156 0.94648 0.7462 0.0
H2300 H 0.73454 0.94954 0.79797 0.0
C2301 C 0.76192 0.90253 0.76607 0.0
C2302 C 0.75767 0.8921 0.78027 0.0
C2303 C 0.75339 0.91647 0.76302 0.0
C2304 C 0.72907 0.94844 0.78354 0.0
H2305 H 0.70684 0.00529 0.72244 0.0
H2306 H 0.72101 0.98083 0.73125 0.0
H2307 H 0.72048 0.97405 0.78966 0.0
H2308 H 0.74201 0.888 0.80292 0.0
H2309 H 0.72665 0.91268 0.79742 0.0
H2310 H 0.72433 0.92103 0.74003 0.0
C2311 C 0.71127 0.98499 0.73944 0.0
C2312 C 0.72112 0.9624 0.77879 0.0
C2313 C 0.70338 0.99896 0.73449 0.0
C2314 C 0.74531 0.89607 0.7919 0.0
C2315 C 0.73665 0.91006 0.78879 0.0
C2316 C 0.72354 0.93257 0.75094 0.0
C2317 C 0.70662 0.97654 0.75492 0.0
C2318 C 0.71459 0.96163 0.76004 0.0
C2319 C 0.74042 0.92 0.77405 0.0
C2320 C 0.73059 0.93368 0.76957 0.0
H2321 H 0.6764 1.00016 0.76853 0.0
H2322 H 0.69017 0.97569 0.77723 0.0
H2323 H 0.71026 0.9454 0.73173 0.0
H2324 H 0.77163 0.89963 0.75716 0.0
H2325 H 0.75674 0.92431 0.75186 0.0
C2326 C 0.74124 0.90875 0.49536 0.0
C2327 C 0.75038 0.90854 0.51284 0.0
C2328 C 0.72639 0.91621 0.49411 0.0
C2329 C 0.7043 0.94826 0.52246 0.0
H2330 H 0.66637 0.92918 0.48017 0.0
C2331 C 0.65191 0.98973 0.51072 0.0
C2332 C 0.6342 0.97936 0.50332 0.0
C2333 C 0.66556 0.98048 0.51098 0.0
C2334 C 0.6767 0.93459 0.49221 0.0
H2335 H 0.75061 0.91552 0.54274 0.0
H2336 H 0.72451 0.92817 0.54064 0.0
H2337 H 0.69016 0.91331 0.48322 0.0
H2338 H 0.61671 0.95134 0.48993 0.0
H2339 H 0.64046 0.93481 0.49081 0.0
H2340 H 0.69046 0.96884 0.53202 0.0
C2341 C 0.72907 0.92302 0.52781 0.0
C2342 C 0.69058 0.92563 0.49383 0.0
C2343 C 0.74402 0.91563 0.52906 0.0
C2344 C 0.63033 0.95958 0.49577 0.0
C2345 C 0.644 0.9502 0.49619 0.0
C2346 C 0.69031 0.95698 0.52101 0.0
C2347 C 0.72011 0.92361 0.5103 0.0
C2348 C 0.70472 0.93246 0.50891 0.0
C2349 C 0.66182 0.96047 0.50411 0.0
C2350 C 0.67639 0.95051 0.50574 0.0
H2351 H 0.74562 0.90325 0.48253 0.0
H2352 H 0.72013 0.91655 0.48036 0.0
H2353 H 0.71496 0.95423 0.53414 0.0
H2354 H 0.65518 0.00505 0.51648 0.0
H2355 H 0.67909 0.98913 0.51664 0.0
C2356 C 0.39378 0.47964 0.73903 0.0
C2357 C 0.39242 0.49668 0.75028 0.0
C2358 C 0.38398 0.46106 0.74104 0.0
C2359 C 0.3562 0.43404 0.77402 0.0
H2360 H 0.34791 0.39074 0.73294 0.0
C2361 C 0.30863 0.35712 0.77527 0.0
C2362 C 0.31209 0.34014 0.76619 0.0
C2363 C 0.31922 0.37576 0.77429 0.0
C2364 C 0.35024 0.4025 0.74474 0.0
H2365 H 0.37905 0.50684 0.77273 0.0
H2366 H 0.36138 0.47457 0.77591 0.0
H2367 H 0.36272 0.42314 0.72882 0.0
H2368 H 0.3299 0.33006 0.74865 0.0
H2369 H 0.34841 0.36252 0.74679 0.0
H2370 H 0.34311 0.41319 0.78969 0.0
C2371 C 0.37035 0.4755 0.76548 0.0
C2372 C 0.35892 0.42145 0.74241 0.0
C2373 C 0.38029 0.49428 0.76343 0.0
C2374 C 0.32691 0.3426 0.7562 0.0
C2375 C 0.33741 0.3614 0.75492 0.0
C2376 C 0.34729 0.41508 0.77627 0.0
C2377 C 0.37213 0.45833 0.75446 0.0
C2378 C 0.36221 0.43782 0.75698 0.0
C2379 C 0.33367 0.37845 0.7638 0.0
C2380 C 0.34407 0.39882 0.76167 0.0
H2381 H 0.40307 0.48061 0.72888 0.0
H2382 H 0.3864 0.44882 0.73235 0.0
H2383 H 0.35854 0.4457 0.78591 0.0
H2384 H 0.2973 0.35602 0.78295 0.0
H2385 H 0.31553 0.38814 0.78123 0.0
C2386 C 0.18868 0.59037 0.27076 0.0
C2387 C 0.18152 0.58156 0.25231 0.0
C2388 C 0.20106 0.6084 0.27448 0.0
C2389 C 0.20925 0.64983 0.25147 0.0
H2390 H 0.24519 0.67384 0.29483 0.0
C2391 C 0.24651 0.7287 0.26029 0.0
C2392 C 0.26497 0.73279 0.26577 0.0
C2393 C 0.23519 0.71148 0.26278 0.0
C2394 C 0.23526 0.6673 0.28258 0.0
H2395 H 0.18288 0.58258 0.22309 0.0
H2396 H 0.20548 0.61394 0.22951 0.0
H2397 H 0.23169 0.63915 0.28901 0.0
H2398 H 0.28649 0.72341 0.27875 0.0
H2399 H 0.2671 0.69216 0.28121 0.0
H2400 H 0.21377 0.67739 0.24401 0.0
C2401 C 0.20104 0.60738 0.24115 0.0
C2402 C 0.22745 0.64747 0.27933 0.0
C2403 C 0.18839 0.58942 0.23744 0.0
C2404 C 0.27222 0.71993 0.27396 0.0
C2405 C 0.26102 0.70237 0.27583 0.0
C2406 C 0.21745 0.66947 0.25436 0.0
C2407 C 0.20635 0.61759 0.25968 0.0
C2408 C 0.21479 0.63851 0.2634 0.0
C2409 C 0.24239 0.6979 0.27011 0.0
C2410 C 0.23103 0.67827 0.26956 0.0
H2411 H 0.18338 0.58419 0.28228 0.0
H2412 H 0.20496 0.61582 0.28889 0.0
H2413 H 0.1988 0.64348 0.23962 0.0
H2414 H 0.24081 0.7391 0.25466 0.0
H2415 H 0.22088 0.70875 0.25877 0.0
C2416 C 0.49814 0.70573 0.45358 0.0
C2417 C 0.50663 0.71312 0.43911 0.0
C2418 C 0.50349 0.69161 0.46165 0.0
C2419 C 0.52722 0.65394 0.45289 0.0
H2420 H 0.52727 0.65489 0.50603 0.0
C2421 C 0.55165 0.59936 0.49049 0.0
C2422 C 0.53906 0.58943 0.50055 0.0
C2423 C 0.54926 0.61569 0.48399 0.0
C2424 C 0.52728 0.65447 0.49118 0.0
H2425 H 0.52747 0.7114 0.42182 0.0
H2426 H 0.53686 0.68668 0.43595 0.0
H2427 H 0.52041 0.68119 0.49245 0.0
H2428 H 0.51459 0.58901 0.51245 0.0
H2429 H 0.51075 0.6181 0.50168 0.0
H2430 H 0.5342 0.62724 0.45172 0.0
C2431 C 0.52591 0.69172 0.44092 0.0
C2432 C 0.52329 0.66945 0.48336 0.0
C2433 C 0.52055 0.70592 0.43283 0.0
C2434 C 0.52442 0.59645 0.50464 0.0
C2435 C 0.52229 0.61308 0.49857 0.0
C2436 C 0.5314 0.63908 0.46075 0.0
C2437 C 0.51748 0.68446 0.45549 0.0
C2438 C 0.52294 0.66923 0.46405 0.0
C2439 C 0.53449 0.62262 0.48787 0.0
C2440 C 0.53125 0.63908 0.47991 0.0
H2441 H 0.48741 0.71098 0.45888 0.0
H2442 H 0.49648 0.68614 0.47261 0.0
H2443 H 0.52681 0.65312 0.43795 0.0
H2444 H 0.56298 0.59409 0.48706 0.0
H2445 H 0.55888 0.62283 0.47581 0.0
C2446 C 0.64172 0.30163 0.63835 0.0
C2447 C 0.62621 0.30578 0.64432 0.0
C2448 C 0.65501 0.29881 0.65099 0.0
C2449 C 0.67435 0.31097 0.70036 0.0
H2450 H 0.69458 0.2679 0.68838 0.0
C2451 C 0.72658 0.29821 0.75427 0.0
C2452 C 0.74047 0.29093 0.74813 0.0
C2453 C 0.71193 0.29825 0.74167 0.0
C2454 C 0.68933 0.28018 0.69191 0.0
H2455 H 0.61268 0.31031 0.66845 0.0
H2456 H 0.63625 0.30592 0.69075 0.0
H2457 H 0.67066 0.27182 0.66651 0.0
H2458 H 0.74959 0.27723 0.72397 0.0
H2459 H 0.72456 0.27833 0.70161 0.0
H2460 H 0.69334 0.32 0.72523 0.0
C2461 C 0.63796 0.30472 0.67614 0.0
C2462 C 0.6755 0.28235 0.67937 0.0
C2463 C 0.62446 0.30723 0.66339 0.0
C2464 C 0.73913 0.28308 0.72908 0.0
C2465 C 0.72465 0.28359 0.7163 0.0
C2466 C 0.68835 0.30902 0.71273 0.0
C2467 C 0.65334 0.30034 0.67005 0.0
C2468 C 0.66779 0.29773 0.68349 0.0
C2469 C 0.71095 0.29154 0.72237 0.0
C2470 C 0.69602 0.29351 0.70883 0.0
H2471 H 0.64352 0.30023 0.62375 0.0
H2472 H 0.66674 0.29567 0.64587 0.0
H2473 H 0.66895 0.32318 0.7038 0.0
H2474 H 0.72705 0.30403 0.76893 0.0
H2475 H 0.70144 0.30376 0.74717 0.0
C2476 C 0.02522 0.32741 0.93644 0.0
C2477 C 0.01884 0.31448 0.9482 0.0
C2478 C 0.02953 0.34726 0.94299 0.0
C2479 C 0.0409 0.38668 0.98194 0.0
H2480 H 0.0028 0.40451 0.95885 0.0
C2481 C 0.03061 0.4596 0.01272 0.0
C2482 C 0.02464 0.4702 1.00038 0.0
C2483 C 0.0304 0.44049 0.00633 0.0
C2484 C 0.01379 0.40003 0.96522 0.0
H2485 H 0.01355 0.31188 0.97633 0.0
H2486 H 0.02169 0.34685 0.98799 0.0
H2487 H 0.00502 0.37219 0.94736 0.0
H2488 H 0.01374 0.46974 0.97197 0.0
H2489 H 0.01439 0.43681 0.96038 0.0
H2490 H 0.0502 0.41459 0.99938 0.0
C2491 C 0.02308 0.34152 0.97369 0.0
C2492 C 0.01498 0.38149 0.95865 0.0
C2493 C 0.01835 0.32163 0.96703 0.0
C2494 C 0.01811 0.46154 0.98171 0.0
C2495 C 0.01847 0.44266 0.97515 0.0
C2496 C 0.04005 0.40546 0.98822 0.0
C2497 C 0.02794 0.35436 0.96148 0.0
C2498 C 0.02835 0.37465 0.96716 0.0
C2499 C 0.02489 0.43197 0.98733 0.0
C2500 C 0.02625 0.41226 0.98017 0.0
H2501 H 0.02555 0.32225 0.92181 0.0
H2502 H 0.03318 0.35705 0.9334 0.0
H2503 H 0.05129 0.38152 0.98864 0.0
H2504 H 0.03569 0.4662 0.02721 0.0
H2505 H 0.03486 0.43256 0.01628 0.0
C2506 C 0.00536 0.80498 0.13181 0.0
C2507 C 0.02049 0.79889 0.13724 0.0
C2508 C 0.98998 0.80047 0.14048 0.0
C2509 C 0.96616 0.76729 0.16945 0.0
H2510 H 0.94098 0.80656 0.17899 0.0
C2511 C 0.90983 0.76382 0.21701 0.0
C2512 C 0.8954 0.77109 0.21159 0.0
C2513 C 0.92426 0.76504 0.20675 0.0
C2514 C 0.94767 0.7953 0.17619 0.0
H2515 H 0.03118 0.78308 0.15608 0.0
H2516 H 0.00429 0.7753 0.17142 0.0
H2517 H 0.96809 0.81346 0.16442 0.0
H2518 H 0.88437 0.78405 0.19021 0.0
H2519 H 0.9096 0.7864 0.17252 0.0
H2520 H 0.94574 0.7493 0.18167 0.0
C2521 C 0.00432 0.7835 0.1603 0.0
C2522 C 0.96328 0.79927 0.16783 0.0
C2523 C 0.01981 0.78811 0.15163 0.0
C2524 C 0.89543 0.77877 0.19512 0.0
C2525 C 0.90989 0.78007 0.18493 0.0
C2526 C 0.95052 0.76335 0.17795 0.0
C2527 C 0.9892 0.78969 0.15488 0.0
C2528 C 0.97273 0.78532 0.16423 0.0
C2529 C 0.9247 0.77367 0.19087 0.0
C2530 C 0.94105 0.77731 0.18136 0.0
H2531 H 0.00533 0.81326 0.12076 0.0
H2532 H 0.97856 0.80525 0.13568 0.0
H2533 H 0.97294 0.75611 0.16671 0.0
H2534 H 0.91041 0.75794 0.22967 0.0
H2535 H 0.93546 0.76005 0.21179 0.0
C2536 C 0.493 0.2961 0.09548 0.0
C2537 C 0.50145 0.29365 0.11233 0.0
C2538 C 0.50031 0.31212 0.08768 0.0
C2539 C 0.53388 0.36068 0.09856 0.0
H2540 H 0.52567 0.35451 0.04467 0.0
C2541 C 0.54427 0.42555 0.06076 0.0
C2542 C 0.54718 0.42291 0.04198 0.0
C2543 C 0.54192 0.41019 0.07039 0.0
C2544 C 0.52854 0.35654 0.05972 0.0
H2545 H 0.52429 0.30587 0.1342 0.0
H2546 H 0.53751 0.3333 0.12017 0.0
H2547 H 0.51565 0.32687 0.05903 0.0
H2548 H 0.55134 0.40228 0.01915 0.0
H2549 H 0.54876 0.37622 0.03628 0.0
H2550 H 0.54772 0.39021 0.0991 0.0
C2551 C 0.52492 0.3233 0.11323 0.0
C2552 C 0.52234 0.34065 0.06803 0.0
C2553 C 0.51738 0.30749 0.12124 0.0
C2554 C 0.54918 0.405 0.03359 0.0
C2555 C 0.54731 0.38982 0.04336 0.0
C2556 C 0.54053 0.37653 0.09019 0.0
C2557 C 0.5165 0.32582 0.0963 0.0
C2558 C 0.52447 0.34257 0.08757 0.0
C2559 C 0.54285 0.39192 0.06159 0.0
C2560 C 0.53761 0.37477 0.07065 0.0
H2561 H 0.48065 0.28573 0.08839 0.0
H2562 H 0.49311 0.31378 0.07492 0.0
H2563 H 0.53574 0.36283 0.11366 0.0
H2564 H 0.54318 0.4393 0.0679 0.0
H2565 H 0.53851 0.41249 0.08439 0.0
C2566 C 0.04583 0.31595 0.34478 0.0
C2567 C 0.04555 0.3031 0.35726 0.0
C2568 C 0.03024 0.31466 0.33291 0.0
C2569 C 0.98231 0.29924 0.33454 0.0
H2570 H 0.97654 0.30966 0.28432 0.0
C2571 C 0.91312 0.29414 0.29806 0.0
C2572 C 0.91158 0.30977 0.28967 0.0
C2573 C 0.92996 0.29178 0.30334 0.0
C2574 C 0.97803 0.30681 0.29838 0.0
H2575 H 0.02976 0.2776 0.3657 0.0
H2576 H 0.00275 0.27483 0.34444 0.0
H2577 H 0.00579 0.30761 0.29825 0.0
H2578 H 0.92626 0.33465 0.27933 0.0
H2579 H 0.95586 0.33061 0.28878 0.0
H2580 H 0.9549 0.29885 0.33502 0.0
C2581 C 0.01474 0.28629 0.34427 0.0
C2582 C 0.99471 0.30561 0.3063 0.0
C2583 C 0.03018 0.28776 0.35631 0.0
C2584 C 0.92712 0.32243 0.28573 0.0
C2585 C 0.94402 0.32011 0.2911 0.0
C2586 C 0.96578 0.30045 0.32668 0.0
C2587 C 0.01432 0.30037 0.33327 0.0
C2588 C 0.99688 0.30153 0.32437 0.0
C2589 C 0.94559 0.30506 0.30042 0.0
C2590 C 0.96338 0.304 0.30846 0.0
H2591 H 0.05755 0.328 0.34538 0.0
H2592 H 0.03028 0.32571 0.32458 0.0
H2593 H 0.98375 0.29681 0.34875 0.0
H2594 H 0.90131 0.28396 0.3009 0.0
H2595 H 0.93077 0.27979 0.31014 0.0
C2596 C 0.97736 0.67723 0.60725 0.0
C2597 C 0.98407 0.69724 0.60848 0.0
C2598 C 0.98277 0.66456 0.5943 0.0
C2599 C 0.00602 0.65996 0.5532 0.0
H2600 H 0.02088 0.62114 0.57648 0.0
C2601 C 0.03858 0.60463 0.51535 0.0
C2602 C 0.02814 0.58578 0.51503 0.0
C2603 C 0.03574 0.6201 0.52739 0.0
C2604 C 0.01693 0.63205 0.56992 0.0
H2605 H 1.00007 0.71971 0.59597 0.0
H2606 H 0.00965 0.69751 0.57346 0.0
H2607 H 0.00847 0.64431 0.59472 0.0
H2608 H 0.00679 0.56796 0.52661 0.0
H2609 H 0.00229 0.59473 0.54814 0.0
H2610 H 0.01433 0.64741 0.52831 0.0
C2611 C 1.00024 0.69164 0.58245 0.0
C2612 C 0.00964 0.6451 0.58021 0.0
C2613 C 0.99468 0.70432 0.5953 0.0
C2614 C 0.01515 0.58237 0.52692 0.0
C2615 C 0.01261 0.59766 0.53921 0.0
C2616 C 0.01342 0.64694 0.54291 0.0
C2617 C 0.99503 0.67176 0.58254 0.0
C2618 C 0.00362 0.65876 0.57176 0.0
C2619 C 0.02273 0.61662 0.53938 0.0
C2620 C 0.01842 0.63259 0.55109 0.0
H2621 H 0.96896 0.67144 0.61713 0.0
H2622 H 0.97816 0.64919 0.5942 0.0
H2623 H 0.00156 0.67046 0.54645 0.0
H2624 H 0.04868 0.60736 0.50616 0.0
H2625 H 0.04358 0.63469 0.52731 0.0
C2626 C 0.64288 0.83952 0.84496 0.0
C2627 C 0.63397 0.82704 0.85594 0.0
C2628 C 0.65296 0.83296 0.83188 0.0
C2629 C 0.67556 0.7949 0.82114 0.0
H2630 H 0.67515 0.80889 0.77217 0.0
C2631 C 0.71716 0.76639 0.77071 0.0
C2632 C 0.72943 0.78142 0.76502 0.0
C2633 C 0.70198 0.76966 0.77772 0.0
C2634 C 0.67527 0.80481 0.78577 0.0
H2635 H 0.62817 0.79786 0.86161 0.0
H2636 H 0.64527 0.78641 0.83865 0.0
H2637 H 0.65652 0.82043 0.79392 0.0
H2638 H 0.73441 0.81074 0.75988 0.0
H2639 H 0.70808 0.8165 0.77238 0.0
H2640 H 0.69449 0.77966 0.8133 0.0
C2641 C 0.64497 0.80135 0.84042 0.0
C2642 C 0.66477 0.81153 0.79824 0.0
C2643 C 0.63516 0.80794 0.85358 0.0
C2644 C 0.72533 0.79902 0.76453 0.0
C2645 C 0.71015 0.80227 0.77151 0.0
C2646 C 0.68594 0.78815 0.80871 0.0
C2647 C 0.65405 0.81379 0.82951 0.0
C2648 C 0.66493 0.8067 0.81608 0.0
C2649 C 0.69889 0.78795 0.77906 0.0
C2650 C 0.686 0.79315 0.79097 0.0
H2651 H 0.64214 0.85431 0.84652 0.0
H2652 H 0.66004 0.84292 0.8238 0.0
H2653 H 0.67624 0.79125 0.83492 0.0
H2654 H 0.71989 0.75259 0.77102 0.0
H2655 H 0.69327 0.75828 0.78318 0.0
C2656 C 0.46852 0.57261 0.69836 0.0
C2657 C 0.45314 0.55803 0.7001 0.0
C2658 C 0.4767 0.57204 0.68172 0.0
C2659 C 0.47732 0.53755 0.63588 0.0
H2660 H 0.50747 0.58384 0.62378 0.0
C2661 C 0.50894 0.5367 0.56444 0.0
C2662 C 0.5261 0.54943 0.56475 0.0
C2663 C 0.49955 0.53765 0.5803 0.0
C2664 C 0.49925 0.57058 0.62683 0.0
H2665 H 0.43498 0.53102 0.6852 0.0
H2666 H 0.4483 0.53039 0.65639 0.0
H2667 H 0.49277 0.58602 0.65156 0.0
H2668 H 0.5464 0.57321 0.58264 0.0
H2669 H 0.53041 0.57495 0.6094 0.0
H2670 H 0.48379 0.5222 0.61094 0.0
C2671 C 0.4544 0.5424 0.66779 0.0
C2672 C 0.49068 0.57185 0.64311 0.0
C2673 C 0.44634 0.54296 0.6844 0.0
C2674 C 0.53321 0.56318 0.58145 0.0
C2675 C 0.52386 0.56426 0.59705 0.0
C2676 C 0.4858 0.53631 0.6195 0.0
C2677 C 0.47006 0.55672 0.66599 0.0
C2678 C 0.47941 0.55538 0.64819 0.0
C2679 C 0.5068 0.55151 0.59707 0.0
C2680 C 0.49706 0.55278 0.61451 0.0
H2681 H 0.47481 0.58406 0.71024 0.0
H2682 H 0.48877 0.58337 0.68163 0.0
H2683 H 0.46932 0.52422 0.63895 0.0
H2684 H 0.50293 0.5257 0.55214 0.0
H2685 H 0.48648 0.52749 0.57933 0.0
C2686 C 0.79337 0.19002 0.9667 0.0
C2687 C 0.78492 0.1715 0.96946 0.0
C2688 C 0.78768 0.1963 0.95086 0.0
C2689 C 0.74504 0.18585 0.92008 0.0
H2690 H 0.77136 0.22976 0.90092 0.0
C2691 C 0.72931 0.22227 0.85756 0.0
C2692 C 0.73484 0.24256 0.86217 0.0
C2693 C 0.72988 0.21141 0.87156 0.0
C2694 C 0.76387 0.21759 0.90636 0.0
H2695 H 0.76637 0.14377 0.95686 0.0
H2696 H 0.75724 0.15427 0.9283 0.0
H2697 H 0.78776 0.2131 0.91928 0.0
H2698 H 0.7422 0.26729 0.88503 0.0
H2699 H 0.74336 0.2483 0.90931 0.0
H2700 H 0.72116 0.19012 0.90615 0.0
C2701 C 0.76757 0.16431 0.93876 0.0
C2702 C 0.77324 0.208 0.91678 0.0
C2703 C 0.77315 0.15812 0.95483 0.0
C2704 C 0.7379 0.25167 0.88105 0.0
C2705 C 0.7386 0.24084 0.89499 0.0
C2706 C 0.73567 0.19523 0.9092 0.0
C2707 C 0.77374 0.18389 0.93739 0.0
C2708 C 0.76395 0.19218 0.924 0.0
C2709 C 0.73601 0.22085 0.89013 0.0
C2710 C 0.74508 0.21132 0.90258 0.0
H2711 H 0.80232 0.20055 0.97803 0.0
H2712 H 0.79277 0.21148 0.9504 0.0
H2713 H 0.73741 0.17401 0.92581 0.0
H2714 H 0.72667 0.21495 0.84309 0.0
H2715 H 0.72785 0.19596 0.86762 0.0
C2716 C 0.12182 0.51344 0.18372 0.0
C2717 C 0.12376 0.53179 0.19432 0.0
C2718 C 0.12047 0.51102 0.16439 0.0
C2719 C 0.11762 0.5342 0.12361 0.0
H2720 H 0.06735 0.50556 0.11784 0.0
C2721 C 0.06415 0.54348 0.06913 0.0
C2722 C 0.04946 0.52748 0.06162 0.0
C2723 C 0.07686 0.5422 0.08317 0.0
C2724 C 0.08145 0.51306 0.11881 0.0
H2725 H 0.12934 0.56249 0.19377 0.0
H2726 H 0.12615 0.55808 0.15994 0.0
H2727 H 0.08721 0.50548 0.14508 0.0
H2728 H 0.03659 0.49748 0.06191 0.0
H2729 H 0.05924 0.49482 0.08593 0.0
H2730 H 0.1116 0.54217 0.09737 0.0
C2731 C 0.12563 0.54561 0.16643 0.0
C2732 C 0.09285 0.51296 0.13443 0.0
C2733 C 0.12692 0.54803 0.18572 0.0
C2734 C 0.04771 0.51005 0.06788 0.0
C2735 C 0.06067 0.50859 0.08158 0.0
C2736 C 0.10621 0.53396 0.10763 0.0
C2737 C 0.12099 0.52693 0.15568 0.0
C2738 C 0.1109 0.52376 0.1371 0.0
C2739 C 0.07523 0.52473 0.08954 0.0
C2740 C 0.08793 0.52365 0.1053 0.0
H2741 H 0.12003 0.50081 0.19018 0.0
H2742 H 0.11701 0.49651 0.15619 0.0
H2743 H 0.13143 0.543 0.12576 0.0
H2744 H 0.06565 0.55705 0.06432 0.0
H2745 H 0.08768 0.555 0.08928 0.0
C2746 C 0.77989 0.82618 0.46679 0.0
C2747 C 0.78451 0.84589 0.47478 0.0
C2748 C 0.7783 0.82042 0.44746 0.0
C2749 C 0.80226 0.83427 0.41227 0.0
H2750 H 0.7629 0.80214 0.37505 0.0
C2751 C 0.81005 0.81532 0.33451 0.0
C2752 C 0.79922 0.7976 0.32427 0.0
C2753 C 0.80797 0.8212 0.35307 0.0
C2754 C 0.77412 0.81084 0.38535 0.0
H2755 H 0.7902 0.87502 0.46919 0.0
H2756 H 0.7882 0.86491 0.43538 0.0
H2757 H 0.75726 0.81253 0.40676 0.0
H2758 H 0.77876 0.77143 0.32524 0.0
H2759 H 0.77592 0.78099 0.35792 0.0
H2760 H 0.8194 0.83189 0.39148 0.0
C2761 C 0.78531 0.85399 0.44399 0.0
C2762 C 0.77078 0.81693 0.40336 0.0
C2763 C 0.78636 0.85972 0.46323 0.0
C2764 C 0.78717 0.78525 0.333 0.0
C2765 C 0.78538 0.79086 0.3516 0.0
C2766 C 0.8057 0.82786 0.39441 0.0
C2767 C 0.78186 0.83437 0.43613 0.0
C2768 C 0.78484 0.82871 0.41685 0.0
C2769 C 0.79525 0.80921 0.36167 0.0
C2770 C 0.79168 0.81603 0.38073 0.0
H2771 H 0.7785 0.81536 0.47555 0.0
H2772 H 0.77569 0.80521 0.44154 0.0
H2773 H 0.81331 0.84317 0.4227 0.0
H2774 H 0.81925 0.82511 0.32784 0.0
H2775 H 0.8157 0.83548 0.36033 0.0
C2776 C 0.45272 0.56681 0.82262 0.0
C2777 C 0.46137 0.56287 0.80697 0.0
C2778 C 0.46002 0.56553 0.84084 0.0
C2779 C 0.4932 0.54309 0.86451 0.0
H2780 H 0.48564 0.57272 0.91016 0.0
C2781 C 0.51661 0.52617 0.93738 0.0
C2782 C 0.51994 0.54031 0.95382 0.0
C2783 C 0.50962 0.52941 0.91996 0.0
C2784 C 0.48821 0.56434 0.8977 0.0
H2785 H 0.48532 0.55564 0.79903 0.0
H2786 H 0.49795 0.55397 0.83004 0.0
H2787 H 0.47407 0.57841 0.8801 0.0
H2788 H 0.5184 0.56928 0.96419 0.0
H2789 H 0.50681 0.57513 0.93426 0.0
H2790 H 0.50784 0.52948 0.88174 0.0
C2791 C 0.48523 0.55742 0.82848 0.0
C2792 C 0.48121 0.56748 0.88019 0.0
C2793 C 0.47799 0.55865 0.81047 0.0
C2794 C 0.5161 0.55791 0.95203 0.0
C2795 C 0.50916 0.5612 0.93461 0.0
C2796 C 0.5003 0.54005 0.88194 0.0
C2797 C 0.47622 0.56022 0.84406 0.0
C2798 C 0.48356 0.55695 0.86314 0.0
C2799 C 0.50565 0.54703 0.91804 0.0
C2800 C 0.498 0.55053 0.89909 0.0
H2801 H 0.43986 0.56991 0.82069 0.0
H2802 H 0.4525 0.56791 0.85225 0.0
H2803 H 0.49521 0.53425 0.852 0.0
H2804 H 0.51935 0.51242 0.93794 0.0
H2805 H 0.50707 0.51775 0.90806 0.0
C2806 C 0.78286 0.17935 0.08396 0.0
C2807 C 0.78947 0.19065 0.07101 0.0
C2808 C 0.78124 0.18833 0.10171 0.0
C2809 C 0.77535 0.23399 0.12467 0.0
H2810 H 0.79045 0.21869 0.17053 0.0
C2811 C 0.79051 0.28284 0.19694 0.0
C2812 C 0.78811 0.27387 0.21244 0.0
C2813 C 0.7864 0.27161 0.179 0.0
C2814 C 0.78573 0.22287 0.15783 0.0
H2815 H 0.8007 0.21963 0.06632 0.0
H2816 H 0.79869 0.23534 0.09767 0.0
H2817 H 0.79331 0.20047 0.14082 0.0
H2818 H 0.77877 0.24652 0.22151 0.0
H2819 H 0.77024 0.22729 0.19039 0.0
H2820 H 0.76809 0.25665 0.14175 0.0
C2821 C 0.7943 0.2197 0.09402 0.0
C2822 C 0.78749 0.21248 0.14087 0.0
C2823 C 0.79578 0.21077 0.07632 0.0
C2824 C 0.78038 0.25387 0.2098 0.0
C2825 C 0.77576 0.24279 0.19197 0.0
C2826 C 0.77349 0.24434 0.14167 0.0
C2827 C 0.78632 0.20859 0.10652 0.0
C2828 C 0.78278 0.2183 0.12425 0.0
C2829 C 0.77958 0.2514 0.1765 0.0
C2830 C 0.77904 0.23911 0.15839 0.0
H2831 H 0.77746 0.1638 0.07984 0.0
H2832 H 0.77503 0.17953 0.1112 0.0
H2833 H 0.77127 0.23843 0.11188 0.0
H2834 H 0.79652 0.29828 0.19872 0.0
H2835 H 0.78963 0.2786 0.16728 0.0
C2836 C 0.14338 0.53883 0.30595 0.0
C2837 C 0.13112 0.53778 0.29024 0.0
C2838 C 0.14198 0.54925 0.32323 0.0
C2839 C 0.12176 0.58707 0.34363 0.0
H2840 H 0.12265 0.56323 0.38723 0.0
C2841 C 0.07909 0.59058 0.40151 0.0
C2842 C 0.08552 0.58615 0.41835 0.0
C2843 C 0.0905 0.59416 0.38816 0.0
C2844 C 0.12295 0.57046 0.37537 0.0
H2845 H 0.10763 0.54594 0.28001 0.0
H2846 H 0.10482 0.56344 0.31007 0.0
H2847 H 0.13074 0.54803 0.35867 0.0
H2848 H 0.10919 0.5859 0.43627 0.0
H2849 H 0.12928 0.59258 0.41306 0.0
H2850 H 0.11255 0.6087 0.36006 0.0
C2851 C 0.1158 0.55689 0.30913 0.0
C2852 C 0.1275 0.56167 0.35899 0.0
C2853 C 0.11726 0.54667 0.29201 0.0
C2854 C 0.10401 0.58903 0.42318 0.0
C2855 C 0.11545 0.59278 0.40991 0.0
C2856 C 0.11706 0.59583 0.36002 0.0
C2857 C 0.12832 0.55861 0.32482 0.0
C2858 C 0.12644 0.56959 0.34284 0.0
C2859 C 0.10835 0.59341 0.39174 0.0
C2860 C 0.11723 0.58733 0.3759 0.0
H2861 H 0.15434 0.53229 0.30475 0.0
H2862 H 0.15177 0.55035 0.3352 0.0
H2863 H 0.12103 0.59357 0.33135 0.0
H2864 H 0.06484 0.58852 0.39761 0.0
H2865 H 0.08471 0.59475 0.37428 0.0
C2866 C 0.78434 0.85861 0.58881 0.0
C2867 C 0.79155 0.84879 0.57473 0.0
C2868 C 0.78129 0.85128 0.60519 0.0
C2869 C 0.79664 0.81876 0.6331 0.0
H2870 H 0.7556 0.82096 0.65856 0.0
C2871 C 0.78081 0.77964 0.69467 0.0
C2872 C 0.77521 0.78969 0.70986 0.0
C2873 C 0.78251 0.78702 0.67823 0.0
C2874 C 0.76723 0.82043 0.6517 0.0
H2875 H 0.80002 0.82294 0.56626 0.0
H2876 H 0.79439 0.81013 0.59436 0.0
H2877 H 0.75842 0.83339 0.62954 0.0
H2878 H 0.76713 0.81517 0.72021 0.0
H2879 H 0.77002 0.8282 0.69136 0.0
H2880 H 0.80544 0.80576 0.65513 0.0
C2881 C 0.79165 0.82377 0.59317 0.0
C2882 C 0.76884 0.82756 0.63509 0.0
C2883 C 0.79479 0.8311 0.57698 0.0
C2884 C 0.77139 0.80722 0.70853 0.0
C2885 C 0.77295 0.81456 0.69202 0.0
C2886 C 0.79501 0.81161 0.64964 0.0
C2887 C 0.78529 0.83396 0.6077 0.0
C2888 C 0.78354 0.82673 0.62554 0.0
C2889 C 0.77853 0.80454 0.67667 0.0
C2890 C 0.78027 0.81232 0.65914 0.0
H2891 H 0.78169 0.87225 0.58746 0.0
H2892 H 0.7764 0.85951 0.61614 0.0
H2893 H 0.80833 0.81823 0.62633 0.0
H2894 H 0.78388 0.76609 0.69554 0.0
H2895 H 0.78668 0.77885 0.66664 0.0
C2896 C 0.75829 0.46511 0.50196 0.0
C2897 C 0.76378 0.45235 0.51209 0.0
C2898 C 0.74482 0.47323 0.50755 0.0
C2899 C 0.72023 0.48605 0.5443 0.0
H2900 H 0.67841 0.46687 0.50612 0.0
C2901 C 0.65348 0.50587 0.55209 0.0
C2902 C 0.64648 0.51142 0.5361 0.0
C2903 C 0.66732 0.4969 0.55122 0.0
C2904 C 0.68999 0.47241 0.51688 0.0
H2905 H 0.76117 0.43949 0.53685 0.0
H2906 H 0.73781 0.45407 0.54677 0.0
H2907 H 0.70574 0.45769 0.501 0.0
H2908 H 0.64841 0.51247 0.50696 0.0
H2909 H 0.67266 0.49741 0.5055 0.0
H2910 H 0.70473 0.50155 0.55984 0.0
C2911 C 0.74364 0.45746 0.53443 0.0
C2912 C 0.70557 0.46721 0.51391 0.0
C2913 C 0.75678 0.44902 0.52863 0.0
C2914 C 0.65335 0.5079 0.51933 0.0
C2915 C 0.66719 0.49921 0.51851 0.0
C2916 C 0.70467 0.49161 0.54716 0.0
C2917 C 0.73717 0.46902 0.52355 0.0
C2918 C 0.72086 0.47438 0.52736 0.0
C2919 C 0.67432 0.4936 0.5344 0.0
C2920 C 0.68961 0.48525 0.53319 0.0
H2921 H 0.7637 0.46795 0.48927 0.0
H2922 H 0.73988 0.4822 0.49905 0.0
H2923 H 0.73193 0.49138 0.55493 0.0
H2924 H 0.64829 0.50852 0.56517 0.0
H2925 H 0.67258 0.49265 0.56364 0.0
C2926 C 0.22135 0.15379 0.51556 0.0
C2927 C 0.23008 0.15293 0.49968 0.0
C2928 C 0.20483 0.14058 0.51572 0.0
C2929 C 0.1649 0.11014 0.48365 0.0
H2930 H 0.15197 0.08885 0.52735 0.0
C2931 C 0.09671 0.05437 0.48279 0.0
C2932 C 0.08819 0.05552 0.49884 0.0
C2933 C 0.11408 0.06605 0.48295 0.0
C2934 C 0.15527 0.09486 0.5151 0.0
H2935 H 0.22861 0.1376 0.47153 0.0
H2936 H 0.19947 0.11439 0.47164 0.0
H2937 H 0.18263 0.10829 0.52749 0.0
H2938 H 0.0911 0.07015 0.52757 0.0
H2939 H 0.12142 0.09081 0.52781 0.0
H2940 H 0.13753 0.09697 0.47133 0.0
C2941 C 0.20549 0.12522 0.48407 0.0
C2942 C 0.17289 0.10595 0.51515 0.0
C2943 C 0.22224 0.1383 0.48405 0.0
C2944 C 0.09733 0.06889 0.51499 0.0
C2945 C 0.11476 0.08062 0.51516 0.0
C2946 C 0.14727 0.09911 0.48362 0.0
C2947 C 0.19644 0.12641 0.49982 0.0
C2948 C 0.17794 0.11375 0.49944 0.0
C2949 C 0.12343 0.07926 0.49915 0.0
C2950 C 0.14219 0.09131 0.49934 0.0
H2951 H 0.22709 0.16512 0.5277 0.0
H2952 H 0.19822 0.14207 0.52801 0.0
H2953 H 0.1682 0.11625 0.47145 0.0
H2954 H 0.09004 0.04418 0.47013 0.0
H2955 H 0.12035 0.06438 0.47044 0.0
C2956 C 0.19593 0.95163 0.75746 0.0
C2957 C 0.18492 0.95345 0.77162 0.0
C2958 C 0.20538 0.93698 0.75555 0.0
C2959 C 0.21281 0.89324 0.77807 0.0
H2960 H 0.24474 0.8897 0.74118 0.0
C2961 C 0.24611 0.82796 0.76735 0.0
C2962 C 0.26387 0.83114 0.76303 0.0
C2963 C 0.23665 0.8424 0.76755 0.0
C2964 C 0.23599 0.89038 0.75176 0.0
H2965 H 0.17591 0.9402 0.79479 0.0
H2966 H 0.19166 0.91605 0.79185 0.0
H2967 H 0.22893 0.91469 0.74299 0.0
H2968 H 0.28493 0.8528 0.7549 0.0
H2969 H 0.26848 0.87738 0.75463 0.0
H2970 H 0.21999 0.86896 0.7868 0.0
C2971 C 0.19338 0.92543 0.78178 0.0
C2972 C 0.22661 0.905 0.75279 0.0
C2973 C 0.18402 0.93983 0.78359 0.0
C2974 C 0.27142 0.84944 0.75843 0.0
C2975 C 0.2618 0.86372 0.75819 0.0
C2976 C 0.22206 0.87864 0.77693 0.0
C2977 C 0.20446 0.92327 0.76771 0.0
C2978 C 0.21469 0.9071 0.7661 0.0
C2979 C 0.24419 0.86079 0.76303 0.0
C2980 C 0.234 0.87671 0.76381 0.0
H2981 H 0.19722 0.96147 0.74771 0.0
H2982 H 0.2134 0.93656 0.74432 0.0
H2983 H 0.20414 0.89329 0.78867 0.0
H2984 H 0.23954 0.81431 0.77102 0.0
H2985 H 0.22319 0.83896 0.77117 0.0
C2986 C 0.34574 0.96117 0.02698 0.0
C2987 C 0.34585 0.94318 0.03144 0.0
C2988 C 0.36193 0.97455 0.02663 0.0
C2989 C 0.41087 0.98435 0.03433 0.0
H2990 H 0.40642 0.99166 0.98273 0.0
C2991 C 0.46807 0.03064 0.00981 0.0
C2992 C 0.47559 0.02036 0.99649 0.0
C2993 C 0.45045 0.0233 0.01222 0.0
C2994 C 0.4077 0.98958 0.99708 0.0
H2995 H 0.36196 0.92641 0.04291 0.0
H2996 H 0.39037 0.94991 0.04249 0.0
H2997 H 0.37958 0.97706 0.99588 0.0
H2998 H 0.47031 0.99608 0.97338 0.0
H2999 H 0.43908 0.98283 0.97801 0.0
H3000 H 0.43904 0.99626 0.0353 0.0
C3001 C 0.37802 0.95356 0.03879 0.0
C3002 C 0.39249 0.98163 0.00471 0.0
C3003 C 0.36184 0.94011 0.03898 0.0
C3004 C 0.46473 0.00399 0.98395 0.0
C3005 C 0.44697 0.99649 0.98651 0.0
C3006 C 0.42603 0.99224 0.02671 0.0
C3007 C 0.37804 0.96992 0.03095 0.0
C3008 C 0.39399 0.97939 0.0235 0.0
C3009 C 0.4403 0.00557 0.00145 0.0
C3010 C 0.4244 0.99532 0.00825 0.0
H3011 H 0.33342 0.96386 0.02135 0.0
H3012 H 0.36182 0.98742 0.02101 0.0
H3013 H 0.4123 0.98225 0.04866 0.0
H3014 H 0.47612 0.04354 0.01937 0.0
H3015 H 0.44522 0.03056 0.02359 0.0
C3016 C 0.87894 0.55738 0.75265 0.0
C3017 C 0.89674 0.56495 0.76162 0.0
C3018 C 0.86854 0.56974 0.74899 0.0
C3019 C 0.86468 0.61846 0.76473 0.0
H3020 H 0.83921 0.61255 0.715 0.0
C3021 C 0.83584 0.6778 0.74407 0.0
C3022 C 0.81772 0.67183 0.73596 0.0
C3023 C 0.84539 0.66424 0.74562 0.0
C3024 C 0.84616 0.61425 0.72897 0.0
H3025 H 0.91757 0.5912 0.77408 0.0
H3026 H 0.89932 0.61281 0.76789 0.0
H3027 H 0.85538 0.58912 0.72177 0.0
H3028 H 0.79579 0.64709 0.72202 0.0
H3029 H 0.81263 0.62344 0.72449 0.0
H3030 H 0.85553 0.64351 0.772 0.0
C3031 C 0.89346 0.59735 0.76362 0.0
C3032 C 0.85533 0.60085 0.73285 0.0
C3033 C 0.90393 0.58502 0.76702 0.0
C3034 C 0.80975 0.65217 0.72826 0.0
C3035 C 0.81936 0.63861 0.72971 0.0
C3036 C 0.85553 0.6318 0.76087 0.0
C3037 C 0.87571 0.58982 0.75452 0.0
C3038 C 0.86489 0.60305 0.75069 0.0
C3039 C 0.83706 0.64447 0.73897 0.0
C3040 C 0.84643 0.62999 0.74289 0.0
H3041 H 0.87308 0.54192 0.74833 0.0
H3042 H 0.85485 0.56361 0.74204 0.0
H3043 H 0.87166 0.62021 0.7787 0.0
H3044 H 0.84248 0.6929 0.74972 0.0
H3045 H 0.85919 0.66915 0.75244 0.0
C3046 C 0.8397 0.66383 0.01065 0.0
C3047 C 0.82427 0.65196 0.99871 0.0
C3048 C 0.85452 0.65681 0.01485 0.0
C3049 C 0.87399 0.61648 0.99777 0.0
H3050 H 0.90286 0.63161 0.04671 0.0
C3051 C 0.92085 0.5734 0.02174 0.0
C3052 C 0.93904 0.58375 0.02642 0.0
C3053 C 0.90765 0.58312 0.02013 0.0
C3054 C 0.89495 0.62739 0.03297 0.0
H3055 H 0.81225 0.62327 0.98217 0.0
H3056 H 0.83755 0.61087 0.98993 0.0
H3057 H 0.87811 0.64579 0.04006 0.0
H3058 H 0.9577 0.61234 0.03403 0.0
H3059 H 0.93432 0.62951 0.03183 0.0
H3060 H 0.89038 0.59757 0.99095 0.0
C3061 C 0.8386 0.62581 0.99563 0.0
C3062 C 0.88081 0.63555 0.02908 0.0
C3063 C 0.82394 0.63289 0.99127 0.0
C3064 C 0.94374 0.60408 0.03039 0.0
C3065 C 0.93041 0.61385 0.02918 0.0
C3066 C 0.88784 0.60814 0.00175 0.0
C3067 C 0.85421 0.63768 0.00734 0.0
C3068 C 0.86996 0.62999 0.01147 0.0
C3069 C 0.9123 0.60341 0.02349 0.0
C3070 C 0.89832 0.61331 0.01942 0.0
H3071 H 0.84044 0.67864 0.01659 0.0
H3072 H 0.8663 0.66649 0.02374 0.0
H3073 H 0.86643 0.61224 0.98386 0.0
H3074 H 0.91691 0.55775 0.01847 0.0
H3075 H 0.89378 0.57474 0.01579 0.0
C3076 C 0.20367 0.07664 0.7786 0.0
C3077 C 0.18622 0.06935 0.76849 0.0
C3078 C 0.21434 0.09564 0.7783 0.0
C3079 C 0.21771 0.1376 0.75194 0.0
H3080 H 0.24856 0.16795 0.7969 0.0
C3081 C 0.25552 0.22082 0.75779 0.0
C3082 C 0.27306 0.22756 0.76778 0.0
C3083 C 0.24441 0.20195 0.75796 0.0
C3084 C 0.2402 0.15977 0.78405 0.0
H3085 H 0.16688 0.07661 0.74962 0.0
H3086 H 0.18514 0.10886 0.7489 0.0
H3087 H 0.23176 0.13466 0.79649 0.0
H3088 H 0.29221 0.21933 0.78598 0.0
H3089 H 0.27322 0.18738 0.78656 0.0
H3090 H 0.22616 0.16277 0.73952 0.0
C3091 C 0.19083 0.10021 0.75715 0.0
C3092 C 0.23048 0.14039 0.78382 0.0
C3093 C 0.18019 0.08151 0.75765 0.0
C3094 C 0.27879 0.21496 0.77823 0.0
C3095 C 0.26773 0.1964 0.7786 0.0
C3096 C 0.22744 0.157 0.75218 0.0
C3097 C 0.20808 0.10795 0.76766 0.0
C3098 C 0.21901 0.12877 0.76775 0.0
C3099 C 0.25035 0.18924 0.76831 0.0
C3100 C 0.23902 0.16857 0.76821 0.0
H3101 H 0.20884 0.06797 0.78726 0.0
H3102 H 0.22755 0.10068 0.7865 0.0
H3103 H 0.20935 0.1294 0.73909 0.0
H3104 H 0.25061 0.22979 0.74929 0.0
H3105 H 0.23114 0.19731 0.74988 0.0
C3106 C 0.39795 0.98244 0.27513 0.0
C3107 C 0.40776 0.98005 0.26023 0.0
C3108 C 0.38207 0.96871 0.2758 0.0
C3109 C 0.35967 0.91772 0.25777 0.0
H3110 H 0.31903 0.92981 0.27889 0.0
C3111 C 0.30069 0.85828 0.25464 0.0
C3112 C 0.30377 0.85207 0.27154 0.0
C3113 C 0.30678 0.87773 0.25382 0.0
C3114 C 0.33028 0.92644 0.27286 0.0
H3115 H 0.40893 0.96211 0.23422 0.0
H3116 H 0.38053 0.93806 0.23487 0.0
H3117 H 0.3445 0.95617 0.27477 0.0
H3118 H 0.31254 0.86135 0.3014 0.0
H3119 H 0.32403 0.89544 0.2997 0.0
H3120 H 0.34555 0.88814 0.25583 0.0
C3121 C 0.38533 0.95035 0.24628 0.0
C3122 C 0.34484 0.94135 0.27059 0.0
C3123 C 0.40148 0.964 0.2458 0.0
C3124 C 0.31058 0.86578 0.28809 0.0
C3125 C 0.31677 0.88528 0.28722 0.0
C3126 C 0.34515 0.90299 0.25977 0.0
C3127 C 0.37564 0.95246 0.26144 0.0
C3128 C 0.35966 0.93705 0.26301 0.0
C3129 C 0.3161 0.891 0.26985 0.0
C3130 C 0.33043 0.90725 0.26726 0.0
H3131 H 0.40283 0.99479 0.28651 0.0
H3132 H 0.37519 0.97054 0.28785 0.0
H3133 H 0.37108 0.9139 0.25253 0.0
H3134 H 0.29484 0.84805 0.24178 0.0
H3135 H 0.30625 0.882 0.2403 0.0
C3136 C 0.57082 0.35264 0.56676 0.0
C3137 C 0.5714 0.35192 0.58587 0.0
C3138 C 0.5657 0.36744 0.5597 0.0
C3139 C 0.56482 0.41766 0.5744 0.0
H3140 H 0.53742 0.40932 0.52524 0.0
C3141 C 0.56413 0.48086 0.53674 0.0
C3142 C 0.54777 0.48118 0.527 0.0
C3143 C 0.56574 0.46446 0.54357 0.0
C3144 C 0.54494 0.4119 0.53906 0.0
H3145 H 0.56661 0.36576 0.61252 0.0
H3146 H 0.55796 0.39207 0.60026 0.0
H3147 H 0.54127 0.38163 0.53842 0.0
H3148 H 0.5204 0.46416 0.51631 0.0
H3149 H 0.52322 0.43548 0.52832 0.0
H3150 H 0.56839 0.44785 0.57517 0.0
C3151 C 0.56146 0.38112 0.59073 0.0
C3152 C 0.54729 0.39603 0.54656 0.0
C3153 C 0.56632 0.36604 0.59775 0.0
C3154 C 0.53319 0.46444 0.5238 0.0
C3155 C 0.53482 0.44796 0.53062 0.0
C3156 C 0.56247 0.43349 0.56693 0.0
C3157 C 0.56126 0.38207 0.57162 0.0
C3158 C 0.55744 0.39874 0.56424 0.0
C3159 C 0.55105 0.4479 0.54088 0.0
C3160 C 0.55272 0.43085 0.54906 0.0
H3161 H 0.57443 0.34174 0.55722 0.0
H3162 H 0.56582 0.36775 0.54497 0.0
H3163 H 0.57288 0.42031 0.58794 0.0
H3164 H 0.5757 0.49341 0.53943 0.0
H3165 H 0.57856 0.4648 0.55103 0.0
C3166 C 0.45037 0.7803 0.38607 0.0
C3167 C 0.45705 0.76436 0.38081 0.0
C3168 C 0.4362 0.78335 0.37483 0.0
C3169 C 0.39685 0.75717 0.34026 0.0
H3170 H 0.39664 0.80796 0.33062 0.0
C3171 C 0.34161 0.76701 0.28788 0.0
C3172 C 0.33527 0.78346 0.29126 0.0
C3173 C 0.35637 0.76536 0.29925 0.0
C3174 C 0.39633 0.79374 0.3334 0.0
H3175 H 0.4542 0.73909 0.35962 0.0
H3176 H 0.42893 0.7441 0.33996 0.0
H3177 H 0.42302 0.80372 0.34859 0.0
H3178 H 0.33952 0.81117 0.30942 0.0
H3179 H 0.36542 0.80824 0.3297 0.0
H3180 H 0.37012 0.74717 0.32551 0.0
C3181 C 0.43487 0.75439 0.35276 0.0
C3182 C 0.41153 0.79128 0.34362 0.0
C3183 C 0.4494 0.75158 0.36389 0.0
C3184 C 0.34407 0.7983 0.30649 0.0
C3185 C 0.35898 0.79664 0.31799 0.0
C3186 C 0.38163 0.75965 0.33022 0.0
C3187 C 0.42803 0.77028 0.35818 0.0
C3188 C 0.41203 0.77292 0.34702 0.0
C3189 C 0.3653 0.78007 0.31453 0.0
C3190 C 0.38119 0.77791 0.32642 0.0
H3191 H 0.45604 0.79038 0.39908 0.0
H3192 H 0.43122 0.79561 0.37952 0.0
H3193 H 0.3966 0.74294 0.343 0.0
H3194 H 0.33523 0.7553 0.27624 0.0
H3195 H 0.36096 0.75259 0.29578 0.0
C3196 C 0.06847 0.74634 0.05643 0.0
C3197 C 0.06257 0.75236 0.07333 0.0
C3198 C 0.06459 0.72677 0.04874 0.0
C3199 C 0.03683 0.67822 0.04916 0.0
H3200 H 0.0805 0.66327 0.04214 0.0
C3201 C 0.03732 0.59915 0.04018 0.0
C3202 C 0.04809 0.59262 0.02785 0.0
C3203 C 0.03884 0.61877 0.04495 0.0
C3204 C 0.06813 0.66717 0.04367 0.0
H3205 H 0.04664 0.74276 0.09455 0.0
H3206 H 0.03974 0.70838 0.08093 0.0
H3207 H 0.08189 0.69732 0.05046 0.0
H3208 H 0.06895 0.60094 0.01086 0.0
H3209 H 0.07112 0.63548 0.01845 0.0
H3210 H 0.02297 0.64817 0.04209 0.0
C3211 C 0.04746 0.71889 0.07377 0.0
C3212 C 0.06894 0.68666 0.04849 0.0
C3213 C 0.05141 0.73853 0.08155 0.0
C3214 C 0.06064 0.60587 0.02051 0.0
C3215 C 0.06187 0.62556 0.02492 0.0
C3216 C 0.03596 0.65872 0.04405 0.0
C3217 C 0.05463 0.71289 0.05772 0.0
C3218 C 0.05333 0.69232 0.05144 0.0
C3219 C 0.05083 0.63219 0.03706 0.0
C3220 C 0.05165 0.65296 0.04151 0.0
H3221 H 0.07687 0.75667 0.04959 0.0
H3222 H 0.06998 0.72244 0.03616 0.0
H3223 H 0.02463 0.6823 0.05127 0.0
H3224 H 0.02771 0.58904 0.04615 0.0
H3225 H 0.03056 0.62338 0.0548 0.0
C3226 C 0.06033 0.26513 0.87161 0.0
C3227 C 0.05851 0.28069 0.88455 0.0
C3228 C 0.07612 0.26661 0.86347 0.0
C3229 C 0.12426 0.29448 0.86963 0.0
H3230 H 0.12007 0.274 0.81675 0.0
C3231 C 0.18501 0.30504 0.82718 0.0
C3232 C 0.18557 0.28845 0.81473 0.0
C3233 C 0.16995 0.30502 0.83635 0.0
C3234 C 0.12151 0.27966 0.83157 0.0
H3235 H 0.0721 0.30991 0.8993 0.0
H3236 H 0.09938 0.31244 0.8851 0.0
H3237 H 0.09307 0.27158 0.83152 0.0
H3238 H 0.17067 0.25905 0.80197 0.0
H3239 H 0.14466 0.259 0.81784 0.0
H3240 H 0.15281 0.30253 0.86958 0.0
C3241 C 0.0887 0.29907 0.88128 0.0
C3242 C 0.106 0.27821 0.84006 0.0
C3243 C 0.07293 0.29764 0.8893 0.0
C3244 C 0.17078 0.27198 0.81163 0.0
C3245 C 0.15575 0.27202 0.82059 0.0
C3246 C 0.13983 0.29593 0.86111 0.0
C3247 C 0.0905 0.28363 0.86818 0.0
C3248 C 0.10714 0.28542 0.85923 0.0
C3249 C 0.15505 0.28853 0.83298 0.0
C3250 C 0.13863 0.28831 0.84201 0.0
H3251 H 0.04957 0.25183 0.86773 0.0
H3252 H 0.07713 0.25433 0.85361 0.0
H3253 H 0.12566 0.30008 0.88446 0.0
H3254 H 0.19624 0.31793 0.82989 0.0
H3255 H 0.16981 0.318 0.84578 0.0
C3256 C 0.57492 0.77365 0.93372 0.0
C3257 C 0.57772 0.77429 0.91522 0.0
C3258 C 0.56888 0.75591 0.93917 0.0
C3259 C 0.56471 0.70436 0.92773 0.0
H3260 H 0.52425 0.70016 0.95547 0.0
C3261 C 0.53524 0.63551 0.95596 0.0
C3262 C 0.53342 0.63915 0.97502 0.0
C3263 C 0.53761 0.65044 0.94578 0.0
C3264 C 0.53555 0.7011 0.94775 0.0
H3265 H 0.57695 0.75745 0.8879 0.0
H3266 H 0.5668 0.72611 0.89759 0.0
H3267 H 0.53638 0.72982 0.94402 0.0
H3268 H 0.53176 0.66105 0.99805 0.0
H3269 H 0.53583 0.68691 0.98042 0.0
H3270 H 0.56438 0.67596 0.9321 0.0
C3271 C 0.56931 0.73929 0.90785 0.0
C3272 C 0.5425 0.71807 0.94125 0.0
C3273 C 0.5752 0.7571 0.90235 0.0
C3274 C 0.5329 0.65768 0.98335 0.0
C3275 C 0.53524 0.67254 0.97321 0.0
C3276 C 0.55784 0.6874 0.93437 0.0
C3277 C 0.56557 0.7386 0.92616 0.0
C3278 C 0.55741 0.72001 0.9316 0.0
C3279 C 0.53815 0.66924 0.95447 0.0
C3280 C 0.54347 0.6858 0.94486 0.0
H3281 H 0.5765 0.78686 0.94368 0.0
H3282 H 0.56631 0.75573 0.95343 0.0
H3283 H 0.5762 0.70554 0.92029 0.0
H3284 H 0.53537 0.62127 0.94907 0.0
H3285 H 0.53951 0.6474 0.93127 0.0
C3286 C 0.05097 0.77785 0.6855 0.0
C3287 C 0.04355 0.75871 0.67602 0.0
C3288 C 0.06942 0.78464 0.69162 0.0
C3289 C 0.11237 0.774 0.68569 0.0
H3290 H 0.12202 0.78387 0.73985 0.0
C3291 C 0.16507 0.74758 0.72272 0.0
C3292 C 0.17724 0.76029 0.73742 0.0
C3293 C 0.15005 0.75245 0.71555 0.0
C3294 C 0.11967 0.78163 0.72474 0.0
H3295 H 0.04912 0.7321 0.66407 0.0
H3296 H 0.08129 0.74398 0.67436 0.0
H3297 H 0.09335 0.78558 0.72444 0.0
H3298 H 0.18329 0.78749 0.75689 0.0
H3299 H 0.15659 0.79611 0.74428 0.0
H3300 H 0.13813 0.76874 0.68593 0.0
C3301 C 0.07304 0.75371 0.67732 0.0
C3302 C 0.10337 0.78273 0.71594 0.0
C3303 C 0.05467 0.74681 0.67169 0.0
C3304 C 0.17384 0.7775 0.7456 0.0
C3305 C 0.15875 0.78243 0.73836 0.0
C3306 C 0.12862 0.77292 0.69445 0.0
C3307 C 0.08049 0.77249 0.6877 0.0
C3308 C 0.09929 0.77788 0.6964 0.0
C3309 C 0.14711 0.7702 0.72289 0.0
C3310 C 0.13194 0.7757 0.71401 0.0
H3311 H 0.04245 0.78721 0.68879 0.0
H3312 H 0.07499 0.79913 0.69973 0.0
H3313 H 0.10947 0.77033 0.67057 0.0
H3314 H 0.16756 0.73422 0.71635 0.0
H3315 H 0.14093 0.74252 0.70397 0.0
C3316 C 0.08008 0.3886 0.39491 0.0
C3317 C 0.09312 0.38164 0.40402 0.0
C3318 C 0.07669 0.40563 0.40307 0.0
C3319 C 0.07831 0.42783 0.45106 0.0
H3320 H 0.05615 0.46333 0.43016 0.0
C3321 C 0.05951 0.48712 0.49732 0.0
C3322 C 0.04268 0.49014 0.4929 0.0
C3323 C 0.06577 0.47493 0.4848 0.0
C3324 C 0.06215 0.45331 0.43605 0.0
H3325 H 0.11507 0.38853 0.42671 0.0
H3326 H 0.10966 0.41885 0.44067 0.0
H3327 H 0.07049 0.4432 0.41017 0.0
H3328 H 0.01909 0.48307 0.47205 0.0
H3329 H 0.02999 0.461 0.45 0.0
H3330 H 0.06988 0.43763 0.47679 0.0
C3331 C 0.10154 0.41072 0.42765 0.0
C3332 C 0.07049 0.44197 0.42472 0.0
C3333 C 0.10482 0.39353 0.41955 0.0
C3334 C 0.0321 0.48077 0.47572 0.0
C3335 C 0.03835 0.46835 0.46313 0.0
C3336 C 0.07006 0.43909 0.4623 0.0
C3337 C 0.08648 0.41599 0.42032 0.0
C3338 C 0.07888 0.42932 0.43223 0.0
C3339 C 0.05523 0.46533 0.46769 0.0
C3340 C 0.06216 0.45212 0.45499 0.0
H3341 H 0.07108 0.37972 0.38268 0.0
H3342 H 0.06512 0.40937 0.39696 0.0
H3343 H 0.08393 0.41762 0.4571 0.0
H3344 H 0.06808 0.49447 0.51034 0.0
H3345 H 0.07899 0.47316 0.48845 0.0
C3346 C 0.43945 0.26154 0.17114 0.0
C3347 C 0.44485 0.24535 0.17473 0.0
C3348 C 0.42433 0.26516 0.17796 0.0
C3349 C 0.38511 0.24486 0.1998 0.0
H3350 H 0.39977 0.29464 0.23354 0.0
C3351 C 0.34262 0.26087 0.25484 0.0
C3352 C 0.33776 0.278 0.25419 0.0
C3353 C 0.35738 0.25794 0.24679 0.0
C3354 C 0.39549 0.28076 0.22411 0.0
H3355 H 0.43787 0.21921 0.18641 0.0
H3356 H 0.41171 0.22572 0.19848 0.0
H3357 H 0.41919 0.28675 0.21113 0.0
H3358 H 0.34556 0.30647 0.24686 0.0
H3359 H 0.37085 0.30109 0.2323 0.0
H3360 H 0.36143 0.2388 0.21274 0.0
C3361 C 0.41908 0.23558 0.19047 0.0
C3362 C 0.40644 0.27636 0.21118 0.0
C3363 C 0.4342 0.23203 0.18381 0.0
C3364 C 0.34891 0.293 0.24733 0.0
C3365 C 0.36348 0.28998 0.23908 0.0
C3366 C 0.37411 0.24929 0.21264 0.0
C3367 C 0.41449 0.25252 0.18821 0.0
C3368 C 0.40142 0.25829 0.19917 0.0
C3369 C 0.36718 0.27204 0.23786 0.0
C3370 C 0.37936 0.26716 0.22507 0.0
H3371 H 0.44731 0.27183 0.16388 0.0
H3372 H 0.42081 0.27823 0.176 0.0
H3373 H 0.38108 0.23083 0.19061 0.0
H3374 H 0.33443 0.24929 0.26049 0.0
H3375 H 0.3604 0.2442 0.24645 0.0
C3376 C 0.60932 0.51713 0.32367 0.0
C3377 C 0.62442 0.51009 0.32074 0.0
C3378 C 0.60215 0.5179 0.34071 0.0
C3379 C 0.60286 0.50188 0.38828 0.0
H3380 H 0.57979 0.54258 0.40003 0.0
C3381 C 0.576 0.5186 0.46179 0.0
C3382 C 0.56012 0.52464 0.46173 0.0
C3383 C 0.58454 0.51659 0.44538 0.0
C3384 C 0.58594 0.5309 0.39713 0.0
H3385 H 0.64314 0.49757 0.33463 0.0
H3386 H 0.63065 0.49885 0.36449 0.0
H3387 H 0.5927 0.53911 0.3713 0.0
H3388 H 0.54108 0.53309 0.44364 0.0
H3389 H 0.55588 0.53033 0.41593 0.0
H3390 H 0.59619 0.494 0.41456 0.0
C3391 C 0.6243 0.5039 0.35324 0.0
C3392 C 0.59346 0.5288 0.38025 0.0
C3393 C 0.63157 0.50309 0.33589 0.0
C3394 C 0.55343 0.52881 0.44466 0.0
C3395 C 0.56204 0.52716 0.42851 0.0
C3396 C 0.59538 0.50407 0.40534 0.0
C3397 C 0.60959 0.51179 0.35625 0.0
C3398 C 0.60201 0.51411 0.37513 0.0
C3399 C 0.57774 0.52079 0.42824 0.0
C3400 C 0.58657 0.51858 0.41018 0.0
H3401 H 0.60293 0.52247 0.31264 0.0
H3402 H 0.59055 0.52342 0.34153 0.0
H3403 H 0.60904 0.49023 0.38529 0.0
H3404 H 0.58146 0.51467 0.4743 0.0
H3405 H 0.59653 0.51168 0.44618 0.0
C3406 C 0.28859 0.86243 0.04919 0.0
C3407 C 0.29687 0.87716 0.04013 0.0
C3408 C 0.29283 0.86445 0.06852 0.0
C3409 C 0.3083 0.88541 0.1134 0.0
H3410 H 0.34848 0.86296 0.11341 0.0
C3411 C 0.33506 0.86406 0.17944 0.0
C3412 C 0.3344 0.84435 0.17589 0.0
C3413 C 0.33529 0.87419 0.16475 0.0
C3414 C 0.33746 0.86949 0.1137 0.0
H3415 H 0.3149 0.9058 0.04426 0.0
H3416 H 0.3229 0.90911 0.07759 0.0
H3417 H 0.33501 0.869 0.08427 0.0
H3418 H 0.33494 0.82024 0.15461 0.0
H3419 H 0.3352 0.83765 0.12922 0.0
H3420 H 0.30991 0.8848 0.14258 0.0
C3421 C 0.3127 0.89639 0.06996 0.0
C3422 C 0.32979 0.87291 0.09708 0.0
C3423 C 0.30814 0.89449 0.0508 0.0
C3424 C 0.33571 0.83548 0.15784 0.0
C3425 C 0.33586 0.84552 0.14322 0.0
C3426 C 0.31595 0.88194 0.1301 0.0
C3427 C 0.30564 0.88104 0.07873 0.0
C3428 C 0.31483 0.88024 0.0968 0.0
C3429 C 0.33479 0.86469 0.14638 0.0
C3430 C 0.33012 0.87319 0.13022 0.0
H3431 H 0.27999 0.84884 0.0412 0.0
H3432 H 0.28743 0.85237 0.07517 0.0
H3433 H 0.29683 0.89125 0.1133 0.0
H3434 H 0.33427 0.87125 0.19333 0.0
H3435 H 0.33476 0.88906 0.16758 0.0
C3436 C 0.94635 0.54098 0.84234 0.0
C3437 C 0.94418 0.52472 0.82842 0.0
C3438 C 0.95174 0.54018 0.86085 0.0
C3439 C 0.98146 0.51688 0.88152 0.0
H3440 H 0.97229 0.54136 0.92916 0.0
C3441 C 0.01729 0.51448 0.95298 0.0
C3442 C 0.02548 0.53271 0.96408 0.0
C3443 C 0.00601 0.51287 0.93659 0.0
C3444 C 0.97493 0.53457 0.91586 0.0
H3445 H 0.94257 0.49415 0.82265 0.0
H3446 H 0.9519 0.49277 0.85491 0.0
H3447 H 0.95142 0.53819 0.90076 0.0
H3448 H 0.02853 0.56346 0.96757 0.0
H3449 H 0.00804 0.56059 0.9389 0.0
H3450 H 0.00502 0.51342 0.89652 0.0
C3451 C 0.94995 0.50616 0.85166 0.0
C3452 C 0.96304 0.5327 0.89978 0.0
C3453 C 0.94462 0.50697 0.8333 0.0
C3454 C 0.02237 0.54935 0.95888 0.0
C3455 C 0.01067 0.54769 0.94273 0.0
C3456 C 0.99325 0.51867 0.89756 0.0
C3457 C 0.95481 0.52309 0.86525 0.0
C3458 C 0.96625 0.52383 0.88255 0.0
C3459 C 0.00247 0.52944 0.93157 0.0
C3460 C 0.99005 0.52759 0.91475 0.0
H3461 H 0.94586 0.55471 0.83874 0.0
H3462 H 0.95532 0.55336 0.87126 0.0
H3463 H 0.98447 0.51049 0.86823 0.0
H3464 H 0.01967 0.50154 0.95697 0.0
H3465 H 0.99975 0.4987 0.92805 0.0
C3466 C 0.30104 0.22103 0.56262 0.0
C3467 C 0.29423 0.23101 0.55002 0.0
C3468 C 0.3026 0.22751 0.58188 0.0
C3469 C 0.28004 0.25341 0.61397 0.0
H3470 H 0.31673 0.25023 0.65204 0.0
C3471 C 0.27842 0.27628 0.69301 0.0
C3472 C 0.28541 0.26599 0.70506 0.0
C3473 C 0.27971 0.27254 0.67394 0.0
C3474 C 0.30623 0.25094 0.64157 0.0
H3475 H 0.28565 0.25671 0.54766 0.0
H3476 H 0.28865 0.26813 0.58122 0.0
H3477 H 0.32087 0.24428 0.61927 0.0
H3478 H 0.29803 0.24297 0.70682 0.0
H3479 H 0.29943 0.2357 0.67347 0.0
H3480 H 0.26513 0.25951 0.63609 0.0
C3481 C 0.29227 0.25502 0.57622 0.0
C3482 C 0.3087 0.24767 0.62282 0.0
C3483 C 0.29066 0.24854 0.55701 0.0
C3484 C 0.29272 0.2512 0.69772 0.0
C3485 C 0.29369 0.24721 0.67868 0.0
C3486 C 0.2775 0.25653 0.63268 0.0
C3487 C 0.29744 0.2441 0.58882 0.0
C3488 C 0.2956 0.24882 0.60883 0.0
C3489 C 0.28775 0.25824 0.66663 0.0
C3490 C 0.2905 0.25521 0.64671 0.0
H3491 H 0.30395 0.2075 0.55768 0.0
H3492 H 0.30665 0.2188 0.59126 0.0
H3493 H 0.26953 0.25402 0.60345 0.0
H3494 H 0.2729 0.28788 0.69848 0.0
H3495 H 0.2751 0.2814 0.66509 0.0
C3496 C 0.62697 0.49806 0.19858 0.0
C3497 C 0.61905 0.504 0.21425 0.0
C3498 C 0.61991 0.4991 0.18015 0.0
C3499 C 0.59289 0.52632 0.15544 0.0
H3500 H 0.58666 0.48655 0.11179 0.0
C3501 C 0.56081 0.53682 0.08285 0.0
C3502 C 0.56113 0.52458 0.06602 0.0
C3503 C 0.56759 0.53367 0.10041 0.0
C3504 C 0.58844 0.49819 0.12352 0.0
H3505 H 0.59665 0.51482 0.22187 0.0
H3506 H 0.58493 0.51677 0.1906 0.0
H3507 H 0.59921 0.48215 0.14193 0.0
H3508 H 0.56928 0.49933 0.05498 0.0
H3509 H 0.58182 0.49439 0.08479 0.0
H3510 H 0.58299 0.54285 0.13759 0.0
C3511 C 0.59668 0.5115 0.19237 0.0
C3512 C 0.59573 0.49548 0.14112 0.0
C3513 C 0.60347 0.51022 0.21052 0.0
C3514 C 0.56863 0.50911 0.0675 0.0
C3515 C 0.57583 0.50621 0.085 0.0
C3516 C 0.58601 0.52925 0.13786 0.0
C3517 C 0.6049 0.50639 0.17678 0.0
C3518 C 0.59794 0.50941 0.15751 0.0
C3519 C 0.57553 0.51837 0.1021 0.0
C3520 C 0.58336 0.51521 0.12128 0.0
H3521 H 0.639 0.49335 0.2006 0.0
H3522 H 0.6267 0.49492 0.16862 0.0
H3523 H 0.5945 0.53762 0.16752 0.0
H3524 H 0.55503 0.54881 0.08252 0.0
H3525 H 0.5663 0.5434 0.11259 0.0
C3526 C 0.30105 0.87297 0.95759 0.0
C3527 C 0.30828 0.89294 0.95963 0.0
C3528 C 0.30159 0.86088 0.94112 0.0
C3529 C 0.32404 0.8584 0.89924 0.0
H3530 H 0.28016 0.81822 0.87811 0.0
C3531 C 0.30556 0.81903 0.82254 0.0
C3532 C 0.29837 0.79888 0.81936 0.0
C3533 C 0.30945 0.8297 0.84065 0.0
C3534 C 0.29257 0.82918 0.88404 0.0
H3535 H 0.32228 0.9163 0.94701 0.0
H3536 H 0.323 0.89508 0.91772 0.0
H3537 H 0.28141 0.83909 0.90789 0.0
H3538 H 0.28992 0.77392 0.83235 0.0
H3539 H 0.2963 0.79278 0.8642 0.0
H3540 H 0.33483 0.84882 0.87479 0.0
C3541 C 0.31697 0.88874 0.92881 0.0
C3542 C 0.29331 0.84111 0.90103 0.0
C3543 C 0.31638 0.90085 0.94534 0.0
C3544 C 0.29554 0.78945 0.83452 0.0
C3545 C 0.29915 0.80017 0.85265 0.0
C3546 C 0.32323 0.84654 0.8821 0.0
C3547 C 0.30943 0.86866 0.92653 0.0
C3548 C 0.30902 0.85584 0.90876 0.0
C3549 C 0.30589 0.82037 0.85575 0.0
C3550 C 0.30746 0.83191 0.87442 0.0
H3551 H 0.29503 0.86677 0.96877 0.0
H3552 H 0.29594 0.84544 0.93983 0.0
H3553 H 0.33637 0.86954 0.90503 0.0
H3554 H 0.30758 0.82666 0.81103 0.0
H3555 H 0.31438 0.84531 0.84278 0.0
C3556 C 0.95851 0.51056 0.73161 0.0
C3557 C 0.95828 0.52896 0.74068 0.0
C3558 C 0.95052 0.50346 0.71322 0.0
C3559 C 0.95358 0.52609 0.67522 0.0
H3560 H 0.93803 0.47326 0.64753 0.0
C3561 C 0.99271 0.50164 0.62169 0.0
C3562 C 0.98428 0.49994 0.60343 0.0
C3563 C 0.9826 0.50046 0.63634 0.0
C3564 C 0.94211 0.48809 0.65501 0.0
H3565 H 0.94808 0.55358 0.73828 0.0
H3566 H 0.93524 0.54174 0.70527 0.0
H3567 H 0.92785 0.48124 0.67782 0.0
H3568 H 0.9586 0.49294 0.58575 0.0
H3569 H 0.94085 0.49084 0.61168 0.0
H3570 H 0.96913 0.53261 0.65339 0.0
C3571 C 0.94103 0.53256 0.71276 0.0
C3572 C 0.9362 0.49269 0.67216 0.0
C3573 C 0.94853 0.53941 0.73151 0.0
C3574 C 0.9654 0.49457 0.59977 0.0
C3575 C 0.95525 0.4933 0.6145 0.0
C3576 C 0.95959 0.52145 0.6583 0.0
C3577 C 0.94293 0.51502 0.70322 0.0
C3578 C 0.94265 0.51155 0.68281 0.0
C3579 C 0.96396 0.49738 0.6329 0.0
C3580 C 0.95455 0.5023 0.64857 0.0
H3581 H 0.96573 0.50199 0.73836 0.0
H3582 H 0.95229 0.48994 0.70626 0.0
H3583 H 0.95908 0.54064 0.68322 0.0
H3584 H 0.00722 0.50587 0.62497 0.0
H3585 H 0.98949 0.5036 0.65053 0.0
C3586 C 0.26997 0.21124 0.43375 0.0
C3587 C 0.28464 0.21236 0.44704 0.0
C3588 C 0.27263 0.21697 0.41673 0.0
C3589 C 0.30366 0.24957 0.39453 0.0
H3590 H 0.27504 0.21788 0.34869 0.0
C3591 C 0.30972 0.27317 0.32305 0.0
C3592 C 0.29386 0.26911 0.31045 0.0
C3593 C 0.30975 0.26544 0.33934 0.0
C3594 C 0.28298 0.22704 0.36136 0.0
H3595 H 0.31365 0.22038 0.45302 0.0
H3596 H 0.31841 0.23094 0.42305 0.0
H3597 H 0.27357 0.20564 0.37774 0.0
H3598 H 0.26558 0.25372 0.30488 0.0
H3599 H 0.26544 0.24052 0.33353 0.0
H3600 H 0.31258 0.27131 0.37835 0.0
C3601 C 0.30483 0.22534 0.42587 0.0
C3602 C 0.28224 0.21994 0.37799 0.0
C3603 C 0.30214 0.21917 0.44289 0.0
C3604 C 0.27803 0.25697 0.3143 0.0
C3605 C 0.27801 0.24936 0.3307 0.0
C3606 C 0.30428 0.25679 0.3779 0.0
C3607 C 0.29005 0.22429 0.41265 0.0
C3608 C 0.29241 0.23119 0.39478 0.0
C3609 C 0.29387 0.25355 0.34349 0.0
C3610 C 0.29379 0.24568 0.36111 0.0
H3611 H 0.25634 0.20607 0.43661 0.0
H3612 H 0.261 0.21619 0.40694 0.0
H3613 H 0.31146 0.25866 0.40733 0.0
H3614 H 0.32216 0.28244 0.32037 0.0
H3615 H 0.32228 0.26873 0.34862 0.0
C3616 C 0.31655 0.59531 0.50563 0.0
C3617 C 0.31908 0.61515 0.5117 0.0
C3618 C 0.33109 0.58837 0.5016 0.0
C3619 C 0.37584 0.60266 0.48812 0.0
H3620 H 0.38209 0.55829 0.50824 0.0
C3621 C 0.43965 0.57498 0.48956 0.0
C3622 C 0.43638 0.55478 0.4852 0.0
C3623 C 0.42531 0.58317 0.4905 0.0
C3624 C 0.38038 0.57056 0.50235 0.0
H3625 H 0.33853 0.6434 0.5183 0.0
H3626 H 0.36403 0.63119 0.51121 0.0
H3627 H 0.35692 0.57095 0.51511 0.0
H3628 H 0.41564 0.52743 0.4777 0.0
H3629 H 0.39078 0.54173 0.47909 0.0
H3630 H 0.39952 0.60224 0.47547 0.0
C3631 C 0.35083 0.62106 0.50958 0.0
C3632 C 0.36602 0.57778 0.50629 0.0
C3633 C 0.33633 0.62798 0.51385 0.0
C3634 C 0.4186 0.54304 0.4809 0.0
C3635 C 0.40437 0.55118 0.48187 0.0
C3636 C 0.39029 0.59541 0.48417 0.0
C3637 C 0.34829 0.60122 0.50339 0.0
C3638 C 0.3636 0.59382 0.49916 0.0
C3639 C 0.40761 0.57123 0.48723 0.0
C3640 C 0.39255 0.57922 0.49118 0.0
H3641 H 0.30333 0.58519 0.50385 0.0
H3642 H 0.32883 0.573 0.49677 0.0
H3643 H 0.37409 0.61498 0.48236 0.0
H3644 H 0.45326 0.58435 0.49273 0.0
H3645 H 0.42807 0.5987 0.49468 0.0
C3646 C 0.86432 0.92242 0.54466 0.0
C3647 C 0.84991 0.91776 0.53018 0.0
C3648 C 0.88107 0.9343 0.54286 0.0
C3649 C 0.90543 0.96718 0.51331 0.0
H3650 H 0.9464 0.95411 0.53672 0.0
C3651 C 0.98002 1.00086 0.5031 0.0
C3652 C 0.99185 0.00844 0.51993 0.0
C3653 C 0.96245 0.98953 0.50312 0.0
C3654 C 0.9351 0.95797 0.53014 0.0
H3655 H 0.84155 0.92179 0.50242 0.0
H3656 H 0.87094 0.94222 0.49893 0.0
H3657 H 0.91619 0.93563 0.53917 0.0
H3658 H 0.99477 0.00976 0.54983 0.0
H3659 H 0.96441 0.98945 0.54981 0.0
H3660 H 0.92469 0.98927 0.5039 0.0
C3661 C 0.86927 0.93727 0.51201 0.0
C3662 C 0.9177 0.94748 0.53167 0.0
C3663 C 0.85237 0.92563 0.51399 0.0
C3664 C 0.98594 0.0041 0.53667 0.0
C3665 C 0.96858 0.99245 0.53664 0.0
C3666 C 0.92291 0.97751 0.51155 0.0
C3667 C 0.88402 0.94137 0.52625 0.0
C3668 C 0.90256 0.95217 0.52366 0.0
C3669 C 0.95655 0.98518 0.51991 0.0
C3670 C 0.93794 0.97325 0.52026 0.0
H3671 H 0.86279 0.91629 0.55717 0.0
H3672 H 0.89183 0.93753 0.5544 0.0
H3673 H 0.89421 0.97133 0.50698 0.0
H3674 H 0.98419 0.00408 0.48999 0.0
H3675 H 0.95351 0.98407 0.49001 0.0
C3676 C 0.88661 0.11564 0.24956 0.0
C3677 C 0.8984 0.11531 0.26541 0.0
C3678 C 0.87753 0.13048 0.24926 0.0
C3679 C 0.87514 0.17958 0.27858 0.0
H3680 H 0.83573 0.17432 0.24002 0.0
C3681 C 0.84157 0.24421 0.2736 0.0
C3682 C 0.82336 0.24018 0.26568 0.0
C3683 C 0.85059 0.22938 0.27351 0.0
C3684 C 0.84658 0.17624 0.25115 0.0
H3685 H 0.90903 0.13115 0.29358 0.0
H3686 H 0.8934 0.15564 0.29335 0.0
H3687 H 0.85036 0.14864 0.24002 0.0
H3688 H 0.80087 0.21643 0.25123 0.0
H3689 H 0.81621 0.19119 0.25098 0.0
H3690 H 0.87098 0.207 0.28993 0.0
C3691 C 0.89122 0.14503 0.28067 0.0
C3692 C 0.85535 0.16123 0.25103 0.0
C3693 C 0.90033 0.13045 0.28088 0.0
C3694 C 0.81479 0.22055 0.25758 0.0
C3695 C 0.82381 0.20582 0.2573 0.0
C3696 C 0.86632 0.19452 0.27872 0.0
C3697 C 0.87959 0.1458 0.26482 0.0
C3698 C 0.86996 0.16228 0.26477 0.0
C3699 C 0.84201 0.20968 0.26528 0.0
C3700 C 0.85173 0.19338 0.26503 0.0
H3701 H 0.88453 0.10457 0.23721 0.0
H3702 H 0.86904 0.12989 0.23649 0.0
H3703 H 0.88627 0.18199 0.28949 0.0
H3704 H 0.84892 0.25891 0.28005 0.0
H3705 H 0.86453 0.23358 0.27975 0.0
C3706 C 0.7238 0.10291 0.0069 0.0
C3707 C 0.73096 0.12254 0.01482 0.0
C3708 C 0.70524 0.09548 0.00181 0.0
C3709 C 0.66485 0.10581 0.01506 0.0
H3710 H 0.64043 0.07106 0.96892 0.0
C3711 C 0.59117 0.07574 0.00782 0.0
C3712 C 0.58644 0.05554 0.00474 0.0
C3713 C 0.60719 0.08578 0.00302 0.0
C3714 C 0.64721 0.08098 0.98171 0.0
H3715 H 0.72476 0.14974 0.02407 0.0
H3716 H 0.69305 0.13706 0.01461 0.0
H3717 H 0.67328 0.08417 0.97328 0.0
H3718 H 0.59347 0.02966 0.99324 0.0
H3719 H 0.62265 0.04736 0.98645 0.0
H3720 H 0.63935 0.10244 0.02396 0.0
C3721 C 0.70142 0.12731 0.01249 0.0
C3722 C 0.66582 0.08821 0.98425 0.0
C3723 C 0.71959 0.13451 0.01791 0.0
C3724 C 0.5974 0.04533 0.99621 0.0
C3725 C 0.6137 0.05539 0.99186 0.0
C3726 C 0.64645 0.09879 0.0125 0.0
C3727 C 0.69409 0.10779 0.00461 0.0
C3728 C 0.67465 0.10038 0.00111 0.0
C3729 C 0.61883 0.07567 0.99569 0.0
C3730 C 0.63755 0.08599 0.99603 0.0
H3731 H 0.73245 0.09358 0.00424 0.0
H3732 H 0.69961 0.08025 0.99593 0.0
H3733 H 0.67147 0.115 0.02829 0.0
H3734 H 0.58234 0.08375 0.01358 0.0
H3735 H 0.6109 0.10144 0.00585 0.0
C3736 C 0.1762 0.47554 0.23859 0.0
C3737 C 0.18546 0.49335 0.23449 0.0
C3738 C 0.18559 0.46397 0.24608 0.0
C3739 C 0.22954 0.45465 0.25144 0.0
H3740 H 0.21239 0.43194 0.29314 0.0
C3741 C 0.26845 0.41172 0.28776 0.0
C3742 C 0.2583 0.39259 0.28692 0.0
C3743 C 0.25991 0.42582 0.28499 0.0
C3744 C 0.21728 0.43828 0.28155 0.0
H3745 H 0.21179 0.51237 0.23384 0.0
H3746 H 0.22825 0.49193 0.24671 0.0
H3747 H 0.19673 0.45279 0.27944 0.0
H3748 H 0.23143 0.37342 0.28415 0.0
H3749 H 0.2164 0.39826 0.27922 0.0
H3750 H 0.24997 0.44007 0.25342 0.0
C3751 C 0.21371 0.48707 0.24428 0.0
C3752 C 0.20832 0.45005 0.27365 0.0
C3753 C 0.2043 0.49873 0.23686 0.0
C3754 C 0.23948 0.38808 0.2847 0.0
C3755 C 0.23093 0.40226 0.28204 0.0
C3756 C 0.23854 0.44303 0.2594 0.0
C3757 C 0.20441 0.46987 0.24942 0.0
C3758 C 0.21427 0.45812 0.25836 0.0
C3759 C 0.24113 0.42101 0.2814 0.0
C3760 C 0.23239 0.43464 0.27439 0.0
H3761 H 0.16167 0.47094 0.23692 0.0
H3762 H 0.17812 0.45055 0.24955 0.0
H3763 H 0.23425 0.46047 0.23952 0.0
H3764 H 0.28298 0.41552 0.28927 0.0
H3765 H 0.26799 0.44025 0.28466 0.0
C3766 C 0.25431 0.43065 0.01077 0.0
C3767 C 0.25293 0.41258 0.01574 0.0
C3768 C 0.23922 0.43764 0.00879 0.0
C3769 C 0.18955 0.42269 0.99951 0.0
H3770 H 0.19525 0.47659 0.02021 0.0
C3771 C 0.13044 0.45877 0.00397 0.0
C3772 C 0.13391 0.47789 0.00086 0.0
C3773 C 0.14409 0.44936 0.00424 0.0
C3774 C 0.19344 0.46157 0.01411 0.0
H3775 H 0.23458 0.38726 0.02194 0.0
H3776 H 0.20794 0.39931 0.01809 0.0
H3777 H 0.22049 0.46306 0.02444 0.0
H3778 H 0.15443 0.50172 0.99488 0.0
H3779 H 0.17794 0.48533 0.99507 0.0
H3780 H 0.16234 0.42133 0.98923 0.0
C3781 C 0.2208 0.40824 0.01603 0.0
C3782 C 0.20795 0.45378 0.01658 0.0
C3783 C 0.23605 0.40143 0.01844 0.0
C3784 C 0.15115 0.48699 0.99721 0.0
C3785 C 0.16474 0.47766 0.99755 0.0
C3786 C 0.17495 0.43052 0.99703 0.0
C3787 C 0.22224 0.42652 0.0113 0.0
C3788 C 0.2063 0.4343 0.00919 0.0
C3789 C 0.16157 0.45893 0.00157 0.0
C3790 C 0.17679 0.45014 0.00416 0.0
H3791 H 0.26713 0.43945 0.00846 0.0
H3792 H 0.24083 0.45167 0.00494 0.0
H3793 H 0.18785 0.40766 0.9935 0.0
H3794 H 0.11726 0.4512 0.00656 0.0
H3795 H 0.14115 0.43492 0.00732 0.0
C3796 C 0.88099 0.99476 0.26341 0.0
C3797 C 0.89319 0.99697 0.2503 0.0
C3798 C 0.87096 0.97607 0.26557 0.0
C3799 C 0.85843 0.92224 0.24235 0.0
H3800 H 0.84457 0.91368 0.29033 0.0
C3801 C 0.82744 0.84344 0.25644 0.0
C3802 C 0.81272 0.84084 0.26654 0.0
C3803 C 0.83771 0.86226 0.25505 0.0
C3804 C 0.84821 0.91569 0.27673 0.0
H3805 H 0.9039 0.98067 0.22914 0.0
H3806 H 0.88689 0.94895 0.23271 0.0
H3807 H 0.86021 0.9462 0.28652 0.0
H3808 H 0.7979 0.85646 0.28353 0.0
H3809 H 0.81599 0.88877 0.28183 0.0
H3810 H 0.84668 0.89166 0.23269 0.0
C3811 C 0.88458 0.96134 0.24129 0.0
C3812 C 0.85721 0.93461 0.27448 0.0
C3813 C 0.89455 0.97983 0.23923 0.0
C3814 C 0.80914 0.85772 0.27571 0.0
C3815 C 0.81962 0.87642 0.27473 0.0
C3816 C 0.84964 0.90333 0.24467 0.0
C3817 C 0.87266 0.95883 0.25466 0.0
C3818 C 0.86255 0.93844 0.25719 0.0
C3819 C 0.83393 0.87921 0.26406 0.0
C3820 C 0.84423 0.89956 0.26188 0.0
H3821 H 0.87975 0.00741 0.27257 0.0
H3822 H 0.86195 0.97523 0.27597 0.0
H3823 H 0.86171 0.92408 0.22861 0.0
H3824 H 0.83057 0.83093 0.24895 0.0
H3825 H 0.84862 0.8635 0.24678 0.0
C3826 C 0.68695 0.09229 0.77595 0.0
C3827 C 0.6793 0.08413 0.75738 0.0
C3828 C 0.70048 0.10961 0.77992 0.0
C3829 C 0.71014 0.15287 0.76331 0.0
H3830 H 0.76016 0.16518 0.78498 0.0
C3831 C 0.76014 0.21878 0.75158 0.0
C3832 C 0.77133 0.23088 0.76731 0.0
C3833 C 0.75021 0.20045 0.75296 0.0
C3834 C 0.74613 0.16192 0.77924 0.0
H3835 H 0.68022 0.08633 0.7283 0.0
H3836 H 0.70354 0.11721 0.73533 0.0
H3837 H 0.74042 0.13245 0.78294 0.0
H3838 H 0.78253 0.23297 0.79616 0.0
H3839 H 0.76489 0.20077 0.79855 0.0
H3840 H 0.71565 0.18203 0.75935 0.0
C3841 C 0.69919 0.1101 0.74669 0.0
C3842 C 0.73498 0.14336 0.77804 0.0
C3843 C 0.68595 0.09262 0.74271 0.0
C3844 C 0.77366 0.22392 0.78395 0.0
C3845 C 0.76368 0.20558 0.78533 0.0
C3846 C 0.72117 0.17135 0.76462 0.0
C3847 C 0.70605 0.11886 0.76532 0.0
C3848 C 0.71721 0.13869 0.76936 0.0
C3849 C 0.75145 0.19408 0.77003 0.0
C3850 C 0.7394 0.17569 0.77179 0.0
H3851 H 0.68213 0.08555 0.78736 0.0
H3852 H 0.70582 0.1163 0.79434 0.0
H3853 H 0.69625 0.14943 0.75697 0.0
H3854 H 0.75822 0.22381 0.73858 0.0
H3855 H 0.74111 0.19148 0.74085 0.0
loop_
_geom_bond_atom_site_label_1
_geom_bond_atom_site_label_2
_geom_bond_distance
_geom_bond_site_symmetry_2
_ccdc_geom_bond_type
Zn0 O3 2.031 . S
Zn0 O5 2.049 . S
Zn0 O10 2.067 . S
Zn1 O2 1.962 . S
Zn1 O4 1.986 . S
Zn1 O6 1.996 . S
Zn1 O9 1.943 . S
O2 Zn1 1.962 . S
O2 C7 1.254 . S
O3 Zn0 2.031 . S
O3 C7 1.269 . S
O4 Zn1 1.986 . S
O4 C11 1.262 . S
O5 Zn0 2.049 . S
O5 C13 1.260 . S
O6 Zn1 1.996 . S
O6 C13 1.257 . S
C7 O2 1.254 . S
C7 O3 1.269 . S
C8 O9 1.249 . S
C8 O10 1.270 . S
O9 Zn1 1.943 . S
O9 C8 1.249 . S
O10 Zn0 2.067 . S
O10 C8 1.270 . S
C11 O4 1.262 . S
C11 O12 1.232 . S
O12 C11 1.232 . S
C13 O5 1.260 . S
C13 O6 1.257 . S
Zn14 O17 2.031 1_455 S
Zn14 O19 2.049 . S
Zn14 O24 2.067 . S
Zn15 O16 1.948 1_455 S
Zn15 O18 1.992 . S
Zn15 O20 2.007 . S
Zn15 O23 1.946 1_455 S
O16 Zn15 1.948 1_655 S
O16 C21 1.254 . S
O17 Zn14 2.031 1_655 S
O17 C21 1.269 . S
O18 Zn15 1.992 . S
O18 C25 1.262 . S
O19 Zn14 2.049 . S
O19 C27 1.260 . S
O20 Zn15 2.007 . S
O20 C27 1.257 . S
C21 O16 1.254 . S
C21 O17 1.269 . S
C22 O23 1.249 . S
C22 O24 1.270 1_655 S
O23 Zn15 1.946 1_655 S
O23 C22 1.249 . S
O24 Zn14 2.067 . S
O24 C22 1.270 1_455 S
C25 O18 1.262 . S
C25 O26 1.232 1_455 S
O26 C25 1.232 1_655 S
C27 O19 1.260 . S
C27 O20 1.257 . S
Zn28 O31 2.031 . S
Zn28 O33 2.049 . S
Zn28 O38 2.067 . S
Zn29 O30 1.962 . S
Zn29 O32 1.986 . S
Zn29 O34 1.996 . S
Zn29 O37 1.943 . S
O30 Zn29 1.962 . S
O30 C35 1.254 . S
O31 Zn28 2.031 . S
O31 C35 1.269 . S
O32 Zn29 1.986 . S
O32 C39 1.262 . S
O33 Zn28 2.049 . S
O33 C41 1.260 . S
O34 Zn29 1.996 . S
O34 C41 1.257 . S
C35 O30 1.254 . S
C35 O31 1.269 . S
C36 O37 1.249 . S
C36 O38 1.270 . S
O37 Zn29 1.943 . S
O37 C36 1.249 . S
O38 Zn28 2.067 . S
O38 C36 1.270 . S
C39 O32 1.262 . S
C39 O40 1.232 . S
O40 C39 1.232 . S
C41 O33 1.260 . S
C41 O34 1.257 . S
Zn42 O45 2.031 . S
Zn42 O47 2.049 . S
Zn42 O52 2.067 . S
Zn43 O44 1.962 . S
Zn43 O46 1.986 . S
Zn43 O48 1.996 . S
Zn43 O51 1.943 . S
O44 Zn43 1.962 . S
O44 C49 1.254 . S
O45 Zn42 2.031 . S
O45 C49 1.269 . S
O46 Zn43 1.986 . S
O46 C53 1.262 . S
O47 Zn42 2.049 . S
O47 C55 1.260 . S
O48 Zn43 1.996 . S
O48 C55 1.257 . S
C49 O44 1.254 . S
C49 O45 1.269 . S
C50 O51 1.249 . S
C50 O52 1.270 . S
O51 Zn43 1.943 . S
O51 C50 1.249 . S
O52 Zn42 2.067 . S
O52 C50 1.270 . S
C53 O46 1.262 . S
C53 O54 1.232 . S
O54 C53 1.232 . S
C55 O47 1.260 . S
C55 O48 1.257 . S
Zn56 O59 2.031 . S
Zn56 O61 2.049 . S
Zn56 O66 2.067 . S
Zn57 O58 1.962 . S
Zn57 O60 1.986 . S
Zn57 O62 1.996 . S
Zn57 O65 1.943 . S
O58 Zn57 1.962 . S
O58 C63 1.254 . S
O59 Zn56 2.031 . S
O59 C63 1.269 . S
O60 Zn57 1.986 . S
O60 C67 1.262 . S
O61 Zn56 2.049 . S
O61 C69 1.260 . S
O62 Zn57 1.996 . S
O62 C69 1.257 . S
C63 O58 1.254 . S
C63 O59 1.269 . S
C64 O65 1.249 . S
C64 O66 1.270 . S
O65 Zn57 1.943 . S
O65 C64 1.249 . S
O66 Zn56 2.067 . S
O66 C64 1.270 . S
C67 O60 1.262 . S
C67 O68 1.232 . S
O68 C67 1.232 . S
C69 O61 1.260 . S
C69 O62 1.257 . S
Zn70 O73 2.031 . S
Zn70 O75 2.049 . S
Zn70 O80 2.067 . S
Zn71 O72 1.962 . S
Zn71 O74 1.986 . S
Zn71 O76 1.996 . S
Zn71 O79 1.943 . S
O72 Zn71 1.962 . S
O72 C77 1.254 . S
O73 Zn70 2.031 . S
O73 C77 1.269 . S
O74 Zn71 1.986 . S
O74 C81 1.262 . S
O75 Zn70 2.049 . S
O75 C83 1.260 . S
O76 Zn71 1.996 . S
O76 C83 1.257 . S
C77 O72 1.254 . S
C77 O73 1.269 . S
C78 O79 1.249 . S
C78 O80 1.270 . S
O79 Zn71 1.943 . S
O79 C78 1.249 . S
O80 Zn70 2.067 . S
O80 C78 1.270 . S
C81 O74 1.262 . S
C81 O82 1.232 . S
O82 C81 1.232 . S
C83 O75 1.260 . S
C83 O76 1.257 . S
Zn84 O87 2.031 . S
Zn84 O89 2.049 . S
Zn84 O94 2.067 . S
Zn85 O86 1.962 . S
Zn85 O88 1.986 . S
Zn85 O90 1.996 . S
Zn85 O93 1.943 . S
O86 Zn85 1.962 . S
O86 C91 1.254 . S
O87 Zn84 2.031 . S
O87 C91 1.269 . S
O88 Zn85 1.986 . S
O88 C95 1.262 . S
O89 Zn84 2.049 . S
O89 C97 1.260 . S
O90 Zn85 1.996 . S
O90 C97 1.257 . S
C91 O86 1.254 . S
C91 O87 1.269 . S
C92 O93 1.249 . S
C92 O94 1.270 . S
O93 Zn85 1.943 . S
O93 C92 1.249 . S
O94 Zn84 2.067 . S
O94 C92 1.270 . S
C95 O88 1.262 . S
C95 O96 1.232 . S
O96 C95 1.232 . S
C97 O89 1.260 . S
C97 O90 1.257 . S
Zn98 O101 2.041 . S
Zn98 O103 2.049 . S
Zn98 O108 2.067 . S
Zn99 O100 1.962 . S
Zn99 O102 1.986 . S
Zn99 O104 1.996 . S
Zn99 O107 1.940 . S
O100 Zn99 1.962 . S
O100 C105 1.254 . S
O101 Zn98 2.041 . S
O101 C105 1.223 1_655 S
O102 Zn99 1.986 . S
O102 C109 1.262 . S
O103 Zn98 2.049 . S
O103 C111 1.260 1_655 S
O104 Zn99 1.996 . S
O104 C111 1.257 . S
C105 O100 1.254 . S
C105 O101 1.223 1_455 S
C106 O107 1.252 1_655 S
C106 O108 1.270 . S
O107 Zn99 1.940 . S
O107 C106 1.252 1_455 S
O108 Zn98 2.067 . S
O108 C106 1.270 . S
C109 O102 1.262 . S
C109 O110 1.232 . S
O110 C109 1.232 . S
C111 O103 1.260 1_455 S
C111 O104 1.257 . S
Zn112 O115 2.031 . S
Zn112 O117 2.049 . S
Zn112 O122 2.067 . S
Zn113 O114 1.962 . S
Zn113 O116 1.986 . S
Zn113 O118 1.996 . S
Zn113 O121 1.943 1_545 S
O114 Zn113 1.962 . S
O114 C119 1.254 . S
O115 Zn112 2.031 . S
O115 C119 1.269 1_565 S
O116 Zn113 1.986 . S
O116 C123 1.262 . S
O117 Zn112 2.049 . S
O117 C125 1.260 1_565 S
O118 Zn113 1.996 . S
O118 C125 1.257 . S
C119 O114 1.254 . S
C119 O115 1.269 1_545 S
C120 O121 1.249 . S
C120 O122 1.270 . S
O121 Zn113 1.943 1_565 S
O121 C120 1.249 . S
O122 Zn112 2.067 . S
O122 C120 1.270 . S
C123 O116 1.262 . S
C123 O124 1.232 . S
O124 C123 1.232 . S
C125 O117 1.260 1_545 S
C125 O118 1.257 . S
Zn126 O129 2.031 . S
Zn126 O131 2.049 . S
Zn126 O136 2.067 . S
Zn127 O128 1.962 . S
Zn127 O130 1.986 . S
Zn127 O132 1.996 . S
Zn127 O135 1.943 . S
O128 Zn127 1.962 . S
O128 C133 1.254 . S
O129 Zn126 2.031 . S
O129 C133 1.269 . S
O130 Zn127 1.986 . S
O130 C137 1.262 . S
O131 Zn126 2.049 . S
O131 C139 1.260 . S
O132 Zn127 1.996 . S
O132 C139 1.257 . S
C133 O128 1.254 . S
C133 O129 1.269 . S
C134 O135 1.249 . S
C134 O136 1.270 . S
O135 Zn127 1.943 . S
O135 C134 1.249 . S
O136 Zn126 2.067 . S
O136 C134 1.270 . S
C137 O130 1.262 . S
C137 O138 1.232 . S
O138 C137 1.232 . S
C139 O131 1.260 . S
C139 O132 1.257 . S
Zn140 O143 2.031 . S
Zn140 O145 2.049 . S
Zn140 O150 2.067 . S
Zn141 O142 1.962 . S
Zn141 O144 1.986 . S
Zn141 O146 1.996 . S
Zn141 O149 1.943 1_565 S
O142 Zn141 1.962 . S
O142 C147 1.254 1_565 S
O143 Zn140 2.031 . S
O143 C147 1.269 . S
O144 Zn141 1.986 . S
O144 C151 1.262 . S
O145 Zn140 2.049 . S
O145 C153 1.260 1_545 S
O146 Zn141 1.996 . S
O146 C153 1.257 . S
C147 O142 1.254 1_545 S
C147 O143 1.269 . S
C148 O149 1.249 . S
C148 O150 1.270 . S
O149 Zn141 1.943 1_545 S
O149 C148 1.249 . S
O150 Zn140 2.067 . S
O150 C148 1.270 . S
C151 O144 1.262 . S
C151 O152 1.232 . S
O152 C151 1.232 . S
C153 O145 1.260 1_565 S
C153 O146 1.257 . S
Zn154 O157 2.031 1_554 S
Zn154 O159 2.049 . S
Zn154 O164 2.067 . S
Zn155 O156 1.962 1_554 S
Zn155 O158 1.986 . S
Zn155 O160 1.996 . S
Zn155 O163 1.943 . S
O156 Zn155 1.962 1_556 S
O156 C161 1.254 . S
O157 Zn154 2.031 1_556 S
O157 C161 1.269 . S
O158 Zn155 1.986 . S
O158 C165 1.262 . S
O159 Zn154 2.049 . S
O159 C167 1.260 . S
O160 Zn155 1.996 . S
O160 C167 1.257 . S
C161 O156 1.254 . S
C161 O157 1.269 . S
C162 O163 1.249 . S
C162 O164 1.270 . S
O163 Zn155 1.943 . S
O163 C162 1.249 . S
O164 Zn154 2.067 . S
O164 C162 1.270 . S
C165 O158 1.262 . S
C165 O166 1.232 1_554 S
O166 C165 1.232 1_556 S
C167 O159 1.260 . S
C167 O160 1.257 . S
Zn168 O171 2.031 1_554 S
Zn168 O173 2.049 . S
Zn168 O178 2.067 . S
Zn169 O170 1.962 1_554 S
Zn169 O172 1.986 . S
Zn169 O174 1.996 . S
Zn169 O177 1.943 . S
O170 Zn169 1.962 1_556 S
O170 C175 1.254 . S
O171 Zn168 2.031 1_556 S
O171 C175 1.269 . S
O172 Zn169 1.986 . S
O172 C179 1.262 . S
O173 Zn168 2.049 . S
O173 C181 1.260 . S
O174 Zn169 1.996 . S
O174 C181 1.257 . S
C175 O170 1.254 . S
C175 O171 1.269 . S
C176 O177 1.249 . S
C176 O178 1.270 . S
O177 Zn169 1.943 . S
O177 C176 1.249 . S
O178 Zn168 2.067 . S
O178 C176 1.270 . S
C179 O172 1.262 . S
C179 O180 1.232 . S
O180 C179 1.232 . S
C181 O173 1.260 . S
C181 O174 1.257 . S
Zn182 O185 2.031 1_554 S
Zn182 O187 2.049 . S
Zn182 O192 2.067 . S
Zn183 O184 1.962 1_554 S
Zn183 O186 1.986 . S
Zn183 O188 1.996 . S
Zn183 O191 1.943 . S
O184 Zn183 1.962 1_556 S
O184 C189 1.254 . S
O185 Zn182 2.031 1_556 S
O185 C189 1.269 . S
O186 Zn183 1.986 . S
O186 C193 1.262 . S
O187 Zn182 2.049 . S
O187 C195 1.260 . S
O188 Zn183 1.996 . S
O188 C195 1.257 . S
C189 O184 1.254 . S
C189 O185 1.269 . S
C190 O191 1.249 . S
C190 O192 1.270 . S
O191 Zn183 1.943 . S
O191 C190 1.249 . S
O192 Zn182 2.067 . S
O192 C190 1.270 . S
C193 O186 1.262 . S
C193 O194 1.232 1_554 S
O194 C193 1.232 1_556 S
C195 O187 1.260 . S
C195 O188 1.257 . S
Zn196 O199 2.031 . S
Zn196 O201 2.049 . S
Zn196 O206 2.067 . S
Zn197 O198 1.962 . S
Zn197 O200 1.986 . S
Zn197 O202 1.996 . S
Zn197 O205 1.943 . S
O198 Zn197 1.962 . S
O198 C203 1.254 . S
O199 Zn196 2.031 . S
O199 C203 1.269 . S
O200 Zn197 1.986 . S
O200 C207 1.262 . S
O201 Zn196 2.049 . S
O201 C209 1.260 . S
O202 Zn197 1.996 . S
O202 C209 1.257 . S
C203 O198 1.254 . S
C203 O199 1.269 . S
C204 O205 1.249 . S
C204 O206 1.270 . S
O205 Zn197 1.943 . S
O205 C204 1.249 . S
O206 Zn196 2.067 . S
O206 C204 1.270 . S
C207 O200 1.262 . S
C207 O208 1.232 . S
O208 C207 1.232 . S
C209 O201 1.260 . S
C209 O202 1.257 . S
Zn210 O213 2.031 . S
Zn210 O215 2.049 . S
Zn210 O220 2.067 . S
Zn211 O212 1.962 . S
Zn211 O214 1.986 . S
Zn211 O216 1.996 . S
Zn211 O219 1.943 . S
O212 Zn211 1.962 . S
O212 C217 1.254 . S
O213 Zn210 2.031 . S
O213 C217 1.269 . S
O214 Zn211 1.986 . S
O214 C221 1.262 . S
O215 Zn210 2.049 . S
O215 C223 1.260 . S
O216 Zn211 1.996 . S
O216 C223 1.257 . S
C217 O212 1.254 . S
C217 O213 1.269 . S
C218 O219 1.249 . S
C218 O220 1.270 . S
O219 Zn211 1.943 . S
O219 C218 1.249 . S
O220 Zn210 2.067 . S
O220 C218 1.270 . S
C221 O214 1.262 . S
C221 O222 1.232 . S
O222 C221 1.232 . S
C223 O215 1.260 . S
C223 O216 1.257 . S
Zn224 O227 2.031 . S
Zn224 O229 2.049 . S
Zn224 O234 2.067 . S
Zn225 O226 1.962 . S
Zn225 O228 1.986 . S
Zn225 O230 1.996 . S
Zn225 O233 1.943 . S
O226 Zn225 1.962 . S
O226 C231 1.254 . S
O227 Zn224 2.031 . S
O227 C231 1.269 . S
O228 Zn225 1.986 . S
O228 C235 1.262 . S
O229 Zn224 2.049 . S
O229 C237 1.260 . S
O230 Zn225 1.996 . S
O230 C237 1.257 . S
C231 O226 1.254 . S
C231 O227 1.269 . S
C232 O233 1.249 . S
C232 O234 1.270 . S
O233 Zn225 1.943 . S
O233 C232 1.249 . S
O234 Zn224 2.067 . S
O234 C232 1.270 . S
C235 O228 1.262 . S
C235 O236 1.232 . S
O236 C235 1.232 . S
C237 O229 1.260 . S
C237 O230 1.257 . S
Zn238 O241 2.031 . S
Zn238 O243 2.049 . S
Zn238 O248 2.067 . S
Zn239 O240 1.962 . S
Zn239 O242 1.986 . S
Zn239 O244 1.996 . S
Zn239 O247 1.943 . S
O240 Zn239 1.962 . S
O240 C245 1.254 . S
O241 Zn238 2.031 . S
O241 C245 1.269 . S
O242 Zn239 1.986 . S
O242 C249 1.262 . S
O243 Zn238 2.049 . S
O243 C251 1.260 . S
O244 Zn239 1.996 . S
O244 C251 1.257 . S
C245 O240 1.254 . S
C245 O241 1.269 . S
C246 O247 1.249 . S
C246 O248 1.270 . S
O247 Zn239 1.943 . S
O247 C246 1.249 . S
O248 Zn238 2.067 . S
O248 C246 1.270 . S
C249 O242 1.262 . S
C249 O250 1.232 . S
O250 C249 1.232 . S
C251 O243 1.260 . S
C251 O244 1.257 . S
Zn252 O255 2.031 . S
Zn252 O257 2.049 . S
Zn252 O262 2.067 . S
Zn253 O254 1.962 . S
Zn253 O256 1.986 . S
Zn253 O258 1.996 . S
Zn253 O261 1.943 . S
O254 Zn253 1.962 . S
O254 C259 1.254 . S
O255 Zn252 2.031 . S
O255 C259 1.269 . S
O256 Zn253 1.986 . S
O256 C263 1.262 . S
O257 Zn252 2.049 . S
O257 C265 1.260 . S
O258 Zn253 1.996 . S
O258 C265 1.257 . S
C259 O254 1.254 . S
C259 O255 1.269 . S
C260 O261 1.249 . S
C260 O262 1.270 . S
O261 Zn253 1.943 . S
O261 C260 1.249 . S
O262 Zn252 2.067 . S
O262 C260 1.270 . S
C263 O256 1.262 . S
C263 O264 1.232 . S
O264 C263 1.232 . S
C265 O257 1.260 . S
C265 O258 1.257 . S
Zn266 O269 2.031 . S
Zn266 O271 2.049 . S
Zn266 O276 2.067 . S
Zn267 O268 1.962 . S
Zn267 O270 1.986 . S
Zn267 O272 1.996 . S
Zn267 O275 1.943 . S
O268 Zn267 1.962 . S
O268 C273 1.254 . S
O269 Zn266 2.031 . S
O269 C273 1.269 . S
O270 Zn267 1.986 . S
O270 C277 1.262 . S
O271 Zn266 2.049 . S
O271 C279 1.260 . S
O272 Zn267 1.996 . S
O272 C279 1.257 . S
C273 O268 1.254 . S
C273 O269 1.269 . S
C274 O275 1.249 . S
C274 O276 1.270 . S
O275 Zn267 1.943 . S
O275 C274 1.249 . S
O276 Zn266 2.067 . S
O276 C274 1.270 . S
C277 O270 1.262 . S
C277 O278 1.232 . S
O278 C277 1.232 . S
C279 O271 1.260 . S
C279 O272 1.257 . S
Zn280 O283 2.031 1_554 S
Zn280 O285 2.049 . S
Zn280 O290 2.067 . S
Zn281 O282 1.962 1_554 S
Zn281 O284 1.986 . S
Zn281 O286 1.996 . S
Zn281 O289 1.943 . S
O282 Zn281 1.962 1_556 S
O282 C287 1.254 . S
O283 Zn280 2.031 1_556 S
O283 C287 1.269 . S
O284 Zn281 1.986 . S
O284 C291 1.262 . S
O285 Zn280 2.049 . S
O285 C293 1.260 . S
O286 Zn281 1.996 . S
O286 C293 1.257 . S
C287 O282 1.254 . S
C287 O283 1.269 . S
C288 O289 1.249 . S
C288 O290 1.270 . S
O289 Zn281 1.943 . S
O289 C288 1.249 . S
O290 Zn280 2.067 . S
O290 C288 1.270 . S
C291 O284 1.262 . S
C291 O292 1.232 1_554 S
O292 C291 1.232 1_556 S
C293 O285 1.260 . S
C293 O286 1.257 . S
Zn294 O297 2.031 . S
Zn294 O299 2.049 . S
Zn294 O304 2.067 . S
Zn295 O296 1.962 . S
Zn295 O298 1.986 . S
Zn295 O300 1.996 . S
Zn295 O303 1.943 . S
O296 Zn295 1.962 . S
O296 C301 1.254 . S
O297 Zn294 2.031 . S
O297 C301 1.269 . S
O298 Zn295 1.986 . S
O298 C305 1.262 . S
O299 Zn294 2.049 . S
O299 C307 1.260 . S
O300 Zn295 1.996 . S
O300 C307 1.257 . S
C301 O296 1.254 . S
C301 O297 1.269 . S
C302 O303 1.249 . S
C302 O304 1.270 . S
O303 Zn295 1.943 . S
O303 C302 1.249 . S
O304 Zn294 2.067 . S
O304 C302 1.270 . S
C305 O298 1.262 . S
C305 O306 1.232 . S
O306 C305 1.232 . S
C307 O299 1.260 . S
C307 O300 1.257 . S
Zn308 O311 2.031 . S
Zn308 O313 2.049 . S
Zn308 O318 2.067 . S
Zn309 O310 1.962 . S
Zn309 O312 1.986 . S
Zn309 O314 1.996 . S
Zn309 O317 1.943 . S
O310 Zn309 1.962 . S
O310 C315 1.254 . S
O311 Zn308 2.031 . S
O311 C315 1.269 . S
O312 Zn309 1.986 . S
O312 C319 1.262 . S
O313 Zn308 2.049 . S
O313 C321 1.260 . S
O314 Zn309 1.996 . S
O314 C321 1.257 . S
C315 O310 1.254 . S
C315 O311 1.269 . S
C316 O317 1.249 . S
C316 O318 1.270 . S
O317 Zn309 1.943 . S
O317 C316 1.249 . S
O318 Zn308 2.067 . S
O318 C316 1.270 . S
C319 O312 1.262 . S
C319 O320 1.232 . S
O320 C319 1.232 . S
C321 O313 1.260 . S
C321 O314 1.257 . S
Zn322 O325 2.031 . S
Zn322 O327 2.049 . S
Zn322 O332 2.067 . S
Zn323 O324 1.962 . S
Zn323 O326 1.986 . S
Zn323 O328 1.996 . S
Zn323 O331 1.943 . S
O324 Zn323 1.962 . S
O324 C329 1.254 . S
O325 Zn322 2.031 . S
O325 C329 1.269 . S
O326 Zn323 1.986 . S
O326 C333 1.262 . S
O327 Zn322 2.049 . S
O327 C335 1.260 . S
O328 Zn323 1.996 . S
O328 C335 1.257 . S
C329 O324 1.254 . S
C329 O325 1.269 . S
C330 O331 1.249 . S
C330 O332 1.270 . S
O331 Zn323 1.943 . S
O331 C330 1.249 . S
O332 Zn322 2.067 . S
O332 C330 1.270 . S
C333 O326 1.262 . S
C333 O334 1.232 . S
O334 C333 1.232 . S
C335 O327 1.260 . S
C335 O328 1.257 . S
Gd336 C339 2.818 1_454 S
Gd336 O356 2.360 1_554 S
Gd336 O358 2.448 1_454 S
Gd336 O359 2.506 1_455 S
Gd336 O360 2.435 1_554 S
Gd336 O361 2.717 1_554 S
Gd336 O363 2.395 1_545 S
Gd336 O367 2.327 . S
Gd337 C348 2.818 . S
Gd337 O357 2.395 . S
Gd337 O361 2.327 1_554 S
Gd337 O362 2.377 . S
Gd337 O364 2.448 . S
Gd337 O365 2.506 . S
Gd337 O366 2.435 . S
Gd337 O367 2.717 . S
C338 O356 1.224 1_554 S
C338 O357 1.240 . S
C339 Gd336 2.818 1_656 S
C339 C340 1.510 . S
C339 O358 1.249 . S
C339 O359 1.252 1_556 S
C340 C339 1.510 . S
C340 C341 1.404 . S
C340 C342 1.352 1_556 S
C341 C340 1.404 . S
C341 C345 1.389 . S
C341 H368 0.930 . S
C342 C340 1.352 1_554 S
C342 C344 1.374 . S
C342 H369 0.931 . S
C343 C344 1.359 1_556 S
C343 C345 1.364 . S
C344 C342 1.374 . S
C344 C343 1.359 1_554 S
C344 H370 0.931 . S
C345 C341 1.389 . S
C345 C343 1.364 . S
C345 H371 0.931 . S
C346 O360 1.256 . S
C346 O361 1.257 . S
C347 O362 1.240 1_565 S
C347 O363 1.240 . S
C348 Gd337 2.818 . S
C348 C349 1.510 . S
C348 O364 1.249 . S
C348 O365 1.252 . S
C349 C348 1.510 . S
C349 C350 1.404 . S
C349 C351 1.352 . S
C350 C349 1.404 . S
C350 C354 1.389 . S
C350 H372 0.930 . S
C351 C349 1.352 . S
C351 C353 1.374 . S
C351 H373 0.931 . S
C352 C353 1.359 . S
C352 C354 1.364 . S
C353 C351 1.374 . S
C353 C352 1.359 . S
C353 H374 0.931 1_545 S
C354 C350 1.389 . S
C354 C352 1.364 . S
C354 H375 0.931 . S
C355 O366 1.256 . S
C355 O367 1.257 . S
O356 Gd336 2.360 1_556 S
O356 C338 1.224 1_556 S
O357 Gd337 2.395 . S
O357 C338 1.240 . S
O358 Gd336 2.448 1_656 S
O358 C339 1.249 . S
O359 Gd336 2.506 1_655 S
O359 C339 1.252 1_554 S
O360 Gd336 2.435 1_556 S
O360 C346 1.256 . S
O361 Gd336 2.717 1_556 S
O361 Gd337 2.327 1_556 S
O361 C346 1.257 . S
O362 Gd337 2.377 . S
O362 C347 1.240 1_545 S
O363 Gd336 2.395 1_565 S
O363 C347 1.240 . S
O364 Gd337 2.448 . S
O364 C348 1.249 . S
O365 Gd337 2.506 . S
O365 C348 1.252 . S
O366 Gd337 2.435 . S
O366 C355 1.256 . S
O367 Gd336 2.327 . S
O367 Gd337 2.717 . S
O367 C355 1.257 . S
H368 C341 0.930 . S
H369 C342 0.931 . S
H370 C344 0.931 . S
H371 C345 0.931 . S
H372 C350 0.930 . S
H373 C351 0.931 . S
H374 C353 0.931 1_565 S
H375 C354 0.931 . S
Gd376 C379 2.818 . S
Gd376 O396 2.377 . S
Gd376 O398 2.448 . S
Gd376 O399 2.506 . S
Gd376 O400 2.435 . S
Gd376 O401 2.717 . S
Gd376 O403 2.395 . S
Gd376 O407 2.327 . S
Gd377 C388 2.818 . S
Gd377 O397 2.395 . S
Gd377 O401 2.327 . S
Gd377 O402 2.377 . S
Gd377 O404 2.448 . S
Gd377 O405 2.506 . S
Gd377 O406 2.435 . S
Gd377 O407 2.717 . S
C378 O396 1.240 . S
C378 O397 1.240 . S
C379 Gd376 2.818 . S
C379 C380 1.510 . S
C379 O398 1.249 . S
C379 O399 1.252 . S
C380 C379 1.510 . S
C380 C381 1.404 . S
C380 C382 1.352 . S
C381 C380 1.404 . S
C381 C385 1.389 . S
C381 H408 0.930 . S
C382 C380 1.352 . S
C382 C384 1.374 . S
C382 H409 0.931 . S
C383 C384 1.359 . S
C383 C385 1.364 . S
C384 C382 1.374 . S
C384 C383 1.359 . S
C384 H410 0.931 . S
C385 C381 1.389 . S
C385 C383 1.364 . S
C385 H411 0.931 . S
C386 O400 1.256 . S
C386 O401 1.257 . S
C387 O402 1.240 . S
C387 O403 1.240 . S
C388 Gd377 2.818 . S
C388 C389 1.510 . S
C388 O404 1.249 . S
C388 O405 1.252 . S
C389 C388 1.510 . S
C389 C390 1.404 . S
C389 C391 1.352 . S
C390 C389 1.404 . S
C390 C394 1.389 . S
C390 H412 0.930 . S
C391 C389 1.352 . S
C391 C393 1.374 . S
C391 H413 0.931 . S
C392 C393 1.359 . S
C392 C394 1.364 . S
C393 C391 1.374 . S
C393 C392 1.359 . S
C393 H414 0.931 . S
C394 C390 1.389 . S
C394 C392 1.364 . S
C394 H415 0.931 . S
C395 O406 1.256 . S
C395 O407 1.257 . S
O396 Gd376 2.377 . S
O396 C378 1.240 . S
O397 Gd377 2.395 . S
O397 C378 1.240 . S
O398 Gd376 2.448 . S
O398 C379 1.249 . S
O399 Gd376 2.506 . S
O399 C379 1.252 . S
O400 Gd376 2.435 . S
O400 C386 1.256 . S
O401 Gd376 2.717 . S
O401 Gd377 2.327 . S
O401 C386 1.257 . S
O402 Gd377 2.377 . S
O402 C387 1.240 . S
O403 Gd376 2.395 . S
O403 C387 1.240 . S
O404 Gd377 2.448 . S
O404 C388 1.249 . S
O405 Gd377 2.506 . S
O405 C388 1.252 . S
O406 Gd377 2.435 . S
O406 C395 1.256 . S
O407 Gd376 2.327 . S
O407 Gd377 2.717 . S
O407 C395 1.257 . S
H408 C381 0.930 . S
H409 C382 0.931 . S
H410 C384 0.931 . S
H411 C385 0.931 . S
H412 C390 0.930 . S
H413 C391 0.931 . S
H414 C393 0.931 . S
H415 C394 0.931 . S
Gd416 C419 2.818 . S
Gd416 O436 2.385 . S
Gd416 O438 2.448 . S
Gd416 O439 2.506 . S
Gd416 O440 2.435 . S
Gd416 O441 2.717 . S
Gd416 O443 2.395 . S
Gd416 O447 2.327 . S
Gd417 C428 2.818 . S
Gd417 O437 2.395 1_545 S
Gd417 O441 2.327 . S
Gd417 O442 2.377 . S
Gd417 O444 2.448 . S
Gd417 O445 2.506 . S
Gd417 O446 2.435 . S
Gd417 O447 2.717 . S
C418 O436 1.236 1_565 S
C418 O437 1.240 . S
C419 Gd416 2.818 . S
C419 C420 1.510 1_545 S
C419 O438 1.249 . S
C419 O439 1.252 . S
C420 C419 1.510 1_565 S
C420 C421 1.404 . S
C420 C422 1.352 . S
C421 C420 1.404 . S
C421 C425 1.389 . S
C421 H448 0.930 1_565 S
C422 C420 1.352 . S
C422 C424 1.374 . S
C422 H449 0.931 . S
C423 C424 1.359 . S
C423 C425 1.364 . S
C424 C422 1.374 . S
C424 C423 1.359 . S
C424 H450 0.931 . S
C425 C421 1.389 . S
C425 C423 1.364 . S
C425 H451 0.931 . S
C426 O440 1.256 . S
C426 O441 1.257 . S
C427 O442 1.240 . S
C427 O443 1.240 . S
C428 Gd417 2.818 . S
C428 C429 1.510 . S
C428 O444 1.249 . S
C428 O445 1.252 . S
C429 C428 1.510 . S
C429 C430 1.404 . S
C429 C431 1.352 . S
C430 C429 1.404 . S
C430 C434 1.389 . S
C430 H452 0.930 . S
C431 C429 1.352 . S
C431 C433 1.374 . S
C431 H453 0.931 . S
C432 C433 1.359 . S
C432 C434 1.364 . S
C433 C431 1.374 . S
C433 C432 1.359 . S
C433 H454 0.931 . S
C434 C430 1.389 . S
C434 C432 1.364 . S
C434 H455 0.931 . S
C435 O446 1.256 . S
C435 O447 1.257 . S
O436 Gd416 2.385 . S
O436 C418 1.236 1_545 S
O437 Gd417 2.395 1_565 S
O437 C418 1.240 . S
O438 Gd416 2.448 . S
O438 C419 1.249 . S
O439 Gd416 2.506 . S
O439 C419 1.252 . S
O440 Gd416 2.435 . S
O440 C426 1.256 . S
O441 Gd416 2.717 . S
O441 Gd417 2.327 . S
O441 C426 1.257 . S
O442 Gd417 2.377 . S
O442 C427 1.240 . S
O443 Gd416 2.395 . S
O443 C427 1.240 . S
O444 Gd417 2.448 . S
O444 C428 1.249 . S
O445 Gd417 2.506 . S
O445 C428 1.252 . S
O446 Gd417 2.435 . S
O446 C435 1.256 . S
O447 Gd416 2.327 . S
O447 Gd417 2.717 . S
O447 C435 1.257 . S
H448 C421 0.930 1_545 S
H449 C422 0.931 . S
H450 C424 0.931 . S
H451 C425 0.931 . S
H452 C430 0.930 . S
H453 C431 0.931 . S
H454 C433 0.931 . S
H455 C434 0.931 . S
Gd456 C459 2.818 . S
Gd456 O476 2.377 . S
Gd456 O478 2.448 . S
Gd456 O479 2.506 . S
Gd456 O480 2.435 . S
Gd456 O481 2.717 . S
Gd456 O483 2.395 . S
Gd456 O487 2.327 . S
Gd457 C468 2.818 . S
Gd457 O477 2.395 . S
Gd457 O481 2.327 . S
Gd457 O482 2.377 . S
Gd457 O484 2.448 . S
Gd457 O485 2.506 . S
Gd457 O486 2.435 . S
Gd457 O487 2.717 . S
C458 O476 1.240 . S
C458 O477 1.240 . S
C459 Gd456 2.818 . S
C459 C460 1.510 . S
C459 O478 1.249 . S
C459 O479 1.252 . S
C460 C459 1.510 . S
C460 C461 1.404 . S
C460 C462 1.352 . S
C461 C460 1.404 . S
C461 C465 1.389 . S
C461 H488 0.930 . S
C462 C460 1.352 . S
C462 C464 1.374 . S
C462 H489 0.931 . S
C463 C464 1.359 . S
C463 C465 1.364 . S
C464 C462 1.374 . S
C464 C463 1.359 . S
C464 H490 0.931 . S
C465 C461 1.389 . S
C465 C463 1.364 . S
C465 H491 0.931 . S
C466 O480 1.256 . S
C466 O481 1.257 . S
C467 O482 1.240 . S
C467 O483 1.240 . S
C468 Gd457 2.818 . S
C468 C469 1.510 . S
C468 O484 1.249 . S
C468 O485 1.252 . S
C469 C468 1.510 . S
C469 C470 1.404 . S
C469 C471 1.352 . S
C470 C469 1.404 . S
C470 C474 1.389 . S
C470 H492 0.930 . S
C471 C469 1.352 . S
C471 C473 1.374 . S
C471 H493 0.931 . S
C472 C473 1.359 . S
C472 C474 1.364 . S
C473 C471 1.374 . S
C473 C472 1.359 . S
C473 H494 0.931 . S
C474 C470 1.389 . S
C474 C472 1.364 . S
C474 H495 0.931 . S
C475 O486 1.256 . S
C475 O487 1.257 . S
O476 Gd456 2.377 . S
O476 C458 1.240 . S
O477 Gd457 2.395 . S
O477 C458 1.240 . S
O478 Gd456 2.448 . S
O478 C459 1.249 . S
O479 Gd456 2.506 . S
O479 C459 1.252 . S
O480 Gd456 2.435 . S
O480 C466 1.256 . S
O481 Gd456 2.717 . S
O481 Gd457 2.327 . S
O481 C466 1.257 . S
O482 Gd457 2.377 . S
O482 C467 1.240 . S
O483 Gd456 2.395 . S
O483 C467 1.240 . S
O484 Gd457 2.448 . S
O484 C468 1.249 . S
O485 Gd457 2.506 . S
O485 C468 1.252 . S
O486 Gd457 2.435 . S
O486 C475 1.256 . S
O487 Gd456 2.327 . S
O487 Gd457 2.717 . S
O487 C475 1.257 . S
H488 C461 0.930 . S
H489 C462 0.931 . S
H490 C464 0.931 . S
H491 C465 0.931 . S
H492 C470 0.930 . S
H493 C471 0.931 . S
H494 C473 0.931 . S
H495 C474 0.931 . S
Gd496 C499 2.818 . S
Gd496 O516 2.377 . S
Gd496 O518 2.448 . S
Gd496 O519 2.506 . S
Gd496 O520 2.435 . S
Gd496 O521 2.717 . S
Gd496 O523 2.395 . S
Gd496 O527 2.327 . S
Gd497 C508 2.818 1_545 S
Gd497 O517 2.395 . S
Gd497 O521 2.327 . S
Gd497 O522 2.377 . S
Gd497 O524 2.448 1_545 S
Gd497 O525 2.506 1_545 S
Gd497 O526 2.435 . S
Gd497 O527 2.717 . S
C498 O516 1.240 . S
C498 O517 1.240 . S
C499 Gd496 2.818 . S
C499 C500 1.510 . S
C499 O518 1.249 . S
C499 O519 1.252 . S
C500 C499 1.510 . S
C500 C501 1.404 . S
C500 C502 1.352 . S
C501 C500 1.404 . S
C501 C505 1.389 . S
C501 H528 0.930 . S
C502 C500 1.352 . S
C502 C504 1.374 . S
C502 H529 0.931 . S
C503 C504 1.359 . S
C503 C505 1.364 . S
C504 C502 1.374 . S
C504 C503 1.359 . S
C504 H530 0.931 . S
C505 C501 1.389 . S
C505 C503 1.364 . S
C505 H531 0.931 . S
C506 O520 1.256 . S
C506 O521 1.257 . S
C507 O522 1.240 . S
C507 O523 1.240 . S
C508 Gd497 2.818 1_565 S
C508 C509 1.510 . S
C508 O524 1.249 . S
C508 O525 1.252 . S
C509 C508 1.510 . S
C509 C510 1.404 . S
C509 C511 1.352 . S
C510 C509 1.404 . S
C510 C514 1.389 . S
C510 H532 0.930 . S
C511 C509 1.352 . S
C511 C513 1.374 . S
C511 H533 0.931 . S
C512 C513 1.359 . S
C512 C514 1.364 . S
C513 C511 1.374 . S
C513 C512 1.359 . S
C513 H534 0.931 . S
C514 C510 1.389 . S
C514 C512 1.364 . S
C514 H535 0.931 . S
C515 O526 1.256 . S
C515 O527 1.257 . S
O516 Gd496 2.377 . S
O516 C498 1.240 . S
O517 Gd497 2.395 . S
O517 C498 1.240 . S
O518 Gd496 2.448 . S
O518 C499 1.249 . S
O519 Gd496 2.506 . S
O519 C499 1.252 . S
O520 Gd496 2.435 . S
O520 C506 1.256 . S
O521 Gd496 2.717 . S
O521 Gd497 2.327 . S
O521 C506 1.257 . S
O522 Gd497 2.377 . S
O522 C507 1.240 . S
O523 Gd496 2.395 . S
O523 C507 1.240 . S
O524 Gd497 2.448 1_565 S
O524 C508 1.249 . S
O525 Gd497 2.506 1_565 S
O525 C508 1.252 . S
O526 Gd497 2.435 . S
O526 C515 1.256 . S
O527 Gd496 2.327 . S
O527 Gd497 2.717 . S
O527 C515 1.257 . S
H528 C501 0.930 . S
H529 C502 0.931 . S
H530 C504 0.931 . S
H531 C505 0.931 . S
H532 C510 0.930 . S
H533 C511 0.931 . S
H534 C513 0.931 . S
H535 C514 0.931 . S
Gd536 C539 2.818 . S
Gd536 O556 2.377 . S
Gd536 O558 2.448 . S
Gd536 O559 2.506 . S
Gd536 O560 2.435 . S
Gd536 O561 2.717 . S
Gd536 O563 2.395 . S
Gd536 O567 2.327 . S
Gd537 C548 2.818 . S
Gd537 O557 2.395 . S
Gd537 O561 2.327 . S
Gd537 O562 2.377 . S
Gd537 O564 2.448 . S
Gd537 O565 2.506 . S
Gd537 O566 2.435 . S
Gd537 O567 2.717 . S
C538 O556 1.240 . S
C538 O557 1.240 . S
C539 Gd536 2.818 . S
C539 C540 1.510 . S
C539 O558 1.249 . S
C539 O559 1.252 . S
C540 C539 1.510 . S
C540 C541 1.404 . S
C540 C542 1.352 . S
C541 C540 1.404 . S
C541 C545 1.389 . S
C541 H568 0.930 . S
C542 C540 1.352 . S
C542 C544 1.374 . S
C542 H569 0.931 . S
C543 C544 1.359 . S
C543 C545 1.364 . S
C544 C542 1.374 . S
C544 C543 1.359 . S
C544 H570 0.931 . S
C545 C541 1.389 . S
C545 C543 1.364 . S
C545 H571 0.931 . S
C546 O560 1.256 . S
C546 O561 1.257 . S
C547 O562 1.240 . S
C547 O563 1.240 . S
C548 Gd537 2.818 . S
C548 C549 1.510 . S
C548 O564 1.249 . S
C548 O565 1.252 . S
C549 C548 1.510 . S
C549 C550 1.404 . S
C549 C551 1.352 . S
C550 C549 1.404 . S
C550 C554 1.389 . S
C550 H572 0.930 . S
C551 C549 1.352 . S
C551 C553 1.374 . S
C551 H573 0.931 . S
C552 C553 1.359 . S
C552 C554 1.364 . S
C553 C551 1.374 . S
C553 C552 1.359 . S
C553 H574 0.931 . S
C554 C550 1.389 . S
C554 C552 1.364 . S
C554 H575 0.931 . S
C555 O566 1.256 . S
C555 O567 1.257 . S
O556 Gd536 2.377 . S
O556 C538 1.240 . S
O557 Gd537 2.395 . S
O557 C538 1.240 . S
O558 Gd536 2.448 . S
O558 C539 1.249 . S
O559 Gd536 2.506 . S
O559 C539 1.252 . S
O560 Gd536 2.435 . S
O560 C546 1.256 . S
O561 Gd536 2.717 . S
O561 Gd537 2.327 . S
O561 C546 1.257 . S
O562 Gd537 2.377 . S
O562 C547 1.240 . S
O563 Gd536 2.395 . S
O563 C547 1.240 . S
O564 Gd537 2.448 . S
O564 C548 1.249 . S
O565 Gd537 2.506 . S
O565 C548 1.252 . S
O566 Gd537 2.435 . S
O566 C555 1.256 . S
O567 Gd536 2.327 . S
O567 Gd537 2.717 . S
O567 C555 1.257 . S
H568 C541 0.930 . S
H569 C542 0.931 . S
H570 C544 0.931 . S
H571 C545 0.931 . S
H572 C550 0.930 . S
H573 C551 0.931 . S
H574 C553 0.931 . S
H575 C554 0.931 . S
Gd576 C579 2.818 . S
Gd576 O596 2.377 . S
Gd576 O598 2.448 . S
Gd576 O599 2.506 . S
Gd576 O600 2.435 . S
Gd576 O601 2.717 1_554 S
Gd576 O603 2.395 . S
Gd576 O607 2.327 . S
Gd577 C588 2.818 . S
Gd577 O597 2.395 . S
Gd577 O601 2.327 . S
Gd577 O602 2.377 . S
Gd577 O604 2.448 . S
Gd577 O605 2.506 . S
Gd577 O606 2.435 . S
Gd577 O607 2.717 1_556 S
C578 O596 1.240 . S
C578 O597 1.240 1_554 S
C579 Gd576 2.818 . S
C579 C580 1.510 . S
C579 O598 1.249 . S
C579 O599 1.252 . S
C580 C579 1.510 . S
C580 C581 1.393 1_545 S
C580 C582 1.352 . S
C581 C580 1.393 1_565 S
C581 C585 1.392 . S
C581 H608 0.938 . S
C582 C580 1.352 . S
C582 C584 1.374 . S
C582 H609 0.931 . S
C583 C584 1.359 . S
C583 C585 1.364 1_545 S
C584 C582 1.374 . S
C584 C583 1.359 . S
C584 H610 0.931 . S
C585 C581 1.392 . S
C585 C583 1.364 1_565 S
C585 H611 0.931 . S
C586 O600 1.256 1_556 S
C586 O601 1.257 . S
C587 O602 1.240 1_554 S
C587 O603 1.240 . S
C588 Gd577 2.818 . S
C588 C589 1.510 . S
C588 O604 1.249 . S
C588 O605 1.252 . S
C589 C588 1.510 . S
C589 C590 1.404 . S
C589 C591 1.352 . S
C590 C589 1.404 . S
C590 C594 1.389 . S
C590 H612 0.930 . S
C591 C589 1.352 . S
C591 C593 1.374 . S
C591 H613 0.931 . S
C592 C593 1.359 . S
C592 C594 1.364 . S
C593 C591 1.374 . S
C593 C592 1.359 . S
C593 H614 0.931 . S
C594 C590 1.389 . S
C594 C592 1.364 . S
C594 H615 0.931 . S
C595 O606 1.256 1_554 S
C595 O607 1.257 . S
O596 Gd576 2.377 . S
O596 C578 1.240 . S
O597 Gd577 2.395 . S
O597 C578 1.240 1_556 S
O598 Gd576 2.448 . S
O598 C579 1.249 . S
O599 Gd576 2.506 . S
O599 C579 1.252 . S
O600 Gd576 2.435 . S
O600 C586 1.256 1_554 S
O601 Gd576 2.717 1_556 S
O601 Gd577 2.327 . S
O601 C586 1.257 . S
O602 Gd577 2.377 . S
O602 C587 1.240 1_556 S
O603 Gd576 2.395 . S
O603 C587 1.240 . S
O604 Gd577 2.448 . S
O604 C588 1.249 . S
O605 Gd577 2.506 . S
O605 C588 1.252 . S
O606 Gd577 2.435 . S
O606 C595 1.256 1_556 S
O607 Gd576 2.327 . S
O607 Gd577 2.717 1_554 S
O607 C595 1.257 . S
H608 C581 0.938 . S
H609 C582 0.931 . S
H610 C584 0.931 . S
H611 C585 0.931 . S
H612 C590 0.930 . S
H613 C591 0.931 . S
H614 C593 0.931 . S
H615 C594 0.931 . S
Gd616 C619 2.818 . S
Gd616 O636 2.377 . S
Gd616 O638 2.448 . S
Gd616 O639 2.506 . S
Gd616 O640 2.435 . S
Gd616 O641 2.717 . S
Gd616 O643 2.395 . S
Gd616 O647 2.327 . S
Gd617 C628 2.818 . S
Gd617 O637 2.395 . S
Gd617 O641 2.327 . S
Gd617 O642 2.377 . S
Gd617 O644 2.448 . S
Gd617 O645 2.506 . S
Gd617 O646 2.435 . S
Gd617 O647 2.717 . S
C618 O636 1.240 . S
C618 O637 1.240 . S
C619 Gd616 2.818 . S
C619 C620 1.510 . S
C619 O638 1.249 . S
C619 O639 1.252 . S
C620 C619 1.510 . S
C620 C621 1.404 . S
C620 C622 1.352 . S
C621 C620 1.404 . S
C621 C625 1.389 . S
C621 H648 0.930 . S
C622 C620 1.352 . S
C622 C624 1.374 . S
C622 H649 0.931 . S
C623 C624 1.359 . S
C623 C625 1.364 . S
C624 C622 1.374 . S
C624 C623 1.359 . S
C624 H650 0.931 . S
C625 C621 1.389 . S
C625 C623 1.364 . S
C625 H651 0.931 . S
C626 O640 1.256 . S
C626 O641 1.257 . S
C627 O642 1.240 . S
C627 O643 1.240 . S
C628 Gd617 2.818 . S
C628 C629 1.510 . S
C628 O644 1.249 . S
C628 O645 1.252 . S
C629 C628 1.510 . S
C629 C630 1.404 . S
C629 C631 1.352 . S
C630 C629 1.404 . S
C630 C634 1.389 . S
C630 H652 0.930 . S
C631 C629 1.352 . S
C631 C633 1.374 . S
C631 H653 0.931 . S
C632 C633 1.359 . S
C632 C634 1.364 . S
C633 C631 1.374 . S
C633 C632 1.359 . S
C633 H654 0.931 . S
C634 C630 1.389 . S
C634 C632 1.364 . S
C634 H655 0.931 . S
C635 O646 1.256 . S
C635 O647 1.257 . S
O636 Gd616 2.377 . S
O636 C618 1.240 . S
O637 Gd617 2.395 . S
O637 C618 1.240 . S
O638 Gd616 2.448 . S
O638 C619 1.249 . S
O639 Gd616 2.506 . S
O639 C619 1.252 . S
O640 Gd616 2.435 . S
O640 C626 1.256 . S
O641 Gd616 2.717 . S
O641 Gd617 2.327 . S
O641 C626 1.257 . S
O642 Gd617 2.377 . S
O642 C627 1.240 . S
O643 Gd616 2.395 . S
O643 C627 1.240 . S
O644 Gd617 2.448 . S
O644 C628 1.249 . S
O645 Gd617 2.506 . S
O645 C628 1.252 . S
O646 Gd617 2.435 . S
O646 C635 1.256 . S
O647 Gd616 2.327 . S
O647 Gd617 2.717 . S
O647 C635 1.257 . S
H648 C621 0.930 . S
H649 C622 0.931 . S
H650 C624 0.931 . S
H651 C625 0.931 . S
H652 C630 0.930 . S
H653 C631 0.931 . S
H654 C633 0.931 . S
H655 C634 0.931 . S
Gd656 C659 2.781 1_554 S
Gd656 O676 2.377 1_554 S
Gd656 O678 2.448 . S
Gd656 O679 2.506 1_554 S
Gd656 O680 2.435 . S
Gd656 O681 2.717 . S
Gd656 O683 2.395 . S
Gd656 O687 2.327 . S
Gd657 C668 2.818 1_556 S
Gd657 O677 2.395 . S
Gd657 O681 2.327 1_556 S
Gd657 O682 2.377 1_556 S
Gd657 O684 2.448 1_556 S
Gd657 O685 2.506 1_556 S
Gd657 O686 2.426 . S
Gd657 O687 2.717 1_556 S
C658 O676 1.240 . S
C658 O677 1.240 . S
C659 Gd656 2.781 1_556 S
C659 C660 1.550 . S
C659 O678 1.208 1_556 S
C659 O679 1.258 . S
C660 C659 1.550 . S
C660 C661 1.404 . S
C660 C662 1.352 . S
C661 C660 1.404 . S
C661 C665 1.389 . S
C661 H688 0.955 . S
C662 C660 1.352 . S
C662 C664 1.374 . S
C662 H689 0.931 . S
C663 C664 1.359 . S
C663 C665 1.364 . S
C664 C662 1.374 . S
C664 C663 1.359 . S
C664 H690 0.931 . S
C665 C661 1.389 . S
C665 C663 1.364 . S
C665 H691 0.931 . S
C666 O680 1.256 . S
C666 O681 1.257 . S
C667 O682 1.240 . S
C667 O683 1.240 . S
C668 Gd657 2.818 1_554 S
C668 C669 1.510 . S
C668 O684 1.249 . S
C668 O685 1.252 . S
C669 C668 1.510 . S
C669 C670 1.404 . S
C669 C671 1.352 . S
C670 C669 1.404 . S
C670 C674 1.389 . S
C670 H692 0.930 . S
C671 C669 1.352 . S
C671 C673 1.374 . S
C671 H693 0.931 . S
C672 C673 1.359 . S
C672 C674 1.364 . S
C673 C671 1.374 . S
C673 C672 1.359 . S
C673 H694 0.931 . S
C674 C670 1.389 . S
C674 C672 1.364 . S
C674 H695 0.931 . S
C675 O686 1.257 1_554 S
C675 O687 1.257 . S
O676 Gd656 2.377 1_556 S
O676 C658 1.240 . S
O677 Gd657 2.395 . S
O677 C658 1.240 . S
O678 Gd656 2.448 . S
O678 C659 1.208 1_554 S
O679 Gd656 2.506 1_556 S
O679 C659 1.258 . S
O680 Gd656 2.435 . S
O680 C666 1.256 . S
O681 Gd656 2.717 . S
O681 Gd657 2.327 1_554 S
O681 C666 1.257 . S
O682 Gd657 2.377 1_554 S
O682 C667 1.240 . S
O683 Gd656 2.395 . S
O683 C667 1.240 . S
O684 Gd657 2.448 1_554 S
O684 C668 1.249 . S
O685 Gd657 2.506 1_554 S
O685 C668 1.252 . S
O686 Gd657 2.426 . S
O686 C675 1.257 1_556 S
O687 Gd656 2.327 . S
O687 Gd657 2.717 1_554 S
O687 C675 1.257 . S
H688 C661 0.955 . S
H689 C662 0.931 . S
H690 C664 0.931 . S
H691 C665 0.931 . S
H692 C670 0.930 . S
H693 C671 0.931 . S
H694 C673 0.931 . S
H695 C674 0.931 . S
Gd696 C699 2.818 . S
Gd696 O716 2.377 . S
Gd696 O718 2.448 . S
Gd696 O719 2.506 . S
Gd696 O720 2.435 . S
Gd696 O721 2.717 . S
Gd696 O723 2.395 . S
Gd696 O727 2.327 . S
Gd697 C708 2.818 . S
Gd697 O717 2.395 . S
Gd697 O721 2.327 . S
Gd697 O722 2.377 . S
Gd697 O724 2.448 . S
Gd697 O725 2.506 . S
Gd697 O726 2.435 . S
Gd697 O727 2.717 . S
C698 O716 1.240 . S
C698 O717 1.240 . S
C699 Gd696 2.818 . S
C699 C700 1.510 . S
C699 O718 1.249 . S
C699 O719 1.252 . S
C700 C699 1.510 . S
C700 C701 1.404 . S
C700 C702 1.352 . S
C701 C700 1.404 . S
C701 C705 1.389 . S
C701 H728 0.930 . S
C702 C700 1.352 . S
C702 C704 1.374 . S
C702 H729 0.931 . S
C703 C704 1.359 . S
C703 C705 1.364 . S
C704 C702 1.374 . S
C704 C703 1.359 . S
C704 H730 0.931 . S
C705 C701 1.389 . S
C705 C703 1.364 . S
C705 H731 0.931 . S
C706 O720 1.256 . S
C706 O721 1.257 . S
C707 O722 1.240 . S
C707 O723 1.240 . S
C708 Gd697 2.818 . S
C708 C709 1.510 . S
C708 O724 1.249 . S
C708 O725 1.252 . S
C709 C708 1.510 . S
C709 C710 1.404 . S
C709 C711 1.352 . S
C710 C709 1.404 . S
C710 C714 1.389 . S
C710 H732 0.930 . S
C711 C709 1.352 . S
C711 C713 1.374 . S
C711 H733 0.931 . S
C712 C713 1.359 . S
C712 C714 1.364 . S
C713 C711 1.374 . S
C713 C712 1.359 . S
C713 H734 0.931 . S
C714 C710 1.389 . S
C714 C712 1.364 . S
C714 H735 0.931 . S
C715 O726 1.256 . S
C715 O727 1.257 . S
O716 Gd696 2.377 . S
O716 C698 1.240 . S
O717 Gd697 2.395 . S
O717 C698 1.240 . S
O718 Gd696 2.448 . S
O718 C699 1.249 . S
O719 Gd696 2.506 . S
O719 C699 1.252 . S
O720 Gd696 2.435 . S
O720 C706 1.256 . S
O721 Gd696 2.717 . S
O721 Gd697 2.327 . S
O721 C706 1.257 . S
O722 Gd697 2.377 . S
O722 C707 1.240 . S
O723 Gd696 2.395 . S
O723 C707 1.240 . S
O724 Gd697 2.448 . S
O724 C708 1.249 . S
O725 Gd697 2.506 . S
O725 C708 1.252 . S
O726 Gd697 2.435 . S
O726 C715 1.256 . S
O727 Gd696 2.327 . S
O727 Gd697 2.717 . S
O727 C715 1.257 . S
H728 C701 0.930 . S
H729 C702 0.931 . S
H730 C704 0.931 . S
H731 C705 0.931 . S
H732 C710 0.930 . S
H733 C711 0.931 . S
H734 C713 0.931 . S
H735 C714 0.931 . S
Gd736 C739 2.818 . S
Gd736 O756 2.377 . S
Gd736 O758 2.448 . S
Gd736 O759 2.506 . S
Gd736 O760 2.435 . S
Gd736 O761 2.717 . S
Gd736 O763 2.395 . S
Gd736 O767 2.327 . S
Gd737 C748 2.818 . S
Gd737 O757 2.395 . S
Gd737 O761 2.327 . S
Gd737 O762 2.377 . S
Gd737 O764 2.448 . S
Gd737 O765 2.506 . S
Gd737 O766 2.435 . S
Gd737 O767 2.717 . S
C738 O756 1.240 1_655 S
C738 O757 1.240 1_655 S
C739 Gd736 2.818 . S
C739 C740 1.510 . S
C739 O758 1.249 . S
C739 O759 1.252 . S
C740 C739 1.510 . S
C740 C741 1.404 . S
C740 C742 1.352 1_455 S
C741 C740 1.404 . S
C741 C745 1.389 1_455 S
C741 H768 0.930 . S
C742 C740 1.352 1_655 S
C742 C744 1.374 . S
C742 H769 0.931 . S
C743 C744 1.359 . S
C743 C745 1.364 . S
C744 C742 1.374 . S
C744 C743 1.359 . S
C744 H770 0.931 . S
C745 C741 1.389 1_655 S
C745 C743 1.364 . S
C745 H771 0.931 . S
C746 O760 1.256 . S
C746 O761 1.257 . S
C747 O762 1.240 . S
C747 O763 1.240 . S
C748 Gd737 2.818 . S
C748 C749 1.510 . S
C748 O764 1.249 . S
C748 O765 1.252 . S
C749 C748 1.510 . S
C749 C750 1.404 . S
C749 C751 1.352 . S
C750 C749 1.404 . S
C750 C754 1.389 . S
C750 H772 0.930 . S
C751 C749 1.352 . S
C751 C753 1.374 . S
C751 H773 0.931 . S
C752 C753 1.359 . S
C752 C754 1.364 . S
C753 C751 1.374 . S
C753 C752 1.359 . S
C753 H774 0.931 . S
C754 C750 1.389 . S
C754 C752 1.364 . S
C754 H775 0.931 . S
C755 O766 1.256 . S
C755 O767 1.257 . S
O756 Gd736 2.377 . S
O756 C738 1.240 1_455 S
O757 Gd737 2.395 . S
O757 C738 1.240 1_455 S
O758 Gd736 2.448 . S
O758 C739 1.249 . S
O759 Gd736 2.506 . S
O759 C739 1.252 . S
O760 Gd736 2.435 . S
O760 C746 1.256 . S
O761 Gd736 2.717 . S
O761 Gd737 2.327 . S
O761 C746 1.257 . S
O762 Gd737 2.377 . S
O762 C747 1.240 . S
O763 Gd736 2.395 . S
O763 C747 1.240 . S
O764 Gd737 2.448 . S
O764 C748 1.249 . S
O765 Gd737 2.506 . S
O765 C748 1.252 . S
O766 Gd737 2.435 . S
O766 C755 1.256 . S
O767 Gd736 2.327 . S
O767 Gd737 2.717 . S
O767 C755 1.257 . S
H768 C741 0.930 . S
H769 C742 0.931 . S
H770 C744 0.931 . S
H771 C745 0.931 . S
H772 C750 0.930 . S
H773 C751 0.931 . S
H774 C753 0.931 . S
H775 C754 0.931 . S
Gd776 C779 2.818 . S
Gd776 O796 2.377 . S
Gd776 O798 2.448 . S
Gd776 O799 2.506 . S
Gd776 O800 2.435 . S
Gd776 O801 2.717 . S
Gd776 O803 2.395 . S
Gd776 O807 2.327 . S
Gd777 C788 2.818 . S
Gd777 O797 2.395 . S
Gd777 O801 2.327 . S
Gd777 O802 2.377 . S
Gd777 O804 2.448 . S
Gd777 O805 2.506 . S
Gd777 O806 2.435 . S
Gd777 O807 2.717 . S
C778 O796 1.240 . S
C778 O797 1.240 . S
C779 Gd776 2.818 . S
C779 C780 1.510 . S
C779 O798 1.249 . S
C779 O799 1.252 . S
C780 C779 1.510 . S
C780 C781 1.404 . S
C780 C782 1.352 . S
C781 C780 1.404 . S
C781 C785 1.389 . S
C781 H808 0.930 . S
C782 C780 1.352 . S
C782 C784 1.374 . S
C782 H809 0.931 . S
C783 C784 1.359 . S
C783 C785 1.364 . S
C784 C782 1.374 . S
C784 C783 1.359 . S
C784 H810 0.931 . S
C785 C781 1.389 . S
C785 C783 1.364 . S
C785 H811 0.931 . S
C786 O800 1.256 . S
C786 O801 1.257 . S
C787 O802 1.240 . S
C787 O803 1.240 . S
C788 Gd777 2.818 . S
C788 C789 1.510 . S
C788 O804 1.249 . S
C788 O805 1.252 . S
C789 C788 1.510 . S
C789 C790 1.404 . S
C789 C791 1.352 . S
C790 C789 1.404 . S
C790 C794 1.389 . S
C790 H812 0.930 . S
C791 C789 1.352 . S
C791 C793 1.374 . S
C791 H813 0.931 . S
C792 C793 1.359 . S
C792 C794 1.364 . S
C793 C791 1.374 . S
C793 C792 1.359 . S
C793 H814 0.931 . S
C794 C790 1.389 . S
C794 C792 1.364 . S
C794 H815 0.931 . S
C795 O806 1.256 . S
C795 O807 1.257 . S
O796 Gd776 2.377 . S
O796 C778 1.240 . S
O797 Gd777 2.395 . S
O797 C778 1.240 . S
O798 Gd776 2.448 . S
O798 C779 1.249 . S
O799 Gd776 2.506 . S
O799 C779 1.252 . S
O800 Gd776 2.435 . S
O800 C786 1.256 . S
O801 Gd776 2.717 . S
O801 Gd777 2.327 . S
O801 C786 1.257 . S
O802 Gd777 2.377 . S
O802 C787 1.240 . S
O803 Gd776 2.395 . S
O803 C787 1.240 . S
O804 Gd777 2.448 . S
O804 C788 1.249 . S
O805 Gd777 2.506 . S
O805 C788 1.252 . S
O806 Gd777 2.435 . S
O806 C795 1.256 . S
O807 Gd776 2.327 . S
O807 Gd777 2.717 . S
O807 C795 1.257 . S
H808 C781 0.930 . S
H809 C782 0.931 . S
H810 C784 0.931 . S
H811 C785 0.931 . S
H812 C790 0.930 . S
H813 C791 0.931 . S
H814 C793 0.931 . S
H815 C794 0.931 . S
Gd816 C819 2.818 . S
Gd816 O836 2.377 . S
Gd816 O838 2.448 . S
Gd816 O839 2.506 . S
Gd816 O840 2.435 . S
Gd816 O841 2.717 . S
Gd816 O843 2.395 . S
Gd816 O847 2.327 . S
Gd817 C828 2.818 . S
Gd817 O837 2.395 . S
Gd817 O841 2.327 . S
Gd817 O842 2.377 . S
Gd817 O844 2.448 . S
Gd817 O845 2.506 . S
Gd817 O846 2.435 . S
Gd817 O847 2.717 . S
C818 O836 1.240 . S
C818 O837 1.240 . S
C819 Gd816 2.818 . S
C819 C820 1.510 . S
C819 O838 1.249 . S
C819 O839 1.252 . S
C820 C819 1.510 . S
C820 C821 1.404 . S
C820 C822 1.352 . S
C821 C820 1.404 . S
C821 C825 1.389 . S
C821 H848 0.930 . S
C822 C820 1.352 . S
C822 C824 1.374 . S
C822 H849 0.931 . S
C823 C824 1.359 . S
C823 C825 1.364 . S
C824 C822 1.374 . S
C824 C823 1.359 . S
C824 H850 0.931 . S
C825 C821 1.389 . S
C825 C823 1.364 . S
C825 H851 0.931 . S
C826 O840 1.256 . S
C826 O841 1.257 . S
C827 O842 1.240 . S
C827 O843 1.240 . S
C828 Gd817 2.818 . S
C828 C829 1.510 . S
C828 O844 1.249 . S
C828 O845 1.252 . S
C829 C828 1.510 . S
C829 C830 1.404 . S
C829 C831 1.352 . S
C830 C829 1.404 . S
C830 C834 1.389 . S
C830 H852 0.930 . S
C831 C829 1.352 . S
C831 C833 1.374 . S
C831 H853 0.931 . S
C832 C833 1.359 . S
C832 C834 1.364 . S
C833 C831 1.374 . S
C833 C832 1.359 . S
C833 H854 0.931 . S
C834 C830 1.389 . S
C834 C832 1.364 . S
C834 H855 0.931 . S
C835 O846 1.256 . S
C835 O847 1.257 . S
O836 Gd816 2.377 . S
O836 C818 1.240 . S
O837 Gd817 2.395 . S
O837 C818 1.240 . S
O838 Gd816 2.448 . S
O838 C819 1.249 . S
O839 Gd816 2.506 . S
O839 C819 1.252 . S
O840 Gd816 2.435 . S
O840 C826 1.256 . S
O841 Gd816 2.717 . S
O841 Gd817 2.327 . S
O841 C826 1.257 . S
O842 Gd817 2.377 . S
O842 C827 1.240 . S
O843 Gd816 2.395 . S
O843 C827 1.240 . S
O844 Gd817 2.448 . S
O844 C828 1.249 . S
O845 Gd817 2.506 . S
O845 C828 1.252 . S
O846 Gd817 2.435 . S
O846 C835 1.256 . S
O847 Gd816 2.327 . S
O847 Gd817 2.717 . S
O847 C835 1.257 . S
H848 C821 0.930 . S
H849 C822 0.931 . S
H850 C824 0.931 . S
H851 C825 0.931 . S
H852 C830 0.930 . S
H853 C831 0.931 . S
H854 C833 0.931 . S
H855 C834 0.931 . S
Gd856 C859 2.818 . S
Gd856 O876 2.377 . S
Gd856 O878 2.448 . S
Gd856 O879 2.506 . S
Gd856 O880 2.435 . S
Gd856 O881 2.717 . S
Gd856 O883 2.395 . S
Gd856 O887 2.327 . S
Gd857 C868 2.818 . S
Gd857 O877 2.395 . S
Gd857 O881 2.327 . S
Gd857 O882 2.377 . S
Gd857 O884 2.448 . S
Gd857 O885 2.506 . S
Gd857 O886 2.435 . S
Gd857 O887 2.717 . S
C858 O876 1.240 . S
C858 O877 1.240 . S
C859 Gd856 2.818 . S
C859 C860 1.510 . S
C859 O878 1.249 . S
C859 O879 1.252 . S
C860 C859 1.510 . S
C860 C861 1.404 . S
C860 C862 1.352 . S
C861 C860 1.404 . S
C861 C865 1.389 . S
C861 H888 0.930 . S
C862 C860 1.352 . S
C862 C864 1.374 . S
C862 H889 0.931 . S
C863 C864 1.359 . S
C863 C865 1.364 . S
C864 C862 1.374 . S
C864 C863 1.359 . S
C864 H890 0.931 . S
C865 C861 1.389 . S
C865 C863 1.364 . S
C865 H891 0.931 . S
C866 O880 1.256 . S
C866 O881 1.257 . S
C867 O882 1.240 . S
C867 O883 1.240 . S
C868 Gd857 2.818 . S
C868 C869 1.510 . S
C868 O884 1.249 . S
C868 O885 1.252 . S
C869 C868 1.510 . S
C869 C870 1.404 . S
C869 C871 1.352 . S
C870 C869 1.404 . S
C870 C874 1.389 . S
C870 H892 0.930 . S
C871 C869 1.352 . S
C871 C873 1.374 . S
C871 H893 0.931 . S
C872 C873 1.359 . S
C872 C874 1.364 . S
C873 C871 1.374 . S
C873 C872 1.359 . S
C873 H894 0.931 . S
C874 C870 1.389 . S
C874 C872 1.364 . S
C874 H895 0.931 . S
C875 O886 1.256 . S
C875 O887 1.257 . S
O876 Gd856 2.377 . S
O876 C858 1.240 . S
O877 Gd857 2.395 . S
O877 C858 1.240 . S
O878 Gd856 2.448 . S
O878 C859 1.249 . S
O879 Gd856 2.506 . S
O879 C859 1.252 . S
O880 Gd856 2.435 . S
O880 C866 1.256 . S
O881 Gd856 2.717 . S
O881 Gd857 2.327 . S
O881 C866 1.257 . S
O882 Gd857 2.377 . S
O882 C867 1.240 . S
O883 Gd856 2.395 . S
O883 C867 1.240 . S
O884 Gd857 2.448 . S
O884 C868 1.249 . S
O885 Gd857 2.506 . S
O885 C868 1.252 . S
O886 Gd857 2.435 . S
O886 C875 1.256 . S
O887 Gd856 2.327 . S
O887 Gd857 2.717 . S
O887 C875 1.257 . S
H888 C861 0.930 . S
H889 C862 0.931 . S
H890 C864 0.931 . S
H891 C865 0.931 . S
H892 C870 0.930 . S
H893 C871 0.931 . S
H894 C873 0.931 . S
H895 C874 0.931 . S
Gd896 C899 2.818 . S
Gd896 O916 2.377 . S
Gd896 O918 2.448 . S
Gd896 O919 2.506 . S
Gd896 O920 2.435 . S
Gd896 O921 2.717 . S
Gd896 O923 2.395 . S
Gd896 O927 2.327 . S
Gd897 C908 2.818 . S
Gd897 O917 2.395 . S
Gd897 O921 2.327 . S
Gd897 O922 2.377 . S
Gd897 O924 2.448 . S
Gd897 O925 2.506 . S
Gd897 O926 2.435 . S
Gd897 O927 2.717 . S
C898 O916 1.240 . S
C898 O917 1.240 . S
C899 Gd896 2.818 . S
C899 C900 1.510 . S
C899 O918 1.249 . S
C899 O919 1.252 . S
C900 C899 1.510 . S
C900 C901 1.404 . S
C900 C902 1.352 . S
C901 C900 1.404 . S
C901 C905 1.389 . S
C901 H928 0.930 . S
C902 C900 1.352 . S
C902 C904 1.374 . S
C902 H929 0.931 . S
C903 C904 1.359 . S
C903 C905 1.364 . S
C904 C902 1.374 . S
C904 C903 1.359 . S
C904 H930 0.931 . S
C905 C901 1.389 . S
C905 C903 1.364 . S
C905 H931 0.931 . S
C906 O920 1.256 . S
C906 O921 1.257 . S
C907 O922 1.240 . S
C907 O923 1.240 . S
C908 Gd897 2.818 . S
C908 C909 1.510 . S
C908 O924 1.249 . S
C908 O925 1.252 . S
C909 C908 1.510 . S
C909 C910 1.404 . S
C909 C911 1.352 . S
C910 C909 1.404 . S
C910 C914 1.389 . S
C910 H932 0.930 . S
C911 C909 1.352 . S
C911 C913 1.374 . S
C911 H933 0.931 . S
C912 C913 1.359 . S
C912 C914 1.364 . S
C913 C911 1.374 . S
C913 C912 1.359 . S
C913 H934 0.931 . S
C914 C910 1.389 . S
C914 C912 1.364 . S
C914 H935 0.931 . S
C915 O926 1.256 . S
C915 O927 1.257 . S
O916 Gd896 2.377 . S
O916 C898 1.240 . S
O917 Gd897 2.395 . S
O917 C898 1.240 . S
O918 Gd896 2.448 . S
O918 C899 1.249 . S
O919 Gd896 2.506 . S
O919 C899 1.252 . S
O920 Gd896 2.435 . S
O920 C906 1.256 . S
O921 Gd896 2.717 . S
O921 Gd897 2.327 . S
O921 C906 1.257 . S
O922 Gd897 2.377 . S
O922 C907 1.240 . S
O923 Gd896 2.395 . S
O923 C907 1.240 . S
O924 Gd897 2.448 . S
O924 C908 1.249 . S
O925 Gd897 2.506 . S
O925 C908 1.252 . S
O926 Gd897 2.435 . S
O926 C915 1.256 . S
O927 Gd896 2.327 . S
O927 Gd897 2.717 . S
O927 C915 1.257 . S
H928 C901 0.930 . S
H929 C902 0.931 . S
H930 C904 0.931 . S
H931 C905 0.931 . S
H932 C910 0.930 . S
H933 C911 0.931 . S
H934 C913 0.931 . S
H935 C914 0.931 . S
Gd936 C939 2.818 1_554 S
Gd936 O956 2.377 1_554 S
Gd936 O958 2.448 1_554 S
Gd936 O959 2.506 . S
Gd936 O960 2.435 1_554 S
Gd936 O961 2.717 1_554 S
Gd936 O963 2.395 . S
Gd936 O967 2.327 . S
Gd937 C948 2.818 1_455 S
Gd937 O957 2.395 . S
Gd937 O961 2.327 1_554 S
Gd937 O962 2.377 . S
Gd937 O964 2.448 1_455 S
Gd937 O965 2.506 1_455 S
Gd937 O966 2.435 . S
Gd937 O967 2.717 . S
C938 O956 1.240 1_554 S
C938 O957 1.240 . S
C939 Gd936 2.818 1_556 S
C939 C940 1.510 . S
C939 O958 1.249 . S
C939 O959 1.252 1_556 S
C940 C939 1.510 . S
C940 C941 1.404 . S
C940 C942 1.352 1_556 S
C941 C940 1.404 . S
C941 C945 1.389 . S
C941 H968 0.930 . S
C942 C940 1.352 1_554 S
C942 C944 1.374 . S
C942 H969 0.931 . S
C943 C944 1.359 1_556 S
C943 C945 1.364 . S
C944 C942 1.374 . S
C944 C943 1.359 1_554 S
C944 H970 0.931 . S
C945 C941 1.389 . S
C945 C943 1.364 . S
C945 H971 0.931 . S
C946 O960 1.256 . S
C946 O961 1.257 . S
C947 O962 1.240 . S
C947 O963 1.240 . S
C948 Gd937 2.818 1_655 S
C948 C949 1.510 . S
C948 O964 1.249 . S
C948 O965 1.252 . S
C949 C948 1.510 . S
C949 C950 1.404 . S
C949 C951 1.352 . S
C950 C949 1.404 . S
C950 C954 1.389 . S
C950 H972 0.930 . S
C951 C949 1.352 . S
C951 C953 1.374 . S
C951 H973 0.931 . S
C952 C953 1.359 . S
C952 C954 1.364 . S
C953 C951 1.374 . S
C953 C952 1.359 . S
C953 H974 0.931 . S
C954 C950 1.389 . S
C954 C952 1.364 . S
C954 H975 0.931 . S
C955 O966 1.256 . S
C955 O967 1.257 . S
O956 Gd936 2.377 1_556 S
O956 C938 1.240 1_556 S
O957 Gd937 2.395 . S
O957 C938 1.240 . S
O958 Gd936 2.448 1_556 S
O958 C939 1.249 . S
O959 Gd936 2.506 . S
O959 C939 1.252 1_554 S
O960 Gd936 2.435 1_556 S
O960 C946 1.256 . S
O961 Gd936 2.717 1_556 S
O961 Gd937 2.327 1_556 S
O961 C946 1.257 . S
O962 Gd937 2.377 . S
O962 C947 1.240 . S
O963 Gd936 2.395 . S
O963 C947 1.240 . S
O964 Gd937 2.448 1_655 S
O964 C948 1.249 . S
O965 Gd937 2.506 1_655 S
O965 C948 1.252 . S
O966 Gd937 2.435 . S
O966 C955 1.256 . S
O967 Gd936 2.327 . S
O967 Gd937 2.717 . S
O967 C955 1.257 . S
H968 C941 0.930 . S
H969 C942 0.931 . S
H970 C944 0.931 . S
H971 C945 0.931 . S
H972 C950 0.930 . S
H973 C951 0.931 . S
H974 C953 0.931 . S
H975 C954 0.931 . S
C976 C977 1.349 . S
C976 C978 1.327 . S
C976 H1001 0.950 . S
C977 C976 1.349 . S
C977 C993 1.349 . S
C978 C976 1.327 . S
C978 C997 1.429 . S
C978 H1002 0.950 . S
C979 C996 1.574 . S
C979 C998 1.368 . S
C979 H1003 0.949 . S
H980 C984 0.949 1_554 S
C981 C982 1.349 1_556 S
C981 C983 1.327 . S
C981 H1004 0.950 . S
C982 C981 1.349 1_554 S
C982 C994 1.349 . S
C983 C981 1.327 . S
C983 C999 1.429 . S
C983 H1005 0.950 . S
C984 H980 0.949 1_556 S
C984 C992 1.574 . S
C984 C1000 1.368 . S
H985 C993 0.950 . S
H986 C991 0.950 . S
H987 C992 0.949 . S
H988 C994 0.950 . S
H989 C995 0.950 . S
H990 C996 0.949 . S
C991 H986 0.950 . S
C991 C993 1.327 . S
C991 C997 1.429 . S
C992 C984 1.574 . S
C992 H987 0.949 . S
C992 C998 1.368 . S
C993 C977 1.349 . S
C993 H985 0.950 . S
C993 C991 1.327 . S
C994 C982 1.349 . S
C994 H988 0.950 . S
C994 C995 1.327 . S
C995 H989 0.950 . S
C995 C994 1.327 . S
C995 C999 1.429 1_554 S
C996 C979 1.574 . S
C996 H990 0.949 . S
C996 C1000 1.368 . S
C997 C978 1.429 . S
C997 C991 1.429 . S
C997 C998 1.523 . S
C998 C979 1.368 . S
C998 C992 1.368 . S
C998 C997 1.523 . S
C999 C983 1.429 . S
C999 C995 1.429 1_556 S
C999 C1000 1.523 . S
C1000 C984 1.368 . S
C1000 C996 1.368 . S
C1000 C999 1.523 . S
H1001 C976 0.950 . S
H1002 C978 0.950 . S
H1003 C979 0.949 . S
H1004 C981 0.950 . S
H1005 C983 0.950 . S
C1006 C1007 1.349 . S
C1006 C1008 1.327 . S
C1006 H1031 0.950 . S
C1007 C1006 1.349 . S
C1007 C1023 1.349 . S
C1008 C1006 1.327 . S
C1008 C1027 1.429 . S
C1008 H1032 0.950 . S
C1009 C1026 1.574 . S
C1009 C1028 1.368 . S
C1009 H1033 0.949 . S
H1010 C1014 0.949 . S
C1011 C1012 1.349 . S
C1011 C1013 1.327 . S
C1011 H1034 0.950 . S
C1012 C1011 1.349 . S
C1012 C1024 1.349 . S
C1013 C1011 1.327 . S
C1013 C1029 1.429 . S
C1013 H1035 0.950 . S
C1014 H1010 0.949 . S
C1014 C1022 1.574 . S
C1014 C1030 1.368 . S
H1015 C1023 0.950 . S
H1016 C1021 0.950 . S
H1017 C1022 0.949 . S
H1018 C1024 0.950 . S
H1019 C1025 0.950 . S
H1020 C1026 0.949 . S
C1021 H1016 0.950 . S
C1021 C1023 1.327 . S
C1021 C1027 1.429 . S
C1022 C1014 1.574 . S
C1022 H1017 0.949 . S
C1022 C1028 1.368 . S
C1023 C1007 1.349 . S
C1023 H1015 0.950 . S
C1023 C1021 1.327 . S
C1024 C1012 1.349 . S
C1024 H1018 0.950 . S
C1024 C1025 1.327 . S
C1025 H1019 0.950 . S
C1025 C1024 1.327 . S
C1025 C1029 1.429 . S
C1026 C1009 1.574 . S
C1026 H1020 0.949 . S
C1026 C1030 1.368 . S
C1027 C1008 1.429 . S
C1027 C1021 1.429 . S
C1027 C1028 1.523 . S
C1028 C1009 1.368 . S
C1028 C1022 1.368 . S
C1028 C1027 1.523 . S
C1029 C1013 1.429 . S
C1029 C1025 1.429 . S
C1029 C1030 1.523 . S
C1030 C1014 1.368 . S
C1030 C1026 1.368 . S
C1030 C1029 1.523 . S
H1031 C1006 0.950 . S
H1032 C1008 0.950 . S
H1033 C1009 0.949 . S
H1034 C1011 0.950 . S
H1035 C1013 0.950 . S
C1036 C1037 1.349 . S
C1036 C1038 1.327 . S
C1036 H1061 0.950 . S
C1037 C1036 1.349 . S
C1037 C1053 1.349 . S
C1038 C1036 1.327 . S
C1038 C1057 1.429 . S
C1038 H1062 0.950 . S
C1039 C1056 1.574 . S
C1039 C1058 1.368 . S
C1039 H1063 0.949 . S
H1040 C1044 0.949 . S
C1041 C1042 1.349 . S
C1041 C1043 1.327 . S
C1041 H1064 0.950 . S
C1042 C1041 1.349 . S
C1042 C1054 1.349 . S
C1043 C1041 1.327 . S
C1043 C1059 1.429 . S
C1043 H1065 0.950 . S
C1044 H1040 0.949 . S
C1044 C1052 1.574 . S
C1044 C1060 1.368 . S
H1045 C1053 0.950 . S
H1046 C1051 0.950 . S
H1047 C1052 0.949 . S
H1048 C1054 0.950 . S
H1049 C1055 0.950 . S
H1050 C1056 0.949 . S
C1051 H1046 0.950 . S
C1051 C1053 1.327 . S
C1051 C1057 1.429 . S
C1052 C1044 1.574 . S
C1052 H1047 0.949 . S
C1052 C1058 1.368 . S
C1053 C1037 1.349 . S
C1053 H1045 0.950 . S
C1053 C1051 1.327 . S
C1054 C1042 1.349 . S
C1054 H1048 0.950 . S
C1054 C1055 1.327 . S
C1055 H1049 0.950 . S
C1055 C1054 1.327 . S
C1055 C1059 1.429 . S
C1056 C1039 1.574 . S
C1056 H1050 0.949 . S
C1056 C1060 1.368 . S
C1057 C1038 1.429 . S
C1057 C1051 1.429 . S
C1057 C1058 1.523 . S
C1058 C1039 1.368 . S
C1058 C1052 1.368 . S
C1058 C1057 1.523 . S
C1059 C1043 1.429 . S
C1059 C1055 1.429 . S
C1059 C1060 1.523 . S
C1060 C1044 1.368 . S
C1060 C1056 1.368 . S
C1060 C1059 1.523 . S
H1061 C1036 0.950 . S
H1062 C1038 0.950 . S
H1063 C1039 0.949 . S
H1064 C1041 0.950 . S
H1065 C1043 0.950 . S
C1066 C1067 1.349 . S
C1066 C1068 1.327 . S
C1066 H1091 0.950 . S
C1067 C1066 1.349 . S
C1067 C1083 1.349 . S
C1068 C1066 1.327 . S
C1068 C1087 1.429 . S
C1068 H1092 0.950 . S
C1069 C1086 1.574 . S
C1069 C1088 1.368 . S
C1069 H1093 0.949 . S
H1070 C1074 0.949 . S
C1071 C1072 1.349 . S
C1071 C1073 1.327 . S
C1071 H1094 0.950 . S
C1072 C1071 1.349 . S
C1072 C1084 1.349 . S
C1073 C1071 1.327 . S
C1073 C1089 1.429 . S
C1073 H1095 0.950 . S
C1074 H1070 0.949 . S
C1074 C1082 1.574 . S
C1074 C1090 1.368 . S
H1075 C1083 0.950 . S
H1076 C1081 0.950 . S
H1077 C1082 0.949 . S
H1078 C1084 0.950 . S
H1079 C1085 0.950 . S
H1080 C1086 0.949 . S
C1081 H1076 0.950 . S
C1081 C1083 1.327 . S
C1081 C1087 1.429 . S
C1082 C1074 1.574 . S
C1082 H1077 0.949 . S
C1082 C1088 1.368 . S
C1083 C1067 1.349 . S
C1083 H1075 0.950 . S
C1083 C1081 1.327 . S
C1084 C1072 1.349 . S
C1084 H1078 0.950 . S
C1084 C1085 1.327 . S
C1085 H1079 0.950 . S
C1085 C1084 1.327 . S
C1085 C1089 1.429 . S
C1086 C1069 1.574 . S
C1086 H1080 0.949 . S
C1086 C1090 1.368 . S
C1087 C1068 1.429 . S
C1087 C1081 1.429 . S
C1087 C1088 1.523 . S
C1088 C1069 1.368 . S
C1088 C1082 1.368 . S
C1088 C1087 1.523 . S
C1089 C1073 1.429 . S
C1089 C1085 1.429 . S
C1089 C1090 1.523 . S
C1090 C1074 1.368 . S
C1090 C1086 1.368 . S
C1090 C1089 1.523 . S
H1091 C1066 0.950 . S
H1092 C1068 0.950 . S
H1093 C1069 0.949 . S
H1094 C1071 0.950 . S
H1095 C1073 0.950 . S
C1096 C1097 1.349 . S
C1096 C1098 1.327 . S
C1096 H1121 0.950 1_455 S
C1097 C1096 1.349 . S
C1097 C1113 1.349 . S
C1098 C1096 1.327 . S
C1098 C1117 1.429 . S
C1098 H1122 0.950 . S
C1099 C1116 1.574 . S
C1099 C1118 1.368 . S
C1099 H1123 0.949 . S
H1100 C1104 0.949 . S
C1101 C1102 1.349 . S
C1101 C1103 1.327 . S
C1101 H1124 0.950 . S
C1102 C1101 1.349 . S
C1102 C1114 1.349 . S
C1103 C1101 1.327 . S
C1103 C1119 1.429 . S
C1103 H1125 0.950 . S
C1104 H1100 0.949 . S
C1104 C1112 1.574 . S
C1104 C1120 1.368 . S
H1105 C1113 0.950 . S
H1106 C1111 0.950 . S
H1107 C1112 0.949 . S
H1108 C1114 0.950 . S
H1109 C1115 0.950 . S
H1110 C1116 0.949 . S
C1111 H1106 0.950 . S
C1111 C1113 1.327 . S
C1111 C1117 1.429 . S
C1112 C1104 1.574 . S
C1112 H1107 0.949 . S
C1112 C1118 1.368 . S
C1113 C1097 1.349 . S
C1113 H1105 0.950 . S
C1113 C1111 1.327 . S
C1114 C1102 1.349 . S
C1114 H1108 0.950 . S
C1114 C1115 1.327 . S
C1115 H1109 0.950 . S
C1115 C1114 1.327 . S
C1115 C1119 1.429 . S
C1116 C1099 1.574 . S
C1116 H1110 0.949 . S
C1116 C1120 1.368 . S
C1117 C1098 1.429 . S
C1117 C1111 1.429 . S
C1117 C1118 1.523 . S
C1118 C1099 1.368 . S
C1118 C1112 1.368 . S
C1118 C1117 1.523 . S
C1119 C1103 1.429 . S
C1119 C1115 1.429 . S
C1119 C1120 1.523 . S
C1120 C1104 1.368 . S
C1120 C1116 1.368 . S
C1120 C1119 1.523 . S
H1121 C1096 0.950 1_655 S
H1122 C1098 0.950 . S
H1123 C1099 0.949 . S
H1124 C1101 0.950 . S
H1125 C1103 0.950 . S
C1126 C1127 1.349 . S
C1126 C1128 1.327 . S
C1126 H1151 0.950 . S
C1127 C1126 1.349 . S
C1127 C1143 1.349 . S
C1128 C1126 1.327 . S
C1128 C1147 1.429 . S
C1128 H1152 0.950 . S
C1129 C1146 1.574 . S
C1129 C1148 1.368 . S
C1129 H1153 0.949 . S
H1130 C1134 0.949 . S
C1131 C1132 1.349 . S
C1131 C1133 1.327 . S
C1131 H1154 0.950 . S
C1132 C1131 1.349 . S
C1132 C1144 1.349 . S
C1133 C1131 1.327 . S
C1133 C1149 1.429 . S
C1133 H1155 0.950 . S
C1134 H1130 0.949 . S
C1134 C1142 1.574 . S
C1134 C1150 1.368 . S
H1135 C1143 0.950 . S
H1136 C1141 0.950 . S
H1137 C1142 0.949 . S
H1138 C1144 0.950 . S
H1139 C1145 0.950 . S
H1140 C1146 0.949 . S
C1141 H1136 0.950 . S
C1141 C1143 1.327 . S
C1141 C1147 1.429 . S
C1142 C1134 1.574 . S
C1142 H1137 0.949 . S
C1142 C1148 1.368 . S
C1143 C1127 1.349 . S
C1143 H1135 0.950 . S
C1143 C1141 1.327 . S
C1144 C1132 1.349 . S
C1144 H1138 0.950 . S
C1144 C1145 1.327 . S
C1145 H1139 0.950 . S
C1145 C1144 1.327 . S
C1145 C1149 1.429 . S
C1146 C1129 1.574 . S
C1146 H1140 0.949 . S
C1146 C1150 1.368 . S
C1147 C1128 1.429 . S
C1147 C1141 1.429 . S
C1147 C1148 1.523 . S
C1148 C1129 1.368 . S
C1148 C1142 1.368 . S
C1148 C1147 1.523 . S
C1149 C1133 1.429 . S
C1149 C1145 1.429 . S
C1149 C1150 1.523 . S
C1150 C1134 1.368 . S
C1150 C1146 1.368 . S
C1150 C1149 1.523 . S
H1151 C1126 0.950 . S
H1152 C1128 0.950 . S
H1153 C1129 0.949 . S
H1154 C1131 0.950 . S
H1155 C1133 0.950 . S
C1156 C1157 1.349 . S
C1156 C1158 1.327 . S
C1156 H1181 0.950 . S
C1157 C1156 1.349 . S
C1157 C1173 1.349 . S
C1158 C1156 1.327 . S
C1158 C1177 1.429 . S
C1158 H1182 0.950 . S
C1159 C1176 1.574 . S
C1159 C1178 1.368 . S
C1159 H1183 0.949 . S
H1160 C1164 0.949 . S
C1161 C1162 1.349 . S
C1161 C1163 1.327 . S
C1161 H1184 0.950 . S
C1162 C1161 1.349 . S
C1162 C1174 1.349 . S
C1163 C1161 1.327 . S
C1163 C1179 1.429 . S
C1163 H1185 0.950 . S
C1164 H1160 0.949 . S
C1164 C1172 1.574 . S
C1164 C1180 1.368 . S
H1165 C1173 0.950 . S
H1166 C1171 0.950 . S
H1167 C1172 0.949 . S
H1168 C1174 0.950 . S
H1169 C1175 0.950 . S
H1170 C1176 0.949 . S
C1171 H1166 0.950 . S
C1171 C1173 1.327 . S
C1171 C1177 1.429 . S
C1172 C1164 1.574 . S
C1172 H1167 0.949 . S
C1172 C1178 1.368 . S
C1173 C1157 1.349 . S
C1173 H1165 0.950 . S
C1173 C1171 1.327 . S
C1174 C1162 1.349 . S
C1174 H1168 0.950 . S
C1174 C1175 1.327 . S
C1175 H1169 0.950 . S
C1175 C1174 1.327 . S
C1175 C1179 1.429 . S
C1176 C1159 1.574 . S
C1176 H1170 0.949 . S
C1176 C1180 1.368 . S
C1177 C1158 1.429 . S
C1177 C1171 1.429 . S
C1177 C1178 1.523 . S
C1178 C1159 1.368 . S
C1178 C1172 1.368 . S
C1178 C1177 1.523 . S
C1179 C1163 1.429 . S
C1179 C1175 1.429 . S
C1179 C1180 1.523 . S
C1180 C1164 1.368 . S
C1180 C1176 1.368 . S
C1180 C1179 1.523 . S
H1181 C1156 0.950 . S
H1182 C1158 0.950 . S
H1183 C1159 0.949 . S
H1184 C1161 0.950 . S
H1185 C1163 0.950 . S
C1186 C1187 1.349 . S
C1186 C1188 1.327 . S
C1186 H1211 0.950 . S
C1187 C1186 1.349 . S
C1187 C1203 1.349 . S
C1188 C1186 1.327 . S
C1188 C1207 1.429 . S
C1188 H1212 0.950 . S
C1189 C1206 1.574 . S
C1189 C1208 1.368 . S
C1189 H1213 0.949 . S
H1190 C1194 0.949 . S
C1191 C1192 1.349 . S
C1191 C1193 1.327 . S
C1191 H1214 0.950 . S
C1192 C1191 1.349 . S
C1192 C1204 1.349 . S
C1193 C1191 1.327 . S
C1193 C1209 1.429 . S
C1193 H1215 0.950 . S
C1194 H1190 0.949 . S
C1194 C1202 1.574 . S
C1194 C1210 1.368 . S
H1195 C1203 0.950 . S
H1196 C1201 0.950 . S
H1197 C1202 0.949 . S
H1198 C1204 0.950 . S
H1199 C1205 0.950 . S
H1200 C1206 0.949 . S
C1201 H1196 0.950 . S
C1201 C1203 1.327 . S
C1201 C1207 1.429 . S
C1202 C1194 1.574 . S
C1202 H1197 0.949 . S
C1202 C1208 1.368 . S
C1203 C1187 1.349 . S
C1203 H1195 0.950 . S
C1203 C1201 1.327 . S
C1204 C1192 1.349 . S
C1204 H1198 0.950 . S
C1204 C1205 1.327 . S
C1205 H1199 0.950 . S
C1205 C1204 1.327 . S
C1205 C1209 1.429 . S
C1206 C1189 1.574 . S
C1206 H1200 0.949 . S
C1206 C1210 1.368 . S
C1207 C1188 1.429 . S
C1207 C1201 1.429 . S
C1207 C1208 1.523 . S
C1208 C1189 1.368 . S
C1208 C1202 1.368 . S
C1208 C1207 1.523 . S
C1209 C1193 1.429 . S
C1209 C1205 1.429 . S
C1209 C1210 1.523 . S
C1210 C1194 1.368 . S
C1210 C1206 1.368 . S
C1210 C1209 1.523 . S
H1211 C1186 0.950 . S
H1212 C1188 0.950 . S
H1213 C1189 0.949 . S
H1214 C1191 0.950 . S
H1215 C1193 0.950 . S
C1216 C1217 1.349 . S
C1216 C1218 1.327 . S
C1216 H1241 0.950 . S
C1217 C1216 1.349 . S
C1217 C1233 1.349 . S
C1218 C1216 1.327 . S
C1218 C1237 1.429 . S
C1218 H1242 0.950 . S
C1219 C1236 1.574 . S
C1219 C1238 1.368 1_455 S
C1219 H1243 0.949 . S
H1220 C1224 0.949 . S
C1221 C1222 1.349 . S
C1221 C1223 1.327 . S
C1221 H1244 0.950 . S
C1222 C1221 1.349 . S
C1222 C1234 1.349 . S
C1223 C1221 1.327 . S
C1223 C1239 1.429 . S
C1223 H1245 0.950 . S
C1224 H1220 0.949 . S
C1224 C1232 1.574 . S
C1224 C1240 1.368 1_655 S
H1225 C1233 0.950 . S
H1226 C1231 0.931 1_455 S
H1227 C1232 0.949 . S
H1228 C1234 0.950 . S
H1229 C1235 0.920 1_655 S
H1230 C1236 0.949 . S
C1231 H1226 0.931 1_655 S
C1231 C1233 1.327 . S
C1231 C1237 1.429 . S
C1232 C1224 1.574 . S
C1232 H1227 0.949 . S
C1232 C1238 1.368 . S
C1233 C1217 1.349 . S
C1233 H1225 0.950 . S
C1233 C1231 1.327 . S
C1234 C1222 1.349 . S
C1234 H1228 0.950 . S
C1234 C1235 1.348 . S
C1235 H1229 0.920 1_455 S
C1235 C1234 1.348 . S
C1235 C1239 1.438 . S
C1236 C1219 1.574 . S
C1236 H1230 0.949 . S
C1236 C1240 1.368 . S
C1237 C1218 1.429 . S
C1237 C1231 1.429 . S
C1237 C1238 1.523 . S
C1238 C1219 1.368 1_655 S
C1238 C1232 1.368 . S
C1238 C1237 1.523 . S
C1239 C1223 1.429 . S
C1239 C1235 1.438 . S
C1239 C1240 1.523 . S
C1240 C1224 1.368 1_455 S
C1240 C1236 1.368 . S
C1240 C1239 1.523 . S
H1241 C1216 0.950 . S
H1242 C1218 0.950 . S
H1243 C1219 0.949 . S
H1244 C1221 0.950 . S
H1245 C1223 0.950 . S
C1246 C1247 1.349 . S
C1246 C1248 1.327 . S
C1246 H1271 0.950 . S
C1247 C1246 1.349 . S
C1247 C1263 1.349 . S
C1248 C1246 1.327 . S
C1248 C1267 1.429 . S
C1248 H1272 0.950 . S
C1249 C1266 1.574 . S
C1249 C1268 1.368 . S
C1249 H1273 0.949 . S
H1250 C1254 0.949 . S
C1251 C1252 1.349 . S
C1251 C1253 1.327 . S
C1251 H1274 0.950 . S
C1252 C1251 1.349 . S
C1252 C1264 1.349 . S
C1253 C1251 1.327 . S
C1253 C1269 1.429 . S
C1253 H1275 0.950 . S
C1254 H1250 0.949 . S
C1254 C1262 1.574 . S
C1254 C1270 1.368 . S
H1255 C1263 0.950 . S
H1256 C1261 0.950 . S
H1257 C1262 0.949 . S
H1258 C1264 0.950 . S
H1259 C1265 0.950 . S
H1260 C1266 0.949 . S
C1261 H1256 0.950 . S
C1261 C1263 1.327 . S
C1261 C1267 1.429 . S
C1262 C1254 1.574 . S
C1262 H1257 0.949 . S
C1262 C1268 1.368 . S
C1263 C1247 1.349 . S
C1263 H1255 0.950 . S
C1263 C1261 1.327 . S
C1264 C1252 1.349 . S
C1264 H1258 0.950 . S
C1264 C1265 1.327 . S
C1265 H1259 0.950 . S
C1265 C1264 1.327 . S
C1265 C1269 1.429 . S
C1266 C1249 1.574 . S
C1266 H1260 0.949 . S
C1266 C1270 1.368 . S
C1267 C1248 1.429 . S
C1267 C1261 1.429 . S
C1267 C1268 1.523 . S
C1268 C1249 1.368 . S
C1268 C1262 1.368 . S
C1268 C1267 1.523 . S
C1269 C1253 1.429 . S
C1269 C1265 1.429 . S
C1269 C1270 1.523 . S
C1270 C1254 1.368 . S
C1270 C1266 1.368 . S
C1270 C1269 1.523 . S
H1271 C1246 0.950 . S
H1272 C1248 0.950 . S
H1273 C1249 0.949 . S
H1274 C1251 0.950 . S
H1275 C1253 0.950 . S
C1276 C1277 1.349 . S
C1276 C1278 1.327 . S
C1276 H1301 0.950 . S
C1277 C1276 1.349 . S
C1277 C1293 1.349 . S
C1278 C1276 1.327 . S
C1278 C1297 1.429 . S
C1278 H1302 0.950 . S
C1279 C1296 1.574 . S
C1279 C1298 1.368 . S
C1279 H1303 0.949 . S
H1280 C1284 0.949 . S
C1281 C1282 1.349 . S
C1281 C1283 1.327 . S
C1281 H1304 0.950 . S
C1282 C1281 1.349 . S
C1282 C1294 1.349 . S
C1283 C1281 1.327 . S
C1283 C1299 1.429 . S
C1283 H1305 0.950 . S
C1284 H1280 0.949 . S
C1284 C1292 1.574 . S
C1284 C1300 1.368 . S
H1285 C1293 0.950 . S
H1286 C1291 0.950 . S
H1287 C1292 0.949 . S
H1288 C1294 0.950 . S
H1289 C1295 0.950 . S
H1290 C1296 0.949 . S
C1291 H1286 0.950 . S
C1291 C1293 1.327 . S
C1291 C1297 1.429 . S
C1292 C1284 1.574 . S
C1292 H1287 0.949 . S
C1292 C1298 1.368 . S
C1293 C1277 1.349 . S
C1293 H1285 0.950 . S
C1293 C1291 1.327 . S
C1294 C1282 1.349 . S
C1294 H1288 0.950 . S
C1294 C1295 1.327 . S
C1295 H1289 0.950 . S
C1295 C1294 1.327 . S
C1295 C1299 1.429 . S
C1296 C1279 1.574 . S
C1296 H1290 0.949 . S
C1296 C1300 1.368 . S
C1297 C1278 1.429 . S
C1297 C1291 1.429 . S
C1297 C1298 1.523 . S
C1298 C1279 1.368 . S
C1298 C1292 1.368 . S
C1298 C1297 1.523 . S
C1299 C1283 1.429 . S
C1299 C1295 1.429 . S
C1299 C1300 1.523 . S
C1300 C1284 1.368 . S
C1300 C1296 1.368 . S
C1300 C1299 1.523 . S
H1301 C1276 0.950 . S
H1302 C1278 0.950 . S
H1303 C1279 0.949 . S
H1304 C1281 0.950 . S
H1305 C1283 0.950 . S
C1306 C1307 1.349 . S
C1306 C1308 1.327 . S
C1306 H1331 0.950 . S
C1307 C1306 1.349 . S
C1307 C1323 1.349 . S
C1308 C1306 1.327 . S
C1308 C1327 1.429 . S
C1308 H1332 0.950 . S
C1309 C1326 1.574 . S
C1309 C1328 1.368 . S
C1309 H1333 0.949 . S
H1310 C1314 0.949 . S
C1311 C1312 1.349 . S
C1311 C1313 1.327 . S
C1311 H1334 0.950 . S
C1312 C1311 1.349 . S
C1312 C1324 1.349 . S
C1313 C1311 1.327 . S
C1313 C1329 1.429 . S
C1313 H1335 0.950 . S
C1314 H1310 0.949 . S
C1314 C1322 1.574 . S
C1314 C1330 1.368 . S
H1315 C1323 0.950 . S
H1316 C1321 0.950 . S
H1317 C1322 0.949 . S
H1318 C1324 0.950 . S
H1319 C1325 0.950 . S
H1320 C1326 0.949 . S
C1321 H1316 0.950 . S
C1321 C1323 1.327 . S
C1321 C1327 1.429 . S
C1322 C1314 1.574 . S
C1322 H1317 0.949 . S
C1322 C1328 1.368 . S
C1323 C1307 1.349 . S
C1323 H1315 0.950 . S
C1323 C1321 1.327 . S
C1324 C1312 1.349 . S
C1324 H1318 0.950 . S
C1324 C1325 1.327 . S
C1325 H1319 0.950 . S
C1325 C1324 1.327 . S
C1325 C1329 1.429 . S
C1326 C1309 1.574 . S
C1326 H1320 0.949 . S
C1326 C1330 1.368 . S
C1327 C1308 1.429 . S
C1327 C1321 1.429 . S
C1327 C1328 1.523 . S
C1328 C1309 1.368 . S
C1328 C1322 1.368 . S
C1328 C1327 1.523 . S
C1329 C1313 1.429 . S
C1329 C1325 1.429 . S
C1329 C1330 1.523 . S
C1330 C1314 1.368 . S
C1330 C1326 1.368 . S
C1330 C1329 1.523 . S
H1331 C1306 0.950 . S
H1332 C1308 0.950 . S
H1333 C1309 0.949 . S
H1334 C1311 0.950 . S
H1335 C1313 0.950 . S
C1336 C1337 1.349 . S
C1336 C1338 1.327 . S
C1336 H1361 0.950 . S
C1337 C1336 1.349 . S
C1337 C1353 1.349 . S
C1338 C1336 1.327 . S
C1338 C1357 1.429 . S
C1338 H1362 0.950 . S
C1339 C1356 1.590 . S
C1339 C1358 1.331 1_455 S
C1339 H1363 0.969 . S
H1340 C1344 0.949 . S
C1341 C1342 1.349 . S
C1341 C1343 1.327 . S
C1341 H1364 0.950 . S
C1342 C1341 1.349 . S
C1342 C1354 1.349 . S
C1343 C1341 1.327 . S
C1343 C1359 1.429 . S
C1343 H1365 0.950 . S
C1344 H1340 0.949 . S
C1344 C1352 1.574 . S
C1344 C1360 1.368 1_655 S
H1345 C1353 0.950 . S
H1346 C1351 0.950 . S
H1347 C1352 0.949 . S
H1348 C1354 0.950 . S
H1349 C1355 0.950 1_655 S
H1350 C1356 0.949 . S
C1351 H1346 0.950 . S
C1351 C1353 1.327 . S
C1351 C1357 1.429 . S
C1352 C1344 1.574 . S
C1352 H1347 0.949 . S
C1352 C1358 1.368 . S
C1353 C1337 1.349 . S
C1353 H1345 0.950 . S
C1353 C1351 1.327 . S
C1354 C1342 1.349 . S
C1354 H1348 0.950 . S
C1354 C1355 1.327 . S
C1355 H1349 0.950 1_455 S
C1355 C1354 1.327 . S
C1355 C1359 1.429 . S
C1356 C1339 1.590 . S
C1356 H1350 0.949 . S
C1356 C1360 1.368 . S
C1357 C1338 1.429 . S
C1357 C1351 1.429 . S
C1357 C1358 1.523 . S
C1358 C1339 1.331 1_655 S
C1358 C1352 1.368 . S
C1358 C1357 1.523 . S
C1359 C1343 1.429 . S
C1359 C1355 1.429 . S
C1359 C1360 1.523 . S
C1360 C1344 1.368 1_455 S
C1360 C1356 1.368 . S
C1360 C1359 1.523 . S
H1361 C1336 0.950 . S
H1362 C1338 0.950 . S
H1363 C1339 0.969 . S
H1364 C1341 0.950 . S
H1365 C1343 0.950 . S
C1366 C1367 1.349 . S
C1366 C1368 1.327 . S
C1366 H1391 0.950 . S
C1367 C1366 1.349 . S
C1367 C1383 1.349 . S
C1368 C1366 1.327 . S
C1368 C1387 1.429 . S
C1368 H1392 0.950 . S
C1369 C1386 1.574 . S
C1369 C1388 1.368 . S
C1369 H1393 0.949 . S
H1370 C1374 0.949 . S
C1371 C1372 1.349 . S
C1371 C1373 1.327 . S
C1371 H1394 0.950 . S
C1372 C1371 1.349 . S
C1372 C1384 1.349 . S
C1373 C1371 1.327 . S
C1373 C1389 1.429 . S
C1373 H1395 0.950 . S
C1374 H1370 0.949 . S
C1374 C1382 1.574 . S
C1374 C1390 1.368 . S
H1375 C1383 0.950 . S
H1376 C1381 0.950 . S
H1377 C1382 0.949 . S
H1378 C1384 0.950 . S
H1379 C1385 0.950 . S
H1380 C1386 0.949 . S
C1381 H1376 0.950 . S
C1381 C1383 1.327 . S
C1381 C1387 1.429 . S
C1382 C1374 1.574 . S
C1382 H1377 0.949 . S
C1382 C1388 1.368 . S
C1383 C1367 1.349 . S
C1383 H1375 0.950 . S
C1383 C1381 1.327 . S
C1384 C1372 1.349 . S
C1384 H1378 0.950 . S
C1384 C1385 1.327 . S
C1385 H1379 0.950 . S
C1385 C1384 1.327 . S
C1385 C1389 1.429 . S
C1386 C1369 1.574 . S
C1386 H1380 0.949 . S
C1386 C1390 1.368 . S
C1387 C1368 1.429 . S
C1387 C1381 1.429 . S
C1387 C1388 1.523 . S
C1388 C1369 1.368 . S
C1388 C1382 1.368 . S
C1388 C1387 1.523 . S
C1389 C1373 1.429 . S
C1389 C1385 1.429 . S
C1389 C1390 1.523 . S
C1390 C1374 1.368 . S
C1390 C1386 1.368 . S
C1390 C1389 1.523 . S
H1391 C1366 0.950 . S
H1392 C1368 0.950 . S
H1393 C1369 0.949 . S
H1394 C1371 0.950 . S
H1395 C1373 0.950 . S
C1396 C1397 1.349 . S
C1396 C1398 1.327 . S
C1396 H1421 0.950 . S
C1397 C1396 1.349 . S
C1397 C1413 1.349 . S
C1398 C1396 1.327 . S
C1398 C1417 1.429 . S
C1398 H1422 0.950 . S
C1399 C1416 1.574 . S
C1399 C1418 1.368 . S
C1399 H1423 0.949 . S
H1400 C1404 0.949 . S
C1401 C1402 1.349 . S
C1401 C1403 1.327 . S
C1401 H1424 0.950 . S
C1402 C1401 1.349 . S
C1402 C1414 1.349 . S
C1403 C1401 1.327 . S
C1403 C1419 1.429 . S
C1403 H1425 0.950 . S
C1404 H1400 0.949 . S
C1404 C1412 1.574 . S
C1404 C1420 1.368 . S
H1405 C1413 0.950 . S
H1406 C1411 0.950 . S
H1407 C1412 0.949 . S
H1408 C1414 0.950 . S
H1409 C1415 0.950 . S
H1410 C1416 0.949 . S
C1411 H1406 0.950 . S
C1411 C1413 1.327 . S
C1411 C1417 1.429 . S
C1412 C1404 1.574 . S
C1412 H1407 0.949 . S
C1412 C1418 1.368 . S
C1413 C1397 1.349 . S
C1413 H1405 0.950 . S
C1413 C1411 1.327 . S
C1414 C1402 1.349 . S
C1414 H1408 0.950 . S
C1414 C1415 1.327 . S
C1415 H1409 0.950 . S
C1415 C1414 1.327 . S
C1415 C1419 1.429 . S
C1416 C1399 1.574 . S
C1416 H1410 0.949 . S
C1416 C1420 1.368 . S
C1417 C1398 1.429 . S
C1417 C1411 1.429 . S
C1417 C1418 1.523 . S
C1418 C1399 1.368 . S
C1418 C1412 1.368 . S
C1418 C1417 1.523 . S
C1419 C1403 1.429 . S
C1419 C1415 1.429 . S
C1419 C1420 1.523 . S
C1420 C1404 1.368 . S
C1420 C1416 1.368 . S
C1420 C1419 1.523 . S
H1421 C1396 0.950 . S
H1422 C1398 0.950 . S
H1423 C1399 0.949 . S
H1424 C1401 0.950 . S
H1425 C1403 0.950 . S
C1426 C1427 1.349 . S
C1426 C1428 1.327 . S
C1426 H1451 0.950 . S
C1427 C1426 1.349 . S
C1427 C1443 1.349 . S
C1428 C1426 1.327 . S
C1428 C1447 1.429 . S
C1428 H1452 0.950 . S
C1429 C1446 1.574 . S
C1429 C1448 1.368 . S
C1429 H1453 0.949 . S
H1430 C1434 0.949 . S
C1431 C1432 1.349 . S
C1431 C1433 1.327 . S
C1431 H1454 0.950 . S
C1432 C1431 1.349 . S
C1432 C1444 1.349 . S
C1433 C1431 1.327 . S
C1433 C1449 1.429 . S
C1433 H1455 0.950 . S
C1434 H1430 0.949 . S
C1434 C1442 1.574 . S
C1434 C1450 1.368 . S
H1435 C1443 0.950 . S
H1436 C1441 0.950 . S
H1437 C1442 0.949 . S
H1438 C1444 0.950 . S
H1439 C1445 0.950 . S
H1440 C1446 0.949 . S
C1441 H1436 0.950 . S
C1441 C1443 1.327 . S
C1441 C1447 1.429 . S
C1442 C1434 1.574 . S
C1442 H1437 0.949 . S
C1442 C1448 1.368 . S
C1443 C1427 1.349 . S
C1443 H1435 0.950 . S
C1443 C1441 1.327 . S
C1444 C1432 1.349 . S
C1444 H1438 0.950 . S
C1444 C1445 1.327 . S
C1445 H1439 0.950 . S
C1445 C1444 1.327 . S
C1445 C1449 1.429 . S
C1446 C1429 1.574 . S
C1446 H1440 0.949 . S
C1446 C1450 1.368 . S
C1447 C1428 1.429 . S
C1447 C1441 1.429 . S
C1447 C1448 1.523 . S
C1448 C1429 1.368 . S
C1448 C1442 1.368 . S
C1448 C1447 1.523 . S
C1449 C1433 1.429 . S
C1449 C1445 1.429 . S
C1449 C1450 1.523 . S
C1450 C1434 1.368 . S
C1450 C1446 1.368 . S
C1450 C1449 1.523 . S
H1451 C1426 0.950 . S
H1452 C1428 0.950 . S
H1453 C1429 0.949 . S
H1454 C1431 0.950 . S
H1455 C1433 0.950 . S
C1456 C1457 1.349 . S
C1456 C1458 1.327 . S
C1456 H1481 0.950 1_554 S
C1457 C1456 1.349 . S
C1457 C1473 1.349 . S
C1458 C1456 1.327 . S
C1458 C1477 1.429 . S
C1458 H1482 0.950 1_554 S
C1459 C1476 1.574 . S
C1459 C1478 1.368 . S
C1459 H1483 0.949 . S
H1460 C1464 0.949 . S
C1461 C1462 1.349 . S
C1461 C1463 1.327 1_545 S
C1461 H1484 0.950 . S
C1462 C1461 1.349 . S
C1462 C1474 1.349 1_545 S
C1463 C1461 1.327 1_565 S
C1463 C1479 1.429 . S
C1463 H1485 0.953 1_565 S
C1464 H1460 0.949 . S
C1464 C1472 1.574 . S
C1464 C1480 1.368 . S
H1465 C1473 0.950 . S
H1466 C1471 0.950 . S
H1467 C1472 0.939 1_556 S
H1468 C1474 0.950 . S
H1469 C1475 0.950 . S
H1470 C1476 0.949 . S
C1471 H1466 0.950 . S
C1471 C1473 1.327 . S
C1471 C1477 1.429 . S
C1472 C1464 1.574 . S
C1472 H1467 0.939 1_554 S
C1472 C1478 1.368 . S
C1473 C1457 1.349 . S
C1473 H1465 0.950 . S
C1473 C1471 1.327 . S
C1474 C1462 1.349 1_565 S
C1474 H1468 0.950 . S
C1474 C1475 1.327 . S
C1475 H1469 0.950 . S
C1475 C1474 1.327 . S
C1475 C1479 1.429 . S
C1476 C1459 1.574 . S
C1476 H1470 0.949 . S
C1476 C1480 1.368 . S
C1477 C1458 1.429 . S
C1477 C1471 1.429 . S
C1477 C1478 1.523 . S
C1478 C1459 1.368 . S
C1478 C1472 1.368 . S
C1478 C1477 1.523 . S
C1479 C1463 1.429 . S
C1479 C1475 1.429 . S
C1479 C1480 1.523 . S
C1480 C1464 1.368 . S
C1480 C1476 1.368 . S
C1480 C1479 1.523 . S
H1481 C1456 0.950 1_556 S
H1482 C1458 0.950 1_556 S
H1483 C1459 0.949 . S
H1484 C1461 0.950 . S
H1485 C1463 0.953 1_545 S
C1486 C1487 1.349 1_554 S
C1486 C1488 1.327 . S
C1486 H1511 0.950 . S
C1487 C1486 1.349 1_556 S
C1487 C1503 1.349 . S
C1488 C1486 1.327 . S
C1488 C1507 1.429 1_554 S
C1488 H1512 0.950 . S
C1489 C1506 1.574 . S
C1489 C1508 1.400 . S
C1489 H1513 0.949 . S
H1490 C1494 0.949 . S
C1491 C1492 1.349 1_556 S
C1491 C1493 1.327 . S
C1491 H1514 0.950 . S
C1492 C1491 1.349 1_554 S
C1492 C1504 1.349 . S
C1493 C1491 1.327 . S
C1493 C1509 1.415 1_556 S
C1493 H1515 0.950 . S
C1494 H1490 0.949 . S
C1494 C1502 1.574 . S
C1494 C1510 1.373 1_554 S
H1495 C1503 0.950 . S
H1496 C1501 0.950 . S
H1497 C1502 0.949 . S
H1498 C1504 0.950 . S
H1499 C1505 0.950 . S
H1500 C1506 0.949 . S
C1501 H1496 0.950 . S
C1501 C1503 1.327 . S
C1501 C1507 1.429 . S
C1502 C1494 1.574 . S
C1502 H1497 0.949 . S
C1502 C1508 1.329 1_554 S
C1503 C1487 1.349 . S
C1503 H1495 0.950 . S
C1503 C1501 1.327 . S
C1504 C1492 1.349 . S
C1504 H1498 0.950 . S
C1504 C1505 1.327 . S
C1505 H1499 0.950 . S
C1505 C1504 1.327 . S
C1505 C1509 1.448 . S
C1506 C1489 1.574 . S
C1506 H1500 0.949 . S
C1506 C1510 1.363 . S
C1507 C1488 1.429 1_556 S
C1507 C1501 1.429 . S
C1507 C1508 1.534 . S
C1508 C1489 1.400 . S
C1508 C1502 1.329 1_556 S
C1508 C1507 1.534 . S
C1509 C1493 1.415 1_554 S
C1509 C1505 1.448 . S
C1509 C1510 1.519 1_554 S
C1510 C1494 1.373 1_556 S
C1510 C1506 1.363 . S
C1510 C1509 1.519 1_556 S
H1511 C1486 0.950 . S
H1512 C1488 0.950 . S
H1513 C1489 0.949 . S
H1514 C1491 0.950 . S
H1515 C1493 0.950 . S
C1516 C1517 1.349 . S
C1516 C1518 1.327 . S
C1516 H1541 0.950 . S
C1517 C1516 1.349 . S
C1517 C1533 1.349 . S
C1518 C1516 1.327 . S
C1518 C1537 1.429 . S
C1518 H1542 0.950 . S
C1519 C1536 1.574 . S
C1519 C1538 1.368 . S
C1519 H1543 0.949 . S
H1520 C1524 0.949 . S
C1521 C1522 1.349 . S
C1521 C1523 1.327 . S
C1521 H1544 0.950 . S
C1522 C1521 1.349 . S
C1522 C1534 1.349 . S
C1523 C1521 1.327 . S
C1523 C1539 1.429 . S
C1523 H1545 0.950 . S
C1524 H1520 0.949 . S
C1524 C1532 1.574 . S
C1524 C1540 1.368 . S
H1525 C1533 0.950 . S
H1526 C1531 0.950 . S
H1527 C1532 0.949 . S
H1528 C1534 0.950 . S
H1529 C1535 0.950 . S
H1530 C1536 0.949 . S
C1531 H1526 0.950 . S
C1531 C1533 1.327 . S
C1531 C1537 1.429 . S
C1532 C1524 1.574 . S
C1532 H1527 0.949 . S
C1532 C1538 1.368 . S
C1533 C1517 1.349 . S
C1533 H1525 0.950 . S
C1533 C1531 1.327 . S
C1534 C1522 1.349 . S
C1534 H1528 0.950 . S
C1534 C1535 1.327 . S
C1535 H1529 0.950 . S
C1535 C1534 1.327 . S
C1535 C1539 1.429 . S
C1536 C1519 1.574 . S
C1536 H1530 0.949 . S
C1536 C1540 1.368 . S
C1537 C1518 1.429 . S
C1537 C1531 1.429 . S
C1537 C1538 1.523 . S
C1538 C1519 1.368 . S
C1538 C1532 1.368 . S
C1538 C1537 1.523 . S
C1539 C1523 1.429 . S
C1539 C1535 1.429 . S
C1539 C1540 1.523 . S
C1540 C1524 1.368 . S
C1540 C1536 1.368 . S
C1540 C1539 1.523 . S
H1541 C1516 0.950 . S
H1542 C1518 0.950 . S
H1543 C1519 0.949 . S
H1544 C1521 0.950 . S
H1545 C1523 0.950 . S
C1546 C1547 1.349 . S
C1546 C1548 1.327 . S
C1546 H1571 0.950 . S
C1547 C1546 1.349 . S
C1547 C1563 1.349 . S
C1548 C1546 1.327 . S
C1548 C1567 1.429 . S
C1548 H1572 0.950 . S
C1549 C1566 1.574 . S
C1549 C1568 1.368 . S
C1549 H1573 0.949 . S
H1550 C1554 0.949 . S
C1551 C1552 1.349 . S
C1551 C1553 1.327 . S
C1551 H1574 0.950 . S
C1552 C1551 1.349 . S
C1552 C1564 1.349 . S
C1553 C1551 1.327 . S
C1553 C1569 1.429 . S
C1553 H1575 0.950 . S
C1554 H1550 0.949 . S
C1554 C1562 1.574 . S
C1554 C1570 1.368 . S
H1555 C1563 0.950 . S
H1556 C1561 0.950 . S
H1557 C1562 0.949 . S
H1558 C1564 0.950 . S
H1559 C1565 0.950 . S
H1560 C1566 0.949 . S
C1561 H1556 0.950 . S
C1561 C1563 1.327 . S
C1561 C1567 1.429 . S
C1562 C1554 1.574 . S
C1562 H1557 0.949 . S
C1562 C1568 1.368 . S
C1563 C1547 1.349 . S
C1563 H1555 0.950 . S
C1563 C1561 1.327 . S
C1564 C1552 1.349 . S
C1564 H1558 0.950 . S
C1564 C1565 1.327 . S
C1565 H1559 0.950 . S
C1565 C1564 1.327 . S
C1565 C1569 1.429 . S
C1566 C1549 1.574 . S
C1566 H1560 0.949 . S
C1566 C1570 1.368 . S
C1567 C1548 1.429 . S
C1567 C1561 1.429 . S
C1567 C1568 1.523 . S
C1568 C1549 1.368 . S
C1568 C1562 1.368 . S
C1568 C1567 1.523 . S
C1569 C1553 1.429 . S
C1569 C1565 1.429 . S
C1569 C1570 1.523 . S
C1570 C1554 1.368 . S
C1570 C1566 1.368 . S
C1570 C1569 1.523 . S
H1571 C1546 0.950 . S
H1572 C1548 0.950 . S
H1573 C1549 0.949 . S
H1574 C1551 0.950 . S
H1575 C1553 0.950 . S
C1576 C1577 1.349 . S
C1576 C1578 1.327 . S
C1576 H1601 0.950 . S
C1577 C1576 1.349 . S
C1577 C1593 1.349 . S
C1578 C1576 1.327 . S
C1578 C1597 1.429 . S
C1578 H1602 0.950 . S
C1579 C1596 1.574 . S
C1579 C1598 1.368 . S
C1579 H1603 0.949 . S
H1580 C1584 0.949 . S
C1581 C1582 1.349 . S
C1581 C1583 1.327 . S
C1581 H1604 0.950 . S
C1582 C1581 1.349 . S
C1582 C1594 1.349 . S
C1583 C1581 1.327 . S
C1583 C1599 1.429 . S
C1583 H1605 0.950 . S
C1584 H1580 0.949 . S
C1584 C1592 1.574 . S
C1584 C1600 1.368 . S
H1585 C1593 0.950 . S
H1586 C1591 0.950 . S
H1587 C1592 0.949 . S
H1588 C1594 0.950 . S
H1589 C1595 0.950 . S
H1590 C1596 0.949 . S
C1591 H1586 0.950 . S
C1591 C1593 1.327 . S
C1591 C1597 1.429 . S
C1592 C1584 1.574 . S
C1592 H1587 0.949 . S
C1592 C1598 1.368 . S
C1593 C1577 1.349 . S
C1593 H1585 0.950 . S
C1593 C1591 1.327 . S
C1594 C1582 1.349 . S
C1594 H1588 0.950 . S
C1594 C1595 1.327 . S
C1595 H1589 0.950 . S
C1595 C1594 1.327 . S
C1595 C1599 1.429 . S
C1596 C1579 1.574 . S
C1596 H1590 0.949 . S
C1596 C1600 1.368 . S
C1597 C1578 1.429 . S
C1597 C1591 1.429 . S
C1597 C1598 1.523 . S
C1598 C1579 1.368 . S
C1598 C1592 1.368 . S
C1598 C1597 1.523 . S
C1599 C1583 1.429 . S
C1599 C1595 1.429 . S
C1599 C1600 1.523 . S
C1600 C1584 1.368 . S
C1600 C1596 1.368 . S
C1600 C1599 1.523 . S
H1601 C1576 0.950 . S
H1602 C1578 0.950 . S
H1603 C1579 0.949 . S
H1604 C1581 0.950 . S
H1605 C1583 0.950 . S
C1606 C1607 1.349 . S
C1606 C1608 1.327 . S
C1606 H1631 0.950 . S
C1607 C1606 1.349 . S
C1607 C1623 1.349 . S
C1608 C1606 1.327 . S
C1608 C1627 1.429 . S
C1608 H1632 0.950 . S
C1609 C1626 1.574 . S
C1609 C1628 1.368 . S
C1609 H1633 0.949 . S
H1610 C1614 0.949 . S
C1611 C1612 1.349 . S
C1611 C1613 1.327 . S
C1611 H1634 0.950 . S
C1612 C1611 1.349 . S
C1612 C1624 1.349 . S
C1613 C1611 1.327 . S
C1613 C1629 1.429 . S
C1613 H1635 0.950 . S
C1614 H1610 0.949 . S
C1614 C1622 1.574 . S
C1614 C1630 1.368 . S
H1615 C1623 0.950 . S
H1616 C1621 0.950 . S
H1617 C1622 0.949 . S
H1618 C1624 0.950 . S
H1619 C1625 0.950 . S
H1620 C1626 0.949 . S
C1621 H1616 0.950 . S
C1621 C1623 1.327 . S
C1621 C1627 1.429 . S
C1622 C1614 1.574 . S
C1622 H1617 0.949 . S
C1622 C1628 1.368 . S
C1623 C1607 1.349 . S
C1623 H1615 0.950 . S
C1623 C1621 1.327 . S
C1624 C1612 1.349 . S
C1624 H1618 0.950 . S
C1624 C1625 1.327 . S
C1625 H1619 0.950 . S
C1625 C1624 1.327 . S
C1625 C1629 1.429 . S
C1626 C1609 1.574 . S
C1626 H1620 0.949 . S
C1626 C1630 1.368 . S
C1627 C1608 1.429 . S
C1627 C1621 1.429 . S
C1627 C1628 1.523 . S
C1628 C1609 1.368 . S
C1628 C1622 1.368 . S
C1628 C1627 1.523 . S
C1629 C1613 1.429 . S
C1629 C1625 1.429 . S
C1629 C1630 1.523 . S
C1630 C1614 1.368 . S
C1630 C1626 1.368 . S
C1630 C1629 1.523 . S
H1631 C1606 0.950 . S
H1632 C1608 0.950 . S
H1633 C1609 0.949 . S
H1634 C1611 0.950 . S
H1635 C1613 0.950 . S
C1636 C1637 1.349 . S
C1636 C1638 1.327 . S
C1636 H1661 0.950 . S
C1637 C1636 1.349 . S
C1637 C1653 1.349 . S
C1638 C1636 1.327 . S
C1638 C1657 1.429 . S
C1638 H1662 0.950 . S
C1639 C1656 1.574 . S
C1639 C1658 1.368 . S
C1639 H1663 0.949 . S
H1640 C1644 0.949 . S
C1641 C1642 1.349 . S
C1641 C1643 1.327 . S
C1641 H1664 0.950 . S
C1642 C1641 1.349 . S
C1642 C1654 1.349 . S
C1643 C1641 1.327 . S
C1643 C1659 1.429 . S
C1643 H1665 0.950 . S
C1644 H1640 0.949 . S
C1644 C1652 1.574 . S
C1644 C1660 1.368 . S
H1645 C1653 0.950 . S
H1646 C1651 0.950 . S
H1647 C1652 0.949 . S
H1648 C1654 0.950 . S
H1649 C1655 0.950 . S
H1650 C1656 0.949 . S
C1651 H1646 0.950 . S
C1651 C1653 1.327 . S
C1651 C1657 1.429 . S
C1652 C1644 1.574 . S
C1652 H1647 0.949 . S
C1652 C1658 1.368 . S
C1653 C1637 1.349 . S
C1653 H1645 0.950 . S
C1653 C1651 1.327 . S
C1654 C1642 1.349 . S
C1654 H1648 0.950 . S
C1654 C1655 1.327 . S
C1655 H1649 0.950 . S
C1655 C1654 1.327 . S
C1655 C1659 1.429 . S
C1656 C1639 1.574 . S
C1656 H1650 0.949 . S
C1656 C1660 1.368 . S
C1657 C1638 1.429 . S
C1657 C1651 1.429 . S
C1657 C1658 1.523 . S
C1658 C1639 1.368 . S
C1658 C1652 1.368 . S
C1658 C1657 1.523 . S
C1659 C1643 1.429 . S
C1659 C1655 1.429 . S
C1659 C1660 1.523 . S
C1660 C1644 1.368 . S
C1660 C1656 1.368 . S
C1660 C1659 1.523 . S
H1661 C1636 0.950 . S
H1662 C1638 0.950 . S
H1663 C1639 0.949 . S
H1664 C1641 0.950 . S
H1665 C1643 0.950 . S
C1666 C1667 1.349 . S
C1666 C1668 1.327 . S
C1666 H1691 0.950 . S
C1667 C1666 1.349 . S
C1667 C1683 1.349 . S
C1668 C1666 1.327 . S
C1668 C1687 1.429 . S
C1668 H1692 0.950 . S
C1669 C1686 1.574 . S
C1669 C1688 1.368 . S
C1669 H1693 0.949 . S
H1670 C1674 0.949 . S
C1671 C1672 1.349 . S
C1671 C1673 1.327 . S
C1671 H1694 0.950 . S
C1672 C1671 1.349 . S
C1672 C1684 1.349 . S
C1673 C1671 1.327 . S
C1673 C1689 1.429 . S
C1673 H1695 0.950 . S
C1674 H1670 0.949 . S
C1674 C1682 1.574 . S
C1674 C1690 1.368 . S
H1675 C1683 0.950 . S
H1676 C1681 0.950 . S
H1677 C1682 0.949 . S
H1678 C1684 0.950 . S
H1679 C1685 0.950 . S
H1680 C1686 0.949 . S
C1681 H1676 0.950 . S
C1681 C1683 1.327 . S
C1681 C1687 1.429 . S
C1682 C1674 1.574 . S
C1682 H1677 0.949 . S
C1682 C1688 1.368 . S
C1683 C1667 1.349 . S
C1683 H1675 0.950 . S
C1683 C1681 1.327 . S
C1684 C1672 1.349 . S
C1684 H1678 0.950 . S
C1684 C1685 1.327 . S
C1685 H1679 0.950 . S
C1685 C1684 1.327 . S
C1685 C1689 1.429 . S
C1686 C1669 1.574 . S
C1686 H1680 0.949 . S
C1686 C1690 1.368 . S
C1687 C1668 1.429 . S
C1687 C1681 1.429 . S
C1687 C1688 1.523 . S
C1688 C1669 1.368 . S
C1688 C1682 1.368 . S
C1688 C1687 1.523 . S
C1689 C1673 1.429 . S
C1689 C1685 1.429 . S
C1689 C1690 1.523 . S
C1690 C1674 1.368 . S
C1690 C1686 1.368 . S
C1690 C1689 1.523 . S
H1691 C1666 0.950 . S
H1692 C1668 0.950 . S
H1693 C1669 0.949 . S
H1694 C1671 0.950 . S
H1695 C1673 0.950 . S
C1696 C1697 1.349 . S
C1696 C1698 1.327 . S
C1696 H1721 0.950 . S
C1697 C1696 1.349 . S
C1697 C1713 1.349 . S
C1698 C1696 1.327 . S
C1698 C1717 1.429 . S
C1698 H1722 0.950 . S
C1699 C1716 1.574 . S
C1699 C1718 1.368 . S
C1699 H1723 0.949 . S
H1700 C1704 0.949 . S
C1701 C1702 1.349 . S
C1701 C1703 1.327 . S
C1701 H1724 0.950 . S
C1702 C1701 1.349 . S
C1702 C1714 1.349 . S
C1703 C1701 1.327 . S
C1703 C1719 1.429 . S
C1703 H1725 0.950 . S
C1704 H1700 0.949 . S
C1704 C1712 1.574 . S
C1704 C1720 1.368 . S
H1705 C1713 0.950 . S
H1706 C1711 0.950 . S
H1707 C1712 0.949 . S
H1708 C1714 0.950 . S
H1709 C1715 0.950 . S
H1710 C1716 0.949 . S
C1711 H1706 0.950 . S
C1711 C1713 1.327 . S
C1711 C1717 1.429 . S
C1712 C1704 1.574 . S
C1712 H1707 0.949 . S
C1712 C1718 1.368 . S
C1713 C1697 1.349 . S
C1713 H1705 0.950 . S
C1713 C1711 1.327 . S
C1714 C1702 1.349 . S
C1714 H1708 0.950 . S
C1714 C1715 1.327 . S
C1715 H1709 0.950 . S
C1715 C1714 1.327 . S
C1715 C1719 1.429 . S
C1716 C1699 1.574 . S
C1716 H1710 0.949 . S
C1716 C1720 1.368 . S
C1717 C1698 1.429 . S
C1717 C1711 1.429 . S
C1717 C1718 1.523 . S
C1718 C1699 1.368 . S
C1718 C1712 1.368 . S
C1718 C1717 1.523 . S
C1719 C1703 1.429 . S
C1719 C1715 1.429 . S
C1719 C1720 1.523 . S
C1720 C1704 1.368 . S
C1720 C1716 1.368 . S
C1720 C1719 1.523 . S
H1721 C1696 0.950 . S
H1722 C1698 0.950 . S
H1723 C1699 0.949 . S
H1724 C1701 0.950 . S
H1725 C1703 0.950 . S
C1726 C1727 1.349 . S
C1726 C1728 1.327 . S
C1726 H1751 0.950 . S
C1727 C1726 1.349 . S
C1727 C1743 1.349 . S
C1728 C1726 1.327 . S
C1728 C1747 1.429 . S
C1728 H1752 0.950 . S
C1729 C1746 1.574 . S
C1729 C1748 1.368 . S
C1729 H1753 0.949 . S
H1730 C1734 0.949 . S
C1731 C1732 1.349 . S
C1731 C1733 1.327 . S
C1731 H1754 0.950 . S
C1732 C1731 1.349 . S
C1732 C1744 1.349 . S
C1733 C1731 1.327 . S
C1733 C1749 1.429 . S
C1733 H1755 0.950 . S
C1734 H1730 0.949 . S
C1734 C1742 1.574 . S
C1734 C1750 1.368 . S
H1735 C1743 0.950 . S
H1736 C1741 0.950 . S
H1737 C1742 0.949 . S
H1738 C1744 0.950 . S
H1739 C1745 0.950 . S
H1740 C1746 0.949 . S
C1741 H1736 0.950 . S
C1741 C1743 1.327 . S
C1741 C1747 1.429 . S
C1742 C1734 1.574 . S
C1742 H1737 0.949 . S
C1742 C1748 1.368 . S
C1743 C1727 1.349 . S
C1743 H1735 0.950 . S
C1743 C1741 1.327 . S
C1744 C1732 1.349 . S
C1744 H1738 0.950 . S
C1744 C1745 1.327 . S
C1745 H1739 0.950 . S
C1745 C1744 1.327 . S
C1745 C1749 1.429 . S
C1746 C1729 1.574 . S
C1746 H1740 0.949 . S
C1746 C1750 1.368 . S
C1747 C1728 1.429 . S
C1747 C1741 1.429 . S
C1747 C1748 1.523 . S
C1748 C1729 1.368 . S
C1748 C1742 1.368 . S
C1748 C1747 1.523 . S
C1749 C1733 1.429 . S
C1749 C1745 1.429 . S
C1749 C1750 1.523 . S
C1750 C1734 1.368 . S
C1750 C1746 1.368 . S
C1750 C1749 1.523 . S
H1751 C1726 0.950 . S
H1752 C1728 0.950 . S
H1753 C1729 0.949 . S
H1754 C1731 0.950 . S
H1755 C1733 0.950 . S
C1756 C1757 1.349 . S
C1756 C1758 1.327 . S
C1756 H1781 0.950 . S
C1757 C1756 1.349 . S
C1757 C1773 1.349 . S
C1758 C1756 1.327 . S
C1758 C1777 1.429 . S
C1758 H1782 0.950 . S
C1759 C1776 1.574 . S
C1759 C1778 1.368 . S
C1759 H1783 0.949 . S
H1760 C1764 0.949 . S
C1761 C1762 1.349 . S
C1761 C1763 1.327 . S
C1761 H1784 0.950 . S
C1762 C1761 1.349 . S
C1762 C1774 1.349 . S
C1763 C1761 1.327 . S
C1763 C1779 1.429 . S
C1763 H1785 0.950 . S
C1764 H1760 0.949 . S
C1764 C1772 1.574 . S
C1764 C1780 1.368 . S
H1765 C1773 0.950 . S
H1766 C1771 0.950 . S
H1767 C1772 0.949 . S
H1768 C1774 0.950 . S
H1769 C1775 0.950 . S
H1770 C1776 0.949 . S
C1771 H1766 0.950 . S
C1771 C1773 1.327 . S
C1771 C1777 1.429 . S
C1772 C1764 1.574 . S
C1772 H1767 0.949 . S
C1772 C1778 1.368 . S
C1773 C1757 1.349 . S
C1773 H1765 0.950 . S
C1773 C1771 1.327 . S
C1774 C1762 1.349 . S
C1774 H1768 0.950 . S
C1774 C1775 1.327 . S
C1775 H1769 0.950 . S
C1775 C1774 1.327 . S
C1775 C1779 1.429 . S
C1776 C1759 1.574 . S
C1776 H1770 0.949 . S
C1776 C1780 1.368 . S
C1777 C1758 1.429 . S
C1777 C1771 1.429 . S
C1777 C1778 1.523 . S
C1778 C1759 1.368 . S
C1778 C1772 1.368 . S
C1778 C1777 1.523 . S
C1779 C1763 1.429 . S
C1779 C1775 1.429 . S
C1779 C1780 1.523 . S
C1780 C1764 1.368 . S
C1780 C1776 1.368 . S
C1780 C1779 1.523 . S
H1781 C1756 0.950 . S
H1782 C1758 0.950 . S
H1783 C1759 0.949 . S
H1784 C1761 0.950 . S
H1785 C1763 0.950 . S
C1786 C1787 1.349 . S
C1786 C1788 1.327 . S
C1786 H1811 0.950 . S
C1787 C1786 1.349 . S
C1787 C1803 1.349 . S
C1788 C1786 1.327 . S
C1788 C1807 1.429 . S
C1788 H1812 0.950 . S
C1789 C1806 1.574 . S
C1789 C1808 1.368 . S
C1789 H1813 0.949 . S
H1790 C1794 0.949 . S
C1791 C1792 1.349 . S
C1791 C1793 1.327 . S
C1791 H1814 0.950 . S
C1792 C1791 1.349 . S
C1792 C1804 1.349 . S
C1793 C1791 1.327 . S
C1793 C1809 1.429 . S
C1793 H1815 0.950 . S
C1794 H1790 0.949 . S
C1794 C1802 1.574 . S
C1794 C1810 1.368 . S
H1795 C1803 0.950 . S
H1796 C1801 0.950 . S
H1797 C1802 0.949 . S
H1798 C1804 0.950 . S
H1799 C1805 0.950 . S
H1800 C1806 0.949 . S
C1801 H1796 0.950 . S
C1801 C1803 1.327 . S
C1801 C1807 1.429 . S
C1802 C1794 1.574 . S
C1802 H1797 0.949 . S
C1802 C1808 1.368 . S
C1803 C1787 1.349 . S
C1803 H1795 0.950 . S
C1803 C1801 1.327 . S
C1804 C1792 1.349 . S
C1804 H1798 0.950 . S
C1804 C1805 1.327 . S
C1805 H1799 0.950 . S
C1805 C1804 1.327 . S
C1805 C1809 1.429 . S
C1806 C1789 1.574 . S
C1806 H1800 0.949 . S
C1806 C1810 1.368 . S
C1807 C1788 1.429 . S
C1807 C1801 1.429 . S
C1807 C1808 1.523 . S
C1808 C1789 1.368 . S
C1808 C1802 1.368 . S
C1808 C1807 1.523 . S
C1809 C1793 1.429 . S
C1809 C1805 1.429 . S
C1809 C1810 1.523 . S
C1810 C1794 1.368 . S
C1810 C1806 1.368 . S
C1810 C1809 1.523 . S
H1811 C1786 0.950 . S
H1812 C1788 0.950 . S
H1813 C1789 0.949 . S
H1814 C1791 0.950 . S
H1815 C1793 0.950 . S
C1816 C1817 1.349 . S
C1816 C1818 1.327 . S
C1816 H1841 0.950 . S
C1817 C1816 1.349 . S
C1817 C1833 1.349 . S
C1818 C1816 1.327 . S
C1818 C1837 1.429 . S
C1818 H1842 0.950 . S
C1819 C1836 1.574 . S
C1819 C1838 1.368 . S
C1819 H1843 0.949 . S
H1820 C1824 0.949 . S
C1821 C1822 1.349 . S
C1821 C1823 1.327 . S
C1821 H1844 0.950 . S
C1822 C1821 1.349 . S
C1822 C1834 1.349 . S
C1823 C1821 1.327 . S
C1823 C1839 1.429 . S
C1823 H1845 0.950 . S
C1824 H1820 0.949 . S
C1824 C1832 1.574 . S
C1824 C1840 1.368 . S
H1825 C1833 0.950 . S
H1826 C1831 0.950 . S
H1827 C1832 0.949 . S
H1828 C1834 0.950 . S
H1829 C1835 0.950 . S
H1830 C1836 0.949 . S
C1831 H1826 0.950 . S
C1831 C1833 1.327 . S
C1831 C1837 1.429 . S
C1832 C1824 1.574 . S
C1832 H1827 0.949 . S
C1832 C1838 1.368 . S
C1833 C1817 1.349 . S
C1833 H1825 0.950 . S
C1833 C1831 1.327 . S
C1834 C1822 1.349 . S
C1834 H1828 0.950 . S
C1834 C1835 1.327 . S
C1835 H1829 0.950 . S
C1835 C1834 1.327 . S
C1835 C1839 1.429 . S
C1836 C1819 1.574 . S
C1836 H1830 0.949 . S
C1836 C1840 1.368 . S
C1837 C1818 1.429 . S
C1837 C1831 1.429 . S
C1837 C1838 1.523 . S
C1838 C1819 1.368 . S
C1838 C1832 1.368 . S
C1838 C1837 1.523 . S
C1839 C1823 1.429 . S
C1839 C1835 1.429 . S
C1839 C1840 1.523 . S
C1840 C1824 1.368 . S
C1840 C1836 1.368 . S
C1840 C1839 1.523 . S
H1841 C1816 0.950 . S
H1842 C1818 0.950 . S
H1843 C1819 0.949 . S
H1844 C1821 0.950 . S
H1845 C1823 0.950 . S
C1846 C1847 1.349 . S
C1846 C1848 1.327 . S
C1846 H1871 0.950 . S
C1847 C1846 1.349 . S
C1847 C1863 1.349 . S
C1848 C1846 1.327 . S
C1848 C1867 1.429 . S
C1848 H1872 0.950 . S
C1849 C1866 1.574 . S
C1849 C1868 1.368 . S
C1849 H1873 0.949 . S
H1850 C1854 0.949 . S
C1851 C1852 1.349 . S
C1851 C1853 1.327 . S
C1851 H1874 0.950 . S
C1852 C1851 1.349 . S
C1852 C1864 1.349 . S
C1853 C1851 1.327 . S
C1853 C1869 1.429 . S
C1853 H1875 0.950 . S
C1854 H1850 0.949 . S
C1854 C1862 1.574 . S
C1854 C1870 1.368 . S
H1855 C1863 0.950 . S
H1856 C1861 0.950 . S
H1857 C1862 0.949 . S
H1858 C1864 0.950 . S
H1859 C1865 0.950 . S
H1860 C1866 0.949 . S
C1861 H1856 0.950 . S
C1861 C1863 1.327 . S
C1861 C1867 1.429 . S
C1862 C1854 1.574 . S
C1862 H1857 0.949 . S
C1862 C1868 1.368 . S
C1863 C1847 1.349 . S
C1863 H1855 0.950 . S
C1863 C1861 1.327 . S
C1864 C1852 1.349 . S
C1864 H1858 0.950 . S
C1864 C1865 1.327 . S
C1865 H1859 0.950 . S
C1865 C1864 1.327 . S
C1865 C1869 1.429 . S
C1866 C1849 1.574 . S
C1866 H1860 0.949 . S
C1866 C1870 1.368 . S
C1867 C1848 1.429 . S
C1867 C1861 1.429 . S
C1867 C1868 1.523 . S
C1868 C1849 1.368 . S
C1868 C1862 1.368 . S
C1868 C1867 1.523 . S
C1869 C1853 1.429 . S
C1869 C1865 1.429 . S
C1869 C1870 1.523 . S
C1870 C1854 1.368 . S
C1870 C1866 1.368 . S
C1870 C1869 1.523 . S
H1871 C1846 0.950 . S
H1872 C1848 0.950 . S
H1873 C1849 0.949 . S
H1874 C1851 0.950 . S
H1875 C1853 0.950 . S
C1876 C1877 1.349 . S
C1876 C1878 1.327 . S
C1876 H1901 0.950 . S
C1877 C1876 1.349 . S
C1877 C1893 1.349 . S
C1878 C1876 1.327 . S
C1878 C1897 1.429 . S
C1878 H1902 0.950 . S
C1879 C1896 1.574 . S
C1879 C1898 1.368 . S
C1879 H1903 0.949 . S
H1880 C1884 0.949 . S
C1881 C1882 1.349 . S
C1881 C1883 1.327 . S
C1881 H1904 0.950 1_556 S
C1882 C1881 1.349 . S
C1882 C1894 1.349 . S
C1883 C1881 1.327 . S
C1883 C1899 1.429 . S
C1883 H1905 0.950 . S
C1884 H1880 0.949 . S
C1884 C1892 1.574 . S
C1884 C1900 1.368 . S
H1885 C1893 0.950 . S
H1886 C1891 0.950 . S
H1887 C1892 0.949 . S
H1888 C1894 0.950 . S
H1889 C1895 0.950 . S
H1890 C1896 0.949 . S
C1891 H1886 0.950 . S
C1891 C1893 1.327 . S
C1891 C1897 1.429 . S
C1892 C1884 1.574 . S
C1892 H1887 0.949 . S
C1892 C1898 1.368 . S
C1893 C1877 1.349 . S
C1893 H1885 0.950 . S
C1893 C1891 1.327 . S
C1894 C1882 1.349 . S
C1894 H1888 0.950 . S
C1894 C1895 1.327 . S
C1895 H1889 0.950 . S
C1895 C1894 1.327 . S
C1895 C1899 1.429 . S
C1896 C1879 1.574 . S
C1896 H1890 0.949 . S
C1896 C1900 1.368 . S
C1897 C1878 1.429 . S
C1897 C1891 1.429 . S
C1897 C1898 1.523 . S
C1898 C1879 1.368 . S
C1898 C1892 1.368 . S
C1898 C1897 1.523 . S
C1899 C1883 1.429 . S
C1899 C1895 1.429 . S
C1899 C1900 1.523 . S
C1900 C1884 1.368 . S
C1900 C1896 1.368 . S
C1900 C1899 1.523 . S
H1901 C1876 0.950 . S
H1902 C1878 0.950 . S
H1903 C1879 0.949 . S
H1904 C1881 0.950 1_554 S
H1905 C1883 0.950 . S
C1906 C1907 1.349 . S
C1906 C1908 1.327 . S
C1906 H1931 0.950 . S
C1907 C1906 1.349 . S
C1907 C1923 1.349 . S
C1908 C1906 1.327 . S
C1908 C1927 1.429 . S
C1908 H1932 0.950 . S
C1909 C1926 1.574 . S
C1909 C1928 1.368 . S
C1909 H1933 0.949 . S
H1910 C1914 0.949 . S
C1911 C1912 1.349 . S
C1911 C1913 1.327 . S
C1911 H1934 0.950 . S
C1912 C1911 1.349 . S
C1912 C1924 1.349 . S
C1913 C1911 1.327 . S
C1913 C1929 1.429 . S
C1913 H1935 0.950 . S
C1914 H1910 0.949 . S
C1914 C1922 1.574 . S
C1914 C1930 1.368 . S
H1915 C1923 0.950 . S
H1916 C1921 0.950 . S
H1917 C1922 0.949 . S
H1918 C1924 0.950 . S
H1919 C1925 0.950 . S
H1920 C1926 0.949 . S
C1921 H1916 0.950 . S
C1921 C1923 1.327 . S
C1921 C1927 1.429 . S
C1922 C1914 1.574 . S
C1922 H1917 0.949 . S
C1922 C1928 1.368 . S
C1923 C1907 1.349 . S
C1923 H1915 0.950 . S
C1923 C1921 1.327 . S
C1924 C1912 1.349 . S
C1924 H1918 0.950 . S
C1924 C1925 1.327 . S
C1925 H1919 0.950 . S
C1925 C1924 1.327 . S
C1925 C1929 1.429 . S
C1926 C1909 1.574 . S
C1926 H1920 0.949 . S
C1926 C1930 1.368 . S
C1927 C1908 1.429 . S
C1927 C1921 1.429 . S
C1927 C1928 1.523 . S
C1928 C1909 1.368 . S
C1928 C1922 1.368 . S
C1928 C1927 1.523 . S
C1929 C1913 1.429 . S
C1929 C1925 1.429 . S
C1929 C1930 1.523 . S
C1930 C1914 1.368 . S
C1930 C1926 1.368 . S
C1930 C1929 1.523 . S
H1931 C1906 0.950 . S
H1932 C1908 0.950 . S
H1933 C1909 0.949 . S
H1934 C1911 0.950 . S
H1935 C1913 0.950 . S
C1936 C1937 1.349 . S
C1936 C1938 1.327 . S
C1936 H1961 0.950 . S
C1937 C1936 1.349 . S
C1937 C1953 1.349 1_545 S
C1938 C1936 1.327 . S
C1938 C1957 1.429 . S
C1938 H1962 0.950 . S
C1939 C1956 1.576 . S
C1939 C1958 1.368 1_565 S
C1939 H1963 0.949 . S
H1940 C1944 0.949 . S
C1941 C1942 1.349 . S
C1941 C1943 1.327 . S
C1941 H1964 0.950 1_545 S
C1942 C1941 1.349 . S
C1942 C1954 1.349 . S
C1943 C1941 1.327 . S
C1943 C1959 1.429 . S
C1943 H1965 0.950 1_545 S
C1944 H1940 0.949 . S
C1944 C1952 1.574 . S
C1944 C1960 1.368 . S
H1945 C1953 0.950 . S
H1946 C1951 0.950 . S
H1947 C1952 0.949 . S
H1948 C1954 0.950 . S
H1949 C1955 0.950 . S
H1950 C1956 0.966 . S
C1951 H1946 0.950 . S
C1951 C1953 1.327 . S
C1951 C1957 1.429 1_565 S
C1952 C1944 1.574 . S
C1952 H1947 0.949 . S
C1952 C1958 1.368 . S
C1953 C1937 1.349 1_565 S
C1953 H1945 0.950 . S
C1953 C1951 1.327 . S
C1954 C1942 1.349 . S
C1954 H1948 0.950 . S
C1954 C1955 1.327 . S
C1955 H1949 0.950 . S
C1955 C1954 1.327 . S
C1955 C1959 1.429 . S
C1956 C1939 1.576 . S
C1956 H1950 0.966 . S
C1956 C1960 1.349 1_565 S
C1957 C1938 1.429 . S
C1957 C1951 1.429 1_545 S
C1957 C1958 1.523 . S
C1958 C1939 1.368 1_545 S
C1958 C1952 1.368 . S
C1958 C1957 1.523 . S
C1959 C1943 1.429 . S
C1959 C1955 1.429 . S
C1959 C1960 1.523 . S
C1960 C1944 1.368 . S
C1960 C1956 1.349 1_545 S
C1960 C1959 1.523 . S
H1961 C1936 0.950 . S
H1962 C1938 0.950 . S
H1963 C1939 0.949 . S
H1964 C1941 0.950 1_565 S
H1965 C1943 0.950 1_565 S
C1966 C1967 1.349 . S
C1966 C1968 1.327 . S
C1966 H1991 0.950 . S
C1967 C1966 1.349 . S
C1967 C1983 1.349 . S
C1968 C1966 1.327 . S
C1968 C1987 1.429 . S
C1968 H1992 0.950 . S
C1969 C1986 1.574 . S
C1969 C1988 1.368 . S
C1969 H1993 0.949 . S
H1970 C1974 0.949 . S
C1971 C1972 1.349 . S
C1971 C1973 1.327 . S
C1971 H1994 0.950 . S
C1972 C1971 1.349 . S
C1972 C1984 1.349 . S
C1973 C1971 1.327 . S
C1973 C1989 1.429 . S
C1973 H1995 0.950 . S
C1974 H1970 0.949 . S
C1974 C1982 1.574 . S
C1974 C1990 1.368 . S
H1975 C1983 0.950 . S
H1976 C1981 0.950 . S
H1977 C1982 0.949 . S
H1978 C1984 0.950 . S
H1979 C1985 0.950 . S
H1980 C1986 0.949 . S
C1981 H1976 0.950 . S
C1981 C1983 1.327 . S
C1981 C1987 1.429 . S
C1982 C1974 1.574 . S
C1982 H1977 0.949 . S
C1982 C1988 1.368 . S
C1983 C1967 1.349 . S
C1983 H1975 0.950 . S
C1983 C1981 1.327 . S
C1984 C1972 1.349 . S
C1984 H1978 0.950 . S
C1984 C1985 1.327 . S
C1985 H1979 0.950 . S
C1985 C1984 1.327 . S
C1985 C1989 1.429 . S
C1986 C1969 1.574 . S
C1986 H1980 0.949 . S
C1986 C1990 1.368 . S
C1987 C1968 1.429 . S
C1987 C1981 1.429 . S
C1987 C1988 1.523 . S
C1988 C1969 1.368 . S
C1988 C1982 1.368 . S
C1988 C1987 1.523 . S
C1989 C1973 1.429 . S
C1989 C1985 1.429 . S
C1989 C1990 1.523 . S
C1990 C1974 1.368 . S
C1990 C1986 1.368 . S
C1990 C1989 1.523 . S
H1991 C1966 0.950 . S
H1992 C1968 0.950 . S
H1993 C1969 0.949 . S
H1994 C1971 0.950 . S
H1995 C1973 0.950 . S
C1996 C1997 1.349 . S
C1996 C1998 1.327 . S
C1996 H2021 0.950 1_545 S
C1997 C1996 1.349 . S
C1997 C2013 1.349 . S
C1998 C1996 1.327 . S
C1998 C2017 1.429 . S
C1998 H2022 0.950 1_545 S
C1999 C2016 1.574 . S
C1999 C2018 1.368 . S
C1999 H2023 0.949 . S
H2000 C2004 0.949 . S
C2001 C2002 1.349 . S
C2001 C2003 1.327 . S
C2001 H2024 0.950 . S
C2002 C2001 1.349 . S
C2002 C2014 1.349 . S
C2003 C2001 1.327 . S
C2003 C2019 1.429 . S
C2003 H2025 0.950 . S
C2004 H2000 0.949 . S
C2004 C2012 1.574 . S
C2004 C2020 1.368 . S
H2005 C2013 0.950 . S
H2006 C2011 0.950 . S
H2007 C2012 0.962 . S
H2008 C2014 0.950 . S
H2009 C2015 0.950 . S
H2010 C2016 0.949 . S
C2011 H2006 0.950 . S
C2011 C2013 1.327 . S
C2011 C2017 1.429 . S
C2012 C2004 1.574 . S
C2012 H2007 0.962 . S
C2012 C2018 1.368 . S
C2013 C1997 1.349 . S
C2013 H2005 0.950 . S
C2013 C2011 1.327 . S
C2014 C2002 1.349 . S
C2014 H2008 0.950 . S
C2014 C2015 1.327 . S
C2015 H2009 0.950 . S
C2015 C2014 1.327 . S
C2015 C2019 1.429 . S
C2016 C1999 1.574 . S
C2016 H2010 0.949 . S
C2016 C2020 1.368 . S
C2017 C1998 1.429 . S
C2017 C2011 1.429 . S
C2017 C2018 1.523 . S
C2018 C1999 1.368 . S
C2018 C2012 1.368 . S
C2018 C2017 1.523 . S
C2019 C2003 1.429 . S
C2019 C2015 1.429 . S
C2019 C2020 1.523 . S
C2020 C2004 1.368 . S
C2020 C2016 1.368 . S
C2020 C2019 1.523 . S
H2021 C1996 0.950 1_565 S
H2022 C1998 0.950 1_565 S
H2023 C1999 0.949 . S
H2024 C2001 0.950 . S
H2025 C2003 0.950 . S
C2026 C2027 1.349 . S
C2026 C2028 1.327 . S
C2026 H2051 0.950 . S
C2027 C2026 1.349 . S
C2027 C2043 1.349 . S
C2028 C2026 1.327 . S
C2028 C2047 1.429 . S
C2028 H2052 0.950 . S
C2029 C2046 1.574 . S
C2029 C2048 1.368 . S
C2029 H2053 0.949 . S
H2030 C2034 0.949 . S
C2031 C2032 1.349 . S
C2031 C2033 1.327 . S
C2031 H2054 0.950 . S
C2032 C2031 1.349 . S
C2032 C2044 1.349 . S
C2033 C2031 1.327 . S
C2033 C2049 1.429 . S
C2033 H2055 0.950 . S
C2034 H2030 0.949 . S
C2034 C2042 1.574 . S
C2034 C2050 1.368 . S
H2035 C2043 0.950 . S
H2036 C2041 0.950 . S
H2037 C2042 0.949 . S
H2038 C2044 0.950 . S
H2039 C2045 0.950 . S
H2040 C2046 0.949 . S
C2041 H2036 0.950 . S
C2041 C2043 1.327 . S
C2041 C2047 1.429 . S
C2042 C2034 1.574 . S
C2042 H2037 0.949 . S
C2042 C2048 1.368 . S
C2043 C2027 1.349 . S
C2043 H2035 0.950 . S
C2043 C2041 1.327 . S
C2044 C2032 1.349 . S
C2044 H2038 0.950 . S
C2044 C2045 1.327 . S
C2045 H2039 0.950 . S
C2045 C2044 1.327 . S
C2045 C2049 1.429 . S
C2046 C2029 1.574 . S
C2046 H2040 0.949 . S
C2046 C2050 1.368 . S
C2047 C2028 1.429 . S
C2047 C2041 1.429 . S
C2047 C2048 1.523 . S
C2048 C2029 1.368 . S
C2048 C2042 1.368 . S
C2048 C2047 1.523 . S
C2049 C2033 1.429 . S
C2049 C2045 1.429 . S
C2049 C2050 1.523 . S
C2050 C2034 1.368 . S
C2050 C2046 1.368 . S
C2050 C2049 1.523 . S
H2051 C2026 0.950 . S
H2052 C2028 0.950 . S
H2053 C2029 0.949 . S
H2054 C2031 0.950 . S
H2055 C2033 0.950 . S
C2056 C2057 1.349 1_545 S
C2056 C2058 1.327 . S
C2056 H2081 0.950 . S
C2057 C2056 1.349 1_565 S
C2057 C2073 1.349 . S
C2058 C2056 1.327 . S
C2058 C2077 1.429 . S
C2058 H2082 0.950 . S
C2059 C2076 1.574 . S
C2059 C2078 1.368 1_565 S
C2059 H2083 0.949 . S
H2060 C2064 0.949 . S
C2061 C2062 1.349 . S
C2061 C2063 1.327 . S
C2061 H2084 0.950 1_545 S
C2062 C2061 1.349 . S
C2062 C2074 1.349 . S
C2063 C2061 1.327 . S
C2063 C2079 1.429 . S
C2063 H2085 0.950 1_545 S
C2064 H2060 0.949 . S
C2064 C2072 1.574 . S
C2064 C2080 1.368 . S
H2065 C2073 0.950 . S
H2066 C2071 0.950 . S
H2067 C2072 0.949 . S
H2068 C2074 0.950 . S
H2069 C2075 0.950 . S
H2070 C2076 0.949 . S
C2071 H2066 0.950 . S
C2071 C2073 1.327 . S
C2071 C2077 1.429 1_565 S
C2072 C2064 1.574 . S
C2072 H2067 0.949 . S
C2072 C2078 1.368 . S
C2073 C2057 1.349 . S
C2073 H2065 0.950 . S
C2073 C2071 1.327 . S
C2074 C2062 1.349 . S
C2074 H2068 0.950 . S
C2074 C2075 1.327 . S
C2075 H2069 0.950 . S
C2075 C2074 1.327 . S
C2075 C2079 1.429 . S
C2076 C2059 1.574 . S
C2076 H2070 0.949 . S
C2076 C2080 1.368 1_565 S
C2077 C2058 1.429 . S
C2077 C2071 1.429 1_545 S
C2077 C2078 1.523 . S
C2078 C2059 1.368 1_545 S
C2078 C2072 1.368 . S
C2078 C2077 1.523 . S
C2079 C2063 1.429 . S
C2079 C2075 1.429 . S
C2079 C2080 1.523 . S
C2080 C2064 1.368 . S
C2080 C2076 1.368 1_545 S
C2080 C2079 1.523 . S
H2081 C2056 0.950 . S
H2082 C2058 0.950 . S
H2083 C2059 0.949 . S
H2084 C2061 0.950 1_565 S
H2085 C2063 0.950 1_565 S
C2086 C2087 1.349 . S
C2086 C2088 1.327 . S
C2086 H2111 0.950 . S
C2087 C2086 1.349 . S
C2087 C2103 1.349 . S
C2088 C2086 1.327 . S
C2088 C2107 1.429 . S
C2088 H2112 0.950 . S
C2089 C2106 1.574 . S
C2089 C2108 1.368 . S
C2089 H2113 0.949 . S
H2090 C2094 0.949 . S
C2091 C2092 1.349 . S
C2091 C2093 1.327 . S
C2091 H2114 0.950 . S
C2092 C2091 1.349 . S
C2092 C2104 1.349 . S
C2093 C2091 1.327 . S
C2093 C2109 1.429 . S
C2093 H2115 0.950 . S
C2094 H2090 0.949 . S
C2094 C2102 1.574 . S
C2094 C2110 1.368 . S
H2095 C2103 0.950 . S
H2096 C2101 0.950 . S
H2097 C2102 0.949 . S
H2098 C2104 0.950 . S
H2099 C2105 0.950 . S
H2100 C2106 0.949 . S
C2101 H2096 0.950 . S
C2101 C2103 1.327 . S
C2101 C2107 1.429 . S
C2102 C2094 1.574 . S
C2102 H2097 0.949 . S
C2102 C2108 1.368 . S
C2103 C2087 1.349 . S
C2103 H2095 0.950 . S
C2103 C2101 1.327 . S
C2104 C2092 1.349 . S
C2104 H2098 0.950 . S
C2104 C2105 1.327 . S
C2105 H2099 0.950 . S
C2105 C2104 1.327 . S
C2105 C2109 1.429 . S
C2106 C2089 1.574 . S
C2106 H2100 0.949 . S
C2106 C2110 1.368 . S
C2107 C2088 1.429 . S
C2107 C2101 1.429 . S
C2107 C2108 1.523 . S
C2108 C2089 1.368 . S
C2108 C2102 1.368 . S
C2108 C2107 1.523 . S
C2109 C2093 1.429 . S
C2109 C2105 1.429 . S
C2109 C2110 1.523 . S
C2110 C2094 1.368 . S
C2110 C2106 1.368 . S
C2110 C2109 1.523 . S
H2111 C2086 0.950 . S
H2112 C2088 0.950 . S
H2113 C2089 0.949 . S
H2114 C2091 0.950 . S
H2115 C2093 0.950 . S
C2116 C2117 1.349 1_565 S
C2116 C2118 1.327 . S
C2116 H2141 0.950 . S
C2117 C2116 1.349 1_545 S
C2117 C2133 1.349 . S
C2118 C2116 1.327 . S
C2118 C2137 1.429 1_565 S
C2118 H2142 0.950 . S
C2119 C2136 1.574 . S
C2119 C2138 1.368 . S
C2119 H2143 0.949 . S
H2120 C2124 0.949 . S
C2121 C2122 1.349 . S
C2121 C2123 1.327 . S
C2121 H2144 0.950 . S
C2122 C2121 1.349 . S
C2122 C2134 1.349 1_545 S
C2123 C2121 1.327 . S
C2123 C2139 1.429 . S
C2123 H2145 0.950 . S
C2124 H2120 0.949 . S
C2124 C2132 1.574 . S
C2124 C2140 1.368 1_565 S
H2125 C2133 0.950 . S
H2126 C2131 0.950 . S
H2127 C2132 0.949 . S
H2128 C2134 0.950 . S
H2129 C2135 0.950 . S
H2130 C2136 0.949 . S
C2131 H2126 0.950 . S
C2131 C2133 1.327 . S
C2131 C2137 1.429 . S
C2132 C2124 1.574 . S
C2132 H2127 0.949 . S
C2132 C2138 1.368 1_565 S
C2133 C2117 1.349 . S
C2133 H2125 0.950 . S
C2133 C2131 1.327 . S
C2134 C2122 1.349 1_565 S
C2134 H2128 0.950 . S
C2134 C2135 1.327 . S
C2135 H2129 0.950 . S
C2135 C2134 1.327 . S
C2135 C2139 1.429 1_565 S
C2136 C2119 1.574 . S
C2136 H2130 0.949 . S
C2136 C2140 1.368 . S
C2137 C2118 1.429 1_545 S
C2137 C2131 1.429 . S
C2137 C2138 1.523 . S
C2138 C2119 1.368 . S
C2138 C2132 1.368 1_545 S
C2138 C2137 1.523 . S
C2139 C2123 1.429 . S
C2139 C2135 1.429 1_545 S
C2139 C2140 1.523 . S
C2140 C2124 1.368 1_545 S
C2140 C2136 1.368 . S
C2140 C2139 1.523 . S
H2141 C2116 0.950 . S
H2142 C2118 0.950 . S
H2143 C2119 0.949 . S
H2144 C2121 0.950 . S
H2145 C2123 0.950 . S
C2146 C2147 1.349 . S
C2146 C2148 1.327 . S
C2146 H2171 0.950 . S
C2147 C2146 1.349 . S
C2147 C2163 1.349 . S
C2148 C2146 1.327 . S
C2148 C2167 1.429 . S
C2148 H2172 0.950 . S
C2149 C2166 1.574 . S
C2149 C2168 1.368 . S
C2149 H2173 0.949 . S
H2150 C2154 0.949 . S
C2151 C2152 1.349 . S
C2151 C2153 1.327 . S
C2151 H2174 0.950 . S
C2152 C2151 1.349 . S
C2152 C2164 1.349 . S
C2153 C2151 1.327 . S
C2153 C2169 1.429 . S
C2153 H2175 0.950 . S
C2154 H2150 0.949 . S
C2154 C2162 1.574 . S
C2154 C2170 1.368 . S
H2155 C2163 0.950 . S
H2156 C2161 0.950 . S
H2157 C2162 0.949 . S
H2158 C2164 0.950 . S
H2159 C2165 0.950 . S
H2160 C2166 0.949 . S
C2161 H2156 0.950 . S
C2161 C2163 1.327 . S
C2161 C2167 1.429 . S
C2162 C2154 1.574 . S
C2162 H2157 0.949 . S
C2162 C2168 1.368 . S
C2163 C2147 1.349 . S
C2163 H2155 0.950 . S
C2163 C2161 1.327 . S
C2164 C2152 1.349 . S
C2164 H2158 0.950 . S
C2164 C2165 1.327 . S
C2165 H2159 0.950 . S
C2165 C2164 1.327 . S
C2165 C2169 1.429 . S
C2166 C2149 1.574 . S
C2166 H2160 0.949 . S
C2166 C2170 1.368 . S
C2167 C2148 1.429 . S
C2167 C2161 1.429 . S
C2167 C2168 1.523 . S
C2168 C2149 1.368 . S
C2168 C2162 1.368 . S
C2168 C2167 1.523 . S
C2169 C2153 1.429 . S
C2169 C2165 1.429 . S
C2169 C2170 1.523 . S
C2170 C2154 1.368 . S
C2170 C2166 1.368 . S
C2170 C2169 1.523 . S
H2171 C2146 0.950 . S
H2172 C2148 0.950 . S
H2173 C2149 0.949 . S
H2174 C2151 0.950 . S
H2175 C2153 0.950 . S
C2176 C2177 1.349 . S
C2176 C2178 1.327 1_554 S
C2176 H2201 0.950 1_554 S
C2177 C2176 1.349 . S
C2177 C2193 1.349 . S
C2178 C2176 1.327 1_556 S
C2178 C2197 1.429 1_556 S
C2178 H2202 0.950 . S
C2179 C2196 1.574 . S
C2179 C2198 1.366 . S
C2179 H2203 0.949 . S
H2180 C2184 0.949 . S
C2181 C2182 1.349 . S
C2181 C2183 1.327 . S
C2181 H2204 0.950 . S
C2182 C2181 1.349 . S
C2182 C2194 1.349 . S
C2183 C2181 1.327 . S
C2183 C2199 1.429 . S
C2183 H2205 0.919 1_556 S
C2184 H2180 0.949 . S
C2184 C2192 1.574 . S
C2184 C2200 1.368 . S
H2185 C2193 0.950 . S
H2186 C2191 0.950 . S
H2187 C2192 0.949 . S
H2188 C2194 0.950 . S
H2189 C2195 0.950 . S
H2190 C2196 0.949 . S
C2191 H2186 0.950 . S
C2191 C2193 1.327 . S
C2191 C2197 1.429 . S
C2192 C2184 1.574 . S
C2192 H2187 0.949 . S
C2192 C2198 1.371 1_556 S
C2193 C2177 1.349 . S
C2193 H2185 0.950 . S
C2193 C2191 1.327 . S
C2194 C2182 1.349 . S
C2194 H2188 0.950 . S
C2194 C2195 1.327 . S
C2195 H2189 0.950 . S
C2195 C2194 1.327 . S
C2195 C2199 1.429 . S
C2196 C2179 1.574 . S
C2196 H2190 0.949 . S
C2196 C2200 1.368 1_554 S
C2197 C2178 1.429 1_554 S
C2197 C2191 1.429 . S
C2197 C2198 1.522 . S
C2198 C2179 1.366 . S
C2198 C2192 1.371 1_554 S
C2198 C2197 1.522 . S
C2199 C2183 1.429 . S
C2199 C2195 1.429 . S
C2199 C2200 1.523 . S
C2200 C2184 1.368 . S
C2200 C2196 1.368 1_556 S
C2200 C2199 1.523 . S
H2201 C2176 0.950 1_556 S
H2202 C2178 0.950 . S
H2203 C2179 0.949 . S
H2204 C2181 0.950 . S
H2205 C2183 0.919 1_554 S
C2206 C2207 1.349 . S
C2206 C2208 1.327 . S
C2206 H2231 0.950 1_554 S
C2207 C2206 1.349 . S
C2207 C2223 1.349 . S
C2208 C2206 1.327 . S
C2208 C2227 1.429 . S
C2208 H2232 0.950 1_554 S
C2209 C2226 1.574 . S
C2209 C2228 1.368 . S
C2209 H2233 0.949 . S
H2210 C2214 0.949 . S
C2211 C2212 1.349 . S
C2211 C2213 1.327 . S
C2211 H2234 0.950 . S
C2212 C2211 1.349 . S
C2212 C2224 1.349 1_554 S
C2213 C2211 1.327 . S
C2213 C2229 1.429 . S
C2213 H2235 0.950 . S
C2214 H2210 0.949 . S
C2214 C2222 1.584 . S
C2214 C2230 1.368 1_556 S
H2215 C2223 0.950 . S
H2216 C2221 0.950 . S
H2217 C2222 0.980 . S
H2218 C2224 0.950 . S
H2219 C2225 0.950 . S
H2220 C2226 0.949 . S
C2221 H2216 0.950 . S
C2221 C2223 1.327 . S
C2221 C2227 1.429 . S
C2222 C2214 1.584 . S
C2222 H2217 0.980 . S
C2222 C2228 1.325 1_556 S
C2223 C2207 1.349 . S
C2223 H2215 0.950 . S
C2223 C2221 1.327 . S
C2224 C2212 1.349 1_556 S
C2224 H2218 0.950 . S
C2224 C2225 1.327 . S
C2225 H2219 0.950 . S
C2225 C2224 1.327 . S
C2225 C2229 1.429 1_556 S
C2226 C2209 1.574 . S
C2226 H2220 0.949 . S
C2226 C2230 1.368 . S
C2227 C2208 1.429 . S
C2227 C2221 1.429 . S
C2227 C2228 1.523 . S
C2228 C2209 1.368 . S
C2228 C2222 1.325 1_554 S
C2228 C2227 1.523 . S
C2229 C2213 1.429 . S
C2229 C2225 1.429 1_554 S
C2229 C2230 1.523 . S
C2230 C2214 1.368 1_554 S
C2230 C2226 1.368 . S
C2230 C2229 1.523 . S
H2231 C2206 0.950 1_556 S
H2232 C2208 0.950 1_556 S
H2233 C2209 0.949 . S
H2234 C2211 0.950 . S
H2235 C2213 0.950 . S
C2236 C2237 1.349 . S
C2236 C2238 1.327 . S
C2236 H2261 0.950 . S
C2237 C2236 1.349 . S
C2237 C2253 1.349 . S
C2238 C2236 1.327 . S
C2238 C2257 1.429 . S
C2238 H2262 0.950 . S
C2239 C2256 1.574 . S
C2239 C2258 1.368 . S
C2239 H2263 0.949 . S
H2240 C2244 0.949 . S
C2241 C2242 1.349 . S
C2241 C2243 1.327 . S
C2241 H2264 0.950 . S
C2242 C2241 1.349 . S
C2242 C2254 1.349 . S
C2243 C2241 1.327 . S
C2243 C2259 1.429 . S
C2243 H2265 0.950 . S
C2244 H2240 0.949 . S
C2244 C2252 1.574 . S
C2244 C2260 1.368 . S
H2245 C2253 0.950 . S
H2246 C2251 0.950 . S
H2247 C2252 0.949 . S
H2248 C2254 0.950 . S
H2249 C2255 0.950 . S
H2250 C2256 0.949 . S
C2251 H2246 0.950 . S
C2251 C2253 1.327 . S
C2251 C2257 1.429 . S
C2252 C2244 1.574 . S
C2252 H2247 0.949 . S
C2252 C2258 1.368 . S
C2253 C2237 1.349 . S
C2253 H2245 0.950 . S
C2253 C2251 1.327 . S
C2254 C2242 1.349 . S
C2254 H2248 0.950 . S
C2254 C2255 1.327 . S
C2255 H2249 0.950 . S
C2255 C2254 1.327 . S
C2255 C2259 1.429 . S
C2256 C2239 1.574 . S
C2256 H2250 0.949 . S
C2256 C2260 1.368 . S
C2257 C2238 1.429 . S
C2257 C2251 1.429 . S
C2257 C2258 1.523 . S
C2258 C2239 1.368 . S
C2258 C2252 1.368 . S
C2258 C2257 1.523 . S
C2259 C2243 1.429 . S
C2259 C2255 1.429 . S
C2259 C2260 1.523 . S
C2260 C2244 1.368 . S
C2260 C2256 1.368 . S
C2260 C2259 1.523 . S
H2261 C2236 0.950 . S
H2262 C2238 0.950 . S
H2263 C2239 0.949 . S
H2264 C2241 0.950 . S
H2265 C2243 0.950 . S
C2266 C2267 1.349 . S
C2266 C2268 1.327 . S
C2266 H2291 0.950 . S
C2267 C2266 1.349 . S
C2267 C2283 1.349 . S
C2268 C2266 1.327 . S
C2268 C2287 1.429 . S
C2268 H2292 0.950 . S
C2269 C2286 1.574 . S
C2269 C2288 1.368 . S
C2269 H2293 0.949 . S
H2270 C2274 0.949 . S
C2271 C2272 1.349 . S
C2271 C2273 1.327 . S
C2271 H2294 0.950 . S
C2272 C2271 1.349 . S
C2272 C2284 1.349 . S
C2273 C2271 1.327 . S
C2273 C2289 1.429 . S
C2273 H2295 0.950 . S
C2274 H2270 0.949 . S
C2274 C2282 1.574 . S
C2274 C2290 1.368 . S
H2275 C2283 0.950 . S
H2276 C2281 0.950 . S
H2277 C2282 0.949 . S
H2278 C2284 0.950 . S
H2279 C2285 0.950 . S
H2280 C2286 0.949 . S
C2281 H2276 0.950 . S
C2281 C2283 1.327 . S
C2281 C2287 1.429 . S
C2282 C2274 1.574 . S
C2282 H2277 0.949 . S
C2282 C2288 1.368 . S
C2283 C2267 1.349 . S
C2283 H2275 0.950 . S
C2283 C2281 1.327 . S
C2284 C2272 1.349 . S
C2284 H2278 0.950 . S
C2284 C2285 1.327 . S
C2285 H2279 0.950 . S
C2285 C2284 1.327 . S
C2285 C2289 1.429 . S
C2286 C2269 1.574 . S
C2286 H2280 0.949 . S
C2286 C2290 1.368 . S
C2287 C2268 1.429 . S
C2287 C2281 1.429 . S
C2287 C2288 1.523 . S
C2288 C2269 1.368 . S
C2288 C2282 1.368 . S
C2288 C2287 1.523 . S
C2289 C2273 1.429 . S
C2289 C2285 1.429 . S
C2289 C2290 1.523 . S
C2290 C2274 1.368 . S
C2290 C2286 1.368 . S
C2290 C2289 1.523 . S
H2291 C2266 0.950 . S
H2292 C2268 0.950 . S
H2293 C2269 0.949 . S
H2294 C2271 0.950 . S
H2295 C2273 0.950 . S
C2296 C2297 1.349 . S
C2296 C2298 1.327 1_545 S
C2296 H2321 0.950 . S
C2297 C2296 1.349 . S
C2297 C2313 1.349 1_545 S
C2298 C2296 1.327 1_565 S
C2298 C2317 1.429 . S
C2298 H2322 0.950 . S
C2299 C2316 1.574 . S
C2299 C2318 1.368 . S
C2299 H2323 0.949 . S
H2300 C2304 0.949 . S
C2301 C2302 1.349 . S
C2301 C2303 1.327 . S
C2301 H2324 0.950 . S
C2302 C2301 1.349 . S
C2302 C2314 1.349 . S
C2303 C2301 1.327 . S
C2303 C2319 1.429 . S
C2303 H2325 0.950 . S
C2304 H2300 0.949 . S
C2304 C2312 1.574 . S
C2304 C2320 1.368 . S
H2305 C2313 0.950 1_545 S
H2306 C2311 0.950 . S
H2307 C2312 0.949 . S
H2308 C2314 0.950 . S
H2309 C2315 0.950 . S
H2310 C2316 0.949 . S
C2311 H2306 0.950 . S
C2311 C2313 1.327 . S
C2311 C2317 1.429 . S
C2312 C2304 1.574 . S
C2312 H2307 0.949 . S
C2312 C2318 1.368 . S
C2313 C2297 1.349 1_565 S
C2313 H2305 0.950 1_565 S
C2313 C2311 1.327 . S
C2314 C2302 1.349 . S
C2314 H2308 0.950 . S
C2314 C2315 1.327 . S
C2315 H2309 0.950 . S
C2315 C2314 1.327 . S
C2315 C2319 1.429 . S
C2316 C2299 1.574 . S
C2316 H2310 0.949 . S
C2316 C2320 1.368 . S
C2317 C2298 1.429 . S
C2317 C2311 1.429 . S
C2317 C2318 1.523 . S
C2318 C2299 1.368 . S
C2318 C2312 1.368 . S
C2318 C2317 1.523 . S
C2319 C2303 1.429 . S
C2319 C2315 1.429 . S
C2319 C2320 1.523 . S
C2320 C2304 1.368 . S
C2320 C2316 1.368 . S
C2320 C2319 1.523 . S
H2321 C2296 0.950 . S
H2322 C2298 0.950 . S
H2323 C2299 0.949 . S
H2324 C2301 0.950 . S
H2325 C2303 0.950 . S
C2326 C2327 1.349 . S
C2326 C2328 1.327 . S
C2326 H2351 0.950 . S
C2327 C2326 1.349 . S
C2327 C2343 1.349 . S
C2328 C2326 1.327 . S
C2328 C2347 1.429 . S
C2328 H2352 0.950 . S
C2329 C2346 1.574 . S
C2329 C2348 1.368 . S
C2329 H2353 0.949 . S
H2330 C2334 0.949 . S
C2331 C2332 1.349 . S
C2331 C2333 1.327 . S
C2331 H2354 0.950 . S
C2332 C2331 1.349 . S
C2332 C2344 1.349 . S
C2333 C2331 1.327 . S
C2333 C2349 1.429 . S
C2333 H2355 0.950 . S
C2334 H2330 0.949 . S
C2334 C2342 1.574 . S
C2334 C2350 1.368 . S
H2335 C2343 0.950 . S
H2336 C2341 0.950 . S
H2337 C2342 0.949 . S
H2338 C2344 0.950 . S
H2339 C2345 0.950 . S
H2340 C2346 0.949 . S
C2341 H2336 0.950 . S
C2341 C2343 1.327 . S
C2341 C2347 1.429 . S
C2342 C2334 1.574 . S
C2342 H2337 0.949 . S
C2342 C2348 1.368 . S
C2343 C2327 1.349 . S
C2343 H2335 0.950 . S
C2343 C2341 1.327 . S
C2344 C2332 1.349 . S
C2344 H2338 0.950 . S
C2344 C2345 1.327 . S
C2345 H2339 0.950 . S
C2345 C2344 1.327 . S
C2345 C2349 1.429 . S
C2346 C2329 1.574 . S
C2346 H2340 0.949 . S
C2346 C2350 1.368 . S
C2347 C2328 1.429 . S
C2347 C2341 1.429 . S
C2347 C2348 1.523 . S
C2348 C2329 1.368 . S
C2348 C2342 1.368 . S
C2348 C2347 1.523 . S
C2349 C2333 1.429 . S
C2349 C2345 1.429 . S
C2349 C2350 1.523 . S
C2350 C2334 1.368 . S
C2350 C2346 1.368 . S
C2350 C2349 1.523 . S
H2351 C2326 0.950 . S
H2352 C2328 0.950 . S
H2353 C2329 0.949 . S
H2354 C2331 0.950 . S
H2355 C2333 0.950 . S
C2356 C2357 1.349 . S
C2356 C2358 1.327 . S
C2356 H2381 0.950 . S
C2357 C2356 1.349 . S
C2357 C2373 1.349 . S
C2358 C2356 1.327 . S
C2358 C2377 1.429 . S
C2358 H2382 0.950 . S
C2359 C2376 1.574 . S
C2359 C2378 1.368 . S
C2359 H2383 0.949 . S
H2360 C2364 0.949 . S
C2361 C2362 1.349 . S
C2361 C2363 1.327 . S
C2361 H2384 0.950 . S
C2362 C2361 1.349 . S
C2362 C2374 1.349 . S
C2363 C2361 1.327 . S
C2363 C2379 1.429 . S
C2363 H2385 0.950 . S
C2364 H2360 0.949 . S
C2364 C2372 1.574 . S
C2364 C2380 1.368 . S
H2365 C2373 0.950 . S
H2366 C2371 0.950 . S
H2367 C2372 0.949 . S
H2368 C2374 0.950 . S
H2369 C2375 0.950 . S
H2370 C2376 0.949 . S
C2371 H2366 0.950 . S
C2371 C2373 1.327 . S
C2371 C2377 1.429 . S
C2372 C2364 1.574 . S
C2372 H2367 0.949 . S
C2372 C2378 1.368 . S
C2373 C2357 1.349 . S
C2373 H2365 0.950 . S
C2373 C2371 1.327 . S
C2374 C2362 1.349 . S
C2374 H2368 0.950 . S
C2374 C2375 1.327 . S
C2375 H2369 0.950 . S
C2375 C2374 1.327 . S
C2375 C2379 1.429 . S
C2376 C2359 1.574 . S
C2376 H2370 0.949 . S
C2376 C2380 1.368 . S
C2377 C2358 1.429 . S
C2377 C2371 1.429 . S
C2377 C2378 1.523 . S
C2378 C2359 1.368 . S
C2378 C2372 1.368 . S
C2378 C2377 1.523 . S
C2379 C2363 1.429 . S
C2379 C2375 1.429 . S
C2379 C2380 1.523 . S
C2380 C2364 1.368 . S
C2380 C2376 1.368 . S
C2380 C2379 1.523 . S
H2381 C2356 0.950 . S
H2382 C2358 0.950 . S
H2383 C2359 0.949 . S
H2384 C2361 0.950 . S
H2385 C2363 0.950 . S
C2386 C2387 1.349 . S
C2386 C2388 1.327 . S
C2386 H2411 0.950 . S
C2387 C2386 1.349 . S
C2387 C2403 1.349 . S
C2388 C2386 1.327 . S
C2388 C2407 1.429 . S
C2388 H2412 0.950 . S
C2389 C2406 1.574 . S
C2389 C2408 1.368 . S
C2389 H2413 0.949 . S
H2390 C2394 0.949 . S
C2391 C2392 1.349 . S
C2391 C2393 1.327 . S
C2391 H2414 0.950 . S
C2392 C2391 1.349 . S
C2392 C2404 1.349 . S
C2393 C2391 1.327 . S
C2393 C2409 1.429 . S
C2393 H2415 0.950 . S
C2394 H2390 0.949 . S
C2394 C2402 1.574 . S
C2394 C2410 1.368 . S
H2395 C2403 0.950 . S
H2396 C2401 0.950 . S
H2397 C2402 0.949 . S
H2398 C2404 0.950 . S
H2399 C2405 0.950 . S
H2400 C2406 0.949 . S
C2401 H2396 0.950 . S
C2401 C2403 1.327 . S
C2401 C2407 1.429 . S
C2402 C2394 1.574 . S
C2402 H2397 0.949 . S
C2402 C2408 1.368 . S
C2403 C2387 1.349 . S
C2403 H2395 0.950 . S
C2403 C2401 1.327 . S
C2404 C2392 1.349 . S
C2404 H2398 0.950 . S
C2404 C2405 1.327 . S
C2405 H2399 0.950 . S
C2405 C2404 1.327 . S
C2405 C2409 1.429 . S
C2406 C2389 1.574 . S
C2406 H2400 0.949 . S
C2406 C2410 1.368 . S
C2407 C2388 1.429 . S
C2407 C2401 1.429 . S
C2407 C2408 1.523 . S
C2408 C2389 1.368 . S
C2408 C2402 1.368 . S
C2408 C2407 1.523 . S
C2409 C2393 1.429 . S
C2409 C2405 1.429 . S
C2409 C2410 1.523 . S
C2410 C2394 1.368 . S
C2410 C2406 1.368 . S
C2410 C2409 1.523 . S
H2411 C2386 0.950 . S
H2412 C2388 0.950 . S
H2413 C2389 0.949 . S
H2414 C2391 0.950 . S
H2415 C2393 0.950 . S
C2416 C2417 1.349 . S
C2416 C2418 1.327 . S
C2416 H2441 0.950 . S
C2417 C2416 1.349 . S
C2417 C2433 1.349 . S
C2418 C2416 1.327 . S
C2418 C2437 1.429 . S
C2418 H2442 0.950 . S
C2419 C2436 1.574 . S
C2419 C2438 1.368 . S
C2419 H2443 0.949 . S
H2420 C2424 0.949 . S
C2421 C2422 1.349 . S
C2421 C2423 1.327 . S
C2421 H2444 0.950 . S
C2422 C2421 1.349 . S
C2422 C2434 1.349 . S
C2423 C2421 1.327 . S
C2423 C2439 1.429 . S
C2423 H2445 0.950 . S
C2424 H2420 0.949 . S
C2424 C2432 1.574 . S
C2424 C2440 1.368 . S
H2425 C2433 0.950 . S
H2426 C2431 0.950 . S
H2427 C2432 0.949 . S
H2428 C2434 0.950 . S
H2429 C2435 0.950 . S
H2430 C2436 0.949 . S
C2431 H2426 0.950 . S
C2431 C2433 1.327 . S
C2431 C2437 1.429 . S
C2432 C2424 1.574 . S
C2432 H2427 0.949 . S
C2432 C2438 1.368 . S
C2433 C2417 1.349 . S
C2433 H2425 0.950 . S
C2433 C2431 1.327 . S
C2434 C2422 1.349 . S
C2434 H2428 0.950 . S
C2434 C2435 1.327 . S
C2435 H2429 0.950 . S
C2435 C2434 1.327 . S
C2435 C2439 1.429 . S
C2436 C2419 1.574 . S
C2436 H2430 0.949 . S
C2436 C2440 1.368 . S
C2437 C2418 1.429 . S
C2437 C2431 1.429 . S
C2437 C2438 1.523 . S
C2438 C2419 1.368 . S
C2438 C2432 1.368 . S
C2438 C2437 1.523 . S
C2439 C2423 1.429 . S
C2439 C2435 1.429 . S
C2439 C2440 1.523 . S
C2440 C2424 1.368 . S
C2440 C2436 1.368 . S
C2440 C2439 1.523 . S
H2441 C2416 0.950 . S
H2442 C2418 0.950 . S
H2443 C2419 0.949 . S
H2444 C2421 0.950 . S
H2445 C2423 0.950 . S
C2446 C2447 1.349 . S
C2446 C2448 1.327 . S
C2446 H2471 0.950 . S
C2447 C2446 1.349 . S
C2447 C2463 1.349 . S
C2448 C2446 1.327 . S
C2448 C2467 1.429 . S
C2448 H2472 0.950 . S
C2449 C2466 1.574 . S
C2449 C2468 1.368 . S
C2449 H2473 0.949 . S
H2450 C2454 0.949 . S
C2451 C2452 1.349 . S
C2451 C2453 1.327 . S
C2451 H2474 0.950 . S
C2452 C2451 1.349 . S
C2452 C2464 1.349 . S
C2453 C2451 1.327 . S
C2453 C2469 1.429 . S
C2453 H2475 0.950 . S
C2454 H2450 0.949 . S
C2454 C2462 1.574 . S
C2454 C2470 1.368 . S
H2455 C2463 0.950 . S
H2456 C2461 0.950 . S
H2457 C2462 0.949 . S
H2458 C2464 0.950 . S
H2459 C2465 0.950 . S
H2460 C2466 0.949 . S
C2461 H2456 0.950 . S
C2461 C2463 1.327 . S
C2461 C2467 1.429 . S
C2462 C2454 1.574 . S
C2462 H2457 0.949 . S
C2462 C2468 1.368 . S
C2463 C2447 1.349 . S
C2463 H2455 0.950 . S
C2463 C2461 1.327 . S
C2464 C2452 1.349 . S
C2464 H2458 0.950 . S
C2464 C2465 1.327 . S
C2465 H2459 0.950 . S
C2465 C2464 1.327 . S
C2465 C2469 1.429 . S
C2466 C2449 1.574 . S
C2466 H2460 0.949 . S
C2466 C2470 1.368 . S
C2467 C2448 1.429 . S
C2467 C2461 1.429 . S
C2467 C2468 1.523 . S
C2468 C2449 1.368 . S
C2468 C2462 1.368 . S
C2468 C2467 1.523 . S
C2469 C2453 1.429 . S
C2469 C2465 1.429 . S
C2469 C2470 1.523 . S
C2470 C2454 1.368 . S
C2470 C2466 1.368 . S
C2470 C2469 1.523 . S
H2471 C2446 0.950 . S
H2472 C2448 0.950 . S
H2473 C2449 0.949 . S
H2474 C2451 0.950 . S
H2475 C2453 0.950 . S
C2476 C2477 1.349 . S
C2476 C2478 1.327 . S
C2476 H2501 0.950 . S
C2477 C2476 1.349 . S
C2477 C2493 1.349 . S
C2478 C2476 1.327 . S
C2478 C2497 1.429 . S
C2478 H2502 0.950 . S
C2479 C2496 1.574 . S
C2479 C2498 1.368 . S
C2479 H2503 0.949 . S
H2480 C2484 0.949 . S
C2481 C2482 1.349 . S
C2481 C2483 1.327 . S
C2481 H2504 0.950 . S
C2482 C2481 1.349 . S
C2482 C2494 1.349 1_554 S
C2483 C2481 1.327 . S
C2483 C2499 1.429 1_554 S
C2483 H2505 0.950 . S
C2484 H2480 0.949 . S
C2484 C2492 1.574 . S
C2484 C2500 1.368 . S
H2485 C2493 0.950 . S
H2486 C2491 0.950 . S
H2487 C2492 0.949 . S
H2488 C2494 0.950 . S
H2489 C2495 0.950 . S
H2490 C2496 0.949 1_554 S
C2491 H2486 0.950 . S
C2491 C2493 1.327 . S
C2491 C2497 1.429 . S
C2492 C2484 1.574 . S
C2492 H2487 0.949 . S
C2492 C2498 1.368 . S
C2493 C2477 1.349 . S
C2493 H2485 0.950 . S
C2493 C2491 1.327 . S
C2494 C2482 1.349 1_556 S
C2494 H2488 0.950 . S
C2494 C2495 1.327 . S
C2495 H2489 0.950 . S
C2495 C2494 1.327 . S
C2495 C2499 1.429 . S
C2496 C2479 1.574 . S
C2496 H2490 0.949 1_556 S
C2496 C2500 1.368 . S
C2497 C2478 1.429 . S
C2497 C2491 1.429 . S
C2497 C2498 1.523 . S
C2498 C2479 1.368 . S
C2498 C2492 1.368 . S
C2498 C2497 1.523 . S
C2499 C2483 1.429 1_556 S
C2499 C2495 1.429 . S
C2499 C2500 1.523 . S
C2500 C2484 1.368 . S
C2500 C2496 1.368 . S
C2500 C2499 1.523 . S
H2501 C2476 0.950 . S
H2502 C2478 0.950 . S
H2503 C2479 0.949 . S
H2504 C2481 0.950 . S
H2505 C2483 0.950 . S
C2506 C2507 1.349 . S
C2506 C2508 1.327 1_455 S
C2506 H2531 0.950 . S
C2507 C2506 1.349 . S
C2507 C2523 1.349 . S
C2508 C2506 1.327 1_655 S
C2508 C2527 1.429 . S
C2508 H2532 0.950 . S
C2509 C2526 1.574 . S
C2509 C2528 1.368 . S
C2509 H2533 0.949 . S
H2510 C2514 0.949 . S
C2511 C2512 1.349 . S
C2511 C2513 1.327 . S
C2511 H2534 0.950 . S
C2512 C2511 1.349 . S
C2512 C2524 1.349 . S
C2513 C2511 1.327 . S
C2513 C2529 1.429 . S
C2513 H2535 0.950 . S
C2514 H2510 0.949 . S
C2514 C2522 1.574 . S
C2514 C2530 1.368 . S
H2515 C2523 0.950 . S
H2516 C2521 0.949 1_655 S
H2517 C2522 0.949 . S
H2518 C2524 0.950 . S
H2519 C2525 0.950 . S
H2520 C2526 0.949 . S
C2521 H2516 0.949 1_455 S
C2521 C2523 1.387 . S
C2521 C2527 1.373 1_455 S
C2522 C2514 1.574 . S
C2522 H2517 0.949 . S
C2522 C2528 1.368 . S
C2523 C2507 1.349 . S
C2523 H2515 0.950 . S
C2523 C2521 1.387 . S
C2524 C2512 1.349 . S
C2524 H2518 0.950 . S
C2524 C2525 1.327 . S
C2525 H2519 0.950 . S
C2525 C2524 1.327 . S
C2525 C2529 1.429 . S
C2526 C2509 1.574 . S
C2526 H2520 0.949 . S
C2526 C2530 1.368 . S
C2527 C2508 1.429 . S
C2527 C2521 1.373 1_655 S
C2527 C2528 1.523 . S
C2528 C2509 1.368 . S
C2528 C2522 1.368 . S
C2528 C2527 1.523 . S
C2529 C2513 1.429 . S
C2529 C2525 1.429 . S
C2529 C2530 1.523 . S
C2530 C2514 1.368 . S
C2530 C2526 1.368 . S
C2530 C2529 1.523 . S
H2531 C2506 0.950 . S
H2532 C2508 0.950 . S
H2533 C2509 0.949 . S
H2534 C2511 0.950 . S
H2535 C2513 0.950 . S
C2536 C2537 1.349 . S
C2536 C2538 1.327 . S
C2536 H2561 0.950 . S
C2537 C2536 1.349 . S
C2537 C2553 1.349 . S
C2538 C2536 1.327 . S
C2538 C2557 1.429 . S
C2538 H2562 0.950 . S
C2539 C2556 1.574 . S
C2539 C2558 1.368 . S
C2539 H2563 0.949 . S
H2540 C2544 0.949 . S
C2541 C2542 1.349 . S
C2541 C2543 1.327 . S
C2541 H2564 0.950 . S
C2542 C2541 1.349 . S
C2542 C2554 1.349 . S
C2543 C2541 1.327 . S
C2543 C2559 1.429 . S
C2543 H2565 0.950 . S
C2544 H2540 0.949 . S
C2544 C2552 1.574 . S
C2544 C2560 1.368 . S
H2545 C2553 0.950 . S
H2546 C2551 0.950 . S
H2547 C2552 0.949 . S
H2548 C2554 0.950 . S
H2549 C2555 0.950 . S
H2550 C2556 0.949 . S
C2551 H2546 0.950 . S
C2551 C2553 1.327 . S
C2551 C2557 1.429 . S
C2552 C2544 1.574 . S
C2552 H2547 0.949 . S
C2552 C2558 1.368 . S
C2553 C2537 1.349 . S
C2553 H2545 0.950 . S
C2553 C2551 1.327 . S
C2554 C2542 1.349 . S
C2554 H2548 0.950 . S
C2554 C2555 1.327 . S
C2555 H2549 0.950 . S
C2555 C2554 1.327 . S
C2555 C2559 1.429 . S
C2556 C2539 1.574 . S
C2556 H2550 0.949 . S
C2556 C2560 1.368 . S
C2557 C2538 1.429 . S
C2557 C2551 1.429 . S
C2557 C2558 1.523 . S
C2558 C2539 1.368 . S
C2558 C2552 1.368 . S
C2558 C2557 1.523 . S
C2559 C2543 1.429 . S
C2559 C2555 1.429 . S
C2559 C2560 1.523 . S
C2560 C2544 1.368 . S
C2560 C2556 1.368 . S
C2560 C2559 1.523 . S
H2561 C2536 0.950 . S
H2562 C2538 0.950 . S
H2563 C2539 0.949 . S
H2564 C2541 0.950 . S
H2565 C2543 0.950 . S
C2566 C2567 1.349 . S
C2566 C2568 1.327 . S
C2566 H2591 0.950 . S
C2567 C2566 1.349 . S
C2567 C2583 1.349 . S
C2568 C2566 1.327 . S
C2568 C2587 1.429 . S
C2568 H2592 0.950 . S
C2569 C2586 1.574 . S
C2569 C2588 1.368 . S
C2569 H2593 0.949 . S
H2570 C2574 0.949 . S
C2571 C2572 1.349 . S
C2571 C2573 1.327 . S
C2571 H2594 0.950 . S
C2572 C2571 1.349 . S
C2572 C2584 1.349 . S
C2573 C2571 1.327 . S
C2573 C2589 1.429 . S
C2573 H2595 0.950 . S
C2574 H2570 0.949 . S
C2574 C2582 1.574 . S
C2574 C2590 1.368 . S
H2575 C2583 0.950 . S
H2576 C2581 0.950 . S
H2577 C2582 0.949 1_455 S
H2578 C2584 0.950 . S
H2579 C2585 0.950 . S
H2580 C2586 0.949 . S
C2581 H2576 0.950 . S
C2581 C2583 1.327 . S
C2581 C2587 1.429 . S
C2582 C2574 1.574 . S
C2582 H2577 0.949 1_655 S
C2582 C2588 1.368 . S
C2583 C2567 1.349 . S
C2583 H2575 0.950 . S
C2583 C2581 1.327 . S
C2584 C2572 1.349 . S
C2584 H2578 0.950 . S
C2584 C2585 1.327 . S
C2585 H2579 0.950 . S
C2585 C2584 1.327 . S
C2585 C2589 1.429 . S
C2586 C2569 1.574 . S
C2586 H2580 0.949 . S
C2586 C2590 1.368 . S
C2587 C2568 1.429 . S
C2587 C2581 1.429 . S
C2587 C2588 1.523 1_455 S
C2588 C2569 1.368 . S
C2588 C2582 1.368 . S
C2588 C2587 1.523 1_655 S
C2589 C2573 1.429 . S
C2589 C2585 1.429 . S
C2589 C2590 1.523 . S
C2590 C2574 1.368 . S
C2590 C2586 1.368 . S
C2590 C2589 1.523 . S
H2591 C2566 0.950 . S
H2592 C2568 0.950 . S
H2593 C2569 0.949 . S
H2594 C2571 0.950 . S
H2595 C2573 0.950 . S
C2596 C2597 1.349 . S
C2596 C2598 1.327 . S
C2596 H2621 0.950 . S
C2597 C2596 1.349 . S
C2597 C2613 1.349 . S
C2598 C2596 1.327 . S
C2598 C2617 1.412 1_655 S
C2598 H2622 0.950 . S
C2599 C2616 1.574 . S
C2599 C2618 1.368 . S
C2599 H2623 0.949 . S
H2600 C2604 0.949 . S
C2601 C2602 1.349 . S
C2601 C2603 1.327 . S
C2601 H2624 0.950 . S
C2602 C2601 1.349 . S
C2602 C2614 1.349 . S
C2603 C2601 1.327 . S
C2603 C2619 1.429 . S
C2603 H2625 0.950 . S
C2604 H2600 0.949 . S
C2604 C2612 1.574 . S
C2604 C2620 1.368 . S
H2605 C2613 0.950 . S
H2606 C2611 0.950 . S
H2607 C2612 0.949 1_655 S
H2608 C2614 0.950 . S
H2609 C2615 0.950 . S
H2610 C2616 0.949 . S
C2611 H2606 0.950 . S
C2611 C2613 1.327 1_455 S
C2611 C2617 1.424 . S
C2612 C2604 1.574 . S
C2612 H2607 0.949 1_455 S
C2612 C2618 1.368 . S
C2613 C2597 1.349 . S
C2613 H2605 0.950 . S
C2613 C2611 1.327 1_655 S
C2614 C2602 1.349 . S
C2614 H2608 0.950 . S
C2614 C2615 1.327 . S
C2615 H2609 0.950 . S
C2615 C2614 1.327 . S
C2615 C2619 1.429 . S
C2616 C2599 1.574 . S
C2616 H2610 0.949 . S
C2616 C2620 1.368 . S
C2617 C2598 1.412 1_455 S
C2617 C2611 1.424 . S
C2617 C2618 1.544 . S
C2618 C2599 1.368 . S
C2618 C2612 1.368 . S
C2618 C2617 1.544 . S
C2619 C2603 1.429 . S
C2619 C2615 1.429 . S
C2619 C2620 1.523 . S
C2620 C2604 1.368 . S
C2620 C2616 1.368 . S
C2620 C2619 1.523 . S
H2621 C2596 0.950 . S
H2622 C2598 0.950 . S
H2623 C2599 0.949 . S
H2624 C2601 0.950 . S
H2625 C2603 0.950 . S
C2626 C2627 1.349 . S
C2626 C2628 1.327 . S
C2626 H2651 0.950 . S
C2627 C2626 1.349 . S
C2627 C2643 1.349 . S
C2628 C2626 1.327 . S
C2628 C2647 1.429 . S
C2628 H2652 0.950 . S
C2629 C2646 1.574 . S
C2629 C2648 1.368 . S
C2629 H2653 0.949 . S
H2630 C2634 0.949 . S
C2631 C2632 1.349 . S
C2631 C2633 1.327 . S
C2631 H2654 0.950 . S
C2632 C2631 1.349 . S
C2632 C2644 1.349 . S
C2633 C2631 1.327 . S
C2633 C2649 1.429 . S
C2633 H2655 0.950 . S
C2634 H2630 0.949 . S
C2634 C2642 1.574 . S
C2634 C2650 1.368 . S
H2635 C2643 0.950 . S
H2636 C2641 0.950 . S
H2637 C2642 0.949 . S
H2638 C2644 0.950 . S
H2639 C2645 0.950 . S
H2640 C2646 0.949 . S
C2641 H2636 0.950 . S
C2641 C2643 1.327 . S
C2641 C2647 1.429 . S
C2642 C2634 1.574 . S
C2642 H2637 0.949 . S
C2642 C2648 1.368 . S
C2643 C2627 1.349 . S
C2643 H2635 0.950 . S
C2643 C2641 1.327 . S
C2644 C2632 1.349 . S
C2644 H2638 0.950 . S
C2644 C2645 1.327 . S
C2645 H2639 0.950 . S
C2645 C2644 1.327 . S
C2645 C2649 1.429 . S
C2646 C2629 1.574 . S
C2646 H2640 0.949 . S
C2646 C2650 1.368 . S
C2647 C2628 1.429 . S
C2647 C2641 1.429 . S
C2647 C2648 1.523 . S
C2648 C2629 1.368 . S
C2648 C2642 1.368 . S
C2648 C2647 1.523 . S
C2649 C2633 1.429 . S
C2649 C2645 1.429 . S
C2649 C2650 1.523 . S
C2650 C2634 1.368 . S
C2650 C2646 1.368 . S
C2650 C2649 1.523 . S
H2651 C2626 0.950 . S
H2652 C2628 0.950 . S
H2653 C2629 0.949 . S
H2654 C2631 0.950 . S
H2655 C2633 0.950 . S
C2656 C2657 1.349 . S
C2656 C2658 1.327 . S
C2656 H2681 0.950 . S
C2657 C2656 1.349 . S
C2657 C2673 1.349 . S
C2658 C2656 1.327 . S
C2658 C2677 1.429 . S
C2658 H2682 0.950 . S
C2659 C2676 1.574 . S
C2659 C2678 1.368 . S
C2659 H2683 0.949 . S
H2660 C2664 0.949 . S
C2661 C2662 1.349 . S
C2661 C2663 1.327 . S
C2661 H2684 0.950 . S
C2662 C2661 1.349 . S
C2662 C2674 1.349 . S
C2663 C2661 1.327 . S
C2663 C2679 1.429 . S
C2663 H2685 0.950 . S
C2664 H2660 0.949 . S
C2664 C2672 1.574 . S
C2664 C2680 1.368 . S
H2665 C2673 0.950 . S
H2666 C2671 0.950 . S
H2667 C2672 0.949 . S
H2668 C2674 0.950 . S
H2669 C2675 0.950 . S
H2670 C2676 0.949 . S
C2671 H2666 0.950 . S
C2671 C2673 1.327 . S
C2671 C2677 1.429 . S
C2672 C2664 1.574 . S
C2672 H2667 0.949 . S
C2672 C2678 1.368 . S
C2673 C2657 1.349 . S
C2673 H2665 0.950 . S
C2673 C2671 1.327 . S
C2674 C2662 1.349 . S
C2674 H2668 0.950 . S
C2674 C2675 1.327 . S
C2675 H2669 0.950 . S
C2675 C2674 1.327 . S
C2675 C2679 1.429 . S
C2676 C2659 1.574 . S
C2676 H2670 0.949 . S
C2676 C2680 1.368 . S
C2677 C2658 1.429 . S
C2677 C2671 1.429 . S
C2677 C2678 1.523 . S
C2678 C2659 1.368 . S
C2678 C2672 1.368 . S
C2678 C2677 1.523 . S
C2679 C2663 1.429 . S
C2679 C2675 1.429 . S
C2679 C2680 1.523 . S
C2680 C2664 1.368 . S
C2680 C2676 1.368 . S
C2680 C2679 1.523 . S
H2681 C2656 0.950 . S
H2682 C2658 0.950 . S
H2683 C2659 0.949 . S
H2684 C2661 0.950 . S
H2685 C2663 0.950 . S
C2686 C2687 1.349 . S
C2686 C2688 1.327 . S
C2686 H2711 0.950 . S
C2687 C2686 1.349 . S
C2687 C2703 1.349 . S
C2688 C2686 1.327 . S
C2688 C2707 1.429 . S
C2688 H2712 0.950 . S
C2689 C2706 1.574 . S
C2689 C2708 1.368 . S
C2689 H2713 0.949 . S
H2690 C2694 0.949 . S
C2691 C2692 1.349 . S
C2691 C2693 1.327 . S
C2691 H2714 0.950 . S
C2692 C2691 1.349 . S
C2692 C2704 1.349 . S
C2693 C2691 1.327 . S
C2693 C2709 1.429 . S
C2693 H2715 0.950 . S
C2694 H2690 0.949 . S
C2694 C2702 1.574 . S
C2694 C2710 1.368 . S
H2695 C2703 0.950 . S
H2696 C2701 0.950 . S
H2697 C2702 0.949 . S
H2698 C2704 0.950 . S
H2699 C2705 0.950 . S
H2700 C2706 0.949 . S
C2701 H2696 0.950 . S
C2701 C2703 1.327 . S
C2701 C2707 1.429 . S
C2702 C2694 1.574 . S
C2702 H2697 0.949 . S
C2702 C2708 1.368 . S
C2703 C2687 1.349 . S
C2703 H2695 0.950 . S
C2703 C2701 1.327 . S
C2704 C2692 1.349 . S
C2704 H2698 0.950 . S
C2704 C2705 1.327 . S
C2705 H2699 0.950 . S
C2705 C2704 1.327 . S
C2705 C2709 1.429 . S
C2706 C2689 1.574 . S
C2706 H2700 0.949 . S
C2706 C2710 1.368 . S
C2707 C2688 1.429 . S
C2707 C2701 1.429 . S
C2707 C2708 1.523 . S
C2708 C2689 1.368 . S
C2708 C2702 1.368 . S
C2708 C2707 1.523 . S
C2709 C2693 1.429 . S
C2709 C2705 1.429 . S
C2709 C2710 1.523 . S
C2710 C2694 1.368 . S
C2710 C2706 1.368 . S
C2710 C2709 1.523 . S
H2711 C2686 0.950 . S
H2712 C2688 0.950 . S
H2713 C2689 0.949 . S
H2714 C2691 0.950 . S
H2715 C2693 0.950 . S
C2716 C2717 1.349 . S
C2716 C2718 1.327 . S
C2716 H2741 0.950 . S
C2717 C2716 1.349 . S
C2717 C2733 1.349 . S
C2718 C2716 1.327 . S
C2718 C2737 1.429 . S
C2718 H2742 0.950 . S
C2719 C2736 1.574 . S
C2719 C2738 1.368 . S
C2719 H2743 0.949 . S
H2720 C2724 0.949 . S
C2721 C2722 1.349 . S
C2721 C2723 1.327 . S
C2721 H2744 0.950 . S
C2722 C2721 1.349 . S
C2722 C2734 1.349 . S
C2723 C2721 1.327 . S
C2723 C2739 1.429 . S
C2723 H2745 0.950 . S
C2724 H2720 0.949 . S
C2724 C2732 1.574 . S
C2724 C2740 1.368 . S
H2725 C2733 0.950 . S
H2726 C2731 0.950 . S
H2727 C2732 0.949 . S
H2728 C2734 0.950 . S
H2729 C2735 0.950 . S
H2730 C2736 0.949 . S
C2731 H2726 0.950 . S
C2731 C2733 1.327 . S
C2731 C2737 1.429 . S
C2732 C2724 1.574 . S
C2732 H2727 0.949 . S
C2732 C2738 1.368 . S
C2733 C2717 1.349 . S
C2733 H2725 0.950 . S
C2733 C2731 1.327 . S
C2734 C2722 1.349 . S
C2734 H2728 0.950 . S
C2734 C2735 1.327 . S
C2735 H2729 0.950 . S
C2735 C2734 1.327 . S
C2735 C2739 1.429 . S
C2736 C2719 1.574 . S
C2736 H2730 0.949 . S
C2736 C2740 1.368 . S
C2737 C2718 1.429 . S
C2737 C2731 1.429 . S
C2737 C2738 1.523 . S
C2738 C2719 1.368 . S
C2738 C2732 1.368 . S
C2738 C2737 1.523 . S
C2739 C2723 1.429 . S
C2739 C2735 1.429 . S
C2739 C2740 1.523 . S
C2740 C2724 1.368 . S
C2740 C2736 1.368 . S
C2740 C2739 1.523 . S
H2741 C2716 0.950 . S
H2742 C2718 0.950 . S
H2743 C2719 0.949 . S
H2744 C2721 0.950 . S
H2745 C2723 0.950 . S
C2746 C2747 1.349 . S
C2746 C2748 1.327 . S
C2746 H2771 0.950 . S
C2747 C2746 1.349 . S
C2747 C2763 1.349 . S
C2748 C2746 1.327 . S
C2748 C2767 1.429 . S
C2748 H2772 0.950 . S
C2749 C2766 1.574 . S
C2749 C2768 1.368 . S
C2749 H2773 0.949 . S
H2750 C2754 0.949 . S
C2751 C2752 1.349 . S
C2751 C2753 1.327 . S
C2751 H2774 0.950 . S
C2752 C2751 1.349 . S
C2752 C2764 1.349 . S
C2753 C2751 1.327 . S
C2753 C2769 1.429 . S
C2753 H2775 0.950 . S
C2754 H2750 0.949 . S
C2754 C2762 1.574 . S
C2754 C2770 1.368 . S
H2755 C2763 0.950 . S
H2756 C2761 0.950 . S
H2757 C2762 0.949 . S
H2758 C2764 0.950 . S
H2759 C2765 0.950 . S
H2760 C2766 0.949 . S
C2761 H2756 0.950 . S
C2761 C2763 1.327 . S
C2761 C2767 1.429 . S
C2762 C2754 1.574 . S
C2762 H2757 0.949 . S
C2762 C2768 1.368 . S
C2763 C2747 1.349 . S
C2763 H2755 0.950 . S
C2763 C2761 1.327 . S
C2764 C2752 1.349 . S
C2764 H2758 0.950 . S
C2764 C2765 1.327 . S
C2765 H2759 0.950 . S
C2765 C2764 1.327 . S
C2765 C2769 1.429 . S
C2766 C2749 1.574 . S
C2766 H2760 0.949 . S
C2766 C2770 1.368 . S
C2767 C2748 1.429 . S
C2767 C2761 1.429 . S
C2767 C2768 1.523 . S
C2768 C2749 1.368 . S
C2768 C2762 1.368 . S
C2768 C2767 1.523 . S
C2769 C2753 1.429 . S
C2769 C2765 1.429 . S
C2769 C2770 1.523 . S
C2770 C2754 1.368 . S
C2770 C2766 1.368 . S
C2770 C2769 1.523 . S
H2771 C2746 0.950 . S
H2772 C2748 0.950 . S
H2773 C2749 0.949 . S
H2774 C2751 0.950 . S
H2775 C2753 0.950 . S
C2776 C2777 1.349 . S
C2776 C2778 1.327 . S
C2776 H2801 0.950 . S
C2777 C2776 1.349 . S
C2777 C2793 1.349 . S
C2778 C2776 1.327 . S
C2778 C2797 1.429 . S
C2778 H2802 0.950 . S
C2779 C2796 1.574 . S
C2779 C2798 1.368 . S
C2779 H2803 0.949 . S
H2780 C2784 0.949 . S
C2781 C2782 1.349 . S
C2781 C2783 1.327 . S
C2781 H2804 0.950 . S
C2782 C2781 1.349 . S
C2782 C2794 1.349 . S
C2783 C2781 1.327 . S
C2783 C2799 1.429 . S
C2783 H2805 0.950 . S
C2784 H2780 0.949 . S
C2784 C2792 1.574 . S
C2784 C2800 1.368 . S
H2785 C2793 0.950 . S
H2786 C2791 0.950 . S
H2787 C2792 0.949 . S
H2788 C2794 0.950 . S
H2789 C2795 0.950 . S
H2790 C2796 0.949 . S
C2791 H2786 0.950 . S
C2791 C2793 1.327 . S
C2791 C2797 1.429 . S
C2792 C2784 1.574 . S
C2792 H2787 0.949 . S
C2792 C2798 1.368 . S
C2793 C2777 1.349 . S
C2793 H2785 0.950 . S
C2793 C2791 1.327 . S
C2794 C2782 1.349 . S
C2794 H2788 0.950 . S
C2794 C2795 1.327 . S
C2795 H2789 0.950 . S
C2795 C2794 1.327 . S
C2795 C2799 1.429 . S
C2796 C2779 1.574 . S
C2796 H2790 0.949 . S
C2796 C2800 1.368 . S
C2797 C2778 1.429 . S
C2797 C2791 1.429 . S
C2797 C2798 1.523 . S
C2798 C2779 1.368 . S
C2798 C2792 1.368 . S
C2798 C2797 1.523 . S
C2799 C2783 1.429 . S
C2799 C2795 1.429 . S
C2799 C2800 1.523 . S
C2800 C2784 1.368 . S
C2800 C2796 1.368 . S
C2800 C2799 1.523 . S
H2801 C2776 0.950 . S
H2802 C2778 0.950 . S
H2803 C2779 0.949 . S
H2804 C2781 0.950 . S
H2805 C2783 0.950 . S
C2806 C2807 1.349 . S
C2806 C2808 1.327 . S
C2806 H2831 0.950 . S
C2807 C2806 1.349 . S
C2807 C2823 1.349 . S
C2808 C2806 1.327 . S
C2808 C2827 1.429 . S
C2808 H2832 0.950 . S
C2809 C2826 1.574 . S
C2809 C2828 1.368 . S
C2809 H2833 0.949 . S
H2810 C2814 0.949 . S
C2811 C2812 1.349 . S
C2811 C2813 1.327 . S
C2811 H2834 0.950 . S
C2812 C2811 1.349 . S
C2812 C2824 1.349 . S
C2813 C2811 1.327 . S
C2813 C2829 1.429 . S
C2813 H2835 0.950 . S
C2814 H2810 0.949 . S
C2814 C2822 1.574 . S
C2814 C2830 1.368 . S
H2815 C2823 0.950 . S
H2816 C2821 0.950 . S
H2817 C2822 0.949 . S
H2818 C2824 0.950 . S
H2819 C2825 0.950 . S
H2820 C2826 0.949 . S
C2821 H2816 0.950 . S
C2821 C2823 1.327 . S
C2821 C2827 1.429 . S
C2822 C2814 1.574 . S
C2822 H2817 0.949 . S
C2822 C2828 1.368 . S
C2823 C2807 1.349 . S
C2823 H2815 0.950 . S
C2823 C2821 1.327 . S
C2824 C2812 1.349 . S
C2824 H2818 0.950 . S
C2824 C2825 1.327 . S
C2825 H2819 0.950 . S
C2825 C2824 1.327 . S
C2825 C2829 1.429 . S
C2826 C2809 1.574 . S
C2826 H2820 0.949 . S
C2826 C2830 1.368 . S
C2827 C2808 1.429 . S
C2827 C2821 1.429 . S
C2827 C2828 1.523 . S
C2828 C2809 1.368 . S
C2828 C2822 1.368 . S
C2828 C2827 1.523 . S
C2829 C2813 1.429 . S
C2829 C2825 1.429 . S
C2829 C2830 1.523 . S
C2830 C2814 1.368 . S
C2830 C2826 1.368 . S
C2830 C2829 1.523 . S
H2831 C2806 0.950 . S
H2832 C2808 0.950 . S
H2833 C2809 0.949 . S
H2834 C2811 0.950 . S
H2835 C2813 0.950 . S
C2836 C2837 1.349 . S
C2836 C2838 1.327 . S
C2836 H2861 0.950 . S
C2837 C2836 1.349 . S
C2837 C2853 1.349 . S
C2838 C2836 1.327 . S
C2838 C2857 1.429 . S
C2838 H2862 0.950 . S
C2839 C2856 1.574 . S
C2839 C2858 1.368 . S
C2839 H2863 0.949 . S
H2840 C2844 0.949 . S
C2841 C2842 1.349 . S
C2841 C2843 1.327 . S
C2841 H2864 0.950 . S
C2842 C2841 1.349 . S
C2842 C2854 1.349 . S
C2843 C2841 1.327 . S
C2843 C2859 1.429 . S
C2843 H2865 0.950 . S
C2844 H2840 0.949 . S
C2844 C2852 1.574 . S
C2844 C2860 1.368 . S
H2845 C2853 0.950 . S
H2846 C2851 0.950 . S
H2847 C2852 0.949 . S
H2848 C2854 0.950 . S
H2849 C2855 0.950 . S
H2850 C2856 0.949 . S
C2851 H2846 0.950 . S
C2851 C2853 1.327 . S
C2851 C2857 1.429 . S
C2852 C2844 1.574 . S
C2852 H2847 0.949 . S
C2852 C2858 1.368 . S
C2853 C2837 1.349 . S
C2853 H2845 0.950 . S
C2853 C2851 1.327 . S
C2854 C2842 1.349 . S
C2854 H2848 0.950 . S
C2854 C2855 1.327 . S
C2855 H2849 0.950 . S
C2855 C2854 1.327 . S
C2855 C2859 1.429 . S
C2856 C2839 1.574 . S
C2856 H2850 0.949 . S
C2856 C2860 1.368 . S
C2857 C2838 1.429 . S
C2857 C2851 1.429 . S
C2857 C2858 1.523 . S
C2858 C2839 1.368 . S
C2858 C2852 1.368 . S
C2858 C2857 1.523 . S
C2859 C2843 1.429 . S
C2859 C2855 1.429 . S
C2859 C2860 1.523 . S
C2860 C2844 1.368 . S
C2860 C2856 1.368 . S
C2860 C2859 1.523 . S
H2861 C2836 0.950 . S
H2862 C2838 0.950 . S
H2863 C2839 0.949 . S
H2864 C2841 0.950 . S
H2865 C2843 0.950 . S
C2866 C2867 1.349 . S
C2866 C2868 1.327 . S
C2866 H2891 0.950 . S
C2867 C2866 1.349 . S
C2867 C2883 1.349 . S
C2868 C2866 1.327 . S
C2868 C2887 1.429 . S
C2868 H2892 0.950 . S
C2869 C2886 1.574 . S
C2869 C2888 1.368 . S
C2869 H2893 0.949 . S
H2870 C2874 0.949 . S
C2871 C2872 1.349 . S
C2871 C2873 1.327 . S
C2871 H2894 0.950 . S
C2872 C2871 1.349 . S
C2872 C2884 1.349 . S
C2873 C2871 1.327 . S
C2873 C2889 1.429 . S
C2873 H2895 0.950 . S
C2874 H2870 0.949 . S
C2874 C2882 1.574 . S
C2874 C2890 1.368 . S
H2875 C2883 0.950 . S
H2876 C2881 0.950 . S
H2877 C2882 0.949 . S
H2878 C2884 0.950 . S
H2879 C2885 0.950 . S
H2880 C2886 0.949 . S
C2881 H2876 0.950 . S
C2881 C2883 1.327 . S
C2881 C2887 1.429 . S
C2882 C2874 1.574 . S
C2882 H2877 0.949 . S
C2882 C2888 1.368 . S
C2883 C2867 1.349 . S
C2883 H2875 0.950 . S
C2883 C2881 1.327 . S
C2884 C2872 1.349 . S
C2884 H2878 0.950 . S
C2884 C2885 1.327 . S
C2885 H2879 0.950 . S
C2885 C2884 1.327 . S
C2885 C2889 1.429 . S
C2886 C2869 1.574 . S
C2886 H2880 0.949 . S
C2886 C2890 1.368 . S
C2887 C2868 1.429 . S
C2887 C2881 1.429 . S
C2887 C2888 1.523 . S
C2888 C2869 1.368 . S
C2888 C2882 1.368 . S
C2888 C2887 1.523 . S
C2889 C2873 1.429 . S
C2889 C2885 1.429 . S
C2889 C2890 1.523 . S
C2890 C2874 1.368 . S
C2890 C2886 1.368 . S
C2890 C2889 1.523 . S
H2891 C2866 0.950 . S
H2892 C2868 0.950 . S
H2893 C2869 0.949 . S
H2894 C2871 0.950 . S
H2895 C2873 0.950 . S
C2896 C2897 1.349 . S
C2896 C2898 1.327 . S
C2896 H2921 0.950 . S
C2897 C2896 1.349 . S
C2897 C2913 1.349 . S
C2898 C2896 1.327 . S
C2898 C2917 1.429 . S
C2898 H2922 0.950 . S
C2899 C2916 1.574 . S
C2899 C2918 1.368 . S
C2899 H2923 0.949 . S
H2900 C2904 0.949 . S
C2901 C2902 1.349 . S
C2901 C2903 1.327 . S
C2901 H2924 0.950 . S
C2902 C2901 1.349 . S
C2902 C2914 1.349 . S
C2903 C2901 1.327 . S
C2903 C2919 1.429 . S
C2903 H2925 0.950 . S
C2904 H2900 0.949 . S
C2904 C2912 1.574 . S
C2904 C2920 1.368 . S
H2905 C2913 0.950 . S
H2906 C2911 0.950 . S
H2907 C2912 0.949 . S
H2908 C2914 0.950 . S
H2909 C2915 0.950 . S
H2910 C2916 0.949 . S
C2911 H2906 0.950 . S
C2911 C2913 1.327 . S
C2911 C2917 1.429 . S
C2912 C2904 1.574 . S
C2912 H2907 0.949 . S
C2912 C2918 1.368 . S
C2913 C2897 1.349 . S
C2913 H2905 0.950 . S
C2913 C2911 1.327 . S
C2914 C2902 1.349 . S
C2914 H2908 0.950 . S
C2914 C2915 1.327 . S
C2915 H2909 0.950 . S
C2915 C2914 1.327 . S
C2915 C2919 1.429 . S
C2916 C2899 1.574 . S
C2916 H2910 0.949 . S
C2916 C2920 1.368 . S
C2917 C2898 1.429 . S
C2917 C2911 1.429 . S
C2917 C2918 1.523 . S
C2918 C2899 1.368 . S
C2918 C2912 1.368 . S
C2918 C2917 1.523 . S
C2919 C2903 1.429 . S
C2919 C2915 1.429 . S
C2919 C2920 1.523 . S
C2920 C2904 1.368 . S
C2920 C2916 1.368 . S
C2920 C2919 1.523 . S
H2921 C2896 0.950 . S
H2922 C2898 0.950 . S
H2923 C2899 0.949 . S
H2924 C2901 0.950 . S
H2925 C2903 0.950 . S
C2926 C2927 1.349 . S
C2926 C2928 1.327 . S
C2926 H2951 0.950 . S
C2927 C2926 1.349 . S
C2927 C2943 1.349 . S
C2928 C2926 1.327 . S
C2928 C2947 1.429 . S
C2928 H2952 0.950 . S
C2929 C2946 1.574 . S
C2929 C2948 1.368 . S
C2929 H2953 0.949 . S
H2930 C2934 0.949 . S
C2931 C2932 1.349 . S
C2931 C2933 1.327 . S
C2931 H2954 0.950 . S
C2932 C2931 1.349 . S
C2932 C2944 1.349 . S
C2933 C2931 1.327 . S
C2933 C2949 1.429 . S
C2933 H2955 0.950 . S
C2934 H2930 0.949 . S
C2934 C2942 1.574 . S
C2934 C2950 1.368 . S
H2935 C2943 0.950 . S
H2936 C2941 0.950 . S
H2937 C2942 0.949 . S
H2938 C2944 0.950 . S
H2939 C2945 0.950 . S
H2940 C2946 0.949 . S
C2941 H2936 0.950 . S
C2941 C2943 1.327 . S
C2941 C2947 1.429 . S
C2942 C2934 1.574 . S
C2942 H2937 0.949 . S
C2942 C2948 1.368 . S
C2943 C2927 1.349 . S
C2943 H2935 0.950 . S
C2943 C2941 1.327 . S
C2944 C2932 1.349 . S
C2944 H2938 0.950 . S
C2944 C2945 1.327 . S
C2945 H2939 0.950 . S
C2945 C2944 1.327 . S
C2945 C2949 1.429 . S
C2946 C2929 1.574 . S
C2946 H2940 0.949 . S
C2946 C2950 1.368 . S
C2947 C2928 1.429 . S
C2947 C2941 1.429 . S
C2947 C2948 1.523 . S
C2948 C2929 1.368 . S
C2948 C2942 1.368 . S
C2948 C2947 1.523 . S
C2949 C2933 1.429 . S
C2949 C2945 1.429 . S
C2949 C2950 1.523 . S
C2950 C2934 1.368 . S
C2950 C2946 1.368 . S
C2950 C2949 1.523 . S
H2951 C2926 0.950 . S
H2952 C2928 0.950 . S
H2953 C2929 0.949 . S
H2954 C2931 0.950 . S
H2955 C2933 0.950 . S
C2956 C2957 1.349 . S
C2956 C2958 1.327 . S
C2956 H2981 0.950 . S
C2957 C2956 1.349 . S
C2957 C2973 1.349 . S
C2958 C2956 1.327 . S
C2958 C2977 1.429 . S
C2958 H2982 0.950 . S
C2959 C2976 1.574 . S
C2959 C2978 1.368 . S
C2959 H2983 0.949 . S
H2960 C2964 0.949 . S
C2961 C2962 1.349 . S
C2961 C2963 1.327 . S
C2961 H2984 0.950 . S
C2962 C2961 1.349 . S
C2962 C2974 1.349 . S
C2963 C2961 1.327 . S
C2963 C2979 1.429 . S
C2963 H2985 0.950 . S
C2964 H2960 0.949 . S
C2964 C2972 1.574 . S
C2964 C2980 1.368 . S
H2965 C2973 0.950 . S
H2966 C2971 0.950 . S
H2967 C2972 0.949 . S
H2968 C2974 0.950 . S
H2969 C2975 0.950 . S
H2970 C2976 0.949 . S
C2971 H2966 0.950 . S
C2971 C2973 1.327 . S
C2971 C2977 1.429 . S
C2972 C2964 1.574 . S
C2972 H2967 0.949 . S
C2972 C2978 1.368 . S
C2973 C2957 1.349 . S
C2973 H2965 0.950 . S
C2973 C2971 1.327 . S
C2974 C2962 1.349 . S
C2974 H2968 0.950 . S
C2974 C2975 1.327 . S
C2975 H2969 0.950 . S
C2975 C2974 1.327 . S
C2975 C2979 1.429 . S
C2976 C2959 1.574 . S
C2976 H2970 0.949 . S
C2976 C2980 1.368 . S
C2977 C2958 1.429 . S
C2977 C2971 1.429 . S
C2977 C2978 1.523 . S
C2978 C2959 1.368 . S
C2978 C2972 1.368 . S
C2978 C2977 1.523 . S
C2979 C2963 1.429 . S
C2979 C2975 1.429 . S
C2979 C2980 1.523 . S
C2980 C2964 1.368 . S
C2980 C2976 1.368 . S
C2980 C2979 1.523 . S
H2981 C2956 0.950 . S
H2982 C2958 0.950 . S
H2983 C2959 0.949 . S
H2984 C2961 0.950 . S
H2985 C2963 0.950 . S
C2986 C2987 1.398 . S
C2986 C2988 1.304 1_554 S
C2986 H3011 0.915 1_554 S
C2987 C2986 1.398 . S
C2987 C3003 1.349 . S
C2988 C2986 1.304 1_556 S
C2988 C3007 1.397 1_556 S
C2988 H3012 0.996 . S
C2989 C3006 1.574 . S
C2989 C3008 1.368 . S
C2989 H3013 0.949 . S
H2990 C2994 0.949 . S
C2991 C2992 1.349 . S
C2991 C2993 1.327 . S
C2991 H3014 0.950 . S
C2992 C2991 1.349 . S
C2992 C3004 1.349 1_554 S
C2993 C2991 1.327 . S
C2993 C3009 1.429 . S
C2993 H3015 0.950 . S
C2994 H2990 0.949 . S
C2994 C3002 1.574 . S
C2994 C3010 1.368 1_556 S
H2995 C3003 0.950 . S
H2996 C3001 0.950 . S
H2997 C3002 0.949 . S
H2998 C3004 0.950 . S
H2999 C3005 0.950 . S
H3000 C3006 0.949 . S
C3001 H2996 0.950 . S
C3001 C3003 1.327 . S
C3001 C3007 1.429 . S
C3002 C2994 1.574 . S
C3002 H2997 0.949 . S
C3002 C3008 1.368 1_556 S
C3003 C2987 1.349 . S
C3003 H2995 0.950 . S
C3003 C3001 1.327 . S
C3004 C2992 1.349 1_556 S
C3004 H2998 0.950 . S
C3004 C3005 1.327 . S
C3005 H2999 0.950 . S
C3005 C3004 1.327 . S
C3005 C3009 1.429 1_556 S
C3006 C2989 1.574 . S
C3006 H3000 0.949 . S
C3006 C3010 1.368 . S
C3007 C2988 1.397 1_554 S
C3007 C3001 1.429 . S
C3007 C3008 1.523 . S
C3008 C2989 1.368 . S
C3008 C3002 1.368 1_554 S
C3008 C3007 1.523 . S
C3009 C2993 1.429 . S
C3009 C3005 1.429 1_554 S
C3009 C3010 1.523 1_545 S
C3010 C2994 1.368 1_554 S
C3010 C3006 1.368 . S
C3010 C3009 1.523 1_565 S
H3011 C2986 0.915 1_556 S
H3012 C2988 0.996 . S
H3013 C2989 0.949 . S
H3014 C2991 0.950 . S
H3015 C2993 0.950 . S
C3016 C3017 1.349 . S
C3016 C3018 1.327 . S
C3016 H3041 0.950 . S
C3017 C3016 1.349 . S
C3017 C3033 1.349 . S
C3018 C3016 1.327 . S
C3018 C3037 1.429 . S
C3018 H3042 0.950 . S
C3019 C3036 1.574 . S
C3019 C3038 1.368 . S
C3019 H3043 0.949 . S
H3020 C3024 0.949 . S
C3021 C3022 1.349 . S
C3021 C3023 1.327 . S
C3021 H3044 0.950 . S
C3022 C3021 1.349 . S
C3022 C3034 1.349 . S
C3023 C3021 1.327 . S
C3023 C3039 1.429 . S
C3023 H3045 0.950 . S
C3024 H3020 0.949 . S
C3024 C3032 1.574 . S
C3024 C3040 1.368 . S
H3025 C3033 0.950 . S
H3026 C3031 0.950 . S
H3027 C3032 0.949 . S
H3028 C3034 0.950 . S
H3029 C3035 0.950 . S
H3030 C3036 0.949 . S
C3031 H3026 0.950 . S
C3031 C3033 1.327 . S
C3031 C3037 1.429 . S
C3032 C3024 1.574 . S
C3032 H3027 0.949 . S
C3032 C3038 1.368 . S
C3033 C3017 1.349 . S
C3033 H3025 0.950 . S
C3033 C3031 1.327 . S
C3034 C3022 1.349 . S
C3034 H3028 0.950 . S
C3034 C3035 1.327 . S
C3035 H3029 0.950 . S
C3035 C3034 1.327 . S
C3035 C3039 1.429 . S
C3036 C3019 1.574 . S
C3036 H3030 0.949 . S
C3036 C3040 1.368 . S
C3037 C3018 1.429 . S
C3037 C3031 1.429 . S
C3037 C3038 1.523 . S
C3038 C3019 1.368 . S
C3038 C3032 1.368 . S
C3038 C3037 1.523 . S
C3039 C3023 1.429 . S
C3039 C3035 1.429 . S
C3039 C3040 1.523 . S
C3040 C3024 1.368 . S
C3040 C3036 1.368 . S
C3040 C3039 1.523 . S
H3041 C3016 0.950 . S
H3042 C3018 0.950 . S
H3043 C3019 0.949 . S
H3044 C3021 0.950 . S
H3045 C3023 0.950 . S
C3046 C3047 1.349 . S
C3046 C3048 1.327 . S
C3046 H3071 0.950 . S
C3047 C3046 1.349 . S
C3047 C3063 1.349 1_554 S
C3048 C3046 1.327 . S
C3048 C3067 1.429 . S
C3048 H3072 0.950 . S
C3049 C3066 1.574 . S
C3049 C3068 1.368 . S
C3049 H3073 0.949 1_554 S
H3050 C3054 0.949 . S
C3051 C3052 1.349 . S
C3051 C3053 1.327 . S
C3051 H3074 0.950 . S
C3052 C3051 1.349 . S
C3052 C3064 1.349 . S
C3053 C3051 1.327 . S
C3053 C3069 1.429 . S
C3053 H3075 0.950 . S
C3054 H3050 0.949 . S
C3054 C3062 1.574 . S
C3054 C3070 1.368 . S
H3055 C3063 0.950 . S
H3056 C3061 0.969 . S
H3057 C3062 0.949 . S
H3058 C3064 0.950 . S
H3059 C3065 0.950 . S
H3060 C3066 0.949 . S
C3061 H3056 0.969 . S
C3061 C3063 1.337 . S
C3061 C3067 1.402 1_556 S
C3062 C3054 1.574 . S
C3062 H3057 0.949 . S
C3062 C3068 1.368 . S
C3063 C3047 1.349 1_556 S
C3063 H3055 0.950 . S
C3063 C3061 1.337 . S
C3064 C3052 1.349 . S
C3064 H3058 0.950 . S
C3064 C3065 1.327 . S
C3065 H3059 0.950 . S
C3065 C3064 1.327 . S
C3065 C3069 1.429 . S
C3066 C3049 1.574 . S
C3066 H3060 0.949 . S
C3066 C3070 1.368 . S
C3067 C3048 1.429 . S
C3067 C3061 1.402 1_554 S
C3067 C3068 1.523 . S
C3068 C3049 1.368 . S
C3068 C3062 1.368 . S
C3068 C3067 1.523 . S
C3069 C3053 1.429 . S
C3069 C3065 1.429 . S
C3069 C3070 1.523 . S
C3070 C3054 1.368 . S
C3070 C3066 1.368 . S
C3070 C3069 1.523 . S
H3071 C3046 0.950 . S
H3072 C3048 0.950 . S
H3073 C3049 0.949 1_556 S
H3074 C3051 0.950 . S
H3075 C3053 0.950 . S
C3076 C3077 1.349 . S
C3076 C3078 1.327 . S
C3076 H3101 0.950 . S
C3077 C3076 1.349 . S
C3077 C3093 1.349 . S
C3078 C3076 1.327 . S
C3078 C3097 1.429 . S
C3078 H3102 0.950 . S
C3079 C3096 1.574 . S
C3079 C3098 1.368 . S
C3079 H3103 0.949 . S
H3080 C3084 0.949 . S
C3081 C3082 1.349 . S
C3081 C3083 1.327 . S
C3081 H3104 0.950 . S
C3082 C3081 1.349 . S
C3082 C3094 1.349 . S
C3083 C3081 1.327 . S
C3083 C3099 1.429 . S
C3083 H3105 0.950 . S
C3084 H3080 0.949 . S
C3084 C3092 1.574 . S
C3084 C3100 1.368 . S
H3085 C3093 0.950 . S
H3086 C3091 0.950 . S
H3087 C3092 0.949 . S
H3088 C3094 0.950 . S
H3089 C3095 0.950 . S
H3090 C3096 0.949 . S
C3091 H3086 0.950 . S
C3091 C3093 1.327 . S
C3091 C3097 1.429 . S
C3092 C3084 1.574 . S
C3092 H3087 0.949 . S
C3092 C3098 1.368 . S
C3093 C3077 1.349 . S
C3093 H3085 0.950 . S
C3093 C3091 1.327 . S
C3094 C3082 1.349 . S
C3094 H3088 0.950 . S
C3094 C3095 1.327 . S
C3095 H3089 0.950 . S
C3095 C3094 1.327 . S
C3095 C3099 1.429 . S
C3096 C3079 1.574 . S
C3096 H3090 0.949 . S
C3096 C3100 1.368 . S
C3097 C3078 1.429 . S
C3097 C3091 1.429 . S
C3097 C3098 1.523 . S
C3098 C3079 1.368 . S
C3098 C3092 1.368 . S
C3098 C3097 1.523 . S
C3099 C3083 1.429 . S
C3099 C3095 1.429 . S
C3099 C3100 1.523 . S
C3100 C3084 1.368 . S
C3100 C3096 1.368 . S
C3100 C3099 1.523 . S
H3101 C3076 0.950 . S
H3102 C3078 0.950 . S
H3103 C3079 0.949 . S
H3104 C3081 0.950 . S
H3105 C3083 0.950 . S
C3106 C3107 1.349 . S
C3106 C3108 1.327 . S
C3106 H3131 0.950 . S
C3107 C3106 1.349 . S
C3107 C3123 1.349 . S
C3108 C3106 1.327 . S
C3108 C3127 1.429 . S
C3108 H3132 0.950 . S
C3109 C3126 1.574 . S
C3109 C3128 1.368 . S
C3109 H3133 0.949 . S
H3110 C3114 0.949 . S
C3111 C3112 1.349 . S
C3111 C3113 1.327 . S
C3111 H3134 0.950 . S
C3112 C3111 1.349 . S
C3112 C3124 1.349 . S
C3113 C3111 1.327 . S
C3113 C3129 1.429 . S
C3113 H3135 0.950 . S
C3114 H3110 0.949 . S
C3114 C3122 1.574 . S
C3114 C3130 1.368 . S
H3115 C3123 0.950 . S
H3116 C3121 0.950 . S
H3117 C3122 0.949 . S
H3118 C3124 0.950 . S
H3119 C3125 0.950 . S
H3120 C3126 0.949 . S
C3121 H3116 0.950 . S
C3121 C3123 1.327 . S
C3121 C3127 1.429 . S
C3122 C3114 1.574 . S
C3122 H3117 0.949 . S
C3122 C3128 1.368 . S
C3123 C3107 1.349 . S
C3123 H3115 0.950 . S
C3123 C3121 1.327 . S
C3124 C3112 1.349 . S
C3124 H3118 0.950 . S
C3124 C3125 1.327 . S
C3125 H3119 0.950 . S
C3125 C3124 1.327 . S
C3125 C3129 1.429 . S
C3126 C3109 1.574 . S
C3126 H3120 0.949 . S
C3126 C3130 1.368 . S
C3127 C3108 1.429 . S
C3127 C3121 1.429 . S
C3127 C3128 1.523 . S
C3128 C3109 1.368 . S
C3128 C3122 1.368 . S
C3128 C3127 1.523 . S
C3129 C3113 1.429 . S
C3129 C3125 1.429 . S
C3129 C3130 1.523 . S
C3130 C3114 1.368 . S
C3130 C3126 1.368 . S
C3130 C3129 1.523 . S
H3131 C3106 0.950 . S
H3132 C3108 0.950 . S
H3133 C3109 0.949 . S
H3134 C3111 0.950 . S
H3135 C3113 0.950 . S
C3136 C3137 1.349 . S
C3136 C3138 1.327 . S
C3136 H3161 0.950 . S
C3137 C3136 1.349 . S
C3137 C3153 1.349 . S
C3138 C3136 1.327 . S
C3138 C3157 1.429 . S
C3138 H3162 0.950 . S
C3139 C3156 1.574 . S
C3139 C3158 1.368 . S
C3139 H3163 0.949 . S
H3140 C3144 0.949 . S
C3141 C3142 1.349 . S
C3141 C3143 1.327 . S
C3141 H3164 0.950 . S
C3142 C3141 1.349 . S
C3142 C3154 1.349 . S
C3143 C3141 1.327 . S
C3143 C3159 1.429 . S
C3143 H3165 0.950 . S
C3144 H3140 0.949 . S
C3144 C3152 1.574 . S
C3144 C3160 1.368 . S
H3145 C3153 0.950 . S
H3146 C3151 0.950 . S
H3147 C3152 0.949 . S
H3148 C3154 0.950 . S
H3149 C3155 0.950 . S
H3150 C3156 0.949 . S
C3151 H3146 0.950 . S
C3151 C3153 1.327 . S
C3151 C3157 1.429 . S
C3152 C3144 1.574 . S
C3152 H3147 0.949 . S
C3152 C3158 1.368 . S
C3153 C3137 1.349 . S
C3153 H3145 0.950 . S
C3153 C3151 1.327 . S
C3154 C3142 1.349 . S
C3154 H3148 0.950 . S
C3154 C3155 1.327 . S
C3155 H3149 0.950 . S
C3155 C3154 1.327 . S
C3155 C3159 1.429 . S
C3156 C3139 1.574 . S
C3156 H3150 0.949 . S
C3156 C3160 1.368 . S
C3157 C3138 1.429 . S
C3157 C3151 1.429 . S
C3157 C3158 1.523 . S
C3158 C3139 1.368 . S
C3158 C3152 1.368 . S
C3158 C3157 1.523 . S
C3159 C3143 1.429 . S
C3159 C3155 1.429 . S
C3159 C3160 1.523 . S
C3160 C3144 1.368 . S
C3160 C3156 1.368 . S
C3160 C3159 1.523 . S
H3161 C3136 0.950 . S
H3162 C3138 0.950 . S
H3163 C3139 0.949 . S
H3164 C3141 0.950 . S
H3165 C3143 0.950 . S
C3166 C3167 1.349 . S
C3166 C3168 1.327 . S
C3166 H3191 0.950 . S
C3167 C3166 1.349 . S
C3167 C3183 1.349 . S
C3168 C3166 1.327 . S
C3168 C3187 1.429 . S
C3168 H3192 0.950 . S
C3169 C3186 1.574 . S
C3169 C3188 1.368 . S
C3169 H3193 0.949 . S
H3170 C3174 0.949 . S
C3171 C3172 1.349 . S
C3171 C3173 1.327 . S
C3171 H3194 0.950 . S
C3172 C3171 1.349 . S
C3172 C3184 1.349 . S
C3173 C3171 1.327 . S
C3173 C3189 1.429 . S
C3173 H3195 0.950 . S
C3174 H3170 0.949 . S
C3174 C3182 1.574 . S
C3174 C3190 1.368 . S
H3175 C3183 0.950 . S
H3176 C3181 0.950 . S
H3177 C3182 0.949 . S
H3178 C3184 0.950 . S
H3179 C3185 0.950 . S
H3180 C3186 0.949 . S
C3181 H3176 0.950 . S
C3181 C3183 1.327 . S
C3181 C3187 1.429 . S
C3182 C3174 1.574 . S
C3182 H3177 0.949 . S
C3182 C3188 1.368 . S
C3183 C3167 1.349 . S
C3183 H3175 0.950 . S
C3183 C3181 1.327 . S
C3184 C3172 1.349 . S
C3184 H3178 0.950 . S
C3184 C3185 1.327 . S
C3185 H3179 0.950 . S
C3185 C3184 1.327 . S
C3185 C3189 1.429 . S
C3186 C3169 1.574 . S
C3186 H3180 0.949 . S
C3186 C3190 1.368 . S
C3187 C3168 1.429 . S
C3187 C3181 1.429 . S
C3187 C3188 1.523 . S
C3188 C3169 1.368 . S
C3188 C3182 1.368 . S
C3188 C3187 1.523 . S
C3189 C3173 1.429 . S
C3189 C3185 1.429 . S
C3189 C3190 1.523 . S
C3190 C3174 1.368 . S
C3190 C3186 1.368 . S
C3190 C3189 1.523 . S
H3191 C3166 0.950 . S
H3192 C3168 0.950 . S
H3193 C3169 0.949 . S
H3194 C3171 0.950 . S
H3195 C3173 0.950 . S
C3196 C3197 1.349 . S
C3196 C3198 1.327 . S
C3196 H3221 0.950 . S
C3197 C3196 1.349 . S
C3197 C3213 1.349 . S
C3198 C3196 1.327 . S
C3198 C3217 1.429 . S
C3198 H3222 0.950 . S
C3199 C3216 1.574 . S
C3199 C3218 1.368 . S
C3199 H3223 0.949 . S
H3200 C3204 0.949 . S
C3201 C3202 1.349 . S
C3201 C3203 1.327 . S
C3201 H3224 0.950 . S
C3202 C3201 1.349 . S
C3202 C3214 1.349 . S
C3203 C3201 1.327 . S
C3203 C3219 1.429 . S
C3203 H3225 0.950 . S
C3204 H3200 0.949 . S
C3204 C3212 1.574 . S
C3204 C3220 1.368 . S
H3205 C3213 0.950 . S
H3206 C3211 0.950 . S
H3207 C3212 0.949 . S
H3208 C3214 0.950 . S
H3209 C3215 0.950 . S
H3210 C3216 0.949 . S
C3211 H3206 0.950 . S
C3211 C3213 1.327 . S
C3211 C3217 1.429 . S
C3212 C3204 1.574 . S
C3212 H3207 0.949 . S
C3212 C3218 1.368 . S
C3213 C3197 1.349 . S
C3213 H3205 0.950 . S
C3213 C3211 1.327 . S
C3214 C3202 1.349 . S
C3214 H3208 0.950 . S
C3214 C3215 1.327 . S
C3215 H3209 0.950 . S
C3215 C3214 1.327 . S
C3215 C3219 1.429 . S
C3216 C3199 1.574 . S
C3216 H3210 0.949 . S
C3216 C3220 1.368 . S
C3217 C3198 1.429 . S
C3217 C3211 1.429 . S
C3217 C3218 1.523 . S
C3218 C3199 1.368 . S
C3218 C3212 1.368 . S
C3218 C3217 1.523 . S
C3219 C3203 1.429 . S
C3219 C3215 1.429 . S
C3219 C3220 1.523 . S
C3220 C3204 1.368 . S
C3220 C3216 1.368 . S
C3220 C3219 1.523 . S
H3221 C3196 0.950 . S
H3222 C3198 0.950 . S
H3223 C3199 0.949 . S
H3224 C3201 0.950 . S
H3225 C3203 0.950 . S
C3226 C3227 1.349 . S
C3226 C3228 1.327 . S
C3226 H3251 0.950 . S
C3227 C3226 1.349 . S
C3227 C3243 1.349 . S
C3228 C3226 1.327 . S
C3228 C3247 1.429 . S
C3228 H3252 0.950 . S
C3229 C3246 1.574 . S
C3229 C3248 1.368 . S
C3229 H3253 0.949 . S
H3230 C3234 0.949 . S
C3231 C3232 1.349 . S
C3231 C3233 1.327 . S
C3231 H3254 0.950 . S
C3232 C3231 1.349 . S
C3232 C3244 1.349 . S
C3233 C3231 1.327 . S
C3233 C3249 1.429 . S
C3233 H3255 0.950 . S
C3234 H3230 0.949 . S
C3234 C3242 1.574 . S
C3234 C3250 1.368 . S
H3235 C3243 0.950 . S
H3236 C3241 0.950 . S
H3237 C3242 0.949 . S
H3238 C3244 0.950 . S
H3239 C3245 0.950 . S
H3240 C3246 0.949 . S
C3241 H3236 0.950 . S
C3241 C3243 1.327 . S
C3241 C3247 1.429 . S
C3242 C3234 1.574 . S
C3242 H3237 0.949 . S
C3242 C3248 1.368 . S
C3243 C3227 1.349 . S
C3243 H3235 0.950 . S
C3243 C3241 1.327 . S
C3244 C3232 1.349 . S
C3244 H3238 0.950 . S
C3244 C3245 1.327 . S
C3245 H3239 0.950 . S
C3245 C3244 1.327 . S
C3245 C3249 1.429 . S
C3246 C3229 1.574 . S
C3246 H3240 0.949 . S
C3246 C3250 1.368 . S
C3247 C3228 1.429 . S
C3247 C3241 1.429 . S
C3247 C3248 1.523 . S
C3248 C3229 1.368 . S
C3248 C3242 1.368 . S
C3248 C3247 1.523 . S
C3249 C3233 1.429 . S
C3249 C3245 1.429 . S
C3249 C3250 1.523 . S
C3250 C3234 1.368 . S
C3250 C3246 1.368 . S
C3250 C3249 1.523 . S
H3251 C3226 0.950 . S
H3252 C3228 0.950 . S
H3253 C3229 0.949 . S
H3254 C3231 0.950 . S
H3255 C3233 0.950 . S
C3256 C3257 1.349 . S
C3256 C3258 1.327 . S
C3256 H3281 0.950 . S
C3257 C3256 1.349 . S
C3257 C3273 1.349 . S
C3258 C3256 1.327 . S
C3258 C3277 1.429 . S
C3258 H3282 0.950 . S
C3259 C3276 1.574 . S
C3259 C3278 1.368 . S
C3259 H3283 0.949 . S
H3260 C3264 0.949 . S
C3261 C3262 1.349 . S
C3261 C3263 1.327 . S
C3261 H3284 0.950 . S
C3262 C3261 1.349 . S
C3262 C3274 1.349 . S
C3263 C3261 1.327 . S
C3263 C3279 1.429 . S
C3263 H3285 0.950 . S
C3264 H3260 0.949 . S
C3264 C3272 1.574 . S
C3264 C3280 1.368 . S
H3265 C3273 0.950 . S
H3266 C3271 0.950 . S
H3267 C3272 0.949 . S
H3268 C3274 0.950 . S
H3269 C3275 0.950 . S
H3270 C3276 0.949 . S
C3271 H3266 0.950 . S
C3271 C3273 1.327 . S
C3271 C3277 1.429 . S
C3272 C3264 1.574 . S
C3272 H3267 0.949 . S
C3272 C3278 1.368 . S
C3273 C3257 1.349 . S
C3273 H3265 0.950 . S
C3273 C3271 1.327 . S
C3274 C3262 1.349 . S
C3274 H3268 0.950 . S
C3274 C3275 1.327 . S
C3275 H3269 0.950 . S
C3275 C3274 1.327 . S
C3275 C3279 1.429 . S
C3276 C3259 1.574 . S
C3276 H3270 0.949 . S
C3276 C3280 1.368 . S
C3277 C3258 1.429 . S
C3277 C3271 1.429 . S
C3277 C3278 1.523 . S
C3278 C3259 1.368 . S
C3278 C3272 1.368 . S
C3278 C3277 1.523 . S
C3279 C3263 1.429 . S
C3279 C3275 1.429 . S
C3279 C3280 1.523 . S
C3280 C3264 1.368 . S
C3280 C3276 1.368 . S
C3280 C3279 1.523 . S
H3281 C3256 0.950 . S
H3282 C3258 0.950 . S
H3283 C3259 0.949 . S
H3284 C3261 0.950 . S
H3285 C3263 0.950 . S
C3286 C3287 1.349 . S
C3286 C3288 1.327 . S
C3286 H3311 0.950 . S
C3287 C3286 1.349 . S
C3287 C3303 1.349 . S
C3288 C3286 1.327 . S
C3288 C3307 1.429 . S
C3288 H3312 0.950 . S
C3289 C3306 1.574 . S
C3289 C3308 1.368 . S
C3289 H3313 0.949 . S
H3290 C3294 0.949 . S
C3291 C3292 1.349 . S
C3291 C3293 1.327 . S
C3291 H3314 0.950 . S
C3292 C3291 1.349 . S
C3292 C3304 1.349 . S
C3293 C3291 1.327 . S
C3293 C3309 1.429 . S
C3293 H3315 0.950 . S
C3294 H3290 0.949 . S
C3294 C3302 1.574 . S
C3294 C3310 1.368 . S
H3295 C3303 0.950 . S
H3296 C3301 0.950 . S
H3297 C3302 0.949 . S
H3298 C3304 0.950 . S
H3299 C3305 0.950 . S
H3300 C3306 0.949 . S
C3301 H3296 0.950 . S
C3301 C3303 1.327 . S
C3301 C3307 1.429 . S
C3302 C3294 1.574 . S
C3302 H3297 0.949 . S
C3302 C3308 1.368 . S
C3303 C3287 1.349 . S
C3303 H3295 0.950 . S
C3303 C3301 1.327 . S
C3304 C3292 1.349 . S
C3304 H3298 0.950 . S
C3304 C3305 1.327 . S
C3305 H3299 0.950 . S
C3305 C3304 1.327 . S
C3305 C3309 1.429 . S
C3306 C3289 1.574 . S
C3306 H3300 0.949 . S
C3306 C3310 1.368 . S
C3307 C3288 1.429 . S
C3307 C3301 1.429 . S
C3307 C3308 1.523 . S
C3308 C3289 1.368 . S
C3308 C3302 1.368 . S
C3308 C3307 1.523 . S
C3309 C3293 1.429 . S
C3309 C3305 1.429 . S
C3309 C3310 1.523 . S
C3310 C3294 1.368 . S
C3310 C3306 1.368 . S
C3310 C3309 1.523 . S
H3311 C3286 0.950 . S
H3312 C3288 0.950 . S
H3313 C3289 0.949 . S
H3314 C3291 0.950 . S
H3315 C3293 0.950 . S
C3316 C3317 1.349 . S
C3316 C3318 1.327 . S
C3316 H3341 0.950 . S
C3317 C3316 1.349 . S
C3317 C3333 1.349 . S
C3318 C3316 1.327 . S
C3318 C3337 1.429 . S
C3318 H3342 0.950 . S
C3319 C3336 1.574 . S
C3319 C3338 1.368 . S
C3319 H3343 0.949 . S
H3320 C3324 0.949 . S
C3321 C3322 1.349 . S
C3321 C3323 1.327 . S
C3321 H3344 0.950 . S
C3322 C3321 1.349 . S
C3322 C3334 1.349 . S
C3323 C3321 1.327 . S
C3323 C3339 1.429 . S
C3323 H3345 0.950 . S
C3324 H3320 0.949 . S
C3324 C3332 1.574 . S
C3324 C3340 1.368 . S
H3325 C3333 0.950 . S
H3326 C3331 0.950 . S
H3327 C3332 0.949 . S
H3328 C3334 0.950 . S
H3329 C3335 0.950 . S
H3330 C3336 0.949 . S
C3331 H3326 0.950 . S
C3331 C3333 1.327 . S
C3331 C3337 1.429 . S
C3332 C3324 1.574 . S
C3332 H3327 0.949 . S
C3332 C3338 1.368 . S
C3333 C3317 1.349 . S
C3333 H3325 0.950 . S
C3333 C3331 1.327 . S
C3334 C3322 1.349 . S
C3334 H3328 0.950 . S
C3334 C3335 1.327 . S
C3335 H3329 0.950 . S
C3335 C3334 1.327 . S
C3335 C3339 1.429 . S
C3336 C3319 1.574 . S
C3336 H3330 0.949 . S
C3336 C3340 1.368 . S
C3337 C3318 1.429 . S
C3337 C3331 1.429 . S
C3337 C3338 1.523 . S
C3338 C3319 1.368 . S
C3338 C3332 1.368 . S
C3338 C3337 1.523 . S
C3339 C3323 1.429 . S
C3339 C3335 1.429 . S
C3339 C3340 1.523 . S
C3340 C3324 1.368 . S
C3340 C3336 1.368 . S
C3340 C3339 1.523 . S
H3341 C3316 0.950 . S
H3342 C3318 0.950 . S
H3343 C3319 0.949 . S
H3344 C3321 0.950 . S
H3345 C3323 0.950 . S
C3346 C3347 1.349 . S
C3346 C3348 1.327 . S
C3346 H3371 0.950 . S
C3347 C3346 1.349 . S
C3347 C3363 1.349 . S
C3348 C3346 1.327 . S
C3348 C3367 1.429 . S
C3348 H3372 0.950 . S
C3349 C3366 1.574 . S
C3349 C3368 1.368 . S
C3349 H3373 0.949 . S
H3350 C3354 0.949 . S
C3351 C3352 1.349 . S
C3351 C3353 1.327 . S
C3351 H3374 0.950 . S
C3352 C3351 1.349 . S
C3352 C3364 1.349 . S
C3353 C3351 1.327 . S
C3353 C3369 1.429 . S
C3353 H3375 0.950 . S
C3354 H3350 0.949 . S
C3354 C3362 1.574 . S
C3354 C3370 1.368 . S
H3355 C3363 0.950 . S
H3356 C3361 0.950 . S
H3357 C3362 0.949 . S
H3358 C3364 0.950 . S
H3359 C3365 0.950 . S
H3360 C3366 0.949 . S
C3361 H3356 0.950 . S
C3361 C3363 1.327 . S
C3361 C3367 1.429 . S
C3362 C3354 1.574 . S
C3362 H3357 0.949 . S
C3362 C3368 1.368 . S
C3363 C3347 1.349 . S
C3363 H3355 0.950 . S
C3363 C3361 1.327 . S
C3364 C3352 1.349 . S
C3364 H3358 0.950 . S
C3364 C3365 1.327 . S
C3365 H3359 0.950 . S
C3365 C3364 1.327 . S
C3365 C3369 1.429 . S
C3366 C3349 1.574 . S
C3366 H3360 0.949 . S
C3366 C3370 1.368 . S
C3367 C3348 1.429 . S
C3367 C3361 1.429 . S
C3367 C3368 1.523 . S
C3368 C3349 1.368 . S
C3368 C3362 1.368 . S
C3368 C3367 1.523 . S
C3369 C3353 1.429 . S
C3369 C3365 1.429 . S
C3369 C3370 1.523 . S
C3370 C3354 1.368 . S
C3370 C3366 1.368 . S
C3370 C3369 1.523 . S
H3371 C3346 0.950 . S
H3372 C3348 0.950 . S
H3373 C3349 0.949 . S
H3374 C3351 0.950 . S
H3375 C3353 0.950 . S
C3376 C3377 1.349 . S
C3376 C3378 1.327 . S
C3376 H3401 0.950 . S
C3377 C3376 1.349 . S
C3377 C3393 1.349 . S
C3378 C3376 1.327 . S
C3378 C3397 1.429 . S
C3378 H3402 0.950 . S
C3379 C3396 1.574 . S
C3379 C3398 1.368 . S
C3379 H3403 0.949 . S
H3380 C3384 0.949 . S
C3381 C3382 1.349 . S
C3381 C3383 1.327 . S
C3381 H3404 0.950 . S
C3382 C3381 1.349 . S
C3382 C3394 1.349 . S
C3383 C3381 1.327 . S
C3383 C3399 1.429 . S
C3383 H3405 0.950 . S
C3384 H3380 0.949 . S
C3384 C3392 1.574 . S
C3384 C3400 1.368 . S
H3385 C3393 0.950 . S
H3386 C3391 0.950 . S
H3387 C3392 0.949 . S
H3388 C3394 0.950 . S
H3389 C3395 0.950 . S
H3390 C3396 0.949 . S
C3391 H3386 0.950 . S
C3391 C3393 1.327 . S
C3391 C3397 1.429 . S
C3392 C3384 1.574 . S
C3392 H3387 0.949 . S
C3392 C3398 1.368 . S
C3393 C3377 1.349 . S
C3393 H3385 0.950 . S
C3393 C3391 1.327 . S
C3394 C3382 1.349 . S
C3394 H3388 0.950 . S
C3394 C3395 1.327 . S
C3395 H3389 0.950 . S
C3395 C3394 1.327 . S
C3395 C3399 1.429 . S
C3396 C3379 1.574 . S
C3396 H3390 0.949 . S
C3396 C3400 1.368 . S
C3397 C3378 1.429 . S
C3397 C3391 1.429 . S
C3397 C3398 1.523 . S
C3398 C3379 1.368 . S
C3398 C3392 1.368 . S
C3398 C3397 1.523 . S
C3399 C3383 1.429 . S
C3399 C3395 1.429 . S
C3399 C3400 1.523 . S
C3400 C3384 1.368 . S
C3400 C3396 1.368 . S
C3400 C3399 1.523 . S
H3401 C3376 0.950 . S
H3402 C3378 0.950 . S
H3403 C3379 0.949 . S
H3404 C3381 0.950 . S
H3405 C3383 0.950 . S
C3406 C3407 1.349 . S
C3406 C3408 1.327 . S
C3406 H3431 0.950 . S
C3407 C3406 1.349 . S
C3407 C3423 1.349 . S
C3408 C3406 1.327 . S
C3408 C3427 1.429 . S
C3408 H3432 0.950 . S
C3409 C3426 1.574 . S
C3409 C3428 1.368 . S
C3409 H3433 0.949 . S
H3410 C3414 0.949 . S
C3411 C3412 1.349 . S
C3411 C3413 1.327 . S
C3411 H3434 0.950 . S
C3412 C3411 1.349 . S
C3412 C3424 1.349 . S
C3413 C3411 1.327 . S
C3413 C3429 1.429 . S
C3413 H3435 0.950 . S
C3414 H3410 0.949 . S
C3414 C3422 1.574 . S
C3414 C3430 1.368 . S
H3415 C3423 0.950 . S
H3416 C3421 0.950 . S
H3417 C3422 0.949 . S
H3418 C3424 0.950 . S
H3419 C3425 0.950 . S
H3420 C3426 0.949 . S
C3421 H3416 0.950 . S
C3421 C3423 1.327 . S
C3421 C3427 1.429 . S
C3422 C3414 1.574 . S
C3422 H3417 0.949 . S
C3422 C3428 1.368 . S
C3423 C3407 1.349 . S
C3423 H3415 0.950 . S
C3423 C3421 1.327 . S
C3424 C3412 1.349 . S
C3424 H3418 0.950 . S
C3424 C3425 1.327 . S
C3425 H3419 0.950 . S
C3425 C3424 1.327 . S
C3425 C3429 1.429 . S
C3426 C3409 1.574 . S
C3426 H3420 0.949 . S
C3426 C3430 1.368 . S
C3427 C3408 1.429 . S
C3427 C3421 1.429 . S
C3427 C3428 1.523 . S
C3428 C3409 1.368 . S
C3428 C3422 1.368 . S
C3428 C3427 1.523 . S
C3429 C3413 1.429 . S
C3429 C3425 1.429 . S
C3429 C3430 1.523 . S
C3430 C3414 1.368 . S
C3430 C3426 1.368 . S
C3430 C3429 1.523 . S
H3431 C3406 0.950 . S
H3432 C3408 0.950 . S
H3433 C3409 0.949 . S
H3434 C3411 0.950 . S
H3435 C3413 0.950 . S
C3436 C3437 1.349 . S
C3436 C3438 1.327 . S
C3436 H3461 0.950 . S
C3437 C3436 1.349 . S
C3437 C3453 1.349 . S
C3438 C3436 1.327 . S
C3438 C3457 1.429 . S
C3438 H3462 0.950 . S
C3439 C3456 1.574 . S
C3439 C3458 1.368 . S
C3439 H3463 0.949 . S
H3440 C3444 0.949 . S
C3441 C3442 1.349 . S
C3441 C3443 1.327 . S
C3441 H3464 0.950 . S
C3442 C3441 1.349 . S
C3442 C3454 1.349 . S
C3443 C3441 1.327 . S
C3443 C3459 1.449 . S
C3443 H3465 0.950 . S
C3444 H3440 0.949 . S
C3444 C3452 1.574 . S
C3444 C3460 1.368 . S
H3445 C3453 0.950 . S
H3446 C3451 0.950 . S
H3447 C3452 0.949 . S
H3448 C3454 0.950 . S
H3449 C3455 0.949 . S
H3450 C3456 0.949 1_455 S
C3451 H3446 0.950 . S
C3451 C3453 1.327 . S
C3451 C3457 1.429 . S
C3452 C3444 1.574 . S
C3452 H3447 0.949 . S
C3452 C3458 1.368 . S
C3453 C3437 1.349 . S
C3453 H3445 0.950 . S
C3453 C3451 1.327 . S
C3454 C3442 1.349 . S
C3454 H3448 0.950 . S
C3454 C3455 1.328 1_455 S
C3455 H3449 0.949 . S
C3455 C3454 1.328 1_655 S
C3455 C3459 1.421 1_655 S
C3456 C3439 1.574 . S
C3456 H3450 0.949 1_655 S
C3456 C3460 1.368 . S
C3457 C3438 1.429 . S
C3457 C3451 1.429 . S
C3457 C3458 1.523 . S
C3458 C3439 1.368 . S
C3458 C3452 1.368 . S
C3458 C3457 1.523 . S
C3459 C3443 1.449 . S
C3459 C3455 1.421 1_455 S
C3459 C3460 1.512 1_455 S
C3460 C3444 1.368 . S
C3460 C3456 1.368 . S
C3460 C3459 1.512 1_655 S
H3461 C3436 0.950 . S
H3462 C3438 0.950 . S
H3463 C3439 0.949 . S
H3464 C3441 0.950 . S
H3465 C3443 0.950 . S
C3466 C3467 1.349 . S
C3466 C3468 1.327 . S
C3466 H3491 0.950 . S
C3467 C3466 1.349 . S
C3467 C3483 1.349 . S
C3468 C3466 1.327 . S
C3468 C3487 1.429 . S
C3468 H3492 0.950 . S
C3469 C3486 1.574 . S
C3469 C3488 1.368 . S
C3469 H3493 0.949 . S
H3470 C3474 0.949 . S
C3471 C3472 1.349 . S
C3471 C3473 1.327 . S
C3471 H3494 0.950 . S
C3472 C3471 1.349 . S
C3472 C3484 1.349 . S
C3473 C3471 1.327 . S
C3473 C3489 1.429 . S
C3473 H3495 0.950 . S
C3474 H3470 0.949 . S
C3474 C3482 1.574 . S
C3474 C3490 1.368 . S
H3475 C3483 0.950 . S
H3476 C3481 0.950 . S
H3477 C3482 0.949 . S
H3478 C3484 0.950 . S
H3479 C3485 0.950 . S
H3480 C3486 0.949 . S
C3481 H3476 0.950 . S
C3481 C3483 1.327 . S
C3481 C3487 1.429 . S
C3482 C3474 1.574 . S
C3482 H3477 0.949 . S
C3482 C3488 1.368 . S
C3483 C3467 1.349 . S
C3483 H3475 0.950 . S
C3483 C3481 1.327 . S
C3484 C3472 1.349 . S
C3484 H3478 0.950 . S
C3484 C3485 1.327 . S
C3485 H3479 0.950 . S
C3485 C3484 1.327 . S
C3485 C3489 1.429 . S
C3486 C3469 1.574 . S
C3486 H3480 0.949 . S
C3486 C3490 1.368 . S
C3487 C3468 1.429 . S
C3487 C3481 1.429 . S
C3487 C3488 1.523 . S
C3488 C3469 1.368 . S
C3488 C3482 1.368 . S
C3488 C3487 1.523 . S
C3489 C3473 1.429 . S
C3489 C3485 1.429 . S
C3489 C3490 1.523 . S
C3490 C3474 1.368 . S
C3490 C3486 1.368 . S
C3490 C3489 1.523 . S
H3491 C3466 0.950 . S
H3492 C3468 0.950 . S
H3493 C3469 0.949 . S
H3494 C3471 0.950 . S
H3495 C3473 0.950 . S
C3496 C3497 1.349 . S
C3496 C3498 1.327 . S
C3496 H3521 0.950 . S
C3497 C3496 1.349 . S
C3497 C3513 1.349 . S
C3498 C3496 1.327 . S
C3498 C3517 1.429 . S
C3498 H3522 0.950 . S
C3499 C3516 1.574 . S
C3499 C3518 1.368 . S
C3499 H3523 0.949 . S
H3500 C3504 0.949 . S
C3501 C3502 1.349 . S
C3501 C3503 1.327 . S
C3501 H3524 0.950 . S
C3502 C3501 1.349 . S
C3502 C3514 1.349 . S
C3503 C3501 1.327 . S
C3503 C3519 1.429 . S
C3503 H3525 0.950 . S
C3504 H3500 0.949 . S
C3504 C3512 1.574 . S
C3504 C3520 1.368 . S
H3505 C3513 0.950 . S
H3506 C3511 0.950 . S
H3507 C3512 0.949 . S
H3508 C3514 0.950 . S
H3509 C3515 0.950 . S
H3510 C3516 0.949 . S
C3511 H3506 0.950 . S
C3511 C3513 1.327 . S
C3511 C3517 1.429 . S
C3512 C3504 1.574 . S
C3512 H3507 0.949 . S
C3512 C3518 1.368 . S
C3513 C3497 1.349 . S
C3513 H3505 0.950 . S
C3513 C3511 1.327 . S
C3514 C3502 1.349 . S
C3514 H3508 0.950 . S
C3514 C3515 1.327 . S
C3515 H3509 0.950 . S
C3515 C3514 1.327 . S
C3515 C3519 1.429 . S
C3516 C3499 1.574 . S
C3516 H3510 0.949 . S
C3516 C3520 1.368 . S
C3517 C3498 1.429 . S
C3517 C3511 1.429 . S
C3517 C3518 1.523 . S
C3518 C3499 1.368 . S
C3518 C3512 1.368 . S
C3518 C3517 1.523 . S
C3519 C3503 1.429 . S
C3519 C3515 1.429 . S
C3519 C3520 1.523 . S
C3520 C3504 1.368 . S
C3520 C3516 1.368 . S
C3520 C3519 1.523 . S
H3521 C3496 0.950 . S
H3522 C3498 0.950 . S
H3523 C3499 0.949 . S
H3524 C3501 0.950 . S
H3525 C3503 0.950 . S
C3526 C3527 1.349 . S
C3526 C3528 1.327 . S
C3526 H3551 0.950 . S
C3527 C3526 1.349 . S
C3527 C3543 1.349 . S
C3528 C3526 1.327 . S
C3528 C3547 1.429 . S
C3528 H3552 0.950 . S
C3529 C3546 1.574 . S
C3529 C3548 1.368 . S
C3529 H3553 0.949 . S
H3530 C3534 0.949 . S
C3531 C3532 1.349 . S
C3531 C3533 1.327 . S
C3531 H3554 0.950 . S
C3532 C3531 1.349 . S
C3532 C3544 1.349 . S
C3533 C3531 1.327 . S
C3533 C3549 1.429 . S
C3533 H3555 0.950 . S
C3534 H3530 0.949 . S
C3534 C3542 1.574 . S
C3534 C3550 1.368 . S
H3535 C3543 0.950 . S
H3536 C3541 0.950 . S
H3537 C3542 0.949 . S
H3538 C3544 0.950 . S
H3539 C3545 0.950 . S
H3540 C3546 0.949 . S
C3541 H3536 0.950 . S
C3541 C3543 1.327 . S
C3541 C3547 1.429 . S
C3542 C3534 1.574 . S
C3542 H3537 0.949 . S
C3542 C3548 1.368 . S
C3543 C3527 1.349 . S
C3543 H3535 0.950 . S
C3543 C3541 1.327 . S
C3544 C3532 1.349 . S
C3544 H3538 0.950 . S
C3544 C3545 1.327 . S
C3545 H3539 0.950 . S
C3545 C3544 1.327 . S
C3545 C3549 1.429 . S
C3546 C3529 1.574 . S
C3546 H3540 0.949 . S
C3546 C3550 1.368 . S
C3547 C3528 1.429 . S
C3547 C3541 1.429 . S
C3547 C3548 1.523 . S
C3548 C3529 1.368 . S
C3548 C3542 1.368 . S
C3548 C3547 1.523 . S
C3549 C3533 1.429 . S
C3549 C3545 1.429 . S
C3549 C3550 1.523 . S
C3550 C3534 1.368 . S
C3550 C3546 1.368 . S
C3550 C3549 1.523 . S
H3551 C3526 0.950 . S
H3552 C3528 0.950 . S
H3553 C3529 0.949 . S
H3554 C3531 0.950 . S
H3555 C3533 0.950 . S
C3556 C3557 1.349 . S
C3556 C3558 1.327 . S
C3556 H3581 0.950 . S
C3557 C3556 1.349 . S
C3557 C3573 1.349 . S
C3558 C3556 1.327 . S
C3558 C3577 1.429 . S
C3558 H3582 0.950 . S
C3559 C3576 1.574 . S
C3559 C3578 1.368 . S
C3559 H3583 0.949 . S
H3560 C3564 0.949 . S
C3561 C3562 1.349 . S
C3561 C3563 1.327 . S
C3561 H3584 0.950 1_655 S
C3562 C3561 1.349 . S
C3562 C3574 1.349 . S
C3563 C3561 1.327 . S
C3563 C3579 1.429 . S
C3563 H3585 0.950 . S
C3564 H3560 0.949 . S
C3564 C3572 1.574 . S
C3564 C3580 1.368 . S
H3565 C3573 0.950 . S
H3566 C3571 0.950 . S
H3567 C3572 0.949 . S
H3568 C3574 0.950 . S
H3569 C3575 0.950 . S
H3570 C3576 0.949 . S
C3571 H3566 0.950 . S
C3571 C3573 1.327 . S
C3571 C3577 1.429 . S
C3572 C3564 1.574 . S
C3572 H3567 0.949 . S
C3572 C3578 1.368 . S
C3573 C3557 1.349 . S
C3573 H3565 0.950 . S
C3573 C3571 1.327 . S
C3574 C3562 1.349 . S
C3574 H3568 0.950 . S
C3574 C3575 1.327 . S
C3575 H3569 0.950 . S
C3575 C3574 1.327 . S
C3575 C3579 1.429 . S
C3576 C3559 1.574 . S
C3576 H3570 0.949 . S
C3576 C3580 1.368 . S
C3577 C3558 1.429 . S
C3577 C3571 1.429 . S
C3577 C3578 1.523 . S
C3578 C3559 1.368 . S
C3578 C3572 1.368 . S
C3578 C3577 1.523 . S
C3579 C3563 1.429 . S
C3579 C3575 1.429 . S
C3579 C3580 1.523 . S
C3580 C3564 1.368 . S
C3580 C3576 1.368 . S
C3580 C3579 1.523 . S
H3581 C3556 0.950 . S
H3582 C3558 0.950 . S
H3583 C3559 0.949 . S
H3584 C3561 0.950 1_455 S
H3585 C3563 0.950 . S
C3586 C3587 1.349 . S
C3586 C3588 1.327 . S
C3586 H3611 0.950 . S
C3587 C3586 1.349 . S
C3587 C3603 1.349 . S
C3588 C3586 1.327 . S
C3588 C3607 1.429 . S
C3588 H3612 0.950 . S
C3589 C3606 1.574 . S
C3589 C3608 1.368 . S
C3589 H3613 0.949 . S
H3590 C3594 0.949 . S
C3591 C3592 1.349 . S
C3591 C3593 1.327 . S
C3591 H3614 0.950 . S
C3592 C3591 1.349 . S
C3592 C3604 1.349 . S
C3593 C3591 1.327 . S
C3593 C3609 1.429 . S
C3593 H3615 0.950 . S
C3594 H3590 0.949 . S
C3594 C3602 1.574 . S
C3594 C3610 1.368 . S
H3595 C3603 0.950 . S
H3596 C3601 0.950 . S
H3597 C3602 0.949 . S
H3598 C3604 0.950 . S
H3599 C3605 0.950 . S
H3600 C3606 0.949 . S
C3601 H3596 0.950 . S
C3601 C3603 1.327 . S
C3601 C3607 1.429 . S
C3602 C3594 1.574 . S
C3602 H3597 0.949 . S
C3602 C3608 1.368 . S
C3603 C3587 1.349 . S
C3603 H3595 0.950 . S
C3603 C3601 1.327 . S
C3604 C3592 1.349 . S
C3604 H3598 0.950 . S
C3604 C3605 1.327 . S
C3605 H3599 0.950 . S
C3605 C3604 1.327 . S
C3605 C3609 1.429 . S
C3606 C3589 1.574 . S
C3606 H3600 0.949 . S
C3606 C3610 1.368 . S
C3607 C3588 1.429 . S
C3607 C3601 1.429 . S
C3607 C3608 1.523 . S
C3608 C3589 1.368 . S
C3608 C3602 1.368 . S
C3608 C3607 1.523 . S
C3609 C3593 1.429 . S
C3609 C3605 1.429 . S
C3609 C3610 1.523 . S
C3610 C3594 1.368 . S
C3610 C3606 1.368 . S
C3610 C3609 1.523 . S
H3611 C3586 0.950 . S
H3612 C3588 0.950 . S
H3613 C3589 0.949 . S
H3614 C3591 0.950 . S
H3615 C3593 0.950 . S
C3616 C3617 1.349 . S
C3616 C3618 1.327 . S
C3616 H3641 0.950 . S
C3617 C3616 1.349 . S
C3617 C3633 1.349 . S
C3618 C3616 1.327 . S
C3618 C3637 1.429 . S
C3618 H3642 0.950 . S
C3619 C3636 1.574 . S
C3619 C3638 1.368 . S
C3619 H3643 0.949 . S
H3620 C3624 0.949 . S
C3621 C3622 1.349 . S
C3621 C3623 1.327 . S
C3621 H3644 0.950 . S
C3622 C3621 1.349 . S
C3622 C3634 1.349 . S
C3623 C3621 1.327 . S
C3623 C3639 1.429 . S
C3623 H3645 0.950 . S
C3624 H3620 0.949 . S
C3624 C3632 1.574 . S
C3624 C3640 1.368 . S
H3625 C3633 0.950 . S
H3626 C3631 0.950 . S
H3627 C3632 0.949 . S
H3628 C3634 0.950 . S
H3629 C3635 0.950 . S
H3630 C3636 0.949 . S
C3631 H3626 0.950 . S
C3631 C3633 1.327 . S
C3631 C3637 1.429 . S
C3632 C3624 1.574 . S
C3632 H3627 0.949 . S
C3632 C3638 1.368 . S
C3633 C3617 1.349 . S
C3633 H3625 0.950 . S
C3633 C3631 1.327 . S
C3634 C3622 1.349 . S
C3634 H3628 0.950 . S
C3634 C3635 1.327 . S
C3635 H3629 0.950 . S
C3635 C3634 1.327 . S
C3635 C3639 1.429 . S
C3636 C3619 1.574 . S
C3636 H3630 0.949 . S
C3636 C3640 1.368 . S
C3637 C3618 1.429 . S
C3637 C3631 1.429 . S
C3637 C3638 1.523 . S
C3638 C3619 1.368 . S
C3638 C3632 1.368 . S
C3638 C3637 1.523 . S
C3639 C3623 1.429 . S
C3639 C3635 1.429 . S
C3639 C3640 1.523 . S
C3640 C3624 1.368 . S
C3640 C3636 1.368 . S
C3640 C3639 1.523 . S
H3641 C3616 0.950 . S
H3642 C3618 0.950 . S
H3643 C3619 0.949 . S
H3644 C3621 0.950 . S
H3645 C3623 0.950 . S
C3646 C3647 1.349 . S
C3646 C3648 1.327 . S
C3646 H3671 0.950 . S
C3647 C3646 1.349 . S
C3647 C3663 1.349 . S
C3648 C3646 1.327 . S
C3648 C3667 1.429 . S
C3648 H3672 0.950 . S
C3649 C3666 1.574 . S
C3649 C3668 1.368 . S
C3649 H3673 0.949 . S
H3650 C3654 0.949 . S
C3651 C3652 1.349 . S
C3651 C3653 1.327 1_545 S
C3651 H3674 0.950 . S
C3652 C3651 1.349 . S
C3652 C3664 1.349 1_545 S
C3653 C3651 1.327 1_565 S
C3653 C3669 1.429 . S
C3653 H3675 0.950 . S
C3654 H3650 0.949 . S
C3654 C3662 1.574 . S
C3654 C3670 1.368 . S
H3655 C3663 0.950 . S
H3656 C3661 0.950 . S
H3657 C3662 0.949 . S
H3658 C3664 0.950 . S
H3659 C3665 0.950 . S
H3660 C3666 0.949 . S
C3661 H3656 0.950 . S
C3661 C3663 1.327 . S
C3661 C3667 1.429 . S
C3662 C3654 1.574 . S
C3662 H3657 0.949 . S
C3662 C3668 1.368 . S
C3663 C3647 1.349 . S
C3663 H3655 0.950 . S
C3663 C3661 1.327 . S
C3664 C3652 1.349 1_565 S
C3664 H3658 0.950 . S
C3664 C3665 1.327 . S
C3665 H3659 0.950 . S
C3665 C3664 1.327 . S
C3665 C3669 1.429 . S
C3666 C3649 1.574 . S
C3666 H3660 0.949 . S
C3666 C3670 1.368 . S
C3667 C3648 1.429 . S
C3667 C3661 1.429 . S
C3667 C3668 1.523 . S
C3668 C3649 1.368 . S
C3668 C3662 1.368 . S
C3668 C3667 1.523 . S
C3669 C3653 1.429 . S
C3669 C3665 1.429 . S
C3669 C3670 1.523 . S
C3670 C3654 1.368 . S
C3670 C3666 1.368 . S
C3670 C3669 1.523 . S
H3671 C3646 0.950 . S
H3672 C3648 0.950 . S
H3673 C3649 0.949 . S
H3674 C3651 0.950 . S
H3675 C3653 0.950 . S
C3676 C3677 1.349 . S
C3676 C3678 1.327 . S
C3676 H3701 0.950 . S
C3677 C3676 1.349 . S
C3677 C3693 1.349 . S
C3678 C3676 1.327 . S
C3678 C3697 1.429 . S
C3678 H3702 0.950 . S
C3679 C3696 1.574 . S
C3679 C3698 1.368 . S
C3679 H3703 0.949 . S
H3680 C3684 0.949 . S
C3681 C3682 1.349 . S
C3681 C3683 1.327 . S
C3681 H3704 0.950 . S
C3682 C3681 1.349 . S
C3682 C3694 1.349 . S
C3683 C3681 1.327 . S
C3683 C3699 1.429 . S
C3683 H3705 0.950 . S
C3684 H3680 0.949 . S
C3684 C3692 1.574 . S
C3684 C3700 1.368 . S
H3685 C3693 0.950 . S
H3686 C3691 0.950 . S
H3687 C3692 0.949 . S
H3688 C3694 0.950 . S
H3689 C3695 0.950 . S
H3690 C3696 0.949 . S
C3691 H3686 0.950 . S
C3691 C3693 1.327 . S
C3691 C3697 1.429 . S
C3692 C3684 1.574 . S
C3692 H3687 0.949 . S
C3692 C3698 1.368 . S
C3693 C3677 1.349 . S
C3693 H3685 0.950 . S
C3693 C3691 1.327 . S
C3694 C3682 1.349 . S
C3694 H3688 0.950 . S
C3694 C3695 1.327 . S
C3695 H3689 0.950 . S
C3695 C3694 1.327 . S
C3695 C3699 1.429 . S
C3696 C3679 1.574 . S
C3696 H3690 0.949 . S
C3696 C3700 1.368 . S
C3697 C3678 1.429 . S
C3697 C3691 1.429 . S
C3697 C3698 1.523 . S
C3698 C3679 1.368 . S
C3698 C3692 1.368 . S
C3698 C3697 1.523 . S
C3699 C3683 1.429 . S
C3699 C3695 1.429 . S
C3699 C3700 1.523 . S
C3700 C3684 1.368 . S
C3700 C3696 1.368 . S
C3700 C3699 1.523 . S
H3701 C3676 0.950 . S
H3702 C3678 0.950 . S
H3703 C3679 0.949 . S
H3704 C3681 0.950 . S
H3705 C3683 0.950 . S
C3706 C3707 1.349 1_556 S
C3706 C3708 1.327 . S
C3706 H3731 0.950 . S
C3707 C3706 1.349 1_554 S
C3707 C3723 1.349 . S
C3708 C3706 1.327 . S
C3708 C3727 1.429 1_556 S
C3708 H3732 0.950 . S
C3709 C3726 1.574 . S
C3709 C3728 1.368 . S
C3709 H3733 0.949 . S
H3710 C3714 0.949 . S
C3711 C3712 1.349 . S
C3711 C3713 1.327 . S
C3711 H3734 0.950 . S
C3712 C3711 1.349 . S
C3712 C3724 1.349 1_554 S
C3713 C3711 1.327 . S
C3713 C3729 1.429 . S
C3713 H3735 0.950 . S
C3714 H3710 0.949 . S
C3714 C3722 1.574 . S
C3714 C3730 1.368 1_556 S
H3715 C3723 0.950 . S
H3716 C3721 0.950 . S
H3717 C3722 0.949 . S
H3718 C3724 0.950 . S
H3719 C3725 0.950 . S
H3720 C3726 0.949 . S
C3721 H3716 0.950 . S
C3721 C3723 1.327 . S
C3721 C3727 1.429 . S
C3722 C3714 1.574 . S
C3722 H3717 0.949 . S
C3722 C3728 1.368 1_556 S
C3723 C3707 1.349 . S
C3723 H3715 0.950 . S
C3723 C3721 1.327 . S
C3724 C3712 1.349 1_556 S
C3724 H3718 0.950 . S
C3724 C3725 1.327 . S
C3725 H3719 0.950 . S
C3725 C3724 1.327 . S
C3725 C3729 1.429 1_556 S
C3726 C3709 1.574 . S
C3726 H3720 0.949 . S
C3726 C3730 1.368 . S
C3727 C3708 1.429 1_554 S
C3727 C3721 1.429 . S
C3727 C3728 1.523 . S
C3728 C3709 1.368 . S
C3728 C3722 1.368 1_554 S
C3728 C3727 1.523 . S
C3729 C3713 1.429 . S
C3729 C3725 1.429 1_554 S
C3729 C3730 1.523 . S
C3730 C3714 1.368 1_554 S
C3730 C3726 1.368 . S
C3730 C3729 1.523 . S
H3731 C3706 0.950 . S
H3732 C3708 0.950 . S
H3733 C3709 0.949 . S
H3734 C3711 0.950 . S
H3735 C3713 0.950 . S
C3736 C3737 1.349 . S
C3736 C3738 1.327 . S
C3736 H3761 0.950 . S
C3737 C3736 1.349 . S
C3737 C3753 1.349 . S
C3738 C3736 1.327 . S
C3738 C3757 1.429 . S
C3738 H3762 0.950 . S
C3739 C3756 1.574 . S
C3739 C3758 1.368 . S
C3739 H3763 0.949 . S
H3740 C3744 0.949 . S
C3741 C3742 1.349 . S
C3741 C3743 1.327 . S
C3741 H3764 0.950 . S
C3742 C3741 1.349 . S
C3742 C3754 1.349 . S
C3743 C3741 1.327 . S
C3743 C3759 1.429 . S
C3743 H3765 0.950 . S
C3744 H3740 0.949 . S
C3744 C3752 1.574 . S
C3744 C3760 1.368 . S
H3745 C3753 0.950 . S
H3746 C3751 0.950 . S
H3747 C3752 0.949 . S
H3748 C3754 0.950 . S
H3749 C3755 0.950 . S
H3750 C3756 0.949 . S
C3751 H3746 0.950 . S
C3751 C3753 1.327 . S
C3751 C3757 1.429 . S
C3752 C3744 1.574 . S
C3752 H3747 0.949 . S
C3752 C3758 1.368 . S
C3753 C3737 1.349 . S
C3753 H3745 0.950 . S
C3753 C3751 1.327 . S
C3754 C3742 1.349 . S
C3754 H3748 0.950 . S
C3754 C3755 1.327 . S
C3755 H3749 0.950 . S
C3755 C3754 1.327 . S
C3755 C3759 1.429 . S
C3756 C3739 1.574 . S
C3756 H3750 0.949 . S
C3756 C3760 1.368 . S
C3757 C3738 1.429 . S
C3757 C3751 1.429 . S
C3757 C3758 1.523 . S
C3758 C3739 1.368 . S
C3758 C3752 1.368 . S
C3758 C3757 1.523 . S
C3759 C3743 1.429 . S
C3759 C3755 1.429 . S
C3759 C3760 1.523 . S
C3760 C3744 1.368 . S
C3760 C3756 1.368 . S
C3760 C3759 1.523 . S
H3761 C3736 0.950 . S
H3762 C3738 0.950 . S
H3763 C3739 0.949 . S
H3764 C3741 0.950 . S
H3765 C3743 0.950 . S
C3766 C3767 1.349 . S
C3766 C3768 1.327 . S
C3766 H3791 0.950 . S
C3767 C3766 1.349 . S
C3767 C3783 1.349 . S
C3768 C3766 1.327 . S
C3768 C3787 1.429 . S
C3768 H3792 0.950 . S
C3769 C3786 1.568 1_554 S
C3769 C3788 1.371 . S
C3769 H3793 0.959 1_554 S
H3770 C3774 0.949 . S
C3771 C3772 1.349 . S
C3771 C3773 1.327 . S
C3771 H3794 0.950 . S
C3772 C3771 1.349 . S
C3772 C3784 1.349 . S
C3773 C3771 1.327 . S
C3773 C3789 1.429 . S
C3773 H3795 0.950 . S
C3774 H3770 0.949 . S
C3774 C3782 1.574 . S
C3774 C3790 1.365 1_554 S
H3775 C3783 0.950 . S
H3776 C3781 0.950 . S
H3777 C3782 0.949 . S
H3778 C3784 0.950 . S
H3779 C3785 0.950 1_554 S
H3780 C3786 0.949 . S
C3781 H3776 0.950 . S
C3781 C3783 1.327 . S
C3781 C3787 1.429 . S
C3782 C3774 1.574 . S
C3782 H3777 0.949 . S
C3782 C3788 1.368 . S
C3783 C3767 1.349 . S
C3783 H3775 0.950 . S
C3783 C3781 1.327 . S
C3784 C3772 1.349 . S
C3784 H3778 0.950 . S
C3784 C3785 1.327 . S
C3785 H3779 0.950 1_556 S
C3785 C3784 1.327 . S
C3785 C3789 1.429 . S
C3786 C3769 1.568 1_556 S
C3786 H3780 0.949 . S
C3786 C3790 1.366 . S
C3787 C3768 1.429 . S
C3787 C3781 1.429 . S
C3787 C3788 1.523 . S
C3788 C3769 1.371 . S
C3788 C3782 1.368 . S
C3788 C3787 1.523 . S
C3789 C3773 1.429 . S
C3789 C3785 1.429 . S
C3789 C3790 1.532 . S
C3790 C3774 1.365 1_556 S
C3790 C3786 1.366 . S
C3790 C3789 1.532 . S
H3791 C3766 0.950 . S
H3792 C3768 0.950 . S
H3793 C3769 0.959 1_556 S
H3794 C3771 0.950 . S
H3795 C3773 0.950 . S
C3796 C3797 1.349 . S
C3796 C3798 1.327 . S
C3796 H3821 0.950 1_565 S
C3797 C3796 1.349 . S
C3797 C3813 1.350 . S
C3798 C3796 1.327 . S
C3798 C3817 1.429 . S
C3798 H3822 0.950 . S
C3799 C3816 1.574 . S
C3799 C3818 1.368 . S
C3799 H3823 0.949 . S
H3800 C3804 0.949 . S
C3801 C3802 1.349 . S
C3801 C3803 1.327 . S
C3801 H3824 0.950 . S
C3802 C3801 1.349 . S
C3802 C3814 1.349 . S
C3803 C3801 1.327 . S
C3803 C3819 1.429 . S
C3803 H3825 0.950 . S
C3804 H3800 0.949 . S
C3804 C3812 1.574 . S
C3804 C3820 1.368 . S
H3805 C3813 0.950 . S
H3806 C3811 0.950 . S
H3807 C3812 0.949 . S
H3808 C3814 0.950 . S
H3809 C3815 0.950 . S
H3810 C3816 0.949 . S
C3811 H3806 0.950 . S
C3811 C3813 1.327 . S
C3811 C3817 1.429 . S
C3812 C3804 1.574 . S
C3812 H3807 0.949 . S
C3812 C3818 1.368 . S
C3813 C3797 1.350 . S
C3813 H3805 0.950 . S
C3813 C3811 1.327 . S
C3814 C3802 1.349 . S
C3814 H3808 0.950 . S
C3814 C3815 1.327 . S
C3815 H3809 0.950 . S
C3815 C3814 1.327 . S
C3815 C3819 1.429 . S
C3816 C3799 1.574 . S
C3816 H3810 0.949 . S
C3816 C3820 1.368 . S
C3817 C3798 1.429 . S
C3817 C3811 1.429 . S
C3817 C3818 1.523 . S
C3818 C3799 1.368 . S
C3818 C3812 1.368 . S
C3818 C3817 1.523 . S
C3819 C3803 1.429 . S
C3819 C3815 1.429 . S
C3819 C3820 1.523 . S
C3820 C3804 1.368 . S
C3820 C3816 1.368 . S
C3820 C3819 1.523 . S
H3821 C3796 0.950 1_545 S
H3822 C3798 0.950 . S
H3823 C3799 0.949 . S
H3824 C3801 0.950 . S
H3825 C3803 0.950 . S
C3826 C3827 1.349 . S
C3826 C3828 1.327 . S
C3826 H3851 0.950 . S
C3827 C3826 1.349 . S
C3827 C3843 1.349 . S
C3828 C3826 1.327 . S
C3828 C3847 1.429 . S
C3828 H3852 0.950 . S
C3829 C3846 1.574 . S
C3829 C3848 1.368 . S
C3829 H3853 0.949 . S
H3830 C3834 0.949 . S
C3831 C3832 1.349 . S
C3831 C3833 1.327 . S
C3831 H3854 0.950 . S
C3832 C3831 1.349 . S
C3832 C3844 1.349 . S
C3833 C3831 1.327 . S
C3833 C3849 1.429 . S
C3833 H3855 0.950 . S
C3834 H3830 0.949 . S
C3834 C3842 1.574 . S
C3834 C3850 1.368 . S
H3835 C3843 0.950 . S
H3836 C3841 0.950 . S
H3837 C3842 0.949 . S
H3838 C3844 0.950 . S
H3839 C3845 0.950 . S
H3840 C3846 0.949 . S
C3841 H3836 0.950 . S
C3841 C3843 1.327 . S
C3841 C3847 1.429 . S
C3842 C3834 1.574 . S
C3842 H3837 0.949 . S
C3842 C3848 1.368 . S
C3843 C3827 1.349 . S
C3843 H3835 0.950 . S
C3843 C3841 1.327 . S
C3844 C3832 1.349 . S
C3844 H3838 0.950 . S
C3844 C3845 1.327 . S
C3845 H3839 0.950 . S
C3845 C3844 1.327 . S
C3845 C3849 1.429 . S
C3846 C3829 1.574 . S
C3846 H3840 0.949 . S
C3846 C3850 1.368 . S
C3847 C3828 1.429 . S
C3847 C3841 1.429 . S
C3847 C3848 1.523 . S
C3848 C3829 1.368 . S
C3848 C3842 1.368 . S
C3848 C3847 1.523 . S
C3849 C3833 1.429 . S
C3849 C3845 1.429 . S
C3849 C3850 1.523 . S
C3850 C3834 1.368 . S
C3850 C3846 1.368 . S
C3850 C3849 1.523 . S
H3851 C3826 0.950 . S
H3852 C3828 0.950 . S
H3853 C3829 0.949 . S
H3854 C3831 0.950 . S
H3855 C3833 0.950 . S
C977 C111 2.051 . S
C982 C338 2.065 . S
C1007 C64 2.046 . S
C1012 C395 2.115 . S
C1037 C77 0.932 . S
C1042 C418 0.926 . S
C1072 C472 1.205 . S
C1067 C95 1.214 . S
C1097 C25 1.008 . S
C1102 C512 0.986 . S
C1132 C543 0.330 . S
C1127 C36 0.418 . S
C1162 C595 1.108 . S
C1157 C50 1.048 . S
C1187 C11 1.597 . S
C1192 C618 1.547 . S
C1222 C355 2.337 . S
C1217 C237 2.229 . S
C1247 C245 0.250 . S
C1252 C392 0.375 . S
C1282 C435 1.204 . S
C1277 C279 1.140 . S
C1312 C458 1.124 . S
C1307 C175 1.128 . S
C1337 C231 1.600 . S
C1342 C498 1.605 . S
C1372 C546 1.350 . S
C1367 C251 1.296 . S
C1402 C592 0.336 . S
C1397 C273 0.176 . S
C1432 C635 1.876 . S
C1427 C181 1.831 . S
C1462 C352 1.305 . S
C1457 C165 1.334 . S
C1487 C288 1.936 1_556 S
C1492 C675 1.996 . S
C1522 C707 2.525 . S
C1517 C333 2.563 . S
C1552 C738 0.408 . S
C1547 C316 0.463 . S
C1577 C123 1.155 . S
C1582 C632 1.117 . S
C1607 C137 1.387 . S
C1612 C432 1.357 . S
C1637 C330 2.239 . S
C1642 C795 2.299 . S
C1672 C818 0.426 . S
C1667 C302 0.409 . S
C1702 C347 2.202 . S
C1697 C63 2.223 . S
C1732 C826 2.162 . S
C1727 C106 2.158 . S
C1757 C97 1.034 . S
C1762 C427 1.062 . S
C1787 C81 1.294 . S
C1792 C783 1.293 . S
C1822 C503 1.120 . S
C1817 C13 1.059 . S
C1847 C55 0.492 . S
C1852 C712 0.325 . S
C1882 C586 1.151 1_565 S
C1877 C35 1.131 . S
C1912 C867 1.754 . S
C1907 C21 1.793 . S
C1942 C346 2.469 . S
C1937 C147 2.486 . S
C1972 C823 0.344 . S
C1967 C321 0.508 . S
C1997 C119 1.299 . S
C2002 C426 1.286 . S
C2027 C293 1.241 . S
C2032 C787 1.298 . S
C2057 C153 1.677 . S
C2062 C507 1.828 . S
C2092 C715 1.396 . S
C2087 C315 1.424 . S
C2117 C125 0.454 . S
C2122 C583 0.287 . S
C2147 C287 2.036 . S
C2152 C866 2.002 . S
C2177 C193 1.375 . S
C2182 C343 1.371 . S
C2207 C176 2.016 . S
C2212 C666 2.035 . S
C2237 C263 2.518 . S
C2242 C538 2.477 . S
C2267 C246 0.688 . S
C2272 C747 0.669 . S
C2302 C863 1.178 . S
C2297 C277 1.186 . S
C2327 C221 1.399 . S
C2332 C423 1.394 . S
C2362 C466 2.368 . S
C2357 C260 2.344 . S
C2392 C387 0.575 . S
C2387 C204 0.593 . S
C2417 C83 2.051 . S
C2422 C898 2.065 . S
C2452 C835 2.115 . S
C2447 C92 2.046 . S
C2477 C105 0.932 . S
C2482 C938 0.926 . S
C2507 C67 1.214 . S
C2512 C792 1.205 . S
C2537 C53 1.008 . S
C2542 C672 0.985 . S
C2572 C703 0.330 . S
C2567 C8 0.418 . S
C2602 C755 1.109 . S
C2597 C22 1.048 . S
C2632 C858 1.548 . S
C2627 C39 1.597 . S
C2662 C915 2.337 . S
C2657 C265 2.229 . S
C2687 C189 0.250 . S
C2692 C832 0.375 . S
C2722 C955 1.204 . S
C2717 C209 1.140 . S
C2752 C778 1.124 . S
C2747 C217 1.128 . S
C2782 C658 1.605 . S
C2777 C259 1.599 . S
C2807 C195 1.296 . S
C2812 C706 1.350 . S
C2842 C752 0.336 . S
C2837 C203 0.176 . S
C2867 C223 1.832 . S
C2872 C875 1.877 . S
C2902 C912 1.305 . S
C2897 C319 1.334 . S
C2927 C134 1.936 . S
C2932 C515 1.996 . S
C2962 C547 2.526 . S
C2957 C151 2.570 . S
C2992 C578 0.408 . S
C2987 C162 0.463 . S
C3022 C872 1.117 . S
C3017 C305 1.155 . S
C3047 C291 1.387 . S
C3052 C952 1.357 . S
C3082 C475 2.297 . S
C3077 C148 2.232 . S
C3112 C378 0.426 . S
C3107 C120 0.410 . S
C3137 C91 2.223 . S
C3142 C907 2.202 . S
C3172 C386 2.162 . S
C3167 C78 2.158 . S
C3197 C69 1.033 . S
C3202 C947 1.061 . S
C3227 C109 1.294 . S
C3232 C463 1.293 . S
C3257 C41 1.059 . S
C3262 C663 1.120 . S
C3292 C552 0.325 . S
C3287 C27 0.490 . S
C3317 C7 1.131 . S
C3322 C746 1.151 . S
C3347 C49 1.790 . S
C3352 C627 1.755 . S
C3382 C906 2.469 . S
C3377 C329 2.486 . S
C3407 C167 0.508 . S
C3412 C383 0.344 . S
C3442 C946 1.286 . S
C3437 C301 1.299 . S
C3467 C139 1.242 . S
C3472 C467 1.298 . S
C3497 C335 1.677 . S
C3502 C667 1.831 . S
C3532 C555 1.395 . S
C3527 C161 1.423 . S
C3557 C307 0.454 . S
C3562 C743 0.287 . S
C3592 C626 2.002 . S
C3587 C133 2.036 . S
C3622 C903 1.370 . S
C3617 C249 1.375 . S
C3652 C506 2.036 1_655 S
C3647 C218 2.017 . S
C3677 C235 2.518 . S
C3682 C698 2.477 . S
C3712 C587 0.669 . S
C3707 C190 0.688 . S
C3737 C207 1.185 . S
C3742 C623 1.177 . S
C3767 C179 1.399 . S
C3772 C943 1.395 . S
C3802 C786 2.368 . S
C3797 C232 2.343 1_565 S
C3832 C827 0.575 . S
C3827 C274 0.593 . S
