# Generated by pormake.
# Topology gar, (4,6)-cn, num edge types: 1
# Building blocks:
#     Node 0, Type 0, BuildingBlock: NAHDIM_clean_sbu_0, # of connection points: 4
#     Node 1, Type 0, BuildingBlock: NAHDIM_clean_sbu_0, # of connection points: 4
#     Node 2, Type 0, BuildingBlock: NAHDIM_clean_sbu_0, # of connection points: 4
#     Node 3, Type 0, BuildingBlock: NAHDIM_clean_sbu_0, # of connection points: 4
#     Node 4, Type 0, BuildingBlock: NAHDIM_clean_sbu_0, # of connection points: 4
#     Node 5, Type 0, BuildingBlock: NAHDIM_clean_sbu_0, # of connection points: 4
#     Node 6, Type 0, BuildingBlock: NAHDIM_clean_sbu_0, # of connection points: 4
#     Node 7, Type 0, BuildingBlock: NAHDIM_clean_sbu_0, # of connection points: 4
#     Node 8, Type 0, BuildingBlock: NAHDIM_clean_sbu_0, # of connection points: 4
#     Node 9, Type 0, BuildingBlock: NAHDIM_clean_sbu_0, # of connection points: 4
#     Node 10, Type 0, BuildingBlock: NAHDIM_clean_sbu_0, # of connection points: 4
#     Node 11, Type 0, BuildingBlock: NAHDIM_clean_sbu_0, # of connection points: 4
#     Node 12, Type 0, BuildingBlock: NAHDIM_clean_sbu_0, # of connection points: 4
#     Node 13, Type 0, BuildingBlock: NAHDIM_clean_sbu_0, # of connection points: 4
#     Node 14, Type 0, BuildingBlock: NAHDIM_clean_sbu_0, # of connection points: 4
#     Node 15, Type 0, BuildingBlock: NAHDIM_clean_sbu_0, # of connection points: 4
#     Node 16, Type 0, BuildingBlock: NAHDIM_clean_sbu_0, # of connection points: 4
#     Node 17, Type 0, BuildingBlock: NAHDIM_clean_sbu_0, # of connection points: 4
#     Node 18, Type 0, BuildingBlock: NAHDIM_clean_sbu_0, # of connection points: 4
#     Node 19, Type 0, BuildingBlock: NAHDIM_clean_sbu_0, # of connection points: 4
#     Node 20, Type 0, BuildingBlock: NAHDIM_clean_sbu_0, # of connection points: 4
#     Node 21, Type 0, BuildingBlock: NAHDIM_clean_sbu_0, # of connection points: 4
#     Node 22, Type 0, BuildingBlock: NAHDIM_clean_sbu_0, # of connection points: 4
#     Node 23, Type 0, BuildingBlock: NAHDIM_clean_sbu_0, # of connection points: 4
#     Node 24, Type 1, BuildingBlock: KUMBUR_clean_sbu_0, # of connection points: 6
#     Node 25, Type 1, BuildingBlock: KUMBUR_clean_sbu_0, # of connection points: 6
#     Node 26, Type 1, BuildingBlock: KUMBUR_clean_sbu_0, # of connection points: 6
#     Node 27, Type 1, BuildingBlock: KUMBUR_clean_sbu_0, # of connection points: 6
#     Node 28, Type 1, BuildingBlock: KUMBUR_clean_sbu_0, # of connection points: 6
#     Node 29, Type 1, BuildingBlock: KUMBUR_clean_sbu_0, # of connection points: 6
#     Node 30, Type 1, BuildingBlock: KUMBUR_clean_sbu_0, # of connection points: 6
#     Node 31, Type 1, BuildingBlock: KUMBUR_clean_sbu_0, # of connection points: 6
#     Node 32, Type 1, BuildingBlock: KUMBUR_clean_sbu_0, # of connection points: 6
#     Node 33, Type 1, BuildingBlock: KUMBUR_clean_sbu_0, # of connection points: 6
#     Node 34, Type 1, BuildingBlock: KUMBUR_clean_sbu_0, # of connection points: 6
#     Node 35, Type 1, BuildingBlock: KUMBUR_clean_sbu_0, # of connection points: 6
#     Node 36, Type 1, BuildingBlock: KUMBUR_clean_sbu_0, # of connection points: 6
#     Node 37, Type 1, BuildingBlock: KUMBUR_clean_sbu_0, # of connection points: 6
#     Node 38, Type 1, BuildingBlock: KUMBUR_clean_sbu_0, # of connection points: 6
#     Node 39, Type 1, BuildingBlock: KUMBUR_clean_sbu_0, # of connection points: 6
#     Edge 40, Type (0, 1), BuildingBlock: MIFKUJ_clean_linker_0, # of connection points: 2
#     Edge 41, Type (0, 1), BuildingBlock: MIFKUJ_clean_linker_0, # of connection points: 2
#     Edge 42, Type (0, 1), BuildingBlock: MIFKUJ_clean_linker_0, # of connection points: 2
#     Edge 43, Type (0, 1), BuildingBlock: MIFKUJ_clean_linker_0, # of connection points: 2
#     Edge 44, Type (0, 1), BuildingBlock: MIFKUJ_clean_linker_0, # of connection points: 2
#     Edge 45, Type (0, 1), BuildingBlock: MIFKUJ_clean_linker_0, # of connection points: 2
#     Edge 46, Type (0, 1), BuildingBlock: MIFKUJ_clean_linker_0, # of connection points: 2
#     Edge 47, Type (0, 1), BuildingBlock: MIFKUJ_clean_linker_0, # of connection points: 2
#     Edge 48, Type (0, 1), BuildingBlock: MIFKUJ_clean_linker_0, # of connection points: 2
#     Edge 49, Type (0, 1), BuildingBlock: MIFKUJ_clean_linker_0, # of connection points: 2
#     Edge 50, Type (0, 1), BuildingBlock: MIFKUJ_clean_linker_0, # of connection points: 2
#     Edge 51, Type (0, 1), BuildingBlock: MIFKUJ_clean_linker_0, # of connection points: 2
#     Edge 52, Type (0, 1), BuildingBlock: MIFKUJ_clean_linker_0, # of connection points: 2
#     Edge 53, Type (0, 1), BuildingBlock: MIFKUJ_clean_linker_0, # of connection points: 2
#     Edge 54, Type (0, 1), BuildingBlock: MIFKUJ_clean_linker_0, # of connection points: 2
#     Edge 55, Type (0, 1), BuildingBlock: MIFKUJ_clean_linker_0, # of connection points: 2
#     Edge 56, Type (0, 1), BuildingBlock: MIFKUJ_clean_linker_0, # of connection points: 2
#     Edge 57, Type (0, 1), BuildingBlock: MIFKUJ_clean_linker_0, # of connection points: 2
#     Edge 58, Type (0, 1), BuildingBlock: MIFKUJ_clean_linker_0, # of connection points: 2
#     Edge 59, Type (0, 1), BuildingBlock: MIFKUJ_clean_linker_0, # of connection points: 2
#     Edge 60, Type (0, 1), BuildingBlock: MIFKUJ_clean_linker_0, # of connection points: 2
#     Edge 61, Type (0, 1), BuildingBlock: MIFKUJ_clean_linker_0, # of connection points: 2
#     Edge 62, Type (0, 1), BuildingBlock: MIFKUJ_clean_linker_0, # of connection points: 2
#     Edge 63, Type (0, 1), BuildingBlock: MIFKUJ_clean_linker_0, # of connection points: 2
#     Edge 64, Type (0, 1), BuildingBlock: MIFKUJ_clean_linker_0, # of connection points: 2
#     Edge 65, Type (0, 1), BuildingBlock: MIFKUJ_clean_linker_0, # of connection points: 2
#     Edge 66, Type (0, 1), BuildingBlock: MIFKUJ_clean_linker_0, # of connection points: 2
#     Edge 67, Type (0, 1), BuildingBlock: MIFKUJ_clean_linker_0, # of connection points: 2
#     Edge 68, Type (0, 1), BuildingBlock: MIFKUJ_clean_linker_0, # of connection points: 2
#     Edge 69, Type (0, 1), BuildingBlock: MIFKUJ_clean_linker_0, # of connection points: 2
#     Edge 70, Type (0, 1), BuildingBlock: MIFKUJ_clean_linker_0, # of connection points: 2
#     Edge 71, Type (0, 1), BuildingBlock: MIFKUJ_clean_linker_0, # of connection points: 2
#     Edge 72, Type (0, 1), BuildingBlock: MIFKUJ_clean_linker_0, # of connection points: 2
#     Edge 73, Type (0, 1), BuildingBlock: MIFKUJ_clean_linker_0, # of connection points: 2
#     Edge 74, Type (0, 1), BuildingBlock: MIFKUJ_clean_linker_0, # of connection points: 2
#     Edge 75, Type (0, 1), BuildingBlock: MIFKUJ_clean_linker_0, # of connection points: 2
#     Edge 76, Type (0, 1), BuildingBlock: MIFKUJ_clean_linker_0, # of connection points: 2
#     Edge 77, Type (0, 1), BuildingBlock: MIFKUJ_clean_linker_0, # of connection points: 2
#     Edge 78, Type (0, 1), BuildingBlock: MIFKUJ_clean_linker_0, # of connection points: 2
#     Edge 79, Type (0, 1), BuildingBlock: MIFKUJ_clean_linker_0, # of connection points: 2
#     Edge 80, Type (0, 1), BuildingBlock: MIFKUJ_clean_linker_0, # of connection points: 2
#     Edge 81, Type (0, 1), BuildingBlock: MIFKUJ_clean_linker_0, # of connection points: 2
#     Edge 82, Type (0, 1), BuildingBlock: MIFKUJ_clean_linker_0, # of connection points: 2
#     Edge 83, Type (0, 1), BuildingBlock: MIFKUJ_clean_linker_0, # of connection points: 2
#     Edge 84, Type (0, 1), BuildingBlock: MIFKUJ_clean_linker_0, # of connection points: 2
#     Edge 85, Type (0, 1), BuildingBlock: MIFKUJ_clean_linker_0, # of connection points: 2
#     Edge 86, Type (0, 1), BuildingBlock: MIFKUJ_clean_linker_0, # of connection points: 2
#     Edge 87, Type (0, 1), BuildingBlock: MIFKUJ_clean_linker_0, # of connection points: 2
#     Edge 88, Type (0, 1), BuildingBlock: MIFKUJ_clean_linker_0, # of connection points: 2
#     Edge 89, Type (0, 1), BuildingBlock: MIFKUJ_clean_linker_0, # of connection points: 2
#     Edge 90, Type (0, 1), BuildingBlock: MIFKUJ_clean_linker_0, # of connection points: 2
#     Edge 91, Type (0, 1), BuildingBlock: MIFKUJ_clean_linker_0, # of connection points: 2
#     Edge 92, Type (0, 1), BuildingBlock: MIFKUJ_clean_linker_0, # of connection points: 2
#     Edge 93, Type (0, 1), BuildingBlock: MIFKUJ_clean_linker_0, # of connection points: 2
#     Edge 94, Type (0, 1), BuildingBlock: MIFKUJ_clean_linker_0, # of connection points: 2
#     Edge 95, Type (0, 1), BuildingBlock: MIFKUJ_clean_linker_0, # of connection points: 2
#     Edge 96, Type (0, 1), BuildingBlock: MIFKUJ_clean_linker_0, # of connection points: 2
#     Edge 97, Type (0, 1), BuildingBlock: MIFKUJ_clean_linker_0, # of connection points: 2
#     Edge 98, Type (0, 1), BuildingBlock: MIFKUJ_clean_linker_0, # of connection points: 2
#     Edge 99, Type (0, 1), BuildingBlock: MIFKUJ_clean_linker_0, # of connection points: 2
#     Edge 100, Type (0, 1), BuildingBlock: MIFKUJ_clean_linker_0, # of connection points: 2
#     Edge 101, Type (0, 1), BuildingBlock: MIFKUJ_clean_linker_0, # of connection points: 2
#     Edge 102, Type (0, 1), BuildingBlock: MIFKUJ_clean_linker_0, # of connection points: 2
#     Edge 103, Type (0, 1), BuildingBlock: MIFKUJ_clean_linker_0, # of connection points: 2
#     Edge 104, Type (0, 1), BuildingBlock: MIFKUJ_clean_linker_0, # of connection points: 2
#     Edge 105, Type (0, 1), BuildingBlock: MIFKUJ_clean_linker_0, # of connection points: 2
#     Edge 106, Type (0, 1), BuildingBlock: MIFKUJ_clean_linker_0, # of connection points: 2
#     Edge 107, Type (0, 1), BuildingBlock: MIFKUJ_clean_linker_0, # of connection points: 2
#     Edge 108, Type (0, 1), BuildingBlock: MIFKUJ_clean_linker_0, # of connection points: 2
#     Edge 109, Type (0, 1), BuildingBlock: MIFKUJ_clean_linker_0, # of connection points: 2
#     Edge 110, Type (0, 1), BuildingBlock: MIFKUJ_clean_linker_0, # of connection points: 2
#     Edge 111, Type (0, 1), BuildingBlock: MIFKUJ_clean_linker_0, # of connection points: 2
#     Edge 112, Type (0, 1), BuildingBlock: MIFKUJ_clean_linker_0, # of connection points: 2
#     Edge 113, Type (0, 1), BuildingBlock: MIFKUJ_clean_linker_0, # of connection points: 2
#     Edge 114, Type (0, 1), BuildingBlock: MIFKUJ_clean_linker_0, # of connection points: 2
#     Edge 115, Type (0, 1), BuildingBlock: MIFKUJ_clean_linker_0, # of connection points: 2
#     Edge 116, Type (0, 1), BuildingBlock: MIFKUJ_clean_linker_0, # of connection points: 2
#     Edge 117, Type (0, 1), BuildingBlock: MIFKUJ_clean_linker_0, # of connection points: 2
#     Edge 118, Type (0, 1), BuildingBlock: MIFKUJ_clean_linker_0, # of connection points: 2
#     Edge 119, Type (0, 1), BuildingBlock: MIFKUJ_clean_linker_0, # of connection points: 2
#     Edge 120, Type (0, 1), BuildingBlock: MIFKUJ_clean_linker_0, # of connection points: 2
#     Edge 121, Type (0, 1), BuildingBlock: MIFKUJ_clean_linker_0, # of connection points: 2
#     Edge 122, Type (0, 1), BuildingBlock: MIFKUJ_clean_linker_0, # of connection points: 2
#     Edge 123, Type (0, 1), BuildingBlock: MIFKUJ_clean_linker_0, # of connection points: 2
#     Edge 124, Type (0, 1), BuildingBlock: MIFKUJ_clean_linker_0, # of connection points: 2
#     Edge 125, Type (0, 1), BuildingBlock: MIFKUJ_clean_linker_0, # of connection points: 2
#     Edge 126, Type (0, 1), BuildingBlock: MIFKUJ_clean_linker_0, # of connection points: 2
#     Edge 127, Type (0, 1), BuildingBlock: MIFKUJ_clean_linker_0, # of connection points: 2
#     Edge 128, Type (0, 1), BuildingBlock: MIFKUJ_clean_linker_0, # of connection points: 2
#     Edge 129, Type (0, 1), BuildingBlock: MIFKUJ_clean_linker_0, # of connection points: 2
#     Edge 130, Type (0, 1), BuildingBlock: MIFKUJ_clean_linker_0, # of connection points: 2
#     Edge 131, Type (0, 1), BuildingBlock: MIFKUJ_clean_linker_0, # of connection points: 2
#     Edge 132, Type (0, 1), BuildingBlock: MIFKUJ_clean_linker_0, # of connection points: 2
#     Edge 133, Type (0, 1), BuildingBlock: MIFKUJ_clean_linker_0, # of connection points: 2
#     Edge 134, Type (0, 1), BuildingBlock: MIFKUJ_clean_linker_0, # of connection points: 2
#     Edge 135, Type (0, 1), BuildingBlock: MIFKUJ_clean_linker_0, # of connection points: 2
# Relax obj value: 0.125
# Max RMSD: 0.303
# Mean RMSD: 0.174
data_MOF--net-gar--node1-NAHDIM_clean_sbu_0--node2-KUMBUR_clean_sbu_0--edge1-MIFKUJ_clean_linker_0
_symmetry_space_group_name_H-M    P1
_symmetry_Int_Tables_number       1
_symmetry_cell_setting            triclinic
loop_
_symmetry_equiv_pos_as_xyz
'x, y, z'
_cell_length_a     77.812584
_cell_length_b     72.071479
_cell_length_c     70.659549
_cell_angle_alpha  100.36343
_cell_angle_beta   93.239027
_cell_angle_gamma 102.57057
loop_
_atom_site_label
_atom_site_type_symbol
_atom_site_fract_x
_atom_site_fract_y
_atom_site_fract_z
_atom_type_partial_charge
C0 C 0.12961 0.32091 0.36796 0.0
O1 O 0.1298 0.33084 0.38552 0.0
O2 O 0.08885 0.28395 0.38779 0.0
Zn3 Zn 0.09302 0.30564 0.37291 0.0
O4 O 0.09375 0.33027 0.39159 0.0
C5 C 0.05843 0.2898 0.35055 0.0
O6 O 0.05645 0.27656 0.36133 0.0
O7 O 0.11558 0.30864 0.36008 0.0
C8 C 0.07931 0.3343 0.39642 0.0
O9 O 0.06428 0.322 0.38939 0.0
C10 C 0.10119 0.27866 0.3964 0.0
O11 O 0.11773 0.28667 0.39462 0.0
O12 O 0.07287 0.30257 0.3527 0.0
C13 C 0.98755 0.76894 0.68915 0.0
O14 O 0.9973 0.75608 0.6872 0.0
O15 O 0.01758 0.76488 0.65361 0.0
Zn16 Zn 0.01542 0.78944 0.67093 0.0
O17 O 0.01712 0.8103 0.65516 0.0
C18 C 0.05125 0.79938 0.68382 0.0
O19 O 0.05152 0.80066 0.66551 0.0
O20 O 0.99278 0.78481 0.68347 0.0
C21 C 0.00686 0.80763 0.63978 0.0
O22 O 0.99427 0.7917 0.63509 0.0
C23 C 0.0052 0.75173 0.64356 0.0
O24 O 0.98881 0.7537 0.64355 0.0
O25 O 0.03639 0.7958 0.69064 0.0
C26 C 0.62939 0.80181 0.86562 0.0
O27 O 0.62804 0.81266 0.88226 0.0
O28 O 0.58836 0.77122 0.88603 0.0
Zn29 Zn 0.59236 0.78986 0.8677 0.0
O30 O 0.59336 0.81647 0.88276 0.0
C31 C 0.55644 0.77563 0.85034 0.0
O32 O 0.55445 0.76827 0.86601 0.0
O33 O 0.61556 0.79026 0.85627 0.0
C34 C 0.58895 0.82954 0.87498 0.0
O35 O 0.58335 0.8256 0.85649 0.0
C36 C 0.59542 0.77677 0.90338 0.0
O37 O 0.60572 0.79424 0.9087 0.0
O38 O 0.57181 0.78419 0.84728 0.0
C39 C 0.48113 0.27226 0.17153 0.0
O40 O 0.47935 0.27657 0.15434 0.0
O41 O 0.51496 0.24612 0.14665 0.0
Zn42 Zn 0.5167 0.27241 0.1626 0.0
O43 O 0.51683 0.29156 0.14517 0.0
C44 C 0.55406 0.28616 0.17635 0.0
O45 O 0.55565 0.29131 0.15951 0.0
O46 O 0.49604 0.2704 0.1781 0.0
C47 C 0.52231 0.30977 0.1509 0.0
O48 O 0.52801 0.31678 0.1692 0.0
C49 C 0.52513 0.24351 0.13349 0.0
O50 O 0.53648 0.25851 0.12983 0.0
O51 O 0.53882 0.27873 0.18071 0.0
C52 C 0.04682 0.81047 0.13286 0.0
O53 O 0.0434 0.80591 0.11396 0.0
O54 O 0.07688 0.78738 0.10491 0.0
Zn55 Zn 0.08267 0.81546 0.12155 0.0
O56 O 0.08224 0.83926 0.10789 0.0
C57 C 0.11821 0.80921 0.13212 0.0
O58 O 0.1146 0.7976 0.1151 0.0
O59 O 0.06297 0.81527 0.14002 0.0
C60 C 0.07743 0.84003 0.09046 0.0
O61 O 0.07238 0.82379 0.07763 0.0
C62 C 0.08072 0.78001 0.08831 0.0
O63 O 0.08931 0.79149 0.07776 0.0
O64 O 0.10698 0.81903 0.13795 0.0
C65 C 0.55723 0.77154 0.40898 0.0
O66 O 0.56022 0.77671 0.42789 0.0
O67 O 0.51992 0.74178 0.43275 0.0
Zn68 Zn 0.52066 0.76548 0.41884 0.0
O69 O 0.52595 0.79307 0.43632 0.0
C70 C 0.48377 0.76818 0.40769 0.0
O71 O 0.48485 0.77611 0.42608 0.0
O72 O 0.54121 0.76595 0.40142 0.0
C73 C 0.51951 0.79923 0.45181 0.0
O74 O 0.50867 0.78677 0.45965 0.0
C75 C 0.52685 0.74178 0.44961 0.0
O76 O 0.53485 0.75845 0.46071 0.0
O77 O 0.497 0.76204 0.40129 0.0
C78 C 0.54032 0.31033 0.63517 0.0
O79 O 0.53738 0.31299 0.61747 0.0
O80 O 0.57482 0.28427 0.60645 0.0
Zn81 Zn 0.57647 0.31156 0.62365 0.0
O82 O 0.57451 0.33385 0.60836 0.0
C83 C 0.61376 0.3121 0.63481 0.0
O84 O 0.613 0.30498 0.61623 0.0
O85 O 0.55585 0.3093 0.64107 0.0
C86 C 0.58708 0.34691 0.6045 0.0
O87 O 0.60347 0.34643 0.60956 0.0
C88 C 0.56071 0.27123 0.60011 0.0
O89 O 0.54533 0.27539 0.60297 0.0
O90 O 0.60012 0.3171 0.64141 0.0
C91 C 0.05237 0.27304 0.9079 0.0
O92 O 0.05522 0.27865 0.92678 0.0
O93 O 0.01497 0.2432 0.93162 0.0
Zn94 Zn 0.01585 0.26692 0.91763 0.0
O95 O 0.02144 0.29481 0.93471 0.0
C96 C 0.97811 0.26705 0.90676 0.0
O97 O 0.97813 0.27194 0.92558 0.0
O98 O 0.03639 0.2671 0.90024 0.0
C99 C 0.01449 0.30179 0.9495 0.0
O100 O 1.00271 0.29007 0.95711 0.0
C101 C 0.02221 0.24302 0.94829 0.0
O102 O 0.03062 0.25958 0.95929 0.0
O103 O 0.99224 0.26356 0.90001 0.0
C104 C 0.39949 0.08276 0.29391 0.0
O105 O 0.41675 0.0859 0.29749 0.0
O106 O 0.42116 0.04574 0.27483 0.0
Zn107 Zn 0.40356 0.04521 0.29447 0.0
O108 O 0.41744 0.05163 0.32062 0.0
C109 C 0.38414 0.00815 0.27262 0.0
O110 O 0.39046 0.0156 0.25808 0.0
O111 O 0.39018 0.06561 0.29214 0.0
C112 C 0.41317 0.04264 0.33417 0.0
O113 O 0.39874 0.02866 0.33142 0.0
C114 C 0.43199 0.03487 0.27485 0.0
O115 O 0.43131 0.02372 0.28773 0.0
O116 O 0.38749 0.01841 0.28962 0.0
C117 C 0.33353 0.16911 0.51427 0.0
O118 O 0.33976 0.18774 0.51505 0.0
O119 O 0.30231 0.19731 0.53919 0.0
Zn120 Zn 0.29989 0.18025 0.51233 0.0
O121 O 0.30502 0.195 0.49028 0.0
C122 C 0.26217 0.17027 0.51471 0.0
O123 O 0.2657 0.18814 0.52464 0.0
O124 O 0.31686 0.16251 0.5129 0.0
C125 C 0.29279 0.19931 0.48038 0.0
O126 O 0.27657 0.19534 0.48529 0.0
C127 C 0.30485 0.21564 0.54426 0.0
O128 O 0.30697 0.2264 0.53102 0.0
O129 O 0.27474 0.16352 0.5076 0.0
C130 C 0.193 0.97813 0.77919 0.0
O131 O 0.18766 0.9829 0.79633 0.0
O132 O 0.15931 0.01038 0.74013 0.0
Zn133 Zn 0.17393 0.01132 0.76857 0.0
O134 O 0.15727 0.0103 0.79309 0.0
C135 C 0.18672 0.05432 0.76937 0.0
O136 O 0.17018 0.05146 0.76231 0.0
O137 O 0.18908 0.9875 0.76608 0.0
C138 C 0.1598 0.02341 0.80877 0.0
O139 O 0.17303 0.03856 0.81003 0.0
C140 C 0.14428 0.01449 0.7361 0.0
O141 O 0.13502 0.01877 0.75057 0.0
O142 O 0.19188 0.03968 0.77375 0.0
C143 C 0.27775 0.96491 0.02761 0.0
O144 O 0.27181 0.94662 0.02855 0.0
O145 O 0.30496 0.94049 0.05179 0.0
Zn146 Zn 0.31055 0.95394 0.02968 0.0
O147 O 0.30789 0.93354 0.00527 0.0
C148 C 0.34518 0.97401 0.05045 0.0
O149 O 0.33826 0.96939 0.06598 0.0
O150 O 0.29425 0.97144 0.02751 0.0
C151 C 0.32091 0.93278 0.99528 0.0
O152 O 0.3359 0.94571 1.00068 0.0
C153 C 0.31416 0.92855 0.0547 0.0
O154 O 0.32638 0.92565 0.04314 0.0
O155 O 0.33563 0.96965 0.03439 0.0
C156 C 0.26957 0.41501 0.03595 0.0
O157 O 0.26513 0.39622 0.02919 0.0
O158 O 0.30339 0.39545 0.06911 0.0
Zn159 Zn 0.304 0.4066 0.04433 0.0
O160 O 0.30037 0.38598 0.01939 0.0
C161 C 0.34112 0.41681 0.03864 0.0
O162 O 0.33762 0.39831 0.03064 0.0
O163 O 0.28541 0.42276 0.04329 0.0
C164 C 0.29996 0.39238 0.00372 0.0
O165 O 0.30125 0.41104 0.00485 0.0
C166 C 0.2896 0.38835 0.0767 0.0
O167 O 0.27395 0.38685 0.06777 0.0
O168 O 0.3287 0.42403 0.04556 0.0
C169 C 0.82685 0.13148 0.00885 0.0
O170 O 0.83261 0.15006 0.00901 0.0
O171 O 0.80029 0.16288 0.03894 0.0
Zn172 Zn 0.79478 0.14358 0.01369 0.0
O173 O 0.79747 0.15792 0.99193 0.0
C174 C 0.76258 0.11139 0.00594 0.0
O175 O 0.77294 0.09945 1.00142 0.0
O176 O 0.81073 0.12509 0.01122 0.0
C177 C 0.79109 0.14856 0.97512 0.0
O178 O 0.78375 0.12996 0.9727 0.0
C179 C 0.78795 0.171 0.04442 0.0
O180 O 0.77285 0.16654 0.03348 0.0
O181 O 0.76926 0.12943 0.01144 0.0
C182 C 0.18465 0.47987 0.2546 0.0
O183 O 0.17011 0.48252 0.26214 0.0
O184 O 0.17234 0.51557 0.22224 0.0
Zn185 Zn 0.18612 0.51799 0.2476 0.0
O186 O 0.17021 0.52235 0.26857 0.0
C187 C 0.20052 0.5571 0.2515 0.0
O188 O 0.18335 0.55552 0.24906 0.0
O189 O 0.1941 0.49338 0.24779 0.0
C190 C 0.17627 0.532 0.28538 0.0
O191 O 0.19343 0.5388 0.28942 0.0
C192 C 0.15676 0.50499 0.21826 0.0
O193 O 0.14971 0.49509 0.23092 0.0
O194 O 0.20615 0.54177 0.2512 0.0
C195 C 0.77308 0.91551 0.52575 0.0
O196 O 0.76892 0.89694 0.51795 0.0
O197 O 0.80788 0.89467 0.55562 0.0
Zn198 Zn 0.80754 0.90721 0.53208 0.0
O199 O 0.8029 0.88732 0.50697 0.0
C200 C 0.84071 0.93514 0.54729 0.0
O201 O 0.83352 0.93593 0.56371 0.0
O202 O 0.78894 0.9233 0.53297 0.0
C203 C 0.8133 0.8762 0.50239 0.0
O204 O 0.82674 0.87683 0.5148 0.0
C205 C 0.79501 0.88231 0.55974 0.0
O206 O 0.78033 0.87671 0.54803 0.0
O207 O 0.83192 0.92432 0.53205 0.0
C208 C 0.90897 0.10869 0.28542 0.0
O209 O 0.91272 0.107 0.3033 0.0
O210 O 0.94495 0.07231 0.24858 0.0
Zn211 Zn 0.92812 0.07277 0.27281 0.0
O212 O 0.94274 0.07512 0.30144 0.0
C213 C 0.91474 0.03016 0.27384 0.0
O214 O 0.93103 0.03321 0.28177 0.0
O215 O 0.9137 0.09674 0.27177 0.0
C216 C 0.9574 0.07012 0.30504 0.0
O217 O 0.96565 0.06426 0.29019 0.0
C218 C 0.94089 0.06031 0.23216 0.0
O219 O 0.92595 0.04713 0.23005 0.0
O220 O 0.90993 0.04454 0.26837 0.0
C221 C 0.33109 0.62961 0.50905 0.0
O222 O 0.33642 0.64699 0.50518 0.0
O223 O 0.30374 0.65969 0.54505 0.0
Zn224 Zn 0.30046 0.64405 0.51794 0.0
O225 O 0.30525 0.66103 0.49812 0.0
C226 C 0.26378 0.64053 0.51212 0.0
O227 O 0.26978 0.65938 0.51444 0.0
O228 O 0.31598 0.62499 0.51513 0.0
C229 C 0.30615 0.67917 0.50121 0.0
O230 O 0.3044 0.6882 0.51861 0.0
C231 C 0.31709 0.67299 0.55286 0.0
O232 O 0.33079 0.67728 0.54307 0.0
O233 O 0.2748 0.62993 0.51285 0.0
C234 C 0.41009 0.60831 0.78646 0.0
O235 O 0.41501 0.60736 0.80429 0.0
O236 O 0.4431 0.56742 0.74881 0.0
Zn237 Zn 0.42761 0.57129 0.77404 0.0
O238 O 0.44213 0.57342 0.8026 0.0
C239 C 0.4135 0.52943 0.77657 0.0
O240 O 0.42992 0.53238 0.7841 0.0
O241 O 0.41374 0.59562 0.77271 0.0
C242 C 0.45784 0.57127 0.80701 0.0
O243 O 0.46797 0.5689 0.79294 0.0
C244 C 0.45074 0.58 0.73917 0.0
O245 O 0.45039 0.59822 0.74536 0.0
O246 O 0.40875 0.54372 0.77085 0.0
C247 C 0.71421 1.00433 0.76947 0.0
O248 O 0.7022 0.0083 0.78088 0.0
O249 O 0.68894 0.02182 0.72154 0.0
Zn250 Zn 0.70153 0.03022 0.74828 0.0
O251 O 0.6833 0.03252 0.76707 0.0
C252 C 0.71009 0.06959 0.74569 0.0
O253 O 0.69292 0.0652 0.74086 0.0
O254 O 0.71599 0.01169 0.75443 0.0
C255 C 0.68661 0.04469 0.78298 0.0
O256 O 0.70246 0.05621 0.78745 0.0
C257 C 0.67399 0.00985 0.71791 0.0
O258 O 0.66719 1.00146 0.7317 0.0
O259 O 0.71743 0.0565 0.74978 0.0
C260 C 0.82748 0.66788 1.00124 0.0
O261 O 0.83227 0.6824 0.99232 0.0
O262 O 0.79609 0.70142 0.0278 0.0
Zn263 Zn 0.79465 0.68128 1.00306 0.0
O264 O 0.79987 0.69327 0.97935 0.0
C265 C 0.75704 0.67005 0.00642 0.0
O266 O 0.76033 0.68762 0.01701 0.0
O267 O 0.81209 0.66462 0.007 0.0
C268 C 0.78941 0.70185 0.97178 0.0
O269 O 0.77502 0.70387 0.97999 0.0
C270 C 0.80987 0.70854 0.03966 0.0
O271 O 0.82482 0.70396 0.03537 0.0
O272 O 0.76965 0.66402 0.99856 0.0
C273 C 0.89213 0.60166 0.79592 0.0
O274 O 0.90721 0.61131 0.80583 0.0
O275 O 0.92502 0.56847 0.77644 0.0
Zn276 Zn 0.90696 0.56792 0.79565 0.0
O277 O 0.9201 0.57781 0.82204 0.0
C278 C 0.89207 0.52786 0.77784 0.0
O279 O 0.89849 0.5334 0.76243 0.0
O280 O 0.88948 0.58343 0.79025 0.0
C281 C 0.91502 0.57013 0.83618 0.0
O282 O 0.89997 0.55709 0.83384 0.0
C283 C 0.93915 0.56345 0.78097 0.0
O284 O 0.94145 0.55883 0.79794 0.0
O285 O 0.89396 0.54019 0.79357 0.0
C286 C 0.78168 0.46742 0.53576 0.0
O287 O 0.7792 0.44984 0.5394 0.0
O288 O 0.81067 0.43685 0.5368 0.0
Zn289 Zn 0.81381 0.45875 0.52235 0.0
O290 O 0.81199 0.44642 0.49412 0.0
C291 C 0.8467 0.47568 0.54638 0.0
O292 O 0.83896 0.46558 0.55855 0.0
O293 O 0.79546 0.47419 0.52808 0.0
C294 C 0.82587 0.44623 0.48546 0.0
O295 O 0.84131 0.45579 0.49456 0.0
C296 C 0.82106 0.42543 0.53437 0.0
O297 O 0.83336 0.42828 0.52252 0.0
O298 O 0.83814 0.4758 0.53057 0.0
C299 C 0.68621 0.47216 0.27097 0.0
O300 O 0.66968 0.46596 0.27421 0.0
O301 O 0.65977 0.51081 0.24183 0.0
Zn302 Zn 0.67469 0.51269 0.2702 0.0
O303 O 0.65827 0.51156 0.29492 0.0
C304 C 0.68745 0.55545 0.26851 0.0
O305 O 0.6714 0.552 0.2598 0.0
O306 O 0.69098 0.49003 0.26882 0.0
C307 C 0.6601 0.52514 0.31013 0.0
O308 O 0.67235 0.54103 0.31072 0.0
C309 C 0.64431 0.51391 0.23787 0.0
O310 O 0.63485 0.5174 0.25235 0.0
O311 O 0.69217 0.54138 0.27474 0.0
Tb312 Tb 0.03002 0.02438 0.00755 0.0
C313 C 0.07258 0.10024 0.05872 0.0
C314 C 0.07558 0.12393 0.03817 0.0
C315 C 0.07586 0.13432 0.07287 0.0
C316 C 0.07303 0.10452 0.04055 0.0
C317 C 0.0745 0.11512 0.07519 0.0
C318 C 0.07642 0.13873 0.05436 0.0
C319 C 0.07595 0.09136 0.09496 0.0
N320 N 0.07173 0.08162 0.0603 0.0
C321 C 0.07419 0.07717 0.07817 0.0
C322 C 0.0758 0.11038 0.09348 0.0
Tb323 Tb 0.06847 0.0591 0.03202 0.0
N324 N 0.07245 0.08982 0.02539 0.0
C325 C 0.07593 0.09392 0.0076 0.0
C326 C 0.078 0.12796 0.01976 0.0
C327 C 0.07845 0.11291 0.00446 0.0
H328 H 0.07425 0.06252 0.07959 0.0
H329 H 0.08068 0.1159 0.99022 0.0
H330 H 0.07813 0.15369 0.05279 0.0
H331 H 0.0774 0.08761 0.10903 0.0
H332 H 0.07629 0.08259 0.99551 0.0
H333 H 0.0172 0.96574 0.04705 0.0
H334 H 0.08009 0.14267 0.01733 0.0
H335 H 0.02413 0.02236 0.95993 0.0
H336 H 0.02138 0.99944 0.04286 0.0
H337 H 0.02151 0.99817 0.93001 0.0
H338 H 0.07714 0.14594 0.08533 0.0
H339 H 0.01864 0.93988 0.01939 0.0
H340 H 0.02088 0.93005 0.9838 0.0
H341 H 0.07729 0.12138 0.1065 0.0
H342 H 0.02202 0.93891 0.95176 0.0
N343 N 0.02587 0.99326 0.0131 0.0
C344 C 0.02206 0.98847 0.03055 0.0
C345 C 0.02052 0.95473 0.01743 0.0
C346 C 0.02308 0.95944 0.99928 0.0
C347 C 0.01964 0.96927 0.03304 0.0
C348 C 0.02549 0.97903 0.99755 0.0
H349 H 0.02187 0.96423 0.93149 0.0
N350 N 0.02677 1.0027 0.97863 0.0
C351 C 0.02288 0.99397 0.94387 0.0
C352 C 0.02598 0.98393 0.97963 0.0
C353 C 0.02438 0.00769 0.96099 0.0
C354 C 0.02314 0.97485 0.94477 0.0
C355 C 0.02431 0.96951 0.96279 0.0
O356 O 0.00805 0.03209 0.99519 0.0
O357 O 0.04286 0.05506 0.01662 0.0
O358 O 0.04675 0.06257 0.05055 0.0
O359 O 0.02712 0.03263 0.0393 0.0
O360 O 0.03029 0.04594 0.98932 0.0
O361 O 0.00506 0.01488 0.01718 0.0
O362 O 0.09113 0.0546 0.04647 0.0
O363 O 0.05544 0.02861 0.0234 0.0
O364 O 0.0517 0.02038 0.9891 0.0
O365 O 0.07161 0.05011 1.00042 0.0
O366 O 0.06905 0.03753 0.05019 0.0
O367 O 0.0927 0.06589 0.0202 0.0
C368 C 0.03892 0.061 1.00142 0.0
C369 C 0.98045 0.01112 0.99434 0.0
C370 C 0.95066 0.01083 0.98142 0.0
C371 C 0.96649 0.02028 0.99299 0.0
C372 C 0.94881 0.99158 0.97163 0.0
C373 C 0.97855 0.99199 0.98445 0.0
C374 C 0.96269 0.98223 0.97323 0.0
C375 C 0.03286 0.04884 0.05273 0.0
C376 C 0.99706 0.02266 0.00516 0.0
C377 C 0.02311 0.95017 0.96449 0.0
C378 C 0.02248 0.94513 0.98273 0.0
C379 C 0.05987 0.02259 0.03837 0.0
C380 C 0.11819 0.07483 0.04252 0.0
C381 C 0.13336 0.0675 0.04273 0.0
C382 C 0.14982 0.07945 0.05083 0.0
C383 C 0.15095 0.09913 0.05848 0.0
C384 C 0.11938 0.09445 0.05026 0.0
C385 C 0.13575 0.10654 0.05818 0.0
C386 C 0.06583 0.03387 0.98705 0.0
C387 C 0.10144 0.06138 0.03425 0.0
H388 H 0.9681 0.03498 1.001 0.0
H389 H 0.93681 0.98388 0.96252 0.0
H390 H 0.98927 0.98472 0.98528 0.0
H391 H 0.96123 0.96747 0.96555 0.0
H392 H 0.1323 0.05239 0.03632 0.0
H393 H 0.16347 0.10868 0.06485 0.0
H394 H 0.10778 0.10038 0.05015 0.0
H395 H 0.13666 0.12169 0.06416 0.0
Tb396 Tb 0.3047 0.76692 0.2461 0.0
C397 C 0.29389 0.83815 0.30801 0.0
C398 C 0.3225 0.85165 0.326 0.0
C399 C 0.29998 0.87026 0.32866 0.0
C400 C 0.31056 0.83629 0.31321 0.0
C401 C 0.28844 0.85529 0.3154 0.0
C402 C 0.31698 0.86838 0.33407 0.0
C403 C 0.26045 0.84152 0.29635 0.0
N404 N 0.28316 0.82335 0.29524 0.0
C405 C 0.26634 0.82474 0.28977 0.0
C406 C 0.27154 0.85688 0.30928 0.0
Tb407 Tb 0.29205 0.79449 0.28819 0.0
N408 N 0.3155 0.82011 0.30455 0.0
C409 C 0.33338 0.8206 0.30576 0.0
C410 C 0.33984 0.85011 0.32969 0.0
C411 C 0.34552 0.83499 0.31881 0.0
H412 H 0.25706 0.81273 0.28061 0.0
H413 H 0.35933 0.83448 0.32026 0.0
H414 H 0.32595 0.8802 0.34398 0.0
H415 H 0.2472 0.8424 0.29175 0.0
H416 H 0.33886 0.81021 0.29669 0.0
H417 H 0.23735 0.72273 0.2286 0.0
H418 H 0.34913 0.86102 0.34012 0.0
H419 H 0.343 0.75405 0.24793 0.0
H420 H 0.25955 0.7522 0.24205 0.0
H421 H 0.35394 0.7241 0.24323 0.0
H422 H 0.29598 0.88342 0.33461 0.0
H423 H 0.24607 0.69177 0.2186 0.0
H424 H 0.27001 0.67336 0.21734 0.0
H425 H 0.26688 0.8698 0.31455 0.0
H426 H 0.30153 0.67348 0.22292 0.0
N427 N 0.28182 0.73923 0.23819 0.0
C428 C 0.26414 0.73933 0.23693 0.0
C429 C 0.25615 0.7049 0.22419 0.0
C430 C 0.27398 0.70448 0.22667 0.0
C431 C 0.2512 0.72235 0.22968 0.0
C432 C 0.2866 0.72209 0.23363 0.0
H433 H 0.33284 0.69224 0.23308 0.0
N434 N 0.31577 0.73942 0.24315 0.0
C435 C 0.33987 0.72326 0.24159 0.0
C436 C 0.30419 0.72215 0.23659 0.0
C437 C 0.33357 0.74019 0.24476 0.0
C438 C 0.32794 0.70535 0.23576 0.0
C439 C 0.30988 0.70464 0.23281 0.0
O440 O 0.32119 0.76343 0.2238 0.0
O441 O 0.30515 0.79526 0.26261 0.0
O442 O 0.27956 0.80136 0.2619 0.0
O443 O 0.28151 0.77678 0.23636 0.0
O444 O 0.32838 0.79098 0.25265 0.0
O445 O 0.29813 0.77409 0.2194 0.0
O446 O 0.26466 0.78297 0.28667 0.0
O447 O 0.28811 0.76655 0.26907 0.0
O448 O 0.3235 0.76677 0.27134 0.0
O449 O 0.31522 0.78494 0.29925 0.0
O450 O 0.29124 0.76751 0.29863 0.0
O451 O 0.28 0.79639 0.31413 0.0
C452 C 0.32083 0.80374 0.26151 0.0
C453 C 0.32397 0.78893 0.20675 0.0
C454 C 0.32655 0.8195 0.19555 0.0
C455 C 0.31617 0.80322 0.20117 0.0
C456 C 0.345 0.8215 0.19604 0.0
C457 C 0.34239 0.7912 0.20695 0.0
C458 C 0.35281 0.80748 0.20179 0.0
C459 C 0.27425 0.79102 0.24414 0.0
C460 C 0.31301 0.77205 0.21294 0.0
C461 C 0.29743 0.68706 0.22592 0.0
C462 C 0.27951 0.68701 0.22269 0.0
C463 C 0.2882 0.75624 0.28182 0.0
C464 C 0.25542 0.76986 0.31363 0.0
C465 C 0.26323 0.76458 0.32964 0.0
C466 C 0.25459 0.74844 0.33683 0.0
C467 C 0.23803 0.73751 0.32777 0.0
C468 C 0.23869 0.75901 0.30503 0.0
C469 C 0.23012 0.74285 0.31201 0.0
C470 C 0.32577 0.77448 0.29031 0.0
C471 C 0.26465 0.7863 0.30543 0.0
H472 H 0.302 0.80165 0.20118 0.0
H473 H 0.3534 0.83355 0.19135 0.0
H474 H 0.3488 0.78045 0.21119 0.0
H475 H 0.36698 0.80911 0.20196 0.0
H476 H 0.27618 0.77277 0.33635 0.0
H477 H 0.23107 0.72506 0.3331 0.0
H478 H 0.23237 0.76286 0.29272 0.0
H479 H 0.2173 0.73446 0.30518 0.0
Tb480 Tb 0.56803 0.04269 0.51489 0.0
C481 C 0.515 0.99983 0.56349 0.0
C482 C 0.49773 0.97102 0.54208 0.0
C483 C 0.50212 0.97149 0.57649 0.0
C484 C 0.50818 0.99011 0.54512 0.0
C485 C 0.51191 0.99078 0.57948 0.0
C486 C 0.49499 0.96163 0.55781 0.0
C487 C 0.52729 0.02093 0.60021 0.0
N488 N 0.52413 0.01851 0.56573 0.0
C489 C 0.52986 0.02932 0.58391 0.0
C490 C 0.5184 1.00152 0.59799 0.0
Tb491 Tb 0.5279 0.03089 0.53806 0.0
N492 N 0.51105 0.99973 0.53037 0.0
C493 C 0.50289 0.99136 0.51224 0.0
C494 C 0.4899 0.96219 0.52343 0.0
C495 C 0.49239 0.97247 0.50847 0.0
H496 H 0.53685 0.04429 0.58596 0.0
H497 H 0.48619 0.96597 0.49403 0.0
H498 H 0.48711 0.94691 0.55573 0.0
H499 H 0.53219 0.02945 0.61448 0.0
H500 H 0.5046 0.99899 0.50046 0.0
H501 H 0.60704 0.10778 0.56176 0.0
H502 H 0.48155 0.94767 0.52061 0.0
H503 H 0.56127 0.03076 0.46699 0.0
H504 H 0.59085 0.07365 0.55354 0.0
H505 H 0.56544 0.04716 0.43929 0.0
H506 H 0.49967 0.96422 0.58857 0.0
H507 H 0.60996 0.12787 0.53665 0.0
H508 H 0.60466 0.12985 0.50165 0.0
H509 H 0.51635 0.99509 0.61065 0.0
H510 H 0.5934 0.11329 0.4682 0.0
N511 N 0.58409 0.07417 0.52398 0.0
C512 C 0.59201 0.08205 0.54231 0.0
C513 C 0.60283 0.11281 0.53291 0.0
C514 C 0.59563 0.10436 0.51393 0.0
C515 C 0.60123 0.10151 0.54709 0.0
C516 C 0.58638 0.08474 0.5099 0.0
H517 H 0.57892 0.08234 0.44473 0.0
N518 N 0.57208 0.05643 0.4881 0.0
C519 C 0.56956 0.05535 0.45384 0.0
C520 C 0.58014 0.07552 0.49123 0.0
C521 C 0.56731 0.04608 0.46961 0.0
C522 C 0.57715 0.07521 0.45697 0.0
C523 C 0.5828 0.08551 0.47585 0.0
O524 O 0.58336 0.02593 0.49893 0.0
O525 O 0.5471 0.02008 0.52103 0.0
O526 O 0.54797 0.01993 0.55253 0.0
O527 O 0.5729 0.04107 0.54558 0.0
O528 O 0.55656 0.01495 0.49492 0.0
O529 O 0.59239 0.04112 0.52812 0.0
O530 O 0.51385 0.04966 0.55323 0.0
O531 O 0.54862 0.05349 0.53143 0.0
O532 O 0.54737 0.05233 0.49958 0.0
O533 O 0.52271 0.0313 0.50723 0.0
O534 O 0.54002 0.05841 0.55793 0.0
O535 O 0.50301 0.03184 0.52548 0.0
C536 C 0.54548 0.00738 0.50575 0.0
C537 C 0.61431 0.03558 0.50763 0.0
C538 C 0.64395 0.02931 0.50692 0.0
C539 C 0.62623 0.02416 0.51106 0.0
C540 C 0.64948 0.04607 0.4992 0.0
C541 C 0.62007 0.05219 0.49988 0.0
C542 C 0.63759 0.05737 0.49568 0.0
C543 C 0.56501 0.0285 0.55581 0.0
C544 C 0.59612 0.03023 0.51287 0.0
C545 C 0.59134 0.10529 0.47979 0.0
C546 C 0.59775 0.11471 0.49883 0.0
C547 C 0.55062 0.06612 0.54678 0.0
C548 C 0.48276 0.04103 0.54684 0.0
C549 C 0.47104 0.05222 0.54213 0.0
C550 C 0.45405 0.04955 0.54862 0.0
C551 C 0.44903 0.0354 0.55992 0.0
C552 C 0.47748 0.02698 0.55802 0.0
C553 C 0.46067 0.02421 0.56452 0.0
C554 C 0.53037 0.04347 0.49653 0.0
C555 C 0.50043 0.04449 0.54003 0.0
H556 H 0.62178 0.01146 0.51729 0.0
H557 H 0.66295 0.05033 0.49564 0.0
H558 H 0.6111 0.06115 0.49717 0.0
H559 H 0.64198 0.0702 0.48968 0.0
H560 H 0.47516 0.06286 0.53324 0.0
H561 H 0.43619 0.03313 0.56544 0.0
H562 H 0.48634 0.01827 0.5618 0.0
H563 H 0.45667 0.01341 0.57324 0.0
Tb564 Tb 0.27839 0.2983 0.77152 0.0
C565 C 0.333 0.26626 0.81366 0.0
C566 C 0.34294 0.29024 0.84299 0.0
C567 C 0.34299 0.2565 0.84277 0.0
C568 C 0.33589 0.2851 0.82343 0.0
C569 C 0.33709 0.2518 0.82296 0.0
C570 C 0.34588 0.27573 0.8528 0.0
C571 C 0.33153 0.22996 0.79192 0.0
N572 N 0.32768 0.26251 0.79451 0.0
C573 C 0.32767 0.24485 0.78338 0.0
C574 C 0.33593 0.23333 0.81187 0.0
Tb575 Tb 0.32099 0.28751 0.78172 0.0
N576 N 0.33327 0.29864 0.81324 0.0
C577 C 0.33916 0.31791 0.82137 0.0
C578 C 0.34759 0.30987 0.8518 0.0
C579 C 0.34604 0.32378 0.8408 0.0
H580 H 0.32417 0.24201 0.76796 0.0
H581 H 0.35006 0.33905 0.84729 0.0
H582 H 0.35107 0.27934 0.8679 0.0
H583 H 0.33104 0.21589 0.78311 0.0
H584 H 0.338 0.32895 0.81326 0.0
H585 H 0.24896 0.24669 0.70613 0.0
H586 H 0.35298 0.31445 0.86681 0.0
H587 H 0.27624 0.3443 0.78493 0.0
H588 H 0.26106 0.25682 0.74013 0.0
H589 H 0.27017 0.37055 0.76948 0.0
H590 H 0.34598 0.24555 0.85027 0.0
H591 H 0.24637 0.27126 0.68646 0.0
H592 H 0.24877 0.30641 0.68516 0.0
H593 H 0.33899 0.22182 0.81844 0.0
H594 H 0.25443 0.34033 0.70254 0.0
N595 N 0.26601 0.28713 0.74005 0.0
C596 C 0.26001 0.26786 0.73198 0.0
C597 C 0.25174 0.27586 0.70148 0.0
C598 C 0.25658 0.29551 0.71019 0.0
C599 C 0.25311 0.26196 0.71256 0.0
C600 C 0.26358 0.30067 0.72977 0.0
H601 H 0.26201 0.36436 0.73417 0.0
N602 N 0.2721 0.32342 0.75857 0.0
C603 C 0.26924 0.35629 0.76082 0.0
C604 C 0.26673 0.31959 0.73942 0.0
C605 C 0.27263 0.34132 0.76953 0.0
C606 C 0.26471 0.35277 0.74087 0.0
C607 C 0.26304 0.33412 0.72996 0.0
O608 O 0.26117 0.30781 0.79121 0.0
O609 O 0.29814 0.296 0.79338 0.0
O610 O 0.30099 0.26334 0.78883 0.0
O611 O 0.27544 0.26684 0.77209 0.0
O612 O 0.28654 0.31911 0.7986 0.0
O613 O 0.25346 0.27994 0.77251 0.0
O614 O 0.33793 0.27849 0.76145 0.0
O615 O 0.30121 0.28983 0.76008 0.0
O616 O 0.29853 0.3219 0.76368 0.0
O617 O 0.3239 0.31896 0.78111 0.0
O618 O 0.31287 0.26687 0.7544 0.0
O619 O 0.34612 0.3057 0.78119 0.0
C620 C 0.29765 0.31086 0.80578 0.0
C621 C 0.23054 0.29548 0.78195 0.0
C622 C 0.20031 0.29407 0.79113 0.0
C623 C 0.21761 0.29143 0.79488 0.0
C624 C 0.19646 0.30126 0.77451 0.0
C625 C 0.22614 0.3024 0.76546 0.0
C626 C 0.20925 0.30536 0.76184 0.0
C627 C 0.28425 0.25646 0.78115 0.0
C628 C 0.24852 0.29235 0.78558 0.0
C629 C 0.25714 0.32935 0.71015 0.0
C630 C 0.25392 0.31004 0.70026 0.0
C631 C 0.30167 0.27517 0.74744 0.0
C632 C 0.36859 0.28988 0.77063 0.0
C633 C 0.38112 0.29325 0.75714 0.0
C634 C 0.39814 0.28959 0.76007 0.0
C635 C 0.40209 0.28213 0.7765 0.0
C636 C 0.37312 0.28278 0.78695 0.0
C637 C 0.38972 0.27884 0.78978 0.0
C638 C 0.31519 0.32901 0.7715 0.0
C639 C 0.35079 0.29363 0.76755 0.0
H640 H 0.22092 0.2859 0.80756 0.0
H641 H 0.18353 0.30391 0.77133 0.0
H642 H 0.23575 0.3055 0.75533 0.0
H643 H 0.20604 0.31083 0.74912 0.0
H644 H 0.37768 0.29895 0.74463 0.0
H645 H 0.41476 0.27863 0.77905 0.0
H646 H 0.36383 0.28024 0.79751 0.0
H647 H 0.39303 0.27318 0.80235 0.0
Tb648 Tb 0.04955 0.06691 0.53374 0.0
C649 C 0.07004 0.01107 0.46729 0.0
C650 C 0.04624 0.00586 0.44207 0.0
C651 C 0.07542 1.00264 0.4336 0.0
C652 C 0.05279 0.01086 0.4618 0.0
C653 C 0.08147 0.00637 0.45333 0.0
C654 C 0.0578 1.0024 0.42797 0.0
C655 C 0.10311 0.00696 0.47939 0.0
N656 N 0.0752 0.01439 0.48647 0.0
C657 C 0.09128 0.01161 0.49267 0.0
C658 C 0.09833 1.00471 0.45964 0.0
Tb659 Tb 0.05507 0.02222 0.50732 0.0
N660 N 0.04204 0.01382 0.47592 0.0
C661 C 0.02414 0.01007 0.4712 0.0
C662 C 0.02813 1.00355 0.43718 0.0
C663 C 0.01698 1.00527 0.45185 0.0
H664 H 0.09528 0.01332 0.50785 0.0
H665 H 1.00287 1.00299 0.44829 0.0
H666 H 0.05308 0.99879 0.41273 0.0
H667 H 0.11595 1.0052 0.48443 0.0
H668 H 0.01524 0.01138 0.48222 0.0
H669 H 0.10414 0.08887 0.58996 0.0
H670 H 0.02256 0.99977 0.42221 0.0
H671 H 0.00778 0.07069 0.53517 0.0
H672 H 0.09043 0.0793 0.55668 0.0
H673 H 0.98765 0.07709 0.55986 0.0
H674 H 0.08405 0.99923 0.42263 0.0
H675 H 0.08567 0.09223 0.61722 0.0
H676 H 0.05546 0.09159 0.62836 0.0
H677 H 0.1075 1.00107 0.44939 0.0
H678 H 0.02362 0.08836 0.62013 0.0
N679 N 0.06395 0.07629 0.56442 0.0
C680 C 0.08198 0.08056 0.56819 0.0
C681 C 0.07946 0.08784 0.6025 0.0
C682 C 0.06112 0.08459 0.59856 0.0
C683 C 0.08993 0.08606 0.5872 0.0
C684 C 0.05373 0.07894 0.57913 0.0
H685 H 0.99823 0.08326 0.59458 0.0
N686 N 0.02974 0.07288 0.5556 0.0
C687 C 1.00116 0.07698 0.56421 0.0
C688 C 0.03596 0.07719 0.57456 0.0
C689 C 0.01269 0.07343 0.55023 0.0
C690 C 0.00718 0.08045 0.58379 0.0
C691 C 0.02487 0.08091 0.58919 0.0
O692 O 0.04037 0.08915 0.52382 0.0
O693 O 0.04754 0.04916 0.50466 0.0
O694 O 0.07589 0.04399 0.49885 0.0
O695 O 0.07641 0.0694 0.52463 0.0
O696 O 0.0276 0.06256 0.51124 0.0
O697 O 0.0672 0.09414 0.53656 0.0
O698 O 0.06217 0.99938 0.51838 0.0
O699 O 0.05739 0.04028 0.53627 0.0
O700 O 0.03013 0.04427 0.5428 0.0
O701 O 0.02785 0.02069 0.51518 0.0
O702 O 0.07691 0.02638 0.53009 0.0
O703 O 0.03629 0.99572 0.50379 0.0
C704 C 0.03318 0.05213 0.49731 0.0
C705 C 0.05477 0.12143 0.53748 0.0
C706 C 0.059 0.15505 0.53387 0.0
C707 C 0.06063 0.13605 0.52713 0.0
C708 C 0.05155 0.15936 0.55132 0.0
C709 C 0.04756 0.12587 0.555 0.0
C710 C 0.04603 0.14483 0.56191 0.0
C711 C 0.08333 0.0613 0.50946 0.0
C712 C 0.05545 0.10161 0.52878 0.0
C713 C 0.03194 0.0856 0.60865 0.0
C714 C 0.05006 0.08744 0.61333 0.0
C715 C 0.0717 0.03741 0.54382 0.0
C716 C 0.04775 0.96782 0.50247 0.0
C717 C 0.04663 0.95364 0.51377 0.0
C718 C 0.04672 0.93446 0.50543 0.0
C719 C 0.04798 0.92962 0.48546 0.0
C720 C 0.04915 0.96292 0.48258 0.0
C721 C 0.04929 0.94385 0.47415 0.0
C722 C 0.02151 0.02807 0.53111 0.0
C723 C 0.04708 0.98743 0.51199 0.0
H724 H 0.06595 0.13246 0.51342 0.0
H725 H 0.05011 0.17392 0.55677 0.0
H726 H 0.04294 0.11471 0.56314 0.0
H727 H 0.04036 0.14824 0.57538 0.0
H728 H 0.04528 0.95749 0.52909 0.0
H729 H 0.04807 0.91492 0.47867 0.0
H730 H 0.04999 0.9737 0.47362 0.0
H731 H 0.05033 0.94006 0.45879 0.0
Tb732 Tb 0.32263 0.80907 0.77092 0.0
C733 C 0.27416 0.75122 0.80953 0.0
C734 C 0.28105 0.72045 0.79722 0.0
C735 C 0.26885 0.72557 0.82812 0.0
C736 C 0.28092 0.73967 0.79562 0.0
C737 C 0.26763 0.74417 0.82574 0.0
C738 C 0.27545 0.71367 0.8138 0.0
C739 C 0.25669 0.77308 0.8344 0.0
N740 N 0.27252 0.76874 0.80625 0.0
C741 C 0.26322 0.77935 0.81802 0.0
C742 C 0.25917 0.75557 0.83848 0.0
Tb743 Tb 0.28321 0.77767 0.77873 0.0
N744 N 0.28545 0.7465 0.77949 0.0
C745 C 0.2889 0.7342 0.76377 0.0
C746 C 0.2857 0.70829 0.78159 0.0
C747 C 0.28946 0.71514 0.76472 0.0
H748 H 0.26101 0.79286 0.81515 0.0
H749 H 0.29259 0.70568 0.75234 0.0
H750 H 0.2754 0.69899 0.81532 0.0
H751 H 0.24971 0.78177 0.84385 0.0
H752 H 0.29158 0.73903 0.75045 0.0
H753 H 0.31146 0.8806 0.7964 0.0
H754 H 0.28558 0.69334 0.78199 0.0
H755 H 0.34472 0.79408 0.73417 0.0
H756 H 0.31465 0.84809 0.79943 0.0
H757 H 0.35435 0.8047 0.70455 0.0
H758 H 0.26399 0.71992 0.84051 0.0
H759 H 0.31566 0.89164 0.76547 0.0
H760 H 0.32476 0.8854 0.73178 0.0
H761 H 0.25394 0.75066 0.85107 0.0
H762 H 0.33666 0.8647 0.7067 0.0
N763 N 0.3198 0.84002 0.77008 0.0
C764 C 0.31645 0.8525 0.78574 0.0
C765 C 0.31697 0.87721 0.76664 0.0
C766 C 0.32179 0.86501 0.75116 0.0
C767 C 0.31467 0.87107 0.78414 0.0
C768 C 0.32327 0.84635 0.75344 0.0
H769 H 0.3482 0.83478 0.69665 0.0
N770 N 0.33241 0.81758 0.74292 0.0
C771 C 0.34732 0.81317 0.71413 0.0
C772 C 0.32993 0.83477 0.73937 0.0
C773 C 0.34175 0.80718 0.73099 0.0
C774 C 0.3438 0.83016 0.70969 0.0
C775 C 0.33532 0.84141 0.72257 0.0
O776 O 0.34777 0.80381 0.77679 0.0
O777 O 0.31183 0.78098 0.77896 0.0
O778 O 0.29796 0.78768 0.80733 0.0
O779 O 0.31638 0.81541 0.80092 0.0
O780 O 0.33017 0.78175 0.75956 0.0
O781 O 0.34237 0.8312 0.78857 0.0
O782 O 0.25729 0.78157 0.77497 0.0
O783 O 0.29401 0.80582 0.7709 0.0
O784 O 0.30774 0.79935 0.7426 0.0
O785 O 0.28958 0.77135 0.74857 0.0
O786 O 0.2753 0.80477 0.78971 0.0
O787 O 0.26492 0.75752 0.75769 0.0
C788 C 0.32083 0.77034 0.7691 0.0
C789 C 0.37151 0.83068 0.78055 0.0
C790 C 0.40302 0.83148 0.77925 0.0
C791 C 0.3867 0.82485 0.78635 0.0
C792 C 0.40383 0.84455 0.76651 0.0
C793 C 0.37273 0.84402 0.76821 0.0
C794 C 0.38884 0.85091 0.76126 0.0
C795 C 0.30918 0.80474 0.8131 0.0
C796 C 0.35442 0.82127 0.78629 0.0
C797 C 0.3328 0.85944 0.71963 0.0
C798 C 0.32602 0.87122 0.7339 0.0
C799 C 0.28474 0.81632 0.78047 0.0
C800 C 0.23514 0.75308 0.76493 0.0
C801 C 0.21945 0.7579 0.75919 0.0
C802 C 0.20293 0.74652 0.76165 0.0
C803 C 0.20234 0.73033 0.77032 0.0
C804 C 0.23439 0.73677 0.77338 0.0
C805 C 0.21802 0.7255 0.77612 0.0
C806 C 0.29693 0.78217 0.73656 0.0
C807 C 0.25197 0.76567 0.76215 0.0
H808 H 0.38559 0.81497 0.79633 0.0
H809 H 0.41593 0.84967 0.76027 0.0
H810 H 0.36125 0.84891 0.76373 0.0
H811 H 0.38965 0.86098 0.75149 0.0
H812 H 0.22016 0.7707 0.75294 0.0
H813 H 0.18979 0.72122 0.77229 0.0
H814 H 0.24634 0.73272 0.77781 0.0
H815 H 0.21748 0.71294 0.78266 0.0
Tb816 Tb 0.56209 0.02075 0.04269 0.0
C817 C 0.5097 0.04793 0.99175 0.0
C818 C 0.48474 0.02036 0.98329 0.0
C819 C 0.48013 0.053 0.98603 0.0
C820 C 0.503 0.02822 0.98836 0.0
C821 C 0.49846 0.0606 0.99024 0.0
C822 C 0.47328 0.03288 0.98258 0.0
C823 C 0.5244 0.08707 0.99568 0.0
N824 N 0.52745 0.0546 0.99572 0.0
C825 C 0.535 0.07386 0.99695 0.0
C826 C 0.50602 0.08045 0.99255 0.0
Tb827 Tb 0.54367 0.03204 0.99868 0.0
N828 N 0.51457 0.01671 0.98912 0.0
C829 C 0.50881 0.99702 0.98341 0.0
C830 C 0.47866 1.0002 0.97861 0.0
C831 C 0.4908 0.98849 0.97835 0.0
H832 H 0.54917 0.07919 0.99952 0.0
H833 H 0.48629 0.97288 0.97437 0.0
H834 H 0.45917 0.02715 0.97892 0.0
H835 H 0.53042 0.10235 0.99716 0.0
H836 H 0.51796 0.98771 0.98327 0.0
H837 H 0.6186 0.07843 0.07387 0.0
H838 H 0.46472 0.99356 0.97472 0.0
H839 H 0.55565 0.97293 0.03791 0.0
H840 H 0.58787 0.06449 0.06013 0.0
H841 H 0.57342 0.94919 0.04152 0.0
H842 H 0.47122 0.0625 0.98499 0.0
H843 H 0.63914 0.05693 0.07676 0.0
H844 H 0.64432 0.02337 0.07164 0.0
H845 H 0.49785 0.0907 0.99153 0.0
H846 H 0.63204 0.98811 0.06267 0.0
N847 N 0.59085 0.03534 0.05437 0.0
C848 C 0.59662 0.0549 0.061 0.0
C849 C 0.62572 0.05083 0.07026 0.0
C850 C 0.61965 0.03082 0.06399 0.0
C851 C 0.61414 0.06293 0.06882 0.0
C852 C 0.60188 0.02344 0.05624 0.0
H853 H 0.60554 0.9603 0.05165 0.0
N854 N 0.57751 0.99745 0.04542 0.0
C855 C 0.57967 0.96451 0.04435 0.0
C856 C 0.59497 1.00376 0.05152 0.0
C857 C 0.56962 0.97807 0.04238 0.0
C858 C 0.5978 0.97082 0.05 0.0
C859 C 0.60563 0.99069 0.05396 0.0
O860 O 0.54902 0.00709 0.06351 0.0
O861 O 0.53918 0.01973 0.0239 0.0
O862 O 0.53581 0.05029 0.02292 0.0
O863 O 0.55752 0.05047 0.04732 0.0
O864 O 0.53829 0.99685 0.03697 0.0
O865 O 0.56145 0.03772 0.06996 0.0
O866 O 0.55754 0.04473 0.9778 0.0
O867 O 0.56671 0.0334 0.01764 0.0
O868 O 0.57138 1.00397 0.01808 0.0
O869 O 0.54872 1.00274 0.99452 0.0
O870 O 0.56731 0.05611 0.00406 0.0
O871 O 0.5418 0.01535 0.97072 0.0
C872 C 0.52921 1.00409 0.02578 0.0
C873 C 0.55909 0.0214 0.09601 0.0
C874 C 0.55319 0.02212 0.12959 0.0
C875 C 0.54777 0.02313 0.11057 0.0
C876 C 0.57019 0.01919 0.13375 0.0
C877 C 0.57598 0.01847 0.10031 0.0
C878 C 0.58148 0.01735 0.11915 0.0
C879 C 0.54469 0.05755 0.04014 0.0
C880 C 0.55286 0.023 0.07658 0.0
C881 C 0.62359 0.9979 0.06079 0.0
C882 C 0.63058 0.01796 0.06588 0.0
C883 C 0.57634 0.04926 0.01572 0.0
C884 C 0.54529 0.03305 0.94566 0.0
C885 C 0.55677 0.03346 0.93117 0.0
C886 C 0.55175 0.03764 0.91332 0.0
C887 C 0.53496 0.04141 0.91011 0.0
C888 C 0.52849 0.03666 0.94232 0.0
C889 C 0.52337 0.0408 0.92455 0.0
C890 C 0.56239 0.99654 1.00089 0.0
C891 C 0.55159 0.02946 0.96425 0.0
H892 H 0.53463 0.0251 0.10699 0.0
H893 H 0.57485 0.01855 0.1483 0.0
H894 H 0.58486 0.0171 0.08922 0.0
H895 H 0.59455 0.01516 0.12247 0.0
H896 H 0.56985 0.03096 0.934 0.0
H897 H 0.53078 0.04469 0.89645 0.0
H898 H 0.51946 0.03638 0.95339 0.0
H899 H 0.51042 0.04364 0.92199 0.0
Tb900 Tb 0.33002 0.32357 0.29657 0.0
C901 C 0.25922 0.26541 0.25019 0.0
C902 C 0.24548 0.24695 0.27276 0.0
C903 C 0.23029 0.24343 0.24092 0.0
C904 C 0.25995 0.2601 0.26777 0.0
C905 C 0.24414 0.25769 0.23671 0.0
C906 C 0.23113 0.23779 0.25884 0.0
C907 C 0.25786 0.27824 0.21579 0.0
N908 N 0.2732 0.27863 0.24655 0.0
C909 C 0.27274 0.28488 0.22933 0.0
C910 C 0.24353 0.26441 0.21939 0.0
Tb911 Tb 0.29909 0.28372 0.26639 0.0
N912 N 0.27422 0.26923 0.28056 0.0
C913 C 0.27255 0.26901 0.29983 0.0
C914 C 0.24551 0.2442 0.2918 0.0
C915 C 0.2586 0.25616 0.30561 0.0
H916 H 0.28415 0.29442 0.22548 0.0
H917 H 0.25798 0.25563 0.32076 0.0
H918 H 0.22028 0.22697 0.26204 0.0
H919 H 0.25771 0.28334 0.20229 0.0
H920 H 0.28189 0.27848 0.31111 0.0
H921 H 0.37359 0.33928 0.24124 0.0
H922 H 0.23493 0.23391 0.29621 0.0
H923 H 0.34001 0.31905 0.34201 0.0
H924 H 0.34542 0.3328 0.25456 0.0
H925 H 0.36526 0.31476 0.36177 0.0
H926 H 0.21881 0.2369 0.23057 0.0
H927 H 0.40066 0.33635 0.25928 0.0
H928 H 0.41499 0.33062 0.28936 0.0
H929 H 0.23216 0.25893 0.2087 0.0
H930 H 0.41252 0.3222 0.32153 0.0
N931 N 0.35558 0.32669 0.28102 0.0
C932 C 0.35679 0.33196 0.26332 0.0
C933 C 0.38814 0.33364 0.26548 0.0
C934 C 0.38702 0.32846 0.28355 0.0
C935 C 0.37294 0.33542 0.25534 0.0
C936 C 0.37039 0.32502 0.29099 0.0
H937 H 0.39395 0.31547 0.34827 0.0
N938 N 0.35308 0.31904 0.31619 0.0
C939 C 0.36648 0.31608 0.34686 0.0
C940 C 0.36902 0.32065 0.30906 0.0
C941 C 0.35205 0.31811 0.33539 0.0
C942 C 0.38262 0.31651 0.33921 0.0
C943 C 0.38421 0.31952 0.32034 0.0
O944 O 0.33673 0.34552 0.32155 0.0
O945 O 0.30262 0.31027 0.28664 0.0
O946 O 0.29501 0.31112 0.25895 0.0
O947 O 0.32125 0.33361 0.27067 0.0
O948 O 0.30809 0.32338 0.31497 0.0
O949 O 0.3331 0.35266 0.29376 0.0
O950 O 0.31002 0.28471 0.23987 0.0
O951 O 0.32665 0.29943 0.27288 0.0
O952 O 0.32415 0.29926 0.31219 0.0
O953 O 0.305 0.27202 0.29218 0.0
O954 O 0.32056 0.26975 0.27171 0.0
O955 O 0.29475 0.25786 0.24576 0.0
C956 C 0.29549 0.31415 0.30189 0.0
C957 C 0.32286 0.37077 0.32006 0.0
C958 C 0.29382 0.37829 0.31847 0.0
C959 C 0.30559 0.36721 0.31114 0.0
C960 C 0.29936 0.39245 0.33551 0.0
C961 C 0.32819 0.38491 0.33698 0.0
C962 C 0.3164 0.3956 0.34474 0.0
C963 C 0.30676 0.32735 0.25838 0.0
C964 C 0.33501 0.35905 0.31233 0.0
C965 C 0.4007 0.3226 0.31291 0.0
C966 C 0.40211 0.32729 0.29462 0.0
C967 C 0.33335 0.285 0.27379 0.0
C968 C 0.31776 0.25593 0.2253 0.0
C969 C 0.32248 0.24085 0.23296 0.0
C970 C 0.33495 0.23134 0.22462 0.0
C971 C 0.34254 0.23684 0.20832 0.0
C972 C 0.32561 0.2614 0.20913 0.0
C973 C 0.33794 0.25188 0.2007 0.0
C974 C 0.31462 0.28108 0.30883 0.0
C975 C 0.30464 0.26602 0.23382 0.0
H976 H 0.30139 0.35591 0.29834 0.0
H977 H 0.29081 0.40158 0.34138 0.0
H978 H 0.3414 0.38758 0.3442 0.0
H979 H 0.32057 0.40659 0.35776 0.0
H980 H 0.31666 0.23664 0.24557 0.0
H981 H 0.35196 0.22945 0.20145 0.0
H982 H 0.32215 0.27301 0.20301 0.0
H983 H 0.34392 0.25612 0.1882 0.0
Tb984 Tb 0.5463 0.5636 0.03582 0.0
C985 C 0.56971 0.50853 0.97036 0.0
C986 C 0.54552 0.49874 0.945 0.0
C987 C 0.57529 0.49742 0.93719 0.0
C988 C 0.55206 0.50616 0.96455 0.0
C989 C 0.58156 0.50407 0.95679 0.0
C990 C 0.55726 0.49456 0.93134 0.0
C991 C 0.6045 0.51108 0.98321 0.0
N992 N 0.57508 0.51421 0.98951 0.0
C993 C 0.59218 0.51498 0.99613 0.0
C994 C 0.59921 0.50573 0.96342 0.0
Tb995 Tb 0.55381 0.51981 0.00969 0.0
N996 N 0.5411 0.50974 0.97831 0.0
C997 C 0.52319 0.50526 0.97344 0.0
C998 C 0.52729 0.49493 0.93993 0.0
C999 C 0.51608 0.49817 0.95423 0.0
H1000 H 0.59661 0.51904 0.01134 0.0
H1001 H 0.50192 0.49497 0.95052 0.0
H1002 H 0.5525 0.48859 0.91632 0.0
H1003 H 0.61806 0.51211 0.98854 0.0
H1004 H 0.51416 0.50729 0.98421 0.0
H1005 H 0.59775 0.58563 0.09566 0.0
H1006 H 0.52165 0.4889 0.92518 0.0
H1007 H 0.5042 0.56683 0.03445 0.0
H1008 H 0.58591 0.57686 0.06152 0.0
H1009 H 0.48243 0.5721 0.05752 0.0
H1010 H 0.58416 0.49385 0.92655 0.0
H1011 H 0.57745 0.58717 0.12129 0.0
H1012 H 0.54638 0.5856 0.13019 0.0
H1013 H 0.60873 0.5025 0.95346 0.0
H1014 H 0.51491 0.58217 0.11978 0.0
N1015 N 0.55886 0.5726 0.06733 0.0
C1016 C 0.57675 0.57742 0.07237 0.0
C1017 C 0.57211 0.58322 0.10624 0.0
C1018 C 0.55392 0.57965 0.10103 0.0
C1019 C 0.5836 0.58244 0.09182 0.0
C1020 C 0.54769 0.57448 0.08122 0.0
H1021 H 0.491 0.57755 0.09268 0.0
N1022 N 0.52508 0.56884 0.05619 0.0
C1023 C 0.4958 0.57221 0.06277 0.0
C1024 C 0.53014 0.57265 0.07543 0.0
C1025 C 0.50826 0.56924 0.0497 0.0
C1026 C 0.50066 0.57522 0.08259 0.0
C1027 C 0.5181 0.57576 0.08917 0.0
O1028 O 0.53753 0.58616 0.02597 0.0
O1029 O 0.5453 0.54601 0.00688 0.0
O1030 O 0.57287 0.54304 1.00099 0.0
O1031 O 0.57378 0.56658 0.02839 0.0
O1032 O 0.52503 0.55897 0.01223 0.0
O1033 O 0.56413 0.59071 0.0392 0.0
O1034 O 0.56267 0.4976 0.02008 0.0
O1035 O 0.5549 0.5374 0.03866 0.0
O1036 O 0.52685 0.54044 0.04407 0.0
O1037 O 0.52624 0.51676 0.01691 0.0
O1038 O 0.57527 0.52465 0.03293 0.0
O1039 O 0.53594 0.49281 0.00702 0.0
C1040 C 0.53104 0.54842 0.99879 0.0
C1041 C 0.55171 0.61802 0.04137 0.0
C1042 C 0.55306 0.65155 0.03881 0.0
C1043 C 0.55336 0.63247 0.03034 0.0
C1044 C 0.55109 0.65602 0.05865 0.0
C1045 C 0.5496 0.62254 0.06111 0.0
C1046 C 0.54929 0.64153 0.06969 0.0
C1047 C 0.5807 0.55959 0.0127 0.0
C1048 C 0.55255 0.59854 0.03168 0.0
C1049 C 0.52398 0.5799 0.10897 0.0
C1050 C 0.54189 0.58184 0.11489 0.0
C1051 C 0.56931 0.53505 0.04651 0.0
C1052 C 0.54814 0.46543 0.00621 0.0
C1053 C 0.54667 0.45192 0.01828 0.0
C1054 C 0.54716 0.43262 0.01103 0.0
C1055 C 0.54894 0.42693 0.99126 0.0
C1056 C 0.55003 0.45972 0.98656 0.0
C1057 C 0.5504 0.44047 0.97913 0.0
C1058 C 0.51918 0.52381 0.03245 0.0
C1059 C 0.54755 0.48526 0.01491 0.0
H1060 H 0.55528 0.62889 0.01514 0.0
H1061 H 0.55081 0.67063 0.06556 0.0
H1062 H 0.54832 0.61153 0.06985 0.0
H1063 H 0.54771 0.64503 0.08495 0.0
H1064 H 0.54489 0.45646 0.03339 0.0
H1065 H 0.54941 0.41215 0.98527 0.0
H1066 H 0.55116 0.47002 0.97704 0.0
H1067 H 0.55185 0.43603 0.96395 0.0
Tb1068 Tb 0.82289 0.30984 0.26587 0.0
C1069 C 0.78071 0.25397 0.31014 0.0
C1070 C 0.78966 0.22423 0.29876 0.0
C1071 C 0.78075 0.23079 0.33123 0.0
C1072 C 0.78712 0.24239 0.29601 0.0
C1073 C 0.77682 0.24806 0.32769 0.0
C1074 C 0.78716 0.21885 0.31674 0.0
C1075 C 0.76278 0.27485 0.33532 0.0
N1076 N 0.7766 0.27014 0.3058 0.0
C1077 C 0.76669 0.27986 0.31754 0.0
C1078 C 0.76822 0.25912 0.34062 0.0
Tb1079 Tb 0.78474 0.27842 0.2771 0.0
N1080 N 0.78886 0.24798 0.27878 0.0
C1081 C 0.79119 0.23496 0.26301 0.0
C1082 C 0.79359 0.21158 0.28303 0.0
C1083 C 0.7939 0.21678 0.26495 0.0
H1084 H 0.76219 0.29189 0.31353 0.0
H1085 H 0.79636 0.20688 0.25251 0.0
H1086 H 0.78933 0.20511 0.31925 0.0
H1087 H 0.75549 0.28306 0.34485 0.0
H1088 H 0.79164 0.23872 0.24894 0.0
H1089 H 0.81466 0.38256 0.29076 0.0
H1090 H 0.79566 0.1975 0.2845 0.0
H1091 H 0.83915 0.29082 0.22582 0.0
H1092 H 0.81627 0.34963 0.29389 0.0
H1093 H 0.84645 0.29961 0.19488 0.0
H1094 H 0.77809 0.22611 0.34473 0.0
H1095 H 0.81904 0.39303 0.25969 0.0
H1096 H 0.82608 0.38532 0.22518 0.0
H1097 H 0.76501 0.25511 0.35429 0.0
H1098 H 0.83448 0.36266 0.199 0.0
N1099 N 0.82033 0.34068 0.26433 0.0
C1100 C 0.81783 0.35368 0.28001 0.0
C1101 C 0.81927 0.3783 0.26072 0.0
C1102 C 0.8227 0.36531 0.24495 0.0
C1103 C 0.81696 0.3725 0.27836 0.0
C1104 C 0.82328 0.34642 0.2473 0.0
H1105 H 0.84234 0.33076 0.18765 0.0
N1106 N 0.8301 0.31642 0.23626 0.0
C1107 C 0.84132 0.30936 0.20537 0.0
C1108 C 0.82839 0.33387 0.23275 0.0
C1109 C 0.8371 0.30444 0.22308 0.0
C1110 C 0.83892 0.32692 0.20132 0.0
C1111 C 0.8327 0.33959 0.21521 0.0
O1112 O 0.84871 0.30554 0.26781 0.0
O1113 O 0.81331 0.28234 0.27568 0.0
O1114 O 0.79968 0.29145 0.30511 0.0
O1115 O 0.81892 0.31762 0.29648 0.0
O1116 O 0.83045 0.28251 0.25504 0.0
O1117 O 0.84294 0.33152 0.28355 0.0
O1118 O 0.75853 0.28163 0.27412 0.0
O1119 O 0.79459 0.30615 0.26822 0.0
O1120 O 0.80514 0.30027 0.2394 0.0
O1121 O 0.78986 0.27145 0.24652 0.0
O1122 O 0.77611 0.30544 0.28729 0.0
O1123 O 0.7658 0.25675 0.25811 0.0
C1124 C 0.8221 0.27161 0.26563 0.0
C1125 C 0.87167 0.33334 0.27318 0.0
C1126 C 0.90349 0.33687 0.27173 0.0
C1127 C 0.88752 0.32863 0.27858 0.0
C1128 C 0.9033 0.35048 0.25973 0.0
C1129 C 0.87177 0.34709 0.26145 0.0
C1130 C 0.88756 0.35565 0.25482 0.0
C1131 C 0.81135 0.3083 0.30945 0.0
C1132 C 0.85522 0.32237 0.27883 0.0
C1133 C 0.83127 0.358 0.21239 0.0
C1134 C 0.82639 0.37089 0.22728 0.0
C1135 C 0.78543 0.31681 0.27772 0.0
C1136 C 0.73692 0.25254 0.26806 0.0
C1137 C 0.72069 0.25711 0.26422 0.0
C1138 C 0.705 0.24621 0.26928 0.0
C1139 C 0.70572 0.23041 0.27816 0.0
C1140 C 0.73755 0.23685 0.27711 0.0
C1141 C 0.72196 0.22583 0.2821 0.0
C1142 C 0.7952 0.28256 0.23396 0.0
C1143 C 0.75288 0.26482 0.26284 0.0
H1144 H 0.88724 0.31834 0.28808 0.0
H1145 H 0.9152 0.35692 0.25385 0.0
H1146 H 0.85971 0.35106 0.25726 0.0
H1147 H 0.88756 0.36612 0.24558 0.0
H1148 H 0.72029 0.26912 0.25701 0.0
H1149 H 0.6938 0.22174 0.28218 0.0
H1150 H 0.74998 0.2331 0.28027 0.0
H1151 H 0.72247 0.21372 0.28905 0.0
Tb1152 Tb 0.06683 0.54133 0.55094 0.0
C1153 C 0.01118 0.56512 0.50034 0.0
C1154 C 0.98666 0.53706 0.49216 0.0
C1155 C 0.98133 0.56934 0.49436 0.0
C1156 C 0.00486 0.54536 0.49726 0.0
C1157 C 0.99957 0.5774 0.49868 0.0
C1158 C 0.97488 0.54918 0.49108 0.0
C1159 C 0.02501 0.60447 0.50438 0.0
N1160 N 0.02887 0.57226 0.50436 0.0
C1161 C 0.03598 0.59165 0.50568 0.0
C1162 C 0.0067 0.59735 0.50103 0.0
Tb1163 Tb 0.04577 0.55023 0.50713 0.0
N1164 N 0.01669 0.53422 0.49849 0.0
C1165 C 0.01121 0.51446 0.49357 0.0
C1166 C 0.98093 0.51686 0.48789 0.0
C1167 C 0.9933 0.50551 0.48844 0.0
H1168 H 0.05009 0.59742 0.50839 0.0
H1169 H 0.98905 0.48986 0.48495 0.0
H1170 H 0.96082 0.54309 0.48739 0.0
H1171 H 0.03069 0.61984 0.50596 0.0
H1172 H 0.0205 0.5054 0.49401 0.0
H1173 H 0.12308 0.60084 0.57765 0.0
H1174 H 0.96708 0.5099 0.48379 0.0
H1175 H 0.06173 0.49394 0.54858 0.0
H1176 H 0.09202 0.58578 0.56602 0.0
H1177 H 0.08052 0.47124 0.55222 0.0
H1178 H 0.97216 0.57853 0.49316 0.0
H1179 H 0.14467 0.58032 0.57965 0.0
H1180 H 0.15077 0.54714 0.5749 0.0
H1181 H 0.99823 0.60729 0.49995 0.0
H1182 H 0.13921 0.51172 0.56756 0.0
N1183 N 0.09575 0.55692 0.56066 0.0
C1184 C 0.10121 0.5766 0.56656 0.0
C1185 C 0.13105 0.57369 0.57412 0.0
C1186 C 0.12533 0.55356 0.56862 0.0
C1187 C 0.11891 0.58526 0.57317 0.0
C1188 C 0.10734 0.54553 0.56211 0.0
H1189 H 0.11295 0.48321 0.55928 0.0
N1190 N 0.08324 0.51885 0.55335 0.0
C1191 C 0.08647 0.48649 0.55366 0.0
C1192 C 0.10087 0.52575 0.55818 0.0
C1193 C 0.07583 0.4995 0.55175 0.0
C1194 C 0.10476 0.49333 0.55769 0.0
C1195 C 0.11216 0.51324 0.56038 0.0
O1196 O 0.05412 0.52853 0.57236 0.0
O1197 O 0.04286 0.53912 0.53323 0.0
O1198 O 0.03797 0.56832 0.53155 0.0
O1199 O 0.0612 0.5706 0.55498 0.0
O1200 O 0.04346 0.51702 0.54722 0.0
O1201 O 0.06888 0.55838 0.57886 0.0
O1202 O 0.0582 0.5627 0.48529 0.0
O1203 O 0.06986 0.55281 0.525 0.0
O1204 O 0.07501 0.52352 0.52626 0.0
O1205 O 0.05119 0.52107 0.50362 0.0
O1206 O 0.06873 0.57488 0.51094 0.0
O1207 O 0.04365 0.53278 0.47949 0.0
C1208 C 0.03354 0.5235 0.53615 0.0
C1209 C 0.06636 0.54104 0.60438 0.0
C1210 C 0.06049 0.53904 0.6376 0.0
C1211 C 0.05637 0.54429 0.61994 0.0
C1212 C 0.07552 0.53137 0.63964 0.0
C1213 C 0.08129 0.53345 0.60662 0.0
C1214 C 0.08594 0.52883 0.62429 0.0
C1215 C 0.04752 0.57665 0.5482 0.0
C1216 C 0.05974 0.54409 0.58566 0.0
C1217 C 0.13028 0.52107 0.56591 0.0
C1218 C 0.13686 0.54123 0.57009 0.0
C1219 C 0.07871 0.56877 0.52228 0.0
C1220 C 0.04502 0.54965 0.45365 0.0
C1221 C 0.05654 0.55287 0.43948 0.0
C1222 C 0.05024 0.55524 0.42128 0.0
C1223 C 0.03214 0.55439 0.4174 0.0
C1224 C 0.02701 0.54902 0.44974 0.0
C1225 C 0.02063 0.55141 0.43165 0.0
C1226 C 0.06487 0.51487 0.51001 0.0
C1227 C 0.05238 0.54699 0.47224 0.0
H1228 H 0.04513 0.55061 0.618 0.0
H1229 H 0.07903 0.52686 0.65285 0.0
H1230 H 0.08912 0.5308 0.59472 0.0
H1231 H 0.09739 0.5228 0.62595 0.0
H1232 H 0.07042 0.55309 0.44252 0.0
H1233 H 0.02696 0.55611 0.40343 0.0
H1234 H 0.01792 0.54658 0.46055 0.0
H1235 H 0.00671 0.55085 0.42863 0.0
Tb1236 Tb 0.78039 0.79853 0.26653 0.0
C1237 C 0.83543 0.76398 0.3041 0.0
C1238 C 0.84743 0.78745 0.33329 0.0
C1239 C 0.84608 0.75328 0.33233 0.0
C1240 C 0.83942 0.7828 0.3141 0.0
C1241 C 0.83923 0.74902 0.31281 0.0
C1242 C 0.85016 0.77251 0.34258 0.0
C1243 C 0.83144 0.72746 0.28168 0.0
N1244 N 0.82925 0.76066 0.2852 0.0
C1245 C 0.82797 0.74284 0.2737 0.0
C1246 C 0.8368 0.73047 0.30141 0.0
Tb1247 Tb 0.82298 0.78645 0.27345 0.0
N1248 N 0.83692 0.79674 0.30438 0.0
C1249 C 0.84383 0.81584 0.31254 0.0
C1250 C 0.85322 0.80698 0.34219 0.0
C1251 C 0.85176 0.82124 0.3316 0.0
H1252 H 0.8237 0.74027 0.25847 0.0
H1253 H 0.85664 0.83641 0.33815 0.0
H1254 H 0.85607 0.77574 0.35741 0.0
H1255 H 0.82993 0.71328 0.27262 0.0
H1256 H 0.84274 0.82715 0.30477 0.0
H1257 H 0.74566 0.74982 0.20188 0.0
H1258 H 0.85939 0.81119 0.35693 0.0
H1259 H 0.78096 0.84499 0.28272 0.0
H1260 H 0.76122 0.75849 0.2345 0.0
H1261 H 0.77404 0.87228 0.26981 0.0
H1262 H 0.84888 0.74197 0.3394 0.0
H1263 H 0.74062 0.77543 0.18476 0.0
H1264 H 0.74269 0.81098 0.18569 0.0
H1265 H 0.83958 0.71857 0.30754 0.0
H1266 H 0.75096 0.8445 0.20399 0.0
N1267 N 0.76627 0.789 0.23573 0.0
C1268 C 0.75949 0.76998 0.22725 0.0
C1269 C 0.7479 0.77943 0.19896 0.0
C1270 C 0.75382 0.79887 0.20816 0.0
C1271 C 0.75058 0.76492 0.20865 0.0
C1272 C 0.763 0.8032 0.22679 0.0
H1273 H 0.76242 0.86753 0.23555 0.0
N1274 N 0.77417 0.82488 0.2558 0.0
C1275 C 0.77212 0.85821 0.26044 0.0
C1276 C 0.76716 0.8219 0.23722 0.0
C1277 C 0.776 0.84261 0.26771 0.0
C1278 C 0.76565 0.85549 0.24108 0.0
C1279 C 0.76268 0.83705 0.22932 0.0
O1280 O 0.76411 0.80772 0.28754 0.0
O1281 O 0.80106 0.79538 0.28668 0.0
O1282 O 0.80297 0.76296 0.28171 0.0
O1283 O 0.77713 0.76679 0.26591 0.0
O1284 O 0.78969 0.81836 0.29409 0.0
O1285 O 0.75566 0.78016 0.26838 0.0
O1286 O 0.8395 0.77674 0.25298 0.0
O1287 O 0.80226 0.78945 0.25318 0.0
O1288 O 0.80027 0.82182 0.2579 0.0
O1289 O 0.82611 0.81815 0.27383 0.0
O1290 O 0.81358 0.76643 0.24596 0.0
O1291 O 0.84756 0.80485 0.27115 0.0
C1292 C 0.80124 0.80983 0.29983 0.0
C1293 C 0.73323 0.7957 0.2796 0.0
C1294 C 0.70333 0.7938 0.29 0.0
C1295 C 0.72069 0.79097 0.29278 0.0
C1296 C 0.69902 0.80183 0.27411 0.0
C1297 C 0.72835 0.80347 0.26387 0.0
C1298 C 0.71141 0.80659 0.26122 0.0
C1299 C 0.78605 0.75626 0.27461 0.0
C1300 C 0.75128 0.79238 0.28212 0.0
C1301 C 0.75451 0.83308 0.21035 0.0
C1302 C 0.74993 0.81398 0.19985 0.0
C1303 C 0.80198 0.77487 0.24012 0.0
C1304 C 0.8703 0.78923 0.26131 0.0
C1305 C 0.88321 0.7939 0.24849 0.0
C1306 C 0.9006 0.79136 0.25201 0.0
C1307 C 0.90457 0.78373 0.26829 0.0
C1308 C 0.87486 0.78186 0.27745 0.0
C1309 C 0.89182 0.77906 0.28085 0.0
C1310 C 0.81716 0.82861 0.26507 0.0
C1311 C 0.8522 0.79224 0.25804 0.0
H1312 H 0.72434 0.7848 0.30489 0.0
H1313 H 0.68603 0.80464 0.27169 0.0
H1314 H 0.73761 0.8071 0.25359 0.0
H1315 H 0.70785 0.81271 0.24906 0.0
H1316 H 0.87982 0.79977 0.23608 0.0
H1317 H 0.91756 0.78115 0.27127 0.0
H1318 H 0.86531 0.7783 0.28749 0.0
H1319 H 0.89513 0.77324 0.29331 0.0
Tb1320 Tb 0.80969 0.28959 0.74898 0.0
C1321 C 0.79675 0.35322 0.80702 0.0
C1322 C 0.82237 0.36474 0.83062 0.0
C1323 C 0.80291 0.38602 0.82628 0.0
C1324 C 0.81141 0.34983 0.81648 0.0
C1325 C 0.79275 0.37166 0.81135 0.0
C1326 C 0.81756 0.38245 0.83608 0.0
C1327 C 0.7694 0.36087 0.7854 0.0
N1328 N 0.78718 0.33892 0.79269 0.0
C1329 C 0.77358 0.34274 0.78185 0.0
C1330 C 0.77884 0.37531 0.80039 0.0
Tb1331 Tb 0.79229 0.30845 0.7931 0.0
N1332 N 0.8157 0.33254 0.81064 0.0
C1333 C 0.83226 0.33066 0.81667 0.0
C1334 C 0.83818 0.3617 0.83835 0.0
C1335 C 0.84345 0.3449 0.83078 0.0
H1336 H 0.76546 0.33223 0.77044 0.0
H1337 H 0.85624 0.34293 0.83571 0.0
H1338 H 0.82542 0.39377 0.84738 0.0
H1339 H 0.75864 0.36356 0.77672 0.0
H1340 H 0.83766 0.31877 0.81054 0.0
H1341 H 0.75845 0.2284 0.71153 0.0
H1342 H 0.84683 0.37258 0.84943 0.0
H1343 H 0.85329 0.29542 0.75414 0.0
H1344 H 0.7705 0.26184 0.72859 0.0
H1345 H 0.87503 0.27527 0.74872 0.0
H1346 H 0.79977 0.40007 0.83008 0.0
H1347 H 0.77771 0.20515 0.70704 0.0
H1348 H 0.80797 0.19875 0.71177 0.0
H1349 H 0.77544 0.38929 0.8032 0.0
H1350 H 0.83972 0.21138 0.72247 0.0
N1351 N 0.79667 0.25811 0.73422 0.0
C1352 C 0.77928 0.25215 0.72682 0.0
C1353 C 0.78317 0.21995 0.71458 0.0
C1354 C 0.80104 0.2262 0.72161 0.0
C1355 C 0.77229 0.23304 0.71704 0.0
C1356 C 0.80747 0.24563 0.73132 0.0
H1357 H 0.8649 0.23999 0.736 0.0
N1358 N 0.83083 0.27171 0.74545 0.0
C1359 C 0.86103 0.26866 0.74563 0.0
C1360 C 0.82517 0.25261 0.73744 0.0
C1361 C 0.84861 0.28004 0.74871 0.0
C1362 C 0.85526 0.24875 0.7385 0.0
C1363 C 0.83716 0.24055 0.73392 0.0
O1364 O 0.8265 0.3052 0.73194 0.0
O1365 O 0.80645 0.31526 0.76898 0.0
O1366 O 0.77046 0.30247 0.76997 0.0
O1367 O 0.7834 0.29492 0.74135 0.0
O1368 O 0.83124 0.31466 0.76058 0.0
O1369 O 0.80028 0.28915 0.7204 0.0
O1370 O 0.76751 0.30982 0.80286 0.0
O1371 O 0.79197 0.28457 0.77022 0.0
O1372 O 0.823 0.2799 0.77278 0.0
O1373 O 0.81328 0.29436 0.80171 0.0
O1374 O 0.78191 0.2778 0.79474 0.0
O1375 O 0.78946 0.30853 0.82246 0.0
C1376 C 0.8222 0.325 0.77055 0.0
C1377 C 0.82166 0.29264 0.69833 0.0
C1378 C 0.82542 0.2958 0.66494 0.0
C1379 C 0.81977 0.30217 0.68303 0.0
C1380 C 0.83314 0.27971 0.66243 0.0
C1381 C 0.82941 0.27665 0.6956 0.0
C1382 C 0.83512 0.27023 0.67773 0.0
C1383 C 0.76991 0.29888 0.7508 0.0
C1384 C 0.81508 0.29956 0.71673 0.0
C1385 C 0.83075 0.22095 0.72512 0.0
C1386 C 0.8127 0.21378 0.71896 0.0
C1387 C 0.78496 0.27051 0.77769 0.0
C1388 C 0.7604 0.29388 0.82875 0.0
C1389 C 0.76584 0.27856 0.83535 0.0
C1390 C 0.75423 0.26578 0.84439 0.0
C1391 C 0.73695 0.26843 0.84634 0.0
C1392 C 0.74311 0.29609 0.83078 0.0
C1393 C 0.73144 0.28336 0.83944 0.0
C1394 C 0.82353 0.28407 0.79205 0.0
C1395 C 0.77258 0.3081 0.82023 0.0
H1396 H 0.81404 0.31474 0.68534 0.0
H1397 H 0.83749 0.27436 0.64863 0.0
H1398 H 0.83106 0.26912 0.70715 0.0
H1399 H 0.84104 0.25783 0.6757 0.0
H1400 H 0.77911 0.27664 0.83348 0.0
H1401 H 0.72774 0.2593 0.85364 0.0
H1402 H 0.73867 0.3078 0.82581 0.0
H1403 H 0.71815 0.28527 0.8411 0.0
Tb1404 Tb 0.82723 0.80613 0.77345 0.0
C1405 C 0.74983 0.77044 0.76627 0.0
C1406 C 0.74186 0.74221 0.78094 0.0
C1407 C 0.72147 0.76313 0.77958 0.0
C1408 C 0.75403 0.75436 0.77176 0.0
C1409 C 0.73311 0.77446 0.76943 0.0
C1410 C 0.7259 0.74713 0.78551 0.0
C1411 C 0.73934 0.79866 0.74979 0.0
N1412 N 0.76126 0.78086 0.75607 0.0
C1413 C 0.7557 0.79412 0.74694 0.0
C1414 C 0.72813 0.78906 0.76139 0.0
Tb1415 Tb 0.78754 0.77137 0.75194 0.0
N1416 N 0.76916 0.74949 0.76626 0.0
C1417 C 0.77177 0.73149 0.76756 0.0
C1418 C 0.74554 0.72484 0.78416 0.0
C1419 C 0.76037 0.71926 0.77704 0.0
H1420 H 0.76341 0.80134 0.73713 0.0
H1421 H 0.76298 0.70546 0.77872 0.0
H1422 H 0.7165 0.73809 0.79273 0.0
H1423 H 0.73532 0.80946 0.74283 0.0
H1424 H 0.78307 0.72676 0.76213 0.0
H1425 H 0.87596 0.79557 0.72317 0.0
H1426 H 0.73656 0.71518 0.79122 0.0
H1427 H 0.83359 0.81894 0.8219 0.0
H1428 H 0.84782 0.80128 0.73246 0.0
H1429 H 0.85444 0.81604 0.84794 0.0
H1430 H 0.70872 0.76623 0.78225 0.0
H1431 H 0.8975 0.78932 0.74691 0.0
H1432 H 0.90562 0.7867 0.78096 0.0
H1433 H 0.71541 0.79253 0.76346 0.0
H1434 H 0.89934 0.79146 0.81498 0.0
N1435 N 0.85245 0.79854 0.76195 0.0
C1436 C 0.85664 0.79863 0.74338 0.0
C1437 C 0.88499 0.79196 0.75131 0.0
C1438 C 0.881 0.79247 0.7704 0.0
C1439 C 0.87286 0.79538 0.73786 0.0
C1440 C 0.86459 0.79625 0.77544 0.0
H1441 H 0.88045 0.80272 0.84012 0.0
N1442 N 0.8463 0.80519 0.79917 0.0
C1443 C 0.85639 0.811 0.83301 0.0
C1444 C 0.86123 0.79928 0.79463 0.0
C1445 C 0.84445 0.81241 0.8181 0.0
C1446 C 0.87101 0.80342 0.82855 0.0
C1447 C 0.87393 0.79809 0.80918 0.0
O1448 O 0.82171 0.83348 0.77312 0.0
O1449 O 0.79855 0.79929 0.76966 0.0
O1450 O 0.7916 0.79873 0.74149 0.0
O1451 O 0.82175 0.80614 0.74276 0.0
O1452 O 0.8108 0.8135 0.79662 0.0
O1453 O 0.84837 0.83069 0.7766 0.0
O1454 O 0.79303 0.76549 0.72288 0.0
O1455 O 0.8162 0.77954 0.7529 0.0
O1456 O 0.82246 0.78445 0.79212 0.0
O1457 O 0.79371 0.76547 0.78097 0.0
O1458 O 0.80458 0.75103 0.75226 0.0
O1459 O 0.76782 0.75313 0.73084 0.0
C1460 C 0.79574 0.80625 0.78661 0.0
C1461 C 0.84173 0.85927 0.79368 0.0
C1462 C 0.83487 0.88956 0.80894 0.0
C1463 C 0.8326 0.87394 0.79326 0.0
C1464 C 0.84649 0.89046 0.82519 0.0
C1465 C 0.8536 0.86052 0.80987 0.0
C1466 C 0.8559 0.87605 0.82554 0.0
C1467 C 0.80626 0.80662 0.73461 0.0
C1468 C 0.8381 0.84266 0.7773 0.0
C1469 C 0.88957 0.7927 0.80402 0.0
C1470 C 0.89315 0.79002 0.78466 0.0
C1471 C 0.8195 0.76316 0.75317 0.0
C1472 C 0.77871 0.73505 0.70505 0.0
C1473 C 0.78406 0.72093 0.71365 0.0
C1474 C 0.78709 0.70411 0.70232 0.0
C1475 C 0.784 0.70113 0.6821 0.0
C1476 C 0.77556 0.73191 0.68488 0.0
C1477 C 0.77804 0.7149 0.67346 0.0
C1478 C 0.8082 0.77087 0.79348 0.0
C1479 C 0.77791 0.7537 0.71691 0.0
H1480 H 0.82334 0.87293 0.78083 0.0
H1481 H 0.84842 0.90238 0.83745 0.0
H1482 H 0.86101 0.84953 0.8105 0.0
H1483 H 0.86497 0.87687 0.83802 0.0
H1484 H 0.78659 0.72337 0.72915 0.0
H1485 H 0.78625 0.68825 0.67303 0.0
H1486 H 0.7715 0.74275 0.67798 0.0
H1487 H 0.7757 0.71256 0.65788 0.0
Tb1488 Tb 0.53283 0.52362 0.51063 0.0
C1489 C 0.5753 0.59922 0.56228 0.0
C1490 C 0.57898 0.62317 0.54199 0.0
C1491 C 0.57863 0.63327 0.57664 0.0
C1492 C 0.57617 0.60368 0.5442 0.0
C1493 C 0.57697 0.61398 0.57882 0.0
C1494 C 0.57966 0.63786 0.55823 0.0
C1495 C 0.57743 0.58991 0.59845 0.0
N1496 N 0.5741 0.58051 0.56375 0.0
C1497 C 0.57598 0.57584 0.58162 0.0
C1498 C 0.57764 0.60903 0.59705 0.0
Tb1499 Tb 0.57126 0.55824 0.53535 0.0
N1500 N 0.57569 0.58908 0.52896 0.0
C1501 C 0.57948 0.59333 0.5113 0.0
C1502 C 0.58176 0.62737 0.5237 0.0
C1503 C 0.58227 0.61241 0.50835 0.0
H1504 H 0.5758 0.56114 0.58299 0.0
H1505 H 0.58477 0.61552 0.49421 0.0
H1506 H 0.58157 0.65287 0.55679 0.0
H1507 H 0.57839 0.58599 0.61249 0.0
H1508 H 0.57989 0.58208 0.49917 0.0
H1509 H 0.51926 0.46581 0.5511 0.0
H1510 H 0.58403 0.64214 0.52141 0.0
H1511 H 0.52769 0.52099 0.463 0.0
H1512 H 0.52375 0.49931 0.54635 0.0
H1513 H 0.52511 0.49639 0.43334 0.0
H1514 H 0.57974 0.6448 0.58914 0.0
H1515 H 0.52061 0.43949 0.52385 0.0
H1516 H 0.52306 0.42907 0.48838 0.0
H1517 H 0.5789 0.61993 0.61011 0.0
H1518 H 0.52461 0.43742 0.45612 0.0
N1519 N 0.52833 0.49264 0.51665 0.0
C1520 C 0.52439 0.48817 0.53419 0.0
C1521 C 0.52264 0.45427 0.52164 0.0
C1522 C 0.52537 0.45865 0.5034 0.0
C1523 C 0.5218 0.46907 0.53702 0.0
C1524 C 0.52798 0.47816 0.50134 0.0
H1525 H 0.525 0.46246 0.43538 0.0
N1526 N 0.5297 0.50149 0.48204 0.0
C1527 C 0.52621 0.49236 0.44731 0.0
C1528 C 0.5287 0.48277 0.48333 0.0
C1529 C 0.52765 0.50629 0.46425 0.0
C1530 C 0.52622 0.47325 0.44852 0.0
C1531 C 0.52708 0.46815 0.46668 0.0
O1532 O 0.51066 0.52943 0.49644 0.0
O1533 O 0.54584 0.55417 0.5196 0.0
O1534 O 0.54927 0.56221 0.55329 0.0
O1535 O 0.52976 0.53217 0.54236 0.0
O1536 O 0.53291 0.54524 0.49247 0.0
O1537 O 0.50822 0.51651 0.52166 0.0
O1538 O 0.5933 0.55246 0.5498 0.0
O1539 O 0.55827 0.52767 0.52637 0.0
O1540 O 0.55469 0.51981 0.49236 0.0
O1541 O 0.57457 0.54956 0.50375 0.0
O1542 O 0.57113 0.53662 0.55354 0.0
O1543 O 0.59612 0.56596 0.52498 0.0
C1544 C 0.54179 0.56018 0.50451 0.0
C1545 C 0.48314 0.50929 0.49879 0.0
C1546 C 0.45239 0.50629 0.48727 0.0
C1547 C 0.4689 0.51771 0.49587 0.0
C1548 C 0.45029 0.48614 0.48161 0.0
C1549 C 0.48102 0.4892 0.49292 0.0
C1550 C 0.4646 0.47769 0.48435 0.0
C1551 C 0.5354 0.54854 0.55561 0.0
C1552 C 0.49993 0.52207 0.50799 0.0
C1553 C 0.52567 0.44885 0.4687 0.0
C1554 C 0.5248 0.4441 0.48706 0.0
C1555 C 0.56228 0.52167 0.54148 0.0
C1556 C 0.62056 0.57367 0.54881 0.0
C1557 C 0.6348 0.56573 0.55321 0.0
C1558 C 0.65078 0.5776 0.56279 0.0
C1559 C 0.65234 0.5977 0.56799 0.0
C1560 C 0.62219 0.59373 0.55416 0.0
C1561 C 0.63805 0.60567 0.56375 0.0
C1562 C 0.56873 0.5334 0.49028 0.0
C1563 C 0.60425 0.56045 0.53881 0.0
H1564 H 0.47061 0.53322 0.50069 0.0
H1565 H 0.43767 0.477 0.47498 0.0
H1566 H 0.49192 0.48246 0.49503 0.0
H1567 H 0.46294 0.46218 0.47987 0.0
H1568 H 0.63351 0.55023 0.54876 0.0
H1569 H 0.66454 0.60718 0.57536 0.0
H1570 H 0.61134 0.60015 0.55088 0.0
H1571 H 0.6393 0.62116 0.56784 0.0
Tb1572 Tb 0.06736 0.54648 0.01069 0.0
C1573 C 0.00985 0.50275 0.05308 0.0
C1574 C 0.9946 0.47389 0.03031 0.0
C1575 C 0.99608 0.47388 0.06475 0.0
C1576 C 0.00475 0.49314 0.03428 0.0
C1577 C 0.00537 0.49339 0.0686 0.0
C1578 C 0.99064 0.46415 0.04561 0.0
C1579 C 0.01821 0.52376 0.09045 0.0
N1580 N 0.01847 0.52168 0.05612 0.0
C1581 C 0.0222 0.53244 0.07455 0.0
C1582 C 0.00992 0.50409 0.08748 0.0
Tb1583 Tb 0.02467 0.53456 0.02915 0.0
N1584 N 0.0086 0.50317 0.01996 0.0
C1585 C 1.00172 0.49505 1.00132 0.0
C1586 C 0.98814 0.4653 0.01118 0.0
C1587 C 0.99161 0.47598 0.99663 0.0
H1588 H 0.0287 0.54762 0.07712 0.0
H1589 H 0.98643 0.46963 0.9818 0.0
H1590 H 0.98301 0.44928 0.04283 0.0
H1591 H 0.02155 0.53225 0.10499 0.0
H1592 H 1.00418 0.50305 0.98987 0.0
H1593 H 0.10429 0.61096 0.06023 0.0
H1594 H 0.98 0.45069 0.00766 0.0
H1595 H 0.06444 0.53484 0.96277 0.0
H1596 H 0.08745 0.57719 0.05097 0.0
H1597 H 0.07187 0.55126 0.93559 0.0
H1598 H 0.99261 0.46636 0.07646 0.0
H1599 H 0.11067 0.63098 0.03536 0.0
H1600 H 0.10885 0.63311 1.00017 0.0
H1601 H 0.00675 0.49743 0.09981 0.0
H1602 H 0.10003 0.61684 0.96616 0.0
N1603 N 0.08369 0.57776 0.02094 0.0
C1604 C 0.09009 0.58552 0.03981 0.0
C1605 C 0.10324 0.61606 0.03114 0.0
C1606 C 0.09753 0.60776 0.01174 0.0
C1607 C 0.0997 0.60479 0.0452 0.0
C1608 C 0.08781 0.58831 0.00708 0.0
H1609 H 0.08642 0.58621 0.94191 0.0
N1610 N 0.07433 0.56031 0.98444 0.0
C1611 C 0.075 0.55934 0.95031 0.0
C1612 C 0.08291 0.57926 0.98811 0.0
C1613 C 0.07087 0.55006 0.9658 0.0
C1614 C 0.08317 0.57907 0.95392 0.0
C1615 C 0.08747 0.58924 0.97302 0.0
O1616 O 0.08318 0.5288 0.99703 0.0
O1617 O 0.04538 0.52379 0.01484 0.0
O1618 O 0.04335 0.52392 0.04604 0.0
O1619 O 0.06925 0.54521 0.04167 0.0
O1620 O 0.05702 0.51896 0.99003 0.0
O1621 O 0.09073 0.54481 0.02614 0.0
O1622 O 0.00861 0.55192 0.04287 0.0
O1623 O 0.04653 0.55719 0.02469 0.0
O1624 O 0.04844 0.55651 0.99317 0.0
O1625 O 0.02248 0.53554 0.99815 0.0
O1626 O 0.03487 0.56244 0.04935 0.0
O1627 O 1.00098 0.5355 0.01388 0.0
C1628 C 0.04488 0.51123 0.99967 0.0
C1629 C 0.11375 0.53797 0.00769 0.0
C1630 C 0.14311 0.53069 0.00873 0.0
C1631 C 0.12516 0.52638 0.0124 0.0
C1632 C 0.14933 0.54677 1.00019 0.0
C1633 C 0.12031 0.55392 0.99925 0.0
C1634 C 0.13801 0.55826 0.99553 0.0
C1635 C 0.06018 0.53266 0.05116 0.0
C1636 C 0.09512 0.53328 0.0118 0.0
C1637 C 0.09652 0.60884 0.97753 0.0
C1638 C 0.10154 0.6181 0.99688 0.0
C1639 C 0.04696 0.57001 0.0396 0.0
C1640 C 0.97797 0.5414 0.03277 0.0
C1641 C 0.96665 0.55387 0.03088 0.0
C1642 C 0.94865 0.54842 0.0339 0.0
C1643 C 0.94224 0.53049 0.03922 0.0
C1644 C 0.97132 0.52367 0.03826 0.0
C1645 C 0.95357 0.51829 0.04152 0.0
C1646 C 0.03151 0.54781 0.98834 0.0
C1647 C 0.99643 0.54683 0.02829 0.0
H1648 H 0.12009 0.51419 0.01913 0.0
H1649 H 0.16291 0.55035 0.99682 0.0
H1650 H 0.11177 0.56297 0.99553 0.0
H1651 H 0.14297 0.57055 0.98893 0.0
H1652 H 0.97175 0.56756 0.02657 0.0
H1653 H 0.92847 0.52598 0.0417 0.0
H1654 H 0.97976 0.51391 0.03988 0.0
H1655 H 0.94853 0.50453 0.04568 0.0
H1656 H 0.03188 0.23809 0.98472 0.0
H1657 H 0.03333 0.20818 0.99568 0.0
H1658 H 0.01468 0.17534 0.93819 0.0
H1659 H 0.01259 0.20532 0.92731 0.0
H1660 H 1.00036 0.15493 0.96183 0.0
H1661 H 0.0603 0.18768 0.9591 0.0
H1662 H 0.087 0.21447 0.96605 0.0
H1663 H 0.08708 0.21378 0.0267 0.0
H1664 H 0.06022 0.18715 0.02013 0.0
H1665 H 0.03771 0.07327 0.96774 0.0
H1666 H 0.03295 0.10407 0.96128 0.0
H1667 H 0.03107 0.12439 0.02213 0.0
H1668 H 0.03504 0.09288 0.02863 0.0
H1669 H 0.055 0.15116 0.99913 0.0
H1670 H 0.99541 0.11557 1.00003 0.0
H1671 H 0.96976 0.08766 0.99117 0.0
H1672 H 0.97041 0.09243 0.93152 0.0
H1673 H 0.9963 0.12015 0.93995 0.0
C1674 C 0.028 0.22452 0.97436 0.0
C1675 C 0.02218 0.22431 0.95503 0.0
C1676 C 0.02897 0.2073 0.98066 0.0
C1677 C 0.02453 0.18922 0.96778 0.0
C1678 C 0.01829 0.18892 0.94855 0.0
C1679 C 0.01711 0.20617 0.94228 0.0
C1680 C 0.02649 0.1708 0.97431 0.0
C1681 C 0.01241 0.15418 0.96982 0.0
C1682 C 0.04204 0.16951 0.98513 0.0
C1683 C 0.05811 0.1856 0.98914 0.0
C1684 C 0.06592 0.19336 0.97393 0.0
C1685 C 0.08109 0.20849 0.97781 0.0
C1686 C 0.08869 0.21587 0.99681 0.0
C1687 C 0.08115 0.20809 0.01199 0.0
C1688 C 0.06595 0.19297 0.0082 0.0
C1689 C 0.03632 0.08429 0.97982 0.0
C1690 C 0.03726 0.08074 0.99878 0.0
C1691 C 0.03355 0.10192 0.97606 0.0
C1692 C 0.03167 0.11669 0.99115 0.0
C1693 C 0.03255 0.11328 0.0102 0.0
C1694 C 0.03498 0.09534 0.01395 0.0
C1695 C 0.02892 0.13553 0.98665 0.0
C1696 C 0.0429 0.15211 0.99135 0.0
C1697 C 0.01342 0.13667 0.97578 0.0
C1698 C 0.99797 0.11983 0.97061 0.0
C1699 C 0.99025 0.11052 0.98499 0.0
C1700 C 0.97563 0.09476 0.98005 0.0
C1701 C 0.96851 0.08823 0.96078 0.0
C1702 C 0.97598 0.09747 0.94643 0.0
C1703 C 0.99063 0.11322 0.95128 0.0
H1704 H 0.95717 0.07606 0.95698 0.0
H1705 H 0.10045 0.22757 0.99978 0.0
H1706 H 0.14185 0.78656 0.12435 0.0
H1707 H 0.16836 0.78596 0.14401 0.0
H1708 H 0.1593 0.83216 0.18737 0.0
H1709 H 0.1324 0.83285 0.16759 0.0
H1710 H 0.19567 0.83675 0.17983 0.0
H1711 H 0.14915 0.7874 0.19511 0.0
H1712 H 0.12415 0.7587 0.18746 0.0
H1713 H 0.15785 0.72479 0.15932 0.0
H1714 H 0.18299 0.75337 0.1665 0.0
H1715 H 0.25945 0.82303 0.25041 0.0
H1716 H 0.23345 0.82796 0.23272 0.0
H1717 H 0.23067 0.77485 0.19193 0.0
H1718 H 0.25588 0.76924 0.21028 0.0
H1719 H 0.19937 0.77512 0.19989 0.0
H1720 H 0.24539 0.82314 0.18249 0.0
H1721 H 0.27083 0.85137 0.18813 0.0
H1722 H 0.2393 0.88712 0.21768 0.0
H1723 H 0.21372 0.85904 0.21255 0.0
C1724 C 0.14542 0.79672 0.13802 0.0
C1725 C 0.1348 0.80973 0.14433 0.0
C1726 C 0.16066 0.7963 0.14932 0.0
C1727 C 0.16588 0.80888 0.16733 0.0
C1728 C 0.15561 0.82227 0.17355 0.0
C1729 C 0.14017 0.82261 0.16225 0.0
C1730 C 0.18174 0.80745 0.17966 0.0
C1731 C 0.19638 0.82338 0.18451 0.0
C1732 C 0.18299 0.78986 0.18535 0.0
C1733 C 0.16792 0.77258 0.18121 0.0
C1734 C 0.1512 0.77386 0.18717 0.0
C1735 C 0.13701 0.75761 0.18293 0.0
C1736 C 0.1394 0.73995 0.17288 0.0
C1737 C 0.15601 0.73849 0.1671 0.0
C1738 C 0.17024 0.7547 0.17125 0.0
C1739 C 0.25319 0.81224 0.23787 0.0
C1740 C 0.25966 0.79548 0.23219 0.0
C1741 C 0.2384 0.81525 0.22747 0.0
C1742 C 0.2299 0.80183 0.21078 0.0
C1743 C 0.23674 0.78542 0.20476 0.0
C1744 C 0.25135 0.7823 0.21527 0.0
C1745 C 0.21357 0.80435 0.19993 0.0
C1746 C 0.19876 0.78858 0.19534 0.0
C1747 C 0.21232 0.822 0.19425 0.0
C1748 C 0.22768 0.83892 0.19731 0.0
C1749 C 0.24391 0.83698 0.19033 0.0
C1750 C 0.25835 0.85296 0.1934 0.0
C1751 C 0.25669 0.871 0.20327 0.0
C1752 C 0.24057 0.87312 0.21006 0.0
C1753 C 0.22609 0.85718 0.20707 0.0
H1754 H 0.26789 0.88335 0.20561 0.0
H1755 H 0.12839 0.72739 0.16957 0.0
H1756 H 0.54529 0.82912 0.44418 0.0
H1757 H 0.54889 0.86413 0.45587 0.0
H1758 H 0.50387 0.85265 0.48838 0.0
H1759 H 0.50042 0.81776 0.47715 0.0
H1760 H 0.50248 0.88064 0.46497 0.0
H1761 H 0.54259 0.86724 0.5124 0.0
H1762 H 0.5679 0.85506 0.5234 0.0
H1763 H 0.60289 0.89459 0.49612 0.0
H1764 H 0.57773 0.90682 0.48471 0.0
H1765 H 0.54401 0.98334 0.53249 0.0
H1766 H 0.53748 0.94767 0.52551 0.0
H1767 H 0.52753 0.94749 0.46481 0.0
H1768 H 0.53349 0.98283 0.47183 0.0
H1769 H 0.55534 0.92475 0.50435 0.0
H1770 H 0.50514 0.91481 0.44245 0.0
H1771 H 0.47834 0.92474 0.43165 0.0
H1772 H 0.46219 0.92919 0.48908 0.0
H1773 H 0.48916 0.91969 0.50024 0.0
C1774 C 0.53626 0.83403 0.45398 0.0
C1775 C 0.52257 0.82052 0.45972 0.0
C1776 C 0.53835 0.85408 0.46068 0.0
C1777 C 0.52665 0.86111 0.47305 0.0
C1778 C 0.51307 0.84765 0.47887 0.0
C1779 C 0.51116 0.82764 0.47247 0.0
C1780 C 0.52808 0.88243 0.47935 0.0
C1781 C 0.51407 0.89023 0.47359 0.0
C1782 C 0.5431 0.89511 0.49068 0.0
C1783 C 0.55824 0.8878 0.49754 0.0
C1784 C 0.55565 0.87321 0.50859 0.0
C1785 C 0.56998 0.86632 0.51493 0.0
C1786 C 0.58699 0.87401 0.51041 0.0
C1787 C 0.58971 0.88863 0.49958 0.0
C1788 C 0.57542 0.89556 0.49319 0.0
C1789 C 0.53983 0.97564 0.51777 0.0
C1790 C 0.53885 0.98593 0.50276 0.0
C1791 C 0.53626 0.95521 0.51373 0.0
C1792 C 0.53168 0.94462 0.4946 0.0
C1793 C 0.53044 0.95501 0.47973 0.0
C1794 C 0.53399 0.97532 0.48376 0.0
C1795 C 0.52975 0.92302 0.48985 0.0
C1796 C 0.54373 0.91515 0.49579 0.0
C1797 C 0.51475 0.91021 0.47857 0.0
C1798 C 0.49922 0.917 0.47223 0.0
C1799 C 0.49594 0.91815 0.45278 0.0
C1800 C 0.48077 0.92371 0.44661 0.0
C1801 C 0.46864 0.92774 0.45971 0.0
C1802 C 0.47168 0.92623 0.479 0.0
C1803 C 0.48699 0.92098 0.4853 0.0
H1804 H 0.45685 0.93193 0.4549 0.0
H1805 H 0.59807 0.86866 0.51534 0.0
H1806 H 0.54212 0.31287 0.67464 0.0
H1807 H 0.51761 0.31004 0.69501 0.0
H1808 H 0.48038 0.29953 0.64447 0.0
H1809 H 0.50485 0.30323 0.62425 0.0
H1810 H 0.4692 0.32113 0.67089 0.0
H1811 H 0.48826 0.26241 0.66957 0.0
H1812 H 0.50921 0.2417 0.67294 0.0
H1813 H 0.52118 0.26755 0.73325 0.0
H1814 H 0.50047 0.28859 0.73019 0.0
H1815 H 0.39397 0.28342 0.72007 0.0
H1816 H 0.41723 0.28726 0.69806 0.0
H1817 H 0.45686 0.3078 0.74689 0.0
H1818 H 0.43385 0.3044 0.76886 0.0
H1819 H 0.46566 0.27987 0.72028 0.0
H1820 H 0.44535 0.33886 0.71979 0.0
H1821 H 0.4223 0.35677 0.71515 0.0
H1822 H 0.41033 0.32666 0.65605 0.0
H1823 H 0.43321 0.30842 0.6604 0.0
C1824 C 0.52871 0.30993 0.66787 0.0
C1825 C 0.52551 0.30822 0.64776 0.0
C1826 C 0.51463 0.3082 0.67954 0.0
C1827 C 0.49694 0.30421 0.67137 0.0
C1828 C 0.49379 0.30261 0.65128 0.0
C1829 C 0.50786 0.30466 0.63967 0.0
C1830 C 0.48175 0.30179 0.68366 0.0
C1831 C 0.46838 0.31189 0.6815 0.0
C1832 C 0.48048 0.28984 0.69768 0.0
C1833 C 0.49294 0.27721 0.6996 0.0
C1834 C 0.49546 0.26377 0.68352 0.0
C1835 C 0.50727 0.25196 0.68538 0.0
C1836 C 0.51655 0.25335 0.70329 0.0
C1837 C 0.514 0.26651 0.71938 0.0
C1838 C 0.50222 0.27837 0.7176 0.0
C1839 C 0.4076 0.28904 0.72614 0.0
C1840 C 0.41195 0.29336 0.74633 0.0
C1841 C 0.42093 0.29116 0.71351 0.0
C1842 C 0.43889 0.29775 0.72077 0.0
C1843 C 0.44317 0.30249 0.74088 0.0
C1844 C 0.42993 0.30046 0.75345 0.0
C1845 C 0.45337 0.29937 0.70764 0.0
C1846 C 0.46655 0.28908 0.70964 0.0
C1847 C 0.45426 0.31082 0.69324 0.0
C1848 C 0.44088 0.32217 0.69047 0.0
C1849 C 0.43775 0.33601 0.70583 0.0
C1850 C 0.42472 0.34622 0.70325 0.0
C1851 C 0.41482 0.34282 0.68533 0.0
C1852 C 0.418 0.32927 0.66992 0.0
C1853 C 0.43102 0.31902 0.67243 0.0
H1854 H 0.40471 0.3507 0.68337 0.0
H1855 H 0.52569 0.24419 0.7047 0.0
H1856 H 0.03187 0.84176 0.64493 0.0
H1857 H 0.03886 0.86287 0.62159 0.0
H1858 H 0.99673 0.8254 0.58086 0.0
H1859 H 0.9897 0.80412 0.60405 0.0
H1860 H 0.02755 0.8345 0.56427 0.0
H1861 H 0.99189 0.86853 0.60446 0.0
H1862 H 0.98313 0.88446 0.63509 0.0
H1863 H 0.03338 0.92553 0.64567 0.0
H1864 H 0.04254 0.90966 0.61522 0.0
H1865 H 0.02456 0.89836 0.49813 0.0
H1866 H 0.01871 0.87589 0.52047 0.0
H1867 H 0.05863 0.91489 0.56283 0.0
H1868 H 0.0644 0.9374 0.54063 0.0
H1869 H 0.02888 0.90477 0.57852 0.0
H1870 H 0.06498 0.87141 0.53909 0.0
H1871 H 0.07454 0.85578 0.50881 0.0
H1872 H 0.02481 0.81384 0.49723 0.0
H1873 H 0.01485 0.8294 0.52733 0.0
C1874 C 0.02397 0.8381 0.63108 0.0
C1875 C 0.01021 0.82127 0.62635 0.0
C1876 C 0.02797 0.85019 0.61777 0.0
C1877 C 0.01826 0.84573 0.59954 0.0
C1878 C 0.00439 0.82908 0.59485 0.0
C1879 C 1.00034 0.817 0.60817 0.0
C1880 C 0.02288 0.85816 0.58515 0.0
C1881 C 0.02761 0.84981 0.56725 0.0
C1882 C 0.02344 0.87823 0.58931 0.0
C1883 C 0.01797 0.88777 0.60765 0.0
C1884 C 1.00113 0.88085 0.6134 0.0
C1885 C 0.99609 0.88989 0.63072 0.0
C1886 C 0.00771 0.90596 0.64235 0.0
C1887 C 0.0244 0.91306 0.63666 0.0
C1888 C 0.02952 0.90405 0.61937 0.0
C1889 C 0.03234 0.9019 0.51205 0.0
C1890 C 0.04486 0.91964 0.51771 0.0
C1891 C 0.02898 0.88909 0.52481 0.0
C1892 C 0.03824 0.89372 0.54333 0.0
C1893 C 0.05124 0.91108 0.54867 0.0
C1894 C 0.05453 0.92391 0.53598 0.0
C1895 C 0.03362 0.88115 0.55761 0.0
C1896 C 0.02886 0.88946 0.57551 0.0
C1897 C 0.03316 0.86109 0.5535 0.0
C1898 C 0.0391 0.8517 0.53537 0.0
C1899 C 0.05602 0.85896 0.53 0.0
C1900 C 0.06152 0.85009 0.51289 0.0
C1901 C 0.05027 0.83386 0.50108 0.0
C1902 C 0.0335 0.82644 0.50638 0.0
C1903 C 0.02793 0.83526 0.52347 0.0
H1904 H 0.05456 0.82701 0.48783 0.0
H1905 H 1.00377 0.91295 0.65574 0.0
H1906 H 0.55532 0.7993 0.82437 0.0
H1907 H 0.529 0.80651 0.80962 0.0
H1908 H 0.4957 0.76355 0.83511 0.0
H1909 H 0.522 0.75639 0.85023 0.0
H1910 H 0.48398 0.76534 0.79504 0.0
H1911 H 0.50203 0.80542 0.85867 0.0
H1912 H 0.5238 0.82785 0.88386 0.0
H1913 H 0.53309 0.86953 0.84696 0.0
H1914 H 0.51155 0.8472 0.82141 0.0
H1915 H 0.40435 0.79599 0.7881 0.0
H1916 H 0.43003 0.78537 0.79882 0.0
H1917 H 0.46399 0.83907 0.79165 0.0
H1918 H 0.43816 0.8509 0.78328 0.0
H1919 H 0.47592 0.83108 0.8219 0.0
H1920 H 0.45774 0.79141 0.75797 0.0
H1921 H 0.43643 0.76873 0.73245 0.0
H1922 H 0.42775 0.72661 0.76892 0.0
H1923 H 0.44901 0.74896 0.79458 0.0
C1924 C 0.54242 0.79107 0.82653 0.0
C1925 C 0.54073 0.77738 0.83862 0.0
C1926 C 0.52741 0.79525 0.81812 0.0
C1927 C 0.51048 0.78568 0.82146 0.0
C1928 C 0.5087 0.77108 0.8324 0.0
C1929 C 0.52372 0.76705 0.84105 0.0
C1930 C 0.49476 0.79219 0.81505 0.0
C1931 C 0.48208 0.77965 0.80095 0.0
C1932 C 0.49256 0.81097 0.8226 0.0
C1933 C 0.5053 0.82456 0.83806 0.0
C1934 C 0.50881 0.8193 0.85587 0.0
C1935 C 0.5211 0.832 0.87022 0.0
C1936 C 0.52985 0.85009 0.867 0.0
C1937 C 0.52631 0.85551 0.84943 0.0
C1938 C 0.51405 0.84285 0.83501 0.0
C1939 C 0.41718 0.80584 0.78918 0.0
C1940 C 0.41896 0.82447 0.78484 0.0
C1941 C 0.432 0.79947 0.79489 0.0
C1942 C 0.4491 0.81114 0.79557 0.0
C1943 C 0.45098 0.82967 0.79113 0.0
C1944 C 0.43612 0.83633 0.78604 0.0
C1945 C 0.46498 0.80434 0.8015 0.0
C1946 C 0.47775 0.81683 0.8157 0.0
C1947 C 0.46732 0.78554 0.79387 0.0
C1948 C 0.45489 0.77189 0.77822 0.0
C1949 C 0.45128 0.7773 0.76052 0.0
C1950 C 0.43923 0.76448 0.74602 0.0
C1951 C 0.43076 0.7462 0.74903 0.0
C1952 C 0.43438 0.74069 0.76653 0.0
C1953 C 0.44646 0.7534 0.78103 0.0
H1954 H 0.42139 0.73631 0.73782 0.0
H1955 H 0.53932 0.85991 0.87814 0.0
H1956 H 0.54727 0.2324 0.10731 0.0
H1957 H 0.54788 0.19938 0.09199 0.0
H1958 H 0.50322 0.17679 0.12141 0.0
H1959 H 0.5027 0.20974 0.13706 0.0
H1960 H 0.52803 0.15685 0.1238 0.0
H1961 H 0.49782 0.17754 0.07368 0.0
H1962 H 0.49301 0.19913 0.05151 0.0
H1963 H 0.54052 0.19229 0.02583 0.0
H1964 H 0.54576 0.17087 0.04804 0.0
H1965 H 0.5152 0.07122 0.03464 0.0
H1966 H 0.50894 0.10119 0.05156 0.0
H1967 H 0.55792 0.11315 0.08821 0.0
H1968 H 0.56431 0.08306 0.07132 0.0
H1969 H 0.52731 0.13693 0.05274 0.0
H1970 H 0.55312 0.13899 0.13204 0.0
H1971 H 0.55484 0.1162 0.15391 0.0
H1972 H 0.51026 0.07516 0.12064 0.0
H1973 H 0.50819 0.0977 0.09863 0.0
C1974 C 0.53751 0.22042 0.11043 0.0
C1975 C 0.52493 0.22367 0.12337 0.0
C1976 C 0.53785 0.20157 0.10164 0.0
C1977 C 0.52551 0.18567 0.10548 0.0
C1978 C 0.51287 0.18887 0.11829 0.0
C1979 C 0.51256 0.20771 0.12715 0.0
C1980 C 0.52601 0.16568 0.09634 0.0
C1981 C 0.52783 0.15246 0.10826 0.0
C1982 C 0.52537 0.15986 0.07605 0.0
C1983 C 0.52226 0.17273 0.06265 0.0
C1984 C 0.50732 0.18076 0.06341 0.0
C1985 C 0.5045 0.19295 0.05082 0.0
C1986 C 0.51647 0.19712 0.0373 0.0
C1987 C 0.53127 0.18907 0.03632 0.0
C1988 C 0.53416 0.17689 0.04889 0.0
C1989 C 0.52467 0.08019 0.0463 0.0
C1990 C 0.54041 0.07493 0.05145 0.0
C1991 C 0.52101 0.09728 0.056 0.0
C1992 C 0.53295 0.10935 0.07112 0.0
C1993 C 0.54844 0.10389 0.0767 0.0
C1994 C 0.55211 0.08674 0.067 0.0
C1995 C 0.52969 0.12823 0.08022 0.0
C1996 C 0.52741 0.14128 0.06828 0.0
C1997 C 0.52949 0.13369 0.10043 0.0
C1998 C 0.53061 0.12 0.11359 0.0
C1999 C 0.54366 0.12511 0.12941 0.0
C2000 C 0.54471 0.11222 0.14181 0.0
C2001 C 0.53271 0.0942 0.13861 0.0
C2002 C 0.51962 0.08905 0.12301 0.0
C2003 C 0.51853 0.10186 0.11055 0.0
H2004 H 0.53351 0.08427 0.14826 0.0
H2005 H 0.51426 0.20655 0.02756 0.0
H2006 H 0.16364 0.33853 0.38274 0.0
H2007 H 0.19011 0.34128 0.36545 0.0
H2008 H 0.15773 0.31412 0.31184 0.0
H2009 H 0.13132 0.31068 0.32918 0.0
H2010 H 0.18163 0.29603 0.31643 0.0
H2011 H 0.18169 0.36216 0.32274 0.0
H2012 H 0.1818 0.39595 0.33674 0.0
H2013 H 0.23151 0.40221 0.36966 0.0
H2014 H 0.23167 0.36835 0.35605 0.0
H2015 H 0.26699 0.30706 0.27388 0.0
H2016 H 0.23662 0.30912 0.27933 0.0
H2017 H 0.25121 0.32306 0.34086 0.0
H2018 H 0.28137 0.32049 0.33557 0.0
H2019 H 0.23463 0.35015 0.32456 0.0
H2020 H 0.21644 0.27827 0.33136 0.0
H2021 H 0.20994 0.24279 0.31992 0.0
H2022 H 0.19362 0.24956 0.26296 0.0
H2023 H 0.19995 0.28507 0.27418 0.0
C2024 C 0.16216 0.33335 0.36723 0.0
C2025 C 0.14546 0.32408 0.35736 0.0
C2026 C 0.17729 0.33516 0.35731 0.0
C2027 C 0.17593 0.32806 0.33729 0.0
C2028 C 0.15912 0.3197 0.32728 0.0
C2029 C 0.14405 0.31762 0.33723 0.0
C2030 C 0.19205 0.3266 0.32742 0.0
C2031 C 0.19302 0.30813 0.31777 0.0
C2032 C 0.20707 0.34225 0.32938 0.0
C2033 C 0.20669 0.36253 0.33824 0.0
C2034 C 0.19263 0.37061 0.33302 0.0
C2035 C 0.19265 0.38985 0.3409 0.0
C2036 C 0.20666 0.40123 0.35408 0.0
C2037 C 0.22067 0.39338 0.35943 0.0
C2038 C 0.22071 0.37415 0.35159 0.0
C2039 C 0.2637 0.31012 0.28854 0.0
C2040 C 0.27661 0.31345 0.3043 0.0
C2041 C 0.2463 0.31134 0.29163 0.0
C2042 C 0.24172 0.31624 0.31049 0.0
C2043 C 0.25451 0.31924 0.32619 0.0
C2044 C 0.27173 0.3178 0.32313 0.0
C2045 C 0.22408 0.31969 0.31421 0.0
C2046 C 0.22291 0.33847 0.32272 0.0
C2047 C 0.20881 0.30451 0.31125 0.0
C2048 C 0.20896 0.2842 0.30348 0.0
C2049 C 0.2119 0.27217 0.31629 0.0
C2050 C 0.20798 0.25207 0.30994 0.0
C2051 C 0.2012 0.24393 0.29079 0.0
C2052 C 0.19877 0.25589 0.27782 0.0
C2053 C 0.2026 0.276 0.28413 0.0
H2054 H 0.19795 0.22834 0.28597 0.0
H2055 H 0.20666 0.41613 0.36015 0.0
H2056 H 0.93633 0.03316 0.19853 0.0
H2057 H 0.95252 0.03272 0.17008 0.0
H2058 H 0.98743 0.0873 0.19689 0.0
H2059 H 0.97093 0.0879 0.22583 0.0
H2060 H 0.9797 0.08725 0.15859 0.0
H2061 H 1.00063 0.04267 0.19132 0.0
H2062 H 0.99816 0.0148 0.20758 0.0
H2063 H 0.97033 0.9766 0.15605 0.0
H2064 H 0.97242 1.00429 0.13955 0.0
H2065 H 0.03827 0.0806 0.08334 0.0
H2066 H 0.02488 0.08358 0.1139 0.0
H2067 H 0.99227 0.02579 0.09536 0.0
H2068 H 0.00638 0.02243 0.06522 0.0
H2069 H 1.00036 0.02868 0.13091 0.0
H2070 H 0.97774 0.07275 0.09856 0.0
H2071 H 0.97946 0.1003 0.08192 0.0
H2072 H 0.00947 0.139 0.13201 0.0
H2073 H 0.00811 0.11163 0.14886 0.0
C2074 C 0.94749 0.04517 0.19867 0.0
C2075 C 0.95214 0.06054 0.21499 0.0
C2076 C 0.95693 0.04482 0.18213 0.0
C2077 C 0.97162 0.0598 0.18091 0.0
C2078 C 0.97628 0.07538 0.1971 0.0
C2079 C 0.96683 0.07568 0.21386 0.0
C2080 C 0.98175 0.05896 0.16277 0.0
C2081 C 0.98445 0.07452 0.1528 0.0
C2082 C 0.98777 0.04229 0.15441 0.0
C2083 C 0.98655 0.02559 0.16426 0.0
C2084 C 0.99388 0.02835 0.1835 0.0
C2085 C 0.99256 0.01258 0.19275 0.0
C2086 C 0.98406 0.99394 0.18287 0.0
C2087 C 0.9769 0.99104 0.16369 0.0
C2088 C 0.97816 0.00677 0.15438 0.0
C2089 C 0.0284 0.06837 0.08573 0.0
C2090 C 0.02379 0.05116 0.07146 0.0
C2091 C 0.02041 0.07021 0.10336 0.0
C2092 C 0.00706 0.05507 0.10745 0.0
C2093 C 1.00241 0.03788 0.09311 0.0
C2094 C 0.01053 0.03598 0.07558 0.0
C2095 C 0.99817 0.05689 0.12648 0.0
C2096 C 0.99568 0.04147 0.13665 0.0
C2097 C 0.99223 0.07363 0.13492 0.0
C2098 C 0.99298 0.09012 0.12489 0.0
C2099 C 0.9848 0.08712 0.10597 0.0
C2100 C 0.9857 0.1027 0.09651 0.0
C2101 C 0.99461 0.12138 0.10588 0.0
C2102 C 1.00259 0.12452 0.12476 0.0
C2103 C 1.00175 0.10898 0.13428 0.0
H2104 H 0.9953 0.13343 0.09853 0.0
H2105 H 0.98305 0.98175 0.19006 0.0
H2106 H 0.30558 0.66369 0.46289 0.0
H2107 H 0.30219 0.67945 0.43563 0.0
H2108 H 0.3049 0.7335 0.47497 0.0
H2109 H 0.30788 0.71768 0.50242 0.0
H2110 H 0.27704 0.72556 0.45049 0.0
H2111 H 0.33744 0.7274 0.44481 0.0
H2112 H 0.36494 0.71582 0.44286 0.0
H2113 H 0.34291 0.67611 0.38987 0.0
H2114 H 0.31507 0.68709 0.39172 0.0
H2115 H 0.27022 0.77266 0.37047 0.0
H2116 H 0.28355 0.76399 0.39889 0.0
H2117 H 0.27078 0.7039 0.37022 0.0
H2118 H 0.25753 0.71247 0.34164 0.0
H2119 H 0.30686 0.71921 0.3902 0.0
H2120 H 0.24491 0.71551 0.40001 0.0
H2121 H 0.21829 0.72882 0.40226 0.0
H2122 H 0.24569 0.77498 0.44832 0.0
H2123 H 0.27257 0.76209 0.44614 0.0
C2124 C 0.30576 0.67902 0.46578 0.0
C2125 C 0.30679 0.68939 0.48483 0.0
C2126 C 0.30395 0.68806 0.45014 0.0
C2127 C 0.30337 0.70769 0.45324 0.0
C2128 C 0.30529 0.71832 0.47225 0.0
C2129 C 0.307 0.70926 0.48792 0.0
C2130 C 0.29869 0.71638 0.43674 0.0
C2131 C 0.28386 0.72455 0.4375 0.0
C2132 C 0.30739 0.71482 0.41964 0.0
C2133 C 0.32405 0.70795 0.41853 0.0
C2134 C 0.33835 0.71603 0.43286 0.0
C2135 C 0.35402 0.70958 0.43175 0.0
C2136 C 0.35566 0.6952 0.41627 0.0
C2137 C 0.34161 0.68723 0.40187 0.0
C2138 C 0.32587 0.69355 0.40295 0.0
C2139 C 0.27044 0.75763 0.37015 0.0
C2140 C 0.26284 0.74321 0.35388 0.0
C2141 C 0.278 0.75272 0.38637 0.0
C2142 C 0.27817 0.73335 0.38652 0.0
C2143 C 0.27084 0.71895 0.37024 0.0
C2144 C 0.26315 0.72382 0.35405 0.0
C2145 C 0.28518 0.72793 0.40405 0.0
C2146 C 0.30034 0.72041 0.4034 0.0
C2147 C 0.27698 0.7303 0.42136 0.0
C2148 C 0.2608 0.73798 0.42275 0.0
C2149 C 0.2453 0.7286 0.41049 0.0
C2150 C 0.23016 0.73605 0.41178 0.0
C2151 C 0.23032 0.75277 0.42538 0.0
C2152 C 0.2456 0.76205 0.43777 0.0
C2153 C 0.26079 0.75468 0.43651 0.0
H2154 H 0.21858 0.75851 0.42636 0.0
H2155 H 0.36783 0.69028 0.41542 0.0
H2156 H 0.64093 0.98669 0.7056 0.0
H2157 H 0.62194 0.98675 0.67677 0.0
H2158 H 0.66374 0.0285 0.65962 0.0
H2159 H 0.68278 0.02856 0.68827 0.0
H2160 H 0.63214 0.03993 0.66123 0.0
H2161 H 0.65287 0.98329 0.63449 0.0
H2162 H 0.65824 0.95068 0.63358 0.0
H2163 H 0.60249 0.92714 0.63285 0.0
H2164 H 0.5968 0.95968 0.634 0.0
H2165 H 0.59947 0.04565 0.56904 0.0
H2166 H 0.61707 0.03935 0.59568 0.0
H2167 H 0.57266 0.99597 0.60581 0.0
H2168 H 0.55499 1.00171 0.57861 0.0
H2169 H 0.60359 0.98422 0.60878 0.0
H2170 H 0.58236 0.03994 0.63431 0.0
H2171 H 0.57638 0.07226 0.63506 0.0
H2172 H 0.63214 0.09737 0.63903 0.0
H2173 H 0.63845 0.06512 0.63797 0.0
C2174 C 0.64619 0.99564 0.69552 0.0
C2175 C 0.66333 0.00773 0.69931 0.0
C2176 C 0.63533 0.99562 0.67905 0.0
C2177 C 0.64145 0.00768 0.66613 0.0
C2178 C 0.65877 0.01916 0.66948 0.0
C2179 C 0.66965 0.01911 0.68584 0.0
C2180 C 0.62945 0.00951 0.64991 0.0
C2181 C 0.62606 0.0278 0.64963 0.0
C2182 C 0.62103 0.99351 0.63522 0.0
C2183 C 0.62443 0.97396 0.63456 0.0
C2184 C 0.64177 0.97119 0.63432 0.0
C2185 C 0.64487 0.95271 0.63372 0.0
C2186 C 0.63072 0.93686 0.63322 0.0
C2187 C 0.61344 0.93944 0.63327 0.0
C2188 C 0.61027 0.9579 0.63388 0.0
C2189 C 0.59339 0.0347 0.57683 0.0
C2190 C 0.5757 0.0244 0.57185 0.0
C2191 C 0.60349 0.03117 0.59212 0.0
C2192 C 0.59608 0.01743 0.60292 0.0
C2193 C 0.57859 0.00671 0.59771 0.0
C2194 C 0.56847 0.01015 0.58228 0.0
C2195 C 0.6066 0.01473 0.61991 0.0
C2196 C 0.60962 0.99631 0.62042 0.0
C2197 C 0.61459 0.03058 0.63496 0.0
C2198 C 0.61087 0.05007 0.63591 0.0
C2199 C 0.59335 0.05233 0.63522 0.0
C2200 C 0.5899 0.07064 0.63571 0.0
C2201 C 0.60387 0.08685 0.63706 0.0
C2202 C 0.62133 0.08479 0.63797 0.0
C2203 C 0.62485 0.0665 0.63745 0.0
H2204 H 0.60117 0.10102 0.63742 0.0
H2205 H 0.63315 0.92256 0.63275 0.0
H2206 H 0.30283 0.35429 0.99516 0.0
H2207 H 0.3023 0.33426 0.96293 0.0
H2208 H 0.29419 0.38164 0.93664 0.0
H2209 H 0.2946 0.4015 0.96847 0.0
H2210 H 0.2729 0.34825 0.91791 0.0
H2211 H 0.33491 0.37137 0.94201 0.0
H2212 H 0.36109 0.37506 0.96494 0.0
H2213 H 0.35425 0.31322 0.95491 0.0
H2214 H 0.32785 0.30916 0.93211 0.0
H2215 H 0.3056 0.34548 0.82943 0.0
H2216 H 0.30638 0.35264 0.86458 0.0
H2217 H 0.29824 0.29171 0.86554 0.0
H2218 H 0.29718 0.28438 0.82987 0.0
H2219 H 0.32541 0.3239 0.89794 0.0
H2220 H 0.26478 0.30182 0.86987 0.0
H2221 H 0.24048 0.30027 0.84522 0.0
H2222 H 0.24584 0.36169 0.86209 0.0
H2223 H 0.2704 0.36367 0.88659 0.0
C2224 C 0.30081 0.36035 0.98249 0.0
C2225 C 0.2988 0.37954 0.98444 0.0
C2226 C 0.30059 0.34892 0.96407 0.0
C2227 C 0.2983 0.35645 0.94729 0.0
C2228 C 0.29593 0.37544 0.9493 0.0
C2229 C 0.29624 0.38684 0.96759 0.0
C2230 C 0.29867 0.34501 0.92754 0.0
C2231 C 0.28434 0.3428 0.91365 0.0
C2232 C 0.31343 0.33751 0.9219 0.0
C2233 C 0.32927 0.33995 0.93558 0.0
C2234 C 0.33889 0.35855 0.94484 0.0
C2235 C 0.35378 0.36071 0.95778 0.0
C2236 C 0.35929 0.34438 0.96144 0.0
C2237 C 0.34994 0.32585 0.95211 0.0
C2238 C 0.33501 0.32361 0.93918 0.0
C2239 C 0.30438 0.33363 0.83715 0.0
C2240 C 0.30153 0.31442 0.827 0.0
C2241 C 0.30485 0.33774 0.85722 0.0
C2242 C 0.30232 0.32273 0.86765 0.0
C2243 C 0.30033 0.30351 0.85772 0.0
C2244 C 0.29977 0.29933 0.83742 0.0
C2245 C 0.29978 0.32749 0.88849 0.0
C2246 C 0.31372 0.32867 0.90246 0.0
C2247 C 0.28469 0.33412 0.89426 0.0
C2248 C 0.2695 0.33291 0.88001 0.0
C2249 C 0.26084 0.31502 0.86825 0.0
C2250 C 0.24702 0.31405 0.8543 0.0
C2251 C 0.24164 0.33087 0.85207 0.0
C2252 C 0.25002 0.34867 0.86384 0.0
C2253 C 0.26388 0.34972 0.87778 0.0
H2254 H 0.23098 0.33011 0.84123 0.0
H2255 H 0.37083 0.34608 0.97146 0.0
H2256 H 0.99002 0.06421 0.31573 0.0
H2257 H 1.00289 0.06134 0.34694 0.0
H2258 H 0.95596 0.07108 0.37265 0.0
H2259 H 0.94301 0.07447 0.34106 0.0
H2260 H 0.98256 0.08817 0.3986 0.0
H2261 H 0.96798 0.02387 0.36108 0.0
H2262 H 0.96751 0.99768 0.33314 0.0
H2263 H 0.02413 0.00795 0.34144 0.0
H2264 H 0.02496 0.03439 0.36928 0.0
H2265 H 1.00007 0.05265 0.48386 0.0
H2266 H 0.98837 0.05588 0.45214 0.0
H2267 H 0.03916 0.05563 0.43104 0.0
H2268 H 0.05116 0.05276 0.46336 0.0
H2269 H 0.01117 0.03372 0.40293 0.0
H2270 H 0.0252 0.09775 0.44131 0.0
H2271 H 0.02494 0.12292 0.46992 0.0
H2272 H 0.96833 0.112 0.46047 0.0
H2273 H 0.96823 0.08654 0.43195 0.0
C2274 C 0.98226 0.06582 0.32791 0.0
C2275 C 0.96522 0.06955 0.32536 0.0
C2276 C 0.98972 0.06396 0.34603 0.0
C2277 C 0.9805 0.06542 0.36268 0.0
C2278 C 0.96361 0.06967 0.36036 0.0
C2279 C 0.95611 0.07165 0.3421 0.0
C2280 C 0.98857 0.0626 0.38216 0.0
C2281 C 0.98854 0.07604 0.39939 0.0
C2282 C 0.99698 0.04711 0.38387 0.0
C2283 C 0.99654 0.03125 0.36714 0.0
C2284 C 0.98034 0.02065 0.35685 0.0
C2285 C 0.98001 0.00574 0.34105 0.0
C2286 C 0.99578 1.00119 0.33549 0.0
C2287 C 0.01192 0.01151 0.34575 0.0
C2288 C 0.01233 0.02645 0.36155 0.0
C2289 C 0.00887 0.05317 0.47252 0.0
C2290 C 0.02662 0.05215 0.47648 0.0
C2291 C 1.00208 0.05512 0.45419 0.0
C2292 C 0.0127 0.05627 0.43874 0.0
C2293 C 0.03045 0.05485 0.44243 0.0
C2294 C 0.03737 0.05309 0.46103 0.0
C2295 C 0.00514 0.05929 0.4192 0.0
C2296 C 0.00522 0.04586 0.40203 0.0
C2297 C 0.99668 0.07469 0.41756 0.0
C2298 C 0.9967 0.09012 0.43458 0.0
C2299 C 0.01268 0.10062 0.44541 0.0
C2300 C 0.01261 0.11495 0.4616 0.0
C2301 C 0.99663 0.11903 0.46704 0.0
C2302 C 0.9807 0.10881 0.45625 0.0
C2303 C 0.9807 0.09444 0.44006 0.0
H2304 H 0.99659 0.13013 0.47958 0.0
H2305 H 0.9955 0.98965 0.32325 0.0
H2306 H 0.29494 0.66351 0.57985 0.0
H2307 H 0.29122 0.68408 0.61001 0.0
H2308 H 0.33261 0.73025 0.59886 0.0
H2309 H 0.33683 0.70939 0.56887 0.0
H2310 H 0.3353 0.7291 0.63571 0.0
H2311 H 0.28817 0.72994 0.59013 0.0
H2312 H 0.26295 0.71609 0.56517 0.0
H2313 H 0.23366 0.68752 0.60567 0.0
H2314 H 0.25881 0.70096 0.63081 0.0
H2315 H 0.30936 0.79912 0.70666 0.0
H2316 H 0.31253 0.78244 0.67415 0.0
H2317 H 0.28308 0.72862 0.68629 0.0
H2318 H 0.28062 0.7449 0.71907 0.0
H2319 H 0.27474 0.73672 0.64778 0.0
H2320 H 0.32395 0.73503 0.69251 0.0
H2321 H 0.34961 0.74973 0.71674 0.0
H2322 H 0.37518 0.78197 0.67657 0.0
H2323 H 0.34953 0.76773 0.65217 0.0
C2324 C 0.30336 0.67799 0.58388 0.0
C2325 C 0.31609 0.6849 0.57193 0.0
C2326 C 0.30114 0.68979 0.60107 0.0
C2327 C 0.31131 0.7089 0.60646 0.0
C2328 C 0.32451 0.7156 0.59492 0.0
C2329 C 0.32693 0.70367 0.57781 0.0
C2330 C 0.30795 0.72185 0.62402 0.0
C2331 C 0.32211 0.73103 0.63817 0.0
C2332 C 0.2907 0.72429 0.62733 0.0
C2333 C 0.27544 0.71635 0.61232 0.0
C2334 C 0.27639 0.72061 0.59369 0.0
C2335 C 0.26211 0.71284 0.57951 0.0
C2336 C 0.24673 0.7009 0.58382 0.0
C2337 C 0.24559 0.69676 0.60235 0.0
C2338 C 0.25985 0.70447 0.61657 0.0
C2339 C 0.30367 0.78373 0.70249 0.0
C2340 C 0.29546 0.77321 0.71578 0.0
C2341 C 0.30533 0.77427 0.68384 0.0
C2342 C 0.29831 0.75427 0.67803 0.0
C2343 C 0.28871 0.74406 0.69063 0.0
C2344 C 0.28736 0.75342 0.70939 0.0
C2345 C 0.30202 0.74364 0.65939 0.0
C2346 C 0.28793 0.73493 0.64512 0.0
C2347 C 0.31935 0.74184 0.65586 0.0
C2348 C 0.33471 0.7505 0.67059 0.0
C2349 C 0.33494 0.74543 0.68891 0.0
C2350 C 0.3495 0.75364 0.70267 0.0
C2351 C 0.36398 0.7668 0.69822 0.0
C2352 C 0.36395 0.77177 0.67999 0.0
C2353 C 0.3494 0.76365 0.6662 0.0
H2354 H 0.37523 0.77315 0.70889 0.0
H2355 H 0.23569 0.69489 0.57282 0.0
H2356 H 0.6534 0.02131 0.77894 0.0
H2357 H 0.63077 0.0222 0.80139 0.0
H2358 H 0.66586 0.07054 0.83994 0.0
H2359 H 0.68876 0.06955 0.81767 0.0
H2360 H 0.64976 0.04446 0.85954 0.0
H2361 H 0.632 0.07786 0.81214 0.0
H2362 H 0.62461 0.08277 0.77928 0.0
H2363 H 0.58148 0.03245 0.76991 0.0
H2364 H 0.58877 0.02708 0.80263 0.0
H2365 H 0.56076 0.06598 0.8923 0.0
H2366 H 0.58415 0.06927 0.87048 0.0
H2367 H 0.59474 0.01495 0.87933 0.0
H2368 H 0.57152 0.0117 0.90125 0.0
H2369 H 0.58917 0.04826 0.83742 0.0
H2370 H 0.63973 0.01811 0.88013 0.0
H2371 H 0.64847 0.01648 0.91379 0.0
H2372 H 0.62755 0.06594 0.93454 0.0
H2373 H 0.61902 0.06815 0.90103 0.0
C2374 C 0.65632 0.03218 0.79217 0.0
C2375 C 0.67286 0.04542 0.7965 0.0
C2376 C 0.64334 0.0327 0.80495 0.0
C2377 C 0.64657 0.04659 0.82221 0.0
C2378 C 0.66311 0.05973 0.82667 0.0
C2379 C 0.67615 0.05918 0.81391 0.0
C2380 C 0.63268 0.04719 0.83564 0.0
C2381 C 0.63651 0.04532 0.85475 0.0
C2382 C 0.61553 0.04874 0.82944 0.0
C2383 C 0.61102 0.05199 0.80979 0.0
C2384 C 0.62101 0.06777 0.80303 0.0
C2385 C 0.61683 0.07064 0.78443 0.0
C2386 C 0.60261 0.05791 0.7725 0.0
C2387 C 0.59251 0.0423 0.77916 0.0
C2388 C 0.59664 0.03934 0.79774 0.0
C2389 C 0.56794 0.05464 0.88936 0.0
C2390 C 0.56446 0.03867 0.89854 0.0
C2391 C 0.58133 0.05657 0.877 0.0
C2392 C 0.59141 0.04255 0.87363 0.0
C2393 C 0.58742 0.02618 0.88214 0.0
C2394 C 0.57413 0.0243 0.89457 0.0
C2395 C 0.60611 0.04502 0.86121 0.0
C2396 C 0.60242 0.04746 0.84227 0.0
C2397 C 0.62349 0.04438 0.86772 0.0
C2398 C 0.62855 0.04315 0.88801 0.0
C2399 C 0.63705 0.02869 0.89186 0.0
C2400 C 0.642 0.02769 0.91092 0.0
C2401 C 0.63852 0.04106 0.92629 0.0
C2402 C 0.63017 0.05553 0.92262 0.0
C2403 C 0.62526 0.05666 0.90359 0.0
H2404 H 0.64232 0.04023 0.94103 0.0
H2405 H 0.59939 0.06015 0.75811 0.0
H2406 H 0.31941 0.39499 0.10195 0.0
H2407 H 0.32164 0.38704 0.13405 0.0
H2408 H 0.26565 0.36101 0.12718 0.0
H2409 H 0.26324 0.36947 0.09529 0.0
H2410 H 0.27411 0.38115 0.16215 0.0
H2411 H 0.29807 0.33355 0.12302 0.0
H2412 H 0.31754 0.32121 0.09998 0.0
H2413 H 0.36325 0.35242 0.13884 0.0
H2414 H 0.34405 0.36516 0.16201 0.0
H2415 H 0.27552 0.32554 0.23706 0.0
H2416 H 0.272 0.3385 0.20775 0.0
H2417 H 0.32708 0.36841 0.21663 0.0
H2418 H 0.33074 0.35524 0.2457 0.0
H2419 H 0.31896 0.34662 0.1809 0.0
H2420 H 0.29358 0.39345 0.22055 0.0
H2421 H 0.27308 0.40489 0.2428 0.0
H2422 H 0.22872 0.37272 0.2025 0.0
H2423 H 0.24895 0.36103 0.18002 0.0
C2424 C 0.30757 0.38748 0.10721 0.0
C2425 C 0.29115 0.38279 0.09594 0.0
C2426 C 0.30887 0.38287 0.1256 0.0
C2427 C 0.29386 0.37315 0.13307 0.0
C2428 C 0.27745 0.36851 0.12184 0.0
C2429 C 0.2761 0.37328 0.10352 0.0
C2430 C 0.29525 0.36795 0.15259 0.0
C2431 C 0.28379 0.37339 0.16615 0.0
C2432 C 0.30804 0.35808 0.15807 0.0
C2433 C 0.31963 0.35047 0.14416 0.0
C2434 C 0.31228 0.33791 0.12658 0.0
C2435 C 0.32327 0.33082 0.11351 0.0
C2436 C 0.34162 0.33607 0.11792 0.0
C2437 C 0.34903 0.34839 0.13543 0.0
C2438 C 0.3381 0.35554 0.14854 0.0
C2439 C 0.28689 0.33492 0.23282 0.0
C2440 C 0.30361 0.33862 0.24332 0.0
C2441 C 0.2848 0.34253 0.21614 0.0
C2442 C 0.29933 0.35427 0.20976 0.0
C2443 C 0.31571 0.35918 0.22107 0.0
C2444 C 0.31778 0.35161 0.23775 0.0
C2445 C 0.29793 0.35996 0.19051 0.0
C2446 C 0.30935 0.35449 0.17695 0.0
C2447 C 0.28495 0.36954 0.18498 0.0
C2448 C 0.27278 0.37625 0.19867 0.0
C2449 C 0.27945 0.3887 0.2165 0.0
C2450 C 0.26788 0.3953 0.22911 0.0
C2451 C 0.24961 0.38952 0.22406 0.0
C2452 C 0.24287 0.37717 0.20639 0.0
C2453 C 0.25438 0.3706 0.19368 0.0
H2454 H 0.24065 0.39464 0.23379 0.0
H2455 H 0.3501 0.33056 0.10778 0.0
H2456 H 0.28592 1.00336 0.02578 0.0
H2457 H 0.26612 0.02556 0.0285 0.0
H2458 H 0.22253 0.97865 0.0334 0.0
H2459 H 0.24216 0.95628 0.03041 0.0
H2460 H 0.21288 1.001 0.00997 0.0
H2461 H 0.24421 0.01077 0.07324 0.0
H2462 H 0.27071 0.01826 0.09661 0.0
H2463 H 0.28722 0.0743 0.0819 0.0
H2464 H 0.26091 0.06701 0.05824 0.0
H2465 H 0.15202 0.04446 0.059 0.0
H2466 H 0.17618 0.02816 0.05359 0.0
H2467 H 0.20774 0.07905 0.03781 0.0
H2468 H 0.18322 0.09535 0.04243 0.0
H2469 H 0.22543 0.05809 0.06404 0.0
H2470 H 0.19146 0.04899 1.0032 0.0
H2471 H 0.16435 0.04095 0.9807 0.0
H2472 H 0.15245 0.98285 0.99108 0.0
H2473 H 0.17917 0.99072 0.01421 0.0
C2474 C 0.2721 0.99773 0.02731 0.0
C2475 C 0.26561 0.97808 0.02801 0.0
C2476 C 0.26083 0.01046 0.02892 0.0
C2477 C 0.24294 1.00379 0.03141 0.0
C2478 C 0.23632 0.98408 0.03152 0.0
C2479 C 0.24756 0.97133 0.02986 0.0
C2480 C 0.23112 0.01735 0.03436 0.0
C2481 C 0.21557 0.01342 0.02184 0.0
C2482 C 0.23492 0.03385 0.04956 0.0
C2483 C 0.25071 0.03826 0.06381 0.0
C2484 C 0.25357 0.02462 0.07487 0.0
C2485 C 0.26854 0.02884 0.08819 0.0
C2486 C 0.28067 0.04672 0.09069 0.0
C2487 C 0.27783 0.06044 0.07992 0.0
C2488 C 0.26289 0.05628 0.06656 0.0
C2489 C 0.16409 0.05224 0.0544 0.0
C2490 C 0.1656 0.07106 0.05075 0.0
C2491 C 0.17789 0.04294 0.05142 0.0
C2492 C 0.19353 0.05236 0.04504 0.0
C2493 C 0.19566 0.0716 0.04267 0.0
C2494 C 0.1817 0.08089 0.0454 0.0
C2495 C 0.2071 0.04145 0.03988 0.0
C2496 C 0.22292 0.04585 0.05199 0.0
C2497 C 0.20351 0.0253 0.02436 0.0
C2498 C 0.18725 0.02054 0.01065 0.0
C2499 C 0.18293 0.03459 1.00095 0.0
C2500 C 0.16762 0.03006 0.98807 0.0
C2501 C 0.15662 0.01144 0.98457 0.0
C2502 C 0.16092 0.99731 0.99393 0.0
C2503 C 0.17613 1.00181 0.00695 0.0
H2504 H 0.14481 0.00794 0.97454 0.0
H2505 H 0.29225 0.04996 0.10101 0.0
H2506 H 0.72962 0.67623 0.0271 0.0
H2507 H 0.7002 0.65509 0.02509 0.0
H2508 H 0.71379 0.61407 0.97944 0.0
H2509 H 0.74356 0.63516 0.98148 0.0
H2510 H 0.67862 0.62274 0.97335 0.0
H2511 H 0.71395 0.60215 0.0199 0.0
H2512 H 0.73518 0.60694 0.04859 0.0
H2513 H 0.70018 0.63232 0.08436 0.0
H2514 H 0.67885 0.62795 0.05582 0.0
H2515 H 0.60015 0.55137 0.98209 0.0
H2516 H 0.63046 0.56778 0.97832 0.0
H2517 H 0.63155 0.60866 0.03135 0.0
H2518 H 0.60176 0.59206 0.03558 0.0
H2519 H 0.66075 0.59639 0.03133 0.0
H2520 H 0.62717 0.62078 0.98607 0.0
H2521 H 0.60563 0.61801 0.95815 0.0
H2522 H 0.63653 0.5876 0.9209 0.0
H2523 H 0.65817 0.59002 0.94867 0.0
C2524 C 0.7264 0.66277 0.01655 0.0
C2525 C 0.73899 0.65735 0.0045 0.0
C2526 C 0.70956 0.65069 0.01545 0.0
C2527 C 0.70486 0.63299 1.00219 0.0
C2528 C 0.71718 0.62769 0.98976 0.0
C2529 C 0.73419 0.6397 0.99101 0.0
C2530 C 0.68721 0.61992 1.00197 0.0
C2531 C 0.67476 0.61663 0.98585 0.0
C2532 C 0.68212 0.61234 0.01846 0.0
C2533 C 0.69486 0.61485 0.03568 0.0
C2534 C 0.71084 0.60889 0.03385 0.0
C2535 C 0.72288 0.61151 0.0501 0.0
C2536 C 0.71905 0.61996 0.06828 0.0
C2537 C 0.70314 0.62578 0.07026 0.0
C2538 C 0.69106 0.62322 0.05406 0.0
C2539 C 0.60689 0.56376 0.99301 0.0
C2540 C 0.59856 0.57012 0.00932 0.0
C2541 C 0.62417 0.57326 0.99074 0.0
C2542 C 0.63334 0.58949 0.00457 0.0
C2543 C 0.62485 0.59609 0.02057 0.0
C2544 C 0.60771 0.58656 0.02291 0.0
C2545 C 0.6519 0.59951 1.00286 0.0
C2546 C 0.66458 0.60223 0.01867 0.0
C2547 C 0.65709 0.60676 0.98619 0.0
C2548 C 0.64417 0.60538 0.96947 0.0
C2549 C 0.6293 0.61337 0.97195 0.0
C2550 C 0.61709 0.61189 0.95615 0.0
C2551 C 0.61967 0.60257 0.93777 0.0
C2552 C 0.63452 0.59478 0.93515 0.0
C2553 C 0.64677 0.59622 0.95091 0.0
H2554 H 0.6102 0.60142 0.92555 0.0
H2555 H 0.72839 0.62198 0.08084 0.0
H2556 H 0.67722 0.43354 0.27318 0.0
H2557 H 0.69501 0.40967 0.27264 0.0
H2558 H 0.74131 0.45255 0.2666 0.0
H2559 H 0.72315 0.47684 0.26675 0.0
H2560 H 0.74463 0.41896 0.24583 0.0
H2561 H 0.73181 0.43453 0.31137 0.0
H2562 H 0.71314 0.43924 0.33809 0.0
H2563 H 0.68477 0.37967 0.32181 0.0
H2564 H 0.70314 0.37467 0.29484 0.0
H2565 H 0.77676 0.32985 0.24345 0.0
H2566 H 0.76178 0.35609 0.2405 0.0
H2567 H 0.76553 0.37228 0.30265 0.0
H2568 H 0.77909 0.34533 0.30532 0.0
H2569 H 0.73781 0.37776 0.29517 0.0
H2570 H 0.74519 0.38062 0.21803 0.0
H2571 H 0.766 0.38056 0.19288 0.0
H2572 H 0.80922 0.40965 0.23589 0.0
H2573 H 0.78878 0.40882 0.26142 0.0
C2574 C 0.6912 0.43822 0.27175 0.0
C2575 C 0.6984 0.45768 0.27015 0.0
C2576 C 0.70158 0.42426 0.27158 0.0
C2577 C 0.71998 0.4288 0.27002 0.0
C2578 C 0.72729 0.44815 0.26796 0.0
C2579 C 0.71679 0.46227 0.26809 0.0
C2580 C 0.73119 0.41342 0.27072 0.0
C2581 C 0.74309 0.41008 0.25676 0.0
C2582 C 0.7298 0.40136 0.2848 0.0
C2583 C 0.71874 0.40428 0.30099 0.0
C2584 C 0.72151 0.42247 0.31342 0.0
C2585 C 0.71099 0.42519 0.32862 0.0
C2586 C 0.69775 0.40977 0.33162 0.0
C2587 C 0.69502 0.3916 0.31945 0.0
C2588 C 0.70549 0.38881 0.30422 0.0
C2589 C 0.77473 0.33926 0.25649 0.0
C2590 C 0.77963 0.3353 0.27469 0.0
C2591 C 0.76609 0.35467 0.25485 0.0
C2592 C 0.76217 0.36714 0.27132 0.0
C2593 C 0.76772 0.36333 0.2894 0.0
C2594 C 0.77588 0.34779 0.29099 0.0
C2595 C 0.75157 0.38317 0.27033 0.0
C2596 C 0.73959 0.38663 0.28426 0.0
C2597 C 0.75308 0.39548 0.25641 0.0
C2598 C 0.76557 0.39436 0.24157 0.0
C2599 C 0.7592 0.38665 0.22211 0.0
C2600 C 0.77093 0.38666 0.20784 0.0
C2601 C 0.78898 0.39482 0.21284 0.0
C2602 C 0.79532 0.4029 0.23213 0.0
C2603 C 0.78371 0.40246 0.24653 0.0
H2604 H 0.79803 0.39505 0.20176 0.0
H2605 H 0.68962 0.4119 0.34339 0.0
H2606 H 0.86556 0.50595 0.53249 0.0
H2607 H 0.89773 0.51558 0.5328 0.0
H2608 H 0.90327 0.47124 0.56495 0.0
H2609 H 0.87124 0.46245 0.56568 0.0
H2610 H 0.92926 0.49941 0.57653 0.0
H2611 H 0.90331 0.465 0.51419 0.0
H2612 H 0.88349 0.457 0.48395 0.0
H2613 H 0.9078 0.51158 0.46981 0.0
H2614 H 0.9276 0.52006 0.50014 0.0
H2615 H 0.01218 0.48824 0.53499 0.0
H2616 H 0.98029 0.48065 0.53861 0.0
H2617 H 0.97985 0.54096 0.543 0.0
H2618 H 0.01157 0.54871 0.54052 0.0
H2619 H 0.95204 0.50366 0.51289 0.0
H2620 H 0.97744 0.53611 0.58013 0.0
H2621 H 0.99733 0.53855 0.60941 0.0
H2622 H 0.97404 0.4793 0.61154 0.0
H2623 H 0.95419 0.47646 0.58217 0.0
C2624 C 0.87372 0.49857 0.53995 0.0
C2625 C 0.86598 0.48343 0.54898 0.0
C2626 C 0.89206 0.50393 0.53998 0.0
C2627 C 0.90291 0.49374 0.5484 0.0
C2628 C 0.89521 0.47927 0.55828 0.0
C2629 C 0.87689 0.47426 0.55871 0.0
C2630 C 0.92214 0.49752 0.54614 0.0
C2631 C 0.93415 0.50022 0.56255 0.0
C2632 C 0.92865 0.49831 0.52787 0.0
C2633 C 0.91678 0.49328 0.50958 0.0
C2634 C 0.90433 0.47538 0.50472 0.0
C2635 C 0.8931 0.47074 0.48755 0.0
C2636 C 0.89433 0.4838 0.475 0.0
C2637 C 0.90683 0.5015 0.47957 0.0
C2638 C 0.91806 0.50623 0.49675 0.0
C2639 C 0.0052 0.49981 0.53663 0.0
C2640 C 0.01423 0.51897 0.53677 0.0
C2641 C 0.9871 0.49548 0.53872 0.0
C2642 C 0.97789 0.51029 0.54102 0.0
C2643 C 0.98683 0.52938 0.54116 0.0
C2644 C 0.00494 0.53375 0.53946 0.0
C2645 C 0.95885 0.50592 0.54323 0.0
C2646 C 0.94697 0.50297 0.52678 0.0
C2647 C 0.95245 0.50422 0.56126 0.0
C2648 C 0.9645 0.50601 0.57884 0.0
C2649 C 0.97672 0.52354 0.58672 0.0
C2650 C 0.98794 0.52502 0.60338 0.0
C2651 C 0.98696 0.50908 0.61233 0.0
C2652 C 0.97478 0.49164 0.60463 0.0
C2653 C 0.96355 0.49009 0.58798 0.0
H2654 H 0.99558 0.51023 0.62526 0.0
H2655 H 0.88563 0.48018 0.46171 0.0
H2656 H 0.3642 0.08212 0.28904 0.0
H2657 H 0.35086 0.1078 0.28089 0.0
H2658 H 0.40286 0.14476 0.28253 0.0
H2659 H 0.41625 0.11943 0.29119 0.0
H2660 H 0.38082 0.16546 0.29755 0.0
H2661 H 0.37992 0.11769 0.23973 0.0
H2662 H 0.37256 0.08481 0.2195 0.0
H2663 H 0.31721 0.08171 0.22368 0.0
H2664 H 0.32426 0.11451 0.24415 0.0
H2665 H 0.3683 0.22739 0.2336 0.0
H2666 H 0.3769 0.20223 0.24847 0.0
H2667 H 0.32188 0.17529 0.24997 0.0
H2668 H 0.31321 0.20046 0.23498 0.0
H2669 H 0.34225 0.14925 0.23569 0.0
H2670 H 0.34437 0.20067 0.28951 0.0
H2671 H 0.35321 0.23442 0.30757 0.0
H2672 H 0.40776 0.23133 0.30993 0.0
H2673 H 0.39934 0.19788 0.29127 0.0
C2674 C 0.37278 0.0958 0.28785 0.0
C2675 C 0.39128 0.09868 0.29054 0.0
C2676 C 0.36514 0.11043 0.28317 0.0
C2677 C 0.37588 0.12807 0.28079 0.0
C2678 C 0.39432 0.13126 0.28427 0.0
C2679 C 0.40195 0.11672 0.28913 0.0
C2680 C 0.36808 0.14278 0.27353 0.0
C2681 C 0.37245 0.16196 0.28399 0.0
C2682 C 0.35689 0.1381 0.256 0.0
C2683 C 0.35262 0.11844 0.24365 0.0
C2684 C 0.36619 0.10993 0.23645 0.0
C2685 C 0.36207 0.09133 0.22493 0.0
C2686 C 0.34443 0.08115 0.22036 0.0
C2687 C 0.33086 0.0896 0.22726 0.0
C2688 C 0.33491 0.10819 0.23882 0.0
C2689 C 0.35807 0.21604 0.23697 0.0
C2690 C 0.34012 0.21584 0.23314 0.0
C2691 C 0.36298 0.20178 0.24559 0.0
C2692 C 0.35 0.18705 0.25045 0.0
C2693 C 0.33206 0.18661 0.24638 0.0
C2694 C 0.32715 0.201 0.23791 0.0
C2695 C 0.35526 0.17195 0.25954 0.0
C2696 C 0.3504 0.15271 0.24941 0.0
C2697 C 0.36615 0.17665 0.27724 0.0
C2698 C 0.37121 0.19675 0.2888 0.0
C2699 C 0.35827 0.20725 0.29368 0.0
C2700 C 0.36321 0.22637 0.30402 0.0
C2701 C 0.38105 0.23508 0.30981 0.0
C2702 C 0.39395 0.22465 0.30535 0.0
C2703 C 0.38911 0.20561 0.29486 0.0
H2704 H 0.38486 0.24989 0.31779 0.0
H2705 H 0.34127 0.06675 0.21144 0.0
H2706 H 0.32521 0.12998 0.51354 0.0
H2707 H 0.34555 0.10907 0.51729 0.0
H2708 H 0.39 0.15791 0.5222 0.0
H2709 H 0.36977 0.17887 0.51817 0.0
H2710 H 0.39654 0.12587 0.50025 0.0
H2711 H 0.37533 0.14216 0.56226 0.0
H2712 H 0.35268 0.14492 0.58499 0.0
H2713 H 0.33211 0.08325 0.57078 0.0
H2714 H 0.35451 0.08016 0.54777 0.0
H2715 H 0.46172 0.08828 0.54695 0.0
H2716 H 0.4412 0.10771 0.53897 0.0
H2717 H 0.39769 0.05758 0.53165 0.0
H2718 H 0.41812 0.03792 0.53914 0.0
H2719 H 0.3904 0.08959 0.55382 0.0
H2720 H 0.41456 0.07336 0.4942 0.0
H2721 H 0.43851 0.07131 0.47319 0.0
H2722 H 0.45391 0.13339 0.48241 0.0
H2723 H 0.43076 0.1359 0.50452 0.0
C2724 C 0.33931 0.13628 0.51532 0.0
C2725 C 0.34583 0.15616 0.5157 0.0
C2726 C 0.35093 0.1243 0.51751 0.0
C2727 C 0.36932 0.13195 0.52028 0.0
C2728 C 0.37588 0.15167 0.5201 0.0
C2729 C 0.36427 0.16366 0.51788 0.0
C2730 C 0.38168 0.11959 0.52405 0.0
C2731 C 0.39535 0.1181 0.51209 0.0
C2732 C 0.37991 0.10914 0.53927 0.0
C2733 C 0.36647 0.11095 0.55315 0.0
C2734 C 0.36589 0.1292 0.56388 0.0
C2735 C 0.35312 0.13083 0.57683 0.0
C2736 C 0.34094 0.11428 0.57929 0.0
C2737 C 0.34154 0.09606 0.56884 0.0
C2738 C 0.35428 0.09436 0.55585 0.0
C2739 C 0.44783 0.08129 0.54338 0.0
C2740 C 0.44161 0.06148 0.54368 0.0
C2741 C 0.4361 0.09246 0.53889 0.0
C2742 C 0.41792 0.08407 0.5346 0.0
C2743 C 0.41166 0.06436 0.53497 0.0
C2744 C 0.42337 0.05317 0.53935 0.0
C2745 C 0.40534 0.0959 0.53009 0.0
C2746 C 0.39161 0.09729 0.54193 0.0
C2747 C 0.40716 0.10631 0.51481 0.0
C2748 C 0.421 0.10482 0.50128 0.0
C2749 C 0.42318 0.08661 0.492 0.0
C2750 C 0.43662 0.08535 0.47985 0.0
C2751 C 0.44763 0.10218 0.47632 0.0
C2752 C 0.44535 0.12034 0.48513 0.0
C2753 C 0.43214 0.1217 0.49759 0.0
H2754 H 0.45794 0.10115 0.46679 0.0
H2755 H 0.33106 0.11556 0.58933 0.0
H2756 H 0.72119 0.57194 0.28859 0.0
H2757 H 0.73941 0.60503 0.29075 0.0
H2758 H 0.69887 0.61783 0.25451 0.0
H2759 H 0.68093 0.58523 0.25223 0.0
H2760 H 0.72915 0.63246 0.2431 0.0
H2761 H 0.70713 0.63523 0.30573 0.0
H2762 H 0.70262 0.62549 0.33714 0.0
H2763 H 0.75885 0.6388 0.3518 0.0
H2764 H 0.76369 0.6484 0.32035 0.0
H2765 H 0.75337 0.73501 0.25683 0.0
H2766 H 0.73859 0.70153 0.25706 0.0
H2767 H 0.78236 0.69636 0.29431 0.0
H2768 H 0.79697 0.73027 0.29469 0.0
H2769 H 0.75303 0.67711 0.30541 0.0
H2770 H 0.77525 0.67602 0.24384 0.0
H2771 H 0.78004 0.68629 0.21272 0.0
H2772 H 0.72409 0.66948 0.1959 0.0
H2773 H 0.71892 0.6594 0.22707 0.0
C2774 C 0.71615 0.58179 0.28108 0.0
C2775 C 0.69939 0.57557 0.27027 0.0
C2776 C 0.72659 0.60089 0.28239 0.0
C2777 C 0.72065 0.61442 0.27291 0.0
C2778 C 0.70403 0.60804 0.262 0.0
C2779 C 0.69364 0.58916 0.26078 0.0
C2780 C 0.73144 0.63509 0.27402 0.0
C2781 C 0.73417 0.64218 0.25681 0.0
C2782 C 0.73865 0.64807 0.29173 0.0
C2783 C 0.73577 0.64231 0.3106 0.0
C2784 C 0.71853 0.63593 0.31559 0.0
C2785 C 0.71592 0.63046 0.33341 0.0
C2786 C 0.73044 0.63146 0.34643 0.0
C2787 C 0.74761 0.63799 0.34168 0.0
C2788 C 0.7503 0.64346 0.32387 0.0
C2789 C 0.75997 0.72688 0.26513 0.0
C2790 C 0.77672 0.7356 0.27542 0.0
C2791 C 0.75146 0.70746 0.26515 0.0
C2792 C 0.75935 0.6958 0.27532 0.0
C2793 C 0.77585 0.70465 0.28612 0.0
C2794 C 0.78436 0.72416 0.28616 0.0
C2795 C 0.75044 0.67453 0.27449 0.0
C2796 C 0.74808 0.66734 0.29171 0.0
C2797 C 0.74363 0.66139 0.25677 0.0
C2798 C 0.74669 0.66711 0.23787 0.0
C2799 C 0.76395 0.67461 0.23355 0.0
C2800 C 0.76674 0.6804 0.2159 0.0
C2801 C 0.75238 0.67858 0.20236 0.0
C2802 C 0.7352 0.6709 0.20641 0.0
C2803 C 0.73234 0.66513 0.22407 0.0
H2804 H 0.75456 0.68308 0.18871 0.0
H2805 H 0.72839 0.62723 0.36022 0.0
H2806 H 0.89028 0.49682 0.74853 0.0
H2807 H 0.87728 0.46269 0.74832 0.0
H2808 H 0.86101 0.47844 0.80524 0.0
H2809 H 0.87436 0.51249 0.80576 0.0
H2810 H 0.87617 0.44936 0.80391 0.0
H2811 H 0.83114 0.46426 0.76389 0.0
H2812 H 0.81903 0.47603 0.73651 0.0
H2813 H 0.83631 0.43317 0.69649 0.0
H2814 H 0.84874 0.42131 0.72365 0.0
H2815 H 0.80353 0.35156 0.76401 0.0
H2816 H 0.81409 0.38667 0.76958 0.0
H2817 H 0.86661 0.38068 0.78618 0.0
H2818 H 0.85513 0.34605 0.78388 0.0
H2819 H 0.8333 0.40579 0.75153 0.0
H2820 H 0.89263 0.41288 0.8013 0.0
H2821 H 0.90436 0.40534 0.83152 0.0
H2822 H 0.85587 0.40939 0.85619 0.0
H2823 H 0.84349 0.41591 0.82564 0.0
C2824 C 0.88382 0.49303 0.76094 0.0
C2825 C 0.88338 0.50735 0.77718 0.0
C2826 C 0.87633 0.47352 0.76076 0.0
C2827 C 0.86804 0.46803 0.7767 0.0
C2828 C 0.86737 0.48235 0.7928 0.0
C2829 C 0.87498 0.50181 0.79306 0.0
C2830 C 0.86075 0.44731 0.77703 0.0
C2831 C 0.86665 0.43985 0.79253 0.0
C2832 C 0.84842 0.43488 0.76218 0.0
C2833 C 0.84102 0.44203 0.74581 0.0
C2834 C 0.83249 0.45746 0.74925 0.0
C2835 C 0.82555 0.46412 0.73377 0.0
C2836 C 0.82694 0.45539 0.71477 0.0
C2837 C 0.83526 0.43994 0.71122 0.0
C2838 C 0.84225 0.43323 0.72665 0.0
C2839 C 0.81696 0.35798 0.7703 0.0
C2840 C 0.82817 0.34631 0.7749 0.0
C2841 C 0.82321 0.37805 0.77295 0.0
C2842 C 0.84119 0.38676 0.77891 0.0
C2843 C 0.85254 0.37485 0.78277 0.0
C2844 C 0.84604 0.3549 0.78106 0.0
C2845 C 0.84821 0.40775 0.77887 0.0
C2846 C 0.84254 0.41527 0.76316 0.0
C2847 C 0.86052 0.42038 0.79372 0.0
C2848 C 0.86699 0.41427 0.8111 0.0
C2849 C 0.88434 0.41169 0.81304 0.0
C2850 C 0.89106 0.40752 0.83016 0.0
C2851 C 0.88072 0.40655 0.84564 0.0
C2852 C 0.86364 0.40967 0.84399 0.0
C2853 C 0.85667 0.4133 0.82669 0.0
H2854 H 0.88601 0.40359 0.85899 0.0
H2855 H 0.82155 0.46056 0.70281 0.0
H2856 H 0.07683 0.87514 0.11368 0.0
H2857 H 0.07355 0.90521 0.10359 0.0
H2858 H 0.07295 0.87809 0.04396 0.0
H2859 H 0.07588 0.84795 0.05388 0.0
H2860 H 0.09445 0.91672 0.05324 0.0
H2861 H 0.03525 0.88272 0.06043 0.0
H2862 H 0.01209 0.86612 0.07806 0.0
H2863 H 0.01954 0.91777 0.12171 0.0
H2864 H 0.04294 0.93461 0.10447 0.0
H2865 H 0.0651 0.99071 0.01242 0.0
H2866 H 0.06786 0.95919 0.01974 0.0
H2867 H 0.05931 0.97871 0.07908 0.0
H2868 H 0.0564 0.00979 0.07174 0.0
H2869 H 0.04185 0.94284 0.06858 0.0
H2870 H 0.10096 0.97668 0.06479 0.0
H2871 H 0.12572 0.99467 0.05017 0.0
H2872 H 0.1205 0.94563 0.00384 0.0
H2873 H 0.09551 0.92741 0.01807 0.0
C2874 C 0.07612 0.87558 0.09842 0.0
C2875 C 0.07661 0.85896 0.08465 0.0
C2876 C 0.07417 0.89282 0.09264 0.0
C2877 C 0.0729 0.89406 0.07293 0.0
C2878 C 0.0739 0.87766 0.05922 0.0
C2879 C 0.07553 0.86034 0.06496 0.0
C2880 C 0.0701 0.91219 0.06658 0.0
C2881 C 0.08281 0.92225 0.05636 0.0
C2882 C 0.05518 0.91989 0.071 0.0
C2883 C 0.04097 0.90986 0.08126 0.0
C2884 C 0.03204 0.8905 0.07386 0.0
C2885 C 0.01886 0.88105 0.08377 0.0
C2886 C 0.01438 0.89086 0.10102 0.0
C2887 C 0.02304 0.91018 0.10836 0.0
C2888 C 0.03626 0.91968 0.09852 0.0
C2889 C 0.06355 0.98809 0.02692 0.0
C2890 C 0.06009 1.00261 0.04139 0.0
C2891 C 0.06532 0.97012 0.0312 0.0
C2892 C 0.06387 0.96634 0.05008 0.0
C2893 C 0.06037 0.98094 0.06439 0.0
C2894 C 0.05873 0.99881 0.06017 0.0
C2895 C 0.06627 0.94752 0.05528 0.0
C2896 C 0.05346 0.9373 0.06532 0.0
C2897 C 0.08129 0.9399 0.05104 0.0
C2898 C 0.09624 0.95077 0.04237 0.0
C2899 C 0.10499 0.96979 0.05139 0.0
C2900 C 0.11907 0.98001 0.0432 0.0
C2901 C 0.12464 0.97131 0.02607 0.0
C2902 C 0.11614 0.95235 0.0171 0.0
C2903 C 0.10202 0.94206 0.02522 0.0
H2904 H 0.13557 0.97925 0.0198 0.0
H2905 H 1.00418 0.88352 0.10868 0.0
H2906 H 0.97091 0.25453 0.867 0.0
H2907 H 0.94407 0.25418 0.84676 0.0
H2908 H 0.92189 0.27869 0.89729 0.0
H2909 H 0.94821 0.27846 0.91748 0.0
H2910 H 0.89689 0.25306 0.8766 0.0
H2911 H 0.94046 0.30547 0.86184 0.0
H2912 H 0.9687 0.32107 0.85114 0.0
H2913 H 0.95571 0.28268 0.79575 0.0
H2914 H 0.92748 0.26668 0.80621 0.0
H2915 H 0.83202 0.29264 0.83163 0.0
H2916 H 0.85687 0.2862 0.85 0.0
H2917 H 0.87103 0.25446 0.79782 0.0
H2918 H 0.84584 0.26034 0.77945 0.0
H2919 H 0.89975 0.28173 0.81779 0.0
H2920 H 0.85775 0.22747 0.83431 0.0
H2921 H 0.83035 0.21105 0.84609 0.0
H2922 H 0.8401 0.25483 0.89788 0.0
H2923 H 0.86799 0.27104 0.88678 0.0
C2924 C 0.9603 0.25981 0.87379 0.0
C2925 C 0.96187 0.26653 0.89395 0.0
C2926 C 0.94493 0.25973 0.86216 0.0
C2927 C 0.93081 0.26665 0.87032 0.0
C2928 C 0.93239 0.2732 0.89046 0.0
C2929 C 0.9476 0.27311 0.90206 0.0
C2930 C 0.91439 0.26713 0.85816 0.0
C2931 C 0.89765 0.25955 0.86387 0.0
C2932 C 0.915 0.27516 0.84119 0.0
C2933 C 0.93196 0.28473 0.83488 0.0
C2934 C 0.94369 0.30025 0.84743 0.0
C2935 C 0.95968 0.30919 0.8414 0.0
C2936 C 0.96402 0.30283 0.8228 0.0
C2937 C 0.95235 0.28756 0.81016 0.0
C2938 C 0.93635 0.27856 0.81613 0.0
C2939 C 0.84022 0.28406 0.82399 0.0
C2940 C 0.83712 0.27763 0.80375 0.0
C2941 C 0.85449 0.28032 0.83461 0.0
C2942 C 0.86607 0.26995 0.82538 0.0
C2943 C 0.86252 0.26271 0.80535 0.0
C2944 C 0.84813 0.26627 0.79476 0.0
C2945 C 0.88242 0.26781 0.83636 0.0
C2946 C 0.8991 0.27515 0.83046 0.0
C2947 C 0.8818 0.25975 0.85323 0.0
C2948 C 0.8648 0.25054 0.85964 0.0
C2949 C 0.85397 0.23365 0.84815 0.0
C2950 C 0.83841 0.22433 0.85473 0.0
C2951 C 0.83335 0.23202 0.87258 0.0
C2952 C 0.84399 0.24892 0.88402 0.0
C2953 C 0.85976 0.25808 0.87768 0.0
H2954 H 0.82127 0.22481 0.8776 0.0
H2955 H 0.97641 0.30977 0.81815 0.0
H2956 H 0.58919 0.25403 0.59973 0.0
H2957 H 0.58912 0.21991 0.58772 0.0
H2958 H 0.53365 0.20831 0.56797 0.0
H2959 H 0.53354 0.24211 0.58048 0.0
H2960 H 0.53769 0.18117 0.58463 0.0
H2961 H 0.56868 0.20975 0.5366 0.0
H2962 H 0.5918 0.23218 0.52397 0.0
H2963 H 0.63191 0.20914 0.54945 0.0
H2964 H 0.60904 0.18672 0.56245 0.0
H2965 H 0.5502 0.08874 0.51889 0.0
H2966 H 0.55424 0.12422 0.52459 0.0
H2967 H 0.56457 0.12725 0.58577 0.0
H2968 H 0.56103 0.09207 0.58009 0.0
H2969 H 0.58227 0.15802 0.54492 0.0
H2970 H 0.53723 0.15478 0.60717 0.0
H2971 H 0.51267 0.1315 0.61681 0.0
H2972 H 0.49766 0.10355 0.55737 0.0
H2973 H 0.5219 0.12687 0.54736 0.0
C2974 C 0.57702 0.24426 0.59262 0.0
C2975 C 0.56137 0.25094 0.59112 0.0
C2976 C 0.577 0.22467 0.58567 0.0
C2977 C 0.56139 0.21128 0.57672 0.0
C2978 C 0.54588 0.21812 0.57485 0.0
C2979 C 0.54586 0.23758 0.58197 0.0
C2980 C 0.56087 0.19006 0.57013 0.0
C2981 C 0.54748 0.17626 0.57591 0.0
C2982 C 0.57338 0.18325 0.55845 0.0
C2983 C 0.58715 0.19669 0.55065 0.0
C2984 C 0.58244 0.20956 0.53963 0.0
C2985 C 0.5955 0.22226 0.53238 0.0
C2986 C 0.61331 0.22212 0.53595 0.0
C2987 C 0.6181 0.20925 0.54672 0.0
C2988 C 0.6051 0.19653 0.55402 0.0
C2989 C 0.55391 0.09705 0.53345 0.0
C2990 C 0.55561 0.08762 0.54902 0.0
C2991 C 0.55614 0.11735 0.53672 0.0
C2992 C 0.55964 0.12847 0.55564 0.0
C2993 C 0.56186 0.11906 0.57106 0.0
C2994 C 0.55984 0.09893 0.56779 0.0
C2995 C 0.55935 0.14952 0.55975 0.0
C2996 C 0.57254 0.16313 0.55358 0.0
C2997 C 0.54643 0.15622 0.57069 0.0
C2998 C 0.5315 0.14246 0.57656 0.0
C2999 C 0.52862 0.14374 0.59616 0.0
C3000 C 0.51476 0.13053 0.60168 0.0
C3001 C 0.50364 0.11602 0.58771 0.0
C3002 C 0.50631 0.11475 0.56818 0.0
C3003 C 0.52012 0.12795 0.56258 0.0
H3004 H 0.49295 0.10579 0.59202 0.0
H3005 H 0.6234 0.23196 0.53032 0.0
H3006 H 0.59255 0.78349 0.42138 0.0
H3007 H 0.61768 0.78571 0.40211 0.0
H3008 H 0.58207 0.76437 0.34994 0.0
H3009 H 0.55669 0.76189 0.36925 0.0
H3010 H 0.60994 0.74746 0.34834 0.0
H3011 H 0.60272 0.81283 0.36412 0.0
H3012 H 0.59986 0.8427 0.38574 0.0
H3013 H 0.65106 0.84814 0.41516 0.0
H3014 H 0.65413 0.81814 0.39387 0.0
H3015 H 0.66838 0.77587 0.2801 0.0
H3016 H 0.64481 0.77075 0.30118 0.0
H3017 H 0.68283 0.79431 0.35119 0.0
H3018 H 0.7066 0.80005 0.32995 0.0
H3019 H 0.65461 0.80956 0.35511 0.0
H3020 H 0.66261 0.74513 0.33871 0.0
H3021 H 0.66568 0.71525 0.31729 0.0
H3022 H 0.61346 0.70779 0.28945 0.0
H3023 H 0.61016 0.7378 0.31052 0.0
C3024 C 0.58997 0.77924 0.4058 0.0
C3025 C 0.57248 0.77258 0.39692 0.0
C3026 C 0.60444 0.78061 0.39475 0.0
C3027 C 0.60189 0.77548 0.37447 0.0
C3028 C 0.58446 0.76849 0.36554 0.0
C3029 C 0.56992 0.76713 0.37661 0.0
C3030 C 0.61739 0.77743 0.36269 0.0
C3031 C 0.61957 0.76111 0.34965 0.0
C3032 C 0.63037 0.79506 0.36475 0.0
C3033 C 0.62857 0.81313 0.37753 0.0
C3034 C 0.61331 0.82031 0.3753 0.0
C3035 C 0.61166 0.83728 0.38747 0.0
C3036 C 0.62525 0.84728 0.40185 0.0
C3037 C 0.64054 0.84036 0.40404 0.0
C3038 C 0.64224 0.82339 0.39191 0.0
C3039 C 0.67181 0.77995 0.29559 0.0
C3040 C 0.68945 0.78856 0.30326 0.0
C3041 C 0.65827 0.77683 0.30769 0.0
C3042 C 0.66192 0.78199 0.32789 0.0
C3043 C 0.6796 0.79017 0.33568 0.0
C3044 C 0.69323 0.7933 0.32351 0.0
C3045 C 0.64713 0.77961 0.34064 0.0
C3046 C 0.64505 0.79587 0.35385 0.0
C3047 C 0.63429 0.7619 0.33878 0.0
C3048 C 0.6362 0.74382 0.3261 0.0
C3049 C 0.65182 0.73721 0.32792 0.0
C3050 C 0.6536 0.72023 0.31586 0.0
C3051 C 0.63979 0.70965 0.30199 0.0
C3052 C 0.62415 0.71601 0.30019 0.0
C3053 C 0.62231 0.73299 0.3122 0.0
H3054 H 0.64118 0.69651 0.29267 0.0
H3055 H 0.62395 0.86042 0.41126 0.0
H3056 H 0.12365 0.26124 0.41426 0.0
H3057 H 0.11679 0.24044 0.43798 0.0
H3058 H 0.06242 0.24489 0.43286 0.0
H3059 H 0.06909 0.26554 0.40906 0.0
H3060 H 0.07761 0.25209 0.47129 0.0
H3061 H 0.07171 0.20428 0.41264 0.0
H3062 H 0.08159 0.18851 0.38261 0.0
H3063 H 0.12537 0.17777 0.41528 0.0
H3064 H 0.1159 0.19372 0.4455 0.0
H3065 H 0.03951 0.17864 0.52166 0.0
H3066 H 0.04726 0.20036 0.49893 0.0
H3067 H 0.09852 0.18664 0.49676 0.0
H3068 H 0.09051 0.16441 0.51894 0.0
H3069 H 0.08544 0.18468 0.4621 0.0
H3070 H 0.0921 0.23187 0.52065 0.0
H3071 H 0.08333 0.24816 0.5511 0.0
H3072 H 0.03995 0.26105 0.5197 0.0
H3073 H 0.04833 0.2446 0.48907 0.0
C3074 C 0.11021 0.25767 0.41806 0.0
C3075 C 0.09692 0.26504 0.40976 0.0
C3076 C 0.10631 0.24577 0.4316 0.0
C3077 C 0.0891 0.24114 0.43715 0.0
C3078 C 0.07579 0.24834 0.42879 0.0
C3079 C 0.07962 0.26005 0.41511 0.0
C3080 C 0.08502 0.2291 0.45198 0.0
C3081 C 0.07911 0.23726 0.46924 0.0
C3082 C 0.08749 0.20999 0.44946 0.0
C3083 C 0.0932 0.20038 0.43131 0.0
C3084 C 0.08354 0.19871 0.41341 0.0
C3085 C 0.08904 0.18971 0.39635 0.0
C3086 C 0.10413 0.18219 0.39703 0.0
C3087 C 0.11371 0.18362 0.41477 0.0
C3088 C 0.10827 0.19263 0.43187 0.0
C3089 C 0.05253 0.18056 0.51656 0.0
C3090 C 0.06444 0.16994 0.52205 0.0
C3091 C 0.05697 0.19298 0.50359 0.0
C3092 C 0.07357 0.19531 0.49622 0.0
C3093 C 0.08564 0.18506 0.50216 0.0
C3094 C 0.08109 0.17243 0.51488 0.0
C3095 C 0.07803 0.20764 0.4816 0.0
C3096 C 0.084 0.19953 0.4643 0.0
C3097 C 0.0758 0.2269 0.48419 0.0
C3098 C 0.07075 0.23684 0.50259 0.0
C3099 C 0.08061 0.23805 0.52025 0.0
C3100 C 0.07572 0.24733 0.53754 0.0
C3101 C 0.06107 0.25559 0.53734 0.0
C3102 C 0.05129 0.25463 0.51984 0.0
C3103 C 0.05612 0.24534 0.50251 0.0
H3104 H 0.0573 0.26278 0.55074 0.0
H3105 H 0.10836 0.17522 0.38381 0.0
H3106 H 0.55514 0.27411 0.21079 0.0
H3107 H 0.58106 0.27051 0.22952 0.0
H3108 H 0.61476 0.29528 0.18962 0.0
H3109 H 0.5888 0.2986 0.17051 0.0
H3110 H 0.62196 0.26246 0.19503 0.0
H3111 H 0.61493 0.32003 0.23587 0.0
H3112 H 0.5991 0.3414 0.25559 0.0
H3113 H 0.58802 0.30093 0.29357 0.0
H3114 H 0.60358 0.27917 0.27392 0.0
H3115 H 0.69793 0.2821 0.27515 0.0
H3116 H 0.67173 0.29102 0.26226 0.0
H3117 H 0.6474 0.23061 0.24011 0.0
H3118 H 0.67384 0.22162 0.25249 0.0
H3119 H 0.63684 0.2836 0.26599 0.0
H3120 H 0.62755 0.22673 0.19491 0.0
H3121 H 0.64527 0.20809 0.17465 0.0
H3122 H 0.69227 0.25247 0.19609 0.0
H3123 H 0.6748 0.27149 0.21623 0.0
C3124 C 0.56808 0.27907 0.20612 0.0
C3125 C 0.5699 0.28651 0.18907 0.0
C3126 C 0.5829 0.27708 0.21692 0.0
C3127 C 0.59983 0.28268 0.211 0.0
C3128 C 0.60178 0.29082 0.19441 0.0
C3129 C 0.58694 0.29277 0.18355 0.0
C3130 C 0.6153 0.27858 0.22124 0.0
C3131 C 0.62523 0.26714 0.21054 0.0
C3132 C 0.61966 0.28483 0.24144 0.0
C3133 C 0.6103 0.29789 0.25332 0.0
C3134 C 0.609 0.31561 0.24834 0.0
C3135 C 0.6001 0.32781 0.25952 0.0
C3136 C 0.59253 0.3225 0.2758 0.0
C3137 C 0.59388 0.30501 0.28095 0.0
C3138 C 0.60276 0.29275 0.26981 0.0
C3139 C 0.68691 0.27071 0.26768 0.0
C3140 C 0.688 0.25119 0.26453 0.0
C3141 C 0.67192 0.27582 0.26047 0.0
C3142 C 0.65779 0.2615 0.24996 0.0
C3143 C 0.65831 0.24189 0.24796 0.0
C3144 C 0.67334 0.23676 0.25516 0.0
C3145 C 0.64324 0.26724 0.23979 0.0
C3146 C 0.6335 0.27893 0.25049 0.0
C3147 C 0.63928 0.26161 0.2195 0.0
C3148 C 0.64988 0.25041 0.20723 0.0
C3149 C 0.64165 0.23253 0.19524 0.0
C3150 C 0.65165 0.2219 0.18378 0.0
C3151 C 0.66989 0.22906 0.18414 0.0
C3152 C 0.67815 0.2469 0.19588 0.0
C3153 C 0.66821 0.25761 0.20733 0.0
H3154 H 0.67761 0.22079 0.17528 0.0
H3155 H 0.58564 0.33197 0.28444 0.0
H3156 H 0.60618 0.84474 0.91085 0.0
H3157 H 0.60536 0.87536 0.93171 0.0
H3158 H 0.57196 0.8881 0.88724 0.0
H3159 H 0.57311 0.85762 0.86601 0.0
H3160 H 0.59545 0.9206 0.90594 0.0
H3161 H 0.55382 0.86844 0.92301 0.0
H3162 H 0.54374 0.83655 0.93186 0.0
H3163 H 0.57976 0.85517 0.98356 0.0
H3164 H 0.59026 0.88712 0.97486 0.0
H3165 H 0.54766 0.97841 0.96449 0.0
H3166 H 0.55639 0.95238 0.94309 0.0
H3167 H 0.5975 0.95216 0.98653 0.0
H3168 H 0.58935 0.97888 0.00796 0.0
H3169 H 0.57243 0.91457 0.96923 0.0
H3170 H 0.61165 0.96899 0.95183 0.0
H3171 H 0.61868 1.00088 0.94231 0.0
H3172 H 0.58351 0.97788 0.89033 0.0
H3173 H 0.57608 0.94588 0.89965 0.0
C3174 C 0.59878 0.85413 0.90543 0.0
C3175 C 0.58951 0.8487 0.8869 0.0
C3176 C 0.59835 0.87162 0.91736 0.0
C3177 C 0.58837 0.88382 0.91113 0.0
C3178 C 0.57974 0.87887 0.89231 0.0
C3179 C 0.58034 0.86143 0.88025 0.0
C3180 C 0.58593 0.90097 0.92476 0.0
C3181 C 0.59034 0.91928 0.91973 0.0
C3182 C 0.57936 0.89922 0.9428 0.0
C3183 C 0.57297 0.8801 0.94818 0.0
C3184 C 0.55969 0.86569 0.9362 0.0
C3185 C 0.55389 0.84761 0.9412 0.0
C3186 C 0.56115 0.84382 0.95824 0.0
C3187 C 0.57418 0.85812 0.97035 0.0
C3188 C 0.58005 0.87622 0.9654 0.0
C3189 C 0.55863 0.97298 0.96957 0.0
C3190 C 0.56767 0.98061 0.98809 0.0
C3191 C 0.56361 0.95813 0.95724 0.0
C3192 C 0.57759 0.95051 0.96327 0.0
C3193 C 0.58666 0.95796 0.98171 0.0
C3194 C 0.58189 0.97311 0.99396 0.0
C3195 C 0.58206 0.93411 0.95046 0.0
C3196 C 0.57785 0.9159 0.95558 0.0
C3197 C 0.58846 0.93594 0.9324 0.0
C3198 C 0.59319 0.95506 0.92653 0.0
C3199 C 0.60532 0.97075 0.93843 0.0
C3200 C 0.6094 0.98884 0.93306 0.0
C3201 C 0.6015 0.99141 0.91576 0.0
C3202 C 0.5896 0.97586 0.90373 0.0
C3203 C 0.58547 0.95773 0.90904 0.0
H3204 H 0.6046 0.00544 0.91169 0.0
H3205 H 0.55664 0.82981 0.96208 0.0
H3206 H 0.96654 0.73313 0.68837 0.0
H3207 H 0.93613 0.72559 0.69704 0.0
H3208 H 0.93896 0.78673 0.71545 0.0
H3209 H 0.96896 0.79432 0.70587 0.0
H3210 H 0.91934 0.73007 0.72726 0.0
H3211 H 0.90234 0.79837 0.705 0.0
H3212 H 0.91053 0.81914 0.68121 0.0
H3213 H 0.92513 0.77218 0.64409 0.0
H3214 H 0.91674 0.75104 0.66752 0.0
H3215 H 0.84697 0.75423 0.77215 0.0
H3216 H 0.87329 0.7466 0.75845 0.0
H3217 H 0.84981 0.7458 0.70122 0.0
H3218 H 0.82444 0.75544 0.71542 0.0
H3219 H 0.87812 0.76581 0.70255 0.0
H3220 H 0.86466 0.70346 0.71708 0.0
H3221 H 0.8555 0.6772 0.73503 0.0
H3222 H 0.89802 0.70434 0.77935 0.0
H3223 H 0.90776 0.73062 0.7615 0.0
C3224 C 0.96068 0.74493 0.69438 0.0
C3225 C 0.96997 0.76432 0.69623 0.0
C3226 C 0.94333 0.7406 0.69936 0.0
C3227 C 0.93511 0.75559 0.70649 0.0
C3228 C 0.94483 0.77493 0.70943 0.0
C3229 C 0.96199 0.77926 0.70405 0.0
C3230 C 0.9162 0.75122 0.71014 0.0
C3231 C 0.91026 0.73787 0.72191 0.0
C3232 C 0.90411 0.76059 0.70234 0.0
C3233 C 0.90895 0.77315 0.68805 0.0
C3234 C 0.90714 0.79243 0.69169 0.0
C3235 C 0.91186 0.80428 0.67829 0.0
C3236 C 0.91836 0.79699 0.66116 0.0
C3237 C 0.92012 0.77782 0.65738 0.0
C3238 C 0.91539 0.7659 0.67071 0.0
C3239 C 0.8476 0.75241 0.75666 0.0
C3240 C 0.83443 0.75653 0.74489 0.0
C3241 C 0.86244 0.74752 0.74868 0.0
C3242 C 0.86385 0.74577 0.72866 0.0
C3243 C 0.84946 0.74764 0.71674 0.0
C3244 C 0.83498 0.75322 0.72482 0.0
C3245 C 0.88118 0.74536 0.72073 0.0
C3246 C 0.88694 0.7578 0.70797 0.0
C3247 C 0.8928 0.73452 0.72697 0.0
C3248 C 0.88687 0.71904 0.738 0.0
C3249 C 0.872 0.7039 0.73071 0.0
C3250 C 0.86673 0.689 0.74083 0.0
C3251 C 0.87608 0.6892 0.75834 0.0
C3252 C 0.89081 0.70423 0.76576 0.0
C3253 C 0.89629 0.71906 0.75559 0.0
H3254 H 0.87193 0.67766 0.76609 0.0
H3255 H 0.92204 0.8062 0.65082 0.0
H3256 H 0.16153 0.05167 0.84099 0.0
H3257 H 0.14538 0.05149 0.86938 0.0
H3258 H 0.11627 0.9931 0.8457 0.0
H3259 H 0.13242 0.99336 0.81654 0.0
H3260 H 0.09404 0.01132 0.86435 0.0
H3261 H 0.15169 0.0059 0.88486 0.0
H3262 H 0.1843 0.01403 0.88948 0.0
H3263 H 0.18419 0.0702 0.92243 0.0
H3264 H 0.15157 0.06252 0.91778 0.0
H3265 H 0.06103 1.00165 0.95694 0.0
H3266 H 0.07563 0.99803 0.92708 0.0
H3267 H 0.10716 0.05638 0.94488 0.0
H3268 H 0.09264 0.06 0.97475 0.0
H3269 H 0.12782 0.0356 0.92896 0.0
H3270 H 0.06943 0.04044 0.90733 0.0
H3271 H 0.03683 0.03074 0.90404 0.0
H3272 H 0.03845 0.97384 0.87414 0.0
H3273 H 0.0711 0.98312 0.87751 0.0
C3274 C 0.15173 0.03862 0.84157 0.0
C3275 C 0.14864 0.02246 0.82603 0.0
C3276 C 0.14243 0.03852 0.85819 0.0
C3277 C 0.1296 0.02214 0.8605 0.0
C3278 C 0.12607 0.00603 0.8448 0.0
C3279 C 0.13542 0.00615 0.82794 0.0
C3280 C 0.12023 0.02218 0.87921 0.0
C3281 C 0.10158 0.01638 0.87842 0.0
C3282 C 0.12956 0.02896 0.89805 0.0
C3283 C 0.14918 0.0337 0.9008 0.0
C3284 C 0.15862 0.02005 0.89296 0.0
C3285 C 0.17711 0.02457 0.89561 0.0
C3286 C 0.18631 0.04264 0.9062 0.0
C3287 C 0.17704 0.05622 0.9142 0.0
C3288 C 0.15855 0.05179 0.91157 0.0
C3289 C 0.07092 0.01386 0.95452 0.0
C3290 C 0.07523 0.03127 0.96857 0.0
C3291 C 0.07937 0.01177 0.93718 0.0
C3292 C 0.09255 0.02701 0.93299 0.0
C3293 C 0.09712 0.04424 0.94724 0.0
C3294 C 0.08866 0.04634 0.96454 0.0
C3295 C 0.10166 0.0251 0.91411 0.0
C3296 C 0.12029 0.03055 0.91489 0.0
C3297 C 0.09231 0.01785 0.89534 0.0
C3298 C 0.07271 0.01243 0.89282 0.0
C3299 C 0.06284 0.02584 0.90012 0.0
C3300 C 0.04435 0.02042 0.89825 0.0
C3301 C 0.03558 1.00168 0.88892 0.0
C3302 C 0.04527 0.98835 0.88138 0.0
C3303 C 0.06376 0.99368 0.88325 0.0
H3304 H 0.02126 0.99749 0.88753 0.0
H3305 H 0.20062 0.0461 0.90824 0.0
H3306 H 0.79572 0.41364 0.55767 0.0
H3307 H 0.79524 0.38942 0.5779 0.0
H3308 H 0.84411 0.37871 0.55756 0.0
H3309 H 0.84448 0.40256 0.53693 0.0
H3310 H 0.82216 0.34558 0.55981 0.0
H3311 H 0.84368 0.40765 0.60129 0.0
H3312 H 0.84351 0.44119 0.6165 0.0
H3313 H 0.7953 0.42065 0.6408 0.0
H3314 H 0.79503 0.38699 0.62546 0.0
H3315 H 0.84923 0.30515 0.63911 0.0
H3316 H 0.84685 0.32464 0.6145 0.0
H3317 H 0.7952 0.32999 0.63046 0.0
H3318 H 0.79725 0.31014 0.65474 0.0
H3319 H 0.81825 0.36525 0.63014 0.0
H3320 H 0.79815 0.30234 0.58883 0.0
H3321 H 0.80014 0.26918 0.57438 0.0
H3322 H 0.8481 0.29198 0.55075 0.0
H3323 H 0.84653 0.32529 0.5653 0.0
C3324 C 0.80632 0.40605 0.55742 0.0
C3325 C 0.82021 0.4101 0.54582 0.0
C3326 C 0.80605 0.39226 0.56903 0.0
C3327 C 0.81979 0.3825 0.56946 0.0
C3328 C 0.8334 0.38611 0.55746 0.0
C3329 C 0.8336 0.39978 0.54573 0.0
C3330 C 0.82024 0.36893 0.5828 0.0
C3331 C 0.82149 0.34993 0.57522 0.0
C3332 C 0.81916 0.37457 0.60287 0.0
C3333 C 0.81923 0.39481 0.61204 0.0
C3334 C 0.83295 0.4103 0.60972 0.0
C3335 C 0.83295 0.42933 0.6184 0.0
C3336 C 0.81938 0.43305 0.62956 0.0
C3337 C 0.80579 0.41775 0.63211 0.0
C3338 C 0.80571 0.39869 0.62343 0.0
C3339 C 0.83721 0.31013 0.6371 0.0
C3340 C 0.82348 0.30623 0.64897 0.0
C3341 C 0.8359 0.3213 0.62309 0.0
C3342 C 0.82085 0.32871 0.62071 0.0
C3343 C 0.80695 0.32445 0.63217 0.0
C3344 C 0.8082 0.3132 0.64609 0.0
C3345 C 0.82003 0.34191 0.60712 0.0
C3346 C 0.8188 0.36089 0.6147 0.0
C3347 C 0.82138 0.33632 0.58714 0.0
C3348 C 0.82231 0.3163 0.57831 0.0
C3349 C 0.8092 0.30028 0.58069 0.0
C3350 C 0.81024 0.28146 0.57245 0.0
C3351 C 0.82426 0.27847 0.56169 0.0
C3352 C 0.83726 0.29431 0.55911 0.0
C3353 C 0.83629 0.31317 0.56733 0.0
H3354 H 0.82504 0.26389 0.55533 0.0
H3355 H 0.81941 0.44779 0.63629 0.0
H3356 H 0.40964 0.02419 0.36479 0.0
H3357 H 0.43028 0.03002 0.39366 0.0
H3358 H 0.46407 0.07702 0.37377 0.0
H3359 H 0.44361 0.07103 0.34459 0.0
H3360 H 0.4829 0.05379 0.38516 0.0
H3361 H 0.44158 0.0878 0.41499 0.0
H3362 H 0.41219 0.09272 0.42285 0.0
H3363 H 0.4026 0.04122 0.44694 0.0
H3364 H 0.43195 0.03602 0.43921 0.0
H3365 H 0.53852 0.07121 0.4743 0.0
H3366 H 0.51946 0.07671 0.44803 0.0
H3367 H 0.47814 0.02904 0.45637 0.0
H3368 H 0.49682 0.02363 0.48256 0.0
H3369 H 0.46479 0.05917 0.45177 0.0
H3370 H 0.5057 0.02437 0.42001 0.0
H3371 H 0.53554 0.02031 0.41315 0.0
H3372 H 0.54603 0.07376 0.39246 0.0
H3373 H 0.51631 0.07827 0.39944 0.0
C3374 C 0.42135 0.03591 0.36663 0.0
C3375 C 0.42499 0.04711 0.35236 0.0
C3376 C 0.4331 0.03932 0.38323 0.0
C3377 C 0.44862 0.05414 0.38601 0.0
C3378 C 0.45215 0.06556 0.37195 0.0
C3379 C 0.44043 0.06212 0.35529 0.0
C3380 C 0.46166 0.05672 0.40298 0.0
C3381 C 0.47905 0.05539 0.39978 0.0
C3382 C 0.45663 0.0586 0.42202 0.0
C3383 C 0.4389 0.06151 0.42647 0.0
C3384 C 0.43315 0.07748 0.42187 0.0
C3385 C 0.41653 0.08034 0.42634 0.0
C3386 C 0.40552 0.06728 0.43537 0.0
C3387 C 0.41112 0.05131 0.43992 0.0
C3388 C 0.42777 0.04843 0.43555 0.0
C3389 C 0.52541 0.06185 0.47045 0.0
C3390 C 0.51926 0.04688 0.48043 0.0
C3391 C 0.51452 0.06505 0.45548 0.0
C3392 C 0.4974 0.05321 0.45019 0.0
C3393 C 0.49126 0.03841 0.46027 0.0
C3394 C 0.50204 0.03528 0.47521 0.0
C3395 C 0.48584 0.05565 0.43387 0.0
C3396 C 0.46873 0.05794 0.43719 0.0
C3397 C 0.49116 0.05466 0.41496 0.0
C3398 C 0.50887 0.05175 0.41042 0.0
C3399 C 0.51441 0.0353 0.41408 0.0
C3400 C 0.53128 0.03291 0.41016 0.0
C3401 C 0.54268 0.04678 0.4024 0.0
C3402 C 0.5372 0.06304 0.39848 0.0
C3403 C 0.52033 0.06551 0.40241 0.0
H3404 H 0.55576 0.04492 0.39941 0.0
H3405 H 0.39267 0.06954 0.43885 0.0
H3406 H 0.83662 0.72583 0.06847 0.0
H3407 H 0.834 0.74132 0.10158 0.0
H3408 H 0.77764 0.73211 0.08825 0.0
H3409 H 0.78018 0.7169 0.055 0.0
H3410 H 0.79059 0.76668 0.11227 0.0
H3411 H 0.7948 0.70055 0.10981 0.0
H3412 H 0.80841 0.67254 0.10234 0.0
H3413 H 0.85531 0.70437 0.139 0.0
H3414 H 0.84205 0.73267 0.14649 0.0
H3415 H 0.7873 0.74096 0.21659 0.0
H3416 H 0.78538 0.7336 0.18142 0.0
H3417 H 0.80579 0.79428 0.18118 0.0
H3418 H 0.80635 0.80176 0.21657 0.0
H3419 H 0.81189 0.73581 0.1634 0.0
H3420 H 0.80449 0.80483 0.14289 0.0
H3421 H 0.78729 0.83009 0.14734 0.0
H3422 H 0.74114 0.78763 0.15417 0.0
H3423 H 0.75834 0.76236 0.15071 0.0
C3424 C 0.82368 0.72732 0.07247 0.0
C3425 C 0.80859 0.71992 0.05908 0.0
C3426 C 0.8222 0.73616 0.09146 0.0
C3427 C 0.80558 0.73762 0.09754 0.0
C3428 C 0.79061 0.73114 0.08394 0.0
C3429 C 0.79208 0.72237 0.06492 0.0
C3430 C 0.80359 0.74459 0.1183 0.0
C3431 C 0.79527 0.75995 0.12347 0.0
C3432 C 0.80954 0.73578 0.13298 0.0
C3433 C 0.81752 0.71878 0.12854 0.0
C3434 C 0.80807 0.70162 0.11616 0.0
C3435 C 0.81571 0.68569 0.11194 0.0
C3436 C 0.83273 0.6867 0.12014 0.0
C3437 C 0.84214 0.70362 0.13262 0.0
C3438 C 0.83457 0.71961 0.13687 0.0
C3439 C 0.79067 0.75281 0.20893 0.0
C3440 C 0.79672 0.77192 0.21921 0.0
C3441 C 0.78972 0.7486 0.1888 0.0
C3442 C 0.79558 0.76329 0.1784 0.0
C3443 C 0.80082 0.78264 0.18863 0.0
C3444 C 0.80121 0.78695 0.2089 0.0
C3445 C 0.7984 0.75769 0.15754 0.0
C3446 C 0.80716 0.74264 0.15231 0.0
C3447 C 0.79256 0.76652 0.14283 0.0
C3448 C 0.7827 0.78187 0.14681 0.0
C3449 C 0.79074 0.80101 0.14568 0.0
C3450 C 0.78103 0.81532 0.1481 0.0
C3451 C 0.76317 0.8105 0.15121 0.0
C3452 C 0.75504 0.79139 0.15206 0.0
C3453 C 0.76481 0.77713 0.15011 0.0
H3454 H 0.7556 0.82153 0.15287 0.0
H3455 H 0.83863 0.67435 0.11686 0.0
H3456 H 0.1109 0.01743 0.72389 0.0
H3457 H 0.09886 0.02128 0.69262 0.0
H3458 H 0.14854 0.01845 0.66974 0.0
H3459 H 0.16081 0.01465 0.70145 0.0
H3460 H 0.1369 0.0458 0.65624 0.0
H3461 H 0.10806 0.98049 0.65698 0.0
H3462 H 0.0902 0.95319 0.66905 0.0
H3463 H 0.04577 0.9796 0.66938 0.0
H3464 H 0.06345 0.00722 0.65757 0.0
H3465 H 0.10516 0.03845 0.55766 0.0
H3466 H 0.11691 0.03496 0.58915 0.0
H3467 H 0.06574 0.03335 0.60998 0.0
H3468 H 0.05371 0.0362 0.57773 0.0
H3469 H 0.07805 0.00818 0.62469 0.0
H3470 H 0.10808 0.0754 0.62918 0.0
H3471 H 0.12647 0.10399 0.61949 0.0
H3472 H 0.1681 0.07393 0.60955 0.0
H3473 H 0.15009 0.04538 0.6197 0.0
C3474 C 0.11939 0.01741 0.71227 0.0
C3475 C 0.13701 0.01553 0.71568 0.0
C3476 C 0.11232 0.01955 0.69406 0.0
C3477 C 0.12243 0.01996 0.6781 0.0
C3478 C 0.14011 0.01815 0.68141 0.0
C3479 C 0.14721 0.01584 0.69973 0.0
C3480 C 0.11471 0.02289 0.65848 0.0
C3481 C 0.12414 0.03725 0.64932 0.0
C3482 C 0.09772 0.01243 0.64911 0.0
C3483 C 0.08715 0.99604 0.65658 0.0
C3484 C 0.09454 0.98058 0.65982 0.0
C3485 C 0.08443 0.96503 0.66657 0.0
C3486 C 0.06688 0.96468 0.67003 0.0
C3487 C 0.05939 0.9799 0.66673 0.0
C3488 C 0.06944 0.99551 0.66 0.0
C3489 C 0.09634 0.03768 0.56897 0.0
C3490 C 0.07843 0.03803 0.56483 0.0
C3491 C 0.10323 0.03582 0.58734 0.0
C3492 C 0.09262 0.03423 0.60281 0.0
C3493 C 0.07459 0.03462 0.59876 0.0
C3494 C 0.06763 0.03647 0.58018 0.0
C3495 C 0.10021 0.03119 0.62249 0.0
C3496 C 0.09079 0.01676 0.63164 0.0
C3497 C 0.11718 0.0416 0.63193 0.0
C3498 C 0.12767 0.05824 0.62491 0.0
C3499 C 0.12109 0.07487 0.62473 0.0
C3500 C 0.13149 0.09109 0.61931 0.0
C3501 C 0.14839 0.09072 0.61377 0.0
C3502 C 0.15498 0.07418 0.61379 0.0
C3503 C 0.14474 0.05803 0.61951 0.0
H3504 H 0.15642 0.10329 0.60954 0.0
H3505 H 0.05906 0.9526 0.67521 0.0
H3506 H 0.85334 0.43995 0.46473 0.0
H3507 H 0.85228 0.41559 0.43556 0.0
H3508 H 0.79548 0.39825 0.43432 0.0
H3509 H 0.79645 0.42236 0.46376 0.0
H3510 H 0.80992 0.36731 0.42947 0.0
H3511 H 0.815 0.42479 0.40242 0.0
H3512 H 0.82842 0.45827 0.39929 0.0
H3513 H 0.87699 0.442 0.38628 0.0
H3514 H 0.86393 0.40846 0.38957 0.0
H3515 H 0.78674 0.31401 0.33415 0.0
H3516 H 0.79112 0.33594 0.36531 0.0
H3517 H 0.84733 0.35066 0.36067 0.0
H3518 H 0.84279 0.32852 0.32911 0.0
H3519 H 0.83532 0.38217 0.36959 0.0
H3520 H 0.8293 0.3238 0.39433 0.0
H3521 H 0.81527 0.2902 0.39647 0.0
H3522 H 0.76823 0.30788 0.41344 0.0
H3523 H 0.78187 0.34155 0.41112 0.0
C3524 C 0.84059 0.43111 0.45816 0.0
C3525 C 0.82498 0.43308 0.46659 0.0
C3526 C 0.84001 0.4172 0.44145 0.0
C3527 C 0.82379 0.40515 0.43274 0.0
C3528 C 0.80814 0.40737 0.44087 0.0
C3529 C 0.80871 0.42124 0.45762 0.0
C3530 C 0.82318 0.38984 0.41547 0.0
C3531 C 0.81531 0.37056 0.41629 0.0
C3532 C 0.8307 0.39403 0.39852 0.0
C3533 C 0.83855 0.41417 0.39644 0.0
C3534 C 0.82859 0.42839 0.39904 0.0
C3535 C 0.83612 0.44737 0.39721 0.0
C3536 C 0.85357 0.45227 0.39264 0.0
C3537 C 0.86349 0.43819 0.38984 0.0
C3538 C 0.85603 0.41919 0.39167 0.0
C3539 C 0.80007 0.32111 0.34015 0.0
C3540 C 0.81446 0.31899 0.32957 0.0
C3541 C 0.80259 0.33389 0.35792 0.0
C3542 C 0.8196 0.34471 0.36553 0.0
C3543 C 0.8341 0.34234 0.35514 0.0
C3544 C 0.83153 0.32964 0.33723 0.0
C3545 C 0.82192 0.35962 0.3835 0.0
C3546 C 0.8301 0.37885 0.38282 0.0
C3547 C 0.81468 0.35537 0.40058 0.0
C3548 C 0.80658 0.3352 0.40244 0.0
C3549 C 0.81593 0.32052 0.39844 0.0
C3550 C 0.80805 0.30145 0.39968 0.0
C3551 C 0.79086 0.2969 0.40505 0.0
C3552 C 0.78154 0.31142 0.40927 0.0
C3553 C 0.78936 0.33051 0.40803 0.0
H3554 H 0.78476 0.28212 0.40597 0.0
H3555 H 0.85937 0.46697 0.39124 0.0
H3556 H 0.45606 0.01232 0.2701 0.0
H3557 H 0.47699 0.01124 0.24566 0.0
H3558 H 0.4582 0.05543 0.22243 0.0
H3559 H 0.43702 0.05641 0.24665 0.0
H3560 H 0.46101 0.02618 0.19425 0.0
H3561 H 0.49785 0.06632 0.24964 0.0
H3562 H 0.511 0.07499 0.28353 0.0
H3563 H 0.53412 0.02555 0.27464 0.0
H3564 H 0.5209 0.01643 0.24074 0.0
H3565 H 0.53115 0.04708 0.13516 0.0
H3566 H 0.51032 0.04943 0.15957 0.0
H3567 H 0.52704 1.00433 0.18326 0.0
H3568 H 0.54766 1.00157 0.1586 0.0
H3569 H 0.5254 0.03493 0.21122 0.0
H3570 H 0.48802 0.9943 0.1563 0.0
H3571 H 0.47314 0.98408 0.12312 0.0
H3572 H 0.45063 0.03394 0.13122 0.0
H3573 H 0.46554 0.0446 0.16441 0.0
C3574 C 0.45641 0.02186 0.25984 0.0
C3575 C 0.4449 0.03447 0.26033 0.0
C3576 C 0.46844 0.02129 0.24594 0.0
C3577 C 0.46928 0.03342 0.23238 0.0
C3578 C 0.45777 0.04598 0.23279 0.0
C3579 C 0.44572 0.04654 0.24667 0.0
C3580 C 0.48187 0.03265 0.21746 0.0
C3581 C 0.47514 0.02843 0.19794 0.0
C3582 C 0.50022 0.03509 0.22234 0.0
C3583 C 0.50825 0.04059 0.2427 0.0
C3584 C 0.50563 0.05721 0.25495 0.0
C3585 C 0.51312 0.06222 0.27415 0.0
C3586 C 0.52336 0.0508 0.28125 0.0
C3587 C 0.52617 0.03437 0.26913 0.0
C3588 C 0.5187 0.02928 0.24991 0.0
C3589 C 0.53027 0.0375 0.14543 0.0
C3590 C 0.54102 0.02406 0.14488 0.0
C3591 C 0.51838 0.0389 0.15939 0.0
C3592 C 0.51703 0.02691 0.17309 0.0
C3593 C 0.52791 0.01371 0.1728 0.0
C3594 C 0.53975 0.01223 0.15878 0.0
C3595 C 0.50452 0.02841 0.188 0.0
C3596 C 0.51128 0.0328 0.20752 0.0
C3597 C 0.4862 0.02613 0.18311 0.0
C3598 C 0.47801 0.02032 0.16281 0.0
C3599 C 0.48008 1.00322 0.15094 0.0
C3600 C 0.47155 0.99729 0.13217 0.0
C3601 C 0.46083 0.00827 0.12514 0.0
C3602 C 0.45884 0.02538 0.13675 0.0
C3603 C 0.46733 0.03137 0.15553 0.0
H3604 H 0.45411 1.00357 0.11068 0.0
H3605 H 0.52914 0.05471 0.29612 0.0
H3606 H 0.77048 0.72197 0.95275 0.0
H3607 H 0.77522 0.73168 0.92174 0.0
H3608 H 0.82047 0.70617 0.91754 0.0
H3609 H 0.81603 0.69676 0.94885 0.0
H3610 H 0.82773 0.73926 0.9057 0.0
H3611 H 0.78029 0.6831 0.89136 0.0
H3612 H 0.75153 0.66201 0.89467 0.0
H3613 H 0.72482 0.70485 0.88092 0.0
H3614 H 0.75345 0.72633 0.8778 0.0
H3615 H 0.79903 0.73241 0.79541 0.0
H3616 H 0.79732 0.71834 0.8246 0.0
H3617 H 0.81501 0.77567 0.8599 0.0
H3618 H 0.81635 0.7896 0.83087 0.0
H3619 H 0.77782 0.72237 0.85405 0.0
H3620 H 0.83958 0.7748 0.89988 0.0
H3621 H 0.86901 0.79313 0.89457 0.0
H3622 H 0.86863 0.75218 0.84218 0.0
H3623 H 0.83935 0.73342 0.84732 0.0
C3624 C 0.78149 0.71847 0.9453 0.0
C3625 C 0.79281 0.70849 0.95329 0.0
C3626 C 0.78413 0.72395 0.92747 0.0
C3627 C 0.79802 0.71938 0.91706 0.0
C3628 C 0.80962 0.70982 0.92522 0.0
C3629 C 0.80704 0.70441 0.94313 0.0
C3630 C 0.80036 0.72455 0.89769 0.0
C3631 C 0.81682 0.73551 0.89442 0.0
C3632 C 0.7863 0.71926 0.88266 0.0
C3633 C 0.76904 0.70639 0.88451 0.0
C3634 C 0.7683 0.68809 0.88919 0.0
C3635 C 0.75201 0.67605 0.89101 0.0
C3636 C 0.73636 0.6821 0.88805 0.0
C3637 C 0.73696 0.70019 0.88323 0.0
C3638 C 0.75321 0.71229 0.88142 0.0
C3639 C 0.80244 0.74196 0.80941 0.0
C3640 C 0.80798 0.76209 0.81087 0.0
C3641 C 0.80156 0.73392 0.82608 0.0
C3642 C 0.80626 0.7459 0.8445 0.0
C3643 C 0.81174 0.76604 0.84589 0.0
C3644 C 0.81266 0.77402 0.82926 0.0
C3645 C 0.80499 0.73757 0.86234 0.0
C3646 C 0.78875 0.72601 0.86531 0.0
C3647 C 0.81936 0.74189 0.87687 0.0
C3648 C 0.83721 0.75278 0.87395 0.0
C3649 C 0.84584 0.76963 0.8873 0.0
C3650 C 0.86248 0.78011 0.8843 0.0
C3651 C 0.87067 0.77383 0.86804 0.0
C3652 C 0.86226 0.75704 0.85475 0.0
C3653 C 0.84563 0.74648 0.8577 0.0
H3654 H 0.88356 0.78196 0.86577 0.0
H3655 H 0.72377 0.67276 0.88946 0.0
H3656 H 0.81814 0.09189 1.00317 0.0
H3657 H 0.83764 0.06976 0.99569 0.0
H3658 H 0.88182 0.1185 0.99843 0.0
H3659 H 0.86234 0.14072 0.0055 0.0
H3660 H 0.88192 0.09099 0.96783 0.0
H3661 H 0.87608 0.09361 0.03559 0.0
H3662 H 0.86 0.09105 0.06444 0.0
H3663 H 0.8363 0.03113 0.04071 0.0
H3664 H 0.85208 0.03341 0.01157 0.0
H3665 H 0.95427 0.04889 0.97909 0.0
H3666 H 0.93166 0.06742 0.98134 0.0
H3667 H 0.89178 0.01524 0.98085 0.0
H3668 H 0.91473 0.99674 0.98025 0.0
H3669 H 0.88752 0.04252 0.00815 0.0
H3670 H 0.89623 0.04005 0.94094 0.0
H3671 H 0.91412 0.0435 0.91352 0.0
H3672 H 0.93402 0.10412 0.93733 0.0
H3673 H 0.9164 0.101 0.96501 0.0
C3674 C 0.83202 0.09791 1.00225 0.0
C3675 C 0.83872 0.11807 0.005 0.0
C3676 C 0.84315 0.08524 0.99801 0.0
C3677 C 0.86121 0.09249 0.99667 0.0
C3678 C 0.86791 0.1126 0.99936 0.0
C3679 C 0.85677 0.12528 0.00349 0.0
C3680 C 0.87317 0.07914 0.99248 0.0
C3681 C 0.88325 0.08047 0.97671 0.0
C3682 C 0.87459 0.06514 0.00381 0.0
C3683 C 0.8651 0.06374 0.02131 0.0
C3684 C 0.86733 0.07993 0.03645 0.0
C3685 C 0.85829 0.07852 0.05287 0.0
C3686 C 0.84709 0.06096 0.05438 0.0
C3687 C 0.84495 0.04474 0.0395 0.0
C3688 C 0.85395 0.04608 0.02304 0.0
C3689 C 0.94071 0.0413 0.97955 0.0
C3690 C 0.93637 0.02135 0.97982 0.0
C3691 C 0.92771 0.0519 0.98048 0.0
C3692 C 0.90994 0.04271 0.98098 0.0
C3693 C 0.90541 0.02263 0.98043 0.0
C3694 C 0.91852 0.01204 0.97989 0.0
C3695 C 0.89638 0.05437 0.98352 0.0
C3696 C 0.88601 0.05279 0.99903 0.0
C3697 C 0.89481 0.06824 0.97203 0.0
C3698 C 0.90502 0.07026 0.95509 0.0
C3699 C 0.90444 0.05411 0.94035 0.0
C3700 C 0.91454 0.05601 0.92476 0.0
C3701 C 0.9252 0.07402 0.92369 0.0
C3702 C 0.92572 0.09019 0.93815 0.0
C3703 C 0.91565 0.08837 0.95378 0.0
H3704 H 0.93306 0.07545 0.91165 0.0
H3705 H 0.84011 0.0599 0.06711 0.0
H3706 H 0.35547 0.45285 0.06103 0.0
H3707 H 0.38599 0.47185 0.06332 0.0
H3708 H 0.3984 0.4271 0.02059 0.0
H3709 H 0.36821 0.40783 0.01881 0.0
H3710 H 0.42422 0.43865 0.04738 0.0
H3711 H 0.3911 0.47162 0.01063 0.0
H3712 H 0.36777 0.48859 0.00407 0.0
H3713 H 0.38846 0.53285 0.05438 0.0
H3714 H 0.41179 0.51599 0.06137 0.0
H3715 H 0.49859 0.49044 0.01035 0.0
H3716 H 0.46896 0.47347 0.01507 0.0
H3717 H 0.46937 0.51576 0.06678 0.0
H3718 H 0.49945 0.53259 0.06258 0.0
H3719 H 0.43784 0.50716 0.03938 0.0
H3720 H 0.47332 0.47456 0.07329 0.0
H3721 H 0.49736 0.45777 0.07704 0.0
H3722 H 0.47251 0.41251 0.02898 0.0
H3723 H 0.44844 0.42919 0.02475 0.0
C3724 C 0.36471 0.4471 0.0521 0.0
C3725 C 0.35939 0.42883 0.03972 0.0
C3726 C 0.38216 0.45801 0.05336 0.0
C3727 C 0.39455 0.45106 0.04197 0.0
C3728 C 0.38919 0.43281 0.0296 0.0
C3729 C 0.37186 0.42181 0.02854 0.0
C3730 C 0.41311 0.46262 0.04284 0.0
C3731 C 0.42713 0.45358 0.04548 0.0
C3732 C 0.41708 0.48229 0.04081 0.0
C3733 C 0.40305 0.49242 0.03665 0.0
C3734 C 0.39059 0.48489 0.02038 0.0
C3735 C 0.37738 0.4945 0.01657 0.0
C3736 C 0.3766 0.51175 0.02884 0.0
C3737 C 0.38905 0.51946 0.04492 0.0
C3738 C 0.40228 0.50989 0.0488 0.0
C3739 C 0.49252 0.49618 0.02282 0.0
C3740 C 0.50139 0.51315 0.03592 0.0
C3741 C 0.47553 0.4864 0.02548 0.0
C3742 C 0.46696 0.49338 0.04124 0.0
C3743 C 0.47573 0.51022 0.05445 0.0
C3744 C 0.4929 0.51987 0.05196 0.0
C3745 C 0.44873 0.48305 0.04359 0.0
C3746 C 0.43484 0.49231 0.04153 0.0
C3747 C 0.44486 0.46352 0.04586 0.0
C3748 C 0.45913 0.45322 0.04862 0.0
C3749 C 0.47303 0.46109 0.06344 0.0
C3750 C 0.48666 0.45158 0.06566 0.0
C3751 C 0.48649 0.4341 0.05323 0.0
C3752 C 0.47264 0.42606 0.0386 0.0
C3753 C 0.45898 0.43552 0.0363 0.0
H3754 H 0.49707 0.42678 0.05495 0.0
H3755 H 0.36636 0.51917 0.02586 0.0
H3756 H 0.39684 0.61841 0.75218 0.0
H3757 H 0.38143 0.64447 0.74923 0.0
H3758 H 0.386 0.66141 0.81126 0.0
H3759 H 0.4009 0.63556 0.8142 0.0
H3760 H 0.35613 0.66558 0.80113 0.0
H3761 H 0.41121 0.68713 0.77696 0.0
H3762 H 0.43543 0.68658 0.756 0.0
H3763 H 0.39963 0.68368 0.70648 0.0
H3764 H 0.37508 0.68378 0.72708 0.0
H3765 H 0.32702 0.75604 0.80332 0.0
H3766 H 0.34146 0.72955 0.8069 0.0
H3767 H 0.34308 0.71616 0.74515 0.0
H3768 H 0.32977 0.74323 0.74195 0.0
H3769 H 0.37062 0.71042 0.75592 0.0
H3770 H 0.31475 0.67599 0.78196 0.0
H3771 H 0.29185 0.67361 0.80483 0.0
H3772 H 0.3311 0.70304 0.85201 0.0
H3773 H 0.35435 0.70453 0.82954 0.0
C3774 C 0.39461 0.62765 0.76523 0.0
C3775 C 0.40042 0.62438 0.78347 0.0
C3776 C 0.38577 0.64287 0.76355 0.0
C3777 C 0.38235 0.65567 0.78001 0.0
C3778 C 0.38809 0.6522 0.79811 0.0
C3779 C 0.39686 0.63714 0.79977 0.0
C3780 C 0.37276 0.67233 0.77882 0.0
C3781 C 0.35953 0.67536 0.7912 0.0
C3782 C 0.37657 0.68561 0.76602 0.0
C3783 C 0.39123 0.68518 0.75354 0.0
C3784 C 0.40843 0.68609 0.76156 0.0
C3785 C 0.42224 0.68589 0.74974 0.0
C3786 C 0.41906 0.68502 0.72991 0.0
C3787 C 0.40206 0.68431 0.72184 0.0
C3788 C 0.38819 0.68441 0.73358 0.0
C3789 C 0.33015 0.74723 0.79047 0.0
C3790 C 0.32687 0.75202 0.77225 0.0
C3791 C 0.33844 0.73165 0.79246 0.0
C3792 C 0.34359 0.71981 0.77631 0.0
C3793 C 0.33979 0.72455 0.75817 0.0
C3794 C 0.3319 0.74021 0.75626 0.0
C3795 C 0.35352 0.70337 0.77785 0.0
C3796 C 0.36699 0.70048 0.76562 0.0
C3797 C 0.3501 0.69029 0.79091 0.0
C3798 C 0.33612 0.69083 0.80407 0.0
C3799 C 0.31841 0.68214 0.79719 0.0
C3800 C 0.30543 0.68078 0.81009 0.0
C3801 C 0.30995 0.68851 0.82979 0.0
C3802 C 0.32757 0.69723 0.83672 0.0
C3803 C 0.34068 0.69814 0.82396 0.0
H3804 H 0.29984 0.68757 0.83971 0.0
H3805 H 0.42978 0.68496 0.72081 0.0
H3806 H 0.24647 0.60244 0.50905 0.0
H3807 H 0.21461 0.58958 0.50899 0.0
H3808 H 0.20575 0.64685 0.51057 0.0
H3809 H 0.23742 0.65981 0.51075 0.0
H3810 H 0.1911 0.63093 0.53889 0.0
H3811 H 0.19223 0.61209 0.47086 0.0
H3812 H 0.20115 0.59643 0.44023 0.0
H3813 H 0.18411 0.5406 0.45519 0.0
H3814 H 0.17536 0.55595 0.4861 0.0
H3815 H 0.09669 0.60569 0.52603 0.0
H3816 H 0.12818 0.6176 0.52399 0.0
H3817 H 0.13597 0.55963 0.52016 0.0
H3818 H 0.10404 0.54741 0.52045 0.0
H3819 H 0.15132 0.57608 0.49321 0.0
H3820 H 0.16711 0.60207 0.56735 0.0
H3821 H 0.15981 0.6189 0.59849 0.0
H3822 H 0.14489 0.66196 0.57039 0.0
H3823 H 0.15242 0.64547 0.53924 0.0
C3824 C 0.2377 0.61223 0.50913 0.0
C3825 C 0.24449 0.63217 0.51011 0.0
C3826 C 0.2195 0.60484 0.50898 0.0
C3827 C 0.20783 0.61727 0.50976 0.0
C3828 C 0.21454 0.63703 0.51 0.0
C3829 C 0.23267 0.6444 0.51012 0.0
C3830 C 0.18892 0.61018 0.51226 0.0
C3831 C 0.18237 0.61908 0.52873 0.0
C3832 C 0.17762 0.59446 0.49927 0.0
C3833 C 0.18337 0.58522 0.48095 0.0
C3834 C 0.19062 0.5965 0.46777 0.0
C3835 C 0.19559 0.58767 0.45031 0.0
C3836 C 0.19326 0.56754 0.4458 0.0
C3837 C 0.18595 0.5562 0.45873 0.0
C3838 C 0.18099 0.56496 0.47622 0.0
C3839 C 0.10522 0.59557 0.52516 0.0
C3840 C 0.09807 0.57575 0.52408 0.0
C3841 C 0.12329 0.60245 0.52433 0.0
C3842 C 0.13467 0.5897 0.52275 0.0
C3843 C 0.12752 0.56983 0.52176 0.0
C3844 C 0.10932 0.56286 0.52213 0.0
C3845 C 0.15356 0.59677 0.51989 0.0
C3846 C 0.16012 0.58787 0.50336 0.0
C3847 C 0.1649 0.61263 0.53267 0.0
C3848 C 0.15952 0.62208 0.55095 0.0
C3849 C 0.16194 0.61492 0.56784 0.0
C3850 C 0.15799 0.62452 0.5855 0.0
C3851 C 0.15165 0.64135 0.58637 0.0
C3852 C 0.14957 0.64878 0.56965 0.0
C3853 C 0.15372 0.63934 0.55202 0.0
H3854 H 0.14852 0.64871 0.60003 0.0
H3855 H 0.19707 0.56072 0.43225 0.0
H3856 H 0.73955 0.99216 0.74852 0.0
H3857 H 0.76041 0.9738 0.75801 0.0
H3858 H 0.73746 0.97184 0.81201 0.0
H3859 H 0.71632 0.98986 0.80249 0.0
H3860 H 0.78547 0.98345 0.78765 0.0
H3861 H 0.74174 0.92989 0.82682 0.0
H3862 H 0.71054 0.91265 0.82601 0.0
H3863 H 0.70179 0.91521 0.76608 0.0
H3864 H 0.73298 0.93224 0.76648 0.0
H3865 H 0.81505 0.90367 0.83629 0.0
H3866 H 0.79562 0.92586 0.83325 0.0
H3867 H 0.81185 0.93048 0.77655 0.0
H3868 H 0.83141 0.90867 0.77966 0.0
H3869 H 0.76763 0.91927 0.80607 0.0
H3870 H 0.81078 0.97458 0.7675 0.0
H3871 H 0.84219 0.99077 0.76773 0.0
H3872 H 0.85241 0.98383 0.8261 0.0
H3873 H 0.82103 0.96786 0.82633 0.0
C3874 C 0.73884 0.98769 0.76236 0.0
C3875 C 0.72627 0.99244 0.77475 0.0
C3876 C 0.75081 0.97727 0.76778 0.0
C3877 C 0.75042 0.97138 0.78567 0.0
C3878 C 0.73783 0.976 0.79803 0.0
C3879 C 0.72579 0.98635 0.79257 0.0
C3880 C 0.76353 0.96085 0.79151 0.0
C3881 C 0.78157 0.96934 0.79153 0.0
C3882 C 0.75844 0.94274 0.7972 0.0
C3883 C 0.73963 0.93259 0.79677 0.0
C3884 C 0.73314 0.9268 0.81348 0.0
C3885 C 0.71547 0.91705 0.81309 0.0
C3886 C 0.70417 0.91292 0.79603 0.0
C3887 C 0.71053 0.9185 0.77931 0.0
C3888 C 0.7282 0.92823 0.77962 0.0
C3889 C 0.81473 0.90981 0.8234 0.0
C3890 C 0.82469 0.90452 0.80821 0.0
C3891 C 0.80358 0.92233 0.82163 0.0
C3892 C 0.80242 0.9299 0.80475 0.0
C3893 C 0.81275 0.92503 0.78981 0.0
C3894 C 0.82381 0.91248 0.79154 0.0
C3895 C 0.78953 0.94175 0.80197 0.0
C3896 C 0.77154 0.93351 0.8025 0.0
C3897 C 0.79466 0.96007 0.79677 0.0
C3898 C 0.81355 0.96988 0.79687 0.0
C3899 C 0.81971 0.97659 0.78042 0.0
C3900 C 0.83752 0.98572 0.78046 0.0
C3901 C 0.8493 0.98828 0.7969 0.0
C3902 C 0.84329 0.98177 0.81335 0.0
C3903 C 0.82549 0.97265 0.81339 0.0
H3904 H 0.86308 0.99534 0.7969 0.0
H3905 H 0.69049 0.90535 0.79575 0.0
H3906 H 0.73798 0.90261 0.51283 0.0
H3907 H 0.71578 0.92169 0.51127 0.0
H3908 H 0.75504 0.97388 0.53628 0.0
H3909 H 0.77736 0.95479 0.5382 0.0
H3910 H 0.72394 0.97383 0.55166 0.0
H3911 H 0.74233 0.9622 0.48761 0.0
H3912 H 0.74829 0.94221 0.45763 0.0
H3913 H 0.69373 0.91142 0.44796 0.0
H3914 H 0.68749 0.93106 0.47803 0.0
H3915 H 0.67831 0.04167 0.52315 0.0
H3916 H 0.69951 0.02195 0.52794 0.0
H3917 H 0.65959 0.97 0.50394 0.0
H3918 H 0.63837 0.98968 0.49883 0.0
H3919 H 0.69066 0.96966 0.48845 0.0
H3920 H 0.6719 0.98144 0.55182 0.0
H3921 H 0.66563 1.00098 0.5819 0.0
H3922 H 0.72033 0.03114 0.59296 0.0
H3923 H 0.72689 0.01194 0.56279 0.0
C3924 C 0.74194 0.91815 0.51806 0.0
C3925 C 0.75952 0.92717 0.52551 0.0
C3926 C 0.72921 0.92906 0.5171 0.0
C3927 C 0.73377 0.94929 0.52337 0.0
C3928 C 0.7512 0.95831 0.53129 0.0
C3929 C 0.76396 0.94737 0.53233 0.0
C3930 C 0.72042 0.96099 0.52132 0.0
C3931 C 0.71684 0.97312 0.5378 0.0
C3932 C 0.71078 0.95972 0.50332 0.0
C3933 C 0.71449 0.94798 0.48517 0.0
C3934 C 0.73163 0.95107 0.47916 0.0
C3935 C 0.73506 0.93982 0.46214 0.0
C3936 C 0.72141 0.92552 0.45092 0.0
C3937 C 0.7043 0.92248 0.45667 0.0
C3938 C 0.7008 0.93368 0.4737 0.0
C3939 C 0.67404 0.02604 0.51886 0.0
C3940 C 0.65665 0.01726 0.51057 0.0
C3941 C 0.68614 0.01478 0.52177 0.0
C3942 C 0.68112 0.99447 0.51643 0.0
C3943 C 0.66375 0.98564 0.50821 0.0
C3944 C 0.65161 0.9969 0.50542 0.0
C3945 C 0.69419 0.98251 0.51878 0.0
C3946 C 0.69773 0.97036 0.50233 0.0
C3947 C 0.70374 0.98375 0.53681 0.0
C3948 C 0.69985 0.99538 0.55493 0.0
C3949 C 0.68256 0.99236 0.56057 0.0
C3950 C 0.67896 1.00335 0.57766 0.0
C3951 C 0.69257 0.01733 0.58931 0.0
C3952 C 0.70981 0.02032 0.58391 0.0
C3953 C 0.71347 0.00937 0.56682 0.0
H3954 H 0.68976 0.02581 0.60254 0.0
H3955 H 0.72409 0.91682 0.43775 0.0
H3956 H 0.41966 0.50007 0.79364 0.0
H3957 H 0.40191 0.46741 0.79118 0.0
H3958 H 0.36189 0.47951 0.75368 0.0
H3959 H 0.37972 0.51295 0.75653 0.0
H3960 H 0.3457 0.45683 0.77646 0.0
H3961 H 0.3921 0.45104 0.73646 0.0
H3962 H 0.4227 0.4558 0.7275 0.0
H3963 H 0.43657 0.42653 0.77189 0.0
H3964 H 0.40611 0.42183 0.7813 0.0
H3965 H 0.30456 0.35417 0.75015 0.0
H3966 H 0.31933 0.38772 0.74943 0.0
H3967 H 0.36216 0.38427 0.78904 0.0
H3968 H 0.34745 0.35086 0.78986 0.0
H3969 H 0.3756 0.40247 0.76213 0.0
H3970 H 0.32844 0.40949 0.8024 0.0
H3971 H 0.29719 0.40334 0.80923 0.0
H3972 H 0.28412 0.42919 0.76178 0.0
H3973 H 0.31527 0.43523 0.75447 0.0
C3974 C 0.40709 0.49599 0.7848 0.0
C3975 C 0.40139 0.50947 0.77514 0.0
C3976 C 0.39688 0.47701 0.78331 0.0
C3977 C 0.38054 0.47036 0.77183 0.0
C3978 C 0.37444 0.48392 0.76256 0.0
C3979 C 0.38471 0.50316 0.76417 0.0
C3980 C 0.37026 0.44933 0.7696 0.0
C3981 C 0.35226 0.44499 0.77301 0.0
C3982 C 0.3785 0.43345 0.76529 0.0
C3983 C 0.39685 0.43624 0.7597 0.0
C3984 C 0.40171 0.44575 0.74441 0.0
C3985 C 0.41903 0.44841 0.73924 0.0
C3986 C 0.43158 0.44151 0.74915 0.0
C3987 C 0.42683 0.43189 0.76423 0.0
C3988 C 0.40954 0.4292 0.76948 0.0
C3989 C 0.317 0.36056 0.75893 0.0
C3990 C 0.32448 0.34957 0.77036 0.0
C3991 C 0.32554 0.37992 0.75849 0.0
C3992 C 0.34192 0.38906 0.76943 0.0
C3993 C 0.34957 0.37792 0.78046 0.0
C3994 C 0.34104 0.35863 0.78095 0.0
C3995 C 0.35121 0.41 0.76939 0.0
C3996 C 0.36905 0.41431 0.76552 0.0
C3997 C 0.34275 0.42575 0.77307 0.0
C3998 C 0.32415 0.42266 0.77779 0.0
C3999 C 0.31888 0.41379 0.79338 0.0
C4000 C 0.30119 0.41032 0.79733 0.0
C4001 C 0.28867 0.41583 0.78592 0.0
C4002 C 0.29383 0.42491 0.77059 0.0
C4003 C 0.31151 0.42838 0.76654 0.0
H4004 H 0.27497 0.4131 0.78898 0.0
H4005 H 0.44498 0.44358 0.74512 0.0
H4006 H 0.19158 0.59187 0.25729 0.0
H4007 H 0.21104 0.62399 0.26235 0.0
H4008 H 0.25656 0.59889 0.25873 0.0
H4009 H 0.23697 0.56629 0.25396 0.0
H4010 H 0.26235 0.63181 0.28766 0.0
H4011 H 0.24331 0.61491 0.22082 0.0
H4012 H 0.22256 0.60227 0.19132 0.0
H4013 H 0.19455 0.64681 0.20818 0.0
H4014 H 0.21495 0.65954 0.23794 0.0
H4015 H 0.30866 0.72987 0.282 0.0
H4016 H 0.29816 0.69438 0.2768 0.0
H4017 H 0.24414 0.70057 0.2735 0.0
H4018 H 0.25469 0.73563 0.27741 0.0
H4019 H 0.24797 0.67471 0.24469 0.0
H4020 H 0.26789 0.68972 0.31349 0.0
H4021 H 0.29058 0.7022 0.34139 0.0
H4022 H 0.31992 0.66081 0.31839 0.0
H4023 H 0.29776 0.64847 0.29002 0.0
C4024 C 0.20572 0.59307 0.25757 0.0
C4025 C 0.21272 0.57649 0.255 0.0
C4026 C 0.21684 0.61149 0.26045 0.0
C4027 C 0.23522 0.61382 0.26058 0.0
C4028 C 0.24239 0.59738 0.25858 0.0
C4029 C 0.23119 0.5788 0.25578 0.0
C4030 C 0.24656 0.63356 0.26228 0.0
C4031 C 0.25956 0.64115 0.27802 0.0
C4032 C 0.24296 0.64567 0.24964 0.0
C4033 C 0.23061 0.63809 0.23171 0.0
C4034 C 0.23264 0.62192 0.21832 0.0
C4035 C 0.22095 0.61475 0.20154 0.0
C4036 C 0.20722 0.6237 0.1979 0.0
C4037 C 0.20519 0.63988 0.21103 0.0
C4038 C 0.21683 0.64709 0.22785 0.0
C4039 C 0.29457 0.72347 0.27999 0.0
C4040 C 0.28238 0.73514 0.27922 0.0
C4041 C 0.28858 0.70329 0.27728 0.0
C4042 C 0.27033 0.69475 0.27469 0.0
C4043 C 0.25826 0.70674 0.27519 0.0
C4044 C 0.26425 0.72674 0.27744 0.0
C4045 C 0.26341 0.67339 0.27042 0.0
C4046 C 0.2512 0.6654 0.25408 0.0
C4047 C 0.2681 0.66099 0.28227 0.0
C4048 C 0.28124 0.66831 0.29951 0.0
C4049 C 0.27924 0.68338 0.31429 0.0
C4050 C 0.292 0.69041 0.33021 0.0
C4051 C 0.30663 0.68228 0.33169 0.0
C4052 C 0.30858 0.66711 0.31723 0.0
C4053 C 0.29595 0.66012 0.3012 0.0
H4054 H 0.31645 0.68774 0.34405 0.0
H4055 H 0.19818 0.61813 0.1849 0.0
H4056 H 0.53529 0.73713 0.48646 0.0
H4057 H 0.53673 0.7074 0.4978 0.0
H4058 H 0.52067 0.67434 0.4399 0.0
H4059 H 0.51854 0.70411 0.42862 0.0
H4060 H 0.50555 0.65371 0.46289 0.0
H4061 H 0.56568 0.68785 0.46312 0.0
H4062 H 0.59186 0.71521 0.47134 0.0
H4063 H 0.58929 0.71423 0.5317 0.0
H4064 H 0.56293 0.68702 0.52386 0.0
H4065 H 0.54213 0.57262 0.47088 0.0
H4066 H 0.53825 0.60365 0.46421 0.0
H4067 H 0.53482 0.6239 0.52476 0.0
H4068 H 0.53804 0.59222 0.53146 0.0
H4069 H 0.55913 0.65112 0.5029 0.0
H4070 H 0.49941 0.61472 0.50122 0.0
H4071 H 0.47475 0.58587 0.49141 0.0
H4072 H 0.47828 0.58987 0.4318 0.0
H4073 H 0.50318 0.61857 0.44123 0.0
C4074 C 0.53198 0.72354 0.47608 0.0
C4075 C 0.52687 0.7232 0.45653 0.0
C4076 C 0.53295 0.70644 0.48261 0.0
C4077 C 0.52924 0.68837 0.46974 0.0
C4078 C 0.52371 0.68793 0.45026 0.0
C4079 C 0.52251 0.70505 0.44376 0.0
C4080 C 0.53117 0.67009 0.47654 0.0
C4081 C 0.51738 0.65324 0.47149 0.0
C4082 C 0.54641 0.66915 0.48816 0.0
C4083 C 0.56219 0.68557 0.49292 0.0
C4084 C 0.5706 0.69358 0.47816 0.0
C4085 C 0.58549 0.70904 0.48275 0.0
C4086 C 0.59219 0.7165 0.50203 0.0
C4087 C 0.58405 0.70847 0.51677 0.0
C4088 C 0.56914 0.69303 0.51227 0.0
C4089 C 0.54065 0.5837 0.48285 0.0
C4090 C 0.54089 0.58008 0.50179 0.0
C4091 C 0.5384 0.60147 0.47899 0.0
C4092 C 0.53629 0.61626 0.49393 0.0
C4093 C 0.53653 0.6128 0.51296 0.0
C4094 C 0.5385 0.59475 0.51682 0.0
C4095 C 0.53358 0.63502 0.48923 0.0
C4096 C 0.54726 0.65182 0.49452 0.0
C4097 C 0.51838 0.63585 0.47766 0.0
C4098 C 0.50328 0.61871 0.47193 0.0
C4099 C 0.49504 0.60935 0.486 0.0
C4100 C 0.48099 0.59304 0.48052 0.0
C4101 C 0.47497 0.58602 0.46099 0.0
C4102 C 0.48296 0.59532 0.44692 0.0
C4103 C 0.49703 0.61162 0.45233 0.0
H4104 H 0.4641 0.57339 0.45678 0.0
H4105 H 0.60373 0.72846 0.50555 0.0
H4106 H 0.64576 0.30649 0.62415 0.0
H4107 H 0.67145 0.30467 0.64449 0.0
H4108 H 0.64431 0.3164 0.69527 0.0
H4109 H 0.6185 0.3187 0.67484 0.0
H4110 H 0.67822 0.33489 0.70296 0.0
H4111 H 0.64833 0.26957 0.67509 0.0
H4112 H 0.63419 0.24199 0.6489 0.0
H4113 H 0.68314 0.24611 0.623 0.0
H4114 H 0.69751 0.27391 0.64889 0.0
H4115 H 0.73809 0.30362 0.76386 0.0
H4116 H 0.71154 0.30602 0.74516 0.0
H4117 H 0.73702 0.29747 0.69273 0.0
H4118 H 0.76365 0.29501 0.71132 0.0
H4119 H 0.70317 0.27687 0.68698 0.0
H4120 H 0.73275 0.34278 0.71482 0.0
H4121 H 0.7468 0.36989 0.74151 0.0
H4122 H 0.69813 0.36397 0.76809 0.0
H4123 H 0.68385 0.33664 0.74167 0.0
C4124 C 0.6452 0.30881 0.63965 0.0
C4125 C 0.62989 0.31263 0.64776 0.0
C4126 C 0.65996 0.30764 0.65133 0.0
C4127 C 0.65984 0.30993 0.67151 0.0
C4128 C 0.64481 0.31443 0.67976 0.0
C4129 C 0.63001 0.31575 0.66804 0.0
C4130 C 0.67529 0.30732 0.68377 0.0
C4131 C 0.68347 0.32205 0.69959 0.0
C4132 C 0.68252 0.29074 0.67938 0.0
C4133 C 0.67395 0.27394 0.66385 0.0
C4134 C 0.65605 0.26468 0.66374 0.0
C4135 C 0.648 0.249 0.64896 0.0
C4136 C 0.65775 0.24233 0.63427 0.0
C4137 C 0.6756 0.25131 0.63437 0.0
C4138 C 0.68371 0.26702 0.64911 0.0
C4139 C 0.73812 0.30223 0.74835 0.0
C4140 C 0.75325 0.2993 0.73923 0.0
C4141 C 0.72286 0.30369 0.73764 0.0
C4142 C 0.72223 0.30224 0.71747 0.0
C4143 C 0.73709 0.29873 0.70825 0.0
C4144 C 0.75239 0.29734 0.71896 0.0
C4145 C 0.70617 0.3045 0.70601 0.0
C4146 C 0.69788 0.28968 0.69035 0.0
C4147 C 0.69881 0.32094 0.71062 0.0
C4148 C 0.70728 0.33755 0.72636 0.0
C4149 C 0.72507 0.34718 0.72641 0.0
C4150 C 0.73307 0.3626 0.74148 0.0
C4151 C 0.72338 0.36862 0.75651 0.0
C4152 C 0.70563 0.35928 0.75645 0.0
C4153 C 0.69757 0.34384 0.74142 0.0
H4154 H 0.72961 0.38053 0.76818 0.0
H4155 H 0.65149 0.23019 0.62283 0.0
H4156 H 0.04213 0.33037 0.9428 0.0
H4157 H 0.0468 0.36567 0.95348 0.0
H4158 H 0.99945 0.3572 0.98275 0.0
H4159 H 0.99493 0.32205 0.97258 0.0
H4160 H 1.00118 0.38466 0.95797 0.0
H4161 H 0.0366 0.37067 0.00932 0.0
H4162 H 0.06022 0.35776 0.02322 0.0
H4163 H 0.09907 0.39534 0.99798 0.0
H4164 H 0.07563 0.40827 0.98367 0.0
H4165 H 0.04093 0.487 0.02636 0.0
H4166 H 0.03399 0.4513 0.01938 0.0
H4167 H 0.02986 0.45136 0.9583 0.0
H4168 H 0.03592 0.48669 0.96525 0.0
H4169 H 0.05276 0.42762 1.00048 0.0
H4170 H 0.00909 0.42219 0.93574 0.0
H4171 H 0.98375 0.43288 0.9222 0.0
H4172 H 0.95974 0.43116 0.9753 0.0
H4173 H 0.98516 0.42078 0.98917 0.0
C4174 C 0.03281 0.336 0.95168 0.0
C4175 C 0.01816 0.32325 0.95683 0.0
C4176 C 0.03552 0.35622 0.95781 0.0
C4177 C 0.02349 0.36419 0.96896 0.0
C4178 C 0.00894 0.35148 0.97418 0.0
C4179 C 0.00641 0.33132 0.96839 0.0
C4180 C 0.02556 0.38571 0.97453 0.0
C4181 C 0.01251 0.394 0.96725 0.0
C4182 C 0.04024 0.39807 0.98672 0.0
C4183 C 0.05433 0.39027 0.99524 0.0
C4184 C 0.05015 0.37604 0.00656 0.0
C4185 C 0.06352 0.36875 0.01456 0.0
C4186 C 0.08113 0.37568 0.01144 0.0
C4187 C 0.08542 0.38996 1.00035 0.0
C4188 C 0.0721 0.39728 0.99231 0.0
C4189 C 0.03789 0.47934 0.01149 0.0
C4190 C 0.03842 0.48971 0.99636 0.0
C4191 C 0.03409 0.45889 0.00746 0.0
C4192 C 0.03089 0.44834 0.98824 0.0
C4193 C 0.03148 0.45882 0.97323 0.0
C4194 C 0.03514 0.47914 0.97724 0.0
C4195 C 0.02845 0.42664 0.98373 0.0
C4196 C 0.04146 0.41828 0.99117 0.0
C4197 C 0.01381 0.41414 0.97156 0.0
C4198 C 0.99917 0.42138 0.96366 0.0
C4199 C 0.9985 0.42441 0.94458 0.0
C4200 C 0.98415 0.43036 0.93685 0.0
C4201 C 0.97022 0.43288 0.94795 0.0
C4202 C 0.97061 0.42939 0.96678 0.0
C4203 C 0.98506 0.42367 0.97465 0.0
H4204 H 0.95907 0.4374 0.94193 0.0
H4205 H 0.09146 0.37003 0.01765 0.0
H4206 H 0.01133 0.79949 0.12133 0.0
H4207 H 0.98669 0.79796 0.14125 0.0
H4208 H 0.02338 0.81851 0.19266 0.0
H4209 H 0.04827 0.81973 0.1727 0.0
H4210 H 0.99772 0.78977 0.1981 0.0
H4211 H 0.99912 0.84807 0.17437 0.0
H4212 H 0.99968 0.86833 0.14966 0.0
H4213 H 0.94926 0.83347 0.12293 0.0
H4214 H 0.94853 0.8128 0.14731 0.0
H4215 H 0.93536 0.8098 0.26266 0.0
H4216 H 0.95953 0.81443 0.24219 0.0
H4217 H 0.9227 0.78929 0.19148 0.0
H4218 H 0.89828 0.78444 0.21205 0.0
H4219 H 0.94824 0.82071 0.18566 0.0
H4220 H 0.94739 0.76223 0.20947 0.0
H4221 H 0.94709 0.74231 0.23446 0.0
H4222 H 0.99697 0.77835 0.26144 0.0
H4223 H 0.99744 0.79867 0.23677 0.0
C4224 C 0.01425 0.80376 0.13687 0.0
C4225 C 0.03189 0.80981 0.14535 0.0
C4226 C 1.00005 0.80297 0.14829 0.0
C4227 C 1.00303 0.80841 0.16854 0.0
C4228 C 0.02064 0.8143 0.17709 0.0
C4229 C 0.0349 0.81504 0.16564 0.0
C4230 C 0.98777 0.80751 0.18069 0.0
C4231 C 0.98708 0.79682 0.19553 0.0
C4232 C 0.97353 0.81626 0.17717 0.0
C4233 C 0.97385 0.82877 0.16258 0.0
C4234 C 0.98821 0.84463 0.16314 0.0
C4235 C 0.98855 0.85621 0.14921 0.0
C4236 C 0.97454 0.85216 0.13471 0.0
C4237 C 0.96012 0.83657 0.13415 0.0
C4238 C 0.95973 0.82493 0.14804 0.0
C4239 C 0.93232 0.80524 0.24715 0.0
C4240 C 0.91483 0.79643 0.23908 0.0
C4241 C 0.94621 0.80794 0.23543 0.0
C4242 C 0.94309 0.80186 0.21526 0.0
C4243 C 0.92552 0.79401 0.20701 0.0
C4244 C 0.91153 0.7913 0.21879 0.0
C4245 C 0.95828 0.80304 0.20305 0.0
C4246 C 0.95894 0.81373 0.18821 0.0
C4247 C 0.97254 0.79436 0.20661 0.0
C4248 C 0.97237 0.78208 0.22137 0.0
C4249 C 0.95823 0.76599 0.22082 0.0
C4250 C 0.95804 0.75462 0.23491 0.0
C4251 C 0.97198 0.75909 0.24956 0.0
C4252 C 0.98617 0.77492 0.2501 0.0
C4253 C 0.98641 0.78636 0.23606 0.0
H4254 H 0.97181 0.75027 0.26046 0.0
H4255 H 0.97483 0.86113 0.12392 0.0
H4256 H 0.53936 0.34803 0.15622 0.0
H4257 H 0.5426 0.36854 0.13201 0.0
H4258 H 0.51049 0.3213 0.0895 0.0
H4259 H 0.50761 0.30057 0.11347 0.0
H4260 H 0.53863 0.33705 0.07473 0.0
H4261 H 0.49511 0.36136 0.1105 0.0
H4262 H 0.48203 0.37512 0.13918 0.0
H4263 H 0.52494 0.42572 0.15006 0.0
H4264 H 0.53845 0.41212 0.12162 0.0
H4265 H 0.52727 0.39528 0.00457 0.0
H4266 H 0.52259 0.37368 0.02787 0.0
H4267 H 0.55832 0.41722 0.07082 0.0
H4268 H 0.56328 0.43867 0.04761 0.0
H4269 H 0.52715 0.403 0.08465 0.0
H4270 H 0.57105 0.37773 0.04944 0.0
H4271 H 0.58357 0.36411 0.02026 0.0
H4272 H 0.53888 0.31535 0.00787 0.0
H4273 H 0.52596 0.32883 0.03685 0.0
C4274 C 0.53286 0.34207 0.14177 0.0
C4275 C 0.52326 0.32268 0.13675 0.0
C4276 C 0.53466 0.35384 0.12795 0.0
C4277 C 0.52665 0.34652 0.10896 0.0
C4278 C 0.51681 0.32725 0.10404 0.0
C4279 C 0.51515 0.31544 0.11778 0.0
C4280 C 0.5292 0.35862 0.09398 0.0
C4281 C 0.53584 0.35135 0.0768 0.0
C4282 C 0.52593 0.37745 0.09681 0.0
C4283 C 0.5179 0.38559 0.11404 0.0
C4284 C 0.50186 0.37532 0.11912 0.0
C4285 C 0.49435 0.38312 0.13531 0.0
C4286 C 0.50268 0.40125 0.14647 0.0
C4287 C 0.51852 0.41165 0.14143 0.0
C4288 C 0.52611 0.4039 0.12527 0.0
C4289 C 0.53438 0.40007 0.01886 0.0
C4290 C 0.54556 0.4187 0.0243 0.0
C4291 C 0.53164 0.38777 0.03217 0.0
C4292 C 0.5401 0.39389 0.05106 0.0
C4293 C 0.55158 0.41229 0.05636 0.0
C4294 C 0.55436 0.42452 0.04308 0.0
C4295 C 0.53665 0.38143 0.06558 0.0
C4296 C 0.52985 0.38865 0.08263 0.0
C4297 C 0.53968 0.36254 0.0626 0.0
C4298 C 0.54745 0.3544 0.0452 0.0
C4299 C 0.56382 0.36419 0.0404 0.0
C4300 C 0.571 0.35648 0.02392 0.0
C4301 C 0.562 0.3389 0.01219 0.0
C4302 C 0.54582 0.32898 0.01695 0.0
C4303 C 0.53857 0.33664 0.03341 0.0
H4304 H 0.56759 0.33295 0.99943 0.0
H4305 H 0.49683 0.40727 0.15899 0.0
H4306 H 0.0577 0.31748 0.32895 0.0
H4307 H 0.03181 0.3237 0.31237 0.0
H4308 H 0.99882 0.27336 0.32768 0.0
H4309 H 0.02472 0.26694 0.34437 0.0
H4310 H 0.99014 0.27857 0.28948 0.0
H4311 H 1.00117 0.31504 0.35516 0.0
H4312 H 0.01981 0.33762 0.38283 0.0
H4313 H 0.02779 0.38278 0.34982 0.0
H4314 H 0.00949 0.36036 0.32183 0.0
H4315 H 0.90714 0.30121 0.27772 0.0
H4316 H 0.93367 0.29235 0.28891 0.0
H4317 H 0.96457 0.34938 0.28696 0.0
H4318 H 0.93768 0.35908 0.27775 0.0
H4319 H 0.97504 0.34052 0.31766 0.0
H4320 H 0.96452 0.30523 0.25199 0.0
H4321 H 0.94709 0.28294 0.22336 0.0
H4322 H 0.93893 0.23651 0.25477 0.0
H4323 H 0.95623 0.25856 0.28364 0.0
C4324 C 0.045 0.30752 0.32857 0.0
C4325 C 0.04323 0.29183 0.3382 0.0
C4326 C 0.03023 0.31113 0.3191 0.0
C4327 C 0.01342 0.29915 0.31908 0.0
C4328 C 0.01171 0.2828 0.32762 0.0
C4329 C 0.02651 0.27919 0.33719 0.0
C4330 C 0.99752 0.30456 0.31142 0.0
C4331 C 0.98669 0.29202 0.29569 0.0
C4332 C 0.99335 0.32233 0.31933 0.0
C4333 C 1.0041 0.33594 0.33631 0.0
C4334 C 0.00702 0.32974 0.35375 0.0
C4335 C 0.01753 0.34252 0.3695 0.0
C4336 C 0.02506 0.36161 0.36807 0.0
C4337 C 0.02201 0.36798 0.35091 0.0
C4338 C 0.01156 0.35524 0.33509 0.0
C4339 C 0.91948 0.31205 0.27994 0.0
C4340 C 0.92009 0.33099 0.27698 0.0
C4341 C 0.93479 0.30678 0.28597 0.0
C4342 C 0.95127 0.32004 0.28844 0.0
C4343 C 0.95204 0.33883 0.28509 0.0
C4344 C 0.93662 0.34429 0.27957 0.0
C4345 C 0.96754 0.31463 0.29543 0.0
C4346 C 0.97846 0.32714 0.3112 0.0
C4347 C 0.97188 0.29692 0.2874 0.0
C4348 C 0.96161 0.28358 0.27 0.0
C4349 C 0.95896 0.29029 0.25281 0.0
C4350 C 0.94913 0.27769 0.23654 0.0
C4351 C 0.94196 0.25831 0.23724 0.0
C4352 C 0.94456 0.2515 0.25423 0.0
C4353 C 0.95441 0.26403 0.27054 0.0
H4354 H 0.93438 0.24858 0.22461 0.0
H4355 H 0.0332 0.37148 0.38027 0.0
H4356 H 0.98267 0.72111 0.61924 0.0
H4357 H 0.98955 0.69101 0.60298 0.0
H4358 H 0.04368 0.71162 0.62832 0.0
H4359 H 0.03707 0.74182 0.64418 0.0
H4360 H 0.0427 0.69488 0.59175 0.0
H4361 H 0.01339 0.6788 0.64678 0.0
H4362 H 0.98929 0.67633 0.66807 0.0
H4363 H 0.95322 0.63958 0.62115 0.0
H4364 H 0.97706 0.64205 0.59949 0.0
H4365 H 0.068 0.60481 0.5768 0.0
H4366 H 0.06027 0.63425 0.59365 0.0
H4367 H 0.0086 0.61647 0.56165 0.0
H4368 H 0.01613 0.58712 0.54482 0.0
H4369 H 0.00817 0.63134 0.60143 0.0
H4370 H 0.03779 0.64752 0.54656 0.0
H4371 H 0.06234 0.64892 0.52589 0.0
H4372 H 0.09824 0.68502 0.57331 0.0
H4373 H 0.07394 0.68354 0.59439 0.0
C4374 C 0.99605 0.71925 0.62127 0.0
C4375 C 0.00929 0.73381 0.63306 0.0
C4376 C 0.99994 0.70203 0.61205 0.0
C4377 C 0.01707 0.69898 0.61467 0.0
C4378 C 0.03038 0.71366 0.62611 0.0
C4379 C 0.02654 0.7309 0.6352 0.0
C4380 C 0.02119 0.68045 0.6057 0.0
C4381 C 0.03527 0.68102 0.59406 0.0
C4382 C 0.01131 0.66233 0.60846 0.0
C4383 C 0.99697 0.66078 0.62147 0.0
C4384 C 1.00029 0.67032 0.64096 0.0
C4385 C 0.98668 0.6689 0.6531 0.0
C4386 C 0.96972 0.65785 0.64595 0.0
C4387 C 0.96635 0.64816 0.62666 0.0
C4388 C 0.97991 0.64955 0.61445 0.0
C4389 C 0.05495 0.6071 0.5735 0.0
C4390 C 0.04275 0.59379 0.55935 0.0
C4391 C 0.05058 0.6239 0.58308 0.0
C4392 C 0.03392 0.6275 0.57874 0.0
C4393 C 0.02151 0.6139 0.56516 0.0
C4394 C 0.02591 0.59723 0.55548 0.0
C4395 C 0.02967 0.64589 0.58766 0.0
C4396 C 0.01557 0.64525 0.5992 0.0
C4397 C 0.03955 0.66394 0.58488 0.0
C4398 C 0.05408 0.66528 0.5721 0.0
C4399 C 0.05094 0.65566 0.55262 0.0
C4400 C 0.06481 0.65647 0.54083 0.0
C4401 C 0.08185 0.66702 0.5483 0.0
C4402 C 0.08504 0.67684 0.56756 0.0
C4403 C 0.07122 0.67603 0.57943 0.0
H4404 H 0.09258 0.66762 0.53915 0.0
H4405 H 0.95921 0.65677 0.65537 0.0
H4406 H 0.63709 0.78213 0.83145 0.0
H4407 H 0.66612 0.78432 0.81929 0.0
H4408 H 0.69011 0.82659 0.8704 0.0
H4409 H 0.66115 0.82473 0.88253 0.0
H4410 H 0.70391 0.83704 0.83932 0.0
H4411 H 0.69487 0.78078 0.86715 0.0
H4412 H 0.67863 0.74943 0.8735 0.0
H4413 H 0.67608 0.72371 0.81336 0.0
H4414 H 0.69199 0.75499 0.80666 0.0
H4415 H 0.7835 0.78758 0.81485 0.0
H4416 H 0.75663 0.78894 0.8306 0.0
H4417 H 0.74358 0.82629 0.79324 0.0
H4418 H 0.7712 0.82579 0.77844 0.0
H4419 H 0.72524 0.77687 0.82095 0.0
H4420 H 0.71695 0.85315 0.81056 0.0
H4421 H 0.73593 0.88523 0.80992 0.0
H4422 H 0.77755 0.87299 0.8447 0.0
H4423 H 0.7588 0.84087 0.84563 0.0
C4424 C 0.64853 0.79191 0.84009 0.0
C4425 C 0.64683 0.80316 0.858 0.0
C4426 C 0.66511 0.79312 0.83314 0.0
C4427 C 0.68028 0.80549 0.84404 0.0
C4428 C 0.67857 0.81698 0.86175 0.0
C4429 C 0.66201 0.81581 0.8687 0.0
C4430 C 0.69798 0.80607 0.83714 0.0
C4431 C 0.7086 0.82391 0.83518 0.0
C4432 C 0.70434 0.78905 0.83249 0.0
C4433 C 0.69463 0.77022 0.83639 0.0
C4434 C 0.69076 0.76845 0.85527 0.0
C4435 C 0.6816 0.7507 0.85894 0.0
C4436 C 0.67633 0.73459 0.84385 0.0
C4437 C 0.68019 0.7362 0.82505 0.0
C4438 C 0.68931 0.75393 0.82131 0.0
C4439 C 0.77478 0.79589 0.80992 0.0
C4440 C 0.77883 0.80576 0.79479 0.0
C4441 C 0.75942 0.79674 0.81896 0.0
C4442 C 0.74792 0.80771 0.81319 0.0
C4443 C 0.7523 0.818 0.79832 0.0
C4444 C 0.76783 0.81735 0.7895 0.0
C4445 C 0.73114 0.80782 0.8223 0.0
C4446 C 0.72064 0.79008 0.82482 0.0
C4447 C 0.72526 0.82508 0.8282 0.0
C4448 C 0.73649 0.84455 0.82805 0.0
C4449 C 0.73011 0.85735 0.81817 0.0
C4450 C 0.74084 0.87553 0.81774 0.0
C4451 C 0.75792 0.88115 0.82729 0.0
C4452 C 0.76432 0.8686 0.83729 0.0
C4453 C 0.75366 0.8504 0.83775 0.0
H4454 H 0.7662 0.89522 0.82697 0.0
H4455 H 0.66925 0.72085 0.84671 0.0
H4456 H 0.44907 0.54385 0.71482 0.0
H4457 H 0.46225 0.53728 0.68415 0.0
H4458 H 0.48637 0.59816 0.69083 0.0
H4459 H 0.47278 0.60473 0.72076 0.0
H4460 H 0.47701 0.58783 0.65576 0.0
H4461 H 0.50906 0.55739 0.69664 0.0
H4462 H 0.51256 0.53483 0.71824 0.0
H4463 H 0.486 0.4865 0.67387 0.0
H4464 H 0.48217 0.5088 0.65207 0.0
H4465 H 0.53861 0.5817 0.58407 0.0
H4466 H 0.52457 0.58568 0.61426 0.0
H4467 H 0.49687 0.52559 0.60026 0.0
H4468 H 0.51107 0.5215 0.57013 0.0
H4469 H 0.5071 0.53417 0.63807 0.0
H4470 H 0.47583 0.56449 0.5971 0.0
H4471 H 0.47256 0.5869 0.57527 0.0
H4472 H 0.49799 0.63548 0.61995 0.0
H4473 H 0.50157 0.61332 0.64199 0.0
C4474 C 0.45729 0.55585 0.70988 0.0
C4475 C 0.45971 0.57489 0.72074 0.0
C4476 C 0.46503 0.55207 0.69215 0.0
C4477 C 0.4758 0.56711 0.68464 0.0
C4478 C 0.47823 0.58604 0.69568 0.0
C4479 C 0.4704 0.58982 0.71315 0.0
C4480 C 0.48424 0.56359 0.6654 0.0
C4481 C 0.48379 0.5762 0.65224 0.0
C4482 C 0.49286 0.54817 0.65977 0.0
C4483 C 0.49516 0.53477 0.67281 0.0
C4484 C 0.50387 0.54196 0.69154 0.0
C4485 C 0.50593 0.52922 0.70381 0.0
C4486 C 0.49946 0.50925 0.69745 0.0
C4487 C 0.49097 0.50197 0.67879 0.0
C4488 C 0.48887 0.51465 0.66647 0.0
C4489 C 0.5296 0.56922 0.58733 0.0
C4490 C 0.52624 0.5512 0.57425 0.0
C4491 C 0.52135 0.57158 0.60476 0.0
C4492 C 0.50927 0.55604 0.61 0.0
C4493 C 0.50601 0.53799 0.59701 0.0
C4494 C 0.51418 0.53566 0.57951 0.0
C4495 C 0.50008 0.55861 0.62876 0.0
C4496 C 0.50036 0.54582 0.64172 0.0
C4497 C 0.49133 0.57388 0.63427 0.0
C4498 C 0.48911 0.58724 0.62113 0.0
C4499 C 0.48082 0.57994 0.60222 0.0
C4500 C 0.4789 0.5926 0.58982 0.0
C4501 C 0.48511 0.6126 0.5962 0.0
C4502 C 0.49321 0.61998 0.61502 0.0
C4503 C 0.49517 0.60739 0.62748 0.0
H4504 H 0.48362 0.62237 0.58658 0.0
H4505 H 0.50106 0.49941 0.70698 0.0
H4506 H 0.80917 0.18513 0.97336 0.0
H4507 H 0.80569 0.20307 0.94768 0.0
H4508 H 0.7672 0.15346 0.91519 0.0
H4509 H 0.77108 0.13524 0.94044 0.0
H4510 H 0.7869 0.16989 0.89156 0.0
H4511 H 0.75498 0.19205 0.94399 0.0
H4512 H 0.75124 0.20555 0.97773 0.0
H4513 H 0.78972 0.25767 0.97571 0.0
H4514 H 0.79386 0.24436 0.94201 0.0
H4515 H 0.7349 0.22956 0.84673 0.0
H4516 H 0.74362 0.20687 0.86491 0.0
H4517 H 0.7962 0.24344 0.87807 0.0
H4518 H 0.78734 0.26711 0.86133 0.0
H4519 H 0.77031 0.2329 0.90987 0.0
H4520 H 0.80842 0.18641 0.86427 0.0
H4521 H 0.80911 0.16662 0.83209 0.0
H4522 H 0.75297 0.15896 0.82064 0.0
H4523 H 0.7519 0.17806 0.853 0.0
C4524 C 0.80011 0.17799 0.96064 0.0
C4525 C 0.79027 0.15885 0.95897 0.0
C4526 C 0.79808 0.18828 0.94602 0.0
C4527 C 0.78592 0.17973 0.92971 0.0
C4528 C 0.77663 0.16036 0.92767 0.0
C4529 C 0.77884 0.14998 0.94214 0.0
C4530 C 0.78226 0.19114 0.91512 0.0
C4531 C 0.78326 0.18368 0.89557 0.0
C4532 C 0.7774 0.20905 0.92034 0.0
C4533 C 0.77486 0.21713 0.94056 0.0
C4534 C 0.76273 0.20633 0.95079 0.0
C4535 C 0.76053 0.21396 0.9699 0.0
C4536 C 0.77027 0.23243 0.97888 0.0
C4537 C 0.7822 0.24335 0.96874 0.0
C4538 C 0.78448 0.23578 0.94964 0.0
C4539 C 0.74837 0.23283 0.85338 0.0
C4540 C 0.76031 0.25041 0.85269 0.0
C4541 C 0.75346 0.21951 0.86332 0.0
C4542 C 0.77073 0.22313 0.8722 0.0
C4543 C 0.78296 0.24013 0.87078 0.0
C4544 C 0.77781 0.25367 0.86118 0.0
C4545 C 0.77486 0.21158 0.88634 0.0
C4546 C 0.77408 0.21918 0.9059 0.0
C4547 C 0.77942 0.19355 0.88106 0.0
C4548 C 0.78018 0.18429 0.86078 0.0
C4549 C 0.79628 0.18077 0.85474 0.0
C4550 C 0.79669 0.16939 0.83661 0.0
C4551 C 0.78109 0.16152 0.82435 0.0
C4552 C 0.76506 0.16513 0.83014 0.0
C4553 C 0.76455 0.17633 0.84835 0.0
H4554 H 0.78143 0.15267 0.81034 0.0
H4555 H 0.76855 0.23831 0.99367 0.0
H4556 H 0.16745 0.52453 0.18977 0.0
H4557 H 0.14959 0.5269 0.16123 0.0
H4558 H 0.10462 0.48826 0.17718 0.0
H4559 H 0.12248 0.48565 0.20586 0.0
H4560 H 0.1087 0.48101 0.13713 0.0
H4561 H 0.10632 0.5345 0.18784 0.0
H4562 H 0.11919 0.56264 0.21395 0.0
H4563 H 0.14786 0.59185 0.17345 0.0
H4564 H 0.13532 0.56376 0.14713 0.0
H4565 H 0.0474 0.50589 0.073 0.0
H4566 H 0.06234 0.49974 0.10173 0.0
H4567 H 0.10873 0.54304 0.09615 0.0
H4568 H 0.09363 0.54998 0.06805 0.0
H4569 H 0.10182 0.54693 0.13234 0.0
H4570 H 0.10591 0.4937 0.08203 0.0
H4571 H 0.094 0.46567 0.05549 0.0
H4572 H 0.06327 0.43611 0.09438 0.0
H4573 H 0.07481 0.4641 0.12111 0.0
C4574 C 0.15381 0.51638 0.18717 0.0
C4575 C 0.14632 0.50506 0.20019 0.0
C4576 C 0.14363 0.51778 0.17086 0.0
C4577 C 0.12576 0.50797 0.16731 0.0
C4578 C 0.1184 0.49598 0.17977 0.0
C4579 C 0.1286 0.49457 0.19615 0.0
C4580 C 0.11465 0.51112 0.15109 0.0
C4581 C 0.10693 0.49534 0.13616 0.0
C4582 C 0.11267 0.5299 0.1498 0.0
C4583 C 0.11998 0.54696 0.16554 0.0
C4584 C 0.11544 0.54688 0.18452 0.0
C4585 C 0.12267 0.56282 0.19936 0.0
C4586 C 0.13436 0.579 0.19537 0.0
C4587 C 0.1388 0.5793 0.17652 0.0
C4588 C 0.13162 0.56338 0.16163 0.0
C4589 C 0.06069 0.5143 0.07803 0.0
C4590 C 0.06922 0.5286 0.06835 0.0
C4591 C 0.06928 0.5106 0.09433 0.0
C4592 C 0.08671 0.52081 0.10097 0.0
C4593 C 0.09527 0.53503 0.0913 0.0
C4594 C 0.08662 0.53891 0.07516 0.0
C4595 C 0.09609 0.51689 0.11808 0.0
C4596 C 0.10346 0.53255 0.13328 0.0
C4597 C 0.09784 0.49802 0.11951 0.0
C4598 C 0.09109 0.48107 0.10353 0.0
C4599 C 0.09652 0.48127 0.08489 0.0
C4600 C 0.08985 0.46539 0.06982 0.0
C4601 C 0.07785 0.44914 0.07323 0.0
C4602 C 0.07255 0.44872 0.09175 0.0
C4603 C 0.07916 0.46458 0.10687 0.0
H4604 H 0.07268 0.43686 0.06154 0.0
H4605 H 0.13996 0.59133 0.20688 0.0
H4606 H 0.83326 0.85097 0.48785 0.0
H4607 H 0.83222 0.83416 0.45435 0.0
H4608 H 0.78854 0.85807 0.43843 0.0
H4609 H 0.78925 0.8746 0.47193 0.0
H4610 H 0.78386 0.82172 0.41885 0.0
H4611 H 0.8314 0.87946 0.43273 0.0
H4612 H 0.85879 0.901 0.45049 0.0
H4613 H 0.88676 0.85606 0.43554 0.0
H4614 H 0.85944 0.83416 0.4179 0.0
H4615 H 0.81299 0.84384 0.32419 0.0
H4616 H 0.81725 0.8499 0.35946 0.0
H4617 H 0.80415 0.78829 0.35794 0.0
H4618 H 0.8001 0.78217 0.3223 0.0
H4619 H 0.83854 0.83916 0.38669 0.0
H4620 H 0.77588 0.78379 0.39545 0.0
H4621 H 0.74772 0.76547 0.37658 0.0
H4622 H 0.74884 0.811 0.34461 0.0
H4623 H 0.77683 0.8297 0.3635 0.0
C4624 C 0.82327 0.85246 0.47728 0.0
C4625 C 0.81145 0.86432 0.48257 0.0
C4626 C 0.82272 0.84286 0.4581 0.0
C4627 C 0.81047 0.84506 0.44377 0.0
C4628 C 0.79811 0.85613 0.4492 0.0
C4629 C 0.79859 0.86566 0.46838 0.0
C4630 C 0.81128 0.83709 0.42295 0.0
C4631 C 0.79589 0.82534 0.4119 0.0
C4632 C 0.8269 0.84192 0.41373 0.0
C4633 C 0.84334 0.85511 0.42422 0.0
C4634 C 0.84336 0.87413 0.43336 0.0
C4635 C 0.85887 0.88641 0.44338 0.0
C4636 C 0.87449 0.87988 0.4442 0.0
C4637 C 0.87464 0.86108 0.43493 0.0
C4638 C 0.85915 0.84873 0.42492 0.0
C4639 C 0.81145 0.83159 0.33139 0.0
C4640 C 0.80657 0.81257 0.32063 0.0
C4641 C 0.81393 0.83506 0.35151 0.0
C4642 C 0.81102 0.81957 0.36132 0.0
C4643 C 0.80651 0.80044 0.35061 0.0
C4644 C 0.80429 0.79695 0.33033 0.0
C4645 C 0.81116 0.82388 0.38268 0.0
C4646 C 0.82669 0.83505 0.3938 0.0
C4647 C 0.79558 0.8189 0.39186 0.0
C4648 C 0.77856 0.80799 0.38071 0.0
C4649 C 0.77008 0.7899 0.38443 0.0
C4650 C 0.75415 0.77946 0.37374 0.0
C4651 C 0.74654 0.78703 0.35936 0.0
C4652 C 0.75479 0.80511 0.3557 0.0
C4653 C 0.77068 0.81563 0.36639 0.0
H4654 H 0.73422 0.77892 0.35107 0.0
H4655 H 0.88649 0.8894 0.45197 0.0
H4656 H 0.43988 0.56337 0.83926 0.0
H4657 H 0.45221 0.55902 0.87057 0.0
H4658 H 0.5048 0.57295 0.85279 0.0
H4659 H 0.49247 0.57635 0.82147 0.0
H4660 H 0.50636 0.54754 0.87077 0.0
H4661 H 0.48389 0.60382 0.89057 0.0
H4662 H 0.46176 0.62375 0.89384 0.0
H4663 H 0.42992 0.58327 0.92287 0.0
H4664 H 0.45177 0.56297 0.91957 0.0
H4665 H 0.55063 0.55389 0.96685 0.0
H4666 H 0.5396 0.5582 0.93501 0.0
H4667 H 0.48617 0.54552 0.95073 0.0
H4668 H 0.49736 0.54255 0.98269 0.0
H4669 H 0.48597 0.57152 0.93363 0.0
H4670 H 0.50628 0.51107 0.90053 0.0
H4671 H 0.52875 0.49215 0.89257 0.0
H4672 H 0.56676 0.54427 0.88955 0.0
H4673 H 0.54418 0.56329 0.89636 0.0
C4674 C 0.45409 0.56574 0.84207 0.0
C4675 C 0.465 0.57037 0.82745 0.0
C4676 C 0.46129 0.5633 0.86025 0.0
C4677 C 0.47978 0.5658 0.86484 0.0
C4678 C 0.49058 0.5707 0.85022 0.0
C4679 C 0.4834 0.57281 0.83206 0.0
C4680 C 0.48799 0.56288 0.88426 0.0
C4681 C 0.50185 0.55305 0.88445 0.0
C4682 C 0.48255 0.56967 0.90267 0.0
C4683 C 0.46936 0.58178 0.90463 0.0
C4684 C 0.4721 0.5991 0.89752 0.0
C4685 C 0.45962 0.61047 0.89941 0.0
C4686 C 0.44441 0.60475 0.9085 0.0
C4687 C 0.44168 0.58766 0.91579 0.0
C4688 C 0.45412 0.57623 0.91393 0.0
C4689 C 0.53651 0.55162 0.96337 0.0
C4690 C 0.52497 0.54759 0.97761 0.0
C4691 C 0.53002 0.55397 0.94481 0.0
C4692 C 0.51168 0.55203 0.93953 0.0
C4693 C 0.5003 0.5474 0.95376 0.0
C4694 C 0.50677 0.54547 0.97226 0.0
C4695 C 0.50412 0.55579 0.92012 0.0
C4696 C 0.49037 0.56588 0.91994 0.0
C4697 C 0.50988 0.54959 0.90173 0.0
C4698 C 0.52376 0.53859 0.89945 0.0
C4699 C 0.5195 0.51848 0.8984 0.0
C4700 C 0.53218 0.50773 0.89388 0.0
C4701 C 0.54925 0.51704 0.89089 0.0
C4702 C 0.55359 0.53709 0.89203 0.0
C4703 C 0.54082 0.54782 0.896 0.0
H4704 H 0.55907 0.50869 0.88753 0.0
H4705 H 0.43477 0.61357 0.90995 0.0
H4706 H 0.76207 0.18213 0.06471 0.0
H4707 H 0.76539 0.20468 0.0955 0.0
H4708 H 0.82223 0.21457 0.09664 0.0
H4709 H 0.8189 0.19116 0.06609 0.0
H4710 H 0.81427 0.21199 0.1304 0.0
H4711 H 0.79893 0.24926 0.0867 0.0
H4712 H 0.78251 0.25722 0.05955 0.0
H4713 H 0.73568 0.25091 0.08943 0.0
H4714 H 0.75173 0.24263 0.11664 0.0
H4715 H 0.80044 0.30092 0.20328 0.0
H4716 H 0.80138 0.28572 0.16957 0.0
H4717 H 0.78459 0.22921 0.18378 0.0
H4718 H 0.78402 0.24417 0.21742 0.0
H4719 H 0.77823 0.26125 0.14122 0.0
H4720 H 0.80976 0.20003 0.16254 0.0
H4721 H 0.82997 0.19629 0.18906 0.0
H4722 H 0.85127 0.25783 0.20252 0.0
H4723 H 0.83151 0.26192 0.17586 0.0
C4724 C 0.77529 0.18915 0.07146 0.0
C4725 C 0.79023 0.18494 0.06296 0.0
C4726 C 0.77719 0.20218 0.08903 0.0
C4727 C 0.79408 0.21171 0.09824 0.0
C4728 C 0.80906 0.20748 0.08979 0.0
C4729 C 0.80715 0.19413 0.07234 0.0
C4730 C 0.7959 0.22544 0.11705 0.0
C4731 C 0.80646 0.22282 0.13269 0.0
C4732 C 0.78628 0.24017 0.11998 0.0
C4733 C 0.77653 0.2452 0.10368 0.0
C4734 C 0.78509 0.24944 0.08743 0.0
C4735 C 0.77585 0.25403 0.07204 0.0
C4736 C 0.75805 0.25454 0.07275 0.0
C4737 C 0.74947 0.25051 0.08889 0.0
C4738 C 0.75864 0.24589 0.10432 0.0
C4739 C 0.79688 0.28525 0.1992 0.0
C4740 C 0.79267 0.27374 0.21315 0.0
C4741 C 0.79733 0.27662 0.17992 0.0
C4742 C 0.79347 0.25636 0.17433 0.0
C4743 C 0.78801 0.24489 0.18793 0.0
C4744 C 0.78761 0.25349 0.20716 0.0
C4745 C 0.79581 0.24698 0.15453 0.0
C4746 C 0.78613 0.25052 0.13878 0.0
C4747 C 0.80684 0.23372 0.15134 0.0
C4748 C 0.81902 0.23127 0.16723 0.0
C4749 C 0.81883 0.21275 0.17106 0.0
C4750 C 0.83021 0.21057 0.18613 0.0
C4751 C 0.84189 0.22681 0.19745 0.0
C4752 C 0.84222 0.24526 0.19374 0.0
C4753 C 0.83092 0.24752 0.17866 0.0
H4754 H 0.85072 0.22509 0.20906 0.0
H4755 H 0.75092 0.25809 0.06082 0.0
H4756 H 0.14081 0.51652 0.28327 0.0
H4757 H 0.12031 0.52453 0.30658 0.0
H4758 H 0.16324 0.56585 0.34314 0.0
H4759 H 0.18397 0.55752 0.32006 0.0
H4760 H 0.14288 0.5455 0.36413 0.0
H4761 H 0.13307 0.58088 0.31555 0.0
H4762 H 0.12729 0.58609 0.28247 0.0
H4763 H 0.07705 0.54532 0.27579 0.0
H4764 H 0.08263 0.53963 0.30874 0.0
H4765 H 0.08275 0.57996 0.42502 0.0
H4766 H 0.10495 0.58041 0.40181 0.0
H4767 H 0.06808 0.53585 0.36087 0.0
H4768 H 0.04575 0.53558 0.38393 0.0
H4769 H 0.08719 0.5622 0.34307 0.0
H4770 H 0.09935 0.52548 0.39175 0.0
H4771 H 0.10609 0.52123 0.42502 0.0
H4772 H 0.15323 0.56674 0.43185 0.0
H4773 H 0.14663 0.57145 0.39869 0.0
C4774 C 0.14591 0.5273 0.29628 0.0
C4775 C 0.164 0.53644 0.29981 0.0
C4776 C 0.13416 0.53196 0.30953 0.0
C4777 C 0.14019 0.54607 0.32642 0.0
C4778 C 0.15829 0.55499 0.33015 0.0
C4779 C 0.17011 0.55021 0.31696 0.0
C4780 C 0.12759 0.55114 0.34032 0.0
C4781 C 0.13086 0.54951 0.35961 0.0
C4782 C 0.11184 0.55622 0.33437 0.0
C4783 C 0.10834 0.55972 0.31459 0.0
C4784 C 0.12084 0.57292 0.30699 0.0
C4785 C 0.11759 0.57598 0.28826 0.0
C4786 C 0.10183 0.56601 0.27702 0.0
C4787 C 0.08926 0.55302 0.28451 0.0
C4788 C 0.09245 0.54989 0.30322 0.0
C4789 C 0.07934 0.57045 0.41096 0.0
C4790 C 0.06262 0.55759 0.40629 0.0
C4791 C 0.09202 0.57069 0.39775 0.0
C4792 C 0.08828 0.55786 0.3798 0.0
C4793 C 0.07125 0.54581 0.37469 0.0
C4794 C 0.0585 0.54569 0.38783 0.0
C4795 C 0.10232 0.55613 0.36673 0.0
C4796 C 0.09932 0.55841 0.34761 0.0
C4797 C 0.11842 0.55187 0.3729 0.0
C4798 C 0.12238 0.54897 0.39282 0.0
C4799 C 0.11107 0.53468 0.4004 0.0
C4800 C 0.11488 0.53218 0.41923 0.0
C4801 C 0.13005 0.54374 0.43056 0.0
C4802 C 0.14147 0.55781 0.42306 0.0
C4803 C 0.1377 0.56041 0.40426 0.0
H4804 H 0.13298 0.54178 0.44513 0.0
H4805 H 0.09935 0.56839 0.26252 0.0
H4806 H 0.82354 0.89068 0.58699 0.0
H4807 H 0.82573 0.87832 0.61685 0.0
H4808 H 0.77213 0.84418 0.60325 0.0
H4809 H 0.76975 0.85663 0.57345 0.0
H4810 H 0.77802 0.86264 0.6407 0.0
H4811 H 0.80734 0.82326 0.59717 0.0
H4812 H 0.82917 0.81723 0.57423 0.0
H4813 H 0.87159 0.8474 0.61786 0.0
H4814 H 0.84999 0.85385 0.64099 0.0
H4815 H 0.77782 0.80067 0.70787 0.0
H4816 H 0.77637 0.81415 0.67868 0.0
H4817 H 0.83103 0.84505 0.69226 0.0
H4818 H 0.83264 0.8313 0.72141 0.0
H4819 H 0.82509 0.82914 0.65524 0.0
H4820 H 0.79642 0.86832 0.69897 0.0
H4821 H 0.77498 0.87471 0.72229 0.0
H4822 H 0.73195 0.84589 0.67893 0.0
H4823 H 0.75313 0.83909 0.65541 0.0
C4824 C 0.81221 0.88051 0.5903 0.0
C4825 C 0.79648 0.87461 0.57776 0.0
C4826 C 0.81351 0.8734 0.60738 0.0
C4827 C 0.79915 0.86017 0.61223 0.0
C4828 C 0.78339 0.85437 0.59981 0.0
C4829 C 0.78208 0.86145 0.58273 0.0
C4830 C 0.80049 0.85249 0.63033 0.0
C4831 C 0.78818 0.8551 0.64377 0.0
C4832 C 0.81404 0.84313 0.63462 0.0
C4833 C 0.82704 0.83921 0.62075 0.0
C4834 C 0.82132 0.82874 0.60183 0.0
C4835 C 0.83365 0.82523 0.5888 0.0
C4836 C 0.85175 0.83197 0.59457 0.0
C4837 C 0.85756 0.84221 0.6134 0.0
C4838 C 0.84528 0.84579 0.62648 0.0
C4839 C 0.78947 0.81054 0.70481 0.0
C4840 C 0.80527 0.81513 0.71712 0.0
C4841 C 0.78863 0.81824 0.68807 0.0
C4842 C 0.8035 0.83091 0.68339 0.0
C4843 C 0.81936 0.83537 0.69557 0.0
C4844 C 0.82025 0.82753 0.71225 0.0
C4845 C 0.80257 0.83922 0.66561 0.0
C4846 C 0.81495 0.83673 0.65222 0.0
C4847 C 0.78915 0.84881 0.66142 0.0
C4848 C 0.77637 0.85305 0.67547 0.0
C4849 C 0.78238 0.86323 0.69444 0.0
C4850 C 0.77028 0.86694 0.70769 0.0
C4851 C 0.75211 0.86067 0.70211 0.0
C4852 C 0.74602 0.85073 0.68324 0.0
C4853 C 0.75807 0.84696 0.66994 0.0
H4854 H 0.74276 0.86355 0.71239 0.0
H4855 H 0.86128 0.82923 0.58446 0.0
H4856 H 0.75114 0.45743 0.55258 0.0
H4857 H 0.72987 0.47722 0.56116 0.0
H4858 H 0.7617 0.5241 0.53928 0.0
H4859 H 0.78317 0.50451 0.53086 0.0
H4860 H 0.7498 0.53703 0.57366 0.0
H4861 H 0.72536 0.49548 0.51254 0.0
H4862 H 0.71494 0.46428 0.48964 0.0
H4863 H 0.67594 0.44529 0.52699 0.0
H4864 H 0.68631 0.4763 0.55025 0.0
H4865 H 0.68513 0.59027 0.55591 0.0
H4866 H 0.70866 0.57265 0.55633 0.0
H4867 H 0.67389 0.52723 0.57747 0.0
H4868 H 0.65035 0.54479 0.57709 0.0
H4869 H 0.68727 0.51312 0.54559 0.0
H4870 H 0.71028 0.5559 0.60569 0.0
H4871 H 0.7206 0.58729 0.62829 0.0
H4872 H 0.76201 0.60432 0.59291 0.0
H4873 H 0.75179 0.57313 0.56992 0.0
C4874 C 0.75363 0.47195 0.54959 0.0
C4875 C 0.76879 0.47936 0.54093 0.0
C4876 C 0.74146 0.48323 0.5545 0.0
C4877 C 0.74415 0.50205 0.5507 0.0
C4878 C 0.7594 0.50961 0.54234 0.0
C4879 C 0.7716 0.49835 0.53744 0.0
C4880 C 0.73086 0.5137 0.55502 0.0
C4881 C 0.73615 0.53193 0.5674 0.0
C4882 C 0.71299 0.50678 0.5472 0.0
C4883 C 0.70675 0.48812 0.53324 0.0
C4884 C 0.71467 0.48458 0.51595 0.0
C4885 C 0.70875 0.46695 0.50289 0.0
C4886 C 0.69483 0.45279 0.50689 0.0
C4887 C 0.68675 0.45626 0.52393 0.0
C4888 C 0.69264 0.47386 0.53705 0.0
C4889 C 0.68269 0.57681 0.56117 0.0
C4890 C 0.66589 0.5688 0.56629 0.0
C4891 C 0.69613 0.56674 0.5614 0.0
C4892 C 0.69301 0.54861 0.56691 0.0
C4893 C 0.67654 0.54114 0.57308 0.0
C4894 C 0.66312 0.55116 0.57282 0.0
C4895 C 0.70617 0.53653 0.56424 0.0
C4896 C 0.70086 0.51821 0.55206 0.0
C4897 C 0.724 0.54341 0.57223 0.0
C4898 C 0.73016 0.56223 0.58598 0.0
C4899 C 0.72149 0.5664 0.60263 0.0
C4900 C 0.72734 0.58415 0.61553 0.0
C4901 C 0.74193 0.59781 0.61202 0.0
C4902 C 0.75071 0.59373 0.5956 0.0
C4903 C 0.7449 0.57601 0.58264 0.0
H4904 H 0.74645 0.61153 0.62203 0.0
H4905 H 0.69026 0.43915 0.49675 0.0
H4906 H 0.25015 0.13189 0.49729 0.0
H4907 H 0.21979 0.11224 0.49394 0.0
H4908 H 0.20227 0.162 0.52243 0.0
H4909 H 0.2325 0.18154 0.52618 0.0
H4910 H 0.18857 0.13158 0.53679 0.0
H4911 H 0.19441 0.14468 0.47269 0.0
H4912 H 0.20801 0.14497 0.44203 0.0
H4913 H 0.19899 0.08289 0.43133 0.0
H4914 H 0.18554 0.08225 0.46207 0.0
H4915 H 0.09729 0.10017 0.5195 0.0
H4916 H 0.12725 0.11769 0.51696 0.0
H4917 H 0.13938 0.06465 0.48829 0.0
H4918 H 0.10891 0.04725 0.48973 0.0
H4919 H 0.15648 0.0945 0.47403 0.0
H4920 H 0.14894 0.08206 0.53835 0.0
H4921 H 0.13342 0.0829 0.56792 0.0
H4922 H 0.14516 0.1451 0.57786 0.0
H4923 H 0.16044 0.14463 0.5482 0.0
C4924 C 0.23981 0.13865 0.50278 0.0
C4925 C 0.24377 0.1583 0.51202 0.0
C4926 C 0.22244 0.12742 0.50078 0.0
C4927 C 0.20868 0.13566 0.50779 0.0
C4928 C 0.21264 0.15529 0.51693 0.0
C4929 C 0.22996 0.16647 0.51902 0.0
C4930 C 0.19019 0.12389 0.50615 0.0
C4931 C 0.18153 0.12362 0.52303 0.0
C4932 C 0.18109 0.11308 0.48827 0.0
C4933 C 0.18915 0.11344 0.46978 0.0
C4934 C 0.19546 0.1311 0.46388 0.0
C4935 C 0.20312 0.13133 0.44647 0.0
C4936 C 0.20442 0.11396 0.43477 0.0
C4937 C 0.19801 0.09633 0.44042 0.0
C4938 C 0.19035 0.09603 0.45783 0.0
C4939 C 0.10622 0.09219 0.51248 0.0
C4940 C 0.10082 0.07207 0.5054 0.0
C4941 C 0.12342 0.10226 0.51109 0.0
C4942 C 0.13581 0.09236 0.50314 0.0
C4943 C 0.13015 0.07255 0.49481 0.0
C4944 C 0.11273 0.06254 0.49577 0.0
C4945 C 0.15481 0.10252 0.50461 0.0
C4946 C 0.16359 0.10237 0.48778 0.0
C4947 C 0.16405 0.11303 0.52254 0.0
C4948 C 0.15574 0.1133 0.54098 0.0
C4949 C 0.14821 0.09591 0.54685 0.0
C4950 C 0.13941 0.09632 0.56359 0.0
C4951 C 0.13826 0.11404 0.57469 0.0
C4952 C 0.14604 0.13139 0.56921 0.0
C4953 C 0.15478 0.13106 0.55245 0.0
H4954 H 0.13135 0.11439 0.58755 0.0
H4955 H 0.21035 0.11417 0.42129 0.0
H4956 H 0.20266 0.95797 0.80603 0.0
H4957 H 0.21874 0.93244 0.8034 0.0
H4958 H 0.22392 0.93453 0.74348 0.0
H4959 H 0.2073 0.96041 0.74601 0.0
H4960 H 0.21901 0.89679 0.74688 0.0
H4961 H 0.2599 0.95359 0.78184 0.0
H4962 H 0.27076 0.98284 0.80729 0.0
H4963 H 0.26305 0.94815 0.85091 0.0
H4964 H 0.25191 0.91872 0.82573 0.0
H4965 H 0.28123 0.83294 0.74687 0.0
H4966 H 0.26746 0.86032 0.7437 0.0
H4967 H 0.25878 0.86765 0.80395 0.0
H4968 H 0.27241 0.84074 0.80702 0.0
H4969 H 0.26747 0.90203 0.79755 0.0
H4970 H 0.22476 0.8458 0.76331 0.0
H4971 H 0.21377 0.81621 0.73829 0.0
H4972 H 0.2251 0.84933 0.69383 0.0
H4973 H 0.23636 0.8791 0.71861 0.0
C4974 C 0.20715 0.95326 0.79214 0.0
C4975 C 0.20344 0.96192 0.77631 0.0
C4976 C 0.21665 0.9384 0.79068 0.0
C4977 C 0.22325 0.93119 0.77332 0.0
C4978 C 0.21932 0.93948 0.75724 0.0
C4979 C 0.20974 0.95455 0.75871 0.0
C4980 C 0.23413 0.91533 0.77242 0.0
C4981 C 0.2298 0.89826 0.75785 0.0
C4982 C 0.24824 0.91631 0.7867 0.0
C4983 C 0.25491 0.93397 0.80189 0.0
C4984 C 0.26039 0.95222 0.79686 0.0
C4985 C 0.26662 0.96883 0.81124 0.0
C4986 C 0.26755 0.96736 0.83071 0.0
C4987 C 0.2623 0.94927 0.83583 0.0
C4988 C 0.25604 0.93262 0.82151 0.0
C4989 C 0.27666 0.84057 0.75952 0.0
C4990 C 0.27844 0.83452 0.77739 0.0
C4991 C 0.26847 0.85628 0.75768 0.0
C4992 C 0.26163 0.86658 0.77356 0.0
C4993 C 0.26378 0.86056 0.79131 0.0
C4994 C 0.27173 0.84495 0.79308 0.0
C4995 C 0.25221 0.88334 0.77223 0.0
C4996 C 0.25678 0.9006 0.78647 0.0
C4997 C 0.23834 0.88245 0.75771 0.0
C4998 C 0.23159 0.86463 0.7428 0.0
C4999 C 0.22503 0.84674 0.74819 0.0
C5000 C 0.21873 0.82995 0.73406 0.0
C5001 C 0.21879 0.83088 0.71448 0.0
C5002 C 0.2251 0.84863 0.709 0.0
C5003 C 0.23143 0.86547 0.72308 0.0
H5004 H 0.2139 0.81786 0.70356 0.0
H5005 H 0.27238 0.98024 0.84182 0.0
H5006 H 0.36286 0.99157 0.02391 0.0
H5007 H 0.39461 0.99766 0.02098 0.0
H5008 H 0.40276 0.97704 0.07371 0.0
H5009 H 0.37102 0.97151 0.07706 0.0
H5010 H 0.42959 0.00566 0.07146 0.0
H5011 H 0.39836 0.94706 0.02947 0.0
H5012 H 0.37611 0.92583 0.00399 0.0
H5013 H 0.3977 0.95871 0.96234 0.0
H5014 H 0.41987 0.98038 0.98764 0.0
H5015 H 0.50569 0.96957 0.02146 0.0
H5016 H 0.47407 0.96408 0.02624 0.0
H5017 H 0.47827 0.02584 0.03697 0.0
H5018 H 0.50959 0.03129 0.03303 0.0
H5019 H 0.44565 0.97348 0.0089 0.0
H5020 H 0.45538 0.03748 0.07479 0.0
H5021 H 0.47902 0.05536 0.10051 0.0
H5022 H 0.50128 0.00543 0.09631 0.0
H5023 H 0.47763 0.98714 0.07086 0.0
C5024 C 0.37146 0.98869 0.03508 0.0
C5025 C 0.36447 0.98086 0.05059 0.0
C5026 C 0.38958 0.99207 0.03333 0.0
C5027 C 0.40095 0.98729 0.04684 0.0
C5028 C 0.39418 0.9807 0.06305 0.0
C5029 C 0.37605 0.97756 0.06495 0.0
C5030 C 0.41964 0.98799 0.04335 0.0
C5031 C 0.43308 0.99863 0.05779 0.0
C5032 C 0.42421 0.9783 0.02571 0.0
C5033 C 0.41069 0.96545 0.01051 0.0
C5034 C 0.39826 0.94989 0.01492 0.0
C5035 C 0.38567 0.93776 1.00051 0.0
C5036 C 0.3855 0.94092 0.98157 0.0
C5037 C 0.39785 0.95628 0.97702 0.0
C5038 C 0.41042 0.96849 0.99139 0.0
C5039 C 0.49972 0.98189 0.0246 0.0
C5040 C 0.50997 1.00082 0.02636 0.0
C5041 C 0.48174 0.97876 0.02726 0.0
C5042 C 0.47395 0.99459 0.03208 0.0
C5043 C 0.4841 0.01346 0.03339 0.0
C5044 C 0.50201 0.01656 0.03085 0.0
C5045 C 0.45543 0.99159 0.03672 0.0
C5046 C 0.44208 0.98047 0.02255 0.0
C5047 C 0.45097 1.00033 0.05479 0.0
C5048 C 0.4648 0.011 0.07075 0.0
C5049 C 0.46525 0.03027 0.07944 0.0
C5050 C 0.47869 0.0405 0.09394 0.0
C5051 C 0.49171 0.03157 0.09993 0.0
C5052 C 0.49127 0.01237 0.09154 0.0
C5053 C 0.47784 1.00207 0.0771 0.0
H5054 H 0.50206 0.03945 0.11119 0.0
H5055 H 0.37586 0.93141 0.97039 0.0
H5056 H 0.89539 0.64081 0.79979 0.0
H5057 H 0.87427 0.65716 0.78716 0.0
H5058 H 0.83731 0.60197 0.76693 0.0
H5059 H 0.85848 0.58556 0.77926 0.0
H5060 H 0.84078 0.61951 0.73908 0.0
H5061 H 0.83134 0.63869 0.80527 0.0
H5062 H 0.83858 0.65328 0.83992 0.0
H5063 H 0.85896 0.70896 0.8259 0.0
H5064 H 0.85215 0.69467 0.79116 0.0
H5065 H 0.77661 0.68946 0.73395 0.0
H5066 H 0.79148 0.67027 0.75174 0.0
H5067 H 0.83038 0.67043 0.71049 0.0
H5068 H 0.81545 0.68936 0.69263 0.0
H5069 H 0.82286 0.67876 0.77019 0.0
H5070 H 0.84679 0.63152 0.70641 0.0
H5071 H 0.83682 0.61599 0.67235 0.0
H5072 H 0.78277 0.61347 0.68351 0.0
H5073 H 0.79239 0.62875 0.71768 0.0
C5074 C 0.88268 0.63219 0.79283 0.0
C5075 C 0.87873 0.61187 0.79025 0.0
C5076 C 0.87055 0.64158 0.78564 0.0
C5077 C 0.85419 0.63082 0.77587 0.0
C5078 C 0.84991 0.6106 0.77421 0.0
C5079 C 0.86205 0.60122 0.78127 0.0
C5080 C 0.84227 0.6402 0.76566 0.0
C5081 C 0.83677 0.63238 0.74601 0.0
C5082 C 0.8369 0.65696 0.77463 0.0
C5083 C 0.84142 0.66552 0.79555 0.0
C5084 C 0.83758 0.65399 0.80955 0.0
C5085 C 0.84156 0.66223 0.82922 0.0
C5086 C 0.84928 0.68202 0.83511 0.0
C5087 C 0.85303 0.69362 0.82132 0.0
C5088 C 0.84911 0.68545 0.80163 0.0
C5089 C 0.78821 0.68515 0.72859 0.0
C5090 C 0.7948 0.6907 0.71181 0.0
C5091 C 0.79673 0.67428 0.73879 0.0
C5092 C 0.81199 0.66879 0.73242 0.0
C5093 C 0.81846 0.67418 0.71554 0.0
C5094 C 0.80988 0.68492 0.70526 0.0
C5095 C 0.82149 0.65801 0.74376 0.0
C5096 C 0.82669 0.6657 0.76348 0.0
C5097 C 0.82628 0.64088 0.73503 0.0
C5098 C 0.82033 0.63139 0.71457 0.0
C5099 C 0.83277 0.62755 0.70162 0.0
C5100 C 0.82718 0.61882 0.68229 0.0
C5101 C 0.80917 0.61378 0.67576 0.0
C5102 C 0.79671 0.61742 0.68857 0.0
C5103 C 0.80223 0.62613 0.70792 0.0
H5104 H 0.80488 0.60705 0.66079 0.0
H5105 H 0.85229 0.68837 0.85034 0.0
H5106 H 0.86067 0.67016 0.98951 0.0
H5107 H 0.88127 0.6501 0.99525 0.0
H5108 H 0.84334 0.61782 0.02651 0.0
H5109 H 0.82268 0.63795 0.02098 0.0
H5110 H 0.87612 0.62654 0.04527 0.0
H5111 H 0.84942 0.59901 0.98048 0.0
H5112 H 0.84044 0.59925 0.94651 0.0
H5113 H 0.89484 0.61885 0.9369 0.0
H5114 H 0.90413 0.61899 0.9709 0.0
H5115 H 0.91692 0.53809 0.01197 0.0
H5116 H 0.89654 0.55861 0.00674 0.0
H5117 H 0.93243 0.60773 0.04337 0.0
H5118 H 0.95279 0.58709 0.04885 0.0
H5119 H 0.90023 0.59007 0.99068 0.0
H5120 H 0.90761 0.63689 0.06733 0.0
H5121 H 0.915 0.63465 0.10115 0.0
H5122 H 0.89612 0.57276 0.08667 0.0
H5123 H 0.8884 0.57465 0.05285 0.0
C5124 C 0.85668 0.6588 0.99761 0.0
C5125 C 0.83997 0.65564 0.00472 0.0
C5126 C 0.86847 0.64729 1.00083 0.0
C5127 C 0.86382 0.63232 0.01117 0.0
C5128 C 0.84723 0.62928 0.01849 0.0
C5129 C 0.8354 0.64076 0.01524 0.0
C5130 C 0.8762 0.61982 0.01432 0.0
C5131 C 0.88141 0.61861 0.03333 0.0
C5132 C 0.88301 0.60929 0.99875 0.0
C5133 C 0.87745 0.60921 0.9783 0.0
C5134 C 0.85946 0.60353 0.97117 0.0
C5135 C 0.85431 0.60357 0.9519 0.0
C5136 C 0.86706 0.60911 0.93957 0.0
C5137 C 0.88498 0.61459 0.94647 0.0
C5138 C 0.89019 0.6146 0.96574 0.0
C5139 C 0.92038 0.55323 0.01903 0.0
C5140 C 0.93637 0.56099 0.03089 0.0
C5141 C 0.9088 0.56498 0.01591 0.0
C5142 C 0.91287 0.58469 0.02476 0.0
C5143 C 0.92891 0.59252 0.03656 0.0
C5144 C 0.94054 0.58076 0.03964 0.0
C5145 C 0.90024 0.59692 0.02163 0.0
C5146 C 0.89501 0.5981 1.00262 0.0
C5147 C 0.89324 0.60722 0.03718 0.0
C5148 C 0.89761 0.60591 0.05753 0.0
C5149 C 0.90498 0.62281 0.07139 0.0
C5150 C 0.90924 0.62161 0.09056 0.0
C5151 C 0.90609 0.60357 0.09604 0.0
C5152 C 0.89862 0.58671 0.08239 0.0
C5153 C 0.89432 0.58784 0.06321 0.0
H5154 H 0.90941 0.60267 0.11088 0.0
H5155 H 0.86305 0.60912 0.92465 0.0
H5156 H 0.22155 0.06959 0.78693 0.0
H5157 H 0.23967 0.10287 0.78992 0.0
H5158 H 0.19684 0.11822 0.75964 0.0
H5159 H 0.17898 0.08546 0.75658 0.0
H5160 H 0.22625 0.13335 0.74624 0.0
H5161 H 0.20848 0.13248 0.81054 0.0
H5162 H 0.20627 0.12068 0.84119 0.0
H5163 H 0.26295 0.13338 0.85113 0.0
H5164 H 0.26548 0.14503 0.8204 0.0
H5165 H 0.25108 0.23583 0.76428 0.0
H5166 H 0.23646 0.20214 0.76355 0.0
H5167 H 0.2814 0.19535 0.79788 0.0
H5168 H 0.29573 0.22955 0.7995 0.0
H5169 H 0.25357 0.17494 0.80904 0.0
H5170 H 0.27188 0.17726 0.74612 0.0
H5171 H 0.27474 0.18938 0.71568 0.0
H5172 H 0.21827 0.17333 0.70269 0.0
H5173 H 0.21505 0.16141 0.73322 0.0
C5174 C 0.216 0.08004 0.7809 0.0
C5175 C 0.19862 0.07451 0.77153 0.0
C5176 C 0.22638 0.09924 0.7827 0.0
C5177 C 0.21977 0.11352 0.77513 0.0
C5178 C 0.20252 0.10782 0.76564 0.0
C5179 C 0.19219 0.08885 0.76396 0.0
C5180 C 0.23046 0.13429 0.7768 0.0
C5181 C 0.23205 0.14241 0.76006 0.0
C5182 C 0.23867 0.14637 0.79461 0.0
C5183 C 0.23716 0.13941 0.81308 0.0
C5184 C 0.22047 0.13261 0.81919 0.0
C5185 C 0.21916 0.12598 0.83659 0.0
C5186 C 0.23446 0.12622 0.84807 0.0
C5187 C 0.25111 0.13316 0.8422 0.0
C5188 C 0.25249 0.13979 0.8248 0.0
C5189 C 0.25798 0.2273 0.77173 0.0
C5190 C 0.27499 0.23568 0.78155 0.0
C5191 C 0.24956 0.20775 0.77117 0.0
C5192 C 0.25785 0.19554 0.78013 0.0
C5193 C 0.27458 0.20404 0.79054 0.0
C5194 C 0.28296 0.22373 0.79129 0.0
C5195 C 0.24908 0.1741 0.77851 0.0
C5196 C 0.24787 0.16585 0.7952 0.0
C5197 C 0.24133 0.1618 0.76061 0.0
C5198 C 0.24322 0.16858 0.74204 0.0
C5199 C 0.26007 0.1764 0.73681 0.0
C5200 C 0.26175 0.18324 0.71955 0.0
C5201 C 0.24669 0.18216 0.70728 0.0
C5202 C 0.22992 0.17418 0.71222 0.0
C5203 C 0.22816 0.16736 0.7295 0.0
H5204 H 0.24802 0.18749 0.69393 0.0
H5205 H 0.23342 0.12109 0.86154 0.0
H5206 H 0.38225 0.98004 0.24043 0.0
H5207 H 0.37034 0.9452 0.23695 0.0
H5208 H 0.3531 0.95458 0.29417 0.0
H5209 H 0.36552 0.98936 0.29798 0.0
H5210 H 0.37093 0.9281 0.291 0.0
H5211 H 0.32287 0.93896 0.25127 0.0
H5212 H 0.30987 0.951 0.22457 0.0
H5213 H 0.33383 0.91552 0.18359 0.0
H5214 H 0.34691 0.90316 0.21006 0.0
H5215 H 0.30257 0.83249 0.2679 0.0
H5216 H 0.31378 0.86711 0.26953 0.0
H5217 H 0.36479 0.85704 0.25641 0.0
H5218 H 0.35403 0.82254 0.2566 0.0
H5219 H 0.331 0.88331 0.23678 0.0
H5220 H 0.38413 0.87884 0.28036 0.0
H5221 H 0.39759 0.87034 0.30908 0.0
H5222 H 0.36379 0.89797 0.34469 0.0
H5223 H 0.34927 0.90534 0.31591 0.0
C5224 C 0.37568 0.97471 0.25217 0.0
C5225 C 0.37494 0.98744 0.26955 0.0
C5226 C 0.36878 0.95477 0.2501 0.0
C5227 C 0.36073 0.94723 0.26526 0.0
C5228 C 0.35931 0.96004 0.2823 0.0
C5229 C 0.3664 0.97993 0.28446 0.0
C5230 C 0.3553 0.92596 0.26419 0.0
C5231 C 0.36211 0.91837 0.27915 0.0
C5232 C 0.34406 0.91314 0.24859 0.0
C5233 C 0.33596 0.92026 0.23264 0.0
C5234 C 0.32539 0.93376 0.23656 0.0
C5235 C 0.31797 0.94058 0.22147 0.0
C5236 C 0.32102 0.934 0.2024 0.0
C5237 C 0.33143 0.92051 0.19837 0.0
C5238 C 0.33879 0.91354 0.2134 0.0
C5239 C 0.31633 0.83769 0.26619 0.0
C5240 C 0.32757 0.82485 0.26298 0.0
C5241 C 0.32269 0.85749 0.26687 0.0
C5242 C 0.34031 0.86477 0.26377 0.0
C5243 C 0.35142 0.85191 0.25979 0.0
C5244 C 0.34517 0.83216 0.25967 0.0
C5245 C 0.3466 0.88566 0.26366 0.0
C5246 C 0.3399 0.89313 0.24851 0.0
C5247 C 0.35792 0.89847 0.2791 0.0
C5248 C 0.36516 0.89194 0.29588 0.0
C5249 C 0.37905 0.88233 0.29416 0.0
C5250 C 0.38695 0.87784 0.31048 0.0
C5251 C 0.38146 0.88347 0.32869 0.0
C5252 C 0.36796 0.89349 0.33057 0.0
C5253 C 0.35968 0.89752 0.31422 0.0
H5254 H 0.38772 0.88018 0.34134 0.0
H5255 H 0.31534 0.93937 0.19076 0.0
H5256 H 0.55528 0.35708 0.59713 0.0
H5257 H 0.55045 0.38492 0.58377 0.0
H5258 H 0.60612 0.40139 0.5771 0.0
H5259 H 0.61104 0.37408 0.5909 0.0
H5260 H 0.59714 0.43223 0.59035 0.0
H5261 H 0.57157 0.38007 0.53778 0.0
H5262 H 0.55186 0.34905 0.52122 0.0
H5263 H 0.50639 0.37152 0.53523 0.0
H5264 H 0.52582 0.40259 0.55211 0.0
H5265 H 0.56691 0.48952 0.51528 0.0
H5266 H 0.57045 0.45824 0.5228 0.0
H5267 H 0.56348 0.47841 0.58246 0.0
H5268 H 0.55981 0.50919 0.57502 0.0
H5269 H 0.54937 0.42873 0.53937 0.0
H5270 H 0.59345 0.46546 0.61101 0.0
H5271 H 0.615 0.49625 0.62461 0.0
H5272 H 0.62703 0.50351 0.56745 0.0
H5273 H 0.60576 0.47263 0.55353 0.0
C5274 C 0.56648 0.36654 0.59269 0.0
C5275 C 0.58357 0.36316 0.59518 0.0
C5276 C 0.56369 0.38251 0.58491 0.0
C5277 C 0.57787 0.39547 0.57912 0.0
C5278 C 0.59487 0.39189 0.58142 0.0
C5279 C 0.59768 0.37608 0.58931 0.0
C5280 C 0.57528 0.41309 0.57138 0.0
C5281 C 0.58665 0.43129 0.5792 0.0
C5282 C 0.56188 0.41226 0.55647 0.0
C5283 C 0.55016 0.39358 0.5464 0.0
C5284 C 0.55736 0.37834 0.53747 0.0
C5285 C 0.54624 0.36076 0.528 0.0
C5286 C 0.52789 0.35829 0.52723 0.0
C5287 C 0.52061 0.37343 0.53588 0.0
C5288 C 0.53167 0.39104 0.54539 0.0
C5289 C 0.56579 0.48706 0.52989 0.0
C5290 C 0.56271 0.50173 0.54448 0.0
C5291 C 0.56789 0.4692 0.53422 0.0
C5292 C 0.56734 0.46585 0.55329 0.0
C5293 C 0.56408 0.4805 0.56769 0.0
C5294 C 0.56194 0.49815 0.56339 0.0
C5295 C 0.57097 0.44765 0.55869 0.0
C5296 C 0.55982 0.42948 0.5505 0.0
C5297 C 0.58482 0.44837 0.57294 0.0
C5298 C 0.59788 0.4668 0.58123 0.0
C5299 C 0.60076 0.47357 0.60135 0.0
C5300 C 0.61291 0.49105 0.60911 0.0
C5301 C 0.62233 0.50185 0.59689 0.0
C5302 C 0.61967 0.49516 0.57689 0.0
C5303 C 0.60756 0.47769 0.56906 0.0
H5304 H 0.63172 0.51539 0.60293 0.0
H5305 H 0.5193 0.34467 0.51988 0.0
H5306 H 0.45473 0.78173 0.41781 0.0
H5307 H 0.42819 0.78116 0.39759 0.0
H5308 H 0.44852 0.75192 0.34813 0.0
H5309 H 0.47556 0.75279 0.36842 0.0
H5310 H 0.43372 0.77924 0.33798 0.0
H5311 H 0.41484 0.72797 0.37186 0.0
H5312 H 0.41101 0.71269 0.40035 0.0
H5313 H 0.37956 0.75197 0.42321 0.0
H5314 H 0.38347 0.76775 0.39501 0.0
H5315 H 0.35192 0.75531 0.27915 0.0
H5316 H 0.37785 0.75281 0.29841 0.0
H5317 H 0.36142 0.78511 0.34879 0.0
H5318 H 0.33521 0.78758 0.32949 0.0
H5319 H 0.37408 0.75485 0.35767 0.0
H5320 H 0.39399 0.80679 0.32434 0.0
H5321 H 0.39763 0.82185 0.29569 0.0
H5322 H 0.4267 0.78053 0.2715 0.0
H5323 H 0.42299 0.76503 0.2999 0.0
C5324 C 0.45364 0.77506 0.40265 0.0
C5325 C 0.4674 0.76719 0.39487 0.0
C5326 C 0.43829 0.77467 0.39105 0.0
C5327 C 0.43602 0.7662 0.37127 0.0
C5328 C 0.4498 0.75848 0.36333 0.0
C5329 C 0.46528 0.75892 0.37499 0.0
C5330 C 0.41938 0.76576 0.35903 0.0
C5331 C 0.42071 0.77358 0.34216 0.0
C5332 C 0.40223 0.75881 0.36454 0.0
C5333 C 0.39964 0.7492 0.38141 0.0
C5334 C 0.40723 0.73346 0.38303 0.0
C5335 C 0.40503 0.7247 0.39912 0.0
C5336 C 0.39516 0.73145 0.41363 0.0
C5337 C 0.38729 0.74684 0.41199 0.0
C5338 C 0.38948 0.75569 0.39595 0.0
C5339 C 0.35361 0.76186 0.29423 0.0
C5340 C 0.34126 0.77179 0.30244 0.0
C5341 C 0.36864 0.76047 0.30535 0.0
C5342 C 0.37189 0.769 0.3251 0.0
C5343 C 0.35935 0.77842 0.33358 0.0
C5344 C 0.34431 0.77985 0.32243 0.0
C5345 C 0.38847 0.7684 0.33674 0.0
C5346 C 0.38712 0.76041 0.35348 0.0
C5347 C 0.40558 0.77515 0.3311 0.0
C5348 C 0.40808 0.78464 0.31417 0.0
C5349 C 0.40107 0.80084 0.31286 0.0
C5350 C 0.40315 0.80946 0.29667 0.0
C5351 C 0.41235 0.80212 0.28176 0.0
C5352 C 0.41955 0.78618 0.28305 0.0
C5353 C 0.41748 0.77748 0.2992 0.0
H5354 H 0.41394 0.80881 0.26923 0.0
H5355 H 0.39359 0.72472 0.42613 0.0
H5356 H 0.07126 0.75178 0.10979 0.0
H5357 H 0.06742 0.71667 0.09961 0.0
H5358 H 0.07853 0.724 0.042 0.0
H5359 H 0.08258 0.75918 0.05213 0.0
H5360 H 0.04972 0.69314 0.04202 0.0
H5361 H 0.10959 0.7151 0.07054 0.0
H5362 H 0.13344 0.73276 0.09604 0.0
H5363 H 0.11042 0.69767 0.13535 0.0
H5364 H 0.08626 0.67997 0.11014 0.0
H5365 H 0.05177 0.59341 0.01216 0.0
H5366 H 0.05976 0.629 0.01814 0.0
H5367 H 0.06182 0.63069 0.07962 0.0
H5368 H 0.05504 0.59533 0.07359 0.0
H5369 H 0.08629 0.65797 0.07532 0.0
H5370 H 0.02449 0.63973 0.04955 0.0
H5371 H 0.99866 0.62416 0.02582 0.0
H5372 H 0.02403 0.65251 0.98282 0.0
H5373 H 0.04997 0.6684 0.00645 0.0
C5374 C 0.07279 0.74596 0.09491 0.0
C5375 C 0.07725 0.75844 0.08181 0.0
C5376 C 0.07069 0.72583 0.08912 0.0
C5377 C 0.07284 0.71757 0.07004 0.0
C5378 C 0.07683 0.72993 0.0568 0.0
C5379 C 0.07917 0.7501 0.06264 0.0
C5380 C 0.07096 0.6961 0.06397 0.0
C5381 C 0.0579 0.68549 0.04912 0.0
C5382 C 0.08139 0.68593 0.07337 0.0
C5383 C 0.09603 0.69632 0.08849 0.0
C5384 C 0.10954 0.71123 0.08466 0.0
C5385 C 0.12312 0.72124 0.09905 0.0
C5386 C 0.12342 0.71636 0.11731 0.0
C5387 C 0.11016 0.70143 0.12119 0.0
C5388 C 0.09653 0.69139 0.10685 0.0
C5389 C 0.0544 0.60141 0.02692 0.0
C5390 C 0.05325 0.59151 0.04241 0.0
C5391 C 0.05864 0.62185 0.03039 0.0
C5392 C 0.06118 0.63288 0.04943 0.0
C5393 C 0.06008 0.62283 0.0648 0.0
C5394 C 0.05614 0.60251 0.06134 0.0
C5395 C 0.06463 0.65475 0.05362 0.0
C5396 C 0.0781 0.66553 0.06811 0.0
C5397 C 0.05444 0.66508 0.04403 0.0
C5398 C 0.03919 0.65506 0.02967 0.0
C5399 C 0.0246 0.64249 0.03498 0.0
C5400 C 0.00993 0.63366 0.02156 0.0
C5401 C 0.00973 0.63726 1.00276 0.0
C5402 C 0.02422 0.64971 0.99737 0.0
C5403 C 0.03887 0.65868 0.01078 0.0
H5404 H 0.99833 0.63053 0.9924 0.0
H5405 H 0.13394 0.72413 0.12841 0.0
H5406 H 0.08759 0.28578 0.92053 0.0
H5407 H 0.11288 0.28802 0.9015 0.0
H5408 H 0.07768 0.26505 0.84919 0.0
H5409 H 0.05214 0.26256 0.86827 0.0
H5410 H 0.10598 0.24876 0.84848 0.0
H5411 H 0.09758 0.31372 0.86232 0.0
H5412 H 0.09404 0.34377 0.8831 0.0
H5413 H 0.14519 0.35092 0.91342 0.0
H5414 H 0.14892 0.32076 0.89298 0.0
H5415 H 0.16541 0.27607 0.78066 0.0
H5416 H 0.14138 0.27141 0.80124 0.0
H5417 H 0.17845 0.29643 0.85181 0.0
H5418 H 0.20267 0.30168 0.83109 0.0
H5419 H 0.14989 0.31129 0.85442 0.0
H5420 H 0.15895 0.24712 0.84011 0.0
H5421 H 0.16267 0.21704 0.81959 0.0
H5422 H 0.1107 0.20816 0.79056 0.0
H5423 H 0.10675 0.23835 0.81073 0.0
C5424 C 0.08513 0.28118 0.90497 0.0
C5425 C 0.06771 0.27406 0.89598 0.0
C5426 C 0.09969 0.28255 0.89406 0.0
C5427 C 0.09729 0.27697 0.87381 0.0
C5428 C 0.07994 0.26953 0.86477 0.0
C5429 C 0.06532 0.26815 0.87571 0.0
C5430 C 0.1129 0.27893 0.86217 0.0
C5431 C 0.11544 0.2625 0.84959 0.0
C5432 C 0.12564 0.2967 0.86398 0.0
C5433 C 0.12345 0.31488 0.87625 0.0
C5434 C 0.10801 0.32162 0.87352 0.0
C5435 C 0.10598 0.33869 0.88522 0.0
C5436 C 0.11936 0.34922 0.89961 0.0
C5437 C 0.13482 0.34273 0.90229 0.0
C5438 C 0.13691 0.32566 0.89064 0.0
C5439 C 0.16853 0.28061 0.79617 0.0
C5440 C 0.18605 0.28943 0.80415 0.0
C5441 C 0.15473 0.27774 0.80798 0.0
C5442 C 0.15798 0.2834 0.82818 0.0
C5443 C 0.17551 0.29189 0.83628 0.0
C5444 C 0.18941 0.29475 0.82442 0.0
C5445 C 0.14294 0.28112 0.84062 0.0
C5446 C 0.14049 0.29751 0.85334 0.0
C5447 C 0.13031 0.26329 0.83898 0.0
C5448 C 0.13262 0.2451 0.82683 0.0
C5449 C 0.14836 0.23884 0.82925 0.0
C5450 C 0.15051 0.22175 0.8177 0.0
C5451 C 0.13695 0.21072 0.80375 0.0
C5452 C 0.1212 0.21673 0.80136 0.0
C5453 C 0.11899 0.23382 0.81286 0.0
H5454 H 0.13863 0.19749 0.79482 0.0
H5455 H 0.11777 0.36243 0.90865 0.0
H5456 H 0.57217 0.74138 0.89831 0.0
H5457 H 0.5645 0.72156 0.92265 0.0
H5458 H 0.60147 0.76408 0.96529 0.0
H5459 H 0.60933 0.78392 0.94104 0.0
H5460 H 0.6038 0.72694 0.96667 0.0
H5461 H 0.55811 0.76231 0.96519 0.0
H5462 H 0.53446 0.77394 0.94958 0.0
H5463 H 0.50487 0.71523 0.92962 0.0
H5464 H 0.52846 0.70323 0.94489 0.0
H5465 H 0.5746 0.68805 0.04749 0.0
H5466 H 0.58102 0.71119 0.02584 0.0
H5467 H 0.54361 0.67183 0.98121 0.0
H5468 H 0.53686 0.64893 1.00289 0.0
H5469 H 0.54162 0.7088 0.98198 0.0
H5470 H 0.58708 0.67303 0.98089 0.0
H5471 H 0.61067 0.6602 0.995 0.0
H5472 H 0.64047 0.71821 0.01833 0.0
H5473 H 0.61694 0.73139 0.00452 0.0
C5474 C 0.57873 0.74647 0.91283 0.0
C5475 C 0.59131 0.76426 0.91776 0.0
C5476 C 0.57427 0.73518 0.92674 0.0
C5477 C 0.58226 0.74149 0.94582 0.0
C5478 C 0.59512 0.75899 0.95066 0.0
C5479 C 0.59955 0.77032 0.93678 0.0
C5480 C 0.57716 0.72986 0.96075 0.0
C5481 C 0.59026 0.72323 0.97025 0.0
C5482 C 0.55942 0.72467 0.96507 0.0
C5483 C 0.54513 0.73187 0.95605 0.0
C5484 C 0.54662 0.75187 0.95736 0.0
C5485 C 0.53321 0.75853 0.94859 0.0
C5486 C 0.51819 0.74533 0.93857 0.0
C5487 C 0.51652 0.72544 0.93736 0.0
C5488 C 0.52989 0.7187 0.94609 0.0
C5489 C 0.56749 0.68454 0.03321 0.0
C5490 C 0.55537 0.66663 0.02679 0.0
C5491 C 0.57127 0.69767 0.02081 0.0
C5492 C 0.563 0.69306 1.00182 0.0
C5493 C 0.55021 0.67563 0.99576 0.0
C5494 C 0.54645 0.66252 0.00811 0.0
C5495 C 0.56825 0.70585 0.98788 0.0
C5496 C 0.55519 0.71266 0.97853 0.0
C5497 C 0.586 0.71106 0.98355 0.0
C5498 C 0.60017 0.70319 0.99186 0.0
C5499 C 0.5986 0.68305 0.98917 0.0
C5500 C 0.61197 0.67571 0.99708 0.0
C5501 C 0.62703 0.68838 0.00761 0.0
C5502 C 0.62878 0.70842 0.0102 0.0
C5503 C 0.61544 0.71583 1.00231 0.0
H5504 H 0.63737 0.68268 0.01372 0.0
H5505 H 0.50783 0.75052 0.93179 0.0
H5506 H 0.0548 0.7921 0.72044 0.0
H5507 H 0.08069 0.78493 0.7363 0.0
H5508 H 0.11023 0.79693 0.6883 0.0
H5509 H 0.08449 0.80406 0.67234 0.0
H5510 H 0.11003 0.76108 0.69611 0.0
H5511 H 0.12068 0.82688 0.73137 0.0
H5512 H 0.11304 0.85473 0.75204 0.0
H5513 H 0.10412 0.82247 0.79749 0.0
H5514 H 0.11147 0.79431 0.77697 0.0
H5515 H 0.19595 0.75813 0.72797 0.0
H5516 H 0.16966 0.76815 0.71739 0.0
H5517 H 0.14614 0.75607 0.769 0.0
H5518 H 0.17285 0.74663 0.78011 0.0
H5519 H 0.14176 0.7905 0.7611 0.0
H5520 H 0.13206 0.72521 0.72666 0.0
H5521 H 0.1394 0.69708 0.70616 0.0
H5522 H 0.14576 0.72774 0.65929 0.0
H5523 H 0.13871 0.75619 0.67961 0.0
C5524 C 0.06692 0.79362 0.71345 0.0
C5525 C 0.06754 0.79845 0.69504 0.0
C5526 C 0.0817 0.78953 0.72255 0.0
C5527 C 0.09731 0.79031 0.7134 0.0
C5528 C 0.09825 0.79615 0.69553 0.0
C5529 C 0.08353 0.80027 0.68646 0.0
C5530 C 0.11213 0.78337 0.7215 0.0
C5531 C 0.11712 0.76767 0.71022 0.0
C5532 C 0.12086 0.7915 0.7402 0.0
C5533 C 0.11643 0.80841 0.75255 0.0
C5534 C 0.11692 0.82565 0.7457 0.0
C5535 C 0.11269 0.84151 0.75741 0.0
C5536 C 0.10805 0.84035 0.77605 0.0
C5537 C 0.10769 0.82334 0.78304 0.0
C5538 C 0.1119 0.80743 0.77138 0.0
C5539 C 0.18525 0.75771 0.73717 0.0
C5540 C 0.18649 0.75163 0.75491 0.0
C5541 C 0.17016 0.76329 0.73101 0.0
C5542 C 0.15589 0.76266 0.74232 0.0
C5543 C 0.15702 0.75659 0.76005 0.0
C5544 C 0.17218 0.75104 0.76628 0.0
C5545 C 0.1399 0.7685 0.73551 0.0
C5546 C 0.13461 0.78387 0.74703 0.0
C5547 C 0.13078 0.76001 0.71703 0.0
C5548 C 0.13499 0.7429 0.70473 0.0
C5549 C 0.13516 0.72602 0.71203 0.0
C5550 C 0.13924 0.71 0.70043 0.0
C5551 C 0.14308 0.71064 0.68145 0.0
C5552 C 0.1428 0.72728 0.67401 0.0
C5553 C 0.13874 0.74334 0.68555 0.0
H5554 H 0.14624 0.69822 0.67249 0.0
H5555 H 0.10477 0.85265 0.78509 0.0
H5556 H 0.05118 0.35045 0.40354 0.0
H5557 H 0.05151 0.38205 0.42331 0.0
H5558 H 0.10783 0.39203 0.43757 0.0
H5559 H 0.10766 0.3604 0.41769 0.0
H5560 H 0.08842 0.40148 0.46967 0.0
H5561 H 0.09519 0.41431 0.40561 0.0
H5562 H 0.08719 0.40816 0.3704 0.0
H5563 H 0.03574 0.41842 0.37989 0.0
H5564 H 0.04337 0.42442 0.41518 0.0
H5565 H 0.09485 0.50089 0.51243 0.0
H5566 H 0.10001 0.47095 0.49357 0.0
H5567 H 0.04733 0.45798 0.46426 0.0
H5568 H 0.04237 0.48798 0.48241 0.0
H5569 H 0.06867 0.45115 0.43915 0.0
H5570 H 0.05861 0.43292 0.50102 0.0
H5571 H 0.06357 0.43556 0.5363 0.0
H5572 H 0.11795 0.4337 0.53133 0.0
H5573 H 0.11322 0.43082 0.49596 0.0
C5574 C 0.06362 0.3593 0.41095 0.0
C5575 C 0.0794 0.35299 0.40902 0.0
C5576 C 0.06379 0.37736 0.42217 0.0
C5577 C 0.07972 0.38936 0.43171 0.0
C5578 C 0.09543 0.38294 0.43024 0.0
C5579 C 0.09531 0.36493 0.41886 0.0
C5580 C 0.0799 0.40875 0.44299 0.0
C5581 C 0.08442 0.41253 0.46301 0.0
C5582 C 0.07431 0.42287 0.43425 0.0
C5583 C 0.06982 0.41972 0.41304 0.0
C5584 C 0.08214 0.41517 0.40019 0.0
C5585 C 0.07768 0.41173 0.38022 0.0
C5586 C 0.06097 0.4129 0.37292 0.0
C5587 C 0.04869 0.41756 0.38557 0.0
C5588 C 0.05309 0.42101 0.40556 0.0
C5589 C 0.08438 0.49161 0.50198 0.0
C5590 C 0.06819 0.49679 0.49893 0.0
C5591 C 0.08731 0.47446 0.49128 0.0
C5592 C 0.07399 0.46209 0.47761 0.0
C5593 C 0.05785 0.4673 0.47464 0.0
C5594 C 0.05501 0.48449 0.4851 0.0
C5595 C 0.07675 0.44383 0.46606 0.0
C5596 C 0.07287 0.44026 0.44589 0.0
C5597 C 0.08263 0.42977 0.47471 0.0
C5598 C 0.08562 0.43187 0.49594 0.0
C5599 C 0.07164 0.43318 0.50749 0.0
C5600 C 0.07439 0.4346 0.52746 0.0
C5601 C 0.09108 0.43485 0.53606 0.0
C5602 C 0.10504 0.43353 0.52466 0.0
C5603 C 0.10231 0.43191 0.50464 0.0
H5604 H 0.09321 0.43607 0.55155 0.0
H5605 H 0.05754 0.41021 0.35745 0.0
H5606 H 0.47813 0.25453 0.20255 0.0
H5607 H 0.45312 0.24966 0.22195 0.0
H5608 H 0.4252 0.27865 0.18639 0.0
H5609 H 0.44986 0.28287 0.16651 0.0
H5610 H 0.44037 0.27379 0.24404 0.0
H5611 H 0.38147 0.2637 0.18436 0.0
H5612 H 0.3725 0.24697 0.15052 0.0
H5613 H 0.40671 0.2085 0.15628 0.0
H5614 H 0.41566 0.22475 0.19028 0.0
H5615 H 0.34808 0.29565 0.24269 0.0
H5616 H 0.37524 0.28944 0.2304 0.0
H5617 H 0.38141 0.25723 0.27525 0.0
H5618 H 0.3556 0.26621 0.28927 0.0
H5619 H 0.37783 0.25439 0.21634 0.0
H5620 H 0.40958 0.25265 0.28033 0.0
H5621 H 0.42158 0.26574 0.31442 0.0
H5622 H 0.44485 0.32037 0.29989 0.0
H5623 H 0.432 0.30797 0.26602 0.0
C5624 C 0.46658 0.25973 0.19879 0.0
C5625 C 0.46592 0.26911 0.18303 0.0
C5626 C 0.45231 0.2569 0.20987 0.0
C5627 C 0.43717 0.26352 0.20548 0.0
C5628 C 0.43653 0.27292 0.18975 0.0
C5629 C 0.45069 0.27549 0.17849 0.0
C5630 C 0.42256 0.26195 0.2181 0.0
C5631 C 0.42662 0.26912 0.23804 0.0
C5632 C 0.40466 0.25542 0.2104 0.0
C5633 C 0.39936 0.24559 0.18988 0.0
C5634 C 0.38703 0.25162 0.17846 0.0
C5635 C 0.38195 0.24222 0.15923 0.0
C5636 C 0.38907 0.22672 0.15123 0.0
C5637 C 0.40125 0.22056 0.16247 0.0
C5638 C 0.40636 0.22988 0.18172 0.0
C5639 C 0.35607 0.28863 0.2508 0.0
C5640 C 0.35067 0.28285 0.2678 0.0
C5641 C 0.37139 0.28464 0.24355 0.0
C5642 C 0.38105 0.27357 0.25236 0.0
C5643 C 0.37517 0.26696 0.26894 0.0
C5644 C 0.36019 0.27179 0.27675 0.0
C5645 C 0.39551 0.26708 0.24213 0.0
C5646 C 0.39147 0.25838 0.22247 0.0
C5647 C 0.41332 0.27153 0.25024 0.0
C5648 C 0.41898 0.27973 0.27092 0.0
C5649 C 0.41655 0.26772 0.28462 0.0
C5650 C 0.42363 0.27495 0.30384 0.0
C5651 C 0.43377 0.29393 0.30935 0.0
C5652 C 0.43682 0.30573 0.29566 0.0
C5653 C 0.4294 0.29871 0.27652 0.0
H5654 H 0.43939 0.29944 0.32419 0.0
H5655 H 0.38512 0.21947 0.13633 0.0
H5656 H 0.66033 0.55393 0.34145 0.0
H5657 H 0.64463 0.55338 0.37015 0.0
H5658 H 0.61919 0.49331 0.34871 0.0
H5659 H 0.63488 0.4939 0.31924 0.0
H5660 H 0.59561 0.51013 0.36698 0.0
H5661 H 0.65502 0.50996 0.38727 0.0
H5662 H 0.68756 0.52084 0.39109 0.0
H5663 H 0.68397 0.57661 0.42217 0.0
H5664 H 0.65139 0.56614 0.41832 0.0
H5665 H 0.56457 0.50103 0.46045 0.0
H5666 H 0.57881 0.49772 0.43035 0.0
H5667 H 0.60848 0.55698 0.4471 0.0
H5668 H 0.59445 0.5602 0.47729 0.0
H5669 H 0.62977 0.53813 0.43091 0.0
H5670 H 0.56993 0.53814 0.40963 0.0
H5671 H 0.53747 0.52644 0.4067 0.0
H5672 H 0.54194 0.47009 0.37812 0.0
H5673 H 0.57446 0.48138 0.38114 0.0
C5674 C 0.65144 0.54044 0.34259 0.0
C5675 C 0.64923 0.52391 0.32759 0.0
C5676 C 0.64241 0.54013 0.35939 0.0
C5677 C 0.63075 0.5232 0.36241 0.0
C5678 C 0.62807 0.50668 0.34724 0.0
C5679 C 0.63716 0.507 0.33021 0.0
C5680 C 0.62173 0.52308 0.38133 0.0
C5681 C 0.60324 0.51601 0.38091 0.0
C5682 C 0.63117 0.53096 0.39998 0.0
C5683 C 0.65075 0.53732 0.40236 0.0
C5684 C 0.66117 0.52459 0.39481 0.0
C5685 C 0.67962 0.53068 0.39699 0.0
C5686 C 0.68783 0.54942 0.40683 0.0
C5687 C 0.6776 0.5621 0.41454 0.0
C5688 C 0.65913 0.55609 0.41238 0.0
C5689 C 0.57398 0.51349 0.45775 0.0
C5690 C 0.57794 0.53102 0.47163 0.0
C5691 C 0.58222 0.51159 0.44025 0.0
C5692 C 0.59475 0.52718 0.43566 0.0
C5693 C 0.59895 0.54456 0.44973 0.0
C5694 C 0.59077 0.54644 0.46723 0.0
C5695 C 0.60361 0.52549 0.41659 0.0
C5696 C 0.62211 0.53223 0.41699 0.0
C5697 C 0.59417 0.51724 0.39799 0.0
C5698 C 0.57463 0.51056 0.39576 0.0
C5699 C 0.56399 0.52323 0.40279 0.0
C5700 C 0.54559 0.51668 0.40111 0.0
C5701 C 0.53766 0.49752 0.39226 0.0
C5702 C 0.54811 0.48491 0.38499 0.0
C5703 C 0.56653 0.49139 0.38667 0.0
H5704 H 0.52341 0.49246 0.39101 0.0
H5705 H 0.70211 0.55411 0.4085 0.0
H5706 H 0.28787 0.92795 0.07899 0.0
H5707 H 0.28396 0.91106 0.10617 0.0
H5708 H 0.33141 0.89076 0.09527 0.0
H5709 H 0.33514 0.9071 0.06797 0.0
H5710 H 0.30612 0.86221 0.09974 0.0
H5711 H 0.33017 0.92833 0.13372 0.0
H5712 H 0.3309 0.96316 0.1433 0.0
H5713 H 0.28016 0.94932 0.16495 0.0
H5714 H 0.27908 0.91439 0.15535 0.0
H5715 H 0.33902 0.85886 0.19954 0.0
H5716 H 0.32962 0.87914 0.17882 0.0
H5717 H 0.28471 0.83277 0.15394 0.0
H5718 H 0.29484 0.81175 0.17316 0.0
H5719 H 0.30273 0.89379 0.16746 0.0
H5720 H 0.28273 0.82745 0.10601 0.0
H5721 H 0.28658 0.79391 0.09769 0.0
H5722 H 0.3369 0.81086 0.13187 0.0
H5723 H 0.33343 0.84451 0.14015 0.0
C5724 C 0.29746 0.91988 0.08244 0.0
C5725 C 0.31176 0.91873 0.07129 0.0
C5726 C 0.29526 0.91034 0.09802 0.0
C5727 C 0.30743 0.89971 0.10278 0.0
C5728 C 0.3218 0.89879 0.09178 0.0
C5729 C 0.32392 0.90814 0.07617 0.0
C5730 C 0.30511 0.88886 0.11872 0.0
C5731 C 0.30521 0.86913 0.1145 0.0
C5732 C 0.30388 0.89783 0.13799 0.0
C5733 C 0.30443 0.91878 0.14357 0.0
C5734 C 0.31909 0.93272 0.14035 0.0
C5735 C 0.3196 0.95248 0.14584 0.0
C5736 C 0.30555 0.95845 0.15465 0.0
C5737 C 0.291 0.94468 0.15805 0.0
C5738 C 0.29044 0.9249 0.15261 0.0
C5739 C 0.32706 0.85299 0.18977 0.0
C5740 C 0.31814 0.8334 0.18746 0.0
C5741 C 0.32148 0.86478 0.17824 0.0
C5742 C 0.30671 0.85731 0.16454 0.0
C5743 C 0.29637 0.83867 0.16416 0.0
C5744 C 0.30216 0.82669 0.17532 0.0
C5745 C 0.30437 0.86742 0.14847 0.0
C5746 C 0.30325 0.88688 0.1526 0.0
C5747 C 0.30529 0.85844 0.12912 0.0
C5748 C 0.30771 0.83838 0.12385 0.0
C5749 C 0.29463 0.824 0.11167 0.0
C5750 C 0.29675 0.80499 0.10697 0.0
C5751 C 0.31195 0.80025 0.1143 0.0
C5752 C 0.32511 0.81454 0.12624 0.0
C5753 C 0.32309 0.83357 0.13093 0.0
H5754 H 0.31353 0.78551 0.11069 0.0
H5755 H 0.30597 0.97375 0.1589 0.0
H5756 H 0.94766 0.59507 0.8451 0.0
H5757 H 0.96966 0.59652 0.87179 0.0
H5758 H 0.93264 0.55299 0.89297 0.0
H5759 H 0.9105 0.55181 0.86672 0.0
H5760 H 0.95041 0.57975 0.92193 0.0
H5761 H 0.96488 0.54189 0.86371 0.0
H5762 H 0.97233 0.53698 0.82997 0.0
H5763 H 0.01892 0.58319 0.84588 0.0
H5764 H 0.01159 0.58857 0.87968 0.0
H5765 H 0.99823 0.52958 0.97183 0.0
H5766 H 0.98099 0.53835 0.94652 0.0
H5767 H 0.02513 0.58457 0.94153 0.0
H5768 H 0.04268 0.57595 0.96718 0.0
H5769 H 0.00704 0.56298 0.90545 0.0
H5770 H 0.99399 0.59462 0.96632 0.0
H5771 H 0.98491 0.5979 0.99935 0.0
H5772 H 0.93365 0.56171 0.97795 0.0
H5773 H 0.94267 0.55707 0.94487 0.0
C5774 C 0.94411 0.58604 0.85564 0.0
C5775 C 0.92738 0.57319 0.85371 0.0
C5776 C 0.95675 0.58681 0.8708 0.0
C5777 C 0.95291 0.57458 0.88413 0.0
C5778 C 0.93591 0.5625 0.88279 0.0
C5779 C 0.92326 0.56183 0.86775 0.0
C5780 C 0.96665 0.57359 0.89907 0.0
C5781 C 0.96275 0.57596 0.91834 0.0
C5782 C 0.98299 0.56926 0.89438 0.0
C5783 C 0.98758 0.56579 0.87416 0.0
C5784 C 0.97666 0.55108 0.85998 0.0
C5785 C 0.98086 0.54821 0.84085 0.0
C5786 C 0.99606 0.55981 0.83577 0.0
C5787 C 0.00713 0.57425 0.84983 0.0
C5788 C 1.00296 0.57722 0.86897 0.0
C5789 C 0.00441 0.54157 0.96536 0.0
C5790 C 0.02183 0.55217 0.97168 0.0
C5791 C 0.99448 0.54656 0.95087 0.0
C5792 C 1.00169 0.56228 0.94241 0.0
C5793 C 0.01933 0.57242 0.948 0.0
C5794 C 0.02932 0.56747 0.96262 0.0
C5795 C 0.9904 0.5683 0.9282 0.0
C5796 C 0.99482 0.56701 0.90911 0.0
C5797 C 0.97431 0.57324 0.93298 0.0
C5798 C 0.96907 0.57544 0.95303 0.0
C5799 C 0.98088 0.58707 0.96863 0.0
C5800 C 0.97574 0.58921 0.98736 0.0
C5801 C 0.95869 0.58028 0.99065 0.0
C5802 C 0.94684 0.56871 0.97532 0.0
C5803 C 0.952 0.56621 0.95658 0.0
H5804 H 0.95467 0.58243 0.00507 0.0
H5805 H 0.99927 0.55758 0.82095 0.0
H5806 H 0.29707 0.197 0.57424 0.0
H5807 H 0.29489 0.21124 0.60779 0.0
H5808 H 0.30906 0.26854 0.59489 0.0
H5809 H 0.31131 0.25435 0.56108 0.0
H5810 H 0.3265 0.26581 0.62971 0.0
H5811 H 0.26714 0.25025 0.59979 0.0
H5812 H 0.24052 0.22941 0.5799 0.0
H5813 H 0.23631 0.18942 0.61864 0.0
H5814 H 0.26307 0.20986 0.63861 0.0
H5815 H 0.30408 0.30283 0.72475 0.0
H5816 H 0.30274 0.29688 0.68915 0.0
H5817 H 0.29072 0.23522 0.68733 0.0
H5818 H 0.29229 0.24111 0.7226 0.0
H5819 H 0.27058 0.24537 0.65879 0.0
H5820 H 0.33134 0.25764 0.68573 0.0
H5821 H 0.35869 0.27682 0.7055 0.0
H5822 H 0.36083 0.32165 0.67246 0.0
H5823 H 0.33325 0.30287 0.65273 0.0
C5824 C 0.2998 0.21265 0.57847 0.0
C5825 C 0.3043 0.22451 0.56487 0.0
C5826 C 0.29847 0.22077 0.59769 0.0
C5827 C 0.30158 0.24096 0.60384 0.0
C5828 C 0.30653 0.25292 0.59046 0.0
C5829 C 0.30777 0.24478 0.57113 0.0
C5830 C 0.29946 0.24935 0.62421 0.0
C5831 C 0.31416 0.2617 0.63597 0.0
C5832 C 0.28344 0.24377 0.63248 0.0
C5833 C 0.2672 0.23154 0.62063 0.0
C5834 C 0.26061 0.23695 0.604 0.0
C5835 C 0.24548 0.22521 0.59272 0.0
C5836 C 0.23674 0.20809 0.59798 0.0
C5837 C 0.24309 0.20269 0.61457 0.0
C5838 C 0.25823 0.21436 0.62589 0.0
C5839 C 0.30076 0.28805 0.71664 0.0
C5840 C 0.29801 0.27239 0.72629 0.0
C5841 C 0.30012 0.28466 0.69637 0.0
C5842 C 0.29669 0.26558 0.68559 0.0
C5843 C 0.29331 0.25002 0.6953 0.0
C5844 C 0.29422 0.2534 0.71543 0.0
C5845 C 0.2977 0.26147 0.66435 0.0
C5846 C 0.2828 0.24986 0.65242 0.0
C5847 C 0.31357 0.26761 0.65599 0.0
C5848 C 0.33007 0.27898 0.66794 0.0
C5849 C 0.33751 0.27169 0.68283 0.0
C5850 C 0.35308 0.28247 0.694 0.0
C5851 C 0.36147 0.30047 0.69028 0.0
C5852 C 0.35429 0.30772 0.67537 0.0
C5853 C 0.33868 0.29703 0.6642 0.0
H5854 H 0.37355 0.30876 0.69889 0.0
H5855 H 0.22504 0.19902 0.58921 0.0
H5856 H 0.66121 0.51751 0.20394 0.0
H5857 H 0.64845 0.52127 0.17247 0.0
H5858 H 0.59732 0.51646 0.19398 0.0
H5859 H 0.60991 0.51275 0.22515 0.0
H5860 H 0.59204 0.49746 0.15758 0.0
H5861 H 0.62519 0.56122 0.18842 0.0
H5862 H 0.65179 0.58578 0.20408 0.0
H5863 H 0.67851 0.57456 0.15318 0.0
H5864 H 0.65213 0.54973 0.13731 0.0
H5865 H 0.55035 0.53074 0.07927 0.0
H5866 H 0.56215 0.52742 0.11145 0.0
H5867 H 0.61465 0.53564 0.09304 0.0
H5868 H 0.603 0.5391 0.0614 0.0
H5869 H 0.61879 0.55308 0.12828 0.0
H5870 H 0.58702 0.48945 0.09728 0.0
H5871 H 0.56145 0.4637 0.08111 0.0
H5872 H 0.5332 0.47317 0.13109 0.0
H5873 H 0.55853 0.4992 0.14747 0.0
C5874 C 0.64722 0.51708 0.20199 0.0
C5875 C 0.63679 0.51477 0.21754 0.0
C5876 C 0.63984 0.51941 0.18384 0.0
C5877 C 0.62169 0.51944 0.18037 0.0
C5878 C 0.61126 0.51658 0.19576 0.0
C5879 C 0.61862 0.51447 0.21385 0.0
C5880 C 0.61353 0.5227 0.16115 0.0
C5881 C 0.59786 0.50981 0.15141 0.0
C5882 C 0.62094 0.5385 0.1523 0.0
C5883 C 0.63675 0.55348 0.16176 0.0
C5884 C 0.63678 0.5639 0.18062 0.0
C5885 C 0.65181 0.57788 0.18953 0.0
C5886 C 0.66685 0.58169 0.17965 0.0
C5887 C 0.66686 0.57157 0.16082 0.0
C5888 C 0.65187 0.55755 0.15187 0.0
C5889 C 0.56444 0.53217 0.0822 0.0
C5890 C 0.57566 0.53549 0.0675 0.0
C5891 C 0.57126 0.53001 0.10068 0.0
C5892 C 0.58953 0.53097 0.10517 0.0
C5893 C 0.60062 0.53479 0.09054 0.0
C5894 C 0.59384 0.5368 0.07221 0.0
C5895 C 0.59731 0.5278 0.12462 0.0
C5896 C 0.61291 0.54073 0.13443 0.0
C5897 C 0.58994 0.51191 0.13339 0.0
C5898 C 0.5746 0.49645 0.12352 0.0
C5899 C 0.57529 0.48618 0.10476 0.0
C5900 C 0.56085 0.47151 0.09556 0.0
C5901 C 0.54569 0.46685 0.10504 0.0
C5902 C 0.54494 0.47683 0.12375 0.0
C5903 C 0.55934 0.49155 0.133 0.0
H5904 H 0.53453 0.45546 0.09791 0.0
H5905 H 0.67847 0.59252 0.18657 0.0
H5906 H 0.2944 0.89993 0.98311 0.0
H5907 H 0.29215 0.8751 0.95374 0.0
H5908 H 0.34165 0.90649 0.93878 0.0
H5909 H 0.34396 0.93128 0.96788 0.0
H5910 H 0.31393 0.89656 0.90906 0.0
H5911 H 0.34038 0.86634 0.95581 0.0
H5912 H 0.34112 0.8531 0.98562 0.0
H5913 H 0.29196 0.81204 0.96467 0.0
H5914 H 0.2908 0.82523 0.93484 0.0
H5915 H 0.33392 0.83728 0.83006 0.0
H5916 H 0.33578 0.85592 0.86262 0.0
H5917 H 0.29298 0.81256 0.87591 0.0
H5918 H 0.29218 0.79289 0.84368 0.0
H5919 H 0.31394 0.82736 0.90691 0.0
H5920 H 0.28544 0.85591 0.86207 0.0
H5921 H 0.28075 0.86959 0.83316 0.0
H5922 H 0.32904 0.91311 0.85039 0.0
H5923 H 0.33393 0.89984 0.87958 0.0
C5924 C 0.30481 0.90149 0.97357 0.0
C5925 C 0.31937 0.91756 0.97779 0.0
C5926 C 0.30356 0.88725 0.95689 0.0
C5927 C 0.3168 0.88894 0.9442 0.0
C5928 C 0.33133 0.90492 0.94844 0.0
C5929 C 0.33265 0.91904 0.9651 0.0
C5930 C 0.3152 0.87474 0.92589 0.0
C5931 C 0.31413 0.88147 0.90857 0.0
C5932 C 0.31463 0.85489 0.92532 0.0
C5933 C 0.31542 0.84691 0.94319 0.0
C5934 C 0.32965 0.8546 0.95763 0.0
C5935 C 0.33016 0.84708 0.97452 0.0
C5936 C 0.31657 0.83178 0.97706 0.0
C5937 C 0.30246 0.82392 0.9627 0.0
C5938 C 0.30188 0.8314 0.94579 0.0
C5939 C 0.325 0.8315 0.83992 0.0
C5940 C 0.3122 0.81398 0.83388 0.0
C5941 C 0.326 0.84231 0.85854 0.0
C5942 C 0.3139 0.83617 0.87141 0.0
C5943 C 0.30214 0.81788 0.86606 0.0
C5944 C 0.3015 0.80674 0.8475 0.0
C5945 C 0.31319 0.84933 0.88999 0.0
C5946 C 0.31368 0.84242 0.90734 0.0
C5947 C 0.31277 0.869 0.89065 0.0
C5948 C 0.31011 0.87679 0.87292 0.0
C5949 C 0.29513 0.86831 0.85961 0.0
C5950 C 0.29242 0.876 0.84319 0.0
C5951 C 0.30463 0.89211 0.83985 0.0
C5952 C 0.31959 0.90061 0.85297 0.0
C5953 C 0.3223 0.89307 0.86951 0.0
H5954 H 0.30245 0.89809 0.82716 0.0
H5955 H 0.31699 0.82598 0.99014 0.0
H5956 H 0.97278 0.55923 0.78805 0.0
H5957 H 0.99428 0.55494 0.76462 0.0
H5958 H 0.95692 0.55908 0.71898 0.0
H5959 H 0.93536 0.56352 0.74232 0.0
H5960 H 0.97289 0.52688 0.71071 0.0
H5961 H 0.98954 0.59627 0.73479 0.0
H5962 H 0.99842 0.62565 0.76041 0.0
H5963 H 0.04453 0.60722 0.77851 0.0
H5964 H 0.03579 0.57758 0.75314 0.0
H5965 H 0.02448 0.53492 0.63395 0.0
H5966 H 0.00526 0.53954 0.6592 0.0
H5967 H 0.04945 0.54965 0.7025 0.0
H5968 H 0.06932 0.54721 0.67711 0.0
H5969 H 0.03075 0.57341 0.71369 0.0
H5970 H 0.01577 0.50496 0.68995 0.0
H5971 H 0.00741 0.47473 0.66536 0.0
H5972 H 0.95904 0.4894 0.64821 0.0
H5973 H 0.9672 0.51984 0.67254 0.0
C5974 C 0.96917 0.55933 0.77304 0.0
C5975 C 0.9524 0.56174 0.76701 0.0
C5976 C 0.98147 0.55691 0.75971 0.0
C5977 C 0.97715 0.55674 0.74014 0.0
C5978 C 0.96045 0.55916 0.73406 0.0
C5979 C 0.94821 0.5618 0.74741 0.0
C5980 C 0.98995 0.55372 0.72589 0.0
C5981 C 0.98548 0.53711 0.71119 0.0
C5982 C 0.0066 0.56674 0.72705 0.0
C5983 C 0.01192 0.58462 0.7422 0.0
C5984 C 1.0015 0.59841 0.74434 0.0
C5985 C 0.00652 0.61512 0.75879 0.0
C5986 C 0.022 0.61828 0.77112 0.0
C5987 C 0.03252 0.60475 0.76897 0.0
C5988 C 0.02755 0.588 0.75455 0.0
C5989 C 0.03032 0.53855 0.64878 0.0
C5990 C 0.04862 0.54086 0.65334 0.0
C5991 C 0.01915 0.54076 0.6633 0.0
C5992 C 0.02577 0.54446 0.68282 0.0
C5993 C 0.04398 0.54666 0.68753 0.0
C5994 C 0.05531 0.545 0.67295 0.0
C5995 C 0.01369 0.54657 0.69821 0.0
C5996 C 0.01826 0.563 0.7132 0.0
C5997 C 0.99723 0.53318 0.6975 0.0
C5998 C 0.99215 0.51474 0.68302 0.0
C5999 C 1.00338 0.50178 0.68089 0.0
C6000 C 0.99867 0.48461 0.667 0.0
C6001 C 0.9827 0.48015 0.65524 0.0
C6002 C 0.97139 0.49285 0.65736 0.0
C6003 C 0.97604 0.51006 0.67121 0.0
H6004 H 0.97909 0.46685 0.64449 0.0
H6005 H 0.02586 0.63122 0.7823 0.0
H6006 H 0.32378 0.20538 0.46303 0.0
H6007 H 0.32884 0.21722 0.43294 0.0
H6008 H 0.27498 0.22345 0.42762 0.0
H6009 H 0.26975 0.21132 0.45736 0.0
H6010 H 0.28291 0.20768 0.39369 0.0
H6011 H 0.31062 0.26281 0.44355 0.0
H6012 H 0.33118 0.28046 0.47215 0.0
H6013 H 0.37534 0.26979 0.44163 0.0
H6014 H 0.35501 0.25187 0.41291 0.0
H6015 H 0.31389 0.2971 0.34633 0.0
H6016 H 0.31141 0.28135 0.37405 0.0
H6017 H 0.3099 0.22639 0.33682 0.0
H6018 H 0.31206 0.24231 0.30873 0.0
H6019 H 0.33134 0.26439 0.39109 0.0
H6020 H 0.28867 0.19034 0.35526 0.0
H6021 H 0.26547 0.17482 0.32831 0.0
H6022 H 0.24705 0.2273 0.33345 0.0
H6023 H 0.27048 0.24332 0.36008 0.0
C6024 C 0.31304 0.20936 0.45551 0.0
C6025 C 0.29637 0.20744 0.46269 0.0
C6026 C 0.31595 0.21615 0.43828 0.0
C6027 C 0.30231 0.22133 0.42798 0.0
C6028 C 0.2857 0.21946 0.43519 0.0
C6029 C 0.28276 0.21261 0.45231 0.0
C6030 C 0.30524 0.22889 0.4098 0.0
C6031 C 0.29357 0.22004 0.39312 0.0
C6032 C 0.31905 0.24507 0.40894 0.0
C6033 C 0.33129 0.25581 0.42618 0.0
C6034 C 0.32471 0.2641 0.443 0.0
C6035 C 0.33632 0.27417 0.45921 0.0
C6036 C 0.35455 0.27619 0.45873 0.0
C6037 C 0.36121 0.26818 0.442 0.0
C6038 C 0.34965 0.25807 0.42575 0.0
C6039 C 0.31338 0.28173 0.34406 0.0
C6040 C 0.3136 0.27102 0.32542 0.0
C6041 C 0.31182 0.27267 0.35995 0.0
C6042 C 0.31044 0.25263 0.35768 0.0
C6043 C 0.31068 0.24182 0.33901 0.0
C6044 C 0.31203 0.25092 0.32297 0.0
C6045 C 0.3088 0.24343 0.37504 0.0
C6046 C 0.32079 0.2519 0.39156 0.0
C6047 C 0.29504 0.2272 0.37589 0.0
C6048 C 0.28138 0.21803 0.35949 0.0
C6049 C 0.27974 0.1986 0.35051 0.0
C6050 C 0.26663 0.18976 0.33526 0.0
C6051 C 0.25493 0.20016 0.32905 0.0
C6052 C 0.25634 0.21942 0.33807 0.0
C6053 C 0.26958 0.22841 0.35317 0.0
H6054 H 0.2447 0.19326 0.31733 0.0
H6055 H 0.36352 0.284 0.47129 0.0
H6056 H 0.36277 0.63402 0.49361 0.0
H6057 H 0.38103 0.61038 0.48764 0.0
H6058 H 0.34312 0.56946 0.51089 0.0
H6059 H 0.32476 0.59308 0.51704 0.0
H6060 H 0.37736 0.57203 0.52495 0.0
H6061 H 0.3448 0.56341 0.46299 0.0
H6062 H 0.33336 0.57405 0.43451 0.0
H6063 H 0.38646 0.59588 0.42188 0.0
H6064 H 0.39823 0.5856 0.45045 0.0
H6065 H 0.41869 0.49475 0.49675 0.0
H6066 H 0.39551 0.51303 0.49775 0.0
H6067 H 0.4295 0.55752 0.47464 0.0
H6068 H 0.45252 0.53917 0.47327 0.0
H6069 H 0.39513 0.5509 0.45963 0.0
H6070 H 0.42788 0.56324 0.52209 0.0
H6071 H 0.44062 0.55449 0.55108 0.0
H6072 H 0.3886 0.52759 0.56315 0.0
H6073 H 0.37556 0.53601 0.53408 0.0
C6074 C 0.35829 0.62 0.49747 0.0
C6075 C 0.34229 0.61541 0.50576 0.0
C6076 C 0.36871 0.60648 0.49395 0.0
C6077 C 0.3633 0.5881 0.49859 0.0
C6078 C 0.34747 0.58355 0.50712 0.0
C6079 C 0.337 0.59705 0.5106 0.0
C6080 C 0.37439 0.5738 0.49487 0.0
C6081 C 0.38096 0.5671 0.5106 0.0
C6082 C 0.37944 0.5678 0.47623 0.0
C6083 C 0.37239 0.57387 0.45895 0.0
C6084 C 0.35404 0.5706 0.45422 0.0
C6085 C 0.3475 0.57655 0.43805 0.0
C6086 C 0.35918 0.58567 0.42642 0.0
C6087 C 0.37743 0.58882 0.43091 0.0
C6088 C 0.38404 0.58292 0.44708 0.0
C6089 C 0.42102 0.50818 0.49145 0.0
C6090 C 0.43743 0.51565 0.48511 0.0
C6091 C 0.40785 0.51867 0.49216 0.0
C6092 C 0.41092 0.53675 0.48655 0.0
C6093 C 0.42689 0.54363 0.4791 0.0
C6094 C 0.44005 0.5332 0.47844 0.0
C6095 C 0.39811 0.54919 0.48971 0.0
C6096 C 0.39129 0.5556 0.47391 0.0
C6097 C 0.39298 0.55512 0.50832 0.0
C6098 C 0.40077 0.55004 0.5258 0.0
C6099 C 0.41917 0.55532 0.53084 0.0
C6100 C 0.42645 0.55045 0.5473 0.0
C6101 C 0.41543 0.54043 0.55891 0.0
C6102 C 0.39712 0.53532 0.55412 0.0
C6103 C 0.38978 0.54014 0.53766 0.0
H6104 H 0.42108 0.53668 0.57165 0.0
H6105 H 0.35408 0.59027 0.41391 0.0
H6106 H 0.86043 0.93427 0.51639 0.0
H6107 H 0.89132 0.9507 0.51587 0.0
H6108 H 0.89394 0.97656 0.57626 0.0
H6109 H 0.86295 0.96026 0.5769 0.0
H6110 H 0.91011 1.00266 0.5548 0.0
H6111 H 0.91171 0.93833 0.5634 0.0
H6112 H 0.90302 0.9026 0.55546 0.0
H6113 H 0.92163 0.90294 0.49943 0.0
H6114 H 0.93023 0.9387 0.50695 0.0
H6115 H 0.00459 0.03492 0.56397 0.0
H6116 H 0.97421 0.01988 0.56898 0.0
H6117 H 0.96706 0.9852 0.51134 0.0
H6118 H 0.99728 0.9997 0.50645 0.0
H6119 H 0.95345 0.96357 0.53443 0.0
H6120 H 0.94972 0.02678 0.52377 0.0
H6121 H 0.95695 0.06253 0.52972 0.0
H6122 H 0.94164 0.06448 0.58735 0.0
H6123 H 0.93447 0.02872 0.5818 0.0
C6124 C 0.86752 0.94352 0.52956 0.0
C6125 C 0.85921 0.94586 0.54672 0.0
C6126 C 0.88522 0.95284 0.52925 0.0
C6127 C 0.89502 0.96466 0.54609 0.0
C6128 C 0.88665 0.96746 0.56311 0.0
C6129 C 0.86894 0.95808 0.56346 0.0
C6130 C 0.91405 0.97383 0.54593 0.0
C6131 C 0.91967 0.99412 0.55065 0.0
C6132 C 0.92644 0.96271 0.54014 0.0
C6133 C 0.92149 0.9412 0.53569 0.0
C6134 C 0.91385 0.93079 0.54934 0.0
C6135 C 0.90896 0.91053 0.54493 0.0
C6136 C 0.91174 0.90051 0.52694 0.0
C6137 C 0.91948 0.91072 0.51335 0.0
C6138 C 0.92439 0.93098 0.5177 0.0
C6139 C 0.99651 0.02413 0.55236 0.0
C6140 C 1.00336 0.0187 0.53473 0.0
C6141 C 0.97911 0.01557 0.55522 0.0
C6142 C 0.96819 1.00155 0.54043 0.0
C6143 C 0.97516 0.99594 0.52298 0.0
C6144 C 0.99251 1.00434 0.52019 0.0
C6145 C 0.94954 0.9925 0.54294 0.0
C6146 C 0.94397 0.97217 0.53872 0.0
C6147 C 0.93717 1.00361 0.54896 0.0
C6148 C 0.94173 0.0251 0.55243 0.0
C6149 C 0.94803 0.03484 0.53776 0.0
C6150 C 0.95205 0.05509 0.54103 0.0
C6151 C 0.94973 0.06576 0.55889 0.0
C6152 C 0.94341 0.05619 0.57352 0.0
C6153 C 0.93935 0.03594 0.57031 0.0
H6154 H 0.95286 0.08144 0.5614 0.0
H6155 H 0.90793 0.88483 0.52354 0.0
H6156 H 0.89652 0.13363 0.31267 0.0
H6157 H 0.88185 0.15958 0.30939 0.0
H6158 H 0.88421 0.14751 0.24782 0.0
H6159 H 0.89936 0.12126 0.25112 0.0
H6160 H 0.89008 0.1858 0.25874 0.0
H6161 H 0.84388 0.1358 0.27225 0.0
H6162 H 0.82911 0.11127 0.28994 0.0
H6163 H 0.83305 0.15542 0.34071 0.0
H6164 H 0.84806 0.1802 0.3234 0.0
H6165 H 0.83205 0.24532 0.23857 0.0
H6166 H 0.8453 0.21817 0.2417 0.0
H6167 H 0.84233 0.22997 0.30318 0.0
H6168 H 0.8284 0.25721 0.29991 0.0
H6169 H 0.83667 0.19182 0.29223 0.0
H6170 H 0.88385 0.24157 0.27933 0.0
H6171 H 0.89804 0.26636 0.26159 0.0
H6172 H 0.89187 0.22292 0.20985 0.0
H6173 H 0.87759 0.19785 0.22727 0.0
C6174 C 0.89396 0.13622 0.29827 0.0
C6175 C 0.89934 0.12473 0.2822 0.0
C6176 C 0.88527 0.1513 0.29639 0.0
C6177 C 0.88125 0.15589 0.27828 0.0
C6178 C 0.88681 0.14465 0.26211 0.0
C6179 C 0.89554 0.12938 0.26399 0.0
C6180 C 0.87159 0.17237 0.27654 0.0
C6181 C 0.87826 0.18677 0.2659 0.0
C6182 C 0.85624 0.17466 0.28612 0.0
C6183 C 0.84726 0.15982 0.29658 0.0
C6184 C 0.84172 0.14025 0.28723 0.0
C6185 C 0.83329 0.12631 0.29718 0.0
C6186 C 0.83019 0.13177 0.31645 0.0
C6187 C 0.83548 0.15121 0.3258 0.0
C6188 C 0.84394 0.16521 0.31592 0.0
C6189 C 0.83407 0.24219 0.25285 0.0
C6190 C 0.8288 0.25372 0.26889 0.0
C6191 C 0.84196 0.22655 0.25468 0.0
C6192 C 0.84562 0.22175 0.27277 0.0
C6193 C 0.84003 0.23301 0.28892 0.0
C6194 C 0.8319 0.24874 0.28707 0.0
C6195 C 0.8552 0.20523 0.2745 0.0
C6196 C 0.84852 0.19084 0.28512 0.0
C6197 C 0.87057 0.20296 0.26496 0.0
C6198 C 0.87953 0.21787 0.25456 0.0
C6199 C 0.88548 0.23732 0.26415 0.0
C6200 C 0.89354 0.25142 0.25416 0.0
C6201 C 0.89574 0.24624 0.23459 0.0
C6202 C 0.8901 0.22691 0.22501 0.0
C6203 C 0.88208 0.21274 0.23494 0.0
H6204 H 0.90189 0.2572 0.22686 0.0
H6205 H 0.82365 0.12096 0.32413 0.0
H6206 H 0.74342 0.07367 1.00023 0.0
H6207 H 0.7114 0.06247 1.00095 0.0
H6208 H 0.70604 0.12167 0.00943 0.0
H6209 H 0.73782 0.13293 0.0091 0.0
H6210 H 0.69053 0.10464 0.03539 0.0
H6211 H 0.69028 0.08934 0.96693 0.0
H6212 H 0.69753 0.07472 0.93496 0.0
H6213 H 0.67807 0.01777 0.94644 0.0
H6214 H 0.67094 0.03203 0.97862 0.0
H6215 H 0.59599 0.08575 0.02139 0.0
H6216 H 0.62789 0.09612 0.02044 0.0
H6217 H 0.63242 0.03681 0.01479 0.0
H6218 H 0.60032 0.02628 0.01426 0.0
H6219 H 0.64837 0.05375 0.98788 0.0
H6220 H 0.66309 0.07544 0.06245 0.0
H6221 H 0.65625 0.09218 0.09389 0.0
H6222 H 0.64737 0.13921 0.06793 0.0
H6223 H 0.65446 0.12281 0.03651 0.0
C6224 C 0.73536 0.08425 1.00206 0.0
C6225 C 0.74318 0.10419 0.00485 0.0
C6226 C 0.71707 0.07783 1.00234 0.0
C6227 C 0.70633 0.09125 0.00522 0.0
C6228 C 0.71407 0.11108 0.00729 0.0
C6229 C 0.73228 0.11748 0.00713 0.0
C6230 C 0.68733 0.08497 0.00786 0.0
C6231 C 0.68131 0.09364 0.02483 0.0
C6232 C 0.6753 0.07041 0.99431 0.0
C6233 C 0.68033 0.06178 0.97533 0.0
C6234 C 0.6878 0.0737 0.96278 0.0
C6235 C 0.69182 0.06547 0.94458 0.0
C6236 C 0.68834 0.04533 0.93871 0.0
C6237 C 0.68084 0.03337 0.95104 0.0
C6238 C 0.67681 0.04152 0.96926 0.0
C6239 C 0.60389 0.07501 0.0204 0.0
C6240 C 0.59577 0.0553 0.0185 0.0
C6241 C 0.62216 0.08097 0.02014 0.0
C6242 C 0.6327 0.06735 0.01821 0.0
C6243 C 0.6246 0.04763 0.01662 0.0
C6244 C 0.60626 0.04162 0.01652 0.0
C6245 C 0.6517 0.07335 0.01541 0.0
C6246 C 0.6577 0.06463 0.99841 0.0
C6247 C 0.6637 0.08814 0.02868 0.0
C6248 C 0.65864 0.09761 0.04713 0.0
C6249 C 0.65939 0.0892 0.06347 0.0
C6250 C 0.65567 0.09872 0.08129 0.0
C6251 C 0.65117 0.11664 0.08285 0.0
C6252 C 0.65067 0.12523 0.06667 0.0
C6253 C 0.6546 0.11587 0.04889 0.0
H6254 H 0.64821 0.12394 0.09663 0.0
H6255 H 0.69138 0.039 0.92458 0.0
H6256 H 0.17544 0.45448 0.27864 0.0
H6257 H 0.18852 0.42726 0.28242 0.0
H6258 H 0.2192 0.43663 0.23456 0.0
H6259 H 0.20676 0.46439 0.23128 0.0
H6260 H 0.19353 0.3929 0.26228 0.0
H6261 H 0.26054 0.43583 0.24667 0.0
H6262 H 0.27599 0.46951 0.24631 0.0
H6263 H 0.24496 0.4907 0.29001 0.0
H6264 H 0.22952 0.45713 0.29079 0.0
H6265 H 0.28683 0.37134 0.27911 0.0
H6266 H 0.26134 0.37628 0.26109 0.0
H6267 H 0.23664 0.38732 0.3137 0.0
H6268 H 0.26194 0.38163 0.33208 0.0
H6269 H 0.25837 0.4169 0.27864 0.0
H6270 H 0.18732 0.37412 0.2889 0.0
H6271 H 0.17199 0.34071 0.29028 0.0
H6272 H 0.21192 0.31866 0.26013 0.0
H6273 H 0.22711 0.35176 0.25778 0.0
C6274 C 0.18477 0.45054 0.26874 0.0
C6275 C 0.19047 0.46181 0.255 0.0
C6276 C 0.1921 0.43488 0.2708 0.0
C6277 C 0.20504 0.43017 0.25898 0.0
C6278 C 0.20945 0.44027 0.24404 0.0
C6279 C 0.20243 0.45618 0.24226 0.0
C6280 C 0.2159 0.41705 0.2643 0.0
C6281 C 0.2077 0.39805 0.26592 0.0
C6282 C 0.23441 0.42379 0.26876 0.0
C6283 C 0.24379 0.44401 0.26863 0.0
C6284 C 0.25709 0.44768 0.25625 0.0
C6285 C 0.26583 0.46674 0.25597 0.0
C6286 C 0.26142 0.48224 0.26809 0.0
C6287 C 0.24832 0.47869 0.28058 0.0
C6288 C 0.23957 0.45966 0.28095 0.0
C6289 C 0.27571 0.37392 0.28689 0.0
C6290 C 0.27667 0.3766 0.3072 0.0
C6291 C 0.26112 0.37676 0.27647 0.0
C6292 C 0.24729 0.38233 0.28611 0.0
C6293 C 0.24724 0.38294 0.30604 0.0
C6294 C 0.26184 0.38004 0.31654 0.0
C6295 C 0.23606 0.39273 0.27676 0.0
C6296 C 0.24424 0.41147 0.27466 0.0
C6297 C 0.21762 0.38568 0.27212 0.0
C6298 C 0.20858 0.3656 0.27348 0.0
C6299 C 0.19283 0.36217 0.28248 0.0
C6300 C 0.18412 0.34325 0.28338 0.0
C6301 C 0.19104 0.32761 0.27543 0.0
C6302 C 0.20664 0.33081 0.26643 0.0
C6303 C 0.21532 0.34967 0.26531 0.0
H6304 H 0.18426 0.313 0.27617 0.0
H6305 H 0.26818 0.49698 0.26782 0.0
H6306 H 0.27462 0.45469 0.04519 0.0
H6307 H 0.25269 0.47397 0.04194 0.0
H6308 H 0.21246 0.42154 0.0207 0.0
H6309 H 0.23434 0.40226 0.0235 0.0
H6310 H 0.20965 0.44689 0.99925 0.0
H6311 H 0.215 0.44886 0.06749 0.0
H6312 H 0.23056 0.45459 0.10013 0.0
H6313 H 0.24974 0.51474 0.09835 0.0
H6314 H 0.23447 0.50932 0.06558 0.0
H6315 H 0.13628 0.49095 0.00429 0.0
H6316 H 0.15695 0.47107 0.01061 0.0
H6317 H 0.1985 0.52273 0.02976 0.0
H6318 H 0.17779 0.54269 0.02414 0.0
H6319 H 0.20008 0.49733 0.05272 0.0
H6320 H 0.19513 0.49479 0.98395 0.0
H6321 H 0.17926 0.4888 0.95143 0.0
H6322 H 0.15891 0.42917 0.95452 0.0
H6323 H 0.17449 0.43487 0.98718 0.0
C6324 C 0.26109 0.44726 0.0399 0.0
C6325 C 0.25627 0.4269 0.03463 0.0
C6326 C 0.24852 0.45831 0.03813 0.0
C6327 C 0.2308 0.44925 0.03126 0.0
C6328 C 0.226 0.42893 0.02602 0.0
C6329 C 0.23856 0.41789 0.02769 0.0
C6330 C 0.21734 0.46088 0.02905 0.0
C6331 C 0.2074 0.45771 0.01106 0.0
C6332 C 0.21456 0.47532 0.04428 0.0
C6333 C 0.22373 0.47864 0.064 0.0
C6334 C 0.22265 0.46328 0.074 0.0
C6335 C 0.2314 0.46648 0.09253 0.0
C6336 C 0.24117 0.48501 0.10129 0.0
C6337 C 0.24218 0.50039 0.09154 0.0
C6338 C 0.23347 0.49727 0.07299 0.0
C6339 C 0.14974 0.49811 0.01011 0.0
C6340 C 0.15537 0.51846 0.01353 0.0
C6341 C 0.16162 0.4867 0.01354 0.0
C6342 C 0.17941 0.49535 0.02037 0.0
C6343 C 0.1849 0.51567 0.02439 0.0
C6344 C 0.17305 0.52707 0.02098 0.0
C6345 C 0.19244 0.48332 0.02293 0.0
C6346 C 0.20231 0.48644 0.04096 0.0
C6347 C 0.19512 0.46878 0.00775 0.0
C6348 C 0.18583 0.46531 0.98808 0.0
C6349 C 0.18717 0.48044 0.97775 0.0
C6350 C 0.17824 0.47709 0.95929 0.0
C6351 C 0.16804 0.45863 0.95094 0.0
C6352 C 0.16679 0.44347 0.96102 0.0
C6353 C 0.17568 0.44674 0.9795 0.0
H6354 H 0.16114 0.45607 0.93664 0.0
H6355 H 0.24794 0.48746 0.11564 0.0
H6356 H 0.92121 1.00023 0.28979 0.0
H6357 H 0.9036 0.96743 0.28668 0.0
H6358 H 0.86329 0.98021 0.25014 0.0
H6359 H 0.88098 0.01381 0.25364 0.0
H6360 H 0.8474 0.95693 0.27274 0.0
H6361 H 0.89343 0.95215 0.23187 0.0
H6362 H 0.92399 0.95737 0.22275 0.0
H6363 H 0.93828 0.92715 0.26611 0.0
H6364 H 0.90786 0.92197 0.27568 0.0
H6365 H 0.80595 0.85452 0.24513 0.0
H6366 H 0.82061 0.88823 0.24496 0.0
H6367 H 0.86442 0.88362 0.2825 0.0
H6368 H 0.84987 0.85001 0.28268 0.0
H6369 H 0.87725 0.90278 0.25641 0.0
H6370 H 0.83076 0.90884 0.2978 0.0
H6371 H 0.79974 0.90277 0.30547 0.0
H6372 H 0.78582 0.92983 0.25929 0.0
H6373 H 0.81672 0.9358 0.25114 0.0
C6374 C 0.90862 0.99628 0.28101 0.0
C6375 C 0.90279 0.01002 0.27184 0.0
C6376 C 0.89848 0.97721 0.27915 0.0
C6377 C 0.88209 0.97072 0.26776 0.0
C6378 C 0.87589 0.9845 0.25893 0.0
C6379 C 0.88607 1.00383 0.26092 0.0
C6380 C 0.87186 0.94962 0.26518 0.0
C6381 C 0.85393 0.94514 0.26885 0.0
C6382 C 0.88009 0.93381 0.26034 0.0
C6383 C 0.89839 0.93681 0.25459 0.0
C6384 C 0.90312 0.94673 0.23955 0.0
C6385 C 0.92041 0.94967 0.23429 0.0
C6386 C 0.93308 0.94264 0.24388 0.0
C6387 C 0.92846 0.93261 0.25871 0.0
C6388 C 0.91119 0.92965 0.26404 0.0
C6389 C 0.8186 0.86067 0.25356 0.0
C6390 C 0.8264 0.84928 0.26421 0.0
C6391 C 0.82707 0.88014 0.25345 0.0
C6392 C 0.84369 0.88903 0.264 0.0
C6393 C 0.85165 0.87749 0.27425 0.0
C6394 C 0.8432 0.85807 0.27438 0.0
C6395 C 0.85292 0.91009 0.26433 0.0
C6396 C 0.8707 0.91456 0.26023 0.0
C6397 C 0.84449 0.92581 0.26861 0.0
C6398 C 0.82601 0.92262 0.27376 0.0
C6399 C 0.82106 0.91342 0.28922 0.0
C6400 C 0.80351 0.91 0.29366 0.0
C6401 C 0.79082 0.91589 0.28286 0.0
C6402 C 0.79566 0.92527 0.26763 0.0
C6403 C 0.8132 0.92868 0.26311 0.0
H6404 H 0.77723 0.9132 0.28629 0.0
H6405 H 0.94646 0.94493 0.23978 0.0
H6406 H 0.69791 0.10089 0.7395 0.0
H6407 H 0.71498 0.13387 0.74125 0.0
H6408 H 0.76306 0.11653 0.75534 0.0
H6409 H 0.74596 0.08339 0.75398 0.0
H6410 H 0.76214 0.15004 0.77826 0.0
H6411 H 0.75425 0.12564 0.71055 0.0
H6412 H 0.73825 0.10889 0.67887 0.0
H6413 H 0.70618 0.15068 0.68229 0.0
H6414 H 0.7218 0.16753 0.71413 0.0
H6415 H 0.80709 0.2456 0.77525 0.0
H6416 H 0.7988 0.21054 0.76389 0.0
H6417 H 0.74415 0.2131 0.75442 0.0
H6418 H 0.75272 0.24853 0.76438 0.0
H6419 H 0.75402 0.18579 0.72577 0.0
H6420 H 0.75545 0.19972 0.79813 0.0
H6421 H 0.77264 0.22124 0.82723 0.0
H6422 H 0.81917 0.20174 0.81158 0.0
H6423 H 0.80211 0.17981 0.78248 0.0
C6424 C 0.71212 0.10402 0.7429 0.0
C6425 C 0.72059 0.0895 0.74653 0.0
C6426 C 0.72188 0.12288 0.74379 0.0
C6427 C 0.74034 0.12758 0.74808 0.0
C6428 C 0.74885 0.11317 0.75188 0.0
C6429 C 0.73906 0.09425 0.75106 0.0
C6430 C 0.75049 0.14775 0.7492 0.0
C6431 C 0.76072 0.15764 0.76655 0.0
C6432 C 0.74858 0.15783 0.73401 0.0
C6433 C 0.73915 0.14779 0.71481 0.0
C6434 C 0.7437 0.13119 0.70462 0.0
C6435 C 0.73471 0.12169 0.68661 0.0
C6436 C 0.72119 0.1287 0.67858 0.0
C6437 C 0.71665 0.14526 0.68853 0.0
C6438 C 0.72559 0.15481 0.70654 0.0
C6439 C 0.79344 0.23878 0.77017 0.0
C6440 C 0.78063 0.24972 0.76978 0.0
C6441 C 0.78865 0.21871 0.76394 0.0
C6442 C 0.77085 0.20923 0.75838 0.0
C6443 C 0.758 0.22018 0.75833 0.0
C6444 C 0.76286 0.2403 0.76412 0.0
C6445 C 0.76524 0.18786 0.75479 0.0
C6446 C 0.75581 0.17786 0.73712 0.0
C6447 C 0.76805 0.17759 0.76946 0.0
C6448 C 0.77749 0.18798 0.7884 0.0
C6449 C 0.76924 0.19969 0.8012 0.0
C6450 C 0.77897 0.21203 0.81763 0.0
C6451 C 0.79695 0.21284 0.82137 0.0
C6452 C 0.80521 0.20106 0.80877 0.0
C6453 C 0.79548 0.18849 0.79241 0.0
H6454 H 0.80444 0.22265 0.83398 0.0
H6455 H 0.71424 0.12132 0.66465 0.0
loop_
_geom_bond_atom_site_label_1
_geom_bond_atom_site_label_2
_geom_bond_distance
_geom_bond_site_symmetry_2
_ccdc_geom_bond_type
C0 O1 1.160 . S
C0 O7 1.185 . S
O1 C0 1.160 . S
O2 Zn3 1.899 . S
O2 C10 1.284 . S
Zn3 O2 1.899 . S
Zn3 O4 2.032 . S
Zn3 O7 2.086 . S
Zn3 O12 1.977 . S
O4 Zn3 2.032 . S
O4 C8 1.278 . S
C5 O6 1.203 . S
C5 O12 1.267 . S
O6 C5 1.203 . S
O7 C0 1.185 . S
O7 Zn3 2.086 . S
C8 O4 1.278 . S
C8 O9 1.211 . S
O9 C8 1.211 . S
C10 O2 1.284 . S
C10 O11 1.273 . S
O11 C10 1.273 . S
O12 Zn3 1.977 . S
O12 C5 1.267 . S
C13 O14 1.160 . S
C13 O20 1.185 . S
O14 C13 1.160 . S
O15 Zn16 1.899 . S
O15 C23 1.284 . S
Zn16 O15 1.899 . S
Zn16 O17 2.032 . S
Zn16 O20 2.086 . S
Zn16 O25 1.977 1_655 S
O17 Zn16 2.032 . S
O17 C21 1.278 1_655 S
C18 O19 1.203 . S
C18 O25 1.267 . S
O19 C18 1.203 . S
O20 C13 1.185 . S
O20 Zn16 2.086 . S
C21 O17 1.278 1_455 S
C21 O22 1.211 . S
O22 C21 1.211 . S
C23 O15 1.284 . S
C23 O24 1.273 1_655 S
O24 C23 1.273 1_455 S
O25 Zn16 1.977 1_455 S
O25 C18 1.267 . S
C26 O27 1.160 . S
C26 O33 1.185 . S
O27 C26 1.160 . S
O28 Zn29 1.899 . S
O28 C36 1.284 . S
Zn29 O28 1.899 . S
Zn29 O30 2.032 . S
Zn29 O33 2.086 . S
Zn29 O38 1.977 . S
O30 Zn29 2.032 . S
O30 C34 1.278 . S
C31 O32 1.203 . S
C31 O38 1.267 . S
O32 C31 1.203 . S
O33 C26 1.185 . S
O33 Zn29 2.086 . S
C34 O30 1.278 . S
C34 O35 1.211 . S
O35 C34 1.211 . S
C36 O28 1.284 . S
C36 O37 1.273 . S
O37 C36 1.273 . S
O38 Zn29 1.977 . S
O38 C31 1.267 . S
C39 O40 1.160 . S
C39 O46 1.185 . S
O40 C39 1.160 . S
O41 Zn42 1.899 . S
O41 C49 1.284 . S
Zn42 O41 1.899 . S
Zn42 O43 2.032 . S
Zn42 O46 2.086 . S
Zn42 O51 1.977 . S
O43 Zn42 2.032 . S
O43 C47 1.278 . S
C44 O45 1.203 . S
C44 O51 1.267 . S
O45 C44 1.203 . S
O46 C39 1.185 . S
O46 Zn42 2.086 . S
C47 O43 1.278 . S
C47 O48 1.211 . S
O48 C47 1.211 . S
C49 O41 1.284 . S
C49 O50 1.273 . S
O50 C49 1.273 . S
O51 Zn42 1.977 . S
O51 C44 1.267 . S
C52 O53 1.160 . S
C52 O59 1.185 . S
O53 C52 1.160 . S
O54 Zn55 1.899 . S
O54 C62 1.284 . S
Zn55 O54 1.899 . S
Zn55 O56 2.032 . S
Zn55 O59 2.086 . S
Zn55 O64 1.977 . S
O56 Zn55 2.032 . S
O56 C60 1.278 . S
C57 O58 1.203 . S
C57 O64 1.267 . S
O58 C57 1.203 . S
O59 C52 1.185 . S
O59 Zn55 2.086 . S
C60 O56 1.278 . S
C60 O61 1.211 . S
O61 C60 1.211 . S
C62 O54 1.284 . S
C62 O63 1.273 . S
O63 C62 1.273 . S
O64 Zn55 1.977 . S
O64 C57 1.267 . S
C65 O66 1.160 . S
C65 O72 1.185 . S
O66 C65 1.160 . S
O67 Zn68 1.899 . S
O67 C75 1.284 . S
Zn68 O67 1.899 . S
Zn68 O69 2.032 . S
Zn68 O72 2.086 . S
Zn68 O77 1.977 . S
O69 Zn68 2.032 . S
O69 C73 1.278 . S
C70 O71 1.203 . S
C70 O77 1.267 . S
O71 C70 1.203 . S
O72 C65 1.185 . S
O72 Zn68 2.086 . S
C73 O69 1.278 . S
C73 O74 1.211 . S
O74 C73 1.211 . S
C75 O67 1.284 . S
C75 O76 1.273 . S
O76 C75 1.273 . S
O77 Zn68 1.977 . S
O77 C70 1.267 . S
C78 O79 1.160 . S
C78 O85 1.185 . S
O79 C78 1.160 . S
O80 Zn81 1.899 . S
O80 C88 1.284 . S
Zn81 O80 1.899 . S
Zn81 O82 2.032 . S
Zn81 O85 2.086 . S
Zn81 O90 1.977 . S
O82 Zn81 2.032 . S
O82 C86 1.278 . S
C83 O84 1.203 . S
C83 O90 1.267 . S
O84 C83 1.203 . S
O85 C78 1.185 . S
O85 Zn81 2.086 . S
C86 O82 1.278 . S
C86 O87 1.211 . S
O87 C86 1.211 . S
C88 O80 1.284 . S
C88 O89 1.273 . S
O89 C88 1.273 . S
O90 Zn81 1.977 . S
O90 C83 1.267 . S
C91 O92 1.160 . S
C91 O98 1.185 . S
O92 C91 1.160 . S
O93 Zn94 1.899 . S
O93 C101 1.284 . S
Zn94 O93 1.899 . S
Zn94 O95 2.032 . S
Zn94 O98 2.086 . S
Zn94 O103 1.932 1_455 S
O95 Zn94 2.032 . S
O95 C99 1.278 . S
C96 O97 1.203 . S
C96 O103 1.320 . S
O97 C96 1.203 . S
O98 C91 1.185 . S
O98 Zn94 2.086 . S
C99 O95 1.278 . S
C99 O100 1.211 . S
O100 C99 1.211 . S
C101 O93 1.284 . S
C101 O102 1.273 . S
O102 C101 1.273 . S
O103 Zn94 1.932 1_655 S
O103 C96 1.320 . S
C104 O105 1.160 . S
C104 O111 1.185 . S
O105 C104 1.160 . S
O106 Zn107 1.899 . S
O106 C114 1.284 . S
Zn107 O106 1.899 . S
Zn107 O108 2.032 . S
Zn107 O111 2.086 . S
Zn107 O116 1.977 . S
O108 Zn107 2.032 . S
O108 C112 1.278 . S
C109 O110 1.203 . S
C109 O116 1.267 1_565 S
O110 C109 1.203 . S
O111 C104 1.185 . S
O111 Zn107 2.086 . S
C112 O108 1.278 . S
C112 O113 1.211 . S
O113 C112 1.211 . S
C114 O106 1.284 . S
C114 O115 1.273 . S
O115 C114 1.273 . S
O116 Zn107 1.977 . S
O116 C109 1.267 1_545 S
C117 O118 1.160 . S
C117 O124 1.185 . S
O118 C117 1.160 . S
O119 Zn120 1.899 . S
O119 C127 1.284 . S
Zn120 O119 1.899 . S
Zn120 O121 2.032 . S
Zn120 O124 2.086 . S
Zn120 O129 1.977 . S
O121 Zn120 2.032 . S
O121 C125 1.278 . S
C122 O123 1.203 . S
C122 O129 1.267 . S
O123 C122 1.203 . S
O124 C117 1.185 . S
O124 Zn120 2.086 . S
C125 O121 1.278 . S
C125 O126 1.211 . S
O126 C125 1.211 . S
C127 O119 1.284 . S
C127 O128 1.273 . S
O128 C127 1.273 . S
O129 Zn120 1.977 . S
O129 C122 1.267 . S
C130 O131 1.160 . S
C130 O137 1.185 . S
O131 C130 1.160 . S
O132 Zn133 1.899 . S
O132 C140 1.284 . S
Zn133 O132 1.899 . S
Zn133 O134 2.032 . S
Zn133 O137 2.086 . S
Zn133 O142 1.977 1_565 S
O134 Zn133 2.032 . S
O134 C138 1.278 1_565 S
C135 O136 1.203 . S
C135 O142 1.267 . S
O136 C135 1.203 . S
O137 C130 1.185 . S
O137 Zn133 2.086 . S
C138 O134 1.278 1_545 S
C138 O139 1.211 . S
O139 C138 1.211 . S
C140 O132 1.284 . S
C140 O141 1.273 1_565 S
O141 C140 1.273 1_545 S
O142 Zn133 1.977 1_545 S
O142 C135 1.267 . S
C143 O144 1.160 . S
C143 O150 1.185 . S
O144 C143 1.160 . S
O145 Zn146 1.899 . S
O145 C153 1.284 . S
Zn146 O145 1.899 . S
Zn146 O147 2.032 1_554 S
Zn146 O150 2.086 . S
Zn146 O155 1.977 . S
O147 Zn146 2.032 1_556 S
O147 C151 1.278 . S
C148 O149 1.203 . S
C148 O155 1.267 . S
O149 C148 1.203 . S
O150 C143 1.185 . S
O150 Zn146 2.086 . S
C151 O147 1.278 . S
C151 O152 1.211 . S
O152 C151 1.211 . S
C153 O145 1.284 . S
C153 O154 1.273 . S
O154 C153 1.273 . S
O155 Zn146 1.977 . S
O155 C148 1.267 . S
C156 O157 1.160 . S
C156 O163 1.185 . S
O157 C156 1.160 . S
O158 Zn159 1.899 . S
O158 C166 1.284 . S
Zn159 O158 1.899 . S
Zn159 O160 2.032 . S
Zn159 O163 2.086 . S
Zn159 O168 1.977 . S
O160 Zn159 2.032 . S
O160 C164 1.278 . S
C161 O162 1.203 . S
C161 O168 1.267 . S
O162 C161 1.203 . S
O163 C156 1.185 . S
O163 Zn159 2.086 . S
C164 O160 1.278 . S
C164 O165 1.211 . S
O165 C164 1.211 . S
C166 O158 1.284 . S
C166 O167 1.273 . S
O167 C166 1.273 . S
O168 Zn159 1.977 . S
O168 C161 1.267 . S
C169 O170 1.160 . S
C169 O176 1.185 . S
O170 C169 1.160 . S
O171 Zn172 1.899 . S
O171 C179 1.284 . S
Zn172 O171 1.899 . S
Zn172 O173 2.032 . S
Zn172 O176 2.086 . S
Zn172 O181 1.977 . S
O173 Zn172 2.032 . S
O173 C177 1.278 1_554 S
C174 O175 1.203 . S
C174 O181 1.267 . S
O175 C174 1.203 . S
O176 C169 1.185 . S
O176 Zn172 2.086 . S
C177 O173 1.278 1_556 S
C177 O178 1.211 . S
O178 C177 1.211 . S
C179 O171 1.284 . S
C179 O180 1.273 . S
O180 C179 1.273 . S
O181 Zn172 1.977 . S
O181 C174 1.267 . S
C182 O183 1.160 . S
C182 O189 1.185 . S
O183 C182 1.160 . S
O184 Zn185 1.899 . S
O184 C192 1.284 . S
Zn185 O184 1.899 . S
Zn185 O186 2.032 . S
Zn185 O189 2.086 . S
Zn185 O194 1.977 . S
O186 Zn185 2.032 . S
O186 C190 1.278 . S
C187 O188 1.203 . S
C187 O194 1.267 . S
O188 C187 1.203 . S
O189 C182 1.185 . S
O189 Zn185 2.086 . S
C190 O186 1.278 . S
C190 O191 1.211 . S
O191 C190 1.211 . S
C192 O184 1.284 . S
C192 O193 1.273 . S
O193 C192 1.273 . S
O194 Zn185 1.977 . S
O194 C187 1.267 . S
C195 O196 1.160 . S
C195 O202 1.185 . S
O196 C195 1.160 . S
O197 Zn198 1.899 . S
O197 C205 1.284 . S
Zn198 O197 1.899 . S
Zn198 O199 2.032 . S
Zn198 O202 2.086 . S
Zn198 O207 1.977 . S
O199 Zn198 2.032 . S
O199 C203 1.278 . S
C200 O201 1.203 . S
C200 O207 1.267 . S
O201 C200 1.203 . S
O202 C195 1.185 . S
O202 Zn198 2.086 . S
C203 O199 1.278 . S
C203 O204 1.211 . S
O204 C203 1.211 . S
C205 O197 1.284 . S
C205 O206 1.273 . S
O206 C205 1.273 . S
O207 Zn198 1.977 . S
O207 C200 1.267 . S
C208 O209 1.160 . S
C208 O215 1.185 . S
O209 C208 1.160 . S
O210 Zn211 1.899 . S
O210 C218 1.284 . S
Zn211 O210 1.899 . S
Zn211 O212 2.032 . S
Zn211 O215 2.086 . S
Zn211 O220 1.977 . S
O212 Zn211 2.032 . S
O212 C216 1.278 . S
C213 O214 1.203 . S
C213 O220 1.267 . S
O214 C213 1.203 . S
O215 C208 1.185 . S
O215 Zn211 2.086 . S
C216 O212 1.278 . S
C216 O217 1.211 . S
O217 C216 1.211 . S
C218 O210 1.284 . S
C218 O219 1.273 . S
O219 C218 1.273 . S
O220 Zn211 1.977 . S
O220 C213 1.267 . S
C221 O222 1.160 . S
C221 O228 1.185 . S
O222 C221 1.160 . S
O223 Zn224 1.899 . S
O223 C231 1.284 . S
Zn224 O223 1.899 . S
Zn224 O225 2.032 . S
Zn224 O228 2.086 . S
Zn224 O233 1.977 . S
O225 Zn224 2.032 . S
O225 C229 1.278 . S
C226 O227 1.203 . S
C226 O233 1.267 . S
O227 C226 1.203 . S
O228 C221 1.185 . S
O228 Zn224 2.086 . S
C229 O225 1.278 . S
C229 O230 1.211 . S
O230 C229 1.211 . S
C231 O223 1.284 . S
C231 O232 1.273 . S
O232 C231 1.273 . S
O233 Zn224 1.977 . S
O233 C226 1.267 . S
C234 O235 1.160 . S
C234 O241 1.185 . S
O235 C234 1.160 . S
O236 Zn237 1.899 . S
O236 C244 1.284 . S
Zn237 O236 1.899 . S
Zn237 O238 2.032 . S
Zn237 O241 2.086 . S
Zn237 O246 1.977 . S
O238 Zn237 2.032 . S
O238 C242 1.278 . S
C239 O240 1.203 . S
C239 O246 1.267 . S
O240 C239 1.203 . S
O241 C234 1.185 . S
O241 Zn237 2.086 . S
C242 O238 1.278 . S
C242 O243 1.211 . S
O243 C242 1.211 . S
C244 O236 1.284 . S
C244 O245 1.273 . S
O245 C244 1.273 . S
O246 Zn237 1.977 . S
O246 C239 1.267 . S
C247 O248 1.160 . S
C247 O254 1.185 . S
O248 C247 1.160 . S
O249 Zn250 1.899 . S
O249 C257 1.284 . S
Zn250 O249 1.899 . S
Zn250 O251 2.032 . S
Zn250 O254 2.086 . S
Zn250 O259 1.977 . S
O251 Zn250 2.032 . S
O251 C255 1.278 . S
C252 O253 1.203 . S
C252 O259 1.267 . S
O253 C252 1.203 . S
O254 C247 1.185 . S
O254 Zn250 2.086 . S
C255 O251 1.278 . S
C255 O256 1.211 . S
O256 C255 1.211 . S
C257 O249 1.284 . S
C257 O258 1.273 . S
O258 C257 1.273 . S
O259 Zn250 1.977 . S
O259 C252 1.267 . S
C260 O261 1.183 . S
C260 O267 1.173 1_554 S
O261 C260 1.183 . S
O262 Zn263 1.899 . S
O262 C270 1.284 . S
Zn263 O262 1.899 . S
Zn263 O264 2.032 1_554 S
Zn263 O267 2.086 1_554 S
Zn263 O272 1.977 1_554 S
O264 Zn263 2.032 1_556 S
O264 C268 1.278 . S
C265 O266 1.203 1_556 S
C265 O272 1.267 . S
O266 C265 1.203 1_554 S
O267 C260 1.173 1_556 S
O267 Zn263 2.086 1_556 S
C268 O264 1.278 . S
C268 O269 1.211 . S
O269 C268 1.211 . S
C270 O262 1.284 . S
C270 O271 1.273 . S
O271 C270 1.273 . S
O272 Zn263 1.977 1_556 S
O272 C265 1.267 . S
C273 O274 1.160 . S
C273 O280 1.185 . S
O274 C273 1.160 . S
O275 Zn276 1.899 . S
O275 C283 1.284 . S
Zn276 O275 1.899 . S
Zn276 O277 2.032 . S
Zn276 O280 2.086 . S
Zn276 O285 1.977 . S
O277 Zn276 2.032 . S
O277 C281 1.278 . S
C278 O279 1.203 . S
C278 O285 1.267 . S
O279 C278 1.203 . S
O280 C273 1.185 . S
O280 Zn276 2.086 . S
C281 O277 1.278 . S
C281 O282 1.211 . S
O282 C281 1.211 . S
C283 O275 1.284 . S
C283 O284 1.273 . S
O284 C283 1.273 . S
O285 Zn276 1.977 . S
O285 C278 1.267 . S
C286 O287 1.160 . S
C286 O293 1.185 . S
O287 C286 1.160 . S
O288 Zn289 1.899 . S
O288 C296 1.284 . S
Zn289 O288 1.899 . S
Zn289 O290 2.032 . S
Zn289 O293 2.086 . S
Zn289 O298 1.977 . S
O290 Zn289 2.032 . S
O290 C294 1.278 . S
C291 O292 1.203 . S
C291 O298 1.267 . S
O292 C291 1.203 . S
O293 C286 1.185 . S
O293 Zn289 2.086 . S
C294 O290 1.278 . S
C294 O295 1.211 . S
O295 C294 1.211 . S
C296 O288 1.284 . S
C296 O297 1.273 . S
O297 C296 1.273 . S
O298 Zn289 1.977 . S
O298 C291 1.267 . S
C299 O300 1.160 . S
C299 O306 1.185 . S
O300 C299 1.160 . S
O301 Zn302 1.899 . S
O301 C309 1.284 . S
Zn302 O301 1.899 . S
Zn302 O303 2.032 . S
Zn302 O306 2.086 . S
Zn302 O311 1.977 . S
O303 Zn302 2.032 . S
O303 C307 1.278 . S
C304 O305 1.203 . S
C304 O311 1.267 . S
O305 C304 1.203 . S
O306 C299 1.185 . S
O306 Zn302 2.086 . S
C307 O303 1.278 . S
C307 O308 1.211 . S
O308 C307 1.211 . S
C309 O301 1.284 . S
C309 O310 1.273 . S
O310 C309 1.273 . S
O311 Zn302 1.977 . S
O311 C304 1.267 . S
Tb312 N343 2.660 1_545 S
Tb312 N350 2.600 1_544 S
Tb312 O356 2.546 1_454 S
Tb312 O357 2.610 . S
Tb312 O359 2.320 . S
Tb312 O360 2.552 . S
Tb312 O361 2.413 1_455 S
Tb312 O363 2.362 . S
Tb312 O364 2.421 1_554 S
Tb312 C376 2.833 1_454 S
C313 C316 1.432 . S
C313 C317 1.414 . S
C313 N320 1.359 . S
C314 C316 1.417 . S
C314 C318 1.432 . S
C314 C326 1.410 1_554 S
C315 C317 1.444 . S
C315 C318 1.317 . S
C315 H338 0.929 . S
C316 C313 1.432 . S
C316 C314 1.417 . S
C316 N324 1.360 . S
C317 C313 1.414 . S
C317 C315 1.444 . S
C317 C322 1.385 . S
C318 C314 1.432 . S
C318 C315 1.317 . S
C318 H330 0.930 . S
C319 C321 1.392 . S
C319 C322 1.370 . S
C319 H331 0.931 . S
N320 C313 1.359 . S
N320 C321 1.327 . S
N320 Tb323 2.600 . S
C321 C319 1.392 . S
C321 N320 1.327 . S
C321 H328 0.930 . S
C322 C317 1.385 . S
C322 C319 1.370 . S
C322 H341 0.930 . S
Tb323 N320 2.600 . S
Tb323 N324 2.660 . S
Tb323 O357 2.362 . S
Tb323 O358 2.421 . S
Tb323 O362 2.546 . S
Tb323 O363 2.610 . S
Tb323 O365 2.320 1_554 S
Tb323 O366 2.552 . S
Tb323 O367 2.413 . S
Tb323 C387 2.833 . S
N324 C316 1.360 . S
N324 Tb323 2.660 . S
N324 C325 1.305 1_554 S
C325 N324 1.305 1_556 S
C325 C327 1.407 . S
C325 H332 0.930 . S
C326 C314 1.410 1_556 S
C326 C327 1.345 . S
C326 H334 0.930 . S
C327 C325 1.407 . S
C327 C326 1.345 . S
C327 H329 0.930 . S
H328 C321 0.930 . S
H329 C327 0.930 . S
H330 C318 0.930 . S
H331 C319 0.931 . S
H332 C325 0.930 . S
H333 C347 0.931 1_455 S
H334 C326 0.930 . S
H335 C353 0.921 1_545 S
H336 C344 0.930 1_545 S
H337 C351 0.931 . S
H338 C315 0.929 . S
H339 C345 0.930 . S
H340 C378 0.930 1_554 S
H341 C322 0.930 . S
H342 C377 0.929 . S
N343 Tb312 2.660 1_565 S
N343 C344 1.305 . S
N343 C348 1.360 1_455 S
C344 H336 0.930 1_565 S
C344 N343 1.305 . S
C344 C347 1.403 1_455 S
C345 H339 0.930 . S
C345 C346 1.410 . S
C345 C347 1.350 . S
C346 C345 1.410 . S
C346 C348 1.417 . S
C346 C378 1.432 1_554 S
C347 H333 0.931 1_655 S
C347 C344 1.403 1_655 S
C347 C345 1.350 . S
C348 N343 1.360 1_655 S
C348 C346 1.417 . S
C348 C352 1.432 1_554 S
H349 C354 0.930 . S
N350 Tb312 2.600 1_566 S
N350 C352 1.359 1_455 S
N350 C353 1.327 . S
C351 H337 0.931 . S
C351 C353 1.392 1_655 S
C351 C354 1.370 . S
C352 C348 1.432 1_556 S
C352 N350 1.359 1_655 S
C352 C355 1.414 . S
C353 H335 0.921 1_565 S
C353 N350 1.327 . S
C353 C351 1.392 1_455 S
C354 H349 0.930 . S
C354 C351 1.370 . S
C354 C355 1.385 . S
C355 C352 1.414 . S
C355 C354 1.385 . S
C355 C377 1.444 . S
O356 Tb312 2.546 1_656 S
O356 C376 1.251 . S
O357 Tb312 2.610 . S
O357 Tb323 2.362 . S
O357 C368 1.283 . S
O358 Tb323 2.421 . S
O358 C375 1.262 . S
O359 Tb312 2.320 . S
O359 C375 1.260 . S
O360 Tb312 2.552 . S
O360 C368 1.243 . S
O361 Tb312 2.413 1_655 S
O361 C376 1.256 1_554 S
O362 Tb323 2.546 . S
O362 C387 1.251 . S
O363 Tb312 2.362 . S
O363 Tb323 2.610 . S
O363 C379 1.283 . S
O364 Tb312 2.421 1_556 S
O364 C386 1.262 . S
O365 Tb323 2.320 1_556 S
O365 C386 1.260 . S
O366 Tb323 2.552 . S
O366 C379 1.243 . S
O367 Tb323 2.413 . S
O367 C387 1.256 . S
C368 O357 1.283 . S
C368 O360 1.243 . S
C369 C371 1.382 1_556 S
C369 C373 1.393 . S
C369 C376 1.500 . S
C370 C371 1.400 1_556 S
C370 C372 1.384 . S
C371 C369 1.382 1_554 S
C371 C370 1.400 1_554 S
C371 H388 0.930 . S
C372 C370 1.384 . S
C372 C374 1.392 . S
C372 H389 0.931 . S
C373 C369 1.393 . S
C373 C374 1.401 . S
C373 H390 0.930 . S
C374 C372 1.392 . S
C374 C373 1.401 . S
C374 H391 0.930 . S
C375 O358 1.262 . S
C375 O359 1.260 . S
C376 Tb312 2.833 1_656 S
C376 O356 1.251 . S
C376 O361 1.256 1_556 S
C376 C369 1.500 . S
C377 H342 0.929 . S
C377 C355 1.444 . S
C377 C378 1.317 . S
C378 H340 0.930 1_556 S
C378 C346 1.432 1_556 S
C378 C377 1.317 . S
C379 O363 1.283 . S
C379 O366 1.243 . S
C380 C381 1.382 . S
C380 C384 1.393 . S
C380 C387 1.500 . S
C381 C380 1.382 . S
C381 C382 1.400 . S
C381 H392 0.930 . S
C382 C381 1.400 . S
C382 C383 1.384 . S
C383 C382 1.384 . S
C383 C385 1.392 . S
C383 H393 0.931 . S
C384 C380 1.393 . S
C384 C385 1.401 . S
C384 H394 0.930 . S
C385 C383 1.392 . S
C385 C384 1.401 . S
C385 H395 0.930 . S
C386 O364 1.262 . S
C386 O365 1.260 . S
C387 Tb323 2.833 . S
C387 O362 1.251 . S
C387 O367 1.256 . S
C387 C380 1.500 . S
H388 C371 0.930 . S
H389 C372 0.931 . S
H390 C373 0.930 . S
H391 C374 0.930 . S
H392 C381 0.930 . S
H393 C383 0.931 . S
H394 C384 0.930 . S
H395 C385 0.930 . S
Tb396 N427 2.660 . S
Tb396 N434 2.600 . S
Tb396 O440 2.546 . S
Tb396 O441 2.610 . S
Tb396 O443 2.320 . S
Tb396 O444 2.552 . S
Tb396 O445 2.413 . S
Tb396 O447 2.362 . S
Tb396 O448 2.421 . S
Tb396 C460 2.833 . S
C397 C400 1.432 . S
C397 C401 1.414 . S
C397 N404 1.359 . S
C398 C400 1.417 . S
C398 C402 1.432 . S
C398 C410 1.410 . S
C399 C401 1.444 . S
C399 C402 1.317 . S
C399 H422 0.929 . S
C400 C397 1.432 . S
C400 C398 1.417 . S
C400 N408 1.360 . S
C401 C397 1.414 . S
C401 C399 1.444 . S
C401 C406 1.385 . S
C402 C398 1.432 . S
C402 C399 1.317 . S
C402 H414 0.930 . S
C403 C405 1.392 . S
C403 C406 1.370 . S
C403 H415 0.931 . S
N404 C397 1.359 . S
N404 C405 1.327 . S
N404 Tb407 2.600 . S
C405 C403 1.392 . S
C405 N404 1.327 . S
C405 H412 0.930 . S
C406 C401 1.385 . S
C406 C403 1.370 . S
C406 H425 0.930 . S
Tb407 N404 2.600 . S
Tb407 N408 2.660 . S
Tb407 O441 2.362 . S
Tb407 O442 2.421 . S
Tb407 O446 2.546 . S
Tb407 O447 2.610 . S
Tb407 O449 2.320 . S
Tb407 O450 2.552 . S
Tb407 O451 2.413 . S
Tb407 C471 2.833 . S
N408 C400 1.360 . S
N408 Tb407 2.660 . S
N408 C409 1.305 . S
C409 N408 1.305 . S
C409 C411 1.407 . S
C409 H416 0.930 . S
C410 C398 1.410 . S
C410 C411 1.345 . S
C410 H418 0.930 . S
C411 C409 1.407 . S
C411 C410 1.345 . S
C411 H413 0.930 . S
H412 C405 0.930 . S
H413 C411 0.930 . S
H414 C402 0.930 . S
H415 C403 0.931 . S
H416 C409 0.930 . S
H417 C431 0.930 . S
H418 C410 0.930 . S
H419 C437 0.930 . S
H420 C428 0.930 . S
H421 C435 0.931 . S
H422 C399 0.929 . S
H423 C429 0.930 . S
H424 C462 0.930 . S
H425 C406 0.930 . S
H426 C461 0.929 . S
N427 Tb396 2.660 . S
N427 C428 1.305 . S
N427 C432 1.360 . S
C428 H420 0.930 . S
C428 N427 1.305 . S
C428 C431 1.407 . S
C429 H423 0.930 . S
C429 C430 1.410 . S
C429 C431 1.345 . S
C430 C429 1.410 . S
C430 C432 1.417 . S
C430 C462 1.432 . S
C431 H417 0.930 . S
C431 C428 1.407 . S
C431 C429 1.345 . S
C432 N427 1.360 . S
C432 C430 1.417 . S
C432 C436 1.432 . S
H433 C438 0.930 . S
N434 Tb396 2.600 . S
N434 C436 1.359 . S
N434 C437 1.327 . S
C435 H421 0.931 . S
C435 C437 1.392 . S
C435 C438 1.370 . S
C436 C432 1.432 . S
C436 N434 1.359 . S
C436 C439 1.414 . S
C437 H419 0.930 . S
C437 N434 1.327 . S
C437 C435 1.392 . S
C438 H433 0.930 . S
C438 C435 1.370 . S
C438 C439 1.385 . S
C439 C436 1.414 . S
C439 C438 1.385 . S
C439 C461 1.444 . S
O440 Tb396 2.546 . S
O440 C460 1.251 . S
O441 Tb396 2.610 . S
O441 Tb407 2.362 . S
O441 C452 1.283 . S
O442 Tb407 2.421 . S
O442 C459 1.262 . S
O443 Tb396 2.320 . S
O443 C459 1.260 . S
O444 Tb396 2.552 . S
O444 C452 1.243 . S
O445 Tb396 2.413 . S
O445 C460 1.256 . S
O446 Tb407 2.546 . S
O446 C471 1.251 . S
O447 Tb396 2.362 . S
O447 Tb407 2.610 . S
O447 C463 1.283 . S
O448 Tb396 2.421 . S
O448 C470 1.262 . S
O449 Tb407 2.320 . S
O449 C470 1.260 . S
O450 Tb407 2.552 . S
O450 C463 1.243 . S
O451 Tb407 2.413 . S
O451 C471 1.256 . S
C452 O441 1.283 . S
C452 O444 1.243 . S
C453 C455 1.382 . S
C453 C457 1.393 . S
C453 C460 1.500 . S
C454 C455 1.400 . S
C454 C456 1.384 . S
C455 C453 1.382 . S
C455 C454 1.400 . S
C455 H472 0.930 . S
C456 C454 1.384 . S
C456 C458 1.392 . S
C456 H473 0.931 . S
C457 C453 1.393 . S
C457 C458 1.401 . S
C457 H474 0.930 . S
C458 C456 1.392 . S
C458 C457 1.401 . S
C458 H475 0.930 . S
C459 O442 1.262 . S
C459 O443 1.260 . S
C460 Tb396 2.833 . S
C460 O440 1.251 . S
C460 O445 1.256 . S
C460 C453 1.500 . S
C461 H426 0.929 . S
C461 C439 1.444 . S
C461 C462 1.317 . S
C462 H424 0.930 . S
C462 C430 1.432 . S
C462 C461 1.317 . S
C463 O447 1.283 . S
C463 O450 1.243 . S
C464 C465 1.382 . S
C464 C468 1.393 . S
C464 C471 1.500 . S
C465 C464 1.382 . S
C465 C466 1.400 . S
C465 H476 0.930 . S
C466 C465 1.400 . S
C466 C467 1.384 . S
C467 C466 1.384 . S
C467 C469 1.392 . S
C467 H477 0.931 . S
C468 C464 1.393 . S
C468 C469 1.401 . S
C468 H478 0.930 . S
C469 C467 1.392 . S
C469 C468 1.401 . S
C469 H479 0.930 . S
C470 O448 1.262 . S
C470 O449 1.260 . S
C471 Tb407 2.833 . S
C471 O446 1.251 . S
C471 O451 1.256 . S
C471 C464 1.500 . S
H472 C455 0.930 . S
H473 C456 0.931 . S
H474 C457 0.930 . S
H475 C458 0.930 . S
H476 C465 0.930 . S
H477 C467 0.931 . S
H478 C468 0.930 . S
H479 C469 0.930 . S
Tb480 N511 2.660 . S
Tb480 N518 2.600 . S
Tb480 O524 2.546 . S
Tb480 O525 2.610 . S
Tb480 O527 2.320 . S
Tb480 O528 2.552 . S
Tb480 O529 2.413 . S
Tb480 O531 2.362 . S
Tb480 O532 2.421 . S
Tb480 C544 2.833 . S
C481 C484 1.432 . S
C481 C485 1.414 . S
C481 N488 1.359 1_565 S
C482 C484 1.417 . S
C482 C486 1.432 . S
C482 C494 1.410 . S
C483 C485 1.444 . S
C483 C486 1.317 . S
C483 H506 0.929 . S
C484 C481 1.432 . S
C484 C482 1.417 . S
C484 N492 1.360 1_565 S
C485 C481 1.414 . S
C485 C483 1.444 . S
C485 C490 1.385 . S
C486 C482 1.432 . S
C486 C483 1.317 . S
C486 H498 0.930 . S
C487 C489 1.392 . S
C487 C490 1.370 1_545 S
C487 H499 0.931 . S
N488 C481 1.359 1_545 S
N488 C489 1.327 . S
N488 Tb491 2.600 . S
C489 C487 1.392 . S
C489 N488 1.327 . S
C489 H496 0.930 . S
C490 C485 1.385 . S
C490 C487 1.370 1_565 S
C490 H509 0.930 . S
Tb491 N488 2.600 . S
Tb491 N492 2.660 . S
Tb491 O525 2.362 . S
Tb491 O526 2.421 . S
Tb491 O530 2.546 . S
Tb491 O531 2.610 . S
Tb491 O533 2.320 . S
Tb491 O534 2.552 . S
Tb491 O535 2.413 . S
Tb491 C555 2.833 . S
N492 C484 1.360 1_545 S
N492 Tb491 2.660 . S
N492 C493 1.305 1_545 S
C493 N492 1.305 1_565 S
C493 C495 1.407 . S
C493 H500 0.930 1_565 S
C494 C482 1.410 . S
C494 C495 1.345 . S
C494 H502 0.930 . S
C495 C493 1.407 . S
C495 C494 1.345 . S
C495 H497 0.930 . S
H496 C489 0.930 . S
H497 C495 0.930 . S
H498 C486 0.930 . S
H499 C487 0.931 . S
H500 C493 0.930 1_545 S
H501 C515 0.930 . S
H502 C494 0.930 . S
H503 C521 0.930 . S
H504 C512 0.930 . S
H505 C519 0.931 . S
H506 C483 0.929 . S
H507 C513 0.930 . S
H508 C546 0.930 . S
H509 C490 0.930 . S
H510 C545 0.929 . S
N511 Tb480 2.660 . S
N511 C512 1.305 . S
N511 C516 1.360 . S
C512 H504 0.930 . S
C512 N511 1.305 . S
C512 C515 1.407 . S
C513 H507 0.930 . S
C513 C514 1.410 . S
C513 C515 1.345 . S
C514 C513 1.410 . S
C514 C516 1.417 . S
C514 C546 1.432 . S
C515 H501 0.930 . S
C515 C512 1.407 . S
C515 C513 1.345 . S
C516 N511 1.360 . S
C516 C514 1.417 . S
C516 C520 1.432 . S
H517 C522 0.930 . S
N518 Tb480 2.600 . S
N518 C520 1.359 . S
N518 C521 1.327 . S
C519 H505 0.931 . S
C519 C521 1.392 . S
C519 C522 1.370 . S
C520 C516 1.432 . S
C520 N518 1.359 . S
C520 C523 1.414 . S
C521 H503 0.930 . S
C521 N518 1.327 . S
C521 C519 1.392 . S
C522 H517 0.930 . S
C522 C519 1.370 . S
C522 C523 1.385 . S
C523 C520 1.414 . S
C523 C522 1.385 . S
C523 C545 1.444 . S
O524 Tb480 2.546 . S
O524 C544 1.251 . S
O525 Tb480 2.610 . S
O525 Tb491 2.362 . S
O525 C536 1.283 . S
O526 Tb491 2.421 . S
O526 C543 1.262 . S
O527 Tb480 2.320 . S
O527 C543 1.260 . S
O528 Tb480 2.552 . S
O528 C536 1.243 . S
O529 Tb480 2.413 . S
O529 C544 1.256 . S
O530 Tb491 2.546 . S
O530 C555 1.251 . S
O531 Tb480 2.362 . S
O531 Tb491 2.610 . S
O531 C547 1.283 . S
O532 Tb480 2.421 . S
O532 C554 1.262 . S
O533 Tb491 2.320 . S
O533 C554 1.260 . S
O534 Tb491 2.552 . S
O534 C547 1.243 . S
O535 Tb491 2.413 . S
O535 C555 1.256 . S
C536 O525 1.283 . S
C536 O528 1.243 . S
C537 C539 1.382 . S
C537 C541 1.393 . S
C537 C544 1.500 . S
C538 C539 1.400 1_565 S
C538 C540 1.384 . S
C539 C537 1.382 . S
C539 C538 1.400 1_545 S
C539 H556 0.930 . S
C540 C538 1.384 . S
C540 C542 1.392 1_565 S
C540 H557 0.931 . S
C541 C537 1.393 . S
C541 C542 1.401 . S
C541 H558 0.930 . S
C542 C540 1.392 1_545 S
C542 C541 1.401 . S
C542 H559 0.930 . S
C543 O526 1.262 . S
C543 O527 1.260 . S
C544 Tb480 2.833 . S
C544 O524 1.251 . S
C544 O529 1.256 . S
C544 C537 1.500 . S
C545 H510 0.929 . S
C545 C523 1.444 . S
C545 C546 1.317 . S
C546 H508 0.930 . S
C546 C514 1.432 . S
C546 C545 1.317 . S
C547 O531 1.283 . S
C547 O534 1.243 . S
C548 C549 1.382 . S
C548 C552 1.393 . S
C548 C555 1.500 . S
C549 C548 1.382 . S
C549 C550 1.400 . S
C549 H560 0.930 . S
C550 C549 1.400 . S
C550 C551 1.384 . S
C551 C550 1.384 . S
C551 C553 1.392 . S
C551 H561 0.931 . S
C552 C548 1.393 . S
C552 C553 1.401 . S
C552 H562 0.930 . S
C553 C551 1.392 . S
C553 C552 1.401 . S
C553 H563 0.930 . S
C554 O532 1.262 . S
C554 O533 1.260 . S
C555 Tb491 2.833 . S
C555 O530 1.251 . S
C555 O535 1.256 . S
C555 C548 1.500 . S
H556 C539 0.930 . S
H557 C540 0.931 . S
H558 C541 0.930 . S
H559 C542 0.930 . S
H560 C549 0.930 . S
H561 C551 0.931 . S
H562 C552 0.930 . S
H563 C553 0.930 . S
Tb564 N595 2.660 . S
Tb564 N602 2.600 . S
Tb564 O608 2.546 . S
Tb564 O609 2.610 . S
Tb564 O611 2.320 . S
Tb564 O612 2.552 . S
Tb564 O613 2.413 . S
Tb564 O615 2.362 . S
Tb564 O616 2.421 . S
Tb564 C628 2.833 . S
C565 C568 1.432 . S
C565 C569 1.414 . S
C565 N572 1.359 . S
C566 C568 1.417 . S
C566 C570 1.432 . S
C566 C578 1.410 . S
C567 C569 1.444 . S
C567 C570 1.317 . S
C567 H590 0.929 . S
C568 C565 1.432 . S
C568 C566 1.417 . S
C568 N576 1.360 . S
C569 C565 1.414 . S
C569 C567 1.444 . S
C569 C574 1.385 . S
C570 C566 1.432 . S
C570 C567 1.317 . S
C570 H582 0.930 . S
C571 C573 1.392 . S
C571 C574 1.370 . S
C571 H583 0.931 . S
N572 C565 1.359 . S
N572 C573 1.327 . S
N572 Tb575 2.600 . S
C573 C571 1.392 . S
C573 N572 1.327 . S
C573 H580 0.930 . S
C574 C569 1.385 . S
C574 C571 1.370 . S
C574 H593 0.930 . S
Tb575 N572 2.600 . S
Tb575 N576 2.660 . S
Tb575 O609 2.362 . S
Tb575 O610 2.421 . S
Tb575 O614 2.546 . S
Tb575 O615 2.610 . S
Tb575 O617 2.320 . S
Tb575 O618 2.552 . S
Tb575 O619 2.413 . S
Tb575 C639 2.833 . S
N576 C568 1.360 . S
N576 Tb575 2.660 . S
N576 C577 1.305 . S
C577 N576 1.305 . S
C577 C579 1.407 . S
C577 H584 0.930 . S
C578 C566 1.410 . S
C578 C579 1.345 . S
C578 H586 0.930 . S
C579 C577 1.407 . S
C579 C578 1.345 . S
C579 H581 0.930 . S
H580 C573 0.930 . S
H581 C579 0.930 . S
H582 C570 0.930 . S
H583 C571 0.931 . S
H584 C577 0.930 . S
H585 C599 0.930 . S
H586 C578 0.930 . S
H587 C605 0.930 . S
H588 C596 0.930 . S
H589 C603 0.931 . S
H590 C567 0.929 . S
H591 C597 0.930 . S
H592 C630 0.930 . S
H593 C574 0.930 . S
H594 C629 0.929 . S
N595 Tb564 2.660 . S
N595 C596 1.305 . S
N595 C600 1.360 . S
C596 H588 0.930 . S
C596 N595 1.305 . S
C596 C599 1.407 . S
C597 H591 0.930 . S
C597 C598 1.410 . S
C597 C599 1.345 . S
C598 C597 1.410 . S
C598 C600 1.417 . S
C598 C630 1.432 . S
C599 H585 0.930 . S
C599 C596 1.407 . S
C599 C597 1.345 . S
C600 N595 1.360 . S
C600 C598 1.417 . S
C600 C604 1.432 . S
H601 C606 0.930 . S
N602 Tb564 2.600 . S
N602 C604 1.359 . S
N602 C605 1.327 . S
C603 H589 0.931 . S
C603 C605 1.392 . S
C603 C606 1.370 . S
C604 C600 1.432 . S
C604 N602 1.359 . S
C604 C607 1.414 . S
C605 H587 0.930 . S
C605 N602 1.327 . S
C605 C603 1.392 . S
C606 H601 0.930 . S
C606 C603 1.370 . S
C606 C607 1.385 . S
C607 C604 1.414 . S
C607 C606 1.385 . S
C607 C629 1.444 . S
O608 Tb564 2.546 . S
O608 C628 1.251 . S
O609 Tb564 2.610 . S
O609 Tb575 2.362 . S
O609 C620 1.283 . S
O610 Tb575 2.421 . S
O610 C627 1.262 . S
O611 Tb564 2.320 . S
O611 C627 1.260 . S
O612 Tb564 2.552 . S
O612 C620 1.243 . S
O613 Tb564 2.413 . S
O613 C628 1.256 . S
O614 Tb575 2.546 . S
O614 C639 1.251 . S
O615 Tb564 2.362 . S
O615 Tb575 2.610 . S
O615 C631 1.283 . S
O616 Tb564 2.421 . S
O616 C638 1.262 . S
O617 Tb575 2.320 . S
O617 C638 1.260 . S
O618 Tb575 2.552 . S
O618 C631 1.243 . S
O619 Tb575 2.413 . S
O619 C639 1.256 . S
C620 O609 1.283 . S
C620 O612 1.243 . S
C621 C623 1.382 . S
C621 C625 1.393 . S
C621 C628 1.500 . S
C622 C623 1.400 . S
C622 C624 1.384 . S
C623 C621 1.382 . S
C623 C622 1.400 . S
C623 H640 0.930 . S
C624 C622 1.384 . S
C624 C626 1.392 . S
C624 H641 0.931 . S
C625 C621 1.393 . S
C625 C626 1.401 . S
C625 H642 0.930 . S
C626 C624 1.392 . S
C626 C625 1.401 . S
C626 H643 0.930 . S
C627 O610 1.262 . S
C627 O611 1.260 . S
C628 Tb564 2.833 . S
C628 O608 1.251 . S
C628 O613 1.256 . S
C628 C621 1.500 . S
C629 H594 0.929 . S
C629 C607 1.444 . S
C629 C630 1.317 . S
C630 H592 0.930 . S
C630 C598 1.432 . S
C630 C629 1.317 . S
C631 O615 1.283 . S
C631 O618 1.243 . S
C632 C633 1.382 . S
C632 C636 1.393 . S
C632 C639 1.500 . S
C633 C632 1.382 . S
C633 C634 1.400 . S
C633 H644 0.930 . S
C634 C633 1.400 . S
C634 C635 1.384 . S
C635 C634 1.384 . S
C635 C637 1.392 . S
C635 H645 0.931 . S
C636 C632 1.393 . S
C636 C637 1.401 . S
C636 H646 0.930 . S
C637 C635 1.392 . S
C637 C636 1.401 . S
C637 H647 0.930 . S
C638 O616 1.262 . S
C638 O617 1.260 . S
C639 Tb575 2.833 . S
C639 O614 1.251 . S
C639 O619 1.256 . S
C639 C632 1.500 . S
H640 C623 0.930 . S
H641 C624 0.931 . S
H642 C625 0.930 . S
H643 C626 0.930 . S
H644 C633 0.930 . S
H645 C635 0.931 . S
H646 C636 0.930 . S
H647 C637 0.930 . S
Tb648 N679 2.660 . S
Tb648 N686 2.600 . S
Tb648 O692 2.546 . S
Tb648 O693 2.610 . S
Tb648 O695 2.320 . S
Tb648 O696 2.552 . S
Tb648 O697 2.413 . S
Tb648 O699 2.362 . S
Tb648 O700 2.421 . S
Tb648 C712 2.833 . S
C649 C652 1.432 . S
C649 C653 1.414 . S
C649 N656 1.360 . S
C650 C652 1.417 . S
C650 C654 1.432 . S
C650 C662 1.410 . S
C651 C653 1.444 . S
C651 C654 1.317 . S
C651 H674 0.929 . S
C652 C649 1.432 . S
C652 C650 1.417 . S
C652 N660 1.360 . S
C653 C649 1.414 . S
C653 C651 1.444 . S
C653 C658 1.385 . S
C654 C650 1.432 . S
C654 C651 1.317 . S
C654 H666 0.930 . S
C655 C657 1.392 1_565 S
C655 C658 1.370 . S
C655 H667 0.931 . S
N656 C649 1.360 . S
N656 C657 1.328 1_565 S
N656 Tb659 2.599 1_565 S
C657 C655 1.392 1_545 S
C657 N656 1.328 1_545 S
C657 H664 0.930 . S
C658 C653 1.385 . S
C658 C655 1.370 . S
C658 H677 0.930 . S
Tb659 N656 2.599 1_545 S
Tb659 N660 2.660 1_545 S
Tb659 O693 2.362 . S
Tb659 O694 2.421 . S
Tb659 O698 2.546 1_545 S
Tb659 O699 2.610 . S
Tb659 O701 2.320 . S
Tb659 O702 2.552 . S
Tb659 O703 2.413 1_545 S
Tb659 C723 2.833 1_545 S
N660 C652 1.360 . S
N660 Tb659 2.660 1_565 S
N660 C661 1.305 . S
C661 N660 1.305 . S
C661 C663 1.440 . S
C661 H668 0.930 . S
C662 C650 1.410 . S
C662 C663 1.380 . S
C662 H670 0.937 . S
C663 C661 1.440 . S
C663 C662 1.380 . S
C663 H665 0.865 1_455 S
H664 C657 0.930 . S
H665 C663 0.865 1_655 S
H666 C654 0.930 . S
H667 C655 0.931 . S
H668 C661 0.930 . S
H669 C683 0.930 . S
H670 C662 0.937 . S
H671 C689 0.930 . S
H672 C680 0.930 . S
H673 C687 0.886 1_655 S
H674 C651 0.929 . S
H675 C681 0.930 . S
H676 C714 0.930 . S
H677 C658 0.930 . S
H678 C713 0.929 . S
N679 Tb648 2.660 . S
N679 C680 1.305 . S
N679 C684 1.360 . S
C680 H672 0.930 . S
C680 N679 1.305 . S
C680 C683 1.407 . S
C681 H675 0.930 . S
C681 C682 1.410 . S
C681 C683 1.345 . S
C682 C681 1.410 . S
C682 C684 1.417 . S
C682 C714 1.432 . S
C683 H669 0.930 . S
C683 C680 1.407 . S
C683 C681 1.345 . S
C684 N679 1.360 . S
C684 C682 1.417 . S
C684 C688 1.432 . S
H685 C690 0.930 . S
N686 Tb648 2.600 . S
N686 C688 1.359 . S
N686 C689 1.327 . S
C687 H673 0.886 1_455 S
C687 C689 1.420 . S
C687 C690 1.388 . S
C688 C684 1.432 . S
C688 N686 1.359 . S
C688 C691 1.414 . S
C689 H671 0.930 . S
C689 N686 1.327 . S
C689 C687 1.420 . S
C690 H685 0.930 . S
C690 C687 1.388 . S
C690 C691 1.385 . S
C691 C688 1.414 . S
C691 C690 1.385 . S
C691 C713 1.444 . S
O692 Tb648 2.546 . S
O692 C712 1.251 . S
O693 Tb648 2.610 . S
O693 Tb659 2.362 . S
O693 C704 1.283 . S
O694 Tb659 2.421 . S
O694 C711 1.262 . S
O695 Tb648 2.320 . S
O695 C711 1.260 . S
O696 Tb648 2.552 . S
O696 C704 1.243 . S
O697 Tb648 2.413 . S
O697 C712 1.256 . S
O698 Tb659 2.546 1_565 S
O698 C723 1.251 . S
O699 Tb648 2.362 . S
O699 Tb659 2.610 . S
O699 C715 1.283 . S
O700 Tb648 2.421 . S
O700 C722 1.262 . S
O701 Tb659 2.320 . S
O701 C722 1.260 . S
O702 Tb659 2.552 . S
O702 C715 1.243 . S
O703 Tb659 2.413 1_565 S
O703 C723 1.256 . S
C704 O693 1.283 . S
C704 O696 1.243 . S
C705 C707 1.382 . S
C705 C709 1.393 . S
C705 C712 1.500 . S
C706 C707 1.400 . S
C706 C708 1.384 . S
C707 C705 1.382 . S
C707 C706 1.400 . S
C707 H724 0.930 . S
C708 C706 1.384 . S
C708 C710 1.392 . S
C708 H725 0.931 . S
C709 C705 1.393 . S
C709 C710 1.401 . S
C709 H726 0.930 . S
C710 C708 1.392 . S
C710 C709 1.401 . S
C710 H727 0.930 . S
C711 O694 1.262 . S
C711 O695 1.260 . S
C712 Tb648 2.833 . S
C712 O692 1.251 . S
C712 O697 1.256 . S
C712 C705 1.500 . S
C713 H678 0.929 . S
C713 C691 1.444 . S
C713 C714 1.317 . S
C714 H676 0.930 . S
C714 C682 1.432 . S
C714 C713 1.317 . S
C715 O699 1.283 . S
C715 O702 1.243 . S
C716 C717 1.382 . S
C716 C720 1.393 . S
C716 C723 1.500 . S
C717 C716 1.382 . S
C717 C718 1.400 . S
C717 H728 0.930 . S
C718 C717 1.400 . S
C718 C719 1.384 . S
C719 C718 1.384 . S
C719 C721 1.392 . S
C719 H729 0.931 . S
C720 C716 1.393 . S
C720 C721 1.401 . S
C720 H730 0.930 . S
C721 C719 1.392 . S
C721 C720 1.401 . S
C721 H731 0.930 . S
C722 O700 1.262 . S
C722 O701 1.260 . S
C723 Tb659 2.833 1_565 S
C723 O698 1.251 . S
C723 O703 1.256 . S
C723 C716 1.500 . S
H724 C707 0.930 . S
H725 C708 0.931 . S
H726 C709 0.930 . S
H727 C710 0.930 . S
H728 C717 0.930 . S
H729 C719 0.931 . S
H730 C720 0.930 . S
H731 C721 0.930 . S
Tb732 N763 2.660 . S
Tb732 N770 2.600 . S
Tb732 O776 2.546 . S
Tb732 O777 2.610 . S
Tb732 O779 2.320 . S
Tb732 O780 2.552 . S
Tb732 O781 2.413 . S
Tb732 O783 2.362 . S
Tb732 O784 2.421 . S
Tb732 C796 2.833 . S
C733 C736 1.432 . S
C733 C737 1.414 . S
C733 N740 1.359 . S
C734 C736 1.417 . S
C734 C738 1.432 . S
C734 C746 1.410 . S
C735 C737 1.444 . S
C735 C738 1.317 . S
C735 H758 0.929 . S
C736 C733 1.432 . S
C736 C734 1.417 . S
C736 N744 1.360 . S
C737 C733 1.414 . S
C737 C735 1.444 . S
C737 C742 1.385 . S
C738 C734 1.432 . S
C738 C735 1.317 . S
C738 H750 0.930 . S
C739 C741 1.392 . S
C739 C742 1.370 . S
C739 H751 0.931 . S
N740 C733 1.359 . S
N740 C741 1.327 . S
N740 Tb743 2.600 . S
C741 C739 1.392 . S
C741 N740 1.327 . S
C741 H748 0.930 . S
C742 C737 1.385 . S
C742 C739 1.370 . S
C742 H761 0.930 . S
Tb743 N740 2.600 . S
Tb743 N744 2.660 . S
Tb743 O777 2.362 . S
Tb743 O778 2.421 . S
Tb743 O782 2.546 . S
Tb743 O783 2.610 . S
Tb743 O785 2.320 . S
Tb743 O786 2.552 . S
Tb743 O787 2.413 . S
Tb743 C807 2.833 . S
N744 C736 1.360 . S
N744 Tb743 2.660 . S
N744 C745 1.305 . S
C745 N744 1.305 . S
C745 C747 1.407 . S
C745 H752 0.930 . S
C746 C734 1.410 . S
C746 C747 1.345 . S
C746 H754 0.930 . S
C747 C745 1.407 . S
C747 C746 1.345 . S
C747 H749 0.930 . S
H748 C741 0.930 . S
H749 C747 0.930 . S
H750 C738 0.930 . S
H751 C739 0.931 . S
H752 C745 0.930 . S
H753 C767 0.930 . S
H754 C746 0.930 . S
H755 C773 0.930 . S
H756 C764 0.930 . S
H757 C771 0.931 . S
H758 C735 0.929 . S
H759 C765 0.930 . S
H760 C798 0.930 . S
H761 C742 0.930 . S
H762 C797 0.929 . S
N763 Tb732 2.660 . S
N763 C764 1.305 . S
N763 C768 1.360 . S
C764 H756 0.930 . S
C764 N763 1.305 . S
C764 C767 1.407 . S
C765 H759 0.930 . S
C765 C766 1.410 . S
C765 C767 1.345 . S
C766 C765 1.410 . S
C766 C768 1.417 . S
C766 C798 1.432 . S
C767 H753 0.930 . S
C767 C764 1.407 . S
C767 C765 1.345 . S
C768 N763 1.360 . S
C768 C766 1.417 . S
C768 C772 1.432 . S
H769 C774 0.930 . S
N770 Tb732 2.600 . S
N770 C772 1.359 . S
N770 C773 1.327 . S
C771 H757 0.931 . S
C771 C773 1.392 . S
C771 C774 1.370 . S
C772 C768 1.432 . S
C772 N770 1.359 . S
C772 C775 1.414 . S
C773 H755 0.930 . S
C773 N770 1.327 . S
C773 C771 1.392 . S
C774 H769 0.930 . S
C774 C771 1.370 . S
C774 C775 1.385 . S
C775 C772 1.414 . S
C775 C774 1.385 . S
C775 C797 1.444 . S
O776 Tb732 2.546 . S
O776 C796 1.251 . S
O777 Tb732 2.610 . S
O777 Tb743 2.362 . S
O777 C788 1.283 . S
O778 Tb743 2.421 . S
O778 C795 1.262 . S
O779 Tb732 2.320 . S
O779 C795 1.260 . S
O780 Tb732 2.552 . S
O780 C788 1.243 . S
O781 Tb732 2.413 . S
O781 C796 1.256 . S
O782 Tb743 2.546 . S
O782 C807 1.251 . S
O783 Tb732 2.362 . S
O783 Tb743 2.610 . S
O783 C799 1.283 . S
O784 Tb732 2.421 . S
O784 C806 1.262 . S
O785 Tb743 2.320 . S
O785 C806 1.260 . S
O786 Tb743 2.552 . S
O786 C799 1.243 . S
O787 Tb743 2.413 . S
O787 C807 1.256 . S
C788 O777 1.283 . S
C788 O780 1.243 . S
C789 C791 1.382 . S
C789 C793 1.393 . S
C789 C796 1.500 . S
C790 C791 1.400 . S
C790 C792 1.384 . S
C791 C789 1.382 . S
C791 C790 1.400 . S
C791 H808 0.930 . S
C792 C790 1.384 . S
C792 C794 1.392 . S
C792 H809 0.931 . S
C793 C789 1.393 . S
C793 C794 1.401 . S
C793 H810 0.930 . S
C794 C792 1.392 . S
C794 C793 1.401 . S
C794 H811 0.930 . S
C795 O778 1.262 . S
C795 O779 1.260 . S
C796 Tb732 2.833 . S
C796 O776 1.251 . S
C796 O781 1.256 . S
C796 C789 1.500 . S
C797 H762 0.929 . S
C797 C775 1.444 . S
C797 C798 1.317 . S
C798 H760 0.930 . S
C798 C766 1.432 . S
C798 C797 1.317 . S
C799 O783 1.283 . S
C799 O786 1.243 . S
C800 C801 1.382 . S
C800 C804 1.393 . S
C800 C807 1.500 . S
C801 C800 1.382 . S
C801 C802 1.400 . S
C801 H812 0.930 . S
C802 C801 1.400 . S
C802 C803 1.384 . S
C803 C802 1.384 . S
C803 C805 1.392 . S
C803 H813 0.931 . S
C804 C800 1.393 . S
C804 C805 1.401 . S
C804 H814 0.930 . S
C805 C803 1.392 . S
C805 C804 1.401 . S
C805 H815 0.930 . S
C806 O784 1.262 . S
C806 O785 1.260 . S
C807 Tb743 2.833 . S
C807 O782 1.251 . S
C807 O787 1.256 . S
C807 C800 1.500 . S
H808 C791 0.930 . S
H809 C792 0.931 . S
H810 C793 0.930 . S
H811 C794 0.930 . S
H812 C801 0.930 . S
H813 C803 0.931 . S
H814 C804 0.930 . S
H815 C805 0.930 . S
Tb816 N847 2.660 . S
Tb816 N854 2.600 . S
Tb816 O860 2.591 . S
Tb816 O861 2.610 . S
Tb816 O863 2.320 . S
Tb816 O864 2.552 . S
Tb816 O865 2.413 . S
Tb816 O867 2.362 . S
Tb816 O868 2.421 1_545 S
Tb816 C880 2.833 . S
C817 C820 1.432 . S
C817 C821 1.414 . S
C817 N824 1.359 . S
C818 C820 1.417 . S
C818 C822 1.432 . S
C818 C830 1.410 1_545 S
C819 C821 1.444 . S
C819 C822 1.317 . S
C819 H842 0.929 . S
C820 C817 1.432 . S
C820 C818 1.417 . S
C820 N828 1.360 . S
C821 C817 1.414 . S
C821 C819 1.444 . S
C821 C826 1.385 . S
C822 C818 1.432 . S
C822 C819 1.317 . S
C822 H834 0.930 . S
C823 C825 1.392 . S
C823 C826 1.370 . S
C823 H835 0.931 . S
N824 C817 1.359 . S
N824 C825 1.327 . S
N824 Tb827 2.600 . S
C825 C823 1.392 . S
C825 N824 1.327 . S
C825 H832 0.930 . S
C826 C821 1.385 . S
C826 C823 1.370 . S
C826 H845 0.930 . S
Tb827 N824 2.600 . S
Tb827 N828 2.660 . S
Tb827 O861 2.362 1_556 S
Tb827 O862 2.421 1_556 S
Tb827 O866 2.546 . S
Tb827 O867 2.610 1_556 S
Tb827 O869 2.320 . S
Tb827 O870 2.552 1_556 S
Tb827 O871 2.413 . S
Tb827 C891 2.833 . S
N828 C820 1.360 . S
N828 Tb827 2.660 . S
N828 C829 1.305 1_545 S
C829 N828 1.305 1_565 S
C829 C831 1.407 . S
C829 H836 0.930 . S
C830 C818 1.410 1_565 S
C830 C831 1.345 . S
C830 H838 0.930 . S
C831 C829 1.407 . S
C831 C830 1.345 . S
C831 H833 0.930 . S
H832 C825 0.930 . S
H833 C831 0.930 . S
H834 C822 0.930 . S
H835 C823 0.931 . S
H836 C829 0.930 . S
H837 C851 0.930 . S
H838 C830 0.930 . S
H839 C857 0.930 . S
H840 C848 0.930 . S
H841 C855 0.931 . S
H842 C819 0.929 . S
H843 C849 0.930 . S
H844 C882 0.930 . S
H845 C826 0.930 . S
H846 C881 0.929 . S
N847 Tb816 2.660 . S
N847 C848 1.305 . S
N847 C852 1.360 . S
C848 H840 0.930 . S
C848 N847 1.305 . S
C848 C851 1.407 . S
C849 H843 0.930 . S
C849 C850 1.410 . S
C849 C851 1.345 . S
C850 C849 1.410 . S
C850 C852 1.417 . S
C850 C882 1.432 . S
C851 H837 0.930 . S
C851 C848 1.407 . S
C851 C849 1.345 . S
C852 N847 1.360 . S
C852 C850 1.417 . S
C852 C856 1.432 . S
H853 C858 0.930 . S
N854 Tb816 2.600 . S
N854 C856 1.359 . S
N854 C857 1.327 1_545 S
C855 H841 0.931 . S
C855 C857 1.392 . S
C855 C858 1.370 . S
C856 C852 1.432 . S
C856 N854 1.359 . S
C856 C859 1.414 . S
C857 H839 0.930 . S
C857 N854 1.327 1_565 S
C857 C855 1.392 . S
C858 H853 0.930 . S
C858 C855 1.370 . S
C858 C859 1.385 1_565 S
C859 C856 1.414 . S
C859 C858 1.385 1_545 S
C859 C881 1.444 . S
O860 Tb816 2.591 . S
O860 C880 1.294 . S
O861 Tb816 2.610 . S
O861 Tb827 2.362 1_554 S
O861 C872 1.283 . S
O862 Tb827 2.421 1_554 S
O862 C879 1.262 . S
O863 Tb816 2.320 . S
O863 C879 1.260 . S
O864 Tb816 2.552 . S
O864 C872 1.243 . S
O865 Tb816 2.413 . S
O865 C880 1.256 . S
O866 Tb827 2.546 . S
O866 C891 1.251 . S
O867 Tb816 2.362 . S
O867 Tb827 2.610 1_554 S
O867 C883 1.283 . S
O868 Tb816 2.421 1_565 S
O868 C890 1.263 1_565 S
O869 Tb827 2.320 . S
O869 C890 1.254 1_556 S
O870 Tb827 2.552 1_554 S
O870 C883 1.243 . S
O871 Tb827 2.413 . S
O871 C891 1.256 . S
C872 O861 1.283 . S
C872 O864 1.243 . S
C873 C875 1.382 . S
C873 C877 1.393 1_545 S
C873 C880 1.500 . S
C874 C875 1.400 . S
C874 C876 1.384 . S
C875 C873 1.382 . S
C875 C874 1.400 . S
C875 H892 0.930 . S
C876 C874 1.384 . S
C876 C878 1.392 1_545 S
C876 H893 0.917 1_545 S
C877 C873 1.393 1_565 S
C877 C878 1.401 . S
C877 H894 0.930 . S
C878 C876 1.392 1_565 S
C878 C877 1.401 . S
C878 H895 0.930 . S
C879 O862 1.262 . S
C879 O863 1.260 . S
C880 Tb816 2.833 . S
C880 O860 1.294 . S
C880 O865 1.256 . S
C880 C873 1.500 . S
C881 H846 0.929 . S
C881 C859 1.444 . S
C881 C882 1.317 . S
C882 H844 0.930 . S
C882 C850 1.432 . S
C882 C881 1.317 . S
C883 O867 1.283 . S
C883 O870 1.243 . S
C884 C885 1.382 . S
C884 C888 1.393 . S
C884 C891 1.500 . S
C885 C884 1.382 . S
C885 C886 1.400 . S
C885 H896 0.930 . S
C886 C885 1.400 . S
C886 C887 1.384 . S
C887 C886 1.384 . S
C887 C889 1.392 . S
C887 H897 0.931 . S
C888 C884 1.393 . S
C888 C889 1.401 . S
C888 H898 0.930 . S
C889 C887 1.392 . S
C889 C888 1.401 . S
C889 H899 0.930 . S
C890 O868 1.263 1_545 S
C890 O869 1.254 1_554 S
C891 Tb827 2.833 . S
C891 O866 1.251 . S
C891 O871 1.256 . S
C891 C884 1.500 . S
H892 C875 0.930 . S
H893 C876 0.917 1_565 S
H894 C877 0.930 . S
H895 C878 0.930 . S
H896 C885 0.930 . S
H897 C887 0.931 . S
H898 C888 0.930 . S
H899 C889 0.930 . S
Tb900 N931 2.660 . S
Tb900 N938 2.600 . S
Tb900 O944 2.546 . S
Tb900 O945 2.610 . S
Tb900 O947 2.320 . S
Tb900 O948 2.552 . S
Tb900 O949 2.413 . S
Tb900 O951 2.362 . S
Tb900 O952 2.421 . S
Tb900 C964 2.833 . S
C901 C904 1.432 . S
C901 C905 1.414 . S
C901 N908 1.359 . S
C902 C904 1.417 . S
C902 C906 1.432 . S
C902 C914 1.410 . S
C903 C905 1.444 . S
C903 C906 1.317 . S
C903 H926 0.929 . S
C904 C901 1.432 . S
C904 C902 1.417 . S
C904 N912 1.360 . S
C905 C901 1.414 . S
C905 C903 1.444 . S
C905 C910 1.385 . S
C906 C902 1.432 . S
C906 C903 1.317 . S
C906 H918 0.930 . S
C907 C909 1.392 . S
C907 C910 1.370 . S
C907 H919 0.931 . S
N908 C901 1.359 . S
N908 C909 1.327 . S
N908 Tb911 2.600 . S
C909 C907 1.392 . S
C909 N908 1.327 . S
C909 H916 0.930 . S
C910 C905 1.385 . S
C910 C907 1.370 . S
C910 H929 0.930 . S
Tb911 N908 2.600 . S
Tb911 N912 2.660 . S
Tb911 O945 2.362 . S
Tb911 O946 2.421 . S
Tb911 O950 2.546 . S
Tb911 O951 2.610 . S
Tb911 O953 2.320 . S
Tb911 O954 2.552 . S
Tb911 O955 2.413 . S
Tb911 C975 2.833 . S
N912 C904 1.360 . S
N912 Tb911 2.660 . S
N912 C913 1.305 . S
C913 N912 1.305 . S
C913 C915 1.407 . S
C913 H920 0.930 . S
C914 C902 1.410 . S
C914 C915 1.345 . S
C914 H922 0.930 . S
C915 C913 1.407 . S
C915 C914 1.345 . S
C915 H917 0.930 . S
H916 C909 0.930 . S
H917 C915 0.930 . S
H918 C906 0.930 . S
H919 C907 0.931 . S
H920 C913 0.930 . S
H921 C935 0.930 . S
H922 C914 0.930 . S
H923 C941 0.930 . S
H924 C932 0.930 . S
H925 C939 0.931 . S
H926 C903 0.929 . S
H927 C933 0.930 . S
H928 C966 0.930 . S
H929 C910 0.930 . S
H930 C965 0.929 . S
N931 Tb900 2.660 . S
N931 C932 1.305 . S
N931 C936 1.360 . S
C932 H924 0.930 . S
C932 N931 1.305 . S
C932 C935 1.407 . S
C933 H927 0.930 . S
C933 C934 1.410 . S
C933 C935 1.345 . S
C934 C933 1.410 . S
C934 C936 1.417 . S
C934 C966 1.432 . S
C935 H921 0.930 . S
C935 C932 1.407 . S
C935 C933 1.345 . S
C936 N931 1.360 . S
C936 C934 1.417 . S
C936 C940 1.432 . S
H937 C942 0.930 . S
N938 Tb900 2.600 . S
N938 C940 1.359 . S
N938 C941 1.327 . S
C939 H925 0.931 . S
C939 C941 1.392 . S
C939 C942 1.370 . S
C940 C936 1.432 . S
C940 N938 1.359 . S
C940 C943 1.414 . S
C941 H923 0.930 . S
C941 N938 1.327 . S
C941 C939 1.392 . S
C942 H937 0.930 . S
C942 C939 1.370 . S
C942 C943 1.385 . S
C943 C940 1.414 . S
C943 C942 1.385 . S
C943 C965 1.444 . S
O944 Tb900 2.546 . S
O944 C964 1.251 . S
O945 Tb900 2.610 . S
O945 Tb911 2.362 . S
O945 C956 1.283 . S
O946 Tb911 2.421 . S
O946 C963 1.262 . S
O947 Tb900 2.320 . S
O947 C963 1.260 . S
O948 Tb900 2.552 . S
O948 C956 1.243 . S
O949 Tb900 2.413 . S
O949 C964 1.256 . S
O950 Tb911 2.546 . S
O950 C975 1.251 . S
O951 Tb900 2.362 . S
O951 Tb911 2.610 . S
O951 C967 1.283 . S
O952 Tb900 2.421 . S
O952 C974 1.262 . S
O953 Tb911 2.320 . S
O953 C974 1.260 . S
O954 Tb911 2.552 . S
O954 C967 1.243 . S
O955 Tb911 2.413 . S
O955 C975 1.256 . S
C956 O945 1.283 . S
C956 O948 1.243 . S
C957 C959 1.382 . S
C957 C961 1.393 . S
C957 C964 1.500 . S
C958 C959 1.400 . S
C958 C960 1.384 . S
C959 C957 1.382 . S
C959 C958 1.400 . S
C959 H976 0.930 . S
C960 C958 1.384 . S
C960 C962 1.392 . S
C960 H977 0.931 . S
C961 C957 1.393 . S
C961 C962 1.401 . S
C961 H978 0.930 . S
C962 C960 1.392 . S
C962 C961 1.401 . S
C962 H979 0.930 . S
C963 O946 1.262 . S
C963 O947 1.260 . S
C964 Tb900 2.833 . S
C964 O944 1.251 . S
C964 O949 1.256 . S
C964 C957 1.500 . S
C965 H930 0.929 . S
C965 C943 1.444 . S
C965 C966 1.317 . S
C966 H928 0.930 . S
C966 C934 1.432 . S
C966 C965 1.317 . S
C967 O951 1.283 . S
C967 O954 1.243 . S
C968 C969 1.382 . S
C968 C972 1.393 . S
C968 C975 1.500 . S
C969 C968 1.382 . S
C969 C970 1.400 . S
C969 H980 0.930 . S
C970 C969 1.400 . S
C970 C971 1.384 . S
C971 C970 1.384 . S
C971 C973 1.392 . S
C971 H981 0.931 . S
C972 C968 1.393 . S
C972 C973 1.401 . S
C972 H982 0.930 . S
C973 C971 1.392 . S
C973 C972 1.401 . S
C973 H983 0.930 . S
C974 O952 1.262 . S
C974 O953 1.260 . S
C975 Tb911 2.833 . S
C975 O950 1.251 . S
C975 O955 1.256 . S
C975 C968 1.500 . S
H976 C959 0.930 . S
H977 C960 0.931 . S
H978 C961 0.930 . S
H979 C962 0.930 . S
H980 C969 0.930 . S
H981 C971 0.931 . S
H982 C972 0.930 . S
H983 C973 0.930 . S
Tb984 N1015 2.660 . S
Tb984 N1022 2.600 . S
Tb984 O1028 2.546 . S
Tb984 O1029 2.593 1_554 S
Tb984 O1031 2.320 . S
Tb984 O1032 2.552 1_554 S
Tb984 O1033 2.413 . S
Tb984 O1035 2.362 . S
Tb984 O1036 2.421 . S
Tb984 C1048 2.833 . S
C985 C988 1.432 . S
C985 C989 1.414 . S
C985 N992 1.359 . S
C986 C988 1.417 . S
C986 C990 1.432 . S
C986 C998 1.410 . S
C987 C989 1.444 . S
C987 C990 1.317 . S
C987 H1010 0.929 . S
C988 C985 1.432 . S
C988 C986 1.417 . S
C988 N996 1.360 . S
C989 C985 1.414 . S
C989 C987 1.444 . S
C989 C994 1.385 . S
C990 C986 1.432 . S
C990 C987 1.317 . S
C990 H1002 0.930 . S
C991 C993 1.392 . S
C991 C994 1.370 . S
C991 H1003 0.931 . S
N992 C985 1.359 . S
N992 C993 1.327 . S
N992 Tb995 2.600 1_556 S
C993 C991 1.392 . S
C993 N992 1.327 . S
C993 H1000 0.930 . S
C994 C989 1.385 . S
C994 C991 1.370 . S
C994 H1013 0.930 . S
Tb995 N992 2.600 1_554 S
Tb995 N996 2.660 1_554 S
Tb995 O1029 2.349 1_554 S
Tb995 O1030 2.421 . S
Tb995 O1034 2.546 . S
Tb995 O1035 2.610 . S
Tb995 O1037 2.320 . S
Tb995 O1038 2.552 . S
Tb995 O1039 2.413 . S
Tb995 C1059 2.833 . S
N996 C988 1.360 . S
N996 Tb995 2.660 1_556 S
N996 C997 1.305 . S
C997 N996 1.305 . S
C997 C999 1.407 . S
C997 H1004 0.930 . S
C998 C986 1.410 . S
C998 C999 1.345 . S
C998 H1006 0.930 . S
C999 C997 1.407 . S
C999 C998 1.345 . S
C999 H1001 0.930 . S
H1000 C993 0.930 . S
H1001 C999 0.930 . S
H1002 C990 0.930 . S
H1003 C991 0.931 . S
H1004 C997 0.930 . S
H1005 C1019 0.930 . S
H1006 C998 0.930 . S
H1007 C1025 0.930 . S
H1008 C1016 0.930 . S
H1009 C1023 0.931 . S
H1010 C987 0.929 . S
H1011 C1017 0.930 . S
H1012 C1050 0.930 . S
H1013 C994 0.930 . S
H1014 C1049 0.929 . S
N1015 Tb984 2.660 . S
N1015 C1016 1.305 . S
N1015 C1020 1.360 . S
C1016 H1008 0.930 . S
C1016 N1015 1.305 . S
C1016 C1019 1.407 . S
C1017 H1011 0.930 . S
C1017 C1018 1.410 . S
C1017 C1019 1.345 . S
C1018 C1017 1.410 . S
C1018 C1020 1.417 . S
C1018 C1050 1.432 . S
C1019 H1005 0.930 . S
C1019 C1016 1.407 . S
C1019 C1017 1.345 . S
C1020 N1015 1.360 . S
C1020 C1018 1.417 . S
C1020 C1024 1.432 . S
H1021 C1026 0.930 . S
N1022 Tb984 2.600 . S
N1022 C1024 1.359 . S
N1022 C1025 1.327 . S
C1023 H1009 0.931 . S
C1023 C1025 1.392 . S
C1023 C1026 1.370 . S
C1024 C1020 1.432 . S
C1024 N1022 1.359 . S
C1024 C1027 1.414 . S
C1025 H1007 0.930 . S
C1025 N1022 1.327 . S
C1025 C1023 1.392 . S
C1026 H1021 0.930 . S
C1026 C1023 1.370 . S
C1026 C1027 1.385 . S
C1027 C1024 1.414 . S
C1027 C1026 1.385 . S
C1027 C1049 1.444 . S
O1028 Tb984 2.546 . S
O1028 C1048 1.251 . S
O1029 Tb984 2.593 1_556 S
O1029 Tb995 2.349 1_556 S
O1029 C1040 1.302 . S
O1030 Tb995 2.421 . S
O1030 C1047 1.262 . S
O1031 Tb984 2.320 . S
O1031 C1047 1.260 . S
O1032 Tb984 2.552 1_556 S
O1032 C1040 1.243 . S
O1033 Tb984 2.413 . S
O1033 C1048 1.256 . S
O1034 Tb995 2.546 . S
O1034 C1059 1.251 . S
O1035 Tb984 2.362 . S
O1035 Tb995 2.610 . S
O1035 C1051 1.283 . S
O1036 Tb984 2.421 . S
O1036 C1058 1.262 . S
O1037 Tb995 2.320 . S
O1037 C1058 1.260 . S
O1038 Tb995 2.552 . S
O1038 C1051 1.243 . S
O1039 Tb995 2.413 . S
O1039 C1059 1.256 . S
C1040 O1029 1.302 . S
C1040 O1032 1.243 . S
C1041 C1043 1.382 . S
C1041 C1045 1.393 . S
C1041 C1048 1.500 . S
C1042 C1043 1.400 . S
C1042 C1044 1.384 . S
C1043 C1041 1.382 . S
C1043 C1042 1.400 . S
C1043 H1060 0.930 . S
C1044 C1042 1.384 . S
C1044 C1046 1.392 . S
C1044 H1061 0.931 . S
C1045 C1041 1.393 . S
C1045 C1046 1.401 . S
C1045 H1062 0.930 . S
C1046 C1044 1.392 . S
C1046 C1045 1.401 . S
C1046 H1063 0.930 . S
C1047 O1030 1.262 . S
C1047 O1031 1.260 . S
C1048 Tb984 2.833 . S
C1048 O1028 1.251 . S
C1048 O1033 1.256 . S
C1048 C1041 1.500 . S
C1049 H1014 0.929 . S
C1049 C1027 1.444 . S
C1049 C1050 1.317 . S
C1050 H1012 0.930 . S
C1050 C1018 1.432 . S
C1050 C1049 1.317 . S
C1051 O1035 1.283 . S
C1051 O1038 1.243 . S
C1052 C1053 1.382 . S
C1052 C1056 1.393 . S
C1052 C1059 1.500 . S
C1053 C1052 1.382 . S
C1053 C1054 1.400 . S
C1053 H1064 0.930 . S
C1054 C1053 1.400 . S
C1054 C1055 1.384 . S
C1055 C1054 1.384 . S
C1055 C1057 1.392 . S
C1055 H1065 0.931 . S
C1056 C1052 1.393 . S
C1056 C1057 1.401 . S
C1056 H1066 0.930 . S
C1057 C1055 1.392 . S
C1057 C1056 1.401 . S
C1057 H1067 0.930 . S
C1058 O1036 1.262 . S
C1058 O1037 1.260 . S
C1059 Tb995 2.833 . S
C1059 O1034 1.251 . S
C1059 O1039 1.256 . S
C1059 C1052 1.500 . S
H1060 C1043 0.930 . S
H1061 C1044 0.931 . S
H1062 C1045 0.930 . S
H1063 C1046 0.930 . S
H1064 C1053 0.930 . S
H1065 C1055 0.931 . S
H1066 C1056 0.930 . S
H1067 C1057 0.930 . S
Tb1068 N1099 2.660 . S
Tb1068 N1106 2.600 . S
Tb1068 O1112 2.546 . S
Tb1068 O1113 2.610 . S
Tb1068 O1115 2.320 . S
Tb1068 O1116 2.552 . S
Tb1068 O1117 2.413 . S
Tb1068 O1119 2.362 . S
Tb1068 O1120 2.421 . S
Tb1068 C1132 2.833 . S
C1069 C1072 1.432 . S
C1069 C1073 1.414 . S
C1069 N1076 1.359 . S
C1070 C1072 1.417 . S
C1070 C1074 1.432 . S
C1070 C1082 1.410 . S
C1071 C1073 1.444 . S
C1071 C1074 1.317 . S
C1071 H1094 0.929 . S
C1072 C1069 1.432 . S
C1072 C1070 1.417 . S
C1072 N1080 1.360 . S
C1073 C1069 1.414 . S
C1073 C1071 1.444 . S
C1073 C1078 1.385 . S
C1074 C1070 1.432 . S
C1074 C1071 1.317 . S
C1074 H1086 0.930 . S
C1075 C1077 1.392 . S
C1075 C1078 1.370 . S
C1075 H1087 0.931 . S
N1076 C1069 1.359 . S
N1076 C1077 1.327 . S
N1076 Tb1079 2.600 . S
C1077 C1075 1.392 . S
C1077 N1076 1.327 . S
C1077 H1084 0.930 . S
C1078 C1073 1.385 . S
C1078 C1075 1.370 . S
C1078 H1097 0.930 . S
Tb1079 N1076 2.600 . S
Tb1079 N1080 2.660 . S
Tb1079 O1113 2.362 . S
Tb1079 O1114 2.421 . S
Tb1079 O1118 2.546 . S
Tb1079 O1119 2.610 . S
Tb1079 O1121 2.320 . S
Tb1079 O1122 2.552 . S
Tb1079 O1123 2.413 . S
Tb1079 C1143 2.833 . S
N1080 C1072 1.360 . S
N1080 Tb1079 2.660 . S
N1080 C1081 1.305 . S
C1081 N1080 1.305 . S
C1081 C1083 1.407 . S
C1081 H1088 0.930 . S
C1082 C1070 1.410 . S
C1082 C1083 1.345 . S
C1082 H1090 0.930 . S
C1083 C1081 1.407 . S
C1083 C1082 1.345 . S
C1083 H1085 0.930 . S
H1084 C1077 0.930 . S
H1085 C1083 0.930 . S
H1086 C1074 0.930 . S
H1087 C1075 0.931 . S
H1088 C1081 0.930 . S
H1089 C1103 0.930 . S
H1090 C1082 0.930 . S
H1091 C1109 0.930 . S
H1092 C1100 0.930 . S
H1093 C1107 0.931 . S
H1094 C1071 0.929 . S
H1095 C1101 0.930 . S
H1096 C1134 0.930 . S
H1097 C1078 0.930 . S
H1098 C1133 0.929 . S
N1099 Tb1068 2.660 . S
N1099 C1100 1.305 . S
N1099 C1104 1.360 . S
C1100 H1092 0.930 . S
C1100 N1099 1.305 . S
C1100 C1103 1.407 . S
C1101 H1095 0.930 . S
C1101 C1102 1.410 . S
C1101 C1103 1.345 . S
C1102 C1101 1.410 . S
C1102 C1104 1.417 . S
C1102 C1134 1.432 . S
C1103 H1089 0.930 . S
C1103 C1100 1.407 . S
C1103 C1101 1.345 . S
C1104 N1099 1.360 . S
C1104 C1102 1.417 . S
C1104 C1108 1.432 . S
H1105 C1110 0.930 . S
N1106 Tb1068 2.600 . S
N1106 C1108 1.359 . S
N1106 C1109 1.327 . S
C1107 H1093 0.931 . S
C1107 C1109 1.392 . S
C1107 C1110 1.370 . S
C1108 C1104 1.432 . S
C1108 N1106 1.359 . S
C1108 C1111 1.414 . S
C1109 H1091 0.930 . S
C1109 N1106 1.327 . S
C1109 C1107 1.392 . S
C1110 H1105 0.930 . S
C1110 C1107 1.370 . S
C1110 C1111 1.385 . S
C1111 C1108 1.414 . S
C1111 C1110 1.385 . S
C1111 C1133 1.444 . S
O1112 Tb1068 2.546 . S
O1112 C1132 1.251 . S
O1113 Tb1068 2.610 . S
O1113 Tb1079 2.362 . S
O1113 C1124 1.283 . S
O1114 Tb1079 2.421 . S
O1114 C1131 1.262 . S
O1115 Tb1068 2.320 . S
O1115 C1131 1.260 . S
O1116 Tb1068 2.552 . S
O1116 C1124 1.243 . S
O1117 Tb1068 2.413 . S
O1117 C1132 1.256 . S
O1118 Tb1079 2.546 . S
O1118 C1143 1.251 . S
O1119 Tb1068 2.362 . S
O1119 Tb1079 2.610 . S
O1119 C1135 1.283 . S
O1120 Tb1068 2.421 . S
O1120 C1142 1.262 . S
O1121 Tb1079 2.320 . S
O1121 C1142 1.260 . S
O1122 Tb1079 2.552 . S
O1122 C1135 1.243 . S
O1123 Tb1079 2.413 . S
O1123 C1143 1.256 . S
C1124 O1113 1.283 . S
C1124 O1116 1.243 . S
C1125 C1127 1.382 . S
C1125 C1129 1.393 . S
C1125 C1132 1.500 . S
C1126 C1127 1.400 . S
C1126 C1128 1.384 . S
C1127 C1125 1.382 . S
C1127 C1126 1.400 . S
C1127 H1144 0.930 . S
C1128 C1126 1.384 . S
C1128 C1130 1.392 . S
C1128 H1145 0.931 . S
C1129 C1125 1.393 . S
C1129 C1130 1.401 . S
C1129 H1146 0.930 . S
C1130 C1128 1.392 . S
C1130 C1129 1.401 . S
C1130 H1147 0.930 . S
C1131 O1114 1.262 . S
C1131 O1115 1.260 . S
C1132 Tb1068 2.833 . S
C1132 O1112 1.251 . S
C1132 O1117 1.256 . S
C1132 C1125 1.500 . S
C1133 H1098 0.929 . S
C1133 C1111 1.444 . S
C1133 C1134 1.317 . S
C1134 H1096 0.930 . S
C1134 C1102 1.432 . S
C1134 C1133 1.317 . S
C1135 O1119 1.283 . S
C1135 O1122 1.243 . S
C1136 C1137 1.382 . S
C1136 C1140 1.393 . S
C1136 C1143 1.500 . S
C1137 C1136 1.382 . S
C1137 C1138 1.400 . S
C1137 H1148 0.930 . S
C1138 C1137 1.400 . S
C1138 C1139 1.384 . S
C1139 C1138 1.384 . S
C1139 C1141 1.392 . S
C1139 H1149 0.931 . S
C1140 C1136 1.393 . S
C1140 C1141 1.401 . S
C1140 H1150 0.930 . S
C1141 C1139 1.392 . S
C1141 C1140 1.401 . S
C1141 H1151 0.930 . S
C1142 O1120 1.262 . S
C1142 O1121 1.260 . S
C1143 Tb1079 2.833 . S
C1143 O1118 1.251 . S
C1143 O1123 1.256 . S
C1143 C1136 1.500 . S
H1144 C1127 0.930 . S
H1145 C1128 0.931 . S
H1146 C1129 0.930 . S
H1147 C1130 0.930 . S
H1148 C1137 0.930 . S
H1149 C1139 0.931 . S
H1150 C1140 0.930 . S
H1151 C1141 0.930 . S
Tb1152 N1183 2.660 . S
Tb1152 N1190 2.600 . S
Tb1152 O1196 2.546 . S
Tb1152 O1197 2.610 . S
Tb1152 O1199 2.320 . S
Tb1152 O1200 2.552 . S
Tb1152 O1201 2.413 . S
Tb1152 O1203 2.362 . S
Tb1152 O1204 2.421 . S
Tb1152 C1216 2.833 . S
C1153 C1156 1.432 . S
C1153 C1157 1.414 1_455 S
C1153 N1160 1.359 . S
C1154 C1156 1.417 1_655 S
C1154 C1158 1.432 . S
C1154 C1166 1.410 . S
C1155 C1157 1.444 . S
C1155 C1158 1.317 . S
C1155 H1178 0.929 . S
C1156 C1153 1.432 . S
C1156 C1154 1.417 1_455 S
C1156 N1164 1.360 . S
C1157 C1153 1.414 1_655 S
C1157 C1155 1.444 . S
C1157 C1162 1.382 . S
C1158 C1154 1.432 . S
C1158 C1155 1.317 . S
C1158 H1170 0.930 . S
C1159 C1161 1.392 . S
C1159 C1162 1.337 1_455 S
C1159 H1171 0.931 . S
N1160 C1153 1.359 . S
N1160 C1161 1.327 . S
N1160 Tb1163 2.600 . S
C1161 C1159 1.392 . S
C1161 N1160 1.327 . S
C1161 H1168 0.930 . S
C1162 C1157 1.382 . S
C1162 C1159 1.337 1_655 S
C1162 H1181 0.967 . S
Tb1163 N1160 2.600 . S
Tb1163 N1164 2.660 . S
Tb1163 O1197 2.362 . S
Tb1163 O1198 2.421 . S
Tb1163 O1202 2.546 . S
Tb1163 O1203 2.610 . S
Tb1163 O1205 2.320 . S
Tb1163 O1206 2.552 . S
Tb1163 O1207 2.413 . S
Tb1163 C1227 2.833 . S
N1164 C1156 1.360 . S
N1164 Tb1163 2.660 . S
N1164 C1165 1.305 . S
C1165 N1164 1.305 . S
C1165 C1167 1.407 . S
C1165 H1172 0.930 . S
C1166 C1154 1.410 . S
C1166 C1167 1.345 1_655 S
C1166 H1174 0.930 . S
C1167 C1165 1.407 . S
C1167 C1166 1.345 1_455 S
C1167 H1169 0.924 . S
H1168 C1161 0.930 . S
H1169 C1167 0.924 . S
H1170 C1158 0.930 . S
H1171 C1159 0.931 . S
H1172 C1165 0.930 . S
H1173 C1187 0.930 . S
H1174 C1166 0.930 . S
H1175 C1193 0.930 . S
H1176 C1184 0.930 . S
H1177 C1191 0.931 . S
H1178 C1155 0.929 . S
H1179 C1185 0.930 . S
H1180 C1218 0.930 . S
H1181 C1162 0.967 . S
H1182 C1217 0.929 . S
N1183 Tb1152 2.660 . S
N1183 C1184 1.305 . S
N1183 C1188 1.360 . S
C1184 H1176 0.930 . S
C1184 N1183 1.305 . S
C1184 C1187 1.407 . S
C1185 H1179 0.930 . S
C1185 C1186 1.410 . S
C1185 C1187 1.345 . S
C1186 C1185 1.410 . S
C1186 C1188 1.417 . S
C1186 C1218 1.432 . S
C1187 H1173 0.930 . S
C1187 C1184 1.407 . S
C1187 C1185 1.345 . S
C1188 N1183 1.360 . S
C1188 C1186 1.417 . S
C1188 C1192 1.432 . S
H1189 C1194 0.930 . S
N1190 Tb1152 2.600 . S
N1190 C1192 1.359 . S
N1190 C1193 1.327 . S
C1191 H1177 0.931 . S
C1191 C1193 1.392 . S
C1191 C1194 1.370 . S
C1192 C1188 1.432 . S
C1192 N1190 1.359 . S
C1192 C1195 1.414 . S
C1193 H1175 0.930 . S
C1193 N1190 1.327 . S
C1193 C1191 1.392 . S
C1194 H1189 0.930 . S
C1194 C1191 1.370 . S
C1194 C1195 1.385 . S
C1195 C1192 1.414 . S
C1195 C1194 1.385 . S
C1195 C1217 1.444 . S
O1196 Tb1152 2.546 . S
O1196 C1216 1.251 . S
O1197 Tb1152 2.610 . S
O1197 Tb1163 2.362 . S
O1197 C1208 1.283 . S
O1198 Tb1163 2.421 . S
O1198 C1215 1.262 . S
O1199 Tb1152 2.320 . S
O1199 C1215 1.260 . S
O1200 Tb1152 2.552 . S
O1200 C1208 1.243 . S
O1201 Tb1152 2.413 . S
O1201 C1216 1.256 . S
O1202 Tb1163 2.546 . S
O1202 C1227 1.251 . S
O1203 Tb1152 2.362 . S
O1203 Tb1163 2.610 . S
O1203 C1219 1.283 . S
O1204 Tb1152 2.421 . S
O1204 C1226 1.262 . S
O1205 Tb1163 2.320 . S
O1205 C1226 1.260 . S
O1206 Tb1163 2.552 . S
O1206 C1219 1.243 . S
O1207 Tb1163 2.413 . S
O1207 C1227 1.256 . S
C1208 O1197 1.283 . S
C1208 O1200 1.243 . S
C1209 C1211 1.382 . S
C1209 C1213 1.393 . S
C1209 C1216 1.500 . S
C1210 C1211 1.400 . S
C1210 C1212 1.384 . S
C1211 C1209 1.382 . S
C1211 C1210 1.400 . S
C1211 H1228 0.930 . S
C1212 C1210 1.384 . S
C1212 C1214 1.392 . S
C1212 H1229 0.931 . S
C1213 C1209 1.393 . S
C1213 C1214 1.401 . S
C1213 H1230 0.930 . S
C1214 C1212 1.392 . S
C1214 C1213 1.401 . S
C1214 H1231 0.930 . S
C1215 O1198 1.262 . S
C1215 O1199 1.260 . S
C1216 Tb1152 2.833 . S
C1216 O1196 1.251 . S
C1216 O1201 1.256 . S
C1216 C1209 1.500 . S
C1217 H1182 0.929 . S
C1217 C1195 1.444 . S
C1217 C1218 1.317 . S
C1218 H1180 0.930 . S
C1218 C1186 1.432 . S
C1218 C1217 1.317 . S
C1219 O1203 1.283 . S
C1219 O1206 1.243 . S
C1220 C1221 1.382 . S
C1220 C1224 1.393 . S
C1220 C1227 1.500 . S
C1221 C1220 1.382 . S
C1221 C1222 1.400 . S
C1221 H1232 0.930 . S
C1222 C1221 1.400 . S
C1222 C1223 1.384 . S
C1223 C1222 1.384 . S
C1223 C1225 1.392 . S
C1223 H1233 0.931 . S
C1224 C1220 1.393 . S
C1224 C1225 1.401 . S
C1224 H1234 0.930 . S
C1225 C1223 1.392 . S
C1225 C1224 1.401 . S
C1225 H1235 0.930 . S
C1226 O1204 1.262 . S
C1226 O1205 1.260 . S
C1227 Tb1163 2.833 . S
C1227 O1202 1.251 . S
C1227 O1207 1.256 . S
C1227 C1220 1.500 . S
H1228 C1211 0.930 . S
H1229 C1212 0.931 . S
H1230 C1213 0.930 . S
H1231 C1214 0.930 . S
H1232 C1221 0.930 . S
H1233 C1223 0.931 . S
H1234 C1224 0.930 . S
H1235 C1225 0.930 . S
Tb1236 N1267 2.660 . S
Tb1236 N1274 2.600 . S
Tb1236 O1280 2.546 . S
Tb1236 O1281 2.610 . S
Tb1236 O1283 2.320 . S
Tb1236 O1284 2.552 . S
Tb1236 O1285 2.413 . S
Tb1236 O1287 2.362 . S
Tb1236 O1288 2.421 . S
Tb1236 C1300 2.833 . S
C1237 C1240 1.432 . S
C1237 C1241 1.414 . S
C1237 N1244 1.359 . S
C1238 C1240 1.417 . S
C1238 C1242 1.432 . S
C1238 C1250 1.410 . S
C1239 C1241 1.444 . S
C1239 C1242 1.317 . S
C1239 H1262 0.929 . S
C1240 C1237 1.432 . S
C1240 C1238 1.417 . S
C1240 N1248 1.360 . S
C1241 C1237 1.414 . S
C1241 C1239 1.444 . S
C1241 C1246 1.385 . S
C1242 C1238 1.432 . S
C1242 C1239 1.317 . S
C1242 H1254 0.930 . S
C1243 C1245 1.392 . S
C1243 C1246 1.370 . S
C1243 H1255 0.931 . S
N1244 C1237 1.359 . S
N1244 C1245 1.327 . S
N1244 Tb1247 2.600 . S
C1245 C1243 1.392 . S
C1245 N1244 1.327 . S
C1245 H1252 0.930 . S
C1246 C1241 1.385 . S
C1246 C1243 1.370 . S
C1246 H1265 0.930 . S
Tb1247 N1244 2.600 . S
Tb1247 N1248 2.660 . S
Tb1247 O1281 2.362 . S
Tb1247 O1282 2.421 . S
Tb1247 O1286 2.546 . S
Tb1247 O1287 2.610 . S
Tb1247 O1289 2.320 . S
Tb1247 O1290 2.552 . S
Tb1247 O1291 2.413 . S
Tb1247 C1311 2.833 . S
N1248 C1240 1.360 . S
N1248 Tb1247 2.660 . S
N1248 C1249 1.305 . S
C1249 N1248 1.305 . S
C1249 C1251 1.407 . S
C1249 H1256 0.930 . S
C1250 C1238 1.410 . S
C1250 C1251 1.345 . S
C1250 H1258 0.930 . S
C1251 C1249 1.407 . S
C1251 C1250 1.345 . S
C1251 H1253 0.930 . S
H1252 C1245 0.930 . S
H1253 C1251 0.930 . S
H1254 C1242 0.930 . S
H1255 C1243 0.931 . S
H1256 C1249 0.930 . S
H1257 C1271 0.930 . S
H1258 C1250 0.930 . S
H1259 C1277 0.930 . S
H1260 C1268 0.930 . S
H1261 C1275 0.931 . S
H1262 C1239 0.929 . S
H1263 C1269 0.930 . S
H1264 C1302 0.930 . S
H1265 C1246 0.930 . S
H1266 C1301 0.929 . S
N1267 Tb1236 2.660 . S
N1267 C1268 1.305 . S
N1267 C1272 1.360 . S
C1268 H1260 0.930 . S
C1268 N1267 1.305 . S
C1268 C1271 1.407 . S
C1269 H1263 0.930 . S
C1269 C1270 1.410 . S
C1269 C1271 1.345 . S
C1270 C1269 1.410 . S
C1270 C1272 1.417 . S
C1270 C1302 1.432 . S
C1271 H1257 0.930 . S
C1271 C1268 1.407 . S
C1271 C1269 1.345 . S
C1272 N1267 1.360 . S
C1272 C1270 1.417 . S
C1272 C1276 1.432 . S
H1273 C1278 0.930 . S
N1274 Tb1236 2.600 . S
N1274 C1276 1.359 . S
N1274 C1277 1.327 . S
C1275 H1261 0.931 . S
C1275 C1277 1.392 . S
C1275 C1278 1.370 . S
C1276 C1272 1.432 . S
C1276 N1274 1.359 . S
C1276 C1279 1.414 . S
C1277 H1259 0.930 . S
C1277 N1274 1.327 . S
C1277 C1275 1.392 . S
C1278 H1273 0.930 . S
C1278 C1275 1.370 . S
C1278 C1279 1.385 . S
C1279 C1276 1.414 . S
C1279 C1278 1.385 . S
C1279 C1301 1.444 . S
O1280 Tb1236 2.546 . S
O1280 C1300 1.251 . S
O1281 Tb1236 2.610 . S
O1281 Tb1247 2.362 . S
O1281 C1292 1.283 . S
O1282 Tb1247 2.421 . S
O1282 C1299 1.262 . S
O1283 Tb1236 2.320 . S
O1283 C1299 1.260 . S
O1284 Tb1236 2.552 . S
O1284 C1292 1.243 . S
O1285 Tb1236 2.413 . S
O1285 C1300 1.256 . S
O1286 Tb1247 2.546 . S
O1286 C1311 1.251 . S
O1287 Tb1236 2.362 . S
O1287 Tb1247 2.610 . S
O1287 C1303 1.283 . S
O1288 Tb1236 2.421 . S
O1288 C1310 1.262 . S
O1289 Tb1247 2.320 . S
O1289 C1310 1.260 . S
O1290 Tb1247 2.552 . S
O1290 C1303 1.243 . S
O1291 Tb1247 2.413 . S
O1291 C1311 1.256 . S
C1292 O1281 1.283 . S
C1292 O1284 1.243 . S
C1293 C1295 1.382 . S
C1293 C1297 1.393 . S
C1293 C1300 1.500 . S
C1294 C1295 1.400 . S
C1294 C1296 1.384 . S
C1295 C1293 1.382 . S
C1295 C1294 1.400 . S
C1295 H1312 0.930 . S
C1296 C1294 1.384 . S
C1296 C1298 1.392 . S
C1296 H1313 0.931 . S
C1297 C1293 1.393 . S
C1297 C1298 1.401 . S
C1297 H1314 0.930 . S
C1298 C1296 1.392 . S
C1298 C1297 1.401 . S
C1298 H1315 0.930 . S
C1299 O1282 1.262 . S
C1299 O1283 1.260 . S
C1300 Tb1236 2.833 . S
C1300 O1280 1.251 . S
C1300 O1285 1.256 . S
C1300 C1293 1.500 . S
C1301 H1266 0.929 . S
C1301 C1279 1.444 . S
C1301 C1302 1.317 . S
C1302 H1264 0.930 . S
C1302 C1270 1.432 . S
C1302 C1301 1.317 . S
C1303 O1287 1.283 . S
C1303 O1290 1.243 . S
C1304 C1305 1.382 . S
C1304 C1308 1.393 . S
C1304 C1311 1.500 . S
C1305 C1304 1.382 . S
C1305 C1306 1.400 . S
C1305 H1316 0.930 . S
C1306 C1305 1.400 . S
C1306 C1307 1.384 . S
C1307 C1306 1.384 . S
C1307 C1309 1.392 . S
C1307 H1317 0.931 . S
C1308 C1304 1.393 . S
C1308 C1309 1.401 . S
C1308 H1318 0.930 . S
C1309 C1307 1.392 . S
C1309 C1308 1.401 . S
C1309 H1319 0.930 . S
C1310 O1288 1.262 . S
C1310 O1289 1.260 . S
C1311 Tb1247 2.833 . S
C1311 O1286 1.251 . S
C1311 O1291 1.256 . S
C1311 C1304 1.500 . S
H1312 C1295 0.930 . S
H1313 C1296 0.931 . S
H1314 C1297 0.930 . S
H1315 C1298 0.930 . S
H1316 C1305 0.930 . S
H1317 C1307 0.931 . S
H1318 C1308 0.930 . S
H1319 C1309 0.930 . S
Tb1320 N1351 2.660 . S
Tb1320 N1358 2.600 . S
Tb1320 O1364 2.546 . S
Tb1320 O1365 2.610 . S
Tb1320 O1367 2.320 . S
Tb1320 O1368 2.552 . S
Tb1320 O1369 2.413 . S
Tb1320 O1371 2.362 . S
Tb1320 O1372 2.421 . S
Tb1320 C1384 2.833 . S
C1321 C1324 1.432 . S
C1321 C1325 1.414 . S
C1321 N1328 1.359 . S
C1322 C1324 1.417 . S
C1322 C1326 1.432 . S
C1322 C1334 1.410 . S
C1323 C1325 1.444 . S
C1323 C1326 1.317 . S
C1323 H1346 0.929 . S
C1324 C1321 1.432 . S
C1324 C1322 1.417 . S
C1324 N1332 1.360 . S
C1325 C1321 1.414 . S
C1325 C1323 1.444 . S
C1325 C1330 1.385 . S
C1326 C1322 1.432 . S
C1326 C1323 1.317 . S
C1326 H1338 0.930 . S
C1327 C1329 1.392 . S
C1327 C1330 1.370 . S
C1327 H1339 0.931 . S
N1328 C1321 1.359 . S
N1328 C1329 1.327 . S
N1328 Tb1331 2.600 . S
C1329 C1327 1.392 . S
C1329 N1328 1.327 . S
C1329 H1336 0.930 . S
C1330 C1325 1.385 . S
C1330 C1327 1.370 . S
C1330 H1349 0.930 . S
Tb1331 N1328 2.600 . S
Tb1331 N1332 2.660 . S
Tb1331 O1365 2.362 . S
Tb1331 O1366 2.421 . S
Tb1331 O1370 2.546 . S
Tb1331 O1371 2.610 . S
Tb1331 O1373 2.320 . S
Tb1331 O1374 2.552 . S
Tb1331 O1375 2.413 . S
Tb1331 C1395 2.833 . S
N1332 C1324 1.360 . S
N1332 Tb1331 2.660 . S
N1332 C1333 1.305 . S
C1333 N1332 1.305 . S
C1333 C1335 1.407 . S
C1333 H1340 0.930 . S
C1334 C1322 1.410 . S
C1334 C1335 1.345 . S
C1334 H1342 0.930 . S
C1335 C1333 1.407 . S
C1335 C1334 1.345 . S
C1335 H1337 0.930 . S
H1336 C1329 0.930 . S
H1337 C1335 0.930 . S
H1338 C1326 0.930 . S
H1339 C1327 0.931 . S
H1340 C1333 0.930 . S
H1341 C1355 0.930 . S
H1342 C1334 0.930 . S
H1343 C1361 0.930 . S
H1344 C1352 0.930 . S
H1345 C1359 0.931 . S
H1346 C1323 0.929 . S
H1347 C1353 0.930 . S
H1348 C1386 0.930 . S
H1349 C1330 0.930 . S
H1350 C1385 0.929 . S
N1351 Tb1320 2.660 . S
N1351 C1352 1.305 . S
N1351 C1356 1.360 . S
C1352 H1344 0.930 . S
C1352 N1351 1.305 . S
C1352 C1355 1.407 . S
C1353 H1347 0.930 . S
C1353 C1354 1.410 . S
C1353 C1355 1.345 . S
C1354 C1353 1.410 . S
C1354 C1356 1.417 . S
C1354 C1386 1.432 . S
C1355 H1341 0.930 . S
C1355 C1352 1.407 . S
C1355 C1353 1.345 . S
C1356 N1351 1.360 . S
C1356 C1354 1.417 . S
C1356 C1360 1.432 . S
H1357 C1362 0.930 . S
N1358 Tb1320 2.600 . S
N1358 C1360 1.359 . S
N1358 C1361 1.327 . S
C1359 H1345 0.931 . S
C1359 C1361 1.392 . S
C1359 C1362 1.370 . S
C1360 C1356 1.432 . S
C1360 N1358 1.359 . S
C1360 C1363 1.414 . S
C1361 H1343 0.930 . S
C1361 N1358 1.327 . S
C1361 C1359 1.392 . S
C1362 H1357 0.930 . S
C1362 C1359 1.370 . S
C1362 C1363 1.385 . S
C1363 C1360 1.414 . S
C1363 C1362 1.385 . S
C1363 C1385 1.444 . S
O1364 Tb1320 2.546 . S
O1364 C1384 1.251 . S
O1365 Tb1320 2.610 . S
O1365 Tb1331 2.362 . S
O1365 C1376 1.283 . S
O1366 Tb1331 2.421 . S
O1366 C1383 1.262 . S
O1367 Tb1320 2.320 . S
O1367 C1383 1.260 . S
O1368 Tb1320 2.552 . S
O1368 C1376 1.243 . S
O1369 Tb1320 2.413 . S
O1369 C1384 1.256 . S
O1370 Tb1331 2.546 . S
O1370 C1395 1.251 . S
O1371 Tb1320 2.362 . S
O1371 Tb1331 2.610 . S
O1371 C1387 1.283 . S
O1372 Tb1320 2.421 . S
O1372 C1394 1.262 . S
O1373 Tb1331 2.320 . S
O1373 C1394 1.260 . S
O1374 Tb1331 2.552 . S
O1374 C1387 1.243 . S
O1375 Tb1331 2.413 . S
O1375 C1395 1.256 . S
C1376 O1365 1.283 . S
C1376 O1368 1.243 . S
C1377 C1379 1.382 . S
C1377 C1381 1.393 . S
C1377 C1384 1.500 . S
C1378 C1379 1.400 . S
C1378 C1380 1.384 . S
C1379 C1377 1.382 . S
C1379 C1378 1.400 . S
C1379 H1396 0.930 . S
C1380 C1378 1.384 . S
C1380 C1382 1.392 . S
C1380 H1397 0.931 . S
C1381 C1377 1.393 . S
C1381 C1382 1.401 . S
C1381 H1398 0.930 . S
C1382 C1380 1.392 . S
C1382 C1381 1.401 . S
C1382 H1399 0.930 . S
C1383 O1366 1.262 . S
C1383 O1367 1.260 . S
C1384 Tb1320 2.833 . S
C1384 O1364 1.251 . S
C1384 O1369 1.256 . S
C1384 C1377 1.500 . S
C1385 H1350 0.929 . S
C1385 C1363 1.444 . S
C1385 C1386 1.317 . S
C1386 H1348 0.930 . S
C1386 C1354 1.432 . S
C1386 C1385 1.317 . S
C1387 O1371 1.283 . S
C1387 O1374 1.243 . S
C1388 C1389 1.382 . S
C1388 C1392 1.393 . S
C1388 C1395 1.500 . S
C1389 C1388 1.382 . S
C1389 C1390 1.400 . S
C1389 H1400 0.930 . S
C1390 C1389 1.400 . S
C1390 C1391 1.384 . S
C1391 C1390 1.384 . S
C1391 C1393 1.392 . S
C1391 H1401 0.931 . S
C1392 C1388 1.393 . S
C1392 C1393 1.401 . S
C1392 H1402 0.930 . S
C1393 C1391 1.392 . S
C1393 C1392 1.401 . S
C1393 H1403 0.930 . S
C1394 O1372 1.262 . S
C1394 O1373 1.260 . S
C1395 Tb1331 2.833 . S
C1395 O1370 1.251 . S
C1395 O1375 1.256 . S
C1395 C1388 1.500 . S
H1396 C1379 0.930 . S
H1397 C1380 0.931 . S
H1398 C1381 0.930 . S
H1399 C1382 0.930 . S
H1400 C1389 0.930 . S
H1401 C1391 0.931 . S
H1402 C1392 0.930 . S
H1403 C1393 0.930 . S
Tb1404 N1435 2.660 . S
Tb1404 N1442 2.600 . S
Tb1404 O1448 2.546 . S
Tb1404 O1449 2.610 . S
Tb1404 O1451 2.320 . S
Tb1404 O1452 2.552 . S
Tb1404 O1453 2.413 . S
Tb1404 O1455 2.362 . S
Tb1404 O1456 2.421 . S
Tb1404 C1468 2.833 . S
C1405 C1408 1.432 . S
C1405 C1409 1.414 . S
C1405 N1412 1.359 . S
C1406 C1408 1.417 . S
C1406 C1410 1.432 . S
C1406 C1418 1.410 . S
C1407 C1409 1.444 . S
C1407 C1410 1.317 . S
C1407 H1430 0.929 . S
C1408 C1405 1.432 . S
C1408 C1406 1.417 . S
C1408 N1416 1.360 . S
C1409 C1405 1.414 . S
C1409 C1407 1.444 . S
C1409 C1414 1.385 . S
C1410 C1406 1.432 . S
C1410 C1407 1.317 . S
C1410 H1422 0.930 . S
C1411 C1413 1.392 . S
C1411 C1414 1.370 . S
C1411 H1423 0.931 . S
N1412 C1405 1.359 . S
N1412 C1413 1.327 . S
N1412 Tb1415 2.600 . S
C1413 C1411 1.392 . S
C1413 N1412 1.327 . S
C1413 H1420 0.930 . S
C1414 C1409 1.385 . S
C1414 C1411 1.370 . S
C1414 H1433 0.930 . S
Tb1415 N1412 2.600 . S
Tb1415 N1416 2.660 . S
Tb1415 O1449 2.362 . S
Tb1415 O1450 2.421 . S
Tb1415 O1454 2.546 . S
Tb1415 O1455 2.610 . S
Tb1415 O1457 2.320 . S
Tb1415 O1458 2.552 . S
Tb1415 O1459 2.413 . S
Tb1415 C1479 2.833 . S
N1416 C1408 1.360 . S
N1416 Tb1415 2.660 . S
N1416 C1417 1.305 . S
C1417 N1416 1.305 . S
C1417 C1419 1.407 . S
C1417 H1424 0.930 . S
C1418 C1406 1.410 . S
C1418 C1419 1.345 . S
C1418 H1426 0.930 . S
C1419 C1417 1.407 . S
C1419 C1418 1.345 . S
C1419 H1421 0.930 . S
H1420 C1413 0.930 . S
H1421 C1419 0.930 . S
H1422 C1410 0.930 . S
H1423 C1411 0.931 . S
H1424 C1417 0.930 . S
H1425 C1439 0.930 . S
H1426 C1418 0.930 . S
H1427 C1445 0.930 . S
H1428 C1436 0.930 . S
H1429 C1443 0.931 . S
H1430 C1407 0.929 . S
H1431 C1437 0.930 . S
H1432 C1470 0.930 . S
H1433 C1414 0.930 . S
H1434 C1469 0.929 . S
N1435 Tb1404 2.660 . S
N1435 C1436 1.305 . S
N1435 C1440 1.360 . S
C1436 H1428 0.930 . S
C1436 N1435 1.305 . S
C1436 C1439 1.407 . S
C1437 H1431 0.930 . S
C1437 C1438 1.410 . S
C1437 C1439 1.345 . S
C1438 C1437 1.410 . S
C1438 C1440 1.417 . S
C1438 C1470 1.432 . S
C1439 H1425 0.930 . S
C1439 C1436 1.407 . S
C1439 C1437 1.345 . S
C1440 N1435 1.360 . S
C1440 C1438 1.417 . S
C1440 C1444 1.432 . S
H1441 C1446 0.930 . S
N1442 Tb1404 2.600 . S
N1442 C1444 1.359 . S
N1442 C1445 1.327 . S
C1443 H1429 0.931 . S
C1443 C1445 1.392 . S
C1443 C1446 1.370 . S
C1444 C1440 1.432 . S
C1444 N1442 1.359 . S
C1444 C1447 1.414 . S
C1445 H1427 0.930 . S
C1445 N1442 1.327 . S
C1445 C1443 1.392 . S
C1446 H1441 0.930 . S
C1446 C1443 1.370 . S
C1446 C1447 1.385 . S
C1447 C1444 1.414 . S
C1447 C1446 1.385 . S
C1447 C1469 1.444 . S
O1448 Tb1404 2.546 . S
O1448 C1468 1.251 . S
O1449 Tb1404 2.610 . S
O1449 Tb1415 2.362 . S
O1449 C1460 1.283 . S
O1450 Tb1415 2.421 . S
O1450 C1467 1.262 . S
O1451 Tb1404 2.320 . S
O1451 C1467 1.260 . S
O1452 Tb1404 2.552 . S
O1452 C1460 1.243 . S
O1453 Tb1404 2.413 . S
O1453 C1468 1.256 . S
O1454 Tb1415 2.546 . S
O1454 C1479 1.251 . S
O1455 Tb1404 2.362 . S
O1455 Tb1415 2.610 . S
O1455 C1471 1.283 . S
O1456 Tb1404 2.421 . S
O1456 C1478 1.262 . S
O1457 Tb1415 2.320 . S
O1457 C1478 1.260 . S
O1458 Tb1415 2.552 . S
O1458 C1471 1.243 . S
O1459 Tb1415 2.413 . S
O1459 C1479 1.256 . S
C1460 O1449 1.283 . S
C1460 O1452 1.243 . S
C1461 C1463 1.382 . S
C1461 C1465 1.393 . S
C1461 C1468 1.500 . S
C1462 C1463 1.400 . S
C1462 C1464 1.384 . S
C1463 C1461 1.382 . S
C1463 C1462 1.400 . S
C1463 H1480 0.930 . S
C1464 C1462 1.384 . S
C1464 C1466 1.392 . S
C1464 H1481 0.931 . S
C1465 C1461 1.393 . S
C1465 C1466 1.401 . S
C1465 H1482 0.930 . S
C1466 C1464 1.392 . S
C1466 C1465 1.401 . S
C1466 H1483 0.930 . S
C1467 O1450 1.262 . S
C1467 O1451 1.260 . S
C1468 Tb1404 2.833 . S
C1468 O1448 1.251 . S
C1468 O1453 1.256 . S
C1468 C1461 1.500 . S
C1469 H1434 0.929 . S
C1469 C1447 1.444 . S
C1469 C1470 1.317 . S
C1470 H1432 0.930 . S
C1470 C1438 1.432 . S
C1470 C1469 1.317 . S
C1471 O1455 1.283 . S
C1471 O1458 1.243 . S
C1472 C1473 1.382 . S
C1472 C1476 1.393 . S
C1472 C1479 1.500 . S
C1473 C1472 1.382 . S
C1473 C1474 1.400 . S
C1473 H1484 0.930 . S
C1474 C1473 1.400 . S
C1474 C1475 1.384 . S
C1475 C1474 1.384 . S
C1475 C1477 1.392 . S
C1475 H1485 0.931 . S
C1476 C1472 1.393 . S
C1476 C1477 1.401 . S
C1476 H1486 0.930 . S
C1477 C1475 1.392 . S
C1477 C1476 1.401 . S
C1477 H1487 0.930 . S
C1478 O1456 1.262 . S
C1478 O1457 1.260 . S
C1479 Tb1415 2.833 . S
C1479 O1454 1.251 . S
C1479 O1459 1.256 . S
C1479 C1472 1.500 . S
H1480 C1463 0.930 . S
H1481 C1464 0.931 . S
H1482 C1465 0.930 . S
H1483 C1466 0.930 . S
H1484 C1473 0.930 . S
H1485 C1475 0.931 . S
H1486 C1476 0.930 . S
H1487 C1477 0.930 . S
Tb1488 N1519 2.660 . S
Tb1488 N1526 2.600 . S
Tb1488 O1532 2.546 . S
Tb1488 O1533 2.610 . S
Tb1488 O1535 2.320 . S
Tb1488 O1536 2.552 . S
Tb1488 O1537 2.413 . S
Tb1488 O1539 2.362 . S
Tb1488 O1540 2.421 . S
Tb1488 C1552 2.833 . S
C1489 C1492 1.432 . S
C1489 C1493 1.414 . S
C1489 N1496 1.359 . S
C1490 C1492 1.417 . S
C1490 C1494 1.432 . S
C1490 C1502 1.410 . S
C1491 C1493 1.444 . S
C1491 C1494 1.317 . S
C1491 H1514 0.929 . S
C1492 C1489 1.432 . S
C1492 C1490 1.417 . S
C1492 N1500 1.360 . S
C1493 C1489 1.414 . S
C1493 C1491 1.444 . S
C1493 C1498 1.385 . S
C1494 C1490 1.432 . S
C1494 C1491 1.317 . S
C1494 H1506 0.930 . S
C1495 C1497 1.392 . S
C1495 C1498 1.370 . S
C1495 H1507 0.931 . S
N1496 C1489 1.359 . S
N1496 C1497 1.327 . S
N1496 Tb1499 2.600 . S
C1497 C1495 1.392 . S
C1497 N1496 1.327 . S
C1497 H1504 0.930 . S
C1498 C1493 1.385 . S
C1498 C1495 1.370 . S
C1498 H1517 0.930 . S
Tb1499 N1496 2.600 . S
Tb1499 N1500 2.660 . S
Tb1499 O1533 2.362 . S
Tb1499 O1534 2.421 . S
Tb1499 O1538 2.546 . S
Tb1499 O1539 2.610 . S
Tb1499 O1541 2.320 . S
Tb1499 O1542 2.552 . S
Tb1499 O1543 2.413 . S
Tb1499 C1563 2.833 . S
N1500 C1492 1.360 . S
N1500 Tb1499 2.660 . S
N1500 C1501 1.305 . S
C1501 N1500 1.305 . S
C1501 C1503 1.407 . S
C1501 H1508 0.930 . S
C1502 C1490 1.410 . S
C1502 C1503 1.345 . S
C1502 H1510 0.930 . S
C1503 C1501 1.407 . S
C1503 C1502 1.345 . S
C1503 H1505 0.930 . S
H1504 C1497 0.930 . S
H1505 C1503 0.930 . S
H1506 C1494 0.930 . S
H1507 C1495 0.931 . S
H1508 C1501 0.930 . S
H1509 C1523 0.930 . S
H1510 C1502 0.930 . S
H1511 C1529 0.930 . S
H1512 C1520 0.930 . S
H1513 C1527 0.931 . S
H1514 C1491 0.929 . S
H1515 C1521 0.930 . S
H1516 C1554 0.930 . S
H1517 C1498 0.930 . S
H1518 C1553 0.929 . S
N1519 Tb1488 2.660 . S
N1519 C1520 1.305 . S
N1519 C1524 1.360 . S
C1520 H1512 0.930 . S
C1520 N1519 1.305 . S
C1520 C1523 1.407 . S
C1521 H1515 0.930 . S
C1521 C1522 1.410 . S
C1521 C1523 1.345 . S
C1522 C1521 1.410 . S
C1522 C1524 1.417 . S
C1522 C1554 1.432 . S
C1523 H1509 0.930 . S
C1523 C1520 1.407 . S
C1523 C1521 1.345 . S
C1524 N1519 1.360 . S
C1524 C1522 1.417 . S
C1524 C1528 1.432 . S
H1525 C1530 0.930 . S
N1526 Tb1488 2.600 . S
N1526 C1528 1.359 . S
N1526 C1529 1.327 . S
C1527 H1513 0.931 . S
C1527 C1529 1.392 . S
C1527 C1530 1.370 . S
C1528 C1524 1.432 . S
C1528 N1526 1.359 . S
C1528 C1531 1.414 . S
C1529 H1511 0.930 . S
C1529 N1526 1.327 . S
C1529 C1527 1.392 . S
C1530 H1525 0.930 . S
C1530 C1527 1.370 . S
C1530 C1531 1.385 . S
C1531 C1528 1.414 . S
C1531 C1530 1.385 . S
C1531 C1553 1.444 . S
O1532 Tb1488 2.546 . S
O1532 C1552 1.251 . S
O1533 Tb1488 2.610 . S
O1533 Tb1499 2.362 . S
O1533 C1544 1.283 . S
O1534 Tb1499 2.421 . S
O1534 C1551 1.262 . S
O1535 Tb1488 2.320 . S
O1535 C1551 1.260 . S
O1536 Tb1488 2.552 . S
O1536 C1544 1.243 . S
O1537 Tb1488 2.413 . S
O1537 C1552 1.256 . S
O1538 Tb1499 2.546 . S
O1538 C1563 1.251 . S
O1539 Tb1488 2.362 . S
O1539 Tb1499 2.610 . S
O1539 C1555 1.283 . S
O1540 Tb1488 2.421 . S
O1540 C1562 1.262 . S
O1541 Tb1499 2.320 . S
O1541 C1562 1.260 . S
O1542 Tb1499 2.552 . S
O1542 C1555 1.243 . S
O1543 Tb1499 2.413 . S
O1543 C1563 1.256 . S
C1544 O1533 1.283 . S
C1544 O1536 1.243 . S
C1545 C1547 1.382 . S
C1545 C1549 1.393 . S
C1545 C1552 1.500 . S
C1546 C1547 1.400 . S
C1546 C1548 1.384 . S
C1547 C1545 1.382 . S
C1547 C1546 1.400 . S
C1547 H1564 0.930 . S
C1548 C1546 1.384 . S
C1548 C1550 1.392 . S
C1548 H1565 0.931 . S
C1549 C1545 1.393 . S
C1549 C1550 1.401 . S
C1549 H1566 0.930 . S
C1550 C1548 1.392 . S
C1550 C1549 1.401 . S
C1550 H1567 0.930 . S
C1551 O1534 1.262 . S
C1551 O1535 1.260 . S
C1552 Tb1488 2.833 . S
C1552 O1532 1.251 . S
C1552 O1537 1.256 . S
C1552 C1545 1.500 . S
C1553 H1518 0.929 . S
C1553 C1531 1.444 . S
C1553 C1554 1.317 . S
C1554 H1516 0.930 . S
C1554 C1522 1.432 . S
C1554 C1553 1.317 . S
C1555 O1539 1.283 . S
C1555 O1542 1.243 . S
C1556 C1557 1.382 . S
C1556 C1560 1.393 . S
C1556 C1563 1.500 . S
C1557 C1556 1.382 . S
C1557 C1558 1.400 . S
C1557 H1568 0.930 . S
C1558 C1557 1.400 . S
C1558 C1559 1.384 . S
C1559 C1558 1.384 . S
C1559 C1561 1.392 . S
C1559 H1569 0.931 . S
C1560 C1556 1.393 . S
C1560 C1561 1.401 . S
C1560 H1570 0.930 . S
C1561 C1559 1.392 . S
C1561 C1560 1.401 . S
C1561 H1571 0.930 . S
C1562 O1540 1.262 . S
C1562 O1541 1.260 . S
C1563 Tb1499 2.833 . S
C1563 O1538 1.251 . S
C1563 O1543 1.256 . S
C1563 C1556 1.500 . S
H1564 C1547 0.930 . S
H1565 C1548 0.931 . S
H1566 C1549 0.930 . S
H1567 C1550 0.930 . S
H1568 C1557 0.930 . S
H1569 C1559 0.931 . S
H1570 C1560 0.930 . S
H1571 C1561 0.930 . S
Tb1572 N1603 2.660 . S
Tb1572 N1610 2.600 1_554 S
Tb1572 O1616 2.546 1_554 S
Tb1572 O1617 2.610 . S
Tb1572 O1619 2.320 . S
Tb1572 O1620 2.552 1_554 S
Tb1572 O1621 2.413 . S
Tb1572 O1623 2.362 . S
Tb1572 O1624 2.421 1_554 S
Tb1572 C1636 2.833 1_554 S
C1573 C1576 1.432 1_455 S
C1573 C1577 1.414 1_455 S
C1573 N1580 1.359 . S
C1574 C1576 1.417 . S
C1574 C1578 1.432 . S
C1574 C1586 1.410 1_554 S
C1575 C1577 1.444 . S
C1575 C1578 1.317 . S
C1575 H1598 0.929 . S
C1576 C1573 1.432 1_655 S
C1576 C1574 1.417 . S
C1576 N1584 1.360 1_655 S
C1577 C1573 1.414 1_655 S
C1577 C1575 1.444 . S
C1577 C1582 1.385 . S
C1578 C1574 1.432 . S
C1578 C1575 1.317 . S
C1578 H1590 0.930 . S
C1579 C1581 1.392 . S
C1579 C1582 1.370 1_455 S
C1579 H1591 0.931 . S
N1580 C1573 1.359 . S
N1580 C1581 1.327 . S
N1580 Tb1583 2.600 . S
C1581 C1579 1.392 . S
C1581 N1580 1.327 . S
C1581 H1588 0.930 . S
C1582 C1577 1.385 . S
C1582 C1579 1.370 1_655 S
C1582 H1601 0.930 . S
Tb1583 N1580 2.600 . S
Tb1583 N1584 2.660 . S
Tb1583 O1617 2.362 . S
Tb1583 O1618 2.421 . S
Tb1583 O1622 2.546 . S
Tb1583 O1623 2.610 . S
Tb1583 O1625 2.320 1_554 S
Tb1583 O1626 2.552 . S
Tb1583 O1627 2.375 1_455 S
Tb1583 C1647 2.833 1_455 S
N1584 C1576 1.360 1_455 S
N1584 Tb1583 2.660 . S
N1584 C1585 1.305 1_554 S
C1585 N1584 1.305 1_556 S
C1585 C1587 1.407 1_455 S
C1585 H1592 0.930 . S
C1586 C1574 1.410 1_556 S
C1586 C1587 1.345 . S
C1586 H1594 0.930 . S
C1587 C1585 1.407 1_655 S
C1587 C1586 1.345 . S
C1587 H1589 0.930 . S
H1588 C1581 0.930 . S
H1589 C1587 0.930 . S
H1590 C1578 0.930 . S
H1591 C1579 0.931 . S
H1592 C1585 0.930 . S
H1593 C1607 0.930 . S
H1594 C1586 0.930 . S
H1595 C1613 0.930 . S
H1596 C1604 0.930 . S
H1597 C1611 0.931 . S
H1598 C1575 0.929 . S
H1599 C1605 0.930 . S
H1600 C1638 0.930 . S
H1601 C1582 0.930 . S
H1602 C1637 0.929 . S
N1603 Tb1572 2.660 . S
N1603 C1604 1.305 . S
N1603 C1608 1.360 . S
C1604 H1596 0.930 . S
C1604 N1603 1.305 . S
C1604 C1607 1.407 . S
C1605 H1599 0.930 . S
C1605 C1606 1.410 . S
C1605 C1607 1.345 . S
C1606 C1605 1.410 . S
C1606 C1608 1.417 . S
C1606 C1638 1.432 . S
C1607 H1593 0.930 . S
C1607 C1604 1.407 . S
C1607 C1605 1.345 . S
C1608 N1603 1.360 . S
C1608 C1606 1.417 . S
C1608 C1612 1.432 1_554 S
H1609 C1614 0.930 . S
N1610 Tb1572 2.600 1_556 S
N1610 C1612 1.359 . S
N1610 C1613 1.327 . S
C1611 H1597 0.931 . S
C1611 C1613 1.392 . S
C1611 C1614 1.370 . S
C1612 C1608 1.432 1_556 S
C1612 N1610 1.359 . S
C1612 C1615 1.414 . S
C1613 H1595 0.930 . S
C1613 N1610 1.327 . S
C1613 C1611 1.392 . S
C1614 H1609 0.930 . S
C1614 C1611 1.370 . S
C1614 C1615 1.385 . S
C1615 C1612 1.414 . S
C1615 C1614 1.385 . S
C1615 C1637 1.444 . S
O1616 Tb1572 2.546 1_556 S
O1616 C1636 1.251 . S
O1617 Tb1572 2.610 . S
O1617 Tb1583 2.362 . S
O1617 C1628 1.283 . S
O1618 Tb1583 2.421 . S
O1618 C1635 1.262 . S
O1619 Tb1572 2.320 . S
O1619 C1635 1.260 . S
O1620 Tb1572 2.552 1_556 S
O1620 C1628 1.243 1_556 S
O1621 Tb1572 2.413 . S
O1621 C1636 1.256 1_554 S
O1622 Tb1583 2.546 . S
O1622 C1647 1.251 1_455 S
O1623 Tb1572 2.362 . S
O1623 Tb1583 2.610 . S
O1623 C1639 1.283 . S
O1624 Tb1572 2.421 1_556 S
O1624 C1646 1.262 . S
O1625 Tb1583 2.320 1_556 S
O1625 C1646 1.260 . S
O1626 Tb1583 2.552 . S
O1626 C1639 1.243 . S
O1627 Tb1583 2.375 1_655 S
O1627 C1647 1.266 . S
C1628 O1617 1.283 . S
C1628 O1620 1.243 1_554 S
C1629 C1631 1.382 1_556 S
C1629 C1633 1.393 . S
C1629 C1636 1.500 . S
C1630 C1631 1.400 1_556 S
C1630 C1632 1.384 . S
C1631 C1629 1.382 1_554 S
C1631 C1630 1.400 1_554 S
C1631 H1648 0.930 . S
C1632 C1630 1.384 . S
C1632 C1634 1.392 . S
C1632 H1649 0.931 . S
C1633 C1629 1.393 . S
C1633 C1634 1.401 . S
C1633 H1650 0.930 . S
C1634 C1632 1.392 . S
C1634 C1633 1.401 . S
C1634 H1651 0.930 . S
C1635 O1618 1.262 . S
C1635 O1619 1.260 . S
C1636 Tb1572 2.833 1_556 S
C1636 O1616 1.251 . S
C1636 O1621 1.256 1_556 S
C1636 C1629 1.500 . S
C1637 H1602 0.929 . S
C1637 C1615 1.444 . S
C1637 C1638 1.317 1_556 S
C1638 H1600 0.930 . S
C1638 C1606 1.432 . S
C1638 C1637 1.317 1_554 S
C1639 O1623 1.283 . S
C1639 O1626 1.243 . S
C1640 C1641 1.382 . S
C1640 C1644 1.393 . S
C1640 C1647 1.500 . S
C1641 C1640 1.382 . S
C1641 C1642 1.400 . S
C1641 H1652 0.930 . S
C1642 C1641 1.400 . S
C1642 C1643 1.384 . S
C1643 C1642 1.384 . S
C1643 C1645 1.392 . S
C1643 H1653 0.931 . S
C1644 C1640 1.393 . S
C1644 C1645 1.401 . S
C1644 H1654 0.930 . S
C1645 C1643 1.392 . S
C1645 C1644 1.401 . S
C1645 H1655 0.930 . S
C1646 O1624 1.262 . S
C1646 O1625 1.260 . S
C1647 Tb1583 2.833 1_655 S
C1647 O1622 1.251 1_655 S
C1647 O1627 1.266 . S
C1647 C1640 1.500 . S
H1648 C1631 0.930 . S
H1649 C1632 0.931 . S
H1650 C1633 0.930 . S
H1651 C1634 0.930 . S
H1652 C1641 0.930 . S
H1653 C1643 0.931 . S
H1654 C1644 0.930 . S
H1655 C1645 0.930 . S
H1656 C1674 0.951 . S
H1657 C1676 0.951 1_554 S
H1658 C1678 0.950 . S
H1659 C1679 0.950 . S
H1660 C1681 0.950 . S
H1661 C1684 0.950 . S
H1662 C1685 0.950 . S
H1663 C1687 0.950 . S
H1664 C1688 0.950 . S
H1665 C1689 0.951 . S
H1666 C1691 0.951 . S
H1667 C1693 0.950 . S
H1668 C1694 0.950 . S
H1669 C1696 0.953 . S
H1670 C1699 0.950 . S
H1671 C1700 0.950 . S
H1672 C1702 0.950 . S
H1673 C1703 0.950 1_455 S
C1674 H1656 0.951 . S
C1674 C1675 1.366 . S
C1674 C1676 1.388 . S
C1675 C1674 1.366 . S
C1675 C1679 1.385 . S
C1676 H1657 0.951 1_556 S
C1676 C1674 1.388 . S
C1676 C1677 1.366 . S
C1677 C1676 1.366 . S
C1677 C1678 1.414 . S
C1677 C1680 1.499 . S
C1678 H1658 0.950 . S
C1678 C1677 1.414 . S
C1678 C1679 1.374 . S
C1679 H1659 0.950 . S
C1679 C1675 1.385 . S
C1679 C1678 1.374 . S
C1680 C1677 1.499 . S
C1680 C1681 1.373 . S
C1680 C1682 1.389 . S
C1681 H1660 0.950 . S
C1681 C1680 1.373 . S
C1681 C1697 1.377 . S
C1682 C1680 1.389 . S
C1682 C1683 1.524 1_556 S
C1682 C1696 1.374 1_556 S
C1683 C1682 1.524 1_554 S
C1683 C1684 1.397 1_554 S
C1683 C1688 1.363 . S
C1684 H1661 0.950 . S
C1684 C1683 1.397 1_556 S
C1684 C1685 1.334 . S
C1685 H1662 0.950 . S
C1685 C1684 1.334 . S
C1685 C1686 1.287 1_556 S
C1686 C1685 1.287 1_554 S
C1686 C1687 1.524 . S
C1686 H1705 0.913 . S
C1687 H1663 0.950 . S
C1687 C1686 1.524 . S
C1687 C1688 1.415 . S
C1688 H1664 0.950 . S
C1688 C1683 1.363 . S
C1688 C1687 1.415 . S
C1689 H1665 0.951 . S
C1689 C1690 1.366 1_556 S
C1689 C1691 1.388 . S
C1690 C1689 1.366 1_554 S
C1690 C1694 1.385 . S
C1691 H1666 0.951 . S
C1691 C1689 1.388 . S
C1691 C1692 1.366 . S
C1692 C1691 1.366 . S
C1692 C1693 1.414 1_556 S
C1692 C1695 1.499 . S
C1693 H1667 0.950 . S
C1693 C1692 1.414 1_554 S
C1693 C1694 1.374 . S
C1694 H1668 0.950 . S
C1694 C1690 1.385 . S
C1694 C1693 1.374 . S
C1695 C1692 1.499 . S
C1695 C1696 1.372 1_556 S
C1695 C1697 1.389 . S
C1696 H1669 0.953 . S
C1696 C1682 1.374 1_554 S
C1696 C1695 1.372 1_554 S
C1697 C1681 1.377 . S
C1697 C1695 1.389 . S
C1697 C1698 1.524 . S
C1698 C1697 1.524 . S
C1698 C1699 1.397 1_455 S
C1698 C1703 1.363 1_455 S
C1699 H1670 0.950 . S
C1699 C1698 1.397 1_655 S
C1699 C1700 1.334 . S
C1700 H1671 0.950 . S
C1700 C1699 1.334 . S
C1700 C1701 1.287 . S
C1701 C1700 1.287 . S
C1701 C1702 1.524 . S
C1701 H1704 0.999 . S
C1702 H1672 0.950 . S
C1702 C1701 1.524 . S
C1702 C1703 1.415 . S
C1703 H1673 0.950 1_655 S
C1703 C1698 1.363 1_655 S
C1703 C1702 1.415 . S
H1704 C1701 0.999 . S
H1705 C1686 0.913 . S
H1706 C1724 0.951 . S
H1707 C1726 0.951 . S
H1708 C1728 0.950 . S
H1709 C1729 0.950 . S
H1710 C1731 0.950 . S
H1711 C1734 0.950 . S
H1712 C1735 0.950 . S
H1713 C1737 0.950 . S
H1714 C1738 0.950 . S
H1715 C1739 0.951 . S
H1716 C1741 0.951 . S
H1717 C1743 0.950 . S
H1718 C1744 0.950 . S
H1719 C1746 0.950 . S
H1720 C1749 0.950 . S
H1721 C1750 0.950 . S
H1722 C1752 0.950 . S
H1723 C1753 0.950 . S
C1724 H1706 0.951 . S
C1724 C1725 1.366 . S
C1724 C1726 1.388 . S
C1725 C1724 1.366 . S
C1725 C1729 1.385 . S
C1726 H1707 0.951 . S
C1726 C1724 1.388 . S
C1726 C1727 1.366 . S
C1727 C1726 1.366 . S
C1727 C1728 1.414 . S
C1727 C1730 1.499 . S
C1728 H1708 0.950 . S
C1728 C1727 1.414 . S
C1728 C1729 1.374 . S
C1729 H1709 0.950 . S
C1729 C1725 1.385 . S
C1729 C1728 1.374 . S
C1730 C1727 1.499 . S
C1730 C1731 1.373 . S
C1730 C1732 1.389 . S
C1731 H1710 0.950 . S
C1731 C1730 1.373 . S
C1731 C1747 1.377 . S
C1732 C1730 1.389 . S
C1732 C1733 1.524 . S
C1732 C1746 1.377 . S
C1733 C1732 1.524 . S
C1733 C1734 1.397 . S
C1733 C1738 1.363 . S
C1734 H1711 0.950 . S
C1734 C1733 1.397 . S
C1734 C1735 1.334 . S
C1735 H1712 0.950 . S
C1735 C1734 1.334 . S
C1735 C1736 1.287 . S
C1736 C1735 1.287 . S
C1736 C1737 1.524 . S
C1736 H1755 0.913 . S
C1737 H1713 0.950 . S
C1737 C1736 1.524 . S
C1737 C1738 1.415 . S
C1738 H1714 0.950 . S
C1738 C1733 1.363 . S
C1738 C1737 1.415 . S
C1739 H1715 0.951 . S
C1739 C1740 1.366 . S
C1739 C1741 1.388 . S
C1740 C1739 1.366 . S
C1740 C1744 1.385 . S
C1741 H1716 0.951 . S
C1741 C1739 1.388 . S
C1741 C1742 1.366 . S
C1742 C1741 1.366 . S
C1742 C1743 1.414 . S
C1742 C1745 1.499 . S
C1743 H1717 0.950 . S
C1743 C1742 1.414 . S
C1743 C1744 1.374 . S
C1744 H1718 0.950 . S
C1744 C1740 1.385 . S
C1744 C1743 1.374 . S
C1745 C1742 1.499 . S
C1745 C1746 1.373 . S
C1745 C1747 1.389 . S
C1746 H1719 0.950 . S
C1746 C1732 1.377 . S
C1746 C1745 1.373 . S
C1747 C1731 1.377 . S
C1747 C1745 1.389 . S
C1747 C1748 1.524 . S
C1748 C1747 1.524 . S
C1748 C1749 1.397 . S
C1748 C1753 1.363 . S
C1749 H1720 0.950 . S
C1749 C1748 1.397 . S
C1749 C1750 1.334 . S
C1750 H1721 0.950 . S
C1750 C1749 1.334 . S
C1750 C1751 1.287 . S
C1751 C1750 1.287 . S
C1751 C1752 1.524 . S
C1751 H1754 0.999 . S
C1752 H1722 0.950 . S
C1752 C1751 1.524 . S
C1752 C1753 1.415 . S
C1753 H1723 0.950 . S
C1753 C1748 1.363 . S
C1753 C1752 1.415 . S
H1754 C1751 0.999 . S
H1755 C1736 0.913 . S
H1756 C1774 0.951 . S
H1757 C1776 0.951 . S
H1758 C1778 0.950 . S
H1759 C1779 0.950 . S
H1760 C1781 0.950 . S
H1761 C1784 0.950 . S
H1762 C1785 0.950 . S
H1763 C1787 0.950 . S
H1764 C1788 0.950 . S
H1765 C1789 0.951 . S
H1766 C1791 0.951 . S
H1767 C1793 0.950 . S
H1768 C1794 0.950 . S
H1769 C1796 0.950 . S
H1770 C1799 0.950 . S
H1771 C1800 0.950 . S
H1772 C1802 0.950 . S
H1773 C1803 0.950 . S
C1774 H1756 0.951 . S
C1774 C1775 1.366 . S
C1774 C1776 1.388 . S
C1775 C1774 1.366 . S
C1775 C1779 1.385 . S
C1776 H1757 0.951 . S
C1776 C1774 1.388 . S
C1776 C1777 1.366 . S
C1777 C1776 1.366 . S
C1777 C1778 1.414 . S
C1777 C1780 1.499 . S
C1778 H1758 0.950 . S
C1778 C1777 1.414 . S
C1778 C1779 1.374 . S
C1779 H1759 0.950 . S
C1779 C1775 1.385 . S
C1779 C1778 1.374 . S
C1780 C1777 1.499 . S
C1780 C1781 1.373 . S
C1780 C1782 1.389 . S
C1781 H1760 0.950 . S
C1781 C1780 1.373 . S
C1781 C1797 1.377 . S
C1782 C1780 1.389 . S
C1782 C1783 1.524 . S
C1782 C1796 1.377 . S
C1783 C1782 1.524 . S
C1783 C1784 1.397 . S
C1783 C1788 1.363 . S
C1784 H1761 0.950 . S
C1784 C1783 1.397 . S
C1784 C1785 1.334 . S
C1785 H1762 0.950 . S
C1785 C1784 1.334 . S
C1785 C1786 1.287 . S
C1786 C1785 1.287 . S
C1786 C1787 1.524 . S
C1786 H1805 0.913 . S
C1787 H1763 0.950 . S
C1787 C1786 1.524 . S
C1787 C1788 1.415 . S
C1788 H1764 0.950 . S
C1788 C1783 1.363 . S
C1788 C1787 1.415 . S
C1789 H1765 0.951 . S
C1789 C1790 1.366 . S
C1789 C1791 1.388 . S
C1790 C1789 1.366 . S
C1790 C1794 1.385 . S
C1791 H1766 0.951 . S
C1791 C1789 1.388 . S
C1791 C1792 1.366 . S
C1792 C1791 1.366 . S
C1792 C1793 1.414 . S
C1792 C1795 1.499 . S
C1793 H1767 0.950 . S
C1793 C1792 1.414 . S
C1793 C1794 1.374 . S
C1794 H1768 0.950 . S
C1794 C1790 1.385 . S
C1794 C1793 1.374 . S
C1795 C1792 1.499 . S
C1795 C1796 1.373 . S
C1795 C1797 1.389 . S
C1796 H1769 0.950 . S
C1796 C1782 1.377 . S
C1796 C1795 1.373 . S
C1797 C1781 1.377 . S
C1797 C1795 1.389 . S
C1797 C1798 1.524 . S
C1798 C1797 1.524 . S
C1798 C1799 1.397 . S
C1798 C1803 1.363 . S
C1799 H1770 0.950 . S
C1799 C1798 1.397 . S
C1799 C1800 1.334 . S
C1800 H1771 0.950 . S
C1800 C1799 1.334 . S
C1800 C1801 1.287 . S
C1801 C1800 1.287 . S
C1801 C1802 1.524 . S
C1801 H1804 0.999 . S
C1802 H1772 0.950 . S
C1802 C1801 1.524 . S
C1802 C1803 1.415 . S
C1803 H1773 0.950 . S
C1803 C1798 1.363 . S
C1803 C1802 1.415 . S
H1804 C1801 0.999 . S
H1805 C1786 0.913 . S
H1806 C1824 0.951 . S
H1807 C1826 0.951 . S
H1808 C1828 0.950 . S
H1809 C1829 0.950 . S
H1810 C1831 0.950 . S
H1811 C1834 0.950 . S
H1812 C1835 0.950 . S
H1813 C1837 0.950 . S
H1814 C1838 0.950 . S
H1815 C1839 0.951 . S
H1816 C1841 0.951 . S
H1817 C1843 0.950 . S
H1818 C1844 0.950 . S
H1819 C1846 0.950 . S
H1820 C1849 0.950 . S
H1821 C1850 0.950 . S
H1822 C1852 0.950 . S
H1823 C1853 0.950 . S
C1824 H1806 0.951 . S
C1824 C1825 1.366 . S
C1824 C1826 1.388 . S
C1825 C1824 1.366 . S
C1825 C1829 1.385 . S
C1826 H1807 0.951 . S
C1826 C1824 1.388 . S
C1826 C1827 1.366 . S
C1827 C1826 1.366 . S
C1827 C1828 1.414 . S
C1827 C1830 1.499 . S
C1828 H1808 0.950 . S
C1828 C1827 1.414 . S
C1828 C1829 1.374 . S
C1829 H1809 0.950 . S
C1829 C1825 1.385 . S
C1829 C1828 1.374 . S
C1830 C1827 1.499 . S
C1830 C1831 1.373 . S
C1830 C1832 1.389 . S
C1831 H1810 0.950 . S
C1831 C1830 1.373 . S
C1831 C1847 1.377 . S
C1832 C1830 1.389 . S
C1832 C1833 1.524 . S
C1832 C1846 1.377 . S
C1833 C1832 1.524 . S
C1833 C1834 1.397 . S
C1833 C1838 1.363 . S
C1834 H1811 0.950 . S
C1834 C1833 1.397 . S
C1834 C1835 1.334 . S
C1835 H1812 0.950 . S
C1835 C1834 1.334 . S
C1835 C1836 1.287 . S
C1836 C1835 1.287 . S
C1836 C1837 1.524 . S
C1836 H1855 0.913 . S
C1837 H1813 0.950 . S
C1837 C1836 1.524 . S
C1837 C1838 1.415 . S
C1838 H1814 0.950 . S
C1838 C1833 1.363 . S
C1838 C1837 1.415 . S
C1839 H1815 0.951 . S
C1839 C1840 1.366 . S
C1839 C1841 1.388 . S
C1840 C1839 1.366 . S
C1840 C1844 1.385 . S
C1841 H1816 0.951 . S
C1841 C1839 1.388 . S
C1841 C1842 1.366 . S
C1842 C1841 1.366 . S
C1842 C1843 1.414 . S
C1842 C1845 1.499 . S
C1843 H1817 0.950 . S
C1843 C1842 1.414 . S
C1843 C1844 1.374 . S
C1844 H1818 0.950 . S
C1844 C1840 1.385 . S
C1844 C1843 1.374 . S
C1845 C1842 1.499 . S
C1845 C1846 1.373 . S
C1845 C1847 1.389 . S
C1846 H1819 0.950 . S
C1846 C1832 1.377 . S
C1846 C1845 1.373 . S
C1847 C1831 1.377 . S
C1847 C1845 1.389 . S
C1847 C1848 1.524 . S
C1848 C1847 1.524 . S
C1848 C1849 1.397 . S
C1848 C1853 1.363 . S
C1849 H1820 0.950 . S
C1849 C1848 1.397 . S
C1849 C1850 1.334 . S
C1850 H1821 0.950 . S
C1850 C1849 1.334 . S
C1850 C1851 1.287 . S
C1851 C1850 1.287 . S
C1851 C1852 1.524 . S
C1851 H1854 0.999 . S
C1852 H1822 0.950 . S
C1852 C1851 1.524 . S
C1852 C1853 1.415 . S
C1853 H1823 0.950 . S
C1853 C1848 1.363 . S
C1853 C1852 1.415 . S
H1854 C1851 0.999 . S
H1855 C1836 0.913 . S
H1856 C1874 0.951 . S
H1857 C1876 0.951 . S
H1858 C1878 0.950 . S
H1859 C1879 0.950 1_655 S
H1860 C1881 0.950 . S
H1861 C1884 0.950 . S
H1862 C1885 0.950 . S
H1863 C1887 0.950 . S
H1864 C1888 0.950 . S
H1865 C1889 0.951 . S
H1866 C1891 0.951 . S
H1867 C1893 0.950 . S
H1868 C1894 0.950 . S
H1869 C1896 0.950 . S
H1870 C1899 0.950 . S
H1871 C1900 0.950 . S
H1872 C1902 0.950 . S
H1873 C1903 0.950 . S
C1874 H1856 0.951 . S
C1874 C1875 1.366 . S
C1874 C1876 1.388 . S
C1875 C1874 1.366 . S
C1875 C1879 1.385 . S
C1876 H1857 0.951 . S
C1876 C1874 1.388 . S
C1876 C1877 1.366 . S
C1877 C1876 1.366 . S
C1877 C1878 1.414 . S
C1877 C1880 1.499 . S
C1878 H1858 0.950 . S
C1878 C1877 1.414 . S
C1878 C1879 1.374 . S
C1879 H1859 0.950 1_455 S
C1879 C1875 1.385 . S
C1879 C1878 1.374 . S
C1880 C1877 1.499 . S
C1880 C1881 1.373 . S
C1880 C1882 1.389 . S
C1881 H1860 0.950 . S
C1881 C1880 1.373 . S
C1881 C1897 1.377 . S
C1882 C1880 1.389 . S
C1882 C1883 1.524 1_455 S
C1882 C1896 1.377 . S
C1883 C1882 1.524 1_655 S
C1883 C1884 1.397 . S
C1883 C1888 1.363 1_655 S
C1884 H1861 0.950 . S
C1884 C1883 1.397 . S
C1884 C1885 1.334 . S
C1885 H1862 0.950 . S
C1885 C1884 1.334 . S
C1885 C1886 1.287 . S
C1886 C1885 1.287 . S
C1886 C1887 1.524 . S
C1886 H1905 0.913 . S
C1887 H1863 0.950 . S
C1887 C1886 1.524 . S
C1887 C1888 1.415 1_655 S
C1888 H1864 0.950 . S
C1888 C1883 1.363 1_455 S
C1888 C1887 1.415 1_455 S
C1889 H1865 0.951 . S
C1889 C1890 1.366 . S
C1889 C1891 1.388 . S
C1890 C1889 1.366 . S
C1890 C1894 1.385 . S
C1891 H1866 0.951 . S
C1891 C1889 1.388 . S
C1891 C1892 1.366 . S
C1892 C1891 1.366 . S
C1892 C1893 1.414 . S
C1892 C1895 1.499 . S
C1893 H1867 0.950 . S
C1893 C1892 1.414 . S
C1893 C1894 1.374 . S
C1894 H1868 0.950 . S
C1894 C1890 1.385 . S
C1894 C1893 1.374 . S
C1895 C1892 1.499 . S
C1895 C1896 1.373 . S
C1895 C1897 1.389 . S
C1896 H1869 0.950 . S
C1896 C1882 1.377 . S
C1896 C1895 1.373 . S
C1897 C1881 1.377 . S
C1897 C1895 1.389 . S
C1897 C1898 1.524 . S
C1898 C1897 1.524 . S
C1898 C1899 1.397 . S
C1898 C1903 1.363 . S
C1899 H1870 0.950 . S
C1899 C1898 1.397 . S
C1899 C1900 1.334 . S
C1900 H1871 0.950 . S
C1900 C1899 1.334 . S
C1900 C1901 1.287 . S
C1901 C1900 1.287 . S
C1901 C1902 1.524 . S
C1901 H1904 0.999 . S
C1902 H1872 0.950 . S
C1902 C1901 1.524 . S
C1902 C1903 1.415 . S
C1903 H1873 0.950 . S
C1903 C1898 1.363 . S
C1903 C1902 1.415 . S
H1904 C1901 0.999 . S
H1905 C1886 0.913 . S
H1906 C1924 0.951 . S
H1907 C1926 0.951 . S
H1908 C1928 0.950 . S
H1909 C1929 0.950 . S
H1910 C1931 0.950 . S
H1911 C1934 0.950 . S
H1912 C1935 0.950 . S
H1913 C1937 0.950 . S
H1914 C1938 0.950 . S
H1915 C1939 0.951 . S
H1916 C1941 0.951 . S
H1917 C1943 0.950 . S
H1918 C1944 0.950 . S
H1919 C1946 0.950 . S
H1920 C1949 0.950 . S
H1921 C1950 0.950 . S
H1922 C1952 0.950 . S
H1923 C1953 0.950 . S
C1924 H1906 0.951 . S
C1924 C1925 1.366 . S
C1924 C1926 1.388 . S
C1925 C1924 1.366 . S
C1925 C1929 1.385 . S
C1926 H1907 0.951 . S
C1926 C1924 1.388 . S
C1926 C1927 1.366 . S
C1927 C1926 1.366 . S
C1927 C1928 1.414 . S
C1927 C1930 1.499 . S
C1928 H1908 0.950 . S
C1928 C1927 1.414 . S
C1928 C1929 1.374 . S
C1929 H1909 0.950 . S
C1929 C1925 1.385 . S
C1929 C1928 1.374 . S
C1930 C1927 1.499 . S
C1930 C1931 1.373 . S
C1930 C1932 1.389 . S
C1931 H1910 0.950 . S
C1931 C1930 1.373 . S
C1931 C1947 1.377 . S
C1932 C1930 1.389 . S
C1932 C1933 1.524 . S
C1932 C1946 1.377 . S
C1933 C1932 1.524 . S
C1933 C1934 1.397 . S
C1933 C1938 1.363 . S
C1934 H1911 0.950 . S
C1934 C1933 1.397 . S
C1934 C1935 1.334 . S
C1935 H1912 0.950 . S
C1935 C1934 1.334 . S
C1935 C1936 1.287 . S
C1936 C1935 1.287 . S
C1936 C1937 1.524 . S
C1936 H1955 0.913 . S
C1937 H1913 0.950 . S
C1937 C1936 1.524 . S
C1937 C1938 1.415 . S
C1938 H1914 0.950 . S
C1938 C1933 1.363 . S
C1938 C1937 1.415 . S
C1939 H1915 0.951 . S
C1939 C1940 1.366 . S
C1939 C1941 1.388 . S
C1940 C1939 1.366 . S
C1940 C1944 1.385 . S
C1941 H1916 0.951 . S
C1941 C1939 1.388 . S
C1941 C1942 1.366 . S
C1942 C1941 1.366 . S
C1942 C1943 1.414 . S
C1942 C1945 1.499 . S
C1943 H1917 0.950 . S
C1943 C1942 1.414 . S
C1943 C1944 1.374 . S
C1944 H1918 0.950 . S
C1944 C1940 1.385 . S
C1944 C1943 1.374 . S
C1945 C1942 1.499 . S
C1945 C1946 1.373 . S
C1945 C1947 1.389 . S
C1946 H1919 0.950 . S
C1946 C1932 1.377 . S
C1946 C1945 1.373 . S
C1947 C1931 1.377 . S
C1947 C1945 1.389 . S
C1947 C1948 1.524 . S
C1948 C1947 1.524 . S
C1948 C1949 1.397 . S
C1948 C1953 1.363 . S
C1949 H1920 0.950 . S
C1949 C1948 1.397 . S
C1949 C1950 1.334 . S
C1950 H1921 0.950 . S
C1950 C1949 1.334 . S
C1950 C1951 1.287 . S
C1951 C1950 1.287 . S
C1951 C1952 1.524 . S
C1951 H1954 0.999 . S
C1952 H1922 0.950 . S
C1952 C1951 1.524 . S
C1952 C1953 1.415 . S
C1953 H1923 0.950 . S
C1953 C1948 1.363 . S
C1953 C1952 1.415 . S
H1954 C1951 0.999 . S
H1955 C1936 0.913 . S
H1956 C1974 0.951 . S
H1957 C1976 0.951 . S
H1958 C1978 0.950 . S
H1959 C1979 0.950 . S
H1960 C1981 0.950 . S
H1961 C1984 0.950 . S
H1962 C1985 0.950 . S
H1963 C1987 0.950 . S
H1964 C1988 0.950 . S
H1965 C1989 0.951 . S
H1966 C1991 0.951 . S
H1967 C1993 0.950 . S
H1968 C1994 0.950 . S
H1969 C1996 0.950 . S
H1970 C1999 0.950 . S
H1971 C2000 0.950 . S
H1972 C2002 0.950 . S
H1973 C2003 0.950 . S
C1974 H1956 0.951 . S
C1974 C1975 1.366 . S
C1974 C1976 1.388 . S
C1975 C1974 1.366 . S
C1975 C1979 1.385 . S
C1976 H1957 0.951 . S
C1976 C1974 1.388 . S
C1976 C1977 1.366 . S
C1977 C1976 1.366 . S
C1977 C1978 1.414 . S
C1977 C1980 1.499 . S
C1978 H1958 0.950 . S
C1978 C1977 1.414 . S
C1978 C1979 1.374 . S
C1979 H1959 0.950 . S
C1979 C1975 1.385 . S
C1979 C1978 1.374 . S
C1980 C1977 1.499 . S
C1980 C1981 1.373 . S
C1980 C1982 1.389 . S
C1981 H1960 0.950 . S
C1981 C1980 1.373 . S
C1981 C1997 1.377 . S
C1982 C1980 1.389 . S
C1982 C1983 1.524 . S
C1982 C1996 1.377 . S
C1983 C1982 1.524 . S
C1983 C1984 1.397 . S
C1983 C1988 1.363 . S
C1984 H1961 0.950 . S
C1984 C1983 1.397 . S
C1984 C1985 1.334 . S
C1985 H1962 0.950 . S
C1985 C1984 1.334 . S
C1985 C1986 1.287 . S
C1986 C1985 1.287 . S
C1986 C1987 1.524 . S
C1986 H2005 0.913 . S
C1987 H1963 0.950 . S
C1987 C1986 1.524 . S
C1987 C1988 1.415 . S
C1988 H1964 0.950 . S
C1988 C1983 1.363 . S
C1988 C1987 1.415 . S
C1989 H1965 0.951 . S
C1989 C1990 1.366 . S
C1989 C1991 1.388 . S
C1990 C1989 1.366 . S
C1990 C1994 1.385 . S
C1991 H1966 0.951 . S
C1991 C1989 1.388 . S
C1991 C1992 1.366 . S
C1992 C1991 1.366 . S
C1992 C1993 1.414 . S
C1992 C1995 1.499 . S
C1993 H1967 0.950 . S
C1993 C1992 1.414 . S
C1993 C1994 1.374 . S
C1994 H1968 0.950 . S
C1994 C1990 1.385 . S
C1994 C1993 1.374 . S
C1995 C1992 1.499 . S
C1995 C1996 1.373 . S
C1995 C1997 1.389 . S
C1996 H1969 0.950 . S
C1996 C1982 1.377 . S
C1996 C1995 1.373 . S
C1997 C1981 1.377 . S
C1997 C1995 1.389 . S
C1997 C1998 1.524 . S
C1998 C1997 1.524 . S
C1998 C1999 1.397 . S
C1998 C2003 1.363 . S
C1999 H1970 0.950 . S
C1999 C1998 1.397 . S
C1999 C2000 1.334 . S
C2000 H1971 0.950 . S
C2000 C1999 1.334 . S
C2000 C2001 1.287 . S
C2001 C2000 1.287 . S
C2001 C2002 1.524 . S
C2001 H2004 0.999 . S
C2002 H1972 0.950 . S
C2002 C2001 1.524 . S
C2002 C2003 1.415 . S
C2003 H1973 0.950 . S
C2003 C1998 1.363 . S
C2003 C2002 1.415 . S
H2004 C2001 0.999 . S
H2005 C1986 0.913 . S
H2006 C2024 0.951 . S
H2007 C2026 0.951 . S
H2008 C2028 0.950 . S
H2009 C2029 0.950 . S
H2010 C2031 0.950 . S
H2011 C2034 0.950 . S
H2012 C2035 0.950 . S
H2013 C2037 0.950 . S
H2014 C2038 0.950 . S
H2015 C2039 0.951 . S
H2016 C2041 0.951 . S
H2017 C2043 0.950 . S
H2018 C2044 0.950 . S
H2019 C2046 0.950 . S
H2020 C2049 0.950 . S
H2021 C2050 0.950 . S
H2022 C2052 0.950 . S
H2023 C2053 0.950 . S
C2024 H2006 0.951 . S
C2024 C2025 1.366 . S
C2024 C2026 1.388 . S
C2025 C2024 1.366 . S
C2025 C2029 1.385 . S
C2026 H2007 0.951 . S
C2026 C2024 1.388 . S
C2026 C2027 1.366 . S
C2027 C2026 1.366 . S
C2027 C2028 1.414 . S
C2027 C2030 1.499 . S
C2028 H2008 0.950 . S
C2028 C2027 1.414 . S
C2028 C2029 1.374 . S
C2029 H2009 0.950 . S
C2029 C2025 1.385 . S
C2029 C2028 1.374 . S
C2030 C2027 1.499 . S
C2030 C2031 1.373 . S
C2030 C2032 1.389 . S
C2031 H2010 0.950 . S
C2031 C2030 1.373 . S
C2031 C2047 1.377 . S
C2032 C2030 1.389 . S
C2032 C2033 1.524 . S
C2032 C2046 1.377 . S
C2033 C2032 1.524 . S
C2033 C2034 1.397 . S
C2033 C2038 1.363 . S
C2034 H2011 0.950 . S
C2034 C2033 1.397 . S
C2034 C2035 1.334 . S
C2035 H2012 0.950 . S
C2035 C2034 1.334 . S
C2035 C2036 1.287 . S
C2036 C2035 1.287 . S
C2036 C2037 1.524 . S
C2036 H2055 0.913 . S
C2037 H2013 0.950 . S
C2037 C2036 1.524 . S
C2037 C2038 1.415 . S
C2038 H2014 0.950 . S
C2038 C2033 1.363 . S
C2038 C2037 1.415 . S
C2039 H2015 0.951 . S
C2039 C2040 1.366 . S
C2039 C2041 1.388 . S
C2040 C2039 1.366 . S
C2040 C2044 1.385 . S
C2041 H2016 0.951 . S
C2041 C2039 1.388 . S
C2041 C2042 1.366 . S
C2042 C2041 1.366 . S
C2042 C2043 1.414 . S
C2042 C2045 1.499 . S
C2043 H2017 0.950 . S
C2043 C2042 1.414 . S
C2043 C2044 1.374 . S
C2044 H2018 0.950 . S
C2044 C2040 1.385 . S
C2044 C2043 1.374 . S
C2045 C2042 1.499 . S
C2045 C2046 1.373 . S
C2045 C2047 1.389 . S
C2046 H2019 0.950 . S
C2046 C2032 1.377 . S
C2046 C2045 1.373 . S
C2047 C2031 1.377 . S
C2047 C2045 1.389 . S
C2047 C2048 1.524 . S
C2048 C2047 1.524 . S
C2048 C2049 1.397 . S
C2048 C2053 1.363 . S
C2049 H2020 0.950 . S
C2049 C2048 1.397 . S
C2049 C2050 1.334 . S
C2050 H2021 0.950 . S
C2050 C2049 1.334 . S
C2050 C2051 1.287 . S
C2051 C2050 1.287 . S
C2051 C2052 1.524 . S
C2051 H2054 0.999 . S
C2052 H2022 0.950 . S
C2052 C2051 1.524 . S
C2052 C2053 1.415 . S
C2053 H2023 0.950 . S
C2053 C2048 1.363 . S
C2053 C2052 1.415 . S
H2054 C2051 0.999 . S
H2055 C2036 0.913 . S
H2056 C2074 0.951 . S
H2057 C2076 0.951 . S
H2058 C2078 0.950 . S
H2059 C2079 0.950 . S
H2060 C2081 0.950 . S
H2061 C2084 0.950 . S
H2062 C2085 0.950 . S
H2063 C2087 0.950 . S
H2064 C2088 0.950 . S
H2065 C2089 0.951 . S
H2066 C2091 0.951 . S
H2067 C2093 0.950 . S
H2068 C2094 0.950 . S
H2069 C2096 0.950 . S
H2070 C2099 0.950 . S
H2071 C2100 0.950 . S
H2072 C2102 0.950 . S
H2073 C2103 0.950 . S
C2074 H2056 0.951 . S
C2074 C2075 1.366 . S
C2074 C2076 1.388 . S
C2075 C2074 1.366 . S
C2075 C2079 1.385 . S
C2076 H2057 0.951 . S
C2076 C2074 1.388 . S
C2076 C2077 1.366 . S
C2077 C2076 1.366 . S
C2077 C2078 1.414 . S
C2077 C2080 1.499 . S
C2078 H2058 0.950 . S
C2078 C2077 1.414 . S
C2078 C2079 1.374 . S
C2079 H2059 0.950 . S
C2079 C2075 1.385 . S
C2079 C2078 1.374 . S
C2080 C2077 1.499 . S
C2080 C2081 1.373 . S
C2080 C2082 1.389 1_655 S
C2081 H2060 0.950 . S
C2081 C2080 1.373 . S
C2081 C2097 1.377 . S
C2082 C2080 1.389 1_455 S
C2082 C2083 1.524 . S
C2082 C2096 1.377 . S
C2083 C2082 1.524 . S
C2083 C2084 1.397 . S
C2083 C2088 1.363 . S
C2084 H2061 0.950 . S
C2084 C2083 1.397 . S
C2084 C2085 1.334 . S
C2085 H2062 0.950 . S
C2085 C2084 1.334 . S
C2085 C2086 1.287 . S
C2086 C2085 1.287 . S
C2086 C2087 1.524 . S
C2086 H2105 0.913 . S
C2087 H2063 0.950 . S
C2087 C2086 1.524 . S
C2087 C2088 1.415 . S
C2088 H2064 0.950 . S
C2088 C2083 1.363 . S
C2088 C2087 1.415 . S
C2089 H2065 0.951 . S
C2089 C2090 1.366 . S
C2089 C2091 1.388 . S
C2090 C2089 1.366 . S
C2090 C2094 1.385 . S
C2091 H2066 0.951 . S
C2091 C2089 1.388 . S
C2091 C2092 1.366 . S
C2092 C2091 1.366 . S
C2092 C2093 1.414 . S
C2092 C2095 1.499 . S
C2093 H2067 0.950 . S
C2093 C2092 1.414 . S
C2093 C2094 1.374 . S
C2094 H2068 0.950 . S
C2094 C2090 1.385 . S
C2094 C2093 1.374 . S
C2095 C2092 1.499 . S
C2095 C2096 1.373 . S
C2095 C2097 1.389 1_455 S
C2096 H2069 0.950 . S
C2096 C2082 1.377 . S
C2096 C2095 1.373 . S
C2097 C2081 1.377 . S
C2097 C2095 1.389 1_655 S
C2097 C2098 1.524 . S
C2098 C2097 1.524 . S
C2098 C2099 1.397 . S
C2098 C2103 1.363 . S
C2099 H2070 0.950 . S
C2099 C2098 1.397 . S
C2099 C2100 1.334 . S
C2100 H2071 0.950 . S
C2100 C2099 1.334 . S
C2100 C2101 1.287 . S
C2101 C2100 1.287 . S
C2101 C2102 1.524 . S
C2101 H2104 0.999 . S
C2102 H2072 0.950 . S
C2102 C2101 1.524 . S
C2102 C2103 1.415 . S
C2103 H2073 0.950 . S
C2103 C2098 1.363 . S
C2103 C2102 1.415 . S
H2104 C2101 0.999 . S
H2105 C2086 0.913 . S
H2106 C2124 0.951 . S
H2107 C2126 0.951 . S
H2108 C2128 0.950 . S
H2109 C2129 0.950 . S
H2110 C2131 0.950 . S
H2111 C2134 0.950 . S
H2112 C2135 0.950 . S
H2113 C2137 0.950 . S
H2114 C2138 0.950 . S
H2115 C2139 0.951 . S
H2116 C2141 0.951 . S
H2117 C2143 0.950 . S
H2118 C2144 0.950 . S
H2119 C2146 0.950 . S
H2120 C2149 0.950 . S
H2121 C2150 0.950 . S
H2122 C2152 0.950 . S
H2123 C2153 0.950 . S
C2124 H2106 0.951 . S
C2124 C2125 1.366 . S
C2124 C2126 1.388 . S
C2125 C2124 1.366 . S
C2125 C2129 1.385 . S
C2126 H2107 0.951 . S
C2126 C2124 1.388 . S
C2126 C2127 1.366 . S
C2127 C2126 1.366 . S
C2127 C2128 1.414 . S
C2127 C2130 1.499 . S
C2128 H2108 0.950 . S
C2128 C2127 1.414 . S
C2128 C2129 1.374 . S
C2129 H2109 0.950 . S
C2129 C2125 1.385 . S
C2129 C2128 1.374 . S
C2130 C2127 1.499 . S
C2130 C2131 1.373 . S
C2130 C2132 1.389 . S
C2131 H2110 0.950 . S
C2131 C2130 1.373 . S
C2131 C2147 1.377 . S
C2132 C2130 1.389 . S
C2132 C2133 1.524 . S
C2132 C2146 1.377 . S
C2133 C2132 1.524 . S
C2133 C2134 1.397 . S
C2133 C2138 1.363 . S
C2134 H2111 0.950 . S
C2134 C2133 1.397 . S
C2134 C2135 1.334 . S
C2135 H2112 0.950 . S
C2135 C2134 1.334 . S
C2135 C2136 1.287 . S
C2136 C2135 1.287 . S
C2136 C2137 1.524 . S
C2136 H2155 0.913 . S
C2137 H2113 0.950 . S
C2137 C2136 1.524 . S
C2137 C2138 1.415 . S
C2138 H2114 0.950 . S
C2138 C2133 1.363 . S
C2138 C2137 1.415 . S
C2139 H2115 0.951 . S
C2139 C2140 1.366 . S
C2139 C2141 1.388 . S
C2140 C2139 1.366 . S
C2140 C2144 1.385 . S
C2141 H2116 0.951 . S
C2141 C2139 1.388 . S
C2141 C2142 1.366 . S
C2142 C2141 1.366 . S
C2142 C2143 1.414 . S
C2142 C2145 1.499 . S
C2143 H2117 0.950 . S
C2143 C2142 1.414 . S
C2143 C2144 1.374 . S
C2144 H2118 0.950 . S
C2144 C2140 1.385 . S
C2144 C2143 1.374 . S
C2145 C2142 1.499 . S
C2145 C2146 1.373 . S
C2145 C2147 1.389 . S
C2146 H2119 0.950 . S
C2146 C2132 1.377 . S
C2146 C2145 1.373 . S
C2147 C2131 1.377 . S
C2147 C2145 1.389 . S
C2147 C2148 1.524 . S
C2148 C2147 1.524 . S
C2148 C2149 1.397 . S
C2148 C2153 1.363 . S
C2149 H2120 0.950 . S
C2149 C2148 1.397 . S
C2149 C2150 1.334 . S
C2150 H2121 0.950 . S
C2150 C2149 1.334 . S
C2150 C2151 1.287 . S
C2151 C2150 1.287 . S
C2151 C2152 1.524 . S
C2151 H2154 0.999 . S
C2152 H2122 0.950 . S
C2152 C2151 1.524 . S
C2152 C2153 1.415 . S
C2153 H2123 0.950 . S
C2153 C2148 1.363 . S
C2153 C2152 1.415 . S
H2154 C2151 0.999 . S
H2155 C2136 0.913 . S
H2156 C2174 0.951 . S
H2157 C2176 0.951 . S
H2158 C2178 0.950 . S
H2159 C2179 0.950 . S
H2160 C2181 0.950 . S
H2161 C2184 0.950 1_545 S
H2162 C2185 0.950 . S
H2163 C2187 0.950 . S
H2164 C2188 0.950 . S
H2165 C2189 0.951 . S
H2166 C2191 0.951 . S
H2167 C2193 0.950 . S
H2168 C2194 0.950 . S
H2169 C2196 0.950 . S
H2170 C2199 0.950 . S
H2171 C2200 0.950 . S
H2172 C2202 0.950 . S
H2173 C2203 0.950 . S
C2174 H2156 0.951 . S
C2174 C2175 1.366 . S
C2174 C2176 1.388 . S
C2175 C2174 1.366 . S
C2175 C2179 1.385 . S
C2176 H2157 0.951 . S
C2176 C2174 1.388 . S
C2176 C2177 1.366 . S
C2177 C2176 1.366 . S
C2177 C2178 1.414 . S
C2177 C2180 1.499 . S
C2178 H2158 0.950 . S
C2178 C2177 1.414 . S
C2178 C2179 1.374 . S
C2179 H2159 0.950 . S
C2179 C2175 1.385 . S
C2179 C2178 1.374 . S
C2180 C2177 1.499 . S
C2180 C2181 1.373 . S
C2180 C2182 1.389 . S
C2181 H2160 0.950 . S
C2181 C2180 1.373 . S
C2181 C2197 1.377 . S
C2182 C2180 1.389 . S
C2182 C2183 1.524 1_545 S
C2182 C2196 1.377 . S
C2183 C2182 1.524 1_565 S
C2183 C2184 1.397 . S
C2183 C2188 1.363 . S
C2184 H2161 0.950 1_565 S
C2184 C2183 1.397 . S
C2184 C2185 1.334 . S
C2185 H2162 0.950 . S
C2185 C2184 1.334 . S
C2185 C2186 1.287 . S
C2186 C2185 1.287 . S
C2186 C2187 1.524 . S
C2186 H2205 0.913 . S
C2187 H2163 0.950 . S
C2187 C2186 1.524 . S
C2187 C2188 1.415 . S
C2188 H2164 0.950 . S
C2188 C2183 1.363 . S
C2188 C2187 1.415 . S
C2189 H2165 0.951 . S
C2189 C2190 1.366 . S
C2189 C2191 1.388 . S
C2190 C2189 1.366 . S
C2190 C2194 1.385 . S
C2191 H2166 0.951 . S
C2191 C2189 1.388 . S
C2191 C2192 1.366 . S
C2192 C2191 1.366 . S
C2192 C2193 1.414 . S
C2192 C2195 1.499 . S
C2193 H2167 0.950 . S
C2193 C2192 1.414 . S
C2193 C2194 1.374 . S
C2194 H2168 0.950 . S
C2194 C2190 1.385 . S
C2194 C2193 1.374 . S
C2195 C2192 1.499 . S
C2195 C2196 1.373 . S
C2195 C2197 1.389 . S
C2196 H2169 0.950 . S
C2196 C2182 1.377 . S
C2196 C2195 1.373 . S
C2197 C2181 1.377 . S
C2197 C2195 1.389 . S
C2197 C2198 1.524 . S
C2198 C2197 1.524 . S
C2198 C2199 1.397 . S
C2198 C2203 1.363 . S
C2199 H2170 0.950 . S
C2199 C2198 1.397 . S
C2199 C2200 1.334 . S
C2200 H2171 0.950 . S
C2200 C2199 1.334 . S
C2200 C2201 1.287 . S
C2201 C2200 1.287 . S
C2201 C2202 1.524 . S
C2201 H2204 0.999 . S
C2202 H2172 0.950 . S
C2202 C2201 1.524 . S
C2202 C2203 1.415 . S
C2203 H2173 0.950 . S
C2203 C2198 1.363 . S
C2203 C2202 1.415 . S
H2204 C2201 0.999 . S
H2205 C2186 0.913 . S
H2206 C2224 0.951 . S
H2207 C2226 0.951 . S
H2208 C2228 0.950 . S
H2209 C2229 0.950 . S
H2210 C2231 0.950 . S
H2211 C2234 0.950 . S
H2212 C2235 0.950 . S
H2213 C2237 0.950 . S
H2214 C2238 0.950 . S
H2215 C2239 0.951 . S
H2216 C2241 0.951 . S
H2217 C2243 0.950 . S
H2218 C2244 0.950 . S
H2219 C2246 0.950 . S
H2220 C2249 0.950 . S
H2221 C2250 0.950 . S
H2222 C2252 0.950 . S
H2223 C2253 0.950 . S
C2224 H2206 0.951 . S
C2224 C2225 1.366 . S
C2224 C2226 1.388 . S
C2225 C2224 1.366 . S
C2225 C2229 1.385 . S
C2226 H2207 0.951 . S
C2226 C2224 1.388 . S
C2226 C2227 1.366 . S
C2227 C2226 1.366 . S
C2227 C2228 1.414 . S
C2227 C2230 1.499 . S
C2228 H2208 0.950 . S
C2228 C2227 1.414 . S
C2228 C2229 1.374 . S
C2229 H2209 0.950 . S
C2229 C2225 1.385 . S
C2229 C2228 1.374 . S
C2230 C2227 1.499 . S
C2230 C2231 1.373 . S
C2230 C2232 1.389 . S
C2231 H2210 0.950 . S
C2231 C2230 1.373 . S
C2231 C2247 1.377 . S
C2232 C2230 1.389 . S
C2232 C2233 1.524 . S
C2232 C2246 1.377 . S
C2233 C2232 1.524 . S
C2233 C2234 1.397 . S
C2233 C2238 1.363 . S
C2234 H2211 0.950 . S
C2234 C2233 1.397 . S
C2234 C2235 1.334 . S
C2235 H2212 0.950 . S
C2235 C2234 1.334 . S
C2235 C2236 1.287 . S
C2236 C2235 1.287 . S
C2236 C2237 1.524 . S
C2236 H2255 0.913 . S
C2237 H2213 0.950 . S
C2237 C2236 1.524 . S
C2237 C2238 1.415 . S
C2238 H2214 0.950 . S
C2238 C2233 1.363 . S
C2238 C2237 1.415 . S
C2239 H2215 0.951 . S
C2239 C2240 1.366 . S
C2239 C2241 1.388 . S
C2240 C2239 1.366 . S
C2240 C2244 1.385 . S
C2241 H2216 0.951 . S
C2241 C2239 1.388 . S
C2241 C2242 1.366 . S
C2242 C2241 1.366 . S
C2242 C2243 1.414 . S
C2242 C2245 1.499 . S
C2243 H2217 0.950 . S
C2243 C2242 1.414 . S
C2243 C2244 1.374 . S
C2244 H2218 0.950 . S
C2244 C2240 1.385 . S
C2244 C2243 1.374 . S
C2245 C2242 1.499 . S
C2245 C2246 1.373 . S
C2245 C2247 1.389 . S
C2246 H2219 0.950 . S
C2246 C2232 1.377 . S
C2246 C2245 1.373 . S
C2247 C2231 1.377 . S
C2247 C2245 1.389 . S
C2247 C2248 1.524 . S
C2248 C2247 1.524 . S
C2248 C2249 1.397 . S
C2248 C2253 1.363 . S
C2249 H2220 0.950 . S
C2249 C2248 1.397 . S
C2249 C2250 1.334 . S
C2250 H2221 0.950 . S
C2250 C2249 1.334 . S
C2250 C2251 1.287 . S
C2251 C2250 1.287 . S
C2251 C2252 1.524 . S
C2251 H2254 0.999 . S
C2252 H2222 0.950 . S
C2252 C2251 1.524 . S
C2252 C2253 1.415 . S
C2253 H2223 0.950 . S
C2253 C2248 1.363 . S
C2253 C2252 1.415 . S
H2254 C2251 0.999 . S
H2255 C2236 0.913 . S
H2256 C2274 0.951 . S
H2257 C2276 0.948 . S
H2258 C2278 0.950 . S
H2259 C2279 0.950 . S
H2260 C2281 0.950 . S
H2261 C2284 0.950 . S
H2262 C2285 0.950 . S
H2263 C2287 0.933 1_565 S
H2264 C2288 0.892 1_455 S
H2265 C2289 0.951 . S
H2266 C2291 1.000 . S
H2267 C2293 0.950 . S
H2268 C2294 0.950 . S
H2269 C2296 0.950 . S
H2270 C2299 0.950 . S
H2271 C2300 0.950 . S
H2272 C2302 0.950 . S
H2273 C2303 0.950 1_655 S
C2274 H2256 0.951 . S
C2274 C2275 1.366 . S
C2274 C2276 1.388 . S
C2275 C2274 1.366 . S
C2275 C2279 1.385 . S
C2276 H2257 0.948 . S
C2276 C2274 1.388 . S
C2276 C2277 1.366 . S
C2277 C2276 1.366 . S
C2277 C2278 1.414 . S
C2277 C2280 1.499 . S
C2278 H2258 0.950 . S
C2278 C2277 1.414 . S
C2278 C2279 1.374 . S
C2279 H2259 0.950 . S
C2279 C2275 1.385 . S
C2279 C2278 1.374 . S
C2280 C2277 1.499 . S
C2280 C2281 1.373 . S
C2280 C2282 1.389 . S
C2281 H2260 0.950 . S
C2281 C2280 1.373 . S
C2281 C2297 1.377 1_655 S
C2282 C2280 1.389 . S
C2282 C2283 1.524 . S
C2282 C2296 1.377 1_655 S
C2283 C2282 1.524 . S
C2283 C2284 1.397 . S
C2283 C2288 1.413 . S
C2284 H2261 0.950 . S
C2284 C2283 1.397 . S
C2284 C2285 1.334 . S
C2285 H2262 0.950 . S
C2285 C2284 1.334 . S
C2285 C2286 1.287 1_545 S
C2286 C2285 1.287 1_565 S
C2286 C2287 1.532 1_565 S
C2286 H2305 0.913 . S
C2287 H2263 0.933 1_545 S
C2287 C2286 1.532 1_545 S
C2287 C2288 1.459 . S
C2288 H2264 0.892 1_655 S
C2288 C2283 1.413 . S
C2288 C2287 1.459 . S
C2289 H2265 0.951 . S
C2289 C2290 1.366 . S
C2289 C2291 1.388 . S
C2290 C2289 1.366 . S
C2290 C2294 1.385 . S
C2291 H2266 1.000 . S
C2291 C2289 1.388 . S
C2291 C2292 1.366 . S
C2292 C2291 1.366 . S
C2292 C2293 1.414 . S
C2292 C2295 1.499 . S
C2293 H2267 0.950 . S
C2293 C2292 1.414 . S
C2293 C2294 1.374 . S
C2294 H2268 0.950 . S
C2294 C2290 1.385 . S
C2294 C2293 1.374 . S
C2295 C2292 1.499 . S
C2295 C2296 1.373 . S
C2295 C2297 1.389 . S
C2296 H2269 0.950 . S
C2296 C2282 1.377 1_455 S
C2296 C2295 1.373 . S
C2297 C2281 1.377 1_455 S
C2297 C2295 1.389 . S
C2297 C2298 1.524 . S
C2298 C2297 1.524 . S
C2298 C2299 1.397 . S
C2298 C2303 1.363 . S
C2299 H2270 0.950 . S
C2299 C2298 1.397 . S
C2299 C2300 1.334 . S
C2300 H2271 0.950 . S
C2300 C2299 1.334 . S
C2300 C2301 1.287 . S
C2301 C2300 1.287 . S
C2301 C2302 1.524 . S
C2301 H2304 0.999 . S
C2302 H2272 0.950 . S
C2302 C2301 1.524 . S
C2302 C2303 1.415 . S
C2303 H2273 0.950 1_455 S
C2303 C2298 1.363 . S
C2303 C2302 1.415 . S
H2304 C2301 0.999 . S
H2305 C2286 0.913 . S
H2306 C2324 0.951 . S
H2307 C2326 0.951 . S
H2308 C2328 0.950 . S
H2309 C2329 0.950 . S
H2310 C2331 0.950 . S
H2311 C2334 0.950 . S
H2312 C2335 0.950 . S
H2313 C2337 0.950 . S
H2314 C2338 0.950 . S
H2315 C2339 0.951 . S
H2316 C2341 0.951 . S
H2317 C2343 0.950 . S
H2318 C2344 0.950 . S
H2319 C2346 0.950 . S
H2320 C2349 0.950 . S
H2321 C2350 0.950 . S
H2322 C2352 0.950 . S
H2323 C2353 0.950 . S
C2324 H2306 0.951 . S
C2324 C2325 1.366 . S
C2324 C2326 1.388 . S
C2325 C2324 1.366 . S
C2325 C2329 1.385 . S
C2326 H2307 0.951 . S
C2326 C2324 1.388 . S
C2326 C2327 1.366 . S
C2327 C2326 1.366 . S
C2327 C2328 1.414 . S
C2327 C2330 1.499 . S
C2328 H2308 0.950 . S
C2328 C2327 1.414 . S
C2328 C2329 1.374 . S
C2329 H2309 0.950 . S
C2329 C2325 1.385 . S
C2329 C2328 1.374 . S
C2330 C2327 1.499 . S
C2330 C2331 1.373 . S
C2330 C2332 1.389 . S
C2331 H2310 0.950 . S
C2331 C2330 1.373 . S
C2331 C2347 1.377 . S
C2332 C2330 1.389 . S
C2332 C2333 1.524 . S
C2332 C2346 1.377 . S
C2333 C2332 1.524 . S
C2333 C2334 1.397 . S
C2333 C2338 1.363 . S
C2334 H2311 0.950 . S
C2334 C2333 1.397 . S
C2334 C2335 1.334 . S
C2335 H2312 0.950 . S
C2335 C2334 1.334 . S
C2335 C2336 1.287 . S
C2336 C2335 1.287 . S
C2336 C2337 1.524 . S
C2336 H2355 0.913 . S
C2337 H2313 0.950 . S
C2337 C2336 1.524 . S
C2337 C2338 1.415 . S
C2338 H2314 0.950 . S
C2338 C2333 1.363 . S
C2338 C2337 1.415 . S
C2339 H2315 0.951 . S
C2339 C2340 1.366 . S
C2339 C2341 1.388 . S
C2340 C2339 1.366 . S
C2340 C2344 1.385 . S
C2341 H2316 0.951 . S
C2341 C2339 1.388 . S
C2341 C2342 1.366 . S
C2342 C2341 1.366 . S
C2342 C2343 1.414 . S
C2342 C2345 1.499 . S
C2343 H2317 0.950 . S
C2343 C2342 1.414 . S
C2343 C2344 1.374 . S
C2344 H2318 0.950 . S
C2344 C2340 1.385 . S
C2344 C2343 1.374 . S
C2345 C2342 1.499 . S
C2345 C2346 1.373 . S
C2345 C2347 1.389 . S
C2346 H2319 0.950 . S
C2346 C2332 1.377 . S
C2346 C2345 1.373 . S
C2347 C2331 1.377 . S
C2347 C2345 1.389 . S
C2347 C2348 1.524 . S
C2348 C2347 1.524 . S
C2348 C2349 1.397 . S
C2348 C2353 1.363 . S
C2349 H2320 0.950 . S
C2349 C2348 1.397 . S
C2349 C2350 1.334 . S
C2350 H2321 0.950 . S
C2350 C2349 1.334 . S
C2350 C2351 1.287 . S
C2351 C2350 1.287 . S
C2351 C2352 1.524 . S
C2351 H2354 0.999 . S
C2352 H2322 0.950 . S
C2352 C2351 1.524 . S
C2352 C2353 1.415 . S
C2353 H2323 0.950 . S
C2353 C2348 1.363 . S
C2353 C2352 1.415 . S
H2354 C2351 0.999 . S
H2355 C2336 0.913 . S
H2356 C2374 0.951 . S
H2357 C2376 0.951 . S
H2358 C2378 0.950 . S
H2359 C2379 0.950 . S
H2360 C2381 0.950 . S
H2361 C2384 0.950 . S
H2362 C2385 0.950 . S
H2363 C2387 0.950 1_565 S
H2364 C2388 0.950 . S
H2365 C2389 0.951 . S
H2366 C2391 0.951 . S
H2367 C2393 0.950 . S
H2368 C2394 0.950 . S
H2369 C2396 0.950 . S
H2370 C2399 0.950 . S
H2371 C2400 0.950 . S
H2372 C2402 0.950 . S
H2373 C2403 0.950 . S
C2374 H2356 0.951 . S
C2374 C2375 1.366 . S
C2374 C2376 1.388 . S
C2375 C2374 1.366 . S
C2375 C2379 1.385 . S
C2376 H2357 0.951 . S
C2376 C2374 1.388 . S
C2376 C2377 1.366 . S
C2377 C2376 1.366 . S
C2377 C2378 1.414 . S
C2377 C2380 1.499 . S
C2378 H2358 0.950 . S
C2378 C2377 1.414 . S
C2378 C2379 1.374 . S
C2379 H2359 0.950 . S
C2379 C2375 1.385 . S
C2379 C2378 1.374 . S
C2380 C2377 1.499 . S
C2380 C2381 1.373 . S
C2380 C2382 1.389 . S
C2381 H2360 0.950 . S
C2381 C2380 1.373 . S
C2381 C2397 1.377 . S
C2382 C2380 1.389 . S
C2382 C2383 1.524 . S
C2382 C2396 1.377 . S
C2383 C2382 1.524 . S
C2383 C2384 1.397 . S
C2383 C2388 1.363 . S
C2384 H2361 0.950 . S
C2384 C2383 1.397 . S
C2384 C2385 1.334 . S
C2385 H2362 0.950 . S
C2385 C2384 1.334 . S
C2385 C2386 1.287 . S
C2386 C2385 1.287 . S
C2386 C2387 1.524 . S
C2386 H2405 0.913 . S
C2387 H2363 0.950 1_545 S
C2387 C2386 1.524 . S
C2387 C2388 1.415 . S
C2388 H2364 0.950 . S
C2388 C2383 1.363 . S
C2388 C2387 1.415 . S
C2389 H2365 0.951 . S
C2389 C2390 1.366 . S
C2389 C2391 1.388 . S
C2390 C2389 1.366 . S
C2390 C2394 1.385 . S
C2391 H2366 0.951 . S
C2391 C2389 1.388 . S
C2391 C2392 1.366 . S
C2392 C2391 1.366 . S
C2392 C2393 1.414 . S
C2392 C2395 1.499 . S
C2393 H2367 0.950 . S
C2393 C2392 1.414 . S
C2393 C2394 1.374 . S
C2394 H2368 0.950 . S
C2394 C2390 1.385 . S
C2394 C2393 1.374 . S
C2395 C2392 1.499 . S
C2395 C2396 1.373 . S
C2395 C2397 1.389 . S
C2396 H2369 0.950 . S
C2396 C2382 1.377 . S
C2396 C2395 1.373 . S
C2397 C2381 1.377 . S
C2397 C2395 1.389 . S
C2397 C2398 1.524 . S
C2398 C2397 1.524 . S
C2398 C2399 1.397 . S
C2398 C2403 1.363 . S
C2399 H2370 0.950 . S
C2399 C2398 1.397 . S
C2399 C2400 1.334 . S
C2400 H2371 0.950 . S
C2400 C2399 1.334 . S
C2400 C2401 1.287 . S
C2401 C2400 1.287 . S
C2401 C2402 1.524 . S
C2401 H2404 0.999 . S
C2402 H2372 0.950 . S
C2402 C2401 1.524 . S
C2402 C2403 1.415 . S
C2403 H2373 0.950 . S
C2403 C2398 1.363 . S
C2403 C2402 1.415 . S
H2404 C2401 0.999 . S
H2405 C2386 0.913 . S
H2406 C2424 0.951 . S
H2407 C2426 0.951 . S
H2408 C2428 0.950 . S
H2409 C2429 0.950 . S
H2410 C2431 0.950 . S
H2411 C2434 0.950 . S
H2412 C2435 0.950 . S
H2413 C2437 0.950 . S
H2414 C2438 0.950 . S
H2415 C2439 0.951 . S
H2416 C2441 0.951 . S
H2417 C2443 0.950 . S
H2418 C2444 0.950 . S
H2419 C2446 0.950 . S
H2420 C2449 0.950 . S
H2421 C2450 0.950 . S
H2422 C2452 0.950 . S
H2423 C2453 0.950 . S
C2424 H2406 0.951 . S
C2424 C2425 1.366 . S
C2424 C2426 1.388 . S
C2425 C2424 1.366 . S
C2425 C2429 1.385 . S
C2426 H2407 0.951 . S
C2426 C2424 1.388 . S
C2426 C2427 1.366 . S
C2427 C2426 1.366 . S
C2427 C2428 1.414 . S
C2427 C2430 1.499 . S
C2428 H2408 0.950 . S
C2428 C2427 1.414 . S
C2428 C2429 1.374 . S
C2429 H2409 0.950 . S
C2429 C2425 1.385 . S
C2429 C2428 1.374 . S
C2430 C2427 1.499 . S
C2430 C2431 1.373 . S
C2430 C2432 1.389 . S
C2431 H2410 0.950 . S
C2431 C2430 1.373 . S
C2431 C2447 1.377 . S
C2432 C2430 1.389 . S
C2432 C2433 1.524 . S
C2432 C2446 1.377 . S
C2433 C2432 1.524 . S
C2433 C2434 1.397 . S
C2433 C2438 1.363 . S
C2434 H2411 0.950 . S
C2434 C2433 1.397 . S
C2434 C2435 1.334 . S
C2435 H2412 0.950 . S
C2435 C2434 1.334 . S
C2435 C2436 1.287 . S
C2436 C2435 1.287 . S
C2436 C2437 1.524 . S
C2436 H2455 0.913 . S
C2437 H2413 0.950 . S
C2437 C2436 1.524 . S
C2437 C2438 1.415 . S
C2438 H2414 0.950 . S
C2438 C2433 1.363 . S
C2438 C2437 1.415 . S
C2439 H2415 0.951 . S
C2439 C2440 1.366 . S
C2439 C2441 1.388 . S
C2440 C2439 1.366 . S
C2440 C2444 1.385 . S
C2441 H2416 0.951 . S
C2441 C2439 1.388 . S
C2441 C2442 1.366 . S
C2442 C2441 1.366 . S
C2442 C2443 1.414 . S
C2442 C2445 1.499 . S
C2443 H2417 0.950 . S
C2443 C2442 1.414 . S
C2443 C2444 1.374 . S
C2444 H2418 0.950 . S
C2444 C2440 1.385 . S
C2444 C2443 1.374 . S
C2445 C2442 1.499 . S
C2445 C2446 1.373 . S
C2445 C2447 1.389 . S
C2446 H2419 0.950 . S
C2446 C2432 1.377 . S
C2446 C2445 1.373 . S
C2447 C2431 1.377 . S
C2447 C2445 1.389 . S
C2447 C2448 1.524 . S
C2448 C2447 1.524 . S
C2448 C2449 1.397 . S
C2448 C2453 1.363 . S
C2449 H2420 0.950 . S
C2449 C2448 1.397 . S
C2449 C2450 1.334 . S
C2450 H2421 0.950 . S
C2450 C2449 1.334 . S
C2450 C2451 1.287 . S
C2451 C2450 1.287 . S
C2451 C2452 1.524 . S
C2451 H2454 0.999 . S
C2452 H2422 0.950 . S
C2452 C2451 1.524 . S
C2452 C2453 1.415 . S
C2453 H2423 0.950 . S
C2453 C2448 1.363 . S
C2453 C2452 1.415 . S
H2454 C2451 0.999 . S
H2455 C2436 0.913 . S
H2456 C2474 0.951 . S
H2457 C2476 0.951 . S
H2458 C2478 0.950 . S
H2459 C2479 0.950 . S
H2460 C2481 0.950 1_556 S
H2461 C2484 0.950 . S
H2462 C2485 0.950 . S
H2463 C2487 0.950 . S
H2464 C2488 0.950 . S
H2465 C2489 0.951 . S
H2466 C2491 0.951 . S
H2467 C2493 0.950 . S
H2468 C2494 0.950 . S
H2469 C2496 0.950 1_545 S
H2470 C2499 0.950 . S
H2471 C2500 0.950 . S
H2472 C2502 0.950 . S
H2473 C2503 0.950 . S
C2474 H2456 0.951 . S
C2474 C2475 1.366 . S
C2474 C2476 1.388 . S
C2475 C2474 1.366 . S
C2475 C2479 1.385 . S
C2476 H2457 0.951 . S
C2476 C2474 1.388 . S
C2476 C2477 1.366 . S
C2477 C2476 1.366 . S
C2477 C2478 1.414 . S
C2477 C2480 1.499 . S
C2478 H2458 0.950 . S
C2478 C2477 1.414 . S
C2478 C2479 1.374 . S
C2479 H2459 0.950 . S
C2479 C2475 1.385 . S
C2479 C2478 1.374 . S
C2480 C2477 1.499 . S
C2480 C2481 1.373 . S
C2480 C2482 1.389 . S
C2481 H2460 0.950 1_554 S
C2481 C2480 1.373 . S
C2481 C2497 1.377 . S
C2482 C2480 1.389 . S
C2482 C2483 1.524 . S
C2482 C2496 1.377 . S
C2483 C2482 1.524 . S
C2483 C2484 1.397 . S
C2483 C2488 1.363 1_565 S
C2484 H2461 0.950 . S
C2484 C2483 1.397 . S
C2484 C2485 1.334 . S
C2485 H2462 0.950 . S
C2485 C2484 1.334 . S
C2485 C2486 1.287 1_565 S
C2486 C2485 1.287 1_545 S
C2486 C2487 1.524 . S
C2486 H2505 0.913 . S
C2487 H2463 0.950 . S
C2487 C2486 1.524 . S
C2487 C2488 1.415 . S
C2488 H2464 0.950 . S
C2488 C2483 1.363 1_545 S
C2488 C2487 1.415 . S
C2489 H2465 0.951 . S
C2489 C2490 1.366 1_565 S
C2489 C2491 1.388 . S
C2490 C2489 1.366 1_545 S
C2490 C2494 1.385 . S
C2491 H2466 0.951 . S
C2491 C2489 1.388 . S
C2491 C2492 1.366 . S
C2492 C2491 1.366 . S
C2492 C2493 1.414 1_565 S
C2492 C2495 1.499 . S
C2493 H2467 0.950 . S
C2493 C2492 1.414 1_545 S
C2493 C2494 1.374 . S
C2494 H2468 0.950 . S
C2494 C2490 1.385 . S
C2494 C2493 1.374 . S
C2495 C2492 1.499 . S
C2495 C2496 1.373 . S
C2495 C2497 1.389 . S
C2496 H2469 0.950 1_565 S
C2496 C2482 1.377 . S
C2496 C2495 1.373 . S
C2497 C2481 1.377 . S
C2497 C2495 1.389 . S
C2497 C2498 1.524 1_554 S
C2498 C2497 1.524 1_556 S
C2498 C2499 1.397 . S
C2498 C2503 1.363 . S
C2499 H2470 0.950 . S
C2499 C2498 1.397 . S
C2499 C2500 1.334 . S
C2500 H2471 0.950 . S
C2500 C2499 1.334 . S
C2500 C2501 1.287 . S
C2501 C2500 1.287 . S
C2501 C2502 1.524 . S
C2501 H2504 0.999 . S
C2502 H2472 0.950 . S
C2502 C2501 1.524 . S
C2502 C2503 1.415 . S
C2503 H2473 0.950 . S
C2503 C2498 1.363 . S
C2503 C2502 1.415 . S
H2504 C2501 0.999 . S
H2505 C2486 0.913 . S
H2506 C2524 0.951 . S
H2507 C2526 0.951 . S
H2508 C2528 0.950 . S
H2509 C2529 0.950 . S
H2510 C2531 0.950 . S
H2511 C2534 0.950 . S
H2512 C2535 0.950 . S
H2513 C2537 0.950 . S
H2514 C2538 0.950 . S
H2515 C2539 0.951 . S
H2516 C2541 0.951 . S
H2517 C2543 0.950 . S
H2518 C2544 0.950 . S
H2519 C2546 0.950 . S
H2520 C2549 0.950 . S
H2521 C2550 0.950 . S
H2522 C2552 0.950 . S
H2523 C2553 0.950 . S
C2524 H2506 0.951 . S
C2524 C2525 1.366 1_554 S
C2524 C2526 1.388 . S
C2525 C2524 1.366 1_556 S
C2525 C2529 1.385 . S
C2526 H2507 0.951 . S
C2526 C2524 1.388 . S
C2526 C2527 1.366 1_554 S
C2527 C2526 1.366 1_556 S
C2527 C2528 1.414 . S
C2527 C2530 1.504 . S
C2528 H2508 0.950 . S
C2528 C2527 1.414 . S
C2528 C2529 1.374 . S
C2529 H2509 0.950 . S
C2529 C2525 1.385 . S
C2529 C2528 1.374 . S
C2530 C2527 1.504 . S
C2530 C2531 1.394 . S
C2530 C2532 1.363 1_556 S
C2531 H2510 0.950 . S
C2531 C2530 1.394 . S
C2531 C2547 1.377 . S
C2532 C2530 1.363 1_554 S
C2532 C2533 1.524 . S
C2532 C2546 1.377 . S
C2533 C2532 1.524 . S
C2533 C2534 1.397 . S
C2533 C2538 1.363 . S
C2534 H2511 0.950 . S
C2534 C2533 1.397 . S
C2534 C2535 1.334 . S
C2535 H2512 0.950 . S
C2535 C2534 1.334 . S
C2535 C2536 1.287 . S
C2536 C2535 1.287 . S
C2536 C2537 1.524 . S
C2536 H2555 0.913 . S
C2537 H2513 0.950 . S
C2537 C2536 1.524 . S
C2537 C2538 1.415 . S
C2538 H2514 0.950 . S
C2538 C2533 1.363 . S
C2538 C2537 1.415 . S
C2539 H2515 0.951 . S
C2539 C2540 1.366 1_556 S
C2539 C2541 1.388 . S
C2540 C2539 1.366 1_554 S
C2540 C2544 1.385 . S
C2541 H2516 0.951 . S
C2541 C2539 1.388 . S
C2541 C2542 1.366 1_556 S
C2542 C2541 1.366 1_554 S
C2542 C2543 1.414 . S
C2542 C2545 1.499 . S
C2543 H2517 0.950 . S
C2543 C2542 1.414 . S
C2543 C2544 1.374 . S
C2544 H2518 0.950 . S
C2544 C2540 1.385 . S
C2544 C2543 1.374 . S
C2545 C2542 1.499 . S
C2545 C2546 1.373 . S
C2545 C2547 1.389 1_554 S
C2546 H2519 0.950 . S
C2546 C2532 1.377 . S
C2546 C2545 1.373 . S
C2547 C2531 1.377 . S
C2547 C2545 1.389 1_556 S
C2547 C2548 1.524 . S
C2548 C2547 1.524 . S
C2548 C2549 1.397 . S
C2548 C2553 1.363 . S
C2549 H2520 0.950 . S
C2549 C2548 1.397 . S
C2549 C2550 1.334 . S
C2550 H2521 0.950 . S
C2550 C2549 1.334 . S
C2550 C2551 1.287 . S
C2551 C2550 1.287 . S
C2551 C2552 1.524 . S
C2551 H2554 0.999 . S
C2552 H2522 0.950 . S
C2552 C2551 1.524 . S
C2552 C2553 1.415 . S
C2553 H2523 0.950 . S
C2553 C2548 1.363 . S
C2553 C2552 1.415 . S
H2554 C2551 0.999 . S
H2555 C2536 0.913 . S
H2556 C2574 0.951 . S
H2557 C2576 0.951 . S
H2558 C2578 0.950 . S
H2559 C2579 0.950 . S
H2560 C2581 0.950 . S
H2561 C2584 0.950 . S
H2562 C2585 0.950 . S
H2563 C2587 0.950 . S
H2564 C2588 0.950 . S
H2565 C2589 0.951 . S
H2566 C2591 0.951 . S
H2567 C2593 0.950 . S
H2568 C2594 0.950 . S
H2569 C2596 0.950 . S
H2570 C2599 0.950 . S
H2571 C2600 0.950 . S
H2572 C2602 0.950 . S
H2573 C2603 0.950 . S
C2574 H2556 0.951 . S
C2574 C2575 1.366 . S
C2574 C2576 1.388 . S
C2575 C2574 1.366 . S
C2575 C2579 1.385 . S
C2576 H2557 0.951 . S
C2576 C2574 1.388 . S
C2576 C2577 1.366 . S
C2577 C2576 1.366 . S
C2577 C2578 1.414 . S
C2577 C2580 1.499 . S
C2578 H2558 0.950 . S
C2578 C2577 1.414 . S
C2578 C2579 1.374 . S
C2579 H2559 0.950 . S
C2579 C2575 1.385 . S
C2579 C2578 1.374 . S
C2580 C2577 1.499 . S
C2580 C2581 1.373 . S
C2580 C2582 1.389 . S
C2581 H2560 0.950 . S
C2581 C2580 1.373 . S
C2581 C2597 1.377 . S
C2582 C2580 1.389 . S
C2582 C2583 1.524 . S
C2582 C2596 1.377 . S
C2583 C2582 1.524 . S
C2583 C2584 1.397 . S
C2583 C2588 1.363 . S
C2584 H2561 0.950 . S
C2584 C2583 1.397 . S
C2584 C2585 1.334 . S
C2585 H2562 0.950 . S
C2585 C2584 1.334 . S
C2585 C2586 1.287 . S
C2586 C2585 1.287 . S
C2586 C2587 1.524 . S
C2586 H2605 0.913 . S
C2587 H2563 0.950 . S
C2587 C2586 1.524 . S
C2587 C2588 1.415 . S
C2588 H2564 0.950 . S
C2588 C2583 1.363 . S
C2588 C2587 1.415 . S
C2589 H2565 0.951 . S
C2589 C2590 1.366 . S
C2589 C2591 1.388 . S
C2590 C2589 1.366 . S
C2590 C2594 1.385 . S
C2591 H2566 0.951 . S
C2591 C2589 1.388 . S
C2591 C2592 1.366 . S
C2592 C2591 1.366 . S
C2592 C2593 1.414 . S
C2592 C2595 1.499 . S
C2593 H2567 0.950 . S
C2593 C2592 1.414 . S
C2593 C2594 1.374 . S
C2594 H2568 0.950 . S
C2594 C2590 1.385 . S
C2594 C2593 1.374 . S
C2595 C2592 1.499 . S
C2595 C2596 1.373 . S
C2595 C2597 1.389 . S
C2596 H2569 0.950 . S
C2596 C2582 1.377 . S
C2596 C2595 1.373 . S
C2597 C2581 1.377 . S
C2597 C2595 1.389 . S
C2597 C2598 1.524 . S
C2598 C2597 1.524 . S
C2598 C2599 1.397 . S
C2598 C2603 1.363 . S
C2599 H2570 0.950 . S
C2599 C2598 1.397 . S
C2599 C2600 1.334 . S
C2600 H2571 0.950 . S
C2600 C2599 1.334 . S
C2600 C2601 1.287 . S
C2601 C2600 1.287 . S
C2601 C2602 1.524 . S
C2601 H2604 0.999 . S
C2602 H2572 0.950 . S
C2602 C2601 1.524 . S
C2602 C2603 1.415 . S
C2603 H2573 0.950 . S
C2603 C2598 1.363 . S
C2603 C2602 1.415 . S
H2604 C2601 0.999 . S
H2605 C2586 0.913 . S
H2606 C2624 0.951 . S
H2607 C2626 0.951 . S
H2608 C2628 0.950 . S
H2609 C2629 0.950 . S
H2610 C2631 0.950 . S
H2611 C2634 0.950 . S
H2612 C2635 0.950 . S
H2613 C2637 0.950 . S
H2614 C2638 0.950 . S
H2615 C2639 0.951 . S
H2616 C2641 0.951 . S
H2617 C2643 0.950 . S
H2618 C2644 0.950 . S
H2619 C2646 0.950 . S
H2620 C2649 0.950 . S
H2621 C2650 0.950 . S
H2622 C2652 0.950 . S
H2623 C2653 0.950 . S
C2624 H2606 0.951 . S
C2624 C2625 1.366 . S
C2624 C2626 1.388 . S
C2625 C2624 1.366 . S
C2625 C2629 1.385 . S
C2626 H2607 0.951 . S
C2626 C2624 1.388 . S
C2626 C2627 1.366 . S
C2627 C2626 1.366 . S
C2627 C2628 1.414 . S
C2627 C2630 1.499 . S
C2628 H2608 0.950 . S
C2628 C2627 1.414 . S
C2628 C2629 1.374 . S
C2629 H2609 0.950 . S
C2629 C2625 1.385 . S
C2629 C2628 1.374 . S
C2630 C2627 1.499 . S
C2630 C2631 1.373 . S
C2630 C2632 1.389 . S
C2631 H2610 0.950 . S
C2631 C2630 1.373 . S
C2631 C2647 1.377 . S
C2632 C2630 1.389 . S
C2632 C2633 1.524 . S
C2632 C2646 1.377 . S
C2633 C2632 1.524 . S
C2633 C2634 1.397 . S
C2633 C2638 1.363 . S
C2634 H2611 0.950 . S
C2634 C2633 1.397 . S
C2634 C2635 1.334 . S
C2635 H2612 0.950 . S
C2635 C2634 1.334 . S
C2635 C2636 1.287 . S
C2636 C2635 1.287 . S
C2636 C2637 1.524 . S
C2636 H2655 0.913 . S
C2637 H2613 0.950 . S
C2637 C2636 1.524 . S
C2637 C2638 1.415 . S
C2638 H2614 0.950 . S
C2638 C2633 1.363 . S
C2638 C2637 1.415 . S
C2639 H2615 0.951 . S
C2639 C2640 1.366 . S
C2639 C2641 1.388 1_455 S
C2640 C2639 1.366 . S
C2640 C2644 1.385 . S
C2641 H2616 0.951 . S
C2641 C2639 1.388 1_655 S
C2641 C2642 1.366 . S
C2642 C2641 1.366 . S
C2642 C2643 1.414 . S
C2642 C2645 1.499 . S
C2643 H2617 0.950 . S
C2643 C2642 1.414 . S
C2643 C2644 1.374 1_655 S
C2644 H2618 0.950 . S
C2644 C2640 1.385 . S
C2644 C2643 1.374 1_455 S
C2645 C2642 1.499 . S
C2645 C2646 1.373 . S
C2645 C2647 1.389 . S
C2646 H2619 0.950 . S
C2646 C2632 1.377 . S
C2646 C2645 1.373 . S
C2647 C2631 1.377 . S
C2647 C2645 1.389 . S
C2647 C2648 1.524 . S
C2648 C2647 1.524 . S
C2648 C2649 1.397 . S
C2648 C2653 1.363 . S
C2649 H2620 0.950 . S
C2649 C2648 1.397 . S
C2649 C2650 1.334 . S
C2650 H2621 0.950 . S
C2650 C2649 1.334 . S
C2650 C2651 1.287 . S
C2651 C2650 1.287 . S
C2651 C2652 1.524 . S
C2651 H2654 0.999 . S
C2652 H2622 0.950 . S
C2652 C2651 1.524 . S
C2652 C2653 1.415 . S
C2653 H2623 0.950 . S
C2653 C2648 1.363 . S
C2653 C2652 1.415 . S
H2654 C2651 0.999 . S
H2655 C2636 0.913 . S
H2656 C2674 0.951 . S
H2657 C2676 0.951 . S
H2658 C2678 0.950 . S
H2659 C2679 0.950 . S
H2660 C2681 0.950 . S
H2661 C2684 0.950 . S
H2662 C2685 0.950 . S
H2663 C2687 0.950 . S
H2664 C2688 0.950 . S
H2665 C2689 0.951 . S
H2666 C2691 0.951 . S
H2667 C2693 0.950 . S
H2668 C2694 0.950 . S
H2669 C2696 0.950 . S
H2670 C2699 0.950 . S
H2671 C2700 0.950 . S
H2672 C2702 0.950 . S
H2673 C2703 0.950 . S
C2674 H2656 0.951 . S
C2674 C2675 1.366 . S
C2674 C2676 1.388 . S
C2675 C2674 1.366 . S
C2675 C2679 1.385 . S
C2676 H2657 0.951 . S
C2676 C2674 1.388 . S
C2676 C2677 1.366 . S
C2677 C2676 1.366 . S
C2677 C2678 1.414 . S
C2677 C2680 1.499 . S
C2678 H2658 0.950 . S
C2678 C2677 1.414 . S
C2678 C2679 1.374 . S
C2679 H2659 0.950 . S
C2679 C2675 1.385 . S
C2679 C2678 1.374 . S
C2680 C2677 1.499 . S
C2680 C2681 1.373 . S
C2680 C2682 1.389 . S
C2681 H2660 0.950 . S
C2681 C2680 1.373 . S
C2681 C2697 1.377 . S
C2682 C2680 1.389 . S
C2682 C2683 1.524 . S
C2682 C2696 1.377 . S
C2683 C2682 1.524 . S
C2683 C2684 1.397 . S
C2683 C2688 1.363 . S
C2684 H2661 0.950 . S
C2684 C2683 1.397 . S
C2684 C2685 1.334 . S
C2685 H2662 0.950 . S
C2685 C2684 1.334 . S
C2685 C2686 1.287 . S
C2686 C2685 1.287 . S
C2686 C2687 1.524 . S
C2686 H2705 0.913 . S
C2687 H2663 0.950 . S
C2687 C2686 1.524 . S
C2687 C2688 1.415 . S
C2688 H2664 0.950 . S
C2688 C2683 1.363 . S
C2688 C2687 1.415 . S
C2689 H2665 0.951 . S
C2689 C2690 1.366 . S
C2689 C2691 1.388 . S
C2690 C2689 1.366 . S
C2690 C2694 1.385 . S
C2691 H2666 0.951 . S
C2691 C2689 1.388 . S
C2691 C2692 1.366 . S
C2692 C2691 1.366 . S
C2692 C2693 1.414 . S
C2692 C2695 1.499 . S
C2693 H2667 0.950 . S
C2693 C2692 1.414 . S
C2693 C2694 1.374 . S
C2694 H2668 0.950 . S
C2694 C2690 1.385 . S
C2694 C2693 1.374 . S
C2695 C2692 1.499 . S
C2695 C2696 1.373 . S
C2695 C2697 1.389 . S
C2696 H2669 0.950 . S
C2696 C2682 1.377 . S
C2696 C2695 1.373 . S
C2697 C2681 1.377 . S
C2697 C2695 1.389 . S
C2697 C2698 1.524 . S
C2698 C2697 1.524 . S
C2698 C2699 1.397 . S
C2698 C2703 1.363 . S
C2699 H2670 0.950 . S
C2699 C2698 1.397 . S
C2699 C2700 1.334 . S
C2700 H2671 0.950 . S
C2700 C2699 1.334 . S
C2700 C2701 1.287 . S
C2701 C2700 1.287 . S
C2701 C2702 1.524 . S
C2701 H2704 0.999 . S
C2702 H2672 0.950 . S
C2702 C2701 1.524 . S
C2702 C2703 1.415 . S
C2703 H2673 0.950 . S
C2703 C2698 1.363 . S
C2703 C2702 1.415 . S
H2704 C2701 0.999 . S
H2705 C2686 0.913 . S
H2706 C2724 0.951 . S
H2707 C2726 0.951 . S
H2708 C2728 0.950 . S
H2709 C2729 0.950 . S
H2710 C2731 0.950 . S
H2711 C2734 0.950 . S
H2712 C2735 0.950 . S
H2713 C2737 0.950 . S
H2714 C2738 0.950 . S
H2715 C2739 0.951 . S
H2716 C2741 0.951 . S
H2717 C2743 0.950 . S
H2718 C2744 0.950 . S
H2719 C2746 0.950 . S
H2720 C2749 0.950 . S
H2721 C2750 0.950 . S
H2722 C2752 0.950 . S
H2723 C2753 0.950 . S
C2724 H2706 0.951 . S
C2724 C2725 1.366 . S
C2724 C2726 1.388 . S
C2725 C2724 1.366 . S
C2725 C2729 1.385 . S
C2726 H2707 0.951 . S
C2726 C2724 1.388 . S
C2726 C2727 1.366 . S
C2727 C2726 1.366 . S
C2727 C2728 1.414 . S
C2727 C2730 1.499 . S
C2728 H2708 0.950 . S
C2728 C2727 1.414 . S
C2728 C2729 1.374 . S
C2729 H2709 0.950 . S
C2729 C2725 1.385 . S
C2729 C2728 1.374 . S
C2730 C2727 1.499 . S
C2730 C2731 1.373 . S
C2730 C2732 1.389 . S
C2731 H2710 0.950 . S
C2731 C2730 1.373 . S
C2731 C2747 1.377 . S
C2732 C2730 1.389 . S
C2732 C2733 1.524 . S
C2732 C2746 1.377 . S
C2733 C2732 1.524 . S
C2733 C2734 1.397 . S
C2733 C2738 1.363 . S
C2734 H2711 0.950 . S
C2734 C2733 1.397 . S
C2734 C2735 1.334 . S
C2735 H2712 0.950 . S
C2735 C2734 1.334 . S
C2735 C2736 1.287 . S
C2736 C2735 1.287 . S
C2736 C2737 1.524 . S
C2736 H2755 0.913 . S
C2737 H2713 0.950 . S
C2737 C2736 1.524 . S
C2737 C2738 1.415 . S
C2738 H2714 0.950 . S
C2738 C2733 1.363 . S
C2738 C2737 1.415 . S
C2739 H2715 0.951 . S
C2739 C2740 1.366 . S
C2739 C2741 1.388 . S
C2740 C2739 1.366 . S
C2740 C2744 1.385 . S
C2741 H2716 0.951 . S
C2741 C2739 1.388 . S
C2741 C2742 1.366 . S
C2742 C2741 1.366 . S
C2742 C2743 1.414 . S
C2742 C2745 1.499 . S
C2743 H2717 0.950 . S
C2743 C2742 1.414 . S
C2743 C2744 1.374 . S
C2744 H2718 0.950 . S
C2744 C2740 1.385 . S
C2744 C2743 1.374 . S
C2745 C2742 1.499 . S
C2745 C2746 1.373 . S
C2745 C2747 1.389 . S
C2746 H2719 0.950 . S
C2746 C2732 1.377 . S
C2746 C2745 1.373 . S
C2747 C2731 1.377 . S
C2747 C2745 1.389 . S
C2747 C2748 1.524 . S
C2748 C2747 1.524 . S
C2748 C2749 1.397 . S
C2748 C2753 1.363 . S
C2749 H2720 0.950 . S
C2749 C2748 1.397 . S
C2749 C2750 1.334 . S
C2750 H2721 0.950 . S
C2750 C2749 1.334 . S
C2750 C2751 1.287 . S
C2751 C2750 1.287 . S
C2751 C2752 1.524 . S
C2751 H2754 0.999 . S
C2752 H2722 0.950 . S
C2752 C2751 1.524 . S
C2752 C2753 1.415 . S
C2753 H2723 0.950 . S
C2753 C2748 1.363 . S
C2753 C2752 1.415 . S
H2754 C2751 0.999 . S
H2755 C2736 0.913 . S
H2756 C2774 0.951 . S
H2757 C2776 0.951 . S
H2758 C2778 0.950 . S
H2759 C2779 0.950 . S
H2760 C2781 0.950 . S
H2761 C2784 0.950 . S
H2762 C2785 0.950 . S
H2763 C2787 0.950 . S
H2764 C2788 0.950 . S
H2765 C2789 0.951 . S
H2766 C2791 0.951 . S
H2767 C2793 0.950 . S
H2768 C2794 0.950 . S
H2769 C2796 0.950 . S
H2770 C2799 0.950 . S
H2771 C2800 0.950 . S
H2772 C2802 0.950 . S
H2773 C2803 0.950 . S
C2774 H2756 0.951 . S
C2774 C2775 1.366 . S
C2774 C2776 1.388 . S
C2775 C2774 1.366 . S
C2775 C2779 1.385 . S
C2776 H2757 0.951 . S
C2776 C2774 1.388 . S
C2776 C2777 1.366 . S
C2777 C2776 1.366 . S
C2777 C2778 1.414 . S
C2777 C2780 1.499 . S
C2778 H2758 0.950 . S
C2778 C2777 1.414 . S
C2778 C2779 1.374 . S
C2779 H2759 0.950 . S
C2779 C2775 1.385 . S
C2779 C2778 1.374 . S
C2780 C2777 1.499 . S
C2780 C2781 1.373 . S
C2780 C2782 1.389 . S
C2781 H2760 0.950 . S
C2781 C2780 1.373 . S
C2781 C2797 1.377 . S
C2782 C2780 1.389 . S
C2782 C2783 1.524 . S
C2782 C2796 1.377 . S
C2783 C2782 1.524 . S
C2783 C2784 1.397 . S
C2783 C2788 1.363 . S
C2784 H2761 0.950 . S
C2784 C2783 1.397 . S
C2784 C2785 1.334 . S
C2785 H2762 0.950 . S
C2785 C2784 1.334 . S
C2785 C2786 1.287 . S
C2786 C2785 1.287 . S
C2786 C2787 1.524 . S
C2786 H2805 0.913 . S
C2787 H2763 0.950 . S
C2787 C2786 1.524 . S
C2787 C2788 1.415 . S
C2788 H2764 0.950 . S
C2788 C2783 1.363 . S
C2788 C2787 1.415 . S
C2789 H2765 0.951 . S
C2789 C2790 1.366 . S
C2789 C2791 1.388 . S
C2790 C2789 1.366 . S
C2790 C2794 1.385 . S
C2791 H2766 0.951 . S
C2791 C2789 1.388 . S
C2791 C2792 1.366 . S
C2792 C2791 1.366 . S
C2792 C2793 1.414 . S
C2792 C2795 1.499 . S
C2793 H2767 0.950 . S
C2793 C2792 1.414 . S
C2793 C2794 1.374 . S
C2794 H2768 0.950 . S
C2794 C2790 1.385 . S
C2794 C2793 1.374 . S
C2795 C2792 1.499 . S
C2795 C2796 1.373 . S
C2795 C2797 1.389 . S
C2796 H2769 0.950 . S
C2796 C2782 1.377 . S
C2796 C2795 1.373 . S
C2797 C2781 1.377 . S
C2797 C2795 1.389 . S
C2797 C2798 1.524 . S
C2798 C2797 1.524 . S
C2798 C2799 1.397 . S
C2798 C2803 1.363 . S
C2799 H2770 0.950 . S
C2799 C2798 1.397 . S
C2799 C2800 1.334 . S
C2800 H2771 0.950 . S
C2800 C2799 1.334 . S
C2800 C2801 1.287 . S
C2801 C2800 1.287 . S
C2801 C2802 1.524 . S
C2801 H2804 0.999 . S
C2802 H2772 0.950 . S
C2802 C2801 1.524 . S
C2802 C2803 1.415 . S
C2803 H2773 0.950 . S
C2803 C2798 1.363 . S
C2803 C2802 1.415 . S
H2804 C2801 0.999 . S
H2805 C2786 0.913 . S
H2806 C2824 0.951 . S
H2807 C2826 0.951 . S
H2808 C2828 0.950 . S
H2809 C2829 0.950 . S
H2810 C2831 0.950 . S
H2811 C2834 0.950 . S
H2812 C2835 0.950 . S
H2813 C2837 0.950 . S
H2814 C2838 0.950 . S
H2815 C2839 0.951 . S
H2816 C2841 0.951 . S
H2817 C2843 0.950 . S
H2818 C2844 0.950 . S
H2819 C2846 0.950 . S
H2820 C2849 0.950 . S
H2821 C2850 0.950 . S
H2822 C2852 0.950 . S
H2823 C2853 0.950 . S
C2824 H2806 0.951 . S
C2824 C2825 1.366 . S
C2824 C2826 1.388 . S
C2825 C2824 1.366 . S
C2825 C2829 1.385 . S
C2826 H2807 0.951 . S
C2826 C2824 1.388 . S
C2826 C2827 1.366 . S
C2827 C2826 1.366 . S
C2827 C2828 1.414 . S
C2827 C2830 1.499 . S
C2828 H2808 0.950 . S
C2828 C2827 1.414 . S
C2828 C2829 1.374 . S
C2829 H2809 0.950 . S
C2829 C2825 1.385 . S
C2829 C2828 1.374 . S
C2830 C2827 1.499 . S
C2830 C2831 1.373 . S
C2830 C2832 1.389 . S
C2831 H2810 0.950 . S
C2831 C2830 1.373 . S
C2831 C2847 1.377 . S
C2832 C2830 1.389 . S
C2832 C2833 1.524 . S
C2832 C2846 1.377 . S
C2833 C2832 1.524 . S
C2833 C2834 1.397 . S
C2833 C2838 1.363 . S
C2834 H2811 0.950 . S
C2834 C2833 1.397 . S
C2834 C2835 1.334 . S
C2835 H2812 0.950 . S
C2835 C2834 1.334 . S
C2835 C2836 1.287 . S
C2836 C2835 1.287 . S
C2836 C2837 1.524 . S
C2836 H2855 0.913 . S
C2837 H2813 0.950 . S
C2837 C2836 1.524 . S
C2837 C2838 1.415 . S
C2838 H2814 0.950 . S
C2838 C2833 1.363 . S
C2838 C2837 1.415 . S
C2839 H2815 0.951 . S
C2839 C2840 1.366 . S
C2839 C2841 1.388 . S
C2840 C2839 1.366 . S
C2840 C2844 1.385 . S
C2841 H2816 0.951 . S
C2841 C2839 1.388 . S
C2841 C2842 1.366 . S
C2842 C2841 1.366 . S
C2842 C2843 1.414 . S
C2842 C2845 1.499 . S
C2843 H2817 0.950 . S
C2843 C2842 1.414 . S
C2843 C2844 1.374 . S
C2844 H2818 0.950 . S
C2844 C2840 1.385 . S
C2844 C2843 1.374 . S
C2845 C2842 1.499 . S
C2845 C2846 1.373 . S
C2845 C2847 1.389 . S
C2846 H2819 0.950 . S
C2846 C2832 1.377 . S
C2846 C2845 1.373 . S
C2847 C2831 1.377 . S
C2847 C2845 1.389 . S
C2847 C2848 1.524 . S
C2848 C2847 1.524 . S
C2848 C2849 1.397 . S
C2848 C2853 1.363 . S
C2849 H2820 0.950 . S
C2849 C2848 1.397 . S
C2849 C2850 1.334 . S
C2850 H2821 0.950 . S
C2850 C2849 1.334 . S
C2850 C2851 1.287 . S
C2851 C2850 1.287 . S
C2851 C2852 1.524 . S
C2851 H2854 0.999 . S
C2852 H2822 0.950 . S
C2852 C2851 1.524 . S
C2852 C2853 1.415 . S
C2853 H2823 0.950 . S
C2853 C2848 1.363 . S
C2853 C2852 1.415 . S
H2854 C2851 0.999 . S
H2855 C2836 0.913 . S
H2856 C2874 0.951 . S
H2857 C2876 0.951 . S
H2858 C2878 0.950 . S
H2859 C2879 0.950 . S
H2860 C2881 0.950 . S
H2861 C2884 0.950 . S
H2862 C2885 0.950 . S
H2863 C2887 0.950 1_655 S
H2864 C2888 0.950 . S
H2865 C2889 0.925 1_556 S
H2866 C2891 0.951 . S
H2867 C2893 0.950 . S
H2868 C2894 0.950 . S
H2869 C2896 0.950 . S
H2870 C2899 0.950 . S
H2871 C2900 0.950 . S
H2872 C2902 0.950 . S
H2873 C2903 0.950 . S
C2874 H2856 0.951 . S
C2874 C2875 1.366 . S
C2874 C2876 1.388 . S
C2875 C2874 1.366 . S
C2875 C2879 1.385 . S
C2876 H2857 0.951 . S
C2876 C2874 1.388 . S
C2876 C2877 1.366 . S
C2877 C2876 1.366 . S
C2877 C2878 1.414 . S
C2877 C2880 1.499 . S
C2878 H2858 0.950 . S
C2878 C2877 1.414 . S
C2878 C2879 1.374 . S
C2879 H2859 0.950 . S
C2879 C2875 1.385 . S
C2879 C2878 1.374 . S
C2880 C2877 1.499 . S
C2880 C2881 1.373 . S
C2880 C2882 1.389 . S
C2881 H2860 0.950 . S
C2881 C2880 1.373 . S
C2881 C2897 1.377 . S
C2882 C2880 1.389 . S
C2882 C2883 1.524 . S
C2882 C2896 1.377 . S
C2883 C2882 1.524 . S
C2883 C2884 1.397 . S
C2883 C2888 1.363 . S
C2884 H2861 0.950 . S
C2884 C2883 1.397 . S
C2884 C2885 1.334 . S
C2885 H2862 0.950 . S
C2885 C2884 1.334 . S
C2885 C2886 1.287 . S
C2886 C2885 1.287 . S
C2886 C2887 1.524 . S
C2886 H2905 0.913 1_455 S
C2887 H2863 0.950 1_455 S
C2887 C2886 1.524 . S
C2887 C2888 1.415 . S
C2888 H2864 0.950 . S
C2888 C2883 1.363 . S
C2888 C2887 1.415 . S
C2889 H2865 0.925 1_554 S
C2889 C2890 1.366 . S
C2889 C2891 1.388 . S
C2890 C2889 1.366 . S
C2890 C2894 1.385 . S
C2891 H2866 0.951 . S
C2891 C2889 1.388 . S
C2891 C2892 1.366 . S
C2892 C2891 1.366 . S
C2892 C2893 1.414 . S
C2892 C2895 1.499 . S
C2893 H2867 0.950 . S
C2893 C2892 1.414 . S
C2893 C2894 1.374 . S
C2894 H2868 0.950 . S
C2894 C2890 1.385 . S
C2894 C2893 1.374 . S
C2895 C2892 1.499 . S
C2895 C2896 1.373 . S
C2895 C2897 1.389 . S
C2896 H2869 0.950 . S
C2896 C2882 1.377 . S
C2896 C2895 1.373 . S
C2897 C2881 1.377 . S
C2897 C2895 1.389 . S
C2897 C2898 1.524 . S
C2898 C2897 1.524 . S
C2898 C2899 1.397 . S
C2898 C2903 1.363 . S
C2899 H2870 0.950 . S
C2899 C2898 1.397 . S
C2899 C2900 1.334 . S
C2900 H2871 0.950 . S
C2900 C2899 1.334 . S
C2900 C2901 1.287 . S
C2901 C2900 1.287 . S
C2901 C2902 1.524 . S
C2901 H2904 0.999 . S
C2902 H2872 0.950 . S
C2902 C2901 1.524 . S
C2902 C2903 1.415 . S
C2903 H2873 0.950 . S
C2903 C2898 1.363 . S
C2903 C2902 1.415 . S
H2904 C2901 0.999 . S
H2905 C2886 0.913 1_655 S
H2906 C2924 0.951 . S
H2907 C2926 0.951 . S
H2908 C2928 0.950 . S
H2909 C2929 0.950 . S
H2910 C2931 0.950 . S
H2911 C2934 0.950 . S
H2912 C2935 0.950 . S
H2913 C2937 0.950 . S
H2914 C2938 0.950 . S
H2915 C2939 0.951 . S
H2916 C2941 0.951 . S
H2917 C2943 0.950 . S
H2918 C2944 0.950 . S
H2919 C2946 0.950 . S
H2920 C2949 0.950 . S
H2921 C2950 0.950 . S
H2922 C2952 0.950 . S
H2923 C2953 0.950 . S
C2924 H2906 0.951 . S
C2924 C2925 1.366 . S
C2924 C2926 1.388 . S
C2925 C2924 1.366 . S
C2925 C2929 1.385 . S
C2926 H2907 0.951 . S
C2926 C2924 1.388 . S
C2926 C2927 1.366 . S
C2927 C2926 1.366 . S
C2927 C2928 1.414 . S
C2927 C2930 1.499 . S
C2928 H2908 0.950 . S
C2928 C2927 1.414 . S
C2928 C2929 1.374 . S
C2929 H2909 0.950 . S
C2929 C2925 1.385 . S
C2929 C2928 1.374 . S
C2930 C2927 1.499 . S
C2930 C2931 1.373 . S
C2930 C2932 1.389 . S
C2931 H2910 0.950 . S
C2931 C2930 1.373 . S
C2931 C2947 1.377 . S
C2932 C2930 1.389 . S
C2932 C2933 1.524 . S
C2932 C2946 1.377 . S
C2933 C2932 1.524 . S
C2933 C2934 1.397 . S
C2933 C2938 1.363 . S
C2934 H2911 0.950 . S
C2934 C2933 1.397 . S
C2934 C2935 1.334 . S
C2935 H2912 0.950 . S
C2935 C2934 1.334 . S
C2935 C2936 1.287 . S
C2936 C2935 1.287 . S
C2936 C2937 1.524 . S
C2936 H2955 0.913 . S
C2937 H2913 0.950 . S
C2937 C2936 1.524 . S
C2937 C2938 1.415 . S
C2938 H2914 0.950 . S
C2938 C2933 1.363 . S
C2938 C2937 1.415 . S
C2939 H2915 0.951 . S
C2939 C2940 1.366 . S
C2939 C2941 1.388 . S
C2940 C2939 1.366 . S
C2940 C2944 1.385 . S
C2941 H2916 0.951 . S
C2941 C2939 1.388 . S
C2941 C2942 1.366 . S
C2942 C2941 1.366 . S
C2942 C2943 1.414 . S
C2942 C2945 1.499 . S
C2943 H2917 0.950 . S
C2943 C2942 1.414 . S
C2943 C2944 1.374 . S
C2944 H2918 0.950 . S
C2944 C2940 1.385 . S
C2944 C2943 1.374 . S
C2945 C2942 1.499 . S
C2945 C2946 1.373 . S
C2945 C2947 1.389 . S
C2946 H2919 0.950 . S
C2946 C2932 1.377 . S
C2946 C2945 1.373 . S
C2947 C2931 1.377 . S
C2947 C2945 1.389 . S
C2947 C2948 1.524 . S
C2948 C2947 1.524 . S
C2948 C2949 1.397 . S
C2948 C2953 1.363 . S
C2949 H2920 0.950 . S
C2949 C2948 1.397 . S
C2949 C2950 1.334 . S
C2950 H2921 0.950 . S
C2950 C2949 1.334 . S
C2950 C2951 1.287 . S
C2951 C2950 1.287 . S
C2951 C2952 1.524 . S
C2951 H2954 0.999 . S
C2952 H2922 0.950 . S
C2952 C2951 1.524 . S
C2952 C2953 1.415 . S
C2953 H2923 0.950 . S
C2953 C2948 1.363 . S
C2953 C2952 1.415 . S
H2954 C2951 0.999 . S
H2955 C2936 0.913 . S
H2956 C2974 0.951 . S
H2957 C2976 0.951 . S
H2958 C2978 0.950 . S
H2959 C2979 0.950 . S
H2960 C2981 0.950 . S
H2961 C2984 0.950 . S
H2962 C2985 0.950 . S
H2963 C2987 0.950 . S
H2964 C2988 0.950 . S
H2965 C2989 0.951 . S
H2966 C2991 0.951 . S
H2967 C2993 0.950 . S
H2968 C2994 0.950 . S
H2969 C2996 0.950 . S
H2970 C2999 0.950 . S
H2971 C3000 0.950 . S
H2972 C3002 0.950 . S
H2973 C3003 0.950 . S
C2974 H2956 0.951 . S
C2974 C2975 1.366 . S
C2974 C2976 1.388 . S
C2975 C2974 1.366 . S
C2975 C2979 1.385 . S
C2976 H2957 0.951 . S
C2976 C2974 1.388 . S
C2976 C2977 1.366 . S
C2977 C2976 1.366 . S
C2977 C2978 1.414 . S
C2977 C2980 1.499 . S
C2978 H2958 0.950 . S
C2978 C2977 1.414 . S
C2978 C2979 1.374 . S
C2979 H2959 0.950 . S
C2979 C2975 1.385 . S
C2979 C2978 1.374 . S
C2980 C2977 1.499 . S
C2980 C2981 1.373 . S
C2980 C2982 1.389 . S
C2981 H2960 0.950 . S
C2981 C2980 1.373 . S
C2981 C2997 1.377 . S
C2982 C2980 1.389 . S
C2982 C2983 1.524 . S
C2982 C2996 1.377 . S
C2983 C2982 1.524 . S
C2983 C2984 1.397 . S
C2983 C2988 1.363 . S
C2984 H2961 0.950 . S
C2984 C2983 1.397 . S
C2984 C2985 1.334 . S
C2985 H2962 0.950 . S
C2985 C2984 1.334 . S
C2985 C2986 1.287 . S
C2986 C2985 1.287 . S
C2986 C2987 1.524 . S
C2986 H3005 0.913 . S
C2987 H2963 0.950 . S
C2987 C2986 1.524 . S
C2987 C2988 1.415 . S
C2988 H2964 0.950 . S
C2988 C2983 1.363 . S
C2988 C2987 1.415 . S
C2989 H2965 0.951 . S
C2989 C2990 1.366 . S
C2989 C2991 1.388 . S
C2990 C2989 1.366 . S
C2990 C2994 1.385 . S
C2991 H2966 0.951 . S
C2991 C2989 1.388 . S
C2991 C2992 1.366 . S
C2992 C2991 1.366 . S
C2992 C2993 1.414 . S
C2992 C2995 1.499 . S
C2993 H2967 0.950 . S
C2993 C2992 1.414 . S
C2993 C2994 1.374 . S
C2994 H2968 0.950 . S
C2994 C2990 1.385 . S
C2994 C2993 1.374 . S
C2995 C2992 1.499 . S
C2995 C2996 1.373 . S
C2995 C2997 1.389 . S
C2996 H2969 0.950 . S
C2996 C2982 1.377 . S
C2996 C2995 1.373 . S
C2997 C2981 1.377 . S
C2997 C2995 1.389 . S
C2997 C2998 1.524 . S
C2998 C2997 1.524 . S
C2998 C2999 1.397 . S
C2998 C3003 1.363 . S
C2999 H2970 0.950 . S
C2999 C2998 1.397 . S
C2999 C3000 1.334 . S
C3000 H2971 0.950 . S
C3000 C2999 1.334 . S
C3000 C3001 1.287 . S
C3001 C3000 1.287 . S
C3001 C3002 1.524 . S
C3001 H3004 0.999 . S
C3002 H2972 0.950 . S
C3002 C3001 1.524 . S
C3002 C3003 1.415 . S
C3003 H2973 0.950 . S
C3003 C2998 1.363 . S
C3003 C3002 1.415 . S
H3004 C3001 0.999 . S
H3005 C2986 0.913 . S
H3006 C3024 0.951 . S
H3007 C3026 0.951 . S
H3008 C3028 0.950 . S
H3009 C3029 0.950 . S
H3010 C3031 0.950 . S
H3011 C3034 0.950 . S
H3012 C3035 0.950 . S
H3013 C3037 0.950 . S
H3014 C3038 0.950 . S
H3015 C3039 0.951 . S
H3016 C3041 0.951 . S
H3017 C3043 0.950 . S
H3018 C3044 0.950 . S
H3019 C3046 0.950 . S
H3020 C3049 0.950 . S
H3021 C3050 0.950 . S
H3022 C3052 0.950 . S
H3023 C3053 0.950 . S
C3024 H3006 0.951 . S
C3024 C3025 1.366 . S
C3024 C3026 1.388 . S
C3025 C3024 1.366 . S
C3025 C3029 1.385 . S
C3026 H3007 0.951 . S
C3026 C3024 1.388 . S
C3026 C3027 1.366 . S
C3027 C3026 1.366 . S
C3027 C3028 1.414 . S
C3027 C3030 1.499 . S
C3028 H3008 0.950 . S
C3028 C3027 1.414 . S
C3028 C3029 1.374 . S
C3029 H3009 0.950 . S
C3029 C3025 1.385 . S
C3029 C3028 1.374 . S
C3030 C3027 1.499 . S
C3030 C3031 1.373 . S
C3030 C3032 1.389 . S
C3031 H3010 0.950 . S
C3031 C3030 1.373 . S
C3031 C3047 1.377 . S
C3032 C3030 1.389 . S
C3032 C3033 1.524 . S
C3032 C3046 1.377 . S
C3033 C3032 1.524 . S
C3033 C3034 1.397 . S
C3033 C3038 1.363 . S
C3034 H3011 0.950 . S
C3034 C3033 1.397 . S
C3034 C3035 1.334 . S
C3035 H3012 0.950 . S
C3035 C3034 1.334 . S
C3035 C3036 1.287 . S
C3036 C3035 1.287 . S
C3036 C3037 1.524 . S
C3036 H3055 0.913 . S
C3037 H3013 0.950 . S
C3037 C3036 1.524 . S
C3037 C3038 1.415 . S
C3038 H3014 0.950 . S
C3038 C3033 1.363 . S
C3038 C3037 1.415 . S
C3039 H3015 0.951 . S
C3039 C3040 1.366 . S
C3039 C3041 1.388 . S
C3040 C3039 1.366 . S
C3040 C3044 1.385 . S
C3041 H3016 0.951 . S
C3041 C3039 1.388 . S
C3041 C3042 1.366 . S
C3042 C3041 1.366 . S
C3042 C3043 1.414 . S
C3042 C3045 1.499 . S
C3043 H3017 0.950 . S
C3043 C3042 1.414 . S
C3043 C3044 1.374 . S
C3044 H3018 0.950 . S
C3044 C3040 1.385 . S
C3044 C3043 1.374 . S
C3045 C3042 1.499 . S
C3045 C3046 1.373 . S
C3045 C3047 1.389 . S
C3046 H3019 0.950 . S
C3046 C3032 1.377 . S
C3046 C3045 1.373 . S
C3047 C3031 1.377 . S
C3047 C3045 1.389 . S
C3047 C3048 1.524 . S
C3048 C3047 1.524 . S
C3048 C3049 1.397 . S
C3048 C3053 1.363 . S
C3049 H3020 0.950 . S
C3049 C3048 1.397 . S
C3049 C3050 1.334 . S
C3050 H3021 0.950 . S
C3050 C3049 1.334 . S
C3050 C3051 1.287 . S
C3051 C3050 1.287 . S
C3051 C3052 1.524 . S
C3051 H3054 0.999 . S
C3052 H3022 0.950 . S
C3052 C3051 1.524 . S
C3052 C3053 1.415 . S
C3053 H3023 0.950 . S
C3053 C3048 1.363 . S
C3053 C3052 1.415 . S
H3054 C3051 0.999 . S
H3055 C3036 0.913 . S
H3056 C3074 0.951 . S
H3057 C3076 0.951 . S
H3058 C3078 0.950 . S
H3059 C3079 0.950 . S
H3060 C3081 0.950 . S
H3061 C3084 0.950 . S
H3062 C3085 0.950 . S
H3063 C3087 0.950 . S
H3064 C3088 0.950 . S
H3065 C3089 0.951 . S
H3066 C3091 0.951 . S
H3067 C3093 0.950 . S
H3068 C3094 0.950 . S
H3069 C3096 0.950 . S
H3070 C3099 0.950 . S
H3071 C3100 0.950 . S
H3072 C3102 0.950 . S
H3073 C3103 0.950 . S
C3074 H3056 0.951 . S
C3074 C3075 1.366 . S
C3074 C3076 1.388 . S
C3075 C3074 1.366 . S
C3075 C3079 1.385 . S
C3076 H3057 0.951 . S
C3076 C3074 1.388 . S
C3076 C3077 1.366 . S
C3077 C3076 1.366 . S
C3077 C3078 1.414 . S
C3077 C3080 1.499 . S
C3078 H3058 0.950 . S
C3078 C3077 1.414 . S
C3078 C3079 1.374 . S
C3079 H3059 0.950 . S
C3079 C3075 1.385 . S
C3079 C3078 1.374 . S
C3080 C3077 1.499 . S
C3080 C3081 1.373 . S
C3080 C3082 1.389 . S
C3081 H3060 0.950 . S
C3081 C3080 1.373 . S
C3081 C3097 1.377 . S
C3082 C3080 1.389 . S
C3082 C3083 1.524 . S
C3082 C3096 1.377 . S
C3083 C3082 1.524 . S
C3083 C3084 1.397 . S
C3083 C3088 1.363 . S
C3084 H3061 0.950 . S
C3084 C3083 1.397 . S
C3084 C3085 1.334 . S
C3085 H3062 0.950 . S
C3085 C3084 1.334 . S
C3085 C3086 1.287 . S
C3086 C3085 1.287 . S
C3086 C3087 1.524 . S
C3086 H3105 0.913 . S
C3087 H3063 0.950 . S
C3087 C3086 1.524 . S
C3087 C3088 1.415 . S
C3088 H3064 0.950 . S
C3088 C3083 1.363 . S
C3088 C3087 1.415 . S
C3089 H3065 0.951 . S
C3089 C3090 1.366 . S
C3089 C3091 1.388 . S
C3090 C3089 1.366 . S
C3090 C3094 1.385 . S
C3091 H3066 0.951 . S
C3091 C3089 1.388 . S
C3091 C3092 1.366 . S
C3092 C3091 1.366 . S
C3092 C3093 1.414 . S
C3092 C3095 1.499 . S
C3093 H3067 0.950 . S
C3093 C3092 1.414 . S
C3093 C3094 1.374 . S
C3094 H3068 0.950 . S
C3094 C3090 1.385 . S
C3094 C3093 1.374 . S
C3095 C3092 1.499 . S
C3095 C3096 1.373 . S
C3095 C3097 1.389 . S
C3096 H3069 0.950 . S
C3096 C3082 1.377 . S
C3096 C3095 1.373 . S
C3097 C3081 1.377 . S
C3097 C3095 1.389 . S
C3097 C3098 1.524 . S
C3098 C3097 1.524 . S
C3098 C3099 1.397 . S
C3098 C3103 1.363 . S
C3099 H3070 0.950 . S
C3099 C3098 1.397 . S
C3099 C3100 1.334 . S
C3100 H3071 0.950 . S
C3100 C3099 1.334 . S
C3100 C3101 1.287 . S
C3101 C3100 1.287 . S
C3101 C3102 1.524 . S
C3101 H3104 0.999 . S
C3102 H3072 0.950 . S
C3102 C3101 1.524 . S
C3102 C3103 1.415 . S
C3103 H3073 0.950 . S
C3103 C3098 1.363 . S
C3103 C3102 1.415 . S
H3104 C3101 0.999 . S
H3105 C3086 0.913 . S
H3106 C3124 0.951 . S
H3107 C3126 0.951 . S
H3108 C3128 0.950 . S
H3109 C3129 0.950 . S
H3110 C3131 0.950 . S
H3111 C3134 0.950 . S
H3112 C3135 0.950 . S
H3113 C3137 0.950 . S
H3114 C3138 0.950 . S
H3115 C3139 0.951 . S
H3116 C3141 0.951 . S
H3117 C3143 0.950 . S
H3118 C3144 0.950 . S
H3119 C3146 0.950 . S
H3120 C3149 0.950 . S
H3121 C3150 0.950 . S
H3122 C3152 0.950 . S
H3123 C3153 0.950 . S
C3124 H3106 0.951 . S
C3124 C3125 1.366 . S
C3124 C3126 1.388 . S
C3125 C3124 1.366 . S
C3125 C3129 1.385 . S
C3126 H3107 0.951 . S
C3126 C3124 1.388 . S
C3126 C3127 1.366 . S
C3127 C3126 1.366 . S
C3127 C3128 1.414 . S
C3127 C3130 1.499 . S
C3128 H3108 0.950 . S
C3128 C3127 1.414 . S
C3128 C3129 1.374 . S
C3129 H3109 0.950 . S
C3129 C3125 1.385 . S
C3129 C3128 1.374 . S
C3130 C3127 1.499 . S
C3130 C3131 1.373 . S
C3130 C3132 1.389 . S
C3131 H3110 0.950 . S
C3131 C3130 1.373 . S
C3131 C3147 1.377 . S
C3132 C3130 1.389 . S
C3132 C3133 1.524 . S
C3132 C3146 1.377 . S
C3133 C3132 1.524 . S
C3133 C3134 1.397 . S
C3133 C3138 1.363 . S
C3134 H3111 0.950 . S
C3134 C3133 1.397 . S
C3134 C3135 1.334 . S
C3135 H3112 0.950 . S
C3135 C3134 1.334 . S
C3135 C3136 1.287 . S
C3136 C3135 1.287 . S
C3136 C3137 1.524 . S
C3136 H3155 0.913 . S
C3137 H3113 0.950 . S
C3137 C3136 1.524 . S
C3137 C3138 1.415 . S
C3138 H3114 0.950 . S
C3138 C3133 1.363 . S
C3138 C3137 1.415 . S
C3139 H3115 0.951 . S
C3139 C3140 1.366 . S
C3139 C3141 1.388 . S
C3140 C3139 1.366 . S
C3140 C3144 1.385 . S
C3141 H3116 0.951 . S
C3141 C3139 1.388 . S
C3141 C3142 1.366 . S
C3142 C3141 1.366 . S
C3142 C3143 1.414 . S
C3142 C3145 1.499 . S
C3143 H3117 0.950 . S
C3143 C3142 1.414 . S
C3143 C3144 1.374 . S
C3144 H3118 0.950 . S
C3144 C3140 1.385 . S
C3144 C3143 1.374 . S
C3145 C3142 1.499 . S
C3145 C3146 1.373 . S
C3145 C3147 1.389 . S
C3146 H3119 0.950 . S
C3146 C3132 1.377 . S
C3146 C3145 1.373 . S
C3147 C3131 1.377 . S
C3147 C3145 1.389 . S
C3147 C3148 1.524 . S
C3148 C3147 1.524 . S
C3148 C3149 1.397 . S
C3148 C3153 1.363 . S
C3149 H3120 0.950 . S
C3149 C3148 1.397 . S
C3149 C3150 1.334 . S
C3150 H3121 0.950 . S
C3150 C3149 1.334 . S
C3150 C3151 1.287 . S
C3151 C3150 1.287 . S
C3151 C3152 1.524 . S
C3151 H3154 0.999 . S
C3152 H3122 0.950 . S
C3152 C3151 1.524 . S
C3152 C3153 1.415 . S
C3153 H3123 0.950 . S
C3153 C3148 1.363 . S
C3153 C3152 1.415 . S
H3154 C3151 0.999 . S
H3155 C3136 0.913 . S
H3156 C3174 0.951 . S
H3157 C3176 0.951 . S
H3158 C3178 0.950 . S
H3159 C3179 0.950 . S
H3160 C3181 0.950 . S
H3161 C3184 0.950 . S
H3162 C3185 0.950 . S
H3163 C3187 0.950 1_554 S
H3164 C3188 0.950 . S
H3165 C3189 0.971 . S
H3166 C3191 0.951 . S
H3167 C3193 0.950 1_554 S
H3168 C3194 0.950 . S
H3169 C3196 0.950 . S
H3170 C3199 0.950 . S
H3171 C3200 0.949 1_545 S
H3172 C3202 0.950 . S
H3173 C3203 0.950 . S
C3174 H3156 0.951 . S
C3174 C3175 1.366 . S
C3174 C3176 1.388 . S
C3175 C3174 1.366 . S
C3175 C3179 1.385 . S
C3176 H3157 0.951 . S
C3176 C3174 1.388 . S
C3176 C3177 1.366 . S
C3177 C3176 1.366 . S
C3177 C3178 1.414 . S
C3177 C3180 1.499 . S
C3178 H3158 0.950 . S
C3178 C3177 1.414 . S
C3178 C3179 1.374 . S
C3179 H3159 0.950 . S
C3179 C3175 1.385 . S
C3179 C3178 1.374 . S
C3180 C3177 1.499 . S
C3180 C3181 1.373 . S
C3180 C3182 1.389 . S
C3181 H3160 0.950 . S
C3181 C3180 1.373 . S
C3181 C3197 1.377 . S
C3182 C3180 1.389 . S
C3182 C3183 1.524 . S
C3182 C3196 1.377 . S
C3183 C3182 1.524 . S
C3183 C3184 1.397 . S
C3183 C3188 1.363 . S
C3184 H3161 0.950 . S
C3184 C3183 1.397 . S
C3184 C3185 1.334 . S
C3185 H3162 0.950 . S
C3185 C3184 1.334 . S
C3185 C3186 1.287 . S
C3186 C3185 1.287 . S
C3186 C3187 1.524 . S
C3186 H3205 0.913 . S
C3187 H3163 0.950 1_556 S
C3187 C3186 1.524 . S
C3187 C3188 1.415 . S
C3188 H3164 0.950 . S
C3188 C3183 1.363 . S
C3188 C3187 1.415 . S
C3189 H3165 0.971 . S
C3189 C3190 1.349 1_556 S
C3189 C3191 1.388 . S
C3190 C3189 1.349 1_554 S
C3190 C3194 1.394 . S
C3191 H3166 0.951 . S
C3191 C3189 1.388 . S
C3191 C3192 1.366 . S
C3192 C3191 1.366 . S
C3192 C3193 1.414 . S
C3192 C3195 1.499 . S
C3193 H3167 0.950 1_556 S
C3193 C3192 1.414 . S
C3193 C3194 1.374 1_556 S
C3194 H3168 0.950 . S
C3194 C3190 1.394 . S
C3194 C3193 1.374 1_554 S
C3195 C3192 1.499 . S
C3195 C3196 1.373 . S
C3195 C3197 1.389 . S
C3196 H3169 0.950 . S
C3196 C3182 1.377 . S
C3196 C3195 1.373 . S
C3197 C3181 1.377 . S
C3197 C3195 1.389 . S
C3197 C3198 1.524 . S
C3198 C3197 1.524 . S
C3198 C3199 1.397 . S
C3198 C3203 1.363 . S
C3199 H3170 0.950 . S
C3199 C3198 1.397 . S
C3199 C3200 1.335 . S
C3200 H3171 0.949 1_565 S
C3200 C3199 1.335 . S
C3200 C3201 1.286 1_565 S
C3201 C3200 1.286 1_545 S
C3201 C3202 1.524 1_545 S
C3201 H3204 0.999 . S
C3202 H3172 0.950 . S
C3202 C3201 1.524 1_565 S
C3202 C3203 1.415 . S
C3203 H3173 0.950 . S
C3203 C3198 1.363 . S
C3203 C3202 1.415 . S
H3204 C3201 0.999 . S
H3205 C3186 0.913 . S
H3206 C3224 0.951 . S
H3207 C3226 0.951 . S
H3208 C3228 0.950 . S
H3209 C3229 0.950 . S
H3210 C3231 0.950 . S
H3211 C3234 0.950 . S
H3212 C3235 0.950 . S
H3213 C3237 0.950 . S
H3214 C3238 0.950 . S
H3215 C3239 0.951 . S
H3216 C3241 0.951 . S
H3217 C3243 0.950 . S
H3218 C3244 0.950 . S
H3219 C3246 0.950 . S
H3220 C3249 0.950 . S
H3221 C3250 0.950 . S
H3222 C3252 0.950 . S
H3223 C3253 0.950 . S
C3224 H3206 0.951 . S
C3224 C3225 1.366 . S
C3224 C3226 1.388 . S
C3225 C3224 1.366 . S
C3225 C3229 1.385 . S
C3226 H3207 0.951 . S
C3226 C3224 1.388 . S
C3226 C3227 1.366 . S
C3227 C3226 1.366 . S
C3227 C3228 1.414 . S
C3227 C3230 1.499 . S
C3228 H3208 0.950 . S
C3228 C3227 1.414 . S
C3228 C3229 1.374 . S
C3229 H3209 0.950 . S
C3229 C3225 1.385 . S
C3229 C3228 1.374 . S
C3230 C3227 1.499 . S
C3230 C3231 1.373 . S
C3230 C3232 1.389 . S
C3231 H3210 0.950 . S
C3231 C3230 1.373 . S
C3231 C3247 1.377 . S
C3232 C3230 1.389 . S
C3232 C3233 1.524 . S
C3232 C3246 1.377 . S
C3233 C3232 1.524 . S
C3233 C3234 1.397 . S
C3233 C3238 1.363 . S
C3234 H3211 0.950 . S
C3234 C3233 1.397 . S
C3234 C3235 1.334 . S
C3235 H3212 0.950 . S
C3235 C3234 1.334 . S
C3235 C3236 1.287 . S
C3236 C3235 1.287 . S
C3236 C3237 1.524 . S
C3236 H3255 0.913 . S
C3237 H3213 0.950 . S
C3237 C3236 1.524 . S
C3237 C3238 1.415 . S
C3238 H3214 0.950 . S
C3238 C3233 1.363 . S
C3238 C3237 1.415 . S
C3239 H3215 0.951 . S
C3239 C3240 1.366 . S
C3239 C3241 1.388 . S
C3240 C3239 1.366 . S
C3240 C3244 1.385 . S
C3241 H3216 0.951 . S
C3241 C3239 1.388 . S
C3241 C3242 1.366 . S
C3242 C3241 1.366 . S
C3242 C3243 1.414 . S
C3242 C3245 1.499 . S
C3243 H3217 0.950 . S
C3243 C3242 1.414 . S
C3243 C3244 1.374 . S
C3244 H3218 0.950 . S
C3244 C3240 1.385 . S
C3244 C3243 1.374 . S
C3245 C3242 1.499 . S
C3245 C3246 1.373 . S
C3245 C3247 1.389 . S
C3246 H3219 0.950 . S
C3246 C3232 1.377 . S
C3246 C3245 1.373 . S
C3247 C3231 1.377 . S
C3247 C3245 1.389 . S
C3247 C3248 1.524 . S
C3248 C3247 1.524 . S
C3248 C3249 1.397 . S
C3248 C3253 1.363 . S
C3249 H3220 0.950 . S
C3249 C3248 1.397 . S
C3249 C3250 1.334 . S
C3250 H3221 0.950 . S
C3250 C3249 1.334 . S
C3250 C3251 1.287 . S
C3251 C3250 1.287 . S
C3251 C3252 1.524 . S
C3251 H3254 0.999 . S
C3252 H3222 0.950 . S
C3252 C3251 1.524 . S
C3252 C3253 1.415 . S
C3253 H3223 0.950 . S
C3253 C3248 1.363 . S
C3253 C3252 1.415 . S
H3254 C3251 0.999 . S
H3255 C3236 0.913 . S
H3256 C3274 0.951 . S
H3257 C3276 0.951 . S
H3258 C3278 0.950 . S
H3259 C3279 0.950 . S
H3260 C3281 0.949 1_565 S
H3261 C3284 0.950 1_565 S
H3262 C3285 0.950 1_565 S
H3263 C3287 0.950 . S
H3264 C3288 0.950 . S
H3265 C3289 0.951 . S
H3266 C3291 0.951 . S
H3267 C3293 0.950 . S
H3268 C3294 0.950 . S
H3269 C3296 0.950 . S
H3270 C3299 0.950 . S
H3271 C3300 0.950 . S
H3272 C3302 0.950 . S
H3273 C3303 0.950 . S
C3274 H3256 0.951 . S
C3274 C3275 1.366 . S
C3274 C3276 1.388 . S
C3275 C3274 1.366 . S
C3275 C3279 1.385 1_545 S
C3276 H3257 0.951 . S
C3276 C3274 1.388 . S
C3276 C3277 1.366 . S
C3277 C3276 1.366 . S
C3277 C3278 1.414 1_545 S
C3277 C3280 1.499 . S
C3278 H3258 0.950 . S
C3278 C3277 1.414 1_565 S
C3278 C3279 1.374 . S
C3279 H3259 0.950 . S
C3279 C3275 1.385 1_565 S
C3279 C3278 1.374 . S
C3280 C3277 1.499 . S
C3280 C3281 1.374 . S
C3280 C3282 1.389 . S
C3281 H3260 0.949 1_545 S
C3281 C3280 1.374 . S
C3281 C3297 1.378 . S
C3282 C3280 1.389 . S
C3282 C3283 1.524 . S
C3282 C3296 1.377 . S
C3283 C3282 1.524 . S
C3283 C3284 1.397 . S
C3283 C3288 1.363 . S
C3284 H3261 0.950 1_545 S
C3284 C3283 1.397 . S
C3284 C3285 1.334 . S
C3285 H3262 0.950 1_545 S
C3285 C3284 1.334 . S
C3285 C3286 1.287 . S
C3286 C3285 1.287 . S
C3286 C3287 1.524 . S
C3286 H3305 0.913 . S
C3287 H3263 0.950 . S
C3287 C3286 1.524 . S
C3287 C3288 1.415 . S
C3288 H3264 0.950 . S
C3288 C3283 1.363 . S
C3288 C3287 1.415 . S
C3289 H3265 0.951 . S
C3289 C3290 1.366 1_565 S
C3289 C3291 1.388 . S
C3290 C3289 1.366 1_545 S
C3290 C3294 1.385 . S
C3291 H3266 0.951 . S
C3291 C3289 1.388 . S
C3291 C3292 1.366 1_565 S
C3292 C3291 1.366 1_545 S
C3292 C3293 1.414 . S
C3292 C3295 1.499 . S
C3293 H3267 0.950 . S
C3293 C3292 1.414 . S
C3293 C3294 1.374 . S
C3294 H3268 0.950 . S
C3294 C3290 1.385 . S
C3294 C3293 1.374 . S
C3295 C3292 1.499 . S
C3295 C3296 1.373 . S
C3295 C3297 1.389 . S
C3296 H3269 0.950 . S
C3296 C3282 1.377 . S
C3296 C3295 1.373 . S
C3297 C3281 1.378 . S
C3297 C3295 1.389 . S
C3297 C3298 1.524 1_545 S
C3298 C3297 1.524 1_565 S
C3298 C3299 1.397 1_565 S
C3298 C3303 1.363 . S
C3299 H3270 0.950 . S
C3299 C3298 1.397 1_545 S
C3299 C3300 1.334 . S
C3300 H3271 0.950 . S
C3300 C3299 1.334 . S
C3300 C3301 1.287 1_545 S
C3301 C3300 1.287 1_565 S
C3301 C3302 1.524 . S
C3301 H3304 0.999 . S
C3302 H3272 0.950 . S
C3302 C3301 1.524 . S
C3302 C3303 1.415 . S
C3303 H3273 0.950 . S
C3303 C3298 1.363 . S
C3303 C3302 1.415 . S
H3304 C3301 0.999 . S
H3305 C3286 0.913 . S
H3306 C3324 0.951 . S
H3307 C3326 0.951 . S
H3308 C3328 0.950 . S
H3309 C3329 0.950 . S
H3310 C3331 0.950 . S
H3311 C3334 0.950 . S
H3312 C3335 0.950 . S
H3313 C3337 0.950 . S
H3314 C3338 0.950 . S
H3315 C3339 0.951 . S
H3316 C3341 0.951 . S
H3317 C3343 0.950 . S
H3318 C3344 0.950 . S
H3319 C3346 0.950 . S
H3320 C3349 0.950 . S
H3321 C3350 0.950 . S
H3322 C3352 0.950 . S
H3323 C3353 0.950 . S
C3324 H3306 0.951 . S
C3324 C3325 1.366 . S
C3324 C3326 1.388 . S
C3325 C3324 1.366 . S
C3325 C3329 1.385 . S
C3326 H3307 0.951 . S
C3326 C3324 1.388 . S
C3326 C3327 1.366 . S
C3327 C3326 1.366 . S
C3327 C3328 1.414 . S
C3327 C3330 1.499 . S
C3328 H3308 0.950 . S
C3328 C3327 1.414 . S
C3328 C3329 1.374 . S
C3329 H3309 0.950 . S
C3329 C3325 1.385 . S
C3329 C3328 1.374 . S
C3330 C3327 1.499 . S
C3330 C3331 1.373 . S
C3330 C3332 1.389 . S
C3331 H3310 0.950 . S
C3331 C3330 1.373 . S
C3331 C3347 1.377 . S
C3332 C3330 1.389 . S
C3332 C3333 1.524 . S
C3332 C3346 1.377 . S
C3333 C3332 1.524 . S
C3333 C3334 1.397 . S
C3333 C3338 1.363 . S
C3334 H3311 0.950 . S
C3334 C3333 1.397 . S
C3334 C3335 1.334 . S
C3335 H3312 0.950 . S
C3335 C3334 1.334 . S
C3335 C3336 1.287 . S
C3336 C3335 1.287 . S
C3336 C3337 1.524 . S
C3336 H3355 0.913 . S
C3337 H3313 0.950 . S
C3337 C3336 1.524 . S
C3337 C3338 1.415 . S
C3338 H3314 0.950 . S
C3338 C3333 1.363 . S
C3338 C3337 1.415 . S
C3339 H3315 0.951 . S
C3339 C3340 1.366 . S
C3339 C3341 1.388 . S
C3340 C3339 1.366 . S
C3340 C3344 1.385 . S
C3341 H3316 0.951 . S
C3341 C3339 1.388 . S
C3341 C3342 1.366 . S
C3342 C3341 1.366 . S
C3342 C3343 1.414 . S
C3342 C3345 1.499 . S
C3343 H3317 0.950 . S
C3343 C3342 1.414 . S
C3343 C3344 1.374 . S
C3344 H3318 0.950 . S
C3344 C3340 1.385 . S
C3344 C3343 1.374 . S
C3345 C3342 1.499 . S
C3345 C3346 1.373 . S
C3345 C3347 1.389 . S
C3346 H3319 0.950 . S
C3346 C3332 1.377 . S
C3346 C3345 1.373 . S
C3347 C3331 1.377 . S
C3347 C3345 1.389 . S
C3347 C3348 1.524 . S
C3348 C3347 1.524 . S
C3348 C3349 1.397 . S
C3348 C3353 1.363 . S
C3349 H3320 0.950 . S
C3349 C3348 1.397 . S
C3349 C3350 1.334 . S
C3350 H3321 0.950 . S
C3350 C3349 1.334 . S
C3350 C3351 1.287 . S
C3351 C3350 1.287 . S
C3351 C3352 1.524 . S
C3351 H3354 0.999 . S
C3352 H3322 0.950 . S
C3352 C3351 1.524 . S
C3352 C3353 1.415 . S
C3353 H3323 0.950 . S
C3353 C3348 1.363 . S
C3353 C3352 1.415 . S
H3354 C3351 0.999 . S
H3355 C3336 0.913 . S
H3356 C3374 0.951 . S
H3357 C3376 0.951 . S
H3358 C3378 0.950 . S
H3359 C3379 0.950 . S
H3360 C3381 0.950 . S
H3361 C3384 0.950 . S
H3362 C3385 0.950 . S
H3363 C3387 0.950 . S
H3364 C3388 0.950 . S
H3365 C3389 0.951 . S
H3366 C3391 0.951 . S
H3367 C3393 0.950 . S
H3368 C3394 0.950 . S
H3369 C3396 0.950 . S
H3370 C3399 0.950 . S
H3371 C3400 0.950 . S
H3372 C3402 0.950 . S
H3373 C3403 0.950 . S
C3374 H3356 0.951 . S
C3374 C3375 1.366 . S
C3374 C3376 1.388 . S
C3375 C3374 1.366 . S
C3375 C3379 1.385 . S
C3376 H3357 0.951 . S
C3376 C3374 1.388 . S
C3376 C3377 1.366 . S
C3377 C3376 1.366 . S
C3377 C3378 1.414 . S
C3377 C3380 1.499 . S
C3378 H3358 0.950 . S
C3378 C3377 1.414 . S
C3378 C3379 1.374 . S
C3379 H3359 0.950 . S
C3379 C3375 1.385 . S
C3379 C3378 1.374 . S
C3380 C3377 1.499 . S
C3380 C3381 1.373 . S
C3380 C3382 1.389 . S
C3381 H3360 0.950 . S
C3381 C3380 1.373 . S
C3381 C3397 1.377 . S
C3382 C3380 1.389 . S
C3382 C3383 1.524 . S
C3382 C3396 1.377 . S
C3383 C3382 1.524 . S
C3383 C3384 1.397 . S
C3383 C3388 1.363 . S
C3384 H3361 0.950 . S
C3384 C3383 1.397 . S
C3384 C3385 1.334 . S
C3385 H3362 0.950 . S
C3385 C3384 1.334 . S
C3385 C3386 1.287 . S
C3386 C3385 1.287 . S
C3386 C3387 1.524 . S
C3386 H3405 0.913 . S
C3387 H3363 0.950 . S
C3387 C3386 1.524 . S
C3387 C3388 1.415 . S
C3388 H3364 0.950 . S
C3388 C3383 1.363 . S
C3388 C3387 1.415 . S
C3389 H3365 0.951 . S
C3389 C3390 1.366 . S
C3389 C3391 1.388 . S
C3390 C3389 1.366 . S
C3390 C3394 1.385 . S
C3391 H3366 0.951 . S
C3391 C3389 1.388 . S
C3391 C3392 1.366 . S
C3392 C3391 1.366 . S
C3392 C3393 1.414 . S
C3392 C3395 1.499 . S
C3393 H3367 0.950 . S
C3393 C3392 1.414 . S
C3393 C3394 1.374 . S
C3394 H3368 0.950 . S
C3394 C3390 1.385 . S
C3394 C3393 1.374 . S
C3395 C3392 1.499 . S
C3395 C3396 1.373 . S
C3395 C3397 1.389 . S
C3396 H3369 0.950 . S
C3396 C3382 1.377 . S
C3396 C3395 1.373 . S
C3397 C3381 1.377 . S
C3397 C3395 1.389 . S
C3397 C3398 1.524 . S
C3398 C3397 1.524 . S
C3398 C3399 1.397 . S
C3398 C3403 1.363 . S
C3399 H3370 0.950 . S
C3399 C3398 1.397 . S
C3399 C3400 1.334 . S
C3400 H3371 0.950 . S
C3400 C3399 1.334 . S
C3400 C3401 1.287 . S
C3401 C3400 1.287 . S
C3401 C3402 1.524 . S
C3401 H3404 0.999 . S
C3402 H3372 0.950 . S
C3402 C3401 1.524 . S
C3402 C3403 1.415 . S
C3403 H3373 0.950 . S
C3403 C3398 1.363 . S
C3403 C3402 1.415 . S
H3404 C3401 0.999 . S
H3405 C3386 0.913 . S
H3406 C3424 0.951 . S
H3407 C3426 0.951 . S
H3408 C3428 0.950 . S
H3409 C3429 0.950 . S
H3410 C3431 0.950 . S
H3411 C3434 0.950 . S
H3412 C3435 0.950 . S
H3413 C3437 0.950 . S
H3414 C3438 0.950 . S
H3415 C3439 0.951 . S
H3416 C3441 0.951 . S
H3417 C3443 0.950 . S
H3418 C3444 0.950 . S
H3419 C3446 0.950 . S
H3420 C3449 0.950 . S
H3421 C3450 0.950 . S
H3422 C3452 0.950 . S
H3423 C3453 0.950 . S
C3424 H3406 0.951 . S
C3424 C3425 1.366 . S
C3424 C3426 1.388 . S
C3425 C3424 1.366 . S
C3425 C3429 1.385 . S
C3426 H3407 0.951 . S
C3426 C3424 1.388 . S
C3426 C3427 1.366 . S
C3427 C3426 1.366 . S
C3427 C3428 1.414 . S
C3427 C3430 1.499 . S
C3428 H3408 0.950 . S
C3428 C3427 1.414 . S
C3428 C3429 1.374 . S
C3429 H3409 0.950 . S
C3429 C3425 1.385 . S
C3429 C3428 1.374 . S
C3430 C3427 1.499 . S
C3430 C3431 1.373 . S
C3430 C3432 1.389 . S
C3431 H3410 0.950 . S
C3431 C3430 1.373 . S
C3431 C3447 1.377 . S
C3432 C3430 1.389 . S
C3432 C3433 1.524 . S
C3432 C3446 1.377 . S
C3433 C3432 1.524 . S
C3433 C3434 1.397 . S
C3433 C3438 1.363 . S
C3434 H3411 0.950 . S
C3434 C3433 1.397 . S
C3434 C3435 1.334 . S
C3435 H3412 0.950 . S
C3435 C3434 1.334 . S
C3435 C3436 1.287 . S
C3436 C3435 1.287 . S
C3436 C3437 1.524 . S
C3436 H3455 0.913 . S
C3437 H3413 0.950 . S
C3437 C3436 1.524 . S
C3437 C3438 1.415 . S
C3438 H3414 0.950 . S
C3438 C3433 1.363 . S
C3438 C3437 1.415 . S
C3439 H3415 0.951 . S
C3439 C3440 1.366 . S
C3439 C3441 1.388 . S
C3440 C3439 1.366 . S
C3440 C3444 1.385 . S
C3441 H3416 0.951 . S
C3441 C3439 1.388 . S
C3441 C3442 1.366 . S
C3442 C3441 1.366 . S
C3442 C3443 1.414 . S
C3442 C3445 1.499 . S
C3443 H3417 0.950 . S
C3443 C3442 1.414 . S
C3443 C3444 1.374 . S
C3444 H3418 0.950 . S
C3444 C3440 1.385 . S
C3444 C3443 1.374 . S
C3445 C3442 1.499 . S
C3445 C3446 1.373 . S
C3445 C3447 1.389 . S
C3446 H3419 0.950 . S
C3446 C3432 1.377 . S
C3446 C3445 1.373 . S
C3447 C3431 1.377 . S
C3447 C3445 1.389 . S
C3447 C3448 1.524 . S
C3448 C3447 1.524 . S
C3448 C3449 1.397 . S
C3448 C3453 1.363 . S
C3449 H3420 0.950 . S
C3449 C3448 1.397 . S
C3449 C3450 1.334 . S
C3450 H3421 0.950 . S
C3450 C3449 1.334 . S
C3450 C3451 1.287 . S
C3451 C3450 1.287 . S
C3451 C3452 1.524 . S
C3451 H3454 0.999 . S
C3452 H3422 0.950 . S
C3452 C3451 1.524 . S
C3452 C3453 1.415 . S
C3453 H3423 0.950 . S
C3453 C3448 1.363 . S
C3453 C3452 1.415 . S
H3454 C3451 0.999 . S
H3455 C3436 0.913 . S
H3456 C3474 0.951 . S
H3457 C3476 0.951 . S
H3458 C3478 0.950 . S
H3459 C3479 0.950 . S
H3460 C3481 0.950 . S
H3461 C3484 0.950 . S
H3462 C3485 0.950 . S
H3463 C3487 0.950 . S
H3464 C3488 0.950 1_545 S
H3465 C3489 0.951 . S
H3466 C3491 0.951 . S
H3467 C3493 0.950 . S
H3468 C3494 0.950 . S
H3469 C3496 0.950 . S
H3470 C3499 0.950 . S
H3471 C3500 0.950 . S
H3472 C3502 0.950 . S
H3473 C3503 0.950 . S
C3474 H3456 0.951 . S
C3474 C3475 1.366 1_545 S
C3474 C3476 1.388 . S
C3475 C3474 1.366 1_565 S
C3475 C3479 1.385 . S
C3476 H3457 0.951 . S
C3476 C3474 1.388 . S
C3476 C3477 1.366 . S
C3477 C3476 1.366 . S
C3477 C3478 1.414 1_545 S
C3477 C3480 1.499 . S
C3478 H3458 0.950 . S
C3478 C3477 1.414 1_565 S
C3478 C3479 1.374 . S
C3479 H3459 0.950 . S
C3479 C3475 1.385 . S
C3479 C3478 1.374 . S
C3480 C3477 1.499 . S
C3480 C3481 1.373 . S
C3480 C3482 1.389 . S
C3481 H3460 0.950 . S
C3481 C3480 1.373 . S
C3481 C3497 1.377 . S
C3482 C3480 1.389 . S
C3482 C3483 1.524 1_545 S
C3482 C3496 1.377 . S
C3483 C3482 1.524 1_565 S
C3483 C3484 1.397 . S
C3483 C3488 1.363 . S
C3484 H3461 0.950 . S
C3484 C3483 1.397 . S
C3484 C3485 1.334 . S
C3485 H3462 0.950 . S
C3485 C3484 1.334 . S
C3485 C3486 1.287 . S
C3486 C3485 1.287 . S
C3486 C3487 1.524 . S
C3486 H3505 0.913 . S
C3487 H3463 0.950 . S
C3487 C3486 1.524 . S
C3487 C3488 1.415 . S
C3488 H3464 0.950 1_565 S
C3488 C3483 1.363 . S
C3488 C3487 1.415 . S
C3489 H3465 0.951 . S
C3489 C3490 1.366 . S
C3489 C3491 1.388 . S
C3490 C3489 1.366 . S
C3490 C3494 1.385 . S
C3491 H3466 0.951 . S
C3491 C3489 1.388 . S
C3491 C3492 1.366 . S
C3492 C3491 1.366 . S
C3492 C3493 1.414 . S
C3492 C3495 1.499 . S
C3493 H3467 0.950 . S
C3493 C3492 1.414 . S
C3493 C3494 1.374 . S
C3494 H3468 0.950 . S
C3494 C3490 1.385 . S
C3494 C3493 1.374 . S
C3495 C3492 1.499 . S
C3495 C3496 1.373 . S
C3495 C3497 1.389 . S
C3496 H3469 0.950 . S
C3496 C3482 1.377 . S
C3496 C3495 1.373 . S
C3497 C3481 1.377 . S
C3497 C3495 1.389 . S
C3497 C3498 1.524 . S
C3498 C3497 1.524 . S
C3498 C3499 1.397 . S
C3498 C3503 1.363 . S
C3499 H3470 0.950 . S
C3499 C3498 1.397 . S
C3499 C3500 1.334 . S
C3500 H3471 0.950 . S
C3500 C3499 1.334 . S
C3500 C3501 1.287 . S
C3501 C3500 1.287 . S
C3501 C3502 1.524 . S
C3501 H3504 0.999 . S
C3502 H3472 0.950 . S
C3502 C3501 1.524 . S
C3502 C3503 1.415 . S
C3503 H3473 0.950 . S
C3503 C3498 1.363 . S
C3503 C3502 1.415 . S
H3504 C3501 0.999 . S
H3505 C3486 0.913 . S
H3506 C3524 0.951 . S
H3507 C3526 0.951 . S
H3508 C3528 0.950 . S
H3509 C3529 0.950 . S
H3510 C3531 0.950 . S
H3511 C3534 0.950 . S
H3512 C3535 0.950 . S
H3513 C3537 0.950 . S
H3514 C3538 0.950 . S
H3515 C3539 0.951 . S
H3516 C3541 0.951 . S
H3517 C3543 0.950 . S
H3518 C3544 0.950 . S
H3519 C3546 0.950 . S
H3520 C3549 0.950 . S
H3521 C3550 0.950 . S
H3522 C3552 0.950 . S
H3523 C3553 0.950 . S
C3524 H3506 0.951 . S
C3524 C3525 1.366 . S
C3524 C3526 1.388 . S
C3525 C3524 1.366 . S
C3525 C3529 1.385 . S
C3526 H3507 0.951 . S
C3526 C3524 1.388 . S
C3526 C3527 1.366 . S
C3527 C3526 1.366 . S
C3527 C3528 1.414 . S
C3527 C3530 1.499 . S
C3528 H3508 0.950 . S
C3528 C3527 1.414 . S
C3528 C3529 1.374 . S
C3529 H3509 0.950 . S
C3529 C3525 1.385 . S
C3529 C3528 1.374 . S
C3530 C3527 1.499 . S
C3530 C3531 1.373 . S
C3530 C3532 1.389 . S
C3531 H3510 0.950 . S
C3531 C3530 1.373 . S
C3531 C3547 1.377 . S
C3532 C3530 1.389 . S
C3532 C3533 1.524 . S
C3532 C3546 1.377 . S
C3533 C3532 1.524 . S
C3533 C3534 1.397 . S
C3533 C3538 1.363 . S
C3534 H3511 0.950 . S
C3534 C3533 1.397 . S
C3534 C3535 1.334 . S
C3535 H3512 0.950 . S
C3535 C3534 1.334 . S
C3535 C3536 1.287 . S
C3536 C3535 1.287 . S
C3536 C3537 1.524 . S
C3536 H3555 0.913 . S
C3537 H3513 0.950 . S
C3537 C3536 1.524 . S
C3537 C3538 1.415 . S
C3538 H3514 0.950 . S
C3538 C3533 1.363 . S
C3538 C3537 1.415 . S
C3539 H3515 0.951 . S
C3539 C3540 1.366 . S
C3539 C3541 1.388 . S
C3540 C3539 1.366 . S
C3540 C3544 1.385 . S
C3541 H3516 0.951 . S
C3541 C3539 1.388 . S
C3541 C3542 1.366 . S
C3542 C3541 1.366 . S
C3542 C3543 1.414 . S
C3542 C3545 1.499 . S
C3543 H3517 0.950 . S
C3543 C3542 1.414 . S
C3543 C3544 1.374 . S
C3544 H3518 0.950 . S
C3544 C3540 1.385 . S
C3544 C3543 1.374 . S
C3545 C3542 1.499 . S
C3545 C3546 1.373 . S
C3545 C3547 1.389 . S
C3546 H3519 0.950 . S
C3546 C3532 1.377 . S
C3546 C3545 1.373 . S
C3547 C3531 1.377 . S
C3547 C3545 1.389 . S
C3547 C3548 1.524 . S
C3548 C3547 1.524 . S
C3548 C3549 1.397 . S
C3548 C3553 1.363 . S
C3549 H3520 0.950 . S
C3549 C3548 1.397 . S
C3549 C3550 1.334 . S
C3550 H3521 0.950 . S
C3550 C3549 1.334 . S
C3550 C3551 1.287 . S
C3551 C3550 1.287 . S
C3551 C3552 1.524 . S
C3551 H3554 0.999 . S
C3552 H3522 0.950 . S
C3552 C3551 1.524 . S
C3552 C3553 1.415 . S
C3553 H3523 0.950 . S
C3553 C3548 1.363 . S
C3553 C3552 1.415 . S
H3554 C3551 0.999 . S
H3555 C3536 0.913 . S
H3556 C3574 0.918 1_565 S
H3557 C3576 0.951 1_565 S
H3558 C3578 0.950 . S
H3559 C3579 0.950 . S
H3560 C3581 0.950 . S
H3561 C3584 0.950 . S
H3562 C3585 0.950 . S
H3563 C3587 0.950 . S
H3564 C3588 0.950 . S
H3565 C3589 0.951 . S
H3566 C3591 0.951 . S
H3567 C3593 0.950 1_565 S
H3568 C3594 0.950 1_565 S
H3569 C3596 0.950 . S
H3570 C3599 0.950 . S
H3571 C3600 0.950 . S
H3572 C3602 0.950 . S
H3573 C3603 0.950 . S
C3574 H3556 0.918 1_545 S
C3574 C3575 1.366 . S
C3574 C3576 1.388 . S
C3575 C3574 1.366 . S
C3575 C3579 1.385 . S
C3576 H3557 0.951 1_545 S
C3576 C3574 1.388 . S
C3576 C3577 1.366 . S
C3577 C3576 1.366 . S
C3577 C3578 1.414 . S
C3577 C3580 1.499 . S
C3578 H3558 0.950 . S
C3578 C3577 1.414 . S
C3578 C3579 1.374 . S
C3579 H3559 0.950 . S
C3579 C3575 1.385 . S
C3579 C3578 1.374 . S
C3580 C3577 1.499 . S
C3580 C3581 1.373 . S
C3580 C3582 1.389 . S
C3581 H3560 0.950 . S
C3581 C3580 1.373 . S
C3581 C3597 1.377 . S
C3582 C3580 1.389 . S
C3582 C3583 1.524 . S
C3582 C3596 1.377 . S
C3583 C3582 1.524 . S
C3583 C3584 1.397 . S
C3583 C3588 1.363 1_545 S
C3584 H3561 0.950 . S
C3584 C3583 1.397 . S
C3584 C3585 1.334 . S
C3585 H3562 0.950 . S
C3585 C3584 1.334 . S
C3585 C3586 1.287 . S
C3586 C3585 1.287 . S
C3586 C3587 1.524 1_545 S
C3586 H3605 0.913 . S
C3587 H3563 0.950 . S
C3587 C3586 1.524 1_565 S
C3587 C3588 1.415 . S
C3588 H3564 0.950 . S
C3588 C3583 1.363 1_565 S
C3588 C3587 1.415 . S
C3589 H3565 0.951 . S
C3589 C3590 1.366 . S
C3589 C3591 1.388 . S
C3590 C3589 1.366 . S
C3590 C3594 1.385 . S
C3591 H3566 0.951 . S
C3591 C3589 1.388 . S
C3591 C3592 1.366 . S
C3592 C3591 1.366 . S
C3592 C3593 1.414 . S
C3592 C3595 1.499 . S
C3593 H3567 0.950 1_545 S
C3593 C3592 1.414 . S
C3593 C3594 1.374 . S
C3594 H3568 0.950 1_545 S
C3594 C3590 1.385 . S
C3594 C3593 1.374 . S
C3595 C3592 1.499 . S
C3595 C3596 1.373 . S
C3595 C3597 1.389 . S
C3596 H3569 0.950 . S
C3596 C3582 1.377 . S
C3596 C3595 1.373 . S
C3597 C3581 1.377 . S
C3597 C3595 1.389 . S
C3597 C3598 1.524 . S
C3598 C3597 1.524 . S
C3598 C3599 1.397 . S
C3598 C3603 1.363 . S
C3599 H3570 0.950 . S
C3599 C3598 1.397 . S
C3599 C3600 1.334 . S
C3600 H3571 0.950 . S
C3600 C3599 1.334 . S
C3600 C3601 1.287 . S
C3601 C3600 1.287 . S
C3601 C3602 1.524 . S
C3601 H3604 0.999 . S
C3602 H3572 0.950 . S
C3602 C3601 1.524 . S
C3602 C3603 1.415 . S
C3603 H3573 0.950 . S
C3603 C3598 1.363 . S
C3603 C3602 1.415 . S
H3604 C3601 0.999 . S
H3605 C3586 0.913 . S
H3606 C3624 0.951 . S
H3607 C3626 0.951 . S
H3608 C3628 0.950 . S
H3609 C3629 0.950 . S
H3610 C3631 0.950 . S
H3611 C3634 0.950 . S
H3612 C3635 0.950 . S
H3613 C3637 0.950 . S
H3614 C3638 0.950 . S
H3615 C3639 0.951 . S
H3616 C3641 0.951 . S
H3617 C3643 0.950 . S
H3618 C3644 0.950 . S
H3619 C3646 0.950 . S
H3620 C3649 0.950 . S
H3621 C3650 0.950 . S
H3622 C3652 0.950 . S
H3623 C3653 0.950 . S
C3624 H3606 0.951 . S
C3624 C3625 1.366 . S
C3624 C3626 1.388 . S
C3625 C3624 1.366 . S
C3625 C3629 1.385 . S
C3626 H3607 0.951 . S
C3626 C3624 1.388 . S
C3626 C3627 1.366 . S
C3627 C3626 1.366 . S
C3627 C3628 1.414 . S
C3627 C3630 1.499 . S
C3628 H3608 0.950 . S
C3628 C3627 1.414 . S
C3628 C3629 1.374 . S
C3629 H3609 0.950 . S
C3629 C3625 1.385 . S
C3629 C3628 1.374 . S
C3630 C3627 1.499 . S
C3630 C3631 1.373 . S
C3630 C3632 1.389 . S
C3631 H3610 0.950 . S
C3631 C3630 1.373 . S
C3631 C3647 1.377 . S
C3632 C3630 1.389 . S
C3632 C3633 1.524 . S
C3632 C3646 1.377 . S
C3633 C3632 1.524 . S
C3633 C3634 1.397 . S
C3633 C3638 1.363 . S
C3634 H3611 0.950 . S
C3634 C3633 1.397 . S
C3634 C3635 1.334 . S
C3635 H3612 0.950 . S
C3635 C3634 1.334 . S
C3635 C3636 1.287 . S
C3636 C3635 1.287 . S
C3636 C3637 1.524 . S
C3636 H3655 0.913 . S
C3637 H3613 0.950 . S
C3637 C3636 1.524 . S
C3637 C3638 1.415 . S
C3638 H3614 0.950 . S
C3638 C3633 1.363 . S
C3638 C3637 1.415 . S
C3639 H3615 0.951 . S
C3639 C3640 1.366 . S
C3639 C3641 1.388 . S
C3640 C3639 1.366 . S
C3640 C3644 1.385 . S
C3641 H3616 0.951 . S
C3641 C3639 1.388 . S
C3641 C3642 1.366 . S
C3642 C3641 1.366 . S
C3642 C3643 1.414 . S
C3642 C3645 1.499 . S
C3643 H3617 0.950 . S
C3643 C3642 1.414 . S
C3643 C3644 1.374 . S
C3644 H3618 0.950 . S
C3644 C3640 1.385 . S
C3644 C3643 1.374 . S
C3645 C3642 1.499 . S
C3645 C3646 1.373 . S
C3645 C3647 1.389 . S
C3646 H3619 0.950 . S
C3646 C3632 1.377 . S
C3646 C3645 1.373 . S
C3647 C3631 1.377 . S
C3647 C3645 1.389 . S
C3647 C3648 1.524 . S
C3648 C3647 1.524 . S
C3648 C3649 1.397 . S
C3648 C3653 1.363 . S
C3649 H3620 0.950 . S
C3649 C3648 1.397 . S
C3649 C3650 1.334 . S
C3650 H3621 0.950 . S
C3650 C3649 1.334 . S
C3650 C3651 1.287 . S
C3651 C3650 1.287 . S
C3651 C3652 1.524 . S
C3651 H3654 0.999 . S
C3652 H3622 0.950 . S
C3652 C3651 1.524 . S
C3652 C3653 1.415 . S
C3653 H3623 0.950 . S
C3653 C3648 1.363 . S
C3653 C3652 1.415 . S
H3654 C3651 0.999 . S
H3655 C3636 0.913 . S
H3656 C3674 0.951 . S
H3657 C3676 0.951 . S
H3658 C3678 0.950 . S
H3659 C3679 0.950 . S
H3660 C3681 0.950 1_556 S
H3661 C3684 0.950 . S
H3662 C3685 0.950 . S
H3663 C3687 0.950 . S
H3664 C3688 0.950 . S
H3665 C3689 0.951 . S
H3666 C3691 0.951 . S
H3667 C3693 0.950 . S
H3668 C3694 0.950 . S
H3669 C3696 0.950 . S
H3670 C3699 0.950 . S
H3671 C3700 0.950 . S
H3672 C3702 0.950 . S
H3673 C3703 0.950 . S
C3674 H3656 0.951 . S
C3674 C3675 1.366 . S
C3674 C3676 1.388 . S
C3675 C3674 1.366 . S
C3675 C3679 1.385 . S
C3676 H3657 0.951 . S
C3676 C3674 1.388 . S
C3676 C3677 1.366 . S
C3677 C3676 1.366 . S
C3677 C3678 1.414 . S
C3677 C3680 1.499 . S
C3678 H3658 0.950 . S
C3678 C3677 1.414 . S
C3678 C3679 1.374 . S
C3679 H3659 0.950 . S
C3679 C3675 1.385 . S
C3679 C3678 1.374 . S
C3680 C3677 1.499 . S
C3680 C3681 1.373 . S
C3680 C3682 1.389 . S
C3681 H3660 0.950 1_554 S
C3681 C3680 1.373 . S
C3681 C3697 1.377 1_554 S
C3682 C3680 1.389 . S
C3682 C3683 1.524 . S
C3682 C3696 1.377 . S
C3683 C3682 1.524 . S
C3683 C3684 1.397 . S
C3683 C3688 1.363 . S
C3684 H3661 0.950 . S
C3684 C3683 1.397 . S
C3684 C3685 1.334 . S
C3685 H3662 0.950 . S
C3685 C3684 1.334 . S
C3685 C3686 1.287 . S
C3686 C3685 1.287 . S
C3686 C3687 1.524 . S
C3686 H3705 0.913 . S
C3687 H3663 0.950 . S
C3687 C3686 1.524 . S
C3687 C3688 1.415 . S
C3688 H3664 0.950 . S
C3688 C3683 1.363 . S
C3688 C3687 1.415 . S
C3689 H3665 0.951 . S
C3689 C3690 1.366 . S
C3689 C3691 1.388 . S
C3690 C3689 1.366 . S
C3690 C3694 1.385 . S
C3691 H3666 0.951 . S
C3691 C3689 1.388 . S
C3691 C3692 1.366 . S
C3692 C3691 1.366 . S
C3692 C3693 1.414 . S
C3692 C3695 1.499 . S
C3693 H3667 0.950 . S
C3693 C3692 1.414 . S
C3693 C3694 1.374 . S
C3694 H3668 0.950 . S
C3694 C3690 1.385 . S
C3694 C3693 1.374 . S
C3695 C3692 1.499 . S
C3695 C3696 1.373 . S
C3695 C3697 1.389 1_554 S
C3696 H3669 0.950 . S
C3696 C3682 1.377 . S
C3696 C3695 1.373 . S
C3697 C3681 1.377 1_556 S
C3697 C3695 1.389 1_556 S
C3697 C3698 1.524 . S
C3698 C3697 1.524 . S
C3698 C3699 1.397 . S
C3698 C3703 1.363 . S
C3699 H3670 0.950 . S
C3699 C3698 1.397 . S
C3699 C3700 1.334 . S
C3700 H3671 0.950 . S
C3700 C3699 1.334 . S
C3700 C3701 1.287 . S
C3701 C3700 1.287 . S
C3701 C3702 1.524 . S
C3701 H3704 0.999 . S
C3702 H3672 0.950 . S
C3702 C3701 1.524 . S
C3702 C3703 1.415 . S
C3703 H3673 0.950 . S
C3703 C3698 1.363 . S
C3703 C3702 1.415 . S
H3704 C3701 0.999 . S
H3705 C3686 0.913 . S
H3706 C3724 0.951 . S
H3707 C3726 0.951 . S
H3708 C3728 0.950 . S
H3709 C3729 0.950 . S
H3710 C3731 0.950 . S
H3711 C3734 0.950 . S
H3712 C3735 0.950 1_556 S
H3713 C3737 0.950 . S
H3714 C3738 0.950 . S
H3715 C3739 0.951 . S
H3716 C3741 0.951 . S
H3717 C3743 0.950 . S
H3718 C3744 0.950 . S
H3719 C3746 0.950 . S
H3720 C3749 0.950 . S
H3721 C3750 0.950 . S
H3722 C3752 0.950 . S
H3723 C3753 0.950 . S
C3724 H3706 0.951 . S
C3724 C3725 1.366 . S
C3724 C3726 1.388 . S
C3725 C3724 1.366 . S
C3725 C3729 1.385 . S
C3726 H3707 0.951 . S
C3726 C3724 1.388 . S
C3726 C3727 1.366 . S
C3727 C3726 1.366 . S
C3727 C3728 1.414 . S
C3727 C3730 1.499 . S
C3728 H3708 0.950 . S
C3728 C3727 1.414 . S
C3728 C3729 1.374 . S
C3729 H3709 0.950 . S
C3729 C3725 1.385 . S
C3729 C3728 1.374 . S
C3730 C3727 1.499 . S
C3730 C3731 1.373 . S
C3730 C3732 1.389 . S
C3731 H3710 0.950 . S
C3731 C3730 1.373 . S
C3731 C3747 1.377 . S
C3732 C3730 1.389 . S
C3732 C3733 1.524 . S
C3732 C3746 1.377 . S
C3733 C3732 1.524 . S
C3733 C3734 1.397 . S
C3733 C3738 1.363 . S
C3734 H3711 0.950 . S
C3734 C3733 1.397 . S
C3734 C3735 1.334 . S
C3735 H3712 0.950 1_554 S
C3735 C3734 1.334 . S
C3735 C3736 1.287 . S
C3736 C3735 1.287 . S
C3736 C3737 1.524 . S
C3736 H3755 0.913 . S
C3737 H3713 0.950 . S
C3737 C3736 1.524 . S
C3737 C3738 1.415 . S
C3738 H3714 0.950 . S
C3738 C3733 1.363 . S
C3738 C3737 1.415 . S
C3739 H3715 0.951 . S
C3739 C3740 1.366 . S
C3739 C3741 1.388 . S
C3740 C3739 1.366 . S
C3740 C3744 1.385 . S
C3741 H3716 0.951 . S
C3741 C3739 1.388 . S
C3741 C3742 1.366 . S
C3742 C3741 1.366 . S
C3742 C3743 1.414 . S
C3742 C3745 1.499 . S
C3743 H3717 0.950 . S
C3743 C3742 1.414 . S
C3743 C3744 1.374 . S
C3744 H3718 0.950 . S
C3744 C3740 1.385 . S
C3744 C3743 1.374 . S
C3745 C3742 1.499 . S
C3745 C3746 1.373 . S
C3745 C3747 1.389 . S
C3746 H3719 0.950 . S
C3746 C3732 1.377 . S
C3746 C3745 1.373 . S
C3747 C3731 1.377 . S
C3747 C3745 1.389 . S
C3747 C3748 1.524 . S
C3748 C3747 1.524 . S
C3748 C3749 1.397 . S
C3748 C3753 1.363 . S
C3749 H3720 0.950 . S
C3749 C3748 1.397 . S
C3749 C3750 1.334 . S
C3750 H3721 0.950 . S
C3750 C3749 1.334 . S
C3750 C3751 1.287 . S
C3751 C3750 1.287 . S
C3751 C3752 1.524 . S
C3751 H3754 0.999 . S
C3752 H3722 0.950 . S
C3752 C3751 1.524 . S
C3752 C3753 1.415 . S
C3753 H3723 0.950 . S
C3753 C3748 1.363 . S
C3753 C3752 1.415 . S
H3754 C3751 0.999 . S
H3755 C3736 0.913 . S
H3756 C3774 0.951 . S
H3757 C3776 0.951 . S
H3758 C3778 0.950 . S
H3759 C3779 0.950 . S
H3760 C3781 0.950 . S
H3761 C3784 0.950 . S
H3762 C3785 0.950 . S
H3763 C3787 0.950 . S
H3764 C3788 0.950 . S
H3765 C3789 0.951 . S
H3766 C3791 0.951 . S
H3767 C3793 0.950 . S
H3768 C3794 0.950 . S
H3769 C3796 0.950 . S
H3770 C3799 0.950 . S
H3771 C3800 0.950 . S
H3772 C3802 0.950 . S
H3773 C3803 0.950 . S
C3774 H3756 0.951 . S
C3774 C3775 1.366 . S
C3774 C3776 1.388 . S
C3775 C3774 1.366 . S
C3775 C3779 1.385 . S
C3776 H3757 0.951 . S
C3776 C3774 1.388 . S
C3776 C3777 1.366 . S
C3777 C3776 1.366 . S
C3777 C3778 1.414 . S
C3777 C3780 1.499 . S
C3778 H3758 0.950 . S
C3778 C3777 1.414 . S
C3778 C3779 1.374 . S
C3779 H3759 0.950 . S
C3779 C3775 1.385 . S
C3779 C3778 1.374 . S
C3780 C3777 1.499 . S
C3780 C3781 1.373 . S
C3780 C3782 1.389 . S
C3781 H3760 0.950 . S
C3781 C3780 1.373 . S
C3781 C3797 1.377 . S
C3782 C3780 1.389 . S
C3782 C3783 1.524 . S
C3782 C3796 1.377 . S
C3783 C3782 1.524 . S
C3783 C3784 1.397 . S
C3783 C3788 1.363 . S
C3784 H3761 0.950 . S
C3784 C3783 1.397 . S
C3784 C3785 1.334 . S
C3785 H3762 0.950 . S
C3785 C3784 1.334 . S
C3785 C3786 1.287 . S
C3786 C3785 1.287 . S
C3786 C3787 1.524 . S
C3786 H3805 0.913 . S
C3787 H3763 0.950 . S
C3787 C3786 1.524 . S
C3787 C3788 1.415 . S
C3788 H3764 0.950 . S
C3788 C3783 1.363 . S
C3788 C3787 1.415 . S
C3789 H3765 0.951 . S
C3789 C3790 1.366 . S
C3789 C3791 1.388 . S
C3790 C3789 1.366 . S
C3790 C3794 1.385 . S
C3791 H3766 0.951 . S
C3791 C3789 1.388 . S
C3791 C3792 1.366 . S
C3792 C3791 1.366 . S
C3792 C3793 1.414 . S
C3792 C3795 1.499 . S
C3793 H3767 0.950 . S
C3793 C3792 1.414 . S
C3793 C3794 1.374 . S
C3794 H3768 0.950 . S
C3794 C3790 1.385 . S
C3794 C3793 1.374 . S
C3795 C3792 1.499 . S
C3795 C3796 1.373 . S
C3795 C3797 1.389 . S
C3796 H3769 0.950 . S
C3796 C3782 1.377 . S
C3796 C3795 1.373 . S
C3797 C3781 1.377 . S
C3797 C3795 1.389 . S
C3797 C3798 1.524 . S
C3798 C3797 1.524 . S
C3798 C3799 1.397 . S
C3798 C3803 1.363 . S
C3799 H3770 0.950 . S
C3799 C3798 1.397 . S
C3799 C3800 1.334 . S
C3800 H3771 0.950 . S
C3800 C3799 1.334 . S
C3800 C3801 1.287 . S
C3801 C3800 1.287 . S
C3801 C3802 1.524 . S
C3801 H3804 0.999 . S
C3802 H3772 0.950 . S
C3802 C3801 1.524 . S
C3802 C3803 1.415 . S
C3803 H3773 0.950 . S
C3803 C3798 1.363 . S
C3803 C3802 1.415 . S
H3804 C3801 0.999 . S
H3805 C3786 0.913 . S
H3806 C3824 0.951 . S
H3807 C3826 0.951 . S
H3808 C3828 0.950 . S
H3809 C3829 0.950 . S
H3810 C3831 0.950 . S
H3811 C3834 0.950 . S
H3812 C3835 0.950 . S
H3813 C3837 0.950 . S
H3814 C3838 0.950 . S
H3815 C3839 0.951 . S
H3816 C3841 0.951 . S
H3817 C3843 0.950 . S
H3818 C3844 0.950 . S
H3819 C3846 0.950 . S
H3820 C3849 0.950 . S
H3821 C3850 0.950 . S
H3822 C3852 0.950 . S
H3823 C3853 0.950 . S
C3824 H3806 0.951 . S
C3824 C3825 1.366 . S
C3824 C3826 1.388 . S
C3825 C3824 1.366 . S
C3825 C3829 1.385 . S
C3826 H3807 0.951 . S
C3826 C3824 1.388 . S
C3826 C3827 1.366 . S
C3827 C3826 1.366 . S
C3827 C3828 1.414 . S
C3827 C3830 1.499 . S
C3828 H3808 0.950 . S
C3828 C3827 1.414 . S
C3828 C3829 1.374 . S
C3829 H3809 0.950 . S
C3829 C3825 1.385 . S
C3829 C3828 1.374 . S
C3830 C3827 1.499 . S
C3830 C3831 1.373 . S
C3830 C3832 1.389 . S
C3831 H3810 0.950 . S
C3831 C3830 1.373 . S
C3831 C3847 1.377 . S
C3832 C3830 1.389 . S
C3832 C3833 1.524 . S
C3832 C3846 1.377 . S
C3833 C3832 1.524 . S
C3833 C3834 1.397 . S
C3833 C3838 1.363 . S
C3834 H3811 0.950 . S
C3834 C3833 1.397 . S
C3834 C3835 1.334 . S
C3835 H3812 0.950 . S
C3835 C3834 1.334 . S
C3835 C3836 1.287 . S
C3836 C3835 1.287 . S
C3836 C3837 1.524 . S
C3836 H3855 0.913 . S
C3837 H3813 0.950 . S
C3837 C3836 1.524 . S
C3837 C3838 1.415 . S
C3838 H3814 0.950 . S
C3838 C3833 1.363 . S
C3838 C3837 1.415 . S
C3839 H3815 0.951 . S
C3839 C3840 1.366 . S
C3839 C3841 1.388 . S
C3840 C3839 1.366 . S
C3840 C3844 1.385 . S
C3841 H3816 0.951 . S
C3841 C3839 1.388 . S
C3841 C3842 1.366 . S
C3842 C3841 1.366 . S
C3842 C3843 1.414 . S
C3842 C3845 1.499 . S
C3843 H3817 0.950 . S
C3843 C3842 1.414 . S
C3843 C3844 1.374 . S
C3844 H3818 0.950 . S
C3844 C3840 1.385 . S
C3844 C3843 1.374 . S
C3845 C3842 1.499 . S
C3845 C3846 1.373 . S
C3845 C3847 1.389 . S
C3846 H3819 0.950 . S
C3846 C3832 1.377 . S
C3846 C3845 1.373 . S
C3847 C3831 1.377 . S
C3847 C3845 1.389 . S
C3847 C3848 1.524 . S
C3848 C3847 1.524 . S
C3848 C3849 1.397 . S
C3848 C3853 1.363 . S
C3849 H3820 0.950 . S
C3849 C3848 1.397 . S
C3849 C3850 1.334 . S
C3850 H3821 0.950 . S
C3850 C3849 1.334 . S
C3850 C3851 1.287 . S
C3851 C3850 1.287 . S
C3851 C3852 1.524 . S
C3851 H3854 0.999 . S
C3852 H3822 0.950 . S
C3852 C3851 1.524 . S
C3852 C3853 1.415 . S
C3853 H3823 0.950 . S
C3853 C3848 1.363 . S
C3853 C3852 1.415 . S
H3854 C3851 0.999 . S
H3855 C3836 0.913 . S
H3856 C3874 0.951 . S
H3857 C3876 0.951 . S
H3858 C3878 0.950 1_545 S
H3859 C3879 0.950 . S
H3860 C3881 0.950 . S
H3861 C3884 0.950 . S
H3862 C3885 0.950 . S
H3863 C3887 0.950 . S
H3864 C3888 0.950 . S
H3865 C3889 0.951 . S
H3866 C3891 0.951 . S
H3867 C3893 0.950 . S
H3868 C3894 0.950 . S
H3869 C3896 0.950 . S
H3870 C3899 0.950 . S
H3871 C3900 0.950 . S
H3872 C3902 0.950 1_545 S
H3873 C3903 0.950 . S
C3874 H3856 0.951 . S
C3874 C3875 1.366 1_565 S
C3874 C3876 1.388 . S
C3875 C3874 1.366 1_545 S
C3875 C3879 1.385 . S
C3876 H3857 0.951 . S
C3876 C3874 1.388 . S
C3876 C3877 1.366 . S
C3877 C3876 1.366 . S
C3877 C3878 1.414 . S
C3877 C3880 1.499 . S
C3878 H3858 0.950 1_565 S
C3878 C3877 1.414 . S
C3878 C3879 1.374 1_565 S
C3879 H3859 0.950 . S
C3879 C3875 1.385 . S
C3879 C3878 1.374 1_545 S
C3880 C3877 1.499 . S
C3880 C3881 1.373 . S
C3880 C3882 1.389 . S
C3881 H3860 0.950 . S
C3881 C3880 1.373 . S
C3881 C3897 1.377 . S
C3882 C3880 1.389 . S
C3882 C3883 1.524 . S
C3882 C3896 1.377 . S
C3883 C3882 1.524 . S
C3883 C3884 1.397 . S
C3883 C3888 1.363 . S
C3884 H3861 0.950 . S
C3884 C3883 1.397 . S
C3884 C3885 1.334 . S
C3885 H3862 0.950 . S
C3885 C3884 1.334 . S
C3885 C3886 1.287 . S
C3886 C3885 1.287 . S
C3886 C3887 1.524 . S
C3886 H3905 0.913 . S
C3887 H3863 0.950 . S
C3887 C3886 1.524 . S
C3887 C3888 1.415 . S
C3888 H3864 0.950 . S
C3888 C3883 1.363 . S
C3888 C3887 1.415 . S
C3889 H3865 0.951 . S
C3889 C3890 1.366 . S
C3889 C3891 1.388 . S
C3890 C3889 1.366 . S
C3890 C3894 1.385 . S
C3891 H3866 0.951 . S
C3891 C3889 1.388 . S
C3891 C3892 1.366 . S
C3892 C3891 1.366 . S
C3892 C3893 1.414 . S
C3892 C3895 1.499 . S
C3893 H3867 0.950 . S
C3893 C3892 1.414 . S
C3893 C3894 1.374 . S
C3894 H3868 0.950 . S
C3894 C3890 1.385 . S
C3894 C3893 1.374 . S
C3895 C3892 1.499 . S
C3895 C3896 1.373 . S
C3895 C3897 1.389 . S
C3896 H3869 0.950 . S
C3896 C3882 1.377 . S
C3896 C3895 1.373 . S
C3897 C3881 1.377 . S
C3897 C3895 1.389 . S
C3897 C3898 1.524 . S
C3898 C3897 1.524 . S
C3898 C3899 1.397 . S
C3898 C3903 1.363 . S
C3899 H3870 0.950 . S
C3899 C3898 1.397 . S
C3899 C3900 1.334 . S
C3900 H3871 0.950 . S
C3900 C3899 1.334 . S
C3900 C3901 1.287 . S
C3901 C3900 1.287 . S
C3901 C3902 1.524 . S
C3901 H3904 0.999 . S
C3902 H3872 0.950 1_565 S
C3902 C3901 1.524 . S
C3902 C3903 1.415 . S
C3903 H3873 0.950 . S
C3903 C3898 1.363 . S
C3903 C3902 1.415 . S
H3904 C3901 0.999 . S
H3905 C3886 0.913 . S
H3906 C3924 0.951 . S
H3907 C3926 0.951 . S
H3908 C3928 0.950 . S
H3909 C3929 0.950 . S
H3910 C3931 0.950 . S
H3911 C3934 0.950 . S
H3912 C3935 0.950 . S
H3913 C3937 0.950 . S
H3914 C3938 0.950 . S
H3915 C3939 0.951 1_545 S
H3916 C3941 0.951 . S
H3917 C3943 0.950 . S
H3918 C3944 0.950 . S
H3919 C3946 0.950 . S
H3920 C3949 0.950 . S
H3921 C3950 0.950 . S
H3922 C3952 0.950 1_545 S
H3923 C3953 0.950 . S
C3924 H3906 0.951 . S
C3924 C3925 1.366 . S
C3924 C3926 1.388 . S
C3925 C3924 1.366 . S
C3925 C3929 1.385 . S
C3926 H3907 0.951 . S
C3926 C3924 1.388 . S
C3926 C3927 1.366 . S
C3927 C3926 1.366 . S
C3927 C3928 1.414 . S
C3927 C3930 1.499 . S
C3928 H3908 0.950 . S
C3928 C3927 1.414 . S
C3928 C3929 1.374 . S
C3929 H3909 0.950 . S
C3929 C3925 1.385 . S
C3929 C3928 1.374 . S
C3930 C3927 1.499 . S
C3930 C3931 1.373 . S
C3930 C3932 1.389 . S
C3931 H3910 0.950 . S
C3931 C3930 1.373 . S
C3931 C3947 1.377 . S
C3932 C3930 1.389 . S
C3932 C3933 1.524 . S
C3932 C3946 1.377 . S
C3933 C3932 1.524 . S
C3933 C3934 1.397 . S
C3933 C3938 1.363 . S
C3934 H3911 0.950 . S
C3934 C3933 1.397 . S
C3934 C3935 1.334 . S
C3935 H3912 0.950 . S
C3935 C3934 1.334 . S
C3935 C3936 1.287 . S
C3936 C3935 1.287 . S
C3936 C3937 1.524 . S
C3936 H3955 0.913 . S
C3937 H3913 0.950 . S
C3937 C3936 1.524 . S
C3937 C3938 1.415 . S
C3938 H3914 0.950 . S
C3938 C3933 1.363 . S
C3938 C3937 1.415 . S
C3939 H3915 0.951 1_565 S
C3939 C3940 1.366 . S
C3939 C3941 1.388 . S
C3940 C3939 1.366 . S
C3940 C3944 1.385 . S
C3941 H3916 0.951 . S
C3941 C3939 1.388 . S
C3941 C3942 1.366 . S
C3942 C3941 1.366 . S
C3942 C3943 1.414 . S
C3942 C3945 1.499 . S
C3943 H3917 0.950 . S
C3943 C3942 1.414 . S
C3943 C3944 1.374 . S
C3944 H3918 0.950 . S
C3944 C3940 1.385 . S
C3944 C3943 1.374 . S
C3945 C3942 1.499 . S
C3945 C3946 1.373 . S
C3945 C3947 1.389 . S
C3946 H3919 0.950 . S
C3946 C3932 1.377 . S
C3946 C3945 1.373 . S
C3947 C3931 1.377 . S
C3947 C3945 1.389 . S
C3947 C3948 1.524 . S
C3948 C3947 1.524 . S
C3948 C3949 1.397 . S
C3948 C3953 1.363 . S
C3949 H3920 0.950 . S
C3949 C3948 1.397 . S
C3949 C3950 1.334 . S
C3950 H3921 0.950 . S
C3950 C3949 1.334 . S
C3950 C3951 1.287 . S
C3951 C3950 1.287 . S
C3951 C3952 1.524 . S
C3951 H3954 0.999 . S
C3952 H3922 0.950 1_565 S
C3952 C3951 1.524 . S
C3952 C3953 1.415 . S
C3953 H3923 0.950 . S
C3953 C3948 1.363 . S
C3953 C3952 1.415 . S
H3954 C3951 0.999 . S
H3955 C3936 0.913 . S
H3956 C3974 0.951 . S
H3957 C3976 0.951 . S
H3958 C3978 0.950 . S
H3959 C3979 0.950 . S
H3960 C3981 0.950 . S
H3961 C3984 0.950 . S
H3962 C3985 0.950 . S
H3963 C3987 0.950 . S
H3964 C3988 0.950 . S
H3965 C3989 0.951 . S
H3966 C3991 0.951 . S
H3967 C3993 0.950 . S
H3968 C3994 0.950 . S
H3969 C3996 0.950 . S
H3970 C3999 0.950 . S
H3971 C4000 0.950 . S
H3972 C4002 0.950 . S
H3973 C4003 0.950 . S
C3974 H3956 0.951 . S
C3974 C3975 1.366 . S
C3974 C3976 1.388 . S
C3975 C3974 1.366 . S
C3975 C3979 1.385 . S
C3976 H3957 0.951 . S
C3976 C3974 1.388 . S
C3976 C3977 1.366 . S
C3977 C3976 1.366 . S
C3977 C3978 1.414 . S
C3977 C3980 1.499 . S
C3978 H3958 0.950 . S
C3978 C3977 1.414 . S
C3978 C3979 1.374 . S
C3979 H3959 0.950 . S
C3979 C3975 1.385 . S
C3979 C3978 1.374 . S
C3980 C3977 1.499 . S
C3980 C3981 1.373 . S
C3980 C3982 1.389 . S
C3981 H3960 0.950 . S
C3981 C3980 1.373 . S
C3981 C3997 1.377 . S
C3982 C3980 1.389 . S
C3982 C3983 1.524 . S
C3982 C3996 1.377 . S
C3983 C3982 1.524 . S
C3983 C3984 1.397 . S
C3983 C3988 1.363 . S
C3984 H3961 0.950 . S
C3984 C3983 1.397 . S
C3984 C3985 1.334 . S
C3985 H3962 0.950 . S
C3985 C3984 1.334 . S
C3985 C3986 1.287 . S
C3986 C3985 1.287 . S
C3986 C3987 1.524 . S
C3986 H4005 0.913 . S
C3987 H3963 0.950 . S
C3987 C3986 1.524 . S
C3987 C3988 1.415 . S
C3988 H3964 0.950 . S
C3988 C3983 1.363 . S
C3988 C3987 1.415 . S
C3989 H3965 0.951 . S
C3989 C3990 1.366 . S
C3989 C3991 1.388 . S
C3990 C3989 1.366 . S
C3990 C3994 1.385 . S
C3991 H3966 0.951 . S
C3991 C3989 1.388 . S
C3991 C3992 1.366 . S
C3992 C3991 1.366 . S
C3992 C3993 1.414 . S
C3992 C3995 1.499 . S
C3993 H3967 0.950 . S
C3993 C3992 1.414 . S
C3993 C3994 1.374 . S
C3994 H3968 0.950 . S
C3994 C3990 1.385 . S
C3994 C3993 1.374 . S
C3995 C3992 1.499 . S
C3995 C3996 1.373 . S
C3995 C3997 1.389 . S
C3996 H3969 0.950 . S
C3996 C3982 1.377 . S
C3996 C3995 1.373 . S
C3997 C3981 1.377 . S
C3997 C3995 1.389 . S
C3997 C3998 1.524 . S
C3998 C3997 1.524 . S
C3998 C3999 1.397 . S
C3998 C4003 1.363 . S
C3999 H3970 0.950 . S
C3999 C3998 1.397 . S
C3999 C4000 1.334 . S
C4000 H3971 0.950 . S
C4000 C3999 1.334 . S
C4000 C4001 1.287 . S
C4001 C4000 1.287 . S
C4001 C4002 1.524 . S
C4001 H4004 0.999 . S
C4002 H3972 0.950 . S
C4002 C4001 1.524 . S
C4002 C4003 1.415 . S
C4003 H3973 0.950 . S
C4003 C3998 1.363 . S
C4003 C4002 1.415 . S
H4004 C4001 0.999 . S
H4005 C3986 0.913 . S
H4006 C4024 0.951 . S
H4007 C4026 0.951 . S
H4008 C4028 0.950 . S
H4009 C4029 0.950 . S
H4010 C4031 0.950 . S
H4011 C4034 0.950 . S
H4012 C4035 0.950 . S
H4013 C4037 0.950 . S
H4014 C4038 0.950 . S
H4015 C4039 0.951 . S
H4016 C4041 0.951 . S
H4017 C4043 0.950 . S
H4018 C4044 0.950 . S
H4019 C4046 0.950 . S
H4020 C4049 0.950 . S
H4021 C4050 0.950 . S
H4022 C4052 0.950 . S
H4023 C4053 0.950 . S
C4024 H4006 0.951 . S
C4024 C4025 1.366 . S
C4024 C4026 1.388 . S
C4025 C4024 1.366 . S
C4025 C4029 1.385 . S
C4026 H4007 0.951 . S
C4026 C4024 1.388 . S
C4026 C4027 1.366 . S
C4027 C4026 1.366 . S
C4027 C4028 1.414 . S
C4027 C4030 1.499 . S
C4028 H4008 0.950 . S
C4028 C4027 1.414 . S
C4028 C4029 1.374 . S
C4029 H4009 0.950 . S
C4029 C4025 1.385 . S
C4029 C4028 1.374 . S
C4030 C4027 1.499 . S
C4030 C4031 1.373 . S
C4030 C4032 1.389 . S
C4031 H4010 0.950 . S
C4031 C4030 1.373 . S
C4031 C4047 1.377 . S
C4032 C4030 1.389 . S
C4032 C4033 1.524 . S
C4032 C4046 1.377 . S
C4033 C4032 1.524 . S
C4033 C4034 1.397 . S
C4033 C4038 1.363 . S
C4034 H4011 0.950 . S
C4034 C4033 1.397 . S
C4034 C4035 1.334 . S
C4035 H4012 0.950 . S
C4035 C4034 1.334 . S
C4035 C4036 1.287 . S
C4036 C4035 1.287 . S
C4036 C4037 1.524 . S
C4036 H4055 0.913 . S
C4037 H4013 0.950 . S
C4037 C4036 1.524 . S
C4037 C4038 1.415 . S
C4038 H4014 0.950 . S
C4038 C4033 1.363 . S
C4038 C4037 1.415 . S
C4039 H4015 0.951 . S
C4039 C4040 1.366 . S
C4039 C4041 1.388 . S
C4040 C4039 1.366 . S
C4040 C4044 1.385 . S
C4041 H4016 0.951 . S
C4041 C4039 1.388 . S
C4041 C4042 1.366 . S
C4042 C4041 1.366 . S
C4042 C4043 1.414 . S
C4042 C4045 1.499 . S
C4043 H4017 0.950 . S
C4043 C4042 1.414 . S
C4043 C4044 1.374 . S
C4044 H4018 0.950 . S
C4044 C4040 1.385 . S
C4044 C4043 1.374 . S
C4045 C4042 1.499 . S
C4045 C4046 1.373 . S
C4045 C4047 1.389 . S
C4046 H4019 0.950 . S
C4046 C4032 1.377 . S
C4046 C4045 1.373 . S
C4047 C4031 1.377 . S
C4047 C4045 1.389 . S
C4047 C4048 1.524 . S
C4048 C4047 1.524 . S
C4048 C4049 1.397 . S
C4048 C4053 1.363 . S
C4049 H4020 0.950 . S
C4049 C4048 1.397 . S
C4049 C4050 1.334 . S
C4050 H4021 0.950 . S
C4050 C4049 1.334 . S
C4050 C4051 1.287 . S
C4051 C4050 1.287 . S
C4051 C4052 1.524 . S
C4051 H4054 0.999 . S
C4052 H4022 0.950 . S
C4052 C4051 1.524 . S
C4052 C4053 1.415 . S
C4053 H4023 0.950 . S
C4053 C4048 1.363 . S
C4053 C4052 1.415 . S
H4054 C4051 0.999 . S
H4055 C4036 0.913 . S
H4056 C4074 0.951 . S
H4057 C4076 0.951 . S
H4058 C4078 0.950 . S
H4059 C4079 0.950 . S
H4060 C4081 0.950 . S
H4061 C4084 0.950 . S
H4062 C4085 0.950 . S
H4063 C4087 0.950 . S
H4064 C4088 0.950 . S
H4065 C4089 0.951 . S
H4066 C4091 0.951 . S
H4067 C4093 0.950 . S
H4068 C4094 0.950 . S
H4069 C4096 0.950 . S
H4070 C4099 0.950 . S
H4071 C4100 0.950 . S
H4072 C4102 0.950 . S
H4073 C4103 0.950 . S
C4074 H4056 0.951 . S
C4074 C4075 1.366 . S
C4074 C4076 1.388 . S
C4075 C4074 1.366 . S
C4075 C4079 1.385 . S
C4076 H4057 0.951 . S
C4076 C4074 1.388 . S
C4076 C4077 1.366 . S
C4077 C4076 1.366 . S
C4077 C4078 1.414 . S
C4077 C4080 1.499 . S
C4078 H4058 0.950 . S
C4078 C4077 1.414 . S
C4078 C4079 1.374 . S
C4079 H4059 0.950 . S
C4079 C4075 1.385 . S
C4079 C4078 1.374 . S
C4080 C4077 1.499 . S
C4080 C4081 1.373 . S
C4080 C4082 1.389 . S
C4081 H4060 0.950 . S
C4081 C4080 1.373 . S
C4081 C4097 1.377 . S
C4082 C4080 1.389 . S
C4082 C4083 1.524 . S
C4082 C4096 1.377 . S
C4083 C4082 1.524 . S
C4083 C4084 1.397 . S
C4083 C4088 1.363 . S
C4084 H4061 0.950 . S
C4084 C4083 1.397 . S
C4084 C4085 1.334 . S
C4085 H4062 0.950 . S
C4085 C4084 1.334 . S
C4085 C4086 1.287 . S
C4086 C4085 1.287 . S
C4086 C4087 1.524 . S
C4086 H4105 0.913 . S
C4087 H4063 0.950 . S
C4087 C4086 1.524 . S
C4087 C4088 1.415 . S
C4088 H4064 0.950 . S
C4088 C4083 1.363 . S
C4088 C4087 1.415 . S
C4089 H4065 0.951 . S
C4089 C4090 1.366 . S
C4089 C4091 1.388 . S
C4090 C4089 1.366 . S
C4090 C4094 1.385 . S
C4091 H4066 0.951 . S
C4091 C4089 1.388 . S
C4091 C4092 1.366 . S
C4092 C4091 1.366 . S
C4092 C4093 1.414 . S
C4092 C4095 1.499 . S
C4093 H4067 0.950 . S
C4093 C4092 1.414 . S
C4093 C4094 1.374 . S
C4094 H4068 0.950 . S
C4094 C4090 1.385 . S
C4094 C4093 1.374 . S
C4095 C4092 1.499 . S
C4095 C4096 1.373 . S
C4095 C4097 1.389 . S
C4096 H4069 0.950 . S
C4096 C4082 1.377 . S
C4096 C4095 1.373 . S
C4097 C4081 1.377 . S
C4097 C4095 1.389 . S
C4097 C4098 1.524 . S
C4098 C4097 1.524 . S
C4098 C4099 1.397 . S
C4098 C4103 1.363 . S
C4099 H4070 0.950 . S
C4099 C4098 1.397 . S
C4099 C4100 1.334 . S
C4100 H4071 0.950 . S
C4100 C4099 1.334 . S
C4100 C4101 1.287 . S
C4101 C4100 1.287 . S
C4101 C4102 1.524 . S
C4101 H4104 0.999 . S
C4102 H4072 0.950 . S
C4102 C4101 1.524 . S
C4102 C4103 1.415 . S
C4103 H4073 0.950 . S
C4103 C4098 1.363 . S
C4103 C4102 1.415 . S
H4104 C4101 0.999 . S
H4105 C4086 0.913 . S
H4106 C4124 0.951 . S
H4107 C4126 0.951 . S
H4108 C4128 0.950 . S
H4109 C4129 0.950 . S
H4110 C4131 0.950 . S
H4111 C4134 0.950 . S
H4112 C4135 0.950 . S
H4113 C4137 0.950 . S
H4114 C4138 0.950 . S
H4115 C4139 0.951 . S
H4116 C4141 0.951 . S
H4117 C4143 0.950 . S
H4118 C4144 0.950 . S
H4119 C4146 0.950 . S
H4120 C4149 0.950 . S
H4121 C4150 0.950 . S
H4122 C4152 0.950 . S
H4123 C4153 0.950 . S
C4124 H4106 0.951 . S
C4124 C4125 1.366 . S
C4124 C4126 1.388 . S
C4125 C4124 1.366 . S
C4125 C4129 1.385 . S
C4126 H4107 0.951 . S
C4126 C4124 1.388 . S
C4126 C4127 1.366 . S
C4127 C4126 1.366 . S
C4127 C4128 1.414 . S
C4127 C4130 1.499 . S
C4128 H4108 0.950 . S
C4128 C4127 1.414 . S
C4128 C4129 1.374 . S
C4129 H4109 0.950 . S
C4129 C4125 1.385 . S
C4129 C4128 1.374 . S
C4130 C4127 1.499 . S
C4130 C4131 1.373 . S
C4130 C4132 1.389 . S
C4131 H4110 0.950 . S
C4131 C4130 1.373 . S
C4131 C4147 1.377 . S
C4132 C4130 1.389 . S
C4132 C4133 1.524 . S
C4132 C4146 1.377 . S
C4133 C4132 1.524 . S
C4133 C4134 1.397 . S
C4133 C4138 1.363 . S
C4134 H4111 0.950 . S
C4134 C4133 1.397 . S
C4134 C4135 1.334 . S
C4135 H4112 0.950 . S
C4135 C4134 1.334 . S
C4135 C4136 1.287 . S
C4136 C4135 1.287 . S
C4136 C4137 1.524 . S
C4136 H4155 0.913 . S
C4137 H4113 0.950 . S
C4137 C4136 1.524 . S
C4137 C4138 1.415 . S
C4138 H4114 0.950 . S
C4138 C4133 1.363 . S
C4138 C4137 1.415 . S
C4139 H4115 0.951 . S
C4139 C4140 1.366 . S
C4139 C4141 1.388 . S
C4140 C4139 1.366 . S
C4140 C4144 1.385 . S
C4141 H4116 0.951 . S
C4141 C4139 1.388 . S
C4141 C4142 1.366 . S
C4142 C4141 1.366 . S
C4142 C4143 1.414 . S
C4142 C4145 1.499 . S
C4143 H4117 0.950 . S
C4143 C4142 1.414 . S
C4143 C4144 1.374 . S
C4144 H4118 0.950 . S
C4144 C4140 1.385 . S
C4144 C4143 1.374 . S
C4145 C4142 1.499 . S
C4145 C4146 1.373 . S
C4145 C4147 1.389 . S
C4146 H4119 0.950 . S
C4146 C4132 1.377 . S
C4146 C4145 1.373 . S
C4147 C4131 1.377 . S
C4147 C4145 1.389 . S
C4147 C4148 1.524 . S
C4148 C4147 1.524 . S
C4148 C4149 1.397 . S
C4148 C4153 1.363 . S
C4149 H4120 0.950 . S
C4149 C4148 1.397 . S
C4149 C4150 1.334 . S
C4150 H4121 0.950 . S
C4150 C4149 1.334 . S
C4150 C4151 1.287 . S
C4151 C4150 1.287 . S
C4151 C4152 1.524 . S
C4151 H4154 0.999 . S
C4152 H4122 0.950 . S
C4152 C4151 1.524 . S
C4152 C4153 1.415 . S
C4153 H4123 0.950 . S
C4153 C4148 1.363 . S
C4153 C4152 1.415 . S
H4154 C4151 0.999 . S
H4155 C4136 0.913 . S
H4156 C4174 0.951 . S
H4157 C4176 0.951 . S
H4158 C4178 0.950 . S
H4159 C4179 0.950 . S
H4160 C4181 0.950 . S
H4161 C4184 0.950 . S
H4162 C4185 0.950 . S
H4163 C4187 0.944 1_556 S
H4164 C4188 0.950 . S
H4165 C4189 0.951 . S
H4166 C4191 0.951 . S
H4167 C4193 0.950 . S
H4168 C4194 0.950 . S
H4169 C4196 0.950 1_554 S
H4170 C4199 0.950 . S
H4171 C4200 0.953 . S
H4172 C4202 0.950 . S
H4173 C4203 0.950 . S
C4174 H4156 0.951 . S
C4174 C4175 1.366 . S
C4174 C4176 1.388 . S
C4175 C4174 1.366 . S
C4175 C4179 1.385 . S
C4176 H4157 0.951 . S
C4176 C4174 1.388 . S
C4176 C4177 1.366 . S
C4177 C4176 1.366 . S
C4177 C4178 1.414 . S
C4177 C4180 1.499 . S
C4178 H4158 0.950 . S
C4178 C4177 1.414 . S
C4178 C4179 1.374 . S
C4179 H4159 0.950 . S
C4179 C4175 1.385 . S
C4179 C4178 1.374 . S
C4180 C4177 1.499 . S
C4180 C4181 1.373 . S
C4180 C4182 1.389 . S
C4181 H4160 0.950 . S
C4181 C4180 1.373 . S
C4181 C4197 1.377 . S
C4182 C4180 1.389 . S
C4182 C4183 1.536 . S
C4182 C4196 1.377 . S
C4183 C4182 1.536 . S
C4183 C4184 1.373 1_556 S
C4183 C4188 1.374 . S
C4184 H4161 0.950 . S
C4184 C4183 1.373 1_554 S
C4184 C4185 1.334 . S
C4185 H4162 0.950 . S
C4185 C4184 1.334 . S
C4185 C4186 1.287 . S
C4186 C4185 1.287 . S
C4186 C4187 1.524 . S
C4186 H4205 0.913 . S
C4187 H4163 0.944 1_554 S
C4187 C4186 1.524 . S
C4187 C4188 1.415 1_554 S
C4188 H4164 0.950 . S
C4188 C4183 1.374 . S
C4188 C4187 1.415 1_556 S
C4189 H4165 0.951 . S
C4189 C4190 1.366 . S
C4189 C4191 1.388 . S
C4190 C4189 1.366 . S
C4190 C4194 1.385 1_554 S
C4191 H4166 0.951 . S
C4191 C4189 1.388 . S
C4191 C4192 1.366 1_554 S
C4192 C4191 1.366 1_556 S
C4192 C4193 1.414 . S
C4192 C4195 1.499 . S
C4193 H4167 0.950 . S
C4193 C4192 1.414 . S
C4193 C4194 1.374 . S
C4194 H4168 0.950 . S
C4194 C4190 1.385 1_556 S
C4194 C4193 1.374 . S
C4195 C4192 1.499 . S
C4195 C4196 1.373 . S
C4195 C4197 1.389 . S
C4196 H4169 0.950 1_556 S
C4196 C4182 1.377 . S
C4196 C4195 1.373 . S
C4197 C4181 1.377 . S
C4197 C4195 1.389 . S
C4197 C4198 1.524 . S
C4198 C4197 1.524 . S
C4198 C4199 1.397 . S
C4198 C4203 1.363 1_455 S
C4199 H4170 0.950 . S
C4199 C4198 1.397 . S
C4199 C4200 1.334 1_455 S
C4200 H4171 0.953 . S
C4200 C4199 1.334 1_655 S
C4200 C4201 1.287 . S
C4201 C4200 1.287 . S
C4201 C4202 1.524 . S
C4201 H4204 0.999 . S
C4202 H4172 0.950 . S
C4202 C4201 1.524 . S
C4202 C4203 1.415 . S
C4203 H4173 0.950 . S
C4203 C4198 1.363 1_655 S
C4203 C4202 1.415 . S
H4204 C4201 0.999 . S
H4205 C4186 0.913 . S
H4206 C4224 0.951 . S
H4207 C4226 0.951 . S
H4208 C4228 0.950 . S
H4209 C4229 0.950 . S
H4210 C4231 0.950 . S
H4211 C4234 0.950 . S
H4212 C4235 0.950 . S
H4213 C4237 0.950 . S
H4214 C4238 0.950 . S
H4215 C4239 0.951 . S
H4216 C4241 0.951 . S
H4217 C4243 0.950 . S
H4218 C4244 0.950 . S
H4219 C4246 0.950 . S
H4220 C4249 0.950 . S
H4221 C4250 0.950 . S
H4222 C4252 0.950 . S
H4223 C4253 0.950 . S
C4224 H4206 0.951 . S
C4224 C4225 1.366 . S
C4224 C4226 1.388 1_455 S
C4225 C4224 1.366 . S
C4225 C4229 1.385 . S
C4226 H4207 0.951 . S
C4226 C4224 1.388 1_655 S
C4226 C4227 1.366 . S
C4227 C4226 1.366 . S
C4227 C4228 1.414 1_655 S
C4227 C4230 1.499 . S
C4228 H4208 0.950 . S
C4228 C4227 1.414 1_455 S
C4228 C4229 1.374 . S
C4229 H4209 0.950 . S
C4229 C4225 1.385 . S
C4229 C4228 1.374 . S
C4230 C4227 1.499 . S
C4230 C4231 1.373 . S
C4230 C4232 1.389 . S
C4231 H4210 0.950 . S
C4231 C4230 1.373 . S
C4231 C4247 1.377 . S
C4232 C4230 1.389 . S
C4232 C4233 1.524 . S
C4232 C4246 1.377 . S
C4233 C4232 1.524 . S
C4233 C4234 1.397 . S
C4233 C4238 1.363 . S
C4234 H4211 0.950 . S
C4234 C4233 1.397 . S
C4234 C4235 1.334 . S
C4235 H4212 0.950 . S
C4235 C4234 1.334 . S
C4235 C4236 1.287 . S
C4236 C4235 1.287 . S
C4236 C4237 1.524 . S
C4236 H4255 0.913 . S
C4237 H4213 0.950 . S
C4237 C4236 1.524 . S
C4237 C4238 1.415 . S
C4238 H4214 0.950 . S
C4238 C4233 1.363 . S
C4238 C4237 1.415 . S
C4239 H4215 0.951 . S
C4239 C4240 1.366 . S
C4239 C4241 1.388 . S
C4240 C4239 1.366 . S
C4240 C4244 1.385 . S
C4241 H4216 0.951 . S
C4241 C4239 1.388 . S
C4241 C4242 1.366 . S
C4242 C4241 1.366 . S
C4242 C4243 1.414 . S
C4242 C4245 1.499 . S
C4243 H4217 0.950 . S
C4243 C4242 1.414 . S
C4243 C4244 1.374 . S
C4244 H4218 0.950 . S
C4244 C4240 1.385 . S
C4244 C4243 1.374 . S
C4245 C4242 1.499 . S
C4245 C4246 1.373 . S
C4245 C4247 1.389 . S
C4246 H4219 0.950 . S
C4246 C4232 1.377 . S
C4246 C4245 1.373 . S
C4247 C4231 1.377 . S
C4247 C4245 1.389 . S
C4247 C4248 1.524 . S
C4248 C4247 1.524 . S
C4248 C4249 1.397 . S
C4248 C4253 1.363 . S
C4249 H4220 0.950 . S
C4249 C4248 1.397 . S
C4249 C4250 1.334 . S
C4250 H4221 0.950 . S
C4250 C4249 1.334 . S
C4250 C4251 1.287 . S
C4251 C4250 1.287 . S
C4251 C4252 1.524 . S
C4251 H4254 0.999 . S
C4252 H4222 0.950 . S
C4252 C4251 1.524 . S
C4252 C4253 1.415 . S
C4253 H4223 0.950 . S
C4253 C4248 1.363 . S
C4253 C4252 1.415 . S
H4254 C4251 0.999 . S
H4255 C4236 0.913 . S
H4256 C4274 0.951 . S
H4257 C4276 0.951 . S
H4258 C4278 0.950 . S
H4259 C4279 0.950 . S
H4260 C4281 0.950 . S
H4261 C4284 0.950 . S
H4262 C4285 0.950 . S
H4263 C4287 0.950 . S
H4264 C4288 0.950 . S
H4265 C4289 0.951 . S
H4266 C4291 0.951 . S
H4267 C4293 0.950 . S
H4268 C4294 0.950 . S
H4269 C4296 0.950 . S
H4270 C4299 0.950 . S
H4271 C4300 0.950 . S
H4272 C4302 0.950 . S
H4273 C4303 0.950 . S
C4274 H4256 0.951 . S
C4274 C4275 1.366 . S
C4274 C4276 1.388 . S
C4275 C4274 1.366 . S
C4275 C4279 1.385 . S
C4276 H4257 0.951 . S
C4276 C4274 1.388 . S
C4276 C4277 1.366 . S
C4277 C4276 1.366 . S
C4277 C4278 1.414 . S
C4277 C4280 1.499 . S
C4278 H4258 0.950 . S
C4278 C4277 1.414 . S
C4278 C4279 1.374 . S
C4279 H4259 0.950 . S
C4279 C4275 1.385 . S
C4279 C4278 1.374 . S
C4280 C4277 1.499 . S
C4280 C4281 1.373 . S
C4280 C4282 1.389 . S
C4281 H4260 0.950 . S
C4281 C4280 1.373 . S
C4281 C4297 1.377 . S
C4282 C4280 1.389 . S
C4282 C4283 1.524 . S
C4282 C4296 1.377 . S
C4283 C4282 1.524 . S
C4283 C4284 1.397 . S
C4283 C4288 1.363 . S
C4284 H4261 0.950 . S
C4284 C4283 1.397 . S
C4284 C4285 1.334 . S
C4285 H4262 0.950 . S
C4285 C4284 1.334 . S
C4285 C4286 1.287 . S
C4286 C4285 1.287 . S
C4286 C4287 1.524 . S
C4286 H4305 0.913 . S
C4287 H4263 0.950 . S
C4287 C4286 1.524 . S
C4287 C4288 1.415 . S
C4288 H4264 0.950 . S
C4288 C4283 1.363 . S
C4288 C4287 1.415 . S
C4289 H4265 0.951 . S
C4289 C4290 1.366 . S
C4289 C4291 1.388 . S
C4290 C4289 1.366 . S
C4290 C4294 1.385 . S
C4291 H4266 0.951 . S
C4291 C4289 1.388 . S
C4291 C4292 1.366 . S
C4292 C4291 1.366 . S
C4292 C4293 1.414 . S
C4292 C4295 1.499 . S
C4293 H4267 0.950 . S
C4293 C4292 1.414 . S
C4293 C4294 1.374 . S
C4294 H4268 0.950 . S
C4294 C4290 1.385 . S
C4294 C4293 1.374 . S
C4295 C4292 1.499 . S
C4295 C4296 1.373 . S
C4295 C4297 1.389 . S
C4296 H4269 0.950 . S
C4296 C4282 1.377 . S
C4296 C4295 1.373 . S
C4297 C4281 1.377 . S
C4297 C4295 1.389 . S
C4297 C4298 1.524 . S
C4298 C4297 1.524 . S
C4298 C4299 1.397 . S
C4298 C4303 1.363 . S
C4299 H4270 0.950 . S
C4299 C4298 1.397 . S
C4299 C4300 1.334 . S
C4300 H4271 0.950 . S
C4300 C4299 1.334 . S
C4300 C4301 1.287 . S
C4301 C4300 1.287 . S
C4301 C4302 1.524 . S
C4301 H4304 1.000 . S
C4302 H4272 0.950 . S
C4302 C4301 1.524 . S
C4302 C4303 1.415 . S
C4303 H4273 0.950 . S
C4303 C4298 1.363 . S
C4303 C4302 1.415 . S
H4304 C4301 1.000 . S
H4305 C4286 0.913 . S
H4306 C4324 0.951 . S
H4307 C4326 0.951 . S
H4308 C4328 0.950 . S
H4309 C4329 0.950 . S
H4310 C4331 0.950 . S
H4311 C4334 0.950 . S
H4312 C4335 0.950 . S
H4313 C4337 0.950 . S
H4314 C4338 0.950 1_655 S
H4315 C4339 0.951 . S
H4316 C4341 0.951 . S
H4317 C4343 0.950 . S
H4318 C4344 0.950 . S
H4319 C4346 0.950 . S
H4320 C4349 0.950 . S
H4321 C4350 0.950 . S
H4322 C4352 0.950 . S
H4323 C4353 0.950 . S
C4324 H4306 0.951 . S
C4324 C4325 1.366 . S
C4324 C4326 1.388 . S
C4325 C4324 1.366 . S
C4325 C4329 1.385 . S
C4326 H4307 0.951 . S
C4326 C4324 1.388 . S
C4326 C4327 1.366 . S
C4327 C4326 1.366 . S
C4327 C4328 1.414 . S
C4327 C4330 1.499 1_455 S
C4328 H4308 0.950 . S
C4328 C4327 1.414 . S
C4328 C4329 1.374 . S
C4329 H4309 0.950 . S
C4329 C4325 1.385 . S
C4329 C4328 1.374 . S
C4330 C4327 1.499 1_655 S
C4330 C4331 1.373 . S
C4330 C4332 1.389 . S
C4331 H4310 0.950 . S
C4331 C4330 1.373 . S
C4331 C4347 1.377 . S
C4332 C4330 1.389 . S
C4332 C4333 1.504 1_655 S
C4332 C4346 1.377 . S
C4333 C4332 1.504 1_455 S
C4333 C4334 1.420 . S
C4333 C4338 1.358 . S
C4334 H4311 0.950 . S
C4334 C4333 1.420 . S
C4334 C4335 1.334 . S
C4335 H4312 0.950 . S
C4335 C4334 1.334 . S
C4335 C4336 1.287 . S
C4336 C4335 1.287 . S
C4336 C4337 1.524 . S
C4336 H4355 0.913 . S
C4337 H4313 0.950 . S
C4337 C4336 1.524 . S
C4337 C4338 1.415 . S
C4338 H4314 0.950 1_455 S
C4338 C4333 1.358 . S
C4338 C4337 1.415 . S
C4339 H4315 0.951 . S
C4339 C4340 1.366 . S
C4339 C4341 1.388 . S
C4340 C4339 1.366 . S
C4340 C4344 1.385 . S
C4341 H4316 0.951 . S
C4341 C4339 1.388 . S
C4341 C4342 1.366 . S
C4342 C4341 1.366 . S
C4342 C4343 1.414 . S
C4342 C4345 1.499 . S
C4343 H4317 0.950 . S
C4343 C4342 1.414 . S
C4343 C4344 1.374 . S
C4344 H4318 0.950 . S
C4344 C4340 1.385 . S
C4344 C4343 1.374 . S
C4345 C4342 1.499 . S
C4345 C4346 1.373 . S
C4345 C4347 1.389 . S
C4346 H4319 0.950 . S
C4346 C4332 1.377 . S
C4346 C4345 1.373 . S
C4347 C4331 1.377 . S
C4347 C4345 1.389 . S
C4347 C4348 1.524 . S
C4348 C4347 1.524 . S
C4348 C4349 1.397 . S
C4348 C4353 1.363 . S
C4349 H4320 0.950 . S
C4349 C4348 1.397 . S
C4349 C4350 1.334 . S
C4350 H4321 0.950 . S
C4350 C4349 1.334 . S
C4350 C4351 1.287 . S
C4351 C4350 1.287 . S
C4351 C4352 1.524 . S
C4351 H4354 0.999 . S
C4352 H4322 0.950 . S
C4352 C4351 1.524 . S
C4352 C4353 1.415 . S
C4353 H4323 0.950 . S
C4353 C4348 1.363 . S
C4353 C4352 1.415 . S
H4354 C4351 0.999 . S
H4355 C4336 0.913 . S
H4356 C4374 0.951 . S
H4357 C4376 0.951 . S
H4358 C4378 0.950 . S
H4359 C4379 0.950 . S
H4360 C4381 0.950 . S
H4361 C4384 0.950 . S
H4362 C4385 0.950 . S
H4363 C4387 0.950 . S
H4364 C4388 0.950 . S
H4365 C4389 0.951 . S
H4366 C4391 0.951 . S
H4367 C4393 0.950 . S
H4368 C4394 0.950 . S
H4369 C4396 0.950 1_655 S
H4370 C4399 0.950 . S
H4371 C4400 0.950 . S
H4372 C4402 0.950 . S
H4373 C4403 0.950 . S
C4374 H4356 0.951 . S
C4374 C4375 1.366 . S
C4374 C4376 1.388 . S
C4375 C4374 1.366 . S
C4375 C4379 1.385 1_655 S
C4376 H4357 0.951 . S
C4376 C4374 1.388 . S
C4376 C4377 1.366 1_655 S
C4377 C4376 1.366 1_455 S
C4377 C4378 1.414 . S
C4377 C4380 1.499 . S
C4378 H4358 0.950 . S
C4378 C4377 1.414 . S
C4378 C4379 1.374 . S
C4379 H4359 0.950 . S
C4379 C4375 1.385 1_455 S
C4379 C4378 1.374 . S
C4380 C4377 1.499 . S
C4380 C4381 1.373 . S
C4380 C4382 1.371 1_455 S
C4381 H4360 0.950 . S
C4381 C4380 1.373 . S
C4381 C4397 1.377 . S
C4382 C4380 1.371 1_655 S
C4382 C4383 1.563 . S
C4382 C4396 1.356 1_655 S
C4383 C4382 1.563 . S
C4383 C4384 1.397 . S
C4383 C4388 1.363 . S
C4384 H4361 0.950 . S
C4384 C4383 1.397 . S
C4384 C4385 1.334 . S
C4385 H4362 0.950 . S
C4385 C4384 1.334 . S
C4385 C4386 1.287 . S
C4386 C4385 1.287 . S
C4386 C4387 1.524 . S
C4386 H4405 0.913 . S
C4387 H4363 0.950 . S
C4387 C4386 1.524 . S
C4387 C4388 1.415 . S
C4388 H4364 0.950 . S
C4388 C4383 1.363 . S
C4388 C4387 1.415 . S
C4389 H4365 0.951 . S
C4389 C4390 1.366 . S
C4389 C4391 1.388 . S
C4390 C4389 1.366 . S
C4390 C4394 1.385 . S
C4391 H4366 0.951 . S
C4391 C4389 1.388 . S
C4391 C4392 1.366 . S
C4392 C4391 1.366 . S
C4392 C4393 1.414 . S
C4392 C4395 1.499 . S
C4393 H4367 0.950 . S
C4393 C4392 1.414 . S
C4393 C4394 1.374 . S
C4394 H4368 0.950 . S
C4394 C4390 1.385 . S
C4394 C4393 1.374 . S
C4395 C4392 1.499 . S
C4395 C4396 1.373 . S
C4395 C4397 1.389 . S
C4396 H4369 0.950 1_455 S
C4396 C4382 1.356 1_455 S
C4396 C4395 1.373 . S
C4397 C4381 1.377 . S
C4397 C4395 1.389 . S
C4397 C4398 1.524 . S
C4398 C4397 1.524 . S
C4398 C4399 1.397 . S
C4398 C4403 1.363 . S
C4399 H4370 0.950 . S
C4399 C4398 1.397 . S
C4399 C4400 1.334 . S
C4400 H4371 0.950 . S
C4400 C4399 1.334 . S
C4400 C4401 1.287 . S
C4401 C4400 1.287 . S
C4401 C4402 1.524 . S
C4401 H4404 0.999 . S
C4402 H4372 0.950 . S
C4402 C4401 1.524 . S
C4402 C4403 1.415 . S
C4403 H4373 0.950 . S
C4403 C4398 1.363 . S
C4403 C4402 1.415 . S
H4404 C4401 0.999 . S
H4405 C4386 0.913 . S
H4406 C4424 0.951 . S
H4407 C4426 0.951 . S
H4408 C4428 0.950 . S
H4409 C4429 0.950 . S
H4410 C4431 0.950 . S
H4411 C4434 0.950 . S
H4412 C4435 0.950 . S
H4413 C4437 0.950 . S
H4414 C4438 0.950 . S
H4415 C4439 0.951 . S
H4416 C4441 0.951 . S
H4417 C4443 0.950 . S
H4418 C4444 0.950 . S
H4419 C4446 0.950 . S
H4420 C4449 0.950 . S
H4421 C4450 0.950 . S
H4422 C4452 0.950 . S
H4423 C4453 0.950 . S
C4424 H4406 0.951 . S
C4424 C4425 1.366 . S
C4424 C4426 1.388 . S
C4425 C4424 1.366 . S
C4425 C4429 1.385 . S
C4426 H4407 0.951 . S
C4426 C4424 1.388 . S
C4426 C4427 1.366 . S
C4427 C4426 1.366 . S
C4427 C4428 1.414 . S
C4427 C4430 1.499 . S
C4428 H4408 0.950 . S
C4428 C4427 1.414 . S
C4428 C4429 1.374 . S
C4429 H4409 0.950 . S
C4429 C4425 1.385 . S
C4429 C4428 1.374 . S
C4430 C4427 1.499 . S
C4430 C4431 1.373 . S
C4430 C4432 1.389 . S
C4431 H4410 0.950 . S
C4431 C4430 1.373 . S
C4431 C4447 1.377 . S
C4432 C4430 1.389 . S
C4432 C4433 1.524 . S
C4432 C4446 1.377 . S
C4433 C4432 1.524 . S
C4433 C4434 1.397 . S
C4433 C4438 1.363 . S
C4434 H4411 0.950 . S
C4434 C4433 1.397 . S
C4434 C4435 1.334 . S
C4435 H4412 0.950 . S
C4435 C4434 1.334 . S
C4435 C4436 1.287 . S
C4436 C4435 1.287 . S
C4436 C4437 1.524 . S
C4436 H4455 0.913 . S
C4437 H4413 0.950 . S
C4437 C4436 1.524 . S
C4437 C4438 1.415 . S
C4438 H4414 0.950 . S
C4438 C4433 1.363 . S
C4438 C4437 1.415 . S
C4439 H4415 0.951 . S
C4439 C4440 1.366 . S
C4439 C4441 1.388 . S
C4440 C4439 1.366 . S
C4440 C4444 1.385 . S
C4441 H4416 0.951 . S
C4441 C4439 1.388 . S
C4441 C4442 1.366 . S
C4442 C4441 1.366 . S
C4442 C4443 1.414 . S
C4442 C4445 1.499 . S
C4443 H4417 0.950 . S
C4443 C4442 1.414 . S
C4443 C4444 1.374 . S
C4444 H4418 0.950 . S
C4444 C4440 1.385 . S
C4444 C4443 1.374 . S
C4445 C4442 1.499 . S
C4445 C4446 1.373 . S
C4445 C4447 1.389 . S
C4446 H4419 0.950 . S
C4446 C4432 1.377 . S
C4446 C4445 1.373 . S
C4447 C4431 1.377 . S
C4447 C4445 1.389 . S
C4447 C4448 1.524 . S
C4448 C4447 1.524 . S
C4448 C4449 1.397 . S
C4448 C4453 1.363 . S
C4449 H4420 0.950 . S
C4449 C4448 1.397 . S
C4449 C4450 1.334 . S
C4450 H4421 0.950 . S
C4450 C4449 1.334 . S
C4450 C4451 1.287 . S
C4451 C4450 1.287 . S
C4451 C4452 1.524 . S
C4451 H4454 0.999 . S
C4452 H4422 0.950 . S
C4452 C4451 1.524 . S
C4452 C4453 1.415 . S
C4453 H4423 0.950 . S
C4453 C4448 1.363 . S
C4453 C4452 1.415 . S
H4454 C4451 0.999 . S
H4455 C4436 0.913 . S
H4456 C4474 0.951 . S
H4457 C4476 0.951 . S
H4458 C4478 0.950 . S
H4459 C4479 0.950 . S
H4460 C4481 0.950 . S
H4461 C4484 0.950 . S
H4462 C4485 0.950 . S
H4463 C4487 0.950 . S
H4464 C4488 0.950 . S
H4465 C4489 0.951 . S
H4466 C4491 0.951 . S
H4467 C4493 0.950 . S
H4468 C4494 0.950 . S
H4469 C4496 0.950 . S
H4470 C4499 0.950 . S
H4471 C4500 0.950 . S
H4472 C4502 0.950 . S
H4473 C4503 0.950 . S
C4474 H4456 0.951 . S
C4474 C4475 1.366 . S
C4474 C4476 1.388 . S
C4475 C4474 1.366 . S
C4475 C4479 1.385 . S
C4476 H4457 0.951 . S
C4476 C4474 1.388 . S
C4476 C4477 1.366 . S
C4477 C4476 1.366 . S
C4477 C4478 1.414 . S
C4477 C4480 1.499 . S
C4478 H4458 0.950 . S
C4478 C4477 1.414 . S
C4478 C4479 1.374 . S
C4479 H4459 0.950 . S
C4479 C4475 1.385 . S
C4479 C4478 1.374 . S
C4480 C4477 1.499 . S
C4480 C4481 1.373 . S
C4480 C4482 1.389 . S
C4481 H4460 0.950 . S
C4481 C4480 1.373 . S
C4481 C4497 1.377 . S
C4482 C4480 1.389 . S
C4482 C4483 1.524 . S
C4482 C4496 1.377 . S
C4483 C4482 1.524 . S
C4483 C4484 1.397 . S
C4483 C4488 1.363 . S
C4484 H4461 0.950 . S
C4484 C4483 1.397 . S
C4484 C4485 1.334 . S
C4485 H4462 0.950 . S
C4485 C4484 1.334 . S
C4485 C4486 1.287 . S
C4486 C4485 1.287 . S
C4486 C4487 1.524 . S
C4486 H4505 0.913 . S
C4487 H4463 0.950 . S
C4487 C4486 1.524 . S
C4487 C4488 1.415 . S
C4488 H4464 0.950 . S
C4488 C4483 1.363 . S
C4488 C4487 1.415 . S
C4489 H4465 0.951 . S
C4489 C4490 1.366 . S
C4489 C4491 1.388 . S
C4490 C4489 1.366 . S
C4490 C4494 1.385 . S
C4491 H4466 0.951 . S
C4491 C4489 1.388 . S
C4491 C4492 1.366 . S
C4492 C4491 1.366 . S
C4492 C4493 1.414 . S
C4492 C4495 1.499 . S
C4493 H4467 0.950 . S
C4493 C4492 1.414 . S
C4493 C4494 1.374 . S
C4494 H4468 0.950 . S
C4494 C4490 1.385 . S
C4494 C4493 1.374 . S
C4495 C4492 1.499 . S
C4495 C4496 1.373 . S
C4495 C4497 1.389 . S
C4496 H4469 0.950 . S
C4496 C4482 1.377 . S
C4496 C4495 1.373 . S
C4497 C4481 1.377 . S
C4497 C4495 1.389 . S
C4497 C4498 1.524 . S
C4498 C4497 1.524 . S
C4498 C4499 1.397 . S
C4498 C4503 1.363 . S
C4499 H4470 0.950 . S
C4499 C4498 1.397 . S
C4499 C4500 1.334 . S
C4500 H4471 0.950 . S
C4500 C4499 1.334 . S
C4500 C4501 1.287 . S
C4501 C4500 1.287 . S
C4501 C4502 1.524 . S
C4501 H4504 0.999 . S
C4502 H4472 0.950 . S
C4502 C4501 1.524 . S
C4502 C4503 1.415 . S
C4503 H4473 0.950 . S
C4503 C4498 1.363 . S
C4503 C4502 1.415 . S
H4504 C4501 0.999 . S
H4505 C4486 0.913 . S
H4506 C4524 0.951 1_554 S
H4507 C4526 0.951 . S
H4508 C4528 0.950 . S
H4509 C4529 0.950 . S
H4510 C4531 0.950 . S
H4511 C4534 0.950 . S
H4512 C4535 0.950 . S
H4513 C4537 0.950 . S
H4514 C4538 0.950 . S
H4515 C4539 0.951 . S
H4516 C4541 0.951 . S
H4517 C4543 0.950 . S
H4518 C4544 0.950 . S
H4519 C4546 0.950 . S
H4520 C4549 0.950 . S
H4521 C4550 0.950 . S
H4522 C4552 0.950 . S
H4523 C4553 0.950 . S
C4524 H4506 0.951 1_556 S
C4524 C4525 1.366 . S
C4524 C4526 1.388 . S
C4525 C4524 1.366 . S
C4525 C4529 1.385 . S
C4526 H4507 0.951 . S
C4526 C4524 1.388 . S
C4526 C4527 1.366 . S
C4527 C4526 1.366 . S
C4527 C4528 1.414 . S
C4527 C4530 1.499 . S
C4528 H4508 0.950 . S
C4528 C4527 1.414 . S
C4528 C4529 1.374 . S
C4529 H4509 0.950 . S
C4529 C4525 1.385 . S
C4529 C4528 1.374 . S
C4530 C4527 1.499 . S
C4530 C4531 1.373 . S
C4530 C4532 1.389 . S
C4531 H4510 0.950 . S
C4531 C4530 1.373 . S
C4531 C4547 1.377 . S
C4532 C4530 1.389 . S
C4532 C4533 1.524 . S
C4532 C4546 1.377 . S
C4533 C4532 1.524 . S
C4533 C4534 1.397 . S
C4533 C4538 1.363 . S
C4534 H4511 0.950 . S
C4534 C4533 1.397 . S
C4534 C4535 1.334 . S
C4535 H4512 0.950 . S
C4535 C4534 1.334 . S
C4535 C4536 1.287 . S
C4536 C4535 1.287 . S
C4536 C4537 1.524 . S
C4536 H4555 0.913 1_556 S
C4537 H4513 0.950 . S
C4537 C4536 1.524 . S
C4537 C4538 1.415 . S
C4538 H4514 0.950 . S
C4538 C4533 1.363 . S
C4538 C4537 1.415 . S
C4539 H4515 0.951 . S
C4539 C4540 1.366 . S
C4539 C4541 1.388 . S
C4540 C4539 1.366 . S
C4540 C4544 1.385 . S
C4541 H4516 0.951 . S
C4541 C4539 1.388 . S
C4541 C4542 1.366 . S
C4542 C4541 1.366 . S
C4542 C4543 1.414 . S
C4542 C4545 1.499 . S
C4543 H4517 0.950 . S
C4543 C4542 1.414 . S
C4543 C4544 1.374 . S
C4544 H4518 0.950 . S
C4544 C4540 1.385 . S
C4544 C4543 1.374 . S
C4545 C4542 1.499 . S
C4545 C4546 1.373 . S
C4545 C4547 1.389 . S
C4546 H4519 0.950 . S
C4546 C4532 1.377 . S
C4546 C4545 1.373 . S
C4547 C4531 1.377 . S
C4547 C4545 1.389 . S
C4547 C4548 1.524 . S
C4548 C4547 1.524 . S
C4548 C4549 1.397 . S
C4548 C4553 1.363 . S
C4549 H4520 0.950 . S
C4549 C4548 1.397 . S
C4549 C4550 1.334 . S
C4550 H4521 0.950 . S
C4550 C4549 1.334 . S
C4550 C4551 1.287 . S
C4551 C4550 1.287 . S
C4551 C4552 1.524 . S
C4551 H4554 0.999 . S
C4552 H4522 0.950 . S
C4552 C4551 1.524 . S
C4552 C4553 1.415 . S
C4553 H4523 0.950 . S
C4553 C4548 1.363 . S
C4553 C4552 1.415 . S
H4554 C4551 0.999 . S
H4555 C4536 0.913 1_554 S
H4556 C4574 0.951 . S
H4557 C4576 0.951 . S
H4558 C4578 0.950 . S
H4559 C4579 0.950 . S
H4560 C4581 0.950 . S
H4561 C4584 0.950 . S
H4562 C4585 0.950 . S
H4563 C4587 0.950 . S
H4564 C4588 0.950 . S
H4565 C4589 0.951 . S
H4566 C4591 0.951 . S
H4567 C4593 0.950 . S
H4568 C4594 0.950 . S
H4569 C4596 0.950 . S
H4570 C4599 0.950 . S
H4571 C4600 0.950 . S
H4572 C4602 0.950 . S
H4573 C4603 0.950 . S
C4574 H4556 0.951 . S
C4574 C4575 1.366 . S
C4574 C4576 1.388 . S
C4575 C4574 1.366 . S
C4575 C4579 1.385 . S
C4576 H4557 0.951 . S
C4576 C4574 1.388 . S
C4576 C4577 1.366 . S
C4577 C4576 1.366 . S
C4577 C4578 1.414 . S
C4577 C4580 1.499 . S
C4578 H4558 0.950 . S
C4578 C4577 1.414 . S
C4578 C4579 1.374 . S
C4579 H4559 0.950 . S
C4579 C4575 1.385 . S
C4579 C4578 1.374 . S
C4580 C4577 1.499 . S
C4580 C4581 1.373 . S
C4580 C4582 1.389 . S
C4581 H4560 0.950 . S
C4581 C4580 1.373 . S
C4581 C4597 1.377 . S
C4582 C4580 1.389 . S
C4582 C4583 1.524 . S
C4582 C4596 1.377 . S
C4583 C4582 1.524 . S
C4583 C4584 1.397 . S
C4583 C4588 1.363 . S
C4584 H4561 0.950 . S
C4584 C4583 1.397 . S
C4584 C4585 1.334 . S
C4585 H4562 0.950 . S
C4585 C4584 1.334 . S
C4585 C4586 1.287 . S
C4586 C4585 1.287 . S
C4586 C4587 1.524 . S
C4586 H4605 0.913 . S
C4587 H4563 0.950 . S
C4587 C4586 1.524 . S
C4587 C4588 1.415 . S
C4588 H4564 0.950 . S
C4588 C4583 1.363 . S
C4588 C4587 1.415 . S
C4589 H4565 0.951 . S
C4589 C4590 1.366 . S
C4589 C4591 1.388 . S
C4590 C4589 1.366 . S
C4590 C4594 1.385 . S
C4591 H4566 0.951 . S
C4591 C4589 1.388 . S
C4591 C4592 1.366 . S
C4592 C4591 1.366 . S
C4592 C4593 1.414 . S
C4592 C4595 1.499 . S
C4593 H4567 0.950 . S
C4593 C4592 1.414 . S
C4593 C4594 1.374 . S
C4594 H4568 0.950 . S
C4594 C4590 1.385 . S
C4594 C4593 1.374 . S
C4595 C4592 1.499 . S
C4595 C4596 1.373 . S
C4595 C4597 1.389 . S
C4596 H4569 0.950 . S
C4596 C4582 1.377 . S
C4596 C4595 1.373 . S
C4597 C4581 1.377 . S
C4597 C4595 1.389 . S
C4597 C4598 1.524 . S
C4598 C4597 1.524 . S
C4598 C4599 1.397 . S
C4598 C4603 1.363 . S
C4599 H4570 0.950 . S
C4599 C4598 1.397 . S
C4599 C4600 1.334 . S
C4600 H4571 0.950 . S
C4600 C4599 1.334 . S
C4600 C4601 1.287 . S
C4601 C4600 1.287 . S
C4601 C4602 1.524 . S
C4601 H4604 0.999 . S
C4602 H4572 0.950 . S
C4602 C4601 1.524 . S
C4602 C4603 1.415 . S
C4603 H4573 0.950 . S
C4603 C4598 1.363 . S
C4603 C4602 1.415 . S
H4604 C4601 0.999 . S
H4605 C4586 0.913 . S
H4606 C4624 0.951 . S
H4607 C4626 0.951 . S
H4608 C4628 0.950 . S
H4609 C4629 0.950 . S
H4610 C4631 0.950 . S
H4611 C4634 0.950 . S
H4612 C4635 0.950 . S
H4613 C4637 0.950 . S
H4614 C4638 0.950 . S
H4615 C4639 0.951 . S
H4616 C4641 0.951 . S
H4617 C4643 0.950 . S
H4618 C4644 0.950 . S
H4619 C4646 0.950 . S
H4620 C4649 0.950 . S
H4621 C4650 0.950 . S
H4622 C4652 0.950 . S
H4623 C4653 0.950 . S
C4624 H4606 0.951 . S
C4624 C4625 1.366 . S
C4624 C4626 1.388 . S
C4625 C4624 1.366 . S
C4625 C4629 1.385 . S
C4626 H4607 0.951 . S
C4626 C4624 1.388 . S
C4626 C4627 1.366 . S
C4627 C4626 1.366 . S
C4627 C4628 1.414 . S
C4627 C4630 1.499 . S
C4628 H4608 0.950 . S
C4628 C4627 1.414 . S
C4628 C4629 1.374 . S
C4629 H4609 0.950 . S
C4629 C4625 1.385 . S
C4629 C4628 1.374 . S
C4630 C4627 1.499 . S
C4630 C4631 1.373 . S
C4630 C4632 1.389 . S
C4631 H4610 0.950 . S
C4631 C4630 1.373 . S
C4631 C4647 1.377 . S
C4632 C4630 1.389 . S
C4632 C4633 1.524 . S
C4632 C4646 1.377 . S
C4633 C4632 1.524 . S
C4633 C4634 1.397 . S
C4633 C4638 1.363 . S
C4634 H4611 0.950 . S
C4634 C4633 1.397 . S
C4634 C4635 1.334 . S
C4635 H4612 0.950 . S
C4635 C4634 1.334 . S
C4635 C4636 1.287 . S
C4636 C4635 1.287 . S
C4636 C4637 1.524 . S
C4636 H4655 0.913 . S
C4637 H4613 0.950 . S
C4637 C4636 1.524 . S
C4637 C4638 1.415 . S
C4638 H4614 0.950 . S
C4638 C4633 1.363 . S
C4638 C4637 1.415 . S
C4639 H4615 0.951 . S
C4639 C4640 1.366 . S
C4639 C4641 1.388 . S
C4640 C4639 1.366 . S
C4640 C4644 1.385 . S
C4641 H4616 0.951 . S
C4641 C4639 1.388 . S
C4641 C4642 1.366 . S
C4642 C4641 1.366 . S
C4642 C4643 1.414 . S
C4642 C4645 1.499 . S
C4643 H4617 0.950 . S
C4643 C4642 1.414 . S
C4643 C4644 1.374 . S
C4644 H4618 0.950 . S
C4644 C4640 1.385 . S
C4644 C4643 1.374 . S
C4645 C4642 1.499 . S
C4645 C4646 1.373 . S
C4645 C4647 1.389 . S
C4646 H4619 0.950 . S
C4646 C4632 1.377 . S
C4646 C4645 1.373 . S
C4647 C4631 1.377 . S
C4647 C4645 1.389 . S
C4647 C4648 1.524 . S
C4648 C4647 1.524 . S
C4648 C4649 1.397 . S
C4648 C4653 1.363 . S
C4649 H4620 0.950 . S
C4649 C4648 1.397 . S
C4649 C4650 1.334 . S
C4650 H4621 0.950 . S
C4650 C4649 1.334 . S
C4650 C4651 1.287 . S
C4651 C4650 1.287 . S
C4651 C4652 1.524 . S
C4651 H4654 0.999 . S
C4652 H4622 0.950 . S
C4652 C4651 1.524 . S
C4652 C4653 1.415 . S
C4653 H4623 0.950 . S
C4653 C4648 1.363 . S
C4653 C4652 1.415 . S
H4654 C4651 0.999 . S
H4655 C4636 0.913 . S
H4656 C4674 0.951 . S
H4657 C4676 0.951 . S
H4658 C4678 0.950 . S
H4659 C4679 0.950 . S
H4660 C4681 0.950 . S
H4661 C4684 0.950 . S
H4662 C4685 0.950 . S
H4663 C4687 0.950 . S
H4664 C4688 0.950 . S
H4665 C4689 0.951 . S
H4666 C4691 0.951 . S
H4667 C4693 0.950 . S
H4668 C4694 0.950 . S
H4669 C4696 0.950 . S
H4670 C4699 0.950 . S
H4671 C4700 0.950 . S
H4672 C4702 0.950 . S
H4673 C4703 0.950 . S
C4674 H4656 0.951 . S
C4674 C4675 1.366 . S
C4674 C4676 1.388 . S
C4675 C4674 1.366 . S
C4675 C4679 1.385 . S
C4676 H4657 0.951 . S
C4676 C4674 1.388 . S
C4676 C4677 1.366 . S
C4677 C4676 1.366 . S
C4677 C4678 1.414 . S
C4677 C4680 1.499 . S
C4678 H4658 0.950 . S
C4678 C4677 1.414 . S
C4678 C4679 1.374 . S
C4679 H4659 0.950 . S
C4679 C4675 1.385 . S
C4679 C4678 1.374 . S
C4680 C4677 1.499 . S
C4680 C4681 1.373 . S
C4680 C4682 1.389 . S
C4681 H4660 0.950 . S
C4681 C4680 1.373 . S
C4681 C4697 1.377 . S
C4682 C4680 1.389 . S
C4682 C4683 1.524 . S
C4682 C4696 1.377 . S
C4683 C4682 1.524 . S
C4683 C4684 1.397 . S
C4683 C4688 1.363 . S
C4684 H4661 0.950 . S
C4684 C4683 1.397 . S
C4684 C4685 1.334 . S
C4685 H4662 0.950 . S
C4685 C4684 1.334 . S
C4685 C4686 1.287 . S
C4686 C4685 1.287 . S
C4686 C4687 1.524 . S
C4686 H4705 0.913 . S
C4687 H4663 0.950 . S
C4687 C4686 1.524 . S
C4687 C4688 1.415 . S
C4688 H4664 0.950 . S
C4688 C4683 1.363 . S
C4688 C4687 1.415 . S
C4689 H4665 0.951 . S
C4689 C4690 1.366 . S
C4689 C4691 1.388 . S
C4690 C4689 1.366 . S
C4690 C4694 1.385 . S
C4691 H4666 0.951 . S
C4691 C4689 1.388 . S
C4691 C4692 1.366 . S
C4692 C4691 1.366 . S
C4692 C4693 1.414 . S
C4692 C4695 1.499 . S
C4693 H4667 0.950 . S
C4693 C4692 1.414 . S
C4693 C4694 1.374 . S
C4694 H4668 0.950 . S
C4694 C4690 1.385 . S
C4694 C4693 1.374 . S
C4695 C4692 1.499 . S
C4695 C4696 1.373 . S
C4695 C4697 1.389 . S
C4696 H4669 0.950 . S
C4696 C4682 1.377 . S
C4696 C4695 1.373 . S
C4697 C4681 1.377 . S
C4697 C4695 1.389 . S
C4697 C4698 1.524 . S
C4698 C4697 1.524 . S
C4698 C4699 1.397 . S
C4698 C4703 1.363 . S
C4699 H4670 0.950 . S
C4699 C4698 1.397 . S
C4699 C4700 1.334 . S
C4700 H4671 0.950 . S
C4700 C4699 1.334 . S
C4700 C4701 1.287 . S
C4701 C4700 1.287 . S
C4701 C4702 1.524 . S
C4701 H4704 0.999 . S
C4702 H4672 0.950 . S
C4702 C4701 1.524 . S
C4702 C4703 1.415 . S
C4703 H4673 0.950 . S
C4703 C4698 1.363 . S
C4703 C4702 1.415 . S
H4704 C4701 0.999 . S
H4705 C4686 0.913 . S
H4706 C4724 0.951 . S
H4707 C4726 0.951 . S
H4708 C4728 0.950 . S
H4709 C4729 0.950 . S
H4710 C4731 0.950 . S
H4711 C4734 0.950 . S
H4712 C4735 0.950 . S
H4713 C4737 0.950 . S
H4714 C4738 0.950 . S
H4715 C4739 0.951 . S
H4716 C4741 0.951 . S
H4717 C4743 0.950 . S
H4718 C4744 0.950 . S
H4719 C4746 0.950 . S
H4720 C4749 0.950 . S
H4721 C4750 0.950 . S
H4722 C4752 0.950 . S
H4723 C4753 0.950 . S
C4724 H4706 0.951 . S
C4724 C4725 1.366 . S
C4724 C4726 1.388 . S
C4725 C4724 1.366 . S
C4725 C4729 1.385 . S
C4726 H4707 0.951 . S
C4726 C4724 1.388 . S
C4726 C4727 1.366 . S
C4727 C4726 1.366 . S
C4727 C4728 1.414 . S
C4727 C4730 1.499 . S
C4728 H4708 0.950 . S
C4728 C4727 1.414 . S
C4728 C4729 1.374 . S
C4729 H4709 0.950 . S
C4729 C4725 1.385 . S
C4729 C4728 1.374 . S
C4730 C4727 1.499 . S
C4730 C4731 1.373 . S
C4730 C4732 1.389 . S
C4731 H4710 0.950 . S
C4731 C4730 1.373 . S
C4731 C4747 1.377 . S
C4732 C4730 1.389 . S
C4732 C4733 1.524 . S
C4732 C4746 1.377 . S
C4733 C4732 1.524 . S
C4733 C4734 1.397 . S
C4733 C4738 1.363 . S
C4734 H4711 0.950 . S
C4734 C4733 1.397 . S
C4734 C4735 1.334 . S
C4735 H4712 0.950 . S
C4735 C4734 1.334 . S
C4735 C4736 1.287 . S
C4736 C4735 1.287 . S
C4736 C4737 1.524 . S
C4736 H4755 0.913 . S
C4737 H4713 0.950 . S
C4737 C4736 1.524 . S
C4737 C4738 1.415 . S
C4738 H4714 0.950 . S
C4738 C4733 1.363 . S
C4738 C4737 1.415 . S
C4739 H4715 0.951 . S
C4739 C4740 1.366 . S
C4739 C4741 1.388 . S
C4740 C4739 1.366 . S
C4740 C4744 1.385 . S
C4741 H4716 0.951 . S
C4741 C4739 1.388 . S
C4741 C4742 1.366 . S
C4742 C4741 1.366 . S
C4742 C4743 1.414 . S
C4742 C4745 1.499 . S
C4743 H4717 0.950 . S
C4743 C4742 1.414 . S
C4743 C4744 1.374 . S
C4744 H4718 0.950 . S
C4744 C4740 1.385 . S
C4744 C4743 1.374 . S
C4745 C4742 1.499 . S
C4745 C4746 1.373 . S
C4745 C4747 1.389 . S
C4746 H4719 0.950 . S
C4746 C4732 1.377 . S
C4746 C4745 1.373 . S
C4747 C4731 1.377 . S
C4747 C4745 1.389 . S
C4747 C4748 1.524 . S
C4748 C4747 1.524 . S
C4748 C4749 1.397 . S
C4748 C4753 1.363 . S
C4749 H4720 0.950 . S
C4749 C4748 1.397 . S
C4749 C4750 1.334 . S
C4750 H4721 0.950 . S
C4750 C4749 1.334 . S
C4750 C4751 1.287 . S
C4751 C4750 1.287 . S
C4751 C4752 1.524 . S
C4751 H4754 0.999 . S
C4752 H4722 0.950 . S
C4752 C4751 1.524 . S
C4752 C4753 1.415 . S
C4753 H4723 0.950 . S
C4753 C4748 1.363 . S
C4753 C4752 1.415 . S
H4754 C4751 0.999 . S
H4755 C4736 0.913 . S
H4756 C4774 0.951 . S
H4757 C4776 0.951 . S
H4758 C4778 0.950 . S
H4759 C4779 0.950 . S
H4760 C4781 0.950 . S
H4761 C4784 0.950 . S
H4762 C4785 0.950 . S
H4763 C4787 0.950 . S
H4764 C4788 0.950 . S
H4765 C4789 0.951 . S
H4766 C4791 0.951 . S
H4767 C4793 0.950 . S
H4768 C4794 0.950 . S
H4769 C4796 0.950 . S
H4770 C4799 0.950 . S
H4771 C4800 0.950 . S
H4772 C4802 0.950 . S
H4773 C4803 0.950 . S
C4774 H4756 0.951 . S
C4774 C4775 1.366 . S
C4774 C4776 1.388 . S
C4775 C4774 1.366 . S
C4775 C4779 1.385 . S
C4776 H4757 0.951 . S
C4776 C4774 1.388 . S
C4776 C4777 1.366 . S
C4777 C4776 1.366 . S
C4777 C4778 1.414 . S
C4777 C4780 1.499 . S
C4778 H4758 0.950 . S
C4778 C4777 1.414 . S
C4778 C4779 1.374 . S
C4779 H4759 0.950 . S
C4779 C4775 1.385 . S
C4779 C4778 1.374 . S
C4780 C4777 1.499 . S
C4780 C4781 1.373 . S
C4780 C4782 1.389 . S
C4781 H4760 0.950 . S
C4781 C4780 1.373 . S
C4781 C4797 1.377 . S
C4782 C4780 1.389 . S
C4782 C4783 1.524 . S
C4782 C4796 1.377 . S
C4783 C4782 1.524 . S
C4783 C4784 1.397 . S
C4783 C4788 1.363 . S
C4784 H4761 0.950 . S
C4784 C4783 1.397 . S
C4784 C4785 1.334 . S
C4785 H4762 0.950 . S
C4785 C4784 1.334 . S
C4785 C4786 1.287 . S
C4786 C4785 1.287 . S
C4786 C4787 1.524 . S
C4786 H4805 0.913 . S
C4787 H4763 0.950 . S
C4787 C4786 1.524 . S
C4787 C4788 1.415 . S
C4788 H4764 0.950 . S
C4788 C4783 1.363 . S
C4788 C4787 1.415 . S
C4789 H4765 0.951 . S
C4789 C4790 1.366 . S
C4789 C4791 1.388 . S
C4790 C4789 1.366 . S
C4790 C4794 1.385 . S
C4791 H4766 0.951 . S
C4791 C4789 1.388 . S
C4791 C4792 1.366 . S
C4792 C4791 1.366 . S
C4792 C4793 1.414 . S
C4792 C4795 1.499 . S
C4793 H4767 0.950 . S
C4793 C4792 1.414 . S
C4793 C4794 1.374 . S
C4794 H4768 0.950 . S
C4794 C4790 1.385 . S
C4794 C4793 1.374 . S
C4795 C4792 1.499 . S
C4795 C4796 1.373 . S
C4795 C4797 1.389 . S
C4796 H4769 0.950 . S
C4796 C4782 1.377 . S
C4796 C4795 1.373 . S
C4797 C4781 1.377 . S
C4797 C4795 1.389 . S
C4797 C4798 1.524 . S
C4798 C4797 1.524 . S
C4798 C4799 1.397 . S
C4798 C4803 1.363 . S
C4799 H4770 0.950 . S
C4799 C4798 1.397 . S
C4799 C4800 1.334 . S
C4800 H4771 0.950 . S
C4800 C4799 1.334 . S
C4800 C4801 1.287 . S
C4801 C4800 1.287 . S
C4801 C4802 1.524 . S
C4801 H4804 0.999 . S
C4802 H4772 0.950 . S
C4802 C4801 1.524 . S
C4802 C4803 1.415 . S
C4803 H4773 0.950 . S
C4803 C4798 1.363 . S
C4803 C4802 1.415 . S
H4804 C4801 0.999 . S
H4805 C4786 0.913 . S
H4806 C4824 0.951 . S
H4807 C4826 0.951 . S
H4808 C4828 0.950 . S
H4809 C4829 0.950 . S
H4810 C4831 0.950 . S
H4811 C4834 0.950 . S
H4812 C4835 0.950 . S
H4813 C4837 0.950 . S
H4814 C4838 0.950 . S
H4815 C4839 0.951 . S
H4816 C4841 0.951 . S
H4817 C4843 0.950 . S
H4818 C4844 0.950 . S
H4819 C4846 0.950 . S
H4820 C4849 0.950 . S
H4821 C4850 0.950 . S
H4822 C4852 0.950 . S
H4823 C4853 0.950 . S
C4824 H4806 0.951 . S
C4824 C4825 1.366 . S
C4824 C4826 1.388 . S
C4825 C4824 1.366 . S
C4825 C4829 1.385 . S
C4826 H4807 0.951 . S
C4826 C4824 1.388 . S
C4826 C4827 1.366 . S
C4827 C4826 1.366 . S
C4827 C4828 1.414 . S
C4827 C4830 1.499 . S
C4828 H4808 0.950 . S
C4828 C4827 1.414 . S
C4828 C4829 1.374 . S
C4829 H4809 0.950 . S
C4829 C4825 1.385 . S
C4829 C4828 1.374 . S
C4830 C4827 1.499 . S
C4830 C4831 1.373 . S
C4830 C4832 1.389 . S
C4831 H4810 0.950 . S
C4831 C4830 1.373 . S
C4831 C4847 1.377 . S
C4832 C4830 1.389 . S
C4832 C4833 1.524 . S
C4832 C4846 1.377 . S
C4833 C4832 1.524 . S
C4833 C4834 1.397 . S
C4833 C4838 1.363 . S
C4834 H4811 0.950 . S
C4834 C4833 1.397 . S
C4834 C4835 1.334 . S
C4835 H4812 0.950 . S
C4835 C4834 1.334 . S
C4835 C4836 1.287 . S
C4836 C4835 1.287 . S
C4836 C4837 1.524 . S
C4836 H4855 0.913 . S
C4837 H4813 0.950 . S
C4837 C4836 1.524 . S
C4837 C4838 1.415 . S
C4838 H4814 0.950 . S
C4838 C4833 1.363 . S
C4838 C4837 1.415 . S
C4839 H4815 0.951 . S
C4839 C4840 1.366 . S
C4839 C4841 1.388 . S
C4840 C4839 1.366 . S
C4840 C4844 1.385 . S
C4841 H4816 0.951 . S
C4841 C4839 1.388 . S
C4841 C4842 1.366 . S
C4842 C4841 1.366 . S
C4842 C4843 1.414 . S
C4842 C4845 1.499 . S
C4843 H4817 0.950 . S
C4843 C4842 1.414 . S
C4843 C4844 1.374 . S
C4844 H4818 0.950 . S
C4844 C4840 1.385 . S
C4844 C4843 1.374 . S
C4845 C4842 1.499 . S
C4845 C4846 1.373 . S
C4845 C4847 1.389 . S
C4846 H4819 0.950 . S
C4846 C4832 1.377 . S
C4846 C4845 1.373 . S
C4847 C4831 1.377 . S
C4847 C4845 1.389 . S
C4847 C4848 1.524 . S
C4848 C4847 1.524 . S
C4848 C4849 1.397 . S
C4848 C4853 1.363 . S
C4849 H4820 0.950 . S
C4849 C4848 1.397 . S
C4849 C4850 1.334 . S
C4850 H4821 0.950 . S
C4850 C4849 1.334 . S
C4850 C4851 1.287 . S
C4851 C4850 1.287 . S
C4851 C4852 1.524 . S
C4851 H4854 0.999 . S
C4852 H4822 0.950 . S
C4852 C4851 1.524 . S
C4852 C4853 1.415 . S
C4853 H4823 0.950 . S
C4853 C4848 1.363 . S
C4853 C4852 1.415 . S
H4854 C4851 0.999 . S
H4855 C4836 0.913 . S
H4856 C4874 0.951 . S
H4857 C4876 0.951 . S
H4858 C4878 0.950 . S
H4859 C4879 0.950 . S
H4860 C4881 0.950 . S
H4861 C4884 0.950 . S
H4862 C4885 0.950 . S
H4863 C4887 0.950 . S
H4864 C4888 0.950 . S
H4865 C4889 0.951 . S
H4866 C4891 0.951 . S
H4867 C4893 0.950 . S
H4868 C4894 0.950 . S
H4869 C4896 0.950 . S
H4870 C4899 0.950 . S
H4871 C4900 0.950 . S
H4872 C4902 0.950 . S
H4873 C4903 0.950 . S
C4874 H4856 0.951 . S
C4874 C4875 1.366 . S
C4874 C4876 1.388 . S
C4875 C4874 1.366 . S
C4875 C4879 1.385 . S
C4876 H4857 0.951 . S
C4876 C4874 1.388 . S
C4876 C4877 1.366 . S
C4877 C4876 1.366 . S
C4877 C4878 1.414 . S
C4877 C4880 1.499 . S
C4878 H4858 0.950 . S
C4878 C4877 1.414 . S
C4878 C4879 1.374 . S
C4879 H4859 0.950 . S
C4879 C4875 1.385 . S
C4879 C4878 1.374 . S
C4880 C4877 1.499 . S
C4880 C4881 1.373 . S
C4880 C4882 1.389 . S
C4881 H4860 0.950 . S
C4881 C4880 1.373 . S
C4881 C4897 1.377 . S
C4882 C4880 1.389 . S
C4882 C4883 1.524 . S
C4882 C4896 1.377 . S
C4883 C4882 1.524 . S
C4883 C4884 1.397 . S
C4883 C4888 1.363 . S
C4884 H4861 0.950 . S
C4884 C4883 1.397 . S
C4884 C4885 1.334 . S
C4885 H4862 0.950 . S
C4885 C4884 1.334 . S
C4885 C4886 1.287 . S
C4886 C4885 1.287 . S
C4886 C4887 1.524 . S
C4886 H4905 0.913 . S
C4887 H4863 0.950 . S
C4887 C4886 1.524 . S
C4887 C4888 1.415 . S
C4888 H4864 0.950 . S
C4888 C4883 1.363 . S
C4888 C4887 1.415 . S
C4889 H4865 0.951 . S
C4889 C4890 1.366 . S
C4889 C4891 1.388 . S
C4890 C4889 1.366 . S
C4890 C4894 1.385 . S
C4891 H4866 0.951 . S
C4891 C4889 1.388 . S
C4891 C4892 1.366 . S
C4892 C4891 1.366 . S
C4892 C4893 1.414 . S
C4892 C4895 1.499 . S
C4893 H4867 0.950 . S
C4893 C4892 1.414 . S
C4893 C4894 1.374 . S
C4894 H4868 0.950 . S
C4894 C4890 1.385 . S
C4894 C4893 1.374 . S
C4895 C4892 1.499 . S
C4895 C4896 1.373 . S
C4895 C4897 1.389 . S
C4896 H4869 0.950 . S
C4896 C4882 1.377 . S
C4896 C4895 1.373 . S
C4897 C4881 1.377 . S
C4897 C4895 1.389 . S
C4897 C4898 1.524 . S
C4898 C4897 1.524 . S
C4898 C4899 1.397 . S
C4898 C4903 1.363 . S
C4899 H4870 0.950 . S
C4899 C4898 1.397 . S
C4899 C4900 1.334 . S
C4900 H4871 0.950 . S
C4900 C4899 1.334 . S
C4900 C4901 1.287 . S
C4901 C4900 1.287 . S
C4901 C4902 1.524 . S
C4901 H4904 0.999 . S
C4902 H4872 0.950 . S
C4902 C4901 1.524 . S
C4902 C4903 1.415 . S
C4903 H4873 0.950 . S
C4903 C4898 1.363 . S
C4903 C4902 1.415 . S
H4904 C4901 0.999 . S
H4905 C4886 0.913 . S
H4906 C4924 0.951 . S
H4907 C4926 0.951 . S
H4908 C4928 0.950 . S
H4909 C4929 0.950 . S
H4910 C4931 0.950 . S
H4911 C4934 0.950 . S
H4912 C4935 0.950 . S
H4913 C4937 0.950 . S
H4914 C4938 0.950 . S
H4915 C4939 0.951 . S
H4916 C4941 0.951 . S
H4917 C4943 0.950 . S
H4918 C4944 0.950 . S
H4919 C4946 0.950 . S
H4920 C4949 0.950 . S
H4921 C4950 0.950 . S
H4922 C4952 0.950 . S
H4923 C4953 0.950 . S
C4924 H4906 0.951 . S
C4924 C4925 1.366 . S
C4924 C4926 1.388 . S
C4925 C4924 1.366 . S
C4925 C4929 1.385 . S
C4926 H4907 0.951 . S
C4926 C4924 1.388 . S
C4926 C4927 1.366 . S
C4927 C4926 1.366 . S
C4927 C4928 1.414 . S
C4927 C4930 1.499 . S
C4928 H4908 0.950 . S
C4928 C4927 1.414 . S
C4928 C4929 1.374 . S
C4929 H4909 0.950 . S
C4929 C4925 1.385 . S
C4929 C4928 1.374 . S
C4930 C4927 1.499 . S
C4930 C4931 1.373 . S
C4930 C4932 1.389 . S
C4931 H4910 0.950 . S
C4931 C4930 1.373 . S
C4931 C4947 1.377 . S
C4932 C4930 1.389 . S
C4932 C4933 1.524 . S
C4932 C4946 1.377 . S
C4933 C4932 1.524 . S
C4933 C4934 1.397 . S
C4933 C4938 1.363 . S
C4934 H4911 0.950 . S
C4934 C4933 1.397 . S
C4934 C4935 1.334 . S
C4935 H4912 0.950 . S
C4935 C4934 1.334 . S
C4935 C4936 1.287 . S
C4936 C4935 1.287 . S
C4936 C4937 1.524 . S
C4936 H4955 0.913 . S
C4937 H4913 0.950 . S
C4937 C4936 1.524 . S
C4937 C4938 1.415 . S
C4938 H4914 0.950 . S
C4938 C4933 1.363 . S
C4938 C4937 1.415 . S
C4939 H4915 0.951 . S
C4939 C4940 1.366 . S
C4939 C4941 1.388 . S
C4940 C4939 1.366 . S
C4940 C4944 1.385 . S
C4941 H4916 0.951 . S
C4941 C4939 1.388 . S
C4941 C4942 1.366 . S
C4942 C4941 1.366 . S
C4942 C4943 1.414 . S
C4942 C4945 1.499 . S
C4943 H4917 0.950 . S
C4943 C4942 1.414 . S
C4943 C4944 1.374 . S
C4944 H4918 0.950 . S
C4944 C4940 1.385 . S
C4944 C4943 1.374 . S
C4945 C4942 1.499 . S
C4945 C4946 1.373 . S
C4945 C4947 1.389 . S
C4946 H4919 0.950 . S
C4946 C4932 1.377 . S
C4946 C4945 1.373 . S
C4947 C4931 1.377 . S
C4947 C4945 1.389 . S
C4947 C4948 1.524 . S
C4948 C4947 1.524 . S
C4948 C4949 1.397 . S
C4948 C4953 1.363 . S
C4949 H4920 0.950 . S
C4949 C4948 1.397 . S
C4949 C4950 1.334 . S
C4950 H4921 0.950 . S
C4950 C4949 1.334 . S
C4950 C4951 1.287 . S
C4951 C4950 1.287 . S
C4951 C4952 1.524 . S
C4951 H4954 0.999 . S
C4952 H4922 0.950 . S
C4952 C4951 1.524 . S
C4952 C4953 1.415 . S
C4953 H4923 0.950 . S
C4953 C4948 1.363 . S
C4953 C4952 1.415 . S
H4954 C4951 0.999 . S
H4955 C4936 0.913 . S
H4956 C4974 0.951 . S
H4957 C4976 0.951 . S
H4958 C4978 0.950 . S
H4959 C4979 0.950 . S
H4960 C4981 0.950 . S
H4961 C4984 0.950 . S
H4962 C4985 0.950 . S
H4963 C4987 0.950 . S
H4964 C4988 0.950 . S
H4965 C4989 0.951 . S
H4966 C4991 0.951 . S
H4967 C4993 0.950 . S
H4968 C4994 0.950 . S
H4969 C4996 0.950 . S
H4970 C4999 0.950 . S
H4971 C5000 0.950 . S
H4972 C5002 0.950 . S
H4973 C5003 0.950 . S
C4974 H4956 0.951 . S
C4974 C4975 1.366 . S
C4974 C4976 1.388 . S
C4975 C4974 1.366 . S
C4975 C4979 1.385 . S
C4976 H4957 0.951 . S
C4976 C4974 1.388 . S
C4976 C4977 1.366 . S
C4977 C4976 1.366 . S
C4977 C4978 1.414 . S
C4977 C4980 1.499 . S
C4978 H4958 0.950 . S
C4978 C4977 1.414 . S
C4978 C4979 1.374 . S
C4979 H4959 0.950 . S
C4979 C4975 1.385 . S
C4979 C4978 1.374 . S
C4980 C4977 1.499 . S
C4980 C4981 1.373 . S
C4980 C4982 1.389 . S
C4981 H4960 0.950 . S
C4981 C4980 1.373 . S
C4981 C4997 1.377 . S
C4982 C4980 1.389 . S
C4982 C4983 1.524 . S
C4982 C4996 1.377 . S
C4983 C4982 1.524 . S
C4983 C4984 1.397 . S
C4983 C4988 1.363 . S
C4984 H4961 0.950 . S
C4984 C4983 1.397 . S
C4984 C4985 1.334 . S
C4985 H4962 0.950 . S
C4985 C4984 1.334 . S
C4985 C4986 1.287 . S
C4986 C4985 1.287 . S
C4986 C4987 1.524 . S
C4986 H5005 0.913 . S
C4987 H4963 0.950 . S
C4987 C4986 1.524 . S
C4987 C4988 1.415 . S
C4988 H4964 0.950 . S
C4988 C4983 1.363 . S
C4988 C4987 1.415 . S
C4989 H4965 0.951 . S
C4989 C4990 1.366 . S
C4989 C4991 1.388 . S
C4990 C4989 1.366 . S
C4990 C4994 1.385 . S
C4991 H4966 0.951 . S
C4991 C4989 1.388 . S
C4991 C4992 1.366 . S
C4992 C4991 1.366 . S
C4992 C4993 1.414 . S
C4992 C4995 1.499 . S
C4993 H4967 0.950 . S
C4993 C4992 1.414 . S
C4993 C4994 1.374 . S
C4994 H4968 0.950 . S
C4994 C4990 1.385 . S
C4994 C4993 1.374 . S
C4995 C4992 1.499 . S
C4995 C4996 1.373 . S
C4995 C4997 1.389 . S
C4996 H4969 0.950 . S
C4996 C4982 1.377 . S
C4996 C4995 1.373 . S
C4997 C4981 1.377 . S
C4997 C4995 1.389 . S
C4997 C4998 1.524 . S
C4998 C4997 1.524 . S
C4998 C4999 1.397 . S
C4998 C5003 1.363 . S
C4999 H4970 0.950 . S
C4999 C4998 1.397 . S
C4999 C5000 1.334 . S
C5000 H4971 0.950 . S
C5000 C4999 1.334 . S
C5000 C5001 1.287 . S
C5001 C5000 1.287 . S
C5001 C5002 1.524 . S
C5001 H5004 0.999 . S
C5002 H4972 0.950 . S
C5002 C5001 1.524 . S
C5002 C5003 1.415 . S
C5003 H4973 0.950 . S
C5003 C4998 1.363 . S
C5003 C5002 1.415 . S
H5004 C5001 0.999 . S
H5005 C4986 0.913 . S
H5006 C5024 0.951 . S
H5007 C5026 0.945 . S
H5008 C5028 0.950 . S
H5009 C5029 0.950 . S
H5010 C5031 0.950 . S
H5011 C5034 0.950 . S
H5012 C5035 0.950 . S
H5013 C5037 0.950 . S
H5014 C5038 0.950 1_554 S
H5015 C5039 0.951 1_565 S
H5016 C5041 0.951 . S
H5017 C5043 0.950 . S
H5018 C5044 0.950 . S
H5019 C5046 0.950 . S
H5020 C5049 0.950 1_545 S
H5021 C5050 0.950 . S
H5022 C5052 0.950 . S
H5023 C5053 0.950 . S
C5024 H5006 0.951 . S
C5024 C5025 1.366 . S
C5024 C5026 1.388 . S
C5025 C5024 1.366 . S
C5025 C5029 1.385 . S
C5026 H5007 0.945 . S
C5026 C5024 1.388 . S
C5026 C5027 1.366 . S
C5027 C5026 1.366 . S
C5027 C5028 1.414 . S
C5027 C5030 1.499 . S
C5028 H5008 0.950 . S
C5028 C5027 1.414 . S
C5028 C5029 1.374 . S
C5029 H5009 0.950 . S
C5029 C5025 1.385 . S
C5029 C5028 1.374 . S
C5030 C5027 1.499 . S
C5030 C5031 1.373 . S
C5030 C5032 1.389 . S
C5031 H5010 0.950 . S
C5031 C5030 1.373 . S
C5031 C5047 1.377 . S
C5032 C5030 1.389 . S
C5032 C5033 1.524 1_564 S
C5032 C5046 1.377 1_565 S
C5033 C5032 1.524 1_546 S
C5033 C5034 1.397 1_545 S
C5033 C5038 1.363 . S
C5034 H5011 0.950 . S
C5034 C5033 1.397 1_565 S
C5034 C5035 1.334 . S
C5035 H5012 0.950 . S
C5035 C5034 1.334 . S
C5035 C5036 1.287 1_565 S
C5036 C5035 1.287 1_545 S
C5036 C5037 1.524 . S
C5036 H5055 0.913 . S
C5037 H5013 0.950 . S
C5037 C5036 1.524 . S
C5037 C5038 1.415 . S
C5038 H5014 0.950 1_556 S
C5038 C5033 1.363 . S
C5038 C5037 1.415 . S
C5039 H5015 0.951 1_545 S
C5039 C5040 1.366 . S
C5039 C5041 1.388 1_545 S
C5040 C5039 1.366 . S
C5040 C5044 1.385 . S
C5041 H5016 0.951 . S
C5041 C5039 1.388 1_565 S
C5041 C5042 1.366 1_565 S
C5042 C5041 1.366 1_545 S
C5042 C5043 1.414 . S
C5042 C5045 1.499 1_545 S
C5043 H5017 0.950 . S
C5043 C5042 1.414 . S
C5043 C5044 1.374 . S
C5044 H5018 0.950 . S
C5044 C5040 1.385 . S
C5044 C5043 1.374 . S
C5045 C5042 1.499 1_565 S
C5045 C5046 1.373 1_565 S
C5045 C5047 1.389 . S
C5046 H5019 0.950 . S
C5046 C5032 1.377 1_545 S
C5046 C5045 1.373 1_545 S
C5047 C5031 1.377 . S
C5047 C5045 1.389 . S
C5047 C5048 1.524 . S
C5048 C5047 1.524 . S
C5048 C5049 1.397 . S
C5048 C5053 1.363 . S
C5049 H5020 0.950 1_565 S
C5049 C5048 1.397 . S
C5049 C5050 1.334 . S
C5050 H5021 0.950 . S
C5050 C5049 1.334 . S
C5050 C5051 1.287 . S
C5051 C5050 1.287 . S
C5051 C5052 1.524 . S
C5051 H5054 0.999 . S
C5052 H5022 0.950 . S
C5052 C5051 1.524 . S
C5052 C5053 1.415 . S
C5053 H5023 0.950 . S
C5053 C5048 1.363 . S
C5053 C5052 1.415 . S
H5054 C5051 0.999 . S
H5055 C5036 0.913 . S
H5056 C5074 0.951 . S
H5057 C5076 0.951 . S
H5058 C5078 0.950 . S
H5059 C5079 0.950 . S
H5060 C5081 0.950 . S
H5061 C5084 0.950 . S
H5062 C5085 0.950 . S
H5063 C5087 0.950 . S
H5064 C5088 0.950 . S
H5065 C5089 0.951 . S
H5066 C5091 0.951 . S
H5067 C5093 0.950 . S
H5068 C5094 0.950 . S
H5069 C5096 0.950 . S
H5070 C5099 0.950 . S
H5071 C5100 0.950 . S
H5072 C5102 0.950 . S
H5073 C5103 0.950 . S
C5074 H5056 0.951 . S
C5074 C5075 1.366 . S
C5074 C5076 1.388 . S
C5075 C5074 1.366 . S
C5075 C5079 1.385 . S
C5076 H5057 0.951 . S
C5076 C5074 1.388 . S
C5076 C5077 1.366 . S
C5077 C5076 1.366 . S
C5077 C5078 1.414 . S
C5077 C5080 1.499 . S
C5078 H5058 0.950 . S
C5078 C5077 1.414 . S
C5078 C5079 1.374 . S
C5079 H5059 0.950 . S
C5079 C5075 1.385 . S
C5079 C5078 1.374 . S
C5080 C5077 1.499 . S
C5080 C5081 1.373 . S
C5080 C5082 1.389 . S
C5081 H5060 0.950 . S
C5081 C5080 1.373 . S
C5081 C5097 1.377 . S
C5082 C5080 1.389 . S
C5082 C5083 1.524 . S
C5082 C5096 1.377 . S
C5083 C5082 1.524 . S
C5083 C5084 1.397 . S
C5083 C5088 1.363 . S
C5084 H5061 0.950 . S
C5084 C5083 1.397 . S
C5084 C5085 1.334 . S
C5085 H5062 0.950 . S
C5085 C5084 1.334 . S
C5085 C5086 1.287 . S
C5086 C5085 1.287 . S
C5086 C5087 1.524 . S
C5086 H5105 0.913 . S
C5087 H5063 0.950 . S
C5087 C5086 1.524 . S
C5087 C5088 1.415 . S
C5088 H5064 0.950 . S
C5088 C5083 1.363 . S
C5088 C5087 1.415 . S
C5089 H5065 0.951 . S
C5089 C5090 1.366 . S
C5089 C5091 1.388 . S
C5090 C5089 1.366 . S
C5090 C5094 1.385 . S
C5091 H5066 0.951 . S
C5091 C5089 1.388 . S
C5091 C5092 1.366 . S
C5092 C5091 1.366 . S
C5092 C5093 1.414 . S
C5092 C5095 1.499 . S
C5093 H5067 0.950 . S
C5093 C5092 1.414 . S
C5093 C5094 1.374 . S
C5094 H5068 0.950 . S
C5094 C5090 1.385 . S
C5094 C5093 1.374 . S
C5095 C5092 1.499 . S
C5095 C5096 1.373 . S
C5095 C5097 1.389 . S
C5096 H5069 0.950 . S
C5096 C5082 1.377 . S
C5096 C5095 1.373 . S
C5097 C5081 1.377 . S
C5097 C5095 1.389 . S
C5097 C5098 1.524 . S
C5098 C5097 1.524 . S
C5098 C5099 1.397 . S
C5098 C5103 1.363 . S
C5099 H5070 0.950 . S
C5099 C5098 1.397 . S
C5099 C5100 1.334 . S
C5100 H5071 0.950 . S
C5100 C5099 1.334 . S
C5100 C5101 1.287 . S
C5101 C5100 1.287 . S
C5101 C5102 1.524 . S
C5101 H5104 0.999 . S
C5102 H5072 0.950 . S
C5102 C5101 1.524 . S
C5102 C5103 1.415 . S
C5103 H5073 0.950 . S
C5103 C5098 1.363 . S
C5103 C5102 1.415 . S
H5104 C5101 0.999 . S
H5105 C5086 0.913 . S
H5106 C5124 0.951 . S
H5107 C5126 0.951 . S
H5108 C5128 0.950 . S
H5109 C5129 0.950 . S
H5110 C5131 0.950 . S
H5111 C5134 0.950 . S
H5112 C5135 0.950 . S
H5113 C5137 0.950 . S
H5114 C5138 0.950 . S
H5115 C5139 0.951 . S
H5116 C5141 0.951 . S
H5117 C5143 0.952 1_556 S
H5118 C5144 0.950 . S
H5119 C5146 0.950 . S
H5120 C5149 0.950 . S
H5121 C5150 0.950 . S
H5122 C5152 0.950 . S
H5123 C5153 0.950 . S
C5124 H5106 0.951 . S
C5124 C5125 1.366 . S
C5124 C5126 1.388 . S
C5125 C5124 1.366 . S
C5125 C5129 1.385 1_556 S
C5126 H5107 0.951 . S
C5126 C5124 1.388 . S
C5126 C5127 1.366 1_556 S
C5127 C5126 1.366 1_554 S
C5127 C5128 1.414 . S
C5127 C5130 1.499 . S
C5128 H5108 0.950 . S
C5128 C5127 1.414 . S
C5128 C5129 1.374 . S
C5129 H5109 0.950 . S
C5129 C5125 1.385 1_554 S
C5129 C5128 1.374 . S
C5130 C5127 1.499 . S
C5130 C5131 1.373 . S
C5130 C5132 1.389 1_554 S
C5131 H5110 0.950 . S
C5131 C5130 1.373 . S
C5131 C5147 1.377 . S
C5132 C5130 1.389 1_556 S
C5132 C5133 1.524 . S
C5132 C5146 1.377 . S
C5133 C5132 1.524 . S
C5133 C5134 1.397 . S
C5133 C5138 1.363 . S
C5134 H5111 0.950 . S
C5134 C5133 1.397 . S
C5134 C5135 1.334 . S
C5135 H5112 0.950 . S
C5135 C5134 1.334 . S
C5135 C5136 1.287 . S
C5136 C5135 1.287 . S
C5136 C5137 1.524 . S
C5136 H5155 0.913 . S
C5137 H5113 0.950 . S
C5137 C5136 1.524 . S
C5137 C5138 1.415 . S
C5138 H5114 0.950 . S
C5138 C5133 1.363 . S
C5138 C5137 1.415 . S
C5139 H5115 0.951 . S
C5139 C5140 1.366 . S
C5139 C5141 1.388 . S
C5140 C5139 1.366 . S
C5140 C5144 1.385 . S
C5141 H5116 0.951 . S
C5141 C5139 1.388 . S
C5141 C5142 1.366 . S
C5142 C5141 1.366 . S
C5142 C5143 1.414 . S
C5142 C5145 1.499 . S
C5143 H5117 0.952 1_554 S
C5143 C5142 1.414 . S
C5143 C5144 1.374 . S
C5144 H5118 0.950 . S
C5144 C5140 1.385 . S
C5144 C5143 1.374 . S
C5145 C5142 1.499 . S
C5145 C5146 1.373 1_554 S
C5145 C5147 1.389 . S
C5146 H5119 0.950 . S
C5146 C5132 1.377 . S
C5146 C5145 1.373 1_556 S
C5147 C5131 1.377 . S
C5147 C5145 1.389 . S
C5147 C5148 1.524 . S
C5148 C5147 1.524 . S
C5148 C5149 1.397 . S
C5148 C5153 1.363 . S
C5149 H5120 0.950 . S
C5149 C5148 1.397 . S
C5149 C5150 1.334 . S
C5150 H5121 0.950 . S
C5150 C5149 1.334 . S
C5150 C5151 1.287 . S
C5151 C5150 1.287 . S
C5151 C5152 1.524 . S
C5151 H5154 0.999 . S
C5152 H5122 0.950 . S
C5152 C5151 1.524 . S
C5152 C5153 1.415 . S
C5153 H5123 0.950 . S
C5153 C5148 1.363 . S
C5153 C5152 1.415 . S
H5154 C5151 0.999 . S
H5155 C5136 0.913 . S
H5156 C5174 0.951 . S
H5157 C5176 0.951 . S
H5158 C5178 0.950 . S
H5159 C5179 0.950 . S
H5160 C5181 0.950 . S
H5161 C5184 0.950 . S
H5162 C5185 0.950 . S
H5163 C5187 0.950 . S
H5164 C5188 0.950 . S
H5165 C5189 0.951 . S
H5166 C5191 0.951 . S
H5167 C5193 0.950 . S
H5168 C5194 0.950 . S
H5169 C5196 0.950 . S
H5170 C5199 0.950 . S
H5171 C5200 0.950 . S
H5172 C5202 0.950 . S
H5173 C5203 0.950 . S
C5174 H5156 0.951 . S
C5174 C5175 1.366 . S
C5174 C5176 1.388 . S
C5175 C5174 1.366 . S
C5175 C5179 1.385 . S
C5176 H5157 0.951 . S
C5176 C5174 1.388 . S
C5176 C5177 1.366 . S
C5177 C5176 1.366 . S
C5177 C5178 1.414 . S
C5177 C5180 1.499 . S
C5178 H5158 0.950 . S
C5178 C5177 1.414 . S
C5178 C5179 1.374 . S
C5179 H5159 0.950 . S
C5179 C5175 1.385 . S
C5179 C5178 1.374 . S
C5180 C5177 1.499 . S
C5180 C5181 1.373 . S
C5180 C5182 1.389 . S
C5181 H5160 0.950 . S
C5181 C5180 1.373 . S
C5181 C5197 1.377 . S
C5182 C5180 1.389 . S
C5182 C5183 1.524 . S
C5182 C5196 1.377 . S
C5183 C5182 1.524 . S
C5183 C5184 1.397 . S
C5183 C5188 1.363 . S
C5184 H5161 0.950 . S
C5184 C5183 1.397 . S
C5184 C5185 1.334 . S
C5185 H5162 0.950 . S
C5185 C5184 1.334 . S
C5185 C5186 1.287 . S
C5186 C5185 1.287 . S
C5186 C5187 1.524 . S
C5186 H5205 0.913 . S
C5187 H5163 0.950 . S
C5187 C5186 1.524 . S
C5187 C5188 1.415 . S
C5188 H5164 0.950 . S
C5188 C5183 1.363 . S
C5188 C5187 1.415 . S
C5189 H5165 0.951 . S
C5189 C5190 1.366 . S
C5189 C5191 1.388 . S
C5190 C5189 1.366 . S
C5190 C5194 1.385 . S
C5191 H5166 0.951 . S
C5191 C5189 1.388 . S
C5191 C5192 1.366 . S
C5192 C5191 1.366 . S
C5192 C5193 1.414 . S
C5192 C5195 1.499 . S
C5193 H5167 0.950 . S
C5193 C5192 1.414 . S
C5193 C5194 1.374 . S
C5194 H5168 0.950 . S
C5194 C5190 1.385 . S
C5194 C5193 1.374 . S
C5195 C5192 1.499 . S
C5195 C5196 1.373 . S
C5195 C5197 1.389 . S
C5196 H5169 0.950 . S
C5196 C5182 1.377 . S
C5196 C5195 1.373 . S
C5197 C5181 1.377 . S
C5197 C5195 1.389 . S
C5197 C5198 1.524 . S
C5198 C5197 1.524 . S
C5198 C5199 1.397 . S
C5198 C5203 1.363 . S
C5199 H5170 0.950 . S
C5199 C5198 1.397 . S
C5199 C5200 1.334 . S
C5200 H5171 0.950 . S
C5200 C5199 1.334 . S
C5200 C5201 1.287 . S
C5201 C5200 1.287 . S
C5201 C5202 1.524 . S
C5201 H5204 0.999 . S
C5202 H5172 0.950 . S
C5202 C5201 1.524 . S
C5202 C5203 1.415 . S
C5203 H5173 0.950 . S
C5203 C5198 1.363 . S
C5203 C5202 1.415 . S
H5204 C5201 0.999 . S
H5205 C5186 0.913 . S
H5206 C5224 0.951 . S
H5207 C5226 0.951 . S
H5208 C5228 0.950 . S
H5209 C5229 0.950 . S
H5210 C5231 0.950 . S
H5211 C5234 0.950 . S
H5212 C5235 0.950 . S
H5213 C5237 0.950 . S
H5214 C5238 0.950 . S
H5215 C5239 0.951 . S
H5216 C5241 0.951 . S
H5217 C5243 0.950 . S
H5218 C5244 0.950 . S
H5219 C5246 0.950 . S
H5220 C5249 0.950 . S
H5221 C5250 0.950 . S
H5222 C5252 0.950 . S
H5223 C5253 0.950 . S
C5224 H5206 0.951 . S
C5224 C5225 1.366 . S
C5224 C5226 1.388 . S
C5225 C5224 1.366 . S
C5225 C5229 1.385 . S
C5226 H5207 0.951 . S
C5226 C5224 1.388 . S
C5226 C5227 1.366 . S
C5227 C5226 1.366 . S
C5227 C5228 1.414 . S
C5227 C5230 1.499 . S
C5228 H5208 0.950 . S
C5228 C5227 1.414 . S
C5228 C5229 1.374 . S
C5229 H5209 0.950 . S
C5229 C5225 1.385 . S
C5229 C5228 1.374 . S
C5230 C5227 1.499 . S
C5230 C5231 1.373 . S
C5230 C5232 1.389 . S
C5231 H5210 0.950 . S
C5231 C5230 1.373 . S
C5231 C5247 1.377 . S
C5232 C5230 1.389 . S
C5232 C5233 1.524 . S
C5232 C5246 1.377 . S
C5233 C5232 1.524 . S
C5233 C5234 1.397 . S
C5233 C5238 1.363 . S
C5234 H5211 0.950 . S
C5234 C5233 1.397 . S
C5234 C5235 1.334 . S
C5235 H5212 0.950 . S
C5235 C5234 1.334 . S
C5235 C5236 1.287 . S
C5236 C5235 1.287 . S
C5236 C5237 1.524 . S
C5236 H5255 0.913 . S
C5237 H5213 0.950 . S
C5237 C5236 1.524 . S
C5237 C5238 1.415 . S
C5238 H5214 0.950 . S
C5238 C5233 1.363 . S
C5238 C5237 1.415 . S
C5239 H5215 0.951 . S
C5239 C5240 1.366 . S
C5239 C5241 1.388 . S
C5240 C5239 1.366 . S
C5240 C5244 1.385 . S
C5241 H5216 0.951 . S
C5241 C5239 1.388 . S
C5241 C5242 1.366 . S
C5242 C5241 1.366 . S
C5242 C5243 1.414 . S
C5242 C5245 1.499 . S
C5243 H5217 0.950 . S
C5243 C5242 1.414 . S
C5243 C5244 1.374 . S
C5244 H5218 0.950 . S
C5244 C5240 1.385 . S
C5244 C5243 1.374 . S
C5245 C5242 1.499 . S
C5245 C5246 1.373 . S
C5245 C5247 1.389 . S
C5246 H5219 0.950 . S
C5246 C5232 1.377 . S
C5246 C5245 1.373 . S
C5247 C5231 1.377 . S
C5247 C5245 1.389 . S
C5247 C5248 1.524 . S
C5248 C5247 1.524 . S
C5248 C5249 1.397 . S
C5248 C5253 1.363 . S
C5249 H5220 0.950 . S
C5249 C5248 1.397 . S
C5249 C5250 1.334 . S
C5250 H5221 0.950 . S
C5250 C5249 1.334 . S
C5250 C5251 1.287 . S
C5251 C5250 1.287 . S
C5251 C5252 1.524 . S
C5251 H5254 0.999 . S
C5252 H5222 0.950 . S
C5252 C5251 1.524 . S
C5252 C5253 1.415 . S
C5253 H5223 0.950 . S
C5253 C5248 1.363 . S
C5253 C5252 1.415 . S
H5254 C5251 0.999 . S
H5255 C5236 0.913 . S
H5256 C5274 0.951 . S
H5257 C5276 0.951 . S
H5258 C5278 0.950 . S
H5259 C5279 0.950 . S
H5260 C5281 0.950 . S
H5261 C5284 0.950 . S
H5262 C5285 0.950 . S
H5263 C5287 0.950 . S
H5264 C5288 0.950 . S
H5265 C5289 0.951 . S
H5266 C5291 0.951 . S
H5267 C5293 0.950 . S
H5268 C5294 0.950 . S
H5269 C5296 0.950 . S
H5270 C5299 0.950 . S
H5271 C5300 0.950 . S
H5272 C5302 0.950 . S
H5273 C5303 0.950 . S
C5274 H5256 0.951 . S
C5274 C5275 1.366 . S
C5274 C5276 1.388 . S
C5275 C5274 1.366 . S
C5275 C5279 1.385 . S
C5276 H5257 0.951 . S
C5276 C5274 1.388 . S
C5276 C5277 1.366 . S
C5277 C5276 1.366 . S
C5277 C5278 1.414 . S
C5277 C5280 1.499 . S
C5278 H5258 0.950 . S
C5278 C5277 1.414 . S
C5278 C5279 1.374 . S
C5279 H5259 0.950 . S
C5279 C5275 1.385 . S
C5279 C5278 1.374 . S
C5280 C5277 1.499 . S
C5280 C5281 1.373 . S
C5280 C5282 1.389 . S
C5281 H5260 0.950 . S
C5281 C5280 1.373 . S
C5281 C5297 1.377 . S
C5282 C5280 1.389 . S
C5282 C5283 1.524 . S
C5282 C5296 1.377 . S
C5283 C5282 1.524 . S
C5283 C5284 1.397 . S
C5283 C5288 1.363 . S
C5284 H5261 0.950 . S
C5284 C5283 1.397 . S
C5284 C5285 1.334 . S
C5285 H5262 0.950 . S
C5285 C5284 1.334 . S
C5285 C5286 1.287 . S
C5286 C5285 1.287 . S
C5286 C5287 1.524 . S
C5286 H5305 0.913 . S
C5287 H5263 0.950 . S
C5287 C5286 1.524 . S
C5287 C5288 1.415 . S
C5288 H5264 0.950 . S
C5288 C5283 1.363 . S
C5288 C5287 1.415 . S
C5289 H5265 0.951 . S
C5289 C5290 1.366 . S
C5289 C5291 1.388 . S
C5290 C5289 1.366 . S
C5290 C5294 1.385 . S
C5291 H5266 0.951 . S
C5291 C5289 1.388 . S
C5291 C5292 1.366 . S
C5292 C5291 1.366 . S
C5292 C5293 1.414 . S
C5292 C5295 1.499 . S
C5293 H5267 0.950 . S
C5293 C5292 1.414 . S
C5293 C5294 1.374 . S
C5294 H5268 0.950 . S
C5294 C5290 1.385 . S
C5294 C5293 1.374 . S
C5295 C5292 1.499 . S
C5295 C5296 1.373 . S
C5295 C5297 1.389 . S
C5296 H5269 0.950 . S
C5296 C5282 1.377 . S
C5296 C5295 1.373 . S
C5297 C5281 1.377 . S
C5297 C5295 1.389 . S
C5297 C5298 1.524 . S
C5298 C5297 1.524 . S
C5298 C5299 1.397 . S
C5298 C5303 1.363 . S
C5299 H5270 0.950 . S
C5299 C5298 1.397 . S
C5299 C5300 1.334 . S
C5300 H5271 0.950 . S
C5300 C5299 1.334 . S
C5300 C5301 1.287 . S
C5301 C5300 1.287 . S
C5301 C5302 1.524 . S
C5301 H5304 0.999 . S
C5302 H5272 0.950 . S
C5302 C5301 1.524 . S
C5302 C5303 1.415 . S
C5303 H5273 0.950 . S
C5303 C5298 1.363 . S
C5303 C5302 1.415 . S
H5304 C5301 0.999 . S
H5305 C5286 0.913 . S
H5306 C5324 0.951 . S
H5307 C5326 0.951 . S
H5308 C5328 0.950 . S
H5309 C5329 0.950 . S
H5310 C5331 0.950 . S
H5311 C5334 0.950 . S
H5312 C5335 0.950 . S
H5313 C5337 0.950 . S
H5314 C5338 0.950 . S
H5315 C5339 0.951 . S
H5316 C5341 0.951 . S
H5317 C5343 0.950 . S
H5318 C5344 0.950 . S
H5319 C5346 0.950 . S
H5320 C5349 0.950 . S
H5321 C5350 0.950 . S
H5322 C5352 0.950 . S
H5323 C5353 0.950 . S
C5324 H5306 0.951 . S
C5324 C5325 1.366 . S
C5324 C5326 1.388 . S
C5325 C5324 1.366 . S
C5325 C5329 1.385 . S
C5326 H5307 0.951 . S
C5326 C5324 1.388 . S
C5326 C5327 1.366 . S
C5327 C5326 1.366 . S
C5327 C5328 1.414 . S
C5327 C5330 1.499 . S
C5328 H5308 0.950 . S
C5328 C5327 1.414 . S
C5328 C5329 1.374 . S
C5329 H5309 0.950 . S
C5329 C5325 1.385 . S
C5329 C5328 1.374 . S
C5330 C5327 1.499 . S
C5330 C5331 1.373 . S
C5330 C5332 1.389 . S
C5331 H5310 0.950 . S
C5331 C5330 1.373 . S
C5331 C5347 1.377 . S
C5332 C5330 1.389 . S
C5332 C5333 1.524 . S
C5332 C5346 1.377 . S
C5333 C5332 1.524 . S
C5333 C5334 1.397 . S
C5333 C5338 1.363 . S
C5334 H5311 0.950 . S
C5334 C5333 1.397 . S
C5334 C5335 1.334 . S
C5335 H5312 0.950 . S
C5335 C5334 1.334 . S
C5335 C5336 1.287 . S
C5336 C5335 1.287 . S
C5336 C5337 1.524 . S
C5336 H5355 0.913 . S
C5337 H5313 0.950 . S
C5337 C5336 1.524 . S
C5337 C5338 1.415 . S
C5338 H5314 0.950 . S
C5338 C5333 1.363 . S
C5338 C5337 1.415 . S
C5339 H5315 0.951 . S
C5339 C5340 1.366 . S
C5339 C5341 1.388 . S
C5340 C5339 1.366 . S
C5340 C5344 1.385 . S
C5341 H5316 0.951 . S
C5341 C5339 1.388 . S
C5341 C5342 1.366 . S
C5342 C5341 1.366 . S
C5342 C5343 1.414 . S
C5342 C5345 1.499 . S
C5343 H5317 0.950 . S
C5343 C5342 1.414 . S
C5343 C5344 1.374 . S
C5344 H5318 0.950 . S
C5344 C5340 1.385 . S
C5344 C5343 1.374 . S
C5345 C5342 1.499 . S
C5345 C5346 1.373 . S
C5345 C5347 1.389 . S
C5346 H5319 0.950 . S
C5346 C5332 1.377 . S
C5346 C5345 1.373 . S
C5347 C5331 1.377 . S
C5347 C5345 1.389 . S
C5347 C5348 1.524 . S
C5348 C5347 1.524 . S
C5348 C5349 1.397 . S
C5348 C5353 1.363 . S
C5349 H5320 0.950 . S
C5349 C5348 1.397 . S
C5349 C5350 1.334 . S
C5350 H5321 0.950 . S
C5350 C5349 1.334 . S
C5350 C5351 1.287 . S
C5351 C5350 1.287 . S
C5351 C5352 1.524 . S
C5351 H5354 0.999 . S
C5352 H5322 0.950 . S
C5352 C5351 1.524 . S
C5352 C5353 1.415 . S
C5353 H5323 0.950 . S
C5353 C5348 1.363 . S
C5353 C5352 1.415 . S
H5354 C5351 0.999 . S
H5355 C5336 0.913 . S
H5356 C5374 0.951 . S
H5357 C5376 0.951 . S
H5358 C5378 0.950 . S
H5359 C5379 0.950 . S
H5360 C5381 0.950 . S
H5361 C5384 0.950 . S
H5362 C5385 0.950 . S
H5363 C5387 0.950 . S
H5364 C5388 0.950 . S
H5365 C5389 0.951 . S
H5366 C5391 0.951 . S
H5367 C5393 0.950 . S
H5368 C5394 0.950 . S
H5369 C5396 0.950 . S
H5370 C5399 0.973 . S
H5371 C5400 0.950 . S
H5372 C5402 0.950 . S
H5373 C5403 0.950 . S
C5374 H5356 0.951 . S
C5374 C5375 1.366 . S
C5374 C5376 1.388 . S
C5375 C5374 1.366 . S
C5375 C5379 1.385 . S
C5376 H5357 0.951 . S
C5376 C5374 1.388 . S
C5376 C5377 1.366 . S
C5377 C5376 1.366 . S
C5377 C5378 1.414 . S
C5377 C5380 1.499 . S
C5378 H5358 0.950 . S
C5378 C5377 1.414 . S
C5378 C5379 1.374 . S
C5379 H5359 0.950 . S
C5379 C5375 1.385 . S
C5379 C5378 1.374 . S
C5380 C5377 1.499 . S
C5380 C5381 1.373 . S
C5380 C5382 1.389 . S
C5381 H5360 0.950 . S
C5381 C5380 1.373 . S
C5381 C5397 1.377 . S
C5382 C5380 1.389 . S
C5382 C5383 1.524 . S
C5382 C5396 1.377 . S
C5383 C5382 1.524 . S
C5383 C5384 1.397 . S
C5383 C5388 1.363 . S
C5384 H5361 0.950 . S
C5384 C5383 1.397 . S
C5384 C5385 1.334 . S
C5385 H5362 0.950 . S
C5385 C5384 1.334 . S
C5385 C5386 1.287 . S
C5386 C5385 1.287 . S
C5386 C5387 1.524 . S
C5386 H5405 0.913 . S
C5387 H5363 0.950 . S
C5387 C5386 1.524 . S
C5387 C5388 1.415 . S
C5388 H5364 0.950 . S
C5388 C5383 1.363 . S
C5388 C5387 1.415 . S
C5389 H5365 0.951 . S
C5389 C5390 1.366 . S
C5389 C5391 1.388 . S
C5390 C5389 1.366 . S
C5390 C5394 1.385 . S
C5391 H5366 0.951 . S
C5391 C5389 1.388 . S
C5391 C5392 1.366 . S
C5392 C5391 1.366 . S
C5392 C5393 1.414 . S
C5392 C5395 1.499 . S
C5393 H5367 0.950 . S
C5393 C5392 1.414 . S
C5393 C5394 1.374 . S
C5394 H5368 0.950 . S
C5394 C5390 1.385 . S
C5394 C5393 1.374 . S
C5395 C5392 1.499 . S
C5395 C5396 1.373 . S
C5395 C5397 1.389 . S
C5396 H5369 0.950 . S
C5396 C5382 1.377 . S
C5396 C5395 1.373 . S
C5397 C5381 1.377 . S
C5397 C5395 1.389 . S
C5397 C5398 1.524 . S
C5398 C5397 1.524 . S
C5398 C5399 1.397 1_554 S
C5398 C5403 1.363 . S
C5399 H5370 0.973 . S
C5399 C5398 1.397 1_556 S
C5399 C5400 1.334 . S
C5400 H5371 0.950 . S
C5400 C5399 1.334 . S
C5400 C5401 1.287 . S
C5401 C5400 1.287 . S
C5401 C5402 1.524 . S
C5401 H5404 0.999 . S
C5402 H5372 0.950 . S
C5402 C5401 1.524 . S
C5402 C5403 1.415 1_556 S
C5403 H5373 0.950 . S
C5403 C5398 1.363 . S
C5403 C5402 1.415 1_554 S
H5404 C5401 0.999 . S
H5405 C5386 0.913 . S
H5406 C5424 0.951 . S
H5407 C5426 0.951 . S
H5408 C5428 0.950 . S
H5409 C5429 0.950 . S
H5410 C5431 0.950 . S
H5411 C5434 0.950 . S
H5412 C5435 0.950 . S
H5413 C5437 0.950 . S
H5414 C5438 0.950 . S
H5415 C5439 0.951 . S
H5416 C5441 0.951 . S
H5417 C5443 0.950 . S
H5418 C5444 0.950 . S
H5419 C5446 0.950 . S
H5420 C5449 0.950 . S
H5421 C5450 0.950 . S
H5422 C5452 0.950 . S
H5423 C5453 0.950 . S
C5424 H5406 0.951 . S
C5424 C5425 1.366 . S
C5424 C5426 1.388 . S
C5425 C5424 1.366 . S
C5425 C5429 1.385 . S
C5426 H5407 0.951 . S
C5426 C5424 1.388 . S
C5426 C5427 1.366 . S
C5427 C5426 1.366 . S
C5427 C5428 1.414 . S
C5427 C5430 1.499 . S
C5428 H5408 0.950 . S
C5428 C5427 1.414 . S
C5428 C5429 1.374 . S
C5429 H5409 0.950 . S
C5429 C5425 1.385 . S
C5429 C5428 1.374 . S
C5430 C5427 1.499 . S
C5430 C5431 1.373 . S
C5430 C5432 1.389 . S
C5431 H5410 0.950 . S
C5431 C5430 1.373 . S
C5431 C5447 1.377 . S
C5432 C5430 1.389 . S
C5432 C5433 1.524 . S
C5432 C5446 1.377 . S
C5433 C5432 1.524 . S
C5433 C5434 1.397 . S
C5433 C5438 1.363 . S
C5434 H5411 0.950 . S
C5434 C5433 1.397 . S
C5434 C5435 1.334 . S
C5435 H5412 0.950 . S
C5435 C5434 1.334 . S
C5435 C5436 1.287 . S
C5436 C5435 1.287 . S
C5436 C5437 1.524 . S
C5436 H5455 0.913 . S
C5437 H5413 0.950 . S
C5437 C5436 1.524 . S
C5437 C5438 1.415 . S
C5438 H5414 0.950 . S
C5438 C5433 1.363 . S
C5438 C5437 1.415 . S
C5439 H5415 0.951 . S
C5439 C5440 1.366 . S
C5439 C5441 1.388 . S
C5440 C5439 1.366 . S
C5440 C5444 1.385 . S
C5441 H5416 0.951 . S
C5441 C5439 1.388 . S
C5441 C5442 1.366 . S
C5442 C5441 1.366 . S
C5442 C5443 1.414 . S
C5442 C5445 1.499 . S
C5443 H5417 0.950 . S
C5443 C5442 1.414 . S
C5443 C5444 1.374 . S
C5444 H5418 0.950 . S
C5444 C5440 1.385 . S
C5444 C5443 1.374 . S
C5445 C5442 1.499 . S
C5445 C5446 1.373 . S
C5445 C5447 1.389 . S
C5446 H5419 0.950 . S
C5446 C5432 1.377 . S
C5446 C5445 1.373 . S
C5447 C5431 1.377 . S
C5447 C5445 1.389 . S
C5447 C5448 1.524 . S
C5448 C5447 1.524 . S
C5448 C5449 1.397 . S
C5448 C5453 1.363 . S
C5449 H5420 0.950 . S
C5449 C5448 1.397 . S
C5449 C5450 1.334 . S
C5450 H5421 0.950 . S
C5450 C5449 1.334 . S
C5450 C5451 1.287 . S
C5451 C5450 1.287 . S
C5451 C5452 1.524 . S
C5451 H5454 0.999 . S
C5452 H5422 0.950 . S
C5452 C5451 1.524 . S
C5452 C5453 1.415 . S
C5453 H5423 0.950 . S
C5453 C5448 1.363 . S
C5453 C5452 1.415 . S
H5454 C5451 0.999 . S
H5455 C5436 0.913 . S
H5456 C5474 0.951 . S
H5457 C5476 0.951 . S
H5458 C5478 0.950 . S
H5459 C5479 0.950 . S
H5460 C5481 0.950 . S
H5461 C5484 0.950 . S
H5462 C5485 0.950 . S
H5463 C5487 0.950 . S
H5464 C5488 0.950 . S
H5465 C5489 0.951 1_554 S
H5466 C5491 0.951 . S
H5467 C5493 0.950 . S
H5468 C5494 0.950 . S
H5469 C5496 0.950 . S
H5470 C5499 0.982 . S
H5471 C5500 0.950 . S
H5472 C5502 0.950 . S
H5473 C5503 0.950 1_556 S
C5474 H5456 0.951 . S
C5474 C5475 1.366 . S
C5474 C5476 1.388 . S
C5475 C5474 1.366 . S
C5475 C5479 1.385 . S
C5476 H5457 0.951 . S
C5476 C5474 1.388 . S
C5476 C5477 1.366 . S
C5477 C5476 1.366 . S
C5477 C5478 1.414 . S
C5477 C5480 1.499 . S
C5478 H5458 0.950 . S
C5478 C5477 1.414 . S
C5478 C5479 1.374 . S
C5479 H5459 0.950 . S
C5479 C5475 1.385 . S
C5479 C5478 1.374 . S
C5480 C5477 1.499 . S
C5480 C5481 1.373 . S
C5480 C5482 1.389 . S
C5481 H5460 0.950 . S
C5481 C5480 1.373 . S
C5481 C5497 1.377 . S
C5482 C5480 1.389 . S
C5482 C5483 1.524 . S
C5482 C5496 1.377 . S
C5483 C5482 1.524 . S
C5483 C5484 1.397 . S
C5483 C5488 1.363 . S
C5484 H5461 0.950 . S
C5484 C5483 1.397 . S
C5484 C5485 1.334 . S
C5485 H5462 0.950 . S
C5485 C5484 1.334 . S
C5485 C5486 1.287 . S
C5486 C5485 1.287 . S
C5486 C5487 1.524 . S
C5486 H5505 0.913 . S
C5487 H5463 0.950 . S
C5487 C5486 1.524 . S
C5487 C5488 1.415 . S
C5488 H5464 0.950 . S
C5488 C5483 1.363 . S
C5488 C5487 1.415 . S
C5489 H5465 0.951 1_556 S
C5489 C5490 1.366 . S
C5489 C5491 1.388 . S
C5490 C5489 1.366 . S
C5490 C5494 1.385 . S
C5491 H5466 0.951 . S
C5491 C5489 1.388 . S
C5491 C5492 1.366 . S
C5492 C5491 1.366 . S
C5492 C5493 1.414 . S
C5492 C5495 1.499 . S
C5493 H5467 0.950 . S
C5493 C5492 1.414 . S
C5493 C5494 1.374 . S
C5494 H5468 0.950 . S
C5494 C5490 1.385 . S
C5494 C5493 1.374 . S
C5495 C5492 1.499 . S
C5495 C5496 1.373 . S
C5495 C5497 1.389 . S
C5496 H5469 0.950 . S
C5496 C5482 1.377 . S
C5496 C5495 1.373 . S
C5497 C5481 1.377 . S
C5497 C5495 1.389 . S
C5497 C5498 1.524 . S
C5498 C5497 1.524 . S
C5498 C5499 1.420 . S
C5498 C5503 1.363 1_556 S
C5499 H5470 0.982 . S
C5499 C5498 1.420 . S
C5499 C5500 1.281 1_556 S
C5500 H5471 0.950 . S
C5500 C5499 1.281 1_554 S
C5500 C5501 1.287 . S
C5501 C5500 1.287 . S
C5501 C5502 1.524 . S
C5501 H5504 0.999 . S
C5502 H5472 0.950 . S
C5502 C5501 1.524 . S
C5502 C5503 1.415 . S
C5503 H5473 0.950 1_554 S
C5503 C5498 1.363 1_554 S
C5503 C5502 1.415 . S
H5504 C5501 0.999 . S
H5505 C5486 0.913 . S
H5506 C5524 0.951 . S
H5507 C5526 0.951 . S
H5508 C5528 0.950 . S
H5509 C5529 0.950 . S
H5510 C5531 0.950 . S
H5511 C5534 0.950 . S
H5512 C5535 0.950 . S
H5513 C5537 0.950 . S
H5514 C5538 0.950 . S
H5515 C5539 0.951 . S
H5516 C5541 0.951 . S
H5517 C5543 0.950 . S
H5518 C5544 0.950 . S
H5519 C5546 0.950 . S
H5520 C5549 0.950 . S
H5521 C5550 0.950 . S
H5522 C5552 0.950 . S
H5523 C5553 0.950 . S
C5524 H5506 0.951 . S
C5524 C5525 1.366 . S
C5524 C5526 1.388 . S
C5525 C5524 1.366 . S
C5525 C5529 1.385 . S
C5526 H5507 0.951 . S
C5526 C5524 1.388 . S
C5526 C5527 1.366 . S
C5527 C5526 1.366 . S
C5527 C5528 1.414 . S
C5527 C5530 1.499 . S
C5528 H5508 0.950 . S
C5528 C5527 1.414 . S
C5528 C5529 1.374 . S
C5529 H5509 0.950 . S
C5529 C5525 1.385 . S
C5529 C5528 1.374 . S
C5530 C5527 1.499 . S
C5530 C5531 1.373 . S
C5530 C5532 1.389 . S
C5531 H5510 0.950 . S
C5531 C5530 1.373 . S
C5531 C5547 1.377 . S
C5532 C5530 1.389 . S
C5532 C5533 1.524 . S
C5532 C5546 1.377 . S
C5533 C5532 1.524 . S
C5533 C5534 1.397 . S
C5533 C5538 1.363 . S
C5534 H5511 0.950 . S
C5534 C5533 1.397 . S
C5534 C5535 1.334 . S
C5535 H5512 0.950 . S
C5535 C5534 1.334 . S
C5535 C5536 1.287 . S
C5536 C5535 1.287 . S
C5536 C5537 1.524 . S
C5536 H5555 0.913 . S
C5537 H5513 0.950 . S
C5537 C5536 1.524 . S
C5537 C5538 1.415 . S
C5538 H5514 0.950 . S
C5538 C5533 1.363 . S
C5538 C5537 1.415 . S
C5539 H5515 0.951 . S
C5539 C5540 1.366 . S
C5539 C5541 1.388 . S
C5540 C5539 1.366 . S
C5540 C5544 1.385 . S
C5541 H5516 0.951 . S
C5541 C5539 1.388 . S
C5541 C5542 1.366 . S
C5542 C5541 1.366 . S
C5542 C5543 1.414 . S
C5542 C5545 1.499 . S
C5543 H5517 0.950 . S
C5543 C5542 1.414 . S
C5543 C5544 1.374 . S
C5544 H5518 0.950 . S
C5544 C5540 1.385 . S
C5544 C5543 1.374 . S
C5545 C5542 1.499 . S
C5545 C5546 1.373 . S
C5545 C5547 1.389 . S
C5546 H5519 0.950 . S
C5546 C5532 1.377 . S
C5546 C5545 1.373 . S
C5547 C5531 1.377 . S
C5547 C5545 1.389 . S
C5547 C5548 1.524 . S
C5548 C5547 1.524 . S
C5548 C5549 1.397 . S
C5548 C5553 1.363 . S
C5549 H5520 0.950 . S
C5549 C5548 1.397 . S
C5549 C5550 1.334 . S
C5550 H5521 0.950 . S
C5550 C5549 1.334 . S
C5550 C5551 1.287 . S
C5551 C5550 1.287 . S
C5551 C5552 1.524 . S
C5551 H5554 0.999 . S
C5552 H5522 0.950 . S
C5552 C5551 1.524 . S
C5552 C5553 1.415 . S
C5553 H5523 0.950 . S
C5553 C5548 1.363 . S
C5553 C5552 1.415 . S
H5554 C5551 0.999 . S
H5555 C5536 0.913 . S
H5556 C5574 0.951 . S
H5557 C5576 0.951 . S
H5558 C5578 0.950 . S
H5559 C5579 0.950 . S
H5560 C5581 0.950 . S
H5561 C5584 0.950 . S
H5562 C5585 0.950 . S
H5563 C5587 0.950 . S
H5564 C5588 0.950 . S
H5565 C5589 0.951 . S
H5566 C5591 0.951 . S
H5567 C5593 0.950 . S
H5568 C5594 0.950 . S
H5569 C5596 0.950 . S
H5570 C5599 0.950 . S
H5571 C5600 0.950 . S
H5572 C5602 0.950 . S
H5573 C5603 0.950 . S
C5574 H5556 0.951 . S
C5574 C5575 1.366 . S
C5574 C5576 1.388 . S
C5575 C5574 1.366 . S
C5575 C5579 1.385 . S
C5576 H5557 0.951 . S
C5576 C5574 1.388 . S
C5576 C5577 1.366 . S
C5577 C5576 1.366 . S
C5577 C5578 1.414 . S
C5577 C5580 1.499 . S
C5578 H5558 0.950 . S
C5578 C5577 1.414 . S
C5578 C5579 1.374 . S
C5579 H5559 0.950 . S
C5579 C5575 1.385 . S
C5579 C5578 1.374 . S
C5580 C5577 1.499 . S
C5580 C5581 1.373 . S
C5580 C5582 1.389 . S
C5581 H5560 0.950 . S
C5581 C5580 1.373 . S
C5581 C5597 1.377 . S
C5582 C5580 1.389 . S
C5582 C5583 1.524 . S
C5582 C5596 1.377 . S
C5583 C5582 1.524 . S
C5583 C5584 1.397 . S
C5583 C5588 1.363 . S
C5584 H5561 0.950 . S
C5584 C5583 1.397 . S
C5584 C5585 1.334 . S
C5585 H5562 0.950 . S
C5585 C5584 1.334 . S
C5585 C5586 1.287 . S
C5586 C5585 1.287 . S
C5586 C5587 1.524 . S
C5586 H5605 0.913 . S
C5587 H5563 0.950 . S
C5587 C5586 1.524 . S
C5587 C5588 1.415 . S
C5588 H5564 0.950 . S
C5588 C5583 1.363 . S
C5588 C5587 1.415 . S
C5589 H5565 0.951 . S
C5589 C5590 1.366 . S
C5589 C5591 1.388 . S
C5590 C5589 1.366 . S
C5590 C5594 1.385 . S
C5591 H5566 0.951 . S
C5591 C5589 1.388 . S
C5591 C5592 1.366 . S
C5592 C5591 1.366 . S
C5592 C5593 1.414 . S
C5592 C5595 1.499 . S
C5593 H5567 0.950 . S
C5593 C5592 1.414 . S
C5593 C5594 1.374 . S
C5594 H5568 0.950 . S
C5594 C5590 1.385 . S
C5594 C5593 1.374 . S
C5595 C5592 1.499 . S
C5595 C5596 1.373 . S
C5595 C5597 1.389 . S
C5596 H5569 0.950 . S
C5596 C5582 1.377 . S
C5596 C5595 1.373 . S
C5597 C5581 1.377 . S
C5597 C5595 1.389 . S
C5597 C5598 1.524 . S
C5598 C5597 1.524 . S
C5598 C5599 1.397 . S
C5598 C5603 1.363 . S
C5599 H5570 0.950 . S
C5599 C5598 1.397 . S
C5599 C5600 1.334 . S
C5600 H5571 0.950 . S
C5600 C5599 1.334 . S
C5600 C5601 1.287 . S
C5601 C5600 1.287 . S
C5601 C5602 1.524 . S
C5601 H5604 0.999 . S
C5602 H5572 0.950 . S
C5602 C5601 1.524 . S
C5602 C5603 1.415 . S
C5603 H5573 0.950 . S
C5603 C5598 1.363 . S
C5603 C5602 1.415 . S
H5604 C5601 0.999 . S
H5605 C5586 0.913 . S
H5606 C5624 0.951 . S
H5607 C5626 0.951 . S
H5608 C5628 0.950 . S
H5609 C5629 0.950 . S
H5610 C5631 0.950 . S
H5611 C5634 0.950 . S
H5612 C5635 0.950 . S
H5613 C5637 0.950 . S
H5614 C5638 0.950 . S
H5615 C5639 0.951 . S
H5616 C5641 0.951 . S
H5617 C5643 0.950 . S
H5618 C5644 0.950 . S
H5619 C5646 0.950 . S
H5620 C5649 0.950 . S
H5621 C5650 0.950 . S
H5622 C5652 0.950 . S
H5623 C5653 0.950 . S
C5624 H5606 0.951 . S
C5624 C5625 1.366 . S
C5624 C5626 1.388 . S
C5625 C5624 1.366 . S
C5625 C5629 1.385 . S
C5626 H5607 0.951 . S
C5626 C5624 1.388 . S
C5626 C5627 1.366 . S
C5627 C5626 1.366 . S
C5627 C5628 1.414 . S
C5627 C5630 1.499 . S
C5628 H5608 0.950 . S
C5628 C5627 1.414 . S
C5628 C5629 1.374 . S
C5629 H5609 0.950 . S
C5629 C5625 1.385 . S
C5629 C5628 1.374 . S
C5630 C5627 1.499 . S
C5630 C5631 1.373 . S
C5630 C5632 1.389 . S
C5631 H5610 0.950 . S
C5631 C5630 1.373 . S
C5631 C5647 1.377 . S
C5632 C5630 1.389 . S
C5632 C5633 1.524 . S
C5632 C5646 1.377 . S
C5633 C5632 1.524 . S
C5633 C5634 1.397 . S
C5633 C5638 1.363 . S
C5634 H5611 0.950 . S
C5634 C5633 1.397 . S
C5634 C5635 1.334 . S
C5635 H5612 0.950 . S
C5635 C5634 1.334 . S
C5635 C5636 1.287 . S
C5636 C5635 1.287 . S
C5636 C5637 1.524 . S
C5636 H5655 0.913 . S
C5637 H5613 0.950 . S
C5637 C5636 1.524 . S
C5637 C5638 1.415 . S
C5638 H5614 0.950 . S
C5638 C5633 1.363 . S
C5638 C5637 1.415 . S
C5639 H5615 0.951 . S
C5639 C5640 1.366 . S
C5639 C5641 1.388 . S
C5640 C5639 1.366 . S
C5640 C5644 1.385 . S
C5641 H5616 0.951 . S
C5641 C5639 1.388 . S
C5641 C5642 1.366 . S
C5642 C5641 1.366 . S
C5642 C5643 1.414 . S
C5642 C5645 1.499 . S
C5643 H5617 0.950 . S
C5643 C5642 1.414 . S
C5643 C5644 1.374 . S
C5644 H5618 0.950 . S
C5644 C5640 1.385 . S
C5644 C5643 1.374 . S
C5645 C5642 1.499 . S
C5645 C5646 1.373 . S
C5645 C5647 1.389 . S
C5646 H5619 0.950 . S
C5646 C5632 1.377 . S
C5646 C5645 1.373 . S
C5647 C5631 1.377 . S
C5647 C5645 1.389 . S
C5647 C5648 1.524 . S
C5648 C5647 1.524 . S
C5648 C5649 1.397 . S
C5648 C5653 1.363 . S
C5649 H5620 0.950 . S
C5649 C5648 1.397 . S
C5649 C5650 1.334 . S
C5650 H5621 0.950 . S
C5650 C5649 1.334 . S
C5650 C5651 1.287 . S
C5651 C5650 1.287 . S
C5651 C5652 1.524 . S
C5651 H5654 0.999 . S
C5652 H5622 0.950 . S
C5652 C5651 1.524 . S
C5652 C5653 1.415 . S
C5653 H5623 0.950 . S
C5653 C5648 1.363 . S
C5653 C5652 1.415 . S
H5654 C5651 0.999 . S
H5655 C5636 0.913 . S
H5656 C5674 0.951 . S
H5657 C5676 0.951 . S
H5658 C5678 0.950 . S
H5659 C5679 0.950 . S
H5660 C5681 0.950 . S
H5661 C5684 0.950 . S
H5662 C5685 0.950 . S
H5663 C5687 0.950 . S
H5664 C5688 0.950 . S
H5665 C5689 0.951 . S
H5666 C5691 0.951 . S
H5667 C5693 0.950 . S
H5668 C5694 0.950 . S
H5669 C5696 0.950 . S
H5670 C5699 0.950 . S
H5671 C5700 0.950 . S
H5672 C5702 0.950 . S
H5673 C5703 0.950 . S
C5674 H5656 0.951 . S
C5674 C5675 1.366 . S
C5674 C5676 1.388 . S
C5675 C5674 1.366 . S
C5675 C5679 1.385 . S
C5676 H5657 0.951 . S
C5676 C5674 1.388 . S
C5676 C5677 1.366 . S
C5677 C5676 1.366 . S
C5677 C5678 1.414 . S
C5677 C5680 1.499 . S
C5678 H5658 0.950 . S
C5678 C5677 1.414 . S
C5678 C5679 1.374 . S
C5679 H5659 0.950 . S
C5679 C5675 1.385 . S
C5679 C5678 1.374 . S
C5680 C5677 1.499 . S
C5680 C5681 1.373 . S
C5680 C5682 1.389 . S
C5681 H5660 0.950 . S
C5681 C5680 1.373 . S
C5681 C5697 1.377 . S
C5682 C5680 1.389 . S
C5682 C5683 1.524 . S
C5682 C5696 1.377 . S
C5683 C5682 1.524 . S
C5683 C5684 1.397 . S
C5683 C5688 1.363 . S
C5684 H5661 0.950 . S
C5684 C5683 1.397 . S
C5684 C5685 1.334 . S
C5685 H5662 0.950 . S
C5685 C5684 1.334 . S
C5685 C5686 1.287 . S
C5686 C5685 1.287 . S
C5686 C5687 1.524 . S
C5686 H5705 0.913 . S
C5687 H5663 0.950 . S
C5687 C5686 1.524 . S
C5687 C5688 1.415 . S
C5688 H5664 0.950 . S
C5688 C5683 1.363 . S
C5688 C5687 1.415 . S
C5689 H5665 0.951 . S
C5689 C5690 1.366 . S
C5689 C5691 1.388 . S
C5690 C5689 1.366 . S
C5690 C5694 1.385 . S
C5691 H5666 0.951 . S
C5691 C5689 1.388 . S
C5691 C5692 1.366 . S
C5692 C5691 1.366 . S
C5692 C5693 1.414 . S
C5692 C5695 1.499 . S
C5693 H5667 0.950 . S
C5693 C5692 1.414 . S
C5693 C5694 1.374 . S
C5694 H5668 0.950 . S
C5694 C5690 1.385 . S
C5694 C5693 1.374 . S
C5695 C5692 1.499 . S
C5695 C5696 1.373 . S
C5695 C5697 1.389 . S
C5696 H5669 0.950 . S
C5696 C5682 1.377 . S
C5696 C5695 1.373 . S
C5697 C5681 1.377 . S
C5697 C5695 1.389 . S
C5697 C5698 1.524 . S
C5698 C5697 1.524 . S
C5698 C5699 1.397 . S
C5698 C5703 1.363 . S
C5699 H5670 0.950 . S
C5699 C5698 1.397 . S
C5699 C5700 1.334 . S
C5700 H5671 0.950 . S
C5700 C5699 1.334 . S
C5700 C5701 1.287 . S
C5701 C5700 1.287 . S
C5701 C5702 1.524 . S
C5701 H5704 0.999 . S
C5702 H5672 0.950 . S
C5702 C5701 1.524 . S
C5702 C5703 1.415 . S
C5703 H5673 0.950 . S
C5703 C5698 1.363 . S
C5703 C5702 1.415 . S
H5704 C5701 0.999 . S
H5705 C5686 0.913 . S
H5706 C5724 0.951 . S
H5707 C5726 0.951 . S
H5708 C5728 0.950 . S
H5709 C5729 0.950 . S
H5710 C5731 0.950 . S
H5711 C5734 0.950 . S
H5712 C5735 0.950 . S
H5713 C5737 0.950 . S
H5714 C5738 0.950 . S
H5715 C5739 0.951 . S
H5716 C5741 0.951 . S
H5717 C5743 0.950 . S
H5718 C5744 0.950 . S
H5719 C5746 0.950 . S
H5720 C5749 0.950 . S
H5721 C5750 0.950 . S
H5722 C5752 0.950 . S
H5723 C5753 0.950 . S
C5724 H5706 0.951 . S
C5724 C5725 1.366 . S
C5724 C5726 1.388 . S
C5725 C5724 1.366 . S
C5725 C5729 1.385 . S
C5726 H5707 0.951 . S
C5726 C5724 1.388 . S
C5726 C5727 1.366 . S
C5727 C5726 1.366 . S
C5727 C5728 1.414 . S
C5727 C5730 1.499 . S
C5728 H5708 0.950 . S
C5728 C5727 1.414 . S
C5728 C5729 1.374 . S
C5729 H5709 0.950 . S
C5729 C5725 1.385 . S
C5729 C5728 1.374 . S
C5730 C5727 1.499 . S
C5730 C5731 1.373 . S
C5730 C5732 1.389 . S
C5731 H5710 0.950 . S
C5731 C5730 1.373 . S
C5731 C5747 1.377 . S
C5732 C5730 1.389 . S
C5732 C5733 1.524 . S
C5732 C5746 1.377 . S
C5733 C5732 1.524 . S
C5733 C5734 1.397 . S
C5733 C5738 1.363 . S
C5734 H5711 0.950 . S
C5734 C5733 1.397 . S
C5734 C5735 1.334 . S
C5735 H5712 0.950 . S
C5735 C5734 1.334 . S
C5735 C5736 1.287 . S
C5736 C5735 1.287 . S
C5736 C5737 1.524 . S
C5736 H5755 0.913 . S
C5737 H5713 0.950 . S
C5737 C5736 1.524 . S
C5737 C5738 1.415 . S
C5738 H5714 0.950 . S
C5738 C5733 1.363 . S
C5738 C5737 1.415 . S
C5739 H5715 0.951 . S
C5739 C5740 1.366 . S
C5739 C5741 1.388 . S
C5740 C5739 1.366 . S
C5740 C5744 1.385 . S
C5741 H5716 0.951 . S
C5741 C5739 1.388 . S
C5741 C5742 1.366 . S
C5742 C5741 1.366 . S
C5742 C5743 1.414 . S
C5742 C5745 1.499 . S
C5743 H5717 0.950 . S
C5743 C5742 1.414 . S
C5743 C5744 1.374 . S
C5744 H5718 0.950 . S
C5744 C5740 1.385 . S
C5744 C5743 1.374 . S
C5745 C5742 1.499 . S
C5745 C5746 1.373 . S
C5745 C5747 1.389 . S
C5746 H5719 0.950 . S
C5746 C5732 1.377 . S
C5746 C5745 1.373 . S
C5747 C5731 1.377 . S
C5747 C5745 1.389 . S
C5747 C5748 1.524 . S
C5748 C5747 1.524 . S
C5748 C5749 1.397 . S
C5748 C5753 1.363 . S
C5749 H5720 0.950 . S
C5749 C5748 1.397 . S
C5749 C5750 1.334 . S
C5750 H5721 0.950 . S
C5750 C5749 1.334 . S
C5750 C5751 1.287 . S
C5751 C5750 1.287 . S
C5751 C5752 1.524 . S
C5751 H5754 0.999 . S
C5752 H5722 0.950 . S
C5752 C5751 1.524 . S
C5752 C5753 1.415 . S
C5753 H5723 0.950 . S
C5753 C5748 1.363 . S
C5753 C5752 1.415 . S
H5754 C5751 0.999 . S
H5755 C5736 0.913 . S
H5756 C5774 0.951 . S
H5757 C5776 0.951 . S
H5758 C5778 0.950 . S
H5759 C5779 0.950 . S
H5760 C5781 0.950 . S
H5761 C5784 0.950 . S
H5762 C5785 0.950 . S
H5763 C5787 0.950 . S
H5764 C5788 0.950 . S
H5765 C5789 0.951 . S
H5766 C5791 0.951 1_655 S
H5767 C5793 0.950 . S
H5768 C5794 0.950 . S
H5769 C5796 0.921 1_455 S
H5770 C5799 0.950 . S
H5771 C5800 0.950 . S
H5772 C5802 0.950 . S
H5773 C5803 0.950 . S
C5774 H5756 0.951 . S
C5774 C5775 1.366 . S
C5774 C5776 1.388 . S
C5775 C5774 1.366 . S
C5775 C5779 1.385 . S
C5776 H5757 0.951 . S
C5776 C5774 1.388 . S
C5776 C5777 1.366 . S
C5777 C5776 1.366 . S
C5777 C5778 1.414 . S
C5777 C5780 1.499 . S
C5778 H5758 0.950 . S
C5778 C5777 1.414 . S
C5778 C5779 1.374 . S
C5779 H5759 0.950 . S
C5779 C5775 1.385 . S
C5779 C5778 1.374 . S
C5780 C5777 1.499 . S
C5780 C5781 1.373 . S
C5780 C5782 1.389 . S
C5781 H5760 0.950 . S
C5781 C5780 1.373 . S
C5781 C5797 1.377 . S
C5782 C5780 1.389 . S
C5782 C5783 1.524 . S
C5782 C5796 1.393 . S
C5783 C5782 1.524 . S
C5783 C5784 1.397 . S
C5783 C5788 1.363 1_655 S
C5784 H5761 0.950 . S
C5784 C5783 1.397 . S
C5784 C5785 1.334 . S
C5785 H5762 0.950 . S
C5785 C5784 1.334 . S
C5785 C5786 1.287 1_655 S
C5786 C5785 1.287 1_455 S
C5786 C5787 1.524 . S
C5786 H5805 0.913 . S
C5787 H5763 0.950 . S
C5787 C5786 1.524 . S
C5787 C5788 1.415 . S
C5788 H5764 0.950 . S
C5788 C5783 1.363 1_455 S
C5788 C5787 1.415 . S
C5789 H5765 0.951 . S
C5789 C5790 1.366 . S
C5789 C5791 1.387 . S
C5790 C5789 1.366 . S
C5790 C5794 1.385 . S
C5791 H5766 0.951 1_455 S
C5791 C5789 1.387 . S
C5791 C5792 1.365 . S
C5792 C5791 1.365 . S
C5792 C5793 1.414 . S
C5792 C5795 1.499 1_455 S
C5793 H5767 0.950 . S
C5793 C5792 1.414 . S
C5793 C5794 1.374 . S
C5794 H5768 0.950 . S
C5794 C5790 1.385 . S
C5794 C5793 1.374 . S
C5795 C5792 1.499 1_655 S
C5795 C5796 1.386 . S
C5795 C5797 1.389 . S
C5796 H5769 0.921 1_655 S
C5796 C5782 1.393 . S
C5796 C5795 1.386 . S
C5797 C5781 1.377 . S
C5797 C5795 1.389 . S
C5797 C5798 1.524 . S
C5798 C5797 1.524 . S
C5798 C5799 1.397 . S
C5798 C5803 1.363 . S
C5799 H5770 0.950 . S
C5799 C5798 1.397 . S
C5799 C5800 1.334 . S
C5800 H5771 0.950 . S
C5800 C5799 1.334 . S
C5800 C5801 1.287 . S
C5801 C5800 1.287 . S
C5801 C5802 1.524 . S
C5801 H5804 0.999 . S
C5802 H5772 0.950 . S
C5802 C5801 1.524 . S
C5802 C5803 1.415 . S
C5803 H5773 0.950 . S
C5803 C5798 1.363 . S
C5803 C5802 1.415 . S
H5804 C5801 0.999 . S
H5805 C5786 0.913 . S
H5806 C5824 0.951 . S
H5807 C5826 0.951 . S
H5808 C5828 0.950 . S
H5809 C5829 0.950 . S
H5810 C5831 0.950 . S
H5811 C5834 0.950 . S
H5812 C5835 0.950 . S
H5813 C5837 0.950 . S
H5814 C5838 0.950 . S
H5815 C5839 0.951 . S
H5816 C5841 0.951 . S
H5817 C5843 0.950 . S
H5818 C5844 0.950 . S
H5819 C5846 0.950 . S
H5820 C5849 0.950 . S
H5821 C5850 0.950 . S
H5822 C5852 0.950 . S
H5823 C5853 0.950 . S
C5824 H5806 0.951 . S
C5824 C5825 1.366 . S
C5824 C5826 1.388 . S
C5825 C5824 1.366 . S
C5825 C5829 1.385 . S
C5826 H5807 0.951 . S
C5826 C5824 1.388 . S
C5826 C5827 1.366 . S
C5827 C5826 1.366 . S
C5827 C5828 1.414 . S
C5827 C5830 1.499 . S
C5828 H5808 0.950 . S
C5828 C5827 1.414 . S
C5828 C5829 1.374 . S
C5829 H5809 0.950 . S
C5829 C5825 1.385 . S
C5829 C5828 1.374 . S
C5830 C5827 1.499 . S
C5830 C5831 1.373 . S
C5830 C5832 1.389 . S
C5831 H5810 0.950 . S
C5831 C5830 1.373 . S
C5831 C5847 1.377 . S
C5832 C5830 1.389 . S
C5832 C5833 1.524 . S
C5832 C5846 1.377 . S
C5833 C5832 1.524 . S
C5833 C5834 1.397 . S
C5833 C5838 1.363 . S
C5834 H5811 0.950 . S
C5834 C5833 1.397 . S
C5834 C5835 1.334 . S
C5835 H5812 0.950 . S
C5835 C5834 1.334 . S
C5835 C5836 1.287 . S
C5836 C5835 1.287 . S
C5836 C5837 1.524 . S
C5836 H5855 0.913 . S
C5837 H5813 0.950 . S
C5837 C5836 1.524 . S
C5837 C5838 1.415 . S
C5838 H5814 0.950 . S
C5838 C5833 1.363 . S
C5838 C5837 1.415 . S
C5839 H5815 0.951 . S
C5839 C5840 1.366 . S
C5839 C5841 1.388 . S
C5840 C5839 1.366 . S
C5840 C5844 1.385 . S
C5841 H5816 0.951 . S
C5841 C5839 1.388 . S
C5841 C5842 1.366 . S
C5842 C5841 1.366 . S
C5842 C5843 1.414 . S
C5842 C5845 1.499 . S
C5843 H5817 0.950 . S
C5843 C5842 1.414 . S
C5843 C5844 1.374 . S
C5844 H5818 0.950 . S
C5844 C5840 1.385 . S
C5844 C5843 1.374 . S
C5845 C5842 1.499 . S
C5845 C5846 1.373 . S
C5845 C5847 1.389 . S
C5846 H5819 0.950 . S
C5846 C5832 1.377 . S
C5846 C5845 1.373 . S
C5847 C5831 1.377 . S
C5847 C5845 1.389 . S
C5847 C5848 1.524 . S
C5848 C5847 1.524 . S
C5848 C5849 1.397 . S
C5848 C5853 1.363 . S
C5849 H5820 0.950 . S
C5849 C5848 1.397 . S
C5849 C5850 1.334 . S
C5850 H5821 0.950 . S
C5850 C5849 1.334 . S
C5850 C5851 1.287 . S
C5851 C5850 1.287 . S
C5851 C5852 1.524 . S
C5851 H5854 0.999 . S
C5852 H5822 0.950 . S
C5852 C5851 1.524 . S
C5852 C5853 1.415 . S
C5853 H5823 0.950 . S
C5853 C5848 1.363 . S
C5853 C5852 1.415 . S
H5854 C5851 0.999 . S
H5855 C5836 0.913 . S
H5856 C5874 0.951 . S
H5857 C5876 0.951 . S
H5858 C5878 0.950 . S
H5859 C5879 0.950 . S
H5860 C5881 0.950 . S
H5861 C5884 0.950 . S
H5862 C5885 0.950 . S
H5863 C5887 0.950 . S
H5864 C5888 0.950 . S
H5865 C5889 0.951 . S
H5866 C5891 0.951 . S
H5867 C5893 0.950 . S
H5868 C5894 0.950 . S
H5869 C5896 0.950 . S
H5870 C5899 0.950 . S
H5871 C5900 0.950 . S
H5872 C5902 0.950 . S
H5873 C5903 0.950 . S
C5874 H5856 0.951 . S
C5874 C5875 1.366 . S
C5874 C5876 1.388 . S
C5875 C5874 1.366 . S
C5875 C5879 1.385 . S
C5876 H5857 0.951 . S
C5876 C5874 1.388 . S
C5876 C5877 1.366 . S
C5877 C5876 1.366 . S
C5877 C5878 1.414 . S
C5877 C5880 1.499 . S
C5878 H5858 0.950 . S
C5878 C5877 1.414 . S
C5878 C5879 1.374 . S
C5879 H5859 0.950 . S
C5879 C5875 1.385 . S
C5879 C5878 1.374 . S
C5880 C5877 1.499 . S
C5880 C5881 1.373 . S
C5880 C5882 1.389 . S
C5881 H5860 0.950 . S
C5881 C5880 1.373 . S
C5881 C5897 1.377 . S
C5882 C5880 1.389 . S
C5882 C5883 1.524 . S
C5882 C5896 1.377 . S
C5883 C5882 1.524 . S
C5883 C5884 1.397 . S
C5883 C5888 1.363 . S
C5884 H5861 0.950 . S
C5884 C5883 1.397 . S
C5884 C5885 1.334 . S
C5885 H5862 0.950 . S
C5885 C5884 1.334 . S
C5885 C5886 1.287 . S
C5886 C5885 1.287 . S
C5886 C5887 1.524 . S
C5886 H5905 0.913 . S
C5887 H5863 0.950 . S
C5887 C5886 1.524 . S
C5887 C5888 1.415 . S
C5888 H5864 0.950 . S
C5888 C5883 1.363 . S
C5888 C5887 1.415 . S
C5889 H5865 0.951 . S
C5889 C5890 1.366 . S
C5889 C5891 1.388 . S
C5890 C5889 1.366 . S
C5890 C5894 1.385 . S
C5891 H5866 0.951 . S
C5891 C5889 1.388 . S
C5891 C5892 1.366 . S
C5892 C5891 1.366 . S
C5892 C5893 1.414 . S
C5892 C5895 1.499 . S
C5893 H5867 0.950 . S
C5893 C5892 1.414 . S
C5893 C5894 1.374 . S
C5894 H5868 0.950 . S
C5894 C5890 1.385 . S
C5894 C5893 1.374 . S
C5895 C5892 1.499 . S
C5895 C5896 1.373 . S
C5895 C5897 1.389 . S
C5896 H5869 0.950 . S
C5896 C5882 1.377 . S
C5896 C5895 1.373 . S
C5897 C5881 1.377 . S
C5897 C5895 1.389 . S
C5897 C5898 1.524 . S
C5898 C5897 1.524 . S
C5898 C5899 1.397 . S
C5898 C5903 1.363 . S
C5899 H5870 0.950 . S
C5899 C5898 1.397 . S
C5899 C5900 1.334 . S
C5900 H5871 0.950 . S
C5900 C5899 1.334 . S
C5900 C5901 1.287 . S
C5901 C5900 1.287 . S
C5901 C5902 1.524 . S
C5901 H5904 0.999 . S
C5902 H5872 0.950 . S
C5902 C5901 1.524 . S
C5902 C5903 1.415 . S
C5903 H5873 0.950 . S
C5903 C5898 1.363 . S
C5903 C5902 1.415 . S
H5904 C5901 0.999 . S
H5905 C5886 0.913 . S
H5906 C5924 0.951 . S
H5907 C5926 0.951 . S
H5908 C5928 0.950 . S
H5909 C5929 0.950 . S
H5910 C5931 0.950 . S
H5911 C5934 0.950 . S
H5912 C5935 0.950 . S
H5913 C5937 0.950 . S
H5914 C5938 0.950 . S
H5915 C5939 0.951 . S
H5916 C5941 0.951 . S
H5917 C5943 0.950 . S
H5918 C5944 0.950 . S
H5919 C5946 0.950 . S
H5920 C5949 0.950 . S
H5921 C5950 0.950 . S
H5922 C5952 0.950 . S
H5923 C5953 0.950 . S
C5924 H5906 0.951 . S
C5924 C5925 1.366 . S
C5924 C5926 1.388 . S
C5925 C5924 1.366 . S
C5925 C5929 1.385 . S
C5926 H5907 0.951 . S
C5926 C5924 1.388 . S
C5926 C5927 1.366 . S
C5927 C5926 1.366 . S
C5927 C5928 1.414 . S
C5927 C5930 1.499 . S
C5928 H5908 0.950 . S
C5928 C5927 1.414 . S
C5928 C5929 1.374 . S
C5929 H5909 0.950 . S
C5929 C5925 1.385 . S
C5929 C5928 1.374 . S
C5930 C5927 1.499 . S
C5930 C5931 1.373 . S
C5930 C5932 1.389 . S
C5931 H5910 0.950 . S
C5931 C5930 1.373 . S
C5931 C5947 1.377 . S
C5932 C5930 1.389 . S
C5932 C5933 1.524 . S
C5932 C5946 1.377 . S
C5933 C5932 1.524 . S
C5933 C5934 1.397 . S
C5933 C5938 1.363 . S
C5934 H5911 0.950 . S
C5934 C5933 1.397 . S
C5934 C5935 1.334 . S
C5935 H5912 0.950 . S
C5935 C5934 1.334 . S
C5935 C5936 1.287 . S
C5936 C5935 1.287 . S
C5936 C5937 1.524 . S
C5936 H5955 0.913 . S
C5937 H5913 0.950 . S
C5937 C5936 1.524 . S
C5937 C5938 1.415 . S
C5938 H5914 0.950 . S
C5938 C5933 1.363 . S
C5938 C5937 1.415 . S
C5939 H5915 0.951 . S
C5939 C5940 1.366 . S
C5939 C5941 1.388 . S
C5940 C5939 1.366 . S
C5940 C5944 1.385 . S
C5941 H5916 0.951 . S
C5941 C5939 1.388 . S
C5941 C5942 1.366 . S
C5942 C5941 1.366 . S
C5942 C5943 1.414 . S
C5942 C5945 1.499 . S
C5943 H5917 0.950 . S
C5943 C5942 1.414 . S
C5943 C5944 1.374 . S
C5944 H5918 0.950 . S
C5944 C5940 1.385 . S
C5944 C5943 1.374 . S
C5945 C5942 1.499 . S
C5945 C5946 1.373 . S
C5945 C5947 1.389 . S
C5946 H5919 0.950 . S
C5946 C5932 1.377 . S
C5946 C5945 1.373 . S
C5947 C5931 1.377 . S
C5947 C5945 1.389 . S
C5947 C5948 1.524 . S
C5948 C5947 1.524 . S
C5948 C5949 1.397 . S
C5948 C5953 1.363 . S
C5949 H5920 0.950 . S
C5949 C5948 1.397 . S
C5949 C5950 1.334 . S
C5950 H5921 0.950 . S
C5950 C5949 1.334 . S
C5950 C5951 1.287 . S
C5951 C5950 1.287 . S
C5951 C5952 1.524 . S
C5951 H5954 0.999 . S
C5952 H5922 0.950 . S
C5952 C5951 1.524 . S
C5952 C5953 1.415 . S
C5953 H5923 0.950 . S
C5953 C5948 1.363 . S
C5953 C5952 1.415 . S
H5954 C5951 0.999 . S
H5955 C5936 0.913 . S
H5956 C5974 0.951 . S
H5957 C5976 0.951 . S
H5958 C5978 0.950 . S
H5959 C5979 0.950 . S
H5960 C5981 0.950 . S
H5961 C5984 0.950 . S
H5962 C5985 0.950 . S
H5963 C5987 0.950 . S
H5964 C5988 0.950 . S
H5965 C5989 0.951 . S
H5966 C5991 0.951 . S
H5967 C5993 0.950 . S
H5968 C5994 0.950 . S
H5969 C5996 0.950 . S
H5970 C5999 0.950 . S
H5971 C6000 0.950 . S
H5972 C6002 0.950 . S
H5973 C6003 0.950 . S
C5974 H5956 0.951 . S
C5974 C5975 1.366 . S
C5974 C5976 1.388 . S
C5975 C5974 1.366 . S
C5975 C5979 1.385 . S
C5976 H5957 0.951 . S
C5976 C5974 1.388 . S
C5976 C5977 1.366 . S
C5977 C5976 1.366 . S
C5977 C5978 1.414 . S
C5977 C5980 1.499 . S
C5978 H5958 0.950 . S
C5978 C5977 1.414 . S
C5978 C5979 1.374 . S
C5979 H5959 0.950 . S
C5979 C5975 1.385 . S
C5979 C5978 1.374 . S
C5980 C5977 1.499 . S
C5980 C5981 1.373 . S
C5980 C5982 1.389 . S
C5981 H5960 0.950 . S
C5981 C5980 1.373 . S
C5981 C5997 1.377 . S
C5982 C5980 1.389 . S
C5982 C5983 1.524 . S
C5982 C5996 1.377 . S
C5983 C5982 1.524 . S
C5983 C5984 1.397 . S
C5983 C5988 1.363 1_655 S
C5984 H5961 0.950 . S
C5984 C5983 1.397 . S
C5984 C5985 1.334 . S
C5985 H5962 0.950 . S
C5985 C5984 1.334 . S
C5985 C5986 1.287 1_655 S
C5986 C5985 1.287 1_455 S
C5986 C5987 1.524 . S
C5986 H6005 0.913 . S
C5987 H5963 0.950 . S
C5987 C5986 1.524 . S
C5987 C5988 1.415 . S
C5988 H5964 0.950 . S
C5988 C5983 1.363 1_455 S
C5988 C5987 1.415 . S
C5989 H5965 0.951 . S
C5989 C5990 1.366 1_655 S
C5989 C5991 1.388 . S
C5990 C5989 1.366 1_455 S
C5990 C5994 1.385 . S
C5991 H5966 0.951 . S
C5991 C5989 1.388 . S
C5991 C5992 1.366 . S
C5992 C5991 1.366 . S
C5992 C5993 1.414 1_655 S
C5992 C5995 1.499 . S
C5993 H5967 0.950 . S
C5993 C5992 1.414 1_455 S
C5993 C5994 1.374 . S
C5994 H5968 0.950 . S
C5994 C5990 1.385 . S
C5994 C5993 1.374 . S
C5995 C5992 1.499 . S
C5995 C5996 1.373 . S
C5995 C5997 1.389 . S
C5996 H5969 0.950 . S
C5996 C5982 1.377 . S
C5996 C5995 1.373 . S
C5997 C5981 1.377 . S
C5997 C5995 1.389 . S
C5997 C5998 1.524 . S
C5998 C5997 1.524 . S
C5998 C5999 1.397 . S
C5998 C6003 1.363 . S
C5999 H5970 0.950 . S
C5999 C5998 1.397 . S
C5999 C6000 1.334 . S
C6000 H5971 0.950 . S
C6000 C5999 1.334 . S
C6000 C6001 1.287 . S
C6001 C6000 1.287 . S
C6001 C6002 1.524 . S
C6001 H6004 0.999 . S
C6002 H5972 0.950 . S
C6002 C6001 1.524 . S
C6002 C6003 1.415 . S
C6003 H5973 0.950 . S
C6003 C5998 1.363 . S
C6003 C6002 1.415 . S
H6004 C6001 0.999 . S
H6005 C5986 0.913 . S
H6006 C6024 0.951 . S
H6007 C6026 0.951 . S
H6008 C6028 0.950 . S
H6009 C6029 0.950 . S
H6010 C6031 0.950 . S
H6011 C6034 0.950 . S
H6012 C6035 0.950 . S
H6013 C6037 0.950 . S
H6014 C6038 0.950 . S
H6015 C6039 0.951 . S
H6016 C6041 0.951 . S
H6017 C6043 0.950 . S
H6018 C6044 0.950 . S
H6019 C6046 0.950 . S
H6020 C6049 0.950 . S
H6021 C6050 0.950 . S
H6022 C6052 0.950 . S
H6023 C6053 0.950 . S
C6024 H6006 0.951 . S
C6024 C6025 1.366 . S
C6024 C6026 1.388 . S
C6025 C6024 1.366 . S
C6025 C6029 1.385 . S
C6026 H6007 0.951 . S
C6026 C6024 1.388 . S
C6026 C6027 1.366 . S
C6027 C6026 1.366 . S
C6027 C6028 1.414 . S
C6027 C6030 1.499 . S
C6028 H6008 0.950 . S
C6028 C6027 1.414 . S
C6028 C6029 1.374 . S
C6029 H6009 0.950 . S
C6029 C6025 1.385 . S
C6029 C6028 1.374 . S
C6030 C6027 1.499 . S
C6030 C6031 1.373 . S
C6030 C6032 1.389 . S
C6031 H6010 0.950 . S
C6031 C6030 1.373 . S
C6031 C6047 1.377 . S
C6032 C6030 1.389 . S
C6032 C6033 1.524 . S
C6032 C6046 1.377 . S
C6033 C6032 1.524 . S
C6033 C6034 1.397 . S
C6033 C6038 1.363 . S
C6034 H6011 0.950 . S
C6034 C6033 1.397 . S
C6034 C6035 1.334 . S
C6035 H6012 0.950 . S
C6035 C6034 1.334 . S
C6035 C6036 1.287 . S
C6036 C6035 1.287 . S
C6036 C6037 1.524 . S
C6036 H6055 0.913 . S
C6037 H6013 0.950 . S
C6037 C6036 1.524 . S
C6037 C6038 1.415 . S
C6038 H6014 0.950 . S
C6038 C6033 1.363 . S
C6038 C6037 1.415 . S
C6039 H6015 0.951 . S
C6039 C6040 1.366 . S
C6039 C6041 1.388 . S
C6040 C6039 1.366 . S
C6040 C6044 1.385 . S
C6041 H6016 0.951 . S
C6041 C6039 1.388 . S
C6041 C6042 1.366 . S
C6042 C6041 1.366 . S
C6042 C6043 1.414 . S
C6042 C6045 1.499 . S
C6043 H6017 0.950 . S
C6043 C6042 1.414 . S
C6043 C6044 1.374 . S
C6044 H6018 0.950 . S
C6044 C6040 1.385 . S
C6044 C6043 1.374 . S
C6045 C6042 1.499 . S
C6045 C6046 1.373 . S
C6045 C6047 1.389 . S
C6046 H6019 0.950 . S
C6046 C6032 1.377 . S
C6046 C6045 1.373 . S
C6047 C6031 1.377 . S
C6047 C6045 1.389 . S
C6047 C6048 1.524 . S
C6048 C6047 1.524 . S
C6048 C6049 1.397 . S
C6048 C6053 1.363 . S
C6049 H6020 0.950 . S
C6049 C6048 1.397 . S
C6049 C6050 1.334 . S
C6050 H6021 0.950 . S
C6050 C6049 1.334 . S
C6050 C6051 1.287 . S
C6051 C6050 1.287 . S
C6051 C6052 1.524 . S
C6051 H6054 0.999 . S
C6052 H6022 0.950 . S
C6052 C6051 1.524 . S
C6052 C6053 1.415 . S
C6053 H6023 0.950 . S
C6053 C6048 1.363 . S
C6053 C6052 1.415 . S
H6054 C6051 0.999 . S
H6055 C6036 0.913 . S
H6056 C6074 0.951 . S
H6057 C6076 0.951 . S
H6058 C6078 0.950 . S
H6059 C6079 0.950 . S
H6060 C6081 0.950 . S
H6061 C6084 0.950 . S
H6062 C6085 0.950 . S
H6063 C6087 0.950 . S
H6064 C6088 0.950 . S
H6065 C6089 0.951 . S
H6066 C6091 0.951 . S
H6067 C6093 0.950 . S
H6068 C6094 0.950 . S
H6069 C6096 0.950 . S
H6070 C6099 0.950 . S
H6071 C6100 0.950 . S
H6072 C6102 0.950 . S
H6073 C6103 0.950 . S
C6074 H6056 0.951 . S
C6074 C6075 1.366 . S
C6074 C6076 1.388 . S
C6075 C6074 1.366 . S
C6075 C6079 1.385 . S
C6076 H6057 0.951 . S
C6076 C6074 1.388 . S
C6076 C6077 1.366 . S
C6077 C6076 1.366 . S
C6077 C6078 1.414 . S
C6077 C6080 1.499 . S
C6078 H6058 0.950 . S
C6078 C6077 1.414 . S
C6078 C6079 1.374 . S
C6079 H6059 0.950 . S
C6079 C6075 1.385 . S
C6079 C6078 1.374 . S
C6080 C6077 1.499 . S
C6080 C6081 1.373 . S
C6080 C6082 1.389 . S
C6081 H6060 0.950 . S
C6081 C6080 1.373 . S
C6081 C6097 1.377 . S
C6082 C6080 1.389 . S
C6082 C6083 1.524 . S
C6082 C6096 1.377 . S
C6083 C6082 1.524 . S
C6083 C6084 1.397 . S
C6083 C6088 1.363 . S
C6084 H6061 0.950 . S
C6084 C6083 1.397 . S
C6084 C6085 1.334 . S
C6085 H6062 0.950 . S
C6085 C6084 1.334 . S
C6085 C6086 1.287 . S
C6086 C6085 1.287 . S
C6086 C6087 1.524 . S
C6086 H6105 0.913 . S
C6087 H6063 0.950 . S
C6087 C6086 1.524 . S
C6087 C6088 1.415 . S
C6088 H6064 0.950 . S
C6088 C6083 1.363 . S
C6088 C6087 1.415 . S
C6089 H6065 0.951 . S
C6089 C6090 1.366 . S
C6089 C6091 1.388 . S
C6090 C6089 1.366 . S
C6090 C6094 1.385 . S
C6091 H6066 0.951 . S
C6091 C6089 1.388 . S
C6091 C6092 1.366 . S
C6092 C6091 1.366 . S
C6092 C6093 1.414 . S
C6092 C6095 1.499 . S
C6093 H6067 0.950 . S
C6093 C6092 1.414 . S
C6093 C6094 1.374 . S
C6094 H6068 0.950 . S
C6094 C6090 1.385 . S
C6094 C6093 1.374 . S
C6095 C6092 1.499 . S
C6095 C6096 1.373 . S
C6095 C6097 1.389 . S
C6096 H6069 0.950 . S
C6096 C6082 1.377 . S
C6096 C6095 1.373 . S
C6097 C6081 1.377 . S
C6097 C6095 1.389 . S
C6097 C6098 1.524 . S
C6098 C6097 1.524 . S
C6098 C6099 1.397 . S
C6098 C6103 1.363 . S
C6099 H6070 0.950 . S
C6099 C6098 1.397 . S
C6099 C6100 1.334 . S
C6100 H6071 0.950 . S
C6100 C6099 1.334 . S
C6100 C6101 1.287 . S
C6101 C6100 1.287 . S
C6101 C6102 1.524 . S
C6101 H6104 0.999 . S
C6102 H6072 0.950 . S
C6102 C6101 1.524 . S
C6102 C6103 1.415 . S
C6103 H6073 0.950 . S
C6103 C6098 1.363 . S
C6103 C6102 1.415 . S
H6104 C6101 0.999 . S
H6105 C6086 0.913 . S
H6106 C6124 0.951 . S
H6107 C6126 0.951 . S
H6108 C6128 0.950 . S
H6109 C6129 0.950 . S
H6110 C6131 0.950 . S
H6111 C6134 0.950 . S
H6112 C6135 0.950 . S
H6113 C6137 0.950 . S
H6114 C6138 0.950 . S
H6115 C6139 0.951 . S
H6116 C6141 0.951 . S
H6117 C6143 0.950 . S
H6118 C6144 0.950 . S
H6119 C6146 0.950 . S
H6120 C6149 0.950 . S
H6121 C6150 0.950 . S
H6122 C6152 0.950 . S
H6123 C6153 0.950 . S
C6124 H6106 0.951 . S
C6124 C6125 1.366 . S
C6124 C6126 1.388 . S
C6125 C6124 1.366 . S
C6125 C6129 1.385 . S
C6126 H6107 0.951 . S
C6126 C6124 1.388 . S
C6126 C6127 1.366 . S
C6127 C6126 1.366 . S
C6127 C6128 1.414 . S
C6127 C6130 1.499 . S
C6128 H6108 0.950 . S
C6128 C6127 1.414 . S
C6128 C6129 1.374 . S
C6129 H6109 0.950 . S
C6129 C6125 1.385 . S
C6129 C6128 1.374 . S
C6130 C6127 1.499 . S
C6130 C6131 1.373 . S
C6130 C6132 1.389 . S
C6131 H6110 0.950 . S
C6131 C6130 1.373 . S
C6131 C6147 1.377 . S
C6132 C6130 1.389 . S
C6132 C6133 1.524 . S
C6132 C6146 1.377 . S
C6133 C6132 1.524 . S
C6133 C6134 1.397 . S
C6133 C6138 1.363 . S
C6134 H6111 0.950 . S
C6134 C6133 1.397 . S
C6134 C6135 1.334 . S
C6135 H6112 0.950 . S
C6135 C6134 1.334 . S
C6135 C6136 1.287 . S
C6136 C6135 1.287 . S
C6136 C6137 1.524 . S
C6136 H6155 0.913 . S
C6137 H6113 0.950 . S
C6137 C6136 1.524 . S
C6137 C6138 1.415 . S
C6138 H6114 0.950 . S
C6138 C6133 1.363 . S
C6138 C6137 1.415 . S
C6139 H6115 0.951 . S
C6139 C6140 1.366 . S
C6139 C6141 1.388 1_545 S
C6140 C6139 1.366 . S
C6140 C6144 1.385 . S
C6141 H6116 0.951 . S
C6141 C6139 1.388 1_565 S
C6141 C6142 1.366 . S
C6142 C6141 1.366 . S
C6142 C6143 1.414 . S
C6142 C6145 1.499 . S
C6143 H6117 0.950 . S
C6143 C6142 1.414 . S
C6143 C6144 1.374 1_565 S
C6144 H6118 0.950 . S
C6144 C6140 1.385 . S
C6144 C6143 1.374 1_545 S
C6145 C6142 1.499 . S
C6145 C6146 1.373 . S
C6145 C6147 1.389 . S
C6146 H6119 0.950 . S
C6146 C6132 1.377 . S
C6146 C6145 1.373 . S
C6147 C6131 1.377 . S
C6147 C6145 1.389 . S
C6147 C6148 1.524 . S
C6148 C6147 1.524 . S
C6148 C6149 1.397 1_565 S
C6148 C6153 1.363 . S
C6149 H6120 0.950 . S
C6149 C6148 1.397 1_545 S
C6149 C6150 1.334 . S
C6150 H6121 0.950 . S
C6150 C6149 1.334 . S
C6150 C6151 1.287 . S
C6151 C6150 1.287 . S
C6151 C6152 1.524 . S
C6151 H6154 0.999 . S
C6152 H6122 0.950 . S
C6152 C6151 1.524 . S
C6152 C6153 1.415 1_545 S
C6153 H6123 0.950 . S
C6153 C6148 1.363 . S
C6153 C6152 1.415 1_565 S
H6154 C6151 0.999 . S
H6155 C6136 0.913 . S
H6156 C6174 0.951 . S
H6157 C6176 0.951 . S
H6158 C6178 0.950 . S
H6159 C6179 0.950 . S
H6160 C6181 0.950 . S
H6161 C6184 0.950 . S
H6162 C6185 0.950 . S
H6163 C6187 0.950 . S
H6164 C6188 0.950 . S
H6165 C6189 0.951 . S
H6166 C6191 0.951 . S
H6167 C6193 0.950 . S
H6168 C6194 0.950 . S
H6169 C6196 0.950 . S
H6170 C6199 0.950 . S
H6171 C6200 0.950 . S
H6172 C6202 0.950 . S
H6173 C6203 0.950 . S
C6174 H6156 0.951 . S
C6174 C6175 1.366 . S
C6174 C6176 1.388 . S
C6175 C6174 1.366 . S
C6175 C6179 1.385 . S
C6176 H6157 0.951 . S
C6176 C6174 1.388 . S
C6176 C6177 1.366 . S
C6177 C6176 1.366 . S
C6177 C6178 1.414 . S
C6177 C6180 1.499 . S
C6178 H6158 0.950 . S
C6178 C6177 1.414 . S
C6178 C6179 1.374 . S
C6179 H6159 0.950 . S
C6179 C6175 1.385 . S
C6179 C6178 1.374 . S
C6180 C6177 1.499 . S
C6180 C6181 1.373 . S
C6180 C6182 1.389 . S
C6181 H6160 0.950 . S
C6181 C6180 1.373 . S
C6181 C6197 1.377 . S
C6182 C6180 1.389 . S
C6182 C6183 1.524 . S
C6182 C6196 1.377 . S
C6183 C6182 1.524 . S
C6183 C6184 1.397 . S
C6183 C6188 1.363 . S
C6184 H6161 0.950 . S
C6184 C6183 1.397 . S
C6184 C6185 1.334 . S
C6185 H6162 0.950 . S
C6185 C6184 1.334 . S
C6185 C6186 1.287 . S
C6186 C6185 1.287 . S
C6186 C6187 1.524 . S
C6186 H6205 0.913 . S
C6187 H6163 0.950 . S
C6187 C6186 1.524 . S
C6187 C6188 1.415 . S
C6188 H6164 0.950 . S
C6188 C6183 1.363 . S
C6188 C6187 1.415 . S
C6189 H6165 0.951 . S
C6189 C6190 1.366 . S
C6189 C6191 1.388 . S
C6190 C6189 1.366 . S
C6190 C6194 1.385 . S
C6191 H6166 0.951 . S
C6191 C6189 1.388 . S
C6191 C6192 1.366 . S
C6192 C6191 1.366 . S
C6192 C6193 1.414 . S
C6192 C6195 1.499 . S
C6193 H6167 0.950 . S
C6193 C6192 1.414 . S
C6193 C6194 1.374 . S
C6194 H6168 0.950 . S
C6194 C6190 1.385 . S
C6194 C6193 1.374 . S
C6195 C6192 1.499 . S
C6195 C6196 1.373 . S
C6195 C6197 1.389 . S
C6196 H6169 0.950 . S
C6196 C6182 1.377 . S
C6196 C6195 1.373 . S
C6197 C6181 1.377 . S
C6197 C6195 1.389 . S
C6197 C6198 1.524 . S
C6198 C6197 1.524 . S
C6198 C6199 1.397 . S
C6198 C6203 1.363 . S
C6199 H6170 0.950 . S
C6199 C6198 1.397 . S
C6199 C6200 1.334 . S
C6200 H6171 0.950 . S
C6200 C6199 1.334 . S
C6200 C6201 1.287 . S
C6201 C6200 1.287 . S
C6201 C6202 1.524 . S
C6201 H6204 0.999 . S
C6202 H6172 0.950 . S
C6202 C6201 1.524 . S
C6202 C6203 1.415 . S
C6203 H6173 0.950 . S
C6203 C6198 1.363 . S
C6203 C6202 1.415 . S
H6204 C6201 0.999 . S
H6205 C6186 0.913 . S
H6206 C6224 0.951 . S
H6207 C6226 0.951 . S
H6208 C6228 0.950 . S
H6209 C6229 0.950 . S
H6210 C6231 0.950 . S
H6211 C6234 0.950 . S
H6212 C6235 0.950 . S
H6213 C6237 0.950 . S
H6214 C6238 0.950 . S
H6215 C6239 0.951 . S
H6216 C6241 0.951 . S
H6217 C6243 0.950 . S
H6218 C6244 0.950 . S
H6219 C6246 0.950 1_556 S
H6220 C6249 0.950 . S
H6221 C6250 0.950 . S
H6222 C6252 0.950 . S
H6223 C6253 0.950 . S
C6224 H6206 0.951 . S
C6224 C6225 1.366 . S
C6224 C6226 1.388 . S
C6225 C6224 1.366 . S
C6225 C6229 1.385 . S
C6226 H6207 0.951 . S
C6226 C6224 1.388 . S
C6226 C6227 1.366 . S
C6227 C6226 1.366 . S
C6227 C6228 1.414 . S
C6227 C6230 1.499 . S
C6228 H6208 0.950 . S
C6228 C6227 1.414 . S
C6228 C6229 1.374 . S
C6229 H6209 0.950 . S
C6229 C6225 1.385 . S
C6229 C6228 1.374 . S
C6230 C6227 1.499 . S
C6230 C6231 1.373 . S
C6230 C6232 1.389 . S
C6231 H6210 0.950 . S
C6231 C6230 1.373 . S
C6231 C6247 1.377 . S
C6232 C6230 1.389 . S
C6232 C6233 1.524 1_554 S
C6232 C6246 1.377 . S
C6233 C6232 1.524 1_556 S
C6233 C6234 1.397 . S
C6233 C6238 1.363 . S
C6234 H6211 0.950 . S
C6234 C6233 1.397 . S
C6234 C6235 1.334 . S
C6235 H6212 0.950 . S
C6235 C6234 1.334 . S
C6235 C6236 1.287 . S
C6236 C6235 1.287 . S
C6236 C6237 1.524 . S
C6236 H6255 0.913 . S
C6237 H6213 0.950 . S
C6237 C6236 1.524 . S
C6237 C6238 1.415 . S
C6238 H6214 0.950 . S
C6238 C6233 1.363 . S
C6238 C6237 1.415 . S
C6239 H6215 0.951 . S
C6239 C6240 1.366 . S
C6239 C6241 1.388 . S
C6240 C6239 1.366 . S
C6240 C6244 1.385 . S
C6241 H6216 0.951 . S
C6241 C6239 1.388 . S
C6241 C6242 1.366 . S
C6242 C6241 1.366 . S
C6242 C6243 1.414 . S
C6242 C6245 1.499 . S
C6243 H6217 0.950 . S
C6243 C6242 1.414 . S
C6243 C6244 1.374 . S
C6244 H6218 0.950 . S
C6244 C6240 1.385 . S
C6244 C6243 1.374 . S
C6245 C6242 1.499 . S
C6245 C6246 1.373 . S
C6245 C6247 1.389 . S
C6246 H6219 0.950 1_554 S
C6246 C6232 1.377 . S
C6246 C6245 1.373 . S
C6247 C6231 1.377 . S
C6247 C6245 1.389 . S
C6247 C6248 1.524 . S
C6248 C6247 1.524 . S
C6248 C6249 1.397 . S
C6248 C6253 1.363 . S
C6249 H6220 0.950 . S
C6249 C6248 1.397 . S
C6249 C6250 1.334 . S
C6250 H6221 0.950 . S
C6250 C6249 1.334 . S
C6250 C6251 1.287 . S
C6251 C6250 1.287 . S
C6251 C6252 1.524 . S
C6251 H6254 0.999 . S
C6252 H6222 0.950 . S
C6252 C6251 1.524 . S
C6252 C6253 1.415 . S
C6253 H6223 0.950 . S
C6253 C6248 1.363 . S
C6253 C6252 1.415 . S
H6254 C6251 0.999 . S
H6255 C6236 0.913 . S
H6256 C6274 0.951 . S
H6257 C6276 0.951 . S
H6258 C6278 0.950 . S
H6259 C6279 0.950 . S
H6260 C6281 0.950 . S
H6261 C6284 0.950 . S
H6262 C6285 0.950 . S
H6263 C6287 0.950 . S
H6264 C6288 0.950 . S
H6265 C6289 0.951 . S
H6266 C6291 0.951 . S
H6267 C6293 0.950 . S
H6268 C6294 0.950 . S
H6269 C6296 0.950 . S
H6270 C6299 0.950 . S
H6271 C6300 0.950 . S
H6272 C6302 0.950 . S
H6273 C6303 0.950 . S
C6274 H6256 0.951 . S
C6274 C6275 1.366 . S
C6274 C6276 1.388 . S
C6275 C6274 1.366 . S
C6275 C6279 1.385 . S
C6276 H6257 0.951 . S
C6276 C6274 1.388 . S
C6276 C6277 1.366 . S
C6277 C6276 1.366 . S
C6277 C6278 1.414 . S
C6277 C6280 1.499 . S
C6278 H6258 0.950 . S
C6278 C6277 1.414 . S
C6278 C6279 1.374 . S
C6279 H6259 0.950 . S
C6279 C6275 1.385 . S
C6279 C6278 1.374 . S
C6280 C6277 1.499 . S
C6280 C6281 1.373 . S
C6280 C6282 1.389 . S
C6281 H6260 0.950 . S
C6281 C6280 1.373 . S
C6281 C6297 1.377 . S
C6282 C6280 1.389 . S
C6282 C6283 1.524 . S
C6282 C6296 1.377 . S
C6283 C6282 1.524 . S
C6283 C6284 1.397 . S
C6283 C6288 1.363 . S
C6284 H6261 0.950 . S
C6284 C6283 1.397 . S
C6284 C6285 1.334 . S
C6285 H6262 0.950 . S
C6285 C6284 1.334 . S
C6285 C6286 1.287 . S
C6286 C6285 1.287 . S
C6286 C6287 1.524 . S
C6286 H6305 0.913 . S
C6287 H6263 0.950 . S
C6287 C6286 1.524 . S
C6287 C6288 1.415 . S
C6288 H6264 0.950 . S
C6288 C6283 1.363 . S
C6288 C6287 1.415 . S
C6289 H6265 0.951 . S
C6289 C6290 1.366 . S
C6289 C6291 1.388 . S
C6290 C6289 1.366 . S
C6290 C6294 1.385 . S
C6291 H6266 0.951 . S
C6291 C6289 1.388 . S
C6291 C6292 1.366 . S
C6292 C6291 1.366 . S
C6292 C6293 1.414 . S
C6292 C6295 1.499 . S
C6293 H6267 0.950 . S
C6293 C6292 1.414 . S
C6293 C6294 1.374 . S
C6294 H6268 0.950 . S
C6294 C6290 1.385 . S
C6294 C6293 1.374 . S
C6295 C6292 1.499 . S
C6295 C6296 1.373 . S
C6295 C6297 1.389 . S
C6296 H6269 0.950 . S
C6296 C6282 1.377 . S
C6296 C6295 1.373 . S
C6297 C6281 1.377 . S
C6297 C6295 1.389 . S
C6297 C6298 1.524 . S
C6298 C6297 1.524 . S
C6298 C6299 1.397 . S
C6298 C6303 1.363 . S
C6299 H6270 0.950 . S
C6299 C6298 1.397 . S
C6299 C6300 1.334 . S
C6300 H6271 0.950 . S
C6300 C6299 1.334 . S
C6300 C6301 1.287 . S
C6301 C6300 1.287 . S
C6301 C6302 1.524 . S
C6301 H6304 0.999 . S
C6302 H6272 0.950 . S
C6302 C6301 1.524 . S
C6302 C6303 1.415 . S
C6303 H6273 0.950 . S
C6303 C6298 1.363 . S
C6303 C6302 1.415 . S
H6304 C6301 0.999 . S
H6305 C6286 0.913 . S
H6306 C6324 0.951 . S
H6307 C6326 0.951 . S
H6308 C6328 0.950 . S
H6309 C6329 0.950 . S
H6310 C6331 0.950 . S
H6311 C6334 0.950 . S
H6312 C6335 0.950 . S
H6313 C6337 0.950 . S
H6314 C6338 0.950 . S
H6315 C6339 0.951 . S
H6316 C6341 0.951 . S
H6317 C6343 0.973 . S
H6318 C6344 0.950 . S
H6319 C6346 0.950 . S
H6320 C6349 0.950 . S
H6321 C6350 0.950 . S
H6322 C6352 0.950 . S
H6323 C6353 0.950 . S
C6324 H6306 0.951 . S
C6324 C6325 1.366 . S
C6324 C6326 1.388 . S
C6325 C6324 1.366 . S
C6325 C6329 1.385 . S
C6326 H6307 0.951 . S
C6326 C6324 1.388 . S
C6326 C6327 1.366 . S
C6327 C6326 1.366 . S
C6327 C6328 1.414 . S
C6327 C6330 1.499 . S
C6328 H6308 0.950 . S
C6328 C6327 1.414 . S
C6328 C6329 1.374 . S
C6329 H6309 0.950 . S
C6329 C6325 1.385 . S
C6329 C6328 1.374 . S
C6330 C6327 1.499 . S
C6330 C6331 1.373 . S
C6330 C6332 1.389 . S
C6331 H6310 0.950 . S
C6331 C6330 1.373 . S
C6331 C6347 1.377 . S
C6332 C6330 1.389 . S
C6332 C6333 1.524 . S
C6332 C6346 1.377 . S
C6333 C6332 1.524 . S
C6333 C6334 1.397 . S
C6333 C6338 1.363 . S
C6334 H6311 0.950 . S
C6334 C6333 1.397 . S
C6334 C6335 1.334 . S
C6335 H6312 0.950 . S
C6335 C6334 1.334 . S
C6335 C6336 1.287 . S
C6336 C6335 1.287 . S
C6336 C6337 1.524 . S
C6336 H6355 0.913 . S
C6337 H6313 0.950 . S
C6337 C6336 1.524 . S
C6337 C6338 1.415 . S
C6338 H6314 0.950 . S
C6338 C6333 1.363 . S
C6338 C6337 1.415 . S
C6339 H6315 0.951 . S
C6339 C6340 1.366 . S
C6339 C6341 1.388 . S
C6340 C6339 1.366 . S
C6340 C6344 1.385 1_554 S
C6341 H6316 0.951 . S
C6341 C6339 1.388 . S
C6341 C6342 1.366 . S
C6342 C6341 1.366 . S
C6342 C6343 1.384 1_554 S
C6342 C6345 1.499 . S
C6343 H6317 0.973 . S
C6343 C6342 1.384 1_556 S
C6343 C6344 1.383 . S
C6344 H6318 0.950 . S
C6344 C6340 1.385 1_556 S
C6344 C6343 1.383 . S
C6345 C6342 1.499 . S
C6345 C6346 1.373 . S
C6345 C6347 1.389 . S
C6346 H6319 0.950 . S
C6346 C6332 1.377 . S
C6346 C6345 1.373 . S
C6347 C6331 1.377 . S
C6347 C6345 1.389 . S
C6347 C6348 1.524 . S
C6348 C6347 1.524 . S
C6348 C6349 1.397 1_554 S
C6348 C6353 1.363 . S
C6349 H6320 0.950 . S
C6349 C6348 1.397 1_556 S
C6349 C6350 1.334 . S
C6350 H6321 0.950 . S
C6350 C6349 1.334 . S
C6350 C6351 1.287 . S
C6351 C6350 1.287 . S
C6351 C6352 1.524 1_556 S
C6351 H6354 0.999 . S
C6352 H6322 0.950 . S
C6352 C6351 1.524 1_554 S
C6352 C6353 1.415 . S
C6353 H6323 0.950 . S
C6353 C6348 1.363 . S
C6353 C6352 1.415 . S
H6354 C6351 0.999 . S
H6355 C6336 0.913 . S
H6356 C6374 0.951 . S
H6357 C6376 0.951 . S
H6358 C6378 0.950 . S
H6359 C6379 0.950 . S
H6360 C6381 0.950 . S
H6361 C6384 0.950 . S
H6362 C6385 0.950 . S
H6363 C6387 0.950 . S
H6364 C6388 0.950 . S
H6365 C6389 0.951 . S
H6366 C6391 0.951 . S
H6367 C6393 0.950 . S
H6368 C6394 0.950 . S
H6369 C6396 0.950 . S
H6370 C6399 0.950 . S
H6371 C6400 0.950 . S
H6372 C6402 0.950 . S
H6373 C6403 0.950 . S
C6374 H6356 0.951 . S
C6374 C6375 1.366 1_565 S
C6374 C6376 1.388 . S
C6375 C6374 1.366 1_545 S
C6375 C6379 1.385 . S
C6376 H6357 0.951 . S
C6376 C6374 1.388 . S
C6376 C6377 1.366 . S
C6377 C6376 1.366 . S
C6377 C6378 1.414 . S
C6377 C6380 1.499 . S
C6378 H6358 0.950 . S
C6378 C6377 1.414 . S
C6378 C6379 1.374 1_565 S
C6379 H6359 0.950 . S
C6379 C6375 1.385 . S
C6379 C6378 1.374 1_545 S
C6380 C6377 1.499 . S
C6380 C6381 1.373 . S
C6380 C6382 1.389 . S
C6381 H6360 0.950 . S
C6381 C6380 1.373 . S
C6381 C6397 1.377 . S
C6382 C6380 1.389 . S
C6382 C6383 1.524 . S
C6382 C6396 1.377 . S
C6383 C6382 1.524 . S
C6383 C6384 1.397 . S
C6383 C6388 1.363 . S
C6384 H6361 0.950 . S
C6384 C6383 1.397 . S
C6384 C6385 1.334 . S
C6385 H6362 0.950 . S
C6385 C6384 1.334 . S
C6385 C6386 1.287 . S
C6386 C6385 1.287 . S
C6386 C6387 1.524 . S
C6386 H6405 0.913 . S
C6387 H6363 0.950 . S
C6387 C6386 1.524 . S
C6387 C6388 1.415 . S
C6388 H6364 0.950 . S
C6388 C6383 1.363 . S
C6388 C6387 1.415 . S
C6389 H6365 0.951 . S
C6389 C6390 1.366 . S
C6389 C6391 1.388 . S
C6390 C6389 1.366 . S
C6390 C6394 1.385 . S
C6391 H6366 0.951 . S
C6391 C6389 1.388 . S
C6391 C6392 1.366 . S
C6392 C6391 1.366 . S
C6392 C6393 1.414 . S
C6392 C6395 1.499 . S
C6393 H6367 0.950 . S
C6393 C6392 1.414 . S
C6393 C6394 1.374 . S
C6394 H6368 0.950 . S
C6394 C6390 1.385 . S
C6394 C6393 1.374 . S
C6395 C6392 1.499 . S
C6395 C6396 1.373 . S
C6395 C6397 1.389 . S
C6396 H6369 0.950 . S
C6396 C6382 1.377 . S
C6396 C6395 1.373 . S
C6397 C6381 1.377 . S
C6397 C6395 1.389 . S
C6397 C6398 1.524 . S
C6398 C6397 1.524 . S
C6398 C6399 1.397 . S
C6398 C6403 1.363 . S
C6399 H6370 0.950 . S
C6399 C6398 1.397 . S
C6399 C6400 1.334 . S
C6400 H6371 0.950 . S
C6400 C6399 1.334 . S
C6400 C6401 1.287 . S
C6401 C6400 1.287 . S
C6401 C6402 1.524 . S
C6401 H6404 0.999 . S
C6402 H6372 0.950 . S
C6402 C6401 1.524 . S
C6402 C6403 1.415 . S
C6403 H6373 0.950 . S
C6403 C6398 1.363 . S
C6403 C6402 1.415 . S
H6404 C6401 0.999 . S
H6405 C6386 0.913 . S
H6406 C6424 0.951 . S
H6407 C6426 0.951 . S
H6408 C6428 0.950 . S
H6409 C6429 0.950 . S
H6410 C6431 0.950 . S
H6411 C6434 0.950 . S
H6412 C6435 0.950 . S
H6413 C6437 0.950 . S
H6414 C6438 0.950 . S
H6415 C6439 0.951 . S
H6416 C6441 0.951 . S
H6417 C6443 0.950 . S
H6418 C6444 0.950 . S
H6419 C6446 0.950 . S
H6420 C6449 0.950 . S
H6421 C6450 0.950 . S
H6422 C6452 0.950 . S
H6423 C6453 0.950 . S
C6424 H6406 0.951 . S
C6424 C6425 1.366 . S
C6424 C6426 1.388 . S
C6425 C6424 1.366 . S
C6425 C6429 1.385 . S
C6426 H6407 0.951 . S
C6426 C6424 1.388 . S
C6426 C6427 1.366 . S
C6427 C6426 1.366 . S
C6427 C6428 1.414 . S
C6427 C6430 1.499 . S
C6428 H6408 0.950 . S
C6428 C6427 1.414 . S
C6428 C6429 1.374 . S
C6429 H6409 0.950 . S
C6429 C6425 1.385 . S
C6429 C6428 1.374 . S
C6430 C6427 1.499 . S
C6430 C6431 1.373 . S
C6430 C6432 1.389 . S
C6431 H6410 0.950 . S
C6431 C6430 1.373 . S
C6431 C6447 1.377 . S
C6432 C6430 1.389 . S
C6432 C6433 1.524 . S
C6432 C6446 1.377 . S
C6433 C6432 1.524 . S
C6433 C6434 1.397 . S
C6433 C6438 1.363 . S
C6434 H6411 0.950 . S
C6434 C6433 1.397 . S
C6434 C6435 1.334 . S
C6435 H6412 0.950 . S
C6435 C6434 1.334 . S
C6435 C6436 1.287 . S
C6436 C6435 1.287 . S
C6436 C6437 1.524 . S
C6436 H6455 0.913 . S
C6437 H6413 0.950 . S
C6437 C6436 1.524 . S
C6437 C6438 1.415 . S
C6438 H6414 0.950 . S
C6438 C6433 1.363 . S
C6438 C6437 1.415 . S
C6439 H6415 0.951 . S
C6439 C6440 1.366 . S
C6439 C6441 1.388 . S
C6440 C6439 1.366 . S
C6440 C6444 1.385 . S
C6441 H6416 0.951 . S
C6441 C6439 1.388 . S
C6441 C6442 1.366 . S
C6442 C6441 1.366 . S
C6442 C6443 1.414 . S
C6442 C6445 1.499 . S
C6443 H6417 0.950 . S
C6443 C6442 1.414 . S
C6443 C6444 1.374 . S
C6444 H6418 0.950 . S
C6444 C6440 1.385 . S
C6444 C6443 1.374 . S
C6445 C6442 1.499 . S
C6445 C6446 1.373 . S
C6445 C6447 1.389 . S
C6446 H6419 0.950 . S
C6446 C6432 1.377 . S
C6446 C6445 1.373 . S
C6447 C6431 1.377 . S
C6447 C6445 1.389 . S
C6447 C6448 1.524 . S
C6448 C6447 1.524 . S
C6448 C6449 1.397 . S
C6448 C6453 1.363 . S
C6449 H6420 0.950 . S
C6449 C6448 1.397 . S
C6449 C6450 1.334 . S
C6450 H6421 0.950 . S
C6450 C6449 1.334 . S
C6450 C6451 1.287 . S
C6451 C6450 1.287 . S
C6451 C6452 1.524 . S
C6451 H6454 0.999 . S
C6452 H6422 0.950 . S
C6452 C6451 1.524 . S
C6452 C6453 1.415 . S
C6453 H6423 0.950 . S
C6453 C6448 1.363 . S
C6453 C6452 1.415 . S
H6454 C6451 0.999 . S
H6455 C6436 0.913 . S
C1675 C101 1.654 . S
C1690 C368 1.551 . S
C1725 C57 2.160 . S
C1740 C459 2.142 . S
C1775 C73 1.488 . S
C1790 C536 1.482 1_565 S
C1840 C634 1.530 . S
C1825 C78 1.642 . S
C1875 C21 1.588 . S
C1890 C718 1.548 . S
C1940 C790 0.907 . S
C1925 C31 0.951 . S
C1990 C879 0.721 . S
C1975 C49 0.721 . S
C2025 C0 1.183 . S
C2040 C956 1.138 . S
C2090 C375 1.948 . S
C2075 C218 2.044 . S
C2125 C229 0.582 . S
C2140 C466 0.638 . S
C2190 C543 1.156 . S
C2175 C257 1.186 . S
C2240 C620 1.503 . S
C2225 C164 1.513 1_556 S
C2275 C216 1.888 . S
C2290 C704 1.861 . S
C2340 C806 1.077 . S
C2325 C231 1.142 . S
C2390 C886 0.740 . S
C2375 C255 0.738 . S
C2440 C963 1.325 . S
C2425 C166 1.420 . S
C2490 C382 1.373 . S
C2475 C143 1.443 . S
C2525 C265 2.015 . S
C2540 C1047 1.979 . S
C2590 C1135 2.076 . S
C2575 C299 2.221 . S
C2640 C1208 0.486 . S
C2625 C291 0.436 . S
C2675 C104 0.602 . S
C2690 C970 0.591 . S
C2725 C117 1.359 . S
C2740 C550 1.335 . S
C2775 C304 2.275 . S
C2790 C1299 2.240 . S
C2840 C1376 0.631 . S
C2825 C278 0.603 . S
C2890 C379 1.474 1_565 S
C2875 C60 1.582 . S
C2940 C1394 2.053 . S
C2925 C96 2.118 . S
C2975 C88 1.446 . S
C2990 C547 1.361 . S
C3025 C65 1.573 . S
C3040 C1294 1.455 . S
C3090 C706 1.491 . S
C3075 C10 1.567 . S
C3125 C44 0.873 . S
C3140 C1138 0.849 . S
C3190 C890 0.589 1_565 S
C3175 C34 0.626 . S
C3240 C1471 1.063 . S
C3225 C13 1.183 . S
C3290 C386 1.855 . S
C3275 C138 1.898 . S
C3340 C1378 0.584 . S
C3325 C296 0.493 . S
C3375 C112 1.100 . S
C3390 C554 1.090 . S
C3425 C270 1.485 . S
C3440 C1303 1.381 . S
C3475 C140 1.905 . S
C3490 C715 1.763 . S
C3540 C1131 1.006 . S
C3525 C294 1.055 . S
C3575 C114 0.647 . S
C3590 C874 0.678 . S
C3625 C268 1.284 . S
C3640 C1478 1.221 . S
C3675 C169 1.415 . S
C3690 C370 1.342 1_554 S
C3725 C161 1.952 . S
C3740 C1058 1.895 . S
C3775 C234 2.152 . S
C3790 C788 1.996 . S
C3825 C226 0.391 . S
C3840 C1219 0.488 . S
C3890 C1462 0.573 . S
C3875 C247 0.538 . S
C3925 C195 1.367 . S
C3940 C538 1.301 . S
C3990 C638 2.143 . S
C3975 C239 2.190 . S
C4040 C463 0.585 . S
C4025 C187 0.513 . S
C4075 C75 1.654 . S
C4090 C1544 1.551 . S
C4140 C1383 2.142 . S
C4125 C83 2.161 . S
C4175 C99 1.488 . S
C4190 C1628 1.482 . S
C4225 C52 1.642 . S
C4240 C1306 1.532 . S
C4275 C47 1.588 . S
C4290 C1054 1.548 . S
C4340 C1126 0.908 . S
C4325 C5 0.951 . S
C4390 C1215 0.722 . S
C4375 C23 0.720 . S
C4440 C1460 1.139 . S
C4425 C26 1.185 . S
C4490 C1551 1.948 . S
C4475 C244 2.044 . S
C4525 C177 0.583 . S
C4540 C1390 0.634 . S
C4590 C1635 1.154 . S
C4575 C192 1.186 . S
C4640 C1292 1.502 . S
C4625 C203 1.514 . S
C4690 C1040 1.860 . S
C4675 C242 1.888 . S
C4725 C179 1.142 . S
C4740 C1142 1.077 . S
C4790 C1222 0.740 . S
C4775 C190 0.739 . S
C4825 C205 1.420 . S
C4840 C1467 1.325 . S
C4890 C1558 1.375 . S
C4875 C286 1.442 . S
C4925 C122 2.014 . S
C4940 C711 1.982 . S
C4990 C799 2.076 . S
C4975 C130 2.227 . S
C5040 C872 0.486 . S
C5025 C148 0.436 . S
C5090 C1474 0.594 . S
C5075 C273 0.599 . S
C5125 C260 1.354 1_556 S
C5140 C1642 1.332 . S
C5190 C627 2.240 . S
C5175 C135 2.268 . S
C5240 C452 0.629 . S
C5225 C109 0.603 . S
C5275 C86 1.582 . S
C5290 C1555 1.474 . S
C5340 C470 2.054 . S
C5325 C70 2.118 . S
C5375 C62 1.447 . S
C5390 C1639 1.360 . S
C5425 C91 1.573 . S
C5440 C622 1.455 . S
C5475 C36 1.567 . S
C5490 C1042 1.490 1_556 S
C5540 C802 0.850 . S
C5525 C18 0.873 . S
C5575 C8 0.626 . S
C5590 C1226 0.580 . S
C5625 C39 1.183 . S
C5640 C967 1.061 . S
C5690 C1562 1.854 . S
C5675 C307 1.897 . S
C5725 C153 0.493 . S
C5740 C454 0.583 . S
C5790 C1646 1.090 . S
C5775 C281 1.101 . S
C5825 C127 1.487 . S
C5840 C631 1.390 . S
C5875 C309 1.905 . S
C5890 C1051 1.765 . S
C5940 C795 1.007 . S
C5925 C151 1.055 . S
C5975 C283 0.647 . S
C5990 C1210 0.679 . S
C6040 C974 1.215 . S
C6025 C125 1.283 . S
C6090 C1546 1.341 . S
C6075 C221 1.414 . S
C6140 C722 1.895 1_655 S
C6125 C200 1.953 . S
C6175 C208 2.151 . S
C6190 C1124 1.997 . S
C6240 C883 0.488 . S
C6225 C174 0.391 . S
C6275 C182 0.538 . S
C6290 C958 0.572 . S
C6325 C156 1.368 . S
C6340 C1630 1.302 1_554 S
C6390 C1310 2.143 . S
C6375 C213 2.190 . S
C6440 C1387 0.585 . S
C6425 C252 0.513 . S
