# Generated by pormake.
# Topology zzz, (3,6)-cn, num edge types: 1
# Building blocks:
#     Node 0, Type 0, BuildingBlock: WUSLED_clean_sbu_0, # of connection points: 3
#     Node 1, Type 0, BuildingBlock: WUSLED_clean_sbu_0, # of connection points: 3
#     Node 2, Type 0, BuildingBlock: WUSLED_clean_sbu_0, # of connection points: 3
#     Node 3, Type 0, BuildingBlock: WUSLED_clean_sbu_0, # of connection points: 3
#     Node 4, Type 0, BuildingBlock: WUSLED_clean_sbu_0, # of connection points: 3
#     Node 5, Type 0, BuildingBlock: WUSLED_clean_sbu_0, # of connection points: 3
#     Node 6, Type 0, BuildingBlock: WUSLED_clean_sbu_0, # of connection points: 3
#     Node 7, Type 0, BuildingBlock: WUSLED_clean_sbu_0, # of connection points: 3
#     Node 8, Type 1, BuildingBlock: BETDAH_clean_sbu_0, # of connection points: 6
#     Node 9, Type 1, BuildingBlock: BETDAH_clean_sbu_0, # of connection points: 6
#     Node 10, Type 1, BuildingBlock: BETDAH_clean_sbu_0, # of connection points: 6
#     Node 11, Type 1, BuildingBlock: BETDAH_clean_sbu_0, # of connection points: 6
#     Edge 12, Type (0, 1), BuildingBlock: ZUJKAS_clean_linker_0, # of connection points: 2
#     Edge 13, Type (0, 1), BuildingBlock: ZUJKAS_clean_linker_0, # of connection points: 2
#     Edge 14, Type (0, 1), BuildingBlock: ZUJKAS_clean_linker_0, # of connection points: 2
#     Edge 15, Type (0, 1), BuildingBlock: ZUJKAS_clean_linker_0, # of connection points: 2
#     Edge 16, Type (0, 1), BuildingBlock: ZUJKAS_clean_linker_0, # of connection points: 2
#     Edge 17, Type (0, 1), BuildingBlock: ZUJKAS_clean_linker_0, # of connection points: 2
#     Edge 18, Type (0, 1), BuildingBlock: ZUJKAS_clean_linker_0, # of connection points: 2
#     Edge 19, Type (0, 1), BuildingBlock: ZUJKAS_clean_linker_0, # of connection points: 2
#     Edge 20, Type (0, 1), BuildingBlock: ZUJKAS_clean_linker_0, # of connection points: 2
#     Edge 21, Type (0, 1), BuildingBlock: ZUJKAS_clean_linker_0, # of connection points: 2
#     Edge 22, Type (0, 1), BuildingBlock: ZUJKAS_clean_linker_0, # of connection points: 2
#     Edge 23, Type (0, 1), BuildingBlock: ZUJKAS_clean_linker_0, # of connection points: 2
#     Edge 24, Type (0, 1), BuildingBlock: ZUJKAS_clean_linker_0, # of connection points: 2
#     Edge 25, Type (0, 1), BuildingBlock: ZUJKAS_clean_linker_0, # of connection points: 2
#     Edge 26, Type (0, 1), BuildingBlock: ZUJKAS_clean_linker_0, # of connection points: 2
#     Edge 27, Type (0, 1), BuildingBlock: ZUJKAS_clean_linker_0, # of connection points: 2
#     Edge 28, Type (0, 1), BuildingBlock: ZUJKAS_clean_linker_0, # of connection points: 2
#     Edge 29, Type (0, 1), BuildingBlock: ZUJKAS_clean_linker_0, # of connection points: 2
#     Edge 30, Type (0, 1), BuildingBlock: ZUJKAS_clean_linker_0, # of connection points: 2
#     Edge 31, Type (0, 1), BuildingBlock: ZUJKAS_clean_linker_0, # of connection points: 2
#     Edge 32, Type (0, 1), BuildingBlock: ZUJKAS_clean_linker_0, # of connection points: 2
#     Edge 33, Type (0, 1), BuildingBlock: ZUJKAS_clean_linker_0, # of connection points: 2
#     Edge 34, Type (0, 1), BuildingBlock: ZUJKAS_clean_linker_0, # of connection points: 2
#     Edge 35, Type (0, 1), BuildingBlock: ZUJKAS_clean_linker_0, # of connection points: 2
# Relax obj value: 0.387
# Max RMSD: 0.269
# Mean RMSD: 0.247
data_MOF--net-zzz--node1-WUSLED_clean_sbu_0--node2-BETDAH_clean_sbu_0--edge1-ZUJKAS_clean_linker_0
_symmetry_space_group_name_H-M    P1
_symmetry_Int_Tables_number       1
_symmetry_cell_setting            triclinic
loop_
_symmetry_equiv_pos_as_xyz
'x, y, z'
_cell_length_a     79.390722
_cell_length_b     79.379483
_cell_length_c     23.829649
_cell_angle_alpha  89.914206
_cell_angle_beta   89.891958
_cell_angle_gamma 90.339658
loop_
_atom_site_label
_atom_site_type_symbol
_atom_site_fract_x
_atom_site_fract_y
_atom_site_fract_z
_atom_type_partial_charge
C0 C 0.76961 0.51271 0.36611 0.0
C1 C 0.78311 0.50938 0.3295 0.0
C2 C 0.80345 0.51473 0.40455 0.0
C3 C 0.79982 0.5104 0.34848 0.0
C4 C 0.78987 0.51825 0.44075 0.0
C5 C 0.7732 0.51724 0.42175 0.0
U6 U 0.73259 0.51893 0.26255 0.0
O7 O 0.71247 0.5009 0.2413 0.0
O8 O 0.70595 0.52518 0.27905 0.0
C9 C 0.70035 0.51136 0.25492 0.0
C10 C 0.75175 0.51082 0.34844 0.0
C11 C 0.68689 0.51352 0.21259 0.0
C12 C 0.65701 0.51558 0.19043 0.0
C13 C 0.67001 0.51432 0.22994 0.0
C14 C 0.67759 0.51542 0.11537 0.0
C15 C 0.6606 0.51599 0.13255 0.0
C16 C 0.69059 0.51426 0.15495 0.0
C17 C 0.76479 0.54052 0.16957 0.0
C18 C 0.78667 0.54847 0.10356 0.0
C19 C 0.79368 0.54365 0.20126 0.0
C20 C 0.77674 0.5402 0.21282 0.0
C21 C 0.79887 0.54748 0.14621 0.0
C22 C 0.76977 0.54496 0.11517 0.0
C23 C 0.74741 0.53504 0.17993 0.0
O24 O 0.74277 0.52468 0.34665 0.0
O25 O 0.74873 0.50066 0.30605 0.0
O26 O 0.74524 0.51862 0.18051 0.0
O27 O 0.73961 0.54274 0.22119 0.0
H28 H 0.78077 0.50589 0.28628 0.0
H29 H 0.8099 0.50784 0.31909 0.0
H30 H 0.79209 0.52139 0.48433 0.0
H31 H 0.76304 0.51975 0.45095 0.0
H32 H 0.64411 0.51584 0.20522 0.0
H33 H 0.66686 0.51373 0.27416 0.0
H34 H 0.68085 0.51595 0.07125 0.0
H35 H 0.70352 0.51379 0.14047 0.0
H36 H 0.79025 0.55163 0.06092 0.0
H37 H 0.80277 0.54262 0.23489 0.0
H38 H 0.77304 0.53681 0.25513 0.0
H39 H 0.76066 0.54529 0.08138 0.0
C40 C 0.9955 0.77925 0.34727 0.0
C41 C 0.98916 0.79365 0.32013 0.0
C42 C 0.99996 0.81188 0.3947 0.0
C43 C 0.99137 0.80973 0.34353 0.0
C44 C 1.00667 0.79752 0.42102 0.0
C45 C 1.00439 0.78144 0.39777 0.0
U46 U 1.00033 0.74131 0.24512 0.0
O47 O 1.00076 0.71402 0.26322 0.0
O48 O 0.98036 0.72467 0.2128 0.0
C49 C 0.98757 0.7109 0.23153 0.0
C50 C 0.99161 0.76192 0.32665 0.0
C51 C 0.98932 0.69707 0.19035 0.0
C52 C 0.98553 0.66744 0.16657 0.0
C53 C 0.98469 0.68061 0.20563 0.0
C54 C 0.99581 0.68699 0.09624 0.0
C55 C 0.99097 0.67046 0.11116 0.0
C56 C 0.99504 0.70014 0.13544 0.0
C57 C 0.0318 0.76869 0.16682 0.0
C58 C 0.05109 0.78632 0.11361 0.0
C59 C 0.03592 0.79794 0.19292 0.0
C60 C 0.02829 0.78229 0.20238 0.0
C61 C 0.04717 0.80019 0.1478 0.0
C62 C 0.04342 0.77068 0.12304 0.0
C63 C 0.02274 0.75268 0.17334 0.0
O64 O 0.98333 0.76061 0.27909 0.0
O65 O 1.00351 0.75056 0.33185 0.0
O66 O 0.02674 0.74383 0.21797 0.0
O67 O 1.00642 0.75354 0.16486 0.0
H68 H 0.98218 0.79252 0.28131 0.0
H69 H 0.98622 0.82049 0.32162 0.0
H70 H 0.01319 0.79862 0.46073 0.0
H71 H 0.00923 0.77063 0.42021 0.0
H72 H 0.98154 0.65495 0.1795 0.0
H73 H 0.98019 0.67796 0.2477 0.0
H74 H 1.0003 0.68976 0.05427 0.0
H75 H 0.99877 0.71273 0.12273 0.0
H76 H 0.05953 0.78771 0.07812 0.0
H77 H 0.03279 0.80835 0.22028 0.0
H78 H 0.01937 0.78089 0.23655 0.0
H79 H 0.04621 0.76028 0.09522 0.0
C80 C 0.74296 0.01272 0.3954 0.0
C81 C 0.72927 0.01714 0.3611 0.0
C82 C 0.70937 0.01107 0.43733 0.0
C83 C 0.71269 0.01624 0.38171 0.0
C84 C 0.72315 1.00657 0.47128 0.0
C85 C 0.73968 0.00738 0.45055 0.0
U86 U 0.77999 1.00608 0.2905 0.0
O87 O 0.80029 0.02394 0.26922 0.0
O88 O 0.80654 0.99961 0.30715 0.0
C89 C 0.8123 0.01337 0.28277 0.0
C90 C 0.76076 0.01442 0.37629 0.0
C91 C 0.82562 0.011 0.23994 0.0
C92 C 0.85541 0.01 0.21555 0.0
C93 C 0.84261 0.01153 0.25582 0.0
C94 C 0.83439 0.00721 0.1427 0.0
C95 C 0.85152 0.00795 0.15826 0.0
C96 C 0.8216 0.00867 0.18308 0.0
C97 C 0.74808 0.98489 0.1957 0.0
C98 C 0.72721 0.97522 0.12897 0.0
C99 C 0.71844 0.98539 0.22033 0.0
C100 C 0.73528 0.98809 0.23473 0.0
C101 C 0.71419 0.97932 0.1667 0.0
C102 C 0.74402 0.97809 0.1433 0.0
C103 C 0.76543 0.99005 0.20746 0.0
O104 O 0.76969 1.00052 0.37477 0.0
O105 O 0.76375 0.02444 0.33335 0.0
O106 O 0.76783 1.00644 0.20793 0.0
O107 O 0.77272 0.98229 0.24958 0.0
H108 H 0.73134 0.02138 0.31842 0.0
H109 H 0.70247 0.01958 0.35387 0.0
H110 H 0.72125 1.00281 0.51452 0.0
H111 H 0.74998 1.00408 0.47815 0.0
H112 H 0.86838 0.01034 0.22948 0.0
H113 H 0.846 0.01324 0.29947 0.0
H114 H 0.83083 1.00586 0.09911 0.0
H115 H 0.80856 0.00821 0.16978 0.0
H116 H 0.72438 0.97024 0.08775 0.0
H117 H 0.70877 0.98884 0.25023 0.0
H118 H 0.7383 0.99327 0.27548 0.0
H119 H 0.75382 0.9755 0.11283 0.0
C120 C 0.51868 0.75429 0.40727 0.0
C121 C 0.50888 0.74287 0.37606 0.0
C122 C 0.51615 0.71994 0.44043 0.0
C123 C 0.50773 0.72584 0.39221 0.0
C124 C 0.52588 0.7315 0.47147 0.0
C125 C 0.52717 0.74841 0.45496 0.0
U126 U 0.51599 0.79206 0.30378 0.0
O127 O 0.50709 0.81796 0.3186 0.0
O128 O 0.53342 0.81361 0.29561 0.0
C129 C 0.52149 0.8248 0.30313 0.0
C130 C 0.5202 0.77237 0.39184 0.0
C131 C 0.52045 0.83804 0.25951 0.0
C132 C 0.52247 0.86761 0.23256 0.0
C133 C 0.52307 0.85499 0.27378 0.0
C134 C 0.51654 0.8465 0.16205 0.0
C135 C 0.51928 0.86355 0.17599 0.0
C136 C 0.51711 0.8339 0.20334 0.0
C137 C 0.50193 0.76061 0.19281 0.0
C138 C 0.48666 0.74183 0.13088 0.0
C139 C 0.50603 0.73043 0.19955 0.0
C140 C 0.50969 0.74671 0.21808 0.0
C141 C 0.49464 0.72786 0.15525 0.0
C142 C 0.49028 0.75809 0.14962 0.0
C143 C 0.50597 0.77782 0.21055 0.0
O144 O 0.5324 0.77634 0.3568 0.0
O145 O 0.5061 0.78038 0.38121 0.0
O146 O 0.49549 0.78439 0.24711 0.0
O147 O 0.52189 0.78073 0.22227 0.0
H148 H 0.50203 0.74713 0.33954 0.0
H149 H 0.5 0.71736 0.36753 0.0
H150 H 0.53272 0.72743 0.50831 0.0
H151 H 0.53481 0.75697 0.47971 0.0
H152 H 0.52484 0.88053 0.24491 0.0
H153 H 0.52571 0.85846 0.31684 0.0
H154 H 0.5138 0.84287 0.11922 0.0
H155 H 0.51499 0.82089 0.19141 0.0
H156 H 0.47768 0.74019 0.09712 0.0
H157 H 0.51251 0.71992 0.21867 0.0
H158 H 0.51878 0.74845 0.25145 0.0
H159 H 0.48412 0.76871 0.12996 0.0
C160 C 0.24777 0.50478 0.92973 0.0
C161 C 0.23425 0.50666 0.96744 0.0
C162 C 0.21392 0.50337 0.89104 0.0
C163 C 0.21753 0.50592 0.94835 0.0
C164 C 0.22753 0.50115 0.85381 0.0
C165 C 0.2442 0.50188 0.87292 0.0
U166 U 0.2847 0.4967 0.03185 0.0
O167 O 0.3114 0.49087 0.01481 0.0
O168 O 0.30469 0.51432 0.05766 0.0
C169 C 0.31689 0.50427 0.04172 0.0
C170 C 0.26562 0.50647 0.94772 0.0
C171 C 0.33043 0.5015 0.08329 0.0
C172 C 0.36036 0.50129 0.10551 0.0
C173 C 0.3473 0.50288 0.06639 0.0
C174 C 0.33985 0.49661 0.17923 0.0
C175 C 0.35684 0.49833 0.16268 0.0
C176 C 0.32679 0.49817 0.13996 0.0
C177 C 0.25168 0.47401 0.11607 0.0
C178 C 0.22766 0.46957 0.17721 0.0
C179 C 0.22359 0.47166 0.07663 0.0
C180 C 0.24094 0.47364 0.06934 0.0
C181 C 0.21672 0.47005 0.13081 0.0
C182 C 0.24501 0.47156 0.16984 0.0
C183 C 0.26935 0.47908 0.10966 0.0
O184 O 0.26856 0.51577 0.99229 0.0
O185 O 0.27471 0.49268 0.94641 0.0
O186 O 0.27748 0.47213 0.0676 0.0
O187 O 0.2719 0.49541 0.11353 0.0
H188 H 0.23659 0.50891 0.01158 0.0
H189 H 0.20746 0.50779 0.97836 0.0
H190 H 0.22534 0.49882 0.80966 0.0
H191 H 0.25437 0.50034 0.843 0.0
H192 H 0.37323 0.50239 0.09083 0.0
H193 H 0.3504 0.5054 0.02287 0.0
H194 H 0.33658 0.49451 0.22283 0.0
H195 H 0.31384 0.49705 0.15401 0.0
H196 H 0.22278 0.46863 0.21957 0.0
H197 H 0.21552 0.47194 0.04005 0.0
H198 H 0.24591 0.47558 0.02744 0.0
H199 H 0.25312 0.47199 0.20635 0.0
C200 C 0.02055 0.25582 0.92155 0.0
C201 C 0.03048 0.24315 0.94608 0.0
C202 C 0.01724 0.22152 0.88734 0.0
C203 C 0.02883 0.22627 0.92929 0.0
C204 C 0.00716 0.23421 0.8635 0.0
C205 C 0.00883 0.25109 0.88023 0.0
U206 U 0.01826 0.29328 0.0249 0.0
O207 O 0.03615 0.3142 0.03738 0.0
O208 O 0.01017 0.3196 0.01247 0.0
C209 C 0.02457 0.3258 0.03052 0.0
C210 C 0.02276 0.27399 0.93629 0.0
C211 C 0.02341 0.33856 0.07572 0.0
C212 C 0.01971 0.36777 0.10452 0.0
C213 C 0.02062 0.35552 0.06222 0.0
C214 C 0.02434 0.34625 0.17471 0.0
C215 C 0.02162 0.36334 0.16148 0.0
C216 C 0.02515 0.33402 0.13241 0.0
C217 C 1.00245 0.26013 0.12427 0.0
C218 C 0.99449 0.23777 0.18824 0.0
C219 C 1.00059 0.23136 0.09077 0.0
C220 C 1.0037 0.24839 0.08056 0.0
C221 C 0.99611 0.22586 0.14487 0.0
C222 C 0.99769 0.2548 0.17797 0.0
C223 C 0.00677 0.27778 0.11414 0.0
O224 O 0.00893 0.28267 0.94501 0.0
O225 O 0.03482 0.2778 0.97194 0.0
O226 O 0.02288 0.28061 0.10531 0.0
O227 O 0.99696 0.28553 0.07818 0.0
H228 H 0.0397 0.24626 0.97792 0.0
H229 H 0.03699 0.217 0.94833 0.0
H230 H 0.99788 0.23113 0.83185 0.0
H231 H 1.00103 0.26051 0.86035 0.0
H232 H 0.01731 0.38069 0.0925 0.0
H233 H 0.01913 0.35932 0.01882 0.0
H234 H 0.02612 0.3423 0.21778 0.0
H235 H 0.02726 0.321 0.14401 0.0
H236 H 0.99128 0.23384 0.2305 0.0
H237 H 1.00179 0.22249 0.05651 0.0
H238 H 0.00731 0.25241 0.03879 0.0
H239 H 0.99674 0.26376 0.2121 0.0
C240 C 0.25917 0.01892 0.92724 0.0
C241 C 0.27047 0.03139 0.94624 0.0
C242 C 0.29374 0.01845 0.8944 0.0
C243 C 0.28752 0.03113 0.93017 0.0
C244 C 0.28238 1.00595 0.87581 0.0
C245 C 0.26537 1.0062 0.89199 0.0
U246 U 0.22188 0.02148 0.03219 0.0
O247 O 0.19757 0.03464 0.02621 0.0
O248 O 0.19802 0.00712 0.03292 0.0
C249 C 0.18873 0.02076 0.03409 0.0
C250 C 0.24087 0.01917 0.94162 0.0
C251 C 0.17595 0.02132 0.07945 0.0
C252 C 0.14714 0.01647 0.11144 0.0
C253 C 0.15927 0.01641 0.06855 0.0
C254 C 0.16818 0.02642 0.17699 0.0
C255 C 0.1514 0.02145 0.16642 0.0
C256 C 0.18031 0.02631 0.13407 0.0
C257 C 0.256 0.02387 0.14078 0.0
C258 C 0.27835 0.02499 0.2095 0.0
C259 C 0.28488 0.01915 0.11195 0.0
C260 C 0.26784 0.02046 0.09868 0.0
C261 C 0.29027 0.02113 0.16769 0.0
C262 C 0.26131 0.02635 0.19606 0.0
C263 C 0.23807 0.02398 0.12735 0.0
O264 O 0.23494 1.00597 0.96883 0.0
O265 O 0.23464 0.03346 0.96009 0.0
O266 O 0.23297 0.03716 0.09877 0.0
O267 O 0.2323 0.00963 0.10758 0.0
H268 H 0.26617 0.04137 0.97359 0.0
H269 H 0.29585 0.04083 0.94618 0.0
H270 H 0.28651 0.99611 0.84764 0.0
H271 H 0.25696 0.99651 0.87628 0.0
H272 H 0.13447 0.01231 0.10163 0.0
H273 H 0.15565 0.01239 0.02683 0.0
H274 H 0.17196 0.03055 0.21839 0.0
H275 H 0.19313 0.0301 0.14356 0.0
H276 H 0.2821 0.02634 0.25295 0.0
H277 H 0.29377 0.01635 0.07878 0.0
H278 H 0.26383 0.0184 0.05586 0.0
H279 H 0.25225 0.02892 0.22898 0.0
C280 C 0.50835 0.27136 0.93559 0.0
C281 C 0.52127 0.27697 0.89975 0.0
C282 C 0.50824 0.3047 0.89158 0.0
C283 C 0.52122 0.29339 0.87798 0.0
C284 C 0.49538 0.29911 0.92819 0.0
C285 C 0.49538 0.2826 0.94967 0.0
U286 U 0.50239 0.23682 0.04939 0.0
O287 O 0.49188 0.21111 0.04183 0.0
O288 O 0.51825 0.21474 0.06623 0.0
C289 C 0.50576 0.20397 0.05988 0.0
C290 C 0.50857 0.25365 0.95607 0.0
C291 C 0.5037 0.19125 0.10495 0.0
C292 C 0.50102 0.16179 0.13267 0.0
C293 C 0.50242 0.17415 0.0908 0.0
C294 C 0.50198 0.18348 0.20386 0.0
C295 C 0.5009 0.16624 0.18991 0.0
C296 C 0.50335 0.19584 0.16184 0.0
C297 C 0.48979 0.27284 0.14295 0.0
C298 C 0.47808 0.29584 0.19683 0.0
C299 C 0.49314 0.30163 0.1102 0.0
C300 C 0.49593 0.28442 0.10326 0.0
C301 C 0.48429 0.30752 0.15731 0.0
C302 C 0.48077 0.2786 0.18956 0.0
C303 C 0.49261 0.25477 0.13543 0.0
O304 O 0.52027 0.24994 0.99298 0.0
O305 O 0.49395 0.24656 0.96756 0.0
O306 O 0.48202 0.24728 0.10113 0.0
O307 O 0.50838 0.2505 0.12692 0.0
H308 H 0.53141 0.26858 0.8882 0.0
H309 H 0.53147 0.29725 0.85074 0.0
H310 H 0.48511 0.30737 0.93934 0.0
H311 H 0.4852 0.27863 0.97703 0.0
H312 H 0.49991 0.14874 0.12004 0.0
H313 H 0.50259 0.17032 0.04718 0.0
H314 H 0.50211 0.18743 0.24732 0.0
H315 H 0.50432 0.20898 0.17378 0.0
H316 H 0.4711 0.30003 0.23328 0.0
H317 H 0.49826 0.31034 0.07948 0.0
H318 H 0.50305 0.28012 0.06727 0.0
H319 H 0.47589 0.26979 0.2204 0.0
Ho320 Ho 0.01582 0.00785 0.72814 0.0
Ho321 Ho 0.99337 0.01737 0.62383 0.0
C322 C 1.00522 0.97898 0.63754 0.0
C323 C 0.02477 0.99792 0.82655 0.0
C324 C 0.03515 0.98423 0.84846 0.0
C325 C 0.03876 0.9835 0.90588 0.0
C326 C 0.04728 0.96967 0.92806 0.0
C327 C 0.05223 0.95632 0.89304 0.0
C328 C 0.04914 0.95745 0.83505 0.0
C329 C 0.04068 0.97132 0.81291 0.0
C330 C 0.03548 0.01244 0.63484 0.0
C331 C 0.0084 0.04708 0.70351 0.0
C332 C 0.97902 0.02815 0.53377 0.0
C333 C 0.98074 0.04201 0.49379 0.0
C334 C 0.99554 0.0517 0.49113 0.0
C335 C 0.997 0.06468 0.45178 0.0
C336 C 0.98363 0.06817 0.415 0.0
C337 C 0.96883 0.05843 0.41812 0.0
C338 C 0.96742 0.04541 0.45722 0.0
C339 C 0.97693 1.00635 0.71731 0.0
O340 O 0.00965 0.98231 0.69016 0.0
O341 O 1.00041 0.99091 0.6023 0.0
O342 O 0.03279 0.00976 0.79869 0.0
O343 O 0.01072 0.99313 0.80225 0.0
O344 O 0.04131 0.0082 0.68369 0.0
O345 O 0.01982 0.01383 0.63999 0.0
O346 O 1.0031 0.04289 0.65247 0.0
O347 O 0.01216 0.0356 0.74187 0.0
O348 O 0.97398 0.03222 0.58427 0.0
O349 O 0.99126 0.01718 0.53377 0.0
O350 O 0.97236 1.00287 0.66645 0.0
O351 O 0.9896 0.01596 0.71551 0.0
H352 H 0.03453 0.99338 0.9338 0.0
H353 H 0.04929 0.96906 0.97296 0.0
H354 H 0.05295 0.94744 0.80701 0.0
H355 H 0.03803 0.97176 0.76833 0.0
H356 H 1.00592 0.04922 0.5194 0.0
H357 H 0.00846 0.07215 0.45072 0.0
H358 H 0.9584 0.06077 0.38997 0.0
H359 H 0.95594 0.03797 0.45881 0.0
Ho360 Ho 0.50758 0.02541 0.72944 0.0
Ho361 Ho 0.49935 1.0026 0.63483 0.0
C362 C 0.53775 0.01161 0.64973 0.0
C363 C 0.51958 0.03839 0.82048 0.0
C364 C 0.53276 0.03246 0.85842 0.0
C365 C 0.53933 0.01623 0.85162 0.0
C366 C 0.55157 0.01025 0.8883 0.0
C367 C 0.55748 0.02043 0.93237 0.0
C368 C 0.55087 0.03672 0.93894 0.0
C369 C 0.53855 0.04268 0.90219 0.0
C370 C 0.49742 0.0421 0.63583 0.0
C371 C 0.46884 0.01691 0.71212 0.0
C372 C 0.48858 0.98718 0.54623 0.0
C373 C 0.47321 0.98735 0.51272 0.0
C374 C 0.46071 0.99932 0.52316 0.0
C375 C 0.44634 0.99981 0.48974 0.0
C376 C 0.4443 0.98835 0.44531 0.0
C377 C 0.45683 0.97627 0.43534 0.0
C378 C 0.4712 0.97577 0.46897 0.0
C379 C 0.51066 0.98652 0.72827 0.0
O380 O 0.53342 0.01608 0.70136 0.0
O381 O 0.52615 0.0077 0.6125 0.0
O382 O 0.52462 0.0429 0.77042 0.0
O383 O 0.50616 0.02883 0.81906 0.0
O384 O 0.49417 0.04687 0.68669 0.0
O385 O 0.50678 0.02935 0.6375 0.0
O386 O 0.47334 0.0113 0.66199 0.0
O387 O 0.48026 0.02162 0.74911 0.0
O388 O 0.48707 0.98107 0.59691 0.0
O389 O 0.49746 1.00107 0.54474 0.0
O390 O 0.51446 0.98226 0.6774 0.0
O391 O 0.50055 0.99867 0.72682 0.0
H392 H 0.53496 0.00817 0.81793 0.0
H393 H 0.55661 0.99776 0.88154 0.0
H394 H 0.55512 0.04479 0.97274 0.0
H395 H 0.53351 0.05521 0.90804 0.0
H396 H 0.46218 0.00845 0.55653 0.0
H397 H 0.43702 0.00942 0.49787 0.0
H398 H 0.45549 0.9672 0.4017 0.0
H399 H 0.48079 0.96645 0.46054 0.0
Ho400 Ho 0.49734 0.51346 0.69306 0.0
Ho401 Ho 0.52113 0.50572 0.59071 0.0
C402 C 0.51182 0.54454 0.61566 0.0
C403 C 0.48218 0.52374 0.78239 0.0
C404 C 0.48269 0.53891 0.81694 0.0
C405 C 0.495 0.55132 0.80745 0.0
C406 C 0.49511 0.56598 0.83958 0.0
C407 C 0.48292 0.56842 0.88166 0.0
C408 C 0.47072 0.55583 0.89133 0.0
C409 C 0.4706 0.54117 0.85903 0.0
C410 C 0.48223 0.50084 0.5995 0.0
C411 C 0.50955 0.47588 0.67624 0.0
C412 C 0.53081 0.49767 0.49081 0.0
C413 C 0.52324 0.48811 0.44479 0.0
C414 C 0.50756 0.48017 0.45194 0.0
C415 C 0.50082 0.47027 0.40905 0.0
C416 C 0.50977 0.46805 0.35865 0.0
C417 C 0.52524 0.47649 0.35112 0.0
C418 C 0.53191 0.48648 0.39393 0.0
C419 C 0.54002 0.513 0.68324 0.0
O420 O 0.50445 0.53977 0.6633 0.0
O421 O 0.51841 0.53364 0.57994 0.0
O422 O 0.47614 0.52577 0.73178 0.0
O423 O 0.49579 0.5145 0.78336 0.0
O424 O 0.47747 0.49743 0.65035 0.0
O425 O 0.49421 0.51126 0.60137 0.0
O426 O 0.51284 0.47992 0.62312 0.0
O427 O 0.50581 0.48747 0.71387 0.0
O428 O 0.53453 0.48889 0.53558 0.0
O429 O 0.52348 0.51192 0.50275 0.0
O430 O 0.54633 0.50977 0.63421 0.0
O431 O 0.52427 0.51257 0.67851 0.0
H432 H 0.50447 0.54968 0.77516 0.0
H433 H 0.5048 0.57536 0.83174 0.0
H434 H 0.46109 0.55745 0.92309 0.0
H435 H 0.461 0.53167 0.86659 0.0
H436 H 0.5008 0.48124 0.49127 0.0
H437 H 0.48899 0.46374 0.41638 0.0
H438 H 0.53234 0.47507 0.31256 0.0
H439 H 0.544 0.49263 0.38782 0.0
Ho440 Ho 1.00196 0.5023 0.70933 0.0
Ho441 Ho 0.01359 0.52247 0.60016 0.0
C442 C 0.97461 0.51408 0.61688 0.0
C443 C 0.99138 0.49691 0.81018 0.0
C444 C 0.98063 0.50677 0.84762 0.0
C445 C 0.97292 0.52146 0.82789 0.0
C446 C 0.96205 0.53049 0.86252 0.0
C447 C 0.95858 0.52487 0.91738 0.0
C448 C 0.96678 0.51037 0.93744 0.0
C449 C 0.97774 0.5014 0.90276 0.0
C450 C 0.00865 0.48085 0.62235 0.0
C451 C 0.04179 0.50702 0.68707 0.0
C452 C 0.02638 0.53229 0.50603 0.0
C453 C 0.04012 0.52643 0.47018 0.0
C454 C 0.05078 0.51352 0.48837 0.0
C455 C 0.06351 0.5076 0.4532 0.0
C456 C 0.06569 0.51446 0.39922 0.0
C457 C 0.05489 0.52735 0.38113 0.0
C458 C 0.0422 0.53329 0.41645 0.0
C459 C 1.00143 0.5413 0.68638 0.0
O460 O 0.97774 0.51204 0.67119 0.0
O461 O 0.98688 0.51572 0.5796 0.0
O462 O 0.98388 0.49084 0.76562 0.0
O463 O 1.00605 0.50368 0.79881 0.0
O464 O 1.00385 0.47582 0.67182 0.0
O465 O 0.00967 0.49659 0.62433 0.0
O466 O 0.03843 0.51374 0.63714 0.0
O467 O 0.02986 0.5022 0.72269 0.0
O468 O 0.0308 0.53866 0.55458 0.0
O469 O 0.0135 0.52198 0.50972 0.0
O470 O 1.0001 0.54543 0.63386 0.0
O471 O 0.01024 0.52822 0.68983 0.0
H472 H 0.97505 0.52576 0.78529 0.0
H473 H 0.9561 0.54167 0.84591 0.0
H474 H 0.96419 0.50554 0.97911 0.0
H475 H 0.98363 0.49007 0.91853 0.0
H476 H 0.04918 0.50794 0.52955 0.0
H477 H 0.07151 0.49753 0.46798 0.0
H478 H 0.05641 0.53298 0.34 0.0
H479 H 0.03397 0.54321 0.40179 0.0
H480 H 0.11775 0.02983 0.16055 0.0
H481 H 0.09678 0.02946 0.23604 0.0
H482 H 0.13456 0.0125 0.35238 0.0
H483 H 0.15554 0.01255 0.27724 0.0
H484 H 0.08568 1.00278 0.30554 0.0
H485 H 0.11485 0.05371 0.43175 0.0
H486 H 0.1206 0.04986 0.35959 0.0
H487 H 0.12909 0.03698 0.41477 0.0
C488 C 0.12163 0.02589 0.20206 0.0
C489 C 0.13847 0.02132 0.21253 0.0
C490 C 0.10959 0.02577 0.24532 0.0
C491 C 0.1141 0.02122 0.30023 0.0
C492 C 0.13082 0.01645 0.31072 0.0
H493 H 0.069 0.00729 0.62476 0.0
H494 H 0.08667 0.00993 0.54126 0.0
C495 C 0.14285 0.01652 0.26755 0.0
C496 C 0.10135 0.02122 0.34648 0.0
H497 H 0.09326 0.03761 0.47635 0.0
C498 C 0.08723 0.01052 0.34267 0.0
C499 C 0.1033 0.03136 0.39489 0.0
C500 C 0.11769 0.04376 0.40046 0.0
C501 C 0.07544 0.00915 0.38686 0.0
C502 C 0.07764 0.01899 0.4359 0.0
C503 C 0.09154 0.03001 0.43896 0.0
C504 C 0.0664 0.01731 0.48607 0.0
C505 C 0.06113 0.99667 0.38161 0.0
C506 C 0.04901 0.02069 0.48337 0.0
C507 C 0.03879 0.01912 0.53146 0.0
C508 C 0.04581 0.01425 0.58309 0.0
C509 C 0.06319 0.01104 0.58563 0.0
C510 C 0.07333 0.01257 0.53784 0.0
H511 H 0.06333 0.98749 0.34726 0.0
H512 H 0.05926 0.98962 0.42146 0.0
H513 H 0.04934 1.00354 0.37223 0.0
H514 H 0.04337 0.02471 0.44429 0.0
H515 H 0.02548 0.0218 0.52833 0.0
H516 H 0.51584 0.13504 0.1914 0.0
H517 H 0.51386 0.11323 0.26364 0.0
H518 H 0.48234 0.14554 0.36353 0.0
H519 H 0.48369 0.16718 0.2905 0.0
H520 H 0.52388 0.11388 0.37262 0.0
H521 H 0.45503 0.10233 0.36429 0.0
H522 H 0.46609 0.1142 0.31095 0.0
H523 H 0.46046 0.124 0.37631 0.0
C524 C 0.50824 0.13746 0.22825 0.0
C525 C 0.49982 0.15293 0.23459 0.0
C526 C 0.50722 0.12497 0.26983 0.0
C527 C 0.49771 0.12755 0.31882 0.0
C528 C 0.48946 0.14303 0.32568 0.0
H529 H 0.4815 0.07246 0.63007 0.0
H530 H 0.4814 0.0925 0.55171 0.0
C531 C 0.49044 0.15553 0.28406 0.0
C532 C 0.49692 0.11426 0.36335 0.0
H533 H 0.46975 0.08985 0.44063 0.0
C534 C 0.51204 0.10855 0.38715 0.0
C535 C 0.48149 0.10724 0.3825 0.0
C536 C 0.46485 0.11212 0.35686 0.0
C537 C 0.51214 0.0964 0.43027 0.0
C538 C 0.4967 0.08949 0.44977 0.0
C539 C 0.48158 0.09512 0.4258 0.0
C540 C 0.49599 0.07677 0.496 0.0
C541 C 0.52877 0.0914 0.45573 0.0
C542 C 0.50382 0.061 0.49044 0.0
C543 C 0.50387 0.0495 0.53524 0.0
C544 C 0.49606 0.05351 0.58651 0.0
C545 C 0.48771 0.06902 0.59126 0.0
C546 C 0.48763 0.08049 0.54645 0.0
H547 H 0.5389 0.10066 0.44579 0.0
H548 H 0.52771 0.09021 0.50204 0.0
H549 H 0.53259 0.079 0.43863 0.0
H550 H 0.51004 0.05765 0.45159 0.0
H551 H 0.51032 0.03761 0.53011 0.0
H552 H 0.35955 0.47745 0.25477 0.0
H553 H 0.382 0.47687 0.3251 0.0
H554 H 0.40856 0.5161 0.23559 0.0
H555 H 0.38594 0.51725 0.16648 0.0
H556 H 0.41634 0.47048 0.31568 0.0
H557 H 0.40588 0.53549 0.39285 0.0
H558 H 0.39096 0.52472 0.34833 0.0
H559 H 0.40954 0.5343 0.31863 0.0
C560 C 0.37007 0.4861 0.25029 0.0
C561 C 0.37079 0.49747 0.20486 0.0
C562 C 0.38299 0.48565 0.29037 0.0
C563 C 0.39689 0.49661 0.28624 0.0
C564 C 0.39784 0.50772 0.24039 0.0
H565 H 0.48506 0.5157 0.49628 0.0
H566 H 0.46538 0.51351 0.41736 0.0
C567 C 0.38494 0.5082 0.20039 0.0
C568 C 0.41032 0.49654 0.33002 0.0
H569 H 0.43008 0.5215 0.4269 0.0
C570 C 0.41931 0.48162 0.34009 0.0
C571 C 0.41424 0.51108 0.36201 0.0
C572 C 0.40456 0.52727 0.35541 0.0
C573 C 0.43219 0.48093 0.38063 0.0
C574 C 0.43607 0.49546 0.41248 0.0
C575 C 0.42717 0.51038 0.40225 0.0
C576 C 0.44891 0.49542 0.458 0.0
C577 C 0.44171 0.46472 0.38865 0.0
C578 C 0.44633 0.48583 0.5069 0.0
C579 C 0.4575 0.48714 0.55219 0.0
C580 C 0.4715 0.49804 0.54942 0.0
C581 C 0.47439 0.5072 0.4997 0.0
C582 C 0.46314 0.50597 0.45459 0.0
H583 H 0.44041 0.45625 0.35179 0.0
H584 H 0.4553 0.46724 0.39601 0.0
H585 H 0.43663 0.45802 0.42598 0.0
H586 H 0.43533 0.47776 0.51081 0.0
H587 H 0.45494 0.47995 0.58996 0.0
H588 H 0.0081 0.36043 0.26769 0.0
H589 H 0.00746 0.38157 0.3421 0.0
H590 H 0.03233 0.41726 0.23314 0.0
H591 H 0.03347 0.39608 0.15876 0.0
H592 H 0.03596 0.39927 0.39099 0.0
H593 H 0.99015 0.44287 0.29187 0.0
H594 H 0.9924 0.42124 0.26978 0.0
H595 H 0.00784 0.4367 0.24948 0.0
C596 C 0.0136 0.3727 0.25944 0.0
C597 C 0.02085 0.37643 0.20679 0.0
C598 C 0.01311 0.38484 0.30208 0.0
C599 C 0.01967 0.40108 0.29311 0.0
C600 C 0.02691 0.40492 0.24078 0.0
H601 H 0.02061 0.48943 0.51754 0.0
H602 H 0.02462 0.47067 0.43655 0.0
C603 C 0.0275 0.39275 0.19815 0.0
C604 C 0.0193 0.4138 0.33913 0.0
H605 H 1.00173 0.45122 0.37865 0.0
C606 C 0.02849 0.41064 0.38826 0.0
C607 C 0.00971 0.42874 0.33537 0.0
C608 C 0.99934 0.43263 0.28404 0.0
C609 C 0.02831 0.42193 0.43373 0.0
C610 C 0.01828 0.43662 0.43081 0.0
C611 C 0.00938 0.43998 0.38111 0.0
C612 C 0.01618 0.44814 0.47986 0.0
C613 C 0.03905 0.41807 0.48425 0.0
C614 C 0.00993 0.44185 0.53101 0.0
C615 C 0.00772 0.45251 0.5771 0.0
C616 C 0.01148 0.4698 0.57307 0.0
C617 C 0.01758 0.47619 0.52183 0.0
C618 C 0.01987 0.46546 0.47557 0.0
H619 H 0.04983 0.40986 0.473 0.0
H620 H 0.04405 0.42978 0.50369 0.0
H621 H 0.03132 0.41128 0.51594 0.0
H622 H 1.00656 0.42867 0.53518 0.0
H623 H 1.00286 0.44723 0.61585 0.0
H624 H 0.85245 0.98837 0.06285 0.0
H625 H 0.87454 0.98721 0.99127 0.0
H626 H 0.90385 0.02363 0.08351 0.0
H627 H 0.88172 0.02517 0.15471 0.0
H628 H 0.88734 0.01414 0.92499 0.0
H629 H 0.93778 0.98547 0.05421 0.0
H630 H 0.91589 0.98507 0.075 0.0
H631 H 0.92824 1.00391 0.08385 0.0
C632 C 0.86353 0.99623 0.06793 0.0
C633 C 0.86521 1.00685 0.11498 0.0
C634 C 0.87622 0.99546 0.02703 0.0
C635 C 0.891 1.00514 0.03231 0.0
C636 C 0.89276 0.01575 0.07906 0.0
H637 H 0.98009 0.02071 0.82148 0.0
H638 H 0.95944 0.02009 0.89837 0.0
C639 C 0.88005 0.01659 0.11988 0.0
C640 C 0.90424 1.00463 0.9878 0.0
H641 H 0.94556 0.99495 0.96332 0.0
C642 C 0.90004 0.00986 0.93331 0.0
C643 C 0.92087 0.99918 0.9987 0.0
C644 C 0.92601 0.99295 0.05596 0.0
C645 C 0.91203 0.01004 0.88973 0.0
C646 C 0.92864 1.0044 0.90036 0.0
C647 C 0.93286 0.99922 0.95498 0.0
C648 C 0.94174 1.00381 0.85529 0.0
C649 C 0.90687 0.01673 0.83302 0.0
C650 C 0.939 0.99441 0.80617 0.0
C651 C 0.95073 0.99483 0.76217 0.0
C652 C 0.96557 1.00448 0.76653 0.0
C653 C 0.96874 0.0132 0.81679 0.0
C654 C 0.95693 0.01287 0.86074 0.0
H655 H 0.89563 0.02495 0.83611 0.0
H656 H 0.91726 0.02402 0.81309 0.0
H657 H 0.9036 1.006 0.80521 0.0
H658 H 0.92765 0.98693 0.80145 0.0
H659 H 0.948 0.98783 0.72422 0.0
H660 H 0.53176 0.86223 0.06836 0.0
H661 H 0.53103 0.88411 0.99606 0.0
H662 H 0.50528 0.91725 0.11035 0.0
H663 H 0.5059 0.89541 0.18289 0.0
H664 H 0.50393 0.8993 0.94715 0.0
H665 H 0.54311 0.94756 0.05416 0.0
H666 H 0.54197 0.92597 0.07785 0.0
H667 H 0.52536 0.94042 0.09466 0.0
C668 C 0.52586 0.87413 0.0782 0.0
C669 C 0.51892 0.877 0.13177 0.0
C670 C 0.52554 0.8867 0.03679 0.0
C671 C 0.51836 0.90249 0.04784 0.0
C672 C 0.5113 0.90537 0.10109 0.0
H673 H 0.49917 0.99077 0.83602 0.0
H674 H 0.50132 0.9708 0.91461 0.0
C675 C 0.51164 0.89282 0.1426 0.0
C676 C 0.51769 0.91563 1.00288 0.0
H677 H 0.52953 0.95603 0.97006 0.0
C678 C 0.5096 0.91167 0.95217 0.0
C679 C 0.52501 0.93185 0.0093 0.0
C680 C 0.53449 0.9367 0.0617 0.0
C681 C 0.50846 0.92344 0.90816 0.0
C682 C 0.51587 0.93961 0.9144 0.0
C683 C 0.52385 0.94366 0.96523 0.0
C684 C 0.51561 0.95232 0.86817 0.0
C685 C 0.49905 0.91856 0.85563 0.0
C686 C 0.52337 0.94886 0.81647 0.0
C687 C 0.52218 0.96023 0.77168 0.0
C688 C 0.51321 0.97535 0.77758 0.0
C689 C 0.50605 0.97916 0.83006 0.0
C690 C 0.50728 0.96777 0.87499 0.0
H691 H 0.49047 0.90766 0.863 0.0
H692 H 0.49153 0.92927 0.83948 0.0
H693 H 0.50823 0.91492 0.8227 0.0
H694 H 0.53019 0.93722 0.81049 0.0
H695 H 0.52798 0.957 0.732 0.0
H696 H 0.65785 0.49846 0.03384 0.0
H697 H 0.63517 0.49963 0.96451 0.0
H698 H 0.60895 0.53587 0.06634 0.0
H699 H 0.63173 0.53497 0.13565 0.0
H700 H 0.59939 0.49289 0.9814 0.0
H701 H 0.61254 0.55824 0.90791 0.0
H702 H 0.62783 0.54605 0.94626 0.0
H703 H 0.61032 0.55526 0.98242 0.0
C704 C 0.64736 0.50682 0.04132 0.0
C705 C 0.64671 0.5167 0.09029 0.0
C706 C 0.63432 0.50737 1.00181 0.0
C707 C 0.62041 0.51793 0.00994 0.0
C708 C 0.61963 0.52775 0.05886 0.0
H709 H 0.52952 0.51338 0.79377 0.0
H710 H 0.5475 0.51548 0.87777 0.0
C711 C 0.63262 0.52712 0.09865 0.0
C712 C 0.60681 0.51864 0.96696 0.0
H713 H 0.58969 0.54399 0.86612 0.0
C714 C 0.59714 0.50411 0.95656 0.0
C715 C 0.60395 0.53327 0.93436 0.0
C716 C 0.61424 0.5491 0.94276 0.0
C717 C 0.58487 0.50373 0.91396 0.0
C718 C 0.58215 0.51829 0.88092 0.0
C719 C 0.59165 0.5329 0.89186 0.0
C720 C 0.57081 0.51804 0.83115 0.0
C721 C 0.57534 0.48757 0.90305 0.0
C722 C 0.57786 0.51917 0.77727 0.0
C723 C 0.56767 0.51793 0.72967 0.0
C724 C 0.55015 0.51572 0.73471 0.0
C725 C 0.54296 0.51513 0.78864 0.0
C726 C 0.55323 0.51623 0.83657 0.0
H727 H 0.58049 0.47681 0.92728 0.0
H728 H 0.56194 0.48922 0.91511 0.0
H729 H 0.57572 0.48442 0.85767 0.0
H730 H 0.59135 0.52059 0.772 0.0
H731 H 0.5736 0.51845 0.68871 0.0
H732 H 1.00113 0.63766 0.12615 0.0
H733 H 1.00182 0.61496 0.05665 0.0
H734 H 0.98209 0.64875 0.93153 0.0
H735 H 0.98143 0.67149 1.00055 0.0
H736 H 0.97689 0.59994 0.99342 0.0
H737 H 0.02357 0.63088 0.85347 0.0
H738 H 0.01932 0.63835 0.92349 0.0
H739 H 1.00543 0.64365 0.86661 0.0
C740 C 0.99688 0.64027 0.08389 0.0
C741 C 0.99137 0.65651 0.06896 0.0
C742 C 0.99731 0.62726 0.04412 0.0
C743 C 0.99229 0.63017 0.98845 0.0
C744 C 0.98646 0.64626 0.97374 0.0
H745 H 0.98516 0.57141 0.68231 0.0
H746 H 0.98188 0.59206 0.75787 0.0
C747 C 0.98609 0.65928 0.01335 0.0
C748 C 0.99316 0.61642 0.94576 0.0
H749 H 0.00979 0.60654 0.81753 0.0
C750 C 0.98418 0.60134 0.95515 0.0
C751 C 1.0027 0.61817 0.89576 0.0
C752 C 0.01344 0.63356 0.88436 0.0
C753 C 0.98416 0.5882 0.91537 0.0
C754 C 0.99347 0.59013 0.86505 0.0
C755 C 1.00255 0.60512 0.85592 0.0
C756 C 0.99407 0.57681 0.82103 0.0
C757 C 0.97378 0.57256 0.92653 0.0
C758 C 1.00193 0.5613 0.83136 0.0
C759 C 1.00393 0.54952 0.78803 0.0
C760 C 0.99805 0.553 0.7336 0.0
C761 C 0.9898 0.56834 0.72378 0.0
C762 C 0.98792 0.58015 0.76694 0.0
H763 H 0.96504 0.57419 0.96258 0.0
H764 H 0.96632 0.56917 0.88881 0.0
H765 H 0.98226 0.56188 0.93605 0.0
H766 H 0.00703 0.55853 0.87244 0.0
H767 H 0.01047 0.53789 0.79683 0.0
H768 H 0.97139 0.21074 0.20711 0.0
H769 H 0.96987 0.18116 0.23607 0.0
H770 H 0.0144 0.17047 0.13888 0.0
H771 H 0.01619 0.20008 0.11036 0.0
H772 H 0.97032 0.14904 0.16656 0.0
H773 H 0.02502 0.15909 0.30943 0.0
H774 H 0.01274 0.1764 0.2827 0.0
H775 H 0.02718 0.16566 0.23743 0.0
C776 C 0.98078 0.20205 0.19163 0.0
C777 C 0.99399 0.20771 0.15699 0.0
C778 C 0.97982 0.18519 0.2078 0.0
C779 C 0.9921 0.17379 0.1898 0.0
C780 C 1.00487 0.17918 0.15321 0.0
H781 H 0.01013 0.07599 0.34626 0.0
H782 H 0.01257 0.10004 0.28208 0.0
C783 C 1.00581 0.19604 0.13682 0.0
C784 C 0.99224 0.15664 0.2133 0.0
H785 H 0.01172 0.1327 0.3123 0.0
C786 C 0.97945 0.14533 0.19795 0.0
C787 C 1.00427 0.15195 0.25394 0.0
C788 C 0.01807 0.16388 0.27232 0.0
C789 C 0.97816 0.12942 0.2233 0.0
C790 C 0.98972 0.12502 0.2659 0.0
C791 C 1.00289 0.13613 0.2796 0.0
C792 C 0.98768 0.10963 0.30015 0.0
C793 C 0.96437 0.11756 0.20452 0.0
C794 C 0.97293 0.10716 0.33166 0.0
C795 C 0.97151 0.0935 0.36819 0.0
C796 C 0.98493 0.08219 0.37438 0.0
C797 C 0.99966 0.08461 0.34255 0.0
C798 C 1.00103 0.09824 0.3057 0.0
H799 H 0.96055 0.12019 0.16055 0.0
H800 H 0.96838 0.10422 0.20765 0.0
H801 H 0.95314 0.11932 0.23163 0.0
H802 H 0.9627 0.1161 0.32935 0.0
H803 H 0.96013 0.09208 0.39292 0.0
H804 H 0.31072 0.99603 0.12993 0.0
H805 H 0.33904 0.9892 0.16273 0.0
H806 H 0.33797 0.03192 0.27429 0.0
H807 H 0.30987 0.03918 0.24044 0.0
H808 H 0.3694 0.02687 0.21733 0.0
H809 H 0.34468 0.96896 0.32187 0.0
H810 H 0.34049 0.97093 0.24804 0.0
H811 H 0.33105 0.98539 0.29648 0.0
C812 C 0.31666 1.0042 0.16051 0.0
C813 C 0.30803 0.01807 0.18304 0.0
C814 C 0.33276 1.00018 0.1795 0.0
C815 C 0.34039 0.00991 0.22145 0.0
C816 C 0.33218 0.02422 0.24204 0.0
H817 H 0.41166 0.99267 0.47735 0.0
H818 H 0.38721 0.99668 0.41672 0.0
C819 C 0.31611 0.02827 0.22303 0.0
C820 C 0.35643 1.00467 0.24678 0.0
H821 H 0.37349 0.97501 0.33301 0.0
C822 C 0.37042 0.01545 0.24211 0.0
C823 C 0.35753 0.98982 0.27939 0.0
C824 C 0.34264 0.97812 0.28729 0.0
C825 C 0.38545 0.01196 0.27047 0.0
C826 C 0.38646 0.99722 0.30363 0.0
C827 C 0.37262 0.98623 0.30711 0.0
C828 C 0.40118 0.99382 0.33929 0.0
C829 C 0.39985 0.02441 0.26686 0.0
C830 C 0.417 0.99056 0.31557 0.0
C831 C 0.431 0.98837 0.35009 0.0
C832 C 0.42933 0.98938 0.40876 0.0
C833 C 0.41334 0.99209 0.43227 0.0
C834 C 0.39938 0.99427 0.39778 0.0
H835 H 0.39598 0.0365 0.24733 0.0
H836 H 0.405 0.02707 0.30926 0.0
H837 H 0.41011 0.01897 0.24107 0.0
H838 H 0.41853 0.98995 0.27044 0.0
H839 H 0.4432 0.98638 0.33086 0.0
H840 H 0.48926 0.3248 0.25432 0.0
H841 H 0.48737 0.35509 0.26918 0.0
H842 H 0.47299 0.36206 0.09619 0.0
H843 H 0.47512 0.33158 0.08078 0.0
H844 H 0.49697 0.38381 0.12521 0.0
H845 H 0.44759 0.38544 0.28751 0.0
H846 H 0.4637 0.37102 0.30823 0.0
H847 H 0.45152 0.36687 0.24589 0.0
C848 C 0.48537 0.33273 0.21971 0.0
C849 C 0.4822 0.32583 0.16654 0.0
C850 C 0.48421 0.35004 0.22829 0.0
C851 C 0.4796 0.3608 0.18417 0.0
C852 C 0.47638 0.35396 0.13095 0.0
H853 H 0.47776 0.46339 0.31803 0.0
H854 H 0.46768 0.43993 0.25995 0.0
C855 C 0.47766 0.33659 0.12218 0.0
C856 C 0.47959 0.37924 0.19329 0.0
H857 H 0.46811 0.40852 0.29019 0.0
C858 C 0.49033 0.38934 0.16042 0.0
C859 C 0.47053 0.38663 0.238 0.0
C860 C 0.45754 0.37692 0.2714 0.0
C861 C 0.49349 0.40621 0.17456 0.0
C862 C 0.48608 0.41293 0.22366 0.0
C863 C 0.47408 0.40332 0.25314 0.0
C864 C 0.49229 0.4287 0.24981 0.0
C865 C 0.50517 0.41644 0.13774 0.0
C866 C 0.50947 0.43031 0.26282 0.0
C867 C 0.51521 0.44365 0.29562 0.0
C868 C 0.50387 0.45555 0.31693 0.0
C869 C 0.48675 0.45431 0.30239 0.0
C870 C 0.48101 0.44099 0.26905 0.0
H871 H 0.50392 0.41261 0.09311 0.0
H872 H 0.50263 0.43014 0.14109 0.0
H873 H 0.51839 0.41409 0.15039 0.0
H874 H 0.51835 0.42071 0.25031 0.0
H875 H 0.52841 0.44407 0.30704 0.0
H876 H 0.19761 0.45186 0.20544 0.0
H877 H 0.16856 0.45747 0.23327 0.0
H878 H 0.16496 0.49554 0.10458 0.0
H879 H 0.19417 0.49046 0.07782 0.0
H880 H 0.15811 0.5075 0.20878 0.0
H881 H 0.12141 0.44906 0.17233 0.0
H882 H 0.14062 0.44524 0.20973 0.0
H883 H 0.14149 0.4531 0.13889 0.0
C884 C 0.19053 0.46121 0.18241 0.0
C885 C 0.19825 0.47083 0.13985 0.0
C886 C 0.17385 0.46425 0.19787 0.0
C887 C 0.16457 0.47682 0.17067 0.0
C888 C 0.17189 0.4857 0.12581 0.0
H889 H 0.06406 0.50706 0.2872 0.0
H890 H 0.0872 0.49806 0.22591 0.0
C891 C 0.18857 0.4827 0.11039 0.0
C892 C 0.14838 0.48245 0.19475 0.0
H893 H 0.10998 0.46846 0.2404 0.0
C894 C 0.14747 0.49905 0.21474 0.0
C895 C 0.13449 0.47144 0.20227 0.0
C896 C 0.13446 0.45376 0.17915 0.0
C897 C 0.13338 0.50467 0.24452 0.0
C898 C 0.11997 0.49335 0.25508 0.0
C899 C 0.12043 0.47702 0.23269 0.0
C900 C 0.10584 0.49806 0.29196 0.0
C901 C 0.1331 0.52259 0.26559 0.0
C902 C 0.10872 0.50078 0.34926 0.0
C903 C 0.09562 0.50591 0.38419 0.0
C904 C 0.07941 0.50843 0.36232 0.0
C905 C 0.07649 0.50541 0.30498 0.0
C906 C 0.08962 0.50018 0.27007 0.0
H907 H 0.14227 0.53072 0.24276 0.0
H908 H 0.12033 0.52807 0.26119 0.0
H909 H 0.13646 0.52273 0.31077 0.0
H910 H 0.12118 0.49907 0.36683 0.0
H911 H 0.09827 0.50827 0.42807 0.0
H912 H 0.07919 0.80923 0.11543 0.0
H913 H 0.08873 0.83693 0.08192 0.0
H914 H 0.03908 0.85688 0.11177 0.0
H915 H 0.02959 0.82948 0.14555 0.0
H916 H 0.07755 0.8531 0.99233 0.0
H917 H 0.06747 0.89402 0.17538 0.0
H918 H 0.06777 0.87133 0.18126 0.0
H919 H 0.04868 0.8821 0.16198 0.0
C920 C 0.07041 0.81963 0.11558 0.0
C921 C 0.05366 0.81722 0.13338 0.0
C922 C 0.07589 0.83543 0.09667 0.0
C923 C 0.06472 0.84907 0.09537 0.0
C924 C 0.0481 0.84672 0.11415 0.0
H925 H 0.04325 0.92412 0.86777 0.0
H926 H 0.05147 0.89845 0.91603 0.0
C927 C 0.04266 0.83101 0.1333 0.0
C928 C 0.06961 0.86526 0.06873 0.0
H929 H 0.06463 0.90763 0.08357 0.0
C930 C 0.07515 0.86505 0.01274 0.0
C931 C 0.06696 0.8809 0.0956 0.0
C932 C 0.06258 0.88209 0.1571 0.0
C933 C 0.07656 0.87998 0.98148 0.0
C934 C 0.07187 0.89541 0.00649 0.0
C935 C 0.0679 0.89577 0.06392 0.0
C936 C 0.06889 0.9108 0.97274 0.0
C937 C 0.08255 0.87895 0.92148 0.0
C938 C 0.07576 0.9264 0.98887 0.0
C939 C 0.0709 0.9412 0.96157 0.0
C940 C 0.05907 0.94064 0.91773 0.0
C941 C 0.05265 0.92495 0.90056 0.0
C942 C 0.05741 0.91022 0.92804 0.0
H943 H 0.0917 0.86853 0.91615 0.0
H944 H 0.07165 0.87625 0.89379 0.0
H945 H 0.08859 0.89091 0.90757 0.0
H946 H 0.08454 0.92716 0.02355 0.0
H947 H 0.07612 0.95312 0.97549 0.0
H948 H 0.68632 0.96957 0.22764 0.0
H949 H 0.65672 0.97177 0.19945 0.0
H950 H 0.67219 0.99031 0.03705 0.0
H951 H 0.70159 0.9885 0.0649 0.0
H952 H 0.64099 1.00183 0.16659 0.0
H953 H 0.63713 0.95403 0.99826 0.0
H954 H 0.65379 0.95424 0.04983 0.0
H955 H 0.65486 0.96793 0.98965 0.0
C956 C 0.6834 0.97399 0.18578 0.0
C957 C 0.69634 0.97878 0.14843 0.0
C958 C 0.66652 0.97515 0.16971 0.0
C959 C 0.66233 0.98094 0.11592 0.0
C960 C 0.67519 0.98539 0.07826 0.0
H961 H 0.5852 0.03756 0.96939 0.0
H962 H 0.60866 0.02651 0.024 0.0
C963 C 0.69201 0.98431 0.09427 0.0
C964 C 0.6446 0.98382 0.10011 0.0
H965 H 0.61643 0.97615 0.99535 0.0
C966 C 0.63544 0.99597 0.12985 0.0
C967 C 0.63734 0.976 0.05267 0.0
C968 C 0.64623 0.96219 0.02109 0.0
C969 C 0.61962 1.00133 0.11106 0.0
C970 C 0.61299 0.99449 0.06096 0.0
C971 C 0.62164 0.98152 0.03345 0.0
C972 C 0.59789 1.00154 0.03359 0.0
C973 C 0.61036 0.01454 0.14423 0.0
C974 C 0.58413 0.99112 0.02053 0.0
C975 C 0.57071 0.9974 0.98915 0.0
C976 C 0.57092 0.01418 0.96997 0.0
C977 C 0.58455 0.02468 0.98432 0.0
C978 C 0.59795 0.01839 0.01564 0.0
H979 H 0.61414 0.01436 0.1891 0.0
H980 H 0.61351 0.02718 0.12708 0.0
H981 H 0.59651 0.0127 0.14153 0.0
H982 H 0.58392 0.97806 0.03377 0.0
H983 H 0.56028 0.98907 0.97925 0.0
H984 H 0.48965 0.69847 0.2135 0.0
H985 H 0.48687 0.66996 0.17452 0.0
H986 H 0.49048 0.69032 0.00704 0.0
H987 H 0.49353 0.71869 0.04536 0.0
H988 H 0.462 0.65752 0.08862 0.0
H989 H 0.52912 0.65438 0.02306 0.0
H990 H 0.52166 0.66897 0.07553 0.0
H991 H 0.51828 0.67321 1.00236 0.0
C992 C 0.48985 0.69682 0.16838 0.0
C993 C 0.49184 0.71076 0.13241 0.0
C994 C 0.48818 0.68061 0.1463 0.0
C995 C 0.48865 0.67815 0.08811 0.0
C996 C 0.49023 0.69204 0.05213 0.0
H997 H 0.48726 0.60048 0.84317 0.0
H998 H 0.48805 0.62644 0.89808 0.0
C999 C 0.49183 0.70822 0.07407 0.0
C1000 C 0.48791 0.66106 0.06435 0.0
H1001 H 0.51078 0.6333 0.98688 0.0
C1002 C 0.47268 0.65206 0.06692 0.0
C1003 C 0.50193 0.65411 0.03638 0.0
C1004 C 0.51874 0.66307 0.03442 0.0
C1005 C 0.47088 0.63648 0.03976 0.0
C1006 C 0.48478 0.62978 0.01027 0.0
C1007 C 0.50015 0.63857 0.00935 0.0
C1008 C 0.48352 0.61406 0.97769 0.0
C1009 C 0.45401 0.62764 0.04083 0.0
C1010 C 0.48074 0.59856 0.00452 0.0
C1011 C 0.48035 0.58369 0.97327 0.0
C1012 C 0.48286 0.58414 0.91485 0.0
C1013 C 0.48552 0.59973 0.8882 0.0
C1014 C 0.48588 0.61455 0.91941 0.0
H1015 H 0.44381 0.63601 0.05604 0.0
H1016 H 0.45065 0.62299 0.99836 0.0
H1017 H 0.45468 0.6166 0.06933 0.0
H1018 H 0.4792 0.59794 0.04965 0.0
H1019 H 0.47848 0.57182 0.99495 0.0
H1020 H 0.82357 0.56416 0.20526 0.0
H1021 H 0.85386 0.56532 0.1835 0.0
H1022 H 0.84526 0.53563 0.03487 0.0
H1023 H 0.81525 0.53416 0.05646 0.0
H1024 H 0.8723 0.52497 0.12359 0.0
H1025 H 0.87664 0.59003 0.03594 0.0
H1026 H 0.8644 0.58572 0.09834 0.0
H1027 H 0.8572 0.57817 0.03174 0.0
C1028 C 0.82817 0.55792 0.16793 0.0
C1029 C 0.81702 0.54915 0.13237 0.0
C1030 C 0.8454 0.55867 0.1555 0.0
C1031 C 0.85165 0.55062 0.10754 0.0
C1032 C 0.84058 0.54199 0.07192 0.0
H1033 H 0.92834 0.53675 0.8811 0.0
H1034 H 0.90476 0.54624 0.93799 0.0
C1035 C 0.82343 0.54128 0.08412 0.0
C1036 C 0.86981 0.55048 0.09454 0.0
H1037 H 0.89992 0.57221 0.02171 0.0
C1038 C 0.87857 0.53541 0.10262 0.0
C1039 C 0.87774 0.56414 0.06704 0.0
C1040 C 0.86861 0.5805 0.05751 0.0
C1041 C 0.89482 0.53326 0.08078 0.0
C1042 C 0.90247 0.54664 0.0506 0.0
C1043 C 0.89403 0.56205 0.04527 0.0
C1044 C 0.91787 0.54386 0.01706 0.0
C1045 C 0.90316 0.5163 0.08656 0.0
C1046 C 0.93327 0.53998 0.04264 0.0
C1047 C 0.94688 0.53459 0.01007 0.0
C1048 C 0.94527 0.53303 0.95148 0.0
C1049 C 0.93012 0.53796 0.92595 0.0
C1050 C 0.91658 0.54335 0.95845 0.0
H1051 H 0.89459 0.50667 0.10513 0.0
H1052 H 0.90749 0.51173 0.04496 0.0
H1053 H 0.91437 0.51751 0.11403 0.0
H1054 H 0.93454 0.54051 0.08785 0.0
H1055 H 0.9585 0.53118 0.03085 0.0
H1056 H 0.01153 0.20971 0.78023 0.0
H1057 H 0.00929 0.18054 0.74851 0.0
H1058 H 0.0187 0.16318 0.91694 0.0
H1059 H 0.02013 0.1923 0.94964 0.0
H1060 H 0.03184 0.15549 0.74802 0.0
H1061 H 0.97762 0.13576 0.8795 0.0
H1062 H 0.98382 0.15754 0.87189 0.0
H1063 H 0.99477 0.144 0.92009 0.0
C1064 C 0.01281 0.19974 0.81094 0.0
C1065 C 0.01589 0.20355 0.86781 0.0
C1066 C 0.01167 0.18298 0.7925 0.0
C1067 C 0.01352 0.16951 0.8303 0.0
C1068 C 0.01681 0.17324 0.88695 0.0
H1069 H 0.01683 0.06037 0.80593 0.0
H1070 H 0.01813 0.08993 0.83369 0.0
C1071 C 0.01788 0.19 0.90552 0.0
C1072 C 0.01246 0.15165 0.81013 0.0
H1073 H 0.99242 0.11389 0.83252 0.0
C1074 C 0.02312 0.14645 0.76628 0.0
C1075 C 1.00107 0.13973 0.83365 0.0
C1076 C 0.98855 0.14456 0.87848 0.0
C1077 C 0.02302 0.12971 0.74646 0.0
C1078 C 0.0118 0.11777 0.77053 0.0
C1079 C 1.00106 0.12298 0.81406 0.0
C1080 C 0.01127 0.09973 0.75224 0.0
C1081 C 0.03527 0.12483 0.70092 0.0
C1082 C 0.00688 0.09523 0.69704 0.0
C1083 C 1.0061 0.07821 0.68084 0.0
C1084 C 0.00966 0.06527 0.71953 0.0
C1085 C 0.01406 0.06988 0.77473 0.0
C1086 C 0.01478 0.08685 0.79085 0.0
H1087 H 0.0456 0.13423 0.69624 0.0
H1088 H 0.04087 0.11232 0.70975 0.0
H1089 H 0.02849 0.12402 0.66033 0.0
H1090 H 1.00382 0.10488 0.66661 0.0
H1091 H 1.00258 0.07521 0.63811 0.0
H1092 H 0.31456 0.99115 0.87832 0.0
H1093 H 0.34375 0.99098 0.84562 0.0
H1094 H 0.34369 0.04521 0.83697 0.0
H1095 H 0.31425 0.04548 0.86763 0.0
H1096 H 0.35843 0.03151 0.74421 0.0
H1097 H 0.38553 1.00241 0.93495 0.0
H1098 H 0.369 0.99004 0.90404 0.0
H1099 H 0.36432 0.01042 0.9329 0.0
C1100 C 0.32066 1.00308 0.86917 0.0
C1101 C 0.31189 0.01834 0.87595 0.0
C1102 C 0.3375 1.00296 0.85105 0.0
C1103 C 0.34614 0.0181 0.83956 0.0
C1104 C 0.33742 0.03334 0.84584 0.0
H1105 H 0.45502 0.02964 0.80859 0.0
H1106 H 0.42544 0.03018 0.8366 0.0
C1107 C 0.32056 0.03348 0.86395 0.0
C1108 C 0.36414 0.01804 0.82021 0.0
H1109 H 0.40371 1.00498 0.85613 0.0
C1110 C 0.36833 0.02573 0.76878 0.0
C1111 C 0.3772 0.0107 0.85237 0.0
C1112 C 0.37386 1.00307 0.90938 0.0
C1113 C 0.38504 0.02612 0.74847 0.0
C1114 C 0.39802 0.01834 0.77986 0.0
C1115 C 0.39384 0.01081 0.83157 0.0
C1116 C 0.41608 0.01833 0.76104 0.0
C1117 C 0.38867 0.03526 0.69419 0.0
C1118 C 0.42092 0.01144 0.70905 0.0
C1119 C 0.43794 0.01121 0.69259 0.0
C1120 C 0.45061 0.01769 0.728 0.0
C1121 C 0.44571 0.02454 0.78003 0.0
C1122 C 0.42872 0.02483 0.79627 0.0
H1123 H 0.37858 0.04438 0.68374 0.0
H1124 H 0.40087 0.04215 0.69624 0.0
H1125 H 0.38939 0.02597 0.65955 0.0
H1126 H 0.41155 1.00598 0.68147 0.0
H1127 H 0.44119 1.00571 0.65247 0.0
H1128 H 0.49978 0.33451 0.94334 0.0
H1129 H 0.49995 0.36296 0.90317 0.0
H1130 H 0.51703 0.34303 0.74502 0.0
H1131 H 0.51651 0.31456 0.78429 0.0
H1132 H 0.52721 0.38099 0.85695 0.0
H1133 H 0.47702 0.372 0.6978 0.0
H1134 H 0.48019 0.35743 0.755 0.0
H1135 H 0.49371 0.35686 0.69446 0.0
C1136 C 0.50336 0.33612 0.89977 0.0
C1137 C 0.5081 0.32214 0.86716 0.0
C1138 C 0.50355 0.35245 0.87693 0.0
C1139 C 0.50829 0.35519 0.82075 0.0
C1140 C 0.51304 0.34127 0.78812 0.0
H1141 H 0.51703 0.44728 0.61487 0.0
H1142 H 0.51745 0.41796 0.64827 0.0
C1143 C 0.51292 0.32497 0.81095 0.0
C1144 C 0.50878 0.37263 0.79688 0.0
H1145 H 0.49217 0.39779 0.69428 0.0
C1146 C 0.5195 0.38466 0.82149 0.0
C1147 C 0.49886 0.37746 0.75022 0.0
C1148 C 0.48667 0.36533 0.72301 0.0
C1149 C 0.52067 0.40124 0.80064 0.0
C1150 C 0.51054 0.40616 0.75454 0.0
C1151 C 0.49996 0.39408 0.72947 0.0
C1152 C 0.51023 0.42394 0.73354 0.0
C1153 C 0.53299 0.41326 0.82775 0.0
C1154 C 0.50574 0.43709 0.7698 0.0
C1155 C 0.50553 0.4538 0.75095 0.0
C1156 C 0.50966 0.45789 0.69498 0.0
C1157 C 0.51385 0.44467 0.65824 0.0
C1158 C 0.51408 0.42787 0.6773 0.0
H1159 H 0.54324 0.40642 0.84961 0.0
H1160 H 0.53872 0.42191 0.79631 0.0
H1161 H 0.52628 0.42094 0.85946 0.0
H1162 H 0.50228 0.43444 0.81292 0.0
H1163 H 0.50208 0.46352 0.7806 0.0
H1164 H 0.18531 0.49033 0.94153 0.0
H1165 H 0.15639 0.49038 0.90575 0.0
H1166 H 0.17314 0.51643 0.7568 0.0
H1167 H 0.20195 0.51665 0.79233 0.0
H1168 H 0.13575 0.51744 0.87623 0.0
H1169 H 0.14697 0.47663 0.69137 0.0
H1170 H 0.16187 0.47847 0.74819 0.0
H1171 H 0.16077 0.49459 0.69526 0.0
C1172 C 0.18287 0.49615 0.90126 0.0
C1173 C 0.19613 0.50334 0.86972 0.0
C1174 C 0.1663 0.49609 0.8807 0.0
C1175 C 0.16257 0.50311 0.82798 0.0
C1176 C 0.1757 0.51052 0.79685 0.0
H1177 H 0.0706 0.51746 0.6318 0.0
H1178 H 0.09971 0.5165 0.66589 0.0
C1179 C 0.19224 0.51061 0.81733 0.0
C1180 C 0.14492 0.5031 0.80614 0.0
H1181 H 0.12035 0.49005 0.69636 0.0
C1182 C 0.13237 0.51136 0.83708 0.0
C1183 C 0.14047 0.49525 0.75482 0.0
C1184 C 0.15317 0.4856 0.72064 0.0
C1185 C 0.11564 0.51227 0.81773 0.0
C1186 C 0.11116 0.50438 0.76649 0.0
C1187 C 0.12372 0.49612 0.73552 0.0
C1188 C 0.09349 0.50441 0.74476 0.0
C1189 C 0.10302 0.52208 0.85177 0.0
C1190 C 0.08028 0.49753 0.77687 0.0
C1191 C 0.06363 0.49809 0.75757 0.0
C1192 C 0.05972 0.50541 0.7053 0.0
C1193 C 0.07306 0.51178 0.67229 0.0
C1194 C 0.08974 0.51125 0.69177 0.0
H1195 H 0.1093 0.53123 0.88022 0.0
H1196 H 0.0942 0.52904 0.82418 0.0
H1197 H 0.09556 0.51322 0.87809 0.0
H1198 H 0.08282 0.49177 0.81716 0.0
H1199 H 0.0538 0.4929 0.78413 0.0
H1200 H 0.02727 0.82591 0.44871 0.0
H1201 H 0.02919 0.85343 0.49494 0.0
H1202 H 0.97802 0.86408 0.4471 0.0
H1203 H 0.97588 0.83651 0.40179 0.0
H1204 H 0.02504 0.88587 0.44943 0.0
H1205 H 0.97797 0.87344 0.61684 0.0
H1206 H 0.98719 0.85683 0.57539 0.0
H1207 H 0.97038 0.86932 0.5472 0.0
C1208 C 0.01637 0.83404 0.44839 0.0
C1209 C 1.0014 0.8289 0.42154 0.0
C1210 C 0.01751 0.84982 0.47466 0.0
C1211 C 1.00367 0.86077 0.47535 0.0
C1212 C 0.98879 0.85577 0.44807 0.0
H1213 H 0.99899 0.96799 0.53073 0.0
H1214 H 0.9996 0.9393 0.49477 0.0
C1215 C 0.98766 0.84005 0.42153 0.0
C1216 C 1.00488 0.87756 0.50343 0.0
H1217 H 0.98698 0.90195 0.60554 0.0
C1218 C 0.01679 0.88933 0.48379 0.0
C1219 C 0.99429 0.88206 0.54888 0.0
C1220 C 0.98183 0.86972 0.57379 0.0
C1221 C 0.01801 0.90561 0.507 0.0
C1222 C 0.00691 0.91036 0.55079 0.0
C1223 C 0.99539 0.8984 0.57173 0.0
C1224 C 1.00664 0.92787 0.57367 0.0
C1225 C 0.03121 0.91758 0.48445 0.0
C1226 C 0.01002 0.9311 0.63059 0.0
C1227 C 0.00967 0.94764 0.65163 0.0
C1228 C 1.00571 0.96129 0.61625 0.0
C1229 C 1.00214 0.95791 0.55943 0.0
C1230 C 1.00258 0.94145 0.53852 0.0
H1231 H 0.04154 0.91076 0.4629 0.0
H1232 H 0.02531 0.92617 0.45347 0.0
H1233 H 0.0367 0.92537 0.51858 0.0
H1234 H 0.01308 0.92082 0.65867 0.0
H1235 H 0.01245 0.94971 0.69556 0.0
H1236 H 0.69523 0.98826 0.51138 0.0
H1237 H 0.66689 0.98824 0.55133 0.0
H1238 H 0.65474 0.03244 0.45464 0.0
H1239 H 0.68334 0.03305 0.41637 0.0
H1240 H 0.64337 0.0352 0.56161 0.0
H1241 H 0.62392 0.97319 0.4763 0.0
H1242 H 0.64266 0.97221 0.51812 0.0
H1243 H 0.64281 0.98392 0.4534 0.0
C1244 C 0.68662 0.99809 0.49877 0.0
C1245 C 0.69173 0.01064 0.4603 0.0
C1246 C 0.67027 0.99792 0.52123 0.0
C1247 C 0.65847 0.01017 0.50544 0.0
C1248 C 0.66352 0.02277 0.46734 0.0
H1249 H 0.55023 1.0053 0.54501 0.0
H1250 H 0.57945 1.00521 0.51392 0.0
C1251 C 0.67989 0.02299 0.44498 0.0
C1252 C 0.64098 0.01001 0.52912 0.0
H1253 H 0.6054 0.98575 0.54205 0.0
C1254 C 0.63507 0.02438 0.5573 0.0
C1255 C 0.63 0.99599 0.52312 0.0
C1256 C 0.63508 0.98051 0.49064 0.0
C1257 C 0.61863 0.02509 0.57964 0.0
C1258 C 0.60779 0.01091 0.5748 0.0
C1259 C 0.6137 0.99657 0.54651 0.0
C1260 C 0.58994 0.01101 0.59538 0.0
C1261 C 0.61286 0.04124 0.60664 0.0
C1262 C 0.5859 0.01413 0.652 0.0
C1263 C 0.56901 0.01428 0.67012 0.0
C1264 C 0.55581 0.01114 0.63209 0.0
C1265 C 0.55997 0.00776 0.57573 0.0
C1266 C 0.57676 0.00769 0.55772 0.0
H1267 H 0.62094 0.05211 0.59433 0.0
H1268 H 0.59963 0.04409 0.59509 0.0
H1269 H 0.61352 0.03991 0.65294 0.0
H1270 H 0.5958 0.01634 0.68233 0.0
H1271 H 0.56632 0.01683 0.71386 0.0
H1272 H 0.51194 0.70749 0.5472 0.0
H1273 H 0.51098 0.67801 0.57766 0.0
H1274 H 0.51627 0.66186 0.40602 0.0
H1275 H 0.51736 0.69136 0.37515 0.0
H1276 H 0.48785 0.65091 0.54124 0.0
H1277 H 0.55502 0.63756 0.4938 0.0
H1278 H 0.54714 0.65873 0.50167 0.0
H1279 H 0.54308 0.64718 0.43838 0.0
C1280 C 0.51299 0.69769 0.51585 0.0
C1281 C 0.51485 0.70188 0.45865 0.0
C1282 C 0.51234 0.68081 0.53337 0.0
C1283 C 0.51374 0.66767 0.4943 0.0
C1284 C 0.51535 0.67176 0.43709 0.0
H1285 H 0.52097 0.55864 0.51501 0.0
H1286 H 0.5209 0.58827 0.48795 0.0
C1287 C 0.51584 0.68866 0.41944 0.0
C1288 C 0.5136 0.64973 0.51349 0.0
H1289 H 0.53818 0.6146 0.52323 0.0
C1290 C 0.49886 0.64296 0.53748 0.0
C1291 C 0.52794 0.63933 0.50855 0.0
C1292 C 0.54427 0.64602 0.48461 0.0
C1293 C 0.49794 0.62602 0.55534 0.0
C1294 C 0.51234 0.6156 0.55073 0.0
C1295 C 0.52712 0.62247 0.52701 0.0
C1296 C 0.51228 0.59744 0.56843 0.0
C1297 C 0.48134 0.61935 0.57717 0.0
C1298 C 0.50767 0.5925 0.62317 0.0
C1299 C 0.50755 0.5754 0.6388 0.0
C1300 C 0.5123 0.56283 0.60033 0.0
C1301 C 0.51725 0.56788 0.546 0.0
C1302 C 0.51722 0.5849 0.53032 0.0
H1303 H 0.48145 0.61963 0.62372 0.0
H1304 H 0.47061 0.62717 0.56277 0.0
H1305 H 0.47913 0.60616 0.56347 0.0
H1306 H 0.50427 0.60186 0.65408 0.0
H1307 H 0.50379 0.57206 0.68112 0.0
H1308 H 0.81786 0.53733 0.47794 0.0
H1309 H 0.84657 0.53745 0.51503 0.0
H1310 H 0.85825 0.49367 0.41589 0.0
H1311 H 0.8294 0.49313 0.37983 0.0
H1312 H 0.8695 0.49094 0.52581 0.0
H1313 H 0.88956 0.55211 0.43399 0.0
H1314 H 0.87067 0.55322 0.47534 0.0
H1315 H 0.87077 0.54115 0.41158 0.0
C1316 C 0.82649 0.52766 0.4641 0.0
C1317 C 0.82123 0.51524 0.42564 0.0
C1318 C 0.843 0.52787 0.48496 0.0
C1319 C 0.85471 0.51571 0.46776 0.0
C1320 C 0.84951 0.50326 0.4296 0.0
H1321 H 0.96341 0.51801 0.50893 0.0
H1322 H 0.93441 0.51823 0.47507 0.0
C1323 C 0.83301 0.50306 0.40861 0.0
C1324 C 0.87226 0.51576 0.49038 0.0
H1325 H 0.90823 0.53956 0.49926 0.0
C1326 C 0.87797 0.50157 0.51997 0.0
C1327 C 0.88343 0.52955 0.48232 0.0
C1328 C 0.8784 0.54482 0.44865 0.0
C1329 C 0.8944 0.50086 0.54211 0.0
C1330 C 0.90542 0.51481 0.53524 0.0
C1331 C 0.89977 0.52893 0.50514 0.0
C1332 C 0.92308 0.51478 0.55693 0.0
C1333 C 0.89993 0.48499 0.57151 0.0
C1334 C 0.9265 0.51298 0.61452 0.0
C1335 C 0.94317 0.51283 0.63421 0.0
C1336 C 0.95681 0.51457 0.59673 0.0
C1337 C 0.9533 0.5166 0.53919 0.0
C1338 C 0.93667 0.51675 0.51963 0.0
H1339 H 0.89165 0.4741 0.56109 0.0
H1340 H 0.9131 0.48178 0.56014 0.0
H1341 H 0.89936 0.48695 0.61756 0.0
H1342 H 0.91626 0.51177 0.64438 0.0
H1343 H 0.94534 0.51133 0.67879 0.0
loop_
_geom_bond_atom_site_label_1
_geom_bond_atom_site_label_2
_geom_bond_distance
_geom_bond_site_symmetry_2
_ccdc_geom_bond_type
C0 C1 1.264 . S
C0 C5 1.479 . S
C0 C10 1.465 . S
C1 C0 1.264 . S
C1 C3 1.339 . S
C1 H28 0.931 . S
C2 C3 1.395 . S
C2 C4 1.320 . S
C3 C1 1.339 . S
C3 C2 1.395 . S
C3 H29 0.929 . S
C4 C2 1.320 . S
C4 C5 1.405 . S
C4 H30 0.930 . S
C5 C0 1.479 . S
C5 C4 1.405 . S
C5 H31 0.931 . S
U6 O7 2.454 . S
U6 O8 2.458 . S
U6 C9 2.984 . S
U6 C10 2.847 . S
U6 C23 2.882 . S
U6 O24 2.441 . S
U6 O25 2.420 . S
U6 O26 2.455 . S
U6 O27 2.449 . S
O7 U6 2.454 . S
O7 C9 1.353 . S
O8 U6 2.458 . S
O8 C9 1.286 . S
C9 U6 2.984 . S
C9 O7 1.353 . S
C9 O8 1.286 . S
C9 C11 1.363 . S
C10 C0 1.465 . S
C10 U6 2.847 . S
C10 O24 1.249 . S
C10 O25 1.202 . S
C11 C9 1.363 . S
C11 C13 1.408 . S
C11 C16 1.342 . S
C12 C13 1.310 . S
C12 C15 1.461 . S
C12 H32 0.932 . S
C13 C11 1.408 . S
C13 C12 1.310 . S
C13 H33 0.930 . S
C14 C15 1.474 . S
C14 C16 1.285 . S
C14 H34 0.929 . S
C15 C12 1.461 . S
C15 C14 1.474 . S
C16 C11 1.342 . S
C16 C14 1.285 . S
C16 H35 0.930 . S
C17 C20 1.424 . S
C17 C22 1.245 . S
C17 C23 1.428 . S
C18 C21 1.260 . S
C18 C22 1.477 . S
C18 H36 0.932 . S
C19 C20 1.384 . S
C19 C21 1.479 . S
C19 H37 0.929 . S
C20 C17 1.424 . S
C20 C19 1.384 . S
C20 H38 0.928 . S
C21 C18 1.260 . S
C21 C19 1.479 . S
C22 C17 1.245 . S
C22 C18 1.477 . S
C22 H39 0.932 . S
C23 U6 2.882 . S
C23 C17 1.428 . S
C23 O26 1.301 . S
C23 O27 1.282 . S
O24 U6 2.441 . S
O24 C10 1.249 . S
O25 U6 2.420 . S
O25 C10 1.202 . S
O26 U6 2.455 . S
O26 C23 1.301 . S
O27 U6 2.449 . S
O27 C23 1.282 . S
H28 C1 0.931 . S
H29 C3 0.929 . S
H30 C4 0.930 . S
H31 C5 0.931 . S
H32 C12 0.932 . S
H33 C13 0.930 . S
H34 C14 0.929 . S
H35 C16 0.930 . S
H36 C18 0.932 . S
H37 C19 0.929 . S
H38 C20 0.928 . S
H39 C22 0.932 . S
C40 C41 1.264 . S
C40 C45 1.479 . S
C40 C50 1.465 . S
C41 C40 1.264 . S
C41 C43 1.339 . S
C41 H68 0.931 . S
C42 C43 1.395 . S
C42 C44 1.320 . S
C43 C41 1.339 . S
C43 C42 1.395 . S
C43 H69 0.929 . S
C44 C42 1.320 . S
C44 C45 1.405 . S
C44 H70 0.921 1_455 S
C45 C40 1.479 . S
C45 C44 1.405 . S
C45 H71 0.931 . S
U46 O47 2.454 . S
U46 O48 2.458 . S
U46 C49 2.984 . S
U46 C50 2.847 . S
U46 C63 2.882 . S
U46 O64 2.441 . S
U46 O65 2.420 . S
U46 O66 2.455 . S
U46 O67 2.449 . S
O47 U46 2.454 . S
O47 C49 1.353 . S
O48 U46 2.458 . S
O48 C49 1.286 . S
C49 U46 2.984 . S
C49 O47 1.353 . S
C49 O48 1.286 . S
C49 C51 1.363 . S
C50 C40 1.465 . S
C50 U46 2.847 . S
C50 O64 1.249 . S
C50 O65 1.202 . S
C51 C49 1.363 . S
C51 C53 1.408 . S
C51 C56 1.353 . S
C52 C53 1.310 . S
C52 C55 1.461 . S
C52 H72 0.936 . S
C53 C51 1.408 . S
C53 C52 1.310 . S
C53 H73 0.930 . S
C54 C55 1.474 1_655 S
C54 C56 1.282 1_655 S
C54 H74 0.930 . S
C55 C52 1.461 . S
C55 C54 1.474 1_455 S
C56 C51 1.353 . S
C56 C54 1.282 1_455 S
C56 H75 0.929 . S
C57 C60 1.424 . S
C57 C62 1.245 . S
C57 C63 1.428 . S
C58 C61 1.260 . S
C58 C62 1.477 . S
C58 H76 0.932 . S
C59 C60 1.384 . S
C59 C61 1.479 . S
C59 H77 0.929 . S
C60 C57 1.424 . S
C60 C59 1.384 . S
C60 H78 0.928 . S
C61 C58 1.260 . S
C61 C59 1.479 . S
C62 C57 1.245 . S
C62 C58 1.477 . S
C62 H79 0.932 . S
C63 U46 2.882 . S
C63 C57 1.428 . S
C63 O66 1.301 . S
C63 O67 1.282 . S
O64 U46 2.441 . S
O64 C50 1.249 . S
O65 U46 2.420 . S
O65 C50 1.202 . S
O66 U46 2.455 . S
O66 C63 1.301 . S
O67 U46 2.449 . S
O67 C63 1.282 . S
H68 C41 0.931 . S
H69 C43 0.929 . S
H70 C44 0.921 1_655 S
H71 C45 0.931 . S
H72 C52 0.936 . S
H73 C53 0.930 . S
H74 C54 0.930 . S
H75 C56 0.929 . S
H76 C58 0.932 . S
H77 C59 0.929 . S
H78 C60 0.928 . S
H79 C62 0.932 . S
C80 C81 1.263 . S
C80 C85 1.479 1_545 S
C80 C90 1.464 . S
C81 C80 1.263 . S
C81 C83 1.333 1_545 S
C81 H108 0.941 . S
C82 C83 1.395 . S
C82 C84 1.320 . S
C83 C81 1.333 1_565 S
C83 C82 1.395 . S
C83 H109 0.937 . S
C84 C82 1.320 . S
C84 C85 1.405 . S
C84 H110 0.930 . S
C85 C80 1.479 1_565 S
C85 C84 1.405 . S
C85 H111 0.931 . S
U86 O87 2.454 1_545 S
U86 O88 2.458 1_545 S
U86 C89 2.984 1_545 S
U86 C90 2.847 . S
U86 C103 2.882 . S
U86 O104 2.441 . S
U86 O105 2.420 . S
U86 O106 2.455 . S
U86 O107 2.449 . S
O87 U86 2.454 1_565 S
O87 C89 1.353 . S
O88 U86 2.458 1_565 S
O88 C89 1.286 . S
C89 U86 2.984 1_565 S
C89 O87 1.353 . S
C89 O88 1.286 . S
C89 C91 1.363 . S
C90 C80 1.464 . S
C90 U86 2.847 . S
C90 O104 1.249 . S
C90 O105 1.202 . S
C91 C89 1.363 . S
C91 C93 1.408 . S
C91 C96 1.342 . S
C92 C93 1.310 . S
C92 C95 1.461 . S
C92 H112 0.932 . S
C93 C91 1.408 . S
C93 C92 1.310 . S
C93 H113 0.930 . S
C94 C95 1.474 . S
C94 C96 1.285 . S
C94 H114 0.929 . S
C95 C92 1.461 . S
C95 C94 1.474 . S
C96 C91 1.342 . S
C96 C94 1.285 . S
C96 H115 0.930 . S
C97 C100 1.424 1_545 S
C97 C102 1.240 1_545 S
C97 C103 1.428 . S
C98 C101 1.260 . S
C98 C102 1.482 . S
C98 H116 0.932 . S
C99 C100 1.384 . S
C99 C101 1.479 . S
C99 H117 0.929 . S
C100 C97 1.424 1_565 S
C100 C99 1.384 . S
C100 H118 0.928 . S
C101 C98 1.260 . S
C101 C99 1.479 . S
C102 C97 1.240 1_565 S
C102 C98 1.482 . S
C102 H119 0.931 . S
C103 U86 2.882 . S
C103 C97 1.428 . S
C103 O106 1.301 . S
C103 O107 1.282 . S
O104 U86 2.441 . S
O104 C90 1.249 . S
O105 U86 2.420 . S
O105 C90 1.202 . S
O106 U86 2.455 . S
O106 C103 1.301 . S
O107 U86 2.449 . S
O107 C103 1.282 . S
H108 C81 0.941 . S
H109 C83 0.937 . S
H110 C84 0.930 . S
H111 C85 0.931 . S
H112 C92 0.932 . S
H113 C93 0.930 . S
H114 C94 0.929 . S
H115 C96 0.930 . S
H116 C98 0.932 . S
H117 C99 0.929 . S
H118 C100 0.928 . S
H119 C102 0.931 . S
C120 C121 1.264 . S
C120 C125 1.479 . S
C120 C130 1.465 . S
C121 C120 1.264 . S
C121 C123 1.339 . S
C121 H148 0.931 . S
C122 C123 1.395 . S
C122 C124 1.320 . S
C123 C121 1.339 . S
C123 C122 1.395 . S
C123 H149 0.929 . S
C124 C122 1.320 . S
C124 C125 1.405 . S
C124 H150 0.930 . S
C125 C120 1.479 . S
C125 C124 1.405 . S
C125 H151 0.931 . S
U126 O127 2.454 . S
U126 O128 2.458 . S
U126 C129 2.984 . S
U126 C130 2.847 . S
U126 C143 2.882 . S
U126 O144 2.441 . S
U126 O145 2.420 . S
U126 O146 2.455 . S
U126 O147 2.449 . S
O127 U126 2.454 . S
O127 C129 1.353 . S
O128 U126 2.458 . S
O128 C129 1.286 . S
C129 U126 2.984 . S
C129 O127 1.353 . S
C129 O128 1.286 . S
C129 C131 1.363 . S
C130 C120 1.465 . S
C130 U126 2.847 . S
C130 O144 1.249 . S
C130 O145 1.202 . S
C131 C129 1.363 . S
C131 C133 1.408 . S
C131 C136 1.342 . S
C132 C133 1.310 . S
C132 C135 1.461 . S
C132 H152 0.932 . S
C133 C131 1.408 . S
C133 C132 1.310 . S
C133 H153 0.930 . S
C134 C135 1.474 . S
C134 C136 1.285 . S
C134 H154 0.929 . S
C135 C132 1.461 . S
C135 C134 1.474 . S
C136 C131 1.342 . S
C136 C134 1.285 . S
C136 H155 0.930 . S
C137 C140 1.424 . S
C137 C142 1.245 . S
C137 C143 1.428 . S
C138 C141 1.260 . S
C138 C142 1.477 . S
C138 H156 0.932 . S
C139 C140 1.384 . S
C139 C141 1.479 . S
C139 H157 0.929 . S
C140 C137 1.424 . S
C140 C139 1.384 . S
C140 H158 0.928 . S
C141 C138 1.260 . S
C141 C139 1.479 . S
C142 C137 1.245 . S
C142 C138 1.477 . S
C142 H159 0.932 . S
C143 U126 2.882 . S
C143 C137 1.428 . S
C143 O146 1.301 . S
C143 O147 1.282 . S
O144 U126 2.441 . S
O144 C130 1.249 . S
O145 U126 2.420 . S
O145 C130 1.202 . S
O146 U126 2.455 . S
O146 C143 1.301 . S
O147 U126 2.449 . S
O147 C143 1.282 . S
H148 C121 0.931 . S
H149 C123 0.929 . S
H150 C124 0.930 . S
H151 C125 0.931 . S
H152 C132 0.932 . S
H153 C133 0.930 . S
H154 C134 0.929 . S
H155 C136 0.930 . S
H156 C138 0.932 . S
H157 C139 0.929 . S
H158 C140 0.928 . S
H159 C142 0.932 . S
C160 C161 1.264 . S
C160 C165 1.479 . S
C160 C170 1.465 . S
C161 C160 1.264 . S
C161 C163 1.339 . S
C161 H188 0.931 . S
C162 C163 1.395 . S
C162 C164 1.320 . S
C163 C161 1.339 . S
C163 C162 1.395 . S
C163 H189 0.929 . S
C164 C162 1.320 . S
C164 C165 1.405 . S
C164 H190 0.930 . S
C165 C160 1.479 . S
C165 C164 1.405 . S
C165 H191 0.931 . S
U166 O167 2.454 . S
U166 O168 2.458 . S
U166 C169 2.984 . S
U166 C170 2.847 1_554 S
U166 C183 2.882 . S
U166 O184 2.441 1_554 S
U166 O185 2.420 1_554 S
U166 O186 2.455 . S
U166 O187 2.449 . S
O167 U166 2.454 . S
O167 C169 1.353 . S
O168 U166 2.458 . S
O168 C169 1.286 . S
C169 U166 2.984 . S
C169 O167 1.353 . S
C169 O168 1.286 . S
C169 C171 1.363 . S
C170 C160 1.465 . S
C170 U166 2.847 1_556 S
C170 O184 1.249 . S
C170 O185 1.202 . S
C171 C169 1.363 . S
C171 C173 1.408 . S
C171 C176 1.342 . S
C172 C173 1.310 . S
C172 C175 1.461 . S
C172 H192 0.932 . S
C173 C171 1.408 . S
C173 C172 1.310 . S
C173 H193 0.930 1_554 S
C174 C175 1.474 . S
C174 C176 1.285 . S
C174 H194 0.929 . S
C175 C172 1.461 . S
C175 C174 1.474 . S
C176 C171 1.342 . S
C176 C174 1.285 . S
C176 H195 0.930 . S
C177 C180 1.424 . S
C177 C182 1.245 . S
C177 C183 1.428 . S
C178 C181 1.260 . S
C178 C182 1.477 . S
C178 H196 0.932 . S
C179 C180 1.384 . S
C179 C181 1.479 . S
C179 H197 0.929 . S
C180 C177 1.424 . S
C180 C179 1.384 . S
C180 H198 0.928 . S
C181 C178 1.260 . S
C181 C179 1.479 . S
C182 C177 1.245 . S
C182 C178 1.477 . S
C182 H199 0.932 . S
C183 U166 2.882 . S
C183 C177 1.428 . S
C183 O186 1.301 . S
C183 O187 1.282 . S
O184 U166 2.441 1_556 S
O184 C170 1.249 . S
O185 U166 2.420 1_556 S
O185 C170 1.202 . S
O186 U166 2.455 . S
O186 C183 1.301 . S
O187 U166 2.449 . S
O187 C183 1.282 . S
H188 C161 0.931 . S
H189 C163 0.929 . S
H190 C164 0.930 . S
H191 C165 0.931 . S
H192 C172 0.932 . S
H193 C173 0.930 1_556 S
H194 C174 0.929 . S
H195 C176 0.930 . S
H196 C178 0.932 . S
H197 C179 0.929 . S
H198 C180 0.928 . S
H199 C182 0.932 . S
C200 C201 1.264 . S
C200 C205 1.479 . S
C200 C210 1.465 . S
C201 C200 1.264 . S
C201 C203 1.339 . S
C201 H228 0.931 . S
C202 C203 1.395 . S
C202 C204 1.320 . S
C203 C201 1.339 . S
C203 C202 1.395 . S
C203 H229 0.929 . S
C204 C202 1.320 . S
C204 C205 1.405 . S
C204 H230 0.924 1_455 S
C205 C200 1.479 . S
C205 C204 1.405 . S
C205 H231 0.931 . S
U206 O207 2.454 . S
U206 O208 2.458 . S
U206 C209 2.984 . S
U206 C210 2.847 1_554 S
U206 C223 2.882 . S
U206 O224 2.441 1_554 S
U206 O225 2.420 1_554 S
U206 O226 2.455 . S
U206 O227 2.449 . S
O207 U206 2.454 . S
O207 C209 1.353 . S
O208 U206 2.458 . S
O208 C209 1.286 . S
C209 U206 2.984 . S
C209 O207 1.353 . S
C209 O208 1.286 . S
C209 C211 1.363 . S
C210 C200 1.465 . S
C210 U206 2.847 1_556 S
C210 O224 1.249 . S
C210 O225 1.202 . S
C211 C209 1.363 . S
C211 C213 1.408 . S
C211 C216 1.342 . S
C212 C213 1.310 . S
C212 C215 1.462 . S
C212 H232 0.932 . S
C213 C211 1.408 . S
C213 C212 1.310 . S
C213 H233 0.930 1_554 S
C214 C215 1.474 1_655 S
C214 C216 1.286 1_655 S
C214 H234 0.929 . S
C215 C212 1.462 . S
C215 C214 1.474 1_455 S
C216 C211 1.342 . S
C216 C214 1.286 1_455 S
C216 H235 0.933 . S
C217 C220 1.424 . S
C217 C222 1.245 . S
C217 C223 1.428 . S
C218 C221 1.260 . S
C218 C222 1.477 . S
C218 H236 0.932 . S
C219 C220 1.384 . S
C219 C221 1.479 . S
C219 H237 0.929 . S
C220 C217 1.424 . S
C220 C219 1.384 . S
C220 H238 0.928 . S
C221 C218 1.260 . S
C221 C219 1.479 . S
C222 C217 1.245 . S
C222 C218 1.477 . S
C222 H239 0.932 . S
C223 U206 2.882 . S
C223 C217 1.428 . S
C223 O226 1.301 . S
C223 O227 1.282 . S
O224 U206 2.441 1_556 S
O224 C210 1.249 . S
O225 U206 2.420 1_556 S
O225 C210 1.202 . S
O226 U206 2.455 . S
O226 C223 1.301 . S
O227 U206 2.449 . S
O227 C223 1.282 . S
H228 C201 0.931 . S
H229 C203 0.929 . S
H230 C204 0.924 1_655 S
H231 C205 0.931 . S
H232 C212 0.932 . S
H233 C213 0.930 1_556 S
H234 C214 0.929 . S
H235 C216 0.933 . S
H236 C218 0.932 . S
H237 C219 0.929 . S
H238 C220 0.928 . S
H239 C222 0.932 . S
C240 C241 1.264 . S
C240 C245 1.479 . S
C240 C250 1.465 . S
C241 C240 1.264 . S
C241 C243 1.339 . S
C241 H268 0.931 . S
C242 C243 1.395 . S
C242 C244 1.320 . S
C243 C241 1.339 . S
C243 C242 1.395 . S
C243 H269 0.929 . S
C244 C242 1.320 . S
C244 C245 1.405 . S
C244 H270 0.930 . S
C245 C240 1.479 . S
C245 C244 1.405 . S
C245 H271 0.931 . S
U246 O247 2.454 . S
U246 O248 2.458 . S
U246 C249 2.984 . S
U246 C250 2.847 1_554 S
U246 C263 2.882 . S
U246 O264 2.441 1_554 S
U246 O265 2.420 1_554 S
U246 O266 2.455 . S
U246 O267 2.449 . S
O247 U246 2.454 . S
O247 C249 1.353 . S
O248 U246 2.458 . S
O248 C249 1.286 . S
C249 U246 2.984 . S
C249 O247 1.353 . S
C249 O248 1.286 . S
C249 C251 1.363 . S
C250 C240 1.465 . S
C250 U246 2.847 1_556 S
C250 O264 1.249 . S
C250 O265 1.202 . S
C251 C249 1.363 . S
C251 C253 1.408 . S
C251 C256 1.342 . S
C252 C253 1.310 . S
C252 C255 1.461 . S
C252 H272 0.932 . S
C253 C251 1.408 . S
C253 C252 1.310 . S
C253 H273 0.930 1_554 S
C254 C255 1.474 . S
C254 C256 1.285 . S
C254 H274 0.929 . S
C255 C252 1.461 . S
C255 C254 1.474 . S
C256 C251 1.342 . S
C256 C254 1.285 . S
C256 H275 0.930 . S
C257 C260 1.424 . S
C257 C262 1.245 . S
C257 C263 1.428 . S
C258 C261 1.260 . S
C258 C262 1.477 . S
C258 H276 0.932 . S
C259 C260 1.384 . S
C259 C261 1.479 . S
C259 H277 0.929 . S
C260 C257 1.424 . S
C260 C259 1.384 . S
C260 H278 0.928 . S
C261 C258 1.260 . S
C261 C259 1.479 . S
C262 C257 1.245 . S
C262 C258 1.477 . S
C262 H279 0.932 . S
C263 U246 2.882 . S
C263 C257 1.428 . S
C263 O266 1.301 . S
C263 O267 1.282 . S
O264 U246 2.441 1_556 S
O264 C250 1.249 . S
O265 U246 2.420 1_556 S
O265 C250 1.202 . S
O266 U246 2.455 . S
O266 C263 1.301 . S
O267 U246 2.449 . S
O267 C263 1.282 . S
H268 C241 0.931 . S
H269 C243 0.929 . S
H270 C244 0.930 . S
H271 C245 0.931 . S
H272 C252 0.932 . S
H273 C253 0.930 1_556 S
H274 C254 0.929 . S
H275 C256 0.930 . S
H276 C258 0.932 . S
H277 C259 0.929 . S
H278 C260 0.928 . S
H279 C262 0.932 . S
C280 C281 1.264 . S
C280 C285 1.479 . S
C280 C290 1.465 . S
C281 C280 1.264 . S
C281 C283 1.339 . S
C281 H308 0.931 . S
C282 C283 1.395 . S
C282 C284 1.320 . S
C283 C281 1.339 . S
C283 C282 1.395 . S
C283 H309 0.929 . S
C284 C282 1.320 . S
C284 C285 1.405 . S
C284 H310 0.930 . S
C285 C280 1.479 . S
C285 C284 1.405 . S
C285 H311 0.931 . S
U286 O287 2.454 . S
U286 O288 2.458 . S
U286 C289 2.984 . S
U286 C290 2.847 1_554 S
U286 C303 2.882 . S
U286 O304 2.441 1_554 S
U286 O305 2.420 1_554 S
U286 O306 2.455 . S
U286 O307 2.449 . S
O287 U286 2.454 . S
O287 C289 1.353 . S
O288 U286 2.458 . S
O288 C289 1.286 . S
C289 U286 2.984 . S
C289 O287 1.353 . S
C289 O288 1.286 . S
C289 C291 1.363 . S
C290 C280 1.465 . S
C290 U286 2.847 1_556 S
C290 O304 1.249 . S
C290 O305 1.202 . S
C291 C289 1.363 . S
C291 C293 1.408 . S
C291 C296 1.342 . S
C292 C293 1.310 . S
C292 C295 1.461 . S
C292 H312 0.932 . S
C293 C291 1.408 . S
C293 C292 1.310 . S
C293 H313 0.930 1_554 S
C294 C295 1.474 . S
C294 C296 1.285 . S
C294 H314 0.929 . S
C295 C292 1.461 . S
C295 C294 1.474 . S
C296 C291 1.342 . S
C296 C294 1.285 . S
C296 H315 0.930 . S
C297 C300 1.424 . S
C297 C302 1.245 . S
C297 C303 1.428 . S
C298 C301 1.260 . S
C298 C302 1.477 . S
C298 H316 0.932 . S
C299 C300 1.384 . S
C299 C301 1.479 . S
C299 H317 0.929 . S
C300 C297 1.424 . S
C300 C299 1.384 . S
C300 H318 0.928 . S
C301 C298 1.260 . S
C301 C299 1.479 . S
C302 C297 1.245 . S
C302 C298 1.477 . S
C302 H319 0.932 . S
C303 U286 2.882 . S
C303 C297 1.428 . S
C303 O306 1.301 . S
C303 O307 1.282 . S
O304 U286 2.441 1_556 S
O304 C290 1.249 . S
O305 U286 2.420 1_556 S
O305 C290 1.202 . S
O306 U286 2.455 . S
O306 C303 1.301 . S
O307 U286 2.449 . S
O307 C303 1.282 . S
H308 C281 0.931 . S
H309 C283 0.929 . S
H310 C284 0.930 . S
H311 C285 0.931 . S
H312 C292 0.932 . S
H313 C293 0.930 1_556 S
H314 C294 0.929 . S
H315 C296 0.930 . S
H316 C298 0.932 . S
H317 C299 0.929 . S
H318 C300 0.928 . S
H319 C302 0.932 . S
Ho320 C323 2.811 . S
Ho320 O340 2.322 . S
Ho320 O342 2.378 . S
Ho320 O343 2.527 . S
Ho320 O344 2.381 . S
Ho320 O345 2.669 1_565 S
Ho320 O347 2.346 1_565 S
Ho320 O351 2.294 1_465 S
Ho321 C332 2.811 . S
Ho321 O341 2.346 1_545 S
Ho321 O345 2.305 1_655 S
Ho321 O346 2.322 . S
Ho321 O348 2.378 . S
Ho321 O349 2.521 . S
Ho321 O350 2.381 . S
Ho321 O351 2.697 . S
C322 O340 1.259 1_655 S
C322 O341 1.268 . S
C323 Ho320 2.811 . S
C323 C324 1.488 . S
C323 O342 1.215 . S
C323 O343 1.298 . S
C324 C323 1.488 . S
C324 C325 1.348 . S
C324 C329 1.413 . S
C325 C324 1.348 . S
C325 C326 1.442 . S
C325 H352 0.930 1_455 S
C326 C325 1.442 . S
C326 C327 1.381 . S
C326 H353 0.931 1_455 S
C327 C326 1.381 . S
C327 C328 1.321 . S
C328 C327 1.321 . S
C328 C329 1.403 . S
C328 H354 0.934 . S
C329 C324 1.413 . S
C329 C328 1.403 . S
C329 H355 0.930 . S
C330 O344 1.275 1_545 S
C330 O345 1.256 . S
C331 O346 1.259 1_455 S
C331 O347 1.268 . S
C332 Ho321 2.811 . S
C332 C333 1.488 . S
C332 O348 1.215 . S
C332 O349 1.283 . S
C333 C332 1.488 . S
C333 C334 1.348 . S
C333 C338 1.413 . S
C334 C333 1.348 . S
C334 C335 1.442 . S
C334 H356 0.930 1_655 S
C335 C334 1.442 . S
C335 C336 1.381 . S
C335 H357 0.931 1_655 S
C336 C335 1.381 . S
C336 C337 1.321 . S
C337 C336 1.321 . S
C337 C338 1.403 . S
C337 H358 0.934 . S
C338 C333 1.413 . S
C338 C337 1.403 . S
C338 H359 0.930 . S
C339 O350 1.275 . S
C339 O351 1.276 . S
O340 Ho320 2.322 . S
O340 C322 1.259 1_455 S
O341 Ho321 2.346 1_565 S
O341 C322 1.268 . S
O342 Ho320 2.378 . S
O342 C323 1.215 . S
O343 Ho320 2.527 . S
O343 C323 1.298 . S
O344 Ho320 2.381 . S
O344 C330 1.275 1_565 S
O345 Ho320 2.669 1_545 S
O345 Ho321 2.305 1_455 S
O345 C330 1.256 . S
O346 Ho321 2.322 . S
O346 C331 1.259 1_655 S
O347 Ho320 2.346 1_545 S
O347 C331 1.268 . S
O348 Ho321 2.378 . S
O348 C332 1.215 . S
O349 Ho321 2.521 . S
O349 C332 1.283 . S
O350 Ho321 2.381 . S
O350 C339 1.275 . S
O351 Ho320 2.294 1_645 S
O351 Ho321 2.697 . S
O351 C339 1.276 . S
H352 C325 0.930 1_655 S
H353 C326 0.931 1_655 S
H354 C328 0.934 . S
H355 C329 0.930 . S
H356 C334 0.930 1_455 S
H357 C335 0.931 1_455 S
H358 C337 0.934 . S
H359 C338 0.930 . S
Ho360 C363 2.811 . S
Ho360 O380 2.322 . S
Ho360 O382 2.378 . S
Ho360 O383 2.524 . S
Ho360 O384 2.381 . S
Ho360 O385 2.669 . S
Ho360 O387 2.346 . S
Ho360 O391 2.305 1_545 S
Ho361 C372 2.811 . S
Ho361 O381 2.346 . S
Ho361 O385 2.305 1_565 S
Ho361 O386 2.321 1_565 S
Ho361 O388 2.378 . S
Ho361 O389 2.524 1_565 S
Ho361 O390 2.381 . S
Ho361 O391 2.669 . S
C362 O380 1.259 1_565 S
C362 O381 1.268 . S
C363 Ho360 2.811 . S
C363 C364 1.488 . S
C363 O382 1.215 . S
C363 O383 1.289 . S
C364 C363 1.488 . S
C364 C365 1.348 . S
C364 C369 1.413 . S
C365 C364 1.348 . S
C365 C366 1.442 . S
C365 H392 0.930 1_545 S
C366 C365 1.442 . S
C366 C367 1.381 . S
C366 H393 0.931 1_545 S
C367 C366 1.381 . S
C367 C368 1.321 . S
C368 C367 1.321 . S
C368 C369 1.403 . S
C368 H394 0.934 . S
C369 C364 1.413 . S
C369 C368 1.403 . S
C369 H395 0.930 . S
C370 O384 1.275 . S
C370 O385 1.256 . S
C371 O386 1.260 . S
C371 O387 1.268 . S
C372 Ho361 2.811 . S
C372 C373 1.488 . S
C372 O388 1.215 . S
C372 O389 1.289 1_565 S
C373 C372 1.488 . S
C373 C374 1.348 1_565 S
C373 C378 1.413 . S
C374 C373 1.348 1_545 S
C374 C375 1.442 . S
C374 H396 0.930 . S
C375 C374 1.442 . S
C375 C376 1.381 1_545 S
C375 H397 0.931 . S
C376 C375 1.381 1_565 S
C376 C377 1.321 . S
C377 C376 1.321 . S
C377 C378 1.403 . S
C377 H398 0.934 . S
C378 C373 1.413 . S
C378 C377 1.403 . S
C378 H399 0.930 . S
C379 O390 1.275 . S
C379 O391 1.256 . S
O380 Ho360 2.322 . S
O380 C362 1.259 1_545 S
O381 Ho361 2.346 . S
O381 C362 1.268 . S
O382 Ho360 2.378 . S
O382 C363 1.215 . S
O383 Ho360 2.524 . S
O383 C363 1.289 . S
O384 Ho360 2.381 . S
O384 C370 1.275 . S
O385 Ho360 2.669 . S
O385 Ho361 2.305 1_545 S
O385 C370 1.256 . S
O386 Ho361 2.321 1_545 S
O386 C371 1.260 . S
O387 Ho360 2.346 . S
O387 C371 1.268 . S
O388 Ho361 2.378 . S
O388 C372 1.215 . S
O389 Ho361 2.524 1_545 S
O389 C372 1.289 1_545 S
O390 Ho361 2.381 . S
O390 C379 1.275 . S
O391 Ho360 2.305 1_565 S
O391 Ho361 2.669 . S
O391 C379 1.256 . S
H392 C365 0.930 1_565 S
H393 C366 0.931 1_565 S
H394 C368 0.934 . S
H395 C369 0.930 . S
H396 C374 0.930 . S
H397 C375 0.931 . S
H398 C377 0.934 . S
H399 C378 0.930 . S
Ho400 C403 2.811 . S
Ho400 O420 2.322 . S
Ho400 O422 2.378 . S
Ho400 O423 2.524 . S
Ho400 O424 2.381 . S
Ho400 O425 2.669 . S
Ho400 O427 2.346 . S
Ho400 O431 2.305 . S
Ho401 C412 2.811 . S
Ho401 O421 2.346 . S
Ho401 O425 2.305 . S
Ho401 O426 2.322 . S
Ho401 O428 2.378 . S
Ho401 O429 2.524 . S
Ho401 O430 2.381 . S
Ho401 O431 2.669 . S
C402 O420 1.259 . S
C402 O421 1.268 . S
C403 Ho400 2.811 . S
C403 C404 1.488 . S
C403 O422 1.215 . S
C403 O423 1.289 . S
C404 C403 1.488 . S
C404 C405 1.348 . S
C404 C409 1.413 . S
C405 C404 1.348 . S
C405 C406 1.442 . S
C405 H432 0.930 . S
C406 C405 1.442 . S
C406 C407 1.381 . S
C406 H433 0.931 . S
C407 C406 1.381 . S
C407 C408 1.321 . S
C408 C407 1.321 . S
C408 C409 1.403 . S
C408 H434 0.934 . S
C409 C404 1.413 . S
C409 C408 1.403 . S
C409 H435 0.930 . S
C410 O424 1.275 . S
C410 O425 1.256 . S
C411 O426 1.259 . S
C411 O427 1.268 . S
C412 Ho401 2.811 . S
C412 C413 1.488 . S
C412 O428 1.215 . S
C412 O429 1.289 . S
C413 C412 1.488 . S
C413 C414 1.348 . S
C413 C418 1.413 . S
C414 C413 1.348 . S
C414 C415 1.442 . S
C414 H436 0.930 . S
C415 C414 1.442 . S
C415 C416 1.381 . S
C415 H437 0.931 . S
C416 C415 1.381 . S
C416 C417 1.321 . S
C417 C416 1.321 . S
C417 C418 1.403 . S
C417 H438 0.934 . S
C418 C413 1.413 . S
C418 C417 1.403 . S
C418 H439 0.930 . S
C419 O430 1.275 . S
C419 O431 1.256 . S
O420 Ho400 2.322 . S
O420 C402 1.259 . S
O421 Ho401 2.346 . S
O421 C402 1.268 . S
O422 Ho400 2.378 . S
O422 C403 1.215 . S
O423 Ho400 2.524 . S
O423 C403 1.289 . S
O424 Ho400 2.381 . S
O424 C410 1.275 . S
O425 Ho400 2.669 . S
O425 Ho401 2.305 . S
O425 C410 1.256 . S
O426 Ho401 2.322 . S
O426 C411 1.259 . S
O427 Ho400 2.346 . S
O427 C411 1.268 . S
O428 Ho401 2.378 . S
O428 C412 1.215 . S
O429 Ho401 2.524 . S
O429 C412 1.289 . S
O430 Ho401 2.381 . S
O430 C419 1.275 . S
O431 Ho400 2.305 . S
O431 Ho401 2.669 . S
O431 C419 1.256 . S
H432 C405 0.930 . S
H433 C406 0.931 . S
H434 C408 0.934 . S
H435 C409 0.930 . S
H436 C414 0.930 . S
H437 C415 0.931 . S
H438 C417 0.934 . S
H439 C418 0.930 . S
Ho440 C443 2.811 . S
Ho440 O460 2.322 . S
Ho440 O462 2.378 . S
Ho440 O463 2.524 . S
Ho440 O464 2.381 . S
Ho440 O465 2.669 1_655 S
Ho440 O467 2.346 1_655 S
Ho440 O471 2.305 . S
Ho441 C452 2.811 . S
Ho441 O461 2.346 1_455 S
Ho441 O465 2.305 . S
Ho441 O466 2.322 . S
Ho441 O468 2.378 . S
Ho441 O469 2.524 . S
Ho441 O470 2.381 . S
Ho441 O471 2.669 1_455 S
C442 O460 1.259 . S
C442 O461 1.268 . S
C443 Ho440 2.811 . S
C443 C444 1.488 . S
C443 O462 1.215 . S
C443 O463 1.289 . S
C444 C443 1.488 . S
C444 C445 1.348 . S
C444 C449 1.413 . S
C445 C444 1.348 . S
C445 C446 1.442 . S
C445 H472 0.930 . S
C446 C445 1.442 . S
C446 C447 1.381 . S
C446 H473 0.931 . S
C447 C446 1.381 . S
C447 C448 1.321 . S
C448 C447 1.321 . S
C448 C449 1.403 . S
C448 H474 0.934 . S
C449 C444 1.413 . S
C449 C448 1.403 . S
C449 H475 0.930 . S
C450 O464 1.275 . S
C450 O465 1.256 1_655 S
C451 O466 1.259 . S
C451 O467 1.268 . S
C452 Ho441 2.811 . S
C452 C453 1.488 . S
C452 O468 1.215 . S
C452 O469 1.289 . S
C453 C452 1.488 . S
C453 C454 1.348 . S
C453 C458 1.413 . S
C454 C453 1.348 . S
C454 C455 1.442 . S
C454 H476 0.930 . S
C455 C454 1.442 . S
C455 C456 1.381 . S
C455 H477 0.931 . S
C456 C455 1.381 . S
C456 C457 1.321 . S
C457 C456 1.321 . S
C457 C458 1.403 . S
C457 H478 0.934 . S
C458 C453 1.413 . S
C458 C457 1.403 . S
C458 H479 0.930 . S
C459 O470 1.275 . S
C459 O471 1.256 1_455 S
O460 Ho440 2.322 . S
O460 C442 1.259 . S
O461 Ho441 2.346 1_655 S
O461 C442 1.268 . S
O462 Ho440 2.378 . S
O462 C443 1.215 . S
O463 Ho440 2.524 . S
O463 C443 1.289 . S
O464 Ho440 2.381 . S
O464 C450 1.275 . S
O465 Ho440 2.669 1_455 S
O465 Ho441 2.305 . S
O465 C450 1.256 1_455 S
O466 Ho441 2.322 . S
O466 C451 1.259 . S
O467 Ho440 2.346 1_455 S
O467 C451 1.268 . S
O468 Ho441 2.378 . S
O468 C452 1.215 . S
O469 Ho441 2.524 . S
O469 C452 1.289 . S
O470 Ho441 2.381 . S
O470 C459 1.275 . S
O471 Ho440 2.305 . S
O471 Ho441 2.669 1_655 S
O471 C459 1.256 1_655 S
H472 C445 0.930 . S
H473 C446 0.931 . S
H474 C448 0.934 . S
H475 C449 0.930 . S
H476 C454 0.930 . S
H477 C455 0.931 . S
H478 C457 0.934 . S
H479 C458 0.930 . S
H480 C488 0.929 . S
H481 C490 0.930 . S
H482 C492 0.887 1_565 S
H483 C495 0.928 . S
H484 C498 0.930 . S
H485 C500 0.960 . S
H486 C500 0.960 . S
H487 C500 0.960 . S
C488 H480 0.929 . S
C488 C489 1.377 . S
C488 C490 1.384 . S
C489 C488 1.377 . S
C489 C495 1.390 . S
C490 H481 0.930 . S
C490 C488 1.384 . S
C490 C491 1.372 . S
C491 C490 1.372 . S
C491 C492 1.400 . S
C491 C496 1.490 . S
C492 H482 0.887 1_545 S
C492 C491 1.400 . S
C492 C495 1.386 . S
H493 C509 0.930 . S
H494 C510 0.931 . S
C495 H483 0.928 . S
C495 C489 1.390 . S
C495 C492 1.386 . S
C496 C491 1.490 . S
C496 C498 1.395 . S
C496 C499 1.403 . S
H497 C503 0.930 . S
C498 H484 0.930 . S
C498 C496 1.395 . S
C498 C501 1.403 . S
C499 C496 1.403 . S
C499 C500 1.524 . S
C499 C503 1.400 . S
C500 H485 0.960 . S
C500 H486 0.960 . S
C500 H487 0.960 . S
C500 C499 1.524 . S
C501 C498 1.403 . S
C501 C502 1.392 . S
C501 C505 1.495 . S
C502 C501 1.392 . S
C502 C503 1.385 . S
C502 C504 1.478 . S
C503 H497 0.930 . S
C503 C499 1.400 . S
C503 C502 1.385 . S
C504 C502 1.478 . S
C504 C506 1.381 . S
C504 C510 1.383 1_545 S
C505 C501 1.495 . S
C505 H511 0.959 . S
C505 H512 0.961 1_545 S
C505 H513 0.960 . S
C506 C504 1.381 . S
C506 C507 1.394 . S
C506 H514 0.930 . S
C507 C506 1.394 . S
C507 C508 1.383 . S
C507 H515 0.929 . S
C508 C507 1.383 . S
C508 C509 1.377 1_545 S
C509 H493 0.930 . S
C509 C508 1.377 1_565 S
C509 C510 1.379 . S
C510 H494 0.931 . S
C510 C504 1.383 1_565 S
C510 C509 1.379 . S
H511 C505 0.959 . S
H512 C505 0.961 1_565 S
H513 C505 0.960 . S
H514 C506 0.930 . S
H515 C507 0.929 . S
H516 C524 0.929 . S
H517 C526 0.930 . S
H518 C528 0.930 . S
H519 C531 0.929 . S
H520 C534 0.930 . S
H521 C536 0.960 . S
H522 C536 0.960 . S
H523 C536 0.960 . S
C524 H516 0.929 . S
C524 C525 1.377 . S
C524 C526 1.384 . S
C525 C524 1.377 . S
C525 C531 1.390 . S
C526 H517 0.930 . S
C526 C524 1.384 . S
C526 C527 1.372 . S
C527 C526 1.372 . S
C527 C528 1.400 . S
C527 C532 1.490 . S
C528 H518 0.930 . S
C528 C527 1.400 . S
C528 C531 1.386 . S
H529 C545 0.930 . S
H530 C546 0.931 . S
C531 H519 0.929 . S
C531 C525 1.390 . S
C531 C528 1.386 . S
C532 C527 1.490 . S
C532 C534 1.395 . S
C532 C535 1.403 . S
H533 C539 0.930 . S
C534 H520 0.930 . S
C534 C532 1.395 . S
C534 C537 1.403 . S
C535 C532 1.403 . S
C535 C536 1.524 . S
C535 C539 1.400 . S
C536 H521 0.960 . S
C536 H522 0.960 . S
C536 H523 0.960 . S
C536 C535 1.524 . S
C537 C534 1.403 . S
C537 C538 1.392 . S
C537 C541 1.495 . S
C538 C537 1.392 . S
C538 C539 1.385 . S
C538 C540 1.478 . S
C539 H533 0.930 . S
C539 C535 1.400 . S
C539 C538 1.385 . S
C540 C538 1.478 . S
C540 C542 1.381 . S
C540 C546 1.383 . S
C541 C537 1.495 . S
C541 H547 0.959 . S
C541 H548 0.961 . S
C541 H549 0.960 . S
C542 C540 1.381 . S
C542 C543 1.394 . S
C542 H550 0.930 . S
C543 C542 1.394 . S
C543 C544 1.383 . S
C543 H551 0.929 . S
C544 C543 1.383 . S
C544 C545 1.377 . S
C545 H529 0.930 . S
C545 C544 1.377 . S
C545 C546 1.379 . S
C546 H530 0.931 . S
C546 C540 1.383 . S
C546 C545 1.379 . S
H547 C541 0.959 . S
H548 C541 0.961 . S
H549 C541 0.960 . S
H550 C542 0.930 . S
H551 C543 0.929 . S
H552 C560 0.929 . S
H553 C562 0.930 . S
H554 C564 0.930 . S
H555 C567 0.929 . S
H556 C570 0.930 . S
H557 C572 0.960 . S
H558 C572 0.960 . S
H559 C572 0.960 . S
C560 H552 0.929 . S
C560 C561 1.377 . S
C560 C562 1.384 . S
C561 C560 1.377 . S
C561 C567 1.390 . S
C562 H553 0.930 . S
C562 C560 1.384 . S
C562 C563 1.372 . S
C563 C562 1.372 . S
C563 C564 1.400 . S
C563 C568 1.490 . S
C564 H554 0.930 . S
C564 C563 1.400 . S
C564 C567 1.386 . S
H565 C581 0.930 . S
H566 C582 0.931 . S
C567 H555 0.929 . S
C567 C561 1.390 . S
C567 C564 1.386 . S
C568 C563 1.490 . S
C568 C570 1.395 . S
C568 C571 1.403 . S
H569 C575 0.930 . S
C570 H556 0.930 . S
C570 C568 1.395 . S
C570 C573 1.403 . S
C571 C568 1.403 . S
C571 C572 1.524 . S
C571 C575 1.400 . S
C572 H557 0.960 . S
C572 H558 0.960 . S
C572 H559 0.960 . S
C572 C571 1.524 . S
C573 C570 1.403 . S
C573 C574 1.392 . S
C573 C577 1.495 . S
C574 C573 1.392 . S
C574 C575 1.385 . S
C574 C576 1.478 . S
C575 H569 0.930 . S
C575 C571 1.400 . S
C575 C574 1.385 . S
C576 C574 1.478 . S
C576 C578 1.381 . S
C576 C582 1.383 . S
C577 C573 1.495 . S
C577 H583 0.959 . S
C577 H584 0.961 . S
C577 H585 0.960 . S
C578 C576 1.381 . S
C578 C579 1.394 . S
C578 H586 0.930 . S
C579 C578 1.394 . S
C579 C580 1.383 . S
C579 H587 0.929 . S
C580 C579 1.383 . S
C580 C581 1.377 . S
C581 H565 0.930 . S
C581 C580 1.377 . S
C581 C582 1.379 . S
C582 H566 0.931 . S
C582 C576 1.383 . S
C582 C581 1.379 . S
H583 C577 0.959 . S
H584 C577 0.961 . S
H585 C577 0.960 . S
H586 C578 0.930 . S
H587 C579 0.929 . S
H588 C596 0.929 . S
H589 C598 0.930 . S
H590 C600 0.930 . S
H591 C603 0.929 . S
H592 C606 0.930 . S
H593 C608 0.960 . S
H594 C608 0.960 . S
H595 C608 0.960 . S
C596 H588 0.929 . S
C596 C597 1.378 . S
C596 C598 1.384 . S
C597 C596 1.378 . S
C597 C603 1.389 1_655 S
C598 H589 0.930 . S
C598 C596 1.384 . S
C598 C599 1.377 . S
C599 C598 1.377 . S
C599 C600 1.395 1_655 S
C599 C604 1.490 1_655 S
C600 H590 0.930 . S
C600 C599 1.395 1_455 S
C600 C603 1.386 . S
H601 C617 0.930 . S
H602 C618 0.931 . S
C603 H591 0.929 . S
C603 C597 1.389 1_455 S
C603 C600 1.386 . S
C604 C599 1.490 1_455 S
C604 C606 1.396 . S
C604 C607 1.401 1_455 S
H605 C611 0.930 . S
C606 H592 0.930 . S
C606 C604 1.396 . S
C606 C609 1.403 . S
C607 C604 1.401 1_655 S
C607 C608 1.524 . S
C607 C611 1.400 . S
C608 H593 0.960 . S
C608 H594 0.960 . S
C608 H595 0.960 . S
C608 C607 1.524 . S
C609 C606 1.403 . S
C609 C610 1.392 . S
C609 C613 1.495 . S
C610 C609 1.392 . S
C610 C611 1.385 1_455 S
C610 C612 1.478 . S
C611 H605 0.930 . S
C611 C607 1.400 . S
C611 C610 1.385 1_655 S
C612 C610 1.478 . S
C612 C614 1.381 1_455 S
C612 C618 1.383 . S
C613 C609 1.495 . S
C613 H619 0.959 . S
C613 H620 0.961 . S
C613 H621 0.960 . S
C614 C612 1.381 1_655 S
C614 C615 1.394 . S
C614 H622 0.930 . S
C615 C614 1.394 . S
C615 C616 1.383 1_655 S
C615 H623 0.929 . S
C616 C615 1.383 1_455 S
C616 C617 1.377 . S
C617 H601 0.930 . S
C617 C616 1.377 . S
C617 C618 1.379 . S
C618 H602 0.931 . S
C618 C612 1.383 . S
C618 C617 1.379 . S
H619 C613 0.959 . S
H620 C613 0.961 . S
H621 C613 0.960 . S
H622 C614 0.930 . S
H623 C615 0.929 . S
H624 C632 0.929 . S
H625 C634 0.930 . S
H626 C636 0.930 . S
H627 C639 0.929 . S
H628 C642 0.930 . S
H629 C644 0.960 . S
H630 C644 0.960 . S
H631 C644 0.960 . S
C632 H624 0.929 . S
C632 C633 1.377 . S
C632 C634 1.384 . S
C633 C632 1.377 . S
C633 C639 1.390 1_565 S
C634 H625 0.930 . S
C634 C632 1.384 . S
C634 C635 1.372 . S
C635 C634 1.372 . S
C635 C636 1.400 1_565 S
C635 C640 1.479 1_554 S
C636 H626 0.930 . S
C636 C635 1.400 1_545 S
C636 C639 1.386 . S
H637 C653 0.930 . S
H638 C654 0.931 . S
C639 H627 0.929 . S
C639 C633 1.390 1_545 S
C639 C636 1.386 . S
C640 C635 1.479 1_556 S
C640 C642 1.405 1_565 S
C640 C643 1.403 . S
H641 C647 0.930 . S
C642 H628 0.930 . S
C642 C640 1.405 1_545 S
C642 C645 1.404 . S
C643 C640 1.403 . S
C643 C644 1.511 1_556 S
C643 C647 1.413 . S
C644 H629 0.960 . S
C644 H630 0.960 . S
C644 H631 0.960 . S
C644 C643 1.511 1_554 S
C645 C642 1.404 . S
C645 C646 1.383 1_545 S
C645 C649 1.495 . S
C646 C645 1.383 1_565 S
C646 C647 1.403 . S
C646 C648 1.473 1_565 S
C647 H641 0.930 . S
C647 C643 1.413 . S
C647 C646 1.403 . S
C648 C646 1.473 1_545 S
C648 C650 1.352 1_545 S
C648 C654 1.414 . S
C649 C645 1.495 . S
C649 H655 0.959 . S
C649 H656 0.961 . S
C649 H657 0.960 1_545 S
C650 C648 1.352 1_565 S
C650 C651 1.394 . S
C650 H658 0.930 . S
C651 C650 1.394 . S
C651 C652 1.383 1_565 S
C651 H659 0.929 . S
C652 C651 1.383 1_545 S
C652 C653 1.377 . S
C653 H637 0.930 . S
C653 C652 1.377 . S
C653 C654 1.379 . S
C654 H638 0.931 . S
C654 C648 1.414 . S
C654 C653 1.379 . S
H655 C649 0.959 . S
H656 C649 0.961 . S
H657 C649 0.960 1_565 S
H658 C650 0.930 . S
H659 C651 0.929 . S
H660 C668 0.929 . S
H661 C670 0.930 . S
H662 C672 0.930 . S
H663 C675 0.929 . S
H664 C678 0.930 . S
H665 C680 0.960 . S
H666 C680 0.960 . S
H667 C680 0.960 . S
C668 H660 0.929 . S
C668 C669 1.377 . S
C668 C670 1.384 . S
C669 C668 1.377 . S
C669 C675 1.390 . S
C670 H661 0.930 . S
C670 C668 1.384 . S
C670 C671 1.372 . S
C671 C670 1.372 . S
C671 C672 1.400 . S
C671 C676 1.491 1_554 S
C672 H662 0.930 . S
C672 C671 1.400 . S
C672 C675 1.386 . S
H673 C689 0.930 . S
H674 C690 0.931 . S
C675 H663 0.929 . S
C675 C669 1.390 . S
C675 C672 1.386 . S
C676 C671 1.491 1_556 S
C676 C678 1.394 . S
C676 C679 1.403 . S
H677 C683 0.930 . S
C678 H664 0.930 . S
C678 C676 1.394 . S
C678 C681 1.403 . S
C679 C676 1.403 . S
C679 C680 1.524 1_556 S
C679 C683 1.400 . S
C680 H665 0.960 . S
C680 H666 0.960 . S
C680 H667 0.960 . S
C680 C679 1.524 1_554 S
C681 C678 1.403 . S
C681 C682 1.392 . S
C681 C685 1.495 . S
C682 C681 1.392 . S
C682 C683 1.385 . S
C682 C684 1.478 . S
C683 H677 0.930 . S
C683 C679 1.400 . S
C683 C682 1.385 . S
C684 C682 1.478 . S
C684 C686 1.381 . S
C684 C690 1.383 . S
C685 C681 1.495 . S
C685 H691 0.959 . S
C685 H692 0.961 . S
C685 H693 0.960 . S
C686 C684 1.381 . S
C686 C687 1.394 . S
C686 H694 0.930 . S
C687 C686 1.394 . S
C687 C688 1.383 . S
C687 H695 0.929 . S
C688 C687 1.383 . S
C688 C689 1.377 . S
C689 H673 0.930 . S
C689 C688 1.377 . S
C689 C690 1.379 . S
C690 H674 0.931 . S
C690 C684 1.383 . S
C690 C689 1.379 . S
H691 C685 0.959 . S
H692 C685 0.961 . S
H693 C685 0.960 . S
H694 C686 0.930 . S
H695 C687 0.929 . S
H696 C704 0.929 . S
H697 C706 0.930 . S
H698 C708 0.930 . S
H699 C711 0.929 . S
H700 C714 0.930 1_554 S
H701 C716 0.960 . S
H702 C716 0.960 . S
H703 C716 0.960 . S
C704 H696 0.929 . S
C704 C705 1.377 . S
C704 C706 1.384 . S
C705 C704 1.377 . S
C705 C711 1.390 . S
C706 H697 0.930 . S
C706 C704 1.384 . S
C706 C707 1.372 . S
C707 C706 1.372 . S
C707 C708 1.400 . S
C707 C712 1.497 . S
C708 H698 0.930 . S
C708 C707 1.400 . S
C708 C711 1.386 . S
H709 C725 0.930 . S
H710 C726 0.931 . S
C711 H699 0.929 . S
C711 C705 1.390 . S
C711 C708 1.386 . S
C712 C707 1.497 . S
C712 C714 1.394 1_554 S
C712 C715 1.397 1_554 S
H713 C719 0.930 . S
C714 H700 0.930 1_556 S
C714 C712 1.394 1_556 S
C714 C717 1.403 . S
C715 C712 1.397 1_556 S
C715 C716 1.524 . S
C715 C719 1.400 . S
C716 H701 0.960 . S
C716 H702 0.960 . S
C716 H703 0.960 . S
C716 C715 1.524 . S
C717 C714 1.403 . S
C717 C718 1.392 . S
C717 C721 1.495 . S
C718 C717 1.392 . S
C718 C719 1.385 . S
C718 C720 1.478 . S
C719 H713 0.930 . S
C719 C715 1.400 . S
C719 C718 1.385 . S
C720 C718 1.478 . S
C720 C722 1.381 . S
C720 C726 1.383 . S
C721 C717 1.495 . S
C721 H727 0.959 . S
C721 H728 0.961 . S
C721 H729 0.960 . S
C722 C720 1.381 . S
C722 C723 1.394 . S
C722 H730 0.930 . S
C723 C722 1.394 . S
C723 C724 1.383 . S
C723 H731 0.929 . S
C724 C723 1.383 . S
C724 C725 1.377 . S
C725 H709 0.930 . S
C725 C724 1.377 . S
C725 C726 1.379 . S
C726 H710 0.931 . S
C726 C720 1.383 . S
C726 C725 1.379 . S
H727 C721 0.959 . S
H728 C721 0.961 . S
H729 C721 0.960 . S
H730 C722 0.930 . S
H731 C723 0.929 . S
H732 C740 0.929 . S
H733 C742 0.930 . S
H734 C744 0.930 . S
H735 C747 0.929 . S
H736 C750 0.930 . S
H737 C752 0.960 . S
H738 C752 0.960 1_455 S
H739 C752 0.960 . S
C740 H732 0.929 . S
C740 C741 1.375 . S
C740 C742 1.384 . S
C741 C740 1.375 . S
C741 C747 1.392 1_455 S
C742 H733 0.930 . S
C742 C740 1.384 . S
C742 C743 1.413 . S
C743 C742 1.413 . S
C743 C744 1.358 1_455 S
C743 C748 1.490 . S
C744 H734 0.930 . S
C744 C743 1.358 1_655 S
C744 C747 1.386 . S
H745 C761 0.930 . S
H746 C762 0.931 . S
C747 H735 0.929 . S
C747 C741 1.392 1_655 S
C747 C744 1.386 . S
C748 C743 1.490 . S
C748 C750 1.413 . S
C748 C751 1.388 1_454 S
H749 C755 0.930 . S
C750 H736 0.930 . S
C750 C748 1.413 . S
C750 C753 1.403 1_554 S
C751 C748 1.388 1_656 S
C751 C752 1.524 . S
C751 C755 1.400 . S
C752 H737 0.960 . S
C752 H738 0.960 1_655 S
C752 H739 0.960 . S
C752 C751 1.524 . S
C753 C750 1.403 1_556 S
C753 C754 1.392 . S
C753 C757 1.495 . S
C754 C753 1.392 . S
C754 C755 1.385 1_455 S
C754 C756 1.480 . S
C755 H749 0.930 . S
C755 C751 1.400 . S
C755 C754 1.385 1_655 S
C756 C754 1.480 . S
C756 C758 1.425 . S
C756 C762 1.338 1_455 S
C757 C753 1.495 . S
C757 H763 0.959 1_556 S
C757 H764 0.961 . S
C757 H765 0.960 . S
C758 C756 1.425 . S
C758 C759 1.394 . S
C758 H766 0.930 . S
C759 C758 1.394 . S
C759 C760 1.378 1_455 S
C759 H767 0.929 . S
C760 C759 1.378 1_655 S
C760 C761 1.382 . S
C761 H745 0.930 . S
C761 C760 1.382 . S
C761 C762 1.379 . S
C762 H746 0.931 . S
C762 C756 1.338 1_655 S
C762 C761 1.379 . S
H763 C757 0.959 1_554 S
H764 C757 0.961 . S
H765 C757 0.960 . S
H766 C758 0.930 . S
H767 C759 0.929 . S
H768 C776 0.929 . S
H769 C778 0.930 . S
H770 C780 0.930 . S
H771 C783 0.929 . S
H772 C786 0.930 . S
H773 C788 0.960 . S
H774 C788 0.960 . S
H775 C788 0.960 . S
C776 H768 0.929 . S
C776 C777 1.377 1_655 S
C776 C778 1.384 . S
C777 C776 1.377 1_455 S
C777 C783 1.390 . S
C778 H769 0.930 . S
C778 C776 1.384 . S
C778 C779 1.372 . S
C779 C778 1.372 . S
C779 C780 1.400 1_655 S
C779 C784 1.490 . S
C780 H770 0.930 . S
C780 C779 1.400 1_455 S
C780 C783 1.386 . S
H781 C797 0.930 . S
H782 C798 0.931 1_455 S
C783 H771 0.929 . S
C783 C777 1.390 . S
C783 C780 1.386 . S
C784 C779 1.490 . S
C784 C786 1.395 . S
C784 C787 1.403 . S
H785 C791 0.919 1_455 S
C786 H772 0.930 . S
C786 C784 1.395 . S
C786 C789 1.403 . S
C787 C784 1.403 . S
C787 C788 1.524 1_655 S
C787 C791 1.400 . S
C788 H773 0.960 . S
C788 H774 0.960 . S
C788 H775 0.960 . S
C788 C787 1.524 1_455 S
C789 C786 1.403 . S
C789 C790 1.392 . S
C789 C793 1.495 . S
C790 C789 1.392 . S
C790 C791 1.385 . S
C790 C792 1.478 . S
C791 H785 0.919 1_655 S
C791 C787 1.400 . S
C791 C790 1.385 . S
C792 C790 1.478 . S
C792 C794 1.381 . S
C792 C798 1.383 . S
C793 C789 1.495 . S
C793 H799 0.959 . S
C793 H800 0.961 . S
C793 H801 0.960 . S
C794 C792 1.381 . S
C794 C795 1.394 . S
C794 H802 0.930 . S
C795 C794 1.394 . S
C795 C796 1.383 . S
C795 H803 0.929 . S
C796 C795 1.383 . S
C796 C797 1.377 . S
C797 H781 0.930 . S
C797 C796 1.377 . S
C797 C798 1.379 . S
C798 H782 0.931 1_655 S
C798 C792 1.383 . S
C798 C797 1.379 . S
H799 C793 0.959 . S
H800 C793 0.961 . S
H801 C793 0.960 . S
H802 C794 0.930 . S
H803 C795 0.929 . S
H804 C812 0.929 . S
H805 C814 0.930 . S
H806 C816 0.930 . S
H807 C819 0.929 . S
H808 C822 0.930 . S
H809 C824 0.960 . S
H810 C824 0.960 . S
H811 C824 0.960 . S
C812 H804 0.929 . S
C812 C813 1.377 . S
C812 C814 1.384 . S
C813 C812 1.377 . S
C813 C819 1.390 . S
C814 H805 0.930 . S
C814 C812 1.384 . S
C814 C815 1.372 . S
C815 C814 1.372 . S
C815 C816 1.400 . S
C815 C820 1.490 . S
C816 H806 0.930 . S
C816 C815 1.400 . S
C816 C819 1.386 . S
H817 C833 0.936 . S
H818 C834 0.972 . S
C819 H807 0.929 . S
C819 C813 1.390 . S
C819 C816 1.386 . S
C820 C815 1.490 . S
C820 C822 1.395 . S
C820 C823 1.403 1_545 S
H821 C827 0.930 . S
C822 H808 0.930 . S
C822 C820 1.395 . S
C822 C825 1.403 . S
C823 C820 1.403 1_565 S
C823 C824 1.524 . S
C823 C827 1.400 . S
C824 H809 0.960 . S
C824 H810 0.960 . S
C824 H811 0.960 . S
C824 C823 1.524 . S
C825 C822 1.403 . S
C825 C826 1.392 1_545 S
C825 C829 1.495 . S
C826 C825 1.392 1_565 S
C826 C827 1.385 . S
C826 C828 1.478 . S
C827 H821 0.930 . S
C827 C823 1.400 . S
C827 C826 1.385 . S
C828 C826 1.478 . S
C828 C830 1.381 . S
C828 C834 1.364 1_565 S
C829 C825 1.495 . S
C829 H835 0.959 . S
C829 H836 0.961 . S
C829 H837 0.960 . S
C830 C828 1.381 . S
C830 C831 1.394 . S
C830 H838 0.930 . S
C831 C830 1.394 . S
C831 C832 1.383 . S
C831 H839 0.929 . S
C832 C831 1.383 . S
C832 C833 1.377 . S
C833 H817 0.936 . S
C833 C832 1.377 . S
C833 C834 1.362 1_565 S
C834 H818 0.972 . S
C834 C828 1.364 1_545 S
C834 C833 1.362 1_545 S
H835 C829 0.959 . S
H836 C829 0.961 . S
H837 C829 0.960 . S
H838 C830 0.930 . S
H839 C831 0.929 . S
H840 C848 0.929 . S
H841 C850 0.930 . S
H842 C852 0.930 . S
H843 C855 0.929 . S
H844 C858 0.930 . S
H845 C860 0.960 . S
H846 C860 0.960 . S
H847 C860 0.960 . S
C848 H840 0.929 . S
C848 C849 1.377 . S
C848 C850 1.384 . S
C849 C848 1.377 . S
C849 C855 1.390 . S
C850 H841 0.930 . S
C850 C848 1.384 . S
C850 C851 1.372 . S
C851 C850 1.372 . S
C851 C852 1.400 . S
C851 C856 1.490 . S
C852 H842 0.930 . S
C852 C851 1.400 . S
C852 C855 1.386 . S
H853 C869 0.930 . S
H854 C870 0.931 . S
C855 H843 0.929 . S
C855 C849 1.390 . S
C855 C852 1.386 . S
C856 C851 1.490 . S
C856 C858 1.395 . S
C856 C859 1.403 . S
H857 C863 0.930 . S
C858 H844 0.930 . S
C858 C856 1.395 . S
C858 C861 1.403 . S
C859 C856 1.403 . S
C859 C860 1.524 . S
C859 C863 1.400 . S
C860 H845 0.960 . S
C860 H846 0.960 . S
C860 H847 0.960 . S
C860 C859 1.524 . S
C861 C858 1.403 . S
C861 C862 1.392 . S
C861 C865 1.495 . S
C862 C861 1.392 . S
C862 C863 1.385 . S
C862 C864 1.478 . S
C863 H857 0.930 . S
C863 C859 1.400 . S
C863 C862 1.385 . S
C864 C862 1.478 . S
C864 C866 1.381 . S
C864 C870 1.383 . S
C865 C861 1.495 . S
C865 H871 0.959 . S
C865 H872 0.961 . S
C865 H873 0.960 . S
C866 C864 1.381 . S
C866 C867 1.394 . S
C866 H874 0.930 . S
C867 C866 1.394 . S
C867 C868 1.383 . S
C867 H875 0.929 . S
C868 C867 1.383 . S
C868 C869 1.377 . S
C869 H853 0.930 . S
C869 C868 1.377 . S
C869 C870 1.379 . S
C870 H854 0.931 . S
C870 C864 1.383 . S
C870 C869 1.379 . S
H871 C865 0.959 . S
H872 C865 0.961 . S
H873 C865 0.960 . S
H874 C866 0.930 . S
H875 C867 0.929 . S
H876 C884 0.929 . S
H877 C886 0.930 . S
H878 C888 0.930 . S
H879 C891 0.929 . S
H880 C894 0.930 . S
H881 C896 0.960 . S
H882 C896 0.960 . S
H883 C896 0.960 . S
C884 H876 0.929 . S
C884 C885 1.377 . S
C884 C886 1.384 . S
C885 C884 1.377 . S
C885 C891 1.390 . S
C886 H877 0.930 . S
C886 C884 1.384 . S
C886 C887 1.372 . S
C887 C886 1.372 . S
C887 C888 1.400 . S
C887 C892 1.490 . S
C888 H878 0.930 . S
C888 C887 1.400 . S
C888 C891 1.386 . S
H889 C905 0.930 . S
H890 C906 0.931 . S
C891 H879 0.929 . S
C891 C885 1.390 . S
C891 C888 1.386 . S
C892 C887 1.490 . S
C892 C894 1.395 . S
C892 C895 1.403 . S
H893 C899 0.930 . S
C894 H880 0.930 . S
C894 C892 1.395 . S
C894 C897 1.403 . S
C895 C892 1.403 . S
C895 C896 1.524 . S
C895 C899 1.400 . S
C896 H881 0.960 . S
C896 H882 0.960 . S
C896 H883 0.960 . S
C896 C895 1.524 . S
C897 C894 1.403 . S
C897 C898 1.392 . S
C897 C901 1.495 . S
C898 C897 1.392 . S
C898 C899 1.385 . S
C898 C900 1.478 . S
C899 H893 0.930 . S
C899 C895 1.400 . S
C899 C898 1.385 . S
C900 C898 1.478 . S
C900 C902 1.381 . S
C900 C906 1.383 . S
C901 C897 1.495 . S
C901 H907 0.959 . S
C901 H908 0.961 . S
C901 H909 0.960 . S
C902 C900 1.381 . S
C902 C903 1.394 . S
C902 H910 0.930 . S
C903 C902 1.394 . S
C903 C904 1.383 . S
C903 H911 0.929 . S
C904 C903 1.383 . S
C904 C905 1.377 . S
C905 H889 0.930 . S
C905 C904 1.377 . S
C905 C906 1.379 . S
C906 H890 0.931 . S
C906 C900 1.383 . S
C906 C905 1.379 . S
H907 C901 0.959 . S
H908 C901 0.961 . S
H909 C901 0.960 . S
H910 C902 0.930 . S
H911 C903 0.929 . S
H912 C920 0.929 . S
H913 C922 0.930 1_556 S
H914 C924 0.930 . S
H915 C927 0.929 . S
H916 C930 0.930 . S
H917 C932 0.960 . S
H918 C932 0.963 1_455 S
H919 C932 0.956 . S
C920 H912 0.929 . S
C920 C921 1.377 1_455 S
C920 C922 1.384 . S
C921 C920 1.377 1_655 S
C921 C927 1.390 . S
C922 H913 0.930 1_554 S
C922 C920 1.384 . S
C922 C923 1.372 1_554 S
C923 C922 1.372 1_556 S
C923 C924 1.400 1_456 S
C923 C928 1.490 . S
C924 H914 0.930 . S
C924 C923 1.400 1_654 S
C924 C927 1.386 . S
H925 C941 0.938 . S
H926 C942 0.931 1_655 S
C927 H915 0.929 . S
C927 C921 1.390 . S
C927 C924 1.386 . S
C928 C923 1.490 . S
C928 C930 1.395 . S
C928 C931 1.403 . S
H929 C935 0.930 . S
C930 H916 0.930 . S
C930 C928 1.395 . S
C930 C933 1.403 . S
C931 C928 1.403 . S
C931 C932 1.525 1_456 S
C931 C935 1.400 . S
C932 H917 0.960 . S
C932 H918 0.963 1_655 S
C932 H919 0.956 . S
C932 C931 1.525 1_654 S
C933 C930 1.403 . S
C933 C934 1.392 . S
C933 C937 1.495 . S
C934 C933 1.392 . S
C934 C935 1.385 . S
C934 C936 1.478 . S
C935 H929 0.930 . S
C935 C931 1.400 . S
C935 C934 1.385 . S
C936 C934 1.478 . S
C936 C938 1.381 . S
C936 C942 1.383 . S
C937 C933 1.495 . S
C937 H943 0.959 . S
C937 H944 0.961 . S
C937 H945 0.960 . S
C938 C936 1.381 . S
C938 C939 1.394 . S
C938 H946 0.930 . S
C939 C938 1.394 . S
C939 C940 1.383 . S
C939 H947 0.929 . S
C940 C939 1.383 . S
C940 C941 1.377 . S
C941 H925 0.938 . S
C941 C940 1.377 . S
C941 C942 1.379 . S
C942 H926 0.931 1_455 S
C942 C936 1.383 . S
C942 C941 1.379 . S
H943 C937 0.959 . S
H944 C937 0.961 . S
H945 C937 0.960 . S
H946 C938 0.930 . S
H947 C939 0.929 . S
H948 C956 0.929 . S
H949 C958 0.930 . S
H950 C960 0.930 . S
H951 C963 0.927 1_545 S
H952 C966 0.930 . S
H953 C968 0.960 . S
H954 C968 0.960 . S
H955 C968 0.960 . S
C956 H948 0.929 . S
C956 C957 1.377 . S
C956 C958 1.384 . S
C957 C956 1.377 . S
C957 C963 1.394 1_554 S
C958 H949 0.930 . S
C958 C956 1.384 . S
C958 C959 1.372 1_554 S
C959 C958 1.372 1_556 S
C959 C960 1.400 1_565 S
C959 C964 1.490 1_565 S
C960 H950 0.930 . S
C960 C959 1.400 1_545 S
C960 C963 1.384 1_545 S
H961 C977 0.930 . S
H962 C978 0.931 . S
C963 H951 0.927 1_565 S
C963 C957 1.394 1_556 S
C963 C960 1.384 1_565 S
C964 C959 1.490 1_545 S
C964 C966 1.395 1_556 S
C964 C967 1.403 1_545 S
H965 C971 0.930 . S
C966 H952 0.930 . S
C966 C964 1.395 1_554 S
C966 C969 1.404 1_554 S
C967 C964 1.403 1_565 S
C967 C968 1.524 . S
C967 C971 1.400 1_565 S
C968 H953 0.960 . S
C968 H954 0.960 . S
C968 H955 0.960 . S
C968 C967 1.524 . S
C969 C966 1.404 1_556 S
C969 C970 1.392 . S
C969 C973 1.495 1_556 S
C970 C969 1.392 . S
C970 C971 1.385 . S
C970 C972 1.478 . S
C971 H965 0.930 . S
C971 C967 1.400 1_545 S
C971 C970 1.385 . S
C972 C970 1.478 . S
C972 C974 1.381 . S
C972 C978 1.383 . S
C973 C969 1.495 1_554 S
C973 H979 0.959 . S
C973 H980 0.961 1_554 S
C973 H981 0.960 . S
C974 C972 1.381 . S
C974 C975 1.394 . S
C974 H982 0.930 . S
C975 C974 1.394 . S
C975 C976 1.383 . S
C975 H983 0.929 . S
C976 C975 1.383 . S
C976 C977 1.377 . S
C977 H961 0.930 . S
C977 C976 1.377 . S
C977 C978 1.379 . S
C978 H962 0.931 . S
C978 C972 1.383 . S
C978 C977 1.379 . S
H979 C973 0.959 . S
H980 C973 0.961 1_556 S
H981 C973 0.960 . S
H982 C974 0.930 . S
H983 C975 0.929 . S
H984 C992 0.929 . S
H985 C994 0.930 . S
H986 C996 0.930 . S
H987 C999 0.929 . S
H988 C1002 0.930 . S
H989 C1004 0.960 . S
H990 C1004 0.960 . S
H991 C1004 0.960 . S
C992 H984 0.929 . S
C992 C993 1.377 . S
C992 C994 1.384 . S
C993 C992 1.377 . S
C993 C999 1.390 1_554 S
C994 H985 0.930 . S
C994 C992 1.384 . S
C994 C995 1.372 1_554 S
C995 C994 1.372 1_556 S
C995 C996 1.400 . S
C995 C1000 1.490 . S
C996 H986 0.930 . S
C996 C995 1.400 . S
C996 C999 1.386 . S
H997 C1013 0.930 . S
H998 C1014 0.931 . S
C999 H987 0.929 . S
C999 C993 1.390 1_556 S
C999 C996 1.386 . S
C1000 C995 1.490 . S
C1000 C1002 1.395 . S
C1000 C1003 1.403 . S
H1001 C1007 0.930 . S
C1002 H988 0.930 . S
C1002 C1000 1.395 . S
C1002 C1005 1.403 . S
C1003 C1000 1.403 . S
C1003 C1004 1.524 . S
C1003 C1007 1.400 . S
C1004 H989 0.960 . S
C1004 H990 0.960 . S
C1004 H991 0.960 . S
C1004 C1003 1.524 . S
C1005 C1002 1.403 . S
C1005 C1006 1.392 . S
C1005 C1009 1.495 . S
C1006 C1005 1.392 . S
C1006 C1007 1.385 . S
C1006 C1008 1.478 . S
C1007 H1001 0.930 . S
C1007 C1003 1.400 . S
C1007 C1006 1.385 . S
C1008 C1006 1.478 . S
C1008 C1010 1.381 . S
C1008 C1014 1.383 . S
C1009 C1005 1.495 . S
C1009 H1015 0.959 . S
C1009 H1016 0.961 . S
C1009 H1017 0.960 . S
C1010 C1008 1.381 . S
C1010 C1011 1.394 . S
C1010 H1018 0.930 . S
C1011 C1010 1.394 . S
C1011 C1012 1.383 . S
C1011 H1019 0.929 . S
C1012 C1011 1.383 . S
C1012 C1013 1.377 . S
C1013 H997 0.930 . S
C1013 C1012 1.377 . S
C1013 C1014 1.379 . S
C1014 H998 0.931 . S
C1014 C1008 1.383 . S
C1014 C1013 1.379 . S
H1015 C1009 0.959 . S
H1016 C1009 0.961 . S
H1017 C1009 0.960 . S
H1018 C1010 0.930 . S
H1019 C1011 0.929 . S
H1020 C1028 0.929 . S
H1021 C1030 0.930 . S
H1022 C1032 0.930 . S
H1023 C1035 0.929 . S
H1024 C1038 0.930 1_554 S
H1025 C1040 0.960 . S
H1026 C1040 0.960 . S
H1027 C1040 0.960 . S
C1028 H1020 0.929 . S
C1028 C1029 1.377 . S
C1028 C1030 1.384 . S
C1029 C1028 1.377 . S
C1029 C1035 1.390 1_554 S
C1030 H1021 0.930 . S
C1030 C1028 1.384 . S
C1030 C1031 1.372 1_554 S
C1031 C1030 1.372 1_556 S
C1031 C1032 1.400 . S
C1031 C1036 1.490 . S
C1032 H1022 0.930 . S
C1032 C1031 1.400 . S
C1032 C1035 1.386 . S
H1033 C1049 0.930 . S
H1034 C1050 0.931 . S
C1035 H1023 0.929 . S
C1035 C1029 1.390 1_556 S
C1035 C1032 1.386 . S
C1036 C1031 1.490 . S
C1036 C1038 1.395 . S
C1036 C1039 1.403 . S
H1037 C1043 0.930 . S
C1038 H1024 0.930 1_556 S
C1038 C1036 1.395 . S
C1038 C1041 1.403 . S
C1039 C1036 1.403 . S
C1039 C1040 1.524 . S
C1039 C1043 1.400 . S
C1040 H1025 0.960 . S
C1040 H1026 0.960 . S
C1040 H1027 0.960 . S
C1040 C1039 1.524 . S
C1041 C1038 1.403 . S
C1041 C1042 1.392 . S
C1041 C1045 1.495 . S
C1042 C1041 1.392 . S
C1042 C1043 1.385 . S
C1042 C1044 1.478 . S
C1043 H1037 0.930 . S
C1043 C1039 1.400 . S
C1043 C1042 1.385 . S
C1044 C1042 1.478 . S
C1044 C1046 1.381 . S
C1044 C1050 1.383 . S
C1045 C1041 1.495 . S
C1045 H1051 0.959 1_556 S
C1045 H1052 0.961 . S
C1045 H1053 0.960 . S
C1046 C1044 1.381 . S
C1046 C1047 1.394 . S
C1046 H1054 0.930 . S
C1047 C1046 1.394 . S
C1047 C1048 1.383 . S
C1047 H1055 0.929 . S
C1048 C1047 1.383 . S
C1048 C1049 1.377 . S
C1049 H1033 0.930 . S
C1049 C1048 1.377 . S
C1049 C1050 1.379 . S
C1050 H1034 0.931 . S
C1050 C1044 1.383 . S
C1050 C1049 1.379 . S
H1051 C1045 0.959 1_554 S
H1052 C1045 0.961 . S
H1053 C1045 0.960 . S
H1054 C1046 0.930 . S
H1055 C1047 0.929 . S
H1056 C1064 0.927 . S
H1057 C1066 0.930 . S
H1058 C1068 0.930 . S
H1059 C1071 0.929 . S
H1060 C1074 0.930 . S
H1061 C1076 0.960 . S
H1062 C1076 0.960 . S
H1063 C1076 0.960 . S
C1064 H1056 0.927 . S
C1064 C1065 1.379 . S
C1064 C1066 1.388 . S
C1065 C1064 1.379 . S
C1065 C1071 1.390 . S
C1066 H1057 0.930 . S
C1066 C1064 1.388 . S
C1066 C1067 1.372 . S
C1067 C1066 1.372 . S
C1067 C1068 1.400 . S
C1067 C1072 1.490 . S
C1068 H1058 0.930 . S
C1068 C1067 1.400 . S
C1068 C1071 1.386 . S
H1069 C1085 0.930 . S
H1070 C1086 0.931 . S
C1071 H1059 0.929 . S
C1071 C1065 1.390 . S
C1071 C1068 1.386 . S
C1072 C1067 1.490 . S
C1072 C1074 1.395 . S
C1072 C1075 1.403 1_455 S
H1073 C1079 0.930 . S
C1074 H1060 0.930 . S
C1074 C1072 1.395 . S
C1074 C1077 1.403 . S
C1075 C1072 1.403 1_655 S
C1075 C1076 1.524 . S
C1075 C1079 1.400 . S
C1076 H1061 0.960 . S
C1076 H1062 0.960 . S
C1076 H1063 0.960 . S
C1076 C1075 1.524 . S
C1077 C1074 1.403 . S
C1077 C1078 1.392 . S
C1077 C1081 1.495 . S
C1078 C1077 1.392 . S
C1078 C1079 1.385 1_455 S
C1078 C1080 1.478 . S
C1079 H1073 0.930 . S
C1079 C1075 1.400 . S
C1079 C1078 1.385 1_655 S
C1080 C1078 1.478 . S
C1080 C1082 1.381 . S
C1080 C1086 1.383 . S
C1081 C1077 1.495 . S
C1081 H1087 0.959 . S
C1081 H1088 0.961 . S
C1081 H1089 0.960 . S
C1082 C1080 1.381 . S
C1082 C1083 1.394 . S
C1082 H1090 0.930 . S
C1083 C1082 1.394 . S
C1083 C1084 1.383 . S
C1083 H1091 0.929 . S
C1084 C1083 1.383 . S
C1084 C1085 1.377 . S
C1085 H1069 0.930 . S
C1085 C1084 1.377 . S
C1085 C1086 1.379 . S
C1086 H1070 0.931 . S
C1086 C1080 1.383 . S
C1086 C1085 1.379 . S
H1087 C1081 0.959 . S
H1088 C1081 0.961 . S
H1089 C1081 0.960 . S
H1090 C1082 0.930 . S
H1091 C1083 0.929 . S
H1092 C1100 0.929 1_565 S
H1093 C1102 0.930 1_565 S
H1094 C1104 0.930 . S
H1095 C1107 0.929 . S
H1096 C1110 0.930 . S
H1097 C1112 0.960 . S
H1098 C1112 0.960 . S
H1099 C1112 0.960 . S
C1100 H1092 0.929 1_545 S
C1100 C1101 1.377 . S
C1100 C1102 1.384 . S
C1101 C1100 1.377 . S
C1101 C1107 1.390 . S
C1102 H1093 0.930 1_545 S
C1102 C1100 1.384 . S
C1102 C1103 1.372 . S
C1103 C1102 1.372 . S
C1103 C1104 1.400 . S
C1103 C1108 1.490 . S
C1104 H1094 0.930 . S
C1104 C1103 1.400 . S
C1104 C1107 1.386 . S
H1105 C1121 0.930 . S
H1106 C1122 0.931 . S
C1107 H1095 0.929 . S
C1107 C1101 1.390 . S
C1107 C1104 1.386 . S
C1108 C1103 1.490 . S
C1108 C1110 1.395 . S
C1108 C1111 1.403 . S
H1109 C1115 0.930 . S
C1110 H1096 0.930 . S
C1110 C1108 1.395 . S
C1110 C1113 1.403 . S
C1111 C1108 1.403 . S
C1111 C1112 1.524 . S
C1111 C1115 1.400 . S
C1112 H1097 0.960 . S
C1112 H1098 0.960 . S
C1112 H1099 0.960 . S
C1112 C1111 1.524 . S
C1113 C1110 1.403 . S
C1113 C1114 1.392 . S
C1113 C1117 1.495 . S
C1114 C1113 1.392 . S
C1114 C1115 1.385 . S
C1114 C1116 1.478 . S
C1115 H1109 0.930 . S
C1115 C1111 1.400 . S
C1115 C1114 1.385 . S
C1116 C1114 1.478 . S
C1116 C1118 1.381 . S
C1116 C1122 1.383 . S
C1117 C1113 1.495 . S
C1117 H1123 0.959 . S
C1117 H1124 0.961 . S
C1117 H1125 0.960 . S
C1118 C1116 1.381 . S
C1118 C1119 1.394 . S
C1118 H1126 0.930 1_545 S
C1119 C1118 1.394 . S
C1119 C1120 1.383 . S
C1119 H1127 0.929 1_545 S
C1120 C1119 1.383 . S
C1120 C1121 1.377 . S
C1121 H1105 0.930 . S
C1121 C1120 1.377 . S
C1121 C1122 1.379 . S
C1122 H1106 0.931 . S
C1122 C1116 1.383 . S
C1122 C1121 1.379 . S
H1123 C1117 0.959 . S
H1124 C1117 0.961 . S
H1125 C1117 0.960 . S
H1126 C1118 0.930 1_565 S
H1127 C1119 0.929 1_565 S
H1128 C1136 0.929 . S
H1129 C1138 0.930 . S
H1130 C1140 0.930 . S
H1131 C1143 0.929 . S
H1132 C1146 0.930 . S
H1133 C1148 0.960 . S
H1134 C1148 0.960 . S
H1135 C1148 0.960 . S
C1136 H1128 0.929 . S
C1136 C1137 1.377 . S
C1136 C1138 1.384 . S
C1137 C1136 1.377 . S
C1137 C1143 1.390 . S
C1138 H1129 0.930 . S
C1138 C1136 1.384 . S
C1138 C1139 1.372 . S
C1139 C1138 1.372 . S
C1139 C1140 1.400 . S
C1139 C1144 1.490 . S
C1140 H1130 0.930 . S
C1140 C1139 1.400 . S
C1140 C1143 1.386 . S
H1141 C1157 0.930 . S
H1142 C1158 0.931 . S
C1143 H1131 0.929 . S
C1143 C1137 1.390 . S
C1143 C1140 1.386 . S
C1144 C1139 1.490 . S
C1144 C1146 1.395 . S
C1144 C1147 1.403 . S
H1145 C1151 0.930 . S
C1146 H1132 0.930 . S
C1146 C1144 1.395 . S
C1146 C1149 1.403 . S
C1147 C1144 1.403 . S
C1147 C1148 1.524 . S
C1147 C1151 1.400 . S
C1148 H1133 0.960 . S
C1148 H1134 0.960 . S
C1148 H1135 0.960 . S
C1148 C1147 1.524 . S
C1149 C1146 1.403 . S
C1149 C1150 1.392 . S
C1149 C1153 1.495 . S
C1150 C1149 1.392 . S
C1150 C1151 1.385 . S
C1150 C1152 1.478 . S
C1151 H1145 0.930 . S
C1151 C1147 1.400 . S
C1151 C1150 1.385 . S
C1152 C1150 1.478 . S
C1152 C1154 1.381 . S
C1152 C1158 1.383 . S
C1153 C1149 1.495 . S
C1153 H1159 0.959 . S
C1153 H1160 0.961 . S
C1153 H1161 0.960 . S
C1154 C1152 1.381 . S
C1154 C1155 1.394 . S
C1154 H1162 0.930 . S
C1155 C1154 1.394 . S
C1155 C1156 1.383 . S
C1155 H1163 0.929 . S
C1156 C1155 1.383 . S
C1156 C1157 1.377 . S
C1157 H1141 0.930 . S
C1157 C1156 1.377 . S
C1157 C1158 1.379 . S
C1158 H1142 0.931 . S
C1158 C1152 1.383 . S
C1158 C1157 1.379 . S
H1159 C1153 0.959 . S
H1160 C1153 0.961 . S
H1161 C1153 0.960 . S
H1162 C1154 0.930 . S
H1163 C1155 0.929 . S
H1164 C1172 0.929 . S
H1165 C1174 0.930 . S
H1166 C1176 0.930 . S
H1167 C1179 0.929 . S
H1168 C1182 0.930 . S
H1169 C1184 0.960 . S
H1170 C1184 0.960 . S
H1171 C1184 0.960 . S
C1172 H1164 0.929 . S
C1172 C1173 1.377 . S
C1172 C1174 1.384 . S
C1173 C1172 1.377 . S
C1173 C1179 1.390 . S
C1174 H1165 0.930 . S
C1174 C1172 1.384 . S
C1174 C1175 1.372 . S
C1175 C1174 1.372 . S
C1175 C1176 1.400 . S
C1175 C1180 1.490 . S
C1176 H1166 0.930 . S
C1176 C1175 1.400 . S
C1176 C1179 1.386 . S
H1177 C1193 0.930 . S
H1178 C1194 0.931 . S
C1179 H1167 0.929 . S
C1179 C1173 1.390 . S
C1179 C1176 1.386 . S
C1180 C1175 1.490 . S
C1180 C1182 1.395 . S
C1180 C1183 1.403 . S
H1181 C1187 0.930 . S
C1182 H1168 0.930 . S
C1182 C1180 1.395 . S
C1182 C1185 1.403 . S
C1183 C1180 1.403 . S
C1183 C1184 1.524 . S
C1183 C1187 1.400 . S
C1184 H1169 0.960 . S
C1184 H1170 0.960 . S
C1184 H1171 0.960 . S
C1184 C1183 1.524 . S
C1185 C1182 1.403 . S
C1185 C1186 1.392 . S
C1185 C1189 1.495 . S
C1186 C1185 1.392 . S
C1186 C1187 1.385 . S
C1186 C1188 1.478 . S
C1187 H1181 0.930 . S
C1187 C1183 1.400 . S
C1187 C1186 1.385 . S
C1188 C1186 1.478 . S
C1188 C1190 1.381 . S
C1188 C1194 1.383 . S
C1189 C1185 1.495 . S
C1189 H1195 0.959 . S
C1189 H1196 0.961 . S
C1189 H1197 0.960 . S
C1190 C1188 1.381 . S
C1190 C1191 1.394 . S
C1190 H1198 0.930 . S
C1191 C1190 1.394 . S
C1191 C1192 1.383 . S
C1191 H1199 0.929 . S
C1192 C1191 1.383 . S
C1192 C1193 1.377 . S
C1193 H1177 0.930 . S
C1193 C1192 1.377 . S
C1193 C1194 1.379 . S
C1194 H1178 0.931 . S
C1194 C1188 1.383 . S
C1194 C1193 1.379 . S
H1195 C1189 0.959 . S
H1196 C1189 0.961 . S
H1197 C1189 0.960 . S
H1198 C1190 0.930 . S
H1199 C1191 0.929 . S
H1200 C1208 0.929 . S
H1201 C1210 0.930 . S
H1202 C1212 0.930 . S
H1203 C1215 0.929 . S
H1204 C1218 0.930 . S
H1205 C1220 0.960 . S
H1206 C1220 0.960 . S
H1207 C1220 0.960 . S
C1208 H1200 0.929 . S
C1208 C1209 1.377 1_455 S
C1208 C1210 1.384 . S
C1209 C1208 1.377 1_655 S
C1209 C1215 1.390 . S
C1210 H1201 0.930 . S
C1210 C1208 1.384 . S
C1210 C1211 1.372 1_455 S
C1211 C1210 1.372 1_655 S
C1211 C1212 1.400 . S
C1211 C1216 1.490 . S
C1212 H1202 0.930 . S
C1212 C1211 1.400 . S
C1212 C1215 1.386 . S
H1213 C1229 0.930 . S
H1214 C1230 0.931 . S
C1215 H1203 0.929 . S
C1215 C1209 1.390 . S
C1215 C1212 1.386 . S
C1216 C1211 1.490 . S
C1216 C1218 1.395 1_655 S
C1216 C1219 1.403 . S
H1217 C1223 0.930 . S
C1218 H1204 0.930 . S
C1218 C1216 1.395 1_455 S
C1218 C1221 1.403 . S
C1219 C1216 1.403 . S
C1219 C1220 1.524 . S
C1219 C1223 1.400 . S
C1220 H1205 0.960 . S
C1220 H1206 0.960 . S
C1220 H1207 0.960 . S
C1220 C1219 1.524 . S
C1221 C1218 1.403 . S
C1221 C1222 1.392 1_455 S
C1221 C1225 1.495 . S
C1222 C1221 1.392 1_655 S
C1222 C1223 1.385 . S
C1222 C1224 1.478 . S
C1223 H1217 0.930 . S
C1223 C1219 1.400 . S
C1223 C1222 1.385 . S
C1224 C1222 1.478 . S
C1224 C1226 1.381 1_655 S
C1224 C1230 1.383 . S
C1225 C1221 1.495 . S
C1225 H1231 0.959 . S
C1225 H1232 0.961 . S
C1225 H1233 0.960 . S
C1226 C1224 1.381 1_455 S
C1226 C1227 1.394 . S
C1226 H1234 0.930 . S
C1227 C1226 1.394 . S
C1227 C1228 1.383 1_455 S
C1227 H1235 0.929 . S
C1228 C1227 1.383 1_655 S
C1228 C1229 1.377 . S
C1229 H1213 0.930 . S
C1229 C1228 1.377 . S
C1229 C1230 1.379 . S
C1230 H1214 0.931 . S
C1230 C1224 1.383 . S
C1230 C1229 1.379 . S
H1231 C1225 0.959 . S
H1232 C1225 0.961 . S
H1233 C1225 0.960 . S
H1234 C1226 0.930 . S
H1235 C1227 0.929 . S
H1236 C1244 0.929 . S
H1237 C1246 0.930 . S
H1238 C1248 0.930 . S
H1239 C1251 0.929 . S
H1240 C1254 0.930 . S
H1241 C1256 0.960 . S
H1242 C1256 0.960 . S
H1243 C1256 0.960 . S
C1244 H1236 0.929 . S
C1244 C1245 1.377 . S
C1244 C1246 1.384 . S
C1245 C1244 1.377 . S
C1245 C1251 1.390 1_565 S
C1246 H1237 0.930 . S
C1246 C1244 1.384 . S
C1246 C1247 1.372 . S
C1247 C1246 1.372 . S
C1247 C1248 1.400 1_565 S
C1247 C1252 1.490 . S
C1248 H1238 0.930 . S
C1248 C1247 1.400 1_545 S
C1248 C1251 1.386 . S
H1249 C1265 0.930 . S
H1250 C1266 0.931 . S
C1251 H1239 0.929 . S
C1251 C1245 1.390 1_545 S
C1251 C1248 1.386 . S
C1252 C1247 1.490 . S
C1252 C1254 1.395 . S
C1252 C1255 1.403 . S
H1253 C1259 0.930 . S
C1254 H1240 0.930 . S
C1254 C1252 1.395 . S
C1254 C1257 1.403 . S
C1255 C1252 1.403 . S
C1255 C1256 1.524 . S
C1255 C1259 1.400 . S
C1256 H1241 0.960 . S
C1256 H1242 0.960 . S
C1256 H1243 0.960 . S
C1256 C1255 1.524 . S
C1257 C1254 1.403 . S
C1257 C1258 1.392 . S
C1257 C1261 1.495 . S
C1258 C1257 1.392 . S
C1258 C1259 1.385 . S
C1258 C1260 1.478 . S
C1259 H1253 0.930 . S
C1259 C1255 1.400 . S
C1259 C1258 1.385 . S
C1260 C1258 1.478 . S
C1260 C1262 1.381 . S
C1260 C1266 1.383 1_565 S
C1261 C1257 1.495 . S
C1261 H1267 0.959 . S
C1261 H1268 0.961 1_565 S
C1261 H1269 0.960 . S
C1262 C1260 1.381 . S
C1262 C1263 1.394 . S
C1262 H1270 0.930 . S
C1263 C1262 1.394 . S
C1263 C1264 1.383 . S
C1263 H1271 0.929 . S
C1264 C1263 1.383 . S
C1264 C1265 1.377 1_565 S
C1265 H1249 0.930 . S
C1265 C1264 1.377 1_545 S
C1265 C1266 1.379 . S
C1266 H1250 0.931 . S
C1266 C1260 1.383 1_545 S
C1266 C1265 1.379 . S
H1267 C1261 0.959 . S
H1268 C1261 0.961 1_545 S
H1269 C1261 0.960 . S
H1270 C1262 0.930 . S
H1271 C1263 0.929 . S
H1272 C1280 0.929 . S
H1273 C1282 0.930 . S
H1274 C1284 0.930 . S
H1275 C1287 0.929 . S
H1276 C1290 0.930 . S
H1277 C1292 0.960 . S
H1278 C1292 0.960 . S
H1279 C1292 0.960 . S
C1280 H1272 0.929 . S
C1280 C1281 1.377 . S
C1280 C1282 1.384 . S
C1281 C1280 1.377 . S
C1281 C1287 1.390 . S
C1282 H1273 0.930 . S
C1282 C1280 1.384 . S
C1282 C1283 1.372 . S
C1283 C1282 1.372 . S
C1283 C1284 1.400 . S
C1283 C1288 1.490 . S
C1284 H1274 0.930 . S
C1284 C1283 1.400 . S
C1284 C1287 1.386 . S
H1285 C1301 0.930 . S
H1286 C1302 0.931 . S
C1287 H1275 0.929 . S
C1287 C1281 1.390 . S
C1287 C1284 1.386 . S
C1288 C1283 1.490 . S
C1288 C1290 1.395 . S
C1288 C1291 1.403 . S
H1289 C1295 0.930 . S
C1290 H1276 0.930 . S
C1290 C1288 1.395 . S
C1290 C1293 1.403 . S
C1291 C1288 1.403 . S
C1291 C1292 1.524 . S
C1291 C1295 1.400 . S
C1292 H1277 0.960 . S
C1292 H1278 0.960 . S
C1292 H1279 0.960 . S
C1292 C1291 1.524 . S
C1293 C1290 1.403 . S
C1293 C1294 1.392 . S
C1293 C1297 1.495 . S
C1294 C1293 1.392 . S
C1294 C1295 1.385 . S
C1294 C1296 1.478 . S
C1295 H1289 0.930 . S
C1295 C1291 1.400 . S
C1295 C1294 1.385 . S
C1296 C1294 1.478 . S
C1296 C1298 1.381 . S
C1296 C1302 1.383 . S
C1297 C1293 1.495 . S
C1297 H1303 0.959 . S
C1297 H1304 0.961 . S
C1297 H1305 0.960 . S
C1298 C1296 1.381 . S
C1298 C1299 1.394 . S
C1298 H1306 0.930 . S
C1299 C1298 1.394 . S
C1299 C1300 1.383 . S
C1299 H1307 0.929 . S
C1300 C1299 1.383 . S
C1300 C1301 1.377 . S
C1301 H1285 0.930 . S
C1301 C1300 1.377 . S
C1301 C1302 1.379 . S
C1302 H1286 0.931 . S
C1302 C1296 1.383 . S
C1302 C1301 1.379 . S
H1303 C1297 0.959 . S
H1304 C1297 0.961 . S
H1305 C1297 0.960 . S
H1306 C1298 0.930 . S
H1307 C1299 0.929 . S
H1308 C1316 0.929 . S
H1309 C1318 0.930 . S
H1310 C1320 0.930 . S
H1311 C1323 0.929 . S
H1312 C1326 0.930 . S
H1313 C1328 0.960 . S
H1314 C1328 0.960 . S
H1315 C1328 0.960 . S
C1316 H1308 0.929 . S
C1316 C1317 1.377 . S
C1316 C1318 1.384 . S
C1317 C1316 1.377 . S
C1317 C1323 1.390 . S
C1318 H1309 0.930 . S
C1318 C1316 1.384 . S
C1318 C1319 1.372 . S
C1319 C1318 1.372 . S
C1319 C1320 1.400 . S
C1319 C1324 1.490 . S
C1320 H1310 0.930 . S
C1320 C1319 1.400 . S
C1320 C1323 1.386 . S
H1321 C1337 0.930 . S
H1322 C1338 0.931 . S
C1323 H1311 0.929 . S
C1323 C1317 1.390 . S
C1323 C1320 1.386 . S
C1324 C1319 1.490 . S
C1324 C1326 1.395 . S
C1324 C1327 1.403 . S
H1325 C1331 0.930 . S
C1326 H1312 0.930 . S
C1326 C1324 1.395 . S
C1326 C1329 1.403 . S
C1327 C1324 1.403 . S
C1327 C1328 1.524 . S
C1327 C1331 1.400 . S
C1328 H1313 0.960 . S
C1328 H1314 0.960 . S
C1328 H1315 0.960 . S
C1328 C1327 1.524 . S
C1329 C1326 1.403 . S
C1329 C1330 1.392 . S
C1329 C1333 1.495 . S
C1330 C1329 1.392 . S
C1330 C1331 1.385 . S
C1330 C1332 1.478 . S
C1331 H1325 0.930 . S
C1331 C1327 1.400 . S
C1331 C1330 1.385 . S
C1332 C1330 1.478 . S
C1332 C1334 1.381 . S
C1332 C1338 1.383 . S
C1333 C1329 1.495 . S
C1333 H1339 0.959 . S
C1333 H1340 0.961 . S
C1333 H1341 0.960 . S
C1334 C1332 1.381 . S
C1334 C1335 1.394 . S
C1334 H1342 0.930 . S
C1335 C1334 1.394 . S
C1335 C1336 1.383 . S
C1335 H1343 0.929 . S
C1336 C1335 1.383 . S
C1336 C1337 1.377 . S
C1337 H1321 0.930 . S
C1337 C1336 1.377 . S
C1337 C1338 1.379 . S
C1338 H1322 0.931 . S
C1338 C1332 1.383 . S
C1338 C1337 1.379 . S
H1339 C1333 0.959 . S
H1340 C1333 0.961 . S
H1341 C1333 0.960 . S
H1342 C1334 0.930 . S
H1343 C1335 0.929 . S
C489 C255 1.956 . S
C508 C330 2.067 . S
C544 C370 2.065 . S
C525 C295 1.959 . S
C580 C410 2.079 . S
C561 C175 1.952 . S
C616 C450 2.068 1_455 S
C597 C215 1.944 1_655 S
C652 C339 2.075 . S
C633 C95 1.963 . S
C669 C135 1.952 . S
C688 C379 2.064 . S
C705 C15 1.951 . S
C724 C419 2.069 . S
C741 C55 1.942 . S
C760 C459 2.058 1_655 S
C796 C336 0.334 . S
C777 C221 0.302 . S
C832 C376 0.232 . S
C813 C261 0.279 . S
C868 C416 0.344 . S
C849 C301 0.304 . S
C885 C181 0.293 . S
C904 C456 0.370 . S
C921 C61 0.389 1_655 S
C940 C327 0.281 . S
C976 C367 0.345 . S
C957 C101 0.454 . S
C1012 C407 0.351 . S
C993 C141 0.396 . S
C1029 C21 0.446 . S
C1048 C447 0.375 . S
C1065 C202 2.813 . S
C1084 C331 3.085 . S
C1101 C242 2.808 . S
C1120 C371 3.069 . S
C1156 C411 3.077 . S
C1137 C282 2.804 . S
C1192 C451 3.083 . S
C1173 C162 2.816 . S
C1209 C42 2.825 1_655 S
C1228 C322 3.073 . S
C1264 C362 3.067 . S
C1245 C82 2.804 . S
C1300 C402 3.061 . S
C1281 C122 2.818 . S
C1317 C2 2.819 . S
C1336 C442 3.091 . S
