# Generated by pormake.
# Topology csq, (4,8)-cn, num edge types: 1
# Building blocks:
#     Node 0, Type 0, BuildingBlock: MUDLON_clean_sbu_0, # of connection points: 4
#     Node 1, Type 0, BuildingBlock: MUDLON_clean_sbu_0, # of connection points: 4
#     Node 2, Type 0, BuildingBlock: MUDLON_clean_sbu_0, # of connection points: 4
#     Node 3, Type 0, BuildingBlock: MUDLON_clean_sbu_0, # of connection points: 4
#     Node 4, Type 0, BuildingBlock: MUDLON_clean_sbu_0, # of connection points: 4
#     Node 5, Type 0, BuildingBlock: MUDLON_clean_sbu_0, # of connection points: 4
#     Node 6, Type 1, BuildingBlock: TAGTUT_clean_sbu_3, # of connection points: 8
#     Node 7, Type 1, BuildingBlock: TAGTUT_clean_sbu_3, # of connection points: 8
#     Node 8, Type 1, BuildingBlock: TAGTUT_clean_sbu_3, # of connection points: 8
#     Edge 9, Type (0, 1), BuildingBlock: UVAHIK_clean_linker_0, # of connection points: 2
#     Edge 10, Type (0, 1), BuildingBlock: UVAHIK_clean_linker_0, # of connection points: 2
#     Edge 11, Type (0, 1), BuildingBlock: UVAHIK_clean_linker_0, # of connection points: 2
#     Edge 12, Type (0, 1), BuildingBlock: UVAHIK_clean_linker_0, # of connection points: 2
#     Edge 13, Type (0, 1), BuildingBlock: UVAHIK_clean_linker_0, # of connection points: 2
#     Edge 14, Type (0, 1), BuildingBlock: UVAHIK_clean_linker_0, # of connection points: 2
#     Edge 15, Type (0, 1), BuildingBlock: UVAHIK_clean_linker_0, # of connection points: 2
#     Edge 16, Type (0, 1), BuildingBlock: UVAHIK_clean_linker_0, # of connection points: 2
#     Edge 17, Type (0, 1), BuildingBlock: UVAHIK_clean_linker_0, # of connection points: 2
#     Edge 18, Type (0, 1), BuildingBlock: UVAHIK_clean_linker_0, # of connection points: 2
#     Edge 19, Type (0, 1), BuildingBlock: UVAHIK_clean_linker_0, # of connection points: 2
#     Edge 20, Type (0, 1), BuildingBlock: UVAHIK_clean_linker_0, # of connection points: 2
#     Edge 21, Type (0, 1), BuildingBlock: UVAHIK_clean_linker_0, # of connection points: 2
#     Edge 22, Type (0, 1), BuildingBlock: UVAHIK_clean_linker_0, # of connection points: 2
#     Edge 23, Type (0, 1), BuildingBlock: UVAHIK_clean_linker_0, # of connection points: 2
#     Edge 24, Type (0, 1), BuildingBlock: UVAHIK_clean_linker_0, # of connection points: 2
#     Edge 25, Type (0, 1), BuildingBlock: UVAHIK_clean_linker_0, # of connection points: 2
#     Edge 26, Type (0, 1), BuildingBlock: UVAHIK_clean_linker_0, # of connection points: 2
#     Edge 27, Type (0, 1), BuildingBlock: UVAHIK_clean_linker_0, # of connection points: 2
#     Edge 28, Type (0, 1), BuildingBlock: UVAHIK_clean_linker_0, # of connection points: 2
#     Edge 29, Type (0, 1), BuildingBlock: UVAHIK_clean_linker_0, # of connection points: 2
#     Edge 30, Type (0, 1), BuildingBlock: UVAHIK_clean_linker_0, # of connection points: 2
#     Edge 31, Type (0, 1), BuildingBlock: UVAHIK_clean_linker_0, # of connection points: 2
#     Edge 32, Type (0, 1), BuildingBlock: UVAHIK_clean_linker_0, # of connection points: 2
# Relax obj value: 0.068
# Max RMSD: 0.130
# Mean RMSD: 0.106
data_MOF--net-csq--node1-MUDLON_clean_sbu_0--node2-TAGTUT_clean_sbu_3--edge1-UVAHIK_clean_linker_0
_symmetry_space_group_name_H-M    P1
_symmetry_Int_Tables_number       1
_symmetry_cell_setting            triclinic
loop_
_symmetry_equiv_pos_as_xyz
'x, y, z'
_cell_length_a     63.548628
_cell_length_b     62.88982
_cell_length_c     25.427958
_cell_angle_alpha  92.43749
_cell_angle_beta   92.207051
_cell_angle_gamma 119.98196
loop_
_atom_site_label
_atom_site_type_symbol
_atom_site_fract_x
_atom_site_fract_y
_atom_site_fract_z
_atom_type_partial_charge
Mg0 Mg 0.25339 0.48495 0.12523 0.0
C1 C 0.2121 0.44499 0.04936 0.0
O2 O 0.20873 0.43067 0.08809 0.0
C3 C 0.27918 0.45837 0.15739 0.0
O4 O 0.28886 0.46655 0.11261 0.0
C5 C 0.21734 0.48129 0.19768 0.0
O6 O 0.21322 0.4587 0.18999 0.0
O7 O 0.23487 0.49833 0.17539 0.0
O8 O 0.22952 0.46716 0.05427 0.0
O9 O 0.28918 0.51276 0.10409 0.0
C10 C 0.29378 0.51598 0.05593 0.0
O11 O 0.27561 0.50569 0.01958 0.0
O12 O 0.2616 0.46121 0.17064 0.0
Mg13 Mg 0.76037 0.24336 0.10196 0.0
C14 C 0.77811 0.26727 1.00171 0.0
O15 O 0.75781 0.26781 0.00499 0.0
C16 C 0.75938 0.20355 0.16961 0.0
O17 O 0.77788 0.22217 0.19684 0.0
C18 C 0.77573 0.271 0.21434 0.0
O19 O 0.75618 0.25218 0.23058 0.0
O20 O 0.77985 0.27155 0.16573 0.0
O21 O 0.78364 0.25645 0.03621 0.0
O22 O 0.72475 0.23682 0.07483 0.0
C23 C 0.70624 0.22044 0.09592 0.0
O24 O 0.70957 0.21259 0.14084 0.0
O25 O 0.75148 0.20726 0.12632 0.0
Mg26 Mg 0.52592 0.7589 0.05937 0.0
C27 C 0.54131 0.79697 0.15708 0.0
O28 O 0.56275 0.80378 0.13926 0.0
C29 C 0.54968 0.74011 0.97879 0.0
O30 O 0.56815 0.75297 0.01364 0.0
C31 C 0.54715 0.80248 0.98222 0.0
O32 O 0.566 0.79918 0.98351 0.0
O33 O 0.52927 0.78952 0.00943 0.0
O34 O 0.52247 0.77911 0.13273 0.0
O35 O 0.52054 0.72704 0.10798 0.0
C36 C 0.5328 0.73016 0.15117 0.0
O37 O 0.54979 0.75249 0.16832 0.0
O38 O 0.52944 0.73886 0.98623 0.0
Mg39 Mg 0.78615 0.53963 0.06812 0.0
C40 C 0.76673 0.55333 0.97306 0.0
O41 O 0.77951 0.54538 0.94823 0.0
C42 C 0.83982 0.57404 0.08086 0.0
O43 O 0.83716 0.56844 0.02974 0.0
C44 C 0.73829 0.5102 0.11442 0.0
O45 O 0.73138 0.50697 0.06393 0.0
O46 O 0.76095 0.5213 0.1281 0.0
O47 O 0.76818 0.55505 0.02313 0.0
O48 O 0.79451 0.51717 0.01506 0.0
C49 C 0.80959 0.51062 0.03042 0.0
O50 O 0.81668 0.5139 0.08079 0.0
O51 O 0.82092 0.56656 0.10666 0.0
Mg52 Mg 0.24495 0.78526 0.10395 0.0
C53 C 0.23569 0.75807 0.99709 0.0
O54 O 0.24634 0.78062 0.98191 0.0
C55 C 0.30066 0.81188 0.11577 0.0
O56 O 0.29891 0.81627 0.06621 0.0
C57 C 0.22412 0.75396 0.18964 0.0
O58 O 0.2408 0.74959 0.17157 0.0
O59 O 0.22073 0.77002 0.16805 0.0
O60 O 0.23403 0.75476 0.04609 0.0
O61 O 0.2452 0.81439 0.05971 0.0
C62 C 0.26103 0.83693 0.0706 0.0
O63 O 0.27425 0.84327 0.1156 0.0
O64 O 0.28138 0.7988 0.13895 0.0
Mg65 Mg 0.46261 0.24003 0.19615 0.0
C66 C 0.43064 0.22828 0.28733 0.0
O67 O 0.44468 0.21982 0.30408 0.0
C68 C 0.47069 0.2196 0.09876 0.0
O69 O 0.48763 0.24292 0.10257 0.0
C70 C 0.49201 0.29051 0.14261 0.0
O71 O 0.51236 0.29185 0.16038 0.0
O72 O 0.4717 0.27287 0.15457 0.0
O73 O 0.43184 0.23458 0.24014 0.0
O74 O 0.48844 0.24022 0.25571 0.0
C75 C 0.4992 0.22818 0.24596 0.0
O76 O 0.49945 0.22119 0.19673 0.0
O77 O 0.45545 0.21168 0.1342 0.0
C78 C 0.04669 0.48859 0.53498 0.0
C79 C 0.03547 0.44854 0.71922 0.0
C80 C 0.96673 0.44654 0.70917 0.0
Mg81 Mg 0.02463 0.52122 0.48981 0.0
Mg82 Mg 0.01089 0.55537 0.56822 0.0
O83 O 0.00716 0.52431 0.55134 0.0
Mg84 Mg 0.0156 0.50644 0.60397 0.0
O85 O 0.02397 0.48676 0.65132 0.0
Mg86 Mg 0.00492 0.45328 0.61281 0.0
Mg87 Mg 0.01939 0.48807 0.72321 0.0
C88 C 0.98242 0.52599 0.66596 0.0
O89 O 0.04486 0.54128 0.65359 0.0
O90 O 0.00456 0.53686 0.43938 0.0
O91 O 0.04055 0.52792 0.73574 0.0
O92 O 0.05674 0.56096 0.5057 0.0
O93 O 0.99361 0.5575 0.49609 0.0
O94 O 0.04894 0.583 0.56477 0.0
O95 O 0.98704 0.47012 0.55996 0.0
O96 O 0.99246 0.48166 0.47733 0.0
C97 C 0.98155 0.46525 0.51018 0.0
C98 C 0.99414 0.54953 0.4492 0.0
O99 O 0.98831 0.5093 0.65802 0.0
O100 O 0.02581 0.44112 0.67172 0.0
O101 O 0.9904 0.54517 0.63919 0.0
O102 O 0.97305 0.43936 0.66795 0.0
O103 O 0.03505 0.46619 0.74538 0.0
O104 O 0.98129 0.4669 0.73498 0.0
O105 O 0.0422 0.50585 0.54697 0.0
O106 O 0.03597 0.46806 0.55671 0.0
C107 C 0.06317 0.58103 0.53319 0.0
C108 C 0.0501 0.54514 0.70381 0.0
C109 C 0.49796 0.04091 0.52962 0.0
C110 C 0.57534 0.03432 0.48251 0.0
C111 C 0.53415 0.96199 0.53908 0.0
Mg112 Mg 0.4591 0.01341 0.61936 0.0
Mg113 Mg 0.47736 0.99843 0.72663 0.0
O114 O 0.47347 0.99474 0.65311 0.0
Mg115 Mg 0.50374 0.00655 0.61412 0.0
O116 O 0.53251 0.0181 0.57032 0.0
Mg117 Mg 0.51496 0.00081 0.5006 0.0
Mg118 Mg 0.55891 0.01415 0.59276 0.0
C119 C 0.50675 0.97099 0.70327 0.0
O120 O 0.53021 0.03396 0.68045 0.0
O121 O 0.42454 0.99041 0.6682 0.0
O122 O 0.56484 0.03259 0.67198 0.0
O123 O 0.47401 0.04411 0.68733 0.0
O124 O 0.43974 0.98223 0.7413 0.0
O125 O 0.4934 0.03641 0.75198 0.0
O126 O 0.47992 0.98052 0.54511 0.0
O127 O 0.44635 0.98337 0.55085 0.0
C128 C 0.45838 0.9747 0.52767 0.0
C129 C 0.42197 0.9812 0.71352 0.0
O130 O 0.51024 0.97782 0.65577 0.0
O131 O 0.55288 0.02361 0.46456 0.0
O132 O 0.49642 0.97827 0.73618 0.0
O133 O 0.52233 0.96903 0.50993 0.0
O134 O 0.58155 0.03351 0.53067 0.0
O135 O 0.54894 0.97589 0.57737 0.0
O136 O 0.4954 0.0344 0.57723 0.0
O137 O 0.50625 0.03183 0.49558 0.0
C138 C 0.48671 0.0504 0.73141 0.0
C139 C 0.55209 0.04007 0.69656 0.0
C140 C 0.53049 0.54819 0.6615 0.0
C141 C 0.46673 0.49132 0.79117 0.0
C142 C 0.48513 0.43746 0.73414 0.0
Mg143 Mg 0.54583 0.53398 0.55099 0.0
Mg144 Mg 0.50608 0.48661 0.47337 0.0
O145 O 0.52242 0.49756 0.54082 0.0
Mg146 Mg 0.50369 0.49257 0.60532 0.0
O147 O 0.48729 0.48987 0.67246 0.0
Mg148 Mg 0.51536 0.4995 0.72616 0.0
Mg149 Mg 0.45811 0.46107 0.68393 0.0
C150 C 0.47584 0.43903 0.53881 0.0
O151 O 0.46853 0.48653 0.56035 0.0
O152 O 0.56602 0.5278 0.48194 0.0
O153 O 0.43897 0.45912 0.60875 0.0
O154 O 0.52433 0.54399 0.4932 0.0
O155 O 0.53801 0.49388 0.433 0.0
O156 O 0.49446 0.51157 0.44636 0.0
O157 O 0.53645 0.49671 0.65618 0.0
O158 O 0.56639 0.52414 0.61091 0.0
C159 C 0.55916 0.51025 0.64933 0.0
C160 C 0.55999 0.51153 0.44311 0.0
O161 O 0.48545 0.45049 0.58432 0.0
O162 O 0.48996 0.50157 0.78835 0.0
O163 O 0.47988 0.44985 0.49538 0.0
O164 O 0.50258 0.45951 0.74429 0.0
O165 O 0.45144 0.47552 0.75549 0.0
O166 O 0.46596 0.43277 0.70621 0.0
O167 O 0.52225 0.53469 0.61819 0.0
O168 O 0.52868 0.5389 0.70601 0.0
C169 C 0.50618 0.5346 0.45925 0.0
C170 C 0.44596 0.47137 0.56738 0.0
C171 C 0.18057 0.46623 0.24936 0.0
C172 C 0.20084 0.48608 0.22932 0.0
C173 C 0.16417 0.47002 0.27735 0.0
C174 C 0.15702 0.51552 0.35696 0.0
H175 H 0.0884 0.46779 0.32808 0.0
C176 C 0.07999 0.51489 0.47666 0.0
C177 C 0.06378 0.49162 0.49405 0.0
C178 C 0.09668 0.51736 0.43946 0.0
C179 C 0.10749 0.48129 0.33659 0.0
H180 H 0.22002 0.52563 0.22397 0.0
H181 H 0.19119 0.53229 0.27368 0.0
H182 H 0.11815 0.46655 0.2724 0.0
H183 H 0.05215 0.45272 0.48519 0.0
H184 H 0.08091 0.45703 0.42076 0.0
H185 H 0.14621 0.52976 0.4223 0.0
C186 C 0.18811 0.51378 0.26735 0.0
C187 C 0.12453 0.48057 0.30476 0.0
C188 C 0.20456 0.50996 0.23884 0.0
C189 C 0.06435 0.47093 0.47284 0.0
C190 C 0.08075 0.47336 0.43551 0.0
C191 C 0.13988 0.51625 0.38897 0.0
C192 C 0.16757 0.49376 0.28628 0.0
C193 C 0.14954 0.49713 0.31558 0.0
C194 C 0.09717 0.49656 0.41847 0.0
C195 C 0.11501 0.49861 0.38006 0.0
H196 H 0.17716 0.4476 0.24308 0.0
H197 H 0.14881 0.45427 0.29236 0.0
H198 H 0.17618 0.5285 0.36627 0.0
H199 H 0.08005 0.5312 0.49239 0.0
H200 H 0.10911 0.53547 0.42694 0.0
C201 C 0.72055 0.16332 0.17212 0.0
C202 C 0.74386 0.18045 0.19511 0.0
C203 C 0.70375 0.14437 0.2008 0.0
C204 C 0.69039 0.13155 0.3393 0.0
H205 H 0.63948 0.06782 0.27862 0.0
C206 C 0.61954 0.06045 0.46674 0.0
C207 C 0.59502 0.04845 0.44705 0.0
C208 C 0.63824 0.07443 0.43455 0.0
C209 C 0.65351 0.08562 0.29599 0.0
H210 H 0.76847 0.1897 0.26463 0.0
H211 H 0.73943 0.1562 0.3141 0.0
H212 H 0.6722 0.09495 0.22477 0.0
H213 H 0.57109 0.0414 0.37728 0.0
H214 H 0.60389 0.06604 0.32099 0.0
H215 H 0.67169 0.1224 0.41024 0.0
C216 C 0.73386 0.15791 0.27445 0.0
C217 C 0.67228 0.10116 0.26519 0.0
C218 C 0.75061 0.17699 0.24589 0.0
C219 C 0.58974 0.05042 0.39383 0.0
C220 C 0.60854 0.06441 0.36147 0.0
C221 C 0.67174 0.11601 0.37003 0.0
C222 C 0.70991 0.14195 0.25303 0.0
C223 C 0.69089 0.12441 0.2864 0.0
C224 C 0.63299 0.07681 0.3817 0.0
C225 C 0.653 0.09293 0.34873 0.0
H226 H 0.71468 0.16538 0.13305 0.0
H227 H 0.68549 0.13256 0.183 0.0
H228 H 0.70401 0.14952 0.3567 0.0
H229 H 0.62442 0.05926 0.50735 0.0
H230 H 0.65688 0.08341 0.45115 0.0
C231 C 0.5118 0.68469 0.16146 0.0
C232 C 0.52749 0.70895 0.18254 0.0
C233 C 0.50681 0.66472 0.19136 0.0
C234 C 0.53154 0.64866 0.30768 0.0
H235 H 0.46727 0.59049 0.30196 0.0
C236 C 0.5101 0.57581 0.45355 0.0
C237 C 0.5007 0.55165 0.43147 0.0
C238 C 0.50985 0.59377 0.42379 0.0
C239 C 0.48531 0.60659 0.30366 0.0
H240 H 0.54981 0.73128 0.25193 0.0
H241 H 0.54075 0.69663 0.30434 0.0
H242 H 0.47446 0.62465 0.24824 0.0
H243 H 0.48171 0.52686 0.36232 0.0
H244 H 0.48128 0.55853 0.30992 0.0
H245 H 0.54237 0.63084 0.3633 0.0
C246 C 0.53273 0.69291 0.26428 0.0
C247 C 0.48948 0.62611 0.27282 0.0
C248 C 0.53786 0.71282 0.23429 0.0
C249 C 0.48915 0.54534 0.38034 0.0
C250 C 0.48892 0.56345 0.35035 0.0
C251 C 0.52733 0.62933 0.33866 0.0
C252 C 0.5173 0.66859 0.24311 0.0
C253 C 0.51265 0.64747 0.27479 0.0
C254 C 0.5002 0.58804 0.3712 0.0
C255 C 0.50415 0.60819 0.33738 0.0
H256 H 0.50354 0.6811 0.12163 0.0
H257 H 0.49509 0.64626 0.17355 0.0
H258 H 0.54976 0.66446 0.3092 0.0
H259 H 0.51874 0.58118 0.49319 0.0
H260 H 0.51814 0.61245 0.44128 0.0
C261 C 0.88167 0.5797 0.08574 0.0
C262 C 0.86356 0.58249 0.10984 0.0
C263 C 0.90161 0.582 0.11607 0.0
C264 C 0.9349 0.60216 0.24782 0.0
H265 H 0.93895 0.54278 0.22943 0.0
C266 C 0.96921 0.56741 0.416 0.0
C267 C 0.98279 0.55586 0.40515 0.0
C268 C 0.95896 0.57412 0.37516 0.0
C269 C 0.93852 0.55974 0.23452 0.0
H270 H 0.85324 0.59207 0.18354 0.0
H271 H 0.88815 0.59638 0.23631 0.0
H272 H 0.91471 0.55064 0.16509 0.0
H273 H 0.99632 0.54241 0.34251 0.0
H274 H 0.97846 0.55434 0.27089 0.0
H275 H 0.95822 0.61099 0.31793 0.0
C276 C 0.88691 0.59228 0.19412 0.0
C277 C 0.92463 0.56425 0.19759 0.0
C278 C 0.86686 0.58972 0.16394 0.0
C279 C 0.98585 0.55115 0.35226 0.0
C280 C 0.97561 0.55797 0.31122 0.0
C281 C 0.94893 0.59774 0.28456 0.0
C282 C 0.90395 0.58746 0.17085 0.0
C283 C 0.9221 0.58514 0.20473 0.0
C284 C 0.96209 0.56959 0.32227 0.0
C285 C 0.95025 0.57607 0.27926 0.0
H286 H 0.87966 0.5741 0.04412 0.0
H287 H 0.91462 0.57845 0.09708 0.0
H288 H 0.9335 0.61855 0.25392 0.0
H289 H 0.96633 0.57122 0.4562 0.0
H290 H 0.94817 0.58247 0.38515 0.0
C291 C 0.32605 0.81985 0.19964 0.0
C292 C 0.32416 0.82567 0.14756 0.0
C293 C 0.34646 0.83544 0.23328 0.0
C294 C 0.39458 0.86904 0.29561 0.0
H295 H 0.40859 0.93651 0.29433 0.0
C296 C 0.45774 0.94512 0.45717 0.0
C297 C 0.44755 0.95868 0.47843 0.0
C298 C 0.44706 0.92961 0.41119 0.0
C299 C 0.40499 0.91778 0.295 0.0
H300 H 0.34304 0.85141 0.08868 0.0
H301 H 0.37877 0.87868 0.14761 0.0
H302 H 0.38279 0.90668 0.22272 0.0
H303 H 0.41838 0.9669 0.4675 0.0
H304 H 0.39984 0.93998 0.38762 0.0
H305 H 0.41585 0.88 0.36947 0.0
C306 C 0.3643 0.86217 0.16249 0.0
C307 C 0.39045 0.90074 0.25365 0.0
C308 C 0.34389 0.84647 0.12867 0.0
C309 C 0.42668 0.95669 0.45232 0.0
C310 C 0.41617 0.94142 0.40623 0.0
C311 C 0.40925 0.88615 0.33693 0.0
C312 C 0.36541 0.85724 0.21564 0.0
C313 C 0.38445 0.876 0.2543 0.0
C314 C 0.42615 0.92763 0.38527 0.0
C315 C 0.41393 0.91049 0.33785 0.0
H316 H 0.31122 0.80386 0.21529 0.0
H317 H 0.34662 0.83117 0.27406 0.0
H318 H 0.39046 0.85015 0.29693 0.0
H319 H 0.47377 0.94619 0.47643 0.0
H320 H 0.45516 0.91923 0.39586 0.0
C321 C 0.4044 0.24624 0.30917 0.0
C322 C 0.42022 0.23801 0.32615 0.0
C323 C 0.40009 0.26163 0.34279 0.0
C324 C 0.41574 0.29401 0.47887 0.0
H325 H 0.42422 0.3485 0.39882 0.0
C326 C 0.46618 0.39647 0.55818 0.0
C327 C 0.4595 0.41216 0.53445 0.0
C328 C 0.45362 0.37123 0.54274 0.0
C329 C 0.42128 0.33333 0.42208 0.0
H330 H 0.44173 0.23718 0.39358 0.0
H331 H 0.4351 0.26467 0.45117 0.0
H332 H 0.41484 0.31022 0.35277 0.0
H333 H 0.43295 0.41378 0.48133 0.0
H334 H 0.41055 0.36982 0.45594 0.0
H335 H 0.4238 0.3182 0.54833 0.0
C336 C 0.42563 0.2591 0.41238 0.0
C337 C 0.41577 0.31116 0.39547 0.0
C338 C 0.42955 0.24333 0.37909 0.0
C339 C 0.43867 0.40203 0.49946 0.0
C340 C 0.42593 0.37689 0.48479 0.0
C341 C 0.42145 0.31642 0.50565 0.0
C342 C 0.41195 0.26955 0.39368 0.0
C343 C 0.41346 0.29133 0.42328 0.0
C344 C 0.43408 0.36142 0.5039 0.0
C345 C 0.42476 0.33648 0.4774 0.0
H346 H 0.3966 0.24211 0.26885 0.0
H347 H 0.38872 0.2686 0.32763 0.0
H348 H 0.41379 0.27906 0.50169 0.0
H349 H 0.48222 0.40395 0.58527 0.0
H350 H 0.46039 0.35983 0.55821 0.0
C351 C 0.52509 0.82256 0.94472 0.0
C352 C 0.54583 0.82 0.947 0.0
C353 C 0.52302 0.83804 0.9099 0.0
C354 C 0.55786 0.89159 0.8337 0.0
H355 H 0.49419 0.86889 0.76349 0.0
C356 C 0.53344 0.95188 0.70324 0.0
C357 C 0.51313 0.9527 0.72072 0.0
C358 C 0.53935 0.93474 0.72222 0.0
C359 C 0.51212 0.87542 0.78252 0.0
H360 H 0.58093 0.83213 0.91502 0.0
H361 H 0.57726 0.8594 0.85396 0.0
H362 H 0.50129 0.84071 0.81392 0.0
H363 H 0.48283 0.93603 0.77071 0.0
H364 H 0.49288 0.90619 0.803 0.0
H365 H 0.56834 0.92661 0.80318 0.0
C366 C 0.56264 0.84932 0.87932 0.0
C367 C 0.51616 0.85935 0.81161 0.0
C368 C 0.5647 0.83369 0.91421 0.0
C369 C 0.49866 0.93592 0.75665 0.0
C370 C 0.50429 0.91868 0.77483 0.0
C371 C 0.55381 0.90772 0.8043 0.0
C372 C 0.54161 0.8514 0.87638 0.0
C373 C 0.53878 0.8675 0.83913 0.0
C374 C 0.52469 0.91792 0.75805 0.0
C375 C 0.53063 0.89997 0.78005 0.0
H376 H 0.51027 0.81244 0.96959 0.0
H377 H 0.50682 0.83966 0.90948 0.0
H378 H 0.57548 0.89839 0.85449 0.0
H379 H 0.54506 0.96485 0.67616 0.0
H380 H 0.55524 0.93455 0.70888 0.0
C381 C 0.74574 0.55417 0.88859 0.0
C382 C 0.74709 0.55501 0.94394 0.0
C383 C 0.72522 0.55182 0.86076 0.0
C384 C 0.66011 0.52564 0.87166 0.0
H385 H 0.66385 0.56117 0.7483 0.0
C386 C 0.57512 0.51011 0.74137 0.0
C387 C 0.57808 0.5116 0.68696 0.0
C388 C 0.59502 0.51579 0.77672 0.0
C389 C 0.66249 0.5509 0.78238 0.0
H390 H 0.72841 0.55512 0.01365 0.0
H391 H 0.69252 0.55083 0.96482 0.0
H392 H 0.70083 0.57249 0.80259 0.0
H393 H 0.60336 0.51812 0.62645 0.0
H394 H 0.63751 0.52705 0.68736 0.0
H395 H 0.62183 0.5035 0.85042 0.0
C396 C 0.70732 0.55191 0.94311 0.0
C397 C 0.68367 0.5575 0.81355 0.0
C398 C 0.72798 0.55457 0.97097 0.0
C399 C 0.60067 0.51723 0.66831 0.0
C400 C 0.62032 0.52259 0.70327 0.0
C401 C 0.63887 0.51887 0.84014 0.0
C402 C 0.70555 0.55001 0.88775 0.0
C403 C 0.68276 0.54467 0.85793 0.0
C404 C 0.61803 0.5228 0.75795 0.0
C405 C 0.63994 0.53109 0.79446 0.0
H406 H 0.76016 0.55446 0.86668 0.0
H407 H 0.72427 0.55029 0.81803 0.0
H408 H 0.65895 0.51532 0.90553 0.0
H409 H 0.5579 0.50588 0.75673 0.0
H410 H 0.59266 0.51569 0.81867 0.0
C411 C 0.20943 0.71285 0.97467 0.0
C412 C 0.22237 0.73681 0.95788 0.0
C413 C 0.19411 0.69308 0.93897 0.0
C414 C 0.15763 0.67938 0.81354 0.0
H415 H 0.14647 0.6137 0.83144 0.0
C416 C 0.08382 0.58852 0.6934 0.0
C417 C 0.06957 0.56969 0.72611 0.0
C418 C 0.10421 0.61035 0.71491 0.0
C419 C 0.14947 0.63198 0.82587 0.0
H420 H 0.23035 0.75861 0.88977 0.0
H421 H 0.20375 0.7239 0.82716 0.0
H422 H 0.18096 0.6489 0.87995 0.0
H423 H 0.06492 0.55975 0.80747 0.0
H424 H 0.10036 0.59743 0.84426 0.0
H425 H 0.12576 0.66209 0.75969 0.0
C426 C 0.20519 0.72053 0.8682 0.0
C427 C 0.16915 0.65211 0.85373 0.0
C428 C 0.22055 0.74038 0.90403 0.0
C429 C 0.07554 0.57365 0.78085 0.0
C430 C 0.09593 0.5952 0.80206 0.0
C431 C 0.138 0.65916 0.78517 0.0
C432 C 0.19141 0.69674 0.8855 0.0
C433 C 0.173 0.67597 0.84931 0.0
C434 C 0.11077 0.61348 0.76926 0.0
C435 C 0.13334 0.63525 0.79252 0.0
H436 H 0.2104 0.70944 0.01585 0.0
H437 H 0.18355 0.67508 0.9539 0.0
H438 H 0.15996 0.69749 0.80947 0.0
H439 H 0.07978 0.58607 0.65111 0.0
H440 H 0.11536 0.62431 0.68892 0.0
C441 C 0.49038 0.21249 0.02247 0.0
C442 C 0.47156 0.20293 0.05717 0.0
C443 C 0.49274 0.19703 0.98532 0.0
C444 C 0.45981 0.13736 0.91047 0.0
H445 H 0.52415 0.1455 0.89903 0.0
C446 C 0.47942 0.08577 0.74541 0.0
C447 C 0.49059 0.07261 0.76278 0.0
C448 C 0.47884 0.10353 0.77921 0.0
C449 C 0.50611 0.14305 0.9018 0.0
H450 H 0.44 0.16966 0.07904 0.0
H451 H 0.444 0.14247 0.01316 0.0
H452 H 0.51827 0.17168 0.96358 0.0
H453 H 0.51145 0.06912 0.82808 0.0
H454 H 0.51082 0.10047 0.88657 0.0
H455 H 0.44762 0.10863 0.84888 0.0
C456 C 0.45695 0.16203 0.01516 0.0
C457 C 0.50275 0.15807 0.93849 0.0
C458 C 0.45468 0.17756 0.05286 0.0
C459 C 0.50268 0.07888 0.81338 0.0
C460 C 0.50231 0.09684 0.84696 0.0
C461 C 0.46322 0.12251 0.87338 0.0
C462 C 0.47624 0.17163 0.98161 0.0
C463 C 0.47957 0.15535 0.94322 0.0
C464 C 0.48966 0.10871 0.8308 0.0
C465 C 0.48639 0.12519 0.86874 0.0
H466 H 0.50366 0.23197 0.02444 0.0
H467 H 0.50753 0.20497 0.95941 0.0
H468 H 0.4418 0.135 0.91308 0.0
H469 H 0.47004 0.08154 0.70661 0.0
H470 H 0.46934 0.11275 0.76546 0.0
C471 C 0.33718 0.52754 0.07751 0.0
C472 C 0.31903 0.52537 0.04057 0.0
C473 C 0.3593 0.53088 0.06089 0.0
C474 C 0.38989 0.51297 0.00593 0.0
H475 H 0.42445 0.55132 0.89063 0.0
C476 C 0.43418 0.48157 0.85299 0.0
C477 C 0.45676 0.49873 0.83525 0.0
C478 C 0.42267 0.48898 0.88896 0.0
C479 C 0.4153 0.54083 0.9235 0.0
H480 H 0.31074 0.52722 0.95796 0.0
H481 H 0.34936 0.53326 0.92909 0.0
H482 H 0.39485 0.5593 0.93286 0.0
H483 H 0.48542 0.53698 0.84236 0.0
H484 H 0.46484 0.55015 0.90472 0.0
H485 H 0.40935 0.49364 0.99476 0.0
C486 C 0.34649 0.53228 0.97084 0.0
C487 C 0.39823 0.54526 0.94736 0.0
C488 C 0.32429 0.52871 0.98737 0.0
C489 C 0.4681 0.52335 0.85576 0.0
C490 C 0.45629 0.5309 0.89107 0.0
C491 C 0.40671 0.50837 0.98172 0.0
C492 C 0.36383 0.53241 0.00713 0.0
C493 C 0.38487 0.53092 0.98788 0.0
C494 C 0.43327 0.51381 0.90731 0.0
C495 C 0.41907 0.52177 0.93929 0.0
H496 H 0.33377 0.52509 0.11884 0.0
H497 H 0.37244 0.53119 0.08981 0.0
H498 H 0.37974 0.50144 0.0367 0.0
H499 H 0.42505 0.46248 0.83784 0.0
H500 H 0.40484 0.47545 0.90034 0.0
C501 C 0.81981 0.28704 0.96722 0.0
C502 C 0.79565 0.28212 0.96315 0.0
C503 C 0.83705 0.30378 0.9352 0.0
C504 C 0.8443 0.33715 0.81421 0.0
H505 H 0.9064 0.38504 0.8855 0.0
C506 C 0.928 0.40579 0.70615 0.0
C507 C 0.94329 0.42939 0.7311 0.0
C508 C 0.9082 0.38804 0.73126 0.0
C509 C 0.88906 0.37196 0.8651 0.0
H510 H 0.77037 0.28995 0.92034 0.0
H511 H 0.80036 0.31904 0.86471 0.0
H512 H 0.87593 0.35239 0.93426 0.0
H513 H 0.94855 0.45335 0.8004 0.0
H514 H 0.91388 0.42246 0.84384 0.0
H515 H 0.85743 0.35699 0.74512 0.0
C516 C 0.80603 0.30999 0.89252 0.0
C517 C 0.87174 0.35301 0.89286 0.0
C518 C 0.78885 0.29338 0.92464 0.0
C519 C 0.93734 0.4353 0.78021 0.0
C520 C 0.91757 0.41753 0.80535 0.0
C521 C 0.86171 0.35608 0.78632 0.0
C522 C 0.83045 0.31583 0.89823 0.0
C523 C 0.84914 0.33538 0.8678 0.0
C524 C 0.90323 0.39348 0.78188 0.0
C525 C 0.88427 0.37375 0.81151 0.0
H526 H 0.82564 0.27866 0.99639 0.0
H527 H 0.85566 0.3076 0.93998 0.0
H528 H 0.82711 0.32379 0.79369 0.0
H529 H 0.93193 0.4006 0.66819 0.0
H530 H 0.89755 0.36969 0.71211 0.0
C531 C 0.83967 0.49749 0.00761 0.0
C532 C 0.82311 0.50494 0.99124 0.0
C533 C 0.85522 0.49585 0.97219 0.0
C534 C 0.86714 0.49684 0.82878 0.0
H535 H 0.9336 0.52108 0.88373 0.0
C536 C 0.94794 0.53073 0.69624 0.0
C537 C 0.96439 0.52226 0.70504 0.0
C538 C 0.92994 0.52616 0.73123 0.0
C539 C 0.91505 0.51401 0.86792 0.0
H540 H 0.80935 0.51569 0.92415 0.0
H541 H 0.83672 0.51349 0.863 0.0
H542 H 0.90292 0.51663 0.94389 0.0
H543 H 0.97555 0.50335 0.75862 0.0
H544 H 0.94409 0.49541 0.82022 0.0
H545 H 0.8797 0.49528 0.75246 0.0
C546 C 0.83747 0.50836 0.90284 0.0
C547 C 0.89737 0.51131 0.90242 0.0
C548 C 0.82175 0.5097 0.93808 0.0
C549 C 0.96281 0.50961 0.75029 0.0
C550 C 0.94498 0.5053 0.78576 0.0
C551 C 0.8849 0.49986 0.79426 0.0
C552 C 0.8548 0.50191 0.91962 0.0
C553 C 0.87319 0.50294 0.8833 0.0
C554 C 0.9282 0.51333 0.77628 0.0
C555 C 0.90909 0.50872 0.81339 0.0
H556 H 0.84112 0.49358 0.04824 0.0
H557 H 0.86788 0.49027 0.98638 0.0
H558 H 0.84867 0.48985 0.81257 0.0
H559 H 0.94864 0.54049 0.66164 0.0
H560 H 0.91748 0.53285 0.72327 0.0
C561 C 0.2589 0.84614 0.97586 0.0
C562 C 0.26856 0.85441 0.02827 0.0
C563 C 0.26928 0.86131 0.93446 0.0
C564 C 0.31304 0.9258 0.90406 0.0
H565 H 0.32836 0.89451 0.78888 0.0
C566 C 0.39845 0.97658 0.7917 0.0
C567 C 0.3984 0.97039 0.73798 0.0
C568 C 0.37754 0.96408 0.81903 0.0
C569 C 0.32378 0.9035 0.81996 0.0
H570 H 0.2957 0.88574 0.07838 0.0
H571 H 0.3137 0.91209 0.00657 0.0
H572 H 0.30053 0.86936 0.85311 0.0
H573 H 0.37617 0.94688 0.66996 0.0
H574 H 0.3392 0.92444 0.71831 0.0
H575 H 0.33717 0.96003 0.87219 0.0
C576 C 0.29806 0.89393 0.99726 0.0
C577 C 0.30782 0.88907 0.85694 0.0
C578 C 0.28778 0.87874 0.03857 0.0
C579 C 0.3766 0.95209 0.7113 0.0
C580 C 0.35557 0.93918 0.73906 0.0
C581 C 0.32897 0.94021 0.86713 0.0
C582 C 0.28943 0.88517 0.94451 0.0
C583 C 0.30291 0.90011 0.90049 0.0
C584 C 0.35599 0.94477 0.79356 0.0
C585 C 0.33523 0.92931 0.8257 0.0
H586 H 0.24406 0.82752 0.9664 0.0
H587 H 0.26195 0.8541 0.89441 0.0
H588 H 0.30927 0.93488 0.93645 0.0
H589 H 0.41504 0.99065 0.8132 0.0
H590 H 0.37871 0.9687 0.86097 0.0
C591 C 0.46984 0.30283 0.0785 0.0
C592 C 0.49205 0.30671 0.10171 0.0
C593 C 0.46939 0.31606 0.03621 0.0
C594 C 0.50694 0.35257 0.9302 0.0
H595 H 0.45774 0.37166 0.91702 0.0
C596 C 0.50849 0.42199 0.78543 0.0
C597 C 0.48614 0.41777 0.76221 0.0
C598 C 0.50917 0.40619 0.8216 0.0
C599 C 0.47135 0.36611 0.91966 0.0
H600 H 0.5313 0.3282 0.09939 0.0
H601 H 0.53055 0.3519 0.02628 0.0
H602 H 0.45978 0.35072 0.99361 0.0
H603 H 0.44713 0.39265 0.75608 0.0
H604 H 0.44835 0.365 0.81933 0.0
H605 H 0.51885 0.36868 0.85663 0.0
C606 C 0.51342 0.33814 0.04015 0.0
C607 C 0.47258 0.35413 0.96371 0.0
C608 C 0.51387 0.32474 0.08246 0.0
C609 C 0.46464 0.39642 0.77319 0.0
C610 C 0.46531 0.38073 0.80984 0.0
C611 C 0.50583 0.36476 0.88627 0.0
C612 C 0.49114 0.33375 0.01606 0.0
C613 C 0.49035 0.34714 0.96961 0.0
C614 C 0.48752 0.3859 0.83571 0.0
C615 C 0.48798 0.37164 0.88048 0.0
H616 H 0.45263 0.28903 0.09201 0.0
H617 H 0.45187 0.31186 0.01836 0.0
H618 H 0.52061 0.34711 0.93287 0.0
H619 H 0.52541 0.43822 0.77766 0.0
H620 H 0.52656 0.41073 0.84085 0.0
C621 C 0.19696 0.45273 0.964 0.0
C622 C 0.19398 0.43667 0.00353 0.0
C623 C 0.17845 0.44643 0.92466 0.0
C624 C 0.11198 0.4088 0.90495 0.0
H625 H 0.12408 0.43445 0.7665 0.0
C626 C 0.05944 0.4265 0.71578 0.0
C627 C 0.04849 0.43735 0.74513 0.0
C628 C 0.07461 0.41929 0.74134 0.0
C629 C 0.12023 0.42668 0.80454 0.0
H630 H 0.16978 0.40063 0.03056 0.0
H631 H 0.13754 0.38949 0.96141 0.0
H632 H 0.15695 0.43472 0.81989 0.0
H633 H 0.04357 0.44763 0.8243 0.0
H634 H 0.06973 0.43519 0.86839 0.0
H635 H 0.07542 0.40121 0.89006 0.0
C636 C 0.15406 0.40719 0.96147 0.0
C637 C 0.13917 0.42712 0.83546 0.0
C638 C 0.17261 0.41352 1.00097 0.0
C639 C 0.05187 0.43951 0.80045 0.0
C640 C 0.06673 0.43214 0.82585 0.0
C641 C 0.09306 0.40829 0.87401 0.0
C642 C 0.15649 0.42385 0.92366 0.0
C643 C 0.13551 0.41905 0.88686 0.0
C644 C 0.07876 0.42248 0.79667 0.0
C645 C 0.0972 0.41812 0.82431 0.0
H646 H 0.21322 0.47068 0.96459 0.0
H647 H 0.18092 0.45988 0.89671 0.0
H648 H 0.10844 0.40251 0.94434 0.0
H649 H 0.05719 0.42464 0.67309 0.0
H650 H 0.08351 0.41176 0.7178 0.0
C651 C 0.66429 0.18376 0.08163 0.0
C652 C 0.68314 0.2054 0.0631 0.0
C653 C 0.64526 0.16634 0.0469 0.0
C654 C 0.62295 0.12576 0.95919 0.0
H655 H 0.59623 0.14043 0.83553 0.0
C656 C 0.58394 0.05956 0.77201 0.0
C657 C 0.5635 0.0575 0.74376 0.0
C658 C 0.59534 0.07693 0.81494 0.0
C659 C 0.60325 0.13591 0.87017 0.0
H660 H 0.6955 0.22673 0.9945 0.0
H661 H 0.66252 0.19635 0.93407 0.0
H662 H 0.61993 0.17286 0.90473 0.0
H663 H 0.53935 0.07246 0.73784 0.0
H664 H 0.5588 0.10228 0.81336 0.0
H665 H 0.60637 0.08886 0.92464 0.0
C666 C 0.66235 0.19277 0.97538 0.0
C667 C 0.61702 0.15458 0.90962 0.0
C668 C 0.68135 0.21022 0.01011 0.0
C669 C 0.55466 0.07313 0.75955 0.0
C670 C 0.56605 0.0905 0.80238 0.0
C671 C 0.60917 0.10711 0.9198 0.0
C672 C 0.64465 0.17017 0.99291 0.0
C673 C 0.62741 0.14984 0.95417 0.0
C674 C 0.58662 0.09273 0.83043 0.0
C675 C 0.59955 0.11205 0.87433 0.0
H676 H 0.66497 0.17955 0.12231 0.0
H677 H 0.63159 0.14937 0.06192 0.0
H678 H 0.63091 0.12147 0.99259 0.0
H679 H 0.59127 0.04788 0.7607 0.0
H680 H 0.61138 0.0784 0.83511 0.0
C681 C 0.57425 0.72689 0.92625 0.0
C682 C 0.55219 0.72647 0.93276 0.0
C683 C 0.5762 0.71273 0.88494 0.0
C684 C 0.54659 0.6766 0.75772 0.0
H685 H 0.57422 0.63715 0.80304 0.0
C686 C 0.5236 0.58339 0.65418 0.0
C687 C 0.53988 0.57478 0.66283 0.0
C688 C 0.52952 0.60688 0.67473 0.0
C689 C 0.56702 0.64841 0.78888 0.0
H690 H 0.51516 0.71164 0.89951 0.0
H691 H 0.51851 0.68671 0.82772 0.0
H692 H 0.57593 0.66873 0.86365 0.0
H693 H 0.57586 0.58439 0.69424 0.0
H694 H 0.58697 0.62596 0.72695 0.0
H695 H 0.53718 0.65572 0.6831 0.0
C696 C 0.53436 0.69816 0.85435 0.0
C697 C 0.56792 0.66652 0.82399 0.0
C698 C 0.53239 0.71229 0.89578 0.0
C699 C 0.56311 0.5908 0.68693 0.0
C700 C 0.56925 0.61443 0.7064 0.0
C701 C 0.54584 0.65851 0.72226 0.0
C702 C 0.55615 0.69785 0.84908 0.0
C703 C 0.55732 0.68052 0.80926 0.0
C704 C 0.55193 0.62215 0.70373 0.0
C705 C 0.55566 0.64384 0.73775 0.0
H706 H 0.58993 0.73777 0.95371 0.0
H707 H 0.59333 0.71313 0.88155 0.0
H708 H 0.53849 0.6873 0.74505 0.0
H709 H 0.5054 0.57111 0.63646 0.0
H710 H 0.51565 0.61206 0.6719 0.0
C711 C 0.49854 0.21806 0.34093 0.0
C712 C 0.50457 0.21596 0.28893 0.0
C713 C 0.49802 0.20196 0.37807 0.0
C714 C 0.47867 0.13978 0.38265 0.0
H715 H 0.52274 0.14923 0.5027 0.0
C716 C 0.48765 0.06085 0.45883 0.0
C717 C 0.49269 0.0601 0.51275 0.0
C718 C 0.48631 0.08066 0.44022 0.0
C719 C 0.50992 0.14639 0.47009 0.0
H720 H 0.51691 0.19675 0.23689 0.0
H721 H 0.51567 0.16866 0.30148 0.0
H722 H 0.52862 0.18481 0.45499 0.0
H723 H 0.49924 0.07909 0.58997 0.0
H724 H 0.49688 0.11414 0.55713 0.0
H725 H 0.46013 0.10155 0.39646 0.0
C726 C 0.51129 0.1827 0.31321 0.0
C727 C 0.51341 0.16672 0.44273 0.0
C728 C 0.51201 0.19882 0.27634 0.0
C729 C 0.49524 0.07916 0.54819 0.0
C730 C 0.49412 0.09928 0.52936 0.0
C731 C 0.47504 0.1196 0.41009 0.0
C732 C 0.50351 0.1836 0.36368 0.0
C733 C 0.49822 0.16335 0.39789 0.0
C734 C 0.49002 0.1004 0.47495 0.0
C735 C 0.49113 0.12249 0.45296 0.0
H736 H 0.49276 0.23107 0.35204 0.0
H737 H 0.49192 0.20288 0.41687 0.0
H738 H 0.46663 0.13686 0.34836 0.0
H739 H 0.4855 0.04642 0.43051 0.0
H740 H 0.48345 0.08099 0.39806 0.0
C741 C 0.28314 0.44461 0.24663 0.0
C742 C 0.29197 0.45121 0.19655 0.0
C743 C 0.29739 0.44216 0.28658 0.0
C744 C 0.35387 0.43883 0.31351 0.0
H745 H 0.35568 0.47045 0.44925 0.0
C746 C 0.4331 0.47135 0.47291 0.0
C747 C 0.42713 0.46711 0.52551 0.0
C748 C 0.41519 0.4667 0.43318 0.0
C749 C 0.35518 0.46127 0.41181 0.0
H750 H 0.32209 0.45891 0.14828 0.0
H751 H 0.34699 0.45507 0.21784 0.0
H752 H 0.3262 0.46558 0.37895 0.0
H753 H 0.39757 0.45434 0.57763 0.0
H754 H 0.36631 0.44633 0.5083 0.0
H755 H 0.38345 0.43526 0.34625 0.0
C756 C 0.32899 0.45151 0.22637 0.0
C757 C 0.33819 0.45836 0.37148 0.0
C758 C 0.3147 0.45381 0.18639 0.0
C759 C 0.4028 0.45793 0.5375 0.0
C760 C 0.38491 0.45344 0.49785 0.0
C761 C 0.37099 0.44189 0.35379 0.0
C762 C 0.32083 0.44636 0.27742 0.0
C763 C 0.33747 0.44734 0.32159 0.0
C764 C 0.3909 0.45776 0.44524 0.0
C765 C 0.37199 0.45338 0.4032 0.0
H766 H 0.26562 0.44229 0.25566 0.0
H767 H 0.2903 0.43764 0.32509 0.0
H768 H 0.35361 0.42992 0.2759 0.0
H769 H 0.45152 0.47783 0.46226 0.0
H770 H 0.42043 0.47038 0.39308 0.0
C771 C 0.81673 0.30828 0.23426 0.0
C772 C 0.79493 0.28977 0.25262 0.0
C773 C 0.83614 0.32438 0.26956 0.0
C774 C 0.85374 0.35242 0.40404 0.0
H775 H 0.91718 0.36341 0.36925 0.0
C776 C 0.9435 0.425 0.52199 0.0
C777 C 0.96145 0.44078 0.48947 0.0
C778 C 0.92302 0.40331 0.50018 0.0
C779 C 0.89961 0.36055 0.37958 0.0
H780 H 0.77612 0.27442 0.32284 0.0
H781 H 0.81021 0.3031 0.38491 0.0
H782 H 0.88079 0.33235 0.31738 0.0
H783 H 0.97254 0.44554 0.40916 0.0
H784 H 0.93719 0.40805 0.37154 0.0
H785 H 0.87277 0.3814 0.46503 0.0
C786 C 0.81215 0.30482 0.34293 0.0
C787 C 0.87879 0.34278 0.34986 0.0
C788 C 0.79267 0.28845 0.30741 0.0
C789 C 0.95903 0.43388 0.43534 0.0
C790 C 0.9388 0.41223 0.41377 0.0
C791 C 0.87468 0.37037 0.43376 0.0
C792 C 0.83426 0.32256 0.3242 0.0
C793 C 0.85572 0.33905 0.36068 0.0
C794 C 0.92034 0.39687 0.44566 0.0
C795 C 0.89791 0.37515 0.4207 0.0
H796 H 0.81913 0.31001 0.19241 0.0
H797 H 0.85278 0.33822 0.25398 0.0
H798 H 0.83617 0.3499 0.41322 0.0
H799 H 0.94482 0.42985 0.56386 0.0
H800 H 0.90916 0.39175 0.5258 0.0
C801 C 0.51623 0.80443 0.22125 0.0
C802 C 0.53919 0.80988 0.20502 0.0
C803 C 0.5143 0.8172 0.26548 0.0
C804 C 0.54802 0.85647 0.38656 0.0
H805 H 0.50416 0.882 0.36767 0.0
C806 C 0.55364 0.93682 0.519 0.0
C807 C 0.53247 0.93839 0.52251 0.0
C808 C 0.553 0.91731 0.48878 0.0
C809 C 0.51611 0.87459 0.37443 0.0
H810 H 0.57815 0.83259 0.22352 0.0
H811 H 0.57474 0.85489 0.30059 0.0
H812 H 0.50583 0.85547 0.29798 0.0
H813 H 0.49364 0.91966 0.50235 0.0
H814 H 0.49218 0.88503 0.45233 0.0
H815 H 0.55845 0.87585 0.46303 0.0
C816 C 0.55823 0.84064 0.27924 0.0
C817 C 0.51712 0.85942 0.33414 0.0
C818 C 0.56017 0.82799 0.23479 0.0
C819 C 0.51027 0.91896 0.49987 0.0
C820 C 0.50953 0.89928 0.47062 0.0
C821 C 0.54686 0.87154 0.42724 0.0
C822 C 0.53528 0.8356 0.29472 0.0
C823 C 0.53326 0.85039 0.3394 0.0
C824 C 0.53109 0.89887 0.46221 0.0
C825 C 0.53105 0.88102 0.42149 0.0
H826 H 0.4997 0.79051 0.1994 0.0
H827 H 0.49635 0.81272 0.27671 0.0
H828 H 0.56048 0.84958 0.39198 0.0
H829 H 0.57104 0.95171 0.53566 0.0
H830 H 0.57 0.91771 0.48324 0.0
C831 C 0.72802 0.51636 0.20609 0.0
C832 C 0.7203 0.50566 0.15421 0.0
C833 C 0.71118 0.51557 0.24099 0.0
C834 C 0.6457 0.4842 0.26476 0.0
H835 H 0.6615 0.54683 0.33526 0.0
C836 C 0.57263 0.49765 0.36252 0.0
C837 C 0.57913 0.51221 0.41036 0.0
C838 C 0.59036 0.49673 0.33329 0.0
C839 C 0.6569 0.5291 0.3166 0.0
H840 H 0.6887 0.48453 0.09935 0.0
H841 H 0.65935 0.48288 0.16043 0.0
H842 H 0.69147 0.54394 0.28304 0.0
H843 H 0.60955 0.53749 0.4646 0.0
H844 H 0.64049 0.53556 0.41407 0.0
H845 H 0.61121 0.46926 0.29834 0.0
C846 C 0.67841 0.49197 0.17406 0.0
C847 C 0.6741 0.52745 0.28664 0.0
C848 C 0.69526 0.49298 0.13901 0.0
C849 C 0.60391 0.52622 0.42775 0.0
C850 C 0.62167 0.52513 0.39866 0.0
C851 C 0.62857 0.48579 0.29506 0.0
C852 C 0.68625 0.50381 0.22498 0.0
C853 C 0.6686 0.50505 0.25991 0.0
C854 C 0.61509 0.51016 0.3513 0.0
C855 C 0.6338 0.50833 0.32085 0.0
H856 H 0.74718 0.52631 0.2191 0.0
H857 H 0.71771 0.52458 0.28022 0.0
H858 H 0.64104 0.46662 0.24515 0.0
H859 H 0.55374 0.48678 0.34765 0.0
H860 H 0.58462 0.48547 0.29642 0.0
C861 C 0.19157 0.74348 0.25453 0.0
C862 C 0.20944 0.7395 0.2327 0.0
C863 C 0.17749 0.7288 0.29392 0.0
C864 C 0.15552 0.66727 0.34138 0.0
H865 H 0.1425 0.69257 0.4702 0.0
C866 C 0.10418 0.60101 0.49696 0.0
C867 C 0.0855 0.60333 0.5193 0.0
C868 C 0.12181 0.62005 0.46984 0.0
C869 C 0.1458 0.68518 0.43426 0.0
H870 H 0.22684 0.71732 0.23638 0.0
H871 H 0.20241 0.69197 0.30399 0.0
H872 H 0.16706 0.72108 0.40541 0.0
H873 H 0.07173 0.6282 0.5341 0.0
H874 H 0.10215 0.66125 0.48578 0.0
H875 H 0.13399 0.6315 0.3686 0.0
C876 C 0.19908 0.70622 0.2906 0.0
C877 C 0.15984 0.70153 0.39714 0.0
C878 C 0.21317 0.72088 0.25183 0.0
C879 C 0.08602 0.62592 0.51769 0.0
C880 C 0.10347 0.64488 0.48973 0.0
C881 C 0.14142 0.651 0.37802 0.0
C882 C 0.18087 0.70974 0.31172 0.0
C883 C 0.16505 0.69273 0.35053 0.0
C884 C 0.12093 0.64174 0.46339 0.0
C885 C 0.13653 0.65966 0.42532 0.0
H886 H 0.1883 0.75771 0.24082 0.0
H887 H 0.16352 0.73189 0.30938 0.0
H888 H 0.15878 0.65984 0.30539 0.0
H889 H 0.10437 0.58389 0.49787 0.0
H890 H 0.13547 0.61726 0.45177 0.0
loop_
_geom_bond_atom_site_label_1
_geom_bond_atom_site_label_2
_geom_bond_distance
_geom_bond_site_symmetry_2
_ccdc_geom_bond_type
Mg0 O7 2.141 . S
Mg0 O8 2.048 . S
Mg0 O9 2.048 . S
Mg0 O12 2.141 . S
C1 O2 1.313 . S
C1 O8 1.195 . S
O2 C1 1.313 . S
C3 O4 1.245 . S
C3 O12 1.289 . S
O4 C3 1.245 . S
C5 O6 1.245 . S
C5 O7 1.289 . S
O6 C5 1.245 . S
O7 Mg0 2.141 . S
O7 C5 1.289 . S
O8 Mg0 2.048 . S
O8 C1 1.195 . S
O9 Mg0 2.048 . S
O9 C10 1.195 . S
C10 O9 1.195 . S
C10 O11 1.313 . S
O11 C10 1.313 . S
O12 Mg0 2.141 . S
O12 C3 1.289 . S
Mg13 O20 2.141 . S
Mg13 O21 2.048 . S
Mg13 O22 2.048 . S
Mg13 O25 2.141 . S
C14 O15 1.313 . S
C14 O21 1.195 . S
O15 C14 1.313 . S
C16 O17 1.245 . S
C16 O25 1.289 . S
O17 C16 1.245 . S
C18 O19 1.245 . S
C18 O20 1.289 . S
O19 C18 1.245 . S
O20 Mg13 2.141 . S
O20 C18 1.289 . S
O21 Mg13 2.048 . S
O21 C14 1.195 . S
O22 Mg13 2.048 . S
O22 C23 1.195 . S
C23 O22 1.195 . S
C23 O24 1.313 . S
O24 C23 1.313 . S
O25 Mg13 2.141 . S
O25 C16 1.289 . S
Mg26 O33 2.141 1_554 S
Mg26 O34 2.048 . S
Mg26 O35 2.048 . S
Mg26 O38 2.141 1_554 S
C27 O28 1.313 . S
C27 O34 1.195 . S
O28 C27 1.313 . S
C29 O30 1.245 . S
C29 O38 1.289 . S
O30 C29 1.245 . S
C31 O32 1.245 . S
C31 O33 1.289 . S
O32 C31 1.245 . S
O33 Mg26 2.141 1_556 S
O33 C31 1.289 . S
O34 Mg26 2.048 . S
O34 C27 1.195 . S
O35 Mg26 2.048 . S
O35 C36 1.195 . S
C36 O35 1.195 . S
C36 O37 1.313 . S
O37 C36 1.313 . S
O38 Mg26 2.141 1_556 S
O38 C29 1.289 . S
Mg39 O46 2.141 . S
Mg39 O47 2.048 1_554 S
Mg39 O48 2.048 1_554 S
Mg39 O51 2.141 . S
C40 O41 1.313 . S
C40 O47 1.195 . S
O41 C40 1.313 . S
C42 O43 1.245 . S
C42 O51 1.289 . S
O43 C42 1.245 . S
C44 O45 1.245 . S
C44 O46 1.289 . S
O45 C44 1.245 . S
O46 Mg39 2.141 . S
O46 C44 1.289 . S
O47 Mg39 2.048 1_556 S
O47 C40 1.195 . S
O48 Mg39 2.048 1_556 S
O48 C49 1.195 . S
C49 O48 1.195 . S
C49 O50 1.313 . S
O50 C49 1.313 . S
O51 Mg39 2.141 . S
O51 C42 1.289 . S
Mg52 O59 2.141 . S
Mg52 O60 2.048 . S
Mg52 O61 2.048 . S
Mg52 O64 2.141 . S
C53 O54 1.313 . S
C53 O60 1.195 . S
O54 C53 1.313 . S
C55 O56 1.245 . S
C55 O64 1.289 . S
O56 C55 1.245 . S
C57 O58 1.245 . S
C57 O59 1.289 . S
O58 C57 1.245 . S
O59 Mg52 2.141 . S
O59 C57 1.289 . S
O60 Mg52 2.048 . S
O60 C53 1.195 . S
O61 Mg52 2.048 . S
O61 C62 1.195 . S
C62 O61 1.195 . S
C62 O63 1.313 . S
O63 C62 1.313 . S
O64 Mg52 2.141 . S
O64 C55 1.289 . S
Mg65 O72 2.141 . S
Mg65 O73 2.048 . S
Mg65 O74 2.048 . S
Mg65 O77 2.141 . S
C66 O67 1.313 . S
C66 O73 1.195 . S
O67 C66 1.313 . S
C68 O69 1.245 . S
C68 O77 1.289 . S
O69 C68 1.245 . S
C70 O71 1.245 . S
C70 O72 1.289 . S
O71 C70 1.245 . S
O72 Mg65 2.141 . S
O72 C70 1.289 . S
O73 Mg65 2.048 . S
O73 C66 1.195 . S
O74 Mg65 2.048 . S
O74 C75 1.195 . S
C75 O74 1.195 . S
C75 O76 1.313 . S
O76 C75 1.313 . S
O77 Mg65 2.141 . S
O77 C68 1.289 . S
C78 O105 1.312 . S
C78 O106 1.208 . S
C79 O100 1.331 . S
C79 O103 1.244 . S
C80 O102 1.264 . S
C80 O104 1.273 . S
Mg81 O83 1.936 1_455 S
Mg81 O90 2.081 1_455 S
Mg81 O92 2.023 . S
Mg81 O96 2.031 1_455 S
Mg81 O105 2.291 . S
Mg82 O83 1.942 . S
Mg82 O93 1.967 . S
Mg82 O94 1.922 1_655 S
Mg82 O101 2.008 . S
O83 Mg81 1.936 1_655 S
O83 Mg82 1.942 . S
O83 Mg84 1.915 1_655 S
Mg84 O83 1.915 1_455 S
Mg84 O85 1.915 . S
Mg84 O89 2.013 . S
Mg84 O95 2.114 1_455 S
Mg84 O99 2.013 1_455 S
Mg84 O105 2.114 . S
O85 Mg84 1.915 . S
O85 Mg86 1.936 . S
O85 Mg87 1.963 . S
Mg86 O85 1.936 . S
Mg86 O95 2.291 1_455 S
Mg86 O100 2.081 . S
Mg86 O102 2.023 1_455 S
Mg86 O106 2.031 . S
Mg87 O85 1.963 . S
Mg87 O91 1.986 . S
Mg87 O103 1.942 . S
Mg87 O104 1.955 1_455 S
C88 O99 1.191 . S
C88 O101 1.307 . S
O89 Mg84 2.013 . S
O89 C108 1.191 . S
O90 Mg81 2.081 1_655 S
O90 C98 1.331 . S
O91 Mg87 1.986 . S
O91 C108 1.307 . S
O92 Mg81 2.023 . S
O92 C107 1.264 . S
O93 Mg82 1.967 . S
O93 C98 1.244 . S
O94 Mg82 1.922 1_455 S
O94 C107 1.273 . S
O95 Mg84 2.114 1_655 S
O95 Mg86 2.291 1_655 S
O95 C97 1.312 . S
O96 Mg81 2.031 1_655 S
O96 C97 1.208 . S
C97 O95 1.312 . S
C97 O96 1.208 . S
C98 O90 1.331 . S
C98 O93 1.244 . S
O99 Mg84 2.013 1_655 S
O99 C88 1.191 . S
O100 C79 1.331 . S
O100 Mg86 2.081 . S
O101 Mg82 2.008 . S
O101 C88 1.307 . S
O102 C80 1.264 . S
O102 Mg86 2.023 1_655 S
O103 C79 1.244 . S
O103 Mg87 1.942 . S
O104 C80 1.273 . S
O104 Mg87 1.955 1_655 S
O105 C78 1.312 . S
O105 Mg81 2.291 . S
O105 Mg84 2.114 . S
O106 C78 1.208 . S
O106 Mg86 2.031 . S
C107 O92 1.264 . S
C107 O94 1.273 . S
C108 O89 1.191 . S
C108 O91 1.307 . S
C109 O136 1.312 . S
C109 O137 1.208 . S
C110 O131 1.331 . S
C110 O134 1.244 . S
C111 O133 1.264 . S
C111 O135 1.273 . S
Mg112 O114 1.936 1_545 S
Mg112 O121 2.081 1_545 S
Mg112 O123 2.023 . S
Mg112 O127 2.031 1_545 S
Mg112 O136 2.291 . S
Mg113 O114 1.963 . S
Mg113 O124 1.942 . S
Mg113 O125 1.955 1_565 S
Mg113 O132 1.986 . S
O114 Mg112 1.936 1_565 S
O114 Mg113 1.963 . S
O114 Mg115 1.915 1_565 S
Mg115 O114 1.915 1_545 S
Mg115 O116 1.915 . S
Mg115 O120 2.013 . S
Mg115 O126 2.114 1_545 S
Mg115 O130 2.013 1_545 S
Mg115 O136 2.114 . S
O116 Mg115 1.915 . S
O116 Mg117 1.936 . S
O116 Mg118 1.963 . S
Mg117 O116 1.936 . S
Mg117 O126 2.291 1_545 S
Mg117 O131 2.081 . S
Mg117 O133 2.023 1_545 S
Mg117 O137 2.031 . S
Mg118 O116 1.963 . S
Mg118 O122 1.986 . S
Mg118 O134 1.942 . S
Mg118 O135 1.955 1_545 S
C119 O130 1.191 . S
C119 O132 1.307 . S
O120 Mg115 2.013 . S
O120 C139 1.191 . S
O121 Mg112 2.081 1_565 S
O121 C129 1.331 . S
O122 Mg118 1.986 . S
O122 C139 1.307 . S
O123 Mg112 2.023 . S
O123 C138 1.264 . S
O124 Mg113 1.942 . S
O124 C129 1.244 . S
O125 Mg113 1.955 1_545 S
O125 C138 1.273 . S
O126 Mg115 2.114 1_565 S
O126 Mg117 2.291 1_565 S
O126 C128 1.312 . S
O127 Mg112 2.031 1_565 S
O127 C128 1.208 . S
C128 O126 1.312 . S
C128 O127 1.208 . S
C129 O121 1.331 . S
C129 O124 1.244 . S
O130 Mg115 2.013 1_565 S
O130 C119 1.191 . S
O131 C110 1.331 . S
O131 Mg117 2.081 . S
O132 Mg113 1.986 . S
O132 C119 1.307 . S
O133 C111 1.264 . S
O133 Mg117 2.023 1_565 S
O134 C110 1.244 . S
O134 Mg118 1.942 . S
O135 C111 1.273 . S
O135 Mg118 1.955 1_565 S
O136 C109 1.312 . S
O136 Mg112 2.291 . S
O136 Mg115 2.114 . S
O137 C109 1.208 . S
O137 Mg117 2.031 . S
C138 O123 1.264 . S
C138 O125 1.273 . S
C139 O120 1.191 . S
C139 O122 1.307 . S
C140 O167 1.312 . S
C140 O168 1.208 . S
C141 O162 1.331 . S
C141 O165 1.244 . S
C142 O164 1.264 . S
C142 O166 1.273 . S
Mg143 O145 1.936 . S
Mg143 O152 2.081 . S
Mg143 O154 2.023 . S
Mg143 O158 2.031 . S
Mg143 O167 2.291 . S
Mg144 O145 1.963 . S
Mg144 O155 1.942 . S
Mg144 O156 1.955 . S
Mg144 O163 1.986 . S
O145 Mg143 1.936 . S
O145 Mg144 1.963 . S
O145 Mg146 1.915 . S
Mg146 O145 1.915 . S
Mg146 O147 1.915 . S
Mg146 O151 2.013 . S
Mg146 O157 2.114 . S
Mg146 O161 2.013 . S
Mg146 O167 2.114 . S
O147 Mg146 1.915 . S
O147 Mg148 1.936 . S
O147 Mg149 1.963 . S
Mg148 O147 1.936 . S
Mg148 O157 2.291 . S
Mg148 O162 2.081 . S
Mg148 O164 2.023 . S
Mg148 O168 2.031 . S
Mg149 O147 1.963 . S
Mg149 O153 1.986 . S
Mg149 O165 1.942 . S
Mg149 O166 1.955 . S
C150 O161 1.191 . S
C150 O163 1.307 . S
O151 Mg146 2.013 . S
O151 C170 1.191 . S
O152 Mg143 2.081 . S
O152 C160 1.331 . S
O153 Mg149 1.986 . S
O153 C170 1.307 . S
O154 Mg143 2.023 . S
O154 C169 1.264 . S
O155 Mg144 1.942 . S
O155 C160 1.244 . S
O156 Mg144 1.955 . S
O156 C169 1.273 . S
O157 Mg146 2.114 . S
O157 Mg148 2.291 . S
O157 C159 1.312 . S
O158 Mg143 2.031 . S
O158 C159 1.208 . S
C159 O157 1.312 . S
C159 O158 1.208 . S
C160 O152 1.331 . S
C160 O155 1.244 . S
O161 Mg146 2.013 . S
O161 C150 1.191 . S
O162 C141 1.331 . S
O162 Mg148 2.081 . S
O163 Mg144 1.986 . S
O163 C150 1.307 . S
O164 C142 1.264 . S
O164 Mg148 2.023 . S
O165 C141 1.244 . S
O165 Mg149 1.942 . S
O166 C142 1.273 . S
O166 Mg149 1.955 . S
O167 C140 1.312 . S
O167 Mg143 2.291 . S
O167 Mg146 2.114 . S
O168 C140 1.208 . S
O168 Mg148 2.031 . S
C169 O154 1.264 . S
C169 O156 1.273 . S
C170 O151 1.191 . S
C170 O153 1.307 . S
C171 C172 1.349 . S
C171 C173 1.327 . S
C171 H196 0.950 . S
C172 C171 1.349 . S
C172 C188 1.349 . S
C173 C171 1.327 . S
C173 C192 1.429 . S
C173 H197 0.950 . S
C174 C191 1.574 . S
C174 C193 1.368 . S
C174 H198 0.949 . S
H175 C179 0.949 . S
C176 C177 1.349 . S
C176 C178 1.327 . S
C176 H199 0.950 . S
C177 C176 1.349 . S
C177 C189 1.349 . S
C178 C176 1.327 . S
C178 C194 1.429 . S
C178 H200 0.950 . S
C179 H175 0.949 . S
C179 C187 1.574 . S
C179 C195 1.368 . S
H180 C188 0.950 . S
H181 C186 0.950 . S
H182 C187 0.949 . S
H183 C189 0.950 . S
H184 C190 0.950 . S
H185 C191 0.949 . S
C186 H181 0.950 . S
C186 C188 1.327 . S
C186 C192 1.429 . S
C187 C179 1.574 . S
C187 H182 0.949 . S
C187 C193 1.368 . S
C188 C172 1.349 . S
C188 H180 0.950 . S
C188 C186 1.327 . S
C189 C177 1.349 . S
C189 H183 0.950 . S
C189 C190 1.327 . S
C190 H184 0.950 . S
C190 C189 1.327 . S
C190 C194 1.429 . S
C191 C174 1.574 . S
C191 H185 0.949 . S
C191 C195 1.368 . S
C192 C173 1.429 . S
C192 C186 1.429 . S
C192 C193 1.523 . S
C193 C174 1.368 . S
C193 C187 1.368 . S
C193 C192 1.523 . S
C194 C178 1.429 . S
C194 C190 1.429 . S
C194 C195 1.523 . S
C195 C179 1.368 . S
C195 C191 1.368 . S
C195 C194 1.523 . S
H196 C171 0.950 . S
H197 C173 0.950 . S
H198 C174 0.949 . S
H199 C176 0.950 . S
H200 C178 0.950 . S
C201 C202 1.349 . S
C201 C203 1.327 . S
C201 H226 0.950 . S
C202 C201 1.349 . S
C202 C218 1.349 . S
C203 C201 1.327 . S
C203 C222 1.429 . S
C203 H227 0.950 . S
C204 C221 1.574 . S
C204 C223 1.368 . S
C204 H228 0.949 . S
H205 C209 0.949 . S
C206 C207 1.349 . S
C206 C208 1.327 . S
C206 H229 0.950 . S
C207 C206 1.349 . S
C207 C219 1.349 . S
C208 C206 1.327 . S
C208 C224 1.429 . S
C208 H230 0.950 . S
C209 H205 0.949 . S
C209 C217 1.574 . S
C209 C225 1.368 . S
H210 C218 0.950 . S
H211 C216 0.950 . S
H212 C217 0.949 . S
H213 C219 0.950 . S
H214 C220 0.950 . S
H215 C221 0.949 . S
C216 H211 0.950 . S
C216 C218 1.327 . S
C216 C222 1.429 . S
C217 C209 1.574 . S
C217 H212 0.949 . S
C217 C223 1.368 . S
C218 C202 1.349 . S
C218 H210 0.950 . S
C218 C216 1.327 . S
C219 C207 1.349 . S
C219 H213 0.950 . S
C219 C220 1.327 . S
C220 H214 0.950 . S
C220 C219 1.327 . S
C220 C224 1.429 . S
C221 C204 1.574 . S
C221 H215 0.949 . S
C221 C225 1.368 . S
C222 C203 1.429 . S
C222 C216 1.429 . S
C222 C223 1.523 . S
C223 C204 1.368 . S
C223 C217 1.368 . S
C223 C222 1.523 . S
C224 C208 1.429 . S
C224 C220 1.429 . S
C224 C225 1.523 . S
C225 C209 1.368 . S
C225 C221 1.368 . S
C225 C224 1.523 . S
H226 C201 0.950 . S
H227 C203 0.950 . S
H228 C204 0.949 . S
H229 C206 0.950 . S
H230 C208 0.950 . S
C231 C232 1.349 . S
C231 C233 1.327 . S
C231 H256 0.950 . S
C232 C231 1.349 . S
C232 C248 1.349 . S
C233 C231 1.327 . S
C233 C252 1.429 . S
C233 H257 0.950 . S
C234 C251 1.574 . S
C234 C253 1.368 . S
C234 H258 0.949 . S
H235 C239 0.949 . S
C236 C237 1.349 . S
C236 C238 1.327 . S
C236 H259 0.950 . S
C237 C236 1.349 . S
C237 C249 1.349 . S
C238 C236 1.327 . S
C238 C254 1.429 . S
C238 H260 0.950 . S
C239 H235 0.949 . S
C239 C247 1.574 . S
C239 C255 1.368 . S
H240 C248 0.950 . S
H241 C246 0.950 . S
H242 C247 0.949 . S
H243 C249 0.950 . S
H244 C250 0.950 . S
H245 C251 0.949 . S
C246 H241 0.950 . S
C246 C248 1.327 . S
C246 C252 1.429 . S
C247 C239 1.574 . S
C247 H242 0.949 . S
C247 C253 1.368 . S
C248 C232 1.349 . S
C248 H240 0.950 . S
C248 C246 1.327 . S
C249 C237 1.349 . S
C249 H243 0.950 . S
C249 C250 1.327 . S
C250 H244 0.950 . S
C250 C249 1.327 . S
C250 C254 1.429 . S
C251 C234 1.574 . S
C251 H245 0.949 . S
C251 C255 1.368 . S
C252 C233 1.429 . S
C252 C246 1.429 . S
C252 C253 1.523 . S
C253 C234 1.368 . S
C253 C247 1.368 . S
C253 C252 1.523 . S
C254 C238 1.429 . S
C254 C250 1.429 . S
C254 C255 1.523 . S
C255 C239 1.368 . S
C255 C251 1.368 . S
C255 C254 1.523 . S
H256 C231 0.950 . S
H257 C233 0.950 . S
H258 C234 0.949 . S
H259 C236 0.950 . S
H260 C238 0.950 . S
C261 C262 1.349 . S
C261 C263 1.327 . S
C261 H286 0.950 . S
C262 C261 1.349 . S
C262 C278 1.349 . S
C263 C261 1.327 . S
C263 C282 1.429 . S
C263 H287 0.950 . S
C264 C281 1.574 . S
C264 C283 1.368 . S
C264 H288 0.949 . S
H265 C269 0.949 . S
C266 C267 1.349 . S
C266 C268 1.327 . S
C266 H289 0.950 . S
C267 C266 1.349 . S
C267 C279 1.349 . S
C268 C266 1.327 . S
C268 C284 1.429 . S
C268 H290 0.950 . S
C269 H265 0.949 . S
C269 C277 1.574 . S
C269 C285 1.368 . S
H270 C278 0.950 . S
H271 C276 0.950 . S
H272 C277 0.949 . S
H273 C279 0.950 . S
H274 C280 0.950 . S
H275 C281 0.949 . S
C276 H271 0.950 . S
C276 C278 1.327 . S
C276 C282 1.429 . S
C277 C269 1.574 . S
C277 H272 0.949 . S
C277 C283 1.368 . S
C278 C262 1.349 . S
C278 H270 0.950 . S
C278 C276 1.327 . S
C279 C267 1.349 . S
C279 H273 0.950 . S
C279 C280 1.327 . S
C280 H274 0.950 . S
C280 C279 1.327 . S
C280 C284 1.429 . S
C281 C264 1.574 . S
C281 H275 0.949 . S
C281 C285 1.368 . S
C282 C263 1.429 . S
C282 C276 1.429 . S
C282 C283 1.523 . S
C283 C264 1.368 . S
C283 C277 1.368 . S
C283 C282 1.523 . S
C284 C268 1.429 . S
C284 C280 1.429 . S
C284 C285 1.523 . S
C285 C269 1.368 . S
C285 C281 1.368 . S
C285 C284 1.523 . S
H286 C261 0.950 . S
H287 C263 0.950 . S
H288 C264 0.949 . S
H289 C266 0.950 . S
H290 C268 0.950 . S
C291 C292 1.349 . S
C291 C293 1.327 . S
C291 H316 0.950 . S
C292 C291 1.349 . S
C292 C308 1.349 . S
C293 C291 1.327 . S
C293 C312 1.429 . S
C293 H317 0.950 . S
C294 C311 1.574 . S
C294 C313 1.368 . S
C294 H318 0.949 . S
H295 C299 0.949 . S
C296 C297 1.349 . S
C296 C298 1.327 . S
C296 H319 0.950 . S
C297 C296 1.349 . S
C297 C309 1.349 . S
C298 C296 1.327 . S
C298 C314 1.429 . S
C298 H320 0.950 . S
C299 H295 0.949 . S
C299 C307 1.574 . S
C299 C315 1.368 . S
H300 C308 0.950 . S
H301 C306 0.950 . S
H302 C307 0.949 . S
H303 C309 0.950 . S
H304 C310 0.950 . S
H305 C311 0.949 . S
C306 H301 0.950 . S
C306 C308 1.327 . S
C306 C312 1.429 . S
C307 C299 1.574 . S
C307 H302 0.949 . S
C307 C313 1.368 . S
C308 C292 1.349 . S
C308 H300 0.950 . S
C308 C306 1.327 . S
C309 C297 1.349 . S
C309 H303 0.950 . S
C309 C310 1.327 . S
C310 H304 0.950 . S
C310 C309 1.327 . S
C310 C314 1.429 . S
C311 C294 1.574 . S
C311 H305 0.949 . S
C311 C315 1.368 . S
C312 C293 1.429 . S
C312 C306 1.429 . S
C312 C313 1.523 . S
C313 C294 1.368 . S
C313 C307 1.368 . S
C313 C312 1.523 . S
C314 C298 1.429 . S
C314 C310 1.429 . S
C314 C315 1.523 . S
C315 C299 1.368 . S
C315 C311 1.368 . S
C315 C314 1.523 . S
H316 C291 0.950 . S
H317 C293 0.950 . S
H318 C294 0.949 . S
H319 C296 0.950 . S
H320 C298 0.950 . S
C321 C322 1.349 . S
C321 C323 1.327 . S
C321 H346 0.950 . S
C322 C321 1.349 . S
C322 C338 1.349 . S
C323 C321 1.327 . S
C323 C342 1.429 . S
C323 H347 0.950 . S
C324 C341 1.574 . S
C324 C343 1.368 . S
C324 H348 0.949 . S
H325 C329 0.949 . S
C326 C327 1.349 . S
C326 C328 1.327 . S
C326 H349 0.950 . S
C327 C326 1.349 . S
C327 C339 1.349 . S
C328 C326 1.327 . S
C328 C344 1.429 . S
C328 H350 0.950 . S
C329 H325 0.949 . S
C329 C337 1.574 . S
C329 C345 1.368 . S
H330 C338 0.950 . S
H331 C336 0.950 . S
H332 C337 0.949 . S
H333 C339 0.950 . S
H334 C340 0.950 . S
H335 C341 0.949 . S
C336 H331 0.950 . S
C336 C338 1.327 . S
C336 C342 1.429 . S
C337 C329 1.574 . S
C337 H332 0.949 . S
C337 C343 1.368 . S
C338 C322 1.349 . S
C338 H330 0.950 . S
C338 C336 1.327 . S
C339 C327 1.349 . S
C339 H333 0.950 . S
C339 C340 1.327 . S
C340 H334 0.950 . S
C340 C339 1.327 . S
C340 C344 1.429 . S
C341 C324 1.574 . S
C341 H335 0.949 . S
C341 C345 1.368 . S
C342 C323 1.429 . S
C342 C336 1.429 . S
C342 C343 1.523 . S
C343 C324 1.368 . S
C343 C337 1.368 . S
C343 C342 1.523 . S
C344 C328 1.429 . S
C344 C340 1.429 . S
C344 C345 1.523 . S
C345 C329 1.368 . S
C345 C341 1.368 . S
C345 C344 1.523 . S
H346 C321 0.950 . S
H347 C323 0.950 . S
H348 C324 0.949 . S
H349 C326 0.950 . S
H350 C328 0.950 . S
C351 C352 1.349 . S
C351 C353 1.327 . S
C351 H376 0.950 . S
C352 C351 1.349 . S
C352 C368 1.349 . S
C353 C351 1.327 . S
C353 C372 1.429 . S
C353 H377 0.950 . S
C354 C371 1.574 . S
C354 C373 1.368 . S
C354 H378 0.949 . S
H355 C359 0.949 . S
C356 C357 1.349 . S
C356 C358 1.327 . S
C356 H379 0.950 . S
C357 C356 1.349 . S
C357 C369 1.349 . S
C358 C356 1.327 . S
C358 C374 1.429 . S
C358 H380 0.950 . S
C359 H355 0.949 . S
C359 C367 1.574 . S
C359 C375 1.368 . S
H360 C368 0.950 . S
H361 C366 0.950 . S
H362 C367 0.949 . S
H363 C369 0.950 . S
H364 C370 0.950 . S
H365 C371 0.949 . S
C366 H361 0.950 . S
C366 C368 1.327 . S
C366 C372 1.429 . S
C367 C359 1.574 . S
C367 H362 0.949 . S
C367 C373 1.368 . S
C368 C352 1.349 . S
C368 H360 0.950 . S
C368 C366 1.327 . S
C369 C357 1.349 . S
C369 H363 0.950 . S
C369 C370 1.327 . S
C370 H364 0.950 . S
C370 C369 1.327 . S
C370 C374 1.429 . S
C371 C354 1.574 . S
C371 H365 0.949 . S
C371 C375 1.368 . S
C372 C353 1.429 . S
C372 C366 1.429 . S
C372 C373 1.523 . S
C373 C354 1.368 . S
C373 C367 1.368 . S
C373 C372 1.523 . S
C374 C358 1.429 . S
C374 C370 1.429 . S
C374 C375 1.523 . S
C375 C359 1.368 . S
C375 C371 1.368 . S
C375 C374 1.523 . S
H376 C351 0.950 . S
H377 C353 0.950 . S
H378 C354 0.949 . S
H379 C356 0.950 . S
H380 C358 0.950 . S
C381 C382 1.349 . S
C381 C383 1.327 . S
C381 H406 0.950 . S
C382 C381 1.349 . S
C382 C398 1.349 . S
C383 C381 1.327 . S
C383 C402 1.429 . S
C383 H407 0.950 . S
C384 C401 1.574 . S
C384 C403 1.368 . S
C384 H408 0.949 . S
H385 C389 0.949 . S
C386 C387 1.349 . S
C386 C388 1.327 . S
C386 H409 0.950 . S
C387 C386 1.349 . S
C387 C399 1.349 . S
C388 C386 1.327 . S
C388 C404 1.429 . S
C388 H410 0.950 . S
C389 H385 0.949 . S
C389 C397 1.574 . S
C389 C405 1.368 . S
H390 C398 0.950 . S
H391 C396 0.950 . S
H392 C397 0.949 . S
H393 C399 0.950 . S
H394 C400 0.950 . S
H395 C401 0.949 . S
C396 H391 0.950 . S
C396 C398 1.327 . S
C396 C402 1.429 . S
C397 C389 1.574 . S
C397 H392 0.949 . S
C397 C403 1.368 . S
C398 C382 1.349 . S
C398 H390 0.950 . S
C398 C396 1.327 . S
C399 C387 1.349 . S
C399 H393 0.950 . S
C399 C400 1.327 . S
C400 H394 0.950 . S
C400 C399 1.327 . S
C400 C404 1.429 . S
C401 C384 1.574 . S
C401 H395 0.949 . S
C401 C405 1.368 . S
C402 C383 1.429 . S
C402 C396 1.429 . S
C402 C403 1.523 . S
C403 C384 1.368 . S
C403 C397 1.368 . S
C403 C402 1.523 . S
C404 C388 1.429 . S
C404 C400 1.429 . S
C404 C405 1.523 . S
C405 C389 1.368 . S
C405 C401 1.368 . S
C405 C404 1.523 . S
H406 C381 0.950 . S
H407 C383 0.950 . S
H408 C384 0.949 . S
H409 C386 0.950 . S
H410 C388 0.950 . S
C411 C412 1.349 1_554 S
C411 C413 1.327 1_554 S
C411 H436 0.950 . S
C412 C411 1.349 1_556 S
C412 C428 1.349 . S
C413 C411 1.327 1_556 S
C413 C432 1.429 . S
C413 H437 0.950 . S
C414 C431 1.574 . S
C414 C433 1.368 . S
C414 H438 0.949 . S
H415 C419 0.949 . S
C416 C417 1.349 . S
C416 C418 1.327 . S
C416 H439 0.950 . S
C417 C416 1.349 . S
C417 C429 1.349 . S
C418 C416 1.327 . S
C418 C434 1.429 . S
C418 H440 0.950 . S
C419 H415 0.949 . S
C419 C427 1.574 . S
C419 C435 1.368 . S
H420 C428 0.950 . S
H421 C426 0.950 . S
H422 C427 0.949 . S
H423 C429 0.950 . S
H424 C430 0.950 . S
H425 C431 0.949 . S
C426 H421 0.950 . S
C426 C428 1.327 . S
C426 C432 1.429 . S
C427 C419 1.574 . S
C427 H422 0.949 . S
C427 C433 1.368 . S
C428 C412 1.349 . S
C428 H420 0.950 . S
C428 C426 1.327 . S
C429 C417 1.349 . S
C429 H423 0.950 . S
C429 C430 1.327 . S
C430 H424 0.950 . S
C430 C429 1.327 . S
C430 C434 1.429 . S
C431 C414 1.574 . S
C431 H425 0.949 . S
C431 C435 1.368 . S
C432 C413 1.429 . S
C432 C426 1.429 . S
C432 C433 1.523 . S
C433 C414 1.368 . S
C433 C427 1.368 . S
C433 C432 1.523 . S
C434 C418 1.429 . S
C434 C430 1.429 . S
C434 C435 1.523 . S
C435 C419 1.368 . S
C435 C431 1.368 . S
C435 C434 1.523 . S
H436 C411 0.950 . S
H437 C413 0.950 . S
H438 C414 0.949 . S
H439 C416 0.950 . S
H440 C418 0.950 . S
C441 C442 1.349 . S
C441 C443 1.327 . S
C441 H466 0.950 . S
C442 C441 1.349 . S
C442 C458 1.349 1_554 S
C443 C441 1.327 . S
C443 C462 1.429 1_554 S
C443 H467 0.950 . S
C444 C461 1.574 . S
C444 C463 1.368 . S
C444 H468 0.949 . S
H445 C449 0.949 . S
C446 C447 1.349 . S
C446 C448 1.327 . S
C446 H469 0.950 . S
C447 C446 1.349 . S
C447 C459 1.349 . S
C448 C446 1.327 . S
C448 C464 1.429 . S
C448 H470 0.950 . S
C449 H445 0.949 . S
C449 C457 1.574 . S
C449 C465 1.368 . S
H450 C458 0.950 . S
H451 C456 0.950 . S
H452 C457 0.949 . S
H453 C459 0.950 . S
H454 C460 0.950 . S
H455 C461 0.949 . S
C456 H451 0.950 . S
C456 C458 1.327 . S
C456 C462 1.429 . S
C457 C449 1.574 . S
C457 H452 0.949 . S
C457 C463 1.368 . S
C458 C442 1.349 1_556 S
C458 H450 0.950 . S
C458 C456 1.327 . S
C459 C447 1.349 . S
C459 H453 0.950 . S
C459 C460 1.327 . S
C460 H454 0.950 . S
C460 C459 1.327 . S
C460 C464 1.429 . S
C461 C444 1.574 . S
C461 H455 0.949 . S
C461 C465 1.368 . S
C462 C443 1.429 1_556 S
C462 C456 1.429 . S
C462 C463 1.523 . S
C463 C444 1.368 . S
C463 C457 1.368 . S
C463 C462 1.523 . S
C464 C448 1.429 . S
C464 C460 1.429 . S
C464 C465 1.523 . S
C465 C449 1.368 . S
C465 C461 1.368 . S
C465 C464 1.523 . S
H466 C441 0.950 . S
H467 C443 0.950 . S
H468 C444 0.949 . S
H469 C446 0.950 . S
H470 C448 0.950 . S
C471 C472 1.349 . S
C471 C473 1.327 . S
C471 H496 0.950 . S
C472 C471 1.349 . S
C472 C488 1.349 . S
C473 C471 1.327 . S
C473 C492 1.429 1_554 S
C473 H497 0.950 1_554 S
C474 C491 1.574 . S
C474 C493 1.368 . S
C474 H498 0.949 . S
H475 C479 0.949 . S
C476 C477 1.349 . S
C476 C478 1.327 . S
C476 H499 0.950 . S
C477 C476 1.349 . S
C477 C489 1.349 . S
C478 C476 1.327 . S
C478 C494 1.429 . S
C478 H500 0.950 . S
C479 H475 0.949 . S
C479 C487 1.574 . S
C479 C495 1.368 . S
H480 C488 0.950 . S
H481 C486 0.950 1_556 S
H482 C487 0.949 . S
H483 C489 0.950 . S
H484 C490 0.950 . S
H485 C491 0.949 . S
C486 H481 0.950 1_554 S
C486 C488 1.327 . S
C486 C492 1.429 1_554 S
C487 C479 1.574 . S
C487 H482 0.949 . S
C487 C493 1.368 . S
C488 C472 1.349 . S
C488 H480 0.950 . S
C488 C486 1.327 . S
C489 C477 1.349 . S
C489 H483 0.950 . S
C489 C490 1.327 . S
C490 H484 0.950 . S
C490 C489 1.327 . S
C490 C494 1.429 . S
C491 C474 1.574 . S
C491 H485 0.949 . S
C491 C495 1.368 . S
C492 C473 1.429 1_556 S
C492 C486 1.429 1_556 S
C492 C493 1.523 . S
C493 C474 1.368 . S
C493 C487 1.368 . S
C493 C492 1.523 . S
C494 C478 1.429 . S
C494 C490 1.429 . S
C494 C495 1.523 . S
C495 C479 1.368 . S
C495 C491 1.368 . S
C495 C494 1.523 . S
H496 C471 0.950 . S
H497 C473 0.950 1_556 S
H498 C474 0.949 . S
H499 C476 0.950 . S
H500 C478 0.950 . S
C501 C502 1.347 1_554 S
C501 C503 1.323 1_554 S
C501 H526 0.955 . S
C502 C501 1.347 1_556 S
C502 C518 1.349 . S
C503 C501 1.323 1_556 S
C503 C522 1.429 . S
C503 H527 0.950 . S
C504 C521 1.574 . S
C504 C523 1.368 . S
C504 H528 0.949 . S
H505 C509 0.949 . S
C506 C507 1.349 . S
C506 C508 1.327 . S
C506 H529 0.950 . S
C507 C506 1.349 . S
C507 C519 1.349 . S
C508 C506 1.327 . S
C508 C524 1.429 . S
C508 H530 0.950 . S
C509 H505 0.949 . S
C509 C517 1.574 . S
C509 C525 1.368 . S
H510 C518 0.950 . S
H511 C516 0.950 . S
H512 C517 0.949 . S
H513 C519 0.950 . S
H514 C520 0.950 . S
H515 C521 0.949 . S
C516 H511 0.950 . S
C516 C518 1.327 . S
C516 C522 1.429 . S
C517 C509 1.574 . S
C517 H512 0.949 . S
C517 C523 1.368 . S
C518 C502 1.349 . S
C518 H510 0.950 . S
C518 C516 1.327 . S
C519 C507 1.349 . S
C519 H513 0.950 . S
C519 C520 1.327 . S
C520 H514 0.950 . S
C520 C519 1.327 . S
C520 C524 1.429 . S
C521 C504 1.574 . S
C521 H515 0.949 . S
C521 C525 1.368 . S
C522 C503 1.429 . S
C522 C516 1.429 . S
C522 C523 1.523 . S
C523 C504 1.368 . S
C523 C517 1.368 . S
C523 C522 1.523 . S
C524 C508 1.429 . S
C524 C520 1.429 . S
C524 C525 1.523 . S
C525 C509 1.368 . S
C525 C521 1.368 . S
C525 C524 1.523 . S
H526 C501 0.955 . S
H527 C503 0.950 . S
H528 C504 0.949 . S
H529 C506 0.950 . S
H530 C508 0.950 . S
C531 C532 1.349 . S
C531 C533 1.327 . S
C531 H556 0.950 . S
C532 C531 1.349 . S
C532 C548 1.349 . S
C533 C531 1.327 . S
C533 C552 1.429 . S
C533 H557 0.950 . S
C534 C551 1.574 . S
C534 C553 1.368 . S
C534 H558 0.949 . S
H535 C539 0.949 . S
C536 C537 1.349 . S
C536 C538 1.327 . S
C536 H559 0.950 . S
C537 C536 1.349 . S
C537 C549 1.349 . S
C538 C536 1.327 . S
C538 C554 1.429 . S
C538 H560 0.950 . S
C539 H535 0.949 . S
C539 C547 1.574 . S
C539 C555 1.368 . S
H540 C548 0.950 . S
H541 C546 0.950 . S
H542 C547 0.949 . S
H543 C549 0.950 . S
H544 C550 0.950 . S
H545 C551 0.949 . S
C546 H541 0.950 . S
C546 C548 1.327 . S
C546 C552 1.429 . S
C547 C539 1.574 . S
C547 H542 0.949 . S
C547 C553 1.368 . S
C548 C532 1.349 . S
C548 H540 0.950 . S
C548 C546 1.327 . S
C549 C537 1.349 . S
C549 H543 0.950 . S
C549 C550 1.327 . S
C550 H544 0.950 . S
C550 C549 1.327 . S
C550 C554 1.429 . S
C551 C534 1.574 . S
C551 H545 0.949 . S
C551 C555 1.368 . S
C552 C533 1.429 . S
C552 C546 1.429 . S
C552 C553 1.523 . S
C553 C534 1.368 . S
C553 C547 1.368 . S
C553 C552 1.523 . S
C554 C538 1.429 . S
C554 C550 1.429 . S
C554 C555 1.523 . S
C555 C539 1.368 . S
C555 C551 1.368 . S
C555 C554 1.523 . S
H556 C531 0.950 . S
H557 C533 0.950 . S
H558 C534 0.949 . S
H559 C536 0.950 . S
H560 C538 0.950 . S
C561 C562 1.349 . S
C561 C563 1.327 . S
C561 H586 0.950 . S
C562 C561 1.349 . S
C562 C578 1.349 1_556 S
C563 C561 1.327 . S
C563 C582 1.429 . S
C563 H587 0.950 . S
C564 C581 1.574 . S
C564 C583 1.368 . S
C564 H588 0.949 . S
H565 C569 0.949 . S
C566 C567 1.349 . S
C566 C568 1.327 . S
C566 H589 0.950 . S
C567 C566 1.349 . S
C567 C579 1.349 . S
C568 C566 1.327 . S
C568 C584 1.429 . S
C568 H590 0.950 . S
C569 H565 0.949 . S
C569 C577 1.574 . S
C569 C585 1.368 . S
H570 C578 0.950 . S
H571 C576 0.950 1_554 S
H572 C577 0.949 . S
H573 C579 0.950 . S
H574 C580 0.950 . S
H575 C581 0.949 . S
C576 H571 0.950 1_556 S
C576 C578 1.327 1_556 S
C576 C582 1.429 . S
C577 C569 1.574 . S
C577 H572 0.949 . S
C577 C583 1.368 . S
C578 C562 1.349 1_554 S
C578 H570 0.950 . S
C578 C576 1.327 1_554 S
C579 C567 1.349 . S
C579 H573 0.950 . S
C579 C580 1.327 . S
C580 H574 0.950 . S
C580 C579 1.327 . S
C580 C584 1.429 . S
C581 C564 1.574 . S
C581 H575 0.949 . S
C581 C585 1.368 . S
C582 C563 1.429 . S
C582 C576 1.429 . S
C582 C583 1.523 . S
C583 C564 1.368 . S
C583 C577 1.368 . S
C583 C582 1.523 . S
C584 C568 1.429 . S
C584 C580 1.429 . S
C584 C585 1.523 . S
C585 C569 1.368 . S
C585 C581 1.368 . S
C585 C584 1.523 . S
H586 C561 0.950 . S
H587 C563 0.950 . S
H588 C564 0.949 . S
H589 C566 0.950 . S
H590 C568 0.950 . S
C591 C592 1.349 . S
C591 C593 1.327 1_554 S
C591 H616 0.950 . S
C592 C591 1.349 . S
C592 C608 1.349 . S
C593 C591 1.327 1_556 S
C593 C612 1.429 . S
C593 H617 0.950 . S
C594 C611 1.574 . S
C594 C613 1.368 . S
C594 H618 0.949 . S
H595 C599 0.949 . S
C596 C597 1.349 . S
C596 C598 1.327 . S
C596 H619 0.950 . S
C597 C596 1.349 . S
C597 C609 1.349 . S
C598 C596 1.327 . S
C598 C614 1.429 . S
C598 H620 0.950 . S
C599 H595 0.949 . S
C599 C607 1.574 . S
C599 C615 1.368 . S
H600 C608 0.950 . S
H601 C606 0.950 . S
H602 C607 0.949 . S
H603 C609 0.950 . S
H604 C610 0.950 . S
H605 C611 0.949 . S
C606 H601 0.950 . S
C606 C608 1.327 1_556 S
C606 C612 1.429 . S
C607 C599 1.574 . S
C607 H602 0.949 . S
C607 C613 1.368 . S
C608 C592 1.349 . S
C608 H600 0.950 . S
C608 C606 1.327 1_554 S
C609 C597 1.349 . S
C609 H603 0.950 . S
C609 C610 1.327 . S
C610 H604 0.950 . S
C610 C609 1.327 . S
C610 C614 1.429 . S
C611 C594 1.574 . S
C611 H605 0.949 . S
C611 C615 1.368 . S
C612 C593 1.429 . S
C612 C606 1.429 . S
C612 C613 1.523 . S
C613 C594 1.368 . S
C613 C607 1.368 . S
C613 C612 1.523 . S
C614 C598 1.429 . S
C614 C610 1.429 . S
C614 C615 1.523 . S
C615 C599 1.368 . S
C615 C611 1.368 . S
C615 C614 1.523 . S
H616 C591 0.950 . S
H617 C593 0.950 . S
H618 C594 0.949 . S
H619 C596 0.950 . S
H620 C598 0.950 . S
C621 C622 1.349 . S
C621 C623 1.327 1_554 S
C621 H646 0.950 . S
C622 C621 1.349 . S
C622 C638 1.349 . S
C623 C621 1.327 1_556 S
C623 C642 1.429 . S
C623 H647 0.950 . S
C624 C641 1.574 . S
C624 C643 1.368 . S
C624 H648 0.949 . S
H625 C629 0.949 . S
C626 C627 1.349 . S
C626 C628 1.327 . S
C626 H649 0.950 . S
C627 C626 1.349 . S
C627 C639 1.349 . S
C628 C626 1.327 . S
C628 C644 1.429 . S
C628 H650 0.950 . S
C629 H625 0.949 . S
C629 C637 1.574 . S
C629 C645 1.368 . S
H630 C638 0.950 . S
H631 C636 0.950 . S
H632 C637 0.949 . S
H633 C639 0.950 . S
H634 C640 0.950 . S
H635 C641 0.949 . S
C636 H631 0.950 . S
C636 C638 1.327 . S
C636 C642 1.429 1_554 S
C637 C629 1.574 . S
C637 H632 0.949 . S
C637 C643 1.368 . S
C638 C622 1.349 . S
C638 H630 0.950 . S
C638 C636 1.327 . S
C639 C627 1.349 . S
C639 H633 0.950 . S
C639 C640 1.327 . S
C640 H634 0.950 . S
C640 C639 1.327 . S
C640 C644 1.429 . S
C641 C624 1.574 . S
C641 H635 0.949 . S
C641 C645 1.368 . S
C642 C623 1.429 . S
C642 C636 1.429 1_556 S
C642 C643 1.523 . S
C643 C624 1.368 . S
C643 C637 1.368 . S
C643 C642 1.523 . S
C644 C628 1.429 . S
C644 C640 1.429 . S
C644 C645 1.523 . S
C645 C629 1.368 . S
C645 C641 1.368 . S
C645 C644 1.523 . S
H646 C621 0.950 . S
H647 C623 0.950 . S
H648 C624 0.949 . S
H649 C626 0.950 . S
H650 C628 0.950 . S
C651 C652 1.349 . S
C651 C653 1.327 . S
C651 H676 0.950 1_556 S
C652 C651 1.349 . S
C652 C668 1.349 . S
C653 C651 1.327 . S
C653 C672 1.429 . S
C653 H677 0.950 . S
C654 C671 1.574 . S
C654 C673 1.368 . S
C654 H678 0.949 . S
H655 C659 0.949 . S
C656 C657 1.349 . S
C656 C658 1.327 . S
C656 H679 0.950 . S
C657 C656 1.349 . S
C657 C669 1.349 . S
C658 C656 1.327 . S
C658 C674 1.429 . S
C658 H680 0.950 . S
C659 H655 0.949 . S
C659 C667 1.574 . S
C659 C675 1.368 . S
H660 C668 0.950 . S
H661 C666 0.950 . S
H662 C667 0.949 . S
H663 C669 0.950 . S
H664 C670 0.950 . S
H665 C671 0.949 . S
C666 H661 0.950 . S
C666 C668 1.327 . S
C666 C672 1.429 . S
C667 C659 1.574 . S
C667 H662 0.949 . S
C667 C673 1.368 . S
C668 C652 1.349 . S
C668 H660 0.950 . S
C668 C666 1.327 . S
C669 C657 1.349 . S
C669 H663 0.950 . S
C669 C670 1.327 . S
C670 H664 0.950 . S
C670 C669 1.327 . S
C670 C674 1.429 . S
C671 C654 1.574 . S
C671 H665 0.949 . S
C671 C675 1.368 . S
C672 C653 1.429 . S
C672 C666 1.429 . S
C672 C673 1.523 . S
C673 C654 1.368 . S
C673 C667 1.368 . S
C673 C672 1.523 . S
C674 C658 1.429 . S
C674 C670 1.429 . S
C674 C675 1.523 . S
C675 C659 1.368 . S
C675 C671 1.368 . S
C675 C674 1.523 . S
H676 C651 0.950 1_554 S
H677 C653 0.950 . S
H678 C654 0.949 . S
H679 C656 0.950 . S
H680 C658 0.950 . S
C681 C682 1.349 . S
C681 C683 1.327 . S
C681 H706 0.950 . S
C682 C681 1.349 . S
C682 C698 1.349 . S
C683 C681 1.327 . S
C683 C702 1.429 . S
C683 H707 0.950 . S
C684 C701 1.574 . S
C684 C703 1.368 . S
C684 H708 0.949 . S
H685 C689 0.949 . S
C686 C687 1.349 . S
C686 C688 1.327 . S
C686 H709 0.950 . S
C687 C686 1.349 . S
C687 C699 1.349 . S
C688 C686 1.327 . S
C688 C704 1.429 . S
C688 H710 0.950 . S
C689 H685 0.949 . S
C689 C697 1.574 . S
C689 C705 1.368 . S
H690 C698 0.950 . S
H691 C696 0.950 . S
H692 C697 0.949 . S
H693 C699 0.950 . S
H694 C700 0.950 . S
H695 C701 0.949 . S
C696 H691 0.950 . S
C696 C698 1.327 . S
C696 C702 1.429 . S
C697 C689 1.574 . S
C697 H692 0.949 . S
C697 C703 1.368 . S
C698 C682 1.349 . S
C698 H690 0.950 . S
C698 C696 1.327 . S
C699 C687 1.349 . S
C699 H693 0.950 . S
C699 C700 1.327 . S
C700 H694 0.950 . S
C700 C699 1.327 . S
C700 C704 1.429 . S
C701 C684 1.574 . S
C701 H695 0.949 . S
C701 C705 1.368 . S
C702 C683 1.429 . S
C702 C696 1.429 . S
C702 C703 1.523 . S
C703 C684 1.368 . S
C703 C697 1.368 . S
C703 C702 1.523 . S
C704 C688 1.429 . S
C704 C700 1.429 . S
C704 C705 1.523 . S
C705 C689 1.368 . S
C705 C701 1.368 . S
C705 C704 1.523 . S
H706 C681 0.950 . S
H707 C683 0.950 . S
H708 C684 0.949 . S
H709 C686 0.950 . S
H710 C688 0.950 . S
C711 C712 1.349 . S
C711 C713 1.327 . S
C711 H736 0.950 . S
C712 C711 1.349 . S
C712 C728 1.349 . S
C713 C711 1.327 . S
C713 C732 1.429 . S
C713 H737 0.950 . S
C714 C731 1.574 . S
C714 C733 1.368 . S
C714 H738 0.949 . S
H715 C719 0.949 . S
C716 C717 1.349 . S
C716 C718 1.327 . S
C716 H739 0.950 . S
C717 C716 1.349 . S
C717 C729 1.349 . S
C718 C716 1.327 . S
C718 C734 1.429 . S
C718 H740 0.950 . S
C719 H715 0.949 . S
C719 C727 1.574 . S
C719 C735 1.368 . S
H720 C728 0.950 . S
H721 C726 0.950 . S
H722 C727 0.949 . S
H723 C729 0.950 . S
H724 C730 0.950 . S
H725 C731 0.949 . S
C726 H721 0.950 . S
C726 C728 1.327 . S
C726 C732 1.429 . S
C727 C719 1.574 . S
C727 H722 0.949 . S
C727 C733 1.368 . S
C728 C712 1.349 . S
C728 H720 0.950 . S
C728 C726 1.327 . S
C729 C717 1.349 . S
C729 H723 0.950 . S
C729 C730 1.327 . S
C730 H724 0.950 . S
C730 C729 1.327 . S
C730 C734 1.429 . S
C731 C714 1.574 . S
C731 H725 0.949 . S
C731 C735 1.368 . S
C732 C713 1.429 . S
C732 C726 1.429 . S
C732 C733 1.523 . S
C733 C714 1.368 . S
C733 C727 1.368 . S
C733 C732 1.523 . S
C734 C718 1.429 . S
C734 C730 1.429 . S
C734 C735 1.523 . S
C735 C719 1.368 . S
C735 C731 1.368 . S
C735 C734 1.523 . S
H736 C711 0.950 . S
H737 C713 0.950 . S
H738 C714 0.949 . S
H739 C716 0.950 . S
H740 C718 0.950 . S
C741 C742 1.349 . S
C741 C743 1.327 . S
C741 H766 0.950 . S
C742 C741 1.349 . S
C742 C758 1.349 . S
C743 C741 1.327 . S
C743 C762 1.429 . S
C743 H767 0.950 . S
C744 C761 1.574 . S
C744 C763 1.368 . S
C744 H768 0.949 . S
H745 C749 0.949 . S
C746 C747 1.349 . S
C746 C748 1.327 . S
C746 H769 0.950 . S
C747 C746 1.349 . S
C747 C759 1.349 . S
C748 C746 1.327 . S
C748 C764 1.429 . S
C748 H770 0.950 . S
C749 H745 0.949 . S
C749 C757 1.574 . S
C749 C765 1.368 . S
H750 C758 0.950 . S
H751 C756 0.950 . S
H752 C757 0.949 . S
H753 C759 0.950 . S
H754 C760 0.950 . S
H755 C761 0.949 . S
C756 H751 0.950 . S
C756 C758 1.327 . S
C756 C762 1.429 . S
C757 C749 1.574 . S
C757 H752 0.949 . S
C757 C763 1.368 . S
C758 C742 1.349 . S
C758 H750 0.950 . S
C758 C756 1.327 . S
C759 C747 1.349 . S
C759 H753 0.950 . S
C759 C760 1.327 . S
C760 H754 0.950 . S
C760 C759 1.327 . S
C760 C764 1.429 . S
C761 C744 1.574 . S
C761 H755 0.949 . S
C761 C765 1.368 . S
C762 C743 1.429 . S
C762 C756 1.429 . S
C762 C763 1.523 . S
C763 C744 1.368 . S
C763 C757 1.368 . S
C763 C762 1.523 . S
C764 C748 1.429 . S
C764 C760 1.429 . S
C764 C765 1.523 . S
C765 C749 1.368 . S
C765 C761 1.368 . S
C765 C764 1.523 . S
H766 C741 0.950 . S
H767 C743 0.950 . S
H768 C744 0.949 . S
H769 C746 0.950 . S
H770 C748 0.950 . S
C771 C772 1.349 . S
C771 C773 1.327 . S
C771 H796 0.950 . S
C772 C771 1.349 . S
C772 C788 1.349 . S
C773 C771 1.327 . S
C773 C792 1.429 . S
C773 H797 0.950 . S
C774 C791 1.574 . S
C774 C793 1.368 . S
C774 H798 0.949 . S
H775 C779 0.949 . S
C776 C777 1.349 . S
C776 C778 1.327 . S
C776 H799 0.950 . S
C777 C776 1.349 . S
C777 C789 1.349 . S
C778 C776 1.327 . S
C778 C794 1.429 . S
C778 H800 0.950 . S
C779 H775 0.949 . S
C779 C787 1.574 . S
C779 C795 1.368 . S
H780 C788 0.950 . S
H781 C786 0.950 . S
H782 C787 0.949 . S
H783 C789 0.950 . S
H784 C790 0.950 . S
H785 C791 0.949 . S
C786 H781 0.950 . S
C786 C788 1.327 . S
C786 C792 1.429 . S
C787 C779 1.574 . S
C787 H782 0.949 . S
C787 C793 1.368 . S
C788 C772 1.349 . S
C788 H780 0.950 . S
C788 C786 1.327 . S
C789 C777 1.349 . S
C789 H783 0.950 . S
C789 C790 1.327 . S
C790 H784 0.950 . S
C790 C789 1.327 . S
C790 C794 1.429 . S
C791 C774 1.574 . S
C791 H785 0.949 . S
C791 C795 1.368 . S
C792 C773 1.429 . S
C792 C786 1.429 . S
C792 C793 1.523 . S
C793 C774 1.368 . S
C793 C787 1.368 . S
C793 C792 1.523 . S
C794 C778 1.429 . S
C794 C790 1.429 . S
C794 C795 1.523 . S
C795 C779 1.368 . S
C795 C791 1.368 . S
C795 C794 1.523 . S
H796 C771 0.950 . S
H797 C773 0.950 . S
H798 C774 0.949 . S
H799 C776 0.950 . S
H800 C778 0.950 . S
C801 C802 1.349 . S
C801 C803 1.327 . S
C801 H826 0.950 . S
C802 C801 1.349 . S
C802 C818 1.349 . S
C803 C801 1.327 . S
C803 C822 1.429 . S
C803 H827 0.950 . S
C804 C821 1.574 . S
C804 C823 1.368 . S
C804 H828 0.949 . S
H805 C809 0.949 . S
C806 C807 1.349 . S
C806 C808 1.327 . S
C806 H829 0.950 . S
C807 C806 1.349 . S
C807 C819 1.349 . S
C808 C806 1.327 . S
C808 C824 1.429 . S
C808 H830 0.950 . S
C809 H805 0.949 . S
C809 C817 1.574 . S
C809 C825 1.368 . S
H810 C818 0.950 . S
H811 C816 0.950 . S
H812 C817 0.949 . S
H813 C819 0.950 . S
H814 C820 0.950 . S
H815 C821 0.949 . S
C816 H811 0.950 . S
C816 C818 1.327 . S
C816 C822 1.429 . S
C817 C809 1.574 . S
C817 H812 0.949 . S
C817 C823 1.368 . S
C818 C802 1.349 . S
C818 H810 0.950 . S
C818 C816 1.327 . S
C819 C807 1.349 . S
C819 H813 0.950 . S
C819 C820 1.327 . S
C820 H814 0.950 . S
C820 C819 1.327 . S
C820 C824 1.429 . S
C821 C804 1.574 . S
C821 H815 0.949 . S
C821 C825 1.368 . S
C822 C803 1.429 . S
C822 C816 1.429 . S
C822 C823 1.523 . S
C823 C804 1.368 . S
C823 C817 1.368 . S
C823 C822 1.523 . S
C824 C808 1.429 . S
C824 C820 1.429 . S
C824 C825 1.523 . S
C825 C809 1.368 . S
C825 C821 1.368 . S
C825 C824 1.523 . S
H826 C801 0.950 . S
H827 C803 0.950 . S
H828 C804 0.949 . S
H829 C806 0.950 . S
H830 C808 0.950 . S
C831 C832 1.349 . S
C831 C833 1.327 . S
C831 H856 0.950 . S
C832 C831 1.349 . S
C832 C848 1.349 . S
C833 C831 1.327 . S
C833 C852 1.429 . S
C833 H857 0.950 . S
C834 C851 1.574 . S
C834 C853 1.368 . S
C834 H858 0.949 . S
H835 C839 0.949 . S
C836 C837 1.349 . S
C836 C838 1.327 . S
C836 H859 0.950 . S
C837 C836 1.349 . S
C837 C849 1.349 . S
C838 C836 1.327 . S
C838 C854 1.429 . S
C838 H860 0.950 . S
C839 H835 0.949 . S
C839 C847 1.574 . S
C839 C855 1.368 . S
H840 C848 0.950 . S
H841 C846 0.950 . S
H842 C847 0.949 . S
H843 C849 0.950 . S
H844 C850 0.950 . S
H845 C851 0.949 . S
C846 H841 0.950 . S
C846 C848 1.327 . S
C846 C852 1.429 . S
C847 C839 1.574 . S
C847 H842 0.949 . S
C847 C853 1.368 . S
C848 C832 1.349 . S
C848 H840 0.950 . S
C848 C846 1.327 . S
C849 C837 1.349 . S
C849 H843 0.950 . S
C849 C850 1.327 . S
C850 H844 0.950 . S
C850 C849 1.327 . S
C850 C854 1.429 . S
C851 C834 1.574 . S
C851 H845 0.949 . S
C851 C855 1.368 . S
C852 C833 1.429 . S
C852 C846 1.429 . S
C852 C853 1.523 . S
C853 C834 1.368 . S
C853 C847 1.368 . S
C853 C852 1.523 . S
C854 C838 1.429 . S
C854 C850 1.429 . S
C854 C855 1.523 . S
C855 C839 1.368 . S
C855 C851 1.368 . S
C855 C854 1.523 . S
H856 C831 0.950 . S
H857 C833 0.950 . S
H858 C834 0.949 . S
H859 C836 0.950 . S
H860 C838 0.950 . S
C861 C862 1.349 . S
C861 C863 1.327 . S
C861 H886 0.950 . S
C862 C861 1.349 . S
C862 C878 1.349 . S
C863 C861 1.327 . S
C863 C882 1.429 . S
C863 H887 0.950 . S
C864 C881 1.574 . S
C864 C883 1.368 . S
C864 H888 0.949 . S
H865 C869 0.949 . S
C866 C867 1.349 . S
C866 C868 1.327 . S
C866 H889 0.950 . S
C867 C866 1.349 . S
C867 C879 1.349 . S
C868 C866 1.327 . S
C868 C884 1.429 . S
C868 H890 0.950 . S
C869 H865 0.949 . S
C869 C877 1.574 . S
C869 C885 1.368 . S
H870 C878 0.950 . S
H871 C876 0.950 . S
H872 C877 0.949 . S
H873 C879 0.950 . S
H874 C880 0.950 . S
H875 C881 0.949 . S
C876 H871 0.950 . S
C876 C878 1.327 . S
C876 C882 1.429 . S
C877 C869 1.574 . S
C877 H872 0.949 . S
C877 C883 1.368 . S
C878 C862 1.349 . S
C878 H870 0.950 . S
C878 C876 1.327 . S
C879 C867 1.349 . S
C879 H873 0.950 . S
C879 C880 1.327 . S
C880 H874 0.950 . S
C880 C879 1.327 . S
C880 C884 1.429 . S
C881 C864 1.574 . S
C881 H875 0.949 . S
C881 C885 1.368 . S
C882 C863 1.429 . S
C882 C876 1.429 . S
C882 C883 1.523 . S
C883 C864 1.368 . S
C883 C877 1.368 . S
C883 C882 1.523 . S
C884 C868 1.429 . S
C884 C880 1.429 . S
C884 C885 1.523 . S
C885 C869 1.368 . S
C885 C881 1.368 . S
C885 C884 1.523 . S
H886 C861 0.950 . S
H887 C863 0.950 . S
H888 C864 0.949 . S
H889 C866 0.950 . S
H890 C868 0.950 . S
C172 C5 1.564 . S
C177 C78 1.483 . S
C202 C16 1.413 . S
C207 C110 1.416 . S
C237 C169 1.886 . S
C232 C36 1.940 . S
C267 C98 1.343 . S
C262 C42 1.346 . S
C292 C55 1.457 . S
C297 C128 1.423 . S
C327 C150 1.075 . S
C322 C66 1.081 . S
C357 C119 1.458 . S
C352 C31 1.509 . S
C382 C40 1.138 . S
C387 C159 1.115 . S
C417 C108 1.482 . S
C412 C53 1.499 1_556 S
C442 C68 1.407 . S
C447 C138 1.400 . S
C472 C10 1.868 . S
C477 C141 1.818 . S
C507 C80 1.557 . S
C502 C14 1.565 1_556 S
C537 C88 1.511 . S
C532 C49 1.524 . S
C567 C129 1.498 . S
C562 C62 1.512 1_556 S
C597 C142 1.842 . S
C592 C70 1.863 . S
C627 C79 1.461 . S
C622 C1 1.502 . S
C657 C139 1.465 . S
C652 C23 1.478 1_556 S
C682 C29 1.044 . S
C687 C140 1.002 . S
C717 C109 1.497 . S
C712 C75 1.549 . S
C747 C170 0.999 . S
C742 C3 1.021 . S
C777 C97 1.390 . S
C772 C18 1.431 . S
C807 C111 1.532 . S
C802 C27 1.574 . S
C832 C44 1.786 . S
C837 C160 1.765 . S
C862 C57 1.505 . S
C867 C107 1.501 . S
