# Generated by pormake.
# Topology ocu, (6,8)-cn, num edge types: 1
# Building blocks:
#     Node 0, Type 0, BuildingBlock: MIFKUJ_clean_sbu_0, # of connection points: 6
#     Node 1, Type 0, BuildingBlock: MIFKUJ_clean_sbu_0, # of connection points: 6
#     Node 2, Type 0, BuildingBlock: MIFKUJ_clean_sbu_0, # of connection points: 6
#     Node 3, Type 0, BuildingBlock: MIFKUJ_clean_sbu_0, # of connection points: 6
#     Node 4, Type 0, BuildingBlock: MIFKUJ_clean_sbu_0, # of connection points: 6
#     Node 5, Type 0, BuildingBlock: MIFKUJ_clean_sbu_0, # of connection points: 6
#     Node 6, Type 0, BuildingBlock: MIFKUJ_clean_sbu_0, # of connection points: 6
#     Node 7, Type 0, BuildingBlock: MIFKUJ_clean_sbu_0, # of connection points: 6
#     Node 8, Type 1, BuildingBlock: TAGTUT_clean_sbu_1, # of connection points: 8
#     Node 9, Type 1, BuildingBlock: TAGTUT_clean_sbu_1, # of connection points: 8
#     Node 10, Type 1, BuildingBlock: TAGTUT_clean_sbu_1, # of connection points: 8
#     Node 11, Type 1, BuildingBlock: TAGTUT_clean_sbu_1, # of connection points: 8
#     Node 12, Type 1, BuildingBlock: TAGTUT_clean_sbu_1, # of connection points: 8
#     Node 13, Type 1, BuildingBlock: TAGTUT_clean_sbu_1, # of connection points: 8
#     Edge 14, Type (0, 1), BuildingBlock: EZIPEK_clean_linker_0, # of connection points: 2
#     Edge 15, Type (0, 1), BuildingBlock: EZIPEK_clean_linker_0, # of connection points: 2
#     Edge 16, Type (0, 1), BuildingBlock: EZIPEK_clean_linker_0, # of connection points: 2
#     Edge 17, Type (0, 1), BuildingBlock: EZIPEK_clean_linker_0, # of connection points: 2
#     Edge 18, Type (0, 1), BuildingBlock: EZIPEK_clean_linker_0, # of connection points: 2
#     Edge 19, Type (0, 1), BuildingBlock: EZIPEK_clean_linker_0, # of connection points: 2
#     Edge 20, Type (0, 1), BuildingBlock: EZIPEK_clean_linker_0, # of connection points: 2
#     Edge 21, Type (0, 1), BuildingBlock: EZIPEK_clean_linker_0, # of connection points: 2
#     Edge 22, Type (0, 1), BuildingBlock: EZIPEK_clean_linker_0, # of connection points: 2
#     Edge 23, Type (0, 1), BuildingBlock: EZIPEK_clean_linker_0, # of connection points: 2
#     Edge 24, Type (0, 1), BuildingBlock: EZIPEK_clean_linker_0, # of connection points: 2
#     Edge 25, Type (0, 1), BuildingBlock: EZIPEK_clean_linker_0, # of connection points: 2
#     Edge 26, Type (0, 1), BuildingBlock: EZIPEK_clean_linker_0, # of connection points: 2
#     Edge 27, Type (0, 1), BuildingBlock: EZIPEK_clean_linker_0, # of connection points: 2
#     Edge 28, Type (0, 1), BuildingBlock: EZIPEK_clean_linker_0, # of connection points: 2
#     Edge 29, Type (0, 1), BuildingBlock: EZIPEK_clean_linker_0, # of connection points: 2
#     Edge 30, Type (0, 1), BuildingBlock: EZIPEK_clean_linker_0, # of connection points: 2
#     Edge 31, Type (0, 1), BuildingBlock: EZIPEK_clean_linker_0, # of connection points: 2
#     Edge 32, Type (0, 1), BuildingBlock: EZIPEK_clean_linker_0, # of connection points: 2
#     Edge 33, Type (0, 1), BuildingBlock: EZIPEK_clean_linker_0, # of connection points: 2
#     Edge 34, Type (0, 1), BuildingBlock: EZIPEK_clean_linker_0, # of connection points: 2
#     Edge 35, Type (0, 1), BuildingBlock: EZIPEK_clean_linker_0, # of connection points: 2
#     Edge 36, Type (0, 1), BuildingBlock: EZIPEK_clean_linker_0, # of connection points: 2
#     Edge 37, Type (0, 1), BuildingBlock: EZIPEK_clean_linker_0, # of connection points: 2
#     Edge 38, Type (0, 1), BuildingBlock: EZIPEK_clean_linker_0, # of connection points: 2
#     Edge 39, Type (0, 1), BuildingBlock: EZIPEK_clean_linker_0, # of connection points: 2
#     Edge 40, Type (0, 1), BuildingBlock: EZIPEK_clean_linker_0, # of connection points: 2
#     Edge 41, Type (0, 1), BuildingBlock: EZIPEK_clean_linker_0, # of connection points: 2
#     Edge 42, Type (0, 1), BuildingBlock: EZIPEK_clean_linker_0, # of connection points: 2
#     Edge 43, Type (0, 1), BuildingBlock: EZIPEK_clean_linker_0, # of connection points: 2
#     Edge 44, Type (0, 1), BuildingBlock: EZIPEK_clean_linker_0, # of connection points: 2
#     Edge 45, Type (0, 1), BuildingBlock: EZIPEK_clean_linker_0, # of connection points: 2
#     Edge 46, Type (0, 1), BuildingBlock: EZIPEK_clean_linker_0, # of connection points: 2
#     Edge 47, Type (0, 1), BuildingBlock: EZIPEK_clean_linker_0, # of connection points: 2
#     Edge 48, Type (0, 1), BuildingBlock: EZIPEK_clean_linker_0, # of connection points: 2
#     Edge 49, Type (0, 1), BuildingBlock: EZIPEK_clean_linker_0, # of connection points: 2
#     Edge 50, Type (0, 1), BuildingBlock: EZIPEK_clean_linker_0, # of connection points: 2
#     Edge 51, Type (0, 1), BuildingBlock: EZIPEK_clean_linker_0, # of connection points: 2
#     Edge 52, Type (0, 1), BuildingBlock: EZIPEK_clean_linker_0, # of connection points: 2
#     Edge 53, Type (0, 1), BuildingBlock: EZIPEK_clean_linker_0, # of connection points: 2
#     Edge 54, Type (0, 1), BuildingBlock: EZIPEK_clean_linker_0, # of connection points: 2
#     Edge 55, Type (0, 1), BuildingBlock: EZIPEK_clean_linker_0, # of connection points: 2
#     Edge 56, Type (0, 1), BuildingBlock: EZIPEK_clean_linker_0, # of connection points: 2
#     Edge 57, Type (0, 1), BuildingBlock: EZIPEK_clean_linker_0, # of connection points: 2
#     Edge 58, Type (0, 1), BuildingBlock: EZIPEK_clean_linker_0, # of connection points: 2
#     Edge 59, Type (0, 1), BuildingBlock: EZIPEK_clean_linker_0, # of connection points: 2
#     Edge 60, Type (0, 1), BuildingBlock: EZIPEK_clean_linker_0, # of connection points: 2
#     Edge 61, Type (0, 1), BuildingBlock: EZIPEK_clean_linker_0, # of connection points: 2
# Relax obj value: 0.061
# Max RMSD: 0.235
# Mean RMSD: 0.119
data_MOF--net-ocu--node1-MIFKUJ_clean_sbu_0--node2-TAGTUT_clean_sbu_1--edge1-EZIPEK_clean_linker_0
_symmetry_space_group_name_H-M    P1
_symmetry_Int_Tables_number       1
_symmetry_cell_setting            triclinic
loop_
_symmetry_equiv_pos_as_xyz
'x, y, z'
_cell_length_a     29.996374
_cell_length_b     29.743542
_cell_length_c     29.830113
_cell_angle_alpha  92.650414
_cell_angle_beta   97.358211
_cell_angle_gamma 111.74473
loop_
_atom_site_label
_atom_site_type_symbol
_atom_site_fract_x
_atom_site_fract_y
_atom_site_fract_z
_atom_type_partial_charge
Zn0 Zn 0.21382 0.27945 0.2426 0.0
Zn1 Zn 0.28394 0.20948 0.24779 0.0
C2 C 0.19657 0.325 0.31689 0.0
O3 O 0.1546 0.2902 0.30064 0.0
C4 C 0.29874 0.16068 0.17187 0.0
O5 O 0.34265 0.18264 0.19469 0.0
O6 O 0.15919 0.29162 0.20742 0.0
O7 O 0.26794 0.30039 0.19868 0.0
O8 O 0.32619 0.27998 0.23176 0.0
C9 C 0.16308 0.33502 0.20279 0.0
O10 O 0.20332 0.37138 0.2204 0.0
O11 O 0.23341 0.32939 0.29778 0.0
C12 C 0.31818 0.14193 0.28491 0.0
O13 O 0.27425 0.11308 0.26575 0.0
O14 O 0.33247 0.18742 0.28183 0.0
O15 O 0.23064 0.18597 0.29114 0.0
O16 O 0.17514 0.21504 0.2694 0.0
O17 O 0.26304 0.1661 0.18716 0.0
C18 C 0.31247 0.30469 0.20304 0.0
C19 C 0.18885 0.18706 0.29361 0.0
Zn20 Zn 0.76722 0.27724 0.22779 0.0
Zn21 Zn 0.70355 0.22968 0.27719 0.0
C22 C 0.71131 0.3261 0.17003 0.0
O23 O 0.74557 0.33605 0.14442 0.0
C24 C 0.78931 0.21261 0.33803 0.0
O25 O 0.79816 0.25259 0.3642 0.0
O26 O 0.82132 0.30411 0.19576 0.0
O27 O 0.79247 0.30903 0.29067 0.0
O28 O 0.71797 0.29925 0.29663 0.0
C29 C 0.84545 0.34894 0.19748 0.0
O30 O 0.83421 0.37899 0.22311 0.0
O31 O 0.71296 0.30165 0.20374 0.0
C32 C 0.63 0.15306 0.29619 0.0
O33 O 0.64903 0.13305 0.26795 0.0
O34 O 0.64541 0.19867 0.30345 0.0
O35 O 0.67911 0.20583 0.21188 0.0
O36 O 0.75098 0.20566 0.21117 0.0
O37 O 0.75529 0.2 0.30365 0.0
C38 C 0.76272 0.32396 0.30677 0.0
C39 C 0.70626 0.18767 0.19567 0.0
Zn40 Zn 0.80623 0.73058 0.23636 0.0
Zn41 Zn 0.69438 0.77636 0.25355 0.0
C42 C 0.86543 0.70362 0.30212 0.0
O43 O 0.89851 0.73662 0.28355 0.0
C44 C 0.63045 0.78544 0.17303 0.0
O45 O 0.62869 0.74297 0.15662 0.0
O46 O 0.84037 0.71845 0.18655 0.0
O47 O 0.73318 0.70596 0.21267 0.0
O48 O 0.67136 0.70441 0.24512 0.0
C49 C 0.81846 0.70141 0.14648 0.0
O50 O 0.77312 0.69673 0.13499 0.0
O51 O 0.82065 0.69368 0.28788 0.0
C52 C 0.68678 0.83201 0.32963 0.0
O53 O 0.70291 0.86811 0.30458 0.0
O54 O 0.6858 0.7906 0.31651 0.0
O55 O 0.7607 0.79544 0.23984 0.0
O56 O 0.83424 0.80166 0.26059 0.0
O57 O 0.65574 0.80491 0.21141 0.0
C58 C 0.6955 0.68153 0.22948 0.0
C59 C 0.80117 0.81771 0.26439 0.0
Zn60 Zn 0.20652 0.77684 0.26541 0.0
Zn61 Zn 0.29674 0.73164 0.2176 0.0
C62 C 0.14459 0.69359 0.29642 0.0
O63 O 0.11377 0.70709 0.27078 0.0
C64 C 0.35694 0.7899 0.16831 0.0
O65 O 0.3861 0.77835 0.19811 0.0
O66 O 0.18465 0.82624 0.29164 0.0
O67 O 0.2764 0.79996 0.25826 0.0
O68 O 0.33617 0.77618 0.27252 0.0
C69 C 0.19351 0.83046 0.33475 0.0
O70 O 0.21818 0.80684 0.35516 0.0
O71 O 0.18913 0.72179 0.30316 0.0
C72 C 0.29782 0.6552 0.16436 0.0
O73 O 0.2549 0.65462 0.1498 0.0
O74 O 0.32116 0.68019 0.20141 0.0
O75 O 0.22567 0.71025 0.22547 0.0
O76 O 0.17212 0.74252 0.20475 0.0
O77 O 0.31158 0.77328 0.16898 0.0
C78 C 0.31261 0.80068 0.28569 0.0
C79 C 0.19199 0.7126 0.19624 0.0
Zn80 Zn 0.23365 0.79759 0.69787 0.0
Zn81 Zn 0.25562 0.67802 0.7549 0.0
C82 C 0.1632 0.84736 0.68896 0.0
O83 O 0.20108 0.887 0.70501 0.0
C84 C 0.33583 0.65777 0.80375 0.0
O85 O 0.3384 0.69496 0.83085 0.0
O86 O 0.2948 0.85701 0.7028 0.0
O87 O 0.23646 0.76026 0.7505 0.0
O88 O 0.27581 0.73426 0.80176 0.0
C89 C 0.32991 0.84281 0.70294 0.0
O90 O 0.31964 0.796 0.70092 0.0
O91 O 0.16999 0.80787 0.68346 0.0
C92 C 0.17098 0.59741 0.76954 0.0
O93 O 0.19189 0.56903 0.75498 0.0
O94 O 0.18947 0.64236 0.76612 0.0
O95 O 0.24824 0.69927 0.69157 0.0
O96 O 0.23623 0.75181 0.64654 0.0
O97 O 0.30381 0.64351 0.76791 0.0
C98 C 0.26713 0.76941 0.78643 0.0
C99 C 0.2436 0.71251 0.65182 0.0
Zn100 Zn 0.31642 0.25113 0.7163 0.0
Zn101 Zn 0.19831 0.27229 0.74725 0.0
C102 C 0.33622 0.20152 0.79385 0.0
O103 O 0.34245 0.24225 0.81738 0.0
C104 C 0.13587 0.30446 0.69272 0.0
O105 O 0.10464 0.27075 0.71235 0.0
O106 O 0.35095 0.25143 0.66366 0.0
O107 O 0.24867 0.24438 0.69342 0.0
O108 O 0.17873 0.20675 0.71337 0.0
C109 C 0.33227 0.2086 0.64353 0.0
O110 O 0.2946 0.17639 0.65731 0.0
O111 O 0.32209 0.1956 0.75116 0.0
C112 C 0.18006 0.31533 0.82176 0.0
O113 O 0.21689 0.35045 0.80957 0.0
O114 O 0.16441 0.2734 0.80006 0.0
O115 O 0.26985 0.30035 0.76585 0.0
O116 O 0.34497 0.3106 0.76032 0.0
O117 O 0.18085 0.31314 0.70246 0.0
C118 C 0.21124 0.20595 0.69035 0.0
C119 C 0.31461 0.32033 0.78108 0.0
Zn120 Zn 0.69356 0.27488 0.75028 0.0
Zn121 Zn 0.78993 0.22704 0.71628 0.0
C122 C 0.63628 0.19642 0.79048 0.0
O123 O 0.6032 0.20951 0.76798 0.0
C124 C 0.85729 0.26727 0.65837 0.0
O125 O 0.88719 0.26981 0.69537 0.0
O126 O 0.66414 0.31709 0.77848 0.0
O127 O 0.76767 0.31192 0.76277 0.0
O128 O 0.82848 0.28668 0.75891 0.0
C129 C 0.68598 0.33012 0.81915 0.0
O130 O 0.7212 0.3157 0.83366 0.0
O131 O 0.68042 0.21877 0.78692 0.0
C132 C 0.82749 0.15579 0.72443 0.0
O133 O 0.86914 0.19086 0.74111 0.0
O134 O 0.78887 0.16125 0.73078 0.0
O135 O 0.72811 0.23123 0.7113 0.0
O136 O 0.66196 0.24089 0.68756 0.0
O137 O 0.81214 0.24407 0.65691 0.0
C138 C 0.81306 0.32059 0.76722 0.0
C139 C 0.69023 0.21894 0.68264 0.0
Zn140 Zn 0.70633 0.76556 0.73948 0.0
Zn141 Zn 0.7865 0.71586 0.75134 0.0
C142 C 0.67916 0.80525 0.8126 0.0
O143 O 0.63961 0.76965 0.79222 0.0
C144 C 0.77305 0.66107 0.66222 0.0
O145 O 0.76494 0.69695 0.64352 0.0
O146 O 0.65317 0.7796 0.70293 0.0
O147 O 0.7594 0.79437 0.69429 0.0
O148 O 0.82266 0.77902 0.72107 0.0
C149 C 0.66898 0.82562 0.70367 0.0
O150 O 0.71307 0.8516 0.72444 0.0
O151 O 0.71923 0.8113 0.79841 0.0
C152 C 0.83563 0.67159 0.80369 0.0
O153 O 0.79086 0.63971 0.80035 0.0
O154 O 0.84369 0.71128 0.78638 0.0
O155 O 0.73947 0.69763 0.8014 0.0
O156 O 0.67213 0.69693 0.76345 0.0
O157 O 0.77208 0.65802 0.70453 0.0
C158 C 0.80392 0.8008 0.69346 0.0
C159 C 0.69335 0.6842 0.79761 0.0
C160 C 0.87531 0.07879 0.56908 0.0
C161 C 0.89692 0.10672 0.43168 0.0
C162 C 0.89848 0.91872 0.42262 0.0
Mg163 Mg 0.96514 0.10943 0.52084 0.0
O164 O 0.94516 0.04192 0.51213 0.0
Mg165 Mg 0.87637 0.00128 0.4837 0.0
Mg166 Mg 0.98354 0.00502 0.49117 0.0
O167 O 0.02017 0.96665 0.47011 0.0
Mg168 Mg 0.99184 0.89934 0.4693 0.0
Mg169 Mg 0.08536 0.00211 0.50849 0.0
C170 C 0.0649 0.09444 0.55786 0.0
C171 C 0.07273 0.07162 0.42935 0.0
O172 O 0.85343 0.04138 0.53978 0.0
O173 O 0.91816 0.1094 0.56786 0.0
O174 O 0.87624 0.06085 0.43453 0.0
O175 O 0.93494 0.13325 0.45963 0.0
O176 O 0.03954 0.12121 0.55263 0.0
O177 O 0.04866 0.04966 0.54141 0.0
C178 C 0.90152 0.93069 0.55619 0.0
O179 O 0.946 0.94755 0.54778 0.0
O180 O 0.87042 0.94434 0.53413 0.0
O181 O 0.11238 0.95212 0.46833 0.0
O182 O 0.04597 0.88705 0.43626 0.0
O183 O 0.07074 0.94627 0.56228 0.0
C184 C 0.09174 0.91229 0.44206 0.0
O185 O 0.00276 0.88128 0.53825 0.0
O186 O 0.92129 0.88999 0.43022 0.0
C187 C 0.04041 0.90404 0.56771 0.0
O188 O 0.91556 0.96275 0.44053 0.0
O189 O 0.02783 0.06158 0.43629 0.0
O190 O 0.0989 0.05284 0.45265 0.0
C191 C 0.36437 0.07202 0.04109 0.0
C192 C 0.40846 0.0893 0.91262 0.0
C193 C 0.40462 0.9067 0.91067 0.0
Mg194 Mg 0.46416 0.09647 0.00944 0.0
O195 O 0.44542 0.0295 0.002 0.0
Mg196 Mg 0.37992 0.98952 0.96774 0.0
Mg197 Mg 0.48592 0.99589 0.97831 0.0
O198 O 0.52523 0.96008 0.95646 0.0
Mg199 Mg 0.50148 0.89261 0.95696 0.0
Mg200 Mg 0.59022 -0.00256 -0.00659 0.0
C201 C 0.56362 0.08412 0.05136 0.0
C202 C 0.56177 0.06209 0.91899 0.0
O203 O 0.34719 0.03209 0.01443 0.0
O204 O 0.409 0.1008 0.04614 0.0
O205 O 0.38389 0.0448 0.91679 0.0
O206 O 0.4448 0.11593 0.94222 0.0
O207 O 0.53556 0.10817 0.04812 0.0
O208 O 0.55133 0.04189 0.02944 0.0
C209 C 0.41293 0.92346 0.03669 0.0
O210 O 0.45591 0.9409 0.02706 0.0
O211 O 0.37881 0.93614 0.01912 0.0
O212 O 0.61925 0.94833 0.94975 0.0
O213 O 0.5539 0.88134 0.92007 0.0
O214 O 0.58388 0.94321 0.04777 0.0
C215 C 0.59944 0.90734 0.92453 0.0
O216 O 0.5203 0.87383 0.02424 0.0
O217 O 0.42879 0.87968 0.92097 0.0
C218 C 0.55776 0.89928 0.05298 0.0
O219 O 0.42009 0.95161 0.92612 0.0
O220 O 0.51873 0.0505 0.92884 0.0
O221 O 0.593 0.04669 0.93869 0.0
C222 C 0.90945 0.61348 0.03027 0.0
C223 C 0.95294 0.59333 0.90452 0.0
C224 C 0.91446 0.41637 0.92701 0.0
Mg225 Mg 0.00358 0.61121 -0.00229 0.0
O226 O 0.9745 0.54798 0.01107 0.0
Mg227 Mg 0.90692 0.51191 0.97693 0.0
Mg228 Mg 0.0048 0.50205 0.99264 0.0
O229 O 0.03073 0.45305 0.97575 0.0
Mg230 Mg 0.99378 0.38797 0.98339 0.0
Mg231 Mg 0.09679 0.4837 0.00988 0.0
C232 C 0.09663 0.59275 0.04328 0.0
C233 C 0.08184 0.54356 0.92617 0.0
O234 O 0.88656 0.56853 0.01508 0.0
O235 O 0.95415 0.63743 0.02703 0.0
O236 O 0.91845 0.56054 0.91926 0.0
O237 O 0.99579 0.61054 0.92619 0.0
O238 O 0.07437 0.6205 0.03042 0.0
O239 O 0.07461 0.54596 0.03998 0.0
C240 C 0.92919 0.45183 0.05785 0.0
O241 O 0.97124 0.46062 0.04762 0.0
O242 O 0.898 0.46564 0.03573 0.0
O243 O 0.10966 0.42034 0.97155 0.0
O244 O 0.03686 0.35942 0.94862 0.0
O245 O 0.07902 0.43694 0.06912 0.0
C246 C 0.08283 0.37867 0.94968 0.0
O247 O 0.00464 0.37849 0.05469 0.0
O248 O 0.92676 0.38219 0.94191 0.0
C249 C 0.0451 0.40065 0.08079 0.0
O250 O 0.93712 0.46074 0.94304 0.0
O251 O 0.04187 0.54362 0.93693 0.0
O252 O 0.10738 0.52393 0.9491 0.0
C253 C 0.40156 0.59214 0.04393 0.0
C254 C 0.44785 0.5805 0.91508 0.0
C255 C 0.43135 0.40548 0.94697 0.0
Mg256 Mg 0.50055 0.60425 0.01435 0.0
O257 O 0.47356 0.53813 0.02497 0.0
Mg258 Mg 0.40864 0.49571 0.98928 0.0
Mg259 Mg 0.51147 0.49933 0.00884 0.0
O260 O 0.5502 0.46189 0.99227 0.0
Mg261 Mg 0.52681 0.39512 -0.00262 0.0
Mg262 Mg 0.61656 0.50483 0.025 0.0
C263 C 0.59076 0.59065 0.07428 0.0
C264 C 0.59425 0.56708 0.94196 0.0
O265 O 0.38169 0.54818 0.02514 0.0
O266 O 0.44599 0.61981 0.04388 0.0
O267 O 0.41973 0.54231 0.92982 0.0
O268 O 0.48568 0.61001 0.9413 0.0
O269 O 0.57046 0.61977 0.05975 0.0
O270 O 0.57506 0.54608 0.05881 0.0
C271 C 0.42611 0.43386 0.07389 0.0
O272 O 0.47105 0.4467 0.0668 0.0
O273 O 0.39711 0.44831 0.04895 0.0
O274 O 0.64508 0.45759 0.98334 0.0
O275 O 0.57986 0.38762 0.96049 0.0
O276 O 0.61111 0.45354 0.08187 0.0
C277 C 0.62388 0.41601 0.95986 0.0
O278 O 0.54773 0.38333 0.06693 0.0
O279 O 0.45381 0.37733 0.9584 0.0
C280 C 0.58575 0.41194 0.09344 0.0
O281 O 0.44833 0.45072 0.96049 0.0
O282 O 0.54951 0.55181 0.94967 0.0
O283 O 0.62505 0.5551 0.96701 0.0
C284 C 0.88504 0.57687 0.5667 0.0
C285 C 0.93417 0.60468 0.44125 0.0
C286 C 0.91904 0.42003 0.42323 0.0
Mg287 Mg 0.98636 0.60167 0.53564 0.0
O288 O 0.96554 0.53431 0.52563 0.0
Mg289 Mg 0.89938 0.49865 0.48893 0.0
Mg290 Mg 0.0041 0.50223 0.49499 0.0
O291 O 0.04093 0.46831 0.46494 0.0
Mg292 Mg 0.0157 0.40039 0.45582 0.0
Mg293 Mg 0.1057 0.50126 0.5043 0.0
C294 C 0.08751 0.58777 0.56255 0.0
C295 C 0.08054 0.57308 0.43723 0.0
O296 O 0.86811 0.53742 0.53953 0.0
O297 O 0.92989 0.60574 0.57211 0.0
O298 O 0.90569 0.56091 0.44402 0.0
O299 O 0.97233 0.62656 0.47044 0.0
O300 O 0.06146 0.61375 0.56429 0.0
O301 O 0.06991 0.54311 0.54562 0.0
C302 C 0.92953 0.42298 0.54841 0.0
O303 O 0.97283 0.44069 0.53917 0.0
O304 O 0.89699 0.43944 0.5342 0.0
O305 O 0.13579 0.4577 0.45858 0.0
O306 O 0.07255 0.39255 0.42205 0.0
O307 O 0.09392 0.44122 0.55163 0.0
C308 C 0.11807 0.41924 0.43033 0.0
O309 O 0.02729 0.37701 0.52194 0.0
O310 O 0.94189 0.39091 0.42272 0.0
C311 C 0.06367 0.39792 0.55302 0.0
O312 O 0.93774 0.46291 0.44406 0.0
O313 O 0.0384 0.56286 0.44936 0.0
O314 O 0.11 0.55404 0.45376 0.0
C315 C 0.40247 0.09561 0.53559 0.0
C316 C 0.42351 0.05772 0.40522 0.0
C317 C 0.40059 0.88104 0.46286 0.0
Mg318 Mg 0.48824 0.08752 0.4938 0.0
O319 O 0.46258 0.02715 0.51562 0.0
Mg320 Mg 0.39359 0.98665 0.49164 0.0
Mg321 Mg 0.49247 0.98117 0.49975 0.0
O322 O 0.52238 0.93432 0.4857 0.0
Mg323 Mg 0.49977 0.87535 0.5111 0.0
Mg324 Mg 0.59148 0.97624 0.50647 0.0
C325 C 0.5848 0.08209 0.54063 0.0
C326 C 0.55419 0.01797 0.42058 0.0
O327 O 0.37771 0.04968 0.52617 0.0
O328 O 0.44509 0.11715 0.5261 0.0
O329 O 0.39394 0.02584 0.4259 0.0
O330 O 0.46811 0.07951 0.42197 0.0
O331 O 0.56145 0.10813 0.52599 0.0
O332 O 0.56566 0.0354 0.53442 0.0
C333 C 0.43073 0.94216 0.57946 0.0
O334 O 0.4706 0.94898 0.56462 0.0
O335 O 0.39674 0.95262 0.55788 0.0
O336 O 0.60684 0.91296 0.47622 0.0
O337 O 0.5394 0.84478 0.47223 0.0
O338 O 0.59611 0.95001 0.57474 0.0
C339 C 0.5824 0.86772 0.46367 0.0
O340 O 0.53036 0.88677 0.58229 0.0
O341 O 0.42346 0.85911 0.48611 0.0
C342 C 0.57176 0.91896 0.59896 0.0
O343 O 0.41967 0.92751 0.46121 0.0
O344 O 0.51658 0.01602 0.43742 0.0
O345 O 0.58301 -0.00122 0.43756 0.0
C346 C 0.10693 0.12793 0.31509 0.0
C347 C 0.15726 0.15871 0.32818 0.0
C348 C 0.14785 0.13953 0.40802 0.0
C349 C 0.09854 0.10567 0.39463 0.0
N350 N 0.03429 0.06355 0.33261 0.0
N351 N 0.2256 0.1914 0.38868 0.0
C352 C 0.07881 0.09941 0.34744 0.0
C353 C 0.17743 0.16353 0.37503 0.0
N354 N 0.08572 0.12504 0.27115 0.0
N355 N 0.1665 0.15071 0.45323 0.0
H356 H 0.24703 0.21575 0.36876 0.0
H357 H 0.24515 0.1892 0.41941 0.0
H358 H 0.14824 0.13343 0.4787 0.0
H359 H 0.19852 0.17994 0.46621 0.0
H360 H 0.04835 0.10952 0.26041 0.0
H361 H 0.10528 0.14028 0.2455 0.0
H362 H 0.01993 0.05231 0.29849 0.0
H363 H 0.01282 0.04218 0.35441 0.0
C364 C 0.86756 0.19657 0.35471 0.0
C365 C 0.81614 0.18023 0.35229 0.0
C366 C 0.81853 0.11747 0.40193 0.0
C367 C 0.86942 0.13084 0.40192 0.0
N368 N 0.93981 0.17691 0.36912 0.0
N369 N 0.74239 0.11367 0.36049 0.0
C370 C 0.89325 0.16863 0.3755 0.0
C371 C 0.79158 0.13673 0.37122 0.0
N372 N 0.89192 0.23889 0.33733 0.0
N373 N 0.79613 0.0899 0.43401 0.0
H374 H 0.72153 0.12545 0.33691 0.0
H375 H 0.72347 0.07963 0.37073 0.0
H376 H 0.81467 0.07966 0.461 0.0
H377 H 0.76012 0.08294 0.43752 0.0
H378 H 0.92968 0.25566 0.34236 0.0
H379 H 0.87402 0.25836 0.31959 0.0
H380 H 0.95774 0.20086 0.34696 0.0
H381 H 0.95878 0.15624 0.38268 0.0
C382 C 0.82001 0.89595 0.3095 0.0
C383 C 0.8044 0.84499 0.30755 0.0
C384 C 0.8241 0.84987 0.38973 0.0
C385 C 0.85294 0.89968 0.38955 0.0
N386 N 0.87145 0.97326 0.35127 0.0
N387 N 0.78261 0.77165 0.34496 0.0
C388 C 0.84744 0.92419 0.3505 0.0
C389 C 0.80253 0.8213 0.34768 0.0
N390 N 0.80954 0.91678 0.2718 0.0
N391 N 0.82014 0.8302 0.43023 0.0
H392 H 0.76452 0.75027 0.31449 0.0
H393 H 0.78471 0.75167 0.37231 0.0
H394 H 0.8355 0.8518 0.46114 0.0
H395 H 0.79892 0.79419 0.4335 0.0
H396 H 0.81652 0.95376 0.27161 0.0
H397 H 0.7894 0.89583 0.24167 0.0
H398 H 0.87475 0.99161 0.32224 0.0
H399 H 0.8885 0.99609 0.38093 0.0
C400 C 0.17554 0.90248 0.36039 0.0
C401 C 0.16813 0.85269 0.36181 0.0
C402 C 0.11955 0.84642 0.42242 0.0
C403 C 0.1217 0.8941 0.41713 0.0
N404 N 0.14555 0.96573 0.37649 0.0
N405 N 0.12353 0.77426 0.38637 0.0
C406 C 0.14826 0.92196 0.38506 0.0
C407 C 0.13752 0.82374 0.3907 0.0
N408 N 0.20925 0.93131 0.33645 0.0
N409 N 0.10148 0.82327 0.4585 0.0
H410 H 0.13396 0.75562 0.36202 0.0
H411 H 0.09729 0.7513 0.40356 0.0
H412 H 0.08962 0.83979 0.48349 0.0
H413 H 0.10332 0.79012 0.46626 0.0
H414 H 0.22017 0.96902 0.33859 0.0
H415 H 0.22907 0.91796 0.31709 0.0
H416 H 0.16005 0.98502 0.35006 0.0
H417 H 0.12533 0.98105 0.39325 0.0
C418 C 0.10589 0.89278 0.6804 0.0
C419 C 0.11594 0.85094 0.66896 0.0
C420 C 0.05922 0.83315 0.59779 0.0
C421 C 0.05464 0.8788 0.60593 0.0
N422 N 0.05575 0.93976 0.66199 0.0
N423 N 0.07745 0.76874 0.63241 0.0
C424 C 0.07233 0.90475 0.64971 0.0
C425 C 0.08466 0.81685 0.6327 0.0
N426 N 0.12817 0.92071 0.72056 0.0
N427 N 0.0422 0.80626 0.55641 0.0
H428 H 0.09033 0.75466 0.66028 0.0
H429 H 0.05239 0.74204 0.60808 0.0
H430 H 0.0221 0.81469 0.5295 0.0
H431 H 0.05083 0.77641 0.54782 0.0
H432 H 0.12776 0.95501 0.72842 0.0
H433 H 0.14699 0.90892 0.74625 0.0
H434 H 0.06386 0.95768 0.69457 0.0
H435 H 0.02974 0.94726 0.64028 0.0
C436 C 0.18701 0.19134 0.60668 0.0
C437 C 0.19488 0.17259 0.6483 0.0
C438 C 0.12868 0.09532 0.62213 0.0
C439 C 0.11444 0.11712 0.58402 0.0
N440 N 0.13091 0.18573 0.53902 0.0
N441 N 0.1901 0.10325 0.68719 0.0
C442 C 0.14459 0.16469 0.57536 0.0
C443 C 0.17155 0.12296 0.65267 0.0
N444 N 0.22023 0.23417 0.59703 0.0
N445 N 0.09857 0.05128 0.63276 0.0
H446 H 0.22134 0.12434 0.70989 0.0
H447 H 0.17794 0.06608 0.69046 0.0
H448 H 0.06514 0.0302 0.61364 0.0
H449 H 0.10475 0.03732 0.66322 0.0
H450 H 0.21836 0.24807 0.56576 0.0
H451 H 0.25343 0.25258 0.61782 0.0
H452 H 0.14675 0.22262 0.53512 0.0
H453 H 0.10241 0.16663 0.51297 0.0
C454 C 0.79964 0.11624 0.64216 0.0
C455 C 0.82724 0.12138 0.68635 0.0
C456 C 0.88055 0.0884 0.65363 0.0
C457 C 0.85368 0.08446 0.60964 0.0
N458 N 0.77842 0.07852 0.56475 0.0
N459 N 0.88102 0.09479 0.73493 0.0
C460 C 0.80973 0.09215 0.60497 0.0
C461 C 0.86324 0.10127 0.69224 0.0
N462 N 0.76705 0.13798 0.63391 0.0
N463 N 0.92355 0.08166 0.65867 0.0
H464 H 0.86811 0.10327 0.76375 0.0
H465 H 0.90432 0.07631 0.74113 0.0
H466 H 0.93682 0.06953 0.63195 0.0
H467 H 0.94738 0.09046 0.68929 0.0
H468 H 0.75263 0.14178 0.60129 0.0
H469 H 0.75686 0.15577 0.65868 0.0
H470 H 0.74329 0.07825 0.56147 0.0
H471 H 0.78533 0.06309 0.53575 0.0
C472 C 0.83765 0.8847 0.66126 0.0
C473 C 0.83453 0.83555 0.66126 0.0
C474 C 0.88041 0.84984 0.59477 0.0
C475 C 0.88403 0.89899 0.59523 0.0
N476 N 0.87121 0.96478 0.63396 0.0
N477 N 0.86602 0.77709 0.63403 0.0
C478 C 0.86379 0.91651 0.62992 0.0
C479 C 0.86006 0.82008 0.62997 0.0
N480 N 0.81658 0.90171 0.69247 0.0
N481 N 0.89369 0.83022 0.55895 0.0
H482 H 0.85259 0.75446 0.65862 0.0
H483 H 0.8885 0.7662 0.61608 0.0
H484 H 0.90778 0.85031 0.53274 0.0
H485 H 0.88679 0.7933 0.55304 0.0
H486 H 0.81017 0.93371 0.69101 0.0
H487 H 0.80443 0.88299 0.71998 0.0
H488 H 0.86193 0.9821 0.66019 0.0
H489 H 0.89032 0.98884 0.6125 0.0
C490 C 0.2865 0.08223 0.12952 0.0
C491 C 0.29367 0.13182 0.12844 0.0
C492 C 0.32941 0.13402 0.05886 0.0
C493 C 0.33194 0.08793 0.06589 0.0
N494 N 0.31379 0.01808 0.10873 0.0
N495 N 0.31633 0.2043 0.09032 0.0
C496 C 0.30957 0.06131 0.10071 0.0
C497 C 0.31245 0.15715 0.09183 0.0
N498 N 0.25831 0.05568 0.15881 0.0
N499 N 0.34386 0.15572 0.02096 0.0
H500 H 0.30139 0.2206 0.11274 0.0
H501 H 0.33513 0.22752 0.06813 0.0
H502 H 0.35748 0.14016 -0.00322 0.0
H503 H 0.33926 0.1872 0.01167 0.0
H504 H 0.24853 0.01828 0.15926 0.0
H505 H 0.24087 0.07078 0.17954 0.0
H506 H 0.30368 0.00018 0.13719 0.0
H507 H 0.33043 0.00153 0.08853 0.0
C508 C 0.86779 0.34455 0.11928 0.0
C509 C 0.87888 0.36774 0.16453 0.0
C510 C 0.93111 0.44393 0.14034 0.0
C511 C 0.91546 0.42232 0.09492 0.0
N512 N 0.88189 0.35053 0.04145 0.0
N513 N 0.93541 0.43076 0.22015 0.0
C514 C 0.88777 0.3721 0.08447 0.0
C515 C 0.91549 0.41477 0.17571 0.0
N516 N 0.83697 0.29705 0.10885 0.0
N517 N 0.95922 0.49245 0.1494 0.0
H518 H 0.92564 0.40855 0.24624 0.0
H519 H 0.96476 0.46342 0.23061 0.0
H520 H 0.9723 0.51465 0.12411 0.0
H521 H 0.96736 0.51134 0.18156 0.0
H522 H 0.81792 0.28276 0.07637 0.0
H523 H 0.83278 0.27098 0.13172 0.0
H524 H 0.86709 0.31306 0.03273 0.0
H525 H 0.89525 0.37008 0.01483 0.0
C526 C 0.56597 0.8176 0.14611 0.0
C527 C 0.61197 0.81533 0.14332 0.0
C528 C 0.62324 0.86928 0.08256 0.0
C529 C 0.57812 0.87372 0.08679 0.0
N530 N 0.51246 0.86118 0.12935 0.0
N531 N 0.68866 0.84599 0.11564 0.0
C532 C 0.55105 0.8503 0.12047 0.0
C533 C 0.64189 0.84337 0.11363 0.0
N534 N 0.53614 0.78779 0.17256 0.0
N535 N 0.64739 0.88763 0.04749 0.0
H536 H 0.70328 0.82625 0.13677 0.0
H537 H 0.7143 0.87069 0.09916 0.0
H538 H 0.63606 0.90723 0.02377 0.0
H539 H 0.67656 0.87972 0.03922 0.0
H540 H 0.50013 0.78388 0.17226 0.0
H541 H 0.54639 0.76415 0.19235 0.0
H542 H 0.49411 0.84926 0.15656 0.0
H543 H 0.50196 0.88625 0.11207 0.0
C544 C 0.18544 0.70072 0.11225 0.0
C545 C 0.17628 0.68062 0.15383 0.0
C546 C 0.14877 0.59896 0.1149 0.0
C547 C 0.14337 0.61833 0.07355 0.0
N548 N 0.16617 0.68771 0.03026 0.0
N549 N 0.14856 0.60957 0.1954 0.0
C550 C 0.16677 0.66935 0.07135 0.0
C551 C 0.15778 0.62929 0.15552 0.0
N552 N 0.21162 0.74935 0.11198 0.0
N553 N 0.14548 0.55205 0.11499 0.0
H554 H 0.15428 0.63056 0.2261 0.0
H555 H 0.13154 0.57225 0.19705 0.0
H556 H 0.14239 0.53126 0.08477 0.0
H557 H 0.1521 0.53666 0.14456 0.0
H558 H 0.22416 0.76515 0.08329 0.0
H559 H 0.22396 0.77369 0.14133 0.0
H560 H 0.17712 0.72462 0.02621 0.0
H561 H 0.15154 0.66527 -5e-05 0.0
C562 C 0.35299 0.82794 0.80611 0.0
C563 C 0.30258 0.81846 0.80295 0.0
C564 C 0.32002 0.88215 0.86422 0.0
C565 C 0.36989 0.88952 0.86793 0.0
N566 N 0.43361 0.88928 0.82637 0.0
N567 N 0.24144 0.85002 0.81539 0.0
C568 C 0.3861 0.86997 0.83242 0.0
C569 C 0.28731 0.85103 0.8267 0.0
N570 N 0.36955 0.79536 0.78771 0.0
N571 N 0.30326 0.90071 0.89788 0.0
H572 H 0.21722 0.82701 0.78806 0.0
H573 H 0.22977 0.87539 0.83001 0.0
H574 H 0.32615 0.92064 0.927 0.0
H575 H 0.26647 0.89288 0.89828 0.0
H576 H 0.40584 0.79925 0.79477 0.0
H577 H 0.3472 0.76345 0.76755 0.0
H578 H 0.44613 0.87707 0.79904 0.0
H579 H 0.45862 0.92056 0.84601 0.0
C580 C 0.13368 0.36488 0.84299 0.0
C581 C 0.15088 0.32748 0.85281 0.0
C582 C 0.10998 0.31422 0.91933 0.0
C583 C 0.10341 0.35875 0.91528 0.0
N584 N 0.10688 0.42623 0.87146 0.0
N585 N 0.15792 0.2676 0.90219 0.0
C586 C 0.11502 0.38431 0.87672 0.0
C587 C 0.13961 0.30215 0.89144 0.0
N588 N 0.1315 0.37894 0.80015 0.0
N589 N 0.08604 0.28237 0.94773 0.0
H590 H 0.17964 0.25764 0.88237 0.0
H591 H 0.15464 0.25174 0.93265 0.0
H592 H 0.06017 0.28802 0.96489 0.0
H593 H 0.08691 0.24777 0.94931 0.0
H594 H 0.11542 0.4031 0.78968 0.0
H595 H 0.13967 0.36096 0.77364 0.0
H596 H 0.12048 0.44929 0.84696 0.0
H597 H 0.08831 0.43921 0.89267 0.0
C598 C 0.64359 0.16913 0.86863 0.0
C599 C 0.62161 0.15886 0.82218 0.0
C600 C 0.55893 0.08353 0.83899 0.0
C601 C 0.57857 0.09667 0.88569 0.0
N602 N 0.63409 0.15438 0.94622 0.0
N603 N 0.56665 0.10171 0.761 0.0
C604 C 0.61941 0.14001 0.90073 0.0
C605 C 0.58124 0.11477 0.80673 0.0
N606 N 0.6882 0.20544 0.88248 0.0
N607 N 0.51923 0.04133 0.82581 0.0
H608 H 0.58476 0.12226 0.73673 0.0
H609 H 0.53918 0.06922 0.74652 0.0
H610 H 0.50335 0.01681 0.84847 0.0
H611 H 0.50045 0.03084 0.79287 0.0
H612 H 0.70803 0.20961 0.91478 0.0
H613 H 0.70821 0.22938 0.86166 0.0
H614 H 0.65815 0.18925 0.95935 0.0
H615 H 0.6192 0.13268 0.97108 0.0
C616 C 0.87805 0.61384 0.80516 0.0
C617 C 0.87622 0.65845 0.82224 0.0
C618 C 0.9396 0.66821 0.88582 0.0
C619 C 0.93864 0.62161 0.87085 0.0
N620 N 0.91738 0.55572 0.81245 0.0
N621 N 0.91481 0.73498 0.86999 0.0
C622 C 0.91153 0.59656 0.82879 0.0
C623 C 0.91067 0.68823 0.85915 0.0
N624 N 0.84686 0.58759 0.76718 0.0
N625 N 0.96371 0.69121 0.92775 0.0
H626 H 0.89149 0.75037 0.85475 0.0
H627 H 0.94402 0.76012 0.8922 0.0
H628 H 0.98746 0.68043 0.94876 0.0
H629 H 0.95815 0.72029 0.94346 0.0
H630 H 0.84225 0.55234 0.7558 0.0
H631 H 0.82439 0.60079 0.74697 0.0
H632 H 0.90148 0.53699 0.78054 0.0
H633 H 0.9415 0.54251 0.83009 0.0
C634 C 0.11404 0.32638 0.12696 0.0
C635 C 0.12492 0.3445 0.1734 0.0
C636 C 0.06854 0.38694 0.16116 0.0
C637 C 0.06186 0.37292 0.1141 0.0
N638 N 0.07752 0.32984 0.05142 0.0
N639 N 0.10846 0.38522 0.23726 0.0
C640 C 0.08308 0.34145 0.09712 0.0
C641 C 0.10068 0.37266 0.1914 0.0
N642 N 0.13385 0.29526 0.1109 0.0
N643 N 0.04465 0.41445 0.17619 0.0
H644 H 0.12993 0.37318 0.26008 0.0
H645 H 0.09316 0.40641 0.25329 0.0
H646 H 0.02034 0.42384 0.15408 0.0
H647 H 0.04749 0.42704 0.20993 0.0
H648 H 0.12085 0.27437 0.07957 0.0
H649 H 0.16221 0.28838 0.12918 0.0
H650 H 0.10114 0.31804 0.03628 0.0
H651 H 0.05086 0.33453 0.02845 0.0
C652 C 0.17475 0.59831 0.85261 0.0
C653 C 0.14603 0.58546 0.80888 0.0
C654 C 0.07196 0.55248 0.84223 0.0
C655 C 0.10078 0.56588 0.88618 0.0
N656 N 0.17779 0.61272 0.93324 0.0
N657 N 0.0681 0.56426 0.76215 0.0
C658 C 0.15157 0.59277 0.89124 0.0
C659 C 0.0948 0.56717 0.80367 0.0
N660 N 0.22433 0.6146 0.85732 0.0
N661 N 0.02391 0.52283 0.83665 0.0
H662 H 0.08395 0.57372 0.73302 0.0
H663 H 0.03084 0.55641 0.75753 0.0
H664 H 0.00494 0.51081 0.86338 0.0
H665 H 0.00342 0.50722 0.80496 0.0
H666 H 0.24666 0.61817 0.88812 0.0
H667 H 0.24332 0.62127 0.82998 0.0
H668 H 0.21358 0.63772 0.9384 0.0
H669 H 0.16268 0.60732 0.96299 0.0
C670 C 0.39958 0.16749 0.81739 0.0
C671 C 0.35151 0.16562 0.8169 0.0
C672 C 0.33987 0.11175 0.87728 0.0
C673 C 0.38778 0.11255 0.8772 0.0
N674 N 0.45807 0.13083 0.83984 0.0
N675 N 0.27213 0.12741 0.83744 0.0
C676 C 0.41606 0.13718 0.84485 0.0
C677 C 0.32037 0.13468 0.84383 0.0
N678 N 0.43023 0.19995 0.79337 0.0
N679 N 0.31405 0.09205 0.91099 0.0
H680 H 0.25705 0.14423 0.81333 0.0
H681 H 0.24639 0.10133 0.85273 0.0
H682 H 0.32651 0.07557 0.93707 0.0
H683 H 0.28184 0.09598 0.91574 0.0
H684 H 0.4672 0.20683 0.79629 0.0
H685 H 0.41934 0.22257 0.77276 0.0
H686 H 0.47783 0.14391 0.81373 0.0
H687 H 0.47074 0.10857 0.8594 0.0
C688 C 0.89669 0.37615 0.8028 0.0
C689 C 0.84694 0.36748 0.79249 0.0
C690 C 0.8488 0.41154 0.8635 0.0
C691 C 0.89402 0.40845 0.87871 0.0
N692 N 0.9698 0.40807 0.85905 0.0
N693 N 0.79141 0.40788 0.79707 0.0
C694 C 0.92126 0.39778 0.84682 0.0
C695 C 0.82794 0.39563 0.81758 0.0
N696 N 0.91929 0.36335 0.77049 0.0
N697 N 0.82482 0.42674 0.89296 0.0
H698 H 0.77786 0.3981 0.76248 0.0
H699 H 0.77961 0.43241 0.81296 0.0
H700 H 0.83959 0.43856 0.92702 0.0
H701 H 0.78942 0.42499 0.88393 0.0
H702 H 0.95489 0.36521 0.77578 0.0
H703 H 0.90169 0.35239 0.73707 0.0
H704 H 0.99197 0.40168 0.83759 0.0
H705 H 0.98895 0.42606 0.89054 0.0
C706 C 0.64768 0.8135 0.88484 0.0
C707 C 0.67409 0.83673 0.85056 0.0
C708 C 0.65735 0.90987 0.86895 0.0
C709 C 0.63009 0.88613 0.90252 0.0
N710 N 0.60869 0.81984 0.94973 0.0
N711 N 0.71662 0.91178 0.82005 0.0
C712 C 0.6285 0.83944 0.91288 0.0
C713 C 0.6833 0.88662 0.8461 0.0
N714 N 0.63918 0.76563 0.88924 0.0
N715 N 0.65583 0.95305 0.85666 0.0
H716 H 0.73775 0.89659 0.80476 0.0
H717 H 0.72753 0.94911 0.81813 0.0
H718 H 0.63707 0.97104 0.87228 0.0
H719 H 0.66983 0.96914 0.8286 0.0
H720 H 0.61454 0.7441 0.90862 0.0
H721 H 0.65546 0.74671 0.87141 0.0
H722 H 0.61153 0.78879 0.96233 0.0
H723 H 0.59255 0.83663 0.97023 0.0
C724 C 0.84639 0.69355 0.07162 0.0
C725 C 0.84112 0.67883 0.1159 0.0
C726 C 0.88308 0.62361 0.10415 0.0
C727 C 0.88559 0.63601 0.05904 0.0
N728 N 0.86391 0.67646 -0.0032 0.0
N729 N 0.84493 0.62226 0.17065 0.0
C730 C 0.86554 0.66918 0.04181 0.0
C731 C 0.85687 0.64179 0.1312 0.0
N732 N 0.83496 0.732 0.0588 0.0
N733 N 0.90694 0.59544 0.12166 0.0
H734 H 0.82602 0.63447 0.19189 0.0
H735 H 0.84974 0.59096 0.18034 0.0
H736 H 0.92597 0.58048 0.10279 0.0
H737 H 0.91132 0.5901 0.15596 0.0
H738 H 0.84251 0.74764 0.02876 0.0
H739 H 0.82131 0.75099 0.07991 0.0
H740 H 0.84533 0.69628 0.98093 0.0
H741 H 0.87814 0.65943 0.97437 0.0
C742 C 0.3759 0.87278 0.14498 0.0
C743 C 0.3771 0.8259 0.13755 0.0
C744 C 0.40312 0.84317 0.06426 0.0
C745 C 0.40318 0.89054 0.07207 0.0
N746 N 0.40151 0.9549 0.12341 0.0
N747 N 0.40362 0.77055 0.09715 0.0
C748 C 0.39308 0.90677 0.11355 0.0
C749 C 0.39457 0.81234 0.09942 0.0
N750 N 0.35804 0.88458 0.18181 0.0
N751 N 0.40903 0.82693 0.02271 0.0
H752 H 0.39759 0.74691 0.12245 0.0
H753 H 0.42119 0.76154 0.07231 0.0
H754 H 0.41552 0.84874 -0.00386 0.0
H755 H 0.40384 0.79092 0.01354 0.0
H756 H 0.35044 0.91584 0.18584 0.0
H757 H 0.34847 0.86189 0.20754 0.0
H758 H 0.39941 0.96973 0.155 0.0
H759 H 0.41488 0.98113 0.10128 0.0
C760 C 0.66361 0.10646 0.15249 0.0
C761 C 0.68793 0.15699 0.1523 0.0
C762 C 0.63929 0.15737 0.08102 0.0
C763 C 0.61084 0.10686 0.08217 0.0
N764 N 0.59863 0.0319 0.11754 0.0
N765 N 0.71375 0.22588 0.11015 0.0
C766 C 0.62468 0.0805 0.11673 0.0
C767 C 0.68086 0.18053 0.11404 0.0
N768 N 0.6762 0.08457 0.18859 0.0
N769 N 0.62512 0.18452 0.05073 0.0
H770 H 0.74442 0.24309 0.13465 0.0
H771 H 0.71342 0.24382 0.08101 0.0
H772 H 0.59666 0.17026 0.0238 0.0
H773 H 0.64011 0.22242 0.05391 0.0
H774 H 0.65788 0.0486 0.19428 0.0
H775 H 0.70613 0.10348 0.21353 0.0
H776 H 0.60982 0.00978 0.13839 0.0
H777 H 0.56529 0.0127 0.09737 0.0
C778 C 0.62181 0.6119 0.82224 0.0
C779 C 0.665 0.65515 0.83427 0.0
C780 C 0.6539 0.64501 0.91587 0.0
C781 C 0.61357 0.59981 0.90406 0.0
N782 N 0.56371 0.53745 0.84493 0.0
N783 N 0.72364 0.70986 0.89549 0.0
C784 C 0.59846 0.583 0.85685 0.0
C785 C 0.68151 0.67032 0.88195 0.0
N786 N 0.60329 0.59725 0.77738 0.0
N787 N 0.6646 0.66539 0.95992 0.0
H788 H 0.74118 0.73422 0.87348 0.0
H789 H 0.74207 0.71793 0.92871 0.0
H790 H 0.64487 0.64894 0.98515 0.0
H791 H 0.68949 0.70055 0.9707 0.0
H792 H 0.56879 0.57093 0.76607 0.0
H793 H 0.62147 0.61274 0.75105 0.0
H794 H 0.55465 0.51961 0.81226 0.0
H795 H 0.54632 0.51582 0.86881 0.0
C796 C 0.35117 0.58268 0.82466 0.0
C797 C 0.36951 0.63262 0.81732 0.0
C798 C 0.45048 0.6416 0.8567 0.0
C799 C 0.42933 0.59418 0.87027 0.0
N800 N 0.3712 0.51359 0.84351 0.0
N801 N 0.43895 0.7058 0.81426 0.0
C802 C 0.3834 0.56268 0.84634 0.0
C803 C 0.42024 0.66087 0.82937 0.0
N804 N 0.30266 0.55492 0.81424 0.0
N805 N 0.49929 0.66706 0.86876 0.0
H806 H 0.41785 0.71894 0.79214 0.0
H807 H 0.47525 0.72915 0.82139 0.0
H808 H 0.52254 0.65036 0.88177 0.0
H809 H 0.51736 0.70323 0.86359 0.0
H810 H 0.28708 0.5203 0.8247 0.0
H811 H 0.27733 0.56728 0.79784 0.0
H812 H 0.3396 0.48881 0.82381 0.0
H813 H 0.39613 0.49868 0.85607 0.0
C814 C 0.37263 0.39405 0.82566 0.0
C815 C 0.332 0.35071 0.82463 0.0
C816 C 0.34816 0.35409 0.90747 0.0
C817 C 0.39454 0.38987 0.90634 0.0
N818 N 0.45387 0.44071 0.86314 0.0
N819 N 0.27938 0.28816 0.86474 0.0
C820 C 0.40743 0.40978 0.86529 0.0
C821 C 0.31821 0.33093 0.86568 0.0
N822 N 0.37861 0.41871 0.78794 0.0
N823 N 0.33329 0.342 0.94822 0.0
H824 H 0.2559 0.26976 0.83526 0.0
H825 H 0.27195 0.26927 0.89318 0.0
H826 H 0.35529 0.3582 0.97924 0.0
H827 H 0.29795 0.31938 0.95119 0.0
H828 H 0.40635 0.45246 0.78745 0.0
H829 H 0.35253 0.40744 0.75864 0.0
H830 H 0.4658 0.45195 0.83274 0.0
H831 H 0.48183 0.45142 0.89077 0.0
C832 C 0.65351 0.32831 0.89101 0.0
C833 C 0.66752 0.35328 0.8528 0.0
C834 C 0.65706 0.42417 0.8869 0.0
C835 C 0.64884 0.40051 0.92717 0.0
N836 N 0.65011 0.33508 0.97125 0.0
N837 N 0.68637 0.42627 0.81464 0.0
C838 C 0.65115 0.35433 0.93049 0.0
C839 C 0.67056 0.40176 0.85076 0.0
N840 N 0.63878 0.27896 0.88822 0.0
N841 N 0.64914 0.46624 0.88207 0.0
H842 H 0.69343 0.40976 0.78626 0.0
H843 H 0.69495 0.4635 0.81394 0.0
H844 H 0.63967 0.48421 0.90778 0.0
H845 H 0.64887 0.48177 0.85151 0.0
H846 H 0.62421 0.25826 0.91389 0.0
H847 H 0.635 0.25871 0.85763 0.0
H848 H 0.65546 0.30283 0.97602 0.0
H849 H 0.64882 0.35399 0.00113 0.0
C850 C 0.68992 0.40031 0.16728 0.0
C851 C 0.67438 0.34869 0.16287 0.0
C852 C 0.59066 0.34199 0.13687 0.0
C853 C 0.60872 0.39242 0.13179 0.0
N854 N 0.66601 0.46999 0.16708 0.0
N855 N 0.60889 0.26974 0.14772 0.0
C856 C 0.65555 0.42189 0.15504 0.0
C857 C 0.62411 0.31927 0.15006 0.0
N858 N 0.73777 0.42878 0.18156 0.0
N859 N 0.54162 0.31679 0.13122 0.0
H860 H 0.63221 0.25194 0.15703 0.0
H861 H 0.57377 0.24609 0.13422 0.0
H862 H 0.51735 0.33443 0.1263 0.0
H863 H 0.52532 0.28049 0.13702 0.0
H864 H 0.75226 0.46626 0.17998 0.0
H865 H 0.7637 0.41464 0.19302 0.0
H866 H 0.69812 0.49299 0.1873 0.0
H867 H 0.63965 0.48507 0.16139 0.0
C868 C 0.61608 0.61599 0.20226 0.0
C869 C 0.66685 0.63136 0.20814 0.0
C870 C 0.66414 0.6009 0.13091 0.0
C871 C 0.61657 0.60092 0.12111 0.0
N872 N 0.54149 0.59271 0.14886 0.0
N873 N 0.7294 0.60552 0.19082 0.0
C874 C 0.59026 0.60278 0.15741 0.0
C875 C 0.68748 0.61193 0.17662 0.0
N876 N 0.59404 0.61562 0.23957 0.0
N877 N 0.68776 0.59358 0.09682 0.0
H878 H 0.74614 0.61494 0.22473 0.0
H879 H 0.74366 0.58651 0.17049 0.0
H880 H 0.67212 0.58758 0.06269 0.0
H881 H 0.72378 0.59651 0.10225 0.0
H882 H 0.55662 0.60328 0.23876 0.0
H883 H 0.61442 0.62489 0.27217 0.0
H884 H 0.52153 0.59786 0.17327 0.0
H885 H 0.52064 0.5791 0.11695 0.0
C886 C 0.32158 0.65082 0.08719 0.0
C887 C 0.32308 0.63799 0.13278 0.0
C888 C 0.38097 0.60109 0.12053 0.0
C889 C 0.37471 0.60846 0.07392 0.0
N890 N 0.33424 0.63351 0.01071 0.0
N891 N 0.34552 0.59155 0.18938 0.0
C892 C 0.34313 0.63084 0.05643 0.0
C893 C 0.35035 0.61047 0.14855 0.0
N894 N 0.30308 0.68471 0.07405 0.0
N895 N 0.41684 0.58617 0.13829 0.0
H896 H 0.32194 0.59623 0.21033 0.0
H897 H 0.36106 0.56707 0.20019 0.0
H898 H 0.43982 0.5782 0.11867 0.0
H899 H 0.42626 0.58552 0.17305 0.0
H900 H 0.3053 0.69817 0.04244 0.0
H901 H 0.29123 0.70436 0.09618 0.0
H902 H 0.3073 0.64471 -0.00438 0.0
H903 H 0.35121 0.6209 0.98743 0.0
C904 C 0.38237 0.32799 0.1523 0.0
C905 C 0.34853 0.34067 0.17526 0.0
C906 C 0.37861 0.42016 0.14145 0.0
C907 C 0.40506 0.40351 0.11253 0.0
N908 N 0.4256 0.33678 0.08728 0.0
N909 N 0.3181 0.40321 0.19203 0.0
C910 C 0.40536 0.35625 0.11741 0.0
C911 C 0.34766 0.38794 0.16953 0.0
N912 N 0.39451 0.28992 0.16447 0.0
N913 N 0.38523 0.46824 0.14407 0.0
H914 H 0.30182 0.38588 0.21864 0.0
H915 H 0.30905 0.43273 0.18374 0.0
H916 H 0.40923 0.49297 0.12622 0.0
H917 H 0.37148 0.48472 0.16732 0.0
H918 H 0.42213 0.28209 0.15226 0.0
H919 H 0.38181 0.27003 0.19089 0.0
H920 H 0.42181 0.30044 0.0852 0.0
H921 H 0.44266 0.35581 0.06177 0.0
C922 C 0.84551 0.63809 0.65864 0.0
C923 C 0.79874 0.63502 0.63844 0.0
C924 C 0.80779 0.59325 0.56922 0.0
C925 C 0.85178 0.5913 0.59197 0.0
N926 N 0.90355 0.59934 0.66331 0.0
N927 N 0.73151 0.60147 0.57708 0.0
C928 C 0.86756 0.60946 0.63836 0.0
C929 C 0.77855 0.60982 0.59455 0.0
N930 N 0.87102 0.6712 0.69503 0.0
N931 N 0.79535 0.58267 0.52316 0.0
H932 H 0.70926 0.61318 0.59473 0.0
H933 H 0.71344 0.57915 0.54715 0.0
H934 H 0.81654 0.5729 0.50262 0.0
H935 H 0.76635 0.58838 0.50466 0.0
H936 H 0.90684 0.6772 0.70843 0.0
H937 H 0.85889 0.69684 0.70808 0.0
H938 H 0.91352 0.60877 0.69829 0.0
H939 H 0.91934 0.5768 0.65004 0.0
C940 C 0.40246 0.85337 0.66748 0.0
C941 C 0.3774 0.87512 0.69227 0.0
C942 C 0.41429 0.9503 0.65839 0.0
C943 C 0.42326 0.92242 0.62324 0.0
N944 N 0.42712 0.8465 0.59509 0.0
N945 N 0.37321 0.94863 0.72411 0.0
C946 C 0.4189 0.87398 0.62841 0.0
C947 C 0.38856 0.92557 0.69243 0.0
N948 N 0.40943 0.81283 0.68056 0.0
N949 N 0.43 -0.00034 0.65851 0.0
H950 H 0.35764 0.93084 0.75097 0.0
H951 H 0.376 0.98455 0.724 0.0
H952 H 0.45015 0.01792 0.63424 0.0
H953 H 0.42663 0.02256 0.68417 0.0
H954 H 0.42912 0.79662 0.66409 0.0
H955 H 0.40109 0.79959 0.71136 0.0
H956 H 0.41841 0.80916 0.59517 0.0
H957 H 0.43996 0.86056 0.56613 0.0
C958 C 0.09306 0.30008 0.61417 0.0
C959 C 0.118 0.32783 0.65604 0.0
C960 C 0.09433 0.39439 0.6336 0.0
C961 C 0.07537 0.37001 0.58935 0.0
N962 N 0.06659 0.30247 0.53488 0.0
N963 N 0.15529 0.40695 0.699 0.0
C964 C 0.0768 0.32328 0.57877 0.0
C965 C 0.12258 0.3767 0.66394 0.0
N966 N 0.08618 0.252 0.60761 0.0
N967 N 0.08473 0.43399 0.6469 0.0
H968 H 0.18002 0.3965 0.71926 0.0
H969 H 0.16196 0.44395 0.70402 0.0
H970 H 0.06163 0.44612 0.62614 0.0
H971 H 0.09502 0.45086 0.68008 0.0
H972 H 0.06314 0.22872 0.5799 0.0
H973 H 0.10127 0.23463 0.63109 0.0
H974 H 0.07295 0.27147 0.52544 0.0
H975 H 0.0566 0.31807 0.50685 0.0
C976 C 0.68293 0.19315 0.60084 0.0
C977 C 0.67947 0.18091 0.64554 0.0
C978 C 0.63175 0.09572 0.61948 0.0
C979 C 0.62924 0.1086 0.57392 0.0
N980 N 0.66138 0.1664 0.52051 0.0
N981 N 0.66962 0.11998 0.698 0.0
C982 C 0.65913 0.1561 0.56446 0.0
C983 C 0.66055 0.13189 0.65496 0.0
N984 N 0.70693 0.24058 0.59358 0.0
N985 N 0.60247 0.05129 0.63015 0.0
H986 H 0.68943 0.1458 0.72529 0.0
H987 H 0.66191 0.08431 0.70568 0.0
H988 H 0.58155 0.02201 0.60667 0.0
H989 H 0.597 0.04378 0.66323 0.0
H990 H 0.70732 0.2537 0.56188 0.0
H991 H 0.72643 0.26758 0.62018 0.0
H992 H 0.68567 0.19821 0.51069 0.0
H993 H 0.63924 0.14202 0.49333 0.0
C994 C 0.81596 0.40696 0.33043 0.0
C995 C 0.78085 0.36488 0.34192 0.0
C996 C 0.8296 0.37058 0.41456 0.0
C997 C 0.86982 0.40454 0.3977 0.0
N998 N 0.90167 0.45469 0.33858 0.0
N999 N 0.74246 0.32218 0.40077 0.0
C1000 C 0.86294 0.42409 0.35596 0.0
C1001 C 0.78358 0.35262 0.38663 0.0
N1002 N 0.80429 0.42813 0.29363 0.0
N1003 N 0.83617 0.35331 0.45537 0.0
H1004 H 0.70897 0.30972 0.37941 0.0
H1005 H 0.7406 0.31269 0.43381 0.0
H1006 H 0.86982 0.36526 0.47574 0.0
H1007 H 0.80926 0.32588 0.46812 0.0
H1008 H 0.8274 0.46111 0.28449 0.0
H1009 H 0.76919 0.41387 0.2751 0.0
H1010 H 0.89888 0.46576 0.30607 0.0
H1011 H 0.93722 0.46559 0.3552 0.0
C1012 C 0.61539 0.84762 0.34946 0.0
C1013 C 0.65553 0.83438 0.36325 0.0
C1014 C 0.63317 0.82438 0.43948 0.0
C1015 C 0.59983 0.84668 0.42777 0.0
N1016 N 0.55875 0.88098 0.37254 0.0
N1017 N 0.70181 0.80739 0.42047 0.0
C1018 C 0.59034 0.85818 0.38285 0.0
C1019 C 0.66376 0.82115 0.40788 0.0
N1020 N 0.59974 0.84784 0.30433 0.0
N1021 N 0.6353 0.80648 0.48073 0.0
H1022 H 0.72373 0.80303 0.39772 0.0
H1023 H 0.71319 0.80261 0.45373 0.0
H1024 H 0.6128 0.80862 0.50403 0.0
H1025 H 0.6559 0.78602 0.49026 0.0
H1026 H 0.56789 0.85281 0.29228 0.0
H1027 H 0.61531 0.83759 0.27839 0.0
H1028 H 0.55583 0.89656 0.34228 0.0
H1029 H 0.53731 0.88682 0.3953 0.0
C1030 C 0.16078 0.64711 0.35896 0.0
C1031 C 0.12725 0.65202 0.32409 0.0
C1032 C 0.06184 0.5939 0.35757 0.0
C1033 C 0.09487 0.60257 0.39902 0.0
N1034 N 0.17835 0.6425 0.43837 0.0
N1035 N 0.04567 0.61784 0.28253 0.0
C1036 C 0.14506 0.631 0.39964 0.0
C1037 C 0.07737 0.62208 0.32112 0.0
N1038 N 0.20659 0.65352 0.35176 0.0
N1039 N 0.01798 0.55571 0.35108 0.0
H1040 H 0.05735 0.62802 0.25174 0.0
H1041 H 0.00805 0.60307 0.28091 0.0
H1042 H 0.00699 0.53104 0.37483 0.0
H1043 H 0.9947 0.54485 0.32015 0.0
H1044 H 0.23139 0.64682 0.37566 0.0
H1045 H 0.21616 0.65736 0.31933 0.0
H1046 H 0.21411 0.667 0.43976 0.0
H1047 H 0.17002 0.63107 0.46963 0.0
C1048 C 0.35993 0.08336 0.29642 0.0
C1049 C 0.34845 0.12223 0.31402 0.0
C1050 C 0.39698 0.12557 0.38688 0.0
C1051 C 0.40237 0.08203 0.37162 0.0
N1052 N 0.3838 0.01582 0.31362 0.0
N1053 N 0.34661 0.17273 0.37907 0.0
C1054 C 0.38229 0.05973 0.32682 0.0
C1055 C 0.36452 0.14147 0.36004 0.0
N1056 N 0.35094 0.07018 0.25068 0.0
N1057 N 0.42257 0.15198 0.42699 0.0
H1058 H 0.32073 0.18367 0.36135 0.0
H1059 H 0.35341 0.18376 0.41376 0.0
H1060 H 0.44727 0.14266 0.44822 0.0
H1061 H 0.42318 0.18627 0.43699 0.0
H1062 H 0.36247 0.045 0.23553 0.0
H1063 H 0.33625 0.08809 0.22748 0.0
H1064 H 0.36561 0.99566 0.28271 0.0
H1065 H 0.40033 -0.00208 0.33517 0.0
C1066 C 0.66743 0.8894 0.65512 0.0
C1067 C 0.64139 0.85142 0.67996 0.0
C1068 C 0.57253 0.87732 0.66937 0.0
C1069 C 0.59807 0.91183 0.64168 0.0
N1070 N 0.67771 0.96977 0.63548 0.0
N1071 N 0.57003 0.81088 0.71467 0.0
C1072 C 0.6484 0.92451 0.64392 0.0
C1073 C 0.59416 0.846 0.68886 0.0
N1074 N 0.70873 0.89033 0.63973 0.0
N1075 N 0.52905 0.87708 0.67835 0.0
H1076 H 0.58496 0.78787 0.72989 0.0
H1077 H 0.5345 0.80313 0.72007 0.0
H1078 H 0.51588 0.90283 0.66604 0.0
H1079 H 0.50896 0.85559 0.70081 0.0
H1080 H 0.72665 0.91596 0.61875 0.0
H1081 H 0.7214 0.8622 0.64327 0.0
H1082 H 0.71544 0.98104 0.63919 0.0
H1083 H 0.66451 -0.00258 0.63081 0.0
C1084 C 0.55893 0.08935 0.31872 0.0
C1085 C 0.60667 0.12441 0.33049 0.0
C1086 C 0.61973 0.0898 0.40037 0.0
C1087 C 0.57193 0.05351 0.38866 0.0
N1088 N 0.49823 0.01406 0.33502 0.0
N1089 N 0.67695 0.16761 0.38793 0.0
C1090 C 0.54158 0.0524 0.3477 0.0
C1091 C 0.63537 0.1276 0.37282 0.0
N1092 N 0.53009 0.09279 0.28069 0.0
N1093 N 0.65159 0.08772 0.43676 0.0
H1094 H 0.69248 0.19609 0.36886 0.0
H1095 H 0.69473 0.17464 0.42139 0.0
H1096 H 0.64182 0.06933 0.46497 0.0
H1097 H 0.68907 0.10621 0.43974 0.0
H1098 H 0.49324 0.07143 0.27215 0.0
H1099 H 0.54234 0.1202 0.25936 0.0
H1100 H 0.47691 0.00823 0.30331 0.0
H1101 H 0.48509 0.98552 0.35494 0.0
C1102 C 0.87706 0.62946 0.32876 0.0
C1103 C 0.88093 0.67796 0.33861 0.0
C1104 C 0.91707 0.67785 0.41712 0.0
C1105 C 0.91911 0.63169 0.40547 0.0
N1106 N 0.90972 0.56837 0.34719 0.0
N1107 N 0.9104 0.75119 0.39048 0.0
C1108 C 0.90147 0.60882 0.3604 0.0
C1109 C 0.90316 0.7032 0.38217 0.0
N1110 N 0.84963 0.60275 0.28945 0.0
N1111 N 0.92479 0.69604 0.46165 0.0
H1112 H 0.89774 0.7702 0.36684 0.0
H1113 H 0.93168 0.77287 0.41976 0.0
H1114 H 0.9315 0.67751 0.48886 0.0
H1115 H 0.91915 0.72719 0.47199 0.0
H1116 H 0.84156 0.56565 0.28269 0.0
H1117 H 0.83084 0.61643 0.26565 0.0
H1118 H 0.90215 0.55322 0.31355 0.0
H1119 H 0.929 0.55312 0.36891 0.0
C1120 C 0.32026 0.8603 0.35242 0.0
C1121 C 0.31847 0.81454 0.33477 0.0
C1122 C 0.35784 0.80351 0.40727 0.0
C1123 C 0.36106 0.85052 0.42544 0.0
N1124 N 0.32176 0.90791 0.42103 0.0
N1125 N 0.31307 0.73464 0.35199 0.0
C1126 C 0.33415 0.87367 0.39988 0.0
C1127 C 0.32938 0.78347 0.3646 0.0
N1128 N 0.31074 0.89171 0.32445 0.0
N1129 N 0.38375 0.7785 0.42754 0.0
H1130 H 0.29077 0.71862 0.32113 0.0
H1131 H 0.31742 0.70996 0.3742 0.0
H1132 H 0.39731 0.78209 0.46184 0.0
H1133 H 0.3899 0.75116 0.40917 0.0
H1134 H 0.31597 0.92712 0.33622 0.0
H1135 H 0.30053 0.88348 0.28941 0.0
H1136 H 0.2997 0.92394 0.40421 0.0
H1137 H 0.32829 0.9147 0.45637 0.0
C1138 C 0.18103 0.33771 0.39516 0.0
C1139 C 0.19786 0.35842 0.35574 0.0
C1140 C 0.17278 0.42614 0.37167 0.0
C1141 C 0.15186 0.403 0.40862 0.0
N1142 N 0.15026 0.34724 0.46494 0.0
N1143 N 0.22728 0.43022 0.31699 0.0
C1144 C 0.16081 0.36215 0.42356 0.0
C1145 C 0.19989 0.40559 0.3477 0.0
N1146 N 0.18263 0.29362 0.40401 0.0
N1147 N 0.16458 0.46603 0.35808 0.0
H1148 H 0.24896 0.41636 0.3008 0.0
H1149 H 0.23283 0.46608 0.31152 0.0
H1150 H 0.14567 0.48248 0.3755 0.0
H1151 H 0.17404 0.48112 0.3282 0.0
H1152 H 0.16571 0.27328 0.42887 0.0
H1153 H 0.20012 0.27681 0.38502 0.0
H1154 H 0.15897 0.31977 0.4794 0.0
H1155 H 0.13676 0.3657 0.48677 0.0
C1156 C 0.33474 0.17428 0.56701 0.0
C1157 C 0.35754 0.19061 0.61262 0.0
C1158 C 0.40645 0.1414 0.60816 0.0
C1159 C 0.38397 0.12525 0.56241 0.0
N1160 N 0.33147 0.1292 0.49576 0.0
N1161 N 0.422 0.1992 0.67372 0.0
C1162 C 0.3494 0.14254 0.54098 0.0
C1163 C 0.39586 0.17737 0.63218 0.0
N1164 N 0.29871 0.18895 0.54916 0.0
N1165 N 0.43636 0.12072 0.6291 0.0
H1166 H 0.41547 0.22615 0.69206 0.0
H1167 H 0.45311 0.19425 0.68819 0.0
H1168 H 0.44497 0.09412 0.61246 0.0
H1169 H 0.44946 0.1267 0.66378 0.0
H1170 H 0.27624 0.17448 0.51819 0.0
H1171 H 0.29112 0.21598 0.56625 0.0
H1172 H 0.3091 0.14342 0.47691 0.0
H1173 H 0.34057 0.10483 0.47621 0.0
C1174 C 0.86852 0.34977 0.63698 0.0
C1175 C 0.8735 0.30486 0.62749 0.0
C1176 C 0.91529 0.33651 0.5641 0.0
C1177 C 0.91584 0.38324 0.57772 0.0
N1178 N 0.90398 0.4366 0.63435 0.0
N1179 N 0.9065 0.25644 0.58584 0.0
C1180 C 0.89596 0.39057 0.61653 0.0
C1181 C 0.89873 0.29857 0.59237 0.0
N1182 N 0.83644 0.35329 0.66422 0.0
N1183 N 0.92745 0.32741 0.52309 0.0
H1184 H 0.89251 0.22695 0.60456 0.0
H1185 H 0.92929 0.25207 0.56387 0.0
H1186 H 0.93886 0.35402 0.50104 0.0
H1187 H 0.92254 0.29272 0.50943 0.0
H1188 H 0.82882 0.3845 0.66892 0.0
H1189 H 0.8133 0.32351 0.67778 0.0
H1190 H 0.89395 0.44383 0.66526 0.0
H1191 H 0.92528 0.46773 0.62085 0.0
C1192 C 0.21823 0.62754 0.62033 0.0
C1193 C 0.23264 0.67658 0.61195 0.0
C1194 C 0.16277 0.65842 0.55441 0.0
C1195 C 0.14069 0.61343 0.57304 0.0
N1196 N 0.14963 0.55231 0.62086 0.0
N1197 N 0.23774 0.72782 0.55234 0.0
C1198 C 0.16958 0.59595 0.60382 0.0
C1199 C 0.21162 0.68769 0.57162 0.0
N1200 N 0.2503 0.61306 0.64624 0.0
N1201 N 0.13671 0.67429 0.52241 0.0
H1202 H 0.27349 0.74934 0.56682 0.0
H1203 H 0.22573 0.73681 0.52096 0.0
H1204 H 0.10243 0.65223 0.50519 0.0
H1205 H 0.14942 0.70945 0.51264 0.0
H1206 H 0.24347 0.57698 0.65191 0.0
H1207 H 0.28559 0.63771 0.65856 0.0
H1208 H 0.16823 0.5403 0.64642 0.0
H1209 H 0.11341 0.52919 0.61165 0.0
loop_
_geom_bond_atom_site_label_1
_geom_bond_atom_site_label_2
_geom_bond_distance
_geom_bond_site_symmetry_2
_ccdc_geom_bond_type
Zn0 O6 1.969 . S
Zn0 O7 1.965 . S
Zn0 O11 2.024 . S
Zn0 O16 1.969 . S
Zn1 O8 1.969 . S
Zn1 O14 1.969 . S
Zn1 O15 1.965 . S
Zn1 O17 2.024 . S
C2 O3 1.229 . S
C2 O11 1.058 . S
O3 C2 1.229 . S
C4 O5 1.229 . S
C4 O17 1.058 . S
O5 C4 1.229 . S
O6 Zn0 1.969 . S
O6 C9 1.267 . S
O7 Zn0 1.965 . S
O7 C18 1.260 . S
O8 Zn1 1.969 . S
O8 C18 1.258 . S
C9 O6 1.267 . S
C9 O10 1.228 . S
O10 C9 1.228 . S
O11 Zn0 2.024 . S
O11 C2 1.058 . S
C12 O13 1.228 . S
C12 O14 1.267 . S
O13 C12 1.228 . S
O14 Zn1 1.969 . S
O14 C12 1.267 . S
O15 Zn1 1.965 . S
O15 C19 1.260 . S
O16 Zn0 1.969 . S
O16 C19 1.258 . S
O17 Zn1 2.024 . S
O17 C4 1.058 . S
C18 O7 1.260 . S
C18 O8 1.258 . S
C19 O15 1.260 . S
C19 O16 1.258 . S
Zn20 O26 1.969 . S
Zn20 O27 1.965 . S
Zn20 O31 2.024 . S
Zn20 O36 1.969 . S
Zn21 O28 1.969 . S
Zn21 O34 1.969 . S
Zn21 O35 1.965 . S
Zn21 O37 2.024 . S
C22 O23 1.229 . S
C22 O31 1.058 . S
O23 C22 1.229 . S
C24 O25 1.229 . S
C24 O37 1.058 . S
O25 C24 1.229 . S
O26 Zn20 1.969 . S
O26 C29 1.267 . S
O27 Zn20 1.965 . S
O27 C38 1.260 . S
O28 Zn21 1.969 . S
O28 C38 1.258 . S
C29 O26 1.267 . S
C29 O30 1.228 . S
O30 C29 1.228 . S
O31 Zn20 2.024 . S
O31 C22 1.058 . S
C32 O33 1.228 . S
C32 O34 1.267 . S
O33 C32 1.228 . S
O34 Zn21 1.969 . S
O34 C32 1.267 . S
O35 Zn21 1.965 . S
O35 C39 1.260 . S
O36 Zn20 1.969 . S
O36 C39 1.258 . S
O37 Zn21 2.024 . S
O37 C24 1.058 . S
C38 O27 1.260 . S
C38 O28 1.258 . S
C39 O35 1.260 . S
C39 O36 1.258 . S
Zn40 O46 1.969 . S
Zn40 O47 1.965 . S
Zn40 O51 2.024 . S
Zn40 O56 1.969 . S
Zn41 O48 1.969 . S
Zn41 O54 1.969 . S
Zn41 O55 1.965 . S
Zn41 O57 2.024 . S
C42 O43 1.229 . S
C42 O51 1.058 . S
O43 C42 1.229 . S
C44 O45 1.229 . S
C44 O57 1.058 . S
O45 C44 1.229 . S
O46 Zn40 1.969 . S
O46 C49 1.267 . S
O47 Zn40 1.965 . S
O47 C58 1.260 . S
O48 Zn41 1.969 . S
O48 C58 1.258 . S
C49 O46 1.267 . S
C49 O50 1.228 . S
O50 C49 1.228 . S
O51 Zn40 2.024 . S
O51 C42 1.058 . S
C52 O53 1.228 . S
C52 O54 1.267 . S
O53 C52 1.228 . S
O54 Zn41 1.969 . S
O54 C52 1.267 . S
O55 Zn41 1.965 . S
O55 C59 1.260 . S
O56 Zn40 1.969 . S
O56 C59 1.258 . S
O57 Zn41 2.024 . S
O57 C44 1.058 . S
C58 O47 1.260 . S
C58 O48 1.258 . S
C59 O55 1.260 . S
C59 O56 1.258 . S
Zn60 O66 1.969 . S
Zn60 O67 1.965 . S
Zn60 O71 2.024 . S
Zn60 O76 1.969 . S
Zn61 O68 1.969 . S
Zn61 O74 1.969 . S
Zn61 O75 1.965 . S
Zn61 O77 2.024 . S
C62 O63 1.229 . S
C62 O71 1.058 . S
O63 C62 1.229 . S
C64 O65 1.229 . S
C64 O77 1.058 . S
O65 C64 1.229 . S
O66 Zn60 1.969 . S
O66 C69 1.267 . S
O67 Zn60 1.965 . S
O67 C78 1.260 . S
O68 Zn61 1.969 . S
O68 C78 1.258 . S
C69 O66 1.267 . S
C69 O70 1.228 . S
O70 C69 1.228 . S
O71 Zn60 2.024 . S
O71 C62 1.058 . S
C72 O73 1.228 . S
C72 O74 1.267 . S
O73 C72 1.228 . S
O74 Zn61 1.969 . S
O74 C72 1.267 . S
O75 Zn61 1.965 . S
O75 C79 1.260 . S
O76 Zn60 1.969 . S
O76 C79 1.258 . S
O77 Zn61 2.024 . S
O77 C64 1.058 . S
C78 O67 1.260 . S
C78 O68 1.258 . S
C79 O75 1.260 . S
C79 O76 1.258 . S
Zn80 O86 1.969 . S
Zn80 O87 1.965 . S
Zn80 O91 2.024 . S
Zn80 O96 1.969 . S
Zn81 O88 1.969 . S
Zn81 O94 1.969 . S
Zn81 O95 1.965 . S
Zn81 O97 2.024 . S
C82 O83 1.229 . S
C82 O91 1.058 . S
O83 C82 1.229 . S
C84 O85 1.229 . S
C84 O97 1.058 . S
O85 C84 1.229 . S
O86 Zn80 1.969 . S
O86 C89 1.267 . S
O87 Zn80 1.965 . S
O87 C98 1.260 . S
O88 Zn81 1.969 . S
O88 C98 1.258 . S
C89 O86 1.267 . S
C89 O90 1.228 . S
O90 C89 1.228 . S
O91 Zn80 2.024 . S
O91 C82 1.058 . S
C92 O93 1.228 . S
C92 O94 1.267 . S
O93 C92 1.228 . S
O94 Zn81 1.969 . S
O94 C92 1.267 . S
O95 Zn81 1.965 . S
O95 C99 1.260 . S
O96 Zn80 1.969 . S
O96 C99 1.258 . S
O97 Zn81 2.024 . S
O97 C84 1.058 . S
C98 O87 1.260 . S
C98 O88 1.258 . S
C99 O95 1.260 . S
C99 O96 1.258 . S
Zn100 O106 1.969 . S
Zn100 O107 1.965 . S
Zn100 O111 2.024 . S
Zn100 O116 1.969 . S
Zn101 O108 1.969 . S
Zn101 O114 1.969 . S
Zn101 O115 1.965 . S
Zn101 O117 2.024 . S
C102 O103 1.229 . S
C102 O111 1.058 . S
O103 C102 1.229 . S
C104 O105 1.229 . S
C104 O117 1.058 . S
O105 C104 1.229 . S
O106 Zn100 1.969 . S
O106 C109 1.267 . S
O107 Zn100 1.965 . S
O107 C118 1.260 . S
O108 Zn101 1.969 . S
O108 C118 1.258 . S
C109 O106 1.267 . S
C109 O110 1.228 . S
O110 C109 1.228 . S
O111 Zn100 2.024 . S
O111 C102 1.058 . S
C112 O113 1.228 . S
C112 O114 1.267 . S
O113 C112 1.228 . S
O114 Zn101 1.969 . S
O114 C112 1.267 . S
O115 Zn101 1.965 . S
O115 C119 1.260 . S
O116 Zn100 1.969 . S
O116 C119 1.258 . S
O117 Zn101 2.024 . S
O117 C104 1.058 . S
C118 O107 1.260 . S
C118 O108 1.258 . S
C119 O115 1.260 . S
C119 O116 1.258 . S
Zn120 O126 1.969 . S
Zn120 O127 1.965 . S
Zn120 O131 2.024 . S
Zn120 O136 1.969 . S
Zn121 O128 1.969 . S
Zn121 O134 1.969 . S
Zn121 O135 1.965 . S
Zn121 O137 2.024 . S
C122 O123 1.229 . S
C122 O131 1.058 . S
O123 C122 1.229 . S
C124 O125 1.229 . S
C124 O137 1.058 . S
O125 C124 1.229 . S
O126 Zn120 1.969 . S
O126 C129 1.267 . S
O127 Zn120 1.965 . S
O127 C138 1.260 . S
O128 Zn121 1.969 . S
O128 C138 1.258 . S
C129 O126 1.267 . S
C129 O130 1.228 . S
O130 C129 1.228 . S
O131 Zn120 2.024 . S
O131 C122 1.058 . S
C132 O133 1.228 . S
C132 O134 1.267 . S
O133 C132 1.228 . S
O134 Zn121 1.969 . S
O134 C132 1.267 . S
O135 Zn121 1.965 . S
O135 C139 1.260 . S
O136 Zn120 1.969 . S
O136 C139 1.258 . S
O137 Zn121 2.024 . S
O137 C124 1.058 . S
C138 O127 1.260 . S
C138 O128 1.258 . S
C139 O135 1.260 . S
C139 O136 1.258 . S
Zn140 O146 1.969 . S
Zn140 O147 1.965 . S
Zn140 O151 2.024 . S
Zn140 O156 1.969 . S
Zn141 O148 1.969 . S
Zn141 O154 1.969 . S
Zn141 O155 1.965 . S
Zn141 O157 2.024 . S
C142 O143 1.229 . S
C142 O151 1.058 . S
O143 C142 1.229 . S
C144 O145 1.229 . S
C144 O157 1.058 . S
O145 C144 1.229 . S
O146 Zn140 1.969 . S
O146 C149 1.267 . S
O147 Zn140 1.965 . S
O147 C158 1.260 . S
O148 Zn141 1.969 . S
O148 C158 1.258 . S
C149 O146 1.267 . S
C149 O150 1.228 . S
O150 C149 1.228 . S
O151 Zn140 2.024 . S
O151 C142 1.058 . S
C152 O153 1.228 . S
C152 O154 1.267 . S
O153 C152 1.228 . S
O154 Zn141 1.969 . S
O154 C152 1.267 . S
O155 Zn141 1.965 . S
O155 C159 1.260 . S
O156 Zn140 1.969 . S
O156 C159 1.258 . S
O157 Zn141 2.024 . S
O157 C144 1.058 . S
C158 O147 1.260 . S
C158 O148 1.258 . S
C159 O155 1.260 . S
C159 O156 1.258 . S
C160 O172 1.241 . S
C160 O173 1.280 . S
C161 O174 1.277 . S
C161 O175 1.245 . S
C162 O186 1.247 . S
C162 O188 1.289 . S
Mg163 O164 1.926 . S
Mg163 O173 1.984 . S
Mg163 O175 1.988 . S
Mg163 O176 2.061 1_655 S
O164 Mg163 1.926 . S
O164 Mg165 1.983 1_545 S
O164 Mg166 1.920 1_655 S
Mg165 O164 1.983 1_565 S
Mg165 O172 2.032 1_565 S
Mg165 O174 2.030 1_565 S
Mg165 O180 2.050 . S
Mg165 O188 2.248 . S
Mg166 O164 1.920 1_455 S
Mg166 O167 1.914 1_545 S
Mg166 O177 2.107 . S
Mg166 O179 2.077 1_445 S
Mg166 O188 2.106 1_445 S
Mg166 O189 2.080 . S
O167 Mg166 1.914 1_565 S
O167 Mg168 1.926 . S
O167 Mg169 1.986 1_565 S
Mg168 O167 1.926 . S
Mg168 O182 1.984 . S
Mg168 O185 1.988 . S
Mg168 O186 2.061 1_455 S
Mg169 O167 1.986 1_545 S
Mg169 O177 2.238 . S
Mg169 O181 2.042 1_545 S
Mg169 O183 2.041 1_545 S
Mg169 O190 2.038 . S
C170 O176 1.247 . S
C170 O177 1.289 . S
C171 O189 1.245 . S
C171 O190 1.274 . S
O172 C160 1.241 . S
O172 Mg165 2.032 1_545 S
O173 C160 1.280 . S
O173 Mg163 1.984 . S
O174 C161 1.277 . S
O174 Mg165 2.030 1_545 S
O175 C161 1.245 . S
O175 Mg163 1.988 . S
O176 Mg163 2.061 1_455 S
O176 C170 1.247 . S
O177 Mg166 2.107 . S
O177 Mg169 2.238 . S
O177 C170 1.289 . S
C178 O179 1.245 . S
C178 O180 1.274 . S
O179 Mg166 2.077 1_665 S
O179 C178 1.245 . S
O180 Mg165 2.050 . S
O180 C178 1.274 . S
O181 Mg169 2.042 1_565 S
O181 C184 1.241 . S
O182 Mg168 1.984 . S
O182 C184 1.280 . S
O183 Mg169 2.041 1_565 S
O183 C187 1.277 . S
C184 O181 1.241 . S
C184 O182 1.280 . S
O185 Mg168 1.988 . S
O185 C187 1.245 . S
O186 C162 1.247 . S
O186 Mg168 2.061 1_655 S
C187 O183 1.277 . S
C187 O185 1.245 . S
O188 C162 1.289 . S
O188 Mg165 2.248 . S
O188 Mg166 2.106 1_665 S
O189 Mg166 2.080 . S
O189 C171 1.245 . S
O190 Mg169 2.038 . S
O190 C171 1.274 . S
C191 O203 1.241 . S
C191 O204 1.280 . S
C192 O205 1.277 . S
C192 O206 1.245 . S
C193 O217 1.247 . S
C193 O219 1.289 . S
Mg194 O195 1.926 . S
Mg194 O204 1.984 . S
Mg194 O206 1.988 1_554 S
Mg194 O207 2.061 . S
O195 Mg194 1.926 . S
O195 Mg196 1.983 1_544 S
O195 Mg197 1.920 . S
Mg196 O195 1.983 1_566 S
Mg196 O203 2.032 1_566 S
Mg196 O205 2.030 1_565 S
Mg196 O211 2.050 1_556 S
Mg196 O219 2.248 . S
Mg197 O195 1.920 . S
Mg197 O198 1.913 1_544 S
Mg197 O208 2.108 . S
Mg197 O210 2.080 1_545 S
Mg197 O219 2.104 1_544 S
Mg197 O220 2.078 1_554 S
O198 Mg197 1.913 1_566 S
O198 Mg199 1.926 . S
O198 Mg200 1.986 1_566 S
Mg199 O198 1.926 . S
Mg199 O213 1.984 . S
Mg199 O216 1.988 1_556 S
Mg199 O217 2.061 . S
Mg200 O198 1.986 1_544 S
Mg200 O208 2.238 . S
Mg200 O212 2.042 1_544 S
Mg200 O214 2.041 1_545 S
Mg200 O221 2.038 1_554 S
C201 O207 1.247 . S
C201 O208 1.289 . S
C202 O220 1.245 . S
C202 O221 1.274 . S
O203 C191 1.241 . S
O203 Mg196 2.032 1_544 S
O204 C191 1.280 . S
O204 Mg194 1.984 . S
O205 C192 1.277 . S
O205 Mg196 2.030 1_545 S
O206 C192 1.245 . S
O206 Mg194 1.988 1_556 S
O207 Mg194 2.061 . S
O207 C201 1.247 . S
O208 Mg197 2.108 . S
O208 Mg200 2.238 . S
O208 C201 1.289 . S
C209 O210 1.245 . S
C209 O211 1.274 . S
O210 Mg197 2.080 1_565 S
O210 C209 1.245 . S
O211 Mg196 2.050 1_554 S
O211 C209 1.274 . S
O212 Mg200 2.042 1_566 S
O212 C215 1.241 . S
O213 Mg199 1.984 . S
O213 C215 1.280 . S
O214 Mg200 2.041 1_565 S
O214 C218 1.277 . S
C215 O212 1.241 . S
C215 O213 1.280 . S
O216 Mg199 1.988 1_554 S
O216 C218 1.245 . S
O217 C193 1.247 . S
O217 Mg199 2.061 . S
C218 O214 1.277 . S
C218 O216 1.245 . S
O219 C193 1.289 . S
O219 Mg196 2.248 . S
O219 Mg197 2.104 1_566 S
O220 Mg197 2.078 1_556 S
O220 C202 1.245 . S
O221 Mg200 2.038 1_556 S
O221 C202 1.274 . S
C222 O234 1.241 . S
C222 O235 1.280 . S
C223 O236 1.277 . S
C223 O237 1.245 . S
C224 O248 1.247 . S
C224 O250 1.289 . S
Mg225 O226 1.926 . S
Mg225 O235 1.984 . S
Mg225 O237 1.988 1_554 S
Mg225 O238 2.061 1_655 S
O226 Mg225 1.926 . S
O226 Mg227 1.986 1_554 S
O226 Mg228 1.918 1_655 S
Mg227 O226 1.986 1_556 S
Mg227 O234 2.042 1_556 S
Mg227 O236 2.041 . S
Mg227 O242 2.038 1_556 S
Mg227 O250 2.238 . S
Mg228 O226 1.918 1_455 S
Mg228 O229 1.916 1_554 S
Mg228 O239 2.108 . S
Mg228 O241 2.081 1_455 S
Mg228 O250 2.105 1_454 S
Mg228 O251 2.076 1_554 S
O229 Mg228 1.916 1_556 S
O229 Mg230 1.926 . S
O229 Mg231 1.986 1_556 S
Mg230 O229 1.926 . S
Mg230 O244 1.984 . S
Mg230 O247 1.988 1_556 S
Mg230 O248 2.061 1_455 S
Mg231 O229 1.986 1_554 S
Mg231 O239 2.238 . S
Mg231 O243 2.042 1_554 S
Mg231 O245 2.041 . S
Mg231 O252 2.038 1_554 S
C232 O238 1.247 . S
C232 O239 1.289 . S
C233 O251 1.245 . S
C233 O252 1.274 . S
O234 C222 1.241 . S
O234 Mg227 2.042 1_554 S
O235 C222 1.280 . S
O235 Mg225 1.984 . S
O236 C223 1.277 . S
O236 Mg227 2.041 . S
O237 C223 1.245 . S
O237 Mg225 1.988 1_556 S
O238 Mg225 2.061 1_455 S
O238 C232 1.247 . S
O239 Mg228 2.108 . S
O239 Mg231 2.238 . S
O239 C232 1.289 . S
C240 O241 1.245 . S
C240 O242 1.274 . S
O241 Mg228 2.081 1_655 S
O241 C240 1.245 . S
O242 Mg227 2.038 1_554 S
O242 C240 1.274 . S
O243 Mg231 2.042 1_556 S
O243 C246 1.241 . S
O244 Mg230 1.984 . S
O244 C246 1.280 . S
O245 Mg231 2.041 . S
O245 C249 1.277 . S
C246 O243 1.241 . S
C246 O244 1.280 . S
O247 Mg230 1.988 1_554 S
O247 C249 1.245 . S
O248 C224 1.247 . S
O248 Mg230 2.061 1_655 S
C249 O245 1.277 . S
C249 O247 1.245 . S
O250 C224 1.289 . S
O250 Mg227 2.238 . S
O250 Mg228 2.105 1_656 S
O251 Mg228 2.076 1_556 S
O251 C233 1.245 . S
O252 Mg231 2.038 1_556 S
O252 C233 1.274 . S
C253 O265 1.241 . S
C253 O266 1.280 . S
C254 O267 1.277 . S
C254 O268 1.245 . S
C255 O279 1.247 . S
C255 O281 1.289 . S
Mg256 O257 1.926 . S
Mg256 O266 1.984 . S
Mg256 O268 1.988 1_554 S
Mg256 O269 2.061 . S
O257 Mg256 1.926 . S
O257 Mg258 1.986 1_554 S
O257 Mg259 1.918 . S
Mg258 O257 1.986 1_556 S
Mg258 O265 2.042 1_556 S
Mg258 O267 2.041 . S
Mg258 O273 2.038 1_556 S
Mg258 O281 2.238 . S
Mg259 O257 1.918 . S
Mg259 O260 1.916 1_554 S
Mg259 O270 2.108 . S
Mg259 O272 2.081 . S
Mg259 O281 2.105 1_554 S
Mg259 O282 2.076 1_554 S
O260 Mg259 1.916 1_556 S
O260 Mg261 1.926 . S
O260 Mg262 1.986 1_556 S
Mg261 O260 1.926 . S
Mg261 O275 1.984 . S
Mg261 O278 1.988 1_556 S
Mg261 O279 2.061 . S
Mg262 O260 1.986 1_554 S
Mg262 O270 2.238 . S
Mg262 O274 2.042 1_554 S
Mg262 O276 2.041 . S
Mg262 O283 2.038 1_554 S
C263 O269 1.247 . S
C263 O270 1.289 . S
C264 O282 1.245 . S
C264 O283 1.274 . S
O265 C253 1.241 . S
O265 Mg258 2.042 1_554 S
O266 C253 1.280 . S
O266 Mg256 1.984 . S
O267 C254 1.277 . S
O267 Mg258 2.041 . S
O268 C254 1.245 . S
O268 Mg256 1.988 1_556 S
O269 Mg256 2.061 . S
O269 C263 1.247 . S
O270 Mg259 2.108 . S
O270 Mg262 2.238 . S
O270 C263 1.289 . S
C271 O272 1.245 . S
C271 O273 1.274 . S
O272 Mg259 2.081 . S
O272 C271 1.245 . S
O273 Mg258 2.038 1_554 S
O273 C271 1.274 . S
O274 Mg262 2.042 1_556 S
O274 C277 1.241 . S
O275 Mg261 1.984 . S
O275 C277 1.280 . S
O276 Mg262 2.041 . S
O276 C280 1.277 . S
C277 O274 1.241 . S
C277 O275 1.280 . S
O278 Mg261 1.988 1_554 S
O278 C280 1.245 . S
O279 C255 1.247 . S
O279 Mg261 2.061 . S
C280 O276 1.277 . S
C280 O278 1.245 . S
O281 C255 1.289 . S
O281 Mg258 2.238 . S
O281 Mg259 2.105 1_556 S
O282 Mg259 2.076 1_556 S
O282 C264 1.245 . S
O283 Mg262 2.038 1_556 S
O283 C264 1.274 . S
C284 O296 1.241 . S
C284 O297 1.280 . S
C285 O298 1.277 . S
C285 O299 1.245 . S
C286 O310 1.247 . S
C286 O312 1.289 . S
Mg287 O288 1.926 . S
Mg287 O297 1.984 . S
Mg287 O299 1.988 . S
Mg287 O300 2.061 1_655 S
O288 Mg287 1.926 . S
O288 Mg289 1.986 . S
O288 Mg290 1.917 1_655 S
Mg289 O288 1.986 . S
Mg289 O296 2.042 . S
Mg289 O298 2.041 . S
Mg289 O304 2.038 . S
Mg289 O312 2.238 . S
Mg290 O288 1.917 1_455 S
Mg290 O291 1.917 . S
Mg290 O301 2.106 . S
Mg290 O303 2.079 1_455 S
Mg290 O312 2.106 1_455 S
Mg290 O313 2.079 . S
O291 Mg290 1.917 . S
O291 Mg292 1.926 . S
O291 Mg293 1.986 . S
Mg292 O291 1.926 . S
Mg292 O306 1.984 . S
Mg292 O309 1.988 . S
Mg292 O310 2.061 1_455 S
Mg293 O291 1.986 . S
Mg293 O301 2.238 . S
Mg293 O305 2.042 . S
Mg293 O307 2.041 . S
Mg293 O314 2.038 . S
C294 O300 1.247 . S
C294 O301 1.289 . S
C295 O313 1.245 . S
C295 O314 1.274 . S
O296 C284 1.241 . S
O296 Mg289 2.042 . S
O297 C284 1.280 . S
O297 Mg287 1.984 . S
O298 C285 1.277 . S
O298 Mg289 2.041 . S
O299 C285 1.245 . S
O299 Mg287 1.988 . S
O300 Mg287 2.061 1_455 S
O300 C294 1.247 . S
O301 Mg290 2.106 . S
O301 Mg293 2.238 . S
O301 C294 1.289 . S
C302 O303 1.245 . S
C302 O304 1.274 . S
O303 Mg290 2.079 1_655 S
O303 C302 1.245 . S
O304 Mg289 2.038 . S
O304 C302 1.274 . S
O305 Mg293 2.042 . S
O305 C308 1.241 . S
O306 Mg292 1.984 . S
O306 C308 1.280 . S
O307 Mg293 2.041 . S
O307 C311 1.277 . S
C308 O305 1.241 . S
C308 O306 1.280 . S
O309 Mg292 1.988 . S
O309 C311 1.245 . S
O310 C286 1.247 . S
O310 Mg292 2.061 1_655 S
C311 O307 1.277 . S
C311 O309 1.245 . S
O312 C286 1.289 . S
O312 Mg289 2.238 . S
O312 Mg290 2.106 1_655 S
O313 Mg290 2.079 . S
O313 C295 1.245 . S
O314 Mg293 2.038 . S
O314 C295 1.274 . S
C315 O327 1.241 . S
C315 O328 1.280 . S
C316 O329 1.277 . S
C316 O330 1.245 . S
C317 O341 1.247 . S
C317 O343 1.289 . S
Mg318 O319 1.926 . S
Mg318 O328 1.984 . S
Mg318 O330 1.988 . S
Mg318 O331 2.061 . S
O319 Mg318 1.926 . S
O319 Mg320 1.983 1_545 S
O319 Mg321 1.920 . S
Mg320 O319 1.983 1_565 S
Mg320 O327 2.032 1_565 S
Mg320 O329 2.030 1_565 S
Mg320 O335 2.050 . S
Mg320 O343 2.248 . S
Mg321 O319 1.920 . S
Mg321 O322 1.914 1_545 S
Mg321 O332 2.107 . S
Mg321 O334 2.077 1_545 S
Mg321 O343 2.106 1_545 S
Mg321 O344 2.080 . S
O322 Mg321 1.914 1_565 S
O322 Mg323 1.926 . S
O322 Mg324 1.986 1_565 S
Mg323 O322 1.926 . S
Mg323 O337 1.984 . S
Mg323 O340 1.988 . S
Mg323 O341 2.061 . S
Mg324 O322 1.986 1_545 S
Mg324 O332 2.238 . S
Mg324 O336 2.042 1_545 S
Mg324 O338 2.041 1_545 S
Mg324 O345 2.038 . S
C325 O331 1.247 . S
C325 O332 1.289 . S
C326 O344 1.245 . S
C326 O345 1.274 . S
O327 C315 1.241 . S
O327 Mg320 2.032 1_545 S
O328 C315 1.280 . S
O328 Mg318 1.984 . S
O329 C316 1.277 . S
O329 Mg320 2.030 1_545 S
O330 C316 1.245 . S
O330 Mg318 1.988 . S
O331 Mg318 2.061 . S
O331 C325 1.247 . S
O332 Mg321 2.107 . S
O332 Mg324 2.238 . S
O332 C325 1.289 . S
C333 O334 1.245 . S
C333 O335 1.274 . S
O334 Mg321 2.077 1_565 S
O334 C333 1.245 . S
O335 Mg320 2.050 . S
O335 C333 1.274 . S
O336 Mg324 2.042 1_565 S
O336 C339 1.241 . S
O337 Mg323 1.984 . S
O337 C339 1.280 . S
O338 Mg324 2.041 1_565 S
O338 C342 1.277 . S
C339 O336 1.241 . S
C339 O337 1.280 . S
O340 Mg323 1.988 . S
O340 C342 1.245 . S
O341 C317 1.247 . S
O341 Mg323 2.061 . S
C342 O338 1.277 . S
C342 O340 1.245 . S
O343 C317 1.289 . S
O343 Mg320 2.248 . S
O343 Mg321 2.106 1_565 S
O344 Mg321 2.080 . S
O344 C326 1.245 . S
O345 Mg324 2.038 . S
O345 C326 1.274 . S
C346 C347 1.363 . S
C346 C352 1.379 . S
C346 N354 1.356 . S
C347 C346 1.363 . S
C347 C353 1.363 . S
C348 C349 1.363 . S
C348 C353 1.379 . S
C348 N355 1.356 . S
C349 C348 1.363 . S
C349 C352 1.363 . S
N350 C352 1.356 . S
N350 H362 0.984 . S
N350 H363 0.985 . S
N351 C353 1.356 . S
N351 H356 0.984 . S
N351 H357 0.985 . S
C352 C346 1.379 . S
C352 C349 1.363 . S
C352 N350 1.356 . S
C353 C347 1.363 . S
C353 C348 1.379 . S
C353 N351 1.356 . S
N354 C346 1.356 . S
N354 H360 0.984 . S
N354 H361 0.984 . S
N355 C348 1.356 . S
N355 H358 0.984 . S
N355 H359 0.985 . S
H356 N351 0.984 . S
H357 N351 0.985 . S
H358 N355 0.984 . S
H359 N355 0.985 . S
H360 N354 0.984 . S
H361 N354 0.984 . S
H362 N350 0.984 . S
H363 N350 0.985 . S
C364 C365 1.363 . S
C364 C370 1.379 . S
C364 N372 1.356 . S
C365 C364 1.363 . S
C365 C371 1.363 . S
C366 C367 1.363 . S
C366 C371 1.379 . S
C366 N373 1.356 . S
C367 C366 1.363 . S
C367 C370 1.363 . S
N368 C370 1.356 . S
N368 H380 0.984 . S
N368 H381 0.985 . S
N369 C371 1.356 . S
N369 H374 0.984 . S
N369 H375 0.985 . S
C370 C364 1.379 . S
C370 C367 1.363 . S
C370 N368 1.356 . S
C371 C365 1.363 . S
C371 C366 1.379 . S
C371 N369 1.356 . S
N372 C364 1.356 . S
N372 H378 0.984 . S
N372 H379 0.984 . S
N373 C366 1.356 . S
N373 H376 0.984 . S
N373 H377 0.985 . S
H374 N369 0.984 . S
H375 N369 0.985 . S
H376 N373 0.984 . S
H377 N373 0.985 . S
H378 N372 0.984 . S
H379 N372 0.984 . S
H380 N368 0.984 . S
H381 N368 0.985 . S
C382 C383 1.363 . S
C382 C388 1.379 . S
C382 N390 1.356 . S
C383 C382 1.363 . S
C383 C389 1.363 . S
C384 C385 1.363 . S
C384 C389 1.379 . S
C384 N391 1.356 . S
C385 C384 1.363 . S
C385 C388 1.363 . S
N386 C388 1.356 . S
N386 H398 0.984 . S
N386 H399 0.985 . S
N387 C389 1.356 . S
N387 H392 0.984 . S
N387 H393 0.985 . S
C388 C382 1.379 . S
C388 C385 1.363 . S
C388 N386 1.356 . S
C389 C383 1.363 . S
C389 C384 1.379 . S
C389 N387 1.356 . S
N390 C382 1.356 . S
N390 H396 0.984 . S
N390 H397 0.984 . S
N391 C384 1.356 . S
N391 H394 0.984 . S
N391 H395 0.985 . S
H392 N387 0.984 . S
H393 N387 0.985 . S
H394 N391 0.984 . S
H395 N391 0.985 . S
H396 N390 0.984 . S
H397 N390 0.984 . S
H398 N386 0.984 . S
H399 N386 0.985 . S
C400 C401 1.363 . S
C400 C406 1.379 . S
C400 N408 1.356 . S
C401 C400 1.363 . S
C401 C407 1.363 . S
C402 C403 1.363 . S
C402 C407 1.379 . S
C402 N409 1.356 . S
C403 C402 1.363 . S
C403 C406 1.363 . S
N404 C406 1.356 . S
N404 H416 0.984 . S
N404 H417 0.985 . S
N405 C407 1.356 . S
N405 H410 0.984 . S
N405 H411 0.985 . S
C406 C400 1.379 . S
C406 C403 1.363 . S
C406 N404 1.356 . S
C407 C401 1.363 . S
C407 C402 1.379 . S
C407 N405 1.356 . S
N408 C400 1.356 . S
N408 H414 0.984 . S
N408 H415 0.984 . S
N409 C402 1.356 . S
N409 H412 0.984 . S
N409 H413 0.985 . S
H410 N405 0.984 . S
H411 N405 0.985 . S
H412 N409 0.984 . S
H413 N409 0.985 . S
H414 N408 0.984 . S
H415 N408 0.984 . S
H416 N404 0.984 . S
H417 N404 0.985 . S
C418 C419 1.363 . S
C418 C424 1.379 . S
C418 N426 1.356 . S
C419 C418 1.363 . S
C419 C425 1.363 . S
C420 C421 1.363 . S
C420 C425 1.379 . S
C420 N427 1.356 . S
C421 C420 1.363 . S
C421 C424 1.363 . S
N422 C424 1.356 . S
N422 H434 0.984 . S
N422 H435 0.985 . S
N423 C425 1.356 . S
N423 H428 0.984 . S
N423 H429 0.985 . S
C424 C418 1.379 . S
C424 C421 1.363 . S
C424 N422 1.356 . S
C425 C419 1.363 . S
C425 C420 1.379 . S
C425 N423 1.356 . S
N426 C418 1.356 . S
N426 H432 0.984 . S
N426 H433 0.984 . S
N427 C420 1.356 . S
N427 H430 0.984 . S
N427 H431 0.985 . S
H428 N423 0.984 . S
H429 N423 0.985 . S
H430 N427 0.984 . S
H431 N427 0.985 . S
H432 N426 0.984 . S
H433 N426 0.984 . S
H434 N422 0.984 . S
H435 N422 0.985 . S
C436 C437 1.363 . S
C436 C442 1.379 . S
C436 N444 1.356 . S
C437 C436 1.363 . S
C437 C443 1.363 . S
C438 C439 1.363 . S
C438 C443 1.379 . S
C438 N445 1.356 . S
C439 C438 1.363 . S
C439 C442 1.363 . S
N440 C442 1.356 . S
N440 H452 0.984 . S
N440 H453 0.985 . S
N441 C443 1.356 . S
N441 H446 0.984 . S
N441 H447 0.985 . S
C442 C436 1.379 . S
C442 C439 1.363 . S
C442 N440 1.356 . S
C443 C437 1.363 . S
C443 C438 1.379 . S
C443 N441 1.356 . S
N444 C436 1.356 . S
N444 H450 0.984 . S
N444 H451 0.984 . S
N445 C438 1.356 . S
N445 H448 0.984 . S
N445 H449 0.985 . S
H446 N441 0.984 . S
H447 N441 0.985 . S
H448 N445 0.984 . S
H449 N445 0.985 . S
H450 N444 0.984 . S
H451 N444 0.984 . S
H452 N440 0.984 . S
H453 N440 0.985 . S
C454 C455 1.363 . S
C454 C460 1.379 . S
C454 N462 1.356 . S
C455 C454 1.363 . S
C455 C461 1.363 . S
C456 C457 1.363 . S
C456 C461 1.379 . S
C456 N463 1.356 . S
C457 C456 1.363 . S
C457 C460 1.363 . S
N458 C460 1.356 . S
N458 H470 0.984 . S
N458 H471 0.985 . S
N459 C461 1.356 . S
N459 H464 0.984 . S
N459 H465 0.985 . S
C460 C454 1.379 . S
C460 C457 1.363 . S
C460 N458 1.356 . S
C461 C455 1.363 . S
C461 C456 1.379 . S
C461 N459 1.356 . S
N462 C454 1.356 . S
N462 H468 0.984 . S
N462 H469 0.984 . S
N463 C456 1.356 . S
N463 H466 0.984 . S
N463 H467 0.985 . S
H464 N459 0.984 . S
H465 N459 0.985 . S
H466 N463 0.984 . S
H467 N463 0.985 . S
H468 N462 0.984 . S
H469 N462 0.984 . S
H470 N458 0.984 . S
H471 N458 0.985 . S
C472 C473 1.363 . S
C472 C478 1.379 . S
C472 N480 1.356 . S
C473 C472 1.363 . S
C473 C479 1.363 . S
C474 C475 1.363 . S
C474 C479 1.379 . S
C474 N481 1.356 . S
C475 C474 1.363 . S
C475 C478 1.363 . S
N476 C478 1.356 . S
N476 H488 0.984 . S
N476 H489 0.985 . S
N477 C479 1.356 . S
N477 H482 0.984 . S
N477 H483 0.985 . S
C478 C472 1.379 . S
C478 C475 1.363 . S
C478 N476 1.356 . S
C479 C473 1.363 . S
C479 C474 1.379 . S
C479 N477 1.356 . S
N480 C472 1.356 . S
N480 H486 0.984 . S
N480 H487 0.984 . S
N481 C474 1.356 . S
N481 H484 0.984 . S
N481 H485 0.985 . S
H482 N477 0.984 . S
H483 N477 0.985 . S
H484 N481 0.984 . S
H485 N481 0.985 . S
H486 N480 0.984 . S
H487 N480 0.984 . S
H488 N476 0.984 . S
H489 N476 0.985 . S
C490 C491 1.363 . S
C490 C496 1.379 . S
C490 N498 1.356 . S
C491 C490 1.363 . S
C491 C497 1.363 . S
C492 C493 1.363 . S
C492 C497 1.379 . S
C492 N499 1.356 . S
C493 C492 1.363 . S
C493 C496 1.363 . S
N494 C496 1.356 . S
N494 H506 0.984 1_545 S
N494 H507 0.985 . S
N495 C497 1.356 . S
N495 H500 0.984 . S
N495 H501 0.985 . S
C496 C490 1.379 . S
C496 C493 1.363 . S
C496 N494 1.356 . S
C497 C491 1.363 . S
C497 C492 1.379 . S
C497 N495 1.356 . S
N498 C490 1.356 . S
N498 H504 0.984 . S
N498 H505 0.984 . S
N499 C492 1.356 . S
N499 H502 0.984 . S
N499 H503 0.985 . S
H500 N495 0.984 . S
H501 N495 0.985 . S
H502 N499 0.984 . S
H503 N499 0.985 . S
H504 N498 0.984 . S
H505 N498 0.984 . S
H506 N494 0.984 1_565 S
H507 N494 0.985 . S
C508 C509 1.363 . S
C508 C514 1.379 . S
C508 N516 1.356 . S
C509 C508 1.363 . S
C509 C515 1.363 . S
C510 C511 1.363 . S
C510 C515 1.379 . S
C510 N517 1.356 . S
C511 C510 1.363 . S
C511 C514 1.363 . S
N512 C514 1.356 . S
N512 H524 0.984 1_554 S
N512 H525 0.985 . S
N513 C515 1.356 . S
N513 H518 0.984 . S
N513 H519 0.985 . S
C514 C508 1.379 . S
C514 C511 1.363 . S
C514 N512 1.356 . S
C515 C509 1.363 . S
C515 C510 1.379 . S
C515 N513 1.356 . S
N516 C508 1.356 . S
N516 H522 0.984 . S
N516 H523 0.984 . S
N517 C510 1.356 . S
N517 H520 0.984 . S
N517 H521 0.985 . S
H518 N513 0.984 . S
H519 N513 0.985 . S
H520 N517 0.984 . S
H521 N517 0.985 . S
H522 N516 0.984 . S
H523 N516 0.984 . S
H524 N512 0.984 1_556 S
H525 N512 0.985 . S
C526 C527 1.363 . S
C526 C532 1.379 . S
C526 N534 1.356 . S
C527 C526 1.363 . S
C527 C533 1.363 . S
C528 C529 1.363 . S
C528 C533 1.379 . S
C528 N535 1.356 . S
C529 C528 1.363 . S
C529 C532 1.363 . S
N530 C532 1.356 . S
N530 H542 0.984 . S
N530 H543 0.985 . S
N531 C533 1.356 . S
N531 H536 0.984 . S
N531 H537 0.985 . S
C532 C526 1.379 . S
C532 C529 1.363 . S
C532 N530 1.356 . S
C533 C527 1.363 . S
C533 C528 1.379 . S
C533 N531 1.356 . S
N534 C526 1.356 . S
N534 H540 0.984 . S
N534 H541 0.984 . S
N535 C528 1.356 . S
N535 H538 0.984 . S
N535 H539 0.985 . S
H536 N531 0.984 . S
H537 N531 0.985 . S
H538 N535 0.984 . S
H539 N535 0.985 . S
H540 N534 0.984 . S
H541 N534 0.984 . S
H542 N530 0.984 . S
H543 N530 0.985 . S
C544 C545 1.363 . S
C544 C550 1.379 . S
C544 N552 1.356 . S
C545 C544 1.363 . S
C545 C551 1.363 . S
C546 C547 1.363 . S
C546 C551 1.379 . S
C546 N553 1.356 . S
C547 C546 1.363 . S
C547 C550 1.363 . S
N548 C550 1.356 . S
N548 H560 0.984 . S
N548 H561 0.985 . S
N549 C551 1.356 . S
N549 H554 0.984 . S
N549 H555 0.985 . S
C550 C544 1.379 . S
C550 C547 1.363 . S
C550 N548 1.356 . S
C551 C545 1.363 . S
C551 C546 1.379 . S
C551 N549 1.356 . S
N552 C544 1.356 . S
N552 H558 0.984 . S
N552 H559 0.984 . S
N553 C546 1.356 . S
N553 H556 0.984 . S
N553 H557 0.985 . S
H554 N549 0.984 . S
H555 N549 0.985 . S
H556 N553 0.984 . S
H557 N553 0.985 . S
H558 N552 0.984 . S
H559 N552 0.984 . S
H560 N548 0.984 . S
H561 N548 0.985 . S
C562 C563 1.363 . S
C562 C568 1.379 . S
C562 N570 1.356 . S
C563 C562 1.363 . S
C563 C569 1.363 . S
C564 C565 1.363 . S
C564 C569 1.379 . S
C564 N571 1.356 . S
C565 C564 1.363 . S
C565 C568 1.363 . S
N566 C568 1.356 . S
N566 H578 0.984 . S
N566 H579 0.985 . S
N567 C569 1.356 . S
N567 H572 0.984 . S
N567 H573 0.985 . S
C568 C562 1.379 . S
C568 C565 1.363 . S
C568 N566 1.356 . S
C569 C563 1.363 . S
C569 C564 1.379 . S
C569 N567 1.356 . S
N570 C562 1.356 . S
N570 H576 0.984 . S
N570 H577 0.984 . S
N571 C564 1.356 . S
N571 H574 0.984 . S
N571 H575 0.985 . S
H572 N567 0.984 . S
H573 N567 0.985 . S
H574 N571 0.984 . S
H575 N571 0.985 . S
H576 N570 0.984 . S
H577 N570 0.984 . S
H578 N566 0.984 . S
H579 N566 0.985 . S
C580 C581 1.363 . S
C580 C586 1.379 . S
C580 N588 1.356 . S
C581 C580 1.363 . S
C581 C587 1.363 . S
C582 C583 1.363 . S
C582 C587 1.379 . S
C582 N589 1.356 . S
C583 C582 1.363 . S
C583 C586 1.363 . S
N584 C586 1.356 . S
N584 H596 0.984 . S
N584 H597 0.985 . S
N585 C587 1.356 . S
N585 H590 0.984 . S
N585 H591 0.985 . S
C586 C580 1.379 . S
C586 C583 1.363 . S
C586 N584 1.356 . S
C587 C581 1.363 . S
C587 C582 1.379 . S
C587 N585 1.356 . S
N588 C580 1.356 . S
N588 H594 0.984 . S
N588 H595 0.984 . S
N589 C582 1.356 . S
N589 H592 0.984 . S
N589 H593 0.985 . S
H590 N585 0.984 . S
H591 N585 0.985 . S
H592 N589 0.984 . S
H593 N589 0.985 . S
H594 N588 0.984 . S
H595 N588 0.984 . S
H596 N584 0.984 . S
H597 N584 0.985 . S
C598 C599 1.363 . S
C598 C604 1.379 . S
C598 N606 1.356 . S
C599 C598 1.363 . S
C599 C605 1.363 . S
C600 C601 1.363 . S
C600 C605 1.379 . S
C600 N607 1.356 . S
C601 C600 1.363 . S
C601 C604 1.363 . S
N602 C604 1.356 . S
N602 H614 0.984 . S
N602 H615 0.985 . S
N603 C605 1.356 . S
N603 H608 0.984 . S
N603 H609 0.985 . S
C604 C598 1.379 . S
C604 C601 1.363 . S
C604 N602 1.356 . S
C605 C599 1.363 . S
C605 C600 1.379 . S
C605 N603 1.356 . S
N606 C598 1.356 . S
N606 H612 0.984 . S
N606 H613 0.984 . S
N607 C600 1.356 . S
N607 H610 0.984 . S
N607 H611 0.985 . S
H608 N603 0.984 . S
H609 N603 0.985 . S
H610 N607 0.984 . S
H611 N607 0.985 . S
H612 N606 0.984 . S
H613 N606 0.984 . S
H614 N602 0.984 . S
H615 N602 0.985 . S
C616 C617 1.363 . S
C616 C622 1.379 . S
C616 N624 1.356 . S
C617 C616 1.363 . S
C617 C623 1.363 . S
C618 C619 1.363 . S
C618 C623 1.379 . S
C618 N625 1.356 . S
C619 C618 1.363 . S
C619 C622 1.363 . S
N620 C622 1.356 . S
N620 H632 0.984 . S
N620 H633 0.985 . S
N621 C623 1.356 . S
N621 H626 0.984 . S
N621 H627 0.985 . S
C622 C616 1.379 . S
C622 C619 1.363 . S
C622 N620 1.356 . S
C623 C617 1.363 . S
C623 C618 1.379 . S
C623 N621 1.356 . S
N624 C616 1.356 . S
N624 H630 0.984 . S
N624 H631 0.984 . S
N625 C618 1.356 . S
N625 H628 0.984 . S
N625 H629 0.985 . S
H626 N621 0.984 . S
H627 N621 0.985 . S
H628 N625 0.984 . S
H629 N625 0.985 . S
H630 N624 0.984 . S
H631 N624 0.984 . S
H632 N620 0.984 . S
H633 N620 0.985 . S
C634 C635 1.363 . S
C634 C640 1.379 . S
C634 N642 1.356 . S
C635 C634 1.363 . S
C635 C641 1.363 . S
C636 C637 1.363 . S
C636 C641 1.379 . S
C636 N643 1.356 . S
C637 C636 1.363 . S
C637 C640 1.363 . S
N638 C640 1.356 . S
N638 H650 0.984 . S
N638 H651 0.985 . S
N639 C641 1.356 . S
N639 H644 0.984 . S
N639 H645 0.985 . S
C640 C634 1.379 . S
C640 C637 1.363 . S
C640 N638 1.356 . S
C641 C635 1.363 . S
C641 C636 1.379 . S
C641 N639 1.356 . S
N642 C634 1.356 . S
N642 H648 0.984 . S
N642 H649 0.984 . S
N643 C636 1.356 . S
N643 H646 0.984 . S
N643 H647 0.985 . S
H644 N639 0.984 . S
H645 N639 0.985 . S
H646 N643 0.984 . S
H647 N643 0.985 . S
H648 N642 0.984 . S
H649 N642 0.984 . S
H650 N638 0.984 . S
H651 N638 0.985 . S
C652 C653 1.363 . S
C652 C658 1.379 . S
C652 N660 1.356 . S
C653 C652 1.363 . S
C653 C659 1.363 . S
C654 C655 1.363 . S
C654 C659 1.379 . S
C654 N661 1.356 . S
C655 C654 1.363 . S
C655 C658 1.363 . S
N656 C658 1.356 . S
N656 H668 0.984 . S
N656 H669 0.985 . S
N657 C659 1.356 . S
N657 H662 0.984 . S
N657 H663 0.985 . S
C658 C652 1.379 . S
C658 C655 1.363 . S
C658 N656 1.356 . S
C659 C653 1.363 . S
C659 C654 1.379 . S
C659 N657 1.356 . S
N660 C652 1.356 . S
N660 H666 0.984 . S
N660 H667 0.984 . S
N661 C654 1.356 . S
N661 H664 0.984 1_455 S
N661 H665 0.985 1_455 S
H662 N657 0.984 . S
H663 N657 0.985 . S
H664 N661 0.984 1_655 S
H665 N661 0.985 1_655 S
H666 N660 0.984 . S
H667 N660 0.984 . S
H668 N656 0.984 . S
H669 N656 0.985 . S
C670 C671 1.363 . S
C670 C676 1.379 . S
C670 N678 1.356 . S
C671 C670 1.363 . S
C671 C677 1.363 . S
C672 C673 1.363 . S
C672 C677 1.379 . S
C672 N679 1.356 . S
C673 C672 1.363 . S
C673 C676 1.363 . S
N674 C676 1.356 . S
N674 H686 0.984 . S
N674 H687 0.985 . S
N675 C677 1.356 . S
N675 H680 0.984 . S
N675 H681 0.985 . S
C676 C670 1.379 . S
C676 C673 1.363 . S
C676 N674 1.356 . S
C677 C671 1.363 . S
C677 C672 1.379 . S
C677 N675 1.356 . S
N678 C670 1.356 . S
N678 H684 0.984 . S
N678 H685 0.984 . S
N679 C672 1.356 . S
N679 H682 0.984 . S
N679 H683 0.985 . S
H680 N675 0.984 . S
H681 N675 0.985 . S
H682 N679 0.984 . S
H683 N679 0.985 . S
H684 N678 0.984 . S
H685 N678 0.984 . S
H686 N674 0.984 . S
H687 N674 0.985 . S
C688 C689 1.363 . S
C688 C694 1.379 . S
C688 N696 1.356 . S
C689 C688 1.363 . S
C689 C695 1.363 . S
C690 C691 1.363 . S
C690 C695 1.379 . S
C690 N697 1.356 . S
C691 C690 1.363 . S
C691 C694 1.363 . S
N692 C694 1.356 . S
N692 H704 0.984 . S
N692 H705 0.985 . S
N693 C695 1.356 . S
N693 H698 0.984 . S
N693 H699 0.985 . S
C694 C688 1.379 . S
C694 C691 1.363 . S
C694 N692 1.356 . S
C695 C689 1.363 . S
C695 C690 1.379 . S
C695 N693 1.356 . S
N696 C688 1.356 . S
N696 H702 0.984 . S
N696 H703 0.984 . S
N697 C690 1.356 . S
N697 H700 0.984 . S
N697 H701 0.985 . S
H698 N693 0.984 . S
H699 N693 0.985 . S
H700 N697 0.984 . S
H701 N697 0.985 . S
H702 N696 0.984 . S
H703 N696 0.984 . S
H704 N692 0.984 . S
H705 N692 0.985 . S
C706 C707 1.363 . S
C706 C712 1.379 . S
C706 N714 1.356 . S
C707 C706 1.363 . S
C707 C713 1.363 . S
C708 C709 1.363 . S
C708 C713 1.379 . S
C708 N715 1.356 . S
C709 C708 1.363 . S
C709 C712 1.363 . S
N710 C712 1.356 . S
N710 H722 0.984 . S
N710 H723 0.985 . S
N711 C713 1.356 . S
N711 H716 0.984 . S
N711 H717 0.985 . S
C712 C706 1.379 . S
C712 C709 1.363 . S
C712 N710 1.356 . S
C713 C707 1.363 . S
C713 C708 1.379 . S
C713 N711 1.356 . S
N714 C706 1.356 . S
N714 H720 0.984 . S
N714 H721 0.984 . S
N715 C708 1.356 . S
N715 H718 0.984 . S
N715 H719 0.985 1_565 S
H716 N711 0.984 . S
H717 N711 0.985 . S
H718 N715 0.984 . S
H719 N715 0.985 1_545 S
H720 N714 0.984 . S
H721 N714 0.984 . S
H722 N710 0.984 . S
H723 N710 0.985 . S
C724 C725 1.363 . S
C724 C730 1.379 . S
C724 N732 1.356 . S
C725 C724 1.363 . S
C725 C731 1.363 . S
C726 C727 1.363 . S
C726 C731 1.379 . S
C726 N733 1.356 . S
C727 C726 1.363 . S
C727 C730 1.363 . S
N728 C730 1.356 . S
N728 H740 0.984 . S
N728 H741 0.985 . S
N729 C731 1.356 . S
N729 H734 0.984 . S
N729 H735 0.985 . S
C730 C724 1.379 . S
C730 C727 1.363 . S
C730 N728 1.356 . S
C731 C725 1.363 . S
C731 C726 1.379 . S
C731 N729 1.356 . S
N732 C724 1.356 . S
N732 H738 0.984 . S
N732 H739 0.984 . S
N733 C726 1.356 . S
N733 H736 0.984 . S
N733 H737 0.985 . S
H734 N729 0.984 . S
H735 N729 0.985 . S
H736 N733 0.984 . S
H737 N733 0.985 . S
H738 N732 0.984 . S
H739 N732 0.984 . S
H740 N728 0.984 . S
H741 N728 0.985 . S
C742 C743 1.363 . S
C742 C748 1.379 . S
C742 N750 1.356 . S
C743 C742 1.363 . S
C743 C749 1.363 . S
C744 C745 1.363 . S
C744 C749 1.379 . S
C744 N751 1.356 . S
C745 C744 1.363 . S
C745 C748 1.363 . S
N746 C748 1.356 . S
N746 H758 0.984 . S
N746 H759 0.985 . S
N747 C749 1.356 . S
N747 H752 0.984 . S
N747 H753 0.985 . S
C748 C742 1.379 . S
C748 C745 1.363 . S
C748 N746 1.356 . S
C749 C743 1.363 . S
C749 C744 1.379 . S
C749 N747 1.356 . S
N750 C742 1.356 . S
N750 H756 0.984 . S
N750 H757 0.984 . S
N751 C744 1.356 . S
N751 H754 0.984 . S
N751 H755 0.985 . S
H752 N747 0.984 . S
H753 N747 0.985 . S
H754 N751 0.984 . S
H755 N751 0.985 . S
H756 N750 0.984 . S
H757 N750 0.984 . S
H758 N746 0.984 . S
H759 N746 0.985 . S
C760 C761 1.363 . S
C760 C766 1.379 . S
C760 N768 1.356 . S
C761 C760 1.363 . S
C761 C767 1.363 . S
C762 C763 1.363 . S
C762 C767 1.379 . S
C762 N769 1.356 . S
C763 C762 1.363 . S
C763 C766 1.363 . S
N764 C766 1.356 . S
N764 H776 0.984 . S
N764 H777 0.985 . S
N765 C767 1.356 . S
N765 H770 0.984 . S
N765 H771 0.985 . S
C766 C760 1.379 . S
C766 C763 1.363 . S
C766 N764 1.356 . S
C767 C761 1.363 . S
C767 C762 1.379 . S
C767 N765 1.356 . S
N768 C760 1.356 . S
N768 H774 0.984 . S
N768 H775 0.984 . S
N769 C762 1.356 . S
N769 H772 0.984 . S
N769 H773 0.985 . S
H770 N765 0.984 . S
H771 N765 0.985 . S
H772 N769 0.984 . S
H773 N769 0.985 . S
H774 N768 0.984 . S
H775 N768 0.984 . S
H776 N764 0.984 . S
H777 N764 0.985 . S
C778 C779 1.363 . S
C778 C784 1.379 . S
C778 N786 1.356 . S
C779 C778 1.363 . S
C779 C785 1.363 . S
C780 C781 1.363 . S
C780 C785 1.379 . S
C780 N787 1.356 . S
C781 C780 1.363 . S
C781 C784 1.363 . S
N782 C784 1.356 . S
N782 H794 0.984 . S
N782 H795 0.985 . S
N783 C785 1.356 . S
N783 H788 0.984 . S
N783 H789 0.985 . S
C784 C778 1.379 . S
C784 C781 1.363 . S
C784 N782 1.356 . S
C785 C779 1.363 . S
C785 C780 1.379 . S
C785 N783 1.356 . S
N786 C778 1.356 . S
N786 H792 0.984 . S
N786 H793 0.984 . S
N787 C780 1.356 . S
N787 H790 0.984 . S
N787 H791 0.985 . S
H788 N783 0.984 . S
H789 N783 0.985 . S
H790 N787 0.984 . S
H791 N787 0.985 . S
H792 N786 0.984 . S
H793 N786 0.984 . S
H794 N782 0.984 . S
H795 N782 0.985 . S
C796 C797 1.363 . S
C796 C802 1.379 . S
C796 N804 1.356 . S
C797 C796 1.363 . S
C797 C803 1.363 . S
C798 C799 1.363 . S
C798 C803 1.379 . S
C798 N805 1.356 . S
C799 C798 1.363 . S
C799 C802 1.363 . S
N800 C802 1.356 . S
N800 H812 0.984 . S
N800 H813 0.985 . S
N801 C803 1.356 . S
N801 H806 0.984 . S
N801 H807 0.985 . S
C802 C796 1.379 . S
C802 C799 1.363 . S
C802 N800 1.356 . S
C803 C797 1.363 . S
C803 C798 1.379 . S
C803 N801 1.356 . S
N804 C796 1.356 . S
N804 H810 0.984 . S
N804 H811 0.984 . S
N805 C798 1.356 . S
N805 H808 0.984 . S
N805 H809 0.985 . S
H806 N801 0.984 . S
H807 N801 0.985 . S
H808 N805 0.984 . S
H809 N805 0.985 . S
H810 N804 0.984 . S
H811 N804 0.984 . S
H812 N800 0.984 . S
H813 N800 0.985 . S
C814 C815 1.363 . S
C814 C820 1.379 . S
C814 N822 1.356 . S
C815 C814 1.363 . S
C815 C821 1.363 . S
C816 C817 1.363 . S
C816 C821 1.379 . S
C816 N823 1.356 . S
C817 C816 1.363 . S
C817 C820 1.363 . S
N818 C820 1.356 . S
N818 H830 0.984 . S
N818 H831 0.985 . S
N819 C821 1.356 . S
N819 H824 0.984 . S
N819 H825 0.985 . S
C820 C814 1.379 . S
C820 C817 1.363 . S
C820 N818 1.356 . S
C821 C815 1.363 . S
C821 C816 1.379 . S
C821 N819 1.356 . S
N822 C814 1.356 . S
N822 H828 0.984 . S
N822 H829 0.984 . S
N823 C816 1.356 . S
N823 H826 0.984 . S
N823 H827 0.985 . S
H824 N819 0.984 . S
H825 N819 0.985 . S
H826 N823 0.984 . S
H827 N823 0.985 . S
H828 N822 0.984 . S
H829 N822 0.984 . S
H830 N818 0.984 . S
H831 N818 0.985 . S
C832 C833 1.363 . S
C832 C838 1.379 . S
C832 N840 1.356 . S
C833 C832 1.363 . S
C833 C839 1.363 . S
C834 C835 1.363 . S
C834 C839 1.379 . S
C834 N841 1.356 . S
C835 C834 1.363 . S
C835 C838 1.363 . S
N836 C838 1.356 . S
N836 H848 0.984 . S
N836 H849 0.985 . S
N837 C839 1.356 . S
N837 H842 0.984 . S
N837 H843 0.985 . S
C838 C832 1.379 . S
C838 C835 1.363 . S
C838 N836 1.356 . S
C839 C833 1.363 . S
C839 C834 1.379 . S
C839 N837 1.356 . S
N840 C832 1.356 . S
N840 H846 0.984 . S
N840 H847 0.984 . S
N841 C834 1.356 . S
N841 H844 0.984 . S
N841 H845 0.985 . S
H842 N837 0.984 . S
H843 N837 0.985 . S
H844 N841 0.984 . S
H845 N841 0.985 . S
H846 N840 0.984 . S
H847 N840 0.984 . S
H848 N836 0.984 . S
H849 N836 0.985 . S
C850 C851 1.363 . S
C850 C856 1.379 . S
C850 N858 1.356 . S
C851 C850 1.363 . S
C851 C857 1.363 . S
C852 C853 1.363 . S
C852 C857 1.379 . S
C852 N859 1.356 . S
C853 C852 1.363 . S
C853 C856 1.363 . S
N854 C856 1.356 . S
N854 H866 0.984 . S
N854 H867 0.985 . S
N855 C857 1.356 . S
N855 H860 0.984 . S
N855 H861 0.985 . S
C856 C850 1.379 . S
C856 C853 1.363 . S
C856 N854 1.356 . S
C857 C851 1.363 . S
C857 C852 1.379 . S
C857 N855 1.356 . S
N858 C850 1.356 . S
N858 H864 0.984 . S
N858 H865 0.984 . S
N859 C852 1.356 . S
N859 H862 0.984 . S
N859 H863 0.985 . S
H860 N855 0.984 . S
H861 N855 0.985 . S
H862 N859 0.984 . S
H863 N859 0.985 . S
H864 N858 0.984 . S
H865 N858 0.984 . S
H866 N854 0.984 . S
H867 N854 0.985 . S
C868 C869 1.363 . S
C868 C874 1.379 . S
C868 N876 1.356 . S
C869 C868 1.363 . S
C869 C875 1.363 . S
C870 C871 1.363 . S
C870 C875 1.379 . S
C870 N877 1.356 . S
C871 C870 1.363 . S
C871 C874 1.363 . S
N872 C874 1.356 . S
N872 H884 0.984 . S
N872 H885 0.985 . S
N873 C875 1.356 . S
N873 H878 0.984 . S
N873 H879 0.985 . S
C874 C868 1.379 . S
C874 C871 1.363 . S
C874 N872 1.356 . S
C875 C869 1.363 . S
C875 C870 1.379 . S
C875 N873 1.356 . S
N876 C868 1.356 . S
N876 H882 0.984 . S
N876 H883 0.984 . S
N877 C870 1.356 . S
N877 H880 0.984 . S
N877 H881 0.985 . S
H878 N873 0.984 . S
H879 N873 0.985 . S
H880 N877 0.984 . S
H881 N877 0.985 . S
H882 N876 0.984 . S
H883 N876 0.984 . S
H884 N872 0.984 . S
H885 N872 0.985 . S
C886 C887 1.363 . S
C886 C892 1.379 . S
C886 N894 1.356 . S
C887 C886 1.363 . S
C887 C893 1.363 . S
C888 C889 1.363 . S
C888 C893 1.379 . S
C888 N895 1.356 . S
C889 C888 1.363 . S
C889 C892 1.363 . S
N890 C892 1.356 . S
N890 H902 0.984 . S
N890 H903 0.985 . S
N891 C893 1.356 . S
N891 H896 0.984 . S
N891 H897 0.985 . S
C892 C886 1.379 . S
C892 C889 1.363 . S
C892 N890 1.356 . S
C893 C887 1.363 . S
C893 C888 1.379 . S
C893 N891 1.356 . S
N894 C886 1.356 . S
N894 H900 0.984 . S
N894 H901 0.984 . S
N895 C888 1.356 . S
N895 H898 0.984 . S
N895 H899 0.985 . S
H896 N891 0.984 . S
H897 N891 0.985 . S
H898 N895 0.984 . S
H899 N895 0.985 . S
H900 N894 0.984 . S
H901 N894 0.984 . S
H902 N890 0.984 . S
H903 N890 0.985 . S
C904 C905 1.363 . S
C904 C910 1.379 . S
C904 N912 1.356 . S
C905 C904 1.363 . S
C905 C911 1.363 . S
C906 C907 1.363 . S
C906 C911 1.379 . S
C906 N913 1.356 . S
C907 C906 1.363 . S
C907 C910 1.363 . S
N908 C910 1.356 . S
N908 H920 0.984 . S
N908 H921 0.985 . S
N909 C911 1.356 . S
N909 H914 0.984 . S
N909 H915 0.985 . S
C910 C904 1.379 . S
C910 C907 1.363 . S
C910 N908 1.356 . S
C911 C905 1.363 . S
C911 C906 1.379 . S
C911 N909 1.356 . S
N912 C904 1.356 . S
N912 H918 0.984 . S
N912 H919 0.984 . S
N913 C906 1.356 . S
N913 H916 0.984 . S
N913 H917 0.985 . S
H914 N909 0.984 . S
H915 N909 0.985 . S
H916 N913 0.984 . S
H917 N913 0.985 . S
H918 N912 0.984 . S
H919 N912 0.984 . S
H920 N908 0.984 . S
H921 N908 0.985 . S
C922 C923 1.363 . S
C922 C928 1.379 . S
C922 N930 1.356 . S
C923 C922 1.363 . S
C923 C929 1.363 . S
C924 C925 1.363 . S
C924 C929 1.379 . S
C924 N931 1.356 . S
C925 C924 1.363 . S
C925 C928 1.363 . S
N926 C928 1.356 . S
N926 H938 0.984 . S
N926 H939 0.985 . S
N927 C929 1.356 . S
N927 H932 0.984 . S
N927 H933 0.985 . S
C928 C922 1.379 . S
C928 C925 1.363 . S
C928 N926 1.356 . S
C929 C923 1.363 . S
C929 C924 1.379 . S
C929 N927 1.356 . S
N930 C922 1.356 . S
N930 H936 0.984 . S
N930 H937 0.984 . S
N931 C924 1.356 . S
N931 H934 0.984 . S
N931 H935 0.985 . S
H932 N927 0.984 . S
H933 N927 0.985 . S
H934 N931 0.984 . S
H935 N931 0.985 . S
H936 N930 0.984 . S
H937 N930 0.984 . S
H938 N926 0.984 . S
H939 N926 0.985 . S
C940 C941 1.363 . S
C940 C946 1.379 . S
C940 N948 1.356 . S
C941 C940 1.363 . S
C941 C947 1.363 . S
C942 C943 1.363 . S
C942 C947 1.379 . S
C942 N949 1.356 . S
C943 C942 1.363 . S
C943 C946 1.363 . S
N944 C946 1.356 . S
N944 H956 0.984 . S
N944 H957 0.985 . S
N945 C947 1.356 . S
N945 H950 0.984 . S
N945 H951 0.985 . S
C946 C940 1.379 . S
C946 C943 1.363 . S
C946 N944 1.356 . S
C947 C941 1.363 . S
C947 C942 1.379 . S
C947 N945 1.356 . S
N948 C940 1.356 . S
N948 H954 0.984 . S
N948 H955 0.984 . S
N949 C942 1.356 . S
N949 H952 0.989 . S
N949 H953 0.985 1_565 S
H950 N945 0.984 . S
H951 N945 0.985 . S
H952 N949 0.989 . S
H953 N949 0.985 1_545 S
H954 N948 0.984 . S
H955 N948 0.984 . S
H956 N944 0.984 . S
H957 N944 0.985 . S
C958 C959 1.363 . S
C958 C964 1.379 . S
C958 N966 1.356 . S
C959 C958 1.363 . S
C959 C965 1.363 . S
C960 C961 1.363 . S
C960 C965 1.379 . S
C960 N967 1.356 . S
C961 C960 1.363 . S
C961 C964 1.363 . S
N962 C964 1.356 . S
N962 H974 0.984 . S
N962 H975 0.985 . S
N963 C965 1.356 . S
N963 H968 0.984 . S
N963 H969 0.985 . S
C964 C958 1.379 . S
C964 C961 1.363 . S
C964 N962 1.356 . S
C965 C959 1.363 . S
C965 C960 1.379 . S
C965 N963 1.356 . S
N966 C958 1.356 . S
N966 H972 0.984 . S
N966 H973 0.984 . S
N967 C960 1.356 . S
N967 H970 0.984 . S
N967 H971 0.985 . S
H968 N963 0.984 . S
H969 N963 0.985 . S
H970 N967 0.984 . S
H971 N967 0.985 . S
H972 N966 0.984 . S
H973 N966 0.984 . S
H974 N962 0.984 . S
H975 N962 0.985 . S
C976 C977 1.363 . S
C976 C982 1.379 . S
C976 N984 1.356 . S
C977 C976 1.363 . S
C977 C983 1.363 . S
C978 C979 1.363 . S
C978 C983 1.379 . S
C978 N985 1.356 . S
C979 C978 1.363 . S
C979 C982 1.363 . S
N980 C982 1.356 . S
N980 H992 0.984 . S
N980 H993 0.985 . S
N981 C983 1.356 . S
N981 H986 0.984 . S
N981 H987 0.985 . S
C982 C976 1.379 . S
C982 C979 1.363 . S
C982 N980 1.356 . S
C983 C977 1.363 . S
C983 C978 1.379 . S
C983 N981 1.356 . S
N984 C976 1.356 . S
N984 H990 0.984 . S
N984 H991 0.984 . S
N985 C978 1.356 . S
N985 H988 0.984 . S
N985 H989 0.985 . S
H986 N981 0.984 . S
H987 N981 0.985 . S
H988 N985 0.984 . S
H989 N985 0.985 . S
H990 N984 0.984 . S
H991 N984 0.984 . S
H992 N980 0.984 . S
H993 N980 0.985 . S
C994 C995 1.363 . S
C994 C1000 1.379 . S
C994 N1002 1.356 . S
C995 C994 1.363 . S
C995 C1001 1.363 . S
C996 C997 1.363 . S
C996 C1001 1.379 . S
C996 N1003 1.356 . S
C997 C996 1.363 . S
C997 C1000 1.363 . S
N998 C1000 1.356 . S
N998 H1010 0.984 . S
N998 H1011 0.985 . S
N999 C1001 1.356 . S
N999 H1004 0.984 . S
N999 H1005 0.985 . S
C1000 C994 1.379 . S
C1000 C997 1.363 . S
C1000 N998 1.356 . S
C1001 C995 1.363 . S
C1001 C996 1.379 . S
C1001 N999 1.356 . S
N1002 C994 1.356 . S
N1002 H1008 0.984 . S
N1002 H1009 0.984 . S
N1003 C996 1.356 . S
N1003 H1006 0.984 . S
N1003 H1007 0.985 . S
H1004 N999 0.984 . S
H1005 N999 0.985 . S
H1006 N1003 0.984 . S
H1007 N1003 0.985 . S
H1008 N1002 0.984 . S
H1009 N1002 0.984 . S
H1010 N998 0.984 . S
H1011 N998 0.985 . S
C1012 C1013 1.363 . S
C1012 C1018 1.379 . S
C1012 N1020 1.356 . S
C1013 C1012 1.363 . S
C1013 C1019 1.363 . S
C1014 C1015 1.363 . S
C1014 C1019 1.379 . S
C1014 N1021 1.356 . S
C1015 C1014 1.363 . S
C1015 C1018 1.363 . S
N1016 C1018 1.356 . S
N1016 H1028 0.984 . S
N1016 H1029 0.985 . S
N1017 C1019 1.356 . S
N1017 H1022 0.984 . S
N1017 H1023 0.985 . S
C1018 C1012 1.379 . S
C1018 C1015 1.363 . S
C1018 N1016 1.356 . S
C1019 C1013 1.363 . S
C1019 C1014 1.379 . S
C1019 N1017 1.356 . S
N1020 C1012 1.356 . S
N1020 H1026 0.984 . S
N1020 H1027 0.984 . S
N1021 C1014 1.356 . S
N1021 H1024 0.984 . S
N1021 H1025 0.985 . S
H1022 N1017 0.984 . S
H1023 N1017 0.985 . S
H1024 N1021 0.984 . S
H1025 N1021 0.985 . S
H1026 N1020 0.984 . S
H1027 N1020 0.984 . S
H1028 N1016 0.984 . S
H1029 N1016 0.985 . S
C1030 C1031 1.363 . S
C1030 C1036 1.379 . S
C1030 N1038 1.356 . S
C1031 C1030 1.363 . S
C1031 C1037 1.363 . S
C1032 C1033 1.363 . S
C1032 C1037 1.379 . S
C1032 N1039 1.356 . S
C1033 C1032 1.363 . S
C1033 C1036 1.363 . S
N1034 C1036 1.356 . S
N1034 H1046 0.984 . S
N1034 H1047 0.985 . S
N1035 C1037 1.356 . S
N1035 H1040 0.984 . S
N1035 H1041 0.985 . S
C1036 C1030 1.379 . S
C1036 C1033 1.363 . S
C1036 N1034 1.356 . S
C1037 C1031 1.363 . S
C1037 C1032 1.379 . S
C1037 N1035 1.356 . S
N1038 C1030 1.356 . S
N1038 H1044 0.984 . S
N1038 H1045 0.984 . S
N1039 C1032 1.356 . S
N1039 H1042 0.984 . S
N1039 H1043 0.985 . S
H1040 N1035 0.984 . S
H1041 N1035 0.985 . S
H1042 N1039 0.984 . S
H1043 N1039 0.985 . S
H1044 N1038 0.984 . S
H1045 N1038 0.984 . S
H1046 N1034 0.984 . S
H1047 N1034 0.985 . S
C1048 C1049 1.363 . S
C1048 C1054 1.379 . S
C1048 N1056 1.356 . S
C1049 C1048 1.363 . S
C1049 C1055 1.363 . S
C1050 C1051 1.363 . S
C1050 C1055 1.379 . S
C1050 N1057 1.356 . S
C1051 C1050 1.363 . S
C1051 C1054 1.363 . S
N1052 C1054 1.356 . S
N1052 H1064 0.984 . S
N1052 H1065 0.985 . S
N1053 C1055 1.356 . S
N1053 H1058 0.984 . S
N1053 H1059 0.985 . S
C1054 C1048 1.379 . S
C1054 C1051 1.363 . S
C1054 N1052 1.356 . S
C1055 C1049 1.363 . S
C1055 C1050 1.379 . S
C1055 N1053 1.356 . S
N1056 C1048 1.356 . S
N1056 H1062 0.984 . S
N1056 H1063 0.984 . S
N1057 C1050 1.356 . S
N1057 H1060 0.984 . S
N1057 H1061 0.985 . S
H1058 N1053 0.984 . S
H1059 N1053 0.985 . S
H1060 N1057 0.984 . S
H1061 N1057 0.985 . S
H1062 N1056 0.984 . S
H1063 N1056 0.984 . S
H1064 N1052 0.984 . S
H1065 N1052 0.985 . S
C1066 C1067 1.363 . S
C1066 C1072 1.379 . S
C1066 N1074 1.356 . S
C1067 C1066 1.363 . S
C1067 C1073 1.363 . S
C1068 C1069 1.363 . S
C1068 C1073 1.379 . S
C1068 N1075 1.356 . S
C1069 C1068 1.363 . S
C1069 C1072 1.363 . S
N1070 C1072 1.356 . S
N1070 H1082 0.984 . S
N1070 H1083 0.985 . S
N1071 C1073 1.356 . S
N1071 H1076 0.984 . S
N1071 H1077 0.985 . S
C1072 C1066 1.379 . S
C1072 C1069 1.363 . S
C1072 N1070 1.356 . S
C1073 C1067 1.363 . S
C1073 C1068 1.379 . S
C1073 N1071 1.356 . S
N1074 C1066 1.356 . S
N1074 H1080 0.984 . S
N1074 H1081 0.984 . S
N1075 C1068 1.356 . S
N1075 H1078 0.984 . S
N1075 H1079 0.985 . S
H1076 N1071 0.984 . S
H1077 N1071 0.985 . S
H1078 N1075 0.984 . S
H1079 N1075 0.985 . S
H1080 N1074 0.984 . S
H1081 N1074 0.984 . S
H1082 N1070 0.984 . S
H1083 N1070 0.985 . S
C1084 C1085 1.363 . S
C1084 C1090 1.379 . S
C1084 N1092 1.356 . S
C1085 C1084 1.363 . S
C1085 C1091 1.363 . S
C1086 C1087 1.363 . S
C1086 C1091 1.379 . S
C1086 N1093 1.356 . S
C1087 C1086 1.363 . S
C1087 C1090 1.363 . S
N1088 C1090 1.356 . S
N1088 H1100 0.984 . S
N1088 H1101 0.985 . S
N1089 C1091 1.356 . S
N1089 H1094 0.984 . S
N1089 H1095 0.985 . S
C1090 C1084 1.379 . S
C1090 C1087 1.363 . S
C1090 N1088 1.356 . S
C1091 C1085 1.363 . S
C1091 C1086 1.379 . S
C1091 N1089 1.356 . S
N1092 C1084 1.356 . S
N1092 H1098 0.984 . S
N1092 H1099 0.984 . S
N1093 C1086 1.356 . S
N1093 H1096 0.984 . S
N1093 H1097 0.985 . S
H1094 N1089 0.984 . S
H1095 N1089 0.985 . S
H1096 N1093 0.984 . S
H1097 N1093 0.985 . S
H1098 N1092 0.984 . S
H1099 N1092 0.984 . S
H1100 N1088 0.984 . S
H1101 N1088 0.985 . S
C1102 C1103 1.363 . S
C1102 C1108 1.379 . S
C1102 N1110 1.356 . S
C1103 C1102 1.363 . S
C1103 C1109 1.363 . S
C1104 C1105 1.363 . S
C1104 C1109 1.379 . S
C1104 N1111 1.356 . S
C1105 C1104 1.363 . S
C1105 C1108 1.363 . S
N1106 C1108 1.356 . S
N1106 H1118 0.984 . S
N1106 H1119 0.985 . S
N1107 C1109 1.356 . S
N1107 H1112 0.984 . S
N1107 H1113 0.985 . S
C1108 C1102 1.379 . S
C1108 C1105 1.363 . S
C1108 N1106 1.356 . S
C1109 C1103 1.363 . S
C1109 C1104 1.379 . S
C1109 N1107 1.356 . S
N1110 C1102 1.356 . S
N1110 H1116 0.984 . S
N1110 H1117 0.984 . S
N1111 C1104 1.356 . S
N1111 H1114 0.984 . S
N1111 H1115 0.985 . S
H1112 N1107 0.984 . S
H1113 N1107 0.985 . S
H1114 N1111 0.984 . S
H1115 N1111 0.985 . S
H1116 N1110 0.984 . S
H1117 N1110 0.984 . S
H1118 N1106 0.984 . S
H1119 N1106 0.985 . S
C1120 C1121 1.363 . S
C1120 C1126 1.379 . S
C1120 N1128 1.356 . S
C1121 C1120 1.363 . S
C1121 C1127 1.363 . S
C1122 C1123 1.363 . S
C1122 C1127 1.379 . S
C1122 N1129 1.356 . S
C1123 C1122 1.363 . S
C1123 C1126 1.363 . S
N1124 C1126 1.356 . S
N1124 H1136 0.984 . S
N1124 H1137 0.985 . S
N1125 C1127 1.356 . S
N1125 H1130 0.984 . S
N1125 H1131 0.985 . S
C1126 C1120 1.379 . S
C1126 C1123 1.363 . S
C1126 N1124 1.356 . S
C1127 C1121 1.363 . S
C1127 C1122 1.379 . S
C1127 N1125 1.356 . S
N1128 C1120 1.356 . S
N1128 H1134 0.984 . S
N1128 H1135 0.984 . S
N1129 C1122 1.356 . S
N1129 H1132 0.984 . S
N1129 H1133 0.985 . S
H1130 N1125 0.984 . S
H1131 N1125 0.985 . S
H1132 N1129 0.984 . S
H1133 N1129 0.985 . S
H1134 N1128 0.984 . S
H1135 N1128 0.984 . S
H1136 N1124 0.984 . S
H1137 N1124 0.985 . S
C1138 C1139 1.363 . S
C1138 C1144 1.379 . S
C1138 N1146 1.356 . S
C1139 C1138 1.363 . S
C1139 C1145 1.363 . S
C1140 C1141 1.363 . S
C1140 C1145 1.379 . S
C1140 N1147 1.356 . S
C1141 C1140 1.363 . S
C1141 C1144 1.363 . S
N1142 C1144 1.356 . S
N1142 H1154 0.984 . S
N1142 H1155 0.985 . S
N1143 C1145 1.356 . S
N1143 H1148 0.984 . S
N1143 H1149 0.985 . S
C1144 C1138 1.379 . S
C1144 C1141 1.363 . S
C1144 N1142 1.356 . S
C1145 C1139 1.363 . S
C1145 C1140 1.379 . S
C1145 N1143 1.356 . S
N1146 C1138 1.356 . S
N1146 H1152 0.984 . S
N1146 H1153 0.984 . S
N1147 C1140 1.356 . S
N1147 H1150 0.984 . S
N1147 H1151 0.985 . S
H1148 N1143 0.984 . S
H1149 N1143 0.985 . S
H1150 N1147 0.984 . S
H1151 N1147 0.985 . S
H1152 N1146 0.984 . S
H1153 N1146 0.984 . S
H1154 N1142 0.984 . S
H1155 N1142 0.985 . S
C1156 C1157 1.363 . S
C1156 C1162 1.379 . S
C1156 N1164 1.356 . S
C1157 C1156 1.363 . S
C1157 C1163 1.363 . S
C1158 C1159 1.363 . S
C1158 C1163 1.379 . S
C1158 N1165 1.356 . S
C1159 C1158 1.363 . S
C1159 C1162 1.363 . S
N1160 C1162 1.356 . S
N1160 H1172 0.984 . S
N1160 H1173 0.985 . S
N1161 C1163 1.356 . S
N1161 H1166 0.984 . S
N1161 H1167 0.985 . S
C1162 C1156 1.379 . S
C1162 C1159 1.363 . S
C1162 N1160 1.356 . S
C1163 C1157 1.363 . S
C1163 C1158 1.379 . S
C1163 N1161 1.356 . S
N1164 C1156 1.356 . S
N1164 H1170 0.984 . S
N1164 H1171 0.984 . S
N1165 C1158 1.356 . S
N1165 H1168 0.984 . S
N1165 H1169 0.985 . S
H1166 N1161 0.984 . S
H1167 N1161 0.985 . S
H1168 N1165 0.984 . S
H1169 N1165 0.985 . S
H1170 N1164 0.984 . S
H1171 N1164 0.984 . S
H1172 N1160 0.984 . S
H1173 N1160 0.985 . S
C1174 C1175 1.363 . S
C1174 C1180 1.379 . S
C1174 N1182 1.356 . S
C1175 C1174 1.363 . S
C1175 C1181 1.363 . S
C1176 C1177 1.363 . S
C1176 C1181 1.379 . S
C1176 N1183 1.356 . S
C1177 C1176 1.363 . S
C1177 C1180 1.363 . S
N1178 C1180 1.356 . S
N1178 H1190 0.984 . S
N1178 H1191 0.985 . S
N1179 C1181 1.356 . S
N1179 H1184 0.984 . S
N1179 H1185 0.985 . S
C1180 C1174 1.379 . S
C1180 C1177 1.363 . S
C1180 N1178 1.356 . S
C1181 C1175 1.363 . S
C1181 C1176 1.379 . S
C1181 N1179 1.356 . S
N1182 C1174 1.356 . S
N1182 H1188 0.984 . S
N1182 H1189 0.984 . S
N1183 C1176 1.356 . S
N1183 H1186 0.984 . S
N1183 H1187 0.985 . S
H1184 N1179 0.984 . S
H1185 N1179 0.985 . S
H1186 N1183 0.984 . S
H1187 N1183 0.985 . S
H1188 N1182 0.984 . S
H1189 N1182 0.984 . S
H1190 N1178 0.984 . S
H1191 N1178 0.985 . S
C1192 C1193 1.363 . S
C1192 C1198 1.379 . S
C1192 N1200 1.356 . S
C1193 C1192 1.363 . S
C1193 C1199 1.363 . S
C1194 C1195 1.363 . S
C1194 C1199 1.379 . S
C1194 N1201 1.356 . S
C1195 C1194 1.363 . S
C1195 C1198 1.363 . S
N1196 C1198 1.356 . S
N1196 H1208 0.984 . S
N1196 H1209 0.985 . S
N1197 C1199 1.356 . S
N1197 H1202 0.984 . S
N1197 H1203 0.985 . S
C1198 C1192 1.379 . S
C1198 C1195 1.363 . S
C1198 N1196 1.356 . S
C1199 C1193 1.363 . S
C1199 C1194 1.379 . S
C1199 N1197 1.356 . S
N1200 C1192 1.356 . S
N1200 H1206 0.984 . S
N1200 H1207 0.984 . S
N1201 C1194 1.356 . S
N1201 H1204 0.984 . S
N1201 H1205 0.985 . S
H1202 N1197 0.984 . S
H1203 N1197 0.985 . S
H1204 N1201 0.984 . S
H1205 N1201 0.985 . S
H1206 N1200 0.984 . S
H1207 N1200 0.984 . S
H1208 N1196 0.984 . S
H1209 N1196 0.985 . S
C349 C171 2.205 . S
C347 C19 2.177 . S
C367 C161 1.610 . S
C365 C24 1.559 . S
C385 C162 1.182 . S
C383 C59 1.179 . S
C401 C69 1.360 . S
C403 C184 1.370 . S
C419 C82 1.558 . S
C421 C187 1.609 . S
C439 C170 1.182 . S
C437 C118 1.178 . S
C455 C132 1.360 . S
C457 C160 1.372 . S
C473 C158 2.177 . S
C475 C178 2.205 . S
C493 C191 1.695 . S
C491 C4 1.569 . S
C509 C29 1.026 . S
C511 C240 1.010 . S
C529 C218 1.623 . S
C527 C44 1.518 . S
C547 C232 1.150 . S
C545 C79 1.180 . S
C563 C98 1.172 . S
C565 C193 1.172 . S
C583 C246 1.382 . S
C581 C112 1.350 . S
C599 C122 1.256 . S
C601 C202 1.273 . S
C617 C152 1.309 . S
C619 C223 1.365 . S
C635 C9 1.309 . S
C637 C249 1.364 . S
C653 C92 1.026 . S
C655 C233 1.010 . S
C673 C192 1.623 . S
C671 C102 1.518 . S
C691 C224 1.150 . S
C689 C138 1.181 . S
C707 C142 1.569 . S
C709 C215 1.695 . S
C725 C49 1.351 . S
C727 C222 1.383 . S
C745 C209 1.273 . S
C743 C64 1.256 . S
C761 C39 1.172 . S
C763 C201 1.172 . S
C779 C159 2.177 . S
C781 C264 2.205 . S
C797 C84 1.558 . S
C799 C254 1.610 . S
C817 C255 1.182 . S
C815 C119 1.179 . S
C835 C277 1.371 . S
C833 C129 1.360 . S
C851 C22 1.558 . S
C853 C280 1.610 . S
C871 C263 1.182 . S
C869 C58 1.179 . S
C887 C72 1.360 . S
C889 C253 1.371 . S
C905 C18 2.177 . S
C907 C271 2.205 . S
C923 C144 1.569 . S
C925 C284 1.697 . S
C943 C333 1.010 . S
C941 C89 1.026 . S
C959 C104 1.518 . S
C961 C311 1.622 . S
C977 C139 1.181 . S
C979 C325 1.150 . S
C997 C286 1.172 . S
C995 C38 1.172 . S
C1013 C52 1.351 . S
C1015 C339 1.382 . S
C1033 C295 1.273 . S
C1031 C62 1.256 . S
C1051 C316 1.365 . S
C1049 C12 1.309 . S
C1069 C342 1.365 . S
C1067 C149 1.309 . S
C1085 C32 1.026 . S
C1087 C326 1.010 . S
C1103 C42 1.518 . S
C1105 C285 1.624 . S
C1123 C317 1.150 . S
C1121 C78 1.181 . S
C1139 C2 1.569 . S
C1141 C308 1.694 . S
C1157 C109 1.351 . S
C1159 C315 1.382 . S
C1177 C302 1.273 . S
C1175 C124 1.256 . S
C1195 C294 1.172 . S
C1193 C99 1.172 . S
