# Generated by pormake.
# Topology rtl, (3,6)-cn, num edge types: 1
# Building blocks:
#     Node 0, Type 0, BuildingBlock: OLANEW_clean_sbu_2, # of connection points: 3
#     Node 1, Type 0, BuildingBlock: OLANEW_clean_sbu_2, # of connection points: 3
#     Node 2, Type 0, BuildingBlock: OLANEW_clean_sbu_2, # of connection points: 3
#     Node 3, Type 0, BuildingBlock: OLANEW_clean_sbu_2, # of connection points: 3
#     Node 4, Type 1, BuildingBlock: KUMBOL_clean_sbu_1, # of connection points: 6
#     Node 5, Type 1, BuildingBlock: KUMBOL_clean_sbu_1, # of connection points: 6
#     Edge 6, Type (0, 1), BuildingBlock: ZUJKAS_clean_linker_0, # of connection points: 2
#     Edge 7, Type (0, 1), BuildingBlock: ZUJKAS_clean_linker_0, # of connection points: 2
#     Edge 8, Type (0, 1), BuildingBlock: ZUJKAS_clean_linker_0, # of connection points: 2
#     Edge 9, Type (0, 1), BuildingBlock: ZUJKAS_clean_linker_0, # of connection points: 2
#     Edge 10, Type (0, 1), BuildingBlock: ZUJKAS_clean_linker_0, # of connection points: 2
#     Edge 11, Type (0, 1), BuildingBlock: ZUJKAS_clean_linker_0, # of connection points: 2
#     Edge 12, Type (0, 1), BuildingBlock: ZUJKAS_clean_linker_0, # of connection points: 2
#     Edge 13, Type (0, 1), BuildingBlock: ZUJKAS_clean_linker_0, # of connection points: 2
#     Edge 14, Type (0, 1), BuildingBlock: ZUJKAS_clean_linker_0, # of connection points: 2
#     Edge 15, Type (0, 1), BuildingBlock: ZUJKAS_clean_linker_0, # of connection points: 2
#     Edge 16, Type (0, 1), BuildingBlock: ZUJKAS_clean_linker_0, # of connection points: 2
#     Edge 17, Type (0, 1), BuildingBlock: ZUJKAS_clean_linker_0, # of connection points: 2
# Relax obj value: 0.041
# Max RMSD: 0.158
# Mean RMSD: 0.127
data_MOF--net-rtl--node1-OLANEW_clean_sbu_2--node2-KUMBOL_clean_sbu_1--edge1-ZUJKAS_clean_linker_0
_symmetry_space_group_name_H-M    P1
_symmetry_Int_Tables_number       1
_symmetry_cell_setting            triclinic
loop_
_symmetry_equiv_pos_as_xyz
'x, y, z'
_cell_length_a     47.810287
_cell_length_b     47.426808
_cell_length_c     36.503633
_cell_angle_alpha  78.341557
_cell_angle_beta   102.04908
_cell_angle_gamma 90.871658
loop_
_atom_site_label
_atom_site_type_symbol
_atom_site_fract_x
_atom_site_fract_y
_atom_site_fract_z
_atom_type_partial_charge
O0 O 0.22543 0.83814 0.99721 0.0
Cd1 Cd 0.25373 0.81478 0.05949 0.0
O2 O 0.22467 0.88105 0.01146 0.0
Cd3 Cd 0.23966 0.86711 0.07318 0.0
O4 O 0.22867 0.87269 0.12655 0.0
C5 C 0.20785 0.85886 0.13736 0.0
O6 O 0.19546 0.83987 0.118 0.0
C7 C 0.21893 0.86489 0.98716 0.0
C8 C 0.2907 0.7729 0.05004 0.0
O9 O 0.26588 0.76639 0.05673 0.0
O10 O 0.29818 0.79912 0.0483 0.0
O11 O 0.67034 0.73112 0.68496 0.0
Cd12 Cd 0.68853 0.75591 0.62897 0.0
O13 O 0.65591 0.70241 0.64562 0.0
Cd14 Cd 0.63526 0.66783 0.61905 0.0
O15 O 0.62642 0.64187 0.57494 0.0
C16 C 0.60463 0.64718 0.5476 0.0
O17 O 0.58626 0.66764 0.54712 0.0
C18 C 0.65727 0.70853 0.67833 0.0
C19 C 0.73625 0.79066 0.63778 0.0
O20 O 0.71081 0.80146 0.63085 0.0
O21 O 0.73919 0.76325 0.64237 0.0
O22 O 0.78726 0.1521 0.11192 0.0
Cd23 Cd 0.75665 0.16777 0.04838 0.0
O24 O 0.80344 0.11395 0.09627 0.0
Cd25 Cd 0.7839 0.12464 0.03542 0.0
O26 O 0.7885 0.12457 0.97719 0.0
C27 C 0.80303 0.10337 0.97383 0.0
O28 O 0.81248 0.08326 0.00433 0.0
C29 C 0.80253 0.12901 0.12114 0.0
C30 C 0.72183 0.21553 0.04433 0.0
O31 O 0.71409 0.18989 0.05619 0.0
O32 O 0.74608 0.2186 0.03444 0.0
O33 O 0.33609 0.30015 0.52161 0.0
Cd34 Cd 0.32121 0.2745 0.46908 0.0
O35 O 0.3221 0.34245 0.48478 0.0
Cd36 Cd 0.31755 0.32876 0.43018 0.0
O37 O 0.33088 0.33811 0.3752 0.0
C38 C 0.3573 0.3346 0.37578 0.0
O39 O 0.3745 0.32361 0.40852 0.0
C40 C 0.33185 0.32711 0.51776 0.0
C41 C 0.28016 0.2333 0.48371 0.0
O42 O 0.30692 0.22652 0.49281 0.0
O43 O 0.27282 0.25952 0.46781 0.0
C44 C 0.96131 0.08748 0.50645 0.0
C45 C 0.91163 0.07432 0.49114 0.0
C46 C 0.93985 0.06795 0.51233 0.0
C47 C 0.90549 0.10006 0.46372 0.0
C48 C 0.95517 0.11339 0.47906 0.0
C49 C 0.92718 0.1195 0.45764 0.0
N50 N 0.98839 0.08085 0.52702 0.0
C51 C 0.01008 0.0994 0.52259 0.0
C52 C 0.97742 0.13233 0.47381 0.0
C53 C 0.00497 0.12532 0.49573 0.0
Gd54 Gd 0.02635 0.97324 0.53579 0.0
Gd55 Gd 0.99438 0.03801 0.57291 0.0
N56 N 0.94637 0.04317 0.53926 0.0
C57 C 0.89021 0.05498 0.49878 0.0
C58 C 0.925 0.02573 0.54911 0.0
C59 C 0.89686 0.03083 0.52833 0.0
H60 H 0.92908 0.00855 0.57392 0.0
H61 H 0.88016 0.01653 0.53583 0.0
H62 H 0.09338 0.98905 0.57479 0.0
H63 H 0.03123 0.09427 0.54002 0.0
H64 H 0.13521 0.96456 0.6212 0.0
H65 H 0.86831 0.05906 0.48304 0.0
H66 H 0.88391 0.10532 0.44734 0.0
H67 H 0.97694 0.92311 0.52508 0.0
H68 H 0.97355 0.15242 0.45299 0.0
H69 H 0.02224 0.13994 0.49211 0.0
H70 H 0.1055 0.86746 0.65659 0.0
H71 H 0.92207 0.13927 0.43639 0.0
H72 H 0.01072 0.84379 0.59932 0.0
H73 H 0.97099 0.87175 0.55208 0.0
N74 N 0.01901 0.92439 0.55805 0.0
C75 C 0.04131 0.90933 0.58338 0.0
C76 C 0.99411 0.91123 0.54637 0.0
C77 C 0.01333 0.86637 0.58785 0.0
C78 C 0.99082 0.88209 0.56126 0.0
C79 C 0.03904 0.87989 0.5991 0.0
H80 H 0.06098 0.84235 0.63798 0.0
N81 N 0.06761 0.95212 0.57913 0.0
C82 C 0.06649 0.92347 0.59383 0.0
C83 C 0.11481 0.92366 0.63043 0.0
C84 C 0.08995 0.90856 0.62031 0.0
C85 C 0.09214 0.96669 0.58774 0.0
C86 C 0.11597 0.9528 0.61387 0.0
O87 O 0.99745 0.04158 0.5108 0.0
O88 O 0.98624 0.9967 0.50047 0.0
O89 O 0.05157 0.98353 0.49214 0.0
O90 O 0.02649 0.94508 0.49568 0.0
O91 O 0.97898 0.99265 0.59038 0.0
O92 O 0.97955 0.97364 0.53742 0.0
O93 O 0.0329 0.96805 0.59994 0.0
O94 O 0.03134 0.01313 0.6153 0.0
O95 O 0.9709 0.04334 0.61625 0.0
O96 O 0.00334 0.07346 0.60265 0.0
O97 O 0.04941 0.01577 0.53008 0.0
O98 O 0.04172 0.04064 0.57605 0.0
C99 C 0.98448 0.02468 0.48868 0.0
C100 C 0.97051 0.97352 0.56905 0.0
C101 C 0.0344 0.96726 0.43499 0.0
C102 C 0.04431 0.96221 0.37361 0.0
C103 C 0.00201 0.98925 0.376 0.0
C104 C 0.00949 0.98351 0.4159 0.0
C105 C 0.01928 0.97875 0.35491 0.0
C106 C 0.05164 0.95658 0.41388 0.0
C107 C 0.04301 0.96148 0.47687 0.0
C108 C 0.08773 0.87925 0.6361 0.0
C109 C 0.06236 0.86496 0.62553 0.0
H110 H 0.13325 0.91302 0.65083 0.0
C111 C 0.03888 0.98562 0.62394 0.0
C112 C 0.05656 0.03516 0.55156 0.0
C113 C 0.96285 0.09171 0.61927 0.0
C114 C 0.92833 0.11272 0.64765 0.0
C115 C 0.94054 0.13862 0.58872 0.0
C116 C 0.95946 0.11625 0.58963 0.0
C117 C 0.92509 0.13696 0.61754 0.0
C118 C 0.94717 0.09006 0.64812 0.0
C119 C 0.98259 0.06769 0.62079 0.0
H120 H 0.98283 0.00197 0.36137 0.0
H121 H 0.99593 0.99173 0.4318 0.0
H122 H 0.0132 0.98389 0.32398 0.0
H123 H 0.07061 0.94362 0.42895 0.0
H124 H 0.93796 0.15738 0.56569 0.0
H125 H 0.97148 0.11834 0.5673 0.0
H126 H 0.91051 0.15458 0.61619 0.0
H127 H 0.95014 0.07136 0.67137 0.0
C128 C 0.58303 0.56299 0.01664 0.0
C129 C 0.56513 0.61182 0.0084 0.0
C130 C 0.56299 0.58193 0.02136 0.0
C131 C 0.5868 0.62209 0.98877 0.0
C132 C 0.60576 0.57321 0.99892 0.0
C133 C 0.60711 0.60282 0.9841 0.0
N134 N 0.58072 0.53447 0.03045 0.0
C135 C 0.60168 0.51517 0.0307 0.0
C136 C 0.62665 0.55339 0.99724 0.0
C137 C 0.62483 0.52429 0.01374 0.0
Gd138 Gd 0.47735 0.49119 0.98233 0.0
Gd139 Gd 0.5408 0.52059 0.05693 0.0
N140 N 0.54259 0.57125 0.0409 0.0
C141 C 0.54611 0.63051 0.01681 0.0
C142 C 0.52581 0.58952 0.05216 0.0
C143 C 0.52675 0.61932 0.03947 0.0
H144 H 0.51178 0.58125 0.07123 0.0
H145 H 0.51282 0.63364 0.04762 0.0
H146 H 0.49036 0.42052 0.0032 0.0
H147 H 0.60004 0.49266 0.04321 0.0
H148 H 0.47011 0.37628 0.03571 0.0
H149 H 0.54701 0.65362 0.00735 0.0
H150 H 0.58855 0.64495 0.97814 0.0
H151 H 0.42418 0.54202 0.96022 0.0
H152 H 0.64448 0.56038 0.98387 0.0
H153 H 0.64112 0.50888 0.01317 0.0
H154 H 0.38732 0.41096 0.07057 0.0
H155 H 0.62414 0.61108 0.96979 0.0
H156 H 0.35984 0.51058 0.02266 0.0
H157 H 0.37924 0.54993 0.98018 0.0
N158 N 0.43213 0.49994 0.99485 0.0
C159 C 0.42066 0.47738 0.01556 0.0
C160 C 0.41672 0.52518 0.98028 0.0
C161 C 0.38001 0.50727 0.01481 0.0
C162 C 0.3909 0.52954 0.99089 0.0
C163 C 0.39446 0.48048 0.02651 0.0
H164 H 0.36314 0.45857 0.05656 0.0
N165 N 0.45891 0.44836 0.01153 0.0
C166 C 0.43416 0.4506 0.02345 0.0
C167 C 0.43539 0.39919 0.04734 0.0
C168 C 0.422 0.42616 0.04243 0.0
C169 C 0.47129 0.42203 0.01432 0.0
C170 C 0.4599 0.39707 0.03268 0.0
O171 O 0.54437 0.52008 0.99604 0.0
O172 O 0.49925 0.53178 0.96076 0.0
O173 O 0.48552 0.47147 0.93686 0.0
O174 O 0.44412 0.49119 0.93144 0.0
O175 O 0.49554 0.53772 0.0495 0.0
O176 O 0.47527 0.5384 0.98617 0.0
O177 O 0.49085 0.4687 0.04461 0.0
O178 O 0.50066 0.50522 0.07711 0.0
O179 O 0.56195 0.53687 0.10771 0.0
O180 O 0.56586 0.4913 0.10553 0.0
O181 O 0.52115 0.4701 0.99103 0.0
O182 O 0.54622 0.47437 0.0516 0.0
C183 C 0.52707 0.53396 0.96511 0.0
C184 C 0.47737 0.54871 0.01753 0.0
C185 C 0.46035 0.49102 0.8747 0.0
C186 C 0.4484 0.48636 0.80795 0.0
C187 C 0.47547 0.52709 0.82598 0.0
C188 C 0.47435 0.51667 0.86427 0.0
C189 C 0.46274 0.51196 0.79794 0.0
C190 C 0.44722 0.4761 0.8465 0.0
C191 C 0.4605 0.47861 0.91495 0.0
C192 C 0.39675 0.42939 0.0553 0.0
C193 C 0.38303 0.45653 0.04743 0.0
H194 H 0.42673 0.37986 0.06178 0.0
C195 C 0.48928 0.48029 0.07381 0.0
C196 C 0.54133 0.46156 0.02203 0.0
C197 C 0.59125 0.50518 0.1635 0.0
C198 C 0.60643 0.51506 0.22782 0.0
C199 C 0.62813 0.47505 0.21014 0.0
C200 C 0.61083 0.48174 0.17358 0.0
C201 C 0.62591 0.49146 0.23715 0.0
C202 C 0.58923 0.52193 0.19061 0.0
C203 C 0.57258 0.5114 0.12506 0.0
H204 H 0.48639 0.54683 0.81805 0.0
H205 H 0.48462 0.5284 0.88571 0.0
H206 H 0.46388 0.52037 0.76842 0.0
H207 H 0.43674 0.45608 0.85474 0.0
H208 H 0.64311 0.45688 0.21773 0.0
H209 H 0.61278 0.46857 0.15315 0.0
H210 H 0.63909 0.48524 0.26563 0.0
H211 H 0.57417 0.54007 0.18283 0.0
H212 H 0.28861 0.17525 0.51151 0.0
H213 H 0.25241 0.1393 0.52267 0.0
H214 H 0.18641 0.20604 0.48502 0.0
H215 H 0.22234 0.24198 0.47299 0.0
H216 H 0.21506 0.13397 0.57025 0.0
H217 H 0.15519 0.14822 0.4202 0.0
H218 H 0.18997 0.16314 0.43298 0.0
H219 H 0.15836 0.18128 0.43728 0.0
C220 C 0.26638 0.18228 0.50545 0.0
C221 C 0.25835 0.21148 0.4911 0.0
C222 C 0.24571 0.16169 0.51188 0.0
C223 C 0.21662 0.16987 0.50403 0.0
C224 C 0.20862 0.19908 0.49036 0.0
H225 H 0.07879 0.07729 0.58987 0.0
H226 H 0.11871 0.10817 0.57895 0.0
C227 C 0.22924 0.21965 0.48373 0.0
C228 C 0.1947 0.14798 0.5109 0.0
H229 H 0.13239 0.12137 0.4679 0.0
C230 C 0.19709 0.13107 0.54781 0.0
C231 C 0.17151 0.1438 0.48148 0.0
C232 C 0.16871 0.15985 0.44068 0.0
C233 C 0.17649 0.11072 0.55634 0.0
C234 C 0.15252 0.10764 0.52737 0.0
C235 C 0.15059 0.12394 0.49022 0.0
C236 C 0.12893 0.08802 0.53502 0.0
C237 C 0.18081 0.09254 0.5962 0.0
C238 C 0.12091 0.06672 0.51343 0.0
C239 C 0.09775 0.04923 0.5192 0.0
C240 C 0.08201 0.05275 0.54662 0.0
C241 C 0.09036 0.07389 0.56852 0.0
C242 C 0.11339 0.09147 0.56255 0.0
H243 H 0.20372 0.09101 0.61091 0.0
H244 H 0.16872 0.10258 0.61333 0.0
H245 H 0.17297 0.07043 0.59571 0.0
H246 H 0.13251 0.06374 0.49191 0.0
H247 H 0.09202 0.03318 0.50182 0.0
H248 H 0.34211 0.78109 0.02825 0.0
H249 H 0.37363 0.74475 0.01765 0.0
H250 H 0.31506 0.67857 0.04877 0.0
H251 H 0.2831 0.71483 0.05853 0.0
H252 H 0.40127 0.69897 0.06692 0.0
H253 H 0.32739 0.66156 0.94919 0.0
H254 H 0.32038 0.69394 0.96498 0.0
H255 H 0.31233 0.65929 0.99075 0.0
C256 C 0.33585 0.75881 0.03266 0.0
C257 C 0.31002 0.75087 0.04407 0.0
C258 C 0.3539 0.73807 0.02656 0.0
C259 C 0.34648 0.70899 0.0317 0.0
C260 C 0.32088 0.70096 0.0436 0.0
H261 H 0.45816 0.55987 0.07825 0.0
H262 H 0.42699 0.5998 0.07961 0.0
C263 C 0.30274 0.7217 0.04947 0.0
C264 C 0.36606 0.68692 0.02618 0.0
H265 H 0.36904 0.63167 0.97967 0.0
C266 C 0.39428 0.68443 0.04759 0.0
C267 C 0.35712 0.66824 0.00046 0.0
C268 C 0.32775 0.67105 0.97473 0.0
C269 C 0.41347 0.66319 0.04495 0.0
C270 C 0.404 0.64348 0.0209 0.0
C271 C 0.37613 0.64657 0.99847 0.0
C272 C 0.42248 0.61903 0.01956 0.0
C273 C 0.44376 0.66215 0.06783 0.0
C274 C 0.42955 0.61603 0.98505 0.0
C275 C 0.44727 0.59305 0.98415 0.0
C276 C 0.45806 0.57269 0.01773 0.0
C277 C 0.45048 0.57547 0.05203 0.0
C278 C 0.43276 0.59833 0.05289 0.0
H279 H 0.44991 0.68329 0.07534 0.0
H280 H 0.44555 0.64601 0.09491 0.0
H281 H 0.45921 0.65582 0.05185 0.0
H282 H 0.42167 0.63167 0.95894 0.0
H283 H 0.45283 0.5914 0.95735 0.0
H284 H 0.73626 0.84883 0.61158 0.0
H285 H 0.77748 0.87877 0.60374 0.0
H286 H 0.83423 0.80525 0.6563 0.0
H287 H 0.79298 0.77489 0.6628 0.0
H288 H 0.8224 0.89405 0.65041 0.0
H289 H 0.86033 0.83028 0.55781 0.0
H290 H 0.82627 0.82453 0.57152 0.0
H291 H 0.85863 0.80929 0.60398 0.0
C292 C 0.75752 0.83904 0.62172 0.0
C293 C 0.76133 0.8094 0.63745 0.0
C294 C 0.78109 0.8562 0.61718 0.0
C295 C 0.80898 0.84416 0.62852 0.0
C296 C 0.81291 0.81488 0.64617 0.0
H297 H 0.96036 0.95147 0.63987 0.0
H298 H 0.9221 0.9194 0.65586 0.0
C299 C 0.78931 0.79759 0.6502 0.0
C300 C 0.83374 0.86221 0.62113 0.0
H301 H 0.89059 0.86698 0.57711 0.0
C302 C 0.83731 0.88813 0.63437 0.0
C303 C 0.85294 0.85478 0.59958 0.0
C304 C 0.84923 0.82837 0.58205 0.0
C305 C 0.85946 0.90677 0.62674 0.0
C306 C 0.87923 0.89883 0.60634 0.0
C307 C 0.87566 0.87292 0.5931 0.0
C308 C 0.90312 0.91754 0.59711 0.0
C309 C 0.86081 0.9352 0.63952 0.0
C310 C 0.90596 0.92626 0.55895 0.0
C311 C 0.92814 0.94407 0.54988 0.0
C312 C 0.94787 0.9536 0.5788 0.0
C313 C 0.94527 0.94463 0.61701 0.0
C314 C 0.9233 0.92648 0.62613 0.0
H315 H 0.83982 0.94159 0.64434 0.0
H316 H 0.87661 0.93322 0.66697 0.0
H317 H 0.86752 0.95263 0.61811 0.0
H318 H 0.89073 0.91961 0.53605 0.0
H319 H 0.92947 0.95089 0.52014 0.0
H320 H 0.72736 0.27127 0.00887 0.0
H321 H 0.69643 0.31287 0.00474 0.0
H322 H 0.64392 0.25877 0.07125 0.0
H323 H 0.6742 0.21689 0.07439 0.0
H324 H 0.61163 0.29398 0.01192 0.0
H325 H 0.69459 0.35742 0.08671 0.0
H326 H 0.70412 0.34796 0.04568 0.0
H327 H 0.70039 0.32011 0.08581 0.0
C328 C 0.70929 0.26825 0.02273 0.0
C329 C 0.70331 0.24081 0.04213 0.0
C330 C 0.69172 0.29209 0.02056 0.0
C331 C 0.66818 0.28909 0.03835 0.0
C332 C 0.66205 0.26165 0.05746 0.0
H333 H 0.57746 0.4305 0.08487 0.0
H334 H 0.60711 0.38824 0.08838 0.0
C335 C 0.6794 0.23774 0.05927 0.0
C336 C 0.64955 0.31437 0.03639 0.0
H337 H 0.65038 0.38204 0.05529 0.0
C338 C 0.62008 0.31319 0.02156 0.0
C339 C 0.6605 0.33927 0.04952 0.0
C340 C 0.69157 0.34122 0.06819 0.0
C341 C 0.60132 0.33633 0.01908 0.0
C342 C 0.61247 0.3617 0.03071 0.0
C343 C 0.64188 0.36273 0.04595 0.0
C344 C 0.59397 0.38719 0.02823 0.0
C345 C 0.56969 0.33303 0.0049 0.0
C346 C 0.57687 0.40089 0.99315 0.0
C347 C 0.55958 0.42492 0.99111 0.0
C348 C 0.55948 0.43604 0.02401 0.0
C349 C 0.57701 0.42255 0.05895 0.0
C350 C 0.59401 0.39836 0.06103 0.0
H351 H 0.56395 0.30999 0.00815 0.0
H352 H 0.55682 0.34374 0.02049 0.0
H353 H 0.56371 0.34306 0.97403 0.0
H354 H 0.57707 0.39317 0.96725 0.0
H355 H 0.54658 0.43496 0.96367 0.0
H356 H 0.16469 0.83242 0.16878 0.0
H357 H 0.13973 0.84917 0.21284 0.0
H358 H 0.19673 0.92019 0.21826 0.0
H359 H 0.22192 0.90364 0.17424 0.0
H360 H 0.16199 0.86265 0.28995 0.0
H361 H 0.11286 0.95613 0.17728 0.0
H362 H 0.12812 0.92507 0.16622 0.0
H363 H 0.15106 0.95123 0.18536 0.0
C364 C 0.17218 0.8514 0.17969 0.0
C365 C 0.19516 0.86683 0.16772 0.0
C366 C 0.1579 0.8609 0.20489 0.0
C367 C 0.1662 0.88608 0.21833 0.0
C368 C 0.18986 0.90086 0.20782 0.0
H369 H 0.10297 0.95875 0.38762 0.0
H370 H 0.13303 0.93949 0.35129 0.0
C371 C 0.20428 0.89129 0.18279 0.0
C372 C 0.14913 0.89765 0.24173 0.0
H373 H 0.10258 0.95244 0.23849 0.0
C374 C 0.14908 0.88233 0.27885 0.0
C375 C 0.13208 0.92313 0.22685 0.0
C376 C 0.13073 0.93985 0.18666 0.0
C377 C 0.13252 0.89202 0.30169 0.0
C378 C 0.11571 0.91768 0.28693 0.0
C379 C 0.11563 0.93286 0.24972 0.0
C380 C 0.09756 0.92884 0.30938 0.0
C381 C 0.13264 0.87453 0.34113 0.0
C382 C 0.06769 0.92956 0.2975 0.0
C383 C 0.0504 0.94032 0.31834 0.0
C384 C 0.0627 0.95085 0.3513 0.0
C385 C 0.09273 0.95033 0.36284 0.0
C386 C 0.10998 0.93941 0.34208 0.0
H387 H 0.14239 0.85267 0.34547 0.0
H388 H 0.14518 0.88573 0.36283 0.0
H389 H 0.11052 0.87237 0.3462 0.0
H390 H 0.05773 0.92152 0.27226 0.0
H391 H 0.02739 0.94003 0.30888 0.0
H392 H 0.63962 0.72489 0.73752 0.0
H393 H 0.61683 0.69548 0.78574 0.0
H394 H 0.62196 0.62196 0.73437 0.0
H395 H 0.64485 0.65117 0.68629 0.0
H396 H 0.56879 0.62885 0.75095 0.0
H397 H 0.65558 0.63405 0.87661 0.0
H398 H 0.6423 0.66866 0.84866 0.0
H399 H 0.66039 0.64486 0.82804 0.0
C400 C 0.63597 0.70243 0.73655 0.0
C401 C 0.64368 0.6905 0.70765 0.0
C402 C 0.62304 0.68562 0.76423 0.0
C403 C 0.61791 0.65643 0.7639 0.0
C404 C 0.62559 0.64447 0.73509 0.0
H405 H 0.57783 0.52486 0.94622 0.0
H406 H 0.59915 0.55486 0.89692 0.0
C407 C 0.63846 0.66129 0.70735 0.0
C408 C 0.60428 0.63841 0.79328 0.0
H409 H 0.61241 0.61304 0.88953 0.0
C410 C 0.57833 0.62537 0.78125 0.0
C411 C 0.61692 0.63359 0.83278 0.0
C412 C 0.64546 0.64578 0.84738 0.0
C413 C 0.56454 0.6079 0.80766 0.0
C414 C 0.57683 0.60372 0.8472 0.0
C415 C 0.6029 0.61651 0.85922 0.0
C416 C 0.56344 0.58545 0.87657 0.0
C417 C 0.53728 0.59354 0.79301 0.0
C418 C 0.53632 0.59274 0.88161 0.0
C419 C 0.5242 0.57569 0.90998 0.0
C420 C 0.53915 0.55128 0.93399 0.0
C421 C 0.5661 0.54387 0.92858 0.0
C422 C 0.57823 0.5609 0.90032 0.0
H423 H 0.53434 0.5934 0.76204 0.0
H424 H 0.53714 0.571 0.80902 0.0
H425 H 0.51875 0.60544 0.79712 0.0
H426 H 0.52473 0.61184 0.864 0.0
H427 H 0.50342 0.58195 0.91368 0.0
H428 H 0.80702 0.15582 0.18213 0.0
H429 H 0.83794 0.1413 0.24585 0.0
H430 H 0.86839 0.0672 0.21245 0.0
H431 H 0.83791 0.08148 0.14893 0.0
H432 H 0.83971 0.08866 0.3005 0.0
H433 H 0.94219 0.10767 0.25219 0.0
H434 H 0.90827 0.12211 0.22277 0.0
H435 H 0.9185 0.08514 0.22656 0.0
C436 C 0.82028 0.13642 0.18836 0.0
C437 C 0.82011 0.11992 0.16031 0.0
C438 C 0.83791 0.12818 0.22475 0.0
C439 C 0.85579 0.10348 0.23355 0.0
C440 C 0.85518 0.08666 0.20594 0.0
H441 H 0.93851 1.00028 0.45062 0.0
H442 H 0.90708 0.02103 0.38941 0.0
C443 C 0.8376 0.09481 0.16969 0.0
C444 C 0.87495 0.09491 0.27166 0.0
H445 H 0.94504 0.08071 0.31556 0.0
C446 C 0.86277 0.08719 0.30393 0.0
C447 C 0.90501 0.09335 0.27605 0.0
C448 C 0.91935 0.10277 0.24262 0.0
C449 C 0.87983 0.07695 0.34041 0.0
C450 C 0.90984 0.07403 0.34451 0.0
C451 C 0.92205 0.08273 0.31237 0.0
C452 C 0.92895 0.06144 0.38163 0.0
C453 C 0.86543 0.06932 0.37402 0.0
C454 C 0.9524 0.07676 0.39685 0.0
C455 C 0.97078 0.06465 0.4314 0.0
C456 C 0.96584 0.03716 0.45148 0.0
C457 C 0.94271 0.02162 0.43585 0.0
C458 C 0.92453 0.03359 0.40113 0.0
H459 H 0.84525 0.08215 0.36905 0.0
H460 H 0.85992 0.04624 0.37796 0.0
H461 H 0.87956 0.07285 0.40082 0.0
H462 H 0.95642 0.09816 0.38207 0.0
H463 H 0.98881 0.07682 0.44247 0.0
H464 H 0.36909 0.30688 0.58577 0.0
H465 H 0.3868 0.33303 0.6369 0.0
H466 H 0.33057 0.4053 0.57607 0.0
H467 H 0.31367 0.37976 0.52422 0.0
H468 H 0.38208 0.42305 0.59769 0.0
H469 H 0.35388 0.34976 0.72232 0.0
H470 H 0.37552 0.33196 0.69877 0.0
H471 H 0.34023 0.34554 0.67385 0.0
C472 C 0.36016 0.32816 0.58361 0.0
C473 C 0.33999 0.34126 0.55094 0.0
C474 C 0.3702 0.34305 0.61299 0.0
C475 C 0.35977 0.37104 0.61066 0.0
C476 C 0.33896 0.38375 0.57857 0.0
H477 H 0.39478 0.46463 0.79689 0.0
H478 H 0.373 0.43731 0.74849 0.0
C479 C 0.32927 0.36909 0.54896 0.0
C480 C 0.37194 0.38799 0.64009 0.0
H481 H 0.38668 0.38665 0.73611 0.0
C482 C 0.38286 0.41515 0.62794 0.0
C483 C 0.37272 0.37789 0.67955 0.0
C484 C 0.35969 0.34983 0.69437 0.0
C485 C 0.39477 0.43234 0.65403 0.0
C486 C 0.39675 0.42168 0.69364 0.0
C487 C 0.38549 0.39469 0.7058 0.0
C488 C 0.41007 0.43835 0.72286 0.0
C489 C 0.40447 0.46201 0.63866 0.0
C490 C 0.43824 0.4478 0.72486 0.0
C491 C 0.45054 0.46377 0.75211 0.0
C492 C 0.43513 0.47002 0.77845 0.0
C493 C 0.40716 0.46005 0.77696 0.0
C494 C 0.39472 0.44445 0.74935 0.0
H495 H 0.39345 0.47017 0.60845 0.0
H496 H 0.40041 0.47766 0.65596 0.0
H497 H 0.42777 0.46102 0.63952 0.0
H498 H 0.45084 0.44264 0.70553 0.0
H499 H 0.47232 0.47074 0.75309 0.0
H500 H 0.55926 0.65082 0.48682 0.0
H501 H 0.55512 0.62788 0.43162 0.0
H502 H 0.63871 0.58774 0.47896 0.0
H503 H 0.64273 0.60991 0.53453 0.0
H504 H 0.58815 0.63451 0.37887 0.0
H505 H 0.59289 0.52007 0.45249 0.0
H506 H 0.58711 0.54904 0.47564 0.0
H507 H 0.62274 0.5394 0.47266 0.0
C508 C 0.57661 0.63681 0.48571 0.0
C509 C 0.60127 0.63207 0.51521 0.0
C510 C 0.57423 0.62377 0.4541 0.0
C511 C 0.5964 0.60572 0.45142 0.0
C512 C 0.621 0.60095 0.48085 0.0
H513 H 0.64919 0.53156 0.28122 0.0
H514 H 0.64429 0.55464 0.33378 0.0
C515 C 0.62332 0.6138 0.51255 0.0
C516 C 0.59456 0.59298 0.41705 0.0
H517 H 0.60173 0.52953 0.3888 0.0
C518 C 0.59071 0.61152 0.38098 0.0
C519 C 0.59774 0.56295 0.41977 0.0
C520 C 0.60005 0.5417 0.45719 0.0
C521 C 0.59112 0.60089 0.34784 0.0
C522 C 0.59553 0.57108 0.35096 0.0
C523 C 0.59859 0.55245 0.38672 0.0
C524 C 0.59818 0.55885 0.31765 0.0
C525 C 0.58774 0.62153 0.30981 0.0
C526 C 0.57381 0.55386 0.2911 0.0
C527 C 0.57648 0.54037 0.2612 0.0
C528 C 0.60359 0.53165 0.25745 0.0
C529 C 0.62797 0.53752 0.28362 0.0
C530 C 0.62526 0.55085 0.31354 0.0
H531 H 0.58591 0.64432 0.31247 0.0
H532 H 0.60632 0.61903 0.29677 0.0
H533 H 0.56826 0.61637 0.29003 0.0
H534 H 0.55273 0.55978 0.29408 0.0
H535 H 0.55725 0.53589 0.24187 0.0
H536 H 0.78954 0.14252 0.90581 0.0
H537 H 0.80743 0.14267 0.84757 0.0
H538 H 0.85369 0.06259 0.90117 0.0
H539 H 0.8361 0.06225 0.9594 0.0
H540 H 0.88702 0.10729 0.86927 0.0
H541 H 0.78753 0.09142 0.7662 0.0
H542 H 0.78554 0.11937 0.7924 0.0
H543 H 0.79051 0.08251 0.81741 0.0
C544 C 0.8032 0.12474 0.90502 0.0
C545 C 0.81147 0.10242 0.9373 0.0
C546 C 0.81329 0.1248 0.87167 0.0
C547 C 0.83169 0.10252 0.87004 0.0
C548 C 0.83943 0.07992 0.90186 0.0
H549 H 0.90028 0.06704 0.68098 0.0
H550 H 0.87615 0.06459 0.73458 0.0
C551 C 0.82932 0.07979 0.93511 0.0
C552 C 0.84463 0.10374 0.83632 0.0
H553 H 0.82919 0.10274 0.74092 0.0
C554 C 0.8744 0.10624 0.84122 0.0
C555 C 0.82809 0.10215 0.79989 0.0
C556 C 0.79616 0.09848 0.79351 0.0
C557 C 0.88807 0.10757 0.8105 0.0
C558 C 0.87149 0.10661 0.77391 0.0
C559 C 0.84176 0.10368 0.76903 0.0
C560 C 0.88484 0.10853 0.74047 0.0
C561 C 0.92021 0.10971 0.81743 0.0
C562 C 0.89731 0.13415 0.72586 0.0
C563 C 0.9111 0.13561 0.69539 0.0
C564 C 0.91268 0.11142 0.67902 0.0
C565 C 0.8997 0.0859 0.69333 0.0
C566 C 0.88577 0.08453 0.7237 0.0
H567 H 0.93028 0.10436 0.8484 0.0
H568 H 0.92946 0.09506 0.80259 0.0
H569 H 0.92578 0.13205 0.80577 0.0
H570 H 0.89661 0.15295 0.73832 0.0
H571 H 0.92108 0.15548 0.68521 0.0
H572 H 0.32932 0.36557 0.30621 0.0
H573 H 0.35049 0.38844 0.25243 0.0
H574 H 0.43323 0.35198 0.31377 0.0
H575 H 0.4124 0.32944 0.36782 0.0
H576 H 0.43437 0.41002 0.28654 0.0
H577 H 0.3791 0.35591 0.17124 0.0
H578 H 0.35541 0.37154 0.19438 0.0
H579 H 0.37916 0.34206 0.22112 0.0
C580 C 0.35194 0.36204 0.30802 0.0
C581 C 0.36918 0.34573 0.34139 0.0
C582 C 0.36399 0.37503 0.27716 0.0
C583 C 0.39341 0.37172 0.27894 0.0
C584 C 0.41047 0.35478 0.31176 0.0
H585 H 0.48863 0.42237 0.09947 0.0
H586 H 0.46441 0.39638 0.14859 0.0
C587 C 0.3985 0.34188 0.34263 0.0
C588 C 0.40689 0.38754 0.24796 0.0
H589 H 0.40655 0.39651 0.1526 0.0
C590 C 0.42834 0.407 0.25728 0.0
C591 C 0.39912 0.38343 0.20986 0.0
C592 C 0.37713 0.36192 0.19849 0.0
C593 C 0.44214 0.42258 0.22955 0.0
C594 C 0.4339 0.41901 0.19127 0.0
C595 C 0.41261 0.39939 0.18193 0.0
C596 C 0.44775 0.43487 0.16078 0.0
C597 C 0.46585 0.44228 0.24167 0.0
C598 C 0.44616 0.4651 0.15107 0.0
C599 C 0.46001 0.47993 0.12308 0.0
C600 C 0.47529 0.46473 0.104 0.0
C601 C 0.47669 0.43452 0.11352 0.0
C602 C 0.46292 0.4197 0.14155 0.0
H603 H 0.4743 0.43716 0.27309 0.0
H604 H 0.48379 0.44082 0.22706 0.0
H605 H 0.45744 0.46486 0.23374 0.0
H606 H 0.43414 0.4772 0.16508 0.0
H607 H 0.45838 0.50324 0.11592 0.0
H608 H 0.20723 0.92167 0.95406 0.0
H609 H 0.17786 0.94165 0.89096 0.0
H610 H 0.16536 0.85616 0.86813 0.0
H611 H 0.19483 0.83584 0.93118 0.0
H612 H 0.18429 0.93126 0.81298 0.0
H613 H 0.08305 0.89476 0.85798 0.0
H614 H 0.11538 0.89901 0.89203 0.0
H615 H 0.11221 0.86878 0.86897 0.0
C616 C 0.19846 0.90708 0.93554 0.0
C617 C 0.20323 0.87712 0.94777 0.0
C618 C 0.18174 0.91857 0.89951 0.0
C619 C 0.16932 0.90032 0.87523 0.0
C620 C 0.17466 0.87051 0.88673 0.0
H621 H 0.04487 0.92943 0.66115 0.0
H622 H 0.07751 0.90898 0.72133 0.0
C623 C 0.19156 0.85898 0.92268 0.0
C624 C 0.14986 0.91246 0.83845 0.0
H625 H 0.07938 0.91844 0.79385 0.0
C626 C 0.16135 0.92852 0.80867 0.0
C627 C 0.12002 0.90869 0.83314 0.0
C628 C 0.10673 0.89203 0.86469 0.0
C629 C 0.14368 0.9407 0.77331 0.0
C630 C 0.11374 0.93731 0.76817 0.0
C631 C 0.10233 0.92111 0.79798 0.0
C632 C 0.09387 0.95003 0.73188 0.0
C633 C 0.15723 0.9565 0.74149 0.0
C634 C 0.09183 0.97997 0.71823 0.0
C635 C 0.07336 0.99174 0.68356 0.0
C636 C 0.05657 0.97372 0.66213 0.0
C637 C 0.05795 0.94384 0.67662 0.0
C638 C 0.07647 0.93211 0.71111 0.0
H639 H 0.18037 0.95081 0.74665 0.0
H640 H 0.14644 0.95165 0.71351 0.0
H641 H 0.15511 0.98004 0.73965 0.0
H642 H 0.10461 0.99422 0.73431 0.0
H643 H 0.07273 0.01484 0.67317 0.0
loop_
_geom_bond_atom_site_label_1
_geom_bond_atom_site_label_2
_geom_bond_distance
_geom_bond_site_symmetry_2
_ccdc_geom_bond_type
O0 Cd1 2.300 1_556 S
O0 C7 1.275 . S
Cd1 O0 2.300 1_554 S
Cd1 O9 2.381 . S
Cd1 O10 2.378 . S
O2 Cd3 2.385 . S
O2 C7 1.255 1_554 S
Cd3 O2 2.385 . S
Cd3 O4 2.317 . S
O4 Cd3 2.317 . S
O4 C5 1.232 . S
C5 O4 1.232 . S
C5 O6 1.218 . S
O6 C5 1.218 . S
C7 O0 1.275 . S
C7 O2 1.255 1_556 S
C8 O9 1.258 . S
C8 O10 1.256 . S
O9 Cd1 2.381 . S
O9 C8 1.258 . S
O10 Cd1 2.378 . S
O10 C8 1.256 . S
O11 Cd12 2.300 . S
O11 C18 1.275 . S
Cd12 O11 2.300 . S
Cd12 O20 2.381 . S
Cd12 O21 2.378 . S
O13 Cd14 2.385 . S
O13 C18 1.255 . S
Cd14 O13 2.385 . S
Cd14 O15 2.317 . S
O15 Cd14 2.317 . S
O15 C16 1.232 . S
C16 O15 1.232 . S
C16 O17 1.218 . S
O17 C16 1.218 . S
C18 O11 1.275 . S
C18 O13 1.255 . S
C19 O20 1.258 . S
C19 O21 1.256 . S
O20 Cd12 2.381 . S
O20 C19 1.258 . S
O21 Cd12 2.378 . S
O21 C19 1.256 . S
O22 Cd23 2.300 . S
O22 C29 1.275 . S
Cd23 O22 2.300 . S
Cd23 O31 2.381 . S
Cd23 O32 2.378 . S
O24 Cd25 2.385 . S
O24 C29 1.255 . S
Cd25 O24 2.385 . S
Cd25 O26 2.317 1_554 S
O26 Cd25 2.317 1_556 S
O26 C27 1.232 . S
C27 O26 1.232 . S
C27 O28 1.218 1_556 S
O28 C27 1.218 1_554 S
C29 O22 1.275 . S
C29 O24 1.255 . S
C30 O31 1.258 . S
C30 O32 1.256 . S
O31 Cd23 2.381 . S
O31 C30 1.258 . S
O32 Cd23 2.378 . S
O32 C30 1.256 . S
O33 Cd34 2.300 . S
O33 C40 1.275 . S
Cd34 O33 2.300 . S
Cd34 O42 2.381 . S
Cd34 O43 2.378 . S
O35 Cd36 2.385 . S
O35 C40 1.255 . S
Cd36 O35 2.385 . S
Cd36 O37 2.317 . S
O37 Cd36 2.317 . S
O37 C38 1.232 . S
C38 O37 1.232 . S
C38 O39 1.218 . S
O39 C38 1.218 . S
C40 O33 1.275 . S
C40 O35 1.255 . S
C41 O42 1.258 . S
C41 O43 1.256 . S
O42 Cd34 2.381 . S
O42 C41 1.258 . S
O43 Cd34 2.378 . S
O43 C41 1.256 . S
C44 C46 1.422 . S
C44 C48 1.415 . S
C44 N50 1.369 . S
C45 C46 1.421 . S
C45 C47 1.417 . S
C45 C57 1.422 . S
C46 C44 1.422 . S
C46 C45 1.421 . S
C46 N56 1.359 . S
C47 C45 1.417 . S
C47 C49 1.329 . S
C47 H66 0.930 . S
C48 C44 1.415 . S
C48 C49 1.437 . S
C48 C52 1.413 . S
C49 C47 1.329 . S
C49 C48 1.437 . S
C49 H71 0.929 . S
N50 C44 1.369 . S
N50 C51 1.338 1_655 S
N50 Gd55 2.622 . S
C51 N50 1.338 1_455 S
C51 C53 1.378 . S
C51 H63 0.929 . S
C52 C48 1.413 . S
C52 C53 1.348 1_655 S
C52 H68 0.931 . S
C53 C51 1.378 . S
C53 C52 1.348 1_455 S
C53 H69 0.930 . S
Gd54 N74 2.622 . S
Gd54 N81 2.570 . S
Gd54 O88 2.353 1_465 S
Gd54 O89 2.468 . S
Gd54 O90 2.427 . S
Gd54 O92 2.388 1_455 S
Gd54 O93 2.386 . S
Gd54 O97 2.307 1_565 S
Gd54 C107 2.805 . S
Gd55 N50 2.622 . S
Gd55 N56 2.570 . S
Gd55 O87 2.386 . S
Gd55 O91 2.307 1_545 S
Gd55 O94 2.353 1_655 S
Gd55 O95 2.468 . S
Gd55 O96 2.427 . S
Gd55 O98 2.388 1_655 S
Gd55 C119 2.805 . S
N56 C46 1.359 . S
N56 Gd55 2.570 . S
N56 C58 1.343 . S
C57 C45 1.422 . S
C57 C59 1.321 . S
C57 H65 0.931 . S
C58 N56 1.343 . S
C58 C59 1.390 . S
C58 H60 0.931 . S
C59 C57 1.321 . S
C59 C58 1.390 . S
C59 H61 0.930 . S
H60 C58 0.931 . S
H61 C59 0.930 . S
H62 C85 0.931 . S
H63 C51 0.929 . S
H64 C86 0.930 . S
H65 C57 0.931 . S
H66 C47 0.930 . S
H67 C76 0.929 1_655 S
H68 C52 0.931 . S
H69 C53 0.930 . S
H70 C108 0.930 . S
H71 C49 0.929 . S
H72 C77 0.931 . S
H73 C78 0.930 1_655 S
N74 Gd54 2.622 . S
N74 C75 1.369 . S
N74 C76 1.338 . S
C75 N74 1.369 . S
C75 C79 1.415 . S
C75 C82 1.422 . S
C76 H67 0.929 1_455 S
C76 N74 1.338 . S
C76 C78 1.378 . S
C77 H72 0.931 . S
C77 C78 1.348 . S
C77 C79 1.413 . S
C78 H73 0.930 1_455 S
C78 C76 1.378 . S
C78 C77 1.348 . S
C79 C75 1.415 . S
C79 C77 1.413 . S
C79 C109 1.437 . S
H80 C109 0.929 . S
N81 Gd54 2.570 . S
N81 C82 1.359 . S
N81 C85 1.343 . S
C82 C75 1.422 . S
C82 N81 1.359 . S
C82 C84 1.421 . S
C83 C84 1.422 . S
C83 C86 1.321 . S
C83 H110 0.931 . S
C84 C82 1.421 . S
C84 C83 1.422 . S
C84 C108 1.417 . S
C85 H62 0.931 . S
C85 N81 1.343 . S
C85 C86 1.390 . S
C86 H64 0.930 . S
C86 C83 1.321 . S
C86 C85 1.390 . S
O87 Gd55 2.386 . S
O87 C99 1.265 . S
O88 Gd54 2.353 1_645 S
O88 C99 1.242 . S
O89 Gd54 2.468 . S
O89 C107 1.263 . S
O90 Gd54 2.427 . S
O90 C107 1.252 . S
O91 Gd55 2.307 1_565 S
O91 C100 1.261 . S
O92 Gd54 2.388 1_655 S
O92 C100 1.252 . S
O93 Gd54 2.386 . S
O93 C111 1.265 . S
O94 Gd55 2.353 1_455 S
O94 C111 1.242 1_545 S
O95 Gd55 2.468 . S
O95 C119 1.263 . S
O96 Gd55 2.427 . S
O96 C119 1.252 . S
O97 Gd54 2.307 1_545 S
O97 C112 1.261 . S
O98 Gd55 2.388 1_455 S
O98 C112 1.252 . S
C99 O87 1.265 . S
C99 O88 1.242 . S
C100 O91 1.261 . S
C100 O92 1.252 . S
C101 C104 1.394 . S
C101 C106 1.370 . S
C101 C107 1.500 . S
C102 C105 1.383 . S
C102 C106 1.395 . S
C103 C104 1.396 . S
C103 C105 1.365 . S
C103 H120 0.929 . S
C104 C101 1.394 . S
C104 C103 1.396 . S
C104 H121 0.930 . S
C105 C102 1.383 . S
C105 C103 1.365 . S
C105 H122 0.931 . S
C106 C101 1.370 . S
C106 C102 1.395 . S
C106 H123 0.930 . S
C107 Gd54 2.805 . S
C107 O89 1.263 . S
C107 O90 1.252 . S
C107 C101 1.500 . S
C108 H70 0.930 . S
C108 C84 1.417 . S
C108 C109 1.329 . S
C109 C79 1.437 . S
C109 H80 0.929 . S
C109 C108 1.329 . S
H110 C83 0.931 . S
C111 O93 1.265 . S
C111 O94 1.242 1_565 S
C112 O97 1.261 . S
C112 O98 1.252 . S
C113 C116 1.394 . S
C113 C118 1.370 . S
C113 C119 1.500 . S
C114 C117 1.383 . S
C114 C118 1.395 . S
C115 C116 1.396 . S
C115 C117 1.365 . S
C115 H124 0.929 . S
C116 C113 1.394 . S
C116 C115 1.396 . S
C116 H125 0.930 . S
C117 C114 1.383 . S
C117 C115 1.365 . S
C117 H126 0.931 . S
C118 C113 1.370 . S
C118 C114 1.395 . S
C118 H127 0.930 . S
C119 Gd55 2.805 . S
C119 O95 1.263 . S
C119 O96 1.252 . S
C119 C113 1.500 . S
H120 C103 0.929 . S
H121 C104 0.930 . S
H122 C105 0.931 . S
H123 C106 0.930 . S
H124 C115 0.929 . S
H125 C116 0.930 . S
H126 C117 0.931 . S
H127 C118 0.930 . S
C128 C130 1.422 . S
C128 C132 1.415 . S
C128 N134 1.369 . S
C129 C130 1.421 . S
C129 C131 1.417 . S
C129 C141 1.422 . S
C130 C128 1.422 . S
C130 C129 1.421 . S
C130 N140 1.359 . S
C131 C129 1.417 . S
C131 C133 1.329 . S
C131 H150 0.930 . S
C132 C128 1.415 . S
C132 C133 1.437 . S
C132 C136 1.413 . S
C133 C131 1.329 . S
C133 C132 1.437 . S
C133 H155 0.929 . S
N134 C128 1.369 . S
N134 C135 1.338 . S
N134 Gd139 2.622 . S
C135 N134 1.338 . S
C135 C137 1.378 . S
C135 H147 0.929 . S
C136 C132 1.413 . S
C136 C137 1.348 . S
C136 H152 0.931 . S
C137 C135 1.378 . S
C137 C136 1.348 . S
C137 H153 0.930 . S
Gd138 N158 2.622 . S
Gd138 N165 2.570 1_556 S
Gd138 O172 2.353 . S
Gd138 O173 2.468 . S
Gd138 O174 2.427 . S
Gd138 O176 2.388 . S
Gd138 O177 2.386 1_556 S
Gd138 O181 2.307 1_556 S
Gd138 C191 2.805 . S
Gd139 N134 2.622 . S
Gd139 N140 2.570 . S
Gd139 O171 2.386 1_554 S
Gd139 O175 2.307 . S
Gd139 O178 2.353 . S
Gd139 O179 2.468 . S
Gd139 O180 2.427 . S
Gd139 O182 2.388 . S
Gd139 C203 2.805 . S
N140 C130 1.359 . S
N140 Gd139 2.570 . S
N140 C142 1.343 . S
C141 C129 1.422 . S
C141 C143 1.321 . S
C141 H149 0.937 . S
C142 N140 1.343 . S
C142 C143 1.390 . S
C142 H144 0.931 . S
C143 C141 1.321 . S
C143 C142 1.390 . S
C143 H145 0.930 . S
H144 C142 0.931 . S
H145 C143 0.930 . S
H146 C169 0.931 . S
H147 C135 0.929 . S
H148 C170 0.930 . S
H149 C141 0.937 . S
H150 C131 0.930 . S
H151 C160 0.929 . S
H152 C136 0.931 . S
H153 C137 0.930 . S
H154 C192 0.930 . S
H155 C133 0.929 . S
H156 C161 0.935 . S
H157 C162 0.930 . S
N158 Gd138 2.622 . S
N158 C159 1.369 1_556 S
N158 C160 1.338 . S
C159 N158 1.369 1_554 S
C159 C163 1.415 . S
C159 C166 1.422 . S
C160 H151 0.929 . S
C160 N158 1.338 . S
C160 C162 1.378 . S
C161 H156 0.935 . S
C161 C162 1.345 1_554 S
C161 C163 1.412 . S
C162 H157 0.930 . S
C162 C160 1.378 . S
C162 C161 1.345 1_556 S
C163 C159 1.415 . S
C163 C161 1.412 . S
C163 C193 1.437 . S
H164 C193 0.929 . S
N165 Gd138 2.570 1_554 S
N165 C166 1.359 . S
N165 C169 1.343 . S
C166 C159 1.422 . S
C166 N165 1.359 . S
C166 C168 1.421 . S
C167 C168 1.422 . S
C167 C170 1.321 . S
C167 H194 0.931 . S
C168 C166 1.421 . S
C168 C167 1.422 . S
C168 C192 1.417 . S
C169 H146 0.931 . S
C169 N165 1.343 . S
C169 C170 1.390 . S
C170 H148 0.930 . S
C170 C167 1.321 . S
C170 C169 1.390 . S
O171 Gd139 2.386 1_556 S
O171 C183 1.265 . S
O172 Gd138 2.353 . S
O172 C183 1.242 . S
O173 Gd138 2.468 . S
O173 C191 1.263 . S
O174 Gd138 2.427 . S
O174 C191 1.252 . S
O175 Gd139 2.307 . S
O175 C184 1.261 . S
O176 Gd138 2.388 . S
O176 C184 1.252 1_556 S
O177 Gd138 2.386 1_554 S
O177 C195 1.265 . S
O178 Gd139 2.353 . S
O178 C195 1.242 . S
O179 Gd139 2.468 . S
O179 C203 1.263 . S
O180 Gd139 2.427 . S
O180 C203 1.252 . S
O181 Gd138 2.307 1_554 S
O181 C196 1.261 . S
O182 Gd139 2.388 . S
O182 C196 1.252 . S
C183 O171 1.265 . S
C183 O172 1.242 . S
C184 O175 1.261 . S
C184 O176 1.252 1_554 S
C185 C188 1.394 . S
C185 C190 1.370 . S
C185 C191 1.500 . S
C186 C189 1.383 . S
C186 C190 1.395 . S
C187 C188 1.396 . S
C187 C189 1.365 . S
C187 H204 0.929 . S
C188 C185 1.394 . S
C188 C187 1.396 . S
C188 H205 0.930 . S
C189 C186 1.383 . S
C189 C187 1.365 . S
C189 H206 0.931 . S
C190 C185 1.370 . S
C190 C186 1.395 . S
C190 H207 0.930 . S
C191 Gd138 2.805 . S
C191 O173 1.263 . S
C191 O174 1.252 . S
C191 C185 1.500 . S
C192 H154 0.930 . S
C192 C168 1.417 . S
C192 C193 1.329 . S
C193 C163 1.437 . S
C193 H164 0.929 . S
C193 C192 1.329 . S
H194 C167 0.931 . S
C195 O177 1.265 . S
C195 O178 1.242 . S
C196 O181 1.261 . S
C196 O182 1.252 . S
C197 C200 1.394 . S
C197 C202 1.370 . S
C197 C203 1.500 . S
C198 C201 1.383 . S
C198 C202 1.395 . S
C199 C200 1.396 . S
C199 C201 1.365 . S
C199 H208 0.929 . S
C200 C197 1.394 . S
C200 C199 1.396 . S
C200 H209 0.930 . S
C201 C198 1.383 . S
C201 C199 1.365 . S
C201 H210 0.931 . S
C202 C197 1.370 . S
C202 C198 1.395 . S
C202 H211 0.930 . S
C203 Gd139 2.805 . S
C203 O179 1.263 . S
C203 O180 1.252 . S
C203 C197 1.500 . S
H204 C187 0.929 . S
H205 C188 0.930 . S
H206 C189 0.931 . S
H207 C190 0.930 . S
H208 C199 0.929 . S
H209 C200 0.930 . S
H210 C201 0.931 . S
H211 C202 0.930 . S
H212 C220 0.929 . S
H213 C222 0.930 . S
H214 C224 0.930 . S
H215 C227 0.929 . S
H216 C230 0.930 . S
H217 C232 0.960 . S
H218 C232 0.960 . S
H219 C232 0.960 . S
C220 H212 0.929 . S
C220 C221 1.377 . S
C220 C222 1.384 . S
C221 C220 1.377 . S
C221 C227 1.390 . S
C222 H213 0.930 . S
C222 C220 1.384 . S
C222 C223 1.372 . S
C223 C222 1.372 . S
C223 C224 1.400 . S
C223 C228 1.490 . S
C224 H214 0.930 . S
C224 C223 1.400 . S
C224 C227 1.386 . S
H225 C241 0.930 . S
H226 C242 0.931 . S
C227 H215 0.929 . S
C227 C221 1.390 . S
C227 C224 1.386 . S
C228 C223 1.490 . S
C228 C230 1.395 . S
C228 C231 1.403 . S
H229 C235 0.930 . S
C230 H216 0.930 . S
C230 C228 1.395 . S
C230 C233 1.403 . S
C231 C228 1.403 . S
C231 C232 1.524 . S
C231 C235 1.400 . S
C232 H217 0.960 . S
C232 H218 0.960 . S
C232 H219 0.960 . S
C232 C231 1.524 . S
C233 C230 1.403 . S
C233 C234 1.392 . S
C233 C237 1.495 . S
C234 C233 1.392 . S
C234 C235 1.385 . S
C234 C236 1.478 . S
C235 H229 0.930 . S
C235 C231 1.400 . S
C235 C234 1.385 . S
C236 C234 1.478 . S
C236 C238 1.381 . S
C236 C242 1.383 . S
C237 C233 1.495 . S
C237 H243 0.959 . S
C237 H244 0.961 . S
C237 H245 0.960 . S
C238 C236 1.381 . S
C238 C239 1.394 . S
C238 H246 0.930 . S
C239 C238 1.394 . S
C239 C240 1.383 . S
C239 H247 0.929 . S
C240 C239 1.383 . S
C240 C241 1.377 . S
C241 H225 0.930 . S
C241 C240 1.377 . S
C241 C242 1.379 . S
C242 H226 0.931 . S
C242 C236 1.383 . S
C242 C241 1.379 . S
H243 C237 0.959 . S
H244 C237 0.961 . S
H245 C237 0.960 . S
H246 C238 0.930 . S
H247 C239 0.929 . S
H248 C256 0.929 1_556 S
H249 C258 0.930 1_556 S
H250 C260 0.930 . S
H251 C263 0.929 . S
H252 C266 0.930 . S
H253 C268 0.960 . S
H254 C268 0.960 . S
H255 C268 0.960 . S
C256 H248 0.929 1_554 S
C256 C257 1.377 . S
C256 C258 1.384 . S
C257 C256 1.377 . S
C257 C263 1.390 . S
C258 H249 0.930 1_554 S
C258 C256 1.384 . S
C258 C259 1.372 . S
C259 C258 1.372 . S
C259 C260 1.400 . S
C259 C264 1.490 . S
C260 H250 0.930 . S
C260 C259 1.400 . S
C260 C263 1.386 . S
H261 C277 0.930 . S
H262 C278 0.931 . S
C263 H251 0.929 . S
C263 C257 1.390 . S
C263 C260 1.386 . S
C264 C259 1.490 . S
C264 C266 1.395 . S
C264 C267 1.403 . S
H265 C271 0.930 . S
C266 H252 0.930 . S
C266 C264 1.395 . S
C266 C269 1.403 . S
C267 C264 1.403 . S
C267 C268 1.524 . S
C267 C271 1.400 . S
C268 H253 0.960 . S
C268 H254 0.960 . S
C268 H255 0.960 . S
C268 C267 1.524 . S
C269 C266 1.403 . S
C269 C270 1.392 . S
C269 C273 1.511 . S
C270 C269 1.392 . S
C270 C271 1.385 . S
C270 C272 1.478 . S
C271 H265 0.930 . S
C271 C267 1.400 . S
C271 C270 1.385 . S
C272 C270 1.478 . S
C272 C274 1.381 1_554 S
C272 C278 1.383 . S
C273 C269 1.511 . S
C273 H279 0.958 1_554 S
C273 H280 0.977 . S
C273 H281 0.930 1_554 S
C274 C272 1.381 1_556 S
C274 C275 1.394 . S
C274 H282 0.930 . S
C275 C274 1.394 . S
C275 C276 1.383 1_556 S
C275 H283 0.929 . S
C276 C275 1.383 1_554 S
C276 C277 1.377 . S
C277 H261 0.930 . S
C277 C276 1.377 . S
C277 C278 1.379 . S
C278 H262 0.931 . S
C278 C272 1.383 . S
C278 C277 1.379 . S
H279 C273 0.958 1_556 S
H280 C273 0.977 . S
H281 C273 0.930 1_556 S
H282 C274 0.930 . S
H283 C275 0.929 . S
H284 C292 0.929 . S
H285 C294 0.930 . S
H286 C296 0.930 . S
H287 C299 0.929 . S
H288 C302 0.930 . S
H289 C304 0.960 . S
H290 C304 0.960 . S
H291 C304 0.960 . S
C292 H284 0.929 . S
C292 C293 1.377 . S
C292 C294 1.384 . S
C293 C292 1.377 . S
C293 C299 1.390 . S
C294 H285 0.930 . S
C294 C292 1.384 . S
C294 C295 1.372 . S
C295 C294 1.372 . S
C295 C296 1.400 . S
C295 C300 1.490 . S
C296 H286 0.930 . S
C296 C295 1.400 . S
C296 C299 1.386 . S
H297 C313 0.930 . S
H298 C314 0.931 . S
C299 H287 0.929 . S
C299 C293 1.390 . S
C299 C296 1.386 . S
C300 C295 1.490 . S
C300 C302 1.395 . S
C300 C303 1.403 . S
H301 C307 0.930 . S
C302 H288 0.930 . S
C302 C300 1.395 . S
C302 C305 1.403 . S
C303 C300 1.403 . S
C303 C304 1.524 . S
C303 C307 1.400 . S
C304 H289 0.960 . S
C304 H290 0.960 . S
C304 H291 0.960 . S
C304 C303 1.524 . S
C305 C302 1.403 . S
C305 C306 1.392 . S
C305 C309 1.495 . S
C306 C305 1.392 . S
C306 C307 1.385 . S
C306 C308 1.478 . S
C307 H301 0.930 . S
C307 C303 1.400 . S
C307 C306 1.385 . S
C308 C306 1.478 . S
C308 C310 1.381 . S
C308 C314 1.383 . S
C309 C305 1.495 . S
C309 H315 0.959 . S
C309 H316 0.961 . S
C309 H317 0.960 . S
C310 C308 1.381 . S
C310 C311 1.394 . S
C310 H318 0.930 . S
C311 C310 1.394 . S
C311 C312 1.383 . S
C311 H319 0.929 . S
C312 C311 1.383 . S
C312 C313 1.377 . S
C313 H297 0.930 . S
C313 C312 1.377 . S
C313 C314 1.379 . S
C314 H298 0.931 . S
C314 C308 1.383 . S
C314 C313 1.379 . S
H315 C309 0.959 . S
H316 C309 0.961 . S
H317 C309 0.960 . S
H318 C310 0.930 . S
H319 C311 0.929 . S
H320 C328 0.929 1_556 S
H321 C330 0.946 . S
H322 C332 0.930 . S
H323 C335 0.929 . S
H324 C338 0.930 1_556 S
H325 C340 0.960 . S
H326 C340 0.960 . S
H327 C340 0.960 . S
C328 H320 0.929 1_554 S
C328 C329 1.377 . S
C328 C330 1.389 1_554 S
C329 C328 1.377 . S
C329 C335 1.390 . S
C330 H321 0.946 . S
C330 C328 1.389 1_556 S
C330 C331 1.352 1_556 S
C331 C330 1.352 1_554 S
C331 C332 1.400 . S
C331 C336 1.490 . S
C332 H322 0.930 . S
C332 C331 1.400 . S
C332 C335 1.386 . S
H333 C349 0.930 . S
H334 C350 0.931 . S
C335 H323 0.929 . S
C335 C329 1.390 . S
C335 C332 1.386 . S
C336 C331 1.490 . S
C336 C338 1.395 . S
C336 C339 1.403 . S
H337 C343 0.930 . S
C338 H324 0.930 1_554 S
C338 C336 1.395 . S
C338 C341 1.403 . S
C339 C336 1.403 . S
C339 C340 1.524 . S
C339 C343 1.400 . S
C340 H325 0.960 . S
C340 H326 0.960 . S
C340 H327 0.960 . S
C340 C339 1.524 . S
C341 C338 1.403 . S
C341 C342 1.392 . S
C341 C345 1.495 1_554 S
C342 C341 1.392 . S
C342 C343 1.385 . S
C342 C344 1.478 . S
C343 H337 0.930 . S
C343 C339 1.400 . S
C343 C342 1.385 . S
C344 C342 1.478 . S
C344 C346 1.381 1_554 S
C344 C350 1.383 . S
C345 C341 1.495 1_556 S
C345 H351 0.959 . S
C345 H352 0.961 . S
C345 H353 0.960 . S
C346 C344 1.381 1_556 S
C346 C347 1.394 . S
C346 H354 0.930 . S
C347 C346 1.394 . S
C347 C348 1.383 1_556 S
C347 H355 0.929 . S
C348 C347 1.383 1_554 S
C348 C349 1.377 . S
C349 H333 0.930 . S
C349 C348 1.377 . S
C349 C350 1.379 . S
C350 H334 0.931 . S
C350 C344 1.383 . S
C350 C349 1.379 . S
H351 C345 0.959 . S
H352 C345 0.961 . S
H353 C345 0.960 . S
H354 C346 0.930 . S
H355 C347 0.929 . S
H356 C364 0.929 . S
H357 C366 0.930 . S
H358 C368 0.930 . S
H359 C371 0.929 . S
H360 C374 0.930 . S
H361 C376 0.960 . S
H362 C376 0.960 . S
H363 C376 0.960 . S
C364 H356 0.929 . S
C364 C365 1.377 . S
C364 C366 1.384 . S
C365 C364 1.377 . S
C365 C371 1.390 . S
C366 H357 0.930 . S
C366 C364 1.384 . S
C366 C367 1.372 . S
C367 C366 1.372 . S
C367 C368 1.400 . S
C367 C372 1.490 . S
C368 H358 0.930 . S
C368 C367 1.400 . S
C368 C371 1.386 . S
H369 C385 0.930 . S
H370 C386 0.931 . S
C371 H359 0.929 . S
C371 C365 1.390 . S
C371 C368 1.386 . S
C372 C367 1.490 . S
C372 C374 1.395 . S
C372 C375 1.403 . S
H373 C379 0.930 . S
C374 H360 0.930 . S
C374 C372 1.395 . S
C374 C377 1.403 . S
C375 C372 1.403 . S
C375 C376 1.524 . S
C375 C379 1.400 . S
C376 H361 0.960 . S
C376 H362 0.960 . S
C376 H363 0.960 . S
C376 C375 1.524 . S
C377 C374 1.403 . S
C377 C378 1.392 . S
C377 C381 1.495 . S
C378 C377 1.392 . S
C378 C379 1.385 . S
C378 C380 1.478 . S
C379 H373 0.930 . S
C379 C375 1.400 . S
C379 C378 1.385 . S
C380 C378 1.478 . S
C380 C382 1.381 . S
C380 C386 1.383 . S
C381 C377 1.495 . S
C381 H387 0.959 . S
C381 H388 0.961 . S
C381 H389 0.960 . S
C382 C380 1.381 . S
C382 C383 1.394 . S
C382 H390 0.930 . S
C383 C382 1.394 . S
C383 C384 1.383 . S
C383 H391 0.929 . S
C384 C383 1.383 . S
C384 C385 1.377 . S
C385 H369 0.930 . S
C385 C384 1.377 . S
C385 C386 1.379 . S
C386 H370 0.931 . S
C386 C380 1.383 . S
C386 C385 1.379 . S
H387 C381 0.959 . S
H388 C381 0.961 . S
H389 C381 0.960 . S
H390 C382 0.930 . S
H391 C383 0.929 . S
H392 C400 0.929 . S
H393 C402 0.930 . S
H394 C404 0.930 . S
H395 C407 0.929 . S
H396 C410 0.930 . S
H397 C412 0.960 . S
H398 C412 0.960 . S
H399 C412 0.960 . S
C400 H392 0.929 . S
C400 C401 1.377 . S
C400 C402 1.384 . S
C401 C400 1.377 . S
C401 C407 1.390 . S
C402 H393 0.930 . S
C402 C400 1.384 . S
C402 C403 1.372 . S
C403 C402 1.372 . S
C403 C404 1.400 . S
C403 C408 1.490 . S
C404 H394 0.930 . S
C404 C403 1.400 . S
C404 C407 1.386 . S
H405 C421 0.930 . S
H406 C422 0.931 . S
C407 H395 0.929 . S
C407 C401 1.390 . S
C407 C404 1.386 . S
C408 C403 1.490 . S
C408 C410 1.395 . S
C408 C411 1.403 . S
H409 C415 0.930 . S
C410 H396 0.930 . S
C410 C408 1.395 . S
C410 C413 1.403 . S
C411 C408 1.403 . S
C411 C412 1.524 . S
C411 C415 1.400 . S
C412 H397 0.960 . S
C412 H398 0.960 . S
C412 H399 0.960 . S
C412 C411 1.524 . S
C413 C410 1.403 . S
C413 C414 1.392 . S
C413 C417 1.495 . S
C414 C413 1.392 . S
C414 C415 1.385 . S
C414 C416 1.478 . S
C415 H409 0.930 . S
C415 C411 1.400 . S
C415 C414 1.385 . S
C416 C414 1.478 . S
C416 C418 1.381 . S
C416 C422 1.383 . S
C417 C413 1.495 . S
C417 H423 0.959 . S
C417 H424 0.961 . S
C417 H425 0.960 . S
C418 C416 1.381 . S
C418 C419 1.394 . S
C418 H426 0.930 . S
C419 C418 1.394 . S
C419 C420 1.383 . S
C419 H427 0.929 . S
C420 C419 1.383 . S
C420 C421 1.377 . S
C421 H405 0.930 . S
C421 C420 1.377 . S
C421 C422 1.379 . S
C422 H406 0.931 . S
C422 C416 1.383 . S
C422 C421 1.379 . S
H423 C417 0.959 . S
H424 C417 0.961 . S
H425 C417 0.960 . S
H426 C418 0.930 . S
H427 C419 0.929 . S
H428 C436 0.929 . S
H429 C438 0.930 . S
H430 C440 0.930 . S
H431 C443 0.929 . S
H432 C446 0.930 . S
H433 C448 0.960 . S
H434 C448 0.960 . S
H435 C448 0.960 . S
C436 H428 0.929 . S
C436 C437 1.377 . S
C436 C438 1.384 . S
C437 C436 1.377 . S
C437 C443 1.390 . S
C438 H429 0.930 . S
C438 C436 1.384 . S
C438 C439 1.372 . S
C439 C438 1.372 . S
C439 C440 1.400 . S
C439 C444 1.490 . S
C440 H430 0.930 . S
C440 C439 1.400 . S
C440 C443 1.386 . S
H441 C457 0.930 . S
H442 C458 0.931 . S
C443 H431 0.929 . S
C443 C437 1.390 . S
C443 C440 1.386 . S
C444 C439 1.490 . S
C444 C446 1.395 . S
C444 C447 1.403 . S
H445 C451 0.930 . S
C446 H432 0.930 . S
C446 C444 1.395 . S
C446 C449 1.403 . S
C447 C444 1.403 . S
C447 C448 1.524 . S
C447 C451 1.400 . S
C448 H433 0.960 . S
C448 H434 0.960 . S
C448 H435 0.960 . S
C448 C447 1.524 . S
C449 C446 1.403 . S
C449 C450 1.392 . S
C449 C453 1.495 . S
C450 C449 1.392 . S
C450 C451 1.385 . S
C450 C452 1.478 . S
C451 H445 0.930 . S
C451 C447 1.400 . S
C451 C450 1.385 . S
C452 C450 1.478 . S
C452 C454 1.381 . S
C452 C458 1.383 . S
C453 C449 1.495 . S
C453 H459 0.959 . S
C453 H460 0.961 . S
C453 H461 0.960 . S
C454 C452 1.381 . S
C454 C455 1.394 . S
C454 H462 0.930 . S
C455 C454 1.394 . S
C455 C456 1.383 . S
C455 H463 0.929 . S
C456 C455 1.383 . S
C456 C457 1.377 . S
C457 H441 0.930 . S
C457 C456 1.377 . S
C457 C458 1.379 . S
C458 H442 0.931 . S
C458 C452 1.383 . S
C458 C457 1.379 . S
H459 C453 0.959 . S
H460 C453 0.961 . S
H461 C453 0.960 . S
H462 C454 0.930 . S
H463 C455 0.929 . S
H464 C472 0.929 . S
H465 C474 0.930 . S
H466 C476 0.930 . S
H467 C479 0.929 . S
H468 C482 0.930 . S
H469 C484 0.960 . S
H470 C484 0.960 . S
H471 C484 0.960 . S
C472 H464 0.929 . S
C472 C473 1.377 . S
C472 C474 1.384 . S
C473 C472 1.377 . S
C473 C479 1.390 . S
C474 H465 0.930 . S
C474 C472 1.384 . S
C474 C475 1.372 . S
C475 C474 1.372 . S
C475 C476 1.400 . S
C475 C480 1.490 . S
C476 H466 0.930 . S
C476 C475 1.400 . S
C476 C479 1.386 . S
H477 C493 0.930 . S
H478 C494 0.931 . S
C479 H467 0.929 . S
C479 C473 1.390 . S
C479 C476 1.386 . S
C480 C475 1.490 . S
C480 C482 1.395 . S
C480 C483 1.403 . S
H481 C487 0.930 . S
C482 H468 0.930 . S
C482 C480 1.395 . S
C482 C485 1.403 . S
C483 C480 1.403 . S
C483 C484 1.524 . S
C483 C487 1.400 . S
C484 H469 0.960 . S
C484 H470 0.960 . S
C484 H471 0.960 . S
C484 C483 1.524 . S
C485 C482 1.403 . S
C485 C486 1.392 . S
C485 C489 1.495 . S
C486 C485 1.392 . S
C486 C487 1.385 . S
C486 C488 1.478 . S
C487 H481 0.930 . S
C487 C483 1.400 . S
C487 C486 1.385 . S
C488 C486 1.478 . S
C488 C490 1.381 . S
C488 C494 1.383 . S
C489 C485 1.495 . S
C489 H495 0.959 . S
C489 H496 0.961 . S
C489 H497 0.960 . S
C490 C488 1.381 . S
C490 C491 1.394 . S
C490 H498 0.930 . S
C491 C490 1.394 . S
C491 C492 1.383 . S
C491 H499 0.929 . S
C492 C491 1.383 . S
C492 C493 1.377 . S
C493 H477 0.930 . S
C493 C492 1.377 . S
C493 C494 1.379 . S
C494 H478 0.931 . S
C494 C488 1.383 . S
C494 C493 1.379 . S
H495 C489 0.959 . S
H496 C489 0.961 . S
H497 C489 0.960 . S
H498 C490 0.930 . S
H499 C491 0.929 . S
H500 C508 0.929 . S
H501 C510 0.930 . S
H502 C512 0.930 . S
H503 C515 0.929 . S
H504 C518 0.930 . S
H505 C520 0.960 . S
H506 C520 0.960 . S
H507 C520 0.960 . S
C508 H500 0.929 . S
C508 C509 1.377 . S
C508 C510 1.384 . S
C509 C508 1.377 . S
C509 C515 1.390 . S
C510 H501 0.930 . S
C510 C508 1.384 . S
C510 C511 1.372 . S
C511 C510 1.372 . S
C511 C512 1.400 . S
C511 C516 1.490 . S
C512 H502 0.930 . S
C512 C511 1.400 . S
C512 C515 1.386 . S
H513 C529 0.930 . S
H514 C530 0.931 . S
C515 H503 0.929 . S
C515 C509 1.390 . S
C515 C512 1.386 . S
C516 C511 1.490 . S
C516 C518 1.395 . S
C516 C519 1.403 . S
H517 C523 0.930 . S
C518 H504 0.930 . S
C518 C516 1.395 . S
C518 C521 1.403 . S
C519 C516 1.403 . S
C519 C520 1.524 . S
C519 C523 1.400 . S
C520 H505 0.960 . S
C520 H506 0.960 . S
C520 H507 0.960 . S
C520 C519 1.524 . S
C521 C518 1.403 . S
C521 C522 1.392 . S
C521 C525 1.495 . S
C522 C521 1.392 . S
C522 C523 1.385 . S
C522 C524 1.478 . S
C523 H517 0.930 . S
C523 C519 1.400 . S
C523 C522 1.385 . S
C524 C522 1.478 . S
C524 C526 1.381 . S
C524 C530 1.383 . S
C525 C521 1.495 . S
C525 H531 0.959 . S
C525 H532 0.961 . S
C525 H533 0.960 . S
C526 C524 1.381 . S
C526 C527 1.394 . S
C526 H534 0.930 . S
C527 C526 1.394 . S
C527 C528 1.383 . S
C527 H535 0.929 . S
C528 C527 1.383 . S
C528 C529 1.377 . S
C529 H513 0.930 . S
C529 C528 1.377 . S
C529 C530 1.379 . S
C530 H514 0.931 . S
C530 C524 1.383 . S
C530 C529 1.379 . S
H531 C525 0.959 . S
H532 C525 0.961 . S
H533 C525 0.960 . S
H534 C526 0.930 . S
H535 C527 0.929 . S
H536 C544 0.929 . S
H537 C546 0.930 . S
H538 C548 0.930 . S
H539 C551 0.929 . S
H540 C554 0.930 . S
H541 C556 0.960 . S
H542 C556 0.960 . S
H543 C556 0.960 . S
C544 H536 0.929 . S
C544 C545 1.377 . S
C544 C546 1.384 . S
C545 C544 1.377 . S
C545 C551 1.390 . S
C546 H537 0.930 . S
C546 C544 1.384 . S
C546 C547 1.372 . S
C547 C546 1.372 . S
C547 C548 1.400 . S
C547 C552 1.490 . S
C548 H538 0.930 . S
C548 C547 1.400 . S
C548 C551 1.386 . S
H549 C565 0.930 . S
H550 C566 0.931 . S
C551 H539 0.929 . S
C551 C545 1.390 . S
C551 C548 1.386 . S
C552 C547 1.490 . S
C552 C554 1.395 . S
C552 C555 1.403 . S
H553 C559 0.930 . S
C554 H540 0.930 . S
C554 C552 1.395 . S
C554 C557 1.403 . S
C555 C552 1.403 . S
C555 C556 1.524 . S
C555 C559 1.400 . S
C556 H541 0.960 . S
C556 H542 0.960 . S
C556 H543 0.960 . S
C556 C555 1.524 . S
C557 C554 1.403 . S
C557 C558 1.392 . S
C557 C561 1.495 . S
C558 C557 1.392 . S
C558 C559 1.385 . S
C558 C560 1.478 . S
C559 H553 0.930 . S
C559 C555 1.400 . S
C559 C558 1.385 . S
C560 C558 1.478 . S
C560 C562 1.381 . S
C560 C566 1.383 . S
C561 C557 1.495 . S
C561 H567 0.959 . S
C561 H568 0.961 . S
C561 H569 0.960 . S
C562 C560 1.381 . S
C562 C563 1.394 . S
C562 H570 0.930 . S
C563 C562 1.394 . S
C563 C564 1.383 . S
C563 H571 0.929 . S
C564 C563 1.383 . S
C564 C565 1.377 . S
C565 H549 0.930 . S
C565 C564 1.377 . S
C565 C566 1.379 . S
C566 H550 0.931 . S
C566 C560 1.383 . S
C566 C565 1.379 . S
H567 C561 0.959 . S
H568 C561 0.961 . S
H569 C561 0.960 . S
H570 C562 0.930 . S
H571 C563 0.929 . S
H572 C580 0.929 . S
H573 C582 0.930 . S
H574 C584 0.930 . S
H575 C587 0.929 . S
H576 C590 0.930 . S
H577 C592 0.960 . S
H578 C592 0.960 . S
H579 C592 0.960 . S
C580 H572 0.929 . S
C580 C581 1.377 . S
C580 C582 1.384 . S
C581 C580 1.377 . S
C581 C587 1.390 . S
C582 H573 0.930 . S
C582 C580 1.384 . S
C582 C583 1.372 . S
C583 C582 1.372 . S
C583 C584 1.400 . S
C583 C588 1.490 . S
C584 H574 0.930 . S
C584 C583 1.400 . S
C584 C587 1.386 . S
H585 C601 0.930 . S
H586 C602 0.931 . S
C587 H575 0.929 . S
C587 C581 1.390 . S
C587 C584 1.386 . S
C588 C583 1.490 . S
C588 C590 1.395 . S
C588 C591 1.403 . S
H589 C595 0.930 . S
C590 H576 0.930 . S
C590 C588 1.395 . S
C590 C593 1.403 . S
C591 C588 1.403 . S
C591 C592 1.524 . S
C591 C595 1.400 . S
C592 H577 0.960 . S
C592 H578 0.960 . S
C592 H579 0.960 . S
C592 C591 1.524 . S
C593 C590 1.403 . S
C593 C594 1.392 . S
C593 C597 1.495 . S
C594 C593 1.392 . S
C594 C595 1.385 . S
C594 C596 1.478 . S
C595 H589 0.930 . S
C595 C591 1.400 . S
C595 C594 1.385 . S
C596 C594 1.478 . S
C596 C598 1.381 . S
C596 C602 1.383 . S
C597 C593 1.495 . S
C597 H603 0.959 . S
C597 H604 0.961 . S
C597 H605 0.960 . S
C598 C596 1.381 . S
C598 C599 1.394 . S
C598 H606 0.930 . S
C599 C598 1.394 . S
C599 C600 1.383 . S
C599 H607 0.929 . S
C600 C599 1.383 . S
C600 C601 1.377 . S
C601 H585 0.930 . S
C601 C600 1.377 . S
C601 C602 1.379 . S
C602 H586 0.931 . S
C602 C596 1.383 . S
C602 C601 1.379 . S
H603 C597 0.959 . S
H604 C597 0.961 . S
H605 C597 0.960 . S
H606 C598 0.930 . S
H607 C599 0.929 . S
H608 C616 0.929 . S
H609 C618 0.930 . S
H610 C620 0.930 . S
H611 C623 0.929 . S
H612 C626 0.930 . S
H613 C628 0.960 . S
H614 C628 0.960 . S
H615 C628 0.960 . S
C616 H608 0.929 . S
C616 C617 1.377 . S
C616 C618 1.384 . S
C617 C616 1.377 . S
C617 C623 1.390 . S
C618 H609 0.930 . S
C618 C616 1.384 . S
C618 C619 1.372 . S
C619 C618 1.372 . S
C619 C620 1.400 . S
C619 C624 1.490 . S
C620 H610 0.930 . S
C620 C619 1.400 . S
C620 C623 1.386 . S
H621 C637 0.930 . S
H622 C638 0.931 . S
C623 H611 0.929 . S
C623 C617 1.390 . S
C623 C620 1.386 . S
C624 C619 1.490 . S
C624 C626 1.395 . S
C624 C627 1.403 . S
H625 C631 0.930 . S
C626 H612 0.930 . S
C626 C624 1.395 . S
C626 C629 1.403 . S
C627 C624 1.403 . S
C627 C628 1.524 . S
C627 C631 1.400 . S
C628 H613 0.960 . S
C628 H614 0.960 . S
C628 H615 0.960 . S
C628 C627 1.524 . S
C629 C626 1.403 . S
C629 C630 1.392 . S
C629 C633 1.495 . S
C630 C629 1.392 . S
C630 C631 1.385 . S
C630 C632 1.478 . S
C631 H625 0.930 . S
C631 C627 1.400 . S
C631 C630 1.385 . S
C632 C630 1.478 . S
C632 C634 1.381 . S
C632 C638 1.383 . S
C633 C629 1.495 . S
C633 H639 0.959 . S
C633 H640 0.961 . S
C633 H641 0.960 . S
C634 C632 1.381 . S
C634 C635 1.394 . S
C634 H642 0.930 . S
C635 C634 1.394 . S
C635 C636 1.383 . S
C635 H643 0.929 1_565 S
C636 C635 1.383 . S
C636 C637 1.377 . S
C637 H621 0.930 . S
C637 C636 1.377 . S
C637 C638 1.379 . S
C638 H622 0.931 . S
C638 C632 1.383 . S
C638 C637 1.379 . S
H639 C633 0.959 . S
H640 C633 0.961 . S
H641 C633 0.960 . S
H642 C634 0.930 . S
H643 C635 0.929 1_545 S
C240 C112 1.641 . S
C221 C41 1.652 . S
C257 C8 1.663 . S
C276 C184 1.649 . S
C293 C19 1.746 . S
C312 C100 1.765 . S
C329 C30 1.628 . S
C348 C196 1.641 . S
C384 C102 1.484 . S
C365 C5 1.518 . S
C420 C183 1.818 . S
C401 C18 1.761 . S
C437 C29 1.623 . S
C456 C99 1.720 . S
C473 C40 1.619 . S
C492 C186 1.526 . S
C528 C198 1.423 . S
C509 C16 1.308 . S
C564 C114 1.360 . S
C545 C27 1.291 . S
C600 C195 1.542 . S
C581 C38 1.308 . S
C617 C7 1.474 . S
C636 C111 1.507 . S
