# Generated by pormake.
# Topology gar, (4,6)-cn, num edge types: 1
# Building blocks:
#     Node 0, Type 0, BuildingBlock: TATPOV_clean_sbu_0, # of connection points: 4
#     Node 1, Type 0, BuildingBlock: TATPOV_clean_sbu_0, # of connection points: 4
#     Node 2, Type 0, BuildingBlock: TATPOV_clean_sbu_0, # of connection points: 4
#     Node 3, Type 0, BuildingBlock: TATPOV_clean_sbu_0, # of connection points: 4
#     Node 4, Type 0, BuildingBlock: TATPOV_clean_sbu_0, # of connection points: 4
#     Node 5, Type 0, BuildingBlock: TATPOV_clean_sbu_0, # of connection points: 4
#     Node 6, Type 0, BuildingBlock: TATPOV_clean_sbu_0, # of connection points: 4
#     Node 7, Type 0, BuildingBlock: TATPOV_clean_sbu_0, # of connection points: 4
#     Node 8, Type 0, BuildingBlock: TATPOV_clean_sbu_0, # of connection points: 4
#     Node 9, Type 0, BuildingBlock: TATPOV_clean_sbu_0, # of connection points: 4
#     Node 10, Type 0, BuildingBlock: TATPOV_clean_sbu_0, # of connection points: 4
#     Node 11, Type 0, BuildingBlock: TATPOV_clean_sbu_0, # of connection points: 4
#     Node 12, Type 0, BuildingBlock: TATPOV_clean_sbu_0, # of connection points: 4
#     Node 13, Type 0, BuildingBlock: TATPOV_clean_sbu_0, # of connection points: 4
#     Node 14, Type 0, BuildingBlock: TATPOV_clean_sbu_0, # of connection points: 4
#     Node 15, Type 0, BuildingBlock: TATPOV_clean_sbu_0, # of connection points: 4
#     Node 16, Type 0, BuildingBlock: TATPOV_clean_sbu_0, # of connection points: 4
#     Node 17, Type 0, BuildingBlock: TATPOV_clean_sbu_0, # of connection points: 4
#     Node 18, Type 0, BuildingBlock: TATPOV_clean_sbu_0, # of connection points: 4
#     Node 19, Type 0, BuildingBlock: TATPOV_clean_sbu_0, # of connection points: 4
#     Node 20, Type 0, BuildingBlock: TATPOV_clean_sbu_0, # of connection points: 4
#     Node 21, Type 0, BuildingBlock: TATPOV_clean_sbu_0, # of connection points: 4
#     Node 22, Type 0, BuildingBlock: TATPOV_clean_sbu_0, # of connection points: 4
#     Node 23, Type 0, BuildingBlock: TATPOV_clean_sbu_0, # of connection points: 4
#     Node 24, Type 1, BuildingBlock: KUMBOL_clean_sbu_0, # of connection points: 6
#     Node 25, Type 1, BuildingBlock: KUMBOL_clean_sbu_0, # of connection points: 6
#     Node 26, Type 1, BuildingBlock: KUMBOL_clean_sbu_0, # of connection points: 6
#     Node 27, Type 1, BuildingBlock: KUMBOL_clean_sbu_0, # of connection points: 6
#     Node 28, Type 1, BuildingBlock: KUMBOL_clean_sbu_0, # of connection points: 6
#     Node 29, Type 1, BuildingBlock: KUMBOL_clean_sbu_0, # of connection points: 6
#     Node 30, Type 1, BuildingBlock: KUMBOL_clean_sbu_0, # of connection points: 6
#     Node 31, Type 1, BuildingBlock: KUMBOL_clean_sbu_0, # of connection points: 6
#     Node 32, Type 1, BuildingBlock: KUMBOL_clean_sbu_0, # of connection points: 6
#     Node 33, Type 1, BuildingBlock: KUMBOL_clean_sbu_0, # of connection points: 6
#     Node 34, Type 1, BuildingBlock: KUMBOL_clean_sbu_0, # of connection points: 6
#     Node 35, Type 1, BuildingBlock: KUMBOL_clean_sbu_0, # of connection points: 6
#     Node 36, Type 1, BuildingBlock: KUMBOL_clean_sbu_0, # of connection points: 6
#     Node 37, Type 1, BuildingBlock: KUMBOL_clean_sbu_0, # of connection points: 6
#     Node 38, Type 1, BuildingBlock: KUMBOL_clean_sbu_0, # of connection points: 6
#     Node 39, Type 1, BuildingBlock: KUMBOL_clean_sbu_0, # of connection points: 6
#     Edge 40, Type (0, 1), None
#     Edge 41, Type (0, 1), None
#     Edge 42, Type (0, 1), None
#     Edge 43, Type (0, 1), None
#     Edge 44, Type (0, 1), None
#     Edge 45, Type (0, 1), None
#     Edge 46, Type (0, 1), None
#     Edge 47, Type (0, 1), None
#     Edge 48, Type (0, 1), None
#     Edge 49, Type (0, 1), None
#     Edge 50, Type (0, 1), None
#     Edge 51, Type (0, 1), None
#     Edge 52, Type (0, 1), None
#     Edge 53, Type (0, 1), None
#     Edge 54, Type (0, 1), None
#     Edge 55, Type (0, 1), None
#     Edge 56, Type (0, 1), None
#     Edge 57, Type (0, 1), None
#     Edge 58, Type (0, 1), None
#     Edge 59, Type (0, 1), None
#     Edge 60, Type (0, 1), None
#     Edge 61, Type (0, 1), None
#     Edge 62, Type (0, 1), None
#     Edge 63, Type (0, 1), None
#     Edge 64, Type (0, 1), None
#     Edge 65, Type (0, 1), None
#     Edge 66, Type (0, 1), None
#     Edge 67, Type (0, 1), None
#     Edge 68, Type (0, 1), None
#     Edge 69, Type (0, 1), None
#     Edge 70, Type (0, 1), None
#     Edge 71, Type (0, 1), None
#     Edge 72, Type (0, 1), None
#     Edge 73, Type (0, 1), None
#     Edge 74, Type (0, 1), None
#     Edge 75, Type (0, 1), None
#     Edge 76, Type (0, 1), None
#     Edge 77, Type (0, 1), None
#     Edge 78, Type (0, 1), None
#     Edge 79, Type (0, 1), None
#     Edge 80, Type (0, 1), None
#     Edge 81, Type (0, 1), None
#     Edge 82, Type (0, 1), None
#     Edge 83, Type (0, 1), None
#     Edge 84, Type (0, 1), None
#     Edge 85, Type (0, 1), None
#     Edge 86, Type (0, 1), None
#     Edge 87, Type (0, 1), None
#     Edge 88, Type (0, 1), None
#     Edge 89, Type (0, 1), None
#     Edge 90, Type (0, 1), None
#     Edge 91, Type (0, 1), None
#     Edge 92, Type (0, 1), None
#     Edge 93, Type (0, 1), None
#     Edge 94, Type (0, 1), None
#     Edge 95, Type (0, 1), None
#     Edge 96, Type (0, 1), None
#     Edge 97, Type (0, 1), None
#     Edge 98, Type (0, 1), None
#     Edge 99, Type (0, 1), None
#     Edge 100, Type (0, 1), None
#     Edge 101, Type (0, 1), None
#     Edge 102, Type (0, 1), None
#     Edge 103, Type (0, 1), None
#     Edge 104, Type (0, 1), None
#     Edge 105, Type (0, 1), None
#     Edge 106, Type (0, 1), None
#     Edge 107, Type (0, 1), None
#     Edge 108, Type (0, 1), None
#     Edge 109, Type (0, 1), None
#     Edge 110, Type (0, 1), None
#     Edge 111, Type (0, 1), None
#     Edge 112, Type (0, 1), None
#     Edge 113, Type (0, 1), None
#     Edge 114, Type (0, 1), None
#     Edge 115, Type (0, 1), None
#     Edge 116, Type (0, 1), None
#     Edge 117, Type (0, 1), None
#     Edge 118, Type (0, 1), None
#     Edge 119, Type (0, 1), None
#     Edge 120, Type (0, 1), None
#     Edge 121, Type (0, 1), None
#     Edge 122, Type (0, 1), None
#     Edge 123, Type (0, 1), None
#     Edge 124, Type (0, 1), None
#     Edge 125, Type (0, 1), None
#     Edge 126, Type (0, 1), None
#     Edge 127, Type (0, 1), None
#     Edge 128, Type (0, 1), None
#     Edge 129, Type (0, 1), None
#     Edge 130, Type (0, 1), None
#     Edge 131, Type (0, 1), None
#     Edge 132, Type (0, 1), None
#     Edge 133, Type (0, 1), None
#     Edge 134, Type (0, 1), None
#     Edge 135, Type (0, 1), None
# Relax obj value: 0.271
# Max RMSD: 0.416
# Mean RMSD: 0.202
data_MOF--net-gar--node1-TATPOV_clean_sbu_0--node2-KUMBOL_clean_sbu_0--edge1-none
_symmetry_space_group_name_H-M    P1
_symmetry_Int_Tables_number       1
_symmetry_cell_setting            triclinic
loop_
_symmetry_equiv_pos_as_xyz
'x, y, z'
_cell_length_a     32.483482
_cell_length_b     26.850113
_cell_length_c     27.04092
_cell_angle_alpha  103.11057
_cell_angle_beta   94.74923
_cell_angle_gamma 104.42301
loop_
_atom_site_label
_atom_site_type_symbol
_atom_site_fract_x
_atom_site_fract_y
_atom_site_fract_z
_atom_type_partial_charge
Zn0 Zn 0.10471 0.32533 0.4065 0.0
Zn1 Zn 0.20063 0.38818 0.38054 0.0
O2 O 0.18241 0.45643 0.41413 0.0
O3 O 0.11907 0.40907 0.42727 0.0
O4 O 0.26123 0.39657 0.35179 0.0
O5 O 0.14838 0.28353 0.39754 0.0
O6 O 0.19991 0.3506 0.43968 0.0
C7 C 0.14571 0.45374 0.42987 0.0
C8 C 0.11645 0.36095 0.31539 0.0
O9 O 0.1543 0.35503 0.31775 0.0
O10 O 0.09638 0.36288 0.35361 0.0
C11 C 0.2651 0.3737 0.30569 0.0
O12 O 0.23024 0.34668 0.27342 0.0
C13 C 0.17201 0.30784 0.43964 0.0
Zn14 Zn 0.01703 0.70694 0.72331 0.0
Zn15 Zn 0.04731 0.79347 0.69895 0.0
O16 O 0.98683 0.79903 0.7272 0.0
O17 O 0.96043 0.72105 0.74167 0.0
O18 O 0.0704 0.85332 0.66649 0.0
O19 O 0.06723 0.72992 0.78148 0.0
O20 O 0.09404 0.80361 0.75826 0.0
C21 C 0.95709 0.76735 0.74294 0.0
C22 C 0.05165 0.68643 0.62982 0.0
O23 O 0.06067 0.73657 0.64083 0.0
O24 O 0.02768 0.66181 0.65639 0.0
C25 C 0.06136 0.84114 0.61773 0.0
O26 O 0.02759 0.80126 0.59561 0.0
C27 C 0.09671 0.77264 0.78699 0.0
Zn28 Zn 0.60536 0.82594 0.90618 0.0
Zn29 Zn 0.70105 0.88907 0.88022 0.0
O30 O 0.68296 0.95739 0.91335 0.0
O31 O 0.61962 0.90992 0.92625 0.0
O32 O 0.7613 0.89785 0.85127 0.0
O33 O 0.64913 0.78429 0.89697 0.0
O34 O 0.70041 0.85156 0.93936 0.0
C35 C 0.64616 0.95466 0.92875 0.0
C36 C 0.61713 0.86188 0.81556 0.0
O37 O 0.65478 0.8554 0.8176 0.0
O38 O 0.59753 0.86479 0.85418 0.0
C39 C 0.76478 0.87385 0.80543 0.0
O40 O 0.72978 0.84517 0.77416 0.0
C41 C 0.67266 0.80862 0.93915 0.0
Zn42 Zn 0.51729 0.20622 0.22253 0.0
Zn43 Zn 0.5474 0.29332 0.1987 0.0
O44 O 0.48683 0.29816 0.22703 0.0
O45 O 0.46061 0.21996 0.24113 0.0
O46 O 0.57022 0.35344 0.16633 0.0
O47 O 0.56769 0.22913 0.28045 0.0
O48 O 0.59428 0.30324 0.25781 0.0
C49 C 0.45714 0.26624 0.24259 0.0
C50 C 0.55195 0.18659 0.12908 0.0
O51 O 0.56079 0.23671 0.14047 0.0
O52 O 0.528 0.16155 0.15538 0.0
C53 C 0.56103 0.34134 0.11758 0.0
O54 O 0.52728 0.30139 0.09562 0.0
C55 C 0.59713 0.27192 0.28612 0.0
Zn56 Zn 0.2054 0.85166 0.06281 0.0
Zn57 Zn 0.17342 0.86843 0.13845 0.0
O58 O 0.15431 0.93716 0.11054 0.0
O59 O 0.18114 0.92399 0.04063 0.0
O60 O 0.13558 0.8643 0.19016 0.0
O61 O 0.17147 0.76259 0.03145 0.0
O62 O 0.1476 0.78056 0.10339 0.0
C63 C 0.15904 0.95111 0.06796 0.0
C64 C 0.26765 0.86634 0.16955 0.0
O65 O 0.23507 0.8792 0.18712 0.0
O66 O 0.26495 0.85598 0.12018 0.0
C67 C 0.09676 0.84198 0.17033 0.0
O68 O 0.08541 0.83729 0.12141 0.0
C69 C 0.15032 0.7443 0.06427 0.0
Zn70 Zn 0.52185 0.79702 0.4851 0.0
Zn71 Zn 0.5604 0.78696 0.41025 0.0
O72 O 0.58178 0.87214 0.45219 0.0
O73 O 0.55351 0.88559 0.5216 0.0
O74 O 0.60373 0.80038 0.36197 0.0
O75 O 0.54488 0.72421 0.50585 0.0
O76 O 0.57657 0.71554 0.43897 0.0
C77 C 0.57627 0.90625 0.49126 0.0
C78 C 0.46491 0.78835 0.37692 0.0
O79 O 0.49907 0.77863 0.36072 0.0
O80 O 0.46474 0.79346 0.42551 0.0
C81 C 0.60164 0.83828 0.34159 0.0
O82 O 0.56863 0.85807 0.34673 0.0
C83 C 0.5687 0.69882 0.4799 0.0
Zn84 Zn 0.70523 0.35129 0.56456 0.0
Zn85 Zn 0.67241 0.36761 0.63973 0.0
O86 O 0.65358 0.43659 0.61134 0.0
O87 O 0.68122 0.42369 0.54198 0.0
O88 O 0.6336 0.36261 0.69066 0.0
O89 O 0.67173 0.26209 0.53247 0.0
O90 O 0.64707 0.27958 0.6039 0.0
C91 C 0.65882 0.45072 0.56888 0.0
C92 C 0.76688 0.36612 0.67216 0.0
O93 O 0.73405 0.37864 0.68944 0.0
O94 O 0.7643 0.35565 0.62277 0.0
C95 C 0.59483 0.34003 0.67064 0.0
O96 O 0.58358 0.33575 0.62179 0.0
C97 C 0.65021 0.24346 0.56485 0.0
Zn98 Zn 0.02372 0.29814 0.98703 0.0
Zn99 Zn 0.0613 0.28798 0.91179 0.0
O100 O 0.08309 0.37356 0.95426 0.0
O101 O 0.05553 0.38657 0.02427 0.0
O102 O 0.10395 0.30082 0.86296 0.0
O103 O 0.04626 0.22511 0.00726 0.0
O104 O 0.0772 0.21624 0.93978 0.0
C105 C 0.07806 0.40753 0.99389 0.0
C106 C 0.96628 0.28865 0.87866 0.0
O107 O 1.00014 0.2788 0.86191 0.0
O108 O 0.96678 0.29446 0.92741 0.0
C109 C 0.10158 0.3384 0.84226 0.0
O110 O 0.06888 0.35869 0.84806 0.0
C111 C 0.06958 0.19946 0.98071 0.0
Zn112 Zn 0.54727 0.97538 0.34812 0.0
Zn113 Zn 0.48603 0.07584 0.31396 0.0
O114 O 0.51676 0.11755 0.39073 0.0
O115 O 0.53592 0.04742 0.36208 0.0
O116 O 0.43439 0.09627 0.28831 0.0
O117 O 0.55033 0.03723 0.31209 0.0
O118 O 0.52594 0.0752 0.25878 0.0
C119 C 0.53892 0.08682 0.39905 0.0
C120 C 0.45813 0.9439 0.29842 0.0
O121 O 0.46409 0.9934 0.30176 0.0
O122 O 0.48734 0.92557 0.31631 0.0
C123 C 0.39807 0.06153 0.27973 0.0
O124 O 0.39353 0.01931 0.29757 0.0
C125 C 0.54278 0.0389 0.2657 0.0
Zn126 Zn 0.30768 0.2913 0.52242 0.0
Zn127 Zn 0.33619 0.21423 0.50579 0.0
O128 O 0.35592 0.24989 0.44114 0.0
O129 O 0.34485 0.3267 0.46477 0.0
O130 O 0.36671 0.15899 0.48291 0.0
O131 O 0.33479 0.31868 0.60518 0.0
O132 O 0.36206 0.25186 0.58665 0.0
C133 C 0.36048 0.29614 0.43272 0.0
C134 C 0.23692 0.17999 0.50436 0.0
O135 O 0.27142 0.16503 0.50387 0.0
O136 O 0.24193 0.22905 0.50408 0.0
C137 C 0.40619 0.16382 0.49615 0.0
O138 O 0.42853 0.15045 0.45943 0.0
C139 C 0.35595 0.28997 0.6212 0.0
Zn140 Zn 0.17731 0.10346 0.7774 0.0
Zn141 Zn 0.23159 0.03695 0.76957 0.0
O142 O 0.19256 0.03891 0.84684 0.0
O143 O 0.14583 0.0846 0.84089 0.0
O144 O 0.26982 0.96311 0.75961 0.0
O145 O 0.14605 0.08055 0.69869 0.0
O146 O 0.19248 0.03338 0.68685 0.0
C147 C 0.16106 0.05712 0.86648 0.0
C148 C 0.2725 0.16647 0.78422 0.0
O149 O 0.27947 0.11951 0.77661 0.0
O150 O 0.2347 0.16865 0.79178 0.0
C151 C 0.30357 0.94892 0.77886 0.0
O152 O 0.32767 0.9827 0.82002 0.0
C153 C 0.16343 0.05313 0.66647 0.0
Zn154 Zn 0.48694 0.98118 0.98589 0.0
Zn155 Zn 0.41557 1.01001 0.00077 0.0
O156 O 0.41191 0.96624 0.92863 0.0
O157 O 0.45801 0.91808 0.93459 0.0
O158 O 0.36765 0.04142 0.00607 0.0
O159 O 0.47562 0.98699 0.05993 0.0
O160 O 0.40699 0.95597 0.04023 0.0
C161 C 0.42734 0.9276 0.91065 0.0
C162 C 0.50034 0.07092 0.00445 0.0
O163 O 0.47075 0.06949 0.03192 0.0
O164 O 0.48882 0.04614 0.95816 0.0
C165 C 0.37915 0.08912 0.0033 0.0
O166 O 0.41703 0.10798 0.99112 0.0
C167 C 0.44195 0.95399 0.06258 0.0
Zn168 Zn 0.41712 0.35576 0.02759 0.0
Zn169 Zn 0.39215 0.43672 0.04313 0.0
O170 O 0.37375 0.39687 0.96285 0.0
O171 O 0.39012 0.32239 0.94564 0.0
O172 O 0.35651 0.48609 0.03588 0.0
O173 O 0.37947 0.32684 0.08664 0.0
O174 O 0.36922 0.40472 0.10941 0.0
C175 C 0.3751 0.35579 0.92896 0.0
C176 C 0.49011 0.46661 0.04578 0.0
O177 O 0.45719 0.48449 0.0497 0.0
O178 O 0.4831 0.41677 0.04347 0.0
C179 C 0.36392 0.50453 0.99706 0.0
O180 O 0.40002 0.50362 0.97874 0.0
C181 C 0.36439 0.35838 0.11827 0.0
Zn182 Zn 0.73795 0.17932 0.06545 0.0
Zn183 Zn 0.80682 0.14155 0.05106 0.0
O184 O 0.81712 0.19337 0.00896 0.0
O185 O 0.74832 0.16791 0.99045 0.0
O186 O 0.85187 0.10534 0.04182 0.0
O187 O 0.77125 0.24124 0.11661 0.0
O188 O 0.81339 0.18841 0.12346 0.0
C189 C 0.78326 0.19731 0.98577 0.0
C190 C 0.72069 0.08863 0.05065 0.0
O191 O 0.74986 0.08458 0.02329 0.0
O192 O 0.73314 0.11619 0.09594 0.0
C193 C 0.84666 0.07746 0.99599 0.0
O194 O 0.81492 0.07752 0.96259 0.0
C195 C 0.79983 0.22883 0.14144 0.0
Zn196 Zn 0.18988 0.71874 0.20268 0.0
Zn197 Zn 0.25506 0.60142 0.24859 0.0
O198 O 0.22045 0.62828 0.30464 0.0
O199 O 0.20311 0.66865 0.24863 0.0
O200 O 0.29302 0.56351 0.27804 0.0
O201 O 0.20423 0.64314 0.19541 0.0
O202 O 0.21487 0.56449 0.17746 0.0
C203 C 0.20397 0.66371 0.29446 0.0
C204 C 0.28291 0.70438 0.23901 0.0
O205 O 0.30045 0.6695 0.24723 0.0
O206 O 0.24299 0.68884 0.22058 0.0
C207 C 0.3145 0.59582 0.31966 0.0
O208 O 0.3038 0.63977 0.33782 0.0
C209 C 0.19458 0.59616 0.16558 0.0
Zn210 Zn 0.91668 0.85575 0.52759 0.0
Zn211 Zn 0.89126 0.93673 0.54279 0.0
O212 O 0.87292 0.89638 0.46283 0.0
O213 O 0.8897 0.82213 0.44569 0.0
O214 O 0.85544 0.98594 0.53482 0.0
O215 O 0.87913 0.8268 0.5866 0.0
O216 O 0.86837 0.90449 0.60893 0.0
C217 C 0.87433 0.85528 0.42902 0.0
C218 C 0.98938 0.96683 0.54581 0.0
O219 O 0.95638 0.98461 0.54944 0.0
O220 O 0.98247 0.91703 0.54362 0.0
C221 C 0.86305 1.00423 0.49593 0.0
O222 O 0.89911 1.00287 0.47767 0.0
C223 C 0.86379 0.85825 0.61798 0.0
Zn224 Zn 0.04861 0.04162 0.27187 0.0
Zn225 Zn 0.99395 0.10796 0.2797 0.0
O226 O 0.03331 0.11299 0.36343 0.0
O227 O 0.07942 0.06526 0.35099 0.0
O228 O 0.95203 0.17819 0.27979 0.0
O229 O 0.08066 0.0604 0.20831 0.0
O230 O 0.03399 0.1062 0.20294 0.0
C231 C 0.0624 0.0929 0.38352 0.0
C232 C 0.95389 0.97745 0.26594 0.0
O233 O 0.94672 0.02437 0.27339 0.0
O234 O 0.99162 0.97557 0.25782 0.0
C235 C 0.92941 0.21078 0.30272 0.0
O236 O 0.92749 0.21423 0.35151 0.0
C237 C 0.06564 0.08839 0.18314 0.0
Zn238 Zn 0.23625 0.67979 0.56774 0.0
Zn239 Zn 0.30599 0.63887 0.5543 0.0
O240 O 0.3167 0.68939 0.51145 0.0
O241 O 0.24771 0.66646 0.49352 0.0
O242 O 0.35077 0.60206 0.54537 0.0
O243 O 0.27122 0.74153 0.6175 0.0
O244 O 0.31264 0.68793 0.62559 0.0
C245 C 0.28315 0.69445 0.48865 0.0
C246 C 0.21979 0.58829 0.55428 0.0
O247 O 0.24884 0.58258 0.52718 0.0
O248 O 0.23239 0.61738 0.59897 0.0
C249 C 0.34547 0.57435 0.49942 0.0
O250 O 0.31374 0.57466 0.46616 0.0
C251 C 0.29966 0.72907 0.64265 0.0
Zn252 Zn 0.54879 0.54108 0.77158 0.0
Zn253 Zn 0.49379 0.60716 0.77942 0.0
O254 O 0.53334 0.61242 0.8631 0.0
O255 O 0.57961 0.56493 0.85066 0.0
O256 O 0.45178 0.67754 0.77981 0.0
O257 O 0.58091 0.56039 0.70832 0.0
O258 O 0.53393 0.60576 0.7028 0.0
C259 C 0.56258 0.59255 0.88318 0.0
C260 C 0.45418 0.47617 0.76515 0.0
O261 O 0.44684 0.52304 0.77267 0.0
O262 O 0.49201 0.47462 0.75722 0.0
C263 C 0.42901 0.70994 0.80283 0.0
O264 O 0.42679 0.71281 0.85148 0.0
C265 C 0.56574 0.58825 0.68312 0.0
Zn266 Zn 0.68458 0.19542 0.70844 0.0
Zn267 Zn 0.74016 0.08906 0.74775 0.0
O268 O 0.70296 0.10199 0.80479 0.0
O269 O 0.68206 0.13702 0.74671 0.0
O270 O 0.78933 0.0632 0.77342 0.0
O271 O 0.69383 0.12224 0.69664 0.0
O272 O 0.70672 0.04695 0.67267 0.0
C273 C 0.68778 0.1381 0.7938 0.0
C274 C 0.77597 0.21718 0.75207 0.0
O275 O 0.7696 0.16867 0.75356 0.0
O276 O 0.74673 0.23628 0.73531 0.0
C277 C 0.8113 0.09593 0.81446 0.0
O278 O 0.79773 0.13677 0.83577 0.0
C279 C 0.68801 0.08011 0.66189 0.0
Zn280 Zn 0.80838 0.79315 0.02319 0.0
Zn281 Zn 0.83639 0.71633 0.00555 0.0
O282 O 0.85489 0.75312 0.94166 0.0
O283 O 0.84495 0.83025 0.96583 0.0
O284 O 0.87162 0.66799 0.9785 0.0
O285 O 0.83564 0.82008 0.10598 0.0
O286 O 0.86064 0.75131 0.08709 0.0
C287 C 0.86008 0.79944 0.93346 0.0
C288 C 0.7379 0.67989 0.00436 0.0
O289 O 0.77231 0.66468 0.00266 0.0
O290 O 0.74302 0.72927 0.00499 0.0
C291 C 0.90391 0.65284 0.99138 0.0
O292 O 0.92198 0.62978 0.95436 0.0
C293 C 0.85534 0.78987 0.12182 0.0
Zn294 Zn 0.05127 0.47896 0.84978 0.0
Zn295 Zn 0.98582 0.57593 0.81623 0.0
O296 O 0.01695 0.61779 0.8928 0.0
O297 O 0.03938 0.55063 0.86247 0.0
O298 O 0.93303 0.59495 0.79114 0.0
O299 O 0.05127 0.53933 0.81215 0.0
O300 O 0.0243 0.57573 0.7593 0.0
C301 C 0.04065 0.58843 0.90034 0.0
C302 C 0.96121 0.4447 0.80363 0.0
O303 O 0.96622 0.49385 0.80602 0.0
O304 O 0.99125 0.42757 0.82133 0.0
C305 C 0.89742 0.55867 0.77917 0.0
O306 O 0.89376 0.51414 0.7928 0.0
C307 C 0.04221 0.54019 0.76569 0.0
Zn308 Zn 0.98707 0.48021 0.48525 0.0
Zn309 Zn 0.9153 0.50976 0.49981 0.0
O310 O 0.91216 0.46576 0.42779 0.0
O311 O 0.95838 0.41762 0.43339 0.0
O312 O 0.86772 0.54195 0.50444 0.0
O313 O 0.97494 0.48495 0.55887 0.0
O314 O 0.90609 0.45578 0.53942 0.0
C315 C 0.92774 0.42731 0.40955 0.0
C316 C 1.00001 0.57034 0.50438 0.0
O317 O 0.97025 0.56886 0.53158 0.0
O318 O 0.98874 0.54554 0.45809 0.0
C319 C 0.87934 0.58986 0.50227 0.0
O320 O 0.91736 0.60901 0.49052 0.0
C321 C 0.94074 0.45279 0.56167 0.0
Zn322 Zn 0.67687 0.60303 0.27722 0.0
Zn323 Zn 0.73151 0.53695 0.26959 0.0
O324 O 0.69246 0.53886 0.34683 0.0
O325 O 0.64545 0.58417 0.34071 0.0
O326 O 0.76969 0.46305 0.25933 0.0
O327 O 0.64583 0.57991 0.19828 0.0
O328 O 0.6927 0.53339 0.18671 0.0
C329 C 0.66089 0.55694 0.36642 0.0
C330 C 0.77199 0.66663 0.28491 0.0
O331 O 0.77918 0.61978 0.27725 0.0
O332 O 0.73406 0.66853 0.29209 0.0
C333 C 0.80371 0.44893 0.27795 0.0
O334 O 0.82844 0.48304 0.3185 0.0
C335 C 0.66354 0.55286 0.16616 0.0
Gd336 Gd 0.16245 0.11699 0.04964 0.0
Gd337 Gd 0.06342 0.03197 -0.00135 0.0
C338 C 0.01452 0.86724 0.02669 0.0
C339 C 1.00477 0.80787 0.94218 0.0
C340 C 0.04248 0.90227 0.95756 0.0
C341 C 0.0357 0.91031 0.0077 0.0
C342 C 0.02889 0.84997 0.92485 0.0
C343 C 0.99727 0.81661 0.99309 0.0
C344 C 0.01315 0.8758 0.0793 0.0
C345 C 0.03704 0.92422 0.11191 0.0
N346 N 0.05334 0.95954 0.0391 0.0
C347 C 0.05835 0.96485 0.09105 0.0
H348 H 0.07959 0.99929 0.11696 0.0
C349 C 0.07897 0.9339 0.89484 0.0
N350 N 0.06402 0.94502 0.94153 0.0
C351 C 0.06673 0.88294 0.86172 0.0
C352 C 0.04005 0.84122 0.87577 0.0
H353 H 0.0976 0.96252 0.87822 0.0
H354 H 0.98003 0.78346 0.00669 0.0
H355 H 0.14235 0.14383 0.92833 0.0
H356 H 0.99692 0.84406 0.09538 0.0
H357 H 0.03981 0.92998 0.15313 0.0
H358 H 0.99305 0.76808 0.91698 0.0
H359 H 0.12585 0.1874 0.16647 0.0
H360 H 0.21907 0.30058 0.94338 0.0
H361 H 0.17784 0.21229 0.88871 0.0
H362 H 0.22592 0.38101 0.12107 0.0
H363 H 0.07674 0.87666 0.82423 0.0
H364 H 0.02947 0.80214 0.84917 0.0
H365 H 0.23777 0.36329 0.031 0.0
H366 H 0.14404 0.27576 0.21763 0.0
N367 N 0.16953 0.18642 0.00518 0.0
C368 C 0.20482 0.26918 0.96096 0.0
C369 C 0.18195 0.21944 0.9301 0.0
C370 C 0.20514 0.2791 0.01391 0.0
C371 C 0.186 0.2366 0.03488 0.0
C372 C 0.16338 0.17914 0.95293 0.0
N373 N 0.15941 0.20398 0.10309 0.0
C374 C 0.17952 0.24608 0.08512 0.0
C375 C 0.15452 0.26795 0.18036 0.0
C376 C 0.18017 0.30918 0.16442 0.0
C377 C 0.14396 0.21596 0.14928 0.0
C378 C 0.19183 0.29904 0.11588 0.0
H379 H 0.19034 0.34902 0.18903 0.0
O380 O 0.22422 0.10377 0.07535 0.0
O381 O 0.1265 0.03022 0.03846 0.0
O382 O 0.05606 0.06795 0.08477 0.0
O383 O 0.12535 0.10722 0.12311 0.0
O384 O 0.18462 0.05173 0.08036 0.0
O385 O 0.21993 0.14677 0.01743 0.0
O386 O 0.00554 0.0551 0.97772 0.0
O387 O 0.09995 0.11864 0.01003 0.0
O388 O 0.1706 0.07722 0.96484 0.0
O389 O 0.10121 0.04135 0.9262 0.0
O390 O 0.04267 0.09832 0.96755 0.0
O391 O 1.00283 1.00155 0.02632 0.0
C392 C 0.15383 1.00883 0.06033 0.0
C393 C 0.21491 0.34061 0.09706 0.0
C394 C 0.22177 0.33057 0.04597 0.0
C395 C 0.243 0.12424 0.04126 0.0
C396 C 0.28945 0.14349 0.04749 0.0
C397 C 0.31233 0.19462 0.07632 0.0
C398 C 0.31134 0.10892 0.0227 0.0
C399 C 0.35597 0.1256 0.02658 0.0
C400 C 0.357 0.20917 0.08327 0.0
C401 C 0.37895 0.17569 0.05755 0.0
C402 C 0.08295 0.09223 0.12822 0.0
C403 C 0.07381 0.14099 0.98752 0.0
C404 C 0.98321 0.0309 0.00707 0.0
C405 C 0.93675 1.01322 0.99225 0.0
C406 C 0.91422 0.96 0.96999 0.0
C407 C 0.91462 0.05218 3e-05 0.0
C408 C 0.8705 0.0384 0.98342 0.0
C409 C 0.87024 0.94705 0.95258 0.0
C410 C 0.84849 0.98589 0.95833 0.0
C411 C 0.14368 0.0539 0.92131 0.0
H412 H 0.29634 0.22316 0.09375 0.0
H413 H 0.29365 0.06929 4e-05 0.0
H414 H 0.3748 0.24585 0.10924 0.0
H415 H 0.41378 0.1882 0.06335 0.0
H416 H 0.93046 0.92899 0.96535 0.0
H417 H 0.93176 0.0933 0.01872 0.0
H418 H 0.85255 0.90717 0.93433 0.0
H419 H 0.8142 0.97448 0.94523 0.0
Gd420 Gd 0.34371 0.85602 0.32521 0.0
Gd421 Gd 0.38982 0.80212 0.21985 0.0
C422 C 0.38287 0.65545 0.10341 0.0
C423 C 0.45774 0.67733 0.09334 0.0
C424 C 0.43579 0.71784 0.17308 0.0
C425 C 0.3928 0.69316 0.15162 0.0
C426 C 0.46858 0.70908 0.14393 0.0
C427 C 0.41544 0.64797 0.07431 0.0
C428 C 0.34007 0.63229 0.08206 0.0
C429 C 0.30841 0.65059 0.1052 0.0
N430 N 0.36166 0.71402 0.17151 0.0
C431 C 0.32047 0.69519 0.14671 0.0
H432 H 0.29789 0.7175 0.1555 0.0
C433 C 0.48733 0.78397 0.23758 0.0
N434 N 0.44515 0.75902 0.21611 0.0
C435 C 0.52073 0.76973 0.21387 0.0
C436 C 0.51132 0.73544 0.16496 0.0
H437 H 0.49524 0.81855 0.26997 0.0
H438 H 0.40797 0.62224 0.03567 0.0
H439 H 0.4354 0.9507 0.38018 0.0
H440 H 0.33167 0.60442 0.04514 0.0
H441 H 0.27551 0.6342 0.08746 0.0
H442 H 0.4821 0.67455 0.0687 0.0
H443 H 0.23832 0.84659 0.27898 0.0
H444 H 0.40518 0.05682 0.50199 0.0
H445 H 0.45898 0.03246 0.44989 0.0
H446 H 0.25392 0.98046 0.48913 0.0
H447 H 0.55384 0.78953 0.23072 0.0
H448 H 0.5373 0.72951 0.14383 0.0
H449 H 0.32871 0.03516 0.51818 0.0
H450 H 0.18028 0.86677 0.3249 0.0
N451 N 0.36988 0.94551 0.37517 0.0
C452 C 0.39484 0.02762 0.46548 0.0
C453 C 0.42528 1.01316 0.43645 0.0
C454 C 0.35156 1.00107 0.44882 0.0
C455 C 0.33997 0.96267 0.40108 0.0
C456 C 0.41214 0.96924 0.39375 0.0
N457 N 0.28865 0.89893 0.33765 0.0
C458 C 0.29771 0.93632 0.38293 0.0
C459 C 0.21331 0.88513 0.34253 0.0
C460 C 0.2229 0.91661 0.39289 0.0
C461 C 0.24667 0.87525 0.31585 0.0
C462 C 0.26562 0.94391 0.41335 0.0
H463 H 0.19708 0.92111 0.41463 0.0
O464 O 0.29883 0.806 0.36006 0.0
O465 O 0.3442 0.78055 0.2705 0.0
O466 O 0.32667 0.8217 0.18721 0.0
O467 O 0.31446 0.88327 0.25622 0.0
O468 O 0.28512 0.79216 0.28102 0.0
O469 O 0.35748 0.86504 0.40671 0.0
O470 O 0.44319 0.83145 0.18333 0.0
O471 O 0.40211 0.86755 0.28988 0.0
O472 O 0.40417 0.83146 0.35939 0.0
O473 O 0.4232 0.77889 0.28917 0.0
O474 O 0.41276 0.89008 0.22486 0.0
O475 O 0.37906 0.78896 0.1376 0.0
C476 C 0.3046 0.76053 0.2571 0.0
C477 C 0.27752 0.97735 0.46345 0.0
C478 C 0.32014 1.00796 0.48023 0.0
C479 C 0.32021 0.83208 0.405 0.0
C480 C 0.3071 0.81864 0.44955 0.0
C481 C 0.28539 0.84902 0.48091 0.0
C482 C 0.30762 0.76866 0.45332 0.0
C483 C 0.28361 0.74701 0.48638 0.0
C484 C 0.26294 0.82804 0.51623 0.0
C485 C 0.26014 0.77589 0.51726 0.0
C486 C 0.30565 0.85801 0.20573 0.0
C487 C 0.41696 0.90714 0.27357 0.0
C488 C 0.42058 0.80728 0.13792 0.0
C489 C 0.43411 0.82864 0.0972 0.0
C490 C 0.45913 0.80479 0.06475 0.0
C491 C 0.42676 0.87634 0.09489 0.0
C492 C 0.44678 0.90242 0.0617 0.0
C493 C 0.47893 0.83091 0.03071 0.0
C494 C 0.47394 0.88064 0.03034 0.0
C495 C 0.42806 0.79873 0.34036 0.0
H496 H 0.28605 0.88843 0.47833 0.0
H497 H 0.32433 0.74537 0.42822 0.0
H498 H 0.24754 0.85187 0.54207 0.0
H499 H 0.23968 0.75845 0.54177 0.0
H500 H 0.46507 0.76771 0.06738 0.0
H501 H 0.40747 0.89434 0.12065 0.0
H502 H 0.49989 0.81419 0.00696 0.0
H503 H 0.49275 0.90258 0.00736 0.0
Gd504 Gd 0.57003 0.0829 0.56167 0.0
Gd505 Gd 0.65373 0.06646 0.49542 0.0
C506 C 0.74224 0.22199 0.49182 0.0
C507 C 0.7355 0.21313 0.40091 0.0
C508 C 0.69082 0.14571 0.43241 0.0
C509 C 0.71102 0.17271 0.48253 0.0
C510 C 0.70107 0.16829 0.39197 0.0
C511 C 0.75421 0.24198 0.45048 0.0
C512 C 0.76074 0.24949 0.54217 0.0
C513 C 0.74723 0.22815 0.58232 0.0
N514 N 0.7002 0.15139 0.52196 0.0
C515 C 0.71782 0.1779 0.5715 0.0
H516 H 0.70827 0.16142 0.60284 0.0
C517 C 0.64683 0.06745 0.37304 0.0
N518 N 0.66274 0.09683 0.42258 0.0
C519 C 0.65188 0.09179 0.33279 0.0
C520 C 0.67764 0.14385 0.34319 0.0
H521 H 0.62769 0.02656 0.3654 0.0
H522 H 0.77766 0.27954 0.4563 0.0
H523 H 0.53061 0.99756 0.43771 0.0
H524 H 0.78465 0.28762 0.55036 0.0
H525 H 0.75896 0.25078 0.62145 0.0
H526 H 0.74986 0.22239 0.36944 0.0
H527 H 0.59497 0.09128 0.68863 0.0
H528 H 0.43874 0.86677 0.46182 0.0
H529 H 0.48071 0.91002 0.40374 0.0
H530 H 0.45845 0.89149 0.6401 0.0
H531 H 0.63639 0.07062 0.29412 0.0
H532 H 0.68006 0.16481 0.31342 0.0
H533 H 0.44046 0.85267 0.54777 0.0
H534 H 0.56848 0.03755 0.74667 0.0
N535 N 0.52666 0.9989 0.51644 0.0
C536 C 0.46484 0.90246 0.47715 0.0
C537 C 0.48669 0.92831 0.44439 0.0
C538 C 0.47802 0.92173 0.52968 0.0
C539 C 0.51023 0.97013 0.54898 0.0
C540 C 0.51567 0.97826 0.46437 0.0
N541 N 0.55888 0.0332 0.62071 0.0
C542 C 0.52644 0.98766 0.60162 0.0
C543 C 0.55659 0.02326 0.70603 0.0
C544 C 0.52315 0.97729 0.68698 0.0
C545 C 0.57294 0.05232 0.67241 0.0
C546 C 0.50757 0.95905 0.63486 0.0
H547 H 0.50927 0.95589 0.71247 0.0
O548 O 0.54143 0.12234 0.6246 0.0
O549 O 0.62795 0.13463 0.53832 0.0
O550 O 0.67066 0.05216 0.57153 0.0
O551 O 0.62949 0.0979 0.61783 0.0
O552 O 0.59141 0.17369 0.582 0.0
O553 O 0.50254 0.07526 0.55186 0.0
O554 O 0.68212 0.01712 0.44244 0.0
O555 O 0.59731 0.01519 0.52058 0.0
O556 O 0.55146 0.10491 0.49001 0.0
O557 O 0.59685 0.06774 0.442 0.0
O558 O 0.6293 0.97683 0.46961 0.0
O559 O 0.71858 0.06319 0.5179 0.0
C560 C 0.62448 0.18289 0.55867 0.0
C561 C 0.47404 0.91273 0.61526 0.0
C562 C 0.46171 0.89213 0.56283 0.0
C563 C 0.5031 0.10412 0.59785 0.0
C564 C 0.47343 0.13746 0.6014 0.0
C565 C 0.44623 0.13543 0.63889 0.0
C566 C 0.46301 0.15624 0.55906 0.0
C567 C 0.42205 0.16353 0.54904 0.0
C568 C 0.40708 0.14732 0.63159 0.0
C569 C 0.39408 0.15859 0.58579 0.0
C570 C 0.65973 0.07302 0.6149 0.0
C571 C 0.60059 0.96713 0.49863 0.0
C572 C 0.71746 0.0287 0.47459 0.0
C573 C 0.75727 0.02818 0.45361 0.0
C574 C 0.76157 0.03206 0.40341 0.0
C575 C 0.78984 0.01736 0.48307 0.0
C576 C 0.82835 0.01465 0.46447 0.0
C577 C 0.79837 0.02507 0.38316 0.0
C578 C 0.83198 0.01736 0.41361 0.0
C579 C 0.56587 0.09175 0.44671 0.0
H580 H 0.45346 0.12029 0.67153 0.0
H581 H 0.48419 0.15708 0.53011 0.0
H582 H 0.3852 0.14327 0.65945 0.0
H583 H 0.36123 0.1598 0.57791 0.0
H584 H 0.7362 0.03894 0.3795 0.0
H585 H 0.78511 1.01132 0.52077 0.0
H586 H 0.80105 0.02629 0.34391 0.0
H587 H 0.86049 1.01289 0.397 0.0
Gd588 Gd 0.40592 0.29108 0.77644 0.0
Gd589 Gd 0.32196 0.35073 0.77693 0.0
C590 C 0.24657 0.31363 0.6197 0.0
C591 C 0.26367 0.39754 0.59709 0.0
C592 C 0.29084 0.39136 0.68161 0.0
C593 C 0.27296 0.33739 0.66699 0.0
C594 C 0.28732 0.42206 0.64617 0.0
C595 C 0.24121 0.34378 0.58499 0.0
C596 C 0.23256 0.25895 0.60504 0.0
C597 C 0.25619 0.23029 0.62632 0.0
N598 N 0.2864 0.30712 0.69509 0.0
C599 C 0.28122 0.25463 0.67358 0.0
H600 H 0.29768 0.23177 0.69129 0.0
C601 C 0.32969 0.46751 0.74534 0.0
N602 N 0.31425 0.4132 0.72883 0.0
C603 C 0.3303 0.49873 0.71032 0.0
C604 C 0.30876 0.47608 0.66054 0.0
H605 H 0.34487 0.4866 0.78452 0.0
H606 H 0.22337 0.32495 0.54706 0.0
H607 H 0.43833 0.41082 0.86127 0.0
H608 H 0.20688 0.24026 0.57414 0.0
H609 H 0.25406 0.18932 0.60842 0.0
H610 H 0.26131 0.4201 0.56896 0.0
H611 H 0.37506 0.15374 0.76738 0.0
H612 H 0.5223 0.3927 0.98067 0.0
H613 H 0.48071 0.44834 0.9454 0.0
H614 H 0.46266 0.21184 0.97963 0.0
H615 H 0.34858 0.53984 0.72115 0.0
H616 H 0.30849 0.50061 0.6338 0.0
H617 H 0.50334 0.30642 0.00382 0.0
H618 H 0.36925 0.0989 0.82865 0.0
N619 N 0.44238 0.33275 0.85809 0.0
C620 C 0.49734 0.37584 0.94837 0.0
C621 C 0.47754 0.40761 0.92648 0.0
C622 C 0.47926 0.32149 0.93339 0.0
C623 C 0.45182 0.30019 0.88639 0.0
C624 C 0.45259 0.3859 0.87893 0.0
N625 N 0.40584 0.22658 0.82449 0.0
C626 C 0.43046 0.24671 0.87137 0.0
C627 C 0.38785 0.14004 0.84067 0.0
C628 C 0.41119 0.16071 0.8895 0.0
C629 C 0.38921 0.17239 0.80697 0.0
C630 C 0.43398 0.21423 0.90509 0.0
H631 H 0.41221 0.13451 0.91392 0.0
O632 O 0.43616 0.23162 0.73932 0.0
O633 O 0.36377 0.31651 0.72339 0.0
O634 O 0.29291 0.26466 0.78827 0.0
O635 O 0.34366 0.22079 0.76621 0.0
O636 O 0.39955 0.27024 0.68897 0.0
O637 O 0.47483 0.31093 0.78426 0.0
O638 O 0.28946 0.40279 0.82114 0.0
O639 O 0.35978 0.31783 0.82916 0.0
O640 O 0.43563 0.3787 0.76729 0.0
O641 O 0.38198 0.42095 0.77875 0.0
O642 O 0.35 0.39158 0.8597 0.0
O643 O 0.25491 0.32044 0.78405 0.0
C644 C 0.37346 0.29674 0.67856 0.0
C645 C 0.45978 0.23613 0.95325 0.0
C646 C 0.48327 0.28961 0.96683 0.0
C647 C 0.47456 0.26356 0.75782 0.0
C648 C 0.51047 0.2592 0.72971 0.0
C649 C 0.52814 0.21713 0.73189 0.0
C650 C 0.53159 0.29978 0.70851 0.0
C651 C 0.57143 0.29902 0.69273 0.0
C652 C 0.56788 0.21681 0.71686 0.0
C653 C 0.58978 0.25792 0.69776 0.0
C654 C 0.30539 0.21973 0.78097 0.0
C655 C 0.36317 0.35369 0.8716 0.0
C656 C 0.25323 0.36563 0.81289 0.0
C657 C 0.21309 0.38039 0.80639 0.0
C658 C 0.21172 0.42672 0.79159 0.0
C659 C 0.17635 0.34983 0.82044 0.0
C660 C 0.1384 0.36582 0.82057 0.0
C661 C 0.17382 0.44217 0.79041 0.0
C662 C 0.13756 0.41221 0.80516 0.0
C663 C 0.42181 0.42259 0.76946 0.0
H664 H 0.51176 0.18516 0.74648 0.0
H665 H 0.51817 0.33249 0.70625 0.0
H666 H 0.58183 0.18491 0.7204 0.0
H667 H 0.62089 0.25732 0.68649 0.0
H668 H 0.24026 0.45163 0.78257 0.0
H669 H 0.1781 0.31506 0.83364 0.0
H670 H 0.17282 0.47836 0.77977 0.0
H671 H 0.10952 0.42669 0.80663 0.0
Gd672 Gd 0.13226 0.01927 0.4954 0.0
Gd673 Gd 0.09474 0.12578 0.55458 0.0
C674 C 0.13077 0.1914 0.72718 0.0
C675 C 0.06287 0.1771 0.75934 0.0
C676 C 0.06566 0.14368 0.66796 0.0
C677 C 0.10953 0.16376 0.67711 0.0
C678 C 0.04208 0.14785 0.70987 0.0
C679 C 0.10721 0.19955 0.76779 0.0
C680 C 0.17532 0.20611 0.73588 0.0
C681 C 0.19708 0.18726 0.69689 0.0
N682 N 0.13197 0.15272 0.63795 0.0
C683 C 0.17517 0.16291 0.64738 0.0
H684 H 0.19153 0.14836 0.61685 0.0
C685 C 1.00216 0.0996 0.61044 0.0
N686 N 0.04627 0.11925 0.61871 0.0
C687 C 0.97839 0.09715 0.65116 0.0
C688 C 0.99827 0.12249 0.70108 0.0
H689 H 0.98408 0.08657 0.57226 0.0
H690 H 0.12333 0.2202 0.80636 0.0
H691 H 0.03593 0.99818 0.43329 0.0
H692 H 0.19263 0.2275 0.77372 0.0
H693 H 0.23014 0.18895 0.70547 0.0
H694 H 0.04505 0.18185 0.79143 0.0
H695 H 0.24264 0.06065 0.47809 0.0
H696 H 0.03435 0.91939 0.27642 0.0
H697 H 0.99712 0.95802 0.34533 0.0
H698 H 0.18174 0.96951 0.25795 0.0
H699 H 0.94397 0.07945 0.64353 0.0
H700 H 0.9793 0.12377 0.73226 0.0
H701 H 0.10316 0.93278 0.24286 0.0
H702 H 0.28311 0.06687 0.40726 0.0
N703 N 0.0952 0.99247 0.41222 0.0
C704 C 0.05172 0.94072 0.31422 0.0
C705 C 0.03006 0.9591 0.3535 0.0
C706 C 0.09627 0.9561 0.32262 0.0
C707 C 0.11757 0.98235 0.37288 0.0
C708 C 0.05209 0.98281 0.40296 0.0
N709 N 0.18059 0.02675 0.43134 0.0
C710 C 0.16137 1.00271 0.38203 0.0
C711 C 0.24868 0.04923 0.3994 0.0
C712 C 0.22892 0.02454 0.34931 0.0
C713 C 0.22466 0.04696 0.4399 0.0
C714 C 0.18501 0.99965 0.34016 0.0
H715 H 0.24798 0.02377 0.31823 0.0
O716 O 0.16857 0.96148 0.49487 0.0
O717 O 0.12917 0.06598 0.57535 0.0
O718 O 0.15903 0.15979 0.52299 0.0
O719 O 0.19112 0.09253 0.51284 0.0
O720 O 0.16595 1.01444 0.57241 0.0
O721 O 0.09919 0.93532 0.47277 0.0
O722 O 0.06094 0.18584 0.55182 0.0
O723 O 0.09743 0.07926 0.47424 0.0
O724 O 0.06648 0.98427 0.52405 0.0
O725 O 0.0362 0.05344 0.53951 0.0
O726 O 0.06092 0.13156 0.47809 0.0
O727 O 0.12885 0.20796 0.58417 0.0
C728 C 0.15082 0.04533 0.60544 0.0
C729 C 0.16405 0.97255 0.29025 0.0
C730 C 0.11964 0.95057 0.28164 0.0
C731 C 0.13367 0.92187 0.48554 0.0
C732 C 0.13019 0.88722 0.5211 0.0
C733 C 0.16086 0.85919 0.52423 0.0
C734 C 0.09774 0.88262 0.55288 0.0
C735 C 0.09689 0.85106 0.5878 0.0
C736 C 0.15937 0.82684 0.55815 0.0
C737 C 0.12797 0.82328 0.59018 0.0
C738 C 0.19313 0.14216 0.51207 0.0
C739 C 0.07565 0.10049 0.44461 0.0
C740 C 0.09651 0.22408 0.5694 0.0
C741 C 0.10747 0.26564 0.5425 0.0
C742 C 0.09703 0.31235 0.56307 0.0
C743 C 0.13237 0.26268 0.50182 0.0
C744 C 0.14999 0.30875 0.48571 0.0
C745 C 0.11234 0.35666 0.5452 0.0
C746 C 0.14068 0.35572 0.5092 0.0
C747 C 0.03344 1.00316 0.53774 0.0
H748 H 0.18569 0.86213 0.49983 0.0
H749 H 0.07335 0.90331 0.551 0.0
H750 H 0.18232 0.80404 0.5596 0.0
H751 H 0.12735 0.79763 0.61592 0.0
H752 H 0.07805 0.31469 0.5941 0.0
H753 H 0.13868 0.22573 0.48358 0.0
H754 H 0.10275 0.39191 0.56032 0.0
H755 H 0.15427 0.39096 0.4974 0.0
Gd756 Gd 0.32123 0.81059 0.80878 0.0
Gd757 Gd 0.40532 0.84465 0.74724 0.0
C758 C 0.38645 0.9938 0.70453 0.0
C759 C 0.36552 0.96294 0.61252 0.0
C760 C 0.37763 0.90126 0.66232 0.0
C761 C 0.38875 0.94241 0.70651 0.0
C762 C 0.36772 0.91196 0.61466 0.0
C763 C 0.37411 1.00359 0.65757 0.0
C764 C 0.39751 0.03435 0.74966 0.0
C765 C 0.41159 0.02382 0.79522 0.0
N766 N 0.40309 0.93287 0.75115 0.0
C767 C 0.41607 0.97361 0.7947 0.0
H768 H 0.43061 0.96849 0.82928 0.0
C769 C 0.37723 0.81372 0.62062 0.0
N770 N 0.38077 0.85232 0.66498 0.0
C771 C 0.36725 0.82252 0.573 0.0
C772 C 0.36341 0.87222 0.57002 0.0
H773 H 0.38457 0.77677 0.62144 0.0
H774 H 0.37222 0.04279 0.65555 0.0
H775 H 0.30204 0.6866 0.72084 0.0
H776 H 0.39681 0.07416 0.74905 0.0
H777 H 0.42167 0.05491 0.83053 0.0
H778 H 0.35777 0.97148 0.57612 0.0
H779 H 0.34658 0.87652 0.93557 0.0
H780 H 0.33775 0.58159 0.79886 0.0
H781 H 0.31604 0.60341 0.71767 0.0
H782 H 0.37036 0.67768 0.97363 0.0
H783 H 0.36713 0.79275 0.53862 0.0
H784 H 0.36134 0.8814 0.53326 0.0
H785 H 0.35998 0.61065 0.89236 0.0
H786 H 0.36104 0.85628 0.01718 0.0
N787 N 0.32365 0.72106 0.8009 0.0
C788 C 0.33384 0.62044 0.79954 0.0
C789 C 0.32266 0.63285 0.75409 0.0
C790 C 0.33979 0.65843 0.84595 0.0
C791 C 0.33554 0.70953 0.84559 0.0
C792 C 0.31611 0.68238 0.75575 0.0
N793 N 0.3446 0.79932 0.88979 0.0
C794 C 0.34602 0.74945 0.89096 0.0
C795 C 0.35949 0.82684 0.98204 0.0
C796 C 0.36335 0.77681 0.98353 0.0
C797 C 0.35067 0.83775 0.93493 0.0
C798 C 0.3571 0.73762 0.93786 0.0
H799 H 0.36916 0.76792 0.0201 0.0
O800 O 0.28729 0.85231 0.86678 0.0
O801 O 0.35071 0.8824 0.78084 0.0
O802 O 0.42896 0.87116 0.83108 0.0
O803 O 0.36605 0.88605 0.8521 0.0
O804 O 0.28533 0.84959 0.75848 0.0
O805 O 0.25657 0.77634 0.81534 0.0
O806 O 0.47201 0.88219 0.76867 0.0
O807 O 0.38192 0.7795 0.78769 0.0
O808 O 0.29724 0.78086 0.72467 0.0
O809 O 0.36086 0.77032 0.70153 0.0
O810 O 0.43565 0.7774 0.75145 0.0
O811 O 0.44936 0.83397 0.69122 0.0
C812 C 0.31546 0.8928 0.76188 0.0
C813 C 0.36076 0.68686 0.93814 0.0
C814 C 0.35336 0.64796 0.8921 0.0
C815 C 0.25292 0.81278 0.85297 0.0
C816 C 0.2093 0.81582 0.86152 0.0
C817 C 0.1996 0.82137 0.91173 0.0
C818 C 0.1755 0.801 0.82022 0.0
C819 C 0.13253 0.78817 0.82925 0.0
C820 C 0.157 0.80725 0.92039 0.0
C821 C 0.12369 0.78893 0.87923 0.0
C822 C 0.40651 0.89098 0.86402 0.0
C823 C 0.41298 0.75428 0.78074 0.0
C824 C 0.48217 0.86507 0.72369 0.0
C825 C 0.52501 0.85687 0.72068 0.0
C826 C 0.54546 0.86335 0.67786 0.0
C827 C 0.54875 0.85335 0.76417 0.0
C828 C 0.5934 0.86244 0.76771 0.0
C829 C 0.5901 0.87363 0.6815 0.0
C830 C 0.61423 0.87526 0.72724 0.0
C831 C 0.32029 0.76462 0.69041 0.0
H832 H 0.22502 0.83303 0.94408 0.0
H833 H 0.1825 0.79649 0.78118 0.0
H834 H 0.14977 0.80926 0.959 0.0
H835 H 0.091 0.77621 0.88663 0.0
H836 H 0.52753 0.8632 0.64252 0.0
H837 H 0.53245 0.84597 0.79628 0.0
H838 H 0.60601 0.88204 0.6495 0.0
H839 H 0.64883 0.88748 0.73165 0.0
Gd840 Gd 0.61289 0.11677 0.97985 0.0
Gd841 Gd 0.61003 0.05047 0.0775 0.0
C842 C 0.70648 0.14062 0.21872 0.0
C843 C 0.72643 0.0677 0.24444 0.0
C844 C 0.68452 0.05478 0.1623 0.0
C845 C 0.68052 0.10516 0.17564 0.0
C846 C 0.70728 0.0348 0.19602 0.0
C847 C 0.72715 0.12136 0.25509 0.0
C848 C 0.71542 0.19399 0.22014 0.0
C849 C 0.69747 0.21183 0.18162 0.0
N850 N 0.65892 0.12155 0.14032 0.0
C851 C 0.66959 0.17462 0.14103 0.0
H852 H 0.65881 0.18861 0.10937 0.0
C853 C 0.67315 0.97746 0.09659 0.0
N854 N 0.66691 0.02578 0.1145 0.0
C855 C 0.69179 0.95352 0.12963 0.0
C856 C 0.70953 0.98259 0.17965 0.0
H857 H 0.66026 0.95647 0.05831 0.0
H858 H 0.7451 0.14798 0.29074 0.0
H859 H 0.55632 0.98083 0.93501 0.0
H860 H 0.74204 0.21946 0.24494 0.0
H861 H 0.70722 0.25342 0.18152 0.0
H862 H 0.74313 0.05329 0.27213 0.0
H863 H 0.587 0.23173 6e-05 0.0
H864 H 0.49688 0.97005 0.78618 0.0
H865 H 0.51928 0.9255 0.85173 0.0
H866 H 0.48388 0.14045 0.7942 0.0
H867 H 0.69094 0.91225 0.11701 0.0
H868 H 0.72543 0.96476 0.20452 0.0
H869 H 0.48812 0.04932 0.76149 0.0
H870 H 0.56037 0.27968 0.94294 0.0
N871 N 0.56092 0.05434 0.91425 0.0
C872 C 0.51527 0.99265 0.82169 0.0
C873 C 0.5272 0.96824 0.85866 0.0
C874 C 0.52111 0.047 0.8335 0.0
C875 C 0.5423 0.07679 0.88198 0.0
C876 C 0.54916 1.00005 0.90581 0.0
N877 N 0.56344 0.15602 0.94666 0.0
C878 C 0.54259 0.12906 0.89902 0.0
C879 C 0.5531 0.23679 0.93103 0.0
C880 C 0.53015 0.20895 0.88255 0.0
C881 C 0.56769 0.20924 0.96373 0.0
C882 C 0.52402 0.15414 0.86642 0.0
H883 H 0.51854 0.23026 0.85739 0.0
O884 O 0.659 0.19725 0.99673 0.0
O885 O 0.65074 0.10523 0.04452 0.0
O886 O 0.58683 0.1193 0.11669 0.0
O887 O 0.58656 0.16412 0.05072 0.0
O888 O 0.67828 0.10182 0.97834 0.0
O889 O 0.62917 0.14933 0.91868 0.0
O890 O 0.56454 0.97104 0.06031 0.0
O891 O 0.57253 0.05951 0.01108 0.0
O892 O 0.63216 0.04201 0.93926 0.0
O893 O 0.62707 0.99898 0.00611 0.0
O894 O 0.54292 0.05816 0.07607 0.0
O895 O 0.60158 1.01002 0.13597 0.0
C896 C 0.68291 0.09786 0.02504 0.0
C897 C 0.50273 0.12427 0.81757 0.0
C898 C 0.50372 0.07167 0.79986 0.0
C899 C 0.65356 0.19448 0.94749 0.0
C900 C 0.68381 0.22354 0.9207 0.0
C901 C 0.67038 0.26513 0.90754 0.0
C902 C 0.70055 0.19099 0.88442 0.0
C903 C 0.68816 0.18645 0.83255 0.0
C904 C 0.66353 0.2656 0.85628 0.0
C905 C 0.6709 0.22536 0.81862 0.0
C906 C 0.57866 0.15821 0.09786 0.0
C907 C 0.53882 0.0628 0.0294 0.0
C908 C 0.57205 0.96924 0.10783 0.0
C909 C 0.53726 0.95133 0.13512 0.0
C910 C 0.53711 0.90279 0.14539 0.0
C911 C 0.52865 0.99125 0.1729 0.0
C912 C 0.53714 0.99052 0.22413 0.0
C913 C 0.54176 0.89977 0.19575 0.0
C914 C 0.54394 0.94411 0.23489 0.0
C915 C 0.63531 1.00141 0.95912 0.0
H916 H 0.65568 0.28927 0.93403 0.0
H917 H 0.71124 0.15921 0.89512 0.0
H918 H 0.64706 0.2927 0.84545 0.0
H919 H 0.65988 0.22286 0.77922 0.0
H920 H 0.54228 0.87124 0.11626 0.0
H921 H 0.5273 0.02829 0.16405 0.0
H922 H 0.54866 0.8655 0.20468 0.0
H923 H 0.55258 0.94184 0.27284 0.0
Gd924 Gd 0.33149 0.26576 0.26047 0.0
Gd925 Gd 0.39456 0.3882 0.28946 0.0
C926 C 0.50825 0.44164 0.21369 0.0
C927 C 0.54435 0.5096 0.29082 0.0
C928 C 0.49082 0.43031 0.29503 0.0
C929 C 0.48115 0.41749 0.24432 0.0
C930 C 0.51944 0.47927 0.31964 0.0
C931 C 0.54055 0.4889 0.2374 0.0
C932 C 0.50128 0.41713 0.1614 0.0
C933 C 0.46914 0.3689 0.14322 0.0
N934 N 0.44425 0.3801 0.22569 0.0
C935 C 0.44142 0.35031 0.17655 0.0
H936 H 0.4188 0.312 0.16309 0.0
C937 C 0.47377 0.41052 0.37126 0.0
N938 N 0.46513 0.39985 0.32027 0.0
C939 C 0.49583 0.46168 0.39702 0.0
C940 C 0.51777 0.49747 0.37111 0.0
H941 H 0.45765 0.38348 0.39198 0.0
H942 H 0.56098 0.51039 0.21502 0.0
H943 H 0.30494 0.33788 0.38746 0.0
H944 H 0.52211 0.43293 0.1361 0.0
H945 H 0.46526 0.34638 0.10373 0.0
H946 H 0.56607 0.5483 0.30919 0.0
H947 H 0.2691 0.27645 0.15793 0.0
H948 H 0.20346 0.21113 0.4087 0.0
H949 H 0.25936 0.29797 0.44483 0.0
H950 H 0.16082 0.10456 0.232 0.0
H951 H 0.49874 0.46903 0.43676 0.0
H952 H 0.53349 0.53805 0.38969 0.0
H953 H 0.16447 0.13784 0.3266 0.0
H954 H 0.23017 0.19042 0.10971 0.0
N955 N 0.28014 0.27229 0.32241 0.0
C956 C 0.22361 0.22964 0.38424 0.0
C957 C 0.25541 0.27785 0.40458 0.0
C958 C 0.21635 0.20858 0.33128 0.0
C959 C 0.24317 0.2357 0.30222 0.0
C960 C 0.28255 0.29965 0.3723 0.0
N961 N 0.26148 0.25624 0.2281 0.0
C962 C 0.23464 0.22472 0.25149 0.0
C963 C 0.23253 0.19668 0.14963 0.0
C964 C 0.21045 0.15934 0.17395 0.0
C965 C 0.25392 0.24737 0.17718 0.0
C966 C 0.20709 0.17568 0.22511 0.0
H967 H 0.19566 0.11896 0.15432 0.0
O968 O 0.3222 0.1989 0.19278 0.0
O969 O 0.39661 0.30835 0.2486 0.0
O970 O 0.36738 0.39065 0.21086 0.0
O971 O 0.34327 0.29952 0.1835 0.0
O972 O 0.39377 0.2481 0.28427 0.0
O973 O 0.3061 0.1852 0.26507 0.0
O974 O 0.40835 0.45414 0.35741 0.0
O975 O 0.33148 0.34493 0.3025 0.0
O976 O 0.35705 0.26348 0.33994 0.0
O977 O 0.38295 0.35458 0.36681 0.0
O978 O 0.33135 0.40802 0.27129 0.0
O979 O 0.41562 0.46963 0.28338 0.0
C980 C 0.4191 0.28116 0.26484 0.0
C981 C 0.18184 0.14322 0.252 0.0
C982 C 0.18475 0.1614 0.3056 0.0
C983 C 0.30744 0.16364 0.21753 0.0
C984 C 0.3218 0.11554 0.20935 0.0
C985 C 0.29655 0.06922 0.17374 0.0
C986 C 0.35577 0.11298 0.24321 0.0
C987 C 0.36325 0.06409 0.24329 0.0
C988 C 0.30464 0.02035 0.17286 0.0
C989 C 0.33749 0.01757 0.20801 0.0
C990 C 0.35363 0.34813 0.17221 0.0
C991 C 0.30788 0.37197 0.28908 0.0
C992 C 0.41937 0.49008 0.3324 0.0
C993 C 0.40601 0.53833 0.3485 0.0
C994 C 0.43448 0.58196 0.38421 0.0
C995 C 0.3663 0.54214 0.32779 0.0
C996 C 0.35472 0.58952 0.34344 0.0
C997 C 0.42306 0.62907 0.40017 0.0
C998 C 0.38334 0.63289 0.38017 0.0
C999 C 0.37128 0.30617 0.37851 0.0
H1000 H 0.26963 0.07055 0.14809 0.0
H1001 H 0.3747 0.14837 0.27165 0.0
H1002 H 0.28486 0.98449 0.14572 0.0
H1003 H 0.34312 0.9793 0.20722 0.0
H1004 H 0.46562 0.57966 0.39947 0.0
H1005 H 0.34486 0.5088 0.2992 0.0
H1006 H 0.44517 0.66281 0.4277 0.0
H1007 H 0.37559 0.67031 0.39266 0.0
Gd1008 Gd 0.63286 0.51925 0.99497 0.0
Gd1009 Gd 0.59515 0.62552 0.05413 0.0
C1010 C 0.6295 0.69052 0.22705 0.0
C1011 C 0.56123 0.67572 0.2583 0.0
C1012 C 0.56485 0.64278 0.16706 0.0
C1013 C 0.60867 0.66302 0.17676 0.0
C1014 C 0.54083 0.6467 0.2086 0.0
C1015 C 0.60556 0.69831 0.26732 0.0
C1016 C 0.67404 0.70542 0.23627 0.0
C1017 C 0.69614 0.6868 0.19757 0.0
N1018 N 0.63147 0.65229 0.13793 0.0
C1019 C 0.67462 0.66259 0.14787 0.0
H1020 H 0.6912 0.64809 0.11757 0.0
C1021 C 0.50178 0.59896 0.10874 0.0
N1022 N 0.54592 0.61862 0.1176 0.0
C1023 C 0.4775 0.59663 0.14902 0.0
C1024 C 0.49697 0.6216 0.19917 0.0
H1025 H 0.48406 0.58603 0.07036 0.0
H1026 H 0.62138 0.71881 0.30604 0.0
H1027 H 0.53616 0.49858 0.93361 0.0
H1028 H 0.69108 0.72671 0.27427 0.0
H1029 H 0.72911 0.6884 0.20648 0.0
H1030 H 0.54309 0.6803 0.29011 0.0
H1031 H 0.74297 0.56236 0.97578 0.0
H1032 H 0.53344 0.41807 0.777 0.0
H1033 H 0.49699 0.45876 0.84587 0.0
H1034 H 0.68017 0.46996 0.75639 0.0
H1035 H 0.44304 0.57924 0.14087 0.0
H1036 H 0.47766 0.62286 0.23001 0.0
H1037 H 0.60177 0.43187 0.74245 0.0
H1038 H 0.78223 0.56978 0.90433 0.0
N1039 N 0.5952 0.49222 0.91208 0.0
C1040 C 0.55106 0.43988 0.81455 0.0
C1041 C 0.52981 0.45918 0.85387 0.0
C1042 C 0.5956 0.45534 0.82243 0.0
C1043 C 0.61724 0.48198 0.87246 0.0
C1044 C 0.55211 0.48288 0.90318 0.0
N1045 N 0.68048 0.52748 0.9301 0.0
C1046 C 0.66094 0.50303 0.88099 0.0
C1047 C 0.74788 0.55151 0.89697 0.0
C1048 C 0.72778 0.52634 0.84712 0.0
C1049 C 0.72444 0.54877 0.93792 0.0
C1050 C 0.68409 0.50041 0.83867 0.0
H1051 H 0.74644 0.52596 0.81568 0.0
O1052 O 0.66904 0.46109 0.99392 0.0
O1053 O 0.62959 0.56579 0.07491 0.0
O1054 O 0.65968 0.65933 0.02255 0.0
O1055 O 0.69201 0.59234 0.01332 0.0
O1056 O 0.66651 0.51443 0.07207 0.0
O1057 O 0.5996 0.43542 0.97258 0.0
O1058 O 0.56183 0.68585 0.05091 0.0
O1059 O 0.59793 0.57917 0.97385 0.0
O1060 O 0.56721 0.48413 0.02387 0.0
O1061 O 0.53675 0.55307 0.03898 0.0
O1062 O 0.5611 0.63117 0.97774 0.0
O1063 O 0.62959 0.70761 0.08371 0.0
C1064 C 0.6512 0.54516 0.10508 0.0
C1065 C 0.66284 0.47273 0.78902 0.0
C1066 C 0.61855 0.44993 0.78106 0.0
C1067 C 0.63398 0.42177 0.98525 0.0
C1068 C 0.63034 0.38736 0.02114 0.0
C1069 C 0.66056 0.35871 0.02405 0.0
C1070 C 0.59787 0.38304 0.05298 0.0
C1071 C 0.59652 0.35098 0.08752 0.0
C1072 C 0.65823 0.32542 0.05715 0.0
C1073 C 0.62691 0.32219 0.08923 0.0
C1074 C 0.69401 0.6419 0.01215 0.0
C1075 C 0.57599 0.60029 0.94425 0.0
C1076 C 0.59744 0.72392 0.06871 0.0
C1077 C 0.60858 0.76565 0.04205 0.0
C1078 C 0.59802 0.81218 0.06282 0.0
C1079 C 0.6334 0.76296 0.0013 0.0
C1080 C 0.6506 0.80916 0.98515 0.0
C1081 C 0.61292 0.8566 0.04497 0.0
C1082 C 0.64098 0.85593 0.00868 0.0
C1083 C 0.53412 0.50291 0.03751 0.0
H1084 H 0.68582 0.36214 0.00032 0.0
H1085 H 0.57382 0.40424 0.05141 0.0
H1086 H 0.68044 0.30162 0.05806 0.0
H1087 H 0.62589 0.29607 0.11452 0.0
H1088 H 0.5792 0.81416 0.09398 0.0
H1089 H 0.63996 0.72615 0.98307 0.0
H1090 H 0.60321 0.8917 0.06028 0.0
H1091 H 0.6541 0.89126 0.99676 0.0
Gd1092 Gd 0.82132 0.31063 0.30771 0.0
Gd1093 Gd 0.90533 0.34454 0.24585 0.0
C1094 C 0.88635 0.4932 0.20228 0.0
C1095 C 0.86455 0.46168 0.11043 0.0
C1096 C 0.87689 0.40036 0.16059 0.0
C1097 C 0.88829 0.44177 0.20458 0.0
C1098 C 0.86677 0.41076 0.11283 0.0
C1099 C 0.87371 0.50269 0.15526 0.0
C1100 C 0.89822 0.53414 0.24711 0.0
C1101 C 0.91232 0.5238 0.29276 0.0
N1102 N 0.9028 0.43249 0.24928 0.0
C1103 C 0.916 0.47338 0.29267 0.0
H1104 H 0.93014 0.4682 0.32744 0.0
C1105 C 0.87701 0.31294 0.11917 0.0
N1106 N 0.88035 0.35159 0.16344 0.0
C1107 C 0.86671 0.32141 0.07144 0.0
C1108 C 0.86253 0.37091 0.0683 0.0
H1109 H 0.88464 0.27619 0.12016 0.0
H1110 H 0.87213 0.54195 0.15299 0.0
H1111 H 0.80146 0.18635 0.22006 0.0
H1112 H 0.898 0.57405 0.2462 0.0
H1113 H 0.92287 0.55506 0.32789 0.0
H1114 H 0.85661 0.46996 0.07395 0.0
H1115 H 0.84545 0.3766 0.43414 0.0
H1116 H 0.83908 0.08241 0.29814 0.0
H1117 H 0.81632 0.10356 0.21693 0.0
H1118 H 0.87053 0.17855 0.47298 0.0
H1119 H 0.86666 0.29171 0.03702 0.0
H1120 H 0.86033 0.37987 0.03145 0.0
H1121 H 0.8613 0.1118 0.39172 0.0
H1122 H 0.8593 0.35645 0.51596 0.0
N1123 N 0.82389 0.22128 0.2999 0.0
C1124 C 0.83472 0.12105 0.29876 0.0
C1125 C 0.82301 0.13311 0.25328 0.0
C1126 C 0.84054 0.15906 0.34513 0.0
C1127 C 0.83597 0.20998 0.34464 0.0
C1128 C 0.81613 0.18247 0.25484 0.0
N1129 N 0.84454 0.29972 0.38873 0.0
C1130 C 0.84618 0.24995 0.38999 0.0
C1131 C 0.85852 0.32723 0.48094 0.0
C1132 C 0.86244 0.27724 0.48258 0.0
C1133 C 0.84991 0.33804 0.43374 0.0
C1134 C 0.85696 0.23819 0.43698 0.0
H1135 H 0.86737 0.26808 0.51914 0.0
O1136 O 0.787 0.35381 0.36393 0.0
O1137 O 0.85075 0.38228 0.27964 0.0
O1138 O 0.92927 0.37131 0.32965 0.0
O1139 O 0.86637 0.38581 0.35124 0.0
O1140 O 0.78522 0.34947 0.2575 0.0
O1141 O 0.75772 0.27498 0.31738 0.0
O1142 O 0.97193 0.38286 0.26682 0.0
O1143 O 0.88216 0.2799 0.28691 0.0
O1144 O 0.79737 0.28074 0.22355 0.0
O1145 O 0.86099 0.26992 0.20051 0.0
O1146 O 0.9359 0.27764 0.25075 0.0
O1147 O 0.94942 0.33321 0.18985 0.0
C1148 C 0.81541 0.39268 0.2609 0.0
C1149 C 0.86102 0.18762 0.43739 0.0
C1150 C 0.85422 0.14883 0.39136 0.0
C1151 C 0.75355 0.31304 0.35301 0.0
C1152 C 0.70969 0.31546 0.36096 0.0
C1153 C 0.6998 0.32073 0.41108 0.0
C1154 C 0.67601 0.30043 0.3195 0.0
C1155 C 0.63297 0.28728 0.32837 0.0
C1156 C 0.6572 0.30605 0.41953 0.0
C1157 C 0.62402 0.28761 0.37824 0.0
C1158 C 0.90687 0.39088 0.36283 0.0
C1159 C 0.91327 0.25476 0.28021 0.0
C1160 C 0.98215 0.36497 0.22209 0.0
C1161 C 0.02509 0.35693 0.2197 0.0
C1162 C 0.04602 0.36391 0.17734 0.0
C1163 C 0.0484 0.35312 0.2634 0.0
C1164 C 0.09309 0.36214 0.2675 0.0
C1165 C 0.09069 0.37431 0.18162 0.0
C1166 C 0.11437 0.37549 0.22752 0.0
C1167 C 0.82039 0.26408 0.18942 0.0
H1168 H 0.72514 0.33258 0.44353 0.0
H1169 H 0.68315 0.29614 0.28054 0.0
H1170 H 0.64988 0.30774 0.45807 0.0
H1171 H 0.59132 0.27449 0.38549 0.0
H1172 H 0.02843 0.36417 0.1419 0.0
H1173 H 0.03174 0.34555 0.29521 0.0
H1174 H 0.10699 0.38315 0.15001 0.0
H1175 H 0.14899 0.38777 0.23244 0.0
Gd1176 Gd 0.1129 0.61596 0.48094 0.0
Gd1177 Gd 0.10882 0.54932 0.5785 0.0
C1178 C 0.20603 0.63863 0.71994 0.0
C1179 C 0.22625 0.56554 0.74477 0.0
C1180 C 0.18315 0.55296 0.66347 0.0
C1181 C 0.17922 0.60336 0.6773 0.0
C1182 C 0.20656 0.53289 0.69649 0.0
C1183 C 0.22712 0.61917 0.75576 0.0
C1184 C 0.21564 0.69197 0.72131 0.0
C1185 C 0.19727 0.71016 0.68337 0.0
N1186 N 0.15747 0.6201 0.64234 0.0
C1187 C 0.16852 0.67327 0.64327 0.0
H1188 H 0.15787 0.68756 0.61177 0.0
C1189 C 0.17251 0.47661 0.59687 0.0
N1190 N 0.16558 0.52439 0.61553 0.0
C1191 C 0.19158 0.45244 0.62926 0.0
C1192 C 0.20929 0.481 0.67938 0.0
H1193 H 0.16013 0.45621 0.55836 0.0
H1194 H 0.24535 0.64563 0.79131 0.0
H1195 H 0.05603 0.48047 0.43516 0.0
H1196 H 0.24312 0.71668 0.74539 0.0
H1197 H 0.20748 0.75168 0.68307 0.0
H1198 H 0.24338 0.551 0.77197 0.0
H1199 H 0.08685 0.73145 0.50175 0.0
H1200 H 0.99602 0.47079 0.28706 0.0
H1201 H 0.01829 0.42565 0.3519 0.0
H1202 H 0.98639 0.64195 0.2943 0.0
H1203 H 0.19121 0.41143 0.61598 0.0
H1204 H 0.22575 0.46314 0.70367 0.0
H1205 H 0.98944 0.55051 0.2618 0.0
H1206 H 0.06056 0.77993 0.44502 0.0
N1207 N 0.06101 0.5543 0.4149 0.0
C1208 C 0.01505 0.49316 0.32224 0.0
C1209 C 0.02676 0.46844 0.359 0.0
C1210 C 0.02192 0.54766 0.33389 0.0
C1211 C 0.04338 0.57725 0.38232 0.0
C1212 C 0.04903 0.49996 0.40612 0.0
N1213 N 0.06454 0.65619 0.44726 0.0
C1214 C 0.0445 0.62979 0.39922 0.0
C1215 C 0.05381 0.73712 0.43249 0.0
C1216 C 0.03184 0.70984 0.38343 0.0
C1217 C 0.06833 0.70924 0.46489 0.0
C1218 C 0.02616 0.65518 0.36672 0.0
H1219 H 0.0203 0.73141 0.35848 0.0
O1220 O 0.15572 0.69817 0.49685 0.0
O1221 O 0.14986 0.6045 0.54643 0.0
O1222 O 0.08568 0.61831 0.6174 0.0
O1223 O 0.08651 0.66362 0.55164 0.0
O1224 O 0.17826 0.6009 0.48111 0.0
O1225 O 0.13386 0.64397 0.41859 0.0
O1226 O 0.06228 0.47058 0.56053 0.0
O1227 O 0.07202 0.55852 0.51156 0.0
O1228 O 0.13217 0.54125 0.44076 0.0
O1229 O 0.12615 0.49791 0.5072 0.0
O1230 O 0.04191 0.55755 0.57641 0.0
O1231 O 0.10021 0.50738 0.63595 0.0
C1232 C 0.18224 0.59696 0.52772 0.0
C1233 C 1.00492 0.62556 0.31776 0.0
C1234 C 0.00515 0.5727 0.30017 0.0
C1235 C 0.15427 0.69135 0.44704 0.0
C1236 C 0.17963 0.72691 0.4212 0.0
C1237 C 0.16084 0.76534 0.40969 0.0
C1238 C 0.20133 0.70192 0.38541 0.0
C1239 C 0.1934 0.70314 0.33437 0.0
C1240 C 0.15718 0.77147 0.35987 0.0
C1241 C 0.17251 0.73955 0.32176 0.0
C1242 C 0.07804 0.6575 0.59858 0.0
C1243 C 0.03827 0.56219 0.52969 0.0
C1244 C 0.06979 0.46773 0.60769 0.0
C1245 C 0.03479 0.45094 0.63514 0.0
C1246 C 0.03394 0.40236 0.64574 0.0
C1247 C 0.02706 0.49165 0.67293 0.0
C1248 C 0.03605 0.49144 0.72427 0.0
C1249 C 0.03945 0.40012 0.69631 0.0
C1250 C 0.04275 0.44509 0.73524 0.0
C1251 C 0.13495 0.50053 0.46044 0.0
H1252 H 0.14241 0.78355 0.436 0.0
H1253 H 0.21557 0.67202 0.39469 0.0
H1254 H 0.1387 0.79706 0.34986 0.0
H1255 H 0.16614 0.74162 0.28251 0.0
H1256 H 0.03834 0.37011 0.61662 0.0
H1257 H 0.02604 0.52867 0.66383 0.0
H1258 H 0.0462 0.36588 0.7054 0.0
H1259 H 0.0521 0.44334 0.7732 0.0
Gd1260 Gd 0.90488 0.79221 0.27625 0.0
Gd1261 Gd 0.82221 0.8508 0.27691 0.0
C1262 C 0.74603 0.81285 0.11978 0.0
C1263 C 0.76278 0.89663 0.09697 0.0
C1264 C 0.79014 0.89074 0.18153 0.0
C1265 C 0.77233 0.83675 0.16712 0.0
C1266 C 0.78646 0.92129 0.14597 0.0
C1267 C 0.74054 0.84285 0.08499 0.0
C1268 C 0.7321 0.7582 0.1052 0.0
C1269 C 0.75546 0.72962 0.12691 0.0
N1270 N 0.78555 0.80659 0.19557 0.0
C1271 C 0.77989 0.75393 0.1745 0.0
H1272 H 0.796 0.73097 0.19248 0.0
C1273 C 0.82913 0.96712 0.24491 0.0
N1274 N 0.81361 0.9128 0.22868 0.0
C1275 C 0.82955 0.99813 0.20974 0.0
C1276 C 0.80787 0.9753 0.16008 0.0
H1277 H 0.84426 0.9865 0.28403 0.0
H1278 H 0.7228 0.82387 0.04705 0.0
H1279 H 0.93766 0.91129 0.36127 0.0
H1280 H 0.70679 0.73949 0.07395 0.0
H1281 H 0.75357 0.68872 0.10902 0.0
H1282 H 0.76031 0.91906 0.06874 0.0
H1283 H 0.87718 0.65499 0.26515 0.0
H1284 H 0.02162 0.89317 0.4807 0.0
H1285 H 0.9801 0.94884 0.44534 0.0
H1286 H 0.96324 0.71156 0.47816 0.0
H1287 H 0.84781 0.03923 0.22035 0.0
H1288 H 0.80748 0.99969 0.13323 0.0
H1289 H 1.00296 0.80653 0.50339 0.0
H1290 H 0.87123 0.59912 0.3257 0.0
N1291 N 0.94173 0.83321 0.35798 0.0
C1292 C 0.99669 0.87632 0.44836 0.0
C1293 C 0.97688 0.90808 0.42645 0.0
C1294 C 0.97894 0.82193 0.43307 0.0
C1295 C 0.9517 0.80068 0.38594 0.0
C1296 C 0.95187 0.88635 0.37893 0.0
N1297 N 0.90698 0.72726 0.32323 0.0
C1298 C 0.93115 0.74712 0.37032 0.0
C1299 C 0.88985 0.64021 0.33813 0.0
C1300 C 0.91272 0.66054 0.38727 0.0
C1301 C 0.89129 0.67304 0.30486 0.0
C1302 C 0.93492 0.71426 0.40357 0.0
H1303 H 0.91373 0.63405 0.41147 0.0
O1304 O 0.93672 0.73534 0.23745 0.0
O1305 O 0.86866 0.82554 0.22317 0.0
O1306 O 0.79201 0.76458 0.28736 0.0
O1307 O 0.84357 0.72155 0.26902 0.0
O1308 O 0.8861 0.75766 0.19054 0.0
O1309 O 0.97386 0.81531 0.28203 0.0
O1310 O 0.79025 0.90407 0.32056 0.0
O1311 O 0.8588 0.81708 0.32944 0.0
O1312 O 0.93456 0.87947 0.26598 0.0
O1313 O 0.88203 0.92255 0.2814 0.0
O1314 O 0.84992 0.89145 0.35974 0.0
O1315 O 0.75532 0.82144 0.28505 0.0
C1316 C 0.86894 0.79289 0.17942 0.0
C1317 C 0.96023 0.73608 0.45204 0.0
C1318 C 0.98316 0.78979 0.46621 0.0
C1319 C 0.97456 0.76839 0.25578 0.0
C1320 C 0.01144 0.76383 0.22981 0.0
C1321 C 0.0287 0.72184 0.23361 0.0
C1322 C 0.03309 0.80356 0.2081 0.0
C1323 C 0.073 0.80193 0.1931 0.0
C1324 C 0.06846 0.7205 0.21911 0.0
C1325 C 0.09085 0.76074 0.19925 0.0
C1326 C 0.80476 0.72001 0.28182 0.0
C1327 C 0.86244 0.85319 0.37172 0.0
C1328 C 0.75397 0.8671 0.31325 0.0
C1329 C 0.71369 0.88169 0.30698 0.0
C1330 C 0.71225 0.92826 0.29271 0.0
C1331 C 0.67687 0.85064 0.32059 0.0
C1332 C 0.63884 0.86649 0.32089 0.0
C1333 C 0.67436 0.94371 0.29195 0.0
C1334 C 0.63812 0.91342 0.30642 0.0
C1335 C 0.92144 0.92408 0.27039 0.0
H1336 H 0.01181 0.69072 0.24889 0.0
H1337 H 0.01989 0.83614 0.20458 0.0
H1338 H 0.08199 0.68851 0.22359 0.0
H1339 H 0.12192 0.75938 0.18821 0.0
H1340 H 0.74072 0.95337 0.28377 0.0
H1341 H 0.67858 0.81553 0.33319 0.0
H1342 H 0.67338 0.98018 0.28183 0.0
H1343 H 0.61017 0.92803 0.3084 0.0
Gd1344 Gd 0.8472 0.35664 0.8296 0.0
Gd1345 Gd 0.88881 0.30347 0.72282 0.0
C1346 C 0.87942 0.1529 0.61182 0.0
C1347 C 0.95347 0.17564 0.59771 0.0
C1348 C 0.93358 0.21794 0.678 0.0
C1349 C 0.89058 0.19236 0.65881 0.0
C1350 C 0.96554 0.20874 0.64776 0.0
C1351 C 0.91097 0.14524 0.58097 0.0
C1352 C 0.83618 0.12764 0.5938 0.0
C1353 C 0.80514 0.1461 0.61857 0.0
N1354 N 0.86013 0.21336 0.68004 0.0
C1355 C 0.81811 0.1924 0.65845 0.0
H1356 H 0.79543 0.21448 0.6672 0.0
C1357 C 0.98554 0.28555 0.74033 0.0
N1358 N 0.94333 0.25971 0.72031 0.0
C1359 C 0.0186 0.271 0.71592 0.0
C1360 C 0.00848 0.23568 0.66738 0.0
H1361 H 0.99354 0.3206 0.77223 0.0
H1362 H 0.90249 0.11834 0.5429 0.0
H1363 H 0.93763 0.45099 0.88554 0.0
H1364 H 0.82664 0.0971 0.55856 0.0
H1365 H 0.77166 0.12819 0.60321 0.0
H1366 H 0.97702 0.17259 0.57192 0.0
H1367 H 0.7422 0.33634 0.77936 0.0
H1368 H 0.90167 0.54988 0.00777 0.0
H1369 H 0.95833 0.52853 0.95959 0.0
H1370 H 0.75032 0.47835 0.98133 0.0
H1371 H 0.05185 0.29114 0.73184 0.0
H1372 H 0.03401 0.22931 0.64557 0.0
H1373 H 0.82425 0.53158 0.01567 0.0
H1374 H 0.68188 0.36152 0.81764 0.0
N1375 N 0.87216 0.44636 0.87634 0.0
C1376 C 0.89306 0.52352 0.96958 0.0
C1377 C 0.92512 0.51043 0.94291 0.0
C1378 C 0.85022 0.49981 0.94808 0.0
C1379 C 0.84063 0.46366 0.89893 0.0
C1380 C 0.91384 0.46913 0.89812 0.0
N1381 N 0.79046 0.3972 0.83413 0.0
C1382 C 0.79827 0.43723 0.87777 0.0
C1383 C 0.71451 0.38175 0.8358 0.0
C1384 C 0.72261 0.41597 0.88481 0.0
C1385 C 0.74885 0.37008 0.81237 0.0
C1386 C 0.76492 0.44414 0.90652 0.0
H1387 H 0.69602 0.4206 0.90529 0.0
O1388 O 0.79552 0.3208 0.86487 0.0
O1389 O 0.83073 0.29324 0.75754 0.0
O1390 O 0.82645 0.32247 0.68884 0.0
O1391 O 0.81386 0.38096 0.75939 0.0
O1392 O 0.82469 0.26886 0.8232 0.0
O1393 O 0.85763 0.36885 0.9124 0.0
O1394 O 0.94021 0.33309 0.68361 0.0
O1395 O 0.9058 0.36726 0.79505 0.0
O1396 O 0.90958 0.33694 0.86267 0.0
O1397 O 0.92011 0.27662 0.79214 0.0
O1398 O 0.91504 0.39128 0.72977 0.0
O1399 O 0.87674 0.28688 0.63984 0.0
C1400 C 0.81739 0.2535 0.77423 0.0
C1401 C 0.77499 0.47641 0.95703 0.0
C1402 C 0.8172 0.50613 0.9769 0.0
C1403 C 0.81679 0.34555 0.91053 0.0
C1404 C 0.8023 0.32466 0.95116 0.0
C1405 C 0.78116 0.35282 0.98557 0.0
C1406 C 0.80416 0.27404 0.95164 0.0
C1407 C 0.78211 0.24997 0.98502 0.0
C1408 C 0.76066 0.32928 0.02057 0.0
C1409 C 0.75898 0.2768 0.01846 0.0
C1410 C 0.80506 0.35774 0.70824 0.0
C1411 C 0.92058 0.40696 0.77879 0.0
C1412 C 0.91765 0.30679 0.63892 0.0
C1413 C 0.93007 0.32688 0.59696 0.0
C1414 C 0.95454 0.30205 0.56442 0.0
C1415 C 0.92378 0.37517 0.59456 0.0
C1416 C 0.9444 0.40073 0.56125 0.0
C1417 C 0.97484 0.32758 0.53027 0.0
C1418 C 0.97096 0.37778 0.52984 0.0
C1419 C 0.92929 0.29969 0.84315 0.0
H1420 H 0.78095 0.39283 0.98588 0.0
H1421 H 0.82096 0.25282 0.92484 0.0
H1422 H 0.74607 0.35163 0.04882 0.0
H1423 H 0.73943 0.25751 0.04256 0.0
H1424 H 0.9597 0.26457 0.56713 0.0
H1425 H 0.90512 0.39411 0.62053 0.0
H1426 H 0.99532 0.30998 0.50642 0.0
H1427 H 0.99007 0.39914 0.50665 0.0
Gd1428 Gd 0.8316 0.76658 0.76099 0.0
Gd1429 Gd 0.89413 0.88964 0.78904 0.0
C1430 C 0.00824 0.94198 0.71344 0.0
C1431 C 0.04437 1.01035 0.79031 0.0
C1432 C 0.99031 0.9317 0.7949 0.0
C1433 C 0.98086 0.91835 0.74413 0.0
C1434 C 0.01911 0.98059 0.81927 0.0
C1435 C 0.04069 0.98916 0.73698 0.0
C1436 C 1.0014 0.91708 0.66124 0.0
C1437 C 0.96909 0.86899 0.64319 0.0
N1438 N 0.94396 0.88094 0.72553 0.0
C1439 C 0.94114 0.85087 0.6765 0.0
H1440 H 0.91846 0.81259 0.66315 0.0
C1441 C 0.97308 0.91263 0.87135 0.0
N1442 N 0.96454 0.90161 0.82034 0.0
C1443 C 0.99551 0.96371 0.89683 0.0
C1444 C 0.01755 0.99918 0.87071 0.0
H1445 H 0.95711 0.88568 0.89225 0.0
H1446 H 0.06137 1.0102 0.71452 0.0
H1447 H 0.80395 0.83891 0.88729 0.0
H1448 H 0.02241 0.93251 0.63592 0.0
H1449 H 0.96527 0.84621 0.60381 0.0
H1450 H 0.06635 0.04893 0.80852 0.0
H1451 H 0.76879 0.77519 0.65793 0.0
H1452 H 0.70411 0.71087 0.90939 0.0
H1453 H 0.75923 0.79839 0.94503 0.0
H1454 H 0.66159 0.60322 0.73304 0.0
H1455 H 0.99895 0.97101 0.9365 0.0
H1456 H 0.03379 0.03964 0.88921 0.0
H1457 H 0.66548 0.6369 0.82762 0.0
H1458 H 0.72984 0.68911 0.61005 0.0
N1459 N 0.77995 0.77263 0.82261 0.0
C1460 C 0.72402 0.72946 0.88476 0.0
C1461 C 0.75534 0.77814 0.90482 0.0
C1462 C 0.71685 0.70801 0.83186 0.0
C1463 C 0.7434 0.73517 0.80259 0.0
C1464 C 0.78203 0.80029 0.87232 0.0
N1465 N 0.76138 0.75533 0.72826 0.0
C1466 C 0.73489 0.72366 0.75184 0.0
C1467 C 0.7324 0.69539 0.64996 0.0
C1468 C 0.71058 0.65805 0.67443 0.0
C1469 C 0.75375 0.74617 0.67732 0.0
C1470 C 0.70749 0.67444 0.72569 0.0
H1471 H 0.69573 0.61765 0.65483 0.0
O1472 O 0.82239 0.69919 0.69375 0.0
O1473 O 0.89654 0.8095 0.74887 0.0
O1474 O 0.86661 0.89098 0.7103 0.0
O1475 O 0.84304 0.79977 0.68363 0.0
O1476 O 0.89405 0.74958 0.78504 0.0
O1477 O 0.80767 0.68623 0.76682 0.0
O1478 O 0.90784 0.95704 0.85596 0.0
O1479 O 0.83129 0.84581 0.8022 0.0
O1480 O 0.85731 0.76601 0.84097 0.0
O1481 O 0.88243 0.85724 0.86696 0.0
O1482 O 0.8306 0.90861 0.77077 0.0
O1483 O 0.91459 0.97038 0.78106 0.0
C1484 C 0.9192 0.78258 0.76535 0.0
C1485 C 0.68253 0.64201 0.75283 0.0
C1486 C 0.68554 0.66045 0.80643 0.0
C1487 C 0.80833 0.6643 0.71916 0.0
C1488 C 0.8222 0.61582 0.71049 0.0
C1489 C 0.7967 0.57016 0.67423 0.0
C1490 C 0.85579 0.61213 0.74421 0.0
C1491 C 0.86273 0.56268 0.74331 0.0
C1492 C 0.80415 0.52084 0.67245 0.0
C1493 C 0.83666 0.51688 0.70728 0.0
C1494 C 0.85309 0.84822 0.67195 0.0
C1495 C 0.80738 0.87231 0.78846 0.0
C1496 C 0.91819 0.99208 0.82979 0.0
C1497 C 0.9043 0.04034 0.84436 0.0
C1498 C 0.93238 0.08462 0.87977 0.0
C1499 C 0.86469 0.04372 0.82244 0.0
C1500 C 0.85278 0.09118 0.83682 0.0
C1501 C 0.9209 0.13193 0.89387 0.0
C1502 C 0.8813 0.13525 0.87279 0.0
C1503 C 0.87103 0.8091 0.87918 0.0
H1504 H 0.77007 0.57237 0.64871 0.0
H1505 H 0.87496 0.64711 0.77302 0.0
H1506 H 0.78416 0.4855 0.64479 0.0
H1507 H 0.84178 0.4782 0.7056 0.0
H1508 H 0.96331 0.08265 0.89626 0.0
H1509 H 0.84334 1.00976 0.79446 0.0
H1510 H 0.94277 0.16615 0.92108 0.0
H1511 H 0.8733 0.17264 0.88425 0.0
Gd1512 Gd 0.66235 0.61664 0.5496 0.0
Gd1513 Gd 0.56346 0.53168 0.49881 0.0
C1514 C 0.51387 0.36694 0.52665 0.0
C1515 C 0.505 0.30752 0.44232 0.0
C1516 C 0.54292 0.40189 0.45803 0.0
C1517 C 0.53546 0.40997 0.50789 0.0
C1518 C 0.52956 0.34958 0.42532 0.0
C1519 C 0.49683 0.3163 0.49299 0.0
C1520 C 0.51193 0.37553 0.57915 0.0
C1521 C 0.5357 0.42392 0.61192 0.0
N1522 N 0.55288 0.45921 0.53932 0.0
C1523 C 0.55741 0.46451 0.59127 0.0
H1524 H 0.57849 0.49892 0.61733 0.0
C1525 C 0.58024 0.43354 0.39593 0.0
N1526 N 0.56473 0.44468 0.44225 0.0
C1527 C 0.56823 0.38259 0.36281 0.0
C1528 C 0.54125 0.34086 0.37651 0.0
H1529 H 0.59928 0.4621 0.37963 0.0
H1530 H 0.47925 0.28318 0.50638 0.0
H1531 H 0.64196 0.64367 0.42845 0.0
H1532 H 0.49536 0.34383 0.59506 0.0
H1533 H 0.53804 0.42969 0.65312 0.0
H1534 H 0.49341 0.26774 0.41708 0.0
H1535 H 0.6265 0.68708 0.66708 0.0
H1536 H 0.71876 0.8004 0.44354 0.0
H1537 H 0.67734 0.7122 0.38886 0.0
H1538 H 0.72629 0.88066 0.6214 0.0
H1539 H 0.57872 0.37632 0.32558 0.0
H1540 H 0.53077 0.30182 0.34984 0.0
H1541 H 0.73779 0.86299 0.5312 0.0
H1542 H 0.64471 0.77544 0.71819 0.0
N1543 N 0.66927 0.68619 0.50531 0.0
C1544 C 0.70452 0.76898 0.46111 0.0
C1545 C 0.68153 0.7193 0.43025 0.0
C1546 C 0.70501 0.77884 0.51409 0.0
C1547 C 0.68591 0.73633 0.53506 0.0
C1548 C 0.663 0.67897 0.45307 0.0
N1549 N 0.65963 0.70366 0.60339 0.0
C1550 C 0.67969 0.74575 0.5854 0.0
C1551 C 0.65506 0.76763 0.68084 0.0
C1552 C 0.68064 0.80885 0.66485 0.0
C1553 C 0.64443 0.71563 0.64976 0.0
C1554 C 0.69214 0.79871 0.61622 0.0
H1555 H 0.69091 0.84868 0.68951 0.0
O1556 O 0.72411 0.603 0.57478 0.0
O1557 O 0.62637 0.52986 0.53894 0.0
O1558 O 0.55613 0.56813 0.58481 0.0
O1559 O 0.62545 0.60692 0.62313 0.0
O1560 O 0.68458 0.55136 0.5804 0.0
O1561 O 0.7198 0.64668 0.51747 0.0
O1562 O 0.50516 0.5535 0.47667 0.0
O1563 O 0.59978 0.61846 0.50978 0.0
O1564 O 0.67055 0.57711 0.4648 0.0
O1565 O 0.60115 0.54106 0.42626 0.0
O1566 O 0.54229 0.5977 0.46763 0.0
O1567 O 0.5032 0.50187 0.52713 0.0
C1568 C 0.65366 0.50845 0.5609 0.0
C1569 C 0.71517 0.84028 0.59735 0.0
C1570 C 0.72182 0.83026 0.54619 0.0
C1571 C 0.74289 0.62384 0.54087 0.0
C1572 C 0.78936 0.64332 0.54723 0.0
C1573 C 0.81211 0.69432 0.5765 0.0
C1574 C 0.81139 0.60918 0.52198 0.0
C1575 C 0.85603 0.62611 0.52588 0.0
C1576 C 0.85679 0.70913 0.58345 0.0
C1577 C 0.87887 0.67605 0.55732 0.0
C1578 C 0.58306 0.59216 0.62826 0.0
C1579 C 0.57333 0.64055 0.48729 0.0
C1580 C 0.48321 0.53021 0.50689 0.0
C1581 C 0.4367 0.51199 0.49292 0.0
C1582 C 0.4146 0.45869 0.47042 0.0
C1583 C 0.41404 0.55033 0.50189 0.0
C1584 C 0.36975 0.53587 0.48612 0.0
C1585 C 0.3705 0.44507 0.4537 0.0
C1586 C 0.34814 0.48333 0.46057 0.0
C1587 C 0.64361 0.55382 0.42131 0.0
H1588 H 0.79602 0.7226 0.59418 0.0
H1589 H 0.79381 0.56966 0.49897 0.0
H1590 H 0.87449 0.74572 0.60969 0.0
H1591 H 0.91371 0.68873 0.56315 0.0
H1592 H 0.43127 0.42809 0.465 0.0
H1593 H 0.43089 0.59151 0.52076 0.0
H1594 H 0.3533 0.4051 0.43509 0.0
H1595 H 0.31378 0.47143 0.4479 0.0
Gd1596 Gd 0.07126 0.5843 0.06387 0.0
Gd1597 Gd 0.15519 0.56807 -0.00236 0.0
C1598 C 0.24226 0.72253 0.98757 0.0
C1599 C 0.23371 0.71056 0.89611 0.0
C1600 C 0.19084 0.64445 0.93082 0.0
C1601 C 0.21147 0.67317 0.98018 0.0
C1602 C 0.19977 0.66554 0.88917 0.0
C1603 C 0.25351 0.7407 0.94501 0.0
C1604 C 0.26086 0.75201 0.03734 0.0
C1605 C 0.24764 0.73264 0.07864 0.0
N1606 N 0.2013 0.65354 0.02074 0.0
C1607 C 0.21875 0.68233 0.06969 0.0
H1608 H 0.20971 0.66761 0.10202 0.0
C1609 C 0.14718 0.56434 0.87404 0.0
N1610 N 0.16332 0.59548 0.92293 0.0
C1611 C 0.15088 0.58704 0.83258 0.0
C1612 C 0.17551 0.63939 0.84118 0.0
H1613 H 0.12865 0.52341 0.86791 0.0
H1614 H 0.27703 0.778 0.94944 0.0
H1615 H 0.03337 0.49768 0.9399 0.0
H1616 H 0.28434 0.79031 0.04419 0.0
H1617 H 0.25917 0.75666 0.11732 0.0
H1618 H 0.24654 0.71914 0.86342 0.0
H1619 H 0.09755 0.5927 0.19085 0.0
H1620 H 0.94102 0.36757 0.96476 0.0
H1621 H 0.98392 0.40967 0.90655 0.0
H1622 H 0.95843 0.39585 0.14358 0.0
H1623 H 0.13511 0.56446 0.79439 0.0
H1624 H 0.17656 0.6592 0.81058 0.0
H1625 H 0.94093 0.35551 0.05135 0.0
H1626 H 0.0715 0.53897 0.24892 0.0
N1627 N 0.02885 0.49978 0.01876 0.0
C1628 C 0.96719 0.40321 0.97994 0.0
C1629 C 0.98956 0.42841 0.94706 0.0
C1630 C 0.97988 0.42317 0.03249 0.0
C1631 C 0.0123 0.47137 0.05151 0.0
C1632 C 0.01826 0.47861 0.96671 0.0
N1633 N 0.06117 0.53463 0.12296 0.0
C1634 C 0.0285 0.48925 0.10415 0.0
C1635 C 0.0593 0.52481 0.20834 0.0
C1636 C 0.02553 0.47915 0.1896 0.0
C1637 C 0.07549 0.55379 0.17459 0.0
C1638 C 0.00933 0.46124 0.13764 0.0
H1639 H 0.01218 0.45751 0.21518 0.0
O1640 O 0.04203 0.62419 0.12618 0.0
O1641 O 0.12851 0.6357 0.03925 0.0
O1642 O 0.17362 0.55992 0.07629 0.0
O1643 O 0.13119 0.6048 0.12131 0.0
O1644 O 0.09151 0.67499 0.08189 0.0
O1645 O 1.00361 0.57464 0.05423 0.0
O1646 O 0.18262 0.51659 0.94551 0.0
O1647 O 0.0994 0.51676 0.02379 0.0
O1648 O 0.05161 0.60455 0.99149 0.0
O1649 O 0.09857 0.56993 0.94405 0.0
O1650 O 0.13127 0.47834 0.97288 0.0
O1651 O 0.22008 0.56476 0.0196 0.0
C1652 C 0.12466 0.68394 0.05864 0.0
C1653 C 0.97491 0.41582 0.11843 0.0
C1654 C 0.96268 0.39464 0.06604 0.0
C1655 C 1.00374 0.60477 0.09937 0.0
C1656 C 0.97362 0.63753 0.10059 0.0
C1657 C 0.94695 0.63853 0.13875 0.0
C1658 C 0.9621 0.65213 0.05594 0.0
C1659 C 0.92103 0.6587 0.04529 0.0
C1660 C 0.90759 0.64976 0.13033 0.0
C1661 C 0.89384 0.65751 0.08298 0.0
C1662 C 0.16326 0.58293 0.11941 0.0
C1663 C 0.10269 0.46858 0.00198 0.0
C1664 C 0.21834 0.52892 0.97707 0.0
C1665 C 0.25765 0.52731 0.95522 0.0
C1666 C 0.26132 0.53014 0.9046 0.0
C1667 C 0.2905 0.51691 0.98455 0.0
C1668 C 0.32877 0.51387 0.96545 0.0
C1669 C 0.29793 0.5229 0.88394 0.0
C1670 C 0.33187 0.51574 0.9143 0.0
C1671 C 0.0667 0.59242 0.94844 0.0
H1672 H 0.95474 0.62618 0.17301 0.0
H1673 H 0.98251 0.65037 0.02617 0.0
H1674 H 0.8861 0.64777 0.1588 0.0
H1675 H 0.86091 0.65824 0.0745 0.0
H1676 H 0.2357 0.53664 0.88076 0.0
H1677 H 0.2866 0.51258 0.02298 0.0
H1678 H 0.30024 0.52362 0.8445 0.0
H1679 H 0.36026 0.51117 0.89745 0.0
loop_
_geom_bond_atom_site_label_1
_geom_bond_atom_site_label_2
_geom_bond_distance
_geom_bond_site_symmetry_2
_ccdc_geom_bond_type
Zn0 O3 2.031 . S
Zn0 O5 2.049 . S
Zn0 O10 2.067 . S
Zn1 O2 1.962 . S
Zn1 O4 1.986 . S
Zn1 O6 1.996 . S
Zn1 O9 1.943 . S
O2 Zn1 1.962 . S
O2 C7 1.254 . S
O3 Zn0 2.031 . S
O3 C7 1.269 . S
O4 Zn1 1.986 . S
O4 C11 1.262 . S
O5 Zn0 2.049 . S
O5 C13 1.260 . S
O6 Zn1 1.996 . S
O6 C13 1.257 . S
C7 O2 1.254 . S
C7 O3 1.269 . S
C8 O9 1.249 . S
C8 O10 1.270 . S
O9 Zn1 1.943 . S
O9 C8 1.249 . S
O10 Zn0 2.067 . S
O10 C8 1.270 . S
C11 O4 1.262 . S
C11 O12 1.232 . S
O12 C11 1.232 . S
C13 O5 1.260 . S
C13 O6 1.257 . S
Zn14 O17 2.031 1_455 S
Zn14 O19 2.049 . S
Zn14 O24 2.067 . S
Zn15 O16 1.962 1_455 S
Zn15 O18 1.986 . S
Zn15 O20 1.996 . S
Zn15 O23 1.943 1_455 S
O16 Zn15 1.962 1_655 S
O16 C21 1.254 . S
O17 Zn14 2.031 1_655 S
O17 C21 1.269 . S
O18 Zn15 1.986 . S
O18 C25 1.262 . S
O19 Zn14 2.049 . S
O19 C27 1.260 . S
O20 Zn15 1.996 . S
O20 C27 1.257 . S
C21 O16 1.254 . S
C21 O17 1.269 . S
C22 O23 1.249 . S
C22 O24 1.270 1_655 S
O23 Zn15 1.943 1_655 S
O23 C22 1.249 . S
O24 Zn14 2.067 . S
O24 C22 1.270 1_455 S
C25 O18 1.262 . S
C25 O26 1.232 1_455 S
O26 C25 1.232 1_655 S
C27 O19 1.260 . S
C27 O20 1.257 . S
Zn28 O31 2.031 . S
Zn28 O33 2.049 . S
Zn28 O38 2.067 . S
Zn29 O30 1.962 1_565 S
Zn29 O32 1.986 . S
Zn29 O34 1.996 . S
Zn29 O37 1.943 . S
O30 Zn29 1.962 1_545 S
O30 C35 1.254 . S
O31 Zn28 2.031 . S
O31 C35 1.269 1_565 S
O32 Zn29 1.986 . S
O32 C39 1.262 . S
O33 Zn28 2.049 . S
O33 C41 1.260 . S
O34 Zn29 1.996 . S
O34 C41 1.257 . S
C35 O30 1.254 . S
C35 O31 1.269 1_545 S
C36 O37 1.249 . S
C36 O38 1.270 . S
O37 Zn29 1.943 . S
O37 C36 1.249 . S
O38 Zn28 2.067 . S
O38 C36 1.270 . S
C39 O32 1.262 . S
C39 O40 1.232 . S
O40 C39 1.232 . S
C41 O33 1.260 . S
C41 O34 1.257 . S
Zn42 O45 2.031 . S
Zn42 O47 2.049 . S
Zn42 O52 2.067 . S
Zn43 O44 1.962 . S
Zn43 O46 1.986 . S
Zn43 O48 1.996 . S
Zn43 O51 1.943 . S
O44 Zn43 1.962 . S
O44 C49 1.254 . S
O45 Zn42 2.031 . S
O45 C49 1.269 . S
O46 Zn43 1.986 . S
O46 C53 1.262 . S
O47 Zn42 2.049 . S
O47 C55 1.260 . S
O48 Zn43 1.996 . S
O48 C55 1.257 . S
C49 O44 1.254 . S
C49 O45 1.269 . S
C50 O51 1.249 . S
C50 O52 1.270 . S
O51 Zn43 1.943 . S
O51 C50 1.249 . S
O52 Zn42 2.067 . S
O52 C50 1.270 . S
C53 O46 1.262 . S
C53 O54 1.232 . S
O54 C53 1.232 . S
C55 O47 1.260 . S
C55 O48 1.257 . S
Zn56 O59 2.031 . S
Zn56 O61 2.049 . S
Zn56 O66 2.067 . S
Zn57 O58 1.962 . S
Zn57 O60 1.986 . S
Zn57 O62 1.996 . S
Zn57 O65 1.943 . S
O58 Zn57 1.962 . S
O58 C63 1.254 . S
O59 Zn56 2.031 . S
O59 C63 1.269 . S
O60 Zn57 1.986 . S
O60 C67 1.262 . S
O61 Zn56 2.049 . S
O61 C69 1.260 . S
O62 Zn57 1.996 . S
O62 C69 1.257 . S
C63 O58 1.254 . S
C63 O59 1.269 . S
C64 O65 1.249 . S
C64 O66 1.270 . S
O65 Zn57 1.943 . S
O65 C64 1.249 . S
O66 Zn56 2.067 . S
O66 C64 1.270 . S
C67 O60 1.262 . S
C67 O68 1.232 . S
O68 C67 1.232 . S
C69 O61 1.260 . S
C69 O62 1.257 . S
Zn70 O73 2.031 . S
Zn70 O75 2.049 . S
Zn70 O80 2.067 . S
Zn71 O72 1.962 . S
Zn71 O74 1.986 . S
Zn71 O76 1.996 . S
Zn71 O79 1.943 . S
O72 Zn71 1.962 . S
O72 C77 1.254 . S
O73 Zn70 2.031 . S
O73 C77 1.269 . S
O74 Zn71 1.986 . S
O74 C81 1.262 . S
O75 Zn70 2.049 . S
O75 C83 1.260 . S
O76 Zn71 1.996 . S
O76 C83 1.257 . S
C77 O72 1.254 . S
C77 O73 1.269 . S
C78 O79 1.249 . S
C78 O80 1.270 . S
O79 Zn71 1.943 . S
O79 C78 1.249 . S
O80 Zn70 2.067 . S
O80 C78 1.270 . S
C81 O74 1.262 . S
C81 O82 1.232 . S
O82 C81 1.232 . S
C83 O75 1.260 . S
C83 O76 1.257 . S
Zn84 O87 2.031 . S
Zn84 O89 2.049 . S
Zn84 O94 2.067 . S
Zn85 O86 1.962 . S
Zn85 O88 1.986 . S
Zn85 O90 1.996 . S
Zn85 O93 1.943 . S
O86 Zn85 1.962 . S
O86 C91 1.254 . S
O87 Zn84 2.031 . S
O87 C91 1.269 . S
O88 Zn85 1.986 . S
O88 C95 1.262 . S
O89 Zn84 2.049 . S
O89 C97 1.260 . S
O90 Zn85 1.996 . S
O90 C97 1.257 . S
C91 O86 1.254 . S
C91 O87 1.269 . S
C92 O93 1.249 . S
C92 O94 1.270 . S
O93 Zn85 1.943 . S
O93 C92 1.249 . S
O94 Zn84 2.067 . S
O94 C92 1.270 . S
C95 O88 1.262 . S
C95 O96 1.232 . S
O96 C95 1.232 . S
C97 O89 1.260 . S
C97 O90 1.257 . S
Zn98 O101 2.031 1_655 S
Zn98 O103 2.049 . S
Zn98 O108 2.067 1_554 S
Zn99 O100 1.962 1_556 S
Zn99 O102 1.986 . S
Zn99 O104 1.996 1_556 S
Zn99 O107 1.943 . S
O100 Zn99 1.962 1_554 S
O100 C105 1.254 . S
O101 Zn98 2.031 1_455 S
O101 C105 1.269 . S
O102 Zn99 1.986 . S
O102 C109 1.262 . S
O103 Zn98 2.049 . S
O103 C111 1.260 1_655 S
O104 Zn99 1.996 1_554 S
O104 C111 1.257 . S
C105 O100 1.254 . S
C105 O101 1.269 . S
C106 O107 1.249 1_655 S
C106 O108 1.270 . S
O107 Zn99 1.943 . S
O107 C106 1.249 1_455 S
O108 Zn98 2.067 1_556 S
O108 C106 1.270 . S
C109 O102 1.262 . S
C109 O110 1.232 . S
O110 C109 1.232 . S
C111 O103 1.260 1_455 S
C111 O104 1.257 . S
Zn112 O115 2.031 . S
Zn112 O117 2.049 . S
Zn112 O122 2.067 . S
Zn113 O114 1.962 . S
Zn113 O116 1.986 . S
Zn113 O118 1.996 . S
Zn113 O121 1.943 1_545 S
O114 Zn113 1.962 . S
O114 C119 1.254 . S
O115 Zn112 2.031 . S
O115 C119 1.269 1_565 S
O116 Zn113 1.986 . S
O116 C123 1.262 . S
O117 Zn112 2.049 . S
O117 C125 1.260 . S
O118 Zn113 1.996 . S
O118 C125 1.257 1_545 S
C119 O114 1.254 . S
C119 O115 1.269 1_545 S
C120 O121 1.249 . S
C120 O122 1.270 . S
O121 Zn113 1.943 1_565 S
O121 C120 1.249 . S
O122 Zn112 2.067 . S
O122 C120 1.270 . S
C123 O116 1.262 . S
C123 O124 1.232 . S
O124 C123 1.232 . S
C125 O117 1.260 . S
C125 O118 1.257 1_565 S
Zn126 O129 2.031 . S
Zn126 O131 2.049 . S
Zn126 O136 2.067 . S
Zn127 O128 1.962 . S
Zn127 O130 1.986 . S
Zn127 O132 1.996 . S
Zn127 O135 1.943 . S
O128 Zn127 1.962 . S
O128 C133 1.254 . S
O129 Zn126 2.031 . S
O129 C133 1.269 . S
O130 Zn127 1.986 . S
O130 C137 1.262 . S
O131 Zn126 2.049 . S
O131 C139 1.260 . S
O132 Zn127 1.996 . S
O132 C139 1.257 . S
C133 O128 1.254 . S
C133 O129 1.269 . S
C134 O135 1.249 . S
C134 O136 1.270 . S
O135 Zn127 1.943 . S
O135 C134 1.249 . S
O136 Zn126 2.067 . S
O136 C134 1.270 . S
C137 O130 1.262 . S
C137 O138 1.232 . S
O138 C137 1.232 . S
C139 O131 1.260 . S
C139 O132 1.257 . S
Zn140 O143 2.031 . S
Zn140 O145 2.049 . S
Zn140 O150 2.067 . S
Zn141 O142 1.962 . S
Zn141 O144 1.986 1_545 S
Zn141 O146 1.996 . S
Zn141 O149 1.943 . S
O142 Zn141 1.962 . S
O142 C147 1.254 . S
O143 Zn140 2.031 . S
O143 C147 1.269 . S
O144 Zn141 1.986 1_565 S
O144 C151 1.262 . S
O145 Zn140 2.049 . S
O145 C153 1.260 . S
O146 Zn141 1.996 . S
O146 C153 1.257 . S
C147 O142 1.254 . S
C147 O143 1.269 . S
C148 O149 1.249 . S
C148 O150 1.270 . S
O149 Zn141 1.943 . S
O149 C148 1.249 . S
O150 Zn140 2.067 . S
O150 C148 1.270 . S
C151 O144 1.262 . S
C151 O152 1.232 . S
O152 C151 1.232 . S
C153 O145 1.260 . S
C153 O146 1.257 . S
Zn154 O157 2.031 1_554 S
Zn154 O159 2.049 . S
Zn154 O164 2.067 1_565 S
Zn155 O156 1.962 . S
Zn155 O158 1.986 1_566 S
Zn155 O160 1.996 1_556 S
Zn155 O163 1.943 1_566 S
O156 Zn155 1.962 . S
O156 C161 1.254 . S
O157 Zn154 2.031 1_556 S
O157 C161 1.269 . S
O158 Zn155 1.986 1_544 S
O158 C165 1.262 . S
O159 Zn154 2.049 . S
O159 C167 1.260 . S
O160 Zn155 1.996 1_554 S
O160 C167 1.257 . S
C161 O156 1.254 . S
C161 O157 1.269 . S
C162 O163 1.249 . S
C162 O164 1.270 . S
O163 Zn155 1.943 1_544 S
O163 C162 1.249 . S
O164 Zn154 2.067 1_545 S
O164 C162 1.270 . S
C165 O158 1.262 . S
C165 O166 1.232 1_554 S
O166 C165 1.232 1_556 S
C167 O159 1.260 . S
C167 O160 1.257 . S
Zn168 O171 2.031 1_554 S
Zn168 O173 2.049 . S
Zn168 O178 2.067 . S
Zn169 O170 1.962 1_554 S
Zn169 O172 1.986 . S
Zn169 O174 1.996 . S
Zn169 O177 1.943 . S
O170 Zn169 1.962 1_556 S
O170 C175 1.254 . S
O171 Zn168 2.031 1_556 S
O171 C175 1.269 . S
O172 Zn169 1.986 . S
O172 C179 1.262 . S
O173 Zn168 2.049 . S
O173 C181 1.260 . S
O174 Zn169 1.996 . S
O174 C181 1.257 . S
C175 O170 1.254 . S
C175 O171 1.269 . S
C176 O177 1.249 . S
C176 O178 1.270 . S
O177 Zn169 1.943 . S
O177 C176 1.249 . S
O178 Zn168 2.067 . S
O178 C176 1.270 . S
C179 O172 1.262 . S
C179 O180 1.232 . S
O180 C179 1.232 . S
C181 O173 1.260 . S
C181 O174 1.257 . S
Zn182 O185 2.031 . S
Zn182 O187 2.049 . S
Zn182 O192 2.067 . S
Zn183 O184 1.962 . S
Zn183 O186 1.986 . S
Zn183 O188 1.996 . S
Zn183 O191 1.943 . S
O184 Zn183 1.962 . S
O184 C189 1.254 1_554 S
O185 Zn182 2.031 . S
O185 C189 1.269 1_554 S
O186 Zn183 1.986 . S
O186 C193 1.262 . S
O187 Zn182 2.049 . S
O187 C195 1.260 . S
O188 Zn183 1.996 . S
O188 C195 1.257 . S
C189 O184 1.254 1_556 S
C189 O185 1.269 1_556 S
C190 O191 1.249 . S
C190 O192 1.270 . S
O191 Zn183 1.943 . S
O191 C190 1.249 . S
O192 Zn182 2.067 . S
O192 C190 1.270 . S
C193 O186 1.262 . S
C193 O194 1.232 . S
O194 C193 1.232 . S
C195 O187 1.260 . S
C195 O188 1.257 . S
Zn196 O199 2.031 . S
Zn196 O201 2.049 . S
Zn196 O206 2.067 . S
Zn197 O198 1.962 . S
Zn197 O200 1.986 . S
Zn197 O202 1.996 . S
Zn197 O205 1.943 . S
O198 Zn197 1.962 . S
O198 C203 1.254 . S
O199 Zn196 2.031 . S
O199 C203 1.269 . S
O200 Zn197 1.986 . S
O200 C207 1.262 . S
O201 Zn196 2.049 . S
O201 C209 1.260 . S
O202 Zn197 1.996 . S
O202 C209 1.257 . S
C203 O198 1.254 . S
C203 O199 1.269 . S
C204 O205 1.249 . S
C204 O206 1.270 . S
O205 Zn197 1.943 . S
O205 C204 1.249 . S
O206 Zn196 2.067 . S
O206 C204 1.270 . S
C207 O200 1.262 . S
C207 O208 1.232 . S
O208 C207 1.232 . S
C209 O201 1.260 . S
C209 O202 1.257 . S
Zn210 O213 2.031 . S
Zn210 O215 2.049 . S
Zn210 O220 2.067 . S
Zn211 O212 1.962 . S
Zn211 O214 1.986 . S
Zn211 O216 1.996 . S
Zn211 O219 1.943 . S
O212 Zn211 1.962 . S
O212 C217 1.254 . S
O213 Zn210 2.031 . S
O213 C217 1.269 . S
O214 Zn211 1.986 . S
O214 C221 1.262 . S
O215 Zn210 2.049 . S
O215 C223 1.260 . S
O216 Zn211 1.996 . S
O216 C223 1.257 . S
C217 O212 1.254 . S
C217 O213 1.269 . S
C218 O219 1.249 . S
C218 O220 1.270 . S
O219 Zn211 1.943 . S
O219 C218 1.249 . S
O220 Zn210 2.067 . S
O220 C218 1.270 . S
C221 O214 1.262 . S
C221 O222 1.232 . S
O222 C221 1.232 . S
C223 O215 1.260 . S
C223 O216 1.257 . S
Zn224 O227 2.031 . S
Zn224 O229 2.049 . S
Zn224 O234 2.067 1_445 S
Zn225 O226 1.962 1_655 S
Zn225 O228 1.986 . S
Zn225 O230 1.996 1_655 S
Zn225 O233 1.943 . S
O226 Zn225 1.962 1_455 S
O226 C231 1.254 . S
O227 Zn224 2.031 . S
O227 C231 1.269 . S
O228 Zn225 1.986 . S
O228 C235 1.262 . S
O229 Zn224 2.049 . S
O229 C237 1.260 . S
O230 Zn225 1.996 1_455 S
O230 C237 1.257 . S
C231 O226 1.254 . S
C231 O227 1.269 . S
C232 O233 1.249 1_565 S
C232 O234 1.270 . S
O233 Zn225 1.943 . S
O233 C232 1.249 1_545 S
O234 Zn224 2.067 1_665 S
O234 C232 1.270 . S
C235 O228 1.262 . S
C235 O236 1.232 . S
O236 C235 1.232 . S
C237 O229 1.260 . S
C237 O230 1.257 . S
Zn238 O241 2.031 . S
Zn238 O243 2.049 . S
Zn238 O248 2.067 . S
Zn239 O240 1.962 . S
Zn239 O242 1.986 . S
Zn239 O244 1.996 . S
Zn239 O247 1.943 . S
O240 Zn239 1.962 . S
O240 C245 1.254 . S
O241 Zn238 2.031 . S
O241 C245 1.269 . S
O242 Zn239 1.986 . S
O242 C249 1.262 . S
O243 Zn238 2.049 . S
O243 C251 1.260 . S
O244 Zn239 1.996 . S
O244 C251 1.257 . S
C245 O240 1.254 . S
C245 O241 1.269 . S
C246 O247 1.249 . S
C246 O248 1.270 . S
O247 Zn239 1.943 . S
O247 C246 1.249 . S
O248 Zn238 2.067 . S
O248 C246 1.270 . S
C249 O242 1.262 . S
C249 O250 1.232 . S
O250 C249 1.232 . S
C251 O243 1.260 . S
C251 O244 1.257 . S
Zn252 O255 2.031 . S
Zn252 O257 2.049 . S
Zn252 O262 2.067 . S
Zn253 O254 1.962 . S
Zn253 O256 1.986 . S
Zn253 O258 1.996 . S
Zn253 O261 1.943 . S
O254 Zn253 1.962 . S
O254 C259 1.254 . S
O255 Zn252 2.031 . S
O255 C259 1.269 . S
O256 Zn253 1.986 . S
O256 C263 1.262 . S
O257 Zn252 2.049 . S
O257 C265 1.260 . S
O258 Zn253 1.996 . S
O258 C265 1.257 . S
C259 O254 1.254 . S
C259 O255 1.269 . S
C260 O261 1.249 . S
C260 O262 1.270 . S
O261 Zn253 1.943 . S
O261 C260 1.249 . S
O262 Zn252 2.067 . S
O262 C260 1.270 . S
C263 O256 1.262 . S
C263 O264 1.232 . S
O264 C263 1.232 . S
C265 O257 1.260 . S
C265 O258 1.257 . S
Zn266 O269 2.031 . S
Zn266 O271 2.049 . S
Zn266 O276 2.067 . S
Zn267 O268 1.962 . S
Zn267 O270 1.986 . S
Zn267 O272 1.996 . S
Zn267 O275 1.943 . S
O268 Zn267 1.962 . S
O268 C273 1.254 . S
O269 Zn266 2.031 . S
O269 C273 1.269 . S
O270 Zn267 1.986 . S
O270 C277 1.262 . S
O271 Zn266 2.049 . S
O271 C279 1.260 . S
O272 Zn267 1.996 . S
O272 C279 1.257 . S
C273 O268 1.254 . S
C273 O269 1.269 . S
C274 O275 1.249 . S
C274 O276 1.270 . S
O275 Zn267 1.943 . S
O275 C274 1.249 . S
O276 Zn266 2.067 . S
O276 C274 1.270 . S
C277 O270 1.262 . S
C277 O278 1.232 . S
O278 C277 1.232 . S
C279 O271 1.260 . S
C279 O272 1.257 . S
Zn280 O283 2.031 1_554 S
Zn280 O285 2.049 . S
Zn280 O290 2.067 . S
Zn281 O282 1.953 1_554 S
Zn281 O284 1.990 . S
Zn281 O286 2.002 . S
Zn281 O289 1.945 1_554 S
O282 Zn281 1.953 1_556 S
O282 C287 1.254 . S
O283 Zn280 2.031 1_556 S
O283 C287 1.269 . S
O284 Zn281 1.990 . S
O284 C291 1.262 1_554 S
O285 Zn280 2.049 . S
O285 C293 1.260 . S
O286 Zn281 2.002 . S
O286 C293 1.257 . S
C287 O282 1.254 . S
C287 O283 1.269 . S
C288 O289 1.249 . S
C288 O290 1.270 1_556 S
O289 Zn281 1.945 1_556 S
O289 C288 1.249 . S
O290 Zn280 2.067 . S
O290 C288 1.270 1_554 S
C291 O284 1.262 1_556 S
C291 O292 1.232 . S
O292 C291 1.232 . S
C293 O285 1.260 . S
C293 O286 1.257 . S
Zn294 O297 2.031 . S
Zn294 O299 2.049 . S
Zn294 O304 2.067 1_455 S
Zn295 O296 1.962 1_655 S
Zn295 O298 1.986 . S
Zn295 O300 1.996 1_655 S
Zn295 O303 1.943 . S
O296 Zn295 1.962 1_455 S
O296 C301 1.254 . S
O297 Zn294 2.031 . S
O297 C301 1.269 . S
O298 Zn295 1.986 . S
O298 C305 1.262 . S
O299 Zn294 2.049 . S
O299 C307 1.260 . S
O300 Zn295 1.996 1_455 S
O300 C307 1.257 . S
C301 O296 1.254 . S
C301 O297 1.269 . S
C302 O303 1.249 . S
C302 O304 1.270 . S
O303 Zn295 1.943 . S
O303 C302 1.249 . S
O304 Zn294 2.067 1_655 S
O304 C302 1.270 . S
C305 O298 1.262 . S
C305 O306 1.232 . S
O306 C305 1.232 . S
C307 O299 1.260 . S
C307 O300 1.257 . S
Zn308 O311 2.031 . S
Zn308 O313 2.049 . S
Zn308 O318 2.067 1_655 S
Zn309 O310 1.962 . S
Zn309 O312 1.986 . S
Zn309 O314 1.996 . S
Zn309 O317 1.943 . S
O310 Zn309 1.962 . S
O310 C315 1.254 . S
O311 Zn308 2.031 . S
O311 C315 1.269 . S
O312 Zn309 1.986 . S
O312 C319 1.262 . S
O313 Zn308 2.049 . S
O313 C321 1.260 . S
O314 Zn309 1.996 . S
O314 C321 1.257 . S
C315 O310 1.254 . S
C315 O311 1.269 . S
C316 O317 1.249 1_455 S
C316 O318 1.270 . S
O317 Zn309 1.943 . S
O317 C316 1.249 1_655 S
O318 Zn308 2.067 1_455 S
O318 C316 1.270 . S
C319 O312 1.262 . S
C319 O320 1.232 . S
O320 C319 1.232 . S
C321 O313 1.260 . S
C321 O314 1.257 . S
Zn322 O325 2.031 . S
Zn322 O327 2.049 . S
Zn322 O332 2.067 . S
Zn323 O324 1.962 . S
Zn323 O326 1.986 . S
Zn323 O328 1.996 . S
Zn323 O331 1.943 . S
O324 Zn323 1.962 . S
O324 C329 1.254 . S
O325 Zn322 2.031 . S
O325 C329 1.269 . S
O326 Zn323 1.986 . S
O326 C333 1.262 . S
O327 Zn322 2.049 . S
O327 C335 1.260 . S
O328 Zn323 1.996 . S
O328 C335 1.257 . S
C329 O324 1.254 . S
C329 O325 1.269 . S
C330 O331 1.249 . S
C330 O332 1.270 . S
O331 Zn323 1.943 . S
O331 C330 1.249 . S
O332 Zn322 2.067 . S
O332 C330 1.270 . S
C333 O326 1.262 . S
C333 O334 1.232 . S
O334 C333 1.232 . S
C335 O327 1.260 . S
C335 O328 1.257 . S
Gd336 N367 2.661 . S
Gd336 N373 2.601 . S
Gd336 O380 2.545 . S
Gd336 O381 2.606 . S
Gd336 O383 2.429 . S
Gd336 O384 2.545 . S
Gd336 O385 2.412 . S
Gd336 O387 2.362 . S
Gd336 O388 2.324 1_554 S
Gd336 C395 2.828 . S
Gd337 N346 2.661 1_546 S
Gd337 N350 2.601 1_545 S
Gd337 O381 2.362 1_556 S
Gd337 O382 2.324 1_556 S
Gd337 O386 2.545 1_455 S
Gd337 O387 2.606 1_556 S
Gd337 O389 2.429 . S
Gd337 O390 2.545 . S
Gd337 O391 2.412 1_456 S
Gd337 C404 2.828 1_455 S
C338 C341 1.417 1_655 S
C338 C343 1.431 . S
C338 C344 1.412 1_556 S
C339 C342 1.437 . S
C339 C343 1.317 . S
C339 H358 0.929 . S
C340 C341 1.426 1_655 S
C340 C342 1.413 . S
C340 N350 1.359 1_655 S
C341 C338 1.417 1_455 S
C341 C340 1.426 1_455 S
C341 N346 1.350 1_556 S
C342 C339 1.437 . S
C342 C340 1.413 . S
C342 C352 1.391 . S
C343 C338 1.431 . S
C343 C339 1.317 . S
C343 H354 0.930 . S
C344 C338 1.412 1_554 S
C344 C345 1.355 1_655 S
C344 H356 0.930 . S
C345 C344 1.355 1_455 S
C345 C347 1.402 . S
C345 H357 0.930 . S
N346 Gd337 2.661 1_564 S
N346 C341 1.350 1_554 S
N346 C347 1.307 . S
C347 C345 1.402 . S
C347 N346 1.307 . S
C347 H348 0.930 . S
H348 C347 0.930 . S
C349 N350 1.334 . S
C349 C351 1.394 1_455 S
C349 H353 0.930 . S
N350 Gd337 2.601 1_565 S
N350 C340 1.359 1_455 S
N350 C349 1.334 . S
C351 C349 1.394 1_655 S
C351 C352 1.359 . S
C351 H363 0.930 . S
C352 C342 1.391 . S
C352 C351 1.359 . S
C352 H364 0.929 . S
H353 C349 0.930 . S
H354 C343 0.930 . S
H355 C372 0.930 . S
H356 C344 0.930 . S
H357 C345 0.930 . S
H358 C339 0.929 . S
H359 C377 0.930 . S
H360 C368 0.930 1_556 S
H361 C369 0.930 . S
H362 C393 0.929 . S
H363 C351 0.930 . S
H364 C352 0.929 . S
H365 C394 0.930 . S
H366 C375 0.930 . S
N367 Gd336 2.661 . S
N367 C371 1.350 . S
N367 C372 1.307 1_554 S
C368 H360 0.930 1_554 S
C368 C369 1.355 1_554 S
C368 C370 1.412 . S
C369 H361 0.930 . S
C369 C368 1.355 1_556 S
C369 C372 1.402 . S
C370 C368 1.412 . S
C370 C371 1.417 . S
C370 C394 1.431 . S
C371 N367 1.350 . S
C371 C370 1.417 . S
C371 C374 1.426 . S
C372 H355 0.930 . S
C372 N367 1.307 1_556 S
C372 C369 1.402 . S
N373 Gd336 2.601 . S
N373 C374 1.359 . S
N373 C377 1.334 . S
C374 C371 1.426 . S
C374 N373 1.359 . S
C374 C378 1.413 . S
C375 H366 0.930 . S
C375 C376 1.359 . S
C375 C377 1.394 . S
C376 C375 1.359 . S
C376 C378 1.391 . S
C376 H379 0.929 . S
C377 H359 0.930 . S
C377 N373 1.334 . S
C377 C375 1.394 . S
C378 C374 1.413 . S
C378 C376 1.391 . S
C378 C393 1.437 . S
H379 C376 0.929 . S
O380 Gd336 2.545 . S
O380 C395 1.258 . S
O381 Gd336 2.606 . S
O381 Gd337 2.362 1_554 S
O381 C392 1.284 1_545 S
O382 Gd337 2.324 1_554 S
O382 C402 1.254 . S
O383 Gd336 2.429 . S
O383 C402 1.268 . S
O384 Gd336 2.545 . S
O384 C392 1.250 1_545 S
O385 Gd336 2.412 . S
O385 C395 1.252 . S
O386 Gd337 2.545 1_655 S
O386 C404 1.258 . S
O387 Gd336 2.362 . S
O387 Gd337 2.606 1_554 S
O387 C403 1.284 . S
O388 Gd336 2.324 1_556 S
O388 C411 1.254 . S
O389 Gd337 2.429 . S
O389 C411 1.268 . S
O390 Gd337 2.545 . S
O390 C403 1.250 1_556 S
O391 Gd337 2.412 1_654 S
O391 C404 1.252 1_554 S
C392 O381 1.284 1_565 S
C392 O384 1.250 1_565 S
C393 H362 0.929 . S
C393 C378 1.437 . S
C393 C394 1.317 . S
C394 H365 0.930 . S
C394 C370 1.431 . S
C394 C393 1.317 . S
C395 Gd336 2.828 . S
C395 O380 1.258 . S
C395 O385 1.252 . S
C395 C396 1.497 . S
C396 C395 1.497 . S
C396 C397 1.395 . S
C396 C398 1.380 . S
C397 C396 1.395 . S
C397 C400 1.398 . S
C397 H412 0.930 . S
C398 C396 1.380 . S
C398 C399 1.391 . S
C398 H413 0.930 . S
C399 C398 1.391 . S
C399 C401 1.387 . S
C400 C397 1.398 . S
C400 C401 1.380 . S
C400 H414 0.930 . S
C401 C399 1.387 . S
C401 C400 1.380 . S
C401 H415 0.930 . S
C402 O382 1.254 . S
C402 O383 1.268 . S
C403 O387 1.284 . S
C403 O390 1.250 1_554 S
C404 Gd337 2.828 1_655 S
C404 O386 1.258 . S
C404 O391 1.252 1_556 S
C404 C405 1.497 . S
C405 C404 1.497 . S
C405 C406 1.395 1_545 S
C405 C407 1.380 . S
C406 C405 1.395 1_565 S
C406 C409 1.398 . S
C406 H416 0.930 . S
C407 C405 1.380 . S
C407 C408 1.391 . S
C407 H417 0.930 1_556 S
C408 C407 1.391 . S
C408 C410 1.387 . S
C409 C406 1.398 . S
C409 C410 1.380 1_565 S
C409 H418 0.930 . S
C410 C408 1.387 . S
C410 C409 1.380 1_545 S
C410 H419 0.930 . S
C411 O388 1.254 . S
C411 O389 1.268 . S
H412 C397 0.930 . S
H413 C398 0.930 . S
H414 C400 0.930 . S
H415 C401 0.930 . S
H416 C406 0.930 . S
H417 C407 0.930 1_554 S
H418 C409 0.930 . S
H419 C410 0.930 . S
Gd420 N451 2.661 . S
Gd420 N457 2.601 . S
Gd420 O464 2.545 . S
Gd420 O465 2.606 . S
Gd420 O467 2.429 . S
Gd420 O468 2.545 . S
Gd420 O469 2.412 . S
Gd420 O471 2.362 . S
Gd420 O472 2.324 . S
Gd420 C479 2.828 . S
Gd421 N430 2.661 . S
Gd421 N434 2.601 . S
Gd421 O465 2.362 . S
Gd421 O466 2.324 . S
Gd421 O470 2.545 . S
Gd421 O471 2.606 . S
Gd421 O473 2.429 . S
Gd421 O474 2.545 . S
Gd421 O475 2.412 . S
Gd421 C488 2.828 . S
C422 C425 1.417 . S
C422 C427 1.431 . S
C422 C428 1.412 . S
C423 C426 1.437 . S
C423 C427 1.317 . S
C423 H442 0.929 . S
C424 C425 1.426 . S
C424 C426 1.413 . S
C424 N434 1.359 . S
C425 C422 1.417 . S
C425 C424 1.426 . S
C425 N430 1.350 . S
C426 C423 1.437 . S
C426 C424 1.413 . S
C426 C436 1.391 . S
C427 C422 1.431 . S
C427 C423 1.317 . S
C427 H438 0.930 . S
C428 C422 1.412 . S
C428 C429 1.355 . S
C428 H440 0.930 . S
C429 C428 1.355 . S
C429 C431 1.402 . S
C429 H441 0.930 . S
N430 Gd421 2.661 . S
N430 C425 1.350 . S
N430 C431 1.307 . S
C431 C429 1.402 . S
C431 N430 1.307 . S
C431 H432 0.930 . S
H432 C431 0.930 . S
C433 N434 1.334 . S
C433 C435 1.394 . S
C433 H437 0.930 . S
N434 Gd421 2.601 . S
N434 C424 1.359 . S
N434 C433 1.334 . S
C435 C433 1.394 . S
C435 C436 1.359 . S
C435 H447 0.930 . S
C436 C426 1.391 . S
C436 C435 1.359 . S
C436 H448 0.929 . S
H437 C433 0.930 . S
H438 C427 0.930 . S
H439 C456 0.930 . S
H440 C428 0.930 . S
H441 C429 0.930 . S
H442 C423 0.929 . S
H443 C461 0.930 . S
H444 C452 0.930 . S
H445 C453 0.930 . S
H446 C477 0.929 . S
H447 C435 0.930 . S
H448 C436 0.929 . S
H449 C478 0.930 . S
H450 C459 0.930 . S
N451 Gd420 2.661 . S
N451 C455 1.350 . S
N451 C456 1.307 . S
C452 H444 0.930 . S
C452 C453 1.355 1_545 S
C452 C454 1.412 1_545 S
C453 H445 0.930 . S
C453 C452 1.355 1_565 S
C453 C456 1.402 . S
C454 C452 1.412 1_565 S
C454 C455 1.417 . S
C454 C478 1.431 1_565 S
C455 N451 1.350 . S
C455 C454 1.417 . S
C455 C458 1.426 . S
C456 H439 0.930 . S
C456 N451 1.307 . S
C456 C453 1.402 . S
N457 Gd420 2.601 . S
N457 C458 1.359 . S
N457 C461 1.334 . S
C458 C455 1.426 . S
C458 N457 1.359 . S
C458 C462 1.413 . S
C459 H450 0.930 . S
C459 C460 1.359 . S
C459 C461 1.394 . S
C460 C459 1.359 . S
C460 C462 1.391 . S
C460 H463 0.929 . S
C461 H443 0.930 . S
C461 N457 1.334 . S
C461 C459 1.394 . S
C462 C458 1.413 . S
C462 C460 1.391 . S
C462 C477 1.437 1_565 S
H463 C460 0.929 . S
O464 Gd420 2.545 . S
O464 C479 1.258 . S
O465 Gd420 2.606 . S
O465 Gd421 2.362 . S
O465 C476 1.284 . S
O466 Gd421 2.324 . S
O466 C486 1.254 . S
O467 Gd420 2.429 . S
O467 C486 1.268 . S
O468 Gd420 2.545 . S
O468 C476 1.250 . S
O469 Gd420 2.412 . S
O469 C479 1.252 . S
O470 Gd421 2.545 . S
O470 C488 1.258 . S
O471 Gd420 2.362 . S
O471 Gd421 2.606 . S
O471 C487 1.284 . S
O472 Gd420 2.324 . S
O472 C495 1.254 . S
O473 Gd421 2.429 . S
O473 C495 1.268 . S
O474 Gd421 2.545 . S
O474 C487 1.250 . S
O475 Gd421 2.412 . S
O475 C488 1.252 . S
C476 O465 1.284 . S
C476 O468 1.250 . S
C477 H446 0.929 . S
C477 C462 1.437 1_545 S
C477 C478 1.317 . S
C478 H449 0.930 . S
C478 C454 1.431 1_545 S
C478 C477 1.317 . S
C479 Gd420 2.828 . S
C479 O464 1.258 . S
C479 O469 1.252 . S
C479 C480 1.497 . S
C480 C479 1.497 . S
C480 C481 1.395 . S
C480 C482 1.380 . S
C481 C480 1.395 . S
C481 C484 1.398 . S
C481 H496 0.930 . S
C482 C480 1.380 . S
C482 C483 1.391 . S
C482 H497 0.930 . S
C483 C482 1.391 . S
C483 C485 1.387 . S
C484 C481 1.398 . S
C484 C485 1.380 . S
C484 H498 0.930 . S
C485 C483 1.387 . S
C485 C484 1.380 . S
C485 H499 0.930 . S
C486 O466 1.254 . S
C486 O467 1.268 . S
C487 O471 1.284 . S
C487 O474 1.250 . S
C488 Gd421 2.828 . S
C488 O470 1.258 . S
C488 O475 1.252 . S
C488 C489 1.497 . S
C489 C488 1.497 . S
C489 C490 1.395 . S
C489 C491 1.380 . S
C490 C489 1.395 . S
C490 C493 1.398 . S
C490 H500 0.930 . S
C491 C489 1.380 . S
C491 C492 1.391 . S
C491 H501 0.930 . S
C492 C491 1.391 . S
C492 C494 1.387 . S
C493 C490 1.398 . S
C493 C494 1.380 . S
C493 H502 0.930 . S
C494 C492 1.387 . S
C494 C493 1.380 . S
C494 H503 0.930 . S
C495 O472 1.254 . S
C495 O473 1.268 . S
H496 C481 0.930 . S
H497 C482 0.930 . S
H498 C484 0.930 . S
H499 C485 0.930 . S
H500 C490 0.930 . S
H501 C491 0.930 . S
H502 C493 0.930 . S
H503 C494 0.930 . S
Gd504 N535 2.661 1_545 S
Gd504 N541 2.601 . S
Gd504 O548 2.545 . S
Gd504 O549 2.606 . S
Gd504 O551 2.429 . S
Gd504 O552 2.545 . S
Gd504 O553 2.412 . S
Gd504 O555 2.362 . S
Gd504 O556 2.324 . S
Gd504 C563 2.828 . S
Gd505 N514 2.661 . S
Gd505 N518 2.601 . S
Gd505 O549 2.362 . S
Gd505 O550 2.324 . S
Gd505 O554 2.545 . S
Gd505 O555 2.606 . S
Gd505 O557 2.429 . S
Gd505 O558 2.545 1_545 S
Gd505 O559 2.412 . S
Gd505 C572 2.828 . S
C506 C509 1.417 . S
C506 C511 1.431 . S
C506 C512 1.412 . S
C507 C510 1.437 . S
C507 C511 1.317 . S
C507 H526 0.929 . S
C508 C509 1.426 . S
C508 C510 1.413 . S
C508 N518 1.359 . S
C509 C506 1.417 . S
C509 C508 1.426 . S
C509 N514 1.350 . S
C510 C507 1.437 . S
C510 C508 1.413 . S
C510 C520 1.391 . S
C511 C506 1.431 . S
C511 C507 1.317 . S
C511 H522 0.930 . S
C512 C506 1.412 . S
C512 C513 1.355 . S
C512 H524 0.930 . S
C513 C512 1.355 . S
C513 C515 1.402 . S
C513 H525 0.930 . S
N514 Gd505 2.661 . S
N514 C509 1.350 . S
N514 C515 1.307 . S
C515 C513 1.402 . S
C515 N514 1.307 . S
C515 H516 0.930 . S
H516 C515 0.930 . S
C517 N518 1.334 . S
C517 C519 1.394 . S
C517 H521 0.930 . S
N518 Gd505 2.601 . S
N518 C508 1.359 . S
N518 C517 1.334 . S
C519 C517 1.394 . S
C519 C520 1.359 . S
C519 H531 0.930 . S
C520 C510 1.391 . S
C520 C519 1.359 . S
C520 H532 0.929 . S
H521 C517 0.930 . S
H522 C511 0.930 . S
H523 C540 0.930 . S
H524 C512 0.930 . S
H525 C513 0.930 . S
H526 C507 0.929 . S
H527 C545 0.930 . S
H528 C536 0.930 . S
H529 C537 0.930 . S
H530 C561 0.929 . S
H531 C519 0.930 . S
H532 C520 0.929 . S
H533 C562 0.930 . S
H534 C543 0.930 . S
N535 Gd504 2.661 1_565 S
N535 C539 1.350 . S
N535 C540 1.307 . S
C536 H528 0.930 . S
C536 C537 1.355 . S
C536 C538 1.412 . S
C537 H529 0.930 . S
C537 C536 1.355 . S
C537 C540 1.402 . S
C538 C536 1.412 . S
C538 C539 1.417 . S
C538 C562 1.431 . S
C539 N535 1.350 . S
C539 C538 1.417 . S
C539 C542 1.426 . S
C540 H523 0.930 . S
C540 N535 1.307 . S
C540 C537 1.402 . S
N541 Gd504 2.601 . S
N541 C542 1.359 1_545 S
N541 C545 1.334 . S
C542 C539 1.426 . S
C542 N541 1.359 1_565 S
C542 C546 1.413 . S
C543 H534 0.930 . S
C543 C544 1.359 1_545 S
C543 C545 1.394 . S
C544 C543 1.359 1_565 S
C544 C546 1.391 . S
C544 H547 0.929 . S
C545 H527 0.930 . S
C545 N541 1.334 . S
C545 C543 1.394 . S
C546 C542 1.413 . S
C546 C544 1.391 . S
C546 C561 1.437 . S
H547 C544 0.929 . S
O548 Gd504 2.545 . S
O548 C563 1.258 . S
O549 Gd504 2.606 . S
O549 Gd505 2.362 . S
O549 C560 1.284 . S
O550 Gd505 2.324 . S
O550 C570 1.254 . S
O551 Gd504 2.429 . S
O551 C570 1.268 . S
O552 Gd504 2.545 . S
O552 C560 1.250 . S
O553 Gd504 2.412 . S
O553 C563 1.252 . S
O554 Gd505 2.545 . S
O554 C572 1.258 . S
O555 Gd504 2.362 . S
O555 Gd505 2.606 . S
O555 C571 1.284 1_545 S
O556 Gd504 2.324 . S
O556 C579 1.254 . S
O557 Gd505 2.429 . S
O557 C579 1.268 . S
O558 Gd505 2.545 1_565 S
O558 C571 1.250 . S
O559 Gd505 2.412 . S
O559 C572 1.252 . S
C560 O549 1.284 . S
C560 O552 1.250 . S
C561 H530 0.929 . S
C561 C546 1.437 . S
C561 C562 1.317 . S
C562 H533 0.930 . S
C562 C538 1.431 . S
C562 C561 1.317 . S
C563 Gd504 2.828 . S
C563 O548 1.258 . S
C563 O553 1.252 . S
C563 C564 1.497 . S
C564 C563 1.497 . S
C564 C565 1.395 . S
C564 C566 1.380 . S
C565 C564 1.395 . S
C565 C568 1.398 . S
C565 H580 0.930 . S
C566 C564 1.380 . S
C566 C567 1.391 . S
C566 H581 0.930 . S
C567 C566 1.391 . S
C567 C569 1.387 . S
C568 C565 1.398 . S
C568 C569 1.380 . S
C568 H582 0.930 . S
C569 C567 1.387 . S
C569 C568 1.380 . S
C569 H583 0.930 . S
C570 O550 1.254 . S
C570 O551 1.268 . S
C571 O555 1.284 1_565 S
C571 O558 1.250 . S
C572 Gd505 2.828 . S
C572 O554 1.258 . S
C572 O559 1.252 . S
C572 C573 1.497 1_545 S
C573 C572 1.497 1_565 S
C573 C574 1.395 . S
C573 C575 1.380 . S
C574 C573 1.395 . S
C574 C577 1.398 . S
C574 H584 0.930 . S
C575 C573 1.380 . S
C575 C576 1.391 . S
C575 H585 0.930 . S
C576 C575 1.391 . S
C576 C578 1.387 . S
C577 C574 1.398 . S
C577 C578 1.380 . S
C577 H586 0.930 . S
C578 C576 1.387 . S
C578 C577 1.380 . S
C578 H587 0.930 . S
C579 O556 1.254 . S
C579 O557 1.268 . S
H580 C565 0.930 . S
H581 C566 0.930 . S
H582 C568 0.930 . S
H583 C569 0.930 . S
H584 C574 0.930 . S
H585 C575 0.930 . S
H586 C577 0.930 . S
H587 C578 0.930 . S
Gd588 N619 2.661 . S
Gd588 N625 2.601 . S
Gd588 O632 2.545 . S
Gd588 O633 2.606 . S
Gd588 O635 2.429 . S
Gd588 O636 2.545 . S
Gd588 O637 2.412 . S
Gd588 O639 2.362 . S
Gd588 O640 2.324 . S
Gd588 C647 2.828 . S
Gd589 N598 2.661 . S
Gd589 N602 2.601 . S
Gd589 O633 2.362 . S
Gd589 O634 2.324 . S
Gd589 O638 2.545 . S
Gd589 O639 2.606 . S
Gd589 O641 2.429 . S
Gd589 O642 2.545 . S
Gd589 O643 2.412 . S
Gd589 C656 2.828 . S
C590 C593 1.417 . S
C590 C595 1.431 . S
C590 C596 1.412 . S
C591 C594 1.437 . S
C591 C595 1.317 . S
C591 H610 0.929 . S
C592 C593 1.426 . S
C592 C594 1.413 . S
C592 N602 1.359 . S
C593 C590 1.417 . S
C593 C592 1.426 . S
C593 N598 1.350 . S
C594 C591 1.437 . S
C594 C592 1.413 . S
C594 C604 1.391 . S
C595 C590 1.431 . S
C595 C591 1.317 . S
C595 H606 0.930 . S
C596 C590 1.412 . S
C596 C597 1.355 . S
C596 H608 0.930 . S
C597 C596 1.355 . S
C597 C599 1.402 . S
C597 H609 0.930 . S
N598 Gd589 2.661 . S
N598 C593 1.350 . S
N598 C599 1.307 . S
C599 C597 1.402 . S
C599 N598 1.307 . S
C599 H600 0.930 . S
H600 C599 0.930 . S
C601 N602 1.334 . S
C601 C603 1.394 . S
C601 H605 0.930 . S
N602 Gd589 2.601 . S
N602 C592 1.359 . S
N602 C601 1.334 . S
C603 C601 1.394 . S
C603 C604 1.359 . S
C603 H615 0.930 . S
C604 C594 1.391 . S
C604 C603 1.359 . S
C604 H616 0.929 . S
H605 C601 0.930 . S
H606 C595 0.930 . S
H607 C624 0.930 . S
H608 C596 0.930 . S
H609 C597 0.930 . S
H610 C591 0.929 . S
H611 C629 0.930 . S
H612 C620 0.930 . S
H613 C621 0.930 . S
H614 C645 0.929 . S
H615 C603 0.930 . S
H616 C604 0.929 . S
H617 C646 0.930 1_554 S
H618 C627 0.930 . S
N619 Gd588 2.661 . S
N619 C623 1.350 . S
N619 C624 1.307 . S
C620 H612 0.930 . S
C620 C621 1.355 . S
C620 C622 1.412 . S
C621 H613 0.930 . S
C621 C620 1.355 . S
C621 C624 1.402 . S
C622 C620 1.412 . S
C622 C623 1.417 . S
C622 C646 1.431 . S
C623 N619 1.350 . S
C623 C622 1.417 . S
C623 C626 1.426 . S
C624 H607 0.930 . S
C624 N619 1.307 . S
C624 C621 1.402 . S
N625 Gd588 2.601 . S
N625 C626 1.359 . S
N625 C629 1.334 . S
C626 C623 1.426 . S
C626 N625 1.359 . S
C626 C630 1.413 . S
C627 H618 0.930 . S
C627 C628 1.359 . S
C627 C629 1.394 . S
C628 C627 1.359 . S
C628 C630 1.391 . S
C628 H631 0.929 . S
C629 H611 0.930 . S
C629 N625 1.334 . S
C629 C627 1.394 . S
C630 C626 1.413 . S
C630 C628 1.391 . S
C630 C645 1.437 . S
H631 C628 0.929 . S
O632 Gd588 2.545 . S
O632 C647 1.258 . S
O633 Gd588 2.606 . S
O633 Gd589 2.362 . S
O633 C644 1.284 . S
O634 Gd589 2.324 . S
O634 C654 1.254 . S
O635 Gd588 2.429 . S
O635 C654 1.268 . S
O636 Gd588 2.545 . S
O636 C644 1.250 . S
O637 Gd588 2.412 . S
O637 C647 1.252 . S
O638 Gd589 2.545 . S
O638 C656 1.258 . S
O639 Gd588 2.362 . S
O639 Gd589 2.606 . S
O639 C655 1.284 . S
O640 Gd588 2.324 . S
O640 C663 1.254 . S
O641 Gd589 2.429 . S
O641 C663 1.268 . S
O642 Gd589 2.545 . S
O642 C655 1.250 . S
O643 Gd589 2.412 . S
O643 C656 1.252 . S
C644 O633 1.284 . S
C644 O636 1.250 . S
C645 H614 0.929 . S
C645 C630 1.437 . S
C645 C646 1.317 . S
C646 H617 0.930 1_556 S
C646 C622 1.431 . S
C646 C645 1.317 . S
C647 Gd588 2.828 . S
C647 O632 1.258 . S
C647 O637 1.252 . S
C647 C648 1.497 . S
C648 C647 1.497 . S
C648 C649 1.395 . S
C648 C650 1.380 . S
C649 C648 1.395 . S
C649 C652 1.398 . S
C649 H664 0.930 . S
C650 C648 1.380 . S
C650 C651 1.391 . S
C650 H665 0.930 . S
C651 C650 1.391 . S
C651 C653 1.387 . S
C652 C649 1.398 . S
C652 C653 1.380 . S
C652 H666 0.930 . S
C653 C651 1.387 . S
C653 C652 1.380 . S
C653 H667 0.930 . S
C654 O634 1.254 . S
C654 O635 1.268 . S
C655 O639 1.284 . S
C655 O642 1.250 . S
C656 Gd589 2.828 . S
C656 O638 1.258 . S
C656 O643 1.252 . S
C656 C657 1.497 . S
C657 C656 1.497 . S
C657 C658 1.395 . S
C657 C659 1.380 . S
C658 C657 1.395 . S
C658 C661 1.398 . S
C658 H668 0.930 . S
C659 C657 1.380 . S
C659 C660 1.391 . S
C659 H669 0.930 . S
C660 C659 1.391 . S
C660 C662 1.387 . S
C661 C658 1.398 . S
C661 C662 1.380 . S
C661 H670 0.930 . S
C662 C660 1.387 . S
C662 C661 1.380 . S
C662 H671 0.930 . S
C663 O640 1.254 . S
C663 O641 1.268 . S
H664 C649 0.930 . S
H665 C650 0.930 . S
H666 C652 0.930 . S
H667 C653 0.930 . S
H668 C658 0.930 . S
H669 C659 0.930 . S
H670 C661 0.930 . S
H671 C662 0.930 . S
Gd672 N703 2.661 . S
Gd672 N709 2.601 . S
Gd672 O716 2.545 . S
Gd672 O717 2.606 1_565 S
Gd672 O719 2.429 1_565 S
Gd672 O720 2.545 . S
Gd672 O721 2.412 . S
Gd672 O723 2.362 1_565 S
Gd672 O724 2.324 . S
Gd672 C731 2.828 . S
Gd673 N682 2.661 . S
Gd673 N686 2.601 . S
Gd673 O717 2.362 . S
Gd673 O718 2.324 . S
Gd673 O722 2.545 . S
Gd673 O723 2.606 . S
Gd673 O725 2.429 . S
Gd673 O726 2.545 . S
Gd673 O727 2.412 . S
Gd673 C740 2.828 . S
C674 C677 1.417 . S
C674 C679 1.431 . S
C674 C680 1.412 . S
C675 C678 1.437 . S
C675 C679 1.317 . S
C675 H694 0.929 . S
C676 C677 1.426 . S
C676 C678 1.413 . S
C676 N686 1.359 . S
C677 C674 1.417 . S
C677 C676 1.426 . S
C677 N682 1.350 . S
C678 C675 1.437 . S
C678 C676 1.413 . S
C678 C688 1.391 . S
C679 C674 1.431 . S
C679 C675 1.317 . S
C679 H690 0.930 . S
C680 C674 1.412 . S
C680 C681 1.355 . S
C680 H692 0.930 . S
C681 C680 1.355 . S
C681 C683 1.402 . S
C681 H693 0.930 . S
N682 Gd673 2.661 . S
N682 C677 1.350 . S
N682 C683 1.307 . S
C683 C681 1.402 . S
C683 N682 1.307 . S
C683 H684 0.930 . S
H684 C683 0.930 . S
C685 N686 1.334 . S
C685 C687 1.394 . S
C685 H689 0.930 . S
N686 Gd673 2.601 . S
N686 C676 1.359 . S
N686 C685 1.334 . S
C687 C685 1.394 . S
C687 C688 1.359 . S
C687 H699 0.930 . S
C688 C678 1.391 . S
C688 C687 1.359 . S
C688 H700 0.929 . S
H689 C685 0.930 . S
H690 C679 0.930 . S
H691 C708 0.930 1_655 S
H692 C680 0.930 . S
H693 C681 0.930 . S
H694 C675 0.929 . S
H695 C713 0.930 . S
H696 C704 0.930 . S
H697 C705 0.930 . S
H698 C729 0.929 . S
H699 C687 0.930 . S
H700 C688 0.929 . S
H701 C730 0.930 . S
H702 C711 0.930 . S
N703 Gd672 2.661 . S
N703 C707 1.350 . S
N703 C708 1.307 . S
C704 H696 0.930 . S
C704 C705 1.355 . S
C704 C706 1.412 1_655 S
C705 H697 0.930 . S
C705 C704 1.355 . S
C705 C708 1.402 1_655 S
C706 C704 1.412 1_455 S
C706 C707 1.417 . S
C706 C730 1.431 . S
C707 N703 1.350 . S
C707 C706 1.417 . S
C707 C710 1.426 . S
C708 H691 0.930 1_455 S
C708 N703 1.307 . S
C708 C705 1.402 1_455 S
N709 Gd672 2.601 . S
N709 C710 1.359 . S
N709 C713 1.334 . S
C710 C707 1.426 . S
C710 N709 1.359 . S
C710 C714 1.413 . S
C711 H702 0.930 . S
C711 C712 1.359 . S
C711 C713 1.394 . S
C712 C711 1.359 . S
C712 C714 1.391 . S
C712 H715 0.929 . S
C713 H695 0.930 . S
C713 N709 1.334 . S
C713 C711 1.394 . S
C714 C710 1.413 . S
C714 C712 1.391 . S
C714 C729 1.437 . S
H715 C712 0.929 . S
O716 Gd672 2.545 . S
O716 C731 1.258 . S
O717 Gd672 2.606 1_545 S
O717 Gd673 2.362 . S
O717 C728 1.284 . S
O718 Gd673 2.324 . S
O718 C738 1.254 . S
O719 Gd672 2.429 1_545 S
O719 C738 1.268 . S
O720 Gd672 2.545 . S
O720 C728 1.251 1_565 S
O721 Gd672 2.412 . S
O721 C731 1.252 . S
O722 Gd673 2.545 . S
O722 C740 1.258 . S
O723 Gd672 2.362 1_545 S
O723 Gd673 2.606 . S
O723 C739 1.284 . S
O724 Gd672 2.324 . S
O724 C747 1.254 1_565 S
O725 Gd673 2.429 . S
O725 C747 1.268 . S
O726 Gd673 2.545 . S
O726 C739 1.250 . S
O727 Gd673 2.412 . S
O727 C740 1.252 . S
C728 O717 1.284 . S
C728 O720 1.251 1_545 S
C729 H698 0.929 . S
C729 C714 1.437 . S
C729 C730 1.317 . S
C730 H701 0.930 . S
C730 C706 1.431 . S
C730 C729 1.317 . S
C731 Gd672 2.828 . S
C731 O716 1.258 . S
C731 O721 1.252 . S
C731 C732 1.497 . S
C732 C731 1.497 . S
C732 C733 1.395 . S
C732 C734 1.380 . S
C733 C732 1.395 . S
C733 C736 1.398 . S
C733 H748 0.930 . S
C734 C732 1.380 . S
C734 C735 1.391 . S
C734 H749 0.930 . S
C735 C734 1.391 . S
C735 C737 1.387 . S
C736 C733 1.398 . S
C736 C737 1.380 . S
C736 H750 0.930 . S
C737 C735 1.387 . S
C737 C736 1.380 . S
C737 H751 0.930 . S
C738 O718 1.254 . S
C738 O719 1.268 . S
C739 O723 1.284 . S
C739 O726 1.250 . S
C740 Gd673 2.828 . S
C740 O722 1.258 . S
C740 O727 1.252 . S
C740 C741 1.497 . S
C741 C740 1.497 . S
C741 C742 1.395 . S
C741 C743 1.380 . S
C742 C741 1.395 . S
C742 C745 1.398 . S
C742 H752 0.930 . S
C743 C741 1.380 . S
C743 C744 1.391 . S
C743 H753 0.930 . S
C744 C743 1.391 . S
C744 C746 1.387 . S
C745 C742 1.398 . S
C745 C746 1.380 . S
C745 H754 0.930 . S
C746 C744 1.387 . S
C746 C745 1.380 . S
C746 H755 0.930 . S
C747 O724 1.254 1_545 S
C747 O725 1.268 . S
H748 C733 0.930 . S
H749 C734 0.930 . S
H750 C736 0.930 . S
H751 C737 0.930 . S
H752 C742 0.930 . S
H753 C743 0.930 . S
H754 C745 0.930 . S
H755 C746 0.930 . S
Gd756 N787 2.661 . S
Gd756 N793 2.601 . S
Gd756 O800 2.545 . S
Gd756 O801 2.606 . S
Gd756 O803 2.429 . S
Gd756 O804 2.545 . S
Gd756 O805 2.412 . S
Gd756 O807 2.362 . S
Gd756 O808 2.324 . S
Gd756 C815 2.828 . S
Gd757 N766 2.661 . S
Gd757 N770 2.601 . S
Gd757 O801 2.362 . S
Gd757 O802 2.324 . S
Gd757 O806 2.545 . S
Gd757 O807 2.606 . S
Gd757 O809 2.429 . S
Gd757 O810 2.545 . S
Gd757 O811 2.412 . S
Gd757 C824 2.828 . S
C758 C761 1.417 1_545 S
C758 C763 1.431 . S
C758 C764 1.412 . S
C759 C762 1.437 1_545 S
C759 C763 1.317 . S
C759 H778 0.929 . S
C760 C761 1.426 . S
C760 C762 1.413 . S
C760 N770 1.359 . S
C761 C758 1.417 1_565 S
C761 C760 1.426 . S
C761 N766 1.350 . S
C762 C759 1.437 1_565 S
C762 C760 1.413 . S
C762 C772 1.391 . S
C763 C758 1.431 . S
C763 C759 1.317 . S
C763 H774 0.930 . S
C764 C758 1.412 . S
C764 C765 1.355 . S
C764 H776 0.930 . S
C765 C764 1.355 . S
C765 C767 1.402 1_545 S
C765 H777 0.930 . S
N766 Gd757 2.661 . S
N766 C761 1.350 . S
N766 C767 1.307 . S
C767 C765 1.402 1_565 S
C767 N766 1.307 . S
C767 H768 0.930 . S
H768 C767 0.930 . S
C769 N770 1.334 . S
C769 C771 1.394 . S
C769 H773 0.930 . S
N770 Gd757 2.601 . S
N770 C760 1.359 . S
N770 C769 1.334 . S
C771 C769 1.394 . S
C771 C772 1.359 . S
C771 H783 0.930 . S
C772 C762 1.391 . S
C772 C771 1.359 . S
C772 H784 0.929 . S
H773 C769 0.930 . S
H774 C763 0.930 . S
H775 C792 0.930 . S
H776 C764 0.930 . S
H777 C765 0.930 . S
H778 C759 0.929 . S
H779 C797 0.930 . S
H780 C788 0.930 . S
H781 C789 0.930 . S
H782 C813 0.929 . S
H783 C771 0.930 . S
H784 C772 0.929 . S
H785 C814 0.930 . S
H786 C795 0.930 . S
N787 Gd756 2.661 . S
N787 C791 1.350 . S
N787 C792 1.307 . S
C788 H780 0.930 . S
C788 C789 1.355 . S
C788 C790 1.412 . S
C789 H781 0.930 . S
C789 C788 1.355 . S
C789 C792 1.402 . S
C790 C788 1.412 . S
C790 C791 1.417 . S
C790 C814 1.431 . S
C791 N787 1.350 . S
C791 C790 1.417 . S
C791 C794 1.426 . S
C792 H775 0.930 . S
C792 N787 1.307 . S
C792 C789 1.402 . S
N793 Gd756 2.601 . S
N793 C794 1.359 . S
N793 C797 1.334 . S
C794 C791 1.426 . S
C794 N793 1.359 . S
C794 C798 1.413 . S
C795 H786 0.930 . S
C795 C796 1.359 . S
C795 C797 1.394 . S
C796 C795 1.359 . S
C796 C798 1.391 . S
C796 H799 0.929 . S
C797 H779 0.930 . S
C797 N793 1.334 . S
C797 C795 1.394 . S
C798 C794 1.413 . S
C798 C796 1.391 . S
C798 C813 1.437 . S
H799 C796 0.929 . S
O800 Gd756 2.545 . S
O800 C815 1.258 . S
O801 Gd756 2.606 . S
O801 Gd757 2.362 . S
O801 C812 1.284 . S
O802 Gd757 2.324 . S
O802 C822 1.254 . S
O803 Gd756 2.429 . S
O803 C822 1.268 . S
O804 Gd756 2.545 . S
O804 C812 1.250 . S
O805 Gd756 2.412 . S
O805 C815 1.252 . S
O806 Gd757 2.545 . S
O806 C824 1.258 . S
O807 Gd756 2.362 . S
O807 Gd757 2.606 . S
O807 C823 1.284 . S
O808 Gd756 2.324 . S
O808 C831 1.254 . S
O809 Gd757 2.429 . S
O809 C831 1.268 . S
O810 Gd757 2.545 . S
O810 C823 1.250 . S
O811 Gd757 2.412 . S
O811 C824 1.252 . S
C812 O801 1.284 . S
C812 O804 1.250 . S
C813 H782 0.929 . S
C813 C798 1.437 . S
C813 C814 1.317 . S
C814 H785 0.930 . S
C814 C790 1.431 . S
C814 C813 1.317 . S
C815 Gd756 2.828 . S
C815 O800 1.258 . S
C815 O805 1.252 . S
C815 C816 1.497 . S
C816 C815 1.497 . S
C816 C817 1.395 . S
C816 C818 1.380 . S
C817 C816 1.395 . S
C817 C820 1.398 . S
C817 H832 0.930 . S
C818 C816 1.380 . S
C818 C819 1.391 . S
C818 H833 0.930 . S
C819 C818 1.391 . S
C819 C821 1.387 . S
C820 C817 1.398 . S
C820 C821 1.380 . S
C820 H834 0.930 . S
C821 C819 1.387 . S
C821 C820 1.380 . S
C821 H835 0.930 . S
C822 O802 1.254 . S
C822 O803 1.268 . S
C823 O807 1.284 . S
C823 O810 1.250 . S
C824 Gd757 2.828 . S
C824 O806 1.258 . S
C824 O811 1.252 . S
C824 C825 1.497 . S
C825 C824 1.497 . S
C825 C826 1.395 . S
C825 C827 1.380 . S
C826 C825 1.395 . S
C826 C829 1.398 . S
C826 H836 0.930 . S
C827 C825 1.380 . S
C827 C828 1.391 . S
C827 H837 0.930 . S
C828 C827 1.391 . S
C828 C830 1.387 . S
C829 C826 1.398 . S
C829 C830 1.380 . S
C829 H838 0.930 . S
C830 C828 1.387 . S
C830 C829 1.380 . S
C830 H839 0.930 . S
C831 O808 1.254 . S
C831 O809 1.268 . S
H832 C817 0.930 . S
H833 C818 0.930 . S
H834 C820 0.930 . S
H835 C821 0.930 . S
H836 C826 0.930 . S
H837 C827 0.930 . S
H838 C829 0.930 . S
H839 C830 0.930 . S
Gd840 N871 2.661 . S
Gd840 N877 2.601 . S
Gd840 O884 2.545 . S
Gd840 O885 2.606 1_556 S
Gd840 O887 2.429 1_556 S
Gd840 O888 2.545 1_556 S
Gd840 O889 2.412 . S
Gd840 O891 2.362 1_556 S
Gd840 O892 2.324 . S
Gd840 C899 2.828 . S
Gd841 N850 2.661 . S
Gd841 N854 2.601 . S
Gd841 O885 2.362 . S
Gd841 O886 2.324 . S
Gd841 O890 2.545 1_545 S
Gd841 O891 2.606 . S
Gd841 O893 2.429 1_545 S
Gd841 O894 2.545 1_545 S
Gd841 O895 2.412 . S
Gd841 C908 2.828 . S
C842 C845 1.417 . S
C842 C847 1.431 . S
C842 C848 1.412 . S
C843 C846 1.437 . S
C843 C847 1.317 . S
C843 H862 0.929 . S
C844 C845 1.426 . S
C844 C846 1.413 . S
C844 N854 1.359 . S
C845 C842 1.417 . S
C845 C844 1.426 . S
C845 N850 1.350 . S
C846 C843 1.437 . S
C846 C844 1.413 . S
C846 C856 1.391 1_545 S
C847 C842 1.431 . S
C847 C843 1.317 . S
C847 H858 0.930 . S
C848 C842 1.412 . S
C848 C849 1.355 . S
C848 H860 0.930 . S
C849 C848 1.355 . S
C849 C851 1.402 . S
C849 H861 0.930 . S
N850 Gd841 2.661 . S
N850 C845 1.350 . S
N850 C851 1.307 . S
C851 C849 1.402 . S
C851 N850 1.307 . S
C851 H852 0.930 . S
H852 C851 0.930 . S
C853 N854 1.334 1_565 S
C853 C855 1.394 . S
C853 H857 0.930 . S
N854 Gd841 2.601 . S
N854 C844 1.359 . S
N854 C853 1.334 1_545 S
C855 C853 1.394 . S
C855 C856 1.359 . S
C855 H867 0.930 . S
C856 C846 1.391 1_565 S
C856 C855 1.359 . S
C856 H868 0.929 . S
H857 C853 0.930 . S
H858 C847 0.930 . S
H859 C876 0.930 . S
H860 C848 0.930 . S
H861 C849 0.930 . S
H862 C843 0.929 . S
H863 C881 0.930 . S
H864 C872 0.930 . S
H865 C873 0.930 . S
H866 C897 0.929 . S
H867 C855 0.930 . S
H868 C856 0.929 . S
H869 C898 0.930 1_565 S
H870 C879 0.930 . S
N871 Gd840 2.661 . S
N871 C875 1.350 . S
N871 C876 1.307 1_545 S
C872 H864 0.930 . S
C872 C873 1.355 . S
C872 C874 1.413 . S
C873 H865 0.930 . S
C873 C872 1.355 . S
C873 C876 1.402 . S
C874 C872 1.413 . S
C874 C875 1.416 1_565 S
C874 C898 1.430 1_565 S
C875 N871 1.350 . S
C875 C874 1.416 1_545 S
C875 C878 1.426 . S
C876 H859 0.930 . S
C876 N871 1.307 1_565 S
C876 C873 1.402 . S
N877 Gd840 2.601 . S
N877 C878 1.359 . S
N877 C881 1.334 . S
C878 C875 1.426 . S
C878 N877 1.359 . S
C878 C882 1.413 . S
C879 H870 0.930 . S
C879 C880 1.359 . S
C879 C881 1.394 . S
C880 C879 1.359 . S
C880 C882 1.391 . S
C880 H883 0.929 . S
C881 H863 0.930 . S
C881 N877 1.334 . S
C881 C879 1.394 . S
C882 C878 1.413 . S
C882 C880 1.391 . S
C882 C897 1.437 . S
H883 C880 0.929 . S
O884 Gd840 2.545 . S
O884 C899 1.258 . S
O885 Gd840 2.606 1_554 S
O885 Gd841 2.362 . S
O885 C896 1.284 . S
O886 Gd841 2.324 . S
O886 C906 1.254 . S
O887 Gd840 2.429 1_554 S
O887 C906 1.268 . S
O888 Gd840 2.545 1_554 S
O888 C896 1.249 . S
O889 Gd840 2.412 . S
O889 C899 1.252 . S
O890 Gd841 2.545 1_565 S
O890 C908 1.258 1_565 S
O891 Gd840 2.362 1_554 S
O891 Gd841 2.606 . S
O891 C907 1.284 . S
O892 Gd840 2.324 . S
O892 C915 1.254 1_545 S
O893 Gd841 2.429 1_565 S
O893 C915 1.268 1_554 S
O894 Gd841 2.545 1_565 S
O894 C907 1.250 1_565 S
O895 Gd841 2.412 . S
O895 C908 1.252 . S
C896 O885 1.284 . S
C896 O888 1.249 . S
C897 H866 0.929 . S
C897 C882 1.437 . S
C897 C898 1.317 . S
C898 H869 0.930 1_545 S
C898 C874 1.430 1_545 S
C898 C897 1.317 . S
C899 Gd840 2.828 . S
C899 O884 1.258 . S
C899 O889 1.252 . S
C899 C900 1.497 . S
C900 C899 1.497 . S
C900 C901 1.395 . S
C900 C902 1.380 . S
C901 C900 1.395 . S
C901 C904 1.398 . S
C901 H916 0.930 . S
C902 C900 1.380 . S
C902 C903 1.391 . S
C902 H917 0.930 . S
C903 C902 1.391 . S
C903 C905 1.387 . S
C904 C901 1.398 . S
C904 C905 1.380 . S
C904 H918 0.930 . S
C905 C903 1.387 . S
C905 C904 1.380 . S
C905 H919 0.930 . S
C906 O886 1.254 . S
C906 O887 1.268 . S
C907 O891 1.284 . S
C907 O894 1.250 1_545 S
C908 Gd841 2.828 . S
C908 O890 1.258 1_545 S
C908 O895 1.252 . S
C908 C909 1.497 1_545 S
C909 C908 1.497 1_565 S
C909 C910 1.395 . S
C909 C911 1.380 1_565 S
C910 C909 1.395 . S
C910 C913 1.398 . S
C910 H920 0.930 . S
C911 C909 1.380 1_545 S
C911 C912 1.391 1_545 S
C911 H921 0.930 . S
C912 C911 1.391 1_565 S
C912 C914 1.387 . S
C913 C910 1.398 . S
C913 C914 1.380 . S
C913 H922 0.930 . S
C914 C912 1.387 . S
C914 C913 1.380 . S
C914 H923 0.930 . S
C915 O892 1.254 1_565 S
C915 O893 1.268 1_556 S
H916 C901 0.930 . S
H917 C902 0.930 . S
H918 C904 0.930 . S
H919 C905 0.930 . S
H920 C910 0.930 . S
H921 C911 0.930 . S
H922 C913 0.930 . S
H923 C914 0.930 . S
Gd924 N955 2.661 . S
Gd924 N961 2.601 . S
Gd924 O968 2.545 . S
Gd924 O969 2.606 . S
Gd924 O971 2.429 . S
Gd924 O972 2.545 . S
Gd924 O973 2.412 . S
Gd924 O975 2.362 . S
Gd924 O976 2.324 . S
Gd924 C983 2.828 . S
Gd925 N934 2.661 . S
Gd925 N938 2.601 . S
Gd925 O969 2.362 . S
Gd925 O970 2.324 . S
Gd925 O974 2.545 . S
Gd925 O975 2.606 . S
Gd925 O977 2.429 . S
Gd925 O978 2.545 . S
Gd925 O979 2.412 . S
Gd925 C992 2.828 . S
C926 C929 1.417 . S
C926 C931 1.431 . S
C926 C932 1.412 . S
C927 C930 1.437 . S
C927 C931 1.317 . S
C927 H946 0.929 . S
C928 C929 1.426 . S
C928 C930 1.413 . S
C928 N938 1.359 . S
C929 C926 1.417 . S
C929 C928 1.426 . S
C929 N934 1.350 . S
C930 C927 1.437 . S
C930 C928 1.413 . S
C930 C940 1.391 . S
C931 C926 1.431 . S
C931 C927 1.317 . S
C931 H942 0.930 . S
C932 C926 1.412 . S
C932 C933 1.355 . S
C932 H944 0.930 . S
C933 C932 1.355 . S
C933 C935 1.402 . S
C933 H945 0.930 . S
N934 Gd925 2.661 . S
N934 C929 1.350 . S
N934 C935 1.307 . S
C935 C933 1.402 . S
C935 N934 1.307 . S
C935 H936 0.930 . S
H936 C935 0.930 . S
C937 N938 1.334 . S
C937 C939 1.394 . S
C937 H941 0.930 . S
N938 Gd925 2.601 . S
N938 C928 1.359 . S
N938 C937 1.334 . S
C939 C937 1.394 . S
C939 C940 1.359 . S
C939 H951 0.930 . S
C940 C930 1.391 . S
C940 C939 1.359 . S
C940 H952 0.929 . S
H941 C937 0.930 . S
H942 C931 0.930 . S
H943 C960 0.930 . S
H944 C932 0.930 . S
H945 C933 0.930 . S
H946 C927 0.929 . S
H947 C965 0.930 . S
H948 C956 0.930 . S
H949 C957 0.930 . S
H950 C981 0.929 . S
H951 C939 0.930 . S
H952 C940 0.929 . S
H953 C982 0.930 . S
H954 C963 0.930 . S
N955 Gd924 2.661 . S
N955 C959 1.350 . S
N955 C960 1.307 . S
C956 H948 0.930 . S
C956 C957 1.355 . S
C956 C958 1.412 . S
C957 H949 0.930 . S
C957 C956 1.355 . S
C957 C960 1.402 . S
C958 C956 1.412 . S
C958 C959 1.417 . S
C958 C982 1.431 . S
C959 N955 1.350 . S
C959 C958 1.417 . S
C959 C962 1.426 . S
C960 H943 0.930 . S
C960 N955 1.307 . S
C960 C957 1.402 . S
N961 Gd924 2.601 . S
N961 C962 1.359 . S
N961 C965 1.334 . S
C962 C959 1.426 . S
C962 N961 1.359 . S
C962 C966 1.413 . S
C963 H954 0.930 . S
C963 C964 1.359 . S
C963 C965 1.394 . S
C964 C963 1.359 . S
C964 C966 1.391 . S
C964 H967 0.929 . S
C965 H947 0.930 . S
C965 N961 1.334 . S
C965 C963 1.394 . S
C966 C962 1.413 . S
C966 C964 1.391 . S
C966 C981 1.437 . S
H967 C964 0.929 . S
O968 Gd924 2.545 . S
O968 C983 1.258 . S
O969 Gd924 2.606 . S
O969 Gd925 2.362 . S
O969 C980 1.284 . S
O970 Gd925 2.324 . S
O970 C990 1.254 . S
O971 Gd924 2.429 . S
O971 C990 1.268 . S
O972 Gd924 2.545 . S
O972 C980 1.250 . S
O973 Gd924 2.412 . S
O973 C983 1.252 . S
O974 Gd925 2.545 . S
O974 C992 1.258 . S
O975 Gd924 2.362 . S
O975 Gd925 2.606 . S
O975 C991 1.284 . S
O976 Gd924 2.324 . S
O976 C999 1.254 . S
O977 Gd925 2.429 . S
O977 C999 1.268 . S
O978 Gd925 2.545 . S
O978 C991 1.250 . S
O979 Gd925 2.412 . S
O979 C992 1.252 . S
C980 O969 1.284 . S
C980 O972 1.250 . S
C981 H950 0.929 . S
C981 C966 1.437 . S
C981 C982 1.317 . S
C982 H953 0.930 . S
C982 C958 1.431 . S
C982 C981 1.317 . S
C983 Gd924 2.828 . S
C983 O968 1.258 . S
C983 O973 1.252 . S
C983 C984 1.497 . S
C984 C983 1.497 . S
C984 C985 1.395 . S
C984 C986 1.380 . S
C985 C984 1.395 . S
C985 C988 1.398 1_545 S
C985 H1000 0.930 . S
C986 C984 1.380 . S
C986 C987 1.391 1_545 S
C986 H1001 0.930 . S
C987 C986 1.391 1_565 S
C987 C989 1.387 . S
C988 C985 1.398 1_565 S
C988 C989 1.380 . S
C988 H1002 0.930 . S
C989 C987 1.387 . S
C989 C988 1.380 . S
C989 H1003 0.930 . S
C990 O970 1.254 . S
C990 O971 1.268 . S
C991 O975 1.284 . S
C991 O978 1.250 . S
C992 Gd925 2.828 . S
C992 O974 1.258 . S
C992 O979 1.252 . S
C992 C993 1.497 . S
C993 C992 1.497 . S
C993 C994 1.395 . S
C993 C995 1.380 . S
C994 C993 1.395 . S
C994 C997 1.398 . S
C994 H1004 0.930 . S
C995 C993 1.380 . S
C995 C996 1.391 . S
C995 H1005 0.930 . S
C996 C995 1.391 . S
C996 C998 1.387 . S
C997 C994 1.398 . S
C997 C998 1.380 . S
C997 H1006 0.930 . S
C998 C996 1.387 . S
C998 C997 1.380 . S
C998 H1007 0.930 . S
C999 O976 1.254 . S
C999 O977 1.268 . S
H1000 C985 0.930 . S
H1001 C986 0.930 . S
H1002 C988 0.930 . S
H1003 C989 0.930 . S
H1004 C994 0.930 . S
H1005 C995 0.930 . S
H1006 C997 0.930 . S
H1007 C998 0.930 . S
Gd1008 N1039 2.661 . S
Gd1008 N1045 2.601 . S
Gd1008 O1052 2.545 . S
Gd1008 O1053 2.606 1_556 S
Gd1008 O1055 2.429 . S
Gd1008 O1056 2.545 1_556 S
Gd1008 O1057 2.412 . S
Gd1008 O1059 2.362 . S
Gd1008 O1060 2.324 1_556 S
Gd1008 C1067 2.828 . S
Gd1009 N1018 2.661 . S
Gd1009 N1022 2.601 . S
Gd1009 O1053 2.362 . S
Gd1009 O1054 2.324 . S
Gd1009 O1058 2.545 . S
Gd1009 O1059 2.606 1_554 S
Gd1009 O1061 2.429 . S
Gd1009 O1062 2.545 1_554 S
Gd1009 O1063 2.412 . S
Gd1009 C1076 2.828 . S
C1010 C1013 1.417 . S
C1010 C1015 1.431 . S
C1010 C1016 1.412 . S
C1011 C1014 1.437 . S
C1011 C1015 1.317 . S
C1011 H1030 0.929 . S
C1012 C1013 1.426 . S
C1012 C1014 1.413 . S
C1012 N1022 1.359 . S
C1013 C1010 1.417 . S
C1013 C1012 1.426 . S
C1013 N1018 1.350 . S
C1014 C1011 1.437 . S
C1014 C1012 1.413 . S
C1014 C1024 1.391 . S
C1015 C1010 1.431 . S
C1015 C1011 1.317 . S
C1015 H1026 0.930 . S
C1016 C1010 1.412 . S
C1016 C1017 1.355 . S
C1016 H1028 0.930 . S
C1017 C1016 1.355 . S
C1017 C1019 1.402 . S
C1017 H1029 0.930 . S
N1018 Gd1009 2.661 . S
N1018 C1013 1.350 . S
N1018 C1019 1.307 . S
C1019 C1017 1.402 . S
C1019 N1018 1.307 . S
C1019 H1020 0.930 . S
H1020 C1019 0.930 . S
C1021 N1022 1.334 . S
C1021 C1023 1.394 . S
C1021 H1025 0.930 . S
N1022 Gd1009 2.601 . S
N1022 C1012 1.359 . S
N1022 C1021 1.334 . S
C1023 C1021 1.394 . S
C1023 C1024 1.359 . S
C1023 H1035 0.930 . S
C1024 C1014 1.391 . S
C1024 C1023 1.359 . S
C1024 H1036 0.929 . S
H1025 C1021 0.930 . S
H1026 C1015 0.930 . S
H1027 C1044 0.930 . S
H1028 C1016 0.930 . S
H1029 C1017 0.930 . S
H1030 C1011 0.929 . S
H1031 C1049 0.930 . S
H1032 C1040 0.930 . S
H1033 C1041 0.930 . S
H1034 C1065 0.929 . S
H1035 C1023 0.930 . S
H1036 C1024 0.929 . S
H1037 C1066 0.930 . S
H1038 C1047 0.930 . S
N1039 Gd1008 2.661 . S
N1039 C1043 1.350 . S
N1039 C1044 1.307 . S
C1040 H1032 0.930 . S
C1040 C1041 1.355 . S
C1040 C1042 1.412 . S
C1041 H1033 0.930 . S
C1041 C1040 1.355 . S
C1041 C1044 1.402 . S
C1042 C1040 1.412 . S
C1042 C1043 1.417 . S
C1042 C1066 1.431 . S
C1043 N1039 1.350 . S
C1043 C1042 1.417 . S
C1043 C1046 1.426 . S
C1044 H1027 0.930 . S
C1044 N1039 1.307 . S
C1044 C1041 1.402 . S
N1045 Gd1008 2.601 . S
N1045 C1046 1.359 . S
N1045 C1049 1.334 . S
C1046 C1043 1.426 . S
C1046 N1045 1.359 . S
C1046 C1050 1.413 . S
C1047 H1038 0.930 . S
C1047 C1048 1.359 . S
C1047 C1049 1.394 . S
C1048 C1047 1.359 . S
C1048 C1050 1.391 . S
C1048 H1051 0.929 . S
C1049 H1031 0.930 . S
C1049 N1045 1.334 . S
C1049 C1047 1.394 . S
C1050 C1046 1.413 . S
C1050 C1048 1.391 . S
C1050 C1065 1.437 . S
H1051 C1048 0.929 . S
O1052 Gd1008 2.545 . S
O1052 C1067 1.258 . S
O1053 Gd1008 2.606 1_554 S
O1053 Gd1009 2.362 . S
O1053 C1064 1.284 . S
O1054 Gd1009 2.324 . S
O1054 C1074 1.258 . S
O1055 Gd1008 2.429 . S
O1055 C1074 1.271 1_556 S
O1056 Gd1008 2.545 1_554 S
O1056 C1064 1.250 . S
O1057 Gd1008 2.412 . S
O1057 C1067 1.252 . S
O1058 Gd1009 2.545 . S
O1058 C1076 1.258 . S
O1059 Gd1008 2.362 . S
O1059 Gd1009 2.606 1_556 S
O1059 C1075 1.284 . S
O1060 Gd1008 2.324 1_554 S
O1060 C1083 1.254 . S
O1061 Gd1009 2.429 . S
O1061 C1083 1.268 . S
O1062 Gd1009 2.545 1_556 S
O1062 C1075 1.250 . S
O1063 Gd1009 2.412 . S
O1063 C1076 1.252 . S
C1064 O1053 1.284 . S
C1064 O1056 1.250 . S
C1065 H1034 0.929 . S
C1065 C1050 1.437 . S
C1065 C1066 1.317 . S
C1066 H1037 0.930 . S
C1066 C1042 1.431 . S
C1066 C1065 1.317 . S
C1067 Gd1008 2.828 . S
C1067 O1052 1.258 . S
C1067 O1057 1.252 . S
C1067 C1068 1.497 . S
C1068 C1067 1.497 . S
C1068 C1069 1.395 . S
C1068 C1070 1.380 1_556 S
C1069 C1068 1.395 . S
C1069 C1072 1.398 . S
C1069 H1084 0.930 . S
C1070 C1068 1.380 1_554 S
C1070 C1071 1.391 . S
C1070 H1085 0.930 . S
C1071 C1070 1.391 . S
C1071 C1073 1.387 . S
C1072 C1069 1.398 . S
C1072 C1073 1.380 1_556 S
C1072 H1086 0.930 . S
C1073 C1071 1.387 . S
C1073 C1072 1.380 1_554 S
C1073 H1087 0.930 . S
C1074 O1054 1.258 . S
C1074 O1055 1.271 1_554 S
C1075 O1059 1.284 . S
C1075 O1062 1.250 . S
C1076 Gd1009 2.828 . S
C1076 O1058 1.258 . S
C1076 O1063 1.252 . S
C1076 C1077 1.497 . S
C1077 C1076 1.497 . S
C1077 C1078 1.395 . S
C1077 C1079 1.380 . S
C1078 C1077 1.395 . S
C1078 C1081 1.398 . S
C1078 H1088 0.930 . S
C1079 C1077 1.380 . S
C1079 C1080 1.391 . S
C1079 H1089 0.930 . S
C1080 C1079 1.391 . S
C1080 C1082 1.387 . S
C1081 C1078 1.398 . S
C1081 C1082 1.380 . S
C1081 H1090 0.930 . S
C1082 C1080 1.387 . S
C1082 C1081 1.380 . S
C1082 H1091 0.930 . S
C1083 O1060 1.254 . S
C1083 O1061 1.268 . S
H1084 C1069 0.930 . S
H1085 C1070 0.930 . S
H1086 C1072 0.930 . S
H1087 C1073 0.930 . S
H1088 C1078 0.930 . S
H1089 C1079 0.930 . S
H1090 C1081 0.930 . S
H1091 C1082 0.930 . S
Gd1092 N1123 2.661 . S
Gd1092 N1129 2.601 . S
Gd1092 O1136 2.545 . S
Gd1092 O1137 2.606 . S
Gd1092 O1139 2.429 . S
Gd1092 O1140 2.545 . S
Gd1092 O1141 2.412 . S
Gd1092 O1143 2.362 . S
Gd1092 O1144 2.324 . S
Gd1092 C1151 2.828 . S
Gd1093 N1102 2.661 . S
Gd1093 N1106 2.601 . S
Gd1093 O1137 2.362 . S
Gd1093 O1138 2.324 . S
Gd1093 O1142 2.545 . S
Gd1093 O1143 2.606 . S
Gd1093 O1145 2.429 . S
Gd1093 O1146 2.545 . S
Gd1093 O1147 2.412 . S
Gd1093 C1160 2.828 1_655 S
C1094 C1097 1.417 . S
C1094 C1099 1.431 . S
C1094 C1100 1.412 . S
C1095 C1098 1.437 . S
C1095 C1099 1.317 . S
C1095 H1114 0.929 . S
C1096 C1097 1.426 . S
C1096 C1098 1.413 . S
C1096 N1106 1.359 . S
C1097 C1094 1.417 . S
C1097 C1096 1.426 . S
C1097 N1102 1.350 . S
C1098 C1095 1.437 . S
C1098 C1096 1.413 . S
C1098 C1108 1.391 . S
C1099 C1094 1.431 . S
C1099 C1095 1.317 . S
C1099 H1110 0.930 . S
C1100 C1094 1.412 . S
C1100 C1101 1.355 . S
C1100 H1112 0.930 . S
C1101 C1100 1.355 . S
C1101 C1103 1.402 . S
C1101 H1113 0.930 . S
N1102 Gd1093 2.661 . S
N1102 C1097 1.350 . S
N1102 C1103 1.307 . S
C1103 C1101 1.402 . S
C1103 N1102 1.307 . S
C1103 H1104 0.930 . S
H1104 C1103 0.930 . S
C1105 N1106 1.334 . S
C1105 C1107 1.394 . S
C1105 H1109 0.930 . S
N1106 Gd1093 2.601 . S
N1106 C1096 1.359 . S
N1106 C1105 1.334 . S
C1107 C1105 1.394 . S
C1107 C1108 1.359 . S
C1107 H1119 0.930 . S
C1108 C1098 1.391 . S
C1108 C1107 1.359 . S
C1108 H1120 0.929 . S
H1109 C1105 0.930 . S
H1110 C1099 0.930 . S
H1111 C1128 0.930 . S
H1112 C1100 0.930 . S
H1113 C1101 0.930 . S
H1114 C1095 0.929 . S
H1115 C1133 0.930 . S
H1116 C1124 0.930 . S
H1117 C1125 0.930 . S
H1118 C1149 0.929 . S
H1119 C1107 0.930 . S
H1120 C1108 0.929 . S
H1121 C1150 0.930 . S
H1122 C1131 0.930 . S
N1123 Gd1092 2.661 . S
N1123 C1127 1.350 . S
N1123 C1128 1.307 . S
C1124 H1116 0.930 . S
C1124 C1125 1.355 . S
C1124 C1126 1.412 . S
C1125 H1117 0.930 . S
C1125 C1124 1.355 . S
C1125 C1128 1.402 . S
C1126 C1124 1.412 . S
C1126 C1127 1.417 . S
C1126 C1150 1.431 . S
C1127 N1123 1.350 . S
C1127 C1126 1.417 . S
C1127 C1130 1.426 . S
C1128 H1111 0.930 . S
C1128 N1123 1.307 . S
C1128 C1125 1.402 . S
N1129 Gd1092 2.601 . S
N1129 C1130 1.359 . S
N1129 C1133 1.334 . S
C1130 C1127 1.426 . S
C1130 N1129 1.359 . S
C1130 C1134 1.413 . S
C1131 H1122 0.930 . S
C1131 C1132 1.359 . S
C1131 C1133 1.394 . S
C1132 C1131 1.359 . S
C1132 C1134 1.391 . S
C1132 H1135 0.929 . S
C1133 H1115 0.930 . S
C1133 N1129 1.334 . S
C1133 C1131 1.394 . S
C1134 C1130 1.413 . S
C1134 C1132 1.391 . S
C1134 C1149 1.437 . S
H1135 C1132 0.929 . S
O1136 Gd1092 2.545 . S
O1136 C1151 1.258 . S
O1137 Gd1092 2.606 . S
O1137 Gd1093 2.362 . S
O1137 C1148 1.284 . S
O1138 Gd1093 2.324 . S
O1138 C1158 1.254 . S
O1139 Gd1092 2.429 . S
O1139 C1158 1.268 . S
O1140 Gd1092 2.545 . S
O1140 C1148 1.250 . S
O1141 Gd1092 2.412 . S
O1141 C1151 1.252 . S
O1142 Gd1093 2.545 . S
O1142 C1160 1.258 1_655 S
O1143 Gd1092 2.362 . S
O1143 Gd1093 2.606 . S
O1143 C1159 1.284 . S
O1144 Gd1092 2.324 . S
O1144 C1167 1.254 . S
O1145 Gd1093 2.429 . S
O1145 C1167 1.268 . S
O1146 Gd1093 2.545 . S
O1146 C1159 1.250 . S
O1147 Gd1093 2.412 . S
O1147 C1160 1.252 1_655 S
C1148 O1137 1.284 . S
C1148 O1140 1.250 . S
C1149 H1118 0.929 . S
C1149 C1134 1.437 . S
C1149 C1150 1.317 . S
C1150 H1121 0.930 . S
C1150 C1126 1.431 . S
C1150 C1149 1.317 . S
C1151 Gd1092 2.828 . S
C1151 O1136 1.258 . S
C1151 O1141 1.252 . S
C1151 C1152 1.497 . S
C1152 C1151 1.497 . S
C1152 C1153 1.395 . S
C1152 C1154 1.380 . S
C1153 C1152 1.395 . S
C1153 C1156 1.398 . S
C1153 H1168 0.930 . S
C1154 C1152 1.380 . S
C1154 C1155 1.391 . S
C1154 H1169 0.930 . S
C1155 C1154 1.391 . S
C1155 C1157 1.387 . S
C1156 C1153 1.398 . S
C1156 C1157 1.380 . S
C1156 H1170 0.930 . S
C1157 C1155 1.387 . S
C1157 C1156 1.380 . S
C1157 H1171 0.930 . S
C1158 O1138 1.254 . S
C1158 O1139 1.268 . S
C1159 O1143 1.284 . S
C1159 O1146 1.250 . S
C1160 Gd1093 2.828 1_455 S
C1160 O1142 1.258 1_455 S
C1160 O1147 1.252 1_455 S
C1160 C1161 1.497 . S
C1161 C1160 1.497 . S
C1161 C1162 1.395 . S
C1161 C1163 1.380 . S
C1162 C1161 1.395 . S
C1162 C1165 1.398 . S
C1162 H1172 0.930 . S
C1163 C1161 1.380 . S
C1163 C1164 1.391 . S
C1163 H1173 0.930 . S
C1164 C1163 1.391 . S
C1164 C1166 1.387 . S
C1165 C1162 1.398 . S
C1165 C1166 1.380 . S
C1165 H1174 0.930 . S
C1166 C1164 1.387 . S
C1166 C1165 1.380 . S
C1166 H1175 0.930 . S
C1167 O1144 1.254 . S
C1167 O1145 1.268 . S
H1168 C1153 0.930 . S
H1169 C1154 0.930 . S
H1170 C1156 0.930 . S
H1171 C1157 0.930 . S
H1172 C1162 0.930 . S
H1173 C1163 0.930 . S
H1174 C1165 0.930 . S
H1175 C1166 0.930 . S
Gd1176 N1207 2.661 . S
Gd1176 N1213 2.601 . S
Gd1176 O1220 2.545 . S
Gd1176 O1221 2.606 . S
Gd1176 O1223 2.429 . S
Gd1176 O1224 2.545 . S
Gd1176 O1225 2.412 . S
Gd1176 O1227 2.362 . S
Gd1176 O1228 2.324 . S
Gd1176 C1235 2.828 . S
Gd1177 N1186 2.661 . S
Gd1177 N1190 2.601 . S
Gd1177 O1221 2.362 . S
Gd1177 O1222 2.324 . S
Gd1177 O1226 2.545 . S
Gd1177 O1227 2.606 . S
Gd1177 O1229 2.429 . S
Gd1177 O1230 2.545 . S
Gd1177 O1231 2.412 . S
Gd1177 C1244 2.828 . S
C1178 C1181 1.417 . S
C1178 C1183 1.431 . S
C1178 C1184 1.412 . S
C1179 C1182 1.437 . S
C1179 C1183 1.317 . S
C1179 H1198 0.929 . S
C1180 C1181 1.426 . S
C1180 C1182 1.413 . S
C1180 N1190 1.359 . S
C1181 C1178 1.417 . S
C1181 C1180 1.426 . S
C1181 N1186 1.350 . S
C1182 C1179 1.437 . S
C1182 C1180 1.413 . S
C1182 C1192 1.391 . S
C1183 C1178 1.431 . S
C1183 C1179 1.317 . S
C1183 H1194 0.930 . S
C1184 C1178 1.412 . S
C1184 C1185 1.355 . S
C1184 H1196 0.930 . S
C1185 C1184 1.355 . S
C1185 C1187 1.402 . S
C1185 H1197 0.930 . S
N1186 Gd1177 2.661 . S
N1186 C1181 1.350 . S
N1186 C1187 1.307 . S
C1187 C1185 1.402 . S
C1187 N1186 1.307 . S
C1187 H1188 0.930 . S
H1188 C1187 0.930 . S
C1189 N1190 1.334 . S
C1189 C1191 1.394 . S
C1189 H1193 0.930 . S
N1190 Gd1177 2.601 . S
N1190 C1180 1.359 . S
N1190 C1189 1.334 . S
C1191 C1189 1.394 . S
C1191 C1192 1.359 . S
C1191 H1203 0.930 . S
C1192 C1182 1.391 . S
C1192 C1191 1.359 . S
C1192 H1204 0.929 . S
H1193 C1189 0.930 . S
H1194 C1183 0.930 . S
H1195 C1212 0.930 . S
H1196 C1184 0.930 . S
H1197 C1185 0.930 . S
H1198 C1179 0.929 . S
H1199 C1217 0.930 . S
H1200 C1208 0.930 . S
H1201 C1209 0.930 . S
H1202 C1233 0.929 . S
H1203 C1191 0.930 . S
H1204 C1192 0.929 . S
H1205 C1234 0.930 . S
H1206 C1215 0.930 . S
N1207 Gd1176 2.661 . S
N1207 C1211 1.350 . S
N1207 C1212 1.307 . S
C1208 H1200 0.930 . S
C1208 C1209 1.355 . S
C1208 C1210 1.412 . S
C1209 H1201 0.930 . S
C1209 C1208 1.355 . S
C1209 C1212 1.402 1_655 S
C1210 C1208 1.412 . S
C1210 C1211 1.417 1_655 S
C1210 C1234 1.431 . S
C1211 N1207 1.350 . S
C1211 C1210 1.417 1_455 S
C1211 C1214 1.426 . S
C1212 H1195 0.930 . S
C1212 N1207 1.307 . S
C1212 C1209 1.402 1_455 S
N1213 Gd1176 2.601 . S
N1213 C1214 1.359 . S
N1213 C1217 1.334 . S
C1214 C1211 1.426 . S
C1214 N1213 1.359 . S
C1214 C1218 1.413 1_455 S
C1215 H1206 0.930 . S
C1215 C1216 1.359 1_455 S
C1215 C1217 1.394 . S
C1216 C1215 1.359 1_655 S
C1216 C1218 1.391 . S
C1216 H1219 0.929 . S
C1217 H1199 0.930 . S
C1217 N1213 1.334 . S
C1217 C1215 1.394 . S
C1218 C1214 1.413 1_655 S
C1218 C1216 1.391 . S
C1218 C1233 1.437 . S
H1219 C1216 0.929 . S
O1220 Gd1176 2.545 . S
O1220 C1235 1.258 . S
O1221 Gd1176 2.606 . S
O1221 Gd1177 2.362 . S
O1221 C1232 1.284 . S
O1222 Gd1177 2.324 . S
O1222 C1242 1.254 . S
O1223 Gd1176 2.429 . S
O1223 C1242 1.268 . S
O1224 Gd1176 2.545 . S
O1224 C1232 1.250 . S
O1225 Gd1176 2.412 . S
O1225 C1235 1.252 . S
O1226 Gd1177 2.545 . S
O1226 C1244 1.258 . S
O1227 Gd1176 2.362 . S
O1227 Gd1177 2.606 . S
O1227 C1243 1.284 . S
O1228 Gd1176 2.324 . S
O1228 C1251 1.254 . S
O1229 Gd1177 2.429 . S
O1229 C1251 1.268 . S
O1230 Gd1177 2.545 . S
O1230 C1243 1.250 . S
O1231 Gd1177 2.412 . S
O1231 C1244 1.252 . S
C1232 O1221 1.284 . S
C1232 O1224 1.250 . S
C1233 H1202 0.929 . S
C1233 C1218 1.437 . S
C1233 C1234 1.317 . S
C1234 H1205 0.930 . S
C1234 C1210 1.431 . S
C1234 C1233 1.317 . S
C1235 Gd1176 2.828 . S
C1235 O1220 1.258 . S
C1235 O1225 1.252 . S
C1235 C1236 1.497 . S
C1236 C1235 1.497 . S
C1236 C1237 1.395 . S
C1236 C1238 1.380 . S
C1237 C1236 1.395 . S
C1237 C1240 1.398 . S
C1237 H1252 0.930 . S
C1238 C1236 1.380 . S
C1238 C1239 1.391 . S
C1238 H1253 0.930 . S
C1239 C1238 1.391 . S
C1239 C1241 1.387 . S
C1240 C1237 1.398 . S
C1240 C1241 1.380 . S
C1240 H1254 0.930 . S
C1241 C1239 1.387 . S
C1241 C1240 1.380 . S
C1241 H1255 0.930 . S
C1242 O1222 1.254 . S
C1242 O1223 1.268 . S
C1243 O1227 1.284 . S
C1243 O1230 1.250 . S
C1244 Gd1177 2.828 . S
C1244 O1226 1.258 . S
C1244 O1231 1.252 . S
C1244 C1245 1.497 . S
C1245 C1244 1.497 . S
C1245 C1246 1.395 . S
C1245 C1247 1.380 . S
C1246 C1245 1.395 . S
C1246 C1249 1.398 . S
C1246 H1256 0.930 . S
C1247 C1245 1.380 . S
C1247 C1248 1.391 1_455 S
C1247 H1257 0.930 . S
C1248 C1247 1.391 1_655 S
C1248 C1250 1.387 1_655 S
C1249 C1246 1.398 . S
C1249 C1250 1.380 . S
C1249 H1258 0.930 . S
C1250 C1248 1.387 1_455 S
C1250 C1249 1.380 . S
C1250 H1259 0.930 1_455 S
C1251 O1228 1.254 . S
C1251 O1229 1.268 . S
H1252 C1237 0.930 . S
H1253 C1238 0.930 . S
H1254 C1240 0.930 . S
H1255 C1241 0.930 . S
H1256 C1246 0.930 . S
H1257 C1247 0.930 . S
H1258 C1249 0.930 . S
H1259 C1250 0.930 1_655 S
Gd1260 N1291 2.661 . S
Gd1260 N1297 2.601 . S
Gd1260 O1304 2.545 . S
Gd1260 O1305 2.606 . S
Gd1260 O1307 2.429 . S
Gd1260 O1308 2.545 . S
Gd1260 O1309 2.412 . S
Gd1260 O1311 2.362 . S
Gd1260 O1312 2.324 . S
Gd1260 C1319 2.828 . S
Gd1261 N1270 2.661 . S
Gd1261 N1274 2.601 . S
Gd1261 O1305 2.362 . S
Gd1261 O1306 2.324 . S
Gd1261 O1310 2.545 . S
Gd1261 O1311 2.606 . S
Gd1261 O1313 2.429 . S
Gd1261 O1314 2.545 . S
Gd1261 O1315 2.412 . S
Gd1261 C1328 2.828 . S
C1262 C1265 1.417 . S
C1262 C1267 1.431 . S
C1262 C1268 1.412 . S
C1263 C1266 1.437 . S
C1263 C1267 1.317 . S
C1263 H1282 0.929 . S
C1264 C1265 1.426 . S
C1264 C1266 1.413 . S
C1264 N1274 1.359 . S
C1265 C1262 1.417 . S
C1265 C1264 1.426 . S
C1265 N1270 1.350 . S
C1266 C1263 1.437 . S
C1266 C1264 1.413 . S
C1266 C1276 1.391 . S
C1267 C1262 1.431 . S
C1267 C1263 1.317 . S
C1267 H1278 0.930 . S
C1268 C1262 1.412 . S
C1268 C1269 1.355 . S
C1268 H1280 0.930 . S
C1269 C1268 1.355 . S
C1269 C1271 1.402 . S
C1269 H1281 0.930 . S
N1270 Gd1261 2.661 . S
N1270 C1265 1.350 . S
N1270 C1271 1.307 . S
C1271 C1269 1.402 . S
C1271 N1270 1.307 . S
C1271 H1272 0.930 . S
H1272 C1271 0.930 . S
C1273 N1274 1.334 . S
C1273 C1275 1.394 . S
C1273 H1277 0.930 . S
N1274 Gd1261 2.601 . S
N1274 C1264 1.359 . S
N1274 C1273 1.334 . S
C1275 C1273 1.394 . S
C1275 C1276 1.359 . S
C1275 H1287 0.930 . S
C1276 C1266 1.391 . S
C1276 C1275 1.359 . S
C1276 H1288 0.929 . S
H1277 C1273 0.930 . S
H1278 C1267 0.930 . S
H1279 C1296 0.930 . S
H1280 C1268 0.930 . S
H1281 C1269 0.930 . S
H1282 C1263 0.929 . S
H1283 C1301 0.930 . S
H1284 C1292 0.930 . S
H1285 C1293 0.930 . S
H1286 C1317 0.929 . S
H1287 C1275 0.930 . S
H1288 C1276 0.929 . S
H1289 C1318 0.930 . S
H1290 C1299 0.930 . S
N1291 Gd1260 2.661 . S
N1291 C1295 1.350 . S
N1291 C1296 1.307 . S
C1292 H1284 0.930 . S
C1292 C1293 1.355 . S
C1292 C1294 1.412 . S
C1293 H1285 0.930 . S
C1293 C1292 1.355 . S
C1293 C1296 1.402 1_455 S
C1294 C1292 1.412 . S
C1294 C1295 1.417 1_455 S
C1294 C1318 1.431 . S
C1295 N1291 1.350 . S
C1295 C1294 1.417 1_655 S
C1295 C1298 1.426 . S
C1296 H1279 0.930 . S
C1296 N1291 1.307 . S
C1296 C1293 1.402 1_655 S
N1297 Gd1260 2.601 . S
N1297 C1298 1.359 . S
N1297 C1301 1.334 . S
C1298 C1295 1.426 . S
C1298 N1297 1.359 . S
C1298 C1302 1.413 . S
C1299 H1290 0.930 . S
C1299 C1300 1.359 . S
C1299 C1301 1.394 . S
C1300 C1299 1.359 . S
C1300 C1302 1.391 . S
C1300 H1303 0.929 . S
C1301 H1283 0.930 . S
C1301 N1297 1.334 . S
C1301 C1299 1.394 . S
C1302 C1298 1.413 . S
C1302 C1300 1.391 . S
C1302 C1317 1.437 1_655 S
H1303 C1300 0.929 . S
O1304 Gd1260 2.545 . S
O1304 C1319 1.258 . S
O1305 Gd1260 2.606 . S
O1305 Gd1261 2.362 . S
O1305 C1316 1.284 . S
O1306 Gd1261 2.324 . S
O1306 C1326 1.254 . S
O1307 Gd1260 2.429 . S
O1307 C1326 1.268 . S
O1308 Gd1260 2.545 . S
O1308 C1316 1.250 . S
O1309 Gd1260 2.412 . S
O1309 C1319 1.252 . S
O1310 Gd1261 2.545 . S
O1310 C1328 1.258 . S
O1311 Gd1260 2.362 . S
O1311 Gd1261 2.606 . S
O1311 C1327 1.284 . S
O1312 Gd1260 2.324 . S
O1312 C1335 1.254 . S
O1313 Gd1261 2.429 . S
O1313 C1335 1.268 . S
O1314 Gd1261 2.545 . S
O1314 C1327 1.250 . S
O1315 Gd1261 2.412 . S
O1315 C1328 1.252 . S
C1316 O1305 1.284 . S
C1316 O1308 1.250 . S
C1317 H1286 0.929 . S
C1317 C1302 1.437 1_455 S
C1317 C1318 1.317 . S
C1318 H1289 0.930 . S
C1318 C1294 1.431 . S
C1318 C1317 1.317 . S
C1319 Gd1260 2.828 . S
C1319 O1304 1.258 . S
C1319 O1309 1.252 . S
C1319 C1320 1.497 1_655 S
C1320 C1319 1.497 1_455 S
C1320 C1321 1.395 . S
C1320 C1322 1.380 . S
C1321 C1320 1.395 . S
C1321 C1324 1.398 . S
C1321 H1336 0.930 . S
C1322 C1320 1.380 . S
C1322 C1323 1.391 . S
C1322 H1337 0.930 . S
C1323 C1322 1.391 . S
C1323 C1325 1.387 . S
C1324 C1321 1.398 . S
C1324 C1325 1.380 . S
C1324 H1338 0.930 . S
C1325 C1323 1.387 . S
C1325 C1324 1.380 . S
C1325 H1339 0.930 . S
C1326 O1306 1.254 . S
C1326 O1307 1.268 . S
C1327 O1311 1.284 . S
C1327 O1314 1.250 . S
C1328 Gd1261 2.828 . S
C1328 O1310 1.258 . S
C1328 O1315 1.252 . S
C1328 C1329 1.497 . S
C1329 C1328 1.497 . S
C1329 C1330 1.395 . S
C1329 C1331 1.380 . S
C1330 C1329 1.395 . S
C1330 C1333 1.398 . S
C1330 H1340 0.930 . S
C1331 C1329 1.380 . S
C1331 C1332 1.391 . S
C1331 H1341 0.930 . S
C1332 C1331 1.391 . S
C1332 C1334 1.387 . S
C1333 C1330 1.398 . S
C1333 C1334 1.380 . S
C1333 H1342 0.930 . S
C1334 C1332 1.387 . S
C1334 C1333 1.380 . S
C1334 H1343 0.930 . S
C1335 O1312 1.254 . S
C1335 O1313 1.268 . S
H1336 C1321 0.930 . S
H1337 C1322 0.930 . S
H1338 C1324 0.930 . S
H1339 C1325 0.930 . S
H1340 C1330 0.930 . S
H1341 C1331 0.930 . S
H1342 C1333 0.930 . S
H1343 C1334 0.930 . S
Gd1344 N1375 2.661 . S
Gd1344 N1381 2.601 . S
Gd1344 O1388 2.545 . S
Gd1344 O1389 2.606 . S
Gd1344 O1391 2.429 . S
Gd1344 O1392 2.545 . S
Gd1344 O1393 2.412 . S
Gd1344 O1395 2.362 . S
Gd1344 O1396 2.324 . S
Gd1344 C1403 2.828 . S
Gd1345 N1354 2.661 . S
Gd1345 N1358 2.601 . S
Gd1345 O1389 2.362 . S
Gd1345 O1390 2.324 . S
Gd1345 O1394 2.545 . S
Gd1345 O1395 2.606 . S
Gd1345 O1397 2.429 . S
Gd1345 O1398 2.545 . S
Gd1345 O1399 2.412 . S
Gd1345 C1412 2.828 . S
C1346 C1349 1.417 . S
C1346 C1351 1.431 . S
C1346 C1352 1.412 . S
C1347 C1350 1.437 . S
C1347 C1351 1.317 . S
C1347 H1366 0.929 . S
C1348 C1349 1.426 . S
C1348 C1350 1.413 . S
C1348 N1358 1.359 . S
C1349 C1346 1.417 . S
C1349 C1348 1.426 . S
C1349 N1354 1.350 . S
C1350 C1347 1.437 . S
C1350 C1348 1.413 . S
C1350 C1360 1.391 . S
C1351 C1346 1.431 . S
C1351 C1347 1.317 . S
C1351 H1362 0.930 . S
C1352 C1346 1.412 . S
C1352 C1353 1.355 . S
C1352 H1364 0.930 . S
C1353 C1352 1.355 . S
C1353 C1355 1.402 . S
C1353 H1365 0.930 . S
N1354 Gd1345 2.661 . S
N1354 C1349 1.350 . S
N1354 C1355 1.307 . S
C1355 C1353 1.402 . S
C1355 N1354 1.307 . S
C1355 H1356 0.930 . S
H1356 C1355 0.930 . S
C1357 N1358 1.334 . S
C1357 C1359 1.394 . S
C1357 H1361 0.930 . S
N1358 Gd1345 2.601 . S
N1358 C1348 1.359 . S
N1358 C1357 1.334 . S
C1359 C1357 1.394 . S
C1359 C1360 1.359 . S
C1359 H1371 0.930 1_655 S
C1360 C1350 1.391 . S
C1360 C1359 1.359 . S
C1360 H1372 0.929 . S
H1361 C1357 0.930 . S
H1362 C1351 0.930 . S
H1363 C1380 0.930 . S
H1364 C1352 0.930 . S
H1365 C1353 0.930 . S
H1366 C1347 0.929 . S
H1367 C1385 0.930 . S
H1368 C1376 0.930 . S
H1369 C1377 0.930 . S
H1370 C1401 0.929 1_554 S
H1371 C1359 0.930 1_455 S
H1372 C1360 0.929 . S
H1373 C1402 0.930 . S
H1374 C1383 0.930 . S
N1375 Gd1344 2.661 . S
N1375 C1379 1.350 . S
N1375 C1380 1.307 . S
C1376 H1368 0.930 . S
C1376 C1377 1.355 1_554 S
C1376 C1378 1.412 1_554 S
C1377 H1369 0.930 . S
C1377 C1376 1.355 1_556 S
C1377 C1380 1.402 . S
C1378 C1376 1.412 1_556 S
C1378 C1379 1.417 . S
C1378 C1402 1.431 1_556 S
C1379 N1375 1.350 . S
C1379 C1378 1.417 . S
C1379 C1382 1.426 . S
C1380 H1363 0.930 . S
C1380 N1375 1.307 . S
C1380 C1377 1.402 . S
N1381 Gd1344 2.601 . S
N1381 C1382 1.359 . S
N1381 C1385 1.334 . S
C1382 C1379 1.426 . S
C1382 N1381 1.359 . S
C1382 C1386 1.413 . S
C1383 H1374 0.930 . S
C1383 C1384 1.359 . S
C1383 C1385 1.394 . S
C1384 C1383 1.359 . S
C1384 C1386 1.391 . S
C1384 H1387 0.929 . S
C1385 H1367 0.930 . S
C1385 N1381 1.334 . S
C1385 C1383 1.394 . S
C1386 C1382 1.413 . S
C1386 C1384 1.391 . S
C1386 C1401 1.437 . S
H1387 C1384 0.929 . S
O1388 Gd1344 2.545 . S
O1388 C1403 1.258 . S
O1389 Gd1344 2.606 . S
O1389 Gd1345 2.362 . S
O1389 C1400 1.284 . S
O1390 Gd1345 2.324 . S
O1390 C1410 1.254 . S
O1391 Gd1344 2.429 . S
O1391 C1410 1.268 . S
O1392 Gd1344 2.545 . S
O1392 C1400 1.250 . S
O1393 Gd1344 2.412 . S
O1393 C1403 1.252 . S
O1394 Gd1345 2.545 . S
O1394 C1412 1.258 . S
O1395 Gd1344 2.362 . S
O1395 Gd1345 2.606 . S
O1395 C1411 1.284 . S
O1396 Gd1344 2.324 . S
O1396 C1419 1.254 . S
O1397 Gd1345 2.429 . S
O1397 C1419 1.268 . S
O1398 Gd1345 2.545 . S
O1398 C1411 1.250 . S
O1399 Gd1345 2.412 . S
O1399 C1412 1.252 . S
C1400 O1389 1.284 . S
C1400 O1392 1.250 . S
C1401 H1370 0.929 1_556 S
C1401 C1386 1.437 . S
C1401 C1402 1.317 1_556 S
C1402 H1373 0.930 . S
C1402 C1378 1.431 1_554 S
C1402 C1401 1.317 1_554 S
C1403 Gd1344 2.828 . S
C1403 O1388 1.258 . S
C1403 O1393 1.252 . S
C1403 C1404 1.497 . S
C1404 C1403 1.497 . S
C1404 C1405 1.395 . S
C1404 C1406 1.380 . S
C1405 C1404 1.395 . S
C1405 C1408 1.398 1_556 S
C1405 H1420 0.930 . S
C1406 C1404 1.380 . S
C1406 C1407 1.391 1_556 S
C1406 H1421 0.930 . S
C1407 C1406 1.391 1_554 S
C1407 C1409 1.387 . S
C1408 C1405 1.398 1_554 S
C1408 C1409 1.380 . S
C1408 H1422 0.930 . S
C1409 C1407 1.387 . S
C1409 C1408 1.380 . S
C1409 H1423 0.930 . S
C1410 O1390 1.254 . S
C1410 O1391 1.268 . S
C1411 O1395 1.284 . S
C1411 O1398 1.250 . S
C1412 Gd1345 2.828 . S
C1412 O1394 1.258 . S
C1412 O1399 1.252 . S
C1412 C1413 1.497 . S
C1413 C1412 1.497 . S
C1413 C1414 1.395 . S
C1413 C1415 1.380 . S
C1414 C1413 1.395 . S
C1414 C1417 1.398 1_655 S
C1414 H1424 0.931 1_655 S
C1415 C1413 1.380 . S
C1415 C1416 1.391 . S
C1415 H1425 0.930 . S
C1416 C1415 1.391 . S
C1416 C1418 1.387 . S
C1417 C1414 1.398 1_455 S
C1417 C1418 1.380 1_455 S
C1417 H1426 0.930 . S
C1418 C1416 1.387 . S
C1418 C1417 1.380 1_655 S
C1418 H1427 0.930 1_655 S
C1419 O1396 1.254 . S
C1419 O1397 1.268 . S
H1420 C1405 0.930 . S
H1421 C1406 0.930 . S
H1422 C1408 0.930 . S
H1423 C1409 0.930 . S
H1424 C1414 0.931 1_455 S
H1425 C1415 0.930 . S
H1426 C1417 0.930 . S
H1427 C1418 0.930 1_455 S
Gd1428 N1459 2.661 . S
Gd1428 N1465 2.601 . S
Gd1428 O1472 2.545 . S
Gd1428 O1473 2.606 . S
Gd1428 O1475 2.429 . S
Gd1428 O1476 2.545 . S
Gd1428 O1477 2.412 . S
Gd1428 O1479 2.362 . S
Gd1428 O1480 2.324 . S
Gd1428 C1487 2.828 . S
Gd1429 N1438 2.661 . S
Gd1429 N1442 2.601 . S
Gd1429 O1473 2.362 . S
Gd1429 O1474 2.324 . S
Gd1429 O1478 2.545 . S
Gd1429 O1479 2.606 . S
Gd1429 O1481 2.429 . S
Gd1429 O1482 2.545 . S
Gd1429 O1483 2.412 . S
Gd1429 C1496 2.828 . S
C1430 C1433 1.417 . S
C1430 C1435 1.431 . S
C1430 C1436 1.412 . S
C1431 C1434 1.437 . S
C1431 C1435 1.317 . S
C1431 H1450 0.929 1_565 S
C1432 C1433 1.426 . S
C1432 C1434 1.413 . S
C1432 N1442 1.359 1_455 S
C1433 C1430 1.417 . S
C1433 C1432 1.426 . S
C1433 N1438 1.350 1_455 S
C1434 C1431 1.437 . S
C1434 C1432 1.413 . S
C1434 C1444 1.391 . S
C1435 C1430 1.431 . S
C1435 C1431 1.317 . S
C1435 H1446 0.930 . S
C1436 C1430 1.412 . S
C1436 C1437 1.371 . S
C1436 H1448 0.930 . S
C1437 C1436 1.371 . S
C1437 C1439 1.384 1_455 S
C1437 H1449 0.933 1_455 S
N1438 Gd1429 2.661 . S
N1438 C1433 1.350 1_655 S
N1438 C1439 1.307 . S
C1439 C1437 1.384 1_655 S
C1439 N1438 1.307 . S
C1439 H1440 0.930 . S
H1440 C1439 0.930 . S
C1441 N1442 1.334 . S
C1441 C1443 1.394 1_655 S
C1441 H1445 0.930 . S
N1442 Gd1429 2.601 . S
N1442 C1432 1.359 1_655 S
N1442 C1441 1.334 . S
C1443 C1441 1.394 1_455 S
C1443 C1444 1.359 . S
C1443 H1455 0.930 . S
C1444 C1434 1.391 . S
C1444 C1443 1.359 . S
C1444 H1456 0.929 1_565 S
H1445 C1441 0.930 . S
H1446 C1435 0.930 . S
H1447 C1464 0.930 . S
H1448 C1436 0.930 . S
H1449 C1437 0.933 1_655 S
H1450 C1431 0.929 1_545 S
H1451 C1469 0.930 . S
H1452 C1460 0.930 . S
H1453 C1461 0.930 . S
H1454 C1485 0.929 . S
H1455 C1443 0.930 . S
H1456 C1444 0.929 1_545 S
H1457 C1486 0.930 . S
H1458 C1467 0.930 . S
N1459 Gd1428 2.661 . S
N1459 C1463 1.350 . S
N1459 C1464 1.307 . S
C1460 H1452 0.930 . S
C1460 C1461 1.355 . S
C1460 C1462 1.412 . S
C1461 H1453 0.930 . S
C1461 C1460 1.355 . S
C1461 C1464 1.402 . S
C1462 C1460 1.412 . S
C1462 C1463 1.417 . S
C1462 C1486 1.431 . S
C1463 N1459 1.350 . S
C1463 C1462 1.417 . S
C1463 C1466 1.426 . S
C1464 H1447 0.930 . S
C1464 N1459 1.307 . S
C1464 C1461 1.402 . S
N1465 Gd1428 2.601 . S
N1465 C1466 1.359 . S
N1465 C1469 1.334 . S
C1466 C1463 1.426 . S
C1466 N1465 1.359 . S
C1466 C1470 1.413 . S
C1467 H1458 0.930 . S
C1467 C1468 1.359 . S
C1467 C1469 1.394 . S
C1468 C1467 1.359 . S
C1468 C1470 1.391 . S
C1468 H1471 0.929 . S
C1469 H1451 0.930 . S
C1469 N1465 1.334 . S
C1469 C1467 1.394 . S
C1470 C1466 1.413 . S
C1470 C1468 1.391 . S
C1470 C1485 1.437 . S
H1471 C1468 0.929 . S
O1472 Gd1428 2.545 . S
O1472 C1487 1.258 . S
O1473 Gd1428 2.606 . S
O1473 Gd1429 2.362 . S
O1473 C1484 1.284 . S
O1474 Gd1429 2.324 . S
O1474 C1494 1.254 . S
O1475 Gd1428 2.429 . S
O1475 C1494 1.268 . S
O1476 Gd1428 2.545 . S
O1476 C1484 1.250 . S
O1477 Gd1428 2.412 . S
O1477 C1487 1.252 . S
O1478 Gd1429 2.545 . S
O1478 C1496 1.258 . S
O1479 Gd1428 2.362 . S
O1479 Gd1429 2.606 . S
O1479 C1495 1.284 . S
O1480 Gd1428 2.324 . S
O1480 C1503 1.254 . S
O1481 Gd1429 2.429 . S
O1481 C1503 1.268 . S
O1482 Gd1429 2.545 . S
O1482 C1495 1.250 . S
O1483 Gd1429 2.412 . S
O1483 C1496 1.252 . S
C1484 O1473 1.284 . S
C1484 O1476 1.250 . S
C1485 H1454 0.929 . S
C1485 C1470 1.437 . S
C1485 C1486 1.317 . S
C1486 H1457 0.930 . S
C1486 C1462 1.431 . S
C1486 C1485 1.317 . S
C1487 Gd1428 2.828 . S
C1487 O1472 1.258 . S
C1487 O1477 1.252 . S
C1487 C1488 1.497 . S
C1488 C1487 1.497 . S
C1488 C1489 1.395 . S
C1488 C1490 1.380 . S
C1489 C1488 1.395 . S
C1489 C1492 1.398 . S
C1489 H1504 0.930 . S
C1490 C1488 1.380 . S
C1490 C1491 1.391 . S
C1490 H1505 0.930 . S
C1491 C1490 1.391 . S
C1491 C1493 1.387 . S
C1492 C1489 1.398 . S
C1492 C1493 1.380 . S
C1492 H1506 0.930 . S
C1493 C1491 1.387 . S
C1493 C1492 1.380 . S
C1493 H1507 0.930 . S
C1494 O1474 1.254 . S
C1494 O1475 1.268 . S
C1495 O1479 1.284 . S
C1495 O1482 1.250 . S
C1496 Gd1429 2.828 . S
C1496 O1478 1.258 . S
C1496 O1483 1.252 . S
C1496 C1497 1.497 1_565 S
C1497 C1496 1.497 1_545 S
C1497 C1498 1.395 . S
C1497 C1499 1.380 . S
C1498 C1497 1.395 . S
C1498 C1501 1.398 . S
C1498 H1508 0.930 . S
C1499 C1497 1.380 . S
C1499 C1500 1.391 . S
C1499 H1509 0.930 . S
C1500 C1499 1.391 . S
C1500 C1502 1.387 . S
C1501 C1498 1.398 . S
C1501 C1502 1.380 . S
C1501 H1510 0.930 . S
C1502 C1500 1.387 . S
C1502 C1501 1.380 . S
C1502 H1511 0.930 . S
C1503 O1480 1.254 . S
C1503 O1481 1.268 . S
H1504 C1489 0.930 . S
H1505 C1490 0.930 . S
H1506 C1492 0.930 . S
H1507 C1493 0.930 . S
H1508 C1498 0.930 . S
H1509 C1499 0.930 . S
H1510 C1501 0.930 . S
H1511 C1502 0.930 . S
Gd1512 N1543 2.661 . S
Gd1512 N1549 2.601 . S
Gd1512 O1556 2.545 . S
Gd1512 O1557 2.606 . S
Gd1512 O1559 2.429 . S
Gd1512 O1560 2.545 . S
Gd1512 O1561 2.412 . S
Gd1512 O1563 2.362 . S
Gd1512 O1564 2.324 . S
Gd1512 C1571 2.828 . S
Gd1513 N1522 2.661 . S
Gd1513 N1526 2.601 . S
Gd1513 O1557 2.362 . S
Gd1513 O1558 2.324 . S
Gd1513 O1562 2.545 . S
Gd1513 O1563 2.606 . S
Gd1513 O1565 2.429 . S
Gd1513 O1566 2.545 . S
Gd1513 O1567 2.412 . S
Gd1513 C1580 2.828 . S
C1514 C1517 1.417 . S
C1514 C1519 1.431 . S
C1514 C1520 1.412 . S
C1515 C1518 1.437 . S
C1515 C1519 1.317 . S
C1515 H1534 0.929 . S
C1516 C1517 1.426 . S
C1516 C1518 1.413 . S
C1516 N1526 1.359 . S
C1517 C1514 1.417 . S
C1517 C1516 1.426 . S
C1517 N1522 1.350 . S
C1518 C1515 1.437 . S
C1518 C1516 1.413 . S
C1518 C1528 1.391 . S
C1519 C1514 1.431 . S
C1519 C1515 1.317 . S
C1519 H1530 0.930 . S
C1520 C1514 1.412 . S
C1520 C1521 1.355 . S
C1520 H1532 0.930 . S
C1521 C1520 1.355 . S
C1521 C1523 1.402 . S
C1521 H1533 0.930 . S
N1522 Gd1513 2.661 . S
N1522 C1517 1.350 . S
N1522 C1523 1.307 . S
C1523 C1521 1.402 . S
C1523 N1522 1.307 . S
C1523 H1524 0.930 . S
H1524 C1523 0.930 . S
C1525 N1526 1.334 . S
C1525 C1527 1.394 . S
C1525 H1529 0.930 . S
N1526 Gd1513 2.601 . S
N1526 C1516 1.359 . S
N1526 C1525 1.334 . S
C1527 C1525 1.394 . S
C1527 C1528 1.359 . S
C1527 H1539 0.930 . S
C1528 C1518 1.391 . S
C1528 C1527 1.359 . S
C1528 H1540 0.929 . S
H1529 C1525 0.930 . S
H1530 C1519 0.930 . S
H1531 C1548 0.930 . S
H1532 C1520 0.930 . S
H1533 C1521 0.930 . S
H1534 C1515 0.929 . S
H1535 C1553 0.930 . S
H1536 C1544 0.930 . S
H1537 C1545 0.930 . S
H1538 C1569 0.929 . S
H1539 C1527 0.930 . S
H1540 C1528 0.929 . S
H1541 C1570 0.930 . S
H1542 C1551 0.930 . S
N1543 Gd1512 2.661 . S
N1543 C1547 1.350 . S
N1543 C1548 1.307 . S
C1544 H1536 0.930 . S
C1544 C1545 1.355 . S
C1544 C1546 1.412 . S
C1545 H1537 0.930 . S
C1545 C1544 1.355 . S
C1545 C1548 1.402 . S
C1546 C1544 1.412 . S
C1546 C1547 1.417 . S
C1546 C1570 1.431 . S
C1547 N1543 1.350 . S
C1547 C1546 1.417 . S
C1547 C1550 1.426 . S
C1548 H1531 0.930 . S
C1548 N1543 1.307 . S
C1548 C1545 1.402 . S
N1549 Gd1512 2.601 . S
N1549 C1550 1.359 . S
N1549 C1553 1.334 . S
C1550 C1547 1.426 . S
C1550 N1549 1.359 . S
C1550 C1554 1.413 . S
C1551 H1542 0.930 . S
C1551 C1552 1.359 . S
C1551 C1553 1.394 . S
C1552 C1551 1.359 . S
C1552 C1554 1.391 . S
C1552 H1555 0.929 . S
C1553 H1535 0.930 . S
C1553 N1549 1.334 . S
C1553 C1551 1.394 . S
C1554 C1550 1.413 . S
C1554 C1552 1.391 . S
C1554 C1569 1.437 . S
H1555 C1552 0.929 . S
O1556 Gd1512 2.545 . S
O1556 C1571 1.258 . S
O1557 Gd1512 2.606 . S
O1557 Gd1513 2.362 . S
O1557 C1568 1.284 . S
O1558 Gd1513 2.324 . S
O1558 C1578 1.254 . S
O1559 Gd1512 2.429 . S
O1559 C1578 1.268 . S
O1560 Gd1512 2.545 . S
O1560 C1568 1.250 . S
O1561 Gd1512 2.412 . S
O1561 C1571 1.252 . S
O1562 Gd1513 2.545 . S
O1562 C1580 1.258 . S
O1563 Gd1512 2.362 . S
O1563 Gd1513 2.606 . S
O1563 C1579 1.284 . S
O1564 Gd1512 2.324 . S
O1564 C1587 1.254 . S
O1565 Gd1513 2.429 . S
O1565 C1587 1.268 . S
O1566 Gd1513 2.545 . S
O1566 C1579 1.250 . S
O1567 Gd1513 2.412 . S
O1567 C1580 1.252 . S
C1568 O1557 1.284 . S
C1568 O1560 1.250 . S
C1569 H1538 0.929 . S
C1569 C1554 1.437 . S
C1569 C1570 1.317 . S
C1570 H1541 0.930 . S
C1570 C1546 1.431 . S
C1570 C1569 1.317 . S
C1571 Gd1512 2.828 . S
C1571 O1556 1.258 . S
C1571 O1561 1.252 . S
C1571 C1572 1.497 . S
C1572 C1571 1.497 . S
C1572 C1573 1.395 . S
C1572 C1574 1.380 . S
C1573 C1572 1.395 . S
C1573 C1576 1.398 . S
C1573 H1588 0.930 . S
C1574 C1572 1.380 . S
C1574 C1575 1.391 . S
C1574 H1589 0.930 . S
C1575 C1574 1.391 . S
C1575 C1577 1.387 . S
C1576 C1573 1.398 . S
C1576 C1577 1.380 . S
C1576 H1590 0.930 . S
C1577 C1575 1.387 . S
C1577 C1576 1.380 . S
C1577 H1591 0.930 . S
C1578 O1558 1.254 . S
C1578 O1559 1.268 . S
C1579 O1563 1.284 . S
C1579 O1566 1.250 . S
C1580 Gd1513 2.828 . S
C1580 O1562 1.258 . S
C1580 O1567 1.252 . S
C1580 C1581 1.497 . S
C1581 C1580 1.497 . S
C1581 C1582 1.395 . S
C1581 C1583 1.380 . S
C1582 C1581 1.395 . S
C1582 C1585 1.398 . S
C1582 H1592 0.930 . S
C1583 C1581 1.380 . S
C1583 C1584 1.391 . S
C1583 H1593 0.930 . S
C1584 C1583 1.391 . S
C1584 C1586 1.387 . S
C1585 C1582 1.398 . S
C1585 C1586 1.380 . S
C1585 H1594 0.930 . S
C1586 C1584 1.387 . S
C1586 C1585 1.380 . S
C1586 H1595 0.930 . S
C1587 O1564 1.254 . S
C1587 O1565 1.268 . S
H1588 C1573 0.930 . S
H1589 C1574 0.930 . S
H1590 C1576 0.930 . S
H1591 C1577 0.930 . S
H1592 C1582 0.930 . S
H1593 C1583 0.930 . S
H1594 C1585 0.930 . S
H1595 C1586 0.930 . S
Gd1596 N1627 2.661 1_455 S
Gd1596 N1633 2.601 . S
Gd1596 O1640 2.545 . S
Gd1596 O1641 2.606 . S
Gd1596 O1643 2.429 . S
Gd1596 O1644 2.545 . S
Gd1596 O1645 2.412 1_455 S
Gd1596 O1647 2.362 . S
Gd1596 O1648 2.324 1_554 S
Gd1596 C1655 2.828 1_455 S
Gd1597 N1606 2.661 1_556 S
Gd1597 N1610 2.601 . S
Gd1597 O1641 2.362 1_556 S
Gd1597 O1642 2.324 1_556 S
Gd1597 O1646 2.545 . S
Gd1597 O1647 2.606 1_556 S
Gd1597 O1649 2.429 . S
Gd1597 O1650 2.545 . S
Gd1597 O1651 2.412 1_556 S
Gd1597 C1664 2.828 . S
C1598 C1601 1.417 1_554 S
C1598 C1603 1.431 1_554 S
C1598 C1604 1.412 . S
C1599 C1602 1.437 . S
C1599 C1603 1.317 . S
C1599 H1618 0.929 . S
C1600 C1601 1.426 . S
C1600 C1602 1.413 . S
C1600 N1610 1.359 . S
C1601 C1598 1.417 1_556 S
C1601 C1600 1.426 . S
C1601 N1606 1.350 1_556 S
C1602 C1599 1.437 . S
C1602 C1600 1.413 . S
C1602 C1612 1.391 . S
C1603 C1598 1.431 1_556 S
C1603 C1599 1.317 . S
C1603 H1614 0.930 . S
C1604 C1598 1.412 . S
C1604 C1605 1.355 . S
C1604 H1616 0.930 . S
C1605 C1604 1.355 . S
C1605 C1607 1.402 . S
C1605 H1617 0.930 . S
N1606 Gd1597 2.661 1_554 S
N1606 C1601 1.350 1_554 S
N1606 C1607 1.307 . S
C1607 C1605 1.402 . S
C1607 N1606 1.307 . S
C1607 H1608 0.930 . S
H1608 C1607 0.930 . S
C1609 N1610 1.334 . S
C1609 C1611 1.394 . S
C1609 H1613 0.930 . S
N1610 Gd1597 2.601 . S
N1610 C1600 1.359 . S
N1610 C1609 1.334 . S
C1611 C1609 1.394 . S
C1611 C1612 1.359 . S
C1611 H1623 0.930 . S
C1612 C1602 1.391 . S
C1612 C1611 1.359 . S
C1612 H1624 0.929 . S
H1613 C1609 0.930 . S
H1614 C1603 0.930 . S
H1615 C1632 0.930 . S
H1616 C1604 0.930 . S
H1617 C1605 0.930 . S
H1618 C1599 0.929 . S
H1619 C1637 0.930 . S
H1620 C1628 0.930 . S
H1621 C1629 0.930 . S
H1622 C1653 0.929 . S
H1623 C1611 0.930 . S
H1624 C1612 0.929 . S
H1625 C1654 0.930 . S
H1626 C1635 0.930 . S
N1627 Gd1596 2.661 1_655 S
N1627 C1631 1.350 . S
N1627 C1632 1.307 1_554 S
C1628 H1620 0.930 . S
C1628 C1629 1.355 . S
C1628 C1630 1.412 1_556 S
C1629 H1621 0.930 . S
C1629 C1628 1.355 . S
C1629 C1632 1.402 . S
C1630 C1628 1.412 1_554 S
C1630 C1631 1.417 . S
C1630 C1654 1.431 . S
C1631 N1627 1.350 . S
C1631 C1630 1.417 . S
C1631 C1634 1.425 1_655 S
C1632 H1615 0.930 . S
C1632 N1627 1.307 1_556 S
C1632 C1629 1.402 . S
N1633 Gd1596 2.601 . S
N1633 C1634 1.363 . S
N1633 C1637 1.334 . S
C1634 C1631 1.425 1_455 S
C1634 N1633 1.363 . S
C1634 C1638 1.411 1_455 S
C1635 H1626 0.930 . S
C1635 C1636 1.359 . S
C1635 C1637 1.394 . S
C1636 C1635 1.359 . S
C1636 C1638 1.391 1_455 S
C1636 H1639 0.929 1_455 S
C1637 H1619 0.930 . S
C1637 N1633 1.334 . S
C1637 C1635 1.394 . S
C1638 C1634 1.411 1_655 S
C1638 C1636 1.391 1_655 S
C1638 C1653 1.437 . S
H1639 C1636 0.929 1_655 S
O1640 Gd1596 2.545 . S
O1640 C1655 1.258 1_455 S
O1641 Gd1596 2.606 . S
O1641 Gd1597 2.362 1_554 S
O1641 C1652 1.284 . S
O1642 Gd1597 2.324 1_554 S
O1642 C1662 1.254 . S
O1643 Gd1596 2.429 . S
O1643 C1662 1.268 . S
O1644 Gd1596 2.545 . S
O1644 C1652 1.250 . S
O1645 Gd1596 2.412 1_655 S
O1645 C1655 1.252 . S
O1646 Gd1597 2.545 . S
O1646 C1664 1.258 . S
O1647 Gd1596 2.362 . S
O1647 Gd1597 2.606 1_554 S
O1647 C1663 1.284 . S
O1648 Gd1596 2.324 1_556 S
O1648 C1671 1.254 . S
O1649 Gd1597 2.429 . S
O1649 C1671 1.268 . S
O1650 Gd1597 2.545 . S
O1650 C1663 1.250 1_556 S
O1651 Gd1597 2.412 1_554 S
O1651 C1664 1.252 1_554 S
C1652 O1641 1.284 . S
C1652 O1644 1.250 . S
C1653 H1622 0.929 . S
C1653 C1638 1.437 . S
C1653 C1654 1.317 . S
C1654 H1625 0.930 . S
C1654 C1630 1.431 . S
C1654 C1653 1.317 . S
C1655 Gd1596 2.828 1_655 S
C1655 O1640 1.258 1_655 S
C1655 O1645 1.252 . S
C1655 C1656 1.497 . S
C1656 C1655 1.497 . S
C1656 C1657 1.395 . S
C1656 C1658 1.380 . S
C1657 C1656 1.395 . S
C1657 C1660 1.398 . S
C1657 H1672 0.930 . S
C1658 C1656 1.380 . S
C1658 C1659 1.391 . S
C1658 H1673 0.930 . S
C1659 C1658 1.391 . S
C1659 C1661 1.387 . S
C1660 C1657 1.398 . S
C1660 C1661 1.380 . S
C1660 H1674 0.930 . S
C1661 C1659 1.387 . S
C1661 C1660 1.380 . S
C1661 H1675 0.930 . S
C1662 O1642 1.254 . S
C1662 O1643 1.268 . S
C1663 O1647 1.284 . S
C1663 O1650 1.250 1_554 S
C1664 Gd1597 2.828 . S
C1664 O1646 1.258 . S
C1664 O1651 1.252 1_556 S
C1664 C1665 1.497 . S
C1665 C1664 1.497 . S
C1665 C1666 1.395 . S
C1665 C1667 1.380 . S
C1666 C1665 1.395 . S
C1666 C1669 1.398 . S
C1666 H1676 0.930 . S
C1667 C1665 1.380 . S
C1667 C1668 1.391 . S
C1667 H1677 0.930 1_556 S
C1668 C1667 1.391 . S
C1668 C1670 1.387 . S
C1669 C1666 1.398 . S
C1669 C1670 1.380 . S
C1669 H1678 0.930 . S
C1670 C1668 1.387 . S
C1670 C1669 1.380 . S
C1670 H1679 0.930 . S
C1671 O1648 1.254 . S
C1671 O1649 1.268 . S
H1672 C1657 0.930 . S
H1673 C1658 0.930 . S
H1674 C1660 0.930 . S
H1675 C1661 0.930 . S
H1676 C1666 0.930 . S
H1677 C1667 0.930 1_554 S
H1678 C1669 0.930 . S
H1679 C1670 0.930 . S
C111 C403 3.191 . S
C64 C486 3.205 . S
C77 C571 2.434 . S
C651 C95 1.024 . S
C25 C735 2.815 . S
C828 C36 1.471 . S
C906 C50 3.004 . S
C11 C991 2.758 . S
C402 C237 2.756 . S
C245 C483 1.028 . S
C570 C279 1.138 . S
C655 C175 2.340 . S
C231 C739 2.588 . S
C831 C251 1.438 . S
C903 C273 0.400 . S
C990 C181 2.913 . S
C399 C165 2.361 . S
C288 C1074 2.207 1_556 S
C1148 C333 3.348 . S
C1243 C316 0.937 . S
C123 C987 4.163 1_545 S
C137 C567 2.717 . S
C330 C1326 2.529 . S
C1411 C302 0.926 . S
C392 C63 3.213 . S
C1419 C106 3.323 . S
C97 C560 2.694 . S
C81 C1332 0.891 . S
C744 C13 2.137 . S
C55 C1155 0.787 . S
C915 C35 2.860 1_565 S
C1484 C21 2.927 . S
C411 C147 3.040 . S
C1416 C321 0.329 . S
C119 C579 1.156 . S
C293 C1316 2.596 . S
C153 C728 2.602 . S
C1158 C315 1.553 . S
C125 C912 0.653 . S
C287 C1503 2.925 . S
C193 C408 2.193 1_554 S
C176 C1083 2.351 . S
C263 C823 3.259 . S
C246 C1232 1.533 . S
C1500 C277 3.693 . S
C221 C576 2.395 . S
C663 C260 2.674 . S
C476 C204 1.216 . S
C83 C1579 3.191 . S
C1410 C92 3.205 . S
C105 C1663 2.433 . S
C67 C1323 1.024 . S
C53 C1071 2.814 . S
C1164 C8 1.471 . S
C1242 C22 3.005 1_455 S
C1495 C39 2.757 . S
C1578 C265 2.756 . S
C189 C1407 1.027 1_556 S
C1662 C209 1.138 . S
C1327 C217 2.340 . S
C1075 C259 2.588 . S
C195 C1167 1.438 . S
C1239 C203 0.400 . S
C223 C1494 2.912 . S
C1575 C319 2.359 . S
C134 C738 2.212 . S
C812 C151 3.348 . S
C907 C162 0.931 . S
C1491 C305 4.159 . S
C291 C1659 2.717 1_556 S
C654 C148 2.529 . S
C487 C120 0.925 . S
C91 C1568 3.212 . S
C495 C78 3.322 . S
C69 C1652 2.694 . S
C109 C660 0.891 . S
C41 C1080 2.138 1_556 S
C819 C27 0.787 . S
C7 C1251 2.861 . S
C49 C980 2.927 . S
C1587 C329 3.040 . S
C167 C492 0.324 . S
C1671 C301 1.159 . S
C139 C644 2.596 . S
C335 C1064 2.602 . S
C822 C161 1.549 . S
C307 C1248 0.655 1_455 S
C999 C133 2.925 . S
C1584 C249 2.193 . S
C747 C218 2.351 1_445 S
C235 C1159 3.259 . S
C896 C190 1.534 . S
C207 C996 3.693 . S
C179 C1668 2.395 1_554 S
C1335 C232 2.673 . S
C1400 C274 1.215 . S
