# Generated by pormake.
# Topology pts, (4,4)-cn, num edge types: 1
# Building blocks:
#     Node 0, Type 0, BuildingBlock: KOZSID_clean_sbu_0, # of connection points: 4
#     Node 1, Type 0, BuildingBlock: KOZSID_clean_sbu_0, # of connection points: 4
#     Node 2, Type 1, BuildingBlock: AZAVOO_clean_sbu_0, # of connection points: 4
#     Node 3, Type 1, BuildingBlock: AZAVOO_clean_sbu_0, # of connection points: 4
#     Edge 4, Type (0, 1), BuildingBlock: XUDNAN_clean_linker_2, # of connection points: 2
#     Edge 5, Type (0, 1), BuildingBlock: XUDNAN_clean_linker_2, # of connection points: 2
#     Edge 6, Type (0, 1), BuildingBlock: XUDNAN_clean_linker_2, # of connection points: 2
#     Edge 7, Type (0, 1), BuildingBlock: XUDNAN_clean_linker_2, # of connection points: 2
#     Edge 8, Type (0, 1), BuildingBlock: XUDNAN_clean_linker_2, # of connection points: 2
#     Edge 9, Type (0, 1), BuildingBlock: XUDNAN_clean_linker_2, # of connection points: 2
#     Edge 10, Type (0, 1), BuildingBlock: XUDNAN_clean_linker_2, # of connection points: 2
#     Edge 11, Type (0, 1), BuildingBlock: XUDNAN_clean_linker_2, # of connection points: 2
# Relax obj value: 0.000
# Max RMSD: 0.030
# Mean RMSD: 0.015
data_MOF--net-pts--node1-KOZSID_clean_sbu_0--node2-AZAVOO_clean_sbu_0--edge1-XUDNAN_clean_linker_2
_symmetry_space_group_name_H-M    P1
_symmetry_Int_Tables_number       1
_symmetry_cell_setting            triclinic
loop_
_symmetry_equiv_pos_as_xyz
'x, y, z'
_cell_length_a     26.539222
_cell_length_b     27.37302
_cell_length_c     39.651159
_cell_angle_alpha  86.111147
_cell_angle_beta   100.13513
_cell_angle_gamma 90.417904
loop_
_atom_site_label
_atom_site_type_symbol
_atom_site_fract_x
_atom_site_fract_y
_atom_site_fract_z
_atom_type_partial_charge
C0 C 0.64835 0.09629 0.07073 0.0
C1 C 0.66281 0.14066 0.08438 0.0
C2 C 0.62921 0.17502 0.06699 0.0
C3 C 0.59625 0.14975 0.04385 0.0
N4 N 0.60628 0.10114 0.04577 0.0
Co5 Co 0.56937 0.051 0.01594 0.0
N6 N 0.5234 0.1022 0.98795 0.0
C7 C 0.52533 0.15111 0.99111 0.0
C8 C 0.48753 0.1767 0.96906 0.0
C9 C 0.45918 0.14201 0.95118 0.0
C10 C 0.4813 0.09709 0.96354 0.0
N11 N 0.5319 0.00072 0.98646 0.0
C12 C 0.48874 0.00528 0.96237 0.0
C13 C 0.47313 0.96045 0.94977 0.0
C14 C 0.50721 0.9263 0.96676 0.0
C15 C 0.54138 0.95198 0.9888 0.0
N16 N 0.61572 -0.00018 0.04367 0.0
C17 C 0.61516 0.95114 0.0396 0.0
C18 C 0.65323 0.92557 0.0614 0.0
C19 C 0.68042 0.96008 0.08011 0.0
C20 C 0.65723 0.00483 0.06853 0.0
N21 N 0.51897 0.04152 0.0475 0.0
C22 C 0.43659 0.02821 0.08354 0.0
C23 C 0.46309 0.98812 0.07509 0.0
C24 C 0.50408 0.99553 0.05749 0.0
C25 C 0.45406 0.07505 0.07544 0.0
C26 C 0.49499 0.08081 0.05763 0.0
N27 N 0.61962 0.06066 0.98414 0.0
C28 C 0.67577 0.02776 0.9491 0.0
C29 C 0.69464 0.07439 0.9416 0.0
C30 C 0.67471 0.11396 0.95565 0.0
C31 C 0.63738 0.10643 0.97629 0.0
C32 C 0.63888 0.02177 0.97032 0.0
H33 H 0.62394 0.13829 0.98587 0.0
H34 H 0.62677 0.98524 0.97528 0.0
H35 H 0.52228 0.9635 0.05148 0.0
H36 H 0.50547 0.11748 0.05143 0.0
C37 C 0.55908 0.17117 0.01772 0.0
C38 C 0.67767 0.05124 0.08067 0.0
C39 C 0.45946 0.0505 0.95253 0.0
C40 C 0.58021 0.93093 0.01382 0.0
H41 H 0.6953 0.14766 0.10409 0.0
H42 H 0.63002 0.21407 0.06987 0.0
H43 H 0.48007 0.2157 0.96729 0.0
H44 H 0.42511 0.1488 0.932 0.0
H45 H 0.4396 0.95275 0.93113 0.0
H46 H 0.50596 0.88713 0.96438 0.0
H47 H 0.66119 0.88669 0.0628 0.0
H48 H 0.71429 0.95332 0.09948 0.0
H49 H 0.45186 0.95104 0.08163 0.0
H50 H 0.43494 0.10731 0.08152 0.0
H51 H 0.68894 0.99578 0.93847 0.0
H52 H 0.68829 0.15085 0.9513 0.0
C53 C 0.11887 0.49302 0.57553 0.0
C54 C 0.16636 0.48773 0.5968 0.0
C55 C 0.19986 0.51593 0.58167 0.0
C56 C 0.17086 0.53758 0.55259 0.0
N57 N 0.12081 0.52531 0.54842 0.0
Co58 Co 0.06405 0.55448 0.51302 0.0
N59 N 0.11312 0.59621 0.49086 0.0
C60 C 0.1648 0.59384 0.4982 0.0
C61 C 0.18836 0.62657 0.47843 0.0
C62 C 0.14944 0.65153 0.45735 0.0
C63 C 0.1041 0.63242 0.46547 0.0
N64 N 0.00687 0.58676 0.47922 0.0
C65 C 0.00775 0.62579 0.45643 0.0
C66 C 0.95894 0.63878 0.4394 0.0
C67 C 0.92588 0.60737 0.45241 0.0
C68 C 0.95633 0.57725 0.47654 0.0
N69 N 0.01542 0.51039 0.5339 0.0
C70 C 0.96458 0.50652 0.52243 0.0
C71 C 0.94187 0.46931 0.53902 0.0
C72 C 0.98059 0.44763 0.56227 0.0
C73 C 0.0249 0.47351 0.55893 0.0
N74 N 0.05645 0.60576 0.54464 0.0
C75 C 0.04448 0.68665 0.58237 0.0
C76 C 1.00342 0.65545 0.57278 0.0
C77 C 0.01023 0.61518 0.55396 0.0
C78 C 0.09211 0.67504 0.57481 0.0
C79 C 0.09728 0.63467 0.55623 0.0
N80 N 0.07191 0.50323 0.48091 0.0
C81 C 0.0375 0.45787 0.4317 0.0
C82 C 0.0846 0.4351 0.43275 0.0
C83 C 0.12502 0.44606 0.45866 0.0
C84 C 0.11805 0.48018 0.48214 0.0
C85 C 0.03182 0.49101 0.45606 0.0
H86 H 0.1508 0.48736 0.50086 0.0
H87 H 0.9945 0.5061 0.4541 0.0
H88 H 0.97735 0.59316 0.54618 0.0
H89 H 0.13436 0.62864 0.55049 0.0
C90 C 0.18967 0.56727 0.52763 0.0
C91 C 0.0753 0.46142 0.57941 0.0
C92 C 0.0536 0.65211 0.45042 0.0
C93 C 0.93909 0.53885 0.49641 0.0
H94 H 0.1762 0.46404 0.62 0.0
H95 H 0.24066 0.5193 0.59039 0.0
H96 H 0.22896 0.63349 0.48049 0.0
H97 H 0.15423 0.68161 0.43909 0.0
H98 H 0.94841 0.66815 0.41978 0.0
H99 H 0.88461 0.60675 0.44528 0.0
H100 H 0.90199 0.45877 0.53445 0.0
H101 H 0.97621 0.41595 0.57925 0.0
H102 H 0.96584 0.66346 0.57817 0.0
H103 H 0.12495 0.69827 0.58208 0.0
H104 H 1.00479 0.4495 0.41249 0.0
H105 H 0.16217 0.42892 0.46051 0.0
Mg106 Mg 0.11968 0.03599 0.28483 0.0
O107 O 0.04115 0.04013 0.24889 0.0
O108 O 0.98156 0.0443 0.28203 0.0
Mg109 Mg 0.02026 0.04019 0.33853 0.0
C110 C 0.99437 0.04339 0.2525 0.0
C111 C 0.1554 0.0193 0.21626 0.0
O112 O 0.12076 0.98504 0.2177 0.0
O113 O 0.11425 0.11792 0.29386 0.0
O114 O 0.05912 0.11395 0.33086 0.0
O115 O 0.11547 0.95363 0.29184 0.0
O116 O 0.08622 0.00418 0.32476 0.0
C117 C 0.08985 0.13774 0.31453 0.0
C118 C 0.09241 0.95993 0.31739 0.0
O119 O 0.16256 0.04962 0.23956 0.0
Mg120 Mg 0.02559 0.05789 0.74122 0.0
O121 O 0.09924 0.04118 0.78144 0.0
O122 O 0.16095 0.02478 0.75203 0.0
Mg123 Mg 0.12887 0.02675 0.6948 0.0
C124 C 0.14586 0.03081 0.78031 0.0
C125 C 0.96849 0.05616 0.80408 0.0
O126 O 0.98368 0.01032 0.80607 0.0
O127 O 0.05839 0.13416 0.72676 0.0
O128 O 0.1158 0.10786 0.69689 0.0
O129 O 1.00293 0.97679 0.73631 0.0
O130 O 0.05233 0.01798 0.70593 0.0
C131 C 0.09278 0.14251 0.70804 0.0
C132 C 0.02933 0.97808 0.71179 0.0
O133 O 0.98242 0.08603 0.78147 0.0
H134 H 0.40785 0.07702 0.13595 0.0
H135 H 0.35867 0.964 0.06579 0.0
H136 H 0.27972 0.95275 0.0902 0.0
H137 H 0.36144 0.01926 0.20816 0.0
H138 H 0.34142 0.07559 0.22297 0.0
H139 H 0.39347 0.07578 0.19934 0.0
H140 H 0.34619 0.14157 0.1552 0.0
H141 H 0.29382 0.14138 0.17863 0.0
H142 H 0.28198 0.12993 0.13369 0.0
H143 H 0.20672 0.95293 0.12231 0.0
H144 H 0.14634 0.96127 0.1622 0.0
H145 H 0.24208 0.07428 0.21194 0.0
C146 C 0.38029 0.05015 0.12557 0.0
C147 C 0.3896 0.02124 0.09901 0.0
C148 C 0.35281 0.98606 0.08645 0.0
C149 C 0.30761 0.9797 0.09994 0.0
C150 C 0.29961 0.00878 0.12603 0.0
C151 C 0.33496 0.04315 0.13887 0.0
C152 C 0.31759 0.06851 0.16775 0.0
C153 C 0.35575 0.05921 0.20155 0.0
C154 C 0.30941 0.12362 0.15824 0.0
C155 C 0.26715 0.04272 0.16928 0.0
C156 C 0.25742 0.00869 0.14477 0.0
C157 C 0.21385 0.97954 0.14155 0.0
C158 C 0.17972 0.98462 0.16436 0.0
C159 C 0.1893 0.01847 0.19023 0.0
C160 C 0.23337 0.04835 0.1923 0.0
H161 H 0.03055 0.41916 0.63277 0.0
H162 H 0.14342 0.39358 0.56876 0.0
H163 H 0.16833 0.31609 0.60253 0.0
H164 H 0.09374 0.35871 0.71323 0.0
H165 H 0.03677 0.32912 0.72324 0.0
H166 H 0.03193 0.38667 0.6979 0.0
H167 H 0.96933 0.34829 0.6492 0.0
H168 H 0.97319 0.291 0.67469 0.0
H169 H 0.98785 0.29326 0.63191 0.0
H170 H 0.18356 0.24474 0.64327 0.0
H171 H 0.17329 0.16905 0.6775 0.0
H172 H 0.03886 0.22976 0.70866 0.0
C173 C 0.06004 0.39688 0.62567 0.0
C174 C 0.08573 0.41272 0.59849 0.0
C175 C 0.12411 0.38259 0.58996 0.0
C176 C 0.13867 0.33871 0.60907 0.0
C177 C 0.11315 0.32444 0.63587 0.0
C178 C 0.07331 0.35139 0.64339 0.0
C179 C 0.04761 0.32353 0.67021 0.0
C180 C 0.05284 0.35117 0.7031 0.0
C181 C 0.99115 0.31341 0.65563 0.0
C182 C 0.07925 0.27667 0.67626 0.0
C183 C 0.11798 0.27935 0.65704 0.0
C184 C 0.15293 0.24169 0.65805 0.0
C185 C 0.14658 0.19873 0.67769 0.0
C186 C 0.10445 0.19278 0.69526 0.0
C187 C 0.07134 0.23306 0.69554 0.0
H188 H 0.70583 0.04775 0.15047 0.0
H189 H 0.76681 0.05751 0.05593 0.0
H190 H 0.85523 0.05741 0.08933 0.0
H191 H 0.79953 0.12572 0.19809 0.0
H192 H 0.80234 0.08948 0.23808 0.0
H193 H 0.74442 0.09128 0.20656 0.0
H194 H 0.74595 0.99661 0.20665 0.0
H195 H 0.80395 0.9945 0.23809 0.0
H196 H 0.80203 0.96635 0.19809 0.0
H197 H 0.93681 0.05445 0.13347 0.0
H198 H 1.00535 0.05006 0.18461 0.0
H199 H 0.89029 0.04246 0.25032 0.0
C200 C 0.738 0.05021 0.13701 0.0
C201 C 0.7302 0.05294 0.10086 0.0
C202 C 0.77264 0.05566 0.08373 0.0
C203 C 0.82273 0.05557 0.10246 0.0
C204 C 0.82942 0.05266 0.13823 0.0
C205 C 0.78819 0.05011 0.15533 0.0
C206 C 0.80576 0.04658 0.19387 0.0
C207 C 0.7869 0.09091 0.2101 0.0
C208 C 0.7884 -0.00187 0.21012 0.0
C209 C 0.86327 0.04762 0.19584 0.0
C210 C 0.8762 0.05104 0.16351 0.0
C211 C 0.92712 0.05193 0.15892 0.0
C212 C 0.9658 0.04936 0.18816 0.0
C213 C 0.95341 0.04605 0.22159 0.0
C214 C 0.90129 0.0452 0.22522 0.0
H215 H 0.01194 0.70649 0.64278 0.0
H216 H 0.06235 0.7743 0.55239 0.0
H217 H 0.06012 0.85521 0.57558 0.0
H218 H 0.92654 0.80867 0.65507 0.0
H219 H 0.94319 0.80247 0.70124 0.0
H220 H 0.94436 0.7496 0.67663 0.0
H221 H 0.03865 0.73306 0.70527 0.0
H222 H 0.03794 0.78609 0.72972 0.0
H223 H 0.08552 0.7806 0.70286 0.0
H224 H 0.05989 0.92585 0.60869 0.0
H225 H 0.05684 0.98775 0.64965 0.0
H226 H 1.00524 0.87858 0.72081 0.0
C227 C 0.02146 0.73869 0.62779 0.0
C228 C 0.03739 0.73456 0.59585 0.0
C229 C 0.05032 0.77702 0.57694 0.0
C230 C 0.04907 0.82301 0.58986 0.0
C231 C 0.03463 0.82596 0.62171 0.0
C232 C 0.02058 0.78536 0.64047 0.0
C233 C 0.0087 0.79963 0.67472 0.0
C234 C 0.95234 0.78949 0.67704 0.0
C235 C 0.04487 0.77327 0.70493 0.0
C236 C 0.01933 0.85433 0.67231 0.0
C237 C 0.03413 0.86816 0.64134 0.0
C238 C 0.048 0.91573 0.63295 0.0
C239 C 0.04652 0.95058 0.65671 0.0
C240 C 0.03118 0.9381 0.6887 0.0
C241 C 0.01704 0.88922 0.69658 0.0
H242 H 0.43147 0.03243 0.88488 0.0
H243 H 0.36967 0.06512 0.97488 0.0
H244 H 0.28142 0.06041 0.94162 0.0
H245 H 0.33962 0.10104 0.82291 0.0
H246 H 0.33714 0.05715 0.79077 0.0
H247 H 0.39454 0.0631 0.82199 0.0
H248 H 0.39157 0.9704 0.83995 0.0
H249 H 0.33391 0.96424 0.80892 0.0
H250 H 0.33485 0.94511 0.85344 0.0
H251 H 0.19974 0.05276 0.89751 0.0
H252 H 0.13229 0.04572 0.84633 0.0
H253 H 0.24911 0.01599 0.78617 0.0
C254 C 0.39919 0.03852 0.89744 0.0
C255 C 0.4068 0.04889 0.93229 0.0
C256 C 0.3641 0.05704 0.9481 0.0
C257 C 0.31407 0.05426 0.92948 0.0
C258 C 0.30766 0.04324 0.89514 0.0
C259 C 0.34915 0.03559 0.87931 0.0
C260 C 0.33219 0.02472 0.84214 0.0
C261 C 0.35204 0.06384 0.81804 0.0
C262 C 0.34913 0.97304 0.83575 0.0
C263 C 0.27467 0.02789 0.83934 0.0
C264 C 0.2611 0.03842 0.87013 0.0
C265 C 0.20998 0.04429 0.87331 0.0
C266 C 0.17189 0.04009 0.8441 0.0
C267 C 0.18514 0.03013 0.81213 0.0
C268 C 0.23733 0.02331 0.81014 0.0
H269 H 0.12348 0.34264 0.44653 0.0
H270 H 0.05791 0.44547 0.36269 0.0
H271 H 0.06357 0.38276 0.32124 0.0
H272 H 0.20973 0.27755 0.40047 0.0
H273 H 0.1973 0.21907 0.42109 0.0
H274 H 0.19499 0.27416 0.44325 0.0
H275 H 0.10262 0.25326 0.45229 0.0
H276 H 0.10479 0.19815 0.43039 0.0
H277 H 0.05426 0.24224 0.4156 0.0
H278 H 0.07076 0.30611 0.28946 0.0
H279 H 0.07068 0.22081 0.27149 0.0
H280 H 0.12744 0.16872 0.37676 0.0
C281 C 0.11156 0.35226 0.41936 0.0
C282 C 0.09089 0.39891 0.40766 0.0
C283 C 0.07406 0.40984 0.37205 0.0
C284 C 0.07748 0.37462 0.34836 0.0
C285 C 0.0976 0.32863 0.36077 0.0
C286 C 0.11402 0.31739 0.39552 0.0
C287 C 0.1288 0.264 0.40281 0.0
C288 C 0.18612 0.25839 0.41779 0.0
C289 C 0.09562 0.2379 0.42666 0.0
C290 C 0.11681 0.24655 0.36691 0.0
C291 C 0.10003 0.28444 0.34279 0.0
C292 C 0.08447 0.27629 0.30808 0.0
C293 C 0.08477 0.22797 0.29802 0.0
C294 C 0.09966 0.18882 0.32277 0.0
C295 C 0.1167 0.19842 0.35737 0.0
H296 H 0.77459 0.01263 0.93602 0.0
H297 H 0.70519 0.15285 0.89599 0.0
H298 H 0.77161 0.16607 0.86019 0.0
H299 H 0.9064 0.04667 0.93695 0.0
H300 H 0.92391 0.98895 0.92281 0.0
H301 H 0.87287 0.99164 0.94719 0.0
H302 H 0.81105 0.95144 0.89895 0.0
H303 H 0.86198 0.94827 0.87458 0.0
H304 H 0.80274 0.97874 0.85565 0.0
H305 H 0.84493 0.16369 0.82766 0.0
H306 H 0.91528 0.14286 0.79779 0.0
H307 H 0.93396 0.00238 0.85647 0.0
C308 C 0.77292 0.04604 0.91962 0.0
C309 C 0.73455 0.08189 0.91937 0.0
C310 C 0.73462 0.12523 0.89755 0.0
C311 C 0.77213 0.13304 0.87687 0.0
C312 C 0.80932 0.09707 0.87792 0.0
C313 C 0.80973 0.05423 0.89849 0.0
C314 C 0.85244 0.02035 0.8936 0.0
C315 C 0.8912 0.01139 0.92714 0.0
C316 C 0.83075 0.97184 0.87987 0.0
C317 C 0.87567 0.05066 0.86683 0.0
C318 C 0.85063 0.09506 0.85844 0.0
C319 C 0.86484 0.12903 0.83405 0.0
C320 C 0.90501 0.11691 0.81728 0.0
C321 C 0.93024 0.07097 0.82471 0.0
C322 C 0.91561 0.03784 0.85021 0.0
H323 H 0.07808 0.68063 0.38765 0.0
H324 H 0.0187 0.73422 0.47332 0.0
H325 H 0.01445 0.81825 0.44551 0.0
H326 H 0.15992 0.78027 0.37756 0.0
H327 H 0.15053 0.78154 0.33136 0.0
H328 H 0.14322 0.72503 0.35594 0.0
H329 H 0.05153 0.71558 0.3216 0.0
H330 H 0.05853 0.77216 0.29686 0.0
H331 H 1.00561 0.76436 0.31963 0.0
H332 H 0.02343 0.8962 0.41126 0.0
H333 H 0.04619 0.96441 0.37343 0.0
H334 H 0.1011 0.86125 0.30947 0.0
C335 C 0.06363 0.71017 0.40017 0.0
C336 C 0.04867 0.70156 0.43247 0.0
C337 C 0.03011 0.74059 0.44846 0.0
C338 C 0.02754 0.78818 0.43286 0.0
C339 C 0.04355 0.79583 0.40127 0.0
C340 C 0.06124 0.75799 0.38505 0.0
C341 C 0.07953 0.77679 0.35245 0.0
C342 C 0.13669 0.76523 0.35446 0.0
C343 C 0.04683 0.75598 0.32075 0.0
C344 C 0.07033 0.83124 0.35325 0.0
C345 C 0.04901 0.84122 0.38144 0.0
C346 C 0.03936 0.88885 0.38879 0.0
C347 C 0.05231 0.92744 0.36698 0.0
C348 C 0.07473 0.91832 0.33808 0.0
C349 C 0.08332 0.86943 0.33102 0.0
loop_
_geom_bond_atom_site_label_1
_geom_bond_atom_site_label_2
_geom_bond_distance
_geom_bond_site_symmetry_2
_ccdc_geom_bond_type
C0 C1 1.443 . S
C0 N4 1.376 . S
C0 C38 1.389 . S
C1 C0 1.443 . S
C1 C2 1.340 . S
C1 H41 0.951 . S
C2 C1 1.340 . S
C2 C3 1.439 . S
C2 H42 0.950 . S
C3 C2 1.439 . S
C3 N4 1.374 . S
C3 C37 1.395 . S
N4 C0 1.376 . S
N4 C3 1.374 . S
N4 Co5 2.008 . S
Co5 N4 2.008 . S
Co5 N6 1.995 1_554 S
Co5 N11 2.008 1_544 S
Co5 N16 1.995 1_545 S
Co5 N21 2.282 . S
Co5 N27 2.282 1_554 S
N6 Co5 1.995 1_556 S
N6 C7 1.376 . S
N6 C10 1.383 . S
C7 N6 1.376 . S
C7 C8 1.446 . S
C7 C37 1.391 1_556 S
C8 C7 1.446 . S
C8 C9 1.339 . S
C8 H43 0.949 . S
C9 C8 1.339 . S
C9 C10 1.439 . S
C9 H44 0.950 . S
C10 N6 1.383 . S
C10 C9 1.439 . S
C10 C39 1.392 . S
N11 Co5 2.008 1_566 S
N11 C12 1.376 1_565 S
N11 C15 1.374 . S
C12 N11 1.376 1_545 S
C12 C13 1.443 1_545 S
C12 C39 1.389 . S
C13 C12 1.443 1_565 S
C13 C14 1.340 . S
C13 H45 0.951 . S
C14 C13 1.340 . S
C14 C15 1.439 . S
C14 H46 0.950 . S
C15 N11 1.374 . S
C15 C14 1.439 . S
C15 C40 1.395 1_556 S
N16 Co5 1.995 1_565 S
N16 C17 1.376 . S
N16 C20 1.380 1_565 S
C17 N16 1.376 . S
C17 C18 1.446 . S
C17 C40 1.391 . S
C18 C17 1.446 . S
C18 C19 1.339 . S
C18 H47 0.949 . S
C19 C18 1.339 . S
C19 C20 1.421 1_565 S
C19 H48 0.950 . S
C20 N16 1.380 1_545 S
C20 C19 1.421 1_545 S
C20 C38 1.410 . S
N21 Co5 2.282 . S
N21 C24 1.332 . S
N21 C26 1.332 . S
C22 C23 1.386 . S
C22 C25 1.388 . S
C23 C22 1.386 . S
C23 C24 1.382 . S
C23 H49 0.950 1_545 S
C24 N21 1.332 . S
C24 C23 1.382 . S
C24 H35 0.952 1_545 S
C25 C22 1.388 . S
C25 C26 1.382 . S
C25 H50 0.950 . S
C26 N21 1.332 . S
C26 C25 1.382 . S
C26 H36 0.948 . S
N27 Co5 2.282 1_556 S
N27 C31 1.332 . S
N27 C32 1.332 . S
C28 C29 1.388 . S
C28 C32 1.382 . S
C28 H51 0.950 1_545 S
C29 C28 1.388 . S
C29 C30 1.386 . S
C30 C29 1.386 . S
C30 C31 1.382 . S
C30 H52 0.950 . S
C31 N27 1.332 . S
C31 C30 1.382 . S
C31 H33 0.952 . S
C32 N27 1.332 . S
C32 C28 1.382 . S
C32 H34 0.948 1_545 S
H33 C31 0.952 . S
H34 C32 0.948 1_565 S
H35 C24 0.952 1_565 S
H36 C26 0.948 . S
C37 C3 1.395 . S
C37 C7 1.391 1_554 S
C38 C0 1.389 . S
C38 C20 1.410 . S
C39 C10 1.392 . S
C39 C12 1.389 . S
C40 C15 1.395 1_554 S
C40 C17 1.391 . S
H41 C1 0.951 . S
H42 C2 0.950 . S
H43 C8 0.949 . S
H44 C9 0.950 . S
H45 C13 0.951 . S
H46 C14 0.950 . S
H47 C18 0.949 . S
H48 C19 0.950 . S
H49 C23 0.950 1_565 S
H50 C25 0.950 . S
H51 C28 0.950 1_565 S
H52 C30 0.950 . S
C53 C54 1.443 . S
C53 N57 1.376 . S
C53 C91 1.389 . S
C54 C53 1.443 . S
C54 C55 1.340 . S
C54 H94 0.951 . S
C55 C54 1.340 . S
C55 C56 1.439 . S
C55 H95 0.950 . S
C56 C55 1.439 . S
C56 N57 1.374 . S
C56 C90 1.395 . S
N57 C53 1.376 . S
N57 C56 1.374 . S
N57 Co58 2.008 . S
Co58 N57 2.008 . S
Co58 N59 1.995 . S
Co58 N64 2.008 . S
Co58 N69 1.995 . S
Co58 N74 2.282 . S
Co58 N80 2.282 . S
N59 Co58 1.995 . S
N59 C60 1.376 . S
N59 C63 1.383 . S
C60 N59 1.376 . S
C60 C61 1.446 . S
C60 C90 1.391 . S
C61 C60 1.446 . S
C61 C62 1.339 . S
C61 H96 0.949 . S
C62 C61 1.339 . S
C62 C63 1.439 . S
C62 H97 0.950 . S
C63 N59 1.383 . S
C63 C62 1.439 . S
C63 C92 1.392 . S
N64 Co58 2.008 . S
N64 C65 1.376 . S
N64 C68 1.374 1_455 S
C65 N64 1.376 . S
C65 C66 1.443 1_455 S
C65 C92 1.389 . S
C66 C65 1.443 1_655 S
C66 C67 1.340 . S
C66 H98 0.951 . S
C67 C66 1.340 . S
C67 C68 1.439 . S
C67 H99 0.950 . S
C68 N64 1.374 1_655 S
C68 C67 1.439 . S
C68 C93 1.395 . S
N69 Co58 1.995 . S
N69 C70 1.376 1_455 S
N69 C73 1.383 . S
C70 N69 1.376 1_655 S
C70 C71 1.446 . S
C70 C93 1.391 . S
C71 C70 1.446 . S
C71 C72 1.339 . S
C71 H100 0.949 . S
C72 C71 1.339 . S
C72 C73 1.439 1_655 S
C72 H101 0.950 . S
C73 N69 1.383 . S
C73 C72 1.439 1_455 S
C73 C91 1.392 . S
N74 Co58 2.282 . S
N74 C77 1.332 . S
N74 C79 1.332 . S
C75 C76 1.386 . S
C75 C78 1.388 . S
C76 C75 1.386 . S
C76 C77 1.382 . S
C76 H102 0.950 1_455 S
C77 N74 1.332 . S
C77 C76 1.382 . S
C77 H88 0.952 1_455 S
C78 C75 1.388 . S
C78 C79 1.382 . S
C78 H103 0.950 . S
C79 N74 1.332 . S
C79 C78 1.382 . S
C79 H89 0.948 . S
N80 Co58 2.282 . S
N80 C84 1.332 . S
N80 C85 1.332 . S
C81 C82 1.388 . S
C81 C85 1.382 . S
C81 H104 0.950 1_455 S
C82 C81 1.388 . S
C82 C83 1.386 . S
C83 C82 1.386 . S
C83 C84 1.382 . S
C83 H105 0.950 . S
C84 N80 1.332 . S
C84 C83 1.382 . S
C84 H86 0.952 . S
C85 N80 1.332 . S
C85 C81 1.382 . S
C85 H87 0.948 1_455 S
H86 C84 0.952 . S
H87 C85 0.948 1_655 S
H88 C77 0.952 1_655 S
H89 C79 0.948 . S
C90 C56 1.395 . S
C90 C60 1.391 . S
C91 C53 1.389 . S
C91 C73 1.392 . S
C92 C63 1.392 . S
C92 C65 1.389 . S
C93 C68 1.395 . S
C93 C70 1.391 . S
H94 C54 0.951 . S
H95 C55 0.950 . S
H96 C61 0.949 . S
H97 C62 0.950 . S
H98 C66 0.951 . S
H99 C67 0.950 . S
H100 C71 0.949 . S
H101 C72 0.950 . S
H102 C76 0.950 1_655 S
H103 C78 0.950 . S
H104 C81 0.950 1_655 S
H105 C83 0.950 . S
Mg106 O107 2.028 . S
Mg106 O113 1.986 . S
Mg106 O115 2.114 1_545 S
Mg106 O116 2.251 . S
Mg106 O119 2.010 . S
O107 Mg106 2.028 . S
O107 C110 1.250 1_455 S
O108 Mg109 2.028 . S
O108 C110 1.248 . S
Mg109 O108 2.028 . S
Mg109 O114 2.032 1_655 S
Mg109 O116 2.079 1_655 S
C110 O107 1.250 1_655 S
C110 O108 1.248 . S
C111 O112 1.264 . S
C111 O119 1.249 . S
O112 C111 1.264 . S
O113 Mg106 1.986 . S
O113 C117 1.246 . S
O114 Mg109 2.032 1_455 S
O114 C117 1.259 . S
O115 Mg106 2.114 1_565 S
O115 C118 1.252 . S
O116 Mg106 2.251 . S
O116 Mg109 2.079 1_455 S
O116 C118 1.273 1_545 S
C117 O113 1.246 . S
C117 O114 1.259 . S
C118 O115 1.252 . S
C118 O116 1.273 1_565 S
O119 Mg106 2.010 . S
O119 C111 1.249 . S
Mg120 O121 2.028 . S
Mg120 O127 1.986 . S
Mg120 O129 2.114 1_545 S
Mg120 O130 2.251 . S
Mg120 O133 2.010 1_455 S
O121 Mg120 2.028 . S
O121 C124 1.250 . S
O122 Mg123 2.028 . S
O122 C124 1.248 . S
Mg123 O122 2.028 . S
Mg123 O128 2.032 . S
Mg123 O130 2.079 . S
C124 O121 1.250 . S
C124 O122 1.248 . S
C125 O126 1.264 . S
C125 O133 1.249 . S
O126 C125 1.264 . S
O127 Mg120 1.986 . S
O127 C131 1.246 . S
O128 Mg123 2.032 . S
O128 C131 1.259 . S
O129 Mg120 2.114 1_565 S
O129 C132 1.252 . S
O130 Mg120 2.251 . S
O130 Mg123 2.079 . S
O130 C132 1.273 1_545 S
C131 O127 1.246 . S
C131 O128 1.259 . S
C132 O129 1.252 . S
C132 O130 1.273 1_565 S
O133 Mg120 2.010 1_655 S
O133 C125 1.249 . S
H134 C146 0.930 . S
H135 C148 0.930 . S
H136 C149 0.930 . S
H137 C153 0.959 . S
H138 C153 0.959 . S
H139 C153 0.961 . S
H140 C154 0.960 . S
H141 C154 0.961 . S
H142 C154 0.959 . S
H143 C157 0.929 . S
H144 C158 0.931 . S
H145 C160 0.930 . S
C146 H134 0.930 . S
C146 C147 1.399 . S
C146 C151 1.399 . S
C147 C146 1.399 . S
C147 C148 1.376 1_545 S
C148 H135 0.930 . S
C148 C147 1.376 1_565 S
C148 C149 1.388 . S
C149 H136 0.930 . S
C149 C148 1.388 . S
C149 C150 1.390 1_565 S
C150 C149 1.390 1_545 S
C150 C151 1.394 . S
C150 C156 1.465 . S
C151 C146 1.399 . S
C151 C150 1.394 . S
C151 C152 1.516 . S
C152 C151 1.516 . S
C152 C153 1.502 . S
C152 C154 1.561 . S
C152 C155 1.526 . S
C153 H137 0.959 . S
C153 H138 0.959 . S
C153 H139 0.961 . S
C153 C152 1.502 . S
C154 H140 0.960 . S
C154 H141 0.961 . S
C154 H142 0.959 . S
C154 C152 1.561 . S
C155 C152 1.526 . S
C155 C156 1.396 . S
C155 C160 1.390 . S
C156 C150 1.465 . S
C156 C155 1.396 . S
C156 C157 1.399 1_545 S
C157 H143 0.929 . S
C157 C156 1.399 1_565 S
C157 C158 1.385 . S
C158 H144 0.931 . S
C158 C157 1.385 . S
C158 C159 1.389 1_565 S
C159 C158 1.389 1_545 S
C159 C160 1.387 . S
C160 H145 0.930 . S
C160 C155 1.390 . S
C160 C159 1.387 . S
H161 C173 0.930 1_655 S
H162 C175 0.930 . S
H163 C176 0.930 . S
H164 C180 0.959 1_455 S
H165 C180 0.959 . S
H166 C180 0.961 . S
H167 C181 0.960 . S
H168 C181 0.961 . S
H169 C181 0.959 . S
H170 C184 0.929 . S
H171 C185 0.931 . S
H172 C187 0.930 1_655 S
C173 H161 0.930 1_455 S
C173 C174 1.399 . S
C173 C178 1.399 . S
C174 C173 1.399 . S
C174 C175 1.376 . S
C175 H162 0.930 . S
C175 C174 1.376 . S
C175 C176 1.388 . S
C176 H163 0.930 . S
C176 C175 1.388 . S
C176 C177 1.390 . S
C177 C176 1.390 . S
C177 C178 1.394 . S
C177 C183 1.465 . S
C178 C173 1.399 . S
C178 C177 1.394 . S
C178 C179 1.509 1_455 S
C179 C178 1.509 1_655 S
C179 C180 1.507 . S
C179 C181 1.569 . S
C179 C182 1.520 1_655 S
C180 H164 0.959 1_655 S
C180 H165 0.959 . S
C180 H166 0.961 . S
C180 C179 1.507 . S
C181 H167 0.960 . S
C181 H168 0.961 . S
C181 H169 0.959 . S
C181 C179 1.569 . S
C182 C179 1.520 1_455 S
C182 C183 1.396 . S
C182 C187 1.390 . S
C183 C177 1.465 . S
C183 C182 1.396 . S
C183 C184 1.399 . S
C184 H170 0.929 . S
C184 C183 1.399 . S
C184 C185 1.385 . S
C185 H171 0.931 . S
C185 C184 1.385 . S
C185 C186 1.389 . S
C186 C185 1.389 . S
C186 C187 1.387 . S
C187 H172 0.930 1_455 S
C187 C182 1.390 . S
C187 C186 1.387 . S
H188 C200 0.930 1_565 S
H189 C202 0.930 . S
H190 C203 0.930 . S
H191 C207 0.959 1_545 S
H192 C207 0.959 . S
H193 C207 0.961 . S
H194 C208 0.960 . S
H195 C208 0.961 . S
H196 C208 0.959 . S
H197 C211 0.929 . S
H198 C212 0.931 . S
H199 C214 0.930 1_565 S
C200 H188 0.930 1_545 S
C200 C201 1.399 . S
C200 C205 1.399 . S
C201 C200 1.399 . S
C201 C202 1.376 . S
C202 H189 0.930 . S
C202 C201 1.376 . S
C202 C203 1.388 . S
C203 H190 0.930 . S
C203 C202 1.388 . S
C203 C204 1.390 . S
C204 C203 1.390 . S
C204 C205 1.394 . S
C204 C210 1.465 . S
C205 C200 1.399 . S
C205 C204 1.394 . S
C205 C206 1.516 1_545 S
C206 C205 1.516 1_565 S
C206 C207 1.502 . S
C206 C208 1.561 . S
C206 C209 1.526 1_565 S
C207 H191 0.959 1_565 S
C207 H192 0.959 . S
C207 H193 0.961 . S
C207 C206 1.502 . S
C208 H194 0.960 . S
C208 H195 0.961 . S
C208 H196 0.959 . S
C208 C206 1.561 . S
C209 C206 1.526 1_545 S
C209 C210 1.396 . S
C209 C214 1.390 . S
C210 C204 1.465 . S
C210 C209 1.396 . S
C210 C211 1.399 . S
C211 H197 0.929 . S
C211 C210 1.399 . S
C211 C212 1.385 . S
C212 H198 0.931 . S
C212 C211 1.385 . S
C212 C213 1.389 . S
C213 C212 1.389 . S
C213 C214 1.387 . S
C214 H199 0.930 1_545 S
C214 C209 1.390 . S
C214 C213 1.387 . S
H215 C227 0.930 . S
H216 C229 0.930 . S
H217 C230 0.930 . S
H218 C234 0.959 1_655 S
H219 C234 0.959 . S
H220 C234 0.961 . S
H221 C235 0.960 . S
H222 C235 0.961 . S
H223 C235 0.959 . S
H224 C238 0.929 . S
H225 C239 0.931 1_545 S
H226 C241 0.930 . S
C227 H215 0.930 . S
C227 C228 1.399 . S
C227 C232 1.399 . S
C228 C227 1.399 . S
C228 C229 1.376 . S
C229 H216 0.930 . S
C229 C228 1.376 . S
C229 C230 1.388 . S
C230 H217 0.930 . S
C230 C229 1.388 . S
C230 C231 1.390 . S
C231 C230 1.390 . S
C231 C232 1.394 . S
C231 C237 1.465 . S
C232 C227 1.399 . S
C232 C231 1.394 . S
C232 C233 1.516 . S
C233 C232 1.516 . S
C233 C234 1.502 . S
C233 C235 1.561 . S
C233 C236 1.526 . S
C234 H218 0.959 1_455 S
C234 H219 0.959 . S
C234 H220 0.961 . S
C234 C233 1.502 . S
C235 H221 0.960 . S
C235 H222 0.961 . S
C235 H223 0.959 . S
C235 C233 1.561 . S
C236 C233 1.526 . S
C236 C237 1.396 . S
C236 C241 1.390 . S
C237 C231 1.465 . S
C237 C236 1.396 . S
C237 C238 1.399 . S
C238 H224 0.929 . S
C238 C237 1.399 . S
C238 C239 1.385 . S
C239 H225 0.931 1_565 S
C239 C238 1.385 . S
C239 C240 1.389 . S
C240 C239 1.389 . S
C240 C241 1.387 . S
C241 H226 0.930 . S
C241 C236 1.390 . S
C241 C240 1.387 . S
H242 C254 0.930 1_565 S
H243 C256 0.930 . S
H244 C257 0.930 . S
H245 C261 0.959 . S
H246 C261 0.959 . S
H247 C261 0.961 . S
H248 C262 0.960 . S
H249 C262 0.961 . S
H250 C262 0.959 . S
H251 C265 0.929 . S
H252 C266 0.931 . S
H253 C268 0.946 . S
C254 H242 0.930 1_545 S
C254 C255 1.399 . S
C254 C259 1.399 . S
C255 C254 1.399 . S
C255 C256 1.376 . S
C256 H243 0.930 . S
C256 C255 1.376 . S
C256 C257 1.388 . S
C257 H244 0.930 . S
C257 C256 1.388 . S
C257 C258 1.390 . S
C258 C257 1.390 . S
C258 C259 1.394 . S
C258 C264 1.465 . S
C259 C254 1.399 . S
C259 C258 1.394 . S
C259 C260 1.525 . S
C260 C259 1.525 . S
C260 C261 1.494 1_545 S
C260 C262 1.553 1_545 S
C260 C263 1.535 . S
C261 H245 0.959 . S
C261 H246 0.959 . S
C261 H247 0.961 . S
C261 C260 1.494 1_565 S
C262 H248 0.960 . S
C262 H249 0.961 . S
C262 H250 0.959 . S
C262 C260 1.553 1_565 S
C263 C260 1.535 . S
C263 C264 1.396 . S
C263 C268 1.390 . S
C264 C258 1.465 . S
C264 C263 1.396 . S
C264 C265 1.399 . S
C265 H251 0.929 . S
C265 C264 1.399 . S
C265 C266 1.385 . S
C266 H252 0.931 . S
C266 C265 1.385 . S
C266 C267 1.389 . S
C267 C266 1.389 . S
C267 C268 1.387 . S
C268 H253 0.946 . S
C268 C263 1.390 . S
C268 C267 1.387 . S
H269 C281 0.930 . S
H270 C283 0.930 . S
H271 C284 0.930 1_655 S
H272 C288 0.959 . S
H273 C288 0.959 . S
H274 C288 0.961 . S
H275 C289 0.960 . S
H276 C289 0.961 . S
H277 C289 0.959 . S
H278 C292 0.929 1_655 S
H279 C293 0.931 . S
H280 C295 0.930 . S
C281 H269 0.930 . S
C281 C282 1.399 . S
C281 C286 1.399 . S
C282 C281 1.399 . S
C282 C283 1.376 . S
C283 H270 0.930 . S
C283 C282 1.376 . S
C283 C284 1.388 . S
C284 H271 0.930 1_455 S
C284 C283 1.388 . S
C284 C285 1.390 . S
C285 C284 1.390 . S
C285 C286 1.394 . S
C285 C291 1.465 . S
C286 C281 1.399 . S
C286 C285 1.394 . S
C286 C287 1.516 . S
C287 C286 1.516 . S
C287 C288 1.502 . S
C287 C289 1.561 . S
C287 C290 1.526 . S
C288 H272 0.959 . S
C288 H273 0.959 . S
C288 H274 0.961 . S
C288 C287 1.502 . S
C289 H275 0.960 . S
C289 H276 0.961 . S
C289 H277 0.959 . S
C289 C287 1.561 . S
C290 C287 1.526 . S
C290 C291 1.396 . S
C290 C295 1.390 . S
C291 C285 1.465 . S
C291 C290 1.396 . S
C291 C292 1.399 . S
C292 H278 0.929 1_455 S
C292 C291 1.399 . S
C292 C293 1.385 . S
C293 H279 0.931 . S
C293 C292 1.385 . S
C293 C294 1.389 . S
C294 C293 1.389 . S
C294 C295 1.387 . S
C295 H280 0.930 . S
C295 C290 1.390 . S
C295 C294 1.387 . S
H296 C308 0.930 1_565 S
H297 C310 0.930 . S
H298 C311 0.930 . S
H299 C315 0.959 1_545 S
H300 C315 0.959 . S
H301 C315 0.961 . S
H302 C316 0.960 . S
H303 C316 0.961 . S
H304 C316 0.959 . S
H305 C319 0.929 . S
H306 C320 0.931 . S
H307 C322 0.930 . S
C308 H296 0.930 1_545 S
C308 C309 1.399 . S
C308 C313 1.399 . S
C309 C308 1.399 . S
C309 C310 1.376 . S
C310 H297 0.930 . S
C310 C309 1.376 . S
C310 C311 1.388 . S
C311 H298 0.930 . S
C311 C310 1.388 . S
C311 C312 1.390 . S
C312 C311 1.390 . S
C312 C313 1.394 . S
C312 C318 1.465 . S
C313 C308 1.399 . S
C313 C312 1.394 . S
C313 C314 1.516 . S
C314 C313 1.516 . S
C314 C315 1.502 1_545 S
C314 C316 1.561 1_545 S
C314 C317 1.526 . S
C315 H299 0.959 1_565 S
C315 H300 0.959 . S
C315 H301 0.961 . S
C315 C314 1.502 1_565 S
C316 H302 0.960 . S
C316 H303 0.961 . S
C316 H304 0.959 . S
C316 C314 1.561 1_565 S
C317 C314 1.526 . S
C317 C318 1.396 . S
C317 C322 1.390 . S
C318 C312 1.465 . S
C318 C317 1.396 . S
C318 C319 1.399 . S
C319 H305 0.929 . S
C319 C318 1.399 . S
C319 C320 1.385 . S
C320 H306 0.931 . S
C320 C319 1.385 . S
C320 C321 1.389 . S
C321 C320 1.389 . S
C321 C322 1.387 . S
C322 H307 0.930 . S
C322 C317 1.390 . S
C322 C321 1.387 . S
H323 C335 0.930 . S
H324 C337 0.930 . S
H325 C338 0.930 . S
H326 C342 0.959 . S
H327 C342 0.959 . S
H328 C342 0.961 . S
H329 C343 0.960 . S
H330 C343 0.961 . S
H331 C343 0.959 . S
H332 C346 0.929 . S
H333 C347 0.931 . S
H334 C349 0.930 . S
C335 H323 0.930 . S
C335 C336 1.399 . S
C335 C340 1.399 . S
C336 C335 1.399 . S
C336 C337 1.376 . S
C337 H324 0.930 . S
C337 C336 1.376 . S
C337 C338 1.388 . S
C338 H325 0.930 . S
C338 C337 1.388 . S
C338 C339 1.390 . S
C339 C338 1.390 . S
C339 C340 1.394 . S
C339 C345 1.465 . S
C340 C335 1.399 . S
C340 C339 1.394 . S
C340 C341 1.516 . S
C341 C340 1.516 . S
C341 C342 1.502 . S
C341 C343 1.561 . S
C341 C344 1.526 . S
C342 H326 0.959 . S
C342 H327 0.959 . S
C342 H328 0.961 . S
C342 C341 1.502 . S
C343 H329 0.960 . S
C343 H330 0.961 . S
C343 H331 0.959 . S
C343 C341 1.561 . S
C344 C341 1.526 . S
C344 C345 1.396 . S
C344 C349 1.390 . S
C345 C339 1.465 . S
C345 C344 1.396 . S
C345 C346 1.399 . S
C346 H332 0.929 . S
C346 C345 1.399 . S
C346 C347 1.385 . S
C347 H333 0.931 . S
C347 C346 1.385 . S
C347 C348 1.389 . S
C348 C347 1.389 . S
C348 C349 1.387 . S
C349 H334 0.930 . S
C349 C344 1.390 . S
C349 C348 1.387 . S
C159 C111 1.281 . S
C147 C22 1.500 . S
C186 C131 1.434 . S
C174 C91 1.490 . S
C213 C110 1.477 . S
C201 C38 1.495 . S
C240 C132 1.499 . S
C228 C75 1.500 . S
C267 C124 1.467 . S
C255 C39 1.496 . S
C294 C117 1.453 . S
C282 C82 1.486 . S
C321 C125 1.224 . S
C309 C29 1.492 . S
C336 C92 1.499 . S
C348 C118 1.499 . S
