# Generated by pormake.
# Topology gar, (4,6)-cn, num edge types: 1
# Building blocks:
#     Node 0, Type 0, BuildingBlock: CEKHIL_clean_sbu_0, # of connection points: 4
#     Node 1, Type 0, BuildingBlock: CEKHIL_clean_sbu_0, # of connection points: 4
#     Node 2, Type 0, BuildingBlock: CEKHIL_clean_sbu_0, # of connection points: 4
#     Node 3, Type 0, BuildingBlock: CEKHIL_clean_sbu_0, # of connection points: 4
#     Node 4, Type 0, BuildingBlock: CEKHIL_clean_sbu_0, # of connection points: 4
#     Node 5, Type 0, BuildingBlock: CEKHIL_clean_sbu_0, # of connection points: 4
#     Node 6, Type 0, BuildingBlock: CEKHIL_clean_sbu_0, # of connection points: 4
#     Node 7, Type 0, BuildingBlock: CEKHIL_clean_sbu_0, # of connection points: 4
#     Node 8, Type 0, BuildingBlock: CEKHIL_clean_sbu_0, # of connection points: 4
#     Node 9, Type 0, BuildingBlock: CEKHIL_clean_sbu_0, # of connection points: 4
#     Node 10, Type 0, BuildingBlock: CEKHIL_clean_sbu_0, # of connection points: 4
#     Node 11, Type 0, BuildingBlock: CEKHIL_clean_sbu_0, # of connection points: 4
#     Node 12, Type 0, BuildingBlock: CEKHIL_clean_sbu_0, # of connection points: 4
#     Node 13, Type 0, BuildingBlock: CEKHIL_clean_sbu_0, # of connection points: 4
#     Node 14, Type 0, BuildingBlock: CEKHIL_clean_sbu_0, # of connection points: 4
#     Node 15, Type 0, BuildingBlock: CEKHIL_clean_sbu_0, # of connection points: 4
#     Node 16, Type 0, BuildingBlock: CEKHIL_clean_sbu_0, # of connection points: 4
#     Node 17, Type 0, BuildingBlock: CEKHIL_clean_sbu_0, # of connection points: 4
#     Node 18, Type 0, BuildingBlock: CEKHIL_clean_sbu_0, # of connection points: 4
#     Node 19, Type 0, BuildingBlock: CEKHIL_clean_sbu_0, # of connection points: 4
#     Node 20, Type 0, BuildingBlock: CEKHIL_clean_sbu_0, # of connection points: 4
#     Node 21, Type 0, BuildingBlock: CEKHIL_clean_sbu_0, # of connection points: 4
#     Node 22, Type 0, BuildingBlock: CEKHIL_clean_sbu_0, # of connection points: 4
#     Node 23, Type 0, BuildingBlock: CEKHIL_clean_sbu_0, # of connection points: 4
#     Node 24, Type 1, BuildingBlock: BETDIP_clean_sbu_0, # of connection points: 6
#     Node 25, Type 1, BuildingBlock: BETDIP_clean_sbu_0, # of connection points: 6
#     Node 26, Type 1, BuildingBlock: BETDIP_clean_sbu_0, # of connection points: 6
#     Node 27, Type 1, BuildingBlock: BETDIP_clean_sbu_0, # of connection points: 6
#     Node 28, Type 1, BuildingBlock: BETDIP_clean_sbu_0, # of connection points: 6
#     Node 29, Type 1, BuildingBlock: BETDIP_clean_sbu_0, # of connection points: 6
#     Node 30, Type 1, BuildingBlock: BETDIP_clean_sbu_0, # of connection points: 6
#     Node 31, Type 1, BuildingBlock: BETDIP_clean_sbu_0, # of connection points: 6
#     Node 32, Type 1, BuildingBlock: BETDIP_clean_sbu_0, # of connection points: 6
#     Node 33, Type 1, BuildingBlock: BETDIP_clean_sbu_0, # of connection points: 6
#     Node 34, Type 1, BuildingBlock: BETDIP_clean_sbu_0, # of connection points: 6
#     Node 35, Type 1, BuildingBlock: BETDIP_clean_sbu_0, # of connection points: 6
#     Node 36, Type 1, BuildingBlock: BETDIP_clean_sbu_0, # of connection points: 6
#     Node 37, Type 1, BuildingBlock: BETDIP_clean_sbu_0, # of connection points: 6
#     Node 38, Type 1, BuildingBlock: BETDIP_clean_sbu_0, # of connection points: 6
#     Node 39, Type 1, BuildingBlock: BETDIP_clean_sbu_0, # of connection points: 6
#     Edge 40, Type (0, 1), BuildingBlock: OJICUG_clean_linker_0, # of connection points: 2
#     Edge 41, Type (0, 1), BuildingBlock: OJICUG_clean_linker_0, # of connection points: 2
#     Edge 42, Type (0, 1), BuildingBlock: OJICUG_clean_linker_0, # of connection points: 2
#     Edge 43, Type (0, 1), BuildingBlock: OJICUG_clean_linker_0, # of connection points: 2
#     Edge 44, Type (0, 1), BuildingBlock: OJICUG_clean_linker_0, # of connection points: 2
#     Edge 45, Type (0, 1), BuildingBlock: OJICUG_clean_linker_0, # of connection points: 2
#     Edge 46, Type (0, 1), BuildingBlock: OJICUG_clean_linker_0, # of connection points: 2
#     Edge 47, Type (0, 1), BuildingBlock: OJICUG_clean_linker_0, # of connection points: 2
#     Edge 48, Type (0, 1), BuildingBlock: OJICUG_clean_linker_0, # of connection points: 2
#     Edge 49, Type (0, 1), BuildingBlock: OJICUG_clean_linker_0, # of connection points: 2
#     Edge 50, Type (0, 1), BuildingBlock: OJICUG_clean_linker_0, # of connection points: 2
#     Edge 51, Type (0, 1), BuildingBlock: OJICUG_clean_linker_0, # of connection points: 2
#     Edge 52, Type (0, 1), BuildingBlock: OJICUG_clean_linker_0, # of connection points: 2
#     Edge 53, Type (0, 1), BuildingBlock: OJICUG_clean_linker_0, # of connection points: 2
#     Edge 54, Type (0, 1), BuildingBlock: OJICUG_clean_linker_0, # of connection points: 2
#     Edge 55, Type (0, 1), BuildingBlock: OJICUG_clean_linker_0, # of connection points: 2
#     Edge 56, Type (0, 1), BuildingBlock: OJICUG_clean_linker_0, # of connection points: 2
#     Edge 57, Type (0, 1), BuildingBlock: OJICUG_clean_linker_0, # of connection points: 2
#     Edge 58, Type (0, 1), BuildingBlock: OJICUG_clean_linker_0, # of connection points: 2
#     Edge 59, Type (0, 1), BuildingBlock: OJICUG_clean_linker_0, # of connection points: 2
#     Edge 60, Type (0, 1), BuildingBlock: OJICUG_clean_linker_0, # of connection points: 2
#     Edge 61, Type (0, 1), BuildingBlock: OJICUG_clean_linker_0, # of connection points: 2
#     Edge 62, Type (0, 1), BuildingBlock: OJICUG_clean_linker_0, # of connection points: 2
#     Edge 63, Type (0, 1), BuildingBlock: OJICUG_clean_linker_0, # of connection points: 2
#     Edge 64, Type (0, 1), BuildingBlock: OJICUG_clean_linker_0, # of connection points: 2
#     Edge 65, Type (0, 1), BuildingBlock: OJICUG_clean_linker_0, # of connection points: 2
#     Edge 66, Type (0, 1), BuildingBlock: OJICUG_clean_linker_0, # of connection points: 2
#     Edge 67, Type (0, 1), BuildingBlock: OJICUG_clean_linker_0, # of connection points: 2
#     Edge 68, Type (0, 1), BuildingBlock: OJICUG_clean_linker_0, # of connection points: 2
#     Edge 69, Type (0, 1), BuildingBlock: OJICUG_clean_linker_0, # of connection points: 2
#     Edge 70, Type (0, 1), BuildingBlock: OJICUG_clean_linker_0, # of connection points: 2
#     Edge 71, Type (0, 1), BuildingBlock: OJICUG_clean_linker_0, # of connection points: 2
#     Edge 72, Type (0, 1), BuildingBlock: OJICUG_clean_linker_0, # of connection points: 2
#     Edge 73, Type (0, 1), BuildingBlock: OJICUG_clean_linker_0, # of connection points: 2
#     Edge 74, Type (0, 1), BuildingBlock: OJICUG_clean_linker_0, # of connection points: 2
#     Edge 75, Type (0, 1), BuildingBlock: OJICUG_clean_linker_0, # of connection points: 2
#     Edge 76, Type (0, 1), BuildingBlock: OJICUG_clean_linker_0, # of connection points: 2
#     Edge 77, Type (0, 1), BuildingBlock: OJICUG_clean_linker_0, # of connection points: 2
#     Edge 78, Type (0, 1), BuildingBlock: OJICUG_clean_linker_0, # of connection points: 2
#     Edge 79, Type (0, 1), BuildingBlock: OJICUG_clean_linker_0, # of connection points: 2
#     Edge 80, Type (0, 1), BuildingBlock: OJICUG_clean_linker_0, # of connection points: 2
#     Edge 81, Type (0, 1), BuildingBlock: OJICUG_clean_linker_0, # of connection points: 2
#     Edge 82, Type (0, 1), BuildingBlock: OJICUG_clean_linker_0, # of connection points: 2
#     Edge 83, Type (0, 1), BuildingBlock: OJICUG_clean_linker_0, # of connection points: 2
#     Edge 84, Type (0, 1), BuildingBlock: OJICUG_clean_linker_0, # of connection points: 2
#     Edge 85, Type (0, 1), BuildingBlock: OJICUG_clean_linker_0, # of connection points: 2
#     Edge 86, Type (0, 1), BuildingBlock: OJICUG_clean_linker_0, # of connection points: 2
#     Edge 87, Type (0, 1), BuildingBlock: OJICUG_clean_linker_0, # of connection points: 2
#     Edge 88, Type (0, 1), BuildingBlock: OJICUG_clean_linker_0, # of connection points: 2
#     Edge 89, Type (0, 1), BuildingBlock: OJICUG_clean_linker_0, # of connection points: 2
#     Edge 90, Type (0, 1), BuildingBlock: OJICUG_clean_linker_0, # of connection points: 2
#     Edge 91, Type (0, 1), BuildingBlock: OJICUG_clean_linker_0, # of connection points: 2
#     Edge 92, Type (0, 1), BuildingBlock: OJICUG_clean_linker_0, # of connection points: 2
#     Edge 93, Type (0, 1), BuildingBlock: OJICUG_clean_linker_0, # of connection points: 2
#     Edge 94, Type (0, 1), BuildingBlock: OJICUG_clean_linker_0, # of connection points: 2
#     Edge 95, Type (0, 1), BuildingBlock: OJICUG_clean_linker_0, # of connection points: 2
#     Edge 96, Type (0, 1), BuildingBlock: OJICUG_clean_linker_0, # of connection points: 2
#     Edge 97, Type (0, 1), BuildingBlock: OJICUG_clean_linker_0, # of connection points: 2
#     Edge 98, Type (0, 1), BuildingBlock: OJICUG_clean_linker_0, # of connection points: 2
#     Edge 99, Type (0, 1), BuildingBlock: OJICUG_clean_linker_0, # of connection points: 2
#     Edge 100, Type (0, 1), BuildingBlock: OJICUG_clean_linker_0, # of connection points: 2
#     Edge 101, Type (0, 1), BuildingBlock: OJICUG_clean_linker_0, # of connection points: 2
#     Edge 102, Type (0, 1), BuildingBlock: OJICUG_clean_linker_0, # of connection points: 2
#     Edge 103, Type (0, 1), BuildingBlock: OJICUG_clean_linker_0, # of connection points: 2
#     Edge 104, Type (0, 1), BuildingBlock: OJICUG_clean_linker_0, # of connection points: 2
#     Edge 105, Type (0, 1), BuildingBlock: OJICUG_clean_linker_0, # of connection points: 2
#     Edge 106, Type (0, 1), BuildingBlock: OJICUG_clean_linker_0, # of connection points: 2
#     Edge 107, Type (0, 1), BuildingBlock: OJICUG_clean_linker_0, # of connection points: 2
#     Edge 108, Type (0, 1), BuildingBlock: OJICUG_clean_linker_0, # of connection points: 2
#     Edge 109, Type (0, 1), BuildingBlock: OJICUG_clean_linker_0, # of connection points: 2
#     Edge 110, Type (0, 1), BuildingBlock: OJICUG_clean_linker_0, # of connection points: 2
#     Edge 111, Type (0, 1), BuildingBlock: OJICUG_clean_linker_0, # of connection points: 2
#     Edge 112, Type (0, 1), BuildingBlock: OJICUG_clean_linker_0, # of connection points: 2
#     Edge 113, Type (0, 1), BuildingBlock: OJICUG_clean_linker_0, # of connection points: 2
#     Edge 114, Type (0, 1), BuildingBlock: OJICUG_clean_linker_0, # of connection points: 2
#     Edge 115, Type (0, 1), BuildingBlock: OJICUG_clean_linker_0, # of connection points: 2
#     Edge 116, Type (0, 1), BuildingBlock: OJICUG_clean_linker_0, # of connection points: 2
#     Edge 117, Type (0, 1), BuildingBlock: OJICUG_clean_linker_0, # of connection points: 2
#     Edge 118, Type (0, 1), BuildingBlock: OJICUG_clean_linker_0, # of connection points: 2
#     Edge 119, Type (0, 1), BuildingBlock: OJICUG_clean_linker_0, # of connection points: 2
#     Edge 120, Type (0, 1), BuildingBlock: OJICUG_clean_linker_0, # of connection points: 2
#     Edge 121, Type (0, 1), BuildingBlock: OJICUG_clean_linker_0, # of connection points: 2
#     Edge 122, Type (0, 1), BuildingBlock: OJICUG_clean_linker_0, # of connection points: 2
#     Edge 123, Type (0, 1), BuildingBlock: OJICUG_clean_linker_0, # of connection points: 2
#     Edge 124, Type (0, 1), BuildingBlock: OJICUG_clean_linker_0, # of connection points: 2
#     Edge 125, Type (0, 1), BuildingBlock: OJICUG_clean_linker_0, # of connection points: 2
#     Edge 126, Type (0, 1), BuildingBlock: OJICUG_clean_linker_0, # of connection points: 2
#     Edge 127, Type (0, 1), BuildingBlock: OJICUG_clean_linker_0, # of connection points: 2
#     Edge 128, Type (0, 1), BuildingBlock: OJICUG_clean_linker_0, # of connection points: 2
#     Edge 129, Type (0, 1), BuildingBlock: OJICUG_clean_linker_0, # of connection points: 2
#     Edge 130, Type (0, 1), BuildingBlock: OJICUG_clean_linker_0, # of connection points: 2
#     Edge 131, Type (0, 1), BuildingBlock: OJICUG_clean_linker_0, # of connection points: 2
#     Edge 132, Type (0, 1), BuildingBlock: OJICUG_clean_linker_0, # of connection points: 2
#     Edge 133, Type (0, 1), BuildingBlock: OJICUG_clean_linker_0, # of connection points: 2
#     Edge 134, Type (0, 1), BuildingBlock: OJICUG_clean_linker_0, # of connection points: 2
#     Edge 135, Type (0, 1), BuildingBlock: OJICUG_clean_linker_0, # of connection points: 2
# Relax obj value: 0.242
# Max RMSD: 0.365
# Mean RMSD: 0.170
data_MOF--net-gar--node1-CEKHIL_clean_sbu_0--node2-BETDIP_clean_sbu_0--edge1-OJICUG_clean_linker_0
_symmetry_space_group_name_H-M    P1
_symmetry_Int_Tables_number       1
_symmetry_cell_setting            triclinic
loop_
_symmetry_equiv_pos_as_xyz
'x, y, z'
_cell_length_a     48.506004
_cell_length_b     41.242502
_cell_length_c     38.297805
_cell_angle_alpha  97.22821
_cell_angle_beta   99.723552
_cell_angle_gamma 101.73991
loop_
_atom_site_label
_atom_site_type_symbol
_atom_site_fract_x
_atom_site_fract_y
_atom_site_fract_z
_atom_type_partial_charge
Co0 Co 0.07024 0.363 0.45724 0.0
O1 O 0.10369 0.3447 0.46365 0.0
O2 O 0.08165 0.35447 0.41169 0.0
C3 C 0.08575 0.40418 0.50487 0.0
O4 O 1.0355 0.3813 0.44011 0.0
Co5 Co 1.03135 0.36594 0.51348 0.0
O6 O 1.01591 0.39807 0.48611 0.0
C7 C 1.02387 0.30333 0.46123 0.0
C8 C 0.10226 0.34351 0.42932 0.0
C9 C 1.01722 0.39535 0.45304 0.0
O10 O 0.04475 0.31707 0.44754 0.0
O11 O 1.01598 0.31818 0.48803 0.0
O12 O 0.09367 0.4078 0.47453 0.0
O13 O 0.07058 0.37501 0.50645 0.0
Co14 Co 0.1119 0.80406 0.76916 0.0
O15 O 0.07396 0.81145 0.76413 0.0
O16 O 0.09073 0.77887 0.80007 0.0
C17 C 0.13454 0.85821 0.77693 0.0
O18 O 0.15108 0.79281 0.78033 0.0
Co19 Co 0.14409 0.82568 0.7083 0.0
O20 O 0.17517 0.81079 0.73799 0.0
C21 C 0.09995 0.76358 0.69329 0.0
C22 C 0.06993 0.79291 0.78843 0.0
C23 C 0.17339 0.79699 0.76577 0.0
O24 O 0.09901 0.76586 0.727 0.0
O25 O 0.11348 0.78727 0.67979 0.0
O26 O 0.12673 0.84568 0.80404 0.0
O27 O 0.12511 0.83909 0.74611 0.0
Co28 Co 0.56825 0.86331 0.95897 0.0
O29 O 0.60061 0.84307 0.96679 0.0
O30 O 0.58037 0.85294 0.91407 0.0
C31 C 0.58464 0.90492 1.00626 0.0
O32 O 0.53492 0.88377 0.94052 0.0
Co33 Co 0.52892 0.86976 1.01428 0.0
O34 O 0.51569 0.9026 0.98605 0.0
C35 C 0.51998 0.80581 0.96367 0.0
C36 C 0.60014 0.84137 0.93262 0.0
C37 C 0.51744 0.89956 0.95309 0.0
O38 O 0.5411 0.81834 0.94963 0.0
O39 O 0.51255 0.82179 0.99015 0.0
O40 O 0.59317 0.90742 0.97609 0.0
O41 O 0.56826 0.87652 1.00791 0.0
Co42 Co 0.60505 0.3039 0.26841 0.0
O43 O 0.56624 0.3079 0.26157 0.0
O44 O 0.58417 0.27604 0.29754 0.0
C45 C 0.62476 0.35895 0.27839 0.0
O46 O 0.64537 0.29626 0.28107 0.0
Co47 Co 0.63737 0.33078 0.20954 0.0
O48 O 0.66989 0.32224 0.24304 0.0
C49 C 0.59751 0.26516 0.19219 0.0
C50 C 0.56253 0.28853 0.28519 0.0
C51 C 0.66854 0.30623 0.26935 0.0
O52 O 0.59522 0.26665 0.22545 0.0
O53 O 0.61053 0.28986 0.1796 0.0
O54 O 0.61681 0.34486 0.30455 0.0
O55 O 0.61691 0.34055 0.24702 0.0
Co56 Co 0.12617 0.85264 0.21546 0.0
O57 O 0.08458 0.84815 0.20761 0.0
O58 O 0.11113 0.84109 0.25737 0.0
C59 C 0.13494 0.90246 0.19265 0.0
O60 O 0.169 0.85581 0.23711 0.0
Co61 Co 0.16157 0.85236 0.15817 0.0
O62 O 0.1959 0.85375 0.1952 0.0
C63 C 0.12731 0.7875 0.16742 0.0
C64 C 0.0858 0.84142 0.24001 0.0
C65 C 0.19322 0.85482 0.22772 0.0
O66 O 0.12025 0.80276 0.195 0.0
O67 O 0.14225 0.80336 0.14776 0.0
O68 O 0.13227 0.90187 0.22578 0.0
O69 O 0.13187 0.87308 0.17379 0.0
Co70 Co 0.54801 0.80885 0.50501 0.0
O71 O 0.58968 0.81749 0.51414 0.0
O72 O 0.56167 0.79284 0.4623 0.0
C73 C 0.54707 0.86209 0.52922 0.0
O74 O 0.50416 0.79826 0.48344 0.0
Co75 Co 0.51399 0.80989 0.56299 0.0
O76 O 0.48314 0.81812 0.52646 0.0
C77 C 0.53806 0.75088 0.54934 0.0
C78 C 0.58767 0.80474 0.48085 0.0
C79 C 0.48253 0.80802 0.49354 0.0
O80 O 0.54656 0.76354 0.52267 0.0
O81 O 0.5249 0.76605 0.57008 0.0
O82 O 0.54997 0.8544 0.49639 0.0
O83 O 0.54631 0.83776 0.54794 0.0
Co84 Co 0.62703 0.35448 0.71983 0.0
O85 O 0.58539 0.34987 0.71104 0.0
O86 O 0.61133 0.34265 0.76117 0.0
C87 C 0.636 0.40453 0.69728 0.0
O88 O 0.66967 0.35767 0.74269 0.0
Co89 Co 0.66361 0.35461 0.66422 0.0
O90 O 0.69752 0.3559 0.7019 0.0
C91 C 0.62855 0.28959 0.67162 0.0
C92 C 0.58616 0.34294 0.74333 0.0
C93 C 0.69422 0.3568 0.73418 0.0
O94 O 0.62127 0.30463 0.69916 0.0
O95 O 0.64395 0.30569 0.65257 0.0
O96 O 0.63297 0.40372 0.73026 0.0
O97 O 0.63336 0.37523 0.67843 0.0
Co98 Co 0.0479 0.30735 1.00327 0.0
O99 O 0.08956 0.31651 1.01247 0.0
O100 O 0.06164 0.29171 0.96058 0.0
C101 C 0.04644 0.36031 0.02767 0.0
O102 O 1.00415 0.29614 0.98157 0.0
Co103 Co 1.01367 0.30759 0.06109 0.0
O104 O 0.98282 0.31561 0.02444 0.0
C105 C 1.03812 0.24901 0.04696 0.0
C106 C 0.08759 0.30383 0.97916 0.0
C107 C 0.98239 0.30557 0.99156 0.0
O108 O 0.04685 0.26209 1.02068 0.0
O109 O 1.02463 0.2637 0.06763 0.0
O110 O 0.04941 0.35286 0.99483 0.0
O111 O 0.04588 0.33591 0.04628 0.0
Co112 Co 0.4563 0.10506 0.35163 0.0
O113 O 0.45995 0.15669 0.35702 0.0
O114 O 0.41992 0.12232 0.33634 0.0
C115 C 0.48455 0.10278 0.41002 0.0
O116 O 0.43588 0.0527 0.34585 0.0
Co117 Co 0.49941 0.0597 0.35472 0.0
O118 O 0.46783 1.02094 0.35643 0.0
C119 C 0.49119 0.08907 0.28814 0.0
C120 C 0.4324 0.15387 0.34605 0.0
C121 C 0.44185 1.02365 0.35035 0.0
O122 O 0.4696 0.10068 0.29907 0.0
O123 O 0.50643 0.07431 0.30851 0.0
O124 O 0.4587 0.10814 0.4062 0.0
O125 O 0.49268 0.10075 0.37968 0.0
Co126 Co 0.29918 0.21021 0.57245 0.0
O127 O 0.34093 0.21854 0.57909 0.0
O128 O 0.31255 0.17064 0.58298 0.0
C129 C 0.29463 0.23525 0.52262 0.0
O130 O 0.25597 0.18952 0.5672 0.0
Co131 Co 0.26209 0.26234 0.57042 0.0
O132 O 0.22725 0.22529 0.55998 0.0
C133 C 0.2952 0.25323 0.63998 0.0
C134 C 0.33847 0.18762 0.58433 0.0
C135 C 0.23074 0.19592 0.56269 0.0
O136 O 0.3023 0.22723 0.62499 0.0
O137 O 0.28125 0.27128 0.62244 0.0
O138 O 0.29647 0.204 0.52017 0.0
O139 O 0.29504 0.25002 0.55448 0.0
Co140 Co 0.19392 0.10725 0.89393 0.0
O141 O 0.17895 0.05904 0.8818 0.0
O142 O 0.22159 0.08713 0.87538 0.0
C143 C 0.1805 0.11189 0.94811 0.0
O144 O 0.21914 0.1546 0.90366 0.0
Co145 Co 0.15975 0.15921 0.90326 0.0
O146 O 0.19553 0.19504 0.91194 0.0
C147 C 0.15643 0.12517 0.83032 0.0
C148 C 0.20317 0.05877 0.87161 0.0
C149 C 0.21867 0.18575 0.90967 0.0
O150 O 0.17678 0.11196 0.84354 0.0
O151 O 0.14491 0.14364 0.85007 0.0
O152 O 0.20433 0.10349 0.94416 0.0
O153 O 0.16481 0.11684 0.91907 0.0
Co154 Co 0.26506 0.93973 0.02664 0.0
O155 O 0.23272 0.95822 0.03502 0.0
O156 O 0.27806 0.97721 0.06417 0.0
C157 C 0.25935 0.932 0.96684 0.0
O158 O 0.30409 0.93043 0.02738 0.0
Co159 Co 0.2615 0.86827 0.98814 0.0
O160 O 0.3044 0.88149 0.99511 0.0
C161 C 0.2508 0.87744 0.06101 0.0
C162 C 0.25156 0.97951 0.06036 0.0
C163 C 0.31746 0.90934 1.015 0.0
O164 O 0.2582 0.90938 0.06258 0.0
O165 O 0.24774 0.85651 0.03226 0.0
O166 O 0.26921 0.9621 0.98541 0.0
O167 O 0.2481 0.9095 0.98423 0.0
Co168 Co 0.37456 0.44808 0.1353 0.0
O169 O 0.33288 0.43668 0.1291 0.0
O170 O 0.36029 0.48594 0.15523 0.0
C171 C 0.37462 0.42646 0.07826 0.0
O172 O 0.41794 0.47124 0.14368 0.0
Co173 Co 0.41165 0.39603 0.12464 0.0
O174 O 0.44295 0.43477 0.12412 0.0
C175 C 0.38263 0.39935 0.18677 0.0
C176 C 0.33444 0.46741 0.14338 0.0
C177 C 0.44129 0.46453 0.1354 0.0
O178 O 0.37814 0.42857 0.18199 0.0
O179 O 0.39351 0.38194 0.16507 0.0
O180 O 0.3703 0.45641 0.0858 0.0
O181 O 0.37749 0.41019 0.10472 0.0
Co182 Co 0.9232 0.20802 0.19785 0.0
O183 O 0.95913 0.19608 0.19639 0.0
O184 O 0.92014 0.16275 0.20638 0.0
C185 C 0.91916 0.23115 0.14752 0.0
O186 O 0.88252 0.21097 0.19912 0.0
Co187 Co 0.91656 0.28516 0.20194 0.0
O188 O 0.87479 0.26299 0.19691 0.0
C189 C 0.94309 0.2586 0.25701 0.0
C190 C 0.94607 0.16631 0.20034 0.0
C191 C 0.8659 0.23156 0.19723 0.0
O192 O 0.93482 0.22674 0.25026 0.0
O193 O 0.95022 0.27263 0.23124 0.0
O194 O 0.91299 0.19871 0.14553 0.0
O195 O 0.93067 0.24822 0.17905 0.0
Co196 Co 0.21494 0.54533 0.38123 0.0
O197 O 0.21146 0.49372 0.37895 0.0
O198 O 0.24978 0.52588 0.37328 0.0
C199 C 0.19237 0.55596 0.43415 0.0
O200 O 0.23479 0.59748 0.38265 0.0
Co201 Co 0.17256 0.59174 0.3796 0.0
O202 O 0.20519 0.63186 0.38983 0.0
C203 C 0.17454 0.55308 0.30932 0.0
C204 C 0.23788 0.49509 0.37478 0.0
C205 C 0.22999 0.62785 0.38654 0.0
O206 O 0.19605 0.54111 0.32508 0.0
O207 O 0.16198 0.5716 0.32743 0.0
O208 O 0.21851 0.55148 0.4367 0.0
O209 O 0.18092 0.55347 0.40079 0.0
Co210 Co 0.87392 0.95067 0.63513 0.0
O211 O 0.83223 0.94007 0.62718 0.0
O212 O 0.85988 0.98984 0.65139 0.0
C213 C 0.87558 0.92583 0.57991 0.0
O214 O 0.91743 0.97301 0.64469 0.0
Co215 Co 0.91037 0.89788 0.63315 0.0
O216 O 0.94209 0.93481 0.62904 0.0
C217 C 0.88131 0.90811 0.69393 0.0
C218 C 0.83401 0.97129 0.63986 0.0
C219 C 0.94071 0.96515 0.63764 0.0
O220 O 0.8753 0.93492 0.68355 0.0
O221 O 0.89383 0.88901 0.67649 0.0
O222 O 0.87166 0.95616 0.58523 0.0
O223 O 0.87709 0.91077 0.60759 0.0
Co224 Co 0.98146 0.046 0.32833 0.0
O225 O 0.9954 0.09415 0.33604 0.0
O226 O 0.95156 0.06623 0.30799 0.0
C227 C 0.99935 0.04092 0.38529 0.0
O228 O 0.95747 0.99762 0.31751 0.0
Co229 Co 1.01912 0.99628 0.33308 0.0
O230 O 0.98473 0.9656 0.34201 0.0
C231 C 1.01513 1.03074 0.2704 0.0
C232 C 0.96979 0.09486 0.31988 0.0
C233 C 0.96015 0.97059 0.32987 0.0
O234 O 0.99504 0.04268 0.28134 0.0
O235 O 1.02861 1.01229 0.28791 0.0
O236 O 0.9748 0.0489 0.37686 0.0
O237 O 1.01323 0.03741 0.35936 0.0
Co238 Co 0.4104 0.71477 0.67298 0.0
O239 O 0.44004 0.70867 0.64769 0.0
O240 O 0.41739 0.67083 0.67604 0.0
C241 C 0.38413 0.73474 0.63044 0.0
O242 O 0.37753 0.7131 0.69915 0.0
Co243 Co 0.40017 0.79056 0.69017 0.0
O244 O 0.36448 0.76304 0.70155 0.0
C245 C 0.44372 0.76748 0.72542 0.0
C246 C 0.43506 0.67827 0.65461 0.0
C247 C 0.36012 0.73199 0.70522 0.0
O248 O 0.43848 0.73555 0.71896 0.0
O249 O 0.43988 0.78157 0.69802 0.0
O250 O 0.38238 0.70267 0.62784 0.0
O251 O 0.4041 0.75359 0.65562 0.0
Co252 Co 0.4803 0.54588 0.83143 0.0
O253 O 0.49277 0.59426 0.84016 0.0
O254 O 0.44955 0.56498 0.81155 0.0
C255 C 0.49836 0.54057 0.88823 0.0
O256 O 0.45746 0.49717 0.81935 0.0
Co257 Co 0.51905 0.4972 0.8364 0.0
O258 O 0.48481 0.46544 0.84416 0.0
C259 C 0.51441 0.53199 0.77375 0.0
C260 C 0.4668 0.59407 0.82442 0.0
C261 C 0.46024 0.47004 0.83129 0.0
O262 O 0.49433 0.54394 0.78474 0.0
O263 O 0.52797 0.51355 0.7912 0.0
O264 O 0.47336 0.54744 0.87981 0.0
O265 O 0.51241 0.53795 0.86238 0.0
Co266 Co 0.71545 0.04434 0.88053 0.0
O267 O 0.71219 0.99271 0.87813 0.0
O268 O 0.7504 1.02506 0.87253 0.0
C269 C 0.69279 0.05504 0.93333 0.0
O270 O 0.73526 0.09639 0.88232 0.0
Co271 Co 0.67294 0.09086 0.87912 0.0
O272 O 0.70578 0.1308 0.89025 0.0
C273 C 0.67513 0.05264 0.80868 0.0
C274 C 0.73864 0.99422 0.87399 0.0
C275 C 0.73054 0.12674 0.88681 0.0
O276 O 0.69657 0.04045 0.82436 0.0
O277 O 0.66259 0.0711 0.82689 0.0
O278 O 0.71889 0.05041 0.93599 0.0
O279 O 0.68142 0.05251 0.89996 0.0
Co280 Co 0.80011 0.71162 0.07322 0.0
O281 O 0.84185 0.71952 0.07951 0.0
O282 O 0.81328 0.67189 0.08373 0.0
C283 C 0.79541 0.7365 0.02324 0.0
O284 O 0.75684 0.69136 0.06837 0.0
Co285 Co 0.76351 0.76432 0.0714 0.0
O286 O 0.72848 0.72756 0.06145 0.0
C287 C 0.79657 0.75493 0.14086 0.0
C288 C 0.83924 0.6886 0.08481 0.0
C289 C 0.73173 0.6981 0.06415 0.0
O290 O 0.80355 0.72886 0.12581 0.0
O291 O 0.78271 0.7731 0.12339 0.0
O292 O 0.79711 0.70521 0.02087 0.0
O293 O 0.79613 0.75144 0.05512 0.0
Co294 Co 0.95545 0.60366 0.85242 0.0
O295 O 0.95896 0.65526 0.85774 0.0
O296 O 0.91897 0.62079 0.83723 0.0
C297 C 0.98415 0.60132 0.91061 0.0
O298 O 0.93488 0.55146 0.84685 0.0
Co299 Co 0.99824 0.55789 0.85501 0.0
O300 O 0.96658 0.51938 0.85723 0.0
C301 C 0.98983 0.58736 0.78852 0.0
C302 C 0.93139 0.65235 0.84679 0.0
C303 C 0.94068 0.52236 0.85139 0.0
O304 O 0.96839 0.59914 0.79968 0.0
O305 O 1.00505 0.57246 0.80872 0.0
O306 O 0.95834 0.60682 0.90712 0.0
O307 O 0.99196 0.59917 0.88008 0.0
Co308 Co 0.76235 0.44223 0.52141 0.0
O309 O 0.73004 0.46088 0.5294 0.0
O310 O 0.77574 0.4819 0.55623 0.0
C311 C 0.75444 0.43029 0.46141 0.0
O312 O 0.80136 0.43297 0.52169 0.0
Co313 Co 0.75886 0.36923 0.48737 0.0
O314 O 0.80161 0.3826 0.49248 0.0
C315 C 0.74976 0.38316 0.56079 0.0
C316 C 0.74911 0.48365 0.55301 0.0
C317 C 0.8147 0.41136 0.51038 0.0
O318 O 0.75721 0.41481 0.56042 0.0
O319 O 0.74593 0.36085 0.53295 0.0
O320 O 0.76477 0.46121 0.47761 0.0
O321 O 0.74451 0.4095 0.48132 0.0
Co322 Co 0.6899 0.60908 0.39728 0.0
O323 O 0.6718 0.56165 0.38855 0.0
O324 O 0.71461 0.58437 0.37784 0.0
C325 C 0.67948 0.61745 0.45293 0.0
O326 O 0.71758 0.65485 0.4036 0.0
Co327 Co 0.65981 0.66435 0.40608 0.0
O328 O 0.69692 0.69768 0.41389 0.0
C329 C 0.65324 0.62809 0.33346 0.0
C330 C 0.69482 0.55776 0.37709 0.0
C331 C 0.71891 0.6865 0.40983 0.0
O332 O 0.67173 0.61253 0.34692 0.0
O333 O 0.64393 0.64925 0.35297 0.0
O334 O 0.70225 0.60727 0.44747 0.0
O335 O 0.66308 0.62254 0.42447 0.0
Tb336 Tb 0.07206 0.05087 0.08213 0.0
Tb337 Tb 0.11714 0.09945 0.13579 0.0
C338 C 1.02264 1.01841 0.05216 0.0
C339 C 0.99652 1.02587 0.06327 0.0
C340 C 0.98708 1.01166 0.09205 0.0
C341 C 0.97461 1.02971 0.11587 0.0
C342 C 0.97081 0.06155 0.11041 0.0
C343 C 0.97526 0.07273 0.07823 0.0
C344 C 0.98777 0.05481 0.05454 0.0
C345 C 0.12008 0.07011 0.05838 0.0
C346 C 0.073 0.12989 0.0907 0.0
C347 C 0.16468 0.13215 0.17264 0.0
C348 C 0.19026 0.11914 0.18358 0.0
C349 C 0.21446 0.13073 0.16918 0.0
C350 C 0.23067 0.10837 0.15854 0.0
C351 C 0.22289 0.07463 0.16289 0.0
C352 C 0.20267 0.06526 0.18409 0.0
C353 C 0.18662 0.08769 0.19491 0.0
C354 C 0.06836 0.08007 0.15782 0.0
C355 C 0.116 1.01989 0.12887 0.0
O356 O 1.03919 1.00782 0.07663 0.0
O357 O 1.03764 0.04143 0.03776 0.0
O358 O 0.10878 0.08784 0.07838 0.0
O359 O 0.10264 0.04076 0.04854 0.0
O360 O 0.05677 0.0987 0.08336 0.0
O361 O 0.09968 0.13606 0.10867 0.0
O362 O 0.1575 0.13011 0.13779 0.0
O363 O 0.14238 0.1217 0.18674 0.0
O364 O 0.08054 0.06246 0.13905 0.0
O365 O 0.08426 0.11046 0.16551 0.0
O366 O 0.13057 0.05139 0.1414 0.0
O367 O 0.09143 1.01339 0.10557 0.0
H368 H 0.99288 0.98893 0.09901 0.0
H369 H 0.97085 1.02046 0.14031 0.0
H370 H 0.9716 0.09692 0.07313 0.0
H371 H 0.99396 0.06602 0.03209 0.0
H372 H 0.21792 0.15511 0.16075 0.0
H373 H 0.24655 0.11633 0.14272 0.0
H374 H 0.19703 0.03957 0.18869 0.0
H375 H 0.16865 0.07849 0.20717 0.0
Tb376 Tb 0.34151 0.81007 0.33263 0.0
Tb377 Tb 0.32622 0.84102 0.39383 0.0
C378 C 0.34522 0.79507 0.26836 0.0
C379 C 0.33224 0.80922 0.23851 0.0
C380 C 0.32007 0.8366 0.24639 0.0
C381 C 0.30206 0.8464 0.21966 0.0
C382 C 0.29633 0.82947 0.18418 0.0
C383 C 0.30956 0.80275 0.17603 0.0
C384 C 0.32716 0.79242 0.2032 0.0
C385 C 0.37671 0.80393 0.3914 0.0
C386 C 0.36485 0.89165 0.35736 0.0
C387 C 0.31689 0.85506 0.45569 0.0
C388 C 0.31494 0.83322 0.48267 0.0
C389 C 0.32611 0.80453 0.47856 0.0
C390 C 0.32574 0.78376 0.50416 0.0
C391 C 0.3153 0.79203 0.53524 0.0
C392 C 0.30326 0.82023 0.53908 0.0
C393 C 0.30274 0.84061 0.51249 0.0
C394 C 0.29307 0.84849 0.33413 0.0
C395 C 0.30415 0.75935 0.37095 0.0
O396 O 0.32617 0.77796 0.28331 0.0
O397 O 0.36568 0.8159 0.29217 0.0
O398 O 0.36636 0.82923 0.38631 0.0
O399 O 0.36885 0.7825 0.36192 0.0
O400 O 0.36 0.86487 0.3317 0.0
O401 O 0.35457 0.88795 0.38686 0.0
O402 O 0.34233 0.86273 0.4477 0.0
O403 O 0.29649 0.84549 0.42706 0.0
O404 O 0.30169 0.82222 0.33994 0.0
O405 O 0.30256 0.87095 0.36271 0.0
O406 O 0.30818 0.78654 0.39561 0.0
O407 O 0.31448 0.76275 0.34147 0.0
H408 H 0.32307 0.84928 0.27368 0.0
H409 H 0.29196 0.8666 0.22723 0.0
H410 H 0.30629 0.78973 0.14877 0.0
H411 H 0.33609 0.77088 0.19685 0.0
H412 H 0.33662 0.79905 0.45651 0.0
H413 H 0.3361 0.76292 0.50114 0.0
H414 H 0.29569 0.82733 0.56332 0.0
H415 H 0.29403 0.86273 0.51591 0.0
Tb416 Tb 0.61115 0.07675 0.59238 0.0
Tb417 Tb 0.55523 0.07101 0.62373 0.0
C418 C 0.66264 0.07648 0.58876 0.0
C419 C 0.68548 0.05836 0.60035 0.0
C420 C 0.70557 0.07026 0.63289 0.0
C421 C 0.72882 0.05532 0.64191 0.0
C422 C 0.73273 1.02807 0.61862 0.0
C423 C 0.71231 1.01584 0.58639 0.0
C424 C 0.68914 1.03081 0.57735 0.0
C425 C 0.56739 0.08626 0.5413 0.0
C426 C 0.56969 1.00461 0.58788 0.0
C427 C 0.50421 0.07191 0.62891 0.0
C428 C 0.48184 0.09101 0.61922 0.0
C429 C 0.45514 0.07394 0.59777 0.0
C430 C 0.43261 0.09031 0.59112 0.0
C431 C 0.43604 0.12429 0.60593 0.0
C432 C 0.46311 0.14167 0.62659 0.0
C433 C 0.48571 0.12525 0.6332 0.0
C434 C 0.59898 0.05952 0.67331 0.0
C435 C 0.59701 0.14332 0.62875 0.0
O436 O 0.65525 0.09598 0.61361 0.0
O437 O 0.64042 0.05997 0.56396 0.0
O438 O 0.56721 0.08068 0.57354 0.0
O439 O 0.59382 0.08712 0.53829 0.0
O440 O 0.59546 1.02243 0.58669 0.0
O441 O 0.54974 1.01841 0.59942 0.0
O442 O 0.5109 0.05341 0.60259 0.0
O443 O 0.52677 0.08705 0.65389 0.0
O444 O 0.59885 0.06682 0.6418 0.0
O445 O 0.57251 0.05767 0.67671 0.0
O446 O 0.5714 0.1258 0.63108 0.0
O447 O 0.61634 0.12904 0.61631 0.0
H448 H 0.70369 0.09163 0.65116 0.0
H449 H 0.74383 0.06527 0.66712 0.0
H450 H 0.71472 0.99532 0.56741 0.0
H451 H 0.67446 1.02125 0.5518 0.0
H452 H 0.45147 0.04757 0.58668 0.0
H453 H 0.41236 0.07617 0.57449 0.0
H454 H 0.46661 0.16773 0.63869 0.0
H455 H 0.50597 0.13923 0.64995 0.0
Tb456 Tb 0.31124 0.33908 0.85983 0.0
Tb457 Tb 0.36605 0.31054 0.86919 0.0
C458 C 0.26254 0.35109 0.86362 0.0
C459 C 0.23821 0.34113 0.88234 0.0
C460 C 0.21557 0.313 0.86725 0.0
C461 C 0.19175 0.30489 0.88346 0.0
C462 C 0.18956 0.32492 0.91505 0.0
C463 C 0.2123 0.35303 0.93017 0.0
C464 C 0.23622 0.36101 0.91406 0.0
C465 C 0.35706 0.37604 0.84257 0.0
C466 C 0.35236 0.35079 0.93598 0.0
C467 C 0.41433 0.29755 0.86488 0.0
C468 C 0.43701 0.30267 0.8431 0.0
C469 C 0.43946 0.32755 0.82111 0.0
C470 C 0.46283 0.33369 0.80353 0.0
C471 C 0.48427 0.31509 0.8076 0.0
C472 C 0.48108 0.28957 0.82886 0.0
C473 C 0.45784 0.28353 0.84637 0.0
C474 C 0.3211 0.27475 0.88905 0.0
C475 C 0.32491 0.30022 0.79284 0.0
O476 O 0.26676 0.32821 0.83947 0.0
O477 O 0.28685 0.3697 0.88279 0.0
O478 O 0.35638 0.35832 0.86676 0.0
O479 O 0.33079 0.37685 0.82938 0.0
O480 O 0.32559 0.34534 0.91791 0.0
O481 O 0.37319 0.34198 0.9214 0.0
O482 O 0.41099 0.32433 0.88434 0.0
O483 O 0.38968 0.27686 0.84996 0.0
O484 O 0.32079 0.29131 0.86365 0.0
O485 O 0.34757 0.27406 0.90133 0.0
O486 O 0.35168 0.30496 0.81075 0.0
O487 O 0.30415 0.30736 0.80849 0.0
H488 H 0.21612 0.29722 0.84264 0.0
H489 H 0.17505 0.28279 0.87115 0.0
H490 H 0.21134 0.36956 0.95403 0.0
H491 H 0.25293 0.3832 0.92614 0.0
H492 H 0.42364 0.34263 0.81805 0.0
H493 H 0.4645 0.35366 0.78762 0.0
H494 H 0.49668 0.27421 0.83216 0.0
H495 H 0.45643 0.26417 0.8631 0.0
Tb496 Tb 0.07812 0.1161 0.6078 0.0
Tb497 Tb 0.0964 0.04554 0.60083 0.0
C498 C 0.07403 0.17285 0.59603 0.0
C499 C 0.0573 0.18019 0.56362 0.0
C500 C 0.05785 0.16356 0.52939 0.0
C501 C 1.04007 0.16848 0.49887 0.0
C502 C 1.02189 0.19072 0.50191 0.0
C503 C 1.02071 0.20627 0.53651 0.0
C504 C 1.03817 0.20093 0.56698 0.0
C505 C 1.03869 0.06802 0.62397 0.0
C506 C 0.05797 0.0628 0.53385 0.0
C507 C 0.10074 0.98747 0.60811 0.0
C508 C 0.10923 0.97491 0.64123 0.0
C509 C 0.10556 0.9911 0.67406 0.0
C510 C 0.11854 0.98351 0.70638 0.0
C511 C 0.13481 0.95897 0.70633 0.0
C512 C 0.13792 0.94246 0.67313 0.0
C513 C 0.12548 0.95063 0.64094 0.0
C514 C 0.13503 0.09389 0.58347 0.0
C515 C 0.11346 0.09775 0.67587 0.0
O516 O 0.09636 0.16073 0.59168 0.0
O517 O 0.05858 0.15659 0.61599 0.0
O518 O 0.06236 0.06612 0.61502 0.0
O519 O 1.03705 0.09902 0.62446 0.0
O520 O 0.05914 0.09286 0.55207 0.0
O521 O 0.07018 0.03991 0.54744 0.0
O522 O 0.07606 0.99622 0.60351 0.0
O523 O 0.12136 1.00987 0.60103 0.0
O524 O 0.11162 0.09528 0.59311 0.0
O525 O 0.13702 0.06307 0.583 0.0
O526 O 0.11046 0.06674 0.65845 0.0
O527 O 0.10506 0.12208 0.66039 0.0
H528 H 0.07223 0.14701 0.52603 0.0
H529 H 1.04153 0.15611 0.47279 0.0
H530 H 1.00758 0.22425 0.54018 0.0
H531 H 1.03702 0.21338 0.59319 0.0
H532 H 0.09305 1.01 0.67481 0.0
H533 H 0.1156 0.99663 0.73132 0.0
H534 H 0.14935 0.9225 0.67176 0.0
H535 H 0.12886 0.93831 0.61581 0.0
Tb536 Tb 0.35006 0.81764 0.86644 0.0
Tb537 Tb 0.34741 0.87506 0.82358 0.0
C538 C 0.35342 0.76095 0.88075 0.0
C539 C 0.37368 0.73979 0.87546 0.0
C540 C 0.36321 0.70496 0.86757 0.0
C541 C 0.38066 0.68432 0.85671 0.0
C542 C 0.40893 0.69818 0.85353 0.0
C543 C 0.41975 0.73309 0.86252 0.0
C544 C 0.40212 0.75383 0.87315 0.0
C545 C 0.33195 0.86853 0.89681 0.0
C546 C 0.40457 0.87723 0.87822 0.0
C547 C 0.33948 0.92965 0.80773 0.0
C548 C 0.314 0.9429 0.81086 0.0
C549 C 0.29331 0.9261 0.82799 0.0
C550 C 0.26963 0.93891 0.83317 0.0
C551 C 0.26633 0.96909 0.82163 0.0
C552 C 0.28679 0.98553 0.80369 0.0
C553 C 0.31048 0.97246 0.79829 0.0
C554 C 0.36791 0.82523 0.79409 0.0
C555 C 0.29205 0.81631 0.81309 0.0
O556 O 0.33863 0.76569 0.85068 0.0
O557 O 0.36284 0.78853 0.90465 0.0
O558 O 0.32775 0.8566 0.86432 0.0
O559 O 0.34282 0.84759 0.91438 0.0
O560 O 0.39507 0.84457 0.87755 0.0
O561 O 0.38845 0.8953 0.86179 0.0
O562 O 0.35465 0.92708 0.8386 0.0
O563 O 0.335 0.90258 0.78359 0.0
O564 O 0.37022 0.83649 0.82636 0.0
O565 O 0.35673 0.84594 0.77645 0.0
O566 O 0.3026 0.84811 0.81147 0.0
O567 O 0.30781 0.79832 0.83018 0.0
H568 H 0.3412 0.6938 0.86874 0.0
H569 H 0.37196 0.65742 0.85061 0.0
H570 H 0.44145 0.74434 0.86023 0.0
H571 H 0.41036 0.78081 0.87838 0.0
H572 H 0.29584 0.90349 0.83831 0.0
H573 H 0.25427 0.92556 0.84693 0.0
H574 H 0.28518 1.00923 0.79511 0.0
H575 H 0.32633 0.98582 0.78519 0.0
Tb576 Tb 0.56126 0.07331 0.07551 0.0
Tb577 Tb 0.61423 0.08849 0.13669 0.0
C578 C 0.51804 0.03702 0.0325 0.0
C579 C 0.48892 1.01853 0.03265 0.0
C580 C 0.48163 1.00886 0.06435 0.0
C581 C 0.45514 0.98741 0.06325 0.0
C582 C 0.4355 0.97539 0.03046 0.0
C583 C 0.44271 0.9857 0.99891 0.0
C584 C 0.46931 1.00698 0.99999 0.0
C585 C 0.58035 0.13619 0.10445 0.0
C586 C 0.55206 0.07852 0.16118 0.0
C587 C 0.65733 0.12544 0.17906 0.0
C588 C 0.688 0.13943 0.18228 0.0
C589 C 0.70169 0.16665 0.20961 0.0
C590 C 0.73034 0.18257 0.21175 0.0
C591 C 0.74569 0.17139 0.18654 0.0
C592 C 0.73181 0.14398 0.15913 0.0
C593 C 0.7031 0.12815 0.15695 0.0
C594 C 0.59506 1.02545 0.1061 0.0
C595 C 0.62408 0.08299 0.05151 0.0
O596 O 0.53845 1.02555 0.05035 0.0
O597 O 0.52334 0.06998 0.03773 0.0
O598 O 0.58003 0.11077 0.11939 0.0
O599 O 0.56742 0.12676 0.07075 0.0
O600 O 0.54022 0.07049 0.12552 0.0
O601 O 0.58083 0.08626 0.1711 0.0
O602 O 0.64054 0.13628 0.15484 0.0
O603 O 0.64893 0.09307 0.17941 0.0
O604 O 0.59523 0.05168 0.09297 0.0
O605 O 0.6091 1.03408 0.13942 0.0
O606 O 0.63561 0.08887 0.08719 0.0
O607 O 0.59531 0.07778 0.04123 0.0
H608 H 0.49669 1.01716 0.08977 0.0
H609 H 0.45015 0.97989 0.088 0.0
H610 H 0.42765 0.97767 0.97348 0.0
H611 H 0.47477 1.01395 0.97523 0.0
H612 H 0.69009 0.17587 0.22909 0.0
H613 H 0.74055 0.20336 0.23333 0.0
H614 H 0.74306 0.13509 0.13909 0.0
H615 H 0.69259 0.10752 0.13531 0.0
Tb616 Tb 0.30839 0.29965 0.33684 0.0
Tb617 Tb 0.36032 0.34743 0.37793 0.0
C618 C 0.2575 0.26628 0.32199 0.0
C619 C 0.23315 0.27503 0.33606 0.0
C620 C 0.2383 0.29432 0.37042 0.0
C621 C 0.21596 0.30425 0.38393 0.0
C622 C 0.18786 0.29506 0.3635 0.0
C623 C 0.18265 0.2761 0.32884 0.0
C624 C 0.20523 0.2661 0.3152 0.0
C625 C 0.34105 0.3293 0.29675 0.0
C626 C 0.30442 0.37917 0.36713 0.0
C627 C 0.4122 0.3765 0.38886 0.0
C628 C 0.43408 0.36129 0.3747 0.0
C629 C 0.42596 0.33982 0.34136 0.0
C630 C 0.44464 0.32183 0.32887 0.0
C631 C 0.47275 0.32589 0.34837 0.0
C632 C 0.48111 0.34777 0.38174 0.0
C633 C 0.46179 0.365 0.39498 0.0
C634 C 0.32768 0.3168 0.41765 0.0
C635 C 0.36424 0.26772 0.34945 0.0
O636 O 0.27744 0.26007 0.3461 0.0
O637 O 0.26832 0.28608 0.30113 0.0
O638 O 0.33563 0.34248 0.32552 0.0
O639 O 0.32649 0.29828 0.28831 0.0
O640 O 0.29116 0.34667 0.35377 0.0
O641 O 0.33316 0.38616 0.37781 0.0
O642 O 0.39264 0.38282 0.36428 0.0
O643 O 0.40078 0.36186 0.41314 0.0
O644 O 0.33324 0.3045 0.38863 0.0
O645 O 0.34257 0.34779 0.4271 0.0
O646 O 0.37714 0.29975 0.36438 0.0
O647 O 0.33579 0.26107 0.33677 0.0
H648 H 0.25974 0.302 0.38688 0.0
H649 H 0.22078 0.31947 0.41036 0.0
H650 H 0.16114 0.26868 0.31257 0.0
H651 H 0.20095 0.25156 0.28847 0.0
H652 H 0.40468 0.33609 0.32508 0.0
H653 H 0.43672 0.30454 0.30378 0.0
H654 H 0.50267 0.35209 0.39743 0.0
H655 H 0.46848 0.38115 0.42093 0.0
Tb656 Tb 0.57791 0.61857 0.10966 0.0
Tb657 Tb 0.59713 0.54873 0.10353 0.0
C658 C 0.57273 0.67472 0.09681 0.0
C659 C 0.5541 0.6814 0.06548 0.0
C660 C 0.55281 0.66433 0.0308 0.0
C661 C 0.53415 0.66966 1.00131 0.0
C662 C 0.51697 0.69283 1.00578 0.0
C663 C 0.51737 0.70856 0.0409 0.0
C664 C 0.53569 0.70279 0.0704 0.0
C665 C 0.53861 0.56996 0.12531 0.0
C666 C 0.55815 0.56455 0.03625 0.0
C667 C 0.60224 0.49109 0.11146 0.0
C668 C 0.60823 0.47801 0.14479 0.0
C669 C 0.60223 0.49376 0.17641 0.0
C670 C 0.61322 0.48605 0.20958 0.0
C671 C 0.62983 0.46192 0.2115 0.0
C672 C 0.63528 0.44584 0.17945 0.0
C673 C 0.62478 0.45408 0.14646 0.0
C674 C 0.63565 0.59717 0.08614 0.0
C675 C 0.61249 0.60091 0.17846 0.0
O676 O 0.59422 0.66193 0.09008 0.0
O677 O 0.55918 0.65962 0.11922 0.0
O678 O 0.56255 0.56857 0.11695 0.0
O679 O 0.53652 0.60079 0.12544 0.0
O680 O 0.5586 0.5944 0.05433 0.0
O681 O 0.57125 0.54236 0.04989 0.0
O682 O 0.57718 0.49856 0.1033 0.0
O683 O 0.62347 0.51474 0.1078 0.0
O684 O 0.61221 0.59863 0.09577 0.0
O685 O 0.63754 0.56632 0.08546 0.0
O686 O 0.60939 0.5698 0.16127 0.0
O687 O 0.60479 0.6253 0.16244 0.0
H688 H 0.56662 0.64735 0.02617 0.0
H689 H 0.53434 0.65704 0.9748 0.0
H690 H 0.50498 0.72716 0.04564 0.0
H691 H 0.53597 0.71565 0.09699 0.0
H692 H 0.58955 0.5125 0.1756 0.0
H693 H 0.60848 0.49875 0.23361 0.0
H694 H 0.64705 0.42618 0.17956 0.0
H695 H 0.62998 0.44217 0.12232 0.0
Tb696 Tb 0.8443 0.31336 0.36058 0.0
Tb697 Tb 0.84618 0.38156 0.33593 0.0
C698 C 0.85338 0.25729 0.37044 0.0
C699 C 0.87425 0.2379 0.3617 0.0
C700 C 0.90381 0.25248 0.36728 0.0
C701 C 0.92265 0.23348 0.35641 0.0
C702 C 0.91208 0.19984 0.3395 0.0
C703 C 0.88248 0.18554 0.3342 0.0
C704 C 0.86381 0.20438 0.34518 0.0
C705 C 0.82234 0.35516 0.39929 0.0
C706 C 0.90191 0.37144 0.37923 0.0
C707 C 0.83357 0.43513 0.3238 0.0
C708 C 0.80749 0.44693 0.32824 0.0
C709 C 0.80937 0.47307 0.35633 0.0
C710 C 0.78465 0.48221 0.36375 0.0
C711 C 0.75757 0.46571 0.3429 0.0
C712 C 0.75553 0.43994 0.31436 0.0
C713 C 0.78032 0.43037 0.30725 0.0
C714 C 0.86864 0.3397 0.29807 0.0
C715 C 0.78768 0.32542 0.32086 0.0
O716 O 0.83577 0.26175 0.34253 0.0
O717 O 0.86278 0.28436 0.39498 0.0
O718 O 0.84342 0.36253 0.38443 0.0
O719 O 0.81524 0.32279 0.3966 0.0
O720 O 0.88998 0.33877 0.37183 0.0
O721 O 0.88728 0.39439 0.37244 0.0
O722 O 0.84988 0.43253 0.35385 0.0
O723 O 0.83044 0.40945 0.2983 0.0
O724 O 0.84703 0.33234 0.31209 0.0
O725 O 0.87636 0.37214 0.30167 0.0
O726 O 0.8007 0.35757 0.32649 0.0
O727 O 0.80173 0.3018 0.32686 0.0
H728 H 0.91229 0.27856 0.3795 0.0
H729 H 0.94534 0.24517 0.36079 0.0
H730 H 0.8737 0.15946 0.32217 0.0
H731 H 0.84107 0.19277 0.34053 0.0
H732 H 0.82998 0.48606 0.37302 0.0
H733 H 0.78675 0.50274 0.3854 0.0
H734 H 0.73483 0.42724 0.29772 0.0
H735 H 0.7781 0.40981 0.28562 0.0
Tb736 Tb 0.06032 0.57156 0.57632 0.0
Tb737 Tb 0.11301 0.58542 0.63778 0.0
C738 C 1.01734 0.53594 0.5323 0.0
C739 C 0.98782 0.51794 0.53117 0.0
C740 C 0.96927 0.50562 0.49782 0.0
C741 C 0.9423 0.48473 0.49578 0.0
C742 C 0.93363 0.47562 0.5271 0.0
C743 C 0.95234 0.48821 0.56052 0.0
C744 C 0.97918 0.50928 0.56255 0.0
C745 C 0.07997 0.6342 0.60594 0.0
C746 C 0.05036 0.57651 0.66143 0.0
C747 C 0.15541 0.61982 0.68314 0.0
C748 C 0.18652 0.63262 0.69199 0.0
C749 C 0.19788 0.65947 0.72044 0.0
C750 C 0.22708 0.67473 0.72787 0.0
C751 C 0.24535 0.66322 0.70696 0.0
C752 C 0.23402 0.63556 0.67907 0.0
C753 C 0.20467 0.62041 0.67148 0.0
C754 C 0.09339 0.52269 0.60606 0.0
C755 C 0.1235 0.5812 0.553 0.0
O756 O 1.03698 0.52405 0.55109 0.0
O757 O 1.02314 0.56894 0.53753 0.0
O758 O 0.07933 0.60863 0.6207 0.0
O759 O 0.06703 0.62511 0.57222 0.0
O760 O 1.03865 0.56866 0.62577 0.0
O761 O 0.0791 0.58398 0.67145 0.0
O762 O 0.14153 0.63181 0.6571 0.0
O763 O 0.14523 0.58763 0.68261 0.0
O764 O 0.09387 0.54922 0.59353 0.0
O765 O 0.1074 0.53076 0.63936 0.0
O766 O 0.13493 0.5867 0.58873 0.0
O767 O 0.09475 0.57613 0.54259 0.0
H768 H 0.97584 0.51171 0.4733 0.0
H769 H 0.92807 0.47613 0.4698 0.0
H770 H 0.94636 0.4815 0.58511 0.0
H771 H 0.99345 0.51808 0.58849 0.0
H772 H 0.18399 0.66921 0.73638 0.0
H773 H 0.23531 0.69583 0.7496 0.0
H774 H 0.24766 0.62653 0.66228 0.0
H775 H 0.19605 0.59987 0.64919 0.0
Tb776 Tb 0.81219 0.83875 0.36168 0.0
Tb777 Tb 0.8674 0.81075 0.37014 0.0
C778 C 0.76322 0.84999 0.36557 0.0
C779 C 0.73887 0.84031 0.38442 0.0
C780 C 0.71595 0.81252 0.36916 0.0
C781 C 0.69201 0.80475 0.38527 0.0
C782 C 0.68996 0.82477 0.41695 0.0
C783 C 0.71301 0.85252 0.43226 0.0
C784 C 0.73705 0.86017 0.41624 0.0
C785 C 0.85772 0.87669 0.34476 0.0
C786 C 0.85318 0.84875 0.43795 0.0
C787 C 0.91589 0.79862 0.36538 0.0
C788 C 0.93826 0.80343 0.34311 0.0
C789 C 0.94076 0.8284 0.32122 0.0
C790 C 0.96387 0.83417 0.30316 0.0
C791 C 0.98503 0.81515 0.30665 0.0
C792 C 0.98181 0.78958 0.32785 0.0
C793 C 0.95881 0.78388 0.34581 0.0
C794 C 0.82251 0.77377 0.389 0.0
C795 C 0.82619 0.80131 0.29388 0.0
O796 O 0.7676 0.82676 0.34195 0.0
O797 O 0.78746 0.86913 0.38437 0.0
O798 O 0.85737 0.85858 0.36871 0.0
O799 O 0.83134 0.87718 0.33176 0.0
O800 O 0.82651 0.84386 0.41969 0.0
O801 O 0.87414 0.84041 0.42329 0.0
O802 O 0.91235 0.82561 0.38426 0.0
O803 O 0.89137 0.77732 0.35126 0.0
O804 O 0.82221 0.79112 0.36426 0.0
O805 O 0.84899 0.77299 0.40108 0.0
O806 O 0.85292 0.80573 0.31179 0.0
O807 O 0.8054 0.80828 0.30961 0.0
H808 H 0.71635 0.79676 0.34448 0.0
H809 H 0.67509 0.7829 0.37279 0.0
H810 H 0.71221 0.86904 0.4562 0.0
H811 H 0.75396 0.88212 0.42846 0.0
H812 H 0.92519 0.84384 0.31863 0.0
H813 H 0.96558 0.8542 0.28731 0.0
H814 H 0.99719 0.77391 0.33073 0.0
H815 H 0.95738 0.76445 0.36246 0.0
Tb816 Tb 0.83991 0.30968 0.833 0.0
Tb817 Tb 0.82852 0.33957 0.8993 0.0
C818 C 0.83972 0.29574 0.76732 0.0
C819 C 0.82724 0.31122 0.73826 0.0
C820 C 0.81725 0.34023 0.74681 0.0
C821 C 0.80018 0.35178 0.72048 0.0
C822 C 0.79314 0.33477 0.68494 0.0
C823 C 0.8041 0.30631 0.6762 0.0
C824 C 0.82086 0.29444 0.70282 0.0
C825 C 0.87731 0.30233 0.88901 0.0
C826 C 0.86358 0.39096 0.8593 0.0
C827 C 0.82858 0.35139 0.96516 0.0
C828 C 0.83762 0.33149 0.99212 0.0
C829 C 0.84856 0.3037 0.98134 0.0
C830 C 0.8603 0.28631 1.00654 0.0
C831 C 0.86159 0.29657 0.04316 0.0
C832 C 0.85015 0.32408 0.05407 0.0
C833 C 0.83816 0.34147 0.02857 0.0
C834 C 0.79198 0.34818 0.843 0.0
C835 C 0.80511 0.25828 0.87337 0.0
O836 O 0.82055 0.28003 0.78316 0.0
O837 O 0.86179 0.31483 0.79036 0.0
O838 O 0.86662 0.32753 0.8854 0.0
O839 O 0.8689 0.28156 0.859 0.0
O840 O 0.8577 0.36464 0.83289 0.0
O841 O 0.85498 0.38682 0.88983 0.0
O842 O 0.84943 0.36534 0.95054 0.0
O843 O 0.80547 0.33664 0.94109 0.0
O844 O 0.80185 0.32232 0.84652 0.0
O845 O 0.80058 0.36878 0.87321 0.0
O846 O 0.81063 0.28475 0.8994 0.0
O847 O 0.81369 0.26235 0.84286 0.0
H848 H 0.82128 0.35297 0.77425 0.0
H849 H 0.79184 0.37346 0.72826 0.0
H850 H 0.79972 0.29315 0.64884 0.0
H851 H 0.82813 0.27173 0.69597 0.0
H852 H 0.84926 0.29628 0.9535 0.0
H853 H 0.86949 0.2657 0.99745 0.0
H854 H 0.85086 0.33236 0.08226 0.0
H855 H 0.83009 0.36311 0.03733 0.0
Tb856 Tb 0.80616 0.79765 0.83711 0.0
Tb857 Tb 0.8626 0.84724 0.87944 0.0
C858 C 0.75679 0.76127 0.8297 0.0
C859 C 0.73255 0.76967 0.84453 0.0
C860 C 0.738 0.79141 0.87748 0.0
C861 C 0.71559 0.80163 0.89077 0.0
C862 C 0.68718 0.79049 0.87138 0.0
C863 C 0.68169 0.76888 0.83823 0.0
C864 C 0.70426 0.7585 0.82492 0.0
C865 C 0.83357 0.83171 0.79375 0.0
C866 C 0.80534 0.87823 0.8663 0.0
C867 C 0.91508 0.87436 0.89054 0.0
C868 C 0.93761 0.85932 0.87779 0.0
C869 C 0.92986 0.83398 0.84744 0.0
C870 C 0.95013 0.8183 0.8354 0.0
C871 C 0.97911 0.8279 0.85286 0.0
C872 C 0.98701 0.85297 0.88375 0.0
C873 C 0.96636 0.86846 0.89619 0.0
C874 C 0.82811 0.81806 0.91815 0.0
C875 C 0.86329 0.76629 0.84985 0.0
O876 O 0.77878 0.75879 0.85342 0.0
O877 O 0.76473 0.77872 0.80538 0.0
O878 O 0.84042 0.83191 0.8268 0.0
O879 O 0.80985 0.80883 0.78255 0.0
O880 O 0.79115 0.8456 0.85562 0.0
O881 O 0.83441 0.88522 0.87483 0.0
O882 O 0.89599 0.88066 0.8652 0.0
O883 O 0.90303 0.85976 0.91443 0.0
O884 O 0.833 0.80594 0.88861 0.0
O885 O 0.8448 0.84813 0.92865 0.0
O886 O 0.87643 0.79732 0.86822 0.0
O887 O 0.83524 0.76064 0.83392 0.0
H888 H 0.75971 0.80098 0.89282 0.0
H889 H 0.72062 0.81882 0.91601 0.0
H890 H 0.65997 0.75984 0.82278 0.0
H891 H 0.6997 0.74211 0.7992 0.0
H892 H 0.90794 0.82599 0.83281 0.0
H893 H 0.94297 0.79862 0.81211 0.0
H894 H 1.00921 0.86127 0.89771 0.0
H895 H 0.97288 0.8877 0.91989 0.0
Tb896 Tb 0.57308 0.55271 0.58528 0.0
Tb897 Tb 0.61621 0.60144 0.64083 0.0
C898 C 0.52599 0.52059 0.54704 0.0
C899 C 0.49961 0.53313 0.54009 0.0
C900 C 0.47674 0.52012 0.55616 0.0
C901 C 0.45944 0.54086 0.56758 0.0
C902 C 0.46497 0.57473 0.563 0.0
C903 C 0.48424 0.58541 0.54088 0.0
C904 C 0.50119 0.56456 0.5291 0.0
C905 C 0.62242 0.57409 0.56528 0.0
C906 C 0.57257 0.63181 0.59423 0.0
C907 C 0.66369 0.63363 0.67819 0.0
C908 C 0.6899 0.62079 0.68522 0.0
C909 C 0.71251 0.63357 0.6686 0.0
C910 C 0.72815 0.61205 0.65453 0.0
C911 C 0.72153 0.57793 0.65773 0.0
C912 C 0.70317 0.56715 0.68069 0.0
C913 C 0.68773 0.58875 0.69496 0.0
C914 C 0.56688 0.5807 0.66061 0.0
C915 C 0.61569 0.52161 0.63318 0.0
O916 O 0.53412 0.51807 0.58076 0.0
O917 O 0.54757 0.53493 0.53361 0.0
O918 O 0.60947 0.59103 0.58369 0.0
O919 O 0.60692 0.54359 0.55665 0.0
O920 O 0.55748 0.6002 0.5839 0.0
O921 O 0.59832 0.63861 0.615 0.0
O922 O 0.6554 0.63514 0.64424 0.0
O923 O 0.64213 0.62028 0.69222 0.0
O924 O 0.57975 0.56352 0.64229 0.0
O925 O 0.58243 0.61126 0.66916 0.0
O926 O 0.63001 0.55327 0.64569 0.0
O927 O 0.5913 0.51488 0.60948 0.0
H928 H 0.47469 0.49561 0.5642 0.0
H929 H 0.44369 0.53129 0.58293 0.0
H930 H 0.48886 0.61103 0.53598 0.0
H931 H 0.51815 0.57507 0.51584 0.0
H932 H 0.71493 0.65842 0.66136 0.0
H933 H 0.74264 0.62111 0.6374 0.0
H934 H 0.6985 0.54114 0.68446 0.0
H935 H 0.67116 0.5786 0.70893 0.0
Tb936 Tb 0.1114 0.57427 0.09231 0.0
Tb937 Tb 0.05487 0.56913 0.12304 0.0
C938 C 0.16304 0.57318 0.08988 0.0
C939 C 0.18574 0.55485 0.10197 0.0
C940 C 0.2056 0.56669 0.13473 0.0
C941 C 0.22879 0.55168 0.14417 0.0
C942 C 0.23295 0.52439 0.12111 0.0
C943 C 0.21274 0.51224 0.08864 0.0
C944 C 0.18963 0.52728 0.07919 0.0
C945 C 0.06772 0.58392 0.04098 0.0
C946 C 0.06918 0.5025 0.08747 0.0
C947 C 1.0039 0.5708 0.12785 0.0
C948 C 0.98175 0.59024 0.11819 0.0
C949 C 0.95492 0.57342 0.09687 0.0
C950 C 0.93254 0.59008 0.09043 0.0
C951 C 0.93625 0.62409 0.10531 0.0
C952 C 0.96346 0.64122 0.1258 0.0
C953 C 0.9859 0.62452 0.13221 0.0
C954 C 0.09844 0.55797 0.17312 0.0
C955 C 0.097 0.64114 0.1274 0.0
O956 O 0.15547 0.59288 0.11439 0.0
O957 O 0.14097 0.5569 0.06474 0.0
O958 O 0.06761 0.57844 0.07324 0.0
O959 O 0.09416 0.58454 0.03796 0.0
O960 O 0.09512 0.52007 0.08664 0.0
O961 O 0.04921 0.51648 0.09875 0.0
O962 O 1.01052 0.55218 0.10156 0.0
O963 O 1.02646 0.58565 0.15295 0.0
O964 O 0.0984 0.56498 0.14152 0.0
O965 O 0.07193 0.55616 0.17631 0.0
O966 O 0.07128 0.62378 0.12956 0.0
O967 O 0.11651 0.62672 0.11558 0.0
H968 H 0.2036 0.58807 0.15287 0.0
H969 H 0.24357 0.56163 0.16956 0.0
H970 H 0.21528 0.49172 0.06977 0.0
H971 H 0.17518 0.51775 0.05347 0.0
H972 H 0.95101 0.54703 0.08576 0.0
H973 H 0.91219 0.57611 0.07392 0.0
H974 H 0.96719 0.6673 0.13795 0.0
H975 H 1.00626 0.63831 0.14887 0.0
C976 C 1.02666 0.19264 0.06832 0.0
C977 C 0.04558 0.21679 0.05521 0.0
H978 H 1.01979 0.14559 0.08836 0.0
C979 C 0.07272 0.2109 0.05229 0.0
H980 H 1.00557 0.19631 0.07094 0.0
C981 C 0.08117 0.18259 0.06354 0.0
C982 C 0.06244 0.15856 0.0769 0.0
H983 H 0.08794 0.22892 0.04261 0.0
H984 H 0.10259 0.17953 0.06186 0.0
C985 C 1.03476 0.16353 0.07832 0.0
C986 C 0.22772 0.87615 0.28726 0.0
C987 C 0.21853 0.85301 0.25513 0.0
H988 H 0.25879 0.89352 0.33651 0.0
C989 C 0.23387 0.82788 0.24924 0.0
H990 H 0.21642 0.89576 0.29263 0.0
C991 C 0.25753 0.82567 0.27509 0.0
C992 C 0.26736 0.84954 0.30672 0.0
H993 H 0.22723 0.80952 0.2248 0.0
H994 H 0.26844 0.80563 0.27003 0.0
C995 C 0.25209 0.87482 0.31236 0.0
C996 C 0.53985 0.90921 0.57416 0.0
C997 C 0.55231 0.89817 0.54554 0.0
H998 H 0.53482 0.95176 0.6096 0.0
C999 C 0.57018 0.92236 0.53147 0.0
H1000 H 0.52592 0.8912 0.58549 0.0
C1001 C 0.57579 0.95649 0.54566 0.0
C1002 C 0.56313 0.96784 0.57382 0.0
H1003 H 0.58027 0.91487 0.50957 0.0
H1004 H 0.58984 0.97416 0.53406 0.0
C1005 C 0.54484 0.94383 0.5878 0.0
C1006 C 0.56187 0.32762 0.79404 0.0
C1007 C 0.55992 0.33594 0.75934 0.0
H1008 H 0.54014 0.31519 0.83645 0.0
C1009 C 0.53281 0.33769 0.74056 0.0
H1010 H 0.58235 0.32619 0.80947 0.0
C1011 C 0.50834 0.33122 0.75611 0.0
C1012 C 0.51027 0.32262 0.79079 0.0
H1013 H 0.53046 0.34406 0.7138 0.0
H1014 H 0.48781 0.33244 0.74068 0.0
C1015 C 0.5375 0.32107 0.80949 0.0
C1016 C 0.12628 0.91458 0.78335 0.0
C1017 C 0.1454 0.89397 0.77847 0.0
H1018 H 0.10747 0.95235 0.763 0.0
C1019 C 0.16805 0.90423 0.76112 0.0
H1020 H 0.1088 0.90704 0.79705 0.0
C1021 C 0.16799 0.93106 0.74242 0.0
C1022 C 0.14442 0.94628 0.73971 0.0
H1023 H 0.18331 0.88876 0.75774 0.0
H1024 H 0.18383 0.93631 0.72582 0.0
C1025 C 0.12553 0.9406 0.76359 0.0
C1026 C 0.48346 0.88266 0.89441 0.0
C1027 C 0.49258 0.90423 0.92772 0.0
H1028 H 0.44755 0.85658 0.853 0.0
C1029 C 0.47367 0.92271 0.94003 0.0
H1030 H 0.49738 0.86804 0.88403 0.0
C1031 C 0.44513 0.91646 0.92164 0.0
C1032 C 0.43531 0.89139 0.89131 0.0
H1033 H 0.48015 0.93963 0.96551 0.0
H1034 H 0.43022 0.92886 0.93283 0.0
C1035 C 0.45485 0.87582 0.87672 0.0
C1036 C 0.58713 0.20294 0.18407 0.0
C1037 C 0.589 0.23212 0.1686 0.0
H1038 H 0.58395 0.15038 0.17615 0.0
C1039 C 0.58677 0.22949 0.13109 0.0
H1040 H 0.58907 0.20401 0.21281 0.0
C1041 C 0.58355 0.19826 0.1097 0.0
C1042 C 0.58308 0.16945 0.12567 0.0
H1043 H 0.58823 0.25165 0.11842 0.0
H1044 H 0.58217 0.19677 0.081 0.0
C1045 C 0.58453 0.17211 0.16294 0.0
C1046 C 0.14297 0.31523 0.4311 0.0
C1047 C 0.12306 0.32985 0.41145 0.0
H1048 H 0.17844 0.29198 0.431 0.0
C1049 C 0.12347 0.33133 0.37506 0.0
H1050 H 0.14299 0.31334 0.45907 0.0
C1051 C 0.14402 0.31916 0.35894 0.0
C1052 C 0.1644 0.30536 0.37901 0.0
H1053 H 0.10828 0.34239 0.35925 0.0
H1054 H 0.1445 0.32146 0.33117 0.0
C1055 C 0.16332 0.30303 0.41505 0.0
C1056 C 1.03672 1.02058 0.21596 0.0
C1057 C 1.02477 0.04142 0.23798 0.0
H1058 H 0.0588 1.01606 0.17227 0.0
C1059 C 1.02448 0.074 0.23072 0.0
H1060 H 1.03713 0.99534 0.22079 0.0
C1061 C 1.03773 0.08628 0.2037 0.0
C1062 C 0.05055 0.06583 0.18252 0.0
H1063 H 1.01552 0.09074 0.24731 0.0
H1064 H 1.03884 0.11213 0.20022 0.0
C1065 C 0.04903 1.03246 0.18811 0.0
C1066 C 0.33991 0.72738 0.58358 0.0
C1067 C 0.36193 0.74838 0.61028 0.0
H1068 H 0.30613 0.72515 0.5388 0.0
C1069 C 0.363 0.78291 0.61711 0.0
H1070 H 0.33826 0.70055 0.57829 0.0
C1071 C 0.3441 0.7967 0.59542 0.0
C1072 C 0.32435 0.77626 0.56608 0.0
H1073 H 0.37952 0.79973 0.63773 0.0
H1074 H 0.34719 0.82378 0.59916 0.0
C1075 C 0.32119 0.74128 0.56151 0.0
C1076 C 0.67027 0.06753 0.7442 0.0
C1077 C 0.66126 0.04569 0.76823 0.0
H1078 H 0.65925 0.08859 0.69568 0.0
C1079 C 0.63261 1.02649 0.75741 0.0
H1080 H 0.69135 0.08438 0.75171 0.0
C1081 C 0.61383 1.02979 0.72584 0.0
C1082 C 0.62233 0.05228 0.70248 0.0
H1083 H 0.62375 1.0106 0.77517 0.0
H1084 H 0.59176 1.01555 0.72064 0.0
C1085 C 0.65148 0.07035 0.71185 0.0
C1086 C 0.35218 0.41676 1.01344 0.0
C1087 C 0.37157 0.40951 0.04122 0.0
H1088 H 0.33034 0.40294 0.9585 0.0
C1089 C 0.38547 0.38335 0.03404 0.0
H1090 H 0.34098 0.43655 1.01843 0.0
C1091 C 0.3798 0.36448 0.99954 0.0
C1092 C 0.3594 0.3708 0.97223 0.0
H1093 H 0.40044 0.37727 0.0552 0.0
H1094 H 0.39064 0.34436 0.99451 0.0
C1095 C 0.34584 0.39725 0.97936 0.0
C1096 C 1.00478 0.0644 0.44996 0.0
C1097 C 1.01328 0.044 0.42345 0.0
H1098 H 1.01248 0.08662 0.50528 0.0
C1099 C 1.03599 1.02856 0.4337 0.0
H1100 H 0.98753 0.07691 0.44292 0.0
C1101 C 0.05 1.03362 0.46985 0.0
C1102 C 1.04203 0.05496 0.49609 0.0
H1103 H 1.04299 1.01278 0.41379 0.0
H1104 H 0.06764 1.02174 0.47706 0.0
C1105 C 1.01919 0.07013 0.48572 0.0
C1106 C 0.43429 0.81773 0.75906 0.0
C1107 C 0.43241 0.78291 0.75542 0.0
H1108 H 0.41381 0.85774 0.7718 0.0
C1109 C 0.41255 0.76334 0.77179 0.0
H1110 H 0.44996 0.83371 0.74784 0.0
C1111 C 0.39175 0.77732 0.78555 0.0
C1112 C 0.39079 0.81071 0.78292 0.0
H1113 H 0.41099 0.73662 0.77045 0.0
H1114 H 0.37532 0.76151 0.79581 0.0
C1115 C 0.41321 0.83133 0.77186 0.0
C1116 C 0.68855 0.06896 1.00224 0.0
C1117 C 0.67642 0.06335 0.96474 0.0
H1118 H 0.68321 0.0796 0.05766 0.0
C1119 C 0.64708 0.06542 0.95717 0.0
H1120 H 0.71075 0.06782 1.01054 0.0
C1121 C 0.631 0.07212 0.98455 0.0
C1122 C 0.64292 0.07774 0.02201 0.0
H1123 H 0.63604 0.06142 0.9294 0.0
H1124 H 0.60868 0.07266 0.97598 0.0
C1125 C 0.67242 0.07599 0.02983 0.0
C1126 C 0.36577 0.40049 0.24634 0.0
C1127 C 0.37353 0.38301 0.21696 0.0
H1128 H 0.34994 0.3973 0.29536 0.0
C1129 C 0.37177 0.34823 0.2155 0.0
H1130 H 0.3669 0.42721 0.24843 0.0
C1131 C 0.36179 0.33126 0.24183 0.0
C1132 C 0.35364 0.34847 0.27076 0.0
H1133 H 0.37741 0.33363 0.19342 0.0
H1134 H 0.36017 0.30442 0.23927 0.0
C1135 C 0.35617 0.38341 0.27325 0.0
C1136 C 0.26557 1.02966 0.10824 0.0
C1137 C 0.24376 1.00397 0.08597 0.0
H1138 H 0.27612 0.07194 0.15068 0.0
C1139 C 0.21531 1.00071 0.09042 0.0
H1140 H 0.28776 1.03268 0.10544 0.0
C1141 C 0.20882 1.02287 0.11681 0.0
C1142 C 0.23066 0.04872 0.13885 0.0
H1143 H 0.19818 0.98095 0.07384 0.0
H1144 H 0.18658 1.02042 0.11923 0.0
C1145 C 0.25905 0.05197 0.1343 0.0
C1146 C 0.71026 0.64158 0.07821 0.0
C1147 C 0.7063 0.6717 0.06689 0.0
H1148 H 0.69133 0.59548 0.09366 0.0
C1149 C 0.67818 0.67718 0.06117 0.0
H1150 H 0.73144 0.63629 0.08308 0.0
C1151 C 0.65487 0.65337 0.06719 0.0
C1152 C 0.65921 0.62389 0.07975 0.0
H1153 H 0.67414 0.69991 0.05209 0.0
H1154 H 0.63358 0.65774 0.061 0.0
C1155 C 0.68715 0.61816 0.08453 0.0
C1156 C 0.70202 0.51572 0.3301 0.0
C1157 C 0.69994 0.52483 0.36588 0.0
H1158 H 0.72167 0.48801 0.29437 0.0
C1159 C 0.71099 0.50775 0.39232 0.0
H1160 H 0.69379 0.52905 0.30952 0.0
C1161 C 0.72731 0.48478 0.38387 0.0
C1162 C 0.7324 0.47869 0.34888 0.0
H1163 H 0.70983 0.51492 0.42016 0.0
H1164 H 0.73827 0.47438 0.40528 0.0
C1165 C 0.71794 0.49233 0.3215 0.0
C1166 C 0.85967 0.44847 0.54653 0.0
C1167 C 0.84629 0.42241 0.51763 0.0
H1168 H 0.89732 0.48588 0.57169 0.0
C1169 C 0.86279 0.41107 0.494 0.0
H1170 H 0.84762 0.45751 0.56553 0.0
C1171 C 0.89166 0.42755 0.49762 0.0
C1172 C 0.90439 0.45516 0.52524 0.0
H1173 H 0.8531 0.3908 0.47177 0.0
H1174 H 0.90379 0.41926 0.47835 0.0
C1175 C 0.88829 0.46468 0.55024 0.0
C1176 C 0.42851 0.21838 0.35984 0.0
C1177 C 0.41554 0.18371 0.34609 0.0
H1178 H 0.42431 0.27006 0.37216 0.0
C1179 C 0.38518 0.17795 0.33322 0.0
H1180 H 0.45142 0.22546 0.37044 0.0
C1181 C 0.36924 0.20421 0.33398 0.0
C1182 C 0.38209 0.23883 0.34788 0.0
H1183 H 0.37326 0.15249 0.32239 0.0
H1184 H 0.34629 0.19701 0.32363 0.0
C1185 C 0.4125 0.24468 0.3608 0.0
C1186 C 0.35984 0.13839 0.59593 0.0
C1187 C 0.36368 0.17202 0.59062 0.0
H1188 H 0.37929 0.09733 0.60538 0.0
C1189 C 0.39164 0.19009 0.59071 0.0
H1190 H 0.33867 0.12369 0.59617 0.0
C1191 C 0.41509 0.1748 0.59574 0.0
C1192 C 0.4112 0.14099 0.60073 0.0
H1193 H 0.3954 0.216 0.58661 0.0
H1194 H 0.43621 0.18935 0.5951 0.0
C1195 C 0.3832 0.12314 0.60093 0.0
C1196 C 0.77248 0.70024 0.41324 0.0
C1197 C 0.74619 0.71027 0.40866 0.0
H1198 H 0.81739 0.71278 0.41131 0.0
C1199 C 0.74585 0.74229 0.39986 0.0
H1200 H 0.77355 0.67578 0.42014 0.0
C1201 C 0.7708 0.76301 0.39408 0.0
C1202 C 0.79676 0.75261 0.39758 0.0
H1203 H 0.72605 0.75083 0.39611 0.0
H1204 H 0.76984 0.7872 0.38682 0.0
C1205 C 0.79759 0.72139 0.40821 0.0
C1206 C 0.91751 0.45989 0.828 0.0
C1207 C 0.91741 0.49028 0.84982 0.0
H1208 H 0.90088 0.40626 0.81278 0.0
C1209 C 0.89829 0.48758 0.874 0.0
H1210 H 0.93214 0.46021 0.80952 0.0
C1211 C 0.8808 0.45595 0.87679 0.0
C1212 C 0.88107 0.42551 0.855 0.0
H1213 H 0.89779 0.50976 0.89208 0.0
H1214 H 0.86722 0.45534 0.89652 0.0
C1215 C 0.89949 0.42854 0.83003 0.0
C1216 C 0.12357 0.93062 0.13845 0.0
C1217 C 0.13401 0.93337 0.17562 0.0
H1218 H 0.10959 0.95538 0.09475 0.0
C1219 C 0.14107 0.96569 0.19657 0.0
H1220 H 0.11771 0.90628 0.12136 0.0
C1221 C 0.13704 0.99412 0.18104 0.0
C1222 C 0.12523 0.99103 0.1442 0.0
H1223 H 0.14907 0.96892 0.22525 0.0
H1224 H 0.14171 1.01825 0.19831 0.0
C1225 C 0.11888 0.95887 0.12313 0.0
C1226 C 0.94772 0.28224 0.93197 0.0
C1227 C 0.95565 0.30451 0.96483 0.0
H1228 H 0.91653 0.26345 0.88289 0.0
C1229 C 0.93739 0.32594 0.97251 0.0
H1230 H 0.9611 0.26531 0.92516 0.0
C1231 C 0.91219 0.32544 0.94796 0.0
C1232 C 0.90402 0.30285 0.91539 0.0
H1233 H 0.94278 0.34358 0.99746 0.0
H1234 H 0.89902 0.34266 0.9546 0.0
C1235 C 0.92205 0.28112 0.90781 0.0
C1236 C 0.63543 0.23546 0.63993 0.0
C1237 C 0.61999 0.25205 0.66152 0.0
H1238 H 0.6406 0.18899 0.61313 0.0
C1239 C 0.59666 0.23236 0.67242 0.0
H1240 H 0.65364 0.24952 0.63108 0.0
C1241 C 0.58885 0.19717 0.66154 0.0
C1242 C 0.60452 0.18073 0.64007 0.0
H1243 H 0.58422 0.24417 0.68895 0.0
H1244 H 0.5707 0.18283 0.67025 0.0
C1245 C 0.62798 0.20049 0.62964 0.0
C1246 C 0.61142 0.79941 0.42713 0.0
C1247 C 0.61375 0.80676 0.46452 0.0
H1248 H 0.63313 0.79984 0.38281 0.0
C1249 C 0.6414 0.81859 0.4862 0.0
H1250 H 0.5905 0.79051 0.40955 0.0
C1251 C 0.66597 0.82369 0.47093 0.0
C1252 C 0.66372 0.81735 0.4334 0.0
H1253 H 0.64411 0.82443 0.51512 0.0
H1254 H 0.68678 0.83275 0.48869 0.0
C1255 C 0.63601 0.8047 0.41179 0.0
C1256 C 0.98808 0.25124 0.46264 0.0
C1257 C 1.01232 0.26691 0.45046 0.0
H1258 H 0.97031 0.20978 0.48641 0.0
C1259 C 1.03022 0.24716 0.43806 0.0
H1260 H 0.9729 0.26536 0.47039 0.0
C1261 C 1.02905 0.21564 0.44794 0.0
C1262 C 1.01005 0.20447 0.4702 0.0
H1263 H 0.04825 0.25798 0.42665 0.0
H1264 H 0.04656 0.20381 0.44425 0.0
C1265 C 0.98652 0.21929 0.47161 0.0
C1266 C 0.71019 0.27999 0.28244 0.0
C1267 C 0.69627 0.30586 0.29061 0.0
H1268 H 0.75073 0.26568 0.28631 0.0
C1269 C 0.71205 0.33647 0.31112 0.0
H1270 H 0.69832 0.25658 0.26553 0.0
C1271 C 0.74165 0.34227 0.3211 0.0
C1272 C 0.75608 0.31714 0.31191 0.0
H1273 H 0.70174 0.35702 0.31672 0.0
H1274 H 0.75328 0.36702 0.33503 0.0
C1275 C 0.74006 0.28541 0.29372 0.0
C1276 C 0.58794 0.93307 0.06973 0.0
C1277 C 0.58797 0.93482 0.0332 0.0
H1278 H 0.59088 0.96094 0.12245 0.0
C1279 C 0.59005 0.96572 0.02155 0.0
H1280 H 0.58617 0.9092 0.07916 0.0
C1281 C 0.59177 0.99435 0.04553 0.0
C1282 C 0.59229 0.99339 0.08224 0.0
H1283 H 0.58964 0.96778 0.99353 0.0
H1284 H 0.59278 1.01733 0.03476 0.0
C1285 C 0.59057 0.96245 0.09437 0.0
C1286 C 1.01963 0.798 0.78353 0.0
C1287 C 0.04448 0.79308 0.8048 0.0
H1288 H 0.98029 0.81354 0.7818 0.0
C1289 C 0.04663 0.79636 0.8422 0.0
H1290 H 1.01753 0.79602 0.75466 0.0
C1291 C 1.02505 0.80667 0.85811 0.0
C1292 C 1.00093 0.81358 0.83678 0.0
H1293 H 0.06583 0.7933 0.85927 0.0
H1294 H 1.02764 0.81017 0.88707 0.0
C1295 C 0.99822 0.80813 0.79923 0.0
C1296 C 0.14593 0.12011 0.98885 0.0
C1297 C 0.16783 0.10495 0.97993 0.0
H1298 H 0.11426 0.12167 0.02172 0.0
C1299 C 0.17557 0.0803 0.9995 0.0
H1300 H 0.13944 0.13904 0.97422 0.0
C1301 C 0.16062 0.06969 0.02588 0.0
C1302 C 0.13831 0.08428 0.03411 0.0
H1303 H 0.19217 0.06789 0.99312 0.0
H1304 H 0.16608 0.04956 0.0393 0.0
C1305 C 0.1316 0.11023 1.01607 0.0
C1306 C 0.74499 0.33739 0.59763 0.0
C1307 C 0.75228 0.37183 0.59591 0.0
H1308 H 0.75187 0.29855 0.62782 0.0
C1309 C 0.76816 0.39438 0.62668 0.0
H1310 H 0.73226 0.31945 0.57458 0.0
C1311 C 0.78004 0.38236 0.65668 0.0
C1312 C 0.7757 0.34763 0.6567 0.0
H1313 H 0.77394 0.42113 0.62643 0.0
H1314 H 0.79451 0.40026 0.6785 0.0
C1315 C 0.75656 0.32538 0.6279 0.0
C1316 C 0.53236 0.09476 0.44447 0.0
C1317 C 0.50402 0.09818 0.44518 0.0
H1318 H 0.57288 0.08869 0.47209 0.0
C1319 C 0.49601 0.09717 0.47931 0.0
H1320 H 0.54013 0.09527 0.41961 0.0
C1321 C 0.51547 0.09296 0.51065 0.0
C1322 C 0.54401 0.08984 0.50944 0.0
H1323 H 0.47462 0.09961 0.48193 0.0
H1324 H 0.50817 0.09249 0.53582 0.0
C1325 C 0.55154 0.0909 0.4753 0.0
C1326 C 0.7864 0.78162 0.19756 0.0
C1327 C 0.80409 0.76482 0.18029 0.0
H1328 H 0.77949 0.80612 0.24663 0.0
C1329 C 0.82917 0.75944 0.20074 0.0
H1330 H 0.76683 0.78596 0.18255 0.0
C1331 C 0.83674 0.77156 0.23779 0.0
C1332 C 0.81899 0.78858 0.25488 0.0
H1333 H 0.84323 0.7467 0.188 0.0
H1334 H 0.85632 0.7675 0.25303 0.0
C1335 C 0.79365 0.79314 0.23437 0.0
C1336 C 0.13057 0.13955 0.77377 0.0
C1337 C 0.14598 0.1185 0.79069 0.0
H1338 H 0.10868 0.14986 0.7245 0.0
C1339 C 0.15113 0.0908 0.76936 0.0
H1340 H 0.12629 0.16113 0.7893 0.0
C1341 C 0.14075 0.08407 0.73211 0.0
C1342 C 0.12539 0.10522 0.7152 0.0
H1343 H 0.16281 0.07394 0.78151 0.0
H1344 H 0.14482 0.06236 0.71659 0.0
C1345 C 0.12062 0.13315 0.7365 0.0
C1346 C 0.795 0.43161 0.42894 0.0
C1347 C 0.76709 0.41619 0.43225 0.0
H1348 H 0.83499 0.42385 0.41654 0.0
C1349 C 0.756 0.38214 0.41755 0.0
H1350 H 0.8042 0.45783 0.44003 0.0
C1351 C 0.77403 0.36255 0.40617 0.0
C1352 C 0.80291 0.3771 0.40691 0.0
H1353 H 0.73444 0.36969 0.41926 0.0
H1354 H 0.76559 0.33573 0.39817 0.0
C1355 C 0.81283 0.41207 0.41614 0.0
C1356 C 0.53268 0.10594 0.25514 0.0
C1357 C 0.50273 0.09274 0.25233 0.0
H1358 H 0.57043 0.11217 0.23157 0.0
C1359 C 0.48863 0.07472 0.21738 0.0
H1360 H 0.54539 0.11887 0.28101 0.0
C1361 C 0.5036 0.0706 0.18779 0.0
C1362 C 0.53389 0.08319 0.19148 0.0
H1363 H 0.46612 0.06234 0.21314 0.0
H1364 H 0.49143 0.05632 0.16223 0.0
C1365 C 0.54753 0.10143 0.2262 0.0
C1366 C 0.80196 0.79143 1.00039 0.0
C1367 C 0.79912 0.75636 0.99378 0.0
H1368 H 0.8134 0.83843 0.98175 0.0
C1369 C 0.8032 0.74159 0.96052 0.0
H1370 H 0.79894 0.80372 0.0257 0.0
C1371 C 0.81132 0.7616 0.93527 0.0
C1372 C 0.81569 0.79682 0.94278 0.0
H1373 H 0.80131 0.71476 0.95459 0.0
H1374 H 0.81556 0.74954 0.91059 0.0
C1375 C 0.81032 0.81143 0.97527 0.0
C1376 C 0.93803 0.1046 0.18031 0.0
C1377 C 0.95662 0.13676 0.18786 0.0
H1378 H 0.92782 0.0551 0.14899 0.0
C1379 C 0.98225 0.14165 0.17485 0.0
H1380 H 0.91819 0.10003 0.19023 0.0
C1381 C 0.9873 0.1163 0.15093 0.0
C1382 C 0.96711 0.08553 0.14011 0.0
H1383 H 0.99722 0.16594 0.18059 0.0
H1384 H 1.00645 0.12124 0.13961 0.0
C1385 C 0.94329 0.07902 0.15649 0.0
C1386 C 0.46458 0.52544 0.13666 0.0
C1387 C 0.46706 0.49216 0.13697 0.0
H1388 H 0.48503 0.57551 0.13235 0.0
C1389 C 0.49418 0.48493 0.13569 0.0
H1390 H 0.44418 0.53208 0.13752 0.0
C1391 C 0.51779 0.51003 0.133 0.0
C1392 C 0.51487 0.54285 0.13078 0.0
H1393 H 0.49713 0.45968 0.13637 0.0
H1394 H 0.53817 0.50363 0.1327 0.0
C1395 C 0.4881 0.55034 0.13349 0.0
C1396 C 0.46905 0.65271 0.85286 0.0
C1397 C 0.45568 0.62475 0.82606 0.0
H1398 H 0.46441 0.69813 0.88291 0.0
C1399 C 0.429 0.62412 0.80472 0.0
H1400 H 0.48963 0.65378 0.86976 0.0
C1401 C 0.4147 0.64945 0.81213 0.0
C1402 C 0.42675 0.67572 0.84118 0.0
H1403 H 0.41839 0.60307 0.78359 0.0
H1404 H 0.39353 0.64758 0.7963 0.0
C1405 C 0.45463 0.67805 0.86044 0.0
C1406 C 0.31068 0.73358 0.71517 0.0
C1407 C 0.33225 0.71567 0.71298 0.0
H1408 H 0.26602 0.73069 0.71422 0.0
C1409 C 0.3256 0.68086 0.71327 0.0
H1410 H 0.31503 0.76035 0.71514 0.0
C1411 C 0.29754 0.66392 0.71281 0.0
C1412 C 0.27566 0.68152 0.71246 0.0
H1413 H 0.34176 0.66624 0.71198 0.0
H1414 H 0.29276 0.63694 0.71158 0.0
C1415 C 0.28261 0.71659 0.7148 0.0
C1416 C 0.78562 0.96937 0.87407 0.0
C1417 C 0.7552 0.9639 0.87204 0.0
H1418 H 0.82424 0.94985 0.87462 0.0
C1419 C 0.74185 0.92894 0.86831 0.0
H1420 H 0.7979 0.99494 0.87699 0.0
C1421 C 0.75744 0.90216 0.86639 0.0
C1422 C 0.78795 0.90776 0.86867 0.0
H1423 H 0.71885 0.92191 0.86654 0.0
H1424 H 0.74519 0.87654 0.86326 0.0
C1425 C 0.80123 0.94272 0.87274 0.0
C1426 C 0.78044 0.96479 0.62337 0.0
C1427 C 0.80791 0.98548 0.63793 0.0
H1428 H 0.7354 0.96164 0.60646 0.0
C1429 C 0.81022 1.02008 0.64804 0.0
H1430 H 0.77775 0.93802 0.61534 0.0
C1431 C 0.78584 1.03375 0.64269 0.0
C1432 C 0.75844 1.0132 0.62702 0.0
H1433 H 0.83101 0.03682 0.65918 0.0
H1434 H 0.78868 0.06065 0.6497 0.0
C1435 C 0.7561 0.97843 0.618 0.0
C1436 C 0.43505 0.42175 0.85617 0.0
C1437 C 0.43407 0.44417 0.83152 0.0
H1438 H 0.41139 0.3841 0.87999 0.0
C1439 C 0.40748 0.44325 0.8094 0.0
H1440 H 0.45502 0.42211 0.87403 0.0
C1441 C 0.38243 0.42052 0.81218 0.0
C1442 C 0.38344 0.39876 0.83753 0.0
H1443 H 0.40599 0.4603 0.79022 0.0
H1444 H 0.36222 0.42045 0.79502 0.0
C1445 C 0.41 0.39973 0.85947 0.0
C1446 C 0.27042 0.66234 0.35967 0.0
C1447 C 0.25249 0.66006 0.38534 0.0
H1448 H 0.2998 0.69412 0.33441 0.0
C1449 C 0.25294 0.69092 0.40679 0.0
H1450 H 0.2706 0.63984 0.34187 0.0
C1451 C 0.27006 0.72219 0.40287 0.0
C1452 C 0.28721 0.7248 0.37644 0.0
H1453 H 0.23945 0.69104 0.42662 0.0
H1454 H 0.26911 0.7447 0.4201 0.0
C1455 C 0.28711 0.69392 0.35512 0.0
C1456 C 0.52729 0.69603 0.57403 0.0
C1457 C 0.54526 0.71852 0.55788 0.0
H1458 H 0.5212 0.65054 0.59717 0.0
C1459 C 0.57135 0.71091 0.55231 0.0
H1460 H 0.50704 0.70099 0.57884 0.0
C1461 C 0.57976 0.68263 0.56381 0.0
C1462 C 0.56196 0.66031 0.58011 0.0
H1463 H 0.58588 0.72761 0.54033 0.0
H1464 H 0.60045 0.67829 0.56013 0.0
C1465 C 0.53532 0.66701 0.58447 0.0
C1466 C 0.73551 0.33076 0.75568 0.0
C1467 C 0.71907 0.35461 0.76224 0.0
H1468 H 0.77025 0.30879 0.77638 0.0
C1469 C 0.7266 0.37584 0.79574 0.0
H1470 H 0.73017 0.3138 0.73027 0.0
C1471 C 0.75042 0.37395 0.82152 0.0
C1472 C 0.76675 0.34992 0.81513 0.0
H1473 H 0.71444 0.39442 0.80172 0.0
H1474 H 0.75587 0.3912 0.84674 0.0
C1475 C 0.75857 0.32793 0.78207 0.0
C1476 C 0.06936 0.42065 0.03022 0.0
C1477 C 0.05156 0.39631 0.04419 0.0
H1478 H 0.089 0.4725 0.03319 0.0
C1479 C 1.03916 0.40711 0.07296 0.0
H1480 H 0.07941 0.41334 1.00821 0.0
C1481 C 0.04417 0.44167 0.0869 0.0
C1482 C 0.06242 0.46582 0.07305 0.0
H1483 H 1.02529 0.38897 0.08422 0.0
H1484 H 1.03424 0.44944 0.10884 0.0
C1485 C 0.07499 0.4547 0.04469 0.0
C1486 C 1.03267 0.83688 0.23844 0.0
C1487 C 0.05985 0.83476 0.25666 0.0
H1488 H 0.98789 0.83232 0.23954 0.0
C1489 C 0.06215 0.82648 0.2914 0.0
H1490 H 1.03005 0.84324 0.21168 0.0
C1491 C 1.03804 0.82031 0.3074 0.0
C1492 C 1.01076 0.82224 0.28926 0.0
H1493 H 0.0827 0.82478 0.3064 0.0
H1494 H 1.04094 0.81441 0.33436 0.0
C1495 C 1.00848 0.83081 0.25455 0.0
C1496 C 0.6598 0.4067 0.26819 0.0
C1497 C 0.63529 0.39495 0.28175 0.0
H1498 H 0.6786 0.44081 0.23663 0.0
C1499 C 0.61528 0.41474 0.2845 0.0
H1500 H 0.67578 0.39192 0.26664 0.0
C1501 C 0.61609 0.44171 0.26593 0.0
C1502 C 0.63727 0.44893 0.24528 0.0
H1503 H 0.59637 0.40602 0.29535 0.0
H1504 H 0.59768 0.45294 0.26324 0.0
C1505 C 0.66116 0.4344 0.25068 0.0
C1506 C 0.97966 0.3688 0.39993 0.0
C1507 C 0.99089 0.39609 0.42809 0.0
H1508 H 0.94224 0.33857 0.36422 0.0
C1509 C 0.9734 0.41787 0.43706 0.0
H1510 H 0.99237 0.35112 0.39286 0.0
C1511 C 0.94463 0.41122 0.41935 0.0
C1512 C 0.9329 0.38199 0.39379 0.0
H1513 H 0.98149 0.43876 0.45905 0.0
H1514 H 0.93111 0.42751 0.42737 0.0
C1515 C 0.95079 0.36136 0.38364 0.0
C1516 C 0.08643 0.72743 0.63244 0.0
C1517 C 0.08989 0.73039 0.67011 0.0
H1518 H 0.08058 0.6944 0.58229 0.0
C1519 C 0.08854 0.70137 0.68582 0.0
H1520 H 0.08747 0.74946 0.61958 0.0
C1521 C 0.0855 0.67039 0.66471 0.0
C1522 C 0.08306 0.66748 0.62726 0.0
H1523 H 0.09146 0.70274 0.71469 0.0
H1524 H 0.08548 0.64879 0.67802 0.0
C1525 C 0.0828 0.69609 0.61112 0.0
C1526 C 0.62141 0.82556 0.87921 0.0
C1527 C 0.62141 0.82709 0.91609 0.0
H1528 H 0.64231 0.81272 0.83601 0.0
C1529 C 0.64234 0.81517 0.93759 0.0
H1530 H 0.60551 0.83452 0.86196 0.0
C1531 C 0.66318 0.80265 0.92279 0.0
C1532 C 0.66365 0.80172 0.88612 0.0
H1533 H 0.64283 0.81577 0.96605 0.0
H1534 H 0.67905 0.79376 0.94018 0.0
C1535 C 0.64233 0.8129 0.86432 0.0
C1536 C 0.52121 0.57341 0.73142 0.0
C1537 C 0.5238 0.54213 0.74099 0.0
H1538 H 0.53309 0.61031 0.69841 0.0
C1539 C 0.53771 0.52212 0.72085 0.0
H1540 H 0.51066 0.58947 0.74647 0.0
C1541 C 0.54988 0.53374 0.69283 0.0
C1542 C 0.54904 0.56598 0.68497 0.0
H1543 H 0.5399 0.49785 0.7274 0.0
H1544 H 0.56138 0.5182 0.67872 0.0
C1545 C 0.53403 0.5854 0.70395 0.0
C1546 C 0.88616 0.22848 0.08911 0.0
C1547 C 0.90627 0.24755 0.11906 0.0
H1548 H 0.85567 0.22918 0.04191 0.0
C1549 C 0.91181 0.28277 0.12363 0.0
H1550 H 0.8813 0.20129 0.08508 0.0
C1551 C 0.89692 0.29867 0.09927 0.0
C1552 C 0.87643 0.27963 0.0697 0.0
H1553 H 0.92735 0.29814 0.14635 0.0
H1554 H 0.90167 0.32586 0.10334 0.0
C1555 C 0.87138 0.24441 0.06459 0.0
C1556 C 0.13196 0.5265 0.25831 0.0
C1557 C 0.16061 0.54568 0.26888 0.0
H1558 H 0.09113 0.51509 0.22146 0.0
C1559 C 0.16969 0.56696 0.24439 0.0
H1560 H 0.12308 0.51102 0.27641 0.0
C1561 C 0.15092 0.56926 0.2118 0.0
C1562 C 0.12176 0.55122 0.20265 0.0
H1563 H 0.19079 0.58376 0.25166 0.0
H1564 H 0.15872 0.5871 0.19523 0.0
C1565 C 0.11321 0.52927 0.2265 0.0
C1566 C 0.85387 0.91541 0.51493 0.0
C1567 C 0.87198 0.90721 0.5434 0.0
H1568 H 0.83321 0.90252 0.45956 0.0
C1569 C 0.88452 0.8797 0.53702 0.0
H1570 H 0.84371 0.93627 0.51918 0.0
C1571 C 0.879 0.86073 0.50249 0.0
C1572 C 0.86001 0.86833 0.47442 0.0
H1573 H 0.89851 0.8729 0.55869 0.0
H1574 H 0.88891 0.8397 0.49793 0.0
C1575 C 0.84762 0.89587 0.48094 0.0
C1576 C 0.53595 0.52964 0.93637 0.0
C1577 C 0.51246 0.54391 0.92633 0.0
H1578 H 0.56858 0.52433 0.97943 0.0
C1579 C 0.50347 0.56364 0.95292 0.0
H1580 H 0.54334 0.5144 0.91637 0.0
C1581 C 0.51823 0.56996 0.98856 0.0
C1582 C 0.54189 0.55603 0.99869 0.0
H1583 H 0.48561 0.57525 0.94602 0.0
H1584 H 0.51114 0.58595 1.00821 0.0
C1585 C 0.55032 0.53526 0.97239 0.0
C1586 C 0.89838 0.26246 0.28043 0.0
C1587 C 0.92669 0.2772 0.27798 0.0
H1588 H 0.85715 0.27091 0.2867 0.0
C1589 C 0.93625 0.31228 0.28602 0.0
H1590 H 0.89026 0.23549 0.27419 0.0
C1591 C 0.91724 0.33235 0.29255 0.0
C1592 C 0.88844 0.31778 0.29227 0.0
H1593 H 0.95792 0.32433 0.28432 0.0
H1594 H 0.92506 0.35938 0.29715 0.0
C1595 C 0.87931 0.28269 0.28725 0.0
C1596 C 0.1881 0.56864 0.50321 0.0
C1597 C 0.17596 0.56361 0.46573 0.0
H1598 H 0.18276 0.57818 0.55875 0.0
C1599 C 0.14658 0.56553 0.4584 0.0
H1600 H 0.21033 0.56754 0.51134 0.0
C1601 C 0.13048 0.57157 0.48596 0.0
C1602 C 0.1424 0.5766 0.5234 0.0
H1603 H 0.13552 0.56193 0.43069 0.0
H1604 H 0.10814 0.57206 0.47754 0.0
C1605 C 0.17195 0.57498 0.53098 0.0
C1606 C 0.88805 0.88512 0.75143 0.0
C1607 C 0.87004 0.89556 0.72446 0.0
H1608 H 0.89067 0.85757 0.7952 0.0
C1609 C 0.84024 0.88734 0.72265 0.0
H1610 H 0.91107 0.89059 0.75295 0.0
C1611 C 0.82858 0.86723 0.7459 0.0
C1612 C 0.84652 0.85586 0.77215 0.0
H1613 H 0.82584 0.89442 0.70162 0.0
H1614 H 0.80543 0.85986 0.74277 0.0
C1615 C 0.87639 0.86603 0.77552 0.0
C1616 C 0.76306 0.53553 0.59869 0.0
C1617 C 0.74138 0.50869 0.57807 0.0
H1618 H 0.77386 0.57827 0.64062 0.0
C1619 C 0.71332 0.50446 0.58427 0.0
H1620 H 0.78495 0.53932 0.5945 0.0
C1621 C 0.70718 0.52645 0.61112 0.0
C1622 C 0.72896 0.55312 0.63192 0.0
H1623 H 0.69631 0.48385 0.56896 0.0
H1624 H 0.68525 0.52299 0.61516 0.0
C1625 C 0.75686 0.55767 0.62523 0.0
C1626 C 0.20968 0.13936 0.57697 0.0
C1627 C 0.20544 0.1692 0.56512 0.0
H1628 H 0.19101 0.09322 0.59256 0.0
C1629 C 0.17714 0.17407 0.55853 0.0
H1630 H 0.231 0.13454 0.58248 0.0
C1631 C 0.15391 0.14993 0.56419 0.0
C1632 C 0.15853 0.1208 0.57738 0.0
H1633 H 0.1729 0.19653 0.54897 0.0
H1634 H 0.13245 0.15369 0.5572 0.0
C1635 C 0.18665 0.11566 0.583 0.0
C1636 C 0.22119 1.00775 0.87856 0.0
C1637 C 0.2103 1.02824 0.85592 0.0
H1638 H 0.24797 0.97291 0.88544 0.0
C1639 C 0.21369 1.02492 0.82013 0.0
H1640 H 0.21923 1.01059 0.90649 0.0
C1641 C 0.22994 1.0033 0.80786 0.0
C1642 C 0.24347 0.98525 0.83151 0.0
H1643 H 0.20559 0.04092 0.80246 0.0
H1644 H 0.23343 1.00237 0.78059 0.0
C1645 C 0.23773 0.98633 0.86644 0.0
C1646 C 0.36546 0.90968 0.99849 0.0
C1647 C 0.34906 0.92041 0.02253 0.0
H1648 H 0.4061 0.91885 0.98211 0.0
C1649 C 0.3625 0.94614 0.05179 0.0
H1650 H 0.35575 0.88966 0.9761 0.0
C1651 C 0.39099 0.96281 0.0552 0.0
C1652 C 0.40679 0.95411 0.02949 0.0
H1653 H 0.35053 0.95467 0.07116 0.0
H1654 H 0.40009 0.98383 0.07685 0.0
C1655 C 0.39413 0.92661 1.00178 0.0
C1656 C 0.88436 0.6766 0.83191 0.0
C1657 C 0.91443 0.6821 0.84667 0.0
H1658 H 0.84569 0.69592 0.82056 0.0
C1659 C 0.92704 0.71644 0.8622 0.0
H1660 H 0.87271 0.65136 0.81963 0.0
C1661 C 0.91099 0.74266 0.86313 0.0
C1662 C 0.88091 0.73715 0.84824 0.0
H1663 H 0.9497 0.7233 0.87435 0.0
H1664 H 0.92253 0.76774 0.87604 0.0
C1665 C 0.86839 0.70287 0.83248 0.0
C1666 C 0.86029 0.63902 0.09599 0.0
C1667 C 0.86431 0.6727 0.09082 0.0
H1668 H 0.87944 0.59765 0.10506 0.0
C1669 C 0.89233 0.69052 0.09077 0.0
H1670 H 0.83908 0.62449 0.09634 0.0
C1671 C 0.91564 0.67495 0.09553 0.0
C1672 C 0.91156 0.6411 0.10038 0.0
H1673 H 0.89624 0.71646 0.08676 0.0
H1674 H 0.9368 0.68934 0.09479 0.0
C1675 C 0.88351 0.62349 0.10071 0.0
C1676 C 0.24377 0.24087 0.89621 0.0
C1677 C 0.24533 0.21094 0.90954 0.0
H1678 H 0.2666 0.28405 0.87883 0.0
C1679 C 0.27245 0.20344 0.91851 0.0
H1680 H 0.22323 0.24722 0.88872 0.0
C1681 C 0.29728 0.2249 0.91327 0.0
C1682 C 0.2954 0.25381 0.89802 0.0
H1683 H 0.27438 0.18054 0.92881 0.0
H1684 H 0.31776 0.21813 0.91975 0.0
C1685 C 0.26852 0.26182 0.89016 0.0
C1686 C 0.39838 0.98857 0.37099 0.0
C1687 C 0.41878 0.99124 0.34845 0.0
H1688 H 0.36632 0.9563 0.39211 0.0
C1689 C 0.42018 0.96064 0.32804 0.0
H1690 H 0.39679 1.0109 0.38798 0.0
C1691 C 0.40224 0.92916 0.32987 0.0
C1692 C 0.38253 0.92621 0.35328 0.0
H1693 H 0.43575 0.96093 0.31081 0.0
H1694 H 0.40464 0.90678 0.31373 0.0
C1695 C 0.38095 0.95683 0.37364 0.0
C1696 C 0.64148 0.46775 0.70106 0.0
C1697 C 0.63464 0.43539 0.68019 0.0
H1698 H 0.64171 0.52023 0.70268 0.0
C1699 C 0.62402 0.43252 0.64304 0.0
H1700 H 0.6496 0.47109 0.72972 0.0
C1701 C 0.61897 0.46065 0.62767 0.0
C1702 C 0.62514 0.49286 0.64865 0.0
H1703 H 0.6183 0.40817 0.62599 0.0
H1704 H 0.60959 0.45703 0.59931 0.0
C1705 C 0.63713 0.49608 0.68546 0.0
C1706 C 0.44811 0.78558 0.43358 0.0
C1707 C 0.45563 0.80701 0.46695 0.0
H1708 H 0.41725 0.76726 0.38424 0.0
C1709 C 0.43674 0.82749 0.47526 0.0
H1710 H 0.46191 0.76937 0.42621 0.0
C1711 C 0.41129 0.82676 0.45089 0.0
C1712 C 0.40363 0.80502 0.41777 0.0
H1713 H 0.44176 0.84447 0.50063 0.0
H1714 H 0.39748 0.84301 0.45812 0.0
C1715 C 0.42234 0.7843 0.40957 0.0
C1716 C 0.13479 0.73325 0.13696 0.0
C1717 C 0.11911 0.74995 0.15806 0.0
H1718 H 0.14043 0.6866 0.11119 0.0
C1719 C 0.09593 0.73037 0.16929 0.0
H1720 H 0.15292 0.74727 0.12792 0.0
C1721 C 0.08843 0.69513 0.15912 0.0
C1722 C 0.10431 0.67857 0.13809 0.0
H1723 H 0.08333 0.74229 0.18549 0.0
H1724 H 0.07036 0.68084 0.16801 0.0
C1725 C 0.12767 0.69823 0.12739 0.0
C1726 C 0.14127 0.3182 0.98445 0.0
C1727 C 0.11363 0.3061 0.96282 0.0
H1728 H 0.18659 0.33282 0.9868 0.0
C1729 C 0.11124 0.29871 0.92543 0.0
H1730 H 0.144 0.32407 1.01338 0.0
C1731 C 0.13576 0.30424 0.91002 0.0
C1732 C 0.16344 0.31718 0.93158 0.0
H1733 H 0.09031 0.2896 0.9079 0.0
H1734 H 0.13284 0.29935 0.88103 0.0
C1735 C 0.16577 0.32354 0.96911 0.0
C1736 C 0.5244 0.74866 0.94071 0.0
C1737 C 0.50756 0.76944 0.9539 0.0
H1738 H 0.53988 0.7047 0.94652 0.0
C1739 C 0.48386 0.75493 0.96782 0.0
H1740 H 0.54191 0.75853 0.92799 0.0
C1741 C 0.48212 0.72323 0.97756 0.0
C1742 C 0.50484 0.7073 0.97477 0.0
H1743 H 0.46941 0.76981 0.97627 0.0
H1744 H 0.4665 0.71466 0.99351 0.0
C1745 C 0.52301 0.71734 0.95117 0.0
C1746 C 0.2156 0.77099 0.7708 0.0
C1747 C 0.20073 0.79347 0.78568 0.0
H1748 H 0.25699 0.75995 0.76914 0.0
C1749 C 0.21569 0.82032 0.81262 0.0
H1750 H 0.20441 0.7507 0.74909 0.0
C1751 C 0.24542 0.82671 0.82199 0.0
C1752 C 0.26063 0.8054 0.80612 0.0
H1753 H 0.2048 0.83861 0.8234 0.0
H1754 H 0.25664 0.84965 0.84 0.0
C1755 C 0.24553 0.77651 0.78173 0.0
C1756 C 0.08934 0.43137 0.56869 0.0
C1757 C 0.08794 0.43349 0.53201 0.0
H1758 H 0.09281 0.45856 0.62188 0.0
C1759 C 0.08748 0.46411 0.52046 0.0
H1760 H 0.08949 0.40767 0.57802 0.0
C1761 C 0.08839 0.49219 0.54479 0.0
C1762 C 0.09058 0.49095 0.58168 0.0
H1763 H 0.08585 0.46635 0.49232 0.0
H1764 H 0.08761 0.51502 0.53418 0.0
C1765 C 0.09113 0.46024 0.59363 0.0
C1766 C 0.51218 0.29276 0.27929 0.0
C1767 C 0.53658 0.28709 0.30076 0.0
H1768 H 0.47426 0.31093 0.27702 0.0
C1769 C 0.53812 0.28956 0.33799 0.0
H1770 H 0.5105 0.29127 0.25052 0.0
C1771 C 0.51666 0.30047 0.35364 0.0
C1772 C 0.4935 0.3093 0.33228 0.0
H1773 H 0.55691 0.28573 0.35523 0.0
H1774 H 0.51889 0.30331 0.38253 0.0
C1775 C 0.49119 0.30408 0.29475 0.0
C1776 C 0.67643 0.58594 0.50465 0.0
C1777 C 0.66776 0.61037 0.48538 0.0
H1778 H 0.66849 0.55494 0.54468 0.0
C1779 C 0.64581 0.62493 0.49516 0.0
H1780 H 0.69313 0.57397 0.49768 0.0
C1781 C 0.63228 0.61457 0.52283 0.0
C1782 C 0.63989 0.58879 0.54054 0.0
H1783 H 0.63859 0.64365 0.48079 0.0
H1784 H 0.61479 0.62545 0.52904 0.0
C1785 C 0.66232 0.5749 0.53152 0.0
C1786 C 0.24884 0.8298 0.09539 0.0
C1787 C 0.25293 0.8645 0.09524 0.0
H1788 H 0.25893 0.79126 0.12428 0.0
C1789 C 0.26595 0.88692 0.12723 0.0
H1790 H 0.23826 0.81182 0.07138 0.0
C1791 C 0.27875 0.87529 0.1569 0.0
C1792 C 0.2779 0.84088 0.15559 0.0
H1793 H 0.26907 0.91383 0.12831 0.0
H1794 H 0.29128 0.89376 0.17958 0.0
C1795 C 0.26114 0.81806 0.12548 0.0
C1796 C 0.99616 0.5955 0.97984 0.0
C1797 C 1.00387 0.59658 0.94555 0.0
H1798 H 1.00869 0.59057 0.0362 0.0
C1799 C 1.03214 0.59301 0.94446 0.0
H1800 H 0.97486 0.59804 0.98279 0.0
C1801 C 0.05152 0.58896 0.97506 0.0
C1802 C 0.04426 0.58781 1.00932 0.0
H1803 H 1.03971 0.59356 0.91946 0.0
H1804 H 0.07277 0.58665 0.97156 0.0
C1805 C 1.0158 0.59109 1.01092 0.0
C1806 C 0.28497 0.27991 0.69661 0.0
C1807 C 0.30271 0.26318 0.67939 0.0
H1808 H 0.27804 0.30452 0.7456 0.0
C1809 C 0.32786 0.25797 0.69986 0.0
H1810 H 0.26535 0.28412 0.68159 0.0
C1811 C 0.33545 0.27023 0.73688 0.0
C1812 C 0.31766 0.2872 0.75391 0.0
H1813 H 0.34197 0.24529 0.68714 0.0
H1814 H 0.3551 0.26634 0.75213 0.0
C1815 C 0.29224 0.29156 0.73339 0.0
C1816 C 0.64692 0.59264 0.27289 0.0
C1817 C 0.64279 0.62124 0.29378 0.0
H1818 H 0.64068 0.56376 0.22043 0.0
C1819 C 0.62899 0.64332 0.27627 0.0
H1820 H 0.65742 0.57497 0.28545 0.0
C1821 C 0.61971 0.63702 0.23884 0.0
C1822 C 0.62362 0.60828 0.21799 0.0
H1823 H 0.62555 0.6656 0.2914 0.0
H1824 H 0.60905 0.65456 0.22633 0.0
C1825 C 0.6373 0.58611 0.23553 0.0
C1826 C 0.30115 0.9384 0.93604 0.0
C1827 C 0.27375 0.92026 0.93834 0.0
H1828 H 0.34173 0.9356 0.92162 0.0
C1829 C 0.26463 0.88636 0.92207 0.0
H1830 H 0.30884 0.96456 0.94826 0.0
C1831 C 0.28395 0.86966 0.90907 0.0
C1832 C 0.31208 0.88699 0.91002 0.0
H1833 H 0.24357 0.87182 0.92307 0.0
H1834 H 0.27724 0.84285 0.89944 0.0
C1835 C 0.32024 0.92175 0.92177 0.0
C1836 C 1.03111 0.60439 0.7553 0.0
C1837 C 1.00121 0.59105 0.75264 0.0
H1838 H 0.06877 0.61064 0.73157 0.0
C1839 C 0.98706 0.57285 0.71778 0.0
H1840 H 0.04385 0.61745 0.78111 0.0
C1841 C 1.00195 0.56867 0.68813 0.0
C1842 C 1.0322 0.58138 0.69169 0.0
H1843 H 0.9646 0.56034 0.71368 0.0
H1844 H 0.98977 0.55422 0.66265 0.0
C1845 C 0.04589 0.59982 0.72631 0.0
C1846 C 0.30177 0.24045 0.45968 0.0
C1847 C 0.29865 0.2553 0.4934 0.0
H1848 H 0.31311 0.24829 0.40916 0.0
C1849 C 0.30256 0.29051 0.50058 0.0
H1850 H 0.29894 0.21349 0.45326 0.0
C1851 C 0.31105 0.31051 0.47554 0.0
C1852 C 0.31549 0.29576 0.44256 0.0
H1853 H 0.30026 0.30287 0.52625 0.0
H1854 H 0.31493 0.33756 0.48243 0.0
C1855 C 0.30994 0.26046 0.43445 0.0
C1856 C 0.44545 0.65549 0.59677 0.0
C1857 C 0.44362 0.65198 0.63235 0.0
H1858 H 0.45125 0.63303 0.54616 0.0
C1859 C 0.44695 0.62213 0.64448 0.0
H1860 H 0.4421 0.67797 0.58642 0.0
C1861 C 0.45303 0.59654 0.62158 0.0
C1862 C 0.45491 0.59997 0.58578 0.0
H1863 H 0.44529 0.61882 0.67172 0.0
H1864 H 0.45705 0.57454 0.63238 0.0
C1865 C 0.45054 0.6296 0.57358 0.0
C1866 C 0.96452 1.02526 0.63623 0.0
C1867 C 0.96665 0.99203 0.63773 0.0
H1868 H 0.98534 0.07463 0.63032 0.0
C1869 C 0.99357 0.98415 0.63664 0.0
H1870 H 0.94428 1.03241 0.63694 0.0
C1871 C 1.01735 1.00864 0.63315 0.0
C1872 C 1.01476 0.0414 0.62986 0.0
H1873 H 0.99626 0.95895 0.63825 0.0
H1874 H 1.03763 1.00186 0.63332 0.0
C1875 C 0.98816 0.0495 0.63224 0.0
C1876 C 0.97136 0.15298 0.34846 0.0
C1877 C 0.96027 0.12643 0.3195 0.0
H1878 H 0.96441 0.19727 0.37787 0.0
C1879 C 0.93674 0.12803 0.29346 0.0
H1880 H 0.98955 0.15227 0.36888 0.0
C1881 C 0.9227 0.15408 0.2982 0.0
C1882 C 0.93157 0.17847 0.32948 0.0
H1883 H 0.92816 0.1081 0.27055 0.0
H1884 H 0.90372 0.15387 0.27857 0.0
C1885 C 0.95698 0.17879 0.35357 0.0
C1886 C 0.81542 0.23738 0.19924 0.0
C1887 C 0.835 0.21709 0.19482 0.0
H1888 H 0.77153 0.23876 0.20001 0.0
C1889 C 0.82489 0.18194 0.18789 0.0
H1890 H 0.82257 0.26449 0.20478 0.0
C1891 C 0.79598 0.16737 0.18519 0.0
C1892 C 0.77635 0.18748 0.18942 0.0
H1893 H 0.83927 0.1654 0.1843 0.0
H1894 H 0.78906 0.14023 0.18018 0.0
C1895 C 0.7863 0.22266 0.19671 0.0
C1896 C 0.24069 0.42966 0.36774 0.0
C1897 C 0.25428 0.46468 0.37287 0.0
H1898 H 0.24384 0.37714 0.36143 0.0
C1899 C 0.28481 0.47016 0.37626 0.0
H1900 H 0.21757 0.42264 0.36483 0.0
C1901 C 0.30032 0.44347 0.37498 0.0
C1902 C 0.28684 0.40846 0.36947 0.0
H1903 H 0.29724 0.49577 0.38029 0.0
H1904 H 0.32344 0.45061 0.378 0.0
C1905 C 0.25621 0.40281 0.36574 0.0
C1906 C 0.31031 0.51598 0.15248 0.0
C1907 C 0.30818 0.48148 0.14179 0.0
H1908 H 0.28875 0.55656 0.15418 0.0
C1909 C 0.28078 0.46096 0.1263 0.0
H1910 H 0.33102 0.53266 0.16427 0.0
C1911 C 0.25645 0.47466 0.12052 0.0
C1912 C 0.25865 0.50937 0.13003 0.0
H1913 H 0.27818 0.43428 0.11772 0.0
H1914 H 0.23588 0.45794 0.10824 0.0
C1915 C 0.28594 0.52971 0.14673 0.0
C1916 C 0.90704 0.94406 0.31008 0.0
C1917 C 0.93399 0.94515 0.33143 0.0
H1918 H 0.86179 0.92104 0.29701 0.0
C1919 C 0.93551 0.92301 0.35638 0.0
H1920 H 0.90509 0.96087 0.29071 0.0
C1921 C 0.91072 0.90099 0.36055 0.0
C1922 C 0.88385 0.89969 0.33921 0.0
H1923 H 0.95575 0.9235 0.37371 0.0
H1924 H 0.91258 0.88554 0.3812 0.0
C1925 C 0.88225 0.92131 0.31372 0.0
C1926 C 0.75414 0.18936 0.90855 0.0
C1927 C 0.75316 0.15887 0.8861 0.0
H1928 H 0.77091 0.24295 0.92312 0.0
C1929 C 0.77068 0.1615 0.86003 0.0
H1930 H 0.74092 0.18914 0.9287 0.0
C1931 C 0.78751 0.19315 0.85602 0.0
C1932 C 0.78817 0.22366 0.87838 0.0
H1933 H 0.7704 0.13927 0.84151 0.0
H1934 H 0.79985 0.19371 0.83496 0.0
C1935 C 0.77144 0.22068 0.9052 0.0
loop_
_geom_bond_atom_site_label_1
_geom_bond_atom_site_label_2
_geom_bond_distance
_geom_bond_site_symmetry_2
_ccdc_geom_bond_type
Co0 O1 2.216 . S
Co0 O2 2.091 . S
Co0 O4 2.004 1_455 S
Co0 O10 2.021 . S
Co0 O12 2.137 . S
Co0 O13 2.244 . S
O1 Co0 2.216 . S
O1 C8 1.247 . S
O2 Co0 2.091 . S
O2 C8 1.261 . S
C3 O12 1.247 . S
C3 O13 1.272 . S
O4 Co0 2.004 1_655 S
O4 C9 1.259 . S
Co5 O6 2.061 . S
Co5 O11 2.052 . S
Co5 O13 2.135 1_655 S
O6 Co5 2.061 . S
O6 C9 1.235 . S
C7 O10 1.238 . S
C7 O11 1.241 1_455 S
C8 O1 1.247 . S
C8 O2 1.261 . S
C9 O4 1.259 . S
C9 O6 1.235 . S
O10 Co0 2.021 . S
O10 C7 1.238 . S
O11 Co5 2.052 . S
O11 C7 1.241 1_655 S
O12 Co0 2.137 . S
O12 C3 1.247 . S
O13 Co0 2.244 . S
O13 C3 1.272 . S
O13 Co5 2.135 1_455 S
Co14 O15 2.216 . S
Co14 O16 2.091 . S
Co14 O18 2.004 . S
Co14 O24 2.021 . S
Co14 O26 2.137 . S
Co14 O27 2.244 . S
O15 Co14 2.216 . S
O15 C22 1.247 . S
O16 Co14 2.091 . S
O16 C22 1.261 . S
C17 O26 1.247 . S
C17 O27 1.272 . S
O18 Co14 2.004 . S
O18 C23 1.259 . S
Co19 O20 2.061 . S
Co19 O25 2.052 . S
Co19 O27 2.135 . S
O20 Co19 2.061 . S
O20 C23 1.235 . S
C21 O24 1.238 . S
C21 O25 1.241 . S
C22 O15 1.247 . S
C22 O16 1.261 . S
C23 O18 1.259 . S
C23 O20 1.235 . S
O24 Co14 2.021 . S
O24 C21 1.238 . S
O25 Co19 2.052 . S
O25 C21 1.241 . S
O26 Co14 2.137 . S
O26 C17 1.247 . S
O27 Co14 2.244 . S
O27 C17 1.272 . S
O27 Co19 2.135 . S
Co28 O29 2.216 . S
Co28 O30 2.091 . S
Co28 O32 2.004 . S
Co28 O38 2.021 . S
Co28 O40 2.137 . S
Co28 O41 2.244 . S
O29 Co28 2.216 . S
O29 C36 1.247 . S
O30 Co28 2.091 . S
O30 C36 1.261 . S
C31 O40 1.247 . S
C31 O41 1.272 . S
O32 Co28 2.004 . S
O32 C37 1.259 . S
Co33 O34 2.061 . S
Co33 O39 2.052 . S
Co33 O41 2.135 . S
O34 Co33 2.061 . S
O34 C37 1.235 . S
C35 O38 1.238 . S
C35 O39 1.241 . S
C36 O29 1.247 . S
C36 O30 1.261 . S
C37 O32 1.259 . S
C37 O34 1.235 . S
O38 Co28 2.021 . S
O38 C35 1.238 . S
O39 Co33 2.052 . S
O39 C35 1.241 . S
O40 Co28 2.137 . S
O40 C31 1.247 . S
O41 Co28 2.244 . S
O41 C31 1.272 . S
O41 Co33 2.135 . S
Co42 O43 2.216 . S
Co42 O44 2.091 . S
Co42 O46 2.004 . S
Co42 O52 2.021 . S
Co42 O54 2.137 . S
Co42 O55 2.244 . S
O43 Co42 2.216 . S
O43 C50 1.247 . S
O44 Co42 2.091 . S
O44 C50 1.261 . S
C45 O54 1.247 . S
C45 O55 1.272 . S
O46 Co42 2.004 . S
O46 C51 1.259 . S
Co47 O48 2.061 . S
Co47 O53 2.052 . S
Co47 O55 2.135 . S
O48 Co47 2.061 . S
O48 C51 1.235 . S
C49 O52 1.238 . S
C49 O53 1.241 . S
C50 O43 1.247 . S
C50 O44 1.261 . S
C51 O46 1.259 . S
C51 O48 1.235 . S
O52 Co42 2.021 . S
O52 C49 1.238 . S
O53 Co47 2.052 . S
O53 C49 1.241 . S
O54 Co42 2.137 . S
O54 C45 1.247 . S
O55 Co42 2.244 . S
O55 C45 1.272 . S
O55 Co47 2.135 . S
Co56 O57 2.216 . S
Co56 O58 2.091 . S
Co56 O60 2.004 . S
Co56 O66 2.021 . S
Co56 O68 2.137 . S
Co56 O69 2.244 . S
O57 Co56 2.216 . S
O57 C64 1.247 . S
O58 Co56 2.091 . S
O58 C64 1.261 . S
C59 O68 1.247 . S
C59 O69 1.272 . S
O60 Co56 2.004 . S
O60 C65 1.259 . S
Co61 O62 2.061 . S
Co61 O67 2.052 . S
Co61 O69 2.135 . S
O62 Co61 2.061 . S
O62 C65 1.235 . S
C63 O66 1.238 . S
C63 O67 1.241 . S
C64 O57 1.247 . S
C64 O58 1.261 . S
C65 O60 1.259 . S
C65 O62 1.235 . S
O66 Co56 2.021 . S
O66 C63 1.238 . S
O67 Co61 2.052 . S
O67 C63 1.241 . S
O68 Co56 2.137 . S
O68 C59 1.247 . S
O69 Co56 2.244 . S
O69 C59 1.272 . S
O69 Co61 2.135 . S
Co70 O71 2.216 . S
Co70 O72 2.091 . S
Co70 O74 2.004 . S
Co70 O80 2.021 . S
Co70 O82 2.137 . S
Co70 O83 2.244 . S
O71 Co70 2.216 . S
O71 C78 1.247 . S
O72 Co70 2.091 . S
O72 C78 1.261 . S
C73 O82 1.247 . S
C73 O83 1.272 . S
O74 Co70 2.004 . S
O74 C79 1.259 . S
Co75 O76 2.061 . S
Co75 O81 2.052 . S
Co75 O83 2.135 . S
O76 Co75 2.061 . S
O76 C79 1.235 . S
C77 O80 1.238 . S
C77 O81 1.241 . S
C78 O71 1.247 . S
C78 O72 1.261 . S
C79 O74 1.259 . S
C79 O76 1.235 . S
O80 Co70 2.021 . S
O80 C77 1.238 . S
O81 Co75 2.052 . S
O81 C77 1.241 . S
O82 Co70 2.137 . S
O82 C73 1.247 . S
O83 Co70 2.244 . S
O83 C73 1.272 . S
O83 Co75 2.135 . S
Co84 O85 2.216 . S
Co84 O86 2.091 . S
Co84 O88 2.004 . S
Co84 O94 2.021 . S
Co84 O96 2.137 . S
Co84 O97 2.244 . S
O85 Co84 2.216 . S
O85 C92 1.247 . S
O86 Co84 2.091 . S
O86 C92 1.261 . S
C87 O96 1.247 . S
C87 O97 1.272 . S
O88 Co84 2.004 . S
O88 C93 1.259 . S
Co89 O90 2.061 . S
Co89 O95 2.052 . S
Co89 O97 2.135 . S
O90 Co89 2.061 . S
O90 C93 1.235 . S
C91 O94 1.238 . S
C91 O95 1.241 . S
C92 O85 1.247 . S
C92 O86 1.261 . S
C93 O88 1.259 . S
C93 O90 1.235 . S
O94 Co84 2.021 . S
O94 C91 1.238 . S
O95 Co89 2.052 . S
O95 C91 1.241 . S
O96 Co84 2.137 . S
O96 C87 1.247 . S
O97 Co84 2.244 . S
O97 C87 1.272 . S
O97 Co89 2.135 . S
Co98 O99 2.216 . S
Co98 O100 2.091 . S
Co98 O102 2.004 1_455 S
Co98 O108 2.021 . S
Co98 O110 2.137 . S
Co98 O111 2.244 1_556 S
O99 Co98 2.216 . S
O99 C106 1.247 . S
O100 Co98 2.091 . S
O100 C106 1.261 . S
C101 O110 1.247 1_554 S
C101 O111 1.272 . S
O102 Co98 2.004 1_655 S
O102 C107 1.259 . S
Co103 O104 2.061 1_554 S
Co103 O109 2.039 1_655 S
Co103 O111 2.135 1_655 S
O104 Co103 2.061 1_556 S
O104 C107 1.235 . S
C105 O108 1.238 1_554 S
C105 O109 1.253 . S
C106 O99 1.247 . S
C106 O100 1.261 . S
C107 O102 1.259 . S
C107 O104 1.235 . S
O108 Co98 2.021 . S
O108 C105 1.238 1_556 S
O109 Co103 2.039 1_455 S
O109 C105 1.253 . S
O110 Co98 2.137 . S
O110 C101 1.247 1_556 S
O111 Co98 2.244 1_554 S
O111 C101 1.272 . S
O111 Co103 2.135 1_455 S
Co112 O113 2.216 . S
Co112 O114 2.091 . S
Co112 O116 2.004 . S
Co112 O122 2.021 . S
Co112 O124 2.137 . S
Co112 O125 2.244 . S
O113 Co112 2.216 . S
O113 C120 1.247 . S
O114 Co112 2.091 . S
O114 C120 1.261 . S
C115 O124 1.247 . S
C115 O125 1.272 . S
O116 Co112 2.004 . S
O116 C121 1.259 1_545 S
Co117 O118 2.061 1_545 S
Co117 O123 2.052 . S
Co117 O125 2.135 . S
O118 Co117 2.061 1_565 S
O118 C121 1.235 . S
C119 O122 1.238 . S
C119 O123 1.241 . S
C120 O113 1.247 . S
C120 O114 1.261 . S
C121 O116 1.259 1_565 S
C121 O118 1.235 . S
O122 Co112 2.021 . S
O122 C119 1.238 . S
O123 Co117 2.052 . S
O123 C119 1.241 . S
O124 Co112 2.137 . S
O124 C115 1.247 . S
O125 Co112 2.244 . S
O125 C115 1.272 . S
O125 Co117 2.135 . S
Co126 O127 2.216 . S
Co126 O128 2.091 . S
Co126 O130 2.004 . S
Co126 O136 2.021 . S
Co126 O138 2.137 . S
Co126 O139 2.244 . S
O127 Co126 2.216 . S
O127 C134 1.247 . S
O128 Co126 2.091 . S
O128 C134 1.261 . S
C129 O138 1.247 . S
C129 O139 1.272 . S
O130 Co126 2.004 . S
O130 C135 1.259 . S
Co131 O132 2.061 . S
Co131 O137 2.052 . S
Co131 O139 2.135 . S
O132 Co131 2.061 . S
O132 C135 1.235 . S
C133 O136 1.238 . S
C133 O137 1.241 . S
C134 O127 1.247 . S
C134 O128 1.261 . S
C135 O130 1.259 . S
C135 O132 1.235 . S
O136 Co126 2.021 . S
O136 C133 1.238 . S
O137 Co131 2.052 . S
O137 C133 1.241 . S
O138 Co126 2.137 . S
O138 C129 1.247 . S
O139 Co126 2.244 . S
O139 C129 1.272 . S
O139 Co131 2.135 . S
Co140 O141 2.216 . S
Co140 O142 2.091 . S
Co140 O144 2.004 . S
Co140 O150 2.021 . S
Co140 O152 2.137 . S
Co140 O153 2.244 . S
O141 Co140 2.216 . S
O141 C148 1.247 . S
O142 Co140 2.091 . S
O142 C148 1.261 . S
C143 O152 1.247 . S
C143 O153 1.272 . S
O144 Co140 2.004 . S
O144 C149 1.259 . S
Co145 O146 2.061 . S
Co145 O151 2.052 . S
Co145 O153 2.135 . S
O146 Co145 2.061 . S
O146 C149 1.235 . S
C147 O150 1.238 . S
C147 O151 1.241 . S
C148 O141 1.247 . S
C148 O142 1.261 . S
C149 O144 1.259 . S
C149 O146 1.235 . S
O150 Co140 2.021 . S
O150 C147 1.238 . S
O151 Co145 2.052 . S
O151 C147 1.241 . S
O152 Co140 2.137 . S
O152 C143 1.247 . S
O153 Co140 2.244 . S
O153 C143 1.272 . S
O153 Co145 2.135 . S
Co154 O155 2.216 . S
Co154 O156 2.091 1_556 S
Co154 O158 2.004 1_556 S
Co154 O164 2.021 1_556 S
Co154 O166 2.137 . S
Co154 O167 2.244 . S
O155 Co154 2.216 . S
O155 C162 1.247 . S
O156 Co154 2.091 1_554 S
O156 C162 1.261 1_554 S
C157 O166 1.247 . S
C157 O167 1.272 . S
O158 Co154 2.004 1_554 S
O158 C163 1.259 . S
Co159 O160 2.061 1_556 S
Co159 O165 2.052 1_556 S
Co159 O167 2.135 . S
O160 Co159 2.061 1_554 S
O160 C163 1.235 . S
C161 O164 1.238 . S
C161 O165 1.241 . S
C162 O155 1.247 . S
C162 O156 1.261 1_556 S
C163 O158 1.259 . S
C163 O160 1.235 . S
O164 Co154 2.021 1_554 S
O164 C161 1.238 . S
O165 Co159 2.052 1_554 S
O165 C161 1.241 . S
O166 Co154 2.137 . S
O166 C157 1.247 . S
O167 Co154 2.244 . S
O167 C157 1.272 . S
O167 Co159 2.135 . S
Co168 O169 2.216 . S
Co168 O170 2.091 . S
Co168 O172 2.004 . S
Co168 O178 2.021 . S
Co168 O180 2.137 . S
Co168 O181 2.244 . S
O169 Co168 2.216 . S
O169 C176 1.247 . S
O170 Co168 2.091 . S
O170 C176 1.261 . S
C171 O180 1.247 . S
C171 O181 1.272 . S
O172 Co168 2.004 . S
O172 C177 1.259 . S
Co173 O174 2.061 . S
Co173 O179 2.052 . S
Co173 O181 2.135 . S
O174 Co173 2.061 . S
O174 C177 1.235 . S
C175 O178 1.238 . S
C175 O179 1.241 . S
C176 O169 1.247 . S
C176 O170 1.261 . S
C177 O172 1.259 . S
C177 O174 1.235 . S
O178 Co168 2.021 . S
O178 C175 1.238 . S
O179 Co173 2.052 . S
O179 C175 1.241 . S
O180 Co168 2.137 . S
O180 C171 1.247 . S
O181 Co168 2.244 . S
O181 C171 1.272 . S
O181 Co173 2.135 . S
Co182 O183 2.216 . S
Co182 O184 2.091 . S
Co182 O186 2.004 . S
Co182 O192 2.021 . S
Co182 O194 2.137 . S
Co182 O195 2.244 . S
O183 Co182 2.216 . S
O183 C190 1.247 . S
O184 Co182 2.091 . S
O184 C190 1.261 . S
C185 O194 1.247 . S
C185 O195 1.272 . S
O186 Co182 2.004 . S
O186 C191 1.259 . S
Co187 O188 2.061 . S
Co187 O193 2.052 . S
Co187 O195 2.135 . S
O188 Co187 2.061 . S
O188 C191 1.235 . S
C189 O192 1.238 . S
C189 O193 1.241 . S
C190 O183 1.247 . S
C190 O184 1.261 . S
C191 O186 1.259 . S
C191 O188 1.235 . S
O192 Co182 2.021 . S
O192 C189 1.238 . S
O193 Co187 2.052 . S
O193 C189 1.241 . S
O194 Co182 2.137 . S
O194 C185 1.247 . S
O195 Co182 2.244 . S
O195 C185 1.272 . S
O195 Co187 2.135 . S
Co196 O197 2.216 . S
Co196 O198 2.091 . S
Co196 O200 2.004 . S
Co196 O206 2.021 . S
Co196 O208 2.137 . S
Co196 O209 2.244 . S
O197 Co196 2.216 . S
O197 C204 1.247 . S
O198 Co196 2.091 . S
O198 C204 1.261 . S
C199 O208 1.247 . S
C199 O209 1.272 . S
O200 Co196 2.004 . S
O200 C205 1.259 . S
Co201 O202 2.061 . S
Co201 O207 2.052 . S
Co201 O209 2.135 . S
O202 Co201 2.061 . S
O202 C205 1.235 . S
C203 O206 1.238 . S
C203 O207 1.241 . S
C204 O197 1.247 . S
C204 O198 1.261 . S
C205 O200 1.259 . S
C205 O202 1.235 . S
O206 Co196 2.021 . S
O206 C203 1.238 . S
O207 Co201 2.052 . S
O207 C203 1.241 . S
O208 Co196 2.137 . S
O208 C199 1.247 . S
O209 Co196 2.244 . S
O209 C199 1.272 . S
O209 Co201 2.135 . S
Co210 O211 2.216 . S
Co210 O212 2.091 . S
Co210 O214 2.004 . S
Co210 O220 2.021 . S
Co210 O222 2.137 . S
Co210 O223 2.244 . S
O211 Co210 2.216 . S
O211 C218 1.247 . S
O212 Co210 2.091 . S
O212 C218 1.261 . S
C213 O222 1.247 . S
C213 O223 1.272 . S
O214 Co210 2.004 . S
O214 C219 1.259 . S
Co215 O216 2.061 . S
Co215 O221 2.052 . S
Co215 O223 2.135 . S
O216 Co215 2.061 . S
O216 C219 1.235 . S
C217 O220 1.238 . S
C217 O221 1.241 . S
C218 O211 1.247 . S
C218 O212 1.261 . S
C219 O214 1.259 . S
C219 O216 1.235 . S
O220 Co210 2.021 . S
O220 C217 1.238 . S
O221 Co215 2.052 . S
O221 C217 1.241 . S
O222 Co210 2.137 . S
O222 C213 1.247 . S
O223 Co210 2.244 . S
O223 C213 1.272 . S
O223 Co215 2.135 . S
Co224 O225 2.216 . S
Co224 O226 2.091 . S
Co224 O228 2.004 1_545 S
Co224 O234 2.021 . S
Co224 O236 2.137 . S
Co224 O237 2.244 . S
O225 Co224 2.216 . S
O225 C232 1.247 . S
O226 Co224 2.091 . S
O226 C232 1.261 . S
C227 O236 1.247 . S
C227 O237 1.272 . S
O228 Co224 2.004 1_565 S
O228 C233 1.259 . S
Co229 O230 2.061 . S
Co229 O235 2.052 . S
Co229 O237 2.135 1_565 S
O230 Co229 2.061 . S
O230 C233 1.235 . S
C231 O234 1.228 1_565 S
C231 O235 1.241 . S
C232 O225 1.247 . S
C232 O226 1.261 . S
C233 O228 1.259 . S
C233 O230 1.235 . S
O234 Co224 2.021 . S
O234 C231 1.228 1_545 S
O235 Co229 2.052 . S
O235 C231 1.241 . S
O236 Co224 2.137 . S
O236 C227 1.247 . S
O237 Co224 2.244 . S
O237 C227 1.272 . S
O237 Co229 2.135 1_545 S
Co238 O239 2.216 . S
Co238 O240 2.091 . S
Co238 O242 2.004 . S
Co238 O248 2.021 . S
Co238 O250 2.137 . S
Co238 O251 2.244 . S
O239 Co238 2.216 . S
O239 C246 1.247 . S
O240 Co238 2.091 . S
O240 C246 1.261 . S
C241 O250 1.247 . S
C241 O251 1.272 . S
O242 Co238 2.004 . S
O242 C247 1.259 . S
Co243 O244 2.061 . S
Co243 O249 2.052 . S
Co243 O251 2.135 . S
O244 Co243 2.061 . S
O244 C247 1.235 . S
C245 O248 1.238 . S
C245 O249 1.241 . S
C246 O239 1.247 . S
C246 O240 1.261 . S
C247 O242 1.259 . S
C247 O244 1.235 . S
O248 Co238 2.021 . S
O248 C245 1.238 . S
O249 Co243 2.052 . S
O249 C245 1.241 . S
O250 Co238 2.137 . S
O250 C241 1.247 . S
O251 Co238 2.244 . S
O251 C241 1.272 . S
O251 Co243 2.135 . S
Co252 O253 2.216 . S
Co252 O254 2.091 . S
Co252 O256 2.004 . S
Co252 O262 2.021 . S
Co252 O264 2.137 . S
Co252 O265 2.244 . S
O253 Co252 2.216 . S
O253 C260 1.247 . S
O254 Co252 2.091 . S
O254 C260 1.261 . S
C255 O264 1.247 . S
C255 O265 1.272 . S
O256 Co252 2.004 . S
O256 C261 1.259 . S
Co257 O258 2.061 . S
Co257 O263 2.052 . S
Co257 O265 2.135 . S
O258 Co257 2.061 . S
O258 C261 1.235 . S
C259 O262 1.238 . S
C259 O263 1.241 . S
C260 O253 1.247 . S
C260 O254 1.261 . S
C261 O256 1.259 . S
C261 O258 1.235 . S
O262 Co252 2.021 . S
O262 C259 1.238 . S
O263 Co257 2.052 . S
O263 C259 1.241 . S
O264 Co252 2.137 . S
O264 C255 1.247 . S
O265 Co252 2.244 . S
O265 C255 1.272 . S
O265 Co257 2.135 . S
Co266 O267 2.216 1_545 S
Co266 O268 2.091 . S
Co266 O270 2.004 . S
Co266 O276 2.021 . S
Co266 O278 2.137 . S
Co266 O279 2.244 . S
O267 Co266 2.216 1_565 S
O267 C274 1.247 . S
O268 Co266 2.091 . S
O268 C274 1.261 1_545 S
C269 O278 1.247 . S
C269 O279 1.272 . S
O270 Co266 2.004 . S
O270 C275 1.259 . S
Co271 O272 2.061 . S
Co271 O277 2.052 . S
Co271 O279 2.135 . S
O272 Co271 2.061 . S
O272 C275 1.235 . S
C273 O276 1.238 . S
C273 O277 1.241 . S
C274 O267 1.247 . S
C274 O268 1.261 1_565 S
C275 O270 1.259 . S
C275 O272 1.235 . S
O276 Co266 2.021 . S
O276 C273 1.238 . S
O277 Co271 2.052 . S
O277 C273 1.241 . S
O278 Co266 2.137 . S
O278 C269 1.247 . S
O279 Co266 2.244 . S
O279 C269 1.272 . S
O279 Co271 2.135 . S
Co280 O281 2.216 . S
Co280 O282 2.091 . S
Co280 O284 2.004 . S
Co280 O290 2.021 . S
Co280 O292 2.137 . S
Co280 O293 2.244 . S
O281 Co280 2.216 . S
O281 C288 1.247 . S
O282 Co280 2.091 . S
O282 C288 1.261 . S
C283 O292 1.247 . S
C283 O293 1.272 . S
O284 Co280 2.004 . S
O284 C289 1.259 . S
Co285 O286 2.061 . S
Co285 O291 2.052 . S
Co285 O293 2.135 . S
O286 Co285 2.061 . S
O286 C289 1.235 . S
C287 O290 1.238 . S
C287 O291 1.241 . S
C288 O281 1.247 . S
C288 O282 1.261 . S
C289 O284 1.259 . S
C289 O286 1.235 . S
O290 Co280 2.021 . S
O290 C287 1.238 . S
O291 Co285 2.052 . S
O291 C287 1.241 . S
O292 Co280 2.137 . S
O292 C283 1.247 . S
O293 Co280 2.244 . S
O293 C283 1.272 . S
O293 Co285 2.135 . S
Co294 O295 2.216 . S
Co294 O296 2.091 . S
Co294 O298 2.004 . S
Co294 O304 2.021 . S
Co294 O306 2.137 . S
Co294 O307 2.244 . S
O295 Co294 2.216 . S
O295 C302 1.247 . S
O296 Co294 2.091 . S
O296 C302 1.261 . S
C297 O306 1.247 . S
C297 O307 1.272 . S
O298 Co294 2.004 . S
O298 C303 1.259 . S
Co299 O300 2.061 . S
Co299 O305 2.052 . S
Co299 O307 2.135 . S
O300 Co299 2.061 . S
O300 C303 1.235 . S
C301 O304 1.238 . S
C301 O305 1.241 . S
C302 O295 1.247 . S
C302 O296 1.261 . S
C303 O298 1.259 . S
C303 O300 1.235 . S
O304 Co294 2.021 . S
O304 C301 1.238 . S
O305 Co299 2.052 . S
O305 C301 1.241 . S
O306 Co294 2.137 . S
O306 C297 1.247 . S
O307 Co294 2.244 . S
O307 C297 1.272 . S
O307 Co299 2.135 . S
Co308 O309 2.216 . S
Co308 O310 2.091 . S
Co308 O312 2.004 . S
Co308 O318 2.021 . S
Co308 O320 2.137 . S
Co308 O321 2.244 . S
O309 Co308 2.216 . S
O309 C316 1.247 . S
O310 Co308 2.091 . S
O310 C316 1.261 . S
C311 O320 1.247 . S
C311 O321 1.272 . S
O312 Co308 2.004 . S
O312 C317 1.259 . S
Co313 O314 2.061 . S
Co313 O319 2.052 . S
Co313 O321 2.135 . S
O314 Co313 2.061 . S
O314 C317 1.235 . S
C315 O318 1.238 . S
C315 O319 1.241 . S
C316 O309 1.247 . S
C316 O310 1.261 . S
C317 O312 1.259 . S
C317 O314 1.235 . S
O318 Co308 2.021 . S
O318 C315 1.238 . S
O319 Co313 2.052 . S
O319 C315 1.241 . S
O320 Co308 2.137 . S
O320 C311 1.247 . S
O321 Co308 2.244 . S
O321 C311 1.272 . S
O321 Co313 2.135 . S
Co322 O323 2.216 . S
Co322 O324 2.091 . S
Co322 O326 2.004 . S
Co322 O332 2.021 . S
Co322 O334 2.137 . S
Co322 O335 2.244 . S
O323 Co322 2.216 . S
O323 C330 1.247 . S
O324 Co322 2.091 . S
O324 C330 1.261 . S
C325 O334 1.247 . S
C325 O335 1.272 . S
O326 Co322 2.004 . S
O326 C331 1.259 . S
Co327 O328 2.061 . S
Co327 O333 2.052 . S
Co327 O335 2.135 . S
O328 Co327 2.061 . S
O328 C331 1.235 . S
C329 O332 1.238 . S
C329 O333 1.241 . S
C330 O323 1.247 . S
C330 O324 1.261 . S
C331 O326 1.259 . S
C331 O328 1.235 . S
O332 Co322 2.021 . S
O332 C329 1.238 . S
O333 Co327 2.052 . S
O333 C329 1.241 . S
O334 Co322 2.137 . S
O334 C325 1.247 . S
O335 Co322 2.244 . S
O335 C325 1.272 . S
O335 Co327 2.135 . S
Tb336 C338 2.809 1_455 S
Tb336 O356 2.484 1_455 S
Tb336 O357 2.440 1_455 S
Tb336 O358 2.658 . S
Tb336 O359 2.409 . S
Tb336 O360 2.378 . S
Tb336 O364 2.325 . S
Tb336 O367 2.341 1_545 S
Tb337 C347 2.809 . S
Tb337 O358 2.325 . S
Tb337 O361 2.341 . S
Tb337 O362 2.484 . S
Tb337 O363 2.440 . S
Tb337 O364 2.658 . S
Tb337 O365 2.409 . S
Tb337 O366 2.399 . S
C338 Tb336 2.809 1_655 S
C338 C339 1.514 . S
C338 O356 1.248 . S
C338 O357 1.266 . S
C339 C338 1.514 . S
C339 C340 1.359 . S
C339 C344 1.348 . S
C340 C339 1.359 . S
C340 C341 1.380 . S
C340 H368 0.929 . S
C341 C340 1.380 . S
C341 C342 1.347 . S
C341 H369 0.931 . S
C342 C341 1.347 . S
C342 C343 1.369 . S
C343 C342 1.369 . S
C343 C344 1.408 . S
C343 H370 0.930 . S
C344 C339 1.348 . S
C344 C343 1.408 . S
C344 H371 0.930 . S
C345 O358 1.281 . S
C345 O359 1.254 . S
C346 O360 1.236 . S
C346 O361 1.266 . S
C347 Tb337 2.809 . S
C347 C348 1.519 . S
C347 O362 1.248 . S
C347 O363 1.266 . S
C348 C347 1.519 . S
C348 C349 1.355 1_545 S
C348 C353 1.346 1_545 S
C349 C348 1.355 1_565 S
C349 C350 1.380 . S
C349 H372 0.929 . S
C350 C349 1.380 . S
C350 C351 1.347 . S
C350 H373 0.931 . S
C351 C350 1.347 . S
C351 C352 1.369 . S
C352 C351 1.369 . S
C352 C353 1.408 . S
C352 H374 0.930 . S
C353 C348 1.346 1_565 S
C353 C352 1.408 . S
C353 H375 0.930 1_565 S
C354 O364 1.281 . S
C354 O365 1.254 . S
C355 O366 1.227 1_565 S
C355 O367 1.266 . S
O356 Tb336 2.484 1_655 S
O356 C338 1.248 . S
O357 Tb336 2.440 1_655 S
O357 C338 1.266 . S
O358 Tb336 2.658 . S
O358 Tb337 2.325 . S
O358 C345 1.281 . S
O359 Tb336 2.409 . S
O359 C345 1.254 . S
O360 Tb336 2.378 . S
O360 C346 1.236 . S
O361 Tb337 2.341 . S
O361 C346 1.266 . S
O362 Tb337 2.484 . S
O362 C347 1.248 . S
O363 Tb337 2.440 . S
O363 C347 1.266 . S
O364 Tb336 2.325 . S
O364 Tb337 2.658 . S
O364 C354 1.281 . S
O365 Tb337 2.409 . S
O365 C354 1.254 . S
O366 Tb337 2.399 . S
O366 C355 1.227 1_545 S
O367 Tb336 2.341 1_565 S
O367 C355 1.266 . S
H368 C340 0.929 . S
H369 C341 0.931 . S
H370 C343 0.930 . S
H371 C344 0.930 . S
H372 C349 0.929 . S
H373 C350 0.931 . S
H374 C352 0.930 . S
H375 C353 0.930 1_545 S
Tb376 C378 2.809 . S
Tb376 O396 2.484 . S
Tb376 O397 2.440 . S
Tb376 O398 2.658 . S
Tb376 O399 2.409 . S
Tb376 O400 2.378 . S
Tb376 O404 2.325 . S
Tb376 O407 2.341 . S
Tb377 C387 2.809 . S
Tb377 O398 2.325 . S
Tb377 O401 2.341 . S
Tb377 O402 2.484 . S
Tb377 O403 2.440 . S
Tb377 O404 2.658 . S
Tb377 O405 2.409 . S
Tb377 O406 2.378 . S
C378 Tb376 2.809 . S
C378 C379 1.514 . S
C378 O396 1.248 . S
C378 O397 1.266 . S
C379 C378 1.514 . S
C379 C380 1.359 . S
C379 C384 1.348 . S
C380 C379 1.359 . S
C380 C381 1.380 . S
C380 H408 0.929 . S
C381 C380 1.380 . S
C381 C382 1.347 . S
C381 H409 0.931 . S
C382 C381 1.347 . S
C382 C383 1.369 . S
C383 C382 1.369 . S
C383 C384 1.408 . S
C383 H410 0.930 . S
C384 C379 1.348 . S
C384 C383 1.408 . S
C384 H411 0.930 . S
C385 O398 1.281 . S
C385 O399 1.254 . S
C386 O400 1.236 . S
C386 O401 1.266 . S
C387 Tb377 2.809 . S
C387 C388 1.514 . S
C387 O402 1.248 . S
C387 O403 1.266 . S
C388 C387 1.514 . S
C388 C389 1.359 . S
C388 C393 1.348 . S
C389 C388 1.359 . S
C389 C390 1.380 . S
C389 H412 0.929 . S
C390 C389 1.380 . S
C390 C391 1.347 . S
C390 H413 0.931 . S
C391 C390 1.347 . S
C391 C392 1.369 . S
C392 C391 1.369 . S
C392 C393 1.408 . S
C392 H414 0.930 . S
C393 C388 1.348 . S
C393 C392 1.408 . S
C393 H415 0.930 . S
C394 O404 1.281 . S
C394 O405 1.254 . S
C395 O406 1.236 . S
C395 O407 1.266 . S
O396 Tb376 2.484 . S
O396 C378 1.248 . S
O397 Tb376 2.440 . S
O397 C378 1.266 . S
O398 Tb376 2.658 . S
O398 Tb377 2.325 . S
O398 C385 1.281 . S
O399 Tb376 2.409 . S
O399 C385 1.254 . S
O400 Tb376 2.378 . S
O400 C386 1.236 . S
O401 Tb377 2.341 . S
O401 C386 1.266 . S
O402 Tb377 2.484 . S
O402 C387 1.248 . S
O403 Tb377 2.440 . S
O403 C387 1.266 . S
O404 Tb376 2.325 . S
O404 Tb377 2.658 . S
O404 C394 1.281 . S
O405 Tb377 2.409 . S
O405 C394 1.254 . S
O406 Tb377 2.378 . S
O406 C395 1.236 . S
O407 Tb376 2.341 . S
O407 C395 1.266 . S
H408 C380 0.929 . S
H409 C381 0.931 . S
H410 C383 0.930 . S
H411 C384 0.930 . S
H412 C389 0.929 . S
H413 C390 0.931 . S
H414 C392 0.930 . S
H415 C393 0.930 . S
Tb416 C418 2.809 . S
Tb416 O436 2.484 . S
Tb416 O437 2.440 . S
Tb416 O438 2.658 . S
Tb416 O439 2.409 . S
Tb416 O440 2.378 1_545 S
Tb416 O444 2.325 . S
Tb416 O447 2.341 . S
Tb417 C427 2.809 . S
Tb417 O438 2.325 . S
Tb417 O441 2.341 1_545 S
Tb417 O442 2.484 . S
Tb417 O443 2.440 . S
Tb417 O444 2.658 . S
Tb417 O445 2.409 . S
Tb417 O446 2.378 . S
C418 Tb416 2.809 . S
C418 C419 1.514 1_545 S
C418 O436 1.248 . S
C418 O437 1.266 . S
C419 C418 1.514 1_565 S
C419 C420 1.359 . S
C419 C424 1.348 . S
C420 C419 1.359 . S
C420 C421 1.380 . S
C420 H448 0.929 . S
C421 C420 1.380 . S
C421 C422 1.347 . S
C421 H449 0.931 . S
C422 C421 1.347 . S
C422 C423 1.369 . S
C423 C422 1.369 . S
C423 C424 1.408 . S
C423 H450 0.930 . S
C424 C419 1.348 . S
C424 C423 1.408 . S
C424 H451 0.930 . S
C425 O438 1.281 . S
C425 O439 1.254 . S
C426 O440 1.236 . S
C426 O441 1.266 . S
C427 Tb417 2.809 . S
C427 C428 1.514 . S
C427 O442 1.248 . S
C427 O443 1.266 . S
C428 C427 1.514 . S
C428 C429 1.359 . S
C428 C433 1.348 . S
C429 C428 1.359 . S
C429 C430 1.380 . S
C429 H452 0.929 . S
C430 C429 1.380 . S
C430 C431 1.347 . S
C430 H453 0.931 . S
C431 C430 1.347 . S
C431 C432 1.369 . S
C432 C431 1.369 . S
C432 C433 1.408 . S
C432 H454 0.930 . S
C433 C428 1.348 . S
C433 C432 1.408 . S
C433 H455 0.930 . S
C434 O444 1.281 . S
C434 O445 1.254 . S
C435 O446 1.236 . S
C435 O447 1.266 . S
O436 Tb416 2.484 . S
O436 C418 1.248 . S
O437 Tb416 2.440 . S
O437 C418 1.266 . S
O438 Tb416 2.658 . S
O438 Tb417 2.325 . S
O438 C425 1.281 . S
O439 Tb416 2.409 . S
O439 C425 1.254 . S
O440 Tb416 2.378 1_565 S
O440 C426 1.236 . S
O441 Tb417 2.341 1_565 S
O441 C426 1.266 . S
O442 Tb417 2.484 . S
O442 C427 1.248 . S
O443 Tb417 2.440 . S
O443 C427 1.266 . S
O444 Tb416 2.325 . S
O444 Tb417 2.658 . S
O444 C434 1.281 . S
O445 Tb417 2.409 . S
O445 C434 1.254 . S
O446 Tb417 2.378 . S
O446 C435 1.236 . S
O447 Tb416 2.341 . S
O447 C435 1.266 . S
H448 C420 0.929 . S
H449 C421 0.931 . S
H450 C423 0.930 . S
H451 C424 0.930 . S
H452 C429 0.929 . S
H453 C430 0.931 . S
H454 C432 0.930 . S
H455 C433 0.930 . S
Tb456 C458 2.809 . S
Tb456 O476 2.484 . S
Tb456 O477 2.440 . S
Tb456 O478 2.658 . S
Tb456 O479 2.409 . S
Tb456 O480 2.378 . S
Tb456 O484 2.325 . S
Tb456 O487 2.341 . S
Tb457 C467 2.809 . S
Tb457 O478 2.325 . S
Tb457 O481 2.341 . S
Tb457 O482 2.484 . S
Tb457 O483 2.440 . S
Tb457 O484 2.658 . S
Tb457 O485 2.409 . S
Tb457 O486 2.378 . S
C458 Tb456 2.809 . S
C458 C459 1.514 . S
C458 O476 1.248 . S
C458 O477 1.266 . S
C459 C458 1.514 . S
C459 C460 1.359 . S
C459 C464 1.348 . S
C460 C459 1.359 . S
C460 C461 1.380 . S
C460 H488 0.929 . S
C461 C460 1.380 . S
C461 C462 1.347 . S
C461 H489 0.931 . S
C462 C461 1.347 . S
C462 C463 1.369 . S
C463 C462 1.369 . S
C463 C464 1.408 . S
C463 H490 0.930 . S
C464 C459 1.348 . S
C464 C463 1.408 . S
C464 H491 0.930 . S
C465 O478 1.281 . S
C465 O479 1.254 . S
C466 O480 1.236 . S
C466 O481 1.266 . S
C467 Tb457 2.809 . S
C467 C468 1.514 . S
C467 O482 1.248 . S
C467 O483 1.266 . S
C468 C467 1.514 . S
C468 C469 1.359 . S
C468 C473 1.348 . S
C469 C468 1.359 . S
C469 C470 1.380 . S
C469 H492 0.929 . S
C470 C469 1.380 . S
C470 C471 1.347 . S
C470 H493 0.931 . S
C471 C470 1.347 . S
C471 C472 1.369 . S
C472 C471 1.369 . S
C472 C473 1.408 . S
C472 H494 0.930 . S
C473 C468 1.348 . S
C473 C472 1.408 . S
C473 H495 0.930 . S
C474 O484 1.281 . S
C474 O485 1.254 . S
C475 O486 1.236 . S
C475 O487 1.266 . S
O476 Tb456 2.484 . S
O476 C458 1.248 . S
O477 Tb456 2.440 . S
O477 C458 1.266 . S
O478 Tb456 2.658 . S
O478 Tb457 2.325 . S
O478 C465 1.281 . S
O479 Tb456 2.409 . S
O479 C465 1.254 . S
O480 Tb456 2.378 . S
O480 C466 1.236 . S
O481 Tb457 2.341 . S
O481 C466 1.266 . S
O482 Tb457 2.484 . S
O482 C467 1.248 . S
O483 Tb457 2.440 . S
O483 C467 1.266 . S
O484 Tb456 2.325 . S
O484 Tb457 2.658 . S
O484 C474 1.281 . S
O485 Tb457 2.409 . S
O485 C474 1.254 . S
O486 Tb457 2.378 . S
O486 C475 1.236 . S
O487 Tb456 2.341 . S
O487 C475 1.266 . S
H488 C460 0.929 . S
H489 C461 0.931 . S
H490 C463 0.930 . S
H491 C464 0.930 . S
H492 C469 0.929 . S
H493 C470 0.931 . S
H494 C472 0.930 . S
H495 C473 0.930 . S
Tb496 C498 2.809 . S
Tb496 O516 2.484 . S
Tb496 O517 2.440 . S
Tb496 O518 2.658 . S
Tb496 O519 2.409 1_455 S
Tb496 O520 2.378 . S
Tb496 O524 2.325 . S
Tb496 O527 2.341 . S
Tb497 C507 2.809 . S
Tb497 O518 2.325 1_565 S
Tb497 O521 2.341 1_565 S
Tb497 O522 2.484 . S
Tb497 O523 2.440 . S
Tb497 O524 2.658 1_565 S
Tb497 O525 2.409 1_565 S
Tb497 O526 2.378 1_565 S
C498 Tb496 2.809 . S
C498 C499 1.514 . S
C498 O516 1.248 . S
C498 O517 1.266 . S
C499 C498 1.514 . S
C499 C500 1.359 . S
C499 C504 1.348 1_455 S
C500 C499 1.359 . S
C500 C501 1.380 . S
C500 H528 0.929 . S
C501 C500 1.380 . S
C501 C502 1.347 . S
C501 H529 0.931 . S
C502 C501 1.347 . S
C502 C503 1.369 1_455 S
C503 C502 1.369 1_655 S
C503 C504 1.408 . S
C503 H530 0.930 . S
C504 C499 1.348 1_655 S
C504 C503 1.408 . S
C504 H531 0.930 . S
C505 O518 1.281 1_655 S
C505 O519 1.254 . S
C506 O520 1.236 . S
C506 O521 1.266 . S
C507 Tb497 2.809 . S
C507 C508 1.514 . S
C507 O522 1.248 . S
C507 O523 1.266 . S
C508 C507 1.514 . S
C508 C509 1.359 . S
C508 C513 1.348 . S
C509 C508 1.359 . S
C509 C510 1.380 . S
C509 H532 0.929 . S
C510 C509 1.380 . S
C510 C511 1.347 . S
C510 H533 0.931 . S
C511 C510 1.347 . S
C511 C512 1.369 . S
C512 C511 1.369 . S
C512 C513 1.408 . S
C512 H534 0.930 . S
C513 C508 1.348 . S
C513 C512 1.408 . S
C513 H535 0.930 . S
C514 O524 1.281 . S
C514 O525 1.254 . S
C515 O526 1.236 . S
C515 O527 1.266 . S
O516 Tb496 2.484 . S
O516 C498 1.248 . S
O517 Tb496 2.440 . S
O517 C498 1.266 . S
O518 Tb496 2.658 . S
O518 Tb497 2.325 1_545 S
O518 C505 1.281 1_455 S
O519 Tb496 2.409 1_655 S
O519 C505 1.254 . S
O520 Tb496 2.378 . S
O520 C506 1.236 . S
O521 Tb497 2.341 1_545 S
O521 C506 1.266 . S
O522 Tb497 2.484 . S
O522 C507 1.248 . S
O523 Tb497 2.440 . S
O523 C507 1.266 . S
O524 Tb496 2.325 . S
O524 Tb497 2.658 1_545 S
O524 C514 1.281 . S
O525 Tb497 2.409 1_545 S
O525 C514 1.254 . S
O526 Tb497 2.378 1_545 S
O526 C515 1.236 . S
O527 Tb496 2.341 . S
O527 C515 1.266 . S
H528 C500 0.929 . S
H529 C501 0.931 . S
H530 C503 0.930 . S
H531 C504 0.930 . S
H532 C509 0.929 . S
H533 C510 0.931 . S
H534 C512 0.930 . S
H535 C513 0.930 . S
Tb536 C538 2.809 . S
Tb536 O556 2.484 . S
Tb536 O557 2.440 . S
Tb536 O558 2.658 . S
Tb536 O559 2.409 . S
Tb536 O560 2.378 . S
Tb536 O564 2.325 . S
Tb536 O567 2.341 . S
Tb537 C547 2.809 . S
Tb537 O558 2.325 . S
Tb537 O561 2.341 . S
Tb537 O562 2.484 . S
Tb537 O563 2.440 . S
Tb537 O564 2.658 . S
Tb537 O565 2.409 . S
Tb537 O566 2.378 . S
C538 Tb536 2.809 . S
C538 C539 1.514 . S
C538 O556 1.248 . S
C538 O557 1.266 . S
C539 C538 1.514 . S
C539 C540 1.359 . S
C539 C544 1.348 . S
C540 C539 1.359 . S
C540 C541 1.380 . S
C540 H568 0.929 . S
C541 C540 1.380 . S
C541 C542 1.347 . S
C541 H569 0.931 . S
C542 C541 1.347 . S
C542 C543 1.369 . S
C543 C542 1.369 . S
C543 C544 1.408 . S
C543 H570 0.930 . S
C544 C539 1.348 . S
C544 C543 1.408 . S
C544 H571 0.930 . S
C545 O558 1.281 . S
C545 O559 1.254 . S
C546 O560 1.236 . S
C546 O561 1.266 . S
C547 Tb537 2.809 . S
C547 C548 1.514 . S
C547 O562 1.248 . S
C547 O563 1.266 . S
C548 C547 1.514 . S
C548 C549 1.359 . S
C548 C553 1.348 . S
C549 C548 1.359 . S
C549 C550 1.380 . S
C549 H572 0.929 . S
C550 C549 1.380 . S
C550 C551 1.347 . S
C550 H573 0.931 . S
C551 C550 1.347 . S
C551 C552 1.369 . S
C552 C551 1.369 . S
C552 C553 1.408 . S
C552 H574 0.930 . S
C553 C548 1.348 . S
C553 C552 1.408 . S
C553 H575 0.930 . S
C554 O564 1.281 . S
C554 O565 1.254 . S
C555 O566 1.236 . S
C555 O567 1.266 . S
O556 Tb536 2.484 . S
O556 C538 1.248 . S
O557 Tb536 2.440 . S
O557 C538 1.266 . S
O558 Tb536 2.658 . S
O558 Tb537 2.325 . S
O558 C545 1.281 . S
O559 Tb536 2.409 . S
O559 C545 1.254 . S
O560 Tb536 2.378 . S
O560 C546 1.236 . S
O561 Tb537 2.341 . S
O561 C546 1.266 . S
O562 Tb537 2.484 . S
O562 C547 1.248 . S
O563 Tb537 2.440 . S
O563 C547 1.266 . S
O564 Tb536 2.325 . S
O564 Tb537 2.658 . S
O564 C554 1.281 . S
O565 Tb537 2.409 . S
O565 C554 1.254 . S
O566 Tb537 2.378 . S
O566 C555 1.236 . S
O567 Tb536 2.341 . S
O567 C555 1.266 . S
H568 C540 0.929 . S
H569 C541 0.931 . S
H570 C543 0.930 . S
H571 C544 0.930 . S
H572 C549 0.929 . S
H573 C550 0.931 . S
H574 C552 0.930 . S
H575 C553 0.930 . S
Tb576 C578 2.809 . S
Tb576 O596 2.484 1_545 S
Tb576 O597 2.440 . S
Tb576 O598 2.658 . S
Tb576 O599 2.409 . S
Tb576 O600 2.378 . S
Tb576 O604 2.325 . S
Tb576 O607 2.341 . S
Tb577 C587 2.809 . S
Tb577 O598 2.325 . S
Tb577 O601 2.341 . S
Tb577 O602 2.484 . S
Tb577 O603 2.440 . S
Tb577 O604 2.658 . S
Tb577 O605 2.409 1_545 S
Tb577 O606 2.378 . S
C578 Tb576 2.809 . S
C578 C579 1.514 . S
C578 O596 1.248 1_545 S
C578 O597 1.266 . S
C579 C578 1.514 . S
C579 C580 1.359 1_545 S
C579 C584 1.348 . S
C580 C579 1.359 1_565 S
C580 C581 1.380 . S
C580 H608 0.929 . S
C581 C580 1.380 . S
C581 C582 1.347 . S
C581 H609 0.931 . S
C582 C581 1.347 . S
C582 C583 1.369 1_565 S
C583 C582 1.369 1_545 S
C583 C584 1.408 . S
C583 H610 0.930 . S
C584 C579 1.348 . S
C584 C583 1.408 . S
C584 H611 0.930 . S
C585 O598 1.281 . S
C585 O599 1.254 . S
C586 O600 1.236 . S
C586 O601 1.266 . S
C587 Tb577 2.809 . S
C587 C588 1.514 . S
C587 O602 1.248 . S
C587 O603 1.266 . S
C588 C587 1.514 . S
C588 C589 1.359 . S
C588 C593 1.348 . S
C589 C588 1.359 . S
C589 C590 1.380 . S
C589 H612 0.929 . S
C590 C589 1.380 . S
C590 C591 1.347 . S
C590 H613 0.931 . S
C591 C590 1.347 . S
C591 C592 1.369 . S
C592 C591 1.369 . S
C592 C593 1.408 . S
C592 H614 0.930 . S
C593 C588 1.348 . S
C593 C592 1.408 . S
C593 H615 0.930 . S
C594 O604 1.281 1_565 S
C594 O605 1.254 . S
C595 O606 1.236 . S
C595 O607 1.266 . S
O596 Tb576 2.484 1_565 S
O596 C578 1.248 1_565 S
O597 Tb576 2.440 . S
O597 C578 1.266 . S
O598 Tb576 2.658 . S
O598 Tb577 2.325 . S
O598 C585 1.281 . S
O599 Tb576 2.409 . S
O599 C585 1.254 . S
O600 Tb576 2.378 . S
O600 C586 1.236 . S
O601 Tb577 2.341 . S
O601 C586 1.266 . S
O602 Tb577 2.484 . S
O602 C587 1.248 . S
O603 Tb577 2.440 . S
O603 C587 1.266 . S
O604 Tb576 2.325 . S
O604 Tb577 2.658 . S
O604 C594 1.281 1_545 S
O605 Tb577 2.409 1_565 S
O605 C594 1.254 . S
O606 Tb577 2.378 . S
O606 C595 1.236 . S
O607 Tb576 2.341 . S
O607 C595 1.266 . S
H608 C580 0.929 . S
H609 C581 0.931 . S
H610 C583 0.930 . S
H611 C584 0.930 . S
H612 C589 0.929 . S
H613 C590 0.931 . S
H614 C592 0.930 . S
H615 C593 0.930 . S
Tb616 C618 2.809 . S
Tb616 O636 2.484 . S
Tb616 O637 2.440 . S
Tb616 O638 2.658 . S
Tb616 O639 2.409 . S
Tb616 O640 2.378 . S
Tb616 O644 2.325 . S
Tb616 O647 2.341 . S
Tb617 C627 2.809 . S
Tb617 O638 2.325 . S
Tb617 O641 2.341 . S
Tb617 O642 2.484 . S
Tb617 O643 2.440 . S
Tb617 O644 2.658 . S
Tb617 O645 2.409 . S
Tb617 O646 2.378 . S
C618 Tb616 2.809 . S
C618 C619 1.514 . S
C618 O636 1.248 . S
C618 O637 1.266 . S
C619 C618 1.514 . S
C619 C620 1.359 . S
C619 C624 1.348 . S
C620 C619 1.359 . S
C620 C621 1.380 . S
C620 H648 0.929 . S
C621 C620 1.380 . S
C621 C622 1.347 . S
C621 H649 0.931 . S
C622 C621 1.347 . S
C622 C623 1.369 . S
C623 C622 1.369 . S
C623 C624 1.408 . S
C623 H650 0.930 . S
C624 C619 1.348 . S
C624 C623 1.408 . S
C624 H651 0.930 . S
C625 O638 1.281 . S
C625 O639 1.254 . S
C626 O640 1.236 . S
C626 O641 1.266 . S
C627 Tb617 2.809 . S
C627 C628 1.514 . S
C627 O642 1.248 . S
C627 O643 1.266 . S
C628 C627 1.514 . S
C628 C629 1.359 . S
C628 C633 1.348 . S
C629 C628 1.359 . S
C629 C630 1.380 . S
C629 H652 0.929 . S
C630 C629 1.380 . S
C630 C631 1.347 . S
C630 H653 0.931 . S
C631 C630 1.347 . S
C631 C632 1.369 . S
C632 C631 1.369 . S
C632 C633 1.408 . S
C632 H654 0.930 . S
C633 C628 1.348 . S
C633 C632 1.408 . S
C633 H655 0.930 . S
C634 O644 1.281 . S
C634 O645 1.254 . S
C635 O646 1.236 . S
C635 O647 1.266 . S
O636 Tb616 2.484 . S
O636 C618 1.248 . S
O637 Tb616 2.440 . S
O637 C618 1.266 . S
O638 Tb616 2.658 . S
O638 Tb617 2.325 . S
O638 C625 1.281 . S
O639 Tb616 2.409 . S
O639 C625 1.254 . S
O640 Tb616 2.378 . S
O640 C626 1.236 . S
O641 Tb617 2.341 . S
O641 C626 1.266 . S
O642 Tb617 2.484 . S
O642 C627 1.248 . S
O643 Tb617 2.440 . S
O643 C627 1.266 . S
O644 Tb616 2.325 . S
O644 Tb617 2.658 . S
O644 C634 1.281 . S
O645 Tb617 2.409 . S
O645 C634 1.254 . S
O646 Tb617 2.378 . S
O646 C635 1.236 . S
O647 Tb616 2.341 . S
O647 C635 1.266 . S
H648 C620 0.929 . S
H649 C621 0.931 . S
H650 C623 0.930 . S
H651 C624 0.930 . S
H652 C629 0.929 . S
H653 C630 0.931 . S
H654 C632 0.930 . S
H655 C633 0.930 . S
Tb656 C658 2.809 . S
Tb656 O676 2.484 . S
Tb656 O677 2.440 . S
Tb656 O678 2.658 . S
Tb656 O679 2.409 . S
Tb656 O680 2.378 . S
Tb656 O684 2.325 . S
Tb656 O687 2.341 . S
Tb657 C667 2.809 . S
Tb657 O678 2.325 . S
Tb657 O681 2.341 . S
Tb657 O682 2.484 . S
Tb657 O683 2.440 . S
Tb657 O684 2.658 . S
Tb657 O685 2.409 . S
Tb657 O686 2.378 . S
C658 Tb656 2.809 . S
C658 C659 1.514 . S
C658 O676 1.248 . S
C658 O677 1.266 . S
C659 C658 1.514 . S
C659 C660 1.359 . S
C659 C664 1.348 . S
C660 C659 1.359 . S
C660 C661 1.380 1_554 S
C660 H688 0.929 . S
C661 C660 1.380 1_556 S
C661 C662 1.347 . S
C661 H689 0.931 . S
C662 C661 1.347 . S
C662 C663 1.369 1_556 S
C663 C662 1.369 1_554 S
C663 C664 1.408 . S
C663 H690 0.930 . S
C664 C659 1.348 . S
C664 C663 1.408 . S
C664 H691 0.930 . S
C665 O678 1.281 . S
C665 O679 1.254 . S
C666 O680 1.236 . S
C666 O681 1.266 . S
C667 Tb657 2.809 . S
C667 C668 1.514 . S
C667 O682 1.248 . S
C667 O683 1.266 . S
C668 C667 1.514 . S
C668 C669 1.359 . S
C668 C673 1.348 . S
C669 C668 1.359 . S
C669 C670 1.380 . S
C669 H692 0.929 . S
C670 C669 1.380 . S
C670 C671 1.347 . S
C670 H693 0.931 . S
C671 C670 1.347 . S
C671 C672 1.369 . S
C672 C671 1.369 . S
C672 C673 1.408 . S
C672 H694 0.930 . S
C673 C668 1.348 . S
C673 C672 1.408 . S
C673 H695 0.930 . S
C674 O684 1.281 . S
C674 O685 1.254 . S
C675 O686 1.236 . S
C675 O687 1.266 . S
O676 Tb656 2.484 . S
O676 C658 1.248 . S
O677 Tb656 2.440 . S
O677 C658 1.266 . S
O678 Tb656 2.658 . S
O678 Tb657 2.325 . S
O678 C665 1.281 . S
O679 Tb656 2.409 . S
O679 C665 1.254 . S
O680 Tb656 2.378 . S
O680 C666 1.236 . S
O681 Tb657 2.341 . S
O681 C666 1.266 . S
O682 Tb657 2.484 . S
O682 C667 1.248 . S
O683 Tb657 2.440 . S
O683 C667 1.266 . S
O684 Tb656 2.325 . S
O684 Tb657 2.658 . S
O684 C674 1.281 . S
O685 Tb657 2.409 . S
O685 C674 1.254 . S
O686 Tb657 2.378 . S
O686 C675 1.236 . S
O687 Tb656 2.341 . S
O687 C675 1.266 . S
H688 C660 0.929 . S
H689 C661 0.931 . S
H690 C663 0.930 . S
H691 C664 0.930 . S
H692 C669 0.929 . S
H693 C670 0.931 . S
H694 C672 0.930 . S
H695 C673 0.930 . S
Tb696 C698 2.809 . S
Tb696 O716 2.484 . S
Tb696 O717 2.440 . S
Tb696 O718 2.658 . S
Tb696 O719 2.409 . S
Tb696 O720 2.378 . S
Tb696 O724 2.325 . S
Tb696 O727 2.341 . S
Tb697 C707 2.809 . S
Tb697 O718 2.325 . S
Tb697 O721 2.341 . S
Tb697 O722 2.484 . S
Tb697 O723 2.440 . S
Tb697 O724 2.658 . S
Tb697 O725 2.409 . S
Tb697 O726 2.378 . S
C698 Tb696 2.809 . S
C698 C699 1.514 . S
C698 O716 1.248 . S
C698 O717 1.266 . S
C699 C698 1.514 . S
C699 C700 1.359 . S
C699 C704 1.348 . S
C700 C699 1.359 . S
C700 C701 1.380 . S
C700 H728 0.929 . S
C701 C700 1.380 . S
C701 C702 1.347 . S
C701 H729 0.931 . S
C702 C701 1.347 . S
C702 C703 1.369 . S
C703 C702 1.369 . S
C703 C704 1.408 . S
C703 H730 0.930 . S
C704 C699 1.348 . S
C704 C703 1.408 . S
C704 H731 0.930 . S
C705 O718 1.281 . S
C705 O719 1.254 . S
C706 O720 1.236 . S
C706 O721 1.266 . S
C707 Tb697 2.809 . S
C707 C708 1.514 . S
C707 O722 1.248 . S
C707 O723 1.266 . S
C708 C707 1.514 . S
C708 C709 1.359 . S
C708 C713 1.348 . S
C709 C708 1.359 . S
C709 C710 1.380 . S
C709 H732 0.929 . S
C710 C709 1.380 . S
C710 C711 1.347 . S
C710 H733 0.931 . S
C711 C710 1.347 . S
C711 C712 1.369 . S
C712 C711 1.369 . S
C712 C713 1.408 . S
C712 H734 0.930 . S
C713 C708 1.348 . S
C713 C712 1.408 . S
C713 H735 0.930 . S
C714 O724 1.281 . S
C714 O725 1.254 . S
C715 O726 1.236 . S
C715 O727 1.266 . S
O716 Tb696 2.484 . S
O716 C698 1.248 . S
O717 Tb696 2.440 . S
O717 C698 1.266 . S
O718 Tb696 2.658 . S
O718 Tb697 2.325 . S
O718 C705 1.281 . S
O719 Tb696 2.409 . S
O719 C705 1.254 . S
O720 Tb696 2.378 . S
O720 C706 1.236 . S
O721 Tb697 2.341 . S
O721 C706 1.266 . S
O722 Tb697 2.484 . S
O722 C707 1.248 . S
O723 Tb697 2.440 . S
O723 C707 1.266 . S
O724 Tb696 2.325 . S
O724 Tb697 2.658 . S
O724 C714 1.281 . S
O725 Tb697 2.409 . S
O725 C714 1.254 . S
O726 Tb697 2.378 . S
O726 C715 1.236 . S
O727 Tb696 2.341 . S
O727 C715 1.266 . S
H728 C700 0.929 . S
H729 C701 0.931 . S
H730 C703 0.930 . S
H731 C704 0.930 . S
H732 C709 0.929 . S
H733 C710 0.931 . S
H734 C712 0.930 . S
H735 C713 0.930 . S
Tb736 C738 2.809 1_455 S
Tb736 O756 2.484 1_455 S
Tb736 O757 2.440 1_455 S
Tb736 O758 2.658 . S
Tb736 O759 2.409 . S
Tb736 O760 2.378 . S
Tb736 O764 2.325 . S
Tb736 O767 2.341 . S
Tb737 C747 2.809 . S
Tb737 O758 2.325 . S
Tb737 O761 2.341 . S
Tb737 O762 2.484 . S
Tb737 O763 2.440 . S
Tb737 O764 2.658 . S
Tb737 O765 2.409 . S
Tb737 O766 2.378 . S
C738 Tb736 2.809 1_655 S
C738 C739 1.514 . S
C738 O756 1.248 . S
C738 O757 1.266 . S
C739 C738 1.514 . S
C739 C740 1.359 . S
C739 C744 1.348 . S
C740 C739 1.359 . S
C740 C741 1.380 . S
C740 H768 0.929 . S
C741 C740 1.380 . S
C741 C742 1.347 . S
C741 H769 0.931 . S
C742 C741 1.347 . S
C742 C743 1.369 . S
C743 C742 1.369 . S
C743 C744 1.408 . S
C743 H770 0.930 . S
C744 C739 1.348 . S
C744 C743 1.408 . S
C744 H771 0.930 . S
C745 O758 1.281 . S
C745 O759 1.254 . S
C746 O760 1.236 . S
C746 O761 1.266 . S
C747 Tb737 2.809 . S
C747 C748 1.514 . S
C747 O762 1.248 . S
C747 O763 1.266 . S
C748 C747 1.514 . S
C748 C749 1.359 . S
C748 C753 1.348 . S
C749 C748 1.359 . S
C749 C750 1.380 . S
C749 H772 0.929 . S
C750 C749 1.380 . S
C750 C751 1.347 . S
C750 H773 0.931 . S
C751 C750 1.347 . S
C751 C752 1.369 . S
C752 C751 1.369 . S
C752 C753 1.408 . S
C752 H774 0.930 . S
C753 C748 1.348 . S
C753 C752 1.408 . S
C753 H775 0.930 . S
C754 O764 1.281 . S
C754 O765 1.254 . S
C755 O766 1.236 . S
C755 O767 1.266 . S
O756 Tb736 2.484 1_655 S
O756 C738 1.248 . S
O757 Tb736 2.440 1_655 S
O757 C738 1.266 . S
O758 Tb736 2.658 . S
O758 Tb737 2.325 . S
O758 C745 1.281 . S
O759 Tb736 2.409 . S
O759 C745 1.254 . S
O760 Tb736 2.378 . S
O760 C746 1.236 . S
O761 Tb737 2.341 . S
O761 C746 1.266 . S
O762 Tb737 2.484 . S
O762 C747 1.248 . S
O763 Tb737 2.440 . S
O763 C747 1.266 . S
O764 Tb736 2.325 . S
O764 Tb737 2.658 . S
O764 C754 1.281 . S
O765 Tb737 2.409 . S
O765 C754 1.254 . S
O766 Tb737 2.378 . S
O766 C755 1.236 . S
O767 Tb736 2.341 . S
O767 C755 1.266 . S
H768 C740 0.929 . S
H769 C741 0.931 . S
H770 C743 0.930 . S
H771 C744 0.930 . S
H772 C749 0.929 . S
H773 C750 0.931 . S
H774 C752 0.930 . S
H775 C753 0.930 . S
Tb776 C778 2.809 . S
Tb776 O796 2.484 . S
Tb776 O797 2.440 . S
Tb776 O798 2.658 . S
Tb776 O799 2.409 . S
Tb776 O800 2.378 . S
Tb776 O804 2.325 . S
Tb776 O807 2.341 . S
Tb777 C787 2.809 . S
Tb777 O798 2.325 . S
Tb777 O801 2.341 . S
Tb777 O802 2.484 . S
Tb777 O803 2.440 . S
Tb777 O804 2.658 . S
Tb777 O805 2.409 . S
Tb777 O806 2.378 . S
C778 Tb776 2.809 . S
C778 C779 1.514 . S
C778 O796 1.248 . S
C778 O797 1.266 . S
C779 C778 1.514 . S
C779 C780 1.359 . S
C779 C784 1.348 . S
C780 C779 1.359 . S
C780 C781 1.380 . S
C780 H808 0.929 . S
C781 C780 1.380 . S
C781 C782 1.347 . S
C781 H809 0.931 . S
C782 C781 1.347 . S
C782 C783 1.369 . S
C783 C782 1.369 . S
C783 C784 1.408 . S
C783 H810 0.930 . S
C784 C779 1.348 . S
C784 C783 1.408 . S
C784 H811 0.930 . S
C785 O798 1.281 . S
C785 O799 1.254 . S
C786 O800 1.236 . S
C786 O801 1.266 . S
C787 Tb777 2.809 . S
C787 C788 1.514 . S
C787 O802 1.248 . S
C787 O803 1.266 . S
C788 C787 1.514 . S
C788 C789 1.359 . S
C788 C793 1.348 . S
C789 C788 1.359 . S
C789 C790 1.380 . S
C789 H812 0.929 . S
C790 C789 1.380 . S
C790 C791 1.347 . S
C790 H813 0.931 . S
C791 C790 1.347 . S
C791 C792 1.369 . S
C792 C791 1.369 . S
C792 C793 1.408 . S
C792 H814 0.930 . S
C793 C788 1.348 . S
C793 C792 1.408 . S
C793 H815 0.930 . S
C794 O804 1.281 . S
C794 O805 1.254 . S
C795 O806 1.236 . S
C795 O807 1.266 . S
O796 Tb776 2.484 . S
O796 C778 1.248 . S
O797 Tb776 2.440 . S
O797 C778 1.266 . S
O798 Tb776 2.658 . S
O798 Tb777 2.325 . S
O798 C785 1.281 . S
O799 Tb776 2.409 . S
O799 C785 1.254 . S
O800 Tb776 2.378 . S
O800 C786 1.236 . S
O801 Tb777 2.341 . S
O801 C786 1.266 . S
O802 Tb777 2.484 . S
O802 C787 1.248 . S
O803 Tb777 2.440 . S
O803 C787 1.266 . S
O804 Tb776 2.325 . S
O804 Tb777 2.658 . S
O804 C794 1.281 . S
O805 Tb777 2.409 . S
O805 C794 1.254 . S
O806 Tb777 2.378 . S
O806 C795 1.236 . S
O807 Tb776 2.341 . S
O807 C795 1.266 . S
H808 C780 0.929 . S
H809 C781 0.931 . S
H810 C783 0.930 . S
H811 C784 0.930 . S
H812 C789 0.929 . S
H813 C790 0.931 . S
H814 C792 0.930 . S
H815 C793 0.930 . S
Tb816 C818 2.809 . S
Tb816 O836 2.484 . S
Tb816 O837 2.440 . S
Tb816 O838 2.658 . S
Tb816 O839 2.409 . S
Tb816 O840 2.378 . S
Tb816 O844 2.325 . S
Tb816 O847 2.341 . S
Tb817 C827 2.809 . S
Tb817 O838 2.325 . S
Tb817 O841 2.341 . S
Tb817 O842 2.484 . S
Tb817 O843 2.440 . S
Tb817 O844 2.658 . S
Tb817 O845 2.409 . S
Tb817 O846 2.378 . S
C818 Tb816 2.809 . S
C818 C819 1.514 . S
C818 O836 1.248 . S
C818 O837 1.266 . S
C819 C818 1.514 . S
C819 C820 1.359 . S
C819 C824 1.348 . S
C820 C819 1.359 . S
C820 C821 1.380 . S
C820 H848 0.929 . S
C821 C820 1.380 . S
C821 C822 1.347 . S
C821 H849 0.931 . S
C822 C821 1.347 . S
C822 C823 1.369 . S
C823 C822 1.369 . S
C823 C824 1.408 . S
C823 H850 0.930 . S
C824 C819 1.348 . S
C824 C823 1.408 . S
C824 H851 0.930 . S
C825 O838 1.281 . S
C825 O839 1.254 . S
C826 O840 1.236 . S
C826 O841 1.266 . S
C827 Tb817 2.809 . S
C827 C828 1.514 . S
C827 O842 1.248 . S
C827 O843 1.266 . S
C828 C827 1.514 . S
C828 C829 1.359 . S
C828 C833 1.348 . S
C829 C828 1.359 . S
C829 C830 1.380 1_556 S
C829 H852 0.929 . S
C830 C829 1.380 1_554 S
C830 C831 1.347 . S
C830 H853 0.931 . S
C831 C830 1.347 . S
C831 C832 1.369 . S
C832 C831 1.369 . S
C832 C833 1.408 1_554 S
C832 H854 0.930 . S
C833 C828 1.348 . S
C833 C832 1.408 1_556 S
C833 H855 0.930 . S
C834 O844 1.281 . S
C834 O845 1.254 . S
C835 O846 1.236 . S
C835 O847 1.266 . S
O836 Tb816 2.484 . S
O836 C818 1.248 . S
O837 Tb816 2.440 . S
O837 C818 1.266 . S
O838 Tb816 2.658 . S
O838 Tb817 2.325 . S
O838 C825 1.281 . S
O839 Tb816 2.409 . S
O839 C825 1.254 . S
O840 Tb816 2.378 . S
O840 C826 1.236 . S
O841 Tb817 2.341 . S
O841 C826 1.266 . S
O842 Tb817 2.484 . S
O842 C827 1.248 . S
O843 Tb817 2.440 . S
O843 C827 1.266 . S
O844 Tb816 2.325 . S
O844 Tb817 2.658 . S
O844 C834 1.281 . S
O845 Tb817 2.409 . S
O845 C834 1.254 . S
O846 Tb817 2.378 . S
O846 C835 1.236 . S
O847 Tb816 2.341 . S
O847 C835 1.266 . S
H848 C820 0.929 . S
H849 C821 0.931 . S
H850 C823 0.930 . S
H851 C824 0.930 . S
H852 C829 0.929 . S
H853 C830 0.931 . S
H854 C832 0.930 . S
H855 C833 0.930 . S
Tb856 C858 2.809 . S
Tb856 O876 2.484 . S
Tb856 O877 2.440 . S
Tb856 O878 2.658 . S
Tb856 O879 2.409 . S
Tb856 O880 2.378 . S
Tb856 O884 2.325 . S
Tb856 O887 2.341 . S
Tb857 C867 2.809 . S
Tb857 O878 2.325 . S
Tb857 O881 2.341 . S
Tb857 O882 2.484 . S
Tb857 O883 2.440 . S
Tb857 O884 2.658 . S
Tb857 O885 2.409 . S
Tb857 O886 2.378 . S
C858 Tb856 2.809 . S
C858 C859 1.514 . S
C858 O876 1.248 . S
C858 O877 1.266 . S
C859 C858 1.514 . S
C859 C860 1.359 . S
C859 C864 1.348 . S
C860 C859 1.359 . S
C860 C861 1.380 . S
C860 H888 0.929 . S
C861 C860 1.380 . S
C861 C862 1.347 . S
C861 H889 0.931 . S
C862 C861 1.347 . S
C862 C863 1.369 . S
C863 C862 1.369 . S
C863 C864 1.408 . S
C863 H890 0.930 . S
C864 C859 1.348 . S
C864 C863 1.408 . S
C864 H891 0.930 . S
C865 O878 1.281 . S
C865 O879 1.254 . S
C866 O880 1.236 . S
C866 O881 1.266 . S
C867 Tb857 2.809 . S
C867 C868 1.514 . S
C867 O882 1.248 . S
C867 O883 1.266 . S
C868 C867 1.514 . S
C868 C869 1.359 . S
C868 C873 1.348 . S
C869 C868 1.359 . S
C869 C870 1.380 . S
C869 H892 0.929 . S
C870 C869 1.380 . S
C870 C871 1.347 . S
C870 H893 0.931 . S
C871 C870 1.347 . S
C871 C872 1.369 . S
C872 C871 1.369 . S
C872 C873 1.408 . S
C872 H894 0.930 . S
C873 C868 1.348 . S
C873 C872 1.408 . S
C873 H895 0.930 . S
C874 O884 1.281 . S
C874 O885 1.254 . S
C875 O886 1.236 . S
C875 O887 1.266 . S
O876 Tb856 2.484 . S
O876 C858 1.248 . S
O877 Tb856 2.440 . S
O877 C858 1.266 . S
O878 Tb856 2.658 . S
O878 Tb857 2.325 . S
O878 C865 1.281 . S
O879 Tb856 2.409 . S
O879 C865 1.254 . S
O880 Tb856 2.378 . S
O880 C866 1.236 . S
O881 Tb857 2.341 . S
O881 C866 1.266 . S
O882 Tb857 2.484 . S
O882 C867 1.248 . S
O883 Tb857 2.440 . S
O883 C867 1.266 . S
O884 Tb856 2.325 . S
O884 Tb857 2.658 . S
O884 C874 1.281 . S
O885 Tb857 2.409 . S
O885 C874 1.254 . S
O886 Tb857 2.378 . S
O886 C875 1.236 . S
O887 Tb856 2.341 . S
O887 C875 1.266 . S
H888 C860 0.929 . S
H889 C861 0.931 . S
H890 C863 0.930 . S
H891 C864 0.930 . S
H892 C869 0.929 . S
H893 C870 0.931 . S
H894 C872 0.930 . S
H895 C873 0.930 . S
Tb896 C898 2.809 . S
Tb896 O916 2.484 . S
Tb896 O917 2.440 . S
Tb896 O918 2.658 . S
Tb896 O919 2.409 . S
Tb896 O920 2.378 . S
Tb896 O924 2.325 . S
Tb896 O927 2.341 . S
Tb897 C907 2.809 . S
Tb897 O918 2.325 . S
Tb897 O921 2.341 . S
Tb897 O922 2.484 . S
Tb897 O923 2.440 . S
Tb897 O924 2.658 . S
Tb897 O925 2.409 . S
Tb897 O926 2.378 . S
C898 Tb896 2.809 . S
C898 C899 1.514 . S
C898 O916 1.248 . S
C898 O917 1.266 . S
C899 C898 1.514 . S
C899 C900 1.359 . S
C899 C904 1.348 . S
C900 C899 1.359 . S
C900 C901 1.380 . S
C900 H928 0.929 . S
C901 C900 1.380 . S
C901 C902 1.347 . S
C901 H929 0.931 . S
C902 C901 1.347 . S
C902 C903 1.369 . S
C903 C902 1.369 . S
C903 C904 1.408 . S
C903 H930 0.930 . S
C904 C899 1.348 . S
C904 C903 1.408 . S
C904 H931 0.930 . S
C905 O918 1.281 . S
C905 O919 1.254 . S
C906 O920 1.236 . S
C906 O921 1.266 . S
C907 Tb897 2.809 . S
C907 C908 1.514 . S
C907 O922 1.248 . S
C907 O923 1.266 . S
C908 C907 1.514 . S
C908 C909 1.359 . S
C908 C913 1.348 . S
C909 C908 1.359 . S
C909 C910 1.380 . S
C909 H932 0.929 . S
C910 C909 1.380 . S
C910 C911 1.347 . S
C910 H933 0.931 . S
C911 C910 1.347 . S
C911 C912 1.369 . S
C912 C911 1.369 . S
C912 C913 1.408 . S
C912 H934 0.930 . S
C913 C908 1.348 . S
C913 C912 1.408 . S
C913 H935 0.930 . S
C914 O924 1.281 . S
C914 O925 1.254 . S
C915 O926 1.236 . S
C915 O927 1.266 . S
O916 Tb896 2.484 . S
O916 C898 1.248 . S
O917 Tb896 2.440 . S
O917 C898 1.266 . S
O918 Tb896 2.658 . S
O918 Tb897 2.325 . S
O918 C905 1.281 . S
O919 Tb896 2.409 . S
O919 C905 1.254 . S
O920 Tb896 2.378 . S
O920 C906 1.236 . S
O921 Tb897 2.341 . S
O921 C906 1.266 . S
O922 Tb897 2.484 . S
O922 C907 1.248 . S
O923 Tb897 2.440 . S
O923 C907 1.266 . S
O924 Tb896 2.325 . S
O924 Tb897 2.658 . S
O924 C914 1.281 . S
O925 Tb897 2.409 . S
O925 C914 1.254 . S
O926 Tb897 2.378 . S
O926 C915 1.236 . S
O927 Tb896 2.341 . S
O927 C915 1.266 . S
H928 C900 0.929 . S
H929 C901 0.931 . S
H930 C903 0.930 . S
H931 C904 0.930 . S
H932 C909 0.929 . S
H933 C910 0.931 . S
H934 C912 0.930 . S
H935 C913 0.930 . S
Tb936 C938 2.809 . S
Tb936 O956 2.484 . S
Tb936 O957 2.440 . S
Tb936 O958 2.658 . S
Tb936 O959 2.409 . S
Tb936 O960 2.378 . S
Tb936 O964 2.325 . S
Tb936 O967 2.341 . S
Tb937 C947 2.809 1_455 S
Tb937 O958 2.325 . S
Tb937 O961 2.341 . S
Tb937 O962 2.484 1_455 S
Tb937 O963 2.440 1_455 S
Tb937 O964 2.658 . S
Tb937 O965 2.409 . S
Tb937 O966 2.378 . S
C938 Tb936 2.809 . S
C938 C939 1.514 . S
C938 O956 1.248 . S
C938 O957 1.266 . S
C939 C938 1.514 . S
C939 C940 1.359 . S
C939 C944 1.348 . S
C940 C939 1.359 . S
C940 C941 1.380 . S
C940 H968 0.929 . S
C941 C940 1.380 . S
C941 C942 1.347 . S
C941 H969 0.931 . S
C942 C941 1.347 . S
C942 C943 1.369 . S
C943 C942 1.369 . S
C943 C944 1.408 . S
C943 H970 0.930 . S
C944 C939 1.348 . S
C944 C943 1.408 . S
C944 H971 0.930 . S
C945 O958 1.281 . S
C945 O959 1.254 . S
C946 O960 1.236 . S
C946 O961 1.266 . S
C947 Tb937 2.809 1_655 S
C947 C948 1.514 . S
C947 O962 1.248 . S
C947 O963 1.266 . S
C948 C947 1.514 . S
C948 C949 1.359 . S
C948 C953 1.348 . S
C949 C948 1.359 . S
C949 C950 1.380 . S
C949 H972 0.929 . S
C950 C949 1.380 . S
C950 C951 1.347 . S
C950 H973 0.931 . S
C951 C950 1.347 . S
C951 C952 1.369 . S
C952 C951 1.369 . S
C952 C953 1.408 . S
C952 H974 0.930 . S
C953 C948 1.348 . S
C953 C952 1.408 . S
C953 H975 0.930 . S
C954 O964 1.281 . S
C954 O965 1.254 . S
C955 O966 1.236 . S
C955 O967 1.266 . S
O956 Tb936 2.484 . S
O956 C938 1.248 . S
O957 Tb936 2.440 . S
O957 C938 1.266 . S
O958 Tb936 2.658 . S
O958 Tb937 2.325 . S
O958 C945 1.281 . S
O959 Tb936 2.409 . S
O959 C945 1.254 . S
O960 Tb936 2.378 . S
O960 C946 1.236 . S
O961 Tb937 2.341 . S
O961 C946 1.266 . S
O962 Tb937 2.484 1_655 S
O962 C947 1.248 . S
O963 Tb937 2.440 1_655 S
O963 C947 1.266 . S
O964 Tb936 2.325 . S
O964 Tb937 2.658 . S
O964 C954 1.281 . S
O965 Tb937 2.409 . S
O965 C954 1.254 . S
O966 Tb937 2.378 . S
O966 C955 1.236 . S
O967 Tb936 2.341 . S
O967 C955 1.266 . S
H968 C940 0.929 . S
H969 C941 0.931 . S
H970 C943 0.930 . S
H971 C944 0.930 . S
H972 C949 0.929 . S
H973 C950 0.931 . S
H974 C952 0.930 . S
H975 C953 0.930 . S
C976 C977 1.387 . S
C976 H980 0.950 1_455 S
C976 C985 1.390 . S
C977 C976 1.387 . S
C977 C979 1.387 . S
H978 C985 0.950 1_655 S
C979 C977 1.387 . S
C979 C981 1.390 . S
C979 H983 0.950 . S
H980 C976 0.950 1_655 S
C981 C979 1.390 . S
C981 C982 1.387 . S
C981 H984 0.950 . S
C982 C981 1.387 . S
C982 C985 1.387 . S
H983 C979 0.950 . S
H984 C981 0.950 . S
C985 C976 1.390 . S
C985 H978 0.950 1_455 S
C985 C982 1.387 . S
C986 C987 1.387 . S
C986 H990 0.950 . S
C986 C995 1.390 . S
C987 C986 1.387 . S
C987 C989 1.387 . S
H988 C995 0.950 . S
C989 C987 1.387 . S
C989 C991 1.390 . S
C989 H993 0.950 . S
H990 C986 0.950 . S
C991 C989 1.390 . S
C991 C992 1.387 . S
C991 H994 0.950 . S
C992 C991 1.387 . S
C992 C995 1.387 . S
H993 C989 0.950 . S
H994 C991 0.950 . S
C995 C986 1.390 . S
C995 H988 0.950 . S
C995 C992 1.387 . S
C996 C997 1.387 . S
C996 H1000 0.950 . S
C996 C1005 1.390 . S
C997 C996 1.387 . S
C997 C999 1.387 . S
H998 C1005 0.950 . S
C999 C997 1.387 . S
C999 C1001 1.390 . S
C999 H1003 0.950 . S
H1000 C996 0.950 . S
C1001 C999 1.390 . S
C1001 C1002 1.387 . S
C1001 H1004 0.950 . S
C1002 C1001 1.387 . S
C1002 C1005 1.387 . S
H1003 C999 0.950 . S
H1004 C1001 0.950 . S
C1005 C996 1.390 . S
C1005 H998 0.950 . S
C1005 C1002 1.387 . S
C1006 C1007 1.387 . S
C1006 H1010 0.950 . S
C1006 C1015 1.390 . S
C1007 C1006 1.387 . S
C1007 C1009 1.387 . S
H1008 C1015 0.950 . S
C1009 C1007 1.387 . S
C1009 C1011 1.390 . S
C1009 H1013 0.950 . S
H1010 C1006 0.950 . S
C1011 C1009 1.390 . S
C1011 C1012 1.387 . S
C1011 H1014 0.950 . S
C1012 C1011 1.387 . S
C1012 C1015 1.387 . S
H1013 C1009 0.950 . S
H1014 C1011 0.950 . S
C1015 C1006 1.390 . S
C1015 H1008 0.950 . S
C1015 C1012 1.387 . S
C1016 C1017 1.387 . S
C1016 H1020 0.950 . S
C1016 C1025 1.390 . S
C1017 C1016 1.387 . S
C1017 C1019 1.387 . S
H1018 C1025 0.950 . S
C1019 C1017 1.387 . S
C1019 C1021 1.390 . S
C1019 H1023 0.950 . S
H1020 C1016 0.950 . S
C1021 C1019 1.390 . S
C1021 C1022 1.387 . S
C1021 H1024 0.950 . S
C1022 C1021 1.387 . S
C1022 C1025 1.387 . S
H1023 C1019 0.950 . S
H1024 C1021 0.950 . S
C1025 C1016 1.390 . S
C1025 H1018 0.950 . S
C1025 C1022 1.387 . S
C1026 C1027 1.387 . S
C1026 H1030 0.950 . S
C1026 C1035 1.390 . S
C1027 C1026 1.387 . S
C1027 C1029 1.387 . S
H1028 C1035 0.950 . S
C1029 C1027 1.387 . S
C1029 C1031 1.390 . S
C1029 H1033 0.950 . S
H1030 C1026 0.950 . S
C1031 C1029 1.390 . S
C1031 C1032 1.387 . S
C1031 H1034 0.950 . S
C1032 C1031 1.387 . S
C1032 C1035 1.387 . S
H1033 C1029 0.950 . S
H1034 C1031 0.950 . S
C1035 C1026 1.390 . S
C1035 H1028 0.950 . S
C1035 C1032 1.387 . S
C1036 C1037 1.387 . S
C1036 H1040 0.950 . S
C1036 C1045 1.390 . S
C1037 C1036 1.387 . S
C1037 C1039 1.387 . S
H1038 C1045 0.950 . S
C1039 C1037 1.387 . S
C1039 C1041 1.390 . S
C1039 H1043 0.950 . S
H1040 C1036 0.950 . S
C1041 C1039 1.390 . S
C1041 C1042 1.387 . S
C1041 H1044 0.950 . S
C1042 C1041 1.387 . S
C1042 C1045 1.387 . S
H1043 C1039 0.950 . S
H1044 C1041 0.950 . S
C1045 C1036 1.390 . S
C1045 H1038 0.950 . S
C1045 C1042 1.387 . S
C1046 C1047 1.387 . S
C1046 H1050 0.950 . S
C1046 C1055 1.390 . S
C1047 C1046 1.387 . S
C1047 C1049 1.387 . S
H1048 C1055 0.950 . S
C1049 C1047 1.387 . S
C1049 C1051 1.390 . S
C1049 H1053 0.950 . S
H1050 C1046 0.950 . S
C1051 C1049 1.390 . S
C1051 C1052 1.387 . S
C1051 H1054 0.950 . S
C1052 C1051 1.387 . S
C1052 C1055 1.387 . S
H1053 C1049 0.950 . S
H1054 C1051 0.950 . S
C1055 C1046 1.390 . S
C1055 H1048 0.950 . S
C1055 C1052 1.387 . S
C1056 C1057 1.387 1_565 S
C1056 H1060 0.950 . S
C1056 C1065 1.373 1_665 S
C1057 C1056 1.387 1_545 S
C1057 C1059 1.387 . S
H1058 C1065 0.959 1_565 S
C1059 C1057 1.387 . S
C1059 C1061 1.390 1_655 S
C1059 H1063 0.950 . S
H1060 C1056 0.950 . S
C1061 C1059 1.390 1_455 S
C1061 C1062 1.387 . S
C1061 H1064 0.950 . S
C1062 C1061 1.387 . S
C1062 C1065 1.396 . S
H1063 C1059 0.950 . S
H1064 C1061 0.950 . S
C1065 C1056 1.373 1_445 S
C1065 H1058 0.959 1_545 S
C1065 C1062 1.396 . S
C1066 C1067 1.387 . S
C1066 H1070 0.950 . S
C1066 C1075 1.390 . S
C1067 C1066 1.387 . S
C1067 C1069 1.387 . S
H1068 C1075 0.950 . S
C1069 C1067 1.387 . S
C1069 C1071 1.390 . S
C1069 H1073 0.950 . S
H1070 C1066 0.950 . S
C1071 C1069 1.390 . S
C1071 C1072 1.387 . S
C1071 H1074 0.950 . S
C1072 C1071 1.387 . S
C1072 C1075 1.387 . S
H1073 C1069 0.950 . S
H1074 C1071 0.950 . S
C1075 C1066 1.390 . S
C1075 H1068 0.950 . S
C1075 C1072 1.387 . S
C1076 C1077 1.387 . S
C1076 H1080 0.950 . S
C1076 C1085 1.390 . S
C1077 C1076 1.387 . S
C1077 C1079 1.387 . S
H1078 C1085 0.950 . S
C1079 C1077 1.387 . S
C1079 C1081 1.390 . S
C1079 H1083 0.950 1_545 S
H1080 C1076 0.950 . S
C1081 C1079 1.390 . S
C1081 C1082 1.387 . S
C1081 H1084 0.950 1_545 S
C1082 C1081 1.387 . S
C1082 C1085 1.387 . S
H1083 C1079 0.950 1_565 S
H1084 C1081 0.950 1_565 S
C1085 C1076 1.390 . S
C1085 H1078 0.950 . S
C1085 C1082 1.387 . S
C1086 C1087 1.387 1_556 S
C1086 H1090 0.950 . S
C1086 C1095 1.390 . S
C1087 C1086 1.387 1_554 S
C1087 C1089 1.387 1_554 S
H1088 C1095 0.950 . S
C1089 C1087 1.387 1_556 S
C1089 C1091 1.390 . S
C1089 H1093 0.950 1_556 S
H1090 C1086 0.950 . S
C1091 C1089 1.390 . S
C1091 C1092 1.387 . S
C1091 H1094 0.950 . S
C1092 C1091 1.387 . S
C1092 C1095 1.387 . S
H1093 C1089 0.950 1_554 S
H1094 C1091 0.950 . S
C1095 C1086 1.390 . S
C1095 H1088 0.950 . S
C1095 C1092 1.387 . S
C1096 C1097 1.387 . S
C1096 H1100 0.950 . S
C1096 C1105 1.390 1_655 S
C1097 C1096 1.387 . S
C1097 C1099 1.387 1_545 S
H1098 C1105 0.950 . S
C1099 C1097 1.387 1_565 S
C1099 C1101 1.390 1_655 S
C1099 H1103 0.950 . S
H1100 C1096 0.950 . S
C1101 C1099 1.390 1_455 S
C1101 C1102 1.387 1_565 S
C1101 H1104 0.950 . S
C1102 C1101 1.387 1_545 S
C1102 C1105 1.387 . S
H1103 C1099 0.950 . S
H1104 C1101 0.950 . S
C1105 C1096 1.390 1_455 S
C1105 H1098 0.950 . S
C1105 C1102 1.387 . S
C1106 C1107 1.387 . S
C1106 H1110 0.950 . S
C1106 C1115 1.390 . S
C1107 C1106 1.387 . S
C1107 C1109 1.387 . S
H1108 C1115 0.950 . S
C1109 C1107 1.387 . S
C1109 C1111 1.390 . S
C1109 H1113 0.950 . S
H1110 C1106 0.950 . S
C1111 C1109 1.390 . S
C1111 C1112 1.387 . S
C1111 H1114 0.950 . S
C1112 C1111 1.387 . S
C1112 C1115 1.387 . S
H1113 C1109 0.950 . S
H1114 C1111 0.950 . S
C1115 C1106 1.390 . S
C1115 H1108 0.950 . S
C1115 C1112 1.387 . S
C1116 C1117 1.387 . S
C1116 H1120 0.950 . S
C1116 C1125 1.366 1_556 S
C1117 C1116 1.387 . S
C1117 C1119 1.387 . S
H1118 C1125 0.973 . S
C1119 C1117 1.387 . S
C1119 C1121 1.390 . S
C1119 H1123 0.950 . S
H1120 C1116 0.950 . S
C1121 C1119 1.390 . S
C1121 C1122 1.387 1_556 S
C1121 H1124 0.950 . S
C1122 C1121 1.387 1_554 S
C1122 C1125 1.390 . S
H1123 C1119 0.950 . S
H1124 C1121 0.950 . S
C1125 C1116 1.366 1_554 S
C1125 H1118 0.973 . S
C1125 C1122 1.390 . S
C1126 C1127 1.387 . S
C1126 H1130 0.950 . S
C1126 C1135 1.390 . S
C1127 C1126 1.387 . S
C1127 C1129 1.387 . S
H1128 C1135 0.950 . S
C1129 C1127 1.387 . S
C1129 C1131 1.390 . S
C1129 H1133 0.950 . S
H1130 C1126 0.950 . S
C1131 C1129 1.390 . S
C1131 C1132 1.387 . S
C1131 H1134 0.950 . S
C1132 C1131 1.387 . S
C1132 C1135 1.387 . S
H1133 C1129 0.950 . S
H1134 C1131 0.950 . S
C1135 C1126 1.390 . S
C1135 H1128 0.950 . S
C1135 C1132 1.387 . S
C1136 C1137 1.387 . S
C1136 H1140 0.950 . S
C1136 C1145 1.390 . S
C1137 C1136 1.387 . S
C1137 C1139 1.387 . S
H1138 C1145 0.950 . S
C1139 C1137 1.387 . S
C1139 C1141 1.390 . S
C1139 H1143 0.950 . S
H1140 C1136 0.950 . S
C1141 C1139 1.390 . S
C1141 C1142 1.387 . S
C1141 H1144 0.950 . S
C1142 C1141 1.387 . S
C1142 C1145 1.387 . S
H1143 C1139 0.950 . S
H1144 C1141 0.950 . S
C1145 C1136 1.390 . S
C1145 H1138 0.950 . S
C1145 C1142 1.387 . S
C1146 C1147 1.387 . S
C1146 H1150 0.950 . S
C1146 C1155 1.390 . S
C1147 C1146 1.387 . S
C1147 C1149 1.387 . S
H1148 C1155 0.950 . S
C1149 C1147 1.387 . S
C1149 C1151 1.390 . S
C1149 H1153 0.950 . S
H1150 C1146 0.950 . S
C1151 C1149 1.390 . S
C1151 C1152 1.387 . S
C1151 H1154 0.950 . S
C1152 C1151 1.387 . S
C1152 C1155 1.387 . S
H1153 C1149 0.950 . S
H1154 C1151 0.950 . S
C1155 C1146 1.390 . S
C1155 H1148 0.950 . S
C1155 C1152 1.387 . S
C1156 C1157 1.387 . S
C1156 H1160 0.950 . S
C1156 C1165 1.390 . S
C1157 C1156 1.387 . S
C1157 C1159 1.387 . S
H1158 C1165 0.950 . S
C1159 C1157 1.387 . S
C1159 C1161 1.390 . S
C1159 H1163 0.950 . S
H1160 C1156 0.950 . S
C1161 C1159 1.390 . S
C1161 C1162 1.387 . S
C1161 H1164 0.950 . S
C1162 C1161 1.387 . S
C1162 C1165 1.387 . S
H1163 C1159 0.950 . S
H1164 C1161 0.950 . S
C1165 C1156 1.390 . S
C1165 H1158 0.950 . S
C1165 C1162 1.387 . S
C1166 C1167 1.387 . S
C1166 H1170 0.950 . S
C1166 C1175 1.390 . S
C1167 C1166 1.387 . S
C1167 C1169 1.387 . S
H1168 C1175 0.950 . S
C1169 C1167 1.387 . S
C1169 C1171 1.390 . S
C1169 H1173 0.950 . S
H1170 C1166 0.950 . S
C1171 C1169 1.390 . S
C1171 C1172 1.387 . S
C1171 H1174 0.950 . S
C1172 C1171 1.387 . S
C1172 C1175 1.387 . S
H1173 C1169 0.950 . S
H1174 C1171 0.950 . S
C1175 C1166 1.390 . S
C1175 H1168 0.950 . S
C1175 C1172 1.387 . S
C1176 C1177 1.387 . S
C1176 H1180 0.950 . S
C1176 C1185 1.390 . S
C1177 C1176 1.387 . S
C1177 C1179 1.387 . S
H1178 C1185 0.950 . S
C1179 C1177 1.387 . S
C1179 C1181 1.390 . S
C1179 H1183 0.950 . S
H1180 C1176 0.950 . S
C1181 C1179 1.390 . S
C1181 C1182 1.387 . S
C1181 H1184 0.950 . S
C1182 C1181 1.387 . S
C1182 C1185 1.387 . S
H1183 C1179 0.950 . S
H1184 C1181 0.950 . S
C1185 C1176 1.390 . S
C1185 H1178 0.950 . S
C1185 C1182 1.387 . S
C1186 C1187 1.387 . S
C1186 H1190 0.950 . S
C1186 C1195 1.390 . S
C1187 C1186 1.387 . S
C1187 C1189 1.387 . S
H1188 C1195 0.950 . S
C1189 C1187 1.387 . S
C1189 C1191 1.390 . S
C1189 H1193 0.950 . S
H1190 C1186 0.950 . S
C1191 C1189 1.390 . S
C1191 C1192 1.387 . S
C1191 H1194 0.950 . S
C1192 C1191 1.387 . S
C1192 C1195 1.387 . S
H1193 C1189 0.950 . S
H1194 C1191 0.950 . S
C1195 C1186 1.390 . S
C1195 H1188 0.950 . S
C1195 C1192 1.387 . S
C1196 C1197 1.387 . S
C1196 H1200 0.950 . S
C1196 C1205 1.390 . S
C1197 C1196 1.387 . S
C1197 C1199 1.387 . S
H1198 C1205 0.950 . S
C1199 C1197 1.387 . S
C1199 C1201 1.390 . S
C1199 H1203 0.950 . S
H1200 C1196 0.950 . S
C1201 C1199 1.390 . S
C1201 C1202 1.387 . S
C1201 H1204 0.950 . S
C1202 C1201 1.387 . S
C1202 C1205 1.387 . S
H1203 C1199 0.950 . S
H1204 C1201 0.950 . S
C1205 C1196 1.390 . S
C1205 H1198 0.950 . S
C1205 C1202 1.387 . S
C1206 C1207 1.387 . S
C1206 H1210 0.950 . S
C1206 C1215 1.390 . S
C1207 C1206 1.387 . S
C1207 C1209 1.387 . S
H1208 C1215 0.950 . S
C1209 C1207 1.387 . S
C1209 C1211 1.390 . S
C1209 H1213 0.950 . S
H1210 C1206 0.950 . S
C1211 C1209 1.390 . S
C1211 C1212 1.387 . S
C1211 H1214 0.950 . S
C1212 C1211 1.387 . S
C1212 C1215 1.387 . S
H1213 C1209 0.950 . S
H1214 C1211 0.950 . S
C1215 C1206 1.390 . S
C1215 H1208 0.950 . S
C1215 C1212 1.387 . S
C1216 C1217 1.387 . S
C1216 H1220 0.950 . S
C1216 C1225 1.390 . S
C1217 C1216 1.387 . S
C1217 C1219 1.387 . S
H1218 C1225 0.950 . S
C1219 C1217 1.387 . S
C1219 C1221 1.390 . S
C1219 H1223 0.950 . S
H1220 C1216 0.950 . S
C1221 C1219 1.390 . S
C1221 C1222 1.387 . S
C1221 H1224 0.950 . S
C1222 C1221 1.387 . S
C1222 C1225 1.387 . S
H1223 C1219 0.950 . S
H1224 C1221 0.950 . S
C1225 C1216 1.390 . S
C1225 H1218 0.950 . S
C1225 C1222 1.387 . S
C1226 C1227 1.387 . S
C1226 H1230 0.950 . S
C1226 C1235 1.390 . S
C1227 C1226 1.387 . S
C1227 C1229 1.387 . S
H1228 C1235 0.950 . S
C1229 C1227 1.387 . S
C1229 C1231 1.390 . S
C1229 H1233 0.950 . S
H1230 C1226 0.950 . S
C1231 C1229 1.390 . S
C1231 C1232 1.387 . S
C1231 H1234 0.950 . S
C1232 C1231 1.387 . S
C1232 C1235 1.387 . S
H1233 C1229 0.950 . S
H1234 C1231 0.950 . S
C1235 C1226 1.390 . S
C1235 H1228 0.950 . S
C1235 C1232 1.387 . S
C1236 C1237 1.387 . S
C1236 H1240 0.950 . S
C1236 C1245 1.390 . S
C1237 C1236 1.387 . S
C1237 C1239 1.387 . S
H1238 C1245 0.950 . S
C1239 C1237 1.387 . S
C1239 C1241 1.390 . S
C1239 H1243 0.950 . S
H1240 C1236 0.950 . S
C1241 C1239 1.390 . S
C1241 C1242 1.387 . S
C1241 H1244 0.950 . S
C1242 C1241 1.387 . S
C1242 C1245 1.387 . S
H1243 C1239 0.950 . S
H1244 C1241 0.950 . S
C1245 C1236 1.390 . S
C1245 H1238 0.950 . S
C1245 C1242 1.387 . S
C1246 C1247 1.387 . S
C1246 H1250 0.950 . S
C1246 C1255 1.390 . S
C1247 C1246 1.387 . S
C1247 C1249 1.387 . S
H1248 C1255 0.950 . S
C1249 C1247 1.387 . S
C1249 C1251 1.390 . S
C1249 H1253 0.950 . S
H1250 C1246 0.950 . S
C1251 C1249 1.390 . S
C1251 C1252 1.387 . S
C1251 H1254 0.950 . S
C1252 C1251 1.387 . S
C1252 C1255 1.387 . S
H1253 C1249 0.950 . S
H1254 C1251 0.950 . S
C1255 C1246 1.390 . S
C1255 H1248 0.950 . S
C1255 C1252 1.387 . S
C1256 C1257 1.387 1_655 S
C1256 H1260 0.950 . S
C1256 C1265 1.390 . S
C1257 C1256 1.387 1_455 S
C1257 C1259 1.387 . S
H1258 C1265 0.950 . S
C1259 C1257 1.387 . S
C1259 C1261 1.390 . S
C1259 H1263 0.950 . S
H1260 C1256 0.950 . S
C1261 C1259 1.390 . S
C1261 C1262 1.381 1_455 S
C1261 H1264 0.950 . S
C1262 C1261 1.381 1_655 S
C1262 C1265 1.395 . S
H1263 C1259 0.950 . S
H1264 C1261 0.950 . S
C1265 C1256 1.390 . S
C1265 H1258 0.950 . S
C1265 C1262 1.395 . S
C1266 C1267 1.387 . S
C1266 H1270 0.950 . S
C1266 C1275 1.390 . S
C1267 C1266 1.387 . S
C1267 C1269 1.387 . S
H1268 C1275 0.950 . S
C1269 C1267 1.387 . S
C1269 C1271 1.390 . S
C1269 H1273 0.950 . S
H1270 C1266 0.950 . S
C1271 C1269 1.390 . S
C1271 C1272 1.387 . S
C1271 H1274 0.950 . S
C1272 C1271 1.387 . S
C1272 C1275 1.387 . S
H1273 C1269 0.950 . S
H1274 C1271 0.950 . S
C1275 C1266 1.390 . S
C1275 H1268 0.950 . S
C1275 C1272 1.387 . S
C1276 C1277 1.387 . S
C1276 H1280 0.950 . S
C1276 C1285 1.390 1_556 S
C1277 C1276 1.387 . S
C1277 C1279 1.387 . S
H1278 C1285 0.950 . S
C1279 C1277 1.387 . S
C1279 C1281 1.390 1_556 S
C1279 H1283 0.950 . S
H1280 C1276 0.950 . S
C1281 C1279 1.390 1_554 S
C1281 C1282 1.387 . S
C1281 H1284 0.950 . S
C1282 C1281 1.387 . S
C1282 C1285 1.387 . S
H1283 C1279 0.950 . S
H1284 C1281 0.950 . S
C1285 C1276 1.390 1_554 S
C1285 H1278 0.950 . S
C1285 C1282 1.387 . S
C1286 C1287 1.387 . S
C1286 H1290 0.950 . S
C1286 C1295 1.390 1_455 S
C1287 C1286 1.387 . S
C1287 C1289 1.387 1_455 S
H1288 C1295 0.950 . S
C1289 C1287 1.387 1_655 S
C1289 C1291 1.390 . S
C1289 H1293 0.955 . S
H1290 C1286 0.950 . S
C1291 C1289 1.390 . S
C1291 C1292 1.387 . S
C1291 H1294 0.950 . S
C1292 C1291 1.387 . S
C1292 C1295 1.387 . S
H1293 C1289 0.955 . S
H1294 C1291 0.950 . S
C1295 C1286 1.390 1_655 S
C1295 H1288 0.950 . S
C1295 C1292 1.387 . S
C1296 C1297 1.387 . S
C1296 H1300 0.950 . S
C1296 C1305 1.390 . S
C1297 C1296 1.387 . S
C1297 C1299 1.387 . S
H1298 C1305 0.950 . S
C1299 C1297 1.387 . S
C1299 C1301 1.390 . S
C1299 H1303 0.950 . S
H1300 C1296 0.950 . S
C1301 C1299 1.390 . S
C1301 C1302 1.387 . S
C1301 H1304 0.950 . S
C1302 C1301 1.387 . S
C1302 C1305 1.387 . S
H1303 C1299 0.950 . S
H1304 C1301 0.950 . S
C1305 C1296 1.390 . S
C1305 H1298 0.950 . S
C1305 C1302 1.387 . S
C1306 C1307 1.387 . S
C1306 H1310 0.950 . S
C1306 C1315 1.390 . S
C1307 C1306 1.387 . S
C1307 C1309 1.387 . S
H1308 C1315 0.950 . S
C1309 C1307 1.387 . S
C1309 C1311 1.390 . S
C1309 H1313 0.950 . S
H1310 C1306 0.950 . S
C1311 C1309 1.390 . S
C1311 C1312 1.387 . S
C1311 H1314 0.950 . S
C1312 C1311 1.387 . S
C1312 C1315 1.387 . S
H1313 C1309 0.950 . S
H1314 C1311 0.950 . S
C1315 C1306 1.390 . S
C1315 H1308 0.950 . S
C1315 C1312 1.387 . S
C1316 C1317 1.387 . S
C1316 H1320 0.950 . S
C1316 C1325 1.390 . S
C1317 C1316 1.387 . S
C1317 C1319 1.387 . S
H1318 C1325 0.950 . S
C1319 C1317 1.387 . S
C1319 C1321 1.390 . S
C1319 H1323 0.950 . S
H1320 C1316 0.950 . S
C1321 C1319 1.390 . S
C1321 C1322 1.387 . S
C1321 H1324 0.950 . S
C1322 C1321 1.387 . S
C1322 C1325 1.387 . S
H1323 C1319 0.950 . S
H1324 C1321 0.950 . S
C1325 C1316 1.390 . S
C1325 H1318 0.950 . S
C1325 C1322 1.387 . S
C1326 C1327 1.387 . S
C1326 H1330 0.950 . S
C1326 C1335 1.390 . S
C1327 C1326 1.387 . S
C1327 C1329 1.387 . S
H1328 C1335 0.950 . S
C1329 C1327 1.387 . S
C1329 C1331 1.390 . S
C1329 H1333 0.950 . S
H1330 C1326 0.950 . S
C1331 C1329 1.390 . S
C1331 C1332 1.387 . S
C1331 H1334 0.950 . S
C1332 C1331 1.387 . S
C1332 C1335 1.387 . S
H1333 C1329 0.950 . S
H1334 C1331 0.950 . S
C1335 C1326 1.390 . S
C1335 H1328 0.950 . S
C1335 C1332 1.387 . S
C1336 C1337 1.387 . S
C1336 H1340 0.950 . S
C1336 C1345 1.390 . S
C1337 C1336 1.387 . S
C1337 C1339 1.387 . S
H1338 C1345 0.950 . S
C1339 C1337 1.387 . S
C1339 C1341 1.390 . S
C1339 H1343 0.950 . S
H1340 C1336 0.950 . S
C1341 C1339 1.390 . S
C1341 C1342 1.387 . S
C1341 H1344 0.950 . S
C1342 C1341 1.387 . S
C1342 C1345 1.387 . S
H1343 C1339 0.950 . S
H1344 C1341 0.950 . S
C1345 C1336 1.390 . S
C1345 H1338 0.950 . S
C1345 C1342 1.387 . S
C1346 C1347 1.387 . S
C1346 H1350 0.950 . S
C1346 C1355 1.390 . S
C1347 C1346 1.387 . S
C1347 C1349 1.387 . S
H1348 C1355 0.950 . S
C1349 C1347 1.387 . S
C1349 C1351 1.390 . S
C1349 H1353 0.950 . S
H1350 C1346 0.950 . S
C1351 C1349 1.390 . S
C1351 C1352 1.387 . S
C1351 H1354 0.950 . S
C1352 C1351 1.387 . S
C1352 C1355 1.387 . S
H1353 C1349 0.950 . S
H1354 C1351 0.950 . S
C1355 C1346 1.390 . S
C1355 H1348 0.950 . S
C1355 C1352 1.387 . S
C1356 C1357 1.387 . S
C1356 H1360 0.950 . S
C1356 C1365 1.390 . S
C1357 C1356 1.387 . S
C1357 C1359 1.387 . S
H1358 C1365 0.950 . S
C1359 C1357 1.387 . S
C1359 C1361 1.387 1_545 S
C1359 H1363 0.950 1_545 S
H1360 C1356 0.950 . S
C1361 C1359 1.387 1_565 S
C1361 C1362 1.378 1_565 S
C1361 H1364 0.962 . S
C1362 C1361 1.378 1_545 S
C1362 C1365 1.387 . S
H1363 C1359 0.950 1_565 S
H1364 C1361 0.962 . S
C1365 C1356 1.390 . S
C1365 H1358 0.950 . S
C1365 C1362 1.387 . S
C1366 C1367 1.387 . S
C1366 H1370 0.950 . S
C1366 C1375 1.390 . S
C1367 C1366 1.387 . S
C1367 C1369 1.387 . S
H1368 C1375 0.950 . S
C1369 C1367 1.387 . S
C1369 C1371 1.390 . S
C1369 H1373 0.950 . S
H1370 C1366 0.950 . S
C1371 C1369 1.390 . S
C1371 C1372 1.387 . S
C1371 H1374 0.950 . S
C1372 C1371 1.387 . S
C1372 C1375 1.387 . S
H1373 C1369 0.950 . S
H1374 C1371 0.950 . S
C1375 C1366 1.390 . S
C1375 H1368 0.950 . S
C1375 C1372 1.387 . S
C1376 C1377 1.387 . S
C1376 H1380 0.950 . S
C1376 C1385 1.390 . S
C1377 C1376 1.387 . S
C1377 C1379 1.387 . S
H1378 C1385 0.950 . S
C1379 C1377 1.387 . S
C1379 C1381 1.390 . S
C1379 H1383 0.950 . S
H1380 C1376 0.950 . S
C1381 C1379 1.390 . S
C1381 C1382 1.387 . S
C1381 H1384 0.950 . S
C1382 C1381 1.387 . S
C1382 C1385 1.387 . S
H1383 C1379 0.950 . S
H1384 C1381 0.950 . S
C1385 C1376 1.390 . S
C1385 H1378 0.950 . S
C1385 C1382 1.387 . S
C1386 C1387 1.387 . S
C1386 H1390 0.950 . S
C1386 C1395 1.390 . S
C1387 C1386 1.387 . S
C1387 C1389 1.387 . S
H1388 C1395 0.950 . S
C1389 C1387 1.387 . S
C1389 C1391 1.390 . S
C1389 H1393 0.950 . S
H1390 C1386 0.950 . S
C1391 C1389 1.390 . S
C1391 C1392 1.387 . S
C1391 H1394 0.950 . S
C1392 C1391 1.387 . S
C1392 C1395 1.387 . S
H1393 C1389 0.950 . S
H1394 C1391 0.950 . S
C1395 C1386 1.390 . S
C1395 H1388 0.950 . S
C1395 C1392 1.387 . S
C1396 C1397 1.387 . S
C1396 H1400 0.950 . S
C1396 C1405 1.390 . S
C1397 C1396 1.387 . S
C1397 C1399 1.387 . S
H1398 C1405 0.950 . S
C1399 C1397 1.387 . S
C1399 C1401 1.390 . S
C1399 H1403 0.950 . S
H1400 C1396 0.950 . S
C1401 C1399 1.390 . S
C1401 C1402 1.387 . S
C1401 H1404 0.950 . S
C1402 C1401 1.387 . S
C1402 C1405 1.387 . S
H1403 C1399 0.950 . S
H1404 C1401 0.950 . S
C1405 C1396 1.390 . S
C1405 H1398 0.950 . S
C1405 C1402 1.387 . S
C1406 C1407 1.387 . S
C1406 H1410 0.950 . S
C1406 C1415 1.390 . S
C1407 C1406 1.387 . S
C1407 C1409 1.387 . S
H1408 C1415 0.950 . S
C1409 C1407 1.387 . S
C1409 C1411 1.390 . S
C1409 H1413 0.950 . S
H1410 C1406 0.950 . S
C1411 C1409 1.390 . S
C1411 C1412 1.387 . S
C1411 H1414 0.950 . S
C1412 C1411 1.387 . S
C1412 C1415 1.387 . S
H1413 C1409 0.950 . S
H1414 C1411 0.950 . S
C1415 C1406 1.390 . S
C1415 H1408 0.950 . S
C1415 C1412 1.387 . S
C1416 C1417 1.387 . S
C1416 H1420 0.950 . S
C1416 C1425 1.390 . S
C1417 C1416 1.387 . S
C1417 C1419 1.387 . S
H1418 C1425 0.950 . S
C1419 C1417 1.387 . S
C1419 C1421 1.390 . S
C1419 H1423 0.950 . S
H1420 C1416 0.950 . S
C1421 C1419 1.390 . S
C1421 C1422 1.387 . S
C1421 H1424 0.950 . S
C1422 C1421 1.387 . S
C1422 C1425 1.387 . S
H1423 C1419 0.950 . S
H1424 C1421 0.950 . S
C1425 C1416 1.390 . S
C1425 H1418 0.950 . S
C1425 C1422 1.387 . S
C1426 C1427 1.387 . S
C1426 H1430 0.950 . S
C1426 C1435 1.390 . S
C1427 C1426 1.387 . S
C1427 C1429 1.387 . S
H1428 C1435 0.950 . S
C1429 C1427 1.387 . S
C1429 C1431 1.390 . S
C1429 H1433 0.950 . S
H1430 C1426 0.950 . S
C1431 C1429 1.390 . S
C1431 C1432 1.387 . S
C1431 H1434 0.950 . S
C1432 C1431 1.387 . S
C1432 C1435 1.387 . S
H1433 C1429 0.950 . S
H1434 C1431 0.950 . S
C1435 C1426 1.390 . S
C1435 H1428 0.950 . S
C1435 C1432 1.387 . S
C1436 C1437 1.387 . S
C1436 H1440 0.950 . S
C1436 C1445 1.390 . S
C1437 C1436 1.387 . S
C1437 C1439 1.387 . S
H1438 C1445 0.950 . S
C1439 C1437 1.387 . S
C1439 C1441 1.390 . S
C1439 H1443 0.950 . S
H1440 C1436 0.950 . S
C1441 C1439 1.390 . S
C1441 C1442 1.387 . S
C1441 H1444 0.950 . S
C1442 C1441 1.387 . S
C1442 C1445 1.387 . S
H1443 C1439 0.950 . S
H1444 C1441 0.950 . S
C1445 C1436 1.390 . S
C1445 H1438 0.950 . S
C1445 C1442 1.387 . S
C1446 C1447 1.387 . S
C1446 H1450 0.950 . S
C1446 C1455 1.390 . S
C1447 C1446 1.387 . S
C1447 C1449 1.387 . S
H1448 C1455 0.950 . S
C1449 C1447 1.387 . S
C1449 C1451 1.390 . S
C1449 H1453 0.950 . S
H1450 C1446 0.950 . S
C1451 C1449 1.390 . S
C1451 C1452 1.387 . S
C1451 H1454 0.950 . S
C1452 C1451 1.387 . S
C1452 C1455 1.387 . S
H1453 C1449 0.950 . S
H1454 C1451 0.950 . S
C1455 C1446 1.390 . S
C1455 H1448 0.950 . S
C1455 C1452 1.387 . S
C1456 C1457 1.387 . S
C1456 H1460 0.950 . S
C1456 C1465 1.390 . S
C1457 C1456 1.387 . S
C1457 C1459 1.387 . S
H1458 C1465 0.950 . S
C1459 C1457 1.387 . S
C1459 C1461 1.390 . S
C1459 H1463 0.950 . S
H1460 C1456 0.950 . S
C1461 C1459 1.390 . S
C1461 C1462 1.387 . S
C1461 H1464 0.950 . S
C1462 C1461 1.387 . S
C1462 C1465 1.387 . S
H1463 C1459 0.950 . S
H1464 C1461 0.950 . S
C1465 C1456 1.390 . S
C1465 H1458 0.950 . S
C1465 C1462 1.387 . S
C1466 C1467 1.387 . S
C1466 H1470 0.950 . S
C1466 C1475 1.390 . S
C1467 C1466 1.387 . S
C1467 C1469 1.387 . S
H1468 C1475 0.950 . S
C1469 C1467 1.387 . S
C1469 C1471 1.390 . S
C1469 H1473 0.950 . S
H1470 C1466 0.950 . S
C1471 C1469 1.390 . S
C1471 C1472 1.387 . S
C1471 H1474 0.950 . S
C1472 C1471 1.387 . S
C1472 C1475 1.387 . S
H1473 C1469 0.950 . S
H1474 C1471 0.950 . S
C1475 C1466 1.390 . S
C1475 H1468 0.950 . S
C1475 C1472 1.387 . S
C1476 C1477 1.387 . S
C1476 H1480 0.950 . S
C1476 C1485 1.390 . S
C1477 C1476 1.387 . S
C1477 C1479 1.387 . S
H1478 C1485 0.950 . S
C1479 C1477 1.387 . S
C1479 C1481 1.390 . S
C1479 H1483 0.950 1_455 S
H1480 C1476 0.950 . S
C1481 C1479 1.390 . S
C1481 C1482 1.387 . S
C1481 H1484 0.950 1_455 S
C1482 C1481 1.387 . S
C1482 C1485 1.387 . S
H1483 C1479 0.950 1_655 S
H1484 C1481 0.950 1_655 S
C1485 C1476 1.390 . S
C1485 H1478 0.950 . S
C1485 C1482 1.387 . S
C1486 C1487 1.387 . S
C1486 H1490 0.950 . S
C1486 C1495 1.390 . S
C1487 C1486 1.387 . S
C1487 C1489 1.387 . S
H1488 C1495 0.950 . S
C1489 C1487 1.387 . S
C1489 C1491 1.390 . S
C1489 H1493 0.959 . S
H1490 C1486 0.950 . S
C1491 C1489 1.390 . S
C1491 C1492 1.387 . S
C1491 H1494 0.950 . S
C1492 C1491 1.387 . S
C1492 C1495 1.387 . S
H1493 C1489 0.959 . S
H1494 C1491 0.950 . S
C1495 C1486 1.390 . S
C1495 H1488 0.950 . S
C1495 C1492 1.387 . S
C1496 C1497 1.387 . S
C1496 H1500 0.950 . S
C1496 C1505 1.390 . S
C1497 C1496 1.387 . S
C1497 C1499 1.387 . S
H1498 C1505 0.950 . S
C1499 C1497 1.387 . S
C1499 C1501 1.390 . S
C1499 H1503 0.950 . S
H1500 C1496 0.950 . S
C1501 C1499 1.390 . S
C1501 C1502 1.387 . S
C1501 H1504 0.950 . S
C1502 C1501 1.387 . S
C1502 C1505 1.387 . S
H1503 C1499 0.950 . S
H1504 C1501 0.950 . S
C1505 C1496 1.390 . S
C1505 H1498 0.950 . S
C1505 C1502 1.387 . S
C1506 C1507 1.387 . S
C1506 H1510 0.950 . S
C1506 C1515 1.390 . S
C1507 C1506 1.387 . S
C1507 C1509 1.387 . S
H1508 C1515 0.950 . S
C1509 C1507 1.387 . S
C1509 C1511 1.390 . S
C1509 H1513 0.950 . S
H1510 C1506 0.950 . S
C1511 C1509 1.390 . S
C1511 C1512 1.387 . S
C1511 H1514 0.950 . S
C1512 C1511 1.387 . S
C1512 C1515 1.387 . S
H1513 C1509 0.950 . S
H1514 C1511 0.950 . S
C1515 C1506 1.390 . S
C1515 H1508 0.950 . S
C1515 C1512 1.387 . S
C1516 C1517 1.387 . S
C1516 H1520 0.950 . S
C1516 C1525 1.390 . S
C1517 C1516 1.387 . S
C1517 C1519 1.387 . S
H1518 C1525 0.950 . S
C1519 C1517 1.387 . S
C1519 C1521 1.390 . S
C1519 H1523 0.950 . S
H1520 C1516 0.950 . S
C1521 C1519 1.390 . S
C1521 C1522 1.387 . S
C1521 H1524 0.950 . S
C1522 C1521 1.387 . S
C1522 C1525 1.387 . S
H1523 C1519 0.950 . S
H1524 C1521 0.950 . S
C1525 C1516 1.390 . S
C1525 H1518 0.950 . S
C1525 C1522 1.387 . S
C1526 C1527 1.387 . S
C1526 H1530 0.950 . S
C1526 C1535 1.390 . S
C1527 C1526 1.387 . S
C1527 C1529 1.387 . S
H1528 C1535 0.950 . S
C1529 C1527 1.387 . S
C1529 C1531 1.390 . S
C1529 H1533 0.950 . S
H1530 C1526 0.950 . S
C1531 C1529 1.390 . S
C1531 C1532 1.387 . S
C1531 H1534 0.950 . S
C1532 C1531 1.387 . S
C1532 C1535 1.387 . S
H1533 C1529 0.950 . S
H1534 C1531 0.950 . S
C1535 C1526 1.390 . S
C1535 H1528 0.950 . S
C1535 C1532 1.387 . S
C1536 C1537 1.387 . S
C1536 H1540 0.950 . S
C1536 C1545 1.390 . S
C1537 C1536 1.387 . S
C1537 C1539 1.387 . S
H1538 C1545 0.950 . S
C1539 C1537 1.387 . S
C1539 C1541 1.390 . S
C1539 H1543 0.950 . S
H1540 C1536 0.950 . S
C1541 C1539 1.390 . S
C1541 C1542 1.387 . S
C1541 H1544 0.950 . S
C1542 C1541 1.387 . S
C1542 C1545 1.387 . S
H1543 C1539 0.950 . S
H1544 C1541 0.950 . S
C1545 C1536 1.390 . S
C1545 H1538 0.950 . S
C1545 C1542 1.387 . S
C1546 C1547 1.387 . S
C1546 H1550 0.950 . S
C1546 C1555 1.390 . S
C1547 C1546 1.387 . S
C1547 C1549 1.387 . S
H1548 C1555 0.950 . S
C1549 C1547 1.387 . S
C1549 C1551 1.390 . S
C1549 H1553 0.950 . S
H1550 C1546 0.950 . S
C1551 C1549 1.390 . S
C1551 C1552 1.387 . S
C1551 H1554 0.950 . S
C1552 C1551 1.387 . S
C1552 C1555 1.387 . S
H1553 C1549 0.950 . S
H1554 C1551 0.950 . S
C1555 C1546 1.390 . S
C1555 H1548 0.950 . S
C1555 C1552 1.387 . S
C1556 C1557 1.387 . S
C1556 H1560 0.950 . S
C1556 C1565 1.390 . S
C1557 C1556 1.387 . S
C1557 C1559 1.387 . S
H1558 C1565 0.950 . S
C1559 C1557 1.387 . S
C1559 C1561 1.390 . S
C1559 H1563 0.950 . S
H1560 C1556 0.950 . S
C1561 C1559 1.390 . S
C1561 C1562 1.387 . S
C1561 H1564 0.950 . S
C1562 C1561 1.387 . S
C1562 C1565 1.387 . S
H1563 C1559 0.950 . S
H1564 C1561 0.950 . S
C1565 C1556 1.390 . S
C1565 H1558 0.950 . S
C1565 C1562 1.387 . S
C1566 C1567 1.387 . S
C1566 H1570 0.950 . S
C1566 C1575 1.390 . S
C1567 C1566 1.387 . S
C1567 C1569 1.387 . S
H1568 C1575 0.950 . S
C1569 C1567 1.387 . S
C1569 C1571 1.390 . S
C1569 H1573 0.950 . S
H1570 C1566 0.950 . S
C1571 C1569 1.390 . S
C1571 C1572 1.387 . S
C1571 H1574 0.950 . S
C1572 C1571 1.387 . S
C1572 C1575 1.387 . S
H1573 C1569 0.950 . S
H1574 C1571 0.950 . S
C1575 C1566 1.390 . S
C1575 H1568 0.950 . S
C1575 C1572 1.387 . S
C1576 C1577 1.387 . S
C1576 H1580 0.950 . S
C1576 C1585 1.390 . S
C1577 C1576 1.387 . S
C1577 C1579 1.387 . S
H1578 C1585 0.950 . S
C1579 C1577 1.387 . S
C1579 C1581 1.390 . S
C1579 H1583 0.950 . S
H1580 C1576 0.950 . S
C1581 C1579 1.390 . S
C1581 C1582 1.387 . S
C1581 H1584 0.950 . S
C1582 C1581 1.387 . S
C1582 C1585 1.387 . S
H1583 C1579 0.950 . S
H1584 C1581 0.950 . S
C1585 C1576 1.390 . S
C1585 H1578 0.950 . S
C1585 C1582 1.387 . S
C1586 C1587 1.387 . S
C1586 H1590 0.950 . S
C1586 C1595 1.390 . S
C1587 C1586 1.387 . S
C1587 C1589 1.387 . S
H1588 C1595 0.950 . S
C1589 C1587 1.387 . S
C1589 C1591 1.390 . S
C1589 H1593 0.950 . S
H1590 C1586 0.950 . S
C1591 C1589 1.390 . S
C1591 C1592 1.387 . S
C1591 H1594 0.950 . S
C1592 C1591 1.387 . S
C1592 C1595 1.387 . S
H1593 C1589 0.950 . S
H1594 C1591 0.950 . S
C1595 C1586 1.390 . S
C1595 H1588 0.950 . S
C1595 C1592 1.387 . S
C1596 C1597 1.387 . S
C1596 H1600 0.950 . S
C1596 C1605 1.390 . S
C1597 C1596 1.387 . S
C1597 C1599 1.387 . S
H1598 C1605 0.950 . S
C1599 C1597 1.387 . S
C1599 C1601 1.390 . S
C1599 H1603 0.950 . S
H1600 C1596 0.950 . S
C1601 C1599 1.390 . S
C1601 C1602 1.387 . S
C1601 H1604 0.950 . S
C1602 C1601 1.387 . S
C1602 C1605 1.387 . S
H1603 C1599 0.950 . S
H1604 C1601 0.950 . S
C1605 C1596 1.390 . S
C1605 H1598 0.950 . S
C1605 C1602 1.387 . S
C1606 C1607 1.387 . S
C1606 H1610 0.950 . S
C1606 C1615 1.390 . S
C1607 C1606 1.387 . S
C1607 C1609 1.387 . S
H1608 C1615 0.950 . S
C1609 C1607 1.387 . S
C1609 C1611 1.390 . S
C1609 H1613 0.950 . S
H1610 C1606 0.950 . S
C1611 C1609 1.390 . S
C1611 C1612 1.387 . S
C1611 H1614 0.950 . S
C1612 C1611 1.387 . S
C1612 C1615 1.387 . S
H1613 C1609 0.950 . S
H1614 C1611 0.950 . S
C1615 C1606 1.390 . S
C1615 H1608 0.950 . S
C1615 C1612 1.387 . S
C1616 C1617 1.387 . S
C1616 H1620 0.950 . S
C1616 C1625 1.390 . S
C1617 C1616 1.387 . S
C1617 C1619 1.387 . S
H1618 C1625 0.950 . S
C1619 C1617 1.387 . S
C1619 C1621 1.390 . S
C1619 H1623 0.950 . S
H1620 C1616 0.950 . S
C1621 C1619 1.390 . S
C1621 C1622 1.387 . S
C1621 H1624 0.950 . S
C1622 C1621 1.387 . S
C1622 C1625 1.387 . S
H1623 C1619 0.950 . S
H1624 C1621 0.950 . S
C1625 C1616 1.390 . S
C1625 H1618 0.950 . S
C1625 C1622 1.387 . S
C1626 C1627 1.387 . S
C1626 H1630 0.950 . S
C1626 C1635 1.390 . S
C1627 C1626 1.387 . S
C1627 C1629 1.387 . S
H1628 C1635 0.950 . S
C1629 C1627 1.387 . S
C1629 C1631 1.390 . S
C1629 H1633 0.950 . S
H1630 C1626 0.950 . S
C1631 C1629 1.390 . S
C1631 C1632 1.387 . S
C1631 H1634 0.950 . S
C1632 C1631 1.387 . S
C1632 C1635 1.387 . S
H1633 C1629 0.950 . S
H1634 C1631 0.950 . S
C1635 C1626 1.390 . S
C1635 H1628 0.950 . S
C1635 C1632 1.387 . S
C1636 C1637 1.401 . S
C1636 H1640 0.950 1_565 S
C1636 C1645 1.390 . S
C1637 C1636 1.401 . S
C1637 C1639 1.393 . S
H1638 C1645 0.950 . S
C1639 C1637 1.393 . S
C1639 C1641 1.390 . S
C1639 H1643 0.950 . S
H1640 C1636 0.950 1_545 S
C1641 C1639 1.390 . S
C1641 C1642 1.387 . S
C1641 H1644 0.950 . S
C1642 C1641 1.387 . S
C1642 C1645 1.387 . S
H1643 C1639 0.950 . S
H1644 C1641 0.950 . S
C1645 C1636 1.390 . S
C1645 H1638 0.950 . S
C1645 C1642 1.387 . S
C1646 C1647 1.375 1_556 S
C1646 H1650 0.962 . S
C1646 C1655 1.390 1_556 S
C1647 C1646 1.375 1_554 S
C1647 C1649 1.387 . S
H1648 C1655 0.950 1_556 S
C1649 C1647 1.387 . S
C1649 C1651 1.390 . S
C1649 H1653 0.950 . S
H1650 C1646 0.962 . S
C1651 C1649 1.390 . S
C1651 C1652 1.387 . S
C1651 H1654 0.950 . S
C1652 C1651 1.387 . S
C1652 C1655 1.387 . S
H1653 C1649 0.950 . S
H1654 C1651 0.950 . S
C1655 C1646 1.390 1_554 S
C1655 H1648 0.950 1_554 S
C1655 C1652 1.387 . S
C1656 C1657 1.387 . S
C1656 H1660 0.950 . S
C1656 C1665 1.390 . S
C1657 C1656 1.387 . S
C1657 C1659 1.387 . S
H1658 C1665 0.950 . S
C1659 C1657 1.387 . S
C1659 C1661 1.390 . S
C1659 H1663 0.950 . S
H1660 C1656 0.950 . S
C1661 C1659 1.390 . S
C1661 C1662 1.387 . S
C1661 H1664 0.950 . S
C1662 C1661 1.387 . S
C1662 C1665 1.387 . S
H1663 C1659 0.950 . S
H1664 C1661 0.950 . S
C1665 C1656 1.390 . S
C1665 H1658 0.950 . S
C1665 C1662 1.387 . S
C1666 C1667 1.387 . S
C1666 H1670 0.950 . S
C1666 C1675 1.390 . S
C1667 C1666 1.387 . S
C1667 C1669 1.387 . S
H1668 C1675 0.950 . S
C1669 C1667 1.387 . S
C1669 C1671 1.390 . S
C1669 H1673 0.950 . S
H1670 C1666 0.950 . S
C1671 C1669 1.390 . S
C1671 C1672 1.387 . S
C1671 H1674 0.950 . S
C1672 C1671 1.387 . S
C1672 C1675 1.387 . S
H1673 C1669 0.950 . S
H1674 C1671 0.950 . S
C1675 C1666 1.390 . S
C1675 H1668 0.950 . S
C1675 C1672 1.387 . S
C1676 C1677 1.387 . S
C1676 H1680 0.950 . S
C1676 C1685 1.390 . S
C1677 C1676 1.387 . S
C1677 C1679 1.387 . S
H1678 C1685 0.950 . S
C1679 C1677 1.387 . S
C1679 C1681 1.390 . S
C1679 H1683 0.950 . S
H1680 C1676 0.950 . S
C1681 C1679 1.390 . S
C1681 C1682 1.387 . S
C1681 H1684 0.950 . S
C1682 C1681 1.387 . S
C1682 C1685 1.387 . S
H1683 C1679 0.950 . S
H1684 C1681 0.950 . S
C1685 C1676 1.390 . S
C1685 H1678 0.950 . S
C1685 C1682 1.387 . S
C1686 C1687 1.387 . S
C1686 H1690 0.950 . S
C1686 C1695 1.390 . S
C1687 C1686 1.387 . S
C1687 C1689 1.387 . S
H1688 C1695 0.950 . S
C1689 C1687 1.387 . S
C1689 C1691 1.390 . S
C1689 H1693 0.950 . S
H1690 C1686 0.950 . S
C1691 C1689 1.390 . S
C1691 C1692 1.387 . S
C1691 H1694 0.950 . S
C1692 C1691 1.387 . S
C1692 C1695 1.387 . S
H1693 C1689 0.950 . S
H1694 C1691 0.950 . S
C1695 C1686 1.390 . S
C1695 H1688 0.950 . S
C1695 C1692 1.387 . S
C1696 C1697 1.387 . S
C1696 H1700 0.950 . S
C1696 C1705 1.390 . S
C1697 C1696 1.387 . S
C1697 C1699 1.387 . S
H1698 C1705 0.950 . S
C1699 C1697 1.387 . S
C1699 C1701 1.390 . S
C1699 H1703 0.950 . S
H1700 C1696 0.950 . S
C1701 C1699 1.390 . S
C1701 C1702 1.387 . S
C1701 H1704 0.950 . S
C1702 C1701 1.387 . S
C1702 C1705 1.387 . S
H1703 C1699 0.950 . S
H1704 C1701 0.950 . S
C1705 C1696 1.390 . S
C1705 H1698 0.950 . S
C1705 C1702 1.387 . S
C1706 C1707 1.387 . S
C1706 H1710 0.950 . S
C1706 C1715 1.390 . S
C1707 C1706 1.387 . S
C1707 C1709 1.387 . S
H1708 C1715 0.950 . S
C1709 C1707 1.387 . S
C1709 C1711 1.390 . S
C1709 H1713 0.950 . S
H1710 C1706 0.950 . S
C1711 C1709 1.390 . S
C1711 C1712 1.387 . S
C1711 H1714 0.950 . S
C1712 C1711 1.387 . S
C1712 C1715 1.387 . S
H1713 C1709 0.950 . S
H1714 C1711 0.950 . S
C1715 C1706 1.390 . S
C1715 H1708 0.950 . S
C1715 C1712 1.387 . S
C1716 C1717 1.387 . S
C1716 H1720 0.950 . S
C1716 C1725 1.390 . S
C1717 C1716 1.387 . S
C1717 C1719 1.387 . S
H1718 C1725 0.950 . S
C1719 C1717 1.387 . S
C1719 C1721 1.390 . S
C1719 H1723 0.950 . S
H1720 C1716 0.950 . S
C1721 C1719 1.390 . S
C1721 C1722 1.387 . S
C1721 H1724 0.950 . S
C1722 C1721 1.387 . S
C1722 C1725 1.387 . S
H1723 C1719 0.950 . S
H1724 C1721 0.950 . S
C1725 C1716 1.390 . S
C1725 H1718 0.950 . S
C1725 C1722 1.387 . S
C1726 C1727 1.387 . S
C1726 H1730 0.950 . S
C1726 C1735 1.390 . S
C1727 C1726 1.387 . S
C1727 C1729 1.387 . S
H1728 C1735 0.950 . S
C1729 C1727 1.387 . S
C1729 C1731 1.390 . S
C1729 H1733 0.950 . S
H1730 C1726 0.950 . S
C1731 C1729 1.390 . S
C1731 C1732 1.387 . S
C1731 H1734 0.950 . S
C1732 C1731 1.387 . S
C1732 C1735 1.387 . S
H1733 C1729 0.950 . S
H1734 C1731 0.950 . S
C1735 C1726 1.390 . S
C1735 H1728 0.950 . S
C1735 C1732 1.387 . S
C1736 C1737 1.387 . S
C1736 H1740 0.950 . S
C1736 C1745 1.390 . S
C1737 C1736 1.387 . S
C1737 C1739 1.387 . S
H1738 C1745 0.950 . S
C1739 C1737 1.387 . S
C1739 C1741 1.390 . S
C1739 H1743 0.950 . S
H1740 C1736 0.950 . S
C1741 C1739 1.390 . S
C1741 C1742 1.387 . S
C1741 H1744 0.950 . S
C1742 C1741 1.387 . S
C1742 C1745 1.387 . S
H1743 C1739 0.950 . S
H1744 C1741 0.950 . S
C1745 C1736 1.390 . S
C1745 H1738 0.950 . S
C1745 C1742 1.387 . S
C1746 C1747 1.387 . S
C1746 H1750 0.950 . S
C1746 C1755 1.390 . S
C1747 C1746 1.387 . S
C1747 C1749 1.387 . S
H1748 C1755 0.950 . S
C1749 C1747 1.387 . S
C1749 C1751 1.390 . S
C1749 H1753 0.950 . S
H1750 C1746 0.950 . S
C1751 C1749 1.390 . S
C1751 C1752 1.387 . S
C1751 H1754 0.950 . S
C1752 C1751 1.387 . S
C1752 C1755 1.387 . S
H1753 C1749 0.950 . S
H1754 C1751 0.950 . S
C1755 C1746 1.390 . S
C1755 H1748 0.950 . S
C1755 C1752 1.387 . S
C1756 C1757 1.387 . S
C1756 H1760 0.950 . S
C1756 C1765 1.390 . S
C1757 C1756 1.387 . S
C1757 C1759 1.387 . S
H1758 C1765 0.950 . S
C1759 C1757 1.387 . S
C1759 C1761 1.390 . S
C1759 H1763 0.950 1_455 S
H1760 C1756 0.950 . S
C1761 C1759 1.390 . S
C1761 C1762 1.387 . S
C1761 H1764 0.950 . S
C1762 C1761 1.387 . S
C1762 C1765 1.387 . S
H1763 C1759 0.950 1_655 S
H1764 C1761 0.950 . S
C1765 C1756 1.390 . S
C1765 H1758 0.950 . S
C1765 C1762 1.387 . S
C1766 C1767 1.387 . S
C1766 H1770 0.950 . S
C1766 C1775 1.390 . S
C1767 C1766 1.387 . S
C1767 C1769 1.387 . S
H1768 C1775 0.950 . S
C1769 C1767 1.387 . S
C1769 C1771 1.390 . S
C1769 H1773 0.950 . S
H1770 C1766 0.950 . S
C1771 C1769 1.390 . S
C1771 C1772 1.387 . S
C1771 H1774 0.950 . S
C1772 C1771 1.387 . S
C1772 C1775 1.387 . S
H1773 C1769 0.950 . S
H1774 C1771 0.950 . S
C1775 C1766 1.390 . S
C1775 H1768 0.950 . S
C1775 C1772 1.387 . S
C1776 C1777 1.387 . S
C1776 H1780 0.950 . S
C1776 C1785 1.390 . S
C1777 C1776 1.387 . S
C1777 C1779 1.387 . S
H1778 C1785 0.950 . S
C1779 C1777 1.387 . S
C1779 C1781 1.390 . S
C1779 H1783 0.950 . S
H1780 C1776 0.950 . S
C1781 C1779 1.390 . S
C1781 C1782 1.387 . S
C1781 H1784 0.950 . S
C1782 C1781 1.387 . S
C1782 C1785 1.387 . S
H1783 C1779 0.950 . S
H1784 C1781 0.950 . S
C1785 C1776 1.390 . S
C1785 H1778 0.950 . S
C1785 C1782 1.387 . S
C1786 C1787 1.387 . S
C1786 H1790 0.950 . S
C1786 C1795 1.390 . S
C1787 C1786 1.387 . S
C1787 C1789 1.387 . S
H1788 C1795 0.950 . S
C1789 C1787 1.387 . S
C1789 C1791 1.390 . S
C1789 H1793 0.950 . S
H1790 C1786 0.950 . S
C1791 C1789 1.390 . S
C1791 C1792 1.387 . S
C1791 H1794 0.950 . S
C1792 C1791 1.387 . S
C1792 C1795 1.387 . S
H1793 C1789 0.950 . S
H1794 C1791 0.950 . S
C1795 C1786 1.390 . S
C1795 H1788 0.950 . S
C1795 C1792 1.387 . S
C1796 C1797 1.387 . S
C1796 H1800 0.950 . S
C1796 C1805 1.390 . S
C1797 C1796 1.387 . S
C1797 C1799 1.387 . S
H1798 C1805 0.949 1_455 S
C1799 C1797 1.387 . S
C1799 C1801 1.390 . S
C1799 H1803 0.950 . S
H1800 C1796 0.950 . S
C1801 C1799 1.390 . S
C1801 C1802 1.387 . S
C1801 H1804 0.950 . S
C1802 C1801 1.387 . S
C1802 C1805 1.387 . S
H1803 C1799 0.950 . S
H1804 C1801 0.950 . S
C1805 C1796 1.390 . S
C1805 H1798 0.949 1_655 S
C1805 C1802 1.387 . S
C1806 C1807 1.387 . S
C1806 H1810 0.950 . S
C1806 C1815 1.390 . S
C1807 C1806 1.387 . S
C1807 C1809 1.387 . S
H1808 C1815 0.950 . S
C1809 C1807 1.387 . S
C1809 C1811 1.390 . S
C1809 H1813 0.950 . S
H1810 C1806 0.950 . S
C1811 C1809 1.390 . S
C1811 C1812 1.387 . S
C1811 H1814 0.950 . S
C1812 C1811 1.387 . S
C1812 C1815 1.387 . S
H1813 C1809 0.950 . S
H1814 C1811 0.950 . S
C1815 C1806 1.390 . S
C1815 H1808 0.950 . S
C1815 C1812 1.387 . S
C1816 C1817 1.387 . S
C1816 H1820 0.950 . S
C1816 C1825 1.390 . S
C1817 C1816 1.387 . S
C1817 C1819 1.387 . S
H1818 C1825 0.950 . S
C1819 C1817 1.387 . S
C1819 C1821 1.390 . S
C1819 H1823 0.950 . S
H1820 C1816 0.950 . S
C1821 C1819 1.390 . S
C1821 C1822 1.387 . S
C1821 H1824 0.950 . S
C1822 C1821 1.387 . S
C1822 C1825 1.387 . S
H1823 C1819 0.950 . S
H1824 C1821 0.950 . S
C1825 C1816 1.390 . S
C1825 H1818 0.950 . S
C1825 C1822 1.387 . S
C1826 C1827 1.387 . S
C1826 H1830 0.950 . S
C1826 C1835 1.390 . S
C1827 C1826 1.387 . S
C1827 C1829 1.387 . S
H1828 C1835 0.950 . S
C1829 C1827 1.387 . S
C1829 C1831 1.390 . S
C1829 H1833 0.950 . S
H1830 C1826 0.950 . S
C1831 C1829 1.390 . S
C1831 C1832 1.387 . S
C1831 H1834 0.950 . S
C1832 C1831 1.387 . S
C1832 C1835 1.387 . S
H1833 C1829 0.950 . S
H1834 C1831 0.950 . S
C1835 C1826 1.390 . S
C1835 H1828 0.950 . S
C1835 C1832 1.387 . S
C1836 C1837 1.387 . S
C1836 H1840 0.950 . S
C1836 C1845 1.390 . S
C1837 C1836 1.387 . S
C1837 C1839 1.387 . S
H1838 C1845 0.950 . S
C1839 C1837 1.387 . S
C1839 C1841 1.390 . S
C1839 H1843 0.950 . S
H1840 C1836 0.950 . S
C1841 C1839 1.390 . S
C1841 C1842 1.387 . S
C1841 H1844 0.950 . S
C1842 C1841 1.387 . S
C1842 C1845 1.387 . S
H1843 C1839 0.950 . S
H1844 C1841 0.950 . S
C1845 C1836 1.390 . S
C1845 H1838 0.950 . S
C1845 C1842 1.387 . S
C1846 C1847 1.387 . S
C1846 H1850 0.950 . S
C1846 C1855 1.390 . S
C1847 C1846 1.387 . S
C1847 C1849 1.387 . S
H1848 C1855 0.950 . S
C1849 C1847 1.387 . S
C1849 C1851 1.390 . S
C1849 H1853 0.950 . S
H1850 C1846 0.950 . S
C1851 C1849 1.390 . S
C1851 C1852 1.387 . S
C1851 H1854 0.950 . S
C1852 C1851 1.387 . S
C1852 C1855 1.387 . S
H1853 C1849 0.950 . S
H1854 C1851 0.950 . S
C1855 C1846 1.390 . S
C1855 H1848 0.950 . S
C1855 C1852 1.387 . S
C1856 C1857 1.387 . S
C1856 H1860 0.950 . S
C1856 C1865 1.390 . S
C1857 C1856 1.387 . S
C1857 C1859 1.387 . S
H1858 C1865 0.950 . S
C1859 C1857 1.387 . S
C1859 C1861 1.390 . S
C1859 H1863 0.950 . S
H1860 C1856 0.950 . S
C1861 C1859 1.390 . S
C1861 C1862 1.387 . S
C1861 H1864 0.950 . S
C1862 C1861 1.387 . S
C1862 C1865 1.387 . S
H1863 C1859 0.950 . S
H1864 C1861 0.950 . S
C1865 C1856 1.390 . S
C1865 H1858 0.950 . S
C1865 C1862 1.387 . S
C1866 C1867 1.387 . S
C1866 H1870 0.950 . S
C1866 C1875 1.390 . S
C1867 C1866 1.387 . S
C1867 C1869 1.387 . S
H1868 C1875 0.950 1_545 S
C1869 C1867 1.387 . S
C1869 C1871 1.390 . S
C1869 H1873 0.950 . S
H1870 C1866 0.950 . S
C1871 C1869 1.390 . S
C1871 C1872 1.387 . S
C1871 H1874 0.950 . S
C1872 C1871 1.387 . S
C1872 C1875 1.387 . S
H1873 C1869 0.950 . S
H1874 C1871 0.950 . S
C1875 C1866 1.390 . S
C1875 H1868 0.950 1_565 S
C1875 C1872 1.387 . S
C1876 C1877 1.387 . S
C1876 H1880 0.950 . S
C1876 C1885 1.390 . S
C1877 C1876 1.387 . S
C1877 C1879 1.387 . S
H1878 C1885 0.950 . S
C1879 C1877 1.387 . S
C1879 C1881 1.390 . S
C1879 H1883 0.950 . S
H1880 C1876 0.950 . S
C1881 C1879 1.390 . S
C1881 C1882 1.387 . S
C1881 H1884 0.950 . S
C1882 C1881 1.387 . S
C1882 C1885 1.387 . S
H1883 C1879 0.950 . S
H1884 C1881 0.950 . S
C1885 C1876 1.390 . S
C1885 H1878 0.950 . S
C1885 C1882 1.387 . S
C1886 C1887 1.387 . S
C1886 H1890 0.950 . S
C1886 C1895 1.390 . S
C1887 C1886 1.387 . S
C1887 C1889 1.387 . S
H1888 C1895 0.950 . S
C1889 C1887 1.387 . S
C1889 C1891 1.390 . S
C1889 H1893 0.950 . S
H1890 C1886 0.950 . S
C1891 C1889 1.390 . S
C1891 C1892 1.387 . S
C1891 H1894 0.950 . S
C1892 C1891 1.387 . S
C1892 C1895 1.387 . S
H1893 C1889 0.950 . S
H1894 C1891 0.950 . S
C1895 C1886 1.390 . S
C1895 H1888 0.950 . S
C1895 C1892 1.387 . S
C1896 C1897 1.387 . S
C1896 H1900 0.950 . S
C1896 C1905 1.390 . S
C1897 C1896 1.387 . S
C1897 C1899 1.387 . S
H1898 C1905 0.950 . S
C1899 C1897 1.387 . S
C1899 C1901 1.390 . S
C1899 H1903 0.950 . S
H1900 C1896 0.950 . S
C1901 C1899 1.390 . S
C1901 C1902 1.387 . S
C1901 H1904 0.950 . S
C1902 C1901 1.387 . S
C1902 C1905 1.387 . S
H1903 C1899 0.950 . S
H1904 C1901 0.950 . S
C1905 C1896 1.390 . S
C1905 H1898 0.950 . S
C1905 C1902 1.387 . S
C1906 C1907 1.387 . S
C1906 H1910 0.950 . S
C1906 C1915 1.390 . S
C1907 C1906 1.387 . S
C1907 C1909 1.387 . S
H1908 C1915 0.950 . S
C1909 C1907 1.387 . S
C1909 C1911 1.390 . S
C1909 H1913 0.950 . S
H1910 C1906 0.950 . S
C1911 C1909 1.390 . S
C1911 C1912 1.387 . S
C1911 H1914 0.950 . S
C1912 C1911 1.387 . S
C1912 C1915 1.387 . S
H1913 C1909 0.950 . S
H1914 C1911 0.950 . S
C1915 C1906 1.390 . S
C1915 H1908 0.950 . S
C1915 C1912 1.387 . S
C1916 C1917 1.387 . S
C1916 H1920 0.950 . S
C1916 C1925 1.390 . S
C1917 C1916 1.387 . S
C1917 C1919 1.387 . S
H1918 C1925 0.950 . S
C1919 C1917 1.387 . S
C1919 C1921 1.390 . S
C1919 H1923 0.950 . S
H1920 C1916 0.950 . S
C1921 C1919 1.390 . S
C1921 C1922 1.387 . S
C1921 H1924 0.950 . S
C1922 C1921 1.387 . S
C1922 C1925 1.387 . S
H1923 C1919 0.950 . S
H1924 C1921 0.950 . S
C1925 C1916 1.390 . S
C1925 H1918 0.950 . S
C1925 C1922 1.387 . S
C1926 C1927 1.387 . S
C1926 H1930 0.950 . S
C1926 C1935 1.390 . S
C1927 C1926 1.387 . S
C1927 C1929 1.387 . S
H1928 C1935 0.950 . S
C1929 C1927 1.387 . S
C1929 C1931 1.390 . S
C1929 H1933 0.950 . S
H1930 C1926 0.950 . S
C1931 C1929 1.390 . S
C1931 C1932 1.387 . S
C1931 H1934 0.950 . S
C1932 C1931 1.387 . S
C1932 C1935 1.387 . S
H1933 C1929 0.950 . S
H1934 C1931 0.950 . S
C1935 C1926 1.390 . S
C1935 H1928 0.950 . S
C1935 C1932 1.387 . S
C977 C105 2.455 . S
C982 C346 2.342 . S
C987 C65 2.078 . S
C992 C394 2.071 . S
C997 C73 1.519 . S
C1002 C426 1.518 . S
C1012 C471 1.698 . S
C1007 C92 1.810 . S
C1017 C17 0.994 . S
C1022 C511 0.986 . S
C1032 C546 1.221 . S
C1027 C37 1.173 . S
C1042 C585 1.372 . S
C1037 C49 1.274 . S
C1047 C8 1.366 . S
C1052 C622 1.345 . S
C1062 C354 2.226 . S
C1057 C231 2.173 1_545 S
C1067 C241 0.869 . S
C1072 C391 0.852 . S
C1082 C434 2.353 . S
C1077 C273 2.248 . S
C1092 C466 1.193 . S
C1087 C171 1.210 . S
C1097 C227 1.455 . S
C1102 C506 1.427 . S
C1112 C554 0.705 . S
C1107 C245 0.815 . S
C1122 C595 2.187 . S
C1117 C269 2.295 . S
C1132 C625 2.097 . S
C1127 C175 2.080 . S
C1142 C351 2.065 . S
C1137 C162 2.112 1_554 S
C1147 C289 2.167 . S
C1152 C674 2.155 . S
C1162 C711 1.324 . S
C1157 C330 1.342 . S
C1172 C742 1.163 . S
C1167 C317 1.285 . S
C1177 C120 2.717 . S
C1182 C635 2.687 . S
C1187 C134 1.527 . S
C1192 C431 1.473 . S
C1197 C331 1.808 . S
C1202 C794 1.838 . S
C1212 C826 1.914 . S
C1207 C303 1.908 . S
C1222 C355 2.332 . S
C1217 C59 2.432 . S
C1232 C825 2.114 . S
C1227 C107 2.109 . S
C1237 C91 1.555 . S
C1242 C435 1.559 . S
C1247 C78 1.790 . S
C1252 C782 1.713 . S
C1262 C502 1.012 1_655 S
C1257 C7 1.008 . S
C1267 C51 1.225 . S
C1272 C715 1.288 . S
C1282 C594 1.347 . S
C1277 C31 1.337 . S
C1292 C871 1.352 . S
C1287 C22 1.350 . S
C1302 C345 2.231 1_556 S
C1297 C143 2.204 . S
C1312 C822 0.865 . S
C1307 C315 0.847 . S
C1317 C115 2.386 . S
C1322 C425 2.372 . S
C1327 C287 1.228 . S
C1332 C795 1.240 . S
C1337 C147 1.480 . S
C1342 C515 1.469 . S
C1352 C705 0.698 . S
C1347 C311 0.720 . S
C1357 C119 2.197 . S
C1362 C586 2.219 . S
C1367 C283 2.084 1_556 S
C1372 C874 2.091 . S
C1377 C190 1.998 . S
C1382 C342 2.021 . S
C1387 C177 2.193 . S
C1392 C665 2.188 . S
C1397 C260 1.305 . S
C1402 C542 1.314 . S
C1407 C247 1.235 . S
C1412 C751 1.130 . S
C1422 C866 2.704 . S
C1417 C274 2.738 . S
C1427 C218 1.525 . S
C1432 C422 1.492 . S
C1442 C465 1.850 . S
C1437 C261 1.809 . S
C1452 C395 1.943 . S
C1447 C205 1.945 . S
C1457 C77 2.455 . S
C1462 C906 2.342 . S
C1472 C834 2.071 . S
C1467 C93 2.078 . S
C1477 C101 1.521 . S
C1482 C946 1.517 . S
C1487 C64 1.812 1_655 S
C1492 C791 1.701 . S
C1497 C45 0.993 . S
C1502 C671 0.985 . S
C1512 C706 1.221 . S
C1507 C9 1.173 . S
C1522 C745 1.374 . S
C1517 C21 1.278 . S
C1532 C862 1.341 . S
C1527 C36 1.363 . S
C1542 C914 2.225 . S
C1537 C259 2.175 . S
C1547 C185 0.869 . S
C1552 C831 0.852 . S
C1562 C954 2.353 . S
C1557 C203 2.249 . S
C1572 C786 1.193 . S
C1567 C213 1.209 . S
C1582 C666 1.429 1_556 S
C1577 C255 1.455 . S
C1587 C189 0.805 . S
C1592 C714 0.696 . S
C1602 C755 2.187 . S
C1597 C199 2.296 . S
C1607 C217 2.079 . S
C1612 C865 2.097 . S
C1622 C911 2.065 . S
C1617 C316 2.115 . S
C1627 C135 2.167 . S
C1632 C514 2.154 . S
C1642 C551 1.324 . S
C1637 C148 1.316 1_565 S
C1652 C582 1.162 . S
C1647 C163 1.285 . S
C1662 C875 2.688 . S
C1657 C302 2.718 . S
C1667 C288 1.527 . S
C1672 C951 1.473 . S
C1682 C474 1.837 . S
C1677 C149 1.806 . S
C1692 C386 1.916 . S
C1687 C121 1.907 . S
C1697 C87 2.432 . S
C1702 C915 2.334 . S
C1712 C385 2.114 . S
C1707 C79 2.109 . S
C1717 C63 1.554 . S
C1722 C955 1.558 . S
C1727 C106 1.789 . S
C1732 C462 1.712 . S
C1737 C35 1.010 . S
C1742 C662 1.013 . S
C1752 C555 1.288 . S
C1747 C23 1.224 . S
C1757 C3 1.338 . S
C1762 C754 1.347 . S
C1767 C50 1.349 . S
C1772 C631 1.352 . S
C1782 C905 2.231 . S
C1777 C325 2.203 . S
C1787 C161 0.848 . S
C1792 C382 0.862 . S
C1802 C945 2.373 1_656 S
C1797 C297 2.386 . S
C1807 C133 1.230 . S
C1812 C475 1.240 . S
C1817 C329 1.481 . S
C1822 C675 1.471 . S
C1832 C545 0.704 . S
C1827 C157 0.729 . S
C1837 C301 2.195 . S
C1842 C746 2.218 1_655 S
C1852 C634 2.092 . S
C1847 C129 2.084 . S
C1862 C902 2.019 . S
C1857 C246 1.996 . S
C1872 C505 2.189 1_565 S
C1867 C219 2.194 . S
C1877 C232 1.303 . S
C1882 C702 1.312 . S
C1892 C591 1.130 . S
C1887 C191 1.236 . S
C1897 C204 2.739 . S
C1902 C626 2.704 . S
C1907 C176 1.526 . S
C1912 C942 1.493 . S
C1922 C785 1.850 . S
C1917 C233 1.808 . S
C1932 C835 1.945 . S
C1927 C275 1.944 . S
