# Generated by pormake.
# Topology pth, (4,4)-cn, num edge types: 1
# Building blocks:
#     Node 0, Type 0, BuildingBlock: NAHDIM_clean_sbu_0, # of connection points: 4
#     Node 1, Type 0, BuildingBlock: NAHDIM_clean_sbu_0, # of connection points: 4
#     Node 2, Type 0, BuildingBlock: NAHDIM_clean_sbu_0, # of connection points: 4
#     Node 3, Type 1, BuildingBlock: MUDLON_clean_sbu_0, # of connection points: 4
#     Node 4, Type 1, BuildingBlock: MUDLON_clean_sbu_0, # of connection points: 4
#     Node 5, Type 1, BuildingBlock: MUDLON_clean_sbu_0, # of connection points: 4
#     Edge 6, Type (0, 1), BuildingBlock: FUNLAD_clean_linker_0, # of connection points: 2
#     Edge 7, Type (0, 1), BuildingBlock: FUNLAD_clean_linker_0, # of connection points: 2
#     Edge 8, Type (0, 1), BuildingBlock: FUNLAD_clean_linker_0, # of connection points: 2
#     Edge 9, Type (0, 1), BuildingBlock: FUNLAD_clean_linker_0, # of connection points: 2
#     Edge 10, Type (0, 1), BuildingBlock: FUNLAD_clean_linker_0, # of connection points: 2
#     Edge 11, Type (0, 1), BuildingBlock: FUNLAD_clean_linker_0, # of connection points: 2
#     Edge 12, Type (0, 1), BuildingBlock: FUNLAD_clean_linker_0, # of connection points: 2
#     Edge 13, Type (0, 1), BuildingBlock: FUNLAD_clean_linker_0, # of connection points: 2
#     Edge 14, Type (0, 1), BuildingBlock: FUNLAD_clean_linker_0, # of connection points: 2
#     Edge 15, Type (0, 1), BuildingBlock: FUNLAD_clean_linker_0, # of connection points: 2
#     Edge 16, Type (0, 1), BuildingBlock: FUNLAD_clean_linker_0, # of connection points: 2
#     Edge 17, Type (0, 1), BuildingBlock: FUNLAD_clean_linker_0, # of connection points: 2
# Relax obj value: 0.076
# Max RMSD: 0.190
# Mean RMSD: 0.122
data_MOF--net-pth--node1-NAHDIM_clean_sbu_0--node2-MUDLON_clean_sbu_0--edge1-FUNLAD_clean_linker_0
_symmetry_space_group_name_H-M    P1
_symmetry_Int_Tables_number       1
_symmetry_cell_setting            triclinic
loop_
_symmetry_equiv_pos_as_xyz
'x, y, z'
_cell_length_a     26.233285
_cell_length_b     26.363423
_cell_length_c     68.484643
_cell_angle_alpha  92.022118
_cell_angle_beta   90.150882
_cell_angle_gamma 120.57699
loop_
_atom_site_label
_atom_site_type_symbol
_atom_site_fract_x
_atom_site_fract_y
_atom_site_fract_z
_atom_type_partial_charge
C0 C 0.07696 0.9768 0.11366 0.0
O1 O 0.07309 0.96721 0.0946 0.0
O2 O 0.0456 0.12829 0.11996 0.0
Zn3 Zn 0.05443 0.06869 0.10322 0.0
O4 O 0.97841 0.01682 0.08771 0.0
C5 C 0.16121 0.16216 0.08529 0.0
O6 O 0.16257 0.19528 0.10031 0.0
O7 O 0.07087 0.01851 0.1208 0.0
C8 C 0.9678 0.03624 0.07242 0.0
O9 O 1.006 0.0901 0.06741 0.0
C10 C 1.00368 0.10974 0.13203 0.0
O11 O 0.96727 0.05265 0.13297 0.0
O12 O 0.12048 0.10822 0.08396 0.0
C13 C 0.07561 0.15615 0.39569 0.0
O14 O 0.02576 0.10575 0.39284 0.0
O15 O 0.03494 0.01989 0.41397 0.0
Zn16 Zn 0.07314 0.09721 0.42982 0.0
O17 O 0.01326 0.10271 0.44689 0.0
C18 C 0.16407 0.07315 0.44225 0.0
O19 O 0.15313 0.04682 0.42483 0.0
O20 O 0.10626 0.16438 0.41117 0.0
C21 C 0.03095 0.14782 0.45837 0.0
O22 O 0.08721 0.18906 0.4586 0.0
C23 C 0.01013 0.97001 0.42174 0.0
O24 O 1.00638 0.96797 0.44085 0.0
O25 O 0.13699 0.09997 0.44732 0.0
C26 C 0.14279 0.09111 0.73846 0.0
O27 O 0.13088 0.13345 0.73648 0.0
O28 O 0.9859 0.04341 0.7444 0.0
Zn29 Zn 0.04822 0.05603 0.76453 0.0
O30 O 0.08684 0.1375 0.77774 0.0
C31 C 0.96165 0.94836 0.78306 0.0
O32 O 0.9312 0.93874 0.76671 0.0
O33 O 0.11239 0.05056 0.75017 0.0
C34 C 0.0738 0.14761 0.79475 0.0
O35 O 0.03067 0.10413 0.80394 0.0
C36 C 0.95128 0.0637 0.74608 0.0
O37 O 0.95546 0.09578 0.76179 0.0
O38 O 0.01265 0.99444 0.78511 0.0
Mg39 Mg 0.05162 0.57407 0.27141 0.0
C40 C 0.13249 0.53011 0.28479 0.0
O41 O 0.12749 0.51354 0.26622 0.0
C42 C 0.05957 0.63877 0.23681 0.0
O43 O 0.00649 0.59146 0.23568 0.0
C44 C 0.98686 0.44261 0.25916 0.0
O45 O 0.99445 0.43656 0.27772 0.0
O46 O 1.00234 0.49355 0.25327 0.0
O47 O 0.11018 0.56094 0.29045 0.0
O48 O 0.99831 0.59731 0.28977 0.0
C49 C 1.00173 0.59637 0.30828 0.0
O50 O 0.03201 0.5744 0.31589 0.0
O51 O 0.09371 0.64507 0.25111 0.0
Mg52 Mg 0.57305 0.08058 0.59341 0.0
C53 C 0.51126 0.03352 0.55415 0.0
O54 O 0.56615 0.05302 0.54897 0.0
C55 C 0.63834 0.01616 0.60473 0.0
O56 O 0.65992 0.02917 0.58713 0.0
C57 C 0.5145 0.08716 0.62901 0.0
O58 O 0.51108 0.03575 0.62948 0.0
O59 O 0.54149 0.12036 0.61499 0.0
O60 O 0.50038 0.03433 0.57221 0.0
O61 O 0.6496 0.14053 0.57684 0.0
C62 C 0.70261 0.16254 0.58317 0.0
O63 O 0.71212 0.15692 0.6016 0.0
O64 O 0.59848 0.02742 0.60987 0.0
Mg65 Mg 0.53762 0.57393 0.93466 0.0
C66 C 0.45504 0.54363 0.89963 0.0
O67 O 0.50592 0.569 0.89073 0.0
C68 C 0.55725 0.64794 0.97167 0.0
O69 O 0.52481 0.59517 0.97855 0.0
C70 C 0.47443 0.45371 0.95191 0.0
O71 O 0.44159 0.44219 0.93601 0.0
O72 O 0.52118 0.50404 0.95424 0.0
O73 O 0.45514 0.54355 0.91821 0.0
O74 O 0.60772 0.59536 0.91378 0.0
C75 C 0.65733 0.64293 0.9163 0.0
O76 O 0.66749 0.67464 0.93262 0.0
O77 O 0.5656 0.65263 0.95337 0.0
C78 C 0.95102 0.13064 0.15881 0.0
C79 C 0.99679 0.15154 0.14524 0.0
C80 C 0.94534 0.1698 0.17168 0.0
C81 C 0.98562 0.23088 0.17134 0.0
C82 C 0.03047 0.25176 0.15746 0.0
C83 C 0.03619 0.21261 0.14461 0.0
C84 C 0.98225 0.27429 0.18499 0.0
C85 C 0.95602 0.26067 0.2025 0.0
C86 C 0.95804 0.30577 0.2167 0.0
C87 C 0.95561 0.2957 0.23677 0.0
C88 C 0.96233 0.33911 0.25062 0.0
C89 C 0.97103 0.3934 0.24467 0.0
H90 H 0.96307 0.36726 0.1954 0.0
C91 C 0.96989 0.40208 0.22456 0.0
C92 C 0.96336 0.35875 0.21072 0.0
H93 H 0.97577 0.4431 0.21944 0.0
H94 H 0.91951 0.0839 0.15956 0.0
H95 H 0.90898 0.15189 0.18168 0.0
H96 H 0.06182 0.29857 0.15672 0.0
H97 H 0.07177 0.23027 0.13428 0.0
H98 H 1.0062 0.32007 0.18099 0.0
H99 H 0.93682 0.21603 0.20741 0.0
H100 H 0.95069 0.25495 0.24179 0.0
H101 H 0.96268 0.33081 0.26599 0.0
C102 C 0.00943 0.20297 0.48452 0.0
C103 C 0.98921 0.15365 0.47152 0.0
C104 C 0.97042 0.20822 0.49718 0.0
C105 C 0.91019 0.164 0.49718 0.0
C106 C 0.88988 0.11533 0.48392 0.0
C107 C 0.92889 0.11002 0.4713 0.0
C108 C 0.86697 0.16711 0.51052 0.0
C109 C 0.88221 0.19884 0.52764 0.0
C110 C 0.83761 0.19647 0.54156 0.0
C111 C 0.85126 0.20446 0.56168 0.0
C112 C 0.80836 0.19665 0.57527 0.0
C113 C 0.75101 0.18131 0.56899 0.0
H114 H 0.77007 0.18078 0.51983 0.0
C115 C 0.73869 0.1774 0.5488 0.0
C116 C 0.78148 0.18493 0.53524 0.0
H117 H 0.69521 0.16629 0.54342 0.0
H118 H 0.05553 0.23769 0.48496 0.0
H119 H 0.98766 0.24731 0.50671 0.0
H120 H 0.84366 0.0808 0.48347 0.0
H121 H 0.91173 0.07159 0.46141 0.0
H122 H 0.82036 0.13858 0.50665 0.0
H123 H 0.92827 0.2231 0.53253 0.0
H124 H 0.89445 0.21428 0.56695 0.0
H125 H 0.8195 0.20031 0.5907 0.0
C126 C 0.87639 0.86084 0.79795 0.0
C127 C 0.93519 0.90804 0.7994 0.0
C128 C 0.84989 0.82516 0.8138 0.0
C129 C 0.88189 0.83547 0.8315 0.0
C130 C 0.94106 0.88199 0.83277 0.0
C131 C 0.96745 0.9178 0.81694 0.0
C132 C 0.85424 0.8022 0.84939 0.0
C133 C 0.8022 0.75059 0.84939 0.0
C134 C 0.77047 0.72132 0.86742 0.0
C135 C 0.72108 0.66386 0.86558 0.0
C136 C 0.68576 0.63707 0.88163 0.0
C137 C 0.69898 0.66723 0.89995 0.0
H138 H 0.82153 0.79513 0.88825 0.0
C139 C 0.74973 0.72367 0.90204 0.0
C140 C 0.78486 0.75057 0.886 0.0
H141 H 0.76116 0.74831 0.91593 0.0
H142 H 0.85011 0.85227 0.7847 0.0
H143 H 0.80382 0.79108 0.81219 0.0
H144 H 0.9668 0.8914 0.8462 0.0
H145 H 0.01284 0.95378 0.81858 0.0
H146 H 0.87819 0.82192 0.86308 0.0
H147 H 0.78077 0.72861 0.83556 0.0
H148 H 0.70865 0.64014 0.85151 0.0
H149 H 0.64696 0.59355 0.87948 0.0
C150 C 0.09079 0.94841 0.14704 0.0
C151 C 0.08534 0.93769 0.12666 0.0
C152 C 0.0952 0.90948 0.15936 0.0
C153 C 0.09436 0.85894 0.15153 0.0
C154 C 0.08994 0.84891 0.13116 0.0
C155 C 0.08581 0.88793 0.11885 0.0
C156 C 0.09233 0.81298 0.16406 0.0
C157 C 0.11071 0.82247 0.18295 0.0
C158 C 0.1005 0.77383 0.19577 0.0
C159 C 0.13746 0.78591 0.2123 0.0
C160 C 0.12582 0.74169 0.22538 0.0
C161 C 0.07633 0.68477 0.22231 0.0
H162 H 0.02098 0.70562 0.18041 0.0
C163 C 0.03993 0.67262 0.20564 0.0
C164 C 0.05171 0.71648 0.19257 0.0
H165 H 1.00129 0.62932 0.20285 0.0
H166 H 0.09043 0.98628 0.15355 0.0
H167 H 0.09697 0.91813 0.17498 0.0
H168 H 0.08868 0.81014 0.12471 0.0
H169 H 0.08165 0.87827 0.10323 0.0
H170 H 0.07454 0.76915 0.15729 0.0
H171 H 0.13385 0.86705 0.18936 0.0
H172 H 0.175 0.82985 0.21523 0.0
H173 H 0.15449 0.75254 0.23816 0.0
C174 C 0.22729 0.03126 0.45161 0.0
C175 C 0.20376 0.06749 0.45633 0.0
C176 C 0.26211 0.02316 0.46522 0.0
C177 C 0.27479 0.0517 0.48388 0.0
C178 C 0.25137 0.08805 0.48853 0.0
C179 C 0.21636 0.09595 0.47494 0.0
C180 C 0.3108 0.04388 0.49908 0.0
C181 C 0.34702 0.02249 0.49535 0.0
C182 C 0.38549 0.01901 0.51063 0.0
C183 C 0.43878 0.02285 0.50509 0.0
C184 C 0.47846 0.02469 0.51917 0.0
C185 C 0.46537 0.02202 0.53913 0.0
H186 H 0.32904 0.00739 0.53529 0.0
C187 C 0.4103 0.01435 0.54459 0.0
C188 C 0.37074 0.01281 0.53051 0.0
H189 H 0.39852 0.01158 0.55982 0.0
H190 H 0.21791 0.00813 0.43748 0.0
H191 H 0.27766 0.99349 0.46109 0.0
H192 H 0.26005 0.11043 0.50278 0.0
H193 H 0.19877 0.12398 0.4791 0.0
H194 H 0.30958 0.05953 0.51386 0.0
H195 H 0.35267 0.01147 0.48042 0.0
H196 H 0.45087 0.02671 0.48986 0.0
H197 H 0.52027 0.03018 0.51442 0.0
C198 C 0.10051 0.21604 0.82435 0.0
C199 C 0.11113 0.20607 0.80488 0.0
C200 C 0.13938 0.26905 0.83457 0.0
C201 C 0.19002 0.31323 0.82553 0.0
C202 C 0.19874 0.30434 0.80577 0.0
C203 C 0.15996 0.25138 0.79557 0.0
C204 C 0.23596 0.36804 0.83621 0.0
C205 C 0.24503 0.37257 0.85577 0.0
C206 C 0.29695 0.42299 0.8663 0.0
C207 C 0.29551 0.42868 0.88675 0.0
C208 C 0.34588 0.47016 0.89756 0.0
C209 C 0.39917 0.50675 0.88816 0.0
H210 H 0.35364 0.45834 0.8412 0.0
C211 C 0.39997 0.50303 0.86765 0.0
C212 C 0.34963 0.46159 0.85683 0.0
H213 H 0.4403 0.53044 0.85993 0.0
H214 H 0.06286 0.18238 0.83189 0.0
H215 H 0.12956 0.27477 0.84953 0.0
H216 H 0.23692 0.33773 0.79834 0.0
H217 H 0.16926 0.24543 0.78053 0.0
H218 H 0.26578 0.40422 0.82733 0.0
H219 H 0.21503 0.33639 0.86463 0.0
H220 H 0.25577 0.39956 0.89448 0.0
H221 H 0.34366 0.47174 0.91334 0.0
C222 C 0.89949 0.01331 0.71426 0.0
C223 C 0.90679 0.05113 0.7304 0.0
C224 C 0.85797 1.00181 0.69935 0.0
C225 C 0.82305 0.02839 0.70014 0.0
C226 C 0.82976 0.06536 0.71645 0.0
C227 C 0.87113 0.07669 0.73139 0.0
C228 C 0.77903 0.01881 0.68449 0.0
C229 C 0.7788 0.99817 0.66613 0.0
C230 C 0.73812 0.99498 0.65028 0.0
C231 C 0.75626 0.99972 0.63082 0.0
C232 C 0.72214 1.00316 0.61575 0.0
C233 C 0.66883 1.00148 0.61984 0.0
H234 H 0.66589 0.98276 0.66883 0.0
C235 C 0.64862 0.99248 0.63912 0.0
C236 C 0.68273 0.98906 0.65417 0.0
H237 H 0.60733 0.99016 0.64275 0.0
H238 H 0.92576 0.9923 0.71315 0.0
H239 H 0.85323 0.97163 0.68743 0.0
H240 H 0.80327 0.08616 0.71758 0.0
H241 H 0.87538 0.10584 0.74363 0.0
H242 H 0.74804 0.0334 0.68798 0.0
H243 H 0.81274 0.98825 0.66196 0.0
H244 H 0.79825 1.00338 0.62735 0.0
H245 H 0.73894 0.00978 0.60106 0.0
C246 C 0.87183 0.94148 0.06558 0.0
C247 C 0.91492 0.99784 0.05982 0.0
C248 C 0.82357 0.90423 0.05318 0.0
C249 C 0.81738 0.92262 0.0347 0.0
C250 C 0.86021 0.9791 0.02906 0.0
C251 C 0.90816 0.01647 0.0415 0.0
C252 C 0.76986 0.88259 0.02036 0.0
C253 C 0.71693 0.83742 0.02551 0.0
C254 C 0.67199 0.79251 0.01133 0.0
C255 C 0.62813 0.7385 0.01842 0.0
C256 C 0.58881 0.69251 1.0056 0.0
C257 C 0.59224 0.69951 0.9853 0.0
H258 H 0.70419 0.84228 0.98493 0.0
C259 C 0.63358 0.75473 0.97823 0.0
C260 C 0.67289 0.80083 0.99108 0.0
H261 H 0.63695 0.76185 0.96269 0.0
H262 H 0.87586 0.92567 0.07956 0.0
H263 H 0.79257 0.86043 0.05787 0.0
H264 H 0.8569 0.9942 0.01485 0.0
H265 H 0.94061 0.05951 0.03656 0.0
H266 H 0.78019 0.89049 1.00506 0.0
H267 H 0.70709 0.83083 0.04092 0.0
H268 H 0.62567 0.73092 0.03393 0.0
H269 H 0.55725 0.65073 0.01159 0.0
C270 C 1.00056 0.91859 0.38925 0.0
C271 C 0.99173 0.91561 0.40952 0.0
C272 C 0.98871 0.86839 0.37795 0.0
C273 C 0.96718 0.8137 0.38663 0.0
C274 C 0.95686 0.81052 0.4068 0.0
C275 C 0.96879 0.86078 0.41811 0.0
C276 C 0.96048 0.76072 0.37563 0.0
C277 C 0.95666 0.75398 0.35595 0.0
C278 C 0.96015 0.70635 0.3447 0.0
C279 C 0.94577 0.69791 0.32461 0.0
C280 C 0.95614 0.65966 0.31289 0.0
C281 C 0.98144 0.62905 0.321 0.0
H282 H 0.99586 0.67907 0.36824 0.0
C283 C 0.99309 0.63514 0.34126 0.0
C284 C 0.98291 0.67348 0.35297 0.0
H285 H 0.01272 0.61233 0.348 0.0
H286 H 0.01846 0.96018 0.38216 0.0
H287 H 0.99898 0.8736 0.36261 0.0
H288 H 0.94074 0.76921 0.41394 0.0
H289 H 0.96149 0.85686 0.43368 0.0
H290 H 0.95963 0.72662 0.38426 0.0
H291 H 0.95216 0.78553 0.34746 0.0
H292 H 0.92833 0.72259 0.31778 0.0
H293 H 0.94656 0.65601 0.29734 0.0
C294 C 0.22329 0.13546 0.71397 0.0
C295 C 0.19025 0.09052 0.72694 0.0
C296 C 0.26727 0.13451 0.70274 0.0
C297 C 0.27943 0.08856 0.7043 0.0
C298 C 0.24639 0.04378 0.71731 0.0
C299 C 0.20247 0.04477 0.72855 0.0
C300 C 0.32393 0.08378 0.69212 0.0
C301 C 0.36703 0.12824 0.6822 0.0
C302 C 0.40895 0.12048 0.66959 0.0
C303 C 0.43414 0.15686 0.65368 0.0
C304 C 0.47044 0.14785 0.64077 0.0
C305 C 0.48238 0.10234 0.64362 0.0
H306 H 0.40785 0.05011 0.6856 0.0
C307 C 0.45977 0.06811 0.66013 0.0
C308 C 0.42386 0.07725 0.67302 0.0
H309 H 0.46906 0.03341 0.66298 0.0
H310 H 0.2148 0.17123 0.7123 0.0
H311 H 0.29032 0.16918 0.6926 0.0
H312 H 0.25443 0.00763 0.71877 0.0
H313 H 0.17782 0.00941 0.73837 0.0
H314 H 0.32008 0.04077 0.69122 0.0
H315 H 0.37087 0.1712 0.68261 0.0
H316 H 0.42418 0.19113 0.65086 0.0
H317 H 0.48745 0.17516 0.62823 0.0
C318 C 0.2464 0.24867 0.06988 0.0
C319 C 0.20428 0.18805 0.0694 0.0
C320 C 0.28434 0.27375 0.05425 0.0
C321 C 0.28134 0.23856 0.0378 0.0
C322 C 0.23995 0.17782 0.03755 0.0
C323 C 0.20201 0.15279 0.05315 0.0
C324 C 0.31665 0.26394 0.02 0.0
C325 C 0.36603 0.31771 0.01973 0.0
C326 C 0.39649 0.34661 1.00152 0.0
C327 C 0.45328 0.39714 1.00312 0.0
C328 C 0.48036 0.43021 0.98678 0.0
C329 C 0.45105 0.41363 0.96843 0.0
H330 H 0.32422 0.29085 0.9809 0.0
C331 C 0.39551 0.36154 0.9666 0.0
C332 C 0.36838 0.32857 0.98292 0.0
H333 H 0.37154 0.34754 0.95271 0.0
H334 H 0.24914 0.27717 0.08212 0.0
H335 H 0.31423 0.32095 0.05492 0.0
H336 H 0.23621 0.14963 0.02505 0.0
H337 H 0.17013 0.10592 0.05227 0.0
H338 H 0.30062 0.23677 1.00661 0.0
H339 H 0.38495 0.3426 0.03341 0.0
H340 H 0.47605 0.4123 0.0172 0.0
H341 H 0.52315 0.47014 0.98874 0.0
C342 C 0.14074 0.26043 0.38521 0.0
C343 C 0.0945 0.20224 0.38108 0.0
C344 C 0.15617 0.3039 0.37147 0.0
C345 C 0.12575 0.28975 0.35328 0.0
C346 C 0.08085 0.23125 0.34904 0.0
C347 C 0.06511 0.18817 0.36278 0.0
C348 C 0.13871 0.33404 0.33829 0.0
C349 C 0.16178 0.39217 0.3424 0.0
C350 C 0.16398 0.43299 0.32749 0.0
C351 C 0.15652 0.48029 0.33341 0.0
C352 C 0.14982 0.51437 0.31956 0.0
C353 C 0.15108 0.50221 0.29945 0.0
H354 H 0.17791 0.38917 0.30236 0.0
C355 C 0.16336 0.45793 0.29359 0.0
C356 C 0.16983 0.42374 0.30745 0.0
H357 H 0.16537 0.44781 0.27825 0.0
H358 H 0.16448 0.27257 0.39915 0.0
H359 H 0.19203 0.34818 0.37509 0.0
H360 H 0.05692 0.21892 0.33513 0.0
H361 H 0.02962 0.14373 0.35903 0.0
H362 H 0.12278 0.3168 0.32349 0.0
H363 H 0.17265 0.40904 0.35745 0.0
H364 H 0.15273 0.48899 0.34876 0.0
H365 H 0.14094 0.54847 0.32461 0.0
loop_
_geom_bond_atom_site_label_1
_geom_bond_atom_site_label_2
_geom_bond_distance
_geom_bond_site_symmetry_2
_ccdc_geom_bond_type
C0 O1 1.160 . S
C0 O7 1.185 1_565 S
O1 C0 1.160 . S
O2 Zn3 1.899 . S
O2 C10 1.284 . S
Zn3 O2 1.899 . S
Zn3 O4 2.039 1_455 S
Zn3 O7 2.086 . S
Zn3 O12 1.977 . S
O4 Zn3 2.039 1_655 S
O4 C8 1.286 . S
C5 O6 1.203 . S
C5 O12 1.267 . S
O6 C5 1.203 . S
O7 C0 1.185 1_545 S
O7 Zn3 2.086 . S
C8 O4 1.286 . S
C8 O9 1.211 . S
O9 C8 1.211 . S
C10 O2 1.284 . S
C10 O11 1.273 1_455 S
O11 C10 1.273 1_655 S
O12 Zn3 1.977 . S
O12 C5 1.267 . S
C13 O14 1.160 . S
C13 O20 1.185 . S
O14 C13 1.160 . S
O15 Zn16 1.899 . S
O15 C23 1.277 1_545 S
Zn16 O15 1.899 . S
Zn16 O17 2.032 . S
Zn16 O20 2.086 . S
Zn16 O25 1.977 . S
O17 Zn16 2.032 . S
O17 C21 1.278 1_455 S
C18 O19 1.203 . S
C18 O25 1.267 . S
O19 C18 1.203 . S
O20 C13 1.185 . S
O20 Zn16 2.086 . S
C21 O17 1.278 1_655 S
C21 O22 1.211 1_655 S
O22 C21 1.211 1_455 S
C23 O15 1.277 1_565 S
C23 O24 1.274 . S
O24 C23 1.274 . S
O25 Zn16 1.977 . S
O25 C18 1.267 . S
C26 O27 1.160 . S
C26 O33 1.185 1_545 S
O27 C26 1.160 . S
O28 Zn29 1.899 1_655 S
O28 C36 1.284 . S
Zn29 O28 1.899 1_455 S
Zn29 O30 2.032 . S
Zn29 O33 2.086 1_545 S
Zn29 O38 1.977 1_545 S
O30 Zn29 2.032 . S
O30 C34 1.278 . S
C31 O32 1.203 . S
C31 O38 1.267 1_655 S
O32 C31 1.203 . S
O33 C26 1.185 1_565 S
O33 Zn29 2.086 1_565 S
C34 O30 1.278 . S
C34 O35 1.211 . S
O35 C34 1.211 . S
C36 O28 1.284 . S
C36 O37 1.273 . S
O37 C36 1.273 . S
O38 Zn29 1.977 1_565 S
O38 C31 1.267 1_455 S
Mg39 O46 2.141 . S
Mg39 O47 2.048 . S
Mg39 O48 2.048 . S
Mg39 O51 2.141 . S
C40 O41 1.313 1_455 S
C40 O47 1.195 . S
O41 C40 1.313 1_655 S
C42 O43 1.245 1_455 S
C42 O51 1.289 . S
O43 C42 1.245 1_655 S
C44 O45 1.245 1_455 S
C44 O46 1.289 . S
O45 C44 1.245 1_655 S
O46 Mg39 2.141 . S
O46 C44 1.289 . S
O47 Mg39 2.048 . S
O47 C40 1.195 . S
O48 Mg39 2.048 . S
O48 C49 1.195 . S
C49 O48 1.195 . S
C49 O50 1.313 1_455 S
O50 C49 1.313 1_655 S
O51 Mg39 2.141 . S
O51 C42 1.289 . S
Mg52 O59 2.141 . S
Mg52 O60 2.048 . S
Mg52 O61 2.048 . S
Mg52 O64 2.141 . S
C53 O54 1.317 . S
C53 O60 1.195 . S
O54 C53 1.317 . S
C55 O56 1.245 1_545 S
C55 O64 1.289 . S
O56 C55 1.245 1_565 S
C57 O58 1.245 1_545 S
C57 O59 1.289 . S
O58 C57 1.245 1_565 S
O59 Mg52 2.141 . S
O59 C57 1.289 . S
O60 Mg52 2.048 . S
O60 C53 1.195 . S
O61 Mg52 2.048 . S
O61 C62 1.195 . S
C62 O61 1.195 . S
C62 O63 1.316 . S
O63 C62 1.316 . S
O64 Mg52 2.141 . S
O64 C55 1.289 . S
Mg65 O72 2.141 . S
Mg65 O73 2.048 . S
Mg65 O74 2.048 . S
Mg65 O77 2.141 . S
C66 O67 1.313 . S
C66 O73 1.195 . S
O67 C66 1.313 . S
C68 O69 1.245 . S
C68 O77 1.289 . S
O69 C68 1.245 . S
C70 O71 1.245 . S
C70 O72 1.289 . S
O71 C70 1.245 . S
O72 Mg65 2.141 . S
O72 C70 1.289 . S
O73 Mg65 2.048 . S
O73 C66 1.195 . S
O74 Mg65 2.048 . S
O74 C75 1.195 . S
C75 O74 1.195 . S
C75 O76 1.313 . S
O76 C75 1.313 . S
O77 Mg65 2.141 . S
O77 C68 1.289 . S
C78 C79 1.386 1_655 S
C78 C80 1.383 . S
C78 H94 0.951 . S
C79 C78 1.386 1_455 S
C79 C83 1.383 . S
C80 C78 1.383 . S
C80 C81 1.402 1_655 S
C80 H95 0.951 . S
C81 C80 1.402 1_455 S
C81 C82 1.375 . S
C81 C84 1.481 . S
C82 C81 1.375 . S
C82 C83 1.367 . S
C82 H96 0.951 . S
C83 C79 1.383 . S
C83 C82 1.367 . S
C83 H97 0.950 . S
C84 C81 1.481 . S
C84 C85 1.297 . S
C84 H98 0.950 . S
C85 C84 1.297 . S
C85 C86 1.479 . S
C85 H99 0.950 1_455 S
C86 C85 1.479 . S
C86 C87 1.375 1_455 S
C86 C92 1.404 . S
C87 C86 1.375 1_655 S
C87 C88 1.369 . S
C87 H100 0.950 . S
C88 C87 1.369 . S
C88 C89 1.392 1_655 S
C88 H101 0.951 . S
C89 C88 1.392 1_455 S
C89 C91 1.384 . S
H90 C92 0.949 . S
C91 C89 1.384 . S
C91 C92 1.385 . S
C91 H93 0.950 . S
C92 C86 1.404 . S
C92 H90 0.949 . S
C92 C91 1.385 . S
H93 C91 0.950 . S
H94 C78 0.951 . S
H95 C80 0.951 . S
H96 C82 0.951 . S
H97 C83 0.950 . S
H98 C84 0.950 . S
H99 C85 0.950 1_655 S
H100 C87 0.950 . S
H101 C88 0.951 . S
C102 C103 1.386 . S
C102 C104 1.383 . S
C102 H118 0.951 . S
C103 C102 1.386 . S
C103 C107 1.383 . S
C104 C102 1.383 . S
C104 C105 1.402 . S
C104 H119 0.951 . S
C105 C104 1.402 . S
C105 C106 1.375 . S
C105 C108 1.481 . S
C106 C105 1.375 . S
C106 C107 1.367 . S
C106 H120 0.951 . S
C107 C103 1.383 . S
C107 C106 1.367 . S
C107 H121 0.950 . S
C108 C105 1.481 . S
C108 C109 1.297 . S
C108 H122 0.950 . S
C109 C108 1.297 . S
C109 C110 1.479 . S
C109 H123 0.950 . S
C110 C109 1.479 . S
C110 C111 1.375 . S
C110 C116 1.404 . S
C111 C110 1.375 . S
C111 C112 1.369 . S
C111 H124 0.950 . S
C112 C111 1.369 . S
C112 C113 1.392 . S
C112 H125 0.951 . S
C113 C112 1.392 . S
C113 C115 1.384 . S
H114 C116 0.949 . S
C115 C113 1.384 . S
C115 C116 1.385 . S
C115 H117 0.950 . S
C116 C110 1.404 . S
C116 H114 0.949 . S
C116 C115 1.385 . S
H117 C115 0.950 . S
H118 C102 0.951 . S
H119 C104 0.951 . S
H120 C106 0.951 . S
H121 C107 0.950 . S
H122 C108 0.950 . S
H123 C109 0.950 . S
H124 C111 0.950 . S
H125 C112 0.951 . S
C126 C127 1.386 . S
C126 C128 1.383 . S
C126 H142 0.951 . S
C127 C126 1.386 . S
C127 C131 1.383 . S
C128 C126 1.383 . S
C128 C129 1.402 . S
C128 H143 0.951 . S
C129 C128 1.402 . S
C129 C130 1.375 . S
C129 C132 1.481 . S
C130 C129 1.375 . S
C130 C131 1.367 . S
C130 H144 0.951 . S
C131 C127 1.383 . S
C131 C130 1.367 . S
C131 H145 0.950 . S
C132 C129 1.481 . S
C132 C133 1.297 . S
C132 H146 0.950 . S
C133 C132 1.297 . S
C133 C134 1.479 . S
C133 H147 0.950 . S
C134 C133 1.479 . S
C134 C135 1.375 . S
C134 C140 1.404 . S
C135 C134 1.375 . S
C135 C136 1.369 . S
C135 H148 0.950 . S
C136 C135 1.369 . S
C136 C137 1.392 . S
C136 H149 0.951 . S
C137 C136 1.392 . S
C137 C139 1.384 . S
H138 C140 0.949 . S
C139 C137 1.384 . S
C139 C140 1.385 . S
C139 H141 0.950 . S
C140 C134 1.404 . S
C140 H138 0.949 . S
C140 C139 1.385 . S
H141 C139 0.950 . S
H142 C126 0.951 . S
H143 C128 0.951 . S
H144 C130 0.951 . S
H145 C131 0.950 . S
H146 C132 0.950 . S
H147 C133 0.950 . S
H148 C135 0.950 . S
H149 C136 0.951 . S
C150 C151 1.386 . S
C150 C152 1.383 . S
C150 H166 0.951 . S
C151 C150 1.386 . S
C151 C155 1.383 . S
C152 C150 1.383 . S
C152 C153 1.402 . S
C152 H167 0.951 . S
C153 C152 1.402 . S
C153 C154 1.375 1_455 S
C153 C156 1.481 . S
C154 C153 1.375 1_655 S
C154 C155 1.367 1_655 S
C154 H168 0.951 . S
C155 C151 1.383 . S
C155 C154 1.367 1_455 S
C155 H169 0.950 1_455 S
C156 C153 1.481 . S
C156 C157 1.297 . S
C156 H170 0.950 1_455 S
C157 C156 1.297 . S
C157 C158 1.479 . S
C157 H171 0.950 . S
C158 C157 1.479 . S
C158 C159 1.375 . S
C158 C164 1.404 1_455 S
C159 C158 1.375 . S
C159 C160 1.369 . S
C159 H172 0.950 . S
C160 C159 1.369 . S
C160 C161 1.392 . S
C160 H173 0.951 . S
C161 C160 1.392 . S
C161 C163 1.384 1_455 S
H162 C164 0.949 . S
C163 C161 1.384 1_655 S
C163 C164 1.385 . S
C163 H165 0.950 . S
C164 C158 1.404 1_655 S
C164 H162 0.949 . S
C164 C163 1.385 . S
H165 C163 0.950 . S
H166 C150 0.951 . S
H167 C152 0.951 . S
H168 C154 0.951 . S
H169 C155 0.950 1_655 S
H170 C156 0.950 1_655 S
H171 C157 0.950 . S
H172 C159 0.950 . S
H173 C160 0.951 . S
C174 C175 1.386 . S
C174 C176 1.383 . S
C174 H190 0.951 . S
C175 C174 1.386 . S
C175 C179 1.383 . S
C176 C174 1.383 . S
C176 C177 1.402 . S
C176 H191 0.951 . S
C177 C176 1.402 . S
C177 C178 1.375 . S
C177 C180 1.481 . S
C178 C177 1.375 . S
C178 C179 1.367 . S
C178 H192 0.951 . S
C179 C175 1.383 . S
C179 C178 1.367 . S
C179 H193 0.950 . S
C180 C177 1.481 . S
C180 C181 1.297 . S
C180 H194 0.950 . S
C181 C180 1.297 . S
C181 C182 1.479 . S
C181 H195 0.950 . S
C182 C181 1.479 . S
C182 C183 1.375 . S
C182 C188 1.404 . S
C183 C182 1.375 . S
C183 C184 1.369 . S
C183 H196 0.950 . S
C184 C183 1.369 . S
C184 C185 1.392 . S
C184 H197 0.951 . S
C185 C184 1.392 . S
C185 C187 1.384 . S
H186 C188 0.949 . S
C187 C185 1.384 . S
C187 C188 1.385 . S
C187 H189 0.950 . S
C188 C182 1.404 . S
C188 H186 0.949 . S
C188 C187 1.385 . S
H189 C187 0.950 . S
H190 C174 0.951 . S
H191 C176 0.951 . S
H192 C178 0.951 . S
H193 C179 0.950 . S
H194 C180 0.950 . S
H195 C181 0.950 . S
H196 C183 0.950 . S
H197 C184 0.951 . S
C198 C199 1.386 . S
C198 C200 1.383 . S
C198 H214 0.951 . S
C199 C198 1.386 . S
C199 C203 1.383 . S
C200 C198 1.383 . S
C200 C201 1.402 . S
C200 H215 0.951 . S
C201 C200 1.402 . S
C201 C202 1.375 . S
C201 C204 1.481 . S
C202 C201 1.375 . S
C202 C203 1.367 . S
C202 H216 0.951 . S
C203 C199 1.383 . S
C203 C202 1.367 . S
C203 H217 0.950 . S
C204 C201 1.481 . S
C204 C205 1.297 . S
C204 H218 0.950 . S
C205 C204 1.297 . S
C205 C206 1.479 . S
C205 H219 0.950 . S
C206 C205 1.479 . S
C206 C207 1.375 . S
C206 C212 1.404 . S
C207 C206 1.375 . S
C207 C208 1.369 . S
C207 H220 0.950 . S
C208 C207 1.369 . S
C208 C209 1.392 . S
C208 H221 0.951 . S
C209 C208 1.392 . S
C209 C211 1.384 . S
H210 C212 0.949 . S
C211 C209 1.384 . S
C211 C212 1.385 . S
C211 H213 0.950 . S
C212 C206 1.404 . S
C212 H210 0.949 . S
C212 C211 1.385 . S
H213 C211 0.950 . S
H214 C198 0.951 . S
H215 C200 0.951 . S
H216 C202 0.951 . S
H217 C203 0.950 . S
H218 C204 0.950 . S
H219 C205 0.950 . S
H220 C207 0.950 . S
H221 C208 0.951 . S
C222 C223 1.386 . S
C222 C224 1.383 . S
C222 H238 0.951 . S
C223 C222 1.386 . S
C223 C227 1.383 . S
C224 C222 1.383 . S
C224 C225 1.402 . S
C224 H239 0.951 . S
C225 C224 1.402 . S
C225 C226 1.375 . S
C225 C228 1.481 . S
C226 C225 1.375 . S
C226 C227 1.367 . S
C226 H240 0.951 . S
C227 C223 1.383 . S
C227 C226 1.367 . S
C227 H241 0.950 . S
C228 C225 1.481 . S
C228 C229 1.297 . S
C228 H242 0.950 . S
C229 C228 1.297 . S
C229 C230 1.479 . S
C229 H243 0.950 . S
C230 C229 1.479 . S
C230 C231 1.375 . S
C230 C236 1.404 . S
C231 C230 1.375 . S
C231 C232 1.369 . S
C231 H244 0.963 . S
C232 C231 1.369 . S
C232 C233 1.392 . S
C232 H245 0.951 . S
C233 C232 1.392 . S
C233 C235 1.384 . S
H234 C236 0.949 . S
C235 C233 1.384 . S
C235 C236 1.385 . S
C235 H237 0.950 . S
C236 C230 1.404 . S
C236 H234 0.949 . S
C236 C235 1.385 . S
H237 C235 0.950 . S
H238 C222 0.951 . S
H239 C224 0.951 . S
H240 C226 0.951 . S
H241 C227 0.950 . S
H242 C228 0.950 . S
H243 C229 0.950 . S
H244 C231 0.963 . S
H245 C232 0.951 . S
C246 C247 1.386 . S
C246 C248 1.383 . S
C246 H262 0.951 . S
C247 C246 1.386 . S
C247 C251 1.383 . S
C248 C246 1.383 . S
C248 C249 1.402 . S
C248 H263 0.951 . S
C249 C248 1.402 . S
C249 C250 1.375 . S
C249 C252 1.481 . S
C250 C249 1.375 . S
C250 C251 1.367 . S
C250 H264 0.951 . S
C251 C247 1.383 . S
C251 C250 1.367 . S
C251 H265 0.950 1_565 S
C252 C249 1.481 . S
C252 C253 1.297 . S
C252 H266 0.950 . S
C253 C252 1.297 . S
C253 C254 1.479 1_554 S
C253 H267 0.950 . S
C254 C253 1.479 1_556 S
C254 C255 1.375 . S
C254 C260 1.404 . S
C255 C254 1.375 . S
C255 C256 1.369 . S
C255 H268 0.950 1_556 S
C256 C255 1.369 . S
C256 C257 1.392 . S
C256 H269 0.951 . S
C257 C256 1.392 . S
C257 C259 1.384 . S
H258 C260 0.949 . S
C259 C257 1.384 . S
C259 C260 1.385 . S
C259 H261 0.950 . S
C260 C254 1.404 . S
C260 H258 0.949 . S
C260 C259 1.385 . S
H261 C259 0.950 . S
H262 C246 0.951 . S
H263 C248 0.951 . S
H264 C250 0.951 . S
H265 C251 0.950 1_545 S
H266 C252 0.950 . S
H267 C253 0.950 . S
H268 C255 0.950 1_554 S
H269 C256 0.951 . S
C270 C271 1.386 . S
C270 C272 1.383 . S
C270 H286 0.951 . S
C271 C270 1.386 . S
C271 C275 1.383 1_455 S
C272 C270 1.383 . S
C272 C273 1.402 . S
C272 H287 0.951 . S
C273 C272 1.402 . S
C273 C274 1.375 1_455 S
C273 C276 1.481 . S
C274 C273 1.375 1_655 S
C274 C275 1.367 . S
C274 H288 0.951 . S
C275 C271 1.383 1_655 S
C275 C274 1.367 . S
C275 H289 0.950 . S
C276 C273 1.481 . S
C276 C277 1.297 . S
C276 H290 0.950 1_455 S
C277 C276 1.297 . S
C277 C278 1.479 . S
C277 H291 0.950 . S
C278 C277 1.479 . S
C278 C279 1.375 . S
C278 C284 1.404 1_455 S
C279 C278 1.375 . S
C279 C280 1.369 . S
C279 H292 0.950 . S
C280 C279 1.369 . S
C280 C281 1.392 . S
C280 H293 0.951 . S
C281 C280 1.392 . S
C281 C283 1.384 1_455 S
H282 C284 0.949 . S
C283 C281 1.384 1_655 S
C283 C284 1.385 . S
C283 H285 0.950 . S
C284 C278 1.404 1_655 S
C284 H282 0.949 . S
C284 C283 1.385 . S
H285 C283 0.950 . S
H286 C270 0.951 . S
H287 C272 0.951 . S
H288 C274 0.951 . S
H289 C275 0.950 . S
H290 C276 0.950 1_655 S
H291 C277 0.950 . S
H292 C279 0.950 . S
H293 C280 0.951 . S
C294 C295 1.386 . S
C294 C296 1.383 . S
C294 H310 0.951 . S
C295 C294 1.386 . S
C295 C299 1.383 1_545 S
C296 C294 1.383 . S
C296 C297 1.402 . S
C296 H311 0.951 . S
C297 C296 1.402 . S
C297 C298 1.375 1_545 S
C297 C300 1.481 . S
C298 C297 1.375 1_565 S
C298 C299 1.367 . S
C298 H312 0.951 . S
C299 C295 1.383 1_565 S
C299 C298 1.367 . S
C299 H313 0.950 . S
C300 C297 1.481 . S
C300 C301 1.297 . S
C300 H314 0.950 1_545 S
C301 C300 1.297 . S
C301 C302 1.479 . S
C301 H315 0.950 . S
C302 C301 1.479 . S
C302 C303 1.375 . S
C302 C308 1.404 . S
C303 C302 1.375 . S
C303 C304 1.369 . S
C303 H316 0.950 . S
C304 C303 1.369 . S
C304 C305 1.392 . S
C304 H317 0.951 . S
C305 C304 1.392 . S
C305 C307 1.384 . S
H306 C308 0.949 1_565 S
C307 C305 1.384 . S
C307 C308 1.385 . S
C307 H309 0.950 1_545 S
C308 C302 1.404 . S
C308 H306 0.949 1_545 S
C308 C307 1.385 . S
H309 C307 0.950 1_565 S
H310 C294 0.951 . S
H311 C296 0.951 . S
H312 C298 0.951 . S
H313 C299 0.950 . S
H314 C300 0.950 1_565 S
H315 C301 0.950 . S
H316 C303 0.950 . S
H317 C304 0.951 . S
C318 C319 1.386 . S
C318 C320 1.383 . S
C318 H334 0.951 . S
C319 C318 1.386 . S
C319 C323 1.383 . S
C320 C318 1.383 . S
C320 C321 1.402 . S
C320 H335 0.951 . S
C321 C320 1.402 . S
C321 C322 1.375 . S
C321 C324 1.481 . S
C322 C321 1.375 . S
C322 C323 1.367 . S
C322 H336 0.951 . S
C323 C319 1.383 . S
C323 C322 1.367 . S
C323 H337 0.950 . S
C324 C321 1.481 . S
C324 C325 1.297 . S
C324 H338 0.950 . S
C325 C324 1.297 . S
C325 C326 1.479 1_554 S
C325 H339 0.950 . S
C326 C325 1.479 1_556 S
C326 C327 1.375 . S
C326 C332 1.404 . S
C327 C326 1.375 . S
C327 C328 1.369 . S
C327 H340 0.950 1_556 S
C328 C327 1.369 . S
C328 C329 1.392 . S
C328 H341 0.951 . S
C329 C328 1.392 . S
C329 C331 1.384 . S
H330 C332 0.949 . S
C331 C329 1.384 . S
C331 C332 1.385 . S
C331 H333 0.950 . S
C332 C326 1.404 . S
C332 H330 0.949 . S
C332 C331 1.385 . S
H333 C331 0.950 . S
H334 C318 0.951 . S
H335 C320 0.951 . S
H336 C322 0.951 . S
H337 C323 0.950 . S
H338 C324 0.950 . S
H339 C325 0.950 . S
H340 C327 0.950 1_554 S
H341 C328 0.951 . S
C342 C343 1.386 . S
C342 C344 1.383 . S
C342 H358 0.951 . S
C343 C342 1.386 . S
C343 C347 1.383 . S
C344 C342 1.383 . S
C344 C345 1.402 . S
C344 H359 0.951 . S
C345 C344 1.402 . S
C345 C346 1.375 . S
C345 C348 1.481 . S
C346 C345 1.375 . S
C346 C347 1.367 . S
C346 H360 0.951 . S
C347 C343 1.383 . S
C347 C346 1.367 . S
C347 H361 0.950 . S
C348 C345 1.481 . S
C348 C349 1.297 . S
C348 H362 0.950 . S
C349 C348 1.297 . S
C349 C350 1.479 . S
C349 H363 0.950 . S
C350 C349 1.479 . S
C350 C351 1.375 . S
C350 C356 1.404 . S
C351 C350 1.375 . S
C351 C352 1.369 . S
C351 H364 0.950 . S
C352 C351 1.369 . S
C352 C353 1.392 . S
C352 H365 0.951 . S
C353 C352 1.392 . S
C353 C355 1.384 . S
H354 C356 0.949 . S
C355 C353 1.384 . S
C355 C356 1.385 . S
C355 H357 0.950 . S
C356 C350 1.404 . S
C356 H354 0.949 . S
C356 C355 1.385 . S
H357 C355 0.950 . S
H358 C342 0.951 . S
H359 C344 0.951 . S
H360 C346 0.951 . S
H361 C347 0.950 . S
H362 C348 0.950 . S
H363 C349 0.950 . S
H364 C351 0.950 . S
H365 C352 0.951 . S
C89 C44 1.329 . S
C79 C10 1.338 . S
C103 C21 1.423 . S
C113 C62 1.468 . S
C127 C31 1.401 . S
C137 C75 1.405 . S
C151 C0 1.257 . S
C161 C42 1.333 . S
C185 C53 1.422 . S
C175 C18 1.384 . S
C199 C34 1.386 . S
C209 C66 1.390 . S
C233 C55 1.306 . S
C223 C36 1.338 . S
C247 C8 1.308 1_565 S
C257 C68 1.339 . S
C281 C49 1.408 . S
C271 C23 1.423 . S
C305 C57 1.278 . S
C295 C26 1.261 . S
C329 C70 1.315 . S
C319 C5 1.336 . S
C343 C13 1.328 . S
C353 C40 1.417 . S
