# Generated by pormake.
# Topology anh, (6,3)-cn, num edge types: 1
# Building blocks:
#     Node 0, Type 0, BuildingBlock: MIFKUJ_clean_sbu_0, # of connection points: 6
#     Node 1, Type 0, BuildingBlock: MIFKUJ_clean_sbu_0, # of connection points: 6
#     Node 2, Type 0, BuildingBlock: MIFKUJ_clean_sbu_0, # of connection points: 6
#     Node 3, Type 1, BuildingBlock: WUSLED_clean_sbu_0, # of connection points: 3
#     Node 4, Type 1, BuildingBlock: WUSLED_clean_sbu_0, # of connection points: 3
#     Node 5, Type 1, BuildingBlock: WUSLED_clean_sbu_0, # of connection points: 3
#     Node 6, Type 1, BuildingBlock: WUSLED_clean_sbu_0, # of connection points: 3
#     Node 7, Type 1, BuildingBlock: WUSLED_clean_sbu_0, # of connection points: 3
#     Node 8, Type 1, BuildingBlock: WUSLED_clean_sbu_0, # of connection points: 3
#     Edge 9, Type (0, 1), BuildingBlock: KIFKEQ_clean_linker_1, # of connection points: 2
#     Edge 10, Type (0, 1), BuildingBlock: KIFKEQ_clean_linker_1, # of connection points: 2
#     Edge 11, Type (0, 1), BuildingBlock: KIFKEQ_clean_linker_1, # of connection points: 2
#     Edge 12, Type (0, 1), BuildingBlock: KIFKEQ_clean_linker_1, # of connection points: 2
#     Edge 13, Type (0, 1), BuildingBlock: KIFKEQ_clean_linker_1, # of connection points: 2
#     Edge 14, Type (0, 1), BuildingBlock: KIFKEQ_clean_linker_1, # of connection points: 2
#     Edge 15, Type (0, 1), BuildingBlock: KIFKEQ_clean_linker_1, # of connection points: 2
#     Edge 16, Type (0, 1), BuildingBlock: KIFKEQ_clean_linker_1, # of connection points: 2
#     Edge 17, Type (0, 1), BuildingBlock: KIFKEQ_clean_linker_1, # of connection points: 2
#     Edge 18, Type (0, 1), BuildingBlock: KIFKEQ_clean_linker_1, # of connection points: 2
#     Edge 19, Type (0, 1), BuildingBlock: KIFKEQ_clean_linker_1, # of connection points: 2
#     Edge 20, Type (0, 1), BuildingBlock: KIFKEQ_clean_linker_1, # of connection points: 2
#     Edge 21, Type (0, 1), BuildingBlock: KIFKEQ_clean_linker_1, # of connection points: 2
#     Edge 22, Type (0, 1), BuildingBlock: KIFKEQ_clean_linker_1, # of connection points: 2
#     Edge 23, Type (0, 1), BuildingBlock: KIFKEQ_clean_linker_1, # of connection points: 2
#     Edge 24, Type (0, 1), BuildingBlock: KIFKEQ_clean_linker_1, # of connection points: 2
#     Edge 25, Type (0, 1), BuildingBlock: KIFKEQ_clean_linker_1, # of connection points: 2
#     Edge 26, Type (0, 1), BuildingBlock: KIFKEQ_clean_linker_1, # of connection points: 2
# Relax obj value: 0.128
# Max RMSD: 0.180
# Mean RMSD: 0.138
data_MOF--net-anh--node1-MIFKUJ_clean_sbu_0--node2-WUSLED_clean_sbu_0--edge1-KIFKEQ_clean_linker_1
_symmetry_space_group_name_H-M    P1
_symmetry_Int_Tables_number       1
_symmetry_cell_setting            triclinic
loop_
_symmetry_equiv_pos_as_xyz
'x, y, z'
_cell_length_a     40.119208
_cell_length_b     40.299256
_cell_length_c     69.020997
_cell_angle_alpha  93.387375
_cell_angle_beta   90.899687
_cell_angle_gamma 119.73031
loop_
_atom_site_label
_atom_site_type_symbol
_atom_site_fract_x
_atom_site_fract_y
_atom_site_fract_z
_atom_type_partial_charge
Zn0 Zn 0.056 0.55735 0.16553 0.0
Zn1 Zn 0.94356 0.48403 0.16306 0.0
C2 C 0.1109 0.5315 0.16751 0.0
O3 O 0.10877 0.53835 0.18616 0.0
C4 C 0.88761 0.50096 0.14793 0.0
O5 O 0.8887 0.47934 0.13322 0.0
O6 O 0.09365 0.61355 0.17065 0.0
O7 O 0.01715 0.55259 0.14497 0.0
O8 O 0.97271 0.49226 0.1386 0.0
C9 C 0.11643 0.63111 0.15753 0.0
O10 O 0.11336 0.61237 0.14075 0.0
O11 O 0.0888 0.5352 0.15546 0.0
C12 C 0.88479 0.41633 0.17712 0.0
O13 O 0.89104 0.44121 0.19186 0.0
O14 O 0.90494 0.42775 0.16237 0.0
O15 O 0.97306 0.49768 0.18893 0.0
O16 O 0.03608 0.53789 0.19153 0.0
O17 O 0.91072 0.50935 0.16261 0.0
C18 C 1.00013 0.52312 0.1331 0.0
C19 C 1.00459 0.51582 0.19904 0.0
Zn20 Zn 0.58418 0.078 0.50333 0.0
Zn21 Zn 0.52636 0.95618 0.49718 0.0
C22 C 0.66063 0.13891 0.51444 0.0
O23 O 0.64294 0.14312 0.52944 0.0
C24 C 0.4587 0.88905 0.4833 0.0
O25 O 0.48361 0.88989 0.47092 0.0
O26 O 0.56449 0.11534 0.50598 0.0
O27 O 0.56361 0.04689 0.47778 0.0
O28 O 0.53416 0.98347 0.4727 0.0
C29 C 0.57675 0.14333 0.49528 0.0
O30 O 0.60026 0.14598 0.48165 0.0
O31 O 0.64163 0.11123 0.5017 0.0
C32 C 0.55159 0.90692 0.51046 0.0
O33 O 0.53404 0.91071 0.52562 0.0
O34 O 0.55384 0.92546 0.4958 0.0
O35 O 0.54109 0.98711 0.52314 0.0
O36 O 0.57218 0.05066 0.52792 0.0
O37 O 0.46992 0.91611 0.49662 0.0
C38 C 0.54733 0.01652 0.46645 0.0
C39 C 0.55605 0.01763 0.53442 0.0
Zn40 Zn 0.56285 0.50381 0.83082 0.0
Zn41 Zn 0.49699 0.55973 0.83351 0.0
C42 C 0.55491 0.43135 0.83826 0.0
O43 O 0.57895 0.45256 0.85286 0.0
C44 C 0.50001 0.62778 0.82374 0.0
O45 O 0.47452 0.60242 0.81069 0.0
O46 O 0.62039 0.52643 0.83302 0.0
O47 O 0.54937 0.52034 0.80638 0.0
O48 O 0.51378 0.54855 0.8078 0.0
C49 C 0.63673 0.51863 0.81927 0.0
O50 O 0.61599 0.49842 0.80356 0.0
O51 O 0.54211 0.44675 0.82697 0.0
C52 C 0.41785 0.51784 0.84574 0.0
O53 O 0.4333 0.51077 0.86073 0.0
O54 O 0.43903 0.53585 0.83219 0.0
O55 O 0.51286 0.54558 0.85814 0.0
O56 O 0.54664 0.51548 0.85653 0.0
O57 O 0.51603 0.61669 0.83582 0.0
C58 C 0.53208 0.53544 0.79821 0.0
C59 C 0.52972 0.53 0.86625 0.0
C60 C 0.58092 0.0927 0.19281 0.0
C61 C 0.6045 0.11806 0.20831 0.0
C62 C 0.65154 0.15757 0.1858 0.0
C63 C 0.63936 0.15021 0.20485 0.0
C64 C 0.62773 0.13207 0.17025 0.0
C65 C 0.59264 0.09978 0.17375 0.0
U66 U 0.51828 0.03181 0.23031 0.0
O67 O 0.48462 0.96945 0.23208 0.0
O68 O 0.45614 0.00401 0.23426 0.0
C69 C 0.45186 0.96939 0.23292 0.0
C70 C 0.54466 0.05872 0.19688 0.0
C71 C 0.41951 0.93965 0.2202 0.0
C72 C 0.35883 0.91672 0.20177 0.0
C73 C 0.3914 0.9465 0.21194 0.0
C74 C 0.38231 0.87301 0.2075 0.0
C75 C 0.35371 0.87954 0.19966 0.0
C76 C 0.41472 0.90267 0.21771 0.0
C77 C 0.55672 0.06209 0.28296 0.0
C78 C 0.51812 0.04226 0.31127 0.0
C79 C 0.58611 0.06314 0.31417 0.0
C80 C 0.58915 0.06951 0.29444 0.0
C81 C 0.55058 0.04949 0.32278 0.0
C82 C 0.52109 0.04825 0.29148 0.0
C83 C 0.56052 0.06801 0.26211 0.0
O84 O 0.5487 0.03141 0.20413 0.0
O85 O 0.52055 0.06619 0.20626 0.0
O86 O 0.53667 0.07723 0.25396 0.0
O87 O 0.56468 0.04229 0.25149 0.0
H88 H 0.59587 0.11298 0.22314 0.0
H89 H 0.65652 0.16959 0.21714 0.0
H90 H 0.63642 0.13681 0.15543 0.0
H91 H 0.57479 0.08032 0.16164 0.0
H92 H 0.33741 0.92268 0.19577 0.0
H93 H 0.39402 0.97459 0.2137 0.0
H94 H 0.37893 0.84457 0.20642 0.0
H95 H 0.43555 0.89636 0.22417 0.0
H96 H 0.49032 0.03137 0.31751 0.0
H97 H 0.61165 0.06929 0.32274 0.0
H98 H 0.61683 0.08008 0.2881 0.0
H99 H 0.49554 0.04188 0.28284 0.0
C100 C 0.58298 0.60943 0.52405 0.0
C101 C 0.58723 0.63586 0.53939 0.0
C102 C 0.59062 0.68086 0.51641 0.0
C103 C 0.59101 0.67115 0.53563 0.0
C104 C 0.5867 0.65436 0.50102 0.0
C105 C 0.58292 0.61887 0.50484 0.0
U106 U 0.56649 0.54181 0.56205 0.0
O107 O 0.52691 0.4799 0.56345 0.0
O108 O 0.58928 0.5037 0.56801 0.0
C109 C 0.55509 0.47277 0.56651 0.0
C110 C 0.57693 0.57163 0.52844 0.0
C111 C 0.55198 0.43863 0.55577 0.0
C112 C 0.57268 0.40819 0.53104 0.0
C113 C 0.57336 0.44107 0.53946 0.0
C114 C 0.52831 0.3702 0.55473 0.0
C115 C 0.55077 0.37254 0.53888 0.0
C116 C 0.52897 0.40291 0.56308 0.0
C117 C 0.56236 0.5772 0.61378 0.0
C118 C 0.53761 0.53491 0.63996 0.0
C119 C 0.57496 0.60367 0.64731 0.0
C120 C 0.57894 0.60887 0.62747 0.0
C121 C 0.55414 0.56662 0.65381 0.0
C122 C 0.54184 0.54015 0.62013 0.0
C123 C 0.56718 0.58321 0.593 0.0
O124 O 0.60492 0.57248 0.53904 0.0
O125 O 0.5427 0.54848 0.53456 0.0
O126 O 0.53637 0.56201 0.58151 0.0
O127 O 0.59848 0.58527 0.58618 0.0
H128 H 0.58696 0.62889 0.55433 0.0
H129 H 0.59312 0.69038 0.54783 0.0
H130 H 0.5865 0.66103 0.48607 0.0
H131 H 0.57952 0.59871 0.49282 0.0
H132 H 0.59041 0.41094 0.51889 0.0
H133 H 0.59132 0.46844 0.5336 0.0
H134 H 0.5106 0.3431 0.56089 0.0
H135 H 0.51222 0.40047 0.57564 0.0
H136 H 0.52101 0.50603 0.64441 0.0
H137 H 0.58866 0.62869 0.65755 0.0
H138 H 0.59516 0.63765 0.62281 0.0
H139 H 0.529 0.51529 0.60974 0.0
C140 C 0.96482 0.54473 0.85591 0.0
C141 C 0.94606 0.55556 0.86975 0.0
C142 C 0.89797 0.54699 0.845 0.0
C143 C 0.91303 0.55681 0.86434 0.0
C144 C 0.91707 0.5364 0.83114 0.0
C145 C 0.95028 0.53532 0.83657 0.0
U146 U 0.02652 0.54108 0.89632 0.0
O147 O 0.05284 0.50508 0.89983 0.0
O148 O 0.08921 0.56775 0.90117 0.0
C149 C 0.08803 0.53451 0.90085 0.0
C150 C 0.99848 0.54171 0.86188 0.0
C151 C 0.11686 0.53073 0.88926 0.0
C152 C 0.1365 0.49216 0.86927 0.0
C153 C 0.10766 0.4966 0.87813 0.0
C154 C 0.18397 0.5562 0.88196 0.0
C155 C 0.17507 0.52171 0.87133 0.0
C156 C 0.15523 0.56057 0.89087 0.0
C157 C 0.99793 0.5474 0.94812 0.0
C158 C 0.02955 0.53751 0.97567 0.0
C159 C 0.98148 0.55641 0.98092 0.0
C160 C 0.97655 0.55677 0.96087 0.0
C161 C 0.00789 0.54657 0.98855 0.0
C162 C 0.02467 0.53801 0.9556 0.0
C163 C 0.99175 0.54707 0.92709 0.0
O164 O 0.02643 0.57255 0.87137 0.0
O165 O 0.99035 0.50995 0.86992 0.0
O166 O 0.98154 0.51431 0.91717 0.0
O167 O 0.01815 0.57687 0.91884 0.0
H168 H 0.95668 0.56253 0.88481 0.0
H169 H 0.8987 0.56449 0.87542 0.0
H170 H 0.90636 0.52897 0.81611 0.0
H171 H 0.96435 0.52677 0.82573 0.0
H172 H 0.1287 0.46537 0.86103 0.0
H173 H 0.0784 0.47293 0.87666 0.0
H174 H 0.21344 0.57932 0.8841 0.0
H175 H 0.16325 0.58696 0.89958 0.0
H176 H 0.05039 0.53021 0.9811 0.0
H177 H 0.96401 0.56303 0.99043 0.0
H178 H 0.95575 0.56403 0.9553 0.0
H179 H 0.04157 0.53088 0.9459 0.0
C180 C 0.9769 0.43579 0.47433 0.0
C181 C 0.95805 0.40465 0.46036 0.0
C182 C 0.9123 0.36703 0.48394 0.0
C183 C 0.92622 0.37056 0.46514 0.0
C184 C 0.93161 0.39827 0.49795 0.0
C185 C 0.96362 0.43233 0.49316 0.0
U186 U 0.02979 0.50211 0.43551 0.0
O187 O 0.05531 0.5647 0.43467 0.0
O188 O 0.09109 0.53781 0.43055 0.0
C189 C 0.09002 0.56993 0.43236 0.0
C190 C 0.00904 0.47243 0.46903 0.0
C191 C 0.12185 0.60229 0.44404 0.0
C192 C 0.17635 0.62775 0.46748 0.0
C193 C 0.1427 0.59664 0.45877 0.0
C194 C 0.16752 0.67064 0.44761 0.0
C195 C 0.18967 0.665 0.46164 0.0
C196 C 0.13402 0.63958 0.4389 0.0
C197 C 0.99207 0.46974 0.38288 0.0
C198 C 1.00303 0.51127 0.3567 0.0
C199 C 0.98935 0.44604 0.34936 0.0
C200 C 0.98653 0.44014 0.36916 0.0
C201 C 0.99745 0.48162 0.34292 0.0
C202 C 1.00062 0.50548 0.37651 0.0
C203 C 0.98944 0.46297 0.40371 0.0
O204 O 0.03519 0.46985 0.45881 0.0
O205 O 0.99887 0.49614 0.46231 0.0
O206 O 0.98057 0.48467 0.41494 0.0
O207 O 0.01713 0.45865 0.41135 0.0
H208 H 0.96772 0.40684 0.44568 0.0
H209 H 0.91248 0.34699 0.45406 0.0
H210 H 0.92141 0.39682 0.51248 0.0
H211 H 0.9776 0.45621 0.50408 0.0
H212 H 0.19247 0.62251 0.47843 0.0
H213 H 0.13377 0.56811 0.46307 0.0
H214 H 0.1771 0.69879 0.44258 0.0
H215 H 0.11846 0.64453 0.4275 0.0
H216 H 0.00973 0.5391 0.35216 0.0
H217 H 0.9846 0.4226 0.33904 0.0
H218 H 0.98002 0.4124 0.37378 0.0
H219 H 1.00551 0.52898 0.38682 0.0
C220 C 0.55144 0.96679 0.81193 0.0
C221 C 0.57057 0.95136 0.80107 0.0
C222 C 0.54626 0.89705 0.82103 0.0
C223 C 0.56821 0.91699 0.80566 0.0
C224 C 0.5276 0.91286 0.83208 0.0
C225 C 0.53026 0.94751 0.82759 0.0
U226 U 0.55191 0.02556 0.77162 0.0
O227 O 0.52002 0.0556 0.76606 0.0
O228 O 0.58324 0.0876 0.76812 0.0
C229 C 0.55144 0.08924 0.76619 0.0
C230 C 0.5511 1.0012 0.80604 0.0
C231 C 0.55104 0.12188 0.77677 0.0
C232 C 0.52397 0.14854 0.80006 0.0
C233 C 0.52624 0.1171 0.79184 0.0
C234 C 0.57207 0.18985 0.77867 0.0
C235 C 0.54636 0.18514 0.79327 0.0
C236 C 0.57429 0.15855 0.7705 0.0
C237 C 0.55376 0.98856 0.72002 0.0
C238 C 0.56662 0.02809 0.69281 0.0
C239 C 0.54056 0.95954 0.68696 0.0
C240 C 0.54075 0.95611 0.70699 0.0
C241 C 0.55358 0.99559 0.67966 0.0
C242 C 0.56652 0.02457 0.71284 0.0
C243 C 0.55314 0.98443 0.74103 0.0
O244 O 0.58274 0.02686 0.79852 0.0
O245 O 0.51967 0.9943 0.79624 0.0
O246 O 0.52124 0.97826 0.749 0.0
O247 O 0.58429 0.00981 0.75129 0.0
H248 H 0.58659 0.96537 0.78871 0.0
H249 H 0.58237 0.90526 0.79667 0.0
H250 H 0.5106 0.89821 0.84406 0.0
H251 H 0.51508 0.9588 0.83605 0.0
H252 H 0.50381 0.14395 0.81124 0.0
H253 H 0.50799 0.08903 0.79694 0.0
H254 H 0.5903 0.21776 0.77339 0.0
H255 H 0.59363 0.16287 0.75891 0.0
H256 H 0.57635 0.05613 0.68762 0.0
H257 H 0.53067 0.93407 0.67717 0.0
H258 H 0.53068 0.92809 0.71231 0.0
H259 H 0.57627 0.04992 0.72272 0.0
C260 C 0.58058 0.52745 0.1412 0.0
C261 C 0.59716 0.51923 0.12521 0.0
C262 C 0.65229 0.53052 0.14572 0.0
C263 C 0.63247 0.52063 0.12744 0.0
C264 C 0.63538 0.53832 0.16183 0.0
C265 C 0.59982 0.53692 0.15956 0.0
U266 U 0.50925 0.52231 0.10475 0.0
O267 O 0.44612 0.49184 0.10162 0.0
O268 O 0.47878 0.55462 0.10105 0.0
C269 C 0.44475 0.52354 0.10011 0.0
C270 C 0.54412 0.52742 0.13809 0.0
C271 C 0.41341 0.52632 0.10951 0.0
C272 C 0.36987 0.51496 0.13568 0.0
C273 C 0.40196 0.5144 0.12816 0.0
C274 C 0.36084 0.53951 0.10605 0.0
C275 C 0.34873 0.52733 0.12463 0.0
C276 C 0.3928 0.53911 0.09865 0.0
C277 C 0.53619 0.51421 0.05235 0.0
C278 C 0.50822 0.5263 0.02406 0.0
C279 C 0.55079 0.50011 0.01998 0.0
C280 C 0.55505 0.50064 0.04013 0.0
C281 C 0.52765 0.51331 0.01172 0.0
C282 C 0.51236 0.52663 0.04425 0.0
C283 C 0.54292 0.51648 0.07346 0.0
O284 O 0.54761 0.55754 0.12988 0.0
O285 O 0.51556 0.49496 0.13018 0.0
O286 O 0.51828 0.48666 0.08235 0.0
O287 O 0.55158 0.54938 0.08276 0.0
H288 H 0.58282 0.51189 0.1109 0.0
H289 H 0.64411 0.51368 0.11479 0.0
H290 H 0.64996 0.54622 0.17609 0.0
H291 H 0.58759 0.54359 0.17205 0.0
H292 H 0.36165 0.50573 0.15011 0.0
H293 H 0.41746 0.50429 0.13675 0.0
H294 H 0.34502 0.54845 0.0969 0.0
H295 H 0.40093 0.54802 0.08414 0.0
H296 H 0.48987 0.53624 0.01811 0.0
H297 H 0.56647 0.49036 0.01088 0.0
H298 H 0.57361 0.49103 0.04618 0.0
H299 H 0.49741 0.53703 0.05352 0.0
H300 H 0.13789 0.53742 0.13093 0.0
H301 H 0.1556 0.51191 0.18885 0.0
H302 H 0.19463 0.5346 0.1209 0.0
H303 H 0.21227 0.50901 0.17876 0.0
H304 H 0.29257 0.47386 0.14617 0.0
H305 H 0.23333 0.4715 0.15631 0.0
H306 H 0.26556 0.57654 0.1294 0.0
H307 H 0.32507 0.57969 0.11977 0.0
C308 C 0.15351 0.53064 0.14144 0.0
C309 C 0.14228 0.52503 0.16071 0.0
C310 C 0.18621 0.52934 0.13574 0.0
C311 C 0.20813 0.52193 0.1491 0.0
C312 C 0.19592 0.51465 0.16812 0.0
C313 C 0.16351 0.51643 0.1739 0.0
C314 C 0.28737 0.4968 0.14267 0.0
C315 C 0.31364 0.52682 0.13198 0.0
C316 C 0.25328 0.49528 0.14839 0.0
C317 C 0.24452 0.52354 0.14341 0.0
C318 C 0.27105 0.55386 0.13307 0.0
C319 C 0.30521 0.55562 0.12755 0.0
H320 H 0.70193 0.14489 0.48233 0.0
H321 H 0.70926 0.20134 0.53874 0.0
H322 H 0.76454 0.19803 0.47535 0.0
H323 H 0.77165 0.2546 0.53165 0.0
H324 H 0.89781 0.33057 0.51782 0.0
H325 H 0.83918 0.2733 0.52577 0.0
H326 H 0.78863 0.26543 0.4688 0.0
H327 H 0.84675 0.32278 0.46092 0.0
C328 C 0.71705 0.1684 0.49333 0.0
C329 C 0.70046 0.16893 0.51106 0.0
C330 C 0.75282 0.19899 0.48927 0.0
C331 C 0.77293 0.2307 0.50288 0.0
C332 C 0.75705 0.2305 0.52091 0.0
C333 C 0.72118 0.2 0.52494 0.0
C334 C 0.87412 0.31675 0.50702 0.0
C335 C 0.87712 0.33137 0.48871 0.0
C336 C 0.84057 0.28387 0.51157 0.0
C337 C 0.8093 0.26471 0.49789 0.0
C338 C 0.81245 0.27908 0.47954 0.0
C339 C 0.84585 0.31201 0.47502 0.0
H340 H 0.5569 0.6904 0.8455 0.0
H341 H 0.46132 0.65602 0.80418 0.0
H342 H 0.56895 0.75643 0.847 0.0
H343 H 0.47334 0.72149 0.80572 0.0
H344 H 0.47937 0.83228 0.82753 0.0
H345 H 0.46913 0.76775 0.83 0.0
H346 H 0.59043 0.81021 0.82432 0.0
H347 H 0.60081 0.87503 0.82212 0.0
C348 C 0.5385 0.69689 0.83677 0.0
C349 C 0.50817 0.66796 0.82472 0.0
C350 C 0.54546 0.73466 0.83759 0.0
C351 C 0.5219 0.74403 0.82659 0.0
C352 C 0.49163 0.71506 0.81459 0.0
C353 C 0.48495 0.67755 0.8136 0.0
C354 C 0.50397 0.828 0.82718 0.0
C355 C 0.54087 0.85871 0.82456 0.0
C356 C 0.49805 0.791 0.82841 0.0
C357 C 0.52894 0.7839 0.82719 0.0
C358 C 0.56611 0.81484 0.82538 0.0
C359 C 0.57199 0.85185 0.82398 0.0
H360 H 0.86548 0.53057 0.17877 0.0
H361 H 0.84001 0.49455 0.11758 0.0
H362 H 0.81115 0.54229 0.17936 0.0
H363 H 0.78588 0.50595 0.1182 0.0
H364 H 0.71112 0.56016 0.12099 0.0
H365 H 0.77053 0.5577 0.12224 0.0
H366 H 0.73956 0.50313 0.17618 0.0
H367 H 0.67971 0.50529 0.17486 0.0
C368 C 0.8486 0.52557 0.16541 0.0
C369 C 0.8571 0.51161 0.14812 0.0
C370 C 0.81731 0.532 0.16579 0.0
C371 C 0.79413 0.52502 0.14884 0.0
C372 C 0.80336 0.51206 0.13148 0.0
C373 C 0.83434 0.50534 0.13114 0.0
C374 C 0.71687 0.54756 0.13312 0.0
C375 C 0.69028 0.53239 0.14768 0.0
C376 C 0.75101 0.54622 0.13385 0.0
C377 C 0.75964 0.52985 0.14919 0.0
C378 C 0.73392 0.51619 0.16422 0.0
C379 C 0.6996 0.51743 0.16347 0.0
H380 H 0.42925 0.8248 0.45853 0.0
H381 H 0.39774 0.87921 0.50485 0.0
H382 H 0.36415 0.77074 0.45588 0.0
H383 H 0.33214 0.82446 0.50226 0.0
H384 H 0.21031 0.73997 0.47182 0.0
H385 H 0.2752 0.79416 0.47875 0.0
H386 H 0.32081 0.71703 0.47441 0.0
H387 H 0.25634 0.66318 0.46689 0.0
C388 C 0.40845 0.82522 0.46821 0.0
C389 C 0.41875 0.8564 0.4819 0.0
C390 C 0.37114 0.794 0.46678 0.0
C391 C 0.34302 0.79312 0.47897 0.0
C392 C 0.35315 0.82438 0.49262 0.0
C393 C 0.39071 0.85565 0.49413 0.0
C394 C 0.23419 0.73458 0.47247 0.0
C395 C 0.22812 0.69724 0.46865 0.0
C396 C 0.27132 0.76559 0.47661 0.0
C397 C 0.30319 0.75994 0.47692 0.0
C398 C 0.29691 0.7224 0.47398 0.0
C399 C 0.25985 0.69144 0.46991 0.0
H400 H 0.50778 0.37992 0.8088 0.0
H401 H 0.58421 0.3929 0.85711 0.0
H402 H 0.50035 0.31735 0.7991 0.0
H403 H 0.57753 0.33085 0.84713 0.0
H404 H 0.53957 0.20575 0.83106 0.0
H405 H 0.53548 0.26183 0.84322 0.0
H406 H 0.54115 0.29581 0.7846 0.0
H407 H 0.5437 0.23933 0.77247 0.0
C408 C 0.52275 0.36931 0.81745 0.0
C409 C 0.54685 0.39159 0.83363 0.0
C410 C 0.51867 0.33353 0.81182 0.0
C411 C 0.53868 0.31922 0.8222 0.0
C412 C 0.56144 0.34078 0.83889 0.0
C413 C 0.56543 0.37652 0.84455 0.0
C414 C 0.53938 0.22495 0.82078 0.0
C415 C 0.54232 0.21826 0.80082 0.0
C416 C 0.53737 0.25724 0.82775 0.0
C417 C 0.53806 0.2834 0.81489 0.0
C418 C 0.54008 0.2761 0.79491 0.0
C419 C 0.54211 0.24396 0.78797 0.0
H420 H 0.56461 0.87513 0.54125 0.0
H421 H 0.56789 0.87418 0.4787 0.0
H422 H 0.57992 0.82374 0.54071 0.0
H423 H 0.58327 0.82236 0.47818 0.0
H424 H 0.54944 0.69407 0.48881 0.0
H425 H 0.54643 0.75262 0.48578 0.0
H426 H 0.63226 0.80944 0.53292 0.0
H427 H 0.63583 0.75125 0.53577 0.0
C428 C 0.56908 0.86425 0.52739 0.0
C429 C 0.56496 0.87865 0.51002 0.0
C430 C 0.57808 0.83493 0.52709 0.0
C431 C 0.58281 0.81901 0.5094 0.0
C432 C 0.57958 0.83397 0.49202 0.0
C433 C 0.57104 0.86376 0.49233 0.0
C434 C 0.56838 0.71931 0.49821 0.0
C435 C 0.59249 0.71777 0.51272 0.0
C436 C 0.56662 0.75286 0.49647 0.0
C437 C 0.5888 0.78546 0.50927 0.0
C438 C 0.61435 0.78454 0.52308 0.0
C439 C 0.61629 0.75116 0.52474 0.0
H440 H 0.68052 0.50793 0.79242 0.0
H441 H 0.6848 0.55067 0.85185 0.0
H442 H 0.74541 0.5184 0.79733 0.0
H443 H 0.74929 0.56022 0.8569 0.0
H444 H 0.8766 0.59987 0.8561 0.0
H445 H 0.81548 0.59699 0.84873 0.0
H446 H 0.77603 0.48964 0.81453 0.0
H447 H 0.83718 0.49278 0.82176 0.0
C448 C 0.69537 0.51975 0.80651 0.0
C449 C 0.67739 0.5283 0.82177 0.0
C450 C 0.7325 0.52552 0.80936 0.0
C451 C 0.75251 0.53985 0.82756 0.0
C452 C 0.73494 0.54953 0.84264 0.0
C453 C 0.69785 0.54389 0.83977 0.0
C454 C 0.85485 0.57569 0.84699 0.0
C455 C 0.86172 0.54651 0.83955 0.0
C456 C 0.81981 0.57401 0.84279 0.0
C457 C 0.79075 0.54304 0.83108 0.0
C458 C 0.79795 0.51425 0.82333 0.0
C459 C 0.83303 0.516 0.82749 0.0
H460 H 0.17251 0.67519 0.13349 0.0
H461 H 0.13263 0.67694 0.19115 0.0
H462 H 0.22825 0.73851 0.14144 0.0
H463 H 0.18862 0.73985 0.19917 0.0
H464 H 0.28005 0.86415 0.20461 0.0
H465 H 0.22058 0.80725 0.19229 0.0
H466 H 0.28648 0.76358 0.16251 0.0
H467 H 0.34584 0.82104 0.17428 0.0
C468 C 0.17545 0.68919 0.1478 0.0
C469 C 0.14826 0.6709 0.16173 0.0
C470 C 0.20749 0.72539 0.15238 0.0
C471 C 0.21298 0.74412 0.17097 0.0
C472 C 0.18504 0.72641 0.18465 0.0
C473 C 0.15304 0.69021 0.18008 0.0
C474 C 0.28181 0.84281 0.19507 0.0
C475 C 0.31766 0.84699 0.19049 0.0
C476 C 0.24775 0.81002 0.18819 0.0
C477 C 0.2488 0.78077 0.17655 0.0
C478 C 0.28463 0.78571 0.17132 0.0
C479 C 0.31867 0.81844 0.17823 0.0
H480 H 0.60486 0.21086 0.47797 0.0
H481 H 0.52992 0.14729 0.5226 0.0
H482 H 0.59663 0.26546 0.48754 0.0
H483 H 0.52098 0.20151 0.53185 0.0
H484 H 0.557 0.32065 0.55996 0.0
H485 H 0.56009 0.2643 0.54815 0.0
H486 H 0.55223 0.29014 0.48895 0.0
H487 H 0.54941 0.34707 0.50088 0.0
C488 C 0.58616 0.2083 0.48963 0.0
C489 C 0.56832 0.1748 0.49963 0.0
C490 C 0.5813 0.23958 0.49506 0.0
C491 C 0.55845 0.23805 0.5106 0.0
C492 C 0.5394 0.20395 0.52007 0.0
C493 C 0.54432 0.17274 0.51467 0.0
C494 C 0.55545 0.3141 0.54441 0.0
C495 C 0.55263 0.33819 0.53136 0.0
C496 C 0.55715 0.2817 0.53763 0.0
C497 C 0.55601 0.27241 0.51759 0.0
C498 C 0.55345 0.29662 0.50448 0.0
C499 C 0.55184 0.32922 0.5113 0.0
H500 H 0.37972 0.53718 0.81944 0.0
H501 H 0.36562 0.48255 0.87311 0.0
H502 H 0.31732 0.53307 0.82255 0.0
H503 H 0.30368 0.47908 0.87636 0.0
H504 H 0.18292 0.45818 0.8726 0.0
H505 H 0.2377 0.45127 0.86325 0.0
H506 H 0.29368 0.56603 0.84422 0.0
H507 H 0.2384 0.57243 0.85296 0.0
C508 C 0.36311 0.52381 0.83176 0.0
C509 C 0.37782 0.51046 0.84612 0.0
C510 C 0.32745 0.5217 0.8336 0.0
C511 C 0.30566 0.50607 0.84979 0.0
C512 C 0.31952 0.49098 0.86361 0.0
C513 C 0.35519 0.49315 0.8618 0.0
C514 C 0.20652 0.48159 0.866 0.0
C515 C 0.2064 0.51595 0.86363 0.0
C516 C 0.23809 0.47777 0.86083 0.0
C517 C 0.27019 0.50818 0.85312 0.0
C518 C 0.26931 0.54191 0.84997 0.0
C519 C 0.23781 0.54575 0.85517 0.0
H520 H 0.85212 0.36166 0.14659 0.0
H521 H 0.84645 0.38053 0.20845 0.0
H522 H 0.79771 0.29644 0.14724 0.0
H523 H 0.79241 0.31568 0.20905 0.0
H524 H 0.71968 0.18695 0.20697 0.0
H525 H 0.77833 0.24766 0.20387 0.0
H526 H 0.72658 0.26725 0.15372 0.0
H527 H 0.66742 0.20671 0.157 0.0
C528 C 0.8395 0.35179 0.16033 0.0
C529 C 0.8535 0.37621 0.17747 0.0
C530 C 0.80829 0.31458 0.16066 0.0
C531 C 0.79093 0.30102 0.17819 0.0
C532 C 0.8055 0.32521 0.19536 0.0
C533 C 0.83631 0.36244 0.19499 0.0
C534 C 0.72074 0.20417 0.19528 0.0
C535 C 0.68864 0.19224 0.18241 0.0
C536 C 0.75438 0.23886 0.19348 0.0
C537 C 0.75685 0.26231 0.17868 0.0
C538 C 0.72554 0.24959 0.1652 0.0
C539 C 0.6917 0.21491 0.16707 0.0
H540 H 0.0474 0.58773 0.11492 0.0
H541 H 0.96622 0.46685 0.10347 0.0
H542 H 0.05382 0.59436 0.08007 0.0
H543 H 0.97218 0.4737 0.06871 0.0
H544 H 0.01365 0.49181 0.00757 0.0
H545 H 0.01666 0.4871 0.04258 0.0
H546 H 0.01289 0.59199 0.05263 0.0
H547 H 0.0111 0.59733 0.01766 0.0
C548 C 0.03109 0.56253 0.10501 0.0
C549 C 1.00607 0.52681 0.11201 0.0
C550 C 0.03462 0.5664 0.08503 0.0
C551 C 0.01337 0.5346 0.07162 0.0
C552 C 0.98925 0.49868 0.07865 0.0
C553 C 0.98564 0.49483 0.0986 0.0
C554 C 0.01411 0.51419 0.01726 0.0
C555 C 0.01196 0.54485 0.00984 0.0
C556 C 0.01545 0.51129 0.03731 0.0
C557 C 0.01483 0.53906 0.05038 0.0
C558 C 0.01375 0.57028 0.04296 0.0
C559 C 0.01228 0.57311 0.02293 0.0
H560 H 0.52806 0.96075 0.43688 0.0
H561 H 0.56088 0.08007 0.44813 0.0
H562 H 0.52645 0.96733 0.40198 0.0
H563 H 0.55922 0.08643 0.41326 0.0
H564 H 0.51478 0.07153 0.3497 0.0
H565 H 0.51125 0.06196 0.38445 0.0
H566 H 0.57622 0.00317 0.37777 0.0
H567 H 0.57946 0.01244 0.34303 0.0
C568 C 0.53473 0.9883 0.43194 0.0
C569 C 0.54476 0.01993 0.4453 0.0
C570 C 0.53398 0.99207 0.41196 0.0
C571 C 0.54278 0.02739 0.40495 0.0
C572 C 0.552 0.05879 0.41828 0.0
C573 C 0.55317 0.05516 0.43824 0.0
C574 C 0.52799 0.05629 0.35566 0.0
C575 C 0.54749 0.04282 0.34372 0.0
C576 C 0.52621 0.05106 0.37553 0.0
C577 C 0.54349 0.03186 0.38378 0.0
C578 C 0.56239 0.01781 0.37176 0.0
C579 C 0.56454 0.02341 0.35195 0.0
H580 H 0.57732 0.52159 0.77355 0.0
H581 H 0.49145 0.55664 0.77465 0.0
H582 H 0.58213 0.52885 0.73881 0.0
H583 H 0.49535 0.56265 0.73976 0.0
H584 H 0.54257 0.61031 0.68192 0.0
H585 H 0.5374 0.60246 0.7166 0.0
H586 H 0.54843 0.50127 0.70816 0.0
H587 H 0.55592 0.51046 0.67364 0.0
C588 C 0.55917 0.53048 0.76636 0.0
C589 C 0.53405 0.53861 0.77693 0.0
C590 C 0.56178 0.53444 0.74638 0.0
C591 C 0.53914 0.54635 0.73644 0.0
C592 C 0.51369 0.55404 0.74698 0.0
C593 C 0.51128 0.55036 0.76699 0.0
C594 C 0.54437 0.58665 0.68747 0.0
C595 C 0.54983 0.56112 0.67495 0.0
C596 C 0.54084 0.58181 0.70736 0.0
C597 C 0.54242 0.55118 0.71522 0.0
C598 C 0.54755 0.52546 0.70266 0.0
C599 C 0.55132 0.53044 0.6828 0.0
H600 H 0.52523 0.95248 0.55404 0.0
H601 H 0.58426 0.07602 0.56325 0.0
H602 H 0.52509 0.94758 0.58894 0.0
H603 H 0.5827 0.07104 0.59824 0.0
H604 H 0.61054 0.04904 0.65907 0.0
H605 H 0.61087 0.05452 0.62407 0.0
H606 H 0.49629 0.95625 0.61733 0.0
H607 H 0.49643 0.95043 0.65228 0.0
C608 C 0.5381 0.97862 0.56347 0.0
C609 C 0.55504 0.01464 0.55576 0.0
C610 C 0.53767 0.97579 0.58355 0.0
C611 C 0.55388 0.00891 0.59645 0.0
C612 C 0.5705 0.04494 0.58874 0.0
C613 C 0.57115 0.04778 0.56865 0.0
C614 C 0.58536 0.02879 0.65009 0.0
C615 C 0.5535 0.99925 0.6584 0.0
C616 C 0.58548 0.03196 0.63004 0.0
C617 C 0.55361 0.00581 0.61784 0.0
C618 C 0.5216 0.97647 0.62622 0.0
C619 C 0.52162 0.97315 0.64625 0.0
H620 H 0.56402 0.50083 0.88898 0.0
H621 H 0.49322 0.554 0.89198 0.0
H622 H 0.56196 0.49649 0.92398 0.0
H623 H 0.4904 0.54869 0.92696 0.0
H624 H 0.53113 0.57131 0.99165 0.0
H625 H 0.5308 0.57523 0.95653 0.0
H626 H 0.51777 0.46217 0.94839 0.0
H627 H 0.51849 0.45847 0.98352 0.0
C628 C 0.54789 0.51147 0.89707 0.0
C629 C 0.5288 0.52778 0.88762 0.0
C630 C 0.54647 0.50871 0.91714 0.0
C631 C 0.52585 0.52207 0.92827 0.0
C632 C 0.50687 0.5385 0.91885 0.0
C633 C 0.50836 0.54136 0.89876 0.0
C634 C 0.52769 0.54711 0.98234 0.0
C635 C 0.52497 0.51464 0.99034 0.0
C636 C 0.52751 0.54935 0.96221 0.0
C637 C 0.52449 0.5191 0.94964 0.0
C638 C 0.52091 0.48628 0.95766 0.0
C639 C 0.52122 0.48411 0.97778 0.0
H640 H 0.94278 0.48762 0.22185 0.0
H641 H 0.06584 0.53394 0.22415 0.0
H642 H 0.94205 0.48006 0.25663 0.0
H643 H 0.06496 0.52634 0.25908 0.0
H644 H 0.03559 0.4624 0.31606 0.0
H645 H 0.03814 0.47132 0.28123 0.0
H646 H 0.96705 0.52356 0.28758 0.0
H647 H 0.96428 0.51442 0.32234 0.0
C648 C 0.96967 0.49607 0.22974 0.0
C649 C 1.00436 0.5113 0.2202 0.0
C650 C 0.96925 0.49199 0.2497 0.0
C651 C 1.00345 0.50267 0.26055 0.0
C652 C 0.03814 0.51765 0.25103 0.0
C653 C 0.03864 0.52218 0.23107 0.0
C654 C 0.02046 0.4757 0.30998 0.0
C655 C 0.99968 0.48767 0.32188 0.0
C656 C 0.02218 0.48108 0.29011 0.0
C657 C 1.00275 0.49808 0.28172 0.0
C658 C 0.98205 0.51011 0.29364 0.0
C659 C 0.98072 0.50515 0.31353 0.0
loop_
_geom_bond_atom_site_label_1
_geom_bond_atom_site_label_2
_geom_bond_distance
_geom_bond_site_symmetry_2
_ccdc_geom_bond_type
Zn0 O6 1.969 . S
Zn0 O7 1.965 . S
Zn0 O11 2.024 . S
Zn0 O16 1.969 . S
Zn1 O8 1.969 . S
Zn1 O14 1.969 . S
Zn1 O15 1.965 . S
Zn1 O17 2.024 . S
C2 O3 1.229 . S
C2 O11 1.058 . S
O3 C2 1.229 . S
C4 O5 1.229 . S
C4 O17 1.058 . S
O5 C4 1.229 . S
O6 Zn0 1.969 . S
O6 C9 1.267 . S
O7 Zn0 1.965 . S
O7 C18 1.260 1_455 S
O8 Zn1 1.969 . S
O8 C18 1.258 . S
C9 O6 1.267 . S
C9 O10 1.228 . S
O10 C9 1.228 . S
O11 Zn0 2.024 . S
O11 C2 1.058 . S
C12 O13 1.228 . S
C12 O14 1.267 . S
O13 C12 1.228 . S
O14 Zn1 1.969 . S
O14 C12 1.267 . S
O15 Zn1 1.965 . S
O15 C19 1.260 1_655 S
O16 Zn0 1.969 . S
O16 C19 1.258 . S
O17 Zn1 2.024 . S
O17 C4 1.058 . S
C18 O7 1.260 1_655 S
C18 O8 1.258 . S
C19 O15 1.260 1_455 S
C19 O16 1.258 . S
Zn20 O26 1.969 . S
Zn20 O27 1.965 . S
Zn20 O31 2.024 . S
Zn20 O36 1.969 . S
Zn21 O28 1.969 . S
Zn21 O34 1.969 . S
Zn21 O35 1.965 . S
Zn21 O37 2.024 . S
C22 O23 1.229 . S
C22 O31 1.058 . S
O23 C22 1.229 . S
C24 O25 1.229 . S
C24 O37 1.058 . S
O25 C24 1.229 . S
O26 Zn20 1.969 . S
O26 C29 1.267 . S
O27 Zn20 1.965 . S
O27 C38 1.260 . S
O28 Zn21 1.969 . S
O28 C38 1.258 1_565 S
C29 O26 1.267 . S
C29 O30 1.228 . S
O30 C29 1.228 . S
O31 Zn20 2.024 . S
O31 C22 1.058 . S
C32 O33 1.228 . S
C32 O34 1.267 . S
O33 C32 1.228 . S
O34 Zn21 1.969 . S
O34 C32 1.267 . S
O35 Zn21 1.965 . S
O35 C39 1.260 1_565 S
O36 Zn20 1.969 . S
O36 C39 1.258 . S
O37 Zn21 2.024 . S
O37 C24 1.058 . S
C38 O27 1.260 . S
C38 O28 1.258 1_545 S
C39 O35 1.260 1_545 S
C39 O36 1.258 . S
Zn40 O46 1.969 . S
Zn40 O47 1.965 . S
Zn40 O51 2.024 . S
Zn40 O56 1.969 . S
Zn41 O48 1.969 . S
Zn41 O54 1.969 . S
Zn41 O55 1.965 . S
Zn41 O57 2.024 . S
C42 O43 1.229 . S
C42 O51 1.058 . S
O43 C42 1.229 . S
C44 O45 1.229 . S
C44 O57 1.058 . S
O45 C44 1.229 . S
O46 Zn40 1.969 . S
O46 C49 1.267 . S
O47 Zn40 1.965 . S
O47 C58 1.260 . S
O48 Zn41 1.969 . S
O48 C58 1.258 . S
C49 O46 1.267 . S
C49 O50 1.228 . S
O50 C49 1.228 . S
O51 Zn40 2.024 . S
O51 C42 1.058 . S
C52 O53 1.228 . S
C52 O54 1.267 . S
O53 C52 1.228 . S
O54 Zn41 1.969 . S
O54 C52 1.267 . S
O55 Zn41 1.965 . S
O55 C59 1.260 . S
O56 Zn40 1.969 . S
O56 C59 1.258 . S
O57 Zn41 2.024 . S
O57 C44 1.058 . S
C58 O47 1.260 . S
C58 O48 1.258 . S
C59 O55 1.260 . S
C59 O56 1.258 . S
C60 C61 1.264 . S
C60 C65 1.479 . S
C60 C70 1.465 . S
C61 C60 1.264 . S
C61 C63 1.339 . S
C61 H88 0.931 . S
C62 C63 1.395 . S
C62 C64 1.320 . S
C63 C61 1.339 . S
C63 C62 1.395 . S
C63 H89 0.929 . S
C64 C62 1.320 . S
C64 C65 1.405 . S
C64 H90 0.930 . S
C65 C60 1.479 . S
C65 C64 1.405 . S
C65 H91 0.931 . S
U66 O67 2.453 1_545 S
U66 O68 2.458 1_545 S
U66 C69 2.984 1_545 S
U66 C70 2.847 . S
U66 C83 2.882 . S
U66 O84 2.441 . S
U66 O85 2.420 . S
U66 O86 2.455 . S
U66 O87 2.449 . S
O67 U66 2.453 1_565 S
O67 C69 1.355 . S
O68 U66 2.458 1_565 S
O68 C69 1.286 . S
C69 U66 2.984 1_565 S
C69 O67 1.355 . S
C69 O68 1.286 . S
C69 C71 1.363 . S
C70 C60 1.465 . S
C70 U66 2.847 . S
C70 O84 1.249 . S
C70 O85 1.202 . S
C71 C69 1.363 . S
C71 C73 1.408 . S
C71 C76 1.342 . S
C72 C73 1.310 . S
C72 C75 1.461 . S
C72 H92 0.932 . S
C73 C71 1.408 . S
C73 C72 1.310 . S
C73 H93 0.930 . S
C74 C75 1.474 . S
C74 C76 1.285 . S
C74 H94 0.929 . S
C75 C72 1.461 . S
C75 C74 1.474 . S
C76 C71 1.342 . S
C76 C74 1.285 . S
C76 H95 0.930 . S
C77 C80 1.424 . S
C77 C82 1.245 . S
C77 C83 1.428 . S
C78 C81 1.260 . S
C78 C82 1.477 . S
C78 H96 0.932 1_545 S
C79 C80 1.384 . S
C79 C81 1.479 . S
C79 H97 0.929 . S
C80 C77 1.424 . S
C80 C79 1.384 . S
C80 H98 0.928 . S
C81 C78 1.260 . S
C81 C79 1.479 . S
C82 C77 1.245 . S
C82 C78 1.477 . S
C82 H99 0.932 1_545 S
C83 U66 2.882 . S
C83 C77 1.428 . S
C83 O86 1.301 . S
C83 O87 1.282 . S
O84 U66 2.441 . S
O84 C70 1.249 . S
O85 U66 2.420 . S
O85 C70 1.202 . S
O86 U66 2.455 . S
O86 C83 1.301 . S
O87 U66 2.449 . S
O87 C83 1.282 . S
H88 C61 0.931 . S
H89 C63 0.929 . S
H90 C64 0.930 . S
H91 C65 0.931 . S
H92 C72 0.932 . S
H93 C73 0.930 . S
H94 C74 0.929 . S
H95 C76 0.930 . S
H96 C78 0.932 1_565 S
H97 C79 0.929 . S
H98 C80 0.928 . S
H99 C82 0.932 1_565 S
C100 C101 1.264 . S
C100 C105 1.479 . S
C100 C110 1.465 . S
C101 C100 1.264 . S
C101 C103 1.339 . S
C101 H128 0.931 . S
C102 C103 1.395 . S
C102 C104 1.320 . S
C103 C101 1.339 . S
C103 C102 1.395 . S
C103 H129 0.929 . S
C104 C102 1.320 . S
C104 C105 1.405 . S
C104 H130 0.930 . S
C105 C100 1.479 . S
C105 C104 1.405 . S
C105 H131 0.931 . S
U106 O107 2.454 . S
U106 O108 2.458 . S
U106 C109 2.984 . S
U106 C110 2.847 . S
U106 C123 2.882 . S
U106 O124 2.441 . S
U106 O125 2.420 . S
U106 O126 2.455 . S
U106 O127 2.449 . S
O107 U106 2.454 . S
O107 C109 1.353 . S
O108 U106 2.458 . S
O108 C109 1.286 . S
C109 U106 2.984 . S
C109 O107 1.353 . S
C109 O108 1.286 . S
C109 C111 1.363 . S
C110 C100 1.465 . S
C110 U106 2.847 . S
C110 O124 1.249 . S
C110 O125 1.202 . S
C111 C109 1.363 . S
C111 C113 1.408 . S
C111 C116 1.342 . S
C112 C113 1.310 . S
C112 C115 1.461 . S
C112 H132 0.932 . S
C113 C111 1.408 . S
C113 C112 1.310 . S
C113 H133 0.930 . S
C114 C115 1.474 . S
C114 C116 1.285 . S
C114 H134 0.929 . S
C115 C112 1.461 . S
C115 C114 1.474 . S
C116 C111 1.342 . S
C116 C114 1.285 . S
C116 H135 0.930 . S
C117 C120 1.424 . S
C117 C122 1.245 . S
C117 C123 1.428 . S
C118 C121 1.260 . S
C118 C122 1.477 . S
C118 H136 0.932 . S
C119 C120 1.384 . S
C119 C121 1.479 . S
C119 H137 0.929 . S
C120 C117 1.424 . S
C120 C119 1.384 . S
C120 H138 0.928 . S
C121 C118 1.260 . S
C121 C119 1.479 . S
C122 C117 1.245 . S
C122 C118 1.477 . S
C122 H139 0.932 . S
C123 U106 2.882 . S
C123 C117 1.428 . S
C123 O126 1.301 . S
C123 O127 1.282 . S
O124 U106 2.441 . S
O124 C110 1.249 . S
O125 U106 2.420 . S
O125 C110 1.202 . S
O126 U106 2.455 . S
O126 C123 1.301 . S
O127 U106 2.449 . S
O127 C123 1.282 . S
H128 C101 0.931 . S
H129 C103 0.929 . S
H130 C104 0.930 . S
H131 C105 0.931 . S
H132 C112 0.932 . S
H133 C113 0.930 . S
H134 C114 0.929 . S
H135 C116 0.930 . S
H136 C118 0.932 . S
H137 C119 0.929 . S
H138 C120 0.928 . S
H139 C122 0.932 . S
C140 C141 1.264 . S
C140 C145 1.479 . S
C140 C150 1.465 . S
C141 C140 1.264 . S
C141 C143 1.339 . S
C141 H168 0.931 . S
C142 C143 1.395 . S
C142 C144 1.320 . S
C143 C141 1.339 . S
C143 C142 1.395 . S
C143 H169 0.929 . S
C144 C142 1.320 . S
C144 C145 1.405 . S
C144 H170 0.930 . S
C145 C140 1.479 . S
C145 C144 1.405 . S
C145 H171 0.931 . S
U146 O147 2.454 . S
U146 O148 2.458 . S
U146 C149 2.984 . S
U146 C150 2.847 1_455 S
U146 C163 2.882 . S
U146 O164 2.441 1_455 S
U146 O165 2.420 1_455 S
U146 O166 2.455 . S
U146 O167 2.449 1_455 S
O147 U146 2.454 . S
O147 C149 1.353 . S
O148 U146 2.458 . S
O148 C149 1.286 . S
C149 U146 2.984 . S
C149 O147 1.353 . S
C149 O148 1.286 . S
C149 C151 1.363 . S
C150 C140 1.465 . S
C150 U146 2.847 1_655 S
C150 O164 1.249 . S
C150 O165 1.202 . S
C151 C149 1.363 . S
C151 C153 1.408 . S
C151 C156 1.342 . S
C152 C153 1.310 . S
C152 C155 1.461 . S
C152 H172 0.932 . S
C153 C151 1.408 . S
C153 C152 1.310 . S
C153 H173 0.930 . S
C154 C155 1.474 . S
C154 C156 1.285 . S
C154 H174 0.929 . S
C155 C152 1.461 . S
C155 C154 1.474 . S
C156 C151 1.342 . S
C156 C154 1.285 . S
C156 H175 0.930 . S
C157 C160 1.424 1_455 S
C157 C162 1.245 . S
C157 C163 1.428 . S
C158 C161 1.260 . S
C158 C162 1.477 . S
C158 H176 0.932 . S
C159 C160 1.384 . S
C159 C161 1.479 1_655 S
C159 H177 0.929 . S
C160 C157 1.424 1_655 S
C160 C159 1.384 . S
C160 H178 0.928 . S
C161 C158 1.260 . S
C161 C159 1.479 1_455 S
C162 C157 1.245 . S
C162 C158 1.477 . S
C162 H179 0.932 . S
C163 U146 2.882 . S
C163 C157 1.428 . S
C163 O166 1.301 . S
C163 O167 1.282 1_455 S
O164 U146 2.441 1_655 S
O164 C150 1.249 . S
O165 U146 2.420 1_655 S
O165 C150 1.202 . S
O166 U146 2.455 . S
O166 C163 1.301 . S
O167 U146 2.449 1_655 S
O167 C163 1.282 1_655 S
H168 C141 0.931 . S
H169 C143 0.929 . S
H170 C144 0.930 . S
H171 C145 0.931 . S
H172 C152 0.932 . S
H173 C153 0.930 . S
H174 C154 0.929 . S
H175 C156 0.930 . S
H176 C158 0.932 . S
H177 C159 0.929 . S
H178 C160 0.928 . S
H179 C162 0.932 . S
C180 C181 1.264 . S
C180 C185 1.479 . S
C180 C190 1.465 . S
C181 C180 1.264 . S
C181 C183 1.339 . S
C181 H208 0.931 . S
C182 C183 1.395 . S
C182 C184 1.320 . S
C183 C181 1.339 . S
C183 C182 1.395 . S
C183 H209 0.929 . S
C184 C182 1.320 . S
C184 C185 1.405 . S
C184 H210 0.930 . S
C185 C180 1.479 . S
C185 C184 1.405 . S
C185 H211 0.931 . S
U186 O187 2.454 . S
U186 O188 2.458 . S
U186 C189 2.984 . S
U186 C190 2.847 1_455 S
U186 C203 2.882 . S
U186 O204 2.441 1_455 S
U186 O205 2.420 1_455 S
U186 O206 2.455 . S
U186 O207 2.449 1_455 S
O187 U186 2.454 . S
O187 C189 1.353 . S
O188 U186 2.458 . S
O188 C189 1.286 . S
C189 U186 2.984 . S
C189 O187 1.353 . S
C189 O188 1.286 . S
C189 C191 1.363 . S
C190 C180 1.465 . S
C190 U186 2.847 1_655 S
C190 O204 1.249 . S
C190 O205 1.202 . S
C191 C189 1.363 . S
C191 C193 1.408 . S
C191 C196 1.342 . S
C192 C193 1.310 . S
C192 C195 1.461 . S
C192 H212 0.932 . S
C193 C191 1.408 . S
C193 C192 1.310 . S
C193 H213 0.930 . S
C194 C195 1.474 . S
C194 C196 1.285 . S
C194 H214 0.929 . S
C195 C192 1.461 . S
C195 C194 1.474 . S
C196 C191 1.342 . S
C196 C194 1.285 . S
C196 H215 0.930 . S
C197 C200 1.424 1_455 S
C197 C202 1.245 . S
C197 C203 1.428 . S
C198 C201 1.260 . S
C198 C202 1.477 . S
C198 H216 0.932 . S
C199 C200 1.384 . S
C199 C201 1.479 1_655 S
C199 H217 0.929 . S
C200 C197 1.424 1_655 S
C200 C199 1.384 . S
C200 H218 0.928 . S
C201 C198 1.260 . S
C201 C199 1.479 1_455 S
C202 C197 1.245 . S
C202 C198 1.477 . S
C202 H219 0.932 . S
C203 U186 2.882 . S
C203 C197 1.428 . S
C203 O206 1.301 . S
C203 O207 1.282 1_455 S
O204 U186 2.441 1_655 S
O204 C190 1.249 . S
O205 U186 2.420 1_655 S
O205 C190 1.202 . S
O206 U186 2.455 . S
O206 C203 1.301 . S
O207 U186 2.449 1_655 S
O207 C203 1.282 1_655 S
H208 C181 0.931 . S
H209 C183 0.929 . S
H210 C184 0.930 . S
H211 C185 0.931 . S
H212 C192 0.932 . S
H213 C193 0.930 . S
H214 C194 0.929 . S
H215 C196 0.930 . S
H216 C198 0.932 . S
H217 C199 0.929 . S
H218 C200 0.928 . S
H219 C202 0.932 . S
C220 C221 1.264 . S
C220 C225 1.479 . S
C220 C230 1.465 . S
C221 C220 1.264 . S
C221 C223 1.339 . S
C221 H248 0.931 . S
C222 C223 1.395 . S
C222 C224 1.320 . S
C223 C221 1.339 . S
C223 C222 1.395 . S
C223 H249 0.929 . S
C224 C222 1.320 . S
C224 C225 1.405 . S
C224 H250 0.930 . S
C225 C220 1.479 . S
C225 C224 1.405 . S
C225 H251 0.931 . S
U226 O227 2.454 . S
U226 O228 2.458 . S
U226 C229 2.984 . S
U226 C230 2.847 1_545 S
U226 C243 2.882 . S
U226 O244 2.441 1_545 S
U226 O245 2.420 1_545 S
U226 O246 2.455 . S
U226 O247 2.449 1_545 S
O227 U226 2.454 . S
O227 C229 1.353 . S
O228 U226 2.458 . S
O228 C229 1.286 . S
C229 U226 2.984 . S
C229 O227 1.353 . S
C229 O228 1.286 . S
C229 C231 1.363 . S
C230 C220 1.465 . S
C230 U226 2.847 1_565 S
C230 O244 1.249 . S
C230 O245 1.202 . S
C231 C229 1.363 . S
C231 C233 1.408 . S
C231 C236 1.342 . S
C232 C233 1.310 . S
C232 C235 1.461 . S
C232 H252 0.932 . S
C233 C231 1.408 . S
C233 C232 1.310 . S
C233 H253 0.930 . S
C234 C235 1.474 . S
C234 C236 1.285 . S
C234 H254 0.929 . S
C235 C232 1.461 . S
C235 C234 1.474 . S
C236 C231 1.342 . S
C236 C234 1.285 . S
C236 H255 0.930 . S
C237 C240 1.424 1_545 S
C237 C242 1.245 . S
C237 C243 1.428 . S
C238 C241 1.260 . S
C238 C242 1.477 . S
C238 H256 0.932 . S
C239 C240 1.384 . S
C239 C241 1.479 1_565 S
C239 H257 0.929 . S
C240 C237 1.424 1_565 S
C240 C239 1.384 . S
C240 H258 0.928 . S
C241 C238 1.260 . S
C241 C239 1.479 1_545 S
C242 C237 1.245 . S
C242 C238 1.477 . S
C242 H259 0.932 . S
C243 U226 2.882 . S
C243 C237 1.428 . S
C243 O246 1.301 . S
C243 O247 1.282 1_545 S
O244 U226 2.441 1_565 S
O244 C230 1.249 . S
O245 U226 2.420 1_565 S
O245 C230 1.202 . S
O246 U226 2.455 . S
O246 C243 1.301 . S
O247 U226 2.449 1_565 S
O247 C243 1.282 1_565 S
H248 C221 0.931 . S
H249 C223 0.929 . S
H250 C224 0.930 . S
H251 C225 0.931 . S
H252 C232 0.932 . S
H253 C233 0.930 . S
H254 C234 0.929 . S
H255 C236 0.930 . S
H256 C238 0.932 . S
H257 C239 0.929 . S
H258 C240 0.928 . S
H259 C242 0.932 . S
C260 C261 1.264 . S
C260 C265 1.479 . S
C260 C270 1.465 . S
C261 C260 1.264 . S
C261 C263 1.339 . S
C261 H288 0.931 . S
C262 C263 1.395 . S
C262 C264 1.320 . S
C263 C261 1.339 . S
C263 C262 1.395 . S
C263 H289 0.929 . S
C264 C262 1.320 . S
C264 C265 1.405 . S
C264 H290 0.930 . S
C265 C260 1.479 . S
C265 C264 1.405 . S
C265 H291 0.931 . S
U266 O267 2.454 . S
U266 O268 2.458 . S
U266 C269 2.984 . S
U266 C270 2.847 . S
U266 C283 2.882 . S
U266 O284 2.441 . S
U266 O285 2.420 . S
U266 O286 2.455 . S
U266 O287 2.449 . S
O267 U266 2.454 . S
O267 C269 1.353 . S
O268 U266 2.458 . S
O268 C269 1.286 . S
C269 U266 2.984 . S
C269 O267 1.353 . S
C269 O268 1.286 . S
C269 C271 1.363 . S
C270 C260 1.465 . S
C270 U266 2.847 . S
C270 O284 1.249 . S
C270 O285 1.202 . S
C271 C269 1.363 . S
C271 C273 1.408 . S
C271 C276 1.342 . S
C272 C273 1.310 . S
C272 C275 1.461 . S
C272 H292 0.932 . S
C273 C271 1.408 . S
C273 C272 1.310 . S
C273 H293 0.930 . S
C274 C275 1.474 . S
C274 C276 1.285 . S
C274 H294 0.929 . S
C275 C272 1.461 . S
C275 C274 1.474 . S
C276 C271 1.342 . S
C276 C274 1.285 . S
C276 H295 0.930 . S
C277 C280 1.424 . S
C277 C282 1.245 . S
C277 C283 1.428 . S
C278 C281 1.260 . S
C278 C282 1.477 . S
C278 H296 0.932 . S
C279 C280 1.384 . S
C279 C281 1.479 . S
C279 H297 0.929 . S
C280 C277 1.424 . S
C280 C279 1.384 . S
C280 H298 0.928 . S
C281 C278 1.260 . S
C281 C279 1.479 . S
C282 C277 1.245 . S
C282 C278 1.477 . S
C282 H299 0.932 . S
C283 U266 2.882 . S
C283 C277 1.428 . S
C283 O286 1.301 . S
C283 O287 1.282 . S
O284 U266 2.441 . S
O284 C270 1.249 . S
O285 U266 2.420 . S
O285 C270 1.202 . S
O286 U266 2.455 . S
O286 C283 1.301 . S
O287 U266 2.449 . S
O287 C283 1.282 . S
H288 C261 0.931 . S
H289 C263 0.929 . S
H290 C264 0.930 . S
H291 C265 0.931 . S
H292 C272 0.932 . S
H293 C273 0.930 . S
H294 C274 0.929 . S
H295 C276 0.930 . S
H296 C278 0.932 . S
H297 C279 0.929 . S
H298 C280 0.928 . S
H299 C282 0.932 . S
H300 C308 0.950 . S
H301 C313 0.950 . S
H302 C310 0.950 . S
H303 C312 0.950 . S
H304 C314 0.950 . S
H305 C316 0.950 . S
H306 C318 0.950 . S
H307 C319 0.950 . S
C308 H300 0.950 . S
C308 C309 1.386 . S
C308 C310 1.391 . S
C309 C308 1.386 . S
C309 C313 1.393 . S
C310 H302 0.950 . S
C310 C308 1.391 . S
C310 C311 1.400 . S
C311 C310 1.400 . S
C311 C312 1.398 . S
C311 C317 1.491 . S
C312 H303 0.950 . S
C312 C311 1.398 . S
C312 C313 1.391 . S
C313 H301 0.950 . S
C313 C309 1.393 . S
C313 C312 1.391 . S
C314 H304 0.950 . S
C314 C315 1.386 . S
C314 C316 1.391 . S
C315 C314 1.386 . S
C315 C319 1.393 . S
C316 H305 0.950 . S
C316 C314 1.391 . S
C316 C317 1.400 . S
C317 C311 1.491 . S
C317 C316 1.400 . S
C317 C318 1.398 . S
C318 H306 0.950 . S
C318 C317 1.398 . S
C318 C319 1.391 . S
C319 H307 0.950 . S
C319 C315 1.393 . S
C319 C318 1.391 . S
H320 C328 0.950 . S
H321 C333 0.950 . S
H322 C330 0.950 . S
H323 C332 0.950 . S
H324 C334 0.950 . S
H325 C336 0.950 . S
H326 C338 0.950 . S
H327 C339 0.950 . S
C328 H320 0.950 . S
C328 C329 1.386 . S
C328 C330 1.391 . S
C329 C328 1.386 . S
C329 C333 1.393 . S
C330 H322 0.950 . S
C330 C328 1.391 . S
C330 C331 1.400 . S
C331 C330 1.400 . S
C331 C332 1.398 . S
C331 C337 1.491 . S
C332 H323 0.950 . S
C332 C331 1.398 . S
C332 C333 1.391 . S
C333 H321 0.950 . S
C333 C329 1.393 . S
C333 C332 1.391 . S
C334 H324 0.950 . S
C334 C335 1.386 . S
C334 C336 1.391 . S
C335 C334 1.386 . S
C335 C339 1.393 . S
C336 H325 0.950 . S
C336 C334 1.391 . S
C336 C337 1.400 . S
C337 C331 1.491 . S
C337 C336 1.400 . S
C337 C338 1.398 . S
C338 H326 0.950 . S
C338 C337 1.398 . S
C338 C339 1.391 . S
C339 H327 0.950 . S
C339 C335 1.393 . S
C339 C338 1.391 . S
H340 C348 0.950 . S
H341 C353 0.950 . S
H342 C350 0.950 . S
H343 C352 0.950 . S
H344 C354 0.950 . S
H345 C356 0.950 . S
H346 C358 0.950 . S
H347 C359 0.950 . S
C348 H340 0.950 . S
C348 C349 1.386 . S
C348 C350 1.391 . S
C349 C348 1.386 . S
C349 C353 1.393 . S
C350 H342 0.950 . S
C350 C348 1.391 . S
C350 C351 1.400 . S
C351 C350 1.400 . S
C351 C352 1.398 . S
C351 C357 1.491 . S
C352 H343 0.950 . S
C352 C351 1.398 . S
C352 C353 1.391 . S
C353 H341 0.950 . S
C353 C349 1.393 . S
C353 C352 1.391 . S
C354 H344 0.950 . S
C354 C355 1.386 . S
C354 C356 1.391 . S
C355 C354 1.386 . S
C355 C359 1.393 . S
C356 H345 0.950 . S
C356 C354 1.391 . S
C356 C357 1.400 . S
C357 C351 1.491 . S
C357 C356 1.400 . S
C357 C358 1.398 . S
C358 H346 0.950 . S
C358 C357 1.398 . S
C358 C359 1.391 . S
C359 H347 0.950 . S
C359 C355 1.393 . S
C359 C358 1.391 . S
H360 C368 0.950 . S
H361 C373 0.950 . S
H362 C370 0.950 . S
H363 C372 0.950 . S
H364 C374 0.950 . S
H365 C376 0.950 . S
H366 C378 0.950 . S
H367 C379 0.950 . S
C368 H360 0.950 . S
C368 C369 1.386 . S
C368 C370 1.391 . S
C369 C368 1.386 . S
C369 C373 1.393 . S
C370 H362 0.950 . S
C370 C368 1.391 . S
C370 C371 1.400 . S
C371 C370 1.400 . S
C371 C372 1.398 . S
C371 C377 1.491 . S
C372 H363 0.950 . S
C372 C371 1.398 . S
C372 C373 1.391 . S
C373 H361 0.950 . S
C373 C369 1.393 . S
C373 C372 1.391 . S
C374 H364 0.950 . S
C374 C375 1.386 . S
C374 C376 1.391 . S
C375 C374 1.386 . S
C375 C379 1.393 . S
C376 H365 0.950 . S
C376 C374 1.391 . S
C376 C377 1.400 . S
C377 C371 1.491 . S
C377 C376 1.400 . S
C377 C378 1.398 . S
C378 H366 0.950 . S
C378 C377 1.398 . S
C378 C379 1.391 . S
C379 H367 0.950 . S
C379 C375 1.393 . S
C379 C378 1.391 . S
H380 C388 0.950 . S
H381 C393 0.950 . S
H382 C390 0.950 . S
H383 C392 0.950 . S
H384 C394 0.950 . S
H385 C396 0.950 . S
H386 C398 0.950 . S
H387 C399 0.950 . S
C388 H380 0.950 . S
C388 C389 1.386 . S
C388 C390 1.391 . S
C389 C388 1.386 . S
C389 C393 1.393 . S
C390 H382 0.950 . S
C390 C388 1.391 . S
C390 C391 1.400 . S
C391 C390 1.400 . S
C391 C392 1.398 . S
C391 C397 1.491 . S
C392 H383 0.950 . S
C392 C391 1.398 . S
C392 C393 1.391 . S
C393 H381 0.950 . S
C393 C389 1.393 . S
C393 C392 1.391 . S
C394 H384 0.950 . S
C394 C395 1.386 . S
C394 C396 1.391 . S
C395 C394 1.386 . S
C395 C399 1.393 . S
C396 H385 0.950 . S
C396 C394 1.391 . S
C396 C397 1.400 . S
C397 C391 1.491 . S
C397 C396 1.400 . S
C397 C398 1.398 . S
C398 H386 0.950 . S
C398 C397 1.398 . S
C398 C399 1.391 . S
C399 H387 0.950 . S
C399 C395 1.393 . S
C399 C398 1.391 . S
H400 C408 0.950 . S
H401 C413 0.950 . S
H402 C410 0.950 . S
H403 C412 0.950 . S
H404 C414 0.950 . S
H405 C416 0.950 . S
H406 C418 0.950 . S
H407 C419 0.950 . S
C408 H400 0.950 . S
C408 C409 1.386 . S
C408 C410 1.391 . S
C409 C408 1.386 . S
C409 C413 1.393 . S
C410 H402 0.950 . S
C410 C408 1.391 . S
C410 C411 1.400 . S
C411 C410 1.400 . S
C411 C412 1.398 . S
C411 C417 1.491 . S
C412 H403 0.950 . S
C412 C411 1.398 . S
C412 C413 1.391 . S
C413 H401 0.950 . S
C413 C409 1.393 . S
C413 C412 1.391 . S
C414 H404 0.950 . S
C414 C415 1.386 . S
C414 C416 1.391 . S
C415 C414 1.386 . S
C415 C419 1.393 . S
C416 H405 0.950 . S
C416 C414 1.391 . S
C416 C417 1.400 . S
C417 C411 1.491 . S
C417 C416 1.400 . S
C417 C418 1.398 . S
C418 H406 0.950 . S
C418 C417 1.398 . S
C418 C419 1.391 . S
C419 H407 0.950 . S
C419 C415 1.393 . S
C419 C418 1.391 . S
H420 C428 0.950 . S
H421 C433 0.950 . S
H422 C430 0.950 . S
H423 C432 0.950 . S
H424 C434 0.950 . S
H425 C436 0.950 . S
H426 C438 0.950 . S
H427 C439 0.950 . S
C428 H420 0.950 . S
C428 C429 1.386 . S
C428 C430 1.391 . S
C429 C428 1.386 . S
C429 C433 1.393 . S
C430 H422 0.950 . S
C430 C428 1.391 . S
C430 C431 1.400 . S
C431 C430 1.400 . S
C431 C432 1.398 . S
C431 C437 1.491 . S
C432 H423 0.950 . S
C432 C431 1.398 . S
C432 C433 1.391 . S
C433 H421 0.950 . S
C433 C429 1.393 . S
C433 C432 1.391 . S
C434 H424 0.950 . S
C434 C435 1.386 . S
C434 C436 1.391 . S
C435 C434 1.386 . S
C435 C439 1.393 . S
C436 H425 0.950 . S
C436 C434 1.391 . S
C436 C437 1.400 . S
C437 C431 1.491 . S
C437 C436 1.400 . S
C437 C438 1.398 . S
C438 H426 0.950 . S
C438 C437 1.398 . S
C438 C439 1.391 . S
C439 H427 0.950 . S
C439 C435 1.393 . S
C439 C438 1.391 . S
H440 C448 0.950 . S
H441 C453 0.950 . S
H442 C450 0.950 . S
H443 C452 0.950 . S
H444 C454 0.950 . S
H445 C456 0.950 . S
H446 C458 0.950 . S
H447 C459 0.950 . S
C448 H440 0.950 . S
C448 C449 1.386 . S
C448 C450 1.391 . S
C449 C448 1.386 . S
C449 C453 1.393 . S
C450 H442 0.950 . S
C450 C448 1.391 . S
C450 C451 1.400 . S
C451 C450 1.400 . S
C451 C452 1.398 . S
C451 C457 1.491 . S
C452 H443 0.950 . S
C452 C451 1.398 . S
C452 C453 1.391 . S
C453 H441 0.950 . S
C453 C449 1.393 . S
C453 C452 1.391 . S
C454 H444 0.950 . S
C454 C455 1.386 . S
C454 C456 1.391 . S
C455 C454 1.386 . S
C455 C459 1.393 . S
C456 H445 0.950 . S
C456 C454 1.391 . S
C456 C457 1.400 . S
C457 C451 1.491 . S
C457 C456 1.400 . S
C457 C458 1.398 . S
C458 H446 0.950 . S
C458 C457 1.398 . S
C458 C459 1.391 . S
C459 H447 0.950 . S
C459 C455 1.393 . S
C459 C458 1.391 . S
H460 C468 0.950 . S
H461 C473 0.950 . S
H462 C470 0.950 . S
H463 C472 0.950 . S
H464 C474 0.950 . S
H465 C476 0.950 . S
H466 C478 0.950 . S
H467 C479 0.950 . S
C468 H460 0.950 . S
C468 C469 1.386 . S
C468 C470 1.391 . S
C469 C468 1.386 . S
C469 C473 1.393 . S
C470 H462 0.950 . S
C470 C468 1.391 . S
C470 C471 1.400 . S
C471 C470 1.400 . S
C471 C472 1.398 . S
C471 C477 1.491 . S
C472 H463 0.950 . S
C472 C471 1.398 . S
C472 C473 1.391 . S
C473 H461 0.950 . S
C473 C469 1.393 . S
C473 C472 1.391 . S
C474 H464 0.950 . S
C474 C475 1.386 . S
C474 C476 1.391 . S
C475 C474 1.386 . S
C475 C479 1.393 . S
C476 H465 0.950 . S
C476 C474 1.391 . S
C476 C477 1.400 . S
C477 C471 1.491 . S
C477 C476 1.400 . S
C477 C478 1.398 . S
C478 H466 0.950 . S
C478 C477 1.398 . S
C478 C479 1.391 . S
C479 H467 0.950 . S
C479 C475 1.393 . S
C479 C478 1.391 . S
H480 C488 0.950 . S
H481 C493 0.950 . S
H482 C490 0.950 . S
H483 C492 0.950 . S
H484 C494 0.950 . S
H485 C496 0.950 . S
H486 C498 0.950 . S
H487 C499 0.950 . S
C488 H480 0.950 . S
C488 C489 1.386 . S
C488 C490 1.391 . S
C489 C488 1.386 . S
C489 C493 1.393 . S
C490 H482 0.950 . S
C490 C488 1.391 . S
C490 C491 1.400 . S
C491 C490 1.400 . S
C491 C492 1.398 . S
C491 C497 1.491 . S
C492 H483 0.950 . S
C492 C491 1.398 . S
C492 C493 1.391 . S
C493 H481 0.950 . S
C493 C489 1.393 . S
C493 C492 1.391 . S
C494 H484 0.950 . S
C494 C495 1.386 . S
C494 C496 1.391 . S
C495 C494 1.386 . S
C495 C499 1.393 . S
C496 H485 0.950 . S
C496 C494 1.391 . S
C496 C497 1.400 . S
C497 C491 1.491 . S
C497 C496 1.400 . S
C497 C498 1.398 . S
C498 H486 0.950 . S
C498 C497 1.398 . S
C498 C499 1.391 . S
C499 H487 0.950 . S
C499 C495 1.393 . S
C499 C498 1.391 . S
H500 C508 0.950 . S
H501 C513 0.950 . S
H502 C510 0.950 . S
H503 C512 0.950 . S
H504 C514 0.950 . S
H505 C516 0.950 . S
H506 C518 0.950 . S
H507 C519 0.950 . S
C508 H500 0.950 . S
C508 C509 1.386 . S
C508 C510 1.391 . S
C509 C508 1.386 . S
C509 C513 1.393 . S
C510 H502 0.950 . S
C510 C508 1.391 . S
C510 C511 1.400 . S
C511 C510 1.400 . S
C511 C512 1.398 . S
C511 C517 1.491 . S
C512 H503 0.950 . S
C512 C511 1.398 . S
C512 C513 1.391 . S
C513 H501 0.950 . S
C513 C509 1.393 . S
C513 C512 1.391 . S
C514 H504 0.950 . S
C514 C515 1.386 . S
C514 C516 1.391 . S
C515 C514 1.386 . S
C515 C519 1.393 . S
C516 H505 0.950 . S
C516 C514 1.391 . S
C516 C517 1.400 . S
C517 C511 1.491 . S
C517 C516 1.400 . S
C517 C518 1.398 . S
C518 H506 0.950 . S
C518 C517 1.398 . S
C518 C519 1.391 . S
C519 H507 0.950 . S
C519 C515 1.393 . S
C519 C518 1.391 . S
H520 C528 0.950 . S
H521 C533 0.950 . S
H522 C530 0.950 . S
H523 C532 0.950 . S
H524 C534 0.950 . S
H525 C536 0.950 . S
H526 C538 0.950 . S
H527 C539 0.950 . S
C528 H520 0.950 . S
C528 C529 1.386 . S
C528 C530 1.391 . S
C529 C528 1.386 . S
C529 C533 1.393 . S
C530 H522 0.950 . S
C530 C528 1.391 . S
C530 C531 1.400 . S
C531 C530 1.400 . S
C531 C532 1.398 . S
C531 C537 1.491 . S
C532 H523 0.950 . S
C532 C531 1.398 . S
C532 C533 1.391 . S
C533 H521 0.950 . S
C533 C529 1.393 . S
C533 C532 1.391 . S
C534 H524 0.950 . S
C534 C535 1.386 . S
C534 C536 1.391 . S
C535 C534 1.386 . S
C535 C539 1.393 . S
C536 H525 0.950 . S
C536 C534 1.391 . S
C536 C537 1.400 . S
C537 C531 1.491 . S
C537 C536 1.400 . S
C537 C538 1.398 . S
C538 H526 0.950 . S
C538 C537 1.398 . S
C538 C539 1.391 . S
C539 H527 0.950 . S
C539 C535 1.393 . S
C539 C538 1.391 . S
H540 C548 0.950 . S
H541 C553 0.950 1_655 S
H542 C550 0.950 . S
H543 C552 0.950 . S
H544 C554 0.950 . S
H545 C556 0.950 . S
H546 C558 0.950 . S
H547 C559 0.950 . S
C548 H540 0.950 . S
C548 C549 1.386 . S
C548 C550 1.391 . S
C549 C548 1.386 . S
C549 C553 1.393 . S
C550 H542 0.950 . S
C550 C548 1.391 . S
C550 C551 1.400 . S
C551 C550 1.400 . S
C551 C552 1.398 . S
C551 C557 1.491 . S
C552 H543 0.950 . S
C552 C551 1.398 . S
C552 C553 1.391 . S
C553 H541 0.950 1_455 S
C553 C549 1.393 . S
C553 C552 1.391 . S
C554 H544 0.950 . S
C554 C555 1.386 . S
C554 C556 1.391 . S
C555 C554 1.386 . S
C555 C559 1.393 . S
C556 H545 0.950 . S
C556 C554 1.391 . S
C556 C557 1.400 . S
C557 C551 1.491 . S
C557 C556 1.400 . S
C557 C558 1.398 . S
C558 H546 0.950 . S
C558 C557 1.398 . S
C558 C559 1.391 . S
C559 H547 0.950 . S
C559 C555 1.393 . S
C559 C558 1.391 . S
H560 C568 0.950 1_565 S
H561 C573 0.950 . S
H562 C570 0.942 1_565 S
H563 C572 0.950 . S
H564 C574 0.950 . S
H565 C576 0.950 . S
H566 C578 0.950 . S
H567 C579 0.950 . S
C568 H560 0.950 1_545 S
C568 C569 1.386 . S
C568 C570 1.391 . S
C569 C568 1.386 . S
C569 C573 1.393 . S
C570 H562 0.942 1_545 S
C570 C568 1.391 . S
C570 C571 1.400 . S
C571 C570 1.400 . S
C571 C572 1.398 . S
C571 C577 1.491 . S
C572 H563 0.950 . S
C572 C571 1.398 . S
C572 C573 1.391 . S
C573 H561 0.950 . S
C573 C569 1.393 . S
C573 C572 1.391 . S
C574 H564 0.950 . S
C574 C575 1.386 . S
C574 C576 1.391 . S
C575 C574 1.386 . S
C575 C579 1.393 . S
C576 H565 0.950 . S
C576 C574 1.391 . S
C576 C577 1.400 . S
C577 C571 1.491 . S
C577 C576 1.400 . S
C577 C578 1.398 . S
C578 H566 0.950 . S
C578 C577 1.398 . S
C578 C579 1.391 . S
C579 H567 0.950 . S
C579 C575 1.393 . S
C579 C578 1.391 . S
H580 C588 0.950 . S
H581 C593 0.950 . S
H582 C590 0.950 . S
H583 C592 0.950 . S
H584 C594 0.950 . S
H585 C596 0.950 . S
H586 C598 0.950 . S
H587 C599 0.950 . S
C588 H580 0.950 . S
C588 C589 1.386 . S
C588 C590 1.391 . S
C589 C588 1.386 . S
C589 C593 1.393 . S
C590 H582 0.950 . S
C590 C588 1.391 . S
C590 C591 1.400 . S
C591 C590 1.400 . S
C591 C592 1.398 . S
C591 C597 1.491 . S
C592 H583 0.950 . S
C592 C591 1.398 . S
C592 C593 1.391 . S
C593 H581 0.950 . S
C593 C589 1.393 . S
C593 C592 1.391 . S
C594 H584 0.950 . S
C594 C595 1.386 . S
C594 C596 1.391 . S
C595 C594 1.386 . S
C595 C599 1.393 . S
C596 H585 0.950 . S
C596 C594 1.391 . S
C596 C597 1.400 . S
C597 C591 1.491 . S
C597 C596 1.400 . S
C597 C598 1.398 . S
C598 H586 0.950 . S
C598 C597 1.398 . S
C598 C599 1.391 . S
C599 H587 0.950 . S
C599 C595 1.393 . S
C599 C598 1.391 . S
H600 C608 0.950 . S
H601 C613 0.950 . S
H602 C610 0.950 . S
H603 C612 0.950 . S
H604 C614 0.950 . S
H605 C616 0.950 . S
H606 C618 0.950 . S
H607 C619 0.950 . S
C608 H600 0.950 . S
C608 C609 1.386 1_565 S
C608 C610 1.391 . S
C609 C608 1.386 1_545 S
C609 C613 1.393 . S
C610 H602 0.950 . S
C610 C608 1.391 . S
C610 C611 1.400 1_565 S
C611 C610 1.400 1_545 S
C611 C612 1.398 . S
C611 C617 1.491 . S
C612 H603 0.950 . S
C612 C611 1.398 . S
C612 C613 1.391 . S
C613 H601 0.950 . S
C613 C609 1.393 . S
C613 C612 1.391 . S
C614 H604 0.950 . S
C614 C615 1.386 . S
C614 C616 1.391 . S
C615 C614 1.386 . S
C615 C619 1.393 1_545 S
C616 H605 0.950 . S
C616 C614 1.391 . S
C616 C617 1.400 . S
C617 C611 1.491 . S
C617 C616 1.400 . S
C617 C618 1.398 1_545 S
C618 H606 0.950 . S
C618 C617 1.398 1_565 S
C618 C619 1.391 . S
C619 H607 0.950 . S
C619 C615 1.393 1_565 S
C619 C618 1.391 . S
H620 C628 0.950 . S
H621 C633 0.950 . S
H622 C630 0.950 . S
H623 C632 0.950 . S
H624 C634 0.950 . S
H625 C636 0.950 . S
H626 C638 0.950 . S
H627 C639 0.950 . S
C628 H620 0.950 . S
C628 C629 1.386 . S
C628 C630 1.391 . S
C629 C628 1.386 . S
C629 C633 1.393 . S
C630 H622 0.950 . S
C630 C628 1.391 . S
C630 C631 1.400 . S
C631 C630 1.400 . S
C631 C632 1.398 . S
C631 C637 1.491 . S
C632 H623 0.950 . S
C632 C631 1.398 . S
C632 C633 1.391 . S
C633 H621 0.950 . S
C633 C629 1.393 . S
C633 C632 1.391 . S
C634 H624 0.950 . S
C634 C635 1.386 . S
C634 C636 1.391 . S
C635 C634 1.386 . S
C635 C639 1.393 . S
C636 H625 0.950 . S
C636 C634 1.391 . S
C636 C637 1.400 . S
C637 C631 1.491 . S
C637 C636 1.400 . S
C637 C638 1.398 . S
C638 H626 0.950 . S
C638 C637 1.398 . S
C638 C639 1.391 . S
C639 H627 0.950 . S
C639 C635 1.393 . S
C639 C638 1.391 . S
H640 C648 0.950 . S
H641 C653 0.950 . S
H642 C650 0.950 . S
H643 C652 0.950 . S
H644 C654 0.950 . S
H645 C656 0.950 . S
H646 C658 0.950 . S
H647 C659 0.950 . S
C648 H640 0.950 . S
C648 C649 1.386 . S
C648 C650 1.391 . S
C649 C648 1.386 . S
C649 C653 1.393 1_655 S
C650 H642 0.950 . S
C650 C648 1.391 . S
C650 C651 1.394 1_655 S
C651 C650 1.394 1_455 S
C651 C652 1.404 . S
C651 C657 1.491 . S
C652 H643 0.950 . S
C652 C651 1.404 . S
C652 C653 1.391 . S
C653 H641 0.950 . S
C653 C649 1.393 1_455 S
C653 C652 1.391 . S
C654 H644 0.950 . S
C654 C655 1.386 . S
C654 C656 1.391 . S
C655 C654 1.386 . S
C655 C659 1.393 1_455 S
C656 H645 0.950 . S
C656 C654 1.391 . S
C656 C657 1.400 . S
C657 C651 1.491 . S
C657 C656 1.400 . S
C657 C658 1.398 1_455 S
C658 H646 0.950 . S
C658 C657 1.398 1_655 S
C658 C659 1.391 . S
C659 H647 0.950 . S
C659 C655 1.393 1_655 S
C659 C658 1.391 . S
C309 C2 1.389 . S
C315 C275 1.446 . S
C329 C22 1.339 . S
C335 C182 1.432 . S
C349 C44 1.411 . S
C355 C222 1.503 . S
C369 C4 1.615 . S
C375 C262 1.673 . S
C395 C195 1.708 . S
C389 C24 1.666 . S
C415 C235 1.648 . S
C409 C42 1.574 . S
C429 C32 1.361 . S
C435 C102 1.378 . S
C449 C49 1.315 . S
C455 C142 1.293 . S
C469 C9 1.333 . S
C475 C75 1.317 . S
C495 C115 1.317 . S
C489 C29 1.285 . S
C515 C155 1.345 . S
C509 C52 1.336 . S
C529 C12 1.310 . S
C535 C62 1.330 . S
C555 C161 1.422 1_554 S
C549 C18 1.440 1_455 S
C569 C38 1.426 . S
C575 C81 1.447 . S
C589 C58 1.430 . S
C595 C121 1.436 . S
C615 C241 1.495 . S
C609 C39 1.494 . S
C635 C281 1.481 1_556 S
C629 C59 1.469 . S
C649 C19 1.481 1_655 S
C655 C201 1.491 . S
