# Generated by pormake.
# Topology anh, (6,3)-cn, num edge types: 1
# Building blocks:
#     Node 0, Type 0, BuildingBlock: BETGAK_clean_sbu_0, # of connection points: 6
#     Node 1, Type 0, BuildingBlock: BETGAK_clean_sbu_0, # of connection points: 6
#     Node 2, Type 0, BuildingBlock: BETGAK_clean_sbu_0, # of connection points: 6
#     Node 3, Type 1, BuildingBlock: OLANEW_clean_sbu_2, # of connection points: 3
#     Node 4, Type 1, BuildingBlock: OLANEW_clean_sbu_2, # of connection points: 3
#     Node 5, Type 1, BuildingBlock: OLANEW_clean_sbu_2, # of connection points: 3
#     Node 6, Type 1, BuildingBlock: OLANEW_clean_sbu_2, # of connection points: 3
#     Node 7, Type 1, BuildingBlock: OLANEW_clean_sbu_2, # of connection points: 3
#     Node 8, Type 1, BuildingBlock: OLANEW_clean_sbu_2, # of connection points: 3
#     Edge 9, Type (0, 1), BuildingBlock: AJUNOK_clean_linker_0, # of connection points: 2
#     Edge 10, Type (0, 1), BuildingBlock: AJUNOK_clean_linker_0, # of connection points: 2
#     Edge 11, Type (0, 1), BuildingBlock: AJUNOK_clean_linker_0, # of connection points: 2
#     Edge 12, Type (0, 1), BuildingBlock: AJUNOK_clean_linker_0, # of connection points: 2
#     Edge 13, Type (0, 1), BuildingBlock: AJUNOK_clean_linker_0, # of connection points: 2
#     Edge 14, Type (0, 1), BuildingBlock: AJUNOK_clean_linker_0, # of connection points: 2
#     Edge 15, Type (0, 1), BuildingBlock: AJUNOK_clean_linker_0, # of connection points: 2
#     Edge 16, Type (0, 1), BuildingBlock: AJUNOK_clean_linker_0, # of connection points: 2
#     Edge 17, Type (0, 1), BuildingBlock: AJUNOK_clean_linker_0, # of connection points: 2
#     Edge 18, Type (0, 1), BuildingBlock: AJUNOK_clean_linker_0, # of connection points: 2
#     Edge 19, Type (0, 1), BuildingBlock: AJUNOK_clean_linker_0, # of connection points: 2
#     Edge 20, Type (0, 1), BuildingBlock: AJUNOK_clean_linker_0, # of connection points: 2
#     Edge 21, Type (0, 1), BuildingBlock: AJUNOK_clean_linker_0, # of connection points: 2
#     Edge 22, Type (0, 1), BuildingBlock: AJUNOK_clean_linker_0, # of connection points: 2
#     Edge 23, Type (0, 1), BuildingBlock: AJUNOK_clean_linker_0, # of connection points: 2
#     Edge 24, Type (0, 1), BuildingBlock: AJUNOK_clean_linker_0, # of connection points: 2
#     Edge 25, Type (0, 1), BuildingBlock: AJUNOK_clean_linker_0, # of connection points: 2
#     Edge 26, Type (0, 1), BuildingBlock: AJUNOK_clean_linker_0, # of connection points: 2
# Relax obj value: 0.196
# Max RMSD: 0.190
# Mean RMSD: 0.123
data_MOF--net-anh--node1-BETGAK_clean_sbu_0--node2-OLANEW_clean_sbu_2--edge1-AJUNOK_clean_linker_0
_symmetry_space_group_name_H-M    P1
_symmetry_Int_Tables_number       1
_symmetry_cell_setting            triclinic
loop_
_symmetry_equiv_pos_as_xyz
'x, y, z'
_cell_length_a     28.916495
_cell_length_b     33.720852
_cell_length_c     37.272911
_cell_angle_alpha  92.122495
_cell_angle_beta   89.60423
_cell_angle_gamma 132.59636
loop_
_atom_site_label
_atom_site_type_symbol
_atom_site_fract_x
_atom_site_fract_y
_atom_site_fract_z
_atom_type_partial_charge
La0 La 0.09913 0.51243 0.13863 0.0
La1 La 1.02557 0.54777 0.15996 0.0
C2 C 0.16677 0.49754 0.11224 0.0
C3 C 0.21872 0.50673 0.12964 0.0
C4 C 0.23699 0.52871 0.16496 0.0
C5 C 0.28024 0.53113 0.18393 0.0
C6 C 0.30614 0.51194 0.16774 0.0
C7 C 0.29 0.49213 0.13183 0.0
C8 C 0.246 0.48914 0.11291 0.0
C9 C 0.0816 0.51597 0.20774 0.0
C10 C 0.17187 0.63825 0.14806 0.0
C11 C 0.96785 0.56424 0.19801 0.0
C12 C 0.90191 0.53805 0.19875 0.0
C13 C 0.8615 0.5052 0.1694 0.0
C14 C 0.79817 0.47883 0.17053 0.0
C15 C 0.77406 0.48419 0.20128 0.0
C16 C 0.81471 0.51681 0.23077 0.0
C17 C 0.87827 0.54353 0.22951 0.0
C18 C 1.02103 0.52882 0.0892 0.0
C19 C 0.95319 0.42467 0.14449 0.0
O20 O 0.11212 0.45949 0.12624 0.0
O21 O 0.17627 0.54078 0.10722 0.0
O22 O 0.08891 0.48525 0.19308 0.0
O23 O 0.09147 0.54699 0.18473 0.0
O24 O 0.17314 0.60082 0.13764 0.0
O25 O 0.12066 0.62644 0.16011 0.0
O26 O 0.99845 0.59115 0.16923 0.0
O27 O 0.97815 0.53363 0.20738 0.0
O28 O 0.99335 0.54322 0.10418 0.0
O29 O 0.0461 0.52507 0.11415 0.0
O30 O 0.9555 0.46022 0.16313 0.0
O31 O 1.00168 0.43923 0.12599 0.0
H32 H 0.21624 0.54244 0.17826 0.0
H33 H 0.29268 0.54712 0.21145 0.0
H34 H 0.30966 0.47719 0.11894 0.0
H35 H 0.23199 0.47176 0.08574 0.0
H36 H 0.87901 0.50014 0.14556 0.0
H37 H 0.76841 0.45517 0.14704 0.0
H38 H 0.79731 0.52164 0.25477 0.0
H39 H 0.90888 0.56827 0.25253 0.0
La40 La 0.59281 0.0303 0.49235 0.0
La41 La 0.52044 0.06264 0.48324 0.0
C42 C 0.6356 0.98963 0.51273 0.0
C43 C 0.61442 0.93678 0.51933 0.0
C44 C 0.65792 0.93096 0.51661 0.0
C45 C 0.6403 0.882 0.52382 0.0
C46 C 0.57857 0.8377 0.53369 0.0
C47 C 0.53474 0.84347 0.53609 0.0
C48 C 0.55249 0.89265 0.5289 0.0
C49 C 0.5917 0.05636 0.4268 0.0
C50 C 0.44479 0.94096 0.476 0.0
C51 C 0.48045 0.10717 0.4673 0.0
C52 C 0.49506 0.15718 0.47935 0.0
C53 C 0.4657 0.15752 0.50947 0.0
C54 C 0.47902 0.2044 0.52076 0.0
C55 C 0.52145 0.25196 0.502 0.0
C56 C 0.55099 0.2518 0.47195 0.0
C57 C 0.53771 0.20485 0.46063 0.0
C58 C 0.52598 0.03983 0.54898 0.0
C59 C 0.6706 0.15329 0.49496 0.0
O60 O 0.6341 0.99918 0.4793 0.0
O61 O 0.61613 0.00673 0.53466 0.0
O62 O 0.63914 0.06643 0.44183 0.0
O63 O 0.54575 0.02956 0.4475 0.0
O64 O 0.49395 0.9528 0.49198 0.0
O65 O 0.44913 0.97951 0.46354 0.0
O66 O 0.45428 0.06965 0.49069 0.0
O67 O 0.52343 0.11275 0.4492 0.0
O68 O 0.4772 0.02846 0.53519 0.0
O69 O 0.56985 0.06566 0.52725 0.0
O70 O 0.61819 0.14087 0.48462 0.0
O71 O 0.67035 0.1157 0.50416 0.0
H72 H 0.70599 0.96469 0.50944 0.0
H73 H 0.67557 0.87933 0.52265 0.0
H74 H 0.48689 0.81005 0.54374 0.0
H75 H 0.51821 0.89639 0.53122 0.0
H76 H 0.43242 0.12156 0.52449 0.0
H77 H 0.4565 0.20356 0.54444 0.0
H78 H 0.58381 0.28787 0.45694 0.0
H79 H 0.56077 0.20589 0.43717 0.0
La80 La 0.58736 0.558 0.87536 0.0
La81 La 0.48796 0.43927 0.88161 0.0
C82 C 0.65277 0.65096 0.85148 0.0
C83 C 0.64326 0.68707 0.84198 0.0
C84 C 0.61636 0.69929 0.866 0.0
C85 C 0.60605 0.73227 0.85582 0.0
C86 C 0.62198 0.75319 0.82144 0.0
C87 C 0.65014 0.74197 0.79774 0.0
C88 C 0.66058 0.70907 0.80793 0.0
C89 C 0.56294 0.52676 0.94185 0.0
C90 C 0.44174 0.49971 0.88081 0.0
C91 C 0.42301 0.34137 0.89367 0.0
C92 C 0.42823 0.30307 0.87906 0.0
C93 C 0.38756 0.26594 0.85091 0.0
C94 C 0.39859 0.23612 0.83268 0.0
C95 C 0.45055 0.24292 0.84222 0.0
C96 C 0.48894 0.27747 0.87174 0.0
C97 C 0.47769 0.30704 0.89008 0.0
C98 C 0.51569 0.47281 0.8155 0.0
C99 C 0.63458 0.49921 0.88606 0.0
O100 O 0.65069 0.64173 0.88553 0.0
O101 O 0.62281 0.6071 0.831 0.0
O102 O 0.61779 0.56915 0.9311 0.0
O103 O 0.52324 0.50617 0.91645 0.0
O104 O 0.49887 0.54133 0.86943 0.0
O105 O 0.42935 0.45701 0.893 0.0
O106 O 0.40695 0.35824 0.87016 0.0
O107 O 0.46856 0.38096 0.91523 0.0
O108 O 0.45991 0.43239 0.8257 0.0
O109 O 0.55371 0.49088 0.84134 0.0
O110 O 0.57501 0.45593 0.89204 0.0
O111 O 0.65054 0.54364 0.87457 0.0
H112 H 0.60291 0.68317 0.89253 0.0
H113 H 0.58571 0.74156 0.87481 0.0
H114 H 0.663 0.75786 0.77113 0.0
H115 H 0.68159 0.70028 0.78905 0.0
H116 H 0.34869 0.26158 0.84199 0.0
H117 H 0.36798 0.20937 0.81018 0.0
H118 H 0.52833 0.28231 0.88025 0.0
H119 H 0.50894 0.33422 0.91214 0.0
O120 O 0.61363 0.09052 0.25229 0.0
Cd121 Cd 0.61927 0.09657 0.18667 0.0
O122 O 0.51996 0.00876 0.25747 0.0
Cd123 Cd 0.4885 0.97688 0.20204 0.0
O124 O 0.40944 0.9005 0.17384 0.0
C125 C 0.40606 0.86086 0.17372 0.0
O126 O 0.45322 0.86842 0.18773 0.0
C127 C 0.56981 0.05281 0.27173 0.0
C128 C 0.72666 0.20086 0.16696 0.0
O129 O 0.67471 0.18856 0.17329 0.0
O130 O 0.7278 0.16376 0.16972 0.0
O131 O 0.60421 0.53632 0.64907 0.0
Cd132 Cd 0.61295 0.54188 0.58375 0.0
O133 O 0.53425 0.54394 0.65238 0.0
Cd134 Cd 0.54628 0.57491 0.59924 0.0
O135 O 0.5541 0.63375 0.569 0.0
C136 C 0.53075 0.65128 0.58374 0.0
O137 O 0.50264 0.63177 0.61451 0.0
C138 C 0.5659 0.53513 0.66721 0.0
C139 C 0.58151 0.44822 0.55412 0.0
O140 O 0.63859 0.49045 0.56254 0.0
O141 O 0.53962 0.45069 0.55914 0.0
O142 O 0.09415 0.5051 0.93058 0.0
Cd143 Cd 0.13991 0.49972 0.87551 0.0
O144 O 1.02568 0.50984 0.91129 0.0
Cd145 Cd 0.95644 0.52034 0.90892 0.0
O146 O 0.88492 0.52721 0.90116 0.0
C147 C 0.82722 0.48828 0.90814 0.0
O148 O 0.81046 0.44377 0.91945 0.0
C149 C 0.0534 0.50855 0.93729 0.0
C150 C 0.24006 0.50201 0.88275 0.0
O151 O 0.2506 0.54548 0.88157 0.0
O152 O 0.18237 0.45748 0.88176 0.0
O153 O 0.09381 0.57992 0.37697 0.0
Cd154 Cd 0.10411 0.60518 0.4409 0.0
O155 O 1.0136 0.49167 0.37799 0.0
Cd156 Cd 0.98362 0.47746 0.43371 0.0
O157 O 0.9046 0.4082 0.46326 0.0
C158 C 0.90477 0.37158 0.46995 0.0
O159 O 0.95443 0.37921 0.46155 0.0
C160 C 0.05603 0.53362 0.3609 0.0
C161 C 0.21313 0.71441 0.45402 0.0
O162 O 0.21441 0.67735 0.45645 0.0
O163 O 0.16028 0.69967 0.4458 0.0
O164 O 0.54452 0.96268 0.70181 0.0
Cd165 Cd 0.55973 0.95918 0.76558 0.0
O166 O 0.56539 0.03551 0.72065 0.0
Cd167 Cd 0.57072 0.10304 0.71806 0.0
O168 O 0.55575 0.15353 0.74219 0.0
C169 C 0.50468 0.12947 0.75861 0.0
O170 O 0.4636 0.07653 0.7585 0.0
C171 C 0.55154 1.00304 0.69491 0.0
C172 C 0.57673 0.88954 0.78081 0.0
O173 O 0.52184 0.87329 0.78016 0.0
O174 O 0.62354 0.93874 0.77366 0.0
O175 O 0.44978 0.42333 0.09793 0.0
Cd176 Cd 0.4203 0.38371 0.15707 0.0
O177 O 0.52214 0.50899 0.11603 0.0
Cd178 Cd 0.50732 0.49906 0.17345 0.0
O179 O 0.5087 0.50471 0.23226 0.0
C180 C 0.47264 0.50759 0.2491 0.0
O181 O 0.47258 0.50773 0.28435 0.0
C182 C 0.49266 0.47285 0.09079 0.0
C183 C 0.52299 0.4014 0.18385 0.0
O184 O 0.48217 0.36028 0.16293 0.0
O185 O 0.51292 0.43169 0.1935 0.0
C186 C 0.40956 0.53887 0.17784 0.0
C187 C 0.34805 0.51072 0.18891 0.0
C188 C 0.45009 0.53858 0.19792 0.0
C189 C 0.42992 0.50908 0.22922 0.0
H190 H 0.4267 0.56192 0.15384 0.0
H191 H 0.49784 0.56232 0.18913 0.0
S192 S 0.27257 0.42804 0.26901 0.0
N193 N 0.26861 0.45283 0.23299 0.0
N194 N 0.3444 0.45123 0.27035 0.0
C195 C 0.36858 0.48111 0.24066 0.0
C196 C 0.3276 0.48195 0.22046 0.0
C197 C 0.73177 0.2507 0.48434 0.0
C198 C 0.7313 0.21039 0.49391 0.0
C199 C 0.78822 0.30343 0.47847 0.0
C200 C 0.84665 0.31807 0.48166 0.0
H201 H 0.6881 0.24122 0.48017 0.0
H202 H 0.78567 0.33225 0.46986 0.0
S203 S 0.87231 0.22976 0.51026 0.0
N204 N 0.79525 0.19044 0.50948 0.0
N205 N 0.90094 0.28926 0.49828 0.0
C206 C 0.84716 0.27904 0.49309 0.0
C207 C 0.78968 0.22536 0.49927 0.0
C208 C 0.65759 0.83818 0.79757 0.0
C209 C 0.60895 0.78653 0.81028 0.0
C210 C 0.64656 0.87098 0.78788 0.0
C211 C 0.58632 0.85313 0.79024 0.0
H212 H 0.70475 0.85369 0.7957 0.0
H213 H 0.68576 0.91076 0.77864 0.0
S214 S 0.44228 0.7192 0.81994 0.0
N215 N 0.49805 0.71779 0.82322 0.0
N216 N 0.47688 0.77916 0.80523 0.0
C217 C 0.53699 0.80093 0.80229 0.0
C218 C 0.54843 0.76774 0.81229 0.0
C219 C 0.69382 0.49032 0.21189 0.0
C220 C 0.70773 0.45899 0.20143 0.0
C221 C 0.63293 0.47 0.20799 0.0
C222 C 0.58361 0.41764 0.19325 0.0
H223 H 0.73081 0.5318 0.22159 0.0
H224 H 0.62537 0.49667 0.21504 0.0
S225 S 0.59378 0.31656 0.16688 0.0
N226 N 0.6661 0.37092 0.17986 0.0
N227 N 0.55152 0.33286 0.17176 0.0
C228 C 0.5961 0.38473 0.18467 0.0
C229 C 0.6582 0.40541 0.18888 0.0
C230 C 0.38325 0.84165 0.47676 0.0
C231 C 0.38496 0.8836 0.47074 0.0
C232 C 0.32765 0.78728 0.47143 0.0
C233 C 0.27111 0.77244 0.46008 0.0
H234 H 0.42543 0.85073 0.48531 0.0
H235 H 0.32915 0.75672 0.47619 0.0
S236 S 0.24947 0.86665 0.44179 0.0
N237 N 0.32437 0.90629 0.45361 0.0
N238 N 0.22026 0.80453 0.4437 0.0
C239 C 0.27196 0.81397 0.45441 0.0
C240 C 0.32863 0.86935 0.45967 0.0
C241 C 0.41907 0.15918 0.81345 0.0
C242 C 0.46553 0.21511 0.82071 0.0
C243 C 0.43221 0.13211 0.79315 0.0
C244 C 0.49215 0.15999 0.77895 0.0
H245 H 0.37237 0.13604 0.82393 0.0
H246 H 0.39488 0.08887 0.78863 0.0
S247 S 0.62928 0.30763 0.78892 0.0
N248 N 0.57308 0.29802 0.81121 0.0
N249 N 0.59806 0.2474 0.77301 0.0
C250 C 0.53881 0.21625 0.78558 0.0
C251 C 0.52546 0.2437 0.8065 0.0
C252 C 0.53153 0.76388 0.57642 0.0
C253 C 0.56154 0.787 0.54384 0.0
C254 C 0.52045 0.71926 0.58848 0.0
C255 C 0.53893 0.69583 0.56849 0.0
H256 H 0.51842 0.78154 0.5934 0.0
H257 H 0.49858 0.70398 0.61422 0.0
S258 S 0.61288 0.73765 0.47924 0.0
N259 N 0.60475 0.78051 0.49022 0.0
N260 N 0.58458 0.69695 0.51297 0.0
C261 C 0.56679 0.71729 0.53512 0.0
C262 C 0.57798 0.76277 0.52281 0.0
C263 C 0.74297 0.53296 0.87598 0.0
C264 C 0.68414 0.49721 0.89253 0.0
C265 C 0.78937 0.53056 0.88142 0.0
C266 C 0.77889 0.49219 0.90356 0.0
H267 H 0.75304 0.5626 0.85824 0.0
H268 H 0.83336 0.55842 0.86766 0.0
S269 S 0.63585 0.3936 0.95652 0.0
N270 N 0.62081 0.42557 0.93464 0.0
N271 N 0.70642 0.4202 0.94413 0.0
C272 C 0.72088 0.45722 0.92094 0.0
C273 C 0.67405 0.45994 0.91563 0.0
C274 C 0.28925 0.70908 0.15459 0.0
C275 C 0.23177 0.69568 0.14989 0.0
C276 C 0.34562 0.76278 0.16091 0.0
C277 C 0.34703 0.80542 0.16238 0.0
H278 H 0.29051 0.6777 0.15494 0.0
H279 H 0.38818 0.77066 0.16563 0.0
S280 S 0.21017 0.79226 0.14729 0.0
N281 N 0.18037 0.72975 0.14399 0.0
N282 N 0.28611 0.83056 0.1555 0.0
C283 C 0.29029 0.79277 0.1557 0.0
C284 C 0.23279 0.73799 0.1496 0.0
C285 C 0.59806 0.35097 0.51877 0.0
C286 C 0.53544 0.30177 0.51408 0.0
C287 C 0.61239 0.39804 0.53145 0.0
C288 C 0.56468 0.39796 0.53969 0.0
H289 H 0.63637 0.3529 0.51328 0.0
H290 H 0.6614 0.43471 0.53499 0.0
S291 S 0.39284 0.27977 0.53009 0.0
N292 N 0.42526 0.25611 0.51717 0.0
N293 N 0.45184 0.34419 0.54113 0.0
C294 C 0.50175 0.34908 0.53446 0.0
C295 C 0.48724 0.30114 0.52168 0.0
C296 C 0.32777 0.45367 0.87987 0.0
C297 C 0.39165 0.50179 0.8819 0.0
C298 C 0.27944 0.45416 0.88057 0.0
C299 C 0.2926 0.5028 0.88369 0.0
H300 H 0.31486 0.41512 0.87716 0.0
H301 H 0.23124 0.41588 0.8783 0.0
S302 S 0.45197 0.6398 0.89389 0.0
N303 N 0.46525 0.59936 0.88955 0.0
N304 N 0.37495 0.60043 0.89121 0.0
C305 C 0.35635 0.5512 0.88669 0.0
C306 C 0.40559 0.55066 0.88567 0.0
C307 C 0.83834 0.3523 0.15621 0.0
C308 C 0.89494 0.36672 0.14615 0.0
C309 C 0.78399 0.29855 0.16183 0.0
C310 C 0.78394 0.25681 0.15807 0.0
H311 H 0.83608 0.38293 0.16035 0.0
H312 H 0.74211 0.28998 0.17012 0.0
S313 S 0.9194 0.27268 0.13082 0.0
N314 N 0.94704 0.33449 0.13144 0.0
N315 N 0.84515 0.23355 0.14223 0.0
C316 C 0.83981 0.27044 0.14711 0.0
C317 C 0.89513 0.32527 0.14105 0.0
C318 C 0.08344 0.53969 0.03783 0.0
C319 C 1.02712 0.52313 0.05047 0.0
C320 C 0.09123 0.53551 1.00118 0.0
C321 C 0.04259 0.51369 0.97565 0.0
H322 H 0.1223 0.55692 0.05634 0.0
H323 H 0.13608 0.54968 0.99284 0.0
S324 S 0.88267 0.45781 0.99638 0.0
N325 N 0.92066 0.4816 0.03557 0.0
N326 N 0.93345 0.47002 0.96685 0.0
C327 C 0.98513 0.49537 0.98829 0.0
C328 C 0.97788 0.50103 0.02567 0.0
C329 C 0.52797 0.02559 0.37016 0.0
C330 C 0.58692 0.06048 0.38793 0.0
C331 C 0.52301 0.02442 0.33267 0.0
C332 C 0.57674 0.0587 0.31154 0.0
H333 H 0.48543 0.99754 0.38513 0.0
H334 H 0.47659 0.99572 0.32013 0.0
S335 S 0.74177 0.16136 0.34593 0.0
N336 N 0.69983 0.13261 0.38225 0.0
N337 N 0.6907 0.13119 0.31183 0.0
C338 C 0.63583 0.09569 0.3293 0.0
C339 C 0.64085 0.09633 0.36747 0.0
C340 C 0.48441 0.47936 0.7558 0.0
C341 C 0.53145 0.49141 0.77848 0.0
C342 C 0.49653 0.49459 0.72009 0.0
C343 C 0.5558 0.52139 0.70546 0.0
H344 H 0.43773 0.45801 0.76572 0.0
H345 H 0.45865 0.48422 0.70361 0.0
S346 S 0.69546 0.5633 0.75408 0.0
N347 N 0.64007 0.53303 0.78436 0.0
N348 N 0.66265 0.56055 0.71678 0.0
C349 C 0.60348 0.53396 0.72795 0.0
C350 C 0.59139 0.51934 0.76462 0.0
C351 C 0.58308 0.07161 0.60799 0.0
C352 C 0.53153 0.0297 0.58597 0.0
C353 C 0.58831 0.06295 0.64367 0.0
C354 C 0.54336 0.01166 0.6579 0.0
H355 H 0.61898 0.11148 0.59775 0.0
H356 H 0.62846 0.09628 0.66 0.0
S357 S 0.40123 0.88836 0.61034 0.0
N358 N 0.43503 0.93543 0.58047 0.0
N359 N 0.44651 0.91827 0.64698 0.0
C360 C 0.49231 0.96925 0.63582 0.0
C361 C 0.48594 0.97853 0.59993 0.0
C362 C 0.48912 0.46334 0.98866 0.0
C363 C 0.54608 0.51423 0.97984 0.0
C364 C 0.47199 0.45039 0.02455 0.0
C365 C 0.5106 0.48828 0.05295 0.0
H366 H 0.45775 0.43307 0.96771 0.0
H367 H 0.42802 0.41035 0.03 0.0
S368 S 0.66309 0.62876 0.04362 0.0
N369 N 0.6402 0.60342 1.00202 0.0
N370 N 0.60774 0.57989 0.06936 0.0
C371 C 0.56714 0.53991 0.04429 0.0
C372 C 0.58497 0.55266 0.00778 0.0
C373 C 0.09257 0.56714 0.26252 0.0
C374 C 0.07278 0.51928 0.24639 0.0
C375 C 0.08754 0.57169 0.29964 0.0
C376 C 0.06129 0.52814 0.32176 0.0
H377 H 0.11318 0.60163 0.24647 0.0
H378 H 0.10386 0.60945 0.31103 0.0
S379 S 1.00036 0.39339 0.29193 0.0
N380 N 1.02512 0.42734 0.25487 0.0
N381 N 1.01433 0.43522 0.32438 0.0
C382 C 0.04023 0.47971 0.30565 0.0
C383 C 0.04635 0.47547 0.26803 0.0
loop_
_geom_bond_atom_site_label_1
_geom_bond_atom_site_label_2
_geom_bond_distance
_geom_bond_site_symmetry_2
_ccdc_geom_bond_type
La0 C2 2.928 . S
La0 O20 2.521 . S
La0 O21 2.628 . S
La0 O22 2.554 . S
La0 O23 2.757 . S
La0 O24 2.470 . S
La0 O29 2.482 . S
La0 O31 2.503 1_455 S
La1 C11 2.928 . S
La1 O23 2.482 1_655 S
La1 O25 2.503 1_655 S
La1 O26 2.521 . S
La1 O27 2.628 . S
La1 O28 2.554 . S
La1 O29 2.757 1_655 S
La1 O30 2.470 . S
C2 La0 2.928 . S
C2 C3 1.503 . S
C2 O20 1.261 . S
C2 O21 1.243 . S
C3 C2 1.503 . S
C3 C4 1.394 . S
C3 C8 1.373 . S
C4 C3 1.394 . S
C4 C5 1.380 . S
C4 H32 0.930 . S
C5 C4 1.380 . S
C5 C6 1.376 . S
C5 H33 0.930 . S
C6 C5 1.376 . S
C6 C7 1.370 . S
C7 C6 1.370 . S
C7 C8 1.396 . S
C7 H34 0.929 . S
C8 C3 1.373 . S
C8 C7 1.396 . S
C8 H35 0.929 . S
C9 O22 1.240 . S
C9 O23 1.289 . S
C10 O24 1.258 . S
C10 O25 1.256 . S
C11 La1 2.928 . S
C11 C12 1.503 . S
C11 O26 1.261 . S
C11 O27 1.243 . S
C12 C11 1.503 . S
C12 C13 1.394 . S
C12 C17 1.373 . S
C13 C12 1.394 . S
C13 C14 1.380 . S
C13 H36 0.930 . S
C14 C13 1.380 . S
C14 C15 1.376 . S
C14 H37 0.930 . S
C15 C14 1.376 . S
C15 C16 1.370 . S
C16 C15 1.370 . S
C16 C17 1.396 . S
C16 H38 0.929 . S
C17 C12 1.373 . S
C17 C16 1.396 . S
C17 H39 0.929 . S
C18 O28 1.240 1_455 S
C18 O29 1.289 . S
C19 O30 1.258 . S
C19 O31 1.256 . S
O20 La0 2.521 . S
O20 C2 1.261 . S
O21 La0 2.628 . S
O21 C2 1.243 . S
O22 La0 2.554 . S
O22 C9 1.240 . S
O23 La0 2.757 . S
O23 La1 2.482 1_455 S
O23 C9 1.289 . S
O24 La0 2.470 . S
O24 C10 1.258 . S
O25 La1 2.503 1_455 S
O25 C10 1.256 . S
O26 La1 2.521 . S
O26 C11 1.261 . S
O27 La1 2.628 . S
O27 C11 1.243 . S
O28 La1 2.554 . S
O28 C18 1.240 1_655 S
O29 La0 2.482 . S
O29 La1 2.757 1_455 S
O29 C18 1.289 . S
O30 La1 2.470 . S
O30 C19 1.258 . S
O31 La0 2.503 1_655 S
O31 C19 1.256 . S
H32 C4 0.930 . S
H33 C5 0.930 . S
H34 C7 0.929 . S
H35 C8 0.929 . S
H36 C13 0.930 . S
H37 C14 0.930 . S
H38 C16 0.929 . S
H39 C17 0.929 . S
La40 C42 2.928 . S
La40 O60 2.521 . S
La40 O61 2.628 . S
La40 O62 2.554 . S
La40 O63 2.757 1_565 S
La40 O64 2.470 . S
La40 O69 2.482 . S
La40 O71 2.503 1_565 S
La41 C51 2.928 . S
La41 O63 2.482 . S
La41 O65 2.503 1_545 S
La41 O66 2.521 . S
La41 O67 2.628 . S
La41 O68 2.554 . S
La41 O69 2.757 1_545 S
La41 O70 2.470 . S
C42 La40 2.928 . S
C42 C43 1.503 . S
C42 O60 1.261 . S
C42 O61 1.243 . S
C43 C42 1.503 . S
C43 C44 1.394 . S
C43 C48 1.373 . S
C44 C43 1.394 . S
C44 C45 1.380 . S
C44 H72 0.930 . S
C45 C44 1.380 . S
C45 C46 1.376 . S
C45 H73 0.930 . S
C46 C45 1.376 . S
C46 C47 1.370 . S
C47 C46 1.370 . S
C47 C48 1.396 . S
C47 H74 0.929 . S
C48 C43 1.373 . S
C48 C47 1.396 . S
C48 H75 0.929 . S
C49 O62 1.240 1_545 S
C49 O63 1.289 . S
C50 O64 1.258 . S
C50 O65 1.256 . S
C51 La41 2.928 . S
C51 C52 1.503 . S
C51 O66 1.261 . S
C51 O67 1.243 . S
C52 C51 1.503 . S
C52 C53 1.394 . S
C52 C57 1.373 . S
C53 C52 1.394 . S
C53 C54 1.380 . S
C53 H76 0.930 . S
C54 C53 1.380 . S
C54 C55 1.376 . S
C54 H77 0.930 . S
C55 C54 1.376 . S
C55 C56 1.370 . S
C56 C55 1.370 . S
C56 C57 1.396 . S
C56 H78 0.929 . S
C57 C52 1.373 . S
C57 C56 1.396 . S
C57 H79 0.929 . S
C58 O68 1.240 . S
C58 O69 1.289 1_545 S
C59 O70 1.258 . S
C59 O71 1.256 . S
O60 La40 2.521 . S
O60 C42 1.261 . S
O61 La40 2.628 . S
O61 C42 1.243 . S
O62 La40 2.554 . S
O62 C49 1.240 1_565 S
O63 La40 2.757 1_545 S
O63 La41 2.482 . S
O63 C49 1.289 . S
O64 La40 2.470 . S
O64 C50 1.258 . S
O65 La41 2.503 1_565 S
O65 C50 1.256 . S
O66 La41 2.521 . S
O66 C51 1.261 . S
O67 La41 2.628 . S
O67 C51 1.243 . S
O68 La41 2.554 . S
O68 C58 1.240 . S
O69 La40 2.482 . S
O69 La41 2.757 1_565 S
O69 C58 1.289 1_565 S
O70 La41 2.470 . S
O70 C59 1.258 . S
O71 La40 2.503 1_545 S
O71 C59 1.256 . S
H72 C44 0.930 . S
H73 C45 0.930 . S
H74 C47 0.929 . S
H75 C48 0.929 . S
H76 C53 0.930 . S
H77 C54 0.930 . S
H78 C56 0.929 . S
H79 C57 0.929 . S
La80 C82 2.928 . S
La80 O100 2.521 . S
La80 O101 2.628 . S
La80 O102 2.554 . S
La80 O103 2.757 . S
La80 O104 2.470 . S
La80 O109 2.482 . S
La80 O111 2.503 . S
La81 C91 2.928 . S
La81 O103 2.482 . S
La81 O105 2.503 . S
La81 O106 2.521 . S
La81 O107 2.628 . S
La81 O108 2.554 . S
La81 O109 2.757 . S
La81 O110 2.470 . S
C82 La80 2.928 . S
C82 C83 1.503 . S
C82 O100 1.261 . S
C82 O101 1.243 . S
C83 C82 1.503 . S
C83 C84 1.394 . S
C83 C88 1.373 . S
C84 C83 1.394 . S
C84 C85 1.380 . S
C84 H112 0.930 . S
C85 C84 1.380 . S
C85 C86 1.376 . S
C85 H113 0.930 . S
C86 C85 1.376 . S
C86 C87 1.370 . S
C87 C86 1.370 . S
C87 C88 1.396 . S
C87 H114 0.929 . S
C88 C83 1.373 . S
C88 C87 1.396 . S
C88 H115 0.929 . S
C89 O102 1.240 . S
C89 O103 1.289 . S
C90 O104 1.258 . S
C90 O105 1.256 . S
C91 La81 2.928 . S
C91 C92 1.503 . S
C91 O106 1.261 . S
C91 O107 1.243 . S
C92 C91 1.503 . S
C92 C93 1.394 . S
C92 C97 1.373 . S
C93 C92 1.394 . S
C93 C94 1.380 . S
C93 H116 0.930 . S
C94 C93 1.380 . S
C94 C95 1.376 . S
C94 H117 0.930 . S
C95 C94 1.376 . S
C95 C96 1.370 . S
C96 C95 1.370 . S
C96 C97 1.396 . S
C96 H118 0.929 . S
C97 C92 1.373 . S
C97 C96 1.396 . S
C97 H119 0.929 . S
C98 O108 1.240 . S
C98 O109 1.289 . S
C99 O110 1.258 . S
C99 O111 1.256 . S
O100 La80 2.521 . S
O100 C82 1.261 . S
O101 La80 2.628 . S
O101 C82 1.243 . S
O102 La80 2.554 . S
O102 C89 1.240 . S
O103 La80 2.757 . S
O103 La81 2.482 . S
O103 C89 1.289 . S
O104 La80 2.470 . S
O104 C90 1.258 . S
O105 La81 2.503 . S
O105 C90 1.256 . S
O106 La81 2.521 . S
O106 C91 1.261 . S
O107 La81 2.628 . S
O107 C91 1.243 . S
O108 La81 2.554 . S
O108 C98 1.240 . S
O109 La80 2.482 . S
O109 La81 2.757 . S
O109 C98 1.289 . S
O110 La81 2.470 . S
O110 C99 1.258 . S
O111 La80 2.503 . S
O111 C99 1.256 . S
H112 C84 0.930 . S
H113 C85 0.930 . S
H114 C87 0.929 . S
H115 C88 0.929 . S
H116 C93 0.930 . S
H117 C94 0.930 . S
H118 C96 0.929 . S
H119 C97 0.929 . S
O120 Cd121 2.300 . S
O120 C127 1.275 . S
Cd121 O120 2.300 . S
Cd121 O129 2.381 . S
Cd121 O130 2.378 . S
O122 Cd123 2.385 . S
O122 C127 1.255 1_565 S
Cd123 O122 2.385 . S
Cd123 O124 2.317 . S
O124 Cd123 2.317 . S
O124 C125 1.232 . S
C125 O124 1.232 . S
C125 O126 1.218 . S
O126 C125 1.218 . S
C127 O120 1.275 . S
C127 O122 1.255 1_545 S
C128 O129 1.258 . S
C128 O130 1.256 . S
O129 Cd121 2.381 . S
O129 C128 1.258 . S
O130 Cd121 2.378 . S
O130 C128 1.256 . S
O131 Cd132 2.300 . S
O131 C138 1.275 . S
Cd132 O131 2.300 . S
Cd132 O140 2.381 . S
Cd132 O141 2.378 . S
O133 Cd134 2.385 . S
O133 C138 1.255 . S
Cd134 O133 2.385 . S
Cd134 O135 2.317 . S
O135 Cd134 2.317 . S
O135 C136 1.232 . S
C136 O135 1.232 . S
C136 O137 1.218 . S
O137 C136 1.218 . S
C138 O131 1.275 . S
C138 O133 1.255 . S
C139 O140 1.258 . S
C139 O141 1.256 . S
O140 Cd132 2.381 . S
O140 C139 1.258 . S
O141 Cd132 2.378 . S
O141 C139 1.256 . S
O142 Cd143 2.300 . S
O142 C149 1.275 . S
Cd143 O142 2.300 . S
Cd143 O151 2.381 . S
Cd143 O152 2.378 . S
O144 Cd145 2.385 . S
O144 C149 1.255 1_655 S
Cd145 O144 2.385 . S
Cd145 O146 2.317 . S
O146 Cd145 2.317 . S
O146 C147 1.232 . S
C147 O146 1.232 . S
C147 O148 1.218 . S
O148 C147 1.218 . S
C149 O142 1.275 . S
C149 O144 1.255 1_455 S
C150 O151 1.258 . S
C150 O152 1.256 . S
O151 Cd143 2.381 . S
O151 C150 1.258 . S
O152 Cd143 2.378 . S
O152 C150 1.256 . S
O153 Cd154 2.300 . S
O153 C160 1.275 1_455 S
Cd154 O153 2.300 . S
Cd154 O162 2.381 . S
Cd154 O163 2.378 . S
O155 Cd156 2.385 . S
O155 C160 1.255 . S
Cd156 O155 2.385 . S
Cd156 O157 2.317 . S
O157 Cd156 2.317 . S
O157 C158 1.232 . S
C158 O157 1.232 . S
C158 O159 1.218 . S
O159 C158 1.218 . S
C160 O153 1.275 1_655 S
C160 O155 1.255 . S
C161 O162 1.258 . S
C161 O163 1.256 . S
O162 Cd154 2.381 . S
O162 C161 1.258 . S
O163 Cd154 2.378 . S
O163 C161 1.256 . S
O164 Cd165 2.300 . S
O164 C171 1.275 1_565 S
Cd165 O164 2.300 . S
Cd165 O173 2.381 . S
Cd165 O174 2.378 . S
O166 Cd167 2.385 . S
O166 C171 1.255 . S
Cd167 O166 2.385 . S
Cd167 O168 2.317 . S
O168 Cd167 2.317 . S
O168 C169 1.232 . S
C169 O168 1.232 . S
C169 O170 1.218 . S
O170 C169 1.218 . S
C171 O164 1.275 1_545 S
C171 O166 1.255 . S
C172 O173 1.258 . S
C172 O174 1.256 . S
O173 Cd165 2.381 . S
O173 C172 1.258 . S
O174 Cd165 2.378 . S
O174 C172 1.256 . S
O175 Cd176 2.300 . S
O175 C182 1.275 . S
Cd176 O175 2.300 . S
Cd176 O184 2.381 . S
Cd176 O185 2.378 . S
O177 Cd178 2.385 . S
O177 C182 1.255 . S
Cd178 O177 2.385 . S
Cd178 O179 2.317 . S
O179 Cd178 2.317 . S
O179 C180 1.232 . S
C180 O179 1.232 . S
C180 O181 1.218 . S
O181 C180 1.218 . S
C182 O175 1.275 . S
C182 O177 1.255 . S
C183 O184 1.258 . S
C183 O185 1.256 . S
O184 Cd176 2.381 . S
O184 C183 1.258 . S
O185 Cd176 2.378 . S
O185 C183 1.256 . S
C186 C187 1.369 . S
C186 C188 1.419 . S
C186 H190 0.930 . S
C187 C186 1.369 . S
C187 C196 1.429 . S
C188 C186 1.419 . S
C188 C189 1.363 . S
C188 H191 0.929 . S
C189 C188 1.363 . S
C189 C195 1.428 . S
H190 C186 0.930 . S
H191 C188 0.929 . S
S192 N193 1.613 . S
S192 N194 1.610 . S
N193 S192 1.613 . S
N193 C196 1.350 . S
N194 S192 1.610 . S
N194 C195 1.351 . S
C195 C189 1.428 . S
C195 N194 1.351 . S
C195 C196 1.434 . S
C196 C187 1.429 . S
C196 N193 1.350 . S
C196 C195 1.434 . S
C197 C198 1.369 . S
C197 C199 1.419 . S
C197 H201 0.930 . S
C198 C197 1.369 . S
C198 C207 1.429 . S
C199 C197 1.419 . S
C199 C200 1.363 . S
C199 H202 0.929 . S
C200 C199 1.363 . S
C200 C206 1.428 . S
H201 C197 0.930 . S
H202 C199 0.929 . S
S203 N204 1.613 . S
S203 N205 1.610 . S
N204 S203 1.613 . S
N204 C207 1.350 . S
N205 S203 1.610 . S
N205 C206 1.351 . S
C206 C200 1.428 . S
C206 N205 1.351 . S
C206 C207 1.434 . S
C207 C198 1.429 . S
C207 N204 1.350 . S
C207 C206 1.434 . S
C208 C209 1.369 . S
C208 C210 1.419 . S
C208 H212 0.930 . S
C209 C208 1.369 . S
C209 C218 1.429 . S
C210 C208 1.419 . S
C210 C211 1.363 . S
C210 H213 0.929 . S
C211 C210 1.363 . S
C211 C217 1.428 . S
H212 C208 0.930 . S
H213 C210 0.929 . S
S214 N215 1.613 . S
S214 N216 1.610 . S
N215 S214 1.613 . S
N215 C218 1.350 . S
N216 S214 1.610 . S
N216 C217 1.351 . S
C217 C211 1.428 . S
C217 N216 1.351 . S
C217 C218 1.434 . S
C218 C209 1.429 . S
C218 N215 1.350 . S
C218 C217 1.434 . S
C219 C220 1.369 . S
C219 C221 1.419 . S
C219 H223 0.930 . S
C220 C219 1.369 . S
C220 C229 1.429 . S
C221 C219 1.419 . S
C221 C222 1.363 . S
C221 H224 0.929 . S
C222 C221 1.363 . S
C222 C228 1.428 . S
H223 C219 0.930 . S
H224 C221 0.929 . S
S225 N226 1.613 . S
S225 N227 1.610 . S
N226 S225 1.613 . S
N226 C229 1.350 . S
N227 S225 1.610 . S
N227 C228 1.351 . S
C228 C222 1.428 . S
C228 N227 1.351 . S
C228 C229 1.434 . S
C229 C220 1.429 . S
C229 N226 1.350 . S
C229 C228 1.434 . S
C230 C231 1.369 . S
C230 C232 1.419 . S
C230 H234 0.930 . S
C231 C230 1.369 . S
C231 C240 1.429 . S
C232 C230 1.419 . S
C232 C233 1.363 . S
C232 H235 0.929 . S
C233 C232 1.363 . S
C233 C239 1.428 . S
H234 C230 0.930 . S
H235 C232 0.929 . S
S236 N237 1.613 . S
S236 N238 1.610 . S
N237 S236 1.613 . S
N237 C240 1.350 . S
N238 S236 1.610 . S
N238 C239 1.351 . S
C239 C233 1.428 . S
C239 N238 1.351 . S
C239 C240 1.434 . S
C240 C231 1.429 . S
C240 N237 1.350 . S
C240 C239 1.434 . S
C241 C242 1.369 . S
C241 C243 1.419 . S
C241 H245 0.930 . S
C242 C241 1.369 . S
C242 C251 1.429 . S
C243 C241 1.419 . S
C243 C244 1.363 . S
C243 H246 0.929 . S
C244 C243 1.363 . S
C244 C250 1.428 . S
H245 C241 0.930 . S
H246 C243 0.929 . S
S247 N248 1.613 . S
S247 N249 1.610 . S
N248 S247 1.613 . S
N248 C251 1.350 . S
N249 S247 1.610 . S
N249 C250 1.351 . S
C250 C244 1.428 . S
C250 N249 1.351 . S
C250 C251 1.434 . S
C251 C242 1.429 . S
C251 N248 1.350 . S
C251 C250 1.434 . S
C252 C253 1.369 . S
C252 C254 1.419 . S
C252 H256 0.930 . S
C253 C252 1.369 . S
C253 C262 1.429 . S
C254 C252 1.419 . S
C254 C255 1.363 . S
C254 H257 0.929 . S
C255 C254 1.363 . S
C255 C261 1.428 . S
H256 C252 0.930 . S
H257 C254 0.929 . S
S258 N259 1.613 . S
S258 N260 1.610 . S
N259 S258 1.613 . S
N259 C262 1.350 . S
N260 S258 1.610 . S
N260 C261 1.351 . S
C261 C255 1.428 . S
C261 N260 1.351 . S
C261 C262 1.434 . S
C262 C253 1.429 . S
C262 N259 1.350 . S
C262 C261 1.434 . S
C263 C264 1.369 . S
C263 C265 1.419 . S
C263 H267 0.930 . S
C264 C263 1.369 . S
C264 C273 1.429 . S
C265 C263 1.419 . S
C265 C266 1.363 . S
C265 H268 0.929 . S
C266 C265 1.363 . S
C266 C272 1.428 . S
H267 C263 0.930 . S
H268 C265 0.929 . S
S269 N270 1.613 . S
S269 N271 1.610 . S
N270 S269 1.613 . S
N270 C273 1.350 . S
N271 S269 1.610 . S
N271 C272 1.351 . S
C272 C266 1.428 . S
C272 N271 1.351 . S
C272 C273 1.434 . S
C273 C264 1.429 . S
C273 N270 1.350 . S
C273 C272 1.434 . S
C274 C275 1.369 . S
C274 C276 1.419 . S
C274 H278 0.930 . S
C275 C274 1.369 . S
C275 C284 1.429 . S
C276 C274 1.419 . S
C276 C277 1.363 . S
C276 H279 0.929 . S
C277 C276 1.363 . S
C277 C283 1.428 . S
H278 C274 0.930 . S
H279 C276 0.929 . S
S280 N281 1.613 . S
S280 N282 1.610 . S
N281 S280 1.613 . S
N281 C284 1.350 . S
N282 S280 1.610 . S
N282 C283 1.351 . S
C283 C277 1.428 . S
C283 N282 1.351 . S
C283 C284 1.434 . S
C284 C275 1.429 . S
C284 N281 1.350 . S
C284 C283 1.434 . S
C285 C286 1.369 . S
C285 C287 1.419 . S
C285 H289 0.930 . S
C286 C285 1.369 . S
C286 C295 1.429 . S
C287 C285 1.419 . S
C287 C288 1.363 . S
C287 H290 0.929 . S
C288 C287 1.363 . S
C288 C294 1.428 . S
H289 C285 0.930 . S
H290 C287 0.929 . S
S291 N292 1.613 . S
S291 N293 1.610 . S
N292 S291 1.613 . S
N292 C295 1.350 . S
N293 S291 1.610 . S
N293 C294 1.351 . S
C294 C288 1.428 . S
C294 N293 1.351 . S
C294 C295 1.434 . S
C295 C286 1.429 . S
C295 N292 1.350 . S
C295 C294 1.434 . S
C296 C297 1.369 . S
C296 C298 1.419 . S
C296 H300 0.930 . S
C297 C296 1.369 . S
C297 C306 1.429 . S
C298 C296 1.419 . S
C298 C299 1.363 . S
C298 H301 0.929 . S
C299 C298 1.363 . S
C299 C305 1.428 . S
H300 C296 0.930 . S
H301 C298 0.929 . S
S302 N303 1.613 . S
S302 N304 1.610 . S
N303 S302 1.613 . S
N303 C306 1.350 . S
N304 S302 1.610 . S
N304 C305 1.351 . S
C305 C299 1.428 . S
C305 N304 1.351 . S
C305 C306 1.434 . S
C306 C297 1.429 . S
C306 N303 1.350 . S
C306 C305 1.434 . S
C307 C308 1.369 . S
C307 C309 1.419 . S
C307 H311 0.930 . S
C308 C307 1.369 . S
C308 C317 1.429 . S
C309 C307 1.419 . S
C309 C310 1.363 . S
C309 H312 0.929 . S
C310 C309 1.363 . S
C310 C316 1.428 . S
H311 C307 0.930 . S
H312 C309 0.929 . S
S313 N314 1.613 . S
S313 N315 1.610 . S
N314 S313 1.613 . S
N314 C317 1.350 . S
N315 S313 1.610 . S
N315 C316 1.351 . S
C316 C310 1.428 . S
C316 N315 1.351 . S
C316 C317 1.434 . S
C317 C308 1.429 . S
C317 N314 1.350 . S
C317 C316 1.434 . S
C318 C319 1.369 . S
C318 C320 1.419 . S
C318 H322 0.930 . S
C319 C318 1.369 . S
C319 C328 1.429 1_455 S
C320 C318 1.419 . S
C320 C321 1.363 1_554 S
C320 H323 0.929 1_554 S
C321 C320 1.363 1_556 S
C321 C327 1.428 1_456 S
H322 C318 0.930 . S
H323 C320 0.929 1_556 S
S324 N325 1.613 . S
S324 N326 1.610 1_554 S
N325 S324 1.613 . S
N325 C328 1.350 . S
N326 S324 1.610 1_556 S
N326 C327 1.351 1_556 S
C327 C321 1.428 1_654 S
C327 N326 1.351 1_554 S
C327 C328 1.434 . S
C328 C319 1.429 1_655 S
C328 N325 1.350 . S
C328 C327 1.434 . S
C329 C330 1.369 1_565 S
C329 C331 1.419 . S
C329 H333 0.930 . S
C330 C329 1.369 1_545 S
C330 C339 1.429 . S
C331 C329 1.419 . S
C331 C332 1.363 1_565 S
C331 H334 0.929 . S
C332 C331 1.363 1_545 S
C332 C338 1.428 . S
H333 C329 0.930 . S
H334 C331 0.929 . S
S335 N336 1.613 . S
S335 N337 1.610 . S
N336 S335 1.613 . S
N336 C339 1.350 . S
N337 S335 1.610 . S
N337 C338 1.351 . S
C338 C332 1.428 . S
C338 N337 1.351 . S
C338 C339 1.434 . S
C339 C330 1.429 . S
C339 N336 1.350 . S
C339 C338 1.434 . S
C340 C341 1.369 . S
C340 C342 1.419 . S
C340 H344 0.930 . S
C341 C340 1.369 . S
C341 C350 1.429 . S
C342 C340 1.419 . S
C342 C343 1.363 . S
C342 H345 0.929 . S
C343 C342 1.363 . S
C343 C349 1.428 . S
H344 C340 0.930 . S
H345 C342 0.929 . S
S346 N347 1.613 . S
S346 N348 1.610 . S
N347 S346 1.613 . S
N347 C350 1.350 . S
N348 S346 1.610 . S
N348 C349 1.351 . S
C349 C343 1.428 . S
C349 N348 1.351 . S
C349 C350 1.434 . S
C350 C341 1.429 . S
C350 N347 1.350 . S
C350 C349 1.434 . S
C351 C352 1.369 . S
C351 C353 1.419 . S
C351 H355 0.930 . S
C352 C351 1.369 . S
C352 C361 1.429 1_545 S
C353 C351 1.419 . S
C353 C354 1.363 . S
C353 H356 0.929 . S
C354 C353 1.363 . S
C354 C360 1.428 1_545 S
H355 C351 0.930 . S
H356 C353 0.929 . S
S357 N358 1.613 . S
S357 N359 1.610 . S
N358 S357 1.613 . S
N358 C361 1.350 . S
N359 S357 1.610 . S
N359 C360 1.351 . S
C360 C354 1.428 1_565 S
C360 N359 1.351 . S
C360 C361 1.434 . S
C361 C352 1.429 1_565 S
C361 N358 1.350 . S
C361 C360 1.434 . S
C362 C363 1.369 . S
C362 C364 1.419 . S
C362 H366 0.930 . S
C363 C362 1.369 . S
C363 C372 1.429 . S
C364 C362 1.419 . S
C364 C365 1.363 1_556 S
C364 H367 0.929 1_556 S
C365 C364 1.363 1_554 S
C365 C371 1.425 1_554 S
H366 C362 0.930 . S
H367 C364 0.929 1_554 S
S368 N369 1.613 . S
S368 N370 1.610 1_556 S
N369 S368 1.613 . S
N369 C372 1.350 . S
N370 S368 1.610 1_554 S
N370 C371 1.348 1_554 S
C371 C365 1.425 1_556 S
C371 N370 1.348 1_556 S
C371 C372 1.442 . S
C372 C363 1.429 . S
C372 N369 1.350 . S
C372 C371 1.442 . S
C373 C374 1.369 . S
C373 C375 1.419 . S
C373 H377 0.930 . S
C374 C373 1.369 . S
C374 C383 1.429 1_455 S
C375 C373 1.419 . S
C375 C376 1.363 1_455 S
C375 H378 0.929 . S
C376 C375 1.363 1_655 S
C376 C382 1.428 . S
H377 C373 0.930 . S
H378 C375 0.929 . S
S379 N380 1.613 . S
S379 N381 1.610 . S
N380 S379 1.613 . S
N380 C383 1.350 . S
N381 S379 1.610 . S
N381 C382 1.351 . S
C382 C376 1.428 . S
C382 N381 1.351 . S
C382 C383 1.434 . S
C383 C374 1.429 1_655 S
C383 N380 1.350 . S
C383 C382 1.434 . S
C187 C6 0.935 . S
C189 C180 0.767 . S
C198 C59 2.028 . S
C200 C158 1.757 . S
C209 C86 1.198 . S
C211 C172 1.189 . S
C220 C15 0.608 . S
C222 C183 0.462 . S
C233 C161 1.861 . S
C231 C50 1.942 . S
C244 C169 1.277 . S
C242 C95 1.408 . S
C253 C46 1.366 . S
C255 C136 1.178 . S
C264 C99 3.278 . S
C266 C147 2.937 . S
C275 C10 2.102 . S
C277 C125 1.764 . S
C288 C139 1.160 . S
C286 C55 1.152 . S
C299 C150 2.930 . S
C297 C90 3.007 . S
C308 C19 1.853 . S
C310 C128 1.831 . S
C321 C149 1.678 . S
C319 C18 1.681 . S
C330 C49 1.396 . S
C332 C127 1.371 . S
C341 C98 1.516 . S
C343 C138 1.474 . S
C354 C171 1.434 . S
C352 C58 1.437 . S
C365 C182 1.111 . S
C363 C89 1.175 . S
C374 C9 1.398 . S
C376 C160 1.368 . S
