# Generated by pormake.
# Topology gar, (4,6)-cn, num edge types: 1
# Building blocks:
#     Node 0, Type 0, BuildingBlock: CEKHIL_clean_sbu_0, # of connection points: 4
#     Node 1, Type 0, BuildingBlock: CEKHIL_clean_sbu_0, # of connection points: 4
#     Node 2, Type 0, BuildingBlock: CEKHIL_clean_sbu_0, # of connection points: 4
#     Node 3, Type 0, BuildingBlock: CEKHIL_clean_sbu_0, # of connection points: 4
#     Node 4, Type 0, BuildingBlock: CEKHIL_clean_sbu_0, # of connection points: 4
#     Node 5, Type 0, BuildingBlock: CEKHIL_clean_sbu_0, # of connection points: 4
#     Node 6, Type 0, BuildingBlock: CEKHIL_clean_sbu_0, # of connection points: 4
#     Node 7, Type 0, BuildingBlock: CEKHIL_clean_sbu_0, # of connection points: 4
#     Node 8, Type 0, BuildingBlock: CEKHIL_clean_sbu_0, # of connection points: 4
#     Node 9, Type 0, BuildingBlock: CEKHIL_clean_sbu_0, # of connection points: 4
#     Node 10, Type 0, BuildingBlock: CEKHIL_clean_sbu_0, # of connection points: 4
#     Node 11, Type 0, BuildingBlock: CEKHIL_clean_sbu_0, # of connection points: 4
#     Node 12, Type 0, BuildingBlock: CEKHIL_clean_sbu_0, # of connection points: 4
#     Node 13, Type 0, BuildingBlock: CEKHIL_clean_sbu_0, # of connection points: 4
#     Node 14, Type 0, BuildingBlock: CEKHIL_clean_sbu_0, # of connection points: 4
#     Node 15, Type 0, BuildingBlock: CEKHIL_clean_sbu_0, # of connection points: 4
#     Node 16, Type 0, BuildingBlock: CEKHIL_clean_sbu_0, # of connection points: 4
#     Node 17, Type 0, BuildingBlock: CEKHIL_clean_sbu_0, # of connection points: 4
#     Node 18, Type 0, BuildingBlock: CEKHIL_clean_sbu_0, # of connection points: 4
#     Node 19, Type 0, BuildingBlock: CEKHIL_clean_sbu_0, # of connection points: 4
#     Node 20, Type 0, BuildingBlock: CEKHIL_clean_sbu_0, # of connection points: 4
#     Node 21, Type 0, BuildingBlock: CEKHIL_clean_sbu_0, # of connection points: 4
#     Node 22, Type 0, BuildingBlock: CEKHIL_clean_sbu_0, # of connection points: 4
#     Node 23, Type 0, BuildingBlock: CEKHIL_clean_sbu_0, # of connection points: 4
#     Node 24, Type 1, BuildingBlock: PAMTOO_clean_sbu_0, # of connection points: 6
#     Node 25, Type 1, BuildingBlock: PAMTOO_clean_sbu_0, # of connection points: 6
#     Node 26, Type 1, BuildingBlock: PAMTOO_clean_sbu_0, # of connection points: 6
#     Node 27, Type 1, BuildingBlock: PAMTOO_clean_sbu_0, # of connection points: 6
#     Node 28, Type 1, BuildingBlock: PAMTOO_clean_sbu_0, # of connection points: 6
#     Node 29, Type 1, BuildingBlock: PAMTOO_clean_sbu_0, # of connection points: 6
#     Node 30, Type 1, BuildingBlock: PAMTOO_clean_sbu_0, # of connection points: 6
#     Node 31, Type 1, BuildingBlock: PAMTOO_clean_sbu_0, # of connection points: 6
#     Node 32, Type 1, BuildingBlock: PAMTOO_clean_sbu_0, # of connection points: 6
#     Node 33, Type 1, BuildingBlock: PAMTOO_clean_sbu_0, # of connection points: 6
#     Node 34, Type 1, BuildingBlock: PAMTOO_clean_sbu_0, # of connection points: 6
#     Node 35, Type 1, BuildingBlock: PAMTOO_clean_sbu_0, # of connection points: 6
#     Node 36, Type 1, BuildingBlock: PAMTOO_clean_sbu_0, # of connection points: 6
#     Node 37, Type 1, BuildingBlock: PAMTOO_clean_sbu_0, # of connection points: 6
#     Node 38, Type 1, BuildingBlock: PAMTOO_clean_sbu_0, # of connection points: 6
#     Node 39, Type 1, BuildingBlock: PAMTOO_clean_sbu_0, # of connection points: 6
#     Edge 40, Type (0, 1), BuildingBlock: MIFKUJ_clean_linker_0, # of connection points: 2
#     Edge 41, Type (0, 1), BuildingBlock: MIFKUJ_clean_linker_0, # of connection points: 2
#     Edge 42, Type (0, 1), BuildingBlock: MIFKUJ_clean_linker_0, # of connection points: 2
#     Edge 43, Type (0, 1), BuildingBlock: MIFKUJ_clean_linker_0, # of connection points: 2
#     Edge 44, Type (0, 1), BuildingBlock: MIFKUJ_clean_linker_0, # of connection points: 2
#     Edge 45, Type (0, 1), BuildingBlock: MIFKUJ_clean_linker_0, # of connection points: 2
#     Edge 46, Type (0, 1), BuildingBlock: MIFKUJ_clean_linker_0, # of connection points: 2
#     Edge 47, Type (0, 1), BuildingBlock: MIFKUJ_clean_linker_0, # of connection points: 2
#     Edge 48, Type (0, 1), BuildingBlock: MIFKUJ_clean_linker_0, # of connection points: 2
#     Edge 49, Type (0, 1), BuildingBlock: MIFKUJ_clean_linker_0, # of connection points: 2
#     Edge 50, Type (0, 1), BuildingBlock: MIFKUJ_clean_linker_0, # of connection points: 2
#     Edge 51, Type (0, 1), BuildingBlock: MIFKUJ_clean_linker_0, # of connection points: 2
#     Edge 52, Type (0, 1), BuildingBlock: MIFKUJ_clean_linker_0, # of connection points: 2
#     Edge 53, Type (0, 1), BuildingBlock: MIFKUJ_clean_linker_0, # of connection points: 2
#     Edge 54, Type (0, 1), BuildingBlock: MIFKUJ_clean_linker_0, # of connection points: 2
#     Edge 55, Type (0, 1), BuildingBlock: MIFKUJ_clean_linker_0, # of connection points: 2
#     Edge 56, Type (0, 1), BuildingBlock: MIFKUJ_clean_linker_0, # of connection points: 2
#     Edge 57, Type (0, 1), BuildingBlock: MIFKUJ_clean_linker_0, # of connection points: 2
#     Edge 58, Type (0, 1), BuildingBlock: MIFKUJ_clean_linker_0, # of connection points: 2
#     Edge 59, Type (0, 1), BuildingBlock: MIFKUJ_clean_linker_0, # of connection points: 2
#     Edge 60, Type (0, 1), BuildingBlock: MIFKUJ_clean_linker_0, # of connection points: 2
#     Edge 61, Type (0, 1), BuildingBlock: MIFKUJ_clean_linker_0, # of connection points: 2
#     Edge 62, Type (0, 1), BuildingBlock: MIFKUJ_clean_linker_0, # of connection points: 2
#     Edge 63, Type (0, 1), BuildingBlock: MIFKUJ_clean_linker_0, # of connection points: 2
#     Edge 64, Type (0, 1), BuildingBlock: MIFKUJ_clean_linker_0, # of connection points: 2
#     Edge 65, Type (0, 1), BuildingBlock: MIFKUJ_clean_linker_0, # of connection points: 2
#     Edge 66, Type (0, 1), BuildingBlock: MIFKUJ_clean_linker_0, # of connection points: 2
#     Edge 67, Type (0, 1), BuildingBlock: MIFKUJ_clean_linker_0, # of connection points: 2
#     Edge 68, Type (0, 1), BuildingBlock: MIFKUJ_clean_linker_0, # of connection points: 2
#     Edge 69, Type (0, 1), BuildingBlock: MIFKUJ_clean_linker_0, # of connection points: 2
#     Edge 70, Type (0, 1), BuildingBlock: MIFKUJ_clean_linker_0, # of connection points: 2
#     Edge 71, Type (0, 1), BuildingBlock: MIFKUJ_clean_linker_0, # of connection points: 2
#     Edge 72, Type (0, 1), BuildingBlock: MIFKUJ_clean_linker_0, # of connection points: 2
#     Edge 73, Type (0, 1), BuildingBlock: MIFKUJ_clean_linker_0, # of connection points: 2
#     Edge 74, Type (0, 1), BuildingBlock: MIFKUJ_clean_linker_0, # of connection points: 2
#     Edge 75, Type (0, 1), BuildingBlock: MIFKUJ_clean_linker_0, # of connection points: 2
#     Edge 76, Type (0, 1), BuildingBlock: MIFKUJ_clean_linker_0, # of connection points: 2
#     Edge 77, Type (0, 1), BuildingBlock: MIFKUJ_clean_linker_0, # of connection points: 2
#     Edge 78, Type (0, 1), BuildingBlock: MIFKUJ_clean_linker_0, # of connection points: 2
#     Edge 79, Type (0, 1), BuildingBlock: MIFKUJ_clean_linker_0, # of connection points: 2
#     Edge 80, Type (0, 1), BuildingBlock: MIFKUJ_clean_linker_0, # of connection points: 2
#     Edge 81, Type (0, 1), BuildingBlock: MIFKUJ_clean_linker_0, # of connection points: 2
#     Edge 82, Type (0, 1), BuildingBlock: MIFKUJ_clean_linker_0, # of connection points: 2
#     Edge 83, Type (0, 1), BuildingBlock: MIFKUJ_clean_linker_0, # of connection points: 2
#     Edge 84, Type (0, 1), BuildingBlock: MIFKUJ_clean_linker_0, # of connection points: 2
#     Edge 85, Type (0, 1), BuildingBlock: MIFKUJ_clean_linker_0, # of connection points: 2
#     Edge 86, Type (0, 1), BuildingBlock: MIFKUJ_clean_linker_0, # of connection points: 2
#     Edge 87, Type (0, 1), BuildingBlock: MIFKUJ_clean_linker_0, # of connection points: 2
#     Edge 88, Type (0, 1), BuildingBlock: MIFKUJ_clean_linker_0, # of connection points: 2
#     Edge 89, Type (0, 1), BuildingBlock: MIFKUJ_clean_linker_0, # of connection points: 2
#     Edge 90, Type (0, 1), BuildingBlock: MIFKUJ_clean_linker_0, # of connection points: 2
#     Edge 91, Type (0, 1), BuildingBlock: MIFKUJ_clean_linker_0, # of connection points: 2
#     Edge 92, Type (0, 1), BuildingBlock: MIFKUJ_clean_linker_0, # of connection points: 2
#     Edge 93, Type (0, 1), BuildingBlock: MIFKUJ_clean_linker_0, # of connection points: 2
#     Edge 94, Type (0, 1), BuildingBlock: MIFKUJ_clean_linker_0, # of connection points: 2
#     Edge 95, Type (0, 1), BuildingBlock: MIFKUJ_clean_linker_0, # of connection points: 2
#     Edge 96, Type (0, 1), BuildingBlock: MIFKUJ_clean_linker_0, # of connection points: 2
#     Edge 97, Type (0, 1), BuildingBlock: MIFKUJ_clean_linker_0, # of connection points: 2
#     Edge 98, Type (0, 1), BuildingBlock: MIFKUJ_clean_linker_0, # of connection points: 2
#     Edge 99, Type (0, 1), BuildingBlock: MIFKUJ_clean_linker_0, # of connection points: 2
#     Edge 100, Type (0, 1), BuildingBlock: MIFKUJ_clean_linker_0, # of connection points: 2
#     Edge 101, Type (0, 1), BuildingBlock: MIFKUJ_clean_linker_0, # of connection points: 2
#     Edge 102, Type (0, 1), BuildingBlock: MIFKUJ_clean_linker_0, # of connection points: 2
#     Edge 103, Type (0, 1), BuildingBlock: MIFKUJ_clean_linker_0, # of connection points: 2
#     Edge 104, Type (0, 1), BuildingBlock: MIFKUJ_clean_linker_0, # of connection points: 2
#     Edge 105, Type (0, 1), BuildingBlock: MIFKUJ_clean_linker_0, # of connection points: 2
#     Edge 106, Type (0, 1), BuildingBlock: MIFKUJ_clean_linker_0, # of connection points: 2
#     Edge 107, Type (0, 1), BuildingBlock: MIFKUJ_clean_linker_0, # of connection points: 2
#     Edge 108, Type (0, 1), BuildingBlock: MIFKUJ_clean_linker_0, # of connection points: 2
#     Edge 109, Type (0, 1), BuildingBlock: MIFKUJ_clean_linker_0, # of connection points: 2
#     Edge 110, Type (0, 1), BuildingBlock: MIFKUJ_clean_linker_0, # of connection points: 2
#     Edge 111, Type (0, 1), BuildingBlock: MIFKUJ_clean_linker_0, # of connection points: 2
#     Edge 112, Type (0, 1), BuildingBlock: MIFKUJ_clean_linker_0, # of connection points: 2
#     Edge 113, Type (0, 1), BuildingBlock: MIFKUJ_clean_linker_0, # of connection points: 2
#     Edge 114, Type (0, 1), BuildingBlock: MIFKUJ_clean_linker_0, # of connection points: 2
#     Edge 115, Type (0, 1), BuildingBlock: MIFKUJ_clean_linker_0, # of connection points: 2
#     Edge 116, Type (0, 1), BuildingBlock: MIFKUJ_clean_linker_0, # of connection points: 2
#     Edge 117, Type (0, 1), BuildingBlock: MIFKUJ_clean_linker_0, # of connection points: 2
#     Edge 118, Type (0, 1), BuildingBlock: MIFKUJ_clean_linker_0, # of connection points: 2
#     Edge 119, Type (0, 1), BuildingBlock: MIFKUJ_clean_linker_0, # of connection points: 2
#     Edge 120, Type (0, 1), BuildingBlock: MIFKUJ_clean_linker_0, # of connection points: 2
#     Edge 121, Type (0, 1), BuildingBlock: MIFKUJ_clean_linker_0, # of connection points: 2
#     Edge 122, Type (0, 1), BuildingBlock: MIFKUJ_clean_linker_0, # of connection points: 2
#     Edge 123, Type (0, 1), BuildingBlock: MIFKUJ_clean_linker_0, # of connection points: 2
#     Edge 124, Type (0, 1), BuildingBlock: MIFKUJ_clean_linker_0, # of connection points: 2
#     Edge 125, Type (0, 1), BuildingBlock: MIFKUJ_clean_linker_0, # of connection points: 2
#     Edge 126, Type (0, 1), BuildingBlock: MIFKUJ_clean_linker_0, # of connection points: 2
#     Edge 127, Type (0, 1), BuildingBlock: MIFKUJ_clean_linker_0, # of connection points: 2
#     Edge 128, Type (0, 1), BuildingBlock: MIFKUJ_clean_linker_0, # of connection points: 2
#     Edge 129, Type (0, 1), BuildingBlock: MIFKUJ_clean_linker_0, # of connection points: 2
#     Edge 130, Type (0, 1), BuildingBlock: MIFKUJ_clean_linker_0, # of connection points: 2
#     Edge 131, Type (0, 1), BuildingBlock: MIFKUJ_clean_linker_0, # of connection points: 2
#     Edge 132, Type (0, 1), BuildingBlock: MIFKUJ_clean_linker_0, # of connection points: 2
#     Edge 133, Type (0, 1), BuildingBlock: MIFKUJ_clean_linker_0, # of connection points: 2
#     Edge 134, Type (0, 1), BuildingBlock: MIFKUJ_clean_linker_0, # of connection points: 2
#     Edge 135, Type (0, 1), BuildingBlock: MIFKUJ_clean_linker_0, # of connection points: 2
# Relax obj value: 0.125
# Max RMSD: 0.259
# Mean RMSD: 0.151
data_MOF--net-gar--node1-CEKHIL_clean_sbu_0--node2-PAMTOO_clean_sbu_0--edge1-MIFKUJ_clean_linker_0
_symmetry_space_group_name_H-M    P1
_symmetry_Int_Tables_number       1
_symmetry_cell_setting            triclinic
loop_
_symmetry_equiv_pos_as_xyz
'x, y, z'
_cell_length_a     76.252921
_cell_length_b     76.013476
_cell_length_c     73.119143
_cell_angle_alpha  96.105483
_cell_angle_beta   95.412348
_cell_angle_gamma 103.45127
loop_
_atom_site_label
_atom_site_type_symbol
_atom_site_fract_x
_atom_site_fract_y
_atom_site_fract_z
_atom_type_partial_charge
Co0 Co 0.04804 0.31018 0.3623 0.0
O1 O 0.07465 0.31385 0.36604 0.0
O2 O 0.05802 0.30146 0.33986 0.0
C3 C 0.04768 0.33878 0.37656 0.0
O4 O 0.02016 0.30506 0.35252 0.0
Co5 Co 0.02572 0.31175 0.39569 0.0
O6 O 0.00465 0.3094 0.37673 0.0
C7 C 0.04177 0.28046 0.38783 0.0
C8 C 0.07424 0.30664 0.34907 0.0
C9 C 0.0051 0.30582 0.35936 0.0
O10 O 0.04481 0.2851 0.37162 0.0
O11 O 0.03619 0.2905 0.40004 0.0
O12 O 0.05087 0.33648 0.35939 0.0
O13 O 0.04619 0.32432 0.38456 0.0
Co14 Co 0.00805 0.75593 0.67867 0.0
O15 O 0.98167 0.75364 0.67423 0.0
O16 O 0.99538 0.75063 0.70081 0.0
C17 C 0.01535 0.78265 0.66568 0.0
O18 O 0.03548 0.75823 0.68892 0.0
Co19 Co 0.03166 0.75673 0.64618 0.0
O20 O 0.05257 0.76488 0.66588 0.0
C21 C 0.00867 0.72137 0.65286 0.0
C22 C 0.98024 0.75133 0.69136 0.0
C23 C 0.05126 0.76276 0.6828 0.0
O24 O 0.00477 0.72877 0.66837 0.0
O25 O 0.0177 0.73056 0.64166 0.0
O26 O 0.01208 0.78285 0.6828 0.0
O27 O 0.01332 0.76656 0.65692 0.0
Co28 Co 0.54391 0.80623 0.86272 0.0
O29 O 0.57039 0.80908 0.86656 0.0
O30 O 0.55369 0.79727 0.84026 0.0
C31 C 0.54425 0.83497 0.87698 0.0
O32 O 0.5161 0.80205 0.85289 0.0
Co33 Co 0.5216 0.80873 0.89613 0.0
O34 O 0.50188 0.80989 0.877 0.0
C35 C 0.53678 0.77673 0.88839 0.0
C36 C 0.56989 0.802 0.84953 0.0
C37 C 0.50175 0.80531 0.85969 0.0
O38 O 0.53999 0.78111 0.87212 0.0
O39 O 0.53124 0.78701 0.90039 0.0
O40 O 0.54764 0.83263 0.85988 0.0
O41 O 0.54231 0.82047 0.88493 0.0
Co42 Co 0.51044 0.25606 0.17631 0.0
O43 O 0.48415 0.25428 0.17157 0.0
O44 O 0.49728 0.25008 0.19797 0.0
C45 C 0.51817 0.28324 0.16419 0.0
O46 O 0.53751 0.25764 0.1872 0.0
Co47 Co 0.53594 0.25857 0.14543 0.0
O48 O 0.55629 0.26545 0.16576 0.0
C49 C 0.51118 0.22279 0.14902 0.0
C50 C 0.4824 0.25145 0.18853 0.0
C51 C 0.55376 0.26232 0.18218 0.0
O52 O 0.50695 0.22913 0.16485 0.0
O53 O 0.52095 0.23289 0.13899 0.0
O54 O 0.51468 0.28301 0.18122 0.0
O55 O 0.51652 0.26736 0.15514 0.0
Co56 Co 0.05141 0.79861 0.1138 0.0
O57 O 0.02492 0.7946 0.11093 0.0
O58 O 0.04136 0.79156 0.13618 0.0
C59 C 0.05611 0.82647 0.10148 0.0
O60 O 0.07833 0.80198 0.12444 0.0
Co61 Co 0.07498 0.80035 0.08399 0.0
O62 O 0.09681 0.80437 0.10254 0.0
C63 C 0.05459 0.76374 0.08935 0.0
C64 C 0.02541 0.79114 0.12797 0.0
C65 C 0.09437 0.80377 0.11944 0.0
O66 O 0.04933 0.77146 0.10384 0.0
O67 O 0.06396 0.77324 0.0786 0.0
O68 O 0.05394 0.82522 0.11872 0.0
O69 O 0.0552 0.81086 0.09172 0.0
Co70 Co 0.50294 0.76794 0.42821 0.0
O71 O 0.52945 0.77306 0.43081 0.0
O72 O 0.51162 0.75996 0.40525 0.0
C73 C 0.50172 0.7967 0.44157 0.0
O74 O 0.47548 0.76189 0.41811 0.0
Co75 Co 0.48035 0.76682 0.45914 0.0
O76 O 0.46039 0.76977 0.44106 0.0
C77 C 0.49556 0.73499 0.45128 0.0
C78 C 0.52808 0.7663 0.4135 0.0
C79 C 0.46099 0.76548 0.42387 0.0
O80 O 0.50174 0.74251 0.43724 0.0
O81 O 0.48692 0.74297 0.46235 0.0
O82 O 0.50402 0.79337 0.42431 0.0
O83 O 0.50132 0.78296 0.45087 0.0
Co84 Co 0.55439 0.29775 0.61388 0.0
O85 O 0.52784 0.29361 0.61099 0.0
O86 O 0.54431 0.29066 0.63624 0.0
C87 C 0.55898 0.32577 0.60179 0.0
O88 O 0.58139 0.30121 0.62461 0.0
Co89 Co 0.57837 0.30022 0.58444 0.0
O90 O 0.60019 0.30548 0.60311 0.0
C91 C 0.55909 0.26311 0.59011 0.0
C92 C 0.52835 0.29024 0.62807 0.0
C93 C 0.59761 0.30405 0.61985 0.0
O94 O 0.55242 0.27064 0.60372 0.0
O95 O 0.56921 0.27282 0.58006 0.0
O96 O 0.55676 0.32431 0.61898 0.0
O97 O 0.55825 0.31026 0.5919 0.0
Co98 Co 0.00627 0.27033 0.92946 0.0
O99 O 0.03275 0.27446 0.93273 0.0
O100 O 0.01516 0.26189 0.90686 0.0
C101 C 0.00557 0.29937 0.94247 0.0
O102 O 0.97907 0.26525 0.91877 0.0
Co103 Co 0.98291 0.27016 0.96015 0.0
O104 O 0.96353 0.2731 0.94139 0.0
C105 C 0.99761 0.23782 0.95288 0.0
C106 C 0.03154 0.26772 0.91542 0.0
C107 C 0.96451 0.26891 0.92427 0.0
O108 O 1.00373 0.24482 0.93856 0.0
O109 O 0.98944 0.2464 0.96396 0.0
O110 O 0.00872 0.29589 0.9255 0.0
O111 O 1.00425 0.28555 0.9518 0.0
Co112 Co 0.39974 0.03735 0.29884 0.0
O113 O 0.40076 0.06154 0.29279 0.0
O114 O 0.37671 0.03798 0.28608 0.0
C115 C 0.41294 0.04557 0.32822 0.0
O116 O 0.39315 0.01087 0.30311 0.0
Co117 Co 0.43445 0.02417 0.30984 0.0
O118 O 0.41725 0.00189 0.31524 0.0
C119 C 0.42401 0.02798 0.2708 0.0
C120 C 0.38399 0.05511 0.28536 0.0
C121 C 0.40029 -0.00109 0.30995 0.0
O122 O 0.4086 0.03053 0.27465 0.0
O123 O 0.43671 0.02695 0.28311 0.0
O124 O 0.39571 0.04454 0.32428 0.0
O125 O 0.42172 0.04318 0.31431 0.0
Co126 Co 0.27797 0.17887 0.5077 0.0
O127 O 0.3043 0.18342 0.51199 0.0
O128 O 0.28504 0.15844 0.51722 0.0
C129 C 0.27696 0.18804 0.47884 0.0
O130 O 0.25058 0.16775 0.5044 0.0
Co131 Co 0.25675 0.2078 0.50184 0.0
O132 O 0.23464 0.18738 0.49575 0.0
C133 C 0.27213 0.2053 0.53999 0.0
C134 C 0.30179 0.16722 0.51707 0.0
C135 C 0.23541 0.17151 0.49926 0.0
O136 O 0.27706 0.1908 0.53391 0.0
O137 O 0.26507 0.21465 0.52915 0.0
O138 O 0.27858 0.17177 0.48121 0.0
O139 O 0.27696 0.19862 0.49394 0.0
Co140 Co 0.13173 0.02972 0.78371 0.0
O141 O 0.12796 0.00323 0.7792 0.0
O142 O 0.15273 0.02318 0.77475 0.0
C143 C 0.12167 0.03052 0.81244 0.0
O144 O 0.14234 0.05737 0.78727 0.0
Co145 Co 0.10237 0.05049 0.78918 0.0
O146 O 0.12225 0.07308 0.79539 0.0
C147 C 0.10581 0.03499 0.75106 0.0
C148 C 0.14439 0.00622 0.77465 0.0
C149 C 0.13825 0.07254 0.79218 0.0
O150 O 0.12035 0.03037 0.75727 0.0
O151 O 0.09615 0.04189 0.76185 0.0
O152 O 0.13806 0.02921 0.81032 0.0
O153 O 0.1115 0.03035 0.79717 0.0
Co154 Co 0.26328 0.91232 0.99674 0.0
O155 O 0.23903 0.91239 0.00177 0.0
O156 O 0.26292 0.93619 0.00802 0.0
C157 C 0.25595 0.89728 0.96794 0.0
O158 O 0.28988 0.91785 0.99317 0.0
Co159 Co 0.27562 0.87628 0.98903 0.0
O160 O 0.29891 0.89244 0.9845 0.0
C161 C 0.26896 0.88914 0.02652 0.0
C162 C 0.24571 0.92941 0.00859 0.0
C163 C 0.30197 0.90975 0.98809 0.0
O164 O 0.26877 0.90489 0.02179 0.0
O165 O 0.2694 0.87537 0.01502 0.0
O166 O 0.25715 0.91474 0.97069 0.0
O167 O 0.25754 0.88949 0.9826 0.0
Co168 Co 0.28067 0.37761 0.02867 0.0
O169 O 0.25439 0.37386 0.02574 0.0
O170 O 0.27395 0.39962 0.03792 0.0
C171 C 0.28264 0.36459 -0.00044 0.0
O172 O 0.3082 0.38801 0.03297 0.0
Co173 Co 0.30057 0.34678 0.02646 0.0
O174 O 0.32279 0.36634 0.02557 0.0
C175 C 0.28284 0.35393 0.05977 0.0
C176 C 0.25715 0.39086 0.03279 0.0
C177 C 0.32284 0.38301 0.03008 0.0
O178 O 0.28026 0.3688 0.05415 0.0
O179 O 0.28932 0.34258 0.04991 0.0
O180 O 0.28112 0.3813 0.00255 0.0
O181 O 0.28159 0.35588 0.01384 0.0
Co182 Co 0.78038 0.14218 0.02331 0.0
O183 O 0.80598 0.14451 0.02936 0.0
O184 O 0.78412 0.12066 0.03304 0.0
C185 C 0.78222 0.15182 0.99545 0.0
O186 O 0.75295 0.13393 0.0179 0.0
Co187 Co 0.76335 0.17438 0.01566 0.0
O188 O 0.74127 0.15504 0.00541 0.0
C189 C 0.77548 0.16973 0.05424 0.0
C190 C 0.80138 0.12826 0.03422 0.0
C191 C 0.73968 0.13898 0.00963 0.0
O192 O 0.77911 0.15442 0.04884 0.0
O193 O 0.77014 0.1799 0.04313 0.0
O194 O 0.78197 0.13491 0.99714 0.0
O195 O 0.78248 0.16237 0.01053 0.0
Co196 Co 0.15746 0.51688 0.25061 0.0
O197 O 0.15657 0.49156 0.2516 0.0
O198 O 0.17945 0.51161 0.24311 0.0
C199 C 0.14785 0.52226 0.27829 0.0
O200 O 0.16367 0.54405 0.24885 0.0
Co201 Co 0.1225 0.53139 0.25101 0.0
O202 O 0.13992 0.55575 0.25454 0.0
C203 C 0.1286 0.50927 0.21771 0.0
C204 C 0.17271 0.49506 0.24642 0.0
C205 C 0.15646 0.55768 0.25175 0.0
O206 O 0.14529 0.51117 0.22427 0.0
O207 O 0.11693 0.51449 0.22708 0.0
O208 O 0.1648 0.5223 0.27739 0.0
O209 O 0.13725 0.51736 0.26288 0.0
Co210 Co 0.78192 0.88119 0.52976 0.0
O211 O 0.75564 0.87713 0.52775 0.0
O212 O 0.77525 0.90301 0.53953 0.0
C213 C 0.78318 0.8684 0.5004 0.0
O214 O 0.8094 0.89191 0.5332 0.0
Co215 Co 0.8023 0.8507 0.52639 0.0
O216 O 0.82401 0.87055 0.52472 0.0
C217 C 0.78556 0.85746 0.56053 0.0
C218 C 0.75842 0.89412 0.53488 0.0
C219 C 0.82395 0.88715 0.52952 0.0
O220 O 0.78246 0.87225 0.55518 0.0
O221 O 0.79201 0.84636 0.55029 0.0
O222 O 0.78139 0.885 0.50363 0.0
O223 O 0.78276 0.85964 0.51464 0.0
Co224 Co 0.93093 0.02899 0.26575 0.0
O225 O 0.93493 0.05549 0.2682 0.0
O226 O 0.90908 0.03584 0.25686 0.0
C227 C 0.9441 0.02753 0.29484 0.0
O228 O 0.91996 0.00134 0.26205 0.0
Co229 Co 0.96067 0.00802 0.26756 0.0
O230 O 0.94102 0.98628 0.26955 0.0
C231 C 0.95256 0.02323 0.233 0.0
C232 C 0.91794 0.05275 0.26152 0.0
C233 C 0.92453 0.98656 0.26524 0.0
O234 O 0.93934 0.02857 0.23987 0.0
O235 O 0.96307 0.01551 0.2422 0.0
O236 O 0.92756 0.02931 0.29203 0.0
O237 O 0.95268 0.02801 0.28036 0.0
Co238 Co 0.28595 0.6436 0.53505 0.0
O239 O 0.31016 0.64193 0.53147 0.0
O240 O 0.28845 0.61961 0.53859 0.0
C241 C 0.28104 0.65721 0.50997 0.0
O242 O 0.25942 0.63957 0.53889 0.0
Co243 Co 0.27525 0.68052 0.54163 0.0
O244 O 0.24986 0.66534 0.53877 0.0
C245 C 0.29936 0.66946 0.56976 0.0
C246 C 0.30497 0.62515 0.53476 0.0
C247 C 0.24676 0.64815 0.53898 0.0
O248 O 0.29419 0.65282 0.56201 0.0
O249 O 0.29499 0.68273 0.56258 0.0
O250 O 0.27893 0.63961 0.50823 0.0
O251 O 0.28729 0.6659 0.52625 0.0
Co252 Co 0.42772 0.52975 0.76451 0.0
O253 O 0.43226 0.55634 0.76731 0.0
O254 O 0.40616 0.53727 0.75576 0.0
C255 C 0.44088 0.52775 0.79349 0.0
O256 O 0.41616 0.50215 0.76048 0.0
Co257 Co 0.45684 0.50782 0.76596 0.0
O258 O 0.43675 0.48679 0.76869 0.0
C259 C 0.44896 0.5234 0.73154 0.0
C260 C 0.41531 0.55404 0.76068 0.0
C261 C 0.42037 0.48729 0.76406 0.0
O262 O 0.4361 0.52928 0.73859 0.0
O263 O 0.45911 0.51515 0.74051 0.0
O264 O 0.42455 0.53014 0.79089 0.0
O265 O 0.44927 0.52798 0.77889 0.0
Co266 Co 0.65571 0.02496 0.76699 0.0
O267 O 0.65305 -0.00097 0.76547 0.0
O268 O 0.67458 0.01826 0.75415 0.0
C269 C 0.65251 0.03 0.79727 0.0
O270 O 0.66363 0.05238 0.76675 0.0
Co271 Co 0.62486 0.04334 0.77708 0.0
O272 O 0.6452 0.06552 0.7827 0.0
C273 C 0.62344 0.02505 0.73901 0.0
C274 C 0.66769 0.00171 0.75732 0.0
C275 C 0.65977 0.06643 0.77525 0.0
O276 O 0.63907 0.0217 0.743 0.0
O277 O 0.61524 0.03264 0.75086 0.0
O278 O 0.668 0.02834 0.79227 0.0
O279 O 0.63919 0.02664 0.78407 0.0
Co280 Co 0.77399 0.68141 0.00865 0.0
O281 O 0.80034 0.68647 0.01355 0.0
O282 O 0.78125 0.66124 0.01847 0.0
C283 C 0.77346 0.69067 0.97988 0.0
O284 O 0.74669 0.66964 0.00472 0.0
Co285 Co 0.75185 0.70952 0.00193 0.0
O286 O 0.7302 0.68864 0.99562 0.0
C287 C 0.76691 0.70758 0.04038 0.0
C288 C 0.79796 0.67027 0.01863 0.0
C289 C 0.73137 0.67292 -0.00074 0.0
O290 O 0.77229 0.69327 0.03463 0.0
O291 O 0.75971 0.71661 0.02928 0.0
O292 O 0.77547 0.67454 0.98231 0.0
O293 O 0.77273 0.70105 0.99486 0.0
Co294 Co 0.90164 0.54385 0.80247 0.0
O295 O 0.90111 0.56862 0.7995 0.0
O296 O 0.8786 0.54408 0.78963 0.0
C297 C 0.91351 0.54924 0.83239 0.0
O298 O 0.89647 0.51662 0.80305 0.0
Co299 Co 0.93689 0.53144 0.8132 0.0
O300 O 0.92018 0.50798 0.81662 0.0
C301 C 0.92837 0.54033 0.77533 0.0
C302 C 0.88472 0.56167 0.79118 0.0
C303 C 0.90364 0.50452 0.80952 0.0
O304 O 0.91227 0.54121 0.7785 0.0
O305 O 0.94045 0.53822 0.78777 0.0
O306 O 0.89615 0.54727 0.82806 0.0
O307 O 0.923 0.54922 0.81873 0.0
Co308 Co 0.76458 0.40579 0.49459 0.0
O309 O 0.73941 0.40444 0.49697 0.0
O310 O 0.76226 0.42873 0.50646 0.0
C311 C 0.76052 0.39242 0.46517 0.0
O312 O 0.79186 0.41285 0.4942 0.0
Co313 Co 0.77949 0.37134 0.48704 0.0
O314 O 0.80261 0.38886 0.48439 0.0
C315 C 0.76785 0.38085 0.52328 0.0
C316 C 0.74495 0.42123 0.50494 0.0
C317 C 0.80486 0.40587 0.4895 0.0
O318 O 0.76764 0.39686 0.51929 0.0
O319 O 0.77032 0.36813 0.5116 0.0
O320 O 0.76077 0.40963 0.4686 0.0
O321 O 0.76113 0.38378 0.47936 0.0
Co322 Co 0.63223 0.53091 0.28379 0.0
O323 O 0.62832 0.50443 0.27904 0.0
O324 O 0.65321 0.52441 0.27487 0.0
C325 C 0.62216 0.53159 0.31244 0.0
O326 O 0.64311 0.55851 0.2877 0.0
Co327 Co 0.60327 0.55205 0.28931 0.0
O328 O 0.62331 0.57434 0.29636 0.0
C329 C 0.60758 0.53802 0.25098 0.0
C330 C 0.6448 0.50746 0.27462 0.0
C331 C 0.63926 0.57368 0.2931 0.0
O332 O 0.62103 0.53178 0.25734 0.0
O333 O 0.59838 0.54581 0.26158 0.0
O334 O 0.63852 0.53019 0.31028 0.0
O335 O 0.61195 0.53157 0.29721 0.0
Dy336 Dy 0.04908 0.04147 0.03094 0.0
Dy337 Dy 0.01045 0.01953 0.00983 0.0
C338 C 0.04569 0.02503 0.98796 0.0
O339 O 0.04024 0.0622 0.01455 0.0
O340 O 0.00978 0.04966 0.01218 0.0
O341 O 0.07633 0.05818 0.03177 0.0
O342 O 0.06626 0.05022 0.05705 0.0
O343 O 0.00792 0.02142 0.0402 0.0
O344 O 0.02861 0.04834 0.04907 0.0
O345 O 0.02456 0.99679 0.01442 0.0
O346 O 0.04515 0.01269 0.03871 0.0
O347 O 0.98599 0.99804 0.00855 0.0
O348 O 0.98827 0.01664 0.98811 0.0
C349 C 0.02344 0.06353 0.01054 0.0
O350 O 0.05586 0.02847 0.00414 0.0
O351 O 0.02801 0.02299 0.98693 0.0
C352 C 0.09595 0.04922 0.05338 0.0
C353 C 0.12444 0.03267 0.06198 0.0
C354 C 0.10938 0.02344 0.04913 0.0
C355 C 0.09526 0.03161 0.04494 0.0
C356 C 0.11092 0.05862 0.06616 0.0
C357 C 0.12518 0.0504 0.07039 0.0
C358 C 0.0805 0.05707 0.04924 0.0
C359 C 0.01473 0.0358 0.05248 0.0
C360 C 0.03622 0.99695 0.02905 0.0
C361 C 0.96141 0.01058 0.00159 0.0
C362 C 0.93269 0.02551 0.01138 0.0
C363 C 0.94984 0.03134 0.02189 0.0
C364 C 0.96405 0.02396 0.01702 0.0
C365 C 0.94416 0.00417 0.99138 0.0
C366 C 0.92978 0.01156 0.99634 0.0
C367 C 0.97728 0.00469 0.99588 0.0
H368 H 0.10863 0.00997 0.04204 0.0
H369 H 0.08374 0.02416 0.03507 0.0
H370 H 0.11152 0.07219 0.07287 0.0
H371 H 0.13668 0.05781 0.08028 0.0
H372 H 0.95237 0.04194 0.03364 0.0
H373 H 0.9773 0.02913 0.02503 0.0
H374 H 0.94196 0.9939 0.97938 0.0
H375 H 0.91665 0.00694 0.988 0.0
Dy376 Dy 0.28587 0.77653 0.25529 0.0
Dy377 Dy 0.26296 0.78216 0.28982 0.0
C378 C 0.29126 0.81495 0.27854 0.0
O379 O 0.30571 0.77691 0.28026 0.0
O380 O 0.28641 0.772 0.30261 0.0
O381 O 0.30967 0.78562 0.24168 0.0
O382 O 0.2887 0.76172 0.22932 0.0
O383 O 0.2502 0.75512 0.27324 0.0
O384 O 0.27581 0.74894 0.26359 0.0
O385 O 0.24814 0.7922 0.26647 0.0
O386 O 0.25808 0.77735 0.24205 0.0
O387 O 0.24278 0.77036 0.30657 0.0
O388 O 0.25512 0.79936 0.31155 0.0
C389 C 0.30264 0.77326 0.29707 0.0
O390 O 0.28768 0.80633 0.26163 0.0
O391 O 0.28623 0.80642 0.29249 0.0
C392 C 0.30144 0.78258 0.20972 0.0
C393 C 0.29888 0.80392 0.1809 0.0
C394 C 0.28319 0.79513 0.18806 0.0
C395 C 0.28447 0.7846 0.20232 0.0
C396 C 0.3171 0.79082 0.20225 0.0
C397 C 0.31584 0.80144 0.18791 0.0
C398 C 0.30296 0.77412 0.22675 0.0
C399 C 0.25916 0.74333 0.26739 0.0
C400 C 0.24653 0.78615 0.24865 0.0
C401 C 0.24888 0.7836 0.33716 0.0
C402 C 0.25454 0.76932 0.37029 0.0
C403 C 0.23742 0.77202 0.36446 0.0
C404 C 0.23457 0.77905 0.34784 0.0
C405 C 0.26637 0.78247 0.3439 0.0
C406 C 0.26916 0.77523 0.36034 0.0
C407 C 0.2449 0.78549 0.31764 0.0
H408 H 0.26997 0.79701 0.1832 0.0
H409 H 0.27223 0.77863 0.20806 0.0
H410 H 0.33033 0.78959 0.20794 0.0
H411 H 0.32813 0.80795 0.18253 0.0
H412 H 0.22597 0.76731 0.37193 0.0
H413 H 0.22095 0.77964 0.34267 0.0
H414 H 0.27752 0.78584 0.33574 0.0
H415 H 0.28243 0.77311 0.36464 0.0
Dy416 Dy 0.50561 0.02432 0.52951 0.0
Dy417 Dy 0.55216 0.0313 0.51812 0.0
C418 C 0.52454 0.03541 0.49165 0.0
O419 O 0.50751 0.99597 0.5181 0.0
O420 O 0.53749 0.00109 0.51068 0.0
O421 O 0.48016 0.02316 0.51332 0.0
O422 O 0.4815 0.02356 0.54324 0.0
O423 O 0.54868 0.02041 0.54537 0.0
O424 O 0.51954 0.01714 0.55454 0.0
O425 O 0.54756 0.05937 0.52845 0.0
O426 O 0.519 0.05409 0.53923 0.0
O427 O 0.58032 0.04099 0.53014 0.0
O428 O 0.57348 0.02633 0.50236 0.0
C429 C 0.52123 0.99016 0.5116 0.0
O430 O 0.52171 0.03136 0.50791 0.0
O431 O 0.5416 0.03799 0.49033 0.0
C432 C 0.46027 0.03804 0.52876 0.0
C433 C 0.43681 0.06213 0.52964 0.0
C434 C 0.44987 0.06327 0.51712 0.0
C435 C 0.46146 0.05139 0.51668 0.0
C436 C 0.44745 0.03703 0.54142 0.0
C437 C 0.43591 0.04893 0.5419 0.0
C438 C 0.47163 0.02458 0.5279 0.0
C439 C 0.53664 0.01613 0.55714 0.0
C440 C 0.53457 0.06516 0.53659 0.0
C441 C 0.5991 0.02189 0.52019 0.0
C442 C 0.62352 -0.00052 0.52612 0.0
C443 C 0.60541 0.9941 0.52999 0.0
C444 C 0.59333 0.0052 0.52705 0.0
C445 C 0.61712 0.0274 0.51649 0.0
C446 C 0.6292 0.01635 0.51942 0.0
C447 C 0.58634 0.03326 0.51604 0.0
H448 H 0.45087 0.07307 0.50731 0.0
H449 H 0.47118 0.05253 0.50671 0.0
H450 H 0.44623 0.02688 0.55087 0.0
H451 H 0.42628 0.04779 0.55196 0.0
H452 H 0.60058 0.98135 0.53536 0.0
H453 H 0.57943 0.00068 0.52995 0.0
H454 H 0.6218 0.04016 0.51106 0.0
H455 H 0.64291 0.02085 0.51601 0.0
Dy456 Dy 0.30003 0.27263 0.77369 0.0
Dy457 Dy 0.25984 0.28389 0.77157 0.0
C458 C 0.29652 0.31308 0.7668 0.0
O459 O 0.29551 0.27791 0.80375 0.0
O460 O 0.2744 0.29503 0.7998 0.0
O461 O 0.32921 0.27817 0.78173 0.0
O462 O 0.31523 0.25361 0.76362 0.0
O463 O 0.25737 0.25959 0.78655 0.0
O464 O 0.27828 0.24675 0.7735 0.0
O465 O 0.2611 0.26831 0.74379 0.0
O466 O 0.29196 0.27612 0.7444 0.0
O467 O 0.23063 0.27508 0.7642 0.0
O468 O 0.24276 0.30238 0.77791 0.0
C469 C 0.28599 0.28906 0.81051 0.0
O470 O 0.30582 0.30284 0.77483 0.0
O471 O 0.27887 0.30727 0.76135 0.0
C472 C 0.34565 0.26729 0.75814 0.0
C473 C 0.37455 0.27175 0.73541 0.0
C474 C 0.37567 0.28374 0.75183 0.0
C475 C 0.36148 0.28152 0.76302 0.0
C476 C 0.34445 0.25539 0.74167 0.0
C477 C 0.35862 0.25762 0.73047 0.0
C478 C 0.33098 0.26423 0.77063 0.0
C479 C 0.26342 0.24523 0.78165 0.0
C480 C 0.27571 0.26959 0.73524 0.0
C481 C 0.21329 0.28796 0.78489 0.0
C482 C 0.18498 0.2834 0.80818 0.0
C483 C 0.20195 0.27996 0.81389 0.0
C484 C 0.21592 0.28217 0.80237 0.0
C485 C 0.19651 0.29153 0.77922 0.0
C486 C 0.18257 0.2893 0.79067 0.0
C487 C 0.22765 0.29007 0.77225 0.0
H488 H 0.38753 0.29495 0.75606 0.0
H489 H 0.363 0.29089 0.77563 0.0
H490 H 0.33264 0.24411 0.73749 0.0
H491 H 0.35724 0.24791 0.71815 0.0
H492 H 0.20438 0.27524 0.82714 0.0
H493 H 0.22872 0.27926 0.80706 0.0
H494 H 0.19414 0.29604 0.76585 0.0
H495 H 0.16993 0.29243 0.78581 0.0
Dy496 Dy 0.0385 0.00728 0.51873 0.0
Dy497 Dy 0.02594 0.04672 0.52006 0.0
C498 C 0.99793 0.01007 0.52649 0.0
O499 O 0.03355 0.01164 0.48871 0.0
O500 O 0.01378 0.0301 0.49274 0.0
O501 O 0.03424 0.97819 0.51026 0.0
O502 O 0.05788 0.99284 0.52913 0.0
O503 O 0.05027 0.04923 0.50505 0.0
O504 O 0.06376 0.02981 0.51952 0.0
O505 O 0.04094 0.04633 0.54833 0.0
O506 O 0.03458 0.01537 0.54799 0.0
O507 O 0.03377 0.07609 0.52736 0.0
O508 O 0.00733 0.06322 0.51237 0.0
C509 C 0.02084 0.01927 0.48203 0.0
O510 O 0.00843 0.00062 0.51887 0.0
O511 O 1.00315 0.02796 0.53105 0.0
C512 C 0.04512 0.96227 0.53355 0.0
C513 C 0.0403 0.93435 0.55708 0.0
C514 C 0.03133 0.94861 0.55919 0.0
C515 C 0.03372 0.96239 0.54757 0.0
C516 C 0.05417 0.94823 0.53148 0.0
C517 C 0.05183 0.93448 0.54306 0.0
C518 C 0.04818 0.97687 0.52137 0.0
C519 C 0.06491 0.04421 0.51079 0.0
C520 C 0.04017 0.03187 0.55705 0.0
C521 C 0.02201 0.09274 0.505 0.0
C522 C 0.02653 0.12091 0.48159 0.0
C523 C 0.04115 0.11908 0.49394 0.0
C524 C 0.03894 0.10525 0.50545 0.0
C525 C 0.00742 0.09444 0.49255 0.0
C526 C 0.00966 0.10824 0.48097 0.0
C527 C 0.01931 0.07861 0.518 0.0
H528 H 0.02224 0.94901 0.56965 0.0
H529 H 0.02665 0.97315 0.54953 0.0
H530 H 0.06319 0.94794 0.52092 0.0
H531 H 0.05931 0.92408 0.54115 0.0
H532 H 0.05443 0.12833 0.4947 0.0
H533 H 0.05053 0.1045 0.51484 0.0
H534 H 0.99414 0.0852 0.4919 0.0
H535 H 0.99799 0.10924 0.47184 0.0
Dy536 Dy 0.28049 0.79832 0.75757 0.0
Dy537 Dy 0.2737 0.75761 0.77211 0.0
C538 C 0.27013 0.79272 0.79775 0.0
O539 O 0.30753 0.79807 0.77361 0.0
O540 O 0.30389 0.76707 0.77127 0.0
O541 O 0.29015 0.82764 0.764 0.0
O542 O 0.27645 0.81566 0.73666 0.0
O543 O 0.27214 0.75478 0.74145 0.0
O544 O 0.29211 0.78114 0.73763 0.0
O545 O 0.24523 0.7622 0.76754 0.0
O546 O 0.25139 0.78321 0.74706 0.0
O547 O 0.26356 0.72823 0.76604 0.0
O548 O 0.27937 0.74014 0.79233 0.0
C549 C 0.31437 0.78375 0.77526 0.0
O550 O 0.26648 0.79951 0.78259 0.0
O551 O 0.27556 0.77755 0.79742 0.0
C552 C 0.27052 0.84377 0.74972 0.0
C553 C 0.24827 0.86908 0.75309 0.0
C554 C 0.26496 0.87206 0.76442 0.0
C555 C 0.27593 0.85964 0.76271 0.0
C556 C 0.25383 0.84072 0.73837 0.0
C557 C 0.24287 0.85319 0.74004 0.0
C558 C 0.28233 0.83063 0.74836 0.0
C559 C 0.28425 0.76387 0.73219 0.0
C560 C 0.23959 0.77167 0.75495 0.0
C561 C 0.28485 0.71241 0.77832 0.0
C562 C 0.30839 0.68851 0.77374 0.0
C563 C 0.29564 0.68981 0.759 0.0
C564 C 0.28407 0.7016 0.76124 0.0
C565 C 0.29745 0.71099 0.7931 0.0
C566 C 0.30909 0.69928 0.79083 0.0
C567 C 0.27277 0.7252 0.78084 0.0
H568 H 0.26953 0.88391 0.77484 0.0
H569 H 0.28867 0.86243 0.77168 0.0
H570 H 0.24918 0.82868 0.72817 0.0
H571 H 0.23027 0.85048 0.73086 0.0
H572 H 0.29478 0.68191 0.74557 0.0
H573 H 0.27457 0.70227 0.7495 0.0
H574 H 0.29836 0.71897 0.80649 0.0
H575 H 0.31846 0.69849 0.80262 0.0
Dy576 Dy 0.52014 0.03812 -0.00227 0.0
Dy577 Dy 0.52591 0.01613 0.03275 0.0
C578 C 0.52701 0.99751 0.99171 0.0
O579 O 0.49219 0.02939 0.00528 0.0
O580 O 0.49747 0.0052 0.01915 0.0
O581 O 0.51092 0.03988 0.9692 0.0
O582 O 0.52643 0.064 0.98721 0.0
O583 O 0.5144 0.03916 0.04407 0.0
O584 O 0.52382 0.05865 0.02333 0.0
O585 O 0.55323 0.03443 0.03145 0.0
O586 O 0.54878 0.03606 0.00043 0.0
O587 O 0.53494 0.01543 0.06152 0.0
O588 O 0.5212 0.99044 0.04383 0.0
C589 C 0.48628 0.01387 0.01159 0.0
O590 O 0.51784 0.00889 0.98556 0.0
O591 O 0.53462 0.00015 0.00905 0.0
C592 C 0.53467 0.05975 0.95771 0.0
C593 C 0.56589 0.06899 0.93974 0.0
C594 C 0.56242 0.05314 0.94841 0.0
C595 C 0.54691 0.04852 0.95722 0.0
C596 C 0.53784 0.07537 0.94872 0.0
C597 C 0.55329 0.07987 0.93959 0.0
C598 C 0.52061 0.05663 0.97017 0.0
C599 C 0.51802 0.05572 0.03937 0.0
C600 C 0.55958 0.03797 0.01584 0.0
C601 C 0.51213 0.9951 0.07315 0.0
C602 C 0.48589 0.99213 0.09785 0.0
C603 C 0.48363 0.00031 0.08178 0.0
C604 C 0.49661 0.00172 0.0695 0.0
C605 C 0.51414 0.98628 0.08879 0.0
C606 C 0.50101 0.98472 0.10108 0.0
C607 C 0.52628 -0.00163 0.06081 0.0
H608 H 0.57175 0.04434 0.9484 0.0
H609 H 0.54476 0.03644 0.96417 0.0
H610 H 0.5287 0.08435 0.94926 0.0
H611 H 0.55569 0.09212 0.9329 0.0
H612 H 0.47207 0.00606 0.07899 0.0
H613 H 0.49479 0.00847 0.0574 0.0
H614 H 0.52604 0.98108 0.09175 0.0
H615 H 0.50309 0.97852 0.11352 0.0
Dy616 Dy 0.26807 0.25681 0.25975 0.0
Dy617 Dy 0.28926 0.29643 0.28189 0.0
C618 C 0.28344 0.26109 0.30308 0.0
O619 O 0.24547 0.26632 0.27279 0.0
O620 O 0.25948 0.29659 0.28225 0.0
O621 O 0.25186 0.22939 0.25977 0.0
O622 O 0.26155 0.23784 0.2345 0.0
O623 O 0.28368 0.30151 0.25249 0.0
O624 O 0.26137 0.27594 0.24045 0.0
O625 O 0.31181 0.28226 0.27613 0.0
O626 O 0.29645 0.26227 0.25115 0.0
O627 O 0.31132 0.32054 0.28398 0.0
O628 O 0.29284 0.31799 0.30473 0.0
C629 C 0.24484 0.28284 0.27997 0.0
O630 O 0.28083 0.25094 0.28686 0.0
O631 O 0.28496 0.27871 0.30427 0.0
C632 C 0.26338 0.20897 0.24107 0.0
C633 C 0.28154 0.18079 0.23734 0.0
C634 C 0.29003 0.19756 0.24817 0.0
C635 C 0.28106 0.2115 0.24997 0.0
C636 C 0.25474 0.19231 0.23029 0.0
C637 C 0.26375 0.17824 0.22847 0.0
C638 C 0.25454 0.22411 0.24293 0.0
C639 C 0.27116 0.29233 0.2391 0.0
C640 C 0.31194 0.27113 0.26102 0.0
C641 C 0.30131 0.34658 0.29453 0.0
C642 C 0.28667 0.37641 0.28809 0.0
C643 C 0.29142 0.36585 0.2733 0.0
C644 C 0.29862 0.35103 0.27647 0.0
C645 C 0.29759 0.35777 0.30944 0.0
C646 C 0.29027 0.37256 0.30625 0.0
C647 C 0.30531 0.329 0.29757 0.0
H648 H 0.30355 0.19983 0.25552 0.0
H649 H 0.28793 0.22432 0.25837 0.0
H650 H 0.24111 0.19022 0.22327 0.0
H651 H 0.25691 0.16547 0.22001 0.0
H652 H 0.28861 0.36836 0.25914 0.0
H653 H 0.30119 0.34255 0.26465 0.0
H654 H 0.29948 0.35453 0.32346 0.0
H655 H 0.28687 0.38061 0.31792 0.0
Dy656 Dy 0.53568 0.50572 0.01624 0.0
Dy657 Dy 0.52336 0.54541 0.02098 0.0
C658 C 0.4957 0.50804 0.02638 0.0
O659 O 0.52973 0.51143 0.98672 0.0
O660 O 0.51147 0.53111 0.99267 0.0
O661 O 0.53022 0.47669 0.00687 0.0
O662 O 0.55531 0.49045 0.02393 0.0
O663 O 0.54749 0.54912 0.00553 0.0
O664 O 0.56104 0.52805 0.01685 0.0
O665 O 0.53869 0.54387 0.04862 0.0
O666 O 0.53432 0.51281 0.04644 0.0
O667 O 0.53158 0.57467 0.02918 0.0
O668 O 0.50435 0.56212 0.01594 0.0
C669 C 0.51784 0.5205 0.98096 0.0
O670 O 0.50583 0.49903 0.01755 0.0
O671 O 0.50098 0.5258 0.0317 0.0
C672 C 0.54211 0.46017 0.02894 0.0
C673 C 0.53839 0.43266 0.05295 0.0
C674 C 0.52882 0.44645 0.0548 0.0
C675 C 0.53067 0.46003 0.04295 0.0
C676 C 0.55165 0.44651 0.02703 0.0
C677 C 0.54983 0.43295 0.03884 0.0
C678 C 0.54469 0.47474 0.01667 0.0
C679 C 0.56208 0.54333 0.00965 0.0
C680 C 0.53938 0.52903 0.05625 0.0
C681 C 0.51825 0.59167 0.00894 0.0
C682 C 0.52251 0.61964 0.9855 0.0
C683 C 0.52525 0.60232 0.97946 0.0
C684 C 0.52318 0.58852 0.99105 0.0
C685 C 0.51539 0.60881 0.01497 0.0
C686 C 0.51748 0.62261 0.00343 0.0
C687 C 0.51645 0.57743 0.02157 0.0
H688 H 0.51971 0.44667 0.06527 0.0
H689 H 0.52319 0.47047 0.04477 0.0
H690 H 0.56068 0.4464 0.01646 0.0
H691 H 0.5577 0.42286 0.03709 0.0
H692 H 0.52935 0.5995 0.9659 0.0
H693 H 0.52557 0.57543 0.9861 0.0
H694 H 0.51157 0.61158 0.02868 0.0
H695 H 0.51498 0.63559 0.00854 0.0
Dy696 Dy 0.78352 0.30147 0.25841 0.0
Dy697 Dy 0.77789 0.25848 0.26758 0.0
C698 C 0.768 0.28851 0.29607 0.0
O699 O 0.81214 0.29826 0.26657 0.0
O700 O 0.80535 0.2736 0.28272 0.0
O701 O 0.793 0.3307 0.26674 0.0
O702 O 0.77989 0.32021 0.23893 0.0
O703 O 0.79569 0.26337 0.24539 0.0
O704 O 0.78272 0.28354 0.23198 0.0
O705 O 0.75033 0.25991 0.25312 0.0
O706 O 0.75325 0.29095 0.25601 0.0
O707 O 0.77061 0.23022 0.2553 0.0
O708 O 0.7805 0.23729 0.28455 0.0
C709 C 0.81728 0.28745 0.278 0.0
O710 O 0.77578 0.3015 0.28688 0.0
O711 O 0.76613 0.27103 0.29085 0.0
C712 C 0.7733 0.34736 0.25314 0.0
C713 C 0.75043 0.37202 0.25648 0.0
C714 C 0.76592 0.37399 0.2694 0.0
C715 C 0.77721 0.36187 0.26772 0.0
C716 C 0.75781 0.34535 0.24024 0.0
C717 C 0.74655 0.35748 0.24189 0.0
C718 C 0.78543 0.33457 0.25141 0.0
C719 C 0.79155 0.27072 0.23078 0.0
C720 C 0.74315 0.27414 0.25199 0.0
C721 C 0.78855 0.21207 0.26848 0.0
C722 C 0.81182 0.18797 0.2648 0.0
C723 C 0.81603 0.20509 0.25828 0.0
C724 C 0.80451 0.217 0.26009 0.0
C725 C 0.78431 0.19509 0.27499 0.0
C726 C 0.79577 0.18318 0.27319 0.0
C727 C 0.77617 0.22439 0.27044 0.0
H728 H 0.76927 0.38482 0.28097 0.0
H729 H 0.78902 0.36385 0.27788 0.0
H730 H 0.75437 0.33444 0.22874 0.0
H731 H 0.73495 0.35564 0.23149 0.0
H732 H 0.82809 0.20919 0.25153 0.0
H733 H 0.80804 0.23003 0.25488 0.0
H734 H 0.77209 0.19102 0.28154 0.0
H735 H 0.79217 0.17029 0.27864 0.0
Dy736 Dy 0.02183 0.54068 0.49965 0.0
Dy737 Dy 0.0286 0.51859 0.53424 0.0
C738 C 0.03139 0.50145 0.49273 0.0
O739 O 0.99541 0.52065 0.49951 0.0
O740 O 0.99877 0.51642 0.53003 0.0
O741 O 0.01305 0.54145 0.47083 0.0
O742 O 0.02506 0.56655 0.48906 0.0
O743 O 0.02819 0.54699 0.54654 0.0
O744 O 0.0105 0.55447 0.52303 0.0
O745 O 0.05605 0.52838 0.5255 0.0
O746 O 0.04967 0.55325 0.51418 0.0
O747 O 0.04224 0.51794 0.56135 0.0
O748 O 0.02208 0.4942 0.54741 0.0
C749 C 0.98861 0.51465 0.51413 0.0
O750 O 0.03393 0.51802 0.48794 0.0
O751 O 0.02652 0.49821 0.50907 0.0
C752 C 0.03448 0.56351 0.45957 0.0
C753 C 0.06039 0.56647 0.43445 0.0
C754 C 0.0652 0.56426 0.45291 0.0
C755 C 0.05235 0.56274 0.46534 0.0
C756 C 0.0298 0.56658 0.44141 0.0
C757 C 0.04272 0.56813 0.42891 0.0
C758 C 0.02054 0.55885 0.47193 0.0
C759 C 0.0178 0.55731 0.54048 0.0
C760 C 0.06144 0.5447 0.52068 0.0
C761 C 0.02103 0.50249 0.57878 0.0
C762 C 1.00058 0.50411 0.60861 0.0
C763 C 0.99666 0.51211 0.59279 0.0
C764 C 0.00685 0.51138 0.57807 0.0
C765 C 0.02499 0.49433 0.59445 0.0
C766 C 0.01484 0.49521 0.60937 0.0
C767 C 0.03156 0.50225 0.56309 0.0
H768 H 0.07874 0.56308 0.45758 0.0
H769 H 0.05619 0.5602 0.47927 0.0
H770 H 0.01602 0.567 0.4367 0.0
H771 H 0.03862 0.56962 0.41468 0.0
H772 H 0.98604 0.5194 0.59199 0.0
H773 H 1.00378 0.51797 0.56617 0.0
H774 H 0.03595 0.48747 0.59519 0.0
H775 H 0.01812 0.48897 0.62148 0.0
Dy776 Dy 0.7994 0.77418 0.27504 0.0
Dy777 Dy 0.75932 0.78615 0.27297 0.0
C778 C 0.79643 0.81356 0.2664 0.0
O779 O 0.79856 0.78912 0.30325 0.0
O780 O 0.76763 0.78423 0.30258 0.0
O781 O 0.82865 0.78246 0.2818 0.0
O782 O 0.81591 0.75518 0.26834 0.0
O783 O 0.7533 0.75619 0.27426 0.0
O784 O 0.78072 0.75157 0.28644 0.0
O785 O 0.76468 0.78124 0.24318 0.0
O786 O 0.78386 0.76226 0.24734 0.0
O787 O 0.73042 0.78064 0.26368 0.0
O788 O 0.74358 0.80482 0.28276 0.0
C789 C 0.78406 0.7895 0.31165 0.0
O790 O 0.80228 0.79916 0.26102 0.0
O791 O 0.78122 0.81197 0.27393 0.0
C792 C 0.84537 0.76889 0.26088 0.0
C793 C 0.87352 0.77235 0.23744 0.0
C794 C 0.85991 0.78206 0.23537 0.0
C795 C 0.84603 0.78035 0.24694 0.0
C796 C 0.85873 0.75903 0.26284 0.0
C797 C 0.87258 0.76071 0.2513 0.0
C798 C 0.83122 0.76728 0.27373 0.0
C799 C 0.76289 0.74619 0.28229 0.0
C800 C 0.7731 0.76906 0.2365 0.0
C801 C 0.7129 0.79064 0.28668 0.0
C802 C 0.68328 0.78485 0.30845 0.0
C803 C 0.68555 0.7708 0.29533 0.0
C804 C 0.70013 0.77363 0.28462 0.0
C805 C 0.71064 0.80466 0.29979 0.0
C806 C 0.69614 0.8018 0.31053 0.0
C807 C 0.7281 0.79423 0.27491 0.0
H808 H 0.86017 0.79128 0.22503 0.0
H809 H 0.83589 0.78812 0.24512 0.0
H810 H 0.8585 0.75004 0.27341 0.0
H811 H 0.8825 0.75271 0.2532 0.0
H812 H 0.67612 0.75749 0.2934 0.0
H813 H 0.70131 0.76249 0.27467 0.0
H814 H 0.72005 0.81798 0.30163 0.0
H815 H 0.69481 0.81308 0.32022 0.0
Dy816 Dy 0.78938 0.27908 0.75639 0.0
Dy817 Dy 0.76807 0.28899 0.79111 0.0
C818 C 0.79443 0.32031 0.77498 0.0
O819 O 0.80549 0.27197 0.78065 0.0
O820 O 0.79617 0.28875 0.80424 0.0
O821 O 0.81414 0.28073 0.74385 0.0
O822 O 0.78832 0.26609 0.72843 0.0
O823 O 0.768 0.25977 0.79103 0.0
O824 O 0.77053 0.2529 0.76035 0.0
O825 O 0.74767 0.28425 0.76553 0.0
O826 O 0.76736 0.29138 0.74432 0.0
O827 O 0.74327 0.28338 0.80373 0.0
O828 O 0.76624 0.3051 0.81672 0.0
C829 C 0.80763 0.27956 0.79804 0.0
O830 O 0.80225 0.30809 0.76768 0.0
O831 O 0.77869 0.3156 0.78122 0.0
C832 C 0.80828 0.28552 0.71304 0.0
C833 C 0.80668 0.307 0.68427 0.0
C834 C 0.8066 0.31438 0.70268 0.0
C835 C 0.80736 0.30373 0.71691 0.0
C836 C 0.80928 0.27829 0.69486 0.0
C837 C 0.80855 0.289 0.68053 0.0
C838 C 0.80535 0.27371 0.72757 0.0
C839 C 0.76628 0.24783 0.77629 0.0
C840 C 0.75084 0.28887 0.7491 0.0
C841 C 0.74921 0.28636 0.83591 0.0
C842 C 0.74607 0.26441 0.86461 0.0
C843 C 0.76327 0.2729 0.86017 0.0
C844 C 0.76483 0.2837 0.84589 0.0
C845 C 0.73205 0.27861 0.8409 0.0
C846 C 0.73047 0.26764 0.85511 0.0
C847 C 0.7505 0.29464 0.81868 0.0
H848 H 0.80483 0.32804 0.70603 0.0
H849 H 0.80621 0.30946 0.73083 0.0
H850 H 0.8098 0.26419 0.69165 0.0
H851 H 0.80881 0.28303 0.66646 0.0
H852 H 0.7755 0.27042 0.86707 0.0
H853 H 0.77822 0.28922 0.84211 0.0
H854 H 0.71984 0.28035 0.83321 0.0
H855 H 0.71707 0.2613 0.85836 0.0
Dy856 Dy 0.76373 0.75605 0.75888 0.0
Dy857 Dy 0.78512 0.79566 0.78081 0.0
C858 C 0.77959 0.76132 0.80257 0.0
O859 O 0.74109 0.77017 0.76408 0.0
O860 O 0.75642 0.79074 0.78873 0.0
O861 O 0.74645 0.72938 0.75992 0.0
O862 O 0.75491 0.73673 0.73392 0.0
O863 O 0.7722 0.80106 0.75367 0.0
O864 O 0.76945 0.77358 0.73649 0.0
O865 O 0.80767 0.7855 0.76835 0.0
O866 O 0.7934 0.75532 0.75853 0.0
O867 O 0.80349 0.82196 0.78055 0.0
O868 O 0.78979 0.81641 0.80461 0.0
C869 C 0.74095 0.78174 0.77886 0.0
O870 O 0.76673 0.75296 0.78914 0.0
O871 O 0.79104 0.77669 0.80072 0.0
C872 C 0.75384 0.70647 0.7399 0.0
C873 C 0.7705 0.67698 0.73807 0.0
C874 C 0.75915 0.67923 0.75175 0.0
C875 C 0.75083 0.69377 0.7526 0.0
C876 C 0.76416 0.70349 0.72543 0.0
C877 C 0.77241 0.68889 0.72454 0.0
C878 C 0.74763 0.72347 0.74282 0.0
C879 C 0.77035 0.79105 0.73753 0.0
C880 C 0.80817 0.76897 0.76107 0.0
C881 C 0.78984 0.84399 0.79326 0.0
C882 C 0.77228 0.87185 0.78666 0.0
C883 C 0.76414 0.85362 0.77933 0.0
C884 C 0.77271 0.83988 0.78277 0.0
C885 C 0.79831 0.86213 0.80044 0.0
C886 C 0.78954 0.87603 0.79722 0.0
C887 C 0.79855 0.82897 0.7957 0.0
H888 H 0.75747 0.67038 0.76246 0.0
H889 H 0.74276 0.69556 0.76376 0.0
H890 H 0.76648 0.71283 0.71521 0.0
H891 H 0.78078 0.68727 0.71361 0.0
H892 H 0.75111 0.84988 0.77077 0.0
H893 H 0.76594 0.82596 0.77711 0.0
H894 H 0.81159 0.86552 0.80852 0.0
H895 H 0.79611 0.88993 0.80316 0.0
Dy896 Dy 0.5508 0.54079 0.53201 0.0
Dy897 Dy 0.51273 0.51801 0.51017 0.0
C898 C 0.54815 0.52516 0.48886 0.0
O899 O 0.54128 0.56167 0.5164 0.0
O900 O 0.51093 0.54779 0.51158 0.0
O901 O 0.57707 0.55964 0.53339 0.0
O902 O 0.56895 0.54755 0.55766 0.0
O903 O 0.50914 0.52045 0.54034 0.0
O904 O 0.53017 0.54712 0.55017 0.0
O905 O 0.52796 0.49609 0.51475 0.0
O906 O 0.54697 0.51209 0.53999 0.0
O907 O 0.48895 0.49573 0.50874 0.0
O908 O 0.49125 0.51341 0.48743 0.0
C909 C 0.52443 0.56227 0.51121 0.0
O910 O 0.55813 0.52844 0.50513 0.0
O911 O 0.53046 0.52276 0.48768 0.0
C912 C 0.59838 0.54848 0.55108 0.0
C913 C 0.62425 0.52789 0.55542 0.0
C914 C 0.61314 0.52573 0.53852 0.0
C915 C 0.60032 0.5359 0.53638 0.0
C916 C 0.61001 0.5513 0.56775 0.0
C917 C 0.62304 0.54113 0.56987 0.0
C918 C 0.58243 0.55616 0.54979 0.0
C919 C 0.51593 0.53462 0.55295 0.0
C920 C 0.53898 0.49633 0.52987 0.0
C921 C 0.46338 0.50561 0.49871 0.0
C922 C 0.43235 0.51832 0.50405 0.0
C923 C 0.44835 0.52519 0.51633 0.0
C924 C 0.46374 0.5189 0.51367 0.0
C925 C 0.44724 0.49809 0.48682 0.0
C926 C 0.43169 0.50437 0.48955 0.0
C927 C 0.48042 0.50112 0.49496 0.0
H928 H 0.6141 0.51583 0.52707 0.0
H929 H 0.59141 0.53332 0.52345 0.0
H930 H 0.60851 0.56078 0.57931 0.0
H931 H 0.63159 0.54301 0.58298 0.0
H932 H 0.44909 0.53583 0.5277 0.0
H933 H 0.47615 0.5249 0.52294 0.0
H934 H 0.44684 0.48789 0.47515 0.0
H935 H 0.41946 0.49897 0.47988 0.0
Dy936 Dy 1.00039 0.52608 0.02694 0.0
Dy937 Dy 0.05066 0.53183 0.02189 0.0
C938 C 0.02545 0.53142 0.99142 0.0
O939 O 0.00491 0.49779 0.01712 0.0
O940 O 0.03596 0.50203 0.01224 0.0
O941 O 0.98094 0.53424 0.00849 0.0
O942 O 0.97174 0.51807 0.03014 0.0
O943 O 0.03014 0.52795 0.04098 0.0
O944 O 0.00785 0.52273 0.05678 0.0
O945 O 0.04602 0.56026 0.03103 0.0
O946 O 0.01514 0.55586 0.03663 0.0
O947 O 0.07013 0.52474 0.04111 0.0
O948 O 0.07931 0.53893 0.01813 0.0
C949 C 0.01912 0.49161 0.01195 0.0
O950 O 0.02098 0.53032 0.00799 0.0
O951 O 0.04288 0.53354 0.99164 0.0
C952 C 0.95476 0.53903 0.02106 0.0
C953 C 0.93064 0.56214 0.02513 0.0
C954 C 0.94947 0.56886 0.03067 0.0
C955 C 0.96139 0.55744 0.02861 0.0
C956 C 0.93601 0.53209 0.0162 0.0
C957 C 0.92408 0.54345 0.0183 0.0
C958 C 0.9672 0.52722 0.01702 0.0
C959 C 0.02528 0.52485 0.05707 0.0
C960 C 0.03184 0.56642 0.03637 0.0
C961 C 0.09609 0.51827 0.02906 0.0
C962 C 0.12109 0.4958 0.02738 0.0
C963 C 0.10266 0.48833 0.02902 0.0
C964 C 0.09031 0.49941 0.0298 0.0
C965 C 0.11431 0.52568 0.02691 0.0
C966 C 0.12665 0.5146 0.02601 0.0
C967 C 0.08378 0.53057 0.03198 0.0
H968 H 0.95515 0.58314 0.03582 0.0
H969 H 0.97584 0.5631 0.0324 0.0
H970 H 0.9306 0.51791 0.01041 0.0
H971 H 0.90969 0.53758 0.01433 0.0
H972 H 0.09783 0.47401 0.03032 0.0
H973 H 0.07634 0.49327 0.03147 0.0
H974 H 0.11912 0.54016 0.0263 0.0
H975 H 0.14059 0.52084 0.02437 0.0
H976 H 0.97984 0.21612 0.97663 0.0
H977 H 0.98363 0.18703 0.98514 0.0
H978 H 0.02472 0.18749 0.94846 0.0
H979 H 0.0204 0.21661 0.93928 0.0
H980 H 0.00722 0.15396 0.94658 0.0
H981 H 0.03324 0.19756 -0.00021 0.0
H982 H 0.03452 0.22236 0.02491 0.0
H983 H 0.98963 0.18886 0.04626 0.0
H984 H 0.98793 0.16393 0.02113 0.0
H985 H 0.04575 0.0885 0.9928 0.0
H986 H 0.04074 0.11664 0.98198 0.0
H987 H 0.98894 0.10719 0.00293 0.0
H988 H 0.99356 0.07853 0.01314 0.0
H989 H 0.01222 0.14498 0.01287 0.0
H990 H 0.98819 0.10052 0.96003 0.0
H991 H 0.98779 0.07618 0.9348 0.0
H992 H 0.03036 0.11202 0.91254 0.0
H993 H 0.03153 0.13636 0.93806 0.0
C994 C 0.98974 0.21016 0.97025 0.0
C995 C 0.99986 0.21918 0.95724 0.0
C996 C 0.99204 0.19335 0.97534 0.0
C997 C 0.00491 0.1848 0.96803 0.0
C998 C 0.01476 0.19351 0.95463 0.0
C999 C 0.01228 0.21034 0.94932 0.0
C1000 C 0.00788 0.16695 0.97434 0.0
C1001 C 0.00862 0.15224 0.96114 0.0
C1002 C 0.00937 0.164 0.99333 0.0
C1003 C 0.01035 0.17894 0.00847 0.0
C1004 C 0.02356 0.19552 0.00977 0.0
C1005 C 0.02437 0.2096 0.02402 0.0
C1006 C 0.01213 0.2072 0.03715 0.0
C1007 C 0.99908 0.19071 0.03607 0.0
C1008 C 0.9982 0.17659 0.02184 0.0
C1009 C 0.03322 0.09231 0.99512 0.0
C1010 C 0.02011 0.08099 0.00399 0.0
C1011 C 0.03035 0.10852 0.98882 0.0
C1012 C 0.01443 0.11439 0.99153 0.0
C1013 C 1.00138 0.10323 0.00058 0.0
C1014 C 1.00403 0.0867 0.00642 0.0
C1015 C 0.01158 0.13213 0.98512 0.0
C1016 C 0.01089 0.14678 -0.00167 0.0
C1017 C 0.01037 0.13507 0.96618 0.0
C1018 C 0.01015 0.12021 0.95118 0.0
C1019 C 0.99773 0.10312 0.95 0.0
C1020 C 0.99734 0.08931 0.9356 0.0
C1021 C 0.0091 0.09251 0.92213 0.0
C1022 C 0.0213 0.10952 0.92303 0.0
C1023 C 0.0219 0.1233 0.93751 0.0
H1024 H 0.0087 0.08184 0.91094 0.0
H1025 H 0.01278 0.21812 0.04817 0.0
H1026 H 0.12853 0.80045 0.11296 0.0
H1027 H 0.15369 0.79814 0.13516 0.0
H1028 H 0.12195 0.80449 0.18 0.0
H1029 H 0.09649 0.80663 0.15777 0.0
H1030 H 0.15835 0.82496 0.18865 0.0
H1031 H 0.12685 0.76314 0.16513 0.0
H1032 H 0.11313 0.7372 0.14084 0.0
H1033 H 0.16488 0.74085 0.12089 0.0
H1034 H 0.17886 0.767 0.1449 0.0
H1035 H 0.2165 0.7983 0.25735 0.0
H1036 H 0.19094 0.80178 0.23639 0.0
H1037 H 0.21581 0.78421 0.18945 0.0
H1038 H 0.24099 0.77998 0.2104 0.0
H1039 H 0.18216 0.76951 0.18212 0.0
H1040 H 0.21395 0.83131 0.20404 0.0
H1041 H 0.22842 0.858 0.22722 0.0
H1042 H 0.17758 0.85561 0.24882 0.0
H1043 H 0.16286 0.82874 0.2259 0.0
C1044 C 0.12683 0.8015 0.12755 0.0
C1045 C 0.11028 0.80374 0.13342 0.0
C1046 C 0.14131 0.80007 0.14029 0.0
C1047 C 0.13984 0.80096 0.15939 0.0
C1048 C 0.12355 0.80373 0.1654 0.0
C1049 C 0.10893 0.80493 0.15261 0.0
C1050 C 0.15516 0.79863 0.1729 0.0
C1051 C 0.16338 0.81272 0.18736 0.0
C1052 C 0.16222 0.78291 0.1711 0.0
C1053 C 0.15387 0.76715 0.1567 0.0
C1054 C 0.13528 0.75851 0.15547 0.0
C1055 C 0.12746 0.74375 0.14177 0.0
C1056 C 0.13812 0.73741 0.1293 0.0
C1057 C 0.15663 0.74579 0.13054 0.0
C1058 C 0.16452 0.76057 0.1442 0.0
C1059 C 0.21663 0.79524 0.24256 0.0
C1060 C 0.23106 0.78894 0.23571 0.0
C1061 C 0.20194 0.79736 0.23047 0.0
C1062 C 0.20131 0.79361 0.21107 0.0
C1063 C 0.21572 0.78727 0.20424 0.0
C1064 C 0.23029 0.78492 0.21633 0.0
C1065 C 0.18559 0.79593 0.19793 0.0
C1066 C 0.17723 0.7818 0.18349 0.0
C1067 C 0.17856 0.81173 0.19962 0.0
C1068 C 0.18735 0.8279 0.21338 0.0
C1069 C 0.20589 0.83639 0.21382 0.0
C1070 C 0.21413 0.85157 0.2269 0.0
C1071 C 0.20394 0.85847 0.23952 0.0
C1072 C 0.18547 0.85023 0.23905 0.0
C1073 C 0.17716 0.83504 0.22601 0.0
H1074 H 0.21034 0.87021 0.24963 0.0
H1075 H 0.13204 0.72598 0.11871 0.0
H1076 H 0.52325 0.81688 0.47267 0.0
H1077 H 0.52664 0.84898 0.48447 0.0
H1078 H 0.48408 0.85184 0.44238 0.0
H1079 H 0.48219 0.82026 0.42953 0.0
H1080 H 0.50354 0.8815 0.44497 0.0
H1081 H 0.48265 0.85144 0.49575 0.0
H1082 H 0.48204 0.83109 0.51994 0.0
H1083 H 0.53527 0.86167 0.54443 0.0
H1084 H 0.53628 0.88208 0.52026 0.0
H1085 H 0.48943 0.96437 0.49705 0.0
H1086 H 0.48554 0.93185 0.4856 0.0
H1087 H 0.54276 0.93734 0.50012 0.0
H1088 H 0.54687 0.9699 0.51094 0.0
H1089 H 0.51515 0.90434 0.51211 0.0
H1090 H 0.53278 0.93515 0.45909 0.0
H1091 H 0.52897 0.95567 0.43586 0.0
H1092 H 0.47516 0.92275 0.41685 0.0
H1093 H 0.47855 0.90221 0.4402 0.0
C1094 C 0.51448 0.82431 0.46607 0.0
C1095 C 0.50225 0.81577 0.45026 0.0
C1096 C 0.51628 0.84285 0.47297 0.0
C1097 C 0.5053 0.85337 0.46489 0.0
C1098 C 0.4929 0.84457 0.44916 0.0
C1099 C 0.49163 0.82627 0.44183 0.0
C1100 C 0.50705 0.87346 0.47229 0.0
C1101 C 0.50577 0.88617 0.45972 0.0
C1102 C 0.51016 0.88039 0.49155 0.0
C1103 C 0.50961 0.86816 0.50609 0.0
C1104 C 0.49427 0.85375 0.50624 0.0
C1105 C 0.49384 0.84222 0.51995 0.0
C1106 C 0.50862 0.84505 0.53368 0.0
C1107 C 0.52384 0.85947 0.53377 0.0
C1108 C 0.52434 0.87103 0.52008 0.0
C1109 C 0.50122 0.9587 0.49785 0.0
C1110 C 0.5185 0.97001 0.50498 0.0
C1111 C 0.49897 0.94001 0.49123 0.0
C1112 C 0.51383 0.93188 0.49194 0.0
C1113 C 0.53101 0.94307 0.49937 0.0
C1114 C 0.53335 0.96182 0.50553 0.0
C1115 C 0.51157 0.91189 0.4848 0.0
C1116 C 0.51279 0.89936 0.49741 0.0
C1117 C 0.50777 0.90502 0.46568 0.0
C1118 C 0.50585 0.91726 0.45153 0.0
C1119 C 0.52007 0.93239 0.45008 0.0
C1120 C 0.518 0.94401 0.43687 0.0
C1121 C 0.50182 0.94054 0.42492 0.0
C1122 C 0.48768 0.92543 0.42613 0.0
C1123 C 0.48968 0.91379 0.43935 0.0
H1124 H 0.50024 0.94953 0.41468 0.0
H1125 H 0.50827 0.83611 0.54428 0.0
H1126 H 0.52741 0.29138 0.66544 0.0
H1127 H 0.50116 0.28818 0.68255 0.0
H1128 H 0.4656 0.27885 0.63113 0.0
H1129 H 0.49212 0.283 0.61394 0.0
H1130 H 0.453 0.29878 0.65424 0.0
H1131 H 0.47149 0.24341 0.6595 0.0
H1132 H 0.49262 0.2242 0.66642 0.0
H1133 H 0.50292 0.24895 0.72322 0.0
H1134 H 0.48202 0.26848 0.71658 0.0
H1135 H 0.37299 0.26612 0.69723 0.0
H1136 H 0.39814 0.26846 0.67846 0.0
H1137 H 0.43649 0.28449 0.72803 0.0
H1138 H 0.41143 0.28162 0.74693 0.0
H1139 H 0.44663 0.26006 0.70487 0.0
H1140 H 0.42744 0.3155 0.69865 0.0
H1141 H 0.405 0.33318 0.69117 0.0
H1142 H 0.39467 0.3064 0.63511 0.0
H1143 H 0.41683 0.28833 0.64233 0.0
C1144 C 0.51401 0.28852 0.65771 0.0
C1145 C 0.51195 0.28729 0.63824 0.0
C1146 C 0.49889 0.28658 0.66756 0.0
C1147 C 0.48111 0.28282 0.65828 0.0
C1148 C 0.47903 0.28166 0.63878 0.0
C1149 C 0.49424 0.28394 0.6289 0.0
C1150 C 0.46487 0.28042 0.66895 0.0
C1151 C 0.45154 0.29006 0.6651 0.0
C1152 C 0.4628 0.2693 0.68344 0.0
C1153 C 0.47531 0.25751 0.6875 0.0
C1154 C 0.47835 0.24483 0.67343 0.0
C1155 C 0.49027 0.23388 0.67731 0.0
C1156 C 0.49914 0.23538 0.69524 0.0
C1157 C 0.49606 0.24781 0.70933 0.0
C1158 C 0.48416 0.25881 0.70553 0.0
C1159 C 0.38675 0.27004 0.70422 0.0
C1160 C 0.39001 0.27371 0.72373 0.0
C1161 C 0.4012 0.27155 0.69339 0.0
C1162 C 0.41938 0.27687 0.7017 0.0
C1163 C 0.42267 0.28043 0.72116 0.0
C1164 C 0.40824 0.27895 0.732 0.0
C1165 C 0.43495 0.27852 0.69024 0.0
C1166 C 0.44812 0.26873 0.69396 0.0
C1167 C 0.43674 0.28932 0.67552 0.0
C1168 C 0.42369 0.30044 0.67108 0.0
C1169 C 0.42031 0.31331 0.68475 0.0
C1170 C 0.40765 0.3234 0.68056 0.0
C1171 C 0.39839 0.32089 0.66268 0.0
C1172 C 0.40184 0.30832 0.64895 0.0
C1173 C 0.41446 0.29815 0.65308 0.0
H1174 H 0.38858 0.32871 0.65947 0.0
H1175 H 0.50837 0.22689 0.69821 0.0
H1176 H 0.01763 0.81841 0.67969 0.0
H1177 H 0.0228 0.84524 0.66308 0.0
H1178 H 0.02746 0.81142 0.61344 0.0
H1179 H 0.02263 0.78476 0.62999 0.0
H1180 H 0.05236 0.84231 0.61673 0.0
H1181 H 0.988 0.8264 0.62077 0.0
H1182 H 0.96062 0.82015 0.63683 0.0
H1183 H 0.97703 0.87414 0.667 0.0
H1184 H 0.00464 0.88063 0.65128 0.0
H1185 H 0.03862 0.89785 0.54765 0.0
H1186 H 0.03546 0.87378 0.56752 0.0
H1187 H 0.03256 0.91232 0.61415 0.0
H1188 H 0.03577 0.9366 0.5943 0.0
H1189 H 0.00801 0.88075 0.6144 0.0
H1190 H 0.07152 0.89727 0.6091 0.0
H1191 H 0.09877 0.90361 0.59288 0.0
H1192 H 0.08408 0.84859 0.56517 0.0
H1193 H 0.05658 0.842 0.58104 0.0
C1194 C 0.0199 0.81672 0.66527 0.0
C1195 C 0.01966 0.79936 0.6562 0.0
C1196 C 0.02273 0.83209 0.65572 0.0
C1197 C 0.02528 0.83046 0.63682 0.0
C1198 C 0.02551 0.81318 0.62795 0.0
C1199 C 0.0227 0.79787 0.63746 0.0
C1200 C 0.02756 0.84654 0.62614 0.0
C1201 C 0.04253 0.85057 0.6161 0.0
C1202 C 0.01508 0.85778 0.62559 0.0
C1203 C 0.99848 0.85392 0.63501 0.0
C1204 C 0.98584 0.83689 0.63094 0.0
C1205 C 0.97026 0.83331 0.63995 0.0
C1206 C 0.96711 0.84672 0.65296 0.0
C1207 C 0.9795 0.86376 0.65694 0.0
C1208 C 0.99511 0.86739 0.64798 0.0
C1209 C 0.03754 0.90137 0.56217 0.0
C1210 C 0.03774 0.91941 0.5693 0.0
C1211 C 0.03567 0.88748 0.57357 0.0
C1212 C 0.03407 0.89115 0.59252 0.0
C1213 C 0.03382 0.90903 0.59963 0.0
C1214 C 0.03565 0.92296 0.5882 0.0
C1215 C 0.03266 0.87633 0.60479 0.0
C1216 C 0.01789 0.87256 0.61512 0.0
C1217 C 0.04532 0.86531 0.60563 0.0
C1218 C 0.06191 0.86919 0.59615 0.0
C1219 C 0.07403 0.88656 0.59945 0.0
C1220 C 0.08953 0.89019 0.59033 0.0
C1221 C 0.09313 0.87652 0.57797 0.0
C1222 C 0.08126 0.85917 0.57474 0.0
C1223 C 0.06572 0.85547 0.58381 0.0
H1224 H 0.10514 0.87936 0.57092 0.0
H1225 H 0.95505 0.84393 0.65993 0.0
H1226 H 0.47177 0.81546 0.87046 0.0
H1227 H 0.44187 0.81114 0.85367 0.0
H1228 H 0.45948 0.78686 0.805 0.0
H1229 H 0.49012 0.79107 0.82205 0.0
H1230 H 0.43616 0.81053 0.79647 0.0
H1231 H 0.43392 0.75951 0.82982 0.0
H1232 H 0.4388 0.74393 0.85708 0.0
H1233 H 0.40441 0.7717 0.88587 0.0
H1234 H 0.39953 0.78765 0.85887 0.0
H1235 H 0.33228 0.75713 0.78219 0.0
H1236 H 0.36419 0.76035 0.79341 0.0
H1237 H 0.37433 0.81869 0.79481 0.0
H1238 H 0.34222 0.81553 0.78343 0.0
H1239 H 0.38446 0.77536 0.82433 0.0
H1240 H 0.41946 0.83663 0.78906 0.0
H1241 H 0.41477 0.85027 0.7604 0.0
H1242 H 0.38349 0.79824 0.73264 0.0
H1243 H 0.38821 0.78425 0.76105 0.0
C1244 C 0.46958 0.80916 0.85617 0.0
C1245 C 0.48373 0.80344 0.84787 0.0
C1246 C 0.45221 0.80669 0.84651 0.0
C1247 C 0.44801 0.79841 0.82802 0.0
C1248 C 0.46217 0.79324 0.81927 0.0
C1249 C 0.47977 0.79564 0.82907 0.0
C1250 C 0.42868 0.79479 0.81853 0.0
C1251 C 0.42489 0.80281 0.80257 0.0
C1252 C 0.41369 0.78453 0.82614 0.0
C1253 C 0.41647 0.77487 0.84236 0.0
C1254 C 0.4275 0.76239 0.84201 0.0
C1255 C 0.43025 0.75348 0.85741 0.0
C1256 C 0.42195 0.75685 0.87321 0.0
C1257 C 0.41084 0.76911 0.87363 0.0
C1258 C 0.40806 0.77807 0.85827 0.0
C1259 C 0.34121 0.77072 0.78475 0.0
C1260 C 0.33436 0.78606 0.78176 0.0
C1261 C 0.35963 0.77254 0.7913 0.0
C1262 C 0.37207 0.78976 0.79498 0.0
C1263 C 0.36532 0.80515 0.79192 0.0
C1264 C 0.3468 0.80334 0.78544 0.0
C1265 C 0.3918 0.79148 0.80247 0.0
C1266 C 0.39567 0.7831 0.81815 0.0
C1267 C 0.4068 0.80121 0.79445 0.0
C1268 C 0.40404 0.80945 0.77725 0.0
C1269 C 0.41164 0.8281 0.77682 0.0
C1270 C 0.40897 0.83589 0.76062 0.0
C1271 C 0.39879 0.82514 0.74473 0.0
C1272 C 0.39131 0.80657 0.74498 0.0
C1273 C 0.39396 0.79871 0.76114 0.0
H1274 H 0.39672 0.8312 0.73221 0.0
H1275 H 0.4241 0.74994 0.88512 0.0
H1276 H 0.51091 0.19174 0.16641 0.0
H1277 H 0.50879 0.16075 0.15084 0.0
H1278 H 0.49836 0.17882 0.09781 0.0
H1279 H 0.49966 0.20906 0.11321 0.0
H1280 H 0.48036 0.1466 0.09449 0.0
H1281 H 0.54282 0.1751 0.1194 0.0
H1282 H 0.56794 0.18929 0.14419 0.0
H1283 H 0.55678 0.14082 0.17074 0.0
H1284 H 0.53144 0.12643 0.1462 0.0
H1285 H 0.51687 0.09021 0.03195 0.0
H1286 H 0.51273 0.11578 0.05306 0.0
H1287 H 0.5098 0.0829 0.09769 0.0
H1288 H 0.51363 0.05708 0.07653 0.0
H1289 H 0.53246 0.11935 0.10808 0.0
H1290 H 0.47201 0.09003 0.07944 0.0
H1291 H 0.44829 0.07665 0.05312 0.0
H1292 H 0.45736 0.12816 0.03193 0.0
H1293 H 0.48133 0.14178 0.05799 0.0
C1294 C 0.50752 0.18887 0.1515 0.0
C1295 C 0.5054 0.20298 0.14113 0.0
C1296 C 0.50665 0.17118 0.1425 0.0
C1297 C 0.50388 0.16727 0.12292 0.0
C1298 C 0.50059 0.18115 0.11282 0.0
C1299 C 0.50132 0.19859 0.12173 0.0
C1300 C 0.50514 0.14933 0.11256 0.0
C1301 C 0.49187 0.14081 0.09751 0.0
C1302 C 0.51987 0.1412 0.11641 0.0
C1303 C 0.53511 0.14979 0.13111 0.0
C1304 C 0.54566 0.16753 0.13059 0.0
C1305 C 0.55994 0.1756 0.14459 0.0
C1306 C 0.56392 0.16599 0.15907 0.0
C1307 C 0.55365 0.14827 0.15955 0.0
C1308 C 0.53934 0.14014 0.1456 0.0
C1309 C 0.51535 0.08834 0.04624 0.0
C1310 C 0.51556 0.07143 0.05241 0.0
C1311 C 0.51293 0.10303 0.05835 0.0
C1312 C 0.51087 0.10139 0.07707 0.0
C1313 C 0.51137 0.08463 0.08337 0.0
C1314 C 0.51349 0.0698 0.07118 0.0
C1315 C 0.50798 0.11712 0.08985 0.0
C1316 C 0.5209 0.12513 0.10528 0.0
C1317 C 0.4931 0.12499 0.08618 0.0
C1318 C 0.47857 0.11689 0.07059 0.0
C1319 C 0.46904 0.09847 0.0691 0.0
C1320 C 0.45553 0.09085 0.05424 0.0
C1321 C 0.45134 0.10154 0.04085 0.0
C1322 C 0.46062 0.11989 0.04231 0.0
C1323 C 0.47416 0.12758 0.05713 0.0
H1324 H 0.44089 0.09561 0.02935 0.0
H1325 H 0.57498 0.17226 0.16989 0.0
H1326 H 0.07807 0.28477 0.31735 0.0
H1327 H 0.10621 0.28102 0.30518 0.0
H1328 H 0.13788 0.32027 0.34996 0.0
H1329 H 0.10989 0.3237 0.36239 0.0
H1330 H 0.15124 0.32593 0.31549 0.0
H1331 H 0.13513 0.27596 0.35107 0.0
H1332 H 0.11485 0.24862 0.35973 0.0
H1333 H 0.11128 0.22085 0.3047 0.0
H1334 H 0.13135 0.24814 0.29564 0.0
H1335 H 0.23924 0.3115 0.30364 0.0
H1336 H 0.21104 0.31565 0.31477 0.0
H1337 H 0.18139 0.26569 0.28101 0.0
H1338 H 0.20981 0.26101 0.27072 0.0
H1339 H 0.16626 0.26572 0.30931 0.0
H1340 H 0.18116 0.31405 0.2725 0.0
H1341 H 0.2003 0.341 0.26192 0.0
H1342 H 0.20457 0.37153 0.31572 0.0
H1343 H 0.1856 0.34468 0.3267 0.0
C1344 C 0.09099 0.29264 0.32463 0.0
C1345 C 0.09145 0.30454 0.34098 0.0
C1346 C 0.10721 0.29045 0.31764 0.0
C1347 C 0.12452 0.3003 0.32654 0.0
C1348 C 0.12494 0.31245 0.34264 0.0
C1349 C 0.10878 0.31437 0.34983 0.0
C1350 C 0.14209 0.29777 0.31936 0.0
C1351 C 0.15457 0.31277 0.31434 0.0
C1352 C 0.14657 0.28059 0.31719 0.0
C1353 C 0.13458 0.26416 0.32263 0.0
C1354 C 0.1299 0.26408 0.34077 0.0
C1355 C 0.11847 0.24858 0.34576 0.0
C1356 C 0.11174 0.23302 0.33275 0.0
C1357 C 0.11648 0.23292 0.31475 0.0
C1358 C 0.12789 0.24839 0.30968 0.0
C1359 C 0.22673 0.3014 0.29844 0.0
C1360 C 0.2271 0.28594 0.28606 0.0
C1361 C 0.21035 0.30387 0.30477 0.0
C1362 C 0.19346 0.29127 0.2986 0.0
C1363 C 0.19388 0.2758 0.28621 0.0
C1364 C 0.21031 0.27315 0.28017 0.0
C1365 C 0.17559 0.2939 0.30527 0.0
C1366 C 0.16302 0.27891 0.31028 0.0
C1367 C 0.17086 0.31105 0.30706 0.0
C1368 C 0.1821 0.32729 0.30048 0.0
C1369 C 0.18626 0.32648 0.28211 0.0
C1370 C 0.19707 0.34174 0.27604 0.0
C1371 C 0.20369 0.35795 0.28816 0.0
C1372 C 0.19945 0.35895 0.30636 0.0
C1373 C 0.18865 0.34373 0.31251 0.0
H1374 H 0.21207 0.36973 0.28343 0.0
H1375 H 0.10289 0.22104 0.33664 0.0
H1376 H 0.94934 0.05168 0.21315 0.0
H1377 H 0.95894 0.05644 0.18249 0.0
H1378 H 0.97268 0.0043 0.17797 0.0
H1379 H 0.96415 0.00012 0.20874 0.0
H1380 H 0.99799 0.02511 0.16713 0.0
H1381 H 0.93365 0.01561 0.15204 0.0
H1382 H 0.90305 0.02078 0.15363 0.0
H1383 H 0.9218 0.07524 0.1406 0.0
H1384 H 0.9526 0.07049 0.13919 0.0
H1385 H 0.99424 0.00792 0.06765 0.0
H1386 H 0.98307 0.00872 0.09791 0.0
H1387 H 0.00668 0.06661 0.10908 0.0
H1388 H 0.01851 0.06587 0.07884 0.0
H1389 H 0.9637 0.04618 0.11634 0.0
H1390 H 0.02921 0.0527 0.13126 0.0
H1391 H 0.05749 0.04335 0.12645 0.0
H1392 H 0.03305 0.98932 0.13752 0.0
H1393 H 0.00443 -0.0018 0.14184 0.0
C1394 C 0.95423 0.04118 0.20547 0.0
C1395 C 0.95603 0.02555 0.21348 0.0
C1396 C 0.95969 0.04386 0.18784 0.0
C1397 C 0.9666 0.03073 0.17758 0.0
C1398 C 0.96769 0.01484 0.18544 0.0
C1399 C 0.96268 0.01239 0.20311 0.0
C1400 C 0.97353 0.03359 0.15916 0.0
C1401 C 0.99029 0.02963 0.15611 0.0
C1402 C 0.9639 0.03975 0.14451 0.0
C1403 C 0.9455 0.04278 0.14577 0.0
C1404 C 0.9313 0.02876 0.14972 0.0
C1405 C 0.91391 0.0316 0.15055 0.0
C1406 C 0.9105 0.04835 0.14729 0.0
C1407 C 0.92447 0.06229 0.14317 0.0
C1408 C 0.9419 0.05953 0.14236 0.0
C1409 C 0.99702 0.0209 0.07643 0.0
C1410 C 0.00734 0.03685 0.07072 0.0
C1411 C 0.99058 0.02131 0.09377 0.0
C1412 C 0.99395 0.03771 0.10578 0.0
C1413 C 1.00384 0.05379 0.10002 0.0
C1414 C 0.01066 0.05333 0.08276 0.0
C1415 C 0.98785 0.03762 0.12465 0.0
C1416 C 0.97132 0.04193 0.12763 0.0
C1417 C 0.9974 0.03138 0.13912 0.0
C1418 C 0.01462 0.02606 0.13664 0.0
C1419 C 0.02979 0.03876 0.13241 0.0
C1420 C 0.04588 0.03354 0.12979 0.0
C1421 C 0.04703 0.01571 0.13156 0.0
C1422 C 0.0321 0.00308 0.13602 0.0
C1423 C 0.01594 0.0082 0.13855 0.0
H1424 H 0.05951 0.0117 0.12956 0.0
H1425 H 0.89701 0.05051 0.1479 0.0
H1426 H 0.27846 0.69231 0.5125 0.0
H1427 H 0.27179 0.70924 0.48737 0.0
H1428 H 0.26624 0.66145 0.44768 0.0
H1429 H 0.27283 0.64418 0.47299 0.0
H1430 H 0.28926 0.69426 0.4391 0.0
H1431 H 0.22949 0.67292 0.45578 0.0
H1432 H 0.20655 0.66735 0.47748 0.0
H1433 H 0.21622 0.72502 0.49419 0.0
H1434 H 0.23946 0.73093 0.47281 0.0
H1435 H 0.2584 0.73509 0.36435 0.0
H1436 H 0.26089 0.7143 0.38722 0.0
H1437 H 0.25762 0.75604 0.43083 0.0
H1438 H 0.2542 0.7766 0.40763 0.0
H1439 H 0.23796 0.72426 0.43632 0.0
H1440 H 0.29849 0.7459 0.42099 0.0
H1441 H 0.32173 0.75196 0.39966 0.0
H1442 H 0.31187 0.69455 0.38149 0.0
H1443 H 0.28822 0.68815 0.40236 0.0
C1444 C 0.27569 0.68531 0.49846 0.0
C1445 C 0.27613 0.66691 0.49466 0.0
C1446 C 0.27184 0.69501 0.48414 0.0
C1447 C 0.26842 0.68653 0.46576 0.0
C1448 C 0.26881 0.66815 0.46185 0.0
C1449 C 0.27249 0.65833 0.47626 0.0
C1450 C 0.26507 0.69726 0.45075 0.0
C1451 C 0.27787 0.70057 0.4382 0.0
C1452 C 0.25049 0.70584 0.45009 0.0
C1453 C 0.23632 0.70236 0.46278 0.0
C1454 C 0.22682 0.68441 0.46418 0.0
C1455 C 0.21375 0.68119 0.47641 0.0
C1456 C 0.20995 0.69582 0.48723 0.0
C1457 C 0.21919 0.7137 0.4858 0.0
C1458 C 0.2323 0.71699 0.47361 0.0
C1459 C 0.25825 0.73976 0.37886 0.0
C1460 C 0.25636 0.75737 0.38444 0.0
C1461 C 0.25973 0.72795 0.39188 0.0
C1462 C 0.25985 0.73376 0.41077 0.0
C1463 C 0.25767 0.75134 0.41633 0.0
C1464 C 0.25581 0.76307 0.40318 0.0
C1465 C 0.26225 0.72145 0.42466 0.0
C1466 C 0.2493 0.71788 0.43706 0.0
C1467 C 0.27681 0.71275 0.42528 0.0
C1468 C 0.29142 0.71656 0.4131 0.0
C1469 C 0.30118 0.73457 0.41235 0.0
C1470 C 0.31441 0.73807 0.40032 0.0
C1471 C 0.3182 0.72365 0.38916 0.0
C1472 C 0.30886 0.7057 0.3901 0.0
C1473 C 0.29553 0.70213 0.40201 0.0
H1474 H 0.32842 0.72637 0.37983 0.0
H1475 H 0.19984 0.6933 0.4967 0.0
H1476 H 0.60083 0.04281 0.72226 0.0
H1477 H 0.58622 0.03661 0.69033 0.0
H1478 H 0.61115 0.99171 0.67988 0.0
H1479 H 0.62638 -0.00185 0.71199 0.0
H1480 H 0.60638 0.03433 0.65643 0.0
H1481 H 0.57048 0.95921 0.65182 0.0
H1482 H 0.55894 0.93635 0.67219 0.0
H1483 H 0.54859 0.97832 0.71078 0.0
H1484 H 0.55979 0.00133 0.69052 0.0
H1485 H 0.56781 0.00505 0.56445 0.0
H1486 H 0.58186 0.00094 0.59449 0.0
H1487 H 0.5355 0.01052 0.61976 0.0
H1488 H 0.52118 0.0147 0.5896 0.0
H1489 H 0.55218 0.98313 0.63502 0.0
H1490 H 0.56789 0.04571 0.62007 0.0
H1491 H 0.57892 0.06825 0.59924 0.0
H1492 H 0.6293 0.05206 0.60028 0.0
H1493 H 0.61845 0.02926 0.62095 0.0
C1494 C 0.60321 0.03157 0.71323 0.0
C1495 C 0.61469 0.02091 0.71963 0.0
C1496 C 0.59491 0.02812 0.69499 0.0
C1497 C 0.59759 0.0137 0.68289 0.0
C1498 C 0.60893 0.00288 0.68914 0.0
C1499 C 0.61761 0.00659 0.70739 0.0
C1500 C 0.58852 0.01038 0.66368 0.0
C1501 C 0.59467 0.02302 0.65167 0.0
C1502 C 0.5732 0.9957 0.6576 0.0
C1503 C 0.56622 0.982 0.66979 0.0
C1504 C 0.56571 0.96353 0.66465 0.0
C1505 C 0.55922 0.95055 0.67617 0.0
C1506 C 0.55311 0.95589 0.69281 0.0
C1507 C 0.55341 0.97421 0.69794 0.0
C1508 C 0.55987 0.98723 0.68646 0.0
C1509 C 0.5604 0.00602 0.5763 0.0
C1510 C 0.54351 0.01062 0.57471 0.0
C1511 C 0.56844 0.00353 0.59343 0.0
C1512 C 0.55979 0.00564 0.6093 0.0
C1513 C 0.54234 0.00882 0.6076 0.0
C1514 C 0.53422 0.01129 0.59039 0.0
C1515 C 0.57002 0.00714 0.62783 0.0
C1516 C 0.5641 0.99423 0.63968 0.0
C1517 C 0.58558 0.02162 0.63384 0.0
C1518 C 0.59232 0.03572 0.62192 0.0
C1519 C 0.58129 0.04693 0.6158 0.0
C1520 C 0.58751 0.05974 0.60402 0.0
C1521 C 0.60479 0.06156 0.59841 0.0
C1522 C 0.61592 0.05063 0.60463 0.0
C1523 C 0.60976 0.03778 0.61639 0.0
H1524 H 0.60956 0.07146 0.58927 0.0
H1525 H 0.5481 0.94583 0.70171 0.0
H1526 H 0.28171 0.32872 0.98868 0.0
H1527 H 0.28459 0.31432 0.95784 0.0
H1528 H 0.29183 0.3664 0.93747 0.0
H1529 H 0.28887 0.38085 0.96826 0.0
H1530 H 0.26342 0.31203 0.92454 0.0
H1531 H 0.32097 0.36749 0.90412 0.0
H1532 H 0.34738 0.39163 0.91935 0.0
H1533 H 0.35223 0.36093 0.96478 0.0
H1534 H 0.32602 0.33649 0.9497 0.0
H1535 H 0.26417 0.30699 0.82838 0.0
H1536 H 0.26622 0.31788 0.86107 0.0
H1537 H 0.31327 0.29663 0.87224 0.0
H1538 H 0.31143 0.2856 0.83896 0.0
H1539 H 0.31685 0.33241 0.8913 0.0
H1540 H 0.27378 0.27383 0.88329 0.0
H1541 H 0.24685 0.25074 0.86742 0.0
H1542 H 0.21312 0.2876 0.87896 0.0
H1543 H 0.23989 0.31098 0.89475 0.0
C1544 C 0.284 0.33714 0.97767 0.0
C1545 C 0.28506 0.35596 0.98098 0.0
C1546 C 0.28559 0.32886 0.96 0.0
C1547 C 0.28854 0.33924 0.94528 0.0
C1548 C 0.28976 0.35809 0.9486 0.0
C1549 C 0.288 0.36634 0.96622 0.0
C1550 C 0.28992 0.33032 0.92637 0.0
C1551 C 0.27516 0.31644 0.91735 0.0
C1552 C 0.30527 0.33591 0.91692 0.0
C1553 C 0.32144 0.35023 0.92583 0.0
C1554 C 0.32775 0.36584 0.91729 0.0
C1555 C 0.34267 0.37959 0.92592 0.0
C1556 C 0.35144 0.37784 0.94305 0.0
C1557 C 0.34539 0.36229 0.95154 0.0
C1558 C 0.33049 0.34849 0.94296 0.0
C1559 C 0.27507 0.30457 0.83763 0.0
C1560 C 0.28767 0.29533 0.83085 0.0
C1561 C 0.27615 0.31081 0.85646 0.0
C1562 C 0.28978 0.30798 0.86924 0.0
C1563 C 0.30259 0.29897 0.86265 0.0
C1564 C 0.30147 0.29258 0.84363 0.0
C1565 C 0.29023 0.31437 0.8894 0.0
C1566 C 0.30524 0.32784 0.89861 0.0
C1567 C 0.27508 0.30846 0.89905 0.0
C1568 C 0.25886 0.29418 0.89015 0.0
C1569 C 0.26063 0.27702 0.88242 0.0
C1570 C 0.24539 0.26388 0.87343 0.0
C1571 C 0.22829 0.26771 0.87216 0.0
C1572 C 0.22637 0.28465 0.87997 0.0
C1573 C 0.24157 0.29783 0.88898 0.0
H1574 H 0.21653 0.25755 0.86514 0.0
H1575 H 0.36295 0.38853 0.94973 0.0
H1576 H 0.98023 0.03158 0.30684 0.0
H1577 H 0.99407 0.02907 0.33775 0.0
H1578 H 0.94086 0.01498 0.35573 0.0
H1579 H 0.92712 0.01837 0.3251 0.0
H1580 H 0.9617 0.03708 0.38166 0.0
H1581 H 0.96928 0.98298 0.34531 0.0
H1582 H 0.97957 0.96609 0.31939 0.0
H1583 H 0.03477 0.99577 0.33735 0.0
H1584 H 0.02477 0.01298 0.36324 0.0
H1585 H 0.98563 0.00941 0.4668 0.0
H1586 H 0.9734 0.00845 0.43451 0.0
H1587 H 0.0279 0.02277 0.41971 0.0
H1588 H 0.04013 0.02255 0.45206 0.0
H1589 H 0.00753 0.00121 0.39208 0.0
H1590 H 1.00044 0.05546 0.42784 0.0
H1591 H 0.99076 0.07261 0.45398 0.0
H1592 H 0.93528 0.04322 0.43712 0.0
H1593 H 0.94466 0.02581 0.41093 0.0
C1594 C 0.97148 0.02787 0.31736 0.0
C1595 C 0.95254 0.02516 0.31343 0.0
C1596 C 0.97941 0.0263 0.33509 0.0
C1597 C 0.9686 0.0215 0.34925 0.0
C1598 C 0.94964 0.0187 0.34522 0.0
C1599 C 0.94174 0.02059 0.32762 0.0
C1600 C 0.97691 0.0199 0.36837 0.0
C1601 C 0.97152 0.02899 0.38384 0.0
C1602 C 0.99023 0.00987 0.37153 0.0
C1603 C 0.99626 -0.00063 0.35611 0.0
C1604 C 0.9836 0.98596 0.34367 0.0
C1605 C 0.98938 0.97632 0.32899 0.0
C1606 C 0.00781 0.97988 0.3267 0.0
C1607 C 0.0205 0.99304 0.33913 0.0
C1608 C 0.01479 0.00272 0.35381 0.0
C1609 C 0.995 0.01199 0.45657 0.0
C1610 C 0.01384 0.01601 0.46196 0.0
C1611 C 0.988 0.01168 0.43809 0.0
C1612 C 0.99965 0.01618 0.42456 0.0
C1613 C 0.01853 0.01939 0.42978 0.0
C1614 C 0.02555 0.0192 0.44828 0.0
C1615 C 0.9921 0.01817 0.40529 0.0
C1616 C 0.99768 0.00925 0.38984 0.0
C1617 C 0.979 0.02844 0.40209 0.0
C1618 C 0.97327 0.03927 0.4175 0.0
C1619 C 0.98618 0.05265 0.42973 0.0
C1620 C 0.98075 0.06241 0.44456 0.0
C1621 C 0.96242 0.05899 0.44724 0.0
C1622 C 0.94947 0.04587 0.43503 0.0
C1623 C 0.95483 0.03608 0.42016 0.0
H1624 H 0.95825 0.06653 0.45876 0.0
H1625 H 0.01226 0.97242 0.31532 0.0
H1626 H 0.29375 0.64931 0.59833 0.0
H1627 H 0.30038 0.66206 0.63111 0.0
H1628 H 0.3326 0.71199 0.61662 0.0
H1629 H 0.32583 0.69949 0.58394 0.0
H1630 H 0.33441 0.69424 0.66109 0.0
H1631 H 0.29982 0.73 0.61469 0.0
H1632 H 0.28115 0.72503 0.5842 0.0
H1633 H 0.25127 0.67305 0.59596 0.0
H1634 H 0.26974 0.67783 0.62654 0.0
H1635 H 0.3164 0.77141 0.71719 0.0
H1636 H 0.32557 0.75208 0.69248 0.0
H1637 H 0.27313 0.71397 0.68715 0.0
H1638 H 0.26395 0.73298 0.71156 0.0
H1639 H 0.28312 0.7241 0.65404 0.0
H1640 H 0.30715 0.70213 0.70758 0.0
H1641 H 0.3255 0.70387 0.73765 0.0
H1642 H 0.37426 0.72434 0.71375 0.0
H1643 H 0.35621 0.72294 0.68355 0.0
C1644 C 0.30309 0.66259 0.60224 0.0
C1645 C 0.30888 0.67368 0.58872 0.0
C1646 C 0.30701 0.66979 0.62099 0.0
C1647 C 0.3168 0.688 0.62616 0.0
C1648 C 0.3251 0.69788 0.61286 0.0
C1649 C 0.32101 0.69082 0.59417 0.0
C1650 C 0.31256 0.69845 0.64255 0.0
C1651 C 0.32327 0.70084 0.6597 0.0
C1652 C 0.29785 0.70673 0.64062 0.0
C1653 C 0.28607 0.70429 0.6228 0.0
C1654 C 0.28914 0.71762 0.61079 0.0
C1655 C 0.27864 0.71481 0.5935 0.0
C1656 C 0.26502 0.69874 0.58816 0.0
C1657 C 0.2618 0.6855 0.60013 0.0
C1658 C 0.27225 0.68827 0.61744 0.0
C1659 C 0.30681 0.75901 0.71054 0.0
C1660 C 0.28944 0.75373 0.71615 0.0
C1661 C 0.31213 0.7479 0.69668 0.0
C1662 C 0.30007 0.73154 0.68824 0.0
C1663 C 0.28265 0.72649 0.69362 0.0
C1664 C 0.27741 0.73742 0.7075 0.0
C1665 C 0.30492 0.72007 0.67292 0.0
C1666 C 0.2943 0.71757 0.65571 0.0
C1667 C 0.31944 0.71144 0.67511 0.0
C1668 C 0.3303 0.71266 0.69334 0.0
C1669 C 0.32177 0.70722 0.70877 0.0
C1670 C 0.33212 0.70807 0.72583 0.0
C1671 C 0.35101 0.71426 0.72762 0.0
C1672 C 0.35962 0.71958 0.71235 0.0
C1673 C 0.34934 0.71875 0.69525 0.0
H1674 H 0.35899 0.71487 0.74083 0.0
H1675 H 0.25699 0.69654 0.57473 0.0
H1676 H 0.62349 0.04107 0.80869 0.0
H1677 H 0.62106 0.05651 0.83885 0.0
H1678 H 0.6752 0.05348 0.85874 0.0
H1679 H 0.67802 0.03832 0.82805 0.0
H1680 H 0.64675 0.04074 0.88191 0.0
H1681 H 0.67346 0.09451 0.85883 0.0
H1682 H 0.68037 0.11629 0.83631 0.0
H1683 H 0.62483 0.12 0.83022 0.0
H1684 H 0.61759 0.09827 0.85279 0.0
H1685 H 0.6008 0.07084 0.95384 0.0
H1686 H 0.62719 0.07356 0.9368 0.0
H1687 H 0.59425 0.07946 0.88751 0.0
H1688 H 0.56811 0.0773 0.90468 0.0
H1689 H 0.62724 0.09879 0.88721 0.0
H1690 H 0.60164 0.03436 0.90082 0.0
H1691 H 0.59513 0.01358 0.92441 0.0
H1692 H 0.6507 0.03159 0.94934 0.0
H1693 H 0.65746 0.05245 0.92584 0.0
C1694 C 0.63498 0.04376 0.81936 0.0
C1695 C 0.65098 0.03853 0.81596 0.0
C1696 C 0.63361 0.05271 0.83657 0.0
C1697 C 0.64808 0.05641 0.85087 0.0
C1698 C 0.664 0.05093 0.84775 0.0
C1699 C 0.66553 0.04221 0.8303 0.0
C1700 C 0.64547 0.0648 0.86926 0.0
C1701 C 0.64309 0.05374 0.88341 0.0
C1702 C 0.64092 0.08182 0.87128 0.0
C1703 C 0.645 0.09475 0.85752 0.0
C1704 C 0.6627 0.09991 0.85264 0.0
C1705 C 0.66669 0.1123 0.83991 0.0
C1706 C 0.65305 0.11953 0.83183 0.0
C1707 C 0.6354 0.11442 0.83652 0.0
C1708 C 0.63136 0.10214 0.84937 0.0
C1709 C 0.59938 0.0731 0.93946 0.0
C1710 C 0.58242 0.07362 0.93044 0.0
C1711 C 0.61446 0.07468 0.92973 0.0
C1712 C 0.6127 0.0764 0.91076 0.0
C1713 C 0.59603 0.0782 0.90215 0.0
C1714 C 0.58104 0.0769 0.91193 0.0
C1715 C 0.62706 0.07398 0.89903 0.0
C1716 C 0.6317 0.08621 0.88617 0.0
C1717 C 0.63387 0.05811 0.89828 0.0
C1718 C 0.63001 0.04492 0.91169 0.0
C1719 C 0.61246 0.03375 0.91128 0.0
C1720 C 0.60873 0.02201 0.92465 0.0
C1721 C 0.6225 0.02127 0.93839 0.0
C1722 C 0.64005 0.03217 0.93869 0.0
C1723 C 0.64386 0.04391 0.92533 0.0
H1724 H 0.61958 0.01229 0.94882 0.0
H1725 H 0.65615 0.12907 0.82191 0.0
H1726 H 0.27485 0.32032 0.07126 0.0
H1727 H 0.27014 0.31263 0.10227 0.0
H1728 H 0.27713 0.36951 0.1224 0.0
H1729 H 0.28163 0.37737 0.09105 0.0
H1730 H 0.2982 0.35067 0.1447 0.0
H1731 H 0.23642 0.34351 0.11897 0.0
H1732 H 0.2096 0.33228 0.09546 0.0
H1733 H 0.21036 0.27694 0.10181 0.0
H1734 H 0.23736 0.28783 0.12517 0.0
H1735 H 0.27951 0.32843 0.23391 0.0
H1736 H 0.27855 0.34124 0.20464 0.0
H1737 H 0.25826 0.28698 0.17487 0.0
H1738 H 0.25829 0.27426 0.20421 0.0
H1739 H 0.24265 0.30767 0.15811 0.0
H1740 H 0.30552 0.3133 0.17998 0.0
H1741 H 0.33335 0.32295 0.20236 0.0
H1742 H 0.33189 0.37906 0.20206 0.0
H1743 H 0.30392 0.3697 0.17983 0.0
C1744 C 0.27526 0.33125 0.0822 0.0
C1745 C 0.27864 0.34951 0.07858 0.0
C1746 C 0.2725 0.32679 0.09997 0.0
C1747 C 0.27322 0.34044 0.11473 0.0
C1748 C 0.27649 0.35871 0.11123 0.0
C1749 C 0.27895 0.36319 0.09328 0.0
C1750 C 0.27111 0.33543 0.1338 0.0
C1751 C 0.28591 0.34157 0.14776 0.0
C1752 C 0.25531 0.3231 0.1377 0.0
C1753 C 0.23901 0.3165 0.12373 0.0
C1754 C 0.23096 0.32894 0.11525 0.0
C1755 C 0.21571 0.32264 0.10197 0.0
C1756 C 0.2083 0.30391 0.09712 0.0
C1757 C 0.21611 0.29144 0.10557 0.0
C1758 C 0.23138 0.29768 0.11885 0.0
C1759 C 0.27468 0.31924 0.22114 0.0
C1760 C 0.26906 0.30028 0.22145 0.0
C1761 C 0.27427 0.32658 0.20432 0.0
C1762 C 0.2688 0.31513 0.18729 0.0
C1763 C 0.26262 0.29623 0.18768 0.0
C1764 C 0.26264 0.28892 0.20453 0.0
C1765 C 0.26989 0.32265 0.16909 0.0
C1766 C 0.2549 0.31694 0.15522 0.0
C1767 C 0.28566 0.33513 0.16516 0.0
C1768 C 0.30254 0.34079 0.1784 0.0
C1769 C 0.31108 0.32768 0.18477 0.0
C1770 C 0.32688 0.3331 0.19742 0.0
C1771 C 0.33435 0.3516 0.20367 0.0
C1772 C 0.32607 0.36473 0.19723 0.0
C1773 C 0.31025 0.35938 0.1846 0.0
H1774 H 0.34658 0.35577 0.21347 0.0
H1775 H 0.19649 0.29905 0.08683 0.0
H1776 H 0.25649 0.96436 0.02615 0.0
H1777 H 0.2375 0.98248 0.04038 0.0
H1778 H 0.19043 0.93737 0.02465 0.0
H1779 H 0.20927 0.91921 0.01029 0.0
H1780 H 0.18389 0.96876 0.01577 0.0
H1781 H 0.2088 0.94741 0.06875 0.0
H1782 H 0.2328 0.94155 0.09058 0.0
H1783 H 0.25593 -0.00082 0.10423 0.0
H1784 H 0.2322 0.00538 0.08224 0.0
H1785 H 0.12214 0.99749 0.06788 0.0
H1786 H 0.14585 0.98101 0.06484 0.0
H1787 H 0.18468 0.03133 0.06112 0.0
H1788 H 0.16085 0.04794 0.06355 0.0
H1789 H 0.19593 0.99793 0.0813 0.0
H1790 H 0.17107 0.01743 0.02395 0.0
H1791 H 0.14493 0.02135 0.00361 0.0
H1792 H 0.11986 0.96409 -0.00026 0.0
H1793 H 0.14574 0.95993 0.02037 0.0
C1794 C 0.2421 0.95831 0.02574 0.0
C1795 C 0.23433 0.9404 0.01708 0.0
C1796 C 0.23131 0.96862 0.03397 0.0
C1797 C 0.21263 0.96117 0.03369 0.0
C1798 C 0.20485 0.94332 0.02502 0.0
C1799 C 0.21562 0.93298 0.01684 0.0
C1800 C 0.20104 0.97225 0.04175 0.0
C1801 C 0.1865 0.97501 0.03012 0.0
C1802 C 0.20452 0.9805 0.06046 0.0
C1803 C 0.21884 0.97685 0.07369 0.0
C1804 C 0.2191 0.95883 0.07627 0.0
C1805 C 0.23264 0.95545 0.0887 0.0
C1806 C 0.24592 0.96998 0.09875 0.0
C1807 C 0.24565 0.98793 0.09641 0.0
C1808 C 0.23216 0.99139 0.08398 0.0
C1809 C 0.13584 0.00512 0.06688 0.0
C1810 C 0.13959 0.0239 0.06548 0.0
C1811 C 0.14937 0.99572 0.06535 0.0
C1812 C 0.16686 0.00501 0.06263 0.0
C1813 C 0.17121 0.02404 0.06333 0.0
C1814 C 0.15759 0.03348 0.06469 0.0
C1815 C 0.1791 0.99446 0.05522 0.0
C1816 C 0.19359 0.99176 0.06693 0.0
C1817 C 0.17551 0.98603 0.03664 0.0
C1818 C 0.16022 0.98842 0.02384 0.0
C1819 C 0.15991 0.00572 0.01888 0.0
C1820 C 0.14515 0.00798 0.00729 0.0
C1821 C 0.13071 0.99299 0.00043 0.0
C1822 C 0.13104 0.9757 0.00509 0.0
C1823 C 0.14575 0.97338 0.01672 0.0
H1824 H 0.11929 0.99477 0.99147 0.0
H1825 H 0.25638 0.96733 0.10837 0.0
H1826 H 0.69607 0.67512 0.99127 0.0
H1827 H 0.66829 0.65169 0.9922 0.0
H1828 H 0.7001 0.61396 0.00642 0.0
H1829 H 0.72804 0.63729 0.00539 0.0
H1830 H 0.67054 0.59699 0.98154 0.0
H1831 H 0.68203 0.63503 0.0397 0.0
H1832 H 0.68883 0.66391 0.06086 0.0
H1833 H 0.6392 0.67517 0.03812 0.0
H1834 H 0.63222 0.64646 0.01663 0.0
H1835 H 0.59595 0.53621 0.01489 0.0
H1836 H 0.62539 0.55668 0.0121 0.0
H1837 H 0.59818 0.59729 0.99561 0.0
H1838 H 0.5689 0.57709 -0.00172 0.0
H1839 H 0.62653 0.61171 0.02293 0.0
H1840 H 0.61574 0.57314 0.96418 0.0
H1841 H 0.60938 0.5438 0.94382 0.0
H1842 H 0.65826 0.53288 0.96901 0.0
H1843 H 0.66478 0.56206 0.98971 0.0
C1844 C 0.69723 0.66181 0.99446 0.0
C1845 C 0.71439 0.65821 -0.00163 0.0
C1846 C 0.68129 0.64842 0.99506 0.0
C1847 C 0.68207 0.63111 -0.00035 0.0
C1848 C 0.69913 0.62722 0.0029 0.0
C1849 C 0.71511 0.64063 0.00235 0.0
C1850 C 0.66509 0.61733 0.00157 0.0
C1851 C 0.66104 0.60012 0.99078 0.0
C1852 C 0.65257 0.6214 0.01351 0.0
C1853 C 0.65669 0.63867 0.02643 0.0
C1854 C 0.67263 0.64373 0.03911 0.0
C1855 C 0.67651 0.66006 0.05118 0.0
C1856 C 0.66448 0.67139 0.0508 0.0
C1857 C 0.64852 0.66639 0.03838 0.0
C1858 C 0.64459 0.65008 0.02626 0.0
C1859 C 0.59623 0.54943 0.0105 0.0
C1860 C 0.57999 0.55494 0.00681 0.0
C1861 C 0.61307 0.56111 0.00889 0.0
C1862 C 0.61402 0.57855 0.00362 0.0
C1863 C 0.59783 0.58395 -0.00026 0.0
C1864 C 0.58105 0.57229 0.00121 0.0
C1865 C 0.6318 0.5915 0.00265 0.0
C1866 C 0.63605 0.60856 0.01371 0.0
C1867 C 0.64453 0.5872 0.99109 0.0
C1868 C 0.64064 0.56968 0.97864 0.0
C1869 C 0.62505 0.5644 0.96549 0.0
C1870 C 0.62143 0.54782 0.95387 0.0
C1871 C 0.63338 0.53645 0.95516 0.0
C1872 C 0.649 0.54168 0.96805 0.0
C1873 C 0.65267 0.55824 0.97972 0.0
H1874 H 0.63056 0.52362 0.94614 0.0
H1875 H 0.6675 0.68403 0.06017 0.0
H1876 H 0.68123 0.51097 0.27645 0.0
H1877 H 0.69751 0.4871 0.27263 0.0
H1878 H 0.64655 0.44642 0.26049 0.0
H1879 H 0.63011 0.47043 0.26543 0.0
H1880 H 0.66814 0.43347 0.28087 0.0
H1881 H 0.67591 0.46173 0.22592 0.0
H1882 H 0.6837 0.48711 0.20739 0.0
H1883 H 0.73866 0.50114 0.23404 0.0
H1884 H 0.73116 0.47598 0.25289 0.0
H1885 H 0.71311 0.36494 0.24919 0.0
H1886 H 0.69398 0.38665 0.25088 0.0
H1887 H 0.74143 0.43062 0.26951 0.0
H1888 H 0.76071 0.40914 0.26715 0.0
H1889 H 0.71988 0.44031 0.2437 0.0
H1890 H 0.71079 0.4119 0.29942 0.0
H1891 H 0.70234 0.38581 0.31691 0.0
H1892 H 0.64875 0.37096 0.28683 0.0
H1893 H 0.65696 0.39685 0.269 0.0
C1894 C 0.67343 0.49696 0.27281 0.0
C1895 C 0.65433 0.49265 0.27105 0.0
C1896 C 0.6828 0.48326 0.27051 0.0
C1897 C 0.67338 0.46484 0.26576 0.0
C1898 C 0.65424 0.46047 0.26403 0.0
C1899 C 0.64482 0.47422 0.26677 0.0
C1900 C 0.6836 0.45027 0.26312 0.0
C1901 C 0.67924 0.43487 0.27246 0.0
C1902 C 0.69833 0.45201 0.25237 0.0
C1903 C 0.70293 0.46704 0.24091 0.0
C1904 C 0.68964 0.47029 0.22789 0.0
C1905 C 0.694 0.48463 0.21733 0.0
C1906 C 0.71165 0.49575 0.21956 0.0
C1907 C 0.72499 0.49252 0.23233 0.0
C1908 C 0.7207 0.4782 0.24294 0.0
C1909 C 0.71954 0.37924 0.25352 0.0
C1910 C 0.73855 0.38519 0.25804 0.0
C1911 C 0.70851 0.39165 0.25468 0.0
C1912 C 0.71617 0.41033 0.26053 0.0
C1913 C 0.73512 0.4163 0.26501 0.0
C1914 C 0.74615 0.40393 0.26382 0.0
C1915 C 0.70459 0.42375 0.26167 0.0
C1916 C 0.7087 0.43891 0.25201 0.0
C1917 C 0.68952 0.42166 0.27192 0.0
C1918 C 0.68455 0.4062 0.28276 0.0
C1919 C 0.69724 0.403 0.29645 0.0
C1920 C 0.69249 0.38826 0.30644 0.0
C1921 C 0.67503 0.37671 0.30295 0.0
C1922 C 0.66227 0.37991 0.2895 0.0
C1923 C 0.66696 0.39462 0.27947 0.0
H1924 H 0.67138 0.3653 0.31069 0.0
H1925 H 0.715 0.50685 0.21138 0.0
H1926 H 0.83514 0.39854 0.476 0.0
H1927 H 0.86595 0.41825 0.48068 0.0
H1928 H 0.84727 0.46007 0.51223 0.0
H1929 H 0.81645 0.44076 0.50717 0.0
H1930 H 0.87001 0.47523 0.49103 0.0
H1931 H 0.86962 0.43139 0.53336 0.0
H1932 H 0.86469 0.40063 0.54292 0.0
H1933 H 0.90385 0.38801 0.50844 0.0
H1934 H 0.9088 0.41859 0.49842 0.0
H1935 H 0.96974 0.50008 0.54125 0.0
H1936 H 0.93795 0.48313 0.53812 0.0
H1937 H 0.93174 0.4906 0.4804 0.0
H1938 H 0.9634 0.50776 0.48342 0.0
H1939 H 0.92117 0.45183 0.51732 0.0
H1940 H 0.88878 0.4938 0.46769 0.0
H1941 H 0.89316 0.52576 0.46166 0.0
H1942 H 0.91876 0.54445 0.51744 0.0
H1943 H 0.91429 0.51263 0.52388 0.0
C1944 C 0.83758 0.41197 0.48384 0.0
C1945 C 0.82334 0.41803 0.49128 0.0
C1946 C 0.85521 0.42319 0.48658 0.0
C1947 C 0.85897 0.44053 0.49707 0.0
C1948 C 0.8447 0.44676 0.5041 0.0
C1949 C 0.82706 0.43566 0.5012 0.0
C1950 C 0.8778 0.45212 0.50099 0.0
C1951 C 0.8812 0.4701 0.49675 0.0
C1952 C 0.89233 0.4456 0.50893 0.0
C1953 C 0.88945 0.42723 0.51501 0.0
C1954 C 0.87709 0.42201 0.52771 0.0
C1955 C 0.8743 0.40462 0.53323 0.0
C1956 C 0.88393 0.39237 0.52627 0.0
C1957 C 0.89639 0.39751 0.5138 0.0
C1958 C 0.89919 0.41487 0.50821 0.0
C1959 C 0.96158 0.49827 0.52792 0.0
C1960 C 0.96912 0.5053 0.51258 0.0
C1961 C 0.94343 0.48851 0.52615 0.0
C1962 C 0.93246 0.48569 0.50906 0.0
C1963 C 0.93989 0.49283 0.49378 0.0
C1964 C 0.95803 0.5026 0.49553 0.0
C1965 C 0.9134 0.47479 0.50701 0.0
C1966 C 0.90997 0.45694 0.5116 0.0
C1967 C 0.89877 0.48161 0.4999 0.0
C1968 C 0.90136 0.50081 0.49619 0.0
C1969 C 0.89528 0.50473 0.47868 0.0
C1970 C 0.89779 0.52283 0.47519 0.0
C1971 C 0.90629 0.53712 0.48913 0.0
C1972 C 0.91224 0.53336 0.50662 0.0
C1973 C 0.90975 0.5153 0.51019 0.0
H1974 H 0.90822 0.55112 0.4864 0.0
H1975 H 0.88175 0.37892 0.53056 0.0
H1976 H 0.34775 0.0468 0.27295 0.0
H1977 H 0.3304 0.06695 0.26025 0.0
H1978 H 0.37958 0.10985 0.2651 0.0
H1979 H 0.3969 0.08993 0.27825 0.0
H1980 H 0.35416 0.12246 0.27909 0.0
H1981 H 0.35796 0.08682 0.2226 0.0
H1982 H 0.35522 0.05875 0.20114 0.0
H1983 H 0.29763 0.0439 0.20316 0.0
H1984 H 0.30004 0.07175 0.22487 0.0
H1985 H 0.31711 0.18367 0.23251 0.0
H1986 H 0.33431 0.1606 0.23606 0.0
H1987 H 0.28521 0.12137 0.24266 0.0
H1988 H 0.26789 0.14452 0.2395 0.0
H1989 H 0.31068 0.10691 0.22144 0.0
H1990 H 0.30858 0.14356 0.27939 0.0
H1991 H 0.31272 0.17263 0.29974 0.0
H1992 H 0.36958 0.18629 0.2937 0.0
H1993 H 0.36568 0.15758 0.2729 0.0
C1994 C 0.35487 0.06048 0.27117 0.0
C1995 C 0.37365 0.06684 0.27668 0.0
C1996 C 0.34497 0.07194 0.26379 0.0
C1997 C 0.35372 0.08986 0.26156 0.0
C1998 C 0.37255 0.09608 0.26671 0.0
C1999 C 0.38242 0.08468 0.27422 0.0
C2000 C 0.34311 0.10253 0.25509 0.0
C2001 C 0.34489 0.11915 0.26632 0.0
C2002 C 0.33074 0.09806 0.2386 0.0
C2003 C 0.32921 0.0813 0.22552 0.0
C2004 C 0.34472 0.07749 0.2186 0.0
C2005 C 0.34323 0.06163 0.20636 0.0
C2006 C 0.32627 0.04953 0.20082 0.0
C2007 C 0.31076 0.05328 0.20748 0.0
C2008 C 0.31218 0.06911 0.21974 0.0
C2009 C 0.30992 0.17008 0.23452 0.0
C2010 C 0.29121 0.16598 0.23608 0.0
C2011 C 0.31975 0.15691 0.2364 0.0
C2012 C 0.31102 0.13942 0.23984 0.0
C2013 C 0.29213 0.13483 0.23999 0.0
C2014 C 0.28227 0.14805 0.23817 0.0
C2015 C 0.32192 0.12673 0.24541 0.0
C2016 C 0.32008 0.11015 0.23412 0.0
C2017 C 0.33446 0.13129 0.26173 0.0
C2018 C 0.33678 0.14852 0.27438 0.0
C2019 C 0.32192 0.15286 0.28223 0.0
C2020 C 0.32422 0.16929 0.29385 0.0
C2021 C 0.34137 0.18137 0.29791 0.0
C2022 C 0.35627 0.177 0.29046 0.0
C2023 C 0.35402 0.16067 0.27873 0.0
H2024 H 0.34312 0.1941 0.30684 0.0
H2025 H 0.32514 0.03726 0.19134 0.0
H2026 H 0.29993 0.13357 0.5278 0.0
H2027 H 0.32434 0.11796 0.53171 0.0
H2028 H 0.36266 0.16517 0.51909 0.0
H2029 H 0.33812 0.18083 0.51487 0.0
H2030 H 0.36735 0.13484 0.50036 0.0
H2031 H 0.36252 0.15391 0.56355 0.0
H2032 H 0.34704 0.15779 0.59129 0.0
H2033 H 0.32936 0.09962 0.58919 0.0
H2034 H 0.34452 0.09538 0.56127 0.0
H2035 H 0.44362 0.09845 0.52471 0.0
H2036 H 0.42229 0.11802 0.52418 0.0
H2037 H 0.37956 0.07326 0.53436 0.0
H2038 H 0.40067 0.05354 0.53463 0.0
H2039 H 0.37896 0.10456 0.55554 0.0
H2040 H 0.38262 0.08577 0.49145 0.0
H2041 H 0.39853 0.08195 0.46409 0.0
H2042 H 0.41859 0.14006 0.46798 0.0
H2043 H 0.40313 0.14421 0.49572 0.0
C2044 C 0.31358 0.14075 0.52605 0.0
C2045 C 0.31705 0.1585 0.52108 0.0
C2046 C 0.32758 0.1318 0.52836 0.0
C2047 C 0.34546 0.1404 0.52589 0.0
C2048 C 0.34901 0.15822 0.52111 0.0
C2049 C 0.33498 0.16721 0.5188 0.0
C2050 C 0.36019 0.13047 0.52761 0.0
C2051 C 0.37011 0.12852 0.51258 0.0
C2052 C 0.36362 0.12186 0.54338 0.0
C2053 C 0.35454 0.12434 0.56022 0.0
C2054 C 0.35522 0.14194 0.56892 0.0
C2055 C 0.34652 0.14421 0.58469 0.0
C2056 C 0.33719 0.12896 0.59197 0.0
C2057 C 0.33658 0.11141 0.58353 0.0
C2058 C 0.34524 0.10908 0.56774 0.0
C2059 C 0.42966 0.09269 0.52669 0.0
C2060 C 0.42394 0.07433 0.52968 0.0
C2061 C 0.41747 0.10395 0.52645 0.0
C2062 C 0.39923 0.09713 0.52911 0.0
C2063 C 0.39355 0.07891 0.53236 0.0
C2064 C 0.40571 0.06764 0.53257 0.0
C2065 C 0.38596 0.1088 0.52823 0.0
C2066 C 0.3763 0.11104 0.5434 0.0
C2067 C 0.38281 0.11771 0.51262 0.0
C2068 C 0.3919 0.11528 0.4958 0.0
C2069 C 0.39055 0.09773 0.48657 0.0
C2070 C 0.39947 0.09551 0.47097 0.0
C2071 C 0.40959 0.11075 0.46428 0.0
C2072 C 0.41077 0.12826 0.47318 0.0
C2073 C 0.40194 0.13056 0.48887 0.0
H2074 H 0.4165 0.109 0.4522 0.0
H2075 H 0.33046 0.13074 0.60418 0.0
H2076 H 0.67565 0.57808 0.28997 0.0
H2077 H 0.69858 0.6066 0.28998 0.0
H2078 H 0.65839 0.63715 0.29896 0.0
H2079 H 0.63539 0.60878 0.29898 0.0
H2080 H 0.67752 0.64764 0.27053 0.0
H2081 H 0.69115 0.6367 0.33351 0.0
H2082 H 0.69913 0.61877 0.35781 0.0
H2083 H 0.74861 0.61654 0.33512 0.0
H2084 H 0.7408 0.63426 0.31052 0.0
H2085 H 0.728 0.73732 0.28963 0.0
H2086 H 0.7095 0.7075 0.2933 0.0
H2087 H 0.75546 0.68416 0.28769 0.0
H2088 H 0.77441 0.71447 0.28454 0.0
H2089 H 0.73525 0.66855 0.31292 0.0
H2090 H 0.7228 0.67979 0.25073 0.0
H2091 H 0.71539 0.69739 0.2259 0.0
H2092 H 0.66427 0.69796 0.24576 0.0
H2093 H 0.67149 0.68058 0.27088 0.0
C2094 C 0.67169 0.59086 0.29212 0.0
C2095 C 0.65359 0.59105 0.29444 0.0
C2096 C 0.68487 0.60719 0.29218 0.0
C2097 C 0.68026 0.62407 0.29452 0.0
C2098 C 0.66229 0.62431 0.2971 0.0
C2099 C 0.64914 0.60803 0.29717 0.0
C2100 C 0.69387 0.64146 0.29347 0.0
C2101 C 0.69004 0.65229 0.27996 0.0
C2102 C 0.71056 0.64724 0.30526 0.0
C2103 C 0.71529 0.63663 0.32006 0.0
C2104 C 0.70365 0.63225 0.33361 0.0
C2105 C 0.70817 0.62216 0.34745 0.0
C2106 C 0.72434 0.61648 0.34797 0.0
C2107 C 0.73607 0.62093 0.33468 0.0
C2108 C 0.73162 0.63101 0.32079 0.0
C2109 C 0.73428 0.7259 0.2893 0.0
C2110 C 0.75264 0.72823 0.28651 0.0
C2111 C 0.72363 0.70879 0.29135 0.0
C2112 C 0.73088 0.6934 0.29026 0.0
C2113 C 0.74948 0.69579 0.28842 0.0
C2114 C 0.76031 0.7131 0.28662 0.0
C2115 C 0.71867 0.67491 0.29026 0.0
C2116 C 0.72278 0.66384 0.30345 0.0
C2117 C 0.70226 0.66874 0.27802 0.0
C2118 C 0.69775 0.67899 0.26277 0.0
C2119 C 0.71002 0.68375 0.24987 0.0
C2120 C 0.70585 0.69368 0.23573 0.0
C2121 C 0.68938 0.69882 0.23427 0.0
C2122 C 0.67703 0.69398 0.24691 0.0
C2123 C 0.68114 0.68407 0.26109 0.0
H2124 H 0.68619 0.70652 0.22333 0.0
H2125 H 0.72781 0.60866 0.3587 0.0
H2126 H 0.90396 0.47823 0.83243 0.0
H2127 H 0.88471 0.44696 0.8277 0.0
H2128 H 0.85934 0.4572 0.77588 0.0
H2129 H 0.87788 0.48841 0.78095 0.0
H2130 H 0.83466 0.43956 0.79242 0.0
H2131 H 0.8936 0.43257 0.77925 0.0
H2132 H 0.92661 0.43594 0.7861 0.0
H2133 H 0.91776 0.40539 0.83194 0.0
H2134 H 0.88471 0.40204 0.82551 0.0
H2135 H 0.82364 0.33605 0.75841 0.0
H2136 H 0.84158 0.36763 0.76466 0.0
H2137 H 0.8063 0.37969 0.80452 0.0
H2138 H 0.78797 0.34828 0.79792 0.0
H2139 H 0.86118 0.38601 0.79474 0.0
H2140 H 0.80457 0.42381 0.8067 0.0
H2141 H 0.77213 0.42041 0.796 0.0
H2142 H 0.77738 0.38923 0.74517 0.0
H2143 H 0.80988 0.39266 0.75545 0.0
C2144 C 0.89431 0.47369 0.82004 0.0
C2145 C 0.89243 0.48565 0.80703 0.0
C2146 C 0.88333 0.45587 0.81732 0.0
C2147 C 0.87068 0.44965 0.80131 0.0
C2148 C 0.86887 0.46167 0.78838 0.0
C2149 C 0.87952 0.47951 0.79128 0.0
C2150 C 0.8593 0.43064 0.79775 0.0
C2151 C 0.84048 0.42786 0.79299 0.0
C2152 C 0.86687 0.41534 0.79821 0.0
C2153 C 0.88672 0.41723 0.80202 0.0
C2154 C 0.89872 0.42668 0.79086 0.0
C2155 C 0.91742 0.42857 0.79466 0.0
C2156 C 0.92428 0.42093 0.80948 0.0
C2157 C 0.91244 0.41133 0.82049 0.0
C2158 C 0.89371 0.40942 0.81677 0.0
C2159 C 0.81958 0.34548 0.76835 0.0
C2160 C 0.80435 0.3397 0.77762 0.0
C2161 C 0.8299 0.36349 0.77198 0.0
C2162 C 0.82526 0.37603 0.78501 0.0
C2163 C 0.80997 0.37033 0.79419 0.0
C2164 C 0.79951 0.35237 0.7904 0.0
C2165 C 0.83662 0.39499 0.7892 0.0
C2166 C 0.85539 0.39773 0.79422 0.0
C2167 C 0.8291 0.41027 0.78838 0.0
C2168 C 0.80961 0.40833 0.78195 0.0
C2169 C 0.79881 0.41629 0.79321 0.0
C2170 C 0.78041 0.41435 0.78722 0.0
C2171 C 0.77269 0.40455 0.76994 0.0
C2172 C 0.78336 0.39675 0.75858 0.0
C2173 C 0.80177 0.39867 0.76449 0.0
H2174 H 0.75844 0.40305 0.76534 0.0
H2175 H 0.93877 0.42242 0.8124 0.0
H2176 H 0.04783 0.83109 0.06464 0.0
H2177 H 0.0443 0.85875 0.05181 0.0
H2178 H 0.05972 0.88957 0.10629 0.0
H2179 H 0.06218 0.86169 0.11919 0.0
H2180 H 0.03628 0.90306 0.09256 0.0
H2181 H 0.08765 0.89111 0.06534 0.0
H2182 H 0.10517 0.87339 0.04755 0.0
H2183 H 0.06656 0.86706 -0.00085 0.0
H2184 H 0.04869 0.88458 0.01672 0.0
H2185 H 0.05414 0.99184 0.06205 0.0
H2186 H 0.05758 0.96343 0.07324 0.0
H2187 H 0.02808 0.93274 0.02225 0.0
H2188 H 0.02434 0.96122 0.01104 0.0
H2189 H 0.05813 0.9193 0.0334 0.0
H2190 H 0.00838 0.93422 0.06213 0.0
H2191 H 0.99331 0.95384 0.08087 0.0
H2192 H 0.03218 0.95633 0.12815 0.0
H2193 H 0.04776 0.93714 0.10958 0.0
C2194 C 0.05065 0.84378 0.07391 0.0
C2195 C 0.05546 0.84389 0.09306 0.0
C2196 C 0.04873 0.85985 0.06648 0.0
C2197 C 0.05202 0.87692 0.07778 0.0
C2198 C 0.05697 0.87696 0.09692 0.0
C2199 C 0.05854 0.86084 0.10438 0.0
C2200 C 0.04992 0.8945 0.06997 0.0
C2201 C 0.0414 0.90657 0.07975 0.0
C2202 C 0.05608 0.89956 0.05298 0.0
C2203 C 0.06673 0.88898 0.0424 0.0
C2204 C 0.08283 0.88583 0.05094 0.0
C2205 C 0.09283 0.87584 0.04089 0.0
C2206 C 0.08695 0.86906 0.02225 0.0
C2207 C 0.07108 0.87229 0.0136 0.0
C2208 C 0.06101 0.88226 0.02359 0.0
C2209 C 0.04836 0.97911 0.05309 0.0
C2210 C 0.03888 0.97916 0.0355 0.0
C2211 C 0.0503 0.96268 0.05962 0.0
C2212 C 0.04301 0.94552 0.04882 0.0
C2213 C 0.0339 0.94555 0.03107 0.0
C2214 C 0.03171 0.962 0.02462 0.0
C2215 C 0.04473 0.92774 0.05613 0.0
C2216 C 0.05311 0.91569 0.04623 0.0
C2217 C 0.03879 0.92288 0.0732 0.0
C2218 C 0.02937 0.93439 0.08439 0.0
C2219 C 0.01383 0.93911 0.07647 0.0
C2220 C 0.00519 0.95016 0.08707 0.0
C2221 C 0.01183 0.95641 0.10566 0.0
C2222 C 0.0271 0.95158 0.11372 0.0
C2223 C 0.03585 0.94062 0.10316 0.0
H2224 H 0.00511 0.96495 0.11385 0.0
H2225 H 0.09472 0.86133 0.0145 0.0
H2226 H 0.93161 0.27512 0.93151 0.0
H2227 H 0.90565 0.27597 0.90984 0.0
H2228 H 0.93395 0.26283 0.86395 0.0
H2229 H 0.96037 0.26226 0.88575 0.0
H2230 H 0.91722 0.28843 0.85602 0.0
H2231 H 0.89768 0.23107 0.87789 0.0
H2232 H 0.89148 0.20953 0.90078 0.0
H2233 H 0.85395 0.23798 0.92268 0.0
H2234 H 0.86012 0.25987 0.90008 0.0
H2235 H 0.83782 0.26813 0.78912 0.0
H2236 H 0.86408 0.26573 0.80981 0.0
H2237 H 0.8402 0.2844 0.85697 0.0
H2238 H 0.81386 0.28697 0.83628 0.0
H2239 H 0.85468 0.25511 0.86341 0.0
H2240 H 0.87496 0.31276 0.84145 0.0
H2241 H 0.88088 0.3336 0.81787 0.0
H2242 H 0.91681 0.30346 0.79533 0.0
H2243 H 0.9109 0.28227 0.81862 0.0
C2244 C 0.93241 0.27226 0.91682 0.0
C2245 C 0.94827 0.26849 0.91055 0.0
C2246 C 0.91737 0.27268 0.90435 0.0
C2247 C 0.91747 0.2692 0.88507 0.0
C2248 C 0.93332 0.26551 0.87869 0.0
C2249 C 0.94846 0.2651 0.89123 0.0
C2250 C 0.90121 0.26978 0.87179 0.0
C2251 C 0.90361 0.28086 0.85751 0.0
C2252 C 0.8832 0.2603 0.87373 0.0
C2253 C 0.87951 0.24722 0.8874 0.0
C2254 C 0.88822 0.23283 0.88769 0.0
C2255 C 0.88469 0.22054 0.9006 0.0
C2256 C 0.87237 0.22241 0.91321 0.0
C2257 C 0.86352 0.23656 0.91292 0.0
C2258 C 0.86702 0.24891 0.90005 0.0
C2259 C 0.83807 0.27172 0.80389 0.0
C2260 C 0.82358 0.2778 0.81091 0.0
C2261 C 0.85323 0.27042 0.81576 0.0
C2262 C 0.85438 0.27501 0.83508 0.0
C2263 C 0.83979 0.28078 0.84217 0.0
C2264 C 0.8247 0.28231 0.83027 0.0
C2265 C 0.87073 0.27379 0.84778 0.0
C2266 C 0.86832 0.2626 0.86193 0.0
C2267 C 0.88872 0.28307 0.84565 0.0
C2268 C 0.89233 0.29581 0.83166 0.0
C2269 C 0.88401 0.31048 0.83136 0.0
C2270 C 0.88738 0.32237 0.81807 0.0
C2271 C 0.89917 0.31982 0.80508 0.0
C2272 C 0.90765 0.3054 0.80538 0.0
C2273 C 0.9043 0.29345 0.81864 0.0
H2274 H 0.90177 0.32905 0.7948 0.0
H2275 H 0.86964 0.21288 0.92318 0.0
H2276 H 0.57799 0.24391 0.56896 0.0
H2277 H 0.57352 0.2112 0.56115 0.0
H2278 H 0.52817 0.20177 0.59287 0.0
H2279 H 0.53313 0.23498 0.60146 0.0
H2280 H 0.54484 0.1763 0.59767 0.0
H2281 H 0.5244 0.19678 0.54194 0.0
H2282 H 0.52589 0.21568 0.51647 0.0
H2283 H 0.57232 0.19788 0.50032 0.0
H2284 H 0.57125 0.17904 0.52585 0.0
H2285 H 0.51288 0.08247 0.55657 0.0
H2286 H 0.51651 0.11505 0.5661 0.0
H2287 H 0.56578 0.12718 0.54052 0.0
H2288 H 0.5622 0.09446 0.53084 0.0
H2289 H 0.54579 0.1509 0.53253 0.0
H2290 H 0.56551 0.13013 0.58893 0.0
H2291 H 0.56264 0.11064 0.61392 0.0
H2292 H 0.51557 0.12839 0.6281 0.0
H2293 H 0.51801 0.1478 0.60302 0.0
C2294 C 0.56694 0.23502 0.57432 0.0
C2295 C 0.55581 0.24248 0.58577 0.0
C2296 C 0.5643 0.21605 0.56966 0.0
C2297 C 0.55012 0.20351 0.57582 0.0
C2298 C 0.53916 0.21085 0.58764 0.0
C2299 C 0.54198 0.22999 0.59257 0.0
C2300 C 0.54702 0.18299 0.56996 0.0
C2301 C 0.54477 0.17083 0.58334 0.0
C2302 C 0.54717 0.17535 0.55132 0.0
C2303 C 0.54784 0.18662 0.53592 0.0
C2304 C 0.535 0.19699 0.53303 0.0
C2305 C 0.53576 0.20768 0.51857 0.0
C2306 C 0.54922 0.20802 0.50681 0.0
C2307 C 0.56192 0.19762 0.50946 0.0
C2308 C 0.56123 0.18692 0.52391 0.0
C2309 C 0.5246 0.09196 0.55298 0.0
C2310 C 0.53727 0.08545 0.54289 0.0
C2311 C 0.52671 0.11078 0.55858 0.0
C2312 C 0.54157 0.12397 0.55433 0.0
C2313 C 0.55418 0.11755 0.54413 0.0
C2314 C 0.55214 0.09867 0.53862 0.0
C2315 C 0.54378 0.14431 0.56024 0.0
C2316 C 0.54584 0.15641 0.54685 0.0
C2317 C 0.54325 0.15183 0.57881 0.0
C2318 C 0.54184 0.14029 0.59398 0.0
C2319 C 0.55447 0.12978 0.59729 0.0
C2320 C 0.55293 0.11876 0.61149 0.0
C2321 C 0.5389 0.11825 0.62256 0.0
C2322 C 0.52641 0.12879 0.6195 0.0
C2323 C 0.52788 0.13981 0.6053 0.0
H2324 H 0.53773 0.1097 0.63354 0.0
H2325 H 0.54978 0.21631 0.49563 0.0
H2326 H 0.52908 0.7521 0.37756 0.0
H2327 H 0.55547 0.75436 0.36048 0.0
H2328 H 0.59043 0.78406 0.40918 0.0
H2329 H 0.56403 0.78193 0.42631 0.0
H2330 H 0.59906 0.80028 0.37933 0.0
H2331 H 0.58941 0.73909 0.39394 0.0
H2332 H 0.57192 0.70768 0.39526 0.0
H2333 H 0.56147 0.69825 0.33585 0.0
H2334 H 0.57869 0.72971 0.33418 0.0
H2335 H 0.68289 0.79755 0.34516 0.0
H2336 H 0.65717 0.79367 0.36317 0.0
H2337 H 0.622 0.76183 0.31559 0.0
H2338 H 0.64773 0.76559 0.29749 0.0
H2339 H 0.61362 0.74655 0.34524 0.0
H2340 H 0.62254 0.80771 0.33048 0.0
H2341 H 0.63978 0.83916 0.32891 0.0
H2342 H 0.65122 0.84872 0.38826 0.0
H2343 H 0.63424 0.81723 0.39017 0.0
C2344 C 0.54239 0.75899 0.38471 0.0
C2345 C 0.54435 0.76676 0.40339 0.0
C2346 C 0.55754 0.76024 0.37491 0.0
C2347 C 0.57512 0.76927 0.38348 0.0
C2348 C 0.5771 0.77701 0.40215 0.0
C2349 C 0.56196 0.7757 0.412 0.0
C2350 C 0.59132 0.77102 0.37289 0.0
C2351 C 0.60236 0.78847 0.37212 0.0
C2352 C 0.59554 0.75574 0.363 0.0
C2353 C 0.58519 0.73682 0.36395 0.0
C2354 C 0.58326 0.73037 0.38116 0.0
C2355 C 0.57342 0.71255 0.38197 0.0
C2356 C 0.56555 0.70099 0.36565 0.0
C2357 C 0.56755 0.70723 0.34848 0.0
C2358 C 0.57736 0.72505 0.34759 0.0
C2359 C 0.66968 0.78982 0.33842 0.0
C2360 C 0.66752 0.78201 0.31972 0.0
C2361 C 0.65489 0.7876 0.3488 0.0
C2362 C 0.63739 0.77768 0.34078 0.0
C2363 C 0.63526 0.76956 0.32222 0.0
C2364 C 0.65008 0.7717 0.31185 0.0
C2365 C 0.62137 0.77583 0.35166 0.0
C2366 C 0.61034 0.75836 0.35247 0.0
C2367 C 0.61711 0.7911 0.36155 0.0
C2368 C 0.62727 0.81005 0.36045 0.0
C2369 C 0.62884 0.81648 0.34319 0.0
C2370 C 0.63855 0.83432 0.34224 0.0
C2371 C 0.64663 0.84592 0.35847 0.0
C2372 C 0.64497 0.83971 0.3757 0.0
C2373 C 0.6353 0.82187 0.37672 0.0
H2374 H 0.65414 0.85972 0.35771 0.0
H2375 H 0.55794 0.6872 0.3663 0.0
H2376 H 0.03017 0.24585 0.36799 0.0
H2377 H 0.02881 0.21666 0.38036 0.0
H2378 H 0.05656 0.246 0.43276 0.0
H2379 H 0.05775 0.27488 0.42059 0.0
H2380 H 0.06861 0.21542 0.42375 0.0
H2381 H 0.0108 0.23123 0.42617 0.0
H2382 H 0.9829 0.23851 0.41261 0.0
H2383 H 0.96812 0.18677 0.37795 0.0
H2384 H 0.99609 0.17929 0.39115 0.0
H2385 H 0.04615 0.15656 0.491 0.0
H2386 H 0.04998 0.18137 0.47201 0.0
H2387 H 0.01592 0.14514 0.42628 0.0
H2388 H 0.01193 0.12017 0.44533 0.0
H2389 H 0.00742 0.17675 0.42804 0.0
H2390 H 0.06341 0.15931 0.42754 0.0
H2391 H 0.09131 0.15176 0.44068 0.0
H2392 H 0.10985 0.20577 0.47057 0.0
H2393 H 0.08193 0.21357 0.45781 0.0
C2394 C 0.0364 0.246 0.38195 0.0
C2395 C 0.04415 0.2627 0.39326 0.0
C2396 C 0.03546 0.22932 0.38912 0.0
C2397 C 0.04241 0.22904 0.40764 0.0
C2398 C 0.05108 0.24572 0.41848 0.0
C2399 C 0.05177 0.26227 0.41147 0.0
C2400 C 0.03988 0.21171 0.41634 0.0
C2401 C 0.05522 0.20701 0.42473 0.0
C2402 C 0.02247 0.20036 0.41733 0.0
C2403 C 0.00563 0.2048 0.40947 0.0
C2404 C 1.00167 0.22147 0.41555 0.0
C2405 C 0.98584 0.22563 0.40795 0.0
C2406 C 0.97378 0.21314 0.39438 0.0
C2407 C 0.9775 0.19645 0.38843 0.0
C2408 C 0.99333 0.19224 0.39596 0.0
C2409 C 0.03962 0.15373 0.47684 0.0
C2410 C 0.02883 0.13617 0.46976 0.0
C2411 C 0.04183 0.16802 0.46592 0.0
C2412 C 0.03353 0.16522 0.44747 0.0
C2413 C 0.02254 0.14778 0.44041 0.0
C2414 C 0.02023 0.13346 0.45138 0.0
C2415 C 0.03616 0.18057 0.43575 0.0
C2416 C 0.02085 0.18494 0.42684 0.0
C2417 C 0.05363 0.19156 0.43418 0.0
C2418 C 0.0705 0.18697 0.44182 0.0
C2419 C 0.07338 0.16954 0.43701 0.0
C2420 C 0.08921 0.16522 0.44438 0.0
C2421 C 0.10233 0.17826 0.45649 0.0
C2422 C 0.09967 0.19567 0.4612 0.0
C2423 C 0.08385 0.20006 0.45389 0.0
H2424 H 0.11457 0.17489 0.46218 0.0
H2425 H 0.96152 0.21638 0.38851 0.0
H2426 H 0.58073 0.29246 0.19632 0.0
H2427 H 0.61156 0.29364 0.21019 0.0
H2428 H 0.59744 0.23509 0.20818 0.0
H2429 H 0.56622 0.23411 0.19508 0.0
H2430 H 0.6213 0.24794 0.23723 0.0
H2431 H 0.62124 0.25961 0.17405 0.0
H2432 H 0.61481 0.27529 0.14726 0.0
H2433 H 0.64796 0.326 0.17614 0.0
H2434 H 0.6544 0.31067 0.20321 0.0
H2435 H 0.71536 0.24214 0.24354 0.0
H2436 H 0.6829 0.23902 0.23364 0.0
H2437 H 0.69257 0.29748 0.23693 0.0
H2438 H 0.72473 0.30065 0.24656 0.0
H2439 H 0.6708 0.28324 0.20672 0.0
H2440 H 0.67064 0.27141 0.27001 0.0
H2441 H 0.67681 0.25564 0.2968 0.0
H2442 H 0.64436 0.20488 0.26732 0.0
H2443 H 0.63816 0.22032 0.24026 0.0
C2444 C 0.58399 0.27989 0.19945 0.0
C2445 C 0.57072 0.26325 0.19498 0.0
C2446 C 0.60185 0.2805 0.20709 0.0
C2447 C 0.6074 0.2644 0.20988 0.0
C2448 C 0.59387 0.24781 0.20622 0.0
C2449 C 0.57585 0.24724 0.19885 0.0
C2450 C 0.62729 0.26487 0.2157 0.0
C2451 C 0.63203 0.25548 0.23032 0.0
C2452 C 0.64174 0.27484 0.20709 0.0
C2453 C 0.63817 0.28402 0.19071 0.0
C2454 C 0.6271 0.27412 0.17471 0.0
C2455 C 0.62345 0.28295 0.15948 0.0
C2456 C 0.63093 0.30164 0.16001 0.0
C2457 C 0.64215 0.31153 0.17576 0.0
C2458 C 0.64583 0.30278 0.19104 0.0
C2459 C 0.7106 0.25435 0.24219 0.0
C2460 C 0.723 0.27166 0.24597 0.0
C2461 C 0.69188 0.25256 0.23659 0.0
C2462 C 0.68486 0.26802 0.23457 0.0
C2463 C 0.69729 0.28524 0.23825 0.0
C2464 C 0.71589 0.28703 0.24388 0.0
C2465 C 0.66484 0.2665 0.22838 0.0
C2466 C 0.66006 0.27567 0.21362 0.0
C2467 C 0.65042 0.25628 0.23681 0.0
C2468 C 0.6541 0.24698 0.25305 0.0
C2469 C 0.66493 0.25686 0.26919 0.0
C2470 C 0.66841 0.24798 0.28443 0.0
C2471 C 0.66103 0.22925 0.28374 0.0
C2472 C 0.6501 0.21937 0.26782 0.0
C2473 C 0.64658 0.22818 0.25254 0.0
H2474 H 0.66374 0.22241 0.29555 0.0
H2475 H 0.62806 0.30845 0.14822 0.0
H2476 H 0.53048 0.83999 0.90972 0.0
H2477 H 0.52751 0.86825 0.92689 0.0
H2478 H 0.55064 0.89849 0.8847 0.0
H2479 H 0.55341 0.86991 0.86711 0.0
H2480 H 0.56548 0.91513 0.92193 0.0
H2481 H 0.50705 0.89178 0.88598 0.0
H2482 H 0.47919 0.86799 0.87392 0.0
H2483 H 0.46574 0.86399 0.92929 0.0
H2484 H 0.4937 0.88753 0.94172 0.0
H2485 H 0.51058 0.98539 0.95589 0.0
H2486 H 0.51344 0.95901 0.93505 0.0
H2487 H 0.55013 0.94639 0.97736 0.0
H2488 H 0.54738 0.97273 -0.00175 0.0
H2489 H 0.50529 0.92248 0.93709 0.0
H2490 H 0.58181 0.92744 0.95578 0.0
H2491 H 0.60975 0.95087 0.96849 0.0
H2492 H 0.58686 0.99224 0.94728 0.0
H2493 H 0.5591 0.96902 0.93383 0.0
C2494 C 0.53487 0.85258 0.90394 0.0
C2495 C 0.54211 0.85254 0.88689 0.0
C2496 C 0.53315 0.86882 0.91384 0.0
C2497 C 0.53877 0.88564 0.90717 0.0
C2498 C 0.54619 0.88575 0.89022 0.0
C2499 C 0.54768 0.86937 0.8801 0.0
C2500 C 0.53674 0.9029 0.91798 0.0
C2501 C 0.55231 0.91674 0.92518 0.0
C2502 C 0.51958 0.90521 0.92225 0.0
C2503 C 0.50255 0.89133 0.91479 0.0
C2504 C 0.49821 0.88575 0.8956 0.0
C2505 C 0.4824 0.87231 0.88869 0.0
C2506 C 0.47072 0.86446 0.90083 0.0
C2507 C 0.4748 0.87008 0.9199 0.0
C2508 C 0.49063 0.88348 0.92688 0.0
C2509 C 0.5193 0.97705 0.96081 0.0
C2510 C 0.52878 0.98137 0.97886 0.0
C2511 C 0.52086 0.96185 0.94884 0.0
C2512 C 0.53212 0.95062 0.95444 0.0
C2513 C 0.54151 0.95485 0.9725 0.0
C2514 C 0.53987 0.96997 0.98451 0.0
C2515 C 0.53409 0.93461 0.94142 0.0
C2516 C 0.51848 0.92095 0.93381 0.0
C2517 C 0.55124 0.93248 0.93681 0.0
C2518 C 0.56827 0.94648 0.94397 0.0
C2519 C 0.58282 0.94151 0.95364 0.0
C2520 C 0.59865 0.95476 0.96095 0.0
C2521 C 0.60009 0.97304 0.95869 0.0
C2522 C 0.58578 0.97808 0.94895 0.0
C2523 C 0.57 0.96487 0.94146 0.0
H2524 H 0.6123 0.98329 0.9645 0.0
H2525 H 0.4585 0.85404 0.89546 0.0
H2526 H 0.97476 0.75992 0.728 0.0
H2527 H 0.94659 0.76262 0.74036 0.0
H2528 H 0.91696 0.74451 0.68579 0.0
H2529 H 0.94533 0.74309 0.67334 0.0
H2530 H 0.90177 0.76682 0.69822 0.0
H2531 H 0.91605 0.71821 0.72824 0.0
H2532 H 0.93438 0.70234 0.74711 0.0
H2533 H 0.93878 0.74295 0.79398 0.0
H2534 H 0.92063 0.75917 0.77533 0.0
H2535 H 0.81372 0.74234 0.73468 0.0
H2536 H 0.8424 0.73879 0.72365 0.0
H2537 H 0.87205 0.78478 0.76283 0.0
H2538 H 0.84341 0.78884 0.77342 0.0
H2539 H 0.88632 0.74798 0.75873 0.0
H2540 H 0.8706 0.79574 0.72596 0.0
H2541 H 0.84962 0.80808 0.7062 0.0
H2542 H 0.84532 0.76393 0.66287 0.0
H2543 H 0.86608 0.75116 0.68253 0.0
C2544 C 0.96222 0.75629 0.71864 0.0
C2545 C 0.96257 0.75109 0.69959 0.0
C2546 C 0.94585 0.75774 0.72579 0.0
C2547 C 0.92895 0.75345 0.71432 0.0
C2548 C 0.9294 0.74803 0.69529 0.0
C2549 C 0.94581 0.74705 0.68809 0.0
C2550 C 0.91107 0.75507 0.7218 0.0
C2551 C 0.89852 0.76238 0.71137 0.0
C2552 C 0.90616 0.74963 0.73911 0.0
C2553 C 0.91716 0.74 0.75033 0.0
C2554 C 0.92104 0.72382 0.74254 0.0
C2555 C 0.93138 0.71475 0.7532 0.0
C2556 C 0.93779 0.72167 0.77171 0.0
C2557 C 0.93383 0.73764 0.77962 0.0
C2558 C 0.92351 0.74676 0.76902 0.0
C2559 C 0.82632 0.75168 0.74108 0.0
C2560 C 0.82597 0.7659 0.75508 0.0
C2561 C 0.84283 0.74964 0.73468 0.0
C2562 C 0.85969 0.76146 0.74232 0.0
C2563 C 0.85943 0.77537 0.75661 0.0
C2564 C 0.8429 0.77771 0.76268 0.0
C2565 C 0.87743 0.75964 0.73512 0.0
C2566 C 0.8898 0.75231 0.74559 0.0
C2567 C 0.88198 0.76461 0.71769 0.0
C2568 C 0.86971 0.77238 0.7058 0.0
C2569 C 0.86504 0.78856 0.71229 0.0
C2570 C 0.85322 0.79566 0.7011 0.0
C2571 C 0.84609 0.78677 0.68332 0.0
C2572 C 0.85083 0.77079 0.67667 0.0
C2573 C 0.86263 0.76362 0.68782 0.0
H2574 H 0.83693 0.79228 0.67468 0.0
H2575 H 0.94578 0.71462 0.77995 0.0
H2576 H 0.13941 0.02769 0.84611 0.0
H2577 H 0.12764 0.02683 0.87612 0.0
H2578 H 0.07633 0.03295 0.85095 0.0
H2579 H 0.08811 0.03394 0.82089 0.0
H2580 H 0.08576 0.05388 0.88398 0.0
H2581 H 0.08225 0.99122 0.86188 0.0
H2582 H 0.09391 0.96513 0.85001 0.0
H2583 H 0.13187 0.97404 0.89933 0.0
H2584 H 0.12059 0.00037 0.91139 0.0
H2585 H 0.0299 0.02511 0.95271 0.0
H2586 H 0.04396 0.02624 0.92408 0.0
H2587 H 0.09499 0.02485 0.95396 0.0
H2588 H 0.081 0.02392 0.98293 0.0
H2589 H 0.08708 0.00205 0.91956 0.0
H2590 H 0.08984 0.06371 0.94236 0.0
H2591 H 0.07812 0.08962 0.95458 0.0
H2592 H 0.04209 0.08289 0.90415 0.0
H2593 H 0.05324 0.05662 0.89182 0.0
C2594 C 0.12564 0.02893 0.84694 0.0
C2595 C 0.11473 0.03084 0.83097 0.0
C2596 C 0.11885 0.02832 0.86416 0.0
C2597 C 0.10094 0.02957 0.86595 0.0
C2598 C 0.09016 0.0319 0.85008 0.0
C2599 C 0.09692 0.03244 0.83283 0.0
C2600 C 0.09341 0.02837 0.88424 0.0
C2601 C 0.08587 0.04241 0.89159 0.0
C2602 C 0.09391 0.0137 0.89465 0.0
C2603 C 0.10071 0.99789 0.88744 0.0
C2604 C 0.09319 0.98771 0.87013 0.0
C2605 C 0.09971 0.97286 0.86338 0.0
C2606 C 0.11366 0.96796 0.87389 0.0
C2607 C 0.12109 0.97788 0.89119 0.0
C2608 C 0.11463 0.99275 0.89799 0.0
C2609 C 0.0441 0.0249 0.95329 0.0
C2610 C 0.05426 0.02443 0.9703 0.0
C2611 C 0.05216 0.02564 0.93681 0.0
C2612 C 0.07063 0.0258 0.93674 0.0
C2613 C 0.08073 0.02477 0.95357 0.0
C2614 C 0.07271 0.02427 0.97017 0.0
C2615 C 0.0793 0.02746 0.91914 0.0
C2616 C 0.08703 0.01353 0.91195 0.0
C2617 C 0.07902 0.04225 0.90888 0.0
C2618 C 0.07224 0.05805 0.91624 0.0
C2619 C 0.07927 0.06761 0.93395 0.0
C2620 C 0.07273 0.08238 0.9409 0.0
C2621 C 0.05931 0.08786 0.9302 0.0
C2622 C 0.05242 0.07859 0.91249 0.0
C2623 C 0.05884 0.06375 0.90551 0.0
H2624 H 0.05433 0.09933 0.93561 0.0
H2625 H 0.11869 0.95646 0.86864 0.0
H2626 H 0.77643 0.40535 0.55493 0.0
H2627 H 0.7793 0.39816 0.58681 0.0
H2628 H 0.75897 0.34085 0.56671 0.0
H2629 H 0.7562 0.34785 0.53495 0.0
H2630 H 0.74757 0.35209 0.60155 0.0
H2631 H 0.80252 0.35774 0.56957 0.0
H2632 H 0.82642 0.37543 0.55359 0.0
H2633 H 0.84175 0.4168 0.60091 0.0
H2634 H 0.81776 0.39944 0.61706 0.0
H2635 H 0.78446 0.29421 0.65181 0.0
H2636 H 0.77539 0.3119 0.62834 0.0
H2637 H 0.80981 0.36127 0.65947 0.0
H2638 H 0.8197 0.34349 0.68262 0.0
H2639 H 0.8129 0.3612 0.62431 0.0
H2640 H 0.76365 0.35138 0.65957 0.0
H2641 H 0.7396 0.33455 0.67594 0.0
H2642 H 0.71283 0.30298 0.62448 0.0
H2643 H 0.7369 0.31931 0.60786 0.0
C2644 C 0.77214 0.39127 0.55737 0.0
C2645 C 0.76644 0.37711 0.5425 0.0
C2646 C 0.77376 0.38721 0.57555 0.0
C2647 C 0.76949 0.36898 0.57898 0.0
C2648 C 0.7623 0.355 0.56428 0.0
C2649 C 0.7609 0.35901 0.54615 0.0
C2650 C 0.77507 0.36401 0.59717 0.0
C2651 C 0.76181 0.35411 0.60669 0.0
C2652 C 0.79365 0.3672 0.60402 0.0
C2653 C 0.80824 0.37743 0.59442 0.0
C2654 C 0.81092 0.37066 0.57651 0.0
C2655 C 0.82449 0.38062 0.56743 0.0
C2656 C 0.83555 0.39726 0.57621 0.0
C2657 C 0.83314 0.40393 0.59411 0.0
C2658 C 0.81957 0.39405 0.60323 0.0
C2659 C 0.79042 0.30877 0.65349 0.0
C2660 C 0.8028 0.31746 0.66908 0.0
C2661 C 0.78495 0.31892 0.64024 0.0
C2662 C 0.79153 0.33796 0.64247 0.0
C2663 C 0.80438 0.34662 0.65765 0.0
C2664 C 0.80998 0.33645 0.67086 0.0
C2665 C 0.7854 0.34862 0.62849 0.0
C2666 C 0.7986 0.35957 0.61969 0.0
C2667 C 0.76673 0.34654 0.62249 0.0
C2668 C 0.75219 0.33655 0.63245 0.0
C2669 C 0.75273 0.34074 0.65175 0.0
C2670 C 0.73907 0.33129 0.66109 0.0
C2671 C 0.7247 0.3177 0.65127 0.0
C2672 C 0.72397 0.31351 0.63209 0.0
C2673 C 0.73762 0.32287 0.6227 0.0
H2674 H 0.71413 0.31045 0.65852 0.0
H2675 H 0.84602 0.40498 0.56916 0.0
H2676 H 0.39728 0.03377 0.35835 0.0
H2677 H 0.41329 0.03126 0.38835 0.0
H2678 H 0.46428 0.05727 0.37053 0.0
H2679 H 0.44847 0.05907 0.34049 0.0
H2680 H 0.46711 0.02751 0.38365 0.0
H2681 H 0.44279 0.07911 0.4044 0.0
H2682 H 0.41773 0.09419 0.4082 0.0
H2683 H 0.39235 0.05229 0.43899 0.0
H2684 H 0.41725 0.03696 0.43534 0.0
H2685 H 0.52873 0.05755 0.46495 0.0
H2686 H 0.50619 0.05835 0.43899 0.0
H2687 H 0.46701 0.01611 0.45853 0.0
H2688 H 0.48999 0.01442 0.48372 0.0
H2689 H 0.45492 0.05021 0.4462 0.0
H2690 H 0.48062 4e-05 0.42738 0.0
H2691 H 0.50575 0.98514 0.42356 0.0
H2692 H 0.52829 0.02431 0.38855 0.0
H2693 H 0.50345 0.03967 0.39248 0.0
C2694 C 0.41185 0.03923 0.36106 0.0
C2695 C 0.4217 0.04657 0.3472 0.0
C2696 C 0.42099 0.03781 0.37816 0.0
C2697 C 0.44 0.04408 0.38168 0.0
C2698 C 0.44964 0.05219 0.36807 0.0
C2699 C 0.4406 0.0533 0.35096 0.0
C2700 C 0.45024 0.04131 0.39896 0.0
C2701 C 0.46449 0.03262 0.39729 0.0
C2702 C 0.44643 0.04734 0.41681 0.0
C2703 C 0.43176 0.05682 0.41945 0.0
C2704 C 0.43183 0.0731 0.41193 0.0
C2705 C 0.41767 0.08169 0.41407 0.0
C2706 C 0.40341 0.07414 0.42374 0.0
C2707 C 0.40337 0.05808 0.43145 0.0
C2708 C 0.41753 0.04948 0.42941 0.0
C2709 C 0.51525 0.04858 0.46376 0.0
C2710 C 0.51073 0.03645 0.47671 0.0
C2711 C 0.50241 0.04911 0.44906 0.0
C2712 C 0.48491 0.03752 0.44714 0.0
C2713 C 0.48032 0.02547 0.46013 0.0
C2714 C 0.49329 0.02474 0.47466 0.0
C2715 C 0.47206 0.0371 0.43066 0.0
C2716 C 0.45734 0.04502 0.43251 0.0
C2717 C 0.4754 0.03039 0.41292 0.0
C2718 C 0.49028 0.02112 0.41039 0.0
C2719 C 0.49103 0.00559 0.41903 0.0
C2720 C 0.5052 0.99703 0.4168 0.0
C2721 C 0.51863 0.00379 0.40584 0.0
C2722 C 0.51789 0.0191 0.39705 0.0
C2723 C 0.50376 0.02773 0.39927 0.0
H2724 H 0.52958 0.99714 0.40413 0.0
H2725 H 0.39244 0.08079 0.42535 0.0
H2726 H 0.77984 0.69237 0.0701 0.0
H2727 H 0.78075 0.70263 0.10325 0.0
H2728 H 0.75764 0.747 0.08984 0.0
H2729 H 0.75702 0.73719 0.05701 0.0
H2730 H 0.78341 0.75918 0.11737 0.0
H2731 H 0.73211 0.70741 0.10406 0.0
H2732 H 0.71617 0.67541 0.09275 0.0
H2733 H 0.75062 0.65706 0.13254 0.0
H2734 H 0.76693 0.68896 0.14393 0.0
H2735 H 0.75806 0.78326 0.20715 0.0
H2736 H 0.75655 0.77294 0.17386 0.0
H2737 H 0.78208 0.73 0.18671 0.0
H2738 H 0.78351 0.74002 0.21964 0.0
H2739 H 0.7548 0.71711 0.15948 0.0
H2740 H 0.80597 0.76948 0.17272 0.0
H2741 H 0.82197 0.80163 0.18323 0.0
H2742 H 0.78707 0.81903 0.14309 0.0
H2743 H 0.77069 0.78701 0.13252 0.0
C2744 C 0.77504 0.70436 0.0742 0.0
C2745 C 0.76832 0.71386 0.06071 0.0
C2746 C 0.77546 0.71017 0.09321 0.0
C2747 C 0.76905 0.72552 0.09918 0.0
C2748 C 0.76267 0.73515 0.08573 0.0
C2749 C 0.76229 0.72942 0.06683 0.0
C2750 C 0.76886 0.73167 0.11933 0.0
C2751 C 0.77694 0.75 0.12649 0.0
C2752 C 0.7607 0.71973 0.13146 0.0
C2753 C 0.75086 0.70056 0.12471 0.0
C2754 C 0.73637 0.69654 0.11031 0.0
C2755 C 0.72725 0.67843 0.1039 0.0
C2756 C 0.73241 0.66421 0.11189 0.0
C2757 C 0.74666 0.66809 0.12635 0.0
C2758 C 0.75584 0.68618 0.13279 0.0
C2759 C 0.76323 0.77155 0.20288 0.0
C2760 C 0.77097 0.76258 0.21619 0.0
C2761 C 0.76246 0.76571 0.18381 0.0
C2762 C 0.76938 0.75074 0.17767 0.0
C2763 C 0.77666 0.74155 0.19098 0.0
C2764 C 0.77752 0.74741 0.2099 0.0
C2765 C 0.76931 0.74463 0.15748 0.0
C2766 C 0.76122 0.7263 0.15033 0.0
C2767 C 0.77737 0.75659 0.14533 0.0
C2768 C 0.78698 0.77586 0.15196 0.0
C2769 C 0.80158 0.78017 0.16627 0.0
C2770 C 0.81074 0.79837 0.17221 0.0
C2771 C 0.80551 0.81235 0.16384 0.0
C2772 C 0.79109 0.80818 0.14956 0.0
C2773 C 0.78186 0.79002 0.14359 0.0
H2774 H 0.81269 0.82641 0.16832 0.0
H2775 H 0.72534 0.6502 0.10691 0.0
H2776 H 0.12407 0.02631 0.72144 0.0
H2777 H 0.11477 0.0262 0.68823 0.0
H2778 H 0.06499 0.03946 0.70113 0.0
H2779 H 0.07409 0.03978 0.73393 0.0
H2780 H 0.0865 0.00726 0.66292 0.0
H2781 H 0.05314 0.06832 0.67345 0.0
H2782 H 0.05694 0.09644 0.69521 0.0
H2783 H 0.11316 0.09768 0.70962 0.0
H2784 H 0.10977 0.06973 0.68776 0.0
H2785 H 0.02975 0.00732 0.58098 0.0
H2786 H 0.04197 0.0083 0.61322 0.0
H2787 H 0.07816 0.06073 0.61118 0.0
H2788 H 0.0652 0.06018 0.579 0.0
H2789 H 0.06793 0.06143 0.64322 0.0
H2790 H 0.09075 0.01736 0.60725 0.0
H2791 H 0.08851 0.99008 0.58479 0.0
H2792 H 0.05805 0.95632 0.62015 0.0
H2793 H 0.05964 0.98343 0.64255 0.0
C2794 C 0.11109 0.02908 0.71719 0.0
C2795 C 0.09998 0.03322 0.73058 0.0
C2796 C 0.10577 0.02901 0.69815 0.0
C2797 C 0.08929 0.03318 0.69205 0.0
C2798 C 0.07795 0.03662 0.70535 0.0
C2799 C 0.08321 0.03671 0.72424 0.0
C2800 C 0.08383 0.03427 0.67195 0.0
C2801 C 0.08249 0.01912 0.65861 0.0
C2802 C 0.07891 0.04986 0.66607 0.0
C2803 C 0.08114 0.06683 0.67907 0.0
C2804 C 0.06633 0.07464 0.68119 0.0
C2805 C 0.06841 0.09054 0.69356 0.0
C2806 C 0.08527 0.09881 0.70383 0.0
C2807 C 0.1001 0.09123 0.70171 0.0
C2808 C 0.0981 0.07535 0.68934 0.0
C2809 C 0.04019 0.01918 0.58742 0.0
C2810 C 0.0465 0.03366 0.5773 0.0
C2811 C 0.04735 0.01964 0.6059 0.0
C2812 C 0.06149 0.03432 0.61472 0.0
C2813 C 0.06739 0.04913 0.60482 0.0
C2814 C 0.05993 0.04884 0.58638 0.0
C2815 C 0.07003 0.03418 0.63415 0.0
C2816 C 0.07199 0.04955 0.64742 0.0
C2817 C 0.07582 0.01888 0.63985 0.0
C2818 C 0.07519 0.00249 0.62653 0.0
C2819 C 0.08347 0.00414 0.61018 0.0
C2820 C 0.08228 0.9887 0.59743 0.0
C2821 C 0.07305 0.97148 0.60098 0.0
C2822 C 0.06509 0.96967 0.61734 0.0
C2823 C 0.06613 0.98507 0.63007 0.0
H2824 H 0.07212 0.95955 0.59108 0.0
H2825 H 0.08684 0.11111 0.71341 0.0
H2826 H 0.77336 0.36273 0.45648 0.0
H2827 H 0.77208 0.34586 0.42606 0.0
H2828 H 0.74595 0.38354 0.40105 0.0
H2829 H 0.7476 0.40103 0.43186 0.0
H2830 H 0.72881 0.34272 0.39129 0.0
H2831 H 0.78367 0.38802 0.39143 0.0
H2832 H 0.81361 0.40792 0.40434 0.0
H2833 H 0.8348 0.36087 0.40981 0.0
H2834 H 0.80488 0.34066 0.39722 0.0
H2835 H 0.74574 0.31101 0.29954 0.0
H2836 H 0.74057 0.32736 0.32842 0.0
H2837 H 0.77121 0.29706 0.35972 0.0
H2838 H 0.77607 0.28033 0.3307 0.0
H2839 H 0.78492 0.3361 0.36489 0.0
H2840 H 0.72944 0.29088 0.36523 0.0
H2841 H 0.69943 0.27127 0.3521 0.0
H2842 H 0.67933 0.31869 0.34493 0.0
H2843 H 0.70933 0.33861 0.35777 0.0
C2844 C 0.76745 0.36758 0.44457 0.0
C2845 C 0.76057 0.38319 0.44649 0.0
C2846 C 0.76674 0.35791 0.4272 0.0
C2847 C 0.75891 0.3635 0.41145 0.0
C2848 C 0.75203 0.3791 0.41318 0.0
C2849 C 0.75308 0.38908 0.43066 0.0
C2850 C 0.75789 0.35253 0.39338 0.0
C2851 C 0.74099 0.34152 0.3852 0.0
C2852 C 0.7739 0.35074 0.38592 0.0
C2853 C 0.79196 0.36281 0.39354 0.0
C2854 C 0.79465 0.3819 0.39557 0.0
C2855 C 0.81164 0.39324 0.40279 0.0
C2856 C 0.82609 0.38566 0.40794 0.0
C2857 C 0.82359 0.36672 0.40584 0.0
C2858 C 0.80662 0.35531 0.39864 0.0
C2859 C 0.75079 0.30742 0.31264 0.0
C2860 C 0.76126 0.2945 0.31311 0.0
C2861 C 0.74783 0.31673 0.32906 0.0
C2862 C 0.75557 0.31341 0.34609 0.0
C2863 C 0.7651 0.29969 0.34662 0.0
C2864 C 0.76777 0.2901 0.33015 0.0
C2865 C 0.75586 0.32602 0.36292 0.0
C2866 C 0.77269 0.33738 0.37084 0.0
C2867 C 0.73977 0.32818 0.37 0.0
C2868 C 0.72171 0.31624 0.36227 0.0
C2869 C 0.71869 0.29714 0.36068 0.0
C2870 C 0.70166 0.28596 0.35333 0.0
C2871 C 0.6875 0.29372 0.34763 0.0
C2872 C 0.69033 0.31269 0.34932 0.0
C2873 C 0.70734 0.32393 0.35665 0.0
H2874 H 0.67433 0.28504 0.34195 0.0
H2875 H 0.83923 0.39446 0.41352 0.0
H2876 H 0.45637 0.03372 0.25692 0.0
H2877 H 0.46172 0.02591 0.22509 0.0
H2878 H 0.4039 0.00668 0.20869 0.0
H2879 H 0.39843 0.0151 0.24055 0.0
H2880 H 0.45491 0.99399 0.20613 0.0
H2881 H 0.39498 0.0096 0.16215 0.0
H2882 H 0.37445 0.03033 0.16404 0.0
H2883 H 0.41541 0.07004 0.20093 0.0
H2884 H 0.43624 0.04965 0.19908 0.0
H2885 H 0.46756 0.96453 0.11516 0.0
H2886 H 0.45017 0.96762 0.14142 0.0
H2887 H 0.46047 0.02567 0.13945 0.0
H2888 H 0.47696 0.02244 0.11282 0.0
H2889 H 0.42891 0.01496 0.15007 0.0
H2890 H 0.48891 0.00555 0.16727 0.0
H2891 H 0.51272 0.98846 0.16633 0.0
H2892 H 0.47733 0.94301 0.185 0.0
H2893 H 0.45323 0.95976 0.18581 0.0
C2894 C 0.44478 0.02803 0.2465 0.0
C2895 C 0.427 0.02497 0.25121 0.0
C2896 C 0.44785 0.02351 0.22833 0.0
C2897 C 0.43322 0.01563 0.21452 0.0
C2898 C 0.41539 0.01292 0.21907 0.0
C2899 C 0.41229 0.01774 0.23727 0.0
C2900 C 0.43695 0.0097 0.19563 0.0
C2901 C 0.44912 -0.0015 0.19386 0.0
C2902 C 0.42937 0.01552 0.17962 0.0
C2903 C 0.41706 0.028 0.18065 0.0
C2904 C 0.39961 0.02278 0.17062 0.0
C2905 C 0.38792 0.03446 0.17169 0.0
C2906 C 0.3936 0.05146 0.18266 0.0
C2907 C 0.411 0.05684 0.19251 0.0
C2908 C 0.42274 0.04521 0.19147 0.0
C2909 C 0.46577 0.97784 0.12021 0.0
C2910 C 0.47369 0.99328 0.11219 0.0
C2911 C 0.45586 0.97962 0.13515 0.0
C2912 C 0.45433 0.99694 0.14265 0.0
C2913 C 0.46141 0.01216 0.13392 0.0
C2914 C 0.47091 0.01033 0.11876 0.0
C2915 C 0.44734 -0.00022 0.1607 0.0
C2916 C 0.43444 0.01022 0.16231 0.0
C2917 C 0.45472 0.99381 0.17674 0.0
C2918 C 0.46923 0.9838 0.17639 0.0
C2919 C 0.48619 0.99187 0.17107 0.0
C2920 C 0.49973 0.98225 0.17057 0.0
C2921 C 0.49652 0.96464 0.17555 0.0
C2922 C 0.47978 0.95663 0.1811 0.0
C2923 C 0.46618 0.96618 0.18159 0.0
H2924 H 0.50702 0.95721 0.17515 0.0
H2925 H 0.38453 0.06048 0.18347 0.0
H2926 H 0.7625 0.7204 0.96943 0.0
H2927 H 0.7635 0.73182 0.93937 0.0
H2928 H 0.78703 0.68827 0.91895 0.0
H2929 H 0.78511 0.67632 0.94864 0.0
H2930 H 0.78781 0.7458 0.92082 0.0
H2931 H 0.77858 0.67742 0.8729 0.0
H2932 H 0.76294 0.64491 0.87145 0.0
H2933 H 0.72417 0.65944 0.90538 0.0
H2934 H 0.73943 0.69203 0.90684 0.0
H2935 H 0.80745 0.7686 0.8315 0.0
H2936 H 0.80719 0.75625 0.86117 0.0
H2937 H 0.75181 0.72543 0.84452 0.0
H2938 H 0.75238 0.7369 0.81471 0.0
H2939 H 0.76671 0.70521 0.86128 0.0
H2940 H 0.76575 0.76768 0.87682 0.0
H2941 H 0.77639 0.80109 0.87832 0.0
H2942 H 0.82673 0.79987 0.90928 0.0
H2943 H 0.81647 0.76641 0.90776 0.0
C2944 C 0.7677 0.71315 0.95845 0.0
C2945 C 0.77355 0.69733 0.96141 0.0
C2946 C 0.76838 0.71976 0.94124 0.0
C2947 C 0.77514 0.71088 0.92657 0.0
C2948 C 0.78127 0.69521 0.92969 0.0
C2949 C 0.78024 0.68839 0.94677 0.0
C2950 C 0.77594 0.71811 0.90819 0.0
C2951 C 0.78317 0.73686 0.90783 0.0
C2952 C 0.76964 0.70671 0.89105 0.0
C2953 C 0.76028 0.68715 0.89014 0.0
C2954 C 0.76669 0.67367 0.88 0.0
C2955 C 0.75789 0.65524 0.87919 0.0
C2956 C 0.74261 0.65011 0.88837 0.0
C2957 C 0.73605 0.66342 0.89833 0.0
C2958 C 0.74478 0.68188 0.89918 0.0
C2959 C 0.79526 0.75912 0.83415 0.0
C2960 C 0.77996 0.75377 0.82063 0.0
C2961 C 0.79505 0.75214 0.85123 0.0
C2962 C 0.77935 0.74003 0.85544 0.0
C2963 C 0.76416 0.73463 0.84181 0.0
C2964 C 0.76449 0.74128 0.82467 0.0
C2965 C 0.77855 0.73292 0.87388 0.0
C2966 C 0.77138 0.71415 0.87426 0.0
C2967 C 0.78422 0.74443 0.89104 0.0
C2968 C 0.79042 0.76454 0.89201 0.0
C2969 C 0.77914 0.77453 0.88384 0.0
C2970 C 0.7851 0.79347 0.8847 0.0
C2971 C 0.80225 0.80259 0.89384 0.0
C2972 C 0.81346 0.79279 0.90218 0.0
C2973 C 0.80758 0.77384 0.90133 0.0
H2974 H 0.80683 0.81726 0.8945 0.0
H2975 H 0.73583 0.63583 0.88773 0.0
H2976 H 0.83822 0.14078 0.03808 0.0
H2977 H 0.86052 0.12235 0.03874 0.0
H2978 H 0.81793 0.07418 0.0404 0.0
H2979 H 0.79553 0.09257 0.04002 0.0
H2980 H 0.85142 0.07386 0.06077 0.0
H2981 H 0.82802 0.08349 -2e-05 0.0
H2982 H 0.82035 0.10234 0.97644 0.0
H2983 H 0.87649 0.13091 0.98031 0.0
H2984 H 0.88445 0.11242 0.00412 0.0
H2985 H 0.89732 0.01072 0.01622 0.0
H2986 H 0.87436 0.02743 0.02394 0.0
H2987 H 0.91345 0.07847 0.02339 0.0
H2988 H 0.93625 0.06198 0.01574 0.0
H2989 H 0.88036 0.07575 0.00272 0.0
H2990 H 0.90406 0.06667 0.06336 0.0
H2991 H 0.91211 0.04895 0.08783 0.0
H2992 H 0.85623 0.01969 0.0845 0.0
H2993 H 0.84789 0.03712 0.05985 0.0
C2994 C 0.83365 0.12636 0.03906 0.0
C2995 C 0.81511 0.11804 0.03863 0.0
C2996 C 0.8464 0.11585 0.03945 0.0
C2997 C 0.84076 0.09689 0.03923 0.0
C2998 C 0.8225 0.0888 0.04049 0.0
C2999 C 0.80972 0.09932 0.04019 0.0
C3000 C 0.8534 0.08535 0.03513 0.0
C3001 C 0.85762 0.07407 0.04801 0.0
C3002 C 0.86151 0.08579 0.01851 0.0
C3003 C 0.8568 0.09669 0.00394 0.0
C3004 C 0.83871 0.09387 0.9959 0.0
C3005 C 0.83431 0.10448 0.9825 0.0
C3006 C 0.84792 0.11784 0.97691 0.0
C3007 C 0.86596 0.12057 0.98467 0.0
C3008 C 0.87043 0.11003 -0.0019 0.0
C3009 C 0.9009 0.0255 0.01772 0.0
C3010 C 0.9185 0.03511 0.01549 0.0
C3011 C 0.88789 0.03499 0.02225 0.0
C3012 C 0.89234 0.05415 0.02438 0.0
C3013 C 0.90983 0.06369 0.02189 0.0
C3014 C 0.92282 0.05427 0.01758 0.0
C3015 C 0.87869 0.06446 0.02848 0.0
C3016 C 0.87415 0.07545 0.01548 0.0
C3017 C 0.87037 0.06372 0.04497 0.0
C3018 C 0.87538 0.05304 0.05959 0.0
C3019 C 0.89352 0.05632 0.06769 0.0
C3020 C 0.89813 0.04636 0.08164 0.0
C3021 C 0.8847 0.03316 0.08767 0.0
C3022 C 0.86663 0.0299 0.07979 0.0
C3023 C 0.86195 0.03982 0.06584 0.0
H3024 H 0.88829 0.0255 0.0985 0.0
H3025 H 0.84448 0.12605 0.96655 0.0
H3026 H 0.32841 0.42032 0.03647 0.0
H3027 H 0.35707 0.44346 0.03859 0.0
H3028 H 0.38563 0.40114 0.02984 0.0
H3029 H 0.3571 0.37791 0.0278 0.0
H3030 H 0.40412 0.42758 0.05706 0.0
H3031 H 0.37597 0.42453 0.99494 0.0
H3032 H 0.35143 0.42533 0.97077 0.0
H3033 H 0.35324 0.48047 0.99285 0.0
H3034 H 0.37765 0.47991 0.01732 0.0
H3035 H 0.48477 0.4712 0.02513 0.0
H3036 H 0.45508 0.45273 0.02885 0.0
H3037 H 0.43567 0.50132 0.03951 0.0
H3038 H 0.46572 0.52019 0.03558 0.0
H3039 H 0.41171 0.47448 0.01421 0.0
H3040 H 0.44323 0.47763 0.07475 0.0
H3041 H 0.46867 0.47575 0.09732 0.0
H3042 H 0.46138 0.41919 0.0766 0.0
H3043 H 0.43603 0.42076 0.05379 0.0
C3044 C 0.34077 0.41589 0.03507 0.0
C3045 C 0.34035 0.39717 0.03192 0.0
C3046 C 0.35717 0.42918 0.03621 0.0
C3047 C 0.37354 0.42408 0.03423 0.0
C3048 C 0.37321 0.40543 0.03143 0.0
C3049 C 0.35683 0.39214 0.0302 0.0
C3050 C 0.39098 0.43812 0.03481 0.0
C3051 C 0.40579 0.43776 0.04762 0.0
C3052 C 0.39313 0.45171 0.02279 0.0
C3053 C 0.37847 0.4521 0.0081 0.0
C3054 C 0.37102 0.43677 0.99474 0.0
C3055 C 0.35716 0.43719 0.98097 0.0
C3056 C 0.35074 0.45293 0.98031 0.0
C3057 C 0.3582 0.46829 0.9934 0.0
C3058 C 0.37206 0.46793 0.00722 0.0
C3059 C 0.47429 0.4781 0.02833 0.0
C3060 C 0.47769 0.49726 0.02999 0.0
C3061 C 0.45727 0.46744 0.03058 0.0
C3062 C 0.44313 0.47558 0.03465 0.0
C3063 C 0.44641 0.49473 0.03644 0.0
C3064 C 0.46359 0.5055 0.03428 0.0
C3065 C 0.4249 0.46381 0.03632 0.0
C3066 C 0.40994 0.46453 0.02389 0.0
C3067 C 0.42267 0.45042 0.04857 0.0
C3068 C 0.43777 0.44935 0.06248 0.0
C3069 C 0.4471 0.46481 0.07495 0.0
C3070 C 0.4615 0.46379 0.08781 0.0
C3071 C 0.46664 0.44735 0.0884 0.0
C3072 C 0.45737 0.4319 0.07616 0.0
C3073 C 0.44296 0.43284 0.06329 0.0
H3074 H 0.4778 0.44659 0.09834 0.0
H3075 H 0.34001 0.45323 0.96964 0.0
H3076 H 0.42902 0.59023 0.77495 0.0
H3077 H 0.41296 0.61475 0.77592 0.0
H3078 H 0.36503 0.57726 0.74598 0.0
H3079 H 0.38098 0.55281 0.74491 0.0
H3080 H 0.37042 0.61051 0.73349 0.0
H3081 H 0.36922 0.58806 0.79307 0.0
H3082 H 0.38309 0.58064 0.82221 0.0
H3083 H 0.41278 0.63658 0.83677 0.0
H3084 H 0.39925 0.64428 0.80758 0.0
H3085 H 0.30052 0.65394 0.75441 0.0
H3086 H 0.32048 0.6332 0.75107 0.0
H3087 H 0.36429 0.67339 0.78449 0.0
H3088 H 0.3444 0.69428 0.78783 0.0
H3089 H 0.36323 0.64083 0.79488 0.0
H3090 H 0.36341 0.66449 0.73743 0.0
H3091 H 0.35003 0.673 0.70865 0.0
H3092 H 0.3239 0.6167 0.68985 0.0
H3093 H 0.33684 0.60788 0.71869 0.0
C3094 C 0.41513 0.58725 0.7684 0.0
C3095 C 0.40631 0.56948 0.75991 0.0
C3096 C 0.4059 0.60128 0.76904 0.0
C3097 C 0.38764 0.59789 0.7612 0.0
C3098 C 0.37907 0.58031 0.75215 0.0
C3099 C 0.38823 0.56629 0.75159 0.0
C3100 C 0.37719 0.61231 0.763 0.0
C3101 C 0.36873 0.61702 0.74693 0.0
C3102 C 0.37534 0.6213 0.78048 0.0
C3103 C 0.38338 0.6167 0.79806 0.0
C3104 C 0.3788 0.59875 0.80243 0.0
C3105 C 0.38659 0.5945 0.81896 0.0
C3106 C 0.39884 0.60812 0.83131 0.0
C3107 C 0.4033 0.62604 0.82717 0.0
C3108 C 0.39558 0.63035 0.81065 0.0
C3109 C 0.31446 0.65851 0.76088 0.0
C3110 C 0.32076 0.67588 0.77139 0.0
C3111 C 0.3259 0.64657 0.75898 0.0
C3112 C 0.34404 0.6517 0.76737 0.0
C3113 C 0.35038 0.66901 0.7779 0.0
C3114 C 0.33893 0.68096 0.77984 0.0
C3115 C 0.35624 0.63888 0.76538 0.0
C3116 C 0.36502 0.63446 0.78142 0.0
C3117 C 0.35855 0.63034 0.74786 0.0
C3118 C 0.35098 0.63553 0.73032 0.0
C3119 C 0.35471 0.65393 0.72722 0.0
C3120 C 0.34721 0.65881 0.71089 0.0
C3121 C 0.3361 0.6454 0.69745 0.0
C3122 C 0.3325 0.62708 0.70029 0.0
C3123 C 0.33992 0.62212 0.71662 0.0
H3124 H 0.3303 0.64921 0.68482 0.0
H3125 H 0.40486 0.6048 0.8441 0.0
H3126 H 0.23518 0.61143 0.53971 0.0
H3127 H 0.20409 0.59329 0.53809 0.0
H3128 H 0.18426 0.64186 0.53622 0.0
H3129 H 0.21547 0.6603 0.538 0.0
H3130 H 0.16712 0.61945 0.55953 0.0
H3131 H 0.18196 0.61374 0.49719 0.0
H3132 H 0.20031 0.60718 0.47248 0.0
H3133 H 0.19275 0.55196 0.48429 0.0
H3134 H 0.17457 0.55827 0.50927 0.0
H3135 H 0.07586 0.58097 0.52081 0.0
H3136 H 0.1078 0.59733 0.52604 0.0
H3137 H 0.12315 0.54696 0.53231 0.0
H3138 H 0.09097 0.53035 0.5273 0.0
H3139 H 0.143 0.56888 0.50809 0.0
H3140 H 0.12522 0.57436 0.5687 0.0
H3141 H 0.10688 0.5815 0.59316 0.0
H3142 H 0.12019 0.63791 0.58488 0.0
H3143 H 0.13799 0.63101 0.55982 0.0
C3144 C 0.22427 0.61835 0.53903 0.0
C3145 C 0.22786 0.63736 0.53888 0.0
C3146 C 0.20647 0.6079 0.53805 0.0
C3147 C 0.19188 0.6162 0.53679 0.0
C3148 C 0.19537 0.6352 0.53713 0.0
C3149 C 0.21321 0.64571 0.53811 0.0
C3150 C 0.17296 0.60495 0.53485 0.0
C3151 C 0.16174 0.60854 0.54817 0.0
C3152 C 0.16619 0.59039 0.52029 0.0
C3153 C 0.17707 0.58654 0.50524 0.0
C3154 C 0.18434 0.60024 0.49463 0.0
C3155 C 0.19469 0.59656 0.48055 0.0
C3156 C 0.19774 0.57918 0.47685 0.0
C3157 C 0.19041 0.56542 0.48719 0.0
C3158 C 0.18007 0.56904 0.5013 0.0
C3159 C 0.08598 0.5733 0.5233 0.0
C3160 C 0.08089 0.55434 0.52367 0.0
C3161 C 0.10423 0.58272 0.52638 0.0
C3162 C 0.11777 0.57337 0.52972 0.0
C3163 C 0.11282 0.5544 0.52983 0.0
C3164 C 0.09448 0.54495 0.52701 0.0
C3165 C 0.13708 0.58352 0.53268 0.0
C3166 C 0.14839 0.57973 0.51952 0.0
C3167 C 0.14387 0.59797 0.54734 0.0
C3168 C 0.13278 0.6021 0.56215 0.0
C3169 C 0.12398 0.58824 0.57183 0.0
C3170 C 0.11367 0.59224 0.58583 0.0
C3171 C 0.11225 0.61012 0.59048 0.0
C3172 C 0.12116 0.62403 0.58115 0.0
C3173 C 0.13132 0.62007 0.56701 0.0
H3174 H 0.10433 0.61321 0.60137 0.0
H3175 H 0.20575 0.57635 0.46595 0.0
H3176 H 0.70248 0.00537 0.74927 0.0
H3177 H 0.72055 0.98286 0.7513 0.0
H3178 H 0.67319 0.94283 0.761 0.0
H3179 H 0.65518 0.96546 0.75952 0.0
H3180 H 0.69975 0.94532 0.78699 0.0
H3181 H 0.69413 0.93919 0.72074 0.0
H3182 H 0.69585 0.94946 0.68994 0.0
H3183 H 0.75334 0.97174 0.70352 0.0
H3184 H 0.75192 0.96182 0.73451 0.0
H3185 H 0.73606 0.86899 0.78628 0.0
H3186 H 0.71904 0.89104 0.77853 0.0
H3187 H 0.76889 0.92958 0.77262 0.0
H3188 H 0.78605 0.90692 0.77936 0.0
H3189 H 0.7423 0.92868 0.74481 0.0
H3190 H 0.74714 0.93412 0.81146 0.0
H3191 H 0.74478 0.92199 0.84135 0.0
H3192 H 0.68755 0.89943 0.82589 0.0
H3193 H 0.68961 0.91127 0.79583 0.0
C3194 C 0.69581 0.99164 0.75136 0.0
C3195 C 0.67746 0.98721 0.75441 0.0
C3196 C 0.70616 0.97876 0.75248 0.0
C3197 C 0.69824 0.96115 0.75636 0.0
C3198 C 0.67961 0.95638 0.75813 0.0
C3199 C 0.66932 0.96929 0.75721 0.0
C3200 C 0.70969 0.9484 0.76057 0.0
C3201 C 0.70884 0.94149 0.77761 0.0
C3202 C 0.722 0.94386 0.74863 0.0
C3203 C 0.72288 0.94993 0.73003 0.0
C3204 C 0.70711 0.94643 0.71723 0.0
C3205 C 0.70804 0.95216 0.69972 0.0
C3206 C 0.72469 0.96129 0.6948 0.0
C3207 C 0.74045 0.96468 0.70736 0.0
C3208 C 0.73959 0.959 0.7249 0.0
C3209 C 0.74343 0.88207 0.78318 0.0
C3210 C 0.7624 0.88613 0.78335 0.0
C3211 C 0.73369 0.89477 0.77894 0.0
C3212 C 0.74271 0.91205 0.77525 0.0
C3213 C 0.76168 0.91631 0.77551 0.0
C3214 C 0.77148 0.90345 0.77957 0.0
C3215 C 0.73214 0.92551 0.77107 0.0
C3216 C 0.73322 0.93261 0.75415 0.0
C3217 C 0.71992 0.93016 0.78304 0.0
C3218 C 0.71855 0.92352 0.80136 0.0
C3219 C 0.73406 0.92654 0.81443 0.0
C3220 C 0.73278 0.91972 0.8314 0.0
C3221 C 0.71603 0.90995 0.83552 0.0
C3222 C 0.70051 0.90705 0.8227 0.0
C3223 C 0.70172 0.91384 0.80571 0.0
H3224 H 0.71507 0.90462 0.84863 0.0
H3225 H 0.72538 0.9657 0.68123 0.0
H3226 H 0.72172 0.87945 0.52572 0.0
H3227 H 0.69737 0.89557 0.52601 0.0
H3228 H 0.73677 0.94599 0.54713 0.0
H3229 H 0.76102 0.92993 0.54726 0.0
H3230 H 0.70744 0.94417 0.56388 0.0
H3231 H 0.71899 0.93458 0.50029 0.0
H3232 H 0.72187 0.91627 0.4713 0.0
H3233 H 0.66626 0.88633 0.4683 0.0
H3234 H 0.66312 0.90432 0.49743 0.0
H3235 H 0.65982 0.00965 0.53954 0.0
H3236 H 0.68108 0.99025 0.54238 0.0
H3237 H 0.63773 0.94269 0.52188 0.0
H3238 H 0.61646 0.96211 0.51835 0.0
H3239 H 0.66724 0.94118 0.50561 0.0
H3240 H 0.65516 0.95249 0.5682 0.0
H3241 H 0.65239 0.97122 0.59697 0.0
H3242 H 0.70905 -0.00178 0.60175 0.0
H3243 H 0.7121 0.97983 0.57287 0.0
C3244 C 0.72517 0.89394 0.53059 0.0
C3245 C 0.74335 0.9034 0.53639 0.0
C3246 C 0.71124 0.90318 0.53065 0.0
C3247 C 0.71521 0.92211 0.5363 0.0
C3248 C 0.73329 0.93142 0.54266 0.0
C3249 C 0.74718 0.9222 0.54269 0.0
C3250 C 0.70073 0.9324 0.53522 0.0
C3251 C 0.69877 0.94363 0.55108 0.0
C3252 C 0.68904 0.93143 0.51868 0.0
C3253 C 0.69089 0.92066 0.50114 0.0
C3254 C 0.70742 0.924 0.49352 0.0
C3255 C 0.70909 0.9137 0.47705 0.0
C3256 C 0.69427 0.90011 0.46799 0.0
C3257 C 0.67773 0.89684 0.47535 0.0
C3258 C 0.676 0.90709 0.49183 0.0
C3259 C 0.65477 0.99507 0.53553 0.0
C3260 C 0.63636 0.9875 0.5287 0.0
C3261 C 0.66695 0.98394 0.53736 0.0
C3262 C 0.66102 0.96492 0.53256 0.0
C3263 C 0.64265 0.9573 0.52575 0.0
C3264 C 0.63045 0.96843 0.5239 0.0
C3265 C 0.6741 0.95311 0.53421 0.0
C3266 C 0.6758 0.94161 0.51845 0.0
C3267 C 0.68558 0.95386 0.55084 0.0
C3268 C 0.68382 0.96487 0.56828 0.0
C3269 C 0.667 0.96251 0.57532 0.0
C3270 C 0.66539 0.97305 0.59165 0.0
C3271 C 0.68053 0.98593 0.60116 0.0
C3272 C 0.69733 0.98825 0.59437 0.0
C3273 C 0.69901 0.97776 0.57802 0.0
H3274 H 0.67925 0.99408 0.6138 0.0
H3275 H 0.6956 0.89215 0.45524 0.0
H3276 H 0.38349 0.48178 0.75397 0.0
H3277 H 0.35993 0.45324 0.75147 0.0
H3278 H 0.40062 0.42519 0.76825 0.0
H3279 H 0.42416 0.45343 0.77054 0.0
H3280 H 0.378 0.4052 0.73991 0.0
H3281 H 0.37172 0.43805 0.79819 0.0
H3282 H 0.36681 0.4641 0.81845 0.0
H3283 H 0.31466 0.45824 0.78734 0.0
H3284 H 0.31937 0.43229 0.76673 0.0
H3285 H 0.33313 0.32699 0.77358 0.0
H3286 H 0.35077 0.357 0.76989 0.0
H3287 H 0.3019 0.37195 0.75007 0.0
H3288 H 0.28374 0.34149 0.75397 0.0
H3289 H 0.32513 0.39934 0.77551 0.0
H3290 H 0.33039 0.36322 0.7198 0.0
H3291 H 0.33577 0.3367 0.7007 0.0
H3292 H 0.39045 0.34836 0.72774 0.0
H3293 H 0.38532 0.37479 0.74724 0.0
C3294 C 0.38745 0.46954 0.75712 0.0
C3295 C 0.40582 0.47002 0.76246 0.0
C3296 C 0.37392 0.45321 0.75575 0.0
C3297 C 0.37841 0.43699 0.75979 0.0
C3298 C 0.39674 0.43744 0.765 0.0
C3299 C 0.41023 0.4537 0.76636 0.0
C3300 C 0.36423 0.41947 0.75862 0.0
C3301 C 0.3665 0.40393 0.74779 0.0
C3302 C 0.34885 0.41781 0.7684 0.0
C3303 C 0.34599 0.43338 0.78078 0.0
C3304 C 0.35927 0.44242 0.79557 0.0
C3305 C 0.35651 0.45714 0.80714 0.0
C3306 C 0.34046 0.46286 0.80415 0.0
C3307 C 0.3271 0.45382 0.78961 0.0
C3308 C 0.32981 0.4391 0.77799 0.0
C3309 C 0.32594 0.33652 0.7684 0.0
C3310 C 0.30688 0.33166 0.76404 0.0
C3311 C 0.33617 0.35376 0.7662 0.0
C3312 C 0.32777 0.36673 0.75943 0.0
C3313 C 0.30872 0.36213 0.75522 0.0
C3314 C 0.29836 0.3447 0.75739 0.0
C3315 C 0.33919 0.38503 0.75718 0.0
C3316 C 0.33643 0.40069 0.76737 0.0
C3317 C 0.35422 0.3868 0.74687 0.0
C3318 C 0.35742 0.37096 0.73507 0.0
C3319 C 0.34352 0.36007 0.72177 0.0
C3320 C 0.34654 0.34505 0.71086 0.0
C3321 C 0.36344 0.34084 0.71302 0.0
C3322 C 0.37737 0.35165 0.72608 0.0
C3323 C 0.37442 0.36667 0.73705 0.0
H3324 H 0.36575 0.32921 0.70455 0.0
H3325 H 0.33834 0.47426 0.81312 0.0
H3326 H 0.19241 0.56765 0.24658 0.0
H3327 H 0.21133 0.59848 0.24725 0.0
H3328 H 0.16563 0.62079 0.2579 0.0
H3329 H 0.14653 0.59005 0.25709 0.0
H3330 H 0.18419 0.63721 0.2319 0.0
H3331 H 0.19803 0.62118 0.29268 0.0
H3332 H 0.20759 0.60198 0.3149 0.0
H3333 H 0.25916 0.60873 0.29394 0.0
H3334 H 0.24979 0.62779 0.2714 0.0
H3335 H 0.22374 0.72788 0.27039 0.0
H3336 H 0.20827 0.6956 0.26549 0.0
H3337 H 0.25796 0.68182 0.2529 0.0
H3338 H 0.27372 0.71432 0.25785 0.0
H3339 H 0.23965 0.66022 0.27729 0.0
H3340 H 0.22631 0.67907 0.21836 0.0
H3341 H 0.21636 0.69881 0.19698 0.0
H3342 H 0.16341 0.68716 0.21508 0.0
H3343 H 0.17312 0.66755 0.2368 0.0
C3344 C 0.18633 0.57909 0.24903 0.0
C3345 C 0.16793 0.57633 0.25184 0.0
C3346 C 0.1972 0.59671 0.24945 0.0
C3347 C 0.18991 0.6119 0.25278 0.0
C3348 C 0.17151 0.60922 0.2553 0.0
C3349 C 0.16063 0.59162 0.25489 0.0
C3350 C 0.20145 0.63066 0.25387 0.0
C3351 C 0.19624 0.64229 0.2419 0.0
C3352 C 0.21744 0.6371 0.2666 0.0
C3353 C 0.22314 0.62574 0.28022 0.0
C3354 C 0.21135 0.61846 0.29271 0.0
C3355 C 0.21674 0.60762 0.30538 0.0
C3356 C 0.23395 0.6041 0.3058 0.0
C3357 C 0.24583 0.61145 0.29358 0.0
C3358 C 0.24049 0.62228 0.28086 0.0
C3359 C 0.23145 0.71804 0.26656 0.0
C3360 C 0.24997 0.72368 0.26444 0.0
C3361 C 0.22254 0.69959 0.2637 0.0
C3362 C 0.23193 0.68637 0.25862 0.0
C3363 C 0.25048 0.69186 0.25674 0.0
C3364 C 0.25943 0.7104 0.25952 0.0
C3365 C 0.2222 0.66684 0.25553 0.0
C3366 C 0.22775 0.65506 0.26711 0.0
C3367 C 0.20646 0.66029 0.2425 0.0
C3368 C 0.2005 0.67193 0.22931 0.0
C3369 C 0.21258 0.68081 0.21788 0.0
C3370 C 0.20698 0.69197 0.20568 0.0
C3371 C 0.18928 0.69426 0.2047 0.0
C3372 C 0.17712 0.68537 0.21587 0.0
C3373 C 0.18266 0.67421 0.22811 0.0
H3374 H 0.18497 0.70291 0.19525 0.0
H3375 H 0.23811 0.5957 0.31561 0.0
H3376 H 0.47387 0.70962 0.46884 0.0
H3377 H 0.47814 0.68069 0.4774 0.0
H3378 H 0.52817 0.68893 0.45288 0.0
H3379 H 0.52321 0.71766 0.44319 0.0
H3380 H 0.51581 0.65509 0.4478 0.0
H3381 H 0.52325 0.69491 0.50421 0.0
H3382 H 0.51571 0.71658 0.52798 0.0
H3383 H 0.46784 0.67637 0.53506 0.0
H3384 H 0.47498 0.65453 0.51117 0.0
H3385 H 0.54872 0.59063 0.49961 0.0
H3386 H 0.54359 0.61855 0.48854 0.0
H3387 H 0.48725 0.60222 0.49675 0.0
H3388 H 0.49222 0.57388 0.50747 0.0
H3389 H 0.50347 0.6399 0.51037 0.0
H3390 H 0.4989 0.59966 0.45371 0.0
H3391 H 0.50957 0.57886 0.4316 0.0
H3392 H 0.5564 0.62158 0.42727 0.0
H3393 H 0.54615 0.64257 0.44959 0.0
C3394 C 0.4858 0.70535 0.46512 0.0
C3395 C 0.4982 0.71638 0.45531 0.0
C3396 C 0.48841 0.68866 0.47031 0.0
C3397 C 0.50391 0.68236 0.46659 0.0
C3398 C 0.51611 0.69313 0.45628 0.0
C3399 C 0.51326 0.70973 0.45066 0.0
C3400 C 0.5072 0.66476 0.47342 0.0
C3401 C 0.51331 0.65207 0.46162 0.0
C3402 C 0.50393 0.66007 0.49142 0.0
C3403 C 0.49955 0.67315 0.50577 0.0
C3404 C 0.51105 0.69073 0.51075 0.0
C3405 C 0.50686 0.70304 0.52425 0.0
C3406 C 0.49128 0.69787 0.53298 0.0
C3407 C 0.47988 0.68036 0.52826 0.0
C3408 C 0.484 0.66801 0.51475 0.0
C3409 C 0.53517 0.59285 0.4991 0.0
C3410 C 0.52093 0.57969 0.50458 0.0
C3411 C 0.53222 0.60897 0.49263 0.0
C3412 C 0.51496 0.61284 0.49159 0.0
C3413 C 0.50074 0.59984 0.49729 0.0
C3414 C 0.5036 0.58348 0.50343 0.0
C3415 C 0.5119 0.63037 0.48473 0.0
C3416 C 0.50591 0.64302 0.49656 0.0
C3417 C 0.51572 0.6352 0.46698 0.0
C3418 C 0.52184 0.62264 0.45347 0.0
C3419 C 0.51155 0.60458 0.44816 0.0
C3420 C 0.51751 0.59276 0.43557 0.0
C3421 C 0.53368 0.59888 0.42807 0.0
C3422 C 0.54389 0.61685 0.43311 0.0
C3423 C 0.538 0.62872 0.44572 0.0
H3424 H 0.53827 0.5897 0.41832 0.0
H3425 H 0.48805 0.70742 0.54344 0.0
H3426 H 0.63344 0.30784 0.61417 0.0
H3427 H 0.65913 0.30606 0.63591 0.0
H3428 H 0.62435 0.2986 0.67905 0.0
H3429 H 0.59847 0.30049 0.6573 0.0
H3430 H 0.65681 0.32096 0.69307 0.0
H3431 H 0.63762 0.2628 0.65575 0.0
H3432 H 0.62961 0.24127 0.62684 0.0
H3433 H 0.68361 0.25969 0.6126 0.0
H3434 H 0.69188 0.28147 0.64134 0.0
H3435 H 0.71542 0.28738 0.75516 0.0
H3436 H 0.69027 0.29086 0.73365 0.0
H3437 H 0.72565 0.29907 0.69109 0.0
H3438 H 0.75096 0.29554 0.71259 0.0
H3439 H 0.69312 0.27657 0.67669 0.0
H3440 H 0.71215 0.33491 0.71376 0.0
H3441 H 0.72022 0.35641 0.74271 0.0
H3442 H 0.66656 0.33725 0.75754 0.0
H3443 H 0.65824 0.31545 0.72878 0.0
C3444 C 0.63115 0.30593 0.6283 0.0
C3445 C 0.61364 0.30428 0.6338 0.0
C3446 C 0.64596 0.30479 0.64077 0.0
C3447 C 0.64385 0.30188 0.65923 0.0
C3448 C 0.62651 0.30077 0.66495 0.0
C3449 C 0.61163 0.30186 0.65243 0.0
C3450 C 0.65962 0.2998 0.67235 0.0
C3451 C 0.66454 0.31105 0.68953 0.0
C3452 C 0.67021 0.2872 0.66781 0.0
C3453 C 0.6653 0.274 0.65057 0.0
C3454 C 0.64774 0.26239 0.64638 0.0
C3455 C 0.64316 0.2501 0.63003 0.0
C3456 C 0.65607 0.24916 0.61785 0.0
C3457 C 0.67361 0.26046 0.62202 0.0
C3458 C 0.67825 0.27279 0.63833 0.0
C3459 C 0.71796 0.28997 0.74125 0.0
C3460 C 0.73542 0.2912 0.73579 0.0
C3461 C 0.70347 0.29205 0.7289 0.0
C3462 C 0.70588 0.29544 0.71062 0.0
C3463 C 0.72326 0.2965 0.70504 0.0
C3464 C 0.73781 0.29452 0.71744 0.0
C3465 C 0.69028 0.2977 0.6974 0.0
C3466 C 0.68539 0.28648 0.68021 0.0
C3467 C 0.67971 0.3103 0.70193 0.0
C3468 C 0.68463 0.32342 0.7192 0.0
C3469 C 0.70211 0.33518 0.72326 0.0
C3470 C 0.70673 0.34744 0.73962 0.0
C3471 C 0.69393 0.34816 0.75198 0.0
C3472 C 0.67647 0.33666 0.74797 0.0
C3473 C 0.67179 0.32436 0.73163 0.0
H3474 H 0.69753 0.35766 0.76464 0.0
H3475 H 0.65249 0.23964 0.6052 0.0
H3476 H 0.01983 0.33143 0.92935 0.0
H3477 H 0.02109 0.36278 0.94241 0.0
H3478 H 0.9929 0.34285 0.98724 0.0
H3479 H 0.99211 0.31121 0.97446 0.0
H3480 H 0.97964 0.37246 0.96767 0.0
H3481 H 0.0334 0.36033 -0.00104 0.0
H3482 H 0.06196 0.35031 0.00035 0.0
H3483 H 0.08425 0.39135 0.96714 0.0
H3484 H 0.05569 0.40142 0.96531 0.0
H3485 H 0.99219 0.462 0.01832 0.0
H3486 H 0.98894 0.42946 0.0083 0.0
H3487 H 0.03596 0.44282 0.97926 0.0
H3488 H 0.03978 0.47509 0.99009 0.0
H3489 H 0.03887 0.41516 0.99226 0.0
H3490 H 0.98693 0.42669 0.95825 0.0
H3491 H 0.95857 0.43683 0.95343 0.0
H3492 H 0.93296 0.39781 0.98711 0.0
H3493 H 0.96125 0.3876 0.99232 0.0
C3494 C 0.01386 0.3336 0.94201 0.0
C3495 C 0.00589 0.31857 0.95079 0.0
C3496 C 0.01462 0.35167 0.9495 0.0
C3497 C 0.00709 0.35545 0.96588 0.0
C3498 C 0.9988 0.34048 0.97458 0.0
C3499 C 0.99842 0.32232 0.96728 0.0
C3500 C 0.00829 0.37501 0.97389 0.0
C3501 C 0.99255 0.38173 0.97335 0.0
C3502 C 0.02515 0.3875 0.98071 0.0
C3503 C 0.04233 0.3815 0.98184 0.0
C3504 C 0.04432 0.3671 0.9918 0.0
C3505 C 0.06053 0.36144 0.9927 0.0
C3506 C 0.0749 0.37016 0.9838 0.0
C3507 C 0.0731 0.38459 0.97401 0.0
C3508 C 0.05691 0.39029 0.97305 0.0
C3509 C 1.0018 0.45804 0.00972 0.0
C3510 C 0.01625 0.47147 0.00509 0.0
C3511 C 0.99986 0.43925 0.00382 0.0
C3512 C 0.01199 0.43316 0.99259 0.0
C3513 C 0.02633 0.44668 0.9879 0.0
C3514 C 0.02848 0.46536 0.9941 0.0
C3515 C 0.01016 0.41296 0.986 0.0
C3516 C 0.02584 0.40604 0.98671 0.0
C3517 C 0.99327 0.40041 0.9789 0.0
C3518 C 0.97627 0.40653 0.97585 0.0
C3519 C 0.97529 0.42037 0.96474 0.0
C3520 C 0.95922 0.42611 0.96192 0.0
C3521 C 0.94399 0.41801 0.97001 0.0
C3522 C 0.94478 0.40411 0.98089 0.0
C3523 C 0.96082 0.39832 0.98377 0.0
H3524 H 0.93156 0.42247 0.96781 0.0
H3525 H 0.08743 0.36576 0.98452 0.0
H3526 H 0.9901 0.79054 0.11495 0.0
H3527 H 0.96364 0.78673 0.13215 0.0
H3528 H 0.99707 0.78118 0.18112 0.0
H3529 H 0.02337 0.78462 0.16394 0.0
H3530 H 0.96579 0.75731 0.17854 0.0
H3531 H 0.9834 0.82162 0.17439 0.0
H3532 H 0.99052 0.84895 0.15844 0.0
H3533 H 0.93678 0.83388 0.12871 0.0
H3534 H 0.92941 0.80632 0.14432 0.0
H3535 H 0.9095 0.77304 0.24727 0.0
H3536 H 0.93397 0.77548 0.22774 0.0
H3537 H 0.89697 0.77906 0.18074 0.0
H3538 H 0.87228 0.77648 0.20021 0.0
H3539 H 0.92883 0.80308 0.18093 0.0
H3540 H 0.9109 0.73933 0.18609 0.0
H3541 H 0.90384 0.71217 0.2023 0.0
H3542 H 0.95829 0.72629 0.23029 0.0
H3543 H 0.96562 0.75369 0.21443 0.0
C3544 C 0.9918 0.78841 0.12935 0.0
C3545 C 0.00895 0.78793 0.13801 0.0
C3546 C 0.97664 0.78635 0.13926 0.0
C3547 C 0.97825 0.78391 0.15813 0.0
C3548 C 0.99532 0.78305 0.16664 0.0
C3549 C 0.01043 0.78506 0.15676 0.0
C3550 C 0.96233 0.78232 0.16911 0.0
C3551 C 0.95788 0.76747 0.1792 0.0
C3552 C 0.95154 0.79523 0.16973 0.0
C3553 C 0.95593 0.81181 0.16037 0.0
C3554 C 0.97315 0.82406 0.16435 0.0
C3555 C 0.97722 0.83961 0.15539 0.0
C3556 C 0.96413 0.84312 0.14253 0.0
C3557 C 0.94691 0.83113 0.13865 0.0
C3558 C 0.94278 0.81555 0.14755 0.0
C3559 C 0.90642 0.77413 0.23274 0.0
C3560 C 0.8887 0.77435 0.22541 0.0
C3561 C 0.92053 0.77558 0.22153 0.0
C3562 C 0.9174 0.77718 0.20258 0.0
C3563 C 0.89984 0.77781 0.19527 0.0
C3564 C 0.88569 0.77638 0.20649 0.0
C3565 C 0.93244 0.77818 0.1905 0.0
C3566 C 0.93671 0.79289 0.18021 0.0
C3567 C 0.94309 0.76516 0.1897 0.0
C3568 C 0.93876 0.74865 0.19919 0.0
C3569 C 0.92133 0.73672 0.1958 0.0
C3570 C 0.91729 0.72127 0.20491 0.0
C3571 C 0.9306 0.71753 0.21735 0.0
C3572 C 0.94799 0.72921 0.22066 0.0
C3573 C 0.9521 0.74469 0.21161 0.0
H3574 H 0.92744 0.70557 0.22439 0.0
H3575 H 0.9673 0.85517 0.13561 0.0
H3576 H 0.52553 0.28568 0.12867 0.0
H3577 H 0.52993 0.31224 0.11216 0.0
H3578 H 0.52435 0.3458 0.16161 0.0
H3579 H 0.5195 0.31889 0.17824 0.0
H3580 H 0.50575 0.35419 0.13239 0.0
H3581 H 0.56632 0.34824 0.14535 0.0
H3582 H 0.59107 0.33236 0.14671 0.0
H3583 H 0.58301 0.31967 0.08742 0.0
H3584 H 0.55802 0.33524 0.08571 0.0
H3585 H 0.53473 0.43577 0.09036 0.0
H3586 H 0.53229 0.41213 0.11089 0.0
H3587 H 0.53575 0.37285 0.06515 0.0
H3588 H 0.53799 0.3963 0.04451 0.0
H3589 H 0.55697 0.36938 0.09508 0.0
H3590 H 0.4948 0.37342 0.08278 0.0
H3591 H 0.47016 0.38945 0.08164 0.0
H3592 H 0.48203 0.4065 0.14031 0.0
H3593 H 0.50684 0.39065 0.14177 0.0
C3594 C 0.52539 0.29871 0.13617 0.0
C3595 C 0.52226 0.30009 0.15489 0.0
C3596 C 0.52799 0.314 0.12667 0.0
C3597 C 0.52776 0.33125 0.13559 0.0
C3598 C 0.52467 0.33272 0.15434 0.0
C3599 C 0.52201 0.31733 0.1639 0.0
C3600 C 0.53035 0.34747 0.12509 0.0
C3601 C 0.51715 0.35769 0.12452 0.0
C3602 C 0.54503 0.35203 0.11448 0.0
C3603 C 0.56019 0.34281 0.11542 0.0
C3604 C 0.56974 0.34197 0.1326 0.0
C3605 C 0.58383 0.33303 0.13344 0.0
C3606 C 0.58859 0.32498 0.11717 0.0
C3607 C 0.5793 0.3259 0.10002 0.0
C3608 C 0.56519 0.3348 0.0991 0.0
C3609 C 0.53475 0.42207 0.08455 0.0
C3610 C 0.53658 0.4181 0.06563 0.0
C3611 C 0.5334 0.4085 0.09639 0.0
C3612 C 0.5337 0.39054 0.08965 0.0
C3613 C 0.53556 0.38656 0.07081 0.0
C3614 C 0.53691 0.40009 0.05898 0.0
C3615 C 0.53222 0.37588 0.10214 0.0
C3616 C 0.54565 0.36596 0.10307 0.0
C3617 C 0.51782 0.37168 0.11314 0.0
C3618 C 0.50278 0.38101 0.11235 0.0
C3619 C 0.49222 0.38068 0.09542 0.0
C3620 C 0.47821 0.38972 0.09472 0.0
C3621 C 0.47458 0.39907 0.11088 0.0
C3622 C 0.48488 0.39929 0.1278 0.0
C3623 C 0.49889 0.39025 0.12857 0.0
H3624 H 0.46376 0.4061 0.1103 0.0
H3625 H 0.59949 0.31806 0.11785 0.0
H3626 H 0.97221 0.28815 0.36793 0.0
H3627 H 0.94195 0.28483 0.35173 0.0
H3628 H 0.96552 0.3121 0.30792 0.0
H3629 H 0.99626 0.31534 0.32424 0.0
H3630 H 0.93635 0.32565 0.31934 0.0
H3631 H 0.94574 0.26666 0.30072 0.0
H3632 H 0.95327 0.23733 0.30458 0.0
H3633 H 0.90954 0.22359 0.3375 0.0
H3634 H 0.90196 0.25301 0.33416 0.0
H3635 H 0.84793 0.30895 0.26644 0.0
H3636 H 0.87999 0.31169 0.2773 0.0
H3637 H 0.86405 0.27512 0.3173 0.0
H3638 H 0.83215 0.2718 0.30598 0.0
H3639 H 0.89069 0.2663 0.30504 0.0
H3640 H 0.88304 0.3254 0.32731 0.0
H3641 H 0.87507 0.35481 0.32509 0.0
H3642 H 0.91476 0.36845 0.28763 0.0
H3643 H 0.92281 0.33901 0.28946 0.0
C3644 C 0.9711 0.29325 0.35469 0.0
C3645 C 0.98693 0.30192 0.34743 0.0
C3646 C 0.95362 0.2913 0.34537 0.0
C3647 C 0.9511 0.2981 0.32842 0.0
C3648 C 0.96687 0.30665 0.32093 0.0
C3649 C 0.98454 0.30835 0.33019 0.0
C3650 C 0.93202 0.29664 0.31913 0.0
C3651 C 0.92648 0.3126 0.3159 0.0
C3652 C 0.91869 0.27976 0.31507 0.0
C3653 C 0.92339 0.26215 0.31733 0.0
C3654 C 0.93785 0.25749 0.30896 0.0
C3655 C 0.94211 0.24082 0.31103 0.0
C3656 C 0.93192 0.22863 0.32132 0.0
C3657 C 0.91744 0.23307 0.32956 0.0
C3658 C 0.91316 0.24974 0.32759 0.0
C3659 C 0.85121 0.30158 0.27765 0.0
C3660 C 0.83716 0.2902 0.28529 0.0
C3661 C 0.86972 0.30323 0.28399 0.0
C3662 C 0.87492 0.29385 0.29848 0.0
C3663 C 0.86082 0.28256 0.30613 0.0
C3664 C 0.84238 0.28073 0.29965 0.0
C3665 C 0.8948 0.29536 0.3055 0.0
C3666 C 0.90051 0.27938 0.30836 0.0
C3667 C 0.9082 0.31224 0.3095 0.0
C3668 C 0.90338 0.32992 0.30835 0.0
C3669 C 0.88997 0.33461 0.31849 0.0
C3670 C 0.88545 0.3513 0.31732 0.0
C3671 C 0.89436 0.36346 0.30618 0.0
C3672 C 0.90784 0.35899 0.29623 0.0
C3673 C 0.9124 0.34232 0.29733 0.0
H3674 H 0.89085 0.37637 0.30529 0.0
H3675 H 0.93522 0.21572 0.32287 0.0
H3676 H 0.98288 0.70174 0.62537 0.0
H3677 H 0.98214 0.67172 0.60889 0.0
H3678 H 0.02506 0.66632 0.64908 0.0
H3679 H 0.02568 0.6964 0.66562 0.0
H3680 H 0.03358 0.66017 0.61447 0.0
H3681 H 0.98175 0.63773 0.64494 0.0
H3682 H 0.95171 0.63671 0.65525 0.0
H3683 H 0.9274 0.62842 0.59862 0.0
H3684 H 0.95735 0.62962 0.58795 0.0
H3685 H 0.03495 0.5705 0.57573 0.0
H3686 H 0.03108 0.59618 0.59677 0.0
H3687 H 0.99012 0.605 0.55643 0.0
H3688 H 0.99401 0.5793 0.53515 0.0
H3689 H 0.98025 0.60842 0.59222 0.0
H3690 H 0.03125 0.63255 0.56161 0.0
H3691 H 0.06093 0.63398 0.55031 0.0
H3692 H 0.08643 0.6398 0.60627 0.0
H3693 H 0.0568 0.63811 0.61792 0.0
C3694 C 0.99152 0.69374 0.63121 0.0
C3695 C 1.00387 0.70123 0.64723 0.0
C3696 C 0.99124 0.67659 0.62164 0.0
C3697 C 1.00352 0.66651 0.62763 0.0
C3698 C 0.01537 0.67366 0.64409 0.0
C3699 C 0.01551 0.69076 0.65378 0.0
C3700 C 0.00505 0.64948 0.61587 0.0
C3701 C 0.02194 0.64873 0.60996 0.0
C3702 C 0.98986 0.63464 0.60931 0.0
C3703 C 0.97183 0.63394 0.61565 0.0
C3704 C 0.97002 0.63584 0.63468 0.0
C3705 C 0.953 0.6352 0.64059 0.0
C3706 C 0.93766 0.63255 0.6276 0.0
C3707 C 0.9393 0.63049 0.60866 0.0
C3708 C 0.95629 0.63113 0.60268 0.0
C3709 C 0.02505 0.57781 0.57126 0.0
C3710 C 0.01487 0.57274 0.55357 0.0
C3711 C 0.02288 0.5926 0.58337 0.0
C3712 C 0.01038 0.60276 0.57827 0.0
C3713 C 0.99985 0.59746 0.56081 0.0
C3714 C 1.00216 0.58276 0.54857 0.0
C3715 C 0.00875 0.61917 0.59093 0.0
C3716 C 0.99188 0.61982 0.59691 0.0
C3717 C 0.02392 0.634 0.59748 0.0
C3718 C 0.04178 0.635 0.59062 0.0
C3719 C 0.04316 0.63396 0.5715 0.0
C3720 C 0.05997 0.63484 0.56504 0.0
C3721 C 0.07554 0.63693 0.57756 0.0
C3722 C 0.07434 0.63815 0.59659 0.0
C3723 C 0.05754 0.63724 0.60313 0.0
H3724 H 0.08852 0.63768 0.57249 0.0
H3725 H 0.92449 0.63206 0.6322 0.0
H3726 H 0.57356 0.78464 0.81503 0.0
H3727 H 0.60153 0.7812 0.80238 0.0
H3728 H 0.63336 0.81075 0.85282 0.0
H3729 H 0.60554 0.8142 0.86544 0.0
H3730 H 0.64991 0.82224 0.82446 0.0
H3731 H 0.62533 0.76271 0.84095 0.0
H3732 H 0.602 0.73407 0.84053 0.0
H3733 H 0.60109 0.72246 0.78163 0.0
H3734 H 0.62426 0.75117 0.78167 0.0
H3735 H 0.7354 0.80277 0.81008 0.0
H3736 H 0.70692 0.80624 0.82095 0.0
H3737 H 0.67686 0.77057 0.77278 0.0
H3738 H 0.70545 0.7666 0.76214 0.0
H3739 H 0.65873 0.76228 0.79903 0.0
H3740 H 0.68256 0.82126 0.78173 0.0
H3741 H 0.70363 0.85105 0.78079 0.0
H3742 H 0.70483 0.86452 0.83951 0.0
H3743 H 0.6838 0.83474 0.84081 0.0
C3744 C 0.58649 0.79039 0.82349 0.0
C3745 C 0.58702 0.79969 0.8414 0.0
C3746 C 0.60263 0.78833 0.81622 0.0
C3747 C 0.61996 0.79553 0.82655 0.0
C3748 C 0.62044 0.80498 0.84435 0.0
C3749 C 0.60435 0.80691 0.85165 0.0
C3750 C 0.63751 0.79348 0.81894 0.0
C3751 C 0.65186 0.80905 0.81915 0.0
C3752 C 0.64027 0.77645 0.81134 0.0
C3753 C 0.62638 0.75918 0.81129 0.0
C3754 C 0.62005 0.75412 0.82789 0.0
C3755 C 0.60687 0.73786 0.82772 0.0
C3756 C 0.60002 0.72647 0.81105 0.0
C3757 C 0.60638 0.7313 0.79452 0.0
C3758 C 0.61954 0.74756 0.79461 0.0
C3759 C 0.72278 0.79568 0.80165 0.0
C3760 C 0.72307 0.78441 0.78506 0.0
C3761 C 0.70628 0.79782 0.80789 0.0
C3762 C 0.68923 0.789 0.79771 0.0
C3763 C 0.68951 0.77769 0.78112 0.0
C3764 C 0.70605 0.77545 0.77492 0.0
C3765 C 0.6713 0.79109 0.80458 0.0
C3766 C 0.65686 0.77552 0.80428 0.0
C3767 C 0.66839 0.80818 0.81196 0.0
C3768 C 0.68176 0.82567 0.81139 0.0
C3769 C 0.6875 0.83047 0.79448 0.0
C3770 C 0.69939 0.84739 0.79388 0.0
C3771 C 0.70563 0.85964 0.8101 0.0
C3772 C 0.70002 0.85499 0.82697 0.0
C3773 C 0.6881 0.83811 0.82764 0.0
H3774 H 0.71473 0.87279 0.80963 0.0
H3775 H 0.58982 0.71389 0.81095 0.0
H3776 H 0.45323 0.49747 0.70509 0.0
H3777 H 0.46288 0.50114 0.67456 0.0
H3778 H 0.46395 0.55841 0.68373 0.0
H3779 H 0.45306 0.55439 0.71407 0.0
H3780 H 0.45443 0.54768 0.64876 0.0
H3781 H 0.50394 0.54048 0.68991 0.0
H3782 H 0.51984 0.52613 0.71281 0.0
H3783 H 0.51085 0.47755 0.67386 0.0
H3784 H 0.49469 0.49151 0.6508 0.0
H3785 H 0.51879 0.56441 0.57944 0.0
H3786 H 0.50613 0.56466 0.60927 0.0
H3787 H 0.48349 0.50663 0.59737 0.0
H3788 H 0.49548 0.50634 0.56755 0.0
H3789 H 0.50566 0.52074 0.63428 0.0
H3790 H 0.45574 0.52932 0.59325 0.0
H3791 H 0.44166 0.5453 0.57059 0.0
H3792 H 0.45378 0.59373 0.6102 0.0
H3793 H 0.4684 0.57817 0.63295 0.0
C3794 C 0.45523 0.5108 0.70048 0.0
C3795 C 0.45242 0.52564 0.71205 0.0
C3796 C 0.46099 0.51297 0.68304 0.0
C3797 C 0.4649 0.53022 0.67687 0.0
C3798 C 0.46127 0.54496 0.68807 0.0
C3799 C 0.45499 0.54266 0.70544 0.0
C3800 C 0.47326 0.53277 0.65911 0.0
C3801 C 0.46582 0.54201 0.64581 0.0
C3802 C 0.48815 0.5254 0.6549 0.0
C3803 C 0.49798 0.517 0.66868 0.0
C3804 C 0.50527 0.5267 0.68627 0.0
C3805 C 0.51433 0.51863 0.69927 0.0
C3806 C 0.51632 0.50093 0.6948 0.0
C3807 C 0.50929 0.49126 0.6773 0.0
C3808 C 0.5002 0.49925 0.66425 0.0
C3809 C 0.51101 0.55174 0.58314 0.0
C3810 C 0.50815 0.53537 0.57099 0.0
C3811 C 0.50375 0.5519 0.60019 0.0
C3812 C 0.49381 0.53565 0.60561 0.0
C3813 C 0.49106 0.51934 0.59354 0.0
C3814 C 0.49791 0.51924 0.57641 0.0
C3815 C 0.48665 0.53531 0.624 0.0
C3816 C 0.49437 0.52651 0.6374 0.0
C3817 C 0.47228 0.54332 0.62835 0.0
C3818 C 0.4634 0.55265 0.61472 0.0
C3819 C 0.45562 0.54345 0.59706 0.0
C3820 C 0.44751 0.55242 0.58421 0.0
C3821 C 0.44684 0.57053 0.58894 0.0
C3822 C 0.45432 0.57971 0.60654 0.0
C3823 C 0.46255 0.57082 0.61941 0.0
H3824 H 0.44049 0.57743 0.57899 0.0
H3825 H 0.52334 0.49471 0.70489 0.0
H3826 H 0.79804 0.18439 0.98618 0.0
H3827 H 0.78735 0.19883 0.96055 0.0
H3828 H 0.74696 0.149 0.93972 0.0
H3829 H 0.75806 0.13424 0.96534 0.0
H3830 H 0.76268 0.17018 0.91127 0.0
H3831 H 0.73154 0.17786 0.96466 0.0
H3832 H 0.72908 0.18441 -0.00203 0.0
H3833 H 0.76455 0.23766 3e-05 0.0
H3834 H 0.76706 0.23152 0.96667 0.0
H3835 H 0.72339 0.23031 0.86076 0.0
H3836 H 0.72414 0.20677 0.88108 0.0
H3837 H 0.76676 0.24473 0.91842 0.0
H3838 H 0.76574 0.26836 0.89848 0.0
H3839 H 0.7422 0.22415 0.93688 0.0
H3840 H 0.77625 0.2147 0.88463 0.0
H3841 H 0.77823 0.20899 0.85112 0.0
H3842 H 0.73699 0.15895 0.84673 0.0
H3843 H 0.73463 0.16451 0.88021 0.0
C3844 C 0.7873 0.17634 0.97577 0.0
C3845 C 0.77882 0.15829 0.97761 0.0
C3846 C 0.78115 0.1846 0.96122 0.0
C3847 C 0.76614 0.17507 0.94855 0.0
C3848 C 0.75853 0.15654 0.94945 0.0
C3849 C 0.76492 0.14812 0.96397 0.0
C3850 C 0.75748 0.18535 0.93591 0.0
C3851 C 0.75777 0.18171 0.91676 0.0
C3852 C 0.7511 0.20039 0.94316 0.0
C3853 C 0.74953 0.2042 0.96319 0.0
C3854 C 0.73886 0.19093 0.97223 0.0
C3855 C 0.73745 0.19458 0.99112 0.0
C3856 C 0.74676 0.21137 0.00114 0.0
C3857 C 0.75737 0.22464 0.99225 0.0
C3858 C 0.75871 0.22113 0.97334 0.0
C3859 C 0.73257 0.23373 0.87356 0.0
C3860 C 0.74459 0.2511 0.87805 0.0
C3861 C 0.7331 0.22025 0.88503 0.0
C3862 C 0.74569 0.22397 0.90107 0.0
C3863 C 0.75699 0.24159 0.90605 0.0
C3864 C 0.75647 0.25503 0.89463 0.0
C3865 C 0.74806 0.20946 0.9123 0.0
C3866 C 0.74658 0.21231 0.93127 0.0
C3867 C 0.75325 0.19372 0.90482 0.0
C3868 C 0.75513 0.19011 0.88486 0.0
C3869 C 0.76757 0.20251 0.8765 0.0
C3870 C 0.76876 0.19931 0.85752 0.0
C3871 C 0.7577 0.18364 0.84679 0.0
C3872 C 0.74552 0.1711 0.85505 0.0
C3873 C 0.74426 0.17426 0.87403 0.0
H3874 H 0.75859 0.18121 0.83209 0.0
H3875 H 0.7457 0.21413 0.01577 0.0
H3876 H 0.09586 0.48825 0.20182 0.0
H3877 H 0.08316 0.48611 0.16953 0.0
H3878 H 0.1351 0.51556 0.15666 0.0
H3879 H 0.14801 0.51742 0.18903 0.0
H3880 H 0.10684 0.53336 0.1523 0.0
H3881 H 0.11762 0.4757 0.13237 0.0
H3882 H 0.11795 0.44352 0.13379 0.0
H3883 H 0.05978 0.42893 0.13085 0.0
H3884 H 0.05908 0.46106 0.12965 0.0
H3885 H 0.06026 0.54344 0.06696 0.0
H3886 H 0.08211 0.53713 0.09051 0.0
H3887 H 0.03922 0.49656 0.1076 0.0
H3888 H 0.01772 0.50189 0.0829 0.0
H3889 H 0.06794 0.48373 0.10622 0.0
H3890 H 0.05709 0.54061 0.13227 0.0
H3891 H 0.05565 0.57281 0.13369 0.0
H3892 H 0.11248 0.58873 0.12793 0.0
H3893 H 0.11421 0.55658 0.12626 0.0
C3894 C 0.10475 0.49358 0.19193 0.0
C3895 C 0.12282 0.50315 0.19786 0.0
C3896 C 0.09752 0.49228 0.17348 0.0
C3897 C 0.1082 0.50075 0.16078 0.0
C3898 C 0.12671 0.50888 0.16629 0.0
C3899 C 0.13406 0.50988 0.18474 0.0
C3900 C 0.09904 0.50439 0.14339 0.0
C3901 C 0.09874 0.52256 0.14188 0.0
C3902 C 0.088 0.49021 0.1303 0.0
C3903 C 0.08832 0.47084 0.13102 0.0
C3904 C 0.1049 0.46566 0.13217 0.0
C3905 C 0.10515 0.44742 0.1329 0.0
C3906 C 0.0889 0.4342 0.13244 0.0
C3907 C 0.07235 0.43919 0.1312 0.0
C3908 C 0.07202 0.45741 0.13046 0.0
C3909 C 0.05567 0.53292 0.07554 0.0
C3910 C 0.0376 0.52268 0.07283 0.0
C3911 C 0.06805 0.52953 0.08918 0.0
C3912 C 0.06233 0.51635 0.10085 0.0
C3913 C 0.04399 0.50664 0.09862 0.0
C3914 C 0.03169 0.50982 0.0847 0.0
C3915 C 0.07539 0.51269 0.11541 0.0
C3916 C 0.07636 0.49457 0.11639 0.0
C3917 C 0.08683 0.52689 0.12829 0.0
C3918 C 0.08573 0.54618 0.12893 0.0
C3919 C 0.06924 0.55096 0.13112 0.0
C3920 C 0.06838 0.5692 0.13201 0.0
C3921 C 0.08396 0.58279 0.13088 0.0
C3922 C 0.10042 0.57818 0.12879 0.0
C3923 C 0.10135 0.55996 0.12788 0.0
H3924 H 0.08331 0.59691 0.13175 0.0
H3925 H 0.08912 0.42008 0.13301 0.0
H3926 H 0.78776 0.83415 0.49031 0.0
H3927 H 0.79069 0.82008 0.4594 0.0
H3928 H 0.78625 0.86937 0.43707 0.0
H3929 H 0.78362 0.88359 0.46801 0.0
H3930 H 0.7684 0.81141 0.42873 0.0
H3931 H 0.80963 0.87459 0.39981 0.0
H3932 H 0.83311 0.9029 0.41135 0.0
H3933 H 0.85106 0.87812 0.45739 0.0
H3934 H 0.82788 0.84958 0.44598 0.0
H3935 H 0.75726 0.79622 0.33161 0.0
H3936 H 0.75969 0.80869 0.36398 0.0
H3937 H 0.81708 0.81133 0.37034 0.0
H3938 H 0.81485 0.79921 0.33744 0.0
H3939 H 0.81165 0.84118 0.38812 0.0
H3940 H 0.78555 0.77776 0.38786 0.0
H3941 H 0.76403 0.74796 0.37728 0.0
H3942 H 0.71966 0.77037 0.39173 0.0
H3943 H 0.74089 0.80037 0.40219 0.0
C3944 C 0.78753 0.84205 0.47885 0.0
C3945 C 0.78548 0.86003 0.48168 0.0
C3946 C 0.78915 0.83395 0.46113 0.0
C3947 C 0.78887 0.84365 0.4458 0.0
C3948 C 0.78685 0.86164 0.44864 0.0
C3949 C 0.78525 0.86975 0.46636 0.0
C3950 C 0.79009 0.83477 0.4268 0.0
C3951 C 0.7779 0.81794 0.4199 0.0
C3952 C 0.80273 0.84296 0.41528 0.0
C3953 C 0.81689 0.86 0.42212 0.0
C3954 C 0.81864 0.87515 0.41234 0.0
C3955 C 0.83189 0.89125 0.41887 0.0
C3956 C 0.84353 0.89233 0.43512 0.0
C3957 C 0.84199 0.87729 0.44484 0.0
C3958 C 0.82879 0.86116 0.43836 0.0
C3959 C 0.77045 0.79928 0.33982 0.0
C3960 C 0.78585 0.79648 0.33181 0.0
C3961 C 0.77179 0.80641 0.35847 0.0
C3962 C 0.7885 0.81069 0.36986 0.0
C3963 C 0.80399 0.80808 0.36193 0.0
C3964 C 0.80269 0.80106 0.34311 0.0
C3965 C 0.78962 0.81809 0.3899 0.0
C3966 C 0.80222 0.83462 0.39699 0.0
C3967 C 0.77762 0.80943 0.40177 0.0
C3968 C 0.76481 0.79135 0.3957 0.0
C3969 C 0.7712 0.77636 0.3887 0.0
C3970 C 0.75905 0.75943 0.38273 0.0
C3971 C 0.74049 0.75728 0.38381 0.0
C3972 C 0.73404 0.77205 0.3909 0.0
C3973 C 0.74613 0.78902 0.39688 0.0
H3974 H 0.7311 0.74417 0.37916 0.0
H3975 H 0.85376 0.90481 0.44016 0.0
H3976 H 0.47004 0.51306 0.8014 0.0
H3977 H 0.48433 0.50976 0.83204 0.0
H3978 H 0.44583 0.53421 0.85815 0.0
H3979 H 0.43115 0.53699 0.82762 0.0
H3980 H 0.48587 0.54955 0.87187 0.0
H3981 H 0.43885 0.49295 0.85873 0.0
H3982 H 0.42301 0.4638 0.83974 0.0
H3983 H 0.47227 0.44551 0.84402 0.0
H3984 H 0.48848 0.4747 0.86279 0.0
H3985 H 0.49456 0.53877 0.96551 0.0
H3986 H 0.4838 0.53828 0.93317 0.0
H3987 H 0.51496 0.4998 0.91736 0.0
H3988 H 0.52585 0.50004 0.95026 0.0
H3989 H 0.48203 0.49062 0.89656 0.0
H3990 H 0.52884 0.54426 0.91145 0.0
H3991 H 0.54727 0.57367 0.92792 0.0
H3992 H 0.50246 0.59809 0.91777 0.0
H3993 H 0.48355 0.5687 0.90183 0.0
C3994 C 0.46455 0.51763 0.81366 0.0
C3995 C 0.44942 0.52529 0.81201 0.0
C3996 C 0.47272 0.5157 0.83118 0.0
C3997 C 0.46619 0.52173 0.84747 0.0
C3998 C 0.45114 0.52944 0.84583 0.0
C3999 C 0.44271 0.53098 0.82834 0.0
C4000 C 0.47526 0.52052 0.86624 0.0
C4001 C 0.48486 0.5367 0.87738 0.0
C4002 C 0.47471 0.50368 0.87311 0.0
C4003 C 0.46493 0.4861 0.86196 0.0
C4004 C 0.44635 0.48279 0.85546 0.0
C4005 C 0.4373 0.46625 0.84477 0.0
C4006 C 0.44665 0.45283 0.84062 0.0
C4007 C 0.46506 0.45592 0.84721 0.0
C4008 C 0.47418 0.47246 0.85788 0.0
C4009 C 0.49922 0.5301 0.95531 0.0
C4010 C 0.51122 0.51946 0.96074 0.0
C4011 C 0.49305 0.52993 0.93664 0.0
C4012 C 0.4987 0.51924 0.92258 0.0
C4013 C 0.5104 0.50826 0.92785 0.0
C4014 C 0.51668 0.50844 0.94671 0.0
C4015 C 0.49224 0.51981 0.90259 0.0
C4016 C 0.48318 0.50352 0.89114 0.0
C4017 C 0.4936 0.53658 0.89525 0.0
C4018 C 0.50469 0.55416 0.90556 0.0
C4019 C 0.5228 0.55581 0.913 0.0
C4020 C 0.53335 0.5725 0.92224 0.0
C4021 C 0.52604 0.58774 0.92395 0.0
C4022 C 0.50811 0.58627 0.91654 0.0
C4023 C 0.49745 0.56958 0.90742 0.0
H4024 H 0.53431 0.60069 0.93093 0.0
H4025 H 0.43961 0.44003 0.83235 0.0
H4026 H 0.75695 0.19139 0.0717 0.0
H4027 H 0.76412 0.20714 0.10324 0.0
H4028 H 0.80713 0.17994 0.11347 0.0
H4029 H 0.79976 0.16372 0.08168 0.0
H4030 H 0.78745 0.18494 0.14461 0.0
H4031 H 0.81938 0.22038 0.10237 0.0
H4032 H 0.82252 0.2341 0.07341 0.0
H4033 H 0.78426 0.26538 0.0871 0.0
H4034 H 0.78066 0.25162 0.11601 0.0
H4035 H 0.8162 0.25073 0.22436 0.0
H4036 H 0.81895 0.23358 0.195 0.0
H4037 H 0.77752 0.25509 0.16738 0.0
H4038 H 0.77516 0.27278 0.19657 0.0
H4039 H 0.80307 0.25227 0.1457 0.0
H4040 H 0.7678 0.21328 0.18515 0.0
H4041 H 0.76463 0.20028 0.21454 0.0
H4042 H 0.80941 0.17616 0.20648 0.0
H4043 H 0.813 0.18924 0.17714 0.0
C4044 C 0.76776 0.18852 0.08072 0.0
C4045 C 0.77802 0.17658 0.07417 0.0
C4046 C 0.77183 0.19751 0.09873 0.0
C4047 C 0.78641 0.195 0.11047 0.0
C4048 C 0.7959 0.18211 0.10451 0.0
C4049 C 0.79168 0.17289 0.0864 0.0
C4050 C 0.79243 0.20712 0.12823 0.0
C4051 C 0.79125 0.19964 0.14492 0.0
C4052 C 0.79732 0.22631 0.12854 0.0
C4053 C 0.7997 0.2349 0.11133 0.0
C4054 C 0.81157 0.23011 0.09916 0.0
C4055 C 0.81343 0.2379 0.08275 0.0
C4056 C 0.80358 0.25059 0.07841 0.0
C4057 C 0.79188 0.25555 0.09049 0.0
C4058 C 0.78995 0.24778 0.1069 0.0
C4059 C 0.80792 0.25206 0.21194 0.0
C4060 C 0.79529 0.2629 0.21272 0.0
C4061 C 0.80947 0.24221 0.19522 0.0
C4062 C 0.79811 0.24272 0.17915 0.0
C4063 C 0.78634 0.25444 0.17968 0.0
C4064 C 0.78499 0.26454 0.19634 0.0
C4065 C 0.79741 0.23015 0.16206 0.0
C4066 C 0.79965 0.23756 0.14546 0.0
C4067 C 0.7935 0.21095 0.16189 0.0
C4068 C 0.79075 0.20234 0.17903 0.0
C4069 C 0.77697 0.2052 0.18965 0.0
C4070 C 0.77511 0.19785 0.20631 0.0
C4071 C 0.78683 0.18742 0.21238 0.0
C4072 C 0.80035 0.18424 0.20175 0.0
C4073 C 0.80229 0.1916 0.1851 0.0
H4074 H 0.78541 0.18179 0.22531 0.0
H4075 H 0.80503 0.25659 0.06569 0.0
H4076 H 0.11414 0.52705 0.28169 0.0
H4077 H 0.10241 0.53727 0.30962 0.0
H4078 H 0.1542 0.54185 0.3416 0.0
H4079 H 0.16629 0.532 0.31334 0.0
H4080 H 0.0979 0.52113 0.33938 0.0
H4081 H 0.15894 0.57593 0.379 0.0
H4082 H 0.18635 0.59768 0.37238 0.0
H4083 H 0.1598 0.60021 0.31861 0.0
H4084 H 0.13213 0.57871 0.32502 0.0
H4085 H 0.08031 0.54129 0.43028 0.0
H4086 H 0.09874 0.53655 0.40554 0.0
H4087 H 0.08736 0.58316 0.38237 0.0
H4088 H 0.06887 0.58809 0.40728 0.0
H4089 H 0.12438 0.57919 0.38096 0.0
H4090 H 0.06192 0.54573 0.36549 0.0
H4091 H 0.03344 0.52473 0.37063 0.0
H4092 H 0.0605 0.48122 0.37247 0.0
H4093 H 0.08931 0.50212 0.36786 0.0
C4094 C 0.12312 0.53033 0.29461 0.0
C4095 C 0.14113 0.52871 0.29536 0.0
C4096 C 0.11636 0.53613 0.31058 0.0
C4097 C 0.12743 0.54035 0.32765 0.0
C4098 C 0.1455 0.53885 0.3285 0.0
C4099 C 0.15235 0.53315 0.3124 0.0
C4100 C 0.11959 0.54564 0.34452 0.0
C4101 C 0.10377 0.5338 0.34849 0.0
C4102 C 0.12716 0.56225 0.35629 0.0
C4103 C 0.14354 0.57555 0.35243 0.0
C4104 C 0.15892 0.5812 0.3658 0.0
C4105 C 0.1745 0.59348 0.36208 0.0
C4106 C 0.17483 0.60027 0.34506 0.0
C4107 C 0.15954 0.59488 0.33176 0.0
C4108 C 0.14391 0.58264 0.33543 0.0
C4109 C 0.08209 0.55082 0.4202 0.0
C4110 C 0.07313 0.56505 0.42064 0.0
C4111 C 0.09259 0.54807 0.40607 0.0
C4112 C 0.09432 0.55949 0.39218 0.0
C4113 C 0.0862 0.57428 0.39307 0.0
C4114 C 0.07554 0.57697 0.40715 0.0
C4115 C 0.10279 0.55465 0.37566 0.0
C4116 C 0.11869 0.5665 0.37185 0.0
C4117 C 0.09513 0.53818 0.36376 0.0
C4118 C 0.07784 0.52557 0.3666 0.0
C4119 C 0.06187 0.53175 0.36724 0.0
C4120 C 0.04566 0.51986 0.37004 0.0
C4121 C 0.04519 0.50167 0.37198 0.0
C4122 C 0.06092 0.49534 0.37107 0.0
C4123 C 0.0772 0.50721 0.36838 0.0
H4124 H 0.03262 0.49247 0.37411 0.0
H4125 H 0.18692 0.60974 0.34219 0.0
H4126 H 0.78183 0.82419 0.57259 0.0
H4127 H 0.77705 0.81602 0.60334 0.0
H4128 H 0.77624 0.87141 0.62248 0.0
H4129 H 0.78098 0.87981 0.59135 0.0
H4130 H 0.79821 0.85628 0.64715 0.0
H4131 H 0.73756 0.84053 0.61643 0.0
H4132 H 0.71291 0.82654 0.59115 0.0
H4133 H 0.72088 0.77344 0.59807 0.0
H4134 H 0.74578 0.78713 0.62322 0.0
H4135 H 0.77264 0.82718 0.73341 0.0
H4136 H 0.77312 0.84102 0.70458 0.0
H4137 H 0.76774 0.78825 0.6733 0.0
H4138 H 0.76693 0.77434 0.70185 0.0
H4139 H 0.74672 0.80562 0.65588 0.0
H4140 H 0.80922 0.82116 0.68363 0.0
H4141 H 0.83453 0.83454 0.70843 0.0
H4142 H 0.8237 0.88734 0.7067 0.0
H4143 H 0.79813 0.87421 0.68206 0.0
C4144 C 0.78059 0.83472 0.58324 0.0
C4145 C 0.78181 0.85272 0.57937 0.0
C4146 C 0.77778 0.82997 0.60088 0.0
C4147 C 0.77617 0.84303 0.61528 0.0
C4148 C 0.77742 0.86106 0.6116 0.0
C4149 C 0.78003 0.86582 0.59377 0.0
C4150 C 0.77339 0.83758 0.63409 0.0
C4151 C 0.78674 0.84547 0.64916 0.0
C4152 C 0.75866 0.8232 0.63671 0.0
C4153 C 0.74363 0.81488 0.62163 0.0
C4154 C 0.73415 0.82588 0.61247 0.0
C4155 C 0.72012 0.818 0.59818 0.0
C4156 C 0.71535 0.79912 0.59298 0.0
C4157 C 0.7246 0.78807 0.6021 0.0
C4158 C 0.73866 0.79588 0.61639 0.0
C4159 C 0.77145 0.8185 0.72038 0.0
C4160 C 0.76977 0.7996 0.72005 0.0
C4161 C 0.77183 0.82646 0.70387 0.0
C4162 C 0.77068 0.81576 0.68665 0.0
C4163 C 0.76864 0.79687 0.68632 0.0
C4164 C 0.76823 0.78891 0.70275 0.0
C4165 C 0.77173 0.82403 0.66892 0.0
C4166 C 0.75806 0.81662 0.65399 0.0
C4167 C 0.78623 0.83876 0.66643 0.0
C4168 C 0.80163 0.84667 0.68116 0.0
C4169 C 0.81214 0.8356 0.68864 0.0
C4170 C 0.82655 0.84314 0.70264 0.0
C4171 C 0.83069 0.86177 0.70917 0.0
C4172 C 0.82046 0.87291 0.70166 0.0
C4173 C 0.80601 0.86543 0.68767 0.0
H4174 H 0.84185 0.86758 0.72001 0.0
H4175 H 0.70448 0.79305 0.58191 0.0
H4176 H 0.75328 0.45513 0.52477 0.0
H4177 H 0.73227 0.47166 0.53739 0.0
H4178 H 0.68704 0.42652 0.51477 0.0
H4179 H 0.70798 0.40989 0.50199 0.0
H4180 H 0.68145 0.45943 0.50734 0.0
H4181 H 0.7005 0.43321 0.56008 0.0
H4182 H 0.72251 0.42587 0.58315 0.0
H4183 H 0.74441 0.48295 0.60204 0.0
H4184 H 0.7227 0.49065 0.57887 0.0
H4185 H 0.61525 0.49101 0.54929 0.0
H4186 H 0.63606 0.47116 0.54582 0.0
H4187 H 0.68174 0.51751 0.56263 0.0
H4188 H 0.66084 0.53751 0.56619 0.0
H4189 H 0.68653 0.48307 0.57412 0.0
H4190 H 0.66905 0.50922 0.52019 0.0
H4191 H 0.6466 0.51688 0.49786 0.0
H4192 H 0.62218 0.45993 0.48093 0.0
H4193 H 0.64409 0.45189 0.50369 0.0
C4194 C 0.73886 0.44871 0.52248 0.0
C4195 C 0.73225 0.43123 0.5124 0.0
C4196 C 0.72691 0.45812 0.5298 0.0
C4197 C 0.70816 0.45019 0.52717 0.0
C4198 C 0.70149 0.4328 0.51698 0.0
C4199 C 0.71345 0.42334 0.50972 0.0
C4200 C 0.69549 0.46036 0.53456 0.0
C4201 C 0.68237 0.46432 0.52197 0.0
C4202 C 0.69703 0.46709 0.55361 0.0
C4203 C 0.71007 0.46251 0.56761 0.0
C4204 C 0.71011 0.44421 0.56904 0.0
C4205 C 0.72251 0.43998 0.58216 0.0
C4206 C 0.73488 0.45394 0.59402 0.0
C4207 C 0.73484 0.47215 0.59282 0.0
C4208 C 0.72247 0.47646 0.57971 0.0
C4209 C 0.62972 0.49686 0.55271 0.0
C4210 C 0.63657 0.51576 0.55766 0.0
C4211 C 0.64155 0.48553 0.55079 0.0
C4212 C 0.66036 0.49299 0.55367 0.0
C4213 C 0.66722 0.51158 0.56035 0.0
C4214 C 0.65533 0.52296 0.56234 0.0
C4215 C 0.67258 0.48202 0.5469 0.0
C4216 C 0.6856 0.47801 0.55953 0.0
C4217 C 0.67102 0.47525 0.52787 0.0
C4218 C 0.65808 0.47996 0.51382 0.0
C4219 C 0.65878 0.49832 0.51185 0.0
C4220 C 0.64613 0.50273 0.49915 0.0
C4221 C 0.63288 0.48889 0.4881 0.0
C4222 C 0.63235 0.47061 0.48963 0.0
C4223 C 0.64486 0.46612 0.50245 0.0
H4224 H 0.62306 0.49235 0.47833 0.0
H4225 H 0.74448 0.45064 0.60417 0.0
H4226 H 0.2004 0.17433 0.49061 0.0
H4227 H 0.1722 0.15151 0.49169 0.0
H4228 H 0.20293 0.11345 0.50773 0.0
H4229 H 0.23124 0.13611 0.50646 0.0
H4230 H 0.17384 0.09628 0.48312 0.0
H4231 H 0.18451 0.13665 0.5399 0.0
H4232 H 0.19097 0.16627 0.55979 0.0
H4233 H 0.1417 0.17659 0.53485 0.0
H4234 H 0.13507 0.14713 0.5146 0.0
H4235 H 0.09881 0.03755 0.51767 0.0
H4236 H 0.12832 0.05783 0.51471 0.0
H4237 H 0.10115 0.09738 0.49531 0.0
H4238 H 0.07182 0.07735 0.49814 0.0
H4239 H 0.12923 0.11293 0.52267 0.0
H4240 H 0.11908 0.07222 0.46549 0.0
H4241 H 0.11284 0.04227 0.44624 0.0
H4242 H 0.16141 0.0321 0.47303 0.0
H4243 H 0.16781 0.06191 0.49264 0.0
C4244 C 0.20122 0.16108 0.49424 0.0
C4245 C 0.21818 0.15718 0.49857 0.0
C4246 C 0.18504 0.14804 0.49494 0.0
C4247 C 0.1854 0.13081 0.50009 0.0
C4248 C 0.20227 0.12664 0.50379 0.0
C4249 C 0.21847 0.13967 0.50309 0.0
C4250 C 0.16819 0.11739 0.50207 0.0
C4251 C 0.1642 0.09985 0.49197 0.0
C4252 C 0.15546 0.12203 0.51345 0.0
C4253 C 0.15939 0.13976 0.5256 0.0
C4254 C 0.17513 0.1453 0.53855 0.0
C4255 C 0.17881 0.16205 0.5499 0.0
C4256 C 0.16678 0.17333 0.54855 0.0
C4257 C 0.15102 0.16785 0.53586 0.0
C4258 C 0.14729 0.15112 0.52445 0.0
C4259 C 0.09913 0.05049 0.51263 0.0
C4260 C 0.0829 0.05575 0.5081 0.0
C4261 C 0.116 0.06206 0.51092 0.0
C4262 C 0.11696 0.07913 0.50474 0.0
C4263 C 0.10078 0.08431 0.50013 0.0
C4264 C 0.08397 0.07275 0.50167 0.0
C4265 C 0.13476 0.09192 0.50353 0.0
C4266 C 0.13888 0.10935 0.51385 0.0
C4267 C 0.14762 0.08711 0.49245 0.0
C4268 C 0.14381 0.0692 0.48068 0.0
C4269 C 0.12834 0.06353 0.4674 0.0
C4270 C 0.12479 0.04659 0.4564 0.0
C4271 C 0.13669 0.03526 0.45845 0.0
C4272 C 0.15219 0.04087 0.47148 0.0
C4273 C 0.15579 0.05779 0.48253 0.0
H4274 H 0.13393 0.02216 0.44991 0.0
H4275 H 0.16965 0.18629 0.55736 0.0
H4276 H 0.18068 0.00971 0.77383 0.0
H4277 H 0.19686 0.98576 0.76968 0.0
H4278 H 0.14603 0.94491 0.76259 0.0
H4279 H 0.12976 0.96903 0.76771 0.0
H4280 H 0.1696 0.9334 0.78265 0.0
H4281 H 0.17186 0.95816 0.72501 0.0
H4282 H 0.17779 0.98241 0.70488 0.0
H4283 H 0.23422 0.99711 0.72694 0.0
H4284 H 0.22859 0.9731 0.74737 0.0
H4285 H 0.21083 0.86235 0.74991 0.0
H4286 H 0.19216 0.88445 0.75243 0.0
H4287 H 0.24056 0.92848 0.76335 0.0
H4288 H 0.25928 0.90658 0.76006 0.0
H4289 H 0.21667 0.93706 0.73985 0.0
H4290 H 0.21408 0.91319 0.79834 0.0
H4291 H 0.20817 0.88903 0.81858 0.0
H4292 H 0.15233 0.87241 0.7945 0.0
H4293 H 0.15795 0.89637 0.77398 0.0
C4294 C 0.17287 0.99565 0.77124 0.0
C4295 C 0.15386 0.99134 0.77093 0.0
C4296 C 0.18218 0.98188 0.76876 0.0
C4297 C 0.17275 0.96338 0.76535 0.0
C4298 C 0.15371 0.95902 0.76508 0.0
C4299 C 0.14438 0.97284 0.76792 0.0
C4300 C 0.18284 0.94871 0.7625 0.0
C4301 C 0.17966 0.93408 0.77303 0.0
C4302 C 0.19631 0.94959 0.75025 0.0
C4303 C 0.19977 0.9639 0.73781 0.0
C4304 C 0.18552 0.96662 0.72563 0.0
C4305 C 0.18883 0.98032 0.71416 0.0
C4306 C 0.20637 0.99131 0.71466 0.0
C4307 C 0.22064 0.98859 0.72658 0.0
C4308 C 0.2174 0.97492 0.73809 0.0
C4309 C 0.21755 0.87674 0.75268 0.0
C4310 C 0.23668 0.88256 0.75482 0.0
C4311 C 0.20681 0.8894 0.75435 0.0
C4312 C 0.21487 0.90823 0.75835 0.0
C4313 C 0.23392 0.91407 0.76034 0.0
C4314 C 0.24467 0.90145 0.75863 0.0
C4315 C 0.20357 0.92192 0.76013 0.0
C4316 C 0.20652 0.93635 0.74937 0.0
C4317 C 0.18988 0.92081 0.77212 0.0
C4318 C 0.18648 0.90645 0.7845 0.0
C4319 C 0.20057 0.9043 0.79728 0.0
C4320 C 0.19727 0.89066 0.80882 0.0
C4321 C 0.1799 0.87916 0.8078 0.0
C4322 C 0.16578 0.88132 0.79527 0.0
C4323 C 0.16901 0.89494 0.78369 0.0
H4324 H 0.17737 0.86861 0.81674 0.0
H4325 H 0.2089 0.00192 0.70578 0.0
H4326 H 0.31191 0.94625 0.98594 0.0
H4327 H 0.34273 0.96573 0.98911 0.0
H4328 H 0.36467 0.91868 0.99323 0.0
H4329 H 0.33386 0.89901 0.98995 0.0
H4330 H 0.37879 0.94851 0.0223 0.0
H4331 H 0.36718 0.93688 0.95523 0.0
H4332 H 0.34981 0.93649 0.92492 0.0
H4333 H 0.35632 0.99443 0.93578 0.0
H4334 H 0.37352 0.99513 0.96629 0.0
H4335 H 0.47061 0.97876 0.01529 0.0
H4336 H 0.43853 0.96357 0.01093 0.0
H4337 H 0.42521 0.0135 -0.00158 0.0
H4338 H 0.4577 0.02884 0.00221 0.0
H4339 H 0.40539 0.9853 0.97501 0.0
H4340 H 0.41851 -0.00159 0.04038 0.0
H4341 H 0.43586 0.00015 0.07101 0.0
H4342 H 0.4258 0.94174 0.06482 0.0
H4343 H 0.40859 0.93964 0.03403 0.0
C4344 C 0.32329 0.94 0.9873 0.0
C4345 C 0.32047 0.92109 0.98776 0.0
C4346 C 0.34086 0.95115 0.98908 0.0
C4347 C 0.35588 0.9436 0.99145 0.0
C4348 C 0.35317 0.9247 0.99145 0.0
C4349 C 0.33558 0.91349 0.98945 0.0
C4350 C 0.37446 0.95552 0.99475 0.0
C4351 C 0.38473 0.95642 0.01193 0.0
C4352 C 0.38175 0.96644 0.98148 0.0
C4353 C 0.37146 0.96602 0.96312 0.0
C4354 C 0.36476 0.94951 0.95123 0.0
C4355 C 0.35498 0.94924 0.934 0.0
C4356 C 0.35192 0.96542 0.92845 0.0
C4357 C 0.35868 0.98191 0.94011 0.0
C4358 C 0.36845 0.98225 0.95736 0.0
C4359 C 0.46092 0.98661 0.01169 0.0
C4360 C 0.46669 0.00505 0.00919 0.0
C4361 C 0.44254 0.97789 0.00929 0.0
C4362 C 0.42947 0.98749 0.00474 0.0
C4363 C 0.43512 0.00589 0.00205 0.0
C4364 C 0.45363 0.01462 0.00424 0.0
C4365 C 0.40998 0.97795 0.00242 0.0
C4366 C 0.39946 0.97756 0.9855 0.0
C4367 C 0.40232 0.96773 0.01607 0.0
C4368 C 0.41232 0.96888 0.03481 0.0
C4369 C 0.42006 0.98593 0.0455 0.0
C4370 C 0.42988 0.98699 0.0629 0.0
C4371 C 0.43197 0.97107 0.06984 0.0
C4372 C 0.42417 0.95406 0.05942 0.0
C4373 C 0.41435 0.95293 0.04201 0.0
H4374 H 0.4396 0.97192 0.08329 0.0
H4375 H 0.34434 0.96518 0.9151 0.0
H4376 H 0.89602 0.59526 0.78034 0.0
H4377 H 0.87697 0.61416 0.76801 0.0
H4378 H 0.82888 0.57315 0.77418 0.0
H4379 H 0.8479 0.55383 0.78543 0.0
H4380 H 0.82322 0.58541 0.74378 0.0
H4381 H 0.84682 0.61422 0.80589 0.0
H4382 H 0.87061 0.62841 0.83194 0.0
H4383 H 0.89349 0.67023 0.79984 0.0
H4384 H 0.86995 0.65616 0.7735 0.0
H4385 H 0.76039 0.64195 0.74635 0.0
H4386 H 0.78022 0.62161 0.75239 0.0
H4387 H 0.82568 0.66114 0.7382 0.0
H4388 H 0.80615 0.6818 0.73282 0.0
H4389 H 0.83328 0.65004 0.77113 0.0
H4390 H 0.80679 0.62122 0.70964 0.0
H4391 H 0.78146 0.60687 0.68514 0.0
H4392 H 0.76212 0.56469 0.71824 0.0
H4393 H 0.78719 0.57893 0.74305 0.0
C4394 C 0.88138 0.59033 0.77902 0.0
C4395 C 0.87339 0.57318 0.7839 0.0
C4396 C 0.8705 0.60115 0.77206 0.0
C4397 C 0.85146 0.59525 0.7705 0.0
C4398 C 0.84352 0.57801 0.77524 0.0
C4399 C 0.85439 0.56701 0.78173 0.0
C4400 C 0.83974 0.60702 0.76407 0.0
C4401 C 0.82533 0.59949 0.74991 0.0
C4402 C 0.84263 0.6255 0.77181 0.0
C4403 C 0.85674 0.63403 0.78767 0.0
C4404 C 0.857 0.62638 0.80435 0.0
C4405 C 0.87043 0.63441 0.81917 0.0
C4406 C 0.88358 0.65018 0.81753 0.0
C4407 C 0.88331 0.658 0.80108 0.0
C4408 C 0.86992 0.65001 0.78621 0.0
C4409 C 0.77458 0.64623 0.74437 0.0
C4410 C 0.7817 0.66349 0.73913 0.0
C4411 C 0.78585 0.63454 0.74768 0.0
C4412 C 0.80439 0.63985 0.74564 0.0
C4413 C 0.81139 0.65678 0.7398 0.0
C4414 C 0.80016 0.66849 0.73655 0.0
C4415 C 0.81677 0.62839 0.75095 0.0
C4416 C 0.83128 0.63599 0.76494 0.0
C4417 C 0.81376 0.60991 0.74328 0.0
C4418 C 0.7988 0.60123 0.72826 0.0
C4419 C 0.79707 0.60895 0.71175 0.0
C4420 C 0.78277 0.60082 0.69779 0.0
C4421 C 0.77017 0.58489 0.70014 0.0
C4422 C 0.77188 0.57703 0.71643 0.0
C4423 C 0.78615 0.58511 0.73044 0.0
H4424 H 0.7591 0.57863 0.68933 0.0
H4425 H 0.89397 0.65637 0.82901 0.0
H4426 H 0.83388 0.68287 0.01403 0.0
H4427 H 0.85806 0.66661 0.01719 0.0
H4428 H 0.82069 0.62167 0.03498 0.0
H4429 H 0.7966 0.63784 0.03199 0.0
H4430 H 0.85349 0.62765 0.05469 0.0
H4431 H 0.82958 0.62011 0.99043 0.0
H4432 H 0.82109 0.63038 0.96071 0.0
H4433 H 0.87665 0.65855 0.95942 0.0
H4434 H 0.88542 0.64866 0.9893 0.0
H4435 H 0.90066 0.56089 0.00052 0.0
H4436 H 0.87969 0.58059 0.00165 0.0
H4437 H 0.91157 0.6125 0.05111 0.0
H4438 H 0.932 0.59206 0.0508 0.0
H4439 H 0.88231 0.61422 -0.0015 0.0
H4440 H 0.88506 0.63199 0.07757 0.0
H4441 H 0.8908 0.61876 0.10628 0.0
H4442 H 0.87293 0.56479 0.07619 0.0
H4443 H 0.86689 0.5777 0.04736 0.0
C4444 C 0.8309 0.66965 0.01889 0.0
C4445 C 0.81327 0.66163 0.02267 0.0
C4446 C 0.84471 0.66031 0.0206 0.0
C4447 C 0.84118 0.64277 0.02612 0.0
C4448 C 0.8238 0.63515 0.0307 0.0
C4449 C 0.81 0.64442 0.02892 0.0
C4450 C 0.85517 0.6319 0.0262 0.0
C4451 C 0.85989 0.62483 0.04244 0.0
C4452 C 0.86333 0.62788 0.01016 0.0
C4453 C 0.85811 0.63383 0.9922 0.0
C4454 C 0.83996 0.62863 0.98389 0.0
C4455 C 0.8351 0.63435 0.967 0.0
C4456 C 0.84831 0.64516 0.95821 0.0
C4457 C 0.86642 0.65022 0.96627 0.0
C4458 C 0.87135 0.64455 0.98318 0.0
C4459 C 0.90308 0.57184 0.01191 0.0
C4460 C 0.918 0.57459 0.02573 0.0
C4461 C 0.89115 0.58332 0.01237 0.0
C4462 C 0.89382 0.598 0.02658 0.0
C4463 C 0.90893 0.6011 0.04017 0.0
C4464 C 0.92078 0.58947 0.03984 0.0
C4465 C 0.88071 0.60992 0.02703 0.0
C4466 C 0.87612 0.61721 0.01086 0.0
C4467 C 0.87236 0.61377 0.04302 0.0
C4468 C 0.87572 0.60583 0.06029 0.0
C4469 C 0.8823 0.6173 0.0771 0.0
C4470 C 0.88562 0.60986 0.09339 0.0
C4471 C 0.88229 0.59095 0.09304 0.0
C4472 C 0.87557 0.57944 0.07642 0.0
C4473 C 0.87221 0.58681 0.0601 0.0
H4474 H 0.88488 0.58521 0.10566 0.0
H4475 H 0.84453 0.64957 0.94513 0.0
H4476 H 0.17351 0.07733 0.78441 0.0
H4477 H 0.19587 0.10599 0.78371 0.0
H4478 H 0.15756 0.13616 0.80103 0.0
H4479 H 0.135 0.10756 0.80148 0.0
H4480 H 0.17302 0.15015 0.77334 0.0
H4481 H 0.19488 0.13294 0.83071 0.0
H4482 H 0.20531 0.11271 0.8512 0.0
H4483 H 0.2497 0.11068 0.81966 0.0
H4484 H 0.23938 0.13072 0.79881 0.0
H4485 H 0.2315 0.23767 0.79678 0.0
H4486 H 0.21201 0.20796 0.79938 0.0
H4487 H 0.25039 0.18142 0.77577 0.0
H4488 H 0.27019 0.21133 0.77307 0.0
H4489 H 0.23584 0.16517 0.80582 0.0
H4490 H 0.21388 0.18312 0.74884 0.0
H4491 H 0.20355 0.20407 0.72918 0.0
H4492 H 0.15912 0.20509 0.76093 0.0
H4493 H 0.16935 0.18435 0.78097 0.0
C4494 C 0.16984 0.09004 0.78824 0.0
C4495 C 0.15236 0.09003 0.79302 0.0
C4496 C 0.18272 0.10648 0.78788 0.0
C4497 C 0.17854 0.12335 0.79245 0.0
C4498 C 0.16117 0.12338 0.79742 0.0
C4499 C 0.14827 0.10695 0.79775 0.0
C4500 C 0.19197 0.14094 0.79146 0.0
C4501 C 0.18666 0.15348 0.78066 0.0
C4502 C 0.21 0.14522 0.80057 0.0
C4503 C 0.21624 0.13317 0.81308 0.0
C4504 C 0.20678 0.12806 0.82805 0.0
C4505 C 0.21269 0.11665 0.83974 0.0
C4506 C 0.22813 0.11037 0.8367 0.0
C4507 C 0.23772 0.11553 0.82198 0.0
C4508 C 0.23186 0.12693 0.81023 0.0
C4509 C 0.23598 0.22558 0.79224 0.0
C4510 C 0.25246 0.22698 0.78459 0.0
C4511 C 0.22472 0.20855 0.7937 0.0
C4512 C 0.22957 0.19241 0.78755 0.0
C4513 C 0.24632 0.19368 0.78056 0.0
C4514 C 0.25762 0.2108 0.779 0.0
C4515 C 0.21676 0.17433 0.78788 0.0
C4516 C 0.22219 0.16174 0.79849 0.0
C4517 C 0.19879 0.17 0.77867 0.0
C4518 C 0.19247 0.1823 0.76651 0.0
C4519 C 0.20198 0.18791 0.75171 0.0
C4520 C 0.19613 0.19973 0.74049 0.0
C4521 C 0.18071 0.20594 0.74383 0.0
C4522 C 0.17108 0.20029 0.75837 0.0
C4523 C 0.17688 0.18848 0.76965 0.0
H4524 H 0.17621 0.2151 0.73513 0.0
H4525 H 0.23269 0.10154 0.84578 0.0
H4526 H 0.41009 0.96823 0.31954 0.0
H4527 H 0.39078 0.93719 0.31589 0.0
H4528 H 0.34454 0.95683 0.29663 0.0
H4529 H 0.36352 0.98783 0.30054 0.0
H4530 H 0.33475 0.9312 0.31814 0.0
H4531 H 0.36815 0.93867 0.26598 0.0
H4532 H 0.39562 0.94634 0.25024 0.0
H4533 H 0.41569 0.90427 0.27364 0.0
H4534 H 0.38843 0.89652 0.28973 0.0
H4535 H 0.30202 0.83804 0.25317 0.0
H4536 H 0.31955 0.86986 0.25949 0.0
H4537 H 0.32182 0.86697 0.31826 0.0
H4538 H 0.30402 0.83543 0.31211 0.0
H4539 H 0.35281 0.88464 0.27607 0.0
H4540 H 0.32185 0.90793 0.3413 0.0
H4541 H 0.29259 0.90128 0.35416 0.0
H4542 H 0.26421 0.88342 0.29933 0.0
H4543 H 0.29326 0.8902 0.28613 0.0
C4544 C 0.39576 0.966 0.3148 0.0
C4545 C 0.38842 0.98051 0.31012 0.0
C4546 C 0.38477 0.94824 0.31264 0.0
C4547 C 0.36631 0.94469 0.30568 0.0
C4548 C 0.35876 0.95926 0.30196 0.0
C4549 C 0.36969 0.97699 0.30415 0.0
C4550 C 0.35502 0.92575 0.30124 0.0
C4551 C 0.33873 0.92098 0.30903 0.0
C4552 C 0.35999 0.91258 0.28894 0.0
C4553 C 0.37635 0.91715 0.27921 0.0
C4554 C 0.37849 0.93115 0.26788 0.0
C4555 C 0.39401 0.93549 0.25887 0.0
C4556 C 0.40742 0.92583 0.26098 0.0
C4557 C 0.40531 0.91176 0.27205 0.0
C4558 C 0.38982 0.90738 0.2811 0.0
C4559 C 0.30616 0.84422 0.26743 0.0
C4560 C 0.30155 0.83425 0.28213 0.0
C4561 C 0.31622 0.86237 0.27102 0.0
C4562 C 0.32182 0.87083 0.28935 0.0
C4563 C 0.31735 0.86083 0.30402 0.0
C4564 C 0.30722 0.84276 0.30046 0.0
C4565 C 0.33264 0.89 0.29318 0.0
C4566 C 0.34886 0.89481 0.28528 0.0
C4567 C 0.32734 0.90333 0.30498 0.0
C4568 C 0.30976 0.8994 0.31276 0.0
C4569 C 0.30936 0.90265 0.33199 0.0
C4570 C 0.29281 0.89885 0.33933 0.0
C4571 C 0.27656 0.89188 0.32757 0.0
C4572 C 0.27682 0.88875 0.30843 0.0
C4573 C 0.29332 0.89255 0.30101 0.0
H4574 H 0.26377 0.88893 0.33329 0.0
H4575 H 0.41942 0.92922 0.25399 0.0
H4576 H 0.5615 0.36007 0.62017 0.0
H4577 H 0.55908 0.38809 0.60767 0.0
H4578 H 0.55206 0.35992 0.55215 0.0
H4579 H 0.55513 0.33186 0.56475 0.0
H4580 H 0.57051 0.39253 0.55047 0.0
H4581 H 0.51551 0.37225 0.57662 0.0
H4582 H 0.49618 0.36209 0.60057 0.0
H4583 H 0.51958 0.41285 0.6355 0.0
H4584 H 0.53923 0.42323 0.61185 0.0
H4585 H 0.53221 0.46142 0.51012 0.0
H4586 H 0.53654 0.43306 0.52124 0.0
H4587 H 0.556 0.46226 0.57582 0.0
H4588 H 0.5522 0.49064 0.5647 0.0
H4589 H 0.53069 0.42898 0.5771 0.0
H4590 H 0.58544 0.449 0.54968 0.0
H4591 H 0.60368 0.4587 0.52474 0.0
H4592 H 0.57882 0.40768 0.49081 0.0
H4593 H 0.56025 0.39777 0.51543 0.0
C4594 C 0.55953 0.35974 0.60527 0.0
C4595 C 0.55849 0.34336 0.59362 0.0
C4596 C 0.55794 0.37594 0.59802 0.0
C4597 C 0.55486 0.37652 0.57874 0.0
C4598 C 0.5543 0.36025 0.56704 0.0
C4599 C 0.55606 0.34403 0.57431 0.0
C4600 C 0.55218 0.39389 0.57097 0.0
C4601 C 0.56155 0.40023 0.55622 0.0
C4602 C 0.54075 0.40462 0.57829 0.0
C4603 C 0.52898 0.39844 0.59254 0.0
C4604 C 0.51663 0.38119 0.58947 0.0
C4605 C 0.5056 0.3754 0.60298 0.0
C4606 C 0.50669 0.38679 0.61957 0.0
C4607 C 0.51877 0.40403 0.62266 0.0
C4608 C 0.52985 0.40988 0.6092 0.0
C4609 C 0.53752 0.4619 0.52448 0.0
C4610 C 0.54187 0.47864 0.53637 0.0
C4611 C 0.54005 0.44554 0.53088 0.0
C4612 C 0.54668 0.44516 0.54953 0.0
C4613 C 0.55086 0.46184 0.56142 0.0
C4614 C 0.54872 0.47824 0.55495 0.0
C4615 C 0.54903 0.42753 0.55673 0.0
C4616 C 0.5396 0.42119 0.57136 0.0
C4617 C 0.56022 0.41673 0.54917 0.0
C4618 C 0.5713 0.42272 0.53432 0.0
C4619 C 0.58373 0.43992 0.53683 0.0
C4620 C 0.59416 0.44544 0.52277 0.0
C4621 C 0.59237 0.43382 0.5062 0.0
C4622 C 0.58017 0.41666 0.50365 0.0
C4623 C 0.5697 0.41108 0.51765 0.0
H4624 H 0.60044 0.43808 0.49533 0.0
H4625 H 0.49813 0.38228 0.63001 0.0
H4626 H 0.42846 0.77241 0.43164 0.0
H4627 H 0.40205 0.77284 0.41036 0.0
H4628 H 0.42886 0.75759 0.36404 0.0
H4629 H 0.45573 0.7575 0.38542 0.0
H4630 H 0.41227 0.78344 0.3559 0.0
H4631 H 0.39149 0.72616 0.37989 0.0
H4632 H 0.38545 0.70653 0.40453 0.0
H4633 H 0.35163 0.73936 0.42676 0.0
H4634 H 0.35761 0.75926 0.40234 0.0
H4635 H 0.33501 0.76651 0.28859 0.0
H4636 H 0.36092 0.76393 0.30946 0.0
H4637 H 0.33238 0.77309 0.35639 0.0
H4638 H 0.30597 0.77475 0.33535 0.0
H4639 H 0.35005 0.75024 0.36437 0.0
H4640 H 0.36947 0.80712 0.34132 0.0
H4641 H 0.37527 0.82806 0.31781 0.0
H4642 H 0.41195 0.79868 0.29561 0.0
H4643 H 0.40618 0.77741 0.31885 0.0
C4644 C 0.42883 0.76898 0.41694 0.0
C4645 C 0.44443 0.76478 0.41043 0.0
C4646 C 0.41351 0.76914 0.40469 0.0
C4647 C 0.41304 0.76493 0.3854 0.0
C4648 C 0.42863 0.76082 0.37879 0.0
C4649 C 0.44405 0.76069 0.39109 0.0
C4650 C 0.39654 0.76531 0.37227 0.0
C4651 C 0.39872 0.7759 0.3576 0.0
C4652 C 0.37858 0.75611 0.37465 0.0
C4653 C 0.37503 0.7442 0.38934 0.0
C4654 C 0.38283 0.72922 0.39009 0.0
C4655 C 0.37941 0.71805 0.404 0.0
C4656 C 0.36818 0.7217 0.41721 0.0
C4657 C 0.36035 0.73655 0.41654 0.0
C4658 C 0.36372 0.74775 0.40264 0.0
C4659 C 0.33415 0.76795 0.30335 0.0
C4660 C 0.31826 0.77099 0.31015 0.0
C4661 C 0.34919 0.76664 0.31541 0.0
C4662 C 0.34916 0.76884 0.3348 0.0
C4663 C 0.33309 0.77145 0.3416 0.0
C4664 C 0.31788 0.77244 0.32949 0.0
C4665 C 0.36572 0.7683 0.34783 0.0
C4666 C 0.36358 0.75773 0.36255 0.0
C4667 C 0.3837 0.77777 0.34566 0.0
C4668 C 0.38725 0.79057 0.33171 0.0
C4669 C 0.37868 0.80506 0.33135 0.0
C4670 C 0.38198 0.81699 0.31808 0.0
C4671 C 0.39394 0.81467 0.30519 0.0
C4672 C 0.40267 0.80044 0.30558 0.0
C4673 C 0.3994 0.78845 0.31881 0.0
H4674 H 0.39647 0.82393 0.29493 0.0
H4675 H 0.36553 0.71302 0.42795 0.0
H4676 H 0.0549 0.74362 0.05595 0.0
H4677 H 0.05063 0.71074 0.04835 0.0
H4678 H 0.0414 0.70344 0.10455 0.0
H4679 H 0.04552 0.73666 0.11229 0.0
H4680 H 0.06439 0.68224 0.09156 0.0
H4681 H 0.00621 0.6912 0.07049 0.0
H4682 H 0.98464 0.70514 0.05349 0.0
H4683 H 1.00231 0.6878 0.00202 0.0
H4684 H 0.02418 0.67397 0.01876 0.0
H4685 H 0.00604 0.58497 0.04537 0.0
H4686 H 0.00966 0.6174 0.05512 0.0
H4687 H 0.06704 0.62728 0.0511 0.0
H4688 H 0.06353 0.59456 0.04139 0.0
H4689 H 0.019 0.64698 0.0397 0.0
H4690 H 0.09028 0.66555 0.08166 0.0
H4691 H 0.11027 0.65082 0.09994 0.0
H4692 H 0.06363 0.61192 0.11211 0.0
H4693 H 0.0434 0.62657 0.09417 0.0
C4694 C 0.05183 0.73513 0.06678 0.0
C4695 C 0.0505 0.74311 0.0848 0.0
C4696 C 0.04936 0.71614 0.06234 0.0
C4697 C 0.04561 0.70425 0.07576 0.0
C4698 C 0.04429 0.71211 0.09383 0.0
C4699 C 0.0465 0.7312 0.09824 0.0
C4700 C 0.0431 0.68379 0.07073 0.0
C4701 C 0.05446 0.6746 0.08019 0.0
C4702 C 0.03007 0.6734 0.05602 0.0
C4703 C 0.01696 0.6817 0.0459 0.0
C4704 C 0.00561 0.69049 0.05557 0.0
C4705 C 0.9933 0.69835 0.04597 0.0
C4706 C 0.99214 0.69739 0.02669 0.0
C4707 C 1.00324 0.68855 0.01696 0.0
C4708 C 0.01558 0.68069 0.02649 0.0
C4709 C 0.01953 0.59389 0.04656 0.0
C4710 C 0.03448 0.58673 0.04253 0.0
C4711 C 0.02157 0.61267 0.05213 0.0
C4712 C 0.03866 0.62519 0.05412 0.0
C4713 C 0.05367 0.61815 0.05004 0.0
C4714 C 0.05162 0.59928 0.04436 0.0
C4715 C 0.04054 0.64542 0.06026 0.0
C4716 C 0.02903 0.6546 0.051 0.0
C4717 C 0.05332 0.65572 0.07525 0.0
C4718 C 0.06535 0.64705 0.0864 0.0
C4719 C 0.0843 0.6539 0.08831 0.0
C4720 C 0.09568 0.64556 0.09861 0.0
C4721 C 0.08824 0.63041 0.10713 0.0
C4722 C 0.06941 0.62362 0.10546 0.0
C4723 C 0.05798 0.63193 0.09522 0.0
H4724 H 0.09709 0.62395 0.11505 0.0
H4725 H 0.9826 0.70348 0.01929 0.0
H4726 H 0.03249 0.25686 0.87862 0.0
H4727 H 0.05896 0.2587 0.86188 0.0
H4728 H 0.09435 0.28058 0.91277 0.0
H4729 H 0.06776 0.27917 0.92955 0.0
H4730 H 0.10668 0.29904 0.88657 0.0
H4731 H 0.0884 0.23525 0.89078 0.0
H4732 H 0.06734 0.20479 0.88765 0.0
H4733 H 0.05775 0.20466 0.82881 0.0
H4734 H 0.07858 0.23524 0.83162 0.0
H4735 H 0.18705 0.29068 0.84636 0.0
H4736 H 0.16215 0.28699 0.86558 0.0
H4737 H 0.12342 0.26693 0.8167 0.0
H4738 H 0.14819 0.27001 0.79749 0.0
H4739 H 0.11384 0.24702 0.84336 0.0
H4740 H 0.13138 0.31154 0.83971 0.0
H4741 H 0.15264 0.34192 0.84313 0.0
H4742 H 0.16402 0.34032 0.9015 0.0
H4743 H 0.14299 0.30981 0.89838 0.0
C4744 C 0.04589 0.26192 0.88634 0.0
C4745 C 0.04789 0.26776 0.90553 0.0
C4746 C 0.06112 0.26291 0.87671 0.0
C4747 C 0.07887 0.26955 0.88598 0.0
C4748 C 0.0809 0.27536 0.90518 0.0
C4749 C 0.06564 0.27446 0.91482 0.0
C4750 C 0.09519 0.27084 0.87556 0.0
C4751 C 0.10835 0.28753 0.87738 0.0
C4752 C 0.09743 0.25603 0.86319 0.0
C4753 C 0.08493 0.23761 0.86143 0.0
C4754 C 0.0817 0.22879 0.87719 0.0
C4755 C 0.06982 0.21149 0.87547 0.0
C4756 C 0.06118 0.20282 0.85805 0.0
C4757 C 0.06444 0.21141 0.8423 0.0
C4758 C 0.0763 0.22871 0.84394 0.0
C4759 C 0.17326 0.28531 0.83966 0.0
C4760 C 0.16979 0.28081 0.82022 0.0
C4761 C 0.15895 0.28337 0.85071 0.0
C4762 C 0.14071 0.27692 0.84268 0.0
C4763 C 0.13726 0.27204 0.82335 0.0
C4764 C 0.15153 0.27399 0.81231 0.0
C4765 C 0.12522 0.27525 0.85426 0.0
C4766 C 0.11221 0.25848 0.85265 0.0
C4767 C 0.12316 0.28996 0.86687 0.0
C4768 C 0.13576 0.30831 0.86877 0.0
C4769 C 0.13852 0.31761 0.85325 0.0
C4770 C 0.15051 0.33486 0.85514 0.0
C4771 C 0.15971 0.34302 0.87251 0.0
C4772 C 0.1569 0.33397 0.88804 0.0
C4773 C 0.14494 0.3167 0.88622 0.0
H4774 H 0.16899 0.35638 0.87395 0.0
H4775 H 0.05198 0.18943 0.85675 0.0
H4776 H 0.52943 0.7421 0.86811 0.0
H4777 H 0.52892 0.71312 0.88071 0.0
H4778 H 0.54851 0.74301 0.93513 0.0
H4779 H 0.54919 0.77154 0.92272 0.0
H4780 H 0.56433 0.71586 0.93015 0.0
H4781 H 0.50237 0.72261 0.92039 0.0
H4782 H 0.47503 0.72564 0.9013 0.0
H4783 H 0.47227 0.67473 0.86809 0.0
H4784 H 0.49974 0.67153 0.88686 0.0
H4785 H 0.53741 0.65649 0.99553 0.0
H4786 H 0.54121 0.68076 0.97585 0.0
H4787 H 0.51786 0.64121 0.9279 0.0
H4788 H 0.5131 0.61695 0.9478 0.0
H4789 H 0.50529 0.67023 0.92522 0.0
H4790 H 0.56495 0.66147 0.93735 0.0
H4791 H 0.59219 0.65823 0.9564 0.0
H4792 H 0.59977 0.71247 0.98456 0.0
H4793 H 0.57242 0.71596 0.96585 0.0
C4794 C 0.53401 0.74244 0.88265 0.0
C4795 C 0.53929 0.75918 0.89439 0.0
C4796 C 0.53353 0.72586 0.88992 0.0
C4797 C 0.53842 0.72573 0.90903 0.0
C4798 C 0.54462 0.74255 0.92041 0.0
C4799 C 0.54497 0.75894 0.91325 0.0
C4800 C 0.53645 0.70842 0.91771 0.0
C4801 C 0.55139 0.70593 0.92909 0.0
C4802 C 0.51974 0.69505 0.91607 0.0
C4803 C 0.50321 0.69694 0.90487 0.0
C4804 C 0.496 0.71214 0.90893 0.0
C4805 C 0.48048 0.71387 0.89819 0.0
C4806 C 0.47196 0.70041 0.88345 0.0
C4807 C 0.47891 0.68516 0.87948 0.0
C4808 C 0.49445 0.68338 0.89016 0.0
C4809 C 0.53291 0.6529 0.98083 0.0
C4810 C 0.52506 0.63458 0.9733 0.0
C4811 C 0.53532 0.66684 0.96948 0.0
C4812 C 0.5302 0.66294 0.95019 0.0
C4813 C 0.52212 0.64471 0.94265 0.0
C4814 C 0.5196 0.63075 0.95404 0.0
C4815 C 0.53307 0.67794 0.93808 0.0
C4816 C 0.51832 0.67999 0.92608 0.0
C4817 C 0.54999 0.69089 0.9391 0.0
C4818 C 0.56655 0.68892 0.95028 0.0
C4819 C 0.57236 0.67267 0.94768 0.0
C4820 C 0.58783 0.67079 0.95841 0.0
C4821 C 0.59769 0.68512 0.9717 0.0
C4822 C 0.59212 0.70138 0.97426 0.0
C4823 C 0.57665 0.70332 0.96358 0.0
H4824 H 0.60965 0.68364 0.98 0.0
H4825 H 0.45994 0.70178 0.87515 0.0
H4826 H 0.08396 0.78506 0.67932 0.0
H4827 H 0.1141 0.78536 0.69378 0.0
H4828 H 0.09053 0.74516 0.72754 0.0
H4829 H 0.05982 0.74493 0.71298 0.0
H4830 H 0.12111 0.77009 0.74733 0.0
H4831 H 0.10896 0.7325 0.68875 0.0
H4832 H 0.09936 0.7246 0.65513 0.0
H4833 H 0.142 0.76889 0.64456 0.0
H4834 H 0.15171 0.77722 0.67814 0.0
H4835 H 0.20947 0.75103 0.76851 0.0
H4836 H 0.17708 0.74856 0.75899 0.0
H4837 H 0.19147 0.78553 0.71902 0.0
H4838 H 0.22359 0.78792 0.72829 0.0
H4839 H 0.16426 0.7591 0.7033 0.0
H4840 H 0.17538 0.79775 0.76175 0.0
H4841 H 0.18495 0.80605 0.79534 0.0
H4842 H 0.14458 0.7599 0.80618 0.0
H4843 H 0.13491 0.75119 0.77261 0.0
C4844 C 0.085 0.7764 0.69001 0.0
C4845 C 0.06917 0.76491 0.6948 0.0
C4846 C 0.10244 0.77651 0.69826 0.0
C4847 C 0.10498 0.76497 0.71156 0.0
C4848 C 0.08919 0.75417 0.71725 0.0
C4849 C 0.07153 0.7541 0.70897 0.0
C4850 C 0.1241 0.76385 0.71857 0.0
C4851 C 0.1304 0.76736 0.73768 0.0
C4852 C 0.13668 0.76061 0.7062 0.0
C4853 C 0.13097 0.75557 0.68598 0.0
C4854 C 0.11622 0.74063 0.67926 0.0
C4855 C 0.11077 0.73607 0.66021 0.0
C4856 C 0.12004 0.74626 0.64772 0.0
C4857 C 0.13482 0.76101 0.65426 0.0
C4858 C 0.14032 0.76565 0.6733 0.0
C4859 C 0.20578 0.75864 0.75768 0.0
C4860 C 0.21946 0.76966 0.74924 0.0
C4861 C 0.18711 0.75731 0.75227 0.0
C4862 C 0.18144 0.76696 0.73826 0.0
C4863 C 0.19513 0.77784 0.7298 0.0
C4864 C 0.2137 0.77922 0.73521 0.0
C4865 C 0.16146 0.76568 0.73206 0.0
C4866 C 0.15497 0.76171 0.71302 0.0
C4867 C 0.1488 0.76849 0.74451 0.0
C4868 C 0.15457 0.7737 0.76467 0.0
C4869 C 0.16864 0.78929 0.77129 0.0
C4870 C 0.17407 0.79409 0.79032 0.0
C4871 C 0.16542 0.78348 0.80288 0.0
C4872 C 0.15129 0.76808 0.79643 0.0
C4873 C 0.14582 0.76322 0.77741 0.0
H4874 H 0.16964 0.78722 0.81761 0.0
H4875 H 0.1158 0.74271 0.63298 0.0
H4876 H 0.04445 0.34609 0.41323 0.0
H4877 H 0.04202 0.37438 0.43064 0.0
H4878 H 0.04445 0.40022 0.38093 0.0
H4879 H 0.04745 0.37175 0.36337 0.0
H4880 H 0.06377 0.42399 0.40941 0.0
H4881 H 1.00351 0.38559 0.40008 0.0
H4882 H 0.97981 0.35737 0.40041 0.0
H4883 H 0.99212 0.36148 0.45947 0.0
H4884 H 0.01608 0.38958 0.45947 0.0
H4885 H 0.03633 0.5004 0.45558 0.0
H4886 H 0.03882 0.47428 0.43408 0.0
H4887 H 0.0348 0.44098 0.47844 0.0
H4888 H 0.03177 0.46676 0.49972 0.0
H4889 H 0.0148 0.42185 0.44979 0.0
H4890 H 0.07607 0.45938 0.45895 0.0
H4891 H 0.09979 0.48761 0.45875 0.0
H4892 H 0.08573 0.4853 0.40017 0.0
H4893 H 0.06159 0.45726 0.40005 0.0
C4894 C 0.04443 0.35773 0.40588 0.0
C4895 C 0.046 0.35645 0.38676 0.0
C4896 C 0.04295 0.374 0.41592 0.0
C4897 C 0.04265 0.38958 0.4072 0.0
C4898 C 0.04453 0.38849 0.38812 0.0
C4899 C 0.04617 0.37214 0.37802 0.0
C4900 C 0.04027 0.40675 0.41812 0.0
C4901 C 0.05287 0.42354 0.41799 0.0
C4902 C 0.02624 0.40641 0.42967 0.0
C4903 C 0.01168 0.38963 0.42975 0.0
C4904 C 1.00123 0.38042 0.41313 0.0
C4905 C 0.98775 0.36445 0.41326 0.0
C4906 C 0.98448 0.35762 0.42995 0.0
C4907 C 0.99467 0.36678 0.44655 0.0
C4908 C 0.00819 0.38274 0.4465 0.0
C4909 C 0.03607 0.48755 0.4608 0.0
C4910 C 0.03385 0.48585 0.47952 0.0
C4911 C 0.03759 0.47254 0.44844 0.0
C4912 C 0.03721 0.45544 0.45448 0.0
C4913 C 0.0351 0.45384 0.47321 0.0
C4914 C 0.03342 0.46873 0.48548 0.0
C4915 C 0.03856 0.43905 0.44148 0.0
C4916 C 0.02568 0.42237 0.44116 0.0
C4917 C 0.05232 0.43956 0.42956 0.0
C4918 C 0.06688 0.45633 0.42954 0.0
C4919 C 0.07792 0.46498 0.44604 0.0
C4920 C 0.09142 0.48095 0.44598 0.0
C4921 C 0.09417 0.4883 0.42946 0.0
C4922 C 0.08347 0.47964 0.41295 0.0
C4923 C 0.06988 0.46371 0.41294 0.0
H4924 H 0.10463 0.50067 0.42944 0.0
H4925 H 0.97405 0.34525 0.43002 0.0
H4926 H 0.44803 0.24717 0.17029 0.0
H4927 H 0.42 0.24948 0.18292 0.0
H4928 H 0.44845 0.25973 0.23827 0.0
H4929 H 0.47641 0.25639 0.22556 0.0
H4930 H 0.41694 0.24239 0.24191 0.0
H4931 H 0.43464 0.29457 0.21101 0.0
H4932 H 0.44374 0.31203 0.18544 0.0
H4933 H 0.39322 0.28492 0.1523 0.0
H4934 H 0.38391 0.26712 0.1776 0.0
H4935 H 0.34703 0.28106 0.28 0.0
H4936 H 0.37554 0.27721 0.2688 0.0
H4937 H 0.34619 0.25244 0.21559 0.0
H4938 H 0.31771 0.25588 0.22678 0.0
H4939 H 0.37836 0.27808 0.21195 0.0
H4940 H 0.36131 0.22649 0.24532 0.0
H4941 H 0.35253 0.21251 0.27307 0.0
H4942 H 0.40327 0.24256 0.30402 0.0
H4943 H 0.41222 0.25695 0.2765 0.0
C4944 C 0.44838 0.24976 0.18519 0.0
C4945 C 0.46478 0.25157 0.19677 0.0
C4946 C 0.4322 0.25135 0.19251 0.0
C4947 C 0.43171 0.25542 0.21176 0.0
C4948 C 0.44802 0.25673 0.2234 0.0
C4949 C 0.46419 0.25479 0.21607 0.0
C4950 C 0.41441 0.25837 0.21957 0.0
C4951 C 0.40877 0.25043 0.23537 0.0
C4952 C 0.40313 0.26874 0.21138 0.0
C4953 C 0.40866 0.27938 0.19613 0.0
C4954 C 0.42552 0.29224 0.19822 0.0
C4955 C 0.43071 0.30221 0.18378 0.0
C4956 C 0.41909 0.29955 0.16724 0.0
C4957 C 0.40223 0.28695 0.16511 0.0
C4958 C 0.39698 0.27692 0.1795 0.0
C4959 C 0.34656 0.27472 0.26592 0.0
C4960 C 0.32976 0.26877 0.25444 0.0
C4961 C 0.363 0.27248 0.25948 0.0
C4962 C 0.36336 0.26444 0.24121 0.0
C4963 C 0.34661 0.25869 0.2297 0.0
C4964 C 0.33017 0.26063 0.23621 0.0
C4965 C 0.38098 0.26201 0.23403 0.0
C4966 C 0.38663 0.27005 0.2184 0.0
C4967 C 0.39242 0.2521 0.24259 0.0
C4968 C 0.38736 0.24293 0.25891 0.0
C4969 C 0.37056 0.23017 0.25807 0.0
C4970 C 0.36555 0.22218 0.27375 0.0
C4971 C 0.3773 0.22671 0.29033 0.0
C4972 C 0.39416 0.23911 0.29119 0.0
C4973 C 0.39922 0.24717 0.27554 0.0
H4974 H 0.37336 0.22062 0.3025 0.0
H4975 H 0.42313 0.30728 0.15608 0.0
H4976 H 0.58787 0.53234 0.3208 0.0
H4977 H 0.57657 0.53156 0.35104 0.0
H4978 H 0.62973 0.53094 0.37657 0.0
H4979 H 0.64097 0.53136 0.34629 0.0
H4980 H 0.60559 0.50761 0.39061 0.0
H4981 H 0.61196 0.56973 0.38106 0.0
H4982 H 0.60779 0.59557 0.36485 0.0
H4983 H 0.55008 0.57851 0.36539 0.0
H4984 H 0.55387 0.55238 0.38134 0.0
H4985 H 0.58418 0.52711 0.48402 0.0
H4986 H 0.59793 0.52838 0.45493 0.0
H4987 H 0.54551 0.52447 0.42476 0.0
H4988 H 0.53176 0.52316 0.4535 0.0
H4989 H 0.57092 0.55108 0.41412 0.0
H4990 H 0.5652 0.48836 0.42342 0.0
H4991 H 0.57013 0.46323 0.44039 0.0
H4992 H 0.62782 0.48253 0.44125 0.0
H4993 H 0.62326 0.508 0.42458 0.0
C4994 C 0.5972 0.53214 0.33285 0.0
C4995 C 0.61538 0.53198 0.33102 0.0
C4996 C 0.59073 0.53176 0.35024 0.0
C4997 C 0.60228 0.53139 0.36635 0.0
C4998 C 0.62045 0.53122 0.3645 0.0
C4999 C 0.62691 0.53155 0.34712 0.0
C5000 C 0.59539 0.53091 0.385 0.0
C5001 C 0.59825 0.51732 0.39582 0.0
C5002 C 0.58554 0.54334 0.39194 0.0
C5003 C 0.58319 0.55897 0.38222 0.0
C5004 C 0.59836 0.57138 0.37757 0.0
C5005 C 0.59607 0.5861 0.36845 0.0
C5006 C 0.57867 0.58864 0.36404 0.0
C5007 C 0.56354 0.57649 0.36877 0.0
C5008 C 0.56575 0.56173 0.37786 0.0
C5009 C 0.57555 0.52638 0.47118 0.0
C5010 C 0.55679 0.52495 0.47125 0.0
C5011 C 0.58344 0.52708 0.4545 0.0
C5012 C 0.57279 0.52648 0.43749 0.0
C5013 C 0.5541 0.52501 0.43759 0.0
C5014 C 0.54621 0.52416 0.45414 0.0
C5015 C 0.58094 0.52769 0.41957 0.0
C5016 C 0.57833 0.54143 0.40891 0.0
C5017 C 0.59112 0.5155 0.41287 0.0
C5018 C 0.59389 0.50022 0.42294 0.0
C5019 C 0.57895 0.48736 0.42739 0.0
C5020 C 0.58168 0.47304 0.43693 0.0
C5021 C 0.59928 0.47132 0.44194 0.0
C5022 C 0.61419 0.4839 0.43737 0.0
C5023 C 0.61154 0.49829 0.4279 0.0
H5024 H 0.60136 0.46022 0.44932 0.0
H5025 H 0.57693 0.60006 0.357 0.0
H5026 H 0.25188 0.85981 0.04149 0.0
H5027 H 0.25732 0.85369 0.07339 0.0
H5028 H 0.29462 0.90666 0.08761 0.0
H5029 H 0.28874 0.91312 0.05565 0.0
H5030 H 0.30862 0.87435 0.09349 0.0
H5031 H 0.26219 0.90235 0.10995 0.0
H5032 H 0.23233 0.9097 0.10661 0.0
H5033 H 0.20587 0.8538 0.10935 0.0
H5034 H 0.23555 0.84602 0.11238 0.0
H5035 H 0.32093 0.83768 0.17963 0.0
H5036 H 0.3169 0.85916 0.15779 0.0
H5037 H 0.26925 0.82003 0.12931 0.0
H5038 H 0.27333 0.79844 0.1508 0.0
H5039 H 0.26352 0.85447 0.13645 0.0
H5040 H 0.30827 0.82566 0.11153 0.0
H5041 H 0.33747 0.81686 0.11263 0.0
H5042 H 0.36635 0.87329 0.12409 0.0
H5043 H 0.33727 0.88241 0.12329 0.0
C5044 C 0.26087 0.87031 0.05155 0.0
C5045 C 0.26996 0.88687 0.04623 0.0
C5046 C 0.2639 0.86686 0.06973 0.0
C5047 C 0.27632 0.87977 0.08276 0.0
C5048 C 0.2849 0.89664 0.07771 0.0
C5049 C 0.2815 0.9003 0.05954 0.0
C5050 C 0.28186 0.87428 0.10069 0.0
C5051 C 0.29902 0.87055 0.10329 0.0
C5052 C 0.26911 0.86904 0.1131 0.0
C5053 C 0.25115 0.87359 0.11133 0.0
C5054 C 0.25001 0.89158 0.1097 0.0
C5055 C 0.23311 0.89583 0.10788 0.0
C5056 C 0.21721 0.88222 0.10775 0.0
C5057 C 0.2182 0.86433 0.10946 0.0
C5058 C 0.23507 0.86 0.11126 0.0
C5059 C 0.30977 0.83356 0.16852 0.0
C5060 C 0.29743 0.81638 0.16691 0.0
C5061 C 0.30741 0.84589 0.1562 0.0
C5062 C 0.2927 0.84119 0.14208 0.0
C5063 C 0.28054 0.82398 0.14029 0.0
C5064 C 0.28291 0.81166 0.15254 0.0
C5065 C 0.29 0.8539 0.12878 0.0
C5066 C 0.27337 0.85889 0.12707 0.0
C5067 C 0.30317 0.86016 0.11704 0.0
C5068 C 0.32063 0.8547 0.11764 0.0
C5069 C 0.32085 0.83618 0.11448 0.0
C5070 C 0.33737 0.83114 0.11501 0.0
C5071 C 0.35376 0.84451 0.11851 0.0
C5072 C 0.35365 0.86295 0.12144 0.0
C5073 C 0.33715 0.86806 0.12095 0.0
H5074 H 0.36654 0.84058 0.11889 0.0
H5075 H 0.20414 0.88554 0.10634 0.0
H5076 H 0.94905 0.56012 0.84521 0.0
H5077 H 0.96422 0.55344 0.87346 0.0
H5078 H 0.91235 0.52809 0.88978 0.0
H5079 H 0.89687 0.53485 0.86117 0.0
H5080 H 0.93852 0.55088 0.91913 0.0
H5081 H 0.93437 0.50025 0.87289 0.0
H5082 H 0.93653 0.48497 0.84198 0.0
H5083 H 0.99363 0.5102 0.84779 0.0
H5084 H 0.99185 0.52572 0.8787 0.0
H5085 H 0.99016 0.51247 0.98554 0.0
H5086 H 0.96747 0.51316 0.95967 0.0
H5087 H 0.0095 0.5453 0.93297 0.0
H5088 H 0.03199 0.54569 0.95947 0.0
H5089 H 0.98359 0.51399 0.90983 0.0
H5090 H 0.9872 0.56747 0.95305 0.0
H5091 H 0.98551 0.58556 0.98256 0.0
H5092 H 0.92976 0.55686 0.98153 0.0
H5093 H 0.93127 0.53817 0.95226 0.0
C5094 C 0.94081 0.55334 0.8549 0.0
C5095 C 0.92181 0.54785 0.85098 0.0
C5096 C 0.9495 0.54946 0.87098 0.0
C5097 C 0.9394 0.5399 0.88341 0.0
C5098 C 0.92033 0.53534 0.88018 0.0
C5099 C 0.91154 0.53928 0.86396 0.0
C5100 C 0.94918 0.53442 0.89936 0.0
C5101 C 0.948 0.54237 0.91723 0.0
C5102 C 0.96179 0.52363 0.89667 0.0
C5103 C 0.96295 0.51422 0.8781 0.0
C5104 C 0.94737 0.50263 0.86754 0.0
C5105 C 0.94853 0.49392 0.85002 0.0
C5106 C 0.96517 0.49667 0.8429 0.0
C5107 C 0.98074 0.50809 0.85332 0.0
C5108 C 0.97968 0.5168 0.87087 0.0
C5109 C 0.99439 0.52008 0.97436 0.0
C5110 C 0.01252 0.52977 0.97479 0.0
C5111 C 0.98153 0.52021 0.95952 0.0
C5112 C 0.98684 0.52955 0.94467 0.0
C5113 C 0.00521 0.53816 0.94446 0.0
C5114 C 0.01799 0.53835 0.95951 0.0
C5115 C 0.97319 0.53078 0.92952 0.0
C5116 C 0.97372 0.52202 0.91182 0.0
C5117 C 0.96003 0.54086 0.93238 0.0
C5118 C 0.95944 0.5512 0.95061 0.0
C5119 C 0.9747 0.5647 0.95932 0.0
C5120 C 0.97376 0.57512 0.97597 0.0
C5121 C 0.95755 0.57235 0.98392 0.0
C5122 C 0.94233 0.55894 0.9754 0.0
C5123 C 0.94323 0.5484 0.9588 0.0
H5124 H 0.95676 0.58074 0.99656 0.0
H5125 H 0.96602 0.48992 0.82933 0.0
H5126 H 0.26674 0.23705 0.55715 0.0
H5127 H 0.26737 0.24658 0.59005 0.0
H5128 H 0.28124 0.19696 0.60258 0.0
H5129 H 0.28092 0.18735 0.56937 0.0
H5130 H 0.24744 0.23352 0.61448 0.0
H5131 H 0.30545 0.20481 0.6463 0.0
H5132 H 0.33391 0.19764 0.63809 0.0
H5133 H 0.33944 0.23766 0.60039 0.0
H5134 H 0.31115 0.24521 0.60853 0.0
H5135 H 0.24743 0.245 0.71301 0.0
H5136 H 0.24664 0.23261 0.6805 0.0
H5137 H 0.29992 0.26732 0.67915 0.0
H5138 H 0.30107 0.27903 0.71172 0.0
H5139 H 0.29955 0.23676 0.66174 0.0
H5140 H 0.25743 0.27513 0.65847 0.0
H5141 H 0.23055 0.28598 0.66601 0.0
H5142 H 0.19597 0.23307 0.6453 0.0
H5143 H 0.22267 0.22185 0.63783 0.0
C5144 C 0.27005 0.22811 0.56681 0.0
C5145 C 0.27379 0.21135 0.56041 0.0
C5146 C 0.27031 0.2336 0.58574 0.0
C5147 C 0.27434 0.22258 0.59899 0.0
C5148 C 0.27828 0.20588 0.59275 0.0
C5149 C 0.27808 0.20037 0.57369 0.0
C5150 C 0.27413 0.22867 0.61919 0.0
C5151 C 0.25884 0.23414 0.6248 0.0
C5152 C 0.289 0.22976 0.6328 0.0
C5153 C 0.30606 0.22539 0.62786 0.0
C5154 C 0.31276 0.21209 0.63628 0.0
C5155 C 0.32886 0.20796 0.63164 0.0
C5156 C 0.33843 0.21714 0.61867 0.0
C5157 C 0.33197 0.2305 0.61037 0.0
C5158 C 0.31589 0.23469 0.61497 0.0
C5159 C 0.25889 0.25011 0.70571 0.0
C5160 C 0.27427 0.2631 0.71501 0.0
C5161 C 0.25844 0.24302 0.68705 0.0
C5162 C 0.27315 0.24908 0.67706 0.0
C5163 C 0.2884 0.26223 0.68637 0.0
C5164 C 0.28899 0.26905 0.70505 0.0
C5165 C 0.27291 0.24179 0.65705 0.0
C5166 C 0.28809 0.23603 0.65147 0.0
C5167 C 0.25812 0.24087 0.64337 0.0
C5168 C 0.24206 0.24761 0.64777 0.0
C5169 C 0.2441 0.26579 0.65563 0.0
C5170 C 0.2289 0.27201 0.65988 0.0
C5171 C 0.21157 0.26021 0.65618 0.0
C5172 C 0.2094 0.24218 0.64818 0.0
C5173 C 0.22456 0.2359 0.64392 0.0
H5174 H 0.19982 0.26505 0.65948 0.0
H5175 H 0.35089 0.21392 0.61509 0.0
H5176 H 0.60821 0.51084 0.22277 0.0
H5177 H 0.59704 0.50875 0.18977 0.0
H5178 H 0.58506 0.56145 0.20004 0.0
H5179 H 0.59505 0.56292 0.23291 0.0
H5180 H 0.55907 0.54261 0.17858 0.0
H5181 H 0.6233 0.55102 0.17621 0.0
H5182 H 0.65322 0.54405 0.18174 0.0
H5183 H 0.63202 0.49104 0.1503 0.0
H5184 H 0.6019 0.49762 0.14475 0.0
H5185 H 0.54769 0.55897 0.08353 0.0
H5186 H 0.55987 0.56043 0.11615 0.0
H5187 H 0.55964 0.50342 0.10705 0.0
H5188 H 0.54744 0.50179 0.07468 0.0
H5189 H 0.59163 0.52382 0.12725 0.0
H5190 H 0.5274 0.51682 0.12941 0.0
H5191 H 0.49814 0.52504 0.12352 0.0
H5192 H 0.52083 0.57769 0.15527 0.0
H5193 H 0.55032 0.56986 0.16114 0.0
C5194 C 0.60331 0.522 0.2179 0.0
C5195 C 0.60251 0.53702 0.23055 0.0
C5196 C 0.59698 0.52088 0.19894 0.0
C5197 C 0.59026 0.53504 0.19203 0.0
C5198 C 0.58993 0.55019 0.20473 0.0
C5199 C 0.59578 0.55108 0.22363 0.0
C5200 C 0.58305 0.53408 0.17187 0.0
C5201 C 0.56646 0.53878 0.16746 0.0
C5202 C 0.5922 0.52869 0.157 0.0
C5203 C 0.61031 0.52475 0.16023 0.0
C5204 C 0.62499 0.53784 0.17057 0.0
C5205 C 0.64199 0.53396 0.1737 0.0
C5206 C 0.64451 0.51709 0.16642 0.0
C5207 C 0.63004 0.50409 0.15595 0.0
C5208 C 0.61301 0.50789 0.15279 0.0
C5209 C 0.55016 0.54672 0.08847 0.0
C5210 C 0.54643 0.53025 0.07634 0.0
C5211 C 0.55713 0.54757 0.10718 0.0
C5212 C 0.56068 0.53201 0.11422 0.0
C5213 C 0.55711 0.51564 0.10208 0.0
C5214 C 0.54999 0.51473 0.0835 0.0
C5215 C 0.56796 0.53265 0.13418 0.0
C5216 C 0.58443 0.52778 0.13849 0.0
C5217 C 0.55886 0.53814 0.14897 0.0
C5218 C 0.54111 0.54282 0.14555 0.0
C5219 C 0.52619 0.5302 0.13501 0.0
C5220 C 0.50955 0.53478 0.1317 0.0
C5221 C 0.50764 0.5519 0.13897 0.0
C5222 C 0.52234 0.56445 0.14962 0.0
C5223 C 0.53901 0.55994 0.15296 0.0
H5224 H 0.49475 0.55542 0.13639 0.0
H5225 H 0.65767 0.51411 0.16887 0.0
H5226 H 0.26139 0.91092 0.93509 0.0
H5227 H 0.26332 0.89351 0.90537 0.0
H5228 H 0.25119 0.84353 0.92988 0.0
H5229 H 0.24949 0.86071 0.95942 0.0
H5230 H 0.28067 0.84636 0.91178 0.0
H5231 H 0.21973 0.8552 0.90023 0.0
H5232 H 0.19687 0.87328 0.8972 0.0
H5233 H 0.22388 0.89982 0.85497 0.0
H5234 H 0.24707 0.88211 0.85795 0.0
H5235 H 0.26578 0.7805 0.83148 0.0
H5236 H 0.26297 0.79865 0.86042 0.0
H5237 H 0.26933 0.8467 0.83262 0.0
H5238 H 0.27138 0.82869 0.80381 0.0
H5239 H 0.24333 0.84569 0.85229 0.0
H5240 H 0.3041 0.83871 0.86296 0.0
H5241 H 0.32825 0.8221 0.86522 0.0
H5242 H 0.30391 0.79442 0.9082 0.0
H5243 H 0.27946 0.81069 0.90602 0.0
C5244 C 0.25891 0.8962 0.93401 0.0
C5245 C 0.25536 0.88715 0.94952 0.0
C5246 C 0.26002 0.8863 0.91708 0.0
C5247 C 0.25739 0.86725 0.91549 0.0
C5248 C 0.25336 0.85822 0.93087 0.0
C5249 C 0.25235 0.86807 0.94771 0.0
C5250 C 0.25952 0.85659 0.89812 0.0
C5251 C 0.27238 0.84604 0.89878 0.0
C5252 C 0.24912 0.85671 0.88111 0.0
C5253 C 0.23526 0.86747 0.87948 0.0
C5254 C 0.2209 0.86503 0.89044 0.0
C5255 C 0.20786 0.87518 0.8887 0.0
C5256 C 0.20895 0.88773 0.87594 0.0
C5257 C 0.22307 0.89012 0.86487 0.0
C5258 C 0.23616 0.88003 0.86658 0.0
C5259 C 0.26655 0.79492 0.83163 0.0
C5260 C 0.26863 0.80315 0.81541 0.0
C5261 C 0.26505 0.80529 0.84813 0.0
C5262 C 0.26607 0.82407 0.84868 0.0
C5263 C 0.26836 0.83224 0.8325 0.0
C5264 C 0.26953 0.82189 0.81603 0.0
C5265 C 0.2644 0.83531 0.86592 0.0
C5266 C 0.25167 0.84601 0.86525 0.0
C5267 C 0.27516 0.83559 0.88284 0.0
C5268 C 0.28984 0.82578 0.88418 0.0
C5269 C 0.30382 0.82897 0.87279 0.0
C5270 C 0.31757 0.81964 0.87407 0.0
C5271 C 0.31759 0.80717 0.8868 0.0
C5272 C 0.30387 0.80406 0.89832 0.0
C5273 C 0.29006 0.81334 0.89707 0.0
H5274 H 0.32825 0.79996 0.88778 0.0
H5275 H 0.19883 0.89556 0.8746 0.0
H5276 H 0.9053 0.53398 0.74288 0.0
H5277 H 0.91353 0.53016 0.71132 0.0
H5278 H 0.97022 0.54312 0.73332 0.0
H5279 H 0.96223 0.54712 0.76465 0.0
H5280 H 0.96474 0.55811 0.70157 0.0
H5281 H 0.94576 0.49934 0.72464 0.0
H5282 H 0.92361 0.47548 0.73654 0.0
H5283 H 0.88617 0.47039 0.68744 0.0
H5284 H 0.90804 0.49441 0.67538 0.0
H5285 H 0.01444 0.51473 0.64484 0.0
H5286 H 0.99804 0.52231 0.67056 0.0
H5287 H 0.94757 0.50654 0.63405 0.0
H5288 H 0.96388 0.49869 0.60826 0.0
H5289 H 0.94463 0.49482 0.66885 0.0
H5290 H 0.96592 0.54975 0.64336 0.0
H5291 H 0.98818 0.57336 0.63131 0.0
H5292 H 0.02091 0.5859 0.68431 0.0
H5293 H 0.99897 0.56218 0.69661 0.0
C5294 C 0.91953 0.53637 0.74094 0.0
C5295 C 0.93311 0.54059 0.75624 0.0
C5296 C 0.92418 0.53412 0.72294 0.0
C5297 C 0.94246 0.53614 0.72008 0.0
C5298 C 0.95604 0.54148 0.73526 0.0
C5299 C 0.95143 0.54363 0.75317 0.0
C5300 C 0.94764 0.53123 0.70162 0.0
C5301 C 0.96033 0.5443 0.69437 0.0
C5302 C 0.94147 0.51332 0.69203 0.0
C5303 C 0.92842 0.49881 0.69922 0.0
C5304 C 0.93275 0.49322 0.71645 0.0
C5305 C 0.92026 0.47966 0.72321 0.0
C5306 C 0.90347 0.47147 0.71278 0.0
C5307 C 0.89916 0.47678 0.69553 0.0
C5308 C 0.9116 0.49036 0.68872 0.0
C5309 C 0.99981 0.51252 0.64239 0.0
C5310 C 0.99042 0.50623 0.62459 0.0
C5311 C 0.9905 0.51702 0.65702 0.0
C5312 C 0.97168 0.51529 0.65404 0.0
C5313 C 0.96211 0.5081 0.63652 0.0
C5314 C 0.97144 0.50368 0.62185 0.0
C5315 C 0.96222 0.52154 0.66921 0.0
C5316 C 0.94872 0.50875 0.67579 0.0
C5317 C 0.96761 0.53972 0.67816 0.0
C5318 C 0.98083 0.55409 0.67087 0.0
C5319 C 0.97792 0.55745 0.65241 0.0
C5320 C 0.99048 0.57087 0.64554 0.0
C5321 C 0.00596 0.58111 0.65703 0.0
C5322 C 0.00891 0.57796 0.67542 0.0
C5323 C 0.9964 0.56455 0.68236 0.0
H5324 H 0.01566 0.59149 0.65169 0.0
H5325 H 0.89381 0.46097 0.71804 0.0
H5326 H 0.27718 0.22246 0.4706 0.0
H5327 H 0.27813 0.23343 0.44038 0.0
H5328 H 0.27674 0.17933 0.41453 0.0
H5329 H 0.27627 0.1684 0.44488 0.0
H5330 H 0.30035 0.20286 0.39998 0.0
H5331 H 0.23882 0.19852 0.4109 0.0
H5332 H 0.21386 0.2037 0.42821 0.0
H5333 H 0.23297 0.26155 0.42871 0.0
H5334 H 0.25822 0.25673 0.41162 0.0
H5335 H 0.28119 0.22495 0.30755 0.0
H5336 H 0.27993 0.21126 0.3365 0.0
H5337 H 0.28511 0.26419 0.3673 0.0
H5338 H 0.28633 0.2779 0.33865 0.0
H5339 H 0.25839 0.23937 0.37818 0.0
H5340 H 0.32074 0.24333 0.36838 0.0
H5341 H 0.34548 0.23782 0.35086 0.0
H5342 H 0.32384 0.17997 0.34742 0.0
H5343 H 0.29887 0.18514 0.36481 0.0
C5344 C 0.27697 0.21285 0.45849 0.0
C5345 C 0.27656 0.1945 0.46023 0.0
C5346 C 0.27744 0.21914 0.44112 0.0
C5347 C 0.27727 0.20722 0.42493 0.0
C5348 C 0.27687 0.18887 0.42668 0.0
C5349 C 0.27651 0.1826 0.44408 0.0
C5350 C 0.27772 0.21395 0.40632 0.0
C5351 C 0.29095 0.21059 0.39513 0.0
C5352 C 0.26571 0.22431 0.39989 0.0
C5353 C 0.25051 0.22727 0.41012 0.0
C5354 C 0.23778 0.21235 0.41481 0.0
C5355 C 0.22357 0.21522 0.42457 0.0
C5356 C 0.22185 0.23295 0.4296 0.0
C5357 C 0.23433 0.24783 0.42483 0.0
C5358 C 0.24858 0.24504 0.41509 0.0
C5359 C 0.28223 0.23371 0.3205 0.0
C5360 C 0.28391 0.25259 0.32064 0.0
C5361 C 0.28153 0.22585 0.33709 0.0
C5362 C 0.28247 0.23666 0.35422 0.0
C5363 C 0.2843 0.25549 0.35435 0.0
C5364 C 0.28509 0.26334 0.33786 0.0
C5365 C 0.28113 0.22848 0.37201 0.0
C5366 C 0.26771 0.23156 0.38302 0.0
C5367 C 0.29288 0.21778 0.3782 0.0
C5368 C 0.30785 0.21463 0.36775 0.0
C5369 C 0.32118 0.22943 0.36377 0.0
C5370 C 0.33526 0.22637 0.3539 0.0
C5371 C 0.33622 0.20856 0.34803 0.0
C5372 C 0.32309 0.19376 0.35199 0.0
C5373 C 0.30898 0.19675 0.36188 0.0
H5374 H 0.34718 0.20623 0.34047 0.0
H5375 H 0.21084 0.23514 0.43715 0.0
H5376 H 0.34061 0.63354 0.5293 0.0
H5377 H 0.35972 0.61234 0.52359 0.0
H5378 H 0.31551 0.56726 0.5302 0.0
H5379 H 0.29637 0.58846 0.5363 0.0
H5380 H 0.34793 0.56386 0.54659 0.0
H5381 H 0.3241 0.57549 0.48742 0.0
H5382 H 0.31683 0.59458 0.46396 0.0
H5383 H 0.37363 0.61922 0.46458 0.0
H5384 H 0.38123 0.60047 0.48826 0.0
H5385 H 0.39668 0.50181 0.50573 0.0
H5386 H 0.37192 0.51707 0.51013 0.0
H5387 H 0.40928 0.56934 0.51021 0.0
H5388 H 0.43385 0.55427 0.50589 0.0
H5389 H 0.37626 0.56501 0.48818 0.0
H5390 H 0.39955 0.55668 0.55004 0.0
H5391 H 0.40718 0.53847 0.57422 0.0
H5392 H 0.35161 0.50779 0.56836 0.0
H5393 H 0.34365 0.52573 0.54401 0.0
C5394 C 0.335 0.61914 0.5297 0.0
C5395 C 0.31697 0.61261 0.53306 0.0
C5396 C 0.3459 0.60705 0.52637 0.0
C5397 C 0.33885 0.58823 0.5261 0.0
C5398 C 0.32111 0.58174 0.53024 0.0
C5399 C 0.31022 0.59386 0.53369 0.0
C5400 C 0.34995 0.57539 0.52095 0.0
C5401 C 0.35385 0.56383 0.53366 0.0
C5402 C 0.35773 0.5755 0.50413 0.0
C5403 C 0.35322 0.58665 0.4897 0.0
C5404 C 0.33504 0.58506 0.48263 0.0
C5405 C 0.33086 0.59581 0.46929 0.0
C5406 C 0.34476 0.60813 0.4628 0.0
C5407 C 0.36287 0.60968 0.46962 0.0
C5408 C 0.36713 0.59897 0.48298 0.0
C5409 C 0.39946 0.51653 0.50655 0.0
C5410 C 0.41708 0.52694 0.50564 0.0
C5411 C 0.38541 0.5252 0.50912 0.0
C5412 C 0.3889 0.54429 0.51057 0.0
C5413 C 0.40638 0.55459 0.50912 0.0
C5414 C 0.42038 0.546 0.50676 0.0
C5415 C 0.37458 0.55387 0.51401 0.0
C5416 C 0.37005 0.5648 0.50094 0.0
C5417 C 0.36626 0.55318 0.53047 0.0
C5418 C 0.37105 0.54237 0.54504 0.0
C5419 C 0.38899 0.54593 0.55378 0.0
C5420 C 0.39337 0.53569 0.56754 0.0
C5421 C 0.37991 0.52193 0.57276 0.0
C5422 C 0.36203 0.51842 0.56427 0.0
C5423 C 0.35757 0.52863 0.5505 0.0
H5424 H 0.38334 0.51402 0.58342 0.0
H5425 H 0.34149 0.61645 0.45248 0.0
H5426 H 0.85816 0.8824 0.52631 0.0
H5427 H 0.8865 0.90582 0.52827 0.0
H5428 H 0.85766 0.94782 0.53767 0.0
H5429 H 0.82911 0.92444 0.53566 0.0
H5430 H 0.88217 0.95573 0.5124 0.0
H5431 H 0.88293 0.93833 0.5733 0.0
H5432 H 0.88046 0.91701 0.59663 0.0
H5433 H 0.92512 0.89772 0.57775 0.0
H5434 H 0.9277 0.91874 0.55412 0.0
H5435 H 0.9679 0.02304 0.5336 0.0
H5436 H 0.93735 0.00488 0.53674 0.0
H5437 H 0.95617 0.9556 0.52936 0.0
H5438 H 0.98641 0.97342 0.52643 0.0
H5439 H 0.93525 0.95463 0.55668 0.0
H5440 H 0.93237 0.96921 0.49387 0.0
H5441 H 0.93503 0.99004 0.47006 0.0
H5442 H 0.89458 0.01421 0.49214 0.0
H5443 H 0.89188 0.99369 0.51627 0.0
C5444 C 0.85777 0.8966 0.52884 0.0
C5445 C 0.84128 0.90146 0.53093 0.0
C5446 C 0.87404 0.91 0.53001 0.0
C5447 C 0.87427 0.9286 0.53331 0.0
C5448 C 0.85784 0.93356 0.53516 0.0
C5449 C 0.84153 0.92014 0.53409 0.0
C5450 C 0.89173 0.94276 0.53481 0.0
C5451 C 0.89368 0.95572 0.52232 0.0
C5452 C 0.90685 0.94264 0.54758 0.0
C5453 C 0.90541 0.93003 0.56184 0.0
C5454 C 0.89214 0.92945 0.57403 0.0
C5455 C 0.89073 0.91743 0.58733 0.0
C5456 C 0.9026 0.90599 0.58865 0.0
C5457 C 0.91593 0.90658 0.5767 0.0
C5458 C 0.91738 0.91856 0.56337 0.0
C5459 C 0.96553 0.00835 0.53281 0.0
C5460 C 0.9796 -0.00028 0.52963 0.0
C5461 C 0.94805 0.99798 0.53451 0.0
C5462 C 0.94439 0.97882 0.53313 0.0
C5463 C 0.95859 0.97032 0.53048 0.0
C5464 C 0.97591 0.98059 0.5287 0.0
C5465 C 0.92584 0.96732 0.53399 0.0
C5466 C 0.92367 0.95483 0.54694 0.0
C5467 C 0.91058 0.96784 0.52159 0.0
C5468 C 0.91209 0.98008 0.50702 0.0
C5469 C 0.92415 0.97907 0.49374 0.0
C5470 C 0.92565 0.9908 0.48017 0.0
C5471 C 0.91502 0.00348 0.47962 0.0
C5472 C 0.90283 0.00441 0.49261 0.0
C5473 C 0.90131 0.99273 0.50623 0.0
H5474 H 0.9162 0.01255 0.46911 0.0
H5475 H 0.90149 0.89669 0.59895 0.0
H5476 H 0.88186 0.04994 0.25174 0.0
H5477 H 0.86603 0.0743 0.25115 0.0
H5478 H 0.91687 0.11441 0.26759 0.0
H5479 H 0.9328 0.08986 0.26877 0.0
H5480 H 0.8923 0.124 0.28609 0.0
H5481 H 0.89407 0.10673 0.22213 0.0
H5482 H 0.89045 0.08601 0.19296 0.0
H5483 H 0.83301 0.06902 0.19525 0.0
H5484 H 0.83631 0.08945 0.22459 0.0
H5485 H 0.84928 0.19618 0.26929 0.0
H5486 H 0.86906 0.17507 0.26713 0.0
H5487 H 0.822 0.12961 0.25466 0.0
H5488 H 0.80218 0.15064 0.25613 0.0
H5489 H 0.84726 0.12503 0.23289 0.0
H5490 H 0.8473 0.14187 0.29896 0.0
H5491 H 0.85209 0.16398 0.32732 0.0
H5492 H 0.90802 0.18376 0.31947 0.0
H5493 H 0.90351 0.16185 0.29097 0.0
C5494 C 0.88976 0.06394 0.2551 0.0
C5495 C 0.90866 0.0679 0.26019 0.0
C5496 C 0.88065 0.07793 0.25467 0.0
C5497 C 0.8902 0.09635 0.25901 0.0
C5498 C 0.90912 0.10037 0.26411 0.0
C5499 C 0.91825 0.08631 0.2647 0.0
C5500 C 0.88027 0.11122 0.25862 0.0
C5501 C 0.88269 0.12437 0.2743 0.0
C5502 C 0.86756 0.1118 0.24335 0.0
C5503 C 0.86547 0.09952 0.22566 0.0
C5504 C 0.88068 0.09848 0.21649 0.0
C5505 C 0.87868 0.0868 0.19991 0.0
C5506 C 0.86152 0.07618 0.19228 0.0
C5507 C 0.8463 0.07725 0.20119 0.0
C5508 C 0.84823 0.08889 0.21779 0.0
C5509 C 0.84311 0.18171 0.26587 0.0
C5510 C 0.82405 0.17518 0.26302 0.0
C5511 C 0.85447 0.1696 0.26484 0.0
C5512 C 0.84709 0.15064 0.26101 0.0
C5513 C 0.8281 0.14413 0.25774 0.0
C5514 C 0.81674 0.15621 0.25876 0.0
C5515 C 0.859 0.13749 0.26049 0.0
C5516 C 0.85696 0.12469 0.24461 0.0
C5517 C 0.87224 0.13742 0.27546 0.0
C5518 C 0.87502 0.15034 0.29276 0.0
C5519 C 0.8606 0.15099 0.30325 0.0
C5520 C 0.86326 0.16347 0.31935 0.0
C5521 C 0.88034 0.1753 0.32516 0.0
C5522 C 0.8948 0.1746 0.31494 0.0
C5523 C 0.8922 0.16214 0.29883 0.0
H5524 H 0.88237 0.18498 0.33761 0.0
H5525 H 0.86 0.06714 0.17944 0.0
H5526 H 0.73217 0.10232 0.01117 0.0
H5527 H 0.70239 0.08106 0.00814 0.0
H5528 H 0.67677 0.12448 0.99714 0.0
H5529 H 0.70657 0.14578 -0.0003 0.0
H5530 H 0.67807 0.08203 0.03 0.0
H5531 H 0.63709 0.10959 0.97358 0.0
H5532 H 0.64054 0.12055 0.9432 0.0
H5533 H 0.68015 0.08968 0.93397 0.0
H5534 H 0.67703 0.07865 0.96433 0.0
H5535 H 0.5852 0.05998 0.04231 0.0
H5536 H 0.61685 0.07376 0.03874 0.0
H5537 H 0.60967 0.04326 0.98407 0.0
H5538 H 0.57784 0.0304 0.98723 0.0
H5539 H 0.62598 0.07518 0.98158 0.0
H5540 H 0.63595 0.03371 0.02364 0.0
H5541 H 0.63293 0.01842 0.05169 0.0
H5542 H 0.65673 0.06954 0.08588 0.0
H5543 H 0.65968 0.08518 0.05804 0.0
C5544 C 0.72022 0.10733 0.00786 0.0
C5545 C 0.72173 0.12581 0.0059 0.0
C5546 C 0.7032 0.09513 0.0061 0.0
C5547 C 0.68735 0.10115 0.00239 0.0
C5548 C 0.68882 0.11944 -0.0003 0.0
C5549 C 0.70587 0.13164 0.00131 0.0
C5550 C 0.66936 0.08887 0.00332 0.0
C5551 C 0.6667 0.08039 0.01934 0.0
C5552 C 0.65462 0.08642 0.98928 0.0
C5553 C 0.65695 0.09346 0.97129 0.0
C5554 C 0.64661 0.10524 0.9651 0.0
C5555 C 0.64855 0.1115 0.94792 0.0
C5556 C 0.66062 0.10588 0.9367 0.0
C5557 C 0.67088 0.0941 0.94271 0.0
C5558 C 0.66911 0.08792 0.95995 0.0
C5559 C 0.59053 0.05603 0.0297 0.0
C5560 C 0.57919 0.04417 0.01507 0.0
C5561 C 0.60862 0.06384 0.02766 0.0
C5562 C 0.61576 0.05941 0.01119 0.0
C5563 C 0.60451 0.04698 0.99687 0.0
C5564 C 0.58636 0.03956 -0.00128 0.0
C5565 C 0.63458 0.06853 0.00844 0.0
C5566 C 0.63737 0.07654 0.99214 0.0
C5567 C 0.64959 0.07 0.02195 0.0
C5568 C 0.64791 0.06063 0.03874 0.0
C5569 C 0.64044 0.04171 0.03714 0.0
C5570 C 0.63875 0.03297 0.05301 0.0
C5571 C 0.64461 0.043 0.07055 0.0
C5572 C 0.6522 0.06178 0.07227 0.0
C5573 C 0.6539 0.07058 0.05646 0.0
H5574 H 0.64329 0.03622 0.08282 0.0
H5575 H 0.66194 0.11057 0.92332 0.0
H5576 H 0.16444 0.4623 0.25939 0.0
H5577 H 0.18447 0.44195 0.26413 0.0
H5578 H 0.22553 0.47632 0.23823 0.0
H5579 H 0.20565 0.49706 0.23368 0.0
H5580 H 0.21875 0.43427 0.22945 0.0
H5581 H 0.23258 0.48509 0.2794 0.0
H5582 H 0.22386 0.50551 0.30354 0.0
H5583 H 0.20059 0.45947 0.33028 0.0
H5584 H 0.2089 0.43875 0.3061 0.0
H5585 H 0.2935 0.40213 0.26452 0.0
H5586 H 0.27444 0.42249 0.25581 0.0
H5587 H 0.23732 0.4016 0.2939 0.0
H5588 H 0.25632 0.3813 0.30269 0.0
H5589 H 0.24251 0.43748 0.29567 0.0
H5590 H 0.22782 0.38654 0.24811 0.0
H5591 H 0.23409 0.36416 0.22423 0.0
H5592 H 0.25588 0.40727 0.19313 0.0
H5593 H 0.25 0.42998 0.217 0.0
C5594 C 0.17758 0.46537 0.25436 0.0
C5595 C 0.18357 0.48137 0.24633 0.0
C5596 C 0.18898 0.45373 0.25708 0.0
C5597 C 0.20644 0.45777 0.25163 0.0
C5598 C 0.21205 0.47303 0.24248 0.0
C5599 C 0.20072 0.48487 0.23996 0.0
C5600 C 0.21937 0.44709 0.25728 0.0
C5601 C 0.22424 0.43514 0.24385 0.0
C5602 C 0.22595 0.4479 0.27616 0.0
C5603 C 0.2212 0.46037 0.29085 0.0
C5604 C 0.22546 0.47931 0.29034 0.0
C5605 C 0.22062 0.49094 0.30404 0.0
C5606 C 0.21163 0.48379 0.31841 0.0
C5607 C 0.20753 0.46499 0.31913 0.0
C5608 C 0.21231 0.4533 0.30544 0.0
C5609 C 0.28134 0.402 0.27111 0.0
C5610 C 0.27638 0.39017 0.28428 0.0
C5611 C 0.27045 0.41357 0.26609 0.0
C5612 C 0.25435 0.41333 0.27401 0.0
C5613 C 0.24971 0.40199 0.28763 0.0
C5614 C 0.26062 0.39048 0.29271 0.0
C5615 C 0.24209 0.42462 0.26784 0.0
C5616 C 0.23725 0.43666 0.28121 0.0
C5617 C 0.23528 0.42361 0.24894 0.0
C5618 C 0.23866 0.40999 0.23445 0.0
C5619 C 0.23408 0.39127 0.23625 0.0
C5620 C 0.23755 0.37852 0.22271 0.0
C5621 C 0.24544 0.38429 0.2072 0.0
C5622 C 0.24981 0.40283 0.20517 0.0
C5623 C 0.2464 0.41565 0.2187 0.0
H5624 H 0.24812 0.3744 0.19673 0.0
H5625 H 0.20789 0.49281 0.329 0.0
H5626 H 0.2209 0.37707 0.02022 0.0
H5627 H 0.19672 0.39342 0.01991 0.0
H5628 H 0.23518 0.44232 0.04693 0.0
H5629 H 0.25932 0.42604 0.04745 0.0
H5630 H 0.20351 0.43793 0.06148 0.0
H5631 H 0.22172 0.43592 -8e-05 0.0
H5632 H 0.2274 0.42073 0.97032 0.0
H5633 H 0.17151 0.39075 0.95996 0.0
H5634 H 0.16555 0.40559 0.98963 0.0
H5635 H 0.15665 0.50525 0.04352 0.0
H5636 H 0.17844 0.48636 0.04454 0.0
H5637 H 0.13787 0.44079 0.0141 0.0
H5638 H 0.1162 0.45991 0.01217 0.0
H5639 H 0.16913 0.44175 0.00156 0.0
H5640 H 0.15012 0.44415 0.06193 0.0
H5641 H 0.14385 0.45871 0.09157 0.0
H5642 H 0.20017 0.48685 0.10448 0.0
H5643 H 0.20674 0.47263 0.0748 0.0
C5644 C 0.22418 0.39126 0.02624 0.0
C5645 C 0.24209 0.40024 0.0338 0.0
C5646 C 0.21034 0.40064 0.02596 0.0
C5647 C 0.21412 0.41922 0.03317 0.0
C5648 C 0.23188 0.42803 0.04124 0.0
C5649 C 0.24571 0.41868 0.0415 0.0
C5650 C 0.19977 0.42965 0.03201 0.0
C5651 C 0.19613 0.4389 0.04835 0.0
C5652 C 0.1897 0.43056 0.01497 0.0
C5653 C 0.19324 0.42172 0.99708 0.0
C5654 C 0.21068 0.42599 0.99139 0.0
C5655 C 0.21394 0.41746 0.97459 0.0
C5656 C 0.19983 0.40474 0.96329 0.0
C5657 C 0.18242 0.40057 0.96874 0.0
C5658 C 0.1791 0.40905 0.98554 0.0
C5659 C 0.15236 0.4913 0.03677 0.0
C5660 C 0.13454 0.4842 0.02776 0.0
C5661 C 0.16482 0.48038 0.03761 0.0
C5662 C 0.15978 0.46197 0.02971 0.0
C5663 C 0.14212 0.45489 0.02043 0.0
C5664 C 0.12966 0.46584 0.01949 0.0
C5665 C 0.17299 0.45021 0.03103 0.0
C5666 C 0.17641 0.4407 0.01472 0.0
C5667 C 0.18276 0.44895 0.04814 0.0
C5668 C 0.17889 0.45744 0.06606 0.0
C5669 C 0.16115 0.45353 0.07103 0.0
C5670 C 0.15754 0.46171 0.08785 0.0
C5671 C 0.17159 0.47373 0.09988 0.0
C5672 C 0.18929 0.47755 0.09514 0.0
C5673 C 0.19297 0.46942 0.07833 0.0
H5674 H 0.16877 0.48005 0.11289 0.0
H5675 H 0.20239 0.39815 0.95029 0.0
H5676 H 0.88753 0.98207 0.26363 0.0
H5677 H 0.86416 0.95357 0.26246 0.0
H5678 H 0.90544 0.92329 0.26259 0.0
H5679 H 0.92887 0.95164 0.26388 0.0
H5680 H 0.8752 0.90716 0.23644 0.0
H5681 H 0.88786 0.93186 0.30142 0.0
H5682 H 0.89057 0.95559 0.32801 0.0
H5683 H 0.83431 0.9552 0.31539 0.0
H5684 H 0.83134 0.93164 0.28854 0.0
H5685 H 0.83166 0.82195 0.25926 0.0
H5686 H 0.85134 0.85181 0.25796 0.0
H5687 H 0.80729 0.87694 0.26794 0.0
H5688 H 0.78755 0.84687 0.27006 0.0
H5689 H 0.83675 0.89698 0.28726 0.0
H5690 H 0.82273 0.87159 0.22387 0.0
H5691 H 0.81897 0.84806 0.19696 0.0
H5692 H 0.87604 0.85044 0.20503 0.0
H5693 H 0.8801 0.87383 0.23223 0.0
C5694 C 0.89165 0.96935 0.26333 0.0
C5695 C 0.91014 0.96922 0.26389 0.0
C5696 C 0.87826 0.95306 0.26273 0.0
C5697 C 0.88303 0.93626 0.26255 0.0
C5698 C 0.90141 0.93605 0.26272 0.0
C5699 C 0.91481 0.95233 0.26353 0.0
C5700 C 0.86898 0.91888 0.2624 0.0
C5701 C 0.8669 0.90487 0.24763 0.0
C5702 C 0.85767 0.91607 0.27666 0.0
C5703 C 0.85943 0.93014 0.29285 0.0
C5704 C 0.8761 0.93695 0.30422 0.0
C5705 C 0.87768 0.95034 0.31935 0.0
C5706 C 0.86264 0.95694 0.32335 0.0
C5707 C 0.84596 0.9501 0.31225 0.0
C5708 C 0.84432 0.93672 0.29708 0.0
C5709 C 0.82602 0.83376 0.26103 0.0
C5710 C 0.80789 0.83191 0.26459 0.0
C5711 C 0.83734 0.85092 0.2602 0.0
C5712 C 0.83081 0.86675 0.26244 0.0
C5713 C 0.81271 0.86499 0.26606 0.0
C5714 C 0.80139 0.84776 0.26718 0.0
C5715 C 0.84308 0.88504 0.2614 0.0
C5716 C 0.84487 0.89926 0.27594 0.0
C5717 C 0.85395 0.88815 0.24677 0.0
C5718 C 0.85169 0.87438 0.23018 0.0
C5719 C 0.83447 0.86704 0.21996 0.0
C5720 C 0.83229 0.85372 0.20465 0.0
C5721 C 0.84725 0.84772 0.19928 0.0
C5722 C 0.86445 0.8551 0.2092 0.0
C5723 C 0.86671 0.86841 0.22456 0.0
H5724 H 0.84553 0.83738 0.18744 0.0
H5725 H 0.86388 0.96731 0.33508 0.0
H5726 H 0.68439 0.07785 0.7515 0.0
H5727 H 0.70502 0.10804 0.75326 0.0
H5728 H 0.68548 0.12527 0.80406 0.0
H5729 H 0.66419 0.09542 0.80175 0.0
H5730 H 0.68716 0.15031 0.78425 0.0
H5731 H 0.72916 0.1156 0.80182 0.0
H5732 H 0.74449 0.09039 0.79925 0.0
H5733 H 0.76311 0.10623 0.74841 0.0
H5734 H 0.74768 0.1314 0.75054 0.0
H5735 H 0.75445 0.2328 0.80658 0.0
H5736 H 0.73949 0.201 0.80809 0.0
H5737 H 0.74608 0.18688 0.75088 0.0
H5738 H 0.76115 0.21871 0.74917 0.0
H5739 H 0.75232 0.16062 0.77541 0.0
H5740 H 0.70768 0.19475 0.75869 0.0
H5741 H 0.69353 0.22064 0.7638 0.0
H5742 H 0.68135 0.20588 0.81711 0.0
H5743 H 0.69565 0.18002 0.81239 0.0
C5744 C 0.68458 0.08808 0.76306 0.0
C5745 C 0.67267 0.08438 0.77646 0.0
C5746 C 0.69647 0.10529 0.76415 0.0
C5747 C 0.69704 0.11889 0.77898 0.0
C5748 C 0.6853 0.11504 0.79249 0.0
C5749 C 0.67314 0.09801 0.79117 0.0
C5750 C 0.70913 0.13743 0.77994 0.0
C5751 C 0.70147 0.15247 0.78263 0.0
C5752 C 0.72779 0.14039 0.77758 0.0
C5753 C 0.73712 0.12529 0.77625 0.0
C5754 C 0.73641 0.11363 0.79002 0.0
C5755 C 0.74514 0.09936 0.78865 0.0
C5756 C 0.75473 0.09669 0.77365 0.0
C5757 C 0.75565 0.10831 0.76001 0.0
C5758 C 0.74694 0.12259 0.7613 0.0
C5759 C 0.75293 0.22294 0.79435 0.0
C5760 C 0.75877 0.22833 0.77766 0.0
C5761 C 0.74441 0.20477 0.79528 0.0
C5762 C 0.74157 0.19172 0.77955 0.0
C5763 C 0.74819 0.19683 0.76315 0.0
C5764 C 0.75668 0.21502 0.76218 0.0
C5765 C 0.73024 0.17316 0.77972 0.0
C5766 C 0.73803 0.15824 0.77718 0.0
C5767 C 0.71179 0.17027 0.78259 0.0
C5768 C 0.70285 0.18556 0.78524 0.0
C5769 C 0.70207 0.19709 0.77153 0.0
C5770 C 0.69401 0.21175 0.77435 0.0
C5771 C 0.68658 0.21493 0.79078 0.0
C5772 C 0.68713 0.20341 0.80439 0.0
C5773 C 0.69518 0.18874 0.80164 0.0
H5774 H 0.68037 0.22629 0.79295 0.0
H5775 H 0.76148 0.08563 0.77262 0.0
loop_
_geom_bond_atom_site_label_1
_geom_bond_atom_site_label_2
_geom_bond_distance
_geom_bond_site_symmetry_2
_ccdc_geom_bond_type
Co0 O1 2.216 . S
Co0 O2 2.091 . S
Co0 O4 2.004 . S
Co0 O10 2.021 . S
Co0 O12 2.137 . S
Co0 O13 2.244 . S
O1 Co0 2.216 . S
O1 C8 1.247 . S
O2 Co0 2.091 . S
O2 C8 1.261 . S
C3 O12 1.247 . S
C3 O13 1.272 . S
O4 Co0 2.004 . S
O4 C9 1.259 1_455 S
Co5 O6 2.061 1_455 S
Co5 O11 2.052 . S
Co5 O13 2.135 . S
O6 Co5 2.061 1_655 S
O6 C9 1.235 . S
C7 O10 1.238 . S
C7 O11 1.241 . S
C8 O1 1.247 . S
C8 O2 1.261 . S
C9 O4 1.259 1_655 S
C9 O6 1.235 . S
O10 Co0 2.021 . S
O10 C7 1.238 . S
O11 Co5 2.052 . S
O11 C7 1.241 . S
O12 Co0 2.137 . S
O12 C3 1.247 . S
O13 Co0 2.244 . S
O13 C3 1.272 . S
O13 Co5 2.135 . S
Co14 O15 2.216 1_455 S
Co14 O16 2.065 1_455 S
Co14 O18 2.004 . S
Co14 O24 2.021 . S
Co14 O26 2.137 . S
Co14 O27 2.244 . S
O15 Co14 2.216 1_655 S
O15 C22 1.247 . S
O16 Co14 2.065 1_655 S
O16 C22 1.292 . S
C17 O26 1.247 . S
C17 O27 1.272 . S
O18 Co14 2.004 . S
O18 C23 1.259 . S
Co19 O20 2.061 . S
Co19 O25 2.052 . S
Co19 O27 2.135 . S
O20 Co19 2.061 . S
O20 C23 1.235 . S
C21 O24 1.238 . S
C21 O25 1.241 . S
C22 O15 1.247 . S
C22 O16 1.292 . S
C23 O18 1.259 . S
C23 O20 1.235 . S
O24 Co14 2.021 . S
O24 C21 1.238 . S
O25 Co19 2.052 . S
O25 C21 1.241 . S
O26 Co14 2.137 . S
O26 C17 1.247 . S
O27 Co14 2.244 . S
O27 C17 1.272 . S
O27 Co19 2.135 . S
Co28 O29 2.216 . S
Co28 O30 2.091 . S
Co28 O32 2.004 . S
Co28 O38 2.021 . S
Co28 O40 2.137 . S
Co28 O41 2.244 . S
O29 Co28 2.216 . S
O29 C36 1.247 . S
O30 Co28 2.091 . S
O30 C36 1.261 . S
C31 O40 1.247 . S
C31 O41 1.272 . S
O32 Co28 2.004 . S
O32 C37 1.259 . S
Co33 O34 2.061 . S
Co33 O39 2.052 . S
Co33 O41 2.135 . S
O34 Co33 2.061 . S
O34 C37 1.235 . S
C35 O38 1.238 . S
C35 O39 1.241 . S
C36 O29 1.247 . S
C36 O30 1.261 . S
C37 O32 1.259 . S
C37 O34 1.235 . S
O38 Co28 2.021 . S
O38 C35 1.238 . S
O39 Co33 2.052 . S
O39 C35 1.241 . S
O40 Co28 2.137 . S
O40 C31 1.247 . S
O41 Co28 2.244 . S
O41 C31 1.272 . S
O41 Co33 2.135 . S
Co42 O43 2.216 . S
Co42 O44 2.091 . S
Co42 O46 2.004 . S
Co42 O52 2.021 . S
Co42 O54 2.137 . S
Co42 O55 2.244 . S
O43 Co42 2.216 . S
O43 C50 1.247 . S
O44 Co42 2.091 . S
O44 C50 1.261 . S
C45 O54 1.247 . S
C45 O55 1.272 . S
O46 Co42 2.004 . S
O46 C51 1.259 . S
Co47 O48 2.061 . S
Co47 O53 2.052 . S
Co47 O55 2.135 . S
O48 Co47 2.061 . S
O48 C51 1.235 . S
C49 O52 1.238 . S
C49 O53 1.241 . S
C50 O43 1.247 . S
C50 O44 1.261 . S
C51 O46 1.259 . S
C51 O48 1.235 . S
O52 Co42 2.021 . S
O52 C49 1.238 . S
O53 Co47 2.052 . S
O53 C49 1.241 . S
O54 Co42 2.137 . S
O54 C45 1.247 . S
O55 Co42 2.244 . S
O55 C45 1.272 . S
O55 Co47 2.135 . S
Co56 O57 2.216 . S
Co56 O58 2.091 . S
Co56 O60 2.004 . S
Co56 O66 2.021 . S
Co56 O68 2.137 . S
Co56 O69 2.244 . S
O57 Co56 2.216 . S
O57 C64 1.247 . S
O58 Co56 2.091 . S
O58 C64 1.261 . S
C59 O68 1.247 . S
C59 O69 1.272 . S
O60 Co56 2.004 . S
O60 C65 1.259 . S
Co61 O62 2.061 . S
Co61 O67 2.052 . S
Co61 O69 2.135 . S
O62 Co61 2.061 . S
O62 C65 1.235 . S
C63 O66 1.238 . S
C63 O67 1.241 . S
C64 O57 1.247 . S
C64 O58 1.261 . S
C65 O60 1.259 . S
C65 O62 1.235 . S
O66 Co56 2.021 . S
O66 C63 1.238 . S
O67 Co61 2.052 . S
O67 C63 1.241 . S
O68 Co56 2.137 . S
O68 C59 1.247 . S
O69 Co56 2.244 . S
O69 C59 1.272 . S
O69 Co61 2.135 . S
Co70 O71 2.216 . S
Co70 O72 2.091 . S
Co70 O74 2.004 . S
Co70 O80 2.021 . S
Co70 O82 2.137 . S
Co70 O83 2.244 . S
O71 Co70 2.216 . S
O71 C78 1.247 . S
O72 Co70 2.091 . S
O72 C78 1.261 . S
C73 O82 1.247 . S
C73 O83 1.272 . S
O74 Co70 2.004 . S
O74 C79 1.259 . S
Co75 O76 2.061 . S
Co75 O81 2.052 . S
Co75 O83 2.135 . S
O76 Co75 2.061 . S
O76 C79 1.235 . S
C77 O80 1.238 . S
C77 O81 1.241 . S
C78 O71 1.247 . S
C78 O72 1.261 . S
C79 O74 1.259 . S
C79 O76 1.235 . S
O80 Co70 2.021 . S
O80 C77 1.238 . S
O81 Co75 2.052 . S
O81 C77 1.241 . S
O82 Co70 2.137 . S
O82 C73 1.247 . S
O83 Co70 2.244 . S
O83 C73 1.272 . S
O83 Co75 2.135 . S
Co84 O85 2.216 . S
Co84 O86 2.091 . S
Co84 O88 2.004 . S
Co84 O94 2.021 . S
Co84 O96 2.137 . S
Co84 O97 2.244 . S
O85 Co84 2.216 . S
O85 C92 1.247 . S
O86 Co84 2.091 . S
O86 C92 1.261 . S
C87 O96 1.247 . S
C87 O97 1.272 . S
O88 Co84 2.004 . S
O88 C93 1.259 . S
Co89 O90 2.061 . S
Co89 O95 2.052 . S
Co89 O97 2.135 . S
O90 Co89 2.061 . S
O90 C93 1.235 . S
C91 O94 1.238 . S
C91 O95 1.241 . S
C92 O85 1.247 . S
C92 O86 1.261 . S
C93 O88 1.259 . S
C93 O90 1.235 . S
O94 Co84 2.021 . S
O94 C91 1.238 . S
O95 Co89 2.052 . S
O95 C91 1.241 . S
O96 Co84 2.137 . S
O96 C87 1.247 . S
O97 Co84 2.244 . S
O97 C87 1.272 . S
O97 Co89 2.135 . S
Co98 O99 2.216 . S
Co98 O100 2.091 . S
Co98 O102 2.004 1_455 S
Co98 O108 2.021 1_455 S
Co98 O110 2.137 . S
Co98 O111 2.244 1_455 S
O99 Co98 2.216 . S
O99 C106 1.247 . S
O100 Co98 2.091 . S
O100 C106 1.261 . S
C101 O110 1.247 . S
C101 O111 1.272 1_455 S
O102 Co98 2.004 1_655 S
O102 C107 1.259 . S
Co103 O104 2.061 . S
Co103 O109 2.052 . S
Co103 O111 2.135 . S
O104 Co103 2.061 . S
O104 C107 1.235 . S
C105 O108 1.238 . S
C105 O109 1.241 . S
C106 O99 1.247 . S
C106 O100 1.261 . S
C107 O102 1.259 . S
C107 O104 1.235 . S
O108 Co98 2.021 1_655 S
O108 C105 1.238 . S
O109 Co103 2.052 . S
O109 C105 1.241 . S
O110 Co98 2.137 . S
O110 C101 1.247 . S
O111 Co98 2.244 1_655 S
O111 C101 1.272 1_655 S
O111 Co103 2.135 . S
Co112 O113 2.216 . S
Co112 O114 2.091 . S
Co112 O116 2.004 1_545 S
Co112 O122 2.021 . S
Co112 O124 2.137 . S
Co112 O125 2.244 . S
O113 Co112 2.216 . S
O113 C120 1.247 . S
O114 Co112 2.091 . S
O114 C120 1.261 . S
C115 O124 1.247 . S
C115 O125 1.272 . S
O116 Co112 2.004 1_565 S
O116 C121 1.259 . S
Co117 O118 2.061 . S
Co117 O123 2.052 . S
Co117 O125 2.135 1_565 S
O118 Co117 2.061 . S
O118 C121 1.235 . S
C119 O122 1.237 1_565 S
C119 O123 1.242 . S
C120 O113 1.247 . S
C120 O114 1.261 . S
C121 O116 1.259 . S
C121 O118 1.235 . S
O122 Co112 2.021 . S
O122 C119 1.237 1_545 S
O123 Co117 2.052 . S
O123 C119 1.242 . S
O124 Co112 2.137 . S
O124 C115 1.247 . S
O125 Co112 2.244 . S
O125 C115 1.272 . S
O125 Co117 2.135 1_545 S
Co126 O127 2.216 . S
Co126 O128 2.091 . S
Co126 O130 2.004 . S
Co126 O136 2.021 . S
Co126 O138 2.137 . S
Co126 O139 2.244 . S
O127 Co126 2.216 . S
O127 C134 1.247 . S
O128 Co126 2.091 . S
O128 C134 1.261 . S
C129 O138 1.247 . S
C129 O139 1.272 . S
O130 Co126 2.004 . S
O130 C135 1.259 . S
Co131 O132 2.061 . S
Co131 O137 2.052 . S
Co131 O139 2.135 . S
O132 Co131 2.061 . S
O132 C135 1.235 . S
C133 O136 1.238 . S
C133 O137 1.241 . S
C134 O127 1.247 . S
C134 O128 1.261 . S
C135 O130 1.259 . S
C135 O132 1.235 . S
O136 Co126 2.021 . S
O136 C133 1.238 . S
O137 Co131 2.052 . S
O137 C133 1.241 . S
O138 Co126 2.137 . S
O138 C129 1.247 . S
O139 Co126 2.244 . S
O139 C129 1.272 . S
O139 Co131 2.135 . S
Co140 O141 2.216 . S
Co140 O142 2.091 . S
Co140 O144 2.004 . S
Co140 O150 2.021 . S
Co140 O152 2.137 . S
Co140 O153 2.244 . S
O141 Co140 2.216 . S
O141 C148 1.247 . S
O142 Co140 2.091 . S
O142 C148 1.261 . S
C143 O152 1.247 . S
C143 O153 1.272 . S
O144 Co140 2.004 . S
O144 C149 1.259 . S
Co145 O146 2.061 . S
Co145 O151 2.052 . S
Co145 O153 2.135 . S
O146 Co145 2.061 . S
O146 C149 1.235 . S
C147 O150 1.238 . S
C147 O151 1.241 . S
C148 O141 1.247 . S
C148 O142 1.261 . S
C149 O144 1.259 . S
C149 O146 1.235 . S
O150 Co140 2.021 . S
O150 C147 1.238 . S
O151 Co145 2.052 . S
O151 C147 1.241 . S
O152 Co140 2.137 . S
O152 C143 1.247 . S
O153 Co140 2.244 . S
O153 C143 1.272 . S
O153 Co145 2.135 . S
Co154 O155 2.216 . S
Co154 O156 2.091 1_556 S
Co154 O158 2.002 . S
Co154 O164 2.021 1_556 S
Co154 O166 2.137 . S
Co154 O167 2.244 . S
O155 Co154 2.216 . S
O155 C162 1.249 . S
O156 Co154 2.091 1_554 S
O156 C162 1.263 1_554 S
C157 O166 1.247 . S
C157 O167 1.272 . S
O158 Co154 2.002 . S
O158 C163 1.255 1_556 S
Co159 O160 2.061 1_556 S
Co159 O165 2.052 1_556 S
Co159 O167 2.135 . S
O160 Co159 2.061 1_554 S
O160 C163 1.235 . S
C161 O164 1.238 . S
C161 O165 1.241 . S
C162 O155 1.249 . S
C162 O156 1.263 1_556 S
C163 O158 1.255 1_554 S
C163 O160 1.235 . S
O164 Co154 2.021 1_554 S
O164 C161 1.238 . S
O165 Co159 2.052 1_554 S
O165 C161 1.241 . S
O166 Co154 2.137 . S
O166 C157 1.247 . S
O167 Co154 2.244 . S
O167 C157 1.272 . S
O167 Co159 2.135 . S
Co168 O169 2.216 . S
Co168 O170 2.091 . S
Co168 O172 2.004 . S
Co168 O178 2.021 . S
Co168 O180 2.137 1_554 S
Co168 O181 2.244 . S
O169 Co168 2.216 . S
O169 C176 1.247 . S
O170 Co168 2.091 . S
O170 C176 1.261 . S
C171 O180 1.247 . S
C171 O181 1.272 1_556 S
O172 Co168 2.004 . S
O172 C177 1.259 . S
Co173 O174 2.061 . S
Co173 O179 2.052 . S
Co173 O181 2.135 . S
O174 Co173 2.061 . S
O174 C177 1.235 . S
C175 O178 1.238 . S
C175 O179 1.241 . S
C176 O169 1.247 . S
C176 O170 1.261 . S
C177 O172 1.259 . S
C177 O174 1.235 . S
O178 Co168 2.021 . S
O178 C175 1.238 . S
O179 Co173 2.052 . S
O179 C175 1.241 . S
O180 Co168 2.137 1_556 S
O180 C171 1.247 . S
O181 Co168 2.244 . S
O181 C171 1.272 1_554 S
O181 Co173 2.135 . S
Co182 O183 2.216 . S
Co182 O184 2.091 . S
Co182 O186 2.004 . S
Co182 O192 2.021 . S
Co182 O194 2.137 . S
Co182 O195 2.244 . S
O183 Co182 2.216 . S
O183 C190 1.247 . S
O184 Co182 2.091 . S
O184 C190 1.261 . S
C185 O194 1.247 . S
C185 O195 1.272 . S
O186 Co182 2.004 . S
O186 C191 1.259 . S
Co187 O188 2.061 . S
Co187 O193 2.052 . S
Co187 O195 2.135 . S
O188 Co187 2.061 . S
O188 C191 1.235 . S
C189 O192 1.238 . S
C189 O193 1.241 . S
C190 O183 1.247 . S
C190 O184 1.261 . S
C191 O186 1.259 . S
C191 O188 1.235 . S
O192 Co182 2.021 . S
O192 C189 1.238 . S
O193 Co187 2.052 . S
O193 C189 1.241 . S
O194 Co182 2.137 . S
O194 C185 1.247 . S
O195 Co182 2.244 . S
O195 C185 1.272 . S
O195 Co187 2.135 . S
Co196 O197 2.216 . S
Co196 O198 2.091 . S
Co196 O200 2.004 . S
Co196 O206 2.021 . S
Co196 O208 2.137 . S
Co196 O209 2.244 . S
O197 Co196 2.216 . S
O197 C204 1.247 . S
O198 Co196 2.091 . S
O198 C204 1.261 . S
C199 O208 1.247 . S
C199 O209 1.272 . S
O200 Co196 2.004 . S
O200 C205 1.259 . S
Co201 O202 2.061 . S
Co201 O207 2.052 . S
Co201 O209 2.135 . S
O202 Co201 2.061 . S
O202 C205 1.235 . S
C203 O206 1.238 . S
C203 O207 1.241 . S
C204 O197 1.247 . S
C204 O198 1.261 . S
C205 O200 1.259 . S
C205 O202 1.235 . S
O206 Co196 2.021 . S
O206 C203 1.238 . S
O207 Co201 2.052 . S
O207 C203 1.241 . S
O208 Co196 2.137 . S
O208 C199 1.247 . S
O209 Co196 2.244 . S
O209 C199 1.272 . S
O209 Co201 2.135 . S
Co210 O211 2.216 . S
Co210 O212 2.091 . S
Co210 O214 2.004 . S
Co210 O220 2.021 . S
Co210 O222 2.137 . S
Co210 O223 2.244 . S
O211 Co210 2.216 . S
O211 C218 1.247 . S
O212 Co210 2.091 . S
O212 C218 1.261 . S
C213 O222 1.247 . S
C213 O223 1.272 . S
O214 Co210 2.004 . S
O214 C219 1.259 . S
Co215 O216 2.061 . S
Co215 O221 2.052 . S
Co215 O223 2.135 . S
O216 Co215 2.061 . S
O216 C219 1.235 . S
C217 O220 1.238 . S
C217 O221 1.241 . S
C218 O211 1.247 . S
C218 O212 1.261 . S
C219 O214 1.259 . S
C219 O216 1.235 . S
O220 Co210 2.021 . S
O220 C217 1.238 . S
O221 Co215 2.052 . S
O221 C217 1.241 . S
O222 Co210 2.137 . S
O222 C213 1.247 . S
O223 Co210 2.244 . S
O223 C213 1.272 . S
O223 Co215 2.135 . S
Co224 O225 2.216 . S
Co224 O226 2.091 . S
Co224 O228 2.004 . S
Co224 O234 2.021 . S
Co224 O236 2.137 . S
Co224 O237 2.244 . S
O225 Co224 2.216 . S
O225 C232 1.247 . S
O226 Co224 2.091 . S
O226 C232 1.261 . S
C227 O236 1.247 . S
C227 O237 1.272 . S
O228 Co224 2.004 . S
O228 C233 1.259 1_545 S
Co229 O230 2.061 1_545 S
Co229 O235 2.052 . S
Co229 O237 2.135 . S
O230 Co229 2.061 1_565 S
O230 C233 1.235 . S
C231 O234 1.238 . S
C231 O235 1.241 . S
C232 O225 1.247 . S
C232 O226 1.261 . S
C233 O228 1.259 1_565 S
C233 O230 1.235 . S
O234 Co224 2.021 . S
O234 C231 1.238 . S
O235 Co229 2.052 . S
O235 C231 1.241 . S
O236 Co224 2.137 . S
O236 C227 1.247 . S
O237 Co224 2.244 . S
O237 C227 1.272 . S
O237 Co229 2.135 . S
Co238 O239 2.216 . S
Co238 O240 2.091 . S
Co238 O242 2.004 . S
Co238 O248 2.021 . S
Co238 O250 2.137 . S
Co238 O251 2.244 . S
O239 Co238 2.216 . S
O239 C246 1.247 . S
O240 Co238 2.091 . S
O240 C246 1.261 . S
C241 O250 1.247 . S
C241 O251 1.272 . S
O242 Co238 2.004 . S
O242 C247 1.259 . S
Co243 O244 2.061 . S
Co243 O249 2.052 . S
Co243 O251 2.135 . S
O244 Co243 2.061 . S
O244 C247 1.235 . S
C245 O248 1.238 . S
C245 O249 1.241 . S
C246 O239 1.247 . S
C246 O240 1.261 . S
C247 O242 1.259 . S
C247 O244 1.235 . S
O248 Co238 2.021 . S
O248 C245 1.238 . S
O249 Co243 2.052 . S
O249 C245 1.241 . S
O250 Co238 2.137 . S
O250 C241 1.247 . S
O251 Co238 2.244 . S
O251 C241 1.272 . S
O251 Co243 2.135 . S
Co252 O253 2.216 . S
Co252 O254 2.091 . S
Co252 O256 2.004 . S
Co252 O262 2.021 . S
Co252 O264 2.137 . S
Co252 O265 2.244 . S
O253 Co252 2.216 . S
O253 C260 1.247 . S
O254 Co252 2.091 . S
O254 C260 1.261 . S
C255 O264 1.247 . S
C255 O265 1.272 . S
O256 Co252 2.004 . S
O256 C261 1.259 . S
Co257 O258 2.061 . S
Co257 O263 2.052 . S
Co257 O265 2.135 . S
O258 Co257 2.061 . S
O258 C261 1.235 . S
C259 O262 1.238 . S
C259 O263 1.241 . S
C260 O253 1.247 . S
C260 O254 1.261 . S
C261 O256 1.259 . S
C261 O258 1.235 . S
O262 Co252 2.021 . S
O262 C259 1.238 . S
O263 Co257 2.052 . S
O263 C259 1.241 . S
O264 Co252 2.137 . S
O264 C255 1.247 . S
O265 Co252 2.244 . S
O265 C255 1.272 . S
O265 Co257 2.135 . S
Co266 O267 2.216 . S
Co266 O268 2.091 . S
Co266 O270 2.004 . S
Co266 O276 2.021 . S
Co266 O278 2.137 . S
Co266 O279 2.244 . S
O267 Co266 2.216 . S
O267 C274 1.247 . S
O268 Co266 2.091 . S
O268 C274 1.261 . S
C269 O278 1.247 . S
C269 O279 1.272 . S
O270 Co266 2.004 . S
O270 C275 1.259 . S
Co271 O272 2.061 . S
Co271 O277 2.052 . S
Co271 O279 2.135 . S
O272 Co271 2.061 . S
O272 C275 1.235 . S
C273 O276 1.238 . S
C273 O277 1.241 . S
C274 O267 1.247 . S
C274 O268 1.261 . S
C275 O270 1.259 . S
C275 O272 1.235 . S
O276 Co266 2.021 . S
O276 C273 1.238 . S
O277 Co271 2.052 . S
O277 C273 1.241 . S
O278 Co266 2.137 . S
O278 C269 1.247 . S
O279 Co266 2.244 . S
O279 C269 1.272 . S
O279 Co271 2.135 . S
Co280 O281 2.216 . S
Co280 O282 2.091 . S
Co280 O284 2.004 . S
Co280 O290 2.021 . S
Co280 O292 2.137 1_554 S
Co280 O293 2.244 . S
O281 Co280 2.216 . S
O281 C288 1.247 . S
O282 Co280 2.091 . S
O282 C288 1.261 . S
C283 O292 1.247 . S
C283 O293 1.272 1_556 S
O284 Co280 2.004 . S
O284 C289 1.259 . S
Co285 O286 2.061 . S
Co285 O291 2.052 . S
Co285 O293 2.135 . S
O286 Co285 2.061 . S
O286 C289 1.235 . S
C287 O290 1.238 . S
C287 O291 1.241 . S
C288 O281 1.247 . S
C288 O282 1.261 . S
C289 O284 1.259 . S
C289 O286 1.235 . S
O290 Co280 2.021 . S
O290 C287 1.238 . S
O291 Co285 2.052 . S
O291 C287 1.241 . S
O292 Co280 2.137 1_556 S
O292 C283 1.247 . S
O293 Co280 2.244 . S
O293 C283 1.272 1_554 S
O293 Co285 2.135 . S
Co294 O295 2.216 . S
Co294 O296 2.091 . S
Co294 O298 2.004 . S
Co294 O304 2.021 . S
Co294 O306 2.137 . S
Co294 O307 2.244 . S
O295 Co294 2.216 . S
O295 C302 1.247 . S
O296 Co294 2.091 . S
O296 C302 1.261 . S
C297 O306 1.247 . S
C297 O307 1.272 . S
O298 Co294 2.004 . S
O298 C303 1.259 . S
Co299 O300 2.061 . S
Co299 O305 2.052 . S
Co299 O307 2.135 . S
O300 Co299 2.061 . S
O300 C303 1.235 . S
C301 O304 1.238 . S
C301 O305 1.241 . S
C302 O295 1.247 . S
C302 O296 1.261 . S
C303 O298 1.259 . S
C303 O300 1.235 . S
O304 Co294 2.021 . S
O304 C301 1.238 . S
O305 Co299 2.052 . S
O305 C301 1.241 . S
O306 Co294 2.137 . S
O306 C297 1.247 . S
O307 Co294 2.244 . S
O307 C297 1.272 . S
O307 Co299 2.135 . S
Co308 O309 2.216 . S
Co308 O310 2.091 . S
Co308 O312 2.004 . S
Co308 O318 2.021 . S
Co308 O320 2.137 . S
Co308 O321 2.244 . S
O309 Co308 2.216 . S
O309 C316 1.247 . S
O310 Co308 2.091 . S
O310 C316 1.261 . S
C311 O320 1.247 . S
C311 O321 1.272 . S
O312 Co308 2.004 . S
O312 C317 1.259 . S
Co313 O314 2.061 . S
Co313 O319 2.052 . S
Co313 O321 2.135 . S
O314 Co313 2.061 . S
O314 C317 1.235 . S
C315 O318 1.238 . S
C315 O319 1.241 . S
C316 O309 1.247 . S
C316 O310 1.261 . S
C317 O312 1.259 . S
C317 O314 1.235 . S
O318 Co308 2.021 . S
O318 C315 1.238 . S
O319 Co313 2.052 . S
O319 C315 1.241 . S
O320 Co308 2.137 . S
O320 C311 1.247 . S
O321 Co308 2.244 . S
O321 C311 1.272 . S
O321 Co313 2.135 . S
Co322 O323 2.216 . S
Co322 O324 2.091 . S
Co322 O326 2.004 . S
Co322 O332 2.021 . S
Co322 O334 2.137 . S
Co322 O335 2.244 . S
O323 Co322 2.216 . S
O323 C330 1.247 . S
O324 Co322 2.091 . S
O324 C330 1.261 . S
C325 O334 1.247 . S
C325 O335 1.272 . S
O326 Co322 2.004 . S
O326 C331 1.259 . S
Co327 O328 2.061 . S
Co327 O333 2.052 . S
Co327 O335 2.135 . S
O328 Co327 2.061 . S
O328 C331 1.235 . S
C329 O332 1.238 . S
C329 O333 1.241 . S
C330 O323 1.247 . S
C330 O324 1.261 . S
C331 O326 1.259 . S
C331 O328 1.235 . S
O332 Co322 2.021 . S
O332 C329 1.238 . S
O333 Co327 2.052 . S
O333 C329 1.241 . S
O334 Co322 2.137 . S
O334 C325 1.247 . S
O335 Co322 2.244 . S
O335 C325 1.272 . S
O335 Co327 2.135 . S
Dy336 O339 2.307 . S
Dy336 O341 2.395 . S
Dy336 O342 2.379 . S
Dy336 O344 2.339 . S
Dy336 O346 2.298 . S
Dy336 O350 2.275 . S
Dy336 C358 2.738 . S
Dy337 O340 2.289 1_655 S
Dy337 O343 2.256 1_655 S
Dy337 O345 2.313 1_655 S
Dy337 O347 2.438 . S
Dy337 O348 2.419 1_554 S
Dy337 O351 2.315 1_654 S
Dy337 C367 2.785 . S
C338 O350 1.254 1_556 S
C338 O351 1.257 . S
O339 Dy336 2.307 . S
O339 C349 1.266 . S
O340 Dy337 2.289 1_455 S
O340 C349 1.236 . S
O341 Dy336 2.395 . S
O341 C358 1.255 . S
O342 Dy336 2.379 . S
O342 C358 1.249 . S
O343 Dy337 2.256 1_455 S
O343 C359 1.254 . S
O344 Dy336 2.339 . S
O344 C359 1.257 . S
O345 Dy337 2.313 1_455 S
O345 C360 1.249 1_545 S
O346 Dy336 2.298 . S
O346 C360 1.236 1_545 S
O347 Dy337 2.438 . S
O347 C367 1.255 . S
O348 Dy337 2.419 1_556 S
O348 C367 1.249 1_556 S
C349 O339 1.266 . S
C349 O340 1.236 . S
O350 Dy336 2.275 . S
O350 C338 1.254 1_554 S
O351 Dy337 2.315 1_456 S
O351 C338 1.257 . S
C352 C355 1.344 . S
C352 C356 1.328 . S
C352 C358 1.516 . S
C353 C354 1.304 . S
C353 C357 1.323 . S
C354 C353 1.304 . S
C354 C355 1.371 . S
C354 H368 0.930 1_545 S
C355 C352 1.344 . S
C355 C354 1.371 . S
C355 H369 0.931 . S
C356 C352 1.328 . S
C356 C357 1.433 . S
C356 H370 0.931 . S
C357 C353 1.323 . S
C357 C356 1.433 . S
C357 H371 0.933 . S
C358 Dy336 2.738 . S
C358 O341 1.255 . S
C358 O342 1.249 . S
C358 C352 1.516 . S
C359 O343 1.254 . S
C359 O344 1.257 . S
C360 O345 1.249 1_565 S
C360 O346 1.236 1_565 S
C361 C364 1.344 . S
C361 C365 1.328 1_554 S
C361 C367 1.516 . S
C362 C363 1.304 . S
C362 C366 1.323 1_554 S
C363 C362 1.304 . S
C363 C364 1.371 . S
C363 H372 0.930 . S
C364 C361 1.344 . S
C364 C363 1.371 . S
C364 H373 0.931 . S
C365 C361 1.328 1_556 S
C365 C366 1.433 . S
C365 H374 0.931 . S
C366 C362 1.323 1_556 S
C366 C365 1.433 . S
C366 H375 0.933 . S
C367 Dy337 2.785 . S
C367 O347 1.255 . S
C367 O348 1.249 1_554 S
C367 C361 1.516 . S
H368 C354 0.930 1_565 S
H369 C355 0.931 . S
H370 C356 0.931 . S
H371 C357 0.933 . S
H372 C363 0.930 . S
H373 C364 0.931 . S
H374 C365 0.931 . S
H375 C366 0.933 . S
Dy376 O379 2.307 . S
Dy376 O381 2.395 . S
Dy376 O382 2.379 . S
Dy376 O384 2.339 . S
Dy376 O386 2.298 . S
Dy376 O390 2.275 . S
Dy376 C398 2.738 . S
Dy377 O380 2.298 . S
Dy377 O383 2.275 . S
Dy377 O385 2.307 . S
Dy377 O387 2.395 . S
Dy377 O388 2.379 . S
Dy377 O391 2.339 . S
Dy377 C407 2.738 . S
C378 O390 1.254 . S
C378 O391 1.257 . S
O379 Dy376 2.307 . S
O379 C389 1.266 . S
O380 Dy377 2.298 . S
O380 C389 1.236 . S
O381 Dy376 2.395 . S
O381 C398 1.255 . S
O382 Dy376 2.379 . S
O382 C398 1.249 . S
O383 Dy377 2.275 . S
O383 C399 1.254 . S
O384 Dy376 2.339 . S
O384 C399 1.257 . S
O385 Dy377 2.307 . S
O385 C400 1.266 . S
O386 Dy376 2.298 . S
O386 C400 1.236 . S
O387 Dy377 2.395 . S
O387 C407 1.255 . S
O388 Dy377 2.379 . S
O388 C407 1.249 . S
C389 O379 1.266 . S
C389 O380 1.236 . S
O390 Dy376 2.275 . S
O390 C378 1.254 . S
O391 Dy377 2.339 . S
O391 C378 1.257 . S
C392 C395 1.344 . S
C392 C396 1.328 . S
C392 C398 1.516 . S
C393 C394 1.304 . S
C393 C397 1.323 . S
C394 C393 1.304 . S
C394 C395 1.371 . S
C394 H408 0.930 . S
C395 C392 1.344 . S
C395 C394 1.371 . S
C395 H409 0.931 . S
C396 C392 1.328 . S
C396 C397 1.433 . S
C396 H410 0.931 . S
C397 C393 1.323 . S
C397 C396 1.433 . S
C397 H411 0.933 . S
C398 Dy376 2.738 . S
C398 O381 1.255 . S
C398 O382 1.249 . S
C398 C392 1.516 . S
C399 O383 1.254 . S
C399 O384 1.257 . S
C400 O385 1.266 . S
C400 O386 1.236 . S
C401 C404 1.344 . S
C401 C405 1.328 . S
C401 C407 1.516 . S
C402 C403 1.304 . S
C402 C406 1.323 . S
C403 C402 1.304 . S
C403 C404 1.371 . S
C403 H412 0.930 . S
C404 C401 1.344 . S
C404 C403 1.371 . S
C404 H413 0.931 . S
C405 C401 1.328 . S
C405 C406 1.433 . S
C405 H414 0.931 . S
C406 C402 1.323 . S
C406 C405 1.433 . S
C406 H415 0.933 . S
C407 Dy377 2.738 . S
C407 O387 1.255 . S
C407 O388 1.249 . S
C407 C401 1.516 . S
H408 C394 0.930 . S
H409 C395 0.931 . S
H410 C396 0.931 . S
H411 C397 0.933 . S
H412 C403 0.930 . S
H413 C404 0.931 . S
H414 C405 0.931 . S
H415 C406 0.933 . S
Dy416 O419 2.292 1_545 S
Dy416 O421 2.395 . S
Dy416 O422 2.379 . S
Dy416 O424 2.339 . S
Dy416 O426 2.298 . S
Dy416 O430 2.275 . S
Dy416 C438 2.738 . S
Dy417 O420 2.298 . S
Dy417 O423 2.275 . S
Dy417 O425 2.307 . S
Dy417 O427 2.395 . S
Dy417 O428 2.379 . S
Dy417 O431 2.339 . S
Dy417 C447 2.738 . S
C418 O430 1.254 . S
C418 O431 1.257 . S
O419 Dy416 2.292 1_565 S
O419 C429 1.274 . S
O420 Dy417 2.298 . S
O420 C429 1.236 1_545 S
O421 Dy416 2.395 . S
O421 C438 1.255 . S
O422 Dy416 2.379 . S
O422 C438 1.249 . S
O423 Dy417 2.275 . S
O423 C439 1.254 . S
O424 Dy416 2.339 . S
O424 C439 1.257 . S
O425 Dy417 2.307 . S
O425 C440 1.266 . S
O426 Dy416 2.298 . S
O426 C440 1.236 . S
O427 Dy417 2.395 . S
O427 C447 1.255 . S
O428 Dy417 2.379 . S
O428 C447 1.249 . S
C429 O419 1.274 . S
C429 O420 1.236 1_565 S
O430 Dy416 2.275 . S
O430 C418 1.254 . S
O431 Dy417 2.339 . S
O431 C418 1.257 . S
C432 C435 1.344 . S
C432 C436 1.328 . S
C432 C438 1.516 . S
C433 C434 1.304 . S
C433 C437 1.323 . S
C434 C433 1.304 . S
C434 C435 1.371 . S
C434 H448 0.930 . S
C435 C432 1.344 . S
C435 C434 1.371 . S
C435 H449 0.931 . S
C436 C432 1.328 . S
C436 C437 1.433 . S
C436 H450 0.931 . S
C437 C433 1.323 . S
C437 C436 1.433 . S
C437 H451 0.933 . S
C438 Dy416 2.738 . S
C438 O421 1.255 . S
C438 O422 1.249 . S
C438 C432 1.516 . S
C439 O423 1.254 . S
C439 O424 1.257 . S
C440 O425 1.266 . S
C440 O426 1.236 . S
C441 C444 1.344 1_545 S
C441 C445 1.328 . S
C441 C447 1.516 . S
C442 C443 1.304 . S
C442 C446 1.323 . S
C443 C442 1.304 . S
C443 C444 1.371 . S
C443 H452 0.930 . S
C444 C441 1.344 1_565 S
C444 C443 1.371 . S
C444 H453 0.931 . S
C445 C441 1.328 . S
C445 C446 1.433 1_545 S
C445 H454 0.931 . S
C446 C442 1.323 . S
C446 C445 1.433 1_565 S
C446 H455 0.933 . S
C447 Dy417 2.738 . S
C447 O427 1.255 . S
C447 O428 1.249 . S
C447 C441 1.516 . S
H448 C434 0.930 . S
H449 C435 0.931 . S
H450 C436 0.931 . S
H451 C437 0.933 . S
H452 C443 0.930 . S
H453 C444 0.931 . S
H454 C445 0.931 . S
H455 C446 0.933 . S
Dy456 O459 2.307 . S
Dy456 O461 2.395 . S
Dy456 O462 2.379 . S
Dy456 O464 2.339 . S
Dy456 O466 2.298 . S
Dy456 O470 2.275 . S
Dy456 C478 2.738 . S
Dy457 O460 2.298 . S
Dy457 O463 2.275 . S
Dy457 O465 2.307 . S
Dy457 O467 2.395 . S
Dy457 O468 2.379 . S
Dy457 O471 2.339 . S
Dy457 C487 2.738 . S
C458 O470 1.254 . S
C458 O471 1.257 . S
O459 Dy456 2.307 . S
O459 C469 1.266 . S
O460 Dy457 2.298 . S
O460 C469 1.236 . S
O461 Dy456 2.395 . S
O461 C478 1.255 . S
O462 Dy456 2.379 . S
O462 C478 1.249 . S
O463 Dy457 2.275 . S
O463 C479 1.254 . S
O464 Dy456 2.339 . S
O464 C479 1.257 . S
O465 Dy457 2.307 . S
O465 C480 1.266 . S
O466 Dy456 2.298 . S
O466 C480 1.236 . S
O467 Dy457 2.395 . S
O467 C487 1.255 . S
O468 Dy457 2.379 . S
O468 C487 1.249 . S
C469 O459 1.266 . S
C469 O460 1.236 . S
O470 Dy456 2.275 . S
O470 C458 1.254 . S
O471 Dy457 2.339 . S
O471 C458 1.257 . S
C472 C475 1.344 . S
C472 C476 1.328 . S
C472 C478 1.516 . S
C473 C474 1.304 . S
C473 C477 1.323 . S
C474 C473 1.304 . S
C474 C475 1.371 . S
C474 H488 0.930 . S
C475 C472 1.344 . S
C475 C474 1.371 . S
C475 H489 0.931 . S
C476 C472 1.328 . S
C476 C477 1.433 . S
C476 H490 0.931 . S
C477 C473 1.323 . S
C477 C476 1.433 . S
C477 H491 0.933 . S
C478 Dy456 2.738 . S
C478 O461 1.255 . S
C478 O462 1.249 . S
C478 C472 1.516 . S
C479 O463 1.254 . S
C479 O464 1.257 . S
C480 O465 1.266 . S
C480 O466 1.236 . S
C481 C484 1.344 . S
C481 C485 1.328 . S
C481 C487 1.516 . S
C482 C483 1.304 . S
C482 C486 1.323 . S
C483 C482 1.304 . S
C483 C484 1.371 . S
C483 H492 0.930 . S
C484 C481 1.344 . S
C484 C483 1.371 . S
C484 H493 0.931 . S
C485 C481 1.328 . S
C485 C486 1.433 . S
C485 H494 0.931 . S
C486 C482 1.323 . S
C486 C485 1.433 . S
C486 H495 0.933 . S
C487 Dy457 2.738 . S
C487 O467 1.255 . S
C487 O468 1.249 . S
C487 C481 1.516 . S
H488 C474 0.930 . S
H489 C475 0.931 . S
H490 C476 0.931 . S
H491 C477 0.933 . S
H492 C483 0.930 . S
H493 C484 0.931 . S
H494 C485 0.931 . S
H495 C486 0.933 . S
Dy496 O499 2.307 . S
Dy496 O501 2.395 1_545 S
Dy496 O502 2.379 1_545 S
Dy496 O504 2.339 . S
Dy496 O506 2.298 . S
Dy496 O510 2.275 . S
Dy496 C518 2.738 1_545 S
Dy497 O500 2.298 . S
Dy497 O503 2.275 . S
Dy497 O505 2.307 . S
Dy497 O507 2.395 . S
Dy497 O508 2.402 . S
Dy497 O511 2.339 1_455 S
Dy497 C527 2.738 . S
C498 O510 1.254 1_655 S
C498 O511 1.257 . S
O499 Dy496 2.307 . S
O499 C509 1.266 . S
O500 Dy497 2.298 . S
O500 C509 1.236 . S
O501 Dy496 2.395 1_565 S
O501 C518 1.255 . S
O502 Dy496 2.379 1_565 S
O502 C518 1.249 . S
O503 Dy497 2.275 . S
O503 C519 1.254 . S
O504 Dy496 2.339 . S
O504 C519 1.257 . S
O505 Dy497 2.307 . S
O505 C520 1.266 . S
O506 Dy496 2.298 . S
O506 C520 1.236 . S
O507 Dy497 2.395 . S
O507 C527 1.255 . S
O508 Dy497 2.402 . S
O508 C527 1.274 . S
C509 O499 1.266 . S
C509 O500 1.236 . S
O510 Dy496 2.275 . S
O510 C498 1.254 1_455 S
O511 Dy497 2.339 1_655 S
O511 C498 1.257 . S
C512 C515 1.344 . S
C512 C516 1.328 . S
C512 C518 1.516 . S
C513 C514 1.304 . S
C513 C517 1.323 . S
C514 C513 1.304 . S
C514 C515 1.371 . S
C514 H528 0.930 . S
C515 C512 1.344 . S
C515 C514 1.371 . S
C515 H529 0.931 . S
C516 C512 1.328 . S
C516 C517 1.433 . S
C516 H530 0.931 . S
C517 C513 1.323 . S
C517 C516 1.433 . S
C517 H531 0.933 . S
C518 Dy496 2.738 1_565 S
C518 O501 1.255 . S
C518 O502 1.249 . S
C518 C512 1.516 . S
C519 O503 1.254 . S
C519 O504 1.257 . S
C520 O505 1.266 . S
C520 O506 1.236 . S
C521 C524 1.344 . S
C521 C525 1.328 1_455 S
C521 C527 1.516 . S
C522 C523 1.304 . S
C522 C526 1.323 1_455 S
C523 C522 1.304 . S
C523 C524 1.371 . S
C523 H532 0.930 . S
C524 C521 1.344 . S
C524 C523 1.371 . S
C524 H533 0.931 . S
C525 C521 1.328 1_655 S
C525 C526 1.433 . S
C525 H534 0.931 . S
C526 C522 1.323 1_655 S
C526 C525 1.433 . S
C526 H535 0.933 . S
C527 Dy497 2.738 . S
C527 O507 1.255 . S
C527 O508 1.274 . S
C527 C521 1.516 . S
H528 C514 0.930 . S
H529 C515 0.931 . S
H530 C516 0.931 . S
H531 C517 0.933 . S
H532 C523 0.930 . S
H533 C524 0.931 . S
H534 C525 0.931 . S
H535 C526 0.933 . S
Dy536 O539 2.307 . S
Dy536 O541 2.395 . S
Dy536 O542 2.379 . S
Dy536 O544 2.339 . S
Dy536 O546 2.298 . S
Dy536 O550 2.275 . S
Dy536 C558 2.738 . S
Dy537 O540 2.298 . S
Dy537 O543 2.275 . S
Dy537 O545 2.307 . S
Dy537 O547 2.395 . S
Dy537 O548 2.379 . S
Dy537 O551 2.339 . S
Dy537 C567 2.738 . S
C538 O550 1.254 . S
C538 O551 1.257 . S
O539 Dy536 2.307 . S
O539 C549 1.266 . S
O540 Dy537 2.298 . S
O540 C549 1.236 . S
O541 Dy536 2.395 . S
O541 C558 1.255 . S
O542 Dy536 2.379 . S
O542 C558 1.249 . S
O543 Dy537 2.275 . S
O543 C559 1.254 . S
O544 Dy536 2.339 . S
O544 C559 1.257 . S
O545 Dy537 2.307 . S
O545 C560 1.266 . S
O546 Dy536 2.298 . S
O546 C560 1.236 . S
O547 Dy537 2.395 . S
O547 C567 1.255 . S
O548 Dy537 2.379 . S
O548 C567 1.249 . S
C549 O539 1.266 . S
C549 O540 1.236 . S
O550 Dy536 2.275 . S
O550 C538 1.254 . S
O551 Dy537 2.339 . S
O551 C538 1.257 . S
C552 C555 1.344 . S
C552 C556 1.328 . S
C552 C558 1.516 . S
C553 C554 1.304 . S
C553 C557 1.323 . S
C554 C553 1.304 . S
C554 C555 1.371 . S
C554 H568 0.930 . S
C555 C552 1.344 . S
C555 C554 1.371 . S
C555 H569 0.931 . S
C556 C552 1.328 . S
C556 C557 1.433 . S
C556 H570 0.931 . S
C557 C553 1.323 . S
C557 C556 1.433 . S
C557 H571 0.933 . S
C558 Dy536 2.738 . S
C558 O541 1.255 . S
C558 O542 1.249 . S
C558 C552 1.516 . S
C559 O543 1.254 . S
C559 O544 1.257 . S
C560 O545 1.266 . S
C560 O546 1.236 . S
C561 C564 1.344 . S
C561 C565 1.328 . S
C561 C567 1.516 . S
C562 C563 1.304 . S
C562 C566 1.323 . S
C563 C562 1.304 . S
C563 C564 1.371 . S
C563 H572 0.930 . S
C564 C561 1.344 . S
C564 C563 1.371 . S
C564 H573 0.931 . S
C565 C561 1.328 . S
C565 C566 1.433 . S
C565 H574 0.931 . S
C566 C562 1.323 . S
C566 C565 1.433 . S
C566 H575 0.933 . S
C567 Dy537 2.738 . S
C567 O547 1.255 . S
C567 O548 1.249 . S
C567 C561 1.516 . S
H568 C554 0.930 . S
H569 C555 0.931 . S
H570 C556 0.931 . S
H571 C557 0.933 . S
H572 C563 0.930 . S
H573 C564 0.931 . S
H574 C565 0.931 . S
H575 C566 0.933 . S
Dy576 O579 2.307 1_556 S
Dy576 O581 2.395 . S
Dy576 O582 2.379 . S
Dy576 O584 2.339 1_556 S
Dy576 O586 2.298 1_556 S
Dy576 O590 2.275 1_556 S
Dy576 C598 2.738 . S
Dy577 O580 2.298 . S
Dy577 O583 2.275 . S
Dy577 O585 2.307 . S
Dy577 O587 2.395 . S
Dy577 O588 2.422 . S
Dy577 O591 2.339 1_545 S
Dy577 C607 2.738 . S
C578 O590 1.281 . S
C578 O591 1.248 1_545 S
O579 Dy576 2.307 1_554 S
O579 C589 1.266 . S
O580 Dy577 2.298 . S
O580 C589 1.236 . S
O581 Dy576 2.395 . S
O581 C598 1.255 . S
O582 Dy576 2.379 . S
O582 C598 1.249 . S
O583 Dy577 2.275 . S
O583 C599 1.254 . S
O584 Dy576 2.339 1_554 S
O584 C599 1.257 . S
O585 Dy577 2.307 . S
O585 C600 1.266 . S
O586 Dy576 2.298 1_554 S
O586 C600 1.236 . S
O587 Dy577 2.395 . S
O587 C607 1.255 . S
O588 Dy577 2.422 . S
O588 C607 1.298 . S
C589 O579 1.266 . S
C589 O580 1.236 . S
O590 Dy576 2.275 1_554 S
O590 C578 1.281 . S
O591 Dy577 2.339 1_565 S
O591 C578 1.248 1_565 S
C592 C595 1.344 . S
C592 C596 1.328 . S
C592 C598 1.516 . S
C593 C594 1.304 . S
C593 C597 1.323 . S
C594 C593 1.304 . S
C594 C595 1.371 . S
C594 H608 0.930 . S
C595 C592 1.344 . S
C595 C594 1.371 . S
C595 H609 0.931 . S
C596 C592 1.328 . S
C596 C597 1.433 . S
C596 H610 0.931 . S
C597 C593 1.323 . S
C597 C596 1.433 . S
C597 H611 0.933 . S
C598 Dy576 2.738 . S
C598 O581 1.255 . S
C598 O582 1.249 . S
C598 C592 1.516 . S
C599 O583 1.254 . S
C599 O584 1.257 . S
C600 O585 1.266 . S
C600 O586 1.236 . S
C601 C604 1.344 . S
C601 C605 1.328 1_545 S
C601 C607 1.516 . S
C602 C603 1.304 1_565 S
C602 C606 1.323 . S
C603 C602 1.304 1_545 S
C603 C604 1.371 . S
C603 H612 0.930 . S
C604 C601 1.344 . S
C604 C603 1.371 . S
C604 H613 0.931 . S
C605 C601 1.328 1_565 S
C605 C606 1.433 . S
C605 H614 0.931 . S
C606 C602 1.323 . S
C606 C605 1.433 . S
C606 H615 0.933 . S
C607 Dy577 2.738 . S
C607 O587 1.255 . S
C607 O588 1.298 . S
C607 C601 1.516 . S
H608 C594 0.930 . S
H609 C595 0.931 . S
H610 C596 0.931 . S
H611 C597 0.933 . S
H612 C603 0.930 . S
H613 C604 0.931 . S
H614 C605 0.931 . S
H615 C606 0.933 . S
Dy616 O619 2.307 . S
Dy616 O621 2.395 . S
Dy616 O622 2.379 . S
Dy616 O624 2.339 . S
Dy616 O626 2.298 . S
Dy616 O630 2.275 . S
Dy616 C638 2.738 . S
Dy617 O620 2.298 . S
Dy617 O623 2.275 . S
Dy617 O625 2.307 . S
Dy617 O627 2.395 . S
Dy617 O628 2.379 . S
Dy617 O631 2.339 . S
Dy617 C647 2.738 . S
C618 O630 1.254 . S
C618 O631 1.257 . S
O619 Dy616 2.307 . S
O619 C629 1.266 . S
O620 Dy617 2.298 . S
O620 C629 1.236 . S
O621 Dy616 2.395 . S
O621 C638 1.255 . S
O622 Dy616 2.379 . S
O622 C638 1.249 . S
O623 Dy617 2.275 . S
O623 C639 1.254 . S
O624 Dy616 2.339 . S
O624 C639 1.257 . S
O625 Dy617 2.307 . S
O625 C640 1.266 . S
O626 Dy616 2.298 . S
O626 C640 1.236 . S
O627 Dy617 2.395 . S
O627 C647 1.255 . S
O628 Dy617 2.379 . S
O628 C647 1.249 . S
C629 O619 1.266 . S
C629 O620 1.236 . S
O630 Dy616 2.275 . S
O630 C618 1.254 . S
O631 Dy617 2.339 . S
O631 C618 1.257 . S
C632 C635 1.344 . S
C632 C636 1.328 . S
C632 C638 1.516 . S
C633 C634 1.304 . S
C633 C637 1.323 . S
C634 C633 1.304 . S
C634 C635 1.371 . S
C634 H648 0.930 . S
C635 C632 1.344 . S
C635 C634 1.371 . S
C635 H649 0.931 . S
C636 C632 1.328 . S
C636 C637 1.433 . S
C636 H650 0.931 . S
C637 C633 1.323 . S
C637 C636 1.433 . S
C637 H651 0.933 . S
C638 Dy616 2.738 . S
C638 O621 1.255 . S
C638 O622 1.249 . S
C638 C632 1.516 . S
C639 O623 1.254 . S
C639 O624 1.257 . S
C640 O625 1.266 . S
C640 O626 1.236 . S
C641 C644 1.344 . S
C641 C645 1.328 . S
C641 C647 1.516 . S
C642 C643 1.304 . S
C642 C646 1.323 . S
C643 C642 1.304 . S
C643 C644 1.371 . S
C643 H652 0.930 . S
C644 C641 1.344 . S
C644 C643 1.371 . S
C644 H653 0.931 . S
C645 C641 1.328 . S
C645 C646 1.433 . S
C645 H654 0.931 . S
C646 C642 1.323 . S
C646 C645 1.433 . S
C646 H655 0.933 . S
C647 Dy617 2.738 . S
C647 O627 1.255 . S
C647 O628 1.249 . S
C647 C641 1.516 . S
H648 C634 0.930 . S
H649 C635 0.931 . S
H650 C636 0.931 . S
H651 C637 0.933 . S
H652 C643 0.930 . S
H653 C644 0.931 . S
H654 C645 0.931 . S
H655 C646 0.933 . S
Dy656 O659 2.307 1_554 S
Dy656 O661 2.395 . S
Dy656 O662 2.379 . S
Dy656 O664 2.339 . S
Dy656 O666 2.298 . S
Dy656 O670 2.275 . S
Dy656 C678 2.738 . S
Dy657 O660 2.298 1_554 S
Dy657 O663 2.275 . S
Dy657 O665 2.307 . S
Dy657 O667 2.395 . S
Dy657 O668 2.379 . S
Dy657 O671 2.339 . S
Dy657 C687 2.738 . S
C658 O670 1.254 . S
C658 O671 1.257 . S
O659 Dy656 2.307 1_556 S
O659 C669 1.266 . S
O660 Dy657 2.298 1_556 S
O660 C669 1.236 . S
O661 Dy656 2.395 . S
O661 C678 1.255 . S
O662 Dy656 2.379 . S
O662 C678 1.249 . S
O663 Dy657 2.275 . S
O663 C679 1.254 . S
O664 Dy656 2.339 . S
O664 C679 1.257 . S
O665 Dy657 2.307 . S
O665 C680 1.266 . S
O666 Dy656 2.298 . S
O666 C680 1.236 . S
O667 Dy657 2.395 . S
O667 C687 1.255 . S
O668 Dy657 2.379 . S
O668 C687 1.249 . S
C669 O659 1.266 . S
C669 O660 1.236 . S
O670 Dy656 2.275 . S
O670 C658 1.254 . S
O671 Dy657 2.339 . S
O671 C658 1.257 . S
C672 C675 1.344 . S
C672 C676 1.328 . S
C672 C678 1.516 . S
C673 C674 1.304 . S
C673 C677 1.323 . S
C674 C673 1.304 . S
C674 C675 1.371 . S
C674 H688 0.930 . S
C675 C672 1.344 . S
C675 C674 1.371 . S
C675 H689 0.931 . S
C676 C672 1.328 . S
C676 C677 1.433 . S
C676 H690 0.931 . S
C677 C673 1.323 . S
C677 C676 1.433 . S
C677 H691 0.933 . S
C678 Dy656 2.738 . S
C678 O661 1.255 . S
C678 O662 1.249 . S
C678 C672 1.516 . S
C679 O663 1.254 . S
C679 O664 1.257 . S
C680 O665 1.266 . S
C680 O666 1.236 . S
C681 C684 1.344 . S
C681 C685 1.328 . S
C681 C687 1.516 1_556 S
C682 C683 1.304 . S
C682 C686 1.323 . S
C683 C682 1.304 . S
C683 C684 1.371 . S
C683 H692 0.930 . S
C684 C681 1.344 . S
C684 C683 1.371 . S
C684 H693 0.931 . S
C685 C681 1.328 . S
C685 C686 1.433 . S
C685 H694 0.931 1_556 S
C686 C682 1.323 . S
C686 C685 1.433 . S
C686 H695 0.933 . S
C687 Dy657 2.738 . S
C687 O667 1.255 . S
C687 O668 1.249 . S
C687 C681 1.516 1_554 S
H688 C674 0.930 . S
H689 C675 0.931 . S
H690 C676 0.931 . S
H691 C677 0.933 . S
H692 C683 0.930 . S
H693 C684 0.931 . S
H694 C685 0.931 1_554 S
H695 C686 0.933 . S
Dy696 O699 2.307 . S
Dy696 O701 2.395 . S
Dy696 O702 2.379 . S
Dy696 O704 2.339 . S
Dy696 O706 2.298 . S
Dy696 O710 2.275 . S
Dy696 C718 2.738 . S
Dy697 O700 2.298 . S
Dy697 O703 2.275 . S
Dy697 O705 2.307 . S
Dy697 O707 2.395 . S
Dy697 O708 2.379 . S
Dy697 O711 2.339 . S
Dy697 C727 2.738 . S
C698 O710 1.254 . S
C698 O711 1.257 . S
O699 Dy696 2.307 . S
O699 C709 1.266 . S
O700 Dy697 2.298 . S
O700 C709 1.236 . S
O701 Dy696 2.395 . S
O701 C718 1.255 . S
O702 Dy696 2.379 . S
O702 C718 1.249 . S
O703 Dy697 2.275 . S
O703 C719 1.254 . S
O704 Dy696 2.339 . S
O704 C719 1.257 . S
O705 Dy697 2.307 . S
O705 C720 1.266 . S
O706 Dy696 2.298 . S
O706 C720 1.236 . S
O707 Dy697 2.395 . S
O707 C727 1.255 . S
O708 Dy697 2.379 . S
O708 C727 1.249 . S
C709 O699 1.266 . S
C709 O700 1.236 . S
O710 Dy696 2.275 . S
O710 C698 1.254 . S
O711 Dy697 2.339 . S
O711 C698 1.257 . S
C712 C715 1.344 . S
C712 C716 1.328 . S
C712 C718 1.516 . S
C713 C714 1.304 . S
C713 C717 1.323 . S
C714 C713 1.304 . S
C714 C715 1.371 . S
C714 H728 0.930 . S
C715 C712 1.344 . S
C715 C714 1.371 . S
C715 H729 0.931 . S
C716 C712 1.328 . S
C716 C717 1.433 . S
C716 H730 0.931 . S
C717 C713 1.323 . S
C717 C716 1.433 . S
C717 H731 0.933 . S
C718 Dy696 2.738 . S
C718 O701 1.255 . S
C718 O702 1.249 . S
C718 C712 1.516 . S
C719 O703 1.254 . S
C719 O704 1.257 . S
C720 O705 1.266 . S
C720 O706 1.236 . S
C721 C724 1.344 . S
C721 C725 1.328 . S
C721 C727 1.516 . S
C722 C723 1.304 . S
C722 C726 1.323 . S
C723 C722 1.304 . S
C723 C724 1.371 . S
C723 H732 0.930 . S
C724 C721 1.344 . S
C724 C723 1.371 . S
C724 H733 0.931 . S
C725 C721 1.328 . S
C725 C726 1.433 . S
C725 H734 0.931 . S
C726 C722 1.323 . S
C726 C725 1.433 . S
C726 H735 0.933 . S
C727 Dy697 2.738 . S
C727 O707 1.255 . S
C727 O708 1.249 . S
C727 C721 1.516 . S
H728 C714 0.930 . S
H729 C715 0.931 . S
H730 C716 0.931 . S
H731 C717 0.933 . S
H732 C723 0.930 . S
H733 C724 0.931 . S
H734 C725 0.931 . S
H735 C726 0.933 . S
Dy736 O739 2.307 1_455 S
Dy736 O741 2.395 . S
Dy736 O742 2.379 . S
Dy736 O744 2.339 . S
Dy736 O746 2.298 . S
Dy736 O750 2.275 . S
Dy736 C758 2.738 . S
Dy737 O740 2.298 1_455 S
Dy737 O743 2.275 . S
Dy737 O745 2.307 . S
Dy737 O747 2.395 . S
Dy737 O748 2.379 . S
Dy737 O751 2.339 . S
Dy737 C767 2.738 . S
C738 O750 1.254 . S
C738 O751 1.257 . S
O739 Dy736 2.307 1_655 S
O739 C749 1.266 . S
O740 Dy737 2.298 1_655 S
O740 C749 1.236 . S
O741 Dy736 2.395 . S
O741 C758 1.255 . S
O742 Dy736 2.379 . S
O742 C758 1.249 . S
O743 Dy737 2.275 . S
O743 C759 1.254 . S
O744 Dy736 2.339 . S
O744 C759 1.257 . S
O745 Dy737 2.307 . S
O745 C760 1.266 . S
O746 Dy736 2.298 . S
O746 C760 1.236 . S
O747 Dy737 2.395 . S
O747 C767 1.255 . S
O748 Dy737 2.379 . S
O748 C767 1.249 . S
C749 O739 1.266 . S
C749 O740 1.236 . S
O750 Dy736 2.275 . S
O750 C738 1.254 . S
O751 Dy737 2.339 . S
O751 C738 1.257 . S
C752 C755 1.344 . S
C752 C756 1.328 . S
C752 C758 1.516 . S
C753 C754 1.304 . S
C753 C757 1.323 . S
C754 C753 1.304 . S
C754 C755 1.371 . S
C754 H768 0.930 . S
C755 C752 1.344 . S
C755 C754 1.371 . S
C755 H769 0.931 . S
C756 C752 1.328 . S
C756 C757 1.433 . S
C756 H770 0.931 . S
C757 C753 1.323 . S
C757 C756 1.433 . S
C757 H771 0.933 . S
C758 Dy736 2.738 . S
C758 O741 1.255 . S
C758 O742 1.249 . S
C758 C752 1.516 . S
C759 O743 1.254 . S
C759 O744 1.257 . S
C760 O745 1.266 . S
C760 O746 1.236 . S
C761 C764 1.344 . S
C761 C765 1.328 . S
C761 C767 1.516 1_655 S
C762 C763 1.304 . S
C762 C766 1.323 . S
C763 C762 1.304 . S
C763 C764 1.371 . S
C763 H772 0.930 . S
C764 C761 1.344 . S
C764 C763 1.371 . S
C764 H773 0.931 . S
C765 C761 1.328 . S
C765 C766 1.433 . S
C765 H774 0.931 . S
C766 C762 1.323 . S
C766 C765 1.433 . S
C766 H775 0.933 . S
C767 Dy737 2.738 . S
C767 O747 1.255 . S
C767 O748 1.249 . S
C767 C761 1.516 1_455 S
H768 C754 0.930 . S
H769 C755 0.931 . S
H770 C756 0.931 . S
H771 C757 0.933 . S
H772 C763 0.930 . S
H773 C764 0.931 . S
H774 C765 0.931 . S
H775 C766 0.933 . S
Dy776 O779 2.307 . S
Dy776 O781 2.395 . S
Dy776 O782 2.379 . S
Dy776 O784 2.339 . S
Dy776 O786 2.298 . S
Dy776 O790 2.275 . S
Dy776 C798 2.738 . S
Dy777 O780 2.298 . S
Dy777 O783 2.275 . S
Dy777 O785 2.307 . S
Dy777 O787 2.395 . S
Dy777 O788 2.379 . S
Dy777 O791 2.339 . S
Dy777 C807 2.738 . S
C778 O790 1.254 . S
C778 O791 1.257 . S
O779 Dy776 2.307 . S
O779 C789 1.266 . S
O780 Dy777 2.298 . S
O780 C789 1.236 . S
O781 Dy776 2.395 . S
O781 C798 1.255 . S
O782 Dy776 2.379 . S
O782 C798 1.249 . S
O783 Dy777 2.275 . S
O783 C799 1.254 . S
O784 Dy776 2.339 . S
O784 C799 1.257 . S
O785 Dy777 2.307 . S
O785 C800 1.266 . S
O786 Dy776 2.298 . S
O786 C800 1.236 . S
O787 Dy777 2.395 . S
O787 C807 1.255 . S
O788 Dy777 2.379 . S
O788 C807 1.249 . S
C789 O779 1.266 . S
C789 O780 1.236 . S
O790 Dy776 2.275 . S
O790 C778 1.254 . S
O791 Dy777 2.339 . S
O791 C778 1.257 . S
C792 C795 1.344 . S
C792 C796 1.328 . S
C792 C798 1.516 . S
C793 C794 1.304 . S
C793 C797 1.323 . S
C794 C793 1.304 . S
C794 C795 1.371 . S
C794 H808 0.930 . S
C795 C792 1.344 . S
C795 C794 1.371 . S
C795 H809 0.931 . S
C796 C792 1.328 . S
C796 C797 1.433 . S
C796 H810 0.931 . S
C797 C793 1.323 . S
C797 C796 1.433 . S
C797 H811 0.933 . S
C798 Dy776 2.738 . S
C798 O781 1.255 . S
C798 O782 1.249 . S
C798 C792 1.516 . S
C799 O783 1.254 . S
C799 O784 1.257 . S
C800 O785 1.266 . S
C800 O786 1.236 . S
C801 C804 1.344 . S
C801 C805 1.328 . S
C801 C807 1.516 . S
C802 C803 1.304 . S
C802 C806 1.323 . S
C803 C802 1.304 . S
C803 C804 1.371 . S
C803 H812 0.930 . S
C804 C801 1.344 . S
C804 C803 1.371 . S
C804 H813 0.931 . S
C805 C801 1.328 . S
C805 C806 1.433 . S
C805 H814 0.931 . S
C806 C802 1.323 . S
C806 C805 1.433 . S
C806 H815 0.933 . S
C807 Dy777 2.738 . S
C807 O787 1.255 . S
C807 O788 1.249 . S
C807 C801 1.516 . S
H808 C794 0.930 . S
H809 C795 0.931 . S
H810 C796 0.931 . S
H811 C797 0.933 . S
H812 C803 0.930 . S
H813 C804 0.931 . S
H814 C805 0.931 . S
H815 C806 0.933 . S
Dy816 O819 2.307 . S
Dy816 O821 2.395 . S
Dy816 O822 2.379 . S
Dy816 O824 2.339 . S
Dy816 O826 2.298 . S
Dy816 O830 2.275 . S
Dy816 C838 2.738 . S
Dy817 O820 2.298 . S
Dy817 O823 2.275 . S
Dy817 O825 2.307 . S
Dy817 O827 2.395 . S
Dy817 O828 2.379 . S
Dy817 O831 2.339 . S
Dy817 C847 2.738 . S
C818 O830 1.254 . S
C818 O831 1.257 . S
O819 Dy816 2.307 . S
O819 C829 1.266 . S
O820 Dy817 2.298 . S
O820 C829 1.236 . S
O821 Dy816 2.395 . S
O821 C838 1.255 . S
O822 Dy816 2.379 . S
O822 C838 1.249 . S
O823 Dy817 2.275 . S
O823 C839 1.254 . S
O824 Dy816 2.339 . S
O824 C839 1.257 . S
O825 Dy817 2.307 . S
O825 C840 1.266 . S
O826 Dy816 2.298 . S
O826 C840 1.236 . S
O827 Dy817 2.395 . S
O827 C847 1.255 . S
O828 Dy817 2.379 . S
O828 C847 1.249 . S
C829 O819 1.266 . S
C829 O820 1.236 . S
O830 Dy816 2.275 . S
O830 C818 1.254 . S
O831 Dy817 2.339 . S
O831 C818 1.257 . S
C832 C835 1.344 . S
C832 C836 1.328 . S
C832 C838 1.516 . S
C833 C834 1.304 . S
C833 C837 1.323 . S
C834 C833 1.304 . S
C834 C835 1.371 . S
C834 H848 0.930 . S
C835 C832 1.344 . S
C835 C834 1.371 . S
C835 H849 0.931 . S
C836 C832 1.328 . S
C836 C837 1.433 . S
C836 H850 0.931 . S
C837 C833 1.323 . S
C837 C836 1.433 . S
C837 H851 0.933 . S
C838 Dy816 2.738 . S
C838 O821 1.255 . S
C838 O822 1.249 . S
C838 C832 1.516 . S
C839 O823 1.254 . S
C839 O824 1.257 . S
C840 O825 1.266 . S
C840 O826 1.236 . S
C841 C844 1.344 . S
C841 C845 1.328 . S
C841 C847 1.516 . S
C842 C843 1.304 . S
C842 C846 1.323 . S
C843 C842 1.304 . S
C843 C844 1.371 . S
C843 H852 0.930 . S
C844 C841 1.344 . S
C844 C843 1.371 . S
C844 H853 0.931 . S
C845 C841 1.328 . S
C845 C846 1.433 . S
C845 H854 0.931 . S
C846 C842 1.323 . S
C846 C845 1.433 . S
C846 H855 0.933 . S
C847 Dy817 2.738 . S
C847 O827 1.255 . S
C847 O828 1.249 . S
C847 C841 1.516 . S
H848 C834 0.930 . S
H849 C835 0.931 . S
H850 C836 0.931 . S
H851 C837 0.933 . S
H852 C843 0.930 . S
H853 C844 0.931 . S
H854 C845 0.931 . S
H855 C846 0.933 . S
Dy856 O859 2.307 . S
Dy856 O861 2.395 . S
Dy856 O862 2.379 . S
Dy856 O864 2.339 . S
Dy856 O866 2.298 . S
Dy856 O870 2.275 . S
Dy856 C878 2.738 . S
Dy857 O860 2.298 . S
Dy857 O863 2.275 . S
Dy857 O865 2.307 . S
Dy857 O867 2.395 . S
Dy857 O868 2.379 . S
Dy857 O871 2.339 . S
Dy857 C887 2.738 . S
C858 O870 1.254 . S
C858 O871 1.257 . S
O859 Dy856 2.307 . S
O859 C869 1.266 . S
O860 Dy857 2.298 . S
O860 C869 1.236 . S
O861 Dy856 2.395 . S
O861 C878 1.255 . S
O862 Dy856 2.379 . S
O862 C878 1.249 . S
O863 Dy857 2.275 . S
O863 C879 1.254 . S
O864 Dy856 2.339 . S
O864 C879 1.257 . S
O865 Dy857 2.307 . S
O865 C880 1.266 . S
O866 Dy856 2.298 . S
O866 C880 1.236 . S
O867 Dy857 2.395 . S
O867 C887 1.255 . S
O868 Dy857 2.379 . S
O868 C887 1.249 . S
C869 O859 1.266 . S
C869 O860 1.236 . S
O870 Dy856 2.275 . S
O870 C858 1.254 . S
O871 Dy857 2.339 . S
O871 C858 1.257 . S
C872 C875 1.344 . S
C872 C876 1.328 . S
C872 C878 1.516 . S
C873 C874 1.304 . S
C873 C877 1.323 . S
C874 C873 1.304 . S
C874 C875 1.371 . S
C874 H888 0.930 . S
C875 C872 1.344 . S
C875 C874 1.371 . S
C875 H889 0.931 . S
C876 C872 1.328 . S
C876 C877 1.433 . S
C876 H890 0.931 . S
C877 C873 1.323 . S
C877 C876 1.433 . S
C877 H891 0.933 . S
C878 Dy856 2.738 . S
C878 O861 1.255 . S
C878 O862 1.249 . S
C878 C872 1.516 . S
C879 O863 1.254 . S
C879 O864 1.257 . S
C880 O865 1.266 . S
C880 O866 1.236 . S
C881 C884 1.344 . S
C881 C885 1.328 . S
C881 C887 1.516 . S
C882 C883 1.304 . S
C882 C886 1.323 . S
C883 C882 1.304 . S
C883 C884 1.371 . S
C883 H892 0.930 . S
C884 C881 1.344 . S
C884 C883 1.371 . S
C884 H893 0.931 . S
C885 C881 1.328 . S
C885 C886 1.433 . S
C885 H894 0.931 . S
C886 C882 1.323 . S
C886 C885 1.433 . S
C886 H895 0.933 . S
C887 Dy857 2.738 . S
C887 O867 1.255 . S
C887 O868 1.249 . S
C887 C881 1.516 . S
H888 C874 0.930 . S
H889 C875 0.931 . S
H890 C876 0.931 . S
H891 C877 0.933 . S
H892 C883 0.930 . S
H893 C884 0.931 . S
H894 C885 0.931 . S
H895 C886 0.933 . S
Dy896 O899 2.307 . S
Dy896 O901 2.395 . S
Dy896 O902 2.379 . S
Dy896 O904 2.339 . S
Dy896 O906 2.298 . S
Dy896 O910 2.275 . S
Dy896 C918 2.738 . S
Dy897 O900 2.298 . S
Dy897 O903 2.275 . S
Dy897 O905 2.307 . S
Dy897 O907 2.395 . S
Dy897 O908 2.379 . S
Dy897 O911 2.339 . S
Dy897 C927 2.738 . S
C898 O910 1.254 . S
C898 O911 1.257 . S
O899 Dy896 2.307 . S
O899 C909 1.266 . S
O900 Dy897 2.298 . S
O900 C909 1.236 . S
O901 Dy896 2.395 . S
O901 C918 1.255 . S
O902 Dy896 2.379 . S
O902 C918 1.249 . S
O903 Dy897 2.275 . S
O903 C919 1.254 . S
O904 Dy896 2.339 . S
O904 C919 1.257 . S
O905 Dy897 2.307 . S
O905 C920 1.266 . S
O906 Dy896 2.298 . S
O906 C920 1.236 . S
O907 Dy897 2.395 . S
O907 C927 1.255 . S
O908 Dy897 2.379 . S
O908 C927 1.249 . S
C909 O899 1.266 . S
C909 O900 1.236 . S
O910 Dy896 2.275 . S
O910 C898 1.254 . S
O911 Dy897 2.339 . S
O911 C898 1.257 . S
C912 C915 1.344 . S
C912 C916 1.328 . S
C912 C918 1.516 . S
C913 C914 1.304 . S
C913 C917 1.323 . S
C914 C913 1.304 . S
C914 C915 1.371 . S
C914 H928 0.930 . S
C915 C912 1.344 . S
C915 C914 1.371 . S
C915 H929 0.931 . S
C916 C912 1.328 . S
C916 C917 1.433 . S
C916 H930 0.931 . S
C917 C913 1.323 . S
C917 C916 1.433 . S
C917 H931 0.933 . S
C918 Dy896 2.738 . S
C918 O901 1.255 . S
C918 O902 1.249 . S
C918 C912 1.516 . S
C919 O903 1.254 . S
C919 O904 1.257 . S
C920 O905 1.266 . S
C920 O906 1.236 . S
C921 C924 1.344 . S
C921 C925 1.328 . S
C921 C927 1.516 . S
C922 C923 1.304 . S
C922 C926 1.323 . S
C923 C922 1.304 . S
C923 C924 1.371 . S
C923 H932 0.930 . S
C924 C921 1.344 . S
C924 C923 1.371 . S
C924 H933 0.931 . S
C925 C921 1.328 . S
C925 C926 1.433 . S
C925 H934 0.931 . S
C926 C922 1.323 . S
C926 C925 1.433 . S
C926 H935 0.933 . S
C927 Dy897 2.738 . S
C927 O907 1.255 . S
C927 O908 1.249 . S
C927 C921 1.516 . S
H928 C914 0.930 . S
H929 C915 0.931 . S
H930 C916 0.931 . S
H931 C917 0.933 . S
H932 C923 0.930 . S
H933 C924 0.931 . S
H934 C925 0.931 . S
H935 C926 0.933 . S
Dy936 O939 2.277 1_655 S
Dy936 O941 2.444 . S
Dy936 O942 2.424 . S
Dy936 O944 2.309 1_655 S
Dy936 O946 2.280 1_655 S
Dy936 O950 2.252 1_655 S
Dy936 C958 2.791 . S
Dy937 O940 2.298 . S
Dy937 O943 2.275 . S
Dy937 O945 2.307 . S
Dy937 O947 2.395 . S
Dy937 O948 2.379 1_554 S
Dy937 O951 2.339 1_554 S
Dy937 C967 2.738 . S
C938 O950 1.254 1_556 S
C938 O951 1.257 . S
O939 Dy936 2.277 1_455 S
O939 C949 1.266 . S
O940 Dy937 2.298 . S
O940 C949 1.236 . S
O941 Dy936 2.444 . S
O941 C958 1.255 . S
O942 Dy936 2.424 . S
O942 C958 1.249 . S
O943 Dy937 2.275 . S
O943 C959 1.254 . S
O944 Dy936 2.309 1_455 S
O944 C959 1.257 . S
O945 Dy937 2.307 . S
O945 C960 1.266 . S
O946 Dy936 2.280 1_455 S
O946 C960 1.236 . S
O947 Dy937 2.395 . S
O947 C967 1.255 . S
O948 Dy937 2.379 1_556 S
O948 C967 1.249 1_556 S
C949 O939 1.266 . S
C949 O940 1.236 . S
O950 Dy936 2.252 1_455 S
O950 C938 1.254 1_554 S
O951 Dy937 2.339 1_556 S
O951 C938 1.257 . S
C952 C955 1.344 . S
C952 C956 1.328 . S
C952 C958 1.516 . S
C953 C954 1.304 . S
C953 C957 1.323 . S
C954 C953 1.304 . S
C954 C955 1.371 . S
C954 H968 0.930 . S
C955 C952 1.344 . S
C955 C954 1.371 . S
C955 H969 0.931 . S
C956 C952 1.328 . S
C956 C957 1.433 . S
C956 H970 0.931 . S
C957 C953 1.323 . S
C957 C956 1.433 . S
C957 H971 0.933 . S
C958 Dy936 2.791 . S
C958 O941 1.255 . S
C958 O942 1.249 . S
C958 C952 1.516 . S
C959 O943 1.254 . S
C959 O944 1.257 . S
C960 O945 1.266 . S
C960 O946 1.236 . S
C961 C964 1.344 . S
C961 C965 1.328 1_554 S
C961 C967 1.516 . S
C962 C963 1.304 . S
C962 C966 1.323 1_554 S
C963 C962 1.304 . S
C963 C964 1.371 . S
C963 H972 0.930 . S
C964 C961 1.344 . S
C964 C963 1.371 . S
C964 H973 0.931 . S
C965 C961 1.328 1_556 S
C965 C966 1.433 . S
C965 H974 0.931 . S
C966 C962 1.323 1_556 S
C966 C965 1.433 . S
C966 H975 0.933 . S
C967 Dy937 2.738 . S
C967 O947 1.255 . S
C967 O948 1.249 1_554 S
C967 C961 1.516 . S
H968 C954 0.930 . S
H969 C955 0.931 . S
H970 C956 0.931 . S
H971 C957 0.933 . S
H972 C963 0.930 . S
H973 C964 0.931 . S
H974 C965 0.931 . S
H975 C966 0.933 . S
H976 C994 0.951 . S
H977 C996 0.951 . S
H978 C998 0.950 . S
H979 C999 0.950 . S
H980 C1001 0.950 . S
H981 C1004 0.950 . S
H982 C1005 0.950 . S
H983 C1007 0.950 1_655 S
H984 C1008 0.950 1_655 S
H985 C1009 0.951 . S
H986 C1011 0.937 1_556 S
H987 C1013 0.950 1_655 S
H988 C1014 0.950 . S
H989 C1016 0.950 . S
H990 C1019 0.950 . S
H991 C1020 0.950 . S
H992 C1022 0.950 . S
H993 C1023 0.950 . S
C994 H976 0.951 . S
C994 C995 1.397 . S
C994 C996 1.388 . S
C995 C994 1.397 . S
C995 C999 1.332 1_655 S
C996 H977 0.951 . S
C996 C994 1.388 . S
C996 C997 1.366 1_655 S
C997 C996 1.366 1_455 S
C997 C998 1.414 . S
C997 C1000 1.499 . S
C998 H978 0.950 . S
C998 C997 1.414 . S
C998 C999 1.374 . S
C999 H979 0.950 . S
C999 C995 1.332 1_455 S
C999 C998 1.374 . S
C1000 C997 1.499 . S
C1000 C1001 1.373 . S
C1000 C1002 1.389 1_556 S
C1001 H980 0.950 . S
C1001 C1000 1.373 . S
C1001 C1017 1.377 . S
C1002 C1000 1.389 1_554 S
C1002 C1003 1.524 . S
C1002 C1016 1.377 . S
C1003 C1002 1.524 . S
C1003 C1004 1.397 . S
C1003 C1008 1.363 . S
C1004 H981 0.950 . S
C1004 C1003 1.397 . S
C1004 C1005 1.334 . S
C1005 H982 0.950 . S
C1005 C1004 1.334 . S
C1005 C1006 1.287 . S
C1006 C1005 1.287 . S
C1006 C1007 1.524 . S
C1006 H1025 0.913 . S
C1007 H983 0.950 1_455 S
C1007 C1006 1.524 . S
C1007 C1008 1.415 . S
C1008 H984 0.950 1_455 S
C1008 C1003 1.363 . S
C1008 C1007 1.415 . S
C1009 H985 0.951 . S
C1009 C1010 1.366 . S
C1009 C1011 1.395 . S
C1010 C1009 1.366 . S
C1010 C1014 1.385 . S
C1011 H986 0.937 1_554 S
C1011 C1009 1.395 . S
C1011 C1012 1.372 . S
C1012 C1011 1.372 . S
C1012 C1013 1.414 . S
C1012 C1015 1.515 . S
C1013 H987 0.950 1_455 S
C1013 C1012 1.414 . S
C1013 C1014 1.374 . S
C1014 H988 0.950 . S
C1014 C1010 1.385 . S
C1014 C1013 1.374 . S
C1015 C1012 1.515 . S
C1015 C1016 1.399 . S
C1015 C1017 1.348 1_554 S
C1016 H989 0.950 . S
C1016 C1002 1.377 . S
C1016 C1015 1.399 . S
C1017 C1001 1.377 . S
C1017 C1015 1.348 1_556 S
C1017 C1018 1.524 . S
C1018 C1017 1.524 . S
C1018 C1019 1.397 1_455 S
C1018 C1023 1.363 . S
C1019 H990 0.950 . S
C1019 C1018 1.397 1_655 S
C1019 C1020 1.334 . S
C1020 H991 0.950 . S
C1020 C1019 1.334 . S
C1020 C1021 1.287 1_655 S
C1021 C1020 1.287 1_455 S
C1021 C1022 1.524 . S
C1021 H1024 0.998 1_455 S
C1022 H992 0.950 . S
C1022 C1021 1.524 . S
C1022 C1023 1.415 . S
C1023 H993 0.950 . S
C1023 C1018 1.363 . S
C1023 C1022 1.415 . S
H1024 C1021 0.998 1_655 S
H1025 C1006 0.913 . S
H1026 C1044 0.951 . S
H1027 C1046 0.951 . S
H1028 C1048 0.950 . S
H1029 C1049 0.950 . S
H1030 C1051 0.950 . S
H1031 C1054 0.950 . S
H1032 C1055 0.950 . S
H1033 C1057 0.950 . S
H1034 C1058 0.950 . S
H1035 C1059 0.951 . S
H1036 C1061 0.951 . S
H1037 C1063 0.950 . S
H1038 C1064 0.950 . S
H1039 C1066 0.950 . S
H1040 C1069 0.950 . S
H1041 C1070 0.950 . S
H1042 C1072 0.950 . S
H1043 C1073 0.950 . S
C1044 H1026 0.951 . S
C1044 C1045 1.366 . S
C1044 C1046 1.388 . S
C1045 C1044 1.366 . S
C1045 C1049 1.385 . S
C1046 H1027 0.951 . S
C1046 C1044 1.388 . S
C1046 C1047 1.366 . S
C1047 C1046 1.366 . S
C1047 C1048 1.414 . S
C1047 C1050 1.499 . S
C1048 H1028 0.950 . S
C1048 C1047 1.414 . S
C1048 C1049 1.374 . S
C1049 H1029 0.950 . S
C1049 C1045 1.385 . S
C1049 C1048 1.374 . S
C1050 C1047 1.499 . S
C1050 C1051 1.373 . S
C1050 C1052 1.389 . S
C1051 H1030 0.950 . S
C1051 C1050 1.373 . S
C1051 C1067 1.377 . S
C1052 C1050 1.389 . S
C1052 C1053 1.524 . S
C1052 C1066 1.377 . S
C1053 C1052 1.524 . S
C1053 C1054 1.397 . S
C1053 C1058 1.363 . S
C1054 H1031 0.950 . S
C1054 C1053 1.397 . S
C1054 C1055 1.334 . S
C1055 H1032 0.950 . S
C1055 C1054 1.334 . S
C1055 C1056 1.287 . S
C1056 C1055 1.287 . S
C1056 C1057 1.524 . S
C1056 H1075 0.913 . S
C1057 H1033 0.950 . S
C1057 C1056 1.524 . S
C1057 C1058 1.415 . S
C1058 H1034 0.950 . S
C1058 C1053 1.363 . S
C1058 C1057 1.415 . S
C1059 H1035 0.951 . S
C1059 C1060 1.366 . S
C1059 C1061 1.388 . S
C1060 C1059 1.366 . S
C1060 C1064 1.385 . S
C1061 H1036 0.951 . S
C1061 C1059 1.388 . S
C1061 C1062 1.366 . S
C1062 C1061 1.366 . S
C1062 C1063 1.414 . S
C1062 C1065 1.499 . S
C1063 H1037 0.950 . S
C1063 C1062 1.414 . S
C1063 C1064 1.374 . S
C1064 H1038 0.950 . S
C1064 C1060 1.385 . S
C1064 C1063 1.374 . S
C1065 C1062 1.499 . S
C1065 C1066 1.373 . S
C1065 C1067 1.389 . S
C1066 H1039 0.950 . S
C1066 C1052 1.377 . S
C1066 C1065 1.373 . S
C1067 C1051 1.377 . S
C1067 C1065 1.389 . S
C1067 C1068 1.524 . S
C1068 C1067 1.524 . S
C1068 C1069 1.397 . S
C1068 C1073 1.363 . S
C1069 H1040 0.950 . S
C1069 C1068 1.397 . S
C1069 C1070 1.334 . S
C1070 H1041 0.950 . S
C1070 C1069 1.334 . S
C1070 C1071 1.287 . S
C1071 C1070 1.287 . S
C1071 C1072 1.524 . S
C1071 H1074 0.999 . S
C1072 H1042 0.950 . S
C1072 C1071 1.524 . S
C1072 C1073 1.415 . S
C1073 H1043 0.950 . S
C1073 C1068 1.363 . S
C1073 C1072 1.415 . S
H1074 C1071 0.999 . S
H1075 C1056 0.913 . S
H1076 C1094 0.951 . S
H1077 C1096 0.951 . S
H1078 C1098 0.950 . S
H1079 C1099 0.950 . S
H1080 C1101 0.950 . S
H1081 C1104 0.950 . S
H1082 C1105 0.950 . S
H1083 C1107 0.950 . S
H1084 C1108 0.950 . S
H1085 C1109 0.951 . S
H1086 C1111 0.951 . S
H1087 C1113 0.950 . S
H1088 C1114 0.950 . S
H1089 C1116 0.950 . S
H1090 C1119 0.950 . S
H1091 C1120 0.950 . S
H1092 C1122 0.950 . S
H1093 C1123 0.950 . S
C1094 H1076 0.951 . S
C1094 C1095 1.366 . S
C1094 C1096 1.388 . S
C1095 C1094 1.366 . S
C1095 C1099 1.385 . S
C1096 H1077 0.951 . S
C1096 C1094 1.388 . S
C1096 C1097 1.366 . S
C1097 C1096 1.366 . S
C1097 C1098 1.414 . S
C1097 C1100 1.499 . S
C1098 H1078 0.950 . S
C1098 C1097 1.414 . S
C1098 C1099 1.374 . S
C1099 H1079 0.950 . S
C1099 C1095 1.385 . S
C1099 C1098 1.374 . S
C1100 C1097 1.499 . S
C1100 C1101 1.373 . S
C1100 C1102 1.389 . S
C1101 H1080 0.950 . S
C1101 C1100 1.373 . S
C1101 C1117 1.377 . S
C1102 C1100 1.389 . S
C1102 C1103 1.524 . S
C1102 C1116 1.377 . S
C1103 C1102 1.524 . S
C1103 C1104 1.397 . S
C1103 C1108 1.363 . S
C1104 H1081 0.950 . S
C1104 C1103 1.397 . S
C1104 C1105 1.334 . S
C1105 H1082 0.950 . S
C1105 C1104 1.334 . S
C1105 C1106 1.287 . S
C1106 C1105 1.287 . S
C1106 C1107 1.524 . S
C1106 H1125 0.913 . S
C1107 H1083 0.950 . S
C1107 C1106 1.524 . S
C1107 C1108 1.415 . S
C1108 H1084 0.950 . S
C1108 C1103 1.363 . S
C1108 C1107 1.415 . S
C1109 H1085 0.951 . S
C1109 C1110 1.366 . S
C1109 C1111 1.388 . S
C1110 C1109 1.366 . S
C1110 C1114 1.385 . S
C1111 H1086 0.951 . S
C1111 C1109 1.388 . S
C1111 C1112 1.366 . S
C1112 C1111 1.366 . S
C1112 C1113 1.414 . S
C1112 C1115 1.499 . S
C1113 H1087 0.950 . S
C1113 C1112 1.414 . S
C1113 C1114 1.374 . S
C1114 H1088 0.950 . S
C1114 C1110 1.385 . S
C1114 C1113 1.374 . S
C1115 C1112 1.499 . S
C1115 C1116 1.373 . S
C1115 C1117 1.389 . S
C1116 H1089 0.950 . S
C1116 C1102 1.377 . S
C1116 C1115 1.373 . S
C1117 C1101 1.377 . S
C1117 C1115 1.389 . S
C1117 C1118 1.524 . S
C1118 C1117 1.524 . S
C1118 C1119 1.397 . S
C1118 C1123 1.363 . S
C1119 H1090 0.950 . S
C1119 C1118 1.397 . S
C1119 C1120 1.334 . S
C1120 H1091 0.950 . S
C1120 C1119 1.334 . S
C1120 C1121 1.287 . S
C1121 C1120 1.287 . S
C1121 C1122 1.524 . S
C1121 H1124 0.999 . S
C1122 H1092 0.950 . S
C1122 C1121 1.524 . S
C1122 C1123 1.415 . S
C1123 H1093 0.950 . S
C1123 C1118 1.363 . S
C1123 C1122 1.415 . S
H1124 C1121 0.999 . S
H1125 C1106 0.913 . S
H1126 C1144 0.951 . S
H1127 C1146 0.951 . S
H1128 C1148 0.950 . S
H1129 C1149 0.950 . S
H1130 C1151 0.950 . S
H1131 C1154 0.950 . S
H1132 C1155 0.950 . S
H1133 C1157 0.950 . S
H1134 C1158 0.950 . S
H1135 C1159 0.951 . S
H1136 C1161 0.951 . S
H1137 C1163 0.950 . S
H1138 C1164 0.950 . S
H1139 C1166 0.950 . S
H1140 C1169 0.950 . S
H1141 C1170 0.950 . S
H1142 C1172 0.950 . S
H1143 C1173 0.950 . S
C1144 H1126 0.951 . S
C1144 C1145 1.366 . S
C1144 C1146 1.388 . S
C1145 C1144 1.366 . S
C1145 C1149 1.385 . S
C1146 H1127 0.951 . S
C1146 C1144 1.388 . S
C1146 C1147 1.366 . S
C1147 C1146 1.366 . S
C1147 C1148 1.414 . S
C1147 C1150 1.499 . S
C1148 H1128 0.950 . S
C1148 C1147 1.414 . S
C1148 C1149 1.374 . S
C1149 H1129 0.950 . S
C1149 C1145 1.385 . S
C1149 C1148 1.374 . S
C1150 C1147 1.499 . S
C1150 C1151 1.373 . S
C1150 C1152 1.389 . S
C1151 H1130 0.950 . S
C1151 C1150 1.373 . S
C1151 C1167 1.377 . S
C1152 C1150 1.389 . S
C1152 C1153 1.524 . S
C1152 C1166 1.377 . S
C1153 C1152 1.524 . S
C1153 C1154 1.397 . S
C1153 C1158 1.363 . S
C1154 H1131 0.950 . S
C1154 C1153 1.397 . S
C1154 C1155 1.334 . S
C1155 H1132 0.950 . S
C1155 C1154 1.334 . S
C1155 C1156 1.287 . S
C1156 C1155 1.287 . S
C1156 C1157 1.524 . S
C1156 H1175 0.913 . S
C1157 H1133 0.950 . S
C1157 C1156 1.524 . S
C1157 C1158 1.415 . S
C1158 H1134 0.950 . S
C1158 C1153 1.363 . S
C1158 C1157 1.415 . S
C1159 H1135 0.951 . S
C1159 C1160 1.366 . S
C1159 C1161 1.388 . S
C1160 C1159 1.366 . S
C1160 C1164 1.385 . S
C1161 H1136 0.951 . S
C1161 C1159 1.388 . S
C1161 C1162 1.366 . S
C1162 C1161 1.366 . S
C1162 C1163 1.414 . S
C1162 C1165 1.499 . S
C1163 H1137 0.950 . S
C1163 C1162 1.414 . S
C1163 C1164 1.374 . S
C1164 H1138 0.950 . S
C1164 C1160 1.385 . S
C1164 C1163 1.374 . S
C1165 C1162 1.499 . S
C1165 C1166 1.373 . S
C1165 C1167 1.389 . S
C1166 H1139 0.950 . S
C1166 C1152 1.377 . S
C1166 C1165 1.373 . S
C1167 C1151 1.377 . S
C1167 C1165 1.389 . S
C1167 C1168 1.524 . S
C1168 C1167 1.524 . S
C1168 C1169 1.397 . S
C1168 C1173 1.363 . S
C1169 H1140 0.950 . S
C1169 C1168 1.397 . S
C1169 C1170 1.334 . S
C1170 H1141 0.950 . S
C1170 C1169 1.334 . S
C1170 C1171 1.287 . S
C1171 C1170 1.287 . S
C1171 C1172 1.524 . S
C1171 H1174 0.999 . S
C1172 H1142 0.950 . S
C1172 C1171 1.524 . S
C1172 C1173 1.415 . S
C1173 H1143 0.950 . S
C1173 C1168 1.363 . S
C1173 C1172 1.415 . S
H1174 C1171 0.999 . S
H1175 C1156 0.913 . S
H1176 C1194 0.951 . S
H1177 C1196 0.951 . S
H1178 C1198 0.950 . S
H1179 C1199 0.950 . S
H1180 C1201 0.950 . S
H1181 C1204 0.950 . S
H1182 C1205 0.950 . S
H1183 C1207 0.950 . S
H1184 C1208 0.950 . S
H1185 C1209 0.951 . S
H1186 C1211 0.951 . S
H1187 C1213 0.950 . S
H1188 C1214 0.950 . S
H1189 C1216 0.950 . S
H1190 C1219 0.950 . S
H1191 C1220 0.950 . S
H1192 C1222 0.950 . S
H1193 C1223 0.950 . S
C1194 H1176 0.951 . S
C1194 C1195 1.366 . S
C1194 C1196 1.388 . S
C1195 C1194 1.366 . S
C1195 C1199 1.385 . S
C1196 H1177 0.951 . S
C1196 C1194 1.388 . S
C1196 C1197 1.366 . S
C1197 C1196 1.366 . S
C1197 C1198 1.414 . S
C1197 C1200 1.499 . S
C1198 H1178 0.950 . S
C1198 C1197 1.414 . S
C1198 C1199 1.374 . S
C1199 H1179 0.950 . S
C1199 C1195 1.385 . S
C1199 C1198 1.374 . S
C1200 C1197 1.499 . S
C1200 C1201 1.373 . S
C1200 C1202 1.389 . S
C1201 H1180 0.950 . S
C1201 C1200 1.373 . S
C1201 C1217 1.377 . S
C1202 C1200 1.389 . S
C1202 C1203 1.524 . S
C1202 C1216 1.377 . S
C1203 C1202 1.524 . S
C1203 C1204 1.397 1_455 S
C1203 C1208 1.363 . S
C1204 H1181 0.950 . S
C1204 C1203 1.397 1_655 S
C1204 C1205 1.334 . S
C1205 H1182 0.950 . S
C1205 C1204 1.334 . S
C1205 C1206 1.287 . S
C1206 C1205 1.287 . S
C1206 C1207 1.524 . S
C1206 H1225 0.913 . S
C1207 H1183 0.950 . S
C1207 C1206 1.524 . S
C1207 C1208 1.415 1_655 S
C1208 H1184 0.950 . S
C1208 C1203 1.363 . S
C1208 C1207 1.415 1_455 S
C1209 H1185 0.951 . S
C1209 C1210 1.366 . S
C1209 C1211 1.388 . S
C1210 C1209 1.366 . S
C1210 C1214 1.385 . S
C1211 H1186 0.951 . S
C1211 C1209 1.388 . S
C1211 C1212 1.366 . S
C1212 C1211 1.366 . S
C1212 C1213 1.414 . S
C1212 C1215 1.499 . S
C1213 H1187 0.950 . S
C1213 C1212 1.414 . S
C1213 C1214 1.374 . S
C1214 H1188 0.950 . S
C1214 C1210 1.385 . S
C1214 C1213 1.374 . S
C1215 C1212 1.499 . S
C1215 C1216 1.373 . S
C1215 C1217 1.389 . S
C1216 H1189 0.950 . S
C1216 C1202 1.377 . S
C1216 C1215 1.373 . S
C1217 C1201 1.377 . S
C1217 C1215 1.389 . S
C1217 C1218 1.524 . S
C1218 C1217 1.524 . S
C1218 C1219 1.397 . S
C1218 C1223 1.363 . S
C1219 H1190 0.950 . S
C1219 C1218 1.397 . S
C1219 C1220 1.334 . S
C1220 H1191 0.950 . S
C1220 C1219 1.334 . S
C1220 C1221 1.287 . S
C1221 C1220 1.287 . S
C1221 C1222 1.524 . S
C1221 H1224 0.999 . S
C1222 H1192 0.950 . S
C1222 C1221 1.524 . S
C1222 C1223 1.415 . S
C1223 H1193 0.950 . S
C1223 C1218 1.363 . S
C1223 C1222 1.415 . S
H1224 C1221 0.999 . S
H1225 C1206 0.913 . S
H1226 C1244 0.951 . S
H1227 C1246 0.951 . S
H1228 C1248 0.950 . S
H1229 C1249 0.950 . S
H1230 C1251 0.950 . S
H1231 C1254 0.950 . S
H1232 C1255 0.950 . S
H1233 C1257 0.950 . S
H1234 C1258 0.950 . S
H1235 C1259 0.951 . S
H1236 C1261 0.951 . S
H1237 C1263 0.950 . S
H1238 C1264 0.950 . S
H1239 C1266 0.950 . S
H1240 C1269 0.950 . S
H1241 C1270 0.950 . S
H1242 C1272 0.950 . S
H1243 C1273 0.950 . S
C1244 H1226 0.951 . S
C1244 C1245 1.366 . S
C1244 C1246 1.388 . S
C1245 C1244 1.366 . S
C1245 C1249 1.385 . S
C1246 H1227 0.951 . S
C1246 C1244 1.388 . S
C1246 C1247 1.366 . S
C1247 C1246 1.366 . S
C1247 C1248 1.414 . S
C1247 C1250 1.499 . S
C1248 H1228 0.950 . S
C1248 C1247 1.414 . S
C1248 C1249 1.374 . S
C1249 H1229 0.950 . S
C1249 C1245 1.385 . S
C1249 C1248 1.374 . S
C1250 C1247 1.499 . S
C1250 C1251 1.373 . S
C1250 C1252 1.389 . S
C1251 H1230 0.950 . S
C1251 C1250 1.373 . S
C1251 C1267 1.377 . S
C1252 C1250 1.389 . S
C1252 C1253 1.524 . S
C1252 C1266 1.377 . S
C1253 C1252 1.524 . S
C1253 C1254 1.397 . S
C1253 C1258 1.363 . S
C1254 H1231 0.950 . S
C1254 C1253 1.397 . S
C1254 C1255 1.334 . S
C1255 H1232 0.950 . S
C1255 C1254 1.334 . S
C1255 C1256 1.287 . S
C1256 C1255 1.287 . S
C1256 C1257 1.524 . S
C1256 H1275 0.913 . S
C1257 H1233 0.950 . S
C1257 C1256 1.524 . S
C1257 C1258 1.415 . S
C1258 H1234 0.950 . S
C1258 C1253 1.363 . S
C1258 C1257 1.415 . S
C1259 H1235 0.951 . S
C1259 C1260 1.366 . S
C1259 C1261 1.388 . S
C1260 C1259 1.366 . S
C1260 C1264 1.385 . S
C1261 H1236 0.951 . S
C1261 C1259 1.388 . S
C1261 C1262 1.366 . S
C1262 C1261 1.366 . S
C1262 C1263 1.414 . S
C1262 C1265 1.499 . S
C1263 H1237 0.950 . S
C1263 C1262 1.414 . S
C1263 C1264 1.374 . S
C1264 H1238 0.950 . S
C1264 C1260 1.385 . S
C1264 C1263 1.374 . S
C1265 C1262 1.499 . S
C1265 C1266 1.373 . S
C1265 C1267 1.389 . S
C1266 H1239 0.950 . S
C1266 C1252 1.377 . S
C1266 C1265 1.373 . S
C1267 C1251 1.377 . S
C1267 C1265 1.389 . S
C1267 C1268 1.524 . S
C1268 C1267 1.524 . S
C1268 C1269 1.397 . S
C1268 C1273 1.363 . S
C1269 H1240 0.950 . S
C1269 C1268 1.397 . S
C1269 C1270 1.334 . S
C1270 H1241 0.950 . S
C1270 C1269 1.334 . S
C1270 C1271 1.287 . S
C1271 C1270 1.287 . S
C1271 C1272 1.524 . S
C1271 H1274 0.999 . S
C1272 H1242 0.950 . S
C1272 C1271 1.524 . S
C1272 C1273 1.415 . S
C1273 H1243 0.950 . S
C1273 C1268 1.363 . S
C1273 C1272 1.415 . S
H1274 C1271 0.999 . S
H1275 C1256 0.913 . S
H1276 C1294 0.951 . S
H1277 C1296 0.951 . S
H1278 C1298 0.950 . S
H1279 C1299 0.950 . S
H1280 C1301 0.950 . S
H1281 C1304 0.950 . S
H1282 C1305 0.950 . S
H1283 C1307 0.950 . S
H1284 C1308 0.950 . S
H1285 C1309 0.951 . S
H1286 C1311 0.951 . S
H1287 C1313 0.950 . S
H1288 C1314 0.950 . S
H1289 C1316 0.950 . S
H1290 C1319 0.950 . S
H1291 C1320 0.950 . S
H1292 C1322 0.950 . S
H1293 C1323 0.950 . S
C1294 H1276 0.951 . S
C1294 C1295 1.366 . S
C1294 C1296 1.388 . S
C1295 C1294 1.366 . S
C1295 C1299 1.385 . S
C1296 H1277 0.951 . S
C1296 C1294 1.388 . S
C1296 C1297 1.366 . S
C1297 C1296 1.366 . S
C1297 C1298 1.414 . S
C1297 C1300 1.499 . S
C1298 H1278 0.950 . S
C1298 C1297 1.414 . S
C1298 C1299 1.374 . S
C1299 H1279 0.950 . S
C1299 C1295 1.385 . S
C1299 C1298 1.374 . S
C1300 C1297 1.499 . S
C1300 C1301 1.373 . S
C1300 C1302 1.389 . S
C1301 H1280 0.950 . S
C1301 C1300 1.373 . S
C1301 C1317 1.377 . S
C1302 C1300 1.389 . S
C1302 C1303 1.524 . S
C1302 C1316 1.377 . S
C1303 C1302 1.524 . S
C1303 C1304 1.397 . S
C1303 C1308 1.363 . S
C1304 H1281 0.950 . S
C1304 C1303 1.397 . S
C1304 C1305 1.334 . S
C1305 H1282 0.950 . S
C1305 C1304 1.334 . S
C1305 C1306 1.287 . S
C1306 C1305 1.287 . S
C1306 C1307 1.524 . S
C1306 H1325 0.913 . S
C1307 H1283 0.950 . S
C1307 C1306 1.524 . S
C1307 C1308 1.415 . S
C1308 H1284 0.950 . S
C1308 C1303 1.363 . S
C1308 C1307 1.415 . S
C1309 H1285 0.951 . S
C1309 C1310 1.366 . S
C1309 C1311 1.388 . S
C1310 C1309 1.366 . S
C1310 C1314 1.385 . S
C1311 H1286 0.951 . S
C1311 C1309 1.388 . S
C1311 C1312 1.366 . S
C1312 C1311 1.366 . S
C1312 C1313 1.414 . S
C1312 C1315 1.499 . S
C1313 H1287 0.950 . S
C1313 C1312 1.414 . S
C1313 C1314 1.374 . S
C1314 H1288 0.950 . S
C1314 C1310 1.385 . S
C1314 C1313 1.374 . S
C1315 C1312 1.499 . S
C1315 C1316 1.373 . S
C1315 C1317 1.389 . S
C1316 H1289 0.950 . S
C1316 C1302 1.377 . S
C1316 C1315 1.373 . S
C1317 C1301 1.377 . S
C1317 C1315 1.389 . S
C1317 C1318 1.524 . S
C1318 C1317 1.524 . S
C1318 C1319 1.397 . S
C1318 C1323 1.363 . S
C1319 H1290 0.950 . S
C1319 C1318 1.397 . S
C1319 C1320 1.334 . S
C1320 H1291 0.950 . S
C1320 C1319 1.334 . S
C1320 C1321 1.287 . S
C1321 C1320 1.287 . S
C1321 C1322 1.524 . S
C1321 H1324 0.999 . S
C1322 H1292 0.950 . S
C1322 C1321 1.524 . S
C1322 C1323 1.415 . S
C1323 H1293 0.950 . S
C1323 C1318 1.363 . S
C1323 C1322 1.415 . S
H1324 C1321 0.999 . S
H1325 C1306 0.913 . S
H1326 C1344 0.951 . S
H1327 C1346 0.951 . S
H1328 C1348 0.950 . S
H1329 C1349 0.950 . S
H1330 C1351 0.950 . S
H1331 C1354 0.950 . S
H1332 C1355 0.950 . S
H1333 C1357 0.950 . S
H1334 C1358 0.950 . S
H1335 C1359 0.951 . S
H1336 C1361 0.951 . S
H1337 C1363 0.950 . S
H1338 C1364 0.950 . S
H1339 C1366 0.950 . S
H1340 C1369 0.950 . S
H1341 C1370 0.950 . S
H1342 C1372 0.950 . S
H1343 C1373 0.950 . S
C1344 H1326 0.951 . S
C1344 C1345 1.366 . S
C1344 C1346 1.388 . S
C1345 C1344 1.366 . S
C1345 C1349 1.385 . S
C1346 H1327 0.951 . S
C1346 C1344 1.388 . S
C1346 C1347 1.366 . S
C1347 C1346 1.366 . S
C1347 C1348 1.414 . S
C1347 C1350 1.499 . S
C1348 H1328 0.950 . S
C1348 C1347 1.414 . S
C1348 C1349 1.374 . S
C1349 H1329 0.950 . S
C1349 C1345 1.385 . S
C1349 C1348 1.374 . S
C1350 C1347 1.499 . S
C1350 C1351 1.373 . S
C1350 C1352 1.389 . S
C1351 H1330 0.950 . S
C1351 C1350 1.373 . S
C1351 C1367 1.377 . S
C1352 C1350 1.389 . S
C1352 C1353 1.524 . S
C1352 C1366 1.377 . S
C1353 C1352 1.524 . S
C1353 C1354 1.397 . S
C1353 C1358 1.363 . S
C1354 H1331 0.950 . S
C1354 C1353 1.397 . S
C1354 C1355 1.334 . S
C1355 H1332 0.950 . S
C1355 C1354 1.334 . S
C1355 C1356 1.287 . S
C1356 C1355 1.287 . S
C1356 C1357 1.524 . S
C1356 H1375 0.913 . S
C1357 H1333 0.950 . S
C1357 C1356 1.524 . S
C1357 C1358 1.415 . S
C1358 H1334 0.950 . S
C1358 C1353 1.363 . S
C1358 C1357 1.415 . S
C1359 H1335 0.951 . S
C1359 C1360 1.366 . S
C1359 C1361 1.388 . S
C1360 C1359 1.366 . S
C1360 C1364 1.385 . S
C1361 H1336 0.951 . S
C1361 C1359 1.388 . S
C1361 C1362 1.366 . S
C1362 C1361 1.366 . S
C1362 C1363 1.414 . S
C1362 C1365 1.499 . S
C1363 H1337 0.950 . S
C1363 C1362 1.414 . S
C1363 C1364 1.374 . S
C1364 H1338 0.950 . S
C1364 C1360 1.385 . S
C1364 C1363 1.374 . S
C1365 C1362 1.499 . S
C1365 C1366 1.373 . S
C1365 C1367 1.389 . S
C1366 H1339 0.950 . S
C1366 C1352 1.377 . S
C1366 C1365 1.373 . S
C1367 C1351 1.377 . S
C1367 C1365 1.389 . S
C1367 C1368 1.524 . S
C1368 C1367 1.524 . S
C1368 C1369 1.397 . S
C1368 C1373 1.363 . S
C1369 H1340 0.950 . S
C1369 C1368 1.397 . S
C1369 C1370 1.334 . S
C1370 H1341 0.950 . S
C1370 C1369 1.334 . S
C1370 C1371 1.287 . S
C1371 C1370 1.287 . S
C1371 C1372 1.524 . S
C1371 H1374 0.999 . S
C1372 H1342 0.950 . S
C1372 C1371 1.524 . S
C1372 C1373 1.415 . S
C1373 H1343 0.950 . S
C1373 C1368 1.363 . S
C1373 C1372 1.415 . S
H1374 C1371 0.999 . S
H1375 C1356 0.913 . S
H1376 C1394 0.951 . S
H1377 C1396 0.951 . S
H1378 C1398 0.950 . S
H1379 C1399 0.950 . S
H1380 C1401 0.950 . S
H1381 C1404 0.950 . S
H1382 C1405 0.950 . S
H1383 C1407 0.950 . S
H1384 C1408 0.950 . S
H1385 C1409 0.951 . S
H1386 C1411 0.953 . S
H1387 C1413 0.950 . S
H1388 C1414 0.950 . S
H1389 C1416 0.950 . S
H1390 C1419 0.950 . S
H1391 C1420 0.950 . S
H1392 C1422 0.950 . S
H1393 C1423 0.967 1_655 S
C1394 H1376 0.951 . S
C1394 C1395 1.366 . S
C1394 C1396 1.388 . S
C1395 C1394 1.366 . S
C1395 C1399 1.385 . S
C1396 H1377 0.951 . S
C1396 C1394 1.388 . S
C1396 C1397 1.366 . S
C1397 C1396 1.366 . S
C1397 C1398 1.414 . S
C1397 C1400 1.499 . S
C1398 H1378 0.950 . S
C1398 C1397 1.414 . S
C1398 C1399 1.374 . S
C1399 H1379 0.950 . S
C1399 C1395 1.385 . S
C1399 C1398 1.374 . S
C1400 C1397 1.499 . S
C1400 C1401 1.373 . S
C1400 C1402 1.389 . S
C1401 H1380 0.950 . S
C1401 C1400 1.373 . S
C1401 C1417 1.377 . S
C1402 C1400 1.389 . S
C1402 C1403 1.524 . S
C1402 C1416 1.377 . S
C1403 C1402 1.524 . S
C1403 C1404 1.397 . S
C1403 C1408 1.363 . S
C1404 H1381 0.950 . S
C1404 C1403 1.397 . S
C1404 C1405 1.334 . S
C1405 H1382 0.950 . S
C1405 C1404 1.334 . S
C1405 C1406 1.287 . S
C1406 C1405 1.287 . S
C1406 C1407 1.524 . S
C1406 H1425 0.913 . S
C1407 H1383 0.950 . S
C1407 C1406 1.524 . S
C1407 C1408 1.415 . S
C1408 H1384 0.950 . S
C1408 C1403 1.363 . S
C1408 C1407 1.415 . S
C1409 H1385 0.951 . S
C1409 C1410 1.366 . S
C1409 C1411 1.381 1_455 S
C1410 C1409 1.366 . S
C1410 C1414 1.385 . S
C1411 H1386 0.953 . S
C1411 C1409 1.381 1_655 S
C1411 C1412 1.370 . S
C1412 C1411 1.370 . S
C1412 C1413 1.414 1_655 S
C1412 C1415 1.499 . S
C1413 H1387 0.950 . S
C1413 C1412 1.414 1_455 S
C1413 C1414 1.374 . S
C1414 H1388 0.950 . S
C1414 C1410 1.385 . S
C1414 C1413 1.374 . S
C1415 C1412 1.499 . S
C1415 C1416 1.373 . S
C1415 C1417 1.389 . S
C1416 H1389 0.950 . S
C1416 C1402 1.377 . S
C1416 C1415 1.373 . S
C1417 C1401 1.377 . S
C1417 C1415 1.389 . S
C1417 C1418 1.524 1_655 S
C1418 C1417 1.524 1_455 S
C1418 C1419 1.397 . S
C1418 C1423 1.320 1_545 S
C1419 H1390 0.950 . S
C1419 C1418 1.397 . S
C1419 C1420 1.334 . S
C1420 H1391 0.950 . S
C1420 C1419 1.334 . S
C1420 C1421 1.287 . S
C1421 C1420 1.287 . S
C1421 C1422 1.524 1_545 S
C1421 H1424 1.003 . S
C1422 H1392 0.950 . S
C1422 C1421 1.524 1_565 S
C1422 C1423 1.442 . S
C1423 H1393 0.967 1_455 S
C1423 C1418 1.320 1_565 S
C1423 C1422 1.442 . S
H1424 C1421 1.003 . S
H1425 C1406 0.913 . S
H1426 C1444 0.951 . S
H1427 C1446 0.951 . S
H1428 C1448 0.950 . S
H1429 C1449 0.950 . S
H1430 C1451 0.950 . S
H1431 C1454 0.950 . S
H1432 C1455 0.950 . S
H1433 C1457 0.950 . S
H1434 C1458 0.950 . S
H1435 C1459 0.951 . S
H1436 C1461 0.951 . S
H1437 C1463 0.950 . S
H1438 C1464 0.950 . S
H1439 C1466 0.950 . S
H1440 C1469 0.950 . S
H1441 C1470 0.950 . S
H1442 C1472 0.950 . S
H1443 C1473 0.950 . S
C1444 H1426 0.951 . S
C1444 C1445 1.366 . S
C1444 C1446 1.388 . S
C1445 C1444 1.366 . S
C1445 C1449 1.385 . S
C1446 H1427 0.951 . S
C1446 C1444 1.388 . S
C1446 C1447 1.366 . S
C1447 C1446 1.366 . S
C1447 C1448 1.414 . S
C1447 C1450 1.499 . S
C1448 H1428 0.950 . S
C1448 C1447 1.414 . S
C1448 C1449 1.374 . S
C1449 H1429 0.950 . S
C1449 C1445 1.385 . S
C1449 C1448 1.374 . S
C1450 C1447 1.499 . S
C1450 C1451 1.373 . S
C1450 C1452 1.389 . S
C1451 H1430 0.950 . S
C1451 C1450 1.373 . S
C1451 C1467 1.377 . S
C1452 C1450 1.389 . S
C1452 C1453 1.524 . S
C1452 C1466 1.377 . S
C1453 C1452 1.524 . S
C1453 C1454 1.397 . S
C1453 C1458 1.363 . S
C1454 H1431 0.950 . S
C1454 C1453 1.397 . S
C1454 C1455 1.334 . S
C1455 H1432 0.950 . S
C1455 C1454 1.334 . S
C1455 C1456 1.287 . S
C1456 C1455 1.287 . S
C1456 C1457 1.524 . S
C1456 H1475 0.913 . S
C1457 H1433 0.950 . S
C1457 C1456 1.524 . S
C1457 C1458 1.415 . S
C1458 H1434 0.950 . S
C1458 C1453 1.363 . S
C1458 C1457 1.415 . S
C1459 H1435 0.951 . S
C1459 C1460 1.366 . S
C1459 C1461 1.388 . S
C1460 C1459 1.366 . S
C1460 C1464 1.385 . S
C1461 H1436 0.951 . S
C1461 C1459 1.388 . S
C1461 C1462 1.366 . S
C1462 C1461 1.366 . S
C1462 C1463 1.414 . S
C1462 C1465 1.499 . S
C1463 H1437 0.950 . S
C1463 C1462 1.414 . S
C1463 C1464 1.374 . S
C1464 H1438 0.950 . S
C1464 C1460 1.385 . S
C1464 C1463 1.374 . S
C1465 C1462 1.499 . S
C1465 C1466 1.373 . S
C1465 C1467 1.389 . S
C1466 H1439 0.950 . S
C1466 C1452 1.377 . S
C1466 C1465 1.373 . S
C1467 C1451 1.377 . S
C1467 C1465 1.389 . S
C1467 C1468 1.524 . S
C1468 C1467 1.524 . S
C1468 C1469 1.397 . S
C1468 C1473 1.363 . S
C1469 H1440 0.950 . S
C1469 C1468 1.397 . S
C1469 C1470 1.334 . S
C1470 H1441 0.950 . S
C1470 C1469 1.334 . S
C1470 C1471 1.287 . S
C1471 C1470 1.287 . S
C1471 C1472 1.524 . S
C1471 H1474 0.999 . S
C1472 H1442 0.950 . S
C1472 C1471 1.524 . S
C1472 C1473 1.415 . S
C1473 H1443 0.950 . S
C1473 C1468 1.363 . S
C1473 C1472 1.415 . S
H1474 C1471 0.999 . S
H1475 C1456 0.913 . S
H1476 C1494 0.951 . S
H1477 C1496 0.951 . S
H1478 C1498 0.950 . S
H1479 C1499 0.950 . S
H1480 C1501 0.950 . S
H1481 C1504 0.950 . S
H1482 C1505 0.950 . S
H1483 C1507 0.951 . S
H1484 C1508 0.950 . S
H1485 C1509 0.951 . S
H1486 C1511 0.951 . S
H1487 C1513 0.950 . S
H1488 C1514 0.950 . S
H1489 C1516 0.950 . S
H1490 C1519 0.950 . S
H1491 C1520 0.950 . S
H1492 C1522 0.950 . S
H1493 C1523 0.950 . S
C1494 H1476 0.951 . S
C1494 C1495 1.366 . S
C1494 C1496 1.388 . S
C1495 C1494 1.366 . S
C1495 C1499 1.385 . S
C1496 H1477 0.951 . S
C1496 C1494 1.388 . S
C1496 C1497 1.366 . S
C1497 C1496 1.366 . S
C1497 C1498 1.414 . S
C1497 C1500 1.499 . S
C1498 H1478 0.950 . S
C1498 C1497 1.414 . S
C1498 C1499 1.374 . S
C1499 H1479 0.950 . S
C1499 C1495 1.385 . S
C1499 C1498 1.374 . S
C1500 C1497 1.499 . S
C1500 C1501 1.373 . S
C1500 C1502 1.389 . S
C1501 H1480 0.950 . S
C1501 C1500 1.373 . S
C1501 C1517 1.377 . S
C1502 C1500 1.389 . S
C1502 C1503 1.524 . S
C1502 C1516 1.377 . S
C1503 C1502 1.524 . S
C1503 C1504 1.397 . S
C1503 C1508 1.363 . S
C1504 H1481 0.950 . S
C1504 C1503 1.397 . S
C1504 C1505 1.334 1_545 S
C1505 H1482 0.950 . S
C1505 C1504 1.334 1_565 S
C1505 C1506 1.287 . S
C1506 C1505 1.287 . S
C1506 C1507 1.555 . S
C1506 H1525 0.913 . S
C1507 H1483 0.951 . S
C1507 C1506 1.555 . S
C1507 C1508 1.384 1_565 S
C1508 H1484 0.950 . S
C1508 C1503 1.363 . S
C1508 C1507 1.384 1_545 S
C1509 H1485 0.951 . S
C1509 C1510 1.366 . S
C1509 C1511 1.388 . S
C1510 C1509 1.366 . S
C1510 C1514 1.385 . S
C1511 H1486 0.951 . S
C1511 C1509 1.388 . S
C1511 C1512 1.366 . S
C1512 C1511 1.366 . S
C1512 C1513 1.414 . S
C1512 C1515 1.499 . S
C1513 H1487 0.950 . S
C1513 C1512 1.414 . S
C1513 C1514 1.374 . S
C1514 H1488 0.950 . S
C1514 C1510 1.385 . S
C1514 C1513 1.374 . S
C1515 C1512 1.499 . S
C1515 C1516 1.373 . S
C1515 C1517 1.389 . S
C1516 H1489 0.950 . S
C1516 C1502 1.377 . S
C1516 C1515 1.373 . S
C1517 C1501 1.377 . S
C1517 C1515 1.389 . S
C1517 C1518 1.524 . S
C1518 C1517 1.524 . S
C1518 C1519 1.397 . S
C1518 C1523 1.363 . S
C1519 H1490 0.950 . S
C1519 C1518 1.397 . S
C1519 C1520 1.334 . S
C1520 H1491 0.950 . S
C1520 C1519 1.334 . S
C1520 C1521 1.287 . S
C1521 C1520 1.287 . S
C1521 C1522 1.524 . S
C1521 H1524 0.999 . S
C1522 H1492 0.950 . S
C1522 C1521 1.524 . S
C1522 C1523 1.415 . S
C1523 H1493 0.950 . S
C1523 C1518 1.363 . S
C1523 C1522 1.415 . S
H1524 C1521 0.999 . S
H1525 C1506 0.913 . S
H1526 C1544 0.951 . S
H1527 C1546 0.951 . S
H1528 C1548 0.950 . S
H1529 C1549 0.950 . S
H1530 C1551 0.950 . S
H1531 C1554 0.950 . S
H1532 C1555 0.950 . S
H1533 C1557 0.950 . S
H1534 C1558 0.950 . S
H1535 C1559 0.951 . S
H1536 C1561 0.951 . S
H1537 C1563 0.950 . S
H1538 C1564 0.950 . S
H1539 C1566 0.950 . S
H1540 C1569 0.950 . S
H1541 C1570 0.950 . S
H1542 C1572 0.950 . S
H1543 C1573 0.950 . S
C1544 H1526 0.951 . S
C1544 C1545 1.366 . S
C1544 C1546 1.388 . S
C1545 C1544 1.366 . S
C1545 C1549 1.385 . S
C1546 H1527 0.951 . S
C1546 C1544 1.388 . S
C1546 C1547 1.366 . S
C1547 C1546 1.366 . S
C1547 C1548 1.414 . S
C1547 C1550 1.499 . S
C1548 H1528 0.950 . S
C1548 C1547 1.414 . S
C1548 C1549 1.374 . S
C1549 H1529 0.950 . S
C1549 C1545 1.385 . S
C1549 C1548 1.374 . S
C1550 C1547 1.499 . S
C1550 C1551 1.373 . S
C1550 C1552 1.389 . S
C1551 H1530 0.950 . S
C1551 C1550 1.373 . S
C1551 C1567 1.377 . S
C1552 C1550 1.389 . S
C1552 C1553 1.524 . S
C1552 C1566 1.377 . S
C1553 C1552 1.524 . S
C1553 C1554 1.397 . S
C1553 C1558 1.363 . S
C1554 H1531 0.950 . S
C1554 C1553 1.397 . S
C1554 C1555 1.334 . S
C1555 H1532 0.950 . S
C1555 C1554 1.334 . S
C1555 C1556 1.287 . S
C1556 C1555 1.287 . S
C1556 C1557 1.524 . S
C1556 H1575 0.913 . S
C1557 H1533 0.950 . S
C1557 C1556 1.524 . S
C1557 C1558 1.415 . S
C1558 H1534 0.950 . S
C1558 C1553 1.363 . S
C1558 C1557 1.415 . S
C1559 H1535 0.951 . S
C1559 C1560 1.366 . S
C1559 C1561 1.388 . S
C1560 C1559 1.366 . S
C1560 C1564 1.385 . S
C1561 H1536 0.951 . S
C1561 C1559 1.388 . S
C1561 C1562 1.366 . S
C1562 C1561 1.366 . S
C1562 C1563 1.414 . S
C1562 C1565 1.499 . S
C1563 H1537 0.950 . S
C1563 C1562 1.414 . S
C1563 C1564 1.374 . S
C1564 H1538 0.950 . S
C1564 C1560 1.385 . S
C1564 C1563 1.374 . S
C1565 C1562 1.499 . S
C1565 C1566 1.373 . S
C1565 C1567 1.389 . S
C1566 H1539 0.950 . S
C1566 C1552 1.377 . S
C1566 C1565 1.373 . S
C1567 C1551 1.377 . S
C1567 C1565 1.389 . S
C1567 C1568 1.524 . S
C1568 C1567 1.524 . S
C1568 C1569 1.397 . S
C1568 C1573 1.363 . S
C1569 H1540 0.950 . S
C1569 C1568 1.397 . S
C1569 C1570 1.334 . S
C1570 H1541 0.950 . S
C1570 C1569 1.334 . S
C1570 C1571 1.287 . S
C1571 C1570 1.287 . S
C1571 C1572 1.524 . S
C1571 H1574 0.999 . S
C1572 H1542 0.950 . S
C1572 C1571 1.524 . S
C1572 C1573 1.415 . S
C1573 H1543 0.950 . S
C1573 C1568 1.363 . S
C1573 C1572 1.415 . S
H1574 C1571 0.999 . S
H1575 C1556 0.913 . S
H1576 C1594 0.951 . S
H1577 C1596 0.951 . S
H1578 C1598 0.950 . S
H1579 C1599 0.950 . S
H1580 C1601 0.950 . S
H1581 C1604 0.950 . S
H1582 C1605 0.950 . S
H1583 C1607 0.950 . S
H1584 C1608 0.950 . S
H1585 C1609 0.951 . S
H1586 C1611 0.951 . S
H1587 C1613 0.950 . S
H1588 C1614 0.950 . S
H1589 C1616 0.950 . S
H1590 C1619 0.950 . S
H1591 C1620 0.950 . S
H1592 C1622 0.950 . S
H1593 C1623 0.950 . S
C1594 H1576 0.951 . S
C1594 C1595 1.366 . S
C1594 C1596 1.388 . S
C1595 C1594 1.366 . S
C1595 C1599 1.385 . S
C1596 H1577 0.951 . S
C1596 C1594 1.388 . S
C1596 C1597 1.366 . S
C1597 C1596 1.366 . S
C1597 C1598 1.414 . S
C1597 C1600 1.499 . S
C1598 H1578 0.950 . S
C1598 C1597 1.414 . S
C1598 C1599 1.374 . S
C1599 H1579 0.950 . S
C1599 C1595 1.385 . S
C1599 C1598 1.374 . S
C1600 C1597 1.499 . S
C1600 C1601 1.373 . S
C1600 C1602 1.389 . S
C1601 H1580 0.950 . S
C1601 C1600 1.373 . S
C1601 C1617 1.377 . S
C1602 C1600 1.389 . S
C1602 C1603 1.524 1_655 S
C1602 C1616 1.377 1_655 S
C1603 C1602 1.524 1_455 S
C1603 C1604 1.397 . S
C1603 C1608 1.363 . S
C1604 H1581 0.950 . S
C1604 C1603 1.397 . S
C1604 C1605 1.334 . S
C1605 H1582 0.950 . S
C1605 C1604 1.334 . S
C1605 C1606 1.287 . S
C1606 C1605 1.287 . S
C1606 C1607 1.524 . S
C1606 H1625 0.913 . S
C1607 H1583 0.950 . S
C1607 C1606 1.524 . S
C1607 C1608 1.415 . S
C1608 H1584 0.950 . S
C1608 C1603 1.363 . S
C1608 C1607 1.415 . S
C1609 H1585 0.951 . S
C1609 C1610 1.366 . S
C1609 C1611 1.388 1_455 S
C1610 C1609 1.366 . S
C1610 C1614 1.385 . S
C1611 H1586 0.951 . S
C1611 C1609 1.388 1_655 S
C1611 C1612 1.366 . S
C1612 C1611 1.366 . S
C1612 C1613 1.414 1_655 S
C1612 C1615 1.499 . S
C1613 H1587 0.950 . S
C1613 C1612 1.414 1_455 S
C1613 C1614 1.374 . S
C1614 H1588 0.950 . S
C1614 C1610 1.385 . S
C1614 C1613 1.374 . S
C1615 C1612 1.499 . S
C1615 C1616 1.373 1_655 S
C1615 C1617 1.389 . S
C1616 H1589 0.950 . S
C1616 C1602 1.377 1_455 S
C1616 C1615 1.373 1_455 S
C1617 C1601 1.377 . S
C1617 C1615 1.389 . S
C1617 C1618 1.524 . S
C1618 C1617 1.524 . S
C1618 C1619 1.397 . S
C1618 C1623 1.363 1_545 S
C1619 H1590 0.950 . S
C1619 C1618 1.397 . S
C1619 C1620 1.334 . S
C1620 H1591 0.950 . S
C1620 C1619 1.334 . S
C1620 C1621 1.287 . S
C1621 C1620 1.287 . S
C1621 C1622 1.524 1_545 S
C1621 H1624 0.999 1_545 S
C1622 H1592 0.950 . S
C1622 C1621 1.524 1_565 S
C1622 C1623 1.415 . S
C1623 H1593 0.950 . S
C1623 C1618 1.363 1_565 S
C1623 C1622 1.415 . S
H1624 C1621 0.999 1_565 S
H1625 C1606 0.913 . S
H1626 C1644 0.951 . S
H1627 C1646 0.951 . S
H1628 C1648 0.950 . S
H1629 C1649 0.950 . S
H1630 C1651 0.950 . S
H1631 C1654 0.950 . S
H1632 C1655 0.950 . S
H1633 C1657 0.950 . S
H1634 C1658 0.950 . S
H1635 C1659 0.951 . S
H1636 C1661 0.951 . S
H1637 C1663 0.950 . S
H1638 C1664 0.950 . S
H1639 C1666 0.950 . S
H1640 C1669 0.950 . S
H1641 C1670 0.950 . S
H1642 C1672 0.950 . S
H1643 C1673 0.950 . S
C1644 H1626 0.951 . S
C1644 C1645 1.366 . S
C1644 C1646 1.388 . S
C1645 C1644 1.366 . S
C1645 C1649 1.385 . S
C1646 H1627 0.951 . S
C1646 C1644 1.388 . S
C1646 C1647 1.366 . S
C1647 C1646 1.366 . S
C1647 C1648 1.414 . S
C1647 C1650 1.499 . S
C1648 H1628 0.950 . S
C1648 C1647 1.414 . S
C1648 C1649 1.374 . S
C1649 H1629 0.950 . S
C1649 C1645 1.385 . S
C1649 C1648 1.374 . S
C1650 C1647 1.499 . S
C1650 C1651 1.373 . S
C1650 C1652 1.389 . S
C1651 H1630 0.950 . S
C1651 C1650 1.373 . S
C1651 C1667 1.377 . S
C1652 C1650 1.389 . S
C1652 C1653 1.524 . S
C1652 C1666 1.377 . S
C1653 C1652 1.524 . S
C1653 C1654 1.397 . S
C1653 C1658 1.363 . S
C1654 H1631 0.950 . S
C1654 C1653 1.397 . S
C1654 C1655 1.334 . S
C1655 H1632 0.950 . S
C1655 C1654 1.334 . S
C1655 C1656 1.287 . S
C1656 C1655 1.287 . S
C1656 C1657 1.524 . S
C1656 H1675 0.913 . S
C1657 H1633 0.950 . S
C1657 C1656 1.524 . S
C1657 C1658 1.415 . S
C1658 H1634 0.950 . S
C1658 C1653 1.363 . S
C1658 C1657 1.415 . S
C1659 H1635 0.951 . S
C1659 C1660 1.366 . S
C1659 C1661 1.388 . S
C1660 C1659 1.366 . S
C1660 C1664 1.385 . S
C1661 H1636 0.951 . S
C1661 C1659 1.388 . S
C1661 C1662 1.366 . S
C1662 C1661 1.366 . S
C1662 C1663 1.414 . S
C1662 C1665 1.499 . S
C1663 H1637 0.950 . S
C1663 C1662 1.414 . S
C1663 C1664 1.374 . S
C1664 H1638 0.950 . S
C1664 C1660 1.385 . S
C1664 C1663 1.374 . S
C1665 C1662 1.499 . S
C1665 C1666 1.373 . S
C1665 C1667 1.389 . S
C1666 H1639 0.950 . S
C1666 C1652 1.377 . S
C1666 C1665 1.373 . S
C1667 C1651 1.377 . S
C1667 C1665 1.389 . S
C1667 C1668 1.524 . S
C1668 C1667 1.524 . S
C1668 C1669 1.397 . S
C1668 C1673 1.363 . S
C1669 H1640 0.950 . S
C1669 C1668 1.397 . S
C1669 C1670 1.334 . S
C1670 H1641 0.950 . S
C1670 C1669 1.334 . S
C1670 C1671 1.287 . S
C1671 C1670 1.287 . S
C1671 C1672 1.524 . S
C1671 H1674 0.999 . S
C1672 H1642 0.950 . S
C1672 C1671 1.524 . S
C1672 C1673 1.415 . S
C1673 H1643 0.950 . S
C1673 C1668 1.363 . S
C1673 C1672 1.415 . S
H1674 C1671 0.999 . S
H1675 C1656 0.913 . S
H1676 C1694 0.951 . S
H1677 C1696 0.951 . S
H1678 C1698 0.950 . S
H1679 C1699 0.950 . S
H1680 C1701 0.950 . S
H1681 C1704 0.950 . S
H1682 C1705 0.950 . S
H1683 C1707 0.950 . S
H1684 C1708 0.950 . S
H1685 C1709 0.951 . S
H1686 C1711 0.951 . S
H1687 C1713 0.950 . S
H1688 C1714 0.950 . S
H1689 C1716 0.950 . S
H1690 C1719 0.950 . S
H1691 C1720 0.950 . S
H1692 C1722 0.950 . S
H1693 C1723 0.950 . S
C1694 H1676 0.951 . S
C1694 C1695 1.366 . S
C1694 C1696 1.388 . S
C1695 C1694 1.366 . S
C1695 C1699 1.385 . S
C1696 H1677 0.951 . S
C1696 C1694 1.388 . S
C1696 C1697 1.366 . S
C1697 C1696 1.366 . S
C1697 C1698 1.414 . S
C1697 C1700 1.499 . S
C1698 H1678 0.950 . S
C1698 C1697 1.414 . S
C1698 C1699 1.374 . S
C1699 H1679 0.950 . S
C1699 C1695 1.385 . S
C1699 C1698 1.374 . S
C1700 C1697 1.499 . S
C1700 C1701 1.373 . S
C1700 C1702 1.389 . S
C1701 H1680 0.950 . S
C1701 C1700 1.373 . S
C1701 C1717 1.377 . S
C1702 C1700 1.389 . S
C1702 C1703 1.524 . S
C1702 C1716 1.377 . S
C1703 C1702 1.524 . S
C1703 C1704 1.397 . S
C1703 C1708 1.363 . S
C1704 H1681 0.950 . S
C1704 C1703 1.397 . S
C1704 C1705 1.334 . S
C1705 H1682 0.950 . S
C1705 C1704 1.334 . S
C1705 C1706 1.287 . S
C1706 C1705 1.287 . S
C1706 C1707 1.524 . S
C1706 H1725 0.913 . S
C1707 H1683 0.950 . S
C1707 C1706 1.524 . S
C1707 C1708 1.415 . S
C1708 H1684 0.950 . S
C1708 C1703 1.363 . S
C1708 C1707 1.415 . S
C1709 H1685 0.951 . S
C1709 C1710 1.366 . S
C1709 C1711 1.388 . S
C1710 C1709 1.366 . S
C1710 C1714 1.385 . S
C1711 H1686 0.951 . S
C1711 C1709 1.388 . S
C1711 C1712 1.366 . S
C1712 C1711 1.366 . S
C1712 C1713 1.414 . S
C1712 C1715 1.499 . S
C1713 H1687 0.950 . S
C1713 C1712 1.414 . S
C1713 C1714 1.374 . S
C1714 H1688 0.950 . S
C1714 C1710 1.385 . S
C1714 C1713 1.374 . S
C1715 C1712 1.499 . S
C1715 C1716 1.373 . S
C1715 C1717 1.389 . S
C1716 H1689 0.950 . S
C1716 C1702 1.377 . S
C1716 C1715 1.373 . S
C1717 C1701 1.377 . S
C1717 C1715 1.389 . S
C1717 C1718 1.524 . S
C1718 C1717 1.524 . S
C1718 C1719 1.397 . S
C1718 C1723 1.363 . S
C1719 H1690 0.950 . S
C1719 C1718 1.397 . S
C1719 C1720 1.334 . S
C1720 H1691 0.950 . S
C1720 C1719 1.334 . S
C1720 C1721 1.287 . S
C1721 C1720 1.287 . S
C1721 C1722 1.524 . S
C1721 H1724 0.999 1_545 S
C1722 H1692 0.950 . S
C1722 C1721 1.524 . S
C1722 C1723 1.415 . S
C1723 H1693 0.950 . S
C1723 C1718 1.363 . S
C1723 C1722 1.415 . S
H1724 C1721 0.999 1_565 S
H1725 C1706 0.913 . S
H1726 C1744 0.951 . S
H1727 C1746 0.951 . S
H1728 C1748 0.950 . S
H1729 C1749 0.950 . S
H1730 C1751 0.950 . S
H1731 C1754 0.950 . S
H1732 C1755 0.950 . S
H1733 C1757 0.950 . S
H1734 C1758 0.950 . S
H1735 C1759 0.951 . S
H1736 C1761 0.951 . S
H1737 C1763 0.950 . S
H1738 C1764 0.950 . S
H1739 C1766 0.950 . S
H1740 C1769 0.950 . S
H1741 C1770 0.950 . S
H1742 C1772 0.950 . S
H1743 C1773 0.950 . S
C1744 H1726 0.951 . S
C1744 C1745 1.366 . S
C1744 C1746 1.388 . S
C1745 C1744 1.366 . S
C1745 C1749 1.385 . S
C1746 H1727 0.951 . S
C1746 C1744 1.388 . S
C1746 C1747 1.366 . S
C1747 C1746 1.366 . S
C1747 C1748 1.414 . S
C1747 C1750 1.499 . S
C1748 H1728 0.950 . S
C1748 C1747 1.414 . S
C1748 C1749 1.374 . S
C1749 H1729 0.950 . S
C1749 C1745 1.385 . S
C1749 C1748 1.374 . S
C1750 C1747 1.499 . S
C1750 C1751 1.373 . S
C1750 C1752 1.389 . S
C1751 H1730 0.950 . S
C1751 C1750 1.373 . S
C1751 C1767 1.377 . S
C1752 C1750 1.389 . S
C1752 C1753 1.524 . S
C1752 C1766 1.377 . S
C1753 C1752 1.524 . S
C1753 C1754 1.397 . S
C1753 C1758 1.363 . S
C1754 H1731 0.950 . S
C1754 C1753 1.397 . S
C1754 C1755 1.334 . S
C1755 H1732 0.950 . S
C1755 C1754 1.334 . S
C1755 C1756 1.287 . S
C1756 C1755 1.287 . S
C1756 C1757 1.524 . S
C1756 H1775 0.913 . S
C1757 H1733 0.950 . S
C1757 C1756 1.524 . S
C1757 C1758 1.415 . S
C1758 H1734 0.950 . S
C1758 C1753 1.363 . S
C1758 C1757 1.415 . S
C1759 H1735 0.951 . S
C1759 C1760 1.366 . S
C1759 C1761 1.388 . S
C1760 C1759 1.366 . S
C1760 C1764 1.385 . S
C1761 H1736 0.951 . S
C1761 C1759 1.388 . S
C1761 C1762 1.366 . S
C1762 C1761 1.366 . S
C1762 C1763 1.414 . S
C1762 C1765 1.499 . S
C1763 H1737 0.950 . S
C1763 C1762 1.414 . S
C1763 C1764 1.374 . S
C1764 H1738 0.950 . S
C1764 C1760 1.385 . S
C1764 C1763 1.374 . S
C1765 C1762 1.499 . S
C1765 C1766 1.373 . S
C1765 C1767 1.389 . S
C1766 H1739 0.950 . S
C1766 C1752 1.377 . S
C1766 C1765 1.373 . S
C1767 C1751 1.377 . S
C1767 C1765 1.389 . S
C1767 C1768 1.524 . S
C1768 C1767 1.524 . S
C1768 C1769 1.397 . S
C1768 C1773 1.363 . S
C1769 H1740 0.950 . S
C1769 C1768 1.397 . S
C1769 C1770 1.334 . S
C1770 H1741 0.950 . S
C1770 C1769 1.334 . S
C1770 C1771 1.287 . S
C1771 C1770 1.287 . S
C1771 C1772 1.524 . S
C1771 H1774 0.999 . S
C1772 H1742 0.950 . S
C1772 C1771 1.524 . S
C1772 C1773 1.415 . S
C1773 H1743 0.950 . S
C1773 C1768 1.363 . S
C1773 C1772 1.415 . S
H1774 C1771 0.999 . S
H1775 C1756 0.913 . S
H1776 C1794 0.951 . S
H1777 C1796 0.951 . S
H1778 C1798 0.950 1_556 S
H1779 C1799 0.950 . S
H1780 C1801 0.950 1_556 S
H1781 C1804 0.950 . S
H1782 C1805 0.950 . S
H1783 C1807 0.950 . S
H1784 C1808 0.950 . S
H1785 C1809 0.951 . S
H1786 C1811 0.951 . S
H1787 C1813 0.948 1_545 S
H1788 C1814 0.950 . S
H1789 C1816 0.950 . S
H1790 C1819 0.946 1_554 S
H1791 C1820 0.950 1_545 S
H1792 C1822 0.950 . S
H1793 C1823 0.950 . S
C1794 H1776 0.951 . S
C1794 C1795 1.366 . S
C1794 C1796 1.388 . S
C1795 C1794 1.366 . S
C1795 C1799 1.385 1_554 S
C1796 H1777 0.951 . S
C1796 C1794 1.388 . S
C1796 C1797 1.366 . S
C1797 C1796 1.366 . S
C1797 C1798 1.414 . S
C1797 C1800 1.499 . S
C1798 H1778 0.950 1_554 S
C1798 C1797 1.414 . S
C1798 C1799 1.374 1_554 S
C1799 H1779 0.950 . S
C1799 C1795 1.385 1_556 S
C1799 C1798 1.374 1_556 S
C1800 C1797 1.499 . S
C1800 C1801 1.373 . S
C1800 C1802 1.389 . S
C1801 H1780 0.950 1_554 S
C1801 C1800 1.373 . S
C1801 C1817 1.377 . S
C1802 C1800 1.389 . S
C1802 C1803 1.524 . S
C1802 C1816 1.377 . S
C1803 C1802 1.524 . S
C1803 C1804 1.397 . S
C1803 C1808 1.363 . S
C1804 H1781 0.950 . S
C1804 C1803 1.397 . S
C1804 C1805 1.334 . S
C1805 H1782 0.950 . S
C1805 C1804 1.334 . S
C1805 C1806 1.287 . S
C1806 C1805 1.287 . S
C1806 C1807 1.524 . S
C1806 H1825 0.913 . S
C1807 H1783 0.950 . S
C1807 C1806 1.524 . S
C1807 C1808 1.415 . S
C1808 H1784 0.950 . S
C1808 C1803 1.363 . S
C1808 C1807 1.415 . S
C1809 H1785 0.951 . S
C1809 C1810 1.366 1_565 S
C1809 C1811 1.388 . S
C1810 C1809 1.366 1_545 S
C1810 C1814 1.385 . S
C1811 H1786 0.951 . S
C1811 C1809 1.388 . S
C1811 C1812 1.366 . S
C1812 C1811 1.366 . S
C1812 C1813 1.434 . S
C1812 C1815 1.499 . S
C1813 H1787 0.948 1_565 S
C1813 C1812 1.434 . S
C1813 C1814 1.357 1_565 S
C1814 H1788 0.950 . S
C1814 C1810 1.385 . S
C1814 C1813 1.357 1_545 S
C1815 C1812 1.499 . S
C1815 C1816 1.373 . S
C1815 C1817 1.389 . S
C1816 H1789 0.950 . S
C1816 C1802 1.377 . S
C1816 C1815 1.373 . S
C1817 C1801 1.377 . S
C1817 C1815 1.389 . S
C1817 C1818 1.524 1_554 S
C1818 C1817 1.524 1_556 S
C1818 C1819 1.397 . S
C1818 C1823 1.363 . S
C1819 H1790 0.946 1_556 S
C1819 C1818 1.397 . S
C1819 C1820 1.334 . S
C1820 H1791 0.950 1_565 S
C1820 C1819 1.334 . S
C1820 C1821 1.287 . S
C1821 C1820 1.287 . S
C1821 C1822 1.524 . S
C1821 H1824 0.999 . S
C1822 H1792 0.950 . S
C1822 C1821 1.524 . S
C1822 C1823 1.415 . S
C1823 H1793 0.950 . S
C1823 C1818 1.363 . S
C1823 C1822 1.415 . S
H1824 C1821 0.999 . S
H1825 C1806 0.913 . S
H1826 C1844 0.951 . S
H1827 C1846 0.951 . S
H1828 C1848 0.950 . S
H1829 C1849 0.950 . S
H1830 C1851 0.950 1_556 S
H1831 C1854 0.950 . S
H1832 C1855 0.950 . S
H1833 C1857 0.950 . S
H1834 C1858 0.950 . S
H1835 C1859 0.951 . S
H1836 C1861 0.951 . S
H1837 C1863 0.950 . S
H1838 C1864 0.950 . S
H1839 C1866 0.950 . S
H1840 C1869 0.950 . S
H1841 C1870 0.950 . S
H1842 C1872 0.950 . S
H1843 C1873 0.950 . S
C1844 H1826 0.951 . S
C1844 C1845 1.366 . S
C1844 C1846 1.388 . S
C1845 C1844 1.366 . S
C1845 C1849 1.385 . S
C1846 H1827 0.951 . S
C1846 C1844 1.388 . S
C1846 C1847 1.366 . S
C1847 C1846 1.366 . S
C1847 C1848 1.414 . S
C1847 C1850 1.499 . S
C1848 H1828 0.950 . S
C1848 C1847 1.414 . S
C1848 C1849 1.374 . S
C1849 H1829 0.950 . S
C1849 C1845 1.385 . S
C1849 C1848 1.374 . S
C1850 C1847 1.499 . S
C1850 C1851 1.373 . S
C1850 C1852 1.389 . S
C1851 H1830 0.950 1_554 S
C1851 C1850 1.373 . S
C1851 C1867 1.371 . S
C1852 C1850 1.389 . S
C1852 C1853 1.524 . S
C1852 C1866 1.377 . S
C1853 C1852 1.524 . S
C1853 C1854 1.397 . S
C1853 C1858 1.363 . S
C1854 H1831 0.950 . S
C1854 C1853 1.397 . S
C1854 C1855 1.334 . S
C1855 H1832 0.950 . S
C1855 C1854 1.334 . S
C1855 C1856 1.287 . S
C1856 C1855 1.287 . S
C1856 C1857 1.524 . S
C1856 H1875 0.913 . S
C1857 H1833 0.950 . S
C1857 C1856 1.524 . S
C1857 C1858 1.415 . S
C1858 H1834 0.950 . S
C1858 C1853 1.363 . S
C1858 C1857 1.415 . S
C1859 H1835 0.951 . S
C1859 C1860 1.366 . S
C1859 C1861 1.388 . S
C1860 C1859 1.366 . S
C1860 C1864 1.385 . S
C1861 H1836 0.951 . S
C1861 C1859 1.388 . S
C1861 C1862 1.366 . S
C1862 C1861 1.366 . S
C1862 C1863 1.414 . S
C1862 C1865 1.499 . S
C1863 H1837 0.950 . S
C1863 C1862 1.414 . S
C1863 C1864 1.374 . S
C1864 H1838 0.950 . S
C1864 C1860 1.385 . S
C1864 C1863 1.374 . S
C1865 C1862 1.499 . S
C1865 C1866 1.373 . S
C1865 C1867 1.430 . S
C1866 H1839 0.950 . S
C1866 C1852 1.377 . S
C1866 C1865 1.373 . S
C1867 C1851 1.371 . S
C1867 C1865 1.430 . S
C1867 C1868 1.486 1_554 S
C1868 C1867 1.486 1_556 S
C1868 C1869 1.397 . S
C1868 C1873 1.363 . S
C1869 H1840 0.950 . S
C1869 C1868 1.397 . S
C1869 C1870 1.334 . S
C1870 H1841 0.950 . S
C1870 C1869 1.334 . S
C1870 C1871 1.287 . S
C1871 C1870 1.287 . S
C1871 C1872 1.524 . S
C1871 H1874 0.999 . S
C1872 H1842 0.950 . S
C1872 C1871 1.524 . S
C1872 C1873 1.415 . S
C1873 H1843 0.950 . S
C1873 C1868 1.363 . S
C1873 C1872 1.415 . S
H1874 C1871 0.999 . S
H1875 C1856 0.913 . S
H1876 C1894 0.951 . S
H1877 C1896 0.951 . S
H1878 C1898 0.950 . S
H1879 C1899 0.950 . S
H1880 C1901 0.950 . S
H1881 C1904 0.950 . S
H1882 C1905 0.950 . S
H1883 C1907 0.950 . S
H1884 C1908 0.950 . S
H1885 C1909 0.951 . S
H1886 C1911 0.951 . S
H1887 C1913 0.950 . S
H1888 C1914 0.950 . S
H1889 C1916 0.950 . S
H1890 C1919 0.950 . S
H1891 C1920 0.950 . S
H1892 C1922 0.950 . S
H1893 C1923 0.950 . S
C1894 H1876 0.951 . S
C1894 C1895 1.366 . S
C1894 C1896 1.388 . S
C1895 C1894 1.366 . S
C1895 C1899 1.385 . S
C1896 H1877 0.951 . S
C1896 C1894 1.388 . S
C1896 C1897 1.366 . S
C1897 C1896 1.366 . S
C1897 C1898 1.414 . S
C1897 C1900 1.499 . S
C1898 H1878 0.950 . S
C1898 C1897 1.414 . S
C1898 C1899 1.374 . S
C1899 H1879 0.950 . S
C1899 C1895 1.385 . S
C1899 C1898 1.374 . S
C1900 C1897 1.499 . S
C1900 C1901 1.373 . S
C1900 C1902 1.389 . S
C1901 H1880 0.950 . S
C1901 C1900 1.373 . S
C1901 C1917 1.377 . S
C1902 C1900 1.389 . S
C1902 C1903 1.524 . S
C1902 C1916 1.377 . S
C1903 C1902 1.524 . S
C1903 C1904 1.397 . S
C1903 C1908 1.363 . S
C1904 H1881 0.950 . S
C1904 C1903 1.397 . S
C1904 C1905 1.334 . S
C1905 H1882 0.950 . S
C1905 C1904 1.334 . S
C1905 C1906 1.287 . S
C1906 C1905 1.287 . S
C1906 C1907 1.524 . S
C1906 H1925 0.913 . S
C1907 H1883 0.950 . S
C1907 C1906 1.524 . S
C1907 C1908 1.415 . S
C1908 H1884 0.950 . S
C1908 C1903 1.363 . S
C1908 C1907 1.415 . S
C1909 H1885 0.951 . S
C1909 C1910 1.366 . S
C1909 C1911 1.388 . S
C1910 C1909 1.366 . S
C1910 C1914 1.385 . S
C1911 H1886 0.951 . S
C1911 C1909 1.388 . S
C1911 C1912 1.366 . S
C1912 C1911 1.366 . S
C1912 C1913 1.414 . S
C1912 C1915 1.499 . S
C1913 H1887 0.950 . S
C1913 C1912 1.414 . S
C1913 C1914 1.374 . S
C1914 H1888 0.950 . S
C1914 C1910 1.385 . S
C1914 C1913 1.374 . S
C1915 C1912 1.499 . S
C1915 C1916 1.373 . S
C1915 C1917 1.389 . S
C1916 H1889 0.950 . S
C1916 C1902 1.377 . S
C1916 C1915 1.373 . S
C1917 C1901 1.377 . S
C1917 C1915 1.389 . S
C1917 C1918 1.524 . S
C1918 C1917 1.524 . S
C1918 C1919 1.397 . S
C1918 C1923 1.363 . S
C1919 H1890 0.950 . S
C1919 C1918 1.397 . S
C1919 C1920 1.334 . S
C1920 H1891 0.950 . S
C1920 C1919 1.334 . S
C1920 C1921 1.287 . S
C1921 C1920 1.287 . S
C1921 C1922 1.524 . S
C1921 H1924 0.999 . S
C1922 H1892 0.950 . S
C1922 C1921 1.524 . S
C1922 C1923 1.415 . S
C1923 H1893 0.950 . S
C1923 C1918 1.363 . S
C1923 C1922 1.415 . S
H1924 C1921 0.999 . S
H1925 C1906 0.913 . S
H1926 C1944 0.951 . S
H1927 C1946 0.951 . S
H1928 C1948 0.950 . S
H1929 C1949 0.950 . S
H1930 C1951 0.950 . S
H1931 C1954 0.950 . S
H1932 C1955 0.950 . S
H1933 C1957 0.950 . S
H1934 C1958 0.950 . S
H1935 C1959 0.951 . S
H1936 C1961 0.951 . S
H1937 C1963 0.950 . S
H1938 C1964 0.950 . S
H1939 C1966 0.950 . S
H1940 C1969 0.950 . S
H1941 C1970 0.950 . S
H1942 C1972 0.950 . S
H1943 C1973 0.950 . S
C1944 H1926 0.951 . S
C1944 C1945 1.366 . S
C1944 C1946 1.388 . S
C1945 C1944 1.366 . S
C1945 C1949 1.385 . S
C1946 H1927 0.951 . S
C1946 C1944 1.388 . S
C1946 C1947 1.366 . S
C1947 C1946 1.366 . S
C1947 C1948 1.414 . S
C1947 C1950 1.499 . S
C1948 H1928 0.950 . S
C1948 C1947 1.414 . S
C1948 C1949 1.374 . S
C1949 H1929 0.950 . S
C1949 C1945 1.385 . S
C1949 C1948 1.374 . S
C1950 C1947 1.499 . S
C1950 C1951 1.373 . S
C1950 C1952 1.389 . S
C1951 H1930 0.950 . S
C1951 C1950 1.373 . S
C1951 C1967 1.377 . S
C1952 C1950 1.389 . S
C1952 C1953 1.524 . S
C1952 C1966 1.377 . S
C1953 C1952 1.524 . S
C1953 C1954 1.397 . S
C1953 C1958 1.363 . S
C1954 H1931 0.950 . S
C1954 C1953 1.397 . S
C1954 C1955 1.334 . S
C1955 H1932 0.950 . S
C1955 C1954 1.334 . S
C1955 C1956 1.287 . S
C1956 C1955 1.287 . S
C1956 C1957 1.524 . S
C1956 H1975 0.913 . S
C1957 H1933 0.950 . S
C1957 C1956 1.524 . S
C1957 C1958 1.415 . S
C1958 H1934 0.950 . S
C1958 C1953 1.363 . S
C1958 C1957 1.415 . S
C1959 H1935 0.951 . S
C1959 C1960 1.366 . S
C1959 C1961 1.388 . S
C1960 C1959 1.366 . S
C1960 C1964 1.385 . S
C1961 H1936 0.951 . S
C1961 C1959 1.388 . S
C1961 C1962 1.366 . S
C1962 C1961 1.366 . S
C1962 C1963 1.414 . S
C1962 C1965 1.499 . S
C1963 H1937 0.950 . S
C1963 C1962 1.414 . S
C1963 C1964 1.374 . S
C1964 H1938 0.950 . S
C1964 C1960 1.385 . S
C1964 C1963 1.374 . S
C1965 C1962 1.499 . S
C1965 C1966 1.373 . S
C1965 C1967 1.389 . S
C1966 H1939 0.950 . S
C1966 C1952 1.377 . S
C1966 C1965 1.373 . S
C1967 C1951 1.377 . S
C1967 C1965 1.389 . S
C1967 C1968 1.524 . S
C1968 C1967 1.524 . S
C1968 C1969 1.397 . S
C1968 C1973 1.363 . S
C1969 H1940 0.950 . S
C1969 C1968 1.397 . S
C1969 C1970 1.334 . S
C1970 H1941 0.950 . S
C1970 C1969 1.334 . S
C1970 C1971 1.287 . S
C1971 C1970 1.287 . S
C1971 C1972 1.524 . S
C1971 H1974 0.999 . S
C1972 H1942 0.950 . S
C1972 C1971 1.524 . S
C1972 C1973 1.415 . S
C1973 H1943 0.950 . S
C1973 C1968 1.363 . S
C1973 C1972 1.415 . S
H1974 C1971 0.999 . S
H1975 C1956 0.913 . S
H1976 C1994 0.951 . S
H1977 C1996 0.951 . S
H1978 C1998 0.950 . S
H1979 C1999 0.950 . S
H1980 C2001 0.950 . S
H1981 C2004 0.950 . S
H1982 C2005 0.950 . S
H1983 C2007 0.950 . S
H1984 C2008 0.950 . S
H1985 C2009 0.951 . S
H1986 C2011 0.951 . S
H1987 C2013 0.950 . S
H1988 C2014 0.950 . S
H1989 C2016 0.950 . S
H1990 C2019 0.950 . S
H1991 C2020 0.950 . S
H1992 C2022 0.950 . S
H1993 C2023 0.950 . S
C1994 H1976 0.951 . S
C1994 C1995 1.366 . S
C1994 C1996 1.388 . S
C1995 C1994 1.366 . S
C1995 C1999 1.385 . S
C1996 H1977 0.951 . S
C1996 C1994 1.388 . S
C1996 C1997 1.366 . S
C1997 C1996 1.366 . S
C1997 C1998 1.414 . S
C1997 C2000 1.499 . S
C1998 H1978 0.950 . S
C1998 C1997 1.414 . S
C1998 C1999 1.374 . S
C1999 H1979 0.950 . S
C1999 C1995 1.385 . S
C1999 C1998 1.374 . S
C2000 C1997 1.499 . S
C2000 C2001 1.373 . S
C2000 C2002 1.389 . S
C2001 H1980 0.950 . S
C2001 C2000 1.373 . S
C2001 C2017 1.377 . S
C2002 C2000 1.389 . S
C2002 C2003 1.524 . S
C2002 C2016 1.377 . S
C2003 C2002 1.524 . S
C2003 C2004 1.397 . S
C2003 C2008 1.363 . S
C2004 H1981 0.950 . S
C2004 C2003 1.397 . S
C2004 C2005 1.334 . S
C2005 H1982 0.950 . S
C2005 C2004 1.334 . S
C2005 C2006 1.287 . S
C2006 C2005 1.287 . S
C2006 C2007 1.524 . S
C2006 H2025 0.913 . S
C2007 H1983 0.950 . S
C2007 C2006 1.524 . S
C2007 C2008 1.415 . S
C2008 H1984 0.950 . S
C2008 C2003 1.363 . S
C2008 C2007 1.415 . S
C2009 H1985 0.951 . S
C2009 C2010 1.366 . S
C2009 C2011 1.388 . S
C2010 C2009 1.366 . S
C2010 C2014 1.385 . S
C2011 H1986 0.951 . S
C2011 C2009 1.388 . S
C2011 C2012 1.366 . S
C2012 C2011 1.366 . S
C2012 C2013 1.414 . S
C2012 C2015 1.499 . S
C2013 H1987 0.950 . S
C2013 C2012 1.414 . S
C2013 C2014 1.374 . S
C2014 H1988 0.950 . S
C2014 C2010 1.385 . S
C2014 C2013 1.374 . S
C2015 C2012 1.499 . S
C2015 C2016 1.373 . S
C2015 C2017 1.389 . S
C2016 H1989 0.950 . S
C2016 C2002 1.377 . S
C2016 C2015 1.373 . S
C2017 C2001 1.377 . S
C2017 C2015 1.389 . S
C2017 C2018 1.524 . S
C2018 C2017 1.524 . S
C2018 C2019 1.397 . S
C2018 C2023 1.363 . S
C2019 H1990 0.950 . S
C2019 C2018 1.397 . S
C2019 C2020 1.334 . S
C2020 H1991 0.950 . S
C2020 C2019 1.334 . S
C2020 C2021 1.287 . S
C2021 C2020 1.287 . S
C2021 C2022 1.524 . S
C2021 H2024 0.999 . S
C2022 H1992 0.950 . S
C2022 C2021 1.524 . S
C2022 C2023 1.415 . S
C2023 H1993 0.950 . S
C2023 C2018 1.363 . S
C2023 C2022 1.415 . S
H2024 C2021 0.999 . S
H2025 C2006 0.913 . S
H2026 C2044 0.951 . S
H2027 C2046 0.951 . S
H2028 C2048 0.950 . S
H2029 C2049 0.950 . S
H2030 C2051 0.950 . S
H2031 C2054 0.950 . S
H2032 C2055 0.950 . S
H2033 C2057 0.950 . S
H2034 C2058 0.950 . S
H2035 C2059 0.951 . S
H2036 C2061 0.951 . S
H2037 C2063 0.950 . S
H2038 C2064 0.950 . S
H2039 C2066 0.950 . S
H2040 C2069 0.950 . S
H2041 C2070 0.950 . S
H2042 C2072 0.950 . S
H2043 C2073 0.950 . S
C2044 H2026 0.951 . S
C2044 C2045 1.366 . S
C2044 C2046 1.388 . S
C2045 C2044 1.366 . S
C2045 C2049 1.385 . S
C2046 H2027 0.951 . S
C2046 C2044 1.388 . S
C2046 C2047 1.366 . S
C2047 C2046 1.366 . S
C2047 C2048 1.414 . S
C2047 C2050 1.499 . S
C2048 H2028 0.950 . S
C2048 C2047 1.414 . S
C2048 C2049 1.374 . S
C2049 H2029 0.950 . S
C2049 C2045 1.385 . S
C2049 C2048 1.374 . S
C2050 C2047 1.499 . S
C2050 C2051 1.373 . S
C2050 C2052 1.389 . S
C2051 H2030 0.950 . S
C2051 C2050 1.373 . S
C2051 C2067 1.377 . S
C2052 C2050 1.389 . S
C2052 C2053 1.524 . S
C2052 C2066 1.377 . S
C2053 C2052 1.524 . S
C2053 C2054 1.397 . S
C2053 C2058 1.363 . S
C2054 H2031 0.950 . S
C2054 C2053 1.397 . S
C2054 C2055 1.334 . S
C2055 H2032 0.950 . S
C2055 C2054 1.334 . S
C2055 C2056 1.287 . S
C2056 C2055 1.287 . S
C2056 C2057 1.524 . S
C2056 H2075 0.913 . S
C2057 H2033 0.950 . S
C2057 C2056 1.524 . S
C2057 C2058 1.415 . S
C2058 H2034 0.950 . S
C2058 C2053 1.363 . S
C2058 C2057 1.415 . S
C2059 H2035 0.951 . S
C2059 C2060 1.366 . S
C2059 C2061 1.388 . S
C2060 C2059 1.366 . S
C2060 C2064 1.385 . S
C2061 H2036 0.951 . S
C2061 C2059 1.388 . S
C2061 C2062 1.366 . S
C2062 C2061 1.366 . S
C2062 C2063 1.414 . S
C2062 C2065 1.499 . S
C2063 H2037 0.950 . S
C2063 C2062 1.414 . S
C2063 C2064 1.374 . S
C2064 H2038 0.950 . S
C2064 C2060 1.385 . S
C2064 C2063 1.374 . S
C2065 C2062 1.499 . S
C2065 C2066 1.373 . S
C2065 C2067 1.389 . S
C2066 H2039 0.950 . S
C2066 C2052 1.377 . S
C2066 C2065 1.373 . S
C2067 C2051 1.377 . S
C2067 C2065 1.389 . S
C2067 C2068 1.524 . S
C2068 C2067 1.524 . S
C2068 C2069 1.397 . S
C2068 C2073 1.363 . S
C2069 H2040 0.950 . S
C2069 C2068 1.397 . S
C2069 C2070 1.334 . S
C2070 H2041 0.950 . S
C2070 C2069 1.334 . S
C2070 C2071 1.287 . S
C2071 C2070 1.287 . S
C2071 C2072 1.524 . S
C2071 H2074 0.999 . S
C2072 H2042 0.950 . S
C2072 C2071 1.524 . S
C2072 C2073 1.415 . S
C2073 H2043 0.950 . S
C2073 C2068 1.363 . S
C2073 C2072 1.415 . S
H2074 C2071 0.999 . S
H2075 C2056 0.913 . S
H2076 C2094 0.951 . S
H2077 C2096 0.951 . S
H2078 C2098 0.950 . S
H2079 C2099 0.950 . S
H2080 C2101 0.950 . S
H2081 C2104 0.950 . S
H2082 C2105 0.950 . S
H2083 C2107 0.950 . S
H2084 C2108 0.950 . S
H2085 C2109 0.951 . S
H2086 C2111 0.951 . S
H2087 C2113 0.950 . S
H2088 C2114 0.950 . S
H2089 C2116 0.950 . S
H2090 C2119 0.950 . S
H2091 C2120 0.950 . S
H2092 C2122 0.950 . S
H2093 C2123 0.950 . S
C2094 H2076 0.951 . S
C2094 C2095 1.366 . S
C2094 C2096 1.388 . S
C2095 C2094 1.366 . S
C2095 C2099 1.385 . S
C2096 H2077 0.951 . S
C2096 C2094 1.388 . S
C2096 C2097 1.366 . S
C2097 C2096 1.366 . S
C2097 C2098 1.414 . S
C2097 C2100 1.499 . S
C2098 H2078 0.950 . S
C2098 C2097 1.414 . S
C2098 C2099 1.374 . S
C2099 H2079 0.950 . S
C2099 C2095 1.385 . S
C2099 C2098 1.374 . S
C2100 C2097 1.499 . S
C2100 C2101 1.373 . S
C2100 C2102 1.389 . S
C2101 H2080 0.950 . S
C2101 C2100 1.373 . S
C2101 C2117 1.377 . S
C2102 C2100 1.389 . S
C2102 C2103 1.524 . S
C2102 C2116 1.377 . S
C2103 C2102 1.524 . S
C2103 C2104 1.397 . S
C2103 C2108 1.363 . S
C2104 H2081 0.950 . S
C2104 C2103 1.397 . S
C2104 C2105 1.334 . S
C2105 H2082 0.950 . S
C2105 C2104 1.334 . S
C2105 C2106 1.287 . S
C2106 C2105 1.287 . S
C2106 C2107 1.524 . S
C2106 H2125 0.913 . S
C2107 H2083 0.950 . S
C2107 C2106 1.524 . S
C2107 C2108 1.415 . S
C2108 H2084 0.950 . S
C2108 C2103 1.363 . S
C2108 C2107 1.415 . S
C2109 H2085 0.951 . S
C2109 C2110 1.366 . S
C2109 C2111 1.388 . S
C2110 C2109 1.366 . S
C2110 C2114 1.385 . S
C2111 H2086 0.951 . S
C2111 C2109 1.388 . S
C2111 C2112 1.366 . S
C2112 C2111 1.366 . S
C2112 C2113 1.414 . S
C2112 C2115 1.499 . S
C2113 H2087 0.950 . S
C2113 C2112 1.414 . S
C2113 C2114 1.374 . S
C2114 H2088 0.950 . S
C2114 C2110 1.385 . S
C2114 C2113 1.374 . S
C2115 C2112 1.499 . S
C2115 C2116 1.373 . S
C2115 C2117 1.389 . S
C2116 H2089 0.950 . S
C2116 C2102 1.377 . S
C2116 C2115 1.373 . S
C2117 C2101 1.377 . S
C2117 C2115 1.389 . S
C2117 C2118 1.524 . S
C2118 C2117 1.524 . S
C2118 C2119 1.397 . S
C2118 C2123 1.363 . S
C2119 H2090 0.950 . S
C2119 C2118 1.397 . S
C2119 C2120 1.334 . S
C2120 H2091 0.950 . S
C2120 C2119 1.334 . S
C2120 C2121 1.287 . S
C2121 C2120 1.287 . S
C2121 C2122 1.524 . S
C2121 H2124 0.999 . S
C2122 H2092 0.950 . S
C2122 C2121 1.524 . S
C2122 C2123 1.415 . S
C2123 H2093 0.950 . S
C2123 C2118 1.363 . S
C2123 C2122 1.415 . S
H2124 C2121 0.999 . S
H2125 C2106 0.913 . S
H2126 C2144 0.951 . S
H2127 C2146 0.951 . S
H2128 C2148 0.950 . S
H2129 C2149 0.950 . S
H2130 C2151 0.950 . S
H2131 C2154 0.950 . S
H2132 C2155 0.950 . S
H2133 C2157 0.950 . S
H2134 C2158 0.950 . S
H2135 C2159 0.951 . S
H2136 C2161 0.951 . S
H2137 C2163 0.950 . S
H2138 C2164 0.950 . S
H2139 C2166 0.950 . S
H2140 C2169 0.950 . S
H2141 C2170 0.950 . S
H2142 C2172 0.950 . S
H2143 C2173 0.950 . S
C2144 H2126 0.951 . S
C2144 C2145 1.366 . S
C2144 C2146 1.388 . S
C2145 C2144 1.366 . S
C2145 C2149 1.385 . S
C2146 H2127 0.951 . S
C2146 C2144 1.388 . S
C2146 C2147 1.366 . S
C2147 C2146 1.366 . S
C2147 C2148 1.414 . S
C2147 C2150 1.499 . S
C2148 H2128 0.950 . S
C2148 C2147 1.414 . S
C2148 C2149 1.374 . S
C2149 H2129 0.950 . S
C2149 C2145 1.385 . S
C2149 C2148 1.374 . S
C2150 C2147 1.499 . S
C2150 C2151 1.373 . S
C2150 C2152 1.389 . S
C2151 H2130 0.950 . S
C2151 C2150 1.373 . S
C2151 C2167 1.377 . S
C2152 C2150 1.389 . S
C2152 C2153 1.524 . S
C2152 C2166 1.377 . S
C2153 C2152 1.524 . S
C2153 C2154 1.397 . S
C2153 C2158 1.363 . S
C2154 H2131 0.950 . S
C2154 C2153 1.397 . S
C2154 C2155 1.334 . S
C2155 H2132 0.950 . S
C2155 C2154 1.334 . S
C2155 C2156 1.287 . S
C2156 C2155 1.287 . S
C2156 C2157 1.524 . S
C2156 H2175 0.913 . S
C2157 H2133 0.950 . S
C2157 C2156 1.524 . S
C2157 C2158 1.415 . S
C2158 H2134 0.950 . S
C2158 C2153 1.363 . S
C2158 C2157 1.415 . S
C2159 H2135 0.951 . S
C2159 C2160 1.366 . S
C2159 C2161 1.388 . S
C2160 C2159 1.366 . S
C2160 C2164 1.385 . S
C2161 H2136 0.951 . S
C2161 C2159 1.388 . S
C2161 C2162 1.366 . S
C2162 C2161 1.366 . S
C2162 C2163 1.414 . S
C2162 C2165 1.499 . S
C2163 H2137 0.950 . S
C2163 C2162 1.414 . S
C2163 C2164 1.374 . S
C2164 H2138 0.950 . S
C2164 C2160 1.385 . S
C2164 C2163 1.374 . S
C2165 C2162 1.499 . S
C2165 C2166 1.373 . S
C2165 C2167 1.389 . S
C2166 H2139 0.950 . S
C2166 C2152 1.377 . S
C2166 C2165 1.373 . S
C2167 C2151 1.377 . S
C2167 C2165 1.389 . S
C2167 C2168 1.524 . S
C2168 C2167 1.524 . S
C2168 C2169 1.397 . S
C2168 C2173 1.363 . S
C2169 H2140 0.950 . S
C2169 C2168 1.397 . S
C2169 C2170 1.334 . S
C2170 H2141 0.950 . S
C2170 C2169 1.334 . S
C2170 C2171 1.287 . S
C2171 C2170 1.287 . S
C2171 C2172 1.524 . S
C2171 H2174 0.999 . S
C2172 H2142 0.950 . S
C2172 C2171 1.524 . S
C2172 C2173 1.415 . S
C2173 H2143 0.950 . S
C2173 C2168 1.363 . S
C2173 C2172 1.415 . S
H2174 C2171 0.999 . S
H2175 C2156 0.913 . S
H2176 C2194 0.951 . S
H2177 C2196 0.951 . S
H2178 C2198 0.950 . S
H2179 C2199 0.950 . S
H2180 C2201 0.950 . S
H2181 C2204 0.950 . S
H2182 C2205 0.950 . S
H2183 C2207 0.950 . S
H2184 C2208 0.950 . S
H2185 C2209 0.951 . S
H2186 C2211 0.951 . S
H2187 C2213 0.950 . S
H2188 C2214 0.950 . S
H2189 C2216 0.950 . S
H2190 C2219 0.950 . S
H2191 C2220 0.950 1_655 S
H2192 C2222 0.950 . S
H2193 C2223 0.950 . S
C2194 H2176 0.951 . S
C2194 C2195 1.366 . S
C2194 C2196 1.388 . S
C2195 C2194 1.366 . S
C2195 C2199 1.385 . S
C2196 H2177 0.951 . S
C2196 C2194 1.388 . S
C2196 C2197 1.366 . S
C2197 C2196 1.366 . S
C2197 C2198 1.414 . S
C2197 C2200 1.499 . S
C2198 H2178 0.950 . S
C2198 C2197 1.414 . S
C2198 C2199 1.374 . S
C2199 H2179 0.950 . S
C2199 C2195 1.385 . S
C2199 C2198 1.374 . S
C2200 C2197 1.499 . S
C2200 C2201 1.373 . S
C2200 C2202 1.389 . S
C2201 H2180 0.950 . S
C2201 C2200 1.373 . S
C2201 C2217 1.377 . S
C2202 C2200 1.389 . S
C2202 C2203 1.524 . S
C2202 C2216 1.377 . S
C2203 C2202 1.524 . S
C2203 C2204 1.397 . S
C2203 C2208 1.363 . S
C2204 H2181 0.950 . S
C2204 C2203 1.397 . S
C2204 C2205 1.334 . S
C2205 H2182 0.950 . S
C2205 C2204 1.334 . S
C2205 C2206 1.287 . S
C2206 C2205 1.287 . S
C2206 C2207 1.524 1_554 S
C2206 H2225 0.913 1_554 S
C2207 H2183 0.950 . S
C2207 C2206 1.524 1_556 S
C2207 C2208 1.415 1_556 S
C2208 H2184 0.950 . S
C2208 C2203 1.363 . S
C2208 C2207 1.415 1_554 S
C2209 H2185 0.951 . S
C2209 C2210 1.366 . S
C2209 C2211 1.388 . S
C2210 C2209 1.366 . S
C2210 C2214 1.385 . S
C2211 H2186 0.951 . S
C2211 C2209 1.388 . S
C2211 C2212 1.366 . S
C2212 C2211 1.366 . S
C2212 C2213 1.414 . S
C2212 C2215 1.499 . S
C2213 H2187 0.950 . S
C2213 C2212 1.414 . S
C2213 C2214 1.374 . S
C2214 H2188 0.950 . S
C2214 C2210 1.385 . S
C2214 C2213 1.374 . S
C2215 C2212 1.499 . S
C2215 C2216 1.373 . S
C2215 C2217 1.389 . S
C2216 H2189 0.950 . S
C2216 C2202 1.377 . S
C2216 C2215 1.373 . S
C2217 C2201 1.377 . S
C2217 C2215 1.389 . S
C2217 C2218 1.524 . S
C2218 C2217 1.524 . S
C2218 C2219 1.397 . S
C2218 C2223 1.363 . S
C2219 H2190 0.950 . S
C2219 C2218 1.397 . S
C2219 C2220 1.334 . S
C2220 H2191 0.950 1_455 S
C2220 C2219 1.334 . S
C2220 C2221 1.287 . S
C2221 C2220 1.287 . S
C2221 C2222 1.524 . S
C2221 H2224 0.999 . S
C2222 H2192 0.950 . S
C2222 C2221 1.524 . S
C2222 C2223 1.415 . S
C2223 H2193 0.950 . S
C2223 C2218 1.363 . S
C2223 C2222 1.415 . S
H2224 C2221 0.999 . S
H2225 C2206 0.913 1_556 S
H2226 C2244 0.951 . S
H2227 C2246 0.951 . S
H2228 C2248 0.950 . S
H2229 C2249 0.950 . S
H2230 C2251 0.950 . S
H2231 C2254 0.950 . S
H2232 C2255 0.950 . S
H2233 C2257 0.950 . S
H2234 C2258 0.950 . S
H2235 C2259 0.951 . S
H2236 C2261 0.951 . S
H2237 C2263 0.950 . S
H2238 C2264 0.950 . S
H2239 C2266 0.950 . S
H2240 C2269 0.950 . S
H2241 C2270 0.950 . S
H2242 C2272 0.950 . S
H2243 C2273 0.950 . S
C2244 H2226 0.951 . S
C2244 C2245 1.366 . S
C2244 C2246 1.388 . S
C2245 C2244 1.366 . S
C2245 C2249 1.385 . S
C2246 H2227 0.951 . S
C2246 C2244 1.388 . S
C2246 C2247 1.366 . S
C2247 C2246 1.366 . S
C2247 C2248 1.414 . S
C2247 C2250 1.499 . S
C2248 H2228 0.950 . S
C2248 C2247 1.414 . S
C2248 C2249 1.374 . S
C2249 H2229 0.950 . S
C2249 C2245 1.385 . S
C2249 C2248 1.374 . S
C2250 C2247 1.499 . S
C2250 C2251 1.373 . S
C2250 C2252 1.389 . S
C2251 H2230 0.950 . S
C2251 C2250 1.373 . S
C2251 C2267 1.377 . S
C2252 C2250 1.389 . S
C2252 C2253 1.524 . S
C2252 C2266 1.377 . S
C2253 C2252 1.524 . S
C2253 C2254 1.397 . S
C2253 C2258 1.363 . S
C2254 H2231 0.950 . S
C2254 C2253 1.397 . S
C2254 C2255 1.334 . S
C2255 H2232 0.950 . S
C2255 C2254 1.334 . S
C2255 C2256 1.287 . S
C2256 C2255 1.287 . S
C2256 C2257 1.524 . S
C2256 H2275 0.913 . S
C2257 H2233 0.950 . S
C2257 C2256 1.524 . S
C2257 C2258 1.415 . S
C2258 H2234 0.950 . S
C2258 C2253 1.363 . S
C2258 C2257 1.415 . S
C2259 H2235 0.951 . S
C2259 C2260 1.366 . S
C2259 C2261 1.388 . S
C2260 C2259 1.366 . S
C2260 C2264 1.385 . S
C2261 H2236 0.951 . S
C2261 C2259 1.388 . S
C2261 C2262 1.366 . S
C2262 C2261 1.366 . S
C2262 C2263 1.414 . S
C2262 C2265 1.499 . S
C2263 H2237 0.950 . S
C2263 C2262 1.414 . S
C2263 C2264 1.374 . S
C2264 H2238 0.950 . S
C2264 C2260 1.385 . S
C2264 C2263 1.374 . S
C2265 C2262 1.499 . S
C2265 C2266 1.373 . S
C2265 C2267 1.389 . S
C2266 H2239 0.950 . S
C2266 C2252 1.377 . S
C2266 C2265 1.373 . S
C2267 C2251 1.377 . S
C2267 C2265 1.389 . S
C2267 C2268 1.524 . S
C2268 C2267 1.524 . S
C2268 C2269 1.397 . S
C2268 C2273 1.363 . S
C2269 H2240 0.950 . S
C2269 C2268 1.397 . S
C2269 C2270 1.334 . S
C2270 H2241 0.950 . S
C2270 C2269 1.334 . S
C2270 C2271 1.287 . S
C2271 C2270 1.287 . S
C2271 C2272 1.524 . S
C2271 H2274 0.999 . S
C2272 H2242 0.950 . S
C2272 C2271 1.524 . S
C2272 C2273 1.415 . S
C2273 H2243 0.950 . S
C2273 C2268 1.363 . S
C2273 C2272 1.415 . S
H2274 C2271 0.999 . S
H2275 C2256 0.913 . S
H2276 C2294 0.951 . S
H2277 C2296 0.951 . S
H2278 C2298 0.950 . S
H2279 C2299 0.950 . S
H2280 C2301 0.950 . S
H2281 C2304 0.950 . S
H2282 C2305 0.950 . S
H2283 C2307 0.950 . S
H2284 C2308 0.950 . S
H2285 C2309 0.951 . S
H2286 C2311 0.951 . S
H2287 C2313 0.950 . S
H2288 C2314 0.950 . S
H2289 C2316 0.950 . S
H2290 C2319 0.950 . S
H2291 C2320 0.950 . S
H2292 C2322 0.950 . S
H2293 C2323 0.950 . S
C2294 H2276 0.951 . S
C2294 C2295 1.366 . S
C2294 C2296 1.388 . S
C2295 C2294 1.366 . S
C2295 C2299 1.385 . S
C2296 H2277 0.951 . S
C2296 C2294 1.388 . S
C2296 C2297 1.366 . S
C2297 C2296 1.366 . S
C2297 C2298 1.414 . S
C2297 C2300 1.499 . S
C2298 H2278 0.950 . S
C2298 C2297 1.414 . S
C2298 C2299 1.374 . S
C2299 H2279 0.950 . S
C2299 C2295 1.385 . S
C2299 C2298 1.374 . S
C2300 C2297 1.499 . S
C2300 C2301 1.373 . S
C2300 C2302 1.389 . S
C2301 H2280 0.950 . S
C2301 C2300 1.373 . S
C2301 C2317 1.377 . S
C2302 C2300 1.389 . S
C2302 C2303 1.524 . S
C2302 C2316 1.377 . S
C2303 C2302 1.524 . S
C2303 C2304 1.397 . S
C2303 C2308 1.363 . S
C2304 H2281 0.950 . S
C2304 C2303 1.397 . S
C2304 C2305 1.334 . S
C2305 H2282 0.950 . S
C2305 C2304 1.334 . S
C2305 C2306 1.287 . S
C2306 C2305 1.287 . S
C2306 C2307 1.524 . S
C2306 H2325 0.913 . S
C2307 H2283 0.950 . S
C2307 C2306 1.524 . S
C2307 C2308 1.415 . S
C2308 H2284 0.950 . S
C2308 C2303 1.363 . S
C2308 C2307 1.415 . S
C2309 H2285 0.951 . S
C2309 C2310 1.366 . S
C2309 C2311 1.388 . S
C2310 C2309 1.366 . S
C2310 C2314 1.385 . S
C2311 H2286 0.951 . S
C2311 C2309 1.388 . S
C2311 C2312 1.366 . S
C2312 C2311 1.366 . S
C2312 C2313 1.414 . S
C2312 C2315 1.499 . S
C2313 H2287 0.950 . S
C2313 C2312 1.414 . S
C2313 C2314 1.374 . S
C2314 H2288 0.950 . S
C2314 C2310 1.385 . S
C2314 C2313 1.374 . S
C2315 C2312 1.499 . S
C2315 C2316 1.373 . S
C2315 C2317 1.389 . S
C2316 H2289 0.950 . S
C2316 C2302 1.377 . S
C2316 C2315 1.373 . S
C2317 C2301 1.377 . S
C2317 C2315 1.389 . S
C2317 C2318 1.524 . S
C2318 C2317 1.524 . S
C2318 C2319 1.397 . S
C2318 C2323 1.363 . S
C2319 H2290 0.950 . S
C2319 C2318 1.397 . S
C2319 C2320 1.334 . S
C2320 H2291 0.950 . S
C2320 C2319 1.334 . S
C2320 C2321 1.287 . S
C2321 C2320 1.287 . S
C2321 C2322 1.524 . S
C2321 H2324 0.999 . S
C2322 H2292 0.950 . S
C2322 C2321 1.524 . S
C2322 C2323 1.415 . S
C2323 H2293 0.950 . S
C2323 C2318 1.363 . S
C2323 C2322 1.415 . S
H2324 C2321 0.999 . S
H2325 C2306 0.913 . S
H2326 C2344 0.951 . S
H2327 C2346 0.951 . S
H2328 C2348 0.950 . S
H2329 C2349 0.950 . S
H2330 C2351 0.950 . S
H2331 C2354 0.950 . S
H2332 C2355 0.950 . S
H2333 C2357 0.950 . S
H2334 C2358 0.950 . S
H2335 C2359 0.951 . S
H2336 C2361 0.951 . S
H2337 C2363 0.950 . S
H2338 C2364 0.950 . S
H2339 C2366 0.950 . S
H2340 C2369 0.950 . S
H2341 C2370 0.950 . S
H2342 C2372 0.950 . S
H2343 C2373 0.950 . S
C2344 H2326 0.951 . S
C2344 C2345 1.366 . S
C2344 C2346 1.388 . S
C2345 C2344 1.366 . S
C2345 C2349 1.385 . S
C2346 H2327 0.951 . S
C2346 C2344 1.388 . S
C2346 C2347 1.366 . S
C2347 C2346 1.366 . S
C2347 C2348 1.414 . S
C2347 C2350 1.499 . S
C2348 H2328 0.950 . S
C2348 C2347 1.414 . S
C2348 C2349 1.374 . S
C2349 H2329 0.950 . S
C2349 C2345 1.385 . S
C2349 C2348 1.374 . S
C2350 C2347 1.499 . S
C2350 C2351 1.373 . S
C2350 C2352 1.389 . S
C2351 H2330 0.950 . S
C2351 C2350 1.373 . S
C2351 C2367 1.377 . S
C2352 C2350 1.389 . S
C2352 C2353 1.524 . S
C2352 C2366 1.377 . S
C2353 C2352 1.524 . S
C2353 C2354 1.397 . S
C2353 C2358 1.363 . S
C2354 H2331 0.950 . S
C2354 C2353 1.397 . S
C2354 C2355 1.334 . S
C2355 H2332 0.950 . S
C2355 C2354 1.334 . S
C2355 C2356 1.287 . S
C2356 C2355 1.287 . S
C2356 C2357 1.524 . S
C2356 H2375 0.913 . S
C2357 H2333 0.950 . S
C2357 C2356 1.524 . S
C2357 C2358 1.415 . S
C2358 H2334 0.950 . S
C2358 C2353 1.363 . S
C2358 C2357 1.415 . S
C2359 H2335 0.951 . S
C2359 C2360 1.366 . S
C2359 C2361 1.388 . S
C2360 C2359 1.366 . S
C2360 C2364 1.385 . S
C2361 H2336 0.951 . S
C2361 C2359 1.388 . S
C2361 C2362 1.366 . S
C2362 C2361 1.366 . S
C2362 C2363 1.414 . S
C2362 C2365 1.499 . S
C2363 H2337 0.950 . S
C2363 C2362 1.414 . S
C2363 C2364 1.374 . S
C2364 H2338 0.950 . S
C2364 C2360 1.385 . S
C2364 C2363 1.374 . S
C2365 C2362 1.499 . S
C2365 C2366 1.373 . S
C2365 C2367 1.389 . S
C2366 H2339 0.950 . S
C2366 C2352 1.377 . S
C2366 C2365 1.373 . S
C2367 C2351 1.377 . S
C2367 C2365 1.389 . S
C2367 C2368 1.524 . S
C2368 C2367 1.524 . S
C2368 C2369 1.397 . S
C2368 C2373 1.363 . S
C2369 H2340 0.950 . S
C2369 C2368 1.397 . S
C2369 C2370 1.334 . S
C2370 H2341 0.950 . S
C2370 C2369 1.334 . S
C2370 C2371 1.287 . S
C2371 C2370 1.287 . S
C2371 C2372 1.524 . S
C2371 H2374 0.999 . S
C2372 H2342 0.950 . S
C2372 C2371 1.524 . S
C2372 C2373 1.415 . S
C2373 H2343 0.950 . S
C2373 C2368 1.363 . S
C2373 C2372 1.415 . S
H2374 C2371 0.999 . S
H2375 C2356 0.913 . S
H2376 C2394 0.951 . S
H2377 C2396 0.951 . S
H2378 C2398 0.950 . S
H2379 C2399 0.950 . S
H2380 C2401 0.950 . S
H2381 C2404 0.950 . S
H2382 C2405 0.950 . S
H2383 C2407 0.950 . S
H2384 C2408 0.950 . S
H2385 C2409 0.951 . S
H2386 C2411 0.951 . S
H2387 C2413 0.968 . S
H2388 C2414 0.950 . S
H2389 C2416 0.950 . S
H2390 C2419 0.950 . S
H2391 C2420 0.950 . S
H2392 C2422 0.950 . S
H2393 C2423 0.950 . S
C2394 H2376 0.951 . S
C2394 C2395 1.366 . S
C2394 C2396 1.388 . S
C2395 C2394 1.366 . S
C2395 C2399 1.385 . S
C2396 H2377 0.951 . S
C2396 C2394 1.388 . S
C2396 C2397 1.366 . S
C2397 C2396 1.366 . S
C2397 C2398 1.414 . S
C2397 C2400 1.499 . S
C2398 H2378 0.950 . S
C2398 C2397 1.414 . S
C2398 C2399 1.374 . S
C2399 H2379 0.950 . S
C2399 C2395 1.385 . S
C2399 C2398 1.374 . S
C2400 C2397 1.499 . S
C2400 C2401 1.373 . S
C2400 C2402 1.419 . S
C2401 H2380 0.950 . S
C2401 C2400 1.373 . S
C2401 C2417 1.377 . S
C2402 C2400 1.419 . S
C2402 C2403 1.490 1_455 S
C2402 C2416 1.380 1_455 S
C2403 C2402 1.490 1_655 S
C2403 C2404 1.397 . S
C2403 C2408 1.363 . S
C2404 H2381 0.950 . S
C2404 C2403 1.397 . S
C2404 C2405 1.334 . S
C2405 H2382 0.950 . S
C2405 C2404 1.334 . S
C2405 C2406 1.287 . S
C2406 C2405 1.287 . S
C2406 C2407 1.524 . S
C2406 H2425 0.913 . S
C2407 H2383 0.950 . S
C2407 C2406 1.524 . S
C2407 C2408 1.415 . S
C2408 H2384 0.950 . S
C2408 C2403 1.363 . S
C2408 C2407 1.415 . S
C2409 H2385 0.951 . S
C2409 C2410 1.366 . S
C2409 C2411 1.388 . S
C2410 C2409 1.366 . S
C2410 C2414 1.385 1_455 S
C2411 H2386 0.951 . S
C2411 C2409 1.388 . S
C2411 C2412 1.366 . S
C2412 C2411 1.366 . S
C2412 C2413 1.399 1_455 S
C2412 C2415 1.499 . S
C2413 H2387 0.968 . S
C2413 C2412 1.399 1_655 S
C2413 C2414 1.373 . S
C2414 H2388 0.950 . S
C2414 C2410 1.385 1_655 S
C2414 C2413 1.373 . S
C2415 C2412 1.499 . S
C2415 C2416 1.373 1_455 S
C2415 C2417 1.389 . S
C2416 H2389 0.950 . S
C2416 C2402 1.380 1_655 S
C2416 C2415 1.373 1_655 S
C2417 C2401 1.377 . S
C2417 C2415 1.389 . S
C2417 C2418 1.524 . S
C2418 C2417 1.524 . S
C2418 C2419 1.397 . S
C2418 C2423 1.363 . S
C2419 H2390 0.950 . S
C2419 C2418 1.397 . S
C2419 C2420 1.334 . S
C2420 H2391 0.950 . S
C2420 C2419 1.334 . S
C2420 C2421 1.287 . S
C2421 C2420 1.287 . S
C2421 C2422 1.524 . S
C2421 H2424 0.999 . S
C2422 H2392 0.950 . S
C2422 C2421 1.524 . S
C2422 C2423 1.415 . S
C2423 H2393 0.950 . S
C2423 C2418 1.363 . S
C2423 C2422 1.415 . S
H2424 C2421 0.999 . S
H2425 C2406 0.913 . S
H2426 C2444 0.951 . S
H2427 C2446 0.951 . S
H2428 C2448 0.950 . S
H2429 C2449 0.950 . S
H2430 C2451 0.950 . S
H2431 C2454 0.950 . S
H2432 C2455 0.950 . S
H2433 C2457 0.950 . S
H2434 C2458 0.950 . S
H2435 C2459 0.951 . S
H2436 C2461 0.951 . S
H2437 C2463 0.950 . S
H2438 C2464 0.950 . S
H2439 C2466 0.950 . S
H2440 C2469 0.950 . S
H2441 C2470 0.950 . S
H2442 C2472 0.950 . S
H2443 C2473 0.950 . S
C2444 H2426 0.951 . S
C2444 C2445 1.366 . S
C2444 C2446 1.388 . S
C2445 C2444 1.366 . S
C2445 C2449 1.385 . S
C2446 H2427 0.951 . S
C2446 C2444 1.388 . S
C2446 C2447 1.366 . S
C2447 C2446 1.366 . S
C2447 C2448 1.414 . S
C2447 C2450 1.499 . S
C2448 H2428 0.950 . S
C2448 C2447 1.414 . S
C2448 C2449 1.374 . S
C2449 H2429 0.950 . S
C2449 C2445 1.385 . S
C2449 C2448 1.374 . S
C2450 C2447 1.499 . S
C2450 C2451 1.373 . S
C2450 C2452 1.389 . S
C2451 H2430 0.950 . S
C2451 C2450 1.373 . S
C2451 C2467 1.377 . S
C2452 C2450 1.389 . S
C2452 C2453 1.524 . S
C2452 C2466 1.377 . S
C2453 C2452 1.524 . S
C2453 C2454 1.397 . S
C2453 C2458 1.363 . S
C2454 H2431 0.950 . S
C2454 C2453 1.397 . S
C2454 C2455 1.334 . S
C2455 H2432 0.950 . S
C2455 C2454 1.334 . S
C2455 C2456 1.287 . S
C2456 C2455 1.287 . S
C2456 C2457 1.524 . S
C2456 H2475 0.913 . S
C2457 H2433 0.950 . S
C2457 C2456 1.524 . S
C2457 C2458 1.415 . S
C2458 H2434 0.950 . S
C2458 C2453 1.363 . S
C2458 C2457 1.415 . S
C2459 H2435 0.951 . S
C2459 C2460 1.366 . S
C2459 C2461 1.388 . S
C2460 C2459 1.366 . S
C2460 C2464 1.385 . S
C2461 H2436 0.951 . S
C2461 C2459 1.388 . S
C2461 C2462 1.366 . S
C2462 C2461 1.366 . S
C2462 C2463 1.414 . S
C2462 C2465 1.499 . S
C2463 H2437 0.950 . S
C2463 C2462 1.414 . S
C2463 C2464 1.374 . S
C2464 H2438 0.950 . S
C2464 C2460 1.385 . S
C2464 C2463 1.374 . S
C2465 C2462 1.499 . S
C2465 C2466 1.373 . S
C2465 C2467 1.389 . S
C2466 H2439 0.950 . S
C2466 C2452 1.377 . S
C2466 C2465 1.373 . S
C2467 C2451 1.377 . S
C2467 C2465 1.389 . S
C2467 C2468 1.524 . S
C2468 C2467 1.524 . S
C2468 C2469 1.397 . S
C2468 C2473 1.363 . S
C2469 H2440 0.950 . S
C2469 C2468 1.397 . S
C2469 C2470 1.334 . S
C2470 H2441 0.950 . S
C2470 C2469 1.334 . S
C2470 C2471 1.287 . S
C2471 C2470 1.287 . S
C2471 C2472 1.524 . S
C2471 H2474 0.999 . S
C2472 H2442 0.950 . S
C2472 C2471 1.524 . S
C2472 C2473 1.415 . S
C2473 H2443 0.950 . S
C2473 C2468 1.363 . S
C2473 C2472 1.415 . S
H2474 C2471 0.999 . S
H2475 C2456 0.913 . S
H2476 C2494 0.951 . S
H2477 C2496 0.951 . S
H2478 C2498 0.950 . S
H2479 C2499 0.950 . S
H2480 C2501 0.950 . S
H2481 C2504 0.950 . S
H2482 C2505 0.950 . S
H2483 C2507 0.950 . S
H2484 C2508 0.950 . S
H2485 C2509 0.951 . S
H2486 C2511 0.951 . S
H2487 C2513 0.950 . S
H2488 C2514 0.985 . S
H2489 C2516 0.950 . S
H2490 C2519 0.950 . S
H2491 C2520 0.950 . S
H2492 C2522 0.950 . S
H2493 C2523 0.950 . S
C2494 H2476 0.951 . S
C2494 C2495 1.366 . S
C2494 C2496 1.388 . S
C2495 C2494 1.366 . S
C2495 C2499 1.385 . S
C2496 H2477 0.951 . S
C2496 C2494 1.388 . S
C2496 C2497 1.366 . S
C2497 C2496 1.366 . S
C2497 C2498 1.414 . S
C2497 C2500 1.499 . S
C2498 H2478 0.950 . S
C2498 C2497 1.414 . S
C2498 C2499 1.374 . S
C2499 H2479 0.950 . S
C2499 C2495 1.385 . S
C2499 C2498 1.374 . S
C2500 C2497 1.499 . S
C2500 C2501 1.373 . S
C2500 C2502 1.389 . S
C2501 H2480 0.950 . S
C2501 C2500 1.373 . S
C2501 C2517 1.377 . S
C2502 C2500 1.389 . S
C2502 C2503 1.524 . S
C2502 C2516 1.377 . S
C2503 C2502 1.524 . S
C2503 C2504 1.397 . S
C2503 C2508 1.363 . S
C2504 H2481 0.950 . S
C2504 C2503 1.397 . S
C2504 C2505 1.334 . S
C2505 H2482 0.950 . S
C2505 C2504 1.334 . S
C2505 C2506 1.287 . S
C2506 C2505 1.287 . S
C2506 C2507 1.524 . S
C2506 H2525 0.913 . S
C2507 H2483 0.950 . S
C2507 C2506 1.524 . S
C2507 C2508 1.415 . S
C2508 H2484 0.950 . S
C2508 C2503 1.363 . S
C2508 C2507 1.415 . S
C2509 H2485 0.951 . S
C2509 C2510 1.366 . S
C2509 C2511 1.388 . S
C2510 C2509 1.366 . S
C2510 C2514 1.370 1_556 S
C2511 H2486 0.951 . S
C2511 C2509 1.388 . S
C2511 C2512 1.366 . S
C2512 C2511 1.366 . S
C2512 C2513 1.414 . S
C2512 C2515 1.499 . S
C2513 H2487 0.950 . S
C2513 C2512 1.414 . S
C2513 C2514 1.354 1_556 S
C2514 H2488 0.985 . S
C2514 C2510 1.370 1_554 S
C2514 C2513 1.354 1_554 S
C2515 C2512 1.499 . S
C2515 C2516 1.373 . S
C2515 C2517 1.389 . S
C2516 H2489 0.950 . S
C2516 C2502 1.377 . S
C2516 C2515 1.373 . S
C2517 C2501 1.377 . S
C2517 C2515 1.389 . S
C2517 C2518 1.524 . S
C2518 C2517 1.524 . S
C2518 C2519 1.397 . S
C2518 C2523 1.363 . S
C2519 H2490 0.950 . S
C2519 C2518 1.397 . S
C2519 C2520 1.334 . S
C2520 H2491 0.950 . S
C2520 C2519 1.334 . S
C2520 C2521 1.287 . S
C2521 C2520 1.287 . S
C2521 C2522 1.524 . S
C2521 H2524 0.999 . S
C2522 H2492 0.950 . S
C2522 C2521 1.524 . S
C2522 C2523 1.415 . S
C2523 H2493 0.950 . S
C2523 C2518 1.363 . S
C2523 C2522 1.415 . S
H2524 C2521 0.999 . S
H2525 C2506 0.913 . S
H2526 C2544 0.951 . S
H2527 C2546 0.951 . S
H2528 C2548 0.950 . S
H2529 C2549 0.950 . S
H2530 C2551 0.950 . S
H2531 C2554 0.950 . S
H2532 C2555 0.950 . S
H2533 C2557 0.950 . S
H2534 C2558 0.950 . S
H2535 C2559 0.951 . S
H2536 C2561 0.951 . S
H2537 C2563 0.950 . S
H2538 C2564 0.950 . S
H2539 C2566 0.950 . S
H2540 C2569 0.950 . S
H2541 C2570 0.950 . S
H2542 C2572 0.950 . S
H2543 C2573 0.950 . S
C2544 H2526 0.951 . S
C2544 C2545 1.366 . S
C2544 C2546 1.388 . S
C2545 C2544 1.366 . S
C2545 C2549 1.385 . S
C2546 H2527 0.951 . S
C2546 C2544 1.388 . S
C2546 C2547 1.366 . S
C2547 C2546 1.366 . S
C2547 C2548 1.414 . S
C2547 C2550 1.499 . S
C2548 H2528 0.950 . S
C2548 C2547 1.414 . S
C2548 C2549 1.374 . S
C2549 H2529 0.950 . S
C2549 C2545 1.385 . S
C2549 C2548 1.374 . S
C2550 C2547 1.499 . S
C2550 C2551 1.373 . S
C2550 C2552 1.389 . S
C2551 H2530 0.950 . S
C2551 C2550 1.373 . S
C2551 C2567 1.377 . S
C2552 C2550 1.389 . S
C2552 C2553 1.524 . S
C2552 C2566 1.377 . S
C2553 C2552 1.524 . S
C2553 C2554 1.397 . S
C2553 C2558 1.363 . S
C2554 H2531 0.950 . S
C2554 C2553 1.397 . S
C2554 C2555 1.334 . S
C2555 H2532 0.950 . S
C2555 C2554 1.334 . S
C2555 C2556 1.287 . S
C2556 C2555 1.287 . S
C2556 C2557 1.524 . S
C2556 H2575 0.913 . S
C2557 H2533 0.950 . S
C2557 C2556 1.524 . S
C2557 C2558 1.415 . S
C2558 H2534 0.950 . S
C2558 C2553 1.363 . S
C2558 C2557 1.415 . S
C2559 H2535 0.951 . S
C2559 C2560 1.366 . S
C2559 C2561 1.388 . S
C2560 C2559 1.366 . S
C2560 C2564 1.385 . S
C2561 H2536 0.951 . S
C2561 C2559 1.388 . S
C2561 C2562 1.366 . S
C2562 C2561 1.366 . S
C2562 C2563 1.414 . S
C2562 C2565 1.499 . S
C2563 H2537 0.950 . S
C2563 C2562 1.414 . S
C2563 C2564 1.374 . S
C2564 H2538 0.950 . S
C2564 C2560 1.385 . S
C2564 C2563 1.374 . S
C2565 C2562 1.499 . S
C2565 C2566 1.373 . S
C2565 C2567 1.389 . S
C2566 H2539 0.950 . S
C2566 C2552 1.377 . S
C2566 C2565 1.373 . S
C2567 C2551 1.377 . S
C2567 C2565 1.389 . S
C2567 C2568 1.524 . S
C2568 C2567 1.524 . S
C2568 C2569 1.397 . S
C2568 C2573 1.363 . S
C2569 H2540 0.950 . S
C2569 C2568 1.397 . S
C2569 C2570 1.334 . S
C2570 H2541 0.950 . S
C2570 C2569 1.334 . S
C2570 C2571 1.287 . S
C2571 C2570 1.287 . S
C2571 C2572 1.524 . S
C2571 H2574 0.999 . S
C2572 H2542 0.950 . S
C2572 C2571 1.524 . S
C2572 C2573 1.415 . S
C2573 H2543 0.950 . S
C2573 C2568 1.363 . S
C2573 C2572 1.415 . S
H2574 C2571 0.999 . S
H2575 C2556 0.913 . S
H2576 C2594 0.951 . S
H2577 C2596 0.951 . S
H2578 C2598 0.950 . S
H2579 C2599 0.950 . S
H2580 C2601 0.950 . S
H2581 C2604 0.950 1_545 S
H2582 C2605 0.950 . S
H2583 C2607 0.950 . S
H2584 C2608 0.950 . S
H2585 C2609 0.951 . S
H2586 C2611 0.951 . S
H2587 C2613 0.950 . S
H2588 C2614 0.950 . S
H2589 C2616 0.950 . S
H2590 C2619 0.950 . S
H2591 C2620 0.950 . S
H2592 C2622 0.950 . S
H2593 C2623 0.950 . S
C2594 H2576 0.951 . S
C2594 C2595 1.366 . S
C2594 C2596 1.388 . S
C2595 C2594 1.366 . S
C2595 C2599 1.385 . S
C2596 H2577 0.951 . S
C2596 C2594 1.388 . S
C2596 C2597 1.366 . S
C2597 C2596 1.366 . S
C2597 C2598 1.414 . S
C2597 C2600 1.499 . S
C2598 H2578 0.950 . S
C2598 C2597 1.414 . S
C2598 C2599 1.374 . S
C2599 H2579 0.950 . S
C2599 C2595 1.385 . S
C2599 C2598 1.374 . S
C2600 C2597 1.499 . S
C2600 C2601 1.373 . S
C2600 C2602 1.389 . S
C2601 H2580 0.950 . S
C2601 C2600 1.373 . S
C2601 C2617 1.377 . S
C2602 C2600 1.389 . S
C2602 C2603 1.524 1_545 S
C2602 C2616 1.377 . S
C2603 C2602 1.524 1_565 S
C2603 C2604 1.397 . S
C2603 C2608 1.363 . S
C2604 H2581 0.950 1_565 S
C2604 C2603 1.397 . S
C2604 C2605 1.334 . S
C2605 H2582 0.950 . S
C2605 C2604 1.334 . S
C2605 C2606 1.287 . S
C2606 C2605 1.287 . S
C2606 C2607 1.524 . S
C2606 H2625 0.913 . S
C2607 H2583 0.950 . S
C2607 C2606 1.524 . S
C2607 C2608 1.415 . S
C2608 H2584 0.950 . S
C2608 C2603 1.363 . S
C2608 C2607 1.415 . S
C2609 H2585 0.951 . S
C2609 C2610 1.366 . S
C2609 C2611 1.388 . S
C2610 C2609 1.366 . S
C2610 C2614 1.385 . S
C2611 H2586 0.951 . S
C2611 C2609 1.388 . S
C2611 C2612 1.366 . S
C2612 C2611 1.366 . S
C2612 C2613 1.414 . S
C2612 C2615 1.499 . S
C2613 H2587 0.950 . S
C2613 C2612 1.414 . S
C2613 C2614 1.374 . S
C2614 H2588 0.950 . S
C2614 C2610 1.385 . S
C2614 C2613 1.374 . S
C2615 C2612 1.499 . S
C2615 C2616 1.373 . S
C2615 C2617 1.389 . S
C2616 H2589 0.950 . S
C2616 C2602 1.377 . S
C2616 C2615 1.373 . S
C2617 C2601 1.377 . S
C2617 C2615 1.389 . S
C2617 C2618 1.524 . S
C2618 C2617 1.524 . S
C2618 C2619 1.397 . S
C2618 C2623 1.363 . S
C2619 H2590 0.950 . S
C2619 C2618 1.397 . S
C2619 C2620 1.334 . S
C2620 H2591 0.950 . S
C2620 C2619 1.334 . S
C2620 C2621 1.287 . S
C2621 C2620 1.287 . S
C2621 C2622 1.524 . S
C2621 H2624 0.999 . S
C2622 H2592 0.950 . S
C2622 C2621 1.524 . S
C2622 C2623 1.415 . S
C2623 H2593 0.950 . S
C2623 C2618 1.363 . S
C2623 C2622 1.415 . S
H2624 C2621 0.999 . S
H2625 C2606 0.913 . S
H2626 C2644 0.951 . S
H2627 C2646 0.951 . S
H2628 C2648 0.950 . S
H2629 C2649 0.950 . S
H2630 C2651 0.950 . S
H2631 C2654 0.950 . S
H2632 C2655 0.950 . S
H2633 C2657 0.950 . S
H2634 C2658 0.950 . S
H2635 C2659 0.951 . S
H2636 C2661 0.951 . S
H2637 C2663 0.950 . S
H2638 C2664 0.950 . S
H2639 C2666 0.950 . S
H2640 C2669 0.950 . S
H2641 C2670 0.950 . S
H2642 C2672 0.950 . S
H2643 C2673 0.950 . S
C2644 H2626 0.951 . S
C2644 C2645 1.366 . S
C2644 C2646 1.388 . S
C2645 C2644 1.366 . S
C2645 C2649 1.385 . S
C2646 H2627 0.951 . S
C2646 C2644 1.388 . S
C2646 C2647 1.366 . S
C2647 C2646 1.366 . S
C2647 C2648 1.414 . S
C2647 C2650 1.499 . S
C2648 H2628 0.950 . S
C2648 C2647 1.414 . S
C2648 C2649 1.374 . S
C2649 H2629 0.950 . S
C2649 C2645 1.385 . S
C2649 C2648 1.374 . S
C2650 C2647 1.499 . S
C2650 C2651 1.373 . S
C2650 C2652 1.389 . S
C2651 H2630 0.950 . S
C2651 C2650 1.373 . S
C2651 C2667 1.377 . S
C2652 C2650 1.389 . S
C2652 C2653 1.524 . S
C2652 C2666 1.377 . S
C2653 C2652 1.524 . S
C2653 C2654 1.397 . S
C2653 C2658 1.363 . S
C2654 H2631 0.950 . S
C2654 C2653 1.397 . S
C2654 C2655 1.334 . S
C2655 H2632 0.950 . S
C2655 C2654 1.334 . S
C2655 C2656 1.287 . S
C2656 C2655 1.287 . S
C2656 C2657 1.524 . S
C2656 H2675 0.913 . S
C2657 H2633 0.950 . S
C2657 C2656 1.524 . S
C2657 C2658 1.415 . S
C2658 H2634 0.950 . S
C2658 C2653 1.363 . S
C2658 C2657 1.415 . S
C2659 H2635 0.951 . S
C2659 C2660 1.366 . S
C2659 C2661 1.388 . S
C2660 C2659 1.366 . S
C2660 C2664 1.385 . S
C2661 H2636 0.951 . S
C2661 C2659 1.388 . S
C2661 C2662 1.366 . S
C2662 C2661 1.366 . S
C2662 C2663 1.414 . S
C2662 C2665 1.499 . S
C2663 H2637 0.950 . S
C2663 C2662 1.414 . S
C2663 C2664 1.374 . S
C2664 H2638 0.950 . S
C2664 C2660 1.385 . S
C2664 C2663 1.374 . S
C2665 C2662 1.499 . S
C2665 C2666 1.373 . S
C2665 C2667 1.389 . S
C2666 H2639 0.950 . S
C2666 C2652 1.377 . S
C2666 C2665 1.373 . S
C2667 C2651 1.377 . S
C2667 C2665 1.389 . S
C2667 C2668 1.524 . S
C2668 C2667 1.524 . S
C2668 C2669 1.397 . S
C2668 C2673 1.363 . S
C2669 H2640 0.950 . S
C2669 C2668 1.397 . S
C2669 C2670 1.334 . S
C2670 H2641 0.950 . S
C2670 C2669 1.334 . S
C2670 C2671 1.287 . S
C2671 C2670 1.287 . S
C2671 C2672 1.524 . S
C2671 H2674 0.999 . S
C2672 H2642 0.950 . S
C2672 C2671 1.524 . S
C2672 C2673 1.415 . S
C2673 H2643 0.950 . S
C2673 C2668 1.363 . S
C2673 C2672 1.415 . S
H2674 C2671 0.999 . S
H2675 C2656 0.913 . S
H2676 C2694 0.951 . S
H2677 C2696 0.951 . S
H2678 C2698 0.950 . S
H2679 C2699 0.950 . S
H2680 C2701 0.950 . S
H2681 C2704 0.950 . S
H2682 C2705 0.950 . S
H2683 C2707 0.950 . S
H2684 C2708 0.950 . S
H2685 C2709 0.951 . S
H2686 C2711 0.951 . S
H2687 C2713 0.952 . S
H2688 C2714 0.950 . S
H2689 C2716 0.950 . S
H2690 C2719 0.950 . S
H2691 C2720 0.950 . S
H2692 C2722 0.950 . S
H2693 C2723 0.950 . S
C2694 H2676 0.951 . S
C2694 C2695 1.366 1_565 S
C2694 C2696 1.388 . S
C2695 C2694 1.366 1_545 S
C2695 C2699 1.385 . S
C2696 H2677 0.951 . S
C2696 C2694 1.388 . S
C2696 C2697 1.366 1_565 S
C2697 C2696 1.366 1_545 S
C2697 C2698 1.414 . S
C2697 C2700 1.499 . S
C2698 H2678 0.950 . S
C2698 C2697 1.414 . S
C2698 C2699 1.374 . S
C2699 H2679 0.950 . S
C2699 C2695 1.385 . S
C2699 C2698 1.374 . S
C2700 C2697 1.499 . S
C2700 C2701 1.373 . S
C2700 C2702 1.389 . S
C2701 H2680 0.950 . S
C2701 C2700 1.373 . S
C2701 C2717 1.377 . S
C2702 C2700 1.389 . S
C2702 C2703 1.524 . S
C2702 C2716 1.377 . S
C2703 C2702 1.524 . S
C2703 C2704 1.397 . S
C2703 C2708 1.363 1_545 S
C2704 H2681 0.950 . S
C2704 C2703 1.397 . S
C2704 C2705 1.334 . S
C2705 H2682 0.950 . S
C2705 C2704 1.334 . S
C2705 C2706 1.287 . S
C2706 C2705 1.287 . S
C2706 C2707 1.524 1_545 S
C2706 H2725 0.913 . S
C2707 H2683 0.950 . S
C2707 C2706 1.524 1_565 S
C2707 C2708 1.415 . S
C2708 H2684 0.950 . S
C2708 C2703 1.363 1_565 S
C2708 C2707 1.415 . S
C2709 H2685 0.951 . S
C2709 C2710 1.366 . S
C2709 C2711 1.388 . S
C2710 C2709 1.366 . S
C2710 C2714 1.385 . S
C2711 H2686 0.951 . S
C2711 C2709 1.388 . S
C2711 C2712 1.366 . S
C2712 C2711 1.366 . S
C2712 C2713 1.414 . S
C2712 C2715 1.499 . S
C2713 H2687 0.952 . S
C2713 C2712 1.414 . S
C2713 C2714 1.374 . S
C2714 H2688 0.950 . S
C2714 C2710 1.385 . S
C2714 C2713 1.374 . S
C2715 C2712 1.499 . S
C2715 C2716 1.373 . S
C2715 C2717 1.389 . S
C2716 H2689 0.950 . S
C2716 C2702 1.377 . S
C2716 C2715 1.373 . S
C2717 C2701 1.377 . S
C2717 C2715 1.389 . S
C2717 C2718 1.524 . S
C2718 C2717 1.524 . S
C2718 C2719 1.397 . S
C2718 C2723 1.363 . S
C2719 H2690 0.950 . S
C2719 C2718 1.397 . S
C2719 C2720 1.334 . S
C2720 H2691 0.950 . S
C2720 C2719 1.334 . S
C2720 C2721 1.287 . S
C2721 C2720 1.287 . S
C2721 C2722 1.524 . S
C2721 H2724 0.999 . S
C2722 H2692 0.950 . S
C2722 C2721 1.524 . S
C2722 C2723 1.415 . S
C2723 H2693 0.950 . S
C2723 C2718 1.363 . S
C2723 C2722 1.415 . S
H2724 C2721 0.999 . S
H2725 C2706 0.913 . S
H2726 C2744 0.951 . S
H2727 C2746 0.951 . S
H2728 C2748 0.950 . S
H2729 C2749 0.950 . S
H2730 C2751 0.950 . S
H2731 C2754 0.950 . S
H2732 C2755 0.950 . S
H2733 C2757 0.950 . S
H2734 C2758 0.950 . S
H2735 C2759 0.951 . S
H2736 C2761 0.951 . S
H2737 C2763 0.950 . S
H2738 C2764 0.950 . S
H2739 C2766 0.950 . S
H2740 C2769 0.950 . S
H2741 C2770 0.950 . S
H2742 C2772 0.950 . S
H2743 C2773 0.950 . S
C2744 H2726 0.951 . S
C2744 C2745 1.366 . S
C2744 C2746 1.388 . S
C2745 C2744 1.366 . S
C2745 C2749 1.385 . S
C2746 H2727 0.951 . S
C2746 C2744 1.388 . S
C2746 C2747 1.366 . S
C2747 C2746 1.366 . S
C2747 C2748 1.414 . S
C2747 C2750 1.499 . S
C2748 H2728 0.950 . S
C2748 C2747 1.414 . S
C2748 C2749 1.374 . S
C2749 H2729 0.950 . S
C2749 C2745 1.385 . S
C2749 C2748 1.374 . S
C2750 C2747 1.499 . S
C2750 C2751 1.373 . S
C2750 C2752 1.389 . S
C2751 H2730 0.950 . S
C2751 C2750 1.373 . S
C2751 C2767 1.377 . S
C2752 C2750 1.389 . S
C2752 C2753 1.524 . S
C2752 C2766 1.377 . S
C2753 C2752 1.524 . S
C2753 C2754 1.397 . S
C2753 C2758 1.363 . S
C2754 H2731 0.950 . S
C2754 C2753 1.397 . S
C2754 C2755 1.334 . S
C2755 H2732 0.950 . S
C2755 C2754 1.334 . S
C2755 C2756 1.287 . S
C2756 C2755 1.287 . S
C2756 C2757 1.524 . S
C2756 H2775 0.913 . S
C2757 H2733 0.950 . S
C2757 C2756 1.524 . S
C2757 C2758 1.415 . S
C2758 H2734 0.950 . S
C2758 C2753 1.363 . S
C2758 C2757 1.415 . S
C2759 H2735 0.951 . S
C2759 C2760 1.366 . S
C2759 C2761 1.388 . S
C2760 C2759 1.366 . S
C2760 C2764 1.385 . S
C2761 H2736 0.951 . S
C2761 C2759 1.388 . S
C2761 C2762 1.366 . S
C2762 C2761 1.366 . S
C2762 C2763 1.414 . S
C2762 C2765 1.499 . S
C2763 H2737 0.950 . S
C2763 C2762 1.414 . S
C2763 C2764 1.374 . S
C2764 H2738 0.950 . S
C2764 C2760 1.385 . S
C2764 C2763 1.374 . S
C2765 C2762 1.499 . S
C2765 C2766 1.373 . S
C2765 C2767 1.389 . S
C2766 H2739 0.950 . S
C2766 C2752 1.377 . S
C2766 C2765 1.373 . S
C2767 C2751 1.377 . S
C2767 C2765 1.389 . S
C2767 C2768 1.524 . S
C2768 C2767 1.524 . S
C2768 C2769 1.397 . S
C2768 C2773 1.363 . S
C2769 H2740 0.950 . S
C2769 C2768 1.397 . S
C2769 C2770 1.334 . S
C2770 H2741 0.950 . S
C2770 C2769 1.334 . S
C2770 C2771 1.287 . S
C2771 C2770 1.287 . S
C2771 C2772 1.524 . S
C2771 H2774 0.999 . S
C2772 H2742 0.950 . S
C2772 C2771 1.524 . S
C2772 C2773 1.415 . S
C2773 H2743 0.950 . S
C2773 C2768 1.363 . S
C2773 C2772 1.415 . S
H2774 C2771 0.999 . S
H2775 C2756 0.913 . S
H2776 C2794 0.951 . S
H2777 C2796 0.951 . S
H2778 C2798 0.950 . S
H2779 C2799 0.950 . S
H2780 C2801 0.950 . S
H2781 C2804 0.950 . S
H2782 C2805 0.950 . S
H2783 C2807 0.950 . S
H2784 C2808 0.950 . S
H2785 C2809 0.951 . S
H2786 C2811 0.951 . S
H2787 C2813 0.950 . S
H2788 C2814 0.950 . S
H2789 C2816 0.950 . S
H2790 C2819 0.950 1_545 S
H2791 C2820 0.950 . S
H2792 C2822 0.950 . S
H2793 C2823 0.950 . S
C2794 H2776 0.951 . S
C2794 C2795 1.366 . S
C2794 C2796 1.388 . S
C2795 C2794 1.366 . S
C2795 C2799 1.385 . S
C2796 H2777 0.951 . S
C2796 C2794 1.388 . S
C2796 C2797 1.366 . S
C2797 C2796 1.366 . S
C2797 C2798 1.414 . S
C2797 C2800 1.499 . S
C2798 H2778 0.950 . S
C2798 C2797 1.414 . S
C2798 C2799 1.374 . S
C2799 H2779 0.950 . S
C2799 C2795 1.385 . S
C2799 C2798 1.374 . S
C2800 C2797 1.499 . S
C2800 C2801 1.373 . S
C2800 C2802 1.389 . S
C2801 H2780 0.950 . S
C2801 C2800 1.373 . S
C2801 C2817 1.377 . S
C2802 C2800 1.389 . S
C2802 C2803 1.524 . S
C2802 C2816 1.377 . S
C2803 C2802 1.524 . S
C2803 C2804 1.397 . S
C2803 C2808 1.363 . S
C2804 H2781 0.950 . S
C2804 C2803 1.397 . S
C2804 C2805 1.334 . S
C2805 H2782 0.950 . S
C2805 C2804 1.334 . S
C2805 C2806 1.287 . S
C2806 C2805 1.287 . S
C2806 C2807 1.524 . S
C2806 H2825 0.913 . S
C2807 H2783 0.950 . S
C2807 C2806 1.524 . S
C2807 C2808 1.415 . S
C2808 H2784 0.950 . S
C2808 C2803 1.363 . S
C2808 C2807 1.415 . S
C2809 H2785 0.951 . S
C2809 C2810 1.366 . S
C2809 C2811 1.388 . S
C2810 C2809 1.366 . S
C2810 C2814 1.385 . S
C2811 H2786 0.951 . S
C2811 C2809 1.388 . S
C2811 C2812 1.366 . S
C2812 C2811 1.366 . S
C2812 C2813 1.414 . S
C2812 C2815 1.499 . S
C2813 H2787 0.950 . S
C2813 C2812 1.414 . S
C2813 C2814 1.374 . S
C2814 H2788 0.950 . S
C2814 C2810 1.385 . S
C2814 C2813 1.374 . S
C2815 C2812 1.499 . S
C2815 C2816 1.373 . S
C2815 C2817 1.389 . S
C2816 H2789 0.950 . S
C2816 C2802 1.377 . S
C2816 C2815 1.373 . S
C2817 C2801 1.377 . S
C2817 C2815 1.389 . S
C2817 C2818 1.524 1_545 S
C2818 C2817 1.524 1_565 S
C2818 C2819 1.397 . S
C2818 C2823 1.363 . S
C2819 H2790 0.950 1_565 S
C2819 C2818 1.397 . S
C2819 C2820 1.334 . S
C2820 H2791 0.950 . S
C2820 C2819 1.334 . S
C2820 C2821 1.287 . S
C2821 C2820 1.287 . S
C2821 C2822 1.524 . S
C2821 H2824 0.999 . S
C2822 H2792 0.950 . S
C2822 C2821 1.524 . S
C2822 C2823 1.415 . S
C2823 H2793 0.950 . S
C2823 C2818 1.363 . S
C2823 C2822 1.415 . S
H2824 C2821 0.999 . S
H2825 C2806 0.913 . S
H2826 C2844 0.951 . S
H2827 C2846 0.951 . S
H2828 C2848 0.950 . S
H2829 C2849 0.950 . S
H2830 C2851 0.950 . S
H2831 C2854 0.950 . S
H2832 C2855 0.950 . S
H2833 C2857 0.950 . S
H2834 C2858 0.950 . S
H2835 C2859 0.951 . S
H2836 C2861 0.951 . S
H2837 C2863 0.950 . S
H2838 C2864 0.950 . S
H2839 C2866 0.950 . S
H2840 C2869 0.950 . S
H2841 C2870 0.950 . S
H2842 C2872 0.950 . S
H2843 C2873 0.950 . S
C2844 H2826 0.951 . S
C2844 C2845 1.366 . S
C2844 C2846 1.388 . S
C2845 C2844 1.366 . S
C2845 C2849 1.385 . S
C2846 H2827 0.951 . S
C2846 C2844 1.388 . S
C2846 C2847 1.366 . S
C2847 C2846 1.366 . S
C2847 C2848 1.414 . S
C2847 C2850 1.499 . S
C2848 H2828 0.950 . S
C2848 C2847 1.414 . S
C2848 C2849 1.374 . S
C2849 H2829 0.950 . S
C2849 C2845 1.385 . S
C2849 C2848 1.374 . S
C2850 C2847 1.499 . S
C2850 C2851 1.373 . S
C2850 C2852 1.389 . S
C2851 H2830 0.950 . S
C2851 C2850 1.373 . S
C2851 C2867 1.377 . S
C2852 C2850 1.389 . S
C2852 C2853 1.524 . S
C2852 C2866 1.377 . S
C2853 C2852 1.524 . S
C2853 C2854 1.397 . S
C2853 C2858 1.363 . S
C2854 H2831 0.950 . S
C2854 C2853 1.397 . S
C2854 C2855 1.334 . S
C2855 H2832 0.950 . S
C2855 C2854 1.334 . S
C2855 C2856 1.287 . S
C2856 C2855 1.287 . S
C2856 C2857 1.524 . S
C2856 H2875 0.913 . S
C2857 H2833 0.950 . S
C2857 C2856 1.524 . S
C2857 C2858 1.415 . S
C2858 H2834 0.950 . S
C2858 C2853 1.363 . S
C2858 C2857 1.415 . S
C2859 H2835 0.951 . S
C2859 C2860 1.366 . S
C2859 C2861 1.388 . S
C2860 C2859 1.366 . S
C2860 C2864 1.385 . S
C2861 H2836 0.951 . S
C2861 C2859 1.388 . S
C2861 C2862 1.366 . S
C2862 C2861 1.366 . S
C2862 C2863 1.414 . S
C2862 C2865 1.499 . S
C2863 H2837 0.950 . S
C2863 C2862 1.414 . S
C2863 C2864 1.374 . S
C2864 H2838 0.950 . S
C2864 C2860 1.385 . S
C2864 C2863 1.374 . S
C2865 C2862 1.499 . S
C2865 C2866 1.373 . S
C2865 C2867 1.389 . S
C2866 H2839 0.950 . S
C2866 C2852 1.377 . S
C2866 C2865 1.373 . S
C2867 C2851 1.377 . S
C2867 C2865 1.389 . S
C2867 C2868 1.524 . S
C2868 C2867 1.524 . S
C2868 C2869 1.397 . S
C2868 C2873 1.363 . S
C2869 H2840 0.950 . S
C2869 C2868 1.397 . S
C2869 C2870 1.334 . S
C2870 H2841 0.950 . S
C2870 C2869 1.334 . S
C2870 C2871 1.287 . S
C2871 C2870 1.287 . S
C2871 C2872 1.524 . S
C2871 H2874 0.999 . S
C2872 H2842 0.950 . S
C2872 C2871 1.524 . S
C2872 C2873 1.415 . S
C2873 H2843 0.950 . S
C2873 C2868 1.363 . S
C2873 C2872 1.415 . S
H2874 C2871 0.999 . S
H2875 C2856 0.913 . S
H2876 C2894 0.951 . S
H2877 C2896 0.951 . S
H2878 C2898 0.950 . S
H2879 C2899 0.950 . S
H2880 C2901 0.950 . S
H2881 C2904 0.950 . S
H2882 C2905 0.950 . S
H2883 C2907 0.950 . S
H2884 C2908 0.950 . S
H2885 C2909 0.951 . S
H2886 C2911 0.951 . S
H2887 C2913 0.950 . S
H2888 C2914 0.950 . S
H2889 C2916 0.950 . S
H2890 C2919 0.950 . S
H2891 C2920 0.950 . S
H2892 C2922 0.950 . S
H2893 C2923 0.950 . S
C2894 H2876 0.951 . S
C2894 C2895 1.366 . S
C2894 C2896 1.388 . S
C2895 C2894 1.366 . S
C2895 C2899 1.385 1_545 S
C2896 H2877 0.951 . S
C2896 C2894 1.388 . S
C2896 C2897 1.401 . S
C2897 C2896 1.401 . S
C2897 C2898 1.383 1_545 S
C2897 C2900 1.490 1_545 S
C2898 H2878 0.950 . S
C2898 C2897 1.383 1_565 S
C2898 C2899 1.374 . S
C2899 H2879 0.950 . S
C2899 C2895 1.385 1_565 S
C2899 C2898 1.374 . S
C2900 C2897 1.490 1_565 S
C2900 C2901 1.425 . S
C2900 C2902 1.345 1_565 S
C2901 H2880 0.950 . S
C2901 C2900 1.425 . S
C2901 C2917 1.377 . S
C2902 C2900 1.345 1_545 S
C2902 C2903 1.524 . S
C2902 C2916 1.377 . S
C2903 C2902 1.524 . S
C2903 C2904 1.397 . S
C2903 C2908 1.363 . S
C2904 H2881 0.950 . S
C2904 C2903 1.397 . S
C2904 C2905 1.334 . S
C2905 H2882 0.950 . S
C2905 C2904 1.334 . S
C2905 C2906 1.287 . S
C2906 C2905 1.287 . S
C2906 C2907 1.524 . S
C2906 H2925 0.913 . S
C2907 H2883 0.950 . S
C2907 C2906 1.524 . S
C2907 C2908 1.415 . S
C2908 H2884 0.950 . S
C2908 C2903 1.363 . S
C2908 C2907 1.415 . S
C2909 H2885 0.951 . S
C2909 C2910 1.366 . S
C2909 C2911 1.388 . S
C2910 C2909 1.366 . S
C2910 C2914 1.385 1_565 S
C2911 H2886 0.951 . S
C2911 C2909 1.388 . S
C2911 C2912 1.366 . S
C2912 C2911 1.366 . S
C2912 C2913 1.414 1_565 S
C2912 C2915 1.499 . S
C2913 H2887 0.950 . S
C2913 C2912 1.414 1_545 S
C2913 C2914 1.374 . S
C2914 H2888 0.950 . S
C2914 C2910 1.385 1_545 S
C2914 C2913 1.374 . S
C2915 C2912 1.499 . S
C2915 C2916 1.373 1_565 S
C2915 C2917 1.389 . S
C2916 H2889 0.950 . S
C2916 C2902 1.377 . S
C2916 C2915 1.373 1_545 S
C2917 C2901 1.377 . S
C2917 C2915 1.389 . S
C2917 C2918 1.524 . S
C2918 C2917 1.524 . S
C2918 C2919 1.397 . S
C2918 C2923 1.363 . S
C2919 H2890 0.950 . S
C2919 C2918 1.397 . S
C2919 C2920 1.334 . S
C2920 H2891 0.950 . S
C2920 C2919 1.334 . S
C2920 C2921 1.287 . S
C2921 C2920 1.287 . S
C2921 C2922 1.524 . S
C2921 H2924 0.999 . S
C2922 H2892 0.950 . S
C2922 C2921 1.524 . S
C2922 C2923 1.415 . S
C2923 H2893 0.950 . S
C2923 C2918 1.363 . S
C2923 C2922 1.415 . S
H2924 C2921 0.999 . S
H2925 C2906 0.913 . S
H2926 C2944 0.951 . S
H2927 C2946 0.951 . S
H2928 C2948 0.950 . S
H2929 C2949 0.950 . S
H2930 C2951 0.950 . S
H2931 C2954 0.950 . S
H2932 C2955 0.950 . S
H2933 C2957 0.950 . S
H2934 C2958 0.950 . S
H2935 C2959 0.951 . S
H2936 C2961 0.951 . S
H2937 C2963 0.950 . S
H2938 C2964 0.950 . S
H2939 C2966 0.950 . S
H2940 C2969 0.950 . S
H2941 C2970 0.950 . S
H2942 C2972 0.950 . S
H2943 C2973 0.950 . S
C2944 H2926 0.951 . S
C2944 C2945 1.366 . S
C2944 C2946 1.388 . S
C2945 C2944 1.366 . S
C2945 C2949 1.385 . S
C2946 H2927 0.951 . S
C2946 C2944 1.388 . S
C2946 C2947 1.366 . S
C2947 C2946 1.366 . S
C2947 C2948 1.414 . S
C2947 C2950 1.499 . S
C2948 H2928 0.950 . S
C2948 C2947 1.414 . S
C2948 C2949 1.374 . S
C2949 H2929 0.950 . S
C2949 C2945 1.385 . S
C2949 C2948 1.374 . S
C2950 C2947 1.499 . S
C2950 C2951 1.373 . S
C2950 C2952 1.389 . S
C2951 H2930 0.950 . S
C2951 C2950 1.373 . S
C2951 C2967 1.377 . S
C2952 C2950 1.389 . S
C2952 C2953 1.524 . S
C2952 C2966 1.377 . S
C2953 C2952 1.524 . S
C2953 C2954 1.397 . S
C2953 C2958 1.363 . S
C2954 H2931 0.950 . S
C2954 C2953 1.397 . S
C2954 C2955 1.334 . S
C2955 H2932 0.950 . S
C2955 C2954 1.334 . S
C2955 C2956 1.287 . S
C2956 C2955 1.287 . S
C2956 C2957 1.524 . S
C2956 H2975 0.913 . S
C2957 H2933 0.950 . S
C2957 C2956 1.524 . S
C2957 C2958 1.415 . S
C2958 H2934 0.950 . S
C2958 C2953 1.363 . S
C2958 C2957 1.415 . S
C2959 H2935 0.951 . S
C2959 C2960 1.366 . S
C2959 C2961 1.388 . S
C2960 C2959 1.366 . S
C2960 C2964 1.385 . S
C2961 H2936 0.951 . S
C2961 C2959 1.388 . S
C2961 C2962 1.366 . S
C2962 C2961 1.366 . S
C2962 C2963 1.414 . S
C2962 C2965 1.499 . S
C2963 H2937 0.950 . S
C2963 C2962 1.414 . S
C2963 C2964 1.374 . S
C2964 H2938 0.950 . S
C2964 C2960 1.385 . S
C2964 C2963 1.374 . S
C2965 C2962 1.499 . S
C2965 C2966 1.373 . S
C2965 C2967 1.389 . S
C2966 H2939 0.950 . S
C2966 C2952 1.377 . S
C2966 C2965 1.373 . S
C2967 C2951 1.377 . S
C2967 C2965 1.389 . S
C2967 C2968 1.524 . S
C2968 C2967 1.524 . S
C2968 C2969 1.397 . S
C2968 C2973 1.363 . S
C2969 H2940 0.950 . S
C2969 C2968 1.397 . S
C2969 C2970 1.334 . S
C2970 H2941 0.950 . S
C2970 C2969 1.334 . S
C2970 C2971 1.287 . S
C2971 C2970 1.287 . S
C2971 C2972 1.524 . S
C2971 H2974 0.999 . S
C2972 H2942 0.950 . S
C2972 C2971 1.524 . S
C2972 C2973 1.415 . S
C2973 H2943 0.950 . S
C2973 C2968 1.363 . S
C2973 C2972 1.415 . S
H2974 C2971 0.999 . S
H2975 C2956 0.913 . S
H2976 C2994 0.951 . S
H2977 C2996 0.951 . S
H2978 C2998 0.950 . S
H2979 C2999 0.950 . S
H2980 C3001 0.950 . S
H2981 C3004 0.950 . S
H2982 C3005 0.950 . S
H2983 C3007 0.950 . S
H2984 C3008 0.950 1_554 S
H2985 C3009 0.951 . S
H2986 C3011 0.951 . S
H2987 C3013 0.950 . S
H2988 C3014 0.950 . S
H2989 C3016 0.950 . S
H2990 C3019 0.950 . S
H2991 C3020 0.950 . S
H2992 C3022 0.950 . S
H2993 C3023 0.950 . S
C2994 H2976 0.951 . S
C2994 C2995 1.366 . S
C2994 C2996 1.388 . S
C2995 C2994 1.366 . S
C2995 C2999 1.385 . S
C2996 H2977 0.951 . S
C2996 C2994 1.388 . S
C2996 C2997 1.366 . S
C2997 C2996 1.366 . S
C2997 C2998 1.414 . S
C2997 C3000 1.499 . S
C2998 H2978 0.950 . S
C2998 C2997 1.414 . S
C2998 C2999 1.374 . S
C2999 H2979 0.950 . S
C2999 C2995 1.385 . S
C2999 C2998 1.374 . S
C3000 C2997 1.499 . S
C3000 C3001 1.373 . S
C3000 C3002 1.389 . S
C3001 H2980 0.950 . S
C3001 C3000 1.373 . S
C3001 C3017 1.377 . S
C3002 C3000 1.389 . S
C3002 C3003 1.524 . S
C3002 C3016 1.377 . S
C3003 C3002 1.524 . S
C3003 C3004 1.397 1_554 S
C3003 C3008 1.363 1_554 S
C3004 H2981 0.950 . S
C3004 C3003 1.397 1_556 S
C3004 C3005 1.334 . S
C3005 H2982 0.950 . S
C3005 C3004 1.334 . S
C3005 C3006 1.287 . S
C3006 C3005 1.287 . S
C3006 C3007 1.524 . S
C3006 H3025 0.913 . S
C3007 H2983 0.950 . S
C3007 C3006 1.524 . S
C3007 C3008 1.415 . S
C3008 H2984 0.950 1_556 S
C3008 C3003 1.363 1_556 S
C3008 C3007 1.415 . S
C3009 H2985 0.951 . S
C3009 C3010 1.366 . S
C3009 C3011 1.388 . S
C3010 C3009 1.366 . S
C3010 C3014 1.385 . S
C3011 H2986 0.951 . S
C3011 C3009 1.388 . S
C3011 C3012 1.366 . S
C3012 C3011 1.366 . S
C3012 C3013 1.414 . S
C3012 C3015 1.499 . S
C3013 H2987 0.950 . S
C3013 C3012 1.414 . S
C3013 C3014 1.374 . S
C3014 H2988 0.950 . S
C3014 C3010 1.385 . S
C3014 C3013 1.374 . S
C3015 C3012 1.499 . S
C3015 C3016 1.373 . S
C3015 C3017 1.389 . S
C3016 H2989 0.950 . S
C3016 C3002 1.377 . S
C3016 C3015 1.373 . S
C3017 C3001 1.377 . S
C3017 C3015 1.389 . S
C3017 C3018 1.524 . S
C3018 C3017 1.524 . S
C3018 C3019 1.397 . S
C3018 C3023 1.363 . S
C3019 H2990 0.950 . S
C3019 C3018 1.397 . S
C3019 C3020 1.334 . S
C3020 H2991 0.950 . S
C3020 C3019 1.334 . S
C3020 C3021 1.287 . S
C3021 C3020 1.287 . S
C3021 C3022 1.524 . S
C3021 H3024 0.999 . S
C3022 H2992 0.950 . S
C3022 C3021 1.524 . S
C3022 C3023 1.415 . S
C3023 H2993 0.950 . S
C3023 C3018 1.363 . S
C3023 C3022 1.415 . S
H3024 C3021 0.999 . S
H3025 C3006 0.913 . S
H3026 C3044 0.951 . S
H3027 C3046 0.951 . S
H3028 C3048 0.950 . S
H3029 C3049 0.950 . S
H3030 C3051 0.950 . S
H3031 C3054 0.950 . S
H3032 C3055 0.950 . S
H3033 C3057 0.950 . S
H3034 C3058 0.950 1_554 S
H3035 C3059 0.951 . S
H3036 C3061 0.951 . S
H3037 C3063 0.950 . S
H3038 C3064 0.950 . S
H3039 C3066 0.950 . S
H3040 C3069 0.950 . S
H3041 C3070 0.950 . S
H3042 C3072 0.950 . S
H3043 C3073 0.950 . S
C3044 H3026 0.951 . S
C3044 C3045 1.366 . S
C3044 C3046 1.388 . S
C3045 C3044 1.366 . S
C3045 C3049 1.385 . S
C3046 H3027 0.951 . S
C3046 C3044 1.388 . S
C3046 C3047 1.366 . S
C3047 C3046 1.366 . S
C3047 C3048 1.414 . S
C3047 C3050 1.499 . S
C3048 H3028 0.950 . S
C3048 C3047 1.414 . S
C3048 C3049 1.374 . S
C3049 H3029 0.950 . S
C3049 C3045 1.385 . S
C3049 C3048 1.374 . S
C3050 C3047 1.499 . S
C3050 C3051 1.373 . S
C3050 C3052 1.389 . S
C3051 H3030 0.950 . S
C3051 C3050 1.373 . S
C3051 C3067 1.377 . S
C3052 C3050 1.389 . S
C3052 C3053 1.527 . S
C3052 C3066 1.377 . S
C3053 C3052 1.527 . S
C3053 C3054 1.395 1_554 S
C3053 C3058 1.362 1_554 S
C3054 H3031 0.950 . S
C3054 C3053 1.395 1_556 S
C3054 C3055 1.334 . S
C3055 H3032 0.950 . S
C3055 C3054 1.334 . S
C3055 C3056 1.287 . S
C3056 C3055 1.287 . S
C3056 C3057 1.524 . S
C3056 H3075 0.913 . S
C3057 H3033 0.950 . S
C3057 C3056 1.524 . S
C3057 C3058 1.415 . S
C3058 H3034 0.950 1_556 S
C3058 C3053 1.362 1_556 S
C3058 C3057 1.415 . S
C3059 H3035 0.951 . S
C3059 C3060 1.366 . S
C3059 C3061 1.388 . S
C3060 C3059 1.366 . S
C3060 C3064 1.385 . S
C3061 H3036 0.951 . S
C3061 C3059 1.388 . S
C3061 C3062 1.366 . S
C3062 C3061 1.366 . S
C3062 C3063 1.414 . S
C3062 C3065 1.499 . S
C3063 H3037 0.950 . S
C3063 C3062 1.414 . S
C3063 C3064 1.374 . S
C3064 H3038 0.950 . S
C3064 C3060 1.385 . S
C3064 C3063 1.374 . S
C3065 C3062 1.499 . S
C3065 C3066 1.373 . S
C3065 C3067 1.389 . S
C3066 H3039 0.950 . S
C3066 C3052 1.377 . S
C3066 C3065 1.373 . S
C3067 C3051 1.377 . S
C3067 C3065 1.389 . S
C3067 C3068 1.524 . S
C3068 C3067 1.524 . S
C3068 C3069 1.397 . S
C3068 C3073 1.363 . S
C3069 H3040 0.950 . S
C3069 C3068 1.397 . S
C3069 C3070 1.334 . S
C3070 H3041 0.950 . S
C3070 C3069 1.334 . S
C3070 C3071 1.287 . S
C3071 C3070 1.287 . S
C3071 C3072 1.524 . S
C3071 H3074 0.999 . S
C3072 H3042 0.950 . S
C3072 C3071 1.524 . S
C3072 C3073 1.415 . S
C3073 H3043 0.950 . S
C3073 C3068 1.363 . S
C3073 C3072 1.415 . S
H3074 C3071 0.999 . S
H3075 C3056 0.913 . S
H3076 C3094 0.951 . S
H3077 C3096 0.951 . S
H3078 C3098 0.950 . S
H3079 C3099 0.950 . S
H3080 C3101 0.950 . S
H3081 C3104 0.950 . S
H3082 C3105 0.950 . S
H3083 C3107 0.950 . S
H3084 C3108 0.950 . S
H3085 C3109 0.951 . S
H3086 C3111 0.951 . S
H3087 C3113 0.950 . S
H3088 C3114 0.950 . S
H3089 C3116 0.950 . S
H3090 C3119 0.950 . S
H3091 C3120 0.950 . S
H3092 C3122 0.950 . S
H3093 C3123 0.950 . S
C3094 H3076 0.951 . S
C3094 C3095 1.366 . S
C3094 C3096 1.388 . S
C3095 C3094 1.366 . S
C3095 C3099 1.385 . S
C3096 H3077 0.951 . S
C3096 C3094 1.388 . S
C3096 C3097 1.366 . S
C3097 C3096 1.366 . S
C3097 C3098 1.414 . S
C3097 C3100 1.499 . S
C3098 H3078 0.950 . S
C3098 C3097 1.414 . S
C3098 C3099 1.374 . S
C3099 H3079 0.950 . S
C3099 C3095 1.385 . S
C3099 C3098 1.374 . S
C3100 C3097 1.499 . S
C3100 C3101 1.373 . S
C3100 C3102 1.389 . S
C3101 H3080 0.950 . S
C3101 C3100 1.373 . S
C3101 C3117 1.377 . S
C3102 C3100 1.389 . S
C3102 C3103 1.524 . S
C3102 C3116 1.377 . S
C3103 C3102 1.524 . S
C3103 C3104 1.397 . S
C3103 C3108 1.363 . S
C3104 H3081 0.950 . S
C3104 C3103 1.397 . S
C3104 C3105 1.334 . S
C3105 H3082 0.950 . S
C3105 C3104 1.334 . S
C3105 C3106 1.287 . S
C3106 C3105 1.287 . S
C3106 C3107 1.524 . S
C3106 H3125 0.913 . S
C3107 H3083 0.950 . S
C3107 C3106 1.524 . S
C3107 C3108 1.415 . S
C3108 H3084 0.950 . S
C3108 C3103 1.363 . S
C3108 C3107 1.415 . S
C3109 H3085 0.951 . S
C3109 C3110 1.366 . S
C3109 C3111 1.388 . S
C3110 C3109 1.366 . S
C3110 C3114 1.385 . S
C3111 H3086 0.951 . S
C3111 C3109 1.388 . S
C3111 C3112 1.366 . S
C3112 C3111 1.366 . S
C3112 C3113 1.414 . S
C3112 C3115 1.499 . S
C3113 H3087 0.950 . S
C3113 C3112 1.414 . S
C3113 C3114 1.374 . S
C3114 H3088 0.950 . S
C3114 C3110 1.385 . S
C3114 C3113 1.374 . S
C3115 C3112 1.499 . S
C3115 C3116 1.373 . S
C3115 C3117 1.389 . S
C3116 H3089 0.950 . S
C3116 C3102 1.377 . S
C3116 C3115 1.373 . S
C3117 C3101 1.377 . S
C3117 C3115 1.389 . S
C3117 C3118 1.524 . S
C3118 C3117 1.524 . S
C3118 C3119 1.397 . S
C3118 C3123 1.363 . S
C3119 H3090 0.950 . S
C3119 C3118 1.397 . S
C3119 C3120 1.334 . S
C3120 H3091 0.950 . S
C3120 C3119 1.334 . S
C3120 C3121 1.287 . S
C3121 C3120 1.287 . S
C3121 C3122 1.524 . S
C3121 H3124 0.999 . S
C3122 H3092 0.950 . S
C3122 C3121 1.524 . S
C3122 C3123 1.415 . S
C3123 H3093 0.950 . S
C3123 C3118 1.363 . S
C3123 C3122 1.415 . S
H3124 C3121 0.999 . S
H3125 C3106 0.913 . S
H3126 C3144 0.951 . S
H3127 C3146 0.951 . S
H3128 C3148 0.950 . S
H3129 C3149 0.950 . S
H3130 C3151 0.950 . S
H3131 C3154 0.950 . S
H3132 C3155 0.950 . S
H3133 C3157 0.950 . S
H3134 C3158 0.950 . S
H3135 C3159 0.951 . S
H3136 C3161 0.951 . S
H3137 C3163 0.950 . S
H3138 C3164 0.950 . S
H3139 C3166 0.950 . S
H3140 C3169 0.950 . S
H3141 C3170 0.950 . S
H3142 C3172 0.950 . S
H3143 C3173 0.950 . S
C3144 H3126 0.951 . S
C3144 C3145 1.366 . S
C3144 C3146 1.388 . S
C3145 C3144 1.366 . S
C3145 C3149 1.385 . S
C3146 H3127 0.951 . S
C3146 C3144 1.388 . S
C3146 C3147 1.366 . S
C3147 C3146 1.366 . S
C3147 C3148 1.414 . S
C3147 C3150 1.499 . S
C3148 H3128 0.950 . S
C3148 C3147 1.414 . S
C3148 C3149 1.374 . S
C3149 H3129 0.950 . S
C3149 C3145 1.385 . S
C3149 C3148 1.374 . S
C3150 C3147 1.499 . S
C3150 C3151 1.373 . S
C3150 C3152 1.389 . S
C3151 H3130 0.950 . S
C3151 C3150 1.373 . S
C3151 C3167 1.377 . S
C3152 C3150 1.389 . S
C3152 C3153 1.524 . S
C3152 C3166 1.377 . S
C3153 C3152 1.524 . S
C3153 C3154 1.397 . S
C3153 C3158 1.363 . S
C3154 H3131 0.950 . S
C3154 C3153 1.397 . S
C3154 C3155 1.334 . S
C3155 H3132 0.950 . S
C3155 C3154 1.334 . S
C3155 C3156 1.287 . S
C3156 C3155 1.287 . S
C3156 C3157 1.524 . S
C3156 H3175 0.913 . S
C3157 H3133 0.950 . S
C3157 C3156 1.524 . S
C3157 C3158 1.415 . S
C3158 H3134 0.950 . S
C3158 C3153 1.363 . S
C3158 C3157 1.415 . S
C3159 H3135 0.951 . S
C3159 C3160 1.366 . S
C3159 C3161 1.388 . S
C3160 C3159 1.366 . S
C3160 C3164 1.385 . S
C3161 H3136 0.951 . S
C3161 C3159 1.388 . S
C3161 C3162 1.366 . S
C3162 C3161 1.366 . S
C3162 C3163 1.414 . S
C3162 C3165 1.499 . S
C3163 H3137 0.950 . S
C3163 C3162 1.414 . S
C3163 C3164 1.374 . S
C3164 H3138 0.950 . S
C3164 C3160 1.385 . S
C3164 C3163 1.374 . S
C3165 C3162 1.499 . S
C3165 C3166 1.373 . S
C3165 C3167 1.389 . S
C3166 H3139 0.950 . S
C3166 C3152 1.377 . S
C3166 C3165 1.373 . S
C3167 C3151 1.377 . S
C3167 C3165 1.389 . S
C3167 C3168 1.524 . S
C3168 C3167 1.524 . S
C3168 C3169 1.397 . S
C3168 C3173 1.363 . S
C3169 H3140 0.950 . S
C3169 C3168 1.397 . S
C3169 C3170 1.334 . S
C3170 H3141 0.950 . S
C3170 C3169 1.334 . S
C3170 C3171 1.287 . S
C3171 C3170 1.287 . S
C3171 C3172 1.524 . S
C3171 H3174 0.999 . S
C3172 H3142 0.950 . S
C3172 C3171 1.524 . S
C3172 C3173 1.415 . S
C3173 H3143 0.950 . S
C3173 C3168 1.363 . S
C3173 C3172 1.415 . S
H3174 C3171 0.999 . S
H3175 C3156 0.913 . S
H3176 C3194 0.951 . S
H3177 C3196 0.962 . S
H3178 C3198 0.950 . S
H3179 C3199 0.950 . S
H3180 C3201 0.950 . S
H3181 C3204 0.950 . S
H3182 C3205 0.950 . S
H3183 C3207 0.950 . S
H3184 C3208 0.950 . S
H3185 C3209 0.951 . S
H3186 C3211 0.951 . S
H3187 C3213 0.950 . S
H3188 C3214 0.950 . S
H3189 C3216 0.950 . S
H3190 C3219 0.950 . S
H3191 C3220 0.950 . S
H3192 C3222 0.950 . S
H3193 C3223 0.950 . S
C3194 H3176 0.951 . S
C3194 C3195 1.366 . S
C3194 C3196 1.401 . S
C3195 C3194 1.366 . S
C3195 C3199 1.385 1_545 S
C3196 H3177 0.962 . S
C3196 C3194 1.401 . S
C3196 C3197 1.355 1_545 S
C3197 C3196 1.355 1_565 S
C3197 C3198 1.414 . S
C3197 C3200 1.499 . S
C3198 H3178 0.950 . S
C3198 C3197 1.414 . S
C3198 C3199 1.374 . S
C3199 H3179 0.950 . S
C3199 C3195 1.385 1_565 S
C3199 C3198 1.374 . S
C3200 C3197 1.499 . S
C3200 C3201 1.373 . S
C3200 C3202 1.389 . S
C3201 H3180 0.950 . S
C3201 C3200 1.373 . S
C3201 C3217 1.377 . S
C3202 C3200 1.389 . S
C3202 C3203 1.524 . S
C3202 C3216 1.377 . S
C3203 C3202 1.524 . S
C3203 C3204 1.397 . S
C3203 C3208 1.363 . S
C3204 H3181 0.950 . S
C3204 C3203 1.397 . S
C3204 C3205 1.334 . S
C3205 H3182 0.950 . S
C3205 C3204 1.334 . S
C3205 C3206 1.287 . S
C3206 C3205 1.287 . S
C3206 C3207 1.524 . S
C3206 H3225 0.913 . S
C3207 H3183 0.950 . S
C3207 C3206 1.524 . S
C3207 C3208 1.415 . S
C3208 H3184 0.950 . S
C3208 C3203 1.363 . S
C3208 C3207 1.415 . S
C3209 H3185 0.951 . S
C3209 C3210 1.366 . S
C3209 C3211 1.388 . S
C3210 C3209 1.366 . S
C3210 C3214 1.385 . S
C3211 H3186 0.951 . S
C3211 C3209 1.388 . S
C3211 C3212 1.366 . S
C3212 C3211 1.366 . S
C3212 C3213 1.414 . S
C3212 C3215 1.499 . S
C3213 H3187 0.950 . S
C3213 C3212 1.414 . S
C3213 C3214 1.374 . S
C3214 H3188 0.950 . S
C3214 C3210 1.385 . S
C3214 C3213 1.374 . S
C3215 C3212 1.499 . S
C3215 C3216 1.373 . S
C3215 C3217 1.389 . S
C3216 H3189 0.950 . S
C3216 C3202 1.377 . S
C3216 C3215 1.373 . S
C3217 C3201 1.377 . S
C3217 C3215 1.389 . S
C3217 C3218 1.524 . S
C3218 C3217 1.524 . S
C3218 C3219 1.397 . S
C3218 C3223 1.363 . S
C3219 H3190 0.950 . S
C3219 C3218 1.397 . S
C3219 C3220 1.334 . S
C3220 H3191 0.950 . S
C3220 C3219 1.334 . S
C3220 C3221 1.287 . S
C3221 C3220 1.287 . S
C3221 C3222 1.524 . S
C3221 H3224 0.999 . S
C3222 H3192 0.950 . S
C3222 C3221 1.524 . S
C3222 C3223 1.415 . S
C3223 H3193 0.950 . S
C3223 C3218 1.363 . S
C3223 C3222 1.415 . S
H3224 C3221 0.999 . S
H3225 C3206 0.913 . S
H3226 C3244 0.951 . S
H3227 C3246 0.951 . S
H3228 C3248 0.950 . S
H3229 C3249 0.950 . S
H3230 C3251 0.950 . S
H3231 C3254 0.950 . S
H3232 C3255 0.950 . S
H3233 C3257 0.950 . S
H3234 C3258 0.950 . S
H3235 C3259 0.951 . S
H3236 C3261 0.951 . S
H3237 C3263 0.950 . S
H3238 C3264 0.950 . S
H3239 C3266 0.950 . S
H3240 C3269 0.950 . S
H3241 C3270 0.950 . S
H3242 C3272 0.950 1_545 S
H3243 C3273 0.950 . S
C3244 H3226 0.951 . S
C3244 C3245 1.366 . S
C3244 C3246 1.388 . S
C3245 C3244 1.366 . S
C3245 C3249 1.385 . S
C3246 H3227 0.951 . S
C3246 C3244 1.388 . S
C3246 C3247 1.366 . S
C3247 C3246 1.366 . S
C3247 C3248 1.414 . S
C3247 C3250 1.499 . S
C3248 H3228 0.950 . S
C3248 C3247 1.414 . S
C3248 C3249 1.374 . S
C3249 H3229 0.950 . S
C3249 C3245 1.385 . S
C3249 C3248 1.374 . S
C3250 C3247 1.499 . S
C3250 C3251 1.373 . S
C3250 C3252 1.389 . S
C3251 H3230 0.950 . S
C3251 C3250 1.373 . S
C3251 C3267 1.377 . S
C3252 C3250 1.389 . S
C3252 C3253 1.524 . S
C3252 C3266 1.377 . S
C3253 C3252 1.524 . S
C3253 C3254 1.397 . S
C3253 C3258 1.363 . S
C3254 H3231 0.950 . S
C3254 C3253 1.397 . S
C3254 C3255 1.334 . S
C3255 H3232 0.950 . S
C3255 C3254 1.334 . S
C3255 C3256 1.287 . S
C3256 C3255 1.287 . S
C3256 C3257 1.524 . S
C3256 H3275 0.913 . S
C3257 H3233 0.950 . S
C3257 C3256 1.524 . S
C3257 C3258 1.415 . S
C3258 H3234 0.950 . S
C3258 C3253 1.363 . S
C3258 C3257 1.415 . S
C3259 H3235 0.951 . S
C3259 C3260 1.366 . S
C3259 C3261 1.388 . S
C3260 C3259 1.366 . S
C3260 C3264 1.385 . S
C3261 H3236 0.951 . S
C3261 C3259 1.388 . S
C3261 C3262 1.366 . S
C3262 C3261 1.366 . S
C3262 C3263 1.414 . S
C3262 C3265 1.499 . S
C3263 H3237 0.950 . S
C3263 C3262 1.414 . S
C3263 C3264 1.374 . S
C3264 H3238 0.950 . S
C3264 C3260 1.385 . S
C3264 C3263 1.374 . S
C3265 C3262 1.499 . S
C3265 C3266 1.373 . S
C3265 C3267 1.389 . S
C3266 H3239 0.950 . S
C3266 C3252 1.377 . S
C3266 C3265 1.373 . S
C3267 C3251 1.377 . S
C3267 C3265 1.389 . S
C3267 C3268 1.524 . S
C3268 C3267 1.524 . S
C3268 C3269 1.397 . S
C3268 C3273 1.363 . S
C3269 H3240 0.950 . S
C3269 C3268 1.397 . S
C3269 C3270 1.334 . S
C3270 H3241 0.950 . S
C3270 C3269 1.334 . S
C3270 C3271 1.287 . S
C3271 C3270 1.287 . S
C3271 C3272 1.524 . S
C3271 H3274 0.999 1_565 S
C3272 H3242 0.950 1_565 S
C3272 C3271 1.524 . S
C3272 C3273 1.415 . S
C3273 H3243 0.950 . S
C3273 C3268 1.363 . S
C3273 C3272 1.415 . S
H3274 C3271 0.999 1_545 S
H3275 C3256 0.913 . S
H3276 C3294 0.951 . S
H3277 C3296 0.951 . S
H3278 C3298 0.950 . S
H3279 C3299 0.950 . S
H3280 C3301 0.950 . S
H3281 C3304 0.950 . S
H3282 C3305 0.950 . S
H3283 C3307 0.950 . S
H3284 C3308 0.950 . S
H3285 C3309 0.951 . S
H3286 C3311 0.951 . S
H3287 C3313 0.950 . S
H3288 C3314 0.950 . S
H3289 C3316 0.950 . S
H3290 C3319 0.950 . S
H3291 C3320 0.950 . S
H3292 C3322 0.950 . S
H3293 C3323 0.950 . S
C3294 H3276 0.951 . S
C3294 C3295 1.366 . S
C3294 C3296 1.388 . S
C3295 C3294 1.366 . S
C3295 C3299 1.385 . S
C3296 H3277 0.951 . S
C3296 C3294 1.388 . S
C3296 C3297 1.366 . S
C3297 C3296 1.366 . S
C3297 C3298 1.414 . S
C3297 C3300 1.499 . S
C3298 H3278 0.950 . S
C3298 C3297 1.414 . S
C3298 C3299 1.374 . S
C3299 H3279 0.950 . S
C3299 C3295 1.385 . S
C3299 C3298 1.374 . S
C3300 C3297 1.499 . S
C3300 C3301 1.373 . S
C3300 C3302 1.389 . S
C3301 H3280 0.950 . S
C3301 C3300 1.373 . S
C3301 C3317 1.377 . S
C3302 C3300 1.389 . S
C3302 C3303 1.524 . S
C3302 C3316 1.377 . S
C3303 C3302 1.524 . S
C3303 C3304 1.397 . S
C3303 C3308 1.363 . S
C3304 H3281 0.950 . S
C3304 C3303 1.397 . S
C3304 C3305 1.334 . S
C3305 H3282 0.950 . S
C3305 C3304 1.334 . S
C3305 C3306 1.287 . S
C3306 C3305 1.287 . S
C3306 C3307 1.524 . S
C3306 H3325 0.913 . S
C3307 H3283 0.950 . S
C3307 C3306 1.524 . S
C3307 C3308 1.415 . S
C3308 H3284 0.950 . S
C3308 C3303 1.363 . S
C3308 C3307 1.415 . S
C3309 H3285 0.951 . S
C3309 C3310 1.366 . S
C3309 C3311 1.388 . S
C3310 C3309 1.366 . S
C3310 C3314 1.385 . S
C3311 H3286 0.951 . S
C3311 C3309 1.388 . S
C3311 C3312 1.366 . S
C3312 C3311 1.366 . S
C3312 C3313 1.414 . S
C3312 C3315 1.499 . S
C3313 H3287 0.950 . S
C3313 C3312 1.414 . S
C3313 C3314 1.374 . S
C3314 H3288 0.950 . S
C3314 C3310 1.385 . S
C3314 C3313 1.374 . S
C3315 C3312 1.499 . S
C3315 C3316 1.373 . S
C3315 C3317 1.389 . S
C3316 H3289 0.950 . S
C3316 C3302 1.377 . S
C3316 C3315 1.373 . S
C3317 C3301 1.377 . S
C3317 C3315 1.389 . S
C3317 C3318 1.524 . S
C3318 C3317 1.524 . S
C3318 C3319 1.397 . S
C3318 C3323 1.363 . S
C3319 H3290 0.950 . S
C3319 C3318 1.397 . S
C3319 C3320 1.334 . S
C3320 H3291 0.950 . S
C3320 C3319 1.334 . S
C3320 C3321 1.287 . S
C3321 C3320 1.287 . S
C3321 C3322 1.524 . S
C3321 H3324 0.999 . S
C3322 H3292 0.950 . S
C3322 C3321 1.524 . S
C3322 C3323 1.415 . S
C3323 H3293 0.950 . S
C3323 C3318 1.363 . S
C3323 C3322 1.415 . S
H3324 C3321 0.999 . S
H3325 C3306 0.913 . S
H3326 C3344 0.951 . S
H3327 C3346 0.951 . S
H3328 C3348 0.950 . S
H3329 C3349 0.950 . S
H3330 C3351 0.950 . S
H3331 C3354 0.950 . S
H3332 C3355 0.950 . S
H3333 C3357 0.950 . S
H3334 C3358 0.950 . S
H3335 C3359 0.951 . S
H3336 C3361 0.951 . S
H3337 C3363 0.950 . S
H3338 C3364 0.950 . S
H3339 C3366 0.950 . S
H3340 C3369 0.950 . S
H3341 C3370 0.950 . S
H3342 C3372 0.950 . S
H3343 C3373 0.950 . S
C3344 H3326 0.951 . S
C3344 C3345 1.366 . S
C3344 C3346 1.388 . S
C3345 C3344 1.366 . S
C3345 C3349 1.385 . S
C3346 H3327 0.951 . S
C3346 C3344 1.388 . S
C3346 C3347 1.366 . S
C3347 C3346 1.366 . S
C3347 C3348 1.414 . S
C3347 C3350 1.499 . S
C3348 H3328 0.950 . S
C3348 C3347 1.414 . S
C3348 C3349 1.374 . S
C3349 H3329 0.950 . S
C3349 C3345 1.385 . S
C3349 C3348 1.374 . S
C3350 C3347 1.499 . S
C3350 C3351 1.373 . S
C3350 C3352 1.389 . S
C3351 H3330 0.950 . S
C3351 C3350 1.373 . S
C3351 C3367 1.377 . S
C3352 C3350 1.389 . S
C3352 C3353 1.524 . S
C3352 C3366 1.377 . S
C3353 C3352 1.524 . S
C3353 C3354 1.397 . S
C3353 C3358 1.363 . S
C3354 H3331 0.950 . S
C3354 C3353 1.397 . S
C3354 C3355 1.334 . S
C3355 H3332 0.950 . S
C3355 C3354 1.334 . S
C3355 C3356 1.287 . S
C3356 C3355 1.287 . S
C3356 C3357 1.524 . S
C3356 H3375 0.913 . S
C3357 H3333 0.950 . S
C3357 C3356 1.524 . S
C3357 C3358 1.415 . S
C3358 H3334 0.950 . S
C3358 C3353 1.363 . S
C3358 C3357 1.415 . S
C3359 H3335 0.951 . S
C3359 C3360 1.366 . S
C3359 C3361 1.388 . S
C3360 C3359 1.366 . S
C3360 C3364 1.385 . S
C3361 H3336 0.951 . S
C3361 C3359 1.388 . S
C3361 C3362 1.366 . S
C3362 C3361 1.366 . S
C3362 C3363 1.414 . S
C3362 C3365 1.499 . S
C3363 H3337 0.950 . S
C3363 C3362 1.414 . S
C3363 C3364 1.374 . S
C3364 H3338 0.950 . S
C3364 C3360 1.385 . S
C3364 C3363 1.374 . S
C3365 C3362 1.499 . S
C3365 C3366 1.373 . S
C3365 C3367 1.389 . S
C3366 H3339 0.950 . S
C3366 C3352 1.377 . S
C3366 C3365 1.373 . S
C3367 C3351 1.377 . S
C3367 C3365 1.389 . S
C3367 C3368 1.524 . S
C3368 C3367 1.524 . S
C3368 C3369 1.397 . S
C3368 C3373 1.363 . S
C3369 H3340 0.950 . S
C3369 C3368 1.397 . S
C3369 C3370 1.334 . S
C3370 H3341 0.950 . S
C3370 C3369 1.334 . S
C3370 C3371 1.287 . S
C3371 C3370 1.287 . S
C3371 C3372 1.524 . S
C3371 H3374 0.999 . S
C3372 H3342 0.950 . S
C3372 C3371 1.524 . S
C3372 C3373 1.415 . S
C3373 H3343 0.950 . S
C3373 C3368 1.363 . S
C3373 C3372 1.415 . S
H3374 C3371 0.999 . S
H3375 C3356 0.913 . S
H3376 C3394 0.951 . S
H3377 C3396 0.951 . S
H3378 C3398 0.950 . S
H3379 C3399 0.950 . S
H3380 C3401 0.950 . S
H3381 C3404 0.950 . S
H3382 C3405 0.950 . S
H3383 C3407 0.950 . S
H3384 C3408 0.950 . S
H3385 C3409 0.951 . S
H3386 C3411 0.951 . S
H3387 C3413 0.950 . S
H3388 C3414 0.950 . S
H3389 C3416 0.950 . S
H3390 C3419 0.950 . S
H3391 C3420 0.950 . S
H3392 C3422 0.950 . S
H3393 C3423 0.950 . S
C3394 H3376 0.951 . S
C3394 C3395 1.366 . S
C3394 C3396 1.388 . S
C3395 C3394 1.366 . S
C3395 C3399 1.385 . S
C3396 H3377 0.951 . S
C3396 C3394 1.388 . S
C3396 C3397 1.366 . S
C3397 C3396 1.366 . S
C3397 C3398 1.414 . S
C3397 C3400 1.499 . S
C3398 H3378 0.950 . S
C3398 C3397 1.414 . S
C3398 C3399 1.374 . S
C3399 H3379 0.950 . S
C3399 C3395 1.385 . S
C3399 C3398 1.374 . S
C3400 C3397 1.499 . S
C3400 C3401 1.373 . S
C3400 C3402 1.389 . S
C3401 H3380 0.950 . S
C3401 C3400 1.373 . S
C3401 C3417 1.377 . S
C3402 C3400 1.389 . S
C3402 C3403 1.524 . S
C3402 C3416 1.377 . S
C3403 C3402 1.524 . S
C3403 C3404 1.397 . S
C3403 C3408 1.363 . S
C3404 H3381 0.950 . S
C3404 C3403 1.397 . S
C3404 C3405 1.334 . S
C3405 H3382 0.950 . S
C3405 C3404 1.334 . S
C3405 C3406 1.287 . S
C3406 C3405 1.287 . S
C3406 C3407 1.524 . S
C3406 H3425 0.913 . S
C3407 H3383 0.950 . S
C3407 C3406 1.524 . S
C3407 C3408 1.415 . S
C3408 H3384 0.950 . S
C3408 C3403 1.363 . S
C3408 C3407 1.415 . S
C3409 H3385 0.951 . S
C3409 C3410 1.366 . S
C3409 C3411 1.388 . S
C3410 C3409 1.366 . S
C3410 C3414 1.385 . S
C3411 H3386 0.951 . S
C3411 C3409 1.388 . S
C3411 C3412 1.366 . S
C3412 C3411 1.366 . S
C3412 C3413 1.414 . S
C3412 C3415 1.499 . S
C3413 H3387 0.950 . S
C3413 C3412 1.414 . S
C3413 C3414 1.374 . S
C3414 H3388 0.950 . S
C3414 C3410 1.385 . S
C3414 C3413 1.374 . S
C3415 C3412 1.499 . S
C3415 C3416 1.373 . S
C3415 C3417 1.389 . S
C3416 H3389 0.950 . S
C3416 C3402 1.377 . S
C3416 C3415 1.373 . S
C3417 C3401 1.377 . S
C3417 C3415 1.389 . S
C3417 C3418 1.524 . S
C3418 C3417 1.524 . S
C3418 C3419 1.397 . S
C3418 C3423 1.363 . S
C3419 H3390 0.950 . S
C3419 C3418 1.397 . S
C3419 C3420 1.334 . S
C3420 H3391 0.950 . S
C3420 C3419 1.334 . S
C3420 C3421 1.287 . S
C3421 C3420 1.287 . S
C3421 C3422 1.524 . S
C3421 H3424 0.999 . S
C3422 H3392 0.950 . S
C3422 C3421 1.524 . S
C3422 C3423 1.415 . S
C3423 H3393 0.950 . S
C3423 C3418 1.363 . S
C3423 C3422 1.415 . S
H3424 C3421 0.999 . S
H3425 C3406 0.913 . S
H3426 C3444 0.951 . S
H3427 C3446 0.951 . S
H3428 C3448 0.950 . S
H3429 C3449 0.950 . S
H3430 C3451 0.950 . S
H3431 C3454 0.950 . S
H3432 C3455 0.950 . S
H3433 C3457 0.950 . S
H3434 C3458 0.950 . S
H3435 C3459 0.951 . S
H3436 C3461 0.951 . S
H3437 C3463 0.950 . S
H3438 C3464 0.950 . S
H3439 C3466 0.950 . S
H3440 C3469 0.950 . S
H3441 C3470 0.950 . S
H3442 C3472 0.950 . S
H3443 C3473 0.950 . S
C3444 H3426 0.951 . S
C3444 C3445 1.366 . S
C3444 C3446 1.388 . S
C3445 C3444 1.366 . S
C3445 C3449 1.385 . S
C3446 H3427 0.951 . S
C3446 C3444 1.388 . S
C3446 C3447 1.366 . S
C3447 C3446 1.366 . S
C3447 C3448 1.414 . S
C3447 C3450 1.499 . S
C3448 H3428 0.950 . S
C3448 C3447 1.414 . S
C3448 C3449 1.374 . S
C3449 H3429 0.950 . S
C3449 C3445 1.385 . S
C3449 C3448 1.374 . S
C3450 C3447 1.499 . S
C3450 C3451 1.373 . S
C3450 C3452 1.389 . S
C3451 H3430 0.950 . S
C3451 C3450 1.373 . S
C3451 C3467 1.377 . S
C3452 C3450 1.389 . S
C3452 C3453 1.524 . S
C3452 C3466 1.377 . S
C3453 C3452 1.524 . S
C3453 C3454 1.397 . S
C3453 C3458 1.363 . S
C3454 H3431 0.950 . S
C3454 C3453 1.397 . S
C3454 C3455 1.334 . S
C3455 H3432 0.950 . S
C3455 C3454 1.334 . S
C3455 C3456 1.287 . S
C3456 C3455 1.287 . S
C3456 C3457 1.524 . S
C3456 H3475 0.913 . S
C3457 H3433 0.950 . S
C3457 C3456 1.524 . S
C3457 C3458 1.415 . S
C3458 H3434 0.950 . S
C3458 C3453 1.363 . S
C3458 C3457 1.415 . S
C3459 H3435 0.951 . S
C3459 C3460 1.366 . S
C3459 C3461 1.388 . S
C3460 C3459 1.366 . S
C3460 C3464 1.385 . S
C3461 H3436 0.951 . S
C3461 C3459 1.388 . S
C3461 C3462 1.366 . S
C3462 C3461 1.366 . S
C3462 C3463 1.414 . S
C3462 C3465 1.499 . S
C3463 H3437 0.950 . S
C3463 C3462 1.414 . S
C3463 C3464 1.374 . S
C3464 H3438 0.950 . S
C3464 C3460 1.385 . S
C3464 C3463 1.374 . S
C3465 C3462 1.499 . S
C3465 C3466 1.373 . S
C3465 C3467 1.389 . S
C3466 H3439 0.950 . S
C3466 C3452 1.377 . S
C3466 C3465 1.373 . S
C3467 C3451 1.377 . S
C3467 C3465 1.389 . S
C3467 C3468 1.524 . S
C3468 C3467 1.524 . S
C3468 C3469 1.397 . S
C3468 C3473 1.363 . S
C3469 H3440 0.950 . S
C3469 C3468 1.397 . S
C3469 C3470 1.334 . S
C3470 H3441 0.950 . S
C3470 C3469 1.334 . S
C3470 C3471 1.287 . S
C3471 C3470 1.287 . S
C3471 C3472 1.524 . S
C3471 H3474 0.999 . S
C3472 H3442 0.950 . S
C3472 C3471 1.524 . S
C3472 C3473 1.415 . S
C3473 H3443 0.950 . S
C3473 C3468 1.363 . S
C3473 C3472 1.415 . S
H3474 C3471 0.999 . S
H3475 C3456 0.913 . S
H3476 C3494 0.951 . S
H3477 C3496 0.951 . S
H3478 C3498 0.950 . S
H3479 C3499 0.950 . S
H3480 C3501 0.950 . S
H3481 C3504 0.950 . S
H3482 C3505 0.950 . S
H3483 C3507 0.950 . S
H3484 C3508 0.950 1_556 S
H3485 C3509 0.951 1_655 S
H3486 C3511 0.951 1_655 S
H3487 C3513 0.950 1_556 S
H3488 C3514 0.950 . S
H3489 C3516 0.950 . S
H3490 C3519 0.950 . S
H3491 C3520 0.950 . S
H3492 C3522 0.950 . S
H3493 C3523 0.950 . S
C3494 H3476 0.951 . S
C3494 C3495 1.366 . S
C3494 C3496 1.388 . S
C3495 C3494 1.366 . S
C3495 C3499 1.385 1_455 S
C3496 H3477 0.951 . S
C3496 C3494 1.388 . S
C3496 C3497 1.366 . S
C3497 C3496 1.366 . S
C3497 C3498 1.414 1_455 S
C3497 C3500 1.499 . S
C3498 H3478 0.950 . S
C3498 C3497 1.414 1_655 S
C3498 C3499 1.374 . S
C3499 H3479 0.950 . S
C3499 C3495 1.385 1_655 S
C3499 C3498 1.374 . S
C3500 C3497 1.499 . S
C3500 C3501 1.373 1_455 S
C3500 C3502 1.395 . S
C3501 H3480 0.950 . S
C3501 C3500 1.373 1_655 S
C3501 C3517 1.377 . S
C3502 C3500 1.395 . S
C3502 C3503 1.520 1_556 S
C3502 C3516 1.374 1_556 S
C3503 C3502 1.520 1_554 S
C3503 C3504 1.397 . S
C3503 C3508 1.363 . S
C3504 H3481 0.950 . S
C3504 C3503 1.397 . S
C3504 C3505 1.334 . S
C3505 H3482 0.950 . S
C3505 C3504 1.334 . S
C3505 C3506 1.287 . S
C3506 C3505 1.287 . S
C3506 C3507 1.524 . S
C3506 H3525 0.913 . S
C3507 H3483 0.950 . S
C3507 C3506 1.524 . S
C3507 C3508 1.415 . S
C3508 H3484 0.950 1_554 S
C3508 C3503 1.363 . S
C3508 C3507 1.415 . S
C3509 H3485 0.951 1_455 S
C3509 C3510 1.366 . S
C3509 C3511 1.388 . S
C3510 C3509 1.366 . S
C3510 C3514 1.385 . S
C3511 H3486 0.951 1_455 S
C3511 C3509 1.388 . S
C3511 C3512 1.366 . S
C3512 C3511 1.366 . S
C3512 C3513 1.414 . S
C3512 C3515 1.502 . S
C3513 H3487 0.950 1_554 S
C3513 C3512 1.414 . S
C3513 C3514 1.374 . S
C3514 H3488 0.950 . S
C3514 C3510 1.385 . S
C3514 C3513 1.374 . S
C3515 C3512 1.502 . S
C3515 C3516 1.376 . S
C3515 C3517 1.385 1_454 S
C3516 H3489 0.950 . S
C3516 C3502 1.374 1_554 S
C3516 C3515 1.376 . S
C3517 C3501 1.377 . S
C3517 C3515 1.385 1_656 S
C3517 C3518 1.524 . S
C3518 C3517 1.524 . S
C3518 C3519 1.397 . S
C3518 C3523 1.363 . S
C3519 H3490 0.950 . S
C3519 C3518 1.397 . S
C3519 C3520 1.334 . S
C3520 H3491 0.950 . S
C3520 C3519 1.334 . S
C3520 C3521 1.287 . S
C3521 C3520 1.287 . S
C3521 C3522 1.524 . S
C3521 H3524 0.999 . S
C3522 H3492 0.950 . S
C3522 C3521 1.524 . S
C3522 C3523 1.415 . S
C3523 H3493 0.950 . S
C3523 C3518 1.363 . S
C3523 C3522 1.415 . S
H3524 C3521 0.999 . S
H3525 C3506 0.913 . S
H3526 C3544 0.951 . S
H3527 C3546 0.951 . S
H3528 C3548 0.950 . S
H3529 C3549 0.950 . S
H3530 C3551 0.950 . S
H3531 C3554 0.950 . S
H3532 C3555 0.950 . S
H3533 C3557 0.950 . S
H3534 C3558 0.950 . S
H3535 C3559 0.951 . S
H3536 C3561 0.951 . S
H3537 C3563 0.950 . S
H3538 C3564 0.950 . S
H3539 C3566 0.950 . S
H3540 C3569 0.950 . S
H3541 C3570 0.950 . S
H3542 C3572 0.950 . S
H3543 C3573 0.950 . S
C3544 H3526 0.951 . S
C3544 C3545 1.366 . S
C3544 C3546 1.388 . S
C3545 C3544 1.366 . S
C3545 C3549 1.385 1_655 S
C3546 H3527 0.951 . S
C3546 C3544 1.388 . S
C3546 C3547 1.366 . S
C3547 C3546 1.366 . S
C3547 C3548 1.414 . S
C3547 C3550 1.499 . S
C3548 H3528 0.950 . S
C3548 C3547 1.414 . S
C3548 C3549 1.374 1_655 S
C3549 H3529 0.950 . S
C3549 C3545 1.385 1_455 S
C3549 C3548 1.374 1_455 S
C3550 C3547 1.499 . S
C3550 C3551 1.373 . S
C3550 C3552 1.389 . S
C3551 H3530 0.950 . S
C3551 C3550 1.373 . S
C3551 C3567 1.377 . S
C3552 C3550 1.389 . S
C3552 C3553 1.524 . S
C3552 C3566 1.377 . S
C3553 C3552 1.524 . S
C3553 C3554 1.397 . S
C3553 C3558 1.363 . S
C3554 H3531 0.950 . S
C3554 C3553 1.397 . S
C3554 C3555 1.334 . S
C3555 H3532 0.950 . S
C3555 C3554 1.334 . S
C3555 C3556 1.287 . S
C3556 C3555 1.287 . S
C3556 C3557 1.524 . S
C3556 H3575 0.913 . S
C3557 H3533 0.950 . S
C3557 C3556 1.524 . S
C3557 C3558 1.415 . S
C3558 H3534 0.950 . S
C3558 C3553 1.363 . S
C3558 C3557 1.415 . S
C3559 H3535 0.951 . S
C3559 C3560 1.366 . S
C3559 C3561 1.388 . S
C3560 C3559 1.366 . S
C3560 C3564 1.385 . S
C3561 H3536 0.951 . S
C3561 C3559 1.388 . S
C3561 C3562 1.366 . S
C3562 C3561 1.366 . S
C3562 C3563 1.414 . S
C3562 C3565 1.499 . S
C3563 H3537 0.950 . S
C3563 C3562 1.414 . S
C3563 C3564 1.374 . S
C3564 H3538 0.950 . S
C3564 C3560 1.385 . S
C3564 C3563 1.374 . S
C3565 C3562 1.499 . S
C3565 C3566 1.373 . S
C3565 C3567 1.389 . S
C3566 H3539 0.950 . S
C3566 C3552 1.377 . S
C3566 C3565 1.373 . S
C3567 C3551 1.377 . S
C3567 C3565 1.389 . S
C3567 C3568 1.524 . S
C3568 C3567 1.524 . S
C3568 C3569 1.397 . S
C3568 C3573 1.363 . S
C3569 H3540 0.950 . S
C3569 C3568 1.397 . S
C3569 C3570 1.334 . S
C3570 H3541 0.950 . S
C3570 C3569 1.334 . S
C3570 C3571 1.287 . S
C3571 C3570 1.287 . S
C3571 C3572 1.524 . S
C3571 H3574 0.999 . S
C3572 H3542 0.950 . S
C3572 C3571 1.524 . S
C3572 C3573 1.415 . S
C3573 H3543 0.950 . S
C3573 C3568 1.363 . S
C3573 C3572 1.415 . S
H3574 C3571 0.999 . S
H3575 C3556 0.913 . S
H3576 C3594 0.951 . S
H3577 C3596 0.951 . S
H3578 C3598 0.950 . S
H3579 C3599 0.950 . S
H3580 C3601 0.950 . S
H3581 C3604 0.950 . S
H3582 C3605 0.950 . S
H3583 C3607 0.950 . S
H3584 C3608 0.950 . S
H3585 C3609 0.951 . S
H3586 C3611 0.951 . S
H3587 C3613 0.950 . S
H3588 C3614 0.950 . S
H3589 C3616 0.950 . S
H3590 C3619 0.950 . S
H3591 C3620 0.950 . S
H3592 C3622 0.950 . S
H3593 C3623 0.950 . S
C3594 H3576 0.951 . S
C3594 C3595 1.366 . S
C3594 C3596 1.388 . S
C3595 C3594 1.366 . S
C3595 C3599 1.385 . S
C3596 H3577 0.951 . S
C3596 C3594 1.388 . S
C3596 C3597 1.366 . S
C3597 C3596 1.366 . S
C3597 C3598 1.414 . S
C3597 C3600 1.499 . S
C3598 H3578 0.950 . S
C3598 C3597 1.414 . S
C3598 C3599 1.374 . S
C3599 H3579 0.950 . S
C3599 C3595 1.385 . S
C3599 C3598 1.374 . S
C3600 C3597 1.499 . S
C3600 C3601 1.373 . S
C3600 C3602 1.389 . S
C3601 H3580 0.950 . S
C3601 C3600 1.373 . S
C3601 C3617 1.377 . S
C3602 C3600 1.389 . S
C3602 C3603 1.524 . S
C3602 C3616 1.377 . S
C3603 C3602 1.524 . S
C3603 C3604 1.397 . S
C3603 C3608 1.363 . S
C3604 H3581 0.950 . S
C3604 C3603 1.397 . S
C3604 C3605 1.334 . S
C3605 H3582 0.950 . S
C3605 C3604 1.334 . S
C3605 C3606 1.287 . S
C3606 C3605 1.287 . S
C3606 C3607 1.524 . S
C3606 H3625 0.913 . S
C3607 H3583 0.950 . S
C3607 C3606 1.524 . S
C3607 C3608 1.415 . S
C3608 H3584 0.950 . S
C3608 C3603 1.363 . S
C3608 C3607 1.415 . S
C3609 H3585 0.951 . S
C3609 C3610 1.366 . S
C3609 C3611 1.388 . S
C3610 C3609 1.366 . S
C3610 C3614 1.385 . S
C3611 H3586 0.951 . S
C3611 C3609 1.388 . S
C3611 C3612 1.366 . S
C3612 C3611 1.366 . S
C3612 C3613 1.414 . S
C3612 C3615 1.499 . S
C3613 H3587 0.950 . S
C3613 C3612 1.414 . S
C3613 C3614 1.374 . S
C3614 H3588 0.950 . S
C3614 C3610 1.385 . S
C3614 C3613 1.374 . S
C3615 C3612 1.499 . S
C3615 C3616 1.373 . S
C3615 C3617 1.389 . S
C3616 H3589 0.950 . S
C3616 C3602 1.377 . S
C3616 C3615 1.373 . S
C3617 C3601 1.377 . S
C3617 C3615 1.389 . S
C3617 C3618 1.524 . S
C3618 C3617 1.524 . S
C3618 C3619 1.397 . S
C3618 C3623 1.363 . S
C3619 H3590 0.950 . S
C3619 C3618 1.397 . S
C3619 C3620 1.334 . S
C3620 H3591 0.950 . S
C3620 C3619 1.334 . S
C3620 C3621 1.287 . S
C3621 C3620 1.287 . S
C3621 C3622 1.524 . S
C3621 H3624 0.999 . S
C3622 H3592 0.950 . S
C3622 C3621 1.524 . S
C3622 C3623 1.415 . S
C3623 H3593 0.950 . S
C3623 C3618 1.363 . S
C3623 C3622 1.415 . S
H3624 C3621 0.999 . S
H3625 C3606 0.913 . S
H3626 C3644 0.951 . S
H3627 C3646 0.951 . S
H3628 C3648 0.950 . S
H3629 C3649 0.950 . S
H3630 C3651 0.950 . S
H3631 C3654 0.950 . S
H3632 C3655 0.950 . S
H3633 C3657 0.950 . S
H3634 C3658 0.950 . S
H3635 C3659 0.951 . S
H3636 C3661 0.951 . S
H3637 C3663 0.950 . S
H3638 C3664 0.950 . S
H3639 C3666 0.950 . S
H3640 C3669 0.950 . S
H3641 C3670 0.950 . S
H3642 C3672 0.950 . S
H3643 C3673 0.950 . S
C3644 H3626 0.951 . S
C3644 C3645 1.366 . S
C3644 C3646 1.388 . S
C3645 C3644 1.366 . S
C3645 C3649 1.385 . S
C3646 H3627 0.951 . S
C3646 C3644 1.388 . S
C3646 C3647 1.366 . S
C3647 C3646 1.366 . S
C3647 C3648 1.414 . S
C3647 C3650 1.499 . S
C3648 H3628 0.950 . S
C3648 C3647 1.414 . S
C3648 C3649 1.374 . S
C3649 H3629 0.950 . S
C3649 C3645 1.385 . S
C3649 C3648 1.374 . S
C3650 C3647 1.499 . S
C3650 C3651 1.373 . S
C3650 C3652 1.389 . S
C3651 H3630 0.950 . S
C3651 C3650 1.373 . S
C3651 C3667 1.377 . S
C3652 C3650 1.389 . S
C3652 C3653 1.524 . S
C3652 C3666 1.377 . S
C3653 C3652 1.524 . S
C3653 C3654 1.397 . S
C3653 C3658 1.363 . S
C3654 H3631 0.950 . S
C3654 C3653 1.397 . S
C3654 C3655 1.334 . S
C3655 H3632 0.950 . S
C3655 C3654 1.334 . S
C3655 C3656 1.287 . S
C3656 C3655 1.287 . S
C3656 C3657 1.524 . S
C3656 H3675 0.913 . S
C3657 H3633 0.950 . S
C3657 C3656 1.524 . S
C3657 C3658 1.415 . S
C3658 H3634 0.950 . S
C3658 C3653 1.363 . S
C3658 C3657 1.415 . S
C3659 H3635 0.951 . S
C3659 C3660 1.366 . S
C3659 C3661 1.388 . S
C3660 C3659 1.366 . S
C3660 C3664 1.385 . S
C3661 H3636 0.951 . S
C3661 C3659 1.388 . S
C3661 C3662 1.366 . S
C3662 C3661 1.366 . S
C3662 C3663 1.414 . S
C3662 C3665 1.499 . S
C3663 H3637 0.950 . S
C3663 C3662 1.414 . S
C3663 C3664 1.374 . S
C3664 H3638 0.950 . S
C3664 C3660 1.385 . S
C3664 C3663 1.374 . S
C3665 C3662 1.499 . S
C3665 C3666 1.373 . S
C3665 C3667 1.389 . S
C3666 H3639 0.950 . S
C3666 C3652 1.377 . S
C3666 C3665 1.373 . S
C3667 C3651 1.377 . S
C3667 C3665 1.389 . S
C3667 C3668 1.524 . S
C3668 C3667 1.524 . S
C3668 C3669 1.397 . S
C3668 C3673 1.363 . S
C3669 H3640 0.950 . S
C3669 C3668 1.397 . S
C3669 C3670 1.334 . S
C3670 H3641 0.950 . S
C3670 C3669 1.334 . S
C3670 C3671 1.287 . S
C3671 C3670 1.287 . S
C3671 C3672 1.524 . S
C3671 H3674 0.999 . S
C3672 H3642 0.950 . S
C3672 C3671 1.524 . S
C3672 C3673 1.415 . S
C3673 H3643 0.950 . S
C3673 C3668 1.363 . S
C3673 C3672 1.415 . S
H3674 C3671 0.999 . S
H3675 C3656 0.913 . S
H3676 C3694 0.951 . S
H3677 C3696 0.951 . S
H3678 C3698 0.950 . S
H3679 C3699 0.950 . S
H3680 C3701 0.950 . S
H3681 C3704 0.950 1_455 S
H3682 C3705 0.950 . S
H3683 C3707 0.950 . S
H3684 C3708 0.950 . S
H3685 C3709 0.951 . S
H3686 C3711 0.951 . S
H3687 C3713 1.002 . S
H3688 C3714 0.956 . S
H3689 C3716 0.950 1_655 S
H3690 C3719 0.950 . S
H3691 C3720 0.950 . S
H3692 C3722 0.950 . S
H3693 C3723 0.950 . S
C3694 H3676 0.951 . S
C3694 C3695 1.366 1_655 S
C3694 C3696 1.388 . S
C3695 C3694 1.366 1_455 S
C3695 C3699 1.385 . S
C3696 H3677 0.951 . S
C3696 C3694 1.388 . S
C3696 C3697 1.366 1_655 S
C3697 C3696 1.366 1_455 S
C3697 C3698 1.414 . S
C3697 C3700 1.499 . S
C3698 H3678 0.950 . S
C3698 C3697 1.414 . S
C3698 C3699 1.374 . S
C3699 H3679 0.950 . S
C3699 C3695 1.385 . S
C3699 C3698 1.374 . S
C3700 C3697 1.499 . S
C3700 C3701 1.373 . S
C3700 C3702 1.389 . S
C3701 H3680 0.950 . S
C3701 C3700 1.373 . S
C3701 C3717 1.377 . S
C3702 C3700 1.389 . S
C3702 C3703 1.524 1_455 S
C3702 C3716 1.377 . S
C3703 C3702 1.524 1_655 S
C3703 C3704 1.397 . S
C3703 C3708 1.363 . S
C3704 H3681 0.950 1_655 S
C3704 C3703 1.397 . S
C3704 C3705 1.334 . S
C3705 H3682 0.950 . S
C3705 C3704 1.334 . S
C3705 C3706 1.287 . S
C3706 C3705 1.287 . S
C3706 C3707 1.524 . S
C3706 H3725 0.913 . S
C3707 H3683 0.950 . S
C3707 C3706 1.524 . S
C3707 C3708 1.415 . S
C3708 H3684 0.950 . S
C3708 C3703 1.363 . S
C3708 C3707 1.415 . S
C3709 H3685 0.951 . S
C3709 C3710 1.366 . S
C3709 C3711 1.388 . S
C3710 C3709 1.366 . S
C3710 C3714 1.375 1_455 S
C3711 H3686 0.951 . S
C3711 C3709 1.388 . S
C3711 C3712 1.366 . S
C3712 C3711 1.366 . S
C3712 C3713 1.379 1_455 S
C3712 C3715 1.499 . S
C3713 H3687 1.002 . S
C3713 C3712 1.379 1_655 S
C3713 C3714 1.361 . S
C3714 H3688 0.956 . S
C3714 C3710 1.375 1_655 S
C3714 C3713 1.361 . S
C3715 C3712 1.499 . S
C3715 C3716 1.373 . S
C3715 C3717 1.389 . S
C3716 H3689 0.950 1_455 S
C3716 C3702 1.377 . S
C3716 C3715 1.373 . S
C3717 C3701 1.377 . S
C3717 C3715 1.389 . S
C3717 C3718 1.524 . S
C3718 C3717 1.524 . S
C3718 C3719 1.397 . S
C3718 C3723 1.363 . S
C3719 H3690 0.950 . S
C3719 C3718 1.397 . S
C3719 C3720 1.334 . S
C3720 H3691 0.950 . S
C3720 C3719 1.334 . S
C3720 C3721 1.287 . S
C3721 C3720 1.287 . S
C3721 C3722 1.524 . S
C3721 H3724 0.999 . S
C3722 H3692 0.950 . S
C3722 C3721 1.524 . S
C3722 C3723 1.415 . S
C3723 H3693 0.950 . S
C3723 C3718 1.363 . S
C3723 C3722 1.415 . S
H3724 C3721 0.999 . S
H3725 C3706 0.913 . S
H3726 C3744 0.951 . S
H3727 C3746 0.951 . S
H3728 C3748 0.950 . S
H3729 C3749 0.950 . S
H3730 C3751 0.950 . S
H3731 C3754 0.950 . S
H3732 C3755 0.950 . S
H3733 C3757 0.950 . S
H3734 C3758 0.950 . S
H3735 C3759 0.951 . S
H3736 C3761 0.951 . S
H3737 C3763 0.950 . S
H3738 C3764 0.950 . S
H3739 C3766 0.950 . S
H3740 C3769 0.950 . S
H3741 C3770 0.950 . S
H3742 C3772 0.950 . S
H3743 C3773 0.950 . S
C3744 H3726 0.951 . S
C3744 C3745 1.366 . S
C3744 C3746 1.388 . S
C3745 C3744 1.366 . S
C3745 C3749 1.385 . S
C3746 H3727 0.951 . S
C3746 C3744 1.388 . S
C3746 C3747 1.366 . S
C3747 C3746 1.366 . S
C3747 C3748 1.414 . S
C3747 C3750 1.499 . S
C3748 H3728 0.950 . S
C3748 C3747 1.414 . S
C3748 C3749 1.374 . S
C3749 H3729 0.950 . S
C3749 C3745 1.385 . S
C3749 C3748 1.374 . S
C3750 C3747 1.499 . S
C3750 C3751 1.373 . S
C3750 C3752 1.389 . S
C3751 H3730 0.950 . S
C3751 C3750 1.373 . S
C3751 C3767 1.377 . S
C3752 C3750 1.389 . S
C3752 C3753 1.524 . S
C3752 C3766 1.377 . S
C3753 C3752 1.524 . S
C3753 C3754 1.397 . S
C3753 C3758 1.363 . S
C3754 H3731 0.950 . S
C3754 C3753 1.397 . S
C3754 C3755 1.334 . S
C3755 H3732 0.950 . S
C3755 C3754 1.334 . S
C3755 C3756 1.287 . S
C3756 C3755 1.287 . S
C3756 C3757 1.524 . S
C3756 H3775 0.913 . S
C3757 H3733 0.950 . S
C3757 C3756 1.524 . S
C3757 C3758 1.415 . S
C3758 H3734 0.950 . S
C3758 C3753 1.363 . S
C3758 C3757 1.415 . S
C3759 H3735 0.951 . S
C3759 C3760 1.366 . S
C3759 C3761 1.388 . S
C3760 C3759 1.366 . S
C3760 C3764 1.385 . S
C3761 H3736 0.951 . S
C3761 C3759 1.388 . S
C3761 C3762 1.366 . S
C3762 C3761 1.366 . S
C3762 C3763 1.414 . S
C3762 C3765 1.499 . S
C3763 H3737 0.950 . S
C3763 C3762 1.414 . S
C3763 C3764 1.374 . S
C3764 H3738 0.950 . S
C3764 C3760 1.385 . S
C3764 C3763 1.374 . S
C3765 C3762 1.499 . S
C3765 C3766 1.373 . S
C3765 C3767 1.389 . S
C3766 H3739 0.950 . S
C3766 C3752 1.377 . S
C3766 C3765 1.373 . S
C3767 C3751 1.377 . S
C3767 C3765 1.389 . S
C3767 C3768 1.524 . S
C3768 C3767 1.524 . S
C3768 C3769 1.397 . S
C3768 C3773 1.363 . S
C3769 H3740 0.950 . S
C3769 C3768 1.397 . S
C3769 C3770 1.334 . S
C3770 H3741 0.950 . S
C3770 C3769 1.334 . S
C3770 C3771 1.287 . S
C3771 C3770 1.287 . S
C3771 C3772 1.524 . S
C3771 H3774 0.999 . S
C3772 H3742 0.950 . S
C3772 C3771 1.524 . S
C3772 C3773 1.415 . S
C3773 H3743 0.950 . S
C3773 C3768 1.363 . S
C3773 C3772 1.415 . S
H3774 C3771 0.999 . S
H3775 C3756 0.913 . S
H3776 C3794 0.951 . S
H3777 C3796 0.951 . S
H3778 C3798 0.950 . S
H3779 C3799 0.950 . S
H3780 C3801 0.950 . S
H3781 C3804 0.950 . S
H3782 C3805 0.950 . S
H3783 C3807 0.950 . S
H3784 C3808 0.950 . S
H3785 C3809 0.951 . S
H3786 C3811 0.951 . S
H3787 C3813 0.950 . S
H3788 C3814 0.950 . S
H3789 C3816 0.950 . S
H3790 C3819 0.950 . S
H3791 C3820 0.950 . S
H3792 C3822 0.950 . S
H3793 C3823 0.950 . S
C3794 H3776 0.951 . S
C3794 C3795 1.366 . S
C3794 C3796 1.388 . S
C3795 C3794 1.366 . S
C3795 C3799 1.385 . S
C3796 H3777 0.951 . S
C3796 C3794 1.388 . S
C3796 C3797 1.366 . S
C3797 C3796 1.366 . S
C3797 C3798 1.414 . S
C3797 C3800 1.499 . S
C3798 H3778 0.950 . S
C3798 C3797 1.414 . S
C3798 C3799 1.374 . S
C3799 H3779 0.950 . S
C3799 C3795 1.385 . S
C3799 C3798 1.374 . S
C3800 C3797 1.499 . S
C3800 C3801 1.373 . S
C3800 C3802 1.389 . S
C3801 H3780 0.950 . S
C3801 C3800 1.373 . S
C3801 C3817 1.377 . S
C3802 C3800 1.389 . S
C3802 C3803 1.524 . S
C3802 C3816 1.377 . S
C3803 C3802 1.524 . S
C3803 C3804 1.397 . S
C3803 C3808 1.363 . S
C3804 H3781 0.950 . S
C3804 C3803 1.397 . S
C3804 C3805 1.334 . S
C3805 H3782 0.950 . S
C3805 C3804 1.334 . S
C3805 C3806 1.287 . S
C3806 C3805 1.287 . S
C3806 C3807 1.524 . S
C3806 H3825 0.913 . S
C3807 H3783 0.950 . S
C3807 C3806 1.524 . S
C3807 C3808 1.415 . S
C3808 H3784 0.950 . S
C3808 C3803 1.363 . S
C3808 C3807 1.415 . S
C3809 H3785 0.951 . S
C3809 C3810 1.366 . S
C3809 C3811 1.388 . S
C3810 C3809 1.366 . S
C3810 C3814 1.385 . S
C3811 H3786 0.951 . S
C3811 C3809 1.388 . S
C3811 C3812 1.366 . S
C3812 C3811 1.366 . S
C3812 C3813 1.414 . S
C3812 C3815 1.499 . S
C3813 H3787 0.950 . S
C3813 C3812 1.414 . S
C3813 C3814 1.374 . S
C3814 H3788 0.950 . S
C3814 C3810 1.385 . S
C3814 C3813 1.374 . S
C3815 C3812 1.499 . S
C3815 C3816 1.373 . S
C3815 C3817 1.389 . S
C3816 H3789 0.950 . S
C3816 C3802 1.377 . S
C3816 C3815 1.373 . S
C3817 C3801 1.377 . S
C3817 C3815 1.389 . S
C3817 C3818 1.524 . S
C3818 C3817 1.524 . S
C3818 C3819 1.397 . S
C3818 C3823 1.363 . S
C3819 H3790 0.950 . S
C3819 C3818 1.397 . S
C3819 C3820 1.334 . S
C3820 H3791 0.950 . S
C3820 C3819 1.334 . S
C3820 C3821 1.287 . S
C3821 C3820 1.287 . S
C3821 C3822 1.524 . S
C3821 H3824 0.999 . S
C3822 H3792 0.950 . S
C3822 C3821 1.524 . S
C3822 C3823 1.415 . S
C3823 H3793 0.950 . S
C3823 C3818 1.363 . S
C3823 C3822 1.415 . S
H3824 C3821 0.999 . S
H3825 C3806 0.913 . S
H3826 C3844 0.951 . S
H3827 C3846 0.951 . S
H3828 C3848 0.950 . S
H3829 C3849 0.950 . S
H3830 C3851 0.950 . S
H3831 C3854 0.950 1_556 S
H3832 C3855 0.950 . S
H3833 C3857 0.950 . S
H3834 C3858 0.950 . S
H3835 C3859 0.951 . S
H3836 C3861 0.951 . S
H3837 C3863 0.950 . S
H3838 C3864 0.950 . S
H3839 C3866 0.950 . S
H3840 C3869 0.950 . S
H3841 C3870 0.950 . S
H3842 C3872 0.950 . S
H3843 C3873 0.950 . S
C3844 H3826 0.951 . S
C3844 C3845 1.366 . S
C3844 C3846 1.388 1_554 S
C3845 C3844 1.366 . S
C3845 C3849 1.385 1_554 S
C3846 H3827 0.951 . S
C3846 C3844 1.388 1_556 S
C3846 C3847 1.366 . S
C3847 C3846 1.366 . S
C3847 C3848 1.414 . S
C3847 C3850 1.499 . S
C3848 H3828 0.950 . S
C3848 C3847 1.414 . S
C3848 C3849 1.374 . S
C3849 H3829 0.950 . S
C3849 C3845 1.385 1_556 S
C3849 C3848 1.374 . S
C3850 C3847 1.499 . S
C3850 C3851 1.373 . S
C3850 C3852 1.389 . S
C3851 H3830 0.950 . S
C3851 C3850 1.373 . S
C3851 C3867 1.377 . S
C3852 C3850 1.389 . S
C3852 C3853 1.524 . S
C3852 C3866 1.377 . S
C3853 C3852 1.524 . S
C3853 C3854 1.397 1_556 S
C3853 C3858 1.363 . S
C3854 H3831 0.950 1_554 S
C3854 C3853 1.397 1_554 S
C3854 C3855 1.334 . S
C3855 H3832 0.950 . S
C3855 C3854 1.334 . S
C3855 C3856 1.287 . S
C3856 C3855 1.287 . S
C3856 C3857 1.524 . S
C3856 H3875 0.913 . S
C3857 H3833 0.950 . S
C3857 C3856 1.524 . S
C3857 C3858 1.415 1_554 S
C3858 H3834 0.950 . S
C3858 C3853 1.363 . S
C3858 C3857 1.415 1_556 S
C3859 H3835 0.951 . S
C3859 C3860 1.366 . S
C3859 C3861 1.388 . S
C3860 C3859 1.366 . S
C3860 C3864 1.385 . S
C3861 H3836 0.951 . S
C3861 C3859 1.388 . S
C3861 C3862 1.366 . S
C3862 C3861 1.366 . S
C3862 C3863 1.414 . S
C3862 C3865 1.499 . S
C3863 H3837 0.950 . S
C3863 C3862 1.414 . S
C3863 C3864 1.374 . S
C3864 H3838 0.950 . S
C3864 C3860 1.385 . S
C3864 C3863 1.374 . S
C3865 C3862 1.499 . S
C3865 C3866 1.373 . S
C3865 C3867 1.389 . S
C3866 H3839 0.950 . S
C3866 C3852 1.377 . S
C3866 C3865 1.373 . S
C3867 C3851 1.377 . S
C3867 C3865 1.389 . S
C3867 C3868 1.524 . S
C3868 C3867 1.524 . S
C3868 C3869 1.397 . S
C3868 C3873 1.363 . S
C3869 H3840 0.950 . S
C3869 C3868 1.397 . S
C3869 C3870 1.334 . S
C3870 H3841 0.950 . S
C3870 C3869 1.334 . S
C3870 C3871 1.287 . S
C3871 C3870 1.287 . S
C3871 C3872 1.524 . S
C3871 H3874 0.999 . S
C3872 H3842 0.950 . S
C3872 C3871 1.524 . S
C3872 C3873 1.415 . S
C3873 H3843 0.950 . S
C3873 C3868 1.363 . S
C3873 C3872 1.415 . S
H3874 C3871 0.999 . S
H3875 C3856 0.913 . S
H3876 C3894 0.951 . S
H3877 C3896 0.951 . S
H3878 C3898 0.950 . S
H3879 C3899 0.950 . S
H3880 C3901 0.950 . S
H3881 C3904 0.950 . S
H3882 C3905 0.950 . S
H3883 C3907 0.950 . S
H3884 C3908 0.950 . S
H3885 C3909 0.951 . S
H3886 C3911 0.951 . S
H3887 C3913 0.950 . S
H3888 C3914 0.950 . S
H3889 C3916 0.950 . S
H3890 C3919 0.950 . S
H3891 C3920 0.950 . S
H3892 C3922 0.950 . S
H3893 C3923 0.950 . S
C3894 H3876 0.951 . S
C3894 C3895 1.366 . S
C3894 C3896 1.388 . S
C3895 C3894 1.366 . S
C3895 C3899 1.385 . S
C3896 H3877 0.951 . S
C3896 C3894 1.388 . S
C3896 C3897 1.366 . S
C3897 C3896 1.366 . S
C3897 C3898 1.414 . S
C3897 C3900 1.499 . S
C3898 H3878 0.950 . S
C3898 C3897 1.414 . S
C3898 C3899 1.374 . S
C3899 H3879 0.950 . S
C3899 C3895 1.385 . S
C3899 C3898 1.374 . S
C3900 C3897 1.499 . S
C3900 C3901 1.373 . S
C3900 C3902 1.389 . S
C3901 H3880 0.950 . S
C3901 C3900 1.373 . S
C3901 C3917 1.377 . S
C3902 C3900 1.389 . S
C3902 C3903 1.524 . S
C3902 C3916 1.377 . S
C3903 C3902 1.524 . S
C3903 C3904 1.397 . S
C3903 C3908 1.363 . S
C3904 H3881 0.950 . S
C3904 C3903 1.397 . S
C3904 C3905 1.334 . S
C3905 H3882 0.950 . S
C3905 C3904 1.334 . S
C3905 C3906 1.287 . S
C3906 C3905 1.287 . S
C3906 C3907 1.524 . S
C3906 H3925 0.913 . S
C3907 H3883 0.950 . S
C3907 C3906 1.524 . S
C3907 C3908 1.415 . S
C3908 H3884 0.950 . S
C3908 C3903 1.363 . S
C3908 C3907 1.415 . S
C3909 H3885 0.951 . S
C3909 C3910 1.366 . S
C3909 C3911 1.388 . S
C3910 C3909 1.366 . S
C3910 C3914 1.385 . S
C3911 H3886 0.951 . S
C3911 C3909 1.388 . S
C3911 C3912 1.366 . S
C3912 C3911 1.366 . S
C3912 C3913 1.414 . S
C3912 C3915 1.499 . S
C3913 H3887 0.950 . S
C3913 C3912 1.414 . S
C3913 C3914 1.374 . S
C3914 H3888 0.950 . S
C3914 C3910 1.385 . S
C3914 C3913 1.374 . S
C3915 C3912 1.499 . S
C3915 C3916 1.373 . S
C3915 C3917 1.389 . S
C3916 H3889 0.950 . S
C3916 C3902 1.377 . S
C3916 C3915 1.373 . S
C3917 C3901 1.377 . S
C3917 C3915 1.389 . S
C3917 C3918 1.524 . S
C3918 C3917 1.524 . S
C3918 C3919 1.397 . S
C3918 C3923 1.363 . S
C3919 H3890 0.950 . S
C3919 C3918 1.397 . S
C3919 C3920 1.334 . S
C3920 H3891 0.950 . S
C3920 C3919 1.334 . S
C3920 C3921 1.287 . S
C3921 C3920 1.287 . S
C3921 C3922 1.524 . S
C3921 H3924 0.999 . S
C3922 H3892 0.950 . S
C3922 C3921 1.524 . S
C3922 C3923 1.415 . S
C3923 H3893 0.950 . S
C3923 C3918 1.363 . S
C3923 C3922 1.415 . S
H3924 C3921 0.999 . S
H3925 C3906 0.913 . S
H3926 C3944 0.951 . S
H3927 C3946 0.951 . S
H3928 C3948 0.950 . S
H3929 C3949 0.950 . S
H3930 C3951 0.950 . S
H3931 C3954 0.950 . S
H3932 C3955 0.950 . S
H3933 C3957 0.950 . S
H3934 C3958 0.950 . S
H3935 C3959 0.951 . S
H3936 C3961 0.951 . S
H3937 C3963 0.950 . S
H3938 C3964 0.950 . S
H3939 C3966 0.950 . S
H3940 C3969 0.950 . S
H3941 C3970 0.950 . S
H3942 C3972 0.950 . S
H3943 C3973 0.950 . S
C3944 H3926 0.951 . S
C3944 C3945 1.366 . S
C3944 C3946 1.388 . S
C3945 C3944 1.366 . S
C3945 C3949 1.385 . S
C3946 H3927 0.951 . S
C3946 C3944 1.388 . S
C3946 C3947 1.366 . S
C3947 C3946 1.366 . S
C3947 C3948 1.414 . S
C3947 C3950 1.499 . S
C3948 H3928 0.950 . S
C3948 C3947 1.414 . S
C3948 C3949 1.374 . S
C3949 H3929 0.950 . S
C3949 C3945 1.385 . S
C3949 C3948 1.374 . S
C3950 C3947 1.499 . S
C3950 C3951 1.373 . S
C3950 C3952 1.389 . S
C3951 H3930 0.950 . S
C3951 C3950 1.373 . S
C3951 C3967 1.377 . S
C3952 C3950 1.389 . S
C3952 C3953 1.524 . S
C3952 C3966 1.377 . S
C3953 C3952 1.524 . S
C3953 C3954 1.397 . S
C3953 C3958 1.363 . S
C3954 H3931 0.950 . S
C3954 C3953 1.397 . S
C3954 C3955 1.334 . S
C3955 H3932 0.950 . S
C3955 C3954 1.334 . S
C3955 C3956 1.287 . S
C3956 C3955 1.287 . S
C3956 C3957 1.524 . S
C3956 H3975 0.913 . S
C3957 H3933 0.950 . S
C3957 C3956 1.524 . S
C3957 C3958 1.415 . S
C3958 H3934 0.950 . S
C3958 C3953 1.363 . S
C3958 C3957 1.415 . S
C3959 H3935 0.951 . S
C3959 C3960 1.366 . S
C3959 C3961 1.388 . S
C3960 C3959 1.366 . S
C3960 C3964 1.385 . S
C3961 H3936 0.951 . S
C3961 C3959 1.388 . S
C3961 C3962 1.366 . S
C3962 C3961 1.366 . S
C3962 C3963 1.414 . S
C3962 C3965 1.499 . S
C3963 H3937 0.950 . S
C3963 C3962 1.414 . S
C3963 C3964 1.374 . S
C3964 H3938 0.950 . S
C3964 C3960 1.385 . S
C3964 C3963 1.374 . S
C3965 C3962 1.499 . S
C3965 C3966 1.373 . S
C3965 C3967 1.389 . S
C3966 H3939 0.950 . S
C3966 C3952 1.377 . S
C3966 C3965 1.373 . S
C3967 C3951 1.377 . S
C3967 C3965 1.389 . S
C3967 C3968 1.524 . S
C3968 C3967 1.524 . S
C3968 C3969 1.397 . S
C3968 C3973 1.363 . S
C3969 H3940 0.950 . S
C3969 C3968 1.397 . S
C3969 C3970 1.334 . S
C3970 H3941 0.950 . S
C3970 C3969 1.334 . S
C3970 C3971 1.287 . S
C3971 C3970 1.287 . S
C3971 C3972 1.524 . S
C3971 H3974 0.999 . S
C3972 H3942 0.950 . S
C3972 C3971 1.524 . S
C3972 C3973 1.415 . S
C3973 H3943 0.950 . S
C3973 C3968 1.363 . S
C3973 C3972 1.415 . S
H3974 C3971 0.999 . S
H3975 C3956 0.913 . S
H3976 C3994 0.951 . S
H3977 C3996 0.951 . S
H3978 C3998 0.950 . S
H3979 C3999 0.950 . S
H3980 C4001 0.950 . S
H3981 C4004 0.950 . S
H3982 C4005 0.950 . S
H3983 C4007 0.950 . S
H3984 C4008 0.950 . S
H3985 C4009 0.951 . S
H3986 C4011 0.951 . S
H3987 C4013 0.950 . S
H3988 C4014 0.950 . S
H3989 C4016 0.950 . S
H3990 C4019 0.950 . S
H3991 C4020 0.950 . S
H3992 C4022 0.950 . S
H3993 C4023 0.950 . S
C3994 H3976 0.951 . S
C3994 C3995 1.366 . S
C3994 C3996 1.388 . S
C3995 C3994 1.366 . S
C3995 C3999 1.385 . S
C3996 H3977 0.951 . S
C3996 C3994 1.388 . S
C3996 C3997 1.366 . S
C3997 C3996 1.366 . S
C3997 C3998 1.414 . S
C3997 C4000 1.499 . S
C3998 H3978 0.950 . S
C3998 C3997 1.414 . S
C3998 C3999 1.374 . S
C3999 H3979 0.950 . S
C3999 C3995 1.385 . S
C3999 C3998 1.374 . S
C4000 C3997 1.499 . S
C4000 C4001 1.373 . S
C4000 C4002 1.389 . S
C4001 H3980 0.950 . S
C4001 C4000 1.373 . S
C4001 C4017 1.377 . S
C4002 C4000 1.389 . S
C4002 C4003 1.524 . S
C4002 C4016 1.377 . S
C4003 C4002 1.524 . S
C4003 C4004 1.397 . S
C4003 C4008 1.363 . S
C4004 H3981 0.950 . S
C4004 C4003 1.397 . S
C4004 C4005 1.334 . S
C4005 H3982 0.950 . S
C4005 C4004 1.334 . S
C4005 C4006 1.287 . S
C4006 C4005 1.287 . S
C4006 C4007 1.524 . S
C4006 H4025 0.913 . S
C4007 H3983 0.950 . S
C4007 C4006 1.524 . S
C4007 C4008 1.415 . S
C4008 H3984 0.950 . S
C4008 C4003 1.363 . S
C4008 C4007 1.415 . S
C4009 H3985 0.951 . S
C4009 C4010 1.366 . S
C4009 C4011 1.388 . S
C4010 C4009 1.366 . S
C4010 C4014 1.385 . S
C4011 H3986 0.951 . S
C4011 C4009 1.388 . S
C4011 C4012 1.366 . S
C4012 C4011 1.366 . S
C4012 C4013 1.414 . S
C4012 C4015 1.499 . S
C4013 H3987 0.950 . S
C4013 C4012 1.414 . S
C4013 C4014 1.374 . S
C4014 H3988 0.950 . S
C4014 C4010 1.385 . S
C4014 C4013 1.374 . S
C4015 C4012 1.499 . S
C4015 C4016 1.373 . S
C4015 C4017 1.389 . S
C4016 H3989 0.950 . S
C4016 C4002 1.377 . S
C4016 C4015 1.373 . S
C4017 C4001 1.377 . S
C4017 C4015 1.389 . S
C4017 C4018 1.524 . S
C4018 C4017 1.524 . S
C4018 C4019 1.397 . S
C4018 C4023 1.363 . S
C4019 H3990 0.950 . S
C4019 C4018 1.397 . S
C4019 C4020 1.334 . S
C4020 H3991 0.950 . S
C4020 C4019 1.334 . S
C4020 C4021 1.287 . S
C4021 C4020 1.287 . S
C4021 C4022 1.524 . S
C4021 H4024 0.999 . S
C4022 H3992 0.950 . S
C4022 C4021 1.524 . S
C4022 C4023 1.415 . S
C4023 H3993 0.950 . S
C4023 C4018 1.363 . S
C4023 C4022 1.415 . S
H4024 C4021 0.999 . S
H4025 C4006 0.913 . S
H4026 C4044 0.951 . S
H4027 C4046 0.951 . S
H4028 C4048 0.950 . S
H4029 C4049 0.950 . S
H4030 C4051 0.950 . S
H4031 C4054 0.950 . S
H4032 C4055 0.950 . S
H4033 C4057 0.950 . S
H4034 C4058 0.950 . S
H4035 C4059 0.951 . S
H4036 C4061 0.951 . S
H4037 C4063 0.950 . S
H4038 C4064 0.950 . S
H4039 C4066 0.950 . S
H4040 C4069 0.950 . S
H4041 C4070 0.950 . S
H4042 C4072 0.950 . S
H4043 C4073 0.950 . S
C4044 H4026 0.951 . S
C4044 C4045 1.366 . S
C4044 C4046 1.388 . S
C4045 C4044 1.366 . S
C4045 C4049 1.385 . S
C4046 H4027 0.951 . S
C4046 C4044 1.388 . S
C4046 C4047 1.366 . S
C4047 C4046 1.366 . S
C4047 C4048 1.414 . S
C4047 C4050 1.499 . S
C4048 H4028 0.950 . S
C4048 C4047 1.414 . S
C4048 C4049 1.374 . S
C4049 H4029 0.950 . S
C4049 C4045 1.385 . S
C4049 C4048 1.374 . S
C4050 C4047 1.499 . S
C4050 C4051 1.373 . S
C4050 C4052 1.389 . S
C4051 H4030 0.950 . S
C4051 C4050 1.373 . S
C4051 C4067 1.377 . S
C4052 C4050 1.389 . S
C4052 C4053 1.524 . S
C4052 C4066 1.377 . S
C4053 C4052 1.524 . S
C4053 C4054 1.397 . S
C4053 C4058 1.363 . S
C4054 H4031 0.950 . S
C4054 C4053 1.397 . S
C4054 C4055 1.334 . S
C4055 H4032 0.950 . S
C4055 C4054 1.334 . S
C4055 C4056 1.287 . S
C4056 C4055 1.287 . S
C4056 C4057 1.524 . S
C4056 H4075 0.913 . S
C4057 H4033 0.950 . S
C4057 C4056 1.524 . S
C4057 C4058 1.415 . S
C4058 H4034 0.950 . S
C4058 C4053 1.363 . S
C4058 C4057 1.415 . S
C4059 H4035 0.951 . S
C4059 C4060 1.366 . S
C4059 C4061 1.388 . S
C4060 C4059 1.366 . S
C4060 C4064 1.385 . S
C4061 H4036 0.951 . S
C4061 C4059 1.388 . S
C4061 C4062 1.366 . S
C4062 C4061 1.366 . S
C4062 C4063 1.414 . S
C4062 C4065 1.499 . S
C4063 H4037 0.950 . S
C4063 C4062 1.414 . S
C4063 C4064 1.374 . S
C4064 H4038 0.950 . S
C4064 C4060 1.385 . S
C4064 C4063 1.374 . S
C4065 C4062 1.499 . S
C4065 C4066 1.373 . S
C4065 C4067 1.389 . S
C4066 H4039 0.950 . S
C4066 C4052 1.377 . S
C4066 C4065 1.373 . S
C4067 C4051 1.377 . S
C4067 C4065 1.389 . S
C4067 C4068 1.524 . S
C4068 C4067 1.524 . S
C4068 C4069 1.397 . S
C4068 C4073 1.363 . S
C4069 H4040 0.950 . S
C4069 C4068 1.397 . S
C4069 C4070 1.334 . S
C4070 H4041 0.950 . S
C4070 C4069 1.334 . S
C4070 C4071 1.287 . S
C4071 C4070 1.287 . S
C4071 C4072 1.524 . S
C4071 H4074 0.999 . S
C4072 H4042 0.950 . S
C4072 C4071 1.524 . S
C4072 C4073 1.415 . S
C4073 H4043 0.950 . S
C4073 C4068 1.363 . S
C4073 C4072 1.415 . S
H4074 C4071 0.999 . S
H4075 C4056 0.913 . S
H4076 C4094 0.951 . S
H4077 C4096 0.951 . S
H4078 C4098 0.950 . S
H4079 C4099 0.950 . S
H4080 C4101 0.950 . S
H4081 C4104 0.950 . S
H4082 C4105 0.950 . S
H4083 C4107 0.950 . S
H4084 C4108 0.950 . S
H4085 C4109 0.951 . S
H4086 C4111 0.951 . S
H4087 C4113 0.950 . S
H4088 C4114 0.950 . S
H4089 C4116 0.950 . S
H4090 C4119 0.950 . S
H4091 C4120 0.950 . S
H4092 C4122 0.950 . S
H4093 C4123 0.950 . S
C4094 H4076 0.951 . S
C4094 C4095 1.366 . S
C4094 C4096 1.388 . S
C4095 C4094 1.366 . S
C4095 C4099 1.385 . S
C4096 H4077 0.951 . S
C4096 C4094 1.388 . S
C4096 C4097 1.366 . S
C4097 C4096 1.366 . S
C4097 C4098 1.414 . S
C4097 C4100 1.499 . S
C4098 H4078 0.950 . S
C4098 C4097 1.414 . S
C4098 C4099 1.374 . S
C4099 H4079 0.950 . S
C4099 C4095 1.385 . S
C4099 C4098 1.374 . S
C4100 C4097 1.499 . S
C4100 C4101 1.373 . S
C4100 C4102 1.389 . S
C4101 H4080 0.950 . S
C4101 C4100 1.373 . S
C4101 C4117 1.377 . S
C4102 C4100 1.389 . S
C4102 C4103 1.524 . S
C4102 C4116 1.377 . S
C4103 C4102 1.524 . S
C4103 C4104 1.397 . S
C4103 C4108 1.363 . S
C4104 H4081 0.950 . S
C4104 C4103 1.397 . S
C4104 C4105 1.334 . S
C4105 H4082 0.950 . S
C4105 C4104 1.334 . S
C4105 C4106 1.287 . S
C4106 C4105 1.287 . S
C4106 C4107 1.524 . S
C4106 H4125 0.913 . S
C4107 H4083 0.950 . S
C4107 C4106 1.524 . S
C4107 C4108 1.415 . S
C4108 H4084 0.950 . S
C4108 C4103 1.363 . S
C4108 C4107 1.415 . S
C4109 H4085 0.951 . S
C4109 C4110 1.366 . S
C4109 C4111 1.388 . S
C4110 C4109 1.366 . S
C4110 C4114 1.385 . S
C4111 H4086 0.951 . S
C4111 C4109 1.388 . S
C4111 C4112 1.366 . S
C4112 C4111 1.366 . S
C4112 C4113 1.414 . S
C4112 C4115 1.499 . S
C4113 H4087 0.950 . S
C4113 C4112 1.414 . S
C4113 C4114 1.374 . S
C4114 H4088 0.950 . S
C4114 C4110 1.385 . S
C4114 C4113 1.374 . S
C4115 C4112 1.499 . S
C4115 C4116 1.373 . S
C4115 C4117 1.389 . S
C4116 H4089 0.950 . S
C4116 C4102 1.377 . S
C4116 C4115 1.373 . S
C4117 C4101 1.377 . S
C4117 C4115 1.389 . S
C4117 C4118 1.524 . S
C4118 C4117 1.524 . S
C4118 C4119 1.397 . S
C4118 C4123 1.363 . S
C4119 H4090 0.950 . S
C4119 C4118 1.397 . S
C4119 C4120 1.334 . S
C4120 H4091 0.950 . S
C4120 C4119 1.334 . S
C4120 C4121 1.287 . S
C4121 C4120 1.287 . S
C4121 C4122 1.524 . S
C4121 H4124 0.999 . S
C4122 H4092 0.950 . S
C4122 C4121 1.524 . S
C4122 C4123 1.415 . S
C4123 H4093 0.950 . S
C4123 C4118 1.363 . S
C4123 C4122 1.415 . S
H4124 C4121 0.999 . S
H4125 C4106 0.913 . S
H4126 C4144 0.951 . S
H4127 C4146 0.951 . S
H4128 C4148 0.950 . S
H4129 C4149 0.950 . S
H4130 C4151 0.950 . S
H4131 C4154 0.950 . S
H4132 C4155 0.950 . S
H4133 C4157 0.950 . S
H4134 C4158 0.950 . S
H4135 C4159 0.951 . S
H4136 C4161 0.951 . S
H4137 C4163 0.950 . S
H4138 C4164 0.950 . S
H4139 C4166 0.950 . S
H4140 C4169 0.950 . S
H4141 C4170 0.950 . S
H4142 C4172 0.950 . S
H4143 C4173 0.950 . S
C4144 H4126 0.951 . S
C4144 C4145 1.366 . S
C4144 C4146 1.388 . S
C4145 C4144 1.366 . S
C4145 C4149 1.385 . S
C4146 H4127 0.951 . S
C4146 C4144 1.388 . S
C4146 C4147 1.366 . S
C4147 C4146 1.366 . S
C4147 C4148 1.414 . S
C4147 C4150 1.499 . S
C4148 H4128 0.950 . S
C4148 C4147 1.414 . S
C4148 C4149 1.374 . S
C4149 H4129 0.950 . S
C4149 C4145 1.385 . S
C4149 C4148 1.374 . S
C4150 C4147 1.499 . S
C4150 C4151 1.373 . S
C4150 C4152 1.389 . S
C4151 H4130 0.950 . S
C4151 C4150 1.373 . S
C4151 C4167 1.377 . S
C4152 C4150 1.389 . S
C4152 C4153 1.524 . S
C4152 C4166 1.377 . S
C4153 C4152 1.524 . S
C4153 C4154 1.397 . S
C4153 C4158 1.363 . S
C4154 H4131 0.950 . S
C4154 C4153 1.397 . S
C4154 C4155 1.334 . S
C4155 H4132 0.950 . S
C4155 C4154 1.334 . S
C4155 C4156 1.287 . S
C4156 C4155 1.287 . S
C4156 C4157 1.524 . S
C4156 H4175 0.913 . S
C4157 H4133 0.950 . S
C4157 C4156 1.524 . S
C4157 C4158 1.415 . S
C4158 H4134 0.950 . S
C4158 C4153 1.363 . S
C4158 C4157 1.415 . S
C4159 H4135 0.951 . S
C4159 C4160 1.366 . S
C4159 C4161 1.388 . S
C4160 C4159 1.366 . S
C4160 C4164 1.385 . S
C4161 H4136 0.951 . S
C4161 C4159 1.388 . S
C4161 C4162 1.366 . S
C4162 C4161 1.366 . S
C4162 C4163 1.414 . S
C4162 C4165 1.499 . S
C4163 H4137 0.950 . S
C4163 C4162 1.414 . S
C4163 C4164 1.374 . S
C4164 H4138 0.950 . S
C4164 C4160 1.385 . S
C4164 C4163 1.374 . S
C4165 C4162 1.499 . S
C4165 C4166 1.373 . S
C4165 C4167 1.389 . S
C4166 H4139 0.950 . S
C4166 C4152 1.377 . S
C4166 C4165 1.373 . S
C4167 C4151 1.377 . S
C4167 C4165 1.389 . S
C4167 C4168 1.524 . S
C4168 C4167 1.524 . S
C4168 C4169 1.397 . S
C4168 C4173 1.363 . S
C4169 H4140 0.950 . S
C4169 C4168 1.397 . S
C4169 C4170 1.334 . S
C4170 H4141 0.950 . S
C4170 C4169 1.334 . S
C4170 C4171 1.287 . S
C4171 C4170 1.287 . S
C4171 C4172 1.524 . S
C4171 H4174 0.999 . S
C4172 H4142 0.950 . S
C4172 C4171 1.524 . S
C4172 C4173 1.415 . S
C4173 H4143 0.950 . S
C4173 C4168 1.363 . S
C4173 C4172 1.415 . S
H4174 C4171 0.999 . S
H4175 C4156 0.913 . S
H4176 C4194 0.951 . S
H4177 C4196 0.951 . S
H4178 C4198 0.950 . S
H4179 C4199 0.950 . S
H4180 C4201 0.950 . S
H4181 C4204 0.950 . S
H4182 C4205 0.950 . S
H4183 C4207 0.950 . S
H4184 C4208 0.950 . S
H4185 C4209 0.951 . S
H4186 C4211 0.951 . S
H4187 C4213 0.950 . S
H4188 C4214 0.950 . S
H4189 C4216 0.950 . S
H4190 C4219 0.950 . S
H4191 C4220 0.950 . S
H4192 C4222 0.950 . S
H4193 C4223 0.950 . S
C4194 H4176 0.951 . S
C4194 C4195 1.366 . S
C4194 C4196 1.388 . S
C4195 C4194 1.366 . S
C4195 C4199 1.385 . S
C4196 H4177 0.951 . S
C4196 C4194 1.388 . S
C4196 C4197 1.366 . S
C4197 C4196 1.366 . S
C4197 C4198 1.414 . S
C4197 C4200 1.499 . S
C4198 H4178 0.950 . S
C4198 C4197 1.414 . S
C4198 C4199 1.374 . S
C4199 H4179 0.950 . S
C4199 C4195 1.385 . S
C4199 C4198 1.374 . S
C4200 C4197 1.499 . S
C4200 C4201 1.373 . S
C4200 C4202 1.389 . S
C4201 H4180 0.950 . S
C4201 C4200 1.373 . S
C4201 C4217 1.377 . S
C4202 C4200 1.389 . S
C4202 C4203 1.524 . S
C4202 C4216 1.377 . S
C4203 C4202 1.524 . S
C4203 C4204 1.397 . S
C4203 C4208 1.363 . S
C4204 H4181 0.950 . S
C4204 C4203 1.397 . S
C4204 C4205 1.334 . S
C4205 H4182 0.950 . S
C4205 C4204 1.334 . S
C4205 C4206 1.287 . S
C4206 C4205 1.287 . S
C4206 C4207 1.524 . S
C4206 H4225 0.913 . S
C4207 H4183 0.950 . S
C4207 C4206 1.524 . S
C4207 C4208 1.415 . S
C4208 H4184 0.950 . S
C4208 C4203 1.363 . S
C4208 C4207 1.415 . S
C4209 H4185 0.951 . S
C4209 C4210 1.366 . S
C4209 C4211 1.388 . S
C4210 C4209 1.366 . S
C4210 C4214 1.385 . S
C4211 H4186 0.951 . S
C4211 C4209 1.388 . S
C4211 C4212 1.366 . S
C4212 C4211 1.366 . S
C4212 C4213 1.414 . S
C4212 C4215 1.499 . S
C4213 H4187 0.950 . S
C4213 C4212 1.414 . S
C4213 C4214 1.374 . S
C4214 H4188 0.950 . S
C4214 C4210 1.385 . S
C4214 C4213 1.374 . S
C4215 C4212 1.499 . S
C4215 C4216 1.373 . S
C4215 C4217 1.389 . S
C4216 H4189 0.950 . S
C4216 C4202 1.377 . S
C4216 C4215 1.373 . S
C4217 C4201 1.377 . S
C4217 C4215 1.389 . S
C4217 C4218 1.524 . S
C4218 C4217 1.524 . S
C4218 C4219 1.397 . S
C4218 C4223 1.363 . S
C4219 H4190 0.950 . S
C4219 C4218 1.397 . S
C4219 C4220 1.334 . S
C4220 H4191 0.950 . S
C4220 C4219 1.334 . S
C4220 C4221 1.287 . S
C4221 C4220 1.287 . S
C4221 C4222 1.524 . S
C4221 H4224 0.999 . S
C4222 H4192 0.950 . S
C4222 C4221 1.524 . S
C4222 C4223 1.415 . S
C4223 H4193 0.950 . S
C4223 C4218 1.363 . S
C4223 C4222 1.415 . S
H4224 C4221 0.999 . S
H4225 C4206 0.913 . S
H4226 C4244 0.951 . S
H4227 C4246 0.951 . S
H4228 C4248 0.950 . S
H4229 C4249 0.950 . S
H4230 C4251 0.950 . S
H4231 C4254 0.950 . S
H4232 C4255 0.950 . S
H4233 C4257 0.950 . S
H4234 C4258 0.950 . S
H4235 C4259 0.951 . S
H4236 C4261 0.951 . S
H4237 C4263 0.950 . S
H4238 C4264 0.950 . S
H4239 C4266 0.950 . S
H4240 C4269 0.950 . S
H4241 C4270 0.950 . S
H4242 C4272 0.950 . S
H4243 C4273 0.950 . S
C4244 H4226 0.951 . S
C4244 C4245 1.366 . S
C4244 C4246 1.388 . S
C4245 C4244 1.366 . S
C4245 C4249 1.385 . S
C4246 H4227 0.951 . S
C4246 C4244 1.388 . S
C4246 C4247 1.366 . S
C4247 C4246 1.366 . S
C4247 C4248 1.414 . S
C4247 C4250 1.499 . S
C4248 H4228 0.950 . S
C4248 C4247 1.414 . S
C4248 C4249 1.374 . S
C4249 H4229 0.950 . S
C4249 C4245 1.385 . S
C4249 C4248 1.374 . S
C4250 C4247 1.499 . S
C4250 C4251 1.373 . S
C4250 C4252 1.389 . S
C4251 H4230 0.950 . S
C4251 C4250 1.373 . S
C4251 C4267 1.377 . S
C4252 C4250 1.389 . S
C4252 C4253 1.524 . S
C4252 C4266 1.377 . S
C4253 C4252 1.524 . S
C4253 C4254 1.397 . S
C4253 C4258 1.363 . S
C4254 H4231 0.950 . S
C4254 C4253 1.397 . S
C4254 C4255 1.334 . S
C4255 H4232 0.950 . S
C4255 C4254 1.334 . S
C4255 C4256 1.287 . S
C4256 C4255 1.287 . S
C4256 C4257 1.524 . S
C4256 H4275 0.913 . S
C4257 H4233 0.950 . S
C4257 C4256 1.524 . S
C4257 C4258 1.415 . S
C4258 H4234 0.950 . S
C4258 C4253 1.363 . S
C4258 C4257 1.415 . S
C4259 H4235 0.951 . S
C4259 C4260 1.366 . S
C4259 C4261 1.388 . S
C4260 C4259 1.366 . S
C4260 C4264 1.385 . S
C4261 H4236 0.951 . S
C4261 C4259 1.388 . S
C4261 C4262 1.366 . S
C4262 C4261 1.366 . S
C4262 C4263 1.414 . S
C4262 C4265 1.499 . S
C4263 H4237 0.950 . S
C4263 C4262 1.414 . S
C4263 C4264 1.374 . S
C4264 H4238 0.950 . S
C4264 C4260 1.385 . S
C4264 C4263 1.374 . S
C4265 C4262 1.499 . S
C4265 C4266 1.373 . S
C4265 C4267 1.389 . S
C4266 H4239 0.950 . S
C4266 C4252 1.377 . S
C4266 C4265 1.373 . S
C4267 C4251 1.377 . S
C4267 C4265 1.389 . S
C4267 C4268 1.524 . S
C4268 C4267 1.524 . S
C4268 C4269 1.397 . S
C4268 C4273 1.363 . S
C4269 H4240 0.950 . S
C4269 C4268 1.397 . S
C4269 C4270 1.334 . S
C4270 H4241 0.950 . S
C4270 C4269 1.334 . S
C4270 C4271 1.287 . S
C4271 C4270 1.287 . S
C4271 C4272 1.524 . S
C4271 H4274 0.999 . S
C4272 H4242 0.950 . S
C4272 C4271 1.524 . S
C4272 C4273 1.415 . S
C4273 H4243 0.950 . S
C4273 C4268 1.363 . S
C4273 C4272 1.415 . S
H4274 C4271 0.999 . S
H4275 C4256 0.913 . S
H4276 C4294 0.951 . S
H4277 C4296 0.951 . S
H4278 C4298 0.950 . S
H4279 C4299 0.950 . S
H4280 C4301 0.950 . S
H4281 C4304 0.950 . S
H4282 C4305 0.950 . S
H4283 C4307 0.950 . S
H4284 C4308 0.950 . S
H4285 C4309 0.951 . S
H4286 C4311 0.951 . S
H4287 C4313 0.950 . S
H4288 C4314 0.950 . S
H4289 C4316 0.950 . S
H4290 C4319 0.950 . S
H4291 C4320 0.950 . S
H4292 C4322 0.950 . S
H4293 C4323 0.950 . S
C4294 H4276 0.951 . S
C4294 C4295 1.366 . S
C4294 C4296 1.388 . S
C4295 C4294 1.366 . S
C4295 C4299 1.385 . S
C4296 H4277 0.951 . S
C4296 C4294 1.388 . S
C4296 C4297 1.366 . S
C4297 C4296 1.366 . S
C4297 C4298 1.414 . S
C4297 C4300 1.499 . S
C4298 H4278 0.950 . S
C4298 C4297 1.414 . S
C4298 C4299 1.374 . S
C4299 H4279 0.950 . S
C4299 C4295 1.385 . S
C4299 C4298 1.374 . S
C4300 C4297 1.499 . S
C4300 C4301 1.373 . S
C4300 C4302 1.389 . S
C4301 H4280 0.950 . S
C4301 C4300 1.373 . S
C4301 C4317 1.377 . S
C4302 C4300 1.389 . S
C4302 C4303 1.524 . S
C4302 C4316 1.377 . S
C4303 C4302 1.524 . S
C4303 C4304 1.397 . S
C4303 C4308 1.363 . S
C4304 H4281 0.950 . S
C4304 C4303 1.397 . S
C4304 C4305 1.334 1_565 S
C4305 H4282 0.950 . S
C4305 C4304 1.334 1_545 S
C4305 C4306 1.287 . S
C4306 C4305 1.287 . S
C4306 C4307 1.524 . S
C4306 H4325 0.913 . S
C4307 H4283 0.950 . S
C4307 C4306 1.524 . S
C4307 C4308 1.415 1_545 S
C4308 H4284 0.950 . S
C4308 C4303 1.363 . S
C4308 C4307 1.415 1_565 S
C4309 H4285 0.951 . S
C4309 C4310 1.366 . S
C4309 C4311 1.388 . S
C4310 C4309 1.366 . S
C4310 C4314 1.385 . S
C4311 H4286 0.951 . S
C4311 C4309 1.388 . S
C4311 C4312 1.366 . S
C4312 C4311 1.366 . S
C4312 C4313 1.414 . S
C4312 C4315 1.499 . S
C4313 H4287 0.950 . S
C4313 C4312 1.414 . S
C4313 C4314 1.374 . S
C4314 H4288 0.950 . S
C4314 C4310 1.385 . S
C4314 C4313 1.374 . S
C4315 C4312 1.499 . S
C4315 C4316 1.373 . S
C4315 C4317 1.389 . S
C4316 H4289 0.950 . S
C4316 C4302 1.377 . S
C4316 C4315 1.373 . S
C4317 C4301 1.377 . S
C4317 C4315 1.389 . S
C4317 C4318 1.524 . S
C4318 C4317 1.524 . S
C4318 C4319 1.397 . S
C4318 C4323 1.363 . S
C4319 H4290 0.950 . S
C4319 C4318 1.397 . S
C4319 C4320 1.334 . S
C4320 H4291 0.950 . S
C4320 C4319 1.334 . S
C4320 C4321 1.287 . S
C4321 C4320 1.287 . S
C4321 C4322 1.524 . S
C4321 H4324 0.999 . S
C4322 H4292 0.950 . S
C4322 C4321 1.524 . S
C4322 C4323 1.415 . S
C4323 H4293 0.950 . S
C4323 C4318 1.363 . S
C4323 C4322 1.415 . S
H4324 C4321 0.999 . S
H4325 C4306 0.913 . S
H4326 C4344 0.951 . S
H4327 C4346 0.951 . S
H4328 C4348 0.950 . S
H4329 C4349 0.950 . S
H4330 C4351 0.950 . S
H4331 C4354 0.950 . S
H4332 C4355 0.950 . S
H4333 C4357 0.950 . S
H4334 C4358 0.950 1_545 S
H4335 C4359 0.951 . S
H4336 C4361 0.951 . S
H4337 C4363 0.950 . S
H4338 C4364 0.950 . S
H4339 C4366 0.950 1_556 S
H4340 C4369 0.950 . S
H4341 C4370 0.950 . S
H4342 C4372 0.950 . S
H4343 C4373 0.950 . S
C4344 H4326 0.951 . S
C4344 C4345 1.366 . S
C4344 C4346 1.388 . S
C4345 C4344 1.366 . S
C4345 C4349 1.385 . S
C4346 H4327 0.951 . S
C4346 C4344 1.388 . S
C4346 C4347 1.366 . S
C4347 C4346 1.366 . S
C4347 C4348 1.414 . S
C4347 C4350 1.499 . S
C4348 H4328 0.950 . S
C4348 C4347 1.414 . S
C4348 C4349 1.374 . S
C4349 H4329 0.950 . S
C4349 C4345 1.385 . S
C4349 C4348 1.374 . S
C4350 C4347 1.499 . S
C4350 C4351 1.373 . S
C4350 C4352 1.389 1_554 S
C4351 H4330 0.950 . S
C4351 C4350 1.373 . S
C4351 C4367 1.377 . S
C4352 C4350 1.389 1_556 S
C4352 C4353 1.524 . S
C4352 C4366 1.377 1_556 S
C4353 C4352 1.524 . S
C4353 C4354 1.397 . S
C4353 C4358 1.363 . S
C4354 H4331 0.950 . S
C4354 C4353 1.397 . S
C4354 C4355 1.334 . S
C4355 H4332 0.950 . S
C4355 C4354 1.334 . S
C4355 C4356 1.287 . S
C4356 C4355 1.287 . S
C4356 C4357 1.524 1_565 S
C4356 H4375 0.913 . S
C4357 H4333 0.950 . S
C4357 C4356 1.524 1_545 S
C4357 C4358 1.415 1_545 S
C4358 H4334 0.950 1_565 S
C4358 C4353 1.363 . S
C4358 C4357 1.415 1_565 S
C4359 H4335 0.951 . S
C4359 C4360 1.366 1_565 S
C4359 C4361 1.388 . S
C4360 C4359 1.366 1_545 S
C4360 C4364 1.385 . S
C4361 H4336 0.951 . S
C4361 C4359 1.388 . S
C4361 C4362 1.366 . S
C4362 C4361 1.366 . S
C4362 C4363 1.414 1_565 S
C4362 C4365 1.499 . S
C4363 H4337 0.950 . S
C4363 C4362 1.414 1_545 S
C4363 C4364 1.374 . S
C4364 H4338 0.950 . S
C4364 C4360 1.385 . S
C4364 C4363 1.374 . S
C4365 C4362 1.499 . S
C4365 C4366 1.373 . S
C4365 C4367 1.389 . S
C4366 H4339 0.950 1_554 S
C4366 C4352 1.377 1_554 S
C4366 C4365 1.373 . S
C4367 C4351 1.377 . S
C4367 C4365 1.389 . S
C4367 C4368 1.524 . S
C4368 C4367 1.524 . S
C4368 C4369 1.397 . S
C4368 C4373 1.363 . S
C4369 H4340 0.950 . S
C4369 C4368 1.397 . S
C4369 C4370 1.334 . S
C4370 H4341 0.950 . S
C4370 C4369 1.334 . S
C4370 C4371 1.287 . S
C4371 C4370 1.287 . S
C4371 C4372 1.524 . S
C4371 H4374 0.999 . S
C4372 H4342 0.950 . S
C4372 C4371 1.524 . S
C4372 C4373 1.415 . S
C4373 H4343 0.950 . S
C4373 C4368 1.363 . S
C4373 C4372 1.415 . S
H4374 C4371 0.999 . S
H4375 C4356 0.913 . S
H4376 C4394 0.951 . S
H4377 C4396 0.951 . S
H4378 C4398 0.950 . S
H4379 C4399 0.950 . S
H4380 C4401 0.950 . S
H4381 C4404 0.950 . S
H4382 C4405 0.950 . S
H4383 C4407 0.950 . S
H4384 C4408 0.950 . S
H4385 C4409 0.951 . S
H4386 C4411 0.951 . S
H4387 C4413 0.950 . S
H4388 C4414 0.950 . S
H4389 C4416 0.950 . S
H4390 C4419 0.950 . S
H4391 C4420 0.950 . S
H4392 C4422 0.950 . S
H4393 C4423 0.950 . S
C4394 H4376 0.951 . S
C4394 C4395 1.366 . S
C4394 C4396 1.388 . S
C4395 C4394 1.366 . S
C4395 C4399 1.385 . S
C4396 H4377 0.951 . S
C4396 C4394 1.388 . S
C4396 C4397 1.366 . S
C4397 C4396 1.366 . S
C4397 C4398 1.414 . S
C4397 C4400 1.499 . S
C4398 H4378 0.950 . S
C4398 C4397 1.414 . S
C4398 C4399 1.374 . S
C4399 H4379 0.950 . S
C4399 C4395 1.385 . S
C4399 C4398 1.374 . S
C4400 C4397 1.499 . S
C4400 C4401 1.373 . S
C4400 C4402 1.389 . S
C4401 H4380 0.950 . S
C4401 C4400 1.373 . S
C4401 C4417 1.377 . S
C4402 C4400 1.389 . S
C4402 C4403 1.524 . S
C4402 C4416 1.377 . S
C4403 C4402 1.524 . S
C4403 C4404 1.397 . S
C4403 C4408 1.363 . S
C4404 H4381 0.950 . S
C4404 C4403 1.397 . S
C4404 C4405 1.334 . S
C4405 H4382 0.950 . S
C4405 C4404 1.334 . S
C4405 C4406 1.287 . S
C4406 C4405 1.287 . S
C4406 C4407 1.524 . S
C4406 H4425 0.913 . S
C4407 H4383 0.950 . S
C4407 C4406 1.524 . S
C4407 C4408 1.415 . S
C4408 H4384 0.950 . S
C4408 C4403 1.363 . S
C4408 C4407 1.415 . S
C4409 H4385 0.951 . S
C4409 C4410 1.366 . S
C4409 C4411 1.388 . S
C4410 C4409 1.366 . S
C4410 C4414 1.385 . S
C4411 H4386 0.951 . S
C4411 C4409 1.388 . S
C4411 C4412 1.366 . S
C4412 C4411 1.366 . S
C4412 C4413 1.414 . S
C4412 C4415 1.499 . S
C4413 H4387 0.950 . S
C4413 C4412 1.414 . S
C4413 C4414 1.374 . S
C4414 H4388 0.950 . S
C4414 C4410 1.385 . S
C4414 C4413 1.374 . S
C4415 C4412 1.499 . S
C4415 C4416 1.373 . S
C4415 C4417 1.389 . S
C4416 H4389 0.950 . S
C4416 C4402 1.377 . S
C4416 C4415 1.373 . S
C4417 C4401 1.377 . S
C4417 C4415 1.389 . S
C4417 C4418 1.524 . S
C4418 C4417 1.524 . S
C4418 C4419 1.397 . S
C4418 C4423 1.363 . S
C4419 H4390 0.950 . S
C4419 C4418 1.397 . S
C4419 C4420 1.334 . S
C4420 H4391 0.950 . S
C4420 C4419 1.334 . S
C4420 C4421 1.287 . S
C4421 C4420 1.287 . S
C4421 C4422 1.524 . S
C4421 H4424 0.999 . S
C4422 H4392 0.950 . S
C4422 C4421 1.524 . S
C4422 C4423 1.415 . S
C4423 H4393 0.950 . S
C4423 C4418 1.363 . S
C4423 C4422 1.415 . S
H4424 C4421 0.999 . S
H4425 C4406 0.913 . S
H4426 C4444 0.969 . S
H4427 C4446 0.951 . S
H4428 C4448 0.950 . S
H4429 C4449 0.950 . S
H4430 C4451 0.950 . S
H4431 C4454 0.950 1_554 S
H4432 C4455 0.950 . S
H4433 C4457 0.950 . S
H4434 C4458 0.950 . S
H4435 C4459 0.951 . S
H4436 C4461 0.951 . S
H4437 C4463 0.950 . S
H4438 C4464 0.950 . S
H4439 C4466 0.950 . S
H4440 C4469 0.950 . S
H4441 C4470 0.950 . S
H4442 C4472 0.950 . S
H4443 C4473 0.950 . S
C4444 H4426 0.969 . S
C4444 C4445 1.366 . S
C4444 C4446 1.388 . S
C4445 C4444 1.366 . S
C4445 C4449 1.385 . S
C4446 H4427 0.951 . S
C4446 C4444 1.388 . S
C4446 C4447 1.366 . S
C4447 C4446 1.366 . S
C4447 C4448 1.414 . S
C4447 C4450 1.499 . S
C4448 H4428 0.950 . S
C4448 C4447 1.414 . S
C4448 C4449 1.374 . S
C4449 H4429 0.950 . S
C4449 C4445 1.385 . S
C4449 C4448 1.374 . S
C4450 C4447 1.499 . S
C4450 C4451 1.373 . S
C4450 C4452 1.389 . S
C4451 H4430 0.950 . S
C4451 C4450 1.373 . S
C4451 C4467 1.377 . S
C4452 C4450 1.389 . S
C4452 C4453 1.480 1_554 S
C4452 C4466 1.377 . S
C4453 C4452 1.480 1_556 S
C4453 C4454 1.393 . S
C4453 C4458 1.408 . S
C4454 H4431 0.950 1_556 S
C4454 C4453 1.393 . S
C4454 C4455 1.334 . S
C4455 H4432 0.950 . S
C4455 C4454 1.334 . S
C4455 C4456 1.287 . S
C4456 C4455 1.287 . S
C4456 C4457 1.524 . S
C4456 H4475 0.913 . S
C4457 H4433 0.950 . S
C4457 C4456 1.524 . S
C4457 C4458 1.415 . S
C4458 H4434 0.950 . S
C4458 C4453 1.408 . S
C4458 C4457 1.415 . S
C4459 H4435 0.951 . S
C4459 C4460 1.366 . S
C4459 C4461 1.388 . S
C4460 C4459 1.366 . S
C4460 C4464 1.385 . S
C4461 H4436 0.951 . S
C4461 C4459 1.388 . S
C4461 C4462 1.366 . S
C4462 C4461 1.366 . S
C4462 C4463 1.414 . S
C4462 C4465 1.499 . S
C4463 H4437 0.950 . S
C4463 C4462 1.414 . S
C4463 C4464 1.374 . S
C4464 H4438 0.950 . S
C4464 C4460 1.385 . S
C4464 C4463 1.374 . S
C4465 C4462 1.499 . S
C4465 C4466 1.373 . S
C4465 C4467 1.389 . S
C4466 H4439 0.950 . S
C4466 C4452 1.377 . S
C4466 C4465 1.373 . S
C4467 C4451 1.377 . S
C4467 C4465 1.389 . S
C4467 C4468 1.524 . S
C4468 C4467 1.524 . S
C4468 C4469 1.397 . S
C4468 C4473 1.363 . S
C4469 H4440 0.950 . S
C4469 C4468 1.397 . S
C4469 C4470 1.334 . S
C4470 H4441 0.950 . S
C4470 C4469 1.334 . S
C4470 C4471 1.287 . S
C4471 C4470 1.287 . S
C4471 C4472 1.524 . S
C4471 H4474 0.999 . S
C4472 H4442 0.950 . S
C4472 C4471 1.524 . S
C4472 C4473 1.415 . S
C4473 H4443 0.950 . S
C4473 C4468 1.363 . S
C4473 C4472 1.415 . S
H4474 C4471 0.999 . S
H4475 C4456 0.913 . S
H4476 C4494 0.951 . S
H4477 C4496 0.951 . S
H4478 C4498 0.950 . S
H4479 C4499 0.950 . S
H4480 C4501 0.950 . S
H4481 C4504 0.950 . S
H4482 C4505 0.950 . S
H4483 C4507 0.950 . S
H4484 C4508 0.950 . S
H4485 C4509 0.951 . S
H4486 C4511 0.951 . S
H4487 C4513 0.950 . S
H4488 C4514 0.950 . S
H4489 C4516 0.950 . S
H4490 C4519 0.950 . S
H4491 C4520 0.950 . S
H4492 C4522 0.950 . S
H4493 C4523 0.950 . S
C4494 H4476 0.951 . S
C4494 C4495 1.366 . S
C4494 C4496 1.388 . S
C4495 C4494 1.366 . S
C4495 C4499 1.385 . S
C4496 H4477 0.951 . S
C4496 C4494 1.388 . S
C4496 C4497 1.366 . S
C4497 C4496 1.366 . S
C4497 C4498 1.414 . S
C4497 C4500 1.499 . S
C4498 H4478 0.950 . S
C4498 C4497 1.414 . S
C4498 C4499 1.374 . S
C4499 H4479 0.950 . S
C4499 C4495 1.385 . S
C4499 C4498 1.374 . S
C4500 C4497 1.499 . S
C4500 C4501 1.373 . S
C4500 C4502 1.389 . S
C4501 H4480 0.950 . S
C4501 C4500 1.373 . S
C4501 C4517 1.377 . S
C4502 C4500 1.389 . S
C4502 C4503 1.524 . S
C4502 C4516 1.377 . S
C4503 C4502 1.524 . S
C4503 C4504 1.397 . S
C4503 C4508 1.363 . S
C4504 H4481 0.950 . S
C4504 C4503 1.397 . S
C4504 C4505 1.334 . S
C4505 H4482 0.950 . S
C4505 C4504 1.334 . S
C4505 C4506 1.287 . S
C4506 C4505 1.287 . S
C4506 C4507 1.524 . S
C4506 H4525 0.913 . S
C4507 H4483 0.950 . S
C4507 C4506 1.524 . S
C4507 C4508 1.415 . S
C4508 H4484 0.950 . S
C4508 C4503 1.363 . S
C4508 C4507 1.415 . S
C4509 H4485 0.951 . S
C4509 C4510 1.366 . S
C4509 C4511 1.388 . S
C4510 C4509 1.366 . S
C4510 C4514 1.385 . S
C4511 H4486 0.951 . S
C4511 C4509 1.388 . S
C4511 C4512 1.366 . S
C4512 C4511 1.366 . S
C4512 C4513 1.414 . S
C4512 C4515 1.499 . S
C4513 H4487 0.950 . S
C4513 C4512 1.414 . S
C4513 C4514 1.374 . S
C4514 H4488 0.950 . S
C4514 C4510 1.385 . S
C4514 C4513 1.374 . S
C4515 C4512 1.499 . S
C4515 C4516 1.373 . S
C4515 C4517 1.389 . S
C4516 H4489 0.950 . S
C4516 C4502 1.377 . S
C4516 C4515 1.373 . S
C4517 C4501 1.377 . S
C4517 C4515 1.389 . S
C4517 C4518 1.524 . S
C4518 C4517 1.524 . S
C4518 C4519 1.397 . S
C4518 C4523 1.363 . S
C4519 H4490 0.950 . S
C4519 C4518 1.397 . S
C4519 C4520 1.334 . S
C4520 H4491 0.950 . S
C4520 C4519 1.334 . S
C4520 C4521 1.287 . S
C4521 C4520 1.287 . S
C4521 C4522 1.524 . S
C4521 H4524 0.999 . S
C4522 H4492 0.950 . S
C4522 C4521 1.524 . S
C4522 C4523 1.415 . S
C4523 H4493 0.950 . S
C4523 C4518 1.363 . S
C4523 C4522 1.415 . S
H4524 C4521 0.999 . S
H4525 C4506 0.913 . S
H4526 C4544 0.951 . S
H4527 C4546 0.951 . S
H4528 C4548 0.950 . S
H4529 C4549 0.950 . S
H4530 C4551 0.950 . S
H4531 C4554 0.950 . S
H4532 C4555 0.950 . S
H4533 C4557 0.950 . S
H4534 C4558 0.950 . S
H4535 C4559 0.951 . S
H4536 C4561 0.951 . S
H4537 C4563 0.950 . S
H4538 C4564 0.950 . S
H4539 C4566 0.950 . S
H4540 C4569 0.950 . S
H4541 C4570 0.950 . S
H4542 C4572 0.950 . S
H4543 C4573 0.950 . S
C4544 H4526 0.951 . S
C4544 C4545 1.366 . S
C4544 C4546 1.388 . S
C4545 C4544 1.366 . S
C4545 C4549 1.385 . S
C4546 H4527 0.951 . S
C4546 C4544 1.388 . S
C4546 C4547 1.366 . S
C4547 C4546 1.366 . S
C4547 C4548 1.414 . S
C4547 C4550 1.499 . S
C4548 H4528 0.950 . S
C4548 C4547 1.414 . S
C4548 C4549 1.374 . S
C4549 H4529 0.950 . S
C4549 C4545 1.385 . S
C4549 C4548 1.374 . S
C4550 C4547 1.499 . S
C4550 C4551 1.373 . S
C4550 C4552 1.389 . S
C4551 H4530 0.950 . S
C4551 C4550 1.373 . S
C4551 C4567 1.377 . S
C4552 C4550 1.389 . S
C4552 C4553 1.524 . S
C4552 C4566 1.377 . S
C4553 C4552 1.524 . S
C4553 C4554 1.397 . S
C4553 C4558 1.363 . S
C4554 H4531 0.950 . S
C4554 C4553 1.397 . S
C4554 C4555 1.334 . S
C4555 H4532 0.950 . S
C4555 C4554 1.334 . S
C4555 C4556 1.287 . S
C4556 C4555 1.287 . S
C4556 C4557 1.524 . S
C4556 H4575 0.913 . S
C4557 H4533 0.950 . S
C4557 C4556 1.524 . S
C4557 C4558 1.415 . S
C4558 H4534 0.950 . S
C4558 C4553 1.363 . S
C4558 C4557 1.415 . S
C4559 H4535 0.951 . S
C4559 C4560 1.366 . S
C4559 C4561 1.388 . S
C4560 C4559 1.366 . S
C4560 C4564 1.385 . S
C4561 H4536 0.951 . S
C4561 C4559 1.388 . S
C4561 C4562 1.366 . S
C4562 C4561 1.366 . S
C4562 C4563 1.414 . S
C4562 C4565 1.499 . S
C4563 H4537 0.950 . S
C4563 C4562 1.414 . S
C4563 C4564 1.374 . S
C4564 H4538 0.950 . S
C4564 C4560 1.385 . S
C4564 C4563 1.374 . S
C4565 C4562 1.499 . S
C4565 C4566 1.373 . S
C4565 C4567 1.389 . S
C4566 H4539 0.950 . S
C4566 C4552 1.377 . S
C4566 C4565 1.373 . S
C4567 C4551 1.377 . S
C4567 C4565 1.389 . S
C4567 C4568 1.524 . S
C4568 C4567 1.524 . S
C4568 C4569 1.397 . S
C4568 C4573 1.363 . S
C4569 H4540 0.950 . S
C4569 C4568 1.397 . S
C4569 C4570 1.334 . S
C4570 H4541 0.950 . S
C4570 C4569 1.334 . S
C4570 C4571 1.287 . S
C4571 C4570 1.287 . S
C4571 C4572 1.524 . S
C4571 H4574 0.999 . S
C4572 H4542 0.950 . S
C4572 C4571 1.524 . S
C4572 C4573 1.415 . S
C4573 H4543 0.950 . S
C4573 C4568 1.363 . S
C4573 C4572 1.415 . S
H4574 C4571 0.999 . S
H4575 C4556 0.913 . S
H4576 C4594 0.951 . S
H4577 C4596 0.951 . S
H4578 C4598 0.950 . S
H4579 C4599 0.950 . S
H4580 C4601 0.950 . S
H4581 C4604 0.950 . S
H4582 C4605 0.950 . S
H4583 C4607 0.950 . S
H4584 C4608 0.950 . S
H4585 C4609 0.951 . S
H4586 C4611 0.951 . S
H4587 C4613 0.950 . S
H4588 C4614 0.950 . S
H4589 C4616 0.950 . S
H4590 C4619 0.950 . S
H4591 C4620 0.950 . S
H4592 C4622 0.950 . S
H4593 C4623 0.950 . S
C4594 H4576 0.951 . S
C4594 C4595 1.366 . S
C4594 C4596 1.388 . S
C4595 C4594 1.366 . S
C4595 C4599 1.385 . S
C4596 H4577 0.951 . S
C4596 C4594 1.388 . S
C4596 C4597 1.366 . S
C4597 C4596 1.366 . S
C4597 C4598 1.414 . S
C4597 C4600 1.499 . S
C4598 H4578 0.950 . S
C4598 C4597 1.414 . S
C4598 C4599 1.374 . S
C4599 H4579 0.950 . S
C4599 C4595 1.385 . S
C4599 C4598 1.374 . S
C4600 C4597 1.499 . S
C4600 C4601 1.373 . S
C4600 C4602 1.389 . S
C4601 H4580 0.950 . S
C4601 C4600 1.373 . S
C4601 C4617 1.377 . S
C4602 C4600 1.389 . S
C4602 C4603 1.524 . S
C4602 C4616 1.377 . S
C4603 C4602 1.524 . S
C4603 C4604 1.397 . S
C4603 C4608 1.363 . S
C4604 H4581 0.950 . S
C4604 C4603 1.397 . S
C4604 C4605 1.334 . S
C4605 H4582 0.950 . S
C4605 C4604 1.334 . S
C4605 C4606 1.287 . S
C4606 C4605 1.287 . S
C4606 C4607 1.524 . S
C4606 H4625 0.913 . S
C4607 H4583 0.950 . S
C4607 C4606 1.524 . S
C4607 C4608 1.415 . S
C4608 H4584 0.950 . S
C4608 C4603 1.363 . S
C4608 C4607 1.415 . S
C4609 H4585 0.951 . S
C4609 C4610 1.366 . S
C4609 C4611 1.388 . S
C4610 C4609 1.366 . S
C4610 C4614 1.385 . S
C4611 H4586 0.951 . S
C4611 C4609 1.388 . S
C4611 C4612 1.366 . S
C4612 C4611 1.366 . S
C4612 C4613 1.414 . S
C4612 C4615 1.499 . S
C4613 H4587 0.950 . S
C4613 C4612 1.414 . S
C4613 C4614 1.374 . S
C4614 H4588 0.950 . S
C4614 C4610 1.385 . S
C4614 C4613 1.374 . S
C4615 C4612 1.499 . S
C4615 C4616 1.373 . S
C4615 C4617 1.389 . S
C4616 H4589 0.950 . S
C4616 C4602 1.377 . S
C4616 C4615 1.373 . S
C4617 C4601 1.377 . S
C4617 C4615 1.389 . S
C4617 C4618 1.524 . S
C4618 C4617 1.524 . S
C4618 C4619 1.397 . S
C4618 C4623 1.363 . S
C4619 H4590 0.950 . S
C4619 C4618 1.397 . S
C4619 C4620 1.334 . S
C4620 H4591 0.950 . S
C4620 C4619 1.334 . S
C4620 C4621 1.287 . S
C4621 C4620 1.287 . S
C4621 C4622 1.524 . S
C4621 H4624 0.999 . S
C4622 H4592 0.950 . S
C4622 C4621 1.524 . S
C4622 C4623 1.415 . S
C4623 H4593 0.950 . S
C4623 C4618 1.363 . S
C4623 C4622 1.415 . S
H4624 C4621 0.999 . S
H4625 C4606 0.913 . S
H4626 C4644 0.951 . S
H4627 C4646 0.951 . S
H4628 C4648 0.950 . S
H4629 C4649 0.950 . S
H4630 C4651 0.950 . S
H4631 C4654 0.950 . S
H4632 C4655 0.950 . S
H4633 C4657 0.950 . S
H4634 C4658 0.950 . S
H4635 C4659 0.951 . S
H4636 C4661 0.951 . S
H4637 C4663 0.950 . S
H4638 C4664 0.950 . S
H4639 C4666 0.950 . S
H4640 C4669 0.950 . S
H4641 C4670 0.950 . S
H4642 C4672 0.950 . S
H4643 C4673 0.950 . S
C4644 H4626 0.951 . S
C4644 C4645 1.366 . S
C4644 C4646 1.388 . S
C4645 C4644 1.366 . S
C4645 C4649 1.385 . S
C4646 H4627 0.951 . S
C4646 C4644 1.388 . S
C4646 C4647 1.366 . S
C4647 C4646 1.366 . S
C4647 C4648 1.414 . S
C4647 C4650 1.499 . S
C4648 H4628 0.950 . S
C4648 C4647 1.414 . S
C4648 C4649 1.374 . S
C4649 H4629 0.950 . S
C4649 C4645 1.385 . S
C4649 C4648 1.374 . S
C4650 C4647 1.499 . S
C4650 C4651 1.373 . S
C4650 C4652 1.389 . S
C4651 H4630 0.950 . S
C4651 C4650 1.373 . S
C4651 C4667 1.377 . S
C4652 C4650 1.389 . S
C4652 C4653 1.524 . S
C4652 C4666 1.377 . S
C4653 C4652 1.524 . S
C4653 C4654 1.397 . S
C4653 C4658 1.363 . S
C4654 H4631 0.950 . S
C4654 C4653 1.397 . S
C4654 C4655 1.334 . S
C4655 H4632 0.950 . S
C4655 C4654 1.334 . S
C4655 C4656 1.287 . S
C4656 C4655 1.287 . S
C4656 C4657 1.524 . S
C4656 H4675 0.913 . S
C4657 H4633 0.950 . S
C4657 C4656 1.524 . S
C4657 C4658 1.415 . S
C4658 H4634 0.950 . S
C4658 C4653 1.363 . S
C4658 C4657 1.415 . S
C4659 H4635 0.951 . S
C4659 C4660 1.366 . S
C4659 C4661 1.388 . S
C4660 C4659 1.366 . S
C4660 C4664 1.385 . S
C4661 H4636 0.951 . S
C4661 C4659 1.388 . S
C4661 C4662 1.366 . S
C4662 C4661 1.366 . S
C4662 C4663 1.414 . S
C4662 C4665 1.499 . S
C4663 H4637 0.950 . S
C4663 C4662 1.414 . S
C4663 C4664 1.374 . S
C4664 H4638 0.950 . S
C4664 C4660 1.385 . S
C4664 C4663 1.374 . S
C4665 C4662 1.499 . S
C4665 C4666 1.373 . S
C4665 C4667 1.389 . S
C4666 H4639 0.950 . S
C4666 C4652 1.377 . S
C4666 C4665 1.373 . S
C4667 C4651 1.377 . S
C4667 C4665 1.389 . S
C4667 C4668 1.524 . S
C4668 C4667 1.524 . S
C4668 C4669 1.397 . S
C4668 C4673 1.363 . S
C4669 H4640 0.950 . S
C4669 C4668 1.397 . S
C4669 C4670 1.334 . S
C4670 H4641 0.950 . S
C4670 C4669 1.334 . S
C4670 C4671 1.287 . S
C4671 C4670 1.287 . S
C4671 C4672 1.524 . S
C4671 H4674 0.999 . S
C4672 H4642 0.950 . S
C4672 C4671 1.524 . S
C4672 C4673 1.415 . S
C4673 H4643 0.950 . S
C4673 C4668 1.363 . S
C4673 C4672 1.415 . S
H4674 C4671 0.999 . S
H4675 C4656 0.913 . S
H4676 C4694 0.951 . S
H4677 C4696 0.951 . S
H4678 C4698 0.950 . S
H4679 C4699 0.950 . S
H4680 C4701 0.950 . S
H4681 C4704 0.931 1_455 S
H4682 C4705 0.950 . S
H4683 C4707 0.950 . S
H4684 C4708 0.961 . S
H4685 C4709 0.951 . S
H4686 C4711 0.951 . S
H4687 C4713 0.950 . S
H4688 C4714 0.950 . S
H4689 C4716 0.950 . S
H4690 C4719 0.950 . S
H4691 C4720 0.950 . S
H4692 C4722 0.950 . S
H4693 C4723 0.950 . S
C4694 H4676 0.951 . S
C4694 C4695 1.366 . S
C4694 C4696 1.388 . S
C4695 C4694 1.366 . S
C4695 C4699 1.385 . S
C4696 H4677 0.951 . S
C4696 C4694 1.388 . S
C4696 C4697 1.366 . S
C4697 C4696 1.366 . S
C4697 C4698 1.414 . S
C4697 C4700 1.499 . S
C4698 H4678 0.950 . S
C4698 C4697 1.414 . S
C4698 C4699 1.374 . S
C4699 H4679 0.950 . S
C4699 C4695 1.385 . S
C4699 C4698 1.374 . S
C4700 C4697 1.499 . S
C4700 C4701 1.373 . S
C4700 C4702 1.389 . S
C4701 H4680 0.950 . S
C4701 C4700 1.373 . S
C4701 C4717 1.377 . S
C4702 C4700 1.389 . S
C4702 C4703 1.524 . S
C4702 C4716 1.377 . S
C4703 C4702 1.524 . S
C4703 C4704 1.397 1_455 S
C4703 C4708 1.363 1_455 S
C4704 H4681 0.931 1_655 S
C4704 C4703 1.397 1_655 S
C4704 C4705 1.334 . S
C4705 H4682 0.950 . S
C4705 C4704 1.334 . S
C4705 C4706 1.287 . S
C4706 C4705 1.287 . S
C4706 C4707 1.524 . S
C4706 H4725 0.913 . S
C4707 H4683 0.950 . S
C4707 C4706 1.524 . S
C4707 C4708 1.415 . S
C4708 H4684 0.961 . S
C4708 C4703 1.363 1_655 S
C4708 C4707 1.415 . S
C4709 H4685 0.951 . S
C4709 C4710 1.366 . S
C4709 C4711 1.388 . S
C4710 C4709 1.366 . S
C4710 C4714 1.385 . S
C4711 H4686 0.951 . S
C4711 C4709 1.388 . S
C4711 C4712 1.366 . S
C4712 C4711 1.366 . S
C4712 C4713 1.414 . S
C4712 C4715 1.499 . S
C4713 H4687 0.950 . S
C4713 C4712 1.414 . S
C4713 C4714 1.374 . S
C4714 H4688 0.950 . S
C4714 C4710 1.385 . S
C4714 C4713 1.374 . S
C4715 C4712 1.499 . S
C4715 C4716 1.373 . S
C4715 C4717 1.389 . S
C4716 H4689 0.950 . S
C4716 C4702 1.377 . S
C4716 C4715 1.373 . S
C4717 C4701 1.377 . S
C4717 C4715 1.389 . S
C4717 C4718 1.524 . S
C4718 C4717 1.524 . S
C4718 C4719 1.397 . S
C4718 C4723 1.363 . S
C4719 H4690 0.950 . S
C4719 C4718 1.397 . S
C4719 C4720 1.334 . S
C4720 H4691 0.950 . S
C4720 C4719 1.334 . S
C4720 C4721 1.287 . S
C4721 C4720 1.287 . S
C4721 C4722 1.524 . S
C4721 H4724 0.999 . S
C4722 H4692 0.950 . S
C4722 C4721 1.524 . S
C4722 C4723 1.415 . S
C4723 H4693 0.950 . S
C4723 C4718 1.363 . S
C4723 C4722 1.415 . S
H4724 C4721 0.999 . S
H4725 C4706 0.913 . S
H4726 C4744 0.951 . S
H4727 C4746 0.951 . S
H4728 C4748 0.950 . S
H4729 C4749 0.950 . S
H4730 C4751 0.950 . S
H4731 C4754 0.950 . S
H4732 C4755 0.950 . S
H4733 C4757 0.950 . S
H4734 C4758 0.950 . S
H4735 C4759 0.951 . S
H4736 C4761 0.951 . S
H4737 C4763 0.950 . S
H4738 C4764 0.950 . S
H4739 C4766 0.950 . S
H4740 C4769 0.950 . S
H4741 C4770 0.950 . S
H4742 C4772 0.950 . S
H4743 C4773 0.950 . S
C4744 H4726 0.951 . S
C4744 C4745 1.366 . S
C4744 C4746 1.388 . S
C4745 C4744 1.366 . S
C4745 C4749 1.385 . S
C4746 H4727 0.951 . S
C4746 C4744 1.388 . S
C4746 C4747 1.366 . S
C4747 C4746 1.366 . S
C4747 C4748 1.414 . S
C4747 C4750 1.499 . S
C4748 H4728 0.950 . S
C4748 C4747 1.414 . S
C4748 C4749 1.374 . S
C4749 H4729 0.950 . S
C4749 C4745 1.385 . S
C4749 C4748 1.374 . S
C4750 C4747 1.499 . S
C4750 C4751 1.373 . S
C4750 C4752 1.389 . S
C4751 H4730 0.950 . S
C4751 C4750 1.373 . S
C4751 C4767 1.377 . S
C4752 C4750 1.389 . S
C4752 C4753 1.524 . S
C4752 C4766 1.377 . S
C4753 C4752 1.524 . S
C4753 C4754 1.397 . S
C4753 C4758 1.363 . S
C4754 H4731 0.950 . S
C4754 C4753 1.397 . S
C4754 C4755 1.334 . S
C4755 H4732 0.950 . S
C4755 C4754 1.334 . S
C4755 C4756 1.287 . S
C4756 C4755 1.287 . S
C4756 C4757 1.524 . S
C4756 H4775 0.913 . S
C4757 H4733 0.950 . S
C4757 C4756 1.524 . S
C4757 C4758 1.415 . S
C4758 H4734 0.950 . S
C4758 C4753 1.363 . S
C4758 C4757 1.415 . S
C4759 H4735 0.951 . S
C4759 C4760 1.366 . S
C4759 C4761 1.388 . S
C4760 C4759 1.366 . S
C4760 C4764 1.385 . S
C4761 H4736 0.951 . S
C4761 C4759 1.388 . S
C4761 C4762 1.366 . S
C4762 C4761 1.366 . S
C4762 C4763 1.414 . S
C4762 C4765 1.499 . S
C4763 H4737 0.950 . S
C4763 C4762 1.414 . S
C4763 C4764 1.374 . S
C4764 H4738 0.950 . S
C4764 C4760 1.385 . S
C4764 C4763 1.374 . S
C4765 C4762 1.499 . S
C4765 C4766 1.373 . S
C4765 C4767 1.389 . S
C4766 H4739 0.950 . S
C4766 C4752 1.377 . S
C4766 C4765 1.373 . S
C4767 C4751 1.377 . S
C4767 C4765 1.389 . S
C4767 C4768 1.524 . S
C4768 C4767 1.524 . S
C4768 C4769 1.397 . S
C4768 C4773 1.363 . S
C4769 H4740 0.950 . S
C4769 C4768 1.397 . S
C4769 C4770 1.334 . S
C4770 H4741 0.950 . S
C4770 C4769 1.334 . S
C4770 C4771 1.287 . S
C4771 C4770 1.287 . S
C4771 C4772 1.524 . S
C4771 H4774 0.999 . S
C4772 H4742 0.950 . S
C4772 C4771 1.524 . S
C4772 C4773 1.415 . S
C4773 H4743 0.950 . S
C4773 C4768 1.363 . S
C4773 C4772 1.415 . S
H4774 C4771 0.999 . S
H4775 C4756 0.913 . S
H4776 C4794 0.951 . S
H4777 C4796 0.951 . S
H4778 C4798 0.950 . S
H4779 C4799 0.950 . S
H4780 C4801 0.950 . S
H4781 C4804 0.950 . S
H4782 C4805 0.950 . S
H4783 C4807 0.950 . S
H4784 C4808 0.950 . S
H4785 C4809 0.951 . S
H4786 C4811 0.951 . S
H4787 C4813 0.950 . S
H4788 C4814 0.950 . S
H4789 C4816 0.950 . S
H4790 C4819 0.950 . S
H4791 C4820 0.950 . S
H4792 C4822 0.950 . S
H4793 C4823 0.950 . S
C4794 H4776 0.951 . S
C4794 C4795 1.366 . S
C4794 C4796 1.388 . S
C4795 C4794 1.366 . S
C4795 C4799 1.385 . S
C4796 H4777 0.951 . S
C4796 C4794 1.388 . S
C4796 C4797 1.366 . S
C4797 C4796 1.366 . S
C4797 C4798 1.414 . S
C4797 C4800 1.499 . S
C4798 H4778 0.950 . S
C4798 C4797 1.414 . S
C4798 C4799 1.374 . S
C4799 H4779 0.950 . S
C4799 C4795 1.385 . S
C4799 C4798 1.374 . S
C4800 C4797 1.499 . S
C4800 C4801 1.373 . S
C4800 C4802 1.389 . S
C4801 H4780 0.950 . S
C4801 C4800 1.373 . S
C4801 C4817 1.377 . S
C4802 C4800 1.389 . S
C4802 C4803 1.524 . S
C4802 C4816 1.377 . S
C4803 C4802 1.524 . S
C4803 C4804 1.397 . S
C4803 C4808 1.363 . S
C4804 H4781 0.950 . S
C4804 C4803 1.397 . S
C4804 C4805 1.334 . S
C4805 H4782 0.950 . S
C4805 C4804 1.334 . S
C4805 C4806 1.287 . S
C4806 C4805 1.287 . S
C4806 C4807 1.524 . S
C4806 H4825 0.913 . S
C4807 H4783 0.950 . S
C4807 C4806 1.524 . S
C4807 C4808 1.415 . S
C4808 H4784 0.950 . S
C4808 C4803 1.363 . S
C4808 C4807 1.415 . S
C4809 H4785 0.951 . S
C4809 C4810 1.366 . S
C4809 C4811 1.388 . S
C4810 C4809 1.366 . S
C4810 C4814 1.385 . S
C4811 H4786 0.951 . S
C4811 C4809 1.388 . S
C4811 C4812 1.366 . S
C4812 C4811 1.366 . S
C4812 C4813 1.414 . S
C4812 C4815 1.499 . S
C4813 H4787 0.950 . S
C4813 C4812 1.414 . S
C4813 C4814 1.374 . S
C4814 H4788 0.950 . S
C4814 C4810 1.385 . S
C4814 C4813 1.374 . S
C4815 C4812 1.499 . S
C4815 C4816 1.373 . S
C4815 C4817 1.389 . S
C4816 H4789 0.950 . S
C4816 C4802 1.377 . S
C4816 C4815 1.373 . S
C4817 C4801 1.377 . S
C4817 C4815 1.389 . S
C4817 C4818 1.524 . S
C4818 C4817 1.524 . S
C4818 C4819 1.397 . S
C4818 C4823 1.363 . S
C4819 H4790 0.950 . S
C4819 C4818 1.397 . S
C4819 C4820 1.334 . S
C4820 H4791 0.950 . S
C4820 C4819 1.334 . S
C4820 C4821 1.287 . S
C4821 C4820 1.287 . S
C4821 C4822 1.524 . S
C4821 H4824 0.999 . S
C4822 H4792 0.950 . S
C4822 C4821 1.524 . S
C4822 C4823 1.415 . S
C4823 H4793 0.950 . S
C4823 C4818 1.363 . S
C4823 C4822 1.415 . S
H4824 C4821 0.999 . S
H4825 C4806 0.913 . S
H4826 C4844 0.951 . S
H4827 C4846 0.951 . S
H4828 C4848 0.950 . S
H4829 C4849 0.950 . S
H4830 C4851 0.950 . S
H4831 C4854 0.950 . S
H4832 C4855 0.950 . S
H4833 C4857 0.950 . S
H4834 C4858 0.950 . S
H4835 C4859 0.951 . S
H4836 C4861 0.951 . S
H4837 C4863 0.950 . S
H4838 C4864 0.950 . S
H4839 C4866 0.950 . S
H4840 C4869 0.950 . S
H4841 C4870 0.950 . S
H4842 C4872 0.950 . S
H4843 C4873 0.950 . S
C4844 H4826 0.951 . S
C4844 C4845 1.366 . S
C4844 C4846 1.388 . S
C4845 C4844 1.366 . S
C4845 C4849 1.385 . S
C4846 H4827 0.951 . S
C4846 C4844 1.388 . S
C4846 C4847 1.366 . S
C4847 C4846 1.366 . S
C4847 C4848 1.414 . S
C4847 C4850 1.499 . S
C4848 H4828 0.950 . S
C4848 C4847 1.414 . S
C4848 C4849 1.374 . S
C4849 H4829 0.950 . S
C4849 C4845 1.385 . S
C4849 C4848 1.374 . S
C4850 C4847 1.499 . S
C4850 C4851 1.373 . S
C4850 C4852 1.389 . S
C4851 H4830 0.950 . S
C4851 C4850 1.373 . S
C4851 C4867 1.377 . S
C4852 C4850 1.389 . S
C4852 C4853 1.524 . S
C4852 C4866 1.377 . S
C4853 C4852 1.524 . S
C4853 C4854 1.397 . S
C4853 C4858 1.363 . S
C4854 H4831 0.950 . S
C4854 C4853 1.397 . S
C4854 C4855 1.334 . S
C4855 H4832 0.950 . S
C4855 C4854 1.334 . S
C4855 C4856 1.287 . S
C4856 C4855 1.287 . S
C4856 C4857 1.524 . S
C4856 H4875 0.913 . S
C4857 H4833 0.950 . S
C4857 C4856 1.524 . S
C4857 C4858 1.415 . S
C4858 H4834 0.950 . S
C4858 C4853 1.363 . S
C4858 C4857 1.415 . S
C4859 H4835 0.951 . S
C4859 C4860 1.366 . S
C4859 C4861 1.388 . S
C4860 C4859 1.366 . S
C4860 C4864 1.385 . S
C4861 H4836 0.951 . S
C4861 C4859 1.388 . S
C4861 C4862 1.366 . S
C4862 C4861 1.366 . S
C4862 C4863 1.414 . S
C4862 C4865 1.499 . S
C4863 H4837 0.950 . S
C4863 C4862 1.414 . S
C4863 C4864 1.374 . S
C4864 H4838 0.950 . S
C4864 C4860 1.385 . S
C4864 C4863 1.374 . S
C4865 C4862 1.499 . S
C4865 C4866 1.373 . S
C4865 C4867 1.389 . S
C4866 H4839 0.950 . S
C4866 C4852 1.377 . S
C4866 C4865 1.373 . S
C4867 C4851 1.377 . S
C4867 C4865 1.389 . S
C4867 C4868 1.524 . S
C4868 C4867 1.524 . S
C4868 C4869 1.397 . S
C4868 C4873 1.363 . S
C4869 H4840 0.950 . S
C4869 C4868 1.397 . S
C4869 C4870 1.334 . S
C4870 H4841 0.950 . S
C4870 C4869 1.334 . S
C4870 C4871 1.287 . S
C4871 C4870 1.287 . S
C4871 C4872 1.524 . S
C4871 H4874 0.999 . S
C4872 H4842 0.950 . S
C4872 C4871 1.524 . S
C4872 C4873 1.415 . S
C4873 H4843 0.950 . S
C4873 C4868 1.363 . S
C4873 C4872 1.415 . S
H4874 C4871 0.999 . S
H4875 C4856 0.913 . S
H4876 C4894 0.951 . S
H4877 C4896 0.951 . S
H4878 C4898 0.950 . S
H4879 C4899 0.950 . S
H4880 C4901 0.950 . S
H4881 C4904 0.950 . S
H4882 C4905 0.950 . S
H4883 C4907 0.950 . S
H4884 C4908 0.950 . S
H4885 C4909 0.951 . S
H4886 C4911 0.951 . S
H4887 C4913 0.950 . S
H4888 C4914 0.950 . S
H4889 C4916 0.950 . S
H4890 C4919 0.950 . S
H4891 C4920 0.950 . S
H4892 C4922 0.950 . S
H4893 C4923 0.950 . S
C4894 H4876 0.951 . S
C4894 C4895 1.366 . S
C4894 C4896 1.388 . S
C4895 C4894 1.366 . S
C4895 C4899 1.385 . S
C4896 H4877 0.951 . S
C4896 C4894 1.388 . S
C4896 C4897 1.366 . S
C4897 C4896 1.366 . S
C4897 C4898 1.414 . S
C4897 C4900 1.499 . S
C4898 H4878 0.950 . S
C4898 C4897 1.414 . S
C4898 C4899 1.374 . S
C4899 H4879 0.950 . S
C4899 C4895 1.385 . S
C4899 C4898 1.374 . S
C4900 C4897 1.499 . S
C4900 C4901 1.373 . S
C4900 C4902 1.389 . S
C4901 H4880 0.950 . S
C4901 C4900 1.373 . S
C4901 C4917 1.377 . S
C4902 C4900 1.389 . S
C4902 C4903 1.524 . S
C4902 C4916 1.377 . S
C4903 C4902 1.524 . S
C4903 C4904 1.397 . S
C4903 C4908 1.363 . S
C4904 H4881 0.950 . S
C4904 C4903 1.397 . S
C4904 C4905 1.334 . S
C4905 H4882 0.950 . S
C4905 C4904 1.334 . S
C4905 C4906 1.287 . S
C4906 C4905 1.287 . S
C4906 C4907 1.524 . S
C4906 H4925 0.913 . S
C4907 H4883 0.950 . S
C4907 C4906 1.524 . S
C4907 C4908 1.415 . S
C4908 H4884 0.950 . S
C4908 C4903 1.363 . S
C4908 C4907 1.415 . S
C4909 H4885 0.951 . S
C4909 C4910 1.366 . S
C4909 C4911 1.388 . S
C4910 C4909 1.366 . S
C4910 C4914 1.385 . S
C4911 H4886 0.951 . S
C4911 C4909 1.388 . S
C4911 C4912 1.366 . S
C4912 C4911 1.366 . S
C4912 C4913 1.414 . S
C4912 C4915 1.499 . S
C4913 H4887 0.950 . S
C4913 C4912 1.414 . S
C4913 C4914 1.374 . S
C4914 H4888 0.950 . S
C4914 C4910 1.385 . S
C4914 C4913 1.374 . S
C4915 C4912 1.499 . S
C4915 C4916 1.373 . S
C4915 C4917 1.389 . S
C4916 H4889 0.950 . S
C4916 C4902 1.377 . S
C4916 C4915 1.373 . S
C4917 C4901 1.377 . S
C4917 C4915 1.389 . S
C4917 C4918 1.524 . S
C4918 C4917 1.524 . S
C4918 C4919 1.397 . S
C4918 C4923 1.363 . S
C4919 H4890 0.950 . S
C4919 C4918 1.397 . S
C4919 C4920 1.334 . S
C4920 H4891 0.950 . S
C4920 C4919 1.334 . S
C4920 C4921 1.287 . S
C4921 C4920 1.287 . S
C4921 C4922 1.524 . S
C4921 H4924 0.999 . S
C4922 H4892 0.950 . S
C4922 C4921 1.524 . S
C4922 C4923 1.415 . S
C4923 H4893 0.950 . S
C4923 C4918 1.363 . S
C4923 C4922 1.415 . S
H4924 C4921 0.999 . S
H4925 C4906 0.913 . S
H4926 C4944 0.951 . S
H4927 C4946 0.951 . S
H4928 C4948 0.950 . S
H4929 C4949 0.950 . S
H4930 C4951 0.950 . S
H4931 C4954 0.950 . S
H4932 C4955 0.950 . S
H4933 C4957 0.950 . S
H4934 C4958 0.950 . S
H4935 C4959 0.951 . S
H4936 C4961 0.951 . S
H4937 C4963 0.950 . S
H4938 C4964 0.950 . S
H4939 C4966 0.950 . S
H4940 C4969 0.950 . S
H4941 C4970 0.950 . S
H4942 C4972 0.950 . S
H4943 C4973 0.950 . S
C4944 H4926 0.951 . S
C4944 C4945 1.366 . S
C4944 C4946 1.388 . S
C4945 C4944 1.366 . S
C4945 C4949 1.385 . S
C4946 H4927 0.951 . S
C4946 C4944 1.388 . S
C4946 C4947 1.366 . S
C4947 C4946 1.366 . S
C4947 C4948 1.414 . S
C4947 C4950 1.499 . S
C4948 H4928 0.950 . S
C4948 C4947 1.414 . S
C4948 C4949 1.374 . S
C4949 H4929 0.950 . S
C4949 C4945 1.385 . S
C4949 C4948 1.374 . S
C4950 C4947 1.499 . S
C4950 C4951 1.373 . S
C4950 C4952 1.389 . S
C4951 H4930 0.950 . S
C4951 C4950 1.373 . S
C4951 C4967 1.377 . S
C4952 C4950 1.389 . S
C4952 C4953 1.524 . S
C4952 C4966 1.377 . S
C4953 C4952 1.524 . S
C4953 C4954 1.397 . S
C4953 C4958 1.363 . S
C4954 H4931 0.950 . S
C4954 C4953 1.397 . S
C4954 C4955 1.334 . S
C4955 H4932 0.950 . S
C4955 C4954 1.334 . S
C4955 C4956 1.287 . S
C4956 C4955 1.287 . S
C4956 C4957 1.524 . S
C4956 H4975 0.913 . S
C4957 H4933 0.950 . S
C4957 C4956 1.524 . S
C4957 C4958 1.415 . S
C4958 H4934 0.950 . S
C4958 C4953 1.363 . S
C4958 C4957 1.415 . S
C4959 H4935 0.951 . S
C4959 C4960 1.366 . S
C4959 C4961 1.388 . S
C4960 C4959 1.366 . S
C4960 C4964 1.385 . S
C4961 H4936 0.951 . S
C4961 C4959 1.388 . S
C4961 C4962 1.366 . S
C4962 C4961 1.366 . S
C4962 C4963 1.414 . S
C4962 C4965 1.499 . S
C4963 H4937 0.950 . S
C4963 C4962 1.414 . S
C4963 C4964 1.374 . S
C4964 H4938 0.950 . S
C4964 C4960 1.385 . S
C4964 C4963 1.374 . S
C4965 C4962 1.499 . S
C4965 C4966 1.373 . S
C4965 C4967 1.389 . S
C4966 H4939 0.950 . S
C4966 C4952 1.377 . S
C4966 C4965 1.373 . S
C4967 C4951 1.377 . S
C4967 C4965 1.389 . S
C4967 C4968 1.524 . S
C4968 C4967 1.524 . S
C4968 C4969 1.397 . S
C4968 C4973 1.363 . S
C4969 H4940 0.950 . S
C4969 C4968 1.397 . S
C4969 C4970 1.334 . S
C4970 H4941 0.950 . S
C4970 C4969 1.334 . S
C4970 C4971 1.287 . S
C4971 C4970 1.287 . S
C4971 C4972 1.524 . S
C4971 H4974 0.999 . S
C4972 H4942 0.950 . S
C4972 C4971 1.524 . S
C4972 C4973 1.415 . S
C4973 H4943 0.950 . S
C4973 C4968 1.363 . S
C4973 C4972 1.415 . S
H4974 C4971 0.999 . S
H4975 C4956 0.913 . S
H4976 C4994 0.951 . S
H4977 C4996 0.951 . S
H4978 C4998 0.950 . S
H4979 C4999 0.950 . S
H4980 C5001 0.950 . S
H4981 C5004 0.950 . S
H4982 C5005 0.950 . S
H4983 C5007 0.950 . S
H4984 C5008 0.950 . S
H4985 C5009 0.951 . S
H4986 C5011 0.951 . S
H4987 C5013 0.950 . S
H4988 C5014 0.950 . S
H4989 C5016 0.950 . S
H4990 C5019 0.950 . S
H4991 C5020 0.950 . S
H4992 C5022 0.950 . S
H4993 C5023 0.950 . S
C4994 H4976 0.951 . S
C4994 C4995 1.366 . S
C4994 C4996 1.388 . S
C4995 C4994 1.366 . S
C4995 C4999 1.385 . S
C4996 H4977 0.951 . S
C4996 C4994 1.388 . S
C4996 C4997 1.366 . S
C4997 C4996 1.366 . S
C4997 C4998 1.414 . S
C4997 C5000 1.499 . S
C4998 H4978 0.950 . S
C4998 C4997 1.414 . S
C4998 C4999 1.374 . S
C4999 H4979 0.950 . S
C4999 C4995 1.385 . S
C4999 C4998 1.374 . S
C5000 C4997 1.499 . S
C5000 C5001 1.373 . S
C5000 C5002 1.389 . S
C5001 H4980 0.950 . S
C5001 C5000 1.373 . S
C5001 C5017 1.377 . S
C5002 C5000 1.389 . S
C5002 C5003 1.524 . S
C5002 C5016 1.377 . S
C5003 C5002 1.524 . S
C5003 C5004 1.397 . S
C5003 C5008 1.363 . S
C5004 H4981 0.950 . S
C5004 C5003 1.397 . S
C5004 C5005 1.334 . S
C5005 H4982 0.950 . S
C5005 C5004 1.334 . S
C5005 C5006 1.287 . S
C5006 C5005 1.287 . S
C5006 C5007 1.524 . S
C5006 H5025 0.913 . S
C5007 H4983 0.950 . S
C5007 C5006 1.524 . S
C5007 C5008 1.415 . S
C5008 H4984 0.950 . S
C5008 C5003 1.363 . S
C5008 C5007 1.415 . S
C5009 H4985 0.951 . S
C5009 C5010 1.366 . S
C5009 C5011 1.388 . S
C5010 C5009 1.366 . S
C5010 C5014 1.385 . S
C5011 H4986 0.951 . S
C5011 C5009 1.388 . S
C5011 C5012 1.366 . S
C5012 C5011 1.366 . S
C5012 C5013 1.414 . S
C5012 C5015 1.499 . S
C5013 H4987 0.950 . S
C5013 C5012 1.414 . S
C5013 C5014 1.374 . S
C5014 H4988 0.950 . S
C5014 C5010 1.385 . S
C5014 C5013 1.374 . S
C5015 C5012 1.499 . S
C5015 C5016 1.373 . S
C5015 C5017 1.389 . S
C5016 H4989 0.950 . S
C5016 C5002 1.377 . S
C5016 C5015 1.373 . S
C5017 C5001 1.377 . S
C5017 C5015 1.389 . S
C5017 C5018 1.524 . S
C5018 C5017 1.524 . S
C5018 C5019 1.397 . S
C5018 C5023 1.363 . S
C5019 H4990 0.950 . S
C5019 C5018 1.397 . S
C5019 C5020 1.334 . S
C5020 H4991 0.950 . S
C5020 C5019 1.334 . S
C5020 C5021 1.287 . S
C5021 C5020 1.287 . S
C5021 C5022 1.524 . S
C5021 H5024 0.999 . S
C5022 H4992 0.950 . S
C5022 C5021 1.524 . S
C5022 C5023 1.415 . S
C5023 H4993 0.950 . S
C5023 C5018 1.363 . S
C5023 C5022 1.415 . S
H5024 C5021 0.999 . S
H5025 C5006 0.913 . S
H5026 C5044 0.951 . S
H5027 C5046 0.951 . S
H5028 C5048 0.950 . S
H5029 C5049 0.950 . S
H5030 C5051 0.950 . S
H5031 C5054 0.950 . S
H5032 C5055 0.950 . S
H5033 C5057 0.950 . S
H5034 C5058 0.950 . S
H5035 C5059 0.951 . S
H5036 C5061 0.951 . S
H5037 C5063 0.950 . S
H5038 C5064 0.950 . S
H5039 C5066 0.950 . S
H5040 C5069 0.950 . S
H5041 C5070 0.950 . S
H5042 C5072 0.950 . S
H5043 C5073 0.950 . S
C5044 H5026 0.951 . S
C5044 C5045 1.366 . S
C5044 C5046 1.388 . S
C5045 C5044 1.366 . S
C5045 C5049 1.385 . S
C5046 H5027 0.951 . S
C5046 C5044 1.388 . S
C5046 C5047 1.366 . S
C5047 C5046 1.366 . S
C5047 C5048 1.414 . S
C5047 C5050 1.499 . S
C5048 H5028 0.950 . S
C5048 C5047 1.414 . S
C5048 C5049 1.374 . S
C5049 H5029 0.950 . S
C5049 C5045 1.385 . S
C5049 C5048 1.374 . S
C5050 C5047 1.499 . S
C5050 C5051 1.373 . S
C5050 C5052 1.389 . S
C5051 H5030 0.950 . S
C5051 C5050 1.373 . S
C5051 C5067 1.377 . S
C5052 C5050 1.389 . S
C5052 C5053 1.524 . S
C5052 C5066 1.377 . S
C5053 C5052 1.524 . S
C5053 C5054 1.397 . S
C5053 C5058 1.363 . S
C5054 H5031 0.950 . S
C5054 C5053 1.397 . S
C5054 C5055 1.334 . S
C5055 H5032 0.950 . S
C5055 C5054 1.334 . S
C5055 C5056 1.287 . S
C5056 C5055 1.287 . S
C5056 C5057 1.524 . S
C5056 H5075 0.913 . S
C5057 H5033 0.950 . S
C5057 C5056 1.524 . S
C5057 C5058 1.415 . S
C5058 H5034 0.950 . S
C5058 C5053 1.363 . S
C5058 C5057 1.415 . S
C5059 H5035 0.951 . S
C5059 C5060 1.366 . S
C5059 C5061 1.388 . S
C5060 C5059 1.366 . S
C5060 C5064 1.385 . S
C5061 H5036 0.951 . S
C5061 C5059 1.388 . S
C5061 C5062 1.366 . S
C5062 C5061 1.366 . S
C5062 C5063 1.414 . S
C5062 C5065 1.499 . S
C5063 H5037 0.950 . S
C5063 C5062 1.414 . S
C5063 C5064 1.374 . S
C5064 H5038 0.950 . S
C5064 C5060 1.385 . S
C5064 C5063 1.374 . S
C5065 C5062 1.499 . S
C5065 C5066 1.373 . S
C5065 C5067 1.389 . S
C5066 H5039 0.950 . S
C5066 C5052 1.377 . S
C5066 C5065 1.373 . S
C5067 C5051 1.377 . S
C5067 C5065 1.389 . S
C5067 C5068 1.524 . S
C5068 C5067 1.524 . S
C5068 C5069 1.397 . S
C5068 C5073 1.363 . S
C5069 H5040 0.950 . S
C5069 C5068 1.397 . S
C5069 C5070 1.334 . S
C5070 H5041 0.950 . S
C5070 C5069 1.334 . S
C5070 C5071 1.287 . S
C5071 C5070 1.287 . S
C5071 C5072 1.524 . S
C5071 H5074 0.999 . S
C5072 H5042 0.950 . S
C5072 C5071 1.524 . S
C5072 C5073 1.415 . S
C5073 H5043 0.950 . S
C5073 C5068 1.363 . S
C5073 C5072 1.415 . S
H5074 C5071 0.999 . S
H5075 C5056 0.913 . S
H5076 C5094 0.951 . S
H5077 C5096 0.951 . S
H5078 C5098 0.950 . S
H5079 C5099 0.950 . S
H5080 C5101 0.950 . S
H5081 C5104 0.950 . S
H5082 C5105 0.950 . S
H5083 C5107 0.950 1_455 S
H5084 C5108 0.950 . S
H5085 C5109 0.951 . S
H5086 C5111 0.951 . S
H5087 C5113 0.950 . S
H5088 C5114 0.950 . S
H5089 C5116 0.950 . S
H5090 C5119 0.950 . S
H5091 C5120 0.950 . S
H5092 C5122 0.950 . S
H5093 C5123 0.950 . S
C5094 H5076 0.951 . S
C5094 C5095 1.366 . S
C5094 C5096 1.388 . S
C5095 C5094 1.366 . S
C5095 C5099 1.385 . S
C5096 H5077 0.951 . S
C5096 C5094 1.388 . S
C5096 C5097 1.366 . S
C5097 C5096 1.366 . S
C5097 C5098 1.414 . S
C5097 C5100 1.499 . S
C5098 H5078 0.950 . S
C5098 C5097 1.414 . S
C5098 C5099 1.374 . S
C5099 H5079 0.950 . S
C5099 C5095 1.385 . S
C5099 C5098 1.374 . S
C5100 C5097 1.499 . S
C5100 C5101 1.373 . S
C5100 C5102 1.389 . S
C5101 H5080 0.950 . S
C5101 C5100 1.373 . S
C5101 C5117 1.377 . S
C5102 C5100 1.389 . S
C5102 C5103 1.524 . S
C5102 C5116 1.377 . S
C5103 C5102 1.524 . S
C5103 C5104 1.397 . S
C5103 C5108 1.363 . S
C5104 H5081 0.950 . S
C5104 C5103 1.397 . S
C5104 C5105 1.334 . S
C5105 H5082 0.950 . S
C5105 C5104 1.334 . S
C5105 C5106 1.287 . S
C5106 C5105 1.287 . S
C5106 C5107 1.524 . S
C5106 H5125 0.913 . S
C5107 H5083 0.950 1_655 S
C5107 C5106 1.524 . S
C5107 C5108 1.415 . S
C5108 H5084 0.950 . S
C5108 C5103 1.363 . S
C5108 C5107 1.415 . S
C5109 H5085 0.951 . S
C5109 C5110 1.366 1_655 S
C5109 C5111 1.388 . S
C5110 C5109 1.366 1_455 S
C5110 C5114 1.385 . S
C5111 H5086 0.951 . S
C5111 C5109 1.388 . S
C5111 C5112 1.366 . S
C5112 C5111 1.366 . S
C5112 C5113 1.414 . S
C5112 C5115 1.499 . S
C5113 H5087 0.950 . S
C5113 C5112 1.414 . S
C5113 C5114 1.374 1_655 S
C5114 H5088 0.950 . S
C5114 C5110 1.385 . S
C5114 C5113 1.374 1_455 S
C5115 C5112 1.499 . S
C5115 C5116 1.373 . S
C5115 C5117 1.389 . S
C5116 H5089 0.950 . S
C5116 C5102 1.377 . S
C5116 C5115 1.373 . S
C5117 C5101 1.377 . S
C5117 C5115 1.389 . S
C5117 C5118 1.524 . S
C5118 C5117 1.524 . S
C5118 C5119 1.397 . S
C5118 C5123 1.363 . S
C5119 H5090 0.950 . S
C5119 C5118 1.397 . S
C5119 C5120 1.334 . S
C5120 H5091 0.950 . S
C5120 C5119 1.334 . S
C5120 C5121 1.287 . S
C5121 C5120 1.287 . S
C5121 C5122 1.524 . S
C5121 H5124 0.999 . S
C5122 H5092 0.950 . S
C5122 C5121 1.524 . S
C5122 C5123 1.415 . S
C5123 H5093 0.950 . S
C5123 C5118 1.363 . S
C5123 C5122 1.415 . S
H5124 C5121 0.999 . S
H5125 C5106 0.913 . S
H5126 C5144 0.951 . S
H5127 C5146 0.951 . S
H5128 C5148 0.950 . S
H5129 C5149 0.950 . S
H5130 C5151 0.950 . S
H5131 C5154 0.950 . S
H5132 C5155 0.950 . S
H5133 C5157 0.950 . S
H5134 C5158 0.950 . S
H5135 C5159 0.951 . S
H5136 C5161 0.951 . S
H5137 C5163 0.950 . S
H5138 C5164 0.950 . S
H5139 C5166 0.950 . S
H5140 C5169 0.950 . S
H5141 C5170 0.950 . S
H5142 C5172 0.950 . S
H5143 C5173 0.950 . S
C5144 H5126 0.951 . S
C5144 C5145 1.366 . S
C5144 C5146 1.388 . S
C5145 C5144 1.366 . S
C5145 C5149 1.385 . S
C5146 H5127 0.951 . S
C5146 C5144 1.388 . S
C5146 C5147 1.366 . S
C5147 C5146 1.366 . S
C5147 C5148 1.414 . S
C5147 C5150 1.499 . S
C5148 H5128 0.950 . S
C5148 C5147 1.414 . S
C5148 C5149 1.374 . S
C5149 H5129 0.950 . S
C5149 C5145 1.385 . S
C5149 C5148 1.374 . S
C5150 C5147 1.499 . S
C5150 C5151 1.373 . S
C5150 C5152 1.389 . S
C5151 H5130 0.950 . S
C5151 C5150 1.373 . S
C5151 C5167 1.377 . S
C5152 C5150 1.389 . S
C5152 C5153 1.524 . S
C5152 C5166 1.377 . S
C5153 C5152 1.524 . S
C5153 C5154 1.397 . S
C5153 C5158 1.363 . S
C5154 H5131 0.950 . S
C5154 C5153 1.397 . S
C5154 C5155 1.334 . S
C5155 H5132 0.950 . S
C5155 C5154 1.334 . S
C5155 C5156 1.287 . S
C5156 C5155 1.287 . S
C5156 C5157 1.524 . S
C5156 H5175 0.913 . S
C5157 H5133 0.950 . S
C5157 C5156 1.524 . S
C5157 C5158 1.415 . S
C5158 H5134 0.950 . S
C5158 C5153 1.363 . S
C5158 C5157 1.415 . S
C5159 H5135 0.951 . S
C5159 C5160 1.366 . S
C5159 C5161 1.388 . S
C5160 C5159 1.366 . S
C5160 C5164 1.385 . S
C5161 H5136 0.951 . S
C5161 C5159 1.388 . S
C5161 C5162 1.366 . S
C5162 C5161 1.366 . S
C5162 C5163 1.414 . S
C5162 C5165 1.499 . S
C5163 H5137 0.950 . S
C5163 C5162 1.414 . S
C5163 C5164 1.374 . S
C5164 H5138 0.950 . S
C5164 C5160 1.385 . S
C5164 C5163 1.374 . S
C5165 C5162 1.499 . S
C5165 C5166 1.373 . S
C5165 C5167 1.389 . S
C5166 H5139 0.950 . S
C5166 C5152 1.377 . S
C5166 C5165 1.373 . S
C5167 C5151 1.377 . S
C5167 C5165 1.389 . S
C5167 C5168 1.524 . S
C5168 C5167 1.524 . S
C5168 C5169 1.397 . S
C5168 C5173 1.363 . S
C5169 H5140 0.950 . S
C5169 C5168 1.397 . S
C5169 C5170 1.334 . S
C5170 H5141 0.950 . S
C5170 C5169 1.334 . S
C5170 C5171 1.287 . S
C5171 C5170 1.287 . S
C5171 C5172 1.524 . S
C5171 H5174 0.999 . S
C5172 H5142 0.950 . S
C5172 C5171 1.524 . S
C5172 C5173 1.415 . S
C5173 H5143 0.950 . S
C5173 C5168 1.363 . S
C5173 C5172 1.415 . S
H5174 C5171 0.999 . S
H5175 C5156 0.913 . S
H5176 C5194 0.951 . S
H5177 C5196 0.951 . S
H5178 C5198 0.950 . S
H5179 C5199 0.950 . S
H5180 C5201 0.950 . S
H5181 C5204 0.950 . S
H5182 C5205 0.950 . S
H5183 C5207 0.950 . S
H5184 C5208 0.950 . S
H5185 C5209 0.951 . S
H5186 C5211 0.951 . S
H5187 C5213 0.950 . S
H5188 C5214 0.950 . S
H5189 C5216 0.950 . S
H5190 C5219 0.950 . S
H5191 C5220 0.950 . S
H5192 C5222 0.950 . S
H5193 C5223 0.950 . S
C5194 H5176 0.951 . S
C5194 C5195 1.366 . S
C5194 C5196 1.388 . S
C5195 C5194 1.366 . S
C5195 C5199 1.385 . S
C5196 H5177 0.951 . S
C5196 C5194 1.388 . S
C5196 C5197 1.366 . S
C5197 C5196 1.366 . S
C5197 C5198 1.414 . S
C5197 C5200 1.499 . S
C5198 H5178 0.950 . S
C5198 C5197 1.414 . S
C5198 C5199 1.374 . S
C5199 H5179 0.950 . S
C5199 C5195 1.385 . S
C5199 C5198 1.374 . S
C5200 C5197 1.499 . S
C5200 C5201 1.373 . S
C5200 C5202 1.389 . S
C5201 H5180 0.950 . S
C5201 C5200 1.373 . S
C5201 C5217 1.377 . S
C5202 C5200 1.389 . S
C5202 C5203 1.524 . S
C5202 C5216 1.377 . S
C5203 C5202 1.524 . S
C5203 C5204 1.397 . S
C5203 C5208 1.363 . S
C5204 H5181 0.950 . S
C5204 C5203 1.397 . S
C5204 C5205 1.334 . S
C5205 H5182 0.950 . S
C5205 C5204 1.334 . S
C5205 C5206 1.287 . S
C5206 C5205 1.287 . S
C5206 C5207 1.524 . S
C5206 H5225 0.913 . S
C5207 H5183 0.950 . S
C5207 C5206 1.524 . S
C5207 C5208 1.415 . S
C5208 H5184 0.950 . S
C5208 C5203 1.363 . S
C5208 C5207 1.415 . S
C5209 H5185 0.951 . S
C5209 C5210 1.366 . S
C5209 C5211 1.388 . S
C5210 C5209 1.366 . S
C5210 C5214 1.385 . S
C5211 H5186 0.951 . S
C5211 C5209 1.388 . S
C5211 C5212 1.366 . S
C5212 C5211 1.366 . S
C5212 C5213 1.414 . S
C5212 C5215 1.499 . S
C5213 H5187 0.950 . S
C5213 C5212 1.414 . S
C5213 C5214 1.374 . S
C5214 H5188 0.950 . S
C5214 C5210 1.385 . S
C5214 C5213 1.374 . S
C5215 C5212 1.499 . S
C5215 C5216 1.373 . S
C5215 C5217 1.389 . S
C5216 H5189 0.950 . S
C5216 C5202 1.377 . S
C5216 C5215 1.373 . S
C5217 C5201 1.377 . S
C5217 C5215 1.389 . S
C5217 C5218 1.524 . S
C5218 C5217 1.524 . S
C5218 C5219 1.397 . S
C5218 C5223 1.363 . S
C5219 H5190 0.950 . S
C5219 C5218 1.397 . S
C5219 C5220 1.334 . S
C5220 H5191 0.950 . S
C5220 C5219 1.334 . S
C5220 C5221 1.287 . S
C5221 C5220 1.287 . S
C5221 C5222 1.524 . S
C5221 H5224 0.999 . S
C5222 H5192 0.950 . S
C5222 C5221 1.524 . S
C5222 C5223 1.415 . S
C5223 H5193 0.950 . S
C5223 C5218 1.363 . S
C5223 C5222 1.415 . S
H5224 C5221 0.999 . S
H5225 C5206 0.913 . S
H5226 C5244 0.951 . S
H5227 C5246 0.951 . S
H5228 C5248 0.950 . S
H5229 C5249 0.950 . S
H5230 C5251 0.950 . S
H5231 C5254 0.950 . S
H5232 C5255 0.950 . S
H5233 C5257 0.950 . S
H5234 C5258 0.950 . S
H5235 C5259 0.951 . S
H5236 C5261 0.951 . S
H5237 C5263 0.950 . S
H5238 C5264 0.950 . S
H5239 C5266 0.950 . S
H5240 C5269 0.950 . S
H5241 C5270 0.950 . S
H5242 C5272 0.950 . S
H5243 C5273 0.950 . S
C5244 H5226 0.951 . S
C5244 C5245 1.366 . S
C5244 C5246 1.388 . S
C5245 C5244 1.366 . S
C5245 C5249 1.385 . S
C5246 H5227 0.951 . S
C5246 C5244 1.388 . S
C5246 C5247 1.366 . S
C5247 C5246 1.366 . S
C5247 C5248 1.414 . S
C5247 C5250 1.499 . S
C5248 H5228 0.950 . S
C5248 C5247 1.414 . S
C5248 C5249 1.374 . S
C5249 H5229 0.950 . S
C5249 C5245 1.385 . S
C5249 C5248 1.374 . S
C5250 C5247 1.499 . S
C5250 C5251 1.373 . S
C5250 C5252 1.389 . S
C5251 H5230 0.950 . S
C5251 C5250 1.373 . S
C5251 C5267 1.377 . S
C5252 C5250 1.389 . S
C5252 C5253 1.524 . S
C5252 C5266 1.377 . S
C5253 C5252 1.524 . S
C5253 C5254 1.397 . S
C5253 C5258 1.363 . S
C5254 H5231 0.950 . S
C5254 C5253 1.397 . S
C5254 C5255 1.334 . S
C5255 H5232 0.950 . S
C5255 C5254 1.334 . S
C5255 C5256 1.287 . S
C5256 C5255 1.287 . S
C5256 C5257 1.524 . S
C5256 H5275 0.913 . S
C5257 H5233 0.950 . S
C5257 C5256 1.524 . S
C5257 C5258 1.415 . S
C5258 H5234 0.950 . S
C5258 C5253 1.363 . S
C5258 C5257 1.415 . S
C5259 H5235 0.951 . S
C5259 C5260 1.366 . S
C5259 C5261 1.388 . S
C5260 C5259 1.366 . S
C5260 C5264 1.385 . S
C5261 H5236 0.951 . S
C5261 C5259 1.388 . S
C5261 C5262 1.366 . S
C5262 C5261 1.366 . S
C5262 C5263 1.414 . S
C5262 C5265 1.499 . S
C5263 H5237 0.950 . S
C5263 C5262 1.414 . S
C5263 C5264 1.374 . S
C5264 H5238 0.950 . S
C5264 C5260 1.385 . S
C5264 C5263 1.374 . S
C5265 C5262 1.499 . S
C5265 C5266 1.373 . S
C5265 C5267 1.389 . S
C5266 H5239 0.950 . S
C5266 C5252 1.377 . S
C5266 C5265 1.373 . S
C5267 C5251 1.377 . S
C5267 C5265 1.389 . S
C5267 C5268 1.524 . S
C5268 C5267 1.524 . S
C5268 C5269 1.397 . S
C5268 C5273 1.363 . S
C5269 H5240 0.950 . S
C5269 C5268 1.397 . S
C5269 C5270 1.334 . S
C5270 H5241 0.950 . S
C5270 C5269 1.334 . S
C5270 C5271 1.287 . S
C5271 C5270 1.287 . S
C5271 C5272 1.524 . S
C5271 H5274 0.999 . S
C5272 H5242 0.950 . S
C5272 C5271 1.524 . S
C5272 C5273 1.415 . S
C5273 H5243 0.950 . S
C5273 C5268 1.363 . S
C5273 C5272 1.415 . S
H5274 C5271 0.999 . S
H5275 C5256 0.913 . S
H5276 C5294 0.951 . S
H5277 C5296 0.951 . S
H5278 C5298 0.950 . S
H5279 C5299 0.950 . S
H5280 C5301 0.950 . S
H5281 C5304 0.950 . S
H5282 C5305 0.950 . S
H5283 C5307 0.950 . S
H5284 C5308 0.950 . S
H5285 C5309 0.951 . S
H5286 C5311 0.951 . S
H5287 C5313 0.950 . S
H5288 C5314 0.950 . S
H5289 C5316 0.950 . S
H5290 C5319 0.950 . S
H5291 C5320 0.950 . S
H5292 C5322 0.907 1_455 S
H5293 C5323 0.950 . S
C5294 H5276 0.951 . S
C5294 C5295 1.366 . S
C5294 C5296 1.388 . S
C5295 C5294 1.366 . S
C5295 C5299 1.385 . S
C5296 H5277 0.951 . S
C5296 C5294 1.388 . S
C5296 C5297 1.366 . S
C5297 C5296 1.366 . S
C5297 C5298 1.414 . S
C5297 C5300 1.499 . S
C5298 H5278 0.950 . S
C5298 C5297 1.414 . S
C5298 C5299 1.374 . S
C5299 H5279 0.950 . S
C5299 C5295 1.385 . S
C5299 C5298 1.374 . S
C5300 C5297 1.499 . S
C5300 C5301 1.373 . S
C5300 C5302 1.389 . S
C5301 H5280 0.950 . S
C5301 C5300 1.373 . S
C5301 C5317 1.377 . S
C5302 C5300 1.389 . S
C5302 C5303 1.524 . S
C5302 C5316 1.377 . S
C5303 C5302 1.524 . S
C5303 C5304 1.397 . S
C5303 C5308 1.363 . S
C5304 H5281 0.950 . S
C5304 C5303 1.397 . S
C5304 C5305 1.334 . S
C5305 H5282 0.950 . S
C5305 C5304 1.334 . S
C5305 C5306 1.287 . S
C5306 C5305 1.287 . S
C5306 C5307 1.524 . S
C5306 H5325 0.913 . S
C5307 H5283 0.950 . S
C5307 C5306 1.524 . S
C5307 C5308 1.415 . S
C5308 H5284 0.950 . S
C5308 C5303 1.363 . S
C5308 C5307 1.415 . S
C5309 H5285 0.951 . S
C5309 C5310 1.366 . S
C5309 C5311 1.388 . S
C5310 C5309 1.366 . S
C5310 C5314 1.385 . S
C5311 H5286 0.951 . S
C5311 C5309 1.388 . S
C5311 C5312 1.366 . S
C5312 C5311 1.366 . S
C5312 C5313 1.414 . S
C5312 C5315 1.499 . S
C5313 H5287 0.950 . S
C5313 C5312 1.414 . S
C5313 C5314 1.374 . S
C5314 H5288 0.950 . S
C5314 C5310 1.385 . S
C5314 C5313 1.374 . S
C5315 C5312 1.499 . S
C5315 C5316 1.373 . S
C5315 C5317 1.389 . S
C5316 H5289 0.950 . S
C5316 C5302 1.377 . S
C5316 C5315 1.373 . S
C5317 C5301 1.377 . S
C5317 C5315 1.389 . S
C5317 C5318 1.524 . S
C5318 C5317 1.524 . S
C5318 C5319 1.397 . S
C5318 C5323 1.363 . S
C5319 H5290 0.950 . S
C5319 C5318 1.397 . S
C5319 C5320 1.334 . S
C5320 H5291 0.950 . S
C5320 C5319 1.334 . S
C5320 C5321 1.287 . S
C5321 C5320 1.287 . S
C5321 C5322 1.532 . S
C5321 H5324 0.999 1_655 S
C5322 H5292 0.907 1_655 S
C5322 C5321 1.532 . S
C5322 C5323 1.459 . S
C5323 H5293 0.950 . S
C5323 C5318 1.363 . S
C5323 C5322 1.459 . S
H5324 C5321 0.999 1_455 S
H5325 C5306 0.913 . S
H5326 C5344 0.951 . S
H5327 C5346 0.951 . S
H5328 C5348 0.950 . S
H5329 C5349 0.950 . S
H5330 C5351 0.950 . S
H5331 C5354 0.950 . S
H5332 C5355 0.950 . S
H5333 C5357 0.950 . S
H5334 C5358 0.950 . S
H5335 C5359 0.951 . S
H5336 C5361 0.951 . S
H5337 C5363 0.950 . S
H5338 C5364 0.950 . S
H5339 C5366 0.950 . S
H5340 C5369 0.950 . S
H5341 C5370 0.950 . S
H5342 C5372 0.950 . S
H5343 C5373 0.950 . S
C5344 H5326 0.951 . S
C5344 C5345 1.366 . S
C5344 C5346 1.388 . S
C5345 C5344 1.366 . S
C5345 C5349 1.385 . S
C5346 H5327 0.951 . S
C5346 C5344 1.388 . S
C5346 C5347 1.366 . S
C5347 C5346 1.366 . S
C5347 C5348 1.414 . S
C5347 C5350 1.499 . S
C5348 H5328 0.950 . S
C5348 C5347 1.414 . S
C5348 C5349 1.374 . S
C5349 H5329 0.950 . S
C5349 C5345 1.385 . S
C5349 C5348 1.374 . S
C5350 C5347 1.499 . S
C5350 C5351 1.373 . S
C5350 C5352 1.389 . S
C5351 H5330 0.950 . S
C5351 C5350 1.373 . S
C5351 C5367 1.377 . S
C5352 C5350 1.389 . S
C5352 C5353 1.524 . S
C5352 C5366 1.377 . S
C5353 C5352 1.524 . S
C5353 C5354 1.397 . S
C5353 C5358 1.363 . S
C5354 H5331 0.950 . S
C5354 C5353 1.397 . S
C5354 C5355 1.334 . S
C5355 H5332 0.950 . S
C5355 C5354 1.334 . S
C5355 C5356 1.287 . S
C5356 C5355 1.287 . S
C5356 C5357 1.524 . S
C5356 H5375 0.913 . S
C5357 H5333 0.950 . S
C5357 C5356 1.524 . S
C5357 C5358 1.415 . S
C5358 H5334 0.950 . S
C5358 C5353 1.363 . S
C5358 C5357 1.415 . S
C5359 H5335 0.951 . S
C5359 C5360 1.366 . S
C5359 C5361 1.388 . S
C5360 C5359 1.366 . S
C5360 C5364 1.385 . S
C5361 H5336 0.951 . S
C5361 C5359 1.388 . S
C5361 C5362 1.366 . S
C5362 C5361 1.366 . S
C5362 C5363 1.414 . S
C5362 C5365 1.499 . S
C5363 H5337 0.950 . S
C5363 C5362 1.414 . S
C5363 C5364 1.374 . S
C5364 H5338 0.950 . S
C5364 C5360 1.385 . S
C5364 C5363 1.374 . S
C5365 C5362 1.499 . S
C5365 C5366 1.373 . S
C5365 C5367 1.389 . S
C5366 H5339 0.950 . S
C5366 C5352 1.377 . S
C5366 C5365 1.373 . S
C5367 C5351 1.377 . S
C5367 C5365 1.389 . S
C5367 C5368 1.524 . S
C5368 C5367 1.524 . S
C5368 C5369 1.397 . S
C5368 C5373 1.363 . S
C5369 H5340 0.950 . S
C5369 C5368 1.397 . S
C5369 C5370 1.334 . S
C5370 H5341 0.950 . S
C5370 C5369 1.334 . S
C5370 C5371 1.287 . S
C5371 C5370 1.287 . S
C5371 C5372 1.524 . S
C5371 H5374 0.999 . S
C5372 H5342 0.950 . S
C5372 C5371 1.524 . S
C5372 C5373 1.415 . S
C5373 H5343 0.950 . S
C5373 C5368 1.363 . S
C5373 C5372 1.415 . S
H5374 C5371 0.999 . S
H5375 C5356 0.913 . S
H5376 C5394 0.951 . S
H5377 C5396 0.951 . S
H5378 C5398 0.950 . S
H5379 C5399 0.950 . S
H5380 C5401 0.950 . S
H5381 C5404 0.950 . S
H5382 C5405 0.950 . S
H5383 C5407 0.950 . S
H5384 C5408 0.950 . S
H5385 C5409 0.951 . S
H5386 C5411 0.951 . S
H5387 C5413 0.950 . S
H5388 C5414 0.950 . S
H5389 C5416 0.950 . S
H5390 C5419 0.950 . S
H5391 C5420 0.950 . S
H5392 C5422 0.950 . S
H5393 C5423 0.950 . S
C5394 H5376 0.951 . S
C5394 C5395 1.366 . S
C5394 C5396 1.388 . S
C5395 C5394 1.366 . S
C5395 C5399 1.385 . S
C5396 H5377 0.951 . S
C5396 C5394 1.388 . S
C5396 C5397 1.366 . S
C5397 C5396 1.366 . S
C5397 C5398 1.414 . S
C5397 C5400 1.499 . S
C5398 H5378 0.950 . S
C5398 C5397 1.414 . S
C5398 C5399 1.374 . S
C5399 H5379 0.950 . S
C5399 C5395 1.385 . S
C5399 C5398 1.374 . S
C5400 C5397 1.499 . S
C5400 C5401 1.373 . S
C5400 C5402 1.389 . S
C5401 H5380 0.950 . S
C5401 C5400 1.373 . S
C5401 C5417 1.377 . S
C5402 C5400 1.389 . S
C5402 C5403 1.524 . S
C5402 C5416 1.377 . S
C5403 C5402 1.524 . S
C5403 C5404 1.397 . S
C5403 C5408 1.363 . S
C5404 H5381 0.950 . S
C5404 C5403 1.397 . S
C5404 C5405 1.334 . S
C5405 H5382 0.950 . S
C5405 C5404 1.334 . S
C5405 C5406 1.287 . S
C5406 C5405 1.287 . S
C5406 C5407 1.524 . S
C5406 H5425 0.913 . S
C5407 H5383 0.950 . S
C5407 C5406 1.524 . S
C5407 C5408 1.415 . S
C5408 H5384 0.950 . S
C5408 C5403 1.363 . S
C5408 C5407 1.415 . S
C5409 H5385 0.951 . S
C5409 C5410 1.366 . S
C5409 C5411 1.388 . S
C5410 C5409 1.366 . S
C5410 C5414 1.385 . S
C5411 H5386 0.951 . S
C5411 C5409 1.388 . S
C5411 C5412 1.366 . S
C5412 C5411 1.366 . S
C5412 C5413 1.414 . S
C5412 C5415 1.499 . S
C5413 H5387 0.950 . S
C5413 C5412 1.414 . S
C5413 C5414 1.374 . S
C5414 H5388 0.950 . S
C5414 C5410 1.385 . S
C5414 C5413 1.374 . S
C5415 C5412 1.499 . S
C5415 C5416 1.373 . S
C5415 C5417 1.389 . S
C5416 H5389 0.950 . S
C5416 C5402 1.377 . S
C5416 C5415 1.373 . S
C5417 C5401 1.377 . S
C5417 C5415 1.389 . S
C5417 C5418 1.524 . S
C5418 C5417 1.524 . S
C5418 C5419 1.397 . S
C5418 C5423 1.363 . S
C5419 H5390 0.950 . S
C5419 C5418 1.397 . S
C5419 C5420 1.334 . S
C5420 H5391 0.950 . S
C5420 C5419 1.334 . S
C5420 C5421 1.287 . S
C5421 C5420 1.287 . S
C5421 C5422 1.524 . S
C5421 H5424 0.999 . S
C5422 H5392 0.950 . S
C5422 C5421 1.524 . S
C5422 C5423 1.415 . S
C5423 H5393 0.950 . S
C5423 C5418 1.363 . S
C5423 C5422 1.415 . S
H5424 C5421 0.999 . S
H5425 C5406 0.913 . S
H5426 C5444 0.951 . S
H5427 C5446 0.951 . S
H5428 C5448 0.950 . S
H5429 C5449 0.950 . S
H5430 C5451 0.950 . S
H5431 C5454 0.950 . S
H5432 C5455 0.950 . S
H5433 C5457 0.950 . S
H5434 C5458 0.950 . S
H5435 C5459 0.951 . S
H5436 C5461 0.957 . S
H5437 C5463 0.950 . S
H5438 C5464 0.950 . S
H5439 C5466 0.950 . S
H5440 C5469 0.950 . S
H5441 C5470 0.950 . S
H5442 C5472 1.000 . S
H5443 C5473 0.950 . S
C5444 H5426 0.951 . S
C5444 C5445 1.366 . S
C5444 C5446 1.388 . S
C5445 C5444 1.366 . S
C5445 C5449 1.385 . S
C5446 H5427 0.951 . S
C5446 C5444 1.388 . S
C5446 C5447 1.366 . S
C5447 C5446 1.366 . S
C5447 C5448 1.414 . S
C5447 C5450 1.499 . S
C5448 H5428 0.950 . S
C5448 C5447 1.414 . S
C5448 C5449 1.374 . S
C5449 H5429 0.950 . S
C5449 C5445 1.385 . S
C5449 C5448 1.374 . S
C5450 C5447 1.499 . S
C5450 C5451 1.373 . S
C5450 C5452 1.389 . S
C5451 H5430 0.950 . S
C5451 C5450 1.373 . S
C5451 C5467 1.377 . S
C5452 C5450 1.389 . S
C5452 C5453 1.524 . S
C5452 C5466 1.377 . S
C5453 C5452 1.524 . S
C5453 C5454 1.397 . S
C5453 C5458 1.363 . S
C5454 H5431 0.950 . S
C5454 C5453 1.397 . S
C5454 C5455 1.334 . S
C5455 H5432 0.950 . S
C5455 C5454 1.334 . S
C5455 C5456 1.287 . S
C5456 C5455 1.287 . S
C5456 C5457 1.524 . S
C5456 H5475 0.913 . S
C5457 H5433 0.950 . S
C5457 C5456 1.524 . S
C5457 C5458 1.415 . S
C5458 H5434 0.950 . S
C5458 C5453 1.363 . S
C5458 C5457 1.415 . S
C5459 H5435 0.951 . S
C5459 C5460 1.366 . S
C5459 C5461 1.388 1_545 S
C5460 C5459 1.366 . S
C5460 C5464 1.385 1_545 S
C5461 H5436 0.957 . S
C5461 C5459 1.388 1_565 S
C5461 C5462 1.366 . S
C5462 C5461 1.366 . S
C5462 C5463 1.414 . S
C5462 C5465 1.499 . S
C5463 H5437 0.950 . S
C5463 C5462 1.414 . S
C5463 C5464 1.374 . S
C5464 H5438 0.950 . S
C5464 C5460 1.385 1_565 S
C5464 C5463 1.374 . S
C5465 C5462 1.499 . S
C5465 C5466 1.373 . S
C5465 C5467 1.389 . S
C5466 H5439 0.950 . S
C5466 C5452 1.377 . S
C5466 C5465 1.373 . S
C5467 C5451 1.377 . S
C5467 C5465 1.389 . S
C5467 C5468 1.524 . S
C5468 C5467 1.524 . S
C5468 C5469 1.397 . S
C5468 C5473 1.363 . S
C5469 H5440 0.950 . S
C5469 C5468 1.397 . S
C5469 C5470 1.334 . S
C5470 H5441 0.950 . S
C5470 C5469 1.334 . S
C5470 C5471 1.287 . S
C5471 C5470 1.287 . S
C5471 C5472 1.524 . S
C5471 H5474 0.999 . S
C5472 H5442 1.000 . S
C5472 C5471 1.524 . S
C5472 C5473 1.415 . S
C5473 H5443 0.950 . S
C5473 C5468 1.363 . S
C5473 C5472 1.415 . S
H5474 C5471 0.999 . S
H5475 C5456 0.913 . S
H5476 C5494 0.951 . S
H5477 C5496 0.951 . S
H5478 C5498 0.950 . S
H5479 C5499 0.950 . S
H5480 C5501 0.950 . S
H5481 C5504 0.950 . S
H5482 C5505 0.950 . S
H5483 C5507 0.950 . S
H5484 C5508 0.950 . S
H5485 C5509 0.951 . S
H5486 C5511 0.951 . S
H5487 C5513 0.950 . S
H5488 C5514 0.950 . S
H5489 C5516 0.950 . S
H5490 C5519 0.950 . S
H5491 C5520 0.950 . S
H5492 C5522 0.950 . S
H5493 C5523 0.950 . S
C5494 H5476 0.951 . S
C5494 C5495 1.366 . S
C5494 C5496 1.388 . S
C5495 C5494 1.366 . S
C5495 C5499 1.385 . S
C5496 H5477 0.951 . S
C5496 C5494 1.388 . S
C5496 C5497 1.366 . S
C5497 C5496 1.366 . S
C5497 C5498 1.414 . S
C5497 C5500 1.499 . S
C5498 H5478 0.950 . S
C5498 C5497 1.414 . S
C5498 C5499 1.374 . S
C5499 H5479 0.950 . S
C5499 C5495 1.385 . S
C5499 C5498 1.374 . S
C5500 C5497 1.499 . S
C5500 C5501 1.373 . S
C5500 C5502 1.389 . S
C5501 H5480 0.950 . S
C5501 C5500 1.373 . S
C5501 C5517 1.377 . S
C5502 C5500 1.389 . S
C5502 C5503 1.524 . S
C5502 C5516 1.377 . S
C5503 C5502 1.524 . S
C5503 C5504 1.397 . S
C5503 C5508 1.363 . S
C5504 H5481 0.950 . S
C5504 C5503 1.397 . S
C5504 C5505 1.334 . S
C5505 H5482 0.950 . S
C5505 C5504 1.334 . S
C5505 C5506 1.287 . S
C5506 C5505 1.287 . S
C5506 C5507 1.524 . S
C5506 H5525 0.913 . S
C5507 H5483 0.950 . S
C5507 C5506 1.524 . S
C5507 C5508 1.415 . S
C5508 H5484 0.950 . S
C5508 C5503 1.363 . S
C5508 C5507 1.415 . S
C5509 H5485 0.951 . S
C5509 C5510 1.366 . S
C5509 C5511 1.388 . S
C5510 C5509 1.366 . S
C5510 C5514 1.385 . S
C5511 H5486 0.951 . S
C5511 C5509 1.388 . S
C5511 C5512 1.366 . S
C5512 C5511 1.366 . S
C5512 C5513 1.414 . S
C5512 C5515 1.499 . S
C5513 H5487 0.950 . S
C5513 C5512 1.414 . S
C5513 C5514 1.374 . S
C5514 H5488 0.950 . S
C5514 C5510 1.385 . S
C5514 C5513 1.374 . S
C5515 C5512 1.499 . S
C5515 C5516 1.373 . S
C5515 C5517 1.389 . S
C5516 H5489 0.950 . S
C5516 C5502 1.377 . S
C5516 C5515 1.373 . S
C5517 C5501 1.377 . S
C5517 C5515 1.389 . S
C5517 C5518 1.524 . S
C5518 C5517 1.524 . S
C5518 C5519 1.397 . S
C5518 C5523 1.363 . S
C5519 H5490 0.950 . S
C5519 C5518 1.397 . S
C5519 C5520 1.334 . S
C5520 H5491 0.950 . S
C5520 C5519 1.334 . S
C5520 C5521 1.287 . S
C5521 C5520 1.287 . S
C5521 C5522 1.524 . S
C5521 H5524 0.999 . S
C5522 H5492 0.950 . S
C5522 C5521 1.524 . S
C5522 C5523 1.415 . S
C5523 H5493 0.950 . S
C5523 C5518 1.363 . S
C5523 C5522 1.415 . S
H5524 C5521 0.999 . S
H5525 C5506 0.913 . S
H5526 C5544 0.951 . S
H5527 C5546 0.951 . S
H5528 C5548 0.950 . S
H5529 C5549 0.950 . S
H5530 C5551 0.950 . S
H5531 C5554 0.950 1_554 S
H5532 C5555 0.950 . S
H5533 C5557 0.950 . S
H5534 C5558 0.950 . S
H5535 C5559 0.951 . S
H5536 C5561 0.951 . S
H5537 C5563 0.950 . S
H5538 C5564 0.950 . S
H5539 C5566 0.950 . S
H5540 C5569 0.950 . S
H5541 C5570 0.950 . S
H5542 C5572 0.950 . S
H5543 C5573 0.950 . S
C5544 H5526 0.951 . S
C5544 C5545 1.366 . S
C5544 C5546 1.388 . S
C5545 C5544 1.366 . S
C5545 C5549 1.385 . S
C5546 H5527 0.951 . S
C5546 C5544 1.388 . S
C5546 C5547 1.366 . S
C5547 C5546 1.366 . S
C5547 C5548 1.414 . S
C5547 C5550 1.499 . S
C5548 H5528 0.950 . S
C5548 C5547 1.414 . S
C5548 C5549 1.374 . S
C5549 H5529 0.950 . S
C5549 C5545 1.385 . S
C5549 C5548 1.374 . S
C5550 C5547 1.499 . S
C5550 C5551 1.373 . S
C5550 C5552 1.389 . S
C5551 H5530 0.950 . S
C5551 C5550 1.373 . S
C5551 C5567 1.377 . S
C5552 C5550 1.389 . S
C5552 C5553 1.495 1_554 S
C5552 C5566 1.377 . S
C5553 C5552 1.495 1_556 S
C5553 C5554 1.408 . S
C5553 C5558 1.381 . S
C5554 H5531 0.950 1_556 S
C5554 C5553 1.408 . S
C5554 C5555 1.334 . S
C5555 H5532 0.950 . S
C5555 C5554 1.334 . S
C5555 C5556 1.287 . S
C5556 C5555 1.287 . S
C5556 C5557 1.524 . S
C5556 H5575 0.913 . S
C5557 H5533 0.950 . S
C5557 C5556 1.524 . S
C5557 C5558 1.415 . S
C5558 H5534 0.950 . S
C5558 C5553 1.381 . S
C5558 C5557 1.415 . S
C5559 H5535 0.951 . S
C5559 C5560 1.366 . S
C5559 C5561 1.388 . S
C5560 C5559 1.366 . S
C5560 C5564 1.385 . S
C5561 H5536 0.951 . S
C5561 C5559 1.388 . S
C5561 C5562 1.366 . S
C5562 C5561 1.366 . S
C5562 C5563 1.414 . S
C5562 C5565 1.499 . S
C5563 H5537 0.950 . S
C5563 C5562 1.414 . S
C5563 C5564 1.374 . S
C5564 H5538 0.950 . S
C5564 C5560 1.385 . S
C5564 C5563 1.374 . S
C5565 C5562 1.499 . S
C5565 C5566 1.373 . S
C5565 C5567 1.389 . S
C5566 H5539 0.950 . S
C5566 C5552 1.377 . S
C5566 C5565 1.373 . S
C5567 C5551 1.377 . S
C5567 C5565 1.389 . S
C5567 C5568 1.524 . S
C5568 C5567 1.524 . S
C5568 C5569 1.397 . S
C5568 C5573 1.363 . S
C5569 H5540 0.950 . S
C5569 C5568 1.397 . S
C5569 C5570 1.334 . S
C5570 H5541 0.950 . S
C5570 C5569 1.334 . S
C5570 C5571 1.287 . S
C5571 C5570 1.287 . S
C5571 C5572 1.524 . S
C5571 H5574 0.999 . S
C5572 H5542 0.950 . S
C5572 C5571 1.524 . S
C5572 C5573 1.415 . S
C5573 H5543 0.950 . S
C5573 C5568 1.363 . S
C5573 C5572 1.415 . S
H5574 C5571 0.999 . S
H5575 C5556 0.913 . S
H5576 C5594 0.951 . S
H5577 C5596 0.951 . S
H5578 C5598 0.950 . S
H5579 C5599 0.950 . S
H5580 C5601 0.950 . S
H5581 C5604 0.950 . S
H5582 C5605 0.950 . S
H5583 C5607 0.950 . S
H5584 C5608 0.950 . S
H5585 C5609 0.951 . S
H5586 C5611 0.951 . S
H5587 C5613 0.950 . S
H5588 C5614 0.950 . S
H5589 C5616 0.950 . S
H5590 C5619 0.950 . S
H5591 C5620 0.950 . S
H5592 C5622 0.950 . S
H5593 C5623 0.950 . S
C5594 H5576 0.951 . S
C5594 C5595 1.366 . S
C5594 C5596 1.388 . S
C5595 C5594 1.366 . S
C5595 C5599 1.385 . S
C5596 H5577 0.951 . S
C5596 C5594 1.388 . S
C5596 C5597 1.366 . S
C5597 C5596 1.366 . S
C5597 C5598 1.414 . S
C5597 C5600 1.499 . S
C5598 H5578 0.950 . S
C5598 C5597 1.414 . S
C5598 C5599 1.374 . S
C5599 H5579 0.950 . S
C5599 C5595 1.385 . S
C5599 C5598 1.374 . S
C5600 C5597 1.499 . S
C5600 C5601 1.373 . S
C5600 C5602 1.389 . S
C5601 H5580 0.950 . S
C5601 C5600 1.373 . S
C5601 C5617 1.377 . S
C5602 C5600 1.389 . S
C5602 C5603 1.524 . S
C5602 C5616 1.377 . S
C5603 C5602 1.524 . S
C5603 C5604 1.397 . S
C5603 C5608 1.363 . S
C5604 H5581 0.950 . S
C5604 C5603 1.397 . S
C5604 C5605 1.334 . S
C5605 H5582 0.950 . S
C5605 C5604 1.334 . S
C5605 C5606 1.287 . S
C5606 C5605 1.287 . S
C5606 C5607 1.524 . S
C5606 H5625 0.913 . S
C5607 H5583 0.950 . S
C5607 C5606 1.524 . S
C5607 C5608 1.415 . S
C5608 H5584 0.950 . S
C5608 C5603 1.363 . S
C5608 C5607 1.415 . S
C5609 H5585 0.951 . S
C5609 C5610 1.366 . S
C5609 C5611 1.388 . S
C5610 C5609 1.366 . S
C5610 C5614 1.385 . S
C5611 H5586 0.951 . S
C5611 C5609 1.388 . S
C5611 C5612 1.366 . S
C5612 C5611 1.366 . S
C5612 C5613 1.414 . S
C5612 C5615 1.499 . S
C5613 H5587 0.950 . S
C5613 C5612 1.414 . S
C5613 C5614 1.374 . S
C5614 H5588 0.950 . S
C5614 C5610 1.385 . S
C5614 C5613 1.374 . S
C5615 C5612 1.499 . S
C5615 C5616 1.373 . S
C5615 C5617 1.389 . S
C5616 H5589 0.950 . S
C5616 C5602 1.377 . S
C5616 C5615 1.373 . S
C5617 C5601 1.377 . S
C5617 C5615 1.389 . S
C5617 C5618 1.524 . S
C5618 C5617 1.524 . S
C5618 C5619 1.397 . S
C5618 C5623 1.363 . S
C5619 H5590 0.950 . S
C5619 C5618 1.397 . S
C5619 C5620 1.334 . S
C5620 H5591 0.950 . S
C5620 C5619 1.334 . S
C5620 C5621 1.287 . S
C5621 C5620 1.287 . S
C5621 C5622 1.524 . S
C5621 H5624 0.999 . S
C5622 H5592 0.950 . S
C5622 C5621 1.524 . S
C5622 C5623 1.415 . S
C5623 H5593 0.950 . S
C5623 C5618 1.363 . S
C5623 C5622 1.415 . S
H5624 C5621 0.999 . S
H5625 C5606 0.913 . S
H5626 C5644 0.951 . S
H5627 C5646 0.951 . S
H5628 C5648 0.950 . S
H5629 C5649 0.950 . S
H5630 C5651 0.950 . S
H5631 C5654 0.950 . S
H5632 C5655 0.950 . S
H5633 C5657 0.950 . S
H5634 C5658 0.950 . S
H5635 C5659 0.951 . S
H5636 C5661 0.951 . S
H5637 C5663 0.947 1_556 S
H5638 C5664 0.950 . S
H5639 C5666 0.950 . S
H5640 C5669 0.950 . S
H5641 C5670 0.950 . S
H5642 C5672 0.950 . S
H5643 C5673 0.950 . S
C5644 H5626 0.951 . S
C5644 C5645 1.366 . S
C5644 C5646 1.388 . S
C5645 C5644 1.366 . S
C5645 C5649 1.385 . S
C5646 H5627 0.951 . S
C5646 C5644 1.388 . S
C5646 C5647 1.366 . S
C5647 C5646 1.366 . S
C5647 C5648 1.414 . S
C5647 C5650 1.499 . S
C5648 H5628 0.950 . S
C5648 C5647 1.414 . S
C5648 C5649 1.374 . S
C5649 H5629 0.950 . S
C5649 C5645 1.385 . S
C5649 C5648 1.374 . S
C5650 C5647 1.499 . S
C5650 C5651 1.373 . S
C5650 C5652 1.384 1_554 S
C5651 H5630 0.950 . S
C5651 C5650 1.373 . S
C5651 C5667 1.377 . S
C5652 C5650 1.384 1_556 S
C5652 C5653 1.530 . S
C5652 C5666 1.377 . S
C5653 C5652 1.530 . S
C5653 C5654 1.397 . S
C5653 C5658 1.363 . S
C5654 H5631 0.950 . S
C5654 C5653 1.397 . S
C5654 C5655 1.334 . S
C5655 H5632 0.950 . S
C5655 C5654 1.334 . S
C5655 C5656 1.287 . S
C5656 C5655 1.287 . S
C5656 C5657 1.524 . S
C5656 H5675 0.913 . S
C5657 H5633 0.950 . S
C5657 C5656 1.524 . S
C5657 C5658 1.415 . S
C5658 H5634 0.950 . S
C5658 C5653 1.363 . S
C5658 C5657 1.415 . S
C5659 H5635 0.951 . S
C5659 C5660 1.366 . S
C5659 C5661 1.388 . S
C5660 C5659 1.366 . S
C5660 C5664 1.385 1_554 S
C5661 H5636 0.951 . S
C5661 C5659 1.388 . S
C5661 C5662 1.366 . S
C5662 C5661 1.366 . S
C5662 C5663 1.426 . S
C5662 C5665 1.499 . S
C5663 H5637 0.947 1_554 S
C5663 C5662 1.426 . S
C5663 C5664 1.367 1_554 S
C5664 H5638 0.950 . S
C5664 C5660 1.385 1_556 S
C5664 C5663 1.367 1_556 S
C5665 C5662 1.499 . S
C5665 C5666 1.373 1_554 S
C5665 C5667 1.389 . S
C5666 H5639 0.950 . S
C5666 C5652 1.377 . S
C5666 C5665 1.373 1_556 S
C5667 C5651 1.377 . S
C5667 C5665 1.389 . S
C5667 C5668 1.524 . S
C5668 C5667 1.524 . S
C5668 C5669 1.397 . S
C5668 C5673 1.363 . S
C5669 H5640 0.950 . S
C5669 C5668 1.397 . S
C5669 C5670 1.334 . S
C5670 H5641 0.950 . S
C5670 C5669 1.334 . S
C5670 C5671 1.287 . S
C5671 C5670 1.287 . S
C5671 C5672 1.524 . S
C5671 H5674 0.999 . S
C5672 H5642 0.950 . S
C5672 C5671 1.524 . S
C5672 C5673 1.415 . S
C5673 H5643 0.950 . S
C5673 C5668 1.363 . S
C5673 C5672 1.415 . S
H5674 C5671 0.999 . S
H5675 C5656 0.913 . S
H5676 C5694 0.951 . S
H5677 C5696 0.951 . S
H5678 C5698 0.950 . S
H5679 C5699 0.950 . S
H5680 C5701 0.950 . S
H5681 C5704 0.950 . S
H5682 C5705 0.950 . S
H5683 C5707 0.950 . S
H5684 C5708 0.950 . S
H5685 C5709 0.951 . S
H5686 C5711 0.951 . S
H5687 C5713 0.950 . S
H5688 C5714 0.950 . S
H5689 C5716 0.950 . S
H5690 C5719 0.950 . S
H5691 C5720 0.950 . S
H5692 C5722 0.950 . S
H5693 C5723 0.950 . S
C5694 H5676 0.951 . S
C5694 C5695 1.366 . S
C5694 C5696 1.388 . S
C5695 C5694 1.366 . S
C5695 C5699 1.385 . S
C5696 H5677 0.951 . S
C5696 C5694 1.388 . S
C5696 C5697 1.366 . S
C5697 C5696 1.366 . S
C5697 C5698 1.414 . S
C5697 C5700 1.499 . S
C5698 H5678 0.950 . S
C5698 C5697 1.414 . S
C5698 C5699 1.374 . S
C5699 H5679 0.950 . S
C5699 C5695 1.385 . S
C5699 C5698 1.374 . S
C5700 C5697 1.499 . S
C5700 C5701 1.373 . S
C5700 C5702 1.389 . S
C5701 H5680 0.950 . S
C5701 C5700 1.373 . S
C5701 C5717 1.377 . S
C5702 C5700 1.389 . S
C5702 C5703 1.524 . S
C5702 C5716 1.377 . S
C5703 C5702 1.524 . S
C5703 C5704 1.397 . S
C5703 C5708 1.363 . S
C5704 H5681 0.950 . S
C5704 C5703 1.397 . S
C5704 C5705 1.334 . S
C5705 H5682 0.950 . S
C5705 C5704 1.334 . S
C5705 C5706 1.287 . S
C5706 C5705 1.287 . S
C5706 C5707 1.524 . S
C5706 H5725 0.913 . S
C5707 H5683 0.950 . S
C5707 C5706 1.524 . S
C5707 C5708 1.415 . S
C5708 H5684 0.950 . S
C5708 C5703 1.363 . S
C5708 C5707 1.415 . S
C5709 H5685 0.951 . S
C5709 C5710 1.366 . S
C5709 C5711 1.388 . S
C5710 C5709 1.366 . S
C5710 C5714 1.385 . S
C5711 H5686 0.951 . S
C5711 C5709 1.388 . S
C5711 C5712 1.366 . S
C5712 C5711 1.366 . S
C5712 C5713 1.414 . S
C5712 C5715 1.499 . S
C5713 H5687 0.950 . S
C5713 C5712 1.414 . S
C5713 C5714 1.374 . S
C5714 H5688 0.950 . S
C5714 C5710 1.385 . S
C5714 C5713 1.374 . S
C5715 C5712 1.499 . S
C5715 C5716 1.373 . S
C5715 C5717 1.389 . S
C5716 H5689 0.950 . S
C5716 C5702 1.377 . S
C5716 C5715 1.373 . S
C5717 C5701 1.377 . S
C5717 C5715 1.389 . S
C5717 C5718 1.524 . S
C5718 C5717 1.524 . S
C5718 C5719 1.397 . S
C5718 C5723 1.363 . S
C5719 H5690 0.950 . S
C5719 C5718 1.397 . S
C5719 C5720 1.334 . S
C5720 H5691 0.950 . S
C5720 C5719 1.334 . S
C5720 C5721 1.287 . S
C5721 C5720 1.287 . S
C5721 C5722 1.524 . S
C5721 H5724 0.999 . S
C5722 H5692 0.950 . S
C5722 C5721 1.524 . S
C5722 C5723 1.415 . S
C5723 H5693 0.950 . S
C5723 C5718 1.363 . S
C5723 C5722 1.415 . S
H5724 C5721 0.999 . S
H5725 C5706 0.913 . S
H5726 C5744 0.951 . S
H5727 C5746 0.951 . S
H5728 C5748 0.950 . S
H5729 C5749 0.950 . S
H5730 C5751 0.950 . S
H5731 C5754 0.950 . S
H5732 C5755 0.950 . S
H5733 C5757 0.950 . S
H5734 C5758 0.950 . S
H5735 C5759 0.951 . S
H5736 C5761 0.951 . S
H5737 C5763 0.950 . S
H5738 C5764 0.950 . S
H5739 C5766 0.950 . S
H5740 C5769 0.950 . S
H5741 C5770 0.950 . S
H5742 C5772 0.950 . S
H5743 C5773 0.950 . S
C5744 H5726 0.951 . S
C5744 C5745 1.366 . S
C5744 C5746 1.388 . S
C5745 C5744 1.366 . S
C5745 C5749 1.385 . S
C5746 H5727 0.951 . S
C5746 C5744 1.388 . S
C5746 C5747 1.366 . S
C5747 C5746 1.366 . S
C5747 C5748 1.414 . S
C5747 C5750 1.499 . S
C5748 H5728 0.950 . S
C5748 C5747 1.414 . S
C5748 C5749 1.374 . S
C5749 H5729 0.950 . S
C5749 C5745 1.385 . S
C5749 C5748 1.374 . S
C5750 C5747 1.499 . S
C5750 C5751 1.373 . S
C5750 C5752 1.389 . S
C5751 H5730 0.950 . S
C5751 C5750 1.373 . S
C5751 C5767 1.377 . S
C5752 C5750 1.389 . S
C5752 C5753 1.524 . S
C5752 C5766 1.377 . S
C5753 C5752 1.524 . S
C5753 C5754 1.397 . S
C5753 C5758 1.363 . S
C5754 H5731 0.950 . S
C5754 C5753 1.397 . S
C5754 C5755 1.334 . S
C5755 H5732 0.950 . S
C5755 C5754 1.334 . S
C5755 C5756 1.287 . S
C5756 C5755 1.287 . S
C5756 C5757 1.524 . S
C5756 H5775 0.913 . S
C5757 H5733 0.950 . S
C5757 C5756 1.524 . S
C5757 C5758 1.415 . S
C5758 H5734 0.950 . S
C5758 C5753 1.363 . S
C5758 C5757 1.415 . S
C5759 H5735 0.951 . S
C5759 C5760 1.366 . S
C5759 C5761 1.388 . S
C5760 C5759 1.366 . S
C5760 C5764 1.385 . S
C5761 H5736 0.951 . S
C5761 C5759 1.388 . S
C5761 C5762 1.366 . S
C5762 C5761 1.366 . S
C5762 C5763 1.414 . S
C5762 C5765 1.499 . S
C5763 H5737 0.950 . S
C5763 C5762 1.414 . S
C5763 C5764 1.374 . S
C5764 H5738 0.950 . S
C5764 C5760 1.385 . S
C5764 C5763 1.374 . S
C5765 C5762 1.499 . S
C5765 C5766 1.373 . S
C5765 C5767 1.389 . S
C5766 H5739 0.950 . S
C5766 C5752 1.377 . S
C5766 C5765 1.373 . S
C5767 C5751 1.377 . S
C5767 C5765 1.389 . S
C5767 C5768 1.524 . S
C5768 C5767 1.524 . S
C5768 C5769 1.397 . S
C5768 C5773 1.363 . S
C5769 H5740 0.950 . S
C5769 C5768 1.397 . S
C5769 C5770 1.334 . S
C5770 H5741 0.950 . S
C5770 C5769 1.334 . S
C5770 C5771 1.287 . S
C5771 C5770 1.287 . S
C5771 C5772 1.524 . S
C5771 H5774 0.999 . S
C5772 H5742 0.950 . S
C5772 C5771 1.524 . S
C5772 C5773 1.415 . S
C5773 H5743 0.950 . S
C5773 C5768 1.363 . S
C5773 C5772 1.415 . S
H5774 C5771 0.999 . S
H5775 C5756 0.913 . S
C995 C105 2.075 . S
C1010 C349 2.015 . S
C1045 C65 2.065 . S
C1060 C400 2.041 . S
C1095 C73 1.441 . S
C1110 C429 1.434 . S
C1160 C473 1.486 . S
C1145 C92 1.514 . S
C1195 C17 1.436 . S
C1210 C513 1.397 . S
C1260 C549 1.466 . S
C1245 C37 1.465 . S
C1310 C599 1.773 . S
C1295 C49 1.684 . S
C1345 C8 2.166 . S
C1360 C629 2.127 . S
C1410 C359 1.800 . S
C1395 C231 1.801 . S
C1445 C241 0.421 . S
C1460 C402 0.493 . S
C1510 C439 1.185 . S
C1495 C273 1.155 . S
C1560 C469 1.293 . S
C1545 C171 1.305 . S
C1595 C227 1.348 . S
C1610 C509 1.335 . S
C1660 C559 0.858 . S
C1645 C245 0.849 . S
C1710 C593 0.714 . S
C1695 C269 0.707 . S
C1760 C639 1.777 . S
C1745 C175 1.778 . S
C1810 C353 0.999 . S
C1795 C162 1.020 1_554 S
C1845 C289 1.705 . S
C1860 C679 1.691 . S
C1910 C713 1.392 . S
C1895 C330 1.420 . S
C1960 C749 0.880 . S
C1945 C317 0.889 . S
C1995 C120 1.282 . S
C2010 C633 1.242 . S
C2045 C134 1.501 . S
C2060 C433 1.465 . S
C2095 C331 1.579 . S
C2110 C799 1.568 . S
C2160 C818 0.224 . S
C2145 C303 0.159 . S
C2210 C360 2.049 . S
C2195 C59 2.055 . S
C2260 C829 2.101 . S
C2245 C107 2.114 . S
C2295 C91 1.499 . S
C2310 C440 1.506 . S
C2345 C78 1.538 . S
C2360 C802 1.515 . S
C2410 C522 1.435 . S
C2395 C7 1.421 . S
C2445 C51 1.519 . S
C2460 C720 1.524 . S
C2510 C578 1.803 1_566 S
C2495 C31 1.829 . S
C2560 C880 2.162 . S
C2545 C22 2.181 . S
C2610 C338 1.843 . S
C2595 C143 1.864 . S
C2660 C833 0.506 . S
C2645 C315 0.517 . S
C2695 C115 1.239 . S
C2710 C418 1.228 . S
C2745 C287 1.338 . S
C2760 C800 1.356 . S
C2795 C147 1.384 . S
C2810 C520 1.402 . S
C2860 C698 0.905 . S
C2845 C311 0.911 . S
C2895 C119 0.741 1_545 S
C2910 C602 0.741 . S
C2945 C283 1.840 . S
C2960 C858 1.819 . S
C2995 C190 1.013 . S
C3010 C362 0.996 . S
C3045 C177 1.749 . S
C3060 C658 1.738 . S
C3095 C260 1.417 . S
C3110 C562 1.399 . S
C3145 C247 0.932 . S
C3160 C760 0.925 . S
C3210 C882 1.249 . S
C3195 C274 1.275 . S
C3245 C218 1.499 . S
C3260 C442 1.475 . S
C3310 C458 1.617 . S
C3295 C261 1.626 . S
C3360 C399 0.233 . S
C3345 C205 0.187 . S
C3395 C77 2.052 . S
C3410 C909 2.015 . S
C3460 C840 2.040 . S
C3445 C93 2.064 . S
C3495 C101 1.442 . S
C3510 C949 1.435 . S
C3545 C64 1.514 1_655 S
C3560 C793 1.485 . S
C3595 C45 1.436 . S
C3610 C673 1.398 . S
C3660 C709 1.467 . S
C3645 C9 1.464 . S
C3710 C759 1.773 . S
C3695 C21 1.684 . S
C3760 C869 2.127 . S
C3745 C36 2.166 . S
C3810 C919 1.799 . S
C3795 C259 1.801 . S
C3845 C185 0.422 . S
C3860 C842 0.494 . S
C3910 C959 1.186 . S
C3895 C203 1.156 . S
C3960 C789 1.293 . S
C3945 C213 1.305 . S
C4010 C669 1.334 . S
C3995 C255 1.349 . S
C4045 C189 0.849 . S
C4060 C719 0.858 . S
C4110 C753 0.713 . S
C4095 C199 0.707 . S
C4145 C217 1.779 . S
C4160 C879 1.778 . S
C4210 C913 0.999 . S
C4195 C316 1.025 . S
C4245 C135 1.705 . S
C4260 C519 1.691 . S
C4310 C553 1.392 . S
C4295 C148 1.420 1_565 S
C4360 C589 0.880 . S
C4345 C163 0.888 . S
C4410 C873 1.240 . S
C4395 C302 1.281 . S
C4445 C288 1.500 . S
C4460 C953 1.464 . S
C4510 C479 1.568 . S
C4495 C149 1.579 . S
C4560 C378 0.227 . S
C4545 C121 0.158 . S
C4595 C87 2.056 . S
C4610 C920 2.049 . S
C4660 C389 2.100 . S
C4645 C79 2.114 . S
C4695 C63 1.499 . S
C4710 C960 1.506 . S
C4745 C106 1.538 . S
C4760 C482 1.515 . S
C4795 C35 1.420 . S
C4810 C682 1.434 . S
C4860 C560 1.524 . S
C4845 C23 1.519 . S
C4895 C3 1.828 . S
C4910 C738 1.823 . S
C4945 C50 2.181 . S
C4960 C640 2.161 . S
C5010 C898 1.842 . S
C4995 C325 1.863 . S
C5045 C161 0.514 . S
C5060 C393 0.497 . S
C5110 C938 1.228 . S
C5095 C297 1.239 . S
C5145 C133 1.338 . S
C5160 C480 1.356 . S
C5195 C329 1.383 . S
C5210 C680 1.402 . S
C5260 C538 0.907 . S
C5245 C157 0.918 . S
C5295 C301 0.743 . S
C5310 C762 0.743 . S
C5360 C618 1.819 . S
C5345 C129 1.839 . S
C5410 C922 0.996 . S
C5395 C246 1.013 . S
C5460 C498 1.738 . S
C5445 C219 1.748 . S
C5495 C232 1.417 . S
C5510 C722 1.397 . S
C5560 C600 0.925 . S
C5545 C191 0.932 . S
C5595 C204 1.276 . S
C5610 C642 1.251 . S
C5645 C176 1.499 . S
C5660 C962 1.476 . S
C5710 C778 1.617 . S
C5695 C233 1.626 . S
C5760 C839 0.231 . S
C5745 C275 0.186 . S
