# Generated by pormake.
# Topology gar, (4,6)-cn, num edge types: 1
# Building blocks:
#     Node 0, Type 0, BuildingBlock: UXUYUI_clean_sbu_0, # of connection points: 4
#     Node 1, Type 0, BuildingBlock: UXUYUI_clean_sbu_0, # of connection points: 4
#     Node 2, Type 0, BuildingBlock: UXUYUI_clean_sbu_0, # of connection points: 4
#     Node 3, Type 0, BuildingBlock: UXUYUI_clean_sbu_0, # of connection points: 4
#     Node 4, Type 0, BuildingBlock: UXUYUI_clean_sbu_0, # of connection points: 4
#     Node 5, Type 0, BuildingBlock: UXUYUI_clean_sbu_0, # of connection points: 4
#     Node 6, Type 0, BuildingBlock: UXUYUI_clean_sbu_0, # of connection points: 4
#     Node 7, Type 0, BuildingBlock: UXUYUI_clean_sbu_0, # of connection points: 4
#     Node 8, Type 0, BuildingBlock: UXUYUI_clean_sbu_0, # of connection points: 4
#     Node 9, Type 0, BuildingBlock: UXUYUI_clean_sbu_0, # of connection points: 4
#     Node 10, Type 0, BuildingBlock: UXUYUI_clean_sbu_0, # of connection points: 4
#     Node 11, Type 0, BuildingBlock: UXUYUI_clean_sbu_0, # of connection points: 4
#     Node 12, Type 0, BuildingBlock: UXUYUI_clean_sbu_0, # of connection points: 4
#     Node 13, Type 0, BuildingBlock: UXUYUI_clean_sbu_0, # of connection points: 4
#     Node 14, Type 0, BuildingBlock: UXUYUI_clean_sbu_0, # of connection points: 4
#     Node 15, Type 0, BuildingBlock: UXUYUI_clean_sbu_0, # of connection points: 4
#     Node 16, Type 0, BuildingBlock: UXUYUI_clean_sbu_0, # of connection points: 4
#     Node 17, Type 0, BuildingBlock: UXUYUI_clean_sbu_0, # of connection points: 4
#     Node 18, Type 0, BuildingBlock: UXUYUI_clean_sbu_0, # of connection points: 4
#     Node 19, Type 0, BuildingBlock: UXUYUI_clean_sbu_0, # of connection points: 4
#     Node 20, Type 0, BuildingBlock: UXUYUI_clean_sbu_0, # of connection points: 4
#     Node 21, Type 0, BuildingBlock: UXUYUI_clean_sbu_0, # of connection points: 4
#     Node 22, Type 0, BuildingBlock: UXUYUI_clean_sbu_0, # of connection points: 4
#     Node 23, Type 0, BuildingBlock: UXUYUI_clean_sbu_0, # of connection points: 4
#     Node 24, Type 1, BuildingBlock: KUMBOL_clean_sbu_1, # of connection points: 6
#     Node 25, Type 1, BuildingBlock: KUMBOL_clean_sbu_1, # of connection points: 6
#     Node 26, Type 1, BuildingBlock: KUMBOL_clean_sbu_1, # of connection points: 6
#     Node 27, Type 1, BuildingBlock: KUMBOL_clean_sbu_1, # of connection points: 6
#     Node 28, Type 1, BuildingBlock: KUMBOL_clean_sbu_1, # of connection points: 6
#     Node 29, Type 1, BuildingBlock: KUMBOL_clean_sbu_1, # of connection points: 6
#     Node 30, Type 1, BuildingBlock: KUMBOL_clean_sbu_1, # of connection points: 6
#     Node 31, Type 1, BuildingBlock: KUMBOL_clean_sbu_1, # of connection points: 6
#     Node 32, Type 1, BuildingBlock: KUMBOL_clean_sbu_1, # of connection points: 6
#     Node 33, Type 1, BuildingBlock: KUMBOL_clean_sbu_1, # of connection points: 6
#     Node 34, Type 1, BuildingBlock: KUMBOL_clean_sbu_1, # of connection points: 6
#     Node 35, Type 1, BuildingBlock: KUMBOL_clean_sbu_1, # of connection points: 6
#     Node 36, Type 1, BuildingBlock: KUMBOL_clean_sbu_1, # of connection points: 6
#     Node 37, Type 1, BuildingBlock: KUMBOL_clean_sbu_1, # of connection points: 6
#     Node 38, Type 1, BuildingBlock: KUMBOL_clean_sbu_1, # of connection points: 6
#     Node 39, Type 1, BuildingBlock: KUMBOL_clean_sbu_1, # of connection points: 6
#     Edge 40, Type (0, 1), BuildingBlock: OJICUG_clean_linker_0, # of connection points: 2
#     Edge 41, Type (0, 1), BuildingBlock: OJICUG_clean_linker_0, # of connection points: 2
#     Edge 42, Type (0, 1), BuildingBlock: OJICUG_clean_linker_0, # of connection points: 2
#     Edge 43, Type (0, 1), BuildingBlock: OJICUG_clean_linker_0, # of connection points: 2
#     Edge 44, Type (0, 1), BuildingBlock: OJICUG_clean_linker_0, # of connection points: 2
#     Edge 45, Type (0, 1), BuildingBlock: OJICUG_clean_linker_0, # of connection points: 2
#     Edge 46, Type (0, 1), BuildingBlock: OJICUG_clean_linker_0, # of connection points: 2
#     Edge 47, Type (0, 1), BuildingBlock: OJICUG_clean_linker_0, # of connection points: 2
#     Edge 48, Type (0, 1), BuildingBlock: OJICUG_clean_linker_0, # of connection points: 2
#     Edge 49, Type (0, 1), BuildingBlock: OJICUG_clean_linker_0, # of connection points: 2
#     Edge 50, Type (0, 1), BuildingBlock: OJICUG_clean_linker_0, # of connection points: 2
#     Edge 51, Type (0, 1), BuildingBlock: OJICUG_clean_linker_0, # of connection points: 2
#     Edge 52, Type (0, 1), BuildingBlock: OJICUG_clean_linker_0, # of connection points: 2
#     Edge 53, Type (0, 1), BuildingBlock: OJICUG_clean_linker_0, # of connection points: 2
#     Edge 54, Type (0, 1), BuildingBlock: OJICUG_clean_linker_0, # of connection points: 2
#     Edge 55, Type (0, 1), BuildingBlock: OJICUG_clean_linker_0, # of connection points: 2
#     Edge 56, Type (0, 1), BuildingBlock: OJICUG_clean_linker_0, # of connection points: 2
#     Edge 57, Type (0, 1), BuildingBlock: OJICUG_clean_linker_0, # of connection points: 2
#     Edge 58, Type (0, 1), BuildingBlock: OJICUG_clean_linker_0, # of connection points: 2
#     Edge 59, Type (0, 1), BuildingBlock: OJICUG_clean_linker_0, # of connection points: 2
#     Edge 60, Type (0, 1), BuildingBlock: OJICUG_clean_linker_0, # of connection points: 2
#     Edge 61, Type (0, 1), BuildingBlock: OJICUG_clean_linker_0, # of connection points: 2
#     Edge 62, Type (0, 1), BuildingBlock: OJICUG_clean_linker_0, # of connection points: 2
#     Edge 63, Type (0, 1), BuildingBlock: OJICUG_clean_linker_0, # of connection points: 2
#     Edge 64, Type (0, 1), BuildingBlock: OJICUG_clean_linker_0, # of connection points: 2
#     Edge 65, Type (0, 1), BuildingBlock: OJICUG_clean_linker_0, # of connection points: 2
#     Edge 66, Type (0, 1), BuildingBlock: OJICUG_clean_linker_0, # of connection points: 2
#     Edge 67, Type (0, 1), BuildingBlock: OJICUG_clean_linker_0, # of connection points: 2
#     Edge 68, Type (0, 1), BuildingBlock: OJICUG_clean_linker_0, # of connection points: 2
#     Edge 69, Type (0, 1), BuildingBlock: OJICUG_clean_linker_0, # of connection points: 2
#     Edge 70, Type (0, 1), BuildingBlock: OJICUG_clean_linker_0, # of connection points: 2
#     Edge 71, Type (0, 1), BuildingBlock: OJICUG_clean_linker_0, # of connection points: 2
#     Edge 72, Type (0, 1), BuildingBlock: OJICUG_clean_linker_0, # of connection points: 2
#     Edge 73, Type (0, 1), BuildingBlock: OJICUG_clean_linker_0, # of connection points: 2
#     Edge 74, Type (0, 1), BuildingBlock: OJICUG_clean_linker_0, # of connection points: 2
#     Edge 75, Type (0, 1), BuildingBlock: OJICUG_clean_linker_0, # of connection points: 2
#     Edge 76, Type (0, 1), BuildingBlock: OJICUG_clean_linker_0, # of connection points: 2
#     Edge 77, Type (0, 1), BuildingBlock: OJICUG_clean_linker_0, # of connection points: 2
#     Edge 78, Type (0, 1), BuildingBlock: OJICUG_clean_linker_0, # of connection points: 2
#     Edge 79, Type (0, 1), BuildingBlock: OJICUG_clean_linker_0, # of connection points: 2
#     Edge 80, Type (0, 1), BuildingBlock: OJICUG_clean_linker_0, # of connection points: 2
#     Edge 81, Type (0, 1), BuildingBlock: OJICUG_clean_linker_0, # of connection points: 2
#     Edge 82, Type (0, 1), BuildingBlock: OJICUG_clean_linker_0, # of connection points: 2
#     Edge 83, Type (0, 1), BuildingBlock: OJICUG_clean_linker_0, # of connection points: 2
#     Edge 84, Type (0, 1), BuildingBlock: OJICUG_clean_linker_0, # of connection points: 2
#     Edge 85, Type (0, 1), BuildingBlock: OJICUG_clean_linker_0, # of connection points: 2
#     Edge 86, Type (0, 1), BuildingBlock: OJICUG_clean_linker_0, # of connection points: 2
#     Edge 87, Type (0, 1), BuildingBlock: OJICUG_clean_linker_0, # of connection points: 2
#     Edge 88, Type (0, 1), BuildingBlock: OJICUG_clean_linker_0, # of connection points: 2
#     Edge 89, Type (0, 1), BuildingBlock: OJICUG_clean_linker_0, # of connection points: 2
#     Edge 90, Type (0, 1), BuildingBlock: OJICUG_clean_linker_0, # of connection points: 2
#     Edge 91, Type (0, 1), BuildingBlock: OJICUG_clean_linker_0, # of connection points: 2
#     Edge 92, Type (0, 1), BuildingBlock: OJICUG_clean_linker_0, # of connection points: 2
#     Edge 93, Type (0, 1), BuildingBlock: OJICUG_clean_linker_0, # of connection points: 2
#     Edge 94, Type (0, 1), BuildingBlock: OJICUG_clean_linker_0, # of connection points: 2
#     Edge 95, Type (0, 1), BuildingBlock: OJICUG_clean_linker_0, # of connection points: 2
#     Edge 96, Type (0, 1), BuildingBlock: OJICUG_clean_linker_0, # of connection points: 2
#     Edge 97, Type (0, 1), BuildingBlock: OJICUG_clean_linker_0, # of connection points: 2
#     Edge 98, Type (0, 1), BuildingBlock: OJICUG_clean_linker_0, # of connection points: 2
#     Edge 99, Type (0, 1), BuildingBlock: OJICUG_clean_linker_0, # of connection points: 2
#     Edge 100, Type (0, 1), BuildingBlock: OJICUG_clean_linker_0, # of connection points: 2
#     Edge 101, Type (0, 1), BuildingBlock: OJICUG_clean_linker_0, # of connection points: 2
#     Edge 102, Type (0, 1), BuildingBlock: OJICUG_clean_linker_0, # of connection points: 2
#     Edge 103, Type (0, 1), BuildingBlock: OJICUG_clean_linker_0, # of connection points: 2
#     Edge 104, Type (0, 1), BuildingBlock: OJICUG_clean_linker_0, # of connection points: 2
#     Edge 105, Type (0, 1), BuildingBlock: OJICUG_clean_linker_0, # of connection points: 2
#     Edge 106, Type (0, 1), BuildingBlock: OJICUG_clean_linker_0, # of connection points: 2
#     Edge 107, Type (0, 1), BuildingBlock: OJICUG_clean_linker_0, # of connection points: 2
#     Edge 108, Type (0, 1), BuildingBlock: OJICUG_clean_linker_0, # of connection points: 2
#     Edge 109, Type (0, 1), BuildingBlock: OJICUG_clean_linker_0, # of connection points: 2
#     Edge 110, Type (0, 1), BuildingBlock: OJICUG_clean_linker_0, # of connection points: 2
#     Edge 111, Type (0, 1), BuildingBlock: OJICUG_clean_linker_0, # of connection points: 2
#     Edge 112, Type (0, 1), BuildingBlock: OJICUG_clean_linker_0, # of connection points: 2
#     Edge 113, Type (0, 1), BuildingBlock: OJICUG_clean_linker_0, # of connection points: 2
#     Edge 114, Type (0, 1), BuildingBlock: OJICUG_clean_linker_0, # of connection points: 2
#     Edge 115, Type (0, 1), BuildingBlock: OJICUG_clean_linker_0, # of connection points: 2
#     Edge 116, Type (0, 1), BuildingBlock: OJICUG_clean_linker_0, # of connection points: 2
#     Edge 117, Type (0, 1), BuildingBlock: OJICUG_clean_linker_0, # of connection points: 2
#     Edge 118, Type (0, 1), BuildingBlock: OJICUG_clean_linker_0, # of connection points: 2
#     Edge 119, Type (0, 1), BuildingBlock: OJICUG_clean_linker_0, # of connection points: 2
#     Edge 120, Type (0, 1), BuildingBlock: OJICUG_clean_linker_0, # of connection points: 2
#     Edge 121, Type (0, 1), BuildingBlock: OJICUG_clean_linker_0, # of connection points: 2
#     Edge 122, Type (0, 1), BuildingBlock: OJICUG_clean_linker_0, # of connection points: 2
#     Edge 123, Type (0, 1), BuildingBlock: OJICUG_clean_linker_0, # of connection points: 2
#     Edge 124, Type (0, 1), BuildingBlock: OJICUG_clean_linker_0, # of connection points: 2
#     Edge 125, Type (0, 1), BuildingBlock: OJICUG_clean_linker_0, # of connection points: 2
#     Edge 126, Type (0, 1), BuildingBlock: OJICUG_clean_linker_0, # of connection points: 2
#     Edge 127, Type (0, 1), BuildingBlock: OJICUG_clean_linker_0, # of connection points: 2
#     Edge 128, Type (0, 1), BuildingBlock: OJICUG_clean_linker_0, # of connection points: 2
#     Edge 129, Type (0, 1), BuildingBlock: OJICUG_clean_linker_0, # of connection points: 2
#     Edge 130, Type (0, 1), BuildingBlock: OJICUG_clean_linker_0, # of connection points: 2
#     Edge 131, Type (0, 1), BuildingBlock: OJICUG_clean_linker_0, # of connection points: 2
#     Edge 132, Type (0, 1), BuildingBlock: OJICUG_clean_linker_0, # of connection points: 2
#     Edge 133, Type (0, 1), BuildingBlock: OJICUG_clean_linker_0, # of connection points: 2
#     Edge 134, Type (0, 1), BuildingBlock: OJICUG_clean_linker_0, # of connection points: 2
#     Edge 135, Type (0, 1), BuildingBlock: OJICUG_clean_linker_0, # of connection points: 2
# Relax obj value: 0.098
# Max RMSD: 0.209
# Mean RMSD: 0.158
data_MOF--net-gar--node1-UXUYUI_clean_sbu_0--node2-KUMBOL_clean_sbu_1--edge1-OJICUG_clean_linker_0
_symmetry_space_group_name_H-M    P1
_symmetry_Int_Tables_number       1
_symmetry_cell_setting            triclinic
loop_
_symmetry_equiv_pos_as_xyz
'x, y, z'
_cell_length_a     58.200964
_cell_length_b     58.258231
_cell_length_c     54.319719
_cell_angle_alpha  96.446887
_cell_angle_beta   96.319222
_cell_angle_gamma 101.61314
loop_
_atom_site_label
_atom_site_type_symbol
_atom_site_fract_x
_atom_site_fract_y
_atom_site_fract_z
_atom_type_partial_charge
Li0 Li 0.03087 0.31885 0.34632 0.0
Li1 Li 0.05922 0.34715 0.38316 0.0
Li2 Li 0.07917 0.32168 0.3488 0.0
Li3 Li 0.0551 0.30209 0.38033 0.0
C4 C 0.05502 0.36295 0.3293 0.0
N5 N 0.04889 0.39533 0.29713 0.0
C6 C 0.04743 0.38336 0.33767 0.0
C7 C 0.05947 0.35892 0.30461 0.0
C8 C 0.04447 0.39955 0.32111 0.0
C9 C 0.05623 0.37551 0.28861 0.0
C10 C 0.01551 0.31958 0.4003 0.0
C11 C 1.00719 0.31375 0.44193 0.0
N12 N 0.98443 0.31546 0.43531 0.0
C13 C 0.99207 0.32142 0.39396 0.0
C14 C 0.02322 0.31592 0.42454 0.0
C15 C 0.97663 0.31927 0.4119 0.0
C16 C 0.98165 0.29254 0.32985 0.0
N17 N 0.99645 0.31391 0.3295 0.0
C18 C 0.96213 0.32951 0.31599 0.0
C19 C 0.98695 0.33218 0.32239 0.0
C20 C 0.94626 0.30787 0.31706 0.0
C21 C 0.95678 0.28918 0.32374 0.0
H22 H 0.98902 0.27819 0.33602 0.0
H23 H 0.99847 0.34931 0.32275 0.0
C24 C 0.08001 0.39439 0.41449 0.0
N25 N 0.06 0.37735 0.40603 0.0
C26 C 0.07919 0.41494 0.43075 0.0
C27 C 0.0374 0.40024 0.42966 0.0
C28 C 0.03892 0.38032 0.41319 0.0
C29 C 0.05766 0.41809 0.43891 0.0
H30 H 0.09671 0.39211 0.40872 0.0
H31 H 0.02298 0.36727 0.40601 0.0
C32 C 0.04817 0.27356 0.32698 0.0
N33 N 0.04252 0.23253 0.29398 0.0
C34 C 0.0555 0.25388 0.33498 0.0
C35 C 0.03798 0.27241 0.30223 0.0
C36 C 0.05246 0.23328 0.31801 0.0
C37 C 0.03531 0.25151 0.28581 0.0
C38 C 0.10152 0.32706 0.40585 0.0
C39 C 0.12138 0.31816 0.40094 0.0
C40 C 0.09935 0.33566 0.43035 0.0
C41 C 0.13878 0.31796 0.42073 0.0
C42 C 0.11715 0.33514 0.44964 0.0
N43 N 0.13633 0.3264 0.44447 0.0
C44 C 0.12968 0.33693 0.3377 0.0
C45 C 0.11283 0.29709 0.32223 0.0
C46 C 0.15198 0.33421 0.33078 0.0
N47 N 0.11034 0.3185 0.3336 0.0
C48 C 0.1348 0.29365 0.31497 0.0
C49 C 0.15528 0.31221 0.31935 0.0
H50 H 0.12813 0.35383 0.34706 0.0
H51 H 0.09792 0.2822 0.31932 0.0
C52 C 0.02992 0.26233 0.39902 0.0
N53 N 0.05218 0.27507 0.39869 0.0
C54 C 0.02625 0.24231 0.41133 0.0
C55 C 0.06854 0.24824 0.42225 0.0
C56 C 0.07138 0.26825 0.4098 0.0
C57 C 0.0457 0.23493 0.42327 0.0
H58 H 0.01491 0.26779 0.38972 0.0
H59 H 0.08896 0.2781 0.4088 0.0
O60 O 0.05878 0.34732 0.34543 0.0
O61 O 0.03084 0.32154 0.38291 0.0
O62 O 0.05065 0.29378 0.34332 0.0
O63 O 0.08469 0.3281 0.38664 0.0
H64 H 0.04402 0.38673 0.35678 0.0
H65 H 0.06545 0.3432 0.29795 0.0
H66 H 0.03871 0.41551 0.32734 0.0
H67 H 0.05962 0.37268 0.26944 0.0
H68 H 1.01285 0.31072 0.46071 0.0
H69 H 0.9859 0.32482 0.37552 0.0
H70 H 0.04135 0.31461 0.4298 0.0
H71 H 0.95846 0.3207 0.40722 0.0
H72 H 0.95545 0.34473 0.3113 0.0
H73 H 0.9459 0.27196 0.32459 0.0
H74 H 0.09541 0.42801 0.43723 0.0
H75 H 0.02024 0.40179 0.43473 0.0
H76 H 0.0635 0.25451 0.35405 0.0
H77 H 0.03219 0.28752 0.29581 0.0
H78 H 0.05802 0.21789 0.32393 0.0
H79 H 0.02747 0.25035 0.26659 0.0
H80 H 0.12329 0.31139 0.38209 0.0
H81 H 0.08414 0.34277 0.43438 0.0
H82 H 0.15424 0.31112 0.41722 0.0
H83 H 0.11575 0.34177 0.4687 0.0
H84 H 0.16657 0.34946 0.3345 0.0
H85 H 0.13577 0.27616 0.30667 0.0
H86 H 1.00827 0.23299 0.41182 0.0
H87 H 0.08413 0.24315 0.43074 0.0
Li88 Li 0.03175 0.77753 0.68896 0.0
Li89 Li 0.05466 0.76093 0.7237 0.0
Li90 Li 0.02562 0.7325 0.68714 0.0
Li91 Li 1.0064 0.75815 0.72106 0.0
C92 C 0.07048 0.75919 0.66996 0.0
N93 N 0.10196 0.76413 0.63542 0.0
C94 C 0.09414 0.77064 0.67757 0.0
C95 C 0.06282 0.75025 0.6448 0.0
C96 C 0.10977 0.773 0.65982 0.0
C97 C 0.07903 0.7529 0.62762 0.0
C98 C 0.04103 0.80616 0.74328 0.0
C99 C 0.04174 0.82587 0.78491 0.0
N100 N 0.05267 0.84658 0.77792 0.0
C101 C 0.05233 0.8276 0.73653 0.0
C102 C 0.03568 0.80523 0.76764 0.0
C103 C 0.05804 0.84786 0.7543 0.0
C104 C 0.01588 0.81236 0.66071 0.0
N105 N 0.03489 0.80394 0.66977 0.0
C106 C 0.06117 0.83457 0.65443 0.0
C107 C 0.05722 0.81471 0.66684 0.0
C108 C 0.04202 0.84379 0.6449 0.0
C109 C 0.01904 0.83225 0.64798 0.0
H110 H 0.99828 0.80385 0.66365 0.0
H111 H 0.07212 0.80826 0.67472 0.0
C112 C 0.09901 0.74546 0.73775 0.0
N113 N 0.08874 0.76453 0.74087 0.0
C114 C 0.12366 0.7476 0.74443 0.0
C115 C 0.12736 0.78892 0.75816 0.0
C116 C 0.10261 0.78603 0.75117 0.0
C117 C 0.13868 0.76967 0.75451 0.0
H118 H 0.08822 0.72857 0.72893 0.0
H119 H 0.09471 0.80132 0.75311 0.0
C120 C 0.98331 0.74909 0.66407 0.0
N121 N 0.94628 0.74225 0.62574 0.0
C122 C 0.96004 0.74128 0.66859 0.0
C123 C 0.98781 0.75324 0.64004 0.0
C124 C 0.94154 0.73799 0.64897 0.0
C125 C 0.96882 0.7497 0.6209 0.0
C126 C 0.02713 0.7158 0.74013 0.0
C127 C 0.01819 0.69201 0.73051 0.0
C128 C 0.03669 0.72208 0.76529 0.0
C129 C 0.01906 0.67478 0.74631 0.0
C130 C 0.03719 0.70432 0.7805 0.0
N131 N 0.02846 0.68124 0.77077 0.0
C132 C 0.0411 0.68974 0.6703 0.0
C133 C 1.00823 0.69479 0.64351 0.0
C134 C 0.04234 0.66911 0.65467 0.0
N135 N 0.02415 0.7022 0.66471 0.0
C136 C 1.00913 0.67448 0.6271 0.0
C137 C 0.02634 0.66122 0.63255 0.0
H138 H 0.05396 0.69598 0.68687 0.0
H139 H 0.99498 0.70482 0.63899 0.0
C140 C 0.96417 0.77861 0.7263 0.0
N141 N 0.97528 0.76223 0.73572 0.0
C142 C 0.94209 0.78202 0.73312 0.0
C143 C 0.94284 0.75247 0.7603 0.0
C144 C 0.96479 0.74925 0.7526 0.0
C145 C 0.93075 0.76891 0.75039 0.0
H146 H 0.97224 0.78893 0.71291 0.0
H147 H 0.97321 0.73606 0.76002 0.0
O148 O 0.05495 0.75661 0.68711 0.0
O149 O 0.03472 0.78628 0.72599 0.0
O150 O 1.00152 0.75302 0.68323 0.0
O151 O 0.02689 0.73282 0.72483 0.0
H152 H 0.10033 0.77793 0.69689 0.0
H153 H 0.04456 0.74136 0.63862 0.0
H154 H 0.1281 0.78192 0.66544 0.0
H155 H 0.07337 0.74603 0.60808 0.0
H156 H 0.0377 0.82545 0.80384 0.0
H157 H 0.05657 0.82865 0.71777 0.0
H158 H 0.02686 0.78875 0.77311 0.0
H159 H 0.0667 0.86459 0.7493 0.0
H160 H 0.07917 0.84259 0.65225 0.0
H161 H 1.00375 0.83881 0.6411 0.0
H162 H 0.13091 0.73206 0.74066 0.0
H163 H 0.13752 0.80634 0.76612 0.0
H164 H 0.9563 0.73778 0.68705 0.0
H165 H 1.00577 0.75924 0.63626 0.0
H166 H 0.92343 0.73205 0.65223 0.0
H167 H 0.972 0.75293 0.60221 0.0
H168 H 1.01067 0.68691 0.71107 0.0
H169 H 0.04374 0.74046 0.77293 0.0
H170 H 1.01226 0.65628 0.73912 0.0
H171 H 0.04456 0.70887 0.80002 0.0
H172 H 0.05611 0.65974 0.65954 0.0
H173 H 0.99638 0.66913 0.61032 0.0
H174 H 0.934 0.79507 0.72491 0.0
H175 H 0.93508 0.74163 0.77347 0.0
Li176 Li 0.53104 0.81827 0.84608 0.0
Li177 Li 0.56003 0.84706 0.88228 0.0
Li178 Li 0.57939 0.8205 0.84846 0.0
Li179 Li 0.5555 0.80201 0.8808 0.0
C180 C 0.55546 0.86215 0.82861 0.0
N181 N 0.54915 0.89508 0.79715 0.0
C182 C 0.54738 0.88219 0.83725 0.0
C183 C 0.56031 0.85879 0.804 0.0
C184 C 0.54434 0.89867 0.82106 0.0
C185 C 0.55696 0.87564 0.78836 0.0
C186 C 0.51612 0.81964 0.90023 0.0
C187 C 0.5082 0.81444 0.94212 0.0
N188 N 0.48523 0.81544 0.93542 0.0
C189 C 0.49247 0.82071 0.8938 0.0
C190 C 0.52414 0.8167 0.92464 0.0
C191 C 0.47714 0.81857 0.91185 0.0
C192 C 0.48169 0.79193 0.82702 0.0
N193 N 0.49643 0.81373 0.82914 0.0
C194 C 0.46202 0.83009 0.81771 0.0
C195 C 0.48683 0.83261 0.82424 0.0
C196 C 0.44616 0.80791 0.81619 0.0
C197 C 0.45683 0.78866 0.82055 0.0
H198 H 0.48906 0.777 0.83138 0.0
H199 H 0.49825 0.85003 0.82654 0.0
C200 C 0.5808 0.89632 0.90907 0.0
N201 N 0.56146 0.87795 0.90428 0.0
C202 C 0.58038 0.9175 0.92451 0.0
C203 C 0.54045 0.9006 0.93027 0.0
C204 C 0.54143 0.88014 0.9144 0.0
C205 C 0.56002 0.9198 0.93564 0.0
H206 H 0.59663 0.89465 0.90092 0.0
H207 H 0.52589 0.86607 0.91012 0.0
C208 C 0.54822 0.77267 0.82739 0.0
N209 N 0.54279 0.73183 0.7942 0.0
C210 C 0.55526 0.75287 0.83541 0.0
C211 C 0.53843 0.77175 0.80254 0.0
C212 C 0.55235 0.73237 0.81833 0.0
C213 C 0.53586 0.75093 0.78603 0.0
C214 C 0.60203 0.82702 0.90564 0.0
C215 C 0.62191 0.81802 0.90108 0.0
C216 C 0.59977 0.83599 0.92999 0.0
C217 C 0.6393 0.8182 0.92102 0.0
C218 C 0.61751 0.83576 0.94946 0.0
N219 N 0.63676 0.82699 0.9446 0.0
C220 C 0.63052 0.83424 0.8391 0.0
C221 C 0.61211 0.79566 0.82017 0.0
C222 C 0.65275 0.83092 0.83249 0.0
N223 N 0.61045 0.81667 0.83324 0.0
C224 C 0.63394 0.79177 0.81287 0.0
C225 C 0.65506 0.80934 0.81926 0.0
H226 H 0.62961 0.85079 0.84977 0.0
H227 H 0.5966 0.78141 0.81584 0.0
C228 C 0.53009 0.76346 0.90096 0.0
N229 N 0.55252 0.7757 0.90049 0.0
C230 C 0.5259 0.74445 0.91469 0.0
C231 C 0.56801 0.75003 0.92656 0.0
C232 C 0.5714 0.76916 0.91273 0.0
C233 C 0.54494 0.73752 0.92795 0.0
H234 H 0.51535 0.7685 0.89065 0.0
H235 H 0.58915 0.77865 0.91176 0.0
O236 O 0.55924 0.84623 0.84438 0.0
O237 O 0.53142 0.8219 0.88281 0.0
O238 O 0.55057 0.79279 0.84384 0.0
O239 O 0.58526 0.82778 0.88625 0.0
H240 H 0.54359 0.88503 0.85628 0.0
H241 H 0.56666 0.84336 0.79712 0.0
H242 H 0.5382 0.91433 0.82751 0.0
H243 H 0.56064 0.8733 0.76926 0.0
H244 H 0.51409 0.81195 0.96103 0.0
H245 H 0.48603 0.8235 0.87521 0.0
H246 H 0.54244 0.81604 0.92998 0.0
H247 H 0.45881 0.81944 0.90712 0.0
H248 H 0.45535 0.84578 0.81495 0.0
H249 H 0.44609 0.771 0.81929 0.0
H250 H 0.59599 0.93173 0.92811 0.0
H251 H 0.52425 0.9015 0.93806 0.0
H252 H 0.56288 0.75334 0.8546 0.0
H253 H 0.53286 0.78697 0.79612 0.0
H254 H 0.55767 0.71687 0.82426 0.0
H255 H 0.52831 0.74994 0.76673 0.0
H256 H 0.62388 0.81087 0.88237 0.0
H257 H 0.58454 0.84316 0.93378 0.0
H258 H 0.65482 0.81135 0.91775 0.0
H259 H 0.61602 0.84264 0.96842 0.0
H260 H 0.66811 0.8453 0.83786 0.0
H261 H 0.63436 0.77468 0.803 0.0
H262 H 0.50783 0.73505 0.91459 0.0
H263 H 0.58326 0.74532 0.93634 0.0
Li264 Li 0.53225 0.27796 0.1888 0.0
Li265 Li 0.55524 0.26149 0.22359 0.0
Li266 Li 0.52612 0.23272 0.18733 0.0
Li267 Li 0.50692 0.25861 0.22099 0.0
C268 C 0.57091 0.25927 0.16981 0.0
N269 N 0.60243 0.26367 0.13527 0.0
C270 C 0.59452 0.27097 0.1773 0.0
C271 C 0.56331 0.24985 0.14476 0.0
C272 C 0.61017 0.27302 0.15956 0.0
C273 C 0.57954 0.25223 0.12758 0.0
C274 C 0.54143 0.30664 0.24305 0.0
C275 C 0.54192 0.32636 0.28462 0.0
N276 N 0.55283 0.34708 0.27765 0.0
C277 C 0.55271 0.32809 0.2363 0.0
C278 C 0.53598 0.30571 0.26738 0.0
C279 C 0.5583 0.34836 0.25406 0.0
C280 C 0.51611 0.31371 0.16258 0.0
N281 N 0.5352 0.3046 0.16977 0.0
C282 C 0.56062 0.33494 0.153 0.0
C283 C 0.55717 0.31492 0.16527 0.0
C284 C 0.54134 0.34488 0.14534 0.0
C285 C 0.51877 0.33383 0.15019 0.0
H286 H 0.49883 0.30557 0.16677 0.0
H287 H 0.57223 0.30794 0.17167 0.0
C288 C 0.60002 0.24662 0.23593 0.0
N289 N 0.58943 0.2653 0.24043 0.0
C290 C 0.62474 0.24899 0.24213 0.0
C291 C 0.62788 0.28968 0.25837 0.0
C292 C 0.60305 0.28659 0.25173 0.0
C293 C 0.63953 0.27088 0.25325 0.0
H294 H 0.58942 0.22996 0.22629 0.0
H295 H 0.59488 0.3016 0.25478 0.0
C296 C 0.48371 0.24944 0.1642 0.0
N297 N 0.44641 0.24278 0.12619 0.0
C298 C 0.46052 0.24142 0.16886 0.0
C299 C 0.488 0.25392 0.1402 0.0
C300 C 0.44189 0.23822 0.14941 0.0
C301 C 0.46888 0.25046 0.12123 0.0
C302 C 0.52744 0.21633 0.24032 0.0
C303 C 0.51786 0.19264 0.23074 0.0
C304 C 0.53734 0.22242 0.2654 0.0
C305 C 0.51848 0.17531 0.24646 0.0
C306 C 0.53755 0.20458 0.28055 0.0
N307 N 0.52823 0.1816 0.27083 0.0
C308 C 0.54108 0.18921 0.17167 0.0
C309 C 0.50873 0.19437 0.14421 0.0
C310 C 0.54208 0.16818 0.15656 0.0
N311 N 0.52452 0.20195 0.16548 0.0
C312 C 0.50936 0.17361 0.12837 0.0
C313 C 0.52621 0.16004 0.13435 0.0
H314 H 0.55383 0.19554 0.1883 0.0
H315 H 0.49579 0.2046 0.13921 0.0
C316 C 0.46484 0.27932 0.22626 0.0
N317 N 0.47575 0.26275 0.23553 0.0
C318 C 0.4427 0.28274 0.23291 0.0
C319 C 0.44298 0.25275 0.25962 0.0
C320 C 0.465 0.24956 0.25211 0.0
C321 C 0.43107 0.26938 0.24984 0.0
H322 H 0.47311 0.2898 0.2131 0.0
H323 H 0.47326 0.23621 0.2594 0.0
O324 O 0.55537 0.25692 0.18695 0.0
O325 O 0.53522 0.28675 0.22579 0.0
O326 O 0.50205 0.25329 0.1832 0.0
O327 O 0.52755 0.23342 0.22506 0.0
H328 H 0.60065 0.27868 0.19652 0.0
H329 H 0.54508 0.24079 0.13867 0.0
H330 H 0.62847 0.28209 0.1651 0.0
H331 H 0.57393 0.24499 0.10812 0.0
H332 H 0.5378 0.32594 0.30353 0.0
H333 H 0.55703 0.32912 0.21755 0.0
H334 H 0.52717 0.28921 0.27283 0.0
H335 H 0.56694 0.36511 0.24907 0.0
H336 H 0.57832 0.34246 0.14941 0.0
H337 H 0.50338 0.34089 0.14489 0.0
H338 H 0.6322 0.23382 0.23716 0.0
H339 H 0.63781 0.30691 0.2672 0.0
H340 H 0.45694 0.23769 0.1873 0.0
H341 H 0.50589 0.26011 0.13634 0.0
H342 H 0.42383 0.23211 0.15277 0.0
H343 H 0.47189 0.25393 0.10257 0.0
H344 H 0.51004 0.18768 0.21137 0.0
H345 H 0.54487 0.24072 0.27302 0.0
H346 H 0.51122 0.15689 0.23929 0.0
H347 H 0.54517 0.20899 0.3 0.0
H348 H 0.55566 0.15871 0.1619 0.0
H349 H 0.49667 0.16818 0.11155 0.0
H350 H 0.4348 0.29597 0.22484 0.0
H351 H 0.43502 0.24173 0.27253 0.0
Li352 Li 0.07557 0.82558 0.09908 0.0
Li353 Li 0.10104 0.80615 0.13317 0.0
Li354 Li 0.0726 0.77706 0.09629 0.0
Li355 Li 0.0558 0.80037 0.13097 0.0
C356 C 0.11786 0.80505 0.08003 0.0
N357 N 0.15239 0.80484 0.04908 0.0
C358 C 0.14166 0.81386 0.08968 0.0
C359 C 0.11155 0.79611 0.0547 0.0
C360 C 0.15887 0.81362 0.07371 0.0
C361 C 0.1293 0.79616 0.03934 0.0
C362 C 0.08376 0.84878 0.15589 0.0
C363 C 0.08252 0.8634 0.1989 0.0
N364 N 0.08918 0.88596 0.19385 0.0
C365 C 0.09065 0.87207 0.15112 0.0
C366 C 0.07972 0.84434 0.17995 0.0
C367 C 0.09329 0.89064 0.17056 0.0
C368 C 0.04971 0.86196 0.08149 0.0
N369 N 0.0717 0.85669 0.08407 0.0
C370 C 0.08768 0.89543 0.07245 0.0
C371 C 0.09049 0.87315 0.07932 0.0
C372 C 0.06522 0.90136 0.0698 0.0
C373 C 0.04608 0.88382 0.07417 0.0
H374 H 0.03477 0.84936 0.08569 0.0
H375 H 0.10801 0.86941 0.08158 0.0
C376 C 0.13842 0.78605 0.1556 0.0
N377 N 0.13128 0.80698 0.15578 0.0
C378 C 0.15839 0.78395 0.17171 0.0
C379 C 0.16422 0.82515 0.18783 0.0
C380 C 0.14387 0.82642 0.17158 0.0
C381 C 0.17177 0.8036 0.18834 0.0
H382 H 0.12836 0.77069 0.14308 0.0
H383 H 0.13803 0.84293 0.17188 0.0
C384 C 0.02723 0.79144 0.07703 0.0
N385 N 0.98618 0.78082 0.04334 0.0
C386 C 1.00592 0.78013 0.08411 0.0
C387 C 0.02771 0.79729 0.05282 0.0
C388 C 0.98534 0.77496 0.06682 0.0
C389 C 1.00676 0.79174 0.03604 0.0
C390 C 0.07439 0.76172 0.15039 0.0
C391 C 0.06372 0.73783 0.14309 0.0
C392 C 0.08298 0.76992 0.17553 0.0
C393 C 0.06177 0.72251 0.16111 0.0
C394 C 0.08082 0.754 0.19299 0.0
N395 N 0.07033 0.73083 0.18549 0.0
C396 C 0.08835 0.73311 0.07856 0.0
C397 C 0.04701 0.72843 0.07173 0.0
C398 C 0.08629 0.7085 0.07134 0.0
N399 N 0.06889 0.74285 0.0789 0.0
C400 C 0.04414 0.70369 0.06471 0.0
C401 C 0.06387 0.69275 0.06461 0.0
H402 H 0.10572 0.74431 0.08475 0.0
H403 H 0.03147 0.73587 0.07264 0.0
C404 C 0.0193 0.81645 0.15627 0.0
N405 N 0.029 0.79756 0.14985 0.0
C406 C 0.99908 0.81372 0.16858 0.0
C407 C 0.99916 0.77223 0.16736 0.0
C408 C 0.01923 0.77574 0.15514 0.0
C409 C 0.98857 0.79126 0.17413 0.0
H410 H 0.02707 0.83361 0.15154 0.0
H411 H 0.02669 0.76082 0.1494 0.0
O412 O 0.10085 0.80479 0.09545 0.0
O413 O 0.08065 0.83048 0.13692 0.0
O414 O 0.04743 0.79726 0.09386 0.0
O415 O 0.0765 0.77695 0.13296 0.0
H416 H 0.14677 0.8208 0.10929 0.0
H417 H 0.09316 0.78912 0.04704 0.0
H418 H 0.17738 0.82039 0.0809 0.0
H419 H 0.12473 0.78927 0.01968 0.0
H420 H 0.07935 0.86027 0.21761 0.0
H421 H 0.09397 0.8758 0.13263 0.0
H422 H 0.07429 0.82638 0.18389 0.0
H423 H 0.09859 0.90876 0.16712 0.0
H424 H 0.10311 0.90802 0.06926 0.0
H425 H 0.02841 0.88726 0.07272 0.0
H426 H 0.16341 0.767 0.17095 0.0
H427 H 0.17363 0.84083 0.20032 0.0
H428 H 1.00523 0.77547 0.10276 0.0
H429 H 0.04409 0.80611 0.04712 0.0
H430 H 0.9687 0.7663 0.07207 0.0
H431 H 1.00685 0.79618 0.01724 0.0
H432 H 0.05675 0.7312 0.12379 0.0
H433 H 0.0913 0.78837 0.18148 0.0
H434 H 0.05345 0.704 0.15572 0.0
H435 H 0.08747 0.76007 0.21252 0.0
H436 H 0.10248 0.70214 0.07151 0.0
H437 H 0.02624 0.69339 0.06028 0.0
H438 H 0.99152 0.82891 0.17325 0.0
H439 H 0.99208 0.75466 0.17156 0.0
Li440 Li 0.51454 0.80228 0.47466 0.0
Li441 Li 0.48641 0.77371 0.43743 0.0
Li442 Li 0.51194 0.75377 0.47193 0.0
Li443 Li 0.53173 0.77819 0.44066 0.0
C444 C 0.4702 0.77775 0.49108 0.0
N445 N 0.43734 0.78387 0.52278 0.0
C446 C 0.44993 0.78547 0.4825 0.0
C447 C 0.47384 0.77318 0.51574 0.0
C448 C 0.43349 0.78842 0.49883 0.0
C449 C 0.45701 0.77642 0.53151 0.0
C450 C 0.51496 0.81774 0.42085 0.0
C451 C 0.52119 0.82585 0.37925 0.0
N452 N 0.51959 0.84866 0.38579 0.0
C453 C 0.51323 0.84122 0.42711 0.0
C454 C 0.51874 0.8099 0.39666 0.0
C455 C 0.51565 0.85658 0.40914 0.0
C456 C 0.54032 0.85193 0.49197 0.0
N457 N 0.51904 0.83679 0.49183 0.0
C458 C 0.50289 0.87059 0.50611 0.0
C459 C 0.50052 0.84589 0.49901 0.0
C460 C 0.52451 0.88684 0.50583 0.0
C461 C 0.54341 0.87671 0.49883 0.0
H462 H 0.55485 0.84496 0.48558 0.0
H463 H 0.48347 0.83413 0.49842 0.0
C464 C 0.43696 0.75405 0.40966 0.0
N465 N 0.45605 0.77265 0.41432 0.0
C466 C 0.41628 0.75502 0.39364 0.0
C467 C 0.43524 0.79381 0.38673 0.0
C468 C 0.45509 0.79234 0.40322 0.0
C469 C 0.41488 0.77521 0.3816 0.0
H470 H 0.43755 0.73843 0.41856 0.0
H471 H 0.46974 0.80732 0.40711 0.0
C472 C 0.56004 0.78488 0.49387 0.0
N473 N 0.60129 0.79031 0.5264 0.0
C474 C 0.5794 0.77693 0.48573 0.0
C475 C 0.56161 0.79554 0.51852 0.0
C476 C 0.60013 0.7799 0.50246 0.0
C477 C 0.58262 0.79808 0.53471 0.0
C478 C 0.50674 0.7317 0.41472 0.0
C479 C 0.51588 0.71195 0.41939 0.0
C480 C 0.49769 0.73375 0.39035 0.0
C481 C 0.51578 0.69448 0.39952 0.0
C482 C 0.49796 0.71591 0.37097 0.0
N483 N 0.50689 0.6968 0.37592 0.0
C484 C 0.49763 0.70235 0.48015 0.0
C485 C 0.53556 0.72054 0.50099 0.0
C486 C 0.50045 0.68002 0.48682 0.0
N487 N 0.5151 0.72239 0.48697 0.0
C488 C 0.53901 0.69855 0.50822 0.0
C489 C 0.5215 0.6774 0.50095 0.0
H490 H 0.48152 0.70339 0.46874 0.0
H491 H 0.54975 0.73604 0.50618 0.0
C492 C 0.57159 0.80365 0.42205 0.0
N493 N 0.55893 0.78134 0.42225 0.0
C494 C 0.59139 0.80753 0.40934 0.0
C495 C 0.58557 0.76536 0.39792 0.0
C496 C 0.56572 0.7623 0.41071 0.0
C497 C 0.59873 0.78826 0.39691 0.0
H498 H 0.56617 0.81855 0.43166 0.0
H499 H 0.55592 0.74466 0.41154 0.0
O500 O 0.4861 0.77407 0.47519 0.0
O501 O 0.51206 0.80232 0.43804 0.0
O502 O 0.53971 0.78254 0.47775 0.0
O503 O 0.50582 0.7485 0.43404 0.0
H504 H 0.44688 0.78901 0.46341 0.0
H505 H 0.48946 0.76711 0.52256 0.0
H506 H 0.41765 0.79428 0.49244 0.0
H507 H 0.45955 0.77293 0.55065 0.0
H508 H 0.52426 0.82008 0.3605 0.0
H509 H 0.5096 0.84745 0.44545 0.0
H510 H 0.51975 0.79169 0.3914 0.0
H511 H 0.51427 0.87476 0.41373 0.0
H512 H 0.48764 0.8768 0.51156 0.0
H513 H 0.56042 0.88785 0.49765 0.0
H514 H 0.40158 0.73997 0.39116 0.0
H515 H 0.43644 0.80975 0.37816 0.0
H516 H 0.57843 0.76857 0.46672 0.0
H517 H 0.54673 0.80179 0.52505 0.0
H518 H 0.6153 0.77391 0.49642 0.0
H519 H 0.58409 0.80627 0.55387 0.0
H520 H 0.52309 0.71017 0.43811 0.0
H521 H 0.49042 0.74888 0.3865 0.0
H522 H 0.52276 0.67908 0.40286 0.0
H523 H 0.49097 0.71721 0.352 0.0
H524 H 0.48601 0.66485 0.48078 0.0
H525 H 0.55575 0.69812 0.5188 0.0
H526 H 0.60052 0.82557 0.40889 0.0
H527 H 0.59062 0.74986 0.38911 0.0
Li528 Li 0.57552 0.32572 0.59936 0.0
Li529 Li 0.60117 0.30627 0.63353 0.0
Li530 Li 0.57252 0.27712 0.59676 0.0
Li531 Li 0.55584 0.30059 0.63138 0.0
C532 C 0.61776 0.30507 0.58024 0.0
N533 N 0.65212 0.30485 0.54909 0.0
C534 C 0.6416 0.3137 0.58982 0.0
C535 C 0.61132 0.29631 0.55488 0.0
C536 C 0.65873 0.31346 0.57375 0.0
C537 C 0.62899 0.29635 0.53942 0.0
C538 C 0.58409 0.34904 0.65611 0.0
C539 C 0.58236 0.36401 0.6989 0.0
N540 N 0.58953 0.38647 0.69377 0.0
C541 C 0.59163 0.37223 0.6513 0.0
C542 C 0.57955 0.34482 0.6801 0.0
C543 C 0.5942 0.39093 0.67057 0.0
C544 C 0.5546 0.36789 0.59404 0.0
N545 N 0.57117 0.35695 0.58464 0.0
C546 C 0.58062 0.38948 0.5601 0.0
C547 C 0.58406 0.36759 0.56776 0.0
C548 C 0.56403 0.40142 0.57003 0.0
C549 C 0.55098 0.38992 0.58728 0.0
H550 H 0.54429 0.35974 0.6074 0.0
H551 H 0.59737 0.35934 0.56029 0.0
C552 C 0.638 0.28587 0.65696 0.0
N553 N 0.63148 0.30704 0.65619 0.0
C554 C 0.65798 0.28384 0.67312 0.0
C555 C 0.66514 0.32556 0.68729 0.0
C556 C 0.64474 0.32676 0.67106 0.0
C557 C 0.67205 0.30379 0.68877 0.0
H558 H 0.62746 0.27029 0.64516 0.0
H559 H 0.63943 0.34349 0.6706 0.0
C560 C 0.52728 0.2915 0.57734 0.0
N561 N 0.48645 0.28065 0.54334 0.0
C562 C 0.50591 0.28021 0.5843 0.0
C563 C 0.52794 0.29724 0.5531 0.0
C564 C 0.48544 0.27492 0.56685 0.0
C565 C 0.50709 0.29157 0.53616 0.0
C566 C 0.57403 0.26176 0.65065 0.0
C567 C 0.56292 0.23801 0.64309 0.0
C568 C 0.58274 0.26961 0.67583 0.0
C569 C 0.56077 0.22246 0.66089 0.0
C570 C 0.58033 0.25348 0.69306 0.0
N571 N 0.56949 0.23044 0.68529 0.0
C572 C 0.58753 0.23208 0.58393 0.0
C573 C 0.54749 0.22907 0.5686 0.0
C574 C 0.58517 0.20736 0.57745 0.0
N575 N 0.56881 0.24271 0.57981 0.0
C576 C 0.54442 0.20427 0.56167 0.0
C577 C 0.56324 0.19253 0.5664 0.0
H578 H 0.60427 0.24265 0.59343 0.0
H579 H 0.53243 0.23721 0.5658 0.0
C580 C 0.51959 0.31689 0.65697 0.0
N581 N 0.52904 0.2979 0.65025 0.0
C582 C 0.49935 0.31421 0.66926 0.0
C583 C 0.49888 0.27255 0.66731 0.0
C584 C 0.51898 0.27602 0.65515 0.0
C585 C 0.48856 0.2917 0.67443 0.0
H586 H 0.52756 0.3341 0.65251 0.0
H587 H 0.52622 0.26103 0.64914 0.0
O588 O 0.60083 0.30486 0.59575 0.0
O589 O 0.58079 0.33062 0.63724 0.0
O590 O 0.5474 0.29738 0.59429 0.0
O591 O 0.57651 0.27719 0.63344 0.0
H592 H 0.64681 0.3205 0.60946 0.0
H593 H 0.59289 0.28947 0.54728 0.0
H594 H 0.67727 0.32009 0.58088 0.0
H595 H 0.62431 0.28959 0.51974 0.0
H596 H 0.57879 0.36106 0.71754 0.0
H597 H 0.59546 0.37576 0.63288 0.0
H598 H 0.57371 0.32693 0.68408 0.0
H599 H 0.5999 0.40899 0.66708 0.0
H600 H 0.59141 0.39733 0.54693 0.0
H601 H 0.53781 0.39784 0.59551 0.0
H602 H 0.66248 0.26669 0.67311 0.0
H603 H 0.6751 0.34149 0.69899 0.0
H604 H 0.5051 0.27564 0.60296 0.0
H605 H 0.54437 0.30604 0.54749 0.0
H606 H 0.46875 0.26627 0.572 0.0
H607 H 0.50731 0.2959 0.51732 0.0
H608 H 0.55573 0.23167 0.62377 0.0
H609 H 0.59134 0.28796 0.68198 0.0
H610 H 0.55215 0.20405 0.6553 0.0
H611 H 0.58708 0.25927 0.7126 0.0
H612 H 0.60043 0.19996 0.58213 0.0
H613 H 0.52713 0.19445 0.55288 0.0
H614 H 0.492 0.32948 0.6742 0.0
H615 H 0.49156 0.25493 0.67121 0.0
Li616 Li 0.01447 0.30228 0.97453 0.0
Li617 Li 0.98665 0.27374 0.93748 0.0
Li618 Li 1.0121 0.25385 0.97188 0.0
Li619 Li 0.03184 0.27816 0.9405 0.0
C620 C 0.97032 0.27774 0.99105 0.0
N621 N 0.9375 0.28391 0.02279 0.0
C622 C 0.95003 0.28544 0.98248 0.0
C623 C 0.97399 0.2732 0.01572 0.0
C624 C 0.93362 0.28842 0.99882 0.0
C625 C 0.95718 0.27647 0.0315 0.0
C626 C 0.01444 0.31745 0.9204 0.0
C627 C 0.02013 0.32516 0.87857 0.0
N628 N 0.01868 0.34803 0.885 0.0
C629 C 1.01292 0.341 0.92657 0.0
C630 C 0.0179 0.30938 0.89617 0.0
C631 C 0.01511 0.35618 0.90842 0.0
C632 C 0.03983 0.35194 0.99218 0.0
N633 N 0.01851 0.33673 0.99161 0.0
C634 C 1.00197 0.37044 0.0053 0.0
C635 C 0.99977 0.34576 0.99825 0.0
C636 C 0.02364 0.38677 0.00548 0.0
C637 C 0.04273 0.37669 0.99895 0.0
H638 H 0.05454 0.34503 0.9862 0.0
H639 H 0.98269 0.33395 0.99727 0.0
C640 C 0.93892 0.25295 0.90703 0.0
N641 N 0.95644 0.27276 0.91454 0.0
C642 C 0.91838 0.25366 0.89073 0.0
C643 C 0.93403 0.29496 0.88992 0.0
C644 C 0.95392 0.29357 0.90644 0.0
C645 C 0.91573 0.27488 0.88157 0.0
H646 H 0.94082 0.23648 0.9136 0.0
H647 H 0.96729 0.30942 0.91292 0.0
C648 C 0.0601 0.28495 0.99382 0.0
N649 N 0.10126 0.29028 0.02647 0.0
C650 C 0.0795 0.27708 0.9857 0.0
C651 C 0.06157 0.29549 0.01851 0.0
C652 C 0.10019 0.27999 1.00249 0.0
C653 C 0.08254 0.29799 0.03476 0.0
C654 C 1.00668 0.23168 0.91464 0.0
C655 C 0.01585 0.21192 0.91918 0.0
C656 C 0.99746 0.23376 0.89034 0.0
C657 C 0.01564 0.19448 0.89925 0.0
C658 C 0.99759 0.21594 0.87089 0.0
N659 N 1.00658 0.19683 0.87572 0.0
C660 C 0.99786 0.20246 0.98007 0.0
C661 C 0.03579 0.22068 1.00087 0.0
C662 C 1.00071 0.18014 0.98673 0.0
N663 N 0.01531 0.22251 0.98689 0.0
C664 C 0.03929 0.1987 0.00804 0.0
C665 C 0.0218 0.17752 1.00081 0.0
H666 H 0.98174 0.20348 0.96868 0.0
H667 H 0.04996 0.2362 0.00606 0.0
C668 C 0.07196 0.3033 0.922 0.0
N669 N 0.05903 0.28108 0.92204 0.0
C670 C 0.09196 0.30697 0.90955 0.0
C671 C 0.08556 0.26479 0.89778 0.0
C672 C 0.06561 0.26194 0.91041 0.0
C673 C 0.09911 0.28759 0.89711 0.0
H674 H 0.06667 0.31828 0.9316 0.0
H675 H 0.05558 0.24437 0.91109 0.0
O676 O 0.9862 0.27403 0.97515 0.0
O677 O 1.01219 0.3023 0.93792 0.0
O678 O 0.03982 0.28268 0.97765 0.0
O679 O 1.00597 0.2485 0.93403 0.0
H680 H 0.94695 0.28894 0.96338 0.0
H681 H 0.98962 0.26715 0.02254 0.0
H682 H 0.91777 0.29428 0.99244 0.0
H683 H 0.95974 0.27301 0.05066 0.0
H684 H 0.02296 0.31922 0.85977 0.0
H685 H 1.00972 0.34744 0.94503 0.0
H686 H 0.01895 0.29116 0.89105 0.0
H687 H 0.01389 0.37442 0.91294 0.0
H688 H 0.98654 0.37657 0.01034 0.0
H689 H 0.05981 0.38783 0.99806 0.0
H690 H 0.90493 0.2376 0.88501 0.0
H691 H 0.93287 0.31191 0.88409 0.0
H692 H 0.0786 0.26882 0.96667 0.0
H693 H 0.04667 0.30169 0.02502 0.0
H694 H 0.11538 0.27406 0.99646 0.0
H695 H 0.08395 0.30609 0.05394 0.0
H696 H 0.02319 0.21012 0.93786 0.0
H697 H 0.99016 0.24889 0.88659 0.0
H698 H 0.02266 0.17908 0.90248 0.0
H699 H 0.99048 0.21726 0.85198 0.0
H700 H 0.98626 0.16498 0.98071 0.0
H701 H 0.05608 0.19831 0.01857 0.0
H702 H 0.10143 0.32494 0.90933 0.0
H703 H 0.09044 0.24924 0.88885 0.0
Li704 Li 0.40551 0.02206 0.33785 0.0
Li705 Li 0.37072 1.0021 0.30916 0.0
Li706 Li 0.40333 0.02636 0.29416 0.0
Li707 Li 0.37635 0.04297 0.31937 0.0
C708 C 0.41663 0.98113 0.30982 0.0
N709 N 0.44459 0.94811 0.3121 0.0
C710 C 0.40686 0.95804 0.31364 0.0
C711 C 0.44062 0.98743 0.30716 0.0
C712 C 0.42129 0.9416 0.31472 0.0
C713 C 0.45446 0.97047 0.30838 0.0
C714 C 0.35836 0.01822 0.36083 0.0
C715 C 0.32193 0.02192 0.3765 0.0
N716 N 0.32971 0.01439 0.39809 0.0
C717 C 0.36601 0.01054 0.38316 0.0
C718 C 0.33616 0.024 0.35743 0.0
C719 C 0.35127 1.00873 0.40178 0.0
C720 C 0.42958 0.04156 0.38316 0.0
N721 N 0.42548 0.02183 0.36616 0.0
C722 C 0.45311 1.00541 0.38995 0.0
C723 C 0.43614 1.00356 0.36954 0.0
C724 C 0.45808 0.02571 0.4078 0.0
C725 C 0.44564 0.04374 0.40455 0.0
H726 H 0.42038 0.05557 0.37993 0.0
H727 H 0.43185 0.98764 0.35646 0.0
C728 C 0.35116 0.96052 0.28064 0.0
N729 N 0.34902 0.97457 0.30155 0.0
C730 C 0.33829 0.93745 0.27594 0.0
C731 C 0.32054 0.94456 0.31375 0.0
C732 C 0.33357 0.96753 0.31756 0.0
C733 C 0.32377 0.92926 0.29335 0.0
H734 H 0.36402 0.96684 0.26866 0.0
H735 H 0.33248 0.97907 0.33405 0.0
C736 C 0.43034 0.06936 0.32219 0.0
N737 N 0.4688 0.10548 0.32092 0.0
C738 C 0.42689 0.0912 0.31609 0.0
C739 C 0.45328 0.06585 0.32776 0.0
C740 C 0.44659 0.10923 0.31548 0.0
C741 C 0.47252 0.08437 0.327 0.0
C742 C 0.35322 0.01382 0.2653 0.0
C743 C 0.35992 0.01064 0.24142 0.0
C744 C 0.32944 1.00648 0.26841 0.0
C745 C 0.34293 0.99943 0.22123 0.0
C746 C 0.31297 0.99529 0.24774 0.0
N747 N 0.32 0.992 0.22478 0.0
C748 C 0.41896 1.00601 0.2549 0.0
C749 C 0.43095 0.04791 0.25941 0.0
C750 C 0.42963 1.0037 0.23358 0.0
N751 N 0.42005 0.02778 0.26741 0.0
C752 C 0.44202 0.04643 0.238 0.0
C753 C 0.44135 0.02406 0.22496 0.0
H754 H 0.40931 0.99043 0.26124 0.0
H755 H 0.43088 0.06498 0.26943 0.0
C756 C 0.36215 0.08227 0.34429 0.0
N757 N 0.36 0.0664 0.3234 0.0
C758 C 0.34999 0.1006 0.34377 0.0
C759 C 0.3326 0.08412 0.30123 0.0
C760 C 0.34534 0.06677 0.30239 0.0
C761 C 0.33547 0.10173 0.32173 0.0
H762 H 0.374 0.08126 0.36073 0.0
H763 H 0.34434 0.05436 0.28595 0.0
O764 O 0.40282 0.99754 0.30907 0.0
O765 O 0.37243 0.01959 0.34225 0.0
O766 O 0.41125 0.05184 0.32355 0.0
O767 O 0.36956 0.0254 0.28521 0.0
H768 H 0.38841 0.95294 0.3161 0.0
H769 H 0.4485 1.00529 0.30446 0.0
H770 H 0.41398 0.9237 0.31774 0.0
H771 H 0.47306 0.9751 0.30646 0.0
H772 H 0.30465 0.0262 0.3741 0.0
H773 H 0.38307 1.00581 0.38599 0.0
H774 H 0.32985 0.02964 0.3401 0.0
H775 H 0.35693 1.00274 0.41913 0.0
H776 H 0.46236 0.99116 0.39135 0.0
H777 H 0.44822 0.05935 0.41823 0.0
H778 H 0.34131 0.92562 0.26034 0.0
H779 H 0.30959 0.93826 0.32755 0.0
H780 H 0.40918 0.09415 0.3119 0.0
H781 H 0.45617 0.04907 0.33271 0.0
H782 H 0.44421 0.12623 0.31074 0.0
H783 H 0.49041 0.08198 0.33132 0.0
H784 H 0.37789 0.01722 0.23829 0.0
H785 H 0.32382 1.00931 0.28665 0.0
H786 H 0.34793 0.99685 0.20268 0.0
H787 H 0.29457 0.9893 0.24994 0.0
H788 H 0.42915 0.98613 0.22426 0.0
H789 H 0.45099 0.06244 0.23173 0.0
H790 H 0.35285 0.11435 0.35965 0.0
H791 H 0.32233 0.08495 0.28356 0.0
Li792 Li 0.27673 0.20726 0.54833 0.0
Li793 Li 0.29253 0.17522 0.52349 0.0
Li794 Li 0.27452 0.20426 0.50003 0.0
Li795 Li 0.24846 0.17166 0.51992 0.0
C796 C 0.3235 0.22666 0.53033 0.0
N797 N 0.36581 0.25954 0.53664 0.0
C798 C 0.34454 0.22054 0.53941 0.0
C799 C 0.32391 0.24946 0.52447 0.0
C800 C 0.36577 0.23742 0.54246 0.0
C801 C 0.34551 0.26585 0.52781 0.0
C802 C 0.27271 0.15707 0.56665 0.0
C803 C 0.26702 0.11697 0.57592 0.0
N804 N 0.27557 0.12526 0.60032 0.0
C805 C 0.28144 0.16521 0.5918 0.0
C806 C 0.2655 0.13277 0.55858 0.0
C807 C 0.28277 0.14884 0.60853 0.0
C808 C 0.25904 0.22244 0.59249 0.0
N809 N 0.27913 0.22572 0.5814 0.0
C810 C 0.30111 0.24876 0.61936 0.0
C811 C 0.29997 0.23875 0.59428 0.0
C812 C 0.2807 0.24519 0.63132 0.0
C813 C 0.25945 0.23199 0.61748 0.0
H814 H 0.2428 0.2116 0.58215 0.0
H815 H 0.31588 0.24073 0.58542 0.0
C816 C 0.32768 0.15365 0.50334 0.0
N817 N 0.31706 0.15762 0.52407 0.0
C818 C 0.3458 0.14101 0.50393 0.0
C819 C 0.34132 0.13649 0.54692 0.0
C820 C 0.32387 0.14966 0.54571 0.0
C821 C 0.35255 0.13207 0.52592 0.0
H822 H 0.32224 0.1605 0.48645 0.0
H823 H 0.31621 0.1539 0.56231 0.0
C824 C 0.23359 0.22088 0.5195 0.0
N825 N 0.20193 0.25007 0.5149 0.0
C826 C 0.21018 0.21147 0.50874 0.0
C827 C 0.24097 0.24507 0.52794 0.0
C828 C 0.19442 0.22653 0.50659 0.0
C829 C 0.22468 0.25956 0.52541 0.0
C830 C 0.26538 0.15151 0.47307 0.0
C831 C 0.25919 0.15629 0.44887 0.0
C832 C 0.26874 0.12901 0.47677 0.0
C833 C 0.25668 0.13848 0.42867 0.0
C834 C 0.26607 0.11166 0.45607 0.0
N835 N 0.26018 0.11673 0.43265 0.0
C836 C 0.29505 0.21537 0.45638 0.0
C837 C 0.2642 0.23528 0.46259 0.0
C838 C 0.29811 0.22461 0.43386 0.0
N839 N 0.27811 0.22051 0.47018 0.0
C840 C 0.26698 0.24531 0.44038 0.0
C841 C 0.28397 0.23988 0.42516 0.0
H842 H 0.30589 0.2035 0.46258 0.0
H843 H 0.25077 0.23922 0.47364 0.0
C844 C 0.21272 0.14539 0.54242 0.0
N845 N 0.2184 0.14985 0.51958 0.0
C846 C 0.19208 0.12921 0.54474 0.0
C847 C 0.18222 0.12352 0.49992 0.0
C848 C 0.20366 0.1392 0.49843 0.0
C849 C 0.17596 0.11801 0.5234 0.0
H850 H 0.22439 0.15431 0.55907 0.0
H851 H 0.2084 0.14306 0.48039 0.0
O852 O 0.30268 0.21018 0.52653 0.0
O853 O 0.27147 0.17286 0.55002 0.0
O854 O 0.24902 0.20632 0.52238 0.0
O855 O 0.26882 0.16906 0.4929 0.0
H856 H 0.34449 0.20292 0.54398 0.0
H857 H 0.30774 0.25437 0.51729 0.0
H858 H 0.38221 0.23293 0.54941 0.0
H859 H 0.34614 0.28357 0.52331 0.0
H860 H 0.26144 0.09812 0.56998 0.0
H861 H 0.28732 0.18395 0.5983 0.0
H862 H 0.2588 0.12622 0.53914 0.0
H863 H 0.28956 0.15488 0.62803 0.0
H864 H 0.31792 0.25854 0.62954 0.0
H865 H 0.24342 0.22858 0.62613 0.0
H866 H 0.3544 0.13823 0.48748 0.0
H867 H 0.34658 0.13052 0.56445 0.0
H868 H 0.20425 0.19271 0.50226 0.0
H869 H 0.25906 0.25251 0.53642 0.0
H870 H 0.17621 0.21951 0.49837 0.0
H871 H 0.23009 0.27834 0.53186 0.0
H872 H 0.25638 0.17359 0.44571 0.0
H873 H 0.2736 0.12507 0.4954 0.0
H874 H 0.252 0.14197 0.40983 0.0
H875 H 0.26876 0.0942 0.4586 0.0
H876 H 0.31118 0.21913 0.42322 0.0
H877 H 0.25579 0.25727 0.43546 0.0
H878 H 0.18926 0.1257 0.56338 0.0
H879 H 0.17076 0.11622 0.48265 0.0
Li880 Li 0.16115 0.08347 0.80069 0.0
Li881 Li 0.12846 0.05738 0.81984 0.0
Li882 Li 0.15796 0.03956 0.79679 0.0
Li883 Li 0.1261 0.05529 0.77138 0.0
C884 C 0.18115 0.0666 0.84729 0.0
N885 N 0.21623 0.07265 0.88752 0.0
C886 C 0.17614 0.0719 0.8716 0.0
C887 C 0.20399 0.06445 0.84339 0.0
C888 C 0.19412 0.0749 0.8917 0.0
C889 C 0.22149 0.06754 0.864 0.0
C890 C 0.11206 0.09838 0.80064 0.0
C891 C 0.07361 0.10785 0.79464 0.0
N892 N 0.08329 0.13043 0.80555 0.0
C893 C 0.12167 0.12162 0.81183 0.0
C894 C 0.08789 0.09136 0.79195 0.0
C895 C 0.10681 0.13758 0.81413 0.0
C896 C 0.18472 0.12203 0.77988 0.0
N897 N 0.18263 0.11371 0.80213 0.0
C898 C 0.21089 0.1479 0.82343 0.0
C899 C 0.19533 0.12615 0.82376 0.0
C900 C 0.21362 0.15675 0.80061 0.0
C901 C 0.20026 0.14344 0.77865 0.0
H902 H 0.17431 0.11193 0.76296 0.0
H903 H 0.19341 0.11922 0.84125 0.0
C904 C 0.11068 0.03315 0.85914 0.0
N905 N 0.11214 0.05401 0.84965 0.0
C906 C 0.10161 0.03005 0.88178 0.0
C907 C 0.0953 0.06982 0.88462 0.0
C908 C 0.1046 0.07221 0.86194 0.0
C909 C 0.09387 0.04857 0.8951 0.0
H910 H 0.11704 0.01897 0.84935 0.0
H911 H 0.10631 0.08884 0.8545 0.0
C912 C 0.17661 0.06074 0.75382 0.0
N913 N 0.2086 0.06055 0.71989 0.0
C914 C 0.16875 0.05146 0.72875 0.0
C915 C 0.20073 0.06982 0.76169 0.0
C916 C 0.1852 0.0515 0.71189 0.0
C917 C 0.21662 0.06964 0.74421 0.0
C918 C 0.10636 1.00857 0.78918 0.0
C919 C 0.11259 0.98745 0.78058 0.0
C920 C 0.08336 1.0083 0.79441 0.0
C921 C 0.09563 0.96628 0.77741 0.0
C922 C 0.06689 0.98676 0.79097 0.0
N923 N 0.07332 0.96637 0.78264 0.0
C924 C 0.17992 1.00397 0.81619 0.0
C925 C 0.18071 1.00701 0.77314 0.0
C926 C 0.1908 0.98453 0.81412 0.0
N927 N 0.17503 0.01467 0.79576 0.0
C928 C 0.19153 0.98785 0.77026 0.0
C929 C 0.19632 0.97609 0.79075 0.0
H930 H 0.17489 1.01017 0.83392 0.0
H931 H 0.17615 0.01524 0.75704 0.0
C932 C 0.11327 0.07196 0.72579 0.0
N933 N 0.10831 0.05261 0.73777 0.0
C934 C 0.10415 0.07117 0.7006 0.0
C935 C 0.08422 0.03068 0.70032 0.0
C936 C 0.09401 0.03216 0.72553 0.0
C937 C 0.08937 0.0503 0.68715 0.0
H938 H 0.12512 0.08789 0.7356 0.0
H939 H 0.09054 0.01677 0.73511 0.0
O940 O 0.16355 0.06295 0.82752 0.0
O941 O 0.12645 0.08279 0.79747 0.0
O942 O 0.1607 0.06083 0.77054 0.0
O943 O 0.12291 0.02934 0.79311 0.0
H944 H 0.15853 0.07362 0.87492 0.0
H945 H 0.20808 0.06024 0.82467 0.0
H946 H 0.19049 0.07896 0.91062 0.0
H947 H 0.23923 0.06581 0.86131 0.0
H948 H 0.05485 0.10273 0.78797 0.0
H949 H 0.14042 0.12729 0.81851 0.0
H950 H 0.0803 0.07342 0.78311 0.0
H951 H 0.11399 0.15567 0.82267 0.0
H952 H 0.22092 0.15753 0.84079 0.0
H953 H 0.20151 0.1497 0.76071 0.0
H954 H 0.10068 0.01324 0.88874 0.0
H955 H 0.08992 0.08478 0.89421 0.0
H956 H 0.15018 0.04405 0.72242 0.0
H957 H 0.20708 0.07699 0.78106 0.0
H958 H 0.17938 0.04431 0.69245 0.0
H959 H 0.23534 0.0767 0.74998 0.0
H960 H 0.13034 0.98736 0.77648 0.0
H961 H 0.07835 0.02455 0.80119 0.0
H962 H 0.10022 0.94977 0.77084 0.0
H963 H 0.04902 0.98624 0.795 0.0
H964 H 0.19417 0.97578 0.83029 0.0
H965 H 0.19575 0.98198 0.75198 0.0
H966 H 0.1094 0.08672 0.69168 0.0
H967 H 0.07276 0.0142 0.69135 0.0
Li968 Li 0.294 0.95876 1.00083 0.0
Li969 Li 0.3103 0.93229 0.02695 0.0
Li970 Li 0.33531 0.96397 0.00954 0.0
Li971 Li 0.31305 0.92808 0.98257 0.0
C972 C 0.32331 0.98247 0.05514 0.0
N973 N 0.34202 0.01468 0.09742 0.0
C974 C 0.32314 0.97537 0.07889 0.0
C975 C 0.33261 1.0061 0.05296 0.0
C976 C 0.33278 0.99186 0.10001 0.0
C977 C 0.34214 0.02208 0.07455 0.0
C978 C 0.2663 0.905 0.99887 0.0
C979 C 0.25104 0.86286 0.99321 0.0
N980 N 0.22966 0.86658 0.99848 0.0
C981 C 0.2442 0.90845 1.00418 0.0
C982 C 0.26983 0.88207 0.99332 0.0
C983 C 0.22589 0.88878 1.00394 0.0
C984 C 0.25224 0.96826 0.97737 0.0
N985 N 0.27053 0.97502 0.99625 0.0
C986 C 0.25281 1.00403 0.01585 0.0
C987 C 0.2716 0.99301 0.0147 0.0
C988 C 0.23269 0.99612 0.99793 0.0
C989 C 0.23275 0.97874 0.97787 0.0
H990 H 0.25216 0.95379 0.963 0.0
H991 H 0.28635 0.99778 0.02945 0.0
C992 C 0.33062 0.91683 0.06685 0.0
N993 N 0.30894 0.91565 0.0541 0.0
C994 C 0.33282 0.90515 0.08751 0.0
C995 C 0.29016 0.89147 0.08187 0.0
C996 C 0.28878 0.9036 0.0612 0.0
C997 C 0.31245 0.89224 0.09514 0.0
H998 H 0.34623 0.92695 0.06093 0.0
H999 H 0.27176 0.90336 0.05091 0.0
C1000 C 0.31532 0.97508 0.95858 0.0
N1001 N 0.31673 1.00475 0.92231 0.0
C1002 C 0.31819 0.96679 0.93419 0.0
C1003 C 0.31329 0.99847 0.96459 0.0
C1004 C 0.31889 0.98208 0.91612 0.0
C1005 C 0.3139 0.01316 0.94593 0.0
C1006 C 0.35423 0.9169 0.01071 0.0
C1007 C 0.37763 0.92574 0.00715 0.0
C1008 C 0.34693 0.89308 0.01356 0.0
C1009 C 0.39336 0.91054 0.00639 0.0
C1010 C 0.36322 0.87845 0.01265 0.0
N1011 N 0.38588 0.8874 0.0091 0.0
C1012 C 0.37869 0.98914 0.03492 0.0
C1013 C 0.37135 0.99173 0.99149 0.0
C1014 C 0.40219 1.00048 0.03568 0.0
N1015 N 0.36403 0.98481 0.01292 0.0
C1016 C 0.39462 1.00289 0.99134 0.0
C1017 C 0.41024 1.00662 0.01343 0.0
H1018 H 0.37258 0.98233 0.05132 0.0
H1019 H 0.35982 0.98694 0.97405 0.0
C1020 C 0.29245 0.90297 0.93761 0.0
N1021 N 0.31227 0.90715 0.95449 0.0
C1022 C 0.29023 0.88691 0.91614 0.0
C1023 C 0.32863 0.87952 0.93048 0.0
C1024 C 0.33052 0.89648 0.95096 0.0
C1025 C 0.30828 0.87451 0.91268 0.0
H1026 H 0.27849 0.91226 0.94087 0.0
H1027 H 0.34654 0.90088 0.96394 0.0
O1028 O 0.31272 0.96676 0.0344 0.0
O1029 O 0.28414 0.92409 0.99841 0.0
O1030 O 0.31648 0.96081 0.9768 0.0
O1031 O 0.33846 0.93141 0.01079 0.0
H1032 H 0.31503 0.9575 0.08114 0.0
H1033 H 0.33243 0.01203 0.03476 0.0
H1034 H 0.33267 0.98656 0.11847 0.0
H1035 H 0.34949 0.04039 0.07313 0.0
H1036 H 0.25344 0.84498 0.98888 0.0
H1037 H 0.24123 0.92614 0.00841 0.0
H1038 H 0.28683 0.87915 0.98903 0.0
H1039 H 0.20868 0.89117 0.00803 0.0
H1040 H 0.25311 0.01689 0.032 0.0
H1041 H 0.21729 0.97216 0.96398 0.0
H1042 H 0.35033 0.90575 0.09704 0.0
H1043 H 0.27414 0.88163 0.08738 0.0
H1044 H 0.32044 0.94892 0.92941 0.0
H1045 H 0.31164 1.00529 0.98354 0.0
H1046 H 0.32134 0.97597 0.89723 0.0
H1047 H 0.31237 0.03132 0.95029 0.0
H1048 H 0.38352 0.94407 1.0047 0.0
H1049 H 0.32883 0.88592 0.01612 0.0
H1050 H 0.41148 0.91711 1.00353 0.0
H1051 H 0.35781 0.85995 0.01467 0.0
H1052 H 0.41432 1.00266 0.05283 0.0
H1053 H 0.40075 1.00703 0.97388 0.0
H1054 H 0.27457 0.88437 0.90255 0.0
H1055 H 0.34293 0.87033 0.92898 0.0
Li1056 Li 0.2943 0.40314 0.04861 0.0
Li1057 Li 0.31221 0.37454 0.07107 0.0
Li1058 Li 0.33812 0.40753 0.05037 0.0
Li1059 Li 0.3105 0.3717 0.02269 0.0
C1060 C 0.31854 0.42712 0.09757 0.0
N1061 N 0.318 0.46191 0.13633 0.0
C1062 C 0.30941 0.42104 0.11927 0.0
C1063 C 0.32751 0.45086 0.09558 0.0
C1064 C 0.30927 0.4389 0.13866 0.0
C1065 C 0.32703 0.4682 0.11539 0.0
C1066 C 0.26357 0.35224 0.04319 0.0
C1067 C 0.2398 0.31271 0.03204 0.0
N1068 N 0.22105 0.32025 0.04048 0.0
C1069 C 0.2441 0.35963 0.05176 0.0
C1070 C 0.26146 0.32864 0.03321 0.0
C1071 C 0.22274 0.34317 0.05023 0.0
C1072 C 0.25541 0.41638 0.02486 0.0
N1073 N 0.269 0.41961 0.04746 0.0
C1074 C 0.24488 0.44416 0.06518 0.0
C1075 C 0.26406 0.43307 0.06755 0.0
C1076 C 0.2305 0.441 0.04203 0.0
C1077 C 0.23603 0.42695 0.0217 0.0
H1078 H 0.25966 0.40549 0.00925 0.0
H1079 H 0.27476 0.43511 0.08547 0.0
C1080 C 0.32853 0.35492 0.11538 0.0
N1081 N 0.30916 0.35822 0.10083 0.0
C1082 C 0.32622 0.34552 0.13799 0.0
C1083 C 0.28419 0.3433 0.13057 0.0
C1084 C 0.28723 0.35241 0.10801 0.0
C1085 C 0.30384 0.33985 0.14602 0.0
H1086 H 0.34588 0.36007 0.10974 0.0
H1087 H 0.27208 0.35555 0.09662 0.0
C1088 C 0.31281 0.42201 1.00473 0.0
N1089 N 0.31185 0.45473 0.97178 0.0
C1090 C 0.31462 0.41577 0.97952 0.0
C1091 C 0.31068 0.44493 0.01325 0.0
C1092 C 0.31409 0.43256 0.96315 0.0
C1093 C 0.31012 0.46119 0.99626 0.0
C1094 C 0.35333 0.35809 0.04695 0.0
C1095 C 0.37587 0.36647 0.04074 0.0
C1096 C 0.34656 0.33466 0.05126 0.0
C1097 C 0.3914 0.35113 0.03892 0.0
C1098 C 0.3626 0.31987 0.04924 0.0
N1099 N 0.3845 0.32835 0.04318 0.0
C1100 C 0.38463 0.43616 0.07136 0.0
C1101 C 0.37187 0.43844 0.02911 0.0
C1102 C 0.40616 0.45193 0.07044 0.0
N1103 N 0.36801 0.42965 0.05078 0.0
C1104 C 0.39257 0.45481 0.02761 0.0
C1105 C 0.41055 0.46171 0.04826 0.0
H1106 H 0.38136 0.42887 0.08842 0.0
H1107 H 0.35893 0.43272 0.01271 0.0
C1108 C 0.28744 0.35282 0.97301 0.0
N1109 N 0.30706 0.35314 0.98934 0.0
C1110 C 0.28566 0.34339 0.94772 0.0
C1111 C 0.32385 0.3338 0.9564 0.0
C1112 C 0.32499 0.3436 0.98151 0.0
C1113 C 0.30421 0.33402 0.93884 0.0
H1114 H 0.27352 0.36081 0.9794 0.0
H1115 H 0.34068 0.34437 0.99447 0.0
O1116 O 0.31915 0.40984 0.0786 0.0
O1117 O 0.28445 0.36817 0.04394 0.0
O1118 O 0.31397 0.40594 0.02109 0.0
O1119 O 0.33816 0.37297 0.04937 0.0
H1120 H 0.30247 0.40276 0.12114 0.0
H1121 H 0.33474 0.45581 0.07893 0.0
H1122 H 0.30224 0.43445 0.15556 0.0
H1123 H 0.33386 0.48667 0.11414 0.0
H1124 H 0.23788 0.29437 0.02437 0.0
H1125 H 0.24546 0.37782 0.05962 0.0
H1126 H 0.27638 0.32273 0.02638 0.0
H1127 H 0.20752 0.34863 0.05678 0.0
H1128 H 0.24114 0.4548 0.0813 0.0
H1129 H 0.22567 0.42442 1.0034 0.0
H1130 H 0.34188 0.34332 0.14943 0.0
H1131 H 0.26661 0.33906 0.13595 0.0
H1132 H 0.31683 0.39829 0.97273 0.0
H1133 H 0.30956 0.45011 0.03278 0.0
H1134 H 0.31558 0.428 0.94362 0.0
H1135 H 0.30842 0.47898 1.00254 0.0
H1136 H 0.38133 0.38463 0.03744 0.0
H1137 H 0.32915 0.32804 0.05619 0.0
H1138 H 0.40894 0.35735 0.03417 0.0
H1139 H 0.35767 0.30168 0.05255 0.0
H1140 H 0.4192 0.45591 0.08694 0.0
H1141 H 0.39406 0.46186 0.01016 0.0
H1142 H 0.26999 0.34378 0.93517 0.0
H1143 H 0.33874 0.32708 0.95061 0.0
Li1144 Li 0.77494 0.15232 0.0894 0.0
Li1145 Li 0.79393 0.12326 0.07014 0.0
Li1146 Li 0.77598 0.1498 0.04522 0.0
Li1147 Li 0.75216 0.11695 0.0627 0.0
C1148 C 0.8213 0.17656 0.07257 0.0
N1149 N 0.8586 0.21469 0.07422 0.0
C1150 C 0.8446 0.1739 0.07767 0.0
C1151 C 0.81694 0.19865 0.06847 0.0
C1152 C 0.86323 0.19339 0.07842 0.0
C1153 C 0.83605 0.21769 0.06929 0.0
C1154 C 0.77453 0.10492 0.11236 0.0
C1155 C 0.76927 0.0659 0.12461 0.0
N1156 N 0.77714 0.07572 0.14875 0.0
C1157 C 0.78258 0.11464 0.13725 0.0
C1158 C 0.76779 0.08037 0.10591 0.0
C1159 C 0.78378 0.09957 0.1554 0.0
C1160 C 0.75513 0.17218 0.12777 0.0
N1161 N 0.7753 0.17254 0.11732 0.0
C1162 C 0.79709 0.20369 0.14783 0.0
C1163 C 0.79609 0.18751 0.12695 0.0
C1164 C 0.77656 0.20389 0.15901 0.0
C1165 C 0.75532 0.18802 0.1489 0.0
H1166 H 0.73903 0.15959 0.11966 0.0
H1167 H 0.81191 0.1868 0.11858 0.0
C1168 C 0.82797 0.11191 0.04997 0.0
N1169 N 0.81821 0.10835 0.07105 0.0
C1170 C 0.84453 0.09949 0.04322 0.0
C1171 C 0.84149 0.08062 0.08077 0.0
C1172 C 0.82476 0.09361 0.08688 0.0
C1173 C 0.85076 0.08318 0.0583 0.0
H1174 H 0.82215 0.12387 0.03802 0.0
H1175 H 0.81661 0.09136 0.1036 0.0
C1176 C 0.73297 0.16408 0.06621 0.0
N1177 N 0.70153 0.19352 0.07097 0.0
C1178 C 0.70864 0.15455 0.06327 0.0
C1179 C 0.74133 0.18856 0.07153 0.0
C1180 C 0.69302 0.16974 0.06569 0.0
C1181 C 0.72515 0.20315 0.07397 0.0
C1182 C 0.76483 0.0989 0.01698 0.0
C1183 C 0.75498 0.10553 0.99493 0.0
C1184 C 0.76596 0.0753 0.01794 0.0
C1185 C 0.74622 0.08831 0.97418 0.0
C1186 C 0.75701 0.0586 0.99677 0.0
N1187 N 0.74741 0.0654 0.97552 0.0
C1188 C 0.79749 0.17607 0.00959 0.0
C1189 C 0.75644 0.17332 0.01129 0.0
C1190 C 0.79709 0.19093 0.99115 0.0
N1191 N 0.77732 0.16792 0.01929 0.0
C1192 C 0.75527 0.18818 0.99331 0.0
C1193 C 0.77576 0.1973 0.98316 0.0
H1194 H 0.81379 0.17117 0.01626 0.0
H1195 H 0.74057 0.16585 0.01867 0.0
C1196 C 0.716 0.09328 0.08241 0.0
N1197 N 0.72397 0.0956 0.06007 0.0
C1198 C 0.69292 0.08183 0.0832 0.0
C1199 C 0.68696 0.07472 0.03786 0.0
C1200 C 0.7103 0.08628 0.03796 0.0
C1201 C 0.67803 0.07334 0.06073 0.0
H1202 H 0.72696 0.10191 0.09957 0.0
H1203 H 0.71681 0.08936 0.02052 0.0
O1204 O 0.80293 0.15768 0.0722 0.0
O1205 O 0.77186 0.11947 0.0947 0.0
O1206 O 0.74837 0.14946 0.0628 0.0
O1207 O 0.7741 0.1156 0.03722 0.0
H1208 H 0.84828 0.157 0.08126 0.0
H1209 H 0.79903 0.20103 0.06458 0.0
H1210 H 0.88135 0.19158 0.08241 0.0
H1211 H 0.83295 0.23486 0.06604 0.0
H1212 H 0.76406 0.04687 0.11995 0.0
H1213 H 0.78757 0.13363 0.14254 0.0
H1214 H 0.76134 0.07262 0.08671 0.0
H1215 H 0.78987 0.10685 0.17477 0.0
H1216 H 0.81371 0.21587 0.15519 0.0
H1217 H 0.73931 0.18767 0.15744 0.0
H1218 H 0.85198 0.10211 0.02604 0.0
H1219 H 0.84651 0.06832 0.09279 0.0
H1220 H 0.70186 0.13565 0.05882 0.0
H1221 H 0.76008 0.19621 0.07378 0.0
H1222 H 0.67413 0.16262 0.06328 0.0
H1223 H 0.73136 0.22213 0.07817 0.0
H1224 H 0.75409 0.12375 0.99383 0.0
H1225 H 0.77374 0.06998 0.03484 0.0
H1226 H 0.73852 0.09318 0.957 0.0
H1227 H 0.75775 0.04025 0.99721 0.0
H1228 H 0.81308 0.19735 0.98327 0.0
H1229 H 0.73829 0.19192 0.98687 0.0
H1230 H 0.68625 0.08123 0.10103 0.0
H1231 H 0.67554 0.06883 0.02019 0.0
Li1232 Li 0.21409 0.57627 0.2599 0.0
Li1233 Li 0.18083 0.55267 0.27575 0.0
Li1234 Li 0.20675 0.53468 0.25029 0.0
Li1235 Li 0.17873 0.55607 0.23255 0.0
C1236 C 0.2306 0.56154 0.30482 0.0
N1237 N 0.26289 0.57871 0.3473 0.0
C1238 C 0.22439 0.57518 0.32487 0.0
C1239 C 0.25316 0.55651 0.30642 0.0
C1240 C 0.24098 0.58369 0.34619 0.0
C1241 C 0.26927 0.56542 0.32804 0.0
C1242 C 0.16804 0.59744 0.25612 0.0
C1243 C 0.12966 0.60601 0.24512 0.0
N1244 N 0.13954 0.62956 0.24983 0.0
C1245 C 0.17776 0.62174 0.26108 0.0
C1246 C 0.14372 0.58949 0.24844 0.0
C1247 C 0.16308 0.63769 0.25773 0.0
C1248 C 0.23227 0.61517 0.24399 0.0
N1249 N 0.23627 0.60342 0.26362 0.0
C1250 C 0.26531 0.63595 0.28518 0.0
C1251 C 0.2529 0.61282 0.28363 0.0
C1252 C 0.26013 0.64903 0.26602 0.0
C1253 C 0.24407 0.6383 0.2448 0.0
H1254 H 0.21863 0.60701 0.22857 0.0
H1255 H 0.2558 0.60309 0.29891 0.0
C1256 C 0.15925 0.53196 0.31472 0.0
N1257 N 0.16383 0.55115 0.30249 0.0
C1258 C 0.14798 0.53329 0.3361 0.0
C1259 C 0.14652 0.57384 0.33116 0.0
C1260 C 0.15765 0.57173 0.31018 0.0
C1261 C 0.142 0.55466 0.3445 0.0
H1262 H 0.16476 0.51594 0.30819 0.0
H1263 H 0.16215 0.58689 0.30067 0.0
C1264 C 0.22655 0.55886 0.20982 0.0
N1265 N 0.25692 0.56234 0.17415 0.0
C1266 C 0.21757 0.55316 0.18445 0.0
C1267 C 0.25096 0.56626 0.21711 0.0
C1268 C 0.23323 0.55499 0.16669 0.0
C1269 C 0.26603 0.56797 0.19876 0.0
C1270 C 0.15393 0.5085 0.24949 0.0
C1271 C 0.15698 0.48524 0.24586 0.0
C1272 C 0.13183 0.51286 0.25363 0.0
C1273 C 0.13782 0.46664 0.2465 0.0
C1274 C 0.11312 0.49378 0.25423 0.0
N1275 N 0.11647 0.47126 0.25064 0.0
C1276 C 0.22102 0.50086 0.2689 0.0
C1277 C 0.23509 0.50489 0.2297 0.0
C1278 C 0.2349 0.48499 0.27374 0.0
N1279 N 0.22177 0.51065 0.24752 0.0
C1280 C 0.24931 0.4887 0.23371 0.0
C1281 C 0.24955 0.4793 0.2563 0.0
H1282 H 0.21024 0.5062 0.28256 0.0
H1283 H 0.23529 0.51335 0.213 0.0
C1284 C 0.16086 0.57704 0.19367 0.0
N1285 N 0.15932 0.55705 0.2046 0.0
C1286 C 0.14549 0.57703 0.17222 0.0
C1287 C 0.12792 0.53587 0.17413 0.0
C1288 C 0.14357 0.53667 0.1953 0.0
C1289 C 0.12899 0.55615 0.16236 0.0
H1290 H 0.17398 0.59281 0.20162 0.0
H1291 H 0.1433 0.52101 0.20418 0.0
O1292 O 0.21471 0.55304 0.28375 0.0
O1293 O 0.18207 0.58165 0.26042 0.0
O1294 O 0.21135 0.55794 0.22731 0.0
O1295 O 0.17217 0.52672 0.2474 0.0
H1296 H 0.20711 0.5794 0.32389 0.0
H1297 H 0.25824 0.54604 0.29101 0.0
H1298 H 0.23646 0.59434 0.36181 0.0
H1299 H 0.28686 0.56183 0.32948 0.0
H1300 H 0.11086 0.6001 0.23896 0.0
H1301 H 0.19634 0.62826 0.26802 0.0
H1302 H 0.13581 0.57077 0.24502 0.0
H1303 H 0.17038 0.65653 0.2616 0.0
H1304 H 0.27783 0.64391 0.30165 0.0
H1305 H 0.23941 0.64811 0.22989 0.0
H1306 H 0.14454 0.51824 0.34622 0.0
H1307 H 0.14187 0.59049 0.33722 0.0
H1308 H 0.19869 0.54746 0.17855 0.0
H1309 H 0.25816 0.57077 0.2367 0.0
H1310 H 0.22653 0.55064 0.14697 0.0
H1311 H 0.28496 0.57381 0.20408 0.0
H1312 H 0.17384 0.48155 0.24208 0.0
H1313 H 0.12914 0.53077 0.25619 0.0
H1314 H 0.13989 0.44854 0.24354 0.0
H1315 H 0.0959 0.49686 0.25739 0.0
H1316 H 0.23458 0.47753 0.29114 0.0
H1317 H 0.26035 0.48414 0.21995 0.0
H1318 H 0.14673 0.59283 0.16322 0.0
H1319 H 0.1152 0.51954 0.16694 0.0
Li1320 Li 0.79175 0.90234 0.54909 0.0
Li1321 Li 0.80965 0.87371 0.57174 0.0
Li1322 Li 0.8355 0.90696 0.55196 0.0
Li1323 Li 0.80895 0.87122 0.52353 0.0
C1324 C 0.81587 0.92648 0.5984 0.0
N1325 N 0.81714 0.96184 0.63723 0.0
C1326 C 0.80818 0.92077 0.62088 0.0
C1327 C 0.82426 0.95014 0.59566 0.0
C1328 C 0.80894 0.93891 0.64029 0.0
C1329 C 0.82473 0.96777 0.61552 0.0
C1330 C 0.76149 0.85112 0.5434 0.0
C1331 C 0.73817 0.81138 0.53248 0.0
N1332 N 0.71926 0.81873 0.54075 0.0
C1333 C 0.74186 0.85832 0.55177 0.0
C1334 C 0.75969 0.82751 0.53364 0.0
C1335 C 0.72065 0.84165 0.55029 0.0
C1336 C 0.75684 0.92086 0.52426 0.0
N1337 N 0.76711 0.91966 0.54763 0.0
C1338 C 0.74329 0.94442 0.56568 0.0
C1339 C 0.76045 0.93076 0.56826 0.0
C1340 C 0.73327 0.94676 0.54166 0.0
C1341 C 0.73998 0.93453 0.52082 0.0
H1342 H 0.76208 0.9115 0.50822 0.0
H1343 H 0.76855 0.92922 0.58669 0.0
C1344 C 0.82655 0.85524 0.61627 0.0
N1345 N 0.80684 0.85743 0.60146 0.0
C1346 C 0.82465 0.84588 0.63892 0.0
C1347 C 0.78231 0.84145 0.63105 0.0
C1348 C 0.78497 0.8506 0.60844 0.0
C1349 C 0.8023 0.83907 0.64673 0.0
H1350 H 0.84383 0.86125 0.61078 0.0
H1351 H 0.76953 0.85287 0.59682 0.0
C1352 C 0.81233 0.92182 0.50601 0.0
N1353 N 0.81284 0.95479 0.4732 0.0
C1354 C 0.81334 0.91527 0.48067 0.0
C1355 C 0.81167 0.94514 0.51472 0.0
C1356 C 0.81364 0.93221 0.46438 0.0
C1357 C 0.81183 0.96153 0.49779 0.0
C1358 C 0.85165 0.85814 0.54767 0.0
C1359 C 0.87405 0.86721 0.54148 0.0
C1360 C 0.84538 0.83447 0.55128 0.0
C1361 C 0.8899 0.85229 0.53891 0.0
C1362 C 0.86175 0.82012 0.54854 0.0
N1363 N 0.88348 0.82926 0.54248 0.0
C1364 C 0.87939 0.94015 0.57424 0.0
C1365 C 0.87057 0.93407 0.53012 0.0
C1366 C 0.90066 0.95617 0.57296 0.0
N1367 N 0.86493 0.92938 0.55291 0.0
C1368 C 0.89115 0.95025 0.528 0.0
C1369 C 0.90691 0.96128 0.5495 0.0
H1370 H 0.8746 0.93611 0.5922 0.0
H1371 H 0.85919 0.925 0.51339 0.0
C1372 C 0.78547 0.84746 0.47491 0.0
N1373 N 0.8066 0.85284 0.49014 0.0
C1374 C 0.78389 0.83762 0.44975 0.0
C1375 C 0.82565 0.83837 0.45623 0.0
C1376 C 0.82647 0.84832 0.48124 0.0
C1377 C 0.80423 0.83319 0.43982 0.0
H1378 H 0.76992 0.85155 0.48207 0.0
H1379 H 0.84326 0.85326 0.49325 0.0
O1380 O 0.81586 0.90889 0.57951 0.0
O1381 O 0.78218 0.86726 0.54404 0.0
O1382 O 0.81213 0.90542 0.52217 0.0
O1383 O 0.83615 0.8726 0.55082 0.0
H1384 H 0.80175 0.90254 0.62335 0.0
H1385 H 0.83046 0.95482 0.57844 0.0
H1386 H 0.80306 0.93475 0.65781 0.0
H1387 H 0.83121 0.98617 0.6137 0.0
H1388 H 0.73648 0.79304 0.52494 0.0
H1389 H 0.74298 0.87655 0.55934 0.0
H1390 H 0.77474 0.82177 0.52694 0.0
H1391 H 0.7053 0.84695 0.55669 0.0
H1392 H 0.73837 0.9535 0.58215 0.0
H1393 H 0.73229 0.93561 0.50201 0.0
H1394 H 0.84055 0.84455 0.65056 0.0
H1395 H 0.76475 0.8363 0.63625 0.0
H1396 H 0.81407 0.89734 0.47366 0.0
H1397 H 0.81086 0.95047 0.53428 0.0
H1398 H 0.81451 0.92741 0.44474 0.0
H1399 H 0.81117 0.97962 0.50421 0.0
H1400 H 0.87915 0.88556 0.53874 0.0
H1401 H 0.82811 0.82731 0.55622 0.0
H1402 H 0.90733 0.85904 0.53414 0.0
H1403 H 0.85719 0.80174 0.5513 0.0
H1404 H 0.91228 0.96396 0.59008 0.0
H1405 H 0.89469 0.95387 0.50951 0.0
H1406 H 0.76687 0.8338 0.43812 0.0
H1407 H 0.84192 0.83572 0.44958 0.0
Li1408 Li 0.96195 0.02347 0.29853 0.0
Li1409 Li 0.9263 0.99583 0.27024 0.0
Li1410 Li 0.95951 0.02215 0.25006 0.0
Li1411 Li 0.93059 0.03965 0.27264 0.0
C1412 C 0.97552 0.9806 0.27375 0.0
N1413 N 1.00448 0.94863 0.27667 0.0
C1414 C 0.96673 0.95806 0.27968 0.0
C1415 C 0.99897 0.98695 0.26929 0.0
C1416 C 0.98167 0.94213 0.28108 0.0
C1417 C 1.01336 0.97052 0.27088 0.0
C1418 C 0.91151 0.021 0.31613 0.0
C1419 C 0.87195 0.02263 0.32432 0.0
N1420 N 0.87874 0.02244 0.34906 0.0
C1421 C 0.91811 0.02085 0.34163 0.0
C1422 C 0.88823 0.0218 0.30734 0.0
C1423 C 0.90127 0.02154 0.35797 0.0
C1424 C 0.9863 0.04737 0.34714 0.0
N1425 N 0.98014 0.02616 0.33197 0.0
C1426 C 0.99302 1.00658 0.36603 0.0
C1427 C 0.9835 1.00599 0.34097 0.0
C1428 C 0.99917 0.0281 0.38215 0.0
C1429 C 0.99593 0.04873 0.37236 0.0
H1430 H 0.98293 0.06313 0.33995 0.0
H1431 H 0.97793 0.98922 0.32897 0.0
C1432 C 0.89979 0.94855 0.24908 0.0
N1433 N 0.90427 0.96575 0.26918 0.0
C1434 C 0.88435 0.92675 0.24961 0.0
C1435 C 0.87753 0.94122 0.2909 0.0
C1436 C 0.89362 0.96223 0.2899 0.0
C1437 C 0.87288 0.92266 0.27085 0.0
H1438 H 0.90855 0.95157 0.23281 0.0
H1439 H 0.8977 0.97559 0.30599 0.0
C1440 C 0.98146 0.07065 0.27788 0.0
N1441 N 1.01339 0.11295 0.27921 0.0
C1442 C 0.97391 0.08987 0.26897 0.0
C1443 C 1.00518 0.07291 0.28752 0.0
C1444 C 0.99035 0.11111 0.26978 0.0
C1445 C 0.02107 0.09446 0.28801 0.0
C1446 C 0.90694 0.01575 0.22344 0.0
C1447 C 0.91306 0.02462 0.20163 0.0
C1448 C 0.88318 1.00688 0.22549 0.0
C1449 C 0.8952 0.02459 0.1822 0.0
C1450 C 0.86584 1.00719 0.20565 0.0
N1451 N 0.87216 0.01594 0.1846 0.0
C1452 C 0.97643 1.0052 0.20422 0.0
C1453 C 0.98476 0.04681 0.21422 0.0
C1454 C 0.98576 1.00714 0.1815 0.0
N1455 N 0.97601 0.0249 0.22014 0.0
C1456 C 0.9941 0.04956 0.19169 0.0
C1457 C 0.99457 0.02959 0.17473 0.0
H1458 H 0.96896 0.98791 0.20885 0.0
H1459 H 0.98396 0.06234 0.22665 0.0
C1460 C 0.913 0.07535 0.29739 0.0
N1461 N 0.91312 0.0642 0.27408 0.0
C1462 C 0.89986 0.09266 0.30097 0.0
C1463 C 0.8881 0.08783 0.2563 0.0
C1464 C 0.90129 0.07029 0.2536 0.0
C1465 C 0.887 0.09896 0.28031 0.0
H1466 H 0.92302 0.07062 0.31329 0.0
H1467 H 0.90204 0.06164 0.23517 0.0
O1468 O 0.96097 0.99611 0.27154 0.0
O1469 O 0.9276 0.0195 0.2998 0.0
O1470 O 0.96561 0.04984 0.27762 0.0
O1471 O 0.92423 0.01514 0.24237 0.0
H1472 H 0.94855 0.95292 0.2831 0.0
H1473 H 1.00591 1.00434 0.26453 0.0
H1474 H 0.97511 0.92459 0.2856 0.0
H1475 H 0.03156 0.97513 0.26744 0.0
H1476 H 0.85389 0.02333 0.31782 0.0
H1477 H 0.93595 0.0199 0.3487 0.0
H1478 H 0.8828 0.02172 0.28761 0.0
H1479 H 0.90609 0.02127 0.37773 0.0
H1480 H 0.99499 0.99025 0.37294 0.0
H1481 H 1.00015 0.06563 0.38428 0.0
H1482 H 0.88198 0.9132 0.23367 0.0
H1483 H 0.86897 0.93984 0.3075 0.0
H1484 H 0.9556 0.08837 0.26141 0.0
H1485 H 1.01121 0.05818 0.29458 0.0
H1486 H 0.98479 0.12614 0.26293 0.0
H1487 H 0.03951 0.0965 0.29542 0.0
H1488 H 0.93138 0.03146 0.19972 0.0
H1489 H 0.8782 0.99979 0.2422 0.0
H1490 H 0.89967 0.03139 0.16521 0.0
H1491 H 0.84735 1.0004 0.20695 0.0
H1492 H 0.98542 0.9912 0.169 0.0
H1493 H 1.00085 0.06723 0.18756 0.0
H1494 H 0.90002 0.10127 0.31975 0.0
H1495 H 0.87862 0.09239 0.23989 0.0
Li1496 Li 0.27574 0.65133 0.58816 0.0
Li1497 Li 0.29421 0.62201 0.56815 0.0
Li1498 Li 0.27839 0.65048 0.54436 0.0
Li1499 Li 0.25302 0.61743 0.55909 0.0
C1500 C 0.32312 0.67496 0.57185 0.0
N1501 N 0.36103 0.71236 0.57298 0.0
C1502 C 0.34619 0.67124 0.57425 0.0
C1503 C 0.3193 0.69767 0.57005 0.0
C1504 C 0.36513 0.6904 0.57485 0.0
C1505 C 0.3387 0.71634 0.57055 0.0
C1506 C 0.27364 0.60339 0.6094 0.0
C1507 C 0.26865 0.56443 0.62176 0.0
N1508 N 0.27599 0.57432 0.64597 0.0
C1509 C 0.28122 0.61319 0.63437 0.0
C1510 C 0.26736 0.57884 0.60298 0.0
C1511 C 0.28229 0.59819 0.6526 0.0
C1512 C 0.25612 0.67141 0.62679 0.0
N1513 N 0.27631 0.67114 0.61657 0.0
C1514 C 0.29863 0.70181 0.64736 0.0
C1515 C 0.29737 0.6855 0.6265 0.0
C1516 C 0.27806 0.70272 0.65826 0.0
C1517 C 0.25657 0.68735 0.64793 0.0
H1518 H 0.23977 0.65934 0.61842 0.0
H1519 H 0.31319 0.68429 0.6183 0.0
C1520 C 0.32469 0.60127 0.54772 0.0
N1521 N 0.31818 0.60639 0.5705 0.0
C1522 C 0.34427 0.59175 0.54567 0.0
C1523 C 0.3503 0.59291 0.59079 0.0
C1524 C 0.3301 0.60224 0.59194 0.0
C1525 C 0.35748 0.58809 0.56738 0.0
H1526 H 0.31533 0.60562 0.53123 0.0
H1527 H 0.32457 0.60708 0.6098 0.0
C1528 C 0.23474 0.66474 0.56482 0.0
N1529 N 0.20311 0.69393 0.5701 0.0
C1530 C 0.21039 0.65517 0.56111 0.0
C1531 C 0.24301 0.68916 0.57116 0.0
C1532 C 0.19468 0.67022 0.5638 0.0
C1533 C 0.22673 0.70362 0.57387 0.0
C1534 C 0.267 0.59975 0.51435 0.0
C1535 C 0.26026 0.60655 0.49122 0.0
C1536 C 0.26504 0.57579 0.51654 0.0
C1537 C 0.25127 0.58915 0.47067 0.0
C1538 C 0.25605 0.55893 0.4955 0.0
N1539 N 0.24937 0.56591 0.47322 0.0
C1540 C 0.30055 0.6785 0.51003 0.0
C1541 C 0.25918 0.67402 0.51092 0.0
C1542 C 0.29981 0.69356 0.49183 0.0
N1543 N 0.28037 0.66944 0.51927 0.0
C1544 C 0.25769 0.68912 0.49329 0.0
C1545 C 0.27816 0.69921 0.48368 0.0
H1546 H 0.31706 0.67405 0.51678 0.0
H1547 H 0.24331 0.66565 0.51771 0.0
C1548 C 0.21439 0.59067 0.57308 0.0
N1549 N 0.22455 0.59674 0.55277 0.0
C1550 C 0.19086 0.57904 0.57011 0.0
C1551 C 0.18936 0.57914 0.52528 0.0
C1552 C 0.21274 0.59122 0.52919 0.0
C1553 C 0.17822 0.57385 0.54601 0.0
H1554 H 0.22403 0.59637 0.59164 0.0
H1555 H 0.22077 0.59769 0.51368 0.0
O1556 O 0.30452 0.65654 0.57232 0.0
O1557 O 0.27079 0.61782 0.59166 0.0
O1558 O 0.25026 0.65031 0.56098 0.0
O1559 O 0.27591 0.61655 0.53461 0.0
H1560 H 0.34944 0.6538 0.57595 0.0
H1561 H 0.30157 0.70084 0.56827 0.0
H1562 H 0.3831 0.68782 0.57688 0.0
H1563 H 0.33601 0.734 0.5691 0.0
H1564 H 0.26366 0.54539 0.61712 0.0
H1565 H 0.28591 0.63218 0.63967 0.0
H1566 H 0.2612 0.57103 0.58374 0.0
H1567 H 0.28797 0.60552 0.67203 0.0
H1568 H 0.31545 0.71358 0.65486 0.0
H1569 H 0.24051 0.68748 0.65626 0.0
H1570 H 0.34981 0.58842 0.52742 0.0
H1571 H 0.36056 0.59037 0.60774 0.0
H1572 H 0.20365 0.63635 0.55584 0.0
H1573 H 0.26176 0.69687 0.57398 0.0
H1574 H 0.17579 0.66307 0.56078 0.0
H1575 H 0.23288 0.72254 0.57885 0.0
H1576 H 0.26177 0.62503 0.48921 0.0
H1577 H 0.27035 0.5703 0.5343 0.0
H1578 H 0.24579 0.59413 0.45271 0.0
H1579 H 0.25438 0.54031 0.49689 0.0
H1580 H 0.31577 0.70066 0.48422 0.0
H1581 H 0.2405 0.69227 0.48662 0.0
H1582 H 0.18226 0.57544 0.5864 0.0
H1583 H 0.17956 0.57582 0.50662 0.0
Li1584 Li 0.42632 0.49546 0.76949 0.0
Li1585 Li 0.46161 0.5231 0.79767 0.0
Li1586 Li 0.42989 0.53904 0.7719 0.0
Li1587 Li 0.45908 0.52201 0.74951 0.0
C1588 C 0.41069 0.51819 0.81507 0.0
N1589 N 0.37769 0.51795 0.84793 0.0
C1590 C 0.41712 0.51687 0.84034 0.0
C1591 C 0.38745 0.51919 0.80643 0.0
C1592 C 0.40017 0.51674 0.85666 0.0
C1593 C 0.37104 0.51918 0.82338 0.0
C1594 C 0.47572 0.48062 0.77335 0.0
C1595 C 0.51379 0.47087 0.77107 0.0
N1596 N 0.50505 0.44906 0.77713 0.0
C1597 C 0.46709 0.45815 0.77956 0.0
C1598 C 0.49922 0.4871 0.76906 0.0
C1599 C 0.48221 0.44244 0.78139 0.0
C1600 C 0.39461 0.45156 0.74655 0.0
N1601 N 0.40458 0.46546 0.76846 0.0
C1602 C 0.38373 0.43739 0.79171 0.0
C1603 C 0.39952 0.4587 0.79078 0.0
C1604 C 0.37318 0.42255 0.76946 0.0
C1605 C 0.37888 0.42988 0.74662 0.0
H1606 H 0.39889 0.45727 0.72901 0.0
H1607 H 0.40796 0.46975 0.80799 0.0
C1608 C 0.48132 0.54696 0.84681 0.0
N1609 N 0.47983 0.52661 0.83112 0.0
C1610 C 0.49055 0.54909 0.87218 0.0
C1611 C 0.49736 0.5096 0.86495 0.0
C1612 C 0.48789 0.50817 0.83971 0.0
C1613 C 0.49839 0.5301 0.88187 0.0
H1614 H 0.47448 0.56129 0.83983 0.0
H1615 H 0.48614 0.49192 0.82723 0.0
C1616 C 0.40624 0.51534 0.72297 0.0
N1617 N 0.37088 0.51562 0.68473 0.0
C1618 C 0.41198 0.5237 0.7008 0.0
C1619 C 0.38253 0.50703 0.72568 0.0
C1620 C 0.39385 0.52372 0.6817 0.0
C1621 C 0.3649 0.50735 0.70613 0.0
C1622 C 0.48102 0.57012 0.77693 0.0
C1623 C 0.47374 0.58969 0.76859 0.0
C1624 C 0.50479 0.57183 0.78601 0.0
C1625 C 0.49047 0.61073 0.76938 0.0
C1626 C 0.52098 0.59319 0.7865 0.0
N1627 N 0.51355 0.61203 0.77825 0.0
C1628 C 0.41116 0.5737 0.79675 0.0
C1629 C 0.40147 0.57029 0.75276 0.0
C1630 C 0.39796 0.59096 0.80026 0.0
N1631 N 0.41228 0.56339 0.77335 0.0
C1632 C 0.38825 0.58781 0.75542 0.0
C1633 C 0.38611 0.59806 0.77947 0.0
H1634 H 0.42044 0.56836 0.81275 0.0
H1635 H 0.40308 0.5623 0.7343 0.0
C1636 C 0.48034 0.50619 0.70627 0.0
N1637 N 0.47551 0.52533 0.7199 0.0
C1638 C 0.48965 0.50835 0.6836 0.0
C1639 C 0.48887 0.5498 0.68917 0.0
C1640 C 0.47977 0.5469 0.71179 0.0
C1641 C 0.49381 0.53035 0.67453 0.0
H1642 H 0.47641 0.48908 0.71266 0.0
H1643 H 0.47538 0.56182 0.72245 0.0
O1644 O 0.42725 0.51887 0.799 0.0
O1645 O 0.461 0.49592 0.77074 0.0
O1646 O 0.42381 0.51468 0.7416 0.0
O1647 O 0.46482 0.54961 0.77697 0.0
H1648 H 0.43498 0.51587 0.84729 0.0
H1649 H 0.38222 0.52028 0.78693 0.0
H1650 H 0.4049 0.51572 0.87627 0.0
H1651 H 0.35304 0.52018 0.81703 0.0
H1652 H 0.53202 0.47559 0.76775 0.0
H1653 H 0.44888 0.45289 0.78283 0.0
H1654 H 0.50605 0.50443 0.7641 0.0
H1655 H 0.47578 0.42496 0.78613 0.0
H1656 H 0.38025 0.43234 0.80976 0.0
H1657 H 0.37108 0.41908 0.729 0.0
H1658 H 0.4912 0.56543 0.88416 0.0
H1659 H 0.50285 0.49434 0.87133 0.0
H1660 H 0.43023 0.53005 0.69832 0.0
H1661 H 0.37782 0.5003 0.74264 0.0
H1662 H 0.39805 0.53013 0.66444 0.0
H1663 H 0.34646 0.50097 0.70794 0.0
H1664 H 0.45537 0.58865 0.76158 0.0
H1665 H 0.51062 0.55685 0.79269 0.0
H1666 H 0.4851 0.62603 0.76299 0.0
H1667 H 0.53945 0.59482 0.7935 0.0
H1668 H 0.39728 0.59891 0.81911 0.0
H1669 H 0.37958 0.59305 0.73894 0.0
H1670 H 0.4929 0.49277 0.6729 0.0
H1671 H 0.49193 0.56714 0.68318 0.0
Li1672 Li 0.68097 0.05296 0.77472 0.0
Li1673 Li 0.71383 0.07894 0.76096 0.0
Li1674 Li 0.67992 0.05764 0.73197 0.0
Li1675 Li 0.70874 0.0377 0.7503 0.0
C1676 C 0.66746 0.09806 0.75512 0.0
N1677 N 0.63954 0.1305 0.74781 0.0
C1678 C 0.67765 0.12227 0.75871 0.0
C1679 C 0.64304 0.09036 0.74798 0.0
C1680 C 0.66322 0.13839 0.75499 0.0
C1681 C 0.62926 0.10703 0.74416 0.0
C1682 C 0.7311 0.06413 0.80492 0.0
C1683 C 0.77156 0.07541 0.82493 0.0
N1684 N 0.76389 0.08197 0.84689 0.0
C1685 C 0.7236 0.07076 0.82775 0.0
C1686 C 0.75525 0.0663 0.8035 0.0
C1687 C 0.74047 0.07985 0.84872 0.0
C1688 C 0.66074 0.03051 0.8132 0.0
N1689 N 0.66363 0.04974 0.80087 0.0
C1690 C 0.64611 0.07109 0.83047 0.0
C1691 C 0.65644 0.06966 0.8089 0.0
C1692 C 0.64343 0.05191 0.844 0.0
C1693 C 0.65026 0.03114 0.8351 0.0
H1694 H 0.66721 0.01514 0.80646 0.0
H1695 H 0.65959 0.08486 0.79919 0.0
C1696 C 0.74188 0.11687 0.74758 0.0
N1697 N 0.73511 0.10693 0.76777 0.0
C1698 C 0.75552 0.1396 0.75084 0.0
C1699 C 0.75513 0.14103 0.79563 0.0
C1700 C 0.74126 0.11839 0.79144 0.0
C1701 C 0.76174 0.1519 0.77508 0.0
H1702 H 0.73547 0.1077 0.72893 0.0
H1703 H 0.73426 0.11069 0.80688 0.0
C1704 C 0.65659 1.00941 0.74911 0.0
N1705 N 0.62031 0.97166 0.75233 0.0
C1706 C 0.6608 0.98656 0.74805 0.0
C1707 C 0.63396 0.01309 0.75184 0.0
C1708 C 0.64221 0.96769 0.74965 0.0
C1709 C 0.61587 0.99378 0.75353 0.0
C1710 C 0.72797 0.05891 0.71046 0.0
C1711 C 0.71844 0.05099 0.68548 0.0
C1712 C 0.75251 0.0653 0.71714 0.0
C1713 C 0.7337 0.04975 0.66749 0.0
C1714 C 0.76717 0.06393 0.69857 0.0
N1715 N 0.75754 0.05627 0.67434 0.0
C1716 C 0.66092 0.07813 0.69295 0.0
C1717 C 0.6447 0.03762 0.69493 0.0
C1718 C 0.64478 0.07783 0.67199 0.0
N1719 N 0.66026 0.05822 0.70387 0.0
C1720 C 0.62823 0.03654 0.67436 0.0
C1721 C 0.62832 0.05675 0.66264 0.0
H1722 H 0.67386 0.09413 0.70062 0.0
H1723 H 0.64507 0.02201 0.70373 0.0
C1724 C 0.72974 1.00708 0.76969 0.0
N1725 N 0.72385 0.01334 0.74699 0.0
C1726 C 0.73884 0.98727 0.77143 0.0
C1727 C 0.73575 0.98039 0.72615 0.0
C1728 C 0.72675 1.00082 0.72529 0.0
C1729 C 0.74129 0.97347 0.74953 0.0
H1730 H 0.72641 0.01685 0.78648 0.0
H1731 H 0.7213 1.00616 0.70752 0.0
O1732 O 0.68113 0.08222 0.76044 0.0
O1733 O 0.71486 0.05512 0.78417 0.0
O1734 O 0.67415 0.02774 0.74566 0.0
O1735 O 0.7133 0.06208 0.72792 0.0
H1736 H 0.69641 0.12859 0.76481 0.0
H1737 H 0.63483 0.07172 0.74545 0.0
H1738 H 0.67085 0.15718 0.75797 0.0
H1739 H 0.61037 0.10132 0.73849 0.0
H1740 H 0.79032 0.07727 0.82411 0.0
H1741 H 0.70503 0.06922 0.82928 0.0
H1742 H 0.7613 0.0611 0.786 0.0
H1743 H 0.73492 0.08524 0.86645 0.0
H1744 H 0.64057 0.0872 0.83676 0.0
H1745 H 0.64812 0.01605 0.84527 0.0
H1746 H 0.75968 0.14804 0.7346 0.0
H1747 H 0.75934 0.15052 0.81445 0.0
H1748 H 0.67812 0.98335 0.74549 0.0
H1749 H 0.63038 0.03064 0.75241 0.0
H1750 H 0.64514 0.94987 0.74858 0.0
H1751 H 0.59825 0.99634 0.75559 0.0
H1752 H 0.69946 0.04619 0.68001 0.0
H1753 H 0.76011 0.07169 0.7364 0.0
H1754 H 0.72658 0.04381 0.64805 0.0
H1755 H 0.7862 0.06911 0.7034 0.0
H1756 H 0.64535 0.09359 0.66304 0.0
H1757 H 0.61559 0.02005 0.66764 0.0
H1758 H 0.74318 0.98224 0.78973 0.0
H1759 H 0.73765 0.96986 0.70906 0.0
Li1760 Li 0.77818 0.70764 0.04942 0.0
Li1761 Li 0.79455 0.67618 0.02433 0.0
Li1762 Li 0.77679 0.70544 1.00151 0.0
Li1763 Li 0.75105 0.67242 0.01966 0.0
C1764 C 0.82524 0.72788 0.03156 0.0
N1765 N 0.86713 0.76122 0.03659 0.0
C1766 C 0.84679 0.72168 0.03844 0.0
C1767 C 0.82493 0.75101 0.02728 0.0
C1768 C 0.86779 0.7388 0.04089 0.0
C1769 C 0.84633 0.76762 0.0299 0.0
C1770 C 0.77382 0.65678 0.06647 0.0
C1771 C 0.7665 0.61639 0.07488 0.0
N1772 N 0.77537 0.62406 0.09932 0.0
C1773 C 0.78279 0.66428 0.09167 0.0
C1774 C 0.76557 0.63267 0.05795 0.0
C1775 C 0.78347 0.64745 0.10798 0.0
C1776 C 0.75982 0.72726 0.09182 0.0
N1777 N 0.78036 0.726 0.08239 0.0
C1778 C 0.80288 0.74481 0.1218 0.0
C1779 C 0.8017 0.73482 0.09678 0.0
C1780 C 0.78194 0.74603 0.1321 0.0
C1781 C 0.76022 0.73742 0.11663 0.0
H1782 H 0.74304 0.71963 0.08032 0.0
H1783 H 0.81781 0.73328 0.08914 0.0
C1784 C 0.82772 0.65186 1.00396 0.0
N1785 N 0.81925 0.65923 0.0252 0.0
C1786 C 0.84675 0.64046 0.00533 0.0
C1787 C 0.84797 0.64482 0.05029 0.0
C1788 C 0.82891 0.65585 0.04805 0.0
C1789 C 0.85724 0.63722 0.02882 0.0
H1790 H 0.81996 0.65517 0.98604 0.0
H1791 H 0.82225 0.66234 0.06464 0.0
C1792 C 0.73525 0.72107 0.01966 0.0
N1793 N 0.70302 0.74953 0.01396 0.0
C1794 C 0.71216 0.71129 0.0081 0.0
C1795 C 0.74203 0.74525 0.02832 0.0
C1796 C 0.6961 0.726 0.0054 0.0
C1797 C 0.72545 0.75937 0.02523 0.0
C1798 C 0.76743 0.65288 0.97346 0.0
C1799 C 0.76136 0.65781 0.9493 0.0
C1800 C 0.76936 0.62996 0.97719 0.0
C1801 C 0.75735 0.63967 0.92918 0.0
C1802 C 0.76521 0.6123 0.95657 0.0
N1803 N 0.75936 0.61749 0.9332 0.0
C1804 C 0.80069 0.72358 0.96254 0.0
C1805 C 0.7617 0.7298 0.96058 0.0
C1806 C 0.80342 0.73254 0.93984 0.0
N1807 N 0.78 0.7221 0.97236 0.0
C1808 C 0.76376 0.73916 0.93797 0.0
C1809 C 0.78472 0.7403 0.92679 0.0
H1810 H 0.81492 0.71702 0.97195 0.0
H1811 H 0.74524 0.72819 0.9684 0.0
C1812 C 0.70983 0.65351 0.03795 0.0
N1813 N 0.72114 0.65083 0.01757 0.0
C1814 C 0.68796 0.6388 0.03905 0.0
C1815 C 0.68989 0.61824 0.99839 0.0
C1816 C 0.71167 0.63362 0.99792 0.0
C1817 C 0.6777 0.62093 0.01909 0.0
H1818 H 0.71787 0.6672 0.05338 0.0
H1819 H 0.72089 0.63182 0.98186 0.0
O1820 O 0.80459 0.7112 0.02843 0.0
O1821 O 0.77296 0.67306 0.05034 0.0
O1822 O 0.75092 0.70684 0.02319 0.0
O1823 O 0.77198 0.67059 0.99322 0.0
H1824 H 0.84735 0.70386 0.0418 0.0
H1825 H 0.80836 0.756 0.02182 0.0
H1826 H 0.88461 0.73424 0.04616 0.0
H1827 H 0.84641 0.78559 0.02657 0.0
H1828 H 0.76015 0.59766 0.06859 0.0
H1829 H 0.78926 0.68289 0.09854 0.0
H1830 H 0.75849 0.62662 0.03851 0.0
H1831 H 0.79044 0.653 0.12751 0.0
H1832 H 0.81998 0.75111 0.13318 0.0
H1833 H 0.74369 0.73762 0.12397 0.0
H1834 H 0.8536 0.63487 0.98843 0.0
H1835 H 0.85557 0.64242 0.0687 0.0
H1836 H 0.70669 0.69254 1.00142 0.0
H1837 H 0.75985 0.75296 0.03744 0.0
H1838 H 0.67812 0.71869 0.99657 0.0
H1839 H 0.73038 0.77813 0.03188 0.0
H1840 H 0.75984 0.67548 0.94611 0.0
H1841 H 0.77411 0.6259 0.99579 0.0
H1842 H 0.75269 0.64325 0.91037 0.0
H1843 H 0.7667 0.59449 0.95914 0.0
H1844 H 0.81985 0.73248 0.9323 0.0
H1845 H 0.74885 0.74526 0.92941 0.0
H1846 H 0.67918 0.64128 0.05542 0.0
H1847 H 0.68241 0.60475 0.98258 0.0
Li1848 Li 0.86987 0.5024 0.80872 0.0
Li1849 Li 0.9051 0.52158 0.8377 0.0
Li1850 Li 0.87588 0.54268 0.82083 0.0
Li1851 Li 0.90232 0.52724 0.79402 0.0
C1852 C 0.85837 0.5183 0.86146 0.0
N1853 N 0.8301 0.51635 0.89915 0.0
C1854 C 0.86661 0.51258 0.88465 0.0
C1855 C 0.83572 0.52294 0.85739 0.0
C1856 C 0.85205 0.51167 0.90346 0.0
C1857 C 0.82173 0.52195 0.87672 0.0
C1858 C 0.9159 0.48163 0.80916 0.0
C1859 C 0.95383 0.47109 0.80816 0.0
N1860 N 0.944 0.44877 0.81205 0.0
C1861 C 0.90617 0.45858 0.81315 0.0
C1862 C 0.93992 0.48796 0.80662 0.0
C1863 C 0.92067 0.44223 0.81454 0.0
C1864 C 0.85062 0.46073 0.77982 0.0
N1865 N 0.8486 0.47461 0.8009 0.0
C1866 C 0.82105 0.44409 0.8136 0.0
C1867 C 0.83372 0.46719 0.8173 0.0
C1868 C 0.82408 0.42903 0.79291 0.0
C1869 C 0.83809 0.43753 0.77521 0.0
H1870 H 0.86311 0.46733 0.76757 0.0
H1871 H 0.83286 0.47857 0.83401 0.0
C1872 C 0.92981 0.54066 0.88265 0.0
N1873 N 0.92535 0.52083 0.86573 0.0
C1874 C 0.94595 0.54274 0.90396 0.0
C1875 C 0.95268 0.50406 0.88957 0.0
C1876 C 0.93566 0.50234 0.86919 0.0
C1877 C 0.95813 0.52453 0.90722 0.0
H1878 H 0.92082 0.55482 0.87943 0.0
H1879 H 0.93108 0.48636 0.85617 0.0
C1880 C 0.85269 0.51497 0.7653 0.0
N1881 N 0.82148 0.49156 0.72377 0.0
C1882 C 0.86011 0.51327 0.74165 0.0
C1883 C 0.82909 0.50542 0.76759 0.0
C1884 C 0.84417 0.50119 0.72096 0.0
C1885 C 0.81366 0.49346 0.74645 0.0
C1886 C 0.9297 0.56926 0.82234 0.0
C1887 C 0.92602 0.59085 0.81568 0.0
C1888 C 0.95273 0.56596 0.82782 0.0
C1889 C 0.94557 0.60888 0.81458 0.0
C1890 C 0.97182 0.58445 0.82651 0.0
N1891 N 0.96787 0.60534 0.81999 0.0
C1892 C 0.86941 0.58599 0.844 0.0
C1893 C 0.84018 0.56408 0.8112 0.0
C1894 C 0.85941 0.60572 0.84307 0.0
N1895 N 0.86025 0.56632 0.82726 0.0
C1896 C 0.82952 0.58307 0.80978 0.0
C1897 C 0.84009 0.6046 0.82473 0.0
H1898 H 0.88552 0.58699 0.85647 0.0
H1899 H 0.83354 0.54817 0.79815 0.0
C1900 C 0.91699 0.5062 0.75479 0.0
N1901 N 0.91954 0.52829 0.76724 0.0
C1902 C 0.92845 0.50261 0.73424 0.0
C1903 C 0.94479 0.54479 0.73913 0.0
C1904 C 0.93288 0.54759 0.75986 0.0
C1905 C 0.94252 0.52201 0.72619 0.0
H1906 H 0.90573 0.49131 0.76072 0.0
H1907 H 0.93426 0.56499 0.76991 0.0
O1908 O 0.87207 0.51815 0.84256 0.0
O1909 O 0.90202 0.49797 0.8081 0.0
O1910 O 0.86816 0.52689 0.78577 0.0
O1911 O 0.91078 0.55175 0.8243 0.0
H1912 H 0.88391 0.50847 0.88796 0.0
H1913 H 0.82879 0.5267 0.83935 0.0
H1914 H 0.85815 0.50712 0.92144 0.0
H1915 H 0.80413 0.52541 0.87381 0.0
H1916 H 0.97246 0.47575 0.80635 0.0
H1917 H 0.88771 0.45344 0.81552 0.0
H1918 H 0.94777 0.50579 0.80377 0.0
H1919 H 0.91341 0.42437 0.81772 0.0
H1920 H 0.81054 0.43754 0.82763 0.0
H1921 H 0.84097 0.42586 0.7594 0.0
H1922 H 0.94886 0.55848 0.91753 0.0
H1923 H 0.96166 0.48962 0.89106 0.0
H1924 H 0.87783 0.5216 0.7391 0.0
H1925 H 0.82281 0.50681 0.78562 0.0
H1926 H 0.84979 0.49965 0.70262 0.0
H1927 H 0.79548 0.48567 0.74807 0.0
H1928 H 0.90826 0.59363 0.81145 0.0
H1929 H 0.95581 0.54936 0.83314 0.0
H1930 H 0.94302 0.62571 0.80948 0.0
H1931 H 0.98977 0.58221 0.83075 0.0
H1932 H 0.86795 0.62222 0.85472 0.0
H1933 H 0.81495 0.58167 0.79503 0.0
H1934 H 0.92664 0.48473 0.725 0.0
H1935 H 0.95556 0.56011 0.73326 0.0
Li1936 Li 0.80638 0.43069 0.52662 0.0
Li1937 Li 0.79362 0.45875 0.50002 0.0
Li1938 Li 0.81307 0.42809 0.48311 0.0
Li1939 Li 0.83401 0.46251 0.5131 0.0
C1940 C 0.76472 0.40484 0.49621 0.0
N1941 N 0.72832 0.36621 0.49596 0.0
C1942 C 0.74243 0.40812 0.50106 0.0
C1943 C 0.76854 0.38196 0.49121 0.0
C1944 C 0.72425 0.38835 0.50088 0.0
C1945 C 0.74988 0.36264 0.49116 0.0
C1946 C 0.81976 0.48078 0.55587 0.0
C1947 C 0.84018 0.52001 0.5751 0.0
N1948 N 0.84029 0.51259 0.59797 0.0
C1949 C 0.81978 0.47367 0.57963 0.0
C1950 C 0.82981 0.50423 0.55361 0.0
C1951 C 0.83039 0.48995 0.60064 0.0
C1952 C 0.82431 0.41496 0.56684 0.0
N1953 N 0.80303 0.413 0.55287 0.0
C1954 C 0.78376 0.38664 0.57847 0.0
C1955 C 0.78282 0.39941 0.55825 0.0
C1956 C 0.80562 0.38855 0.59312 0.0
C1957 C 0.82602 0.40289 0.58722 0.0
H1958 H 0.83999 0.42612 0.56218 0.0
H1959 H 0.76611 0.39839 0.54693 0.0
C1960 C 0.7513 0.46672 0.47612 0.0
N1961 N 0.77044 0.47532 0.49375 0.0
C1962 C 0.73125 0.47629 0.47696 0.0
C1963 C 0.75236 0.50458 0.51238 0.0
C1964 C 0.77173 0.4944 0.51096 0.0
C1965 C 0.73145 0.49466 0.4961 0.0
H1966 H 0.75091 0.45126 0.4629 0.0
H1967 H 0.78706 0.50047 0.5249 0.0
C1968 C 0.85223 0.41576 0.51249 0.0
N1969 N 0.88531 0.38786 0.50995 0.0
C1970 C 0.8752 0.42544 0.50811 0.0
C1971 C 0.84611 0.39191 0.51564 0.0
C1972 C 0.89166 0.41105 0.50692 0.0
C1973 C 0.86309 0.37809 0.51424 0.0
C1974 C 0.81869 0.47592 0.46082 0.0
C1975 C 0.82172 0.46758 0.43651 0.0
C1976 C 0.81652 0.49928 0.46669 0.0
C1977 C 0.82245 0.48279 0.41836 0.0
C1978 C 0.81717 0.5139 0.44795 0.0
N1979 N 0.82015 0.50543 0.4244 0.0
C1980 C 0.79378 0.40397 0.43748 0.0
C1981 C 0.83083 0.3958 0.45203 0.0
C1982 C 0.79147 0.38779 0.4161 0.0
N1983 N 0.81315 0.40743 0.4549 0.0
C1984 C 0.82883 0.37877 0.43155 0.0
C1985 C 0.80895 0.37454 0.4132 0.0
H1986 H 0.78018 0.41384 0.44032 0.0
H1987 H 0.84639 0.39936 0.4656 0.0
C1988 C 0.87499 0.48167 0.54476 0.0
N1989 N 0.86322 0.48231 0.52192 0.0
C1990 C 0.89861 0.49306 0.55074 0.0
C1991 C 0.89723 0.50558 0.50957 0.0
C1992 C 0.87356 0.49415 0.50447 0.0
C1993 C 0.90984 0.50458 0.53275 0.0
H1994 H 0.86634 0.4713 0.55776 0.0
H1995 H 0.86391 0.49351 0.48619 0.0
O1996 O 0.78253 0.42402 0.49592 0.0
O1997 O 0.80889 0.46515 0.53515 0.0
O1998 O 0.83573 0.42945 0.51325 0.0
O1999 O 0.81918 0.46153 0.47899 0.0
H2000 H 0.73924 0.42576 0.50499 0.0
H2001 H 0.78572 0.37916 0.48741 0.0
H2002 H 0.70691 0.39061 0.50463 0.0
H2003 H 0.75253 0.3448 0.4873 0.0
H2004 H 0.84813 0.53816 0.57359 0.0
H2005 H 0.81127 0.45595 0.58195 0.0
H2006 H 0.82978 0.51014 0.53542 0.0
H2007 H 0.83055 0.48463 0.61911 0.0
H2008 H 0.76779 0.37551 0.58265 0.0
H2009 H 0.8432 0.40435 0.598 0.0
H2010 H 0.71522 0.46818 0.46434 0.0
H2011 H 0.75294 0.51829 0.52783 0.0
H2012 H 0.8802 0.44376 0.5053 0.0
H2013 H 0.82835 0.38409 0.51879 0.0
H2014 H 0.90946 0.41828 0.50346 0.0
H2015 H 0.85857 0.35957 0.51647 0.0
H2016 H 0.82393 0.44968 0.43181 0.0
H2017 H 0.8146 0.5061 0.48554 0.0
H2018 H 0.82498 0.47663 0.39951 0.0
H2019 H 0.81547 0.53202 0.45218 0.0
H2020 H 0.77619 0.38578 0.40213 0.0
H2021 H 0.84263 0.36887 0.43049 0.0
H2022 H 0.90835 0.49174 0.56852 0.0
H2023 H 0.90592 0.51391 0.49519 0.0
Li2024 Li 0.62908 0.55725 0.32069 0.0
Li2025 Li 0.66114 0.58417 0.3014 0.0
Li2026 Li 0.62706 0.55455 0.27279 0.0
Li2027 Li 0.65973 0.54053 0.29811 0.0
C2028 C 0.61189 0.59781 0.3009 0.0
N2029 N 0.58334 0.63014 0.30517 0.0
C2030 C 0.62152 0.621 0.3122 0.0
C2031 C 0.58778 0.59098 0.29179 0.0
C2032 C 0.60678 0.63711 0.31416 0.0
C2033 C 0.57362 0.6076 0.29416 0.0
C2034 C 0.6817 0.56758 0.34852 0.0
C2035 C 0.72191 0.56831 0.36551 0.0
N2036 N 0.71641 0.57299 0.38899 0.0
C2037 C 0.67648 0.5726 0.37279 0.0
C2038 C 0.70461 0.56557 0.34478 0.0
C2039 C 0.69426 0.57521 0.39302 0.0
C2040 C 0.61748 0.53687 0.36397 0.0
N2041 N 0.6124 0.55368 0.35007 0.0
C2042 C 0.58733 0.56496 0.37956 0.0
C2043 C 0.59752 0.5676 0.35742 0.0
C2044 C 0.59274 0.54812 0.3949 0.0
C2045 C 0.60812 0.53396 0.38644 0.0
H2046 H 0.62947 0.52607 0.35795 0.0
H2047 H 0.59365 0.58094 0.34626 0.0
C2048 C 0.68044 0.625 0.28142 0.0
N2049 N 0.68183 0.61467 0.30262 0.0
C2050 C 0.69596 0.64633 0.27981 0.0
C2051 C 0.71376 0.64642 0.32215 0.0
C2052 C 0.69804 0.62491 0.32285 0.0
C2053 C 0.71295 0.65735 0.30034 0.0
H2054 H 0.66749 0.61641 0.26554 0.0
H2055 H 0.69896 0.6163 0.33944 0.0
C2056 C 0.60718 0.5088 0.28945 0.0
N2057 N 0.57242 0.46776 0.28107 0.0
C2058 C 0.61163 0.48797 0.27743 0.0
C2059 C 0.58502 0.50887 0.29701 0.0
C2060 C 0.59385 0.46737 0.27344 0.0
C2061 C 0.56766 0.48791 0.2926 0.0
C2062 C 0.67634 0.56151 0.25369 0.0
C2063 C 0.66843 0.54762 0.23046 0.0
C2064 C 0.69918 0.57578 0.25824 0.0
C2065 C 0.68341 0.54842 0.21203 0.0
C2066 C 0.71367 0.576 0.23937 0.0
N2067 N 0.70553 0.56248 0.21683 0.0
C2068 C 0.60501 0.57073 0.23047 0.0
C2069 C 0.60238 0.52937 0.22489 0.0
C2070 C 0.59514 0.56977 0.20551 0.0
N2071 N 0.60863 0.55075 0.23967 0.0
C2072 C 0.59286 0.52768 0.19965 0.0
C2073 C 0.58934 0.54811 0.18954 0.0
H2074 H 0.61058 0.58763 0.2423 0.0
H2075 H 0.60579 0.51375 0.23234 0.0
C2076 C 0.67109 0.49657 0.30676 0.0
N2077 N 0.67868 0.51719 0.29768 0.0
C2078 C 0.68307 0.47812 0.30353 0.0
C2079 C 0.71133 0.5031 0.28322 0.0
C2080 C 0.69885 0.52099 0.28687 0.0
C2081 C 0.70306 0.48105 0.29087 0.0
H2082 H 0.65517 0.49409 0.31561 0.0
H2083 H 0.70501 0.53771 0.28052 0.0
O2084 O 0.62619 0.58209 0.29802 0.0
O2085 O 0.66429 0.56426 0.3286 0.0
O2086 O 0.62479 0.52876 0.29481 0.0
O2087 O 0.66166 0.56152 0.27171 0.0
H2088 H 0.6402 0.62654 0.31923 0.0
H2089 H 0.58016 0.57307 0.28288 0.0
H2090 H 0.61399 0.65517 0.32277 0.0
H2091 H 0.55492 0.60262 0.28717 0.0
H2092 H 0.73971 0.56668 0.36294 0.0
H2093 H 0.6589 0.57449 0.37599 0.0
H2094 H 0.70898 0.56193 0.32609 0.0
H2095 H 0.69044 0.57901 0.41191 0.0
H2096 H 0.5753 0.57613 0.38436 0.0
H2097 H 0.61361 0.52105 0.39724 0.0
H2098 H 0.69451 0.65423 0.26274 0.0
H2099 H 0.7267 0.6542 0.33833 0.0
H2100 H 0.62867 0.48768 0.27135 0.0
H2101 H 0.58135 0.52488 0.30638 0.0
H2102 H 0.5971 0.45106 0.26434 0.0
H2103 H 0.55045 0.48764 0.29846 0.0
H2104 H 0.65094 0.53632 0.22668 0.0
H2105 H 0.70577 0.58633 0.27625 0.0
H2106 H 0.67745 0.53784 0.19392 0.0
H2107 H 0.73139 0.58692 0.24266 0.0
H2108 H 0.593 0.586 0.19849 0.0
H2109 H 0.58856 0.5106 0.18808 0.0
H2110 H 0.67604 0.46137 0.30967 0.0
H2111 H 0.72694 0.50628 0.27386 0.0
C2112 C 0.99561 0.97237 0.99122 0.0
C2113 C 0.97771 0.9486 0.02105 0.0
C2114 C 0.99023 0.97034 0.01541 0.0
C2115 C 0.97071 0.92904 1.00224 0.0
C2116 C 0.98844 0.9527 0.97231 0.0
C2117 C 0.97602 0.93108 0.97797 0.0
N2118 N 1.00723 0.99367 0.98604 0.0
C2119 C 1.01172 0.99649 0.96226 0.0
C2120 C 0.99351 0.95541 0.94808 0.0
C2121 C 1.00516 0.9774 0.94305 0.0
Gd2122 Gd 0.07545 0.0543 0.0515 0.0
Gd2123 Gd 1.01307 0.025 0.0189 0.0
N2124 N 0.99699 0.98963 0.03332 0.0
C2125 C 0.97212 0.94728 0.04533 0.0
C2126 C 0.99033 0.98871 0.05654 0.0
C2127 C 0.97833 0.96748 0.06309 0.0
H2128 H 0.99307 1.00444 0.0697 0.0
H2129 H 0.97325 0.9669 0.08163 0.0
H2130 H 0.09283 0.07614 1.00009 0.0
H2131 H 0.01922 0.01363 0.95757 0.0
H2132 H 0.11199 0.11406 0.98853 0.0
H2133 H 0.96246 0.93094 0.05035 0.0
H2134 H 0.96094 0.91228 0.00622 0.0
H2135 H 0.06938 0.06481 0.11291 0.0
H2136 H 0.98812 0.94076 0.93304 0.0
H2137 H 1.00859 0.97981 0.92422 0.0
H2138 H 0.12568 0.1675 0.06496 0.0
H2139 H 0.97025 0.91587 0.96361 0.0
H2140 H 0.0998 0.13774 0.13811 0.0
H2141 H 0.07982 0.09838 0.14659 0.0
N2142 N 0.08103 0.08524 0.08466 0.0
C2143 C 0.09226 0.10675 0.07962 0.0
C2144 C 0.07671 0.08208 0.10841 0.0
C2145 C 0.09451 0.1232 0.12294 0.0
C2146 C 0.08314 0.10103 0.12779 0.0
C2147 C 0.09935 0.12627 0.09871 0.0
H2148 H 0.11713 0.1632 0.1077 0.0
N2149 N 0.09027 0.09012 0.03722 0.0
C2150 C 0.09714 0.10921 0.05535 0.0
C2151 C 0.11408 0.133 0.02538 0.0
C2152 C 0.10915 0.13119 0.04982 0.0
C2153 C 0.09602 0.09158 0.01369 0.0
C2154 C 0.10756 0.11306 0.00727 0.0
O2155 O 0.03622 0.99775 0.02639 0.0
O2156 O 0.06535 0.01565 0.05894 0.0
O2157 O 0.10936 0.05135 0.04076 0.0
O2158 O 0.10544 0.05755 0.08004 0.0
O2159 O 0.01674 0.04301 0.05932 0.0
O2160 O 0.05175 0.03626 0.0768 0.0
O2161 O 0.05131 0.08095 0.04477 0.0
O2162 O 0.0241 0.06323 0.01063 0.0
O2163 O 0.97986 0.03113 0.02943 0.0
O2164 O 0.98291 0.02019 0.99053 0.0
O2165 O 0.07209 0.03609 0.01116 0.0
O2166 O 0.03696 0.04239 0.99345 0.0
C2167 C 0.05246 0.99629 0.04491 0.0
C2168 C 0.03032 0.03919 0.0788 0.0
C2169 C 0.13368 0.03584 0.06876 0.0
C2170 C 0.16227 0.01439 0.05463 0.0
C2171 C 0.14838 1.009 0.09446 0.0
C2172 C 0.13394 0.02513 0.09072 0.0
C2173 C 0.16248 1.00349 0.07639 0.0
C2174 C 0.14803 0.03051 0.05101 0.0
C2175 C 0.1193 0.05308 0.06381 0.0
C2176 C 0.11625 0.15056 0.06885 0.0
C2177 C 0.11137 0.14811 0.0932 0.0
H2178 H 0.12336 0.14955 0.02044 0.0
C2179 C 0.03597 0.08256 0.02544 0.0
C2180 C 0.05836 0.03932 0.99146 0.0
C2181 C 0.95442 0.04238 0.99859 0.0
C2182 C 0.92014 0.05802 0.00559 0.0
C2183 C 0.93878 0.06518 0.96864 0.0
C2184 C 0.95561 0.05244 0.97627 0.0
C2185 C 0.92085 0.0678 0.98316 0.0
C2186 C 0.9369 0.0455 0.01322 0.0
C2187 C 0.96951 0.0267 0.00632 0.0
H2188 H 0.14874 1.00086 0.11142 0.0
H2189 H 0.12315 0.02923 0.10492 0.0
H2190 H 0.17385 0.99121 0.07958 0.0
H2191 H 0.14814 0.03895 0.03416 0.0
H2192 H 0.93946 0.07277 0.95137 0.0
H2193 H 0.96913 0.05013 0.9646 0.0
H2194 H 0.90774 0.07754 0.97708 0.0
H2195 H 0.9358 0.0375 0.0303 0.0
C2196 C 0.32918 0.75115 0.22715 0.0
C2197 C 0.29854 0.73457 0.19209 0.0
C2198 C 0.30788 0.75179 0.21318 0.0
C2199 C 0.31061 0.71666 0.18565 0.0
C2200 C 0.34144 0.73329 0.22058 0.0
C2201 C 0.332 0.71603 0.19983 0.0
N2202 N 0.33749 0.76749 0.24772 0.0
C2203 C 0.35836 0.76759 0.26196 0.0
C2204 C 0.36271 0.73311 0.23528 0.0
C2205 C 0.37127 0.75043 0.25597 0.0
Gd2206 Gd 0.27337 0.78755 0.31345 0.0
Gd2207 Gd 0.31419 0.79481 0.25738 0.0
N2208 N 0.29602 0.76875 0.22054 0.0
C2209 C 0.27716 0.73563 0.17828 0.0
C2210 C 0.27618 0.77091 0.20572 0.0
C2211 C 0.26615 0.7541 0.18491 0.0
H2212 H 0.26814 0.78579 0.20905 0.0
H2213 H 0.25008 0.75564 0.17373 0.0
H2214 H 0.32294 0.80162 0.35742 0.0
H2215 H 0.3652 0.78103 0.27787 0.0
H2216 H 0.34392 0.83519 0.38813 0.0
H2217 H 0.2693 0.72261 0.16215 0.0
H2218 H 0.30353 0.70318 0.16972 0.0
H2219 H 0.22096 0.7992 0.29534 0.0
H2220 H 0.37265 0.7197 0.23082 0.0
H2221 H 0.38777 0.75054 0.26735 0.0
H2222 H 0.29048 0.8878 0.3907 0.0
H2223 H 0.34108 0.70208 0.19464 0.0
H2224 H 0.21605 0.86433 0.33747 0.0
H2225 H 0.19849 0.83009 0.30502 0.0
N2226 N 0.2507 0.81572 0.32225 0.0
C2227 C 0.26057 0.83421 0.34039 0.0
C2228 C 0.2287 0.81404 0.30962 0.0
C2229 C 0.2259 0.85075 0.33344 0.0
C2230 C 0.21594 0.83147 0.31507 0.0
C2231 C 0.24852 0.85238 0.34627 0.0
H2232 H 0.25055 0.88586 0.36917 0.0
N2233 N 0.29457 0.81771 0.34572 0.0
C2234 C 0.28328 0.8354 0.35222 0.0
C2235 C 0.31663 0.85492 0.38312 0.0
C2236 C 0.29419 0.85466 0.37076 0.0
C2237 C 0.31547 0.81696 0.35946 0.0
C2238 C 0.3271 0.83576 0.37777 0.0
O2239 O 0.30451 0.75846 0.26717 0.0
O2240 O 0.26895 0.76023 0.2802 0.0
O2241 O 0.27348 0.76653 0.34345 0.0
O2242 O 0.23958 0.77047 0.32427 0.0
O2243 O 0.27688 0.80317 0.25033 0.0
O2244 O 0.25216 0.78119 0.27426 0.0
O2245 O 0.28008 0.82222 0.29957 0.0
O2246 O 0.31626 0.81844 0.29268 0.0
O2247 O 0.31645 0.82356 0.23518 0.0
O2248 O 0.34812 0.81181 0.2479 0.0
O2249 O 0.30916 0.77566 0.31911 0.0
O2250 O 0.33432 0.79863 0.29671 0.0
C2251 C 0.28502 0.74858 0.27491 0.0
C2252 C 0.25541 0.79371 0.25543 0.0
C2253 C 0.23853 0.74724 0.35883 0.0
C2254 C 0.24069 0.73086 0.39774 0.0
C2255 C 0.20275 0.72614 0.37217 0.0
C2256 C 0.21391 0.73866 0.35473 0.0
C2257 C 0.21606 0.7224 0.39378 0.0
C2258 C 0.25186 0.743 0.3802 0.0
C2259 C 0.25051 0.76175 0.3419 0.0
C2260 C 0.28228 0.87284 0.37663 0.0
C2261 C 0.25951 0.8717 0.36444 0.0
H2262 H 0.32562 0.86939 0.39743 0.0
C2263 C 0.30056 0.83113 0.29382 0.0
C2264 C 0.33075 0.78425 0.31385 0.0
C2265 C 0.34449 0.82299 0.2075 0.0
C2266 C 0.33871 0.83476 0.16634 0.0
C2267 C 0.3618 0.80528 0.17341 0.0
C2268 C 0.35797 0.80715 0.19843 0.0
C2269 C 0.35204 0.81892 0.1573 0.0
C2270 C 0.33521 0.83695 0.1914 0.0
C2271 C 0.33869 0.82443 0.23312 0.0
H2272 H 0.18376 0.71952 0.36906 0.0
H2273 H 0.20334 0.74179 0.33826 0.0
H2274 H 0.20724 0.7128 0.40728 0.0
H2275 H 0.27089 0.74972 0.3837 0.0
H2276 H 0.37224 0.79318 0.16648 0.0
H2277 H 0.36533 0.79608 0.21049 0.0
H2278 H 0.35516 0.81741 0.13794 0.0
H2279 H 0.32483 0.84923 0.19823 0.0
C2280 C 0.59729 0.08448 0.49833 0.0
C2281 C 0.62846 0.10926 0.5294 0.0
C2282 C 0.61016 0.08886 0.52237 0.0
C2283 C 0.63372 0.1252 0.51224 0.0
C2284 C 0.60306 0.10034 0.48097 0.0
C2285 C 0.6211 0.12074 0.48813 0.0
N2286 N 0.57969 0.06461 0.49171 0.0
C2287 C 0.56901 0.05863 0.46746 0.0
C2288 C 0.59088 0.09502 0.45665 0.0
C2289 C 0.57404 0.07394 0.44981 0.0
Gd2290 Gd 0.50916 0.03596 0.54913 0.0
Gd2291 Gd 0.57469 0.0403 0.52335 0.0
N2292 N 0.60449 0.07349 0.53905 0.0
C2293 C 0.64082 0.11321 0.55366 0.0
C2294 C 0.61697 0.07681 0.56235 0.0
C2295 C 0.63511 0.09686 0.57015 0.0
H2296 H 0.6134 0.06371 0.57462 0.0
H2297 H 0.64486 0.09954 0.58876 0.0
H2298 H 0.47071 0.01204 0.49894 0.0
H2299 H 0.55713 0.04179 0.46105 0.0
H2300 H 0.4403 0.97518 0.48476 0.0
H2301 H 0.6549 0.12873 0.55976 0.0
H2302 H 0.64763 0.14101 0.51739 0.0
H2303 H 0.5284 0.03433 0.61164 0.0
H2304 H 0.59487 0.10673 0.44281 0.0
H2305 H 0.56525 0.0692 0.43075 0.0
H2306 H 0.44339 0.93131 0.5542 0.0
H2307 H 0.62561 0.1331 0.47502 0.0
H2308 H 0.49601 0.96687 0.62841 0.0
H2309 H 0.52303 1.00587 0.64106 0.0
N2310 N 0.50735 0.01081 0.58037 0.0
C2311 C 0.49132 0.98978 0.57338 0.0
C2312 C 0.51789 0.01694 0.60471 0.0
C2313 C 0.49902 0.979 0.61478 0.0
C2314 C 0.51437 1.00096 0.62196 0.0
C2315 C 0.48686 0.97337 0.59048 0.0
H2316 H 0.46626 0.93948 0.59615 0.0
N2317 N 0.48229 1.00098 0.53315 0.0
C2318 C 0.47817 0.985 0.54948 0.0
C2319 C 0.44721 0.96032 0.51872 0.0
C2320 C 0.46064 0.964 0.54244 0.0
C2321 C 0.46846 0.99816 0.51062 0.0
C2322 C 0.45101 0.97757 0.50283 0.0
O2323 O 0.5665 0.07702 0.53719 0.0
O2324 O 0.52963 0.07446 0.55199 0.0
O2325 O 0.47893 0.04971 0.53437 0.0
O2326 O 0.48352 0.04333 0.57291 0.0
O2327 O 0.56139 0.03026 0.55812 0.0
O2328 O 0.54005 0.05202 0.5782 0.0
O2329 O 0.51687 1.00167 0.52774 0.0
O2330 O 0.55734 1.00512 0.53579 0.0
O2331 O 0.60846 0.02928 0.53271 0.0
O2332 O 0.58807 0.02033 0.49501 0.0
O2333 O 0.52061 0.04909 0.5144 0.0
O2334 O 0.54279 0.02651 0.49543 0.0
C2335 C 0.54986 0.0869 0.54658 0.0
C2336 C 0.56017 0.04587 0.5766 0.0
C2337 C 0.46245 0.07272 0.56395 0.0
C2338 C 0.43329 0.09701 0.55823 0.0
C2339 C 0.46202 0.10544 0.59576 0.0
C2340 C 0.47192 0.08669 0.58707 0.0
C2341 C 0.4428 0.11059 0.58144 0.0
C2342 C 0.44305 0.07798 0.54955 0.0
C2343 C 0.47098 0.05132 0.55585 0.0
C2344 C 0.45675 0.94755 0.55932 0.0
C2345 C 0.46983 0.95219 0.5832 0.0
H2346 H 0.43356 0.94443 0.5127 0.0
C2347 C 0.53569 0.99188 0.52877 0.0
C2348 C 0.52364 0.03476 0.49553 0.0
C2349 C 0.62439 1.0065 0.49987 0.0
C2350 C 0.65954 0.9897 0.50497 0.0
C2351 C 0.63786 0.98754 0.46363 0.0
C2352 C 0.62195 0.99938 0.47391 0.0
C2353 C 0.65653 0.98274 0.47898 0.0
C2354 C 0.64324 1.00145 0.51552 0.0
C2355 C 0.60685 0.01891 0.50976 0.0
H2356 H 0.46908 0.11583 0.61377 0.0
H2357 H 0.48665 0.08287 0.5987 0.0
H2358 H 0.43509 0.12501 0.5886 0.0
H2359 H 0.43533 0.06709 0.53191 0.0
H2360 H 0.63572 0.98205 0.44365 0.0
H2361 H 0.60768 1.00295 0.46139 0.0
H2362 H 0.6686 0.97333 0.47051 0.0
H2363 H 0.64535 1.00675 0.53556 0.0
C2364 C 0.23699 0.31451 0.73517 0.0
C2365 C 0.21322 0.2781 0.71139 0.0
C2366 C 0.22857 0.29019 0.73286 0.0
C2367 C 0.20671 0.29075 0.69218 0.0
C2368 C 0.23047 0.32728 0.71596 0.0
C2369 C 0.21533 0.31526 0.69445 0.0
N2370 N 0.25213 0.32555 0.75589 0.0
C2371 C 0.26086 0.34938 0.75897 0.0
C2372 C 0.23961 0.35171 0.71884 0.0
C2373 C 0.25478 0.36281 0.7405 0.0
Gd2374 Gd 0.32365 0.27778 0.78512 0.0
Gd2375 Gd 0.26304 0.30136 0.78472 0.0
N2376 N 0.23599 0.27831 0.75134 0.0
C2377 C 0.20495 0.25363 0.70983 0.0
C2378 C 0.22706 0.25469 0.75045 0.0
C2379 C 0.21167 0.24194 0.7296 0.0
H2380 H 0.23137 0.24561 0.76585 0.0
H2381 H 0.2049 0.22312 0.72887 0.0
H2382 H 0.3554 0.33342 0.80422 0.0
H2383 H 0.27247 0.35807 0.77573 0.0
H2384 H 0.38228 0.35563 0.84106 0.0
H2385 H 0.19312 0.24369 0.69365 0.0
H2386 H 0.19505 0.28173 0.67547 0.0
H2387 H 0.31359 0.221 0.79402 0.0
H2388 H 0.23506 0.36215 0.70448 0.0
H2389 H 0.26185 0.38171 0.74293 0.0
H2390 H 0.39213 0.29665 0.89398 0.0
H2391 H 0.21021 0.32476 0.67943 0.0
H2392 H 0.35132 0.21648 0.86496 0.0
H2393 H 0.32415 0.19719 0.82667 0.0
N2394 N 0.33438 0.25338 0.81379 0.0
C2395 C 0.34974 0.26426 0.83441 0.0
C2396 C 0.32539 0.22959 0.81071 0.0
C2397 C 0.34683 0.227 0.85066 0.0
C2398 C 0.33144 0.21605 0.8291 0.0
C2399 C 0.35622 0.25139 0.85353 0.0
H2400 H 0.37661 0.25368 0.88994 0.0
N2401 N 0.35087 0.30059 0.81847 0.0
C2402 C 0.35836 0.28856 0.83677 0.0
C2403 C 0.38226 0.32497 0.85985 0.0
C2404 C 0.37387 0.30051 0.8582 0.0
C2405 C 0.35985 0.32422 0.81947 0.0
C2406 C 0.37545 0.33681 0.84024 0.0
O2407 O 0.27617 0.29387 0.74676 0.0
O2408 O 0.29381 0.26327 0.75369 0.0
O2409 O 0.35283 0.28917 0.76379 0.0
O2410 O 0.34075 0.25215 0.76709 0.0
O2411 O 0.26464 0.26697 0.80059 0.0
O2412 O 0.28995 0.24948 0.77881 0.0
O2413 O 0.31091 0.28562 0.82324 0.0
O2414 O 0.29293 0.31586 0.81596 0.0
O2415 O 0.23384 0.29009 0.80605 0.0
O2416 O 0.24608 0.32708 0.80282 0.0
O2417 O 0.32217 0.3122 0.76938 0.0
O2418 O 0.29667 0.32979 0.79079 0.0
C2419 C 0.28506 0.27596 0.7382 0.0
C2420 C 0.27239 0.24817 0.79233 0.0
C2421 C 0.37989 0.26353 0.75698 0.0
C2422 C 0.41524 0.26685 0.7357 0.0
C2423 C 0.4088 0.23983 0.76647 0.0
C2424 C 0.38776 0.24671 0.77048 0.0
C2425 C 0.42234 0.24965 0.7491 0.0
C2426 C 0.39396 0.27387 0.73973 0.0
C2427 C 0.35569 0.26769 0.75803 0.0
C2428 C 0.38036 0.28774 0.8773 0.0
C2429 C 0.37154 0.26326 0.87499 0.0
H2430 H 0.39422 0.3348 0.87599 0.0
C2431 C 0.30156 0.30327 0.83162 0.0
C2432 C 0.31443 0.33104 0.77753 0.0
C2433 C 0.20699 0.31591 0.81317 0.0
C2434 C 0.17154 0.31241 0.83434 0.0
C2435 C 0.17799 0.33953 0.80366 0.0
C2436 C 0.19909 0.33274 0.7997 0.0
C2437 C 0.16438 0.32955 0.82092 0.0
C2438 C 0.19295 0.30557 0.83044 0.0
C2439 C 0.23112 0.3116 0.81192 0.0
H2440 H 0.41444 0.22649 0.77658 0.0
H2441 H 0.37731 0.2383 0.78362 0.0
H2442 H 0.43844 0.24376 0.74602 0.0
H2443 H 0.38793 0.28653 0.72882 0.0
H2444 H 0.17232 0.35284 0.79356 0.0
H2445 H 0.20954 0.34119 0.78659 0.0
H2446 H 0.14818 0.33529 0.8239 0.0
H2447 H 0.19896 0.29286 0.84128 0.0
C2448 C 0.01649 0.09811 0.58164 0.0
C2449 C 0.05141 0.12504 0.60475 0.0
C2450 C 0.04045 0.10791 0.58419 0.0
C2451 C 0.03802 0.13125 0.62343 0.0
C2452 C 1.00269 0.10525 0.59962 0.0
C2453 C 0.0137 0.12135 0.62088 0.0
N2454 N 1.00646 0.08273 0.56079 0.0
C2455 C 0.98234 0.07583 0.5555 0.0
C2456 C 0.97816 0.09659 0.59528 0.0
C2457 C 0.96791 0.0822 0.57287 0.0
Gd2458 Gd 0.05318 1.00634 0.53376 0.0
Gd2459 Gd 0.03288 0.07064 0.53456 0.0
N2460 N 0.05294 0.10118 0.56607 0.0
C2461 C 0.07542 0.13555 0.60571 0.0
C2462 C 0.07588 0.11242 0.56601 0.0
C2463 C 0.08761 0.12947 0.58603 0.0
H2464 H 0.08507 0.10796 0.55058 0.0
H2465 H 0.10599 0.13793 0.58624 0.0
H2466 H 1.00316 0.96433 0.51376 0.0
H2467 H 0.97418 0.065 0.53803 0.0
H2468 H 0.98479 0.9379 0.47503 0.0
H2469 H 0.08453 0.14873 0.62123 0.0
H2470 H 0.04619 0.14407 0.63961 0.0
H2471 H 0.11191 0.02003 0.53048 0.0
H2472 H 0.96693 0.10159 0.60865 0.0
H2473 H 0.94888 0.07606 0.56893 0.0
H2474 H 0.04654 0.94396 0.42284 0.0
H2475 H 1.00345 0.12676 0.63509 0.0
H2476 H 0.12298 0.99097 0.45796 0.0
H2477 H 0.13862 0.0151 0.49906 0.0
N2478 N 0.08109 0.99989 0.507 0.0
C2479 C 0.07243 0.98541 0.48512 0.0
C2480 C 0.1047 1.0098 0.51249 0.0
C2481 C 0.1111 0.99316 0.47165 0.0
C2482 C 0.11999 1.00683 0.49481 0.0
C2483 C 0.08712 0.98196 0.46667 0.0
H2484 H 0.08844 0.96465 0.42953 0.0
N2485 N 0.0353 0.97715 0.49971 0.0
C2486 C 0.04881 0.97375 0.48133 0.0
C2487 C 0.01574 0.94587 0.45649 0.0
C2488 C 0.03928 0.95833 0.45902 0.0
C2489 C 1.01297 0.96366 0.49811 0.0
C2490 C 1.00269 0.94819 0.47635 0.0
O2491 O 0.05526 0.06543 0.57 0.0
O2492 O 0.04215 0.02568 0.56761 0.0
O2493 O 0.04332 0.9731 0.5487 0.0
O2494 O 0.07872 0.99471 0.55912 0.0
O2495 O 0.06625 0.06427 0.51943 0.0
O2496 O 0.08182 0.03992 0.54405 0.0
O2497 O 0.04773 0.02113 0.49666 0.0
O2498 O 0.01775 0.03958 0.50436 0.0
O2499 O 0.04635 0.09903 0.51318 0.0
O2500 O 1.00889 0.08494 0.51039 0.0
O2501 O 0.01414 1.00378 0.53528 0.0
O2502 O 1.00371 0.04062 0.54176 0.0
C2503 C 0.05367 0.04592 0.58042 0.0
C2504 C 0.08438 0.05836 0.53184 0.0
C2505 C 0.07272 0.95399 0.56564 0.0
C2506 C 0.07095 0.91871 0.58662 0.0
C2507 C 0.10308 0.93115 0.56264 0.0
C2508 C 0.09356 0.95031 0.55665 0.0
C2509 C 0.09201 0.91559 0.57768 0.0
C2510 C 0.06123 0.9379 0.58037 0.0
C2511 C 0.06383 0.97552 0.56199 0.0
C2512 C 0.05362 0.95552 0.44022 0.0
C2513 C 0.07749 0.9673 0.44404 0.0
H2514 H 1.00775 0.93385 0.43966 0.0
C2515 C 0.03005 0.03054 0.48855 0.0
C2516 C 0.999 0.01727 0.53994 0.0
C2517 C 0.0205 0.12487 0.50402 0.0
C2518 C 0.02291 0.16134 0.4851 0.0
C2519 C 0.99883 0.1542 0.51839 0.0
C2520 C 1.00536 0.13261 0.52002 0.0
C2521 C 1.00747 0.16845 0.50102 0.0
C2522 C 0.02941 0.13944 0.48659 0.0
C2523 C 0.02533 0.10089 0.50398 0.0
H2524 H 0.11932 0.92855 0.55593 0.0
H2525 H 0.1027 0.96247 0.54543 0.0
H2526 H 0.09993 0.90107 0.58243 0.0
H2527 H 0.0453 0.9408 0.58771 0.0
H2528 H 0.98686 0.15984 0.53052 0.0
H2529 H 0.99817 0.12177 0.53348 0.0
H2530 H 1.00208 0.18511 0.49995 0.0
H2531 H 0.04098 0.13362 0.47402 0.0
C2532 C 0.24536 0.73481 0.82496 0.0
C2533 C 0.21975 0.70377 0.79424 0.0
C2534 C 0.24012 0.72218 0.80074 0.0
C2535 C 0.20446 0.69838 0.81201 0.0
C2536 C 0.22999 0.72908 0.8428 0.0
C2537 C 0.20951 0.71103 0.83613 0.0
N2538 N 0.26568 0.75194 0.83131 0.0
C2539 C 0.2721 0.76278 0.85549 0.0
C2540 C 0.23587 0.74125 0.8671 0.0
C2541 C 0.25708 0.75801 0.87349 0.0
Gd2542 Gd 0.29482 0.82082 0.77096 0.0
Gd2543 Gd 0.28932 0.75573 0.79895 0.0
N2544 N 0.25472 0.72808 0.78341 0.0
C2545 C 0.21523 0.69139 0.76995 0.0
C2546 C 0.25104 0.71541 0.76014 0.0
C2547 C 0.23102 0.69716 0.75288 0.0
H2548 H 0.26386 0.71892 0.7475 0.0
H2549 H 0.228 0.68729 0.73429 0.0
H2550 H 0.31716 0.85924 0.82211 0.0
H2551 H 0.28904 0.77458 0.86159 0.0
H2552 H 0.35303 0.89075 0.83692 0.0
H2553 H 0.19975 0.67717 0.76428 0.0
H2554 H 0.18868 0.68438 0.80729 0.0
H2555 H 0.29808 0.80129 0.70945 0.0
H2556 H 0.22449 0.73735 0.88128 0.0
H2557 H 0.26216 0.76687 0.8925 0.0
H2558 H 0.39572 0.89358 0.76627 0.0
H2559 H 0.19758 0.70647 0.84965 0.0
H2560 H 0.36262 0.84042 0.69156 0.0
H2561 H 0.32577 0.80985 0.67943 0.0
N2562 N 0.31983 0.82514 0.73989 0.0
C2563 C 0.3396 0.84284 0.74669 0.0
C2564 C 0.31452 0.81381 0.71585 0.0
C2565 C 0.35077 0.83634 0.70528 0.0
C2566 C 0.33004 0.81898 0.69839 0.0
C2567 C 0.35565 0.8487 0.72953 0.0
H2568 H 0.38835 0.8716 0.72387 0.0
N2569 N 0.32821 0.84983 0.78728 0.0
C2570 C 0.34375 0.8556 0.77081 0.0
C2571 C 0.36757 0.8864 0.80229 0.0
C2572 C 0.36403 0.874 0.77806 0.0
C2573 C 0.33087 0.86258 0.81037 0.0
C2574 C 0.35082 0.88078 0.81844 0.0
O2575 O 0.25341 0.76399 0.78282 0.0
O2576 O 0.2566 0.8021 0.77172 0.0
O2577 O 0.28266 0.85341 0.78307 0.0
O2578 O 0.28082 0.83955 0.74331 0.0
O2579 O 0.30103 0.76837 0.76442 0.0
O2580 O 0.27966 0.78916 0.74299 0.0
O2581 O 0.33089 0.811 0.78451 0.0
O2582 O 0.32783 0.77687 0.80455 0.0
O2583 O 0.30444 0.72658 0.78335 0.0
O2584 O 0.297 0.72972 0.8217 0.0
O2585 O 0.28379 0.81 0.8068 0.0
O2586 O 0.30455 0.78732 0.82698 0.0
C2587 C 0.24388 0.78146 0.77527 0.0
C2588 C 0.28608 0.76933 0.74524 0.0
C2589 C 0.26776 0.8759 0.75114 0.0
C2590 C 0.2447 0.90633 0.75591 0.0
C2591 C 0.26102 0.89872 0.71729 0.0
C2592 C 0.27082 0.88118 0.72691 0.0
C2593 C 0.24794 0.91114 0.7316 0.0
C2594 C 0.25495 0.88885 0.7659 0.0
C2595 C 0.27701 0.85598 0.75973 0.0
C2596 C 0.38006 0.8795 0.76101 0.0
C2597 C 0.37588 0.86694 0.73685 0.0
H2598 H 0.38294 0.90063 0.80854 0.0
C2599 C 0.34054 0.79563 0.79656 0.0
C2600 C 0.29891 0.80768 0.82537 0.0
C2601 C 0.32689 0.70942 0.81324 0.0
C2602 C 0.3488 0.67795 0.81095 0.0
C2603 C 0.35768 0.70847 0.84698 0.0
C2604 C 0.34045 0.71935 0.83647 0.0
C2605 C 0.36168 0.68775 0.83443 0.0
C2606 C 0.33146 0.68888 0.80027 0.0
C2607 C 0.30567 0.71798 0.80453 0.0
H2608 H 0.26338 0.90256 0.69858 0.0
H2609 H 0.28068 0.87157 0.71524 0.0
H2610 H 0.24031 0.92462 0.72365 0.0
H2611 H 0.25225 0.88481 0.7845 0.0
H2612 H 0.36763 0.71587 0.86513 0.0
H2613 H 0.33719 0.73504 0.84697 0.0
H2614 H 0.37488 0.67932 0.84304 0.0
H2615 H 0.32088 0.68084 0.78256 0.0
C2616 C 0.59374 1.00403 0.0909 0.0
C2617 C 0.61702 0.03691 0.12023 0.0
C2618 C 0.59671 0.0268 0.10266 0.0
C2619 C 0.63425 0.02374 0.12539 0.0
C2620 C 0.61065 0.99042 0.09649 0.0
C2621 C 0.63103 1.00048 0.11361 0.0
N2622 N 0.57387 0.99484 0.07458 0.0
C2623 C 0.56939 0.97182 0.06372 0.0
C2624 C 0.60636 0.96695 0.08505 0.0
C2625 C 0.58551 0.95755 0.06871 0.0
Gd2626 Gd 0.54069 0.06047 1.00397 0.0
Gd2627 Gd 0.54704 0.01914 0.06628 0.0
N2628 N 0.57947 0.03882 0.09743 0.0
C2629 C 0.61926 0.05979 0.13244 0.0
C2630 C 0.58155 0.06108 0.10996 0.0
C2631 C 0.60134 0.07185 0.12739 0.0
H2632 H 0.56847 0.07123 0.10685 0.0
H2633 H 0.60273 0.08953 0.13691 0.0
H2634 H 0.52159 1.00922 0.96116 0.0
H2635 H 0.55305 0.96427 0.05158 0.0
H2636 H 0.48653 0.98952 0.93275 0.0
H2637 H 0.63456 0.06817 0.14601 0.0
H2638 H 0.64994 0.03124 0.13877 0.0
H2639 H 0.53498 0.1157 0.01595 0.0
H2640 H 0.61881 0.95586 0.08899 0.0
H2641 H 0.58177 0.93929 0.06007 0.0
H2642 H 0.43699 0.04577 0.93235 0.0
H2643 H 0.64425 0.99035 0.11808 0.0
H2644 H 0.46798 0.12232 0.97977 0.0
H2645 H 0.50566 0.14005 0.00726 0.0
N2646 N 0.51373 0.08435 0.99472 0.0
C2647 C 0.49359 0.07453 0.97905 0.0
C2648 C 0.51832 0.10768 1.0045 0.0
C2649 C 0.48067 0.11151 0.98387 0.0
C2650 C 0.50188 0.12157 0.99938 0.0
C2651 C 0.47638 0.08776 0.97329 0.0
H2652 H 0.44233 0.08693 0.95213 0.0
N2653 N 0.5087 0.04024 0.97256 0.0
C2654 C 0.49086 0.05163 0.96773 0.0
C2655 C 0.46866 0.01817 0.93836 0.0
C2656 C 0.47044 0.04099 0.95053 0.0
C2657 C 0.50743 0.01837 0.95943 0.0
C2658 C 0.48738 1.00695 0.94262 0.0
O2659 O 0.56558 0.03853 0.03981 0.0
O2660 O 0.57223 0.07495 0.03306 0.0
O2661 O 0.56901 0.05861 0.98158 0.0
O2662 O 0.55881 0.0921 0.99163 0.0
O2663 O 0.53836 0.05658 0.07575 0.0
O2664 O 0.53702 0.07994 0.04246 0.0
O2665 O 0.52273 0.04086 0.03053 0.0
O2666 O 0.51515 1.00473 0.03765 0.0
O2667 O 0.51943 0.0209 0.0897 0.0
O2668 O 0.52912 0.98736 0.07848 0.0
O2669 O 0.54938 0.02317 0.99455 0.0
O2670 O 0.54952 0.9995 0.0276 0.0
C2671 C 0.57869 0.05936 0.04583 0.0
C2672 C 0.53608 0.07666 0.06647 0.0
C2673 C 0.57287 0.08654 0.9531 0.0
C2674 C 0.58975 0.08151 0.91488 0.0
C2675 C 0.56482 0.10981 0.92001 0.0
C2676 C 0.56174 0.10375 0.94376 0.0
C2677 C 0.57891 0.09877 0.90556 0.0
C2678 C 0.58679 0.07546 0.9385 0.0
C2679 C 0.57153 0.08091 0.97848 0.0
C2680 C 0.45277 0.05369 0.94544 0.0
C2681 C 0.45579 0.0771 0.95671 0.0
H2682 H 0.45326 1.00936 0.92512 0.0
C2683 C 0.50911 0.02028 0.02461 0.0
C2684 C 0.55083 1.0029 1.00373 0.0
C2685 C 0.51586 0.99234 0.1175 0.0
C2686 C 0.49914 0.99601 0.15599 0.0
C2687 C 0.52638 0.97007 0.15065 0.0
C2688 C 0.52858 0.97625 0.1268 0.0
C2689 C 0.51171 0.97999 0.16533 0.0
C2690 C 0.50105 1.00202 0.13214 0.0
C2691 C 0.51678 0.99846 0.09226 0.0
H2692 H 0.55649 0.12321 0.91294 0.0
H2693 H 0.55096 0.11274 0.95482 0.0
H2694 H 0.58153 0.10375 0.88728 0.0
H2695 H 0.59577 0.06245 0.94567 0.0
H2696 H 0.53599 0.95756 0.15772 0.0
H2697 H 0.54004 0.96831 0.11567 0.0
H2698 H 0.50998 0.97508 0.1838 0.0
H2699 H 0.49095 0.0142 0.12501 0.0
C2700 C 0.36041 0.33677 0.33096 0.0
C2701 C 0.38569 0.35341 0.30169 0.0
C2702 C 0.36351 0.34128 0.3067 0.0
C2703 C 0.40456 0.36104 0.32121 0.0
C2704 C 0.37945 0.34436 0.35054 0.0
C2705 C 0.40145 0.35655 0.34553 0.0
N2706 N 0.33867 0.32567 0.33557 0.0
C2707 C 0.33489 0.32167 0.35928 0.0
C2708 C 0.37572 0.33996 0.37475 0.0
C2709 C 0.35338 0.32851 0.3791 0.0
Gd2710 Gd 0.27878 0.25824 0.26859 0.0
Gd2711 Gd 0.30838 0.32025 0.3018 0.0
N2712 N 0.34478 0.33427 0.28816 0.0
C2713 C 0.38814 0.35805 0.27728 0.0
C2714 C 0.34691 0.33961 0.26459 0.0
C2715 C 0.36865 0.35112 0.25866 0.0
H2716 H 0.33182 0.33602 0.25051 0.0
H2717 H 0.37017 0.35524 0.23989 0.0
H2718 H 0.25889 0.23708 0.31895 0.0
H2719 H 0.31742 0.31444 0.36338 0.0
H2720 H 0.22149 0.21743 0.33146 0.0
H2721 H 0.40485 0.36741 0.27273 0.0
H2722 H 0.4216 0.37064 0.31772 0.0
H2723 H 0.26697 0.26422 0.20744 0.0
H2724 H 0.38987 0.34566 0.39027 0.0
H2725 H 0.3502 0.32552 0.39786 0.0
H2726 H 0.16597 0.20608 0.25691 0.0
H2727 H 0.41615 0.36275 0.36042 0.0
H2728 H 0.1939 0.23334 0.18349 0.0
H2729 H 0.23293 0.25367 0.17434 0.0
N2730 N 0.24721 0.25218 0.23602 0.0
C2731 C 0.22595 0.24058 0.24135 0.0
C2732 C 0.24988 0.25667 0.21223 0.0
C2733 C 0.20868 0.23862 0.1984 0.0
C2734 C 0.23065 0.2502 0.19318 0.0
C2735 C 0.20613 0.23352 0.22264 0.0
H2736 H 0.16919 0.21554 0.2143 0.0
N2737 N 0.24354 0.24185 0.28318 0.0
C2738 C 0.2241 0.23518 0.26552 0.0
C2739 C 0.20138 0.21688 0.29559 0.0
C2740 C 0.20243 0.22266 0.27136 0.0
C2741 C 0.24294 0.2348 0.30624 0.0
C2742 C 0.22181 0.22279 0.31303 0.0
O2743 O 0.33435 0.29535 0.29569 0.0
O2744 O 0.31695 0.27015 0.26009 0.0
O2745 O 0.28336 0.2249 0.27919 0.0
O2746 O 0.27615 0.2284 0.23988 0.0
O2747 O 0.29083 0.31773 0.26137 0.0
O2748 O 0.29591 0.2822 0.24308 0.0
O2749 O 0.25151 0.28142 0.27605 0.0
O2750 O 0.2695 0.3107 0.30854 0.0
O2751 O 0.30548 0.35422 0.29109 0.0
O2752 O 0.31252 0.35026 0.33032 0.0
O2753 O 0.29689 0.26205 0.30907 0.0
O2754 O 0.28953 0.29672 0.32664 0.0
C2755 C 0.33616 0.28119 0.2755 0.0
C2756 C 0.29336 0.30381 0.24144 0.0
C2757 C 0.29797 0.2001 0.25093 0.0
C2758 C 0.31798 0.17051 0.26468 0.0
C2759 C 0.32426 0.18445 0.2251 0.0
C2760 C 0.30877 0.19962 0.22901 0.0
C2761 C 0.32901 0.16992 0.24301 0.0
C2762 C 0.30252 0.18537 0.26843 0.0
C2763 C 0.28108 0.21477 0.25613 0.0
C2764 C 0.18269 0.21581 0.25277 0.0
C2765 C 0.18453 0.2212 0.2285 0.0
H2766 H 0.1851 0.2072 0.30077 0.0
C2767 C 0.25014 0.29794 0.2944 0.0
C2768 C 0.29269 0.27541 0.32856 0.0
C2769 C 0.29236 0.37981 0.3203 0.0
C2770 C 0.2763 0.41296 0.30995 0.0
C2771 C 0.26883 0.39717 0.34836 0.0
C2772 C 0.28198 0.38018 0.34251 0.0
C2773 C 0.26613 0.41375 0.33219 0.0
C2774 C 0.28919 0.39605 0.30405 0.0
C2775 C 0.30821 0.36424 0.31426 0.0
H2776 H 0.33247 0.18385 0.20817 0.0
H2777 H 0.30518 0.21072 0.21498 0.0
H2778 H 0.34081 0.15803 0.2398 0.0
H2779 H 0.2939 0.18535 0.2852 0.0
H2780 H 0.26098 0.39765 0.36551 0.0
H2781 H 0.28431 0.36773 0.35546 0.0
H2782 H 0.25611 0.42703 0.33687 0.0
H2783 H 0.29735 0.39601 0.28699 0.0
C2784 C 0.51529 0.5952 0.08939 0.0
C2785 C 0.55017 0.61766 0.11714 0.0
C2786 C 0.53983 0.60325 0.09444 0.0
C2787 C 0.53562 0.62421 0.13445 0.0
C2788 C 0.50071 0.60149 0.10693 0.0
C2789 C 0.51099 0.61614 0.12937 0.0
N2790 N 0.50573 0.58085 0.0676 0.0
C2791 C 0.48186 0.57242 0.06205 0.0
C2792 C 0.47621 0.59271 0.10149 0.0
C2793 C 0.46677 0.57812 0.07897 0.0
Gd2794 Gd 0.55446 0.51086 0.03534 0.0
Gd2795 Gd 0.53274 0.57342 0.0406 0.0
N2796 N 0.55361 0.59583 0.07781 0.0
C2797 C 0.57488 0.62464 0.12203 0.0
C2798 C 0.57769 0.60273 0.08239 0.0
C2799 C 0.58867 0.61712 0.10459 0.0
H2800 H 0.58852 0.5969 0.06926 0.0
H2801 H 0.60779 0.62236 0.10827 0.0
H2802 H 0.49997 0.47767 0.01751 0.0
H2803 H 0.47435 0.56173 0.04436 0.0
H2804 H 0.47712 0.45133 0.98026 0.0
H2805 H 0.58348 0.63566 0.13929 0.0
H2806 H 0.54326 0.6353 0.15197 0.0
H2807 H 0.61185 0.51257 0.03143 0.0
H2808 H 0.46444 0.59713 0.11452 0.0
H2809 H 0.44784 0.57142 0.07454 0.0
H2810 H 0.53602 0.44174 0.92675 0.0
H2811 H 0.50005 0.62119 0.14304 0.0
H2812 H 0.61707 0.47631 0.95982 0.0
H2813 H 0.63632 0.50001 1.0002 0.0
N2814 N 0.57923 0.49706 0.00847 0.0
C2815 C 0.56836 0.48313 0.98698 0.0
C2816 C 0.60331 0.50251 0.0137 0.0
C2817 C 0.60627 0.4819 0.97338 0.0
C2818 C 0.6172 0.49528 0.99615 0.0
C2819 C 0.58154 0.47531 0.96872 0.0
H2820 H 0.57945 0.45485 0.93233 0.0
N2821 N 0.53204 0.48342 1.00206 0.0
C2822 C 0.54397 0.4759 0.98374 0.0
C2823 C 0.50751 0.45214 0.96071 0.0
C2824 C 0.532 0.46045 0.96229 0.0
C2825 C 0.50861 0.47394 1.00156 0.0
C2826 C 0.49585 0.45852 0.98072 0.0
O2827 O 0.54051 0.55753 0.0765 0.0
O2828 O 0.57035 0.5401 0.06671 0.0
O2829 O 0.54075 0.48093 0.05472 0.0
O2830 O 0.57838 0.49483 0.05757 0.0
O2831 O 0.56852 0.57443 0.02805 0.0
O2832 O 0.585 0.54187 0.03482 0.0
O2833 O 0.54461 0.5239 0.99796 0.0
O2834 O 0.51839 0.54852 1.00467 0.0
O2835 O 0.54631 0.60189 0.01933 0.0
O2836 O 0.51326 0.60062 0.03411 0.0
O2837 O 0.52029 0.51498 0.05073 0.0
O2838 O 0.50372 0.5407 0.02891 0.0
C2839 C 0.55795 0.54738 0.08338 0.0
C2840 C 0.58616 0.56334 0.02852 0.0
C2841 C 0.56659 0.4548 0.0641 0.0
C2842 C 0.56437 0.41892 0.08424 0.0
C2843 C 0.58988 0.42615 0.05214 0.0
C2844 C 0.58277 0.44729 0.04933 0.0
C2845 C 0.5809 0.41215 0.06956 0.0
C2846 C 0.55716 0.44033 0.08144 0.0
C2847 C 0.5618 0.47881 0.06371 0.0
C2848 C 0.54492 0.45337 0.94353 0.0
C2849 C 0.56965 0.46082 0.94672 0.0
H2850 H 0.49763 0.44015 0.94461 0.0
C2851 C 0.52902 0.53595 0.98964 0.0
C2852 C 0.50173 0.52167 0.04011 0.0
C2853 C 0.51793 0.62045 0.99868 0.0
C2854 C 0.51732 0.65235 0.97282 0.0
C2855 C 0.48435 0.61824 0.96704 0.0
C2856 C 0.49573 0.60844 0.98586 0.0
C2857 C 0.49492 0.64008 0.96072 0.0
C2858 C 0.52894 0.64232 0.99177 0.0
C2859 C 0.5282 0.6117 0.02104 0.0
H2860 H 0.60268 0.42075 0.041 0.0
H2861 H 0.59042 0.45805 0.03605 0.0
H2862 H 0.5869 0.39593 0.07163 0.0
H2863 H 0.54493 0.44605 0.09323 0.0
H2864 H 0.46706 0.60904 0.95757 0.0
H2865 H 0.48684 0.59177 0.99089 0.0
H2866 H 0.48556 0.64745 0.94626 0.0
H2867 H 0.54593 0.65191 1.00174 0.0
C2868 C 0.74546 0.23637 0.3247 0.0
C2869 C 0.71872 0.20641 0.29378 0.0
C2870 C 0.73954 0.22429 0.30027 0.0
C2871 C 0.7035 0.20129 0.31166 0.0
C2872 C 0.73021 0.23081 0.3427 0.0
C2873 C 0.70916 0.21352 0.33596 0.0
N2874 N 0.76639 0.25263 0.33113 0.0
C2875 C 0.77355 0.2626 0.35552 0.0
C2876 C 0.73684 0.24227 0.36724 0.0
C2877 C 0.75867 0.25804 0.3737 0.0
Gd2878 Gd 0.7966 0.3226 0.27125 0.0
Gd2879 Gd 0.78936 0.25672 0.29818 0.0
N2880 N 0.75414 0.22989 0.28286 0.0
C2881 C 0.71381 0.19414 0.26943 0.0
C2882 C 0.75007 0.21727 0.25956 0.0
C2883 C 0.72965 0.19949 0.25231 0.0
H2884 H 0.7629 0.2204 0.24687 0.0
H2885 H 0.72636 0.18965 0.23368 0.0
H2886 H 0.82082 0.35923 0.32276 0.0
H2887 H 0.79093 0.27356 0.36163 0.0
H2888 H 0.85805 0.38883 0.33802 0.0
H2889 H 0.69803 0.18028 0.26378 0.0
H2890 H 0.68736 0.18774 0.30693 0.0
H2891 H 0.79809 0.30457 0.20858 0.0
H2892 H 0.72558 0.23849 0.38154 0.0
H2893 H 0.76433 0.26628 0.39287 0.0
H2894 H 0.90064 0.39003 0.26727 0.0
H2895 H 0.69731 0.20911 0.3496 0.0
H2896 H 0.86463 0.33981 0.19149 0.0
H2897 H 0.82615 0.31181 0.17875 0.0
N2898 N 0.82119 0.32632 0.23965 0.0
C2899 C 0.84198 0.34264 0.24683 0.0
C2900 C 0.81518 0.31586 0.2153 0.0
C2901 C 0.8526 0.33623 0.20516 0.0
C2902 C 0.83094 0.32033 0.19791 0.0
C2903 C 0.85823 0.34788 0.2297 0.0
H2904 H 0.89201 0.36902 0.22439 0.0
N2905 N 0.83143 0.34935 0.28785 0.0
C2906 C 0.84701 0.3547 0.2713 0.0
C2907 C 0.87232 0.38393 0.30329 0.0
C2908 C 0.86813 0.37196 0.27883 0.0
C2909 C 0.83464 0.36192 0.31108 0.0
C2910 C 0.85537 0.37907 0.3194 0.0
O2911 O 0.75404 0.26664 0.2829 0.0
O2912 O 0.75777 0.30311 0.26731 0.0
O2913 O 0.78283 0.35266 0.28659 0.0
O2914 O 0.78927 0.34848 0.24795 0.0
O2915 O 0.80089 0.27104 0.26429 0.0
O2916 O 0.78062 0.29207 0.24214 0.0
O2917 O 0.83172 0.31146 0.28554 0.0
O2918 O 0.82807 0.27727 0.3055 0.0
O2919 O 0.80471 0.22844 0.28098 0.0
O2920 O 0.796 0.22886 0.3188 0.0
O2921 O 0.78489 0.31079 0.30654 0.0
O2922 O 0.80477 0.28766 0.32695 0.0
C2923 C 0.74481 0.28336 0.27303 0.0
C2924 C 0.7861 0.27189 0.24491 0.0
C2925 C 0.75825 0.36698 0.25654 0.0
C2926 C 0.73386 0.39641 0.25667 0.0
C2927 C 0.72301 0.36096 0.22607 0.0
C2928 C 0.74262 0.35313 0.23624 0.0
C2929 C 0.71875 0.38258 0.23603 0.0
C2930 C 0.75355 0.38844 0.26703 0.0
C2931 C 0.78067 0.36044 0.26502 0.0
C2932 C 0.88431 0.37685 0.26178 0.0
C2933 C 0.87939 0.36485 0.23735 0.0
H2934 H 0.88833 0.39733 0.30974 0.0
C2935 C 0.84105 0.2959 0.29755 0.0
C2936 C 0.79958 0.30821 0.32537 0.0
C2937 C 0.82714 0.2107 0.31014 0.0
C2938 C 0.84975 0.17978 0.30937 0.0
C2939 C 0.8594 0.21249 0.34326 0.0
C2940 C 0.84144 0.22226 0.33243 0.0
C2941 C 0.8634 0.19123 0.33196 0.0
C2942 C 0.83167 0.18961 0.29836 0.0
C2943 C 0.80549 0.21847 0.30134 0.0
H2944 H 0.71125 0.35039 0.2102 0.0
H2945 H 0.74585 0.33651 0.22785 0.0
H2946 H 0.70355 0.38848 0.22772 0.0
H2947 H 0.76564 0.39933 0.28253 0.0
H2948 H 0.86997 0.22119 0.36071 0.0
H2949 H 0.83817 0.23841 0.34197 0.0
H2950 H 0.87721 0.1837 0.34082 0.0
H2951 H 0.82056 0.18038 0.28138 0.0
C2952 C 0.08138 0.50082 0.59555 0.0
C2953 C 0.10493 0.53338 0.62537 0.0
C2954 C 0.08531 0.52415 0.60665 0.0
C2955 C 0.11995 0.51873 0.6331 0.0
C2956 C 0.09678 0.4862 0.60288 0.0
C2957 C 0.11589 0.4952 0.62189 0.0
N2958 N 0.06344 0.49286 0.5764 0.0
C2959 C 0.05984 0.47053 0.56386 0.0
C2960 C 0.09296 0.46315 0.59033 0.0
C2961 C 0.07442 0.4553 0.57071 0.0
Gd2962 Gd 0.04491 0.56058 0.50452 0.0
Gd2963 Gd 0.04 0.51926 0.56504 0.0
N2964 N 0.07106 0.53821 0.59787 0.0
C2965 C 0.10944 0.55728 0.63521 0.0
C2966 C 0.07604 0.56179 0.60716 0.0
C2967 C 0.09498 0.57154 0.62597 0.0
H2968 H 0.06619 0.57374 0.60014 0.0
H2969 H 0.09861 0.59022 0.63306 0.0
H2970 H 0.03179 0.50974 0.46032 0.0
H2971 H 0.04557 0.46436 0.54865 0.0
H2972 H 0.99879 0.48913 0.42931 0.0
H2973 H 0.12435 0.56502 0.6495 0.0
H2974 H 0.13509 0.52558 0.64738 0.0
H2975 H 0.03838 0.61614 0.51435 0.0
H2976 H 0.10443 0.45142 0.59538 0.0
H2977 H 0.07144 0.43758 0.56075 0.0
H2978 H 0.94937 0.545 0.42076 0.0
H2979 H 0.12793 0.48425 0.6277 0.0
H2980 H 0.97557 0.62189 0.46877 0.0
H2981 H 1.00978 0.63988 0.50108 0.0
N2982 N 0.02088 0.5853 0.48957 0.0
C2983 C 1.00278 0.57538 0.47108 0.0
C2984 C 0.02363 0.60821 0.50013 0.0
C2985 C 0.98828 0.61153 0.47428 0.0
C2986 C 1.00751 0.62172 0.49258 0.0
C2987 C 0.98568 0.58807 0.46331 0.0
H2988 H 0.95287 0.58624 0.43931 0.0
N2989 N 0.01757 0.54033 0.46896 0.0
C2990 C 1.00088 0.55212 0.46066 0.0
C2991 C 0.98061 0.51781 0.43135 0.0
C2992 C 0.98173 0.54101 0.44208 0.0
C2993 C 0.0175 0.51842 0.45677 0.0
C2994 C 0.99889 0.5067 0.43832 0.0
O2995 O 0.0761 0.52669 0.55488 0.0
O2996 O 0.06429 0.55711 0.54098 0.0
O2997 O 0.07369 0.56064 0.48269 0.0
O2998 O 0.06775 0.59382 0.49997 0.0
O2999 O 0.0319 0.55668 0.57328 0.0
O3000 O 0.04272 0.58164 0.54275 0.0
O3001 O 1.00735 0.55259 0.51185 0.0
O3002 O 0.02451 0.52893 0.5306 0.0
O3003 O 1.01315 0.52013 0.58927 0.0
O3004 O 0.01641 0.48659 0.56986 0.0
O3005 O 0.0539 0.52311 0.49859 0.0
O3006 O 0.03589 0.49818 0.52565 0.0
C3007 C 0.08024 0.54449 0.54267 0.0
C3008 C 0.03505 0.57769 0.56466 0.0
C3009 C 0.08031 0.59245 0.46006 0.0
C3010 C 0.09288 0.58794 0.41926 0.0
C3011 C 0.06864 0.61612 0.42878 0.0
C3012 C 0.06824 0.60977 0.45282 0.0
C3013 C 0.08084 0.60512 0.4119 0.0
C3014 C 0.09289 0.58192 0.44329 0.0
C3015 C 0.07887 0.58359 0.48409 0.0
C3016 C 0.96435 0.55339 0.43473 0.0
C3017 C 0.96636 0.57689 0.44525 0.0
H3018 H 0.96615 0.50862 0.41714 0.0
C3019 C 1.00536 0.5365 0.52613 0.0
C3020 C 0.04737 0.50177 0.50591 0.0
C3021 C 1.00729 0.48788 0.61124 0.0
C3022 C 0.99608 0.49102 0.65279 0.0
C3023 C 0.02363 0.46656 0.64239 0.0
C3024 C 0.02202 0.4726 0.61816 0.0
C3025 C 1.01086 0.47595 0.65982 0.0
C3026 C 0.99409 0.49666 0.62853 0.0
C3027 C 1.00711 0.49716 0.58734 0.0
H3028 H 0.05936 0.62943 0.42318 0.0
H3029 H 0.05833 0.61818 0.46548 0.0
H3030 H 0.08104 0.61005 0.39327 0.0
H3031 H 0.10233 0.56859 0.44873 0.0
H3032 H 0.03499 0.45485 0.64773 0.0
H3033 H 0.03253 0.46565 0.60513 0.0
H3034 H 1.0123 0.47133 0.67862 0.0
H3035 H 0.98283 0.50861 0.62336 0.0
C3036 C 0.7371 0.8149 0.23658 0.0
C3037 C 0.71269 0.77873 0.2129 0.0
C3038 C 0.72831 0.79062 0.23427 0.0
C3039 C 0.70623 0.79154 0.19381 0.0
C3040 C 0.73067 0.82781 0.21747 0.0
C3041 C 0.71521 0.816 0.19608 0.0
N3042 N 0.75264 0.82572 0.2571 0.0
C3043 C 0.76191 0.84945 0.26008 0.0
C3044 C 0.7403 0.85215 0.22026 0.0
C3045 C 0.7559 0.86302 0.2417 0.0
Gd3046 Gd 0.82389 0.77766 0.28508 0.0
Gd3047 Gd 0.76308 0.80126 0.28582 0.0
N3048 N 0.73577 0.77853 0.25254 0.0
C3049 C 0.70414 0.7543 0.2113 0.0
C3050 C 0.72659 0.75497 0.25164 0.0
C3051 C 0.71089 0.74243 0.23091 0.0
H3052 H 0.73092 0.74582 0.26697 0.0
H3053 H 0.70391 0.72365 0.23015 0.0
H3054 H 0.85813 0.83199 0.30218 0.0
H3055 H 0.77391 0.85796 0.27666 0.0
H3056 H 0.88669 0.85399 0.3381 0.0
H3057 H 0.69209 0.74451 0.19519 0.0
H3058 H 0.69436 0.78268 0.17718 0.0
H3059 H 0.81253 0.72086 0.29427 0.0
H3060 H 0.73584 0.86269 0.20596 0.0
H3061 H 0.76339 0.88183 0.24404 0.0
H3062 H 0.89567 0.79512 0.39155 0.0
H3063 H 0.71017 0.8256 0.18113 0.0
H3064 H 0.85174 0.71569 0.36416 0.0
H3065 H 0.82322 0.69687 0.32667 0.0
N3066 N 0.83447 0.75294 0.31347 0.0
C3067 C 0.85058 0.76353 0.33362 0.0
C3068 C 0.82487 0.72928 0.31064 0.0
C3069 C 0.84715 0.7263 0.34999 0.0
C3070 C 0.83099 0.71561 0.32888 0.0
C3071 C 0.85724 0.75053 0.35254 0.0
H3072 H 0.8787 0.75245 0.38826 0.0
N3073 N 0.85239 0.79981 0.31751 0.0
C3074 C 0.85995 0.78766 0.33562 0.0
C3075 C 0.88585 0.82356 0.35747 0.0
C3076 C 0.8765 0.79931 0.35639 0.0
C3077 C 0.86243 0.82307 0.31773 0.0
C3078 C 0.87903 0.83541 0.33785 0.0
O3079 O 0.77582 0.79407 0.24756 0.0
O3080 O 0.79349 0.76358 0.25437 0.0
O3081 O 0.85221 0.78872 0.26263 0.0
O3082 O 0.84055 0.75184 0.26665 0.0
O3083 O 0.76491 0.76681 0.30141 0.0
O3084 O 0.78991 0.74968 0.27879 0.0
O3085 O 0.81217 0.78568 0.32383 0.0
O3086 O 0.79296 0.8153 0.31718 0.0
O3087 O 0.734 0.79007 0.30724 0.0
O3088 O 0.74598 0.82703 0.30368 0.0
O3089 O 0.82224 0.81247 0.2701 0.0
O3090 O 0.797 0.82926 0.29276 0.0
C3091 C 0.78505 0.77644 0.23891 0.0
C3092 C 0.77269 0.74817 0.29276 0.0
C3093 C 0.87959 0.76343 0.25642 0.0
C3094 C 0.91523 0.76691 0.23559 0.0
C3095 C 0.90926 0.74098 0.26745 0.0
C3096 C 0.88787 0.74741 0.2708 0.0
C3097 C 0.92275 0.7505 0.24988 0.0
C3098 C 0.89357 0.77344 0.23893 0.0
C3099 C 0.85523 0.76726 0.25715 0.0
C3100 C 0.88312 0.78644 0.37534 0.0
C3101 C 0.87348 0.76213 0.37345 0.0
H3102 H 0.89863 0.83317 0.37309 0.0
C3103 C 0.80195 0.80261 0.33251 0.0
C3104 C 0.81422 0.83093 0.27882 0.0
C3105 C 0.70658 0.81536 0.31284 0.0
C3106 C 0.67054 0.81213 0.33291 0.0
C3107 C 0.67641 0.83652 0.29972 0.0
C3108 C 0.69814 0.83045 0.29732 0.0
C3109 C 0.66275 0.82752 0.31743 0.0
C3110 C 0.69256 0.80605 0.33061 0.0
C3111 C 0.73098 0.81153 0.31273 0.0
H3112 H 0.91523 0.72826 0.27825 0.0
H3113 H 0.87752 0.73929 0.28418 0.0
H3114 H 0.93914 0.74498 0.24734 0.0
H3115 H 0.88725 0.78552 0.2274 0.0
H3116 H 0.67025 0.84849 0.28798 0.0
H3117 H 0.70857 0.83804 0.28372 0.0
H3118 H 0.64604 0.83265 0.31913 0.0
H3119 H 0.69898 0.79463 0.34294 0.0
C3120 C 0.82855 0.25104 0.72505 0.0
C3121 C 0.7951 0.23226 0.6938 0.0
C3122 C 0.80601 0.25057 0.71337 0.0
C3123 C 0.80679 0.21415 0.68688 0.0
C3124 C 0.84058 0.23317 0.7178 0.0
C3125 C 0.8295 0.21466 0.69879 0.0
N3126 N 0.83843 0.2686 0.7441 0.0
C3127 C 0.8605 0.26971 0.7563 0.0
C3128 C 0.86326 0.23426 0.73018 0.0
C3129 C 0.8733 0.25269 0.74944 0.0
Gd3130 Gd 0.77448 0.28796 0.81345 0.0
Gd3131 Gd 0.81527 0.29535 0.75632 0.0
N3132 N 0.79505 0.26828 0.7207 0.0
C3133 C 0.77299 0.23295 0.68133 0.0
C3134 C 0.77475 0.27027 0.70655 0.0
C3135 C 0.76306 0.25234 0.68735 0.0
H3136 H 0.76763 0.28585 0.70904 0.0
H3137 H 0.74661 0.25378 0.67683 0.0
H3138 H 0.82467 0.3037 0.85725 0.0
H3139 H 0.86825 0.28379 0.77137 0.0
H3140 H 0.84459 0.33737 0.888 0.0
H3141 H 0.76397 0.21917 0.66631 0.0
H3142 H 0.79855 0.19986 0.67206 0.0
H3143 H 0.72162 0.29843 0.79523 0.0
H3144 H 0.8731 0.22093 0.7251 0.0
H3145 H 0.89081 0.25369 0.75915 0.0
H3146 H 0.78935 0.38804 0.89066 0.0
H3147 H 0.83838 0.20066 0.69312 0.0
H3148 H 0.71521 0.36309 0.83712 0.0
H3149 H 0.6984 0.32869 0.80465 0.0
N3150 N 0.75106 0.31542 0.82231 0.0
C3151 C 0.7605 0.33396 0.84053 0.0
C3152 C 0.72904 0.31331 0.80955 0.0
C3153 C 0.72538 0.34975 0.83324 0.0
C3154 C 0.71585 0.33039 0.81485 0.0
C3155 C 0.748 0.3518 0.84626 0.0
H3156 H 0.7493 0.3852 0.86898 0.0
N3157 N 0.79512 0.31841 0.8459 0.0
C3158 C 0.78329 0.33567 0.85243 0.0
C3159 C 0.81644 0.35604 0.8832 0.0
C3160 C 0.79383 0.35513 0.87088 0.0
C3161 C 0.81637 0.31843 0.85946 0.0
C3162 C 0.82755 0.33739 0.87777 0.0
O3163 O 0.80873 0.25956 0.76762 0.0
O3164 O 0.77358 0.26299 0.77897 0.0
O3165 O 0.77452 0.2662 0.8429 0.0
O3166 O 0.74069 0.26957 0.82309 0.0
O3167 O 0.77762 0.30344 0.74995 0.0
O3168 O 0.75321 0.28149 0.77423 0.0
O3169 O 0.78069 0.32284 0.80024 0.0
O3170 O 0.81598 0.31771 0.7921 0.0
O3171 O 0.81671 0.32439 0.73465 0.0
O3172 O 0.84895 0.31399 0.74766 0.0
O3173 O 0.81103 0.27778 0.82012 0.0
O3174 O 0.83643 0.29769 0.79514 0.0
C3175 C 0.78952 0.25055 0.77619 0.0
C3176 C 0.75621 0.29428 0.75554 0.0
C3177 C 0.73936 0.24581 0.8572 0.0
C3178 C 0.74076 0.22936 0.89612 0.0
C3179 C 0.70319 0.22479 0.86989 0.0
C3180 C 0.71473 0.23729 0.85267 0.0
C3181 C 0.71612 0.22102 0.89172 0.0
C3182 C 0.75234 0.24144 0.87876 0.0
C3183 C 0.75153 0.261 0.84091 0.0
C3184 C 0.78144 0.37294 0.87665 0.0
C3185 C 0.75859 0.37127 0.86438 0.0
H3186 H 0.82514 0.37067 0.89745 0.0
C3187 C 0.8007 0.33091 0.79304 0.0
C3188 C 0.8326 0.28517 0.81395 0.0
C3189 C 0.84577 0.32647 0.70782 0.0
C3190 C 0.83836 0.3367 0.66612 0.0
C3191 C 0.86863 0.31471 0.67565 0.0
C3192 C 0.86358 0.31521 0.70024 0.0
C3193 C 0.85594 0.32526 0.65853 0.0
C3194 C 0.83351 0.33745 0.69072 0.0
C3195 C 0.83918 0.32654 0.73312 0.0
H3196 H 0.68419 0.2183 0.86647 0.0
H3197 H 0.70442 0.24059 0.83611 0.0
H3198 H 0.70697 0.21151 0.90508 0.0
H3199 H 0.77135 0.24817 0.88263 0.0
H3200 H 0.88242 0.30616 0.66988 0.0
H3201 H 0.87349 0.30673 0.71315 0.0
H3202 H 0.86018 0.32499 0.63958 0.0
H3203 H 0.81995 0.34644 0.69645 0.0
C3204 C 0.85814 0.83922 0.83094 0.0
C3205 C 0.88243 0.85584 0.80093 0.0
C3206 C 0.86064 0.84332 0.80654 0.0
C3207 C 0.90156 0.86413 0.82006 0.0
C3208 C 0.8773 0.84781 0.85024 0.0
C3209 C 0.89897 0.86022 0.84466 0.0
N3210 N 0.83682 0.82755 0.83596 0.0
C3211 C 0.83351 0.82399 0.85988 0.0
C3212 C 0.874 0.84409 0.87473 0.0
C3213 C 0.85202 0.83213 0.87955 0.0
Gd3214 Gd 0.77803 0.75604 0.76715 0.0
Gd3215 Gd 0.80604 0.81826 0.80219 0.0
N3216 N 0.84162 0.83571 0.78846 0.0
C3217 C 0.88419 0.86027 0.77635 0.0
C3218 C 0.84293 0.84145 0.76492 0.0
C3219 C 0.86428 0.85319 0.75831 0.0
H3220 H 0.8275 0.83809 0.75138 0.0
H3221 H 0.86514 0.85739 0.73948 0.0
H3222 H 0.75594 0.7304 0.81338 0.0
H3223 H 0.81632 0.81586 0.86412 0.0
H3224 H 0.71736 0.71006 0.82337 0.0
H3225 H 0.9006 0.8698 0.7713 0.0
H3226 H 0.91833 0.87392 0.81609 0.0
H3227 H 0.7695 0.76347 0.70606 0.0
H3228 H 0.88821 0.85064 0.89008 0.0
H3229 H 0.84919 0.82956 0.8985 0.0
H3230 H 0.66382 0.70793 0.74906 0.0
H3231 H 0.9138 0.86706 0.85928 0.0
H3232 H 0.69601 0.73879 0.67918 0.0
H3233 H 0.73651 0.75687 0.67206 0.0
N3234 N 0.74781 0.75211 0.7334 0.0
C3235 C 0.72577 0.74138 0.73748 0.0
C3236 C 0.75183 0.75715 0.71008 0.0
C3237 C 0.71036 0.7425 0.69454 0.0
C3238 C 0.73317 0.7528 0.69048 0.0
C3239 C 0.70647 0.73631 0.71813 0.0
H3240 H 0.66911 0.72051 0.70797 0.0
N3241 N 0.74171 0.739 0.77895 0.0
C3242 C 0.72268 0.73447 0.76082 0.0
C3243 C 0.69836 0.71388 0.78825 0.0
C3244 C 0.70038 0.72207 0.76515 0.0
C3245 C 0.74018 0.7296 0.8007 0.0
C3246 C 0.71845 0.71737 0.80597 0.0
O3247 O 0.83391 0.79558 0.79572 0.0
O3248 O 0.81693 0.76836 0.7611 0.0
O3249 O 0.78217 0.72218 0.77657 0.0
O3250 O 0.77598 0.72701 0.7376 0.0
O3251 O 0.78897 0.81496 0.76143 0.0
O3252 O 0.7967 0.78069 0.74332 0.0
O3253 O 0.75128 0.77988 0.77458 0.0
O3254 O 0.7685 0.80408 0.81076 0.0
O3255 O 0.79516 0.8491 0.7904 0.0
O3256 O 0.80669 0.84805 0.83018 0.0
O3257 O 0.7939 0.75764 0.80822 0.0
O3258 O 0.79009 0.79351 0.82759 0.0
C3259 C 0.8359 0.78048 0.77633 0.0
C3260 C 0.79317 0.80194 0.7417 0.0
C3261 C 0.79836 0.69893 0.74817 0.0
C3262 C 0.82074 0.67102 0.76229 0.0
C3263 C 0.82441 0.68376 0.72165 0.0
C3264 C 0.80818 0.69808 0.72566 0.0
C3265 C 0.83078 0.67027 0.73995 0.0
C3266 C 0.80469 0.68532 0.76621 0.0
C3267 C 0.78074 0.71285 0.75334 0.0
C3268 C 0.68107 0.71745 0.74607 0.0
C3269 C 0.68409 0.72459 0.72265 0.0
H3270 H 0.68159 0.70408 0.79221 0.0
C3271 C 0.74937 0.79369 0.795 0.0
C3272 C 0.79206 0.77165 0.82843 0.0
C3273 C 0.79455 0.88331 0.81981 0.0
C3274 C 0.77897 0.9157 0.80631 0.0
C3275 C 0.78927 0.91477 0.85052 0.0
C3276 C 0.7963 0.89344 0.84488 0.0
C3277 C 0.78032 0.92582 0.83124 0.0
C3278 C 0.78632 0.89478 0.80064 0.0
C3279 C 0.79871 0.85973 0.81341 0.0
H3280 H 0.83188 0.68296 0.70427 0.0
H3281 H 0.80328 0.70828 0.71123 0.0
H3282 H 0.84306 0.65893 0.73649 0.0
H3283 H 0.79699 0.68575 0.78354 0.0
H3284 H 0.7903 0.92244 0.86981 0.0
H3285 H 0.80247 0.88463 0.86002 0.0
H3286 H 0.77436 0.94207 0.83569 0.0
H3287 H 0.78462 0.88701 0.78123 0.0
C3288 C 0.49602 0.4716 0.49068 0.0
C3289 C 0.47909 0.4473 0.52058 0.0
C3290 C 0.49121 0.46923 0.515 0.0
C3291 C 0.47184 0.42792 0.50158 0.0
C3292 C 0.48879 0.45206 0.47162 0.0
C3293 C 0.47665 0.4303 0.47719 0.0
N3294 N 0.50716 0.49308 0.48552 0.0
C3295 C 0.51143 0.49618 0.46174 0.0
C3296 C 0.49349 0.45508 0.44733 0.0
C3297 C 0.5049 0.4772 0.44241 0.0
Gd3298 Gd 0.57472 0.5536 0.5514 0.0
Gd3299 Gd 0.51233 0.52417 0.51839 0.0
N3300 N 0.49788 0.48843 0.53303 0.0
C3301 C 0.47402 0.44562 0.54499 0.0
C3302 C 0.49195 0.48708 0.5565 0.0
C3303 C 0.48043 0.46563 0.563 0.0
H3304 H 0.49488 0.50259 0.56996 0.0
H3305 H 0.47584 0.46473 0.5817 0.0
H3306 H 0.59513 0.57461 0.50133 0.0
H3307 H 0.51872 0.51344 0.45719 0.0
H3308 H 0.61451 0.61245 0.48949 0.0
H3309 H 0.46464 0.42912 0.54996 0.0
H3310 H 0.46227 0.41105 0.50549 0.0
H3311 H 0.56907 0.56418 0.61285 0.0
H3312 H 0.48806 0.44052 0.43218 0.0
H3313 H 0.50813 0.47981 0.42356 0.0
H3314 H 0.62552 0.66681 0.56501 0.0
H3315 H 0.47073 0.41521 0.4627 0.0
H3316 H 0.59874 0.63729 0.63794 0.0
H3317 H 0.57907 0.59782 0.64646 0.0
N3318 N 0.58061 0.58463 0.5846 0.0
C3319 C 0.59179 0.60616 0.57959 0.0
C3320 C 0.57628 0.58147 0.60834 0.0
C3321 C 0.59365 0.6227 0.62281 0.0
C3322 C 0.58246 0.60047 0.62767 0.0
C3323 C 0.59864 0.62574 0.59862 0.0
H3324 H 0.61621 0.66275 0.60756 0.0
N3325 N 0.59056 0.58929 0.53748 0.0
C3326 C 0.59704 0.60852 0.55545 0.0
C3327 C 0.615 0.63193 0.52574 0.0
C3328 C 0.60928 0.63042 0.54995 0.0
C3329 C 0.59746 0.59037 0.51438 0.0
C3330 C 0.60924 0.61174 0.50794 0.0
O3331 O 0.53727 0.4981 0.52431 0.0
O3332 O 0.56275 0.51541 0.55977 0.0
O3333 O 0.60787 0.54862 0.54013 0.0
O3334 O 0.60505 0.55661 0.57952 0.0
O3335 O 0.51542 0.54241 0.55868 0.0
O3336 O 0.55057 0.53619 0.57655 0.0
O3337 O 0.55144 0.58083 0.54415 0.0
O3338 O 0.52235 0.563 0.51147 0.0
O3339 O 0.47802 0.52648 0.52849 0.0
O3340 O 0.48266 0.52066 0.48941 0.0
O3341 O 0.57073 0.53575 0.51085 0.0
O3342 O 0.5358 0.54267 0.49327 0.0
C3343 C 0.55156 0.49621 0.54438 0.0
C3344 C 0.52923 0.53946 0.57845 0.0
C3345 C 0.63291 0.53417 0.56846 0.0
C3346 C 0.6618 0.51281 0.5548 0.0
C3347 C 0.64926 0.50936 0.59559 0.0
C3348 C 0.63421 0.52484 0.59122 0.0
C3349 C 0.663 0.50325 0.57738 0.0
C3350 C 0.64682 0.52817 0.55051 0.0
C3351 C 0.61835 0.55117 0.56306 0.0
C3352 C 0.61597 0.64991 0.56887 0.0
C3353 C 0.61067 0.64758 0.59311 0.0
H3354 H 0.62451 0.6484 0.52083 0.0
C3355 C 0.53519 0.58233 0.52562 0.0
C3356 C 0.55729 0.53992 0.49145 0.0
C3357 C 0.45401 0.542 0.50008 0.0
C3358 C 0.42643 0.56472 0.51426 0.0
C3359 C 0.43891 0.56795 0.47345 0.0
C3360 C 0.45314 0.5517 0.47749 0.0
C3361 C 0.42564 0.57461 0.49186 0.0
C3362 C 0.44038 0.5484 0.51815 0.0
C3363 C 0.46841 0.52483 0.50532 0.0
H3364 H 0.65045 0.50231 0.61317 0.0
H3365 H 0.62385 0.52957 0.6056 0.0
H3366 H 0.67492 0.49158 0.58111 0.0
H3367 H 0.64616 0.53563 0.53307 0.0
H3368 H 0.43811 0.57532 0.45603 0.0
H3369 H 0.46333 0.54674 0.46303 0.0
H3370 H 0.41446 0.58703 0.48848 0.0
H3371 H 0.44069 0.54075 0.53548 0.0
C3372 C 0.09654 0.58629 0.99752 0.0
C3373 C 0.12767 0.61169 0.02823 0.0
C3374 C 0.10979 0.59093 0.02137 0.0
C3375 C 0.13211 0.62778 0.01107 0.0
C3376 C 0.10159 0.60228 0.98011 0.0
C3377 C 0.11917 0.62308 0.98712 0.0
N3378 N 0.07961 0.56586 0.99094 0.0
C3379 C 0.06912 0.55951 0.96664 0.0
C3380 C 0.08938 0.59661 0.95584 0.0
C3381 C 0.07335 0.575 0.949 0.0
Gd3382 Gd 1.01129 0.53829 0.04805 0.0
Gd3383 Gd 0.07623 0.54125 0.02252 0.0
N3384 N 0.10513 0.57525 0.03795 0.0
C3385 C 0.14074 0.61561 0.05214 0.0
C3386 C 0.1184 0.57849 0.06087 0.0
C3387 C 0.13617 0.59887 0.06846 0.0
H3388 H 0.11553 0.5652 0.07308 0.0
H3389 H 0.14649 0.60153 0.08678 0.0
H3390 H 0.97174 0.51575 0.99785 0.0
H3391 H 0.05811 0.54224 0.96014 0.0
H3392 H 0.94026 0.4797 0.98364 0.0
H3393 H 0.15459 0.63135 0.05805 0.0
H3394 H 0.14576 0.64382 0.01604 0.0
H3395 H 0.03067 0.53556 0.10995 0.0
H3396 H 0.09285 0.6084 0.94196 0.0
H3397 H 0.06466 0.56997 0.92992 0.0
H3398 H 0.94092 0.43589 0.05329 0.0
H3399 H 0.12316 0.63551 0.97396 0.0
H3400 H 0.99494 0.46943 0.12717 0.0
H3401 H 0.02393 0.50731 0.13952 0.0
N3402 N 1.00814 0.51294 0.07906 0.0
C3403 C 0.99086 0.49278 0.07237 0.0
C3404 C 0.01917 0.51859 0.10323 0.0
C3405 C 0.99841 0.48148 0.11355 0.0
C3406 C 0.01489 0.50278 0.12055 0.0
C3407 C 0.98583 0.47644 0.08943 0.0
H3408 H 0.96398 0.44318 0.09513 0.0
N3409 N 0.98208 0.50471 0.03245 0.0
C3410 C 0.97734 0.48874 0.0487 0.0
C3411 C 0.946 0.46486 0.01783 0.0
C3412 C 0.95921 0.46822 0.04163 0.0
C3413 C 0.9687 0.50207 0.00969 0.0
C3414 C 0.95069 0.48192 1.00186 0.0
O3415 O 0.06999 0.57705 0.04181 0.0
O3416 O 0.02931 0.57473 0.0392 0.0
O3417 O 0.97826 0.54988 0.03736 0.0
O3418 O 0.99445 0.55434 0.07658 0.0
O3419 O 0.06341 0.52952 0.05685 0.0
O3420 O 0.04305 0.55306 0.07623 0.0
O3421 O 0.01746 0.50231 0.02881 0.0
O3422 O 0.05808 0.50441 0.03019 0.0
O3423 O 0.10923 0.52965 0.03406 0.0
O3424 O 0.09331 0.52488 0.99468 0.0
O3425 O 0.02178 0.54976 0.01243 0.0
O3426 O 0.04426 0.52688 0.99458 0.0
C3427 C 0.05146 0.58722 0.04265 0.0
C3428 C 0.06215 0.54484 0.07553 0.0
C3429 C 0.9578 0.56726 0.06948 0.0
C3430 C 0.92694 0.58951 0.06343 0.0
C3431 C 0.93639 0.57695 0.10375 0.0
C3432 C 0.95368 0.56644 0.09441 0.0
C3433 C 0.92317 0.58855 0.08843 0.0
C3434 C 0.94409 0.57855 0.05378 0.0
C3435 C 0.97707 0.55704 0.0607 0.0
C3436 C 0.95475 0.45177 0.05844 0.0
C3437 C 0.96796 0.45589 0.08224 0.0
H3438 H 0.93197 0.44929 0.01174 0.0
C3439 C 0.03588 0.49202 0.02724 0.0
C3440 C 0.02481 0.53466 0.99427 0.0
C3441 C 0.12981 0.51193 1.00195 0.0
C3442 C 0.16079 0.48973 0.00771 0.0
C3443 C 0.15063 0.50173 0.96729 0.0
C3444 C 0.13356 0.51243 0.97685 0.0
C3445 C 0.16409 0.49033 0.98256 0.0
C3446 C 0.14376 0.50078 0.01758 0.0
C3447 C 0.11053 0.52218 0.01078 0.0
H3448 H 0.93338 0.57632 0.123 0.0
H3449 H 0.96392 0.55773 0.10678 0.0
H3450 H 0.90998 0.59689 0.09611 0.0
H3451 H 0.94724 0.57951 0.03458 0.0
H3452 H 0.15329 0.5021 0.94792 0.0
H3453 H 0.12315 0.52098 0.96448 0.0
H3454 H 0.17714 0.48187 0.97473 0.0
H3455 H 0.14094 0.50006 0.0369 0.0
C3456 C 0.01433 0.13168 0.99189 0.0
C3457 C 0.02556 0.15316 0.00735 0.0
H3458 H 1.00864 0.09363 0.98498 0.0
C3459 C 0.04043 0.1508 0.02905 0.0
H3460 H 1.00307 0.13204 0.97477 0.0
C3461 C 0.04367 0.12833 0.03498 0.0
C3462 C 0.03241 0.10695 0.01945 0.0
H3463 H 0.04939 0.16637 0.04192 0.0
H3464 H 0.05495 0.1278 0.05201 0.0
C3465 C 0.01767 0.10928 0.99775 0.0
C3466 C 0.19296 0.78122 0.21823 0.0
C3467 C 0.19316 0.80141 0.206 0.0
H3468 H 0.21181 0.76314 0.24339 0.0
C3469 C 0.21414 0.81922 0.21063 0.0
H3470 H 0.17724 0.76714 0.21548 0.0
C3471 C 0.23424 0.81667 0.22638 0.0
C3472 C 0.23393 0.79651 0.23862 0.0
H3473 H 0.21524 0.83499 0.20163 0.0
H3474 H 0.25003 0.83065 0.22911 0.0
C3475 C 0.21284 0.77895 0.23444 0.0
C3476 C 0.50785 0.92498 0.50811 0.0
C3477 C 0.52722 0.91384 0.5121 0.0
H3478 H 0.49522 0.95736 0.50923 0.0
C3479 C 0.54935 0.92908 0.52174 0.0
H3480 H 0.49049 0.91454 0.50031 0.0
C3481 C 0.55196 0.95396 0.52707 0.0
C3482 C 0.5326 0.965 0.52309 0.0
H3483 H 0.56488 0.92185 0.52556 0.0
H3484 H 0.56937 0.96458 0.53444 0.0
C3485 C 0.51052 0.9499 0.51333 0.0
C3486 C 0.44932 0.26699 0.68059 0.0
C3487 C 0.46701 0.28783 0.6875 0.0
H3488 H 0.41878 0.24428 0.69032 0.0
C3489 C 0.46484 0.30369 0.70828 0.0
H3490 H 0.45 0.25463 0.66438 0.0
C3491 C 0.44658 0.29786 0.72291 0.0
C3492 C 0.43011 0.27616 0.71697 0.0
H3493 H 0.47809 0.31989 0.71419 0.0
H3494 H 0.44626 0.30957 0.73978 0.0
C3495 C 0.43121 0.26116 0.69523 0.0
C3496 C 0.03289 0.86631 0.60903 0.0
C3497 C 0.0465 0.8652 0.63181 0.0
H3498 H 0.0299 0.88448 0.57677 0.0
C3499 C 0.06599 0.88392 0.64105 0.0
H3500 H 0.01777 0.85222 0.60138 0.0
C3501 C 0.0729 0.90217 0.62697 0.0
C3502 C 0.06036 0.90236 0.60345 0.0
H3503 H 0.0765 0.884 0.65881 0.0
H3504 H 0.08873 0.91564 0.63399 0.0
C3505 C 0.03979 0.88475 0.59494 0.0
C3506 C 0.40335 0.78699 0.82013 0.0
C3507 C 0.41902 0.80496 0.81098 0.0
H3508 H 0.36754 0.7701 0.82319 0.0
C3509 C 0.40821 0.82007 0.79704 0.0
H3510 H 0.41027 0.77502 0.83129 0.0
C3511 C 0.38319 0.81723 0.79245 0.0
C3512 C 0.36762 0.79932 0.80171 0.0
H3513 H 0.41903 0.83398 0.78913 0.0
H3514 H 0.37613 0.82898 0.78123 0.0
C3515 C 0.37841 0.78425 0.81562 0.0
C3516 C 0.52675 0.13839 0.0912 0.0
C3517 C 0.52782 0.13821 0.11716 0.0
H3518 H 0.52865 0.12003 0.05557 0.0
C3519 C 0.53075 0.1171 0.12636 0.0
H3520 H 0.52461 0.15419 0.08323 0.0
C3521 C 0.53259 0.09696 0.11012 0.0
C3522 C 0.53241 0.09743 0.08413 0.0
H3523 H 0.53134 0.11603 0.14619 0.0
H3524 H 0.53429 0.08108 0.11809 0.0
C3525 C 0.52919 0.11855 0.07514 0.0
C3526 C 0.20127 0.32228 0.326 0.0
C3527 C 0.17964 0.30863 0.31261 0.0
H3528 H 0.23946 0.32983 0.33121 0.0
C3529 C 0.18181 0.29145 0.2928 0.0
H3530 H 0.20108 0.33551 0.34158 0.0
C3531 C 0.20424 0.28822 0.28673 0.0
C3532 C 0.22578 0.30173 0.30031 0.0
H3533 H 0.1661 0.28057 0.2815 0.0
H3534 H 0.20457 0.27509 0.27115 0.0
C3535 C 0.22366 0.31889 0.32006 0.0
C3536 C 0.01833 0.01754 0.14089 0.0
C3537 C 1.00381 0.03222 0.15011 0.0
H3538 H 0.0383 1.00856 0.1116 0.0
C3539 C 0.99817 0.04942 0.13551 0.0
H3540 H 0.02319 1.00419 0.15154 0.0
C3541 C 1.00649 0.0516 0.1123 0.0
C3542 C 0.02121 0.03709 0.10335 0.0
H3543 H 0.98695 0.06098 0.14183 0.0
H3544 H 1.00168 0.06487 0.1015 0.0
C3545 C 0.02715 0.02016 0.11805 0.0
C3546 C 0.26132 0.73005 0.46517 0.0
C3547 C 0.27547 0.71321 0.46321 0.0
H3548 H 0.23852 0.7484 0.44533 0.0
C3549 C 0.28164 0.70567 0.43989 0.0
H3550 H 0.25664 0.73625 0.48313 0.0
C3551 C 0.27138 0.71272 0.41839 0.0
C3552 C 0.25485 0.72712 0.42025 0.0
H3553 H 0.29245 0.69262 0.43801 0.0
H3554 H 0.27493 0.70553 0.40027 0.0
C3555 C 0.25079 0.73675 0.44371 0.0
C3556 C 0.59798 0.07222 0.63746 0.0
C3557 C 0.61162 0.05513 0.64018 0.0
H3558 H 0.57033 0.08247 0.61462 0.0
C3559 C 0.60838 0.03539 0.62192 0.0
H3560 H 0.60026 0.08749 0.65157 0.0
C3561 C 0.59122 0.03229 0.60151 0.0
C3562 C 0.57742 0.0492 0.59875 0.0
H3563 H 0.619 0.0222 0.62353 0.0
H3564 H 0.58893 0.01669 0.58783 0.0
C3565 C 0.5808 0.06922 0.61671 0.0
C3566 C 0.3127 0.30596 0.90302 0.0
C3567 C 0.30356 0.3257 0.91139 0.0
H3568 H 0.31911 0.28319 0.87164 0.0
C3569 C 0.29406 0.33786 0.89315 0.0
H3570 H 0.32002 0.29597 0.91636 0.0
C3571 C 0.29359 0.33056 0.86756 0.0
C3572 C 0.30261 0.31081 0.85915 0.0
H3573 H 0.28726 0.35339 0.89863 0.0
H3574 H 0.28611 0.34057 0.85433 0.0
C3575 C 0.31216 0.29857 0.87728 0.0
C3576 C 0.03162 0.03361 0.41877 0.0
C3577 C 1.00737 0.02866 0.40934 0.0
H3578 H 0.05787 0.03765 0.45115 0.0
C3579 C 0.99078 0.02385 0.42605 0.0
H3580 H 0.04478 0.03742 0.40631 0.0
C3581 C 0.99822 0.02438 0.45166 0.0
C3582 C 0.02245 0.02921 0.46116 0.0
H3583 H 0.972 0.01981 0.41928 0.0
H3584 H 0.98496 0.02077 0.46405 0.0
C3585 C 0.03909 0.03362 0.44437 0.0
C3586 C 0.29826 0.72177 0.69995 0.0
C3587 C 0.27944 0.71936 0.68076 0.0
H3588 H 0.31528 0.73992 0.73541 0.0
C3589 C 0.26252 0.73328 0.6829 0.0
H3590 H 0.31133 0.71096 0.69873 0.0
C3591 C 0.26465 0.74976 0.70405 0.0
C3592 C 0.28364 0.75225 0.72308 0.0
H3593 H 0.24798 0.7317 0.6681 0.0
H3594 H 0.25152 0.76046 0.70558 0.0
C3595 C 0.30041 0.73819 0.72095 0.0
C3596 C 0.64271 0.07409 0.88494 0.0
C3597 C 0.63286 0.05432 0.86694 0.0
H3598 H 0.63601 0.09857 0.91428 0.0
C3599 C 0.61003 0.04118 0.86762 0.0
H3600 H 0.66034 0.08441 0.88447 0.0
C3601 C 0.59616 0.04938 0.88448 0.0
C3602 C 0.60524 0.07061 0.90048 0.0
H3603 H 0.6022 0.02603 0.85365 0.0
H3604 H 0.57796 0.0401 0.88391 0.0
C3605 C 0.62884 0.08232 0.90162 0.0
C3606 C 0.30862 0.31008 0.17548 0.0
C3607 C 0.30096 0.33066 0.17044 0.0
H3608 H 0.31184 0.28533 0.20134 0.0
C3609 C 0.29047 0.34232 0.18886 0.0
H3610 H 0.31664 0.30062 0.16165 0.0
C3611 C 0.288 0.33378 0.2119 0.0
C3612 C 0.29545 0.31302 0.21687 0.0
H3613 H 0.28449 0.3583 0.18558 0.0
H3614 H 0.28016 0.34338 0.22578 0.0
C3615 C 0.30572 0.30127 0.19824 0.0
C3616 C 0.19279 0.9828 0.00872 0.0
C3617 C 0.21055 1.00159 1.00451 0.0
H3618 H 0.16368 0.97225 0.02888 0.0
C3619 C 0.21016 0.0249 0.01391 0.0
H3620 H 0.19298 0.96465 1.00186 0.0
C3621 C 0.19374 0.02911 0.0296 0.0
C3622 C 0.17763 1.01004 0.03593 0.0
H3623 H 0.2239 0.03954 0.01103 0.0
H3624 H 0.19458 0.04707 0.03805 0.0
C3625 C 0.17648 0.98701 0.02459 0.0
C3626 C 0.63523 0.61635 0.02518 0.0
C3627 C 0.65406 0.60581 0.01983 0.0
H3628 H 0.59917 0.61143 0.03133 0.0
C3629 C 0.65026 0.581 0.01605 0.0
H3630 H 0.63759 0.63544 0.02787 0.0
C3631 C 0.62823 0.56705 0.01865 0.0
C3632 C 0.60944 0.5776 0.02455 0.0
H3633 H 0.66451 0.57243 0.01179 0.0
H3634 H 0.62601 0.5481 0.01597 0.0
C3635 C 0.61316 0.60247 0.02715 0.0
C3636 C 0.7171 0.4442 0.29982 0.0
C3637 C 0.71373 0.46064 0.28341 0.0
H3638 H 0.7267 0.41098 0.30425 0.0
C3639 C 0.71909 0.45665 0.25888 0.0
H3640 H 0.71329 0.4469 0.31887 0.0
C3641 C 0.72657 0.43619 0.25058 0.0
C3642 C 0.72906 0.41937 0.26667 0.0
H3643 H 0.71648 0.46881 0.24567 0.0
H3644 H 0.72979 0.43316 0.23134 0.0
C3645 C 0.72491 0.42379 0.29156 0.0
C3646 C 0.94873 0.49591 0.52834 0.0
C3647 C 0.93538 0.51208 0.53637 0.0
H3648 H 0.98266 0.49139 0.51984 0.0
C3649 C 0.94622 0.53566 0.54526 0.0
H3650 H 0.94025 0.47773 0.52101 0.0
C3651 C 0.97029 0.54345 0.54444 0.0
C3652 C 0.98338 0.52752 0.53509 0.0
H3653 H 0.93586 0.54819 0.55138 0.0
H3654 H 0.97836 0.56208 0.54956 0.0
C3655 C 0.97283 0.50359 0.52794 0.0
C3656 C 0.30573 0.12176 0.3037 0.0
C3657 C 0.3284 0.1235 0.31661 0.0
H3658 H 0.28518 0.135 0.27571 0.0
C3659 C 0.34661 0.14303 0.31539 0.0
H3660 H 0.29159 0.10661 0.30425 0.0
C3661 C 0.34317 0.1587 0.29855 0.0
C3662 C 0.3214 0.15509 0.28338 0.0
H3663 H 0.36425 0.14454 0.3251 0.0
H3664 H 0.35771 0.17294 0.29655 0.0
C3665 C 0.3023 0.13745 0.28695 0.0
C3666 C 0.36987 0.09856 0.53857 0.0
C3667 C 0.37247 0.11985 0.52822 0.0
H3668 H 0.38752 0.07423 0.55576 0.0
C3669 C 0.39505 0.13129 0.52402 0.0
H3670 H 0.35259 0.08944 0.54195 0.0
C3671 C 0.41496 0.12273 0.53215 0.0
C3672 C 0.41244 0.10242 0.54411 0.0
H3673 H 0.39751 0.14783 0.5163 0.0
H3674 H 0.43242 0.13273 0.53048 0.0
C3675 C 0.38974 0.08983 0.54637 0.0
C3676 C 0.74062 0.68378 0.27761 0.0
C3677 C 0.72948 0.68022 0.29902 0.0
H3678 H 0.76339 0.70791 0.25909 0.0
C3679 C 0.73372 0.69891 0.31886 0.0
H3680 H 0.73786 0.6697 0.26206 0.0
C3681 C 0.74809 0.72088 0.31701 0.0
C3682 C 0.75899 0.72445 0.29553 0.0
H3683 H 0.72532 0.6968 0.33554 0.0
H3684 H 0.75056 0.73514 0.33233 0.0
C3685 C 0.75542 0.70557 0.276 0.0
C3686 C 0.82802 0.39397 0.81222 0.0
C3687 C 0.81733 0.40387 0.79285 0.0
H3688 H 0.83127 0.36206 0.82683 0.0
C3689 C 0.80193 0.38963 0.7729 0.0
H3690 H 0.84031 0.40499 0.82749 0.0
C3691 C 0.79671 0.36534 0.77271 0.0
C3692 C 0.80751 0.3556 0.79203 0.0
H3693 H 0.79394 0.39731 0.75777 0.0
H3694 H 0.78437 0.35421 0.75761 0.0
C3695 C 0.82321 0.36973 0.81171 0.0
C3696 C 0.07498 0.94702 0.07749 0.0
C3697 C 0.06192 0.92564 0.06322 0.0
H3698 H 0.08211 0.98519 0.08359 0.0
C3699 C 0.04569 0.9279 0.0427 0.0
H3700 H 0.08748 0.94636 0.09356 0.0
C3701 C 0.04294 0.95042 0.03655 0.0
C3702 C 0.0558 0.97185 0.051 0.0
H3703 H 0.03533 0.91213 0.031 0.0
H3704 H 0.0307 0.95093 0.02025 0.0
C3705 C 0.07184 0.96951 0.07168 0.0
C3706 C 0.89678 0.29078 0.84435 0.0
C3707 C 0.89432 0.27643 0.8636 0.0
H3708 H 0.87993 0.30483 0.8141 0.0
C3709 C 0.8712 0.26433 0.86578 0.0
H3710 H 0.91414 0.30017 0.8416 0.0
C3711 C 0.85133 0.26691 0.84968 0.0
C3712 C 0.85383 0.28157 0.83068 0.0
H3713 H 0.86834 0.25327 0.88037 0.0
H3714 H 0.83391 0.25755 0.85233 0.0
C3715 C 0.87699 0.29329 0.82826 0.0
C3716 C 0.57914 0.15418 0.55744 0.0
C3717 C 0.55992 0.16534 0.56074 0.0
H3718 H 0.59141 0.1218 0.55109 0.0
C3719 C 0.53744 0.14991 0.5591 0.0
H3720 H 0.59683 0.1647 0.55813 0.0
C3721 C 0.5344 0.12495 0.55456 0.0
C3722 C 0.55361 0.11392 0.55137 0.0
H3723 H 0.52194 0.15695 0.56181 0.0
H3724 H 0.51671 0.11424 0.55352 0.0
C3725 C 0.57603 0.12917 0.55293 0.0
C3726 C 0.63871 0.81154 0.38993 0.0
C3727 C 0.61931 0.79224 0.38228 0.0
H3728 H 0.67035 0.83273 0.38038 0.0
C3729 C 0.6191 0.7777 0.35962 0.0
H3730 H 0.63993 0.82286 0.40746 0.0
C3731 C 0.63689 0.78317 0.34442 0.0
C3732 C 0.65535 0.8032 0.35151 0.0
H3733 H 0.60452 0.76281 0.35286 0.0
H3734 H 0.63553 0.77246 0.32646 0.0
C3735 C 0.6564 0.81703 0.37464 0.0
C3736 C 0.05639 0.21424 0.46007 0.0
C3737 C 0.042 0.21407 0.43737 0.0
H3738 H 0.06175 0.19732 0.49278 0.0
C3739 C 0.02313 0.19439 0.42913 0.0
H3740 H 0.07094 0.22907 0.46723 0.0
C3741 C 0.01793 0.17625 0.44389 0.0
C3742 C 0.03161 0.1772 0.46706 0.0
H3743 H 1.01194 0.19329 0.41156 0.0
H3744 H 1.00256 0.162 0.43773 0.0
C3745 C 0.0512 0.19605 0.47476 0.0
C3746 C 0.68217 0.29634 0.25921 0.0
C3747 C 0.66662 0.27414 0.25868 0.0
H3748 H 0.71802 0.31666 0.26404 0.0
C3749 C 0.6775 0.25498 0.26287 0.0
H3750 H 0.67519 0.31171 0.25574 0.0
C3751 C 0.70244 0.25789 0.26721 0.0
C3752 C 0.71789 0.28001 0.26786 0.0
H3753 H 0.66681 0.23753 0.26303 0.0
H3754 H 0.70958 0.24256 0.26971 0.0
C3755 C 0.70712 0.29919 0.2637 0.0
C3756 C 0.56457 0.96456 0.94659 0.0
C3757 C 0.55893 0.94153 0.95318 0.0
H3758 H 0.56618 1.0018 0.95682 0.0
C3759 C 0.55093 0.93913 0.97647 0.0
H3760 H 0.57048 0.96713 0.92868 0.0
C3761 C 0.54851 0.95891 0.99256 0.0
C3762 C 0.55392 0.982 0.9861 0.0
H3763 H 0.5464 0.92178 0.98228 0.0
H3764 H 0.54172 0.95587 0.00988 0.0
C3765 C 0.56194 0.98447 0.96271 0.0
C3766 C 0.88779 0.77331 0.73893 0.0
C3767 C 0.90651 0.77208 0.75739 0.0
H3768 H 0.85149 0.77629 0.73012 0.0
C3769 C 0.90164 0.7741 0.78244 0.0
H3770 H 0.89043 0.77187 0.71944 0.0
C3771 C 0.87926 0.77745 0.7887 0.0
C3772 C 0.86042 0.77802 0.77011 0.0
H3773 H 0.91533 0.77345 0.79739 0.0
H3774 H 0.87656 0.77909 0.80817 0.0
C3775 C 0.86522 0.7758 0.7451 0.0
C3776 C 0.09505 0.03359 0.93747 0.0
C3777 C 0.08466 0.04583 0.91978 0.0
H3778 H 0.09524 0.02211 0.97382 0.0
C3779 C 0.06542 0.05555 0.926 0.0
H3780 H 0.11002 0.02602 0.9336 0.0
C3781 C 0.05686 0.05311 0.94898 0.0
C3782 C 0.06738 0.04109 0.96673 0.0
H3783 H 0.05673 0.06489 0.91295 0.0
H3784 H 0.04208 0.06096 0.95298 0.0
C3785 C 0.08666 0.03143 0.96066 0.0
C3786 C 0.81931 0.38639 0.63724 0.0
C3787 C 0.80818 0.37472 0.61368 0.0
H3788 H 0.83772 0.3831 0.67251 0.0
C3789 C 0.80427 0.35002 0.60853 0.0
H3790 H 0.82257 0.4055 0.64135 0.0
C3791 C 0.81337 0.3373 0.62608 0.0
C3792 C 0.82604 0.34925 0.64891 0.0
H3793 H 0.79586 0.34084 0.59031 0.0
H3794 H 0.81137 0.31836 0.6215 0.0
C3795 C 0.82807 0.37367 0.65486 0.0
C3796 C 0.48919 0.05042 0.44074 0.0
C3797 C 0.47605 0.02796 0.42967 0.0
H3798 H 0.51442 0.07008 0.47122 0.0
C3799 C 0.48013 1.00769 0.43979 0.0
H3800 H 0.48727 0.06633 0.43292 0.0
C3801 C 0.49687 1.0099 0.46058 0.0
C3802 C 0.50848 0.03238 0.47232 0.0
H3803 H 0.47006 0.99013 0.43221 0.0
H3804 H 0.49971 0.9942 0.46839 0.0
C3805 C 0.50492 0.05264 0.46235 0.0
C3806 C 0.77429 0.77448 0.16762 0.0
C3807 C 0.78269 0.75431 0.1593 0.0
H3808 H 0.76879 0.79767 0.19918 0.0
C3809 C 0.79154 0.74159 0.17722 0.0
H3810 H 0.76741 0.78467 0.15419 0.0
C3811 C 0.79201 0.74874 0.20282 0.0
C3812 C 0.78385 0.76903 0.21138 0.0
H3813 H 0.79786 0.72584 0.17138 0.0
H3814 H 0.79885 0.73824 0.21593 0.0
C3815 C 0.77504 0.78188 0.19339 0.0
C3816 C 0.07664 0.06954 0.64934 0.0
C3817 C 0.0799 0.04904 0.6597 0.0
H3818 H 0.06663 0.08478 0.61679 0.0
C3819 C 0.07433 0.02746 0.64332 0.0
H3820 H 0.08005 0.08653 0.66094 0.0
C3821 C 0.06571 0.02646 0.61786 0.0
C3822 C 0.06278 0.04703 0.60763 0.0
H3823 H 0.07693 0.01122 0.64995 0.0
H3824 H 0.06163 1.0095 0.60609 0.0
C3825 C 0.06858 0.06857 0.62378 0.0
C3826 C 0.78397 0.34426 0.37944 0.0
C3827 C 0.80655 0.35649 0.39121 0.0
H3828 H 0.76419 0.31956 0.34857 0.0
C3829 C 0.8268 0.35136 0.38171 0.0
H3830 H 0.768 0.34694 0.38672 0.0
C3831 C 0.82447 0.33448 0.36093 0.0
C3832 C 0.80196 0.32378 0.34848 0.0
H3833 H 0.84449 0.3607 0.3898 0.0
H3834 H 0.84018 0.33083 0.35368 0.0
C3835 C 0.78171 0.32838 0.35785 0.0
C3836 C 0.47871 0.0324 0.20667 0.0
C3837 C 0.45468 0.02126 0.20393 0.0
H3838 H 0.51198 0.03257 0.19319 0.0
C3839 C 0.44477 1.00412 0.18316 0.0
H3840 H 0.48668 0.04561 0.22259 0.0
C3841 C 0.45924 0.99657 0.1667 0.0
C3842 C 0.48358 1.0062 0.17094 0.0
H3843 H 0.42617 0.99552 0.18062 0.0
H3844 H 0.4517 0.98241 0.15152 0.0
C3845 C 0.49317 0.02479 0.19021 0.0
C3846 C 0.80899 0.75811 0.89426 0.0
C3847 C 0.78677 0.7486 0.90148 0.0
H3848 H 0.82809 0.77199 0.86544 0.0
C3849 C 0.76647 0.7469 0.88398 0.0
H3850 H 0.82512 0.76081 0.90717 0.0
C3851 C 0.76829 0.75451 0.86052 0.0
C3852 C 0.79046 0.76258 0.85293 0.0
H3853 H 0.74896 0.73963 0.88816 0.0
H3854 H 0.75217 0.75427 0.84843 0.0
C3855 C 0.81079 0.7647 0.87025 0.0
C3856 C 0.8607 0.05581 0.02594 0.0
C3857 C 0.86714 0.06946 0.04959 0.0
H3858 H 0.87305 0.04229 0.99279 0.0
C3859 C 0.89088 0.07619 0.06026 0.0
H3860 H 0.84231 0.05073 0.01755 0.0
C3861 C 0.90831 0.07156 0.0461 0.0
C3862 C 0.90189 0.06043 0.02131 0.0
H3863 H 0.89598 0.08704 0.07836 0.0
H3864 H 0.92677 0.07804 0.05384 0.0
C3865 C 0.8781 0.05154 0.01167 0.0
C3866 C 0.44097 0.4819 0.02275 0.0
C3867 C 0.43363 0.47838 0.04631 0.0
H3868 H 0.46742 0.4993 1.00248 0.0
C3869 C 0.44888 0.49081 0.06782 0.0
H3870 H 0.43072 0.47248 0.00549 0.0
C3871 C 0.47092 0.50507 0.06584 0.0
C3872 C 0.47784 0.50824 0.04233 0.0
H3873 H 0.44407 0.48962 0.08636 0.0
H3874 H 0.48253 0.51377 0.0827 0.0
C3875 C 0.46235 0.4972 0.02084 0.0
C3876 C 0.35723 0.61561 0.80196 0.0
C3877 C 0.37229 0.6166 0.78341 0.0
H3878 H 0.33759 0.63449 0.82497 0.0
C3879 C 0.3761 0.63665 0.77095 0.0
H3880 H 0.35367 0.60018 0.81152 0.0
C3881 C 0.36667 0.6562 0.77852 0.0
C3882 C 0.35334 0.65581 0.79853 0.0
H3883 H 0.38768 0.63787 0.75662 0.0
H3884 H 0.37116 0.67216 0.76998 0.0
C3885 C 0.34791 0.63509 0.80953 0.0
C3886 C 0.14105 0.54539 0.52865 0.0
C3887 C 0.15272 0.56689 0.54291 0.0
H3888 H 0.10761 0.52128 0.51723 0.0
C3889 C 0.14001 0.58232 0.55397 0.0
H3890 H 0.15088 0.5336 0.51983 0.0
C3891 C 0.11561 0.5758 0.5517 0.0
C3892 C 0.10408 0.55367 0.5388 0.0
H3893 H 0.14903 0.59915 0.56474 0.0
H3894 H 0.10597 0.58723 0.56144 0.0
C3895 C 0.11661 0.53859 0.52691 0.0
C3896 C 0.73424 0.93498 0.76362 0.0
C3897 C 0.74914 0.95176 0.7526 0.0
H3898 H 0.73261 0.91112 0.79092 0.0
C3899 C 0.77356 0.95296 0.75535 0.0
H3900 H 0.71535 0.9342 0.76189 0.0
C3901 C 0.78337 0.94001 0.77207 0.0
C3902 C 0.76867 0.92607 0.78593 0.0
H3903 H 0.78522 0.96609 0.74719 0.0
H3904 H 0.80244 0.94231 0.77567 0.0
C3905 C 0.74406 0.9224 0.78066 0.0
C3906 C 0.69433 0.95778 0.54709 0.0
C3907 C 0.71612 0.96204 0.53765 0.0
H3908 H 0.65887 0.9637 0.54414 0.0
C3909 C 0.72034 0.97905 0.52141 0.0
H3910 H 0.69075 0.94473 0.55968 0.0
C3911 C 0.70241 0.98999 0.51286 0.0
C3912 C 0.67981 0.98398 0.52018 0.0
H3913 H 0.73712 0.98283 0.51416 0.0
H3914 H 0.70567 1.00187 0.49903 0.0
C3915 C 0.67619 0.96869 0.53832 0.0
C3916 C 0.34013 0.39733 0.78712 0.0
C3917 C 0.35694 0.39935 0.77029 0.0
H3918 H 0.31346 0.3744 0.80249 0.0
C3919 C 0.35877 0.37882 0.75501 0.0
H3920 H 0.33808 0.4128 0.79902 0.0
C3921 C 0.34463 0.35678 0.75698 0.0
C3922 C 0.32812 0.35471 0.77413 0.0
H3923 H 0.37168 0.37967 0.74204 0.0
H3924 H 0.34689 0.34129 0.74529 0.0
C3925 C 0.32584 0.37532 0.78896 0.0
C3926 C 0.26682 0.68812 0.29166 0.0
C3927 C 0.2689 0.67445 0.26934 0.0
H3928 H 0.27022 0.72312 0.31066 0.0
C3929 C 0.27655 0.68532 0.24915 0.0
H3930 H 0.2604 0.67992 0.30725 0.0
C3931 C 0.28165 0.70966 0.25106 0.0
C3932 C 0.27935 0.72326 0.2731 0.0
H3933 H 0.27798 0.67501 0.23171 0.0
H3934 H 0.28669 0.7177 0.23509 0.0
C3935 C 0.27197 0.71259 0.29349 0.0
C3936 C 0.51443 0.63164 0.49167 0.0
C3937 C 0.52519 0.65303 0.5075 0.0
H3938 H 0.509 0.59362 0.48448 0.0
C3939 C 0.53951 0.65057 0.52955 0.0
H3940 H 0.50366 0.63212 0.47426 0.0
C3941 C 0.54268 0.62807 0.53546 0.0
C3942 C 0.53178 0.60676 0.51961 0.0
H3943 H 0.5481 0.6661 0.54268 0.0
H3944 H 0.55358 0.62743 0.55273 0.0
C3945 C 0.51762 0.6092 0.49755 0.0
C3946 C 0.71489 0.31903 0.70992 0.0
C3947 C 0.69355 0.30173 0.7064 0.0
H3948 H 0.75112 0.33012 0.72742 0.0
C3949 C 0.69312 0.28216 0.71967 0.0
H3950 H 0.7162 0.3343 0.70008 0.0
C3951 C 0.71311 0.28 0.7358 0.0
C3952 C 0.73455 0.29704 0.7389 0.0
H3953 H 0.67713 0.26849 0.71779 0.0
H3954 H 0.71188 0.26465 0.74554 0.0
C3955 C 0.73507 0.31658 0.72562 0.0
C3956 C 1.00692 0.42504 0.00831 0.0
C3957 C 0.02631 0.41379 0.01182 0.0
H3958 H 0.99444 0.45762 0.00983 0.0
C3959 C 0.04855 0.42895 0.02107 0.0
H3960 H 0.98944 0.41466 1.00094 0.0
C3961 C 0.05136 0.45382 0.02608 0.0
C3962 C 0.03209 0.46503 0.02237 0.0
H3963 H 0.06408 0.42171 0.02477 0.0
H3964 H 0.06892 0.46433 0.03302 0.0
C3965 C 1.00976 0.45003 0.01346 0.0
C3966 C 0.9496 0.76627 0.18073 0.0
C3967 C 0.96703 0.78736 0.18723 0.0
H3968 H 0.91926 0.74353 0.19081 0.0
C3969 C 0.96458 0.80352 0.20762 0.0
H3970 H 0.95048 0.75365 0.16481 0.0
C3971 C 0.94631 0.79781 0.22227 0.0
C3972 C 0.93009 0.77593 0.21673 0.0
H3973 H 0.97762 0.81991 0.21323 0.0
H3974 H 0.94578 0.8098 0.23885 0.0
C3975 C 0.93148 0.76056 0.19539 0.0
C3976 C 0.52896 0.36827 0.11144 0.0
C3977 C 0.54506 0.36629 0.13206 0.0
H3978 H 0.52235 0.38692 0.08025 0.0
C3979 C 0.5658 0.38418 0.13877 0.0
H3980 H 0.51287 0.35486 0.10561 0.0
C3981 C 0.57115 0.40242 0.12422 0.0
C3982 C 0.55578 0.40348 0.10278 0.0
H3983 H 0.57836 0.38366 0.15485 0.0
H3984 H 0.5879 0.4151 0.12902 0.0
C3985 C 0.53431 0.38667 0.09692 0.0
C3986 C 0.90839 0.31768 0.2951 0.0
C3987 C 0.91923 0.30498 0.31203 0.0
H3988 H 0.87627 0.32434 0.27668 0.0
C3989 C 0.90374 0.28946 0.32423 0.0
H3990 H 0.91915 0.32951 0.28479 0.0
C3991 C 0.87882 0.2868 0.31974 0.0
C3992 C 0.86801 0.2995 0.30284 0.0
H3993 H 0.91083 0.27946 0.33769 0.0
H3994 H 0.86798 0.27469 0.32972 0.0
C3995 C 0.88343 0.31486 0.29051 0.0
C3996 C 0.02779 0.61769 0.62372 0.0
C3997 C 0.02793 0.63965 0.61511 0.0
H3998 H 0.02897 0.58109 0.61487 0.0
C3999 C 0.02993 0.64089 0.58969 0.0
H4000 H 0.02618 0.61599 0.64314 0.0
C4001 C 0.03222 0.621 0.57354 0.0
C4002 C 0.03198 0.5989 0.58196 0.0
H4003 H 0.03025 0.65748 0.58235 0.0
H4004 H 0.03418 0.6231 0.5544 0.0
C4005 C 0.02938 0.5976 0.60737 0.0
C4006 C 0.68172 0.79281 0.78959 0.0
C4007 C 0.67918 0.80509 0.81284 0.0
H4008 H 0.70497 0.78001 0.76552 0.0
C4009 C 0.70014 0.81319 0.83005 0.0
H4010 H 0.66637 0.78635 0.77554 0.0
C4011 C 0.72243 0.80933 0.82434 0.0
C4012 C 0.72504 0.79732 0.80101 0.0
H4013 H 0.69931 0.82234 0.84832 0.0
H4014 H 0.73773 0.81581 0.83845 0.0
C4015 C 0.70411 0.78914 0.78376 0.0
C4016 C 0.49347 0.54641 0.6329 0.0
C4017 C 0.50292 0.53297 0.6499 0.0
H4018 H 0.49399 0.55878 0.597 0.0
C4019 C 0.52115 0.52197 0.64311 0.0
H4020 H 0.4793 0.55501 0.63735 0.0
C4021 C 0.52978 0.52445 0.62019 0.0
C4022 C 0.52017 0.53765 0.60309 0.0
H4023 H 0.52901 0.51163 0.65568 0.0
H4024 H 0.54384 0.5157 0.61572 0.0
C4025 C 0.5018 0.54851 0.60969 0.0
C4026 C 0.78026 0.20369 0.93941 0.0
C4027 C 0.77346 0.21118 0.96245 0.0
H4028 H 0.77479 0.20383 0.89976 0.0
C4029 C 0.75953 0.22824 0.96393 0.0
H4030 H 0.79098 0.19053 0.93788 0.0
C4031 C 0.74979 0.2352 0.94221 0.0
C4032 C 0.75442 0.22561 0.91898 0.0
H4033 H 0.75447 0.23454 0.98165 0.0
H4034 H 0.73764 0.24701 0.94343 0.0
C4035 C 0.7708 0.21101 0.91768 0.0
C4036 C 0.09923 0.57157 0.13658 0.0
C4037 C 0.1132 0.5548 0.13938 0.0
H4038 H 0.07146 0.58134 0.11357 0.0
C4039 C 0.11085 0.53543 0.12086 0.0
H4040 H 0.10088 0.58655 0.1509 0.0
C4041 C 0.09403 0.53224 0.10014 0.0
C4042 C 0.07962 0.54863 0.09749 0.0
H4043 H 0.12175 0.5225 0.12267 0.0
H4044 H 0.09226 0.51685 0.08629 0.0
C4045 C 0.08235 0.56844 0.1156 0.0
C4046 C 0.78908 0.83267 0.39413 0.0
C4047 C 0.80333 0.82448 0.41238 0.0
H4048 H 0.77757 0.83241 0.35529 0.0
C4049 C 0.81699 0.80843 0.40399 0.0
H4050 H 0.7785 0.84522 0.39956 0.0
C4051 C 0.81639 0.80091 0.37825 0.0
C4052 C 0.80246 0.80955 0.3601 0.0
H4053 H 0.82803 0.80147 0.41735 0.0
H4054 H 0.827 0.78849 0.37265 0.0
C4055 C 0.78872 0.82542 0.36853 0.0
C4056 C 0.49552 0.54314 0.92734 0.0
C4057 C 0.50647 0.53133 0.90947 0.0
H4058 H 0.49368 0.55363 0.96594 0.0
C4059 C 0.52484 0.52055 0.91837 0.0
H4060 H 0.481 0.55125 0.92153 0.0
C4061 C 0.53214 0.52182 0.94422 0.0
C4062 C 0.52122 0.5338 0.962 0.0
H4063 H 0.53392 0.51144 0.90535 0.0
H4064 H 0.54654 0.51363 0.9502 0.0
C4065 C 0.50275 0.54436 0.95305 0.0
C4066 C 0.76098 0.23434 0.18375 0.0
C4067 C 0.77782 0.22033 0.18159 0.0
H4068 H 0.75061 0.2622 0.2061 0.0
C4069 C 0.79682 0.22288 0.2006 0.0
H4070 H 0.74628 0.2326 0.16908 0.0
C4071 C 0.79945 0.23977 0.22125 0.0
C4072 C 0.7829 0.25408 0.22329 0.0
H4073 H 0.80982 0.21199 0.19933 0.0
H4074 H 0.8146 0.24178 0.23543 0.0
C4075 C 0.76357 0.25129 0.20459 0.0
C4076 C 0.14301 0.5764 0.38609 0.0
C4077 C 0.13124 0.55806 0.3672 0.0
H4078 H 0.13947 0.60058 0.41741 0.0
C4079 C 0.10736 0.54765 0.36721 0.0
H4080 H 0.16143 0.58471 0.38605 0.0
C4081 C 0.09479 0.55699 0.38482 0.0
C4082 C 0.1062 0.57663 0.40229 0.0
H4083 H 0.09807 0.53368 0.35251 0.0
H4084 H 0.07605 0.54962 0.38414 0.0
C4085 C 0.1305 0.58566 0.40362 0.0
C4086 C 0.80918 0.81006 0.6764 0.0
C4087 C 0.79983 0.82966 0.67108 0.0
H4088 H 0.81408 0.78582 0.7024 0.0
C4089 C 0.78806 0.84011 0.68915 0.0
H4090 H 0.81822 0.80154 0.66285 0.0
C4091 C 0.78591 0.8313 0.71208 0.0
C4092 C 0.79504 0.81149 0.71729 0.0
H4093 H 0.78081 0.85535 0.68566 0.0
H4094 H 0.77702 0.83994 0.72569 0.0
C4095 C 0.80667 0.801 0.69907 0.0
C4096 C 0.70776 0.52261 0.5116 0.0
C4097 C 0.70936 0.49928 0.50386 0.0
H4098 H 0.69152 0.54512 0.53458 0.0
C4099 C 0.69312 0.48035 0.51033 0.0
H4100 H 0.72033 0.5374 0.50699 0.0
C4101 C 0.67709 0.48472 0.52651 0.0
C4102 C 0.67696 0.50802 0.53596 0.0
H4103 H 0.6943 0.4622 0.50484 0.0
H4104 H 0.66547 0.46997 0.53241 0.0
C4105 C 0.6916 0.52697 0.52758 0.0
C4106 C 0.14387 0.10077 0.54899 0.0
C4107 C 0.15287 0.10134 0.5258 0.0
H4108 H 0.11602 0.08595 0.5692 0.0
C4109 C 0.13916 0.08598 0.50495 0.0
H4110 H 0.15281 0.11231 0.56568 0.0
C4111 C 0.11706 0.07183 0.50698 0.0
C4112 C 0.10846 0.0717 0.53008 0.0
H4113 H 0.14517 0.08474 0.48684 0.0
H4114 H 0.10668 0.06088 0.49046 0.0
C4115 C 0.12238 0.08571 0.55117 0.0
C4116 C 0.19531 0.93686 0.76697 0.0
C4117 C 0.20624 0.9547 0.78673 0.0
H4118 H 0.19895 0.90703 0.74215 0.0
C4119 C 0.22816 0.95348 0.79968 0.0
H4120 H 0.17829 0.93728 0.75689 0.0
C4121 C 0.24003 0.936 0.79121 0.0
C4122 C 0.22999 0.91966 0.76982 0.0
H4123 H 0.2369 0.96706 0.81498 0.0
H4124 H 0.25777 0.93647 0.80004 0.0
C4125 C 0.20705 0.91952 0.75861 0.0
C4126 C 0.44937 0.03304 0.0262 0.0
C4127 C 0.43542 0.01241 0.0123 0.0
H4128 H 0.48441 0.052 0.04026 0.0
C4129 C 0.4458 0.9956 0.99972 0.0
H4130 H 0.44139 0.04593 0.03614 0.0
C4131 C 0.47026 0.99864 1.00259 0.0
C4132 C 0.4842 0.01882 0.01735 0.0
H4133 H 0.43496 0.97946 0.98908 0.0
H4134 H 0.47822 0.98495 0.99415 0.0
C4135 C 0.47378 0.03643 0.02842 0.0
C4136 C 0.81188 0.62739 0.80806 0.0
C4137 C 0.83531 0.62608 0.81569 0.0
H4138 H 0.78894 0.64221 0.78414 0.0
C4139 C 0.85405 0.64152 0.80785 0.0
H4140 H 0.79722 0.61539 0.81368 0.0
C4141 C 0.84936 0.65652 0.79067 0.0
C4142 C 0.82593 0.65637 0.78147 0.0
H4143 H 0.87227 0.64049 0.81318 0.0
H4144 H 0.86397 0.66762 0.78396 0.0
C4145 C 0.80721 0.64241 0.79094 0.0
C4146 C 0.89827 0.63885 0.04807 0.0
C4147 C 0.87813 0.62652 0.03172 0.0
H4148 H 0.9301 0.63654 0.07049 0.0
C4149 C 0.87678 0.60289 0.02174 0.0
H4150 H 0.89971 0.65714 0.05581 0.0
C4151 C 0.89426 0.59108 0.03015 0.0
C4152 C 0.91315 0.60292 0.04845 0.0
H4153 H 0.86133 0.59307 0.00914 0.0
H4154 H 0.89197 0.57232 0.02401 0.0
C4155 C 0.91565 0.62715 0.05636 0.0
C4156 C 0.23006 0.19994 0.81665 0.0
C4157 C 0.2299 0.17988 0.79956 0.0
H4158 H 0.24345 0.2372 0.82771 0.0
C4159 C 0.24477 0.1823 0.78082 0.0
H4160 H 0.2187 0.19874 0.83118 0.0
C4161 C 0.25915 0.20427 0.779 0.0
C4162 C 0.25877 0.22446 0.79565 0.0
H4163 H 0.24521 0.16718 0.76746 0.0
H4164 H 0.27005 0.20555 0.76407 0.0
C4165 C 0.24416 0.222 0.81459 0.0
C4166 C 0.32677 0.8944 0.31344 0.0
C4167 C 0.31676 0.90414 0.29351 0.0
H4168 H 0.32964 0.86263 0.32855 0.0
C4169 C 0.30202 0.88973 0.2732 0.0
H4170 H 0.33864 0.90552 0.32895 0.0
C4171 C 0.29677 0.86546 0.27318 0.0
C4172 C 0.30687 0.85591 0.29309 0.0
H4173 H 0.29465 0.89726 0.2576 0.0
H4174 H 0.28506 0.85418 0.2577 0.0
C4175 C 0.32195 0.87019 0.31312 0.0
C4176 C 0.55932 0.44434 0.58164 0.0
C4177 C 0.56065 0.42566 0.56313 0.0
H4178 H 0.55611 0.48054 0.59061 0.0
C4179 C 0.55856 0.4306 0.5381 0.0
H4180 H 0.56078 0.44167 0.60111 0.0
C4181 C 0.55504 0.45294 0.53195 0.0
C4182 C 0.5544 0.47176 0.5506 0.0
H4183 H 0.55925 0.41697 0.52309 0.0
H4184 H 0.55331 0.45564 0.51249 0.0
C4185 C 0.55669 0.46689 0.57557 0.0
C4186 C 0.37401 0.75746 0.35485 0.0
C4187 C 0.39284 0.77719 0.36417 0.0
H4188 H 0.33986 0.74413 0.33239 0.0
C4189 C 0.3902 0.79911 0.35643 0.0
H4190 H 0.37467 0.74006 0.35953 0.0
C4191 C 0.3705 0.80105 0.33989 0.0
C4192 C 0.35192 0.78146 0.33097 0.0
H4193 H 0.40306 0.81529 0.36319 0.0
H4194 H 0.36951 0.81825 0.33461 0.0
C4195 C 0.35382 0.75966 0.33893 0.0
C4196 C 0.08013 0.65399 0.06302 0.0
C4197 C 0.06108 0.66556 0.05826 0.0
H4198 H 0.09236 0.62133 0.0622 0.0
C4199 C 0.03909 0.65041 0.04767 0.0
H4200 H 0.09746 0.66395 0.07138 0.0
C4201 C 0.03623 0.62552 0.04269 0.0
C4202 C 0.05521 0.61419 0.04755 0.0
H4203 H 0.02367 0.65749 0.04291 0.0
H4204 H 0.01887 0.61509 0.03481 0.0
C4205 C 0.07727 0.62903 0.0577 0.0
C4206 C 0.13974 0.31008 0.89126 0.0
C4207 C 0.11994 0.29139 0.88283 0.0
H4208 H 0.17189 0.33108 0.88259 0.0
C4209 C 0.11956 0.27746 0.85975 0.0
H4210 H 0.14105 0.32089 0.90913 0.0
C4211 C 0.13756 0.28309 0.84481 0.0
C4212 C 0.15641 0.30267 0.85264 0.0
H4213 H 0.10467 0.26302 0.85246 0.0
H4214 H 0.13602 0.27301 0.82647 0.0
C4215 C 0.15766 0.31573 0.87627 0.0
C4216 C 0.55419 0.69988 0.94219 0.0
C4217 C 0.5404 0.71722 0.94274 0.0
H4218 H 0.55785 0.66571 0.95163 0.0
C4219 C 0.52105 0.71425 0.95638 0.0
H4220 H 0.56918 0.70152 0.93185 0.0
C4221 C 0.51462 0.69383 0.96757 0.0
C4222 C 0.52747 0.67586 0.96569 0.0
H4223 H 0.51038 0.72745 0.95781 0.0
H4224 H 0.49896 0.69163 0.97692 0.0
C4225 C 0.54777 0.67939 0.95357 0.0
C4226 C 0.18148 0.79434 0.75918 0.0
C4227 C 0.16571 0.77266 0.7603 0.0
H4228 H 0.21739 0.81409 0.76277 0.0
C4229 C 0.1763 0.75382 0.7665 0.0
H4230 H 0.17471 0.80939 0.75409 0.0
C4231 C 0.20123 0.75652 0.77119 0.0
C4232 C 0.21692 0.77816 0.77013 0.0
H4233 H 0.16536 0.7368 0.76799 0.0
H4234 H 0.20812 0.74146 0.77546 0.0
C4235 C 0.20637 0.79701 0.76399 0.0
C4236 C 0.06889 0.46251 0.45508 0.0
C4237 C 0.05599 0.43958 0.45674 0.0
H4238 H 0.07634 0.49976 0.4688 0.0
C4239 C 0.04083 0.43745 0.47534 0.0
H4240 H 0.08061 0.46514 0.44101 0.0
C4241 C 0.03834 0.45737 0.49131 0.0
C4242 C 0.05084 0.48033 0.48935 0.0
H4243 H 0.03079 0.42023 0.47766 0.0
H4244 H 0.0262 0.45471 0.50497 0.0
C4245 C 0.0663 0.4825 0.47101 0.0
C4246 C 0.38844 0.2749 0.23831 0.0
C4247 C 0.40676 0.27256 0.25668 0.0
H4248 H 0.35242 0.27883 0.22946 0.0
C4249 C 0.40142 0.27343 0.28156 0.0
H4250 H 0.39143 0.27438 0.21895 0.0
C4251 C 0.37902 0.27675 0.28773 0.0
C4252 C 0.36058 0.27842 0.26921 0.0
H4253 H 0.41477 0.27193 0.29647 0.0
H4254 H 0.37599 0.27753 0.3071 0.0
C4255 C 0.36582 0.27737 0.24436 0.0
C4256 C 0.57498 0.56436 0.43251 0.0
C4257 C 0.58303 0.54568 0.41959 0.0
H4258 H 0.5601 0.57684 0.46464 0.0
C4259 C 0.58201 0.5248 0.43092 0.0
H4260 H 0.57569 0.58101 0.42532 0.0
C4261 C 0.57421 0.52307 0.45441 0.0
C4262 C 0.56627 0.54174 0.46691 0.0
H4263 H 0.58703 0.50949 0.42172 0.0
H4264 H 0.57383 0.50686 0.46252 0.0
C4265 C 0.56623 0.56217 0.45543 0.0
C4266 C 0.33094 0.88854 0.13749 0.0
C4267 C 0.31518 0.87835 0.11577 0.0
H4268 H 0.35082 0.88229 0.17068 0.0
C4269 C 0.30504 0.85404 0.11226 0.0
H4270 H 0.33879 0.90732 0.14061 0.0
C4271 C 0.31217 0.83976 0.12924 0.0
C4272 C 0.32918 0.84981 0.14994 0.0
H4273 H 0.29286 0.84586 0.09561 0.0
H4274 H 0.30504 0.82085 0.12583 0.0
C4275 C 0.33784 0.87433 0.15456 0.0
C4276 C 0.99008 0.5494 0.93914 0.0
C4277 C 0.97651 0.52691 0.92877 0.0
H4278 H 0.01596 0.56938 0.96885 0.0
C4279 C 0.9806 0.50681 0.93924 0.0
H4280 H 0.98815 0.56516 0.93104 0.0
C4281 C 0.99772 0.50924 0.95979 0.0
C4282 C 1.00979 0.53181 0.97086 0.0
H4283 H 0.9702 0.48926 0.93217 0.0
H4284 H 1.00041 0.4937 0.96802 0.0
C4285 C 1.00624 0.55186 0.96045 0.0
C4286 C 0.28471 0.23795 0.6761 0.0
C4287 C 0.2818 0.25345 0.65857 0.0
H4288 H 0.28798 0.2328 0.71466 0.0
C4289 C 0.27942 0.27643 0.66726 0.0
H4290 H 0.28639 0.2201 0.66991 0.0
C4291 C 0.27997 0.28373 0.69302 0.0
C4292 C 0.28325 0.26828 0.71066 0.0
H4293 H 0.27706 0.28871 0.65412 0.0
H4294 H 0.27821 0.30156 0.69915 0.0
C4295 C 0.28558 0.24529 0.70176 0.0
C4296 C 0.56256 0.55864 0.15464 0.0
C4297 C 0.5806 0.54711 0.16234 0.0
H4298 H 0.54059 0.56691 0.12408 0.0
C4299 C 0.5907 0.53515 0.14381 0.0
H4300 H 0.55422 0.56781 0.16839 0.0
C4301 C 0.58338 0.53525 0.11829 0.0
C4302 C 0.56544 0.54694 0.11056 0.0
H4303 H 0.60472 0.52619 0.14905 0.0
H4304 H 0.59187 0.52618 0.10462 0.0
C4305 C 0.55483 0.55823 0.12915 0.0
C4306 C 0.28344 0.84348 0.87961 0.0
C4307 C 0.30596 0.85645 0.89074 0.0
H4308 H 0.26367 0.81802 0.84939 0.0
C4309 C 0.32621 0.85193 0.88074 0.0
H4310 H 0.26751 0.84569 0.88728 0.0
C4311 C 0.32393 0.83484 0.86016 0.0
C4312 C 0.3014 0.82334 0.84839 0.0
H4313 H 0.34383 0.86187 0.88829 0.0
H4314 H 0.33962 0.83166 0.85251 0.0
C4315 C 0.28117 0.82741 0.8582 0.0
C4316 C 0.9444 0.50159 0.68412 0.0
C4317 C 0.95571 0.51764 0.70528 0.0
H4318 H 0.94878 0.48029 0.65095 0.0
C4319 C 0.98026 0.5265 0.70797 0.0
H4320 H 0.92543 0.49474 0.68159 0.0
C4321 C 0.99355 0.51799 0.69062 0.0
C4322 C 0.9823 0.50082 0.67047 0.0
H4323 H 0.98929 0.53887 0.72417 0.0
H4324 H 1.01259 0.52438 0.69318 0.0
C4325 C 0.95765 0.49325 0.66677 0.0
C4326 C 0.30745 0.25031 0.389 0.0
C4327 C 0.28657 0.24953 0.40042 0.0
H4328 H 0.32552 0.25838 0.3574 0.0
C4329 C 0.26805 0.2578 0.38753 0.0
H4330 H 0.32265 0.24508 0.39812 0.0
C4331 C 0.27039 0.26658 0.36466 0.0
C4332 C 0.2908 0.26639 0.35311 0.0
H4333 H 0.25139 0.25726 0.39471 0.0
H4334 H 0.2558 0.27287 0.35551 0.0
C4335 C 0.30932 0.25817 0.36554 0.0
C4336 C 0.398 0.59969 0.5592 0.0
C4337 C 0.37992 0.58177 0.56441 0.0
H4338 H 0.42668 0.60816 0.53795 0.0
C4339 C 0.37967 0.55802 0.5566 0.0
H4340 H 0.39795 0.61816 0.56471 0.0
C4341 C 0.39583 0.55236 0.54119 0.0
C4342 C 0.41205 0.57051 0.53344 0.0
H4343 H 0.36539 0.54413 0.55998 0.0
H4344 H 0.39444 0.53401 0.53375 0.0
C4345 C 0.41388 0.59408 0.54344 0.0
C4346 C 0.94095 0.99666 0.56483 0.0
C4347 C 0.93012 0.97683 0.54698 0.0
H4348 H 0.97135 0.02535 0.57647 0.0
C4349 C 0.94179 0.9717 0.52633 0.0
H4350 H 0.93242 1.00143 0.58078 0.0
C4351 C 0.96352 0.9857 0.52364 0.0
C4352 C 0.97468 1.00482 0.54181 0.0
H4353 H 0.93444 0.95651 0.5123 0.0
H4354 H 0.97164 0.98148 0.50723 0.0
C4355 C 0.96306 0.01057 0.56223 0.0
C4356 C 0.85966 0.11785 0.30404 0.0
C4357 C 0.87329 0.11763 0.28424 0.0
H4358 H 0.84116 0.13789 0.3273 0.0
C4359 C 0.87569 0.13661 0.27015 0.0
H4360 H 0.85712 0.10324 0.31489 0.0
C4361 C 0.86628 0.15631 0.27712 0.0
C4362 C 0.85439 0.15721 0.29819 0.0
H4363 H 0.88615 0.13692 0.25484 0.0
H4364 H 0.86966 0.17147 0.26713 0.0
C4365 C 0.85039 0.13752 0.31104 0.0
C4366 C 0.64167 0.08458 0.07235 0.0
C4367 C 0.65257 0.06756 0.06088 0.0
H4368 H 0.60897 0.09536 0.07607 0.0
C4369 C 0.63891 0.04684 0.04676 0.0
H4370 H 0.65213 0.10085 0.08307 0.0
C4371 C 0.61448 0.04359 0.04326 0.0
C4372 C 0.60368 0.06132 0.05339 0.0
H4373 H 0.64716 0.03375 0.03761 0.0
H4374 H 0.60419 0.02789 0.03136 0.0
C4375 C 0.61722 0.08161 0.06828 0.0
C4376 C 0.2549 0.43891 0.25437 0.0
C4377 C 0.26421 0.46294 0.26264 0.0
H4378 H 0.25122 0.40381 0.26391 0.0
C4379 C 0.28097 0.47007 0.28417 0.0
H4380 H 0.24166 0.43331 0.23799 0.0
C4381 C 0.28556 0.4535 0.29941 0.0
C4382 C 0.2739 0.42984 0.29268 0.0
H4383 H 0.288 0.48869 0.29081 0.0
H4384 H 0.29704 0.45928 0.31706 0.0
C4385 C 0.25981 0.42227 0.26944 0.0
C4386 C 0.18887 0.44023 0.02417 0.0
C4387 C 0.21022 0.45272 0.03847 0.0
H4388 H 0.15598 0.44244 1.00365 0.0
C4389 C 0.21284 0.47699 0.0468 0.0
H4390 H 0.18617 0.42144 0.01791 0.0
C4391 C 0.19535 0.48894 0.03883 0.0
C4392 C 0.17506 0.4767 0.02264 0.0
H4393 H 0.22912 0.48706 0.05783 0.0
H4394 H 0.19853 0.50797 0.04367 0.0
C4395 C 0.17148 0.45214 0.01626 0.0
C4396 C 0.85293 0.89216 0.29614 0.0
C4397 C 0.85684 0.89925 0.27261 0.0
H4398 H 0.83566 0.86563 0.31633 0.0
C4399 C 0.84547 0.88351 0.25101 0.0
H4400 H 0.86169 0.90289 0.31343 0.0
C4401 C 0.83153 0.8613 0.25296 0.0
C4402 C 0.82778 0.85469 0.27645 0.0
H4403 H 0.84723 0.88816 0.2325 0.0
H4404 H 0.82347 0.84937 0.23608 0.0
C4405 C 0.83811 0.87052 0.29797 0.0
C4406 C 0.79068 0.1864 0.76692 0.0
C4407 C 0.77111 0.17718 0.77831 0.0
H4408 H 0.81226 0.21745 0.75781 0.0
C4409 C 0.75853 0.19218 0.79035 0.0
H4410 H 0.80033 0.17486 0.75737 0.0
C4411 C 0.76494 0.21631 0.79017 0.0
C4412 C 0.78409 0.22556 0.77816 0.0
H4413 H 0.74303 0.18515 0.79878 0.0
H4414 H 0.75452 0.22758 0.79878 0.0
C4415 C 0.79734 0.21061 0.76709 0.0
loop_
_geom_bond_atom_site_label_1
_geom_bond_atom_site_label_2
_geom_bond_distance
_geom_bond_site_symmetry_2
_ccdc_geom_bond_type
Li0 N17 1.990 1_455 S
Li0 O60 1.956 . S
Li0 O61 1.970 . S
Li0 O62 1.961 . S
Li1 N25 1.990 . S
Li1 O60 1.970 . S
Li1 O61 1.956 . S
Li1 O63 1.961 . S
Li2 N47 1.990 . S
Li2 O60 1.961 . S
Li2 O62 1.956 . S
Li2 O63 1.970 . S
Li3 N53 1.990 . S
Li3 O61 1.961 . S
Li3 O62 1.970 . S
Li3 O63 1.956 . S
C4 C6 1.348 . S
C4 C7 1.356 . S
C4 O60 1.325 . S
N5 C8 1.314 . S
N5 C9 1.279 . S
C6 C4 1.348 . S
C6 C8 1.353 . S
C6 H64 0.929 . S
C7 C4 1.356 . S
C7 C9 1.358 . S
C7 H65 0.930 . S
C8 N5 1.314 . S
C8 C6 1.353 . S
C8 H66 0.930 . S
C9 N5 1.279 . S
C9 C7 1.358 . S
C9 H67 0.930 . S
C10 C13 1.366 . S
C10 C14 1.356 1_655 S
C10 O61 1.308 1_655 S
C11 N12 1.279 . S
C11 C14 1.358 1_655 S
C11 H68 0.930 . S
N12 C11 1.279 . S
N12 C15 1.314 . S
C13 C10 1.366 . S
C13 C15 1.353 . S
C13 H69 0.929 . S
C14 C10 1.356 1_455 S
C14 C11 1.358 1_455 S
C14 H70 0.930 . S
C15 N12 1.314 . S
C15 C13 1.353 . S
C15 H71 0.930 . S
C16 N17 1.314 . S
C16 C21 1.353 . S
C16 H22 0.930 . S
N17 Li0 1.990 1_655 S
N17 C16 1.314 . S
N17 C19 1.279 . S
C18 C19 1.358 . S
C18 C20 1.356 . S
C18 H72 0.930 . S
C19 N17 1.279 . S
C19 C18 1.358 . S
C19 H23 0.930 . S
C20 C18 1.356 . S
C20 C21 1.348 . S
C21 C16 1.353 . S
C21 C20 1.348 . S
C21 H73 0.929 . S
H22 C16 0.930 . S
H23 C19 0.930 . S
C24 N25 1.314 . S
C24 C26 1.353 . S
C24 H30 0.930 . S
N25 Li1 1.990 . S
N25 C24 1.314 . S
N25 C28 1.279 . S
C26 C24 1.353 . S
C26 C29 1.348 . S
C26 H74 0.929 . S
C27 C28 1.358 . S
C27 C29 1.356 . S
C27 H75 0.930 . S
C28 N25 1.279 . S
C28 C27 1.358 . S
C28 H31 0.930 . S
C29 C26 1.348 . S
C29 C27 1.356 . S
H30 C24 0.930 . S
H31 C28 0.930 . S
C32 C34 1.348 . S
C32 C35 1.356 . S
C32 O62 1.325 . S
N33 C36 1.314 . S
N33 C37 1.279 . S
C34 C32 1.348 . S
C34 C36 1.353 . S
C34 H76 0.929 . S
C35 C32 1.356 . S
C35 C37 1.358 . S
C35 H77 0.930 . S
C36 N33 1.314 . S
C36 C34 1.353 . S
C36 H78 0.930 . S
C37 N33 1.279 . S
C37 C35 1.358 . S
C37 H79 0.930 . S
C38 C39 1.348 . S
C38 C40 1.356 . S
C38 O63 1.325 . S
C39 C38 1.348 . S
C39 C41 1.353 . S
C39 H80 0.929 . S
C40 C38 1.356 . S
C40 C42 1.358 . S
C40 H81 0.930 . S
C41 C39 1.353 . S
C41 N43 1.314 . S
C41 H82 0.930 . S
C42 C40 1.358 . S
C42 N43 1.279 . S
C42 H83 0.930 . S
N43 C41 1.314 . S
N43 C42 1.279 . S
C44 C46 1.353 . S
C44 N47 1.314 . S
C44 H50 0.930 . S
C45 N47 1.279 . S
C45 C48 1.358 . S
C45 H51 0.930 . S
C46 C44 1.353 . S
C46 C49 1.348 . S
C46 H84 0.929 . S
N47 Li2 1.990 . S
N47 C44 1.314 . S
N47 C45 1.279 . S
C48 C45 1.358 . S
C48 C49 1.356 . S
C48 H85 0.930 . S
C49 C46 1.348 . S
C49 C48 1.356 . S
H50 C44 0.930 . S
H51 C45 0.930 . S
C52 N53 1.314 . S
C52 C54 1.353 . S
C52 H58 0.930 . S
N53 Li3 1.990 . S
N53 C52 1.314 . S
N53 C56 1.279 . S
C54 C52 1.353 . S
C54 C57 1.348 . S
C54 H86 0.929 . S
C55 C56 1.358 . S
C55 C57 1.356 . S
C55 H87 0.930 . S
C56 N53 1.279 . S
C56 C55 1.358 . S
C56 H59 0.930 . S
C57 C54 1.348 . S
C57 C55 1.356 . S
H58 C52 0.930 . S
H59 C56 0.930 . S
O60 Li0 1.956 . S
O60 Li1 1.970 . S
O60 Li2 1.961 . S
O60 C4 1.325 . S
O61 Li0 1.970 . S
O61 Li1 1.956 . S
O61 Li3 1.961 . S
O61 C10 1.308 1_455 S
O62 Li0 1.961 . S
O62 Li2 1.956 . S
O62 Li3 1.970 . S
O62 C32 1.325 . S
O63 Li1 1.961 . S
O63 Li2 1.970 . S
O63 Li3 1.956 . S
O63 C38 1.325 . S
H64 C6 0.929 . S
H65 C7 0.930 . S
H66 C8 0.930 . S
H67 C9 0.930 . S
H68 C11 0.930 . S
H69 C13 0.929 . S
H70 C14 0.930 . S
H71 C15 0.930 . S
H72 C18 0.930 . S
H73 C21 0.929 . S
H74 C26 0.929 . S
H75 C27 0.930 . S
H76 C34 0.929 . S
H77 C35 0.930 . S
H78 C36 0.930 . S
H79 C37 0.930 . S
H80 C39 0.929 . S
H81 C40 0.930 . S
H82 C41 0.930 . S
H83 C42 0.930 . S
H84 C46 0.929 . S
H85 C48 0.930 . S
H86 C54 0.929 . S
H87 C55 0.930 . S
Li88 N105 1.990 . S
Li88 O148 1.956 . S
Li88 O149 1.970 . S
Li88 O150 1.961 1_455 S
Li89 N113 1.990 . S
Li89 O148 1.970 . S
Li89 O149 1.956 . S
Li89 O151 1.961 . S
Li90 N135 1.990 . S
Li90 O148 1.961 . S
Li90 O150 1.956 1_455 S
Li90 O151 1.970 . S
Li91 N141 1.990 . S
Li91 O149 1.961 1_655 S
Li91 O150 1.970 . S
Li91 O151 1.956 1_655 S
C92 C94 1.348 . S
C92 C95 1.356 . S
C92 O148 1.325 . S
N93 C96 1.314 . S
N93 C97 1.279 . S
C94 C92 1.348 . S
C94 C96 1.353 . S
C94 H152 0.929 . S
C95 C92 1.356 . S
C95 C97 1.358 . S
C95 H153 0.930 . S
C96 N93 1.314 . S
C96 C94 1.353 . S
C96 H154 0.930 . S
C97 N93 1.279 . S
C97 C95 1.358 . S
C97 H155 0.930 . S
C98 C101 1.348 . S
C98 C102 1.356 . S
C98 O149 1.325 . S
C99 N100 1.279 . S
C99 C102 1.358 . S
C99 H156 0.930 . S
N100 C99 1.279 . S
N100 C103 1.314 . S
C101 C98 1.348 . S
C101 C103 1.353 . S
C101 H157 0.929 . S
C102 C98 1.356 . S
C102 C99 1.358 . S
C102 H158 0.930 . S
C103 N100 1.314 . S
C103 C101 1.353 . S
C103 H159 0.930 . S
C104 N105 1.314 . S
C104 C109 1.353 . S
C104 H110 0.930 1_455 S
N105 Li88 1.990 . S
N105 C104 1.314 . S
N105 C107 1.279 . S
C106 C107 1.358 . S
C106 C108 1.356 . S
C106 H160 0.930 . S
C107 N105 1.279 . S
C107 C106 1.358 . S
C107 H111 0.930 . S
C108 C106 1.356 . S
C108 C109 1.348 . S
C109 C104 1.353 . S
C109 C108 1.348 . S
C109 H161 0.929 1_455 S
H110 C104 0.930 1_655 S
H111 C107 0.930 . S
C112 N113 1.314 . S
C112 C114 1.353 . S
C112 H118 0.930 . S
N113 Li89 1.990 . S
N113 C112 1.314 . S
N113 C116 1.279 . S
C114 C112 1.353 . S
C114 C117 1.348 . S
C114 H162 0.929 . S
C115 C116 1.358 . S
C115 C117 1.356 . S
C115 H163 0.930 . S
C116 N113 1.279 . S
C116 C115 1.358 . S
C116 H119 0.930 . S
C117 C114 1.348 . S
C117 C115 1.356 . S
H118 C112 0.930 . S
H119 C116 0.930 . S
C120 C122 1.348 . S
C120 C123 1.356 . S
C120 O150 1.325 . S
N121 C124 1.314 . S
N121 C125 1.279 . S
C122 C120 1.348 . S
C122 C124 1.353 . S
C122 H164 0.929 . S
C123 C120 1.356 . S
C123 C125 1.358 . S
C123 H165 0.930 . S
C124 N121 1.314 . S
C124 C122 1.353 . S
C124 H166 0.930 . S
C125 N121 1.279 . S
C125 C123 1.358 . S
C125 H167 0.930 . S
C126 C127 1.348 . S
C126 C128 1.356 . S
C126 O151 1.325 . S
C127 C126 1.348 . S
C127 C129 1.353 . S
C127 H168 0.929 . S
C128 C126 1.356 . S
C128 C130 1.358 . S
C128 H169 0.930 . S
C129 C127 1.353 . S
C129 N131 1.314 . S
C129 H170 0.930 . S
C130 C128 1.358 . S
C130 N131 1.279 . S
C130 H171 0.930 . S
N131 C129 1.314 . S
N131 C130 1.279 . S
C132 C134 1.353 . S
C132 N135 1.314 . S
C132 H138 0.930 . S
C133 N135 1.279 1_655 S
C133 C136 1.358 . S
C133 H139 0.930 . S
C134 C132 1.353 . S
C134 C137 1.348 . S
C134 H172 0.929 . S
N135 Li90 1.990 . S
N135 C132 1.314 . S
N135 C133 1.279 1_455 S
C136 C133 1.358 . S
C136 C137 1.356 1_655 S
C136 H173 0.930 . S
C137 C134 1.348 . S
C137 C136 1.356 1_455 S
H138 C132 0.930 . S
H139 C133 0.930 . S
C140 N141 1.314 . S
C140 C142 1.353 . S
C140 H146 0.930 . S
N141 Li91 1.990 . S
N141 C140 1.314 . S
N141 C144 1.279 . S
C142 C140 1.353 . S
C142 C145 1.348 . S
C142 H174 0.929 . S
C143 C144 1.358 . S
C143 C145 1.356 . S
C143 H175 0.930 . S
C144 N141 1.279 . S
C144 C143 1.358 . S
C144 H147 0.930 . S
C145 C142 1.348 . S
C145 C143 1.356 . S
H146 C140 0.930 . S
H147 C144 0.930 . S
O148 Li88 1.956 . S
O148 Li89 1.970 . S
O148 Li90 1.961 . S
O148 C92 1.325 . S
O149 Li88 1.970 . S
O149 Li89 1.956 . S
O149 Li91 1.961 1_455 S
O149 C98 1.325 . S
O150 Li88 1.961 1_655 S
O150 Li90 1.956 1_655 S
O150 Li91 1.970 . S
O150 C120 1.325 . S
O151 Li89 1.961 . S
O151 Li90 1.970 . S
O151 Li91 1.956 1_455 S
O151 C126 1.325 . S
H152 C94 0.929 . S
H153 C95 0.930 . S
H154 C96 0.930 . S
H155 C97 0.930 . S
H156 C99 0.930 . S
H157 C101 0.929 . S
H158 C102 0.930 . S
H159 C103 0.930 . S
H160 C106 0.930 . S
H161 C109 0.929 1_655 S
H162 C114 0.929 . S
H163 C115 0.930 . S
H164 C122 0.929 . S
H165 C123 0.930 . S
H166 C124 0.930 . S
H167 C125 0.930 . S
H168 C127 0.929 . S
H169 C128 0.930 . S
H170 C129 0.930 . S
H171 C130 0.930 . S
H172 C134 0.929 . S
H173 C136 0.930 . S
H174 C142 0.929 . S
H175 C143 0.930 . S
Li176 N193 1.990 . S
Li176 O236 1.956 . S
Li176 O237 1.970 . S
Li176 O238 1.961 . S
Li177 N201 1.990 . S
Li177 O236 1.970 . S
Li177 O237 1.956 . S
Li177 O239 1.961 . S
Li178 N223 1.990 . S
Li178 O236 1.961 . S
Li178 O238 1.956 . S
Li178 O239 1.970 . S
Li179 N229 1.990 . S
Li179 O237 1.961 . S
Li179 O238 1.970 . S
Li179 O239 1.956 . S
C180 C182 1.348 . S
C180 C183 1.356 . S
C180 O236 1.325 . S
N181 C184 1.314 . S
N181 C185 1.279 . S
C182 C180 1.348 . S
C182 C184 1.353 . S
C182 H240 0.929 . S
C183 C180 1.356 . S
C183 C185 1.358 . S
C183 H241 0.930 . S
C184 N181 1.314 . S
C184 C182 1.353 . S
C184 H242 0.930 . S
C185 N181 1.279 . S
C185 C183 1.358 . S
C185 H243 0.930 . S
C186 C189 1.348 . S
C186 C190 1.356 . S
C186 O237 1.325 . S
C187 N188 1.279 . S
C187 C190 1.358 . S
C187 H244 0.930 . S
N188 C187 1.279 . S
N188 C191 1.314 . S
C189 C186 1.348 . S
C189 C191 1.353 . S
C189 H245 0.929 . S
C190 C186 1.356 . S
C190 C187 1.358 . S
C190 H246 0.930 . S
C191 N188 1.314 . S
C191 C189 1.353 . S
C191 H247 0.930 . S
C192 N193 1.314 . S
C192 C197 1.353 . S
C192 H198 0.930 . S
N193 Li176 1.990 . S
N193 C192 1.314 . S
N193 C195 1.279 . S
C194 C195 1.358 . S
C194 C196 1.356 . S
C194 H248 0.930 . S
C195 N193 1.279 . S
C195 C194 1.358 . S
C195 H199 0.930 . S
C196 C194 1.356 . S
C196 C197 1.348 . S
C197 C192 1.353 . S
C197 C196 1.348 . S
C197 H249 0.929 . S
H198 C192 0.930 . S
H199 C195 0.930 . S
C200 N201 1.314 . S
C200 C202 1.353 . S
C200 H206 0.930 . S
N201 Li177 1.990 . S
N201 C200 1.314 . S
N201 C204 1.279 . S
C202 C200 1.353 . S
C202 C205 1.348 . S
C202 H250 0.929 . S
C203 C204 1.358 . S
C203 C205 1.356 . S
C203 H251 0.930 . S
C204 N201 1.279 . S
C204 C203 1.358 . S
C204 H207 0.930 . S
C205 C202 1.348 . S
C205 C203 1.356 . S
H206 C200 0.930 . S
H207 C204 0.930 . S
C208 C210 1.348 . S
C208 C211 1.356 . S
C208 O238 1.325 . S
N209 C212 1.314 . S
N209 C213 1.279 . S
C210 C208 1.348 . S
C210 C212 1.353 . S
C210 H252 0.929 . S
C211 C208 1.356 . S
C211 C213 1.358 . S
C211 H253 0.930 . S
C212 N209 1.314 . S
C212 C210 1.353 . S
C212 H254 0.930 . S
C213 N209 1.279 . S
C213 C211 1.358 . S
C213 H255 0.930 . S
C214 C215 1.348 . S
C214 C216 1.356 . S
C214 O239 1.325 . S
C215 C214 1.348 . S
C215 C217 1.353 . S
C215 H256 0.929 . S
C216 C214 1.356 . S
C216 C218 1.358 . S
C216 H257 0.930 . S
C217 C215 1.353 . S
C217 N219 1.314 . S
C217 H258 0.930 . S
C218 C216 1.358 . S
C218 N219 1.279 . S
C218 H259 0.930 . S
N219 C217 1.314 . S
N219 C218 1.279 . S
C220 C222 1.353 . S
C220 N223 1.314 . S
C220 H226 0.930 . S
C221 N223 1.279 . S
C221 C224 1.358 . S
C221 H227 0.930 . S
C222 C220 1.353 . S
C222 C225 1.348 . S
C222 H260 0.929 . S
N223 Li178 1.990 . S
N223 C220 1.314 . S
N223 C221 1.279 . S
C224 C221 1.358 . S
C224 C225 1.356 . S
C224 H261 0.930 . S
C225 C222 1.348 . S
C225 C224 1.356 . S
H226 C220 0.930 . S
H227 C221 0.930 . S
C228 N229 1.314 . S
C228 C230 1.353 . S
C228 H234 0.930 . S
N229 Li179 1.990 . S
N229 C228 1.314 . S
N229 C232 1.279 . S
C230 C228 1.353 . S
C230 C233 1.348 . S
C230 H262 0.929 . S
C231 C232 1.358 . S
C231 C233 1.356 . S
C231 H263 0.930 . S
C232 N229 1.279 . S
C232 C231 1.358 . S
C232 H235 0.930 . S
C233 C230 1.348 . S
C233 C231 1.356 . S
H234 C228 0.930 . S
H235 C232 0.930 . S
O236 Li176 1.956 . S
O236 Li177 1.970 . S
O236 Li178 1.961 . S
O236 C180 1.325 . S
O237 Li176 1.970 . S
O237 Li177 1.956 . S
O237 Li179 1.961 . S
O237 C186 1.325 . S
O238 Li176 1.961 . S
O238 Li178 1.956 . S
O238 Li179 1.970 . S
O238 C208 1.325 . S
O239 Li177 1.961 . S
O239 Li178 1.970 . S
O239 Li179 1.956 . S
O239 C214 1.325 . S
H240 C182 0.929 . S
H241 C183 0.930 . S
H242 C184 0.930 . S
H243 C185 0.930 . S
H244 C187 0.930 . S
H245 C189 0.929 . S
H246 C190 0.930 . S
H247 C191 0.930 . S
H248 C194 0.930 . S
H249 C197 0.929 . S
H250 C202 0.929 . S
H251 C203 0.930 . S
H252 C210 0.929 . S
H253 C211 0.930 . S
H254 C212 0.930 . S
H255 C213 0.930 . S
H256 C215 0.929 . S
H257 C216 0.930 . S
H258 C217 0.930 . S
H259 C218 0.930 . S
H260 C222 0.929 . S
H261 C224 0.930 . S
H262 C230 0.929 . S
H263 C231 0.930 . S
Li264 N281 1.990 . S
Li264 O324 1.956 . S
Li264 O325 1.970 . S
Li264 O326 1.961 . S
Li265 N289 1.990 . S
Li265 O324 1.970 . S
Li265 O325 1.956 . S
Li265 O327 1.961 . S
Li266 N311 1.990 . S
Li266 O324 1.961 . S
Li266 O326 1.956 . S
Li266 O327 1.970 . S
Li267 N317 1.990 . S
Li267 O325 1.961 . S
Li267 O326 1.970 . S
Li267 O327 1.956 . S
C268 C270 1.348 . S
C268 C271 1.356 . S
C268 O324 1.325 . S
N269 C272 1.314 . S
N269 C273 1.279 . S
C270 C268 1.348 . S
C270 C272 1.353 . S
C270 H328 0.929 . S
C271 C268 1.356 . S
C271 C273 1.358 . S
C271 H329 0.930 . S
C272 N269 1.314 . S
C272 C270 1.353 . S
C272 H330 0.930 . S
C273 N269 1.279 . S
C273 C271 1.358 . S
C273 H331 0.930 . S
C274 C277 1.348 . S
C274 C278 1.356 . S
C274 O325 1.325 . S
C275 N276 1.279 . S
C275 C278 1.358 . S
C275 H332 0.930 . S
N276 C275 1.279 . S
N276 C279 1.314 . S
C277 C274 1.348 . S
C277 C279 1.353 . S
C277 H333 0.929 . S
C278 C274 1.356 . S
C278 C275 1.358 . S
C278 H334 0.930 . S
C279 N276 1.314 . S
C279 C277 1.353 . S
C279 H335 0.930 . S
C280 N281 1.314 . S
C280 C285 1.353 . S
C280 H286 0.930 . S
N281 Li264 1.990 . S
N281 C280 1.314 . S
N281 C283 1.279 . S
C282 C283 1.358 . S
C282 C284 1.356 . S
C282 H336 0.930 . S
C283 N281 1.279 . S
C283 C282 1.358 . S
C283 H287 0.930 . S
C284 C282 1.356 . S
C284 C285 1.348 . S
C285 C280 1.353 . S
C285 C284 1.348 . S
C285 H337 0.929 . S
H286 C280 0.930 . S
H287 C283 0.930 . S
C288 N289 1.314 . S
C288 C290 1.353 . S
C288 H294 0.930 . S
N289 Li265 1.990 . S
N289 C288 1.314 . S
N289 C292 1.279 . S
C290 C288 1.353 . S
C290 C293 1.348 . S
C290 H338 0.929 . S
C291 C292 1.358 . S
C291 C293 1.356 . S
C291 H339 0.930 . S
C292 N289 1.279 . S
C292 C291 1.358 . S
C292 H295 0.930 . S
C293 C290 1.348 . S
C293 C291 1.356 . S
H294 C288 0.930 . S
H295 C292 0.930 . S
C296 C298 1.348 . S
C296 C299 1.356 . S
C296 O326 1.325 . S
N297 C300 1.314 . S
N297 C301 1.279 . S
C298 C296 1.348 . S
C298 C300 1.353 . S
C298 H340 0.929 . S
C299 C296 1.356 . S
C299 C301 1.358 . S
C299 H341 0.930 . S
C300 N297 1.314 . S
C300 C298 1.353 . S
C300 H342 0.930 . S
C301 N297 1.279 . S
C301 C299 1.358 . S
C301 H343 0.930 . S
C302 C303 1.348 . S
C302 C304 1.356 . S
C302 O327 1.325 . S
C303 C302 1.348 . S
C303 C305 1.353 . S
C303 H344 0.929 . S
C304 C302 1.356 . S
C304 C306 1.358 . S
C304 H345 0.930 . S
C305 C303 1.353 . S
C305 N307 1.314 . S
C305 H346 0.930 . S
C306 C304 1.358 . S
C306 N307 1.279 . S
C306 H347 0.930 . S
N307 C305 1.314 . S
N307 C306 1.279 . S
C308 C310 1.353 . S
C308 N311 1.314 . S
C308 H314 0.930 . S
C309 N311 1.279 . S
C309 C312 1.358 . S
C309 H315 0.930 . S
C310 C308 1.353 . S
C310 C313 1.348 . S
C310 H348 0.929 . S
N311 Li266 1.990 . S
N311 C308 1.314 . S
N311 C309 1.279 . S
C312 C309 1.358 . S
C312 C313 1.356 . S
C312 H349 0.930 . S
C313 C310 1.348 . S
C313 C312 1.356 . S
H314 C308 0.930 . S
H315 C309 0.930 . S
C316 N317 1.314 . S
C316 C318 1.353 . S
C316 H322 0.930 . S
N317 Li267 1.990 . S
N317 C316 1.314 . S
N317 C320 1.279 . S
C318 C316 1.353 . S
C318 C321 1.348 . S
C318 H350 0.929 . S
C319 C320 1.358 . S
C319 C321 1.356 . S
C319 H351 0.930 . S
C320 N317 1.279 . S
C320 C319 1.358 . S
C320 H323 0.930 . S
C321 C318 1.348 . S
C321 C319 1.356 . S
H322 C316 0.930 . S
H323 C320 0.930 . S
O324 Li264 1.956 . S
O324 Li265 1.970 . S
O324 Li266 1.961 . S
O324 C268 1.325 . S
O325 Li264 1.970 . S
O325 Li265 1.956 . S
O325 Li267 1.961 . S
O325 C274 1.325 . S
O326 Li264 1.961 . S
O326 Li266 1.956 . S
O326 Li267 1.970 . S
O326 C296 1.325 . S
O327 Li265 1.961 . S
O327 Li266 1.970 . S
O327 Li267 1.956 . S
O327 C302 1.325 . S
H328 C270 0.929 . S
H329 C271 0.930 . S
H330 C272 0.930 . S
H331 C273 0.930 . S
H332 C275 0.930 . S
H333 C277 0.929 . S
H334 C278 0.930 . S
H335 C279 0.930 . S
H336 C282 0.930 . S
H337 C285 0.929 . S
H338 C290 0.929 . S
H339 C291 0.930 . S
H340 C298 0.929 . S
H341 C299 0.930 . S
H342 C300 0.930 . S
H343 C301 0.930 . S
H344 C303 0.929 . S
H345 C304 0.930 . S
H346 C305 0.930 . S
H347 C306 0.930 . S
H348 C310 0.929 . S
H349 C312 0.930 . S
H350 C318 0.929 . S
H351 C319 0.930 . S
Li352 N369 1.990 . S
Li352 O412 1.956 . S
Li352 O413 1.970 . S
Li352 O414 1.961 . S
Li353 N377 1.990 . S
Li353 O412 1.970 . S
Li353 O413 1.956 . S
Li353 O415 1.961 . S
Li354 N399 1.990 . S
Li354 O412 1.961 . S
Li354 O414 1.956 . S
Li354 O415 1.970 . S
Li355 N405 1.990 . S
Li355 O413 1.961 . S
Li355 O414 1.970 . S
Li355 O415 1.956 . S
C356 C358 1.348 . S
C356 C359 1.356 . S
C356 O412 1.325 . S
N357 C360 1.314 . S
N357 C361 1.279 . S
C358 C356 1.348 . S
C358 C360 1.353 . S
C358 H416 0.929 . S
C359 C356 1.356 . S
C359 C361 1.358 . S
C359 H417 0.930 . S
C360 N357 1.314 . S
C360 C358 1.353 . S
C360 H418 0.930 . S
C361 N357 1.279 . S
C361 C359 1.358 . S
C361 H419 0.930 . S
C362 C365 1.348 . S
C362 C366 1.356 . S
C362 O413 1.325 . S
C363 N364 1.279 . S
C363 C366 1.358 . S
C363 H420 0.930 . S
N364 C363 1.279 . S
N364 C367 1.314 . S
C365 C362 1.348 . S
C365 C367 1.353 . S
C365 H421 0.929 . S
C366 C362 1.356 . S
C366 C363 1.358 . S
C366 H422 0.930 . S
C367 N364 1.314 . S
C367 C365 1.353 . S
C367 H423 0.930 . S
C368 N369 1.314 . S
C368 C373 1.353 . S
C368 H374 0.930 . S
N369 Li352 1.990 . S
N369 C368 1.314 . S
N369 C371 1.279 . S
C370 C371 1.358 . S
C370 C372 1.356 . S
C370 H424 0.930 . S
C371 N369 1.279 . S
C371 C370 1.358 . S
C371 H375 0.930 . S
C372 C370 1.356 . S
C372 C373 1.348 . S
C373 C368 1.353 . S
C373 C372 1.348 . S
C373 H425 0.929 . S
H374 C368 0.930 . S
H375 C371 0.930 . S
C376 N377 1.314 . S
C376 C378 1.353 . S
C376 H382 0.930 . S
N377 Li353 1.990 . S
N377 C376 1.314 . S
N377 C380 1.279 . S
C378 C376 1.353 . S
C378 C381 1.348 . S
C378 H426 0.929 . S
C379 C380 1.358 . S
C379 C381 1.356 . S
C379 H427 0.930 . S
C380 N377 1.279 . S
C380 C379 1.358 . S
C380 H383 0.930 . S
C381 C378 1.348 . S
C381 C379 1.356 . S
H382 C376 0.930 . S
H383 C380 0.930 . S
C384 C386 1.348 1_455 S
C384 C387 1.356 . S
C384 O414 1.325 . S
N385 C388 1.314 . S
N385 C389 1.279 . S
C386 C384 1.348 1_655 S
C386 C388 1.353 . S
C386 H428 0.929 . S
C387 C384 1.356 . S
C387 C389 1.358 1_455 S
C387 H429 0.930 . S
C388 N385 1.314 . S
C388 C386 1.353 . S
C388 H430 0.930 . S
C389 N385 1.279 . S
C389 C387 1.358 1_655 S
C389 H431 0.930 . S
C390 C391 1.348 . S
C390 C392 1.356 . S
C390 O415 1.325 . S
C391 C390 1.348 . S
C391 C393 1.353 . S
C391 H432 0.929 . S
C392 C390 1.356 . S
C392 C394 1.358 . S
C392 H433 0.930 . S
C393 C391 1.353 . S
C393 N395 1.314 . S
C393 H434 0.930 . S
C394 C392 1.358 . S
C394 N395 1.279 . S
C394 H435 0.930 . S
N395 C393 1.314 . S
N395 C394 1.279 . S
C396 C398 1.353 . S
C396 N399 1.314 . S
C396 H402 0.930 . S
C397 N399 1.279 . S
C397 C400 1.358 . S
C397 H403 0.930 . S
C398 C396 1.353 . S
C398 C401 1.348 . S
C398 H436 0.929 . S
N399 Li354 1.990 . S
N399 C396 1.314 . S
N399 C397 1.279 . S
C400 C397 1.358 . S
C400 C401 1.356 . S
C400 H437 0.930 . S
C401 C398 1.348 . S
C401 C400 1.356 . S
H402 C396 0.930 . S
H403 C397 0.930 . S
C404 N405 1.314 . S
C404 C406 1.353 1_455 S
C404 H410 0.930 . S
N405 Li355 1.990 . S
N405 C404 1.314 . S
N405 C408 1.279 . S
C406 C404 1.353 1_655 S
C406 C409 1.348 . S
C406 H438 0.929 . S
C407 C408 1.358 1_655 S
C407 C409 1.356 . S
C407 H439 0.930 . S
C408 N405 1.279 . S
C408 C407 1.358 1_455 S
C408 H411 0.930 . S
C409 C406 1.348 . S
C409 C407 1.356 . S
H410 C404 0.930 . S
H411 C408 0.930 . S
O412 Li352 1.956 . S
O412 Li353 1.970 . S
O412 Li354 1.961 . S
O412 C356 1.325 . S
O413 Li352 1.970 . S
O413 Li353 1.956 . S
O413 Li355 1.961 . S
O413 C362 1.325 . S
O414 Li352 1.961 . S
O414 Li354 1.956 . S
O414 Li355 1.970 . S
O414 C384 1.325 . S
O415 Li353 1.961 . S
O415 Li354 1.970 . S
O415 Li355 1.956 . S
O415 C390 1.325 . S
H416 C358 0.929 . S
H417 C359 0.930 . S
H418 C360 0.930 . S
H419 C361 0.930 . S
H420 C363 0.930 . S
H421 C365 0.929 . S
H422 C366 0.930 . S
H423 C367 0.930 . S
H424 C370 0.930 . S
H425 C373 0.929 . S
H426 C378 0.929 . S
H427 C379 0.930 . S
H428 C386 0.929 . S
H429 C387 0.930 . S
H430 C388 0.930 . S
H431 C389 0.930 . S
H432 C391 0.929 . S
H433 C392 0.930 . S
H434 C393 0.930 . S
H435 C394 0.930 . S
H436 C398 0.929 . S
H437 C400 0.930 . S
H438 C406 0.929 . S
H439 C407 0.930 . S
Li440 N457 1.990 . S
Li440 O500 1.956 . S
Li440 O501 1.970 . S
Li440 O502 1.961 . S
Li441 N465 1.990 . S
Li441 O500 1.970 . S
Li441 O501 1.956 . S
Li441 O503 1.961 . S
Li442 N487 1.990 . S
Li442 O500 1.961 . S
Li442 O502 1.956 . S
Li442 O503 1.970 . S
Li443 N493 1.990 . S
Li443 O501 1.961 . S
Li443 O502 1.970 . S
Li443 O503 1.956 . S
C444 C446 1.348 . S
C444 C447 1.356 . S
C444 O500 1.325 . S
N445 C448 1.314 . S
N445 C449 1.279 . S
C446 C444 1.348 . S
C446 C448 1.353 . S
C446 H504 0.929 . S
C447 C444 1.356 . S
C447 C449 1.358 . S
C447 H505 0.930 . S
C448 N445 1.314 . S
C448 C446 1.353 . S
C448 H506 0.930 . S
C449 N445 1.279 . S
C449 C447 1.358 . S
C449 H507 0.930 . S
C450 C453 1.348 . S
C450 C454 1.356 . S
C450 O501 1.325 . S
C451 N452 1.279 . S
C451 C454 1.358 . S
C451 H508 0.930 . S
N452 C451 1.279 . S
N452 C455 1.314 . S
C453 C450 1.348 . S
C453 C455 1.353 . S
C453 H509 0.929 . S
C454 C450 1.356 . S
C454 C451 1.358 . S
C454 H510 0.930 . S
C455 N452 1.314 . S
C455 C453 1.353 . S
C455 H511 0.930 . S
C456 N457 1.314 . S
C456 C461 1.353 . S
C456 H462 0.930 . S
N457 Li440 1.990 . S
N457 C456 1.314 . S
N457 C459 1.279 . S
C458 C459 1.358 . S
C458 C460 1.356 . S
C458 H512 0.930 . S
C459 N457 1.279 . S
C459 C458 1.358 . S
C459 H463 0.930 . S
C460 C458 1.356 . S
C460 C461 1.348 . S
C461 C456 1.353 . S
C461 C460 1.348 . S
C461 H513 0.929 . S
H462 C456 0.930 . S
H463 C459 0.930 . S
C464 N465 1.314 . S
C464 C466 1.353 . S
C464 H470 0.930 . S
N465 Li441 1.990 . S
N465 C464 1.314 . S
N465 C468 1.279 . S
C466 C464 1.353 . S
C466 C469 1.348 . S
C466 H514 0.929 . S
C467 C468 1.358 . S
C467 C469 1.356 . S
C467 H515 0.930 . S
C468 N465 1.279 . S
C468 C467 1.358 . S
C468 H471 0.930 . S
C469 C466 1.348 . S
C469 C467 1.356 . S
H470 C464 0.930 . S
H471 C468 0.930 . S
C472 C474 1.348 . S
C472 C475 1.356 . S
C472 O502 1.325 . S
N473 C476 1.314 . S
N473 C477 1.279 . S
C474 C472 1.348 . S
C474 C476 1.353 . S
C474 H516 0.929 . S
C475 C472 1.356 . S
C475 C477 1.358 . S
C475 H517 0.930 . S
C476 N473 1.314 . S
C476 C474 1.353 . S
C476 H518 0.930 . S
C477 N473 1.279 . S
C477 C475 1.358 . S
C477 H519 0.930 . S
C478 C479 1.348 . S
C478 C480 1.356 . S
C478 O503 1.325 . S
C479 C478 1.348 . S
C479 C481 1.353 . S
C479 H520 0.929 . S
C480 C478 1.356 . S
C480 C482 1.358 . S
C480 H521 0.930 . S
C481 C479 1.353 . S
C481 N483 1.314 . S
C481 H522 0.930 . S
C482 C480 1.358 . S
C482 N483 1.279 . S
C482 H523 0.930 . S
N483 C481 1.314 . S
N483 C482 1.279 . S
C484 C486 1.353 . S
C484 N487 1.314 . S
C484 H490 0.930 . S
C485 N487 1.279 . S
C485 C488 1.358 . S
C485 H491 0.930 . S
C486 C484 1.353 . S
C486 C489 1.348 . S
C486 H524 0.929 . S
N487 Li442 1.990 . S
N487 C484 1.314 . S
N487 C485 1.279 . S
C488 C485 1.358 . S
C488 C489 1.356 . S
C488 H525 0.930 . S
C489 C486 1.348 . S
C489 C488 1.356 . S
H490 C484 0.930 . S
H491 C485 0.930 . S
C492 N493 1.314 . S
C492 C494 1.353 . S
C492 H498 0.930 . S
N493 Li443 1.990 . S
N493 C492 1.314 . S
N493 C496 1.279 . S
C494 C492 1.353 . S
C494 C497 1.348 . S
C494 H526 0.929 . S
C495 C496 1.358 . S
C495 C497 1.356 . S
C495 H527 0.930 . S
C496 N493 1.279 . S
C496 C495 1.358 . S
C496 H499 0.930 . S
C497 C494 1.348 . S
C497 C495 1.356 . S
H498 C492 0.930 . S
H499 C496 0.930 . S
O500 Li440 1.956 . S
O500 Li441 1.970 . S
O500 Li442 1.961 . S
O500 C444 1.325 . S
O501 Li440 1.970 . S
O501 Li441 1.956 . S
O501 Li443 1.961 . S
O501 C450 1.325 . S
O502 Li440 1.961 . S
O502 Li442 1.956 . S
O502 Li443 1.970 . S
O502 C472 1.325 . S
O503 Li441 1.961 . S
O503 Li442 1.970 . S
O503 Li443 1.956 . S
O503 C478 1.325 . S
H504 C446 0.929 . S
H505 C447 0.930 . S
H506 C448 0.930 . S
H507 C449 0.930 . S
H508 C451 0.930 . S
H509 C453 0.929 . S
H510 C454 0.930 . S
H511 C455 0.930 . S
H512 C458 0.930 . S
H513 C461 0.929 . S
H514 C466 0.929 . S
H515 C467 0.930 . S
H516 C474 0.929 . S
H517 C475 0.930 . S
H518 C476 0.930 . S
H519 C477 0.930 . S
H520 C479 0.929 . S
H521 C480 0.930 . S
H522 C481 0.930 . S
H523 C482 0.930 . S
H524 C486 0.929 . S
H525 C488 0.930 . S
H526 C494 0.929 . S
H527 C495 0.930 . S
Li528 N545 1.990 . S
Li528 O588 1.956 . S
Li528 O589 1.970 . S
Li528 O590 1.961 . S
Li529 N553 1.990 . S
Li529 O588 1.970 . S
Li529 O589 1.956 . S
Li529 O591 1.961 . S
Li530 N575 1.990 . S
Li530 O588 1.961 . S
Li530 O590 1.956 . S
Li530 O591 1.970 . S
Li531 N581 1.990 . S
Li531 O589 1.961 . S
Li531 O590 1.970 . S
Li531 O591 1.956 . S
C532 C534 1.348 . S
C532 C535 1.356 . S
C532 O588 1.325 . S
N533 C536 1.314 . S
N533 C537 1.279 . S
C534 C532 1.348 . S
C534 C536 1.353 . S
C534 H592 0.929 . S
C535 C532 1.356 . S
C535 C537 1.358 . S
C535 H593 0.930 . S
C536 N533 1.314 . S
C536 C534 1.353 . S
C536 H594 0.930 . S
C537 N533 1.279 . S
C537 C535 1.358 . S
C537 H595 0.930 . S
C538 C541 1.348 . S
C538 C542 1.356 . S
C538 O589 1.325 . S
C539 N540 1.279 . S
C539 C542 1.358 . S
C539 H596 0.930 . S
N540 C539 1.279 . S
N540 C543 1.314 . S
C541 C538 1.348 . S
C541 C543 1.353 . S
C541 H597 0.929 . S
C542 C538 1.356 . S
C542 C539 1.358 . S
C542 H598 0.930 . S
C543 N540 1.314 . S
C543 C541 1.353 . S
C543 H599 0.930 . S
C544 N545 1.314 . S
C544 C549 1.353 . S
C544 H550 0.930 . S
N545 Li528 1.990 . S
N545 C544 1.314 . S
N545 C547 1.279 . S
C546 C547 1.358 . S
C546 C548 1.356 . S
C546 H600 0.930 . S
C547 N545 1.279 . S
C547 C546 1.358 . S
C547 H551 0.930 . S
C548 C546 1.356 . S
C548 C549 1.348 . S
C549 C544 1.353 . S
C549 C548 1.348 . S
C549 H601 0.929 . S
H550 C544 0.930 . S
H551 C547 0.930 . S
C552 N553 1.314 . S
C552 C554 1.353 . S
C552 H558 0.930 . S
N553 Li529 1.990 . S
N553 C552 1.314 . S
N553 C556 1.279 . S
C554 C552 1.353 . S
C554 C557 1.348 . S
C554 H602 0.929 . S
C555 C556 1.358 . S
C555 C557 1.356 . S
C555 H603 0.930 . S
C556 N553 1.279 . S
C556 C555 1.358 . S
C556 H559 0.930 . S
C557 C554 1.348 . S
C557 C555 1.356 . S
H558 C552 0.930 . S
H559 C556 0.930 . S
C560 C562 1.348 . S
C560 C563 1.356 . S
C560 O590 1.325 . S
N561 C564 1.314 . S
N561 C565 1.279 . S
C562 C560 1.348 . S
C562 C564 1.353 . S
C562 H604 0.929 . S
C563 C560 1.356 . S
C563 C565 1.358 . S
C563 H605 0.930 . S
C564 N561 1.314 . S
C564 C562 1.353 . S
C564 H606 0.930 . S
C565 N561 1.279 . S
C565 C563 1.358 . S
C565 H607 0.930 . S
C566 C567 1.348 . S
C566 C568 1.356 . S
C566 O591 1.325 . S
C567 C566 1.348 . S
C567 C569 1.353 . S
C567 H608 0.929 . S
C568 C566 1.356 . S
C568 C570 1.358 . S
C568 H609 0.930 . S
C569 C567 1.353 . S
C569 N571 1.314 . S
C569 H610 0.930 . S
C570 C568 1.358 . S
C570 N571 1.279 . S
C570 H611 0.930 . S
N571 C569 1.314 . S
N571 C570 1.279 . S
C572 C574 1.353 . S
C572 N575 1.314 . S
C572 H578 0.930 . S
C573 N575 1.279 . S
C573 C576 1.358 . S
C573 H579 0.930 . S
C574 C572 1.353 . S
C574 C577 1.348 . S
C574 H612 0.929 . S
N575 Li530 1.990 . S
N575 C572 1.314 . S
N575 C573 1.279 . S
C576 C573 1.358 . S
C576 C577 1.356 . S
C576 H613 0.930 . S
C577 C574 1.348 . S
C577 C576 1.356 . S
H578 C572 0.930 . S
H579 C573 0.930 . S
C580 N581 1.314 . S
C580 C582 1.353 . S
C580 H586 0.930 . S
N581 Li531 1.990 . S
N581 C580 1.314 . S
N581 C584 1.279 . S
C582 C580 1.353 . S
C582 C585 1.348 . S
C582 H614 0.929 . S
C583 C584 1.358 . S
C583 C585 1.356 . S
C583 H615 0.930 . S
C584 N581 1.279 . S
C584 C583 1.358 . S
C584 H587 0.930 . S
C585 C582 1.348 . S
C585 C583 1.356 . S
H586 C580 0.930 . S
H587 C584 0.930 . S
O588 Li528 1.956 . S
O588 Li529 1.970 . S
O588 Li530 1.961 . S
O588 C532 1.325 . S
O589 Li528 1.970 . S
O589 Li529 1.956 . S
O589 Li531 1.961 . S
O589 C538 1.325 . S
O590 Li528 1.961 . S
O590 Li530 1.956 . S
O590 Li531 1.970 . S
O590 C560 1.325 . S
O591 Li529 1.961 . S
O591 Li530 1.970 . S
O591 Li531 1.956 . S
O591 C566 1.325 . S
H592 C534 0.929 . S
H593 C535 0.930 . S
H594 C536 0.930 . S
H595 C537 0.930 . S
H596 C539 0.930 . S
H597 C541 0.929 . S
H598 C542 0.930 . S
H599 C543 0.930 . S
H600 C546 0.930 . S
H601 C549 0.929 . S
H602 C554 0.929 . S
H603 C555 0.930 . S
H604 C562 0.929 . S
H605 C563 0.930 . S
H606 C564 0.930 . S
H607 C565 0.930 . S
H608 C567 0.929 . S
H609 C568 0.930 . S
H610 C569 0.930 . S
H611 C570 0.930 . S
H612 C574 0.929 . S
H613 C576 0.930 . S
H614 C582 0.929 . S
H615 C583 0.930 . S
Li616 N633 1.990 . S
Li616 O676 1.956 1_455 S
Li616 O677 1.970 . S
Li616 O678 1.961 . S
Li617 N641 1.990 . S
Li617 O676 1.970 . S
Li617 O677 1.956 1_655 S
Li617 O679 1.961 . S
Li618 N663 1.993 1_455 S
Li618 O676 1.954 1_455 S
Li618 O678 1.961 . S
Li618 O679 1.971 1_455 S
Li619 N669 1.990 . S
Li619 O677 1.961 . S
Li619 O678 1.970 . S
Li619 O679 1.956 1_455 S
C620 C622 1.348 . S
C620 C623 1.356 1_556 S
C620 O676 1.325 . S
N621 C624 1.314 1_554 S
N621 C625 1.279 . S
C622 C620 1.348 . S
C622 C624 1.353 . S
C622 H680 0.929 . S
C623 C620 1.356 1_554 S
C623 C625 1.358 . S
C623 H681 0.930 . S
C624 N621 1.314 1_556 S
C624 C622 1.353 . S
C624 H682 0.930 . S
C625 N621 1.279 . S
C625 C623 1.358 . S
C625 H683 0.930 . S
C626 C629 1.328 1_455 S
C626 C630 1.356 . S
C626 O677 1.325 . S
C627 N628 1.279 . S
C627 C630 1.358 . S
C627 H684 0.930 . S
N628 C627 1.279 . S
N628 C631 1.311 1_455 S
C629 C626 1.328 1_655 S
C629 C631 1.356 . S
C629 H685 0.948 . S
C630 C626 1.356 . S
C630 C627 1.358 . S
C630 H686 0.930 . S
C631 N628 1.311 1_655 S
C631 C629 1.356 . S
C631 H687 0.934 . S
C632 N633 1.314 . S
C632 C637 1.353 1_556 S
C632 H638 0.930 . S
N633 Li616 1.990 . S
N633 C632 1.314 . S
N633 C635 1.279 1_456 S
C634 C635 1.358 . S
C634 C636 1.356 1_655 S
C634 H688 0.930 . S
C635 N633 1.279 1_654 S
C635 C634 1.358 . S
C635 H639 0.930 . S
C636 C634 1.356 1_455 S
C636 C637 1.348 . S
C637 C632 1.353 1_554 S
C637 C636 1.348 . S
C637 H689 0.929 . S
H638 C632 0.930 . S
H639 C635 0.930 . S
C640 N641 1.314 . S
C640 C642 1.353 . S
C640 H646 0.930 . S
N641 Li617 1.990 . S
N641 C640 1.314 . S
N641 C644 1.279 . S
C642 C640 1.353 . S
C642 C645 1.348 . S
C642 H690 0.929 . S
C643 C644 1.358 . S
C643 C645 1.356 . S
C643 H691 0.930 . S
C644 N641 1.279 . S
C644 C643 1.358 . S
C644 H647 0.930 . S
C645 C642 1.348 . S
C645 C643 1.356 . S
H646 C640 0.930 . S
H647 C644 0.930 . S
C648 C650 1.348 . S
C648 C651 1.356 1_556 S
C648 O678 1.325 . S
N649 C652 1.314 1_554 S
N649 C653 1.279 . S
C650 C648 1.348 . S
C650 C652 1.353 . S
C650 H692 0.929 . S
C651 C648 1.356 1_554 S
C651 C653 1.358 . S
C651 H693 0.930 . S
C652 N649 1.314 1_556 S
C652 C650 1.353 . S
C652 H694 0.930 . S
C653 N649 1.279 . S
C653 C651 1.358 . S
C653 H695 0.930 . S
C654 C655 1.348 . S
C654 C656 1.356 . S
C654 O679 1.325 . S
C655 C654 1.348 . S
C655 C657 1.353 . S
C655 H696 0.929 1_655 S
C656 C654 1.356 . S
C656 C658 1.358 . S
C656 H697 0.930 . S
C657 C655 1.353 . S
C657 N659 1.314 . S
C657 H698 0.930 . S
C658 C656 1.358 . S
C658 N659 1.279 . S
C658 H699 0.930 . S
N659 C657 1.314 . S
N659 C658 1.279 . S
C660 C662 1.353 1_556 S
C660 N663 1.332 . S
C660 H666 0.930 . S
C661 N663 1.272 1_455 S
C661 C664 1.343 1_556 S
C661 H667 0.927 . S
C662 C660 1.353 1_554 S
C662 C665 1.348 . S
C662 H700 0.929 . S
N663 Li618 1.993 1_655 S
N663 C660 1.332 . S
N663 C661 1.272 1_655 S
C664 C661 1.343 1_554 S
C664 C665 1.356 1_455 S
C664 H701 0.930 . S
C665 C662 1.348 . S
C665 C664 1.356 1_655 S
H666 C660 0.930 . S
H667 C661 0.927 . S
C668 N669 1.314 . S
C668 C670 1.353 . S
C668 H674 0.930 . S
N669 Li619 1.990 . S
N669 C668 1.314 . S
N669 C672 1.279 . S
C670 C668 1.353 . S
C670 C673 1.348 . S
C670 H702 0.929 . S
C671 C672 1.358 . S
C671 C673 1.356 . S
C671 H703 0.930 . S
C672 N669 1.279 . S
C672 C671 1.358 . S
C672 H675 0.930 . S
C673 C670 1.348 . S
C673 C671 1.356 . S
H674 C668 0.930 . S
H675 C672 0.930 . S
O676 Li616 1.956 1_655 S
O676 Li617 1.970 . S
O676 Li618 1.954 1_655 S
O676 C620 1.325 . S
O677 Li616 1.970 . S
O677 Li617 1.956 1_455 S
O677 Li619 1.961 . S
O677 C626 1.325 . S
O678 Li616 1.961 . S
O678 Li618 1.961 . S
O678 Li619 1.970 . S
O678 C648 1.325 . S
O679 Li617 1.961 . S
O679 Li618 1.971 1_655 S
O679 Li619 1.956 1_655 S
O679 C654 1.325 . S
H680 C622 0.929 . S
H681 C623 0.930 . S
H682 C624 0.930 . S
H683 C625 0.930 . S
H684 C627 0.930 . S
H685 C629 0.948 . S
H686 C630 0.930 . S
H687 C631 0.934 . S
H688 C634 0.930 . S
H689 C637 0.929 . S
H690 C642 0.929 . S
H691 C643 0.930 . S
H692 C650 0.929 . S
H693 C651 0.930 . S
H694 C652 0.930 . S
H695 C653 0.930 . S
H696 C655 0.929 1_455 S
H697 C656 0.930 . S
H698 C657 0.930 . S
H699 C658 0.930 . S
H700 C662 0.929 . S
H701 C664 0.930 . S
H702 C670 0.929 . S
H703 C671 0.930 . S
Li704 N721 1.990 . S
Li704 O764 1.956 1_545 S
Li704 O765 1.970 . S
Li704 O766 1.961 . S
Li705 N729 1.990 . S
Li705 O764 1.970 . S
Li705 O765 1.956 1_565 S
Li705 O767 1.969 . S
Li706 N751 1.990 . S
Li706 O764 1.961 1_545 S
Li706 O766 1.956 . S
Li706 O767 1.971 1_545 S
Li707 N757 1.990 . S
Li707 O765 1.961 . S
Li707 O766 1.970 . S
Li707 O767 1.949 1_545 S
C708 C710 1.348 . S
C708 C711 1.356 . S
C708 O764 1.325 . S
N709 C712 1.314 . S
N709 C713 1.279 . S
C710 C708 1.348 . S
C710 C712 1.353 . S
C710 H768 0.929 . S
C711 C708 1.356 . S
C711 C713 1.358 . S
C711 H769 0.930 . S
C712 N709 1.314 . S
C712 C710 1.353 . S
C712 H770 0.930 . S
C713 N709 1.279 . S
C713 C711 1.358 . S
C713 H771 0.930 . S
C714 C717 1.348 1_545 S
C714 C718 1.356 . S
C714 O765 1.325 . S
C715 N716 1.277 1_545 S
C715 C718 1.358 . S
C715 H772 0.930 . S
N716 C715 1.277 1_565 S
N716 C719 1.316 . S
C717 C714 1.348 1_565 S
C717 C719 1.353 . S
C717 H773 0.929 . S
C718 C714 1.356 . S
C718 C715 1.358 . S
C718 H774 0.930 . S
C719 N716 1.316 . S
C719 C717 1.353 . S
C719 H775 0.930 . S
C720 N721 1.314 . S
C720 C725 1.353 . S
C720 H726 0.930 . S
N721 Li704 1.990 . S
N721 C720 1.314 . S
N721 C723 1.279 1_545 S
C722 C723 1.356 . S
C722 C724 1.341 1_565 S
C722 H776 0.948 . S
C723 N721 1.279 1_565 S
C723 C722 1.356 . S
C723 H727 0.930 . S
C724 C722 1.341 1_545 S
C724 C725 1.348 . S
C725 C720 1.353 . S
C725 C724 1.348 . S
C725 H777 0.929 . S
H726 C720 0.930 . S
H727 C723 0.930 . S
C728 N729 1.314 . S
C728 C730 1.353 . S
C728 H734 0.930 . S
N729 Li705 1.990 . S
N729 C728 1.314 . S
N729 C732 1.279 . S
C730 C728 1.353 . S
C730 C733 1.348 . S
C730 H778 0.929 . S
C731 C732 1.358 . S
C731 C733 1.356 . S
C731 H779 0.930 . S
C732 N729 1.279 . S
C732 C731 1.358 . S
C732 H735 0.930 . S
C733 C730 1.348 . S
C733 C731 1.356 . S
H734 C728 0.930 . S
H735 C732 0.930 . S
C736 C738 1.348 . S
C736 C739 1.356 . S
C736 O766 1.325 . S
N737 C740 1.314 . S
N737 C741 1.279 . S
C738 C736 1.348 . S
C738 C740 1.353 . S
C738 H780 0.929 . S
C739 C736 1.356 . S
C739 C741 1.358 . S
C739 H781 0.930 . S
C740 N737 1.314 . S
C740 C738 1.353 . S
C740 H782 0.930 . S
C741 N737 1.279 . S
C741 C739 1.358 . S
C741 H783 0.930 . S
C742 C743 1.348 1_565 S
C742 C744 1.356 . S
C742 O767 1.323 . S
C743 C742 1.348 1_545 S
C743 C745 1.353 . S
C743 H784 0.929 . S
C744 C742 1.356 . S
C744 C746 1.358 . S
C744 H785 0.930 . S
C745 C743 1.353 . S
C745 N747 1.315 1_545 S
C745 H786 0.929 . S
C746 C744 1.358 . S
C746 N747 1.279 . S
C746 H787 0.930 . S
N747 C745 1.315 1_565 S
N747 C746 1.279 . S
C748 C750 1.353 . S
C748 N751 1.314 1_565 S
C748 H754 0.930 . S
C749 N751 1.279 . S
C749 C752 1.358 . S
C749 H755 0.930 . S
C750 C748 1.353 . S
C750 C753 1.348 1_565 S
C750 H788 0.929 . S
N751 Li706 1.990 . S
N751 C748 1.314 1_545 S
N751 C749 1.279 . S
C752 C749 1.358 . S
C752 C753 1.356 . S
C752 H789 0.930 . S
C753 C750 1.348 1_545 S
C753 C752 1.356 . S
H754 C748 0.930 . S
H755 C749 0.930 . S
C756 N757 1.314 . S
C756 C758 1.353 . S
C756 H762 0.930 . S
N757 Li707 1.990 . S
N757 C756 1.314 . S
N757 C760 1.279 . S
C758 C756 1.353 . S
C758 C761 1.348 . S
C758 H790 0.929 . S
C759 C760 1.358 . S
C759 C761 1.356 . S
C759 H791 0.930 . S
C760 N757 1.279 . S
C760 C759 1.358 . S
C760 H763 0.930 . S
C761 C758 1.348 . S
C761 C759 1.356 . S
H762 C756 0.930 . S
H763 C760 0.930 . S
O764 Li704 1.956 1_565 S
O764 Li705 1.970 . S
O764 Li706 1.961 1_565 S
O764 C708 1.325 . S
O765 Li704 1.970 . S
O765 Li705 1.956 1_545 S
O765 Li707 1.961 . S
O765 C714 1.325 . S
O766 Li704 1.961 . S
O766 Li706 1.956 . S
O766 Li707 1.970 . S
O766 C736 1.325 . S
O767 Li705 1.969 . S
O767 Li706 1.971 1_565 S
O767 Li707 1.949 1_565 S
O767 C742 1.323 . S
H768 C710 0.929 . S
H769 C711 0.930 . S
H770 C712 0.930 . S
H771 C713 0.930 . S
H772 C715 0.930 . S
H773 C717 0.929 . S
H774 C718 0.930 . S
H775 C719 0.930 . S
H776 C722 0.948 . S
H777 C725 0.929 . S
H778 C730 0.929 . S
H779 C731 0.930 . S
H780 C738 0.929 . S
H781 C739 0.930 . S
H782 C740 0.930 . S
H783 C741 0.930 . S
H784 C743 0.929 . S
H785 C744 0.930 . S
H786 C745 0.929 . S
H787 C746 0.930 . S
H788 C750 0.929 . S
H789 C752 0.930 . S
H790 C758 0.929 . S
H791 C759 0.930 . S
Li792 N809 1.990 . S
Li792 O852 1.956 . S
Li792 O853 1.970 . S
Li792 O854 1.961 . S
Li793 N817 1.990 . S
Li793 O852 1.970 . S
Li793 O853 1.956 . S
Li793 O855 1.961 . S
Li794 N839 1.990 . S
Li794 O852 1.961 . S
Li794 O854 1.956 . S
Li794 O855 1.970 . S
Li795 N845 1.990 . S
Li795 O853 1.961 . S
Li795 O854 1.970 . S
Li795 O855 1.956 . S
C796 C798 1.348 . S
C796 C799 1.356 . S
C796 O852 1.325 . S
N797 C800 1.314 . S
N797 C801 1.279 . S
C798 C796 1.348 . S
C798 C800 1.353 . S
C798 H856 0.929 . S
C799 C796 1.356 . S
C799 C801 1.358 . S
C799 H857 0.930 . S
C800 N797 1.314 . S
C800 C798 1.353 . S
C800 H858 0.930 . S
C801 N797 1.279 . S
C801 C799 1.358 . S
C801 H859 0.930 . S
C802 C805 1.348 . S
C802 C806 1.356 . S
C802 O853 1.325 . S
C803 N804 1.279 . S
C803 C806 1.358 . S
C803 H860 0.930 . S
N804 C803 1.279 . S
N804 C807 1.314 . S
C805 C802 1.348 . S
C805 C807 1.353 . S
C805 H861 0.929 . S
C806 C802 1.356 . S
C806 C803 1.358 . S
C806 H862 0.930 . S
C807 N804 1.314 . S
C807 C805 1.353 . S
C807 H863 0.930 . S
C808 N809 1.314 . S
C808 C813 1.353 . S
C808 H814 0.930 . S
N809 Li792 1.990 . S
N809 C808 1.314 . S
N809 C811 1.279 . S
C810 C811 1.358 . S
C810 C812 1.356 . S
C810 H864 0.930 . S
C811 N809 1.279 . S
C811 C810 1.358 . S
C811 H815 0.930 . S
C812 C810 1.356 . S
C812 C813 1.348 . S
C813 C808 1.353 . S
C813 C812 1.348 . S
C813 H865 0.929 . S
H814 C808 0.930 . S
H815 C811 0.930 . S
C816 N817 1.314 . S
C816 C818 1.353 . S
C816 H822 0.930 . S
N817 Li793 1.990 . S
N817 C816 1.314 . S
N817 C820 1.279 . S
C818 C816 1.353 . S
C818 C821 1.348 . S
C818 H866 0.929 . S
C819 C820 1.358 . S
C819 C821 1.356 . S
C819 H867 0.930 . S
C820 N817 1.279 . S
C820 C819 1.358 . S
C820 H823 0.930 . S
C821 C818 1.348 . S
C821 C819 1.356 . S
H822 C816 0.930 . S
H823 C820 0.930 . S
C824 C826 1.348 . S
C824 C827 1.356 . S
C824 O854 1.325 . S
N825 C828 1.314 . S
N825 C829 1.279 . S
C826 C824 1.348 . S
C826 C828 1.353 . S
C826 H868 0.929 . S
C827 C824 1.356 . S
C827 C829 1.358 . S
C827 H869 0.930 . S
C828 N825 1.314 . S
C828 C826 1.353 . S
C828 H870 0.930 . S
C829 N825 1.279 . S
C829 C827 1.358 . S
C829 H871 0.930 . S
C830 C831 1.348 . S
C830 C832 1.356 . S
C830 O855 1.325 . S
C831 C830 1.348 . S
C831 C833 1.353 . S
C831 H872 0.929 . S
C832 C830 1.356 . S
C832 C834 1.358 . S
C832 H873 0.930 . S
C833 C831 1.353 . S
C833 N835 1.314 . S
C833 H874 0.930 . S
C834 C832 1.358 . S
C834 N835 1.279 . S
C834 H875 0.930 . S
N835 C833 1.314 . S
N835 C834 1.279 . S
C836 C838 1.353 . S
C836 N839 1.314 . S
C836 H842 0.930 . S
C837 N839 1.279 . S
C837 C840 1.358 . S
C837 H843 0.930 . S
C838 C836 1.353 . S
C838 C841 1.348 . S
C838 H876 0.929 . S
N839 Li794 1.990 . S
N839 C836 1.314 . S
N839 C837 1.279 . S
C840 C837 1.358 . S
C840 C841 1.356 . S
C840 H877 0.930 . S
C841 C838 1.348 . S
C841 C840 1.356 . S
H842 C836 0.930 . S
H843 C837 0.930 . S
C844 N845 1.314 . S
C844 C846 1.353 . S
C844 H850 0.930 . S
N845 Li795 1.990 . S
N845 C844 1.314 . S
N845 C848 1.279 . S
C846 C844 1.353 . S
C846 C849 1.348 . S
C846 H878 0.929 . S
C847 C848 1.358 . S
C847 C849 1.356 . S
C847 H879 0.930 . S
C848 N845 1.279 . S
C848 C847 1.358 . S
C848 H851 0.930 . S
C849 C846 1.348 . S
C849 C847 1.356 . S
H850 C844 0.930 . S
H851 C848 0.930 . S
O852 Li792 1.956 . S
O852 Li793 1.970 . S
O852 Li794 1.961 . S
O852 C796 1.325 . S
O853 Li792 1.970 . S
O853 Li793 1.956 . S
O853 Li795 1.961 . S
O853 C802 1.325 . S
O854 Li792 1.961 . S
O854 Li794 1.956 . S
O854 Li795 1.970 . S
O854 C824 1.325 . S
O855 Li793 1.961 . S
O855 Li794 1.970 . S
O855 Li795 1.956 . S
O855 C830 1.325 . S
H856 C798 0.929 . S
H857 C799 0.930 . S
H858 C800 0.930 . S
H859 C801 0.930 . S
H860 C803 0.930 . S
H861 C805 0.929 . S
H862 C806 0.930 . S
H863 C807 0.930 . S
H864 C810 0.930 . S
H865 C813 0.929 . S
H866 C818 0.929 . S
H867 C819 0.930 . S
H868 C826 0.929 . S
H869 C827 0.930 . S
H870 C828 0.930 . S
H871 C829 0.930 . S
H872 C831 0.929 . S
H873 C832 0.930 . S
H874 C833 0.930 . S
H875 C834 0.930 . S
H876 C838 0.929 . S
H877 C840 0.930 . S
H878 C846 0.929 . S
H879 C847 0.930 . S
Li880 N897 1.990 . S
Li880 O940 1.956 . S
Li880 O941 1.970 . S
Li880 O942 1.961 . S
Li881 N905 1.990 . S
Li881 O940 1.970 . S
Li881 O941 1.956 . S
Li881 O943 1.961 . S
Li882 N927 1.990 . S
Li882 O940 1.961 . S
Li882 O942 1.956 . S
Li882 O943 1.970 . S
Li883 N933 1.990 . S
Li883 O941 1.961 . S
Li883 O942 1.970 . S
Li883 O943 1.956 . S
C884 C886 1.348 . S
C884 C887 1.356 . S
C884 O940 1.325 . S
N885 C888 1.314 . S
N885 C889 1.279 . S
C886 C884 1.348 . S
C886 C888 1.353 . S
C886 H944 0.929 . S
C887 C884 1.356 . S
C887 C889 1.358 . S
C887 H945 0.930 . S
C888 N885 1.314 . S
C888 C886 1.353 . S
C888 H946 0.930 . S
C889 N885 1.279 . S
C889 C887 1.358 . S
C889 H947 0.930 . S
C890 C893 1.348 . S
C890 C894 1.356 . S
C890 O941 1.325 . S
C891 N892 1.279 . S
C891 C894 1.358 . S
C891 H948 0.930 . S
N892 C891 1.279 . S
N892 C895 1.314 . S
C893 C890 1.348 . S
C893 C895 1.353 . S
C893 H949 0.929 . S
C894 C890 1.356 . S
C894 C891 1.358 . S
C894 H950 0.930 . S
C895 N892 1.314 . S
C895 C893 1.353 . S
C895 H951 0.930 . S
C896 N897 1.314 . S
C896 C901 1.353 . S
C896 H902 0.930 . S
N897 Li880 1.990 . S
N897 C896 1.314 . S
N897 C899 1.279 . S
C898 C899 1.358 . S
C898 C900 1.356 . S
C898 H952 0.930 . S
C899 N897 1.279 . S
C899 C898 1.358 . S
C899 H903 0.930 . S
C900 C898 1.356 . S
C900 C901 1.348 . S
C901 C896 1.353 . S
C901 C900 1.348 . S
C901 H953 0.929 . S
H902 C896 0.930 . S
H903 C899 0.930 . S
C904 N905 1.314 . S
C904 C906 1.353 . S
C904 H910 0.930 . S
N905 Li881 1.990 . S
N905 C904 1.314 . S
N905 C908 1.279 . S
C906 C904 1.353 . S
C906 C909 1.348 . S
C906 H954 0.929 . S
C907 C908 1.358 . S
C907 C909 1.356 . S
C907 H955 0.930 . S
C908 N905 1.279 . S
C908 C907 1.358 . S
C908 H911 0.930 . S
C909 C906 1.348 . S
C909 C907 1.356 . S
H910 C904 0.930 . S
H911 C908 0.930 . S
C912 C914 1.348 . S
C912 C915 1.356 . S
C912 O942 1.325 . S
N913 C916 1.314 . S
N913 C917 1.279 . S
C914 C912 1.348 . S
C914 C916 1.353 . S
C914 H956 0.929 . S
C915 C912 1.356 . S
C915 C917 1.358 . S
C915 H957 0.930 . S
C916 N913 1.314 . S
C916 C914 1.353 . S
C916 H958 0.930 . S
C917 N913 1.279 . S
C917 C915 1.358 . S
C917 H959 0.930 . S
C918 C919 1.348 . S
C918 C920 1.356 . S
C918 O943 1.325 1_565 S
C919 C918 1.348 . S
C919 C921 1.353 . S
C919 H960 0.929 . S
C920 C918 1.356 . S
C920 C922 1.358 . S
C920 H961 0.930 1_565 S
C921 C919 1.353 . S
C921 N923 1.314 . S
C921 H962 0.930 . S
C922 C920 1.358 . S
C922 N923 1.279 . S
C922 H963 0.930 . S
N923 C921 1.314 . S
N923 C922 1.279 . S
C924 C926 1.353 . S
C924 N927 1.314 1_565 S
C924 H930 0.930 . S
C925 N927 1.279 1_565 S
C925 C928 1.358 . S
C925 H931 0.924 1_565 S
C926 C924 1.353 . S
C926 C929 1.348 . S
C926 H964 0.929 . S
N927 Li882 1.990 . S
N927 C924 1.314 1_545 S
N927 C925 1.279 1_545 S
C928 C925 1.358 . S
C928 C929 1.356 . S
C928 H965 0.930 . S
C929 C926 1.348 . S
C929 C928 1.356 . S
H930 C924 0.930 . S
H931 C925 0.924 1_545 S
C932 N933 1.314 . S
C932 C934 1.353 . S
C932 H938 0.930 . S
N933 Li883 1.990 . S
N933 C932 1.314 . S
N933 C936 1.279 . S
C934 C932 1.353 . S
C934 C937 1.348 . S
C934 H966 0.929 . S
C935 C936 1.358 . S
C935 C937 1.356 . S
C935 H967 0.930 1_545 S
C936 N933 1.279 . S
C936 C935 1.358 . S
C936 H939 0.930 . S
C937 C934 1.348 . S
C937 C935 1.356 . S
H938 C932 0.930 . S
H939 C936 0.930 . S
O940 Li880 1.956 . S
O940 Li881 1.970 . S
O940 Li882 1.961 . S
O940 C884 1.325 . S
O941 Li880 1.970 . S
O941 Li881 1.956 . S
O941 Li883 1.961 . S
O941 C890 1.325 . S
O942 Li880 1.961 . S
O942 Li882 1.956 . S
O942 Li883 1.970 . S
O942 C912 1.325 . S
O943 Li881 1.961 . S
O943 Li882 1.970 . S
O943 Li883 1.956 . S
O943 C918 1.325 1_545 S
H944 C886 0.929 . S
H945 C887 0.930 . S
H946 C888 0.930 . S
H947 C889 0.930 . S
H948 C891 0.930 . S
H949 C893 0.929 . S
H950 C894 0.930 . S
H951 C895 0.930 . S
H952 C898 0.930 . S
H953 C901 0.929 . S
H954 C906 0.929 . S
H955 C907 0.930 . S
H956 C914 0.929 . S
H957 C915 0.930 . S
H958 C916 0.930 . S
H959 C917 0.930 . S
H960 C919 0.929 . S
H961 C920 0.930 1_545 S
H962 C921 0.930 . S
H963 C922 0.930 . S
H964 C926 0.929 . S
H965 C928 0.930 . S
H966 C934 0.929 . S
H967 C935 0.930 1_565 S
Li968 N985 1.991 . S
Li968 O1028 1.979 . S
Li968 O1029 1.971 1_554 S
Li968 O1030 1.935 1_554 S
Li969 N993 1.990 . S
Li969 O1028 1.970 . S
Li969 O1029 1.956 1_554 S
Li969 O1031 1.961 . S
Li970 N1015 1.990 . S
Li970 O1028 1.961 . S
Li970 O1030 1.956 1_554 S
Li970 O1031 1.970 . S
Li971 N1021 1.990 . S
Li971 O1029 1.961 . S
Li971 O1030 1.970 . S
Li971 O1031 1.956 1_556 S
C972 C974 1.348 . S
C972 C975 1.356 . S
C972 O1028 1.325 . S
N973 C976 1.314 . S
N973 C977 1.267 1_565 S
C974 C972 1.348 . S
C974 C976 1.353 . S
C974 H1032 0.929 . S
C975 C972 1.356 . S
C975 C977 1.340 1_565 S
C975 H1033 0.930 . S
C976 N973 1.314 . S
C976 C974 1.353 . S
C976 H1034 0.930 . S
C977 N973 1.267 1_545 S
C977 C975 1.340 1_545 S
C977 H1035 0.965 . S
C978 C981 1.341 1_556 S
C978 C982 1.356 . S
C978 O1029 1.325 . S
C979 N980 1.279 . S
C979 C982 1.358 . S
C979 H1036 0.930 . S
N980 C979 1.279 . S
N980 C983 1.314 . S
C981 C978 1.341 1_554 S
C981 C983 1.355 1_554 S
C981 H1037 0.934 . S
C982 C978 1.356 . S
C982 C979 1.358 . S
C982 H1038 0.930 . S
C983 N980 1.314 . S
C983 C981 1.355 1_556 S
C983 H1039 0.930 1_556 S
C984 N985 1.314 1_556 S
C984 C989 1.353 . S
C984 H990 0.930 . S
N985 Li968 1.991 . S
N985 C984 1.314 1_554 S
N985 C987 1.279 . S
C986 C987 1.358 . S
C986 C988 1.337 1_554 S
C986 H1040 0.930 . S
C987 N985 1.279 . S
C987 C986 1.358 . S
C987 H991 0.930 . S
C988 C986 1.337 1_556 S
C988 C989 1.368 . S
C989 C984 1.353 . S
C989 C988 1.368 . S
C989 H1041 0.929 . S
H990 C984 0.930 . S
H991 C987 0.930 . S
C992 N993 1.314 . S
C992 C994 1.353 . S
C992 H998 0.930 . S
N993 Li969 1.990 . S
N993 C992 1.314 . S
N993 C996 1.279 . S
C994 C992 1.353 . S
C994 C997 1.348 . S
C994 H1042 0.929 . S
C995 C996 1.358 . S
C995 C997 1.356 . S
C995 H1043 0.930 . S
C996 N993 1.279 . S
C996 C995 1.358 . S
C996 H999 0.930 . S
C997 C994 1.348 . S
C997 C995 1.356 . S
H998 C992 0.930 . S
H999 C996 0.930 . S
C1000 C1002 1.348 . S
C1000 C1003 1.356 . S
C1000 O1030 1.325 . S
N1001 C1004 1.314 . S
N1001 C1005 1.279 . S
C1002 C1000 1.348 . S
C1002 C1004 1.353 . S
C1002 H1044 0.929 . S
C1003 C1000 1.356 . S
C1003 C1005 1.358 . S
C1003 H1045 0.930 . S
C1004 N1001 1.314 . S
C1004 C1002 1.353 . S
C1004 H1046 0.930 . S
C1005 N1001 1.279 . S
C1005 C1003 1.358 . S
C1005 H1047 0.930 1_565 S
C1006 C1007 1.340 1_554 S
C1006 C1008 1.361 . S
C1006 O1031 1.326 . S
C1007 C1006 1.340 1_556 S
C1007 C1009 1.353 . S
C1007 H1048 0.929 . S
C1008 C1006 1.361 . S
C1008 C1010 1.358 . S
C1008 H1049 0.930 . S
C1009 C1007 1.353 . S
C1009 N1011 1.314 . S
C1009 H1050 0.930 . S
C1010 C1008 1.358 . S
C1010 N1011 1.279 1_554 S
C1010 H1051 0.930 . S
N1011 C1009 1.314 . S
N1011 C1010 1.279 1_556 S
C1012 C1014 1.353 . S
C1012 N1015 1.314 . S
C1012 H1018 0.930 . S
C1013 N1015 1.279 1_556 S
C1013 C1016 1.358 . S
C1013 H1019 0.930 . S
C1014 C1012 1.353 . S
C1014 C1017 1.348 1_565 S
C1014 H1052 0.929 . S
N1015 Li970 1.990 . S
N1015 C1012 1.314 . S
N1015 C1013 1.279 1_554 S
C1016 C1013 1.358 . S
C1016 C1017 1.356 1_566 S
C1016 H1053 0.930 1_565 S
C1017 C1014 1.348 1_545 S
C1017 C1016 1.356 1_544 S
H1018 C1012 0.930 . S
H1019 C1013 0.930 . S
C1020 N1021 1.314 . S
C1020 C1022 1.353 . S
C1020 H1026 0.930 . S
N1021 Li971 1.990 . S
N1021 C1020 1.314 . S
N1021 C1024 1.279 . S
C1022 C1020 1.353 . S
C1022 C1025 1.348 . S
C1022 H1054 0.929 . S
C1023 C1024 1.358 . S
C1023 C1025 1.356 . S
C1023 H1055 0.930 . S
C1024 N1021 1.279 . S
C1024 C1023 1.358 . S
C1024 H1027 0.930 . S
C1025 C1022 1.348 . S
C1025 C1023 1.356 . S
H1026 C1020 0.930 . S
H1027 C1024 0.930 . S
O1028 Li968 1.979 . S
O1028 Li969 1.970 . S
O1028 Li970 1.961 . S
O1028 C972 1.325 . S
O1029 Li968 1.971 1_556 S
O1029 Li969 1.956 1_556 S
O1029 Li971 1.961 . S
O1029 C978 1.325 . S
O1030 Li968 1.935 1_556 S
O1030 Li970 1.956 1_556 S
O1030 Li971 1.970 . S
O1030 C1000 1.325 . S
O1031 Li969 1.961 . S
O1031 Li970 1.970 . S
O1031 Li971 1.956 1_554 S
O1031 C1006 1.326 . S
H1032 C974 0.929 . S
H1033 C975 0.930 . S
H1034 C976 0.930 . S
H1035 C977 0.965 . S
H1036 C979 0.930 . S
H1037 C981 0.934 . S
H1038 C982 0.930 . S
H1039 C983 0.930 1_554 S
H1040 C986 0.930 . S
H1041 C989 0.929 . S
H1042 C994 0.929 . S
H1043 C995 0.930 . S
H1044 C1002 0.929 . S
H1045 C1003 0.930 . S
H1046 C1004 0.930 . S
H1047 C1005 0.930 1_545 S
H1048 C1007 0.929 . S
H1049 C1008 0.930 . S
H1050 C1009 0.930 . S
H1051 C1010 0.930 . S
H1052 C1014 0.929 . S
H1053 C1016 0.930 1_545 S
H1054 C1022 0.929 . S
H1055 C1023 0.930 . S
Li1056 N1073 1.990 . S
Li1056 O1116 1.956 . S
Li1056 O1117 1.970 . S
Li1056 O1118 1.961 . S
Li1057 N1081 1.990 . S
Li1057 O1116 1.970 . S
Li1057 O1117 1.956 . S
Li1057 O1119 1.961 . S
Li1058 N1103 1.990 . S
Li1058 O1116 1.961 . S
Li1058 O1118 1.956 . S
Li1058 O1119 1.970 . S
Li1059 N1109 1.990 1_554 S
Li1059 O1117 1.961 . S
Li1059 O1118 1.970 . S
Li1059 O1119 1.956 . S
C1060 C1062 1.348 . S
C1060 C1063 1.356 . S
C1060 O1116 1.325 . S
N1061 C1064 1.314 . S
N1061 C1065 1.279 . S
C1062 C1060 1.348 . S
C1062 C1064 1.353 . S
C1062 H1120 0.929 . S
C1063 C1060 1.356 . S
C1063 C1065 1.358 . S
C1063 H1121 0.930 . S
C1064 N1061 1.314 . S
C1064 C1062 1.353 . S
C1064 H1122 0.930 . S
C1065 N1061 1.279 . S
C1065 C1063 1.358 . S
C1065 H1123 0.930 . S
C1066 C1069 1.348 . S
C1066 C1070 1.356 . S
C1066 O1117 1.325 . S
C1067 N1068 1.279 . S
C1067 C1070 1.358 . S
C1067 H1124 0.930 . S
N1068 C1067 1.279 . S
N1068 C1071 1.314 . S
C1069 C1066 1.348 . S
C1069 C1071 1.353 . S
C1069 H1125 0.929 . S
C1070 C1066 1.356 . S
C1070 C1067 1.358 . S
C1070 H1126 0.930 . S
C1071 N1068 1.314 . S
C1071 C1069 1.353 . S
C1071 H1127 0.930 . S
C1072 N1073 1.314 . S
C1072 C1077 1.353 . S
C1072 H1078 0.930 . S
N1073 Li1056 1.990 . S
N1073 C1072 1.314 . S
N1073 C1075 1.279 . S
C1074 C1075 1.358 . S
C1074 C1076 1.356 . S
C1074 H1128 0.930 . S
C1075 N1073 1.279 . S
C1075 C1074 1.358 . S
C1075 H1079 0.930 . S
C1076 C1074 1.356 . S
C1076 C1077 1.348 . S
C1077 C1072 1.353 . S
C1077 C1076 1.348 . S
C1077 H1129 0.929 . S
H1078 C1072 0.930 . S
H1079 C1075 0.930 . S
C1080 N1081 1.314 . S
C1080 C1082 1.353 . S
C1080 H1086 0.930 . S
N1081 Li1057 1.990 . S
N1081 C1080 1.314 . S
N1081 C1084 1.279 . S
C1082 C1080 1.353 . S
C1082 C1085 1.348 . S
C1082 H1130 0.929 . S
C1083 C1084 1.358 . S
C1083 C1085 1.356 . S
C1083 H1131 0.930 . S
C1084 N1081 1.279 . S
C1084 C1083 1.358 . S
C1084 H1087 0.930 . S
C1085 C1082 1.348 . S
C1085 C1083 1.356 . S
H1086 C1080 0.930 . S
H1087 C1084 0.930 . S
C1088 C1090 1.342 1_554 S
C1088 C1091 1.356 . S
C1088 O1118 1.330 . S
N1089 C1092 1.314 . S
N1089 C1093 1.279 . S
C1090 C1088 1.342 1_556 S
C1090 C1092 1.353 . S
C1090 H1132 0.929 . S
C1091 C1088 1.356 . S
C1091 C1093 1.358 1_554 S
C1091 H1133 0.930 . S
C1092 N1089 1.314 . S
C1092 C1090 1.353 . S
C1092 H1134 0.930 . S
C1093 N1089 1.279 . S
C1093 C1091 1.358 1_556 S
C1093 H1135 0.930 . S
C1094 C1095 1.348 . S
C1094 C1096 1.356 . S
C1094 O1119 1.325 . S
C1095 C1094 1.348 . S
C1095 C1097 1.353 . S
C1095 H1136 0.929 . S
C1096 C1094 1.356 . S
C1096 C1098 1.358 . S
C1096 H1137 0.930 . S
C1097 C1095 1.353 . S
C1097 N1099 1.314 . S
C1097 H1138 0.930 . S
C1098 C1096 1.358 . S
C1098 N1099 1.279 . S
C1098 H1139 0.930 . S
N1099 C1097 1.314 . S
N1099 C1098 1.279 . S
C1100 C1102 1.353 . S
C1100 N1103 1.314 . S
C1100 H1106 0.930 . S
C1101 N1103 1.279 . S
C1101 C1104 1.358 . S
C1101 H1107 0.930 . S
C1102 C1100 1.353 . S
C1102 C1105 1.348 . S
C1102 H1140 0.929 . S
N1103 Li1058 1.990 . S
N1103 C1100 1.314 . S
N1103 C1101 1.279 . S
C1104 C1101 1.358 . S
C1104 C1105 1.356 . S
C1104 H1141 0.930 . S
C1105 C1102 1.348 . S
C1105 C1104 1.356 . S
H1106 C1100 0.930 . S
H1107 C1101 0.930 . S
C1108 N1109 1.314 . S
C1108 C1110 1.353 . S
C1108 H1114 0.930 . S
N1109 Li1059 1.990 1_556 S
N1109 C1108 1.314 . S
N1109 C1112 1.279 . S
C1110 C1108 1.353 . S
C1110 C1113 1.348 . S
C1110 H1142 0.929 . S
C1111 C1112 1.358 . S
C1111 C1113 1.356 . S
C1111 H1143 0.930 . S
C1112 N1109 1.279 . S
C1112 C1111 1.358 . S
C1112 H1115 0.930 . S
C1113 C1110 1.348 . S
C1113 C1111 1.356 . S
H1114 C1108 0.930 . S
H1115 C1112 0.930 . S
O1116 Li1056 1.956 . S
O1116 Li1057 1.970 . S
O1116 Li1058 1.961 . S
O1116 C1060 1.325 . S
O1117 Li1056 1.970 . S
O1117 Li1057 1.956 . S
O1117 Li1059 1.961 . S
O1117 C1066 1.325 . S
O1118 Li1056 1.961 . S
O1118 Li1058 1.956 . S
O1118 Li1059 1.970 . S
O1118 C1088 1.330 . S
O1119 Li1057 1.961 . S
O1119 Li1058 1.970 . S
O1119 Li1059 1.956 . S
O1119 C1094 1.325 . S
H1120 C1062 0.929 . S
H1121 C1063 0.930 . S
H1122 C1064 0.930 . S
H1123 C1065 0.930 . S
H1124 C1067 0.930 . S
H1125 C1069 0.929 . S
H1126 C1070 0.930 . S
H1127 C1071 0.930 . S
H1128 C1074 0.930 . S
H1129 C1077 0.929 . S
H1130 C1082 0.929 . S
H1131 C1083 0.930 . S
H1132 C1090 0.929 . S
H1133 C1091 0.930 . S
H1134 C1092 0.930 . S
H1135 C1093 0.930 . S
H1136 C1095 0.929 . S
H1137 C1096 0.930 . S
H1138 C1097 0.930 . S
H1139 C1098 0.930 . S
H1140 C1102 0.929 . S
H1141 C1104 0.930 . S
H1142 C1110 0.929 . S
H1143 C1111 0.930 . S
Li1144 N1161 1.990 . S
Li1144 O1204 1.956 . S
Li1144 O1205 1.970 . S
Li1144 O1206 1.961 . S
Li1145 N1169 1.990 . S
Li1145 O1204 1.970 . S
Li1145 O1205 1.956 . S
Li1145 O1207 1.961 . S
Li1146 N1191 1.990 . S
Li1146 O1204 1.961 . S
Li1146 O1206 1.956 . S
Li1146 O1207 1.970 . S
Li1147 N1197 1.990 . S
Li1147 O1205 1.961 . S
Li1147 O1206 1.970 . S
Li1147 O1207 1.956 . S
C1148 C1150 1.348 . S
C1148 C1151 1.356 . S
C1148 O1204 1.325 . S
N1149 C1152 1.314 . S
N1149 C1153 1.279 . S
C1150 C1148 1.348 . S
C1150 C1152 1.353 . S
C1150 H1208 0.929 . S
C1151 C1148 1.356 . S
C1151 C1153 1.358 . S
C1151 H1209 0.930 . S
C1152 N1149 1.314 . S
C1152 C1150 1.353 . S
C1152 H1210 0.930 . S
C1153 N1149 1.279 . S
C1153 C1151 1.358 . S
C1153 H1211 0.930 . S
C1154 C1157 1.348 . S
C1154 C1158 1.356 . S
C1154 O1205 1.325 . S
C1155 N1156 1.279 . S
C1155 C1158 1.358 . S
C1155 H1212 0.930 . S
N1156 C1155 1.279 . S
N1156 C1159 1.314 . S
C1157 C1154 1.348 . S
C1157 C1159 1.353 . S
C1157 H1213 0.929 . S
C1158 C1154 1.356 . S
C1158 C1155 1.358 . S
C1158 H1214 0.930 . S
C1159 N1156 1.314 . S
C1159 C1157 1.353 . S
C1159 H1215 0.930 . S
C1160 N1161 1.314 . S
C1160 C1165 1.353 . S
C1160 H1166 0.930 . S
N1161 Li1144 1.990 . S
N1161 C1160 1.314 . S
N1161 C1163 1.279 . S
C1162 C1163 1.358 . S
C1162 C1164 1.356 . S
C1162 H1216 0.930 . S
C1163 N1161 1.279 . S
C1163 C1162 1.358 . S
C1163 H1167 0.930 . S
C1164 C1162 1.356 . S
C1164 C1165 1.348 . S
C1165 C1160 1.353 . S
C1165 C1164 1.348 . S
C1165 H1217 0.929 . S
H1166 C1160 0.930 . S
H1167 C1163 0.930 . S
C1168 N1169 1.314 . S
C1168 C1170 1.353 . S
C1168 H1174 0.930 . S
N1169 Li1145 1.990 . S
N1169 C1168 1.314 . S
N1169 C1172 1.279 . S
C1170 C1168 1.353 . S
C1170 C1173 1.348 . S
C1170 H1218 0.929 . S
C1171 C1172 1.358 . S
C1171 C1173 1.356 . S
C1171 H1219 0.930 . S
C1172 N1169 1.279 . S
C1172 C1171 1.358 . S
C1172 H1175 0.930 . S
C1173 C1170 1.348 . S
C1173 C1171 1.356 . S
H1174 C1168 0.930 . S
H1175 C1172 0.930 . S
C1176 C1178 1.348 . S
C1176 C1179 1.356 . S
C1176 O1206 1.325 . S
N1177 C1180 1.314 . S
N1177 C1181 1.279 . S
C1178 C1176 1.348 . S
C1178 C1180 1.353 . S
C1178 H1220 0.929 . S
C1179 C1176 1.356 . S
C1179 C1181 1.358 . S
C1179 H1221 0.930 . S
C1180 N1177 1.314 . S
C1180 C1178 1.353 . S
C1180 H1222 0.930 . S
C1181 N1177 1.279 . S
C1181 C1179 1.358 . S
C1181 H1223 0.930 . S
C1182 C1183 1.348 1_554 S
C1182 C1184 1.356 . S
C1182 O1207 1.325 . S
C1183 C1182 1.348 1_556 S
C1183 C1185 1.353 . S
C1183 H1224 0.929 . S
C1184 C1182 1.356 . S
C1184 C1186 1.358 1_554 S
C1184 H1225 0.930 . S
C1185 C1183 1.353 . S
C1185 N1187 1.314 . S
C1185 H1226 0.930 . S
C1186 C1184 1.358 1_556 S
C1186 N1187 1.279 . S
C1186 H1227 0.930 . S
N1187 C1185 1.314 . S
N1187 C1186 1.279 . S
C1188 C1190 1.353 . S
C1188 N1191 1.314 1_556 S
C1188 H1194 0.930 1_556 S
C1189 N1191 1.279 . S
C1189 C1192 1.358 1_554 S
C1189 H1195 0.930 . S
C1190 C1188 1.353 . S
C1190 C1193 1.348 . S
C1190 H1228 0.929 . S
N1191 Li1146 1.990 . S
N1191 C1188 1.314 1_554 S
N1191 C1189 1.279 . S
C1192 C1189 1.358 1_556 S
C1192 C1193 1.356 . S
C1192 H1229 0.930 . S
C1193 C1190 1.348 . S
C1193 C1192 1.356 . S
H1194 C1188 0.930 1_554 S
H1195 C1189 0.930 . S
C1196 N1197 1.314 . S
C1196 C1198 1.353 . S
C1196 H1202 0.930 . S
N1197 Li1147 1.990 . S
N1197 C1196 1.314 . S
N1197 C1200 1.279 . S
C1198 C1196 1.353 . S
C1198 C1201 1.348 . S
C1198 H1230 0.929 . S
C1199 C1200 1.358 . S
C1199 C1201 1.356 . S
C1199 H1231 0.930 . S
C1200 N1197 1.279 . S
C1200 C1199 1.358 . S
C1200 H1203 0.930 . S
C1201 C1198 1.348 . S
C1201 C1199 1.356 . S
H1202 C1196 0.930 . S
H1203 C1200 0.930 . S
O1204 Li1144 1.956 . S
O1204 Li1145 1.970 . S
O1204 Li1146 1.961 . S
O1204 C1148 1.325 . S
O1205 Li1144 1.970 . S
O1205 Li1145 1.956 . S
O1205 Li1147 1.961 . S
O1205 C1154 1.325 . S
O1206 Li1144 1.961 . S
O1206 Li1146 1.956 . S
O1206 Li1147 1.970 . S
O1206 C1176 1.325 . S
O1207 Li1145 1.961 . S
O1207 Li1146 1.970 . S
O1207 Li1147 1.956 . S
O1207 C1182 1.325 . S
H1208 C1150 0.929 . S
H1209 C1151 0.930 . S
H1210 C1152 0.930 . S
H1211 C1153 0.930 . S
H1212 C1155 0.930 . S
H1213 C1157 0.929 . S
H1214 C1158 0.930 . S
H1215 C1159 0.930 . S
H1216 C1162 0.930 . S
H1217 C1165 0.929 . S
H1218 C1170 0.929 . S
H1219 C1171 0.930 . S
H1220 C1178 0.929 . S
H1221 C1179 0.930 . S
H1222 C1180 0.930 . S
H1223 C1181 0.930 . S
H1224 C1183 0.929 . S
H1225 C1184 0.930 . S
H1226 C1185 0.930 . S
H1227 C1186 0.930 . S
H1228 C1190 0.929 . S
H1229 C1192 0.930 . S
H1230 C1198 0.929 . S
H1231 C1199 0.930 . S
Li1232 N1249 1.990 . S
Li1232 O1292 1.956 . S
Li1232 O1293 1.970 . S
Li1232 O1294 1.961 . S
Li1233 N1257 1.990 . S
Li1233 O1292 1.970 . S
Li1233 O1293 1.956 . S
Li1233 O1295 1.961 . S
Li1234 N1279 1.990 . S
Li1234 O1292 1.961 . S
Li1234 O1294 1.956 . S
Li1234 O1295 1.970 . S
Li1235 N1285 1.990 . S
Li1235 O1293 1.961 . S
Li1235 O1294 1.970 . S
Li1235 O1295 1.956 . S
C1236 C1238 1.348 . S
C1236 C1239 1.356 . S
C1236 O1292 1.325 . S
N1237 C1240 1.314 . S
N1237 C1241 1.279 . S
C1238 C1236 1.348 . S
C1238 C1240 1.353 . S
C1238 H1296 0.929 . S
C1239 C1236 1.356 . S
C1239 C1241 1.358 . S
C1239 H1297 0.930 . S
C1240 N1237 1.314 . S
C1240 C1238 1.353 . S
C1240 H1298 0.930 . S
C1241 N1237 1.279 . S
C1241 C1239 1.358 . S
C1241 H1299 0.930 . S
C1242 C1245 1.348 . S
C1242 C1246 1.356 . S
C1242 O1293 1.325 . S
C1243 N1244 1.279 . S
C1243 C1246 1.358 . S
C1243 H1300 0.930 . S
N1244 C1243 1.279 . S
N1244 C1247 1.314 . S
C1245 C1242 1.348 . S
C1245 C1247 1.353 . S
C1245 H1301 0.929 . S
C1246 C1242 1.356 . S
C1246 C1243 1.358 . S
C1246 H1302 0.930 . S
C1247 N1244 1.314 . S
C1247 C1245 1.353 . S
C1247 H1303 0.930 . S
C1248 N1249 1.314 . S
C1248 C1253 1.353 . S
C1248 H1254 0.930 . S
N1249 Li1232 1.990 . S
N1249 C1248 1.314 . S
N1249 C1251 1.279 . S
C1250 C1251 1.358 . S
C1250 C1252 1.356 . S
C1250 H1304 0.930 . S
C1251 N1249 1.279 . S
C1251 C1250 1.358 . S
C1251 H1255 0.930 . S
C1252 C1250 1.356 . S
C1252 C1253 1.348 . S
C1253 C1248 1.353 . S
C1253 C1252 1.348 . S
C1253 H1305 0.929 . S
H1254 C1248 0.930 . S
H1255 C1251 0.930 . S
C1256 N1257 1.314 . S
C1256 C1258 1.353 . S
C1256 H1262 0.930 . S
N1257 Li1233 1.990 . S
N1257 C1256 1.314 . S
N1257 C1260 1.279 . S
C1258 C1256 1.353 . S
C1258 C1261 1.348 . S
C1258 H1306 0.929 . S
C1259 C1260 1.358 . S
C1259 C1261 1.356 . S
C1259 H1307 0.930 . S
C1260 N1257 1.279 . S
C1260 C1259 1.358 . S
C1260 H1263 0.930 . S
C1261 C1258 1.348 . S
C1261 C1259 1.356 . S
H1262 C1256 0.930 . S
H1263 C1260 0.930 . S
C1264 C1266 1.348 . S
C1264 C1267 1.356 . S
C1264 O1294 1.325 . S
N1265 C1268 1.314 . S
N1265 C1269 1.279 . S
C1266 C1264 1.348 . S
C1266 C1268 1.353 . S
C1266 H1308 0.929 . S
C1267 C1264 1.356 . S
C1267 C1269 1.358 . S
C1267 H1309 0.930 . S
C1268 N1265 1.314 . S
C1268 C1266 1.353 . S
C1268 H1310 0.930 . S
C1269 N1265 1.279 . S
C1269 C1267 1.358 . S
C1269 H1311 0.930 . S
C1270 C1271 1.348 . S
C1270 C1272 1.356 . S
C1270 O1295 1.325 . S
C1271 C1270 1.348 . S
C1271 C1273 1.353 . S
C1271 H1312 0.929 . S
C1272 C1270 1.356 . S
C1272 C1274 1.358 . S
C1272 H1313 0.930 . S
C1273 C1271 1.353 . S
C1273 N1275 1.314 . S
C1273 H1314 0.930 . S
C1274 C1272 1.358 . S
C1274 N1275 1.279 . S
C1274 H1315 0.930 . S
N1275 C1273 1.314 . S
N1275 C1274 1.279 . S
C1276 C1278 1.353 . S
C1276 N1279 1.314 . S
C1276 H1282 0.930 . S
C1277 N1279 1.279 . S
C1277 C1280 1.358 . S
C1277 H1283 0.930 . S
C1278 C1276 1.353 . S
C1278 C1281 1.348 . S
C1278 H1316 0.929 . S
N1279 Li1234 1.990 . S
N1279 C1276 1.314 . S
N1279 C1277 1.279 . S
C1280 C1277 1.358 . S
C1280 C1281 1.356 . S
C1280 H1317 0.930 . S
C1281 C1278 1.348 . S
C1281 C1280 1.356 . S
H1282 C1276 0.930 . S
H1283 C1277 0.930 . S
C1284 N1285 1.314 . S
C1284 C1286 1.353 . S
C1284 H1290 0.930 . S
N1285 Li1235 1.990 . S
N1285 C1284 1.314 . S
N1285 C1288 1.279 . S
C1286 C1284 1.353 . S
C1286 C1289 1.348 . S
C1286 H1318 0.929 . S
C1287 C1288 1.358 . S
C1287 C1289 1.356 . S
C1287 H1319 0.930 . S
C1288 N1285 1.279 . S
C1288 C1287 1.358 . S
C1288 H1291 0.930 . S
C1289 C1286 1.348 . S
C1289 C1287 1.356 . S
H1290 C1284 0.930 . S
H1291 C1288 0.930 . S
O1292 Li1232 1.956 . S
O1292 Li1233 1.970 . S
O1292 Li1234 1.961 . S
O1292 C1236 1.325 . S
O1293 Li1232 1.970 . S
O1293 Li1233 1.956 . S
O1293 Li1235 1.961 . S
O1293 C1242 1.325 . S
O1294 Li1232 1.961 . S
O1294 Li1234 1.956 . S
O1294 Li1235 1.970 . S
O1294 C1264 1.325 . S
O1295 Li1233 1.961 . S
O1295 Li1234 1.970 . S
O1295 Li1235 1.956 . S
O1295 C1270 1.325 . S
H1296 C1238 0.929 . S
H1297 C1239 0.930 . S
H1298 C1240 0.930 . S
H1299 C1241 0.930 . S
H1300 C1243 0.930 . S
H1301 C1245 0.929 . S
H1302 C1246 0.930 . S
H1303 C1247 0.930 . S
H1304 C1250 0.930 . S
H1305 C1253 0.929 . S
H1306 C1258 0.929 . S
H1307 C1259 0.930 . S
H1308 C1266 0.929 . S
H1309 C1267 0.930 . S
H1310 C1268 0.930 . S
H1311 C1269 0.930 . S
H1312 C1271 0.929 . S
H1313 C1272 0.930 . S
H1314 C1273 0.930 . S
H1315 C1274 0.930 . S
H1316 C1278 0.929 . S
H1317 C1280 0.930 . S
H1318 C1286 0.929 . S
H1319 C1287 0.930 . S
Li1320 N1337 1.990 . S
Li1320 O1380 1.956 . S
Li1320 O1381 1.970 . S
Li1320 O1382 1.961 . S
Li1321 N1345 1.990 . S
Li1321 O1380 1.970 . S
Li1321 O1381 1.956 . S
Li1321 O1383 1.961 . S
Li1322 N1367 1.990 . S
Li1322 O1380 1.961 . S
Li1322 O1382 1.956 . S
Li1322 O1383 1.970 . S
Li1323 N1373 1.990 . S
Li1323 O1381 1.961 . S
Li1323 O1382 1.970 . S
Li1323 O1383 1.956 . S
C1324 C1326 1.348 . S
C1324 C1327 1.356 . S
C1324 O1380 1.325 . S
N1325 C1328 1.314 . S
N1325 C1329 1.279 . S
C1326 C1324 1.348 . S
C1326 C1328 1.353 . S
C1326 H1384 0.929 . S
C1327 C1324 1.356 . S
C1327 C1329 1.358 . S
C1327 H1385 0.930 . S
C1328 N1325 1.314 . S
C1328 C1326 1.353 . S
C1328 H1386 0.930 . S
C1329 N1325 1.279 . S
C1329 C1327 1.358 . S
C1329 H1387 0.930 . S
C1330 C1333 1.348 . S
C1330 C1334 1.356 . S
C1330 O1381 1.325 . S
C1331 N1332 1.279 . S
C1331 C1334 1.358 . S
C1331 H1388 0.930 . S
N1332 C1331 1.279 . S
N1332 C1335 1.314 . S
C1333 C1330 1.348 . S
C1333 C1335 1.353 . S
C1333 H1389 0.929 . S
C1334 C1330 1.356 . S
C1334 C1331 1.358 . S
C1334 H1390 0.930 . S
C1335 N1332 1.314 . S
C1335 C1333 1.353 . S
C1335 H1391 0.930 . S
C1336 N1337 1.314 . S
C1336 C1341 1.353 . S
C1336 H1342 0.930 . S
N1337 Li1320 1.990 . S
N1337 C1336 1.314 . S
N1337 C1339 1.279 . S
C1338 C1339 1.358 . S
C1338 C1340 1.356 . S
C1338 H1392 0.930 . S
C1339 N1337 1.279 . S
C1339 C1338 1.358 . S
C1339 H1343 0.930 . S
C1340 C1338 1.356 . S
C1340 C1341 1.348 . S
C1341 C1336 1.353 . S
C1341 C1340 1.348 . S
C1341 H1393 0.929 . S
H1342 C1336 0.930 . S
H1343 C1339 0.930 . S
C1344 N1345 1.314 . S
C1344 C1346 1.353 . S
C1344 H1350 0.930 . S
N1345 Li1321 1.990 . S
N1345 C1344 1.314 . S
N1345 C1348 1.279 . S
C1346 C1344 1.353 . S
C1346 C1349 1.348 . S
C1346 H1394 0.929 . S
C1347 C1348 1.358 . S
C1347 C1349 1.356 . S
C1347 H1395 0.930 . S
C1348 N1345 1.279 . S
C1348 C1347 1.358 . S
C1348 H1351 0.930 . S
C1349 C1346 1.348 . S
C1349 C1347 1.356 . S
H1350 C1344 0.930 . S
H1351 C1348 0.930 . S
C1352 C1354 1.348 . S
C1352 C1355 1.356 . S
C1352 O1382 1.325 . S
N1353 C1356 1.314 . S
N1353 C1357 1.279 . S
C1354 C1352 1.348 . S
C1354 C1356 1.353 . S
C1354 H1396 0.929 . S
C1355 C1352 1.356 . S
C1355 C1357 1.358 . S
C1355 H1397 0.930 . S
C1356 N1353 1.314 . S
C1356 C1354 1.353 . S
C1356 H1398 0.930 . S
C1357 N1353 1.279 . S
C1357 C1355 1.358 . S
C1357 H1399 0.930 . S
C1358 C1359 1.348 . S
C1358 C1360 1.356 . S
C1358 O1383 1.325 . S
C1359 C1358 1.348 . S
C1359 C1361 1.353 . S
C1359 H1400 0.929 . S
C1360 C1358 1.356 . S
C1360 C1362 1.358 . S
C1360 H1401 0.930 . S
C1361 C1359 1.353 . S
C1361 N1363 1.314 . S
C1361 H1402 0.930 . S
C1362 C1360 1.358 . S
C1362 N1363 1.279 . S
C1362 H1403 0.930 . S
N1363 C1361 1.314 . S
N1363 C1362 1.279 . S
C1364 C1366 1.353 . S
C1364 N1367 1.314 . S
C1364 H1370 0.930 . S
C1365 N1367 1.279 . S
C1365 C1368 1.358 . S
C1365 H1371 0.930 . S
C1366 C1364 1.353 . S
C1366 C1369 1.348 . S
C1366 H1404 0.929 . S
N1367 Li1322 1.990 . S
N1367 C1364 1.314 . S
N1367 C1365 1.279 . S
C1368 C1365 1.358 . S
C1368 C1369 1.356 . S
C1368 H1405 0.930 . S
C1369 C1366 1.348 . S
C1369 C1368 1.356 . S
H1370 C1364 0.930 . S
H1371 C1365 0.930 . S
C1372 N1373 1.314 . S
C1372 C1374 1.353 . S
C1372 H1378 0.930 . S
N1373 Li1323 1.990 . S
N1373 C1372 1.314 . S
N1373 C1376 1.279 . S
C1374 C1372 1.353 . S
C1374 C1377 1.348 . S
C1374 H1406 0.929 . S
C1375 C1376 1.358 . S
C1375 C1377 1.356 . S
C1375 H1407 0.930 . S
C1376 N1373 1.279 . S
C1376 C1375 1.358 . S
C1376 H1379 0.930 . S
C1377 C1374 1.348 . S
C1377 C1375 1.356 . S
H1378 C1372 0.930 . S
H1379 C1376 0.930 . S
O1380 Li1320 1.956 . S
O1380 Li1321 1.970 . S
O1380 Li1322 1.961 . S
O1380 C1324 1.325 . S
O1381 Li1320 1.970 . S
O1381 Li1321 1.956 . S
O1381 Li1323 1.961 . S
O1381 C1330 1.325 . S
O1382 Li1320 1.961 . S
O1382 Li1322 1.956 . S
O1382 Li1323 1.970 . S
O1382 C1352 1.325 . S
O1383 Li1321 1.961 . S
O1383 Li1322 1.970 . S
O1383 Li1323 1.956 . S
O1383 C1358 1.325 . S
H1384 C1326 0.929 . S
H1385 C1327 0.930 . S
H1386 C1328 0.930 . S
H1387 C1329 0.930 . S
H1388 C1331 0.930 . S
H1389 C1333 0.929 . S
H1390 C1334 0.930 . S
H1391 C1335 0.930 . S
H1392 C1338 0.930 . S
H1393 C1341 0.929 . S
H1394 C1346 0.929 . S
H1395 C1347 0.930 . S
H1396 C1354 0.929 . S
H1397 C1355 0.930 . S
H1398 C1356 0.930 . S
H1399 C1357 0.930 . S
H1400 C1359 0.929 . S
H1401 C1360 0.930 . S
H1402 C1361 0.930 . S
H1403 C1362 0.930 . S
H1404 C1366 0.929 . S
H1405 C1368 0.930 . S
H1406 C1374 0.929 . S
H1407 C1375 0.930 . S
Li1408 N1425 1.990 . S
Li1408 O1468 1.956 1_545 S
Li1408 O1469 1.970 . S
Li1408 O1470 1.961 . S
Li1409 N1433 1.990 . S
Li1409 O1468 1.970 . S
Li1409 O1469 1.956 1_565 S
Li1409 O1471 1.961 1_565 S
Li1410 N1455 1.990 . S
Li1410 O1468 1.961 1_545 S
Li1410 O1470 1.956 . S
Li1410 O1471 1.970 . S
Li1411 N1461 1.990 . S
Li1411 O1469 1.961 . S
Li1411 O1470 1.970 . S
Li1411 O1471 1.956 . S
C1412 C1414 1.348 . S
C1412 C1415 1.356 . S
C1412 O1468 1.325 . S
N1413 C1416 1.314 . S
N1413 C1417 1.279 . S
C1414 C1412 1.348 . S
C1414 C1416 1.353 . S
C1414 H1472 0.929 . S
C1415 C1412 1.356 . S
C1415 C1417 1.358 . S
C1415 H1473 0.930 . S
C1416 N1413 1.314 . S
C1416 C1414 1.353 . S
C1416 H1474 0.930 . S
C1417 N1413 1.279 . S
C1417 C1415 1.358 . S
C1417 H1475 0.930 1_655 S
C1418 C1421 1.348 . S
C1418 C1422 1.356 . S
C1418 O1469 1.325 . S
C1419 N1420 1.279 . S
C1419 C1422 1.358 . S
C1419 H1476 0.930 . S
N1420 C1419 1.279 . S
N1420 C1423 1.314 . S
C1421 C1418 1.348 . S
C1421 C1423 1.353 . S
C1421 H1477 0.929 . S
C1422 C1418 1.356 . S
C1422 C1419 1.358 . S
C1422 H1478 0.930 . S
C1423 N1420 1.314 . S
C1423 C1421 1.353 . S
C1423 H1479 0.930 . S
C1424 N1425 1.314 . S
C1424 C1429 1.353 . S
C1424 H1430 0.930 . S
N1425 Li1408 1.990 . S
N1425 C1424 1.314 . S
N1425 C1427 1.279 . S
C1426 C1427 1.358 . S
C1426 C1428 1.356 . S
C1426 H1480 0.930 1_545 S
C1427 N1425 1.279 . S
C1427 C1426 1.358 . S
C1427 H1431 0.930 1_545 S
C1428 C1426 1.356 . S
C1428 C1429 1.348 . S
C1429 C1424 1.353 . S
C1429 C1428 1.348 . S
C1429 H1481 0.929 . S
H1430 C1424 0.930 . S
H1431 C1427 0.930 1_565 S
C1432 N1433 1.314 . S
C1432 C1434 1.353 . S
C1432 H1438 0.930 . S
N1433 Li1409 1.990 . S
N1433 C1432 1.314 . S
N1433 C1436 1.279 . S
C1434 C1432 1.353 . S
C1434 C1437 1.348 . S
C1434 H1482 0.929 . S
C1435 C1436 1.358 . S
C1435 C1437 1.356 . S
C1435 H1483 0.930 . S
C1436 N1433 1.279 . S
C1436 C1435 1.358 . S
C1436 H1439 0.930 . S
C1437 C1434 1.348 . S
C1437 C1435 1.356 . S
H1438 C1432 0.930 . S
H1439 C1436 0.930 . S
C1440 C1442 1.348 . S
C1440 C1443 1.356 . S
C1440 O1470 1.325 . S
N1441 C1444 1.314 . S
N1441 C1445 1.281 1_655 S
C1442 C1440 1.348 . S
C1442 C1444 1.353 . S
C1442 H1484 0.929 . S
C1443 C1440 1.356 . S
C1443 C1445 1.360 1_655 S
C1443 H1485 0.930 . S
C1444 N1441 1.314 . S
C1444 C1442 1.353 . S
C1444 H1486 0.930 . S
C1445 N1441 1.281 1_455 S
C1445 C1443 1.360 1_455 S
C1445 H1487 0.927 . S
C1446 C1447 1.348 . S
C1446 C1448 1.352 1_545 S
C1446 O1471 1.325 . S
C1447 C1446 1.348 . S
C1447 C1449 1.353 . S
C1447 H1488 0.929 . S
C1448 C1446 1.352 1_565 S
C1448 C1450 1.353 . S
C1448 H1489 0.942 . S
C1449 C1447 1.353 . S
C1449 N1451 1.314 . S
C1449 H1490 0.930 . S
C1450 C1448 1.353 . S
C1450 N1451 1.279 1_565 S
C1450 H1491 0.930 . S
N1451 C1449 1.314 . S
N1451 C1450 1.279 1_545 S
C1452 C1454 1.353 . S
C1452 N1455 1.314 1_565 S
C1452 H1458 0.930 . S
C1453 N1455 1.279 . S
C1453 C1456 1.358 . S
C1453 H1459 0.930 . S
C1454 C1452 1.353 . S
C1454 C1457 1.348 1_565 S
C1454 H1492 0.929 . S
N1455 Li1410 1.990 . S
N1455 C1452 1.314 1_545 S
N1455 C1453 1.279 . S
C1456 C1453 1.358 . S
C1456 C1457 1.356 . S
C1456 H1493 0.930 . S
C1457 C1454 1.348 1_545 S
C1457 C1456 1.356 . S
H1458 C1452 0.930 . S
H1459 C1453 0.930 . S
C1460 N1461 1.314 . S
C1460 C1462 1.353 . S
C1460 H1466 0.930 . S
N1461 Li1411 1.990 . S
N1461 C1460 1.314 . S
N1461 C1464 1.279 . S
C1462 C1460 1.353 . S
C1462 C1465 1.348 . S
C1462 H1494 0.929 . S
C1463 C1464 1.358 . S
C1463 C1465 1.356 . S
C1463 H1495 0.930 . S
C1464 N1461 1.279 . S
C1464 C1463 1.358 . S
C1464 H1467 0.930 . S
C1465 C1462 1.348 . S
C1465 C1463 1.356 . S
H1466 C1460 0.930 . S
H1467 C1464 0.930 . S
O1468 Li1408 1.956 1_565 S
O1468 Li1409 1.970 . S
O1468 Li1410 1.961 1_565 S
O1468 C1412 1.325 . S
O1469 Li1408 1.970 . S
O1469 Li1409 1.956 1_545 S
O1469 Li1411 1.961 . S
O1469 C1418 1.325 . S
O1470 Li1408 1.961 . S
O1470 Li1410 1.956 . S
O1470 Li1411 1.970 . S
O1470 C1440 1.325 . S
O1471 Li1409 1.961 1_545 S
O1471 Li1410 1.970 . S
O1471 Li1411 1.956 . S
O1471 C1446 1.325 . S
H1472 C1414 0.929 . S
H1473 C1415 0.930 . S
H1474 C1416 0.930 . S
H1475 C1417 0.930 1_455 S
H1476 C1419 0.930 . S
H1477 C1421 0.929 . S
H1478 C1422 0.930 . S
H1479 C1423 0.930 . S
H1480 C1426 0.930 1_565 S
H1481 C1429 0.929 . S
H1482 C1434 0.929 . S
H1483 C1435 0.930 . S
H1484 C1442 0.929 . S
H1485 C1443 0.930 . S
H1486 C1444 0.930 . S
H1487 C1445 0.927 . S
H1488 C1447 0.929 . S
H1489 C1448 0.942 . S
H1490 C1449 0.930 . S
H1491 C1450 0.930 . S
H1492 C1454 0.929 . S
H1493 C1456 0.930 . S
H1494 C1462 0.929 . S
H1495 C1463 0.930 . S
Li1496 N1513 1.990 . S
Li1496 O1556 1.956 . S
Li1496 O1557 1.970 . S
Li1496 O1558 1.961 . S
Li1497 N1521 1.990 . S
Li1497 O1556 1.970 . S
Li1497 O1557 1.956 . S
Li1497 O1559 1.961 . S
Li1498 N1543 1.990 . S
Li1498 O1556 1.961 . S
Li1498 O1558 1.956 . S
Li1498 O1559 1.970 . S
Li1499 N1549 1.990 . S
Li1499 O1557 1.961 . S
Li1499 O1558 1.970 . S
Li1499 O1559 1.956 . S
C1500 C1502 1.348 . S
C1500 C1503 1.356 . S
C1500 O1556 1.325 . S
N1501 C1504 1.314 . S
N1501 C1505 1.279 . S
C1502 C1500 1.348 . S
C1502 C1504 1.353 . S
C1502 H1560 0.929 . S
C1503 C1500 1.356 . S
C1503 C1505 1.358 . S
C1503 H1561 0.930 . S
C1504 N1501 1.314 . S
C1504 C1502 1.353 . S
C1504 H1562 0.930 . S
C1505 N1501 1.279 . S
C1505 C1503 1.358 . S
C1505 H1563 0.930 . S
C1506 C1509 1.348 . S
C1506 C1510 1.356 . S
C1506 O1557 1.325 . S
C1507 N1508 1.279 . S
C1507 C1510 1.358 . S
C1507 H1564 0.930 . S
N1508 C1507 1.279 . S
N1508 C1511 1.314 . S
C1509 C1506 1.348 . S
C1509 C1511 1.353 . S
C1509 H1565 0.929 . S
C1510 C1506 1.356 . S
C1510 C1507 1.358 . S
C1510 H1566 0.930 . S
C1511 N1508 1.314 . S
C1511 C1509 1.353 . S
C1511 H1567 0.930 . S
C1512 N1513 1.314 . S
C1512 C1517 1.353 . S
C1512 H1518 0.930 . S
N1513 Li1496 1.990 . S
N1513 C1512 1.314 . S
N1513 C1515 1.279 . S
C1514 C1515 1.358 . S
C1514 C1516 1.356 . S
C1514 H1568 0.930 . S
C1515 N1513 1.279 . S
C1515 C1514 1.358 . S
C1515 H1519 0.930 . S
C1516 C1514 1.356 . S
C1516 C1517 1.348 . S
C1517 C1512 1.353 . S
C1517 C1516 1.348 . S
C1517 H1569 0.929 . S
H1518 C1512 0.930 . S
H1519 C1515 0.930 . S
C1520 N1521 1.314 . S
C1520 C1522 1.353 . S
C1520 H1526 0.930 . S
N1521 Li1497 1.990 . S
N1521 C1520 1.314 . S
N1521 C1524 1.279 . S
C1522 C1520 1.353 . S
C1522 C1525 1.348 . S
C1522 H1570 0.929 . S
C1523 C1524 1.358 . S
C1523 C1525 1.356 . S
C1523 H1571 0.930 . S
C1524 N1521 1.279 . S
C1524 C1523 1.358 . S
C1524 H1527 0.930 . S
C1525 C1522 1.348 . S
C1525 C1523 1.356 . S
H1526 C1520 0.930 . S
H1527 C1524 0.930 . S
C1528 C1530 1.348 . S
C1528 C1531 1.356 . S
C1528 O1558 1.325 . S
N1529 C1532 1.314 . S
N1529 C1533 1.279 . S
C1530 C1528 1.348 . S
C1530 C1532 1.353 . S
C1530 H1572 0.929 . S
C1531 C1528 1.356 . S
C1531 C1533 1.358 . S
C1531 H1573 0.930 . S
C1532 N1529 1.314 . S
C1532 C1530 1.353 . S
C1532 H1574 0.930 . S
C1533 N1529 1.279 . S
C1533 C1531 1.358 . S
C1533 H1575 0.930 . S
C1534 C1535 1.348 . S
C1534 C1536 1.356 . S
C1534 O1559 1.325 . S
C1535 C1534 1.348 . S
C1535 C1537 1.353 . S
C1535 H1576 0.929 . S
C1536 C1534 1.356 . S
C1536 C1538 1.358 . S
C1536 H1577 0.930 . S
C1537 C1535 1.353 . S
C1537 N1539 1.314 . S
C1537 H1578 0.930 . S
C1538 C1536 1.358 . S
C1538 N1539 1.279 . S
C1538 H1579 0.930 . S
N1539 C1537 1.314 . S
N1539 C1538 1.279 . S
C1540 C1542 1.353 . S
C1540 N1543 1.314 . S
C1540 H1546 0.930 . S
C1541 N1543 1.279 . S
C1541 C1544 1.358 . S
C1541 H1547 0.930 . S
C1542 C1540 1.353 . S
C1542 C1545 1.348 . S
C1542 H1580 0.929 . S
N1543 Li1498 1.990 . S
N1543 C1540 1.314 . S
N1543 C1541 1.279 . S
C1544 C1541 1.358 . S
C1544 C1545 1.356 . S
C1544 H1581 0.930 . S
C1545 C1542 1.348 . S
C1545 C1544 1.356 . S
H1546 C1540 0.930 . S
H1547 C1541 0.930 . S
C1548 N1549 1.314 . S
C1548 C1550 1.353 . S
C1548 H1554 0.930 . S
N1549 Li1499 1.990 . S
N1549 C1548 1.314 . S
N1549 C1552 1.279 . S
C1550 C1548 1.353 . S
C1550 C1553 1.348 . S
C1550 H1582 0.929 . S
C1551 C1552 1.358 . S
C1551 C1553 1.356 . S
C1551 H1583 0.930 . S
C1552 N1549 1.279 . S
C1552 C1551 1.358 . S
C1552 H1555 0.930 . S
C1553 C1550 1.348 . S
C1553 C1551 1.356 . S
H1554 C1548 0.930 . S
H1555 C1552 0.930 . S
O1556 Li1496 1.956 . S
O1556 Li1497 1.970 . S
O1556 Li1498 1.961 . S
O1556 C1500 1.325 . S
O1557 Li1496 1.970 . S
O1557 Li1497 1.956 . S
O1557 Li1499 1.961 . S
O1557 C1506 1.325 . S
O1558 Li1496 1.961 . S
O1558 Li1498 1.956 . S
O1558 Li1499 1.970 . S
O1558 C1528 1.325 . S
O1559 Li1497 1.961 . S
O1559 Li1498 1.970 . S
O1559 Li1499 1.956 . S
O1559 C1534 1.325 . S
H1560 C1502 0.929 . S
H1561 C1503 0.930 . S
H1562 C1504 0.930 . S
H1563 C1505 0.930 . S
H1564 C1507 0.930 . S
H1565 C1509 0.929 . S
H1566 C1510 0.930 . S
H1567 C1511 0.930 . S
H1568 C1514 0.930 . S
H1569 C1517 0.929 . S
H1570 C1522 0.929 . S
H1571 C1523 0.930 . S
H1572 C1530 0.929 . S
H1573 C1531 0.930 . S
H1574 C1532 0.930 . S
H1575 C1533 0.930 . S
H1576 C1535 0.929 . S
H1577 C1536 0.930 . S
H1578 C1537 0.930 . S
H1579 C1538 0.930 . S
H1580 C1542 0.929 . S
H1581 C1544 0.930 . S
H1582 C1550 0.929 . S
H1583 C1551 0.930 . S
Li1584 N1601 1.990 . S
Li1584 O1644 1.956 . S
Li1584 O1645 1.970 . S
Li1584 O1646 1.961 . S
Li1585 N1609 1.990 . S
Li1585 O1644 1.970 . S
Li1585 O1645 1.956 . S
Li1585 O1647 1.961 . S
Li1586 N1631 1.990 . S
Li1586 O1644 1.961 . S
Li1586 O1646 1.956 . S
Li1586 O1647 1.970 . S
Li1587 N1637 1.990 . S
Li1587 O1645 1.961 . S
Li1587 O1646 1.970 . S
Li1587 O1647 1.956 . S
C1588 C1590 1.348 . S
C1588 C1591 1.356 . S
C1588 O1644 1.325 . S
N1589 C1592 1.314 . S
N1589 C1593 1.279 . S
C1590 C1588 1.348 . S
C1590 C1592 1.353 . S
C1590 H1648 0.929 . S
C1591 C1588 1.356 . S
C1591 C1593 1.358 . S
C1591 H1649 0.930 . S
C1592 N1589 1.314 . S
C1592 C1590 1.353 . S
C1592 H1650 0.930 . S
C1593 N1589 1.279 . S
C1593 C1591 1.358 . S
C1593 H1651 0.930 . S
C1594 C1597 1.348 . S
C1594 C1598 1.356 . S
C1594 O1645 1.325 . S
C1595 N1596 1.279 . S
C1595 C1598 1.358 . S
C1595 H1652 0.930 . S
N1596 C1595 1.279 . S
N1596 C1599 1.314 . S
C1597 C1594 1.348 . S
C1597 C1599 1.353 . S
C1597 H1653 0.929 . S
C1598 C1594 1.356 . S
C1598 C1595 1.358 . S
C1598 H1654 0.930 . S
C1599 N1596 1.314 . S
C1599 C1597 1.353 . S
C1599 H1655 0.930 . S
C1600 N1601 1.314 . S
C1600 C1605 1.353 . S
C1600 H1606 0.930 . S
N1601 Li1584 1.990 . S
N1601 C1600 1.314 . S
N1601 C1603 1.279 . S
C1602 C1603 1.358 . S
C1602 C1604 1.356 . S
C1602 H1656 0.930 . S
C1603 N1601 1.279 . S
C1603 C1602 1.358 . S
C1603 H1607 0.930 . S
C1604 C1602 1.356 . S
C1604 C1605 1.348 . S
C1605 C1600 1.353 . S
C1605 C1604 1.348 . S
C1605 H1657 0.929 . S
H1606 C1600 0.930 . S
H1607 C1603 0.930 . S
C1608 N1609 1.314 . S
C1608 C1610 1.353 . S
C1608 H1614 0.930 . S
N1609 Li1585 1.990 . S
N1609 C1608 1.314 . S
N1609 C1612 1.279 . S
C1610 C1608 1.353 . S
C1610 C1613 1.348 . S
C1610 H1658 0.929 . S
C1611 C1612 1.358 . S
C1611 C1613 1.356 . S
C1611 H1659 0.930 . S
C1612 N1609 1.279 . S
C1612 C1611 1.358 . S
C1612 H1615 0.930 . S
C1613 C1610 1.348 . S
C1613 C1611 1.356 . S
H1614 C1608 0.930 . S
H1615 C1612 0.930 . S
C1616 C1618 1.348 . S
C1616 C1619 1.356 . S
C1616 O1646 1.325 . S
N1617 C1620 1.314 . S
N1617 C1621 1.279 . S
C1618 C1616 1.348 . S
C1618 C1620 1.353 . S
C1618 H1660 0.929 . S
C1619 C1616 1.356 . S
C1619 C1621 1.358 . S
C1619 H1661 0.930 . S
C1620 N1617 1.314 . S
C1620 C1618 1.353 . S
C1620 H1662 0.930 . S
C1621 N1617 1.279 . S
C1621 C1619 1.358 . S
C1621 H1663 0.930 . S
C1622 C1623 1.348 . S
C1622 C1624 1.356 . S
C1622 O1647 1.325 . S
C1623 C1622 1.348 . S
C1623 C1625 1.353 . S
C1623 H1664 0.929 . S
C1624 C1622 1.356 . S
C1624 C1626 1.358 . S
C1624 H1665 0.930 . S
C1625 C1623 1.353 . S
C1625 N1627 1.314 . S
C1625 H1666 0.930 . S
C1626 C1624 1.358 . S
C1626 N1627 1.279 . S
C1626 H1667 0.930 . S
N1627 C1625 1.314 . S
N1627 C1626 1.279 . S
C1628 C1630 1.353 . S
C1628 N1631 1.314 . S
C1628 H1634 0.930 . S
C1629 N1631 1.279 . S
C1629 C1632 1.358 . S
C1629 H1635 0.930 . S
C1630 C1628 1.353 . S
C1630 C1633 1.348 . S
C1630 H1668 0.929 . S
N1631 Li1586 1.990 . S
N1631 C1628 1.314 . S
N1631 C1629 1.279 . S
C1632 C1629 1.358 . S
C1632 C1633 1.356 . S
C1632 H1669 0.930 . S
C1633 C1630 1.348 . S
C1633 C1632 1.356 . S
H1634 C1628 0.930 . S
H1635 C1629 0.930 . S
C1636 N1637 1.314 . S
C1636 C1638 1.353 . S
C1636 H1642 0.930 . S
N1637 Li1587 1.990 . S
N1637 C1636 1.314 . S
N1637 C1640 1.279 . S
C1638 C1636 1.353 . S
C1638 C1641 1.348 . S
C1638 H1670 0.929 . S
C1639 C1640 1.358 . S
C1639 C1641 1.356 . S
C1639 H1671 0.930 . S
C1640 N1637 1.279 . S
C1640 C1639 1.358 . S
C1640 H1643 0.930 . S
C1641 C1638 1.348 . S
C1641 C1639 1.356 . S
H1642 C1636 0.930 . S
H1643 C1640 0.930 . S
O1644 Li1584 1.956 . S
O1644 Li1585 1.970 . S
O1644 Li1586 1.961 . S
O1644 C1588 1.325 . S
O1645 Li1584 1.970 . S
O1645 Li1585 1.956 . S
O1645 Li1587 1.961 . S
O1645 C1594 1.325 . S
O1646 Li1584 1.961 . S
O1646 Li1586 1.956 . S
O1646 Li1587 1.970 . S
O1646 C1616 1.325 . S
O1647 Li1585 1.961 . S
O1647 Li1586 1.970 . S
O1647 Li1587 1.956 . S
O1647 C1622 1.325 . S
H1648 C1590 0.929 . S
H1649 C1591 0.930 . S
H1650 C1592 0.930 . S
H1651 C1593 0.930 . S
H1652 C1595 0.930 . S
H1653 C1597 0.929 . S
H1654 C1598 0.930 . S
H1655 C1599 0.930 . S
H1656 C1602 0.930 . S
H1657 C1605 0.929 . S
H1658 C1610 0.929 . S
H1659 C1611 0.930 . S
H1660 C1618 0.929 . S
H1661 C1619 0.930 . S
H1662 C1620 0.930 . S
H1663 C1621 0.930 . S
H1664 C1623 0.929 . S
H1665 C1624 0.930 . S
H1666 C1625 0.930 . S
H1667 C1626 0.930 . S
H1668 C1630 0.929 . S
H1669 C1632 0.930 . S
H1670 C1638 0.929 . S
H1671 C1639 0.930 . S
Li1672 N1689 1.990 . S
Li1672 O1732 1.956 . S
Li1672 O1733 1.970 . S
Li1672 O1734 1.961 . S
Li1673 N1697 1.990 . S
Li1673 O1732 1.970 . S
Li1673 O1733 1.956 . S
Li1673 O1735 1.961 . S
Li1674 N1719 1.990 . S
Li1674 O1732 1.961 . S
Li1674 O1734 1.956 . S
Li1674 O1735 1.970 . S
Li1675 N1725 1.990 . S
Li1675 O1733 1.961 . S
Li1675 O1734 1.970 . S
Li1675 O1735 1.956 . S
C1676 C1678 1.348 . S
C1676 C1679 1.356 . S
C1676 O1732 1.325 . S
N1677 C1680 1.314 . S
N1677 C1681 1.279 . S
C1678 C1676 1.348 . S
C1678 C1680 1.353 . S
C1678 H1736 0.929 . S
C1679 C1676 1.356 . S
C1679 C1681 1.358 . S
C1679 H1737 0.930 . S
C1680 N1677 1.314 . S
C1680 C1678 1.353 . S
C1680 H1738 0.930 . S
C1681 N1677 1.279 . S
C1681 C1679 1.358 . S
C1681 H1739 0.930 . S
C1682 C1685 1.348 . S
C1682 C1686 1.356 . S
C1682 O1733 1.325 . S
C1683 N1684 1.279 . S
C1683 C1686 1.358 . S
C1683 H1740 0.930 . S
N1684 C1683 1.279 . S
N1684 C1687 1.314 . S
C1685 C1682 1.348 . S
C1685 C1687 1.353 . S
C1685 H1741 0.929 . S
C1686 C1682 1.356 . S
C1686 C1683 1.358 . S
C1686 H1742 0.930 . S
C1687 N1684 1.314 . S
C1687 C1685 1.353 . S
C1687 H1743 0.930 . S
C1688 N1689 1.314 . S
C1688 C1693 1.353 . S
C1688 H1694 0.930 . S
N1689 Li1672 1.990 . S
N1689 C1688 1.314 . S
N1689 C1691 1.279 . S
C1690 C1691 1.358 . S
C1690 C1692 1.356 . S
C1690 H1744 0.930 . S
C1691 N1689 1.279 . S
C1691 C1690 1.358 . S
C1691 H1695 0.930 . S
C1692 C1690 1.356 . S
C1692 C1693 1.348 . S
C1693 C1688 1.353 . S
C1693 C1692 1.348 . S
C1693 H1745 0.929 . S
H1694 C1688 0.930 . S
H1695 C1691 0.930 . S
C1696 N1697 1.314 . S
C1696 C1698 1.353 . S
C1696 H1702 0.930 . S
N1697 Li1673 1.990 . S
N1697 C1696 1.314 . S
N1697 C1700 1.279 . S
C1698 C1696 1.353 . S
C1698 C1701 1.348 . S
C1698 H1746 0.929 . S
C1699 C1700 1.358 . S
C1699 C1701 1.356 . S
C1699 H1747 0.930 . S
C1700 N1697 1.279 . S
C1700 C1699 1.358 . S
C1700 H1703 0.930 . S
C1701 C1698 1.348 . S
C1701 C1699 1.356 . S
H1702 C1696 0.930 . S
H1703 C1700 0.930 . S
C1704 C1706 1.348 1_545 S
C1704 C1707 1.356 . S
C1704 O1734 1.325 . S
N1705 C1708 1.314 . S
N1705 C1709 1.279 . S
C1706 C1704 1.348 1_565 S
C1706 C1708 1.353 . S
C1706 H1748 0.929 . S
C1707 C1704 1.356 . S
C1707 C1709 1.358 1_545 S
C1707 H1749 0.930 . S
C1708 N1705 1.314 . S
C1708 C1706 1.353 . S
C1708 H1750 0.930 . S
C1709 N1705 1.279 . S
C1709 C1707 1.358 1_565 S
C1709 H1751 0.930 . S
C1710 C1711 1.348 . S
C1710 C1712 1.356 . S
C1710 O1735 1.325 . S
C1711 C1710 1.348 . S
C1711 C1713 1.353 . S
C1711 H1752 0.929 . S
C1712 C1710 1.356 . S
C1712 C1714 1.358 . S
C1712 H1753 0.930 . S
C1713 C1711 1.353 . S
C1713 N1715 1.314 . S
C1713 H1754 0.930 . S
C1714 C1712 1.358 . S
C1714 N1715 1.279 . S
C1714 H1755 0.930 . S
N1715 C1713 1.314 . S
N1715 C1714 1.279 . S
C1716 C1718 1.353 . S
C1716 N1719 1.314 . S
C1716 H1722 0.930 . S
C1717 N1719 1.279 . S
C1717 C1720 1.358 . S
C1717 H1723 0.930 . S
C1718 C1716 1.353 . S
C1718 C1721 1.348 . S
C1718 H1756 0.929 . S
N1719 Li1674 1.990 . S
N1719 C1716 1.314 . S
N1719 C1717 1.279 . S
C1720 C1717 1.358 . S
C1720 C1721 1.356 . S
C1720 H1757 0.930 . S
C1721 C1718 1.348 . S
C1721 C1720 1.356 . S
H1722 C1716 0.930 . S
H1723 C1717 0.930 . S
C1724 N1725 1.286 1_565 S
C1724 C1726 1.394 . S
C1724 H1730 0.917 1_565 S
N1725 Li1675 1.990 . S
N1725 C1724 1.286 1_545 S
N1725 C1728 1.279 . S
C1726 C1724 1.394 . S
C1726 C1729 1.348 . S
C1726 H1758 0.929 . S
C1727 C1728 1.358 1_565 S
C1727 C1729 1.356 . S
C1727 H1759 0.930 . S
C1728 N1725 1.279 . S
C1728 C1727 1.358 1_545 S
C1728 H1731 0.930 . S
C1729 C1726 1.348 . S
C1729 C1727 1.356 . S
H1730 C1724 0.917 1_545 S
H1731 C1728 0.930 . S
O1732 Li1672 1.956 . S
O1732 Li1673 1.970 . S
O1732 Li1674 1.961 . S
O1732 C1676 1.325 . S
O1733 Li1672 1.970 . S
O1733 Li1673 1.956 . S
O1733 Li1675 1.961 . S
O1733 C1682 1.325 . S
O1734 Li1672 1.961 . S
O1734 Li1674 1.956 . S
O1734 Li1675 1.970 . S
O1734 C1704 1.325 . S
O1735 Li1673 1.961 . S
O1735 Li1674 1.970 . S
O1735 Li1675 1.956 . S
O1735 C1710 1.325 . S
H1736 C1678 0.929 . S
H1737 C1679 0.930 . S
H1738 C1680 0.930 . S
H1739 C1681 0.930 . S
H1740 C1683 0.930 . S
H1741 C1685 0.929 . S
H1742 C1686 0.930 . S
H1743 C1687 0.930 . S
H1744 C1690 0.930 . S
H1745 C1693 0.929 . S
H1746 C1698 0.929 . S
H1747 C1699 0.930 . S
H1748 C1706 0.929 . S
H1749 C1707 0.930 . S
H1750 C1708 0.930 . S
H1751 C1709 0.930 . S
H1752 C1711 0.929 . S
H1753 C1712 0.930 . S
H1754 C1713 0.930 . S
H1755 C1714 0.930 . S
H1756 C1718 0.929 . S
H1757 C1720 0.930 . S
H1758 C1726 0.929 . S
H1759 C1727 0.930 . S
Li1760 N1777 1.990 . S
Li1760 O1820 1.956 . S
Li1760 O1821 1.970 . S
Li1760 O1822 1.961 . S
Li1761 N1785 1.990 . S
Li1761 O1820 1.970 . S
Li1761 O1821 1.956 . S
Li1761 O1823 1.961 1_554 S
Li1762 N1807 1.990 . S
Li1762 O1820 1.961 1_556 S
Li1762 O1822 1.956 1_556 S
Li1762 O1823 1.970 . S
Li1763 N1813 1.990 . S
Li1763 O1821 1.961 . S
Li1763 O1822 1.970 . S
Li1763 O1823 1.956 1_554 S
C1764 C1766 1.348 . S
C1764 C1767 1.356 . S
C1764 O1820 1.325 . S
N1765 C1768 1.314 . S
N1765 C1769 1.279 . S
C1766 C1764 1.348 . S
C1766 C1768 1.353 . S
C1766 H1824 0.929 . S
C1767 C1764 1.356 . S
C1767 C1769 1.358 . S
C1767 H1825 0.930 . S
C1768 N1765 1.314 . S
C1768 C1766 1.353 . S
C1768 H1826 0.930 . S
C1769 N1765 1.279 . S
C1769 C1767 1.358 . S
C1769 H1827 0.930 . S
C1770 C1773 1.348 . S
C1770 C1774 1.356 . S
C1770 O1821 1.325 . S
C1771 N1772 1.279 . S
C1771 C1774 1.358 . S
C1771 H1828 0.930 . S
N1772 C1771 1.279 . S
N1772 C1775 1.314 . S
C1773 C1770 1.348 . S
C1773 C1775 1.353 . S
C1773 H1829 0.929 . S
C1774 C1770 1.356 . S
C1774 C1771 1.358 . S
C1774 H1830 0.930 . S
C1775 N1772 1.314 . S
C1775 C1773 1.353 . S
C1775 H1831 0.930 . S
C1776 N1777 1.314 . S
C1776 C1781 1.353 . S
C1776 H1782 0.930 . S
N1777 Li1760 1.990 . S
N1777 C1776 1.314 . S
N1777 C1779 1.279 . S
C1778 C1779 1.358 . S
C1778 C1780 1.356 . S
C1778 H1832 0.930 . S
C1779 N1777 1.279 . S
C1779 C1778 1.358 . S
C1779 H1783 0.930 . S
C1780 C1778 1.356 . S
C1780 C1781 1.348 . S
C1781 C1776 1.353 . S
C1781 C1780 1.348 . S
C1781 H1833 0.929 . S
H1782 C1776 0.930 . S
H1783 C1779 0.930 . S
C1784 N1785 1.314 1_556 S
C1784 C1786 1.353 . S
C1784 H1790 0.930 . S
N1785 Li1761 1.990 . S
N1785 C1784 1.314 1_554 S
N1785 C1788 1.279 . S
C1786 C1784 1.353 . S
C1786 C1789 1.348 1_556 S
C1786 H1834 0.929 . S
C1787 C1788 1.358 . S
C1787 C1789 1.356 . S
C1787 H1835 0.930 . S
C1788 N1785 1.279 . S
C1788 C1787 1.358 . S
C1788 H1791 0.930 . S
C1789 C1786 1.348 1_554 S
C1789 C1787 1.356 . S
H1790 C1784 0.930 . S
H1791 C1788 0.930 . S
C1792 C1794 1.348 . S
C1792 C1795 1.356 . S
C1792 O1822 1.325 . S
N1793 C1796 1.314 . S
N1793 C1797 1.279 . S
C1794 C1792 1.348 . S
C1794 C1796 1.353 . S
C1794 H1836 0.929 1_554 S
C1795 C1792 1.356 . S
C1795 C1797 1.358 . S
C1795 H1837 0.930 . S
C1796 N1793 1.314 . S
C1796 C1794 1.353 . S
C1796 H1838 0.934 . S
C1797 N1793 1.279 . S
C1797 C1795 1.358 . S
C1797 H1839 0.930 . S
C1798 C1799 1.348 . S
C1798 C1800 1.356 . S
C1798 O1823 1.325 . S
C1799 C1798 1.348 . S
C1799 C1801 1.353 . S
C1799 H1840 0.929 . S
C1800 C1798 1.356 . S
C1800 C1802 1.358 . S
C1800 H1841 0.930 . S
C1801 C1799 1.353 . S
C1801 N1803 1.314 . S
C1801 H1842 0.930 . S
C1802 C1800 1.358 . S
C1802 N1803 1.279 . S
C1802 H1843 0.930 . S
N1803 C1801 1.314 . S
N1803 C1802 1.279 . S
C1804 C1806 1.353 . S
C1804 N1807 1.314 . S
C1804 H1810 0.930 . S
C1805 N1807 1.279 . S
C1805 C1808 1.358 . S
C1805 H1811 0.930 . S
C1806 C1804 1.353 . S
C1806 C1809 1.348 . S
C1806 H1844 0.929 . S
N1807 Li1762 1.990 . S
N1807 C1804 1.314 . S
N1807 C1805 1.279 . S
C1808 C1805 1.358 . S
C1808 C1809 1.356 . S
C1808 H1845 0.930 . S
C1809 C1806 1.348 . S
C1809 C1808 1.356 . S
H1810 C1804 0.930 . S
H1811 C1805 0.930 . S
C1812 N1813 1.314 . S
C1812 C1814 1.353 . S
C1812 H1818 0.930 . S
N1813 Li1763 1.990 . S
N1813 C1812 1.314 . S
N1813 C1816 1.279 1_554 S
C1814 C1812 1.353 . S
C1814 C1817 1.348 . S
C1814 H1846 0.929 . S
C1815 C1816 1.358 . S
C1815 C1817 1.356 1_556 S
C1815 H1847 0.930 . S
C1816 N1813 1.279 1_556 S
C1816 C1815 1.358 . S
C1816 H1819 0.930 . S
C1817 C1814 1.348 . S
C1817 C1815 1.356 1_554 S
H1818 C1812 0.930 . S
H1819 C1816 0.930 . S
O1820 Li1760 1.956 . S
O1820 Li1761 1.970 . S
O1820 Li1762 1.961 1_554 S
O1820 C1764 1.325 . S
O1821 Li1760 1.970 . S
O1821 Li1761 1.956 . S
O1821 Li1763 1.961 . S
O1821 C1770 1.325 . S
O1822 Li1760 1.961 . S
O1822 Li1762 1.956 1_554 S
O1822 Li1763 1.970 . S
O1822 C1792 1.325 . S
O1823 Li1761 1.961 1_556 S
O1823 Li1762 1.970 . S
O1823 Li1763 1.956 1_556 S
O1823 C1798 1.325 . S
H1824 C1766 0.929 . S
H1825 C1767 0.930 . S
H1826 C1768 0.930 . S
H1827 C1769 0.930 . S
H1828 C1771 0.930 . S
H1829 C1773 0.929 . S
H1830 C1774 0.930 . S
H1831 C1775 0.930 . S
H1832 C1778 0.930 . S
H1833 C1781 0.929 . S
H1834 C1786 0.929 . S
H1835 C1787 0.930 . S
H1836 C1794 0.929 1_556 S
H1837 C1795 0.930 . S
H1838 C1796 0.934 . S
H1839 C1797 0.930 . S
H1840 C1799 0.929 . S
H1841 C1800 0.930 . S
H1842 C1801 0.930 . S
H1843 C1802 0.930 . S
H1844 C1806 0.929 . S
H1845 C1808 0.930 . S
H1846 C1814 0.929 . S
H1847 C1815 0.930 . S
Li1848 N1865 1.990 . S
Li1848 O1908 1.956 . S
Li1848 O1909 1.970 . S
Li1848 O1910 1.961 . S
Li1849 N1873 1.990 . S
Li1849 O1908 1.970 . S
Li1849 O1909 1.956 . S
Li1849 O1911 1.961 . S
Li1850 N1895 1.990 . S
Li1850 O1908 1.961 . S
Li1850 O1910 1.956 . S
Li1850 O1911 1.970 . S
Li1851 N1901 1.990 . S
Li1851 O1909 1.961 . S
Li1851 O1910 1.970 . S
Li1851 O1911 1.956 . S
C1852 C1854 1.348 . S
C1852 C1855 1.356 . S
C1852 O1908 1.325 . S
N1853 C1856 1.314 . S
N1853 C1857 1.279 . S
C1854 C1852 1.348 . S
C1854 C1856 1.353 . S
C1854 H1912 0.929 . S
C1855 C1852 1.356 . S
C1855 C1857 1.358 . S
C1855 H1913 0.930 . S
C1856 N1853 1.314 . S
C1856 C1854 1.353 . S
C1856 H1914 0.930 . S
C1857 N1853 1.279 . S
C1857 C1855 1.358 . S
C1857 H1915 0.930 . S
C1858 C1861 1.348 . S
C1858 C1862 1.356 . S
C1858 O1909 1.325 . S
C1859 N1860 1.279 . S
C1859 C1862 1.358 . S
C1859 H1916 0.930 . S
N1860 C1859 1.279 . S
N1860 C1863 1.314 . S
C1861 C1858 1.348 . S
C1861 C1863 1.353 . S
C1861 H1917 0.929 . S
C1862 C1858 1.356 . S
C1862 C1859 1.358 . S
C1862 H1918 0.930 . S
C1863 N1860 1.314 . S
C1863 C1861 1.353 . S
C1863 H1919 0.930 . S
C1864 N1865 1.314 . S
C1864 C1869 1.353 . S
C1864 H1870 0.930 . S
N1865 Li1848 1.990 . S
N1865 C1864 1.314 . S
N1865 C1867 1.279 . S
C1866 C1867 1.358 . S
C1866 C1868 1.356 . S
C1866 H1920 0.930 . S
C1867 N1865 1.279 . S
C1867 C1866 1.358 . S
C1867 H1871 0.930 . S
C1868 C1866 1.356 . S
C1868 C1869 1.348 . S
C1869 C1864 1.353 . S
C1869 C1868 1.348 . S
C1869 H1921 0.929 . S
H1870 C1864 0.930 . S
H1871 C1867 0.930 . S
C1872 N1873 1.314 . S
C1872 C1874 1.353 . S
C1872 H1878 0.930 . S
N1873 Li1849 1.990 . S
N1873 C1872 1.314 . S
N1873 C1876 1.279 . S
C1874 C1872 1.353 . S
C1874 C1877 1.348 . S
C1874 H1922 0.929 . S
C1875 C1876 1.358 . S
C1875 C1877 1.356 . S
C1875 H1923 0.930 . S
C1876 N1873 1.279 . S
C1876 C1875 1.358 . S
C1876 H1879 0.930 . S
C1877 C1874 1.348 . S
C1877 C1875 1.356 . S
H1878 C1872 0.930 . S
H1879 C1876 0.930 . S
C1880 C1882 1.348 . S
C1880 C1883 1.356 . S
C1880 O1910 1.325 . S
N1881 C1884 1.314 . S
N1881 C1885 1.279 . S
C1882 C1880 1.348 . S
C1882 C1884 1.353 . S
C1882 H1924 0.929 . S
C1883 C1880 1.356 . S
C1883 C1885 1.358 . S
C1883 H1925 0.930 . S
C1884 N1881 1.314 . S
C1884 C1882 1.353 . S
C1884 H1926 0.930 . S
C1885 N1881 1.279 . S
C1885 C1883 1.358 . S
C1885 H1927 0.930 . S
C1886 C1887 1.348 . S
C1886 C1888 1.356 . S
C1886 O1911 1.325 . S
C1887 C1886 1.348 . S
C1887 C1889 1.353 . S
C1887 H1928 0.929 . S
C1888 C1886 1.356 . S
C1888 C1890 1.358 . S
C1888 H1929 0.930 . S
C1889 C1887 1.353 . S
C1889 N1891 1.314 . S
C1889 H1930 0.930 . S
C1890 C1888 1.358 . S
C1890 N1891 1.279 . S
C1890 H1931 0.930 . S
N1891 C1889 1.314 . S
N1891 C1890 1.279 . S
C1892 C1894 1.353 . S
C1892 N1895 1.314 . S
C1892 H1898 0.930 . S
C1893 N1895 1.279 . S
C1893 C1896 1.358 . S
C1893 H1899 0.930 . S
C1894 C1892 1.353 . S
C1894 C1897 1.348 . S
C1894 H1932 0.929 . S
N1895 Li1850 1.990 . S
N1895 C1892 1.314 . S
N1895 C1893 1.279 . S
C1896 C1893 1.358 . S
C1896 C1897 1.356 . S
C1896 H1933 0.930 . S
C1897 C1894 1.348 . S
C1897 C1896 1.356 . S
H1898 C1892 0.930 . S
H1899 C1893 0.930 . S
C1900 N1901 1.314 . S
C1900 C1902 1.353 . S
C1900 H1906 0.930 . S
N1901 Li1851 1.990 . S
N1901 C1900 1.314 . S
N1901 C1904 1.279 . S
C1902 C1900 1.353 . S
C1902 C1905 1.348 . S
C1902 H1934 0.929 . S
C1903 C1904 1.358 . S
C1903 C1905 1.356 . S
C1903 H1935 0.930 . S
C1904 N1901 1.279 . S
C1904 C1903 1.358 . S
C1904 H1907 0.930 . S
C1905 C1902 1.348 . S
C1905 C1903 1.356 . S
H1906 C1900 0.930 . S
H1907 C1904 0.930 . S
O1908 Li1848 1.956 . S
O1908 Li1849 1.970 . S
O1908 Li1850 1.961 . S
O1908 C1852 1.325 . S
O1909 Li1848 1.970 . S
O1909 Li1849 1.956 . S
O1909 Li1851 1.961 . S
O1909 C1858 1.325 . S
O1910 Li1848 1.961 . S
O1910 Li1850 1.956 . S
O1910 Li1851 1.970 . S
O1910 C1880 1.325 . S
O1911 Li1849 1.961 . S
O1911 Li1850 1.970 . S
O1911 Li1851 1.956 . S
O1911 C1886 1.325 . S
H1912 C1854 0.929 . S
H1913 C1855 0.930 . S
H1914 C1856 0.930 . S
H1915 C1857 0.930 . S
H1916 C1859 0.930 . S
H1917 C1861 0.929 . S
H1918 C1862 0.930 . S
H1919 C1863 0.930 . S
H1920 C1866 0.930 . S
H1921 C1869 0.929 . S
H1922 C1874 0.929 . S
H1923 C1875 0.930 . S
H1924 C1882 0.929 . S
H1925 C1883 0.930 . S
H1926 C1884 0.930 . S
H1927 C1885 0.930 . S
H1928 C1887 0.929 . S
H1929 C1888 0.930 . S
H1930 C1889 0.930 . S
H1931 C1890 0.930 . S
H1932 C1894 0.929 . S
H1933 C1896 0.930 . S
H1934 C1902 0.929 . S
H1935 C1903 0.930 . S
Li1936 N1953 1.990 . S
Li1936 O1996 1.956 . S
Li1936 O1997 1.970 . S
Li1936 O1998 1.961 . S
Li1937 N1961 1.990 . S
Li1937 O1996 1.970 . S
Li1937 O1997 1.956 . S
Li1937 O1999 1.961 . S
Li1938 N1983 1.990 . S
Li1938 O1996 1.961 . S
Li1938 O1998 1.956 . S
Li1938 O1999 1.970 . S
Li1939 N1989 1.990 . S
Li1939 O1997 1.961 . S
Li1939 O1998 1.970 . S
Li1939 O1999 1.956 . S
C1940 C1942 1.348 . S
C1940 C1943 1.356 . S
C1940 O1996 1.325 . S
N1941 C1944 1.314 . S
N1941 C1945 1.279 . S
C1942 C1940 1.348 . S
C1942 C1944 1.353 . S
C1942 H2000 0.929 . S
C1943 C1940 1.356 . S
C1943 C1945 1.358 . S
C1943 H2001 0.930 . S
C1944 N1941 1.314 . S
C1944 C1942 1.353 . S
C1944 H2002 0.930 . S
C1945 N1941 1.279 . S
C1945 C1943 1.358 . S
C1945 H2003 0.930 . S
C1946 C1949 1.348 . S
C1946 C1950 1.356 . S
C1946 O1997 1.325 . S
C1947 N1948 1.279 . S
C1947 C1950 1.358 . S
C1947 H2004 0.930 . S
N1948 C1947 1.279 . S
N1948 C1951 1.314 . S
C1949 C1946 1.348 . S
C1949 C1951 1.353 . S
C1949 H2005 0.929 . S
C1950 C1946 1.356 . S
C1950 C1947 1.358 . S
C1950 H2006 0.930 . S
C1951 N1948 1.314 . S
C1951 C1949 1.353 . S
C1951 H2007 0.930 . S
C1952 N1953 1.314 . S
C1952 C1957 1.353 . S
C1952 H1958 0.930 . S
N1953 Li1936 1.990 . S
N1953 C1952 1.314 . S
N1953 C1955 1.279 . S
C1954 C1955 1.358 . S
C1954 C1956 1.356 . S
C1954 H2008 0.930 . S
C1955 N1953 1.279 . S
C1955 C1954 1.358 . S
C1955 H1959 0.930 . S
C1956 C1954 1.356 . S
C1956 C1957 1.348 . S
C1957 C1952 1.353 . S
C1957 C1956 1.348 . S
C1957 H2009 0.929 . S
H1958 C1952 0.930 . S
H1959 C1955 0.930 . S
C1960 N1961 1.314 . S
C1960 C1962 1.353 . S
C1960 H1966 0.930 . S
N1961 Li1937 1.990 . S
N1961 C1960 1.314 . S
N1961 C1964 1.279 . S
C1962 C1960 1.353 . S
C1962 C1965 1.348 . S
C1962 H2010 0.929 . S
C1963 C1964 1.358 . S
C1963 C1965 1.356 . S
C1963 H2011 0.930 . S
C1964 N1961 1.279 . S
C1964 C1963 1.358 . S
C1964 H1967 0.930 . S
C1965 C1962 1.348 . S
C1965 C1963 1.356 . S
H1966 C1960 0.930 . S
H1967 C1964 0.930 . S
C1968 C1970 1.348 . S
C1968 C1971 1.356 . S
C1968 O1998 1.325 . S
N1969 C1972 1.314 . S
N1969 C1973 1.279 . S
C1970 C1968 1.348 . S
C1970 C1972 1.353 . S
C1970 H2012 0.929 . S
C1971 C1968 1.356 . S
C1971 C1973 1.358 . S
C1971 H2013 0.930 . S
C1972 N1969 1.314 . S
C1972 C1970 1.353 . S
C1972 H2014 0.930 . S
C1973 N1969 1.279 . S
C1973 C1971 1.358 . S
C1973 H2015 0.930 . S
C1974 C1975 1.348 . S
C1974 C1976 1.356 . S
C1974 O1999 1.325 . S
C1975 C1974 1.348 . S
C1975 C1977 1.353 . S
C1975 H2016 0.929 . S
C1976 C1974 1.356 . S
C1976 C1978 1.358 . S
C1976 H2017 0.930 . S
C1977 C1975 1.353 . S
C1977 N1979 1.314 . S
C1977 H2018 0.930 . S
C1978 C1976 1.358 . S
C1978 N1979 1.279 . S
C1978 H2019 0.930 . S
N1979 C1977 1.314 . S
N1979 C1978 1.279 . S
C1980 C1982 1.353 . S
C1980 N1983 1.314 . S
C1980 H1986 0.930 . S
C1981 N1983 1.279 . S
C1981 C1984 1.358 . S
C1981 H1987 0.930 . S
C1982 C1980 1.353 . S
C1982 C1985 1.348 . S
C1982 H2020 0.929 . S
N1983 Li1938 1.990 . S
N1983 C1980 1.314 . S
N1983 C1981 1.279 . S
C1984 C1981 1.358 . S
C1984 C1985 1.356 . S
C1984 H2021 0.930 . S
C1985 C1982 1.348 . S
C1985 C1984 1.356 . S
H1986 C1980 0.930 . S
H1987 C1981 0.930 . S
C1988 N1989 1.314 . S
C1988 C1990 1.353 . S
C1988 H1994 0.930 . S
N1989 Li1939 1.990 . S
N1989 C1988 1.314 . S
N1989 C1992 1.279 . S
C1990 C1988 1.353 . S
C1990 C1993 1.348 . S
C1990 H2022 0.929 . S
C1991 C1992 1.358 . S
C1991 C1993 1.356 . S
C1991 H2023 0.930 . S
C1992 N1989 1.279 . S
C1992 C1991 1.358 . S
C1992 H1995 0.930 . S
C1993 C1990 1.348 . S
C1993 C1991 1.356 . S
H1994 C1988 0.930 . S
H1995 C1992 0.930 . S
O1996 Li1936 1.956 . S
O1996 Li1937 1.970 . S
O1996 Li1938 1.961 . S
O1996 C1940 1.325 . S
O1997 Li1936 1.970 . S
O1997 Li1937 1.956 . S
O1997 Li1939 1.961 . S
O1997 C1946 1.325 . S
O1998 Li1936 1.961 . S
O1998 Li1938 1.956 . S
O1998 Li1939 1.970 . S
O1998 C1968 1.325 . S
O1999 Li1937 1.961 . S
O1999 Li1938 1.970 . S
O1999 Li1939 1.956 . S
O1999 C1974 1.325 . S
H2000 C1942 0.929 . S
H2001 C1943 0.930 . S
H2002 C1944 0.930 . S
H2003 C1945 0.930 . S
H2004 C1947 0.930 . S
H2005 C1949 0.929 . S
H2006 C1950 0.930 . S
H2007 C1951 0.930 . S
H2008 C1954 0.930 . S
H2009 C1957 0.929 . S
H2010 C1962 0.929 . S
H2011 C1963 0.930 . S
H2012 C1970 0.929 . S
H2013 C1971 0.930 . S
H2014 C1972 0.930 . S
H2015 C1973 0.930 . S
H2016 C1975 0.929 . S
H2017 C1976 0.930 . S
H2018 C1977 0.930 . S
H2019 C1978 0.930 . S
H2020 C1982 0.929 . S
H2021 C1984 0.930 . S
H2022 C1990 0.929 . S
H2023 C1991 0.930 . S
Li2024 N2041 1.990 . S
Li2024 O2084 1.956 . S
Li2024 O2085 1.970 . S
Li2024 O2086 1.961 . S
Li2025 N2049 1.990 . S
Li2025 O2084 1.970 . S
Li2025 O2085 1.956 . S
Li2025 O2087 1.961 . S
Li2026 N2071 1.990 . S
Li2026 O2084 1.961 . S
Li2026 O2086 1.956 . S
Li2026 O2087 1.970 . S
Li2027 N2077 1.990 . S
Li2027 O2085 1.961 . S
Li2027 O2086 1.970 . S
Li2027 O2087 1.956 . S
C2028 C2030 1.348 . S
C2028 C2031 1.356 . S
C2028 O2084 1.325 . S
N2029 C2032 1.314 . S
N2029 C2033 1.279 . S
C2030 C2028 1.348 . S
C2030 C2032 1.353 . S
C2030 H2088 0.929 . S
C2031 C2028 1.356 . S
C2031 C2033 1.358 . S
C2031 H2089 0.930 . S
C2032 N2029 1.314 . S
C2032 C2030 1.353 . S
C2032 H2090 0.930 . S
C2033 N2029 1.279 . S
C2033 C2031 1.358 . S
C2033 H2091 0.930 . S
C2034 C2037 1.348 . S
C2034 C2038 1.356 . S
C2034 O2085 1.325 . S
C2035 N2036 1.279 . S
C2035 C2038 1.358 . S
C2035 H2092 0.930 . S
N2036 C2035 1.279 . S
N2036 C2039 1.314 . S
C2037 C2034 1.348 . S
C2037 C2039 1.353 . S
C2037 H2093 0.929 . S
C2038 C2034 1.356 . S
C2038 C2035 1.358 . S
C2038 H2094 0.930 . S
C2039 N2036 1.314 . S
C2039 C2037 1.353 . S
C2039 H2095 0.930 . S
C2040 N2041 1.314 . S
C2040 C2045 1.353 . S
C2040 H2046 0.930 . S
N2041 Li2024 1.990 . S
N2041 C2040 1.314 . S
N2041 C2043 1.279 . S
C2042 C2043 1.358 . S
C2042 C2044 1.356 . S
C2042 H2096 0.930 . S
C2043 N2041 1.279 . S
C2043 C2042 1.358 . S
C2043 H2047 0.930 . S
C2044 C2042 1.356 . S
C2044 C2045 1.348 . S
C2045 C2040 1.353 . S
C2045 C2044 1.348 . S
C2045 H2097 0.929 . S
H2046 C2040 0.930 . S
H2047 C2043 0.930 . S
C2048 N2049 1.314 . S
C2048 C2050 1.353 . S
C2048 H2054 0.930 . S
N2049 Li2025 1.990 . S
N2049 C2048 1.314 . S
N2049 C2052 1.279 . S
C2050 C2048 1.353 . S
C2050 C2053 1.348 . S
C2050 H2098 0.929 . S
C2051 C2052 1.358 . S
C2051 C2053 1.356 . S
C2051 H2099 0.930 . S
C2052 N2049 1.279 . S
C2052 C2051 1.358 . S
C2052 H2055 0.930 . S
C2053 C2050 1.348 . S
C2053 C2051 1.356 . S
H2054 C2048 0.930 . S
H2055 C2052 0.930 . S
C2056 C2058 1.348 . S
C2056 C2059 1.356 . S
C2056 O2086 1.325 . S
N2057 C2060 1.314 . S
N2057 C2061 1.279 . S
C2058 C2056 1.348 . S
C2058 C2060 1.353 . S
C2058 H2100 0.929 . S
C2059 C2056 1.356 . S
C2059 C2061 1.358 . S
C2059 H2101 0.930 . S
C2060 N2057 1.314 . S
C2060 C2058 1.353 . S
C2060 H2102 0.930 . S
C2061 N2057 1.279 . S
C2061 C2059 1.358 . S
C2061 H2103 0.930 . S
C2062 C2063 1.348 . S
C2062 C2064 1.356 . S
C2062 O2087 1.325 . S
C2063 C2062 1.348 . S
C2063 C2065 1.353 . S
C2063 H2104 0.929 . S
C2064 C2062 1.356 . S
C2064 C2066 1.358 . S
C2064 H2105 0.930 . S
C2065 C2063 1.353 . S
C2065 N2067 1.314 . S
C2065 H2106 0.930 . S
C2066 C2064 1.358 . S
C2066 N2067 1.279 . S
C2066 H2107 0.930 . S
N2067 C2065 1.314 . S
N2067 C2066 1.279 . S
C2068 C2070 1.353 . S
C2068 N2071 1.314 . S
C2068 H2074 0.930 . S
C2069 N2071 1.279 . S
C2069 C2072 1.358 . S
C2069 H2075 0.930 . S
C2070 C2068 1.353 . S
C2070 C2073 1.348 . S
C2070 H2108 0.929 . S
N2071 Li2026 1.990 . S
N2071 C2068 1.314 . S
N2071 C2069 1.279 . S
C2072 C2069 1.358 . S
C2072 C2073 1.356 . S
C2072 H2109 0.930 . S
C2073 C2070 1.348 . S
C2073 C2072 1.356 . S
H2074 C2068 0.930 . S
H2075 C2069 0.930 . S
C2076 N2077 1.314 . S
C2076 C2078 1.353 . S
C2076 H2082 0.930 . S
N2077 Li2027 1.990 . S
N2077 C2076 1.314 . S
N2077 C2080 1.279 . S
C2078 C2076 1.353 . S
C2078 C2081 1.348 . S
C2078 H2110 0.929 . S
C2079 C2080 1.358 . S
C2079 C2081 1.356 . S
C2079 H2111 0.930 . S
C2080 N2077 1.279 . S
C2080 C2079 1.358 . S
C2080 H2083 0.930 . S
C2081 C2078 1.348 . S
C2081 C2079 1.356 . S
H2082 C2076 0.930 . S
H2083 C2080 0.930 . S
O2084 Li2024 1.956 . S
O2084 Li2025 1.970 . S
O2084 Li2026 1.961 . S
O2084 C2028 1.325 . S
O2085 Li2024 1.970 . S
O2085 Li2025 1.956 . S
O2085 Li2027 1.961 . S
O2085 C2034 1.325 . S
O2086 Li2024 1.961 . S
O2086 Li2026 1.956 . S
O2086 Li2027 1.970 . S
O2086 C2056 1.325 . S
O2087 Li2025 1.961 . S
O2087 Li2026 1.970 . S
O2087 Li2027 1.956 . S
O2087 C2062 1.325 . S
H2088 C2030 0.929 . S
H2089 C2031 0.930 . S
H2090 C2032 0.930 . S
H2091 C2033 0.930 . S
H2092 C2035 0.930 . S
H2093 C2037 0.929 . S
H2094 C2038 0.930 . S
H2095 C2039 0.930 . S
H2096 C2042 0.930 . S
H2097 C2045 0.929 . S
H2098 C2050 0.929 . S
H2099 C2051 0.930 . S
H2100 C2058 0.929 . S
H2101 C2059 0.930 . S
H2102 C2060 0.930 . S
H2103 C2061 0.930 . S
H2104 C2063 0.929 . S
H2105 C2064 0.930 . S
H2106 C2065 0.930 . S
H2107 C2066 0.930 . S
H2108 C2070 0.929 . S
H2109 C2072 0.930 . S
H2110 C2078 0.929 . S
H2111 C2079 0.930 . S
C2112 C2114 1.422 1_556 S
C2112 C2116 1.415 . S
C2112 N2118 1.369 . S
C2113 C2114 1.421 . S
C2113 C2115 1.417 1_554 S
C2113 C2125 1.422 . S
C2114 C2112 1.422 1_554 S
C2114 C2113 1.421 . S
C2114 N2124 1.359 . S
C2115 C2113 1.417 1_556 S
C2115 C2117 1.329 . S
C2115 H2134 0.930 . S
C2116 C2112 1.415 . S
C2116 C2117 1.437 . S
C2116 C2120 1.413 . S
C2117 C2115 1.329 . S
C2117 C2116 1.437 . S
C2117 H2139 0.929 . S
N2118 C2112 1.369 . S
N2118 C2119 1.338 . S
N2118 Gd2123 2.622 1_566 S
C2119 N2118 1.338 . S
C2119 C2121 1.378 . S
C2119 H2131 0.929 . S
C2120 C2116 1.413 . S
C2120 C2121 1.348 . S
C2120 H2136 0.931 . S
C2121 C2119 1.378 . S
C2121 C2120 1.348 . S
C2121 H2137 0.930 . S
Gd2122 N2142 2.622 . S
Gd2122 N2149 2.570 . S
Gd2122 O2156 2.353 . S
Gd2122 O2157 2.468 . S
Gd2122 O2158 2.427 . S
Gd2122 O2160 2.388 . S
Gd2122 O2161 2.386 . S
Gd2122 O2165 2.307 . S
Gd2122 C2175 2.805 . S
Gd2123 N2118 2.622 1_544 S
Gd2123 N2124 2.570 1_545 S
Gd2123 O2155 2.386 1_645 S
Gd2123 O2159 2.307 1_655 S
Gd2123 O2162 2.353 1_655 S
Gd2123 O2163 2.468 . S
Gd2123 O2164 2.427 1_554 S
Gd2123 O2166 2.388 1_654 S
Gd2123 C2187 2.805 . S
N2124 C2114 1.359 . S
N2124 Gd2123 2.570 1_565 S
N2124 C2126 1.343 . S
C2125 C2113 1.422 . S
C2125 C2127 1.321 . S
C2125 H2133 0.931 . S
C2126 N2124 1.343 . S
C2126 C2127 1.390 . S
C2126 H2128 0.931 . S
C2127 C2125 1.321 . S
C2127 C2126 1.390 . S
C2127 H2129 0.930 . S
H2128 C2126 0.931 . S
H2129 C2127 0.930 . S
H2130 C2153 0.931 . S
H2131 C2119 0.929 . S
H2132 C2154 0.930 1_556 S
H2133 C2125 0.931 . S
H2134 C2115 0.930 . S
H2135 C2144 0.929 . S
H2136 C2120 0.931 . S
H2137 C2121 0.930 . S
H2138 C2176 0.930 . S
H2139 C2117 0.929 . S
H2140 C2145 0.931 . S
H2141 C2146 0.930 . S
N2142 Gd2122 2.622 . S
N2142 C2143 1.369 . S
N2142 C2144 1.338 . S
C2143 N2142 1.369 . S
C2143 C2147 1.415 . S
C2143 C2150 1.422 . S
C2144 H2135 0.929 . S
C2144 N2142 1.338 . S
C2144 C2146 1.378 . S
C2145 H2140 0.931 . S
C2145 C2146 1.348 . S
C2145 C2147 1.413 . S
C2146 H2141 0.930 . S
C2146 C2144 1.378 . S
C2146 C2145 1.348 . S
C2147 C2143 1.415 . S
C2147 C2145 1.413 . S
C2147 C2177 1.437 . S
H2148 C2177 0.929 . S
N2149 Gd2122 2.570 . S
N2149 C2150 1.359 . S
N2149 C2153 1.343 . S
C2150 C2143 1.422 . S
C2150 N2149 1.359 . S
C2150 C2152 1.421 . S
C2151 C2152 1.422 . S
C2151 C2154 1.321 . S
C2151 H2178 0.931 . S
C2152 C2150 1.421 . S
C2152 C2151 1.422 . S
C2152 C2176 1.417 . S
C2153 H2130 0.931 . S
C2153 N2149 1.343 . S
C2153 C2154 1.390 . S
C2154 H2132 0.930 1_554 S
C2154 C2151 1.321 . S
C2154 C2153 1.390 . S
O2155 Gd2123 2.386 1_465 S
O2155 C2167 1.265 . S
O2156 Gd2122 2.353 . S
O2156 C2167 1.242 1_545 S
O2157 Gd2122 2.468 . S
O2157 C2175 1.263 . S
O2158 Gd2122 2.427 . S
O2158 C2175 1.252 . S
O2159 Gd2123 2.307 1_455 S
O2159 C2168 1.261 . S
O2160 Gd2122 2.388 . S
O2160 C2168 1.252 . S
O2161 Gd2122 2.386 . S
O2161 C2179 1.265 . S
O2162 Gd2123 2.353 1_455 S
O2162 C2179 1.242 . S
O2163 Gd2123 2.468 . S
O2163 C2187 1.263 . S
O2164 Gd2123 2.427 1_556 S
O2164 C2187 1.252 1_556 S
O2165 Gd2122 2.307 . S
O2165 C2180 1.261 1_554 S
O2166 Gd2123 2.388 1_456 S
O2166 C2180 1.252 . S
C2167 O2155 1.265 . S
C2167 O2156 1.242 1_565 S
C2168 O2159 1.261 . S
C2168 O2160 1.252 . S
C2169 C2172 1.394 . S
C2169 C2174 1.370 . S
C2169 C2175 1.500 . S
C2170 C2173 1.383 . S
C2170 C2174 1.395 . S
C2171 C2172 1.396 . S
C2171 C2173 1.365 . S
C2171 H2188 0.929 . S
C2172 C2169 1.394 . S
C2172 C2171 1.396 . S
C2172 H2189 0.930 . S
C2173 C2170 1.383 . S
C2173 C2171 1.365 . S
C2173 H2190 0.928 . S
C2174 C2169 1.370 . S
C2174 C2170 1.395 . S
C2174 H2191 0.930 . S
C2175 Gd2122 2.805 . S
C2175 O2157 1.263 . S
C2175 O2158 1.252 . S
C2175 C2169 1.500 . S
C2176 H2138 0.930 . S
C2176 C2152 1.417 . S
C2176 C2177 1.329 . S
C2177 C2147 1.437 . S
C2177 H2148 0.929 . S
C2177 C2176 1.329 . S
H2178 C2151 0.931 . S
C2179 O2161 1.265 . S
C2179 O2162 1.242 . S
C2180 O2165 1.261 1_556 S
C2180 O2166 1.252 . S
C2181 C2184 1.386 1_554 S
C2181 C2186 1.377 . S
C2181 C2187 1.501 . S
C2182 C2185 1.383 1_554 S
C2182 C2186 1.395 . S
C2183 C2184 1.396 . S
C2183 C2185 1.365 . S
C2183 H2192 0.929 . S
C2184 C2181 1.386 1_556 S
C2184 C2183 1.396 . S
C2184 H2193 0.930 . S
C2185 C2182 1.383 1_556 S
C2185 C2183 1.365 . S
C2185 H2194 0.931 . S
C2186 C2181 1.377 . S
C2186 C2182 1.395 . S
C2186 H2195 0.930 . S
C2187 Gd2123 2.805 . S
C2187 O2163 1.263 . S
C2187 O2164 1.252 1_554 S
C2187 C2181 1.501 . S
H2188 C2171 0.929 . S
H2189 C2172 0.930 . S
H2190 C2173 0.928 . S
H2191 C2174 0.930 . S
H2192 C2183 0.929 . S
H2193 C2184 0.930 . S
H2194 C2185 0.931 . S
H2195 C2186 0.930 . S
C2196 C2198 1.422 . S
C2196 C2200 1.415 . S
C2196 N2202 1.369 . S
C2197 C2198 1.421 . S
C2197 C2199 1.417 . S
C2197 C2209 1.422 . S
C2198 C2196 1.422 . S
C2198 C2197 1.421 . S
C2198 N2208 1.359 . S
C2199 C2197 1.417 . S
C2199 C2201 1.329 . S
C2199 H2218 0.930 . S
C2200 C2196 1.415 . S
C2200 C2201 1.437 . S
C2200 C2204 1.413 . S
C2201 C2199 1.329 . S
C2201 C2200 1.437 . S
C2201 H2223 0.929 . S
N2202 C2196 1.369 . S
N2202 C2203 1.338 . S
N2202 Gd2207 2.622 . S
C2203 N2202 1.338 . S
C2203 C2205 1.378 . S
C2203 H2215 0.929 . S
C2204 C2200 1.413 . S
C2204 C2205 1.348 . S
C2204 H2220 0.931 . S
C2205 C2203 1.378 . S
C2205 C2204 1.348 . S
C2205 H2221 0.930 . S
Gd2206 N2226 2.622 . S
Gd2206 N2233 2.570 . S
Gd2206 O2240 2.353 . S
Gd2206 O2241 2.468 . S
Gd2206 O2242 2.427 . S
Gd2206 O2244 2.388 . S
Gd2206 O2245 2.386 . S
Gd2206 O2249 2.307 . S
Gd2206 C2259 2.805 . S
Gd2207 N2202 2.622 . S
Gd2207 N2208 2.570 . S
Gd2207 O2239 2.386 . S
Gd2207 O2243 2.307 . S
Gd2207 O2246 2.353 . S
Gd2207 O2247 2.468 . S
Gd2207 O2248 2.427 . S
Gd2207 O2250 2.388 . S
Gd2207 C2271 2.805 . S
N2208 C2198 1.359 . S
N2208 Gd2207 2.570 . S
N2208 C2210 1.343 . S
C2209 C2197 1.422 . S
C2209 C2211 1.321 . S
C2209 H2217 0.931 . S
C2210 N2208 1.343 . S
C2210 C2211 1.390 . S
C2210 H2212 0.931 . S
C2211 C2209 1.321 . S
C2211 C2210 1.390 . S
C2211 H2213 0.930 . S
H2212 C2210 0.931 . S
H2213 C2211 0.930 . S
H2214 C2237 0.931 . S
H2215 C2203 0.929 . S
H2216 C2238 0.930 . S
H2217 C2209 0.931 . S
H2218 C2199 0.930 . S
H2219 C2228 0.929 . S
H2220 C2204 0.931 . S
H2221 C2205 0.930 . S
H2222 C2260 0.930 . S
H2223 C2201 0.929 . S
H2224 C2229 0.931 . S
H2225 C2230 0.930 . S
N2226 Gd2206 2.622 . S
N2226 C2227 1.369 . S
N2226 C2228 1.338 . S
C2227 N2226 1.369 . S
C2227 C2231 1.415 . S
C2227 C2234 1.422 . S
C2228 H2219 0.929 . S
C2228 N2226 1.338 . S
C2228 C2230 1.378 . S
C2229 H2224 0.931 . S
C2229 C2230 1.348 . S
C2229 C2231 1.413 . S
C2230 H2225 0.930 . S
C2230 C2228 1.378 . S
C2230 C2229 1.348 . S
C2231 C2227 1.415 . S
C2231 C2229 1.413 . S
C2231 C2261 1.437 . S
H2232 C2261 0.929 . S
N2233 Gd2206 2.570 . S
N2233 C2234 1.359 . S
N2233 C2237 1.343 . S
C2234 C2227 1.422 . S
C2234 N2233 1.359 . S
C2234 C2236 1.421 . S
C2235 C2236 1.422 . S
C2235 C2238 1.321 . S
C2235 H2262 0.931 . S
C2236 C2234 1.421 . S
C2236 C2235 1.422 . S
C2236 C2260 1.417 . S
C2237 H2214 0.931 . S
C2237 N2233 1.343 . S
C2237 C2238 1.390 . S
C2238 H2216 0.930 . S
C2238 C2235 1.321 . S
C2238 C2237 1.390 . S
O2239 Gd2207 2.386 . S
O2239 C2251 1.265 . S
O2240 Gd2206 2.353 . S
O2240 C2251 1.242 . S
O2241 Gd2206 2.468 . S
O2241 C2259 1.263 . S
O2242 Gd2206 2.427 . S
O2242 C2259 1.252 . S
O2243 Gd2207 2.307 . S
O2243 C2252 1.261 . S
O2244 Gd2206 2.388 . S
O2244 C2252 1.252 . S
O2245 Gd2206 2.386 . S
O2245 C2263 1.265 . S
O2246 Gd2207 2.353 . S
O2246 C2263 1.242 . S
O2247 Gd2207 2.468 . S
O2247 C2271 1.263 . S
O2248 Gd2207 2.427 . S
O2248 C2271 1.252 . S
O2249 Gd2206 2.307 . S
O2249 C2264 1.261 . S
O2250 Gd2207 2.388 . S
O2250 C2264 1.252 . S
C2251 O2239 1.265 . S
C2251 O2240 1.242 . S
C2252 O2243 1.261 . S
C2252 O2244 1.252 . S
C2253 C2256 1.394 . S
C2253 C2258 1.370 . S
C2253 C2259 1.500 . S
C2254 C2257 1.383 . S
C2254 C2258 1.395 . S
C2255 C2256 1.396 . S
C2255 C2257 1.365 . S
C2255 H2272 0.929 . S
C2256 C2253 1.394 . S
C2256 C2255 1.396 . S
C2256 H2273 0.930 . S
C2257 C2254 1.383 . S
C2257 C2255 1.365 . S
C2257 H2274 0.931 . S
C2258 C2253 1.370 . S
C2258 C2254 1.395 . S
C2258 H2275 0.930 . S
C2259 Gd2206 2.805 . S
C2259 O2241 1.263 . S
C2259 O2242 1.252 . S
C2259 C2253 1.500 . S
C2260 H2222 0.930 . S
C2260 C2236 1.417 . S
C2260 C2261 1.329 . S
C2261 C2231 1.437 . S
C2261 H2232 0.929 . S
C2261 C2260 1.329 . S
H2262 C2235 0.931 . S
C2263 O2245 1.265 . S
C2263 O2246 1.242 . S
C2264 O2249 1.261 . S
C2264 O2250 1.252 . S
C2265 C2268 1.394 . S
C2265 C2270 1.370 . S
C2265 C2271 1.500 . S
C2266 C2269 1.383 . S
C2266 C2270 1.395 . S
C2267 C2268 1.396 . S
C2267 C2269 1.365 . S
C2267 H2276 0.929 . S
C2268 C2265 1.394 . S
C2268 C2267 1.396 . S
C2268 H2277 0.930 . S
C2269 C2266 1.383 . S
C2269 C2267 1.365 . S
C2269 H2278 0.931 . S
C2270 C2265 1.370 . S
C2270 C2266 1.395 . S
C2270 H2279 0.930 . S
C2271 Gd2207 2.805 . S
C2271 O2247 1.263 . S
C2271 O2248 1.252 . S
C2271 C2265 1.500 . S
H2272 C2255 0.929 . S
H2273 C2256 0.930 . S
H2274 C2257 0.931 . S
H2275 C2258 0.930 . S
H2276 C2267 0.929 . S
H2277 C2268 0.930 . S
H2278 C2269 0.931 . S
H2279 C2270 0.930 . S
C2280 C2282 1.422 . S
C2280 C2284 1.415 . S
C2280 N2286 1.369 . S
C2281 C2282 1.421 . S
C2281 C2283 1.417 . S
C2281 C2293 1.422 . S
C2282 C2280 1.422 . S
C2282 C2281 1.421 . S
C2282 N2292 1.359 . S
C2283 C2281 1.417 . S
C2283 C2285 1.329 . S
C2283 H2302 0.930 . S
C2284 C2280 1.415 . S
C2284 C2285 1.437 . S
C2284 C2288 1.413 . S
C2285 C2283 1.329 . S
C2285 C2284 1.437 . S
C2285 H2307 0.929 . S
N2286 C2280 1.369 . S
N2286 C2287 1.338 . S
N2286 Gd2291 2.622 . S
C2287 N2286 1.338 . S
C2287 C2289 1.378 . S
C2287 H2299 0.929 . S
C2288 C2284 1.413 . S
C2288 C2289 1.348 . S
C2288 H2304 0.931 . S
C2289 C2287 1.378 . S
C2289 C2288 1.348 . S
C2289 H2305 0.930 . S
Gd2290 N2310 2.631 . S
Gd2290 N2317 2.570 1_545 S
Gd2290 O2324 2.353 . S
Gd2290 O2325 2.468 . S
Gd2290 O2326 2.427 . S
Gd2290 O2328 2.388 . S
Gd2290 O2329 2.386 1_545 S
Gd2290 O2333 2.307 . S
Gd2290 C2343 2.805 . S
Gd2291 N2286 2.622 . S
Gd2291 N2292 2.570 . S
Gd2291 O2323 2.386 . S
Gd2291 O2327 2.307 . S
Gd2291 O2330 2.353 1_545 S
Gd2291 O2331 2.468 . S
Gd2291 O2332 2.427 . S
Gd2291 O2334 2.388 . S
Gd2291 C2355 2.805 . S
N2292 C2282 1.359 . S
N2292 Gd2291 2.570 . S
N2292 C2294 1.343 . S
C2293 C2281 1.422 . S
C2293 C2295 1.321 . S
C2293 H2301 0.931 . S
C2294 N2292 1.343 . S
C2294 C2295 1.390 . S
C2294 H2296 0.931 . S
C2295 C2293 1.321 . S
C2295 C2294 1.390 . S
C2295 H2297 0.930 . S
H2296 C2294 0.931 . S
H2297 C2295 0.930 . S
H2298 C2321 0.931 . S
H2299 C2287 0.929 . S
H2300 C2322 0.930 . S
H2301 C2293 0.931 . S
H2302 C2283 0.930 . S
H2303 C2312 0.929 . S
H2304 C2288 0.931 . S
H2305 C2289 0.930 . S
H2306 C2344 0.930 . S
H2307 C2285 0.929 . S
H2308 C2313 0.931 . S
H2309 C2314 0.930 . S
N2310 Gd2290 2.631 . S
N2310 C2311 1.359 1_545 S
N2310 C2312 1.337 . S
C2311 N2310 1.359 1_565 S
C2311 C2315 1.415 . S
C2311 C2318 1.422 . S
C2312 H2303 0.929 . S
C2312 N2310 1.337 . S
C2312 C2314 1.378 1_545 S
C2313 H2308 0.931 . S
C2313 C2314 1.348 . S
C2313 C2315 1.413 . S
C2314 H2309 0.930 . S
C2314 C2312 1.378 1_565 S
C2314 C2313 1.348 . S
C2315 C2311 1.415 . S
C2315 C2313 1.413 . S
C2315 C2345 1.437 . S
H2316 C2345 0.929 . S
N2317 Gd2290 2.570 1_565 S
N2317 C2318 1.359 . S
N2317 C2321 1.343 . S
C2318 C2311 1.422 . S
C2318 N2317 1.359 . S
C2318 C2320 1.421 . S
C2319 C2320 1.422 . S
C2319 C2322 1.321 . S
C2319 H2346 0.931 . S
C2320 C2318 1.421 . S
C2320 C2319 1.422 . S
C2320 C2344 1.417 . S
C2321 H2298 0.931 . S
C2321 N2317 1.343 . S
C2321 C2322 1.390 . S
C2322 H2300 0.930 . S
C2322 C2319 1.321 . S
C2322 C2321 1.390 . S
O2323 Gd2291 2.386 . S
O2323 C2335 1.265 . S
O2324 Gd2290 2.353 . S
O2324 C2335 1.242 . S
O2325 Gd2290 2.468 . S
O2325 C2343 1.263 . S
O2326 Gd2290 2.427 . S
O2326 C2343 1.252 . S
O2327 Gd2291 2.307 . S
O2327 C2336 1.261 . S
O2328 Gd2290 2.388 . S
O2328 C2336 1.252 . S
O2329 Gd2290 2.386 1_565 S
O2329 C2347 1.265 . S
O2330 Gd2291 2.353 1_565 S
O2330 C2347 1.242 . S
O2331 Gd2291 2.468 . S
O2331 C2355 1.263 . S
O2332 Gd2291 2.427 . S
O2332 C2355 1.252 . S
O2333 Gd2290 2.307 . S
O2333 C2348 1.261 . S
O2334 Gd2291 2.388 . S
O2334 C2348 1.252 . S
C2335 O2323 1.265 . S
C2335 O2324 1.242 . S
C2336 O2327 1.261 . S
C2336 O2328 1.252 . S
C2337 C2340 1.394 . S
C2337 C2342 1.370 . S
C2337 C2343 1.500 . S
C2338 C2341 1.383 . S
C2338 C2342 1.395 . S
C2339 C2340 1.396 . S
C2339 C2341 1.365 . S
C2339 H2356 0.929 . S
C2340 C2337 1.394 . S
C2340 C2339 1.396 . S
C2340 H2357 0.930 . S
C2341 C2338 1.383 . S
C2341 C2339 1.365 . S
C2341 H2358 0.931 . S
C2342 C2337 1.370 . S
C2342 C2338 1.395 . S
C2342 H2359 0.930 . S
C2343 Gd2290 2.805 . S
C2343 O2325 1.263 . S
C2343 O2326 1.252 . S
C2343 C2337 1.500 . S
C2344 H2306 0.930 . S
C2344 C2320 1.417 . S
C2344 C2345 1.329 . S
C2345 C2315 1.437 . S
C2345 H2316 0.929 . S
C2345 C2344 1.329 . S
H2346 C2319 0.931 . S
C2347 O2329 1.265 . S
C2347 O2330 1.242 . S
C2348 O2333 1.261 . S
C2348 O2334 1.252 . S
C2349 C2352 1.394 . S
C2349 C2354 1.370 . S
C2349 C2355 1.500 1_565 S
C2350 C2353 1.383 . S
C2350 C2354 1.395 . S
C2351 C2352 1.396 . S
C2351 C2353 1.365 . S
C2351 H2360 0.929 . S
C2352 C2349 1.394 . S
C2352 C2351 1.396 . S
C2352 H2361 0.930 . S
C2353 C2350 1.383 . S
C2353 C2351 1.365 . S
C2353 H2362 0.931 . S
C2354 C2349 1.370 . S
C2354 C2350 1.395 . S
C2354 H2363 0.930 . S
C2355 Gd2291 2.805 . S
C2355 O2331 1.263 . S
C2355 O2332 1.252 . S
C2355 C2349 1.500 1_545 S
H2356 C2339 0.929 . S
H2357 C2340 0.930 . S
H2358 C2341 0.931 . S
H2359 C2342 0.930 . S
H2360 C2351 0.929 . S
H2361 C2352 0.930 . S
H2362 C2353 0.931 . S
H2363 C2354 0.930 . S
C2364 C2366 1.422 . S
C2364 C2368 1.415 . S
C2364 N2370 1.369 . S
C2365 C2366 1.421 . S
C2365 C2367 1.417 . S
C2365 C2377 1.422 . S
C2366 C2364 1.422 . S
C2366 C2365 1.421 . S
C2366 N2376 1.359 . S
C2367 C2365 1.417 . S
C2367 C2369 1.329 . S
C2367 H2386 0.930 . S
C2368 C2364 1.415 . S
C2368 C2369 1.437 . S
C2368 C2372 1.413 . S
C2369 C2367 1.329 . S
C2369 C2368 1.437 . S
C2369 H2391 0.929 . S
N2370 C2364 1.369 . S
N2370 C2371 1.338 . S
N2370 Gd2375 2.622 . S
C2371 N2370 1.338 . S
C2371 C2373 1.378 . S
C2371 H2383 0.929 . S
C2372 C2368 1.413 . S
C2372 C2373 1.348 . S
C2372 H2388 0.931 . S
C2373 C2371 1.378 . S
C2373 C2372 1.348 . S
C2373 H2389 0.930 . S
Gd2374 N2394 2.622 . S
Gd2374 N2401 2.570 . S
Gd2374 O2408 2.353 . S
Gd2374 O2409 2.468 . S
Gd2374 O2410 2.427 . S
Gd2374 O2412 2.388 . S
Gd2374 O2413 2.386 . S
Gd2374 O2417 2.307 . S
Gd2374 C2427 2.805 . S
Gd2375 N2370 2.622 . S
Gd2375 N2376 2.570 . S
Gd2375 O2407 2.386 . S
Gd2375 O2411 2.307 . S
Gd2375 O2414 2.353 . S
Gd2375 O2415 2.468 . S
Gd2375 O2416 2.427 . S
Gd2375 O2418 2.388 . S
Gd2375 C2439 2.805 . S
N2376 C2366 1.359 . S
N2376 Gd2375 2.570 . S
N2376 C2378 1.343 . S
C2377 C2365 1.422 . S
C2377 C2379 1.321 . S
C2377 H2385 0.931 . S
C2378 N2376 1.343 . S
C2378 C2379 1.390 . S
C2378 H2380 0.931 . S
C2379 C2377 1.321 . S
C2379 C2378 1.390 . S
C2379 H2381 0.930 . S
H2380 C2378 0.931 . S
H2381 C2379 0.930 . S
H2382 C2405 0.931 . S
H2383 C2371 0.929 . S
H2384 C2406 0.930 . S
H2385 C2377 0.931 . S
H2386 C2367 0.930 . S
H2387 C2396 0.929 . S
H2388 C2372 0.931 . S
H2389 C2373 0.930 . S
H2390 C2428 0.930 . S
H2391 C2369 0.929 . S
H2392 C2397 0.931 . S
H2393 C2398 0.930 . S
N2394 Gd2374 2.622 . S
N2394 C2395 1.369 . S
N2394 C2396 1.338 . S
C2395 N2394 1.369 . S
C2395 C2399 1.415 . S
C2395 C2402 1.422 . S
C2396 H2387 0.929 . S
C2396 N2394 1.338 . S
C2396 C2398 1.378 . S
C2397 H2392 0.931 . S
C2397 C2398 1.348 . S
C2397 C2399 1.413 . S
C2398 H2393 0.930 . S
C2398 C2396 1.378 . S
C2398 C2397 1.348 . S
C2399 C2395 1.415 . S
C2399 C2397 1.413 . S
C2399 C2429 1.437 . S
H2400 C2429 0.929 . S
N2401 Gd2374 2.570 . S
N2401 C2402 1.359 . S
N2401 C2405 1.343 . S
C2402 C2395 1.422 . S
C2402 N2401 1.359 . S
C2402 C2404 1.421 . S
C2403 C2404 1.422 . S
C2403 C2406 1.321 . S
C2403 H2430 0.931 . S
C2404 C2402 1.421 . S
C2404 C2403 1.422 . S
C2404 C2428 1.417 . S
C2405 H2382 0.931 . S
C2405 N2401 1.343 . S
C2405 C2406 1.390 . S
C2406 H2384 0.930 . S
C2406 C2403 1.321 . S
C2406 C2405 1.390 . S
O2407 Gd2375 2.386 . S
O2407 C2419 1.265 . S
O2408 Gd2374 2.353 . S
O2408 C2419 1.242 . S
O2409 Gd2374 2.468 . S
O2409 C2427 1.263 . S
O2410 Gd2374 2.427 . S
O2410 C2427 1.252 . S
O2411 Gd2375 2.307 . S
O2411 C2420 1.261 . S
O2412 Gd2374 2.388 . S
O2412 C2420 1.252 . S
O2413 Gd2374 2.386 . S
O2413 C2431 1.265 . S
O2414 Gd2375 2.353 . S
O2414 C2431 1.242 . S
O2415 Gd2375 2.468 . S
O2415 C2439 1.263 . S
O2416 Gd2375 2.427 . S
O2416 C2439 1.252 . S
O2417 Gd2374 2.307 . S
O2417 C2432 1.261 . S
O2418 Gd2375 2.388 . S
O2418 C2432 1.252 . S
C2419 O2407 1.265 . S
C2419 O2408 1.242 . S
C2420 O2411 1.261 . S
C2420 O2412 1.252 . S
C2421 C2424 1.394 . S
C2421 C2426 1.370 . S
C2421 C2427 1.500 . S
C2422 C2425 1.383 . S
C2422 C2426 1.395 . S
C2423 C2424 1.396 . S
C2423 C2425 1.365 . S
C2423 H2440 0.929 . S
C2424 C2421 1.394 . S
C2424 C2423 1.396 . S
C2424 H2441 0.930 . S
C2425 C2422 1.383 . S
C2425 C2423 1.365 . S
C2425 H2442 0.931 . S
C2426 C2421 1.370 . S
C2426 C2422 1.395 . S
C2426 H2443 0.930 . S
C2427 Gd2374 2.805 . S
C2427 O2409 1.263 . S
C2427 O2410 1.252 . S
C2427 C2421 1.500 . S
C2428 H2390 0.930 . S
C2428 C2404 1.417 . S
C2428 C2429 1.329 . S
C2429 C2399 1.437 . S
C2429 H2400 0.929 . S
C2429 C2428 1.329 . S
H2430 C2403 0.931 . S
C2431 O2413 1.265 . S
C2431 O2414 1.242 . S
C2432 O2417 1.261 . S
C2432 O2418 1.252 . S
C2433 C2436 1.394 . S
C2433 C2438 1.370 . S
C2433 C2439 1.500 . S
C2434 C2437 1.383 . S
C2434 C2438 1.395 . S
C2435 C2436 1.396 . S
C2435 C2437 1.365 . S
C2435 H2444 0.929 . S
C2436 C2433 1.394 . S
C2436 C2435 1.396 . S
C2436 H2445 0.930 . S
C2437 C2434 1.383 . S
C2437 C2435 1.365 . S
C2437 H2446 0.931 . S
C2438 C2433 1.370 . S
C2438 C2434 1.395 . S
C2438 H2447 0.930 . S
C2439 Gd2375 2.805 . S
C2439 O2415 1.263 . S
C2439 O2416 1.252 . S
C2439 C2433 1.500 . S
H2440 C2423 0.929 . S
H2441 C2424 0.930 . S
H2442 C2425 0.931 . S
H2443 C2426 0.930 . S
H2444 C2435 0.929 . S
H2445 C2436 0.930 . S
H2446 C2437 0.931 . S
H2447 C2438 0.930 . S
C2448 C2450 1.422 . S
C2448 C2452 1.415 1_455 S
C2448 N2454 1.369 1_455 S
C2449 C2450 1.421 . S
C2449 C2451 1.417 . S
C2449 C2461 1.422 . S
C2450 C2448 1.422 . S
C2450 C2449 1.421 . S
C2450 N2460 1.359 . S
C2451 C2449 1.417 . S
C2451 C2453 1.329 . S
C2451 H2470 0.930 . S
C2452 C2448 1.415 1_655 S
C2452 C2453 1.437 1_655 S
C2452 C2456 1.413 . S
C2453 C2451 1.329 . S
C2453 C2452 1.437 1_455 S
C2453 H2475 0.929 1_455 S
N2454 C2448 1.369 1_655 S
N2454 C2455 1.338 . S
N2454 Gd2459 2.622 1_655 S
C2455 N2454 1.338 . S
C2455 C2457 1.378 . S
C2455 H2467 0.929 . S
C2456 C2452 1.413 . S
C2456 C2457 1.348 . S
C2456 H2472 0.931 . S
C2457 C2455 1.378 . S
C2457 C2456 1.348 . S
C2457 H2473 0.930 . S
Gd2458 N2478 2.622 . S
Gd2458 N2485 2.570 . S
Gd2458 O2492 2.353 1_565 S
Gd2458 O2493 2.468 . S
Gd2458 O2494 2.427 . S
Gd2458 O2496 2.388 1_565 S
Gd2458 O2497 2.386 1_565 S
Gd2458 O2501 2.307 1_565 S
Gd2458 C2511 2.805 . S
Gd2459 N2454 2.622 1_455 S
Gd2459 N2460 2.570 . S
Gd2459 O2491 2.386 . S
Gd2459 O2495 2.307 . S
Gd2459 O2498 2.353 . S
Gd2459 O2499 2.468 . S
Gd2459 O2500 2.427 1_455 S
Gd2459 O2502 2.388 1_455 S
Gd2459 C2523 2.805 . S
N2460 C2450 1.359 . S
N2460 Gd2459 2.570 . S
N2460 C2462 1.343 . S
C2461 C2449 1.422 . S
C2461 C2463 1.321 . S
C2461 H2469 0.931 . S
C2462 N2460 1.343 . S
C2462 C2463 1.390 . S
C2462 H2464 0.931 . S
C2463 C2461 1.321 . S
C2463 C2462 1.390 . S
C2463 H2465 0.930 . S
H2464 C2462 0.931 . S
H2465 C2463 0.930 . S
H2466 C2489 0.951 . S
H2467 C2455 0.929 . S
H2468 C2490 0.930 . S
H2469 C2461 0.931 . S
H2470 C2451 0.930 . S
H2471 C2480 0.929 1_545 S
H2472 C2456 0.931 . S
H2473 C2457 0.930 . S
H2474 C2512 0.930 . S
H2475 C2453 0.929 1_655 S
H2476 C2481 0.931 . S
H2477 C2482 0.930 . S
N2478 Gd2458 2.622 . S
N2478 C2479 1.369 . S
N2478 C2480 1.338 . S
C2479 N2478 1.369 . S
C2479 C2483 1.415 . S
C2479 C2486 1.422 . S
C2480 H2471 0.929 1_565 S
C2480 N2478 1.338 . S
C2480 C2482 1.378 . S
C2481 H2476 0.931 . S
C2481 C2482 1.348 . S
C2481 C2483 1.413 . S
C2482 H2477 0.930 . S
C2482 C2480 1.378 . S
C2482 C2481 1.348 . S
C2483 C2479 1.415 . S
C2483 C2481 1.413 . S
C2483 C2513 1.437 . S
H2484 C2513 0.929 . S
N2485 Gd2458 2.570 . S
N2485 C2486 1.359 . S
N2485 C2489 1.316 1_455 S
C2486 C2479 1.422 . S
C2486 N2485 1.359 . S
C2486 C2488 1.421 . S
C2487 C2488 1.422 1_655 S
C2487 C2490 1.321 . S
C2487 H2514 0.931 . S
C2488 C2486 1.421 . S
C2488 C2487 1.422 1_455 S
C2488 C2512 1.417 . S
C2489 H2466 0.951 . S
C2489 N2485 1.316 1_655 S
C2489 C2490 1.399 . S
C2490 H2468 0.930 . S
C2490 C2487 1.321 . S
C2490 C2489 1.399 . S
O2491 Gd2459 2.386 . S
O2491 C2503 1.265 . S
O2492 Gd2458 2.353 1_545 S
O2492 C2503 1.242 . S
O2493 Gd2458 2.468 . S
O2493 C2511 1.263 . S
O2494 Gd2458 2.427 . S
O2494 C2511 1.252 . S
O2495 Gd2459 2.307 . S
O2495 C2504 1.261 . S
O2496 Gd2458 2.388 1_545 S
O2496 C2504 1.252 . S
O2497 Gd2458 2.386 1_545 S
O2497 C2515 1.265 . S
O2498 Gd2459 2.353 . S
O2498 C2515 1.242 . S
O2499 Gd2459 2.468 . S
O2499 C2523 1.263 . S
O2500 Gd2459 2.427 1_655 S
O2500 C2523 1.252 1_655 S
O2501 Gd2458 2.307 1_545 S
O2501 C2516 1.261 1_455 S
O2502 Gd2459 2.388 1_655 S
O2502 C2516 1.252 . S
C2503 O2491 1.265 . S
C2503 O2492 1.242 . S
C2504 O2495 1.261 . S
C2504 O2496 1.252 . S
C2505 C2508 1.394 . S
C2505 C2510 1.370 . S
C2505 C2511 1.500 . S
C2506 C2509 1.383 . S
C2506 C2510 1.395 . S
C2507 C2508 1.396 . S
C2507 C2509 1.365 . S
C2507 H2524 0.929 . S
C2508 C2505 1.394 . S
C2508 C2507 1.396 . S
C2508 H2525 0.930 . S
C2509 C2506 1.383 . S
C2509 C2507 1.365 . S
C2509 H2526 0.931 . S
C2510 C2505 1.370 . S
C2510 C2506 1.395 . S
C2510 H2527 0.930 . S
C2511 Gd2458 2.805 . S
C2511 O2493 1.263 . S
C2511 O2494 1.252 . S
C2511 C2505 1.500 . S
C2512 H2474 0.930 . S
C2512 C2488 1.417 . S
C2512 C2513 1.329 . S
C2513 C2483 1.437 . S
C2513 H2484 0.929 . S
C2513 C2512 1.329 . S
H2514 C2487 0.931 . S
C2515 O2497 1.265 . S
C2515 O2498 1.242 . S
C2516 O2501 1.261 1_655 S
C2516 O2502 1.252 . S
C2517 C2520 1.394 1_455 S
C2517 C2522 1.370 . S
C2517 C2523 1.500 . S
C2518 C2521 1.383 1_455 S
C2518 C2522 1.395 . S
C2519 C2520 1.396 . S
C2519 C2521 1.365 . S
C2519 H2528 0.929 . S
C2520 C2517 1.394 1_655 S
C2520 C2519 1.396 . S
C2520 H2529 0.930 . S
C2521 C2518 1.383 1_655 S
C2521 C2519 1.365 . S
C2521 H2530 0.931 . S
C2522 C2517 1.370 . S
C2522 C2518 1.395 . S
C2522 H2531 0.930 . S
C2523 Gd2459 2.805 . S
C2523 O2499 1.263 . S
C2523 O2500 1.252 1_455 S
C2523 C2517 1.500 . S
H2524 C2507 0.929 . S
H2525 C2508 0.930 . S
H2526 C2509 0.931 . S
H2527 C2510 0.930 . S
H2528 C2519 0.929 . S
H2529 C2520 0.930 . S
H2530 C2521 0.931 . S
H2531 C2522 0.930 . S
C2532 C2534 1.422 . S
C2532 C2536 1.415 . S
C2532 N2538 1.369 . S
C2533 C2534 1.421 . S
C2533 C2535 1.417 . S
C2533 C2545 1.422 . S
C2534 C2532 1.422 . S
C2534 C2533 1.421 . S
C2534 N2544 1.359 . S
C2535 C2533 1.417 . S
C2535 C2537 1.329 . S
C2535 H2554 0.930 . S
C2536 C2532 1.415 . S
C2536 C2537 1.437 . S
C2536 C2540 1.413 . S
C2537 C2535 1.329 . S
C2537 C2536 1.437 . S
C2537 H2559 0.929 . S
N2538 C2532 1.369 . S
N2538 C2539 1.338 . S
N2538 Gd2543 2.622 . S
C2539 N2538 1.338 . S
C2539 C2541 1.378 . S
C2539 H2551 0.929 . S
C2540 C2536 1.413 . S
C2540 C2541 1.348 . S
C2540 H2556 0.931 . S
C2541 C2539 1.378 . S
C2541 C2540 1.348 . S
C2541 H2557 0.930 . S
Gd2542 N2562 2.622 . S
Gd2542 N2569 2.570 . S
Gd2542 O2576 2.353 . S
Gd2542 O2577 2.468 . S
Gd2542 O2578 2.427 . S
Gd2542 O2580 2.388 . S
Gd2542 O2581 2.386 . S
Gd2542 O2585 2.307 . S
Gd2542 C2595 2.805 . S
Gd2543 N2538 2.622 . S
Gd2543 N2544 2.570 . S
Gd2543 O2575 2.386 . S
Gd2543 O2579 2.307 . S
Gd2543 O2582 2.353 . S
Gd2543 O2583 2.468 . S
Gd2543 O2584 2.427 . S
Gd2543 O2586 2.388 . S
Gd2543 C2607 2.805 . S
N2544 C2534 1.359 . S
N2544 Gd2543 2.570 . S
N2544 C2546 1.343 . S
C2545 C2533 1.422 . S
C2545 C2547 1.321 . S
C2545 H2553 0.931 . S
C2546 N2544 1.343 . S
C2546 C2547 1.390 . S
C2546 H2548 0.931 . S
C2547 C2545 1.321 . S
C2547 C2546 1.390 . S
C2547 H2549 0.930 . S
H2548 C2546 0.931 . S
H2549 C2547 0.930 . S
H2550 C2573 0.931 . S
H2551 C2539 0.929 . S
H2552 C2574 0.930 . S
H2553 C2545 0.931 . S
H2554 C2535 0.930 . S
H2555 C2564 0.929 . S
H2556 C2540 0.931 . S
H2557 C2541 0.930 . S
H2558 C2596 0.930 . S
H2559 C2537 0.929 . S
H2560 C2565 0.931 . S
H2561 C2566 0.930 . S
N2562 Gd2542 2.622 . S
N2562 C2563 1.369 . S
N2562 C2564 1.338 . S
C2563 N2562 1.369 . S
C2563 C2567 1.415 . S
C2563 C2570 1.422 . S
C2564 H2555 0.929 . S
C2564 N2562 1.338 . S
C2564 C2566 1.378 . S
C2565 H2560 0.931 . S
C2565 C2566 1.348 . S
C2565 C2567 1.413 . S
C2566 H2561 0.930 . S
C2566 C2564 1.378 . S
C2566 C2565 1.348 . S
C2567 C2563 1.415 . S
C2567 C2565 1.413 . S
C2567 C2597 1.437 . S
H2568 C2597 0.929 . S
N2569 Gd2542 2.570 . S
N2569 C2570 1.359 . S
N2569 C2573 1.343 . S
C2570 C2563 1.422 . S
C2570 N2569 1.359 . S
C2570 C2572 1.421 . S
C2571 C2572 1.422 . S
C2571 C2574 1.321 . S
C2571 H2598 0.931 . S
C2572 C2570 1.421 . S
C2572 C2571 1.422 . S
C2572 C2596 1.417 . S
C2573 H2550 0.931 . S
C2573 N2569 1.343 . S
C2573 C2574 1.390 . S
C2574 H2552 0.930 . S
C2574 C2571 1.321 . S
C2574 C2573 1.390 . S
O2575 Gd2543 2.386 . S
O2575 C2587 1.265 . S
O2576 Gd2542 2.353 . S
O2576 C2587 1.242 . S
O2577 Gd2542 2.468 . S
O2577 C2595 1.263 . S
O2578 Gd2542 2.427 . S
O2578 C2595 1.252 . S
O2579 Gd2543 2.307 . S
O2579 C2588 1.261 . S
O2580 Gd2542 2.388 . S
O2580 C2588 1.252 . S
O2581 Gd2542 2.386 . S
O2581 C2599 1.265 . S
O2582 Gd2543 2.353 . S
O2582 C2599 1.242 . S
O2583 Gd2543 2.468 . S
O2583 C2607 1.263 . S
O2584 Gd2543 2.427 . S
O2584 C2607 1.252 . S
O2585 Gd2542 2.307 . S
O2585 C2600 1.261 . S
O2586 Gd2543 2.388 . S
O2586 C2600 1.252 . S
C2587 O2575 1.265 . S
C2587 O2576 1.242 . S
C2588 O2579 1.261 . S
C2588 O2580 1.252 . S
C2589 C2592 1.394 . S
C2589 C2594 1.370 . S
C2589 C2595 1.500 . S
C2590 C2593 1.383 . S
C2590 C2594 1.395 . S
C2591 C2592 1.396 . S
C2591 C2593 1.365 . S
C2591 H2608 0.929 . S
C2592 C2589 1.394 . S
C2592 C2591 1.396 . S
C2592 H2609 0.930 . S
C2593 C2590 1.383 . S
C2593 C2591 1.365 . S
C2593 H2610 0.931 . S
C2594 C2589 1.370 . S
C2594 C2590 1.395 . S
C2594 H2611 0.930 . S
C2595 Gd2542 2.805 . S
C2595 O2577 1.263 . S
C2595 O2578 1.252 . S
C2595 C2589 1.500 . S
C2596 H2558 0.930 . S
C2596 C2572 1.417 . S
C2596 C2597 1.329 . S
C2597 C2567 1.437 . S
C2597 H2568 0.929 . S
C2597 C2596 1.329 . S
H2598 C2571 0.931 . S
C2599 O2581 1.265 . S
C2599 O2582 1.242 . S
C2600 O2585 1.261 . S
C2600 O2586 1.252 . S
C2601 C2604 1.394 . S
C2601 C2606 1.370 . S
C2601 C2607 1.500 . S
C2602 C2605 1.383 . S
C2602 C2606 1.395 . S
C2603 C2604 1.396 . S
C2603 C2605 1.365 . S
C2603 H2612 0.929 . S
C2604 C2601 1.394 . S
C2604 C2603 1.396 . S
C2604 H2613 0.930 . S
C2605 C2602 1.383 . S
C2605 C2603 1.365 . S
C2605 H2614 0.931 . S
C2606 C2601 1.370 . S
C2606 C2602 1.395 . S
C2606 H2615 0.930 . S
C2607 Gd2543 2.805 . S
C2607 O2583 1.263 . S
C2607 O2584 1.252 . S
C2607 C2601 1.500 . S
H2608 C2591 0.929 . S
H2609 C2592 0.930 . S
H2610 C2593 0.931 . S
H2611 C2594 0.930 . S
H2612 C2603 0.929 . S
H2613 C2604 0.930 . S
H2614 C2605 0.931 . S
H2615 C2606 0.930 . S
C2616 C2618 1.422 1_565 S
C2616 C2620 1.415 . S
C2616 N2622 1.369 . S
C2617 C2618 1.421 . S
C2617 C2619 1.417 . S
C2617 C2629 1.422 . S
C2618 C2616 1.422 1_545 S
C2618 C2617 1.421 . S
C2618 N2628 1.359 . S
C2619 C2617 1.417 . S
C2619 C2621 1.329 1_545 S
C2619 H2638 0.930 . S
C2620 C2616 1.415 . S
C2620 C2621 1.437 . S
C2620 C2624 1.413 . S
C2621 C2619 1.329 1_565 S
C2621 C2620 1.437 . S
C2621 H2643 0.929 . S
N2622 C2616 1.369 . S
N2622 C2623 1.338 . S
N2622 Gd2627 2.622 1_565 S
C2623 N2622 1.338 . S
C2623 C2625 1.378 . S
C2623 H2635 0.929 . S
C2624 C2620 1.413 . S
C2624 C2625 1.348 . S
C2624 H2640 0.931 . S
C2625 C2623 1.378 . S
C2625 C2624 1.348 . S
C2625 H2641 0.930 . S
Gd2626 N2646 2.622 . S
Gd2626 N2653 2.570 . S
Gd2626 O2660 2.353 1_556 S
Gd2626 O2661 2.468 . S
Gd2626 O2662 2.427 . S
Gd2626 O2664 2.388 1_556 S
Gd2626 O2665 2.386 1_556 S
Gd2626 O2669 2.307 1_556 S
Gd2626 C2679 2.805 . S
Gd2627 N2622 2.622 1_545 S
Gd2627 N2628 2.570 . S
Gd2627 O2659 2.386 . S
Gd2627 O2663 2.307 . S
Gd2627 O2666 2.353 . S
Gd2627 O2667 2.468 . S
Gd2627 O2668 2.427 1_545 S
Gd2627 O2670 2.388 1_545 S
Gd2627 C2691 2.794 1_545 S
N2628 C2618 1.359 . S
N2628 Gd2627 2.570 . S
N2628 C2630 1.343 . S
C2629 C2617 1.422 . S
C2629 C2631 1.321 . S
C2629 H2637 0.931 . S
C2630 N2628 1.343 . S
C2630 C2631 1.390 . S
C2630 H2632 0.931 . S
C2631 C2629 1.321 . S
C2631 C2630 1.390 . S
C2631 H2633 0.930 . S
H2632 C2630 0.931 . S
H2633 C2631 0.930 . S
H2634 C2657 0.931 1_565 S
H2635 C2623 0.929 . S
H2636 C2658 0.930 . S
H2637 C2629 0.931 . S
H2638 C2619 0.930 . S
H2639 C2648 0.929 1_554 S
H2640 C2624 0.931 . S
H2641 C2625 0.930 . S
H2642 C2680 0.930 . S
H2643 C2621 0.929 . S
H2644 C2649 0.931 . S
H2645 C2650 0.930 . S
N2646 Gd2626 2.622 . S
N2646 C2647 1.369 . S
N2646 C2648 1.338 . S
C2647 N2646 1.369 . S
C2647 C2651 1.415 . S
C2647 C2654 1.422 . S
C2648 H2639 0.929 1_556 S
C2648 N2646 1.338 . S
C2648 C2650 1.378 . S
C2649 H2644 0.931 . S
C2649 C2650 1.348 . S
C2649 C2651 1.413 . S
C2650 H2645 0.930 . S
C2650 C2648 1.378 . S
C2650 C2649 1.348 . S
C2651 C2647 1.415 . S
C2651 C2649 1.413 . S
C2651 C2681 1.437 . S
H2652 C2681 0.929 . S
N2653 Gd2626 2.570 . S
N2653 C2654 1.359 . S
N2653 C2657 1.343 . S
C2654 C2647 1.422 . S
C2654 N2653 1.359 . S
C2654 C2656 1.421 . S
C2655 C2656 1.422 . S
C2655 C2658 1.321 1_545 S
C2655 H2682 0.931 1_545 S
C2656 C2654 1.421 . S
C2656 C2655 1.422 . S
C2656 C2680 1.417 . S
C2657 H2634 0.931 1_545 S
C2657 N2653 1.343 . S
C2657 C2658 1.390 1_545 S
C2658 H2636 0.930 . S
C2658 C2655 1.321 1_565 S
C2658 C2657 1.390 1_565 S
O2659 Gd2627 2.386 . S
O2659 C2671 1.265 . S
O2660 Gd2626 2.353 1_554 S
O2660 C2671 1.242 . S
O2661 Gd2626 2.468 . S
O2661 C2679 1.263 . S
O2662 Gd2626 2.427 . S
O2662 C2679 1.252 . S
O2663 Gd2627 2.307 . S
O2663 C2672 1.261 . S
O2664 Gd2626 2.388 1_554 S
O2664 C2672 1.252 . S
O2665 Gd2626 2.386 1_554 S
O2665 C2683 1.265 . S
O2666 Gd2627 2.353 . S
O2666 C2683 1.242 . S
O2667 Gd2627 2.468 . S
O2667 C2691 1.220 1_545 S
O2668 Gd2627 2.427 1_565 S
O2668 C2691 1.284 . S
O2669 Gd2626 2.307 1_554 S
O2669 C2684 1.261 1_545 S
O2670 Gd2627 2.388 1_565 S
O2670 C2684 1.252 . S
C2671 O2659 1.265 . S
C2671 O2660 1.242 . S
C2672 O2663 1.261 . S
C2672 O2664 1.252 . S
C2673 C2676 1.394 . S
C2673 C2678 1.370 . S
C2673 C2679 1.500 . S
C2674 C2677 1.383 . S
C2674 C2678 1.395 . S
C2675 C2676 1.396 . S
C2675 C2677 1.365 . S
C2675 H2692 0.929 . S
C2676 C2673 1.394 . S
C2676 C2675 1.396 . S
C2676 H2693 0.930 . S
C2677 C2674 1.383 . S
C2677 C2675 1.365 . S
C2677 H2694 0.931 . S
C2678 C2673 1.370 . S
C2678 C2674 1.395 . S
C2678 H2695 0.930 . S
C2679 Gd2626 2.805 . S
C2679 O2661 1.263 . S
C2679 O2662 1.252 . S
C2679 C2673 1.500 . S
C2680 H2642 0.930 . S
C2680 C2656 1.417 . S
C2680 C2681 1.329 . S
C2681 C2651 1.437 . S
C2681 H2652 0.929 . S
C2681 C2680 1.329 . S
H2682 C2655 0.931 1_565 S
C2683 O2665 1.265 . S
C2683 O2666 1.242 . S
C2684 O2669 1.261 1_565 S
C2684 O2670 1.252 . S
C2685 C2688 1.394 . S
C2685 C2690 1.370 1_565 S
C2685 C2691 1.513 . S
C2686 C2689 1.387 1_545 S
C2686 C2690 1.394 . S
C2687 C2688 1.396 . S
C2687 C2689 1.365 . S
C2687 H2696 0.929 . S
C2688 C2685 1.394 . S
C2688 C2687 1.396 . S
C2688 H2697 0.930 . S
C2689 C2686 1.387 1_565 S
C2689 C2687 1.365 . S
C2689 H2698 0.931 . S
C2690 C2685 1.370 1_545 S
C2690 C2686 1.394 . S
C2690 H2699 0.930 . S
C2691 Gd2627 2.794 1_565 S
C2691 O2667 1.220 1_565 S
C2691 O2668 1.284 . S
C2691 C2685 1.513 . S
H2692 C2675 0.929 . S
H2693 C2676 0.930 . S
H2694 C2677 0.931 . S
H2695 C2678 0.930 . S
H2696 C2687 0.929 . S
H2697 C2688 0.930 . S
H2698 C2689 0.931 . S
H2699 C2690 0.930 . S
C2700 C2702 1.422 . S
C2700 C2704 1.415 . S
C2700 N2706 1.369 . S
C2701 C2702 1.421 . S
C2701 C2703 1.417 . S
C2701 C2713 1.422 . S
C2702 C2700 1.422 . S
C2702 C2701 1.421 . S
C2702 N2712 1.359 . S
C2703 C2701 1.417 . S
C2703 C2705 1.329 . S
C2703 H2722 0.930 . S
C2704 C2700 1.415 . S
C2704 C2705 1.437 . S
C2704 C2708 1.413 . S
C2705 C2703 1.329 . S
C2705 C2704 1.437 . S
C2705 H2727 0.929 . S
N2706 C2700 1.369 . S
N2706 C2707 1.338 . S
N2706 Gd2711 2.622 . S
C2707 N2706 1.338 . S
C2707 C2709 1.378 . S
C2707 H2719 0.929 . S
C2708 C2704 1.413 . S
C2708 C2709 1.348 . S
C2708 H2724 0.931 . S
C2709 C2707 1.378 . S
C2709 C2708 1.348 . S
C2709 H2725 0.930 . S
Gd2710 N2730 2.622 . S
Gd2710 N2737 2.570 . S
Gd2710 O2744 2.353 . S
Gd2710 O2745 2.468 . S
Gd2710 O2746 2.427 . S
Gd2710 O2748 2.388 . S
Gd2710 O2749 2.386 . S
Gd2710 O2753 2.307 . S
Gd2710 C2763 2.805 . S
Gd2711 N2706 2.622 . S
Gd2711 N2712 2.570 . S
Gd2711 O2743 2.386 . S
Gd2711 O2747 2.307 . S
Gd2711 O2750 2.353 . S
Gd2711 O2751 2.468 . S
Gd2711 O2752 2.427 . S
Gd2711 O2754 2.388 . S
Gd2711 C2775 2.805 . S
N2712 C2702 1.359 . S
N2712 Gd2711 2.570 . S
N2712 C2714 1.343 . S
C2713 C2701 1.422 . S
C2713 C2715 1.321 . S
C2713 H2721 0.931 . S
C2714 N2712 1.343 . S
C2714 C2715 1.390 . S
C2714 H2716 0.931 . S
C2715 C2713 1.321 . S
C2715 C2714 1.390 . S
C2715 H2717 0.930 . S
H2716 C2714 0.931 . S
H2717 C2715 0.930 . S
H2718 C2741 0.931 . S
H2719 C2707 0.929 . S
H2720 C2742 0.930 . S
H2721 C2713 0.931 . S
H2722 C2703 0.930 . S
H2723 C2732 0.929 . S
H2724 C2708 0.931 . S
H2725 C2709 0.930 . S
H2726 C2764 0.930 . S
H2727 C2705 0.929 . S
H2728 C2733 0.931 . S
H2729 C2734 0.930 . S
N2730 Gd2710 2.622 . S
N2730 C2731 1.369 . S
N2730 C2732 1.338 . S
C2731 N2730 1.369 . S
C2731 C2735 1.415 . S
C2731 C2738 1.422 . S
C2732 H2723 0.929 . S
C2732 N2730 1.338 . S
C2732 C2734 1.378 . S
C2733 H2728 0.931 . S
C2733 C2734 1.348 . S
C2733 C2735 1.413 . S
C2734 H2729 0.930 . S
C2734 C2732 1.378 . S
C2734 C2733 1.348 . S
C2735 C2731 1.415 . S
C2735 C2733 1.413 . S
C2735 C2765 1.437 . S
H2736 C2765 0.929 . S
N2737 Gd2710 2.570 . S
N2737 C2738 1.359 . S
N2737 C2741 1.343 . S
C2738 C2731 1.422 . S
C2738 N2737 1.359 . S
C2738 C2740 1.421 . S
C2739 C2740 1.422 . S
C2739 C2742 1.321 . S
C2739 H2766 0.931 . S
C2740 C2738 1.421 . S
C2740 C2739 1.422 . S
C2740 C2764 1.417 . S
C2741 H2718 0.931 . S
C2741 N2737 1.343 . S
C2741 C2742 1.390 . S
C2742 H2720 0.930 . S
C2742 C2739 1.321 . S
C2742 C2741 1.390 . S
O2743 Gd2711 2.386 . S
O2743 C2755 1.265 . S
O2744 Gd2710 2.353 . S
O2744 C2755 1.242 . S
O2745 Gd2710 2.468 . S
O2745 C2763 1.263 . S
O2746 Gd2710 2.427 . S
O2746 C2763 1.252 . S
O2747 Gd2711 2.307 . S
O2747 C2756 1.261 . S
O2748 Gd2710 2.388 . S
O2748 C2756 1.252 . S
O2749 Gd2710 2.386 . S
O2749 C2767 1.265 . S
O2750 Gd2711 2.353 . S
O2750 C2767 1.242 . S
O2751 Gd2711 2.468 . S
O2751 C2775 1.263 . S
O2752 Gd2711 2.427 . S
O2752 C2775 1.252 . S
O2753 Gd2710 2.307 . S
O2753 C2768 1.261 . S
O2754 Gd2711 2.388 . S
O2754 C2768 1.252 . S
C2755 O2743 1.265 . S
C2755 O2744 1.242 . S
C2756 O2747 1.261 . S
C2756 O2748 1.252 . S
C2757 C2760 1.394 . S
C2757 C2762 1.370 . S
C2757 C2763 1.500 . S
C2758 C2761 1.383 . S
C2758 C2762 1.395 . S
C2759 C2760 1.396 . S
C2759 C2761 1.365 . S
C2759 H2776 0.929 . S
C2760 C2757 1.394 . S
C2760 C2759 1.396 . S
C2760 H2777 0.930 . S
C2761 C2758 1.383 . S
C2761 C2759 1.365 . S
C2761 H2778 0.931 . S
C2762 C2757 1.370 . S
C2762 C2758 1.395 . S
C2762 H2779 0.930 . S
C2763 Gd2710 2.805 . S
C2763 O2745 1.263 . S
C2763 O2746 1.252 . S
C2763 C2757 1.500 . S
C2764 H2726 0.930 . S
C2764 C2740 1.417 . S
C2764 C2765 1.329 . S
C2765 C2735 1.437 . S
C2765 H2736 0.929 . S
C2765 C2764 1.329 . S
H2766 C2739 0.931 . S
C2767 O2749 1.265 . S
C2767 O2750 1.242 . S
C2768 O2753 1.261 . S
C2768 O2754 1.252 . S
C2769 C2772 1.394 . S
C2769 C2774 1.370 . S
C2769 C2775 1.500 . S
C2770 C2773 1.383 . S
C2770 C2774 1.395 . S
C2771 C2772 1.396 . S
C2771 C2773 1.365 . S
C2771 H2780 0.929 . S
C2772 C2769 1.394 . S
C2772 C2771 1.396 . S
C2772 H2781 0.930 . S
C2773 C2770 1.383 . S
C2773 C2771 1.365 . S
C2773 H2782 0.931 . S
C2774 C2769 1.370 . S
C2774 C2770 1.395 . S
C2774 H2783 0.930 . S
C2775 Gd2711 2.805 . S
C2775 O2751 1.263 . S
C2775 O2752 1.252 . S
C2775 C2769 1.500 . S
H2776 C2759 0.929 . S
H2777 C2760 0.930 . S
H2778 C2761 0.931 . S
H2779 C2762 0.930 . S
H2780 C2771 0.929 . S
H2781 C2772 0.930 . S
H2782 C2773 0.931 . S
H2783 C2774 0.930 . S
C2784 C2786 1.422 . S
C2784 C2788 1.415 . S
C2784 N2790 1.369 . S
C2785 C2786 1.421 . S
C2785 C2787 1.417 . S
C2785 C2797 1.422 . S
C2786 C2784 1.422 . S
C2786 C2785 1.421 . S
C2786 N2796 1.359 . S
C2787 C2785 1.417 . S
C2787 C2789 1.329 . S
C2787 H2806 0.930 . S
C2788 C2784 1.415 . S
C2788 C2789 1.437 . S
C2788 C2792 1.413 . S
C2789 C2787 1.329 . S
C2789 C2788 1.437 . S
C2789 H2811 0.929 . S
N2790 C2784 1.369 . S
N2790 C2791 1.338 . S
N2790 Gd2795 2.622 . S
C2791 N2790 1.338 . S
C2791 C2793 1.378 . S
C2791 H2803 0.929 . S
C2792 C2788 1.413 . S
C2792 C2793 1.348 . S
C2792 H2808 0.931 . S
C2793 C2791 1.378 . S
C2793 C2792 1.348 . S
C2793 H2809 0.930 . S
Gd2794 N2814 2.622 1_554 S
Gd2794 N2821 2.570 1_554 S
Gd2794 O2828 2.353 . S
Gd2794 O2829 2.468 . S
Gd2794 O2830 2.427 . S
Gd2794 O2832 2.388 . S
Gd2794 O2833 2.386 1_554 S
Gd2794 O2837 2.307 . S
Gd2794 C2847 2.805 . S
Gd2795 N2790 2.622 . S
Gd2795 N2796 2.570 . S
Gd2795 O2827 2.386 . S
Gd2795 O2831 2.307 . S
Gd2795 O2834 2.353 1_554 S
Gd2795 O2835 2.468 . S
Gd2795 O2836 2.427 . S
Gd2795 O2838 2.388 . S
Gd2795 C2859 2.805 . S
N2796 C2786 1.359 . S
N2796 Gd2795 2.570 . S
N2796 C2798 1.343 . S
C2797 C2785 1.422 . S
C2797 C2799 1.321 . S
C2797 H2805 0.931 . S
C2798 N2796 1.343 . S
C2798 C2799 1.390 . S
C2798 H2800 0.931 . S
C2799 C2797 1.321 . S
C2799 C2798 1.390 . S
C2799 H2801 0.930 . S
H2800 C2798 0.931 . S
H2801 C2799 0.930 . S
H2802 C2825 0.931 1_554 S
H2803 C2791 0.929 . S
H2804 C2826 0.930 . S
H2805 C2797 0.931 . S
H2806 C2787 0.930 . S
H2807 C2816 0.929 1_554 S
H2808 C2792 0.931 . S
H2809 C2793 0.930 . S
H2810 C2848 0.930 . S
H2811 C2789 0.929 . S
H2812 C2817 0.931 . S
H2813 C2818 0.930 . S
N2814 Gd2794 2.622 1_556 S
N2814 C2815 1.369 . S
N2814 C2816 1.338 . S
C2815 N2814 1.369 . S
C2815 C2819 1.415 . S
C2815 C2822 1.422 . S
C2816 H2807 0.929 1_556 S
C2816 N2814 1.338 . S
C2816 C2818 1.378 . S
C2817 H2812 0.931 . S
C2817 C2818 1.348 . S
C2817 C2819 1.413 . S
C2818 H2813 0.930 . S
C2818 C2816 1.378 . S
C2818 C2817 1.348 . S
C2819 C2815 1.415 . S
C2819 C2817 1.413 . S
C2819 C2849 1.437 . S
H2820 C2849 0.929 . S
N2821 Gd2794 2.570 1_556 S
N2821 C2822 1.359 . S
N2821 C2825 1.343 . S
C2822 C2815 1.422 . S
C2822 N2821 1.359 . S
C2822 C2824 1.421 . S
C2823 C2824 1.422 . S
C2823 C2826 1.321 . S
C2823 H2850 0.931 . S
C2824 C2822 1.421 . S
C2824 C2823 1.422 . S
C2824 C2848 1.417 . S
C2825 H2802 0.931 1_556 S
C2825 N2821 1.343 . S
C2825 C2826 1.390 . S
C2826 H2804 0.930 . S
C2826 C2823 1.321 . S
C2826 C2825 1.390 . S
O2827 Gd2795 2.386 . S
O2827 C2839 1.265 . S
O2828 Gd2794 2.353 . S
O2828 C2839 1.242 . S
O2829 Gd2794 2.468 . S
O2829 C2847 1.263 . S
O2830 Gd2794 2.427 . S
O2830 C2847 1.252 . S
O2831 Gd2795 2.307 . S
O2831 C2840 1.261 . S
O2832 Gd2794 2.388 . S
O2832 C2840 1.252 . S
O2833 Gd2794 2.386 1_556 S
O2833 C2851 1.265 . S
O2834 Gd2795 2.353 1_556 S
O2834 C2851 1.242 . S
O2835 Gd2795 2.468 . S
O2835 C2859 1.263 . S
O2836 Gd2795 2.427 . S
O2836 C2859 1.252 . S
O2837 Gd2794 2.307 . S
O2837 C2852 1.261 . S
O2838 Gd2795 2.388 . S
O2838 C2852 1.252 . S
C2839 O2827 1.265 . S
C2839 O2828 1.242 . S
C2840 O2831 1.261 . S
C2840 O2832 1.252 . S
C2841 C2844 1.394 . S
C2841 C2846 1.370 . S
C2841 C2847 1.500 . S
C2842 C2845 1.383 . S
C2842 C2846 1.395 . S
C2843 C2844 1.396 . S
C2843 C2845 1.365 . S
C2843 H2860 0.929 . S
C2844 C2841 1.394 . S
C2844 C2843 1.396 . S
C2844 H2861 0.930 . S
C2845 C2842 1.383 . S
C2845 C2843 1.365 . S
C2845 H2862 0.931 . S
C2846 C2841 1.370 . S
C2846 C2842 1.395 . S
C2846 H2863 0.930 . S
C2847 Gd2794 2.805 . S
C2847 O2829 1.263 . S
C2847 O2830 1.252 . S
C2847 C2841 1.500 . S
C2848 H2810 0.930 . S
C2848 C2824 1.417 . S
C2848 C2849 1.329 . S
C2849 C2819 1.437 . S
C2849 H2820 0.929 . S
C2849 C2848 1.329 . S
H2850 C2823 0.931 . S
C2851 O2833 1.265 . S
C2851 O2834 1.242 . S
C2852 O2837 1.261 . S
C2852 O2838 1.252 . S
C2853 C2856 1.394 . S
C2853 C2858 1.370 . S
C2853 C2859 1.500 1_556 S
C2854 C2857 1.383 . S
C2854 C2858 1.395 . S
C2855 C2856 1.396 . S
C2855 C2857 1.365 . S
C2855 H2864 0.929 . S
C2856 C2853 1.394 . S
C2856 C2855 1.396 . S
C2856 H2865 0.930 . S
C2857 C2854 1.383 . S
C2857 C2855 1.365 . S
C2857 H2866 0.931 . S
C2858 C2853 1.370 . S
C2858 C2854 1.395 . S
C2858 H2867 0.930 . S
C2859 Gd2795 2.805 . S
C2859 O2835 1.263 . S
C2859 O2836 1.252 . S
C2859 C2853 1.500 1_554 S
H2860 C2843 0.929 . S
H2861 C2844 0.930 . S
H2862 C2845 0.931 . S
H2863 C2846 0.930 . S
H2864 C2855 0.929 . S
H2865 C2856 0.930 . S
H2866 C2857 0.931 . S
H2867 C2858 0.930 . S
C2868 C2870 1.422 . S
C2868 C2872 1.415 . S
C2868 N2874 1.369 . S
C2869 C2870 1.421 . S
C2869 C2871 1.417 . S
C2869 C2881 1.422 . S
C2870 C2868 1.422 . S
C2870 C2869 1.421 . S
C2870 N2880 1.359 . S
C2871 C2869 1.417 . S
C2871 C2873 1.329 . S
C2871 H2890 0.930 . S
C2872 C2868 1.415 . S
C2872 C2873 1.437 . S
C2872 C2876 1.413 . S
C2873 C2871 1.329 . S
C2873 C2872 1.437 . S
C2873 H2895 0.929 . S
N2874 C2868 1.369 . S
N2874 C2875 1.338 . S
N2874 Gd2879 2.622 . S
C2875 N2874 1.338 . S
C2875 C2877 1.378 . S
C2875 H2887 0.929 . S
C2876 C2872 1.413 . S
C2876 C2877 1.348 . S
C2876 H2892 0.931 . S
C2877 C2875 1.378 . S
C2877 C2876 1.348 . S
C2877 H2893 0.930 . S
Gd2878 N2898 2.622 . S
Gd2878 N2905 2.570 . S
Gd2878 O2912 2.353 . S
Gd2878 O2913 2.468 . S
Gd2878 O2914 2.427 . S
Gd2878 O2916 2.388 . S
Gd2878 O2917 2.386 . S
Gd2878 O2921 2.307 . S
Gd2878 C2931 2.805 . S
Gd2879 N2874 2.622 . S
Gd2879 N2880 2.570 . S
Gd2879 O2911 2.386 . S
Gd2879 O2915 2.307 . S
Gd2879 O2918 2.353 . S
Gd2879 O2919 2.468 . S
Gd2879 O2920 2.427 . S
Gd2879 O2922 2.388 . S
Gd2879 C2943 2.805 . S
N2880 C2870 1.359 . S
N2880 Gd2879 2.570 . S
N2880 C2882 1.343 . S
C2881 C2869 1.422 . S
C2881 C2883 1.321 . S
C2881 H2889 0.931 . S
C2882 N2880 1.343 . S
C2882 C2883 1.390 . S
C2882 H2884 0.931 . S
C2883 C2881 1.321 . S
C2883 C2882 1.390 . S
C2883 H2885 0.930 . S
H2884 C2882 0.931 . S
H2885 C2883 0.930 . S
H2886 C2909 0.931 . S
H2887 C2875 0.929 . S
H2888 C2910 0.930 . S
H2889 C2881 0.931 . S
H2890 C2871 0.930 . S
H2891 C2900 0.929 . S
H2892 C2876 0.931 . S
H2893 C2877 0.930 . S
H2894 C2932 0.930 . S
H2895 C2873 0.929 . S
H2896 C2901 0.931 . S
H2897 C2902 0.930 . S
N2898 Gd2878 2.622 . S
N2898 C2899 1.369 . S
N2898 C2900 1.338 . S
C2899 N2898 1.369 . S
C2899 C2903 1.415 . S
C2899 C2906 1.422 . S
C2900 H2891 0.929 . S
C2900 N2898 1.338 . S
C2900 C2902 1.378 . S
C2901 H2896 0.931 . S
C2901 C2902 1.348 . S
C2901 C2903 1.413 . S
C2902 H2897 0.930 . S
C2902 C2900 1.378 . S
C2902 C2901 1.348 . S
C2903 C2899 1.415 . S
C2903 C2901 1.413 . S
C2903 C2933 1.437 . S
H2904 C2933 0.929 . S
N2905 Gd2878 2.570 . S
N2905 C2906 1.359 . S
N2905 C2909 1.343 . S
C2906 C2899 1.422 . S
C2906 N2905 1.359 . S
C2906 C2908 1.421 . S
C2907 C2908 1.422 . S
C2907 C2910 1.321 . S
C2907 H2934 0.931 . S
C2908 C2906 1.421 . S
C2908 C2907 1.422 . S
C2908 C2932 1.417 . S
C2909 H2886 0.931 . S
C2909 N2905 1.343 . S
C2909 C2910 1.390 . S
C2910 H2888 0.930 . S
C2910 C2907 1.321 . S
C2910 C2909 1.390 . S
O2911 Gd2879 2.386 . S
O2911 C2923 1.265 . S
O2912 Gd2878 2.353 . S
O2912 C2923 1.242 . S
O2913 Gd2878 2.468 . S
O2913 C2931 1.263 . S
O2914 Gd2878 2.427 . S
O2914 C2931 1.252 . S
O2915 Gd2879 2.307 . S
O2915 C2924 1.261 . S
O2916 Gd2878 2.388 . S
O2916 C2924 1.252 . S
O2917 Gd2878 2.386 . S
O2917 C2935 1.265 . S
O2918 Gd2879 2.353 . S
O2918 C2935 1.242 . S
O2919 Gd2879 2.468 . S
O2919 C2943 1.263 . S
O2920 Gd2879 2.427 . S
O2920 C2943 1.252 . S
O2921 Gd2878 2.307 . S
O2921 C2936 1.261 . S
O2922 Gd2879 2.388 . S
O2922 C2936 1.252 . S
C2923 O2911 1.265 . S
C2923 O2912 1.242 . S
C2924 O2915 1.261 . S
C2924 O2916 1.252 . S
C2925 C2928 1.394 . S
C2925 C2930 1.370 . S
C2925 C2931 1.500 . S
C2926 C2929 1.383 . S
C2926 C2930 1.395 . S
C2927 C2928 1.396 . S
C2927 C2929 1.365 . S
C2927 H2944 0.929 . S
C2928 C2925 1.394 . S
C2928 C2927 1.396 . S
C2928 H2945 0.930 . S
C2929 C2926 1.383 . S
C2929 C2927 1.365 . S
C2929 H2946 0.931 . S
C2930 C2925 1.370 . S
C2930 C2926 1.395 . S
C2930 H2947 0.930 . S
C2931 Gd2878 2.805 . S
C2931 O2913 1.263 . S
C2931 O2914 1.252 . S
C2931 C2925 1.500 . S
C2932 H2894 0.930 . S
C2932 C2908 1.417 . S
C2932 C2933 1.329 . S
C2933 C2903 1.437 . S
C2933 H2904 0.929 . S
C2933 C2932 1.329 . S
H2934 C2907 0.931 . S
C2935 O2917 1.265 . S
C2935 O2918 1.242 . S
C2936 O2921 1.261 . S
C2936 O2922 1.252 . S
C2937 C2940 1.394 . S
C2937 C2942 1.370 . S
C2937 C2943 1.500 . S
C2938 C2941 1.383 . S
C2938 C2942 1.395 . S
C2939 C2940 1.396 . S
C2939 C2941 1.365 . S
C2939 H2948 0.929 . S
C2940 C2937 1.394 . S
C2940 C2939 1.396 . S
C2940 H2949 0.930 . S
C2941 C2938 1.383 . S
C2941 C2939 1.365 . S
C2941 H2950 0.931 . S
C2942 C2937 1.370 . S
C2942 C2938 1.395 . S
C2942 H2951 0.930 . S
C2943 Gd2879 2.805 . S
C2943 O2919 1.263 . S
C2943 O2920 1.252 . S
C2943 C2937 1.500 . S
H2944 C2927 0.929 . S
H2945 C2928 0.930 . S
H2946 C2929 0.931 . S
H2947 C2930 0.930 . S
H2948 C2939 0.929 . S
H2949 C2940 0.930 . S
H2950 C2941 0.931 . S
H2951 C2942 0.930 . S
C2952 C2954 1.422 . S
C2952 C2956 1.415 . S
C2952 N2958 1.369 . S
C2953 C2954 1.421 . S
C2953 C2955 1.417 . S
C2953 C2965 1.422 . S
C2954 C2952 1.422 . S
C2954 C2953 1.421 . S
C2954 N2964 1.359 . S
C2955 C2953 1.417 . S
C2955 C2957 1.329 . S
C2955 H2974 0.930 . S
C2956 C2952 1.415 . S
C2956 C2957 1.437 . S
C2956 C2960 1.413 . S
C2957 C2955 1.329 . S
C2957 C2956 1.437 . S
C2957 H2979 0.929 . S
N2958 C2952 1.369 . S
N2958 C2959 1.338 . S
N2958 Gd2963 2.622 . S
C2959 N2958 1.338 . S
C2959 C2961 1.378 . S
C2959 H2971 0.929 . S
C2960 C2956 1.413 . S
C2960 C2961 1.348 . S
C2960 H2976 0.931 . S
C2961 C2959 1.378 . S
C2961 C2960 1.348 . S
C2961 H2977 0.930 . S
Gd2962 N2982 2.622 1_455 S
Gd2962 N2989 2.570 1_455 S
Gd2962 O2996 2.353 . S
Gd2962 O2997 2.468 . S
Gd2962 O2998 2.427 . S
Gd2962 O3000 2.388 . S
Gd2962 O3001 2.386 1_455 S
Gd2962 O3005 2.307 . S
Gd2962 C3015 2.805 . S
Gd2963 N2958 2.622 . S
Gd2963 N2964 2.570 . S
Gd2963 O2995 2.386 . S
Gd2963 O2999 2.307 . S
Gd2963 O3002 2.353 1_455 S
Gd2963 O3003 2.468 . S
Gd2963 O3004 2.427 . S
Gd2963 O3006 2.388 . S
Gd2963 C3027 2.805 . S
N2964 C2954 1.359 . S
N2964 Gd2963 2.570 . S
N2964 C2966 1.343 . S
C2965 C2953 1.422 . S
C2965 C2967 1.321 . S
C2965 H2973 0.931 . S
C2966 N2964 1.343 . S
C2966 C2967 1.390 . S
C2966 H2968 0.931 . S
C2967 C2965 1.321 . S
C2967 C2966 1.390 . S
C2967 H2969 0.930 . S
H2968 C2966 0.931 . S
H2969 C2967 0.930 . S
H2970 C2993 0.931 1_455 S
H2971 C2959 0.929 . S
H2972 C2994 0.930 . S
H2973 C2965 0.931 . S
H2974 C2955 0.930 . S
H2975 C2984 0.923 1_455 S
H2976 C2960 0.931 . S
H2977 C2961 0.930 . S
H2978 C3016 0.930 . S
H2979 C2957 0.929 . S
H2980 C2985 0.931 . S
H2981 C2986 0.930 . S
N2982 Gd2962 2.622 1_655 S
N2982 C2983 1.369 . S
N2982 C2984 1.336 . S
C2983 N2982 1.369 . S
C2983 C2987 1.415 . S
C2983 C2990 1.422 . S
C2984 H2975 0.923 1_655 S
C2984 N2982 1.336 . S
C2984 C2986 1.386 . S
C2985 H2980 0.931 . S
C2985 C2986 1.348 . S
C2985 C2987 1.413 . S
C2986 H2981 0.930 . S
C2986 C2984 1.386 . S
C2986 C2985 1.348 . S
C2987 C2983 1.415 . S
C2987 C2985 1.413 . S
C2987 C3017 1.437 . S
H2988 C3017 0.929 . S
N2989 Gd2962 2.570 1_655 S
N2989 C2990 1.359 . S
N2989 C2993 1.343 . S
C2990 C2983 1.422 . S
C2990 N2989 1.359 . S
C2990 C2992 1.421 . S
C2991 C2992 1.422 . S
C2991 C2994 1.321 . S
C2991 H3018 0.931 . S
C2992 C2990 1.421 . S
C2992 C2991 1.422 . S
C2992 C3016 1.417 . S
C2993 H2970 0.931 1_655 S
C2993 N2989 1.343 . S
C2993 C2994 1.390 . S
C2994 H2972 0.930 . S
C2994 C2991 1.321 . S
C2994 C2993 1.390 . S
O2995 Gd2963 2.386 . S
O2995 C3007 1.265 . S
O2996 Gd2962 2.353 . S
O2996 C3007 1.242 . S
O2997 Gd2962 2.468 . S
O2997 C3015 1.263 . S
O2998 Gd2962 2.427 . S
O2998 C3015 1.252 . S
O2999 Gd2963 2.307 . S
O2999 C3008 1.261 . S
O3000 Gd2962 2.388 . S
O3000 C3008 1.252 . S
O3001 Gd2962 2.386 1_655 S
O3001 C3019 1.265 . S
O3002 Gd2963 2.353 1_655 S
O3002 C3019 1.242 . S
O3003 Gd2963 2.468 . S
O3003 C3027 1.263 . S
O3004 Gd2963 2.427 . S
O3004 C3027 1.252 . S
O3005 Gd2962 2.307 . S
O3005 C3020 1.261 . S
O3006 Gd2963 2.388 . S
O3006 C3020 1.252 . S
C3007 O2995 1.265 . S
C3007 O2996 1.242 . S
C3008 O2999 1.261 . S
C3008 O3000 1.252 . S
C3009 C3012 1.394 . S
C3009 C3014 1.370 . S
C3009 C3015 1.500 . S
C3010 C3013 1.383 . S
C3010 C3014 1.395 . S
C3011 C3012 1.396 . S
C3011 C3013 1.365 . S
C3011 H3028 0.929 . S
C3012 C3009 1.394 . S
C3012 C3011 1.396 . S
C3012 H3029 0.930 . S
C3013 C3010 1.383 . S
C3013 C3011 1.365 . S
C3013 H3030 0.931 . S
C3014 C3009 1.370 . S
C3014 C3010 1.395 . S
C3014 H3031 0.930 . S
C3015 Gd2962 2.805 . S
C3015 O2997 1.263 . S
C3015 O2998 1.252 . S
C3015 C3009 1.500 . S
C3016 H2978 0.930 . S
C3016 C2992 1.417 . S
C3016 C3017 1.329 . S
C3017 C2987 1.437 . S
C3017 H2988 0.929 . S
C3017 C3016 1.329 . S
H3018 C2991 0.931 . S
C3019 O3001 1.265 . S
C3019 O3002 1.242 . S
C3020 O3005 1.261 . S
C3020 O3006 1.252 . S
C3021 C3024 1.394 . S
C3021 C3026 1.370 . S
C3021 C3027 1.500 1_655 S
C3022 C3025 1.383 . S
C3022 C3026 1.395 . S
C3023 C3024 1.396 . S
C3023 C3025 1.365 . S
C3023 H3032 0.929 . S
C3024 C3021 1.394 . S
C3024 C3023 1.396 . S
C3024 H3033 0.930 . S
C3025 C3022 1.383 . S
C3025 C3023 1.365 . S
C3025 H3034 0.931 . S
C3026 C3021 1.370 . S
C3026 C3022 1.395 . S
C3026 H3035 0.930 . S
C3027 Gd2963 2.805 . S
C3027 O3003 1.263 . S
C3027 O3004 1.252 . S
C3027 C3021 1.500 1_455 S
H3028 C3011 0.929 . S
H3029 C3012 0.930 . S
H3030 C3013 0.931 . S
H3031 C3014 0.930 . S
H3032 C3023 0.929 . S
H3033 C3024 0.930 . S
H3034 C3025 0.931 . S
H3035 C3026 0.930 . S
C3036 C3038 1.422 . S
C3036 C3040 1.415 . S
C3036 N3042 1.369 . S
C3037 C3038 1.421 . S
C3037 C3039 1.417 . S
C3037 C3049 1.422 . S
C3038 C3036 1.422 . S
C3038 C3037 1.421 . S
C3038 N3048 1.359 . S
C3039 C3037 1.417 . S
C3039 C3041 1.329 . S
C3039 H3058 0.930 . S
C3040 C3036 1.415 . S
C3040 C3041 1.437 . S
C3040 C3044 1.413 . S
C3041 C3039 1.329 . S
C3041 C3040 1.437 . S
C3041 H3063 0.929 . S
N3042 C3036 1.369 . S
N3042 C3043 1.338 . S
N3042 Gd3047 2.622 . S
C3043 N3042 1.338 . S
C3043 C3045 1.378 . S
C3043 H3055 0.929 . S
C3044 C3040 1.413 . S
C3044 C3045 1.348 . S
C3044 H3060 0.931 . S
C3045 C3043 1.378 . S
C3045 C3044 1.348 . S
C3045 H3061 0.930 . S
Gd3046 N3066 2.622 . S
Gd3046 N3073 2.570 . S
Gd3046 O3080 2.353 . S
Gd3046 O3081 2.468 . S
Gd3046 O3082 2.427 . S
Gd3046 O3084 2.388 . S
Gd3046 O3085 2.386 . S
Gd3046 O3089 2.307 . S
Gd3046 C3099 2.805 . S
Gd3047 N3042 2.622 . S
Gd3047 N3048 2.570 . S
Gd3047 O3079 2.386 . S
Gd3047 O3083 2.307 . S
Gd3047 O3086 2.353 . S
Gd3047 O3087 2.468 . S
Gd3047 O3088 2.427 . S
Gd3047 O3090 2.388 . S
Gd3047 C3111 2.805 . S
N3048 C3038 1.359 . S
N3048 Gd3047 2.570 . S
N3048 C3050 1.343 . S
C3049 C3037 1.422 . S
C3049 C3051 1.321 . S
C3049 H3057 0.931 . S
C3050 N3048 1.343 . S
C3050 C3051 1.390 . S
C3050 H3052 0.931 . S
C3051 C3049 1.321 . S
C3051 C3050 1.390 . S
C3051 H3053 0.930 . S
H3052 C3050 0.931 . S
H3053 C3051 0.930 . S
H3054 C3077 0.931 . S
H3055 C3043 0.929 . S
H3056 C3078 0.930 . S
H3057 C3049 0.931 . S
H3058 C3039 0.930 . S
H3059 C3068 0.929 . S
H3060 C3044 0.931 . S
H3061 C3045 0.930 . S
H3062 C3100 0.930 . S
H3063 C3041 0.929 . S
H3064 C3069 0.931 . S
H3065 C3070 0.930 . S
N3066 Gd3046 2.622 . S
N3066 C3067 1.369 . S
N3066 C3068 1.338 . S
C3067 N3066 1.369 . S
C3067 C3071 1.415 . S
C3067 C3074 1.422 . S
C3068 H3059 0.929 . S
C3068 N3066 1.338 . S
C3068 C3070 1.378 . S
C3069 H3064 0.931 . S
C3069 C3070 1.348 . S
C3069 C3071 1.413 . S
C3070 H3065 0.930 . S
C3070 C3068 1.378 . S
C3070 C3069 1.348 . S
C3071 C3067 1.415 . S
C3071 C3069 1.413 . S
C3071 C3101 1.437 . S
H3072 C3101 0.929 . S
N3073 Gd3046 2.570 . S
N3073 C3074 1.359 . S
N3073 C3077 1.343 . S
C3074 C3067 1.422 . S
C3074 N3073 1.359 . S
C3074 C3076 1.421 . S
C3075 C3076 1.422 . S
C3075 C3078 1.321 . S
C3075 H3102 0.931 . S
C3076 C3074 1.421 . S
C3076 C3075 1.422 . S
C3076 C3100 1.417 . S
C3077 H3054 0.931 . S
C3077 N3073 1.343 . S
C3077 C3078 1.390 . S
C3078 H3056 0.930 . S
C3078 C3075 1.321 . S
C3078 C3077 1.390 . S
O3079 Gd3047 2.386 . S
O3079 C3091 1.265 . S
O3080 Gd3046 2.353 . S
O3080 C3091 1.242 . S
O3081 Gd3046 2.468 . S
O3081 C3099 1.263 . S
O3082 Gd3046 2.427 . S
O3082 C3099 1.252 . S
O3083 Gd3047 2.307 . S
O3083 C3092 1.261 . S
O3084 Gd3046 2.388 . S
O3084 C3092 1.252 . S
O3085 Gd3046 2.386 . S
O3085 C3103 1.265 . S
O3086 Gd3047 2.353 . S
O3086 C3103 1.242 . S
O3087 Gd3047 2.468 . S
O3087 C3111 1.263 . S
O3088 Gd3047 2.427 . S
O3088 C3111 1.252 . S
O3089 Gd3046 2.307 . S
O3089 C3104 1.261 . S
O3090 Gd3047 2.388 . S
O3090 C3104 1.252 . S
C3091 O3079 1.265 . S
C3091 O3080 1.242 . S
C3092 O3083 1.261 . S
C3092 O3084 1.252 . S
C3093 C3096 1.394 . S
C3093 C3098 1.370 . S
C3093 C3099 1.500 . S
C3094 C3097 1.383 . S
C3094 C3098 1.395 . S
C3095 C3096 1.396 . S
C3095 C3097 1.365 . S
C3095 H3112 0.929 . S
C3096 C3093 1.394 . S
C3096 C3095 1.396 . S
C3096 H3113 0.930 . S
C3097 C3094 1.383 . S
C3097 C3095 1.365 . S
C3097 H3114 0.931 . S
C3098 C3093 1.370 . S
C3098 C3094 1.395 . S
C3098 H3115 0.930 . S
C3099 Gd3046 2.805 . S
C3099 O3081 1.263 . S
C3099 O3082 1.252 . S
C3099 C3093 1.500 . S
C3100 H3062 0.930 . S
C3100 C3076 1.417 . S
C3100 C3101 1.329 . S
C3101 C3071 1.437 . S
C3101 H3072 0.929 . S
C3101 C3100 1.329 . S
H3102 C3075 0.931 . S
C3103 O3085 1.265 . S
C3103 O3086 1.242 . S
C3104 O3089 1.261 . S
C3104 O3090 1.252 . S
C3105 C3108 1.394 . S
C3105 C3110 1.370 . S
C3105 C3111 1.500 . S
C3106 C3109 1.383 . S
C3106 C3110 1.395 . S
C3107 C3108 1.396 . S
C3107 C3109 1.365 . S
C3107 H3116 0.929 . S
C3108 C3105 1.394 . S
C3108 C3107 1.396 . S
C3108 H3117 0.930 . S
C3109 C3106 1.383 . S
C3109 C3107 1.365 . S
C3109 H3118 0.931 . S
C3110 C3105 1.370 . S
C3110 C3106 1.395 . S
C3110 H3119 0.930 . S
C3111 Gd3047 2.805 . S
C3111 O3087 1.263 . S
C3111 O3088 1.252 . S
C3111 C3105 1.500 . S
H3112 C3095 0.929 . S
H3113 C3096 0.930 . S
H3114 C3097 0.931 . S
H3115 C3098 0.930 . S
H3116 C3107 0.929 . S
H3117 C3108 0.930 . S
H3118 C3109 0.931 . S
H3119 C3110 0.930 . S
C3120 C3122 1.422 . S
C3120 C3124 1.415 . S
C3120 N3126 1.369 . S
C3121 C3122 1.421 . S
C3121 C3123 1.417 . S
C3121 C3133 1.422 . S
C3122 C3120 1.422 . S
C3122 C3121 1.421 . S
C3122 N3132 1.359 . S
C3123 C3121 1.417 . S
C3123 C3125 1.329 . S
C3123 H3142 0.930 . S
C3124 C3120 1.415 . S
C3124 C3125 1.437 . S
C3124 C3128 1.413 . S
C3125 C3123 1.329 . S
C3125 C3124 1.437 . S
C3125 H3147 0.929 . S
N3126 C3120 1.369 . S
N3126 C3127 1.338 . S
N3126 Gd3131 2.622 . S
C3127 N3126 1.338 . S
C3127 C3129 1.378 . S
C3127 H3139 0.929 . S
C3128 C3124 1.413 . S
C3128 C3129 1.348 . S
C3128 H3144 0.931 . S
C3129 C3127 1.378 . S
C3129 C3128 1.348 . S
C3129 H3145 0.930 . S
Gd3130 N3150 2.622 . S
Gd3130 N3157 2.570 . S
Gd3130 O3164 2.353 . S
Gd3130 O3165 2.468 . S
Gd3130 O3166 2.427 . S
Gd3130 O3168 2.388 . S
Gd3130 O3169 2.386 . S
Gd3130 O3173 2.307 . S
Gd3130 C3183 2.805 . S
Gd3131 N3126 2.622 . S
Gd3131 N3132 2.570 . S
Gd3131 O3163 2.386 . S
Gd3131 O3167 2.307 . S
Gd3131 O3170 2.353 . S
Gd3131 O3171 2.468 . S
Gd3131 O3172 2.427 . S
Gd3131 O3174 2.388 . S
Gd3131 C3195 2.805 . S
N3132 C3122 1.359 . S
N3132 Gd3131 2.570 . S
N3132 C3134 1.343 . S
C3133 C3121 1.422 . S
C3133 C3135 1.321 . S
C3133 H3141 0.931 . S
C3134 N3132 1.343 . S
C3134 C3135 1.390 . S
C3134 H3136 0.931 . S
C3135 C3133 1.321 . S
C3135 C3134 1.390 . S
C3135 H3137 0.930 . S
H3136 C3134 0.931 . S
H3137 C3135 0.930 . S
H3138 C3161 0.931 . S
H3139 C3127 0.929 . S
H3140 C3162 0.930 . S
H3141 C3133 0.931 . S
H3142 C3123 0.930 . S
H3143 C3152 0.929 . S
H3144 C3128 0.931 . S
H3145 C3129 0.930 . S
H3146 C3184 0.930 . S
H3147 C3125 0.929 . S
H3148 C3153 0.931 . S
H3149 C3154 0.930 . S
N3150 Gd3130 2.622 . S
N3150 C3151 1.369 . S
N3150 C3152 1.338 . S
C3151 N3150 1.369 . S
C3151 C3155 1.415 . S
C3151 C3158 1.422 . S
C3152 H3143 0.929 . S
C3152 N3150 1.338 . S
C3152 C3154 1.378 . S
C3153 H3148 0.931 . S
C3153 C3154 1.348 . S
C3153 C3155 1.413 . S
C3154 H3149 0.930 . S
C3154 C3152 1.378 . S
C3154 C3153 1.348 . S
C3155 C3151 1.415 . S
C3155 C3153 1.413 . S
C3155 C3185 1.437 . S
H3156 C3185 0.929 . S
N3157 Gd3130 2.570 . S
N3157 C3158 1.359 . S
N3157 C3161 1.343 . S
C3158 C3151 1.422 . S
C3158 N3157 1.359 . S
C3158 C3160 1.421 . S
C3159 C3160 1.422 . S
C3159 C3162 1.321 . S
C3159 H3186 0.931 . S
C3160 C3158 1.421 . S
C3160 C3159 1.422 . S
C3160 C3184 1.417 . S
C3161 H3138 0.931 . S
C3161 N3157 1.343 . S
C3161 C3162 1.390 . S
C3162 H3140 0.930 . S
C3162 C3159 1.321 . S
C3162 C3161 1.390 . S
O3163 Gd3131 2.386 . S
O3163 C3175 1.265 . S
O3164 Gd3130 2.353 . S
O3164 C3175 1.242 . S
O3165 Gd3130 2.468 . S
O3165 C3183 1.263 . S
O3166 Gd3130 2.427 . S
O3166 C3183 1.252 . S
O3167 Gd3131 2.307 . S
O3167 C3176 1.261 . S
O3168 Gd3130 2.388 . S
O3168 C3176 1.252 . S
O3169 Gd3130 2.386 . S
O3169 C3187 1.265 . S
O3170 Gd3131 2.353 . S
O3170 C3187 1.242 . S
O3171 Gd3131 2.468 . S
O3171 C3195 1.263 . S
O3172 Gd3131 2.427 . S
O3172 C3195 1.252 . S
O3173 Gd3130 2.307 . S
O3173 C3188 1.261 . S
O3174 Gd3131 2.388 . S
O3174 C3188 1.252 . S
C3175 O3163 1.265 . S
C3175 O3164 1.242 . S
C3176 O3167 1.261 . S
C3176 O3168 1.252 . S
C3177 C3180 1.394 . S
C3177 C3182 1.370 . S
C3177 C3183 1.500 . S
C3178 C3181 1.383 . S
C3178 C3182 1.395 . S
C3179 C3180 1.396 . S
C3179 C3181 1.365 . S
C3179 H3196 0.929 . S
C3180 C3177 1.394 . S
C3180 C3179 1.396 . S
C3180 H3197 0.930 . S
C3181 C3178 1.383 . S
C3181 C3179 1.365 . S
C3181 H3198 0.931 . S
C3182 C3177 1.370 . S
C3182 C3178 1.395 . S
C3182 H3199 0.930 . S
C3183 Gd3130 2.805 . S
C3183 O3165 1.263 . S
C3183 O3166 1.252 . S
C3183 C3177 1.500 . S
C3184 H3146 0.930 . S
C3184 C3160 1.417 . S
C3184 C3185 1.329 . S
C3185 C3155 1.437 . S
C3185 H3156 0.929 . S
C3185 C3184 1.329 . S
H3186 C3159 0.931 . S
C3187 O3169 1.265 . S
C3187 O3170 1.242 . S
C3188 O3173 1.261 . S
C3188 O3174 1.252 . S
C3189 C3192 1.394 . S
C3189 C3194 1.370 . S
C3189 C3195 1.500 . S
C3190 C3193 1.383 . S
C3190 C3194 1.395 . S
C3191 C3192 1.396 . S
C3191 C3193 1.365 . S
C3191 H3200 0.929 . S
C3192 C3189 1.394 . S
C3192 C3191 1.396 . S
C3192 H3201 0.930 . S
C3193 C3190 1.383 . S
C3193 C3191 1.365 . S
C3193 H3202 0.931 . S
C3194 C3189 1.370 . S
C3194 C3190 1.395 . S
C3194 H3203 0.930 . S
C3195 Gd3131 2.805 . S
C3195 O3171 1.263 . S
C3195 O3172 1.252 . S
C3195 C3189 1.500 . S
H3196 C3179 0.929 . S
H3197 C3180 0.930 . S
H3198 C3181 0.931 . S
H3199 C3182 0.930 . S
H3200 C3191 0.929 . S
H3201 C3192 0.930 . S
H3202 C3193 0.931 . S
H3203 C3194 0.930 . S
C3204 C3206 1.422 . S
C3204 C3208 1.415 . S
C3204 N3210 1.369 . S
C3205 C3206 1.421 . S
C3205 C3207 1.417 . S
C3205 C3217 1.422 . S
C3206 C3204 1.422 . S
C3206 C3205 1.421 . S
C3206 N3216 1.359 . S
C3207 C3205 1.417 . S
C3207 C3209 1.329 . S
C3207 H3226 0.930 . S
C3208 C3204 1.415 . S
C3208 C3209 1.437 . S
C3208 C3212 1.413 . S
C3209 C3207 1.329 . S
C3209 C3208 1.437 . S
C3209 H3231 0.929 . S
N3210 C3204 1.369 . S
N3210 C3211 1.338 . S
N3210 Gd3215 2.622 . S
C3211 N3210 1.338 . S
C3211 C3213 1.378 . S
C3211 H3223 0.929 . S
C3212 C3208 1.413 . S
C3212 C3213 1.348 . S
C3212 H3228 0.931 . S
C3213 C3211 1.378 . S
C3213 C3212 1.348 . S
C3213 H3229 0.930 . S
Gd3214 N3234 2.622 . S
Gd3214 N3241 2.570 . S
Gd3214 O3248 2.353 . S
Gd3214 O3249 2.468 . S
Gd3214 O3250 2.427 . S
Gd3214 O3252 2.388 . S
Gd3214 O3253 2.386 . S
Gd3214 O3257 2.307 . S
Gd3214 C3267 2.805 . S
Gd3215 N3210 2.622 . S
Gd3215 N3216 2.570 . S
Gd3215 O3247 2.386 . S
Gd3215 O3251 2.307 . S
Gd3215 O3254 2.353 . S
Gd3215 O3255 2.468 . S
Gd3215 O3256 2.427 . S
Gd3215 O3258 2.388 . S
Gd3215 C3279 2.805 . S
N3216 C3206 1.359 . S
N3216 Gd3215 2.570 . S
N3216 C3218 1.343 . S
C3217 C3205 1.422 . S
C3217 C3219 1.321 . S
C3217 H3225 0.931 . S
C3218 N3216 1.343 . S
C3218 C3219 1.390 . S
C3218 H3220 0.931 . S
C3219 C3217 1.321 . S
C3219 C3218 1.390 . S
C3219 H3221 0.930 . S
H3220 C3218 0.931 . S
H3221 C3219 0.930 . S
H3222 C3245 0.931 . S
H3223 C3211 0.929 . S
H3224 C3246 0.930 . S
H3225 C3217 0.931 . S
H3226 C3207 0.930 . S
H3227 C3236 0.929 . S
H3228 C3212 0.931 . S
H3229 C3213 0.930 . S
H3230 C3268 0.930 . S
H3231 C3209 0.929 . S
H3232 C3237 0.931 . S
H3233 C3238 0.930 . S
N3234 Gd3214 2.622 . S
N3234 C3235 1.369 . S
N3234 C3236 1.338 . S
C3235 N3234 1.369 . S
C3235 C3239 1.415 . S
C3235 C3242 1.422 . S
C3236 H3227 0.929 . S
C3236 N3234 1.338 . S
C3236 C3238 1.378 . S
C3237 H3232 0.931 . S
C3237 C3238 1.348 . S
C3237 C3239 1.413 . S
C3238 H3233 0.930 . S
C3238 C3236 1.378 . S
C3238 C3237 1.348 . S
C3239 C3235 1.415 . S
C3239 C3237 1.413 . S
C3239 C3269 1.437 . S
H3240 C3269 0.929 . S
N3241 Gd3214 2.570 . S
N3241 C3242 1.359 . S
N3241 C3245 1.343 . S
C3242 C3235 1.422 . S
C3242 N3241 1.359 . S
C3242 C3244 1.421 . S
C3243 C3244 1.422 . S
C3243 C3246 1.321 . S
C3243 H3270 0.931 . S
C3244 C3242 1.421 . S
C3244 C3243 1.422 . S
C3244 C3268 1.417 . S
C3245 H3222 0.931 . S
C3245 N3241 1.343 . S
C3245 C3246 1.390 . S
C3246 H3224 0.930 . S
C3246 C3243 1.321 . S
C3246 C3245 1.390 . S
O3247 Gd3215 2.386 . S
O3247 C3259 1.265 . S
O3248 Gd3214 2.353 . S
O3248 C3259 1.242 . S
O3249 Gd3214 2.468 . S
O3249 C3267 1.263 . S
O3250 Gd3214 2.427 . S
O3250 C3267 1.252 . S
O3251 Gd3215 2.307 . S
O3251 C3260 1.261 . S
O3252 Gd3214 2.388 . S
O3252 C3260 1.252 . S
O3253 Gd3214 2.386 . S
O3253 C3271 1.265 . S
O3254 Gd3215 2.353 . S
O3254 C3271 1.242 . S
O3255 Gd3215 2.468 . S
O3255 C3279 1.263 . S
O3256 Gd3215 2.427 . S
O3256 C3279 1.252 . S
O3257 Gd3214 2.307 . S
O3257 C3272 1.261 . S
O3258 Gd3215 2.388 . S
O3258 C3272 1.252 . S
C3259 O3247 1.265 . S
C3259 O3248 1.242 . S
C3260 O3251 1.261 . S
C3260 O3252 1.252 . S
C3261 C3264 1.394 . S
C3261 C3266 1.370 . S
C3261 C3267 1.500 . S
C3262 C3265 1.383 . S
C3262 C3266 1.395 . S
C3263 C3264 1.396 . S
C3263 C3265 1.365 . S
C3263 H3280 0.929 . S
C3264 C3261 1.394 . S
C3264 C3263 1.396 . S
C3264 H3281 0.930 . S
C3265 C3262 1.383 . S
C3265 C3263 1.365 . S
C3265 H3282 0.931 . S
C3266 C3261 1.370 . S
C3266 C3262 1.395 . S
C3266 H3283 0.930 . S
C3267 Gd3214 2.805 . S
C3267 O3249 1.263 . S
C3267 O3250 1.252 . S
C3267 C3261 1.500 . S
C3268 H3230 0.930 . S
C3268 C3244 1.417 . S
C3268 C3269 1.329 . S
C3269 C3239 1.437 . S
C3269 H3240 0.929 . S
C3269 C3268 1.329 . S
H3270 C3243 0.931 . S
C3271 O3253 1.265 . S
C3271 O3254 1.242 . S
C3272 O3257 1.261 . S
C3272 O3258 1.252 . S
C3273 C3276 1.394 . S
C3273 C3278 1.370 . S
C3273 C3279 1.500 . S
C3274 C3277 1.383 . S
C3274 C3278 1.395 . S
C3275 C3276 1.396 . S
C3275 C3277 1.365 . S
C3275 H3284 0.929 . S
C3276 C3273 1.394 . S
C3276 C3275 1.396 . S
C3276 H3285 0.930 . S
C3277 C3274 1.383 . S
C3277 C3275 1.365 . S
C3277 H3286 0.931 . S
C3278 C3273 1.370 . S
C3278 C3274 1.395 . S
C3278 H3287 0.930 . S
C3279 Gd3215 2.805 . S
C3279 O3255 1.263 . S
C3279 O3256 1.252 . S
C3279 C3273 1.500 . S
H3280 C3263 0.929 . S
H3281 C3264 0.930 . S
H3282 C3265 0.931 . S
H3283 C3266 0.930 . S
H3284 C3275 0.929 . S
H3285 C3276 0.930 . S
H3286 C3277 0.931 . S
H3287 C3278 0.930 . S
C3288 C3290 1.422 . S
C3288 C3292 1.415 . S
C3288 N3294 1.369 . S
C3289 C3290 1.421 . S
C3289 C3291 1.417 . S
C3289 C3301 1.422 . S
C3290 C3288 1.422 . S
C3290 C3289 1.421 . S
C3290 N3300 1.359 . S
C3291 C3289 1.417 . S
C3291 C3293 1.329 . S
C3291 H3310 0.930 . S
C3292 C3288 1.415 . S
C3292 C3293 1.437 . S
C3292 C3296 1.413 . S
C3293 C3291 1.329 . S
C3293 C3292 1.437 . S
C3293 H3315 0.929 . S
N3294 C3288 1.369 . S
N3294 C3295 1.338 . S
N3294 Gd3299 2.622 . S
C3295 N3294 1.338 . S
C3295 C3297 1.378 . S
C3295 H3307 0.929 . S
C3296 C3292 1.413 . S
C3296 C3297 1.348 . S
C3296 H3312 0.931 . S
C3297 C3295 1.378 . S
C3297 C3296 1.348 . S
C3297 H3313 0.930 . S
Gd3298 N3318 2.622 . S
Gd3298 N3325 2.570 . S
Gd3298 O3332 2.353 . S
Gd3298 O3333 2.468 . S
Gd3298 O3334 2.427 . S
Gd3298 O3336 2.388 . S
Gd3298 O3337 2.386 . S
Gd3298 O3341 2.307 . S
Gd3298 C3351 2.805 . S
Gd3299 N3294 2.622 . S
Gd3299 N3300 2.570 . S
Gd3299 O3331 2.386 . S
Gd3299 O3335 2.307 . S
Gd3299 O3338 2.353 . S
Gd3299 O3339 2.468 . S
Gd3299 O3340 2.427 . S
Gd3299 O3342 2.388 . S
Gd3299 C3363 2.805 . S
N3300 C3290 1.359 . S
N3300 Gd3299 2.570 . S
N3300 C3302 1.343 . S
C3301 C3289 1.422 . S
C3301 C3303 1.321 . S
C3301 H3309 0.931 . S
C3302 N3300 1.343 . S
C3302 C3303 1.390 . S
C3302 H3304 0.931 . S
C3303 C3301 1.321 . S
C3303 C3302 1.390 . S
C3303 H3305 0.930 . S
H3304 C3302 0.931 . S
H3305 C3303 0.930 . S
H3306 C3329 0.931 . S
H3307 C3295 0.929 . S
H3308 C3330 0.930 . S
H3309 C3301 0.931 . S
H3310 C3291 0.930 . S
H3311 C3320 0.929 . S
H3312 C3296 0.931 . S
H3313 C3297 0.930 . S
H3314 C3352 0.930 . S
H3315 C3293 0.929 . S
H3316 C3321 0.931 . S
H3317 C3322 0.930 . S
N3318 Gd3298 2.622 . S
N3318 C3319 1.369 . S
N3318 C3320 1.338 . S
C3319 N3318 1.369 . S
C3319 C3323 1.415 . S
C3319 C3326 1.422 . S
C3320 H3311 0.929 . S
C3320 N3318 1.338 . S
C3320 C3322 1.378 . S
C3321 H3316 0.931 . S
C3321 C3322 1.348 . S
C3321 C3323 1.413 . S
C3322 H3317 0.930 . S
C3322 C3320 1.378 . S
C3322 C3321 1.348 . S
C3323 C3319 1.415 . S
C3323 C3321 1.413 . S
C3323 C3353 1.437 . S
H3324 C3353 0.929 . S
N3325 Gd3298 2.570 . S
N3325 C3326 1.359 . S
N3325 C3329 1.343 . S
C3326 C3319 1.422 . S
C3326 N3325 1.359 . S
C3326 C3328 1.421 . S
C3327 C3328 1.422 . S
C3327 C3330 1.321 . S
C3327 H3354 0.931 . S
C3328 C3326 1.421 . S
C3328 C3327 1.422 . S
C3328 C3352 1.417 . S
C3329 H3306 0.931 . S
C3329 N3325 1.343 . S
C3329 C3330 1.390 . S
C3330 H3308 0.930 . S
C3330 C3327 1.321 . S
C3330 C3329 1.390 . S
O3331 Gd3299 2.386 . S
O3331 C3343 1.265 . S
O3332 Gd3298 2.353 . S
O3332 C3343 1.242 . S
O3333 Gd3298 2.468 . S
O3333 C3351 1.263 . S
O3334 Gd3298 2.427 . S
O3334 C3351 1.252 . S
O3335 Gd3299 2.307 . S
O3335 C3344 1.261 . S
O3336 Gd3298 2.388 . S
O3336 C3344 1.252 . S
O3337 Gd3298 2.386 . S
O3337 C3355 1.265 . S
O3338 Gd3299 2.353 . S
O3338 C3355 1.242 . S
O3339 Gd3299 2.468 . S
O3339 C3363 1.263 . S
O3340 Gd3299 2.427 . S
O3340 C3363 1.252 . S
O3341 Gd3298 2.307 . S
O3341 C3356 1.261 . S
O3342 Gd3299 2.388 . S
O3342 C3356 1.252 . S
C3343 O3331 1.265 . S
C3343 O3332 1.242 . S
C3344 O3335 1.261 . S
C3344 O3336 1.252 . S
C3345 C3348 1.394 . S
C3345 C3350 1.370 . S
C3345 C3351 1.500 . S
C3346 C3349 1.383 . S
C3346 C3350 1.395 . S
C3347 C3348 1.396 . S
C3347 C3349 1.365 . S
C3347 H3364 0.929 . S
C3348 C3345 1.394 . S
C3348 C3347 1.396 . S
C3348 H3365 0.930 . S
C3349 C3346 1.383 . S
C3349 C3347 1.365 . S
C3349 H3366 0.931 . S
C3350 C3345 1.370 . S
C3350 C3346 1.395 . S
C3350 H3367 0.930 . S
C3351 Gd3298 2.805 . S
C3351 O3333 1.263 . S
C3351 O3334 1.252 . S
C3351 C3345 1.500 . S
C3352 H3314 0.930 . S
C3352 C3328 1.417 . S
C3352 C3353 1.329 . S
C3353 C3323 1.437 . S
C3353 H3324 0.929 . S
C3353 C3352 1.329 . S
H3354 C3327 0.931 . S
C3355 O3337 1.265 . S
C3355 O3338 1.242 . S
C3356 O3341 1.261 . S
C3356 O3342 1.252 . S
C3357 C3360 1.394 . S
C3357 C3362 1.370 . S
C3357 C3363 1.500 . S
C3358 C3361 1.383 . S
C3358 C3362 1.395 . S
C3359 C3360 1.396 . S
C3359 C3361 1.365 . S
C3359 H3368 0.929 . S
C3360 C3357 1.394 . S
C3360 C3359 1.396 . S
C3360 H3369 0.930 . S
C3361 C3358 1.383 . S
C3361 C3359 1.365 . S
C3361 H3370 0.931 . S
C3362 C3357 1.370 . S
C3362 C3358 1.395 . S
C3362 H3371 0.930 . S
C3363 Gd3299 2.805 . S
C3363 O3339 1.263 . S
C3363 O3340 1.252 . S
C3363 C3357 1.500 . S
H3364 C3347 0.929 . S
H3365 C3348 0.930 . S
H3366 C3349 0.931 . S
H3367 C3350 0.930 . S
H3368 C3359 0.929 . S
H3369 C3360 0.930 . S
H3370 C3361 0.931 . S
H3371 C3362 0.930 . S
C3372 C3374 1.422 1_556 S
C3372 C3376 1.415 . S
C3372 N3378 1.369 . S
C3373 C3374 1.421 . S
C3373 C3375 1.415 1_554 S
C3373 C3385 1.422 . S
C3374 C3372 1.422 1_554 S
C3374 C3373 1.421 . S
C3374 N3384 1.359 . S
C3375 C3373 1.415 1_556 S
C3375 C3377 1.331 . S
C3375 H3394 0.929 1_556 S
C3376 C3372 1.415 . S
C3376 C3377 1.437 . S
C3376 C3380 1.413 . S
C3377 C3375 1.331 . S
C3377 C3376 1.437 . S
C3377 H3399 0.929 . S
N3378 C3372 1.369 . S
N3378 C3379 1.338 . S
N3378 Gd3383 2.622 1_556 S
C3379 N3378 1.338 . S
C3379 C3381 1.378 . S
C3379 H3391 0.929 . S
C3380 C3376 1.413 . S
C3380 C3381 1.348 . S
C3380 H3396 0.931 . S
C3381 C3379 1.378 . S
C3381 C3380 1.348 . S
C3381 H3397 0.930 . S
Gd3382 N3402 2.625 . S
Gd3382 N3409 2.578 . S
Gd3382 O3416 2.349 1_655 S
Gd3382 O3417 2.478 . S
Gd3382 O3418 2.436 . S
Gd3382 O3420 2.379 1_655 S
Gd3382 O3421 2.379 1_655 S
Gd3382 O3425 2.305 1_655 S
Gd3382 C3435 2.816 . S
Gd3383 N3378 2.622 1_554 S
Gd3383 N3384 2.570 . S
Gd3383 O3415 2.386 . S
Gd3383 O3419 2.307 . S
Gd3383 O3422 2.353 . S
Gd3383 O3423 2.468 . S
Gd3383 O3424 2.427 1_554 S
Gd3383 O3426 2.388 1_554 S
Gd3383 C3447 2.805 . S
N3384 C3374 1.359 . S
N3384 Gd3383 2.570 . S
N3384 C3386 1.343 . S
C3385 C3373 1.422 . S
C3385 C3387 1.321 . S
C3385 H3393 0.931 . S
C3386 N3384 1.343 . S
C3386 C3387 1.390 . S
C3386 H3388 0.931 . S
C3387 C3385 1.321 . S
C3387 C3386 1.390 . S
C3387 H3389 0.930 . S
H3388 C3386 0.931 . S
H3389 C3387 0.930 . S
H3390 C3413 0.938 . S
H3391 C3379 0.929 . S
H3392 C3414 0.930 1_556 S
H3393 C3385 0.931 . S
H3394 C3375 0.929 1_554 S
H3395 C3404 0.929 1_455 S
H3396 C3380 0.931 . S
H3397 C3381 0.930 . S
H3398 C3436 0.930 . S
H3399 C3377 0.929 . S
H3400 C3405 0.931 . S
H3401 C3406 0.920 1_455 S
N3402 Gd3382 2.625 . S
N3402 C3403 1.369 . S
N3402 C3404 1.338 . S
C3403 N3402 1.369 . S
C3403 C3407 1.415 . S
C3403 C3410 1.422 . S
C3404 H3395 0.929 1_655 S
C3404 N3402 1.338 . S
C3404 C3406 1.378 . S
C3405 H3400 0.931 . S
C3405 C3406 1.348 . S
C3405 C3407 1.413 . S
C3406 H3401 0.920 1_655 S
C3406 C3404 1.378 . S
C3406 C3405 1.348 . S
C3407 C3403 1.415 . S
C3407 C3405 1.413 . S
C3407 C3437 1.437 . S
H3408 C3437 0.929 . S
N3409 Gd3382 2.578 . S
N3409 C3410 1.359 . S
N3409 C3413 1.343 . S
C3410 C3403 1.422 . S
C3410 N3409 1.359 . S
C3410 C3412 1.421 . S
C3411 C3412 1.422 . S
C3411 C3414 1.321 . S
C3411 H3438 0.931 . S
C3412 C3410 1.421 . S
C3412 C3411 1.422 . S
C3412 C3436 1.417 . S
C3413 H3390 0.938 . S
C3413 N3409 1.343 . S
C3413 C3414 1.390 . S
C3414 H3392 0.930 1_554 S
C3414 C3411 1.321 . S
C3414 C3413 1.390 . S
O3415 Gd3383 2.386 . S
O3415 C3427 1.265 . S
O3416 Gd3382 2.349 1_455 S
O3416 C3427 1.242 . S
O3417 Gd3382 2.478 . S
O3417 C3435 1.263 . S
O3418 Gd3382 2.436 . S
O3418 C3435 1.252 . S
O3419 Gd3383 2.307 . S
O3419 C3428 1.261 . S
O3420 Gd3382 2.379 1_455 S
O3420 C3428 1.252 . S
O3421 Gd3382 2.379 1_455 S
O3421 C3439 1.265 . S
O3422 Gd3383 2.353 . S
O3422 C3439 1.242 . S
O3423 Gd3383 2.468 . S
O3423 C3447 1.263 . S
O3424 Gd3383 2.427 1_556 S
O3424 C3447 1.252 1_556 S
O3425 Gd3382 2.305 1_455 S
O3425 C3440 1.261 1_554 S
O3426 Gd3383 2.388 1_556 S
O3426 C3440 1.252 . S
C3427 O3415 1.265 . S
C3427 O3416 1.242 . S
C3428 O3419 1.261 . S
C3428 O3420 1.252 . S
C3429 C3432 1.394 . S
C3429 C3434 1.370 . S
C3429 C3435 1.500 . S
C3430 C3433 1.383 . S
C3430 C3434 1.395 . S
C3431 C3432 1.396 . S
C3431 C3433 1.365 . S
C3431 H3448 0.929 . S
C3432 C3429 1.394 . S
C3432 C3431 1.396 . S
C3432 H3449 0.930 . S
C3433 C3430 1.383 . S
C3433 C3431 1.365 . S
C3433 H3450 0.931 . S
C3434 C3429 1.370 . S
C3434 C3430 1.395 . S
C3434 H3451 0.930 . S
C3435 Gd3382 2.816 . S
C3435 O3417 1.263 . S
C3435 O3418 1.252 . S
C3435 C3429 1.500 . S
C3436 H3398 0.930 . S
C3436 C3412 1.417 . S
C3436 C3437 1.329 . S
C3437 C3407 1.437 . S
C3437 H3408 0.929 . S
C3437 C3436 1.329 . S
H3438 C3411 0.931 . S
C3439 O3421 1.265 . S
C3439 O3422 1.242 . S
C3440 O3425 1.261 1_556 S
C3440 O3426 1.252 . S
C3441 C3444 1.394 . S
C3441 C3446 1.370 1_556 S
C3441 C3447 1.500 1_556 S
C3442 C3445 1.383 1_554 S
C3442 C3446 1.395 . S
C3443 C3444 1.396 . S
C3443 C3445 1.365 . S
C3443 H3452 0.929 . S
C3444 C3441 1.394 . S
C3444 C3443 1.396 . S
C3444 H3453 0.930 . S
C3445 C3442 1.383 1_556 S
C3445 C3443 1.365 . S
C3445 H3454 0.931 . S
C3446 C3441 1.370 1_554 S
C3446 C3442 1.395 . S
C3446 H3455 0.930 . S
C3447 Gd3383 2.805 . S
C3447 O3423 1.263 . S
C3447 O3424 1.252 1_554 S
C3447 C3441 1.500 1_554 S
H3448 C3431 0.929 . S
H3449 C3432 0.930 . S
H3450 C3433 0.931 . S
H3451 C3434 0.930 . S
H3452 C3443 0.929 . S
H3453 C3444 0.930 . S
H3454 C3445 0.931 . S
H3455 C3446 0.930 . S
C3456 C3457 1.369 1_556 S
C3456 H3460 0.971 . S
C3456 C3465 1.386 1_556 S
C3457 C3456 1.369 1_554 S
C3457 C3459 1.387 . S
H3458 C3465 0.935 1_556 S
C3459 C3457 1.387 . S
C3459 C3461 1.390 . S
C3459 H3463 0.950 . S
H3460 C3456 0.971 . S
C3461 C3459 1.390 . S
C3461 C3462 1.387 . S
C3461 H3464 0.950 . S
C3462 C3461 1.387 . S
C3462 C3465 1.405 . S
H3463 C3459 0.950 . S
H3464 C3461 0.950 . S
C3465 C3456 1.386 1_554 S
C3465 H3458 0.935 1_554 S
C3465 C3462 1.405 . S
C3466 C3467 1.387 . S
C3466 H3470 0.950 . S
C3466 C3475 1.390 . S
C3467 C3466 1.387 . S
C3467 C3469 1.387 . S
H3468 C3475 0.950 . S
C3469 C3467 1.387 . S
C3469 C3471 1.390 . S
C3469 H3473 0.950 . S
H3470 C3466 0.950 . S
C3471 C3469 1.390 . S
C3471 C3472 1.387 . S
C3471 H3474 0.950 . S
C3472 C3471 1.387 . S
C3472 C3475 1.387 . S
H3473 C3469 0.950 . S
H3474 C3471 0.950 . S
C3475 C3466 1.390 . S
C3475 H3468 0.950 . S
C3475 C3472 1.387 . S
C3476 C3477 1.387 . S
C3476 H3480 0.950 . S
C3476 C3485 1.390 . S
C3477 C3476 1.387 . S
C3477 C3479 1.387 . S
H3478 C3485 0.950 . S
C3479 C3477 1.387 . S
C3479 C3481 1.390 . S
C3479 H3483 0.950 . S
H3480 C3476 0.950 . S
C3481 C3479 1.390 . S
C3481 C3482 1.387 . S
C3481 H3484 0.950 . S
C3482 C3481 1.387 . S
C3482 C3485 1.387 . S
H3483 C3479 0.950 . S
H3484 C3481 0.950 . S
C3485 C3476 1.390 . S
C3485 H3478 0.950 . S
C3485 C3482 1.387 . S
C3486 C3487 1.387 . S
C3486 H3490 0.950 . S
C3486 C3495 1.390 . S
C3487 C3486 1.387 . S
C3487 C3489 1.387 . S
H3488 C3495 0.950 . S
C3489 C3487 1.387 . S
C3489 C3491 1.390 . S
C3489 H3493 0.950 . S
H3490 C3486 0.950 . S
C3491 C3489 1.390 . S
C3491 C3492 1.387 . S
C3491 H3494 0.950 . S
C3492 C3491 1.387 . S
C3492 C3495 1.387 . S
H3493 C3489 0.950 . S
H3494 C3491 0.950 . S
C3495 C3486 1.390 . S
C3495 H3488 0.950 . S
C3495 C3492 1.387 . S
C3496 C3497 1.387 . S
C3496 H3500 0.950 1_455 S
C3496 C3505 1.390 . S
C3497 C3496 1.387 . S
C3497 C3499 1.387 . S
H3498 C3505 0.950 1_655 S
C3499 C3497 1.387 . S
C3499 C3501 1.390 . S
C3499 H3503 0.950 . S
H3500 C3496 0.950 1_655 S
C3501 C3499 1.390 . S
C3501 C3502 1.387 . S
C3501 H3504 0.950 . S
C3502 C3501 1.387 . S
C3502 C3505 1.387 . S
H3503 C3499 0.950 . S
H3504 C3501 0.950 . S
C3505 C3496 1.390 . S
C3505 H3498 0.950 1_455 S
C3505 C3502 1.387 . S
C3506 C3507 1.387 . S
C3506 H3510 0.950 . S
C3506 C3515 1.390 . S
C3507 C3506 1.387 . S
C3507 C3509 1.387 . S
H3508 C3515 0.950 . S
C3509 C3507 1.387 . S
C3509 C3511 1.390 . S
C3509 H3513 0.950 . S
H3510 C3506 0.950 . S
C3511 C3509 1.390 . S
C3511 C3512 1.387 . S
C3511 H3514 0.950 . S
C3512 C3511 1.387 . S
C3512 C3515 1.387 . S
H3513 C3509 0.950 . S
H3514 C3511 0.950 . S
C3515 C3506 1.390 . S
C3515 H3508 0.950 . S
C3515 C3512 1.387 . S
C3516 C3517 1.387 . S
C3516 H3520 0.950 . S
C3516 C3525 1.390 . S
C3517 C3516 1.387 . S
C3517 C3519 1.387 . S
H3518 C3525 0.950 . S
C3519 C3517 1.387 . S
C3519 C3521 1.390 . S
C3519 H3523 0.950 . S
H3520 C3516 0.950 . S
C3521 C3519 1.390 . S
C3521 C3522 1.387 . S
C3521 H3524 0.950 . S
C3522 C3521 1.387 . S
C3522 C3525 1.387 . S
H3523 C3519 0.950 . S
H3524 C3521 0.950 . S
C3525 C3516 1.390 . S
C3525 H3518 0.950 . S
C3525 C3522 1.387 . S
C3526 C3527 1.387 . S
C3526 H3530 0.950 . S
C3526 C3535 1.390 . S
C3527 C3526 1.387 . S
C3527 C3529 1.387 . S
H3528 C3535 0.950 . S
C3529 C3527 1.387 . S
C3529 C3531 1.390 . S
C3529 H3533 0.950 . S
H3530 C3526 0.950 . S
C3531 C3529 1.390 . S
C3531 C3532 1.387 . S
C3531 H3534 0.950 . S
C3532 C3531 1.387 . S
C3532 C3535 1.387 . S
H3533 C3529 0.950 . S
H3534 C3531 0.950 . S
C3535 C3526 1.390 . S
C3535 H3528 0.950 . S
C3535 C3532 1.387 . S
C3536 C3537 1.387 1_455 S
C3536 H3540 0.950 1_545 S
C3536 C3545 1.390 . S
C3537 C3536 1.387 1_655 S
C3537 C3539 1.387 . S
H3538 C3545 0.950 1_565 S
C3539 C3537 1.387 . S
C3539 C3541 1.390 1_655 S
C3539 H3543 0.950 . S
H3540 C3536 0.950 1_565 S
C3541 C3539 1.390 1_455 S
C3541 C3542 1.387 . S
C3541 H3544 0.950 . S
C3542 C3541 1.387 . S
C3542 C3545 1.387 . S
H3543 C3539 0.950 . S
H3544 C3541 0.950 . S
C3545 C3536 1.390 . S
C3545 H3538 0.950 1_545 S
C3545 C3542 1.387 . S
C3546 C3547 1.387 . S
C3546 H3550 0.950 . S
C3546 C3555 1.390 . S
C3547 C3546 1.387 . S
C3547 C3549 1.387 . S
H3548 C3555 0.950 . S
C3549 C3547 1.387 . S
C3549 C3551 1.390 . S
C3549 H3553 0.950 . S
H3550 C3546 0.950 . S
C3551 C3549 1.390 . S
C3551 C3552 1.387 . S
C3551 H3554 0.950 . S
C3552 C3551 1.387 . S
C3552 C3555 1.387 . S
H3553 C3549 0.950 . S
H3554 C3551 0.950 . S
C3555 C3546 1.390 . S
C3555 H3548 0.950 . S
C3555 C3552 1.387 . S
C3556 C3557 1.387 . S
C3556 H3560 0.950 . S
C3556 C3565 1.390 . S
C3557 C3556 1.387 . S
C3557 C3559 1.387 . S
H3558 C3565 0.950 . S
C3559 C3557 1.387 . S
C3559 C3561 1.390 . S
C3559 H3563 0.950 . S
H3560 C3556 0.950 . S
C3561 C3559 1.390 . S
C3561 C3562 1.387 . S
C3561 H3564 0.950 1_545 S
C3562 C3561 1.387 . S
C3562 C3565 1.387 . S
H3563 C3559 0.950 . S
H3564 C3561 0.950 1_565 S
C3565 C3556 1.390 . S
C3565 H3558 0.950 . S
C3565 C3562 1.387 . S
C3566 C3567 1.387 . S
C3566 H3570 0.950 . S
C3566 C3575 1.390 . S
C3567 C3566 1.387 . S
C3567 C3569 1.387 . S
H3568 C3575 0.950 . S
C3569 C3567 1.387 . S
C3569 C3571 1.390 . S
C3569 H3573 0.950 . S
H3570 C3566 0.950 . S
C3571 C3569 1.390 . S
C3571 C3572 1.387 . S
C3571 H3574 0.950 . S
C3572 C3571 1.387 . S
C3572 C3575 1.387 . S
H3573 C3569 0.950 . S
H3574 C3571 0.950 . S
C3575 C3566 1.390 . S
C3575 H3568 0.950 . S
C3575 C3572 1.387 . S
C3576 C3577 1.387 . S
C3576 H3580 0.950 . S
C3576 C3585 1.390 . S
C3577 C3576 1.387 . S
C3577 C3579 1.387 1_455 S
H3578 C3585 0.950 . S
C3579 C3577 1.387 1_655 S
C3579 C3581 1.390 . S
C3579 H3583 0.950 . S
H3580 C3576 0.950 . S
C3581 C3579 1.390 . S
C3581 C3582 1.387 1_655 S
C3581 H3584 0.950 . S
C3582 C3581 1.387 1_455 S
C3582 C3585 1.387 . S
H3583 C3579 0.950 . S
H3584 C3581 0.950 . S
C3585 C3576 1.390 . S
C3585 H3578 0.950 . S
C3585 C3582 1.387 . S
C3586 C3587 1.387 . S
C3586 H3590 0.950 . S
C3586 C3595 1.390 . S
C3587 C3586 1.387 . S
C3587 C3589 1.387 . S
H3588 C3595 0.950 . S
C3589 C3587 1.387 . S
C3589 C3591 1.390 . S
C3589 H3593 0.950 . S
H3590 C3586 0.950 . S
C3591 C3589 1.390 . S
C3591 C3592 1.387 . S
C3591 H3594 0.950 . S
C3592 C3591 1.387 . S
C3592 C3595 1.387 . S
H3593 C3589 0.950 . S
H3594 C3591 0.950 . S
C3595 C3586 1.390 . S
C3595 H3588 0.950 . S
C3595 C3592 1.387 . S
C3596 C3597 1.387 . S
C3596 H3600 0.950 . S
C3596 C3605 1.390 . S
C3597 C3596 1.387 . S
C3597 C3599 1.387 . S
H3598 C3605 0.950 . S
C3599 C3597 1.387 . S
C3599 C3601 1.390 . S
C3599 H3603 0.950 . S
H3600 C3596 0.950 . S
C3601 C3599 1.390 . S
C3601 C3602 1.387 . S
C3601 H3604 0.950 . S
C3602 C3601 1.387 . S
C3602 C3605 1.387 . S
H3603 C3599 0.950 . S
H3604 C3601 0.950 . S
C3605 C3596 1.390 . S
C3605 H3598 0.950 . S
C3605 C3602 1.387 . S
C3606 C3607 1.387 . S
C3606 H3610 0.950 . S
C3606 C3615 1.390 . S
C3607 C3606 1.387 . S
C3607 C3609 1.387 . S
H3608 C3615 0.950 . S
C3609 C3607 1.387 . S
C3609 C3611 1.390 . S
C3609 H3613 0.950 . S
H3610 C3606 0.950 . S
C3611 C3609 1.390 . S
C3611 C3612 1.387 . S
C3611 H3614 0.950 . S
C3612 C3611 1.387 . S
C3612 C3615 1.387 . S
H3613 C3609 0.950 . S
H3614 C3611 0.950 . S
C3615 C3606 1.390 . S
C3615 H3608 0.950 . S
C3615 C3612 1.387 . S
C3616 C3617 1.387 . S
C3616 H3620 0.950 1_554 S
C3616 C3625 1.390 . S
C3617 C3616 1.387 . S
C3617 C3619 1.387 1_565 S
H3618 C3625 0.950 . S
C3619 C3617 1.387 1_545 S
C3619 C3621 1.390 . S
C3619 H3623 0.950 . S
H3620 C3616 0.950 1_556 S
C3621 C3619 1.390 . S
C3621 C3622 1.387 1_545 S
C3621 H3624 0.950 . S
C3622 C3621 1.387 1_565 S
C3622 C3625 1.387 . S
H3623 C3619 0.950 . S
H3624 C3621 0.950 . S
C3625 C3616 1.390 . S
C3625 H3618 0.950 . S
C3625 C3622 1.387 . S
C3626 C3627 1.387 . S
C3626 H3630 0.950 . S
C3626 C3635 1.390 . S
C3627 C3626 1.387 . S
C3627 C3629 1.387 1_554 S
H3628 C3635 0.950 . S
C3629 C3627 1.387 1_556 S
C3629 C3631 1.390 1_556 S
C3629 H3633 0.950 . S
H3630 C3626 0.950 . S
C3631 C3629 1.390 1_554 S
C3631 C3632 1.387 . S
C3631 H3634 0.950 1_554 S
C3632 C3631 1.387 . S
C3632 C3635 1.387 . S
H3633 C3629 0.950 . S
H3634 C3631 0.950 1_556 S
C3635 C3626 1.390 . S
C3635 H3628 0.950 . S
C3635 C3632 1.387 . S
C3636 C3637 1.387 . S
C3636 H3640 0.950 . S
C3636 C3645 1.390 . S
C3637 C3636 1.387 . S
C3637 C3639 1.387 . S
H3638 C3645 0.950 . S
C3639 C3637 1.387 . S
C3639 C3641 1.390 . S
C3639 H3643 0.950 . S
H3640 C3636 0.950 . S
C3641 C3639 1.390 . S
C3641 C3642 1.387 . S
C3641 H3644 0.950 . S
C3642 C3641 1.387 . S
C3642 C3645 1.387 . S
H3643 C3639 0.950 . S
H3644 C3641 0.950 . S
C3645 C3636 1.390 . S
C3645 H3638 0.950 . S
C3645 C3642 1.387 . S
C3646 C3647 1.387 . S
C3646 H3650 0.950 . S
C3646 C3655 1.390 . S
C3647 C3646 1.387 . S
C3647 C3649 1.387 . S
H3648 C3655 0.950 . S
C3649 C3647 1.387 . S
C3649 C3651 1.390 . S
C3649 H3653 0.950 . S
H3650 C3646 0.950 . S
C3651 C3649 1.390 . S
C3651 C3652 1.387 . S
C3651 H3654 0.950 . S
C3652 C3651 1.387 . S
C3652 C3655 1.387 . S
H3653 C3649 0.950 . S
H3654 C3651 0.950 . S
C3655 C3646 1.390 . S
C3655 H3648 0.950 . S
C3655 C3652 1.387 . S
C3656 C3657 1.387 . S
C3656 H3660 0.950 . S
C3656 C3665 1.390 . S
C3657 C3656 1.387 . S
C3657 C3659 1.387 . S
H3658 C3665 0.950 . S
C3659 C3657 1.387 . S
C3659 C3661 1.390 . S
C3659 H3663 0.950 . S
H3660 C3656 0.950 . S
C3661 C3659 1.390 . S
C3661 C3662 1.387 . S
C3661 H3664 0.950 . S
C3662 C3661 1.387 . S
C3662 C3665 1.387 . S
H3663 C3659 0.950 . S
H3664 C3661 0.950 . S
C3665 C3656 1.390 . S
C3665 H3658 0.950 . S
C3665 C3662 1.387 . S
C3666 C3667 1.387 . S
C3666 H3670 0.950 . S
C3666 C3675 1.390 . S
C3667 C3666 1.387 . S
C3667 C3669 1.387 . S
H3668 C3675 0.950 . S
C3669 C3667 1.387 . S
C3669 C3671 1.390 . S
C3669 H3673 0.950 . S
H3670 C3666 0.950 . S
C3671 C3669 1.390 . S
C3671 C3672 1.387 . S
C3671 H3674 0.950 . S
C3672 C3671 1.387 . S
C3672 C3675 1.387 . S
H3673 C3669 0.950 . S
H3674 C3671 0.950 . S
C3675 C3666 1.390 . S
C3675 H3668 0.950 . S
C3675 C3672 1.387 . S
C3676 C3677 1.387 . S
C3676 H3680 0.950 . S
C3676 C3685 1.390 . S
C3677 C3676 1.387 . S
C3677 C3679 1.387 . S
H3678 C3685 0.950 . S
C3679 C3677 1.387 . S
C3679 C3681 1.390 . S
C3679 H3683 0.950 . S
H3680 C3676 0.950 . S
C3681 C3679 1.390 . S
C3681 C3682 1.387 . S
C3681 H3684 0.950 . S
C3682 C3681 1.387 . S
C3682 C3685 1.387 . S
H3683 C3679 0.950 . S
H3684 C3681 0.950 . S
C3685 C3676 1.390 . S
C3685 H3678 0.950 . S
C3685 C3682 1.387 . S
C3686 C3687 1.387 . S
C3686 H3690 0.950 . S
C3686 C3695 1.390 . S
C3687 C3686 1.387 . S
C3687 C3689 1.387 . S
H3688 C3695 0.950 . S
C3689 C3687 1.387 . S
C3689 C3691 1.390 . S
C3689 H3693 0.950 . S
H3690 C3686 0.950 . S
C3691 C3689 1.390 . S
C3691 C3692 1.387 . S
C3691 H3694 0.950 . S
C3692 C3691 1.387 . S
C3692 C3695 1.387 . S
H3693 C3689 0.950 . S
H3694 C3691 0.950 . S
C3695 C3686 1.390 . S
C3695 H3688 0.950 . S
C3695 C3692 1.387 . S
C3696 C3697 1.387 . S
C3696 H3700 0.950 . S
C3696 C3705 1.390 . S
C3697 C3696 1.387 . S
C3697 C3699 1.387 . S
H3698 C3705 0.950 . S
C3699 C3697 1.387 . S
C3699 C3701 1.390 . S
C3699 H3703 0.987 . S
H3700 C3696 0.950 . S
C3701 C3699 1.390 . S
C3701 C3702 1.387 . S
C3701 H3704 0.919 1_554 S
C3702 C3701 1.387 . S
C3702 C3705 1.387 . S
H3703 C3699 0.987 . S
H3704 C3701 0.919 1_556 S
C3705 C3696 1.390 . S
C3705 H3698 0.950 . S
C3705 C3702 1.387 . S
C3706 C3707 1.387 . S
C3706 H3710 0.950 . S
C3706 C3715 1.390 . S
C3707 C3706 1.387 . S
C3707 C3709 1.387 . S
H3708 C3715 0.950 . S
C3709 C3707 1.387 . S
C3709 C3711 1.390 . S
C3709 H3713 0.950 . S
H3710 C3706 0.950 . S
C3711 C3709 1.390 . S
C3711 C3712 1.387 . S
C3711 H3714 0.950 . S
C3712 C3711 1.387 . S
C3712 C3715 1.387 . S
H3713 C3709 0.950 . S
H3714 C3711 0.950 . S
C3715 C3706 1.390 . S
C3715 H3708 0.950 . S
C3715 C3712 1.387 . S
C3716 C3717 1.387 . S
C3716 H3720 0.950 . S
C3716 C3725 1.390 . S
C3717 C3716 1.387 . S
C3717 C3719 1.387 . S
H3718 C3725 0.950 . S
C3719 C3717 1.387 . S
C3719 C3721 1.390 . S
C3719 H3723 0.950 . S
H3720 C3716 0.950 . S
C3721 C3719 1.390 . S
C3721 C3722 1.387 . S
C3721 H3724 0.950 . S
C3722 C3721 1.387 . S
C3722 C3725 1.387 . S
H3723 C3719 0.950 . S
H3724 C3721 0.950 . S
C3725 C3716 1.390 . S
C3725 H3718 0.950 . S
C3725 C3722 1.387 . S
C3726 C3727 1.387 . S
C3726 H3730 0.950 . S
C3726 C3735 1.390 . S
C3727 C3726 1.387 . S
C3727 C3729 1.387 . S
H3728 C3735 0.950 . S
C3729 C3727 1.387 . S
C3729 C3731 1.390 . S
C3729 H3733 0.950 . S
H3730 C3726 0.950 . S
C3731 C3729 1.390 . S
C3731 C3732 1.387 . S
C3731 H3734 0.950 . S
C3732 C3731 1.387 . S
C3732 C3735 1.387 . S
H3733 C3729 0.950 . S
H3734 C3731 0.950 . S
C3735 C3726 1.390 . S
C3735 H3728 0.950 . S
C3735 C3732 1.387 . S
C3736 C3737 1.387 . S
C3736 H3740 0.950 . S
C3736 C3745 1.390 . S
C3737 C3736 1.387 . S
C3737 C3739 1.387 . S
H3738 C3745 0.950 . S
C3739 C3737 1.387 . S
C3739 C3741 1.390 . S
C3739 H3743 0.950 1_455 S
H3740 C3736 0.950 . S
C3741 C3739 1.390 . S
C3741 C3742 1.387 . S
C3741 H3744 0.950 1_455 S
C3742 C3741 1.387 . S
C3742 C3745 1.387 . S
H3743 C3739 0.950 1_655 S
H3744 C3741 0.950 1_655 S
C3745 C3736 1.390 . S
C3745 H3738 0.950 . S
C3745 C3742 1.387 . S
C3746 C3747 1.387 . S
C3746 H3750 0.950 . S
C3746 C3755 1.390 . S
C3747 C3746 1.387 . S
C3747 C3749 1.387 . S
H3748 C3755 0.950 . S
C3749 C3747 1.387 . S
C3749 C3751 1.390 . S
C3749 H3753 0.950 . S
H3750 C3746 0.950 . S
C3751 C3749 1.390 . S
C3751 C3752 1.387 . S
C3751 H3754 0.950 . S
C3752 C3751 1.387 . S
C3752 C3755 1.387 . S
H3753 C3749 0.950 . S
H3754 C3751 0.950 . S
C3755 C3746 1.390 . S
C3755 H3748 0.950 . S
C3755 C3752 1.387 . S
C3756 C3757 1.387 . S
C3756 H3760 0.950 . S
C3756 C3765 1.390 . S
C3757 C3756 1.387 . S
C3757 C3759 1.387 . S
H3758 C3765 0.950 . S
C3759 C3757 1.387 . S
C3759 C3761 1.390 . S
C3759 H3763 0.950 . S
H3760 C3756 0.950 . S
C3761 C3759 1.390 . S
C3761 C3762 1.387 . S
C3761 H3764 0.950 1_556 S
C3762 C3761 1.387 . S
C3762 C3765 1.387 . S
H3763 C3759 0.950 . S
H3764 C3761 0.950 1_554 S
C3765 C3756 1.390 . S
C3765 H3758 0.950 . S
C3765 C3762 1.387 . S
C3766 C3767 1.387 . S
C3766 H3770 0.950 . S
C3766 C3775 1.390 . S
C3767 C3766 1.387 . S
C3767 C3769 1.387 . S
H3768 C3775 0.950 . S
C3769 C3767 1.387 . S
C3769 C3771 1.390 . S
C3769 H3773 0.950 . S
H3770 C3766 0.950 . S
C3771 C3769 1.390 . S
C3771 C3772 1.387 . S
C3771 H3774 0.950 . S
C3772 C3771 1.387 . S
C3772 C3775 1.387 . S
H3773 C3769 0.950 . S
H3774 C3771 0.950 . S
C3775 C3766 1.390 . S
C3775 H3768 0.950 . S
C3775 C3772 1.387 . S
C3776 C3777 1.387 . S
C3776 H3780 0.950 . S
C3776 C3785 1.390 . S
C3777 C3776 1.387 . S
C3777 C3779 1.387 . S
H3778 C3785 0.961 . S
C3779 C3777 1.387 . S
C3779 C3781 1.390 . S
C3779 H3783 0.950 . S
H3780 C3776 0.950 . S
C3781 C3779 1.390 . S
C3781 C3782 1.387 . S
C3781 H3784 0.950 . S
C3782 C3781 1.387 . S
C3782 C3785 1.387 . S
H3783 C3779 0.950 . S
H3784 C3781 0.950 . S
C3785 C3776 1.390 . S
C3785 H3778 0.961 . S
C3785 C3782 1.387 . S
C3786 C3787 1.387 . S
C3786 H3790 0.950 . S
C3786 C3795 1.390 . S
C3787 C3786 1.387 . S
C3787 C3789 1.387 . S
H3788 C3795 0.950 . S
C3789 C3787 1.387 . S
C3789 C3791 1.390 . S
C3789 H3793 0.950 . S
H3790 C3786 0.950 . S
C3791 C3789 1.390 . S
C3791 C3792 1.387 . S
C3791 H3794 0.950 . S
C3792 C3791 1.387 . S
C3792 C3795 1.387 . S
H3793 C3789 0.950 . S
H3794 C3791 0.950 . S
C3795 C3786 1.390 . S
C3795 H3788 0.950 . S
C3795 C3792 1.387 . S
C3796 C3797 1.387 . S
C3796 H3800 0.950 . S
C3796 C3805 1.390 . S
C3797 C3796 1.387 . S
C3797 C3799 1.387 . S
H3798 C3805 0.950 . S
C3799 C3797 1.387 . S
C3799 C3801 1.390 . S
C3799 H3803 0.950 1_545 S
H3800 C3796 0.950 . S
C3801 C3799 1.390 . S
C3801 C3802 1.387 . S
C3801 H3804 0.950 1_545 S
C3802 C3801 1.387 . S
C3802 C3805 1.387 . S
H3803 C3799 0.950 1_565 S
H3804 C3801 0.950 1_565 S
C3805 C3796 1.390 . S
C3805 H3798 0.950 . S
C3805 C3802 1.387 . S
C3806 C3807 1.387 . S
C3806 H3810 0.950 . S
C3806 C3815 1.390 . S
C3807 C3806 1.387 . S
C3807 C3809 1.387 . S
H3808 C3815 0.950 . S
C3809 C3807 1.387 . S
C3809 C3811 1.390 . S
C3809 H3813 0.950 . S
H3810 C3806 0.950 . S
C3811 C3809 1.390 . S
C3811 C3812 1.387 . S
C3811 H3814 0.950 . S
C3812 C3811 1.387 . S
C3812 C3815 1.387 . S
H3813 C3809 0.950 . S
H3814 C3811 0.950 . S
C3815 C3806 1.390 . S
C3815 H3808 0.950 . S
C3815 C3812 1.387 . S
C3816 C3817 1.387 . S
C3816 H3820 0.950 . S
C3816 C3825 1.390 . S
C3817 C3816 1.387 . S
C3817 C3819 1.387 . S
H3818 C3825 0.950 . S
C3819 C3817 1.387 . S
C3819 C3821 1.390 . S
C3819 H3823 0.950 1_545 S
H3820 C3816 0.950 . S
C3821 C3819 1.390 . S
C3821 C3822 1.387 . S
C3821 H3824 0.950 1_545 S
C3822 C3821 1.387 . S
C3822 C3825 1.387 . S
H3823 C3819 0.950 1_565 S
H3824 C3821 0.950 1_565 S
C3825 C3816 1.390 . S
C3825 H3818 0.950 . S
C3825 C3822 1.387 . S
C3826 C3827 1.387 . S
C3826 H3830 0.950 . S
C3826 C3835 1.390 . S
C3827 C3826 1.387 . S
C3827 C3829 1.387 . S
H3828 C3835 0.950 . S
C3829 C3827 1.387 . S
C3829 C3831 1.390 . S
C3829 H3833 0.950 . S
H3830 C3826 0.950 . S
C3831 C3829 1.390 . S
C3831 C3832 1.387 . S
C3831 H3834 0.950 . S
C3832 C3831 1.387 . S
C3832 C3835 1.387 . S
H3833 C3829 0.950 . S
H3834 C3831 0.950 . S
C3835 C3826 1.390 . S
C3835 H3828 0.950 . S
C3835 C3832 1.387 . S
C3836 C3837 1.387 . S
C3836 H3840 0.950 . S
C3836 C3845 1.390 . S
C3837 C3836 1.387 . S
C3837 C3839 1.387 1_545 S
H3838 C3845 0.950 . S
C3839 C3837 1.387 1_565 S
C3839 C3841 1.390 . S
C3839 H3843 0.950 . S
H3840 C3836 0.950 . S
C3841 C3839 1.390 . S
C3841 C3842 1.387 1_565 S
C3841 H3844 0.950 . S
C3842 C3841 1.387 1_545 S
C3842 C3845 1.387 . S
H3843 C3839 0.950 . S
H3844 C3841 0.950 . S
C3845 C3836 1.390 . S
C3845 H3838 0.950 . S
C3845 C3842 1.387 . S
C3846 C3847 1.387 . S
C3846 H3850 0.950 . S
C3846 C3855 1.390 . S
C3847 C3846 1.387 . S
C3847 C3849 1.387 . S
H3848 C3855 0.950 . S
C3849 C3847 1.387 . S
C3849 C3851 1.390 . S
C3849 H3853 0.950 . S
H3850 C3846 0.950 . S
C3851 C3849 1.390 . S
C3851 C3852 1.387 . S
C3851 H3854 0.950 . S
C3852 C3851 1.387 . S
C3852 C3855 1.387 . S
H3853 C3849 0.950 . S
H3854 C3851 0.950 . S
C3855 C3846 1.390 . S
C3855 H3848 0.950 . S
C3855 C3852 1.387 . S
C3856 C3857 1.387 . S
C3856 H3860 0.950 . S
C3856 C3865 1.390 . S
C3857 C3856 1.387 . S
C3857 C3859 1.387 . S
H3858 C3865 0.989 . S
C3859 C3857 1.387 . S
C3859 C3861 1.390 . S
C3859 H3863 0.950 . S
H3860 C3856 0.950 . S
C3861 C3859 1.390 . S
C3861 C3862 1.387 . S
C3861 H3864 0.950 . S
C3862 C3861 1.387 . S
C3862 C3865 1.387 . S
H3863 C3859 0.950 . S
H3864 C3861 0.950 . S
C3865 C3856 1.390 . S
C3865 H3858 0.989 . S
C3865 C3862 1.387 . S
C3866 C3867 1.387 . S
C3866 H3870 0.950 . S
C3866 C3875 1.390 . S
C3867 C3866 1.387 . S
C3867 C3869 1.387 . S
H3868 C3875 0.950 . S
C3869 C3867 1.387 . S
C3869 C3871 1.390 . S
C3869 H3873 0.950 . S
H3870 C3866 0.950 . S
C3871 C3869 1.390 . S
C3871 C3872 1.387 . S
C3871 H3874 0.950 . S
C3872 C3871 1.387 . S
C3872 C3875 1.387 . S
H3873 C3869 0.950 . S
H3874 C3871 0.950 . S
C3875 C3866 1.390 . S
C3875 H3868 0.950 . S
C3875 C3872 1.387 . S
C3876 C3877 1.387 . S
C3876 H3880 0.950 . S
C3876 C3885 1.390 . S
C3877 C3876 1.387 . S
C3877 C3879 1.387 . S
H3878 C3885 0.950 . S
C3879 C3877 1.387 . S
C3879 C3881 1.390 . S
C3879 H3883 0.950 . S
H3880 C3876 0.950 . S
C3881 C3879 1.390 . S
C3881 C3882 1.387 . S
C3881 H3884 0.950 . S
C3882 C3881 1.387 . S
C3882 C3885 1.387 . S
H3883 C3879 0.950 . S
H3884 C3881 0.950 . S
C3885 C3876 1.390 . S
C3885 H3878 0.950 . S
C3885 C3882 1.387 . S
C3886 C3887 1.387 . S
C3886 H3890 0.950 . S
C3886 C3895 1.390 . S
C3887 C3886 1.387 . S
C3887 C3889 1.387 . S
H3888 C3895 0.950 . S
C3889 C3887 1.387 . S
C3889 C3891 1.390 . S
C3889 H3893 0.950 . S
H3890 C3886 0.950 . S
C3891 C3889 1.390 . S
C3891 C3892 1.387 . S
C3891 H3894 0.950 . S
C3892 C3891 1.387 . S
C3892 C3895 1.387 . S
H3893 C3889 0.950 . S
H3894 C3891 0.950 . S
C3895 C3886 1.390 . S
C3895 H3888 0.950 . S
C3895 C3892 1.387 . S
C3896 C3897 1.387 . S
C3896 H3900 0.950 . S
C3896 C3905 1.390 . S
C3897 C3896 1.387 . S
C3897 C3899 1.387 . S
H3898 C3905 0.950 . S
C3899 C3897 1.387 . S
C3899 C3901 1.390 . S
C3899 H3903 0.950 . S
H3900 C3896 0.950 . S
C3901 C3899 1.390 . S
C3901 C3902 1.387 . S
C3901 H3904 0.950 . S
C3902 C3901 1.387 . S
C3902 C3905 1.387 . S
H3903 C3899 0.950 . S
H3904 C3901 0.950 . S
C3905 C3896 1.390 . S
C3905 H3898 0.950 . S
C3905 C3902 1.387 . S
C3906 C3907 1.387 . S
C3906 H3910 0.950 . S
C3906 C3915 1.390 . S
C3907 C3906 1.387 . S
C3907 C3909 1.387 . S
H3908 C3915 0.950 . S
C3909 C3907 1.387 . S
C3909 C3911 1.390 . S
C3909 H3913 0.950 . S
H3910 C3906 0.950 . S
C3911 C3909 1.390 . S
C3911 C3912 1.387 . S
C3911 H3914 0.950 . S
C3912 C3911 1.387 . S
C3912 C3915 1.387 . S
H3913 C3909 0.950 . S
H3914 C3911 0.950 . S
C3915 C3906 1.390 . S
C3915 H3908 0.950 . S
C3915 C3912 1.387 . S
C3916 C3917 1.387 . S
C3916 H3920 0.950 . S
C3916 C3925 1.390 . S
C3917 C3916 1.387 . S
C3917 C3919 1.387 . S
H3918 C3925 0.950 . S
C3919 C3917 1.387 . S
C3919 C3921 1.390 . S
C3919 H3923 0.950 . S
H3920 C3916 0.950 . S
C3921 C3919 1.390 . S
C3921 C3922 1.387 . S
C3921 H3924 0.950 . S
C3922 C3921 1.387 . S
C3922 C3925 1.387 . S
H3923 C3919 0.950 . S
H3924 C3921 0.950 . S
C3925 C3916 1.390 . S
C3925 H3918 0.950 . S
C3925 C3922 1.387 . S
C3926 C3927 1.387 . S
C3926 H3930 0.950 . S
C3926 C3935 1.390 . S
C3927 C3926 1.387 . S
C3927 C3929 1.387 . S
H3928 C3935 0.950 . S
C3929 C3927 1.387 . S
C3929 C3931 1.390 . S
C3929 H3933 0.950 . S
H3930 C3926 0.950 . S
C3931 C3929 1.390 . S
C3931 C3932 1.387 . S
C3931 H3934 0.950 . S
C3932 C3931 1.387 . S
C3932 C3935 1.387 . S
H3933 C3929 0.950 . S
H3934 C3931 0.950 . S
C3935 C3926 1.390 . S
C3935 H3928 0.950 . S
C3935 C3932 1.387 . S
C3936 C3937 1.387 . S
C3936 H3940 0.950 . S
C3936 C3945 1.390 . S
C3937 C3936 1.387 . S
C3937 C3939 1.387 . S
H3938 C3945 0.950 . S
C3939 C3937 1.387 . S
C3939 C3941 1.390 . S
C3939 H3943 0.950 . S
H3940 C3936 0.950 . S
C3941 C3939 1.390 . S
C3941 C3942 1.387 . S
C3941 H3944 0.950 . S
C3942 C3941 1.387 . S
C3942 C3945 1.387 . S
H3943 C3939 0.950 . S
H3944 C3941 0.950 . S
C3945 C3936 1.390 . S
C3945 H3938 0.950 . S
C3945 C3942 1.387 . S
C3946 C3947 1.387 . S
C3946 H3950 0.950 . S
C3946 C3955 1.390 . S
C3947 C3946 1.387 . S
C3947 C3949 1.387 . S
H3948 C3955 0.950 . S
C3949 C3947 1.387 . S
C3949 C3951 1.390 . S
C3949 H3953 0.950 . S
H3950 C3946 0.950 . S
C3951 C3949 1.390 . S
C3951 C3952 1.387 . S
C3951 H3954 0.950 . S
C3952 C3951 1.387 . S
C3952 C3955 1.387 . S
H3953 C3949 0.950 . S
H3954 C3951 0.950 . S
C3955 C3946 1.390 . S
C3955 H3948 0.950 . S
C3955 C3952 1.387 . S
C3956 C3957 1.421 . S
C3956 H3960 0.924 1_455 S
C3956 C3965 1.384 . S
C3957 C3956 1.421 . S
C3957 C3959 1.387 . S
H3958 C3965 0.950 1_655 S
C3959 C3957 1.387 . S
C3959 C3961 1.390 . S
C3959 H3963 0.950 . S
H3960 C3956 0.924 1_655 S
C3961 C3959 1.390 . S
C3961 C3962 1.387 . S
C3961 H3964 0.950 . S
C3962 C3961 1.387 . S
C3962 C3965 1.387 . S
H3963 C3959 0.950 . S
H3964 C3961 0.950 . S
C3965 C3956 1.384 . S
C3965 H3958 0.950 1_455 S
C3965 C3962 1.387 . S
C3966 C3967 1.387 . S
C3966 H3970 0.950 . S
C3966 C3975 1.390 . S
C3967 C3966 1.387 . S
C3967 C3969 1.387 . S
H3968 C3975 0.950 . S
C3969 C3967 1.387 . S
C3969 C3971 1.390 . S
C3969 H3973 0.950 . S
H3970 C3966 0.950 . S
C3971 C3969 1.390 . S
C3971 C3972 1.387 . S
C3971 H3974 0.950 . S
C3972 C3971 1.387 . S
C3972 C3975 1.387 . S
H3973 C3969 0.950 . S
H3974 C3971 0.950 . S
C3975 C3966 1.390 . S
C3975 H3968 0.950 . S
C3975 C3972 1.387 . S
C3976 C3977 1.387 . S
C3976 H3980 0.950 . S
C3976 C3985 1.390 . S
C3977 C3976 1.387 . S
C3977 C3979 1.387 . S
H3978 C3985 0.950 . S
C3979 C3977 1.387 . S
C3979 C3981 1.390 . S
C3979 H3983 0.950 . S
H3980 C3976 0.950 . S
C3981 C3979 1.390 . S
C3981 C3982 1.387 . S
C3981 H3984 0.950 . S
C3982 C3981 1.387 . S
C3982 C3985 1.387 . S
H3983 C3979 0.950 . S
H3984 C3981 0.950 . S
C3985 C3976 1.390 . S
C3985 H3978 0.950 . S
C3985 C3982 1.387 . S
C3986 C3987 1.387 . S
C3986 H3990 0.950 . S
C3986 C3995 1.390 . S
C3987 C3986 1.387 . S
C3987 C3989 1.387 . S
H3988 C3995 0.950 . S
C3989 C3987 1.387 . S
C3989 C3991 1.390 . S
C3989 H3993 0.950 . S
H3990 C3986 0.950 . S
C3991 C3989 1.390 . S
C3991 C3992 1.387 . S
C3991 H3994 0.950 . S
C3992 C3991 1.387 . S
C3992 C3995 1.387 . S
H3993 C3989 0.950 . S
H3994 C3991 0.950 . S
C3995 C3986 1.390 . S
C3995 H3988 0.950 . S
C3995 C3992 1.387 . S
C3996 C3997 1.387 . S
C3996 H4000 0.950 . S
C3996 C4005 1.390 . S
C3997 C3996 1.387 . S
C3997 C3999 1.387 . S
H3998 C4005 0.950 . S
C3999 C3997 1.387 . S
C3999 C4001 1.390 . S
C3999 H4003 0.950 . S
H4000 C3996 0.950 . S
C4001 C3999 1.390 . S
C4001 C4002 1.387 . S
C4001 H4004 0.950 . S
C4002 C4001 1.387 . S
C4002 C4005 1.387 . S
H4003 C3999 0.950 . S
H4004 C4001 0.950 . S
C4005 C3996 1.390 . S
C4005 H3998 0.950 . S
C4005 C4002 1.387 . S
C4006 C4007 1.387 . S
C4006 H4010 0.950 . S
C4006 C4015 1.390 . S
C4007 C4006 1.387 . S
C4007 C4009 1.387 . S
H4008 C4015 0.950 . S
C4009 C4007 1.387 . S
C4009 C4011 1.390 . S
C4009 H4013 0.950 . S
H4010 C4006 0.950 . S
C4011 C4009 1.390 . S
C4011 C4012 1.387 . S
C4011 H4014 0.950 . S
C4012 C4011 1.387 . S
C4012 C4015 1.387 . S
H4013 C4009 0.950 . S
H4014 C4011 0.950 . S
C4015 C4006 1.390 . S
C4015 H4008 0.950 . S
C4015 C4012 1.387 . S
C4016 C4017 1.387 . S
C4016 H4020 0.950 . S
C4016 C4025 1.390 . S
C4017 C4016 1.387 . S
C4017 C4019 1.387 . S
H4018 C4025 0.950 . S
C4019 C4017 1.387 . S
C4019 C4021 1.390 . S
C4019 H4023 0.950 . S
H4020 C4016 0.950 . S
C4021 C4019 1.390 . S
C4021 C4022 1.387 . S
C4021 H4024 0.950 . S
C4022 C4021 1.387 . S
C4022 C4025 1.387 . S
H4023 C4019 0.950 . S
H4024 C4021 0.950 . S
C4025 C4016 1.390 . S
C4025 H4018 0.950 . S
C4025 C4022 1.387 . S
C4026 C4027 1.387 . S
C4026 H4030 0.950 . S
C4026 C4035 1.390 . S
C4027 C4026 1.387 . S
C4027 C4029 1.387 . S
H4028 C4035 0.950 . S
C4029 C4027 1.387 . S
C4029 C4031 1.390 . S
C4029 H4033 0.950 . S
H4030 C4026 0.950 . S
C4031 C4029 1.390 . S
C4031 C4032 1.387 . S
C4031 H4034 0.950 . S
C4032 C4031 1.387 . S
C4032 C4035 1.387 . S
H4033 C4029 0.950 . S
H4034 C4031 0.950 . S
C4035 C4026 1.390 . S
C4035 H4028 0.950 . S
C4035 C4032 1.387 . S
C4036 C4037 1.387 . S
C4036 H4040 0.950 . S
C4036 C4045 1.390 . S
C4037 C4036 1.387 . S
C4037 C4039 1.387 . S
H4038 C4045 0.950 . S
C4039 C4037 1.387 . S
C4039 C4041 1.390 . S
C4039 H4043 0.950 . S
H4040 C4036 0.950 . S
C4041 C4039 1.390 . S
C4041 C4042 1.387 . S
C4041 H4044 0.950 . S
C4042 C4041 1.387 . S
C4042 C4045 1.387 . S
H4043 C4039 0.950 . S
H4044 C4041 0.950 . S
C4045 C4036 1.390 . S
C4045 H4038 0.950 . S
C4045 C4042 1.387 . S
C4046 C4047 1.387 . S
C4046 H4050 0.950 . S
C4046 C4055 1.390 . S
C4047 C4046 1.387 . S
C4047 C4049 1.387 . S
H4048 C4055 0.950 . S
C4049 C4047 1.387 . S
C4049 C4051 1.390 . S
C4049 H4053 0.950 . S
H4050 C4046 0.950 . S
C4051 C4049 1.390 . S
C4051 C4052 1.387 . S
C4051 H4054 0.950 . S
C4052 C4051 1.387 . S
C4052 C4055 1.387 . S
H4053 C4049 0.950 . S
H4054 C4051 0.950 . S
C4055 C4046 1.390 . S
C4055 H4048 0.950 . S
C4055 C4052 1.387 . S
C4056 C4057 1.387 . S
C4056 H4060 0.950 . S
C4056 C4065 1.390 . S
C4057 C4056 1.387 . S
C4057 C4059 1.387 . S
H4058 C4065 0.950 . S
C4059 C4057 1.387 . S
C4059 C4061 1.390 . S
C4059 H4063 0.950 . S
H4060 C4056 0.950 . S
C4061 C4059 1.390 . S
C4061 C4062 1.387 . S
C4061 H4064 0.950 . S
C4062 C4061 1.387 . S
C4062 C4065 1.387 . S
H4063 C4059 0.950 . S
H4064 C4061 0.950 . S
C4065 C4056 1.390 . S
C4065 H4058 0.950 . S
C4065 C4062 1.387 . S
C4066 C4067 1.387 . S
C4066 H4070 0.950 . S
C4066 C4075 1.390 . S
C4067 C4066 1.387 . S
C4067 C4069 1.387 . S
H4068 C4075 0.950 . S
C4069 C4067 1.387 . S
C4069 C4071 1.390 . S
C4069 H4073 0.950 . S
H4070 C4066 0.950 . S
C4071 C4069 1.390 . S
C4071 C4072 1.387 . S
C4071 H4074 0.950 . S
C4072 C4071 1.387 . S
C4072 C4075 1.387 . S
H4073 C4069 0.950 . S
H4074 C4071 0.950 . S
C4075 C4066 1.390 . S
C4075 H4068 0.950 . S
C4075 C4072 1.387 . S
C4076 C4077 1.387 . S
C4076 H4080 0.950 . S
C4076 C4085 1.390 . S
C4077 C4076 1.387 . S
C4077 C4079 1.387 . S
H4078 C4085 0.950 . S
C4079 C4077 1.387 . S
C4079 C4081 1.390 . S
C4079 H4083 0.950 . S
H4080 C4076 0.950 . S
C4081 C4079 1.390 . S
C4081 C4082 1.387 . S
C4081 H4084 0.950 . S
C4082 C4081 1.387 . S
C4082 C4085 1.387 . S
H4083 C4079 0.950 . S
H4084 C4081 0.950 . S
C4085 C4076 1.390 . S
C4085 H4078 0.950 . S
C4085 C4082 1.387 . S
C4086 C4087 1.387 . S
C4086 H4090 0.950 . S
C4086 C4095 1.390 . S
C4087 C4086 1.387 . S
C4087 C4089 1.387 . S
H4088 C4095 0.950 . S
C4089 C4087 1.387 . S
C4089 C4091 1.390 . S
C4089 H4093 0.950 . S
H4090 C4086 0.950 . S
C4091 C4089 1.390 . S
C4091 C4092 1.387 . S
C4091 H4094 0.950 . S
C4092 C4091 1.387 . S
C4092 C4095 1.387 . S
H4093 C4089 0.950 . S
H4094 C4091 0.950 . S
C4095 C4086 1.390 . S
C4095 H4088 0.950 . S
C4095 C4092 1.387 . S
C4096 C4097 1.387 . S
C4096 H4100 0.950 . S
C4096 C4105 1.390 . S
C4097 C4096 1.387 . S
C4097 C4099 1.387 . S
H4098 C4105 0.950 . S
C4099 C4097 1.387 . S
C4099 C4101 1.390 . S
C4099 H4103 0.950 . S
H4100 C4096 0.950 . S
C4101 C4099 1.390 . S
C4101 C4102 1.387 . S
C4101 H4104 0.950 . S
C4102 C4101 1.387 . S
C4102 C4105 1.387 . S
H4103 C4099 0.950 . S
H4104 C4101 0.950 . S
C4105 C4096 1.390 . S
C4105 H4098 0.950 . S
C4105 C4102 1.387 . S
C4106 C4107 1.387 . S
C4106 H4110 0.950 . S
C4106 C4115 1.390 . S
C4107 C4106 1.387 . S
C4107 C4109 1.387 . S
H4108 C4115 0.950 . S
C4109 C4107 1.387 . S
C4109 C4111 1.390 . S
C4109 H4113 0.950 . S
H4110 C4106 0.950 . S
C4111 C4109 1.390 . S
C4111 C4112 1.387 . S
C4111 H4114 0.950 . S
C4112 C4111 1.387 . S
C4112 C4115 1.387 . S
H4113 C4109 0.950 . S
H4114 C4111 0.950 . S
C4115 C4106 1.390 . S
C4115 H4108 0.950 . S
C4115 C4112 1.387 . S
C4116 C4117 1.387 . S
C4116 H4120 0.950 . S
C4116 C4125 1.390 . S
C4117 C4116 1.387 . S
C4117 C4119 1.387 . S
H4118 C4125 0.950 . S
C4119 C4117 1.387 . S
C4119 C4121 1.390 . S
C4119 H4123 0.950 . S
H4120 C4116 0.950 . S
C4121 C4119 1.390 . S
C4121 C4122 1.387 . S
C4121 H4124 0.950 . S
C4122 C4121 1.387 . S
C4122 C4125 1.387 . S
H4123 C4119 0.950 . S
H4124 C4121 0.950 . S
C4125 C4116 1.390 . S
C4125 H4118 0.950 . S
C4125 C4122 1.387 . S
C4126 C4127 1.387 . S
C4126 H4130 0.950 . S
C4126 C4135 1.390 . S
C4127 C4126 1.387 . S
C4127 C4129 1.362 1_544 S
H4128 C4135 0.950 . S
C4129 C4127 1.362 1_566 S
C4129 C4131 1.390 1_556 S
C4129 H4133 0.978 . S
H4130 C4126 0.950 . S
C4131 C4129 1.390 1_554 S
C4131 C4132 1.387 1_565 S
C4131 H4134 0.950 1_554 S
C4132 C4131 1.387 1_545 S
C4132 C4135 1.387 . S
H4133 C4129 0.978 . S
H4134 C4131 0.950 1_556 S
C4135 C4126 1.390 . S
C4135 H4128 0.950 . S
C4135 C4132 1.387 . S
C4136 C4137 1.387 . S
C4136 H4140 0.950 . S
C4136 C4145 1.390 . S
C4137 C4136 1.387 . S
C4137 C4139 1.387 . S
H4138 C4145 0.950 . S
C4139 C4137 1.387 . S
C4139 C4141 1.390 . S
C4139 H4143 0.950 . S
H4140 C4136 0.950 . S
C4141 C4139 1.390 . S
C4141 C4142 1.387 . S
C4141 H4144 0.950 . S
C4142 C4141 1.387 . S
C4142 C4145 1.387 . S
H4143 C4139 0.950 . S
H4144 C4141 0.950 . S
C4145 C4136 1.390 . S
C4145 H4138 0.950 . S
C4145 C4142 1.387 . S
C4146 C4147 1.387 . S
C4146 H4150 0.950 . S
C4146 C4155 1.390 . S
C4147 C4146 1.387 . S
C4147 C4149 1.387 . S
H4148 C4155 0.950 . S
C4149 C4147 1.387 . S
C4149 C4151 1.390 . S
C4149 H4153 0.950 1_554 S
H4150 C4146 0.950 . S
C4151 C4149 1.390 . S
C4151 C4152 1.387 . S
C4151 H4154 0.950 . S
C4152 C4151 1.387 . S
C4152 C4155 1.387 . S
H4153 C4149 0.950 1_556 S
H4154 C4151 0.950 . S
C4155 C4146 1.390 . S
C4155 H4148 0.950 . S
C4155 C4152 1.387 . S
C4156 C4157 1.387 . S
C4156 H4160 0.950 . S
C4156 C4165 1.390 . S
C4157 C4156 1.387 . S
C4157 C4159 1.387 . S
H4158 C4165 0.950 . S
C4159 C4157 1.387 . S
C4159 C4161 1.390 . S
C4159 H4163 0.950 . S
H4160 C4156 0.950 . S
C4161 C4159 1.390 . S
C4161 C4162 1.387 . S
C4161 H4164 0.950 . S
C4162 C4161 1.387 . S
C4162 C4165 1.387 . S
H4163 C4159 0.950 . S
H4164 C4161 0.950 . S
C4165 C4156 1.390 . S
C4165 H4158 0.950 . S
C4165 C4162 1.387 . S
C4166 C4167 1.387 . S
C4166 H4170 0.950 . S
C4166 C4175 1.390 . S
C4167 C4166 1.387 . S
C4167 C4169 1.387 . S
H4168 C4175 0.950 . S
C4169 C4167 1.387 . S
C4169 C4171 1.390 . S
C4169 H4173 0.950 . S
H4170 C4166 0.950 . S
C4171 C4169 1.390 . S
C4171 C4172 1.387 . S
C4171 H4174 0.950 . S
C4172 C4171 1.387 . S
C4172 C4175 1.387 . S
H4173 C4169 0.950 . S
H4174 C4171 0.950 . S
C4175 C4166 1.390 . S
C4175 H4168 0.950 . S
C4175 C4172 1.387 . S
C4176 C4177 1.387 . S
C4176 H4180 0.950 . S
C4176 C4185 1.390 . S
C4177 C4176 1.387 . S
C4177 C4179 1.387 . S
H4178 C4185 0.950 . S
C4179 C4177 1.387 . S
C4179 C4181 1.390 . S
C4179 H4183 0.950 . S
H4180 C4176 0.950 . S
C4181 C4179 1.390 . S
C4181 C4182 1.387 . S
C4181 H4184 0.950 . S
C4182 C4181 1.387 . S
C4182 C4185 1.387 . S
H4183 C4179 0.950 . S
H4184 C4181 0.950 . S
C4185 C4176 1.390 . S
C4185 H4178 0.950 . S
C4185 C4182 1.387 . S
C4186 C4187 1.387 . S
C4186 H4190 0.950 . S
C4186 C4195 1.390 . S
C4187 C4186 1.387 . S
C4187 C4189 1.387 . S
H4188 C4195 0.950 . S
C4189 C4187 1.387 . S
C4189 C4191 1.390 . S
C4189 H4193 0.950 . S
H4190 C4186 0.950 . S
C4191 C4189 1.390 . S
C4191 C4192 1.387 . S
C4191 H4194 0.950 . S
C4192 C4191 1.387 . S
C4192 C4195 1.387 . S
H4193 C4189 0.950 . S
H4194 C4191 0.950 . S
C4195 C4186 1.390 . S
C4195 H4188 0.950 . S
C4195 C4192 1.387 . S
C4196 C4197 1.387 . S
C4196 H4200 0.950 . S
C4196 C4205 1.390 . S
C4197 C4196 1.387 . S
C4197 C4199 1.387 . S
H4198 C4205 0.950 . S
C4199 C4197 1.387 . S
C4199 C4201 1.390 . S
C4199 H4203 0.950 . S
H4200 C4196 0.950 . S
C4201 C4199 1.390 . S
C4201 C4202 1.387 . S
C4201 H4204 0.950 . S
C4202 C4201 1.387 . S
C4202 C4205 1.387 . S
H4203 C4199 0.950 . S
H4204 C4201 0.950 . S
C4205 C4196 1.390 . S
C4205 H4198 0.950 . S
C4205 C4202 1.387 . S
C4206 C4207 1.387 . S
C4206 H4210 0.950 . S
C4206 C4215 1.390 . S
C4207 C4206 1.387 . S
C4207 C4209 1.387 . S
H4208 C4215 0.950 . S
C4209 C4207 1.387 . S
C4209 C4211 1.390 . S
C4209 H4213 0.950 . S
H4210 C4206 0.950 . S
C4211 C4209 1.390 . S
C4211 C4212 1.387 . S
C4211 H4214 0.950 . S
C4212 C4211 1.387 . S
C4212 C4215 1.387 . S
H4213 C4209 0.950 . S
H4214 C4211 0.950 . S
C4215 C4206 1.390 . S
C4215 H4208 0.950 . S
C4215 C4212 1.387 . S
C4216 C4217 1.387 . S
C4216 H4220 0.950 . S
C4216 C4225 1.390 . S
C4217 C4216 1.387 . S
C4217 C4219 1.387 . S
H4218 C4225 0.950 . S
C4219 C4217 1.387 . S
C4219 C4221 1.390 . S
C4219 H4223 0.950 . S
H4220 C4216 0.950 . S
C4221 C4219 1.390 . S
C4221 C4222 1.387 . S
C4221 H4224 0.950 . S
C4222 C4221 1.387 . S
C4222 C4225 1.387 . S
H4223 C4219 0.950 . S
H4224 C4221 0.950 . S
C4225 C4216 1.390 . S
C4225 H4218 0.950 . S
C4225 C4222 1.387 . S
C4226 C4227 1.387 . S
C4226 H4230 0.950 . S
C4226 C4235 1.390 . S
C4227 C4226 1.387 . S
C4227 C4229 1.387 . S
H4228 C4235 0.950 . S
C4229 C4227 1.387 . S
C4229 C4231 1.390 . S
C4229 H4233 0.950 . S
H4230 C4226 0.950 . S
C4231 C4229 1.390 . S
C4231 C4232 1.387 . S
C4231 H4234 0.950 . S
C4232 C4231 1.387 . S
C4232 C4235 1.387 . S
H4233 C4229 0.950 . S
H4234 C4231 0.950 . S
C4235 C4226 1.390 . S
C4235 H4228 0.950 . S
C4235 C4232 1.387 . S
C4236 C4237 1.387 . S
C4236 H4240 0.950 . S
C4236 C4245 1.390 . S
C4237 C4236 1.387 . S
C4237 C4239 1.387 . S
H4238 C4245 0.950 . S
C4239 C4237 1.387 . S
C4239 C4241 1.390 . S
C4239 H4243 0.950 . S
H4240 C4236 0.950 . S
C4241 C4239 1.390 . S
C4241 C4242 1.387 . S
C4241 H4244 0.950 . S
C4242 C4241 1.387 . S
C4242 C4245 1.387 . S
H4243 C4239 0.950 . S
H4244 C4241 0.950 . S
C4245 C4236 1.390 . S
C4245 H4238 0.950 . S
C4245 C4242 1.387 . S
C4246 C4247 1.387 . S
C4246 H4250 0.950 . S
C4246 C4255 1.390 . S
C4247 C4246 1.387 . S
C4247 C4249 1.387 . S
H4248 C4255 0.950 . S
C4249 C4247 1.387 . S
C4249 C4251 1.390 . S
C4249 H4253 0.950 . S
H4250 C4246 0.950 . S
C4251 C4249 1.390 . S
C4251 C4252 1.387 . S
C4251 H4254 0.950 . S
C4252 C4251 1.387 . S
C4252 C4255 1.387 . S
H4253 C4249 0.950 . S
H4254 C4251 0.950 . S
C4255 C4246 1.390 . S
C4255 H4248 0.950 . S
C4255 C4252 1.387 . S
C4256 C4257 1.387 . S
C4256 H4260 0.950 . S
C4256 C4265 1.390 . S
C4257 C4256 1.387 . S
C4257 C4259 1.387 . S
H4258 C4265 0.950 . S
C4259 C4257 1.387 . S
C4259 C4261 1.390 . S
C4259 H4263 0.950 . S
H4260 C4256 0.950 . S
C4261 C4259 1.390 . S
C4261 C4262 1.387 . S
C4261 H4264 0.950 . S
C4262 C4261 1.387 . S
C4262 C4265 1.387 . S
H4263 C4259 0.950 . S
H4264 C4261 0.950 . S
C4265 C4256 1.390 . S
C4265 H4258 0.950 . S
C4265 C4262 1.387 . S
C4266 C4267 1.387 . S
C4266 H4270 0.950 . S
C4266 C4275 1.390 . S
C4267 C4266 1.387 . S
C4267 C4269 1.387 . S
H4268 C4275 0.950 . S
C4269 C4267 1.387 . S
C4269 C4271 1.390 . S
C4269 H4273 0.950 . S
H4270 C4266 0.950 . S
C4271 C4269 1.390 . S
C4271 C4272 1.387 . S
C4271 H4274 0.950 . S
C4272 C4271 1.387 . S
C4272 C4275 1.387 . S
H4273 C4269 0.950 . S
H4274 C4271 0.950 . S
C4275 C4266 1.390 . S
C4275 H4268 0.950 . S
C4275 C4272 1.387 . S
C4276 C4277 1.387 . S
C4276 H4280 0.950 . S
C4276 C4285 1.390 . S
C4277 C4276 1.387 . S
C4277 C4279 1.387 . S
H4278 C4285 0.950 . S
C4279 C4277 1.387 . S
C4279 C4281 1.390 . S
C4279 H4283 0.950 . S
H4280 C4276 0.950 . S
C4281 C4279 1.390 . S
C4281 C4282 1.387 . S
C4281 H4284 0.950 . S
C4282 C4281 1.387 . S
C4282 C4285 1.387 . S
H4283 C4279 0.950 . S
H4284 C4281 0.950 . S
C4285 C4276 1.390 . S
C4285 H4278 0.950 . S
C4285 C4282 1.387 . S
C4286 C4287 1.387 . S
C4286 H4290 0.950 . S
C4286 C4295 1.390 . S
C4287 C4286 1.387 . S
C4287 C4289 1.387 . S
H4288 C4295 0.950 . S
C4289 C4287 1.387 . S
C4289 C4291 1.390 . S
C4289 H4293 0.950 . S
H4290 C4286 0.950 . S
C4291 C4289 1.390 . S
C4291 C4292 1.387 . S
C4291 H4294 0.950 . S
C4292 C4291 1.387 . S
C4292 C4295 1.387 . S
H4293 C4289 0.950 . S
H4294 C4291 0.950 . S
C4295 C4286 1.390 . S
C4295 H4288 0.950 . S
C4295 C4292 1.387 . S
C4296 C4297 1.387 . S
C4296 H4300 0.950 . S
C4296 C4305 1.390 . S
C4297 C4296 1.387 . S
C4297 C4299 1.387 . S
H4298 C4305 0.950 . S
C4299 C4297 1.387 . S
C4299 C4301 1.390 . S
C4299 H4303 0.950 . S
H4300 C4296 0.950 . S
C4301 C4299 1.390 . S
C4301 C4302 1.387 . S
C4301 H4304 0.950 . S
C4302 C4301 1.387 . S
C4302 C4305 1.387 . S
H4303 C4299 0.950 . S
H4304 C4301 0.950 . S
C4305 C4296 1.390 . S
C4305 H4298 0.950 . S
C4305 C4302 1.387 . S
C4306 C4307 1.387 . S
C4306 H4310 0.950 . S
C4306 C4315 1.390 . S
C4307 C4306 1.387 . S
C4307 C4309 1.387 . S
H4308 C4315 0.950 . S
C4309 C4307 1.387 . S
C4309 C4311 1.390 . S
C4309 H4313 0.950 . S
H4310 C4306 0.950 . S
C4311 C4309 1.390 . S
C4311 C4312 1.387 . S
C4311 H4314 0.950 . S
C4312 C4311 1.387 . S
C4312 C4315 1.387 . S
H4313 C4309 0.950 . S
H4314 C4311 0.950 . S
C4315 C4306 1.390 . S
C4315 H4308 0.950 . S
C4315 C4312 1.387 . S
C4316 C4317 1.387 . S
C4316 H4320 0.950 . S
C4316 C4325 1.390 . S
C4317 C4316 1.387 . S
C4317 C4319 1.387 . S
H4318 C4325 0.950 . S
C4319 C4317 1.387 . S
C4319 C4321 1.390 . S
C4319 H4323 0.950 . S
H4320 C4316 0.950 . S
C4321 C4319 1.390 . S
C4321 C4322 1.387 . S
C4321 H4324 0.950 . S
C4322 C4321 1.387 . S
C4322 C4325 1.387 . S
H4323 C4319 0.950 . S
H4324 C4321 0.950 . S
C4325 C4316 1.390 . S
C4325 H4318 0.950 . S
C4325 C4322 1.387 . S
C4326 C4327 1.387 . S
C4326 H4330 0.950 . S
C4326 C4335 1.390 . S
C4327 C4326 1.387 . S
C4327 C4329 1.387 . S
H4328 C4335 0.950 . S
C4329 C4327 1.387 . S
C4329 C4331 1.390 . S
C4329 H4333 0.950 . S
H4330 C4326 0.950 . S
C4331 C4329 1.390 . S
C4331 C4332 1.387 . S
C4331 H4334 0.950 . S
C4332 C4331 1.387 . S
C4332 C4335 1.387 . S
H4333 C4329 0.950 . S
H4334 C4331 0.950 . S
C4335 C4326 1.390 . S
C4335 H4328 0.950 . S
C4335 C4332 1.387 . S
C4336 C4337 1.387 . S
C4336 H4340 0.950 . S
C4336 C4345 1.390 . S
C4337 C4336 1.387 . S
C4337 C4339 1.387 . S
H4338 C4345 0.950 . S
C4339 C4337 1.387 . S
C4339 C4341 1.390 . S
C4339 H4343 0.950 . S
H4340 C4336 0.950 . S
C4341 C4339 1.390 . S
C4341 C4342 1.387 . S
C4341 H4344 0.950 . S
C4342 C4341 1.387 . S
C4342 C4345 1.387 . S
H4343 C4339 0.950 . S
H4344 C4341 0.950 . S
C4345 C4336 1.390 . S
C4345 H4338 0.950 . S
C4345 C4342 1.387 . S
C4346 C4347 1.387 . S
C4346 H4350 0.950 1_565 S
C4346 C4355 1.390 1_565 S
C4347 C4346 1.387 . S
C4347 C4349 1.387 . S
H4348 C4355 0.950 . S
C4349 C4347 1.387 . S
C4349 C4351 1.390 . S
C4349 H4353 0.950 . S
H4350 C4346 0.950 1_545 S
C4351 C4349 1.390 . S
C4351 C4352 1.387 . S
C4351 H4354 0.950 . S
C4352 C4351 1.387 . S
C4352 C4355 1.387 1_565 S
H4353 C4349 0.950 . S
H4354 C4351 0.950 . S
C4355 C4346 1.390 1_545 S
C4355 H4348 0.950 . S
C4355 C4352 1.387 1_545 S
C4356 C4357 1.387 . S
C4356 H4360 0.950 . S
C4356 C4365 1.390 . S
C4357 C4356 1.387 . S
C4357 C4359 1.387 . S
H4358 C4365 0.950 . S
C4359 C4357 1.387 . S
C4359 C4361 1.390 . S
C4359 H4363 0.950 . S
H4360 C4356 0.950 . S
C4361 C4359 1.390 . S
C4361 C4362 1.387 . S
C4361 H4364 0.950 . S
C4362 C4361 1.387 . S
C4362 C4365 1.387 . S
H4363 C4359 0.950 . S
H4364 C4361 0.950 . S
C4365 C4356 1.390 . S
C4365 H4358 0.950 . S
C4365 C4362 1.387 . S
C4366 C4367 1.387 . S
C4366 H4370 0.950 . S
C4366 C4375 1.390 . S
C4367 C4366 1.387 . S
C4367 C4369 1.387 . S
H4368 C4375 0.950 . S
C4369 C4367 1.387 . S
C4369 C4371 1.390 . S
C4369 H4373 0.950 . S
H4370 C4366 0.950 . S
C4371 C4369 1.390 . S
C4371 C4372 1.387 . S
C4371 H4374 0.950 . S
C4372 C4371 1.387 . S
C4372 C4375 1.387 . S
H4373 C4369 0.950 . S
H4374 C4371 0.950 . S
C4375 C4366 1.390 . S
C4375 H4368 0.950 . S
C4375 C4372 1.387 . S
C4376 C4377 1.387 . S
C4376 H4380 0.950 . S
C4376 C4385 1.390 . S
C4377 C4376 1.387 . S
C4377 C4379 1.387 . S
H4378 C4385 0.950 . S
C4379 C4377 1.387 . S
C4379 C4381 1.390 . S
C4379 H4383 0.950 . S
H4380 C4376 0.950 . S
C4381 C4379 1.390 . S
C4381 C4382 1.387 . S
C4381 H4384 0.950 . S
C4382 C4381 1.387 . S
C4382 C4385 1.387 . S
H4383 C4379 0.950 . S
H4384 C4381 0.950 . S
C4385 C4376 1.390 . S
C4385 H4378 0.950 . S
C4385 C4382 1.387 . S
C4386 C4387 1.387 . S
C4386 H4390 0.950 . S
C4386 C4395 1.390 . S
C4387 C4386 1.387 . S
C4387 C4389 1.387 . S
H4388 C4395 0.950 . S
C4389 C4387 1.387 . S
C4389 C4391 1.390 . S
C4389 H4393 0.950 . S
H4390 C4386 0.950 . S
C4391 C4389 1.390 . S
C4391 C4392 1.387 . S
C4391 H4394 0.950 . S
C4392 C4391 1.387 . S
C4392 C4395 1.387 . S
H4393 C4389 0.950 . S
H4394 C4391 0.950 . S
C4395 C4386 1.390 . S
C4395 H4388 0.950 . S
C4395 C4392 1.387 . S
C4396 C4397 1.387 . S
C4396 H4400 0.950 . S
C4396 C4405 1.390 . S
C4397 C4396 1.387 . S
C4397 C4399 1.387 . S
H4398 C4405 0.950 . S
C4399 C4397 1.387 . S
C4399 C4401 1.390 . S
C4399 H4403 0.950 . S
H4400 C4396 0.950 . S
C4401 C4399 1.390 . S
C4401 C4402 1.387 . S
C4401 H4404 0.950 . S
C4402 C4401 1.387 . S
C4402 C4405 1.387 . S
H4403 C4399 0.950 . S
H4404 C4401 0.950 . S
C4405 C4396 1.390 . S
C4405 H4398 0.950 . S
C4405 C4402 1.387 . S
C4406 C4407 1.387 . S
C4406 H4410 0.950 . S
C4406 C4415 1.390 . S
C4407 C4406 1.387 . S
C4407 C4409 1.387 . S
H4408 C4415 0.950 . S
C4409 C4407 1.387 . S
C4409 C4411 1.390 . S
C4409 H4413 0.950 . S
H4410 C4406 0.950 . S
C4411 C4409 1.390 . S
C4411 C4412 1.387 . S
C4411 H4414 0.950 . S
C4412 C4411 1.387 . S
C4412 C4415 1.387 . S
H4413 C4409 0.950 . S
H4414 C4411 0.950 . S
C4415 C4406 1.390 . S
C4415 H4408 0.950 . S
C4415 C4412 1.387 . S
C3457 C665 2.244 1_455 S
C3462 C2179 2.315 . S
C3467 C381 1.879 . S
C3472 C2252 1.906 . S
C3477 C460 2.044 . S
C3482 C2347 2.132 . S
C3492 C2422 1.363 . S
C3487 C585 1.463 . S
C3497 C108 1.463 . S
C3502 C2506 1.365 . S
C3512 C2599 2.134 . S
C3507 C196 2.047 . S
C3522 C2672 1.906 . S
C3517 C313 1.880 . S
C3527 C49 2.245 . S
C3532 C2767 2.315 . S
C3542 C2168 1.684 . S
C3537 C1457 1.746 . S
C3547 C1545 0.868 . S
C3552 C2254 0.840 . S
C3562 C2336 1.084 . S
C3557 C1721 1.094 . S
C3572 C2431 1.738 . S
C3567 C1113 1.708 . S
C3577 C1428 1.708 1_455 S
C3582 C2515 1.739 . S
C3592 C2588 1.083 . S
C3587 C1516 1.095 . S
C3602 C2674 0.840 . S
C3597 C1692 0.868 . S
C3612 C2756 1.682 . S
C3607 C1085 1.744 . S
C3622 C2170 1.182 1_565 S
C3617 C988 1.131 1_554 S
C3627 C1817 1.672 . S
C3632 C2840 1.676 . S
C3642 C2926 1.341 . S
C3637 C2081 1.376 . S
C3652 C3019 0.971 . S
C3647 C1993 0.950 . S
C3657 C761 1.133 . S
C3662 C2758 1.184 . S
C3667 C821 1.375 . S
C3672 C2338 1.343 . S
C3677 C2053 1.673 . S
C3682 C3092 1.676 . S
C3692 C3187 0.970 . S
C3687 C1868 0.949 . S
C3702 C2167 2.308 . S
C3697 C372 2.244 . S
C3712 C3188 1.904 . S
C3707 C645 1.871 . S
C3717 C577 2.043 . S
C3722 C2335 2.128 . S
C3727 C497 1.461 . S
C3732 C3106 1.361 . S
C3742 C2518 1.360 . S
C3737 C57 1.461 . S
C3747 C293 2.040 . S
C3752 C2923 2.127 . S
C3762 C2684 1.904 1_556 S
C3757 C205 1.873 . S
C3772 C3259 2.309 . S
C3767 C145 2.244 . S
C3782 C2180 1.679 . S
C3777 C909 1.744 . S
C3792 C3190 0.841 . S
C3787 C1956 0.866 . S
C3797 C724 1.092 . S
C3802 C2348 1.081 . S
C3807 C1780 1.706 . S
C3812 C3091 1.735 . S
C3817 C937 1.707 . S
C3822 C2503 1.735 . S
C3832 C2936 1.081 . S
C3827 C1985 1.092 . S
C3837 C753 0.865 . S
C3842 C2686 0.836 . S
C3847 C1809 1.745 . S
C3852 C3272 1.680 . S
C3857 C1173 1.138 . S
C3862 C2182 1.181 . S
C3867 C1105 1.668 . S
C3872 C2852 1.673 . S
C3877 C1633 1.378 . S
C3882 C2602 1.339 . S
C3887 C1553 0.944 . S
C3892 C3007 0.965 . S
C3902 C3274 1.181 . S
C3897 C1729 1.137 . S
C3907 C1340 1.377 . S
C3912 C2350 1.341 . S
C3922 C2432 1.673 . S
C3917 C1604 1.667 . S
C3932 C2251 0.964 . S
C3927 C1252 0.944 . S
C3937 C489 2.244 . S
C3942 C3355 2.315 . S
C3952 C3176 1.906 . S
C3947 C557 1.879 . S
C3957 C636 2.044 . S
C3962 C3439 2.132 . S
C3967 C409 1.463 . S
C3972 C3094 1.363 . S
C3977 C284 1.463 . S
C3982 C2842 1.364 . S
C3992 C2935 2.132 . S
C3987 C20 2.045 . S
C4002 C3008 1.906 . S
C3997 C137 1.878 . S
C4012 C3271 2.313 . S
C4007 C225 2.243 . S
C4022 C3344 1.683 . S
C4017 C1641 1.745 . S
C4027 C1193 0.868 . S
C4032 C3178 0.840 . S
C4042 C3428 1.084 . S
C4037 C1289 1.094 . S
C4052 C3103 1.740 . S
C4047 C1377 1.709 . S
C4062 C2851 1.740 . S
C4057 C1613 1.709 . S
C4067 C1164 1.094 . S
C4072 C2924 1.084 . S
C4082 C3010 0.839 . S
C4077 C1261 0.868 . S
C4087 C1349 1.744 . S
C4092 C3260 1.681 . S
C4102 C3346 1.184 . S
C4097 C1965 1.133 . S
C4107 C849 1.673 . S
C4112 C2504 1.676 . S
C4122 C2590 1.341 . S
C4117 C929 1.376 . S
C4132 C2683 0.973 . S
C4127 C1017 0.955 . S
C4142 C3262 1.185 . S
C4137 C1897 1.134 . S
C4147 C1789 1.377 . S
C4152 C3430 1.341 . S
C4162 C2420 1.675 . S
C4157 C900 1.672 . S
C4172 C2263 0.970 . S
C4167 C733 0.949 . S
C4177 C548 2.244 . S
C4182 C3343 2.309 . S
C4192 C2264 1.904 . S
C4187 C469 1.872 . S
C4197 C401 2.043 . S
C4202 C3427 2.128 . S
C4207 C673 1.461 . S
C4212 C2434 1.361 . S
C4217 C233 1.461 . S
C4222 C2854 1.361 . S
C4232 C2587 2.126 . S
C4227 C117 2.040 . S
C4237 C29 1.872 . S
C4242 C3020 1.904 . S
C4247 C321 2.244 . S
C4252 C2755 2.309 . S
C4262 C3356 1.678 . S
C4257 C2044 1.743 . S
C4267 C997 0.866 . S
C4272 C2266 0.836 . S
C4282 C3440 1.082 1_655 S
C4277 C1877 1.092 . S
C4287 C812 1.705 . S
C4292 C2419 1.733 . S
C4297 C2073 1.706 . S
C4302 C2839 1.735 . S
C4312 C2600 1.081 . S
C4307 C1025 1.095 . S
C4317 C1905 0.865 . S
C4322 C3022 0.838 . S
C4332 C2768 1.680 . S
C4327 C841 1.744 . S
C4342 C3358 1.182 . S
C4337 C1525 1.136 . S
C4352 C2516 1.675 1_565 S
C4347 C1369 1.667 . S
C4357 C1465 1.377 . S
C4362 C2938 1.339 . S
C4372 C2671 0.968 . S
C4367 C1201 0.950 . S
C4377 C1281 1.135 . S
C4382 C2770 1.180 . S
C4387 C1076 1.377 . S
C4392 C3442 1.341 . S
C4402 C3104 1.673 . S
C4397 C1437 1.668 . S
C4412 C3175 0.968 . S
C4407 C1701 0.949 . S
