# Generated by pormake.
# Topology ocu, (6,8)-cn, num edge types: 1
# Building blocks:
#     Node 0, Type 0, BuildingBlock: CUKXOW_clean_sbu_0, # of connection points: 6
#     Node 1, Type 0, BuildingBlock: CUKXOW_clean_sbu_0, # of connection points: 6
#     Node 2, Type 0, BuildingBlock: CUKXOW_clean_sbu_0, # of connection points: 6
#     Node 3, Type 0, BuildingBlock: CUKXOW_clean_sbu_0, # of connection points: 6
#     Node 4, Type 0, BuildingBlock: CUKXOW_clean_sbu_0, # of connection points: 6
#     Node 5, Type 0, BuildingBlock: CUKXOW_clean_sbu_0, # of connection points: 6
#     Node 6, Type 0, BuildingBlock: CUKXOW_clean_sbu_0, # of connection points: 6
#     Node 7, Type 0, BuildingBlock: CUKXOW_clean_sbu_0, # of connection points: 6
#     Node 8, Type 1, BuildingBlock: AJUNOK_clean_sbu_0, # of connection points: 8
#     Node 9, Type 1, BuildingBlock: AJUNOK_clean_sbu_0, # of connection points: 8
#     Node 10, Type 1, BuildingBlock: AJUNOK_clean_sbu_0, # of connection points: 8
#     Node 11, Type 1, BuildingBlock: AJUNOK_clean_sbu_0, # of connection points: 8
#     Node 12, Type 1, BuildingBlock: AJUNOK_clean_sbu_0, # of connection points: 8
#     Node 13, Type 1, BuildingBlock: AJUNOK_clean_sbu_0, # of connection points: 8
#     Edge 14, Type (0, 1), BuildingBlock: AJUNOK_clean_linker_0, # of connection points: 2
#     Edge 15, Type (0, 1), BuildingBlock: AJUNOK_clean_linker_0, # of connection points: 2
#     Edge 16, Type (0, 1), BuildingBlock: AJUNOK_clean_linker_0, # of connection points: 2
#     Edge 17, Type (0, 1), BuildingBlock: AJUNOK_clean_linker_0, # of connection points: 2
#     Edge 18, Type (0, 1), BuildingBlock: AJUNOK_clean_linker_0, # of connection points: 2
#     Edge 19, Type (0, 1), BuildingBlock: AJUNOK_clean_linker_0, # of connection points: 2
#     Edge 20, Type (0, 1), BuildingBlock: AJUNOK_clean_linker_0, # of connection points: 2
#     Edge 21, Type (0, 1), BuildingBlock: AJUNOK_clean_linker_0, # of connection points: 2
#     Edge 22, Type (0, 1), BuildingBlock: AJUNOK_clean_linker_0, # of connection points: 2
#     Edge 23, Type (0, 1), BuildingBlock: AJUNOK_clean_linker_0, # of connection points: 2
#     Edge 24, Type (0, 1), BuildingBlock: AJUNOK_clean_linker_0, # of connection points: 2
#     Edge 25, Type (0, 1), BuildingBlock: AJUNOK_clean_linker_0, # of connection points: 2
#     Edge 26, Type (0, 1), BuildingBlock: AJUNOK_clean_linker_0, # of connection points: 2
#     Edge 27, Type (0, 1), BuildingBlock: AJUNOK_clean_linker_0, # of connection points: 2
#     Edge 28, Type (0, 1), BuildingBlock: AJUNOK_clean_linker_0, # of connection points: 2
#     Edge 29, Type (0, 1), BuildingBlock: AJUNOK_clean_linker_0, # of connection points: 2
#     Edge 30, Type (0, 1), BuildingBlock: AJUNOK_clean_linker_0, # of connection points: 2
#     Edge 31, Type (0, 1), BuildingBlock: AJUNOK_clean_linker_0, # of connection points: 2
#     Edge 32, Type (0, 1), BuildingBlock: AJUNOK_clean_linker_0, # of connection points: 2
#     Edge 33, Type (0, 1), BuildingBlock: AJUNOK_clean_linker_0, # of connection points: 2
#     Edge 34, Type (0, 1), BuildingBlock: AJUNOK_clean_linker_0, # of connection points: 2
#     Edge 35, Type (0, 1), BuildingBlock: AJUNOK_clean_linker_0, # of connection points: 2
#     Edge 36, Type (0, 1), BuildingBlock: AJUNOK_clean_linker_0, # of connection points: 2
#     Edge 37, Type (0, 1), BuildingBlock: AJUNOK_clean_linker_0, # of connection points: 2
#     Edge 38, Type (0, 1), BuildingBlock: AJUNOK_clean_linker_0, # of connection points: 2
#     Edge 39, Type (0, 1), BuildingBlock: AJUNOK_clean_linker_0, # of connection points: 2
#     Edge 40, Type (0, 1), BuildingBlock: AJUNOK_clean_linker_0, # of connection points: 2
#     Edge 41, Type (0, 1), BuildingBlock: AJUNOK_clean_linker_0, # of connection points: 2
#     Edge 42, Type (0, 1), BuildingBlock: AJUNOK_clean_linker_0, # of connection points: 2
#     Edge 43, Type (0, 1), BuildingBlock: AJUNOK_clean_linker_0, # of connection points: 2
#     Edge 44, Type (0, 1), BuildingBlock: AJUNOK_clean_linker_0, # of connection points: 2
#     Edge 45, Type (0, 1), BuildingBlock: AJUNOK_clean_linker_0, # of connection points: 2
#     Edge 46, Type (0, 1), BuildingBlock: AJUNOK_clean_linker_0, # of connection points: 2
#     Edge 47, Type (0, 1), BuildingBlock: AJUNOK_clean_linker_0, # of connection points: 2
#     Edge 48, Type (0, 1), BuildingBlock: AJUNOK_clean_linker_0, # of connection points: 2
#     Edge 49, Type (0, 1), BuildingBlock: AJUNOK_clean_linker_0, # of connection points: 2
#     Edge 50, Type (0, 1), BuildingBlock: AJUNOK_clean_linker_0, # of connection points: 2
#     Edge 51, Type (0, 1), BuildingBlock: AJUNOK_clean_linker_0, # of connection points: 2
#     Edge 52, Type (0, 1), BuildingBlock: AJUNOK_clean_linker_0, # of connection points: 2
#     Edge 53, Type (0, 1), BuildingBlock: AJUNOK_clean_linker_0, # of connection points: 2
#     Edge 54, Type (0, 1), BuildingBlock: AJUNOK_clean_linker_0, # of connection points: 2
#     Edge 55, Type (0, 1), BuildingBlock: AJUNOK_clean_linker_0, # of connection points: 2
#     Edge 56, Type (0, 1), BuildingBlock: AJUNOK_clean_linker_0, # of connection points: 2
#     Edge 57, Type (0, 1), BuildingBlock: AJUNOK_clean_linker_0, # of connection points: 2
#     Edge 58, Type (0, 1), BuildingBlock: AJUNOK_clean_linker_0, # of connection points: 2
#     Edge 59, Type (0, 1), BuildingBlock: AJUNOK_clean_linker_0, # of connection points: 2
#     Edge 60, Type (0, 1), BuildingBlock: AJUNOK_clean_linker_0, # of connection points: 2
#     Edge 61, Type (0, 1), BuildingBlock: AJUNOK_clean_linker_0, # of connection points: 2
# Relax obj value: 0.139
# Max RMSD: 0.216
# Mean RMSD: 0.184
data_MOF--net-ocu--node1-CUKXOW_clean_sbu_0--node2-AJUNOK_clean_sbu_0--edge1-AJUNOK_clean_linker_0
_symmetry_space_group_name_H-M    P1
_symmetry_Int_Tables_number       1
_symmetry_cell_setting            triclinic
loop_
_symmetry_equiv_pos_as_xyz
'x, y, z'
_cell_length_a     31.686847
_cell_length_b     33.444865
_cell_length_c     27.555817
_cell_angle_alpha  101.66438
_cell_angle_beta   101.83413
_cell_angle_gamma 99.281535
loop_
_atom_site_label
_atom_site_type_symbol
_atom_site_fract_x
_atom_site_fract_y
_atom_site_fract_z
_atom_type_partial_charge
Tb0 Tb 0.2335 0.18722 0.18285 0.0
C1 C 0.29542 0.2747 0.18941 0.0
Tb2 Tb 0.25546 0.25942 0.28227 0.0
O3 O 0.17568 0.20543 0.13959 0.0
O4 O 0.20938 0.23951 0.21104 0.0
O5 O 0.28516 0.2335 0.16939 0.0
C6 C 0.24249 0.31843 0.35359 0.0
O7 O 0.28277 0.29212 0.2305 0.0
C8 C 0.31175 0.20911 0.29236 0.0
C9 C 0.19574 0.17097 0.27783 0.0
O10 O 0.2765 0.3221 0.33399 0.0
O11 O 0.21575 0.28288 0.33146 0.0
O12 O 0.31283 0.24258 0.32653 0.0
O13 O 0.28054 0.20695 0.25436 0.0
O14 O 0.20871 0.21159 0.3003 0.0
O15 O 0.20543 0.15442 0.23434 0.0
C16 C 0.23663 0.12229 0.11099 0.0
O17 O 0.21381 0.12062 0.14486 0.0
O18 O 0.25826 0.16025 0.11856 0.0
C19 C 0.17814 0.23897 0.17428 0.0
Tb20 Tb 0.7314 0.23507 0.30538 0.0
C21 C 0.67559 0.17113 0.19969 0.0
Tb22 Tb 0.75589 0.23958 0.20801 0.0
O23 O 0.70692 0.29297 0.30844 0.0
O24 O 0.70215 0.25233 0.23836 0.0
O25 O 0.68774 0.17903 0.2504 0.0
C26 C 0.77975 0.26885 0.13198 0.0
O27 O 0.69448 0.19486 0.17378 0.0
C28 C 0.79257 0.18813 0.25555 0.0
C29 C 0.81034 0.30553 0.31162 0.0
O30 O 0.75443 0.28359 0.15926 0.0
O31 O 0.78994 0.23643 0.14666 0.0
O32 O 0.78105 0.18227 0.20622 0.0
O33 O 0.7859 0.22318 0.27569 0.0
O34 O 0.79792 0.29654 0.26102 0.0
O35 O 0.7923 0.28185 0.33839 0.0
C36 C 0.71279 0.20295 0.38184 0.0
O37 O 0.6997 0.23515 0.3693 0.0
O38 O 0.73665 0.1897 0.35173 0.0
C39 C 0.69661 0.28765 0.25908 0.0
Tb40 Tb 0.74345 0.75628 0.19577 0.0
C41 C 0.68872 0.66453 0.17583 0.0
Tb42 Tb 0.74936 0.71014 0.28471 0.0
O43 O 0.79485 0.7322 0.16218 0.0
O44 O 0.77898 0.71489 0.224 0.0
O45 O 0.69031 0.70091 0.16303 0.0
C46 C 0.78215 0.66869 0.34972 0.0
O47 O 0.71373 0.6605 0.21865 0.0
C48 C 0.69078 0.75861 0.28958 0.0
C49 C 0.80282 0.80198 0.30565 0.0
O50 O 0.74418 0.65543 0.31666 0.0
O51 O 0.80105 0.70473 0.34568 0.0
O52 O 0.69941 0.73444 0.32019 0.0
O53 O 0.71351 0.75222 0.25719 0.0
O54 O 0.8015 0.76553 0.31776 0.0
O55 O 0.77832 0.80623 0.26255 0.0
C56 C 0.72089 0.80022 0.12896 0.0
O57 O 0.75586 0.8118 0.16662 0.0
O58 O 0.69806 0.76475 0.1302 0.0
C59 C 0.80326 0.70881 0.19363 0.0
Tb60 Tb 0.2561 0.74933 0.20588 0.0
C61 C 0.31674 0.79227 0.31772 0.0
Tb62 Tb 0.24052 0.71574 0.29182 0.0
O63 O 0.19581 0.77356 0.1998 0.0
O64 O 0.23236 0.77208 0.27101 0.0
O65 O 0.31337 0.7849 0.26777 0.0
C66 C 0.20477 0.68954 0.3621 0.0
O67 O 0.28742 0.77192 0.33675 0.0
C68 C 0.29834 0.68379 0.24728 0.0
C69 C 0.17869 0.67406 0.18053 0.0
O70 O 0.23976 0.67997 0.34967 0.0
O71 O 0.18985 0.71383 0.3348 0.0
O72 O 0.30045 0.69016 0.29584 0.0
O73 O 0.26322 0.69275 0.22598 0.0
O74 O 0.18247 0.68118 0.23056 0.0
O75 O 0.20839 0.69356 0.16115 0.0
C76 C 0.2928 0.7773 0.13745 0.0
O77 O 0.25741 0.78621 0.14941 0.0
O78 O 0.30738 0.75231 0.1638 0.0
C79 C 0.19714 0.78017 0.24815 0.0
Tb80 Tb 0.23075 0.7314 0.80572 0.0
C81 C 0.17646 0.67151 0.70003 0.0
Tb82 Tb 0.25737 0.74019 0.70809 0.0
O83 O 0.16699 0.74763 0.77882 0.0
O84 O 0.22167 0.77137 0.75499 0.0
O85 O 0.19116 0.67528 0.74963 0.0
C86 C 0.28156 0.76813 0.63172 0.0
O87 O 0.19384 0.69758 0.67558 0.0
C88 C 0.28607 0.68126 0.74868 0.0
C89 C 0.31047 0.8041 0.81376 0.0
O90 O 0.24586 0.77255 0.64652 0.0
O91 O 0.3032 0.74775 0.65978 0.0
O92 O 0.27571 0.67916 0.70001 0.0
O93 O 0.28238 0.71662 0.77193 0.0
O94 O 0.30307 0.79369 0.76315 0.0
O95 O 0.28748 0.78352 0.83988 0.0
C96 C 0.22089 0.7018 0.88661 0.0
O97 O 0.2121 0.73717 0.87904 0.0
O98 O 0.23657 0.68464 0.84957 0.0
C99 C 0.18064 0.76862 0.74821 0.0
Tb100 Tb 0.2439 0.25301 0.70796 0.0
C101 C 0.18306 0.16447 0.68949 0.0
Tb102 Tb 0.24437 0.20802 0.79764 0.0
O103 O 0.29625 0.22754 0.67772 0.0
O104 O 0.27672 0.21048 0.73825 0.0
O105 O 0.1871 0.20119 0.67784 0.0
C106 C 0.26472 0.16264 0.86383 0.0
O107 O 0.20672 0.15881 0.73207 0.0
C108 C 0.18732 0.25838 0.79837 0.0
C109 C 0.30437 0.29701 0.8166 0.0
O110 O 0.23587 0.14906 0.82022 0.0
O111 O 0.28223 0.20164 0.8696 0.0
O112 O 0.19368 0.23431 0.8295 0.0
O113 O 0.21126 0.25081 0.76762 0.0
O114 O 0.30107 0.26026 0.82853 0.0
O115 O 0.28079 0.30234 0.77364 0.0
C116 C 0.21562 0.29166 0.63652 0.0
O117 O 0.24614 0.30909 0.67833 0.0
O118 O 0.20214 0.25281 0.63537 0.0
C119 C 0.30188 0.20348 0.70903 0.0
Tb120 Tb 0.76075 0.24638 0.70391 0.0
C121 C 0.81609 0.29241 0.81422 0.0
Tb122 Tb 0.73555 0.21625 0.79111 0.0
O123 O 0.74333 0.30652 0.73048 0.0
O124 O 0.7093 0.25238 0.7425 0.0
O125 O 0.81555 0.28358 0.7651 0.0
C126 C 0.69982 0.20438 0.86815 0.0
O127 O 0.78643 0.272 0.83316 0.0
C128 C 0.78001 0.16936 0.74146 0.0
C129 C 0.68083 0.1709 0.67963 0.0
O130 O 0.73552 0.19288 0.85998 0.0
O131 O 0.6853 0.22325 0.83361 0.0
O132 O 0.75107 0.15548 0.76459 0.0
O133 O 0.78618 0.20883 0.7514 0.0
O134 O 0.68014 0.18098 0.72848 0.0
O135 O 0.71221 0.18965 0.66169 0.0
C136 C 0.79366 0.26145 0.62634 0.0
O137 O 0.75628 0.26872 0.63417 0.0
O138 O 0.81136 0.24427 0.66132 0.0
C139 C 0.71385 0.29158 0.75216 0.0
Tb140 Tb 0.73521 0.69148 0.6916 0.0
C141 C 0.79936 0.77609 0.69687 0.0
Tb142 Tb 0.75376 0.76278 0.78811 0.0
O143 O 0.70127 0.72769 0.64511 0.0
O144 O 0.70075 0.73639 0.72227 0.0
O145 O 0.78632 0.7355 0.67441 0.0
C146 C 0.74788 0.83559 0.84238 0.0
O147 O 0.78836 0.79272 0.7393 0.0
C148 C 0.81341 0.71597 0.7992 0.0
C149 C 0.69134 0.67705 0.78374 0.0
O150 O 0.74626 0.82667 0.794 0.0
O151 O 0.75237 0.80306 0.86047 0.0
O152 O 0.81373 0.74927 0.8333 0.0
O153 O 0.78173 0.71299 0.76172 0.0
O154 O 0.70413 0.71778 0.80616 0.0
O155 O 0.7021 0.66031 0.74094 0.0
C156 C 0.7357 0.62165 0.62725 0.0
O157 O 0.70042 0.63618 0.63008 0.0
O158 O 0.77 0.64677 0.65923 0.0
C159 C 0.69055 0.75036 0.68295 0.0
Cd160 Cd 0.96003 0.94658 0.56637 0.0
Cd161 Cd 0.02917 0.01347 0.41966 0.0
C162 C 0.04901 0.93101 0.64092 0.0
N163 N 0.01727 0.91274 0.59691 0.0
C164 C 0.04157 0.84801 0.59304 0.0
C165 C 0.0739 0.86569 0.63908 0.0
C166 C 0.07811 0.9081 0.66237 0.0
C167 C 0.01357 0.87216 0.57257 0.0
H168 H 0.05068 0.96288 0.66059 0.0
H169 H 0.98765 0.858 0.53818 0.0
C170 C 0.94123 0.94045 0.4277 0.0
C171 C 0.9393 0.02968 0.34986 0.0
C172 C 0.90794 0.05132 0.33078 0.0
C173 C 0.91277 0.09428 0.35215 0.0
C174 C 0.94951 0.11392 0.39339 0.0
C175 C 0.97925 0.09067 0.41246 0.0
N176 N 0.97369 0.04926 0.39069 0.0
H177 H 0.93654 -0.00265 0.33127 0.0
H178 H 0.00768 0.10604 0.44366 0.0
C179 C 0.0348 0.92047 0.3556 0.0
N180 N 0.05975 0.95538 0.39068 0.0
C181 C 0.12546 0.92933 0.38595 0.0
C182 C 0.10072 0.89351 0.34855 0.0
C183 C 0.0546 0.88887 0.33455 0.0
C184 C 0.10425 0.95996 0.40651 0.0
H185 H -0.00036 0.9175 0.34255 0.0
H186 H 0.12352 -0.01179 0.43384 0.0
C187 C 0.04634 0.02439 0.56259 0.0
C188 C 0.90179 0.889 0.60251 0.0
N189 N 0.92529 0.00193 0.59701 0.0
C190 C 0.94494 0.03104 0.64172 0.0
C191 C 0.92229 0.06054 0.6623 0.0
C192 C 0.87871 0.05991 0.63711 0.0
C193 C 0.85989 0.03032 0.59019 0.0
C194 C 0.88373 0.00153 0.57091 0.0
C195 C 0.08876 0.0649 0.37619 0.0
O196 O 0.95734 0.95005 0.47584 0.0
O197 O 0.96044 0.95865 0.39907 0.0
O198 O 0.03442 0.01506 0.5137 0.0
O199 O 0.02537 0.00421 0.5883 0.0
O200 O 0.90159 0.88155 0.55501 0.0
O201 O 0.92776 0.92233 0.63084 0.0
O202 O 0.09134 0.07349 0.42419 0.0
O203 O 0.05956 0.03299 0.34965 0.0
H204 H 0.97778 0.03063 0.6623 0.0
H205 H 0.86855 0.97806 0.53562 0.0
H206 H 0.03735 0.81553 0.57362 0.0
H207 H 0.1023 0.92285 0.69812 0.0
H208 H 0.88047 0.0345 0.29898 0.0
H209 H 0.95632 0.14719 0.4099 0.0
H210 H 0.16107 0.93443 0.39777 0.0
H211 H 0.03399 0.86142 0.3068 0.0
H212 H 0.93811 0.08257 0.69862 0.0
H213 H 0.82671 0.029 0.5689 0.0
Cd214 Cd 0.46738 0.94672 0.04443 0.0
Cd215 Cd 0.52987 0.02487 0.95398 0.0
C216 C 0.55635 0.92723 0.0944 0.0
N217 N 0.53327 0.927 0.0471 0.0
C218 C 0.58802 0.90199 0.00903 0.0
C219 C 0.61159 0.90048 0.05718 0.0
C220 C 0.59606 0.91421 0.10044 0.0
C221 C 0.54851 0.91551 0.0048 0.0
H222 H 0.54316 0.93644 0.12719 0.0
H223 H 0.52978 0.91574 0.96761 0.0
C224 C 0.4576 0.94398 0.91257 0.0
C225 C 0.44259 0.0455 0.90037 0.0
C226 C 0.40233 0.05739 0.8926 0.0
C227 C 0.38578 0.07135 0.93488 0.0
C228 C 0.40959 0.07258 0.98406 0.0
C229 C 0.44919 0.05926 0.98992 0.0
N230 N 0.46493 0.04655 0.94836 0.0
H231 H 0.45637 0.03575 0.86823 0.0
H232 H 0.46724 0.05951 0.02764 0.0
C233 C 0.57333 0.95584 0.89575 0.0
N234 N 0.57973 -0.01614 0.94106 0.0
C235 C 0.65383 0.97572 0.9675 0.0
C236 C 0.64815 0.94702 0.92071 0.0
C237 C 0.60702 0.93644 0.88514 0.0
C238 C 0.61873 -0.00614 0.97699 0.0
H239 H 0.54285 0.94959 0.86689 0.0
H240 H 0.62302 0.01715 0.01214 0.0
C241 C 0.53512 0.02904 0.08778 0.0
C242 C 0.41854 0.88083 0.07001 0.0
N243 N 0.40905 -0.02057 0.03801 0.0
C244 C 0.40255 -0.0018 0.08352 0.0
C245 C 0.36398 0.01248 0.08531 0.0
C246 C 0.3321 0.00753 0.03981 0.0
C247 C 0.33962 -0.01159 0.99316 0.0
C248 C 0.37842 0.97363 0.99325 0.0
C249 C 0.58345 0.09708 0.94237 0.0
O250 O 0.47079 0.95555 0.96073 0.0
O251 O 0.47582 0.96632 0.88737 0.0
O252 O 0.52528 0.01796 0.03932 0.0
O253 O 0.51486 0.00624 0.11095 0.0
O254 O 0.42116 0.87794 0.0242 0.0
O255 O 0.44126 0.91292 0.10382 0.0
O256 O 0.59108 0.08517 0.98355 0.0
O257 O 0.55026 0.0759 0.90714 0.0
H258 H 0.42683 0.00087 0.11853 0.0
H259 H 0.38375 0.95713 0.95787 0.0
H260 H 0.59919 0.89139 0.97498 0.0
H261 H 0.61309 0.91255 0.13811 0.0
H262 H 0.3853 0.05752 0.85429 0.0
H263 H 0.39796 0.08406 0.01747 0.0
H264 H 0.68522 -0.01503 0.99558 0.0
H265 H 0.60125 0.91402 0.84883 0.0
H266 H 0.35937 0.02779 0.12181 0.0
H267 H 0.31583 -0.01509 0.9574 0.0
Cd268 Cd 0.96629 0.45386 0.06824 0.0
Cd269 Cd 0.03254 0.51765 0.93711 0.0
C270 C 0.03477 0.41751 0.14539 0.0
N271 N 0.0219 0.41699 0.09491 0.0
C272 C 0.06456 0.36577 0.0741 0.0
C273 C 0.07716 0.36444 0.12578 0.0
C274 C 0.06227 0.39134 0.16167 0.0
C275 C 0.03681 0.39224 0.05946 0.0
H276 H 0.02221 0.43707 0.17297 0.0
H277 H 0.0261 0.39209 0.01952 0.0
C278 C 0.9511 0.43802 0.92869 0.0
C279 C 0.96441 0.54468 0.84504 0.0
C280 C 0.93616 0.56886 0.82458 0.0
C281 C 0.92422 0.60078 0.85749 0.0
C282 C 0.94045 0.60669 0.91047 0.0
C283 C 0.96823 0.58178 0.92918 0.0
N284 N 0.98005 0.55174 0.8966 0.0
H285 H 0.97454 0.52092 0.81974 0.0
H286 H 0.98118 0.58695 0.96997 0.0
C287 C 0.06051 0.45118 0.84915 0.0
N288 N 0.06485 0.4627 0.9006 0.0
C289 C 0.1067 0.41022 0.91282 0.0
C290 C 0.10277 0.39743 0.85984 0.0
C291 C 0.07929 0.41858 0.82792 0.0
C292 C 0.08753 0.44293 0.9324 0.0
H293 H 0.04217 0.46715 0.82447 0.0
H294 H 0.09061 0.4525 0.97312 0.0
C295 C 0.04305 0.53008 0.07265 0.0
C296 C 0.90103 0.3947 0.0854 0.0
N297 N 0.93576 0.51066 0.10244 0.0
C298 C 0.93319 0.51885 0.15214 0.0
C299 C 0.91403 0.5517 0.17172 0.0
C300 C 0.89755 0.5766 0.13999 0.0
C301 C 0.9003 0.56696 0.08869 0.0
C302 C 0.91969 0.53395 0.07075 0.0
C303 C 0.10588 0.58267 0.9452 0.0
O304 O 0.96384 0.45083 0.97708 0.0
O305 O 0.96947 0.45819 0.90128 0.0
O306 O 0.02945 0.51298 0.02506 0.0
O307 O 0.02589 0.5138 0.10377 0.0
O308 O 0.89556 0.40374 0.04215 0.0
O309 O 0.9351 0.41498 0.11982 0.0
O310 O 0.07948 0.58825 0.97378 0.0
O311 O 0.09804 0.54735 0.91372 0.0
H312 H 0.94595 0.49982 0.17666 0.0
H313 H 0.92164 0.52665 0.03129 0.0
H314 H 0.0754 0.34591 0.04502 0.0
H315 H 0.07017 0.39096 0.20168 0.0
H316 H 0.9249 0.56351 0.7835 0.0
H317 H 0.93195 0.63063 0.93733 0.0
H318 H 0.1246 0.39509 0.93907 0.0
H319 H 0.07457 0.40945 0.78685 0.0
H320 H 0.9126 0.55786 0.21141 0.0
H321 H 0.88708 0.58448 0.06234 0.0
Cd322 Cd 0.46355 0.44937 0.07028 0.0
Cd323 Cd 0.52638 0.51117 0.9163 0.0
C324 C 0.53433 0.43009 0.16016 0.0
N325 N 0.52362 0.42329 0.10836 0.0
C326 C 0.57665 0.38001 0.10221 0.0
C327 C 0.58762 0.38554 0.15565 0.0
C328 C 0.56612 0.41134 0.18462 0.0
C329 C 0.54436 0.39918 0.07925 0.0
H330 H 0.51704 0.44901 0.18243 0.0
H331 H 0.53502 0.39396 0.03808 0.0
C332 C 0.4448 0.43579 0.93083 0.0
C333 C 0.43175 0.52037 0.84609 0.0
C334 C 0.39903 0.54013 0.82539 0.0
C335 C 0.40336 0.58358 0.84267 0.0
C336 C 0.44005 0.6054 0.88292 0.0
C337 C 0.47139 0.58418 0.90348 0.0
N338 N 0.46704 0.54243 0.88467 0.0
H339 H 0.42921 0.48748 0.8305 0.0
H340 H 0.50002 0.60134 0.93354 0.0
C341 C 0.60313 0.45729 0.91235 0.0
N342 N 0.56098 0.45564 0.887 0.0
C343 C 0.56376 0.39601 0.82314 0.0
C344 C 0.60772 0.39748 0.84793 0.0
C345 C 0.62712 0.42852 0.89345 0.0
C346 C 0.54099 0.42554 0.84329 0.0
H347 H 0.61864 0.48178 0.9466 0.0
H348 H 0.5078 0.42523 0.82307 0.0
C349 C 0.54877 0.52445 0.05822 0.0
C350 C 0.40323 0.38912 0.10173 0.0
N351 N 0.43192 0.50566 0.10208 0.0
C352 C 0.45576 0.53695 0.14294 0.0
C353 C 0.43607 0.5683 0.16493 0.0
C354 C 0.39124 0.56744 0.14505 0.0
C355 C 0.36755 0.53475 0.10266 0.0
C356 C 0.38863 0.50419 0.08165 0.0
C357 C 0.58433 0.56715 0.87741 0.0
O358 O 0.46142 0.44888 0.97875 0.0
O359 O 0.4619 0.45248 0.89956 0.0
O360 O 0.53378 0.51389 0.00978 0.0
O361 O 0.52968 0.50605 0.08686 0.0
O362 O 0.40648 0.38256 0.05539 0.0
O363 O 0.42675 0.42307 0.13149 0.0
O364 O 0.5851 0.57525 0.92505 0.0
O365 O 0.55753 0.53405 0.84979 0.0
H366 H 0.48989 0.53711 0.15927 0.0
H367 H 0.37009 0.47853 0.04987 0.0
H368 H 0.59235 0.36051 0.0783 0.0
H369 H 0.57239 0.4157 0.22566 0.0
H370 H 0.37085 0.52141 0.79573 0.0
H371 H 0.44532 0.63887 0.89746 0.0
H372 H 0.54767 0.37335 0.78739 0.0
H373 H 0.66084 0.43095 0.91392 0.0
H374 H 0.45566 0.59278 0.19754 0.0
H375 H 0.33269 0.53196 0.08685 0.0
Cd376 Cd 0.95963 0.45065 0.54699 0.0
Cd377 Cd 0.03683 0.51745 0.45728 0.0
C378 C 0.04795 0.42913 0.60013 0.0
N379 N 0.02042 0.42153 0.55296 0.0
C380 C 0.06315 0.37705 0.51662 0.0
C381 C 0.09202 0.38438 0.56486 0.0
C382 C 0.08458 0.41113 0.60691 0.0
C383 C 0.02726 0.3961 0.51149 0.0
H384 H 0.04084 0.44829 0.63277 0.0
H385 H 0.0048 0.39001 0.47455 0.0
C386 C 0.96267 0.43976 0.41521 0.0
C387 C 0.94969 0.53428 0.39293 0.0
C388 C 0.91123 0.54917 0.38278 0.0
C389 C 0.89622 0.56893 0.42377 0.0
C390 C 0.91853 0.57145 0.47399 0.0
C391 C 0.95664 0.55585 0.48235 0.0
N392 N 0.97139 0.53799 0.44204 0.0
H393 H 0.96314 0.52114 0.36179 0.0
H394 H 0.97528 0.55955 0.52097 0.0
C395 C 0.10125 0.47077 0.40968 0.0
N396 N 0.08887 0.47719 0.45446 0.0
C397 C 0.14404 0.44396 0.49144 0.0
C398 C 0.15711 0.43669 0.44541 0.0
C399 C 0.13555 0.45052 0.40428 0.0
C400 C 0.10925 0.46424 0.49506 0.0
H401 H 0.08435 0.48141 0.37806 0.0
H402 H 0.09868 0.46975 0.53023 0.0
C403 C 0.03609 0.52787 0.59003 0.0
C404 C 0.9035 0.38202 0.562 0.0
N405 N 0.90783 0.491 0.53914 0.0
C406 C 0.90783 0.52137 0.58006 0.0
C407 C 0.87134 0.53948 0.58015 0.0
C408 C 0.83466 0.52566 0.53811 0.0
C409 C 0.83607 0.49565 0.49539 0.0
C410 C 0.87351 0.47843 0.4968 0.0
C411 C 0.08723 0.58727 0.43925 0.0
O412 O 0.97216 0.45299 0.46342 0.0
O413 O 0.98689 0.45802 0.39144 0.0
O414 O 0.02735 0.5138 0.54196 0.0
O415 O 0.01074 0.5104 0.61345 0.0
O416 O 0.89763 0.3916 0.51935 0.0
O417 O 0.93514 0.40478 0.59813 0.0
O418 O 0.08162 0.58808 0.48363 0.0
O419 O 0.06778 0.55524 0.40365 0.0
H420 H 0.93499 0.52985 0.61366 0.0
H421 H 0.87431 0.45351 0.46535 0.0
H422 H 0.06781 0.35637 0.4834 0.0
H423 H 0.10564 0.41647 0.64493 0.0
H424 H 0.89515 0.54787 0.34362 0.0
H425 H 0.90785 0.58722 0.50624 0.0
H426 H 0.16001 0.4334 0.5237 0.0
H427 H 0.14421 0.44452 0.36782 0.0
H428 H 0.87083 0.56266 0.61367 0.0
H429 H 0.80804 0.4845 0.46257 0.0
Cd430 Cd 0.46482 0.95113 0.57041 0.0
Cd431 Cd 0.53199 0.01366 0.43309 0.0
C432 C 0.53648 0.92154 0.65688 0.0
N433 N 0.51954 0.91655 0.60586 0.0
C434 C 0.56187 0.86479 0.58629 0.0
C435 C 0.58046 0.86935 0.6386 0.0
C436 C 0.56706 0.8981 0.67415 0.0
C437 C 0.53168 0.88877 0.57081 0.0
H438 H 0.52605 0.94344 0.68423 0.0
H439 H 0.51729 0.8848 0.53052 0.0
C440 C 0.44844 0.93921 0.43164 0.0
C441 C 0.47881 0.05289 0.34314 0.0
C442 C 0.44971 0.07595 0.3218 0.0
C443 C 0.41995 0.09104 0.34867 0.0
C444 C 0.41932 0.08095 0.39571 0.0
C445 C 0.44871 0.05775 0.41544 0.0
N446 N 0.47816 0.04474 0.38953 0.0
H447 H 0.50292 0.04276 0.32349 0.0
H448 H 0.44903 0.05124 0.4524 0.0
C449 C 0.5573 0.94579 0.34421 0.0
N450 N 0.56447 0.95912 0.39592 0.0
C451 C 0.60994 0.90928 0.4078 0.0
C452 C 0.60322 0.89473 0.35455 0.0
C453 C 0.57642 0.91358 0.32266 0.0
C454 C 0.5903 0.94153 0.42767 0.0
H455 H 0.5365 0.96004 0.31959 0.0
H456 H 0.59563 0.95255 0.46861 0.0
C457 C 0.54762 0.02442 0.56967 0.0
C458 C 0.39502 0.88697 0.57026 0.0
N459 N 0.43201 0.00613 0.60824 0.0
C460 C 0.45524 0.03559 0.6514 0.0
C461 C 0.43624 0.06764 0.67348 0.0
C462 C 0.39246 0.06909 0.65181 0.0
C463 C 0.36886 0.03771 0.60813 0.0
C464 C 0.3894 0.00667 0.58669 0.0
C465 C 0.60192 0.0806 0.44113 0.0
O466 O 0.46191 0.95323 0.47989 0.0
O467 O 0.46716 0.95714 0.40272 0.0
O468 O 0.53288 0.0091 0.52183 0.0
O469 O 0.53015 0.00753 0.60023 0.0
O470 O 0.41506 0.88281 0.53458 0.0
O471 O 0.40791 0.92047 0.60546 0.0
O472 O 0.57604 0.08461 0.47069 0.0
O473 O 0.59515 0.04565 0.40913 0.0
H474 H 0.48866 0.03436 0.66891 0.0
H475 H 0.37119 -0.01714 0.55277 0.0
H476 H 0.56995 0.84223 0.55737 0.0
H477 H 0.58027 0.90259 0.71482 0.0
H478 H 0.4519 0.08352 0.28588 0.0
H479 H 0.39695 0.09182 0.41774 0.0
H480 H 0.63043 0.89595 0.434 0.0
H481 H 0.56952 0.90301 0.28147 0.0
H482 H 0.45556 0.09102 0.70734 0.0
H483 H 0.33513 0.03773 0.59002 0.0
C484 C 0.16367 0.15812 0.35235 0.0
C485 C 0.16927 0.14295 0.30277 0.0
C486 C 0.13866 0.13272 0.37626 0.0
C487 C 0.11741 0.09097 0.35158 0.0
H488 H 0.17871 0.19007 0.37315 0.0
H489 H 0.13529 0.14626 0.41408 0.0
S490 S 0.12231 0.03493 0.2224 0.0
N491 N 0.15188 0.08227 0.23074 0.0
N492 N 0.10492 0.03533 0.27497 0.0
C493 C 0.12302 0.07526 0.30228 0.0
C494 C 0.14883 0.1009 0.27816 0.0
C495 C 0.83483 0.13095 0.25283 0.0
C496 C 0.82212 0.1645 0.28195 0.0
C497 C 0.86389 0.10878 0.27583 0.0
C498 C 0.88112 0.11846 0.32927 0.0
H499 H 0.8228 0.12206 0.21163 0.0
H500 H 0.8735 0.08421 0.25104 0.0
S501 S 0.8566 0.20282 0.42325 0.0
N502 N 0.82933 0.2068 0.36719 0.0
N503 N 0.88107 0.16324 0.41089 0.0
C504 C 0.86791 0.15159 0.35903 0.0
C505 C 0.83913 0.17491 0.33531 0.0
C506 C 0.86549 0.83432 0.38279 0.0
C507 C 0.83403 0.83915 0.34116 0.0
C508 C 0.89852 0.86821 0.4136 0.0
C509 C 0.90123 0.90787 0.40357 0.0
H510 H 0.86586 0.80387 0.39052 0.0
H511 H 0.92354 0.8628 0.44339 0.0
S512 S 0.82271 0.93924 0.30623 0.0
N513 N 0.8045 0.88849 0.29665 0.0
N514 N 0.86692 0.95174 0.35442 0.0
C515 C 0.86837 0.91387 0.36475 0.0
C516 C 0.83462 0.8796 0.33356 0.0
C517 C 0.18084 0.82118 0.32694 0.0
C518 C 0.17026 0.80649 0.27336 0.0
C519 C 0.15788 0.84871 0.35103 0.0
C520 C 0.12322 0.86248 0.32256 0.0
H521 H 0.20757 0.81195 0.35047 0.0
H522 H 0.16749 0.85941 0.39231 0.0
S523 S 0.08257 0.83306 0.18108 0.0
N524 N 0.12224 0.80726 0.19266 0.0
N525 N 0.07996 0.85937 0.23753 0.0
C526 C 0.11199 0.84748 0.26897 0.0
C527 C 0.13525 0.81944 0.24453 0.0
C528 C 0.17327 0.82792 0.70526 0.0
C529 C 0.15355 0.79171 0.71769 0.0
C530 C 0.14748 0.85164 0.6797 0.0
C531 C 0.10107 0.83948 0.66445 0.0
H532 H 0.2088 0.83864 0.71654 0.0
H533 H 0.16397 0.87972 0.67179 0.0
S534 S 0.03358 0.7461 0.68584 0.0
N535 N 0.08491 0.74436 0.71159 0.0
N536 N 0.03678 0.7882 0.66298 0.0
C537 C 0.08118 0.80273 0.67553 0.0
C538 C 0.1073 0.77907 0.70226 0.0
C539 C 0.13846 0.09232 0.67173 0.0
C540 C 0.15005 0.12839 0.65448 0.0
C541 C 0.1059 0.0584 0.64086 0.0
C542 C 0.08377 0.05895 0.59132 0.0
H543 H 0.15385 0.09042 0.70987 0.0
H544 H 0.09759 0.03172 0.65638 0.0
S545 S 0.1035 0.14443 0.52649 0.0
N546 N 0.13843 0.16159 0.58326 0.0
N547 N 0.07648 0.09768 0.52562 0.0
C548 C 0.09589 0.09408 0.5728 0.0
C549 C 0.12913 0.12886 0.60433 0.0
C550 C 0.8458 0.15808 0.70528 0.0
C551 C 0.80394 0.14226 0.7119 0.0
C552 C 0.86971 0.13151 0.68086 0.0
C553 C 0.85231 0.08824 0.66108 0.0
H554 H 0.86073 0.19097 0.72029 0.0
H555 H 0.90212 0.14496 0.67747 0.0
S556 S 0.74309 0.03168 0.6666 0.0
N557 N 0.74564 0.08069 0.69523 0.0
N558 N 0.78996 0.03131 0.64934 0.0
C559 C 0.80996 0.07242 0.66637 0.0
C560 C 0.786 0.09924 0.69173 0.0
C561 C 0.83445 0.79046 0.62481 0.0
C562 C 0.82565 0.80494 0.67288 0.0
C563 C 0.85799 0.81763 0.60145 0.0
C564 C 0.87412 0.86048 0.62524 0.0
H565 H 0.82301 0.75784 0.60484 0.0
H566 H 0.86425 0.80475 0.5649 0.0
S567 S 0.85842 0.91527 0.74971 0.0
N568 N 0.83419 0.86617 0.74216 0.0
N569 N 0.87785 0.91628 0.69875 0.0
C570 C 0.86504 0.87542 0.67283 0.0
C571 C 0.84105 0.84802 0.69642 0.0
C572 C 0.27178 0.09397 0.04376 0.0
C573 C 0.24642 0.08636 0.0784 0.0
C574 C 0.29551 0.06502 0.02584 0.0
C575 C 0.29455 0.02785 0.04183 0.0
H576 H 0.27685 0.12406 0.0344 0.0
H577 H 0.31856 0.07388 0.00432 0.0
S578 S 0.22501 -0.01095 0.12222 0.0
N579 N 0.21482 0.0357 0.1203 0.0
N580 N 0.26048 -0.01856 0.08668 0.0
C581 C 0.26493 0.01751 0.07101 0.0
C582 C 0.24026 0.0468 0.08905 0.0
C583 C 0.7975 0.31519 0.07512 0.0
C584 C 0.81115 0.29694 0.11561 0.0
C585 C 0.82711 0.34633 0.06446 0.0
C586 C 0.87051 0.36087 0.09522 0.0
H587 H 0.7638 0.30575 0.05217 0.0
H588 H 0.81562 0.35988 0.03298 0.0
S589 S 0.92104 0.32315 0.2068 0.0
N590 N 0.87014 0.29521 0.18654 0.0
N591 N 0.92541 0.35406 0.16761 0.0
C592 C 0.88425 0.34248 0.13574 0.0
C593 C 0.85457 0.31042 0.14572 0.0
C594 C 0.71396 0.87066 0.11945 0.0
C595 C 0.70328 0.82737 0.09857 0.0
C596 C 0.68616 0.89583 0.1019 0.0
C597 C 0.64783 0.87825 0.0624 0.0
H598 H 0.74106 0.88449 0.15286 0.0
H599 H 0.69262 0.92842 0.122 0.0
S600 S 0.61277 0.76816 0.98694 0.0
N601 N 0.65754 0.76921 0.03056 0.0
N602 N 0.60523 0.81658 -0.00313 0.0
C603 C 0.64048 0.83602 0.03669 0.0
C604 C 0.66844 0.81043 0.055 0.0
C605 C 0.10114 0.63541 0.15719 0.0
C606 C 0.14292 0.64041 0.14678 0.0
C607 C 0.06803 0.60047 0.13045 0.0
C608 C 0.0758 0.56933 0.09276 0.0
H609 H 0.0944 0.65809 0.18717 0.0
H610 H 0.03656 0.59704 0.14057 0.0
S611 S 0.18023 0.56677 0.05313 0.0
N612 N 0.1905 0.61144 0.09653 0.0
N613 N 0.12825 0.54483 0.04721 0.0
C614 C 0.11703 0.57428 0.08113 0.0
C615 C 0.15068 0.61019 0.10795 0.0
C616 C 0.34958 0.87771 0.82631 0.0
C617 C 0.34706 0.83979 0.84136 0.0
C618 C 0.38588 0.91112 0.84906 0.0
C619 C 0.42103 0.90753 0.88724 0.0
H620 H 0.32323 0.88155 0.79677 0.0
H621 H 0.38616 0.94013 0.83722 0.0
S622 S 0.43379 0.81208 0.93288 0.0
N623 N 0.38459 0.79903 0.89259 0.0
N624 N 0.45337 0.86135 0.93446 0.0
C625 C 0.41955 0.86926 0.90127 0.0
C626 C 0.38237 0.83545 0.87852 0.0
C627 C 0.13531 0.29137 0.84138 0.0
C628 C 0.16207 0.29225 0.80641 0.0
C629 C 0.11564 0.32485 0.85709 0.0
C630 C 0.12167 0.36114 0.83869 0.0
H631 H 0.1303 0.26482 0.85804 0.0
H632 H 0.09588 0.32243 0.88455 0.0
S633 S 0.18731 0.37905 0.74482 0.0
N634 N 0.19219 0.33206 0.75225 0.0
N635 N 0.15555 0.39534 0.78194 0.0
C636 C 0.14708 0.36199 0.80218 0.0
C637 C 0.16718 0.32756 0.78606 0.0
C638 C 0.62598 0.18133 0.88184 0.0
C639 C 0.67196 0.1859 0.89793 0.0
C640 C 0.59732 0.15417 0.89888 0.0
C641 C 0.6137 0.13163 0.93363 0.0
H642 H 0.61186 0.19623 0.85284 0.0
H643 H 0.56214 0.14934 0.88291 0.0
S644 S 0.73136 0.13874 0.99455 0.0
N645 N 0.73266 0.16988 0.9551 0.0
N646 N 0.67861 0.11984 0.98889 0.0
C647 C 0.65954 0.13919 0.95403 0.0
C648 C 0.68879 0.16615 0.93569 0.0
C649 C 0.88348 0.70026 0.84362 0.0
C650 C 0.84231 0.68574 0.80796 0.0
C651 C 0.91002 0.67272 0.85803 0.0
C652 C 0.89658 0.62921 0.83765 0.0
H653 H 0.89508 0.73334 0.86136 0.0
H654 H 0.94123 0.68565 0.88601 0.0
S655 S 0.7906 0.57471 0.74458 0.0
N656 N 0.78867 0.62468 0.75379 0.0
N657 N 0.83873 0.57288 0.78013 0.0
C658 C 0.85574 0.61421 0.80123 0.0
C659 C 0.82856 0.64242 0.78664 0.0
C660 C 0.11562 0.26168 0.12373 0.0
C661 C 0.15182 0.27141 0.16656 0.0
C662 C 0.09183 0.29174 0.11137 0.0
C663 C 0.10311 0.3332 0.14114 0.0
H664 H 0.1057 0.23046 0.09891 0.0
H665 H 0.06418 0.28226 0.07806 0.0
S666 S 0.19577 0.37535 0.25704 0.0
N667 N 0.19795 0.32568 0.23888 0.0
N668 N 0.1536 0.38243 0.21564 0.0
C669 C 0.13899 0.34334 0.18461 0.0
C670 C 0.16324 0.31248 0.19727 0.0
C671 C 0.16464 0.6875 0.93604 0.0
C672 C 0.201 0.67715 0.91821 0.0
C673 C 0.13568 0.65757 0.94955 0.0
C674 C 0.14208 0.61644 0.94496 0.0
H675 H 0.15628 0.71756 0.93528 0.0
H676 H 0.10618 0.66566 0.95927 0.0
S677 S 0.23819 0.57705 0.9126 0.0
N678 N 0.24651 0.62566 0.90665 0.0
N679 N 0.19147 0.56924 0.93044 0.0
C680 C 0.18089 0.60727 0.93273 0.0
C681 C 0.21064 0.6378 0.91991 0.0
C682 C 0.32165 0.15522 0.9346 0.0
C683 C 0.28519 0.13608 0.89325 0.0
C684 C 0.35248 0.13267 0.95156 0.0
C685 C 0.3474 0.09044 0.92754 0.0
H686 H 0.32894 0.18862 0.9504 0.0
H687 H 0.38234 0.14927 0.98024 0.0
S688 S 0.2517 0.02357 0.82753 0.0
N689 N 0.2409 0.07085 0.83596 0.0
N690 N 0.29949 0.02822 0.86815 0.0
C691 C 0.30826 0.06968 0.89098 0.0
C692 C 0.27668 0.09263 0.87384 0.0
C693 C 0.85586 0.36515 0.8278 0.0
C694 C 0.84858 0.3295 0.84703 0.0
C695 C 0.88822 0.40041 0.85545 0.0
C696 C 0.91485 0.40135 0.90336 0.0
H697 H 0.83648 0.36576 0.79075 0.0
H698 H 0.89273 0.42702 0.83878 0.0
S699 S 0.9108 0.31485 0.96916 0.0
N700 N 0.87071 0.29671 0.91641 0.0
N701 N 0.93335 0.36263 0.96776 0.0
C702 C 0.90792 0.3659 0.92325 0.0
C703 C 0.87425 0.33004 0.89524 0.0
C704 C 0.71539 0.89735 0.83842 0.0
C705 C 0.73453 0.87242 0.86812 0.0
C706 C 0.69066 0.92469 0.85778 0.0
C707 C 0.68428 0.92781 0.90731 0.0
H708 H 0.71645 0.89341 0.7987 0.0
H709 H 0.67388 0.94131 0.83255 0.0
S710 S 0.73894 0.87821 0.0044 0.0
N711 N 0.75408 0.85901 0.95224 0.0
N712 N 0.70682 0.91033 0.989 0.0
C713 C 0.70807 0.90711 0.93945 0.0
C714 C 0.73341 0.87925 0.91961 0.0
C715 C 0.82312 0.63975 0.20235 0.0
C716 C 0.83189 0.67779 0.18809 0.0
C717 C 0.84547 0.60756 0.18833 0.0
C718 C 0.87743 0.61233 0.1597 0.0
H719 H 0.79741 0.63403 0.22218 0.0
H720 H 0.83633 0.57812 0.19812 0.0
S721 S 0.91751 0.70875 0.12095 0.0
N722 N 0.87807 0.71999 0.1489 0.0
N723 N 0.92041 0.66043 0.12389 0.0
C724 C 0.88832 0.65132 0.14839 0.0
C725 C 0.8655 0.68374 0.16226 0.0
C726 C 0.35125 0.7848 0.09024 0.0
C727 C 0.31966 0.80169 0.11214 0.0
C728 C 0.38272 0.81021 0.07438 0.0
C729 C 0.38398 0.85314 0.08195 0.0
H730 H 0.35237 0.75215 0.08673 0.0
H731 H 0.40722 0.79673 0.05835 0.0
S732 S 0.30766 0.9119 0.13536 0.0
N733 N 0.29012 0.86329 0.13773 0.0
N734 N 0.35036 0.91118 0.10978 0.0
C735 C 0.3518 0.87001 0.10215 0.0
C736 C 0.31918 0.84414 0.11681 0.0
C737 C 0.63263 0.09919 0.18889 0.0
C738 C 0.63866 0.13594 0.17157 0.0
C739 C 0.59853 0.0649 0.16174 0.0
C740 C 0.56931 0.06635 0.11652 0.0
H741 H 0.65496 0.09656 0.22305 0.0
H742 H 0.59558 0.03675 0.17564 0.0
S743 S 0.56626 0.15816 0.06065 0.0
N744 N 0.60983 0.17348 0.10975 0.0
N745 N 0.54526 0.10932 0.05938 0.0
C746 C 0.57385 0.10355 0.10008 0.0
C747 C 0.6087 0.13833 0.12748 0.0
C748 C 0.65687 0.66321 0.85629 0.0
C749 C 0.66404 0.64867 0.80735 0.0
C750 C 0.63197 0.6368 0.87921 0.0
C751 C 0.61259 0.59472 0.85414 0.0
H752 H 0.67073 0.69526 0.87732 0.0
H753 H 0.62735 0.64975 0.91667 0.0
S754 S 0.62196 0.54027 0.72623 0.0
N755 N 0.6499 0.58836 0.73535 0.0
N756 N 0.60344 0.5396 0.77787 0.0
C757 C 0.61971 0.57972 0.80541 0.0
C758 C 0.64526 0.60639 0.7823 0.0
C759 C 0.33007 0.66315 0.82546 0.0
C760 C 0.31298 0.65407 0.77216 0.0
C761 C 0.35819 0.6397 0.8479 0.0
C762 C 0.37102 0.60641 0.81804 0.0
H763 H 0.32234 0.68906 0.85014 0.0
H764 H 0.37021 0.64802 0.88911 0.0
S765 S 0.3361 0.57062 0.67619 0.0
N766 N 0.3105 0.60907 0.69005 0.0
N767 N 0.36474 0.56658 0.73154 0.0
C768 C 0.35387 0.59697 0.76457 0.0
C769 C 0.32466 0.6204 0.74187 0.0
C770 C 0.37233 0.32796 0.88786 0.0
C771 C 0.33672 0.33354 0.85158 0.0
C772 C 0.40621 0.36198 0.91678 0.0
C773 C 0.40529 0.40235 0.91015 0.0
H774 H 0.37521 0.29698 0.89226 0.0
H775 H 0.43441 0.35633 0.94214 0.0
S776 S 0.31588 0.43507 0.82819 0.0
N777 N 0.29987 0.38387 0.81665 0.0
N778 N 0.36389 0.44723 0.87059 0.0
C779 C 0.36855 0.40882 0.87709 0.0
C780 C 0.33407 0.3745 0.84789 0.0
C781 C 0.70209 0.36021 0.79743 0.0
C782 C 0.68633 0.31685 0.77796 0.0
C783 C 0.67683 0.38562 0.82061 0.0
C784 C 0.63433 0.36895 0.82486 0.0
H785 H 0.73436 0.37478 0.79469 0.0
H786 H 0.69044 0.41886 0.83436 0.0
S787 S 0.57765 0.25708 0.78017 0.0
N788 N 0.62537 0.25823 0.76453 0.0
N789 N 0.57802 0.30576 0.80826 0.0
C790 C 0.61821 0.3255 0.80575 0.0
C791 C 0.64416 0.29954 0.78242 0.0
C792 C 0.64179 0.29589 0.18397 0.0
C793 C 0.67182 0.31388 0.2317 0.0
C794 C 0.61557 0.31948 0.15916 0.0
C795 C 0.61874 0.36221 0.18071 0.0
H796 H 0.63742 0.26298 0.16639 0.0
H797 H 0.59163 0.30371 0.12355 0.0
S798 S 0.69765 0.42541 0.30128 0.0
N799 N 0.70628 0.37759 0.29738 0.0
N800 N 0.65835 0.42236 0.25012 0.0
C801 C 0.65041 0.38096 0.22726 0.0
C802 C 0.6766 0.35673 0.25284 0.0
C803 C 0.62715 0.62983 0.09768 0.0
C804 C 0.65669 0.62687 0.14207 0.0
C805 C 0.59368 0.59559 0.06829 0.0
C806 C 0.58845 0.55752 0.0827 0.0
H807 H 0.62887 0.65912 0.08637 0.0
H808 H 0.57041 0.59963 0.03578 0.0
S809 S 0.66034 0.53086 0.19033 0.0
N810 N 0.6811 0.58039 0.19489 0.0
N811 N 0.61773 0.51694 0.14019 0.0
C812 C 0.61908 0.55326 0.12493 0.0
C813 C 0.65336 0.58771 0.15449 0.0
C814 C 0.35401 0.63812 0.24829 0.0
C815 C 0.3234 0.65634 0.22027 0.0
C816 C 0.37616 0.61007 0.2238 0.0
C817 C 0.36887 0.5991 0.17012 0.0
H818 H 0.36034 0.64489 0.28958 0.0
H819 H 0.39842 0.59608 0.24716 0.0
S820 S 0.29532 0.64125 0.07915 0.0
N821 N 0.28876 0.66295 0.13575 0.0
N822 N 0.33121 0.61142 0.09001 0.0
C823 C 0.33937 0.61813 0.14171 0.0
C824 C 0.31654 0.64645 0.16666 0.0
C825 C 0.34521 0.34324 0.19378 0.0
C826 C 0.32236 0.3028 0.16532 0.0
C827 C 0.37072 0.37044 0.17269 0.0
C828 C 0.37449 0.35909 0.12178 0.0
H829 H 0.34385 0.35397 0.23307 0.0
H830 H 0.38778 0.40091 0.19696 0.0
S831 S 0.31927 0.25778 0.02947 0.0
N832 N 0.30418 0.25336 0.08238 0.0
N833 N 0.35156 0.30458 0.04286 0.0
C834 C 0.35125 0.319 0.09247 0.0
C835 C 0.32551 0.291 0.1142 0.0
C836 C 0.74269 0.54966 0.59591 0.0
C837 C 0.74027 0.58892 0.58637 0.0
C838 C 0.76937 0.52574 0.57372 0.0
C839 C 0.79442 0.54098 0.54219 0.0
H840 H 0.72838 0.53976 0.62516 0.0
H841 H 0.77434 0.49762 0.58588 0.0
S842 S 0.79437 0.63971 0.50169 0.0
N843 N 0.75981 0.6395 0.53894 0.0
N844 N 0.81144 0.59534 0.49863 0.0
C845 C 0.78827 0.57795 0.52819 0.0
C846 C 0.7605 0.60175 0.54993 0.0
C847 C 0.2958 0.83505 0.60667 0.0
C848 C 0.30212 0.79398 0.60219 0.0
C849 C 0.32467 0.86466 0.59304 0.0
C850 C 0.35983 0.85374 0.57317 0.0
H851 H 0.27091 0.84535 0.62494 0.0
H852 H 0.32081 0.89678 0.6005 0.0
S853 S 0.3855 0.74852 0.54587 0.0
N854 N 0.34275 0.74262 0.57142 0.0
N855 N 0.39598 0.79804 0.54359 0.0
C856 C 0.36367 0.81183 0.56361 0.0
C857 C 0.33499 0.78192 0.57876 0.0
C858 C 0.20071 0.35813 0.61759 0.0
C859 C 0.18939 0.31434 0.60611 0.0
C860 C 0.1697 0.38102 0.60129 0.0
C861 C 0.12675 0.3606 0.57304 0.0
H862 H 0.23246 0.37486 0.6424 0.0
H863 H 0.17854 0.41481 0.61313 0.0
S864 S 0.08284 0.24649 0.52754 0.0
N865 N 0.13432 0.25139 0.55926 0.0
N866 N 0.0755 0.29455 0.53091 0.0
C867 C 0.11618 0.3169 0.55822 0.0
C868 C 0.14786 0.29366 0.57392 0.0
C869 C 0.60433 0.12953 0.65621 0.0
C870 C 0.64585 0.13647 0.64522 0.0
C871 C 0.57216 0.09394 0.62951 0.0
C872 C 0.58029 0.0639 0.59089 0.0
H873 H 0.59696 0.15124 0.68668 0.0
H874 H 0.54097 0.08935 0.64016 0.0
S875 S 0.68349 0.06717 0.54721 0.0
N876 N 0.69322 0.11086 0.5922 0.0
N877 N 0.63243 0.04312 0.54246 0.0
C878 C 0.62102 0.0709 0.57814 0.0
C879 C 0.65392 0.10751 0.6052 0.0
C880 C 0.87351 0.3418 0.3865 0.0
C881 C 0.84808 0.34082 0.3379 0.0
C882 C 0.911 0.37348 0.41072 0.0
C883 C 0.92419 0.40565 0.38776 0.0
H884 H 0.86509 0.31741 0.40559 0.0
H885 H 0.93027 0.37219 0.44724 0.0
S886 S 0.86816 0.41853 0.26152 0.0
N887 N 0.83834 0.37551 0.26788 0.0
N888 N 0.90861 0.4351 0.31395 0.0
C889 C 0.89908 0.40519 0.33923 0.0
C890 C 0.86098 0.37287 0.3143 0.0
C891 C 0.64109 0.79109 0.33738 0.0
C892 C 0.66495 0.79179 0.29953 0.0
C893 C 0.62068 0.82385 0.35379 0.0
C894 C 0.623 0.85915 0.3332 0.0
H895 H 0.6389 0.76525 0.3556 0.0
H896 H 0.6032 0.82163 0.38338 0.0
S897 S 0.68055 0.87641 0.23221 0.0
N898 N 0.68869 0.83049 0.2408 0.0
N899 N 0.65066 0.8924 0.27185 0.0
C900 C 0.64566 0.85984 0.29415 0.0
C901 C 0.66654 0.82619 0.27732 0.0
C902 C 0.14068 0.68006 0.40049 0.0
C903 C 0.18009 0.66864 0.39273 0.0
C904 C 0.11139 0.65495 0.41933 0.0
C905 C 0.12103 0.61799 0.43068 0.0
H906 H 0.13124 0.70724 0.3893 0.0
H907 H 0.08011 0.66313 0.42219 0.0
S908 S 0.22131 0.57637 0.42211 0.0
N909 N 0.22884 0.6199 0.40249 0.0
N910 N 0.17305 0.5723 0.4367 0.0
C911 C 0.16134 0.60759 0.42621 0.0
C912 C 0.1913 0.63322 0.40765 0.0
C913 C 0.36789 0.18614 0.35173 0.0
C914 C 0.33966 0.17831 0.30257 0.0
C915 C 0.39353 0.15793 0.36566 0.0
C916 C 0.39266 0.12046 0.33104 0.0
H917 H 0.36995 0.21429 0.3804 0.0
H918 H 0.41444 0.1657 0.40411 0.0
S919 S 0.32557 0.08518 0.19702 0.0
N920 N 0.31299 0.13041 0.21869 0.0
N921 N 0.36175 0.07727 0.24467 0.0
C922 C 0.36535 0.11242 0.28126 0.0
C923 C 0.33869 0.14125 0.26713 0.0
C924 C 0.63496 0.79328 0.70479 0.0
C925 C 0.66696 0.78497 0.67764 0.0
C926 C 0.60818 0.82185 0.69359 0.0
C927 C 0.61271 0.84337 0.65514 0.0
H928 H 0.62912 0.77618 0.73306 0.0
H929 H 0.58252 0.82573 0.71365 0.0
S930 S 0.69804 0.83878 0.58086 0.0
N931 N 0.70553 0.80454 0.61566 0.0
N932 N 0.6566 0.85863 0.59576 0.0
C933 C 0.64694 0.83744 0.63068 0.0
C934 C 0.67366 0.8082 0.64164 0.0
C935 C 0.70086 0.1367 0.40868 0.0
C936 C 0.69254 0.17706 0.41181 0.0
C937 C 0.67306 0.10631 0.42226 0.0
C938 C 0.63656 0.11545 0.44042 0.0
H939 H 0.72683 0.1274 0.39171 0.0
H940 H 0.6787 0.07476 0.41562 0.0
S941 S 0.60656 0.21896 0.46668 0.0
N942 N 0.64967 0.22656 0.44203 0.0
N943 N 0.59776 0.16936 0.46885 0.0
C944 C 0.63102 0.15695 0.44961 0.0
C945 C 0.65904 0.18787 0.43498 0.0
C946 C 0.79317 0.59965 0.36254 0.0
C947 C 0.80576 0.6434 0.37803 0.0
C948 C 0.82173 0.57501 0.37998 0.0
C949 C 0.86296 0.59369 0.41388 0.0
H950 H 0.76267 0.58451 0.33417 0.0
H951 H 0.81253 0.54141 0.3652 0.0
S952 S 0.90825 0.70673 0.4707 0.0
N953 N 0.85976 0.70426 0.43283 0.0
N954 N 0.91348 0.65785 0.4656 0.0
C955 C 0.87444 0.63724 0.43234 0.0
C956 C 0.84568 0.66221 0.41438 0.0
C957 C 0.3919 0.83635 0.33904 0.0
C958 C 0.35136 0.82714 0.35171 0.0
C959 C 0.42368 0.87198 0.36682 0.0
C960 C 0.41595 0.89986 0.40801 0.0
H961 H 0.39882 0.81628 0.30679 0.0
H962 H 0.45429 0.87823 0.35521 0.0
S963 S 0.3143 0.89103 0.45506 0.0
N964 N 0.30487 0.84876 0.40804 0.0
N965 N 0.3645 0.91685 0.45921 0.0
C966 C 0.37588 0.89087 0.42167 0.0
C967 C 0.34356 0.85414 0.39374 0.0
C968 C 0.24472 0.39292 0.39206 0.0
C969 C 0.23151 0.3505 0.39048 0.0
C970 C 0.22309 0.42221 0.4147 0.0
C971 C 0.18841 0.40964 0.43677 0.0
H972 H 0.26876 0.40289 0.37174 0.0
H973 H 0.23119 0.45419 0.41159 0.0
S974 S 0.14682 0.30279 0.44817 0.0
N975 N 0.18641 0.29808 0.41828 0.0
N976 N 0.14532 0.35284 0.46 0.0
C977 C 0.17838 0.36801 0.43986 0.0
C978 C 0.2002 0.33841 0.41688 0.0
C979 C 0.31093 0.12914 0.70354 0.0
C980 C 0.32864 0.17073 0.70416 0.0
C981 C 0.33204 0.09641 0.68756 0.0
C982 C 0.37217 0.10421 0.67288 0.0
H983 H 0.27938 0.12149 0.7126 0.0
H984 H 0.31645 0.06467 0.68576 0.0
S985 S 0.43354 0.20808 0.67145 0.0
N986 N 0.38937 0.21795 0.69062 0.0
N987 N 0.42957 0.15714 0.6627 0.0
C988 C 0.3911 0.14594 0.67586 0.0
C989 C 0.36919 0.17895 0.6909 0.0
C990 C 0.86568 0.28912 0.61131 0.0
C991 C 0.81951 0.28411 0.59799 0.0
C992 C 0.89276 0.32022 0.59799 0.0
C993 C 0.87448 0.34634 0.56962 0.0
H994 H 0.88123 0.27108 0.63548 0.0
H995 H 0.92823 0.32475 0.61137 0.0
S996 S 0.7557 0.34174 0.51853 0.0
N997 N 0.7566 0.30491 0.55044 0.0
N998 N 0.80786 0.36254 0.5236 0.0
C999 C 0.82846 0.3392 0.55194 0.0
C1000 C 0.8008 0.30811 0.56649 0.0
C1001 C 0.10298 0.62581 0.68947 0.0
C1002 C 0.14052 0.63584 0.67096 0.0
C1003 C 0.06909 0.59102 0.66285 0.0
C1004 C 0.07185 0.56494 0.6171 0.0
H1005 H 0.09969 0.64514 0.72456 0.0
H1006 H 0.04053 0.58459 0.67816 0.0
S1007 S 0.16722 0.57458 0.55802 0.0
N1008 N 0.1806 0.61543 0.60735 0.0
N1009 N 0.11779 0.54968 0.55802 0.0
C1010 C 0.11001 0.57428 0.59932 0.0
C1011 C 0.14415 0.60986 0.62607 0.0
loop_
_geom_bond_atom_site_label_1
_geom_bond_atom_site_label_2
_geom_bond_distance
_geom_bond_site_symmetry_2
_ccdc_geom_bond_type
Tb0 O3 2.453 . S
Tb0 O4 2.596 . S
Tb0 O5 2.374 . S
Tb0 O13 2.343 . S
Tb0 O15 2.353 . S
Tb0 O17 2.427 . S
Tb0 O18 2.513 . S
C1 O5 1.251 . S
C1 O7 1.263 . S
Tb2 O4 2.343 . S
Tb2 O7 2.353 . S
Tb2 O10 2.427 . S
Tb2 O11 2.513 . S
Tb2 O12 2.453 . S
Tb2 O13 2.596 . S
Tb2 O14 2.374 . S
O3 Tb0 2.453 . S
O3 C19 1.245 . S
O4 Tb0 2.596 . S
O4 Tb2 2.343 . S
O4 C19 1.259 . S
O5 Tb0 2.374 . S
O5 C1 1.251 . S
C6 O10 1.275 . S
C6 O11 1.246 . S
O7 C1 1.263 . S
O7 Tb2 2.353 . S
C8 O12 1.245 . S
C8 O13 1.259 . S
C9 O14 1.250 . S
C9 O15 1.263 . S
O10 Tb2 2.427 . S
O10 C6 1.275 . S
O11 Tb2 2.513 . S
O11 C6 1.246 . S
O12 Tb2 2.453 . S
O12 C8 1.245 . S
O13 Tb0 2.343 . S
O13 Tb2 2.596 . S
O13 C8 1.259 . S
O14 Tb2 2.374 . S
O14 C9 1.250 . S
O15 Tb0 2.353 . S
O15 C9 1.263 . S
C16 O17 1.275 . S
C16 O18 1.246 . S
O17 Tb0 2.427 . S
O17 C16 1.275 . S
O18 Tb0 2.513 . S
O18 C16 1.246 . S
C19 O3 1.245 . S
C19 O4 1.259 . S
Tb20 O23 2.453 . S
Tb20 O24 2.596 . S
Tb20 O25 2.374 . S
Tb20 O33 2.343 . S
Tb20 O35 2.353 . S
Tb20 O37 2.427 . S
Tb20 O38 2.513 . S
C21 O25 1.251 . S
C21 O27 1.263 . S
Tb22 O24 2.343 . S
Tb22 O27 2.353 . S
Tb22 O30 2.427 . S
Tb22 O31 2.513 . S
Tb22 O32 2.453 . S
Tb22 O33 2.596 . S
Tb22 O34 2.374 . S
O23 Tb20 2.453 . S
O23 C39 1.245 . S
O24 Tb20 2.596 . S
O24 Tb22 2.343 . S
O24 C39 1.259 . S
O25 Tb20 2.374 . S
O25 C21 1.251 . S
C26 O30 1.275 . S
C26 O31 1.246 . S
O27 C21 1.263 . S
O27 Tb22 2.353 . S
C28 O32 1.245 . S
C28 O33 1.259 . S
C29 O34 1.250 . S
C29 O35 1.263 . S
O30 Tb22 2.427 . S
O30 C26 1.275 . S
O31 Tb22 2.513 . S
O31 C26 1.246 . S
O32 Tb22 2.453 . S
O32 C28 1.245 . S
O33 Tb20 2.343 . S
O33 Tb22 2.596 . S
O33 C28 1.259 . S
O34 Tb22 2.374 . S
O34 C29 1.250 . S
O35 Tb20 2.353 . S
O35 C29 1.263 . S
C36 O37 1.275 . S
C36 O38 1.246 . S
O37 Tb20 2.427 . S
O37 C36 1.275 . S
O38 Tb20 2.513 . S
O38 C36 1.246 . S
C39 O23 1.245 . S
C39 O24 1.259 . S
Tb40 O43 2.453 . S
Tb40 O44 2.596 . S
Tb40 O45 2.374 . S
Tb40 O53 2.343 . S
Tb40 O55 2.353 . S
Tb40 O57 2.427 . S
Tb40 O58 2.513 . S
C41 O45 1.251 . S
C41 O47 1.263 . S
Tb42 O44 2.343 . S
Tb42 O47 2.353 . S
Tb42 O50 2.427 . S
Tb42 O51 2.513 . S
Tb42 O52 2.453 . S
Tb42 O53 2.596 . S
Tb42 O54 2.374 . S
O43 Tb40 2.453 . S
O43 C59 1.245 . S
O44 Tb40 2.596 . S
O44 Tb42 2.343 . S
O44 C59 1.259 . S
O45 Tb40 2.374 . S
O45 C41 1.251 . S
C46 O50 1.275 . S
C46 O51 1.246 . S
O47 C41 1.263 . S
O47 Tb42 2.353 . S
C48 O52 1.245 . S
C48 O53 1.259 . S
C49 O54 1.250 . S
C49 O55 1.263 . S
O50 Tb42 2.427 . S
O50 C46 1.275 . S
O51 Tb42 2.513 . S
O51 C46 1.246 . S
O52 Tb42 2.453 . S
O52 C48 1.245 . S
O53 Tb40 2.343 . S
O53 Tb42 2.596 . S
O53 C48 1.259 . S
O54 Tb42 2.374 . S
O54 C49 1.250 . S
O55 Tb40 2.353 . S
O55 C49 1.263 . S
C56 O57 1.275 . S
C56 O58 1.246 . S
O57 Tb40 2.427 . S
O57 C56 1.275 . S
O58 Tb40 2.513 . S
O58 C56 1.246 . S
C59 O43 1.245 . S
C59 O44 1.259 . S
Tb60 O63 2.453 . S
Tb60 O64 2.596 . S
Tb60 O65 2.374 . S
Tb60 O73 2.343 . S
Tb60 O75 2.353 . S
Tb60 O77 2.427 . S
Tb60 O78 2.513 . S
C61 O65 1.251 . S
C61 O67 1.263 . S
Tb62 O64 2.343 . S
Tb62 O67 2.353 . S
Tb62 O70 2.427 . S
Tb62 O71 2.513 . S
Tb62 O72 2.453 . S
Tb62 O73 2.596 . S
Tb62 O74 2.374 . S
O63 Tb60 2.453 . S
O63 C79 1.245 . S
O64 Tb60 2.596 . S
O64 Tb62 2.343 . S
O64 C79 1.259 . S
O65 Tb60 2.374 . S
O65 C61 1.251 . S
C66 O70 1.275 . S
C66 O71 1.246 . S
O67 C61 1.263 . S
O67 Tb62 2.353 . S
C68 O72 1.245 . S
C68 O73 1.259 . S
C69 O74 1.250 . S
C69 O75 1.263 . S
O70 Tb62 2.427 . S
O70 C66 1.275 . S
O71 Tb62 2.513 . S
O71 C66 1.246 . S
O72 Tb62 2.453 . S
O72 C68 1.245 . S
O73 Tb60 2.343 . S
O73 Tb62 2.596 . S
O73 C68 1.259 . S
O74 Tb62 2.374 . S
O74 C69 1.250 . S
O75 Tb60 2.353 . S
O75 C69 1.263 . S
C76 O77 1.275 . S
C76 O78 1.246 . S
O77 Tb60 2.427 . S
O77 C76 1.275 . S
O78 Tb60 2.513 . S
O78 C76 1.246 . S
C79 O63 1.245 . S
C79 O64 1.259 . S
Tb80 O83 2.453 . S
Tb80 O84 2.596 . S
Tb80 O85 2.374 . S
Tb80 O93 2.343 . S
Tb80 O95 2.353 . S
Tb80 O97 2.427 . S
Tb80 O98 2.513 . S
C81 O85 1.251 . S
C81 O87 1.263 . S
Tb82 O84 2.343 . S
Tb82 O87 2.353 . S
Tb82 O90 2.427 . S
Tb82 O91 2.513 . S
Tb82 O92 2.453 . S
Tb82 O93 2.596 . S
Tb82 O94 2.374 . S
O83 Tb80 2.453 . S
O83 C99 1.245 . S
O84 Tb80 2.596 . S
O84 Tb82 2.343 . S
O84 C99 1.259 . S
O85 Tb80 2.374 . S
O85 C81 1.251 . S
C86 O90 1.275 . S
C86 O91 1.246 . S
O87 C81 1.263 . S
O87 Tb82 2.353 . S
C88 O92 1.245 . S
C88 O93 1.259 . S
C89 O94 1.250 . S
C89 O95 1.263 . S
O90 Tb82 2.427 . S
O90 C86 1.275 . S
O91 Tb82 2.513 . S
O91 C86 1.246 . S
O92 Tb82 2.453 . S
O92 C88 1.245 . S
O93 Tb80 2.343 . S
O93 Tb82 2.596 . S
O93 C88 1.259 . S
O94 Tb82 2.374 . S
O94 C89 1.250 . S
O95 Tb80 2.353 . S
O95 C89 1.263 . S
C96 O97 1.275 . S
C96 O98 1.246 . S
O97 Tb80 2.427 . S
O97 C96 1.275 . S
O98 Tb80 2.513 . S
O98 C96 1.246 . S
C99 O83 1.245 . S
C99 O84 1.259 . S
Tb100 O103 2.453 . S
Tb100 O104 2.596 . S
Tb100 O105 2.374 . S
Tb100 O113 2.343 . S
Tb100 O115 2.353 . S
Tb100 O117 2.427 . S
Tb100 O118 2.513 . S
C101 O105 1.251 . S
C101 O107 1.263 . S
Tb102 O104 2.343 . S
Tb102 O107 2.353 . S
Tb102 O110 2.427 . S
Tb102 O111 2.513 . S
Tb102 O112 2.453 . S
Tb102 O113 2.596 . S
Tb102 O114 2.374 . S
O103 Tb100 2.453 . S
O103 C119 1.245 . S
O104 Tb100 2.596 . S
O104 Tb102 2.343 . S
O104 C119 1.259 . S
O105 Tb100 2.374 . S
O105 C101 1.251 . S
C106 O110 1.275 . S
C106 O111 1.246 . S
O107 C101 1.263 . S
O107 Tb102 2.353 . S
C108 O112 1.245 . S
C108 O113 1.259 . S
C109 O114 1.250 . S
C109 O115 1.263 . S
O110 Tb102 2.427 . S
O110 C106 1.275 . S
O111 Tb102 2.513 . S
O111 C106 1.246 . S
O112 Tb102 2.453 . S
O112 C108 1.245 . S
O113 Tb100 2.343 . S
O113 Tb102 2.596 . S
O113 C108 1.259 . S
O114 Tb102 2.374 . S
O114 C109 1.250 . S
O115 Tb100 2.353 . S
O115 C109 1.263 . S
C116 O117 1.275 . S
C116 O118 1.246 . S
O117 Tb100 2.427 . S
O117 C116 1.275 . S
O118 Tb100 2.513 . S
O118 C116 1.246 . S
C119 O103 1.245 . S
C119 O104 1.259 . S
Tb120 O123 2.453 . S
Tb120 O124 2.596 . S
Tb120 O125 2.374 . S
Tb120 O133 2.343 . S
Tb120 O135 2.353 . S
Tb120 O137 2.427 . S
Tb120 O138 2.513 . S
C121 O125 1.251 . S
C121 O127 1.263 . S
Tb122 O124 2.343 . S
Tb122 O127 2.353 . S
Tb122 O130 2.427 . S
Tb122 O131 2.513 . S
Tb122 O132 2.453 . S
Tb122 O133 2.596 . S
Tb122 O134 2.374 . S
O123 Tb120 2.453 . S
O123 C139 1.245 . S
O124 Tb120 2.596 . S
O124 Tb122 2.343 . S
O124 C139 1.259 . S
O125 Tb120 2.374 . S
O125 C121 1.251 . S
C126 O130 1.275 . S
C126 O131 1.246 . S
O127 C121 1.263 . S
O127 Tb122 2.353 . S
C128 O132 1.245 . S
C128 O133 1.259 . S
C129 O134 1.250 . S
C129 O135 1.263 . S
O130 Tb122 2.427 . S
O130 C126 1.275 . S
O131 Tb122 2.513 . S
O131 C126 1.246 . S
O132 Tb122 2.453 . S
O132 C128 1.245 . S
O133 Tb120 2.343 . S
O133 Tb122 2.596 . S
O133 C128 1.259 . S
O134 Tb122 2.374 . S
O134 C129 1.250 . S
O135 Tb120 2.353 . S
O135 C129 1.263 . S
C136 O137 1.275 . S
C136 O138 1.246 . S
O137 Tb120 2.427 . S
O137 C136 1.275 . S
O138 Tb120 2.513 . S
O138 C136 1.246 . S
C139 O123 1.245 . S
C139 O124 1.259 . S
Tb140 O143 2.453 . S
Tb140 O144 2.596 . S
Tb140 O145 2.374 . S
Tb140 O153 2.343 . S
Tb140 O155 2.353 . S
Tb140 O157 2.427 . S
Tb140 O158 2.513 . S
C141 O145 1.251 . S
C141 O147 1.263 . S
Tb142 O144 2.343 . S
Tb142 O147 2.353 . S
Tb142 O150 2.427 . S
Tb142 O151 2.513 . S
Tb142 O152 2.453 . S
Tb142 O153 2.596 . S
Tb142 O154 2.374 . S
O143 Tb140 2.453 . S
O143 C159 1.245 . S
O144 Tb140 2.596 . S
O144 Tb142 2.343 . S
O144 C159 1.259 . S
O145 Tb140 2.374 . S
O145 C141 1.251 . S
C146 O150 1.275 . S
C146 O151 1.246 . S
O147 C141 1.263 . S
O147 Tb142 2.353 . S
C148 O152 1.245 . S
C148 O153 1.259 . S
C149 O154 1.250 . S
C149 O155 1.263 . S
O150 Tb142 2.427 . S
O150 C146 1.275 . S
O151 Tb142 2.513 . S
O151 C146 1.246 . S
O152 Tb142 2.453 . S
O152 C148 1.245 . S
O153 Tb140 2.343 . S
O153 Tb142 2.596 . S
O153 C148 1.259 . S
O154 Tb142 2.374 . S
O154 C149 1.250 . S
O155 Tb140 2.353 . S
O155 C149 1.263 . S
C156 O157 1.275 . S
C156 O158 1.246 . S
O157 Tb140 2.427 . S
O157 C156 1.275 . S
O158 Tb140 2.513 . S
O158 C156 1.246 . S
C159 O143 1.245 . S
C159 O144 1.259 . S
Cd160 N163 2.334 1_655 S
Cd160 N189 2.304 1_565 S
Cd160 O196 2.268 . S
Cd160 O199 2.273 1_665 S
Cd160 O200 2.417 . S
Cd160 O201 2.330 . S
Cd161 N176 2.304 1_455 S
Cd161 N180 2.334 1_545 S
Cd161 O197 2.273 1_445 S
Cd161 O198 2.268 . S
Cd161 O202 2.417 . S
Cd161 O203 2.330 . S
C162 N163 1.332 . S
C162 C166 1.381 . S
C162 H168 0.931 . S
N163 Cd160 2.334 1_455 S
N163 C162 1.332 . S
N163 C167 1.328 . S
C164 C165 1.396 . S
C164 C167 1.378 . S
C164 H206 0.931 . S
C165 C164 1.396 . S
C165 C166 1.382 . S
C166 C162 1.381 . S
C166 C165 1.382 . S
C166 H207 0.930 . S
C167 N163 1.328 . S
C167 C164 1.378 . S
C167 H169 0.930 1_455 S
H168 C162 0.931 . S
H169 C167 0.930 1_655 S
C170 O196 1.238 . S
C170 O197 1.253 . S
C171 C172 1.379 . S
C171 N176 1.337 . S
C171 H177 0.929 . S
C172 C171 1.379 . S
C172 C173 1.380 . S
C172 H208 0.929 . S
C173 C172 1.380 . S
C173 C174 1.399 . S
C174 C173 1.399 . S
C174 C175 1.376 . S
C174 H209 0.931 . S
C175 C174 1.376 . S
C175 N176 1.338 . S
C175 H178 0.930 1_655 S
N176 Cd161 2.304 1_655 S
N176 C171 1.337 . S
N176 C175 1.338 . S
H177 C171 0.929 . S
H178 C175 0.930 1_455 S
C179 N180 1.332 . S
C179 C183 1.381 . S
C179 H185 0.931 . S
N180 Cd161 2.334 1_565 S
N180 C179 1.332 . S
N180 C184 1.328 . S
C181 C182 1.396 . S
C181 C184 1.378 . S
C181 H210 0.931 . S
C182 C181 1.396 . S
C182 C183 1.382 . S
C183 C179 1.381 . S
C183 C182 1.382 . S
C183 H211 0.930 . S
C184 N180 1.328 . S
C184 C181 1.378 . S
C184 H186 0.930 1_565 S
H185 C179 0.931 . S
H186 C184 0.930 1_545 S
C187 O198 1.238 . S
C187 O199 1.253 . S
C188 O200 1.239 . S
C188 O201 1.230 . S
N189 Cd160 2.304 1_545 S
N189 C190 1.337 . S
N189 C194 1.338 . S
C190 N189 1.337 . S
C190 C191 1.379 . S
C190 H204 0.929 . S
C191 C190 1.379 . S
C191 C192 1.380 . S
C191 H212 0.929 . S
C192 C191 1.380 . S
C192 C193 1.399 . S
C193 C192 1.399 . S
C193 C194 1.376 . S
C193 H213 0.931 . S
C194 N189 1.338 . S
C194 C193 1.376 . S
C194 H205 0.930 1_545 S
C195 O202 1.239 . S
C195 O203 1.230 . S
O196 Cd160 2.268 . S
O196 C170 1.238 . S
O197 Cd161 2.273 1_665 S
O197 C170 1.253 . S
O198 Cd161 2.268 . S
O198 C187 1.238 . S
O199 Cd160 2.273 1_445 S
O199 C187 1.253 . S
O200 Cd160 2.417 . S
O200 C188 1.239 . S
O201 Cd160 2.330 . S
O201 C188 1.230 . S
O202 Cd161 2.417 . S
O202 C195 1.239 . S
O203 Cd161 2.330 . S
O203 C195 1.230 . S
H204 C190 0.929 . S
H205 C194 0.930 1_565 S
H206 C164 0.931 . S
H207 C166 0.930 . S
H208 C172 0.929 . S
H209 C174 0.931 . S
H210 C181 0.931 . S
H211 C183 0.930 . S
H212 C191 0.929 . S
H213 C193 0.931 . S
Cd214 N217 2.334 . S
Cd214 N243 2.304 1_565 S
Cd214 O250 2.268 1_554 S
Cd214 O253 2.273 1_565 S
Cd214 O254 2.417 . S
Cd214 O255 2.330 . S
Cd215 N230 2.304 . S
Cd215 N234 2.334 1_545 S
Cd215 O251 2.273 1_545 S
Cd215 O252 2.268 1_556 S
Cd215 O256 2.417 . S
Cd215 O257 2.330 . S
C216 N217 1.332 . S
C216 C220 1.381 . S
C216 H222 0.931 . S
N217 Cd214 2.334 . S
N217 C216 1.332 . S
N217 C221 1.328 . S
C218 C219 1.396 . S
C218 C221 1.378 . S
C218 H260 0.931 1_554 S
C219 C218 1.396 . S
C219 C220 1.382 . S
C220 C216 1.381 . S
C220 C219 1.382 . S
C220 H261 0.930 . S
C221 N217 1.328 . S
C221 C218 1.378 . S
C221 H223 0.930 1_554 S
H222 C216 0.931 . S
H223 C221 0.930 1_556 S
C224 O250 1.238 . S
C224 O251 1.253 . S
C225 C226 1.379 . S
C225 N230 1.337 . S
C225 H231 0.929 . S
C226 C225 1.379 . S
C226 C227 1.380 . S
C226 H262 0.929 . S
C227 C226 1.380 . S
C227 C228 1.399 . S
C228 C227 1.399 . S
C228 C229 1.376 . S
C228 H263 0.931 1_556 S
C229 C228 1.376 . S
C229 N230 1.338 . S
C229 H232 0.930 1_556 S
N230 Cd215 2.304 . S
N230 C225 1.337 . S
N230 C229 1.338 . S
H231 C225 0.929 . S
H232 C229 0.930 1_554 S
C233 N234 1.332 . S
C233 C237 1.381 . S
C233 H239 0.931 . S
N234 Cd215 2.334 1_565 S
N234 C233 1.332 . S
N234 C238 1.328 . S
C235 C236 1.396 . S
C235 C238 1.378 . S
C235 H264 0.931 1_556 S
C236 C235 1.396 . S
C236 C237 1.382 . S
C237 C233 1.381 . S
C237 C236 1.382 . S
C237 H265 0.930 . S
C238 N234 1.328 . S
C238 C235 1.378 . S
C238 H240 0.930 1_566 S
H239 C233 0.931 . S
H240 C238 0.930 1_544 S
C241 O252 1.238 . S
C241 O253 1.253 . S
C242 O254 1.239 . S
C242 O255 1.230 . S
N243 Cd214 2.304 1_545 S
N243 C244 1.337 . S
N243 C248 1.338 . S
C244 N243 1.337 . S
C244 C245 1.379 . S
C244 H258 0.929 . S
C245 C244 1.379 . S
C245 C246 1.380 . S
C245 H266 0.929 . S
C246 C245 1.380 . S
C246 C247 1.399 . S
C247 C246 1.399 . S
C247 C248 1.376 . S
C247 H267 0.931 1_554 S
C248 N243 1.338 . S
C248 C247 1.376 . S
C248 H259 0.930 1_544 S
C249 O256 1.239 . S
C249 O257 1.230 . S
O250 Cd214 2.268 1_556 S
O250 C224 1.238 . S
O251 Cd215 2.273 1_565 S
O251 C224 1.253 . S
O252 Cd215 2.268 1_554 S
O252 C241 1.238 . S
O253 Cd214 2.273 1_545 S
O253 C241 1.253 . S
O254 Cd214 2.417 . S
O254 C242 1.239 . S
O255 Cd214 2.330 . S
O255 C242 1.230 . S
O256 Cd215 2.417 . S
O256 C249 1.239 . S
O257 Cd215 2.330 . S
O257 C249 1.230 . S
H258 C244 0.929 . S
H259 C248 0.930 1_566 S
H260 C218 0.931 1_556 S
H261 C220 0.930 . S
H262 C226 0.929 . S
H263 C228 0.931 1_554 S
H264 C235 0.931 1_554 S
H265 C237 0.930 . S
H266 C245 0.929 . S
H267 C247 0.931 1_556 S
Cd268 N271 2.334 1_655 S
Cd268 N297 2.304 . S
Cd268 O304 2.268 1_554 S
Cd268 O307 2.273 1_655 S
Cd268 O308 2.417 . S
Cd268 O309 2.330 . S
Cd269 N284 2.304 1_455 S
Cd269 N288 2.334 . S
Cd269 O305 2.273 1_455 S
Cd269 O306 2.268 1_556 S
Cd269 O310 2.417 . S
Cd269 O311 2.330 . S
C270 N271 1.332 . S
C270 C274 1.381 . S
C270 H276 0.931 . S
N271 Cd268 2.334 1_455 S
N271 C270 1.332 . S
N271 C275 1.328 . S
C272 C273 1.396 . S
C272 C275 1.378 . S
C272 H314 0.931 1_554 S
C273 C272 1.396 . S
C273 C274 1.382 . S
C274 C270 1.381 . S
C274 C273 1.382 . S
C274 H315 0.930 . S
C275 N271 1.328 . S
C275 C272 1.378 . S
C275 H277 0.930 1_454 S
H276 C270 0.931 . S
H277 C275 0.930 1_656 S
C278 O304 1.238 . S
C278 O305 1.253 . S
C279 C280 1.379 . S
C279 N284 1.337 . S
C279 H285 0.929 . S
C280 C279 1.379 . S
C280 C281 1.380 . S
C280 H316 0.929 . S
C281 C280 1.380 . S
C281 C282 1.399 . S
C282 C281 1.399 . S
C282 C283 1.376 . S
C282 H317 0.931 1_556 S
C283 C282 1.376 . S
C283 N284 1.338 . S
C283 H286 0.930 1_656 S
N284 Cd269 2.304 1_655 S
N284 C279 1.337 . S
N284 C283 1.338 . S
H285 C279 0.929 . S
H286 C283 0.930 1_454 S
C287 N288 1.332 . S
C287 C291 1.381 . S
C287 H293 0.931 . S
N288 Cd269 2.334 . S
N288 C287 1.332 . S
N288 C292 1.328 . S
C289 C290 1.396 . S
C289 C292 1.378 . S
C289 H318 0.931 1_556 S
C290 C289 1.396 . S
C290 C291 1.382 . S
C291 C287 1.381 . S
C291 C290 1.382 . S
C291 H319 0.930 . S
C292 N288 1.328 . S
C292 C289 1.378 . S
C292 H294 0.930 1_556 S
H293 C287 0.931 . S
H294 C292 0.930 1_554 S
C295 O306 1.238 . S
C295 O307 1.253 . S
C296 O308 1.239 . S
C296 O309 1.230 . S
N297 Cd268 2.304 . S
N297 C298 1.337 . S
N297 C302 1.338 . S
C298 N297 1.337 . S
C298 C299 1.379 . S
C298 H312 0.929 . S
C299 C298 1.379 . S
C299 C300 1.380 . S
C299 H320 0.929 . S
C300 C299 1.380 . S
C300 C301 1.399 . S
C301 C300 1.399 . S
C301 C302 1.376 . S
C301 H321 0.931 1_554 S
C302 N297 1.338 . S
C302 C301 1.376 . S
C302 H313 0.930 1_554 S
C303 O310 1.239 . S
C303 O311 1.230 . S
O304 Cd268 2.268 1_556 S
O304 C278 1.238 . S
O305 Cd269 2.273 1_655 S
O305 C278 1.253 . S
O306 Cd269 2.268 1_554 S
O306 C295 1.238 . S
O307 Cd268 2.273 1_455 S
O307 C295 1.253 . S
O308 Cd268 2.417 . S
O308 C296 1.239 . S
O309 Cd268 2.330 . S
O309 C296 1.230 . S
O310 Cd269 2.417 . S
O310 C303 1.239 . S
O311 Cd269 2.330 . S
O311 C303 1.230 . S
H312 C298 0.929 . S
H313 C302 0.930 1_556 S
H314 C272 0.931 1_556 S
H315 C274 0.930 . S
H316 C280 0.929 . S
H317 C282 0.931 1_554 S
H318 C289 0.931 1_554 S
H319 C291 0.930 . S
H320 C299 0.929 . S
H321 C301 0.931 1_556 S
Cd322 N325 2.334 . S
Cd322 N351 2.304 . S
Cd322 O358 2.268 1_554 S
Cd322 O361 2.273 . S
Cd322 O362 2.417 . S
Cd322 O363 2.330 . S
Cd323 N338 2.304 . S
Cd323 N342 2.334 . S
Cd323 O359 2.273 . S
Cd323 O360 2.268 1_556 S
Cd323 O364 2.417 . S
Cd323 O365 2.330 . S
C324 N325 1.332 . S
C324 C328 1.381 . S
C324 H330 0.931 . S
N325 Cd322 2.334 . S
N325 C324 1.332 . S
N325 C329 1.328 . S
C326 C327 1.396 . S
C326 C329 1.378 . S
C326 H368 0.931 1_554 S
C327 C326 1.396 . S
C327 C328 1.382 . S
C328 C324 1.381 . S
C328 C327 1.382 . S
C328 H369 0.930 . S
C329 N325 1.328 . S
C329 C326 1.378 . S
C329 H331 0.930 1_554 S
H330 C324 0.931 . S
H331 C329 0.930 1_556 S
C332 O358 1.238 . S
C332 O359 1.253 . S
C333 C334 1.379 . S
C333 N338 1.337 . S
C333 H339 0.929 . S
C334 C333 1.379 . S
C334 C335 1.380 . S
C334 H370 0.929 . S
C335 C334 1.380 . S
C335 C336 1.399 . S
C336 C335 1.399 . S
C336 C337 1.376 . S
C336 H371 0.931 1_556 S
C337 C336 1.376 . S
C337 N338 1.338 . S
C337 H340 0.930 1_556 S
N338 Cd323 2.304 . S
N338 C333 1.337 . S
N338 C337 1.338 . S
H339 C333 0.929 . S
H340 C337 0.930 1_554 S
C341 N342 1.332 . S
C341 C345 1.381 . S
C341 H347 0.931 . S
N342 Cd323 2.334 . S
N342 C341 1.332 . S
N342 C346 1.328 . S
C343 C344 1.396 . S
C343 C346 1.378 . S
C343 H372 0.931 1_556 S
C344 C343 1.396 . S
C344 C345 1.382 . S
C345 C341 1.381 . S
C345 C344 1.382 . S
C345 H373 0.930 . S
C346 N342 1.328 . S
C346 C343 1.378 . S
C346 H348 0.930 1_556 S
H347 C341 0.931 . S
H348 C346 0.930 1_554 S
C349 O360 1.238 . S
C349 O361 1.253 . S
C350 O362 1.239 . S
C350 O363 1.230 . S
N351 Cd322 2.304 . S
N351 C352 1.337 . S
N351 C356 1.338 . S
C352 N351 1.337 . S
C352 C353 1.379 . S
C352 H366 0.929 . S
C353 C352 1.379 . S
C353 C354 1.380 . S
C353 H374 0.929 . S
C354 C353 1.380 . S
C354 C355 1.399 . S
C355 C354 1.399 . S
C355 C356 1.376 . S
C355 H375 0.931 1_554 S
C356 N351 1.338 . S
C356 C355 1.376 . S
C356 H367 0.930 1_554 S
C357 O364 1.239 . S
C357 O365 1.230 . S
O358 Cd322 2.268 1_556 S
O358 C332 1.238 . S
O359 Cd323 2.273 . S
O359 C332 1.253 . S
O360 Cd323 2.268 1_554 S
O360 C349 1.238 . S
O361 Cd322 2.273 . S
O361 C349 1.253 . S
O362 Cd322 2.417 . S
O362 C350 1.239 . S
O363 Cd322 2.330 . S
O363 C350 1.230 . S
O364 Cd323 2.417 . S
O364 C357 1.239 . S
O365 Cd323 2.330 . S
O365 C357 1.230 . S
H366 C352 0.929 . S
H367 C356 0.930 1_556 S
H368 C326 0.931 1_556 S
H369 C328 0.930 . S
H370 C334 0.929 . S
H371 C336 0.931 1_554 S
H372 C343 0.931 1_554 S
H373 C345 0.930 . S
H374 C353 0.929 . S
H375 C355 0.931 1_556 S
Cd376 N379 2.334 1_655 S
Cd376 N405 2.304 . S
Cd376 O412 2.268 . S
Cd376 O415 2.273 1_655 S
Cd376 O416 2.417 . S
Cd376 O417 2.330 . S
Cd377 N392 2.304 1_455 S
Cd377 N396 2.334 . S
Cd377 O413 2.273 1_455 S
Cd377 O414 2.268 . S
Cd377 O418 2.417 . S
Cd377 O419 2.330 . S
C378 N379 1.332 . S
C378 C382 1.381 . S
C378 H384 0.931 . S
N379 Cd376 2.334 1_455 S
N379 C378 1.332 . S
N379 C383 1.328 . S
C380 C381 1.396 . S
C380 C383 1.378 . S
C380 H422 0.931 . S
C381 C380 1.396 . S
C381 C382 1.382 . S
C382 C378 1.381 . S
C382 C381 1.382 . S
C382 H423 0.930 . S
C383 N379 1.328 . S
C383 C380 1.378 . S
C383 H385 0.930 1_455 S
H384 C378 0.931 . S
H385 C383 0.930 1_655 S
C386 O412 1.238 . S
C386 O413 1.253 . S
C387 C388 1.379 . S
C387 N392 1.337 . S
C387 H393 0.929 . S
C388 C387 1.379 . S
C388 C389 1.380 . S
C388 H424 0.929 . S
C389 C388 1.380 . S
C389 C390 1.399 . S
C390 C389 1.399 . S
C390 C391 1.376 . S
C390 H425 0.931 . S
C391 C390 1.376 . S
C391 N392 1.338 . S
C391 H394 0.930 1_655 S
N392 Cd377 2.304 1_655 S
N392 C387 1.337 . S
N392 C391 1.338 . S
H393 C387 0.929 . S
H394 C391 0.930 1_455 S
C395 N396 1.332 . S
C395 C399 1.381 . S
C395 H401 0.931 . S
N396 Cd377 2.334 . S
N396 C395 1.332 . S
N396 C400 1.328 . S
C397 C398 1.396 . S
C397 C400 1.378 . S
C397 H426 0.931 . S
C398 C397 1.396 . S
C398 C399 1.382 . S
C399 C395 1.381 . S
C399 C398 1.382 . S
C399 H427 0.930 . S
C400 N396 1.328 . S
C400 C397 1.378 . S
C400 H402 0.930 . S
H401 C395 0.931 . S
H402 C400 0.930 . S
C403 O414 1.238 . S
C403 O415 1.253 . S
C404 O416 1.239 . S
C404 O417 1.230 . S
N405 Cd376 2.304 . S
N405 C406 1.337 . S
N405 C410 1.338 . S
C406 N405 1.337 . S
C406 C407 1.379 . S
C406 H420 0.929 . S
C407 C406 1.379 . S
C407 C408 1.380 . S
C407 H428 0.929 . S
C408 C407 1.380 . S
C408 C409 1.399 . S
C409 C408 1.399 . S
C409 C410 1.376 . S
C409 H429 0.931 . S
C410 N405 1.338 . S
C410 C409 1.376 . S
C410 H421 0.930 . S
C411 O418 1.239 . S
C411 O419 1.230 . S
O412 Cd376 2.268 . S
O412 C386 1.238 . S
O413 Cd377 2.273 1_655 S
O413 C386 1.253 . S
O414 Cd377 2.268 . S
O414 C403 1.238 . S
O415 Cd376 2.273 1_455 S
O415 C403 1.253 . S
O416 Cd376 2.417 . S
O416 C404 1.239 . S
O417 Cd376 2.330 . S
O417 C404 1.230 . S
O418 Cd377 2.417 . S
O418 C411 1.239 . S
O419 Cd377 2.330 . S
O419 C411 1.230 . S
H420 C406 0.929 . S
H421 C410 0.930 . S
H422 C380 0.931 . S
H423 C382 0.930 . S
H424 C388 0.929 . S
H425 C390 0.931 . S
H426 C397 0.931 . S
H427 C399 0.930 . S
H428 C407 0.929 . S
H429 C409 0.931 . S
Cd430 N433 2.334 . S
Cd430 N459 2.304 1_565 S
Cd430 O466 2.268 . S
Cd430 O469 2.273 1_565 S
Cd430 O470 2.417 . S
Cd430 O471 2.330 . S
Cd431 N446 2.304 . S
Cd431 N450 2.334 1_545 S
Cd431 O467 2.273 1_545 S
Cd431 O468 2.268 . S
Cd431 O472 2.417 . S
Cd431 O473 2.330 . S
C432 N433 1.332 . S
C432 C436 1.381 . S
C432 H438 0.931 . S
N433 Cd430 2.334 . S
N433 C432 1.332 . S
N433 C437 1.328 . S
C434 C435 1.396 . S
C434 C437 1.378 . S
C434 H476 0.931 . S
C435 C434 1.396 . S
C435 C436 1.382 . S
C436 C432 1.381 . S
C436 C435 1.382 . S
C436 H477 0.930 . S
C437 N433 1.328 . S
C437 C434 1.378 . S
C437 H439 0.930 . S
H438 C432 0.931 . S
H439 C437 0.930 . S
C440 O466 1.238 . S
C440 O467 1.253 . S
C441 C442 1.379 . S
C441 N446 1.337 . S
C441 H447 0.929 . S
C442 C441 1.379 . S
C442 C443 1.380 . S
C442 H478 0.929 . S
C443 C442 1.380 . S
C443 C444 1.399 . S
C444 C443 1.399 . S
C444 C445 1.376 . S
C444 H479 0.931 . S
C445 C444 1.376 . S
C445 N446 1.338 . S
C445 H448 0.930 . S
N446 Cd431 2.304 . S
N446 C441 1.337 . S
N446 C445 1.338 . S
H447 C441 0.929 . S
H448 C445 0.930 . S
C449 N450 1.332 . S
C449 C453 1.381 . S
C449 H455 0.931 . S
N450 Cd431 2.334 1_565 S
N450 C449 1.332 . S
N450 C454 1.328 . S
C451 C452 1.396 . S
C451 C454 1.378 . S
C451 H480 0.931 . S
C452 C451 1.396 . S
C452 C453 1.382 . S
C453 C449 1.381 . S
C453 C452 1.382 . S
C453 H481 0.930 . S
C454 N450 1.328 . S
C454 C451 1.378 . S
C454 H456 0.930 1_565 S
H455 C449 0.931 . S
H456 C454 0.930 1_545 S
C457 O468 1.238 . S
C457 O469 1.253 . S
C458 O470 1.239 . S
C458 O471 1.230 . S
N459 Cd430 2.304 1_545 S
N459 C460 1.337 . S
N459 C464 1.338 . S
C460 N459 1.337 . S
C460 C461 1.379 . S
C460 H474 0.929 . S
C461 C460 1.379 . S
C461 C462 1.380 . S
C461 H482 0.929 . S
C462 C461 1.380 . S
C462 C463 1.399 . S
C463 C462 1.399 . S
C463 C464 1.376 . S
C463 H483 0.931 . S
C464 N459 1.338 . S
C464 C463 1.376 . S
C464 H475 0.930 1_545 S
C465 O472 1.239 . S
C465 O473 1.230 . S
O466 Cd430 2.268 . S
O466 C440 1.238 . S
O467 Cd431 2.273 1_565 S
O467 C440 1.253 . S
O468 Cd431 2.268 . S
O468 C457 1.238 . S
O469 Cd430 2.273 1_545 S
O469 C457 1.253 . S
O470 Cd430 2.417 . S
O470 C458 1.239 . S
O471 Cd430 2.330 . S
O471 C458 1.230 . S
O472 Cd431 2.417 . S
O472 C465 1.239 . S
O473 Cd431 2.330 . S
O473 C465 1.230 . S
H474 C460 0.929 . S
H475 C464 0.930 1_565 S
H476 C434 0.931 . S
H477 C436 0.930 . S
H478 C442 0.929 . S
H479 C444 0.931 . S
H480 C451 0.931 . S
H481 C453 0.930 . S
H482 C461 0.929 . S
H483 C463 0.931 . S
C484 C485 1.369 . S
C484 C486 1.419 . S
C484 H488 0.930 . S
C485 C484 1.369 . S
C485 C494 1.429 . S
C486 C484 1.419 . S
C486 C487 1.363 . S
C486 H489 0.929 . S
C487 C486 1.363 . S
C487 C493 1.428 . S
H488 C484 0.930 . S
H489 C486 0.929 . S
S490 N491 1.613 . S
S490 N492 1.610 . S
N491 S490 1.613 . S
N491 C494 1.350 . S
N492 S490 1.610 . S
N492 C493 1.351 . S
C493 C487 1.428 . S
C493 N492 1.351 . S
C493 C494 1.434 . S
C494 C485 1.429 . S
C494 N491 1.350 . S
C494 C493 1.434 . S
C495 C496 1.369 . S
C495 C497 1.419 . S
C495 H499 0.930 . S
C496 C495 1.369 . S
C496 C505 1.429 . S
C497 C495 1.419 . S
C497 C498 1.363 . S
C497 H500 0.929 . S
C498 C497 1.363 . S
C498 C504 1.428 . S
H499 C495 0.930 . S
H500 C497 0.929 . S
S501 N502 1.613 . S
S501 N503 1.610 . S
N502 S501 1.613 . S
N502 C505 1.350 . S
N503 S501 1.610 . S
N503 C504 1.351 . S
C504 C498 1.428 . S
C504 N503 1.351 . S
C504 C505 1.434 . S
C505 C496 1.429 . S
C505 N502 1.350 . S
C505 C504 1.434 . S
C506 C507 1.369 . S
C506 C508 1.419 . S
C506 H510 0.930 . S
C507 C506 1.369 . S
C507 C516 1.429 . S
C508 C506 1.419 . S
C508 C509 1.363 . S
C508 H511 0.929 . S
C509 C508 1.363 . S
C509 C515 1.428 . S
H510 C506 0.930 . S
H511 C508 0.929 . S
S512 N513 1.613 . S
S512 N514 1.610 . S
N513 S512 1.613 . S
N513 C516 1.350 . S
N514 S512 1.610 . S
N514 C515 1.351 . S
C515 C509 1.428 . S
C515 N514 1.351 . S
C515 C516 1.434 . S
C516 C507 1.429 . S
C516 N513 1.350 . S
C516 C515 1.434 . S
C517 C518 1.369 . S
C517 C519 1.419 . S
C517 H521 0.930 . S
C518 C517 1.369 . S
C518 C527 1.429 . S
C519 C517 1.419 . S
C519 C520 1.363 . S
C519 H522 0.929 . S
C520 C519 1.363 . S
C520 C526 1.428 . S
H521 C517 0.930 . S
H522 C519 0.929 . S
S523 N524 1.613 . S
S523 N525 1.610 . S
N524 S523 1.613 . S
N524 C527 1.350 . S
N525 S523 1.610 . S
N525 C526 1.351 . S
C526 C520 1.428 . S
C526 N525 1.351 . S
C526 C527 1.434 . S
C527 C518 1.429 . S
C527 N524 1.350 . S
C527 C526 1.434 . S
C528 C529 1.369 . S
C528 C530 1.419 . S
C528 H532 0.930 . S
C529 C528 1.369 . S
C529 C538 1.429 . S
C530 C528 1.419 . S
C530 C531 1.363 . S
C530 H533 0.929 . S
C531 C530 1.363 . S
C531 C537 1.428 . S
H532 C528 0.930 . S
H533 C530 0.929 . S
S534 N535 1.613 . S
S534 N536 1.610 . S
N535 S534 1.613 . S
N535 C538 1.350 . S
N536 S534 1.610 . S
N536 C537 1.351 . S
C537 C531 1.428 . S
C537 N536 1.351 . S
C537 C538 1.434 . S
C538 C529 1.429 . S
C538 N535 1.350 . S
C538 C537 1.434 . S
C539 C540 1.369 . S
C539 C541 1.419 . S
C539 H543 0.930 . S
C540 C539 1.369 . S
C540 C549 1.429 . S
C541 C539 1.419 . S
C541 C542 1.363 . S
C541 H544 0.929 . S
C542 C541 1.363 . S
C542 C548 1.428 . S
H543 C539 0.930 . S
H544 C541 0.929 . S
S545 N546 1.613 . S
S545 N547 1.610 . S
N546 S545 1.613 . S
N546 C549 1.350 . S
N547 S545 1.610 . S
N547 C548 1.351 . S
C548 C542 1.428 . S
C548 N547 1.351 . S
C548 C549 1.434 . S
C549 C540 1.429 . S
C549 N546 1.350 . S
C549 C548 1.434 . S
C550 C551 1.369 . S
C550 C552 1.419 . S
C550 H554 0.930 . S
C551 C550 1.369 . S
C551 C560 1.429 . S
C552 C550 1.419 . S
C552 C553 1.363 . S
C552 H555 0.929 . S
C553 C552 1.363 . S
C553 C559 1.428 . S
H554 C550 0.930 . S
H555 C552 0.929 . S
S556 N557 1.613 . S
S556 N558 1.610 . S
N557 S556 1.613 . S
N557 C560 1.350 . S
N558 S556 1.610 . S
N558 C559 1.351 . S
C559 C553 1.428 . S
C559 N558 1.351 . S
C559 C560 1.434 . S
C560 C551 1.429 . S
C560 N557 1.350 . S
C560 C559 1.434 . S
C561 C562 1.369 . S
C561 C563 1.419 . S
C561 H565 0.930 . S
C562 C561 1.369 . S
C562 C571 1.429 . S
C563 C561 1.419 . S
C563 C564 1.363 . S
C563 H566 0.929 . S
C564 C563 1.363 . S
C564 C570 1.428 . S
H565 C561 0.930 . S
H566 C563 0.929 . S
S567 N568 1.613 . S
S567 N569 1.610 . S
N568 S567 1.613 . S
N568 C571 1.350 . S
N569 S567 1.610 . S
N569 C570 1.351 . S
C570 C564 1.428 . S
C570 N569 1.351 . S
C570 C571 1.434 . S
C571 C562 1.429 . S
C571 N568 1.350 . S
C571 C570 1.434 . S
C572 C573 1.369 . S
C572 C574 1.419 . S
C572 H576 0.930 . S
C573 C572 1.369 . S
C573 C582 1.429 . S
C574 C572 1.419 . S
C574 C575 1.363 . S
C574 H577 0.929 . S
C575 C574 1.363 . S
C575 C581 1.428 . S
H576 C572 0.930 . S
H577 C574 0.929 . S
S578 N579 1.613 . S
S578 N580 1.610 . S
N579 S578 1.613 . S
N579 C582 1.350 . S
N580 S578 1.610 . S
N580 C581 1.351 . S
C581 C575 1.428 . S
C581 N580 1.351 . S
C581 C582 1.434 . S
C582 C573 1.429 . S
C582 N579 1.350 . S
C582 C581 1.434 . S
C583 C584 1.369 . S
C583 C585 1.419 . S
C583 H587 0.930 . S
C584 C583 1.369 . S
C584 C593 1.429 . S
C585 C583 1.419 . S
C585 C586 1.363 . S
C585 H588 0.929 . S
C586 C585 1.363 . S
C586 C592 1.428 . S
H587 C583 0.930 . S
H588 C585 0.929 . S
S589 N590 1.613 . S
S589 N591 1.610 . S
N590 S589 1.613 . S
N590 C593 1.350 . S
N591 S589 1.610 . S
N591 C592 1.351 . S
C592 C586 1.428 . S
C592 N591 1.351 . S
C592 C593 1.434 . S
C593 C584 1.429 . S
C593 N590 1.350 . S
C593 C592 1.434 . S
C594 C595 1.369 . S
C594 C596 1.419 . S
C594 H598 0.930 . S
C595 C594 1.369 . S
C595 C604 1.429 . S
C596 C594 1.419 . S
C596 C597 1.363 . S
C596 H599 0.929 . S
C597 C596 1.363 . S
C597 C603 1.428 . S
H598 C594 0.930 . S
H599 C596 0.929 . S
S600 N601 1.613 . S
S600 N602 1.610 . S
N601 S600 1.613 . S
N601 C604 1.350 . S
N602 S600 1.610 . S
N602 C603 1.351 . S
C603 C597 1.428 . S
C603 N602 1.351 . S
C603 C604 1.434 . S
C604 C595 1.429 . S
C604 N601 1.350 . S
C604 C603 1.434 . S
C605 C606 1.369 . S
C605 C607 1.419 . S
C605 H609 0.930 . S
C606 C605 1.369 . S
C606 C615 1.429 . S
C607 C605 1.419 . S
C607 C608 1.363 . S
C607 H610 0.929 . S
C608 C607 1.363 . S
C608 C614 1.428 . S
H609 C605 0.930 . S
H610 C607 0.929 . S
S611 N612 1.613 1_556 S
S611 N613 1.610 1_556 S
N612 S611 1.613 1_554 S
N612 C615 1.350 . S
N613 S611 1.610 1_554 S
N613 C614 1.351 . S
C614 C608 1.428 . S
C614 N613 1.351 . S
C614 C615 1.434 . S
C615 C606 1.429 . S
C615 N612 1.350 . S
C615 C614 1.434 . S
C616 C617 1.369 . S
C616 C618 1.419 . S
C616 H620 0.930 . S
C617 C616 1.369 . S
C617 C626 1.429 . S
C618 C616 1.419 . S
C618 C619 1.363 . S
C618 H621 0.929 . S
C619 C618 1.363 . S
C619 C625 1.428 . S
H620 C616 0.930 . S
H621 C618 0.929 . S
S622 N623 1.613 . S
S622 N624 1.610 . S
N623 S622 1.613 . S
N623 C626 1.350 . S
N624 S622 1.610 . S
N624 C625 1.351 . S
C625 C619 1.428 . S
C625 N624 1.351 . S
C625 C626 1.434 . S
C626 C617 1.429 . S
C626 N623 1.350 . S
C626 C625 1.434 . S
C627 C628 1.369 . S
C627 C629 1.419 . S
C627 H631 0.930 . S
C628 C627 1.369 . S
C628 C637 1.429 . S
C629 C627 1.419 . S
C629 C630 1.363 . S
C629 H632 0.929 . S
C630 C629 1.363 . S
C630 C636 1.428 . S
H631 C627 0.930 . S
H632 C629 0.929 . S
S633 N634 1.613 . S
S633 N635 1.610 . S
N634 S633 1.613 . S
N634 C637 1.350 . S
N635 S633 1.610 . S
N635 C636 1.351 . S
C636 C630 1.428 . S
C636 N635 1.351 . S
C636 C637 1.434 . S
C637 C628 1.429 . S
C637 N634 1.350 . S
C637 C636 1.434 . S
C638 C639 1.369 . S
C638 C640 1.419 . S
C638 H642 0.930 . S
C639 C638 1.369 . S
C639 C648 1.429 . S
C640 C638 1.419 . S
C640 C641 1.363 . S
C640 H643 0.929 . S
C641 C640 1.363 . S
C641 C647 1.428 . S
H642 C638 0.930 . S
H643 C640 0.929 . S
S644 N645 1.613 . S
S644 N646 1.610 . S
N645 S644 1.613 . S
N645 C648 1.350 . S
N646 S644 1.610 . S
N646 C647 1.351 . S
C647 C641 1.428 . S
C647 N646 1.351 . S
C647 C648 1.434 . S
C648 C639 1.429 . S
C648 N645 1.350 . S
C648 C647 1.434 . S
C649 C650 1.369 . S
C649 C651 1.419 . S
C649 H653 0.930 . S
C650 C649 1.369 . S
C650 C659 1.429 . S
C651 C649 1.419 . S
C651 C652 1.363 . S
C651 H654 0.929 . S
C652 C651 1.363 . S
C652 C658 1.428 . S
H653 C649 0.930 . S
H654 C651 0.929 . S
S655 N656 1.613 . S
S655 N657 1.610 . S
N656 S655 1.613 . S
N656 C659 1.350 . S
N657 S655 1.610 . S
N657 C658 1.351 . S
C658 C652 1.428 . S
C658 N657 1.351 . S
C658 C659 1.434 . S
C659 C650 1.429 . S
C659 N656 1.350 . S
C659 C658 1.434 . S
C660 C661 1.369 . S
C660 C662 1.419 . S
C660 H664 0.930 . S
C661 C660 1.369 . S
C661 C670 1.429 . S
C662 C660 1.419 . S
C662 C663 1.363 . S
C662 H665 0.929 . S
C663 C662 1.363 . S
C663 C669 1.428 . S
H664 C660 0.930 . S
H665 C662 0.929 . S
S666 N667 1.613 . S
S666 N668 1.610 . S
N667 S666 1.613 . S
N667 C670 1.350 . S
N668 S666 1.610 . S
N668 C669 1.351 . S
C669 C663 1.428 . S
C669 N668 1.351 . S
C669 C670 1.434 . S
C670 C661 1.429 . S
C670 N667 1.350 . S
C670 C669 1.434 . S
C671 C672 1.369 . S
C671 C673 1.419 . S
C671 H675 0.930 . S
C672 C671 1.369 . S
C672 C681 1.429 . S
C673 C671 1.419 . S
C673 C674 1.363 . S
C673 H676 0.929 . S
C674 C673 1.363 . S
C674 C680 1.428 . S
H675 C671 0.930 . S
H676 C673 0.929 . S
S677 N678 1.613 . S
S677 N679 1.610 . S
N678 S677 1.613 . S
N678 C681 1.350 . S
N679 S677 1.610 . S
N679 C680 1.351 . S
C680 C674 1.428 . S
C680 N679 1.351 . S
C680 C681 1.434 . S
C681 C672 1.429 . S
C681 N678 1.350 . S
C681 C680 1.434 . S
C682 C683 1.369 . S
C682 C684 1.419 . S
C682 H686 0.930 . S
C683 C682 1.369 . S
C683 C692 1.429 . S
C684 C682 1.419 . S
C684 C685 1.363 . S
C684 H687 0.929 . S
C685 C684 1.363 . S
C685 C691 1.428 . S
H686 C682 0.930 . S
H687 C684 0.929 . S
S688 N689 1.613 . S
S688 N690 1.610 . S
N689 S688 1.613 . S
N689 C692 1.350 . S
N690 S688 1.610 . S
N690 C691 1.351 . S
C691 C685 1.428 . S
C691 N690 1.351 . S
C691 C692 1.434 . S
C692 C683 1.429 . S
C692 N689 1.350 . S
C692 C691 1.434 . S
C693 C694 1.369 . S
C693 C695 1.419 . S
C693 H697 0.930 . S
C694 C693 1.369 . S
C694 C703 1.429 . S
C695 C693 1.419 . S
C695 C696 1.363 . S
C695 H698 0.929 . S
C696 C695 1.363 . S
C696 C702 1.428 . S
H697 C693 0.930 . S
H698 C695 0.929 . S
S699 N700 1.613 . S
S699 N701 1.610 . S
N700 S699 1.613 . S
N700 C703 1.350 . S
N701 S699 1.610 . S
N701 C702 1.351 . S
C702 C696 1.428 . S
C702 N701 1.351 . S
C702 C703 1.434 . S
C703 C694 1.429 . S
C703 N700 1.350 . S
C703 C702 1.434 . S
C704 C705 1.369 . S
C704 C706 1.419 . S
C704 H708 0.930 . S
C705 C704 1.369 . S
C705 C714 1.429 . S
C706 C704 1.419 . S
C706 C707 1.363 . S
C706 H709 0.929 . S
C707 C706 1.363 . S
C707 C713 1.428 . S
H708 C704 0.930 . S
H709 C706 0.929 . S
S710 N711 1.613 . S
S710 N712 1.610 . S
N711 S710 1.613 . S
N711 C714 1.350 . S
N712 S710 1.610 . S
N712 C713 1.351 . S
C713 C707 1.428 . S
C713 N712 1.351 . S
C713 C714 1.434 . S
C714 C705 1.429 . S
C714 N711 1.350 . S
C714 C713 1.434 . S
C715 C716 1.369 . S
C715 C717 1.419 . S
C715 H719 0.930 . S
C716 C715 1.369 . S
C716 C725 1.429 . S
C717 C715 1.419 . S
C717 C718 1.363 . S
C717 H720 0.929 . S
C718 C717 1.363 . S
C718 C724 1.428 . S
H719 C715 0.930 . S
H720 C717 0.929 . S
S721 N722 1.613 . S
S721 N723 1.610 . S
N722 S721 1.613 . S
N722 C725 1.350 . S
N723 S721 1.610 . S
N723 C724 1.351 . S
C724 C718 1.428 . S
C724 N723 1.351 . S
C724 C725 1.434 . S
C725 C716 1.429 . S
C725 N722 1.350 . S
C725 C724 1.434 . S
C726 C727 1.369 . S
C726 C728 1.419 . S
C726 H730 0.930 . S
C727 C726 1.369 . S
C727 C736 1.429 . S
C728 C726 1.419 . S
C728 C729 1.363 . S
C728 H731 0.929 . S
C729 C728 1.363 . S
C729 C735 1.428 . S
H730 C726 0.930 . S
H731 C728 0.929 . S
S732 N733 1.613 . S
S732 N734 1.610 . S
N733 S732 1.613 . S
N733 C736 1.350 . S
N734 S732 1.610 . S
N734 C735 1.351 . S
C735 C729 1.428 . S
C735 N734 1.351 . S
C735 C736 1.434 . S
C736 C727 1.429 . S
C736 N733 1.350 . S
C736 C735 1.434 . S
C737 C738 1.369 . S
C737 C739 1.419 . S
C737 H741 0.930 . S
C738 C737 1.369 . S
C738 C747 1.429 . S
C739 C737 1.419 . S
C739 C740 1.363 . S
C739 H742 0.929 . S
C740 C739 1.363 . S
C740 C746 1.428 . S
H741 C737 0.930 . S
H742 C739 0.929 . S
S743 N744 1.613 . S
S743 N745 1.610 . S
N744 S743 1.613 . S
N744 C747 1.350 . S
N745 S743 1.610 . S
N745 C746 1.351 . S
C746 C740 1.428 . S
C746 N745 1.351 . S
C746 C747 1.434 . S
C747 C738 1.429 . S
C747 N744 1.350 . S
C747 C746 1.434 . S
C748 C749 1.369 . S
C748 C750 1.419 . S
C748 H752 0.930 . S
C749 C748 1.369 . S
C749 C758 1.429 . S
C750 C748 1.419 . S
C750 C751 1.363 . S
C750 H753 0.929 . S
C751 C750 1.363 . S
C751 C757 1.428 . S
H752 C748 0.930 . S
H753 C750 0.929 . S
S754 N755 1.613 . S
S754 N756 1.610 . S
N755 S754 1.613 . S
N755 C758 1.350 . S
N756 S754 1.610 . S
N756 C757 1.351 . S
C757 C751 1.428 . S
C757 N756 1.351 . S
C757 C758 1.434 . S
C758 C749 1.429 . S
C758 N755 1.350 . S
C758 C757 1.434 . S
C759 C760 1.369 . S
C759 C761 1.419 . S
C759 H763 0.930 . S
C760 C759 1.369 . S
C760 C769 1.429 . S
C761 C759 1.419 . S
C761 C762 1.363 . S
C761 H764 0.929 . S
C762 C761 1.363 . S
C762 C768 1.428 . S
H763 C759 0.930 . S
H764 C761 0.929 . S
S765 N766 1.613 . S
S765 N767 1.610 . S
N766 S765 1.613 . S
N766 C769 1.350 . S
N767 S765 1.610 . S
N767 C768 1.351 . S
C768 C762 1.428 . S
C768 N767 1.351 . S
C768 C769 1.434 . S
C769 C760 1.429 . S
C769 N766 1.350 . S
C769 C768 1.434 . S
C770 C771 1.369 . S
C770 C772 1.419 . S
C770 H774 0.930 . S
C771 C770 1.369 . S
C771 C780 1.429 . S
C772 C770 1.419 . S
C772 C773 1.363 . S
C772 H775 0.929 . S
C773 C772 1.363 . S
C773 C779 1.428 . S
H774 C770 0.930 . S
H775 C772 0.929 . S
S776 N777 1.613 . S
S776 N778 1.610 . S
N777 S776 1.613 . S
N777 C780 1.350 . S
N778 S776 1.610 . S
N778 C779 1.351 . S
C779 C773 1.428 . S
C779 N778 1.351 . S
C779 C780 1.434 . S
C780 C771 1.429 . S
C780 N777 1.350 . S
C780 C779 1.434 . S
C781 C782 1.369 . S
C781 C783 1.419 . S
C781 H785 0.930 . S
C782 C781 1.369 . S
C782 C791 1.429 . S
C783 C781 1.419 . S
C783 C784 1.363 . S
C783 H786 0.929 . S
C784 C783 1.363 . S
C784 C790 1.428 . S
H785 C781 0.930 . S
H786 C783 0.929 . S
S787 N788 1.613 . S
S787 N789 1.610 . S
N788 S787 1.613 . S
N788 C791 1.350 . S
N789 S787 1.610 . S
N789 C790 1.351 . S
C790 C784 1.428 . S
C790 N789 1.351 . S
C790 C791 1.434 . S
C791 C782 1.429 . S
C791 N788 1.350 . S
C791 C790 1.434 . S
C792 C793 1.369 . S
C792 C794 1.419 . S
C792 H796 0.930 . S
C793 C792 1.369 . S
C793 C802 1.429 . S
C794 C792 1.419 . S
C794 C795 1.363 . S
C794 H797 0.929 . S
C795 C794 1.363 . S
C795 C801 1.428 . S
H796 C792 0.930 . S
H797 C794 0.929 . S
S798 N799 1.613 . S
S798 N800 1.610 . S
N799 S798 1.613 . S
N799 C802 1.350 . S
N800 S798 1.610 . S
N800 C801 1.351 . S
C801 C795 1.428 . S
C801 N800 1.351 . S
C801 C802 1.434 . S
C802 C793 1.429 . S
C802 N799 1.350 . S
C802 C801 1.434 . S
C803 C804 1.369 . S
C803 C805 1.419 . S
C803 H807 0.930 . S
C804 C803 1.369 . S
C804 C813 1.429 . S
C805 C803 1.419 . S
C805 C806 1.363 . S
C805 H808 0.929 . S
C806 C805 1.363 . S
C806 C812 1.428 . S
H807 C803 0.930 . S
H808 C805 0.929 . S
S809 N810 1.613 . S
S809 N811 1.610 . S
N810 S809 1.613 . S
N810 C813 1.350 . S
N811 S809 1.610 . S
N811 C812 1.351 . S
C812 C806 1.428 . S
C812 N811 1.351 . S
C812 C813 1.434 . S
C813 C804 1.429 . S
C813 N810 1.350 . S
C813 C812 1.434 . S
C814 C815 1.369 . S
C814 C816 1.419 . S
C814 H818 0.930 . S
C815 C814 1.369 . S
C815 C824 1.429 . S
C816 C814 1.419 . S
C816 C817 1.363 . S
C816 H819 0.929 . S
C817 C816 1.363 . S
C817 C823 1.428 . S
H818 C814 0.930 . S
H819 C816 0.929 . S
S820 N821 1.613 . S
S820 N822 1.610 . S
N821 S820 1.613 . S
N821 C824 1.350 . S
N822 S820 1.610 . S
N822 C823 1.351 . S
C823 C817 1.428 . S
C823 N822 1.351 . S
C823 C824 1.434 . S
C824 C815 1.429 . S
C824 N821 1.350 . S
C824 C823 1.434 . S
C825 C826 1.369 . S
C825 C827 1.419 . S
C825 H829 0.930 . S
C826 C825 1.369 . S
C826 C835 1.429 . S
C827 C825 1.419 . S
C827 C828 1.363 . S
C827 H830 0.929 . S
C828 C827 1.363 . S
C828 C834 1.428 . S
H829 C825 0.930 . S
H830 C827 0.929 . S
S831 N832 1.613 . S
S831 N833 1.610 . S
N832 S831 1.613 . S
N832 C835 1.350 . S
N833 S831 1.610 . S
N833 C834 1.351 . S
C834 C828 1.428 . S
C834 N833 1.351 . S
C834 C835 1.434 . S
C835 C826 1.429 . S
C835 N832 1.350 . S
C835 C834 1.434 . S
C836 C837 1.369 . S
C836 C838 1.419 . S
C836 H840 0.930 . S
C837 C836 1.369 . S
C837 C846 1.429 . S
C838 C836 1.419 . S
C838 C839 1.363 . S
C838 H841 0.929 . S
C839 C838 1.363 . S
C839 C845 1.428 . S
H840 C836 0.930 . S
H841 C838 0.929 . S
S842 N843 1.613 . S
S842 N844 1.610 . S
N843 S842 1.613 . S
N843 C846 1.350 . S
N844 S842 1.610 . S
N844 C845 1.351 . S
C845 C839 1.428 . S
C845 N844 1.351 . S
C845 C846 1.434 . S
C846 C837 1.429 . S
C846 N843 1.350 . S
C846 C845 1.434 . S
C847 C848 1.369 . S
C847 C849 1.419 . S
C847 H851 0.930 . S
C848 C847 1.369 . S
C848 C857 1.429 . S
C849 C847 1.419 . S
C849 C850 1.363 . S
C849 H852 0.929 . S
C850 C849 1.363 . S
C850 C856 1.428 . S
H851 C847 0.930 . S
H852 C849 0.929 . S
S853 N854 1.613 . S
S853 N855 1.610 . S
N854 S853 1.613 . S
N854 C857 1.350 . S
N855 S853 1.610 . S
N855 C856 1.351 . S
C856 C850 1.428 . S
C856 N855 1.351 . S
C856 C857 1.434 . S
C857 C848 1.429 . S
C857 N854 1.350 . S
C857 C856 1.434 . S
C858 C859 1.369 . S
C858 C860 1.419 . S
C858 H862 0.930 . S
C859 C858 1.369 . S
C859 C868 1.429 . S
C860 C858 1.419 . S
C860 C861 1.363 . S
C860 H863 0.929 . S
C861 C860 1.363 . S
C861 C867 1.428 . S
H862 C858 0.930 . S
H863 C860 0.929 . S
S864 N865 1.613 . S
S864 N866 1.610 . S
N865 S864 1.613 . S
N865 C868 1.350 . S
N866 S864 1.610 . S
N866 C867 1.351 . S
C867 C861 1.428 . S
C867 N866 1.351 . S
C867 C868 1.434 . S
C868 C859 1.429 . S
C868 N865 1.350 . S
C868 C867 1.434 . S
C869 C870 1.369 . S
C869 C871 1.419 . S
C869 H873 0.930 . S
C870 C869 1.369 . S
C870 C879 1.429 . S
C871 C869 1.419 . S
C871 C872 1.363 . S
C871 H874 0.929 . S
C872 C871 1.363 . S
C872 C878 1.428 . S
H873 C869 0.930 . S
H874 C871 0.929 . S
S875 N876 1.613 . S
S875 N877 1.610 . S
N876 S875 1.613 . S
N876 C879 1.350 . S
N877 S875 1.610 . S
N877 C878 1.351 . S
C878 C872 1.428 . S
C878 N877 1.351 . S
C878 C879 1.434 . S
C879 C870 1.429 . S
C879 N876 1.350 . S
C879 C878 1.434 . S
C880 C881 1.369 . S
C880 C882 1.419 . S
C880 H884 0.930 . S
C881 C880 1.369 . S
C881 C890 1.429 . S
C882 C880 1.419 . S
C882 C883 1.363 . S
C882 H885 0.929 . S
C883 C882 1.363 . S
C883 C889 1.428 . S
H884 C880 0.930 . S
H885 C882 0.929 . S
S886 N887 1.613 . S
S886 N888 1.610 . S
N887 S886 1.613 . S
N887 C890 1.350 . S
N888 S886 1.610 . S
N888 C889 1.351 . S
C889 C883 1.428 . S
C889 N888 1.351 . S
C889 C890 1.434 . S
C890 C881 1.429 . S
C890 N887 1.350 . S
C890 C889 1.434 . S
C891 C892 1.369 . S
C891 C893 1.419 . S
C891 H895 0.930 . S
C892 C891 1.369 . S
C892 C901 1.429 . S
C893 C891 1.419 . S
C893 C894 1.363 . S
C893 H896 0.929 . S
C894 C893 1.363 . S
C894 C900 1.428 . S
H895 C891 0.930 . S
H896 C893 0.929 . S
S897 N898 1.613 . S
S897 N899 1.610 . S
N898 S897 1.613 . S
N898 C901 1.350 . S
N899 S897 1.610 . S
N899 C900 1.351 . S
C900 C894 1.428 . S
C900 N899 1.351 . S
C900 C901 1.434 . S
C901 C892 1.429 . S
C901 N898 1.350 . S
C901 C900 1.434 . S
C902 C903 1.369 . S
C902 C904 1.419 . S
C902 H906 0.930 . S
C903 C902 1.369 . S
C903 C912 1.429 . S
C904 C902 1.419 . S
C904 C905 1.363 . S
C904 H907 0.929 . S
C905 C904 1.363 . S
C905 C911 1.428 . S
H906 C902 0.930 . S
H907 C904 0.929 . S
S908 N909 1.613 . S
S908 N910 1.610 . S
N909 S908 1.613 . S
N909 C912 1.350 . S
N910 S908 1.610 . S
N910 C911 1.351 . S
C911 C905 1.428 . S
C911 N910 1.351 . S
C911 C912 1.434 . S
C912 C903 1.429 . S
C912 N909 1.350 . S
C912 C911 1.434 . S
C913 C914 1.369 . S
C913 C915 1.419 . S
C913 H917 0.930 . S
C914 C913 1.369 . S
C914 C923 1.429 . S
C915 C913 1.419 . S
C915 C916 1.363 . S
C915 H918 0.929 . S
C916 C915 1.363 . S
C916 C922 1.428 . S
H917 C913 0.930 . S
H918 C915 0.929 . S
S919 N920 1.613 . S
S919 N921 1.610 . S
N920 S919 1.613 . S
N920 C923 1.350 . S
N921 S919 1.610 . S
N921 C922 1.351 . S
C922 C916 1.428 . S
C922 N921 1.351 . S
C922 C923 1.434 . S
C923 C914 1.429 . S
C923 N920 1.350 . S
C923 C922 1.434 . S
C924 C925 1.369 . S
C924 C926 1.419 . S
C924 H928 0.930 . S
C925 C924 1.369 . S
C925 C934 1.429 . S
C926 C924 1.419 . S
C926 C927 1.363 . S
C926 H929 0.929 . S
C927 C926 1.363 . S
C927 C933 1.428 . S
H928 C924 0.930 . S
H929 C926 0.929 . S
S930 N931 1.613 . S
S930 N932 1.610 . S
N931 S930 1.613 . S
N931 C934 1.350 . S
N932 S930 1.610 . S
N932 C933 1.351 . S
C933 C927 1.428 . S
C933 N932 1.351 . S
C933 C934 1.434 . S
C934 C925 1.429 . S
C934 N931 1.350 . S
C934 C933 1.434 . S
C935 C936 1.369 . S
C935 C937 1.419 . S
C935 H939 0.930 . S
C936 C935 1.369 . S
C936 C945 1.429 . S
C937 C935 1.419 . S
C937 C938 1.363 . S
C937 H940 0.929 . S
C938 C937 1.363 . S
C938 C944 1.428 . S
H939 C935 0.930 . S
H940 C937 0.929 . S
S941 N942 1.613 . S
S941 N943 1.610 . S
N942 S941 1.613 . S
N942 C945 1.350 . S
N943 S941 1.610 . S
N943 C944 1.351 . S
C944 C938 1.428 . S
C944 N943 1.351 . S
C944 C945 1.434 . S
C945 C936 1.429 . S
C945 N942 1.350 . S
C945 C944 1.434 . S
C946 C947 1.369 . S
C946 C948 1.419 . S
C946 H950 0.930 . S
C947 C946 1.369 . S
C947 C956 1.429 . S
C948 C946 1.419 . S
C948 C949 1.363 . S
C948 H951 0.929 . S
C949 C948 1.363 . S
C949 C955 1.428 . S
H950 C946 0.930 . S
H951 C948 0.929 . S
S952 N953 1.613 . S
S952 N954 1.610 . S
N953 S952 1.613 . S
N953 C956 1.350 . S
N954 S952 1.610 . S
N954 C955 1.351 . S
C955 C949 1.428 . S
C955 N954 1.351 . S
C955 C956 1.434 . S
C956 C947 1.429 . S
C956 N953 1.350 . S
C956 C955 1.434 . S
C957 C958 1.369 . S
C957 C959 1.419 . S
C957 H961 0.930 . S
C958 C957 1.369 . S
C958 C967 1.429 . S
C959 C957 1.419 . S
C959 C960 1.363 . S
C959 H962 0.929 . S
C960 C959 1.363 . S
C960 C966 1.428 . S
H961 C957 0.930 . S
H962 C959 0.929 . S
S963 N964 1.613 . S
S963 N965 1.610 . S
N964 S963 1.613 . S
N964 C967 1.350 . S
N965 S963 1.610 . S
N965 C966 1.351 . S
C966 C960 1.428 . S
C966 N965 1.351 . S
C966 C967 1.434 . S
C967 C958 1.429 . S
C967 N964 1.350 . S
C967 C966 1.434 . S
C968 C969 1.369 . S
C968 C970 1.419 . S
C968 H972 0.930 . S
C969 C968 1.369 . S
C969 C978 1.429 . S
C970 C968 1.419 . S
C970 C971 1.363 . S
C970 H973 0.929 . S
C971 C970 1.363 . S
C971 C977 1.428 . S
H972 C968 0.930 . S
H973 C970 0.929 . S
S974 N975 1.613 . S
S974 N976 1.610 . S
N975 S974 1.613 . S
N975 C978 1.350 . S
N976 S974 1.610 . S
N976 C977 1.351 . S
C977 C971 1.428 . S
C977 N976 1.351 . S
C977 C978 1.434 . S
C978 C969 1.429 . S
C978 N975 1.350 . S
C978 C977 1.434 . S
C979 C980 1.369 . S
C979 C981 1.419 . S
C979 H983 0.930 . S
C980 C979 1.369 . S
C980 C989 1.429 . S
C981 C979 1.419 . S
C981 C982 1.363 . S
C981 H984 0.929 . S
C982 C981 1.363 . S
C982 C988 1.428 . S
H983 C979 0.930 . S
H984 C981 0.929 . S
S985 N986 1.613 . S
S985 N987 1.610 . S
N986 S985 1.613 . S
N986 C989 1.350 . S
N987 S985 1.610 . S
N987 C988 1.351 . S
C988 C982 1.428 . S
C988 N987 1.351 . S
C988 C989 1.434 . S
C989 C980 1.429 . S
C989 N986 1.350 . S
C989 C988 1.434 . S
C990 C991 1.369 . S
C990 C992 1.419 . S
C990 H994 0.930 . S
C991 C990 1.369 . S
C991 C1000 1.429 . S
C992 C990 1.419 . S
C992 C993 1.363 . S
C992 H995 0.929 . S
C993 C992 1.363 . S
C993 C999 1.428 . S
H994 C990 0.930 . S
H995 C992 0.929 . S
S996 N997 1.613 . S
S996 N998 1.610 . S
N997 S996 1.613 . S
N997 C1000 1.350 . S
N998 S996 1.610 . S
N998 C999 1.351 . S
C999 C993 1.428 . S
C999 N998 1.351 . S
C999 C1000 1.434 . S
C1000 C991 1.429 . S
C1000 N997 1.350 . S
C1000 C999 1.434 . S
C1001 C1002 1.369 . S
C1001 C1003 1.419 . S
C1001 H1005 0.930 . S
C1002 C1001 1.369 . S
C1002 C1011 1.429 . S
C1003 C1001 1.419 . S
C1003 C1004 1.363 . S
C1003 H1006 0.929 . S
C1004 C1003 1.363 . S
C1004 C1010 1.428 . S
H1005 C1001 0.930 . S
H1006 C1003 0.929 . S
S1007 N1008 1.613 . S
S1007 N1009 1.610 . S
N1008 S1007 1.613 . S
N1008 C1011 1.350 . S
N1009 S1007 1.610 . S
N1009 C1010 1.351 . S
C1010 C1004 1.428 . S
C1010 N1009 1.351 . S
C1010 C1011 1.434 . S
C1011 C1002 1.429 . S
C1011 N1008 1.350 . S
C1011 C1010 1.434 . S
C487 C195 1.680 . S
C485 C9 1.656 . S
C498 C173 2.082 . S
C496 C28 2.129 . S
C509 C170 0.860 . S
C507 C49 0.854 . S
C518 C79 2.131 . S
C520 C182 2.092 . S
C529 C99 2.122 . S
C531 C165 2.072 . S
C542 C187 0.866 . S
C540 C101 0.852 . S
C551 C128 2.135 . S
C553 C192 2.102 . S
C562 C141 1.657 . S
C564 C188 1.679 . S
C575 C246 1.370 . S
C573 C16 1.394 . S
C584 C26 1.146 . S
C586 C296 1.228 . S
C597 C219 1.341 . S
C595 C56 1.356 . S
C608 C295 0.951 . S
C606 C69 0.924 . S
C617 C89 0.932 . S
C619 C224 0.966 . S
C630 C290 2.073 . S
C628 C108 2.098 . S
C639 C126 1.153 . S
C641 C249 1.270 . S
C650 C148 2.114 . S
C652 C281 2.084 . S
C661 C19 2.118 . S
C663 C273 2.081 . S
C672 C96 1.156 . S
C674 C303 1.229 . S
C685 C227 1.360 . S
C683 C106 1.367 . S
C696 C278 0.958 . S
C694 C121 0.931 . S
C705 C146 1.385 . S
C707 C236 1.378 . S
C716 C59 2.104 . S
C718 C300 2.093 . S
C729 C242 1.271 . S
C727 C76 1.158 . S
C738 C21 0.926 . S
C740 C241 0.973 . S
C749 C149 1.652 . S
C751 C357 1.679 . S
C760 C88 2.127 . S
C762 C335 2.078 . S
C773 C332 0.861 . S
C771 C109 0.861 . S
C784 C344 2.092 . S
C782 C139 2.131 . S
C793 C39 2.125 . S
C795 C327 2.074 . S
C806 C349 0.865 . S
C804 C41 0.862 . S
C815 C68 2.139 . S
C817 C354 2.106 . S
C826 C1 1.652 . S
C828 C350 1.680 . S
C837 C156 1.385 . S
C839 C408 1.376 . S
C850 C458 1.225 . S
C848 C86 1.141 . S
C859 C116 1.353 . S
C861 C381 1.344 . S
C870 C129 0.924 . S
C872 C457 0.951 . S
C883 C386 0.968 . S
C881 C29 0.916 . S
C892 C48 2.098 . S
C894 C452 2.072 . S
C905 C411 1.270 . S
C903 C66 1.156 . S
C916 C443 2.087 . S
C914 C8 2.111 . S
C927 C435 2.085 . S
C925 C159 2.115 . S
C936 C36 1.157 . S
C938 C465 1.225 . S
C947 C46 1.374 . S
C949 C389 1.353 . S
C960 C440 0.960 . S
C958 C61 0.922 . S
C969 C6 1.389 . S
C971 C398 1.374 . S
C980 C119 2.106 . S
C982 C462 2.089 . S
C993 C404 1.269 . S
C991 C136 1.161 . S
C1004 C403 0.973 . S
C1002 C81 0.937 . S
