# Generated by pormake.
# Topology ocu, (6,8)-cn, num edge types: 1
# Building blocks:
#     Node 0, Type 0, BuildingBlock: HISSIN_clean_sbu_0, # of connection points: 6
#     Node 1, Type 0, BuildingBlock: HISSIN_clean_sbu_0, # of connection points: 6
#     Node 2, Type 0, BuildingBlock: HISSIN_clean_sbu_0, # of connection points: 6
#     Node 3, Type 0, BuildingBlock: HISSIN_clean_sbu_0, # of connection points: 6
#     Node 4, Type 0, BuildingBlock: HISSIN_clean_sbu_0, # of connection points: 6
#     Node 5, Type 0, BuildingBlock: HISSIN_clean_sbu_0, # of connection points: 6
#     Node 6, Type 0, BuildingBlock: HISSIN_clean_sbu_0, # of connection points: 6
#     Node 7, Type 0, BuildingBlock: HISSIN_clean_sbu_0, # of connection points: 6
#     Node 8, Type 1, BuildingBlock: TAGTUT_clean_sbu_1, # of connection points: 8
#     Node 9, Type 1, BuildingBlock: TAGTUT_clean_sbu_1, # of connection points: 8
#     Node 10, Type 1, BuildingBlock: TAGTUT_clean_sbu_1, # of connection points: 8
#     Node 11, Type 1, BuildingBlock: TAGTUT_clean_sbu_1, # of connection points: 8
#     Node 12, Type 1, BuildingBlock: TAGTUT_clean_sbu_1, # of connection points: 8
#     Node 13, Type 1, BuildingBlock: TAGTUT_clean_sbu_1, # of connection points: 8
#     Edge 14, Type (0, 1), BuildingBlock: EZIPEK_clean_linker_0, # of connection points: 2
#     Edge 15, Type (0, 1), BuildingBlock: EZIPEK_clean_linker_0, # of connection points: 2
#     Edge 16, Type (0, 1), BuildingBlock: EZIPEK_clean_linker_0, # of connection points: 2
#     Edge 17, Type (0, 1), BuildingBlock: EZIPEK_clean_linker_0, # of connection points: 2
#     Edge 18, Type (0, 1), BuildingBlock: EZIPEK_clean_linker_0, # of connection points: 2
#     Edge 19, Type (0, 1), BuildingBlock: EZIPEK_clean_linker_0, # of connection points: 2
#     Edge 20, Type (0, 1), BuildingBlock: EZIPEK_clean_linker_0, # of connection points: 2
#     Edge 21, Type (0, 1), BuildingBlock: EZIPEK_clean_linker_0, # of connection points: 2
#     Edge 22, Type (0, 1), BuildingBlock: EZIPEK_clean_linker_0, # of connection points: 2
#     Edge 23, Type (0, 1), BuildingBlock: EZIPEK_clean_linker_0, # of connection points: 2
#     Edge 24, Type (0, 1), BuildingBlock: EZIPEK_clean_linker_0, # of connection points: 2
#     Edge 25, Type (0, 1), BuildingBlock: EZIPEK_clean_linker_0, # of connection points: 2
#     Edge 26, Type (0, 1), BuildingBlock: EZIPEK_clean_linker_0, # of connection points: 2
#     Edge 27, Type (0, 1), BuildingBlock: EZIPEK_clean_linker_0, # of connection points: 2
#     Edge 28, Type (0, 1), BuildingBlock: EZIPEK_clean_linker_0, # of connection points: 2
#     Edge 29, Type (0, 1), BuildingBlock: EZIPEK_clean_linker_0, # of connection points: 2
#     Edge 30, Type (0, 1), BuildingBlock: EZIPEK_clean_linker_0, # of connection points: 2
#     Edge 31, Type (0, 1), BuildingBlock: EZIPEK_clean_linker_0, # of connection points: 2
#     Edge 32, Type (0, 1), BuildingBlock: EZIPEK_clean_linker_0, # of connection points: 2
#     Edge 33, Type (0, 1), BuildingBlock: EZIPEK_clean_linker_0, # of connection points: 2
#     Edge 34, Type (0, 1), BuildingBlock: EZIPEK_clean_linker_0, # of connection points: 2
#     Edge 35, Type (0, 1), BuildingBlock: EZIPEK_clean_linker_0, # of connection points: 2
#     Edge 36, Type (0, 1), BuildingBlock: EZIPEK_clean_linker_0, # of connection points: 2
#     Edge 37, Type (0, 1), BuildingBlock: EZIPEK_clean_linker_0, # of connection points: 2
#     Edge 38, Type (0, 1), BuildingBlock: EZIPEK_clean_linker_0, # of connection points: 2
#     Edge 39, Type (0, 1), BuildingBlock: EZIPEK_clean_linker_0, # of connection points: 2
#     Edge 40, Type (0, 1), BuildingBlock: EZIPEK_clean_linker_0, # of connection points: 2
#     Edge 41, Type (0, 1), BuildingBlock: EZIPEK_clean_linker_0, # of connection points: 2
#     Edge 42, Type (0, 1), BuildingBlock: EZIPEK_clean_linker_0, # of connection points: 2
#     Edge 43, Type (0, 1), BuildingBlock: EZIPEK_clean_linker_0, # of connection points: 2
#     Edge 44, Type (0, 1), BuildingBlock: EZIPEK_clean_linker_0, # of connection points: 2
#     Edge 45, Type (0, 1), BuildingBlock: EZIPEK_clean_linker_0, # of connection points: 2
#     Edge 46, Type (0, 1), BuildingBlock: EZIPEK_clean_linker_0, # of connection points: 2
#     Edge 47, Type (0, 1), BuildingBlock: EZIPEK_clean_linker_0, # of connection points: 2
#     Edge 48, Type (0, 1), BuildingBlock: EZIPEK_clean_linker_0, # of connection points: 2
#     Edge 49, Type (0, 1), BuildingBlock: EZIPEK_clean_linker_0, # of connection points: 2
#     Edge 50, Type (0, 1), BuildingBlock: EZIPEK_clean_linker_0, # of connection points: 2
#     Edge 51, Type (0, 1), BuildingBlock: EZIPEK_clean_linker_0, # of connection points: 2
#     Edge 52, Type (0, 1), BuildingBlock: EZIPEK_clean_linker_0, # of connection points: 2
#     Edge 53, Type (0, 1), BuildingBlock: EZIPEK_clean_linker_0, # of connection points: 2
#     Edge 54, Type (0, 1), BuildingBlock: EZIPEK_clean_linker_0, # of connection points: 2
#     Edge 55, Type (0, 1), BuildingBlock: EZIPEK_clean_linker_0, # of connection points: 2
#     Edge 56, Type (0, 1), BuildingBlock: EZIPEK_clean_linker_0, # of connection points: 2
#     Edge 57, Type (0, 1), BuildingBlock: EZIPEK_clean_linker_0, # of connection points: 2
#     Edge 58, Type (0, 1), BuildingBlock: EZIPEK_clean_linker_0, # of connection points: 2
#     Edge 59, Type (0, 1), BuildingBlock: EZIPEK_clean_linker_0, # of connection points: 2
#     Edge 60, Type (0, 1), BuildingBlock: EZIPEK_clean_linker_0, # of connection points: 2
#     Edge 61, Type (0, 1), BuildingBlock: EZIPEK_clean_linker_0, # of connection points: 2
# Relax obj value: 0.142
# Max RMSD: 0.216
# Mean RMSD: 0.130
data_MOF--net-ocu--node1-HISSIN_clean_sbu_0--node2-TAGTUT_clean_sbu_1--edge1-EZIPEK_clean_linker_0
_symmetry_space_group_name_H-M    P1
_symmetry_Int_Tables_number       1
_symmetry_cell_setting            triclinic
loop_
_symmetry_equiv_pos_as_xyz
'x, y, z'
_cell_length_a     32.387887
_cell_length_b     31.044648
_cell_length_c     31.985043
_cell_angle_alpha  103.37514
_cell_angle_beta   79.146195
_cell_angle_gamma 118.57993
loop_
_atom_site_label
_atom_site_type_symbol
_atom_site_fract_x
_atom_site_fract_y
_atom_site_fract_z
_atom_type_partial_charge
Eu0 Eu 0.32158 0.2793 0.30037 0.0
Eu1 Eu 0.23669 0.23431 0.23453 0.0
C2 C 0.22625 0.17762 0.31463 0.0
C3 C 0.4179 0.28467 0.35597 0.0
C4 C 0.4047 0.23426 0.33943 0.0
C5 C 0.47288 0.28549 0.39878 0.0
C6 C 0.42458 0.20932 0.35335 0.0
C7 C 0.45292 0.31043 0.38488 0.0
C8 C 0.45798 0.23449 0.38388 0.0
C9 C 0.39413 0.30986 0.3442 0.0
O10 O 0.23208 0.30004 0.2791 0.0
O11 O 0.27386 0.31341 0.33528 0.0
C12 C 0.24268 0.31906 0.31902 0.0
O13 O 0.34897 0.33544 0.25428 0.0
O14 O 0.1605 0.20292 0.23296 0.0
O15 O 0.20561 0.21262 0.17327 0.0
O16 O 0.29225 0.30108 0.20593 0.0
C17 C 0.33329 0.33549 0.21912 0.0
O18 O 0.32423 0.21219 0.25568 0.0
O19 O 0.28803 0.20596 0.19788 0.0
O20 O 0.21514 0.17457 0.27603 0.0
O21 O 0.39757 0.31094 0.30323 0.0
O22 O 0.35134 0.29856 0.36202 0.0
O23 O 0.26289 0.21628 0.33169 0.0
C24 C 0.13994 0.22829 0.17958 0.0
C25 C 0.15637 0.27976 0.19277 0.0
C26 C 0.08255 0.22688 0.13922 0.0
C27 C 0.13694 0.30481 0.17831 0.0
C28 C 0.1021 0.20181 0.15365 0.0
C29 C 0.10068 0.27875 0.15057 0.0
C30 C 0.16322 0.20271 0.19176 0.0
C31 C 0.31681 0.19718 0.21461 0.0
H32 H 0.37786 0.21382 0.31693 0.0
H33 H 0.49801 0.30525 0.4229 0.0
H34 H 0.41211 0.16981 0.34206 0.0
H35 H 0.46365 0.34937 0.3978 0.0
H36 H 0.18538 0.30083 0.21298 0.0
H37 H 0.05516 0.20628 0.11727 0.0
H38 H 0.15188 0.34489 0.18687 0.0
H39 H 0.08879 0.16206 0.14334 0.0
Eu40 Eu 0.82149 0.23472 0.25608 0.0
Eu41 Eu 0.74372 0.28206 0.26957 0.0
C42 C 0.81942 0.31813 0.33725 0.0
C43 C 0.90964 0.19215 0.27582 0.0
C44 C 0.88993 0.17906 0.31681 0.0
C45 C 0.97909 0.18528 0.28535 0.0
C46 C 0.91432 0.16845 0.34155 0.0
C47 C 0.95455 0.19558 0.26048 0.0
C48 C 0.9589 0.17115 0.32589 0.0
C49 C 0.88354 0.20108 0.24822 0.0
O50 O 0.81137 0.33467 0.23591 0.0
O51 O 0.84189 0.28026 0.2032 0.0
C52 C 0.83994 0.32227 0.20652 0.0
O53 O 0.76381 0.18243 0.21276 0.0
O54 O 0.72462 0.34277 0.27953 0.0
O55 O 0.67003 0.26645 0.27262 0.0
O56 O 0.74001 0.23816 0.20297 0.0
C57 C 0.74192 0.19575 0.1916 0.0
O58 O 0.7717 0.20665 0.31395 0.0
O59 O 0.70767 0.21147 0.29821 0.0
O60 O 0.7764 0.30884 0.33259 0.0
O61 O 0.83797 0.17286 0.24917 0.0
O62 O 0.89494 0.24733 0.24758 0.0
O63 O 0.84531 0.30273 0.30714 0.0
C64 C 0.65419 0.32385 0.2499 0.0
C65 C 0.60784 0.3164 0.26426 0.0
C66 C 0.64921 0.34997 0.18565 0.0
C67 C 0.58234 0.32563 0.23961 0.0
C68 C 0.67466 0.34049 0.21025 0.0
C69 C 0.60289 0.34261 0.20016 0.0
C70 C 0.67967 0.31294 0.27653 0.0
C71 C 0.72654 0.1949 0.3195 0.0
H72 H 0.85546 0.17639 0.32944 0.0
H73 H 1.01342 0.18751 0.27273 0.0
H74 H 0.89821 0.1576 0.37277 0.0
H75 H 0.97036 0.20555 0.22895 0.0
H76 H 0.59135 0.30342 0.29466 0.0
H77 H 0.66562 0.36307 0.15527 0.0
H78 H 0.54669 0.31975 0.25134 0.0
H79 H 0.7102 0.34611 0.19834 0.0
Eu80 Eu 0.79613 0.79956 0.2236 0.0
Eu81 Eu 0.775 0.7195 0.28766 0.0
C82 C 0.72324 0.6825 0.20322 0.0
C83 C 0.77573 0.88188 0.16644 0.0
C84 C 0.7409 0.88498 0.19888 0.0
C85 C 0.74696 0.90958 0.1184 0.0
C86 C 0.70817 0.89856 0.19048 0.0
C87 C 0.77971 0.8962 0.12683 0.0
C88 C 0.70965 0.90852 0.14944 0.0
C89 C 0.80056 0.85386 0.16973 0.0
O90 O 0.82705 0.70923 0.23244 0.0
O91 O 0.85698 0.77985 0.20161 0.0
C92 C 0.85671 0.73799 0.2046 0.0
O93 O 0.83086 0.84904 0.28341 0.0
O94 O 0.76008 0.6452 0.29529 0.0
O95 O 0.76927 0.70208 0.35154 0.0
O96 O 0.83691 0.79127 0.31237 0.0
C97 C 0.84503 0.83721 0.31292 0.0
O98 O 0.736 0.80315 0.2718 0.0
O99 O 0.72672 0.75383 0.32025 0.0
O100 O 0.71558 0.67974 0.24442 0.0
O101 O 0.82927 0.87095 0.19989 0.0
O102 O 0.77355 0.80619 0.16685 0.0
O103 O 0.7587 0.72097 0.18862 0.0
C104 C 0.79758 0.64523 0.35209 0.0
C105 C 0.7901 0.63668 0.39468 0.0
C106 C 0.86972 0.63671 0.34243 0.0
C107 C 0.82273 0.62926 0.4113 0.0
C108 C 0.83735 0.64455 0.32582 0.0
C109 C 0.86346 0.63049 0.38559 0.0
C110 C 0.76521 0.65763 0.33649 0.0
C111 C 0.71816 0.78678 0.30893 0.0
H112 H 0.73696 0.87357 0.22953 0.0
H113 H 0.74861 0.91716 0.08656 0.0
H114 H 0.67997 0.89814 0.21495 0.0
H115 H 0.80596 0.89343 0.10127 0.0
H116 H 0.75965 0.63706 0.41542 0.0
H117 H 0.9 0.63593 0.32184 0.0
H118 H 0.81703 0.62414 0.44466 0.0
H119 H 0.84391 0.651 0.29279 0.0
Eu120 Eu 0.31218 0.73502 0.27207 0.0
Eu121 Eu 0.24837 0.78617 0.26047 0.0
C122 C 0.24049 0.68446 0.19959 0.0
C123 C 0.41884 0.73154 0.289 0.0
C124 C 0.44168 0.70233 0.27044 0.0
C125 C 0.48354 0.80225 0.25977 0.0
C126 C 0.48242 0.72155 0.24274 0.0
C127 C 0.4425 0.78293 0.28741 0.0
C128 C 0.49992 0.76981 0.23345 0.0
C129 C 0.36722 0.70676 0.29447 0.0
O130 O 0.19989 0.73698 0.30867 0.0
O131 O 0.24172 0.69426 0.30891 0.0
C132 C 0.205 0.70292 0.32183 0.0
O133 O 0.34366 0.81437 0.30559 0.0
O134 O 0.21452 0.79389 0.2117 0.0
O135 O 0.21327 0.83348 0.277 0.0
O136 O 0.27826 0.82659 0.32434 0.0
C137 C 0.32049 0.83618 0.33154 0.0
O138 O 0.35826 0.78097 0.22086 0.0
O139 O 0.31974 0.82824 0.22529 0.0
O140 O 0.21795 0.7085 0.22305 0.0
O141 O 0.34768 0.73145 0.32185 0.0
O142 O 0.34757 0.68808 0.25809 0.0
O143 O 0.28119 0.69172 0.20913 0.0
C144 C 0.14262 0.79145 0.24511 0.0
C145 C 0.11897 0.81926 0.26564 0.0
C146 C 0.07568 0.71653 0.26604 0.0
C147 C 0.07602 0.79666 0.28966 0.0
C148 C 0.11902 0.7393 0.24222 0.0
C149 C 0.05641 0.74597 0.29331 0.0
C150 C 0.19426 0.8169 0.24036 0.0
C151 C 0.35474 0.8172 0.20981 0.0
H152 H 0.42431 0.66287 0.27177 0.0
H153 H 0.49756 0.83999 0.25396 0.0
H154 H 0.49543 0.69613 0.22349 0.0
H155 H 0.42587 0.80653 0.30225 0.0
H156 H 0.13646 0.85937 0.26802 0.0
H157 H 0.06004 0.67705 0.26658 0.0
H158 H 0.06157 0.82042 0.30974 0.0
H159 H 0.13637 0.71683 0.22583 0.0
Eu160 Eu 0.32202 0.73622 0.75665 0.0
Eu161 Eu 0.2428 0.78186 0.77069 0.0
C162 C 0.31953 0.81726 0.83779 0.0
C163 C 0.40945 0.69206 0.77526 0.0
C164 C 0.40094 0.69888 0.82041 0.0
C165 C 0.46611 0.66347 0.78044 0.0
C166 C 0.42464 0.68768 0.84538 0.0
C167 C 0.44243 0.67468 0.75549 0.0
C168 C 0.45717 0.66964 0.82554 0.0
C169 C 0.38534 0.70412 0.74837 0.0
O170 O 0.29473 0.81216 0.71437 0.0
O171 O 0.35845 0.80983 0.73361 0.0
C172 C 0.34018 0.82553 0.71097 0.0
O173 O 0.29075 0.71208 0.69335 0.0
O174 O 0.22532 0.84292 0.77631 0.0
O175 O 0.16922 0.76847 0.78014 0.0
O176 O 0.22012 0.71392 0.71968 0.0
C177 C 0.24694 0.70031 0.68925 0.0
O178 O 0.25271 0.68143 0.78535 0.0
O179 O 0.22272 0.7348 0.82218 0.0
O180 O 0.29692 0.83103 0.81787 0.0
O181 O 0.34038 0.67484 0.74527 0.0
O182 O 0.39536 0.7508 0.75311 0.0
O183 O 0.32318 0.77591 0.8246 0.0
C184 C 0.15194 0.82189 0.75234 0.0
C185 C 0.11616 0.83503 0.77242 0.0
C186 C 0.13526 0.82605 0.6827 0.0
C187 C 0.09049 0.84426 0.74792 0.0
C188 C 0.16098 0.81688 0.70723 0.0
C189 C 0.1002 0.84033 0.70291 0.0
C190 C 0.17978 0.81437 0.77905 0.0
C191 C 0.22425 0.69227 0.81601 0.0
H192 H 0.37595 0.7127 0.83625 0.0
H193 H 0.49097 0.64945 0.76461 0.0
H194 H 0.41718 0.69244 0.88015 0.0
H195 H 0.44974 0.66962 0.7207 0.0
H196 H 0.10851 0.83884 0.80717 0.0
H197 H 0.1433 0.82296 0.64802 0.0
H198 H 0.06365 0.85529 0.76407 0.0
H199 H 0.18829 0.80654 0.69112 0.0
Eu200 Eu 0.29305 0.29346 0.73049 0.0
Eu201 Eu 0.2619 0.21255 0.79668 0.0
C202 C 0.22243 0.17658 0.70411 0.0
C203 C 0.26555 0.35652 0.66246 0.0
C204 C 0.21806 0.32376 0.67229 0.0
C205 C 0.2405 0.40028 0.62716 0.0
C206 C 0.18207 0.32992 0.66066 0.0
C207 C 0.2767 0.39505 0.64 0.0
C208 C 0.19297 0.3676 0.6374 0.0
C209 C 0.30257 0.35102 0.67766 0.0
O210 O 0.32108 0.20394 0.7508 0.0
O211 O 0.34736 0.2645 0.70857 0.0
C212 C 0.34868 0.2263 0.71851 0.0
O213 O 0.34621 0.33703 0.77922 0.0
O214 O 0.22712 0.14027 0.81912 0.0
O215 O 0.27472 0.20594 0.8585 0.0
O216 O 0.30345 0.29001 0.83232 0.0
C217 C 0.33734 0.33094 0.81974 0.0
O218 O 0.24305 0.30853 0.78453 0.0
O219 O 0.20196 0.234 0.80957 0.0
O220 O 0.23428 0.16369 0.73437 0.0
O221 O 0.30737 0.3661 0.71878 0.0
O222 O 0.30214 0.30777 0.66481 0.0
O223 O 0.23042 0.22252 0.70551 0.0
C224 C 0.27784 0.13333 0.85975 0.0
C225 C 0.27688 0.12568 0.90149 0.0
C226 C 0.34727 0.11939 0.83822 0.0
C227 C 0.31167 0.11647 0.91187 0.0
C228 C 0.31215 0.12818 0.82773 0.0
C229 C 0.34823 0.11526 0.88075 0.0
C230 C 0.25088 0.15778 0.85301 0.0
C231 C 0.20793 0.27897 0.80863 0.0
H232 H 0.20893 0.29332 0.68892 0.0
H233 H 0.24948 0.42961 0.60911 0.0
H234 H 0.14577 0.30474 0.66886 0.0
H235 H 0.31318 0.42079 0.63231 0.0
H236 H 0.2512 0.13026 0.92681 0.0
H237 H 0.37492 0.11809 0.81382 0.0
H238 H 0.3118 0.11344 0.94492 0.0
H239 H 0.3135 0.1341 0.79536 0.0
Eu240 Eu 0.80704 0.23767 0.7801 0.0
Eu241 Eu 0.75419 0.29071 0.7544 0.0
C242 C 0.74658 0.18961 0.69888 0.0
C243 C 0.90693 0.21826 0.79261 0.0
C244 C 0.91724 0.18135 0.76609 0.0
C245 C 0.98347 0.28181 0.76902 0.0
C246 C 0.9583 0.19485 0.73842 0.0
C247 C 0.94181 0.26838 0.79631 0.0
C248 C 0.98991 0.24532 0.73775 0.0
C249 C 0.85729 0.20605 0.80618 0.0
O250 O 0.70277 0.24589 0.80584 0.0
O251 O 0.73128 0.18963 0.80045 0.0
C252 C 0.69893 0.20475 0.81519 0.0
O253 O 0.79303 0.28728 0.83817 0.0
O254 O 0.72639 0.30278 0.7035 0.0
O255 O 0.72594 0.34384 0.76835 0.0
O256 O 0.80679 0.34671 0.8015 0.0
C257 C 0.80756 0.33425 0.83759 0.0
O258 O 0.86562 0.29978 0.74632 0.0
O259 O 0.81844 0.30836 0.70735 0.0
O260 O 0.72177 0.21219 0.71991 0.0
O261 O 0.84955 0.24289 0.82794 0.0
O262 O 0.82849 0.18 0.77604 0.0
O263 O 0.78701 0.19993 0.7118 0.0
C264 C 0.65847 0.31188 0.73331 0.0
C265 C 0.62871 0.2602 0.72651 0.0
C266 C 0.59782 0.32451 0.78215 0.0
C267 C 0.58484 0.2407 0.75026 0.0
C268 C 0.64062 0.34393 0.7574 0.0
C269 C 0.57192 0.27283 0.78163 0.0
C270 C 0.70942 0.33009 0.73064 0.0
C271 C 0.86005 0.31615 0.71445 0.0
H272 H 0.89121 0.14258 0.76315 0.0
H273 H 1.00857 0.32072 0.76996 0.0
H274 H 0.96339 0.16603 0.71493 0.0
H275 H 0.93522 0.29773 0.81722 0.0
H276 H 0.6415 0.23463 0.70723 0.0
H277 H 0.58778 0.3502 0.80533 0.0
H278 H 0.56386 0.20077 0.74765 0.0
H279 H 0.66284 0.38381 0.76257 0.0
Eu280 Eu 0.82948 0.788 0.80457 0.0
Eu281 Eu 0.74238 0.73966 0.73979 0.0
C282 C 0.73038 0.68481 0.81987 0.0
C283 C 0.92166 0.78669 0.86185 0.0
C284 C 0.92549 0.78708 0.90497 0.0
C285 C 0.95919 0.7321 0.8387 0.0
C286 C 0.94534 0.75972 0.91492 0.0
C287 C 0.93904 0.75919 0.82873 0.0
C288 C 0.9619 0.73167 0.88189 0.0
C289 C 0.89767 0.8132 0.85217 0.0
O290 O 0.72755 0.79487 0.79178 0.0
O291 O 0.78987 0.83272 0.8345 0.0
C292 C 0.74976 0.82707 0.82449 0.0
O293 O 0.85462 0.84763 0.7629 0.0
O294 O 0.66768 0.7122 0.73246 0.0
O295 O 0.71779 0.72105 0.67587 0.0
O296 O 0.80383 0.80307 0.70962 0.0
C297 C 0.84166 0.84237 0.72465 0.0
O298 O 0.84683 0.7379 0.74817 0.0
O299 O 0.77714 0.68906 0.71652 0.0
O300 O 0.7164 0.68126 0.78261 0.0
O301 O 0.90467 0.82203 0.8129 0.0
O302 O 0.85363 0.7983 0.86734 0.0
O303 O 0.76938 0.72278 0.8342 0.0
C304 C 0.65422 0.73956 0.67532 0.0
C305 C 0.68121 0.7749 0.64781 0.0
C306 C 0.58651 0.75316 0.6727 0.0
C307 C 0.6609 0.79854 0.63254 0.0
C308 C 0.60674 0.72922 0.68783 0.0
C309 C 0.61341 0.78767 0.64465 0.0
C310 C 0.67488 0.7133 0.69114 0.0
C311 C 0.82086 0.69978 0.72063 0.0
H312 H 0.91229 0.80786 0.93102 0.0
H313 H 0.9716 0.71048 0.8128 0.0
H314 H 0.94702 0.75968 0.94842 0.0
H315 H 0.93636 0.75784 0.79516 0.0
H316 H 0.71789 0.784 0.63766 0.0
H317 H 0.54967 0.74394 0.68205 0.0
H318 H 0.68206 0.82479 0.61063 0.0
H319 H 0.58513 0.70222 0.70901 0.0
C320 C 0.0329 0.16915 0.58128 0.0
C321 C 1.02727 0.11394 0.44669 0.0
C322 C 0.92961 0.93647 0.47042 0.0
Mg323 Mg 0.08288 0.11743 0.51421 0.0
O324 O 0.0317 0.06571 0.54078 0.0
Mg325 Mg 0.96732 0.05221 0.53136 0.0
Mg326 Mg 0.03099 1.0023 0.51211 0.0
O327 O 0.03045 0.93899 0.48347 0.0
Mg328 Mg 0.97822 0.88692 0.50819 0.0
Mg329 Mg 0.09412 0.95224 0.49375 0.0
C330 C 0.13423 0.069 0.54809 0.0
C331 C 0.1124 0.03032 0.42969 0.0
O332 O 0.99254 0.12973 0.57763 0.0
O333 O 0.0704 0.17358 0.55707 0.0
O334 O 0.99174 0.09372 0.47326 0.0
O335 O 0.06823 0.12063 0.45173 0.0
O336 O 0.13872 0.10498 0.53111 0.0
O337 O 0.09955 0.02517 0.54113 0.0
C338 C 0.95037 0.97508 0.59632 0.0
O339 O 0.98316 0.96717 0.57196 0.0
O340 O 0.93876 1.00659 0.58897 0.0
O341 O 0.07066 0.87413 0.44825 0.0
O342 O 0.99293 0.83103 0.46898 0.0
O343 O 0.06793 0.91203 0.55292 0.0
C344 C 0.03043 0.8345 0.44545 0.0
O345 O 0.99073 0.88397 0.57178 0.0
O346 O 0.92606 0.89795 0.48238 0.0
C347 C 0.03148 0.89167 0.57865 0.0
O348 O 0.96293 0.98006 0.48217 0.0
O349 O 0.07894 0.03765 0.45317 0.0
O350 O 0.123 0.99772 0.43647 0.0
C351 C 0.42487 0.10205 0.10127 0.0
C352 C 0.47189 0.09514 0.96911 0.0
C353 C 0.45029 0.91536 0.96354 0.0
Mg354 Mg 0.52244 0.11825 0.0484 0.0
O355 O 0.4972 0.0501 0.05071 0.0
Mg356 Mg 0.43265 1.0052 0.03101 0.0
Mg357 Mg 0.53184 0.01318 0.01376 0.0
O358 O 0.5669 0.97648 0.97674 0.0
Mg359 Mg 0.54215 0.90862 0.97896 0.0
Mg360 Mg 0.63121 0.02165 0.99733 0.0
C361 C 0.61317 0.11064 0.06524 0.0
C362 C 0.60456 0.0791 0.94073 0.0
O363 O 0.40628 0.05578 0.08388 0.0
O364 O 0.46846 0.13189 0.09246 0.0
O365 O 0.44235 0.05451 0.98262 0.0
O366 O 0.51103 0.12391 0.98564 0.0
O367 O 0.59137 0.13714 0.06935 0.0
O368 O 0.59635 0.06544 0.04627 0.0
C369 C 0.45815 0.94629 0.08609 0.0
O370 O 0.49984 0.96191 0.06623 0.0
O371 O 0.42751 0.95799 0.07876 0.0
O372 O 0.65894 0.97031 0.94682 0.0
O373 O 0.59633 0.89457 0.93533 0.0
O374 O 0.62072 0.97402 0.04781 0.0
C375 C 0.64039 0.92431 0.92868 0.0
O376 O 0.55289 0.90425 0.04225 0.0
O377 O 0.47252 0.88934 0.95967 0.0
C378 C 0.5904 0.93343 0.06107 0.0
O379 O 0.4672 0.96114 0.98114 0.0
O380 O 0.56338 0.06393 0.96148 0.0
O381 O 0.63572 0.06774 0.94769 0.0
C382 C 0.95656 0.63248 0.09313 0.0
C383 C 1.01054 0.61771 0.96087 0.0
C384 C 0.94274 0.42287 0.957 0.0
Mg385 Mg 0.0478 0.62489 0.04583 0.0
O386 O 1.00974 0.55631 0.0438 0.0
Mg387 Mg 0.94598 0.52623 0.02221 0.0
Mg388 Mg 0.03281 0.50656 1.01052 0.0
O389 O 0.05504 0.45631 0.97819 0.0
Mg390 Mg 1.01743 0.38722 0.97306 0.0
Mg391 Mg 0.11876 0.48607 0.99936 0.0
C392 C 0.12082 0.58948 0.06637 0.0
C393 C 0.11794 0.55469 0.93631 0.0
O394 O 0.93134 0.58858 0.0728 0.0
O395 O 1.00188 0.65274 0.08886 0.0
O396 O 0.97362 0.57955 0.97217 0.0
O397 O 0.04625 0.63961 0.98309 0.0
O398 O 0.10805 0.62354 0.06819 0.0
O399 O 0.09807 0.54488 0.04656 0.0
C400 C 0.94665 0.45366 0.08161 0.0
O401 O 0.98743 0.45981 0.06321 0.0
O402 O 0.92435 0.47448 0.07213 0.0
O403 O 0.13236 0.42365 0.94717 0.0
O404 O 0.06245 0.36333 0.92472 0.0
O405 O 0.0931 0.43371 0.04926 0.0
C406 C 0.10756 0.38248 0.92295 0.0
O407 O 1.0254 0.36674 0.03112 0.0
O408 O 0.95487 0.38817 0.95429 0.0
C409 C 0.06031 0.39037 0.05451 0.0
O410 O 0.96744 0.46799 0.97477 0.0
O411 O 0.07871 0.55249 0.95618 0.0
O412 O 0.13907 0.53511 0.94933 0.0
C413 C 0.52382 0.6686 0.08229 0.0
C414 C 0.52288 0.61353 0.94927 0.0
C415 C 0.42626 0.43601 0.97334 0.0
Mg416 Mg 0.57764 0.61813 0.01823 0.0
O417 O 0.52658 0.56583 0.04417 0.0
Mg418 Mg 0.46221 0.55112 0.03299 0.0
Mg419 Mg 0.5275 0.50331 0.01448 0.0
O420 O 0.52818 0.4409 0.98434 0.0
Mg421 Mg 0.47684 0.38675 1.00786 0.0
Mg422 Mg 0.59196 0.45483 0.99493 0.0
C423 C 0.62995 0.57027 0.05204 0.0
C424 C 0.61116 0.53576 0.93358 0.0
O425 O 0.484 0.62859 0.07824 0.0
O426 O 0.56234 0.67294 0.05999 0.0
O427 O 0.48701 0.59212 0.97502 0.0
O428 O 0.56409 0.62192 0.95543 0.0
O429 O 0.6337 0.60664 0.03611 0.0
O430 O 0.5957 0.52626 0.04442 0.0
C431 C 0.44568 0.47414 0.09722 0.0
O432 O 0.47875 0.4665 0.07308 0.0
O433 O 0.43392 0.50568 0.09018 0.0
O434 O 0.5692 0.37852 0.9466 0.0
O435 O 0.49192 0.33183 0.96651 0.0
O436 O 0.5656 0.41203 0.05246 0.0
C437 C 0.52971 0.33813 0.94224 0.0
O438 O 0.48836 0.38321 0.07141 0.0
O439 O 0.42394 0.39746 0.98409 0.0
C440 C 0.52922 0.39092 0.07796 0.0
O441 O 0.45948 0.47981 0.9846 0.0
O442 O 0.57661 0.54139 0.95661 0.0
O443 O 0.62197 0.50306 0.93964 0.0
C444 C 0.92438 0.59717 0.61248 0.0
C445 C 0.97429 0.59814 0.48108 0.0
C446 C 0.94598 0.41311 0.46537 0.0
Mg447 Mg 1.02206 0.61354 0.5609 0.0
O448 O 0.99588 0.5444 0.55737 0.0
Mg449 Mg 0.93123 0.50236 0.53709 0.0
Mg450 Mg 1.02934 0.50743 0.51784 0.0
O451 O 0.06263 0.47026 0.47861 0.0
Mg452 Mg 0.03561 0.40148 0.47803 0.0
Mg453 Mg 0.12693 0.51178 0.49984 0.0
C454 C 0.1124 0.60096 0.57079 0.0
C455 C 0.1043 0.57604 0.44765 0.0
O456 O 0.90517 0.55269 0.59107 0.0
O457 O 0.96883 0.62626 0.60753 0.0
O458 O 0.94372 0.55576 0.49101 0.0
O459 O 1.01191 0.6253 0.5003 0.0
O460 O 0.09158 0.62877 0.57738 0.0
O461 O 0.09427 0.55612 0.5509 0.0
C462 C 0.95613 0.43907 0.58878 0.0
O463 O 0.99716 0.45424 0.56786 0.0
O464 O 0.9255 0.452 0.58334 0.0
O465 O 0.1527 0.46205 0.4458 0.0
O466 O 0.08947 0.38725 0.43419 0.0
O467 O 0.11405 0.45752 0.54553 0.0
C468 C 0.13367 0.41633 0.42712 0.0
O469 O 0.04371 0.39041 0.53929 0.0
O470 O 0.9669 0.38554 0.45961 0.0
C471 C 0.08252 0.41618 0.55678 0.0
O472 O 0.96392 0.45817 0.485 0.0
O473 O 0.06259 0.561 0.46748 0.0
O474 O 0.13406 0.56256 0.45414 0.0
C475 C 0.4551 0.12604 0.60795 0.0
C476 C 0.50245 0.12361 0.4767 0.0
C477 C 0.44839 0.9275 0.45675 0.0
Mg478 Mg 0.54663 0.12534 0.55669 0.0
O479 O 0.5109 0.05603 0.5498 0.0
Mg480 Mg 0.44685 0.02562 0.52861 0.0
Mg481 Mg 0.53573 0.00856 0.51487 0.0
O482 O 0.56064 0.96145 0.47925 0.0
Mg483 Mg 0.52375 0.89241 0.47107 0.0
Mg484 Mg 0.62373 0.9903 0.50199 0.0
C485 C 0.62317 0.0905 0.57129 0.0
C486 C 0.62331 0.06631 0.44669 0.0
O487 O 0.43111 0.08513 0.58301 0.0
O488 O 0.50031 0.14643 0.60606 0.0
O489 O 0.47046 0.07986 0.48139 0.0
O490 O 0.53775 0.14723 0.49963 0.0
O491 O 0.6096 0.12424 0.57445 0.0
O492 O 0.6002 0.04565 0.55195 0.0
C493 C 0.44921 0.95195 0.58423 0.0
O494 O 0.49007 0.95839 0.56561 0.0
O495 O 0.42695 0.97304 0.57554 0.0
O496 O 0.64079 0.93216 0.44797 0.0
O497 O 0.57193 0.8699 0.42532 0.0
O498 O 0.59613 0.9312 0.54706 0.0
C499 C 0.61719 0.89053 0.42373 0.0
O500 O 0.52436 0.87071 0.53059 0.0
O501 O 0.46223 0.8937 0.45143 0.0
C502 C 0.55977 0.89001 0.55295 0.0
O503 O 0.47059 0.971 0.47858 0.0
O504 O 0.58187 0.05888 0.46439 0.0
O505 O 0.64564 0.04542 0.45587 0.0
C506 C 0.21889 0.11897 0.36258 0.0
C507 C 0.19667 0.13588 0.34036 0.0
C508 C 0.11957 0.07417 0.36848 0.0
C509 C 0.14178 0.06369 0.39648 0.0
N510 N 0.21455 0.08638 0.42583 0.0
N511 N 0.1242 0.1352 0.33009 0.0
C512 C 0.19204 0.08867 0.39494 0.0
C513 C 0.14649 0.11481 0.34523 0.0
N514 N 0.2655 0.13055 0.35206 0.0
N515 N 0.07283 0.0446 0.3631 0.0
H516 H 0.14214 0.16685 0.31551 0.0
H517 H 0.08804 0.12389 0.33622 0.0
H518 H 0.0523 0.01398 0.37864 0.0
H519 H 0.05608 0.0473 0.33971 0.0
H520 H 0.28233 0.11557 0.36465 0.0
H521 H 0.28577 0.15021 0.32706 0.0
H522 H 0.25068 0.10807 0.42847 0.0
H523 H 0.19685 0.06739 0.45168 0.0
C524 C 0.97016 0.10608 0.34962 0.0
C525 C 0.98327 0.15707 0.35155 0.0
C526 C 0.03733 0.17978 0.40648 0.0
C527 C 1.01874 0.1286 0.4092 0.0
N528 N 0.96745 0.04251 0.38372 0.0
N529 N 1.02783 0.24296 0.38227 0.0
C530 C 0.98544 0.09159 0.38053 0.0
C531 C 1.01705 0.19415 0.37964 0.0
N532 N 0.94346 0.07157 0.31782 0.0
N533 N 0.0738 0.21471 0.43 0.0
H534 H 1.01464 0.2549 0.36237 0.0
H535 H 0.04765 0.27141 0.40564 0.0
H536 H 0.08813 0.20611 0.45153 0.0
H537 H 0.09243 0.25179 0.42579 0.0
H538 H 0.93654 0.03443 0.31171 0.0
H539 H 0.93126 0.0809 0.29499 0.0
H540 H 0.93868 0.01407 0.36805 0.0
H541 H 0.98026 0.03018 0.40362 0.0
C542 C 0.91849 0.88304 0.35175 0.0
C543 C 0.87321 0.87675 0.34736 0.0
C544 C 0.87074 0.92337 0.42065 0.0
C545 C 0.91397 0.92561 0.42644 0.0
N546 N 0.98647 0.92359 0.39324 0.0
N547 N 0.81623 0.90874 0.37024 0.0
C548 C 0.94033 0.91069 0.39042 0.0
C549 C 0.85256 0.90286 0.37936 0.0
N550 N 0.94039 0.86231 0.31878 0.0
N551 N 0.84624 0.93897 0.45497 0.0
H552 H 0.80189 0.89424 0.34064 0.0
H553 H 0.80285 0.93139 0.39078 0.0
H554 H 0.85983 0.95585 0.48489 0.0
H555 H 0.81186 0.93307 0.45432 0.0
H556 H 0.97098 0.86024 0.32111 0.0
H557 H 0.92706 0.84603 0.28872 0.0
H558 H 1.00888 0.91678 0.36771 0.0
H559 H 1.00396 0.94604 0.42019 0.0
C560 C 0.04822 0.73176 0.36703 0.0
C561 C 1.02517 0.72963 0.33276 0.0
C562 C 0.99021 0.77897 0.3799 0.0
C563 C 1.02405 0.79309 0.40971 0.0
N564 N 0.07494 0.77051 0.4371 0.0
N565 N 0.95751 0.7301 0.31384 0.0
C566 C 0.04944 0.76549 0.40542 0.0
C567 C 0.98894 0.74387 0.34281 0.0
N568 N 0.07057 0.70314 0.36232 0.0
N569 N 0.96106 0.80061 0.38494 0.0
H570 H 0.95608 0.70458 0.28576 0.0
H571 H 0.95608 0.70458 0.28576 0.0
H572 H 0.96282 0.83034 0.40888 0.0
H573 H 0.93542 0.78923 0.36383 0.0
H574 H 0.08775 0.70392 0.38715 0.0
H575 H 0.06849 0.67645 0.33505 0.0
H576 H 0.0767 0.79375 0.4668 0.0
H577 H 0.0767 0.79375 0.4668 0.0
C578 C 0.09375 0.90454 0.67247 0.0
C579 C 0.0758 0.85405 0.67695 0.0
C580 C 1.01996 0.82826 0.62293 0.0
C581 C 0.03887 0.87873 0.61773 0.0
N582 N 0.08296 0.9654 0.64591 0.0
N583 N 1.01457 0.7696 0.66522 0.0
C584 C 0.07229 0.91702 0.64538 0.0
C585 C 0.03633 0.81646 0.65509 0.0
N586 N 0.13257 0.94033 0.69267 0.0
N587 N 0.98857 0.79144 0.59556 0.0
H588 H 1.02627 0.75983 0.68812 0.0
H589 H 0.98283 0.74164 0.6538 0.0
H590 H 0.97523 0.79855 0.57214 0.0
H591 H 0.97753 0.75375 0.59444 0.0
H592 H 0.15077 0.97675 0.68661 0.0
H593 H 0.14861 0.93295 0.71363 0.0
H594 H 0.10389 0.99507 0.66788 0.0
H595 H 0.06684 0.97524 0.62699 0.0
C596 C 0.22262 0.12199 0.63257 0.0
C597 C 0.19693 0.13804 0.66817 0.0
C598 C 0.12587 0.09263 0.62917 0.0
C599 C 0.154 0.08496 0.59072 0.0
N600 N 0.22883 0.09145 0.55571 0.0
N601 N 0.12347 0.13471 0.70342 0.0
C602 C 0.20221 0.09889 0.59255 0.0
C603 C 0.14814 0.12163 0.66748 0.0
N604 N 0.26613 0.12798 0.63738 0.0
N605 N 0.07799 0.07254 0.62905 0.0
H606 H 0.13843 0.15351 0.73251 0.0
H607 H 0.08885 0.12871 0.70452 0.0
H608 H 0.06004 0.05195 0.60197 0.0
H609 H 0.05502 0.07263 0.65651 0.0
H610 H 0.28514 0.11331 0.61398 0.0
H611 H 0.28117 0.14347 0.66665 0.0
H612 H 0.26544 0.10627 0.55355 0.0
H613 H 0.21426 0.07221 0.52653 0.0
C614 C 1.0123 0.26632 0.66476 0.0
C615 C 1.02546 0.25766 0.7005 0.0
C616 C 0.06532 0.21343 0.65243 0.0
C617 C 0.03872 0.20813 0.61914 0.0
N618 N 0.99619 0.23807 0.58943 0.0
N619 N 0.07354 0.23487 0.72947 0.0
C620 C 1.01575 0.2381 0.62372 0.0
C621 C 0.05685 0.23698 0.69424 0.0
N622 N 0.99527 0.30006 0.67072 0.0
N623 N 0.09734 0.19506 0.64474 0.0
H624 H 0.06723 0.25265 0.76017 0.0
H625 H 0.09195 0.21487 0.72868 0.0
H626 H 0.10232 0.17374 0.61586 0.0
H627 H 0.12208 0.20466 0.66613 0.0
H628 H 0.98841 0.31104 0.64551 0.0
H629 H 0.9929 0.32094 0.70086 0.0
H630 H 0.97518 0.25559 0.59159 0.0
H631 H 1.00047 0.21934 0.55859 0.0
C632 C 0.8895 0.93131 0.70628 0.0
C633 C 0.87305 0.87885 0.6944 0.0
C634 C 0.90061 0.89048 0.61917 0.0
C635 C 0.92233 0.94302 0.63088 0.0
N636 N 0.94273 0.01373 0.688 0.0
N637 N 0.87891 0.81249 0.64089 0.0
C638 C 0.9183 0.96361 0.67524 0.0
C639 C 0.88364 0.85976 0.65129 0.0
N640 N 0.8763 0.9503 0.74641 0.0
N641 N 0.89284 0.86941 0.5773 0.0
H642 H 0.86988 0.7899 0.66404 0.0
H643 H 0.88979 0.79846 0.61036 0.0
H644 H 0.89902 0.891 0.55432 0.0
H645 H 0.87413 0.83117 0.56729 0.0
H646 H 0.8828 0.9873 0.75534 0.0
H647 H 0.85563 0.92826 0.76977 0.0
H648 H 0.94521 0.03054 0.72025 0.0
H649 H 0.96364 0.0381 0.6663 0.0
C650 C 0.39188 0.18831 0.19055 0.0
C651 C 0.34324 0.1709 0.18629 0.0
C652 C 0.34865 0.11042 0.12332 0.0
C653 C 0.39508 0.12293 0.13186 0.0
N654 N 0.4543 0.16482 0.18303 0.0
N655 N 0.27275 0.10565 0.1545 0.0
C656 C 0.41465 0.15906 0.16844 0.0
C657 C 0.32075 0.12896 0.15447 0.0
N658 N 0.41752 0.23416 0.21338 0.0
N659 N 0.33184 0.08355 0.08462 0.0
H660 H 0.25079 0.11615 0.17808 0.0
H661 H 0.25471 0.07241 0.1341 0.0
H662 H 0.35192 0.07244 0.05931 0.0
H663 H 0.29987 0.0776 0.07587 0.0
H664 H 0.45396 0.24971 0.21428 0.0
H665 H 0.4038 0.25918 0.22636 0.0
H666 H 0.46758 0.18827 0.21155 0.0
H667 H 0.47037 0.14193 0.16971 0.0
C668 C 0.90335 0.40523 0.18869 0.0
C669 C 0.86949 0.3558 0.17465 0.0
C670 C 0.89569 0.36844 0.09958 0.0
C671 C 0.92347 0.41975 0.11377 0.0
N672 N 0.95211 0.48862 0.17197 0.0
N673 N 0.82713 0.29371 0.11653 0.0
C674 C 0.9268 0.43873 0.15845 0.0
C675 C 0.86411 0.33814 0.12998 0.0
N676 N 0.91475 0.41934 0.23034 0.0
N677 N 0.89996 0.3484 0.05722 0.0
H678 H 0.80157 0.27188 0.13802 0.0
H679 H 0.81897 0.28144 0.08455 0.0
H680 H 0.92381 0.36943 0.03431 0.0
H681 H 0.88359 0.31027 0.04595 0.0
H682 H 0.94202 0.45356 0.24168 0.0
H683 H 0.90019 0.39457 0.2523 0.0
H684 H 0.9516 0.50526 0.2042 0.0
H685 H 0.97133 0.51383 0.15057 0.0
C686 C 0.66252 0.95361 0.14852 0.0
C687 C 0.66868 0.90997 0.13627 0.0
C688 C 0.60348 0.87206 0.08977 0.0
C689 C 0.60351 0.91886 0.09603 0.0
N690 N 0.61745 0.99589 0.1428 0.0
N691 N 0.64343 0.82585 0.09841 0.0
C692 C 0.62805 0.95696 0.12941 0.0
C693 C 0.63807 0.86832 0.10832 0.0
N694 N 0.69171 0.99289 0.17603 0.0
N695 N 0.56983 0.83117 0.06723 0.0
H696 H 0.66554 0.8202 0.11402 0.0
H697 H 0.62739 0.79664 0.07388 0.0
H698 H 0.5406 0.83101 0.05812 0.0
H699 H 0.56715 0.79566 0.06196 0.0
H700 H 0.69267 0.02778 0.1828 0.0
H701 H 0.71692 0.99133 0.19085 0.0
H702 H 0.63103 0.02361 0.16906 0.0
H703 H 0.59105 0.99743 0.12972 0.0
C704 C 0.22759 0.67705 0.12313 0.0
C705 C 0.22089 0.65345 0.15864 0.0
C706 C 0.15489 0.57877 0.12631 0.0
C707 C 0.16108 0.60317 0.09121 0.0
N708 N 0.21328 0.66674 0.04889 0.0
N709 N 0.18815 0.57815 0.18825 0.0
C710 C 0.2013 0.6492 0.08706 0.0
C711 C 0.1882 0.60273 0.15792 0.0
N712 N 0.25625 0.72696 0.12518 0.0
N713 N 0.11546 0.5351 0.13176 0.0
H714 H 0.21192 0.59548 0.21193 0.0
H715 H 0.16788 0.53996 0.18745 0.0
H716 H 0.09012 0.51568 0.10975 0.0
H717 H 0.10634 0.51934 0.1596 0.0
H718 H 0.25843 0.74702 0.10215 0.0
H719 H 0.27499 0.74911 0.1517 0.0
H720 H 0.24436 0.69841 0.04276 0.0
H721 H 0.19437 0.64638 0.02198 0.0
C722 C 0.39108 0.89117 0.86395 0.0
C723 C 0.34675 0.85126 0.8738 0.0
C724 C 0.3664 0.86254 0.94712 0.0
C725 C 0.41286 0.89725 0.93504 0.0
N726 N 0.47154 0.94381 0.88218 0.0
N727 N 0.29042 0.7985 0.92355 0.0
C728 C 0.42562 0.91212 0.89377 0.0
C729 C 0.3336 0.83723 0.91534 0.0
N730 N 0.40058 0.90776 0.82547 0.0
N731 N 0.35403 0.85405 0.98881 0.0
H732 H 0.26482 0.78124 0.90156 0.0
H733 H 0.28039 0.78235 0.95124 0.0
H734 H 0.37786 0.87208 1.01242 0.0
H735 H 0.31974 0.83208 1.00085 0.0
H736 H 0.43103 0.93873 0.81717 0.0
H737 H 0.37646 0.89259 0.80237 0.0
H738 H 0.48457 0.95131 0.85101 0.0
H739 H 0.49806 0.9609 0.90317 0.0
C740 C 0.161 0.32753 0.82052 0.0
C741 C 0.17701 0.30006 0.83748 0.0
C742 C 0.1403 0.32047 0.90904 0.0
C743 C 0.13131 0.35412 0.89332 0.0
N744 N 0.13704 0.39315 0.8342 0.0
N745 N 0.18987 0.28008 0.90124 0.0
C746 C 0.14293 0.35872 0.84904 0.0
C747 C 0.16861 0.29886 0.88265 0.0
N748 N 0.16117 0.32207 0.77693 0.0
N749 N 0.12058 0.30779 0.94877 0.0
H750 H 0.21265 0.26597 0.88404 0.0
H751 H 0.18886 0.28346 0.93456 0.0
H752 H 0.0979 0.32097 0.96802 0.0
H753 H 0.12255 0.28014 0.96037 0.0
H754 H 0.14691 0.33803 0.76231 0.0
H755 H 0.17021 0.29632 0.75571 0.0
H756 H 0.14947 0.40203 0.8033 0.0
H757 H 0.12295 0.41567 0.85397 0.0
C758 C 0.65243 0.19472 0.88839 0.0
C759 C 0.65909 0.17417 0.84467 0.0
C760 C 0.61654 0.08997 0.86318 0.0
C761 C 0.61699 0.11108 0.9076 0.0
N762 N 0.63178 0.18235 0.96344 0.0
N763 N 0.63358 0.10354 0.78842 0.0
C764 C 0.633 0.16312 0.92044 0.0
C765 C 0.63643 0.12194 0.83151 0.0
N766 N 0.66406 0.2441 0.89901 0.0
N767 N 0.59891 0.03954 0.8516 0.0
H768 H 0.64637 0.12697 0.76534 0.0
H769 H 0.61546 0.06608 0.77565 0.0
H770 H 0.58268 0.01527 0.87404 0.0
H771 H 0.60141 0.02153 0.8202 0.0
H772 H 0.65905 0.26179 0.92994 0.0
H773 H 0.675 0.26714 0.87601 0.0
H774 H 0.64741 0.22011 0.97584 0.0
H775 H 0.61644 0.16009 0.98742 0.0
C776 C 0.94972 0.64804 0.89128 0.0
C777 C 0.97975 0.69975 0.89281 0.0
C778 C 0.0408 0.69105 0.92064 0.0
C779 C 1.00738 0.6417 0.9263 0.0
N780 N 0.94343 0.56782 0.89399 0.0
N781 N 0.05522 0.7707 0.90568 0.0
C782 C 0.96582 0.61839 0.90443 0.0
C783 C 1.02604 0.72121 0.90599 0.0
N784 N 0.90483 0.62762 0.87952 0.0
N785 N 0.08715 0.70752 0.92592 0.0
H786 H 0.04643 0.79303 0.893 0.0
H787 H 0.08706 0.79022 0.91972 0.0
H788 H 0.09974 0.68393 0.93067 0.0
H789 H 0.11408 0.74184 0.91952 0.0
H790 H 0.87947 0.59155 0.88304 0.0
H791 H 0.89164 0.64778 0.8692 0.0
H792 H 0.91477 0.54856 0.87545 0.0
H793 H 0.95778 0.54584 0.89895 0.0
C794 C 0.04903 0.31596 0.14064 0.0
C795 C 0.08887 0.3068 0.12671 0.0
C796 C 0.11157 0.35573 0.06878 0.0
C797 C 0.06994 0.36245 0.08061 0.0
N798 N 0.99728 0.34637 0.1258 0.0
N799 N 0.153 0.30977 0.07308 0.0
C800 C 0.03795 0.34151 0.1159 0.0
C801 C 0.11874 0.32459 0.08969 0.0
N802 N 1.02265 0.30125 0.1781 0.0
N803 N 0.14494 0.37919 0.03755 0.0
H804 H 0.16059 0.28791 0.08764 0.0
H805 H 0.17134 0.31541 0.04278 0.0
H806 H 0.13989 0.39665 0.01635 0.0
H807 H 0.17911 0.38289 0.03346 0.0
H808 H 0.99563 0.31032 0.19256 0.0
H809 H 0.02976 0.2821 0.19633 0.0
H810 H 0.97002 0.328 0.1481 0.0
H811 H 0.98973 0.36743 0.11015 0.0
C812 C 0.21723 0.63615 0.86414 0.0
C813 C 0.19505 0.65586 0.84544 0.0
C814 C 0.11793 0.5998 0.87828 0.0
C815 C 0.14141 0.58249 0.89871 0.0
N816 N 0.20669 0.56166 0.88403 0.0
N817 N 0.12383 0.65477 0.83153 0.0
C818 C 0.18918 0.59389 0.88397 0.0
C819 C 0.14512 0.63724 0.85162 0.0
N820 N 0.26523 0.65831 0.86412 0.0
N821 N 0.06978 0.57619 0.88001 0.0
H822 H 0.14171 0.6778 0.80833 0.0
H823 H 0.08868 0.64769 0.83814 0.0
H824 H 0.04947 0.54369 0.89296 0.0
H825 H 0.0498 0.58441 0.86424 0.0
H826 H 0.2822 0.64713 0.88086 0.0
H827 H 0.28753 0.69102 0.85177 0.0
H828 H 0.2408 0.56794 0.87116 0.0
H829 H 0.18507 0.52502 0.88884 0.0
C830 C 0.40056 0.07539 0.88147 0.0
C831 C 0.39018 0.11631 0.89467 0.0
C832 C 0.447 0.15282 0.9492 0.0
C833 C 0.45578 0.11066 0.9373 0.0
N834 N 0.45475 0.0425 0.88305 0.0
N835 N 0.41565 0.20149 0.92923 0.0
C836 C 0.43726 0.07566 0.90011 0.0
C837 C 0.41775 0.15768 0.92449 0.0
N838 N 0.37362 0.03499 0.85344 0.0
N839 N 0.4634 0.18626 0.98572 0.0
H840 H 0.39553 0.20656 0.91065 0.0
H841 H 0.43728 0.23402 0.9483 0.0
H842 H 0.48585 0.18541 1.00452 0.0
H843 H 0.45258 0.21361 0.9989 0.0
H844 H 0.37642 1.00195 0.84641 0.0
H845 H 0.34612 0.03317 0.83946 0.0
H846 H 0.44607 0.01917 0.85356 0.0
H847 H 0.48203 0.04274 0.89625 0.0
C848 C 0.82145 0.35736 0.91641 0.0
C849 C 0.83309 0.37124 0.87476 0.0
C850 C 0.91352 0.42845 0.89217 0.0
C851 C 0.90342 0.41159 0.93231 0.0
N852 N 0.84541 0.37265 0.98833 0.0
N853 N 0.88082 0.43964 0.83592 0.0
C854 C 0.85638 0.38012 0.94641 0.0
C855 C 0.87604 0.41338 0.86676 0.0
N856 N 0.77703 0.32215 0.92675 0.0
N857 N 0.95905 0.45592 0.87676 0.0
H858 H 0.85236 0.43257 0.82006 0.0
H859 H 0.91108 0.47235 0.8306 0.0
H860 H 0.9878 0.46619 0.89361 0.0
H861 H 0.96823 0.46469 0.84568 0.0
H862 H 0.76701 0.30553 0.95417 0.0
H863 H 0.75017 0.30968 0.90688 0.0
H864 H 0.81132 0.35227 1.00173 0.0
H865 H 0.87044 0.39097 1.01081 0.0
C866 C 0.70218 0.84165 0.89323 0.0
C867 C 0.72586 0.85572 0.85281 0.0
C868 C 0.69321 0.91497 0.86154 0.0
C869 C 0.67174 0.90278 0.90299 0.0
N870 N 0.66304 0.86166 0.96187 0.0
N871 N 0.74882 0.90941 0.80027 0.0
C872 C 0.67837 0.86817 0.91984 0.0
C873 C 0.72282 0.89356 0.83753 0.0
N874 N 0.70046 0.80131 0.90535 0.0
N875 N 0.68363 0.94535 0.8444 0.0
H876 H 0.76978 0.89367 0.78152 0.0
H877 H 0.75236 0.94024 0.78942 0.0
H878 H 0.66265 0.96199 0.86127 0.0
H879 H 0.69368 0.95153 0.81261 0.0
H880 H 0.67881 0.78524 0.93162 0.0
H881 H 0.71787 0.78126 0.88719 0.0
H882 H 0.6711 0.84105 0.9775 0.0
H883 H 0.64571 0.88049 0.98253 0.0
C884 C 0.92585 0.71792 0.18793 0.0
C885 C 0.88791 0.71919 0.17324 0.0
C886 C 0.90138 0.67192 0.10281 0.0
C887 C 0.93293 0.66258 0.12066 0.0
N888 N 0.97413 0.67598 0.1816 0.0
N889 N 0.84209 0.70142 0.11469 0.0
C890 C 0.94534 0.686 0.16343 0.0
C891 C 0.87663 0.69757 0.12995 0.0
N892 N 0.94479 0.74919 0.22445 0.0
N893 N 0.89714 0.65888 0.05937 0.0
H894 H 0.82618 0.72318 0.1321 0.0
H895 H 0.82762 0.68145 0.08571 0.0
H896 H 0.91588 0.642 0.03821 0.0
H897 H 0.87867 0.66888 0.04337 0.0
H898 H 0.97765 0.75695 0.23246 0.0
H899 H 0.93063 0.77203 0.24341 0.0
H900 H 0.98279 0.68999 0.21324 0.0
H901 H 0.98662 0.65044 0.1662 0.0
C902 C 0.39541 0.82852 0.13475 0.0
C903 C 0.39179 0.84838 0.17925 0.0
C904 C 0.44175 0.93297 0.16315 0.0
C905 C 0.44364 0.91321 0.11857 0.0
N906 N 0.43372 0.84298 0.06283 0.0
N907 N 0.42208 0.91698 0.23705 0.0
C908 C 0.42443 0.86113 0.10475 0.0
C909 C 0.41855 0.89994 0.19382 0.0
N910 N 0.36901 0.77895 0.12079 0.0
N911 N 0.46064 0.98332 0.17593 0.0
H912 H 0.40623 0.89318 0.25989 0.0
H913 H 0.44405 0.95347 0.24996 0.0
H914 H 0.47954 0.00837 0.15437 0.0
H915 H 0.4558 1.00023 0.20731 0.0
H916 H 0.36485 0.76323 0.08843 0.0
H917 H 0.34973 0.75345 0.14184 0.0
H918 H 0.4248 0.80563 0.05149 0.0
H919 H 0.45427 0.86609 0.04014 0.0
C920 C 0.66267 0.13413 0.1704 0.0
C921 C 0.7115 0.15978 0.15816 0.0
C922 C 0.6968 0.14708 0.08305 0.0
C923 C 0.64779 0.1254 0.096 0.0
N924 N 0.58313 0.08668 0.14855 0.0
N925 N 0.776 0.17666 0.10307 0.0
C926 C 0.63041 0.11507 0.13867 0.0
C927 C 0.72892 0.16159 0.11432 0.0
N928 N 0.64747 0.12984 0.21281 0.0
N929 N 0.71236 0.15538 0.04152 0.0
H930 H 0.7994 0.18639 0.12599 0.0
H931 H 0.79111 0.1758 0.07134 0.0
H932 H 0.68933 0.14428 0.01794 0.0
H933 H 0.74773 0.17539 0.03092 0.0
H934 H 0.61247 0.11784 0.22555 0.0
H935 H 0.67069 0.13919 0.23571 0.0
H936 H 0.5687 0.07368 0.17773 0.0
H937 H 0.55804 0.07278 0.12643 0.0
C938 C 0.72064 0.6273 0.87096 0.0
C939 C 0.7 0.64514 0.8478 0.0
C940 C 0.62152 0.5839 0.87421 0.0
C941 C 0.64199 0.57148 0.90231 0.0
N942 N 0.71289 0.59311 0.93435 0.0
N943 N 0.62904 0.64801 0.83813 0.0
C944 C 0.69211 0.59634 0.90255 0.0
C945 C 0.6499 0.62544 0.85229 0.0
N946 N 0.76721 0.63826 0.86204 0.0
N947 N 0.57508 0.55534 0.86733 0.0
H948 H 0.64809 0.68122 0.82584 0.0
H949 H 0.59292 0.63709 0.84349 0.0
H950 H 0.55357 0.52421 0.88192 0.0
H951 H 0.55962 0.55957 0.84377 0.0
H952 H 0.78269 0.62222 0.87508 0.0
H953 H 0.78897 0.65868 0.83804 0.0
H954 H 0.74881 0.61451 0.93824 0.0
H955 H 0.69387 0.57382 0.95979 0.0
C956 C 0.45868 0.604 0.85782 0.0
C957 C 0.47958 0.65438 0.85207 0.0
C958 C 0.53508 0.67786 0.90575 0.0
C959 C 0.51431 0.62726 0.91129 0.0
N960 N 0.46466 0.54091 0.88535 0.0
N961 N 0.54411 0.73705 0.8623 0.0
C962 C 0.47879 0.58995 0.88484 0.0
C963 C 0.52005 0.69058 0.8733 0.0
N964 N 0.41834 0.5699 0.83891 0.0
N965 N 0.56683 0.71414 0.93316 0.0
H966 H 0.53348 0.74762 0.83918 0.0
H967 H 0.57662 0.76359 0.87321 0.0
H968 H 0.57891 0.70669 0.95728 0.0
H969 H 0.57889 0.752 0.93403 0.0
H970 H 0.39809 0.53408 0.84611 0.0
H971 H 0.4031 0.57835 0.81802 0.0
H972 H 0.44248 0.51182 0.86381 0.0
H973 H 0.47882 0.52941 0.90471 0.0
C974 C 0.41309 0.38763 0.85459 0.0
C975 C 0.36424 0.37155 0.85396 0.0
C976 C 0.35952 0.41175 0.92944 0.0
C977 C 0.40749 0.42503 0.93108 0.0
N978 N 0.48312 0.43633 0.89336 0.0
N979 N 0.2952 0.38193 0.88489 0.0
C980 C 0.43542 0.41713 0.89272 0.0
C981 C 0.33884 0.38815 0.88962 0.0
N982 N 0.43736 0.37197 0.81988 0.0
N983 N 0.33338 0.41986 0.96638 0.0
H984 H 0.28044 0.36677 0.85546 0.0
H985 H 0.27593 0.3962 0.90837 0.0
H986 H 0.34844 0.43925 0.99535 0.0
H987 H 0.29683 0.40573 0.96881 0.0
H988 H 0.47198 0.37826 0.81927 0.0
H989 H 0.42232 0.35026 0.79153 0.0
H990 H 0.50624 0.43533 0.86622 0.0
H991 H 0.50067 0.45684 0.92075 0.0
C992 C 0.5038 0.27403 0.82811 0.0
C993 C 0.53732 0.25582 0.81895 0.0
C994 C 0.54677 0.27095 0.89577 0.0
C995 C 0.52417 0.30139 0.90267 0.0
N996 N 0.46883 0.32005 0.87684 0.0
N997 N 0.57642 0.21956 0.84668 0.0
C998 C 0.49765 0.29802 0.87008 0.0
C999 C 0.55294 0.24731 0.85348 0.0
N1000 N 0.48324 0.27499 0.79512 0.0
N1001 N 0.56258 0.26469 0.92943 0.0
H1002 H 0.58172 0.20005 0.81666 0.0
H1003 H 0.58172 0.20005 0.81666 0.0
H1004 H 0.55796 0.28122 0.96115 0.0
H1005 H 0.57775 0.24084 0.9256 0.0
H1006 H 0.4598 0.29019 0.79982 0.0
H1007 H 0.48974 0.25974 0.76337 0.0
H1008 H 0.46228 0.33979 0.90619 0.0
H1009 H 0.46228 0.33979 0.90619 0.0
C1010 C 0.54467 0.315 0.14526 0.0
C1011 C 0.57638 0.35373 0.17422 0.0
C1012 C 0.56679 0.41583 0.14687 0.0
C1013 C 0.53688 0.37739 0.1165 0.0
N1014 N 0.48832 0.29012 0.09303 0.0
N1015 N 0.60937 0.43892 0.20989 0.0
C1016 C 0.52256 0.32678 0.11803 0.0
C1017 C 0.58471 0.40356 0.17737 0.0
N1018 N 0.5376 0.26733 0.14233 0.0
N1019 N 0.579 0.46425 0.14554 0.0
H1020 H 0.62327 0.43115 0.23246 0.0
H1021 H 0.61323 0.47502 0.21668 0.0
H1022 H 0.56349 0.47408 0.12598 0.0
H1023 H 0.60531 0.49473 0.16256 0.0
H1024 H 0.51941 0.23815 0.11864 0.0
H1025 H 0.55225 0.25721 0.16243 0.0
H1026 H 0.47287 0.2526 0.09546 0.0
H1027 H 0.47237 0.29754 0.07205 0.0
C1028 C 0.64652 0.63033 0.16897 0.0
C1029 C 0.69378 0.64095 0.17099 0.0
C1030 C 0.69538 0.59383 0.09798 0.0
C1031 C 0.64909 0.58552 0.09488 0.0
N1032 N 0.57513 0.58051 0.13244 0.0
N1033 N 0.75574 0.61709 0.14531 0.0
C1034 C 0.62277 0.59856 0.13216 0.0
C1035 C 0.71587 0.6176 0.13789 0.0
N1036 N 0.62514 0.65253 0.20104 0.0
N1037 N 0.72021 0.58042 0.06254 0.0
H1038 H 0.77036 0.63301 0.17484 0.0
H1039 H 0.77142 0.59702 0.12405 0.0
H1040 H 0.70517 0.56094 0.03358 0.0
H1041 H 0.75601 0.59056 0.06136 0.0
H1042 H 0.59255 0.65068 0.19931 0.0
H1043 H 0.64114 0.6752 0.22877 0.0
H1044 H 0.55347 0.58512 0.15975 0.0
H1045 H 0.55629 0.55615 0.10675 0.0
C1046 C 0.49017 0.76193 0.15744 0.0
C1047 C 0.52183 0.77774 0.18919 0.0
C1048 C 0.56274 0.73309 0.14515 0.0
C1049 C 0.52691 0.71098 0.11596 0.0
N1050 N 0.46905 0.71928 0.08519 0.0
N1051 N 0.60037 0.80191 0.20194 0.0
C1052 C 0.49458 0.73031 0.11902 0.0
C1053 C 0.56311 0.77233 0.1781 0.0
N1054 N 0.45323 0.77301 0.16602 0.0
N1055 N 0.59342 0.71422 0.14424 0.0
H1056 H 0.59906 0.83026 0.2263 0.0
H1057 H 0.63285 0.80133 0.19475 0.0
H1058 H 0.59171 0.68206 0.12393 0.0
H1059 H 0.61784 0.72772 0.1669 0.0
H1060 H 0.42393 0.75417 0.14836 0.0
H1061 H 0.45169 0.80002 0.19166 0.0
H1062 H 0.44805 0.73603 0.08434 0.0
H1063 H 0.47267 0.69713 0.05616 0.0
C1064 C 0.37229 0.35535 0.14567 0.0
C1065 C 0.36486 0.37289 0.19005 0.0
C1066 C 0.41473 0.45894 0.17524 0.0
C1067 C 0.41639 0.44067 0.13018 0.0
N1068 N 0.38056 0.3719 0.07405 0.0
N1069 N 0.37414 0.44282 0.24645 0.0
C1070 C 0.39082 0.38892 0.11585 0.0
C1071 C 0.38498 0.42523 0.20485 0.0
N1072 N 0.36265 0.30672 0.13173 0.0
N1073 N 0.44192 0.50812 0.1898 0.0
H1074 H 0.35209 0.41947 0.26857 0.0
H1075 H 0.38379 0.48031 0.25796 0.0
H1076 H 0.46306 0.53348 0.16895 0.0
H1077 H 0.44601 0.52289 0.22235 0.0
H1078 H 0.3714 0.29354 0.1 0.0
H1079 H 0.35137 0.28125 0.15275 0.0
H1080 H 0.35958 0.33459 0.06224 0.0
H1081 H 0.38629 0.3965 0.05394 0.0
C1082 C 0.84588 0.66283 0.64674 0.0
C1083 C 0.84309 0.66877 0.69261 0.0
C1084 C 0.88811 0.62116 0.68541 0.0
C1085 C 0.89348 0.61833 0.64001 0.0
N1086 N 0.87935 0.63689 0.57666 0.0
N1087 N 0.86167 0.65394 0.75596 0.0
C1088 C 0.87233 0.63877 0.62048 0.0
C1089 C 0.86427 0.64793 0.71198 0.0
N1090 N 0.82384 0.68087 0.62815 0.0
N1091 N 0.90477 0.59685 0.70292 0.0
H1092 H 0.84086 0.6687 0.77639 0.0
H1093 H 0.88108 0.64586 0.77264 0.0
H1094 H 0.92246 0.5773 0.68428 0.0
H1095 H 0.89868 0.59297 0.73525 0.0
H1096 H 0.81901 0.67255 0.59549 0.0
H1097 H 0.80844 0.70316 0.64542 0.0
H1098 H 0.87027 0.65584 0.56012 0.0
H1099 H 0.89648 0.61771 0.55629 0.0
C1100 C 0.39178 0.83973 0.64153 0.0
C1101 C 0.37198 0.85891 0.68017 0.0
C1102 C 0.41362 0.94158 0.65963 0.0
C1103 C 0.42684 0.92059 0.61824 0.0
N1104 N 0.42239 0.8481 0.56726 0.0
N1105 N 0.36122 0.92735 0.72541 0.0
C1106 C 0.41478 0.86932 0.60854 0.0
C1107 C 0.38205 0.90968 0.68908 0.0
N1108 N 0.38868 0.79334 0.63616 0.0
N1109 N 0.4325 0.99211 0.6712 0.0
H1110 H 0.33937 0.90561 0.74868 0.0
H1111 H 0.36308 0.96263 0.7311 0.0
H1112 H 0.45692 0.01661 0.65081 0.0
H1113 H 0.42777 0.00977 0.70231 0.0
H1114 H 0.40696 0.77994 0.61066 0.0
H1115 H 0.37129 0.76983 0.65901 0.0
H1116 H 0.40926 0.80984 0.5574 0.0
H1117 H 0.43816 0.86823 0.54182 0.0
C1118 C 0.13687 0.34211 0.58203 0.0
C1119 C 0.15475 0.37139 0.62164 0.0
C1120 C 0.10692 0.41433 0.62559 0.0
C1121 C 0.09735 0.39266 0.58229 0.0
N1122 N 0.10331 0.33572 0.5182 0.0
N1123 N 0.15501 0.43304 0.68338 0.0
C1124 C 0.11126 0.35551 0.56053 0.0
C1125 C 0.13869 0.40641 0.64445 0.0
N1126 N 0.1448 0.30182 0.56471 0.0
N1127 N 0.08506 0.44189 0.64846 0.0
H1128 H 0.17659 0.42641 0.69881 0.0
H1129 H 0.14888 0.46295 0.6995 0.0
H1130 H 0.06094 0.44688 0.63504 0.0
H1131 H 0.08726 0.45566 0.68131 0.0
H1132 H 0.12802 0.27575 0.53862 0.0
H1133 H 0.1649 0.29181 0.57866 0.0
H1134 H 0.11874 0.3143 0.49896 0.0
H1135 H 0.08352 0.34292 0.50116 0.0
C1136 C 0.73733 0.1745 0.62011 0.0
C1137 C 0.72858 0.15498 0.65859 0.0
C1138 C 0.65747 0.08247 0.63209 0.0
C1139 C 0.66412 0.10408 0.59507 0.0
N1140 N 0.71716 0.16061 0.54704 0.0
N1141 N 0.6912 0.08419 0.69471 0.0
C1142 C 0.70672 0.14666 0.58673 0.0
C1143 C 0.69247 0.10647 0.66203 0.0
N1144 N 0.77311 0.22097 0.61676 0.0
N1145 N 0.61618 0.04179 0.64079 0.0
H1146 H 0.71657 0.10185 0.71696 0.0
H1147 H 0.66814 0.04717 0.69728 0.0
H1148 H 0.58962 0.02255 0.61993 0.0
H1149 H 0.60698 0.0286 0.66999 0.0
H1150 H 0.77818 0.2401 0.59198 0.0
H1151 H 0.7968 0.24113 0.6402 0.0
H1152 H 0.74919 0.18927 0.53752 0.0
H1153 H 0.69514 0.14 0.5222 0.0
C1154 C 0.88134 0.39588 0.37165 0.0
C1155 C 0.84196 0.34975 0.37653 0.0
C1156 C 0.86311 0.35602 0.44799 0.0
C1157 C 0.9071 0.39659 0.43884 0.0
N1158 N 0.96098 0.45226 0.38942 0.0
N1159 N 0.79461 0.28413 0.41852 0.0
C1160 C 0.91683 0.4165 0.40033 0.0
C1161 C 0.83194 0.32968 0.41493 0.0
N1162 N 0.88491 0.41927 0.33893 0.0
N1163 N 0.85169 0.34258 0.48795 0.0
H1164 H 0.77123 0.26436 0.39482 0.0
H1165 H 0.78841 0.26487 0.44354 0.0
H1166 H 0.8742 0.36186 0.51255 0.0
H1167 H 0.81861 0.31564 0.49782 0.0
H1168 H 0.91247 0.45381 0.33399 0.0
H1169 H 0.85765 0.40571 0.3191 0.0
H1170 H 0.97162 0.46251 0.35891 0.0
H1171 H 0.98844 0.469 0.40936 0.0
C1172 C 0.65428 0.81518 0.32455 0.0
C1173 C 0.68899 0.80875 0.34005 0.0
C1174 C 0.67088 0.84931 0.41254 0.0
C1175 C 0.64258 0.86311 0.39489 0.0
N1176 N 0.61246 0.86402 0.33189 0.0
N1177 N 0.73311 0.82452 0.40012 0.0
C1178 C 0.63555 0.84715 0.35032 0.0
C1179 C 0.69778 0.82673 0.38452 0.0
N1180 N 0.63684 0.78833 0.28613 0.0
N1181 N 0.6708 0.85595 0.45634 0.0
H1182 H 0.75514 0.81028 0.38148 0.0
H1183 H 0.74427 0.84193 0.43075 0.0
H1184 H 0.65181 0.87213 0.47804 0.0
H1185 H 0.68569 0.84096 0.47135 0.0
H1186 H 0.60652 0.78575 0.27682 0.0
H1187 H 0.64844 0.76348 0.26678 0.0
H1188 H 0.61061 0.85764 0.29873 0.0
H1189 H 0.59931 0.88846 0.3491 0.0
C1190 C 0.1633 0.69268 0.39657 0.0
C1191 C 0.16816 0.67184 0.35252 0.0
C1192 C 0.12077 0.58767 0.37021 0.0
C1193 C 0.1188 0.60843 0.41457 0.0
N1194 N 0.12686 0.67901 0.46928 0.0
N1195 N 0.141 0.60163 0.29565 0.0
C1196 C 0.13621 0.66052 0.42747 0.0
C1197 C 0.14336 0.61984 0.33882 0.0
N1198 N 0.18592 0.74307 0.40901 0.0
N1199 N 0.10224 0.5372 0.3584 0.0
H1200 H 0.1564 0.62482 0.2723 0.0
H1201 H 0.12057 0.56457 0.283 0.0
H1202 H 0.08311 0.51266 0.38036 0.0
H1203 H 0.10711 0.51954 0.32737 0.0
H1204 H 0.18906 0.7606 0.441 0.0
H1205 H 0.20317 0.76777 0.38704 0.0
H1206 H 0.13449 0.71607 0.48029 0.0
H1207 H 0.10794 0.65629 0.49261 0.0
C1208 C 0.43951 0.1854 0.44239 0.0
C1209 C 0.46997 0.20555 0.40638 0.0
C1210 C 0.5218 0.17111 0.41517 0.0
C1211 C 0.4915 0.15129 0.45153 0.0
N1212 N 0.41677 0.13239 0.49542 0.0
N1213 N 0.54181 0.22239 0.36003 0.0
C1214 C 0.44904 0.15636 0.46382 0.0
C1215 C 0.51161 0.19962 0.39309 0.0
N1216 N 0.40265 0.19649 0.45779 0.0
N1217 N 0.55844 0.15981 0.40025 0.0
H1218 H 0.53436 0.24199 0.34258 0.0
H1219 H 0.57516 0.22428 0.35115 0.0
H1220 H 0.56554 0.13773 0.41501 0.0
H1221 H 0.57959 0.16877 0.37168 0.0
H1222 H 0.38362 0.18983 0.48767 0.0
H1223 H 0.39291 0.21601 0.44242 0.0
H1224 H 0.38199 0.12685 0.49998 0.0
H1225 H 0.42344 0.11612 0.51659 0.0
C1226 C 0.57634 0.78752 0.5827 0.0
C1227 C 0.59134 0.80956 0.62461 0.0
C1228 C 0.57182 0.87673 0.62357 0.0
C1229 C 0.56416 0.8589 0.57929 0.0
N1230 N 0.56551 0.80024 0.51473 0.0
N1231 N 0.60512 0.87587 0.68527 0.0
C1232 C 0.56737 0.81463 0.55842 0.0
C1233 C 0.58915 0.85421 0.64538 0.0
N1234 N 0.5708 0.74054 0.56596 0.0
N1235 N 0.56169 0.9146 0.64476 0.0
H1236 H 0.61662 0.85952 0.70253 0.0
H1237 H 0.6095 0.91117 0.7002 0.0
H1238 H 0.54802 0.93075 0.62956 0.0
H1239 H 0.56265 0.92685 0.6779 0.0
H1240 H 0.55497 0.72034 0.53757 0.0
H1241 H 0.57787 0.71985 0.58249 0.0
H1242 H 0.57382 0.77219 0.49729 0.0
H1243 H 0.56008 0.81896 0.49487 0.0
C1244 C 0.68723 0.11036 0.3408 0.0
C1245 C 0.69568 0.16071 0.35024 0.0
C1246 C 0.65584 0.14916 0.42289 0.0
C1247 C 0.64576 0.09835 0.41296 0.0
N1248 N 0.6417 0.02768 0.35955 0.0
N1249 N 0.67769 0.22457 0.39583 0.0
C1250 C 0.65859 0.07807 0.37102 0.0
C1251 C 0.6765 0.17896 0.38981 0.0
N1252 N 0.70655 0.09339 0.30293 0.0
N1253 N 0.64786 0.16967 0.46437 0.0
H1254 H 0.69345 0.24822 0.37294 0.0
H1255 H 0.65959 0.23726 0.42205 0.0
H1256 H 0.63296 0.14928 0.48966 0.0
H1257 H 0.65959 0.20773 0.47445 0.0
H1258 H 0.70667 0.059 0.29652 0.0
H1259 H 0.72475 0.11478 0.27855 0.0
H1260 H 0.64583 0.01016 0.32823 0.0
H1261 H 0.61952 1.00271 0.38042 0.0
C1262 C 0.92281 0.66581 0.4402 0.0
C1263 C 0.90091 0.62869 0.40498 0.0
C1264 C 0.9485 0.58835 0.40973 0.0
C1265 C 0.96121 0.61788 0.45039 0.0
N1266 N 0.96273 0.68746 0.50434 0.0
N1267 N 0.89104 0.55224 0.35735 0.0
C1268 C 0.94993 0.65817 0.46529 0.0
C1269 C 0.91395 0.5898 0.38938 0.0
N1270 N 0.91775 0.70838 0.44946 0.0
N1271 N 0.96977 0.55903 0.39072 0.0
H1272 H 0.86366 0.55014 0.34301 0.0
H1273 H 0.89631 0.52075 0.34771 0.0
H1274 H 0.99569 0.55829 0.40525 0.0
H1275 H 0.96586 0.54071 0.35894 0.0
H1276 H 0.93517 0.73828 0.47294 0.0
H1277 H 0.89951 0.71592 0.43084 0.0
H1278 H 0.95007 0.71286 0.51944 0.0
H1279 H 0.98401 0.68475 0.52321 0.0
C1280 C 0.33535 0.84386 0.4073 0.0
C1281 C 0.34158 0.86726 0.37181 0.0
C1282 C 0.4115 0.93978 0.40046 0.0
C1283 C 0.40666 0.91497 0.43473 0.0
N1284 N 0.35601 0.8531 0.47909 0.0
N1285 N 0.37555 0.94188 0.34109 0.0
C1286 C 0.36548 0.87035 0.44105 0.0
C1287 C 0.37611 0.91707 0.37093 0.0
N1288 N 0.30302 0.79516 0.40719 0.0
N1289 N 0.45141 0.98267 0.3939 0.0
H1290 H 0.34996 0.92533 0.3191 0.0
H1291 H 0.39733 0.97964 0.34072 0.0
H1292 H 0.47802 1.00106 0.41474 0.0
H1293 H 0.45946 0.99887 0.36646 0.0
H1294 H 0.30053 0.77439 0.42972 0.0
H1295 H 0.28065 0.77451 0.38272 0.0
H1296 H 0.3247 0.82267 0.48716 0.0
H1297 H 0.37766 0.87271 0.50432 0.0
C1298 C 0.23816 0.38838 0.37796 0.0
C1299 C 0.21613 0.34568 0.34665 0.0
C1300 C 0.1451 0.35822 0.36155 0.0
C1301 C 0.16387 0.39492 0.39799 0.0
N1302 N 0.22545 0.43377 0.44713 0.0
N1303 N 0.14164 0.28135 0.32038 0.0
C1304 C 0.20973 0.40716 0.40803 0.0
C1305 C 0.16757 0.32809 0.34164 0.0
N1306 N 0.28609 0.41223 0.37849 0.0
N1307 N 0.10648 0.3525 0.34511 0.0
H1308 H 0.15453 0.25528 0.31038 0.0
H1309 H 0.10547 0.26635 0.3183 0.0
H1310 H 0.0909 0.37612 0.35667 0.0
H1311 H 0.09388 0.3283 0.31667 0.0
H1312 H 0.30356 0.44579 0.39877 0.0
H1313 H 0.30853 0.40198 0.35538 0.0
H1314 H 0.25707 0.43967 0.45665 0.0
H1315 H 0.20467 0.44432 0.47206 0.0
C1316 C 0.38913 0.20462 0.64503 0.0
C1317 C 0.37999 0.20458 0.6906 0.0
C1318 C 0.41796 0.14957 0.6813 0.0
C1319 C 0.43036 0.15375 0.63702 0.0
N1320 N 0.44244 0.20084 0.5818 0.0
N1321 N 0.39997 0.18799 0.75238 0.0
C1322 C 0.42064 0.18624 0.62052 0.0
C1323 C 0.39838 0.18003 0.70883 0.0
N1324 N 0.36563 0.21856 0.6239 0.0
N1325 N 0.42481 0.11655 0.69728 0.0
H1326 H 0.39001 0.21305 0.77365 0.0
H1327 H 0.41752 0.17526 0.76665 0.0
H1328 H 0.44036 0.09498 0.67835 0.0
H1329 H 0.41178 0.10796 0.72823 0.0
H1330 H 0.36868 0.2147 0.59035 0.0
H1331 H 0.33831 0.22707 0.63838 0.0
H1332 H 0.43959 0.22787 0.57002 0.0
H1333 H 0.46758 0.19026 0.56407 0.0
C1334 C 0.90443 0.32383 0.64187 0.0
C1335 C 0.90063 0.34569 0.68548 0.0
C1336 C 0.94911 0.42873 0.66567 0.0
C1337 C 0.94398 0.4069 0.62158 0.0
N1338 N 0.92236 0.33427 0.56648 0.0
N1339 N 0.92552 0.41739 0.74085 0.0
C1340 C 0.9241 0.35449 0.60925 0.0
C1341 C 0.92583 0.3978 0.69803 0.0
N1342 N 0.88941 0.27369 0.63223 0.0
N1343 N 0.97604 0.47892 0.67624 0.0
H1344 H 0.91144 0.39486 0.76466 0.0
H1345 H 0.93878 0.4552 0.75282 0.0
H1346 H 0.9932 0.50213 0.65301 0.0
H1347 H 0.98416 0.49735 0.7074 0.0
H1348 H 0.89339 0.25486 0.60153 0.0
H1349 H 0.87623 0.25148 0.65632 0.0
H1350 H 0.90392 0.29644 0.55504 0.0
H1351 H 0.93843 0.35593 0.54207 0.0
C1352 C 0.22946 0.68931 0.61386 0.0
C1353 C 0.22486 0.66811 0.65024 0.0
C1354 C 0.15184 0.59658 0.62835 0.0
C1355 C 0.1548 0.61881 0.59298 0.0
N1356 N 0.20153 0.67759 0.54473 0.0
N1357 N 0.19269 0.59586 0.68414 0.0
C1358 C 0.19562 0.66232 0.58315 0.0
C1359 C 0.18991 0.61943 0.65438 0.0
N1360 N 0.26443 0.73614 0.61015 0.0
N1361 N 0.11118 0.55658 0.63967 0.0
H1362 H 0.22059 0.61254 0.70368 0.0
H1363 H 0.17037 0.55853 0.6862 0.0
H1364 H 0.08175 0.5383 0.62209 0.0
H1365 H 0.10516 0.54393 0.66875 0.0
H1366 H 0.26657 0.75615 0.58714 0.0
H1367 H 0.29058 0.75573 0.63149 0.0
H1368 H 0.23211 0.70707 0.53412 0.0
H1369 H 0.17719 0.65758 0.52168 0.0
loop_
_geom_bond_atom_site_label_1
_geom_bond_atom_site_label_2
_geom_bond_distance
_geom_bond_site_symmetry_2
_ccdc_geom_bond_type
Eu0 C9 2.828 . S
Eu0 O11 2.392 . S
Eu0 O13 2.418 . S
Eu0 O18 2.373 . S
Eu0 O21 2.488 . S
Eu0 O22 2.471 . S
Eu0 O23 2.349 . S
Eu1 O10 2.373 . S
Eu1 O14 2.488 . S
Eu1 O15 2.471 . S
Eu1 O16 2.349 . S
Eu1 O19 2.392 . S
Eu1 O20 2.418 . S
Eu1 C30 2.828 . S
C2 O20 1.244 . S
C2 O23 1.265 . S
C3 C4 1.379 . S
C3 C7 1.373 . S
C3 C9 1.505 . S
C4 C3 1.379 . S
C4 C6 1.369 . S
C4 H32 0.930 . S
C5 C7 1.383 . S
C5 C8 1.382 . S
C5 H33 0.930 . S
C6 C4 1.369 . S
C6 C8 1.392 . S
C6 H34 0.930 . S
C7 C3 1.373 . S
C7 C5 1.383 . S
C7 H35 0.931 . S
C8 C5 1.382 . S
C8 C6 1.392 . S
C9 Eu0 2.828 . S
C9 C3 1.505 . S
C9 O21 1.249 . S
C9 O22 1.244 . S
O10 Eu1 2.373 . S
O10 C12 1.258 . S
O11 Eu0 2.392 . S
O11 C12 1.242 . S
C12 O10 1.258 . S
C12 O11 1.242 . S
O13 Eu0 2.418 . S
O13 C17 1.244 . S
O14 Eu1 2.488 . S
O14 C30 1.249 . S
O15 Eu1 2.471 . S
O15 C30 1.244 . S
O16 Eu1 2.349 . S
O16 C17 1.265 . S
C17 O13 1.244 . S
C17 O16 1.265 . S
O18 Eu0 2.373 . S
O18 C31 1.258 . S
O19 Eu1 2.392 . S
O19 C31 1.242 . S
O20 Eu1 2.418 . S
O20 C2 1.244 . S
O21 Eu0 2.488 . S
O21 C9 1.249 . S
O22 Eu0 2.471 . S
O22 C9 1.244 . S
O23 Eu0 2.349 . S
O23 C2 1.265 . S
C24 C25 1.379 . S
C24 C28 1.373 . S
C24 C30 1.505 . S
C25 C24 1.379 . S
C25 C27 1.369 . S
C25 H36 0.930 . S
C26 C28 1.383 . S
C26 C29 1.382 . S
C26 H37 0.930 . S
C27 C25 1.369 . S
C27 C29 1.392 . S
C27 H38 0.930 . S
C28 C24 1.373 . S
C28 C26 1.383 . S
C28 H39 0.931 . S
C29 C26 1.382 . S
C29 C27 1.392 . S
C30 Eu1 2.828 . S
C30 O14 1.249 . S
C30 O15 1.244 . S
C30 C24 1.505 . S
C31 O18 1.258 . S
C31 O19 1.242 . S
H32 C4 0.930 . S
H33 C5 0.930 . S
H34 C6 0.930 . S
H35 C7 0.931 . S
H36 C25 0.930 . S
H37 C26 0.930 . S
H38 C27 0.930 . S
H39 C28 0.931 . S
Eu40 C49 2.828 . S
Eu40 O51 2.392 . S
Eu40 O53 2.418 . S
Eu40 O58 2.373 . S
Eu40 O61 2.488 . S
Eu40 O62 2.471 . S
Eu40 O63 2.349 . S
Eu41 O50 2.373 . S
Eu41 O54 2.488 . S
Eu41 O55 2.471 . S
Eu41 O56 2.349 . S
Eu41 O59 2.392 . S
Eu41 O60 2.418 . S
Eu41 C70 2.828 . S
C42 O60 1.244 . S
C42 O63 1.265 . S
C43 C44 1.379 . S
C43 C47 1.373 . S
C43 C49 1.505 . S
C44 C43 1.379 . S
C44 C46 1.369 . S
C44 H72 0.930 . S
C45 C47 1.383 . S
C45 C48 1.382 . S
C45 H73 0.930 . S
C46 C44 1.369 . S
C46 C48 1.392 . S
C46 H74 0.930 . S
C47 C43 1.373 . S
C47 C45 1.383 . S
C47 H75 0.931 . S
C48 C45 1.382 . S
C48 C46 1.392 . S
C49 Eu40 2.828 . S
C49 C43 1.505 . S
C49 O61 1.249 . S
C49 O62 1.244 . S
O50 Eu41 2.373 . S
O50 C52 1.258 . S
O51 Eu40 2.392 . S
O51 C52 1.242 . S
C52 O50 1.258 . S
C52 O51 1.242 . S
O53 Eu40 2.418 . S
O53 C57 1.244 . S
O54 Eu41 2.488 . S
O54 C70 1.249 . S
O55 Eu41 2.471 . S
O55 C70 1.244 . S
O56 Eu41 2.349 . S
O56 C57 1.265 . S
C57 O53 1.244 . S
C57 O56 1.265 . S
O58 Eu40 2.373 . S
O58 C71 1.258 . S
O59 Eu41 2.392 . S
O59 C71 1.242 . S
O60 Eu41 2.418 . S
O60 C42 1.244 . S
O61 Eu40 2.488 . S
O61 C49 1.249 . S
O62 Eu40 2.471 . S
O62 C49 1.244 . S
O63 Eu40 2.349 . S
O63 C42 1.265 . S
C64 C65 1.379 . S
C64 C68 1.373 . S
C64 C70 1.505 . S
C65 C64 1.379 . S
C65 C67 1.369 . S
C65 H76 0.930 . S
C66 C68 1.383 . S
C66 C69 1.382 . S
C66 H77 0.930 . S
C67 C65 1.369 . S
C67 C69 1.392 . S
C67 H78 0.930 . S
C68 C64 1.373 . S
C68 C66 1.383 . S
C68 H79 0.931 . S
C69 C66 1.382 . S
C69 C67 1.392 . S
C70 Eu41 2.828 . S
C70 O54 1.249 . S
C70 O55 1.244 . S
C70 C64 1.505 . S
C71 O58 1.258 . S
C71 O59 1.242 . S
H72 C44 0.930 . S
H73 C45 0.930 . S
H74 C46 0.930 . S
H75 C47 0.931 . S
H76 C65 0.930 . S
H77 C66 0.930 . S
H78 C67 0.930 . S
H79 C68 0.931 . S
Eu80 C89 2.828 . S
Eu80 O91 2.392 . S
Eu80 O93 2.418 . S
Eu80 O98 2.373 . S
Eu80 O101 2.488 . S
Eu80 O102 2.471 . S
Eu80 O103 2.349 . S
Eu81 O90 2.373 . S
Eu81 O94 2.488 . S
Eu81 O95 2.471 . S
Eu81 O96 2.349 . S
Eu81 O99 2.392 . S
Eu81 O100 2.418 . S
Eu81 C110 2.828 . S
C82 O100 1.244 . S
C82 O103 1.265 . S
C83 C84 1.379 . S
C83 C87 1.373 . S
C83 C89 1.505 . S
C84 C83 1.379 . S
C84 C86 1.369 . S
C84 H112 0.930 . S
C85 C87 1.383 . S
C85 C88 1.382 . S
C85 H113 0.930 . S
C86 C84 1.369 . S
C86 C88 1.392 . S
C86 H114 0.930 . S
C87 C83 1.373 . S
C87 C85 1.383 . S
C87 H115 0.931 . S
C88 C85 1.382 . S
C88 C86 1.392 . S
C89 Eu80 2.828 . S
C89 C83 1.505 . S
C89 O101 1.249 . S
C89 O102 1.244 . S
O90 Eu81 2.373 . S
O90 C92 1.258 . S
O91 Eu80 2.392 . S
O91 C92 1.242 . S
C92 O90 1.258 . S
C92 O91 1.242 . S
O93 Eu80 2.418 . S
O93 C97 1.244 . S
O94 Eu81 2.488 . S
O94 C110 1.249 . S
O95 Eu81 2.471 . S
O95 C110 1.244 . S
O96 Eu81 2.349 . S
O96 C97 1.265 . S
C97 O93 1.244 . S
C97 O96 1.265 . S
O98 Eu80 2.373 . S
O98 C111 1.258 . S
O99 Eu81 2.392 . S
O99 C111 1.242 . S
O100 Eu81 2.418 . S
O100 C82 1.244 . S
O101 Eu80 2.488 . S
O101 C89 1.249 . S
O102 Eu80 2.471 . S
O102 C89 1.244 . S
O103 Eu80 2.349 . S
O103 C82 1.265 . S
C104 C105 1.379 . S
C104 C108 1.373 . S
C104 C110 1.505 . S
C105 C104 1.379 . S
C105 C107 1.369 . S
C105 H116 0.930 . S
C106 C108 1.383 . S
C106 C109 1.382 . S
C106 H117 0.930 . S
C107 C105 1.369 . S
C107 C109 1.392 . S
C107 H118 0.930 . S
C108 C104 1.373 . S
C108 C106 1.383 . S
C108 H119 0.931 . S
C109 C106 1.382 . S
C109 C107 1.392 . S
C110 Eu81 2.828 . S
C110 O94 1.249 . S
C110 O95 1.244 . S
C110 C104 1.505 . S
C111 O98 1.258 . S
C111 O99 1.242 . S
H112 C84 0.930 . S
H113 C85 0.930 . S
H114 C86 0.930 . S
H115 C87 0.931 . S
H116 C105 0.930 . S
H117 C106 0.930 . S
H118 C107 0.930 . S
H119 C108 0.931 . S
Eu120 C129 2.828 . S
Eu120 O131 2.392 . S
Eu120 O133 2.418 . S
Eu120 O138 2.373 . S
Eu120 O141 2.488 . S
Eu120 O142 2.471 . S
Eu120 O143 2.349 . S
Eu121 O130 2.373 . S
Eu121 O134 2.488 . S
Eu121 O135 2.471 . S
Eu121 O136 2.349 . S
Eu121 O139 2.392 . S
Eu121 O140 2.418 . S
Eu121 C150 2.828 . S
C122 O140 1.244 . S
C122 O143 1.265 . S
C123 C124 1.379 . S
C123 C127 1.373 . S
C123 C129 1.505 . S
C124 C123 1.379 . S
C124 C126 1.369 . S
C124 H152 0.930 . S
C125 C127 1.383 . S
C125 C128 1.382 . S
C125 H153 0.930 . S
C126 C124 1.369 . S
C126 C128 1.392 . S
C126 H154 0.930 . S
C127 C123 1.373 . S
C127 C125 1.383 . S
C127 H155 0.931 . S
C128 C125 1.382 . S
C128 C126 1.392 . S
C129 Eu120 2.828 . S
C129 C123 1.505 . S
C129 O141 1.249 . S
C129 O142 1.244 . S
O130 Eu121 2.373 . S
O130 C132 1.258 . S
O131 Eu120 2.392 . S
O131 C132 1.242 . S
C132 O130 1.258 . S
C132 O131 1.242 . S
O133 Eu120 2.418 . S
O133 C137 1.244 . S
O134 Eu121 2.488 . S
O134 C150 1.249 . S
O135 Eu121 2.471 . S
O135 C150 1.244 . S
O136 Eu121 2.349 . S
O136 C137 1.265 . S
C137 O133 1.244 . S
C137 O136 1.265 . S
O138 Eu120 2.373 . S
O138 C151 1.258 . S
O139 Eu121 2.392 . S
O139 C151 1.242 . S
O140 Eu121 2.418 . S
O140 C122 1.244 . S
O141 Eu120 2.488 . S
O141 C129 1.249 . S
O142 Eu120 2.471 . S
O142 C129 1.244 . S
O143 Eu120 2.349 . S
O143 C122 1.265 . S
C144 C145 1.379 . S
C144 C148 1.373 . S
C144 C150 1.505 . S
C145 C144 1.379 . S
C145 C147 1.369 . S
C145 H156 0.930 . S
C146 C148 1.383 . S
C146 C149 1.382 . S
C146 H157 0.930 . S
C147 C145 1.369 . S
C147 C149 1.392 . S
C147 H158 0.930 . S
C148 C144 1.373 . S
C148 C146 1.383 . S
C148 H159 0.931 . S
C149 C146 1.382 . S
C149 C147 1.392 . S
C150 Eu121 2.828 . S
C150 O134 1.249 . S
C150 O135 1.244 . S
C150 C144 1.505 . S
C151 O138 1.258 . S
C151 O139 1.242 . S
H152 C124 0.930 . S
H153 C125 0.930 . S
H154 C126 0.930 . S
H155 C127 0.931 . S
H156 C145 0.930 . S
H157 C146 0.930 . S
H158 C147 0.930 . S
H159 C148 0.931 . S
Eu160 C169 2.828 . S
Eu160 O171 2.392 . S
Eu160 O173 2.418 . S
Eu160 O178 2.373 . S
Eu160 O181 2.488 . S
Eu160 O182 2.471 . S
Eu160 O183 2.349 . S
Eu161 O170 2.373 . S
Eu161 O174 2.488 . S
Eu161 O175 2.471 . S
Eu161 O176 2.349 . S
Eu161 O179 2.392 . S
Eu161 O180 2.418 . S
Eu161 C190 2.828 . S
C162 O180 1.244 . S
C162 O183 1.265 . S
C163 C164 1.379 . S
C163 C167 1.373 . S
C163 C169 1.505 . S
C164 C163 1.379 . S
C164 C166 1.369 . S
C164 H192 0.930 . S
C165 C167 1.383 . S
C165 C168 1.382 . S
C165 H193 0.930 . S
C166 C164 1.369 . S
C166 C168 1.392 . S
C166 H194 0.930 . S
C167 C163 1.373 . S
C167 C165 1.383 . S
C167 H195 0.931 . S
C168 C165 1.382 . S
C168 C166 1.392 . S
C169 Eu160 2.828 . S
C169 C163 1.505 . S
C169 O181 1.249 . S
C169 O182 1.244 . S
O170 Eu161 2.373 . S
O170 C172 1.258 . S
O171 Eu160 2.392 . S
O171 C172 1.242 . S
C172 O170 1.258 . S
C172 O171 1.242 . S
O173 Eu160 2.418 . S
O173 C177 1.244 . S
O174 Eu161 2.488 . S
O174 C190 1.249 . S
O175 Eu161 2.471 . S
O175 C190 1.244 . S
O176 Eu161 2.349 . S
O176 C177 1.265 . S
C177 O173 1.244 . S
C177 O176 1.265 . S
O178 Eu160 2.373 . S
O178 C191 1.258 . S
O179 Eu161 2.392 . S
O179 C191 1.242 . S
O180 Eu161 2.418 . S
O180 C162 1.244 . S
O181 Eu160 2.488 . S
O181 C169 1.249 . S
O182 Eu160 2.471 . S
O182 C169 1.244 . S
O183 Eu160 2.349 . S
O183 C162 1.265 . S
C184 C185 1.379 . S
C184 C188 1.373 . S
C184 C190 1.505 . S
C185 C184 1.379 . S
C185 C187 1.369 . S
C185 H196 0.930 . S
C186 C188 1.383 . S
C186 C189 1.382 . S
C186 H197 0.930 . S
C187 C185 1.369 . S
C187 C189 1.392 . S
C187 H198 0.930 . S
C188 C184 1.373 . S
C188 C186 1.383 . S
C188 H199 0.931 . S
C189 C186 1.382 . S
C189 C187 1.392 . S
C190 Eu161 2.828 . S
C190 O174 1.249 . S
C190 O175 1.244 . S
C190 C184 1.505 . S
C191 O178 1.258 . S
C191 O179 1.242 . S
H192 C164 0.930 . S
H193 C165 0.930 . S
H194 C166 0.930 . S
H195 C167 0.931 . S
H196 C185 0.930 . S
H197 C186 0.930 . S
H198 C187 0.930 . S
H199 C188 0.931 . S
Eu200 C209 2.828 . S
Eu200 O211 2.392 . S
Eu200 O213 2.418 . S
Eu200 O218 2.373 . S
Eu200 O221 2.488 . S
Eu200 O222 2.471 . S
Eu200 O223 2.349 . S
Eu201 O210 2.373 . S
Eu201 O214 2.488 . S
Eu201 O215 2.471 . S
Eu201 O216 2.349 . S
Eu201 O219 2.392 . S
Eu201 O220 2.418 . S
Eu201 C230 2.828 . S
C202 O220 1.244 . S
C202 O223 1.265 . S
C203 C204 1.379 . S
C203 C207 1.373 . S
C203 C209 1.505 . S
C204 C203 1.379 . S
C204 C206 1.369 . S
C204 H232 0.930 . S
C205 C207 1.383 . S
C205 C208 1.382 . S
C205 H233 0.930 . S
C206 C204 1.369 . S
C206 C208 1.392 . S
C206 H234 0.930 . S
C207 C203 1.373 . S
C207 C205 1.383 . S
C207 H235 0.931 . S
C208 C205 1.382 . S
C208 C206 1.392 . S
C209 Eu200 2.828 . S
C209 C203 1.505 . S
C209 O221 1.249 . S
C209 O222 1.244 . S
O210 Eu201 2.373 . S
O210 C212 1.258 . S
O211 Eu200 2.392 . S
O211 C212 1.242 . S
C212 O210 1.258 . S
C212 O211 1.242 . S
O213 Eu200 2.418 . S
O213 C217 1.244 . S
O214 Eu201 2.488 . S
O214 C230 1.249 . S
O215 Eu201 2.471 . S
O215 C230 1.244 . S
O216 Eu201 2.349 . S
O216 C217 1.265 . S
C217 O213 1.244 . S
C217 O216 1.265 . S
O218 Eu200 2.373 . S
O218 C231 1.258 . S
O219 Eu201 2.392 . S
O219 C231 1.242 . S
O220 Eu201 2.418 . S
O220 C202 1.244 . S
O221 Eu200 2.488 . S
O221 C209 1.249 . S
O222 Eu200 2.471 . S
O222 C209 1.244 . S
O223 Eu200 2.349 . S
O223 C202 1.265 . S
C224 C225 1.379 . S
C224 C228 1.373 . S
C224 C230 1.505 . S
C225 C224 1.379 . S
C225 C227 1.369 . S
C225 H236 0.930 . S
C226 C228 1.383 . S
C226 C229 1.382 . S
C226 H237 0.930 . S
C227 C225 1.369 . S
C227 C229 1.392 . S
C227 H238 0.930 . S
C228 C224 1.373 . S
C228 C226 1.383 . S
C228 H239 0.931 . S
C229 C226 1.382 . S
C229 C227 1.392 . S
C230 Eu201 2.828 . S
C230 O214 1.249 . S
C230 O215 1.244 . S
C230 C224 1.505 . S
C231 O218 1.258 . S
C231 O219 1.242 . S
H232 C204 0.930 . S
H233 C205 0.930 . S
H234 C206 0.930 . S
H235 C207 0.931 . S
H236 C225 0.930 . S
H237 C226 0.930 . S
H238 C227 0.930 . S
H239 C228 0.931 . S
Eu240 C249 2.828 . S
Eu240 O251 2.392 . S
Eu240 O253 2.418 . S
Eu240 O258 2.373 . S
Eu240 O261 2.488 . S
Eu240 O262 2.471 . S
Eu240 O263 2.349 . S
Eu241 O250 2.373 . S
Eu241 O254 2.488 . S
Eu241 O255 2.471 . S
Eu241 O256 2.349 . S
Eu241 O259 2.392 . S
Eu241 O260 2.418 . S
Eu241 C270 2.828 . S
C242 O260 1.244 . S
C242 O263 1.265 . S
C243 C244 1.379 . S
C243 C247 1.373 . S
C243 C249 1.505 . S
C244 C243 1.379 . S
C244 C246 1.369 . S
C244 H272 0.930 . S
C245 C247 1.383 . S
C245 C248 1.382 . S
C245 H273 0.930 . S
C246 C244 1.369 . S
C246 C248 1.392 . S
C246 H274 0.930 . S
C247 C243 1.373 . S
C247 C245 1.383 . S
C247 H275 0.931 . S
C248 C245 1.382 . S
C248 C246 1.392 . S
C249 Eu240 2.828 . S
C249 C243 1.505 . S
C249 O261 1.249 . S
C249 O262 1.244 . S
O250 Eu241 2.373 . S
O250 C252 1.258 . S
O251 Eu240 2.392 . S
O251 C252 1.242 . S
C252 O250 1.258 . S
C252 O251 1.242 . S
O253 Eu240 2.418 . S
O253 C257 1.244 . S
O254 Eu241 2.488 . S
O254 C270 1.249 . S
O255 Eu241 2.471 . S
O255 C270 1.244 . S
O256 Eu241 2.349 . S
O256 C257 1.265 . S
C257 O253 1.244 . S
C257 O256 1.265 . S
O258 Eu240 2.373 . S
O258 C271 1.258 . S
O259 Eu241 2.392 . S
O259 C271 1.242 . S
O260 Eu241 2.418 . S
O260 C242 1.244 . S
O261 Eu240 2.488 . S
O261 C249 1.249 . S
O262 Eu240 2.471 . S
O262 C249 1.244 . S
O263 Eu240 2.349 . S
O263 C242 1.265 . S
C264 C265 1.379 . S
C264 C268 1.373 . S
C264 C270 1.505 . S
C265 C264 1.379 . S
C265 C267 1.369 . S
C265 H276 0.930 . S
C266 C268 1.383 . S
C266 C269 1.382 . S
C266 H277 0.930 . S
C267 C265 1.369 . S
C267 C269 1.392 . S
C267 H278 0.930 . S
C268 C264 1.373 . S
C268 C266 1.383 . S
C268 H279 0.931 . S
C269 C266 1.382 . S
C269 C267 1.392 . S
C270 Eu241 2.828 . S
C270 O254 1.249 . S
C270 O255 1.244 . S
C270 C264 1.505 . S
C271 O258 1.258 . S
C271 O259 1.242 . S
H272 C244 0.930 . S
H273 C245 0.930 . S
H274 C246 0.930 . S
H275 C247 0.931 . S
H276 C265 0.930 . S
H277 C266 0.930 . S
H278 C267 0.930 . S
H279 C268 0.931 . S
Eu280 C289 2.828 . S
Eu280 O291 2.392 . S
Eu280 O293 2.418 . S
Eu280 O298 2.373 . S
Eu280 O301 2.488 . S
Eu280 O302 2.471 . S
Eu280 O303 2.349 . S
Eu281 O290 2.373 . S
Eu281 O294 2.488 . S
Eu281 O295 2.471 . S
Eu281 O296 2.349 . S
Eu281 O299 2.392 . S
Eu281 O300 2.418 . S
Eu281 C310 2.828 . S
C282 O300 1.244 . S
C282 O303 1.265 . S
C283 C284 1.379 . S
C283 C287 1.373 . S
C283 C289 1.505 . S
C284 C283 1.379 . S
C284 C286 1.369 . S
C284 H312 0.930 . S
C285 C287 1.383 . S
C285 C288 1.382 . S
C285 H313 0.930 . S
C286 C284 1.369 . S
C286 C288 1.392 . S
C286 H314 0.930 . S
C287 C283 1.373 . S
C287 C285 1.383 . S
C287 H315 0.931 . S
C288 C285 1.382 . S
C288 C286 1.392 . S
C289 Eu280 2.828 . S
C289 C283 1.505 . S
C289 O301 1.249 . S
C289 O302 1.244 . S
O290 Eu281 2.373 . S
O290 C292 1.258 . S
O291 Eu280 2.392 . S
O291 C292 1.242 . S
C292 O290 1.258 . S
C292 O291 1.242 . S
O293 Eu280 2.418 . S
O293 C297 1.244 . S
O294 Eu281 2.488 . S
O294 C310 1.249 . S
O295 Eu281 2.471 . S
O295 C310 1.244 . S
O296 Eu281 2.349 . S
O296 C297 1.265 . S
C297 O293 1.244 . S
C297 O296 1.265 . S
O298 Eu280 2.373 . S
O298 C311 1.258 . S
O299 Eu281 2.392 . S
O299 C311 1.242 . S
O300 Eu281 2.418 . S
O300 C282 1.244 . S
O301 Eu280 2.488 . S
O301 C289 1.249 . S
O302 Eu280 2.471 . S
O302 C289 1.244 . S
O303 Eu280 2.349 . S
O303 C282 1.265 . S
C304 C305 1.379 . S
C304 C308 1.373 . S
C304 C310 1.505 . S
C305 C304 1.379 . S
C305 C307 1.369 . S
C305 H316 0.930 . S
C306 C308 1.383 . S
C306 C309 1.382 . S
C306 H317 0.930 . S
C307 C305 1.369 . S
C307 C309 1.392 . S
C307 H318 0.930 . S
C308 C304 1.373 . S
C308 C306 1.383 . S
C308 H319 0.931 . S
C309 C306 1.382 . S
C309 C307 1.392 . S
C310 Eu281 2.828 . S
C310 O294 1.249 . S
C310 O295 1.244 . S
C310 C304 1.505 . S
C311 O298 1.258 . S
C311 O299 1.242 . S
H312 C284 0.930 . S
H313 C285 0.930 . S
H314 C286 0.930 . S
H315 C287 0.931 . S
H316 C305 0.930 . S
H317 C306 0.930 . S
H318 C307 0.930 . S
H319 C308 0.931 . S
C320 O332 1.241 . S
C320 O333 1.280 . S
C321 O334 1.277 . S
C321 O335 1.245 . S
C322 O346 1.247 . S
C322 O348 1.289 . S
Mg323 O324 1.926 1_455 S
Mg323 O333 1.984 1_455 S
Mg323 O335 1.988 1_455 S
Mg323 O336 2.061 . S
O324 Mg323 1.926 1_655 S
O324 Mg325 1.986 1_545 S
O324 Mg326 1.926 1_655 S
Mg325 O324 1.986 1_565 S
Mg325 O332 2.042 1_565 S
Mg325 O334 2.041 1_565 S
Mg325 O340 2.038 . S
Mg325 O348 2.238 . S
Mg326 O324 1.926 1_455 S
Mg326 O327 1.908 1_545 S
Mg326 O337 2.107 . S
Mg326 O339 2.073 1_445 S
Mg326 O348 2.106 1_445 S
Mg326 O349 2.084 . S
O327 Mg326 1.908 1_565 S
O327 Mg328 1.926 1_455 S
O327 Mg329 1.986 1_565 S
Mg328 O327 1.926 1_655 S
Mg328 O342 1.984 1_655 S
Mg328 O345 1.988 1_655 S
Mg328 O346 2.061 . S
Mg329 O327 1.986 1_545 S
Mg329 O337 2.238 . S
Mg329 O341 2.042 1_545 S
Mg329 O343 2.041 1_545 S
Mg329 O350 2.038 . S
C330 O336 1.247 . S
C330 O337 1.289 . S
C331 O349 1.245 . S
C331 O350 1.274 . S
O332 C320 1.241 . S
O332 Mg325 2.042 1_545 S
O333 C320 1.280 . S
O333 Mg323 1.984 1_655 S
O334 C321 1.277 . S
O334 Mg325 2.041 1_545 S
O335 C321 1.245 . S
O335 Mg323 1.988 1_655 S
O336 Mg323 2.061 . S
O336 C330 1.247 . S
O337 Mg326 2.107 . S
O337 Mg329 2.238 . S
O337 C330 1.289 . S
C338 O339 1.245 . S
C338 O340 1.274 . S
O339 Mg326 2.073 1_665 S
O339 C338 1.245 . S
O340 Mg325 2.038 . S
O340 C338 1.274 . S
O341 Mg329 2.042 1_565 S
O341 C344 1.241 . S
O342 Mg328 1.984 1_455 S
O342 C344 1.280 . S
O343 Mg329 2.041 1_565 S
O343 C347 1.277 . S
C344 O341 1.241 . S
C344 O342 1.280 . S
O345 Mg328 1.988 1_455 S
O345 C347 1.245 . S
O346 C322 1.247 . S
O346 Mg328 2.061 . S
C347 O343 1.277 . S
C347 O345 1.245 . S
O348 C322 1.289 . S
O348 Mg325 2.238 . S
O348 Mg326 2.106 1_665 S
O349 Mg326 2.084 . S
O349 C331 1.245 . S
O350 Mg329 2.038 . S
O350 C331 1.274 . S
C351 O363 1.241 . S
C351 O364 1.280 . S
C352 O365 1.277 . S
C352 O366 1.245 . S
C353 O377 1.247 . S
C353 O379 1.289 . S
Mg354 O355 1.926 . S
Mg354 O364 1.984 . S
Mg354 O366 1.988 1_554 S
Mg354 O367 2.061 . S
O355 Mg354 1.926 . S
O355 Mg356 1.986 1_545 S
O355 Mg357 1.929 . S
Mg356 O355 1.986 1_565 S
Mg356 O363 2.042 1_565 S
Mg356 O365 2.041 1_564 S
Mg356 O371 2.038 . S
Mg356 O379 2.238 1_554 S
Mg357 O355 1.929 . S
Mg357 O358 1.905 1_544 S
Mg357 O368 2.115 . S
Mg357 O370 2.086 1_545 S
Mg357 O379 2.097 1_544 S
Mg357 O380 2.071 1_554 S
O358 Mg357 1.905 1_566 S
O358 Mg359 1.926 . S
O358 Mg360 1.986 1_565 S
Mg359 O358 1.926 . S
Mg359 O373 1.984 . S
Mg359 O376 1.988 1_556 S
Mg359 O377 2.061 . S
Mg360 O358 1.986 1_545 S
Mg360 O368 2.238 1_556 S
Mg360 O372 2.042 1_545 S
Mg360 O374 2.041 1_546 S
Mg360 O381 2.038 . S
C361 O367 1.247 . S
C361 O368 1.289 . S
C362 O380 1.245 . S
C362 O381 1.274 . S
O363 C351 1.241 . S
O363 Mg356 2.042 1_545 S
O364 C351 1.280 . S
O364 Mg354 1.984 . S
O365 C352 1.277 . S
O365 Mg356 2.041 1_546 S
O366 C352 1.245 . S
O366 Mg354 1.988 1_556 S
O367 Mg354 2.061 . S
O367 C361 1.247 . S
O368 Mg357 2.115 . S
O368 Mg360 2.238 1_554 S
O368 C361 1.289 . S
C369 O370 1.245 . S
C369 O371 1.274 . S
O370 Mg357 2.086 1_565 S
O370 C369 1.245 . S
O371 Mg356 2.038 . S
O371 C369 1.274 . S
O372 Mg360 2.042 1_565 S
O372 C375 1.241 . S
O373 Mg359 1.984 . S
O373 C375 1.280 . S
O374 Mg360 2.041 1_564 S
O374 C378 1.277 . S
C375 O372 1.241 . S
C375 O373 1.280 . S
O376 Mg359 1.988 1_554 S
O376 C378 1.245 . S
O377 C353 1.247 . S
O377 Mg359 2.061 . S
C378 O374 1.277 . S
C378 O376 1.245 . S
O379 C353 1.289 . S
O379 Mg356 2.238 1_556 S
O379 Mg357 2.097 1_566 S
O380 Mg357 2.071 1_556 S
O380 C362 1.245 . S
O381 Mg360 2.038 . S
O381 C362 1.274 . S
C382 O394 1.241 . S
C382 O395 1.280 . S
C383 O396 1.277 . S
C383 O397 1.245 . S
C384 O408 1.247 . S
C384 O410 1.289 . S
Mg385 O386 1.926 1_455 S
Mg385 O395 1.984 1_455 S
Mg385 O397 1.988 1_454 S
Mg385 O398 2.061 . S
O386 Mg385 1.926 1_655 S
O386 Mg387 1.986 . S
O386 Mg388 1.920 1_655 S
Mg387 O386 1.986 . S
Mg387 O394 2.042 . S
Mg387 O396 2.041 1_554 S
Mg387 O402 2.038 . S
Mg387 O410 2.238 1_554 S
Mg388 O386 1.920 1_455 S
Mg388 O389 1.914 1_554 S
Mg388 O399 2.115 . S
Mg388 O401 2.092 1_455 S
Mg388 O410 2.098 1_454 S
Mg388 O411 2.065 1_554 S
O389 Mg388 1.914 1_556 S
O389 Mg390 1.926 1_455 S
O389 Mg391 1.986 . S
Mg390 O389 1.926 1_655 S
Mg390 O404 1.984 1_655 S
Mg390 O407 1.988 1_656 S
Mg390 O408 2.061 . S
Mg391 O389 1.986 . S
Mg391 O399 2.238 1_556 S
Mg391 O403 2.042 . S
Mg391 O405 2.041 1_556 S
Mg391 O412 2.038 . S
C392 O398 1.247 . S
C392 O399 1.289 . S
C393 O411 1.245 . S
C393 O412 1.274 . S
O394 C382 1.241 . S
O394 Mg387 2.042 . S
O395 C382 1.280 . S
O395 Mg385 1.984 1_655 S
O396 C383 1.277 . S
O396 Mg387 2.041 1_556 S
O397 C383 1.245 . S
O397 Mg385 1.988 1_656 S
O398 Mg385 2.061 . S
O398 C392 1.247 . S
O399 Mg388 2.115 . S
O399 Mg391 2.238 1_554 S
O399 C392 1.289 . S
C400 O401 1.245 . S
C400 O402 1.274 . S
O401 Mg388 2.092 1_655 S
O401 C400 1.245 . S
O402 Mg387 2.038 . S
O402 C400 1.274 . S
O403 Mg391 2.042 . S
O403 C406 1.241 . S
O404 Mg390 1.984 1_455 S
O404 C406 1.280 . S
O405 Mg391 2.041 1_554 S
O405 C409 1.277 . S
C406 O403 1.241 . S
C406 O404 1.280 . S
O407 Mg390 1.988 1_454 S
O407 C409 1.245 . S
O408 C384 1.247 . S
O408 Mg390 2.061 . S
C409 O405 1.277 . S
C409 O407 1.245 . S
O410 C384 1.289 . S
O410 Mg387 2.238 1_556 S
O410 Mg388 2.098 1_656 S
O411 Mg388 2.065 1_556 S
O411 C393 1.245 . S
O412 Mg391 2.038 . S
O412 C393 1.274 . S
C413 O425 1.241 . S
C413 O426 1.280 . S
C414 O427 1.277 . S
C414 O428 1.245 . S
C415 O439 1.247 . S
C415 O441 1.289 . S
Mg416 O417 1.926 . S
Mg416 O426 1.984 . S
Mg416 O428 1.988 1_554 S
Mg416 O429 2.061 . S
O417 Mg416 1.926 . S
O417 Mg418 1.986 . S
O417 Mg419 1.920 . S
Mg418 O417 1.986 . S
Mg418 O425 2.042 . S
Mg418 O427 2.041 1_554 S
Mg418 O433 2.038 . S
Mg418 O441 2.238 1_554 S
Mg419 O417 1.920 . S
Mg419 O420 1.914 1_554 S
Mg419 O430 2.115 . S
Mg419 O432 2.092 . S
Mg419 O441 2.098 1_554 S
Mg419 O442 2.066 1_554 S
O420 Mg419 1.914 1_556 S
O420 Mg421 1.926 . S
O420 Mg422 1.986 . S
Mg421 O420 1.926 . S
Mg421 O435 1.984 . S
Mg421 O438 1.988 1_556 S
Mg421 O439 2.061 . S
Mg422 O420 1.986 . S
Mg422 O430 2.238 1_556 S
Mg422 O434 2.042 . S
Mg422 O436 2.041 1_556 S
Mg422 O443 2.038 . S
C423 O429 1.247 . S
C423 O430 1.289 . S
C424 O442 1.245 . S
C424 O443 1.274 . S
O425 C413 1.241 . S
O425 Mg418 2.042 . S
O426 C413 1.280 . S
O426 Mg416 1.984 . S
O427 C414 1.277 . S
O427 Mg418 2.041 1_556 S
O428 C414 1.245 . S
O428 Mg416 1.988 1_556 S
O429 Mg416 2.061 . S
O429 C423 1.247 . S
O430 Mg419 2.115 . S
O430 Mg422 2.238 1_554 S
O430 C423 1.289 . S
C431 O432 1.245 . S
C431 O433 1.274 . S
O432 Mg419 2.092 . S
O432 C431 1.245 . S
O433 Mg418 2.038 . S
O433 C431 1.274 . S
O434 Mg422 2.042 . S
O434 C437 1.241 . S
O435 Mg421 1.984 . S
O435 C437 1.280 . S
O436 Mg422 2.041 1_554 S
O436 C440 1.277 . S
C437 O434 1.241 . S
C437 O435 1.280 . S
O438 Mg421 1.988 1_554 S
O438 C440 1.245 . S
O439 C415 1.247 . S
O439 Mg421 2.061 . S
C440 O436 1.277 . S
C440 O438 1.245 . S
O441 C415 1.289 . S
O441 Mg418 2.238 1_556 S
O441 Mg419 2.098 1_556 S
O442 Mg419 2.066 1_556 S
O442 C424 1.245 . S
O443 Mg422 2.038 . S
O443 C424 1.274 . S
C444 O456 1.241 . S
C444 O457 1.280 . S
C445 O458 1.277 . S
C445 O459 1.245 . S
C446 O470 1.247 . S
C446 O472 1.289 . S
Mg447 O448 1.926 1_455 S
Mg447 O457 1.984 1_455 S
Mg447 O459 1.988 1_455 S
Mg447 O460 2.061 . S
O448 Mg447 1.926 1_655 S
O448 Mg449 1.986 . S
O448 Mg450 1.917 1_655 S
Mg449 O448 1.986 . S
Mg449 O456 2.042 . S
Mg449 O458 2.041 . S
Mg449 O464 2.038 . S
Mg449 O472 2.238 . S
Mg450 O448 1.917 1_455 S
Mg450 O451 1.917 . S
Mg450 O461 2.106 . S
Mg450 O463 2.079 1_455 S
Mg450 O472 2.106 1_455 S
Mg450 O473 2.079 . S
O451 Mg450 1.917 . S
O451 Mg452 1.926 1_455 S
O451 Mg453 1.986 . S
Mg452 O451 1.926 1_655 S
Mg452 O466 1.984 1_655 S
Mg452 O469 1.988 1_655 S
Mg452 O470 2.061 . S
Mg453 O451 1.986 . S
Mg453 O461 2.238 . S
Mg453 O465 2.042 . S
Mg453 O467 2.041 . S
Mg453 O474 2.038 . S
C454 O460 1.247 . S
C454 O461 1.289 . S
C455 O473 1.245 . S
C455 O474 1.274 . S
O456 C444 1.241 . S
O456 Mg449 2.042 . S
O457 C444 1.280 . S
O457 Mg447 1.984 1_655 S
O458 C445 1.277 . S
O458 Mg449 2.041 . S
O459 C445 1.245 . S
O459 Mg447 1.988 1_655 S
O460 Mg447 2.061 . S
O460 C454 1.247 . S
O461 Mg450 2.106 . S
O461 Mg453 2.238 . S
O461 C454 1.289 . S
C462 O463 1.245 . S
C462 O464 1.274 . S
O463 Mg450 2.079 1_655 S
O463 C462 1.245 . S
O464 Mg449 2.038 . S
O464 C462 1.274 . S
O465 Mg453 2.042 . S
O465 C468 1.241 . S
O466 Mg452 1.984 1_455 S
O466 C468 1.280 . S
O467 Mg453 2.041 . S
O467 C471 1.277 . S
C468 O465 1.241 . S
C468 O466 1.280 . S
O469 Mg452 1.988 1_455 S
O469 C471 1.245 . S
O470 C446 1.247 . S
O470 Mg452 2.061 . S
C471 O467 1.277 . S
C471 O469 1.245 . S
O472 C446 1.289 . S
O472 Mg449 2.238 . S
O472 Mg450 2.106 1_655 S
O473 Mg450 2.079 . S
O473 C455 1.245 . S
O474 Mg453 2.038 . S
O474 C455 1.274 . S
C475 O487 1.241 . S
C475 O488 1.280 . S
C476 O489 1.277 . S
C476 O490 1.245 . S
C477 O501 1.247 . S
C477 O503 1.289 . S
Mg478 O479 1.926 . S
Mg478 O488 1.984 . S
Mg478 O490 1.988 . S
Mg478 O491 2.061 . S
O479 Mg478 1.926 . S
O479 Mg480 1.986 1_545 S
O479 Mg481 1.926 . S
Mg480 O479 1.986 1_565 S
Mg480 O487 2.042 1_565 S
Mg480 O489 2.041 1_565 S
Mg480 O495 2.038 . S
Mg480 O503 2.238 . S
Mg481 O479 1.926 . S
Mg481 O482 1.908 1_545 S
Mg481 O492 2.107 . S
Mg481 O494 2.073 1_545 S
Mg481 O503 2.106 1_545 S
Mg481 O504 2.084 . S
O482 Mg481 1.908 1_565 S
O482 Mg483 1.926 . S
O482 Mg484 1.986 1_565 S
Mg483 O482 1.926 . S
Mg483 O497 1.984 . S
Mg483 O500 1.988 . S
Mg483 O501 2.061 . S
Mg484 O482 1.986 1_545 S
Mg484 O492 2.238 . S
Mg484 O496 2.042 1_545 S
Mg484 O498 2.041 1_545 S
Mg484 O505 2.038 . S
C485 O491 1.247 . S
C485 O492 1.289 . S
C486 O504 1.245 . S
C486 O505 1.274 . S
O487 C475 1.241 . S
O487 Mg480 2.042 1_545 S
O488 C475 1.280 . S
O488 Mg478 1.984 . S
O489 C476 1.277 . S
O489 Mg480 2.041 1_545 S
O490 C476 1.245 . S
O490 Mg478 1.988 . S
O491 Mg478 2.061 . S
O491 C485 1.247 . S
O492 Mg481 2.107 . S
O492 Mg484 2.238 . S
O492 C485 1.289 . S
C493 O494 1.245 . S
C493 O495 1.274 . S
O494 Mg481 2.073 1_565 S
O494 C493 1.245 . S
O495 Mg480 2.038 . S
O495 C493 1.274 . S
O496 Mg484 2.042 1_565 S
O496 C499 1.241 . S
O497 Mg483 1.984 . S
O497 C499 1.280 . S
O498 Mg484 2.041 1_565 S
O498 C502 1.277 . S
C499 O496 1.241 . S
C499 O497 1.280 . S
O500 Mg483 1.988 . S
O500 C502 1.245 . S
O501 C477 1.247 . S
O501 Mg483 2.061 . S
C502 O498 1.277 . S
C502 O500 1.245 . S
O503 C477 1.289 . S
O503 Mg480 2.238 . S
O503 Mg481 2.106 1_565 S
O504 Mg481 2.084 . S
O504 C486 1.245 . S
O505 Mg484 2.038 . S
O505 C486 1.274 . S
C506 C507 1.363 . S
C506 C512 1.379 . S
C506 N514 1.356 . S
C507 C506 1.363 . S
C507 C513 1.363 . S
C508 C509 1.363 . S
C508 C513 1.379 . S
C508 N515 1.356 . S
C509 C508 1.363 . S
C509 C512 1.363 . S
N510 C512 1.356 . S
N510 H522 0.984 . S
N510 H523 0.985 . S
N511 C513 1.356 . S
N511 H516 0.984 . S
N511 H517 0.985 . S
C512 C506 1.379 . S
C512 C509 1.363 . S
C512 N510 1.356 . S
C513 C507 1.363 . S
C513 C508 1.379 . S
C513 N511 1.356 . S
N514 C506 1.356 . S
N514 H520 0.984 . S
N514 H521 0.984 . S
N515 C508 1.356 . S
N515 H518 0.984 . S
N515 H519 0.985 . S
H516 N511 0.984 . S
H517 N511 0.985 . S
H518 N515 0.984 . S
H519 N515 0.985 . S
H520 N514 0.984 . S
H521 N514 0.984 . S
H522 N510 0.984 . S
H523 N510 0.985 . S
C524 C525 1.363 . S
C524 C530 1.379 . S
C524 N532 1.356 1_545 S
C525 C524 1.363 . S
C525 C531 1.363 . S
C526 C527 1.363 . S
C526 C531 1.379 . S
C526 N533 1.356 . S
C527 C526 1.363 . S
C527 C530 1.363 . S
N528 C530 1.356 . S
N528 H540 0.984 1_545 S
N528 H541 0.985 . S
N529 C531 1.356 . S
N529 H534 0.984 . S
N529 H535 0.985 . S
C530 C524 1.379 . S
C530 C527 1.363 . S
C530 N528 1.356 . S
C531 C525 1.363 . S
C531 C526 1.379 . S
C531 N529 1.356 . S
N532 C524 1.356 1_565 S
N532 H538 0.984 . S
N532 H539 0.984 1_565 S
N533 C526 1.356 . S
N533 H536 0.984 . S
N533 H537 0.985 . S
H534 N529 0.984 . S
H535 N529 0.985 . S
H536 N533 0.984 . S
H537 N533 0.985 . S
H538 N532 0.984 . S
H539 N532 0.984 1_545 S
H540 N528 0.984 1_565 S
H541 N528 0.985 . S
C542 C543 1.363 . S
C542 C548 1.379 . S
C542 N550 1.356 . S
C543 C542 1.363 . S
C543 C549 1.363 . S
C544 C545 1.363 . S
C544 C549 1.379 . S
C544 N551 1.356 . S
C545 C544 1.363 . S
C545 C548 1.363 . S
N546 C548 1.356 . S
N546 H558 0.984 . S
N546 H559 0.985 . S
N547 C549 1.356 . S
N547 H552 0.984 . S
N547 H553 0.985 . S
C548 C542 1.379 . S
C548 C545 1.363 . S
C548 N546 1.356 . S
C549 C543 1.363 . S
C549 C544 1.379 . S
C549 N547 1.356 . S
N550 C542 1.356 . S
N550 H556 0.984 . S
N550 H557 0.984 . S
N551 C544 1.356 . S
N551 H554 0.984 . S
N551 H555 0.985 . S
H552 N547 0.984 . S
H553 N547 0.985 . S
H554 N551 0.984 . S
H555 N551 0.985 . S
H556 N550 0.984 . S
H557 N550 0.984 . S
H558 N546 0.984 . S
H559 N546 0.985 . S
C560 C561 1.363 . S
C560 C566 1.379 . S
C560 N568 1.356 . S
C561 C560 1.363 . S
C561 C567 1.363 . S
C562 C563 1.363 . S
C562 C567 1.379 . S
C562 N569 1.356 . S
C563 C562 1.363 . S
C563 C566 1.363 . S
N564 C566 1.356 . S
N564 H576 0.984 . S
N564 H577 0.985 . S
N565 C567 1.356 . S
N565 H570 0.984 . S
N565 H571 0.985 . S
C566 C560 1.379 . S
C566 C563 1.363 . S
C566 N564 1.356 . S
C567 C561 1.363 . S
C567 C562 1.379 . S
C567 N565 1.356 . S
N568 C560 1.356 . S
N568 H574 0.984 . S
N568 H575 0.984 . S
N569 C562 1.356 . S
N569 H572 0.984 . S
N569 H573 0.985 . S
H570 N565 0.984 . S
H571 N565 0.985 . S
H572 N569 0.984 . S
H573 N569 0.985 . S
H574 N568 0.984 . S
H575 N568 0.984 . S
H576 N564 0.984 . S
H577 N564 0.985 . S
C578 C579 1.363 . S
C578 C584 1.379 . S
C578 N586 1.356 . S
C579 C578 1.363 . S
C579 C585 1.363 . S
C580 C581 1.363 . S
C580 C585 1.379 . S
C580 N587 1.356 . S
C581 C580 1.363 . S
C581 C584 1.363 . S
N582 C584 1.356 . S
N582 H594 0.984 . S
N582 H595 0.985 . S
N583 C585 1.356 . S
N583 H588 0.984 . S
N583 H589 0.985 . S
C584 C578 1.379 . S
C584 C581 1.363 . S
C584 N582 1.356 . S
C585 C579 1.363 . S
C585 C580 1.379 . S
C585 N583 1.356 . S
N586 C578 1.356 . S
N586 H592 0.984 . S
N586 H593 0.984 . S
N587 C580 1.356 . S
N587 H590 0.984 . S
N587 H591 0.985 . S
H588 N583 0.984 . S
H589 N583 0.985 . S
H590 N587 0.984 . S
H591 N587 0.985 . S
H592 N586 0.984 . S
H593 N586 0.984 . S
H594 N582 0.984 . S
H595 N582 0.985 . S
C596 C597 1.363 . S
C596 C602 1.379 . S
C596 N604 1.356 . S
C597 C596 1.363 . S
C597 C603 1.363 . S
C598 C599 1.363 . S
C598 C603 1.379 . S
C598 N605 1.356 . S
C599 C598 1.363 . S
C599 C602 1.363 . S
N600 C602 1.356 . S
N600 H612 0.984 . S
N600 H613 0.985 . S
N601 C603 1.356 . S
N601 H606 0.984 . S
N601 H607 0.985 . S
C602 C596 1.379 . S
C602 C599 1.363 . S
C602 N600 1.356 . S
C603 C597 1.363 . S
C603 C598 1.379 . S
C603 N601 1.356 . S
N604 C596 1.356 . S
N604 H610 0.984 . S
N604 H611 0.984 . S
N605 C598 1.356 . S
N605 H608 0.984 . S
N605 H609 0.985 . S
H606 N601 0.984 . S
H607 N601 0.985 . S
H608 N605 0.984 . S
H609 N605 0.985 . S
H610 N604 0.984 . S
H611 N604 0.984 . S
H612 N600 0.984 . S
H613 N600 0.985 . S
C614 C615 1.363 . S
C614 C620 1.379 . S
C614 N622 1.356 . S
C615 C614 1.363 . S
C615 C621 1.363 . S
C616 C617 1.363 . S
C616 C621 1.379 . S
C616 N623 1.356 . S
C617 C616 1.363 . S
C617 C620 1.363 . S
N618 C620 1.356 . S
N618 H630 0.984 . S
N618 H631 0.985 1_545 S
N619 C621 1.356 . S
N619 H624 0.984 . S
N619 H625 0.985 1_655 S
C620 C614 1.379 . S
C620 C617 1.363 . S
C620 N618 1.356 . S
C621 C615 1.363 . S
C621 C616 1.379 . S
C621 N619 1.356 . S
N622 C614 1.356 . S
N622 H628 0.984 . S
N622 H629 0.984 . S
N623 C616 1.356 . S
N623 H626 0.984 . S
N623 H627 0.985 . S
H624 N619 0.984 . S
H625 N619 0.985 1_455 S
H626 N623 0.984 . S
H627 N623 0.985 . S
H628 N622 0.984 . S
H629 N622 0.984 . S
H630 N618 0.984 . S
H631 N618 0.985 1_565 S
C632 C633 1.363 . S
C632 C638 1.379 . S
C632 N640 1.356 . S
C633 C632 1.363 . S
C633 C639 1.363 . S
C634 C635 1.363 . S
C634 C639 1.379 . S
C634 N641 1.356 . S
C635 C634 1.363 . S
C635 C638 1.363 . S
N636 C638 1.356 . S
N636 H648 0.984 . S
N636 H649 0.985 . S
N637 C639 1.356 . S
N637 H642 0.984 . S
N637 H643 0.985 . S
C638 C632 1.379 . S
C638 C635 1.363 . S
C638 N636 1.356 . S
C639 C633 1.363 . S
C639 C634 1.379 . S
C639 N637 1.356 . S
N640 C632 1.356 . S
N640 H646 0.984 . S
N640 H647 0.984 . S
N641 C634 1.356 . S
N641 H644 0.984 . S
N641 H645 0.985 . S
H642 N637 0.984 . S
H643 N637 0.985 . S
H644 N641 0.984 . S
H645 N641 0.985 . S
H646 N640 0.984 . S
H647 N640 0.984 . S
H648 N636 0.984 . S
H649 N636 0.985 . S
C650 C651 1.363 . S
C650 C656 1.379 . S
C650 N658 1.356 . S
C651 C650 1.363 . S
C651 C657 1.363 . S
C652 C653 1.363 . S
C652 C657 1.379 . S
C652 N659 1.356 . S
C653 C652 1.363 . S
C653 C656 1.363 . S
N654 C656 1.356 . S
N654 H666 0.984 . S
N654 H667 0.985 . S
N655 C657 1.356 . S
N655 H660 0.984 . S
N655 H661 0.985 . S
C656 C650 1.379 . S
C656 C653 1.363 . S
C656 N654 1.356 . S
C657 C651 1.363 . S
C657 C652 1.379 . S
C657 N655 1.356 . S
N658 C650 1.356 . S
N658 H664 0.984 . S
N658 H665 0.984 . S
N659 C652 1.356 . S
N659 H662 0.984 . S
N659 H663 0.985 . S
H660 N655 0.984 . S
H661 N655 0.985 . S
H662 N659 0.984 . S
H663 N659 0.985 . S
H664 N658 0.984 . S
H665 N658 0.984 . S
H666 N654 0.984 . S
H667 N654 0.985 . S
C668 C669 1.363 . S
C668 C674 1.379 . S
C668 N676 1.356 . S
C669 C668 1.363 . S
C669 C675 1.363 . S
C670 C671 1.363 . S
C670 C675 1.379 . S
C670 N677 1.356 . S
C671 C670 1.363 . S
C671 C674 1.363 . S
N672 C674 1.356 . S
N672 H684 0.984 . S
N672 H685 0.985 . S
N673 C675 1.356 . S
N673 H678 0.984 . S
N673 H679 0.985 . S
C674 C668 1.379 . S
C674 C671 1.363 . S
C674 N672 1.356 . S
C675 C669 1.363 . S
C675 C670 1.379 . S
C675 N673 1.356 . S
N676 C668 1.356 . S
N676 H682 0.984 . S
N676 H683 0.984 . S
N677 C670 1.356 . S
N677 H680 0.984 . S
N677 H681 0.985 . S
H678 N673 0.984 . S
H679 N673 0.985 . S
H680 N677 0.984 . S
H681 N677 0.985 . S
H682 N676 0.984 . S
H683 N676 0.984 . S
H684 N672 0.984 . S
H685 N672 0.985 . S
C686 C687 1.363 . S
C686 C692 1.379 . S
C686 N694 1.356 1_565 S
C687 C686 1.363 . S
C687 C693 1.363 . S
C688 C689 1.363 . S
C688 C693 1.379 . S
C688 N695 1.356 . S
C689 C688 1.363 . S
C689 C692 1.363 . S
N690 C692 1.356 . S
N690 H702 0.984 1_565 S
N690 H703 0.985 . S
N691 C693 1.356 . S
N691 H696 0.984 . S
N691 H697 0.985 . S
C692 C686 1.379 . S
C692 C689 1.363 . S
C692 N690 1.356 . S
C693 C687 1.363 . S
C693 C688 1.379 . S
C693 N691 1.356 . S
N694 C686 1.356 1_545 S
N694 H700 0.984 . S
N694 H701 0.984 . S
N695 C688 1.356 . S
N695 H698 0.984 . S
N695 H699 0.985 . S
H696 N691 0.984 . S
H697 N691 0.985 . S
H698 N695 0.984 . S
H699 N695 0.985 . S
H700 N694 0.984 . S
H701 N694 0.984 . S
H702 N690 0.984 1_545 S
H703 N690 0.985 . S
C704 C705 1.363 . S
C704 C710 1.379 . S
C704 N712 1.356 . S
C705 C704 1.363 . S
C705 C711 1.363 . S
C706 C707 1.363 . S
C706 C711 1.379 . S
C706 N713 1.356 . S
C707 C706 1.363 . S
C707 C710 1.363 . S
N708 C710 1.356 . S
N708 H720 0.984 . S
N708 H721 0.985 . S
N709 C711 1.356 . S
N709 H714 0.984 . S
N709 H715 0.985 . S
C710 C704 1.379 . S
C710 C707 1.363 . S
C710 N708 1.356 . S
C711 C705 1.363 . S
C711 C706 1.379 . S
C711 N709 1.356 . S
N712 C704 1.356 . S
N712 H718 0.984 . S
N712 H719 0.984 . S
N713 C706 1.356 . S
N713 H716 0.984 . S
N713 H717 0.985 . S
H714 N709 0.984 . S
H715 N709 0.985 . S
H716 N713 0.984 . S
H717 N713 0.985 . S
H718 N712 0.984 . S
H719 N712 0.984 . S
H720 N708 0.984 . S
H721 N708 0.985 . S
C722 C723 1.363 . S
C722 C728 1.379 . S
C722 N730 1.356 . S
C723 C722 1.363 . S
C723 C729 1.363 . S
C724 C725 1.363 . S
C724 C729 1.379 . S
C724 N731 1.356 . S
C725 C724 1.363 . S
C725 C728 1.363 . S
N726 C728 1.356 . S
N726 H738 0.984 . S
N726 H739 0.985 . S
N727 C729 1.356 . S
N727 H732 0.984 . S
N727 H733 0.985 . S
C728 C722 1.379 . S
C728 C725 1.363 . S
C728 N726 1.356 . S
C729 C723 1.363 . S
C729 C724 1.379 . S
C729 N727 1.356 . S
N730 C722 1.356 . S
N730 H736 0.984 . S
N730 H737 0.984 . S
N731 C724 1.356 . S
N731 H734 0.984 . S
N731 H735 0.985 . S
H732 N727 0.984 . S
H733 N727 0.985 . S
H734 N731 0.984 . S
H735 N731 0.985 . S
H736 N730 0.984 . S
H737 N730 0.984 . S
H738 N726 0.984 . S
H739 N726 0.985 . S
C740 C741 1.363 . S
C740 C746 1.379 . S
C740 N748 1.356 . S
C741 C740 1.363 . S
C741 C747 1.363 . S
C742 C743 1.363 . S
C742 C747 1.379 . S
C742 N749 1.356 . S
C743 C742 1.363 . S
C743 C746 1.363 . S
N744 C746 1.356 . S
N744 H756 0.984 . S
N744 H757 0.985 . S
N745 C747 1.356 . S
N745 H750 0.984 . S
N745 H751 0.985 . S
C746 C740 1.379 . S
C746 C743 1.363 . S
C746 N744 1.356 . S
C747 C741 1.363 . S
C747 C742 1.379 . S
C747 N745 1.356 . S
N748 C740 1.356 . S
N748 H754 0.984 . S
N748 H755 0.984 . S
N749 C742 1.356 . S
N749 H752 0.984 . S
N749 H753 0.985 . S
H750 N745 0.984 . S
H751 N745 0.985 . S
H752 N749 0.984 . S
H753 N749 0.985 . S
H754 N748 0.984 . S
H755 N748 0.984 . S
H756 N744 0.984 . S
H757 N744 0.985 . S
C758 C759 1.363 . S
C758 C764 1.379 . S
C758 N766 1.356 . S
C759 C758 1.363 . S
C759 C765 1.363 . S
C760 C761 1.363 . S
C760 C765 1.379 . S
C760 N767 1.356 . S
C761 C760 1.363 . S
C761 C764 1.363 . S
N762 C764 1.356 . S
N762 H774 0.984 . S
N762 H775 0.985 . S
N763 C765 1.356 . S
N763 H768 0.984 . S
N763 H769 0.985 . S
C764 C758 1.379 . S
C764 C761 1.363 . S
C764 N762 1.356 . S
C765 C759 1.363 . S
C765 C760 1.379 . S
C765 N763 1.356 . S
N766 C758 1.356 . S
N766 H772 0.984 . S
N766 H773 0.984 . S
N767 C760 1.356 . S
N767 H770 0.984 . S
N767 H771 0.985 . S
H768 N763 0.984 . S
H769 N763 0.985 . S
H770 N767 0.984 . S
H771 N767 0.985 . S
H772 N766 0.984 . S
H773 N766 0.984 . S
H774 N762 0.984 . S
H775 N762 0.985 . S
C776 C777 1.363 . S
C776 C782 1.379 . S
C776 N784 1.356 . S
C777 C776 1.363 . S
C777 C783 1.363 . S
C778 C779 1.363 . S
C778 C783 1.379 . S
C778 N785 1.356 1_655 S
C779 C778 1.363 . S
C779 C782 1.363 . S
N780 C782 1.356 . S
N780 H792 0.984 . S
N780 H793 0.985 . S
N781 C783 1.356 1_455 S
N781 H786 0.984 . S
N781 H787 0.985 . S
C782 C776 1.379 . S
C782 C779 1.363 . S
C782 N780 1.356 . S
C783 C777 1.363 . S
C783 C778 1.379 . S
C783 N781 1.356 1_655 S
N784 C776 1.356 . S
N784 H790 0.984 . S
N784 H791 0.984 . S
N785 C778 1.356 1_455 S
N785 H788 0.984 . S
N785 H789 0.985 . S
H786 N781 0.984 . S
H787 N781 0.985 . S
H788 N785 0.984 . S
H789 N785 0.985 . S
H790 N784 0.984 . S
H791 N784 0.984 . S
H792 N780 0.984 . S
H793 N780 0.985 . S
C794 C795 1.363 . S
C794 C800 1.379 . S
C794 N802 1.356 . S
C795 C794 1.363 . S
C795 C801 1.363 . S
C796 C797 1.363 . S
C796 C801 1.379 . S
C796 N803 1.356 . S
C797 C796 1.363 . S
C797 C800 1.363 . S
N798 C800 1.356 . S
N798 H810 0.984 . S
N798 H811 0.985 . S
N799 C801 1.356 . S
N799 H804 0.984 . S
N799 H805 0.985 . S
C800 C794 1.379 . S
C800 C797 1.363 . S
C800 N798 1.356 . S
C801 C795 1.363 . S
C801 C796 1.379 . S
C801 N799 1.356 . S
N802 C794 1.356 . S
N802 H808 0.987 . S
N802 H809 0.984 . S
N803 C796 1.356 . S
N803 H806 0.984 . S
N803 H807 0.985 . S
H804 N799 0.984 . S
H805 N799 0.985 . S
H806 N803 0.984 . S
H807 N803 0.985 . S
H808 N802 0.987 . S
H809 N802 0.984 . S
H810 N798 0.984 . S
H811 N798 0.985 . S
C812 C813 1.363 . S
C812 C818 1.379 . S
C812 N820 1.356 . S
C813 C812 1.363 . S
C813 C819 1.363 . S
C814 C815 1.363 . S
C814 C819 1.379 . S
C814 N821 1.356 . S
C815 C814 1.363 . S
C815 C818 1.363 . S
N816 C818 1.356 . S
N816 H828 0.984 . S
N816 H829 0.985 . S
N817 C819 1.356 . S
N817 H822 0.984 . S
N817 H823 0.985 . S
C818 C812 1.379 . S
C818 C815 1.363 . S
C818 N816 1.356 . S
C819 C813 1.363 . S
C819 C814 1.379 . S
C819 N817 1.356 . S
N820 C812 1.356 . S
N820 H826 0.984 . S
N820 H827 0.984 . S
N821 C814 1.356 . S
N821 H824 0.984 . S
N821 H825 0.985 . S
H822 N817 0.984 . S
H823 N817 0.985 . S
H824 N821 0.984 . S
H825 N821 0.985 . S
H826 N820 0.984 . S
H827 N820 0.984 . S
H828 N816 0.984 . S
H829 N816 0.985 . S
C830 C831 1.363 . S
C830 C836 1.379 . S
C830 N838 1.356 1_545 S
C831 C830 1.363 . S
C831 C837 1.363 . S
C832 C833 1.363 . S
C832 C837 1.379 . S
C832 N839 1.356 . S
C833 C832 1.363 . S
C833 C836 1.363 . S
N834 C836 1.356 . S
N834 H846 0.984 1_545 S
N834 H847 0.985 . S
N835 C837 1.356 . S
N835 H840 0.984 . S
N835 H841 0.985 . S
C836 C830 1.379 . S
C836 C833 1.363 . S
C836 N834 1.356 . S
C837 C831 1.363 . S
C837 C832 1.379 . S
C837 N835 1.356 . S
N838 C830 1.356 1_565 S
N838 H844 0.984 . S
N838 H845 0.984 . S
N839 C832 1.356 . S
N839 H842 0.984 . S
N839 H843 0.985 . S
H840 N835 0.984 . S
H841 N835 0.985 . S
H842 N839 0.984 . S
H843 N839 0.985 . S
H844 N838 0.984 . S
H845 N838 0.984 . S
H846 N834 0.984 1_565 S
H847 N834 0.985 . S
C848 C849 1.363 . S
C848 C854 1.379 . S
C848 N856 1.356 . S
C849 C848 1.363 . S
C849 C855 1.363 . S
C850 C851 1.363 . S
C850 C855 1.379 . S
C850 N857 1.356 . S
C851 C850 1.363 . S
C851 C854 1.363 . S
N852 C854 1.356 . S
N852 H864 0.984 . S
N852 H865 0.985 . S
N853 C855 1.356 . S
N853 H858 0.984 . S
N853 H859 0.985 . S
C854 C848 1.379 . S
C854 C851 1.363 . S
C854 N852 1.356 . S
C855 C849 1.363 . S
C855 C850 1.379 . S
C855 N853 1.356 . S
N856 C848 1.356 . S
N856 H862 0.984 . S
N856 H863 0.984 . S
N857 C850 1.356 . S
N857 H860 0.984 . S
N857 H861 0.985 . S
H858 N853 0.984 . S
H859 N853 0.985 . S
H860 N857 0.984 . S
H861 N857 0.985 . S
H862 N856 0.984 . S
H863 N856 0.984 . S
H864 N852 0.984 . S
H865 N852 0.985 . S
C866 C867 1.363 . S
C866 C872 1.379 . S
C866 N874 1.356 . S
C867 C866 1.363 . S
C867 C873 1.363 . S
C868 C869 1.363 . S
C868 C873 1.379 . S
C868 N875 1.356 . S
C869 C868 1.363 . S
C869 C872 1.363 . S
N870 C872 1.356 . S
N870 H882 0.984 . S
N870 H883 0.985 . S
N871 C873 1.356 . S
N871 H876 0.984 . S
N871 H877 0.985 . S
C872 C866 1.379 . S
C872 C869 1.363 . S
C872 N870 1.356 . S
C873 C867 1.363 . S
C873 C868 1.379 . S
C873 N871 1.356 . S
N874 C866 1.356 . S
N874 H880 0.984 . S
N874 H881 0.984 . S
N875 C868 1.356 . S
N875 H878 0.984 . S
N875 H879 0.985 . S
H876 N871 0.984 . S
H877 N871 0.985 . S
H878 N875 0.984 . S
H879 N875 0.985 . S
H880 N874 0.984 . S
H881 N874 0.984 . S
H882 N870 0.984 . S
H883 N870 0.985 . S
C884 C885 1.363 . S
C884 C890 1.379 . S
C884 N892 1.356 . S
C885 C884 1.363 . S
C885 C891 1.363 . S
C886 C887 1.363 . S
C886 C891 1.379 . S
C886 N893 1.356 . S
C887 C886 1.363 . S
C887 C890 1.363 . S
N888 C890 1.356 . S
N888 H900 0.984 . S
N888 H901 0.985 . S
N889 C891 1.356 . S
N889 H894 0.984 . S
N889 H895 0.985 . S
C890 C884 1.379 . S
C890 C887 1.363 . S
C890 N888 1.356 . S
C891 C885 1.363 . S
C891 C886 1.379 . S
C891 N889 1.356 . S
N892 C884 1.356 . S
N892 H898 0.984 . S
N892 H899 0.984 . S
N893 C886 1.356 . S
N893 H896 0.984 . S
N893 H897 0.985 . S
H894 N889 0.984 . S
H895 N889 0.985 . S
H896 N893 0.984 . S
H897 N893 0.985 . S
H898 N892 0.984 . S
H899 N892 0.984 . S
H900 N888 0.984 . S
H901 N888 0.985 . S
C902 C903 1.363 . S
C902 C908 1.379 . S
C902 N910 1.356 . S
C903 C902 1.363 . S
C903 C909 1.363 . S
C904 C905 1.363 . S
C904 C909 1.379 . S
C904 N911 1.356 . S
C905 C904 1.363 . S
C905 C908 1.363 . S
N906 C908 1.356 . S
N906 H918 0.984 . S
N906 H919 0.985 . S
N907 C909 1.356 . S
N907 H912 0.984 . S
N907 H913 0.985 . S
C908 C902 1.379 . S
C908 C905 1.363 . S
C908 N906 1.356 . S
C909 C903 1.363 . S
C909 C904 1.379 . S
C909 N907 1.356 . S
N910 C902 1.356 . S
N910 H916 0.984 . S
N910 H917 0.984 . S
N911 C904 1.356 . S
N911 H914 0.984 . S
N911 H915 0.985 . S
H912 N907 0.984 . S
H913 N907 0.985 . S
H914 N911 0.984 . S
H915 N911 0.985 . S
H916 N910 0.984 . S
H917 N910 0.984 . S
H918 N906 0.984 . S
H919 N906 0.985 . S
C920 C921 1.363 . S
C920 C926 1.379 . S
C920 N928 1.356 . S
C921 C920 1.363 . S
C921 C927 1.363 . S
C922 C923 1.363 . S
C922 C927 1.379 . S
C922 N929 1.356 . S
C923 C922 1.363 . S
C923 C926 1.363 . S
N924 C926 1.356 . S
N924 H936 0.984 . S
N924 H937 0.985 . S
N925 C927 1.356 . S
N925 H930 0.984 . S
N925 H931 0.985 . S
C926 C920 1.379 . S
C926 C923 1.363 . S
C926 N924 1.356 . S
C927 C921 1.363 . S
C927 C922 1.379 . S
C927 N925 1.356 . S
N928 C920 1.356 . S
N928 H934 0.984 . S
N928 H935 0.984 . S
N929 C922 1.356 . S
N929 H932 0.984 . S
N929 H933 0.985 . S
H930 N925 0.984 . S
H931 N925 0.985 . S
H932 N929 0.984 . S
H933 N929 0.985 . S
H934 N928 0.984 . S
H935 N928 0.984 . S
H936 N924 0.984 . S
H937 N924 0.985 . S
C938 C939 1.363 . S
C938 C944 1.379 . S
C938 N946 1.356 . S
C939 C938 1.363 . S
C939 C945 1.363 . S
C940 C941 1.363 . S
C940 C945 1.379 . S
C940 N947 1.356 . S
C941 C940 1.363 . S
C941 C944 1.363 . S
N942 C944 1.356 . S
N942 H954 0.984 . S
N942 H955 0.985 . S
N943 C945 1.356 . S
N943 H948 0.984 . S
N943 H949 0.985 . S
C944 C938 1.379 . S
C944 C941 1.363 . S
C944 N942 1.356 . S
C945 C939 1.363 . S
C945 C940 1.379 . S
C945 N943 1.356 . S
N946 C938 1.356 . S
N946 H952 0.984 . S
N946 H953 0.984 . S
N947 C940 1.356 . S
N947 H950 0.984 . S
N947 H951 0.985 . S
H948 N943 0.984 . S
H949 N943 0.985 . S
H950 N947 0.984 . S
H951 N947 0.985 . S
H952 N946 0.984 . S
H953 N946 0.984 . S
H954 N942 0.984 . S
H955 N942 0.985 . S
C956 C957 1.363 . S
C956 C962 1.379 . S
C956 N964 1.356 . S
C957 C956 1.363 . S
C957 C963 1.363 . S
C958 C959 1.363 . S
C958 C963 1.379 . S
C958 N965 1.356 . S
C959 C958 1.363 . S
C959 C962 1.363 . S
N960 C962 1.356 . S
N960 H972 0.984 . S
N960 H973 0.985 . S
N961 C963 1.356 . S
N961 H966 0.984 . S
N961 H967 0.985 . S
C962 C956 1.379 . S
C962 C959 1.363 . S
C962 N960 1.356 . S
C963 C957 1.363 . S
C963 C958 1.379 . S
C963 N961 1.356 . S
N964 C956 1.356 . S
N964 H970 0.984 . S
N964 H971 0.984 . S
N965 C958 1.356 . S
N965 H968 0.984 . S
N965 H969 0.985 . S
H966 N961 0.984 . S
H967 N961 0.985 . S
H968 N965 0.984 . S
H969 N965 0.985 . S
H970 N964 0.984 . S
H971 N964 0.984 . S
H972 N960 0.984 . S
H973 N960 0.985 . S
C974 C975 1.363 . S
C974 C980 1.379 . S
C974 N982 1.356 . S
C975 C974 1.363 . S
C975 C981 1.363 . S
C976 C977 1.363 . S
C976 C981 1.379 . S
C976 N983 1.356 . S
C977 C976 1.363 . S
C977 C980 1.363 . S
N978 C980 1.356 . S
N978 H990 0.984 . S
N978 H991 0.985 . S
N979 C981 1.356 . S
N979 H984 0.984 . S
N979 H985 0.985 . S
C980 C974 1.379 . S
C980 C977 1.363 . S
C980 N978 1.356 . S
C981 C975 1.363 . S
C981 C976 1.379 . S
C981 N979 1.356 . S
N982 C974 1.356 . S
N982 H988 0.984 . S
N982 H989 0.984 . S
N983 C976 1.356 . S
N983 H986 0.984 . S
N983 H987 0.985 . S
H984 N979 0.984 . S
H985 N979 0.985 . S
H986 N983 0.984 . S
H987 N983 0.985 . S
H988 N982 0.984 . S
H989 N982 0.984 . S
H990 N978 0.984 . S
H991 N978 0.985 . S
C992 C993 1.363 . S
C992 C998 1.379 . S
C992 N1000 1.356 . S
C993 C992 1.363 . S
C993 C999 1.363 . S
C994 C995 1.363 . S
C994 C999 1.379 . S
C994 N1001 1.356 . S
C995 C994 1.363 . S
C995 C998 1.363 . S
N996 C998 1.356 . S
N996 H1008 0.984 . S
N996 H1009 0.985 . S
N997 C999 1.356 . S
N997 H1002 0.984 . S
N997 H1003 0.985 . S
C998 C992 1.379 . S
C998 C995 1.363 . S
C998 N996 1.356 . S
C999 C993 1.363 . S
C999 C994 1.379 . S
C999 N997 1.356 . S
N1000 C992 1.356 . S
N1000 H1006 0.984 . S
N1000 H1007 0.984 . S
N1001 C994 1.356 . S
N1001 H1004 0.984 . S
N1001 H1005 0.985 . S
H1002 N997 0.984 . S
H1003 N997 0.985 . S
H1004 N1001 0.984 . S
H1005 N1001 0.985 . S
H1006 N1000 0.984 . S
H1007 N1000 0.984 . S
H1008 N996 0.984 . S
H1009 N996 0.985 . S
C1010 C1011 1.363 . S
C1010 C1016 1.379 . S
C1010 N1018 1.356 . S
C1011 C1010 1.363 . S
C1011 C1017 1.363 . S
C1012 C1013 1.363 . S
C1012 C1017 1.379 . S
C1012 N1019 1.356 . S
C1013 C1012 1.363 . S
C1013 C1016 1.363 . S
N1014 C1016 1.356 . S
N1014 H1026 0.984 . S
N1014 H1027 0.985 . S
N1015 C1017 1.356 . S
N1015 H1020 0.984 . S
N1015 H1021 0.985 . S
C1016 C1010 1.379 . S
C1016 C1013 1.363 . S
C1016 N1014 1.356 . S
C1017 C1011 1.363 . S
C1017 C1012 1.379 . S
C1017 N1015 1.356 . S
N1018 C1010 1.356 . S
N1018 H1024 0.984 . S
N1018 H1025 0.984 . S
N1019 C1012 1.356 . S
N1019 H1022 0.984 . S
N1019 H1023 0.985 . S
H1020 N1015 0.984 . S
H1021 N1015 0.985 . S
H1022 N1019 0.984 . S
H1023 N1019 0.985 . S
H1024 N1018 0.984 . S
H1025 N1018 0.984 . S
H1026 N1014 0.984 . S
H1027 N1014 0.985 . S
C1028 C1029 1.363 . S
C1028 C1034 1.379 . S
C1028 N1036 1.356 . S
C1029 C1028 1.363 . S
C1029 C1035 1.363 . S
C1030 C1031 1.363 . S
C1030 C1035 1.379 . S
C1030 N1037 1.356 . S
C1031 C1030 1.363 . S
C1031 C1034 1.363 . S
N1032 C1034 1.356 . S
N1032 H1044 0.984 . S
N1032 H1045 0.985 . S
N1033 C1035 1.356 . S
N1033 H1038 0.984 . S
N1033 H1039 0.985 . S
C1034 C1028 1.379 . S
C1034 C1031 1.363 . S
C1034 N1032 1.356 . S
C1035 C1029 1.363 . S
C1035 C1030 1.379 . S
C1035 N1033 1.356 . S
N1036 C1028 1.356 . S
N1036 H1042 0.984 . S
N1036 H1043 0.984 . S
N1037 C1030 1.356 . S
N1037 H1040 0.984 . S
N1037 H1041 0.985 . S
H1038 N1033 0.984 . S
H1039 N1033 0.985 . S
H1040 N1037 0.984 . S
H1041 N1037 0.985 . S
H1042 N1036 0.984 . S
H1043 N1036 0.984 . S
H1044 N1032 0.984 . S
H1045 N1032 0.985 . S
C1046 C1047 1.363 . S
C1046 C1052 1.379 . S
C1046 N1054 1.356 . S
C1047 C1046 1.363 . S
C1047 C1053 1.363 . S
C1048 C1049 1.363 . S
C1048 C1053 1.379 . S
C1048 N1055 1.356 . S
C1049 C1048 1.363 . S
C1049 C1052 1.363 . S
N1050 C1052 1.356 . S
N1050 H1062 0.984 . S
N1050 H1063 0.985 . S
N1051 C1053 1.356 . S
N1051 H1056 0.984 . S
N1051 H1057 0.985 . S
C1052 C1046 1.379 . S
C1052 C1049 1.363 . S
C1052 N1050 1.356 . S
C1053 C1047 1.363 . S
C1053 C1048 1.379 . S
C1053 N1051 1.356 . S
N1054 C1046 1.356 . S
N1054 H1060 0.984 . S
N1054 H1061 0.984 . S
N1055 C1048 1.356 . S
N1055 H1058 0.984 . S
N1055 H1059 0.985 . S
H1056 N1051 0.984 . S
H1057 N1051 0.985 . S
H1058 N1055 0.984 . S
H1059 N1055 0.985 . S
H1060 N1054 0.984 . S
H1061 N1054 0.984 . S
H1062 N1050 0.984 . S
H1063 N1050 0.985 . S
C1064 C1065 1.363 . S
C1064 C1070 1.379 . S
C1064 N1072 1.356 . S
C1065 C1064 1.363 . S
C1065 C1071 1.363 . S
C1066 C1067 1.363 . S
C1066 C1071 1.379 . S
C1066 N1073 1.356 . S
C1067 C1066 1.363 . S
C1067 C1070 1.363 . S
N1068 C1070 1.356 . S
N1068 H1080 0.984 . S
N1068 H1081 0.985 . S
N1069 C1071 1.356 . S
N1069 H1074 0.984 . S
N1069 H1075 0.985 . S
C1070 C1064 1.379 . S
C1070 C1067 1.363 . S
C1070 N1068 1.356 . S
C1071 C1065 1.363 . S
C1071 C1066 1.379 . S
C1071 N1069 1.356 . S
N1072 C1064 1.356 . S
N1072 H1078 0.984 . S
N1072 H1079 0.984 . S
N1073 C1066 1.356 . S
N1073 H1076 0.984 . S
N1073 H1077 0.985 . S
H1074 N1069 0.984 . S
H1075 N1069 0.985 . S
H1076 N1073 0.984 . S
H1077 N1073 0.985 . S
H1078 N1072 0.984 . S
H1079 N1072 0.984 . S
H1080 N1068 0.984 . S
H1081 N1068 0.985 . S
C1082 C1083 1.363 . S
C1082 C1088 1.379 . S
C1082 N1090 1.356 . S
C1083 C1082 1.363 . S
C1083 C1089 1.363 . S
C1084 C1085 1.363 . S
C1084 C1089 1.379 . S
C1084 N1091 1.356 . S
C1085 C1084 1.363 . S
C1085 C1088 1.363 . S
N1086 C1088 1.356 . S
N1086 H1098 0.984 . S
N1086 H1099 0.985 . S
N1087 C1089 1.356 . S
N1087 H1092 0.984 . S
N1087 H1093 0.985 . S
C1088 C1082 1.379 . S
C1088 C1085 1.363 . S
C1088 N1086 1.356 . S
C1089 C1083 1.363 . S
C1089 C1084 1.379 . S
C1089 N1087 1.356 . S
N1090 C1082 1.356 . S
N1090 H1096 0.984 . S
N1090 H1097 0.984 . S
N1091 C1084 1.356 . S
N1091 H1094 0.984 . S
N1091 H1095 0.985 . S
H1092 N1087 0.984 . S
H1093 N1087 0.985 . S
H1094 N1091 0.984 . S
H1095 N1091 0.985 . S
H1096 N1090 0.984 . S
H1097 N1090 0.984 . S
H1098 N1086 0.984 . S
H1099 N1086 0.985 . S
C1100 C1101 1.363 . S
C1100 C1106 1.379 . S
C1100 N1108 1.356 . S
C1101 C1100 1.363 . S
C1101 C1107 1.363 . S
C1102 C1103 1.363 . S
C1102 C1107 1.379 . S
C1102 N1109 1.356 . S
C1103 C1102 1.363 . S
C1103 C1106 1.363 . S
N1104 C1106 1.356 . S
N1104 H1116 0.984 . S
N1104 H1117 0.985 . S
N1105 C1107 1.356 . S
N1105 H1110 0.984 . S
N1105 H1111 0.985 . S
C1106 C1100 1.379 . S
C1106 C1103 1.363 . S
C1106 N1104 1.356 . S
C1107 C1101 1.363 . S
C1107 C1102 1.379 . S
C1107 N1105 1.356 . S
N1108 C1100 1.356 . S
N1108 H1114 0.984 . S
N1108 H1115 0.984 . S
N1109 C1102 1.356 . S
N1109 H1112 0.984 . S
N1109 H1113 0.985 . S
H1110 N1105 0.984 . S
H1111 N1105 0.985 . S
H1112 N1109 0.984 . S
H1113 N1109 0.985 . S
H1114 N1108 0.984 . S
H1115 N1108 0.984 . S
H1116 N1104 0.984 . S
H1117 N1104 0.985 . S
C1118 C1119 1.363 . S
C1118 C1124 1.379 . S
C1118 N1126 1.356 . S
C1119 C1118 1.363 . S
C1119 C1125 1.363 . S
C1120 C1121 1.363 . S
C1120 C1125 1.379 . S
C1120 N1127 1.356 . S
C1121 C1120 1.363 . S
C1121 C1124 1.363 . S
N1122 C1124 1.356 . S
N1122 H1134 0.984 . S
N1122 H1135 0.985 . S
N1123 C1125 1.356 . S
N1123 H1128 0.984 . S
N1123 H1129 0.985 . S
C1124 C1118 1.379 . S
C1124 C1121 1.363 . S
C1124 N1122 1.356 . S
C1125 C1119 1.363 . S
C1125 C1120 1.379 . S
C1125 N1123 1.356 . S
N1126 C1118 1.356 . S
N1126 H1132 0.984 . S
N1126 H1133 0.984 . S
N1127 C1120 1.356 . S
N1127 H1130 0.984 . S
N1127 H1131 0.985 . S
H1128 N1123 0.984 . S
H1129 N1123 0.985 . S
H1130 N1127 0.984 . S
H1131 N1127 0.985 . S
H1132 N1126 0.984 . S
H1133 N1126 0.984 . S
H1134 N1122 0.984 . S
H1135 N1122 0.985 . S
C1136 C1137 1.363 . S
C1136 C1142 1.379 . S
C1136 N1144 1.356 . S
C1137 C1136 1.363 . S
C1137 C1143 1.363 . S
C1138 C1139 1.363 . S
C1138 C1143 1.379 . S
C1138 N1145 1.356 . S
C1139 C1138 1.363 . S
C1139 C1142 1.363 . S
N1140 C1142 1.356 . S
N1140 H1152 0.984 . S
N1140 H1153 0.985 . S
N1141 C1143 1.356 . S
N1141 H1146 0.984 . S
N1141 H1147 0.985 . S
C1142 C1136 1.379 . S
C1142 C1139 1.363 . S
C1142 N1140 1.356 . S
C1143 C1137 1.363 . S
C1143 C1138 1.379 . S
C1143 N1141 1.356 . S
N1144 C1136 1.356 . S
N1144 H1150 0.984 . S
N1144 H1151 0.984 . S
N1145 C1138 1.356 . S
N1145 H1148 0.984 . S
N1145 H1149 0.985 . S
H1146 N1141 0.984 . S
H1147 N1141 0.985 . S
H1148 N1145 0.984 . S
H1149 N1145 0.985 . S
H1150 N1144 0.984 . S
H1151 N1144 0.984 . S
H1152 N1140 0.984 . S
H1153 N1140 0.985 . S
C1154 C1155 1.363 . S
C1154 C1160 1.379 . S
C1154 N1162 1.356 . S
C1155 C1154 1.363 . S
C1155 C1161 1.363 . S
C1156 C1157 1.363 . S
C1156 C1161 1.379 . S
C1156 N1163 1.356 . S
C1157 C1156 1.363 . S
C1157 C1160 1.363 . S
N1158 C1160 1.356 . S
N1158 H1170 0.984 . S
N1158 H1171 0.985 . S
N1159 C1161 1.356 . S
N1159 H1164 0.984 . S
N1159 H1165 0.985 . S
C1160 C1154 1.379 . S
C1160 C1157 1.363 . S
C1160 N1158 1.356 . S
C1161 C1155 1.363 . S
C1161 C1156 1.379 . S
C1161 N1159 1.356 . S
N1162 C1154 1.356 . S
N1162 H1168 0.984 . S
N1162 H1169 0.984 . S
N1163 C1156 1.356 . S
N1163 H1166 0.984 . S
N1163 H1167 0.985 . S
H1164 N1159 0.984 . S
H1165 N1159 0.985 . S
H1166 N1163 0.984 . S
H1167 N1163 0.985 . S
H1168 N1162 0.984 . S
H1169 N1162 0.984 . S
H1170 N1158 0.984 . S
H1171 N1158 0.985 . S
C1172 C1173 1.363 . S
C1172 C1178 1.379 . S
C1172 N1180 1.356 . S
C1173 C1172 1.363 . S
C1173 C1179 1.363 . S
C1174 C1175 1.363 . S
C1174 C1179 1.379 . S
C1174 N1181 1.356 . S
C1175 C1174 1.363 . S
C1175 C1178 1.363 . S
N1176 C1178 1.356 . S
N1176 H1188 0.984 . S
N1176 H1189 0.985 . S
N1177 C1179 1.356 . S
N1177 H1182 0.984 . S
N1177 H1183 0.985 . S
C1178 C1172 1.379 . S
C1178 C1175 1.363 . S
C1178 N1176 1.356 . S
C1179 C1173 1.363 . S
C1179 C1174 1.379 . S
C1179 N1177 1.356 . S
N1180 C1172 1.356 . S
N1180 H1186 0.984 . S
N1180 H1187 0.984 . S
N1181 C1174 1.356 . S
N1181 H1184 0.984 . S
N1181 H1185 0.985 . S
H1182 N1177 0.984 . S
H1183 N1177 0.985 . S
H1184 N1181 0.984 . S
H1185 N1181 0.985 . S
H1186 N1180 0.984 . S
H1187 N1180 0.984 . S
H1188 N1176 0.984 . S
H1189 N1176 0.985 . S
C1190 C1191 1.363 . S
C1190 C1196 1.379 . S
C1190 N1198 1.356 . S
C1191 C1190 1.363 . S
C1191 C1197 1.363 . S
C1192 C1193 1.363 . S
C1192 C1197 1.379 . S
C1192 N1199 1.356 . S
C1193 C1192 1.363 . S
C1193 C1196 1.363 . S
N1194 C1196 1.356 . S
N1194 H1206 0.984 . S
N1194 H1207 0.985 . S
N1195 C1197 1.356 . S
N1195 H1200 0.984 . S
N1195 H1201 0.985 . S
C1196 C1190 1.379 . S
C1196 C1193 1.363 . S
C1196 N1194 1.356 . S
C1197 C1191 1.363 . S
C1197 C1192 1.379 . S
C1197 N1195 1.356 . S
N1198 C1190 1.356 . S
N1198 H1204 0.984 . S
N1198 H1205 0.984 . S
N1199 C1192 1.356 . S
N1199 H1202 0.984 . S
N1199 H1203 0.985 . S
H1200 N1195 0.984 . S
H1201 N1195 0.985 . S
H1202 N1199 0.984 . S
H1203 N1199 0.985 . S
H1204 N1198 0.984 . S
H1205 N1198 0.984 . S
H1206 N1194 0.984 . S
H1207 N1194 0.985 . S
C1208 C1209 1.363 . S
C1208 C1214 1.379 . S
C1208 N1216 1.356 . S
C1209 C1208 1.363 . S
C1209 C1215 1.363 . S
C1210 C1211 1.363 . S
C1210 C1215 1.379 . S
C1210 N1217 1.356 . S
C1211 C1210 1.363 . S
C1211 C1214 1.363 . S
N1212 C1214 1.356 . S
N1212 H1224 0.984 . S
N1212 H1225 0.985 . S
N1213 C1215 1.356 . S
N1213 H1218 0.984 . S
N1213 H1219 0.985 . S
C1214 C1208 1.379 . S
C1214 C1211 1.363 . S
C1214 N1212 1.356 . S
C1215 C1209 1.363 . S
C1215 C1210 1.379 . S
C1215 N1213 1.356 . S
N1216 C1208 1.356 . S
N1216 H1222 0.984 . S
N1216 H1223 0.984 . S
N1217 C1210 1.356 . S
N1217 H1220 0.984 . S
N1217 H1221 0.985 . S
H1218 N1213 0.984 . S
H1219 N1213 0.985 . S
H1220 N1217 0.984 . S
H1221 N1217 0.985 . S
H1222 N1216 0.984 . S
H1223 N1216 0.984 . S
H1224 N1212 0.984 . S
H1225 N1212 0.985 . S
C1226 C1227 1.363 . S
C1226 C1232 1.379 . S
C1226 N1234 1.356 . S
C1227 C1226 1.363 . S
C1227 C1233 1.363 . S
C1228 C1229 1.363 . S
C1228 C1233 1.379 . S
C1228 N1235 1.356 . S
C1229 C1228 1.363 . S
C1229 C1232 1.363 . S
N1230 C1232 1.356 . S
N1230 H1242 0.984 . S
N1230 H1243 0.985 . S
N1231 C1233 1.356 . S
N1231 H1236 0.984 . S
N1231 H1237 0.985 . S
C1232 C1226 1.379 . S
C1232 C1229 1.363 . S
C1232 N1230 1.356 . S
C1233 C1227 1.363 . S
C1233 C1228 1.379 . S
C1233 N1231 1.356 . S
N1234 C1226 1.356 . S
N1234 H1240 0.984 . S
N1234 H1241 0.984 . S
N1235 C1228 1.356 . S
N1235 H1238 0.984 . S
N1235 H1239 0.985 . S
H1236 N1231 0.984 . S
H1237 N1231 0.985 . S
H1238 N1235 0.984 . S
H1239 N1235 0.985 . S
H1240 N1234 0.984 . S
H1241 N1234 0.984 . S
H1242 N1230 0.984 . S
H1243 N1230 0.985 . S
C1244 C1245 1.363 . S
C1244 C1250 1.379 . S
C1244 N1252 1.356 . S
C1245 C1244 1.363 . S
C1245 C1251 1.363 . S
C1246 C1247 1.363 . S
C1246 C1251 1.379 . S
C1246 N1253 1.356 . S
C1247 C1246 1.363 . S
C1247 C1250 1.363 . S
N1248 C1250 1.356 . S
N1248 H1260 0.984 . S
N1248 H1261 0.985 . S
N1249 C1251 1.356 . S
N1249 H1254 0.984 . S
N1249 H1255 0.985 . S
C1250 C1244 1.379 . S
C1250 C1247 1.363 . S
C1250 N1248 1.356 . S
C1251 C1245 1.363 . S
C1251 C1246 1.379 . S
C1251 N1249 1.356 . S
N1252 C1244 1.356 . S
N1252 H1258 0.984 . S
N1252 H1259 0.984 . S
N1253 C1246 1.356 . S
N1253 H1256 0.984 . S
N1253 H1257 0.985 . S
H1254 N1249 0.984 . S
H1255 N1249 0.985 . S
H1256 N1253 0.984 . S
H1257 N1253 0.985 . S
H1258 N1252 0.984 . S
H1259 N1252 0.984 . S
H1260 N1248 0.984 . S
H1261 N1248 0.985 . S
C1262 C1263 1.363 . S
C1262 C1268 1.379 . S
C1262 N1270 1.356 . S
C1263 C1262 1.363 . S
C1263 C1269 1.363 . S
C1264 C1265 1.363 . S
C1264 C1269 1.379 . S
C1264 N1271 1.356 . S
C1265 C1264 1.363 . S
C1265 C1268 1.363 . S
N1266 C1268 1.356 . S
N1266 H1278 0.984 . S
N1266 H1279 0.985 . S
N1267 C1269 1.356 . S
N1267 H1272 0.984 . S
N1267 H1273 0.985 . S
C1268 C1262 1.379 . S
C1268 C1265 1.363 . S
C1268 N1266 1.356 . S
C1269 C1263 1.363 . S
C1269 C1264 1.379 . S
C1269 N1267 1.356 . S
N1270 C1262 1.356 . S
N1270 H1276 0.984 . S
N1270 H1277 0.984 . S
N1271 C1264 1.356 . S
N1271 H1274 0.984 . S
N1271 H1275 0.985 . S
H1272 N1267 0.984 . S
H1273 N1267 0.985 . S
H1274 N1271 0.984 . S
H1275 N1271 0.985 . S
H1276 N1270 0.984 . S
H1277 N1270 0.984 . S
H1278 N1266 0.984 . S
H1279 N1266 0.985 . S
C1280 C1281 1.363 . S
C1280 C1286 1.379 . S
C1280 N1288 1.356 . S
C1281 C1280 1.363 . S
C1281 C1287 1.363 . S
C1282 C1283 1.363 . S
C1282 C1287 1.379 . S
C1282 N1289 1.356 . S
C1283 C1282 1.363 . S
C1283 C1286 1.363 . S
N1284 C1286 1.356 . S
N1284 H1296 0.984 . S
N1284 H1297 0.985 . S
N1285 C1287 1.356 . S
N1285 H1290 0.984 . S
N1285 H1291 0.985 . S
C1286 C1280 1.379 . S
C1286 C1283 1.363 . S
C1286 N1284 1.356 . S
C1287 C1281 1.363 . S
C1287 C1282 1.379 . S
C1287 N1285 1.356 . S
N1288 C1280 1.356 . S
N1288 H1294 0.984 . S
N1288 H1295 0.984 . S
N1289 C1282 1.356 . S
N1289 H1292 0.984 . S
N1289 H1293 0.985 . S
H1290 N1285 0.984 . S
H1291 N1285 0.985 . S
H1292 N1289 0.984 . S
H1293 N1289 0.985 . S
H1294 N1288 0.984 . S
H1295 N1288 0.984 . S
H1296 N1284 0.984 . S
H1297 N1284 0.985 . S
C1298 C1299 1.363 . S
C1298 C1304 1.379 . S
C1298 N1306 1.356 . S
C1299 C1298 1.363 . S
C1299 C1305 1.363 . S
C1300 C1301 1.363 . S
C1300 C1305 1.379 . S
C1300 N1307 1.356 . S
C1301 C1300 1.363 . S
C1301 C1304 1.363 . S
N1302 C1304 1.356 . S
N1302 H1314 0.984 . S
N1302 H1315 0.985 . S
N1303 C1305 1.356 . S
N1303 H1308 0.984 . S
N1303 H1309 0.985 . S
C1304 C1298 1.379 . S
C1304 C1301 1.363 . S
C1304 N1302 1.356 . S
C1305 C1299 1.363 . S
C1305 C1300 1.379 . S
C1305 N1303 1.356 . S
N1306 C1298 1.356 . S
N1306 H1312 0.984 . S
N1306 H1313 0.984 . S
N1307 C1300 1.356 . S
N1307 H1310 0.984 . S
N1307 H1311 0.985 . S
H1308 N1303 0.984 . S
H1309 N1303 0.985 . S
H1310 N1307 0.984 . S
H1311 N1307 0.985 . S
H1312 N1306 0.984 . S
H1313 N1306 0.984 . S
H1314 N1302 0.984 . S
H1315 N1302 0.985 . S
C1316 C1317 1.363 . S
C1316 C1322 1.379 . S
C1316 N1324 1.356 . S
C1317 C1316 1.363 . S
C1317 C1323 1.363 . S
C1318 C1319 1.363 . S
C1318 C1323 1.379 . S
C1318 N1325 1.356 . S
C1319 C1318 1.363 . S
C1319 C1322 1.363 . S
N1320 C1322 1.356 . S
N1320 H1332 0.984 . S
N1320 H1333 0.985 . S
N1321 C1323 1.356 . S
N1321 H1326 0.984 . S
N1321 H1327 0.985 . S
C1322 C1316 1.379 . S
C1322 C1319 1.363 . S
C1322 N1320 1.356 . S
C1323 C1317 1.363 . S
C1323 C1318 1.379 . S
C1323 N1321 1.356 . S
N1324 C1316 1.356 . S
N1324 H1330 0.984 . S
N1324 H1331 0.984 . S
N1325 C1318 1.356 . S
N1325 H1328 0.984 . S
N1325 H1329 0.985 . S
H1326 N1321 0.984 . S
H1327 N1321 0.985 . S
H1328 N1325 0.984 . S
H1329 N1325 0.985 . S
H1330 N1324 0.984 . S
H1331 N1324 0.984 . S
H1332 N1320 0.984 . S
H1333 N1320 0.985 . S
C1334 C1335 1.363 . S
C1334 C1340 1.379 . S
C1334 N1342 1.356 . S
C1335 C1334 1.363 . S
C1335 C1341 1.363 . S
C1336 C1337 1.363 . S
C1336 C1341 1.379 . S
C1336 N1343 1.356 . S
C1337 C1336 1.363 . S
C1337 C1340 1.363 . S
N1338 C1340 1.356 . S
N1338 H1350 0.984 . S
N1338 H1351 0.985 . S
N1339 C1341 1.356 . S
N1339 H1344 0.984 . S
N1339 H1345 0.985 . S
C1340 C1334 1.379 . S
C1340 C1337 1.363 . S
C1340 N1338 1.356 . S
C1341 C1335 1.363 . S
C1341 C1336 1.379 . S
C1341 N1339 1.356 . S
N1342 C1334 1.356 . S
N1342 H1348 0.984 . S
N1342 H1349 0.984 . S
N1343 C1336 1.356 . S
N1343 H1346 0.984 . S
N1343 H1347 0.985 . S
H1344 N1339 0.984 . S
H1345 N1339 0.985 . S
H1346 N1343 0.984 . S
H1347 N1343 0.985 . S
H1348 N1342 0.984 . S
H1349 N1342 0.984 . S
H1350 N1338 0.984 . S
H1351 N1338 0.985 . S
C1352 C1353 1.363 . S
C1352 C1358 1.379 . S
C1352 N1360 1.356 . S
C1353 C1352 1.363 . S
C1353 C1359 1.363 . S
C1354 C1355 1.363 . S
C1354 C1359 1.379 . S
C1354 N1361 1.356 . S
C1355 C1354 1.363 . S
C1355 C1358 1.363 . S
N1356 C1358 1.356 . S
N1356 H1368 0.984 . S
N1356 H1369 0.985 . S
N1357 C1359 1.356 . S
N1357 H1362 0.984 . S
N1357 H1363 0.985 . S
C1358 C1352 1.379 . S
C1358 C1355 1.363 . S
C1358 N1356 1.356 . S
C1359 C1353 1.363 . S
C1359 C1354 1.379 . S
C1359 N1357 1.356 . S
N1360 C1352 1.356 . S
N1360 H1366 0.984 . S
N1360 H1367 0.984 . S
N1361 C1354 1.356 . S
N1361 H1364 0.984 . S
N1361 H1365 0.985 . S
H1362 N1357 0.984 . S
H1363 N1357 0.985 . S
H1364 N1361 0.984 . S
H1365 N1361 0.985 . S
H1366 N1360 0.984 . S
H1367 N1360 0.984 . S
H1368 N1356 0.984 . S
H1369 N1356 0.985 . S
C509 C331 1.907 . S
C507 C2 1.922 . S
C527 C321 1.440 . S
C525 C48 1.430 . S
C545 C322 1.282 . S
C543 C97 1.292 . S
C561 C149 0.767 . S
C563 C344 0.830 . S
C579 C189 1.430 . S
C581 C347 1.440 . S
C599 C330 1.282 . S
C597 C202 1.291 . S
C615 C248 0.768 . S
C617 C320 0.830 . S
C633 C297 1.922 . S
C635 C338 1.907 . S
C653 C351 2.640 . S
C651 C31 2.740 . S
C669 C52 1.773 . S
C671 C400 1.731 . S
C689 C378 1.516 . S
C687 C88 1.518 . S
C707 C392 1.221 . S
C705 C122 1.211 . S
C723 C162 1.275 . S
C725 C353 1.271 . S
C743 C406 2.625 . S
C741 C231 2.747 . S
C759 C252 1.793 . S
C761 C362 1.787 . S
C777 C288 1.437 . S
C779 C383 1.446 . S
C795 C29 1.437 . S
C797 C409 1.447 . S
C813 C191 1.773 . S
C815 C393 1.731 . S
C833 C352 1.516 . S
C831 C229 1.519 . S
C851 C384 1.221 . S
C849 C257 1.211 . S
C867 C292 2.740 . S
C869 C375 2.640 . S
C885 C92 2.747 . S
C887 C382 2.625 . S
C905 C369 1.787 . S
C903 C151 1.793 . S
C921 C57 1.274 . S
C923 C361 1.270 . S
C939 C282 1.922 . S
C941 C424 1.907 . S
C957 C168 1.430 . S
C959 C414 1.440 . S
C977 C415 1.282 . S
C975 C217 1.291 . S
C995 C437 0.830 . S
C993 C269 0.768 . S
C1011 C69 1.430 . S
C1013 C440 1.440 . S
C1031 C423 1.283 . S
C1029 C82 1.292 . S
C1047 C128 0.767 . S
C1049 C413 0.830 . S
C1065 C17 1.922 . S
C1067 C431 1.907 . S
C1083 C311 2.740 . S
C1085 C444 2.640 . S
C1103 C493 1.731 . S
C1101 C172 1.773 . S
C1119 C208 1.518 . S
C1121 C471 1.516 . S
C1137 C242 1.211 . S
C1139 C485 1.221 . S
C1157 C446 1.270 . S
C1155 C42 1.275 . S
C1173 C111 2.747 . S
C1175 C499 2.625 . S
C1193 C455 1.787 . S
C1191 C132 1.793 . S
C1211 C476 1.446 . S
C1209 C8 1.437 . S
C1229 C502 1.447 . S
C1227 C309 1.437 . S
C1245 C71 1.773 . S
C1247 C486 1.731 . S
C1263 C109 1.518 . S
C1265 C445 1.516 . S
C1283 C477 1.221 . S
C1281 C137 1.211 . S
C1299 C12 2.740 . S
C1301 C468 2.640 . S
C1317 C212 2.747 . S
C1319 C475 2.625 . S
C1337 C462 1.787 . S
C1335 C271 1.793 . S
C1355 C454 1.271 . S
C1353 C177 1.275 . S
