# Generated by pormake.
# Topology ocu, (6,8)-cn, num edge types: 1
# Building blocks:
#     Node 0, Type 0, BuildingBlock: KUMBUR_clean_sbu_0, # of connection points: 6
#     Node 1, Type 0, BuildingBlock: KUMBUR_clean_sbu_0, # of connection points: 6
#     Node 2, Type 0, BuildingBlock: KUMBUR_clean_sbu_0, # of connection points: 6
#     Node 3, Type 0, BuildingBlock: KUMBUR_clean_sbu_0, # of connection points: 6
#     Node 4, Type 0, BuildingBlock: KUMBUR_clean_sbu_0, # of connection points: 6
#     Node 5, Type 0, BuildingBlock: KUMBUR_clean_sbu_0, # of connection points: 6
#     Node 6, Type 0, BuildingBlock: KUMBUR_clean_sbu_0, # of connection points: 6
#     Node 7, Type 0, BuildingBlock: KUMBUR_clean_sbu_0, # of connection points: 6
#     Node 8, Type 1, BuildingBlock: GIZVER_clean_sbu_0, # of connection points: 8
#     Node 9, Type 1, BuildingBlock: GIZVER_clean_sbu_0, # of connection points: 8
#     Node 10, Type 1, BuildingBlock: GIZVER_clean_sbu_0, # of connection points: 8
#     Node 11, Type 1, BuildingBlock: GIZVER_clean_sbu_0, # of connection points: 8
#     Node 12, Type 1, BuildingBlock: GIZVER_clean_sbu_0, # of connection points: 8
#     Node 13, Type 1, BuildingBlock: GIZVER_clean_sbu_0, # of connection points: 8
#     Edge 14, Type (0, 1), BuildingBlock: ZUJKAS_clean_linker_0, # of connection points: 2
#     Edge 15, Type (0, 1), BuildingBlock: ZUJKAS_clean_linker_0, # of connection points: 2
#     Edge 16, Type (0, 1), BuildingBlock: ZUJKAS_clean_linker_0, # of connection points: 2
#     Edge 17, Type (0, 1), BuildingBlock: ZUJKAS_clean_linker_0, # of connection points: 2
#     Edge 18, Type (0, 1), BuildingBlock: ZUJKAS_clean_linker_0, # of connection points: 2
#     Edge 19, Type (0, 1), BuildingBlock: ZUJKAS_clean_linker_0, # of connection points: 2
#     Edge 20, Type (0, 1), BuildingBlock: ZUJKAS_clean_linker_0, # of connection points: 2
#     Edge 21, Type (0, 1), BuildingBlock: ZUJKAS_clean_linker_0, # of connection points: 2
#     Edge 22, Type (0, 1), BuildingBlock: ZUJKAS_clean_linker_0, # of connection points: 2
#     Edge 23, Type (0, 1), BuildingBlock: ZUJKAS_clean_linker_0, # of connection points: 2
#     Edge 24, Type (0, 1), BuildingBlock: ZUJKAS_clean_linker_0, # of connection points: 2
#     Edge 25, Type (0, 1), BuildingBlock: ZUJKAS_clean_linker_0, # of connection points: 2
#     Edge 26, Type (0, 1), BuildingBlock: ZUJKAS_clean_linker_0, # of connection points: 2
#     Edge 27, Type (0, 1), BuildingBlock: ZUJKAS_clean_linker_0, # of connection points: 2
#     Edge 28, Type (0, 1), BuildingBlock: ZUJKAS_clean_linker_0, # of connection points: 2
#     Edge 29, Type (0, 1), BuildingBlock: ZUJKAS_clean_linker_0, # of connection points: 2
#     Edge 30, Type (0, 1), BuildingBlock: ZUJKAS_clean_linker_0, # of connection points: 2
#     Edge 31, Type (0, 1), BuildingBlock: ZUJKAS_clean_linker_0, # of connection points: 2
#     Edge 32, Type (0, 1), BuildingBlock: ZUJKAS_clean_linker_0, # of connection points: 2
#     Edge 33, Type (0, 1), BuildingBlock: ZUJKAS_clean_linker_0, # of connection points: 2
#     Edge 34, Type (0, 1), BuildingBlock: ZUJKAS_clean_linker_0, # of connection points: 2
#     Edge 35, Type (0, 1), BuildingBlock: ZUJKAS_clean_linker_0, # of connection points: 2
#     Edge 36, Type (0, 1), BuildingBlock: ZUJKAS_clean_linker_0, # of connection points: 2
#     Edge 37, Type (0, 1), BuildingBlock: ZUJKAS_clean_linker_0, # of connection points: 2
#     Edge 38, Type (0, 1), BuildingBlock: ZUJKAS_clean_linker_0, # of connection points: 2
#     Edge 39, Type (0, 1), BuildingBlock: ZUJKAS_clean_linker_0, # of connection points: 2
#     Edge 40, Type (0, 1), BuildingBlock: ZUJKAS_clean_linker_0, # of connection points: 2
#     Edge 41, Type (0, 1), BuildingBlock: ZUJKAS_clean_linker_0, # of connection points: 2
#     Edge 42, Type (0, 1), BuildingBlock: ZUJKAS_clean_linker_0, # of connection points: 2
#     Edge 43, Type (0, 1), BuildingBlock: ZUJKAS_clean_linker_0, # of connection points: 2
#     Edge 44, Type (0, 1), BuildingBlock: ZUJKAS_clean_linker_0, # of connection points: 2
#     Edge 45, Type (0, 1), BuildingBlock: ZUJKAS_clean_linker_0, # of connection points: 2
#     Edge 46, Type (0, 1), BuildingBlock: ZUJKAS_clean_linker_0, # of connection points: 2
#     Edge 47, Type (0, 1), BuildingBlock: ZUJKAS_clean_linker_0, # of connection points: 2
#     Edge 48, Type (0, 1), BuildingBlock: ZUJKAS_clean_linker_0, # of connection points: 2
#     Edge 49, Type (0, 1), BuildingBlock: ZUJKAS_clean_linker_0, # of connection points: 2
#     Edge 50, Type (0, 1), BuildingBlock: ZUJKAS_clean_linker_0, # of connection points: 2
#     Edge 51, Type (0, 1), BuildingBlock: ZUJKAS_clean_linker_0, # of connection points: 2
#     Edge 52, Type (0, 1), BuildingBlock: ZUJKAS_clean_linker_0, # of connection points: 2
#     Edge 53, Type (0, 1), BuildingBlock: ZUJKAS_clean_linker_0, # of connection points: 2
#     Edge 54, Type (0, 1), BuildingBlock: ZUJKAS_clean_linker_0, # of connection points: 2
#     Edge 55, Type (0, 1), BuildingBlock: ZUJKAS_clean_linker_0, # of connection points: 2
#     Edge 56, Type (0, 1), BuildingBlock: ZUJKAS_clean_linker_0, # of connection points: 2
#     Edge 57, Type (0, 1), BuildingBlock: ZUJKAS_clean_linker_0, # of connection points: 2
#     Edge 58, Type (0, 1), BuildingBlock: ZUJKAS_clean_linker_0, # of connection points: 2
#     Edge 59, Type (0, 1), BuildingBlock: ZUJKAS_clean_linker_0, # of connection points: 2
#     Edge 60, Type (0, 1), BuildingBlock: ZUJKAS_clean_linker_0, # of connection points: 2
#     Edge 61, Type (0, 1), BuildingBlock: ZUJKAS_clean_linker_0, # of connection points: 2
# Relax obj value: 0.163
# Max RMSD: 0.304
# Mean RMSD: 0.215
data_MOF--net-ocu--node1-KUMBUR_clean_sbu_0--node2-GIZVER_clean_sbu_0--edge1-ZUJKAS_clean_linker_0
_symmetry_space_group_name_H-M    P1
_symmetry_Int_Tables_number       1
_symmetry_cell_setting            triclinic
loop_
_symmetry_equiv_pos_as_xyz
'x, y, z'
_cell_length_a     53.215357
_cell_length_b     55.375481
_cell_length_c     43.409611
_cell_angle_alpha  79.718633
_cell_angle_beta   99.905766
_cell_angle_gamma 108.32398
loop_
_atom_site_label
_atom_site_type_symbol
_atom_site_fract_x
_atom_site_fract_y
_atom_site_fract_z
_atom_type_partial_charge
Tb0 Tb 0.2743 0.24845 0.21763 0.0
C1 C 0.3377 0.28813 0.33713 0.0
C2 C 0.33637 0.24903 0.37284 0.0
C3 C 0.37435 0.28692 0.37885 0.0
C4 C 0.32511 0.26268 0.34633 0.0
C5 C 0.36199 0.30086 0.35397 0.0
C6 C 0.36149 0.26102 0.38835 0.0
C7 C 0.35744 0.34084 0.32429 0.0
N8 N 0.3245 0.30107 0.31399 0.0
C9 C 0.33313 0.32734 0.3088 0.0
C10 C 0.37223 0.32747 0.34655 0.0
Tb11 Tb 0.2853 0.27751 0.28878 0.0
N12 N 0.30057 0.25211 0.33121 0.0
C13 C 0.28548 0.2283 0.34297 0.0
C14 C 0.32145 0.22426 0.3839 0.0
C15 C 0.29579 0.21397 0.36909 0.0
H16 H 0.32163 0.33778 0.29181 0.0
H17 H 0.28388 0.195 0.37784 0.0
H18 H 0.37063 0.25077 0.40851 0.0
H19 H 0.36464 0.36153 0.31922 0.0
H20 H 0.26558 0.21978 0.33212 0.0
H21 H 0.26864 0.32883 0.12747 0.0
H22 H 0.32914 0.21327 0.40449 0.0
H23 H 0.24172 0.18701 0.21675 0.0
H24 H 0.29006 0.3057 0.17229 0.0
H25 H 0.20014 0.16057 0.18968 0.0
H26 H 0.39318 0.29626 0.39184 0.0
H27 H 0.2231 0.30807 0.10313 0.0
H28 H 0.18419 0.26816 0.09989 0.0
H29 H 0.39085 0.33799 0.3589 0.0
H30 H 0.16532 0.22196 0.11693 0.0
N31 N 0.25669 0.27191 0.1749 0.0
C32 C 0.27022 0.29608 0.16226 0.0
C33 C 0.23237 0.29772 0.12305 0.0
C34 C 0.21942 0.27234 0.13443 0.0
C35 C 0.25811 0.30944 0.13663 0.0
C36 C 0.23236 0.25981 0.16054 0.0
H37 H 0.17152 0.18142 0.14989 0.0
N38 N 0.23618 0.22252 0.1934 0.0
C39 C 0.20584 0.18127 0.18413 0.0
C40 C 0.22168 0.23407 0.17015 0.0
C41 C 0.22942 0.19631 0.19935 0.0
C42 C 0.18967 0.19311 0.16181 0.0
C43 C 0.19786 0.21981 0.15396 0.0
O44 O 0.28911 0.21978 0.20778 0.0
O45 O 0.29563 0.25098 0.26526 0.0
O46 O 0.32262 0.29362 0.26811 0.0
O47 O 0.30863 0.283 0.21685 0.0
O48 O 0.27997 0.21545 0.25146 0.0
O49 O 0.29914 0.25743 0.1817 0.0
O50 O 0.27359 0.30748 0.30058 0.0
O51 O 0.26426 0.27535 0.2411 0.0
O52 O 0.23644 0.23263 0.23713 0.0
O53 O 0.24944 0.24428 0.28802 0.0
O54 O 0.27968 0.31075 0.25552 0.0
O55 O 0.25936 0.26901 0.32342 0.0
C56 C 0.2943 0.22749 0.27415 0.0
C57 C 0.29557 0.22264 0.15463 0.0
C58 C 0.30733 0.1981 0.12024 0.0
C59 C 0.31244 0.20926 0.14847 0.0
C60 C 0.28467 0.20008 0.09892 0.0
C61 C 0.27367 0.22482 0.13239 0.0
C62 C 0.26814 0.21341 0.10493 0.0
C63 C 0.3261 0.29581 0.2382 0.0
C64 C 0.3008 0.23419 0.18421 0.0
C65 C 0.18386 0.23249 0.1294 0.0
C66 C 0.19462 0.25878 0.11968 0.0
C67 C 0.26557 0.29892 0.23253 0.0
C68 C 0.26496 0.30255 0.35335 0.0
C69 C 0.24752 0.31444 0.36137 0.0
C70 C 0.25225 0.3237 0.39085 0.0
C71 C 0.27505 0.32131 0.41161 0.0
C72 C 0.28702 0.29989 0.375 0.0
C73 C 0.29214 0.3094 0.40376 0.0
C74 C 0.23217 0.23132 0.26658 0.0
C75 C 0.25998 0.2928 0.32259 0.0
H76 H 0.32969 0.20801 0.16532 0.0
H77 H 0.27957 0.1912 0.0775 0.0
H78 H 0.26084 0.23541 0.13613 0.0
H79 H 0.25096 0.21496 0.08814 0.0
H80 H 0.23012 0.316 0.34495 0.0
H81 H 0.27986 0.32879 0.434 0.0
H82 H 0.30027 0.29038 0.36983 0.0
H83 H 0.30944 0.30748 0.42011 0.0
Tb84 Tb 0.793 0.2489 0.25358 0.0
C85 C 0.72805 0.31583 0.27534 0.0
C86 C 0.68711 0.28535 0.29044 0.0
C87 C 0.70428 0.32575 0.3122 0.0
C88 C 0.70941 0.29244 0.27374 0.0
C89 C 0.72549 0.33319 0.2939 0.0
C90 C 0.68507 0.3018 0.31048 0.0
C91 C 0.76329 0.3646 0.27233 0.0
N92 N 0.74797 0.32211 0.25707 0.0
C93 C 0.76484 0.34669 0.25423 0.0
C94 C 0.7438 0.35769 0.29267 0.0
Tb95 Tb 0.75111 0.2905 0.23081 0.0
N96 N 0.71204 0.27759 0.25361 0.0
C97 C 0.69138 0.25644 0.24669 0.0
C98 C 0.66702 0.26258 0.28536 0.0
C99 C 0.66889 0.24839 0.2628 0.0
H100 H 0.78006 0.35255 0.2387 0.0
H101 H 0.65304 0.23118 0.25781 0.0
H102 H 0.66827 0.29658 0.32383 0.0
H103 H 0.77718 0.38372 0.2706 0.0
H104 H 0.69213 0.24518 0.22924 0.0
H105 H 0.86166 0.25554 0.36149 0.0
H106 H 0.64957 0.25637 0.29772 0.0
H107 H 0.80525 0.24404 0.1803 0.0
H108 H 0.81767 0.24357 0.3298 0.0
H109 H 0.84361 0.25667 0.15158 0.0
H110 H 0.70209 0.33865 0.32692 0.0
H111 H 0.90234 0.27554 0.33508 0.0
H112 H 0.92324 0.28863 0.28472 0.0
H113 H 0.74258 0.37161 0.30658 0.0
H114 H 0.91822 0.28883 0.22731 0.0
N115 N 0.83297 0.25764 0.28557 0.0
C116 C 0.83518 0.2523 0.31787 0.0
C117 C 0.88302 0.27041 0.321 0.0
C118 C 0.88081 0.27377 0.28803 0.0
C119 C 0.86013 0.25907 0.33599 0.0
C120 C 0.85519 0.26671 0.27077 0.0
H121 H 0.88872 0.27606 0.17776 0.0
N122 N 0.82729 0.25769 0.22329 0.0
C123 C 0.84631 0.25995 0.17594 0.0
C124 C 0.85227 0.26673 0.23853 0.0
C125 C 0.82429 0.25305 0.19265 0.0
C126 C 0.87173 0.27097 0.19075 0.0
C127 C 0.87507 0.27399 0.22259 0.0
O128 O 0.76613 0.21213 0.24946 0.0
O129 O 0.75531 0.25462 0.2568 0.0
O130 O 0.77382 0.30026 0.27636 0.0
O131 O 0.80878 0.28207 0.28026 0.0
O132 O 0.7753 0.24184 0.29751 0.0
O133 O 0.80654 0.21617 0.26867 0.0
O134 O 0.75487 0.31927 0.19142 0.0
O135 O 0.78582 0.28085 0.22183 0.0
O136 O 0.77184 0.24402 0.20603 0.0
O137 O 0.73425 0.25362 0.21239 0.0
O138 O 0.78865 0.31883 0.21975 0.0
O139 O 0.71941 0.28794 0.19363 0.0
C140 C 0.75349 0.24717 0.28582 0.0
C141 C 0.77291 0.18221 0.29283 0.0
C142 C 0.77849 0.16613 0.349 0.0
C143 C 0.78865 0.18237 0.32236 0.0
C144 C 0.75225 0.14972 0.34585 0.0
C145 C 0.74682 0.16547 0.29015 0.0
C146 C 0.73659 0.14939 0.31654 0.0
C147 C 0.79766 0.29788 0.28874 0.0
C148 C 0.7827 0.20037 0.26513 0.0
C149 C 0.90054 0.28286 0.23926 0.0
C150 C 0.90341 0.28274 0.27195 0.0
C151 C 0.80143 0.30333 0.21742 0.0
C152 C 0.73537 0.30232 0.14428 0.0
C153 C 0.71969 0.31047 0.11763 0.0
C154 C 0.72184 0.30564 0.0876 0.0
C155 C 0.73922 0.29204 0.08441 0.0
C156 C 0.75363 0.28978 0.14055 0.0
C157 C 0.75521 0.28427 0.11089 0.0
C158 C 0.74627 0.24218 0.19792 0.0
C159 C 0.73293 0.30725 0.17573 0.0
H160 H 0.809 0.19476 0.32455 0.0
H161 H 0.74393 0.13701 0.366 0.0
H162 H 0.73424 0.16505 0.26767 0.0
H163 H 0.7165 0.13653 0.31422 0.0
H164 H 0.70603 0.32077 0.12014 0.0
H165 H 0.74098 0.28816 0.0614 0.0
H166 H 0.76677 0.28438 0.16049 0.0
H167 H 0.76914 0.2743 0.10841 0.0
Tb168 Tb 0.75751 0.75331 0.28697 0.0
C169 C 0.81734 0.82363 0.18005 0.0
C170 C 0.78242 0.82968 0.13853 0.0
C171 C 0.82492 0.86296 0.14304 0.0
C172 C 0.79181 0.81488 0.16531 0.0
C173 C 0.83451 0.84749 0.1687 0.0
C174 C 0.79887 0.85407 0.12799 0.0
C175 C 0.86985 0.83786 0.20704 0.0
N176 N 0.82581 0.80797 0.20452 0.0
C177 C 0.85202 0.81437 0.21743 0.0
C178 C 0.86098 0.85467 0.18285 0.0
Tb179 Tb 0.795 0.77014 0.22062 0.0
N180 N 0.77685 0.79106 0.17595 0.0
C181 C 0.753 0.78005 0.15905 0.0
C182 C 0.75723 0.81913 0.12252 0.0
C183 C 0.74266 0.79402 0.13252 0.0
H184 H 0.85921 0.80171 0.23625 0.0
H185 H 0.7234 0.78541 0.11988 0.0
H186 H 0.79193 0.86585 0.10766 0.0
H187 H 0.89041 0.84301 0.21777 0.0
H188 H 0.74126 0.76076 0.16636 0.0
H189 H 0.82996 0.73973 0.38739 0.0
H190 H 0.74922 0.82988 0.10193 0.0
H191 H 0.6939 0.72037 0.27114 0.0
H192 H 0.81137 0.76387 0.34092 0.0
H193 H 0.66358 0.67833 0.2894 0.0
H194 H 0.8377 0.88148 0.13414 0.0
H195 H 0.80508 0.69494 0.40549 0.0
H196 H 0.76309 0.65813 0.39975 0.0
H197 H 0.87484 0.87283 0.17481 0.0
H198 H 0.71755 0.64142 0.37316 0.0
N199 N 0.77635 0.73291 0.33149 0.0
C200 C 0.80008 0.74439 0.34828 0.0
C201 C 0.79677 0.70545 0.38489 0.0
C202 C 0.77171 0.69436 0.36891 0.0
C203 C 0.81081 0.73074 0.37481 0.0
C204 C 0.76191 0.70886 0.34214 0.0
H205 H 0.68004 0.64903 0.33233 0.0
N206 N 0.72755 0.71489 0.30292 0.0
C207 C 0.68409 0.684 0.30021 0.0
C208 C 0.73649 0.6995 0.32734 0.0
C209 C 0.70137 0.70789 0.28998 0.0
C210 C 0.69348 0.66748 0.32437 0.0
C211 C 0.71987 0.67532 0.33862 0.0
O212 O 0.72604 0.76526 0.29676 0.0
O213 O 0.76342 0.77638 0.24112 0.0
O214 O 0.80495 0.80486 0.24313 0.0
O215 O 0.79405 0.78542 0.29319 0.0
O216 O 0.72529 0.76077 0.25105 0.0
O217 O 0.76486 0.7765 0.323 0.0
O218 O 0.82568 0.75612 0.21289 0.0
O219 O 0.78903 0.74699 0.26651 0.0
O220 O 0.74764 0.71886 0.2639 0.0
O221 O 0.75799 0.73873 0.21388 0.0
O222 O 0.82716 0.76335 0.25699 0.0
O223 O 0.78794 0.74763 0.18388 0.0
C224 C 0.73945 0.77544 0.23004 0.0
C225 C 0.72822 0.7734 0.34912 0.0
C226 C 0.71089 0.79004 0.38732 0.0
C227 C 0.72194 0.79368 0.3588 0.0
C228 C 0.70596 0.76566 0.40553 0.0
C229 C 0.72315 0.74946 0.36791 0.0
C230 C 0.71204 0.74563 0.39587 0.0
C231 C 0.80585 0.8055 0.27366 0.0
C232 C 0.74043 0.7775 0.31974 0.0
C233 C 0.7299 0.66017 0.3643 0.0
C234 C 0.75582 0.66969 0.37942 0.0
C235 C 0.81306 0.74836 0.27784 0.0
C236 C 0.8257 0.7488 0.16091 0.0
C237 C 0.83526 0.72924 0.15477 0.0
C238 C 0.84933 0.73304 0.12862 0.0
C239 C 0.85324 0.75656 0.10863 0.0
C240 C 0.82989 0.77197 0.14051 0.0
C241 C 0.84353 0.77576 0.11451 0.0
C242 C 0.74607 0.71859 0.2332 0.0
C243 C 0.81181 0.74499 0.18888 0.0
H244 H 0.72606 0.8123 0.34445 0.0
H245 H 0.69704 0.76192 0.42717 0.0
H246 H 0.72781 0.73371 0.36104 0.0
H247 H 0.70809 0.72701 0.41015 0.0
H248 H 0.83222 0.71136 0.17062 0.0
H249 H 0.86364 0.76005 0.08816 0.0
H250 H 0.82265 0.78713 0.14466 0.0
H251 H 0.84664 0.79372 0.09885 0.0
Tb252 Tb 0.29609 0.74214 0.26511 0.0
C253 C 0.24972 0.81211 0.16899 0.0
C254 C 0.28746 0.84851 0.15642 0.0
C255 C 0.25002 0.83555 0.11603 0.0
C256 C 0.27464 0.82787 0.17788 0.0
C257 C 0.23661 0.81626 0.1383 0.0
C258 C 0.27544 0.85171 0.12511 0.0
C259 C 0.19672 0.78505 0.15559 0.0
N260 N 0.23722 0.79447 0.19162 0.0
C261 C 0.2105 0.78201 0.18585 0.0
C262 C 0.20998 0.80191 0.13153 0.0
Tb263 Tb 0.2615 0.79026 0.24051 0.0
N264 N 0.28517 0.82438 0.20847 0.0
C265 C 0.30776 0.84204 0.21971 0.0
C266 C 0.31128 0.86594 0.16749 0.0
C267 C 0.32119 0.86295 0.19942 0.0
H268 H 0.20014 0.76891 0.20433 0.0
H269 H 0.33932 0.8766 0.2084 0.0
H270 H 0.28515 0.86721 0.10811 0.0
H271 H 0.17589 0.77445 0.15089 0.0
H272 H 0.31585 0.83987 0.24426 0.0
H273 H 0.27381 0.65716 0.20891 0.0
H274 H 0.32174 0.88211 0.15181 0.0
H275 H 0.29692 0.74949 0.33989 0.0
H276 H 0.2897 0.70374 0.21231 0.0
H277 H 0.28624 0.72179 0.38953 0.0
H278 H 0.24046 0.83886 0.09218 0.0
H279 H 0.25575 0.62665 0.25441 0.0
H280 H 0.24748 0.61925 0.31105 0.0
H281 H 0.19919 0.80448 0.10822 0.0
H282 H 0.25139 0.63683 0.36044 0.0
N283 N 0.27858 0.69975 0.25822 0.0
C284 C 0.28128 0.69055 0.23202 0.0
C285 C 0.2622 0.64708 0.25577 0.0
C286 C 0.26176 0.65643 0.2835 0.0
C287 C 0.27242 0.66422 0.23006 0.0
C288 C 0.27039 0.6832 0.28406 0.0
H289 H 0.26646 0.67493 0.39008 0.0
N290 N 0.28323 0.71884 0.31181 0.0
C291 C 0.28234 0.71346 0.36783 0.0
C292 C 0.27291 0.69308 0.31185 0.0
C293 C 0.2884 0.72916 0.33943 0.0
C294 C 0.2711 0.68703 0.36804 0.0
C295 C 0.26648 0.67648 0.3399 0.0
O296 O 0.32934 0.73727 0.29689 0.0
O297 O 0.29757 0.78015 0.24009 0.0
O298 O 0.25136 0.76351 0.20503 0.0
O299 O 0.25951 0.72648 0.23446 0.0
O300 O 0.30789 0.75568 0.21778 0.0
O301 O 0.32782 0.7361 0.2474 0.0
O302 O 0.22773 0.79692 0.25277 0.0
O303 O 0.26549 0.75714 0.27413 0.0
O304 O 0.31658 0.77315 0.29408 0.0
O305 O 0.29209 0.80269 0.27958 0.0
O306 O 0.22758 0.75992 0.25768 0.0
O307 O 0.26642 0.82372 0.26031 0.0
C308 C 0.30615 0.77857 0.21533 0.0
C309 C 0.34474 0.70537 0.28226 0.0
C310 C 0.35636 0.67105 0.26433 0.0
C311 C 0.35395 0.69617 0.25931 0.0
C312 C 0.34983 0.65541 0.29283 0.0
C313 C 0.33869 0.68931 0.31066 0.0
C314 C 0.34118 0.66455 0.31578 0.0
C315 C 0.24822 0.73843 0.20939 0.0
C316 C 0.33952 0.73075 0.2755 0.0
C317 C 0.25663 0.64987 0.33919 0.0
C318 C 0.25435 0.63986 0.31105 0.0
C319 C 0.24082 0.74624 0.27623 0.0
C320 C 0.23014 0.84074 0.24905 0.0
C321 C 0.22279 0.85341 0.26983 0.0
C322 C 0.21287 0.87457 0.25822 0.0
C323 C 0.21074 0.88292 0.22554 0.0
C324 C 0.22767 0.8494 0.21663 0.0
C325 C 0.21805 0.87036 0.20497 0.0
C326 C 0.31142 0.79446 0.29712 0.0
C327 C 0.24115 0.81912 0.26156 0.0
H328 H 0.35847 0.70827 0.23722 0.0
H329 H 0.35176 0.63615 0.29759 0.0
H330 H 0.33155 0.69564 0.3288 0.0
H331 H 0.33626 0.65231 0.33763 0.0
H332 H 0.22453 0.84663 0.2949 0.0
H333 H 0.20366 0.89937 0.21585 0.0
H334 H 0.2333 0.84013 0.2003 0.0
H335 H 0.21637 0.87697 0.17989 0.0
Tb336 Tb 0.31129 0.73241 0.75562 0.0
C337 C 0.24236 0.78812 0.79436 0.0
C338 C 0.20634 0.75347 0.81508 0.0
C339 C 0.22078 0.79406 0.83629 0.0
C340 C 0.22641 0.76323 0.79489 0.0
C341 C 0.23924 0.80418 0.81433 0.0
C342 C 0.20429 0.7687 0.83664 0.0
C343 C 0.26972 0.8397 0.78612 0.0
N344 N 0.25944 0.79716 0.77227 0.0
C345 C 0.27183 0.823 0.76665 0.0
C346 C 0.25379 0.83015 0.81052 0.0
Tb347 Tb 0.26336 0.76782 0.74313 0.0
N348 N 0.22877 0.7495 0.77323 0.0
C349 C 0.20962 0.72686 0.76822 0.0
C350 C 0.18805 0.72937 0.81171 0.0
C351 C 0.18928 0.71633 0.78759 0.0
H352 H 0.28378 0.83095 0.74755 0.0
H353 H 0.17465 0.69809 0.78396 0.0
H354 H 0.18929 0.76143 0.85269 0.0
H355 H 0.28024 0.85996 0.78212 0.0
H356 H 0.21008 0.71647 0.74967 0.0
H357 H 0.38695 0.73918 0.85716 0.0
H358 H 0.17229 0.72118 0.82667 0.0
H359 H 0.31862 0.73854 0.67688 0.0
H360 H 0.34157 0.72602 0.82937 0.0
H361 H 0.3544 0.75593 0.6445 0.0
H362 H 0.2183 0.80599 0.85214 0.0
H363 H 0.42496 0.76238 0.82718 0.0
H364 H 0.44191 0.77889 0.77473 0.0
H365 H 0.25198 0.84317 0.82535 0.0
H366 H 0.433 0.78291 0.71686 0.0
N367 N 0.35315 0.7425 0.78371 0.0
C368 C 0.35782 0.73607 0.81577 0.0
C369 C 0.40496 0.75669 0.81477 0.0
C370 C 0.40041 0.7613 0.78185 0.0
C371 C 0.3836 0.74356 0.83175 0.0
C372 C 0.37396 0.75356 0.7668 0.0
H373 H 0.40073 0.77357 0.66847 0.0
N374 N 0.34318 0.74691 0.72087 0.0
C375 C 0.35874 0.75617 0.66976 0.0
C376 C 0.36887 0.75566 0.73434 0.0
C377 C 0.33818 0.74634 0.68882 0.0
C378 C 0.38484 0.76618 0.6833 0.0
C379 C 0.39025 0.7658 0.71594 0.0
O380 O 0.28718 0.69524 0.74779 0.0
O381 O 0.27285 0.73301 0.76511 0.0
O382 O 0.29009 0.78046 0.7853 0.0
O383 O 0.32565 0.76341 0.78587 0.0
O384 O 0.29718 0.72138 0.80213 0.0
O385 O 0.32772 0.70124 0.76691 0.0
O386 O 0.26079 0.79026 0.69848 0.0
O387 O 0.29903 0.76386 0.72879 0.0
O388 O 0.28744 0.72903 0.70915 0.0
O389 O 0.24899 0.73178 0.72301 0.0
O390 O 0.29705 0.80027 0.72828 0.0
O391 O 0.22572 0.76554 0.71717 0.0
C392 C 0.27393 0.7245 0.79419 0.0
C393 C 0.29558 0.6645 0.78887 0.0
C394 C 0.29701 0.65152 0.84571 0.0
C395 C 0.3086 0.6671 0.81961 0.0
C396 C 0.2724 0.63274 0.84099 0.0
C397 C 0.27139 0.64501 0.7844 0.0
C398 C 0.2599 0.62925 0.81037 0.0
C399 C 0.31434 0.77836 0.79595 0.0
C400 C 0.30474 0.68426 0.76222 0.0
C401 C 0.41645 0.77477 0.73069 0.0
C402 C 0.42152 0.77255 0.7636 0.0
C403 C 0.31215 0.78732 0.72421 0.0
C404 C 0.22177 0.80288 0.6842 0.0
C405 C 0.21555 0.80998 0.65185 0.0
C406 C 0.20211 0.82862 0.6412 0.0
C407 C 0.19522 0.84026 0.66355 0.0
C408 C 0.2146 0.81452 0.70617 0.0
C409 C 0.20151 0.83325 0.6958 0.0
C410 C 0.2613 0.72476 0.7039 0.0
C411 C 0.23502 0.78279 0.69439 0.0
H412 H 0.32743 0.68175 0.82349 0.0
H413 H 0.26322 0.62045 0.86087 0.0
H414 H 0.26084 0.64274 0.76093 0.0
H415 H 0.24099 0.61462 0.80676 0.0
H416 H 0.2212 0.80094 0.635 0.0
H417 H 0.18444 0.85439 0.65615 0.0
H418 H 0.21878 0.80893 0.73122 0.0
H419 H 0.1959 0.84211 0.7128 0.0
Tb420 Tb 0.26588 0.25248 0.78612 0.0
C421 C 0.32112 0.32272 0.67722 0.0
C422 C 0.28512 0.32686 0.63626 0.0
C423 C 0.32643 0.36175 0.63984 0.0
C424 C 0.29558 0.3128 0.66298 0.0
C425 C 0.33712 0.34708 0.6655 0.0
C426 C 0.30044 0.35165 0.62524 0.0
C427 C 0.37359 0.33961 0.70367 0.0
N428 N 0.33071 0.30782 0.7017 0.0
C429 C 0.35692 0.31553 0.71435 0.0
C430 C 0.36357 0.3556 0.67938 0.0
Tb431 Tb 0.30165 0.26908 0.71841 0.0
N432 N 0.28166 0.28867 0.67413 0.0
C433 C 0.25785 0.27669 0.65788 0.0
C434 C 0.25999 0.31524 0.62084 0.0
C435 C 0.24651 0.28989 0.63141 0.0
H436 H 0.36484 0.30343 0.73331 0.0
H437 H 0.2273 0.2805 0.61925 0.0
H438 H 0.29265 0.36287 0.60496 0.0
H439 H 0.39413 0.34585 0.71423 0.0
H440 H 0.24697 0.25716 0.66562 0.0
H441 H 0.34106 0.23906 0.88359 0.0
H442 H 0.25118 0.32541 0.60031 0.0
H443 H 0.20125 0.22172 0.77728 0.0
H444 H 0.32134 0.26299 0.83797 0.0
H445 H 0.17105 0.18024 0.79735 0.0
H446 H 0.33831 0.38063 0.63064 0.0
H447 H 0.31651 0.19441 0.90273 0.0
H448 H 0.27437 0.15769 0.89878 0.0
H449 H 0.37653 0.37422 0.67108 0.0
H450 H 0.22773 0.14151 0.87516 0.0
N451 N 0.28598 0.23204 0.82977 0.0
C452 C 0.31018 0.24357 0.84567 0.0
C453 C 0.30778 0.20479 0.88236 0.0
C454 C 0.28231 0.19369 0.86744 0.0
C455 C 0.32159 0.23002 0.87174 0.0
C456 C 0.2718 0.20811 0.84113 0.0
H457 H 0.18876 0.15006 0.8377 0.0
N458 N 0.23614 0.21482 0.80481 0.0
C459 C 0.1921 0.18521 0.80608 0.0
C460 C 0.2458 0.19912 0.82812 0.0
C461 C 0.20934 0.20876 0.79476 0.0
C462 C 0.20218 0.16819 0.82875 0.0
C463 C 0.22924 0.17531 0.84062 0.0
O464 O 0.23576 0.26646 0.7957 0.0
O465 O 0.27044 0.27514 0.7397 0.0
O466 O 0.31078 0.30389 0.74058 0.0
O467 O 0.30297 0.28416 0.79123 0.0
O468 O 0.23279 0.25912 0.75114 0.0
O469 O 0.27452 0.27574 0.82229 0.0
O470 O 0.33357 0.25869 0.70705 0.0
O471 O 0.29651 0.2457 0.76427 0.0
O472 O 0.25239 0.21813 0.76241 0.0
O473 O 0.26579 0.23639 0.71269 0.0
O474 O 0.33441 0.26198 0.75374 0.0
O475 O 0.29403 0.24537 0.68294 0.0
C476 C 0.24617 0.27359 0.72934 0.0
C477 C 0.23824 0.27382 0.84822 0.0
C478 C 0.21642 0.28906 0.88306 0.0
C479 C 0.22837 0.29281 0.85523 0.0
C480 C 0.21485 0.26608 0.90375 0.0
C481 C 0.23633 0.25114 0.86926 0.0
C482 C 0.22472 0.24735 0.89685 0.0
C483 C 0.31333 0.30454 0.77129 0.0
C484 C 0.25054 0.27788 0.81902 0.0
C485 C 0.24001 0.16001 0.86543 0.0
C486 C 0.26655 0.16921 0.87886 0.0
C487 C 0.32063 0.24677 0.77476 0.0
C488 C 0.32979 0.24946 0.65484 0.0
C489 C 0.33755 0.22974 0.64603 0.0
C490 C 0.34715 0.23288 0.6167 0.0
C491 C 0.3491 0.25622 0.59668 0.0
C492 C 0.33197 0.27244 0.63435 0.0
C493 C 0.34162 0.27578 0.6055 0.0
C494 C 0.25226 0.21732 0.73207 0.0
C495 C 0.31878 0.24556 0.68497 0.0
H496 H 0.22967 0.31027 0.83884 0.0
H497 H 0.20627 0.26269 0.92558 0.0
H498 H 0.24392 0.23642 0.86446 0.0
H499 H 0.22343 0.22982 0.91304 0.0
H500 H 0.33564 0.21185 0.66171 0.0
H501 H 0.35678 0.25954 0.57426 0.0
H502 H 0.32612 0.28776 0.64056 0.0
H503 H 0.34328 0.29363 0.58986 0.0
Tb504 Tb 0.80142 0.24255 0.77637 0.0
C505 C 0.74379 0.30517 0.67209 0.0
C506 C 0.7767 0.34539 0.65804 0.0
C507 C 0.74002 0.32777 0.61888 0.0
C508 C 0.76694 0.32378 0.68009 0.0
C509 C 0.72954 0.30722 0.64168 0.0
C510 C 0.76361 0.34687 0.62707 0.0
C511 C 0.69427 0.27044 0.65992 0.0
N512 N 0.73412 0.28613 0.69508 0.0
C513 C 0.70913 0.26938 0.68978 0.0
C514 C 0.7047 0.2892 0.63559 0.0
Tb515 Tb 0.76002 0.2853 0.74319 0.0
N516 N 0.77851 0.3218 0.71041 0.0
C517 C 0.79857 0.34209 0.72092 0.0
C518 C 0.7985 0.36536 0.66822 0.0
C519 C 0.80916 0.3639 0.69996 0.0
H520 H 0.70092 0.25463 0.70826 0.0
H521 H 0.8256 0.3795 0.70831 0.0
H522 H 0.77098 0.36314 0.60966 0.0
H523 H 0.67483 0.25672 0.65567 0.0
H524 H 0.80715 0.34129 0.74529 0.0
H525 H 0.74297 0.14531 0.81084 0.0
H526 H 0.80662 0.38231 0.65207 0.0
H527 H 0.85859 0.27758 0.81207 0.0
H528 H 0.7572 0.18491 0.77481 0.0
H529 H 0.88504 0.27655 0.86416 0.0
H530 H 0.72955 0.32956 0.59525 0.0
H531 H 0.76275 0.14289 0.86693 0.0
H532 H 0.79706 0.16372 0.90924 0.0
H533 H 0.6931 0.29008 0.61254 0.0
H534 H 0.83607 0.19964 0.92376 0.0
N535 N 0.78524 0.2054 0.80934 0.0
C536 C 0.76631 0.18436 0.79893 0.0
C537 C 0.7692 0.16046 0.85102 0.0
C538 C 0.78952 0.18152 0.86124 0.0
C539 C 0.75798 0.16174 0.81949 0.0
C540 C 0.79745 0.20378 0.8394 0.0
H541 H 0.86943 0.24158 0.90686 0.0
N542 N 0.82753 0.24353 0.8246 0.0
C543 C 0.86652 0.2616 0.85985 0.0
C544 C 0.8194 0.22366 0.8474 0.0
C545 C 0.85139 0.26199 0.83013 0.0
C546 C 0.8576 0.24189 0.88391 0.0
C547 C 0.83403 0.2223 0.87769 0.0
O548 O 0.8373 0.24268 0.76225 0.0
O549 O 0.79583 0.27493 0.74241 0.0
O550 O 0.75727 0.26027 0.70777 0.0
O551 O 0.76869 0.2259 0.74062 0.0
O552 O 0.83398 0.2757 0.7611 0.0
O553 O 0.80162 0.21147 0.75462 0.0
O554 O 0.72452 0.28686 0.75692 0.0
O555 O 0.76532 0.25234 0.77531 0.0
O556 O 0.80003 0.26474 0.81276 0.0
O557 O 0.7924 0.30069 0.78016 0.0
O558 O 0.72707 0.253 0.76049 0.0
O559 O 0.76125 0.31655 0.76551 0.0
C560 C 0.81996 0.28806 0.74163 0.0
C561 C 0.84268 0.20186 0.76389 0.0
C562 C 0.86481 0.17274 0.7515 0.0
C563 C 0.84811 0.18884 0.74204 0.0
C564 C 0.87542 0.16964 0.78356 0.0
C565 C 0.85323 0.19816 0.79565 0.0
C566 C 0.86941 0.18204 0.8054 0.0
C567 C 0.75768 0.23595 0.71353 0.0
C568 C 0.82711 0.22018 0.75285 0.0
C569 C 0.82526 0.20096 0.90026 0.0
C570 C 0.80304 0.18053 0.89202 0.0
C571 C 0.74135 0.24006 0.77852 0.0
C572 C 0.7214 0.32838 0.75708 0.0
C573 C 0.71017 0.33636 0.77918 0.0
C574 C 0.69557 0.35431 0.76939 0.0
C575 C 0.6928 0.36436 0.73726 0.0
C576 C 0.71834 0.33873 0.72524 0.0
C577 C 0.70418 0.35667 0.71544 0.0
C578 C 0.8012 0.28939 0.80773 0.0
C579 C 0.73572 0.30889 0.76731 0.0
H580 H 0.8394 0.19149 0.71769 0.0
H581 H 0.88894 0.15813 0.79184 0.0
H582 H 0.84942 0.20808 0.81281 0.0
H583 H 0.87777 0.17953 0.8299 0.0
H584 H 0.71233 0.32823 0.80379 0.0
H585 H 0.68203 0.37843 0.72901 0.0
H586 H 0.72678 0.3329 0.70793 0.0
H587 H 0.70194 0.36459 0.69081 0.0
Tb588 Tb 0.77411 0.74096 0.72094 0.0
C589 C 0.85067 0.79877 0.82366 0.0
C590 C 0.8566 0.7656 0.86619 0.0
C591 C 0.892 0.80577 0.85948 0.0
C592 C 0.84123 0.77448 0.83934 0.0
C593 C 0.87589 0.81501 0.83392 0.0
C594 C 0.88234 0.78109 0.87564 0.0
C595 C 0.86606 0.84904 0.79526 0.0
N596 N 0.83423 0.80709 0.7996 0.0
C597 C 0.84114 0.83223 0.78611 0.0
C598 C 0.88369 0.8403 0.81898 0.0
Tb599 Tb 0.79393 0.77815 0.78582 0.0
N600 N 0.81605 0.76044 0.82986 0.0
C601 C 0.80437 0.73796 0.84778 0.0
C602 C 0.84518 0.74198 0.88354 0.0
C603 C 0.81885 0.72823 0.87447 0.0
H604 H 0.82778 0.83923 0.76766 0.0
H605 H 0.80963 0.71016 0.88809 0.0
H606 H 0.89457 0.77449 0.89599 0.0
H607 H 0.87166 0.86872 0.78398 0.0
H608 H 0.78404 0.72699 0.84136 0.0
H609 H 0.75566 0.80838 0.61922 0.0
H610 H 0.85616 0.73467 0.90456 0.0
H611 H 0.74133 0.67945 0.7391 0.0
H612 H 0.78258 0.79149 0.66456 0.0
H613 H 0.69747 0.64957 0.72378 0.0
H614 H 0.91156 0.81785 0.86757 0.0
H615 H 0.70847 0.78426 0.60526 0.0
H616 H 0.67065 0.74396 0.61473 0.0
H617 H 0.90291 0.8534 0.82615 0.0
H618 H 0.65488 0.70029 0.6429 0.0
N619 N 0.75096 0.75818 0.67739 0.0
C620 C 0.76213 0.78052 0.65895 0.0
C621 C 0.72021 0.77671 0.62538 0.0
C622 C 0.70942 0.75296 0.64286 0.0
C623 C 0.74686 0.79029 0.63309 0.0
C624 C 0.72561 0.74407 0.66883 0.0
H625 H 0.66506 0.66462 0.68305 0.0
N626 N 0.73394 0.7115 0.70774 0.0
C627 C 0.70261 0.66929 0.7126 0.0
C628 C 0.71683 0.71966 0.68441 0.0
C629 C 0.72754 0.68635 0.72119 0.0
C630 C 0.68433 0.67787 0.68968 0.0
C631 C 0.69148 0.70325 0.67492 0.0
O632 O 0.78626 0.71045 0.71157 0.0
O633 O 0.79971 0.74742 0.76556 0.0
O634 O 0.82873 0.7875 0.76077 0.0
O635 O 0.80694 0.77623 0.7118 0.0
O636 O 0.78252 0.7105 0.75745 0.0
O637 O 0.79614 0.74709 0.68286 0.0
O638 O 0.78162 0.80898 0.79382 0.0
O639 O 0.76846 0.77168 0.74128 0.0
O640 O 0.73919 0.73203 0.74558 0.0
O641 O 0.76054 0.74326 0.7947 0.0
O642 O 0.78567 0.80866 0.74925 0.0
O643 O 0.7723 0.77305 0.82405 0.0
C644 C 0.79861 0.72443 0.77738 0.0
C645 C 0.79043 0.71055 0.65817 0.0
C646 C 0.80161 0.68582 0.62356 0.0
C647 C 0.80782 0.69826 0.65088 0.0
C648 C 0.77777 0.68614 0.60373 0.0
C649 C 0.76684 0.71042 0.63795 0.0
C650 C 0.76059 0.6983 0.61094 0.0
C651 C 0.82804 0.78869 0.72993 0.0
C652 C 0.79709 0.72352 0.68674 0.0
C653 C 0.67456 0.71248 0.65034 0.0
C654 C 0.68352 0.73735 0.63434 0.0
C655 C 0.76957 0.79465 0.72939 0.0
C656 C 0.77763 0.81057 0.84671 0.0
C657 C 0.76016 0.82328 0.85284 0.0
C658 C 0.76651 0.83711 0.87896 0.0
C659 C 0.79056 0.83778 0.89879 0.0
C660 C 0.80137 0.81159 0.86697 0.0
C661 C 0.80777 0.82512 0.8928 0.0
C662 C 0.7394 0.73127 0.77625 0.0
C663 C 0.77102 0.79656 0.81903 0.0
H664 H 0.82597 0.69818 0.66662 0.0
H665 H 0.77252 0.6773 0.58226 0.0
H666 H 0.75331 0.71983 0.64287 0.0
H667 H 0.74239 0.69844 0.59539 0.0
H668 H 0.74186 0.82264 0.83709 0.0
H669 H 0.79591 0.84778 0.91934 0.0
H670 H 0.81494 0.80186 0.86293 0.0
H671 H 0.82612 0.82571 0.90836 0.0
Co672 Co 0.06215 1.00015 0.44415 0.0
Co673 Co 0.04862 0.97096 0.49298 0.0
Co674 Co 1.02805 0.01707 0.49486 0.0
O675 O 0.05756 1.00551 0.4858 0.0
H676 H 0.07437 0.01305 0.49792 0.0
O677 O 0.99857 0.02841 0.50435 0.0
Co678 Co 1.00457 0.05646 0.52736 0.0
Co679 Co 0.98509 0.04779 0.47025 0.0
H680 H 0.98421 0.01389 0.51154 0.0
O681 O 0.07629 0.95809 0.50844 0.0
O682 O 0.05625 0.96234 0.45801 0.0
O683 O 1.01602 0.95349 0.51109 0.0
O684 O 1.0182 0.98862 0.53078 0.0
O685 O 0.05452 0.03844 0.52495 0.0
O686 O 1.00724 0.0808 0.55058 0.0
O687 O 0.97316 0.04498 0.54343 0.0
O688 O 0.0387 0.0718 0.51392 0.0
O689 O 0.0389 0.04522 0.4591 0.0
O690 O 1.00456 0.05902 0.43454 0.0
O691 O 0.98843 0.07552 0.49018 0.0
O692 O 0.95079 0.04963 0.46708 0.0
C693 C 0.09374 1.00049 0.4226 0.0
C694 C 1.003 0.99033 0.43893 0.0
C695 C 1.00957 0.96428 0.53074 0.0
C696 C 0.07297 0.95365 0.47935 0.0
C697 C 0.98364 0.06608 0.55628 0.0
C698 C 0.05737 0.06199 0.52597 0.0
C699 C 1.02815 0.05788 0.43592 0.0
C700 C 0.96286 0.06987 0.48101 0.0
O701 O 0.06974 0.99631 0.4076 0.0
O702 O 0.09809 1.00573 0.4516 0.0
O703 O 1.00088 0.99601 0.46524 0.0
O704 O 1.02546 0.99299 0.43045 0.0
Co705 Co 0.56276 0.96467 0.99623 0.0
Co706 Co 0.56695 0.97718 0.05048 0.0
Co707 Co 0.52928 1.00897 1.0006 0.0
O708 O 0.56195 0.99555 0.01083 0.0
H709 H 0.57805 1.00936 0.0073 0.0
O710 O 0.49682 0.02284 0.99033 0.0
Co711 Co 0.49725 0.05416 0.00536 0.0
Co712 Co 0.49234 0.04204 0.95105 0.0
H713 H 0.48054 1.00927 0.99387 0.0
O714 O 0.60071 0.97585 0.07085 0.0
O715 O 0.57219 0.94761 0.04046 0.0
O716 O 0.53625 0.96713 0.0724 0.0
O717 O 0.50973 0.98534 0.03632 0.0
O718 O 0.54815 0.03575 0.02875 0.0
O719 O 0.49535 0.08079 0.02129 0.0
O720 O 0.46238 0.04467 0.01238 0.0
O721 O 0.53426 0.06808 1.00136 0.0
O722 O 0.5488 0.03249 0.96495 0.0
O723 O 0.52315 0.05196 0.92926 0.0
O724 O 0.48734 0.07168 0.9614 0.0
O725 O 0.45875 0.04373 0.93065 0.0
C726 C 0.59062 0.95244 0.98033 0.0
C727 C 0.50804 0.95802 0.98016 0.0
C728 C 0.51371 0.97086 0.06223 0.0
C729 C 0.59426 0.95404 0.05995 0.0
C730 C 0.4707 0.06699 0.02279 0.0
C731 C 0.55176 0.05977 0.0203 0.0
C732 C 0.54534 0.04747 0.93937 0.0
C733 C 0.46533 0.06549 0.94171 0.0
O734 O 0.56604 0.93816 0.98104 0.0
O735 O 0.59785 0.97492 0.99018 0.0
O736 O 0.51047 0.98199 0.9725 0.0
O737 O 0.52573 0.95019 0.99936 0.0
Co738 Co 0.06238 0.46434 0.99985 0.0
Co739 Co 0.07083 0.4809 0.05264 0.0
Co740 Co 0.03299 0.5122 0.00247 0.0
O741 O 0.06467 0.4973 0.01197 0.0
H742 H 0.08089 0.51021 0.00653 0.0
O743 O 1.00107 0.52704 0.99276 0.0
Co744 Co 1.00301 0.55935 0.00654 0.0
Co745 Co 0.9967 0.54577 0.95306 0.0
H746 H 0.98462 0.51393 0.99694 0.0
O747 O 0.10461 0.47828 0.07133 0.0
O748 O 0.07296 0.44925 0.0448 0.0
O749 O 0.04181 0.47394 0.07654 0.0
O750 O 1.01408 0.48991 0.03956 0.0
O751 O 0.05348 0.5398 0.02909 0.0
O752 O 1.00278 0.58726 0.0211 0.0
O753 O 0.96863 0.55145 0.01547 0.0
O754 O 0.03951 0.57171 1.00041 0.0
O755 O 0.0523 0.53436 0.96555 0.0
O756 O 1.02737 0.55548 0.93123 0.0
O757 O 0.99202 0.57577 0.96246 0.0
O758 O 0.96327 0.54729 0.93244 0.0
C759 C 0.0876 0.44847 0.98452 0.0
C760 C 1.00819 0.46067 0.98558 0.0
C761 C 1.01898 0.47701 0.06649 0.0
C762 C 0.09607 0.45557 0.06252 0.0
C763 C 0.97803 0.5745 0.02395 0.0
C764 C 0.05693 0.56376 0.01993 0.0
C765 C 0.04913 0.54994 0.94043 0.0
C766 C 0.96996 0.56931 0.94292 0.0
O767 O 0.06277 0.43578 0.98705 0.0
O768 O 0.09679 0.47187 0.9918 0.0
O769 O 1.01251 0.48465 0.97587 0.0
O770 O 1.0254 0.45228 0.00505 0.0
Co771 Co 0.54114 0.47923 0.96652 0.0
Co772 Co 0.56062 0.48744 0.02484 0.0
Co773 Co 0.51994 0.52015 0.99933 0.0
O774 O 0.54885 0.50767 0.9897 0.0
H775 H 0.56385 0.52164 0.9829 0.0
O776 O 0.49107 0.53259 0.00931 0.0
Co777 Co 0.49826 0.55735 0.03832 0.0
Co778 Co 0.48292 0.55791 0.97927 0.0
H779 H 0.47505 0.51864 0.01277 0.0
O780 O 0.59241 0.4787 0.02882 0.0
O781 O 0.55226 0.45844 0.00516 0.0
O782 O 0.54056 0.47919 0.05993 0.0
O783 O 0.5056 0.4895 0.03108 0.0
O784 O 0.54578 0.53716 0.0336 0.0
O785 O 0.5024 0.57866 0.06615 0.0
O786 O 0.46622 0.54605 0.05381 0.0
O787 O 0.53291 0.57212 0.02648 0.0
O788 O 0.53463 0.55056 0.96744 0.0
O789 O 0.50632 0.57351 0.94803 0.0
O790 O 0.48434 0.58123 0.00508 0.0
O791 O 0.44908 0.56024 0.97305 0.0
C792 C 0.5621 0.4664 0.9403 0.0
C793 C 0.48985 0.47956 0.96189 0.0
C794 C 0.5162 0.47855 0.05613 0.0
C795 C 0.57698 0.45946 0.01487 0.0
C796 C 0.47797 0.56528 0.06995 0.0
C797 C 0.54998 0.56024 0.03818 0.0
C798 C 0.52797 0.5685 0.94822 0.0
C799 C 0.45942 0.57697 0.99274 0.0
O800 O 0.53726 0.4541 0.94368 0.0
O801 O 0.57371 0.4872 0.95355 0.0
O802 O 0.49411 0.50304 0.96482 0.0
O803 O 0.50598 0.46758 0.97671 0.0
Co804 Co 0.07779 0.47642 0.52942 0.0
Co805 Co 0.05661 0.4763 0.47124 0.0
Co806 Co 1.02841 0.50958 0.50024 0.0
O807 O 0.0425 0.4782 0.50667 0.0
H808 H 1.02867 0.46243 0.51161 0.0
O809 O 1.01429 0.54077 0.49417 0.0
Co810 Co 0.9786 0.54215 0.47301 0.0
Co811 Co 1.00167 0.54284 0.53069 0.0
H812 H 1.0279 0.55655 0.48857 0.0
O813 O 0.0565 0.44542 0.46132 0.0
O814 O 0.08945 0.47245 0.48972 0.0
O815 O 0.06443 0.50617 0.44095 0.0
O816 O 0.05246 0.53109 0.46718 0.0
O817 O 0.99967 0.49402 0.46732 0.0
O818 O 0.94712 0.54607 0.45271 0.0
O819 O 0.98502 0.57753 0.46138 0.0
O820 O 0.96647 0.50542 0.48031 0.0
O821 O 1.00418 0.48823 0.53297 0.0
O822 O 0.99643 0.51346 0.56249 0.0
O823 O 0.96785 0.54534 0.51382 0.0
O824 O 1.001 0.57366 0.54027 0.0
C825 C 0.09628 0.44797 0.55401 0.0
C826 C 0.08204 0.52858 0.53261 0.0
C827 C 0.06396 0.52806 0.44513 0.0
C828 C 0.0809 0.45211 0.47507 0.0
C829 C 0.95974 0.57049 0.44962 0.0
C830 C 0.97477 0.49051 0.46787 0.0
C831 C 0.9947 0.49132 0.5567 0.0
C832 C 0.9762 0.56585 0.52817 0.0
O833 O 0.10889 0.47239 0.5509 0.0
O834 O 0.07109 0.44095 0.54184 0.0
O835 O 0.05716 0.52519 0.53314 0.0
O836 O 0.09033 0.51303 0.52138 0.0
Co837 Co 0.58291 0.98003 0.53834 0.0
Co838 Co 0.57065 0.98698 0.47958 0.0
Co839 Co 0.53449 0.01449 0.50616 0.0
O840 O 0.5504 0.98454 0.51082 0.0
H841 H 0.53641 0.96839 0.51122 0.0
O842 O 0.51835 0.0443 0.50109 0.0
Co843 Co 0.48374 0.04598 0.47629 0.0
Co844 Co 0.50146 0.0435 0.53507 0.0
H845 H 0.53184 0.06066 0.49811 0.0
O846 O 0.56845 0.95814 0.46399 0.0
O847 O 0.60002 0.97801 0.50102 0.0
O848 O 0.58205 0.01928 0.45516 0.0
O849 O 0.55742 0.03841 0.47318 0.0
O850 O 0.50659 0.99865 0.47284 0.0
O851 O 0.45337 0.05007 0.453 0.0
O852 O 0.49043 0.08152 0.46503 0.0
O853 O 0.47146 1.00897 0.48249 0.0
O854 O 0.51147 0.99074 0.5392 0.0
O855 O 0.49352 0.01243 0.56334 0.0
O856 O 0.46964 0.04885 0.51522 0.0
O857 O 0.50197 0.07352 0.54717 0.0
C858 C 0.59743 0.94933 0.56319 0.0
C859 C 0.58763 0.03385 0.54161 0.0
C860 C 0.57486 0.03884 0.45589 0.0
C861 C 0.59112 0.96035 0.48188 0.0
C862 C 0.46577 0.07453 0.45112 0.0
C863 C 0.48144 0.9939 0.47263 0.0
C864 C 0.49752 0.99171 0.56007 0.0
C865 C 0.47826 0.06845 0.53133 0.0
O866 O 0.61103 0.97325 0.56454 0.0
O867 O 0.57388 0.9443 0.54627 0.0
O868 O 0.56247 0.03045 0.53955 0.0
O869 O 0.59728 0.01703 0.53523 0.0
H870 H 0.205 0.23925 0.30941 0.0
H871 H 0.16599 0.20911 0.33178 0.0
H872 H 0.16354 0.15482 0.27058 0.0
H873 H 0.2025 0.18487 0.24823 0.0
H874 H 0.11224 0.15741 0.27838 0.0
H875 H 0.1762 0.1456 0.39208 0.0
H876 H 0.17666 0.17822 0.37793 0.0
H877 H 0.18977 0.16135 0.3559 0.0
C878 C 0.19596 0.221 0.30047 0.0
C879 C 0.20682 0.21437 0.27702 0.0
C880 C 0.1737 0.20385 0.31324 0.0
C881 C 0.16221 0.17965 0.3031 0.0
C882 C 0.17215 0.17346 0.27863 0.0
H883 H 0.07215 0.0499 0.42084 0.0
H884 H 0.10258 0.07745 0.38417 0.0
C885 C 0.19434 0.19072 0.2657 0.0
C886 C 0.14128 0.16011 0.3198 0.0
H887 H 0.12978 0.12591 0.39201 0.0
C888 C 0.11599 0.15039 0.30319 0.0
C889 C 0.14653 0.1507 0.35197 0.0
C890 C 0.17382 0.15929 0.37049 0.0
C891 C 0.09551 0.13183 0.31826 0.0
C892 C 0.10051 0.1232 0.35077 0.0
C893 C 0.12596 0.13264 0.36711 0.0
C894 C 0.07978 0.1046 0.36881 0.0
C895 C 0.06892 0.1214 0.29919 0.0
C896 C 0.05654 0.11042 0.37178 0.0
C897 C 0.03894 0.09454 0.39254 0.0
C898 C 0.04464 0.0729 0.41106 0.0
C899 C 0.06739 0.06661 0.40712 0.0
C900 C 0.08475 0.08228 0.38612 0.0
H901 H 0.07076 0.12409 0.2736 0.0
H902 H 0.06002 0.10065 0.30702 0.0
H903 H 0.05504 0.13182 0.30239 0.0
H904 H 0.05263 0.12785 0.35917 0.0
H905 H 1.02161 0.09991 0.39521 0.0
H906 H 0.81303 0.20607 0.37842 0.0
H907 H 0.84791 0.20324 0.42276 0.0
H908 H 0.81908 0.12058 0.43113 0.0
H909 H 0.7842 0.12327 0.3875 0.0
H910 H 0.83897 0.13859 0.48965 0.0
H911 H 0.9098 0.18477 0.40023 0.0
H912 H 0.88921 0.20241 0.40864 0.0
H913 H 0.87431 0.17464 0.38855 0.0
C914 C 0.8139 0.18732 0.39019 0.0
C915 C 0.79619 0.16486 0.37921 0.0
C916 C 0.83377 0.18575 0.41551 0.0
C917 C 0.8364 0.16171 0.42981 0.0
C918 C 0.81739 0.13935 0.42049 0.0
H919 H 0.90901 0.05824 0.4772 0.0
H920 H 0.88303 0.08694 0.47883 0.0
C921 C 0.79745 0.1409 0.39547 0.0
C922 C 0.86076 0.15908 0.45073 0.0
H923 H 0.92372 0.15935 0.44406 0.0
C924 C 0.85785 0.14386 0.48022 0.0
C925 C 0.8856 0.1664 0.43874 0.0
C926 C 0.8901 0.18288 0.4073 0.0
C927 C 0.87799 0.13322 0.49609 0.0
C928 C 0.90124 0.13768 0.48181 0.0
C929 C 0.90567 0.15575 0.45473 0.0
C930 C 0.91726 0.11941 0.489 0.0
C931 C 0.87341 0.1157 0.52674 0.0
C932 C 0.94522 0.12803 0.49443 0.0
C933 C 0.96023 0.11155 0.49333 0.0
C934 C 0.94743 0.08646 0.48611 0.0
C935 C 0.91946 0.07757 0.48237 0.0
C936 C 0.90455 0.09385 0.48387 0.0
H937 H 0.86116 0.12185 0.54036 0.0
H938 H 0.86233 0.09592 0.52165 0.0
H939 H 0.89258 0.11531 0.54147 0.0
H940 H 0.95539 0.14779 0.49799 0.0
H941 H 0.9818 0.11884 0.49658 0.0
H942 H 0.81058 0.81386 0.33466 0.0
H943 H 0.83886 0.85088 0.35896 0.0
H944 H 0.86645 0.88732 0.26948 0.0
H945 H 0.83663 0.85077 0.24429 0.0
H946 H 0.89121 0.86473 0.36369 0.0
H947 H 0.85582 0.94687 0.30151 0.0
H948 H 0.83665 0.91393 0.29829 0.0
H949 H 0.86395 0.92942 0.27546 0.0
C950 C 0.82226 0.82983 0.31984 0.0
C951 C 0.82176 0.82902 0.28753 0.0
C952 C 0.83845 0.85106 0.33388 0.0
C953 C 0.85474 0.8719 0.31609 0.0
C954 C 0.85372 0.87163 0.2836 0.0
H955 H 0.9992 0.98307 0.37761 0.0
H956 H 0.96073 0.95725 0.34644 0.0
C957 C 0.83704 0.85049 0.26933 0.0
C958 C 0.87464 0.89237 0.33253 0.0
H959 H 0.89758 0.9571 0.33476 0.0
C960 C 0.89237 0.88488 0.35752 0.0
C961 C 0.87619 0.91867 0.32437 0.0
C962 C 0.85697 0.92772 0.29864 0.0
C963 C 0.91172 0.90294 0.37441 0.0
C964 C 0.91349 0.92917 0.36602 0.0
C965 C 0.89593 0.93686 0.34107 0.0
C966 C 0.93454 0.94866 0.38238 0.0
C967 C 0.9305 0.89398 0.4009 0.0
C968 C 0.93211 0.9528 0.41252 0.0
C969 C 0.95406 0.96751 0.4305 0.0
C970 C 0.97875 0.97801 0.41859 0.0
C971 C 0.98054 0.97498 0.38761 0.0
C972 C 0.95857 0.96044 0.36964 0.0
H973 H 0.92764 0.87302 0.40301 0.0
H974 H 0.95151 0.90437 0.39711 0.0
H975 H 0.9272 0.8984 0.42358 0.0
H976 H 0.91363 0.94363 0.42267 0.0
H977 H 0.95202 0.96955 0.45423 0.0
H978 H 0.16894 0.89162 0.24858 0.0
H979 H 0.15588 0.91529 0.28221 0.0
H980 H 0.22376 0.91069 0.35088 0.0
H981 H 0.2376 0.88764 0.31661 0.0
H982 H 0.14299 0.8994 0.34281 0.0
H983 H 0.22985 0.98753 0.33846 0.0
H984 H 0.22279 0.96445 0.3112 0.0
H985 H 0.23729 0.9575 0.35102 0.0
C986 C 0.18134 0.89589 0.27064 0.0
C987 C 0.20448 0.88794 0.27972 0.0
C988 C 0.17374 0.9093 0.28995 0.0
C989 C 0.18905 0.91512 0.31884 0.0
C990 C 0.21193 0.90685 0.32839 0.0
H991 H 0.14136 0.99232 0.45102 0.0
H992 H 0.16847 0.97264 0.42873 0.0
C993 C 0.21961 0.89339 0.30897 0.0
C994 C 0.18021 0.92921 0.33893 0.0
H995 H 0.19565 0.98673 0.36708 0.0
C996 C 0.15467 0.91838 0.34837 0.0
C997 C 0.1955 0.95394 0.34633 0.0
C998 C 0.22282 0.96673 0.33611 0.0
C999 C 0.14357 0.93193 0.36388 0.0
C1000 C 0.15835 0.95704 0.37014 0.0
C1001 C 0.18442 0.96748 0.36218 0.0
C1002 C 0.14578 0.97317 0.38234 0.0
C1003 C 0.1157 0.91944 0.37259 0.0
C1004 C 0.1249 0.98093 0.36325 0.0
C1005 C 0.10934 0.99184 0.37591 0.0
C1006 C 0.11438 0.99531 0.40795 0.0
C1007 C 0.13685 0.98969 0.42634 0.0
C1008 C 0.15236 0.97848 0.41366 0.0
H1009 H 0.11112 0.8982 0.37707 0.0
H1010 H 0.11281 0.92634 0.39379 0.0
H1011 H 0.10119 0.9243 0.3527 0.0
H1012 H 0.1197 0.9772 0.33894 0.0
H1013 H 0.0924 0.99623 0.36093 0.0
H1014 H 0.20493 0.87626 0.60917 0.0
H1015 H 0.18645 0.88689 0.55497 0.0
H1016 H 0.16473 0.8074 0.54079 0.0
H1017 H 0.18217 0.79636 0.59578 0.0
H1018 H 0.19314 0.88 0.49366 0.0
H1019 H 0.09289 0.82186 0.52768 0.0
H1020 H 0.12127 0.8287 0.55754 0.0
H1021 H 0.11876 0.80681 0.53041 0.0
C1022 C 0.19632 0.86102 0.59454 0.0
C1023 C 0.19447 0.83542 0.60699 0.0
C1024 C 0.18612 0.86716 0.56339 0.0
C1025 C 0.17394 0.84788 0.54395 0.0
C1026 C 0.17375 0.82251 0.55551 0.0
H1027 H 0.05745 0.91646 0.44021 0.0
H1028 H 0.0822 0.88638 0.43667 0.0
C1029 C 0.18386 0.81629 0.58689 0.0
C1030 C 0.15836 0.85453 0.51373 0.0
H1031 H 0.09498 0.85757 0.4898 0.0
C1032 C 0.17154 0.87439 0.49188 0.0
C1033 C 0.13014 0.84669 0.51068 0.0
C1034 C 0.11476 0.82486 0.53272 0.0
C1035 C 0.15757 0.88935 0.4707 0.0
C1036 C 0.13003 0.88443 0.47198 0.0
C1037 C 0.11625 0.86168 0.4894 0.0
C1038 C 0.11775 0.90565 0.46562 0.0
C1039 C 0.1729 0.9121 0.44988 0.0
C1040 C 0.12964 0.92656 0.48264 0.0
C1041 C 0.11532 0.94293 0.48558 0.0
C1042 C 0.08906 0.93917 0.47094 0.0
C1043 C 0.07779 0.91969 0.4516 0.0
C1044 C 0.0919 0.90264 0.44947 0.0
H1045 H 0.18764 0.90674 0.43929 0.0
H1046 H 0.15949 0.91957 0.43073 0.0
H1047 H 0.18419 0.92763 0.46433 0.0
H1048 H 0.14919 0.92896 0.4961 0.0
H1049 H 0.12443 0.95793 0.50049 0.0
H1050 H 0.26583 0.19256 0.6923 0.0
H1051 H 0.23549 0.16144 0.65909 0.0
H1052 H 0.16942 0.16164 0.70425 0.0
H1053 H 0.19974 0.19266 0.73751 0.0
H1054 H 0.16663 0.11263 0.68982 0.0
H1055 H 0.18627 0.18939 0.58761 0.0
H1056 H 0.2154 0.18183 0.60921 0.0
H1057 H 0.19665 0.19571 0.62791 0.0
C1058 C 0.24492 0.18544 0.69562 0.0
C1059 C 0.23506 0.19482 0.71756 0.0
C1060 C 0.22764 0.1678 0.6766 0.0
C1061 C 0.20021 0.15967 0.67888 0.0
C1062 C 0.19058 0.16771 0.70221 0.0
H1063 H 0.06667 0.11045 0.5401 0.0
H1064 H 0.10272 0.13312 0.57687 0.0
C1065 C 0.20793 0.18524 0.72144 0.0
C1066 C 0.1813 0.14482 0.65511 0.0
H1067 H 0.15758 0.14889 0.57673 0.0
C1068 C 0.1647 0.12042 0.66506 0.0
C1069 C 0.17863 0.15535 0.62294 0.0
C1070 C 0.19498 0.18209 0.61121 0.0
C1071 C 0.14538 0.10619 0.64359 0.0
C1072 C 0.14302 0.11658 0.61135 0.0
C1073 C 0.1597 0.14093 0.60143 0.0
C1074 C 0.12223 0.10318 0.58782 0.0
C1075 C 0.12709 0.08059 0.65574 0.0
C1076 C 0.12175 0.07918 0.58114 0.0
C1077 C 0.10113 0.06611 0.56015 0.0
C1078 C 0.08075 0.07694 0.54537 0.0
C1079 C 0.08198 0.10151 0.55113 0.0
C1080 C 0.10255 0.1145 0.57217 0.0
H1081 H 0.12758 0.07805 0.68179 0.0
H1082 H 0.1062 0.07846 0.64471 0.0
H1083 H 0.13348 0.06498 0.6496 0.0
H1084 H 0.13714 0.07042 0.59247 0.0
H1085 H 0.10088 0.04731 0.55603 0.0
H1086 H 0.87544 0.12619 0.76066 0.0
H1087 H 0.89234 0.1081 0.72442 0.0
H1088 H 0.88458 0.1703 0.65154 0.0
H1089 H 0.87051 0.19012 0.68857 0.0
H1090 H 0.87461 0.0898 0.6723 0.0
H1091 H 0.95975 0.17621 0.64854 0.0
H1092 H 0.9387 0.17347 0.67807 0.0
H1093 H 0.92827 0.18265 0.63705 0.0
C1094 C 0.87784 0.13645 0.73718 0.0
C1095 C 0.87212 0.16008 0.72807 0.0
C1096 C 0.88717 0.12579 0.71623 0.0
C1097 C 0.89051 0.13816 0.68539 0.0
C1098 C 0.88314 0.16082 0.6755 0.0
H1099 H 0.92964 0.05724 0.55055 0.0
H1100 H 0.90515 0.07494 0.57917 0.0
C1101 C 0.87451 0.1719 0.6967 0.0
C1102 C 0.90229 0.12751 0.66411 0.0
H1103 H 0.95269 0.14265 0.6184 0.0
C1104 C 0.89175 0.10134 0.66059 0.0
C1105 C 0.92486 0.14247 0.64902 0.0
C1106 C 0.93873 0.17016 0.6536 0.0
C1107 C 0.90344 0.0896 0.64313 0.0
C1108 C 0.92562 0.10471 0.62747 0.0
C1109 C 0.93566 0.13102 0.63028 0.0
C1110 C 0.93996 0.0936 0.60975 0.0
C1111 C 0.89255 0.06095 0.64295 0.0
C1112 C 0.96781 0.09885 0.61647 0.0
C1113 C 0.98188 0.08961 0.59929 0.0
C1114 C 0.96836 0.07439 0.57551 0.0
C1115 C 0.94048 0.06865 0.56909 0.0
C1116 C 0.92645 0.07861 0.58562 0.0
H1117 H 0.88131 0.05144 0.66332 0.0
H1118 H 0.87858 0.05695 0.6211 0.0
H1119 H 0.90878 0.05216 0.64369 0.0
H1120 H 0.97878 0.1103 0.63494 0.0
H1121 H 1.00338 0.09434 0.60468 0.0
H1122 H 0.83024 0.80202 0.66671 0.0
H1123 H 0.86535 0.83415 0.64031 0.0
H1124 H 0.91225 0.84854 0.7302 0.0
H1125 H 0.87727 0.81556 0.75711 0.0
H1126 H 0.8841 0.88658 0.64966 0.0
H1127 H 0.96445 0.83855 0.67599 0.0
H1128 H 0.93 0.82116 0.68008 0.0
H1129 H 0.94951 0.84145 0.70881 0.0
C1130 C 0.848 0.81179 0.68106 0.0
C1131 C 0.85061 0.8066 0.71417 0.0
C1132 C 0.86806 0.83024 0.66584 0.0
C1133 C 0.89126 0.84379 0.68331 0.0
C1134 C 0.89446 0.8382 0.71632 0.0
H1135 H 0.99601 0.97946 0.58078 0.0
H1136 H 0.96957 0.95227 0.6218 0.0
C1137 C 0.87434 0.81956 0.73165 0.0
C1138 C 0.91144 0.86419 0.66641 0.0
H1139 H 0.97308 0.8782 0.64323 0.0
C1140 C 0.90372 0.88501 0.64854 0.0
C1141 C 0.93689 0.86186 0.66502 0.0
C1142 C 0.94581 0.83951 0.6833 0.0
C1143 C 0.92037 0.90307 0.62817 0.0
C1144 C 0.94558 0.90042 0.62616 0.0
C1145 C 0.95374 0.88016 0.64499 0.0
C1146 C 0.96264 0.91699 0.60247 0.0
C1147 C 0.91025 0.924 0.60777 0.0
C1148 C 0.96789 0.90604 0.57845 0.0
C1149 C 0.98307 0.92143 0.55514 0.0
C1150 C 0.99335 0.9481 0.55544 0.0
C1151 C 0.98826 0.959 0.57975 0.0
C1152 C 0.97312 0.94353 0.60318 0.0
H1153 H 0.88849 0.92034 0.6078 0.0
H1154 H 0.92076 0.94257 0.61682 0.0
H1155 H 0.91428 0.92593 0.58305 0.0
H1156 H 0.95989 0.88558 0.57749 0.0
H1157 H 0.98661 0.91238 0.5368 0.0
H1158 H 0.33348 0.16623 0.15989 0.0
H1159 H 0.36148 0.14319 0.14563 0.0
H1160 H 0.34862 0.17525 0.04823 0.0
H1161 H 0.32204 0.19923 0.06238 0.0
H1162 H 0.34991 0.1067 0.1066 0.0
H1163 H 0.42824 0.19166 0.06118 0.0
H1164 H 0.40358 0.19418 0.08322 0.0
H1165 H 0.39568 0.19158 0.04166 0.0
C1166 C 0.33703 0.16876 0.13553 0.0
C1167 C 0.32537 0.18465 0.11235 0.0
C1168 C 0.35284 0.15535 0.12735 0.0
C1169 C 0.35751 0.15766 0.09586 0.0
C1170 C 0.34585 0.17346 0.07276 0.0
H1171 H 0.41569 0.05444 0.01272 0.0
H1172 H 0.3873 0.07507 0.03109 0.0
C1173 C 0.33027 0.18695 0.0809 0.0
C1174 C 0.37415 0.14338 0.08685 0.0
H1175 H 0.4275 0.15142 0.04803 0.0
C1176 C 0.36701 0.11649 0.094 0.0
C1177 C 0.39667 0.15608 0.07067 0.0
C1178 C 0.40667 0.18497 0.06402 0.0
C1179 C 0.38145 0.102 0.085 0.0
C1180 C 0.40332 0.11466 0.06771 0.0
C1181 C 0.4106 0.14157 0.06095 0.0
C1182 C 0.41986 0.10078 0.05757 0.0
C1183 C 0.37346 0.07335 0.09475 0.0
C1184 C 0.44764 0.10848 0.06578 0.0
C1185 C 0.46381 0.09708 0.05487 0.0
C1186 C 0.4527 0.07746 0.03561 0.0
C1187 C 0.42483 0.06928 0.02783 0.0
C1188 C 0.40858 0.081 0.03847 0.0
H1189 H 0.36165 0.0677 0.11501 0.0
H1190 H 0.36089 0.0637 0.0747 0.0
H1191 H 0.39123 0.06623 0.10134 0.0
H1192 H 0.45693 0.1236 0.08046 0.0
H1193 H 0.48518 0.10382 0.06147 0.0
H1194 H 0.81352 0.3013 0.1597 0.0
H1195 H 0.85291 0.32918 0.13571 0.0
H1196 H 0.88659 0.35809 0.22426 0.0
H1197 H 0.84721 0.33012 0.24824 0.0
H1198 H 0.87803 0.39582 0.168 0.0
H1199 H 0.93478 0.33222 0.14763 0.0
H1200 H 0.89889 0.32143 0.14001 0.0
H1201 H 0.91473 0.32438 0.17966 0.0
C1202 C 0.82989 0.31264 0.17442 0.0
C1203 C 0.82782 0.31276 0.2062 0.0
C1204 C 0.85231 0.32876 0.16062 0.0
C1205 C 0.87276 0.34562 0.17825 0.0
C1206 C 0.87118 0.34506 0.21032 0.0
H1207 H 1.02231 0.45062 0.12592 0.0
H1208 H 0.9862 0.42 0.15275 0.0
C1209 C 0.84884 0.32886 0.2241 0.0
C1210 C 0.89406 0.36589 0.16243 0.0
H1211 H 0.94948 0.37591 0.1266 0.0
C1212 C 0.89368 0.3915 0.15895 0.0
C1213 C 0.91442 0.3602 0.1507 0.0
C1214 C 0.91602 0.33311 0.15468 0.0
C1215 C 0.91309 0.41156 0.14389 0.0
C1216 C 0.93334 0.40585 0.13189 0.0
C1217 C 0.93382 0.38024 0.1356 0.0
C1218 C 0.95479 0.42622 0.11635 0.0
C1219 C 0.91211 0.43878 0.14141 0.0
C1220 C 0.94911 0.44038 0.08713 0.0
C1221 C 0.96982 0.45807 0.07157 0.0
C1222 C 0.99661 0.46185 0.08493 0.0
C1223 C 1.002 0.44829 0.1148 0.0
C1224 C 0.98136 0.43063 0.1302 0.0
H1225 H 0.89845 0.44049 0.15705 0.0
H1226 H 0.93232 0.45186 0.14756 0.0
H1227 H 0.9049 0.44525 0.11673 0.0
H1228 H 0.92874 0.4371 0.07585 0.0
H1229 H 0.96489 0.46791 0.0485 0.0
H1230 H 0.76188 0.82835 0.21371 0.0
H1231 H 0.73907 0.85889 0.18208 0.0
H1232 H 0.66895 0.79592 0.16283 0.0
H1233 H 0.69123 0.76585 0.1949 0.0
H1234 H 0.71597 0.86815 0.12207 0.0
H1235 H 0.63548 0.83787 0.19831 0.0
H1236 H 0.66504 0.82743 0.20863 0.0
H1237 H 0.6377 0.81136 0.18167 0.0
C1238 C 0.74174 0.82104 0.20234 0.0
C1239 C 0.72849 0.7945 0.20683 0.0
C1240 C 0.72855 0.83858 0.18431 0.0
C1241 C 0.70169 0.8301 0.17054 0.0
C1242 C 0.68916 0.80344 0.17386 0.0
H1243 H 0.58173 0.90165 0.05706 0.0
H1244 H 0.60796 0.87214 0.08204 0.0
C1245 C 0.70212 0.78609 0.192 0.0
C1246 C 0.68642 0.8487 0.1534 0.0
H1247 H 0.62784 0.86379 0.14966 0.0
C1248 C 0.69681 0.86722 0.12837 0.0
C1249 C 0.66123 0.84798 0.16122 0.0
C1250 C 0.64934 0.83029 0.18912 0.0
C1251 C 0.68268 0.88423 0.11086 0.0
C1252 C 0.65732 0.88307 0.11834 0.0
C1253 C 0.64701 0.86469 0.14339 0.0
C1254 C 0.64168 0.90132 0.10142 0.0
C1255 C 0.6948 0.90307 0.08393 0.0
C1256 C 0.65151 0.92777 0.1037 0.0
C1257 C 0.63638 0.94463 0.08974 0.0
C1258 C 0.61085 0.93579 0.0727 0.0
C1259 C 0.60122 0.90937 0.06979 0.0
C1260 C 0.61627 0.89238 0.08422 0.0
H1261 H 0.71121 0.89792 0.07651 0.0
H1262 H 0.67944 0.9041 0.06329 0.0
H1263 H 0.70309 0.92245 0.09147 0.0
H1264 H 0.67075 0.93538 0.11703 0.0
H1265 H 0.64468 0.96474 0.09268 0.0
H1266 H 0.23213 0.75434 0.14766 0.0
H1267 H 0.20249 0.72772 0.10877 0.0
H1268 H 0.19657 0.6603 0.17769 0.0
H1269 H 0.22532 0.68659 0.21674 0.0
H1270 H 0.20792 0.65719 0.11382 0.0
H1271 H 0.12021 0.69162 0.11452 0.0
H1272 H 0.15189 0.71526 0.10933 0.0
H1273 H 0.14732 0.69507 0.14635 0.0
C1274 C 0.22424 0.7339 0.15462 0.0
C1275 C 0.23088 0.72266 0.18541 0.0
C1276 C 0.20748 0.71873 0.13234 0.0
C1277 C 0.19732 0.69212 0.14051 0.0
C1278 C 0.2043 0.68081 0.17097 0.0
H1279 H 0.09288 0.55572 0.07101 0.0
H1280 H 0.12902 0.58816 0.09663 0.0
C1281 C 0.22082 0.69592 0.19323 0.0
C1282 C 0.17889 0.6758 0.11777 0.0
H1283 H 0.11418 0.65889 0.08389 0.0
C1284 C 0.18748 0.65768 0.10693 0.0
C1285 C 0.15235 0.67665 0.10886 0.0
C1286 C 0.14216 0.69556 0.12039 0.0
C1287 C 0.17001 0.64001 0.08773 0.0
C1288 C 0.1431 0.64009 0.07993 0.0
C1289 C 0.13479 0.65881 0.08996 0.0
C1290 C 0.12281 0.62023 0.06279 0.0
C1291 C 0.18057 0.62148 0.07599 0.0
C1292 C 0.10708 0.62746 0.03547 0.0
C1293 C 0.08616 0.60901 0.02105 0.0
C1294 C 0.08052 0.58291 0.0337 0.0
C1295 C 0.09678 0.57562 0.06057 0.0
C1296 C 0.11759 0.59414 0.07512 0.0
H1297 H 0.20241 0.62923 0.07497 0.0
H1298 H 0.17697 0.60331 0.09251 0.0
H1299 H 0.17048 0.61705 0.05219 0.0
H1300 H 0.1107 0.64749 0.02562 0.0
H1301 H 0.07412 0.61527 1.00028 0.0
H1302 H 0.32422 0.82983 0.79136 0.0
H1303 H 0.35447 0.8588 0.82716 0.0
H1304 H 0.3732 0.79421 0.88727 0.0
H1305 H 0.34227 0.76512 0.85178 0.0
H1306 H 0.35628 0.85988 0.8932 0.0
H1307 H 0.44619 0.84215 0.86405 0.0
H1308 H 0.41407 0.83297 0.84055 0.0
H1309 H 0.42065 0.814 0.87741 0.0
C1310 C 0.3342 0.82178 0.81265 0.0
C1311 C 0.33088 0.79529 0.81894 0.0
C1312 C 0.35169 0.83834 0.8329 0.0
C1313 C 0.3663 0.82868 0.85963 0.0
C1314 C 0.36244 0.80209 0.86645 0.0
H1315 H 0.49556 0.90571 0.99258 0.0
H1316 H 0.45967 0.87405 0.96555 0.0
C1317 C 0.3449 0.78552 0.84617 0.0
C1318 C 0.3862 0.8466 0.87967 0.0
H1319 H 0.45305 0.86943 0.9026 0.0
C1320 C 0.37744 0.86197 0.89535 0.0
C1321 C 0.41377 0.84926 0.88234 0.0
C1322 C 0.42437 0.83391 0.86503 0.0
C1323 C 0.39556 0.87984 0.91389 0.0
C1324 C 0.42317 0.88272 0.91625 0.0
C1325 C 0.43187 0.86715 0.90079 0.0
C1326 C 0.44355 0.90205 0.93414 0.0
C1327 C 0.38495 0.89519 0.93113 0.0
C1328 C 0.44635 0.92835 0.92555 0.0
C1329 C 0.46684 0.94658 0.94104 0.0
C1330 C 0.4851 0.93883 0.96519 0.0
C1331 C 0.48193 0.91241 0.97404 0.0
C1332 C 0.46142 0.89425 0.95862 0.0
H1333 H 0.3636 0.88578 0.93418 0.0
H1334 H 0.39657 0.89794 0.95473 0.0
H1335 H 0.3866 0.91439 0.91726 0.0
H1336 H 0.43313 0.93484 0.90628 0.0
H1337 H 0.46874 0.96674 0.93353 0.0
H1338 H 0.16988 0.2811 0.90737 0.0
H1339 H 0.1534 0.31259 0.92397 0.0
H1340 H 0.2216 0.37322 0.89361 0.0
H1341 H 0.23835 0.34165 0.87692 0.0
H1342 H 0.1784 0.34484 0.96926 0.0
H1343 H 0.1596 0.40163 0.85298 0.0
H1344 H 0.16481 0.37052 0.85648 0.0
H1345 H 0.19265 0.3983 0.86319 0.0
C1346 C 0.18144 0.30113 0.90417 0.0
C1347 C 0.20555 0.30877 0.89091 0.0
C1348 C 0.17192 0.31915 0.91361 0.0
C1349 C 0.18612 0.34535 0.90991 0.0
C1350 C 0.21001 0.3532 0.89623 0.0
H1351 H 0.13837 0.46952 0.96684 0.0
H1352 H 0.16575 0.44693 0.94983 0.0
C1353 C 0.21957 0.3351 0.88668 0.0
C1354 C 0.17612 0.364 0.92156 0.0
H1355 H 0.15068 0.41489 0.89762 0.0
C1356 C 0.17254 0.36026 0.95358 0.0
C1357 C 0.16864 0.38432 0.90124 0.0
C1358 C 0.17138 0.38893 0.8665 0.0
C1359 C 0.16112 0.37576 0.96563 0.0
C1360 C 0.15267 0.39539 0.94509 0.0
C1361 C 0.1572 0.39987 0.91335 0.0
C1362 C 0.13667 0.40951 0.95551 0.0
C1363 C 0.1578 0.37076 1.00024 0.0
C1364 C 0.11124 0.39607 0.96407 0.0
C1365 C 0.09561 0.40885 0.97349 0.0
C1366 C 0.10498 0.43549 0.97468 0.0
C1367 C 0.13057 0.44902 0.96623 0.0
C1368 C 0.1462 0.43615 0.95646 0.0
H1369 H 0.17205 0.36081 0.01431 0.0
H1370 H 0.16074 0.38893 0.0097 0.0
H1371 H 0.13728 0.35828 0.00337 0.0
H1372 H 0.10332 0.37559 0.9632 0.0
H1373 H 0.07608 0.3977 0.97991 0.0
H1374 H 0.75101 0.22752 0.84242 0.0
H1375 H 0.72417 0.19026 0.87485 0.0
H1376 H 0.67649 0.16243 0.79044 0.0
H1377 H 0.70321 0.19933 0.75829 0.0
H1378 H 0.66752 0.18123 0.87154 0.0
H1379 H 0.68629 0.09557 0.84004 0.0
H1380 H 0.71327 0.12351 0.84919 0.0
H1381 H 0.69181 0.12464 0.81254 0.0
C1382 C 0.73541 0.21288 0.83092 0.0
C1383 C 0.72965 0.21571 0.7979 0.0
C1384 C 0.72001 0.19173 0.84938 0.0
C1385 C 0.69871 0.17317 0.83504 0.0
C1386 C 0.69333 0.17595 0.80201 0.0
H1387 H 0.5464 0.08224 0.88581 0.0
H1388 H 0.58544 0.11175 0.86321 0.0
C1389 C 0.70851 0.19708 0.78367 0.0
C1390 C 0.67961 0.15305 0.85416 0.0
H1391 H 0.65 0.08827 0.86775 0.0
C1392 C 0.66397 0.1609 0.87105 0.0
C1393 C 0.67497 0.12649 0.85363 0.0
C1394 C 0.6924 0.11686 0.83794 0.0
C1395 C 0.6431 0.14302 0.88619 0.0
C1396 C 0.63757 0.1166 0.88417 0.0
C1397 C 0.65401 0.10859 0.8687 0.0
C1398 C 0.61403 0.09724 0.8968 0.0
C1399 C 0.62684 0.15254 0.90389 0.0
C1400 C 0.61712 0.07856 0.92245 0.0
C1401 C 0.59475 0.0615 0.93552 0.0
C1402 C 0.56886 0.06273 0.92297 0.0
C1403 C 0.56593 0.08072 0.89626 0.0
C1404 C 0.58826 0.09776 0.88337 0.0
H1405 H 0.63749 0.1722 0.90982 0.0
H1406 H 0.60783 0.15308 0.88896 0.0
H1407 H 0.62195 0.13948 0.92602 0.0
H1408 H 0.63688 0.07771 0.93297 0.0
H1409 H 0.59782 0.04795 0.95606 0.0
H1410 H 0.78942 0.6781 0.81327 0.0
H1411 H 0.82133 0.65673 0.84418 0.0
H1412 H 0.88614 0.72409 0.82172 0.0
H1413 H 0.85392 0.74585 0.79073 0.0
H1414 H 0.88385 0.66593 0.80916 0.0
H1415 H 0.87495 0.67634 0.93166 0.0
H1416 H 0.84743 0.67631 0.90078 0.0
H1417 H 0.87712 0.70297 0.90043 0.0
C1418 C 0.81044 0.68865 0.81536 0.0
C1419 C 0.81889 0.71395 0.79983 0.0
C1420 C 0.82875 0.67631 0.83309 0.0
C1421 C 0.85635 0.6886 0.83563 0.0
C1422 C 0.86502 0.71407 0.82045 0.0
H1423 H 0.9782 0.61961 0.95403 0.0
H1424 H 0.95259 0.64959 0.92865 0.0
C1425 C 0.84653 0.72663 0.80285 0.0
C1426 C 0.87567 0.67395 0.85242 0.0
H1427 H 0.90058 0.65004 0.92592 0.0
C1428 C 0.88763 0.66267 0.83469 0.0
C1429 C 0.88089 0.6695 0.88578 0.0
C1430 C 0.8695 0.68181 0.90607 0.0
C1431 C 0.90399 0.64686 0.84919 0.0
C1432 C 0.90846 0.64155 0.88267 0.0
C1433 C 0.89717 0.65358 0.90039 0.0
C1434 C 0.92397 0.62303 0.8994 0.0
C1435 C 0.91655 0.63616 0.82824 0.0
C1436 C 0.91638 0.59762 0.89254 0.0
C1437 C 0.931 0.58046 0.90702 0.0
C1438 C 0.95382 0.58785 0.92923 0.0
C1439 C 0.96099 0.61306 0.93697 0.0
C1440 C 0.94624 0.63032 0.92238 0.0
H1441 H 0.91848 0.64812 0.80483 0.0
H1442 H 0.93662 0.63487 0.83921 0.0
H1443 H 0.90369 0.6166 0.82423 0.0
H1444 H 0.89897 0.59089 0.87583 0.0
H1445 H 0.9244 0.56127 0.90047 0.0
H1446 H 0.27443 0.34859 0.20673 0.0
H1447 H 0.24343 0.37057 0.17531 0.0
H1448 H 0.18089 0.29867 0.17655 0.0
H1449 H 0.21197 0.27674 0.20949 0.0
H1450 H 0.21704 0.3699 0.11965 0.0
H1451 H 0.14078 0.33958 0.20223 0.0
H1452 H 0.1727 0.33346 0.21276 0.0
H1453 H 0.14645 0.31327 0.1885 0.0
C1454 C 0.25407 0.33734 0.20027 0.0
C1455 C 0.24602 0.3107 0.21038 0.0
C1456 C 0.2362 0.35003 0.1821 0.0
C1457 C 0.20927 0.33674 0.1735 0.0
C1458 C 0.20117 0.30989 0.18322 0.0
H1459 H 0.08101 0.40237 0.063 0.0
H1460 H 0.10679 0.37229 0.08765 0.0
C1461 C 0.21916 0.29713 0.20171 0.0
C1462 C 0.19035 0.35136 0.15458 0.0
H1463 H 0.13118 0.36461 0.15416 0.0
C1464 C 0.19826 0.36854 0.12739 0.0
C1465 C 0.16553 0.35003 0.16401 0.0
C1466 C 0.1559 0.3333 0.19361 0.0
C1467 C 0.18269 0.38424 0.11003 0.0
C1468 C 0.15819 0.38322 0.11977 0.0
C1469 C 0.14979 0.36556 0.14635 0.0
C1470 C 0.14212 0.40144 0.10393 0.0
C1471 C 0.19275 0.40199 0.08126 0.0
C1472 C 0.15298 0.42807 0.10452 0.0
C1473 C 0.13819 0.44526 0.09072 0.0
C1474 C 0.1119 0.43662 0.07546 0.0
C1475 C 0.1011 0.40995 0.07436 0.0
C1476 C 0.11588 0.39263 0.08864 0.0
H1477 H 0.20679 0.39521 0.07123 0.0
H1478 H 0.17604 0.40382 0.0627 0.0
H1479 H 0.20356 0.42134 0.08802 0.0
H1480 H 0.17294 0.43565 0.11622 0.0
H1481 H 0.14745 0.46551 0.09224 0.0
H1482 H 0.25777 0.72425 0.85061 0.0
H1483 H 0.22107 0.69189 0.87564 0.0
H1484 H 0.20488 0.64852 0.79743 0.0
H1485 H 0.24025 0.68165 0.77173 0.0
H1486 H 0.16067 0.64977 0.81009 0.0
H1487 H 0.2161 0.62325 0.92423 0.0
H1488 H 0.22028 0.65709 0.91687 0.0
H1489 H 0.23253 0.64231 0.89118 0.0
C1490 C 0.24621 0.70781 0.83887 0.0
C1491 C 0.25144 0.70561 0.80907 0.0
C1492 C 0.22551 0.68907 0.85337 0.0
C1493 C 0.21032 0.66732 0.83882 0.0
C1494 C 0.21613 0.66499 0.80928 0.0
H1495 H 0.09646 0.5388 0.9416 0.0
H1496 H 0.13545 0.56519 0.91544 0.0
C1497 C 0.23641 0.68391 0.79459 0.0
C1498 C 0.18737 0.64776 0.8532 0.0
H1499 H 0.16849 0.60998 0.92169 0.0
C1500 C 0.16255 0.64095 0.83444 0.0
C1501 C 0.18966 0.63553 0.88473 0.0
C1502 C 0.21615 0.63968 0.90532 0.0
C1503 C 0.14002 0.62296 0.84639 0.0
C1504 C 0.1418 0.61224 0.87862 0.0
C1505 C 0.1668 0.61842 0.89717 0.0
C1506 C 0.11783 0.59545 0.8937 0.0
C1507 C 0.11473 0.61533 0.82392 0.0
C1508 C 0.09491 0.60354 0.89057 0.0
C1509 C 0.07248 0.58824 0.90474 0.0
C1510 C 0.0725 0.56466 0.92337 0.0
C1511 C 0.09562 0.55669 0.92714 0.0
C1512 C 0.11799 0.57186 0.91231 0.0
H1513 H 0.11924 0.61708 0.79941 0.0
H1514 H 0.10266 0.59529 0.83077 0.0
H1515 H 0.10262 0.62841 0.82378 0.0
H1516 H 0.09445 0.62203 0.87756 0.0
H1517 H 0.05536 0.59541 0.90188 0.0
H1518 H 0.29776 0.19388 0.79074 0.0
H1519 H 0.31999 0.16272 0.82201 0.0
H1520 H 0.39213 0.22429 0.83811 0.0
H1521 H 0.37015 0.25511 0.80712 0.0
H1522 H 0.36682 0.15231 0.81049 0.0
H1523 H 0.38513 0.1857 0.9273 0.0
H1524 H 0.36209 0.19527 0.89548 0.0
H1525 H 0.39731 0.21069 0.89624 0.0
C1526 C 0.31817 0.2008 0.80152 0.0
C1527 C 0.33191 0.22723 0.79683 0.0
C1528 C 0.33103 0.1829 0.81928 0.0
C1529 C 0.35791 0.1909 0.83312 0.0
C1530 C 0.37138 0.21733 0.82854 0.0
H1531 H 0.47859 0.11833 0.94287 0.0
H1532 H 0.45274 0.1479 0.91701 0.0
C1533 C 0.35871 0.23505 0.81061 0.0
C1534 C 0.37249 0.17187 0.85078 0.0
H1535 H 0.40843 0.15674 0.92147 0.0
C1536 C 0.37563 0.15316 0.83487 0.0
C1537 C 0.3847 0.17294 0.88253 0.0
C1538 C 0.382 0.19208 0.90155 0.0
C1539 C 0.39087 0.13623 0.84923 0.0
C1540 C 0.40279 0.13698 0.88123 0.0
C1541 C 0.39952 0.1557 0.89715 0.0
C1542 C 0.41853 0.11865 0.89841 0.0
C1543 C 0.39495 0.11851 0.82913 0.0
C1544 C 0.40815 0.09191 0.89801 0.0
C1545 C 0.42312 0.07501 0.91245 0.0
C1546 C 0.44895 0.08394 0.92871 0.0
C1547 C 0.45892 0.11053 0.93059 0.0
C1548 C 0.44401 0.12757 0.91565 0.0
H1549 H 0.39294 0.12622 0.80367 0.0
H1550 H 0.41491 0.11541 0.83571 0.0
H1551 H 0.37946 0.0997 0.83225 0.0
H1552 H 0.38829 0.08391 0.88636 0.0
H1553 H 0.41434 0.05473 0.91074 0.0
H1554 H 0.82086 0.34173 0.80079 0.0
H1555 H 0.85148 0.36831 0.83852 0.0
H1556 H 0.84745 0.30133 0.90777 0.0
H1557 H 0.81627 0.27447 0.87019 0.0
H1558 H 0.84801 0.37455 0.90346 0.0
H1559 H 0.92794 0.33229 0.89328 0.0
H1560 H 0.8981 0.32869 0.86531 0.0
H1561 H 0.89675 0.31033 0.90381 0.0
C1562 C 0.82607 0.33259 0.82415 0.0
C1563 C 0.81658 0.30582 0.83217 0.0
C1564 C 0.84362 0.34787 0.84572 0.0
C1565 C 0.85208 0.33673 0.8757 0.0
C1566 C 0.84147 0.31024 0.88453 0.0
H1567 H 0.98926 0.40915 0.00543 0.0
H1568 H 0.94942 0.37833 0.98278 0.0
C1569 C 0.82372 0.29493 0.863 0.0
C1570 C 0.87327 0.35276 0.89669 0.0
H1571 H 0.93942 0.36539 0.92478 0.0
C1572 C 0.86796 0.37245 0.90841 0.0
C1573 C 0.89921 0.34988 0.90316 0.0
C1574 C 0.90607 0.3293 0.89064 0.0
C1575 C 0.88804 0.38956 0.92619 0.0
C1576 C 0.91429 0.38734 0.93158 0.0
C1577 C 0.91934 0.36714 0.92061 0.0
C1578 C 0.93716 0.40643 0.94704 0.0
C1579 C 0.88086 0.40974 0.93911 0.0
C1580 C 0.94356 0.43253 0.93455 0.0
C1581 C 0.96623 0.45024 0.94758 0.0
C1582 C 0.98325 0.44215 0.97307 0.0
C1583 C 0.97666 0.41604 0.98575 0.0
C1584 C 0.95386 0.39838 0.97284 0.0
H1585 H 0.85939 0.40358 0.94238 0.0
H1586 H 0.89296 0.41411 0.96206 0.0
H1587 H 0.88461 0.42763 0.92211 0.0
H1588 H 0.93145 0.43915 0.91411 0.0
H1589 H 0.97076 0.47016 0.93709 0.0
H1590 H 0.7799 0.88462 0.89813 0.0
H1591 H 0.75075 0.90508 0.91465 0.0
H1592 H 0.68261 0.84116 0.89215 0.0
H1593 H 0.71178 0.82021 0.87625 0.0
H1594 H 0.7067 0.92022 0.88238 0.0
H1595 H 0.67785 0.84564 0.98425 0.0
H1596 H 0.70545 0.84808 0.96366 0.0
H1597 H 0.67179 0.83346 0.94714 0.0
C1598 C 0.75871 0.87481 0.89679 0.0
C1599 C 0.74827 0.85057 0.88618 0.0
C1600 C 0.74205 0.88664 0.9061 0.0
C1601 C 0.71453 0.87449 0.90524 0.0
C1602 C 0.70385 0.85071 0.89362 0.0
H1603 H 0.58027 0.90715 0.95723 0.0
H1604 H 0.61121 0.8899 0.93925 0.0
C1605 C 0.72053 0.83888 0.88419 0.0
C1606 C 0.69717 0.88662 0.91684 0.0
H1607 H 0.65513 0.87736 0.97205 0.0
C1608 C 0.69549 0.9109 0.90207 0.0
C1609 C 0.68268 0.87457 0.94269 0.0
C1610 C 0.68464 0.84911 0.96061 0.0
C1611 C 0.67914 0.92308 0.91179 0.0
C1612 C 0.66441 0.91089 0.93741 0.0
C1613 C 0.66637 0.88674 0.95241 0.0
C1614 C 0.64588 0.92216 0.94819 0.0
C1615 C 0.67715 0.94853 0.8939 0.0
C1616 C 0.65499 0.9461 0.95955 0.0
C1617 C 0.63718 0.95618 0.96988 0.0
C1618 C 0.60994 0.94242 0.96921 0.0
C1619 C 0.60104 0.9184 0.95805 0.0
C1620 C 0.61876 0.90842 0.94776 0.0
H1621 H 0.68451 0.95231 0.87054 0.0
H1622 H 0.65623 0.9493 0.89025 0.0
H1623 H 0.68949 0.96414 0.90773 0.0
H1624 H 0.67592 0.95687 0.96078 0.0
H1625 H 0.64478 0.97461 0.97856 0.0
H1626 H 0.82462 0.68118 0.12834 0.0
H1627 H 0.84231 0.64929 0.11361 0.0
H1628 H 0.91637 0.70788 0.09862 0.0
H1629 H 0.89896 0.73963 0.11325 0.0
H1630 H 0.86394 0.65294 0.05285 0.0
H1631 H 0.93785 0.64742 0.15889 0.0
H1632 H 0.90957 0.65895 0.15849 0.0
H1633 H 0.93846 0.67944 0.14096 0.0
C1634 C 0.84478 0.68716 0.12227 0.0
C1635 C 0.86035 0.71299 0.12195 0.0
C1636 C 0.8548 0.66896 0.11365 0.0
C1637 C 0.88074 0.67614 0.10513 0.0
C1638 C 0.89639 0.7018 0.10531 0.0
H1639 H 0.9931 0.62251 0.04092 0.0
H1640 H 0.96684 0.64389 0.06062 0.0
C1641 C 0.88634 0.71998 0.11355 0.0
C1642 C 0.89158 0.65724 0.09535 0.0
H1643 H 0.94269 0.63014 0.11459 0.0
C1644 C 0.88089 0.64758 0.06654 0.0
C1645 C 0.91372 0.65029 0.11317 0.0
C1646 C 0.9255 0.65935 0.14474 0.0
C1647 C 0.89262 0.63226 0.05436 0.0
C1648 C 0.91533 0.62598 0.07178 0.0
C1649 C 0.92532 0.63489 0.10115 0.0
C1650 C 0.93056 0.61223 0.05895 0.0
C1651 C 0.88147 0.62408 0.02222 0.0
C1652 C 0.91906 0.58706 0.05131 0.0
C1653 C 0.9342 0.57458 0.03982 0.0
C1654 C 0.96117 0.587 0.03592 0.0
C1655 C 0.97246 0.61217 0.04362 0.0
C1656 C 0.95742 0.62453 0.05498 0.0
H1657 H 0.86744 0.6347 0.00923 0.0
H1658 H 0.89778 0.62714 0.00776 0.0
H1659 H 0.87051 0.60331 0.02498 0.0
H1660 H 0.89849 0.57694 0.05461 0.0
H1661 H 0.92485 0.55522 0.0342 0.0
H1662 H 0.3044 0.79244 0.15182 0.0
H1663 H 0.33745 0.82695 0.12328 0.0
H1664 H 0.38473 0.84533 0.21184 0.0
H1665 H 0.3517 0.811 0.24027 0.0
H1666 H 0.37474 0.8892 0.16683 0.0
H1667 H 0.41458 0.82563 0.11536 0.0
H1668 H 0.37893 0.81944 0.11013 0.0
H1669 H 0.39611 0.81431 0.14894 0.0
C1670 C 0.32183 0.80401 0.16503 0.0
C1671 C 0.32524 0.79977 0.19812 0.0
C1672 C 0.3407 0.82357 0.1488 0.0
C1673 C 0.36348 0.83875 0.16548 0.0
C1674 C 0.36719 0.834 0.19856 0.0
H1675 H 0.51435 0.93773 0.11707 0.0
H1676 H 0.47634 0.90745 0.14087 0.0
C1677 C 0.34835 0.81449 0.21474 0.0
C1678 C 0.38367 0.85952 0.14864 0.0
H1679 H 0.43304 0.87024 0.1025 0.0
C1680 C 0.38732 0.88511 0.15251 0.0
C1681 C 0.40019 0.85409 0.1302 0.0
C1682 C 0.39752 0.8269 0.12594 0.0
C1683 C 0.40722 0.9054 0.13855 0.0
C1684 C 0.42391 0.89991 0.12042 0.0
C1685 C 0.42009 0.87436 0.1163 0.0
C1686 C 0.44662 0.92013 0.1072 0.0
C1687 C 0.4109 0.93251 0.14395 0.0
C1688 C 0.4425 0.93769 0.08061 0.0
C1689 C 0.4643 0.95513 0.06672 0.0
C1690 C 0.4906 0.95528 0.07924 0.0
C1691 C 0.49448 0.93826 0.10666 0.0
C1692 C 0.47275 0.92083 0.12034 0.0
H1693 H 0.39785 0.93335 0.16091 0.0
H1694 H 0.43201 0.94159 0.15301 0.0
H1695 H 0.40618 0.94396 0.12119 0.0
H1696 H 0.42243 0.93734 0.07002 0.0
H1697 H 0.46049 0.96782 0.04558 0.0
H1698 H 0.76082 0.20838 0.17038 0.0
H1699 H 0.73188 0.17757 0.13561 0.0
H1700 H 0.66617 0.20661 0.13844 0.0
H1701 H 0.69472 0.2374 0.17279 0.0
H1702 H 0.65804 0.15084 0.15674 0.0
H1703 H 0.69605 0.18968 0.04059 0.0
H1704 H 0.72 0.18782 0.07509 0.0
H1705 H 0.70063 0.20972 0.07093 0.0
C1706 C 0.74032 0.20846 0.1632 0.0
C1707 C 0.73 0.22516 0.17462 0.0
C1708 C 0.72386 0.1909 0.14331 0.0
C1709 C 0.69695 0.18991 0.13452 0.0
C1710 C 0.6869 0.20711 0.14503 0.0
H1711 H 0.56549 0.11227 0.00922 0.0
H1712 H 0.60307 0.14281 0.03588 0.0
C1713 C 0.70326 0.22463 0.16476 0.0
C1714 C 0.67851 0.16973 0.11644 0.0
H1715 H 0.6604 0.15129 0.04286 0.0
C1716 C 0.65865 0.15076 0.1319 0.0
C1717 C 0.67936 0.16995 0.08405 0.0
C1718 C 0.70002 0.19041 0.06644 0.0
C1719 C 0.63929 0.13209 0.11572 0.0
C1720 C 0.64006 0.13225 0.08327 0.0
C1721 C 0.66007 0.15113 0.06781 0.0
C1722 C 0.6192 0.11378 0.06483 0.0
C1723 C 0.61764 0.11287 0.13321 0.0
C1724 C 0.61627 0.08738 0.07172 0.0
C1725 C 0.59475 0.06982 0.05663 0.0
C1726 C 0.57581 0.0784 0.03431 0.0
C1727 C 0.57955 0.10497 0.02646 0.0
C1728 C 0.60108 0.12249 0.04157 0.0
H1729 H 0.61686 0.11852 0.15626 0.0
H1730 H 0.59782 0.11064 0.1189 0.0
H1731 H 0.62149 0.09391 0.13779 0.0
H1732 H 0.63028 0.08033 0.08933 0.0
H1733 H 0.59266 0.04953 0.063 0.0
H1734 H 0.73272 0.72358 0.83864 0.0
H1735 H 0.69438 0.69561 0.86363 0.0
H1736 H 0.65391 0.67416 0.77316 0.0
H1737 H 0.69138 0.70379 0.74761 0.0
H1738 H 0.62001 0.67925 0.80601 0.0
H1739 H 0.67831 0.61991 0.88293 0.0
H1740 H 0.6918 0.6528 0.88951 0.0
H1741 H 0.69208 0.64397 0.85157 0.0
C1742 C 0.71568 0.71301 0.82394 0.0
C1743 C 0.71555 0.71526 0.79114 0.0
C1744 C 0.69384 0.69679 0.83837 0.0
C1745 C 0.67171 0.68199 0.82046 0.0
C1746 C 0.671 0.68501 0.78756 0.0
H1747 H 0.56112 0.55303 0.92031 0.0
H1748 H 0.59358 0.57942 0.88514 0.0
C1749 C 0.69261 0.70172 0.773 0.0
C1750 C 0.6493 0.66352 0.83614 0.0
H1751 H 0.63539 0.61533 0.89725 0.0
C1752 C 0.6233 0.66505 0.82574 0.0
C1753 C 0.65347 0.64454 0.86134 0.0
C1754 C 0.68039 0.64 0.87172 0.0
C1755 C 0.60148 0.64869 0.84053 0.0
C1756 C 0.60598 0.63106 0.86729 0.0
C1757 C 0.63189 0.62905 0.87703 0.0
C1758 C 0.5844 0.61474 0.88599 0.0
C1759 C 0.57387 0.65026 0.82691 0.0
C1760 C 0.56824 0.6257 0.898 0.0
C1761 C 0.54919 0.61048 0.9174 0.0
C1762 C 0.54664 0.58424 0.92599 0.0
C1763 C 0.56281 0.57327 0.91409 0.0
C1764 C 0.58133 0.58833 0.89402 0.0
H1765 H 0.57287 0.65721 0.80121 0.0
H1766 H 0.55861 0.63134 0.83058 0.0
H1767 H 0.56885 0.66416 0.83849 0.0
H1768 H 0.57082 0.64614 0.89312 0.0
H1769 H 0.53717 0.61943 0.92665 0.0
H1770 H 0.34686 0.64868 0.86519 0.0
H1771 H 0.37142 0.65166 0.91767 0.0
H1772 H 0.30528 0.6648 0.95059 0.0
H1773 H 0.28016 0.66101 0.89749 0.0
H1774 H 0.38791 0.69008 0.95674 0.0
H1775 H 0.31567 0.60399 0.01287 0.0
H1776 H 0.31155 0.61099 0.97045 0.0
H1777 H 0.30592 0.63195 0.99399 0.0
C1778 C 0.33761 0.65232 0.88358 0.0
C1779 C 0.31158 0.65426 0.8776 0.0
C1780 C 0.35169 0.65424 0.91353 0.0
C1781 C 0.34024 0.65848 0.9382 0.0
C1782 C 0.31441 0.66122 0.9321 0.0
H1783 H 0.4733 0.61507 0.03127 0.0
H1784 H 0.44499 0.63986 0.04055 0.0
C1785 C 0.30007 0.65894 0.90192 0.0
C1786 C 0.35531 0.65744 0.97023 0.0
H1787 H 0.36123 0.608 0.02702 0.0
C1788 C 0.38202 0.67269 0.9732 0.0
C1789 C 0.3473 0.63569 0.99288 0.0
C1790 C 0.31855 0.61967 0.99271 0.0
C1791 C 0.40181 0.66308 0.99215 0.0
C1792 C 0.39414 0.6381 0.00902 0.0
C1793 C 0.36705 0.62661 0.01279 0.0
C1794 C 0.41044 0.62049 0.01022 0.0
C1795 C 0.43068 0.67781 0.98966 0.0
C1796 C 0.40015 0.60048 0.99151 0.0
C1797 C 0.41591 0.58604 0.98683 0.0
C1798 C 0.44264 0.59138 1.00035 0.0
C1799 C 0.45281 0.61065 0.02027 0.0
C1800 C 0.43669 0.62493 0.02549 0.0
H1801 H 0.43303 0.69749 0.97684 0.0
H1802 H 0.4419 0.67944 0.01359 0.0
H1803 H 0.43969 0.66755 0.97694 0.0
H1804 H 0.38009 0.5967 0.97911 0.0
H1805 H 0.40725 0.57121 0.97163 0.0
H1806 H 0.32583 0.31119 0.83333 0.0
H1807 H 0.35173 0.34989 0.85588 0.0
H1808 H 0.36238 0.39122 0.76269 0.0
H1809 H 0.3359 0.35224 0.73951 0.0
H1810 H 0.40984 0.3969 0.80468 0.0
H1811 H 0.33258 0.41529 0.85959 0.0
H1812 H 0.33252 0.38239 0.86907 0.0
H1813 H 0.32452 0.39513 0.82867 0.0
C1814 C 0.33338 0.32846 0.81741 0.0
C1815 C 0.3289 0.32848 0.78451 0.0
C1816 C 0.34804 0.3507 0.83044 0.0
C1817 C 0.35851 0.37355 0.81097 0.0
C1818 C 0.35419 0.3738 0.77809 0.0
H1819 H 0.45373 0.49983 0.92078 0.0
H1820 H 0.42112 0.4791 0.87882 0.0
C1821 C 0.33926 0.35147 0.76492 0.0
C1822 C 0.37575 0.39625 0.82568 0.0
H1823 H 0.37832 0.43084 0.88444 0.0
C1824 C 0.40284 0.40487 0.82147 0.0
C1825 C 0.36654 0.40693 0.84723 0.0
C1826 C 0.33737 0.39964 0.85117 0.0
C1827 C 0.42134 0.42212 0.84039 0.0
C1828 C 0.41248 0.43068 0.86422 0.0
C1829 C 0.3851 0.42395 0.86644 0.0
C1830 C 0.43155 0.44352 0.88956 0.0
C1831 C 0.45042 0.43008 0.83578 0.0
C1832 C 0.44746 0.43003 0.90995 0.0
C1833 C 0.46577 0.4416 0.9339 0.0
C1834 C 0.46861 0.46698 0.93805 0.0
C1835 C 0.45207 0.48028 0.91814 0.0
C1836 C 0.43353 0.46854 0.89413 0.0
H1837 H 0.45292 0.4287 0.81132 0.0
H1838 H 0.46059 0.45003 0.8409 0.0
H1839 H 0.4604 0.41709 0.85214 0.0
H1840 H 0.44576 0.41048 0.90725 0.0
H1841 H 0.478 0.43067 0.94887 0.0
H1842 H 0.64515 0.35868 0.76248 0.0
H1843 H 0.62559 0.37593 0.79747 0.0
H1844 H 0.69779 0.38637 0.86274 0.0
H1845 H 0.71764 0.36908 0.82768 0.0
H1846 H 0.62301 0.3586 0.87098 0.0
H1847 H 0.6801 0.45966 0.83227 0.0
H1848 H 0.67299 0.43489 0.80729 0.0
H1849 H 0.69699 0.43519 0.84177 0.0
C1850 C 0.65687 0.36455 0.78433 0.0
C1851 C 0.68304 0.36269 0.79218 0.0
C1852 C 0.6456 0.37428 0.80437 0.0
C1853 C 0.66029 0.38256 0.83256 0.0
C1854 C 0.68616 0.38013 0.841 0.0
H1855 H 0.61638 0.4765 0.9454 0.0
H1856 H 0.64134 0.4548 0.92314 0.0
C1857 C 0.69741 0.37015 0.82105 0.0
C1858 C 0.64872 0.39474 0.85217 0.0
H1859 H 0.64775 0.45328 0.86574 0.0
C1860 C 0.62855 0.37929 0.87015 0.0
C1861 C 0.65616 0.42167 0.85122 0.0
C1862 C 0.67769 0.43901 0.8321 0.0
C1863 C 0.61521 0.3901 0.88677 0.0
C1864 C 0.6217 0.41721 0.88456 0.0
C1865 C 0.64259 0.43256 0.86741 0.0
C1866 C 0.60646 0.43012 0.89863 0.0
C1867 C 0.59435 0.37217 0.90643 0.0
C1868 C 0.57854 0.42393 0.89192 0.0
C1869 C 0.56423 0.43604 0.90499 0.0
C1870 C 0.57753 0.45518 0.9244 0.0
C1871 C 0.60554 0.46203 0.93027 0.0
C1872 C 0.61982 0.44953 0.91768 0.0
H1873 H 0.59974 0.35429 0.91653 0.0
H1874 H 0.59163 0.38109 0.92606 0.0
H1875 H 0.57502 0.36664 0.89116 0.0
H1876 H 0.56773 0.40968 0.8765 0.0
H1877 H 0.54268 0.43038 0.89989 0.0
H1878 H 0.68027 0.27937 0.04868 0.0
H1879 H 0.64992 0.29795 0.00926 0.0
H1880 H 0.69956 0.37399 0.02572 0.0
H1881 H 0.72944 0.35549 0.06481 0.0
H1882 H 0.62425 0.32425 0.03134 0.0
H1883 H 0.67331 0.38729 0.93298 0.0
H1884 H 0.68518 0.36121 0.95509 0.0
H1885 H 0.69602 0.39236 0.96843 0.0
C1886 C 0.68501 0.30003 0.04286 0.0
C1887 C 0.70682 0.31616 0.05968 0.0
C1888 C 0.66786 0.31061 0.0203 0.0
C1889 C 0.67267 0.33737 0.01416 0.0
C1890 C 0.69578 0.35335 0.02931 0.0
H1891 H 0.62889 0.45906 0.0242 0.0
H1892 H 0.6465 0.42628 0.01294 0.0
C1893 C 0.71265 0.34282 0.05198 0.0
C1894 C 0.65112 0.34867 0.99903 0.0
H1895 H 0.6449 0.40521 0.95746 0.0
C1896 C 0.62806 0.34137 0.01413 0.0
C1897 C 0.65591 0.37075 0.97627 0.0
C1898 C 0.67886 0.37812 0.95705 0.0
C1899 C 0.612 0.35765 0.01081 0.0
C1900 C 0.61902 0.38151 0.99131 0.0
C1901 C 0.63996 0.38716 0.97297 0.0
C1902 C 0.60818 0.40237 0.99419 0.0
C1903 C 0.58955 0.35044 0.03091 0.0
C1904 C 0.58086 0.39983 0.98712 0.0
C1905 C 0.57065 0.41818 0.99439 0.0
C1906 C 0.58772 0.43972 0.00799 0.0
C1907 C 0.6152 0.4426 0.01402 0.0
C1908 C 0.62532 0.42406 0.00719 0.0
H1909 H 0.58901 0.33266 0.0477 0.0
H1910 H 0.59152 0.3662 0.04461 0.0
H1911 H 0.5702 0.34717 0.01549 0.0
H1912 H 0.56739 0.38341 0.97666 0.0
H1913 H 0.54937 0.41547 0.98929 0.0
H1914 H 0.71939 0.67146 0.26305 0.0
H1915 H 0.68864 0.63503 0.23798 0.0
H1916 H 0.70403 0.67745 0.1463 0.0
H1917 H 0.73425 0.71356 0.17071 0.0
H1918 H 0.64271 0.63604 0.19727 0.0
H1919 H 0.71066 0.60805 0.13746 0.0
H1920 H 0.72254 0.62751 0.16923 0.0
H1921 H 0.71567 0.64202 0.12934 0.0
C1922 C 0.71621 0.67298 0.23757 0.0
C1923 C 0.72896 0.69564 0.21894 0.0
C1924 C 0.69884 0.65209 0.22332 0.0
C1925 C 0.69444 0.65341 0.1903 0.0
C1926 C 0.70764 0.67576 0.17182 0.0
H1927 H 0.56399 0.60841 0.05492 0.0
H1928 H 0.59888 0.62638 0.09593 0.0
C1929 C 0.72478 0.69656 0.18592 0.0
C1930 C 0.67421 0.63283 0.17447 0.0
H1931 H 0.66454 0.59943 0.11246 0.0
C1932 C 0.6475 0.62748 0.17927 0.0
C1933 C 0.68051 0.6213 0.1514 0.0
C1934 C 0.70897 0.62481 0.14681 0.0
C1935 C 0.62678 0.6127 0.15971 0.0
C1936 C 0.63301 0.60354 0.13444 0.0
C1937 C 0.65978 0.60695 0.13144 0.0
C1938 C 0.61217 0.5924 0.1094 0.0
C1939 C 0.59837 0.60777 0.16567 0.0
C1940 C 0.60889 0.56774 0.10242 0.0
C1941 C 0.58911 0.55746 0.07866 0.0
C1942 C 0.5724 0.57178 0.06142 0.0
C1943 C 0.57636 0.59678 0.06788 0.0
C1944 C 0.59612 0.60701 0.09155 0.0
H1945 H 0.59727 0.60819 0.19089 0.0
H1946 H 0.5903 0.62304 0.15144 0.0
H1947 H 0.5855 0.58893 0.15893 0.0
H1948 H 0.62136 0.55631 0.11568 0.0
H1949 H 0.58662 0.53816 0.07423 0.0
H1950 H 0.3354 0.62399 0.24379 0.0
H1951 H 0.35361 0.60545 0.20867 0.0
H1952 H 0.41684 0.67616 0.19553 0.0
H1953 H 0.39882 0.69489 0.23082 0.0
H1954 H 0.37361 0.63444 0.13808 0.0
H1955 H 0.44534 0.60677 0.23709 0.0
H1956 H 0.41337 0.60841 0.24379 0.0
H1957 H 0.43911 0.63738 0.23394 0.0
C1958 C 0.3531 0.63567 0.23329 0.0
C1959 C 0.3658 0.66087 0.24031 0.0
C1960 C 0.36337 0.62508 0.21311 0.0
C1961 C 0.38658 0.63941 0.19963 0.0
C1962 C 0.39885 0.66482 0.20569 0.0
H1963 H 0.49834 0.60304 0.10766 0.0
H1964 H 0.47461 0.61991 0.13777 0.0
C1965 C 0.38849 0.67552 0.22574 0.0
C1966 C 0.39886 0.62725 0.18082 0.0
H1967 H 0.44698 0.59729 0.18697 0.0
C1968 C 0.3896 0.62622 0.14867 0.0
C1969 C 0.41968 0.61661 0.19479 0.0
C1970 C 0.43008 0.61716 0.22933 0.0
C1971 C 0.40106 0.61523 0.12992 0.0
C1972 C 0.42192 0.60448 0.14392 0.0
C1973 C 0.43093 0.60537 0.17622 0.0
C1974 C 0.43585 0.59359 0.12531 0.0
C1975 C 0.39141 0.61609 0.09509 0.0
C1976 C 0.4221 0.57281 0.10848 0.0
C1977 C 0.43572 0.56301 0.09104 0.0
C1978 C 0.46338 0.57373 0.0903 0.0
C1979 C 0.47707 0.5942 0.10769 0.0
C1980 C 0.4635 0.60395 0.12496 0.0
H1981 H 0.38005 0.63027 0.08678 0.0
H1982 H 0.40843 0.62106 0.08123 0.0
H1983 H 0.37805 0.59692 0.09024 0.0
H1984 H 0.40085 0.56411 0.10886 0.0
H1985 H 0.42454 0.54736 0.07778 0.0
H1986 H 0.34889 0.34506 0.25076 0.0
H1987 H 0.38447 0.3778 0.22503 0.0
H1988 H 0.39222 0.32164 0.17286 0.0
H1989 H 0.35644 0.28884 0.19852 0.0
H1990 H 0.43743 0.38332 0.21854 0.0
H1991 H 0.37215 0.37556 0.10421 0.0
H1992 H 0.35998 0.36077 0.14141 0.0
H1993 H 0.37767 0.34569 0.12276 0.0
C1994 C 0.3588 0.33949 0.23473 0.0
C1995 C 0.35017 0.31443 0.22685 0.0
C1996 C 0.37894 0.35826 0.21977 0.0
C1997 C 0.39059 0.35218 0.1967 0.0
C1998 C 0.38307 0.32678 0.19019 0.0
H1999 H 0.52685 0.44159 0.10278 0.0
H2000 H 0.49684 0.41303 0.13928 0.0
C2001 C 0.36278 0.30809 0.20491 0.0
C2002 C 0.40913 0.3727 0.17781 0.0
H2003 H 0.41717 0.40093 0.10227 0.0
C2004 C 0.43303 0.3873 0.19313 0.0
C2005 C 0.40293 0.37822 0.1448 0.0
C2006 C 0.37667 0.36443 0.12733 0.0
C2007 C 0.45135 0.40686 0.17608 0.0
C2008 C 0.44575 0.41145 0.14286 0.0
C2009 C 0.42151 0.39726 0.12773 0.0
C2010 C 0.46486 0.43035 0.12297 0.0
C2011 C 0.47631 0.42258 0.19384 0.0
C2012 C 0.4567 0.44935 0.10136 0.0
C2013 C 0.47361 0.4654 0.08004 0.0
C2014 C 0.49903 0.46276 0.08004 0.0
C2015 C 0.50745 0.44421 0.10232 0.0
C2016 C 0.4904 0.42799 0.1234 0.0
H2017 H 0.47356 0.42241 0.21868 0.0
H2018 H 0.49282 0.41426 0.19423 0.0
H2019 H 0.48231 0.4428 0.1824 0.0
H2020 H 0.43701 0.45141 0.10059 0.0
H2021 H 0.46663 0.47964 0.06331 0.0
H2022 H 0.78783 0.64027 0.59925 0.0
H2023 H 0.81699 0.62027 0.58203 0.0
H2024 H 0.88563 0.6814 0.61128 0.0
H2025 H 0.85651 0.70175 0.62834 0.0
H2026 H 0.85199 0.64018 0.53644 0.0
H2027 H 0.90642 0.61707 0.65349 0.0
H2028 H 0.87594 0.62583 0.64915 0.0
H2029 H 0.90709 0.65016 0.64383 0.0
C2030 C 0.80913 0.64956 0.60201 0.0
C2031 C 0.81974 0.67274 0.61517 0.0
C2032 C 0.8258 0.63802 0.5922 0.0
C2033 C 0.85355 0.64916 0.59554 0.0
C2034 C 0.86432 0.67215 0.60895 0.0
H2035 H 0.98832 0.61067 0.553 0.0
H2036 H 0.95787 0.63075 0.56688 0.0
C2037 C 0.84762 0.68376 0.61878 0.0
C2038 C 0.87107 0.63697 0.58432 0.0
H2039 H 0.9226 0.61087 0.60886 0.0
C2040 C 0.86738 0.63368 0.5523 0.0
C2041 C 0.8911 0.62841 0.60496 0.0
C2042 C 0.8953 0.63029 0.63983 0.0
C2043 C 0.88358 0.62268 0.54025 0.0
C2044 C 0.90374 0.61425 0.56088 0.0
C2045 C 0.90724 0.61738 0.59295 0.0
C2046 C 0.92191 0.60266 0.54986 0.0
C2047 C 0.87933 0.62081 0.50538 0.0
C2048 C 0.91198 0.58026 0.53511 0.0
C2049 C 0.92949 0.56872 0.52686 0.0
C2050 C 0.95729 0.57917 0.53357 0.0
C2051 C 0.96708 0.60193 0.5476 0.0
C2052 C 0.94964 0.61347 0.55566 0.0
H2053 H 0.86957 0.6351 0.49164 0.0
H2054 H 0.89847 0.62376 0.49629 0.0
H2055 H 0.86615 0.6014 0.50124 0.0
H2056 H 0.89069 0.57128 0.53077 0.0
H2057 H 0.92124 0.5512 0.51614 0.0
H2058 H 0.31502 0.79937 0.66174 0.0
H2059 H 0.35218 0.82954 0.63609 0.0
H2060 H 0.40112 0.83452 0.72642 0.0
H2061 H 0.36286 0.80621 0.75218 0.0
H2062 H 0.4083 0.87837 0.7009 0.0
H2063 H 0.38287 0.83111 0.60089 0.0
H2064 H 0.39452 0.81248 0.63573 0.0
H2065 H 0.41606 0.82858 0.60591 0.0
C2066 C 0.33404 0.8063 0.67588 0.0
C2067 C 0.33649 0.79957 0.70874 0.0
C2068 C 0.35545 0.8235 0.66118 0.0
C2069 C 0.38008 0.83405 0.67892 0.0
C2070 C 0.38259 0.82671 0.71188 0.0
H2071 H 0.50659 0.94409 0.57129 0.0
H2072 H 0.48167 0.90494 0.60253 0.0
C2073 C 0.36084 0.8102 0.72666 0.0
C2074 C 0.40182 0.855 0.66379 0.0
H2075 H 0.43249 0.87547 0.59664 0.0
C2076 C 0.41387 0.87731 0.67841 0.0
C2077 C 0.40989 0.85401 0.6346 0.0
C2078 C 0.40032 0.83009 0.61866 0.0
C2079 C 0.43246 0.89875 0.66422 0.0
C2080 C 0.43842 0.89865 0.63365 0.0
C2081 C 0.42759 0.87594 0.61972 0.0
C2082 C 0.45432 0.92237 0.61513 0.0
C2083 C 0.44553 0.92125 0.68244 0.0
C2084 C 0.44715 0.94516 0.61122 0.0
C2085 C 0.46161 0.96752 0.59404 0.0
C2086 C 0.48333 0.96771 0.57939 0.0
C2087 C 0.49016 0.94473 0.58248 0.0
C2088 C 0.47585 0.9223 0.60028 0.0
H2089 H 0.44734 0.91481 0.70826 0.0
H2090 H 0.46572 0.932 0.67587 0.0
H2091 H 0.43295 0.93446 0.67756 0.0
H2092 H 0.43003 0.94565 0.62117 0.0
H2093 H 0.45526 0.98459 0.59168 0.0
H2094 H 0.26736 0.32638 0.70972 0.0
H2095 H 0.24309 0.35569 0.67783 0.0
H2096 H 0.17255 0.2916 0.66619 0.0
H2097 H 0.19652 0.26265 0.69771 0.0
H2098 H 0.21456 0.35899 0.6156 0.0
H2099 H 0.14423 0.33851 0.70371 0.0
H2100 H 0.17456 0.32923 0.71217 0.0
H2101 H 0.14552 0.31019 0.69018 0.0
C2102 C 0.24686 0.31851 0.6998 0.0
C2103 C 0.23409 0.29195 0.7061 0.0
C2104 C 0.23282 0.33535 0.68168 0.0
C2105 C 0.20551 0.3262 0.66987 0.0
C2106 C 0.19324 0.29957 0.67537 0.0
H2107 H 0.07813 0.3945 0.56899 0.0
H2108 H 0.1042 0.36513 0.59539 0.0
C2109 C 0.20715 0.28288 0.69329 0.0
C2110 C 0.18944 0.3441 0.65262 0.0
H2111 H 0.13329 0.36184 0.65447 0.0
C2112 C 0.19692 0.3597 0.62432 0.0
C2113 C 0.16608 0.34521 0.66341 0.0
C2114 C 0.1572 0.3301 0.69417 0.0
C2115 C 0.18169 0.37565 0.60656 0.0
C2116 C 0.15836 0.37679 0.61742 0.0
C2117 C 0.15091 0.36117 0.64569 0.0
C2118 C 0.14209 0.39464 0.60056 0.0
C2119 C 0.19039 0.39061 0.57566 0.0
C2120 C 0.15412 0.4213 0.59469 0.0
C2121 C 0.1392 0.43811 0.57977 0.0
C2122 C 0.11148 0.4291 0.57009 0.0
C2123 C 0.0993 0.40238 0.57597 0.0
C2124 C 0.11432 0.38548 0.59117 0.0
H2125 H 0.20294 0.38186 0.56589 0.0
H2126 H 0.17296 0.39175 0.55788 0.0
H2127 H 0.20248 0.41042 0.57957 0.0
H2128 H 0.17519 0.42932 0.6021 0.0
H2129 H 0.14961 0.45841 0.57589 0.0
H2130 H 0.73437 0.24695 0.65266 0.0
H2131 H 0.70531 0.21606 0.61792 0.0
H2132 H 0.71927 0.1536 0.68653 0.0
H2133 H 0.74755 0.18384 0.72124 0.0
H2134 H 0.71509 0.1738 0.59287 0.0
H2135 H 0.63671 0.13976 0.67306 0.0
H2136 H 0.66281 0.16982 0.67498 0.0
H2137 H 0.66952 0.14012 0.69227 0.0
C2138 C 0.73104 0.22664 0.66047 0.0
C2139 C 0.74258 0.21799 0.69039 0.0
C2140 C 0.71463 0.20903 0.64045 0.0
C2141 C 0.70966 0.18251 0.65 0.0
C2142 C 0.72235 0.17394 0.67898 0.0
H2143 H 0.64212 0.04622 0.55754 0.0
H2144 H 0.67153 0.08411 0.58051 0.0
C2145 C 0.7386 0.19141 0.69888 0.0
C2146 C 0.69061 0.16341 0.63056 0.0
H2147 H 0.63308 0.11379 0.6334 0.0
C2148 C 0.697 0.16083 0.60149 0.0
C2149 C 0.66688 0.14669 0.6417 0.0
C2150 C 0.65837 0.14931 0.67207 0.0
C2151 C 0.6807 0.14132 0.58382 0.0
C2152 C 0.65766 0.12378 0.59579 0.0
C2153 C 0.65085 0.12703 0.62432 0.0
C2154 C 0.64032 0.10171 0.5795 0.0
C2155 C 0.68826 0.13974 0.55247 0.0
C2156 C 0.61291 0.09874 0.57159 0.0
C2157 C 0.59601 0.07699 0.55878 0.0
C2158 C 0.60607 0.05754 0.55368 0.0
C2159 C 0.63365 0.06078 0.56105 0.0
C2160 C 0.65057 0.08258 0.57398 0.0
H2161 H 0.70144 0.15841 0.54256 0.0
H2162 H 0.69927 0.12527 0.55575 0.0
H2163 H 0.67028 0.1338 0.53512 0.0
H2164 H 0.6045 0.11317 0.57571 0.0
H2165 H 0.57494 0.07532 0.55325 0.0
H2166 H 0.77995 0.32375 0.32461 0.0
H2167 H 0.80711 0.35448 0.36024 0.0
H2168 H 0.87827 0.34087 0.34181 0.0
H2169 H 0.85145 0.31048 0.3061 0.0
H2170 H 0.87691 0.34256 0.40608 0.0
H2171 H 0.85375 0.42637 0.32858 0.0
H2172 H 0.82542 0.40042 0.34011 0.0
H2173 H 0.84658 0.39561 0.31515 0.0
C2174 C 0.80138 0.32735 0.32812 0.0
C2175 C 0.81354 0.31481 0.3123 0.0
C2176 C 0.81685 0.34488 0.34849 0.0
C2177 C 0.84472 0.3502 0.35328 0.0
C2178 C 0.85679 0.33705 0.3384 0.0
H2179 H 0.98432 0.45382 0.44055 0.0
H2180 H 0.95152 0.41875 0.41555 0.0
C2181 C 0.84138 0.31957 0.31807 0.0
C2182 C 0.86159 0.37001 0.37297 0.0
H2183 H 0.88195 0.43456 0.37604 0.0
C2184 C 0.87793 0.36267 0.39965 0.0
C2185 C 0.86284 0.3962 0.36447 0.0
C2186 C 0.8464 0.40528 0.3354 0.0
C2187 C 0.89565 0.38088 0.418 0.0
C2188 C 0.89736 0.40713 0.40905 0.0
C2189 C 0.88057 0.4144 0.38282 0.0
C2190 C 0.91719 0.42754 0.42574 0.0
C2191 C 0.9123 0.37185 0.44684 0.0
C2192 C 0.90877 0.44436 0.43934 0.0
C2193 C 0.92746 0.46456 0.45348 0.0
C2194 C 0.95498 0.46844 0.45406 0.0
C2195 C 0.96332 0.45139 0.44061 0.0
C2196 C 0.94459 0.43119 0.4265 0.0
H2197 H 0.90333 0.35127 0.45549 0.0
H2198 H 0.93241 0.37411 0.44076 0.0
H2199 H 0.91471 0.38335 0.46624 0.0
H2200 H 0.8877 0.44195 0.43882 0.0
H2201 H 0.9203 0.47731 0.46357 0.0
H2202 H 0.68685 0.82547 0.35264 0.0
H2203 H 0.67181 0.85678 0.37236 0.0
H2204 H 0.70423 0.83346 0.46698 0.0
H2205 H 0.71924 0.80224 0.4475 0.0
H2206 H 0.65372 0.83422 0.46522 0.0
H2207 H 0.71072 0.92581 0.40212 0.0
H2208 H 0.69197 0.9028 0.37612 0.0
H2209 H 0.71878 0.89617 0.40433 0.0
C2210 C 0.69126 0.82737 0.37755 0.0
C2211 C 0.70415 0.81114 0.39844 0.0
C2212 C 0.68267 0.84535 0.38884 0.0
C2213 C 0.68703 0.84776 0.42123 0.0
C2214 C 0.70053 0.83205 0.44194 0.0
H2215 H 0.64507 0.96581 0.49984 0.0
H2216 H 0.6707 0.93884 0.48869 0.0
C2217 C 0.70904 0.81409 0.43072 0.0
C2218 C 0.67599 0.86524 0.43392 0.0
H2219 H 0.67421 0.92734 0.42653 0.0
C2220 C 0.65847 0.85463 0.45693 0.0
C2221 C 0.68238 0.892 0.42363 0.0
C2222 C 0.7022 0.90496 0.40043 0.0
C2223 C 0.64643 0.86971 0.46888 0.0
C2224 C 0.6517 0.89617 0.45735 0.0
C2225 C 0.67003 0.90705 0.43531 0.0
C2226 C 0.63656 0.91216 0.46579 0.0
C2227 C 0.6279 0.85709 0.49361 0.0
C2228 C 0.60894 0.90613 0.45684 0.0
C2229 C 0.59442 0.92144 0.463 0.0
C2230 C 0.60705 0.94333 0.47833 0.0
C2231 C 0.6347 0.94912 0.48804 0.0
C2232 C 0.64936 0.93377 0.48156 0.0
H2233 H 0.63217 0.83937 0.50674 0.0
H2234 H 0.6295 0.87036 0.5107 0.0
H2235 H 0.60703 0.85164 0.48194 0.0
H2236 H 0.5986 0.88979 0.44439 0.0
H2237 H 0.57317 0.91622 0.45527 0.0
H2238 H 0.23925 0.73499 0.33948 0.0
H2239 H 0.21117 0.69666 0.36803 0.0
H2240 H 0.17578 0.66821 0.27939 0.0
H2241 H 0.2064 0.7049 0.25186 0.0
H2242 H 0.16399 0.68098 0.37137 0.0
H2243 H 0.18188 0.60322 0.32306 0.0
H2244 H 0.20078 0.63613 0.31347 0.0
H2245 H 0.16875 0.62312 0.29145 0.0
C2246 C 0.22694 0.7195 0.32654 0.0
C2247 C 0.22709 0.72156 0.29391 0.0
C2248 C 0.21015 0.6979 0.34269 0.0
C2249 C 0.19172 0.67859 0.32626 0.0
C2250 C 0.19076 0.68162 0.29321 0.0
H2251 H 0.05428 0.57416 0.41984 0.0
H2252 H 0.08368 0.61096 0.38985 0.0
C2253 C 0.20837 0.70269 0.27734 0.0
C2254 C 0.17233 0.65652 0.34339 0.0
H2255 H 0.14209 0.59184 0.34803 0.0
C2256 C 0.15963 0.66144 0.36652 0.0
C2257 C 0.16629 0.63078 0.33746 0.0
C2258 C 0.18039 0.62301 0.31525 0.0
C2259 C 0.1416 0.64165 0.38393 0.0
C2260 C 0.13464 0.61616 0.37686 0.0
C2261 C 0.14706 0.61129 0.35348 0.0
C2262 C 0.11592 0.5939 0.39447 0.0
C2263 C 0.13114 0.64833 0.41048 0.0
C2264 C 0.12342 0.57145 0.40596 0.0
C2265 C 0.10618 0.55013 0.42171 0.0
C2266 C 0.08113 0.55077 0.42713 0.0
C2267 C 0.07352 0.5732 0.41607 0.0
C2268 C 0.09052 0.59436 0.39927 0.0
H2269 H 0.14469 0.6662 0.41924 0.0
H2270 H 0.1115 0.65169 0.40175 0.0
H2271 H 0.12866 0.63267 0.43064 0.0
H2272 H 0.14281 0.57038 0.40293 0.0
H2273 H 0.11277 0.53324 0.43034 0.0
H2274 H 0.28623 0.17816 0.30136 0.0
H2275 H 0.31817 0.15681 0.33189 0.0
H2276 H 0.38065 0.22865 0.32526 0.0
H2277 H 0.34832 0.25018 0.29458 0.0
H2278 H 0.36091 0.15012 0.3143 0.0
H2279 H 0.39692 0.20364 0.41765 0.0
H2280 H 0.36745 0.20577 0.39108 0.0
H2281 H 0.39989 0.22299 0.37977 0.0
C2282 C 0.3067 0.18959 0.30681 0.0
C2283 C 0.31436 0.21612 0.29597 0.0
C2284 C 0.32511 0.17726 0.32431 0.0
C2285 C 0.35215 0.19083 0.33165 0.0
C2286 C 0.35997 0.2175 0.32092 0.0
H2287 H 0.48431 0.12799 0.43576 0.0
H2288 H 0.45894 0.15719 0.40653 0.0
C2289 C 0.34139 0.22993 0.30324 0.0
C2290 C 0.37182 0.1764 0.34866 0.0
H2291 H 0.41671 0.17155 0.41518 0.0
C2292 C 0.37306 0.15496 0.33635 0.0
C2293 C 0.38837 0.18255 0.37733 0.0
C2294 C 0.38811 0.20487 0.39249 0.0
C2295 C 0.38969 0.13966 0.35161 0.0
C2296 C 0.40534 0.14507 0.381 0.0
C2297 C 0.40479 0.16697 0.39292 0.0
C2298 C 0.42126 0.12759 0.40001 0.0
C2299 C 0.3906 0.11802 0.33546 0.0
C2300 C 0.40888 0.1011 0.40727 0.0
C2301 C 0.42339 0.08442 0.4237 0.0
C2302 C 0.45094 0.09343 0.43413 0.0
C2303 C 0.46328 0.12011 0.42798 0.0
C2304 C 0.44866 0.13691 0.41122 0.0
H2305 H 0.38568 0.12193 0.30948 0.0
H2306 H 0.41056 0.1148 0.34052 0.0
H2307 H 0.37555 0.10012 0.34392 0.0
H2308 H 0.38773 0.09315 0.40024 0.0
H2309 H 0.41277 0.06421 0.42828 0.0
H2310 H 0.71399 0.77575 0.7223 0.0
H2311 H 0.68218 0.79832 0.69326 0.0
H2312 H 0.74748 0.85975 0.65725 0.0
H2313 H 0.77895 0.83826 0.68827 0.0
H2314 H 0.71972 0.88172 0.67124 0.0
H2315 H 0.64536 0.80637 0.60875 0.0
H2316 H 0.64773 0.79666 0.65051 0.0
H2317 H 0.67604 0.80168 0.62993 0.0
C2318 C 0.72142 0.79383 0.70765 0.0
C2319 C 0.74911 0.80494 0.70726 0.0
C2320 C 0.70311 0.80683 0.69072 0.0
C2321 C 0.71186 0.83102 0.67219 0.0
C2322 C 0.73961 0.84143 0.67122 0.0
H2323 H 0.60352 0.90811 0.54014 0.0
H2324 H 0.63059 0.87958 0.56581 0.0
C2325 C 0.75779 0.82893 0.68883 0.0
C2326 C 0.69303 0.84664 0.65576 0.0
H2327 H 0.63266 0.84392 0.61029 0.0
C2328 C 0.70085 0.87321 0.65769 0.0
C2329 C 0.66822 0.83636 0.63738 0.0
C2330 C 0.65898 0.80878 0.6312 0.0
C2331 C 0.68525 0.88941 0.64224 0.0
C2332 C 0.65966 0.8789 0.62561 0.0
C2333 C 0.65182 0.85235 0.62335 0.0
C2334 C 0.64124 0.89518 0.61024 0.0
C2335 C 0.69732 0.91793 0.64294 0.0
C2336 C 0.63684 0.91318 0.62642 0.0
C2337 C 0.62206 0.93006 0.61134 0.0
C2338 C 0.6098 0.92876 0.58001 0.0
C2339 C 0.61246 0.90963 0.56435 0.0
C2340 C 0.6281 0.89325 0.57914 0.0
H2341 H 0.71946 0.9234 0.64568 0.0
H2342 H 0.69058 0.9292 0.62106 0.0
H2343 H 0.69158 0.92338 0.66353 0.0
H2344 H 0.64526 0.91461 0.65077 0.0
H2345 H 0.62037 0.94438 0.62427 0.0
H2346 H 0.71303 0.21051 0.25861 0.0
H2347 H 0.67581 0.17945 0.28326 0.0
H2348 H 0.70452 0.21324 0.36969 0.0
H2349 H 0.74043 0.24567 0.34389 0.0
H2350 H 0.67681 0.14413 0.3254 0.0
H2351 H 0.62857 0.2016 0.37286 0.0
H2352 H 0.65284 0.21601 0.34555 0.0
H2353 H 0.66337 0.21031 0.38732 0.0
C2354 C 0.71057 0.21204 0.28237 0.0
C2355 C 0.72876 0.23129 0.29886 0.0
C2356 C 0.68947 0.19404 0.29668 0.0
C2357 C 0.68669 0.19413 0.32833 0.0
C2358 C 0.70522 0.21325 0.34493 0.0
H2359 H 0.62729 0.05496 0.44966 0.0
H2360 H 0.65199 0.09349 0.41861 0.0
C2361 C 0.72592 0.23172 0.33026 0.0
C2362 C 0.66657 0.17252 0.34482 0.0
H2363 H 0.62203 0.15767 0.39858 0.0
C2364 C 0.66464 0.1473 0.341 0.0
C2365 C 0.64991 0.17621 0.36473 0.0
C2366 C 0.64856 0.20253 0.36752 0.0
C2367 C 0.64767 0.12592 0.3573 0.0
C2368 C 0.63296 0.12958 0.37946 0.0
C2369 C 0.63376 0.15473 0.38224 0.0
C2370 C 0.61787 0.10752 0.40082 0.0
C2371 C 0.64566 0.09958 0.35027 0.0
C2372 C 0.59069 0.10331 0.40317 0.0
C2373 C 0.57655 0.08141 0.42189 0.0
C2374 C 0.58933 0.06329 0.4381 0.0
C2375 C 0.61671 0.06822 0.43675 0.0
C2376 C 0.63086 0.09022 0.41882 0.0
H2377 H 0.64958 0.10033 0.32572 0.0
H2378 H 0.66097 0.09218 0.36636 0.0
H2379 H 0.62568 0.08585 0.35343 0.0
H2380 H 0.58027 0.11656 0.38989 0.0
H2381 H 0.55551 0.07819 0.42279 0.0
H2382 H 0.86249 0.75729 0.30999 0.0
H2383 H 0.88502 0.72685 0.34056 0.0
H2384 H 0.81257 0.66497 0.32716 0.0
H2385 H 0.79011 0.69565 0.29542 0.0
H2386 H 0.88014 0.69518 0.39367 0.0
H2387 H 0.86277 0.63583 0.29765 0.0
H2388 H 0.85525 0.66602 0.2913 0.0
H2389 H 0.83264 0.63748 0.30925 0.0
C2390 C 0.85119 0.73721 0.31377 0.0
C2391 C 0.8243 0.72913 0.3004 0.0
C2392 C 0.86419 0.71968 0.33137 0.0
C2393 C 0.851 0.6932 0.33603 0.0
C2394 C 0.82374 0.68507 0.3235 0.0
H2395 H 0.90688 0.56014 0.42538 0.0
H2396 H 0.88151 0.58961 0.39971 0.0
C2397 C 0.81064 0.70274 0.30569 0.0
C2398 C 0.86622 0.67461 0.35342 0.0
H2399 H 0.88422 0.62153 0.34657 0.0
C2400 C 0.88095 0.6791 0.38322 0.0
C2401 C 0.86777 0.65347 0.34022 0.0
C2402 C 0.85401 0.64797 0.30774 0.0
C2403 C 0.89655 0.66321 0.40003 0.0
C2404 C 0.89817 0.64211 0.38679 0.0
C2405 C 0.88328 0.63752 0.3571 0.0
C2406 C 0.91447 0.62423 0.40339 0.0
C2407 C 0.91073 0.66904 0.43223 0.0
C2408 C 0.94196 0.6333 0.41434 0.0
C2409 C 0.95677 0.61622 0.42936 0.0
C2410 C 0.94465 0.58944 0.43371 0.0
C2411 C 0.91722 0.5805 0.42259 0.0
C2412 C 0.90251 0.59749 0.40771 0.0
H2413 H 0.90078 0.67961 0.44328 0.0
H2414 H 0.91163 0.65127 0.44825 0.0
H2415 H 0.93144 0.68135 0.42985 0.0
H2416 H 0.95217 0.65366 0.41094 0.0
H2417 H 0.97776 0.62403 0.4374 0.0
H2418 H 0.36225 0.79586 0.32528 0.0
H2419 H 0.39179 0.827 0.35931 0.0
H2420 H 0.32893 0.86161 0.35532 0.0
H2421 H 0.29969 0.83114 0.32117 0.0
H2422 H 0.37539 0.89666 0.3404 0.0
H2423 H 0.39389 0.83409 0.45176 0.0
H2424 H 0.40104 0.82528 0.41706 0.0
H2425 H 0.36729 0.82306 0.42096 0.0
C2426 C 0.35465 0.80987 0.33209 0.0
C2427 C 0.3287 0.81113 0.32033 0.0
C2428 C 0.37149 0.82758 0.35163 0.0
C2429 C 0.36249 0.84653 0.36004 0.0
C2430 C 0.33632 0.8472 0.34912 0.0
H2431 H 0.4269 0.98055 0.45857 0.0
H2432 H 0.39801 0.94387 0.43277 0.0
C2433 C 0.31964 0.82975 0.32951 0.0
C2434 C 0.38061 0.86697 0.37821 0.0
H2435 H 0.4187 0.87817 0.449 0.0
C2436 C 0.38478 0.89259 0.36419 0.0
C2437 C 0.39293 0.86163 0.40919 0.0
C2438 C 0.38845 0.83455 0.42582 0.0
C2439 C 0.40092 0.91301 0.38023 0.0
C2440 C 0.41301 0.90771 0.41128 0.0
C2441 C 0.40922 0.88212 0.42523 0.0
C2442 C 0.43006 0.92864 0.42927 0.0
C2443 C 0.40524 0.94012 0.36363 0.0
C2444 C 0.45748 0.93174 0.43666 0.0
C2445 C 0.47403 0.95265 0.45135 0.0
C2446 C 0.46344 0.97081 0.45912 0.0
C2447 C 0.43575 0.96705 0.45278 0.0
C2448 C 0.41922 0.94615 0.43795 0.0
H2449 H 0.39935 0.94063 0.33775 0.0
H2450 H 0.39301 0.94946 0.37292 0.0
H2451 H 0.42649 0.95153 0.36803 0.0
H2452 H 0.46618 0.91837 0.43027 0.0
H2453 H 0.49522 0.95477 0.45615 0.0
H2454 H 0.22496 0.35585 0.35414 0.0
H2455 H 0.19661 0.37697 0.37125 0.0
H2456 H 0.21033 0.34101 0.4667 0.0
H2457 H 0.23722 0.31874 0.44956 0.0
H2458 H 0.16018 0.33944 0.45314 0.0
H2459 H 0.22093 0.43873 0.41695 0.0
H2460 H 0.20949 0.42027 0.3846 0.0
H2461 H 0.23221 0.41122 0.41707 0.0
C2462 C 0.22169 0.35218 0.3787 0.0
C2463 C 0.23379 0.3358 0.40048 0.0
C2464 C 0.20579 0.36462 0.38858 0.0
C2465 C 0.20188 0.36122 0.42051 0.0
C2466 C 0.21326 0.34429 0.44204 0.0
H2467 H 0.13417 0.46042 0.49833 0.0
H2468 H 0.16444 0.43773 0.48868 0.0
C2469 C 0.2289 0.3317 0.43218 0.0
C2470 C 0.18553 0.37476 0.43157 0.0
H2471 H 0.17822 0.43397 0.43167 0.0
C2472 C 0.16428 0.36014 0.44856 0.0
C2473 C 0.19115 0.40185 0.4264 0.0
C2474 C 0.21486 0.41896 0.41057 0.0
C2475 C 0.14808 0.37168 0.45957 0.0
C2476 C 0.1527 0.39858 0.4527 0.0
C2477 C 0.17446 0.41333 0.43665 0.0
C2478 C 0.13429 0.41153 0.46035 0.0
C2479 C 0.12629 0.35493 0.47873 0.0
C2480 C 0.10731 0.40438 0.44775 0.0
C2481 C 0.09003 0.41714 0.45334 0.0
C2482 C 0.09931 0.43767 0.47139 0.0
C2483 C 0.12633 0.44472 0.48433 0.0
C2484 C 0.14367 0.4318 0.47877 0.0
H2485 H 0.13079 0.33695 0.49047 0.0
H2486 H 0.12339 0.36515 0.49705 0.0
H2487 H 0.10728 0.34949 0.46286 0.0
H2488 H 0.09967 0.38922 0.43291 0.0
H2489 H 0.06943 0.41118 0.44284 0.0
H2490 H 0.3365 0.21678 0.5584 0.0
H2491 H 0.35319 0.18598 0.5404 0.0
H2492 H 0.39375 0.17189 0.63369 0.0
H2493 H 0.37688 0.20258 0.65193 0.0
H2494 H 0.40348 0.18851 0.53731 0.0
H2495 H 0.35902 0.09945 0.61435 0.0
H2496 H 0.34835 0.12785 0.61047 0.0
H2497 H 0.37787 0.12517 0.63649 0.0
C2498 C 0.34884 0.20701 0.57519 0.0
C2499 C 0.35539 0.21227 0.60665 0.0
C2500 C 0.35833 0.18931 0.56485 0.0
C2501 C 0.37455 0.17627 0.58566 0.0
C2502 C 0.38076 0.18114 0.61726 0.0
H2503 H 0.4939 0.11519 0.5518 0.0
H2504 H 0.46622 0.14022 0.5609 0.0
C2505 C 0.37113 0.19878 0.62769 0.0
C2506 C 0.38632 0.15898 0.57376 0.0
H2507 H 0.39496 0.09907 0.58785 0.0
C2508 C 0.40132 0.16887 0.5482 0.0
C2509 C 0.38324 0.13313 0.58744 0.0
C2510 C 0.36601 0.12067 0.61348 0.0
C2511 C 0.41418 0.15411 0.53699 0.0
C2512 C 0.41241 0.12884 0.55193 0.0
C2513 C 0.3965 0.1185 0.57653 0.0
C2514 C 0.42884 0.11382 0.54422 0.0
C2515 C 0.42984 0.16576 0.50938 0.0
C2516 C 0.41709 0.09052 0.53164 0.0
C2517 C 0.43303 0.07605 0.52613 0.0
C2518 C 0.46094 0.08443 0.53374 0.0
C2519 C 0.4725 0.108 0.5458 0.0
C2520 C 0.45668 0.12247 0.55092 0.0
H2521 H 0.42343 0.18211 0.4953 0.0
H2522 H 0.45131 0.17303 0.51829 0.0
H2523 H 0.42759 0.15123 0.49367 0.0
H2524 H 0.39562 0.08344 0.52633 0.0
H2525 H 0.42348 0.05801 0.51685 0.0
H2526 H 0.80791 0.2958 0.67691 0.0
H2527 H 0.83522 0.32885 0.63998 0.0
H2528 H 0.88908 0.36041 0.71882 0.0
H2529 H 0.86202 0.32784 0.75537 0.0
H2530 H 0.8548 0.38748 0.63812 0.0
H2531 H 0.93492 0.33977 0.66279 0.0
H2532 H 0.90098 0.32315 0.67033 0.0
H2533 H 0.923 0.34399 0.69722 0.0
C2534 C 0.8252 0.31027 0.68616 0.0
C2535 C 0.83259 0.30978 0.7189 0.0
C2536 C 0.84088 0.32894 0.66516 0.0
C2537 C 0.86432 0.3469 0.67673 0.0
C2538 C 0.87122 0.34664 0.70941 0.0
H2539 H 0.97068 0.49046 0.60806 0.0
H2540 H 0.93829 0.45436 0.63419 0.0
C2541 C 0.85567 0.32815 0.73023 0.0
C2542 C 0.88246 0.36551 0.65522 0.0
H2543 H 0.94635 0.38291 0.63716 0.0
C2544 C 0.87468 0.38633 0.63752 0.0
C2545 C 0.90831 0.36386 0.65426 0.0
C2546 C 0.91733 0.34139 0.67193 0.0
C2547 C 0.89254 0.40616 0.61999 0.0
C2548 C 0.91895 0.40526 0.62053 0.0
C2549 C 0.92625 0.38377 0.63701 0.0
C2550 C 0.93955 0.42688 0.60522 0.0
C2551 C 0.88305 0.42803 0.60125 0.0
C2552 C 0.95203 0.42325 0.58112 0.0
C2553 C 0.97083 0.4439 0.56617 0.0
C2554 C 0.97769 0.4686 0.57521 0.0
C2555 C 0.9659 0.47182 0.60029 0.0
C2556 C 0.94712 0.45122 0.61511 0.0
H2557 H 0.86096 0.42246 0.596 0.0
H2558 H 0.88937 0.44438 0.61517 0.0
H2559 H 0.89181 0.43466 0.57867 0.0
H2560 H 0.94673 0.40456 0.57333 0.0
H2561 H 0.97938 0.44065 0.54692 0.0
H2562 H 0.20768 0.71317 0.68635 0.0
H2563 H 0.18024 0.6821 0.65162 0.0
H2564 H 0.2507 0.66709 0.63336 0.0
H2565 H 0.27843 0.69794 0.66855 0.0
H2566 H 0.18121 0.67878 0.58719 0.0
H2567 H 0.20344 0.59612 0.66838 0.0
H2568 H 0.2109 0.62744 0.68041 0.0
H2569 H 0.23191 0.62156 0.65612 0.0
C2570 C 0.21742 0.70338 0.67485 0.0
C2571 C 0.24522 0.70782 0.68048 0.0
C2572 C 0.20169 0.6857 0.65493 0.0
C2573 C 0.21342 0.67206 0.64033 0.0
C2574 C 0.24126 0.67716 0.64484 0.0
H2575 H 0.13642 0.5417 0.5363 0.0
H2576 H 0.16921 0.5779 0.55916 0.0
C2577 C 0.25707 0.69489 0.6648 0.0
C2578 C 0.19621 0.6518 0.62152 0.0
H2579 H 0.17497 0.5869 0.62142 0.0
C2580 C 0.17992 0.65869 0.59452 0.0
C2581 C 0.1946 0.62564 0.63125 0.0
C2582 C 0.21095 0.61709 0.66075 0.0
C2583 C 0.16192 0.64004 0.577 0.0
C2584 C 0.15989 0.61385 0.58714 0.0
C2585 C 0.1766 0.60702 0.61373 0.0
C2586 C 0.13991 0.59306 0.57129 0.0
C2587 C 0.1453 0.64851 0.54775 0.0
C2588 C 0.11255 0.58959 0.5706 0.0
C2589 C 0.09369 0.56889 0.55758 0.0
C2590 C 0.10189 0.55118 0.5452 0.0
C2591 C 0.12936 0.55493 0.54563 0.0
C2592 C 0.14817 0.57562 0.55866 0.0
H2593 H 0.15432 0.66892 0.5384 0.0
H2594 H 0.14283 0.63644 0.52895 0.0
H2595 H 0.1252 0.64656 0.55363 0.0
H2596 H 0.10577 0.60255 0.58081 0.0
H2597 H 0.07272 0.56657 0.55769 0.0
loop_
_geom_bond_atom_site_label_1
_geom_bond_atom_site_label_2
_geom_bond_distance
_geom_bond_site_symmetry_2
_ccdc_geom_bond_type
Tb0 N31 2.660 . S
Tb0 N38 2.600 . S
Tb0 O44 2.546 . S
Tb0 O45 2.610 . S
Tb0 O47 2.320 . S
Tb0 O48 2.552 . S
Tb0 O49 2.413 . S
Tb0 O51 2.362 . S
Tb0 O52 2.421 . S
Tb0 C64 2.833 . S
C1 C4 1.432 . S
C1 C5 1.414 . S
C1 N8 1.359 . S
C2 C4 1.417 . S
C2 C6 1.432 . S
C2 C14 1.410 . S
C3 C5 1.444 . S
C3 C6 1.317 . S
C3 H26 0.929 . S
C4 C1 1.432 . S
C4 C2 1.417 . S
C4 N12 1.360 . S
C5 C1 1.414 . S
C5 C3 1.444 . S
C5 C10 1.385 . S
C6 C2 1.432 . S
C6 C3 1.317 . S
C6 H18 0.930 . S
C7 C9 1.392 . S
C7 C10 1.370 . S
C7 H19 0.931 . S
N8 C1 1.359 . S
N8 C9 1.327 . S
N8 Tb11 2.600 . S
C9 C7 1.392 . S
C9 N8 1.327 . S
C9 H16 0.930 . S
C10 C5 1.385 . S
C10 C7 1.370 . S
C10 H29 0.930 . S
Tb11 N8 2.600 . S
Tb11 N12 2.660 . S
Tb11 O45 2.362 . S
Tb11 O46 2.421 . S
Tb11 O50 2.546 . S
Tb11 O51 2.610 . S
Tb11 O53 2.320 . S
Tb11 O54 2.552 . S
Tb11 O55 2.413 . S
Tb11 C75 2.833 . S
N12 C4 1.360 . S
N12 Tb11 2.660 . S
N12 C13 1.305 . S
C13 N12 1.305 . S
C13 C15 1.407 . S
C13 H20 0.930 . S
C14 C2 1.410 . S
C14 C15 1.345 . S
C14 H22 0.930 . S
C15 C13 1.407 . S
C15 C14 1.345 . S
C15 H17 0.930 . S
H16 C9 0.930 . S
H17 C15 0.930 . S
H18 C6 0.930 . S
H19 C7 0.931 . S
H20 C13 0.930 . S
H21 C35 0.930 . S
H22 C14 0.930 . S
H23 C41 0.930 . S
H24 C32 0.930 . S
H25 C39 0.931 . S
H26 C3 0.929 . S
H27 C33 0.930 . S
H28 C66 0.930 . S
H29 C10 0.930 . S
H30 C65 0.929 . S
N31 Tb0 2.660 . S
N31 C32 1.305 . S
N31 C36 1.360 . S
C32 H24 0.930 . S
C32 N31 1.305 . S
C32 C35 1.407 . S
C33 H27 0.930 . S
C33 C34 1.410 . S
C33 C35 1.345 . S
C34 C33 1.410 . S
C34 C36 1.417 . S
C34 C66 1.432 . S
C35 H21 0.930 . S
C35 C32 1.407 . S
C35 C33 1.345 . S
C36 N31 1.360 . S
C36 C34 1.417 . S
C36 C40 1.432 . S
H37 C42 0.930 . S
N38 Tb0 2.600 . S
N38 C40 1.359 . S
N38 C41 1.327 . S
C39 H25 0.931 . S
C39 C41 1.392 . S
C39 C42 1.370 . S
C40 C36 1.432 . S
C40 N38 1.359 . S
C40 C43 1.414 . S
C41 H23 0.930 . S
C41 N38 1.327 . S
C41 C39 1.392 . S
C42 H37 0.930 . S
C42 C39 1.370 . S
C42 C43 1.385 . S
C43 C40 1.414 . S
C43 C42 1.385 . S
C43 C65 1.444 . S
O44 Tb0 2.546 . S
O44 C64 1.251 . S
O45 Tb0 2.610 . S
O45 Tb11 2.362 . S
O45 C56 1.283 . S
O46 Tb11 2.421 . S
O46 C63 1.262 . S
O47 Tb0 2.320 . S
O47 C63 1.260 . S
O48 Tb0 2.552 . S
O48 C56 1.243 . S
O49 Tb0 2.413 . S
O49 C64 1.256 . S
O50 Tb11 2.546 . S
O50 C75 1.251 . S
O51 Tb0 2.362 . S
O51 Tb11 2.610 . S
O51 C67 1.283 . S
O52 Tb0 2.421 . S
O52 C74 1.262 . S
O53 Tb11 2.320 . S
O53 C74 1.260 . S
O54 Tb11 2.552 . S
O54 C67 1.243 . S
O55 Tb11 2.413 . S
O55 C75 1.256 . S
C56 O45 1.283 . S
C56 O48 1.243 . S
C57 C59 1.382 . S
C57 C61 1.393 . S
C57 C64 1.500 . S
C58 C59 1.400 . S
C58 C60 1.384 . S
C59 C57 1.382 . S
C59 C58 1.400 . S
C59 H76 0.930 . S
C60 C58 1.384 . S
C60 C62 1.392 . S
C60 H77 0.931 . S
C61 C57 1.393 . S
C61 C62 1.401 . S
C61 H78 0.930 . S
C62 C60 1.392 . S
C62 C61 1.401 . S
C62 H79 0.930 . S
C63 O46 1.262 . S
C63 O47 1.260 . S
C64 Tb0 2.833 . S
C64 O44 1.251 . S
C64 O49 1.256 . S
C64 C57 1.500 . S
C65 H30 0.929 . S
C65 C43 1.444 . S
C65 C66 1.317 . S
C66 H28 0.930 . S
C66 C34 1.432 . S
C66 C65 1.317 . S
C67 O51 1.283 . S
C67 O54 1.243 . S
C68 C69 1.382 . S
C68 C72 1.393 . S
C68 C75 1.500 . S
C69 C68 1.382 . S
C69 C70 1.400 . S
C69 H80 0.930 . S
C70 C69 1.400 . S
C70 C71 1.384 . S
C71 C70 1.384 . S
C71 C73 1.392 . S
C71 H81 0.931 . S
C72 C68 1.393 . S
C72 C73 1.401 . S
C72 H82 0.930 . S
C73 C71 1.392 . S
C73 C72 1.401 . S
C73 H83 0.930 . S
C74 O52 1.262 . S
C74 O53 1.260 . S
C75 Tb11 2.833 . S
C75 O50 1.251 . S
C75 O55 1.256 . S
C75 C68 1.500 . S
H76 C59 0.930 . S
H77 C60 0.931 . S
H78 C61 0.930 . S
H79 C62 0.930 . S
H80 C69 0.930 . S
H81 C71 0.931 . S
H82 C72 0.930 . S
H83 C73 0.930 . S
Tb84 N115 2.660 . S
Tb84 N122 2.600 . S
Tb84 O128 2.546 . S
Tb84 O129 2.610 . S
Tb84 O131 2.320 . S
Tb84 O132 2.552 . S
Tb84 O133 2.413 . S
Tb84 O135 2.362 . S
Tb84 O136 2.421 . S
Tb84 C148 2.833 . S
C85 C88 1.432 . S
C85 C89 1.414 . S
C85 N92 1.359 . S
C86 C88 1.417 . S
C86 C90 1.432 . S
C86 C98 1.410 . S
C87 C89 1.444 . S
C87 C90 1.317 . S
C87 H110 0.929 . S
C88 C85 1.432 . S
C88 C86 1.417 . S
C88 N96 1.360 . S
C89 C85 1.414 . S
C89 C87 1.444 . S
C89 C94 1.385 . S
C90 C86 1.432 . S
C90 C87 1.317 . S
C90 H102 0.930 . S
C91 C93 1.392 . S
C91 C94 1.370 . S
C91 H103 0.931 . S
N92 C85 1.359 . S
N92 C93 1.327 . S
N92 Tb95 2.600 . S
C93 C91 1.392 . S
C93 N92 1.327 . S
C93 H100 0.930 . S
C94 C89 1.385 . S
C94 C91 1.370 . S
C94 H113 0.930 . S
Tb95 N92 2.600 . S
Tb95 N96 2.660 . S
Tb95 O129 2.362 . S
Tb95 O130 2.421 . S
Tb95 O134 2.546 . S
Tb95 O135 2.610 . S
Tb95 O137 2.320 . S
Tb95 O138 2.552 . S
Tb95 O139 2.413 . S
Tb95 C159 2.833 . S
N96 C88 1.360 . S
N96 Tb95 2.660 . S
N96 C97 1.305 . S
C97 N96 1.305 . S
C97 C99 1.407 . S
C97 H104 0.930 . S
C98 C86 1.410 . S
C98 C99 1.345 . S
C98 H106 0.930 . S
C99 C97 1.407 . S
C99 C98 1.345 . S
C99 H101 0.930 . S
H100 C93 0.930 . S
H101 C99 0.930 . S
H102 C90 0.930 . S
H103 C91 0.931 . S
H104 C97 0.930 . S
H105 C119 0.930 . S
H106 C98 0.930 . S
H107 C125 0.930 . S
H108 C116 0.930 . S
H109 C123 0.931 . S
H110 C87 0.929 . S
H111 C117 0.930 . S
H112 C150 0.930 . S
H113 C94 0.930 . S
H114 C149 0.929 . S
N115 Tb84 2.660 . S
N115 C116 1.305 . S
N115 C120 1.360 . S
C116 H108 0.930 . S
C116 N115 1.305 . S
C116 C119 1.407 . S
C117 H111 0.930 . S
C117 C118 1.410 . S
C117 C119 1.345 . S
C118 C117 1.410 . S
C118 C120 1.417 . S
C118 C150 1.432 . S
C119 H105 0.930 . S
C119 C116 1.407 . S
C119 C117 1.345 . S
C120 N115 1.360 . S
C120 C118 1.417 . S
C120 C124 1.432 . S
H121 C126 0.930 . S
N122 Tb84 2.600 . S
N122 C124 1.359 . S
N122 C125 1.327 . S
C123 H109 0.931 . S
C123 C125 1.392 . S
C123 C126 1.370 . S
C124 C120 1.432 . S
C124 N122 1.359 . S
C124 C127 1.414 . S
C125 H107 0.930 . S
C125 N122 1.327 . S
C125 C123 1.392 . S
C126 H121 0.930 . S
C126 C123 1.370 . S
C126 C127 1.385 . S
C127 C124 1.414 . S
C127 C126 1.385 . S
C127 C149 1.444 . S
O128 Tb84 2.546 . S
O128 C148 1.251 . S
O129 Tb84 2.610 . S
O129 Tb95 2.362 . S
O129 C140 1.283 . S
O130 Tb95 2.421 . S
O130 C147 1.262 . S
O131 Tb84 2.320 . S
O131 C147 1.260 . S
O132 Tb84 2.552 . S
O132 C140 1.243 . S
O133 Tb84 2.413 . S
O133 C148 1.256 . S
O134 Tb95 2.546 . S
O134 C159 1.251 . S
O135 Tb84 2.362 . S
O135 Tb95 2.610 . S
O135 C151 1.283 . S
O136 Tb84 2.421 . S
O136 C158 1.262 . S
O137 Tb95 2.320 . S
O137 C158 1.260 . S
O138 Tb95 2.552 . S
O138 C151 1.243 . S
O139 Tb95 2.413 . S
O139 C159 1.256 . S
C140 O129 1.283 . S
C140 O132 1.243 . S
C141 C143 1.382 . S
C141 C145 1.393 . S
C141 C148 1.500 . S
C142 C143 1.400 . S
C142 C144 1.384 . S
C143 C141 1.382 . S
C143 C142 1.400 . S
C143 H160 0.930 . S
C144 C142 1.384 . S
C144 C146 1.392 . S
C144 H161 0.931 . S
C145 C141 1.393 . S
C145 C146 1.401 . S
C145 H162 0.930 . S
C146 C144 1.392 . S
C146 C145 1.401 . S
C146 H163 0.930 . S
C147 O130 1.262 . S
C147 O131 1.260 . S
C148 Tb84 2.833 . S
C148 O128 1.251 . S
C148 O133 1.256 . S
C148 C141 1.500 . S
C149 H114 0.929 . S
C149 C127 1.444 . S
C149 C150 1.317 . S
C150 H112 0.930 . S
C150 C118 1.432 . S
C150 C149 1.317 . S
C151 O135 1.283 . S
C151 O138 1.243 . S
C152 C153 1.382 . S
C152 C156 1.393 . S
C152 C159 1.500 . S
C153 C152 1.382 . S
C153 C154 1.400 . S
C153 H164 0.930 . S
C154 C153 1.400 . S
C154 C155 1.384 . S
C155 C154 1.384 . S
C155 C157 1.392 . S
C155 H165 0.931 . S
C156 C152 1.393 . S
C156 C157 1.401 . S
C156 H166 0.930 . S
C157 C155 1.392 . S
C157 C156 1.401 . S
C157 H167 0.930 . S
C158 O136 1.262 . S
C158 O137 1.260 . S
C159 Tb95 2.833 . S
C159 O134 1.251 . S
C159 O139 1.256 . S
C159 C152 1.500 . S
H160 C143 0.930 . S
H161 C144 0.931 . S
H162 C145 0.930 . S
H163 C146 0.930 . S
H164 C153 0.930 . S
H165 C155 0.931 . S
H166 C156 0.930 . S
H167 C157 0.930 . S
Tb168 N199 2.660 . S
Tb168 N206 2.600 . S
Tb168 O212 2.546 . S
Tb168 O213 2.610 . S
Tb168 O215 2.320 . S
Tb168 O216 2.552 . S
Tb168 O217 2.413 . S
Tb168 O219 2.362 . S
Tb168 O220 2.421 . S
Tb168 C232 2.833 . S
C169 C172 1.432 . S
C169 C173 1.414 . S
C169 N176 1.359 . S
C170 C172 1.417 . S
C170 C174 1.432 . S
C170 C182 1.410 . S
C171 C173 1.444 . S
C171 C174 1.317 . S
C171 H194 0.929 . S
C172 C169 1.432 . S
C172 C170 1.417 . S
C172 N180 1.360 . S
C173 C169 1.414 . S
C173 C171 1.444 . S
C173 C178 1.385 . S
C174 C170 1.432 . S
C174 C171 1.317 . S
C174 H186 0.930 . S
C175 C177 1.392 . S
C175 C178 1.370 . S
C175 H187 0.931 . S
N176 C169 1.359 . S
N176 C177 1.327 . S
N176 Tb179 2.600 . S
C177 C175 1.392 . S
C177 N176 1.327 . S
C177 H184 0.930 . S
C178 C173 1.385 . S
C178 C175 1.370 . S
C178 H197 0.930 . S
Tb179 N176 2.600 . S
Tb179 N180 2.660 . S
Tb179 O213 2.362 . S
Tb179 O214 2.421 . S
Tb179 O218 2.546 . S
Tb179 O219 2.610 . S
Tb179 O221 2.320 . S
Tb179 O222 2.552 . S
Tb179 O223 2.413 . S
Tb179 C243 2.833 . S
N180 C172 1.360 . S
N180 Tb179 2.660 . S
N180 C181 1.305 . S
C181 N180 1.305 . S
C181 C183 1.407 . S
C181 H188 0.930 . S
C182 C170 1.410 . S
C182 C183 1.345 . S
C182 H190 0.930 . S
C183 C181 1.407 . S
C183 C182 1.345 . S
C183 H185 0.930 . S
H184 C177 0.930 . S
H185 C183 0.930 . S
H186 C174 0.930 . S
H187 C175 0.931 . S
H188 C181 0.930 . S
H189 C203 0.930 . S
H190 C182 0.930 . S
H191 C209 0.930 . S
H192 C200 0.930 . S
H193 C207 0.931 . S
H194 C171 0.929 . S
H195 C201 0.930 . S
H196 C234 0.930 . S
H197 C178 0.930 . S
H198 C233 0.929 . S
N199 Tb168 2.660 . S
N199 C200 1.305 . S
N199 C204 1.360 . S
C200 H192 0.930 . S
C200 N199 1.305 . S
C200 C203 1.407 . S
C201 H195 0.930 . S
C201 C202 1.410 . S
C201 C203 1.345 . S
C202 C201 1.410 . S
C202 C204 1.417 . S
C202 C234 1.432 . S
C203 H189 0.930 . S
C203 C200 1.407 . S
C203 C201 1.345 . S
C204 N199 1.360 . S
C204 C202 1.417 . S
C204 C208 1.432 . S
H205 C210 0.930 . S
N206 Tb168 2.600 . S
N206 C208 1.359 . S
N206 C209 1.327 . S
C207 H193 0.931 . S
C207 C209 1.392 . S
C207 C210 1.370 . S
C208 C204 1.432 . S
C208 N206 1.359 . S
C208 C211 1.414 . S
C209 H191 0.930 . S
C209 N206 1.327 . S
C209 C207 1.392 . S
C210 H205 0.930 . S
C210 C207 1.370 . S
C210 C211 1.385 . S
C211 C208 1.414 . S
C211 C210 1.385 . S
C211 C233 1.444 . S
O212 Tb168 2.546 . S
O212 C232 1.251 . S
O213 Tb168 2.610 . S
O213 Tb179 2.362 . S
O213 C224 1.283 . S
O214 Tb179 2.421 . S
O214 C231 1.262 . S
O215 Tb168 2.320 . S
O215 C231 1.260 . S
O216 Tb168 2.552 . S
O216 C224 1.243 . S
O217 Tb168 2.413 . S
O217 C232 1.256 . S
O218 Tb179 2.546 . S
O218 C243 1.251 . S
O219 Tb168 2.362 . S
O219 Tb179 2.610 . S
O219 C235 1.283 . S
O220 Tb168 2.421 . S
O220 C242 1.262 . S
O221 Tb179 2.320 . S
O221 C242 1.260 . S
O222 Tb179 2.552 . S
O222 C235 1.243 . S
O223 Tb179 2.413 . S
O223 C243 1.256 . S
C224 O213 1.283 . S
C224 O216 1.243 . S
C225 C227 1.382 . S
C225 C229 1.393 . S
C225 C232 1.500 . S
C226 C227 1.400 . S
C226 C228 1.384 . S
C227 C225 1.382 . S
C227 C226 1.400 . S
C227 H244 0.930 . S
C228 C226 1.384 . S
C228 C230 1.392 . S
C228 H245 0.931 . S
C229 C225 1.393 . S
C229 C230 1.401 . S
C229 H246 0.930 . S
C230 C228 1.392 . S
C230 C229 1.401 . S
C230 H247 0.930 . S
C231 O214 1.262 . S
C231 O215 1.260 . S
C232 Tb168 2.833 . S
C232 O212 1.251 . S
C232 O217 1.256 . S
C232 C225 1.500 . S
C233 H198 0.929 . S
C233 C211 1.444 . S
C233 C234 1.317 . S
C234 H196 0.930 . S
C234 C202 1.432 . S
C234 C233 1.317 . S
C235 O219 1.283 . S
C235 O222 1.243 . S
C236 C237 1.382 . S
C236 C240 1.393 . S
C236 C243 1.500 . S
C237 C236 1.382 . S
C237 C238 1.400 . S
C237 H248 0.930 . S
C238 C237 1.400 . S
C238 C239 1.384 . S
C239 C238 1.384 . S
C239 C241 1.392 . S
C239 H249 0.931 . S
C240 C236 1.393 . S
C240 C241 1.401 . S
C240 H250 0.930 . S
C241 C239 1.392 . S
C241 C240 1.401 . S
C241 H251 0.930 . S
C242 O220 1.262 . S
C242 O221 1.260 . S
C243 Tb179 2.833 . S
C243 O218 1.251 . S
C243 O223 1.256 . S
C243 C236 1.500 . S
H244 C227 0.930 . S
H245 C228 0.931 . S
H246 C229 0.930 . S
H247 C230 0.930 . S
H248 C237 0.930 . S
H249 C239 0.931 . S
H250 C240 0.930 . S
H251 C241 0.930 . S
Tb252 N283 2.660 . S
Tb252 N290 2.600 . S
Tb252 O296 2.546 . S
Tb252 O297 2.610 . S
Tb252 O299 2.320 . S
Tb252 O300 2.552 . S
Tb252 O301 2.413 . S
Tb252 O303 2.362 . S
Tb252 O304 2.421 . S
Tb252 C316 2.833 . S
C253 C256 1.432 . S
C253 C257 1.414 . S
C253 N260 1.359 . S
C254 C256 1.417 . S
C254 C258 1.432 . S
C254 C266 1.410 . S
C255 C257 1.444 . S
C255 C258 1.317 . S
C255 H278 0.929 . S
C256 C253 1.432 . S
C256 C254 1.417 . S
C256 N264 1.360 . S
C257 C253 1.414 . S
C257 C255 1.444 . S
C257 C262 1.385 . S
C258 C254 1.432 . S
C258 C255 1.317 . S
C258 H270 0.930 . S
C259 C261 1.392 . S
C259 C262 1.370 . S
C259 H271 0.931 . S
N260 C253 1.359 . S
N260 C261 1.327 . S
N260 Tb263 2.600 . S
C261 C259 1.392 . S
C261 N260 1.327 . S
C261 H268 0.930 . S
C262 C257 1.385 . S
C262 C259 1.370 . S
C262 H281 0.930 . S
Tb263 N260 2.600 . S
Tb263 N264 2.660 . S
Tb263 O297 2.362 . S
Tb263 O298 2.421 . S
Tb263 O302 2.546 . S
Tb263 O303 2.610 . S
Tb263 O305 2.320 . S
Tb263 O306 2.552 . S
Tb263 O307 2.413 . S
Tb263 C327 2.833 . S
N264 C256 1.360 . S
N264 Tb263 2.660 . S
N264 C265 1.305 . S
C265 N264 1.305 . S
C265 C267 1.407 . S
C265 H272 0.930 . S
C266 C254 1.410 . S
C266 C267 1.345 . S
C266 H274 0.930 . S
C267 C265 1.407 . S
C267 C266 1.345 . S
C267 H269 0.930 . S
H268 C261 0.930 . S
H269 C267 0.930 . S
H270 C258 0.930 . S
H271 C259 0.931 . S
H272 C265 0.930 . S
H273 C287 0.930 . S
H274 C266 0.930 . S
H275 C293 0.930 . S
H276 C284 0.930 . S
H277 C291 0.931 . S
H278 C255 0.929 . S
H279 C285 0.930 . S
H280 C318 0.930 . S
H281 C262 0.930 . S
H282 C317 0.929 . S
N283 Tb252 2.660 . S
N283 C284 1.305 . S
N283 C288 1.360 . S
C284 H276 0.930 . S
C284 N283 1.305 . S
C284 C287 1.407 . S
C285 H279 0.930 . S
C285 C286 1.410 . S
C285 C287 1.345 . S
C286 C285 1.410 . S
C286 C288 1.417 . S
C286 C318 1.432 . S
C287 H273 0.930 . S
C287 C284 1.407 . S
C287 C285 1.345 . S
C288 N283 1.360 . S
C288 C286 1.417 . S
C288 C292 1.432 . S
H289 C294 0.930 . S
N290 Tb252 2.600 . S
N290 C292 1.359 . S
N290 C293 1.327 . S
C291 H277 0.931 . S
C291 C293 1.392 . S
C291 C294 1.370 . S
C292 C288 1.432 . S
C292 N290 1.359 . S
C292 C295 1.414 . S
C293 H275 0.930 . S
C293 N290 1.327 . S
C293 C291 1.392 . S
C294 H289 0.930 . S
C294 C291 1.370 . S
C294 C295 1.385 . S
C295 C292 1.414 . S
C295 C294 1.385 . S
C295 C317 1.444 . S
O296 Tb252 2.546 . S
O296 C316 1.251 . S
O297 Tb252 2.610 . S
O297 Tb263 2.362 . S
O297 C308 1.283 . S
O298 Tb263 2.421 . S
O298 C315 1.262 . S
O299 Tb252 2.320 . S
O299 C315 1.260 . S
O300 Tb252 2.552 . S
O300 C308 1.243 . S
O301 Tb252 2.413 . S
O301 C316 1.256 . S
O302 Tb263 2.546 . S
O302 C327 1.251 . S
O303 Tb252 2.362 . S
O303 Tb263 2.610 . S
O303 C319 1.283 . S
O304 Tb252 2.421 . S
O304 C326 1.262 . S
O305 Tb263 2.320 . S
O305 C326 1.260 . S
O306 Tb263 2.552 . S
O306 C319 1.243 . S
O307 Tb263 2.413 . S
O307 C327 1.256 . S
C308 O297 1.283 . S
C308 O300 1.243 . S
C309 C311 1.382 . S
C309 C313 1.393 . S
C309 C316 1.500 . S
C310 C311 1.400 . S
C310 C312 1.384 . S
C311 C309 1.382 . S
C311 C310 1.400 . S
C311 H328 0.930 . S
C312 C310 1.384 . S
C312 C314 1.392 . S
C312 H329 0.931 . S
C313 C309 1.393 . S
C313 C314 1.401 . S
C313 H330 0.930 . S
C314 C312 1.392 . S
C314 C313 1.401 . S
C314 H331 0.930 . S
C315 O298 1.262 . S
C315 O299 1.260 . S
C316 Tb252 2.833 . S
C316 O296 1.251 . S
C316 O301 1.256 . S
C316 C309 1.500 . S
C317 H282 0.929 . S
C317 C295 1.444 . S
C317 C318 1.317 . S
C318 H280 0.930 . S
C318 C286 1.432 . S
C318 C317 1.317 . S
C319 O303 1.283 . S
C319 O306 1.243 . S
C320 C321 1.382 . S
C320 C324 1.393 . S
C320 C327 1.500 . S
C321 C320 1.382 . S
C321 C322 1.400 . S
C321 H332 0.930 . S
C322 C321 1.400 . S
C322 C323 1.384 . S
C323 C322 1.384 . S
C323 C325 1.392 . S
C323 H333 0.931 . S
C324 C320 1.393 . S
C324 C325 1.401 . S
C324 H334 0.930 . S
C325 C323 1.392 . S
C325 C324 1.401 . S
C325 H335 0.930 . S
C326 O304 1.262 . S
C326 O305 1.260 . S
C327 Tb263 2.833 . S
C327 O302 1.251 . S
C327 O307 1.256 . S
C327 C320 1.500 . S
H328 C311 0.930 . S
H329 C312 0.931 . S
H330 C313 0.930 . S
H331 C314 0.930 . S
H332 C321 0.930 . S
H333 C323 0.931 . S
H334 C324 0.930 . S
H335 C325 0.930 . S
Tb336 N367 2.660 . S
Tb336 N374 2.600 . S
Tb336 O380 2.546 . S
Tb336 O381 2.610 . S
Tb336 O383 2.320 . S
Tb336 O384 2.552 . S
Tb336 O385 2.413 . S
Tb336 O387 2.362 . S
Tb336 O388 2.421 . S
Tb336 C400 2.833 . S
C337 C340 1.432 . S
C337 C341 1.414 . S
C337 N344 1.359 . S
C338 C340 1.417 . S
C338 C342 1.432 . S
C338 C350 1.410 . S
C339 C341 1.444 . S
C339 C342 1.317 . S
C339 H362 0.929 . S
C340 C337 1.432 . S
C340 C338 1.417 . S
C340 N348 1.360 . S
C341 C337 1.414 . S
C341 C339 1.444 . S
C341 C346 1.385 . S
C342 C338 1.432 . S
C342 C339 1.317 . S
C342 H354 0.930 . S
C343 C345 1.392 . S
C343 C346 1.370 . S
C343 H355 0.931 . S
N344 C337 1.359 . S
N344 C345 1.327 . S
N344 Tb347 2.600 . S
C345 C343 1.392 . S
C345 N344 1.327 . S
C345 H352 0.930 . S
C346 C341 1.385 . S
C346 C343 1.370 . S
C346 H365 0.930 . S
Tb347 N344 2.600 . S
Tb347 N348 2.660 . S
Tb347 O381 2.362 . S
Tb347 O382 2.421 . S
Tb347 O386 2.546 . S
Tb347 O387 2.610 . S
Tb347 O389 2.320 . S
Tb347 O390 2.552 . S
Tb347 O391 2.413 . S
Tb347 C411 2.833 . S
N348 C340 1.360 . S
N348 Tb347 2.660 . S
N348 C349 1.305 . S
C349 N348 1.305 . S
C349 C351 1.407 . S
C349 H356 0.930 . S
C350 C338 1.410 . S
C350 C351 1.345 . S
C350 H358 0.930 . S
C351 C349 1.407 . S
C351 C350 1.345 . S
C351 H353 0.930 . S
H352 C345 0.930 . S
H353 C351 0.930 . S
H354 C342 0.930 . S
H355 C343 0.931 . S
H356 C349 0.930 . S
H357 C371 0.930 . S
H358 C350 0.930 . S
H359 C377 0.930 . S
H360 C368 0.930 . S
H361 C375 0.931 . S
H362 C339 0.929 . S
H363 C369 0.930 . S
H364 C402 0.930 . S
H365 C346 0.930 . S
H366 C401 0.929 . S
N367 Tb336 2.660 . S
N367 C368 1.305 . S
N367 C372 1.360 . S
C368 H360 0.930 . S
C368 N367 1.305 . S
C368 C371 1.407 . S
C369 H363 0.930 . S
C369 C370 1.410 . S
C369 C371 1.345 . S
C370 C369 1.410 . S
C370 C372 1.417 . S
C370 C402 1.432 . S
C371 H357 0.930 . S
C371 C368 1.407 . S
C371 C369 1.345 . S
C372 N367 1.360 . S
C372 C370 1.417 . S
C372 C376 1.432 . S
H373 C378 0.930 . S
N374 Tb336 2.600 . S
N374 C376 1.359 . S
N374 C377 1.327 . S
C375 H361 0.931 . S
C375 C377 1.392 . S
C375 C378 1.370 . S
C376 C372 1.432 . S
C376 N374 1.359 . S
C376 C379 1.414 . S
C377 H359 0.930 . S
C377 N374 1.327 . S
C377 C375 1.392 . S
C378 H373 0.930 . S
C378 C375 1.370 . S
C378 C379 1.385 . S
C379 C376 1.414 . S
C379 C378 1.385 . S
C379 C401 1.444 . S
O380 Tb336 2.546 . S
O380 C400 1.251 . S
O381 Tb336 2.610 . S
O381 Tb347 2.362 . S
O381 C392 1.283 . S
O382 Tb347 2.421 . S
O382 C399 1.262 . S
O383 Tb336 2.320 . S
O383 C399 1.260 . S
O384 Tb336 2.552 . S
O384 C392 1.243 . S
O385 Tb336 2.413 . S
O385 C400 1.256 . S
O386 Tb347 2.546 . S
O386 C411 1.251 . S
O387 Tb336 2.362 . S
O387 Tb347 2.610 . S
O387 C403 1.283 . S
O388 Tb336 2.421 . S
O388 C410 1.262 . S
O389 Tb347 2.320 . S
O389 C410 1.260 . S
O390 Tb347 2.552 . S
O390 C403 1.243 . S
O391 Tb347 2.413 . S
O391 C411 1.256 . S
C392 O381 1.283 . S
C392 O384 1.243 . S
C393 C395 1.382 . S
C393 C397 1.393 . S
C393 C400 1.500 . S
C394 C395 1.400 . S
C394 C396 1.384 . S
C395 C393 1.382 . S
C395 C394 1.400 . S
C395 H412 0.930 . S
C396 C394 1.384 . S
C396 C398 1.392 . S
C396 H413 0.931 . S
C397 C393 1.393 . S
C397 C398 1.401 . S
C397 H414 0.930 . S
C398 C396 1.392 . S
C398 C397 1.401 . S
C398 H415 0.930 . S
C399 O382 1.262 . S
C399 O383 1.260 . S
C400 Tb336 2.833 . S
C400 O380 1.251 . S
C400 O385 1.256 . S
C400 C393 1.500 . S
C401 H366 0.929 . S
C401 C379 1.444 . S
C401 C402 1.317 . S
C402 H364 0.930 . S
C402 C370 1.432 . S
C402 C401 1.317 . S
C403 O387 1.283 . S
C403 O390 1.243 . S
C404 C405 1.382 . S
C404 C408 1.393 . S
C404 C411 1.500 . S
C405 C404 1.382 . S
C405 C406 1.400 . S
C405 H416 0.930 . S
C406 C405 1.400 . S
C406 C407 1.384 . S
C407 C406 1.384 . S
C407 C409 1.392 . S
C407 H417 0.931 . S
C408 C404 1.393 . S
C408 C409 1.401 . S
C408 H418 0.930 . S
C409 C407 1.392 . S
C409 C408 1.401 . S
C409 H419 0.930 . S
C410 O388 1.262 . S
C410 O389 1.260 . S
C411 Tb347 2.833 . S
C411 O386 1.251 . S
C411 O391 1.256 . S
C411 C404 1.500 . S
H412 C395 0.930 . S
H413 C396 0.931 . S
H414 C397 0.930 . S
H415 C398 0.930 . S
H416 C405 0.930 . S
H417 C407 0.931 . S
H418 C408 0.930 . S
H419 C409 0.930 . S
Tb420 N451 2.660 . S
Tb420 N458 2.600 . S
Tb420 O464 2.546 . S
Tb420 O465 2.610 . S
Tb420 O467 2.320 . S
Tb420 O468 2.552 . S
Tb420 O469 2.413 . S
Tb420 O471 2.362 . S
Tb420 O472 2.421 . S
Tb420 C484 2.833 . S
C421 C424 1.432 . S
C421 C425 1.414 . S
C421 N428 1.359 . S
C422 C424 1.417 . S
C422 C426 1.432 . S
C422 C434 1.410 . S
C423 C425 1.444 . S
C423 C426 1.317 . S
C423 H446 0.929 . S
C424 C421 1.432 . S
C424 C422 1.417 . S
C424 N432 1.360 . S
C425 C421 1.414 . S
C425 C423 1.444 . S
C425 C430 1.385 . S
C426 C422 1.432 . S
C426 C423 1.317 . S
C426 H438 0.930 . S
C427 C429 1.392 . S
C427 C430 1.370 . S
C427 H439 0.931 . S
N428 C421 1.359 . S
N428 C429 1.327 . S
N428 Tb431 2.600 . S
C429 C427 1.392 . S
C429 N428 1.327 . S
C429 H436 0.930 . S
C430 C425 1.385 . S
C430 C427 1.370 . S
C430 H449 0.930 . S
Tb431 N428 2.600 . S
Tb431 N432 2.660 . S
Tb431 O465 2.362 . S
Tb431 O466 2.421 . S
Tb431 O470 2.546 . S
Tb431 O471 2.610 . S
Tb431 O473 2.320 . S
Tb431 O474 2.552 . S
Tb431 O475 2.413 . S
Tb431 C495 2.833 . S
N432 C424 1.360 . S
N432 Tb431 2.660 . S
N432 C433 1.305 . S
C433 N432 1.305 . S
C433 C435 1.407 . S
C433 H440 0.930 . S
C434 C422 1.410 . S
C434 C435 1.345 . S
C434 H442 0.930 . S
C435 C433 1.407 . S
C435 C434 1.345 . S
C435 H437 0.930 . S
H436 C429 0.930 . S
H437 C435 0.930 . S
H438 C426 0.930 . S
H439 C427 0.931 . S
H440 C433 0.930 . S
H441 C455 0.930 . S
H442 C434 0.930 . S
H443 C461 0.930 . S
H444 C452 0.930 . S
H445 C459 0.931 . S
H446 C423 0.929 . S
H447 C453 0.930 . S
H448 C486 0.930 . S
H449 C430 0.930 . S
H450 C485 0.929 . S
N451 Tb420 2.660 . S
N451 C452 1.305 . S
N451 C456 1.360 . S
C452 H444 0.930 . S
C452 N451 1.305 . S
C452 C455 1.407 . S
C453 H447 0.930 . S
C453 C454 1.410 . S
C453 C455 1.345 . S
C454 C453 1.410 . S
C454 C456 1.417 . S
C454 C486 1.432 . S
C455 H441 0.930 . S
C455 C452 1.407 . S
C455 C453 1.345 . S
C456 N451 1.360 . S
C456 C454 1.417 . S
C456 C460 1.432 . S
H457 C462 0.930 . S
N458 Tb420 2.600 . S
N458 C460 1.359 . S
N458 C461 1.327 . S
C459 H445 0.931 . S
C459 C461 1.392 . S
C459 C462 1.370 . S
C460 C456 1.432 . S
C460 N458 1.359 . S
C460 C463 1.414 . S
C461 H443 0.930 . S
C461 N458 1.327 . S
C461 C459 1.392 . S
C462 H457 0.930 . S
C462 C459 1.370 . S
C462 C463 1.385 . S
C463 C460 1.414 . S
C463 C462 1.385 . S
C463 C485 1.444 . S
O464 Tb420 2.546 . S
O464 C484 1.251 . S
O465 Tb420 2.610 . S
O465 Tb431 2.362 . S
O465 C476 1.283 . S
O466 Tb431 2.421 . S
O466 C483 1.262 . S
O467 Tb420 2.320 . S
O467 C483 1.260 . S
O468 Tb420 2.552 . S
O468 C476 1.243 . S
O469 Tb420 2.413 . S
O469 C484 1.256 . S
O470 Tb431 2.546 . S
O470 C495 1.251 . S
O471 Tb420 2.362 . S
O471 Tb431 2.610 . S
O471 C487 1.283 . S
O472 Tb420 2.421 . S
O472 C494 1.262 . S
O473 Tb431 2.320 . S
O473 C494 1.260 . S
O474 Tb431 2.552 . S
O474 C487 1.243 . S
O475 Tb431 2.413 . S
O475 C495 1.256 . S
C476 O465 1.283 . S
C476 O468 1.243 . S
C477 C479 1.382 . S
C477 C481 1.393 . S
C477 C484 1.500 . S
C478 C479 1.400 . S
C478 C480 1.384 . S
C479 C477 1.382 . S
C479 C478 1.400 . S
C479 H496 0.930 . S
C480 C478 1.384 . S
C480 C482 1.392 . S
C480 H497 0.931 . S
C481 C477 1.393 . S
C481 C482 1.401 . S
C481 H498 0.930 . S
C482 C480 1.392 . S
C482 C481 1.401 . S
C482 H499 0.930 . S
C483 O466 1.262 . S
C483 O467 1.260 . S
C484 Tb420 2.833 . S
C484 O464 1.251 . S
C484 O469 1.256 . S
C484 C477 1.500 . S
C485 H450 0.929 . S
C485 C463 1.444 . S
C485 C486 1.317 . S
C486 H448 0.930 . S
C486 C454 1.432 . S
C486 C485 1.317 . S
C487 O471 1.283 . S
C487 O474 1.243 . S
C488 C489 1.382 . S
C488 C492 1.393 . S
C488 C495 1.500 . S
C489 C488 1.382 . S
C489 C490 1.400 . S
C489 H500 0.930 . S
C490 C489 1.400 . S
C490 C491 1.384 . S
C491 C490 1.384 . S
C491 C493 1.392 . S
C491 H501 0.931 . S
C492 C488 1.393 . S
C492 C493 1.401 . S
C492 H502 0.930 . S
C493 C491 1.392 . S
C493 C492 1.401 . S
C493 H503 0.930 . S
C494 O472 1.262 . S
C494 O473 1.260 . S
C495 Tb431 2.833 . S
C495 O470 1.251 . S
C495 O475 1.256 . S
C495 C488 1.500 . S
H496 C479 0.930 . S
H497 C480 0.931 . S
H498 C481 0.930 . S
H499 C482 0.930 . S
H500 C489 0.930 . S
H501 C491 0.931 . S
H502 C492 0.930 . S
H503 C493 0.930 . S
Tb504 N535 2.660 . S
Tb504 N542 2.600 . S
Tb504 O548 2.546 . S
Tb504 O549 2.610 . S
Tb504 O551 2.320 . S
Tb504 O552 2.552 . S
Tb504 O553 2.413 . S
Tb504 O555 2.362 . S
Tb504 O556 2.421 . S
Tb504 C568 2.833 . S
C505 C508 1.432 . S
C505 C509 1.414 . S
C505 N512 1.359 . S
C506 C508 1.417 . S
C506 C510 1.432 . S
C506 C518 1.410 . S
C507 C509 1.444 . S
C507 C510 1.317 . S
C507 H530 0.929 . S
C508 C505 1.432 . S
C508 C506 1.417 . S
C508 N516 1.360 . S
C509 C505 1.414 . S
C509 C507 1.444 . S
C509 C514 1.385 . S
C510 C506 1.432 . S
C510 C507 1.317 . S
C510 H522 0.930 . S
C511 C513 1.392 . S
C511 C514 1.370 . S
C511 H523 0.931 . S
N512 C505 1.359 . S
N512 C513 1.327 . S
N512 Tb515 2.600 . S
C513 C511 1.392 . S
C513 N512 1.327 . S
C513 H520 0.930 . S
C514 C509 1.385 . S
C514 C511 1.370 . S
C514 H533 0.930 . S
Tb515 N512 2.600 . S
Tb515 N516 2.660 . S
Tb515 O549 2.362 . S
Tb515 O550 2.421 . S
Tb515 O554 2.546 . S
Tb515 O555 2.610 . S
Tb515 O557 2.320 . S
Tb515 O558 2.552 . S
Tb515 O559 2.413 . S
Tb515 C579 2.833 . S
N516 C508 1.360 . S
N516 Tb515 2.660 . S
N516 C517 1.305 . S
C517 N516 1.305 . S
C517 C519 1.407 . S
C517 H524 0.930 . S
C518 C506 1.410 . S
C518 C519 1.345 . S
C518 H526 0.930 . S
C519 C517 1.407 . S
C519 C518 1.345 . S
C519 H521 0.930 . S
H520 C513 0.930 . S
H521 C519 0.930 . S
H522 C510 0.930 . S
H523 C511 0.931 . S
H524 C517 0.930 . S
H525 C539 0.930 . S
H526 C518 0.930 . S
H527 C545 0.930 . S
H528 C536 0.930 . S
H529 C543 0.931 . S
H530 C507 0.929 . S
H531 C537 0.930 . S
H532 C570 0.930 . S
H533 C514 0.930 . S
H534 C569 0.929 . S
N535 Tb504 2.660 . S
N535 C536 1.305 . S
N535 C540 1.360 . S
C536 H528 0.930 . S
C536 N535 1.305 . S
C536 C539 1.407 . S
C537 H531 0.930 . S
C537 C538 1.410 . S
C537 C539 1.345 . S
C538 C537 1.410 . S
C538 C540 1.417 . S
C538 C570 1.432 . S
C539 H525 0.930 . S
C539 C536 1.407 . S
C539 C537 1.345 . S
C540 N535 1.360 . S
C540 C538 1.417 . S
C540 C544 1.432 . S
H541 C546 0.930 . S
N542 Tb504 2.600 . S
N542 C544 1.359 . S
N542 C545 1.327 . S
C543 H529 0.931 . S
C543 C545 1.392 . S
C543 C546 1.370 . S
C544 C540 1.432 . S
C544 N542 1.359 . S
C544 C547 1.414 . S
C545 H527 0.930 . S
C545 N542 1.327 . S
C545 C543 1.392 . S
C546 H541 0.930 . S
C546 C543 1.370 . S
C546 C547 1.385 . S
C547 C544 1.414 . S
C547 C546 1.385 . S
C547 C569 1.444 . S
O548 Tb504 2.546 . S
O548 C568 1.251 . S
O549 Tb504 2.610 . S
O549 Tb515 2.362 . S
O549 C560 1.283 . S
O550 Tb515 2.421 . S
O550 C567 1.262 . S
O551 Tb504 2.320 . S
O551 C567 1.260 . S
O552 Tb504 2.552 . S
O552 C560 1.243 . S
O553 Tb504 2.413 . S
O553 C568 1.256 . S
O554 Tb515 2.546 . S
O554 C579 1.251 . S
O555 Tb504 2.362 . S
O555 Tb515 2.610 . S
O555 C571 1.283 . S
O556 Tb504 2.421 . S
O556 C578 1.262 . S
O557 Tb515 2.320 . S
O557 C578 1.260 . S
O558 Tb515 2.552 . S
O558 C571 1.243 . S
O559 Tb515 2.413 . S
O559 C579 1.256 . S
C560 O549 1.283 . S
C560 O552 1.243 . S
C561 C563 1.382 . S
C561 C565 1.393 . S
C561 C568 1.500 . S
C562 C563 1.400 . S
C562 C564 1.384 . S
C563 C561 1.382 . S
C563 C562 1.400 . S
C563 H580 0.930 . S
C564 C562 1.384 . S
C564 C566 1.392 . S
C564 H581 0.931 . S
C565 C561 1.393 . S
C565 C566 1.401 . S
C565 H582 0.930 . S
C566 C564 1.392 . S
C566 C565 1.401 . S
C566 H583 0.930 . S
C567 O550 1.262 . S
C567 O551 1.260 . S
C568 Tb504 2.833 . S
C568 O548 1.251 . S
C568 O553 1.256 . S
C568 C561 1.500 . S
C569 H534 0.929 . S
C569 C547 1.444 . S
C569 C570 1.317 . S
C570 H532 0.930 . S
C570 C538 1.432 . S
C570 C569 1.317 . S
C571 O555 1.283 . S
C571 O558 1.243 . S
C572 C573 1.382 . S
C572 C576 1.393 . S
C572 C579 1.500 . S
C573 C572 1.382 . S
C573 C574 1.400 . S
C573 H584 0.930 . S
C574 C573 1.400 . S
C574 C575 1.384 . S
C575 C574 1.384 . S
C575 C577 1.392 . S
C575 H585 0.931 . S
C576 C572 1.393 . S
C576 C577 1.401 . S
C576 H586 0.930 . S
C577 C575 1.392 . S
C577 C576 1.401 . S
C577 H587 0.930 . S
C578 O556 1.262 . S
C578 O557 1.260 . S
C579 Tb515 2.833 . S
C579 O554 1.251 . S
C579 O559 1.256 . S
C579 C572 1.500 . S
H580 C563 0.930 . S
H581 C564 0.931 . S
H582 C565 0.930 . S
H583 C566 0.930 . S
H584 C573 0.930 . S
H585 C575 0.931 . S
H586 C576 0.930 . S
H587 C577 0.930 . S
Tb588 N619 2.660 . S
Tb588 N626 2.600 . S
Tb588 O632 2.546 . S
Tb588 O633 2.610 . S
Tb588 O635 2.320 . S
Tb588 O636 2.552 . S
Tb588 O637 2.413 . S
Tb588 O639 2.362 . S
Tb588 O640 2.421 . S
Tb588 C652 2.833 . S
C589 C592 1.432 . S
C589 C593 1.414 . S
C589 N596 1.359 . S
C590 C592 1.417 . S
C590 C594 1.432 . S
C590 C602 1.410 . S
C591 C593 1.444 . S
C591 C594 1.317 . S
C591 H614 0.929 . S
C592 C589 1.432 . S
C592 C590 1.417 . S
C592 N600 1.360 . S
C593 C589 1.414 . S
C593 C591 1.444 . S
C593 C598 1.385 . S
C594 C590 1.432 . S
C594 C591 1.317 . S
C594 H606 0.930 . S
C595 C597 1.392 . S
C595 C598 1.370 . S
C595 H607 0.931 . S
N596 C589 1.359 . S
N596 C597 1.327 . S
N596 Tb599 2.600 . S
C597 C595 1.392 . S
C597 N596 1.327 . S
C597 H604 0.930 . S
C598 C593 1.385 . S
C598 C595 1.370 . S
C598 H617 0.930 . S
Tb599 N596 2.600 . S
Tb599 N600 2.660 . S
Tb599 O633 2.362 . S
Tb599 O634 2.421 . S
Tb599 O638 2.546 . S
Tb599 O639 2.610 . S
Tb599 O641 2.320 . S
Tb599 O642 2.552 . S
Tb599 O643 2.413 . S
Tb599 C663 2.833 . S
N600 C592 1.360 . S
N600 Tb599 2.660 . S
N600 C601 1.305 . S
C601 N600 1.305 . S
C601 C603 1.407 . S
C601 H608 0.930 . S
C602 C590 1.410 . S
C602 C603 1.345 . S
C602 H610 0.930 . S
C603 C601 1.407 . S
C603 C602 1.345 . S
C603 H605 0.930 . S
H604 C597 0.930 . S
H605 C603 0.930 . S
H606 C594 0.930 . S
H607 C595 0.931 . S
H608 C601 0.930 . S
H609 C623 0.930 . S
H610 C602 0.930 . S
H611 C629 0.930 . S
H612 C620 0.930 . S
H613 C627 0.931 . S
H614 C591 0.929 . S
H615 C621 0.930 . S
H616 C654 0.930 . S
H617 C598 0.930 . S
H618 C653 0.929 . S
N619 Tb588 2.660 . S
N619 C620 1.305 . S
N619 C624 1.360 . S
C620 H612 0.930 . S
C620 N619 1.305 . S
C620 C623 1.407 . S
C621 H615 0.930 . S
C621 C622 1.410 . S
C621 C623 1.345 . S
C622 C621 1.410 . S
C622 C624 1.417 . S
C622 C654 1.432 . S
C623 H609 0.930 . S
C623 C620 1.407 . S
C623 C621 1.345 . S
C624 N619 1.360 . S
C624 C622 1.417 . S
C624 C628 1.432 . S
H625 C630 0.930 . S
N626 Tb588 2.600 . S
N626 C628 1.359 . S
N626 C629 1.327 . S
C627 H613 0.931 . S
C627 C629 1.392 . S
C627 C630 1.370 . S
C628 C624 1.432 . S
C628 N626 1.359 . S
C628 C631 1.414 . S
C629 H611 0.930 . S
C629 N626 1.327 . S
C629 C627 1.392 . S
C630 H625 0.930 . S
C630 C627 1.370 . S
C630 C631 1.385 . S
C631 C628 1.414 . S
C631 C630 1.385 . S
C631 C653 1.444 . S
O632 Tb588 2.546 . S
O632 C652 1.251 . S
O633 Tb588 2.610 . S
O633 Tb599 2.362 . S
O633 C644 1.283 . S
O634 Tb599 2.421 . S
O634 C651 1.262 . S
O635 Tb588 2.320 . S
O635 C651 1.260 . S
O636 Tb588 2.552 . S
O636 C644 1.243 . S
O637 Tb588 2.413 . S
O637 C652 1.256 . S
O638 Tb599 2.546 . S
O638 C663 1.251 . S
O639 Tb588 2.362 . S
O639 Tb599 2.610 . S
O639 C655 1.283 . S
O640 Tb588 2.421 . S
O640 C662 1.262 . S
O641 Tb599 2.320 . S
O641 C662 1.260 . S
O642 Tb599 2.552 . S
O642 C655 1.243 . S
O643 Tb599 2.413 . S
O643 C663 1.256 . S
C644 O633 1.283 . S
C644 O636 1.243 . S
C645 C647 1.382 . S
C645 C649 1.393 . S
C645 C652 1.500 . S
C646 C647 1.400 . S
C646 C648 1.384 . S
C647 C645 1.382 . S
C647 C646 1.400 . S
C647 H664 0.930 . S
C648 C646 1.384 . S
C648 C650 1.392 . S
C648 H665 0.931 . S
C649 C645 1.393 . S
C649 C650 1.401 . S
C649 H666 0.930 . S
C650 C648 1.392 . S
C650 C649 1.401 . S
C650 H667 0.930 . S
C651 O634 1.262 . S
C651 O635 1.260 . S
C652 Tb588 2.833 . S
C652 O632 1.251 . S
C652 O637 1.256 . S
C652 C645 1.500 . S
C653 H618 0.929 . S
C653 C631 1.444 . S
C653 C654 1.317 . S
C654 H616 0.930 . S
C654 C622 1.432 . S
C654 C653 1.317 . S
C655 O639 1.283 . S
C655 O642 1.243 . S
C656 C657 1.382 . S
C656 C660 1.393 . S
C656 C663 1.500 . S
C657 C656 1.382 . S
C657 C658 1.400 . S
C657 H668 0.930 . S
C658 C657 1.400 . S
C658 C659 1.384 . S
C659 C658 1.384 . S
C659 C661 1.392 . S
C659 H669 0.931 . S
C660 C656 1.393 . S
C660 C661 1.401 . S
C660 H670 0.930 . S
C661 C659 1.392 . S
C661 C660 1.401 . S
C661 H671 0.930 . S
C662 O640 1.262 . S
C662 O641 1.260 . S
C663 Tb599 2.833 . S
C663 O638 1.251 . S
C663 O643 1.256 . S
C663 C656 1.500 . S
H664 C647 0.930 . S
H665 C648 0.931 . S
H666 C649 0.930 . S
H667 C650 0.930 . S
H668 C657 0.930 . S
H669 C659 0.931 . S
H670 C660 0.930 . S
H671 C661 0.930 . S
Co672 O675 2.042 . S
Co672 O682 2.264 . S
Co672 O701 2.286 . S
Co672 O702 2.069 . S
Co672 O704 2.015 1_455 S
Co673 O675 2.122 . S
Co673 O681 2.073 . S
Co673 O682 2.327 . S
Co673 O683 1.976 1_455 S
Co674 O675 2.082 1_545 S
Co674 O677 2.092 1_455 S
Co674 O684 2.109 1_445 S
Co674 O685 2.148 . S
Co674 O689 2.114 . S
Co674 O703 2.139 1_445 S
O675 Co672 2.042 . S
O675 Co673 2.122 . S
O675 Co674 2.082 1_565 S
O675 H676 0.980 . S
H676 O675 0.980 . S
O677 Co674 2.092 1_655 S
O677 Co678 2.042 . S
O677 Co679 2.122 . S
O677 H680 0.980 . S
Co678 O677 2.042 . S
Co678 O686 2.286 . S
Co678 O687 2.069 . S
Co678 O688 2.015 1_655 S
Co678 O691 2.264 . S
Co679 O677 2.122 . S
Co679 O690 1.976 1_655 S
Co679 O691 2.327 . S
Co679 O692 2.073 . S
H680 O677 0.980 . S
O681 Co673 2.073 . S
O681 C696 1.245 . S
O682 Co672 2.264 . S
O682 Co673 2.327 . S
O682 C696 1.257 . S
O683 Co673 1.976 1_655 S
O683 C695 1.251 . S
O684 Co674 2.109 1_665 S
O684 C695 1.274 . S
O685 Co674 2.148 . S
O685 C698 1.246 . S
O686 Co678 2.286 . S
O686 C697 1.259 . S
O687 Co678 2.069 . S
O687 C697 1.289 . S
O688 Co678 2.015 1_455 S
O688 C698 1.257 . S
O689 Co674 2.114 . S
O689 C699 1.274 . S
O690 Co679 1.976 1_455 S
O690 C699 1.251 . S
O691 Co678 2.264 . S
O691 Co679 2.327 . S
O691 C700 1.257 . S
O692 Co679 2.073 . S
O692 C700 1.245 . S
C693 O701 1.259 . S
C693 O702 1.289 . S
C694 O703 1.246 . S
C694 O704 1.257 . S
C695 O683 1.251 . S
C695 O684 1.274 . S
C696 O681 1.245 . S
C696 O682 1.257 . S
C697 O686 1.259 . S
C697 O687 1.289 . S
C698 O685 1.246 . S
C698 O688 1.257 . S
C699 O689 1.274 . S
C699 O690 1.251 . S
C700 O691 1.257 . S
C700 O692 1.245 . S
O701 Co672 2.286 . S
O701 C693 1.259 . S
O702 Co672 2.069 . S
O702 C693 1.289 . S
O703 Co674 2.139 1_665 S
O703 C694 1.246 . S
O704 Co672 2.015 1_655 S
O704 C694 1.257 . S
Co705 O708 2.042 1_556 S
Co705 O715 2.264 1_556 S
Co705 O734 2.286 . S
Co705 O735 2.069 . S
Co705 O737 2.015 . S
Co706 O708 2.122 . S
Co706 O714 2.073 . S
Co706 O715 2.327 . S
Co706 O716 1.976 . S
Co707 O708 2.081 1_545 S
Co707 O710 2.093 1_554 S
Co707 O717 2.110 1_545 S
Co707 O718 2.147 . S
Co707 O722 2.113 1_554 S
Co707 O736 2.140 1_544 S
O708 Co705 2.042 1_554 S
O708 Co706 2.122 . S
O708 Co707 2.081 1_565 S
O708 H709 0.980 . S
H709 O708 0.980 . S
O710 Co707 2.093 1_556 S
O710 Co711 2.042 1_556 S
O710 Co712 2.122 . S
O710 H713 0.980 . S
Co711 O710 2.042 1_554 S
Co711 O719 2.286 . S
Co711 O720 2.069 . S
Co711 O721 2.015 . S
Co711 O724 2.264 1_554 S
Co712 O710 2.122 . S
Co712 O723 1.976 . S
Co712 O724 2.327 . S
Co712 O725 2.073 . S
H713 O710 0.980 . S
O714 Co706 2.073 . S
O714 C729 1.245 . S
O715 Co705 2.264 1_554 S
O715 Co706 2.327 . S
O715 C729 1.257 . S
O716 Co706 1.976 . S
O716 C728 1.251 . S
O717 Co707 2.110 1_565 S
O717 C728 1.274 . S
O718 Co707 2.147 . S
O718 C731 1.246 . S
O719 Co711 2.286 . S
O719 C730 1.259 . S
O720 Co711 2.069 . S
O720 C730 1.289 . S
O721 Co711 2.015 . S
O721 C731 1.257 . S
O722 Co707 2.113 1_556 S
O722 C732 1.274 . S
O723 Co712 1.976 . S
O723 C732 1.251 . S
O724 Co711 2.264 1_556 S
O724 Co712 2.327 . S
O724 C733 1.257 . S
O725 Co712 2.073 . S
O725 C733 1.245 . S
C726 O734 1.259 . S
C726 O735 1.289 . S
C727 O736 1.246 . S
C727 O737 1.257 . S
C728 O716 1.251 . S
C728 O717 1.274 . S
C729 O714 1.245 . S
C729 O715 1.257 . S
C730 O719 1.259 . S
C730 O720 1.289 . S
C731 O718 1.246 . S
C731 O721 1.257 . S
C732 O722 1.274 . S
C732 O723 1.251 . S
C733 O724 1.257 . S
C733 O725 1.245 . S
O734 Co705 2.286 . S
O734 C726 1.259 . S
O735 Co705 2.069 . S
O735 C726 1.289 . S
O736 Co707 2.140 1_566 S
O736 C727 1.246 . S
O737 Co705 2.015 . S
O737 C727 1.257 . S
Co738 O741 2.042 1_556 S
Co738 O748 2.264 1_556 S
Co738 O767 2.286 . S
Co738 O768 2.069 . S
Co738 O770 2.015 1_455 S
Co739 O741 2.122 . S
Co739 O747 2.073 . S
Co739 O748 2.327 . S
Co739 O749 1.976 1_455 S
Co740 O741 2.088 . S
Co740 O743 2.086 1_454 S
Co740 O750 2.111 1_455 S
Co740 O751 2.144 . S
Co740 O755 2.112 1_554 S
Co740 O769 2.143 1_454 S
O741 Co738 2.042 1_554 S
O741 Co739 2.122 . S
O741 Co740 2.088 . S
O741 H742 0.980 . S
H742 O741 0.980 . S
O743 Co740 2.086 1_656 S
O743 Co744 2.042 1_556 S
O743 Co745 2.122 . S
O743 H746 0.980 . S
Co744 O743 2.042 1_554 S
Co744 O752 2.286 . S
Co744 O753 2.069 . S
Co744 O754 2.015 1_655 S
Co744 O757 2.264 1_554 S
Co745 O743 2.122 . S
Co745 O756 1.976 1_655 S
Co745 O757 2.327 . S
Co745 O758 2.073 . S
H746 O743 0.980 . S
O747 Co739 2.073 . S
O747 C762 1.245 . S
O748 Co738 2.264 1_554 S
O748 Co739 2.327 . S
O748 C762 1.257 . S
O749 Co739 1.976 1_655 S
O749 C761 1.251 . S
O750 Co740 2.111 1_655 S
O750 C761 1.274 . S
O751 Co740 2.144 . S
O751 C764 1.246 . S
O752 Co744 2.286 . S
O752 C763 1.259 . S
O753 Co744 2.069 . S
O753 C763 1.289 . S
O754 Co744 2.015 1_455 S
O754 C764 1.257 . S
O755 Co740 2.112 1_556 S
O755 C765 1.274 . S
O756 Co745 1.976 1_455 S
O756 C765 1.251 . S
O757 Co744 2.264 1_556 S
O757 Co745 2.327 . S
O757 C766 1.257 . S
O758 Co745 2.073 . S
O758 C766 1.245 . S
C759 O767 1.259 . S
C759 O768 1.289 . S
C760 O769 1.246 . S
C760 O770 1.257 . S
C761 O749 1.251 . S
C761 O750 1.274 . S
C762 O747 1.245 . S
C762 O748 1.257 . S
C763 O752 1.259 . S
C763 O753 1.289 . S
C764 O751 1.246 . S
C764 O754 1.257 . S
C765 O755 1.274 . S
C765 O756 1.251 . S
C766 O757 1.257 . S
C766 O758 1.245 . S
O767 Co738 2.286 . S
O767 C759 1.259 . S
O768 Co738 2.069 . S
O768 C759 1.289 . S
O769 Co740 2.143 1_656 S
O769 C760 1.246 . S
O770 Co738 2.015 1_655 S
O770 C760 1.257 . S
Co771 O774 2.042 1_556 S
Co771 O781 2.264 1_556 S
Co771 O800 2.286 . S
Co771 O801 2.069 . S
Co771 O803 2.015 . S
Co772 O774 2.122 . S
Co772 O780 2.073 . S
Co772 O781 2.327 . S
Co772 O782 1.976 . S
Co773 O774 2.087 . S
Co773 O776 2.087 1_554 S
Co773 O783 2.111 . S
Co773 O784 2.143 . S
Co773 O788 2.111 1_554 S
Co773 O802 2.143 1_554 S
O774 Co771 2.042 1_554 S
O774 Co772 2.122 . S
O774 Co773 2.087 . S
O774 H775 0.980 . S
H775 O774 0.980 . S
O776 Co773 2.087 1_556 S
O776 Co777 2.042 1_556 S
O776 Co778 2.122 . S
O776 H779 0.980 . S
Co777 O776 2.042 1_554 S
Co777 O785 2.286 . S
Co777 O786 2.069 . S
Co777 O787 2.015 . S
Co777 O790 2.264 1_554 S
Co778 O776 2.122 . S
Co778 O789 1.976 . S
Co778 O790 2.327 . S
Co778 O791 2.073 . S
H779 O776 0.980 . S
O780 Co772 2.073 . S
O780 C795 1.245 . S
O781 Co771 2.264 1_554 S
O781 Co772 2.327 . S
O781 C795 1.257 . S
O782 Co772 1.976 . S
O782 C794 1.251 . S
O783 Co773 2.111 . S
O783 C794 1.274 . S
O784 Co773 2.143 . S
O784 C797 1.246 . S
O785 Co777 2.286 . S
O785 C796 1.259 . S
O786 Co777 2.069 . S
O786 C796 1.289 . S
O787 Co777 2.015 . S
O787 C797 1.257 . S
O788 Co773 2.111 1_556 S
O788 C798 1.274 . S
O789 Co778 1.976 . S
O789 C798 1.251 . S
O790 Co777 2.264 1_556 S
O790 Co778 2.327 . S
O790 C799 1.257 . S
O791 Co778 2.073 . S
O791 C799 1.245 . S
C792 O800 1.259 . S
C792 O801 1.289 . S
C793 O802 1.246 . S
C793 O803 1.257 . S
C794 O782 1.251 . S
C794 O783 1.274 . S
C795 O780 1.245 . S
C795 O781 1.257 . S
C796 O785 1.259 . S
C796 O786 1.289 . S
C797 O784 1.246 . S
C797 O787 1.257 . S
C798 O788 1.274 . S
C798 O789 1.251 . S
C799 O790 1.257 . S
C799 O791 1.245 . S
O800 Co771 2.286 . S
O800 C792 1.259 . S
O801 Co771 2.069 . S
O801 C792 1.289 . S
O802 Co773 2.143 1_556 S
O802 C793 1.246 . S
O803 Co771 2.015 . S
O803 C793 1.257 . S
Co804 O807 2.042 . S
Co804 O814 2.264 . S
Co804 O833 2.286 . S
Co804 O834 2.069 . S
Co804 O836 2.015 . S
Co805 O807 2.122 . S
Co805 O813 2.073 . S
Co805 O814 2.327 . S
Co805 O815 1.976 . S
Co806 O807 2.088 . S
Co806 O809 2.086 1_455 S
Co806 O816 2.112 . S
Co806 O817 2.143 1_455 S
Co806 O821 2.111 1_455 S
Co806 O835 2.144 . S
O807 Co804 2.042 . S
O807 Co805 2.122 . S
O807 Co806 2.088 . S
O807 H808 0.980 . S
H808 O807 0.980 . S
O809 Co806 2.086 1_655 S
O809 Co810 2.042 . S
O809 Co811 2.122 . S
O809 H812 0.980 . S
Co810 O809 2.042 . S
Co810 O818 2.286 . S
Co810 O819 2.069 . S
Co810 O820 2.015 . S
Co810 O823 2.264 . S
Co811 O809 2.122 . S
Co811 O822 1.976 . S
Co811 O823 2.327 . S
Co811 O824 2.073 . S
H812 O809 0.980 . S
O813 Co805 2.073 . S
O813 C828 1.245 . S
O814 Co804 2.264 . S
O814 Co805 2.327 . S
O814 C828 1.257 . S
O815 Co805 1.976 . S
O815 C827 1.251 . S
O816 Co806 2.112 . S
O816 C827 1.274 . S
O817 Co806 2.143 1_655 S
O817 C830 1.246 . S
O818 Co810 2.286 . S
O818 C829 1.259 . S
O819 Co810 2.069 . S
O819 C829 1.289 . S
O820 Co810 2.015 . S
O820 C830 1.257 . S
O821 Co806 2.111 1_655 S
O821 C831 1.274 . S
O822 Co811 1.976 . S
O822 C831 1.251 . S
O823 Co810 2.264 . S
O823 Co811 2.327 . S
O823 C832 1.257 . S
O824 Co811 2.073 . S
O824 C832 1.245 . S
C825 O833 1.259 . S
C825 O834 1.289 . S
C826 O835 1.246 . S
C826 O836 1.257 . S
C827 O815 1.251 . S
C827 O816 1.274 . S
C828 O813 1.245 . S
C828 O814 1.257 . S
C829 O818 1.259 . S
C829 O819 1.289 . S
C830 O817 1.246 . S
C830 O820 1.257 . S
C831 O821 1.274 . S
C831 O822 1.251 . S
C832 O823 1.257 . S
C832 O824 1.245 . S
O833 Co804 2.286 . S
O833 C825 1.259 . S
O834 Co804 2.069 . S
O834 C825 1.289 . S
O835 Co806 2.144 . S
O835 C826 1.246 . S
O836 Co804 2.015 . S
O836 C826 1.257 . S
Co837 O840 2.042 . S
Co837 O847 2.264 . S
Co837 O866 2.286 . S
Co837 O867 2.069 . S
Co837 O869 2.015 1_565 S
Co838 O840 2.122 . S
Co838 O846 2.073 . S
Co838 O847 2.327 . S
Co838 O848 1.976 1_565 S
Co839 O840 2.081 1_545 S
Co839 O842 2.093 . S
Co839 O849 2.115 . S
Co839 O850 2.141 1_545 S
Co839 O854 2.108 1_545 S
Co839 O868 2.146 . S
O840 Co837 2.042 . S
O840 Co838 2.122 . S
O840 Co839 2.081 1_565 S
O840 H841 0.980 . S
H841 O840 0.980 . S
O842 Co839 2.093 . S
O842 Co843 2.042 . S
O842 Co844 2.122 . S
O842 H845 0.980 . S
Co843 O842 2.042 . S
Co843 O851 2.286 . S
Co843 O852 2.069 . S
Co843 O853 2.015 1_545 S
Co843 O856 2.264 . S
Co844 O842 2.122 . S
Co844 O855 1.976 1_545 S
Co844 O856 2.327 . S
Co844 O857 2.073 . S
H845 O842 0.980 . S
O846 Co838 2.073 . S
O846 C861 1.245 . S
O847 Co837 2.264 . S
O847 Co838 2.327 . S
O847 C861 1.257 . S
O848 Co838 1.976 1_545 S
O848 C860 1.251 . S
O849 Co839 2.115 . S
O849 C860 1.274 . S
O850 Co839 2.141 1_565 S
O850 C863 1.246 . S
O851 Co843 2.286 . S
O851 C862 1.259 . S
O852 Co843 2.069 . S
O852 C862 1.289 . S
O853 Co843 2.015 1_565 S
O853 C863 1.257 . S
O854 Co839 2.108 1_565 S
O854 C864 1.274 . S
O855 Co844 1.976 1_565 S
O855 C864 1.251 . S
O856 Co843 2.264 . S
O856 Co844 2.327 . S
O856 C865 1.257 . S
O857 Co844 2.073 . S
O857 C865 1.245 . S
C858 O866 1.259 . S
C858 O867 1.289 . S
C859 O868 1.246 . S
C859 O869 1.257 . S
C860 O848 1.251 . S
C860 O849 1.274 . S
C861 O846 1.245 . S
C861 O847 1.257 . S
C862 O851 1.259 . S
C862 O852 1.289 . S
C863 O850 1.246 . S
C863 O853 1.257 . S
C864 O854 1.274 . S
C864 O855 1.251 . S
C865 O856 1.257 . S
C865 O857 1.245 . S
O866 Co837 2.286 . S
O866 C858 1.259 . S
O867 Co837 2.069 . S
O867 C858 1.289 . S
O868 Co839 2.146 . S
O868 C859 1.246 . S
O869 Co837 2.015 1_545 S
O869 C859 1.257 . S
H870 C878 0.929 . S
H871 C880 0.930 . S
H872 C882 0.930 . S
H873 C885 0.929 . S
H874 C888 0.930 . S
H875 C890 0.960 . S
H876 C890 0.960 . S
H877 C890 0.960 . S
C878 H870 0.929 . S
C878 C879 1.377 . S
C878 C880 1.384 . S
C879 C878 1.377 . S
C879 C885 1.390 . S
C880 H871 0.930 . S
C880 C878 1.384 . S
C880 C881 1.372 . S
C881 C880 1.372 . S
C881 C882 1.400 . S
C881 C886 1.490 . S
C882 H872 0.930 . S
C882 C881 1.400 . S
C882 C885 1.386 . S
H883 C899 0.930 . S
H884 C900 0.931 . S
C885 H873 0.929 . S
C885 C879 1.390 . S
C885 C882 1.386 . S
C886 C881 1.490 . S
C886 C888 1.395 . S
C886 C889 1.403 . S
H887 C893 0.930 . S
C888 H874 0.930 . S
C888 C886 1.395 . S
C888 C891 1.403 . S
C889 C886 1.403 . S
C889 C890 1.524 . S
C889 C893 1.400 . S
C890 H875 0.960 . S
C890 H876 0.960 . S
C890 H877 0.960 . S
C890 C889 1.524 . S
C891 C888 1.403 . S
C891 C892 1.392 . S
C891 C895 1.495 . S
C892 C891 1.392 . S
C892 C893 1.385 . S
C892 C894 1.478 . S
C893 H887 0.930 . S
C893 C889 1.400 . S
C893 C892 1.385 . S
C894 C892 1.478 . S
C894 C896 1.381 . S
C894 C900 1.383 . S
C895 C891 1.495 . S
C895 H901 0.959 . S
C895 H902 0.961 . S
C895 H903 0.960 . S
C896 C894 1.381 . S
C896 C897 1.394 . S
C896 H904 0.930 . S
C897 C896 1.394 . S
C897 C898 1.383 . S
C897 H905 0.929 . S
C898 C897 1.383 . S
C898 C899 1.377 . S
C899 H883 0.930 . S
C899 C898 1.377 . S
C899 C900 1.379 . S
C900 H884 0.931 . S
C900 C894 1.383 . S
C900 C899 1.379 . S
H901 C895 0.959 . S
H902 C895 0.961 . S
H903 C895 0.960 . S
H904 C896 0.930 . S
H905 C897 0.929 . S
H906 C914 0.929 . S
H907 C916 0.930 . S
H908 C918 0.930 . S
H909 C921 0.929 . S
H910 C924 0.930 . S
H911 C926 0.960 . S
H912 C926 0.960 . S
H913 C926 0.960 . S
C914 H906 0.929 . S
C914 C915 1.377 . S
C914 C916 1.384 . S
C915 C914 1.377 . S
C915 C921 1.390 . S
C916 H907 0.930 . S
C916 C914 1.384 . S
C916 C917 1.372 . S
C917 C916 1.372 . S
C917 C918 1.400 . S
C917 C922 1.490 . S
C918 H908 0.930 . S
C918 C917 1.400 . S
C918 C921 1.386 . S
H919 C935 0.930 . S
H920 C936 0.931 . S
C921 H909 0.929 . S
C921 C915 1.390 . S
C921 C918 1.386 . S
C922 C917 1.490 . S
C922 C924 1.395 . S
C922 C925 1.403 . S
H923 C929 0.930 . S
C924 H910 0.930 . S
C924 C922 1.395 . S
C924 C927 1.403 . S
C925 C922 1.403 . S
C925 C926 1.524 . S
C925 C929 1.400 . S
C926 H911 0.960 . S
C926 H912 0.960 . S
C926 H913 0.960 . S
C926 C925 1.524 . S
C927 C924 1.403 . S
C927 C928 1.392 . S
C927 C931 1.495 . S
C928 C927 1.392 . S
C928 C929 1.385 . S
C928 C930 1.478 . S
C929 H923 0.930 . S
C929 C925 1.400 . S
C929 C928 1.385 . S
C930 C928 1.478 . S
C930 C932 1.381 . S
C930 C936 1.383 . S
C931 C927 1.495 . S
C931 H937 0.959 . S
C931 H938 0.961 . S
C931 H939 0.960 . S
C932 C930 1.381 . S
C932 C933 1.394 . S
C932 H940 0.930 . S
C933 C932 1.394 . S
C933 C934 1.383 . S
C933 H941 0.929 . S
C934 C933 1.383 . S
C934 C935 1.377 . S
C935 H919 0.930 . S
C935 C934 1.377 . S
C935 C936 1.379 . S
C936 H920 0.931 . S
C936 C930 1.383 . S
C936 C935 1.379 . S
H937 C931 0.959 . S
H938 C931 0.961 . S
H939 C931 0.960 . S
H940 C932 0.930 . S
H941 C933 0.929 . S
H942 C950 0.929 . S
H943 C952 0.930 . S
H944 C954 0.930 . S
H945 C957 0.929 . S
H946 C960 0.930 . S
H947 C962 0.960 . S
H948 C962 0.960 . S
H949 C962 0.960 . S
C950 H942 0.929 . S
C950 C951 1.377 . S
C950 C952 1.384 . S
C951 C950 1.377 . S
C951 C957 1.390 . S
C952 H943 0.930 . S
C952 C950 1.384 . S
C952 C953 1.372 . S
C953 C952 1.372 . S
C953 C954 1.400 . S
C953 C958 1.490 . S
C954 H944 0.930 . S
C954 C953 1.400 . S
C954 C957 1.386 . S
H955 C971 0.930 . S
H956 C972 0.931 . S
C957 H945 0.929 . S
C957 C951 1.390 . S
C957 C954 1.386 . S
C958 C953 1.490 . S
C958 C960 1.395 . S
C958 C961 1.403 . S
H959 C965 0.930 . S
C960 H946 0.930 . S
C960 C958 1.395 . S
C960 C963 1.403 . S
C961 C958 1.403 . S
C961 C962 1.524 . S
C961 C965 1.400 . S
C962 H947 0.960 . S
C962 H948 0.960 . S
C962 H949 0.960 . S
C962 C961 1.524 . S
C963 C960 1.403 . S
C963 C964 1.392 . S
C963 C967 1.495 . S
C964 C963 1.392 . S
C964 C965 1.385 . S
C964 C966 1.478 . S
C965 H959 0.930 . S
C965 C961 1.400 . S
C965 C964 1.385 . S
C966 C964 1.478 . S
C966 C968 1.381 . S
C966 C972 1.383 . S
C967 C963 1.495 . S
C967 H973 0.959 . S
C967 H974 0.961 . S
C967 H975 0.960 . S
C968 C966 1.381 . S
C968 C969 1.394 . S
C968 H976 0.930 . S
C969 C968 1.394 . S
C969 C970 1.383 . S
C969 H977 0.929 . S
C970 C969 1.383 . S
C970 C971 1.377 . S
C971 H955 0.930 . S
C971 C970 1.377 . S
C971 C972 1.379 . S
C972 H956 0.931 . S
C972 C966 1.383 . S
C972 C971 1.379 . S
H973 C967 0.959 . S
H974 C967 0.961 . S
H975 C967 0.960 . S
H976 C968 0.930 . S
H977 C969 0.929 . S
H978 C986 0.929 . S
H979 C988 0.930 . S
H980 C990 0.930 . S
H981 C993 0.929 . S
H982 C996 0.930 . S
H983 C998 0.960 . S
H984 C998 0.960 . S
H985 C998 0.960 . S
C986 H978 0.929 . S
C986 C987 1.377 . S
C986 C988 1.384 . S
C987 C986 1.377 . S
C987 C993 1.390 . S
C988 H979 0.930 . S
C988 C986 1.384 . S
C988 C989 1.372 . S
C989 C988 1.372 . S
C989 C990 1.400 . S
C989 C994 1.490 . S
C990 H980 0.930 . S
C990 C989 1.400 . S
C990 C993 1.386 . S
H991 C1007 0.930 . S
H992 C1008 0.931 . S
C993 H981 0.929 . S
C993 C987 1.390 . S
C993 C990 1.386 . S
C994 C989 1.490 . S
C994 C996 1.395 . S
C994 C997 1.403 . S
H995 C1001 0.930 . S
C996 H982 0.930 . S
C996 C994 1.395 . S
C996 C999 1.403 . S
C997 C994 1.403 . S
C997 C998 1.524 . S
C997 C1001 1.400 . S
C998 H983 0.960 . S
C998 H984 0.960 . S
C998 H985 0.960 . S
C998 C997 1.524 . S
C999 C996 1.403 . S
C999 C1000 1.392 . S
C999 C1003 1.495 . S
C1000 C999 1.392 . S
C1000 C1001 1.385 . S
C1000 C1002 1.478 . S
C1001 H995 0.930 . S
C1001 C997 1.400 . S
C1001 C1000 1.385 . S
C1002 C1000 1.478 . S
C1002 C1004 1.381 . S
C1002 C1008 1.383 . S
C1003 C999 1.495 . S
C1003 H1009 0.959 . S
C1003 H1010 0.961 . S
C1003 H1011 0.960 . S
C1004 C1002 1.381 . S
C1004 C1005 1.394 . S
C1004 H1012 0.930 . S
C1005 C1004 1.394 . S
C1005 C1006 1.383 . S
C1005 H1013 0.929 . S
C1006 C1005 1.383 . S
C1006 C1007 1.377 . S
C1007 H991 0.930 . S
C1007 C1006 1.377 . S
C1007 C1008 1.379 . S
C1008 H992 0.931 . S
C1008 C1002 1.383 . S
C1008 C1007 1.379 . S
H1009 C1003 0.959 . S
H1010 C1003 0.961 . S
H1011 C1003 0.960 . S
H1012 C1004 0.930 . S
H1013 C1005 0.929 . S
H1014 C1022 0.929 . S
H1015 C1024 0.930 . S
H1016 C1026 0.930 . S
H1017 C1029 0.929 . S
H1018 C1032 0.930 . S
H1019 C1034 0.960 . S
H1020 C1034 0.960 . S
H1021 C1034 0.960 . S
C1022 H1014 0.929 . S
C1022 C1023 1.377 . S
C1022 C1024 1.384 . S
C1023 C1022 1.377 . S
C1023 C1029 1.390 . S
C1024 H1015 0.930 . S
C1024 C1022 1.384 . S
C1024 C1025 1.372 . S
C1025 C1024 1.372 . S
C1025 C1026 1.400 . S
C1025 C1030 1.490 . S
C1026 H1016 0.930 . S
C1026 C1025 1.400 . S
C1026 C1029 1.386 . S
H1027 C1043 0.930 . S
H1028 C1044 0.931 . S
C1029 H1017 0.929 . S
C1029 C1023 1.390 . S
C1029 C1026 1.386 . S
C1030 C1025 1.490 . S
C1030 C1032 1.395 . S
C1030 C1033 1.403 . S
H1031 C1037 0.930 . S
C1032 H1018 0.930 . S
C1032 C1030 1.395 . S
C1032 C1035 1.403 . S
C1033 C1030 1.403 . S
C1033 C1034 1.524 . S
C1033 C1037 1.400 . S
C1034 H1019 0.960 . S
C1034 H1020 0.960 . S
C1034 H1021 0.960 . S
C1034 C1033 1.524 . S
C1035 C1032 1.403 . S
C1035 C1036 1.392 . S
C1035 C1039 1.495 . S
C1036 C1035 1.392 . S
C1036 C1037 1.385 . S
C1036 C1038 1.478 . S
C1037 H1031 0.930 . S
C1037 C1033 1.400 . S
C1037 C1036 1.385 . S
C1038 C1036 1.478 . S
C1038 C1040 1.381 . S
C1038 C1044 1.383 . S
C1039 C1035 1.495 . S
C1039 H1045 0.959 . S
C1039 H1046 0.961 . S
C1039 H1047 0.960 . S
C1040 C1038 1.381 . S
C1040 C1041 1.394 . S
C1040 H1048 0.930 . S
C1041 C1040 1.394 . S
C1041 C1042 1.383 . S
C1041 H1049 0.929 . S
C1042 C1041 1.383 . S
C1042 C1043 1.377 . S
C1043 H1027 0.930 . S
C1043 C1042 1.377 . S
C1043 C1044 1.379 . S
C1044 H1028 0.931 . S
C1044 C1038 1.383 . S
C1044 C1043 1.379 . S
H1045 C1039 0.959 . S
H1046 C1039 0.961 . S
H1047 C1039 0.960 . S
H1048 C1040 0.930 . S
H1049 C1041 0.929 . S
H1050 C1058 0.929 . S
H1051 C1060 0.930 . S
H1052 C1062 0.930 . S
H1053 C1065 0.929 . S
H1054 C1068 0.930 . S
H1055 C1070 0.960 . S
H1056 C1070 0.960 . S
H1057 C1070 0.960 . S
C1058 H1050 0.929 . S
C1058 C1059 1.377 . S
C1058 C1060 1.384 . S
C1059 C1058 1.377 . S
C1059 C1065 1.390 . S
C1060 H1051 0.930 . S
C1060 C1058 1.384 . S
C1060 C1061 1.372 . S
C1061 C1060 1.372 . S
C1061 C1062 1.400 . S
C1061 C1066 1.490 . S
C1062 H1052 0.930 . S
C1062 C1061 1.400 . S
C1062 C1065 1.386 . S
H1063 C1079 0.930 . S
H1064 C1080 0.931 . S
C1065 H1053 0.929 . S
C1065 C1059 1.390 . S
C1065 C1062 1.386 . S
C1066 C1061 1.490 . S
C1066 C1068 1.395 . S
C1066 C1069 1.403 . S
H1067 C1073 0.930 . S
C1068 H1054 0.930 . S
C1068 C1066 1.395 . S
C1068 C1071 1.403 . S
C1069 C1066 1.403 . S
C1069 C1070 1.524 . S
C1069 C1073 1.400 . S
C1070 H1055 0.960 . S
C1070 H1056 0.960 . S
C1070 H1057 0.960 . S
C1070 C1069 1.524 . S
C1071 C1068 1.403 . S
C1071 C1072 1.392 . S
C1071 C1075 1.495 . S
C1072 C1071 1.392 . S
C1072 C1073 1.385 . S
C1072 C1074 1.478 . S
C1073 H1067 0.930 . S
C1073 C1069 1.400 . S
C1073 C1072 1.385 . S
C1074 C1072 1.478 . S
C1074 C1076 1.381 . S
C1074 C1080 1.383 . S
C1075 C1071 1.495 . S
C1075 H1081 0.959 . S
C1075 H1082 0.961 . S
C1075 H1083 0.960 . S
C1076 C1074 1.381 . S
C1076 C1077 1.394 . S
C1076 H1084 0.930 . S
C1077 C1076 1.394 . S
C1077 C1078 1.383 . S
C1077 H1085 0.929 . S
C1078 C1077 1.383 . S
C1078 C1079 1.377 . S
C1079 H1063 0.930 . S
C1079 C1078 1.377 . S
C1079 C1080 1.379 . S
C1080 H1064 0.931 . S
C1080 C1074 1.383 . S
C1080 C1079 1.379 . S
H1081 C1075 0.959 . S
H1082 C1075 0.961 . S
H1083 C1075 0.960 . S
H1084 C1076 0.930 . S
H1085 C1077 0.929 . S
H1086 C1094 0.929 . S
H1087 C1096 0.930 . S
H1088 C1098 0.930 . S
H1089 C1101 0.929 . S
H1090 C1104 0.930 . S
H1091 C1106 0.960 . S
H1092 C1106 0.960 . S
H1093 C1106 0.960 . S
C1094 H1086 0.929 . S
C1094 C1095 1.377 . S
C1094 C1096 1.384 . S
C1095 C1094 1.377 . S
C1095 C1101 1.390 . S
C1096 H1087 0.930 . S
C1096 C1094 1.384 . S
C1096 C1097 1.372 . S
C1097 C1096 1.372 . S
C1097 C1098 1.400 . S
C1097 C1102 1.490 . S
C1098 H1088 0.930 . S
C1098 C1097 1.400 . S
C1098 C1101 1.386 . S
H1099 C1115 0.930 . S
H1100 C1116 0.931 . S
C1101 H1089 0.929 . S
C1101 C1095 1.390 . S
C1101 C1098 1.386 . S
C1102 C1097 1.490 . S
C1102 C1104 1.395 . S
C1102 C1105 1.403 . S
H1103 C1109 0.930 . S
C1104 H1090 0.930 . S
C1104 C1102 1.395 . S
C1104 C1107 1.403 . S
C1105 C1102 1.403 . S
C1105 C1106 1.524 . S
C1105 C1109 1.400 . S
C1106 H1091 0.960 . S
C1106 H1092 0.960 . S
C1106 H1093 0.960 . S
C1106 C1105 1.524 . S
C1107 C1104 1.403 . S
C1107 C1108 1.392 . S
C1107 C1111 1.495 . S
C1108 C1107 1.392 . S
C1108 C1109 1.385 . S
C1108 C1110 1.478 . S
C1109 H1103 0.930 . S
C1109 C1105 1.400 . S
C1109 C1108 1.385 . S
C1110 C1108 1.478 . S
C1110 C1112 1.381 . S
C1110 C1116 1.383 . S
C1111 C1107 1.495 . S
C1111 H1117 0.959 . S
C1111 H1118 0.961 . S
C1111 H1119 0.960 . S
C1112 C1110 1.381 . S
C1112 C1113 1.394 . S
C1112 H1120 0.930 . S
C1113 C1112 1.394 . S
C1113 C1114 1.383 . S
C1113 H1121 0.929 . S
C1114 C1113 1.383 . S
C1114 C1115 1.377 . S
C1115 H1099 0.930 . S
C1115 C1114 1.377 . S
C1115 C1116 1.379 . S
C1116 H1100 0.931 . S
C1116 C1110 1.383 . S
C1116 C1115 1.379 . S
H1117 C1111 0.959 . S
H1118 C1111 0.961 . S
H1119 C1111 0.960 . S
H1120 C1112 0.930 . S
H1121 C1113 0.929 . S
H1122 C1130 0.929 . S
H1123 C1132 0.930 . S
H1124 C1134 0.930 . S
H1125 C1137 0.929 . S
H1126 C1140 0.930 . S
H1127 C1142 0.960 . S
H1128 C1142 0.960 . S
H1129 C1142 0.960 . S
C1130 H1122 0.929 . S
C1130 C1131 1.377 . S
C1130 C1132 1.384 . S
C1131 C1130 1.377 . S
C1131 C1137 1.390 . S
C1132 H1123 0.930 . S
C1132 C1130 1.384 . S
C1132 C1133 1.372 . S
C1133 C1132 1.372 . S
C1133 C1134 1.400 . S
C1133 C1138 1.490 . S
C1134 H1124 0.930 . S
C1134 C1133 1.400 . S
C1134 C1137 1.386 . S
H1135 C1151 0.930 . S
H1136 C1152 0.931 . S
C1137 H1125 0.929 . S
C1137 C1131 1.390 . S
C1137 C1134 1.386 . S
C1138 C1133 1.490 . S
C1138 C1140 1.395 . S
C1138 C1141 1.403 . S
H1139 C1145 0.930 . S
C1140 H1126 0.930 . S
C1140 C1138 1.395 . S
C1140 C1143 1.403 . S
C1141 C1138 1.403 . S
C1141 C1142 1.524 . S
C1141 C1145 1.400 . S
C1142 H1127 0.960 . S
C1142 H1128 0.960 . S
C1142 H1129 0.960 . S
C1142 C1141 1.524 . S
C1143 C1140 1.403 . S
C1143 C1144 1.392 . S
C1143 C1147 1.495 . S
C1144 C1143 1.392 . S
C1144 C1145 1.385 . S
C1144 C1146 1.478 . S
C1145 H1139 0.930 . S
C1145 C1141 1.400 . S
C1145 C1144 1.385 . S
C1146 C1144 1.478 . S
C1146 C1148 1.381 . S
C1146 C1152 1.383 . S
C1147 C1143 1.495 . S
C1147 H1153 0.959 . S
C1147 H1154 0.961 . S
C1147 H1155 0.960 . S
C1148 C1146 1.381 . S
C1148 C1149 1.394 . S
C1148 H1156 0.930 . S
C1149 C1148 1.394 . S
C1149 C1150 1.383 . S
C1149 H1157 0.929 . S
C1150 C1149 1.383 . S
C1150 C1151 1.377 . S
C1151 H1135 0.930 . S
C1151 C1150 1.377 . S
C1151 C1152 1.379 . S
C1152 H1136 0.931 . S
C1152 C1146 1.383 . S
C1152 C1151 1.379 . S
H1153 C1147 0.959 . S
H1154 C1147 0.961 . S
H1155 C1147 0.960 . S
H1156 C1148 0.930 . S
H1157 C1149 0.929 . S
H1158 C1166 0.929 . S
H1159 C1168 0.930 . S
H1160 C1170 0.930 . S
H1161 C1173 0.929 . S
H1162 C1176 0.930 . S
H1163 C1178 0.960 . S
H1164 C1178 0.960 . S
H1165 C1178 0.960 . S
C1166 H1158 0.929 . S
C1166 C1167 1.377 . S
C1166 C1168 1.384 . S
C1167 C1166 1.377 . S
C1167 C1173 1.390 . S
C1168 H1159 0.930 . S
C1168 C1166 1.384 . S
C1168 C1169 1.372 . S
C1169 C1168 1.372 . S
C1169 C1170 1.400 . S
C1169 C1174 1.490 . S
C1170 H1160 0.930 . S
C1170 C1169 1.400 . S
C1170 C1173 1.386 . S
H1171 C1187 0.930 . S
H1172 C1188 0.931 . S
C1173 H1161 0.929 . S
C1173 C1167 1.390 . S
C1173 C1170 1.386 . S
C1174 C1169 1.490 . S
C1174 C1176 1.395 . S
C1174 C1177 1.403 . S
H1175 C1181 0.930 . S
C1176 H1162 0.930 . S
C1176 C1174 1.395 . S
C1176 C1179 1.403 . S
C1177 C1174 1.403 . S
C1177 C1178 1.524 . S
C1177 C1181 1.400 . S
C1178 H1163 0.960 . S
C1178 H1164 0.960 . S
C1178 H1165 0.960 . S
C1178 C1177 1.524 . S
C1179 C1176 1.403 . S
C1179 C1180 1.392 . S
C1179 C1183 1.495 . S
C1180 C1179 1.392 . S
C1180 C1181 1.385 . S
C1180 C1182 1.478 . S
C1181 H1175 0.930 . S
C1181 C1177 1.400 . S
C1181 C1180 1.385 . S
C1182 C1180 1.478 . S
C1182 C1184 1.381 . S
C1182 C1188 1.383 . S
C1183 C1179 1.495 . S
C1183 H1189 0.959 . S
C1183 H1190 0.961 . S
C1183 H1191 0.960 . S
C1184 C1182 1.381 . S
C1184 C1185 1.394 . S
C1184 H1192 0.930 . S
C1185 C1184 1.394 . S
C1185 C1186 1.383 . S
C1185 H1193 0.929 . S
C1186 C1185 1.383 . S
C1186 C1187 1.377 . S
C1187 H1171 0.930 . S
C1187 C1186 1.377 . S
C1187 C1188 1.379 . S
C1188 H1172 0.931 . S
C1188 C1182 1.383 . S
C1188 C1187 1.379 . S
H1189 C1183 0.959 . S
H1190 C1183 0.961 . S
H1191 C1183 0.960 . S
H1192 C1184 0.930 . S
H1193 C1185 0.929 . S
H1194 C1202 0.929 . S
H1195 C1204 0.930 . S
H1196 C1206 0.930 . S
H1197 C1209 0.929 . S
H1198 C1212 0.930 . S
H1199 C1214 0.960 . S
H1200 C1214 0.960 . S
H1201 C1214 0.960 . S
C1202 H1194 0.929 . S
C1202 C1203 1.377 . S
C1202 C1204 1.384 . S
C1203 C1202 1.377 . S
C1203 C1209 1.390 . S
C1204 H1195 0.930 . S
C1204 C1202 1.384 . S
C1204 C1205 1.372 . S
C1205 C1204 1.372 . S
C1205 C1206 1.400 . S
C1205 C1210 1.490 . S
C1206 H1196 0.930 . S
C1206 C1205 1.400 . S
C1206 C1209 1.386 . S
H1207 C1223 0.930 . S
H1208 C1224 0.931 . S
C1209 H1197 0.929 . S
C1209 C1203 1.390 . S
C1209 C1206 1.386 . S
C1210 C1205 1.490 . S
C1210 C1212 1.395 . S
C1210 C1213 1.403 . S
H1211 C1217 0.930 . S
C1212 H1198 0.930 . S
C1212 C1210 1.395 . S
C1212 C1215 1.403 . S
C1213 C1210 1.403 . S
C1213 C1214 1.524 . S
C1213 C1217 1.400 . S
C1214 H1199 0.960 . S
C1214 H1200 0.960 . S
C1214 H1201 0.960 . S
C1214 C1213 1.524 . S
C1215 C1212 1.403 . S
C1215 C1216 1.392 . S
C1215 C1219 1.495 . S
C1216 C1215 1.392 . S
C1216 C1217 1.385 . S
C1216 C1218 1.478 . S
C1217 H1211 0.930 . S
C1217 C1213 1.400 . S
C1217 C1216 1.385 . S
C1218 C1216 1.478 . S
C1218 C1220 1.381 . S
C1218 C1224 1.383 . S
C1219 C1215 1.495 . S
C1219 H1225 0.959 . S
C1219 H1226 0.961 . S
C1219 H1227 0.960 . S
C1220 C1218 1.381 . S
C1220 C1221 1.394 . S
C1220 H1228 0.930 . S
C1221 C1220 1.394 . S
C1221 C1222 1.383 . S
C1221 H1229 0.929 . S
C1222 C1221 1.383 . S
C1222 C1223 1.377 . S
C1223 H1207 0.930 . S
C1223 C1222 1.377 . S
C1223 C1224 1.379 . S
C1224 H1208 0.931 . S
C1224 C1218 1.383 . S
C1224 C1223 1.379 . S
H1225 C1219 0.959 . S
H1226 C1219 0.961 . S
H1227 C1219 0.960 . S
H1228 C1220 0.930 . S
H1229 C1221 0.929 . S
H1230 C1238 0.929 . S
H1231 C1240 0.930 . S
H1232 C1242 0.930 . S
H1233 C1245 0.929 . S
H1234 C1248 0.930 . S
H1235 C1250 0.960 . S
H1236 C1250 0.960 . S
H1237 C1250 0.960 . S
C1238 H1230 0.929 . S
C1238 C1239 1.377 . S
C1238 C1240 1.384 . S
C1239 C1238 1.377 . S
C1239 C1245 1.390 . S
C1240 H1231 0.930 . S
C1240 C1238 1.384 . S
C1240 C1241 1.372 . S
C1241 C1240 1.372 . S
C1241 C1242 1.400 . S
C1241 C1246 1.490 . S
C1242 H1232 0.930 . S
C1242 C1241 1.400 . S
C1242 C1245 1.386 . S
H1243 C1259 0.930 . S
H1244 C1260 0.931 . S
C1245 H1233 0.929 . S
C1245 C1239 1.390 . S
C1245 C1242 1.386 . S
C1246 C1241 1.490 . S
C1246 C1248 1.395 . S
C1246 C1249 1.403 . S
H1247 C1253 0.930 . S
C1248 H1234 0.930 . S
C1248 C1246 1.395 . S
C1248 C1251 1.403 . S
C1249 C1246 1.403 . S
C1249 C1250 1.524 . S
C1249 C1253 1.400 . S
C1250 H1235 0.960 . S
C1250 H1236 0.960 . S
C1250 H1237 0.960 . S
C1250 C1249 1.524 . S
C1251 C1248 1.403 . S
C1251 C1252 1.392 . S
C1251 C1255 1.495 . S
C1252 C1251 1.392 . S
C1252 C1253 1.385 . S
C1252 C1254 1.478 . S
C1253 H1247 0.930 . S
C1253 C1249 1.400 . S
C1253 C1252 1.385 . S
C1254 C1252 1.478 . S
C1254 C1256 1.381 . S
C1254 C1260 1.383 . S
C1255 C1251 1.495 . S
C1255 H1261 0.959 . S
C1255 H1262 0.961 . S
C1255 H1263 0.960 . S
C1256 C1254 1.381 . S
C1256 C1257 1.394 . S
C1256 H1264 0.930 . S
C1257 C1256 1.394 . S
C1257 C1258 1.383 . S
C1257 H1265 0.929 . S
C1258 C1257 1.383 . S
C1258 C1259 1.377 . S
C1259 H1243 0.930 . S
C1259 C1258 1.377 . S
C1259 C1260 1.379 . S
C1260 H1244 0.931 . S
C1260 C1254 1.383 . S
C1260 C1259 1.379 . S
H1261 C1255 0.959 . S
H1262 C1255 0.961 . S
H1263 C1255 0.960 . S
H1264 C1256 0.930 . S
H1265 C1257 0.929 . S
H1266 C1274 0.929 . S
H1267 C1276 0.930 . S
H1268 C1278 0.930 . S
H1269 C1281 0.929 . S
H1270 C1284 0.930 . S
H1271 C1286 0.960 . S
H1272 C1286 0.960 . S
H1273 C1286 0.960 . S
C1274 H1266 0.929 . S
C1274 C1275 1.377 . S
C1274 C1276 1.384 . S
C1275 C1274 1.377 . S
C1275 C1281 1.390 . S
C1276 H1267 0.930 . S
C1276 C1274 1.384 . S
C1276 C1277 1.372 . S
C1277 C1276 1.372 . S
C1277 C1278 1.400 . S
C1277 C1282 1.490 . S
C1278 H1268 0.930 . S
C1278 C1277 1.400 . S
C1278 C1281 1.386 . S
H1279 C1295 0.930 . S
H1280 C1296 0.931 . S
C1281 H1269 0.929 . S
C1281 C1275 1.390 . S
C1281 C1278 1.386 . S
C1282 C1277 1.490 . S
C1282 C1284 1.395 . S
C1282 C1285 1.403 . S
H1283 C1289 0.930 . S
C1284 H1270 0.930 . S
C1284 C1282 1.395 . S
C1284 C1287 1.403 . S
C1285 C1282 1.403 . S
C1285 C1286 1.524 . S
C1285 C1289 1.400 . S
C1286 H1271 0.960 . S
C1286 H1272 0.960 . S
C1286 H1273 0.960 . S
C1286 C1285 1.524 . S
C1287 C1284 1.403 . S
C1287 C1288 1.392 . S
C1287 C1291 1.495 . S
C1288 C1287 1.392 . S
C1288 C1289 1.385 . S
C1288 C1290 1.478 . S
C1289 H1283 0.930 . S
C1289 C1285 1.400 . S
C1289 C1288 1.385 . S
C1290 C1288 1.478 . S
C1290 C1292 1.381 . S
C1290 C1296 1.383 . S
C1291 C1287 1.495 . S
C1291 H1297 0.959 . S
C1291 H1298 0.961 . S
C1291 H1299 0.960 . S
C1292 C1290 1.381 . S
C1292 C1293 1.394 . S
C1292 H1300 0.930 . S
C1293 C1292 1.394 . S
C1293 C1294 1.383 . S
C1293 H1301 0.929 . S
C1294 C1293 1.383 . S
C1294 C1295 1.377 . S
C1295 H1279 0.930 . S
C1295 C1294 1.377 . S
C1295 C1296 1.379 . S
C1296 H1280 0.931 . S
C1296 C1290 1.383 . S
C1296 C1295 1.379 . S
H1297 C1291 0.959 . S
H1298 C1291 0.961 . S
H1299 C1291 0.960 . S
H1300 C1292 0.930 . S
H1301 C1293 0.929 . S
H1302 C1310 0.929 . S
H1303 C1312 0.930 . S
H1304 C1314 0.930 . S
H1305 C1317 0.929 . S
H1306 C1320 0.930 . S
H1307 C1322 0.960 . S
H1308 C1322 0.960 . S
H1309 C1322 0.960 . S
C1310 H1302 0.929 . S
C1310 C1311 1.377 . S
C1310 C1312 1.384 . S
C1311 C1310 1.377 . S
C1311 C1317 1.390 . S
C1312 H1303 0.930 . S
C1312 C1310 1.384 . S
C1312 C1313 1.372 . S
C1313 C1312 1.372 . S
C1313 C1314 1.400 . S
C1313 C1318 1.490 . S
C1314 H1304 0.930 . S
C1314 C1313 1.400 . S
C1314 C1317 1.386 . S
H1315 C1331 0.930 . S
H1316 C1332 0.931 . S
C1317 H1305 0.929 . S
C1317 C1311 1.390 . S
C1317 C1314 1.386 . S
C1318 C1313 1.490 . S
C1318 C1320 1.395 . S
C1318 C1321 1.403 . S
H1319 C1325 0.930 . S
C1320 H1306 0.930 . S
C1320 C1318 1.395 . S
C1320 C1323 1.403 . S
C1321 C1318 1.403 . S
C1321 C1322 1.524 . S
C1321 C1325 1.400 . S
C1322 H1307 0.960 . S
C1322 H1308 0.960 . S
C1322 H1309 0.960 . S
C1322 C1321 1.524 . S
C1323 C1320 1.403 . S
C1323 C1324 1.392 . S
C1323 C1327 1.495 . S
C1324 C1323 1.392 . S
C1324 C1325 1.385 . S
C1324 C1326 1.478 . S
C1325 H1319 0.930 . S
C1325 C1321 1.400 . S
C1325 C1324 1.385 . S
C1326 C1324 1.478 . S
C1326 C1328 1.381 . S
C1326 C1332 1.383 . S
C1327 C1323 1.495 . S
C1327 H1333 0.959 . S
C1327 H1334 0.961 . S
C1327 H1335 0.960 . S
C1328 C1326 1.381 . S
C1328 C1329 1.394 . S
C1328 H1336 0.930 . S
C1329 C1328 1.394 . S
C1329 C1330 1.383 . S
C1329 H1337 0.929 . S
C1330 C1329 1.383 . S
C1330 C1331 1.377 . S
C1331 H1315 0.930 . S
C1331 C1330 1.377 . S
C1331 C1332 1.379 . S
C1332 H1316 0.931 . S
C1332 C1326 1.383 . S
C1332 C1331 1.379 . S
H1333 C1327 0.959 . S
H1334 C1327 0.961 . S
H1335 C1327 0.960 . S
H1336 C1328 0.930 . S
H1337 C1329 0.929 . S
H1338 C1346 0.929 . S
H1339 C1348 0.930 . S
H1340 C1350 0.930 . S
H1341 C1353 0.929 . S
H1342 C1356 0.930 . S
H1343 C1358 0.960 . S
H1344 C1358 0.960 . S
H1345 C1358 0.960 . S
C1346 H1338 0.929 . S
C1346 C1347 1.377 . S
C1346 C1348 1.384 . S
C1347 C1346 1.377 . S
C1347 C1353 1.390 . S
C1348 H1339 0.930 . S
C1348 C1346 1.384 . S
C1348 C1349 1.372 . S
C1349 C1348 1.372 . S
C1349 C1350 1.400 . S
C1349 C1354 1.490 . S
C1350 H1340 0.930 . S
C1350 C1349 1.400 . S
C1350 C1353 1.386 . S
H1351 C1367 0.930 . S
H1352 C1368 0.931 . S
C1353 H1341 0.929 . S
C1353 C1347 1.390 . S
C1353 C1350 1.386 . S
C1354 C1349 1.490 . S
C1354 C1356 1.395 . S
C1354 C1357 1.403 . S
H1355 C1361 0.930 . S
C1356 H1342 0.930 . S
C1356 C1354 1.395 . S
C1356 C1359 1.403 . S
C1357 C1354 1.403 . S
C1357 C1358 1.524 . S
C1357 C1361 1.400 . S
C1358 H1343 0.960 . S
C1358 H1344 0.960 . S
C1358 H1345 0.960 . S
C1358 C1357 1.524 . S
C1359 C1356 1.403 . S
C1359 C1360 1.392 . S
C1359 C1363 1.495 . S
C1360 C1359 1.392 . S
C1360 C1361 1.385 . S
C1360 C1362 1.478 . S
C1361 H1355 0.930 . S
C1361 C1357 1.400 . S
C1361 C1360 1.385 . S
C1362 C1360 1.478 . S
C1362 C1364 1.381 . S
C1362 C1368 1.383 . S
C1363 C1359 1.495 . S
C1363 H1369 0.959 . S
C1363 H1370 0.961 . S
C1363 H1371 0.960 . S
C1364 C1362 1.381 . S
C1364 C1365 1.394 . S
C1364 H1372 0.930 . S
C1365 C1364 1.394 . S
C1365 C1366 1.383 . S
C1365 H1373 0.929 . S
C1366 C1365 1.383 . S
C1366 C1367 1.377 . S
C1367 H1351 0.930 . S
C1367 C1366 1.377 . S
C1367 C1368 1.379 . S
C1368 H1352 0.931 . S
C1368 C1362 1.383 . S
C1368 C1367 1.379 . S
H1369 C1363 0.959 . S
H1370 C1363 0.961 . S
H1371 C1363 0.960 . S
H1372 C1364 0.930 . S
H1373 C1365 0.929 . S
H1374 C1382 0.929 . S
H1375 C1384 0.930 . S
H1376 C1386 0.930 . S
H1377 C1389 0.929 . S
H1378 C1392 0.930 . S
H1379 C1394 0.960 . S
H1380 C1394 0.960 . S
H1381 C1394 0.960 . S
C1382 H1374 0.929 . S
C1382 C1383 1.377 . S
C1382 C1384 1.384 . S
C1383 C1382 1.377 . S
C1383 C1389 1.390 . S
C1384 H1375 0.930 . S
C1384 C1382 1.384 . S
C1384 C1385 1.372 . S
C1385 C1384 1.372 . S
C1385 C1386 1.400 . S
C1385 C1390 1.490 . S
C1386 H1376 0.930 . S
C1386 C1385 1.400 . S
C1386 C1389 1.386 . S
H1387 C1403 0.930 . S
H1388 C1404 0.931 . S
C1389 H1377 0.929 . S
C1389 C1383 1.390 . S
C1389 C1386 1.386 . S
C1390 C1385 1.490 . S
C1390 C1392 1.395 . S
C1390 C1393 1.403 . S
H1391 C1397 0.930 . S
C1392 H1378 0.930 . S
C1392 C1390 1.395 . S
C1392 C1395 1.403 . S
C1393 C1390 1.403 . S
C1393 C1394 1.524 . S
C1393 C1397 1.400 . S
C1394 H1379 0.960 . S
C1394 H1380 0.960 . S
C1394 H1381 0.960 . S
C1394 C1393 1.524 . S
C1395 C1392 1.403 . S
C1395 C1396 1.392 . S
C1395 C1399 1.495 . S
C1396 C1395 1.392 . S
C1396 C1397 1.385 . S
C1396 C1398 1.478 . S
C1397 H1391 0.930 . S
C1397 C1393 1.400 . S
C1397 C1396 1.385 . S
C1398 C1396 1.478 . S
C1398 C1400 1.381 . S
C1398 C1404 1.383 . S
C1399 C1395 1.495 . S
C1399 H1405 0.959 . S
C1399 H1406 0.961 . S
C1399 H1407 0.960 . S
C1400 C1398 1.381 . S
C1400 C1401 1.394 . S
C1400 H1408 0.930 . S
C1401 C1400 1.394 . S
C1401 C1402 1.383 . S
C1401 H1409 0.929 . S
C1402 C1401 1.383 . S
C1402 C1403 1.377 . S
C1403 H1387 0.930 . S
C1403 C1402 1.377 . S
C1403 C1404 1.379 . S
C1404 H1388 0.931 . S
C1404 C1398 1.383 . S
C1404 C1403 1.379 . S
H1405 C1399 0.959 . S
H1406 C1399 0.961 . S
H1407 C1399 0.960 . S
H1408 C1400 0.930 . S
H1409 C1401 0.929 . S
H1410 C1418 0.929 . S
H1411 C1420 0.930 . S
H1412 C1422 0.930 . S
H1413 C1425 0.929 . S
H1414 C1428 0.930 . S
H1415 C1430 0.960 . S
H1416 C1430 0.960 . S
H1417 C1430 0.960 . S
C1418 H1410 0.929 . S
C1418 C1419 1.377 . S
C1418 C1420 1.384 . S
C1419 C1418 1.377 . S
C1419 C1425 1.390 . S
C1420 H1411 0.930 . S
C1420 C1418 1.384 . S
C1420 C1421 1.372 . S
C1421 C1420 1.372 . S
C1421 C1422 1.400 . S
C1421 C1426 1.490 . S
C1422 H1412 0.930 . S
C1422 C1421 1.400 . S
C1422 C1425 1.386 . S
H1423 C1439 0.930 . S
H1424 C1440 0.931 . S
C1425 H1413 0.929 . S
C1425 C1419 1.390 . S
C1425 C1422 1.386 . S
C1426 C1421 1.490 . S
C1426 C1428 1.395 . S
C1426 C1429 1.403 . S
H1427 C1433 0.930 . S
C1428 H1414 0.930 . S
C1428 C1426 1.395 . S
C1428 C1431 1.403 . S
C1429 C1426 1.403 . S
C1429 C1430 1.524 . S
C1429 C1433 1.400 . S
C1430 H1415 0.960 . S
C1430 H1416 0.960 . S
C1430 H1417 0.960 . S
C1430 C1429 1.524 . S
C1431 C1428 1.403 . S
C1431 C1432 1.392 . S
C1431 C1435 1.495 . S
C1432 C1431 1.392 . S
C1432 C1433 1.385 . S
C1432 C1434 1.478 . S
C1433 H1427 0.930 . S
C1433 C1429 1.400 . S
C1433 C1432 1.385 . S
C1434 C1432 1.478 . S
C1434 C1436 1.381 . S
C1434 C1440 1.383 . S
C1435 C1431 1.495 . S
C1435 H1441 0.959 . S
C1435 H1442 0.961 . S
C1435 H1443 0.960 . S
C1436 C1434 1.381 . S
C1436 C1437 1.394 . S
C1436 H1444 0.930 . S
C1437 C1436 1.394 . S
C1437 C1438 1.383 . S
C1437 H1445 0.929 . S
C1438 C1437 1.383 . S
C1438 C1439 1.377 . S
C1439 H1423 0.930 . S
C1439 C1438 1.377 . S
C1439 C1440 1.379 . S
C1440 H1424 0.931 . S
C1440 C1434 1.383 . S
C1440 C1439 1.379 . S
H1441 C1435 0.959 . S
H1442 C1435 0.961 . S
H1443 C1435 0.960 . S
H1444 C1436 0.930 . S
H1445 C1437 0.929 . S
H1446 C1454 0.929 . S
H1447 C1456 0.930 . S
H1448 C1458 0.930 . S
H1449 C1461 0.929 . S
H1450 C1464 0.930 . S
H1451 C1466 0.960 . S
H1452 C1466 0.960 . S
H1453 C1466 0.960 . S
C1454 H1446 0.929 . S
C1454 C1455 1.377 . S
C1454 C1456 1.384 . S
C1455 C1454 1.377 . S
C1455 C1461 1.390 . S
C1456 H1447 0.930 . S
C1456 C1454 1.384 . S
C1456 C1457 1.372 . S
C1457 C1456 1.372 . S
C1457 C1458 1.400 . S
C1457 C1462 1.490 . S
C1458 H1448 0.930 . S
C1458 C1457 1.400 . S
C1458 C1461 1.386 . S
H1459 C1475 0.930 . S
H1460 C1476 0.931 . S
C1461 H1449 0.929 . S
C1461 C1455 1.390 . S
C1461 C1458 1.386 . S
C1462 C1457 1.490 . S
C1462 C1464 1.395 . S
C1462 C1465 1.403 . S
H1463 C1469 0.930 . S
C1464 H1450 0.930 . S
C1464 C1462 1.395 . S
C1464 C1467 1.403 . S
C1465 C1462 1.403 . S
C1465 C1466 1.524 . S
C1465 C1469 1.400 . S
C1466 H1451 0.960 . S
C1466 H1452 0.960 . S
C1466 H1453 0.960 . S
C1466 C1465 1.524 . S
C1467 C1464 1.403 . S
C1467 C1468 1.392 . S
C1467 C1471 1.495 . S
C1468 C1467 1.392 . S
C1468 C1469 1.385 . S
C1468 C1470 1.478 . S
C1469 H1463 0.930 . S
C1469 C1465 1.400 . S
C1469 C1468 1.385 . S
C1470 C1468 1.478 . S
C1470 C1472 1.381 . S
C1470 C1476 1.383 . S
C1471 C1467 1.495 . S
C1471 H1477 0.959 . S
C1471 H1478 0.961 . S
C1471 H1479 0.960 . S
C1472 C1470 1.381 . S
C1472 C1473 1.394 . S
C1472 H1480 0.930 . S
C1473 C1472 1.394 . S
C1473 C1474 1.383 . S
C1473 H1481 0.929 . S
C1474 C1473 1.383 . S
C1474 C1475 1.377 . S
C1475 H1459 0.930 . S
C1475 C1474 1.377 . S
C1475 C1476 1.379 . S
C1476 H1460 0.931 . S
C1476 C1470 1.383 . S
C1476 C1475 1.379 . S
H1477 C1471 0.959 . S
H1478 C1471 0.961 . S
H1479 C1471 0.960 . S
H1480 C1472 0.930 . S
H1481 C1473 0.929 . S
H1482 C1490 0.929 . S
H1483 C1492 0.930 . S
H1484 C1494 0.930 . S
H1485 C1497 0.929 . S
H1486 C1500 0.930 . S
H1487 C1502 0.960 . S
H1488 C1502 0.960 . S
H1489 C1502 0.960 . S
C1490 H1482 0.929 . S
C1490 C1491 1.377 . S
C1490 C1492 1.384 . S
C1491 C1490 1.377 . S
C1491 C1497 1.390 . S
C1492 H1483 0.930 . S
C1492 C1490 1.384 . S
C1492 C1493 1.372 . S
C1493 C1492 1.372 . S
C1493 C1494 1.400 . S
C1493 C1498 1.490 . S
C1494 H1484 0.930 . S
C1494 C1493 1.400 . S
C1494 C1497 1.386 . S
H1495 C1511 0.930 . S
H1496 C1512 0.931 . S
C1497 H1485 0.929 . S
C1497 C1491 1.390 . S
C1497 C1494 1.386 . S
C1498 C1493 1.490 . S
C1498 C1500 1.395 . S
C1498 C1501 1.403 . S
H1499 C1505 0.930 . S
C1500 H1486 0.930 . S
C1500 C1498 1.395 . S
C1500 C1503 1.403 . S
C1501 C1498 1.403 . S
C1501 C1502 1.524 . S
C1501 C1505 1.400 . S
C1502 H1487 0.960 . S
C1502 H1488 0.960 . S
C1502 H1489 0.960 . S
C1502 C1501 1.524 . S
C1503 C1500 1.403 . S
C1503 C1504 1.392 . S
C1503 C1507 1.495 . S
C1504 C1503 1.392 . S
C1504 C1505 1.385 . S
C1504 C1506 1.478 . S
C1505 H1499 0.930 . S
C1505 C1501 1.400 . S
C1505 C1504 1.385 . S
C1506 C1504 1.478 . S
C1506 C1508 1.381 . S
C1506 C1512 1.383 . S
C1507 C1503 1.495 . S
C1507 H1513 0.959 . S
C1507 H1514 0.961 . S
C1507 H1515 0.960 . S
C1508 C1506 1.381 . S
C1508 C1509 1.394 . S
C1508 H1516 0.930 . S
C1509 C1508 1.394 . S
C1509 C1510 1.383 . S
C1509 H1517 0.929 . S
C1510 C1509 1.383 . S
C1510 C1511 1.377 . S
C1511 H1495 0.930 . S
C1511 C1510 1.377 . S
C1511 C1512 1.379 . S
C1512 H1496 0.931 . S
C1512 C1506 1.383 . S
C1512 C1511 1.379 . S
H1513 C1507 0.959 . S
H1514 C1507 0.961 . S
H1515 C1507 0.960 . S
H1516 C1508 0.930 . S
H1517 C1509 0.929 . S
H1518 C1526 0.929 . S
H1519 C1528 0.930 . S
H1520 C1530 0.930 . S
H1521 C1533 0.929 . S
H1522 C1536 0.930 . S
H1523 C1538 0.960 . S
H1524 C1538 0.960 . S
H1525 C1538 0.960 . S
C1526 H1518 0.929 . S
C1526 C1527 1.377 . S
C1526 C1528 1.384 . S
C1527 C1526 1.377 . S
C1527 C1533 1.390 . S
C1528 H1519 0.930 . S
C1528 C1526 1.384 . S
C1528 C1529 1.372 . S
C1529 C1528 1.372 . S
C1529 C1530 1.400 . S
C1529 C1534 1.490 . S
C1530 H1520 0.930 . S
C1530 C1529 1.400 . S
C1530 C1533 1.386 . S
H1531 C1547 0.930 . S
H1532 C1548 0.931 . S
C1533 H1521 0.929 . S
C1533 C1527 1.390 . S
C1533 C1530 1.386 . S
C1534 C1529 1.490 . S
C1534 C1536 1.395 . S
C1534 C1537 1.403 . S
H1535 C1541 0.930 . S
C1536 H1522 0.930 . S
C1536 C1534 1.395 . S
C1536 C1539 1.403 . S
C1537 C1534 1.403 . S
C1537 C1538 1.524 . S
C1537 C1541 1.400 . S
C1538 H1523 0.960 . S
C1538 H1524 0.960 . S
C1538 H1525 0.960 . S
C1538 C1537 1.524 . S
C1539 C1536 1.403 . S
C1539 C1540 1.392 . S
C1539 C1543 1.495 . S
C1540 C1539 1.392 . S
C1540 C1541 1.385 . S
C1540 C1542 1.478 . S
C1541 H1535 0.930 . S
C1541 C1537 1.400 . S
C1541 C1540 1.385 . S
C1542 C1540 1.478 . S
C1542 C1544 1.381 . S
C1542 C1548 1.383 . S
C1543 C1539 1.495 . S
C1543 H1549 0.959 . S
C1543 H1550 0.961 . S
C1543 H1551 0.960 . S
C1544 C1542 1.381 . S
C1544 C1545 1.394 . S
C1544 H1552 0.930 . S
C1545 C1544 1.394 . S
C1545 C1546 1.383 . S
C1545 H1553 0.929 . S
C1546 C1545 1.383 . S
C1546 C1547 1.377 . S
C1547 H1531 0.930 . S
C1547 C1546 1.377 . S
C1547 C1548 1.379 . S
C1548 H1532 0.931 . S
C1548 C1542 1.383 . S
C1548 C1547 1.379 . S
H1549 C1543 0.959 . S
H1550 C1543 0.961 . S
H1551 C1543 0.960 . S
H1552 C1544 0.930 . S
H1553 C1545 0.929 . S
H1554 C1562 0.929 . S
H1555 C1564 0.930 . S
H1556 C1566 0.930 . S
H1557 C1569 0.929 . S
H1558 C1572 0.930 . S
H1559 C1574 0.960 . S
H1560 C1574 0.960 . S
H1561 C1574 0.960 . S
C1562 H1554 0.929 . S
C1562 C1563 1.377 . S
C1562 C1564 1.384 . S
C1563 C1562 1.377 . S
C1563 C1569 1.390 . S
C1564 H1555 0.930 . S
C1564 C1562 1.384 . S
C1564 C1565 1.372 . S
C1565 C1564 1.372 . S
C1565 C1566 1.400 . S
C1565 C1570 1.490 . S
C1566 H1556 0.930 . S
C1566 C1565 1.400 . S
C1566 C1569 1.386 . S
H1567 C1583 0.930 . S
H1568 C1584 0.931 . S
C1569 H1557 0.929 . S
C1569 C1563 1.390 . S
C1569 C1566 1.386 . S
C1570 C1565 1.490 . S
C1570 C1572 1.395 . S
C1570 C1573 1.403 . S
H1571 C1577 0.930 . S
C1572 H1558 0.930 . S
C1572 C1570 1.395 . S
C1572 C1575 1.403 . S
C1573 C1570 1.403 . S
C1573 C1574 1.524 . S
C1573 C1577 1.400 . S
C1574 H1559 0.960 . S
C1574 H1560 0.960 . S
C1574 H1561 0.960 . S
C1574 C1573 1.524 . S
C1575 C1572 1.403 . S
C1575 C1576 1.392 . S
C1575 C1579 1.495 . S
C1576 C1575 1.392 . S
C1576 C1577 1.385 . S
C1576 C1578 1.478 . S
C1577 H1571 0.930 . S
C1577 C1573 1.400 . S
C1577 C1576 1.385 . S
C1578 C1576 1.478 . S
C1578 C1580 1.381 . S
C1578 C1584 1.383 . S
C1579 C1575 1.495 . S
C1579 H1585 0.959 . S
C1579 H1586 0.961 . S
C1579 H1587 0.960 . S
C1580 C1578 1.381 . S
C1580 C1581 1.394 . S
C1580 H1588 0.930 . S
C1581 C1580 1.394 . S
C1581 C1582 1.383 . S
C1581 H1589 0.929 . S
C1582 C1581 1.383 . S
C1582 C1583 1.377 . S
C1583 H1567 0.930 . S
C1583 C1582 1.377 . S
C1583 C1584 1.379 . S
C1584 H1568 0.931 . S
C1584 C1578 1.383 . S
C1584 C1583 1.379 . S
H1585 C1579 0.959 . S
H1586 C1579 0.961 . S
H1587 C1579 0.960 . S
H1588 C1580 0.930 . S
H1589 C1581 0.929 . S
H1590 C1598 0.929 . S
H1591 C1600 0.930 . S
H1592 C1602 0.930 . S
H1593 C1605 0.929 . S
H1594 C1608 0.930 . S
H1595 C1610 0.960 . S
H1596 C1610 0.960 . S
H1597 C1610 0.960 . S
C1598 H1590 0.929 . S
C1598 C1599 1.377 . S
C1598 C1600 1.384 . S
C1599 C1598 1.377 . S
C1599 C1605 1.390 . S
C1600 H1591 0.930 . S
C1600 C1598 1.384 . S
C1600 C1601 1.372 . S
C1601 C1600 1.372 . S
C1601 C1602 1.400 . S
C1601 C1606 1.490 . S
C1602 H1592 0.930 . S
C1602 C1601 1.400 . S
C1602 C1605 1.386 . S
H1603 C1619 0.930 . S
H1604 C1620 0.931 . S
C1605 H1593 0.929 . S
C1605 C1599 1.390 . S
C1605 C1602 1.386 . S
C1606 C1601 1.490 . S
C1606 C1608 1.395 . S
C1606 C1609 1.403 . S
H1607 C1613 0.930 . S
C1608 H1594 0.930 . S
C1608 C1606 1.395 . S
C1608 C1611 1.403 . S
C1609 C1606 1.403 . S
C1609 C1610 1.524 . S
C1609 C1613 1.400 . S
C1610 H1595 0.960 . S
C1610 H1596 0.960 . S
C1610 H1597 0.960 . S
C1610 C1609 1.524 . S
C1611 C1608 1.403 . S
C1611 C1612 1.392 . S
C1611 C1615 1.495 . S
C1612 C1611 1.392 . S
C1612 C1613 1.385 . S
C1612 C1614 1.478 . S
C1613 H1607 0.930 . S
C1613 C1609 1.400 . S
C1613 C1612 1.385 . S
C1614 C1612 1.478 . S
C1614 C1616 1.381 . S
C1614 C1620 1.383 . S
C1615 C1611 1.495 . S
C1615 H1621 0.959 . S
C1615 H1622 0.961 . S
C1615 H1623 0.960 . S
C1616 C1614 1.381 . S
C1616 C1617 1.394 . S
C1616 H1624 0.930 . S
C1617 C1616 1.394 . S
C1617 C1618 1.383 . S
C1617 H1625 0.929 . S
C1618 C1617 1.383 . S
C1618 C1619 1.377 . S
C1619 H1603 0.930 . S
C1619 C1618 1.377 . S
C1619 C1620 1.379 . S
C1620 H1604 0.931 . S
C1620 C1614 1.383 . S
C1620 C1619 1.379 . S
H1621 C1615 0.959 . S
H1622 C1615 0.961 . S
H1623 C1615 0.960 . S
H1624 C1616 0.930 . S
H1625 C1617 0.929 . S
H1626 C1634 0.929 . S
H1627 C1636 0.930 . S
H1628 C1638 0.930 . S
H1629 C1641 0.929 . S
H1630 C1644 0.930 . S
H1631 C1646 0.960 . S
H1632 C1646 0.960 . S
H1633 C1646 0.960 . S
C1634 H1626 0.929 . S
C1634 C1635 1.377 . S
C1634 C1636 1.384 . S
C1635 C1634 1.377 . S
C1635 C1641 1.390 . S
C1636 H1627 0.930 . S
C1636 C1634 1.384 . S
C1636 C1637 1.372 . S
C1637 C1636 1.372 . S
C1637 C1638 1.400 . S
C1637 C1642 1.490 . S
C1638 H1628 0.930 . S
C1638 C1637 1.400 . S
C1638 C1641 1.386 . S
H1639 C1655 0.930 . S
H1640 C1656 0.931 . S
C1641 H1629 0.929 . S
C1641 C1635 1.390 . S
C1641 C1638 1.386 . S
C1642 C1637 1.490 . S
C1642 C1644 1.395 . S
C1642 C1645 1.403 . S
H1643 C1649 0.930 . S
C1644 H1630 0.930 . S
C1644 C1642 1.395 . S
C1644 C1647 1.403 . S
C1645 C1642 1.403 . S
C1645 C1646 1.524 . S
C1645 C1649 1.400 . S
C1646 H1631 0.960 . S
C1646 H1632 0.960 . S
C1646 H1633 0.960 . S
C1646 C1645 1.524 . S
C1647 C1644 1.403 . S
C1647 C1648 1.392 . S
C1647 C1651 1.495 . S
C1648 C1647 1.392 . S
C1648 C1649 1.385 . S
C1648 C1650 1.478 . S
C1649 H1643 0.930 . S
C1649 C1645 1.400 . S
C1649 C1648 1.385 . S
C1650 C1648 1.478 . S
C1650 C1652 1.381 . S
C1650 C1656 1.383 . S
C1651 C1647 1.495 . S
C1651 H1657 0.959 . S
C1651 H1658 0.961 . S
C1651 H1659 0.960 . S
C1652 C1650 1.381 . S
C1652 C1653 1.394 . S
C1652 H1660 0.930 . S
C1653 C1652 1.394 . S
C1653 C1654 1.383 . S
C1653 H1661 0.929 . S
C1654 C1653 1.383 . S
C1654 C1655 1.377 . S
C1655 H1639 0.930 . S
C1655 C1654 1.377 . S
C1655 C1656 1.379 . S
C1656 H1640 0.931 . S
C1656 C1650 1.383 . S
C1656 C1655 1.379 . S
H1657 C1651 0.959 . S
H1658 C1651 0.961 . S
H1659 C1651 0.960 . S
H1660 C1652 0.930 . S
H1661 C1653 0.929 . S
H1662 C1670 0.929 . S
H1663 C1672 0.930 . S
H1664 C1674 0.930 . S
H1665 C1677 0.929 . S
H1666 C1680 0.930 . S
H1667 C1682 0.960 . S
H1668 C1682 0.960 . S
H1669 C1682 0.960 . S
C1670 H1662 0.929 . S
C1670 C1671 1.377 . S
C1670 C1672 1.384 . S
C1671 C1670 1.377 . S
C1671 C1677 1.390 . S
C1672 H1663 0.930 . S
C1672 C1670 1.384 . S
C1672 C1673 1.372 . S
C1673 C1672 1.372 . S
C1673 C1674 1.400 . S
C1673 C1678 1.490 . S
C1674 H1664 0.930 . S
C1674 C1673 1.400 . S
C1674 C1677 1.386 . S
H1675 C1691 0.930 . S
H1676 C1692 0.931 . S
C1677 H1665 0.929 . S
C1677 C1671 1.390 . S
C1677 C1674 1.386 . S
C1678 C1673 1.490 . S
C1678 C1680 1.395 . S
C1678 C1681 1.403 . S
H1679 C1685 0.930 . S
C1680 H1666 0.930 . S
C1680 C1678 1.395 . S
C1680 C1683 1.403 . S
C1681 C1678 1.403 . S
C1681 C1682 1.524 . S
C1681 C1685 1.400 . S
C1682 H1667 0.960 . S
C1682 H1668 0.960 . S
C1682 H1669 0.960 . S
C1682 C1681 1.524 . S
C1683 C1680 1.403 . S
C1683 C1684 1.392 . S
C1683 C1687 1.495 . S
C1684 C1683 1.392 . S
C1684 C1685 1.385 . S
C1684 C1686 1.478 . S
C1685 H1679 0.930 . S
C1685 C1681 1.400 . S
C1685 C1684 1.385 . S
C1686 C1684 1.478 . S
C1686 C1688 1.381 . S
C1686 C1692 1.383 . S
C1687 C1683 1.495 . S
C1687 H1693 0.959 . S
C1687 H1694 0.961 . S
C1687 H1695 0.960 . S
C1688 C1686 1.381 . S
C1688 C1689 1.394 . S
C1688 H1696 0.930 . S
C1689 C1688 1.394 . S
C1689 C1690 1.383 . S
C1689 H1697 0.929 . S
C1690 C1689 1.383 . S
C1690 C1691 1.377 . S
C1691 H1675 0.930 . S
C1691 C1690 1.377 . S
C1691 C1692 1.379 . S
C1692 H1676 0.931 . S
C1692 C1686 1.383 . S
C1692 C1691 1.379 . S
H1693 C1687 0.959 . S
H1694 C1687 0.961 . S
H1695 C1687 0.960 . S
H1696 C1688 0.930 . S
H1697 C1689 0.929 . S
H1698 C1706 0.929 . S
H1699 C1708 0.930 . S
H1700 C1710 0.930 . S
H1701 C1713 0.929 . S
H1702 C1716 0.930 . S
H1703 C1718 0.960 . S
H1704 C1718 0.960 . S
H1705 C1718 0.960 . S
C1706 H1698 0.929 . S
C1706 C1707 1.377 . S
C1706 C1708 1.384 . S
C1707 C1706 1.377 . S
C1707 C1713 1.390 . S
C1708 H1699 0.930 . S
C1708 C1706 1.384 . S
C1708 C1709 1.372 . S
C1709 C1708 1.372 . S
C1709 C1710 1.400 . S
C1709 C1714 1.490 . S
C1710 H1700 0.930 . S
C1710 C1709 1.400 . S
C1710 C1713 1.386 . S
H1711 C1727 0.930 . S
H1712 C1728 0.931 . S
C1713 H1701 0.929 . S
C1713 C1707 1.390 . S
C1713 C1710 1.386 . S
C1714 C1709 1.490 . S
C1714 C1716 1.395 . S
C1714 C1717 1.403 . S
H1715 C1721 0.930 . S
C1716 H1702 0.930 . S
C1716 C1714 1.395 . S
C1716 C1719 1.403 . S
C1717 C1714 1.403 . S
C1717 C1718 1.524 . S
C1717 C1721 1.400 . S
C1718 H1703 0.960 . S
C1718 H1704 0.960 . S
C1718 H1705 0.960 . S
C1718 C1717 1.524 . S
C1719 C1716 1.403 . S
C1719 C1720 1.392 . S
C1719 C1723 1.495 . S
C1720 C1719 1.392 . S
C1720 C1721 1.385 . S
C1720 C1722 1.478 . S
C1721 H1715 0.930 . S
C1721 C1717 1.400 . S
C1721 C1720 1.385 . S
C1722 C1720 1.478 . S
C1722 C1724 1.381 . S
C1722 C1728 1.383 . S
C1723 C1719 1.495 . S
C1723 H1729 0.959 . S
C1723 H1730 0.961 . S
C1723 H1731 0.960 . S
C1724 C1722 1.381 . S
C1724 C1725 1.394 . S
C1724 H1732 0.930 . S
C1725 C1724 1.394 . S
C1725 C1726 1.383 . S
C1725 H1733 0.929 . S
C1726 C1725 1.383 . S
C1726 C1727 1.377 . S
C1727 H1711 0.930 . S
C1727 C1726 1.377 . S
C1727 C1728 1.379 . S
C1728 H1712 0.931 . S
C1728 C1722 1.383 . S
C1728 C1727 1.379 . S
H1729 C1723 0.959 . S
H1730 C1723 0.961 . S
H1731 C1723 0.960 . S
H1732 C1724 0.930 . S
H1733 C1725 0.929 . S
H1734 C1742 0.929 . S
H1735 C1744 0.930 . S
H1736 C1746 0.930 . S
H1737 C1749 0.929 . S
H1738 C1752 0.930 . S
H1739 C1754 0.960 . S
H1740 C1754 0.960 . S
H1741 C1754 0.960 . S
C1742 H1734 0.929 . S
C1742 C1743 1.377 . S
C1742 C1744 1.384 . S
C1743 C1742 1.377 . S
C1743 C1749 1.390 . S
C1744 H1735 0.930 . S
C1744 C1742 1.384 . S
C1744 C1745 1.372 . S
C1745 C1744 1.372 . S
C1745 C1746 1.400 . S
C1745 C1750 1.490 . S
C1746 H1736 0.930 . S
C1746 C1745 1.400 . S
C1746 C1749 1.386 . S
H1747 C1763 0.930 . S
H1748 C1764 0.931 . S
C1749 H1737 0.929 . S
C1749 C1743 1.390 . S
C1749 C1746 1.386 . S
C1750 C1745 1.490 . S
C1750 C1752 1.395 . S
C1750 C1753 1.403 . S
H1751 C1757 0.930 . S
C1752 H1738 0.930 . S
C1752 C1750 1.395 . S
C1752 C1755 1.403 . S
C1753 C1750 1.403 . S
C1753 C1754 1.524 . S
C1753 C1757 1.400 . S
C1754 H1739 0.960 . S
C1754 H1740 0.960 . S
C1754 H1741 0.960 . S
C1754 C1753 1.524 . S
C1755 C1752 1.403 . S
C1755 C1756 1.392 . S
C1755 C1759 1.495 . S
C1756 C1755 1.392 . S
C1756 C1757 1.385 . S
C1756 C1758 1.478 . S
C1757 H1751 0.930 . S
C1757 C1753 1.400 . S
C1757 C1756 1.385 . S
C1758 C1756 1.478 . S
C1758 C1760 1.381 . S
C1758 C1764 1.383 . S
C1759 C1755 1.495 . S
C1759 H1765 0.959 . S
C1759 H1766 0.961 . S
C1759 H1767 0.960 . S
C1760 C1758 1.381 . S
C1760 C1761 1.394 . S
C1760 H1768 0.930 . S
C1761 C1760 1.394 . S
C1761 C1762 1.383 . S
C1761 H1769 0.929 . S
C1762 C1761 1.383 . S
C1762 C1763 1.377 . S
C1763 H1747 0.930 . S
C1763 C1762 1.377 . S
C1763 C1764 1.379 . S
C1764 H1748 0.931 . S
C1764 C1758 1.383 . S
C1764 C1763 1.379 . S
H1765 C1759 0.959 . S
H1766 C1759 0.961 . S
H1767 C1759 0.960 . S
H1768 C1760 0.930 . S
H1769 C1761 0.929 . S
H1770 C1778 0.929 . S
H1771 C1780 0.930 . S
H1772 C1782 0.930 . S
H1773 C1785 0.929 . S
H1774 C1788 0.930 . S
H1775 C1790 0.960 . S
H1776 C1790 0.960 . S
H1777 C1790 0.960 . S
C1778 H1770 0.929 . S
C1778 C1779 1.377 . S
C1778 C1780 1.384 . S
C1779 C1778 1.377 . S
C1779 C1785 1.390 . S
C1780 H1771 0.930 . S
C1780 C1778 1.384 . S
C1780 C1781 1.372 . S
C1781 C1780 1.372 . S
C1781 C1782 1.400 . S
C1781 C1786 1.490 . S
C1782 H1772 0.930 . S
C1782 C1781 1.400 . S
C1782 C1785 1.386 . S
H1783 C1799 0.930 1_554 S
H1784 C1800 0.931 . S
C1785 H1773 0.929 . S
C1785 C1779 1.390 . S
C1785 C1782 1.386 . S
C1786 C1781 1.490 . S
C1786 C1788 1.395 . S
C1786 C1789 1.403 . S
H1787 C1793 0.930 . S
C1788 H1774 0.930 . S
C1788 C1786 1.395 . S
C1788 C1791 1.403 . S
C1789 C1786 1.403 . S
C1789 C1790 1.524 . S
C1789 C1793 1.400 . S
C1790 H1775 0.960 . S
C1790 H1776 0.960 . S
C1790 H1777 0.960 . S
C1790 C1789 1.524 . S
C1791 C1788 1.403 . S
C1791 C1792 1.392 . S
C1791 C1795 1.495 . S
C1792 C1791 1.392 . S
C1792 C1793 1.385 . S
C1792 C1794 1.478 . S
C1793 H1787 0.930 . S
C1793 C1789 1.400 . S
C1793 C1792 1.385 . S
C1794 C1792 1.478 . S
C1794 C1796 1.381 . S
C1794 C1800 1.383 . S
C1795 C1791 1.495 . S
C1795 H1801 0.959 . S
C1795 H1802 0.961 . S
C1795 H1803 0.960 . S
C1796 C1794 1.381 . S
C1796 C1797 1.394 . S
C1796 H1804 0.930 . S
C1797 C1796 1.394 . S
C1797 C1798 1.383 . S
C1797 H1805 0.929 . S
C1798 C1797 1.383 . S
C1798 C1799 1.377 . S
C1799 H1783 0.930 1_556 S
C1799 C1798 1.377 . S
C1799 C1800 1.379 . S
C1800 H1784 0.931 . S
C1800 C1794 1.383 . S
C1800 C1799 1.379 . S
H1801 C1795 0.959 . S
H1802 C1795 0.961 . S
H1803 C1795 0.960 . S
H1804 C1796 0.930 . S
H1805 C1797 0.929 . S
H1806 C1814 0.929 . S
H1807 C1816 0.930 . S
H1808 C1818 0.930 . S
H1809 C1821 0.929 . S
H1810 C1824 0.930 . S
H1811 C1826 0.960 . S
H1812 C1826 0.960 . S
H1813 C1826 0.960 . S
C1814 H1806 0.929 . S
C1814 C1815 1.377 . S
C1814 C1816 1.384 . S
C1815 C1814 1.377 . S
C1815 C1821 1.390 . S
C1816 H1807 0.930 . S
C1816 C1814 1.384 . S
C1816 C1817 1.372 . S
C1817 C1816 1.372 . S
C1817 C1818 1.400 . S
C1817 C1822 1.490 . S
C1818 H1808 0.930 . S
C1818 C1817 1.400 . S
C1818 C1821 1.386 . S
H1819 C1835 0.930 . S
H1820 C1836 0.931 . S
C1821 H1809 0.929 . S
C1821 C1815 1.390 . S
C1821 C1818 1.386 . S
C1822 C1817 1.490 . S
C1822 C1824 1.395 . S
C1822 C1825 1.403 . S
H1823 C1829 0.930 . S
C1824 H1810 0.930 . S
C1824 C1822 1.395 . S
C1824 C1827 1.403 . S
C1825 C1822 1.403 . S
C1825 C1826 1.524 . S
C1825 C1829 1.400 . S
C1826 H1811 0.960 . S
C1826 H1812 0.960 . S
C1826 H1813 0.960 . S
C1826 C1825 1.524 . S
C1827 C1824 1.403 . S
C1827 C1828 1.392 . S
C1827 C1831 1.495 . S
C1828 C1827 1.392 . S
C1828 C1829 1.385 . S
C1828 C1830 1.478 . S
C1829 H1823 0.930 . S
C1829 C1825 1.400 . S
C1829 C1828 1.385 . S
C1830 C1828 1.478 . S
C1830 C1832 1.381 . S
C1830 C1836 1.383 . S
C1831 C1827 1.495 . S
C1831 H1837 0.959 . S
C1831 H1838 0.961 . S
C1831 H1839 0.960 . S
C1832 C1830 1.381 . S
C1832 C1833 1.394 . S
C1832 H1840 0.930 . S
C1833 C1832 1.394 . S
C1833 C1834 1.383 . S
C1833 H1841 0.929 . S
C1834 C1833 1.383 . S
C1834 C1835 1.377 . S
C1835 H1819 0.930 . S
C1835 C1834 1.377 . S
C1835 C1836 1.379 . S
C1836 H1820 0.931 . S
C1836 C1830 1.383 . S
C1836 C1835 1.379 . S
H1837 C1831 0.959 . S
H1838 C1831 0.961 . S
H1839 C1831 0.960 . S
H1840 C1832 0.930 . S
H1841 C1833 0.929 . S
H1842 C1850 0.929 . S
H1843 C1852 0.930 . S
H1844 C1854 0.930 . S
H1845 C1857 0.929 . S
H1846 C1860 0.930 . S
H1847 C1862 0.960 . S
H1848 C1862 0.960 . S
H1849 C1862 0.960 . S
C1850 H1842 0.929 . S
C1850 C1851 1.377 . S
C1850 C1852 1.384 . S
C1851 C1850 1.377 . S
C1851 C1857 1.390 . S
C1852 H1843 0.930 . S
C1852 C1850 1.384 . S
C1852 C1853 1.372 . S
C1853 C1852 1.372 . S
C1853 C1854 1.400 . S
C1853 C1858 1.490 . S
C1854 H1844 0.930 . S
C1854 C1853 1.400 . S
C1854 C1857 1.386 . S
H1855 C1871 0.930 . S
H1856 C1872 0.931 . S
C1857 H1845 0.929 . S
C1857 C1851 1.390 . S
C1857 C1854 1.386 . S
C1858 C1853 1.490 . S
C1858 C1860 1.395 . S
C1858 C1861 1.403 . S
H1859 C1865 0.930 . S
C1860 H1846 0.930 . S
C1860 C1858 1.395 . S
C1860 C1863 1.403 . S
C1861 C1858 1.403 . S
C1861 C1862 1.524 . S
C1861 C1865 1.400 . S
C1862 H1847 0.960 . S
C1862 H1848 0.960 . S
C1862 H1849 0.960 . S
C1862 C1861 1.524 . S
C1863 C1860 1.403 . S
C1863 C1864 1.392 . S
C1863 C1867 1.495 . S
C1864 C1863 1.392 . S
C1864 C1865 1.385 . S
C1864 C1866 1.478 . S
C1865 H1859 0.930 . S
C1865 C1861 1.400 . S
C1865 C1864 1.385 . S
C1866 C1864 1.478 . S
C1866 C1868 1.381 . S
C1866 C1872 1.383 . S
C1867 C1863 1.495 . S
C1867 H1873 0.959 . S
C1867 H1874 0.961 . S
C1867 H1875 0.960 . S
C1868 C1866 1.381 . S
C1868 C1869 1.394 . S
C1868 H1876 0.930 . S
C1869 C1868 1.394 . S
C1869 C1870 1.383 . S
C1869 H1877 0.929 . S
C1870 C1869 1.383 . S
C1870 C1871 1.377 . S
C1871 H1855 0.930 . S
C1871 C1870 1.377 . S
C1871 C1872 1.379 . S
C1872 H1856 0.931 . S
C1872 C1866 1.383 . S
C1872 C1871 1.379 . S
H1873 C1867 0.959 . S
H1874 C1867 0.961 . S
H1875 C1867 0.960 . S
H1876 C1868 0.930 . S
H1877 C1869 0.929 . S
H1878 C1886 0.929 . S
H1879 C1888 0.930 . S
H1880 C1890 0.930 . S
H1881 C1893 0.929 . S
H1882 C1896 0.930 . S
H1883 C1898 0.960 . S
H1884 C1898 0.960 . S
H1885 C1898 0.960 . S
C1886 H1878 0.929 . S
C1886 C1887 1.377 . S
C1886 C1888 1.384 . S
C1887 C1886 1.377 . S
C1887 C1893 1.390 . S
C1888 H1879 0.930 . S
C1888 C1886 1.384 . S
C1888 C1889 1.372 . S
C1889 C1888 1.372 . S
C1889 C1890 1.400 . S
C1889 C1894 1.490 . S
C1890 H1880 0.930 . S
C1890 C1889 1.400 . S
C1890 C1893 1.386 . S
H1891 C1907 0.930 . S
H1892 C1908 0.931 . S
C1893 H1881 0.929 . S
C1893 C1887 1.390 . S
C1893 C1890 1.386 . S
C1894 C1889 1.490 . S
C1894 C1896 1.395 . S
C1894 C1897 1.403 . S
H1895 C1901 0.930 . S
C1896 H1882 0.930 . S
C1896 C1894 1.395 . S
C1896 C1899 1.403 . S
C1897 C1894 1.403 . S
C1897 C1898 1.524 . S
C1897 C1901 1.400 . S
C1898 H1883 0.960 . S
C1898 H1884 0.960 . S
C1898 H1885 0.960 . S
C1898 C1897 1.524 . S
C1899 C1896 1.403 . S
C1899 C1900 1.392 . S
C1899 C1903 1.495 . S
C1900 C1899 1.392 . S
C1900 C1901 1.385 . S
C1900 C1902 1.478 . S
C1901 H1895 0.930 . S
C1901 C1897 1.400 . S
C1901 C1900 1.385 . S
C1902 C1900 1.478 . S
C1902 C1904 1.381 . S
C1902 C1908 1.383 . S
C1903 C1899 1.495 . S
C1903 H1909 0.959 . S
C1903 H1910 0.961 . S
C1903 H1911 0.960 . S
C1904 C1902 1.381 . S
C1904 C1905 1.394 . S
C1904 H1912 0.930 . S
C1905 C1904 1.394 . S
C1905 C1906 1.383 . S
C1905 H1913 0.929 1_554 S
C1906 C1905 1.383 . S
C1906 C1907 1.377 . S
C1907 H1891 0.930 . S
C1907 C1906 1.377 . S
C1907 C1908 1.379 . S
C1908 H1892 0.931 . S
C1908 C1902 1.383 . S
C1908 C1907 1.379 . S
H1909 C1903 0.959 . S
H1910 C1903 0.961 . S
H1911 C1903 0.960 . S
H1912 C1904 0.930 . S
H1913 C1905 0.929 1_556 S
H1914 C1922 0.929 . S
H1915 C1924 0.930 . S
H1916 C1926 0.930 . S
H1917 C1929 0.929 . S
H1918 C1932 0.930 . S
H1919 C1934 0.960 . S
H1920 C1934 0.960 . S
H1921 C1934 0.960 . S
C1922 H1914 0.929 . S
C1922 C1923 1.377 . S
C1922 C1924 1.384 . S
C1923 C1922 1.377 . S
C1923 C1929 1.390 . S
C1924 H1915 0.930 . S
C1924 C1922 1.384 . S
C1924 C1925 1.372 . S
C1925 C1924 1.372 . S
C1925 C1926 1.400 . S
C1925 C1930 1.490 . S
C1926 H1916 0.930 . S
C1926 C1925 1.400 . S
C1926 C1929 1.386 . S
H1927 C1943 0.930 . S
H1928 C1944 0.931 . S
C1929 H1917 0.929 . S
C1929 C1923 1.390 . S
C1929 C1926 1.386 . S
C1930 C1925 1.490 . S
C1930 C1932 1.395 . S
C1930 C1933 1.403 . S
H1931 C1937 0.930 . S
C1932 H1918 0.930 . S
C1932 C1930 1.395 . S
C1932 C1935 1.403 . S
C1933 C1930 1.403 . S
C1933 C1934 1.524 . S
C1933 C1937 1.400 . S
C1934 H1919 0.960 . S
C1934 H1920 0.960 . S
C1934 H1921 0.960 . S
C1934 C1933 1.524 . S
C1935 C1932 1.403 . S
C1935 C1936 1.392 . S
C1935 C1939 1.495 . S
C1936 C1935 1.392 . S
C1936 C1937 1.385 . S
C1936 C1938 1.478 . S
C1937 H1931 0.930 . S
C1937 C1933 1.400 . S
C1937 C1936 1.385 . S
C1938 C1936 1.478 . S
C1938 C1940 1.381 . S
C1938 C1944 1.383 . S
C1939 C1935 1.495 . S
C1939 H1945 0.959 . S
C1939 H1946 0.961 . S
C1939 H1947 0.960 . S
C1940 C1938 1.381 . S
C1940 C1941 1.394 . S
C1940 H1948 0.930 . S
C1941 C1940 1.394 . S
C1941 C1942 1.383 . S
C1941 H1949 0.929 . S
C1942 C1941 1.383 . S
C1942 C1943 1.377 . S
C1943 H1927 0.930 . S
C1943 C1942 1.377 . S
C1943 C1944 1.379 . S
C1944 H1928 0.931 . S
C1944 C1938 1.383 . S
C1944 C1943 1.379 . S
H1945 C1939 0.959 . S
H1946 C1939 0.961 . S
H1947 C1939 0.960 . S
H1948 C1940 0.930 . S
H1949 C1941 0.929 . S
H1950 C1958 0.929 . S
H1951 C1960 0.930 . S
H1952 C1962 0.930 . S
H1953 C1965 0.929 . S
H1954 C1968 0.930 . S
H1955 C1970 0.960 . S
H1956 C1970 0.960 . S
H1957 C1970 0.960 . S
C1958 H1950 0.929 . S
C1958 C1959 1.377 . S
C1958 C1960 1.384 . S
C1959 C1958 1.377 . S
C1959 C1965 1.390 . S
C1960 H1951 0.930 . S
C1960 C1958 1.384 . S
C1960 C1961 1.372 . S
C1961 C1960 1.372 . S
C1961 C1962 1.400 . S
C1961 C1966 1.490 . S
C1962 H1952 0.930 . S
C1962 C1961 1.400 . S
C1962 C1965 1.386 . S
H1963 C1979 0.930 . S
H1964 C1980 0.931 . S
C1965 H1953 0.929 . S
C1965 C1959 1.390 . S
C1965 C1962 1.386 . S
C1966 C1961 1.490 . S
C1966 C1968 1.395 . S
C1966 C1969 1.403 . S
H1967 C1973 0.930 . S
C1968 H1954 0.930 . S
C1968 C1966 1.395 . S
C1968 C1971 1.403 . S
C1969 C1966 1.403 . S
C1969 C1970 1.524 . S
C1969 C1973 1.400 . S
C1970 H1955 0.960 . S
C1970 H1956 0.960 . S
C1970 H1957 0.960 . S
C1970 C1969 1.524 . S
C1971 C1968 1.403 . S
C1971 C1972 1.392 . S
C1971 C1975 1.495 . S
C1972 C1971 1.392 . S
C1972 C1973 1.385 . S
C1972 C1974 1.478 . S
C1973 H1967 0.930 . S
C1973 C1969 1.400 . S
C1973 C1972 1.385 . S
C1974 C1972 1.478 . S
C1974 C1976 1.381 . S
C1974 C1980 1.383 . S
C1975 C1971 1.495 . S
C1975 H1981 0.959 . S
C1975 H1982 0.961 . S
C1975 H1983 0.960 . S
C1976 C1974 1.381 . S
C1976 C1977 1.394 . S
C1976 H1984 0.930 . S
C1977 C1976 1.394 . S
C1977 C1978 1.383 . S
C1977 H1985 0.929 . S
C1978 C1977 1.383 . S
C1978 C1979 1.377 . S
C1979 H1963 0.930 . S
C1979 C1978 1.377 . S
C1979 C1980 1.379 . S
C1980 H1964 0.931 . S
C1980 C1974 1.383 . S
C1980 C1979 1.379 . S
H1981 C1975 0.959 . S
H1982 C1975 0.961 . S
H1983 C1975 0.960 . S
H1984 C1976 0.930 . S
H1985 C1977 0.929 . S
H1986 C1994 0.929 . S
H1987 C1996 0.930 . S
H1988 C1998 0.930 . S
H1989 C2001 0.929 . S
H1990 C2004 0.930 . S
H1991 C2006 0.960 . S
H1992 C2006 0.960 . S
H1993 C2006 0.960 . S
C1994 H1986 0.929 . S
C1994 C1995 1.377 . S
C1994 C1996 1.384 . S
C1995 C1994 1.377 . S
C1995 C2001 1.390 . S
C1996 H1987 0.930 . S
C1996 C1994 1.384 . S
C1996 C1997 1.372 . S
C1997 C1996 1.372 . S
C1997 C1998 1.400 . S
C1997 C2002 1.490 . S
C1998 H1988 0.930 . S
C1998 C1997 1.400 . S
C1998 C2001 1.386 . S
H1999 C2015 0.930 . S
H2000 C2016 0.931 . S
C2001 H1989 0.929 . S
C2001 C1995 1.390 . S
C2001 C1998 1.386 . S
C2002 C1997 1.490 . S
C2002 C2004 1.395 . S
C2002 C2005 1.403 . S
H2003 C2009 0.930 . S
C2004 H1990 0.930 . S
C2004 C2002 1.395 . S
C2004 C2007 1.403 . S
C2005 C2002 1.403 . S
C2005 C2006 1.524 . S
C2005 C2009 1.400 . S
C2006 H1991 0.960 . S
C2006 H1992 0.960 . S
C2006 H1993 0.960 . S
C2006 C2005 1.524 . S
C2007 C2004 1.403 . S
C2007 C2008 1.392 . S
C2007 C2011 1.495 . S
C2008 C2007 1.392 . S
C2008 C2009 1.385 . S
C2008 C2010 1.478 . S
C2009 H2003 0.930 . S
C2009 C2005 1.400 . S
C2009 C2008 1.385 . S
C2010 C2008 1.478 . S
C2010 C2012 1.381 . S
C2010 C2016 1.383 . S
C2011 C2007 1.495 . S
C2011 H2017 0.959 . S
C2011 H2018 0.961 . S
C2011 H2019 0.960 . S
C2012 C2010 1.381 . S
C2012 C2013 1.394 . S
C2012 H2020 0.930 . S
C2013 C2012 1.394 . S
C2013 C2014 1.383 . S
C2013 H2021 0.929 . S
C2014 C2013 1.383 . S
C2014 C2015 1.377 . S
C2015 H1999 0.930 . S
C2015 C2014 1.377 . S
C2015 C2016 1.379 . S
C2016 H2000 0.931 . S
C2016 C2010 1.383 . S
C2016 C2015 1.379 . S
H2017 C2011 0.959 . S
H2018 C2011 0.961 . S
H2019 C2011 0.960 . S
H2020 C2012 0.930 . S
H2021 C2013 0.929 . S
H2022 C2030 0.929 . S
H2023 C2032 0.930 . S
H2024 C2034 0.930 . S
H2025 C2037 0.929 . S
H2026 C2040 0.930 . S
H2027 C2042 0.960 . S
H2028 C2042 0.960 . S
H2029 C2042 0.960 . S
C2030 H2022 0.929 . S
C2030 C2031 1.377 . S
C2030 C2032 1.384 . S
C2031 C2030 1.377 . S
C2031 C2037 1.390 . S
C2032 H2023 0.930 . S
C2032 C2030 1.384 . S
C2032 C2033 1.372 . S
C2033 C2032 1.372 . S
C2033 C2034 1.400 . S
C2033 C2038 1.490 . S
C2034 H2024 0.930 . S
C2034 C2033 1.400 . S
C2034 C2037 1.386 . S
H2035 C2051 0.930 . S
H2036 C2052 0.931 . S
C2037 H2025 0.929 . S
C2037 C2031 1.390 . S
C2037 C2034 1.386 . S
C2038 C2033 1.490 . S
C2038 C2040 1.395 . S
C2038 C2041 1.403 . S
H2039 C2045 0.930 . S
C2040 H2026 0.930 . S
C2040 C2038 1.395 . S
C2040 C2043 1.403 . S
C2041 C2038 1.403 . S
C2041 C2042 1.524 . S
C2041 C2045 1.400 . S
C2042 H2027 0.960 . S
C2042 H2028 0.960 . S
C2042 H2029 0.960 . S
C2042 C2041 1.524 . S
C2043 C2040 1.403 . S
C2043 C2044 1.392 . S
C2043 C2047 1.495 . S
C2044 C2043 1.392 . S
C2044 C2045 1.385 . S
C2044 C2046 1.478 . S
C2045 H2039 0.930 . S
C2045 C2041 1.400 . S
C2045 C2044 1.385 . S
C2046 C2044 1.478 . S
C2046 C2048 1.381 . S
C2046 C2052 1.383 . S
C2047 C2043 1.495 . S
C2047 H2053 0.959 . S
C2047 H2054 0.961 . S
C2047 H2055 0.960 . S
C2048 C2046 1.381 . S
C2048 C2049 1.394 . S
C2048 H2056 0.930 . S
C2049 C2048 1.394 . S
C2049 C2050 1.383 . S
C2049 H2057 0.929 . S
C2050 C2049 1.383 . S
C2050 C2051 1.377 . S
C2051 H2035 0.930 . S
C2051 C2050 1.377 . S
C2051 C2052 1.379 . S
C2052 H2036 0.931 . S
C2052 C2046 1.383 . S
C2052 C2051 1.379 . S
H2053 C2047 0.959 . S
H2054 C2047 0.961 . S
H2055 C2047 0.960 . S
H2056 C2048 0.930 . S
H2057 C2049 0.929 . S
H2058 C2066 0.929 . S
H2059 C2068 0.930 . S
H2060 C2070 0.930 . S
H2061 C2073 0.929 . S
H2062 C2076 0.930 . S
H2063 C2078 0.960 . S
H2064 C2078 0.960 . S
H2065 C2078 0.960 . S
C2066 H2058 0.929 . S
C2066 C2067 1.377 . S
C2066 C2068 1.384 . S
C2067 C2066 1.377 . S
C2067 C2073 1.390 . S
C2068 H2059 0.930 . S
C2068 C2066 1.384 . S
C2068 C2069 1.372 . S
C2069 C2068 1.372 . S
C2069 C2070 1.400 . S
C2069 C2074 1.490 . S
C2070 H2060 0.930 . S
C2070 C2069 1.400 . S
C2070 C2073 1.386 . S
H2071 C2087 0.930 . S
H2072 C2088 0.931 . S
C2073 H2061 0.929 . S
C2073 C2067 1.390 . S
C2073 C2070 1.386 . S
C2074 C2069 1.490 . S
C2074 C2076 1.395 . S
C2074 C2077 1.403 . S
H2075 C2081 0.930 . S
C2076 H2062 0.930 . S
C2076 C2074 1.395 . S
C2076 C2079 1.403 . S
C2077 C2074 1.403 . S
C2077 C2078 1.524 . S
C2077 C2081 1.400 . S
C2078 H2063 0.960 . S
C2078 H2064 0.960 . S
C2078 H2065 0.960 . S
C2078 C2077 1.524 . S
C2079 C2076 1.403 . S
C2079 C2080 1.392 . S
C2079 C2083 1.495 . S
C2080 C2079 1.392 . S
C2080 C2081 1.385 . S
C2080 C2082 1.478 . S
C2081 H2075 0.930 . S
C2081 C2077 1.400 . S
C2081 C2080 1.385 . S
C2082 C2080 1.478 . S
C2082 C2084 1.381 . S
C2082 C2088 1.383 . S
C2083 C2079 1.495 . S
C2083 H2089 0.959 . S
C2083 H2090 0.961 . S
C2083 H2091 0.960 . S
C2084 C2082 1.381 . S
C2084 C2085 1.394 . S
C2084 H2092 0.930 . S
C2085 C2084 1.394 . S
C2085 C2086 1.383 . S
C2085 H2093 0.929 . S
C2086 C2085 1.383 . S
C2086 C2087 1.377 . S
C2087 H2071 0.930 . S
C2087 C2086 1.377 . S
C2087 C2088 1.379 . S
C2088 H2072 0.931 . S
C2088 C2082 1.383 . S
C2088 C2087 1.379 . S
H2089 C2083 0.959 . S
H2090 C2083 0.961 . S
H2091 C2083 0.960 . S
H2092 C2084 0.930 . S
H2093 C2085 0.929 . S
H2094 C2102 0.929 . S
H2095 C2104 0.930 . S
H2096 C2106 0.930 . S
H2097 C2109 0.929 . S
H2098 C2112 0.930 . S
H2099 C2114 0.960 . S
H2100 C2114 0.960 . S
H2101 C2114 0.960 . S
C2102 H2094 0.929 . S
C2102 C2103 1.377 . S
C2102 C2104 1.384 . S
C2103 C2102 1.377 . S
C2103 C2109 1.390 . S
C2104 H2095 0.930 . S
C2104 C2102 1.384 . S
C2104 C2105 1.372 . S
C2105 C2104 1.372 . S
C2105 C2106 1.400 . S
C2105 C2110 1.490 . S
C2106 H2096 0.930 . S
C2106 C2105 1.400 . S
C2106 C2109 1.386 . S
H2107 C2123 0.930 . S
H2108 C2124 0.931 . S
C2109 H2097 0.929 . S
C2109 C2103 1.390 . S
C2109 C2106 1.386 . S
C2110 C2105 1.490 . S
C2110 C2112 1.395 . S
C2110 C2113 1.403 . S
H2111 C2117 0.930 . S
C2112 H2098 0.930 . S
C2112 C2110 1.395 . S
C2112 C2115 1.403 . S
C2113 C2110 1.403 . S
C2113 C2114 1.524 . S
C2113 C2117 1.400 . S
C2114 H2099 0.960 . S
C2114 H2100 0.960 . S
C2114 H2101 0.960 . S
C2114 C2113 1.524 . S
C2115 C2112 1.403 . S
C2115 C2116 1.392 . S
C2115 C2119 1.495 . S
C2116 C2115 1.392 . S
C2116 C2117 1.385 . S
C2116 C2118 1.478 . S
C2117 H2111 0.930 . S
C2117 C2113 1.400 . S
C2117 C2116 1.385 . S
C2118 C2116 1.478 . S
C2118 C2120 1.381 . S
C2118 C2124 1.383 . S
C2119 C2115 1.495 . S
C2119 H2125 0.959 . S
C2119 H2126 0.961 . S
C2119 H2127 0.960 . S
C2120 C2118 1.381 . S
C2120 C2121 1.394 . S
C2120 H2128 0.930 . S
C2121 C2120 1.394 . S
C2121 C2122 1.383 . S
C2121 H2129 0.929 . S
C2122 C2121 1.383 . S
C2122 C2123 1.377 . S
C2123 H2107 0.930 . S
C2123 C2122 1.377 . S
C2123 C2124 1.379 . S
C2124 H2108 0.931 . S
C2124 C2118 1.383 . S
C2124 C2123 1.379 . S
H2125 C2119 0.959 . S
H2126 C2119 0.961 . S
H2127 C2119 0.960 . S
H2128 C2120 0.930 . S
H2129 C2121 0.929 . S
H2130 C2138 0.929 . S
H2131 C2140 0.930 . S
H2132 C2142 0.930 . S
H2133 C2145 0.929 . S
H2134 C2148 0.930 . S
H2135 C2150 0.960 . S
H2136 C2150 0.960 . S
H2137 C2150 0.960 . S
C2138 H2130 0.929 . S
C2138 C2139 1.377 . S
C2138 C2140 1.384 . S
C2139 C2138 1.377 . S
C2139 C2145 1.390 . S
C2140 H2131 0.930 . S
C2140 C2138 1.384 . S
C2140 C2141 1.372 . S
C2141 C2140 1.372 . S
C2141 C2142 1.400 . S
C2141 C2146 1.490 . S
C2142 H2132 0.930 . S
C2142 C2141 1.400 . S
C2142 C2145 1.386 . S
H2143 C2159 0.930 . S
H2144 C2160 0.931 . S
C2145 H2133 0.929 . S
C2145 C2139 1.390 . S
C2145 C2142 1.386 . S
C2146 C2141 1.490 . S
C2146 C2148 1.395 . S
C2146 C2149 1.403 . S
H2147 C2153 0.930 . S
C2148 H2134 0.930 . S
C2148 C2146 1.395 . S
C2148 C2151 1.403 . S
C2149 C2146 1.403 . S
C2149 C2150 1.524 . S
C2149 C2153 1.400 . S
C2150 H2135 0.960 . S
C2150 H2136 0.960 . S
C2150 H2137 0.960 . S
C2150 C2149 1.524 . S
C2151 C2148 1.403 . S
C2151 C2152 1.392 . S
C2151 C2155 1.495 . S
C2152 C2151 1.392 . S
C2152 C2153 1.385 . S
C2152 C2154 1.478 . S
C2153 H2147 0.930 . S
C2153 C2149 1.400 . S
C2153 C2152 1.385 . S
C2154 C2152 1.478 . S
C2154 C2156 1.381 . S
C2154 C2160 1.383 . S
C2155 C2151 1.495 . S
C2155 H2161 0.959 . S
C2155 H2162 0.961 . S
C2155 H2163 0.960 . S
C2156 C2154 1.381 . S
C2156 C2157 1.394 . S
C2156 H2164 0.930 . S
C2157 C2156 1.394 . S
C2157 C2158 1.383 . S
C2157 H2165 0.929 . S
C2158 C2157 1.383 . S
C2158 C2159 1.377 . S
C2159 H2143 0.930 . S
C2159 C2158 1.377 . S
C2159 C2160 1.379 . S
C2160 H2144 0.931 . S
C2160 C2154 1.383 . S
C2160 C2159 1.379 . S
H2161 C2155 0.959 . S
H2162 C2155 0.961 . S
H2163 C2155 0.960 . S
H2164 C2156 0.930 . S
H2165 C2157 0.929 . S
H2166 C2174 0.929 . S
H2167 C2176 0.930 . S
H2168 C2178 0.930 . S
H2169 C2181 0.929 . S
H2170 C2184 0.930 . S
H2171 C2186 0.960 . S
H2172 C2186 0.960 . S
H2173 C2186 0.960 . S
C2174 H2166 0.929 . S
C2174 C2175 1.377 . S
C2174 C2176 1.384 . S
C2175 C2174 1.377 . S
C2175 C2181 1.390 . S
C2176 H2167 0.930 . S
C2176 C2174 1.384 . S
C2176 C2177 1.372 . S
C2177 C2176 1.372 . S
C2177 C2178 1.400 . S
C2177 C2182 1.490 . S
C2178 H2168 0.930 . S
C2178 C2177 1.400 . S
C2178 C2181 1.386 . S
H2179 C2195 0.930 . S
H2180 C2196 0.931 . S
C2181 H2169 0.929 . S
C2181 C2175 1.390 . S
C2181 C2178 1.386 . S
C2182 C2177 1.490 . S
C2182 C2184 1.395 . S
C2182 C2185 1.403 . S
H2183 C2189 0.930 . S
C2184 H2170 0.930 . S
C2184 C2182 1.395 . S
C2184 C2187 1.403 . S
C2185 C2182 1.403 . S
C2185 C2186 1.524 . S
C2185 C2189 1.400 . S
C2186 H2171 0.960 . S
C2186 H2172 0.960 . S
C2186 H2173 0.960 . S
C2186 C2185 1.524 . S
C2187 C2184 1.403 . S
C2187 C2188 1.392 . S
C2187 C2191 1.495 . S
C2188 C2187 1.392 . S
C2188 C2189 1.385 . S
C2188 C2190 1.478 . S
C2189 H2183 0.930 . S
C2189 C2185 1.400 . S
C2189 C2188 1.385 . S
C2190 C2188 1.478 . S
C2190 C2192 1.381 . S
C2190 C2196 1.383 . S
C2191 C2187 1.495 . S
C2191 H2197 0.959 . S
C2191 H2198 0.961 . S
C2191 H2199 0.960 . S
C2192 C2190 1.381 . S
C2192 C2193 1.394 . S
C2192 H2200 0.930 . S
C2193 C2192 1.394 . S
C2193 C2194 1.383 . S
C2193 H2201 0.929 . S
C2194 C2193 1.383 . S
C2194 C2195 1.377 . S
C2195 H2179 0.930 . S
C2195 C2194 1.377 . S
C2195 C2196 1.379 . S
C2196 H2180 0.931 . S
C2196 C2190 1.383 . S
C2196 C2195 1.379 . S
H2197 C2191 0.959 . S
H2198 C2191 0.961 . S
H2199 C2191 0.960 . S
H2200 C2192 0.930 . S
H2201 C2193 0.929 . S
H2202 C2210 0.929 . S
H2203 C2212 0.930 . S
H2204 C2214 0.930 . S
H2205 C2217 0.929 . S
H2206 C2220 0.930 . S
H2207 C2222 0.960 . S
H2208 C2222 0.960 . S
H2209 C2222 0.960 . S
C2210 H2202 0.929 . S
C2210 C2211 1.377 . S
C2210 C2212 1.384 . S
C2211 C2210 1.377 . S
C2211 C2217 1.390 . S
C2212 H2203 0.930 . S
C2212 C2210 1.384 . S
C2212 C2213 1.372 . S
C2213 C2212 1.372 . S
C2213 C2214 1.400 . S
C2213 C2218 1.490 . S
C2214 H2204 0.930 . S
C2214 C2213 1.400 . S
C2214 C2217 1.386 . S
H2215 C2231 0.930 . S
H2216 C2232 0.931 . S
C2217 H2205 0.929 . S
C2217 C2211 1.390 . S
C2217 C2214 1.386 . S
C2218 C2213 1.490 . S
C2218 C2220 1.395 . S
C2218 C2221 1.403 . S
H2219 C2225 0.930 . S
C2220 H2206 0.930 . S
C2220 C2218 1.395 . S
C2220 C2223 1.403 . S
C2221 C2218 1.403 . S
C2221 C2222 1.524 . S
C2221 C2225 1.400 . S
C2222 H2207 0.960 . S
C2222 H2208 0.960 . S
C2222 H2209 0.960 . S
C2222 C2221 1.524 . S
C2223 C2220 1.403 . S
C2223 C2224 1.392 . S
C2223 C2227 1.495 . S
C2224 C2223 1.392 . S
C2224 C2225 1.385 . S
C2224 C2226 1.478 . S
C2225 H2219 0.930 . S
C2225 C2221 1.400 . S
C2225 C2224 1.385 . S
C2226 C2224 1.478 . S
C2226 C2228 1.381 . S
C2226 C2232 1.383 . S
C2227 C2223 1.495 . S
C2227 H2233 0.959 . S
C2227 H2234 0.961 . S
C2227 H2235 0.960 . S
C2228 C2226 1.381 . S
C2228 C2229 1.394 . S
C2228 H2236 0.930 . S
C2229 C2228 1.394 . S
C2229 C2230 1.383 . S
C2229 H2237 0.929 . S
C2230 C2229 1.383 . S
C2230 C2231 1.377 . S
C2231 H2215 0.930 . S
C2231 C2230 1.377 . S
C2231 C2232 1.379 . S
C2232 H2216 0.931 . S
C2232 C2226 1.383 . S
C2232 C2231 1.379 . S
H2233 C2227 0.959 . S
H2234 C2227 0.961 . S
H2235 C2227 0.960 . S
H2236 C2228 0.930 . S
H2237 C2229 0.929 . S
H2238 C2246 0.929 . S
H2239 C2248 0.930 . S
H2240 C2250 0.930 . S
H2241 C2253 0.929 . S
H2242 C2256 0.930 . S
H2243 C2258 0.960 . S
H2244 C2258 0.960 . S
H2245 C2258 0.960 . S
C2246 H2238 0.929 . S
C2246 C2247 1.377 . S
C2246 C2248 1.384 . S
C2247 C2246 1.377 . S
C2247 C2253 1.390 . S
C2248 H2239 0.930 . S
C2248 C2246 1.384 . S
C2248 C2249 1.372 . S
C2249 C2248 1.372 . S
C2249 C2250 1.400 . S
C2249 C2254 1.490 . S
C2250 H2240 0.930 . S
C2250 C2249 1.400 . S
C2250 C2253 1.386 . S
H2251 C2267 0.930 . S
H2252 C2268 0.931 . S
C2253 H2241 0.929 . S
C2253 C2247 1.390 . S
C2253 C2250 1.386 . S
C2254 C2249 1.490 . S
C2254 C2256 1.395 . S
C2254 C2257 1.403 . S
H2255 C2261 0.930 . S
C2256 H2242 0.930 . S
C2256 C2254 1.395 . S
C2256 C2259 1.403 . S
C2257 C2254 1.403 . S
C2257 C2258 1.524 . S
C2257 C2261 1.400 . S
C2258 H2243 0.960 . S
C2258 H2244 0.960 . S
C2258 H2245 0.960 . S
C2258 C2257 1.524 . S
C2259 C2256 1.403 . S
C2259 C2260 1.392 . S
C2259 C2263 1.495 . S
C2260 C2259 1.392 . S
C2260 C2261 1.385 . S
C2260 C2262 1.478 . S
C2261 H2255 0.930 . S
C2261 C2257 1.400 . S
C2261 C2260 1.385 . S
C2262 C2260 1.478 . S
C2262 C2264 1.381 . S
C2262 C2268 1.383 . S
C2263 C2259 1.495 . S
C2263 H2269 0.959 . S
C2263 H2270 0.961 . S
C2263 H2271 0.960 . S
C2264 C2262 1.381 . S
C2264 C2265 1.394 . S
C2264 H2272 0.930 . S
C2265 C2264 1.394 . S
C2265 C2266 1.383 . S
C2265 H2273 0.929 . S
C2266 C2265 1.383 . S
C2266 C2267 1.377 . S
C2267 H2251 0.930 . S
C2267 C2266 1.377 . S
C2267 C2268 1.379 . S
C2268 H2252 0.931 . S
C2268 C2262 1.383 . S
C2268 C2267 1.379 . S
H2269 C2263 0.959 . S
H2270 C2263 0.961 . S
H2271 C2263 0.960 . S
H2272 C2264 0.930 . S
H2273 C2265 0.929 . S
H2274 C2282 0.929 . S
H2275 C2284 0.930 . S
H2276 C2286 0.930 . S
H2277 C2289 0.929 . S
H2278 C2292 0.930 . S
H2279 C2294 0.960 . S
H2280 C2294 0.960 . S
H2281 C2294 0.960 . S
C2282 H2274 0.929 . S
C2282 C2283 1.377 . S
C2282 C2284 1.384 . S
C2283 C2282 1.377 . S
C2283 C2289 1.390 . S
C2284 H2275 0.930 . S
C2284 C2282 1.384 . S
C2284 C2285 1.372 . S
C2285 C2284 1.372 . S
C2285 C2286 1.400 . S
C2285 C2290 1.490 . S
C2286 H2276 0.930 . S
C2286 C2285 1.400 . S
C2286 C2289 1.386 . S
H2287 C2303 0.930 . S
H2288 C2304 0.931 . S
C2289 H2277 0.929 . S
C2289 C2283 1.390 . S
C2289 C2286 1.386 . S
C2290 C2285 1.490 . S
C2290 C2292 1.395 . S
C2290 C2293 1.403 . S
H2291 C2297 0.930 . S
C2292 H2278 0.930 . S
C2292 C2290 1.395 . S
C2292 C2295 1.403 . S
C2293 C2290 1.403 . S
C2293 C2294 1.524 . S
C2293 C2297 1.400 . S
C2294 H2279 0.960 . S
C2294 H2280 0.960 . S
C2294 H2281 0.960 . S
C2294 C2293 1.524 . S
C2295 C2292 1.403 . S
C2295 C2296 1.392 . S
C2295 C2299 1.495 . S
C2296 C2295 1.392 . S
C2296 C2297 1.385 . S
C2296 C2298 1.478 . S
C2297 H2291 0.930 . S
C2297 C2293 1.400 . S
C2297 C2296 1.385 . S
C2298 C2296 1.478 . S
C2298 C2300 1.381 . S
C2298 C2304 1.383 . S
C2299 C2295 1.495 . S
C2299 H2305 0.959 . S
C2299 H2306 0.961 . S
C2299 H2307 0.960 . S
C2300 C2298 1.381 . S
C2300 C2301 1.394 . S
C2300 H2308 0.930 . S
C2301 C2300 1.394 . S
C2301 C2302 1.383 . S
C2301 H2309 0.929 . S
C2302 C2301 1.383 . S
C2302 C2303 1.377 . S
C2303 H2287 0.930 . S
C2303 C2302 1.377 . S
C2303 C2304 1.379 . S
C2304 H2288 0.931 . S
C2304 C2298 1.383 . S
C2304 C2303 1.379 . S
H2305 C2299 0.959 . S
H2306 C2299 0.961 . S
H2307 C2299 0.960 . S
H2308 C2300 0.930 . S
H2309 C2301 0.929 . S
H2310 C2318 0.929 . S
H2311 C2320 0.930 . S
H2312 C2322 0.930 . S
H2313 C2325 0.929 . S
H2314 C2328 0.930 . S
H2315 C2330 0.960 . S
H2316 C2330 0.960 . S
H2317 C2330 0.960 . S
C2318 H2310 0.929 . S
C2318 C2319 1.377 . S
C2318 C2320 1.384 . S
C2319 C2318 1.377 . S
C2319 C2325 1.390 . S
C2320 H2311 0.930 . S
C2320 C2318 1.384 . S
C2320 C2321 1.372 . S
C2321 C2320 1.372 . S
C2321 C2322 1.400 . S
C2321 C2326 1.490 . S
C2322 H2312 0.930 . S
C2322 C2321 1.400 . S
C2322 C2325 1.386 . S
H2323 C2339 0.930 . S
H2324 C2340 0.931 . S
C2325 H2313 0.929 . S
C2325 C2319 1.390 . S
C2325 C2322 1.386 . S
C2326 C2321 1.490 . S
C2326 C2328 1.395 . S
C2326 C2329 1.403 . S
H2327 C2333 0.930 . S
C2328 H2314 0.930 . S
C2328 C2326 1.395 . S
C2328 C2331 1.403 . S
C2329 C2326 1.403 . S
C2329 C2330 1.524 . S
C2329 C2333 1.400 . S
C2330 H2315 0.960 . S
C2330 H2316 0.960 . S
C2330 H2317 0.960 . S
C2330 C2329 1.524 . S
C2331 C2328 1.403 . S
C2331 C2332 1.392 . S
C2331 C2335 1.495 . S
C2332 C2331 1.392 . S
C2332 C2333 1.385 . S
C2332 C2334 1.478 . S
C2333 H2327 0.930 . S
C2333 C2329 1.400 . S
C2333 C2332 1.385 . S
C2334 C2332 1.478 . S
C2334 C2336 1.381 . S
C2334 C2340 1.383 . S
C2335 C2331 1.495 . S
C2335 H2341 0.959 . S
C2335 H2342 0.961 . S
C2335 H2343 0.960 . S
C2336 C2334 1.381 . S
C2336 C2337 1.394 . S
C2336 H2344 0.930 . S
C2337 C2336 1.394 . S
C2337 C2338 1.383 . S
C2337 H2345 0.929 . S
C2338 C2337 1.383 . S
C2338 C2339 1.377 . S
C2339 H2323 0.930 . S
C2339 C2338 1.377 . S
C2339 C2340 1.379 . S
C2340 H2324 0.931 . S
C2340 C2334 1.383 . S
C2340 C2339 1.379 . S
H2341 C2335 0.959 . S
H2342 C2335 0.961 . S
H2343 C2335 0.960 . S
H2344 C2336 0.930 . S
H2345 C2337 0.929 . S
H2346 C2354 0.929 . S
H2347 C2356 0.930 . S
H2348 C2358 0.930 . S
H2349 C2361 0.929 . S
H2350 C2364 0.930 . S
H2351 C2366 0.960 . S
H2352 C2366 0.960 . S
H2353 C2366 0.960 . S
C2354 H2346 0.929 . S
C2354 C2355 1.377 . S
C2354 C2356 1.384 . S
C2355 C2354 1.377 . S
C2355 C2361 1.390 . S
C2356 H2347 0.930 . S
C2356 C2354 1.384 . S
C2356 C2357 1.372 . S
C2357 C2356 1.372 . S
C2357 C2358 1.400 . S
C2357 C2362 1.490 . S
C2358 H2348 0.930 . S
C2358 C2357 1.400 . S
C2358 C2361 1.386 . S
H2359 C2375 0.930 . S
H2360 C2376 0.931 . S
C2361 H2349 0.929 . S
C2361 C2355 1.390 . S
C2361 C2358 1.386 . S
C2362 C2357 1.490 . S
C2362 C2364 1.395 . S
C2362 C2365 1.403 . S
H2363 C2369 0.930 . S
C2364 H2350 0.930 . S
C2364 C2362 1.395 . S
C2364 C2367 1.403 . S
C2365 C2362 1.403 . S
C2365 C2366 1.524 . S
C2365 C2369 1.400 . S
C2366 H2351 0.960 . S
C2366 H2352 0.960 . S
C2366 H2353 0.960 . S
C2366 C2365 1.524 . S
C2367 C2364 1.403 . S
C2367 C2368 1.392 . S
C2367 C2371 1.495 . S
C2368 C2367 1.392 . S
C2368 C2369 1.385 . S
C2368 C2370 1.478 . S
C2369 H2363 0.930 . S
C2369 C2365 1.400 . S
C2369 C2368 1.385 . S
C2370 C2368 1.478 . S
C2370 C2372 1.381 . S
C2370 C2376 1.383 . S
C2371 C2367 1.495 . S
C2371 H2377 0.959 . S
C2371 H2378 0.961 . S
C2371 H2379 0.960 . S
C2372 C2370 1.381 . S
C2372 C2373 1.394 . S
C2372 H2380 0.930 . S
C2373 C2372 1.394 . S
C2373 C2374 1.383 . S
C2373 H2381 0.929 . S
C2374 C2373 1.383 . S
C2374 C2375 1.377 . S
C2375 H2359 0.930 . S
C2375 C2374 1.377 . S
C2375 C2376 1.379 . S
C2376 H2360 0.931 . S
C2376 C2370 1.383 . S
C2376 C2375 1.379 . S
H2377 C2371 0.959 . S
H2378 C2371 0.961 . S
H2379 C2371 0.960 . S
H2380 C2372 0.930 . S
H2381 C2373 0.929 . S
H2382 C2390 0.929 . S
H2383 C2392 0.930 . S
H2384 C2394 0.930 . S
H2385 C2397 0.929 . S
H2386 C2400 0.930 . S
H2387 C2402 0.960 . S
H2388 C2402 0.960 . S
H2389 C2402 0.960 . S
C2390 H2382 0.929 . S
C2390 C2391 1.377 . S
C2390 C2392 1.384 . S
C2391 C2390 1.377 . S
C2391 C2397 1.390 . S
C2392 H2383 0.930 . S
C2392 C2390 1.384 . S
C2392 C2393 1.372 . S
C2393 C2392 1.372 . S
C2393 C2394 1.400 . S
C2393 C2398 1.490 . S
C2394 H2384 0.930 . S
C2394 C2393 1.400 . S
C2394 C2397 1.386 . S
H2395 C2411 0.930 . S
H2396 C2412 0.931 . S
C2397 H2385 0.929 . S
C2397 C2391 1.390 . S
C2397 C2394 1.386 . S
C2398 C2393 1.490 . S
C2398 C2400 1.395 . S
C2398 C2401 1.403 . S
H2399 C2405 0.930 . S
C2400 H2386 0.930 . S
C2400 C2398 1.395 . S
C2400 C2403 1.403 . S
C2401 C2398 1.403 . S
C2401 C2402 1.524 . S
C2401 C2405 1.400 . S
C2402 H2387 0.960 . S
C2402 H2388 0.960 . S
C2402 H2389 0.960 . S
C2402 C2401 1.524 . S
C2403 C2400 1.403 . S
C2403 C2404 1.392 . S
C2403 C2407 1.495 . S
C2404 C2403 1.392 . S
C2404 C2405 1.385 . S
C2404 C2406 1.478 . S
C2405 H2399 0.930 . S
C2405 C2401 1.400 . S
C2405 C2404 1.385 . S
C2406 C2404 1.478 . S
C2406 C2408 1.381 . S
C2406 C2412 1.383 . S
C2407 C2403 1.495 . S
C2407 H2413 0.959 . S
C2407 H2414 0.961 . S
C2407 H2415 0.960 . S
C2408 C2406 1.381 . S
C2408 C2409 1.394 . S
C2408 H2416 0.930 . S
C2409 C2408 1.394 . S
C2409 C2410 1.383 . S
C2409 H2417 0.929 . S
C2410 C2409 1.383 . S
C2410 C2411 1.377 . S
C2411 H2395 0.930 . S
C2411 C2410 1.377 . S
C2411 C2412 1.379 . S
C2412 H2396 0.931 . S
C2412 C2406 1.383 . S
C2412 C2411 1.379 . S
H2413 C2407 0.959 . S
H2414 C2407 0.961 . S
H2415 C2407 0.960 . S
H2416 C2408 0.930 . S
H2417 C2409 0.929 . S
H2418 C2426 0.929 . S
H2419 C2428 0.930 . S
H2420 C2430 0.930 . S
H2421 C2433 0.929 . S
H2422 C2436 0.930 . S
H2423 C2438 0.960 . S
H2424 C2438 0.960 . S
H2425 C2438 0.960 . S
C2426 H2418 0.929 . S
C2426 C2427 1.377 . S
C2426 C2428 1.384 . S
C2427 C2426 1.377 . S
C2427 C2433 1.390 . S
C2428 H2419 0.930 . S
C2428 C2426 1.384 . S
C2428 C2429 1.372 . S
C2429 C2428 1.372 . S
C2429 C2430 1.400 . S
C2429 C2434 1.490 . S
C2430 H2420 0.930 . S
C2430 C2429 1.400 . S
C2430 C2433 1.386 . S
H2431 C2447 0.930 . S
H2432 C2448 0.931 . S
C2433 H2421 0.929 . S
C2433 C2427 1.390 . S
C2433 C2430 1.386 . S
C2434 C2429 1.490 . S
C2434 C2436 1.395 . S
C2434 C2437 1.403 . S
H2435 C2441 0.930 . S
C2436 H2422 0.930 . S
C2436 C2434 1.395 . S
C2436 C2439 1.403 . S
C2437 C2434 1.403 . S
C2437 C2438 1.524 . S
C2437 C2441 1.400 . S
C2438 H2423 0.960 . S
C2438 H2424 0.960 . S
C2438 H2425 0.960 . S
C2438 C2437 1.524 . S
C2439 C2436 1.403 . S
C2439 C2440 1.392 . S
C2439 C2443 1.495 . S
C2440 C2439 1.392 . S
C2440 C2441 1.385 . S
C2440 C2442 1.478 . S
C2441 H2435 0.930 . S
C2441 C2437 1.400 . S
C2441 C2440 1.385 . S
C2442 C2440 1.478 . S
C2442 C2444 1.381 . S
C2442 C2448 1.383 . S
C2443 C2439 1.495 . S
C2443 H2449 0.959 . S
C2443 H2450 0.961 . S
C2443 H2451 0.960 . S
C2444 C2442 1.381 . S
C2444 C2445 1.394 . S
C2444 H2452 0.930 . S
C2445 C2444 1.394 . S
C2445 C2446 1.383 . S
C2445 H2453 0.929 . S
C2446 C2445 1.383 . S
C2446 C2447 1.377 . S
C2447 H2431 0.930 . S
C2447 C2446 1.377 . S
C2447 C2448 1.379 . S
C2448 H2432 0.931 . S
C2448 C2442 1.383 . S
C2448 C2447 1.379 . S
H2449 C2443 0.959 . S
H2450 C2443 0.961 . S
H2451 C2443 0.960 . S
H2452 C2444 0.930 . S
H2453 C2445 0.929 . S
H2454 C2462 0.929 . S
H2455 C2464 0.930 . S
H2456 C2466 0.930 . S
H2457 C2469 0.929 . S
H2458 C2472 0.930 . S
H2459 C2474 0.960 . S
H2460 C2474 0.960 . S
H2461 C2474 0.960 . S
C2462 H2454 0.929 . S
C2462 C2463 1.377 . S
C2462 C2464 1.384 . S
C2463 C2462 1.377 . S
C2463 C2469 1.390 . S
C2464 H2455 0.930 . S
C2464 C2462 1.384 . S
C2464 C2465 1.372 . S
C2465 C2464 1.372 . S
C2465 C2466 1.400 . S
C2465 C2470 1.490 . S
C2466 H2456 0.930 . S
C2466 C2465 1.400 . S
C2466 C2469 1.386 . S
H2467 C2483 0.930 . S
H2468 C2484 0.931 . S
C2469 H2457 0.929 . S
C2469 C2463 1.390 . S
C2469 C2466 1.386 . S
C2470 C2465 1.490 . S
C2470 C2472 1.395 . S
C2470 C2473 1.403 . S
H2471 C2477 0.930 . S
C2472 H2458 0.930 . S
C2472 C2470 1.395 . S
C2472 C2475 1.403 . S
C2473 C2470 1.403 . S
C2473 C2474 1.524 . S
C2473 C2477 1.400 . S
C2474 H2459 0.960 . S
C2474 H2460 0.960 . S
C2474 H2461 0.960 . S
C2474 C2473 1.524 . S
C2475 C2472 1.403 . S
C2475 C2476 1.392 . S
C2475 C2479 1.495 . S
C2476 C2475 1.392 . S
C2476 C2477 1.385 . S
C2476 C2478 1.478 . S
C2477 H2471 0.930 . S
C2477 C2473 1.400 . S
C2477 C2476 1.385 . S
C2478 C2476 1.478 . S
C2478 C2480 1.381 . S
C2478 C2484 1.383 . S
C2479 C2475 1.495 . S
C2479 H2485 0.959 . S
C2479 H2486 0.961 . S
C2479 H2487 0.960 . S
C2480 C2478 1.381 . S
C2480 C2481 1.394 . S
C2480 H2488 0.930 . S
C2481 C2480 1.394 . S
C2481 C2482 1.383 . S
C2481 H2489 0.929 . S
C2482 C2481 1.383 . S
C2482 C2483 1.377 . S
C2483 H2467 0.930 . S
C2483 C2482 1.377 . S
C2483 C2484 1.379 . S
C2484 H2468 0.931 . S
C2484 C2478 1.383 . S
C2484 C2483 1.379 . S
H2485 C2479 0.959 . S
H2486 C2479 0.961 . S
H2487 C2479 0.960 . S
H2488 C2480 0.930 . S
H2489 C2481 0.929 . S
H2490 C2498 0.929 . S
H2491 C2500 0.930 . S
H2492 C2502 0.930 . S
H2493 C2505 0.929 . S
H2494 C2508 0.930 . S
H2495 C2510 0.960 . S
H2496 C2510 0.960 . S
H2497 C2510 0.960 . S
C2498 H2490 0.929 . S
C2498 C2499 1.377 . S
C2498 C2500 1.384 . S
C2499 C2498 1.377 . S
C2499 C2505 1.390 . S
C2500 H2491 0.930 . S
C2500 C2498 1.384 . S
C2500 C2501 1.372 . S
C2501 C2500 1.372 . S
C2501 C2502 1.400 . S
C2501 C2506 1.490 . S
C2502 H2492 0.930 . S
C2502 C2501 1.400 . S
C2502 C2505 1.386 . S
H2503 C2519 0.930 . S
H2504 C2520 0.931 . S
C2505 H2493 0.929 . S
C2505 C2499 1.390 . S
C2505 C2502 1.386 . S
C2506 C2501 1.490 . S
C2506 C2508 1.395 . S
C2506 C2509 1.403 . S
H2507 C2513 0.930 . S
C2508 H2494 0.930 . S
C2508 C2506 1.395 . S
C2508 C2511 1.403 . S
C2509 C2506 1.403 . S
C2509 C2510 1.524 . S
C2509 C2513 1.400 . S
C2510 H2495 0.960 . S
C2510 H2496 0.960 . S
C2510 H2497 0.960 . S
C2510 C2509 1.524 . S
C2511 C2508 1.403 . S
C2511 C2512 1.392 . S
C2511 C2515 1.495 . S
C2512 C2511 1.392 . S
C2512 C2513 1.385 . S
C2512 C2514 1.478 . S
C2513 H2507 0.930 . S
C2513 C2509 1.400 . S
C2513 C2512 1.385 . S
C2514 C2512 1.478 . S
C2514 C2516 1.381 . S
C2514 C2520 1.383 . S
C2515 C2511 1.495 . S
C2515 H2521 0.959 . S
C2515 H2522 0.961 . S
C2515 H2523 0.960 . S
C2516 C2514 1.381 . S
C2516 C2517 1.394 . S
C2516 H2524 0.930 . S
C2517 C2516 1.394 . S
C2517 C2518 1.383 . S
C2517 H2525 0.929 . S
C2518 C2517 1.383 . S
C2518 C2519 1.377 . S
C2519 H2503 0.930 . S
C2519 C2518 1.377 . S
C2519 C2520 1.379 . S
C2520 H2504 0.931 . S
C2520 C2514 1.383 . S
C2520 C2519 1.379 . S
H2521 C2515 0.959 . S
H2522 C2515 0.961 . S
H2523 C2515 0.960 . S
H2524 C2516 0.930 . S
H2525 C2517 0.929 . S
H2526 C2534 0.929 . S
H2527 C2536 0.930 . S
H2528 C2538 0.930 . S
H2529 C2541 0.929 . S
H2530 C2544 0.930 . S
H2531 C2546 0.960 . S
H2532 C2546 0.960 . S
H2533 C2546 0.960 . S
C2534 H2526 0.929 . S
C2534 C2535 1.377 . S
C2534 C2536 1.384 . S
C2535 C2534 1.377 . S
C2535 C2541 1.390 . S
C2536 H2527 0.930 . S
C2536 C2534 1.384 . S
C2536 C2537 1.372 . S
C2537 C2536 1.372 . S
C2537 C2538 1.400 . S
C2537 C2542 1.490 . S
C2538 H2528 0.930 . S
C2538 C2537 1.400 . S
C2538 C2541 1.386 . S
H2539 C2555 0.930 . S
H2540 C2556 0.931 . S
C2541 H2529 0.929 . S
C2541 C2535 1.390 . S
C2541 C2538 1.386 . S
C2542 C2537 1.490 . S
C2542 C2544 1.395 . S
C2542 C2545 1.403 . S
H2543 C2549 0.930 . S
C2544 H2530 0.930 . S
C2544 C2542 1.395 . S
C2544 C2547 1.403 . S
C2545 C2542 1.403 . S
C2545 C2546 1.524 . S
C2545 C2549 1.400 . S
C2546 H2531 0.960 . S
C2546 H2532 0.960 . S
C2546 H2533 0.960 . S
C2546 C2545 1.524 . S
C2547 C2544 1.403 . S
C2547 C2548 1.392 . S
C2547 C2551 1.495 . S
C2548 C2547 1.392 . S
C2548 C2549 1.385 . S
C2548 C2550 1.478 . S
C2549 H2543 0.930 . S
C2549 C2545 1.400 . S
C2549 C2548 1.385 . S
C2550 C2548 1.478 . S
C2550 C2552 1.381 . S
C2550 C2556 1.383 . S
C2551 C2547 1.495 . S
C2551 H2557 0.959 . S
C2551 H2558 0.961 . S
C2551 H2559 0.960 . S
C2552 C2550 1.381 . S
C2552 C2553 1.394 . S
C2552 H2560 0.930 . S
C2553 C2552 1.394 . S
C2553 C2554 1.383 . S
C2553 H2561 0.929 . S
C2554 C2553 1.383 . S
C2554 C2555 1.377 . S
C2555 H2539 0.930 . S
C2555 C2554 1.377 . S
C2555 C2556 1.379 . S
C2556 H2540 0.931 . S
C2556 C2550 1.383 . S
C2556 C2555 1.379 . S
H2557 C2551 0.959 . S
H2558 C2551 0.961 . S
H2559 C2551 0.960 . S
H2560 C2552 0.930 . S
H2561 C2553 0.929 . S
H2562 C2570 0.929 . S
H2563 C2572 0.930 . S
H2564 C2574 0.930 . S
H2565 C2577 0.929 . S
H2566 C2580 0.930 . S
H2567 C2582 0.960 . S
H2568 C2582 0.960 . S
H2569 C2582 0.960 . S
C2570 H2562 0.929 . S
C2570 C2571 1.377 . S
C2570 C2572 1.384 . S
C2571 C2570 1.377 . S
C2571 C2577 1.390 . S
C2572 H2563 0.930 . S
C2572 C2570 1.384 . S
C2572 C2573 1.372 . S
C2573 C2572 1.372 . S
C2573 C2574 1.400 . S
C2573 C2578 1.490 . S
C2574 H2564 0.930 . S
C2574 C2573 1.400 . S
C2574 C2577 1.386 . S
H2575 C2591 0.930 . S
H2576 C2592 0.931 . S
C2577 H2565 0.929 . S
C2577 C2571 1.390 . S
C2577 C2574 1.386 . S
C2578 C2573 1.490 . S
C2578 C2580 1.395 . S
C2578 C2581 1.403 . S
H2579 C2585 0.930 . S
C2580 H2566 0.930 . S
C2580 C2578 1.395 . S
C2580 C2583 1.403 . S
C2581 C2578 1.403 . S
C2581 C2582 1.524 . S
C2581 C2585 1.400 . S
C2582 H2567 0.960 . S
C2582 H2568 0.960 . S
C2582 H2569 0.960 . S
C2582 C2581 1.524 . S
C2583 C2580 1.403 . S
C2583 C2584 1.392 . S
C2583 C2587 1.495 . S
C2584 C2583 1.392 . S
C2584 C2585 1.385 . S
C2584 C2586 1.478 . S
C2585 H2579 0.930 . S
C2585 C2581 1.400 . S
C2585 C2584 1.385 . S
C2586 C2584 1.478 . S
C2586 C2588 1.381 . S
C2586 C2592 1.383 . S
C2587 C2583 1.495 . S
C2587 H2593 0.959 . S
C2587 H2594 0.961 . S
C2587 H2595 0.960 . S
C2588 C2586 1.381 . S
C2588 C2589 1.394 . S
C2588 H2596 0.930 . S
C2589 C2588 1.394 . S
C2589 C2590 1.383 . S
C2589 H2597 0.929 . S
C2590 C2589 1.383 . S
C2590 C2591 1.377 . S
C2591 H2575 0.930 . S
C2591 C2590 1.377 . S
C2591 C2592 1.379 . S
C2592 H2576 0.931 . S
C2592 C2586 1.383 . S
C2592 C2591 1.379 . S
H2593 C2587 0.959 . S
H2594 C2587 0.961 . S
H2595 C2587 0.960 . S
H2596 C2588 0.930 . S
H2597 C2589 0.929 . S
C898 C699 1.125 . S
C879 C74 1.197 . S
C934 C700 0.516 . S
C915 C142 0.709 . S
C970 C694 1.112 . S
C951 C231 1.088 . S
C987 C322 1.163 . S
C1006 C693 1.283 . S
C1023 C406 0.706 . S
C1042 C696 0.485 . S
C1078 C698 1.082 . S
C1059 C494 1.085 . S
C1095 C562 1.162 . S
C1114 C697 1.263 . S
C1131 C651 1.193 . S
C1150 C695 1.191 . S
C1186 C730 1.692 . S
C1167 C58 1.555 . S
C1203 C151 1.541 . S
C1222 C761 1.535 . S
C1258 C729 2.527 . S
C1239 C224 2.427 . S
C1294 C764 1.105 . S
C1275 C315 1.041 . S
C1311 C399 1.362 . S
C1330 C727 1.418 . S
C1366 C759 1.639 . S
C1347 C478 1.521 . S
C1383 C571 1.151 . S
C1402 C732 1.152 . S
C1419 C644 2.470 . S
C1438 C766 2.517 . S
C1455 C67 2.470 . S
C1474 C762 2.546 . S
C1491 C392 1.539 . S
C1510 C765 1.488 . S
C1546 C733 2.502 . S
C1527 C487 2.434 . S
C1582 C760 1.107 . S
C1563 C578 1.031 . S
C1599 C658 1.542 . S
C1618 C726 1.686 . S
C1635 C238 1.520 . S
C1654 C763 1.660 . S
C1690 C728 1.198 . S
C1671 C308 1.140 . S
C1707 C158 1.374 . S
C1726 C731 1.412 . S
C1743 C662 1.137 . S
C1762 C798 1.059 . S
C1779 C394 0.917 . S
C1798 C799 0.490 . S
C1834 C793 1.241 . S
C1815 C483 1.246 . S
C1870 C792 1.718 . S
C1851 C574 1.533 . S
C1887 C154 0.938 . S
C1906 C795 0.531 . S
C1942 C797 1.240 . S
C1923 C242 1.254 . S
C1959 C310 1.532 . S
C1978 C796 1.737 . S
C1995 C63 1.130 . S
C2014 C794 1.070 . S
C2031 C646 1.619 . S
C2050 C832 1.719 . S
C2086 C864 1.051 . S
C2067 C403 1.111 . S
C2103 C476 2.322 . S
C2122 C825 2.452 . S
C2139 C567 1.373 . S
C2158 C859 1.452 . S
C2194 C830 1.158 . S
C2175 C147 1.063 . S
C2211 C226 1.710 . S
C2230 C861 1.781 . S
C2266 C827 1.451 . S
C2247 C319 1.455 . S
C2302 C862 2.453 . S
C2283 C56 2.272 . S
C2338 C858 2.453 . S
C2319 C655 2.273 . S
C2355 C140 1.113 . S
C2374 C860 1.053 . S
C2391 C235 2.323 . S
C2410 C829 2.453 . S
C2446 C863 1.418 . S
C2427 C326 1.373 . S
C2463 C70 1.615 . S
C2482 C828 1.731 . S
C2499 C490 1.713 . S
C2518 C865 1.797 . S
C2554 C831 1.409 . S
C2535 C560 1.457 . S
C2590 C826 1.165 . S
C2571 C410 1.062 . S
