# Generated by pormake.
# Topology zzz, (3,6)-cn, num edge types: 1
# Building blocks:
#     Node 0, Type 0, BuildingBlock: WUSLED_clean_sbu_0, # of connection points: 3
#     Node 1, Type 0, BuildingBlock: WUSLED_clean_sbu_0, # of connection points: 3
#     Node 2, Type 0, BuildingBlock: WUSLED_clean_sbu_0, # of connection points: 3
#     Node 3, Type 0, BuildingBlock: WUSLED_clean_sbu_0, # of connection points: 3
#     Node 4, Type 0, BuildingBlock: WUSLED_clean_sbu_0, # of connection points: 3
#     Node 5, Type 0, BuildingBlock: WUSLED_clean_sbu_0, # of connection points: 3
#     Node 6, Type 0, BuildingBlock: WUSLED_clean_sbu_0, # of connection points: 3
#     Node 7, Type 0, BuildingBlock: WUSLED_clean_sbu_0, # of connection points: 3
#     Node 8, Type 1, BuildingBlock: PAMTOO_clean_sbu_0, # of connection points: 6
#     Node 9, Type 1, BuildingBlock: PAMTOO_clean_sbu_0, # of connection points: 6
#     Node 10, Type 1, BuildingBlock: PAMTOO_clean_sbu_0, # of connection points: 6
#     Node 11, Type 1, BuildingBlock: PAMTOO_clean_sbu_0, # of connection points: 6
#     Edge 12, Type (0, 1), BuildingBlock: AJUNOK_clean_linker_0, # of connection points: 2
#     Edge 13, Type (0, 1), BuildingBlock: AJUNOK_clean_linker_0, # of connection points: 2
#     Edge 14, Type (0, 1), BuildingBlock: AJUNOK_clean_linker_0, # of connection points: 2
#     Edge 15, Type (0, 1), BuildingBlock: AJUNOK_clean_linker_0, # of connection points: 2
#     Edge 16, Type (0, 1), BuildingBlock: AJUNOK_clean_linker_0, # of connection points: 2
#     Edge 17, Type (0, 1), BuildingBlock: AJUNOK_clean_linker_0, # of connection points: 2
#     Edge 18, Type (0, 1), BuildingBlock: AJUNOK_clean_linker_0, # of connection points: 2
#     Edge 19, Type (0, 1), BuildingBlock: AJUNOK_clean_linker_0, # of connection points: 2
#     Edge 20, Type (0, 1), BuildingBlock: AJUNOK_clean_linker_0, # of connection points: 2
#     Edge 21, Type (0, 1), BuildingBlock: AJUNOK_clean_linker_0, # of connection points: 2
#     Edge 22, Type (0, 1), BuildingBlock: AJUNOK_clean_linker_0, # of connection points: 2
#     Edge 23, Type (0, 1), BuildingBlock: AJUNOK_clean_linker_0, # of connection points: 2
#     Edge 24, Type (0, 1), BuildingBlock: AJUNOK_clean_linker_0, # of connection points: 2
#     Edge 25, Type (0, 1), BuildingBlock: AJUNOK_clean_linker_0, # of connection points: 2
#     Edge 26, Type (0, 1), BuildingBlock: AJUNOK_clean_linker_0, # of connection points: 2
#     Edge 27, Type (0, 1), BuildingBlock: AJUNOK_clean_linker_0, # of connection points: 2
#     Edge 28, Type (0, 1), BuildingBlock: AJUNOK_clean_linker_0, # of connection points: 2
#     Edge 29, Type (0, 1), BuildingBlock: AJUNOK_clean_linker_0, # of connection points: 2
#     Edge 30, Type (0, 1), BuildingBlock: AJUNOK_clean_linker_0, # of connection points: 2
#     Edge 31, Type (0, 1), BuildingBlock: AJUNOK_clean_linker_0, # of connection points: 2
#     Edge 32, Type (0, 1), BuildingBlock: AJUNOK_clean_linker_0, # of connection points: 2
#     Edge 33, Type (0, 1), BuildingBlock: AJUNOK_clean_linker_0, # of connection points: 2
#     Edge 34, Type (0, 1), BuildingBlock: AJUNOK_clean_linker_0, # of connection points: 2
#     Edge 35, Type (0, 1), BuildingBlock: AJUNOK_clean_linker_0, # of connection points: 2
# Relax obj value: 0.352
# Max RMSD: 0.275
# Mean RMSD: 0.215
data_MOF--net-zzz--node1-WUSLED_clean_sbu_0--node2-PAMTOO_clean_sbu_0--edge1-AJUNOK_clean_linker_0
_symmetry_space_group_name_H-M    P1
_symmetry_Int_Tables_number       1
_symmetry_cell_setting            triclinic
loop_
_symmetry_equiv_pos_as_xyz
'x, y, z'
_cell_length_a     55.872916
_cell_length_b     47.88264
_cell_length_c     17.884783
_cell_angle_alpha  91.664488
_cell_angle_beta   80.083162
_cell_angle_gamma 84.421794
loop_
_atom_site_label
_atom_site_type_symbol
_atom_site_fract_x
_atom_site_fract_y
_atom_site_fract_z
_atom_type_partial_charge
C0 C 0.83231 0.49723 0.55045 0.0
C1 C 0.8552 0.48837 0.50519 0.0
C2 C 0.87679 0.50123 0.60769 0.0
C3 C 0.87705 0.49027 0.53346 0.0
C4 C 0.8539 0.50999 0.6529 0.0
C5 C 0.83205 0.50803 0.62472 0.0
U6 U 0.78526 0.51423 0.41689 0.0
O7 O 0.74476 0.52103 0.43649 0.0
O8 O 0.76402 0.48534 0.36399 0.0
C9 C 0.74289 0.49995 0.38963 0.0
C10 C 0.80868 0.49389 0.52324 0.0
C11 C 0.726 0.50489 0.33377 0.0
C12 C 0.68478 0.5049 0.30434 0.0
C13 C 0.70088 0.50301 0.35688 0.0
C14 C 0.7185 0.51109 0.204 0.0
C15 C 0.6933 0.50883 0.22688 0.0
C16 C 0.73461 0.50918 0.25668 0.0
C17 C 0.83464 0.55579 0.33046 0.0
C18 C 0.87454 0.5562 0.25284 0.0
C19 C 0.87116 0.54729 0.38673 0.0
C20 C 0.84571 0.55091 0.39444 0.0
C21 C 0.88579 0.54825 0.31484 0.0
C22 C 0.84916 0.56002 0.26076 0.0
C23 C 0.80964 0.54882 0.33108 0.0
O24 O 0.79178 0.51546 0.53561 0.0
O25 O 0.81001 0.48125 0.45615 0.0
O26 O 0.80885 0.52244 0.31037 0.0
O27 O 0.79342 0.55748 0.39168 0.0
H28 H 0.85632 0.47967 0.44799 0.0
H29 H 0.89419 0.48259 0.4975 0.0
H30 H 0.85286 0.51852 0.71025 0.0
H31 H 0.81482 0.51478 0.66155 0.0
H32 H 0.66558 0.50321 0.32445 0.0
H33 H 0.6937 0.49951 0.41571 0.0
H34 H 0.72595 0.51353 0.14482 0.0
H35 H 0.75389 0.51046 0.23677 0.0
H36 H 0.88511 0.55649 0.19618 0.0
H37 H 0.87931 0.54134 0.43542 0.0
H38 H 0.83476 0.54734 0.44879 0.0
H39 H 0.84096 0.56337 0.21064 0.0
C40 C 0.02177 0.78373 0.51485 0.0
C41 C 0.03437 0.80469 0.47641 0.0
C42 C 0.01885 0.83892 0.58185 0.0
C43 C 0.03283 0.8319 0.50932 0.0
C44 C 1.00612 0.81804 0.62005 0.0
C45 C 1.00767 0.7908 0.58715 0.0
U46 U 1.00671 0.72959 0.37084 0.0
O47 O 0.99812 0.6856 0.37843 0.0
O48 O 0.03173 0.69563 0.3058 0.0
C49 C 0.01717 0.67625 0.32663 0.0
C50 C 0.02366 0.7545 0.48114 0.0
C51 C 1.01317 0.65715 0.26414 0.0
C52 C 0.02978 0.61937 0.16983 0.0
C53 C 0.03257 0.63768 0.22939 0.0
C54 C 0.98794 0.63954 0.17816 0.0
C55 C 1.00745 0.61998 0.14332 0.0
C56 C 0.99079 0.65803 0.23782 0.0
C57 C 0.9751 0.79413 0.30602 0.0
C58 C 0.96761 0.83762 0.24441 0.0
C59 C 0.98579 0.83766 0.35815 0.0
C60 C 0.98381 0.80892 0.36296 0.0
C61 C 0.97867 0.85195 0.29692 0.0
C62 C 0.96599 0.80878 0.24866 0.0
C63 C 0.98026 0.76354 0.29805 0.0
O64 O 1.00369 0.74158 0.49264 0.0
O65 O 0.03602 0.74993 0.41164 0.0
O66 O 1.00343 0.75523 0.2729 0.0
O67 O 0.97068 0.74954 0.356 0.0
H68 H 0.04548 0.80016 0.42074 0.0
H69 H 0.0429 0.8474 0.47828 0.0
H70 H 0.99475 0.8228 0.67523 0.0
H71 H 0.99778 0.7752 0.61844 0.0
H72 H 0.04522 0.60474 0.14416 0.0
H73 H 0.05002 0.63665 0.24837 0.0
H74 H 0.97034 0.64022 0.16028 0.0
H75 H 0.97552 0.67289 0.26345 0.0
H76 H 0.96236 0.84812 0.19595 0.0
H77 H 0.9945 0.84826 0.39892 0.0
H78 H 0.99089 0.79779 0.40756 0.0
H79 H 0.95943 0.79761 0.20395 0.0
C80 C 0.71686 0.98524 0.45409 0.0
C81 C 0.70209 0.01109 0.4665 0.0
C82 C 0.66719 0.98806 0.53035 0.0
C83 C 0.67759 0.01247 0.50411 0.0
C84 C 0.68211 0.96231 0.51781 0.0
C85 C 0.70648 0.96095 0.48018 0.0
U86 U 0.77391 0.99827 0.30132 0.0
O87 O 0.81124 0.00597 0.31573 0.0
O88 O 0.80545 0.96759 0.25495 0.0
C89 C 0.82153 0.98345 0.27419 0.0
C90 C 0.74343 0.9829 0.41955 0.0
C91 C 0.84279 0.98716 0.2137 0.0
C92 C 0.88471 0.9718 0.1519 0.0
C93 C 0.86442 0.96909 0.20872 0.0
C94 C 0.86224 0.01087 0.1035 0.0
C95 C 0.88398 0.99267 0.09823 0.0
C96 C 0.84187 0.00809 0.16039 0.0
C97 C 0.7302 0.0396 0.19441 0.0
C98 C 0.70297 0.0607 0.11536 0.0
C99 C 0.68635 0.04185 0.23554 0.0
C100 C 0.71001 0.03435 0.24858 0.0
C101 C 0.68263 0.05465 0.16814 0.0
C102 C 0.72659 0.05326 0.12857 0.0
C103 C 0.75493 0.02878 0.20268 0.0
O104 O 0.7503 0.96744 0.3561 0.0
O105 O 0.75494 0.00559 0.42032 0.0
O106 O 0.7632 0.03972 0.26025 0.0
O107 O 0.75938 1.0013 0.19516 0.0
H108 H 0.70948 0.0303 0.4478 0.0
H109 H 0.66675 0.03268 0.5125 0.0
H110 H 0.67516 0.94315 0.53873 0.0
H111 H 0.71743 0.94078 0.47273 0.0
H112 H 0.90094 0.95725 0.14925 0.0
H113 H 0.86563 0.95269 0.2488 0.0
H114 H 0.86105 0.02752 0.06421 0.0
H115 H 0.82542 0.02233 0.16282 0.0
H116 H 0.70067 0.06986 0.06207 0.0
H117 H 0.67097 0.03687 0.27691 0.0
H118 H 0.7126 0.02358 0.29946 0.0
H119 H 0.74205 0.05719 0.08598 0.0
C120 C 0.52319 0.69647 0.41272 0.0
C121 C 0.52985 0.67022 0.37334 0.0
C122 C 0.52165 0.646 0.49244 0.0
C123 C 0.52895 0.6452 0.41285 0.0
C124 C 0.51422 0.67227 0.53087 0.0
C125 C 0.51503 0.69712 0.49155 0.0
U126 U 0.52138 0.75107 0.25253 0.0
O127 O 0.5102 0.79656 0.26948 0.0
O128 O 0.54807 0.78167 0.22007 0.0
C129 C 0.5316 0.80347 0.23668 0.0
C130 C 0.52625 0.72361 0.37571 0.0
C131 C 0.53157 0.82502 0.17846 0.0
C132 C 0.54974 0.86474 0.11703 0.0
C133 C 0.54958 0.84378 0.17035 0.0
C134 C 0.51373 0.84869 0.07891 0.0
C135 C 0.53189 0.86744 0.07024 0.0
C136 C 0.51365 0.82765 0.13204 0.0
C137 C 0.49963 0.69807 0.11788 0.0
C138 C 0.49201 0.66684 0.01747 0.0
C139 C 0.49336 0.64945 0.14276 0.0
C140 C 0.49781 0.67612 0.16822 0.0
C141 C 0.4909 0.64443 0.06657 0.0
C142 C 0.49632 0.69337 0.04294 0.0
C143 C 0.50633 0.72562 0.1399 0.0
O144 O 0.54394 0.72404 0.31691 0.0
O145 O 0.50626 0.73943 0.3685 0.0
O146 O 0.49139 0.74002 0.19567 0.0
O147 O 0.5295 0.7265 0.14397 0.0
H148 H 0.53623 0.66905 0.3125 0.0
H149 H 0.53466 0.62528 0.38154 0.0
H150 H 0.50795 0.67365 0.59177 0.0
H151 H 0.50978 0.71703 0.5233 0.0
H152 H 0.56402 0.8787 0.11193 0.0
H153 H 0.56357 0.84226 0.20557 0.0
H154 H 0.49933 0.85051 0.04533 0.0
H155 H 0.49946 0.81358 0.13718 0.0
H156 H 0.49046 0.66362 0.95835 0.0
H157 H 0.49222 0.6327 0.18222 0.0
H158 H 0.5003 0.67947 0.22644 0.0
H159 H 0.49775 0.71009 1.00334 0.0
C160 C 0.20377 0.47381 0.95787 0.0
C161 C 0.18267 0.46956 1.01008 0.0
C162 C 0.15715 0.47571 0.91148 0.0
C163 C 0.15969 0.47048 0.98719 0.0
C164 C 0.17835 0.48014 0.85972 0.0
C165 C 0.20128 0.47913 0.88255 0.0
U166 U 0.24593 0.48063 0.10691 0.0
O167 O 0.27905 0.50284 0.10249 0.0
O168 O 0.28117 0.45758 0.11837 0.0
C169 C 0.29245 0.48045 0.11861 0.0
C170 C 0.22837 0.47324 0.98039 0.0
C171 C 0.30679 0.48413 0.18086 0.0
C172 C 0.344 0.49733 0.22132 0.0
C173 C 0.32974 0.49443 0.1645 0.0
C174 C 0.31266 0.4797 0.31278 0.0
C175 C 0.33572 0.49001 0.29644 0.0
C176 C 0.29832 0.47694 0.25589 0.0
C177 C 0.21635 0.49858 0.31373 0.0
C178 C 0.22492 0.533 0.40547 0.0
C179 C 0.19545 0.49993 0.44396 0.0
C180 C 0.20034 0.48733 0.37108 0.0
C181 C 0.20626 0.52426 0.46 0.0
C182 C 0.22999 0.52016 0.33246 0.0
C183 C 0.21522 0.49098 0.23438 0.0
O184 O 0.23446 0.49746 1.00338 0.0
O185 O 0.23479 0.45248 0.0219 0.0
O186 O 0.22403 0.46532 0.2093 0.0
O187 O 0.22082 0.51026 0.1854 0.0
H188 H 0.18393 0.46572 0.06873 0.0
H189 H 0.14381 0.46763 0.02928 0.0
H190 H 0.17725 0.4842 0.80107 0.0
H191 H 0.21716 0.48258 0.84108 0.0
H192 H 0.36178 0.50482 0.20595 0.0
H193 H 0.33681 0.50002 0.10722 0.0
H194 H 0.30559 0.47395 0.36988 0.0
H195 H 0.28067 0.46904 0.27049 0.0
H196 H 0.23369 0.55148 0.41681 0.0
H197 H 0.18096 0.4927 0.48481 0.0
H198 H 0.18989 0.47048 0.35791 0.0
H199 H 0.24293 0.52874 0.28921 0.0
C200 C 0.01625 0.23277 0.99501 0.0
C201 C 0.03823 0.21649 0.96338 0.0
C202 C 0.01605 0.17674 0.93769 0.0
C203 C 0.03811 0.18887 0.93526 0.0
C204 C 0.99406 0.19314 0.96801 0.0
C205 C 0.99416 0.22077 0.99632 0.0
U206 U 0.02726 0.28489 0.14944 0.0
O207 O 1.00514 0.32394 0.19723 0.0
O208 O 0.04346 0.32517 0.14484 0.0
C209 C 0.02372 0.33906 0.18506 0.0
C210 C 0.0161 0.26212 0.02593 0.0
C211 C 0.02727 0.35618 0.25176 0.0
C212 C 0.02007 0.40082 0.32513 0.0
C213 C 0.01837 0.38474 0.2598 0.0
C214 C 0.04015 0.36015 0.37476 0.0
C215 C 0.03063 0.38864 0.38407 0.0
C216 C 0.03838 0.34406 0.30947 0.0
C217 C 0.04256 0.2178 0.242 0.0
C218 C 0.04172 0.17528 0.31156 0.0
C219 C 0.03517 0.1742 0.18097 0.0
C220 C 0.03836 0.20277 0.17771 0.0
C221 C 0.03601 0.16044 0.2489 0.0
C222 C 0.04492 0.20376 0.30813 0.0
C223 C 0.04116 0.2485 0.24369 0.0
O224 O 0.99982 0.26983 0.08715 0.0
O225 O 0.03746 0.27116 0.02851 0.0
O226 O 0.05665 0.25929 0.19136 0.0
O227 O 0.01877 0.26082 0.25137 0.0
H228 H 0.0556 0.225 0.96049 0.0
H229 H 0.05535 0.17708 0.91073 0.0
H230 H 0.97676 0.18447 0.97069 0.0
H231 H 0.97689 0.23276 0.01954 0.0
H232 H 1.01248 0.42263 0.3305 0.0
H233 H 1.00965 0.3945 0.21611 0.0
H234 H 0.04885 0.35023 0.41821 0.0
H235 H 0.04537 0.32205 0.30448 0.0
H236 H 0.04222 0.1653 0.36495 0.0
H237 H 0.03108 0.16322 0.13162 0.0
H238 H 0.0364 0.21346 0.12633 0.0
H239 H 0.04795 0.21513 0.35838 0.0
C240 C 0.31481 0.01392 0.06467 0.0
C241 C 0.33028 0.03353 0.08378 0.0
C242 C 0.36481 0.01106 0.99096 0.0
C243 C 0.35483 0.03213 0.04752 0.0
C244 C 0.34934 0.99149 0.97175 0.0
C245 C 0.32475 0.99291 1.00797 0.0
U246 U 0.25881 0.00629 0.22465 0.0
O247 O 0.22579 0.03574 0.26295 0.0
O248 O 0.22216 0.99374 0.21724 0.0
C249 C 0.21077 0.01707 0.25239 0.0
C250 C 0.28803 0.01674 0.09798 0.0
C251 C 0.18984 0.01416 0.31557 0.0
C252 C 0.15032 0.99658 0.35876 0.0
C253 C 0.17118 0.99785 0.30293 0.0
C254 C 0.16631 0.02754 0.44253 0.0
C255 C 0.14729 0.01187 0.42888 0.0
C256 C 0.18725 0.02876 0.38662 0.0
C257 C 0.30582 0.97571 0.33687 0.0
C258 C 0.3356 0.96078 0.41478 0.0
C259 C 0.34906 0.97132 0.28325 0.0
C260 C 0.32472 0.97763 0.27498 0.0
C261 C 0.35469 0.96321 0.35363 0.0
C262 C 0.31134 0.96701 0.40641 0.0
C263 C 0.28037 0.98384 0.33058 0.0
O264 O 0.27734 0.99347 0.1074 0.0
O265 O 0.28023 0.03546 0.15441 0.0
O266 O 0.27458 0.01101 0.32798 0.0
O267 O 0.27177 0.96888 0.28043 0.0
H268 H 0.32335 0.05038 0.12591 0.0
H269 H 0.36586 0.04805 0.06273 0.0
H270 H 0.35627 0.97495 0.92868 0.0
H271 H 0.31338 0.97771 0.99068 0.0
H272 H 0.13644 0.98368 0.34668 0.0
H273 H 0.17252 0.98634 0.24904 0.0
H274 H 0.16469 0.03955 0.49574 0.0
H275 H 0.20117 0.0416 0.39871 0.0
H276 H 0.33946 0.95483 0.46981 0.0
H277 H 0.36342 0.97299 0.23499 0.0
H278 H 0.32064 0.98435 0.2208 0.0
H279 H 0.29691 0.96555 0.45466 0.0
C280 C 0.48855 0.31626 0.15413 0.0
C281 C 0.5089 0.33162 0.14974 0.0
C282 C 0.49081 0.36601 0.07099 0.0
C283 C 0.50998 0.35625 0.1088 0.0
C284 C 0.47038 0.35067 0.07653 0.0
C285 C 0.46925 0.32623 0.11777 0.0
U286 U 0.49952 0.26024 0.30498 0.0
O287 O 0.47346 0.23052 0.35052 0.0
O288 O 0.50918 0.21454 0.28466 0.0
C289 C 0.48878 0.20826 0.32626 0.0
C290 C 0.48755 0.28872 0.19029 0.0
C291 C 0.49077 0.18591 0.38143 0.0
C292 C 0.47479 0.14466 0.44042 0.0
C293 C 0.47319 0.16667 0.39097 0.0
C294 C 0.51147 0.16092 0.47328 0.0
C295 C 0.49415 0.14118 0.48144 0.0
C296 C 0.50984 0.18304 0.42365 0.0
C297 C 0.52949 0.312 0.42082 0.0
C298 C 0.54052 0.34378 0.51429 0.0
C299 C 0.53437 0.3606 0.39182 0.0
C300 C 0.52933 0.33374 0.36995 0.0
C301 C 0.53921 0.36611 0.4653 0.0
C302 C 0.53571 0.31701 0.49218 0.0
C303 C 0.52141 0.2846 0.40401 0.0
O304 O 0.50823 0.27262 0.18644 0.0
O305 O 0.4729 0.2881 0.25601 0.0
O306 O 0.53333 0.27034 0.34269 0.0
O307 O 0.49763 0.28405 0.41295 0.0
H308 H 0.52417 0.32432 0.17651 0.0
H309 H 0.52599 0.3675 0.10599 0.0
H310 H 0.45557 0.35695 0.04671 0.0
H311 H 0.4535 0.31457 0.11936 0.0
H312 H 0.46079 0.13034 0.44662 0.0
H313 H 0.45821 0.16855 0.35959 0.0
H314 H 0.52658 0.1589 0.50409 0.0
H315 H 0.52357 0.19769 0.41774 0.0
H316 H 0.54393 0.34733 0.57145 0.0
H317 H 0.53364 0.37724 0.35231 0.0
H318 H 0.52456 0.33018 0.31456 0.0
H319 H 0.53587 0.30045 0.53219 0.0
Dy320 Dy 0.99768 0.01888 0.70194 0.0
Dy321 Dy 0.03075 0.99762 0.82587 0.0
C322 C 0.0572 0.01123 0.65678 0.0
O323 O 1.01288 0.97476 0.66454 0.0
O324 O 0.0164 0.95935 0.78173 0.0
O325 O 0.9751 0.01086 0.61818 0.0
O326 O 0.9805 0.05348 0.64951 0.0
O327 O 0.99229 0.00558 0.89099 0.0
O328 O 0.97076 1.00241 0.79402 0.0
O329 O 0.03472 0.0432 0.81374 0.0
O330 O 0.99687 0.05471 0.78711 0.0
O331 O 0.04184 0.00647 0.93309 0.0
O332 O 0.05514 0.96711 0.87015 0.0
C333 C 1.01495 0.95406 0.71024 0.0
O334 O 0.0362 0.02371 0.64414 0.0
O335 O 0.05881 0.99787 0.71949 0.0
C336 C 0.97642 0.04473 0.52362 0.0
C337 C 0.99283 0.0682 0.38425 0.0
C338 C 1.00352 0.04192 0.40139 0.0
C339 C 0.99556 0.03035 0.47113 0.0
C340 C 0.96404 0.06935 0.50301 0.0
C341 C 0.97222 0.08109 0.43404 0.0
C342 C 0.97168 0.03732 0.6035 0.0
C343 C 0.97166 1.00272 0.867 0.0
C344 C 0.01598 0.06186 0.81391 0.0
C345 C 0.04168 0.96604 1.00157 0.0
C346 C 0.0187 0.94006 0.1296 0.0
C347 C 1.00898 0.94032 0.06221 0.0
C348 C 0.02025 0.95332 0.99911 0.0
C349 C 0.05149 0.9661 0.06861 0.0
C350 C 0.04012 0.95301 0.13231 0.0
C351 C 0.05217 0.98102 0.93559 0.0
H352 H 0.01915 0.03142 0.36321 0.0
H353 H 1.00535 0.01123 0.4859 0.0
H354 H 0.94927 0.08075 0.54292 0.0
H355 H 0.96381 0.10158 0.42325 0.0
H356 H 0.993 0.92973 0.05733 0.0
H357 H 1.01223 0.95338 0.94807 0.0
H358 H 0.06782 0.97625 0.07166 0.0
H359 H 0.04809 0.95285 0.18341 0.0
Dy360 Dy 0.5107 0.97969 0.70181 0.0
Dy361 Dy 0.52249 0.02381 0.82944 0.0
C362 C 0.50516 0.04631 0.67864 0.0
O363 O 0.55161 0.97448 0.69069 0.0
O364 O 0.55701 0.01717 0.74193 0.0
O365 O 0.51843 0.96296 0.58583 0.0
O366 O 0.49178 0.94543 0.66862 0.0
O367 O 0.53626 0.98142 0.86566 0.0
O368 O 0.51372 0.95426 0.80301 0.0
O369 O 0.48432 0.0136 0.87188 0.0
O370 O 0.47341 0.99881 0.76097 0.0
O371 O 0.51936 0.03749 0.94706 0.0
O372 O 0.53747 0.06177 0.85853 0.0
C373 C 0.56563 0.99452 0.69855 0.0
O374 O 0.51151 0.02103 0.64691 0.0
O375 O 0.50344 0.05085 0.75233 0.0
C376 C 0.48384 0.94851 0.54494 0.0
C377 C 0.44768 0.9521 0.45342 0.0
C378 C 0.45064 0.97533 0.49957 0.0
C379 C 0.46861 0.97355 0.54494 0.0
C380 C 0.48145 0.92551 0.49762 0.0
C381 C 0.46341 0.92726 0.45215 0.0
C382 C 0.50135 0.94611 0.59701 0.0
C383 C 0.52704 0.95757 0.85569 0.0
C384 C 0.4675 0.00692 0.83346 0.0
C385 C 0.55303 0.05918 0.97179 0.0
C386 C 0.59252 0.06065 0.04939 0.0
C387 C 0.59208 0.03857 0.9963 0.0
C388 C 0.57249 0.03786 0.95771 0.0
C389 C 0.55326 0.08119 0.02495 0.0
C390 C 0.57292 0.08193 0.06365 0.0
C391 C 0.5325 0.05825 0.9313 0.0
H392 H 0.43837 0.99447 0.50328 0.0
H393 H 0.47015 0.99141 0.5818 0.0
H394 H 0.49311 0.90603 0.49725 0.0
H395 H 0.46137 0.90904 0.41734 0.0
H396 H 0.60706 0.02203 0.98394 0.0
H397 H 0.57253 0.02072 0.91671 0.0
H398 H 0.53825 0.09771 0.03654 0.0
H399 H 0.57273 0.09896 0.10503 0.0
Dy400 Dy 0.53911 0.50316 0.79119 0.0
Dy401 Dy 0.48081 0.5044 0.75451 0.0
C402 C 0.5015 0.46104 0.87031 0.0
O403 O 0.54328 0.48109 0.67635 0.0
O404 O 0.50349 0.4706 0.67991 0.0
O405 O 0.5744 0.48254 0.80586 0.0
O406 O 0.56666 0.52753 0.82416 0.0
O407 O 0.50148 0.5283 0.66325 0.0
O408 O 0.53114 0.54174 0.72694 0.0
O409 O 0.48184 0.53978 0.83845 0.0
O410 O 0.51302 0.52032 0.89428 0.0
O411 O 0.44843 0.52728 0.7257 0.0
O412 O 0.44933 0.48262 0.74054 0.0
C413 C 0.52677 0.4677 0.6495 0.0
O414 O 0.52413 0.46471 0.84015 0.0
O415 O 0.48259 0.47761 0.85604 0.0
C416 C 0.59746 0.50549 0.88717 0.0
C417 C 0.62745 0.5078 1.00098 0.0
C418 C 0.60225 0.50482 0.02068 0.0
C419 C 0.58739 0.50382 0.96443 0.0
C420 C 0.62258 0.50796 0.86752 0.0
C421 C 0.63735 0.50904 0.92336 0.0
C422 C 0.58252 0.50581 0.82558 0.0
C423 C 0.51786 0.54538 0.67312 0.0
C424 C 0.49474 0.53962 0.89355 0.0
C425 C 0.424 0.50177 0.65513 0.0
C426 C 0.3965 0.49782 0.53506 0.0
C427 C 0.41952 0.50843 0.52278 0.0
C428 C 0.43308 0.51042 0.58204 0.0
C429 C 0.40134 0.49068 0.66702 0.0
C430 C 0.38782 0.48868 0.60801 0.0
C431 C 0.43707 0.50493 0.72066 0.0
H432 H 0.59395 0.50375 0.07975 0.0
H433 H 0.56806 0.50195 0.98127 0.0
H434 H 0.63085 0.50924 0.80846 0.0
H435 H 0.65668 0.51063 0.90551 0.0
H436 H 0.42717 0.51507 0.46713 0.0
H437 H 0.45058 0.51887 0.57082 0.0
H438 H 0.39384 0.48388 0.72268 0.0
H439 H 0.37024 0.48048 0.62007 0.0
Dy440 Dy 0.02228 0.52347 0.73009 0.0
Dy441 Dy 1.00481 0.4737 0.83863 0.0
C442 C 0.02485 0.4591 0.66183 0.0
O443 O 0.98602 0.51891 0.697 0.0
O444 O 0.9714 0.48901 0.78856 0.0
O445 O 0.03463 0.54211 0.62339 0.0
O446 O 0.0334 0.56545 0.72951 0.0
O447 O 1.00938 0.51103 0.91071 0.0
O448 O 0.99782 0.54402 0.83337 0.0
O449 O 0.04577 0.46657 0.8238 0.0
O450 O 0.05343 0.51094 0.79122 0.0
O451 O 1.01131 0.43839 0.90847 0.0
O452 O 0.97464 0.45775 0.91038 0.0
C453 C 0.96858 0.50449 0.72997 0.0
O454 O 0.03407 0.48352 0.6573 0.0
O455 O 1.01131 0.4519 0.72447 0.0
C456 C 0.06901 0.56466 0.64052 0.0
C457 C 0.11986 0.56588 0.62644 0.0
C458 C 0.10977 0.54024 0.62231 0.0
C459 C 0.0847 0.53963 0.62968 0.0
C460 C 0.07882 0.59039 0.646 0.0
C461 C 0.10416 0.59102 0.63876 0.0
C462 C 0.04256 0.56296 0.65739 0.0
C463 C 1.00165 0.53705 0.9008 0.0
C464 C 0.06053 0.48646 0.81586 0.0
C465 C 0.98482 0.44722 0.02718 0.0
C466 C 0.96604 0.47654 0.16667 0.0
C467 C 0.98939 0.48065 0.12753 0.0
C468 C 0.99864 0.46623 0.05783 0.0
C469 C 0.96317 0.4403 0.07121 0.0
C470 C 0.95384 0.45483 0.14046 0.0
C471 C 0.98879 0.44132 0.94463 0.0
H472 H 0.12132 0.52053 0.61139 0.0
H473 H 0.07758 0.51941 0.62763 0.0
H474 H 0.0669 0.60984 0.65676 0.0
H475 H 0.11146 0.61106 0.64237 0.0
H476 H 0.99951 0.49669 0.14734 0.0
H477 H 0.01546 0.47193 0.0248 0.0
H478 H 0.95216 0.42588 0.04839 0.0
H479 H 0.93581 0.45107 0.16915 0.0
C480 C 0.1249 0.00796 0.56391 0.0
C481 C 0.12414 0.01205 0.48652 0.0
C482 C 0.10332 0.00768 0.61821 0.0
C483 C 0.07992 0.01199 0.59804 0.0
H484 H 0.14234 1.00449 0.58257 0.0
H485 H 0.10504 1.00421 0.6767 0.0
S486 S 0.06787 0.02404 0.40308 0.0
N487 N 0.09791 0.02092 0.39306 0.0
N488 N 0.05763 0.02041 0.49412 0.0
C489 C 0.07897 0.01638 0.52092 0.0
C490 C 0.10092 0.01637 0.46563 0.0
C491 C 0.50057 0.12087 0.60643 0.0
C492 C 0.49639 0.11681 0.53156 0.0
C493 C 0.5027 0.09819 0.65426 0.0
C494 C 0.50108 0.07037 0.62897 0.0
H495 H 0.50207 0.14182 0.62849 0.0
H496 H 0.50613 0.10248 0.71105 0.0
S497 S 0.49029 0.0483 0.4375 0.0
N498 N 0.49079 0.08266 0.43446 0.0
N499 N 0.49466 0.0403 0.52361 0.0
C500 C 0.49677 0.06608 0.55422 0.0
C501 C 0.49445 0.08916 0.50585 0.0
C502 C 0.35489 0.47032 0.40512 0.0
C503 C 0.35126 0.49259 0.35699 0.0
C504 C 0.3696 0.47209 0.46151 0.0
C505 C 0.38141 0.49624 0.47287 0.0
H506 H 0.34653 0.45113 0.39852 0.0
H507 H 0.37191 0.45418 0.49618 0.0
S508 S 0.37617 0.56151 0.36681 0.0
N509 N 0.35976 0.54025 0.3277 0.0
N510 N 0.38711 0.54363 0.43329 0.0
C511 C 0.37767 0.51882 0.42576 0.0
C512 C 0.36272 0.51698 0.36821 0.0
C513 C 0.03821 0.43276 0.45339 0.0
C514 C 0.03082 0.40544 0.45591 0.0
C515 C 0.03717 0.44949 0.52017 0.0
C516 C 0.02847 0.43976 0.59252 0.0
H517 H 0.04469 0.44139 0.39919 0.0
H518 H 0.04261 0.47054 0.51463 0.0
S519 S 1.00718 0.36944 0.63034 0.0
N520 N 1.01468 0.36934 0.53696 0.0
N521 N 1.01297 0.40036 0.66199 0.0
C522 C 0.0215 0.41219 0.59577 0.0
C523 C 0.02263 0.39517 0.52778 0.0
C524 C 0.92949 0.99454 0.057 0.0
C525 C 0.90597 0.9954 0.03792 0.0
C526 C 0.9504 0.99693 1.00177 0.0
C527 C 0.94892 1.00006 0.92435 0.0
H528 H 0.93178 0.99229 0.11553 0.0
H529 H 0.96791 0.99621 0.02024 0.0
S530 S 0.89178 1.00208 0.84345 0.0
N531 N 0.88264 0.99859 0.9352 0.0
N532 N 0.92163 1.00317 0.8318 0.0
C533 C 0.92551 1.00062 0.90435 0.0
C534 C 0.90418 0.99833 0.96082 0.0
C535 C 0.53564 0.91772 0.03325 0.0
C536 C 0.53208 0.88988 0.01323 0.0
C537 C 0.53486 0.93931 0.98145 0.0
C538 C 0.53038 0.93403 0.90743 0.0
H539 H 0.53843 0.92306 0.09016 0.0
H540 H 0.53701 0.96046 1.00046 0.0
S541 S 0.52297 0.86416 0.82332 0.0
N542 N 0.52626 0.8579 0.91145 0.0
N543 N 0.52438 0.89822 0.81502 0.0
C544 C 0.52767 0.90609 0.88589 0.0
C545 C 0.52859 0.88415 0.93842 0.0
C546 C 0.65872 0.48999 0.17171 0.0
C547 C 0.67607 0.50966 0.17026 0.0
C548 C 0.64285 0.48984 0.11818 0.0
C549 C 0.64355 0.50931 0.06036 0.0
H550 H 0.65772 0.47411 0.21373 0.0
H551 H 0.63031 0.47386 0.12105 0.0
S552 S 0.68336 0.56739 0.03648 0.0
N553 N 0.69137 0.55065 0.10922 0.0
N554 N 0.66181 0.55032 1.00921 0.0
C555 C 0.66029 0.52959 0.05961 0.0
C556 C 0.67643 0.52977 0.11412 0.0
C557 C 1.01335 0.57099 0.08457 0.0
C558 C 1.00465 0.59944 0.08144 0.0
C559 C 1.01162 0.55114 0.02705 0.0
C560 C 1.00127 0.55873 0.963 0.0
H561 H 0.02143 0.56386 0.13244 0.0
H562 H 0.01884 0.52964 0.03273 0.0
S563 S 0.97594 0.63065 0.92653 0.0
N564 N 0.98536 0.63432 1.00855 0.0
N565 N 0.98208 0.59699 0.9003 0.0
C566 C 0.99234 0.58711 0.95917 0.0
C567 C 0.99399 0.6074 0.01831 0.0
C568 C 0.04117 0.11251 0.29825 0.0
C569 C 0.02796 0.13201 0.25957 0.0
C570 C 0.03046 0.0896 0.33128 0.0
C571 C 1.00619 0.08533 0.32654 0.0
H572 H 0.05914 0.11633 0.30865 0.0
H573 H 0.04041 0.07696 0.36724 0.0
S574 S 0.96581 0.12664 0.21701 0.0
N575 N 0.99078 0.14301 0.20783 0.0
N576 N 0.97089 0.09939 0.26876 0.0
C577 C 0.99391 0.10263 0.28011 0.0
C578 C 1.00477 0.1261 0.24666 0.0
C579 C 0.38773 0.93467 0.40354 0.0
C580 C 0.38029 0.95846 0.36572 0.0
C581 C 0.41038 0.9319 0.42734 0.0
C582 C 0.42634 0.95289 0.41438 0.0
H583 H 0.37553 0.91859 0.4175 0.0
H584 H 0.41477 0.91399 0.45996 0.0
S585 S 0.41678 0.01764 0.30995 0.0
N586 N 0.3915 1.0023 0.31094 0.0
N587 N 0.43437 0.99677 0.35457 0.0
C588 C 0.41984 0.97588 0.37228 0.0
C589 C 0.39676 0.97872 0.34802 0.0
C590 C 0.55705 0.40116 0.5415 0.0
C591 C 0.53981 0.39528 0.49562 0.0
C592 C 0.55428 0.4263 0.58614 0.0
C593 C 0.5341 0.44625 0.58656 0.0
H594 H 0.57196 0.38547 0.54644 0.0
H595 H 0.56685 0.42902 0.625 0.0
S596 S 0.48586 0.44312 0.46856 0.0
N597 N 0.50332 0.41312 0.44771 0.0
N598 N 0.49849 0.46038 0.53014 0.0
C599 C 0.51807 0.44183 0.53574 0.0
C600 C 0.52083 0.41633 0.49054 0.0
C601 C 0.1842 0.53348 0.59271 0.0
C602 C 0.19263 0.54398 0.52141 0.0
C603 C 0.16158 0.54424 0.63524 0.0
C604 C 0.14677 0.56549 0.60705 0.0
H605 H 0.19339 0.51449 0.6104 0.0
H606 H 0.15424 0.5333 0.68499 0.0
S607 S 0.16458 0.60597 0.43652 0.0
N608 N 0.1877 0.58163 0.43517 0.0
N609 N 0.14496 0.60135 0.51424 0.0
C610 C 0.15715 0.57956 0.54362 0.0
C611 C 0.1803 0.56884 0.50088 0.0
C612 C 1.01307 0.88081 0.26279 0.0
C613 C 0.98769 0.87921 0.27699 0.0
C614 C 0.02305 0.90245 0.221 0.0
C615 C 1.00794 0.92322 0.19254 0.0
H616 H 0.02541 0.86384 0.27776 0.0
H617 H 0.04274 0.9014 0.20516 0.0
S618 S 0.9402 0.93222 0.23171 0.0
N619 N 0.94758 0.90265 0.27158 0.0
N620 N 0.96629 0.94398 0.19469 0.0
C621 C 0.98247 0.9237 0.21456 0.0
C622 C 0.97234 0.90147 0.25634 0.0
C623 C 0.64379 0.03564 0.15222 0.0
C624 C 0.65792 0.05848 0.14817 0.0
C625 C 0.62211 0.03697 0.12279 0.0
C626 C 0.61372 0.06122 0.08862 0.0
H627 H 0.65011 0.01609 0.17494 0.0
H628 H 0.61217 0.01859 0.12487 0.0
S629 S 0.64286 0.12762 0.07009 0.0
N630 N 0.66108 0.1068 0.1128 0.0
N631 N 0.6204 0.10916 0.05624 0.0
C632 C 0.62701 0.08471 0.08755 0.0
C633 C 0.64914 0.08333 0.11747 0.0
C634 C 0.47228 0.61182 0.98635 0.0
C635 C 0.48898 0.61575 0.03535 0.0
C636 C 0.47318 0.5864 0.94455 0.0
C637 C 0.49087 0.56385 0.94992 0.0
H638 H 0.45902 0.62896 0.97783 0.0
H639 H 0.46063 0.58501 0.90501 0.0
S640 S 0.53716 0.56246 0.0768 0.0
N641 N 0.52254 0.59431 0.09135 0.0
N642 N 0.52397 0.54634 0.0145 0.0
C643 C 0.50655 0.56685 1.00302 0.0
C644 C 0.50567 0.59283 0.04532 0.0
C645 C 0.916 0.5072 0.32356 0.0
C646 C 0.91131 0.53464 0.29957 0.0
C647 C 0.93605 0.4892 0.28644 0.0
C648 C 0.95192 0.49793 0.22362 0.0
H649 H 0.9027 0.49845 0.36524 0.0
H650 H 0.93769 0.46748 0.30199 0.0
S651 S 0.95077 0.57008 0.15223 0.0
N652 N 0.92701 0.57165 0.22171 0.0
N653 N 0.96392 0.53754 0.14842 0.0
C654 C 0.94927 0.52649 0.20629 0.0
C655 C 0.92911 0.54492 0.24522 0.0
C656 C 1.00007 0.14078 0.85819 0.0
C657 C 0.01598 0.1472 0.90796 0.0
C658 C 1.00012 0.11323 0.82829 0.0
C659 C 0.01614 0.09092 0.84665 0.0
H660 H 0.98771 0.15728 0.84125 0.0
H661 H 0.98769 0.10949 0.78969 0.0
S662 S 0.05961 0.09603 0.981 0.0
N663 N 0.04685 0.12849 0.9788 0.0
N664 N 0.04726 0.07702 0.92222 0.0
C665 C 0.0318 0.09699 0.89766 0.0
C666 C 0.03164 0.12499 0.92831 0.0
C667 C 0.3976 0.0055 0.87199 0.0
C668 C 0.39113 0.00971 0.95171 0.0
C669 C 0.4221 1.00469 0.83424 0.0
C670 C 0.44138 0.00804 0.87433 0.0
H671 H 0.38354 1.00318 0.83814 0.0
H672 H 0.42589 1.00155 0.77296 0.0
S673 S 0.43457 0.01727 0.08476 0.0
N674 N 0.40643 0.01551 0.06969 0.0
N675 N 0.452 0.01439 0.99991 0.0
C676 C 0.43513 0.01184 0.95437 0.0
C677 C 0.41023 0.01258 0.99259 0.0
C678 C 0.51484 0.3937 0.97217 0.0
C679 C 0.49286 0.39097 0.02207 0.0
C680 C 0.51725 0.41624 0.92381 0.0
C681 C 0.49778 0.43727 0.92253 0.0
H682 H 0.5303 0.37796 0.96937 0.0
H683 H 0.53461 0.41695 0.88644 0.0
S684 S 0.43662 0.44098 0.04514 0.0
N685 N 0.45145 0.41209 0.06956 0.0
N686 N 0.45584 0.45417 0.97795 0.0
C687 C 0.47569 0.43494 0.97248 0.0
C688 C 0.47327 0.41195 0.02221 0.0
C689 C 0.12541 0.4995 0.84211 0.0
C690 C 0.13256 0.47738 0.88658 0.0
C691 C 0.10241 0.50195 0.81908 0.0
C692 C 0.08539 0.48223 0.83846 0.0
H693 H 0.13753 0.51548 0.82604 0.0
H694 H 0.09795 0.51968 0.78598 0.0
S695 S 0.09542 0.41946 0.95112 0.0
N696 N 0.12086 0.43471 0.94682 0.0
N697 N 0.07786 0.43927 0.9039 0.0
C698 C 0.09247 0.4597 0.88183 0.0
C699 C 0.11587 0.45733 0.90583 0.0
C700 C 1.01363 0.89156 0.57343 0.0
C701 C 0.01752 0.868 0.6168 0.0
C702 C 1.01268 0.91908 0.60425 0.0
C703 C 0.01565 0.92442 0.67996 0.0
H704 H 1.01109 0.88873 0.51508 0.0
H705 H 1.0096 0.93633 0.56801 0.0
S706 S 0.02725 0.86997 0.8171 0.0
N707 N 0.02508 0.85184 0.73904 0.0
N708 N 0.02305 0.90336 0.79725 0.0
C709 C 0.01958 0.90099 0.72406 0.0
C710 C 0.02055 0.87292 0.69253 0.0
C711 C 0.63191 0.01028 0.62996 0.0
C712 C 0.64113 0.98942 0.57204 0.0
C713 C 0.60779 0.01153 0.67086 0.0
C714 C 0.5916 0.99201 0.65596 0.0
H715 H 0.64356 0.02562 0.64466 0.0
H716 H 0.60185 0.02802 0.71474 0.0
S717 S 0.60603 0.93432 0.5063 0.0
N718 N 0.6315 0.94961 0.4995 0.0
N719 N 0.58664 0.95167 0.57618 0.0
C720 C 0.60054 0.97118 0.59762 0.0
C721 C 0.62508 0.96997 0.55591 0.0
C722 C 0.51054 0.59661 0.51565 0.0
C723 C 0.52216 0.61976 0.53615 0.0
C724 C 0.50953 0.57256 0.55938 0.0
C725 C 0.52042 0.57043 0.62493 0.0
H726 H 0.50157 0.59738 0.46656 0.0
H727 H 0.49993 0.5556 0.54185 0.0
S728 S 0.55457 0.62471 0.69993 0.0
N729 N 0.54582 0.63848 0.62422 0.0
N730 N 0.54404 0.59368 0.70601 0.0
C731 C 0.53271 0.59322 0.6446 0.0
C732 C 0.53354 0.61772 0.60046 0.0
C733 C 0.9024 0.49364 0.71128 0.0
C734 C 0.90019 0.50301 0.63843 0.0
C735 C 0.92431 0.4944 0.74044 0.0
C736 C 0.94507 0.50496 0.69874 0.0
H737 H 0.88718 0.48508 0.74573 0.0
H738 H 0.92492 0.48654 0.79632 0.0
S739 S 0.94867 0.53311 0.50562 0.0
N740 N 0.92065 0.52393 0.52607 0.0
N741 N 0.96152 0.52541 0.58 0.0
C742 C 0.94294 0.5148 0.62607 0.0
C743 C 0.92069 0.51377 0.59623 0.0
loop_
_geom_bond_atom_site_label_1
_geom_bond_atom_site_label_2
_geom_bond_distance
_geom_bond_site_symmetry_2
_ccdc_geom_bond_type
C0 C1 1.264 . S
C0 C5 1.479 . S
C0 C10 1.465 . S
C1 C0 1.264 . S
C1 C3 1.339 . S
C1 H28 0.931 . S
C2 C3 1.395 . S
C2 C4 1.320 . S
C3 C1 1.339 . S
C3 C2 1.395 . S
C3 H29 0.929 . S
C4 C2 1.320 . S
C4 C5 1.405 . S
C4 H30 0.930 . S
C5 C0 1.479 . S
C5 C4 1.405 . S
C5 H31 0.931 . S
U6 O7 2.454 . S
U6 O8 2.458 . S
U6 C9 2.984 . S
U6 C10 2.847 . S
U6 C23 2.882 . S
U6 O24 2.441 . S
U6 O25 2.420 . S
U6 O26 2.455 . S
U6 O27 2.449 . S
O7 U6 2.454 . S
O7 C9 1.353 . S
O8 U6 2.458 . S
O8 C9 1.286 . S
C9 U6 2.984 . S
C9 O7 1.353 . S
C9 O8 1.286 . S
C9 C11 1.363 . S
C10 C0 1.465 . S
C10 U6 2.847 . S
C10 O24 1.249 . S
C10 O25 1.202 . S
C11 C9 1.363 . S
C11 C13 1.408 . S
C11 C16 1.342 . S
C12 C13 1.310 . S
C12 C15 1.461 . S
C12 H32 0.932 . S
C13 C11 1.408 . S
C13 C12 1.310 . S
C13 H33 0.930 . S
C14 C15 1.474 . S
C14 C16 1.285 . S
C14 H34 0.929 . S
C15 C12 1.461 . S
C15 C14 1.474 . S
C16 C11 1.342 . S
C16 C14 1.285 . S
C16 H35 0.930 . S
C17 C20 1.424 . S
C17 C22 1.245 . S
C17 C23 1.428 . S
C18 C21 1.260 . S
C18 C22 1.477 . S
C18 H36 0.932 . S
C19 C20 1.384 . S
C19 C21 1.479 . S
C19 H37 0.929 . S
C20 C17 1.424 . S
C20 C19 1.384 . S
C20 H38 0.928 . S
C21 C18 1.260 . S
C21 C19 1.479 . S
C22 C17 1.245 . S
C22 C18 1.477 . S
C22 H39 0.932 . S
C23 U6 2.882 . S
C23 C17 1.428 . S
C23 O26 1.301 . S
C23 O27 1.282 . S
O24 U6 2.441 . S
O24 C10 1.249 . S
O25 U6 2.420 . S
O25 C10 1.202 . S
O26 U6 2.455 . S
O26 C23 1.301 . S
O27 U6 2.449 . S
O27 C23 1.282 . S
H28 C1 0.931 . S
H29 C3 0.929 . S
H30 C4 0.930 . S
H31 C5 0.931 . S
H32 C12 0.932 . S
H33 C13 0.930 . S
H34 C14 0.929 . S
H35 C16 0.930 . S
H36 C18 0.932 . S
H37 C19 0.929 . S
H38 C20 0.928 . S
H39 C22 0.932 . S
C40 C41 1.264 . S
C40 C45 1.479 . S
C40 C50 1.465 . S
C41 C40 1.264 . S
C41 C43 1.339 . S
C41 H68 0.931 . S
C42 C43 1.395 . S
C42 C44 1.320 . S
C43 C41 1.339 . S
C43 C42 1.395 . S
C43 H69 0.929 . S
C44 C42 1.320 . S
C44 C45 1.405 . S
C44 H70 0.930 1_455 S
C45 C40 1.479 . S
C45 C44 1.405 . S
C45 H71 0.931 . S
U46 O47 2.454 . S
U46 O48 2.458 . S
U46 C49 2.984 . S
U46 C50 2.847 . S
U46 C63 2.882 . S
U46 O64 2.441 . S
U46 O65 2.420 . S
U46 O66 2.455 . S
U46 O67 2.449 . S
O47 U46 2.454 . S
O47 C49 1.353 . S
O48 U46 2.458 . S
O48 C49 1.286 . S
C49 U46 2.984 . S
C49 O47 1.353 . S
C49 O48 1.286 . S
C49 C51 1.363 . S
C50 C40 1.465 . S
C50 U46 2.847 . S
C50 O64 1.249 . S
C50 O65 1.202 . S
C51 C49 1.363 . S
C51 C53 1.408 . S
C51 C56 1.356 . S
C52 C53 1.310 . S
C52 C55 1.457 1_455 S
C52 H72 0.932 . S
C53 C51 1.408 . S
C53 C52 1.310 . S
C53 H73 0.930 . S
C54 C55 1.473 . S
C54 C56 1.269 1_655 S
C54 H74 0.942 . S
C55 C52 1.457 1_655 S
C55 C54 1.473 . S
C56 C51 1.356 . S
C56 C54 1.269 1_455 S
C56 H75 0.928 . S
C57 C60 1.424 . S
C57 C62 1.245 . S
C57 C63 1.428 . S
C58 C61 1.260 . S
C58 C62 1.477 . S
C58 H76 0.932 . S
C59 C60 1.384 . S
C59 C61 1.479 . S
C59 H77 0.929 . S
C60 C57 1.424 . S
C60 C59 1.384 . S
C60 H78 0.928 . S
C61 C58 1.260 . S
C61 C59 1.479 . S
C62 C57 1.245 . S
C62 C58 1.477 . S
C62 H79 0.932 . S
C63 U46 2.882 . S
C63 C57 1.428 . S
C63 O66 1.301 . S
C63 O67 1.282 . S
O64 U46 2.441 . S
O64 C50 1.249 . S
O65 U46 2.420 . S
O65 C50 1.202 . S
O66 U46 2.455 . S
O66 C63 1.301 . S
O67 U46 2.449 . S
O67 C63 1.282 . S
H68 C41 0.931 . S
H69 C43 0.929 . S
H70 C44 0.930 1_655 S
H71 C45 0.931 . S
H72 C52 0.932 . S
H73 C53 0.930 . S
H74 C54 0.942 . S
H75 C56 0.928 . S
H76 C58 0.932 . S
H77 C59 0.929 . S
H78 C60 0.928 . S
H79 C62 0.932 . S
C80 C81 1.264 . S
C80 C85 1.479 . S
C80 C90 1.465 . S
C81 C80 1.264 . S
C81 C83 1.339 . S
C81 H108 0.931 . S
C82 C83 1.395 . S
C82 C84 1.320 . S
C83 C81 1.339 . S
C83 C82 1.395 . S
C83 H109 0.929 . S
C84 C82 1.320 . S
C84 C85 1.405 . S
C84 H110 0.930 1_545 S
C85 C80 1.479 . S
C85 C84 1.405 . S
C85 H111 0.931 . S
U86 O87 2.454 . S
U86 O88 2.458 . S
U86 C89 2.984 . S
U86 C90 2.847 . S
U86 C103 2.882 . S
U86 O104 2.441 . S
U86 O105 2.420 . S
U86 O106 2.455 . S
U86 O107 2.449 . S
O87 U86 2.454 . S
O87 C89 1.353 . S
O88 U86 2.458 . S
O88 C89 1.286 . S
C89 U86 2.984 . S
C89 O87 1.353 . S
C89 O88 1.286 . S
C89 C91 1.363 . S
C90 C80 1.465 . S
C90 U86 2.847 . S
C90 O104 1.249 . S
C90 O105 1.202 . S
C91 C89 1.363 . S
C91 C93 1.408 . S
C91 C96 1.342 . S
C92 C93 1.310 . S
C92 C95 1.461 . S
C92 H112 0.932 . S
C93 C91 1.408 . S
C93 C92 1.310 . S
C93 H113 0.930 . S
C94 C95 1.473 1_565 S
C94 C96 1.286 1_565 S
C94 H114 0.930 . S
C95 C92 1.461 . S
C95 C94 1.473 1_545 S
C96 C91 1.342 . S
C96 C94 1.286 1_545 S
C96 H115 0.935 . S
C97 C100 1.424 . S
C97 C102 1.245 . S
C97 C103 1.428 . S
C98 C101 1.260 . S
C98 C102 1.477 . S
C98 H116 0.932 1_554 S
C99 C100 1.384 . S
C99 C101 1.479 . S
C99 H117 0.929 . S
C100 C97 1.424 . S
C100 C99 1.384 . S
C100 H118 0.928 . S
C101 C98 1.260 . S
C101 C99 1.479 . S
C102 C97 1.245 . S
C102 C98 1.477 . S
C102 H119 0.932 . S
C103 U86 2.882 . S
C103 C97 1.428 . S
C103 O106 1.301 . S
C103 O107 1.282 . S
O104 U86 2.441 . S
O104 C90 1.249 . S
O105 U86 2.420 . S
O105 C90 1.202 . S
O106 U86 2.455 . S
O106 C103 1.301 . S
O107 U86 2.449 . S
O107 C103 1.282 . S
H108 C81 0.931 . S
H109 C83 0.929 . S
H110 C84 0.930 1_565 S
H111 C85 0.931 . S
H112 C92 0.932 . S
H113 C93 0.930 . S
H114 C94 0.930 . S
H115 C96 0.935 . S
H116 C98 0.932 1_556 S
H117 C99 0.929 . S
H118 C100 0.928 . S
H119 C102 0.932 . S
C120 C121 1.264 . S
C120 C125 1.479 . S
C120 C130 1.465 . S
C121 C120 1.264 . S
C121 C123 1.339 . S
C121 H148 0.931 . S
C122 C123 1.395 . S
C122 C124 1.320 . S
C123 C121 1.339 . S
C123 C122 1.395 . S
C123 H149 0.929 . S
C124 C122 1.320 . S
C124 C125 1.405 . S
C124 H150 0.930 . S
C125 C120 1.479 . S
C125 C124 1.405 . S
C125 H151 0.931 . S
U126 O127 2.454 . S
U126 O128 2.458 . S
U126 C129 2.984 . S
U126 C130 2.847 . S
U126 C143 2.882 . S
U126 O144 2.441 . S
U126 O145 2.420 . S
U126 O146 2.455 . S
U126 O147 2.449 . S
O127 U126 2.454 . S
O127 C129 1.353 . S
O128 U126 2.458 . S
O128 C129 1.286 . S
C129 U126 2.984 . S
C129 O127 1.353 . S
C129 O128 1.286 . S
C129 C131 1.363 . S
C130 C120 1.465 . S
C130 U126 2.847 . S
C130 O144 1.249 . S
C130 O145 1.202 . S
C131 C129 1.363 . S
C131 C133 1.408 . S
C131 C136 1.342 . S
C132 C133 1.310 . S
C132 C135 1.461 . S
C132 H152 0.932 . S
C133 C131 1.408 . S
C133 C132 1.310 . S
C133 H153 0.930 . S
C134 C135 1.474 . S
C134 C136 1.285 . S
C134 H154 0.929 1_554 S
C135 C132 1.461 . S
C135 C134 1.474 . S
C136 C131 1.342 . S
C136 C134 1.285 . S
C136 H155 0.930 1_554 S
C137 C140 1.424 1_556 S
C137 C142 1.245 . S
C137 C143 1.428 1_556 S
C138 C141 1.260 . S
C138 C142 1.477 . S
C138 H156 0.932 . S
C139 C140 1.384 1_556 S
C139 C141 1.479 . S
C139 H157 0.929 . S
C140 C137 1.424 1_554 S
C140 C139 1.384 1_554 S
C140 H158 0.928 . S
C141 C138 1.260 . S
C141 C139 1.479 . S
C142 C137 1.245 . S
C142 C138 1.477 . S
C142 H159 0.932 . S
C143 U126 2.882 . S
C143 C137 1.428 1_554 S
C143 O146 1.301 . S
C143 O147 1.282 . S
O144 U126 2.441 . S
O144 C130 1.249 . S
O145 U126 2.420 . S
O145 C130 1.202 . S
O146 U126 2.455 . S
O146 C143 1.301 . S
O147 U126 2.449 . S
O147 C143 1.282 . S
H148 C121 0.931 . S
H149 C123 0.929 . S
H150 C124 0.930 . S
H151 C125 0.931 . S
H152 C132 0.932 . S
H153 C133 0.930 . S
H154 C134 0.929 1_556 S
H155 C136 0.930 1_556 S
H156 C138 0.932 . S
H157 C139 0.929 . S
H158 C140 0.928 . S
H159 C142 0.932 . S
C160 C161 1.264 . S
C160 C165 1.479 . S
C160 C170 1.465 . S
C161 C160 1.264 . S
C161 C163 1.339 . S
C161 H188 0.931 . S
C162 C163 1.395 . S
C162 C164 1.320 . S
C163 C161 1.339 . S
C163 C162 1.395 . S
C163 H189 0.929 . S
C164 C162 1.320 . S
C164 C165 1.405 . S
C164 H190 0.930 . S
C165 C160 1.479 . S
C165 C164 1.405 . S
C165 H191 0.931 . S
U166 O167 2.454 . S
U166 O168 2.458 1_556 S
U166 C169 2.984 1_556 S
U166 C170 2.847 . S
U166 C183 2.882 1_556 S
U166 O184 2.441 . S
U166 O185 2.420 . S
U166 O186 2.455 1_556 S
U166 O187 2.449 1_556 S
O167 U166 2.454 . S
O167 C169 1.353 1_556 S
O168 U166 2.458 1_554 S
O168 C169 1.286 . S
C169 U166 2.984 1_554 S
C169 O167 1.353 1_554 S
C169 O168 1.286 . S
C169 C171 1.363 . S
C170 C160 1.465 . S
C170 U166 2.847 . S
C170 O184 1.249 . S
C170 O185 1.202 . S
C171 C169 1.363 . S
C171 C173 1.408 1_554 S
C171 C176 1.342 . S
C172 C173 1.310 . S
C172 C175 1.461 1_556 S
C172 H192 0.932 . S
C173 C171 1.408 1_556 S
C173 C172 1.310 . S
C173 H193 0.930 . S
C174 C175 1.474 . S
C174 C176 1.285 . S
C174 H194 0.929 . S
C175 C172 1.461 1_554 S
C175 C174 1.474 . S
C176 C171 1.342 . S
C176 C174 1.285 . S
C176 H195 0.930 . S
C177 C180 1.424 . S
C177 C182 1.245 . S
C177 C183 1.428 . S
C178 C181 1.260 . S
C178 C182 1.477 . S
C178 H196 0.932 . S
C179 C180 1.384 . S
C179 C181 1.479 . S
C179 H197 0.929 . S
C180 C177 1.424 . S
C180 C179 1.384 . S
C180 H198 0.928 . S
C181 C178 1.260 . S
C181 C179 1.479 . S
C182 C177 1.245 . S
C182 C178 1.477 . S
C182 H199 0.932 . S
C183 U166 2.882 1_554 S
C183 C177 1.428 . S
C183 O186 1.301 . S
C183 O187 1.282 . S
O184 U166 2.441 . S
O184 C170 1.249 . S
O185 U166 2.420 . S
O185 C170 1.202 . S
O186 U166 2.455 1_554 S
O186 C183 1.301 . S
O187 U166 2.449 1_554 S
O187 C183 1.282 . S
H188 C161 0.931 . S
H189 C163 0.929 . S
H190 C164 0.930 . S
H191 C165 0.931 . S
H192 C172 0.932 . S
H193 C173 0.930 . S
H194 C174 0.929 . S
H195 C176 0.930 . S
H196 C178 0.932 . S
H197 C179 0.929 . S
H198 C180 0.928 . S
H199 C182 0.932 . S
C200 C201 1.264 . S
C200 C205 1.479 . S
C200 C210 1.465 . S
C201 C200 1.264 . S
C201 C203 1.339 . S
C201 H228 0.931 . S
C202 C203 1.395 . S
C202 C204 1.320 . S
C203 C201 1.339 . S
C203 C202 1.395 . S
C203 H229 0.929 . S
C204 C202 1.320 . S
C204 C205 1.405 . S
C204 H230 0.930 . S
C205 C200 1.479 . S
C205 C204 1.405 . S
C205 H231 0.931 . S
U206 O207 2.454 . S
U206 O208 2.458 . S
U206 C209 2.984 . S
U206 C210 2.847 1_554 S
U206 C223 2.882 . S
U206 O224 2.441 1_554 S
U206 O225 2.420 . S
U206 O226 2.455 . S
U206 O227 2.449 . S
O207 U206 2.454 . S
O207 C209 1.353 . S
O208 U206 2.458 . S
O208 C209 1.286 . S
C209 U206 2.984 . S
C209 O207 1.353 . S
C209 O208 1.286 . S
C209 C211 1.363 . S
C210 C200 1.465 . S
C210 U206 2.847 1_556 S
C210 O224 1.249 . S
C210 O225 1.202 1_556 S
C211 C209 1.363 . S
C211 C213 1.408 . S
C211 C216 1.342 . S
C212 C213 1.310 . S
C212 C215 1.461 . S
C212 H232 0.932 . S
C213 C211 1.408 . S
C213 C212 1.310 . S
C213 H233 0.930 . S
C214 C215 1.474 . S
C214 C216 1.285 . S
C214 H234 0.929 . S
C215 C212 1.461 . S
C215 C214 1.474 . S
C216 C211 1.342 . S
C216 C214 1.285 . S
C216 H235 0.930 . S
C217 C220 1.424 . S
C217 C222 1.245 . S
C217 C223 1.428 . S
C218 C221 1.260 . S
C218 C222 1.477 . S
C218 H236 0.932 . S
C219 C220 1.384 . S
C219 C221 1.479 . S
C219 H237 0.929 . S
C220 C217 1.424 . S
C220 C219 1.384 . S
C220 H238 0.928 . S
C221 C218 1.260 . S
C221 C219 1.479 . S
C222 C217 1.245 . S
C222 C218 1.477 . S
C222 H239 0.932 . S
C223 U206 2.882 . S
C223 C217 1.428 . S
C223 O226 1.301 . S
C223 O227 1.282 . S
O224 U206 2.441 1_556 S
O224 C210 1.249 . S
O225 U206 2.420 . S
O225 C210 1.202 1_554 S
O226 U206 2.455 . S
O226 C223 1.301 . S
O227 U206 2.449 . S
O227 C223 1.282 . S
H228 C201 0.931 . S
H229 C203 0.929 . S
H230 C204 0.930 . S
H231 C205 0.931 . S
H232 C212 0.932 . S
H233 C213 0.930 . S
H234 C214 0.929 . S
H235 C216 0.930 . S
H236 C218 0.932 . S
H237 C219 0.929 . S
H238 C220 0.928 . S
H239 C222 0.932 . S
C240 C241 1.264 . S
C240 C245 1.479 . S
C240 C250 1.465 1_556 S
C241 C240 1.264 . S
C241 C243 1.339 . S
C241 H268 0.931 . S
C242 C243 1.395 . S
C242 C244 1.320 . S
C243 C241 1.339 . S
C243 C242 1.395 . S
C243 H269 0.929 . S
C244 C242 1.320 . S
C244 C245 1.405 . S
C244 H270 0.921 1_545 S
C245 C240 1.479 . S
C245 C244 1.405 . S
C245 H271 0.931 . S
U246 O247 2.454 . S
U246 O248 2.458 . S
U246 C249 2.984 . S
U246 C250 2.847 . S
U246 C263 2.882 . S
U246 O264 2.441 . S
U246 O265 2.420 . S
U246 O266 2.455 . S
U246 O267 2.449 . S
O247 U246 2.454 . S
O247 C249 1.353 . S
O248 U246 2.458 . S
O248 C249 1.286 . S
C249 U246 2.984 . S
C249 O247 1.353 . S
C249 O248 1.286 . S
C249 C251 1.363 . S
C250 C240 1.465 1_554 S
C250 U246 2.847 . S
C250 O264 1.249 . S
C250 O265 1.202 . S
C251 C249 1.363 . S
C251 C253 1.408 . S
C251 C256 1.342 . S
C252 C253 1.310 . S
C252 C255 1.463 . S
C252 H272 0.932 . S
C253 C251 1.408 . S
C253 C252 1.310 . S
C253 H273 0.930 . S
C254 C255 1.475 1_565 S
C254 C256 1.285 1_565 S
C254 H274 0.929 . S
C255 C252 1.463 . S
C255 C254 1.475 1_545 S
C256 C251 1.342 . S
C256 C254 1.285 1_545 S
C256 H275 0.930 . S
C257 C260 1.424 . S
C257 C262 1.245 . S
C257 C263 1.428 . S
C258 C261 1.260 . S
C258 C262 1.477 . S
C258 H276 0.932 . S
C259 C260 1.384 . S
C259 C261 1.479 . S
C259 H277 0.929 . S
C260 C257 1.424 . S
C260 C259 1.384 . S
C260 H278 0.928 . S
C261 C258 1.260 . S
C261 C259 1.479 . S
C262 C257 1.245 . S
C262 C258 1.477 . S
C262 H279 0.932 . S
C263 U246 2.882 . S
C263 C257 1.428 . S
C263 O266 1.301 . S
C263 O267 1.282 . S
O264 U246 2.441 . S
O264 C250 1.249 . S
O265 U246 2.420 . S
O265 C250 1.202 . S
O266 U246 2.455 . S
O266 C263 1.301 . S
O267 U246 2.449 . S
O267 C263 1.282 . S
H268 C241 0.931 . S
H269 C243 0.929 . S
H270 C244 0.921 1_565 S
H271 C245 0.931 . S
H272 C252 0.932 . S
H273 C253 0.930 . S
H274 C254 0.929 . S
H275 C256 0.930 . S
H276 C258 0.932 . S
H277 C259 0.929 . S
H278 C260 0.928 . S
H279 C262 0.932 . S
C280 C281 1.264 . S
C280 C285 1.479 . S
C280 C290 1.465 . S
C281 C280 1.264 . S
C281 C283 1.339 . S
C281 H308 0.931 . S
C282 C283 1.395 . S
C282 C284 1.320 . S
C283 C281 1.339 . S
C283 C282 1.395 . S
C283 H309 0.929 . S
C284 C282 1.320 . S
C284 C285 1.405 . S
C284 H310 0.930 1_554 S
C285 C280 1.479 . S
C285 C284 1.405 . S
C285 H311 0.931 . S
U286 O287 2.454 . S
U286 O288 2.458 . S
U286 C289 2.984 . S
U286 C290 2.847 . S
U286 C303 2.882 . S
U286 O304 2.441 . S
U286 O305 2.420 . S
U286 O306 2.455 . S
U286 O307 2.449 . S
O287 U286 2.454 . S
O287 C289 1.353 . S
O288 U286 2.458 . S
O288 C289 1.286 . S
C289 U286 2.984 . S
C289 O287 1.353 . S
C289 O288 1.286 . S
C289 C291 1.363 . S
C290 C280 1.465 . S
C290 U286 2.847 . S
C290 O304 1.249 . S
C290 O305 1.202 . S
C291 C289 1.363 . S
C291 C293 1.408 . S
C291 C296 1.342 . S
C292 C293 1.310 . S
C292 C295 1.461 . S
C292 H312 0.932 . S
C293 C291 1.408 . S
C293 C292 1.310 . S
C293 H313 0.930 . S
C294 C295 1.474 . S
C294 C296 1.285 . S
C294 H314 0.929 . S
C295 C292 1.461 . S
C295 C294 1.474 . S
C296 C291 1.342 . S
C296 C294 1.285 . S
C296 H315 0.930 . S
C297 C300 1.424 . S
C297 C302 1.245 . S
C297 C303 1.428 . S
C298 C301 1.260 . S
C298 C302 1.477 . S
C298 H316 0.932 . S
C299 C300 1.384 . S
C299 C301 1.479 . S
C299 H317 0.929 . S
C300 C297 1.424 . S
C300 C299 1.384 . S
C300 H318 0.928 . S
C301 C298 1.260 . S
C301 C299 1.479 . S
C302 C297 1.245 . S
C302 C298 1.477 . S
C302 H319 0.932 . S
C303 U286 2.882 . S
C303 C297 1.428 . S
C303 O306 1.301 . S
C303 O307 1.282 . S
O304 U286 2.441 . S
O304 C290 1.249 . S
O305 U286 2.420 . S
O305 C290 1.202 . S
O306 U286 2.455 . S
O306 C303 1.301 . S
O307 U286 2.449 . S
O307 C303 1.282 . S
H308 C281 0.931 . S
H309 C283 0.929 . S
H310 C284 0.930 1_556 S
H311 C285 0.931 . S
H312 C292 0.932 . S
H313 C293 0.930 . S
H314 C294 0.929 . S
H315 C296 0.930 . S
H316 C298 0.932 . S
H317 C299 0.929 . S
H318 C300 0.928 . S
H319 C302 0.932 . S
Dy320 O323 2.307 1_545 S
Dy320 O325 2.395 1_655 S
Dy320 O326 2.379 . S
Dy320 O328 2.339 . S
Dy320 O330 2.298 . S
Dy320 O334 2.275 1_655 S
Dy320 C342 2.738 . S
Dy321 O324 2.298 . S
Dy321 O327 2.275 1_455 S
Dy321 O329 2.307 1_565 S
Dy321 O331 2.387 1_455 S
Dy321 O332 2.379 . S
Dy321 O335 2.339 . S
Dy321 C351 2.738 . S
C322 O334 1.254 1_565 S
C322 O335 1.257 . S
O323 Dy320 2.307 1_565 S
O323 C333 1.266 . S
O324 Dy321 2.298 . S
O324 C333 1.236 1_455 S
O325 Dy320 2.395 1_455 S
O325 C342 1.255 1_455 S
O326 Dy320 2.379 . S
O326 C342 1.249 . S
O327 Dy321 2.275 1_655 S
O327 C343 1.254 1_565 S
O328 Dy320 2.339 . S
O328 C343 1.257 . S
O329 Dy321 2.307 1_545 S
O329 C344 1.266 . S
O330 Dy320 2.298 . S
O330 C344 1.236 1_655 S
O331 Dy321 2.387 1_655 S
O331 C351 1.238 1_655 S
O332 Dy321 2.379 . S
O332 C351 1.249 . S
C333 O323 1.266 . S
C333 O324 1.236 1_655 S
O334 Dy320 2.275 1_455 S
O334 C322 1.254 1_545 S
O335 Dy321 2.339 . S
O335 C322 1.257 . S
C336 C339 1.326 1_655 S
C336 C340 1.328 . S
C336 C342 1.516 . S
C337 C338 1.304 . S
C337 C341 1.323 . S
C338 C337 1.304 . S
C338 C339 1.369 1_655 S
C338 H352 0.930 1_655 S
C339 C336 1.326 1_455 S
C339 C338 1.369 1_455 S
C339 H353 0.951 . S
C340 C336 1.328 . S
C340 C341 1.433 . S
C340 H354 0.931 . S
C341 C337 1.323 . S
C341 C340 1.433 . S
C341 H355 0.933 . S
C342 Dy320 2.738 . S
C342 O325 1.255 1_655 S
C342 O326 1.249 . S
C342 C336 1.516 . S
C343 O327 1.254 1_545 S
C343 O328 1.257 . S
C344 O329 1.266 . S
C344 O330 1.236 1_455 S
C345 C348 1.344 . S
C345 C349 1.328 . S
C345 C351 1.516 . S
C346 C347 1.304 . S
C346 C350 1.323 . S
C347 C346 1.304 . S
C347 C348 1.371 1_554 S
C347 H356 0.930 1_455 S
C348 C345 1.344 . S
C348 C347 1.371 1_556 S
C348 H357 0.931 1_455 S
C349 C345 1.328 . S
C349 C350 1.433 1_556 S
C349 H358 0.931 . S
C350 C346 1.323 . S
C350 C349 1.433 1_554 S
C350 H359 0.933 . S
C351 Dy321 2.738 . S
C351 O331 1.238 1_455 S
C351 O332 1.249 . S
C351 C345 1.516 . S
H352 C338 0.930 1_455 S
H353 C339 0.951 . S
H354 C340 0.931 . S
H355 C341 0.933 . S
H356 C347 0.930 1_655 S
H357 C348 0.931 1_655 S
H358 C349 0.931 . S
H359 C350 0.933 . S
Dy360 O363 2.307 . S
Dy360 O365 2.395 1_565 S
Dy360 O366 2.379 . S
Dy360 O368 2.339 . S
Dy360 O370 2.298 . S
Dy360 O374 2.275 1_565 S
Dy360 C382 2.738 . S
Dy361 O364 2.298 . S
Dy361 O367 2.275 1_545 S
Dy361 O369 2.307 . S
Dy361 O371 2.395 1_545 S
Dy361 O372 2.379 . S
Dy361 O375 2.339 . S
Dy361 C391 2.738 . S
C362 O374 1.254 . S
C362 O375 1.257 . S
O363 Dy360 2.307 . S
O363 C373 1.266 . S
O364 Dy361 2.298 . S
O364 C373 1.236 1_545 S
O365 Dy360 2.395 1_545 S
O365 C382 1.255 1_545 S
O366 Dy360 2.379 . S
O366 C382 1.249 . S
O367 Dy361 2.275 1_565 S
O367 C383 1.254 . S
O368 Dy360 2.339 . S
O368 C383 1.257 . S
O369 Dy361 2.307 . S
O369 C384 1.266 . S
O370 Dy360 2.298 . S
O370 C384 1.236 1_565 S
O371 Dy361 2.395 1_565 S
O371 C391 1.255 1_565 S
O372 Dy361 2.379 . S
O372 C391 1.249 . S
C373 O363 1.266 . S
C373 O364 1.236 1_565 S
O374 Dy360 2.275 1_545 S
O374 C362 1.254 . S
O375 Dy361 2.339 . S
O375 C362 1.257 . S
C376 C379 1.341 . S
C376 C380 1.328 . S
C376 C382 1.516 . S
C377 C378 1.304 . S
C377 C381 1.323 . S
C378 C377 1.304 . S
C378 C379 1.370 . S
C378 H392 0.930 1_565 S
C379 C376 1.341 . S
C379 C378 1.370 . S
C379 H393 0.934 1_565 S
C380 C376 1.328 . S
C380 C381 1.433 . S
C380 H394 0.931 . S
C381 C377 1.323 . S
C381 C380 1.433 . S
C381 H395 0.933 . S
C382 Dy360 2.738 . S
C382 O365 1.255 1_565 S
C382 O366 1.249 . S
C382 C376 1.516 . S
C383 O367 1.254 . S
C383 O368 1.257 . S
C384 O369 1.266 . S
C384 O370 1.236 1_545 S
C385 C388 1.349 . S
C385 C389 1.328 . S
C385 C391 1.516 . S
C386 C387 1.304 1_554 S
C386 C390 1.323 . S
C387 C386 1.304 1_556 S
C387 C388 1.372 . S
C387 H396 0.930 1_545 S
C388 C385 1.349 . S
C388 C387 1.372 . S
C388 H397 0.926 1_545 S
C389 C385 1.328 . S
C389 C390 1.433 1_556 S
C389 H398 0.931 . S
C390 C386 1.323 . S
C390 C389 1.433 1_554 S
C390 H399 0.933 . S
C391 Dy361 2.738 . S
C391 O371 1.255 1_545 S
C391 O372 1.249 . S
C391 C385 1.516 . S
H392 C378 0.930 1_545 S
H393 C379 0.934 1_545 S
H394 C380 0.931 . S
H395 C381 0.933 . S
H396 C387 0.930 1_565 S
H397 C388 0.926 1_565 S
H398 C389 0.931 . S
H399 C390 0.933 . S
Dy400 O403 2.307 . S
Dy400 O405 2.395 . S
Dy400 O406 2.379 . S
Dy400 O408 2.339 . S
Dy400 O410 2.298 . S
Dy400 O414 2.275 . S
Dy400 C422 2.738 . S
Dy401 O404 2.298 . S
Dy401 O407 2.275 . S
Dy401 O409 2.307 . S
Dy401 O411 2.395 . S
Dy401 O412 2.379 . S
Dy401 O415 2.339 . S
Dy401 C431 2.738 . S
C402 O414 1.254 . S
C402 O415 1.257 . S
O403 Dy400 2.307 . S
O403 C413 1.266 . S
O404 Dy401 2.298 . S
O404 C413 1.236 . S
O405 Dy400 2.395 . S
O405 C422 1.255 . S
O406 Dy400 2.379 . S
O406 C422 1.249 . S
O407 Dy401 2.275 . S
O407 C423 1.254 . S
O408 Dy400 2.339 . S
O408 C423 1.257 . S
O409 Dy401 2.307 . S
O409 C424 1.266 . S
O410 Dy400 2.298 . S
O410 C424 1.236 . S
O411 Dy401 2.395 . S
O411 C431 1.255 . S
O412 Dy401 2.379 . S
O412 C431 1.249 . S
C413 O403 1.266 . S
C413 O404 1.236 . S
O414 Dy400 2.275 . S
O414 C402 1.254 . S
O415 Dy401 2.339 . S
O415 C402 1.257 . S
C416 C419 1.344 . S
C416 C420 1.328 . S
C416 C422 1.516 . S
C417 C418 1.304 1_556 S
C417 C421 1.323 . S
C418 C417 1.304 1_554 S
C418 C419 1.371 1_554 S
C418 H432 0.930 . S
C419 C416 1.344 . S
C419 C418 1.371 1_556 S
C419 H433 0.931 . S
C420 C416 1.328 . S
C420 C421 1.433 . S
C420 H434 0.931 . S
C421 C417 1.323 . S
C421 C420 1.433 . S
C421 H435 0.933 . S
C422 Dy400 2.738 . S
C422 O405 1.255 . S
C422 O406 1.249 . S
C422 C416 1.516 . S
C423 O407 1.254 . S
C423 O408 1.257 . S
C424 O409 1.266 . S
C424 O410 1.236 . S
C425 C428 1.344 . S
C425 C429 1.328 . S
C425 C431 1.516 . S
C426 C427 1.304 . S
C426 C430 1.323 . S
C427 C426 1.304 . S
C427 C428 1.371 . S
C427 H436 0.930 . S
C428 C425 1.344 . S
C428 C427 1.371 . S
C428 H437 0.931 . S
C429 C425 1.328 . S
C429 C430 1.433 . S
C429 H438 0.931 . S
C430 C426 1.323 . S
C430 C429 1.433 . S
C430 H439 0.933 . S
C431 Dy401 2.738 . S
C431 O411 1.255 . S
C431 O412 1.249 . S
C431 C425 1.516 . S
H432 C418 0.930 . S
H433 C419 0.931 . S
H434 C420 0.931 . S
H435 C421 0.933 . S
H436 C427 0.930 . S
H437 C428 0.931 . S
H438 C429 0.931 . S
H439 C430 0.933 . S
Dy440 O443 2.307 1_455 S
Dy440 O445 2.395 . S
Dy440 O446 2.379 . S
Dy440 O448 2.339 . S
Dy440 O450 2.298 . S
Dy440 O454 2.275 . S
Dy440 C462 2.738 . S
Dy441 O444 2.298 . S
Dy441 O447 2.275 . S
Dy441 O449 2.307 1_655 S
Dy441 O451 2.395 . S
Dy441 O452 2.379 . S
Dy441 O455 2.339 . S
Dy441 C471 2.738 . S
C442 O454 1.241 1_655 S
C442 O455 1.274 . S
O443 Dy440 2.307 1_655 S
O443 C453 1.266 . S
O444 Dy441 2.298 . S
O444 C453 1.236 . S
O445 Dy440 2.395 . S
O445 C462 1.255 . S
O446 Dy440 2.379 . S
O446 C462 1.249 . S
O447 Dy441 2.275 . S
O447 C463 1.254 1_655 S
O448 Dy440 2.339 . S
O448 C463 1.257 . S
O449 Dy441 2.307 1_455 S
O449 C464 1.266 . S
O450 Dy440 2.298 . S
O450 C464 1.236 . S
O451 Dy441 2.395 . S
O451 C471 1.255 . S
O452 Dy441 2.379 . S
O452 C471 1.249 . S
C453 O443 1.266 . S
C453 O444 1.236 . S
O454 Dy440 2.275 . S
O454 C442 1.241 1_455 S
O455 Dy441 2.339 . S
O455 C442 1.274 . S
C456 C459 1.344 . S
C456 C460 1.328 . S
C456 C462 1.516 . S
C457 C458 1.304 . S
C457 C461 1.323 . S
C458 C457 1.304 . S
C458 C459 1.371 . S
C458 H472 0.930 . S
C459 C456 1.344 . S
C459 C458 1.371 . S
C459 H473 0.931 . S
C460 C456 1.328 . S
C460 C461 1.433 . S
C460 H474 0.931 . S
C461 C457 1.323 . S
C461 C460 1.433 . S
C461 H475 0.933 . S
C462 Dy440 2.738 . S
C462 O445 1.255 . S
C462 O446 1.249 . S
C462 C456 1.516 . S
C463 O447 1.254 1_455 S
C463 O448 1.257 . S
C464 O449 1.266 . S
C464 O450 1.236 . S
C465 C468 1.344 1_556 S
C465 C469 1.328 . S
C465 C471 1.516 . S
C466 C467 1.304 . S
C466 C470 1.323 . S
C467 C466 1.304 . S
C467 C468 1.371 . S
C467 H476 0.930 . S
C468 C465 1.344 1_554 S
C468 C467 1.371 . S
C468 H477 0.931 . S
C469 C465 1.328 . S
C469 C470 1.433 1_556 S
C469 H478 0.931 . S
C470 C466 1.323 . S
C470 C469 1.433 1_554 S
C470 H479 0.933 . S
C471 Dy441 2.738 . S
C471 O451 1.255 . S
C471 O452 1.249 . S
C471 C465 1.516 . S
H472 C458 0.930 . S
H473 C459 0.931 . S
H474 C460 0.931 . S
H475 C461 0.933 . S
H476 C467 0.930 . S
H477 C468 0.931 . S
H478 C469 0.931 . S
H479 C470 0.933 . S
C480 C481 1.352 1_565 S
C480 C482 1.419 . S
C480 H484 0.930 . S
C481 C480 1.352 1_545 S
C481 C490 1.444 . S
C482 C480 1.419 . S
C482 C483 1.363 1_565 S
C482 H485 0.929 . S
C483 C482 1.363 1_545 S
C483 C489 1.428 . S
H484 C480 0.930 . S
H485 C482 0.929 . S
S486 N487 1.613 . S
S486 N488 1.610 . S
N487 S486 1.613 . S
N487 C490 1.350 . S
N488 S486 1.610 . S
N488 C489 1.351 . S
C489 C483 1.428 . S
C489 N488 1.351 . S
C489 C490 1.434 . S
C490 C481 1.444 . S
C490 N487 1.350 . S
C490 C489 1.434 . S
C491 C492 1.369 . S
C491 C493 1.419 . S
C491 H495 0.930 . S
C492 C491 1.369 . S
C492 C501 1.429 . S
C493 C491 1.419 . S
C493 C494 1.363 . S
C493 H496 0.929 . S
C494 C493 1.363 . S
C494 C500 1.428 . S
H495 C491 0.930 . S
H496 C493 0.929 . S
S497 N498 1.613 . S
S497 N499 1.610 . S
N498 S497 1.613 . S
N498 C501 1.350 . S
N499 S497 1.610 . S
N499 C500 1.351 . S
C500 C494 1.428 . S
C500 N499 1.351 . S
C500 C501 1.434 . S
C501 C492 1.429 . S
C501 N498 1.350 . S
C501 C500 1.434 . S
C502 C503 1.369 . S
C502 C504 1.419 . S
C502 H506 0.930 . S
C503 C502 1.369 . S
C503 C512 1.429 . S
C504 C502 1.419 . S
C504 C505 1.363 . S
C504 H507 0.929 . S
C505 C504 1.363 . S
C505 C511 1.428 . S
H506 C502 0.930 . S
H507 C504 0.929 . S
S508 N509 1.613 . S
S508 N510 1.610 . S
N509 S508 1.613 . S
N509 C512 1.350 . S
N510 S508 1.610 . S
N510 C511 1.351 . S
C511 C505 1.428 . S
C511 N510 1.351 . S
C511 C512 1.434 . S
C512 C503 1.429 . S
C512 N509 1.350 . S
C512 C511 1.434 . S
C513 C514 1.369 . S
C513 C515 1.419 . S
C513 H517 0.930 . S
C514 C513 1.369 . S
C514 C523 1.429 1_455 S
C515 C513 1.419 . S
C515 C516 1.363 . S
C515 H518 0.929 . S
C516 C515 1.363 . S
C516 C522 1.428 1_455 S
H517 C513 0.930 . S
H518 C515 0.929 . S
S519 N520 1.613 . S
S519 N521 1.610 . S
N520 S519 1.613 . S
N520 C523 1.350 . S
N521 S519 1.610 . S
N521 C522 1.351 . S
C522 C516 1.428 1_655 S
C522 N521 1.351 . S
C522 C523 1.434 . S
C523 C514 1.429 1_655 S
C523 N520 1.350 . S
C523 C522 1.434 . S
C524 C525 1.350 1_545 S
C524 C526 1.419 . S
C524 H528 0.930 . S
C525 C524 1.350 1_565 S
C525 C534 1.446 . S
C526 C524 1.419 . S
C526 C527 1.333 1_544 S
C526 H529 0.929 1_554 S
C527 C526 1.333 1_566 S
C527 C533 1.463 . S
H528 C524 0.930 . S
H529 C526 0.929 1_556 S
S530 N531 1.613 1_556 S
S530 N532 1.610 . S
N531 S530 1.613 1_554 S
N531 C534 1.350 . S
N532 S530 1.610 . S
N532 C533 1.351 . S
C533 C527 1.463 . S
C533 N532 1.351 . S
C533 C534 1.434 1_556 S
C534 C525 1.446 . S
C534 N531 1.350 . S
C534 C533 1.434 1_554 S
C535 C536 1.369 1_554 S
C535 C537 1.419 1_554 S
C535 H539 0.930 . S
C536 C535 1.369 1_556 S
C536 C545 1.429 . S
C537 C535 1.419 1_556 S
C537 C538 1.363 . S
C537 H540 0.929 . S
C538 C537 1.363 . S
C538 C544 1.428 . S
H539 C535 0.930 . S
H540 C537 0.929 . S
S541 N542 1.613 . S
S541 N543 1.610 . S
N542 S541 1.613 . S
N542 C545 1.350 . S
N543 S541 1.610 . S
N543 C544 1.351 . S
C544 C538 1.428 . S
C544 N543 1.351 . S
C544 C545 1.434 . S
C545 C536 1.429 . S
C545 N542 1.350 . S
C545 C544 1.434 . S
C546 C547 1.369 . S
C546 C548 1.419 . S
C546 H550 0.930 . S
C547 C546 1.369 . S
C547 C556 1.429 . S
C548 C546 1.419 . S
C548 C549 1.363 . S
C548 H551 0.929 . S
C549 C548 1.363 . S
C549 C555 1.428 . S
H550 C546 0.930 . S
H551 C548 0.929 . S
S552 N553 1.613 . S
S552 N554 1.610 . S
N553 S552 1.613 . S
N553 C556 1.350 . S
N554 S552 1.610 . S
N554 C555 1.351 . S
C555 C549 1.428 . S
C555 N554 1.351 . S
C555 C556 1.434 . S
C556 C547 1.429 . S
C556 N553 1.350 . S
C556 C555 1.434 . S
C557 C558 1.385 . S
C557 C559 1.419 . S
C557 H561 0.930 . S
C558 C557 1.385 . S
C558 C567 1.419 1_655 S
C559 C557 1.419 . S
C559 C560 1.374 1_554 S
C559 H562 0.929 . S
C560 C559 1.374 1_556 S
C560 C566 1.413 1_656 S
H561 C557 0.930 . S
H562 C559 0.929 . S
S563 N564 1.613 . S
S563 N565 1.610 . S
N564 S563 1.613 . S
N564 C567 1.350 . S
N565 S563 1.610 . S
N565 C566 1.351 . S
C566 C560 1.413 1_454 S
C566 N565 1.351 . S
C566 C567 1.434 . S
C567 C558 1.419 1_455 S
C567 N564 1.350 . S
C567 C566 1.434 . S
C568 C569 1.369 . S
C568 C570 1.419 1_455 S
C568 H572 0.930 . S
C569 C568 1.369 . S
C569 C578 1.429 1_455 S
C570 C568 1.419 1_655 S
C570 C571 1.363 . S
C570 H573 0.941 . S
C571 C570 1.363 . S
C571 C577 1.428 . S
H572 C568 0.930 . S
H573 C570 0.941 . S
S574 N575 1.613 . S
S574 N576 1.610 . S
N575 S574 1.613 . S
N575 C578 1.350 . S
N576 S574 1.610 . S
N576 C577 1.351 . S
C577 C571 1.428 . S
C577 N576 1.351 . S
C577 C578 1.434 . S
C578 C569 1.429 1_655 S
C578 N575 1.350 . S
C578 C577 1.434 . S
C579 C580 1.369 . S
C579 C581 1.419 . S
C579 H583 0.930 . S
C580 C579 1.369 . S
C580 C589 1.429 1_565 S
C581 C579 1.419 . S
C581 C582 1.363 . S
C581 H584 0.929 . S
C582 C581 1.363 . S
C582 C588 1.428 . S
H583 C579 0.930 . S
H584 C581 0.929 . S
S585 N586 1.613 . S
S585 N587 1.610 . S
N586 S585 1.613 . S
N586 C589 1.350 . S
N587 S585 1.610 . S
N587 C588 1.351 1_545 S
C588 C582 1.428 . S
C588 N587 1.351 1_565 S
C588 C589 1.434 1_565 S
C589 C580 1.429 1_545 S
C589 N586 1.350 . S
C589 C588 1.434 1_545 S
C590 C591 1.369 . S
C590 C592 1.419 . S
C590 H594 0.930 . S
C591 C590 1.369 . S
C591 C600 1.429 . S
C592 C590 1.419 . S
C592 C593 1.363 . S
C592 H595 0.929 . S
C593 C592 1.363 . S
C593 C599 1.428 . S
H594 C590 0.930 . S
H595 C592 0.929 . S
S596 N597 1.613 . S
S596 N598 1.610 . S
N597 S596 1.613 . S
N597 C600 1.350 . S
N598 S596 1.610 . S
N598 C599 1.351 . S
C599 C593 1.428 . S
C599 N598 1.351 . S
C599 C600 1.434 . S
C600 C591 1.429 . S
C600 N597 1.350 . S
C600 C599 1.434 . S
C601 C602 1.369 . S
C601 C603 1.419 . S
C601 H605 0.930 . S
C602 C601 1.369 . S
C602 C611 1.429 . S
C603 C601 1.419 . S
C603 C604 1.363 . S
C603 H606 0.929 . S
C604 C603 1.363 . S
C604 C610 1.428 . S
H605 C601 0.930 . S
H606 C603 0.929 . S
S607 N608 1.613 . S
S607 N609 1.610 . S
N608 S607 1.613 . S
N608 C611 1.350 . S
N609 S607 1.610 . S
N609 C610 1.351 . S
C610 C604 1.428 . S
C610 N609 1.351 . S
C610 C611 1.434 . S
C611 C602 1.429 . S
C611 N608 1.350 . S
C611 C610 1.434 . S
C612 C613 1.369 1_455 S
C612 C614 1.419 . S
C612 H616 0.930 . S
C613 C612 1.369 1_655 S
C613 C622 1.429 . S
C614 C612 1.419 . S
C614 C615 1.363 . S
C614 H617 0.929 . S
C615 C614 1.363 . S
C615 C621 1.428 . S
H616 C612 0.930 . S
H617 C614 0.929 . S
S618 N619 1.613 . S
S618 N620 1.610 . S
N619 S618 1.613 . S
N619 C622 1.350 . S
N620 S618 1.610 . S
N620 C621 1.351 1_655 S
C621 C615 1.428 . S
C621 N620 1.351 1_455 S
C621 C622 1.434 1_455 S
C622 C613 1.429 . S
C622 N619 1.350 . S
C622 C621 1.434 1_655 S
C623 C624 1.369 1_565 S
C623 C625 1.419 1_565 S
C623 H627 0.930 . S
C624 C623 1.369 1_545 S
C624 C633 1.429 1_554 S
C625 C623 1.419 1_545 S
C625 C626 1.363 . S
C625 H628 0.929 . S
C626 C625 1.363 . S
C626 C632 1.428 1_554 S
H627 C623 0.930 . S
H628 C625 0.929 . S
S629 N630 1.613 . S
S629 N631 1.610 . S
N630 S629 1.613 . S
N630 C633 1.350 . S
N631 S629 1.610 . S
N631 C632 1.351 . S
C632 C626 1.428 1_556 S
C632 N631 1.351 . S
C632 C633 1.434 . S
C633 C624 1.429 1_556 S
C633 N630 1.350 . S
C633 C632 1.434 . S
C634 C635 1.369 . S
C634 C636 1.419 . S
C634 H638 0.930 . S
C635 C634 1.369 . S
C635 C644 1.429 . S
C636 C634 1.419 . S
C636 C637 1.363 . S
C636 H639 0.929 . S
C637 C636 1.363 . S
C637 C643 1.428 . S
H638 C634 0.930 . S
H639 C636 0.929 . S
S640 N641 1.613 . S
S640 N642 1.610 . S
N641 S640 1.613 . S
N641 C644 1.350 . S
N642 S640 1.610 . S
N642 C643 1.351 . S
C643 C637 1.428 . S
C643 N642 1.351 . S
C643 C644 1.434 . S
C644 C635 1.429 . S
C644 N641 1.350 . S
C644 C643 1.434 . S
C645 C646 1.369 . S
C645 C647 1.419 . S
C645 H649 0.930 . S
C646 C645 1.369 . S
C646 C655 1.429 . S
C647 C645 1.419 . S
C647 C648 1.363 . S
C647 H650 0.929 . S
C648 C647 1.363 . S
C648 C654 1.428 . S
H649 C645 0.930 . S
H650 C647 0.929 . S
S651 N652 1.613 . S
S651 N653 1.610 . S
N652 S651 1.613 . S
N652 C655 1.350 . S
N653 S651 1.610 . S
N653 C654 1.351 . S
C654 C648 1.428 . S
C654 N653 1.351 . S
C654 C655 1.434 . S
C655 C646 1.429 . S
C655 N652 1.350 . S
C655 C654 1.434 . S
C656 C657 1.369 . S
C656 C658 1.419 . S
C656 H660 0.930 . S
C657 C656 1.369 . S
C657 C666 1.429 1_455 S
C658 C656 1.419 . S
C658 C659 1.363 . S
C658 H661 0.929 . S
C659 C658 1.363 . S
C659 C665 1.428 1_455 S
H660 C656 0.930 . S
H661 C658 0.929 . S
S662 N663 1.613 . S
S662 N664 1.610 . S
N663 S662 1.613 . S
N663 C666 1.350 . S
N664 S662 1.610 . S
N664 C665 1.351 . S
C665 C659 1.428 1_655 S
C665 N664 1.351 . S
C665 C666 1.434 . S
C666 C657 1.429 1_655 S
C666 N663 1.350 . S
C666 C665 1.434 . S
C667 C668 1.369 . S
C667 C669 1.419 . S
C667 H671 0.930 1_545 S
C668 C667 1.369 . S
C668 C677 1.429 . S
C669 C667 1.419 . S
C669 C670 1.363 . S
C669 H672 0.929 . S
C670 C669 1.363 . S
C670 C676 1.428 . S
H671 C667 0.930 1_565 S
H672 C669 0.929 . S
S673 N674 1.613 1_554 S
S673 N675 1.610 1_554 S
N674 S673 1.613 1_556 S
N674 C677 1.350 . S
N675 S673 1.610 1_556 S
N675 C676 1.351 . S
C676 C670 1.428 . S
C676 N675 1.351 . S
C676 C677 1.434 . S
C677 C668 1.429 . S
C677 N674 1.350 . S
C677 C676 1.434 . S
C678 C679 1.369 . S
C678 C680 1.419 . S
C678 H682 0.930 1_556 S
C679 C678 1.369 . S
C679 C688 1.429 . S
C680 C678 1.419 . S
C680 C681 1.363 . S
C680 H683 0.929 . S
C681 C680 1.363 . S
C681 C687 1.428 . S
H682 C678 0.930 1_554 S
H683 C680 0.929 . S
S684 N685 1.613 . S
S684 N686 1.610 . S
N685 S684 1.613 . S
N685 C688 1.350 . S
N686 S684 1.610 . S
N686 C687 1.351 . S
C687 C681 1.428 . S
C687 N686 1.351 . S
C687 C688 1.434 . S
C688 C679 1.429 . S
C688 N685 1.350 . S
C688 C687 1.434 . S
C689 C690 1.369 . S
C689 C691 1.419 . S
C689 H693 0.930 . S
C690 C689 1.369 . S
C690 C699 1.429 . S
C691 C689 1.419 . S
C691 C692 1.363 . S
C691 H694 0.929 . S
C692 C691 1.363 . S
C692 C698 1.428 . S
H693 C689 0.930 . S
H694 C691 0.929 . S
S695 N696 1.613 . S
S695 N697 1.610 . S
N696 S695 1.613 . S
N696 C699 1.350 . S
N697 S695 1.610 . S
N697 C698 1.351 . S
C698 C692 1.428 . S
C698 N697 1.351 . S
C698 C699 1.434 . S
C699 C690 1.429 . S
C699 N696 1.350 . S
C699 C698 1.434 . S
C700 C701 1.369 . S
C700 C702 1.419 . S
C700 H704 0.930 . S
C701 C700 1.369 . S
C701 C710 1.429 1_655 S
C702 C700 1.419 . S
C702 C703 1.363 . S
C702 H705 0.929 . S
C703 C702 1.363 . S
C703 C709 1.428 1_655 S
H704 C700 0.930 . S
H705 C702 0.929 . S
S706 N707 1.613 . S
S706 N708 1.610 . S
N707 S706 1.613 . S
N707 C710 1.350 . S
N708 S706 1.610 . S
N708 C709 1.351 . S
C709 C703 1.428 1_455 S
C709 N708 1.351 . S
C709 C710 1.434 . S
C710 C701 1.429 1_455 S
C710 N707 1.350 . S
C710 C709 1.434 . S
C711 C712 1.369 1_545 S
C711 C713 1.419 . S
C711 H715 0.930 . S
C712 C711 1.369 1_565 S
C712 C721 1.429 . S
C713 C711 1.419 . S
C713 C714 1.363 1_545 S
C713 H716 0.929 . S
C714 C713 1.363 1_565 S
C714 C720 1.428 . S
H715 C711 0.930 . S
H716 C713 0.929 . S
S717 N718 1.613 . S
S717 N719 1.610 . S
N718 S717 1.613 . S
N718 C721 1.350 . S
N719 S717 1.610 . S
N719 C720 1.351 . S
C720 C714 1.428 . S
C720 N719 1.351 . S
C720 C721 1.434 . S
C721 C712 1.429 . S
C721 N718 1.350 . S
C721 C720 1.434 . S
C722 C723 1.369 . S
C722 C724 1.419 . S
C722 H726 0.930 . S
C723 C722 1.369 . S
C723 C732 1.429 . S
C724 C722 1.419 . S
C724 C725 1.363 . S
C724 H727 0.929 . S
C725 C724 1.363 . S
C725 C731 1.428 . S
H726 C722 0.930 . S
H727 C724 0.929 . S
S728 N729 1.613 . S
S728 N730 1.610 . S
N729 S728 1.613 . S
N729 C732 1.350 . S
N730 S728 1.610 . S
N730 C731 1.351 . S
C731 C725 1.428 . S
C731 N730 1.351 . S
C731 C732 1.434 . S
C732 C723 1.429 . S
C732 N729 1.350 . S
C732 C731 1.434 . S
C733 C734 1.369 . S
C733 C735 1.419 . S
C733 H737 0.930 . S
C734 C733 1.369 . S
C734 C743 1.429 . S
C735 C733 1.419 . S
C735 C736 1.363 . S
C735 H738 0.929 . S
C736 C735 1.363 . S
C736 C742 1.428 . S
H737 C733 0.930 . S
H738 C735 0.929 . S
S739 N740 1.613 . S
S739 N741 1.610 . S
N740 S739 1.613 . S
N740 C743 1.350 . S
N741 S739 1.610 . S
N741 C742 1.351 . S
C742 C736 1.428 . S
C742 N741 1.351 . S
C742 C743 1.434 . S
C743 C734 1.429 . S
C743 N740 1.350 . S
C743 C742 1.434 . S
C481 C255 2.372 . S
C483 C322 2.549 1_545 S
C494 C362 2.343 . S
C492 C295 2.221 . S
C505 C426 3.076 . S
C503 C175 2.951 . S
C516 C442 2.939 1_455 S
C514 C215 2.584 . S
C527 C343 2.543 1_565 S
C525 C95 2.371 1_565 S
C536 C135 2.212 1_556 S
C538 C383 2.348 . S
C547 C15 2.948 . S
C549 C417 3.076 1_554 S
C558 C55 2.576 . S
C560 C463 2.941 1_655 S
C571 C337 0.670 . S
C569 C221 0.583 . S
C582 C377 0.860 . S
C580 C261 0.861 1_565 S
C593 C413 0.905 . S
C591 C301 0.945 . S
C602 C181 1.190 . S
C604 C457 1.029 . S
C613 C61 0.686 1_655 S
C615 C346 0.648 . S
C626 C386 0.860 . S
C624 C101 0.838 . S
C637 C424 0.889 . S
C635 C141 0.871 . S
C646 C21 1.028 . S
C648 C466 1.013 . S
C657 C202 3.245 . S
C659 C344 3.647 . S
C668 C242 3.070 . S
C670 C384 3.427 . S
C681 C402 2.325 . S
C679 C282 2.345 1_556 S
C692 C464 4.157 . S
C690 C162 3.722 . S
C701 C42 3.266 1_655 S
C703 C333 3.652 . S
C714 C373 3.426 . S
C712 C82 3.089 1_565 S
C725 C423 2.326 . S
C723 C122 2.277 . S
C734 C2 3.676 . S
C736 C453 4.158 . S
