# Generated by pormake.
# Topology gar, (4,6)-cn, num edge types: 1
# Building blocks:
#     Node 0, Type 0, BuildingBlock: QUQFOY_clean_sbu_3, # of connection points: 4
#     Node 1, Type 0, BuildingBlock: QUQFOY_clean_sbu_3, # of connection points: 4
#     Node 2, Type 0, BuildingBlock: QUQFOY_clean_sbu_3, # of connection points: 4
#     Node 3, Type 0, BuildingBlock: QUQFOY_clean_sbu_3, # of connection points: 4
#     Node 4, Type 0, BuildingBlock: QUQFOY_clean_sbu_3, # of connection points: 4
#     Node 5, Type 0, BuildingBlock: QUQFOY_clean_sbu_3, # of connection points: 4
#     Node 6, Type 0, BuildingBlock: QUQFOY_clean_sbu_3, # of connection points: 4
#     Node 7, Type 0, BuildingBlock: QUQFOY_clean_sbu_3, # of connection points: 4
#     Node 8, Type 0, BuildingBlock: QUQFOY_clean_sbu_3, # of connection points: 4
#     Node 9, Type 0, BuildingBlock: QUQFOY_clean_sbu_3, # of connection points: 4
#     Node 10, Type 0, BuildingBlock: QUQFOY_clean_sbu_3, # of connection points: 4
#     Node 11, Type 0, BuildingBlock: QUQFOY_clean_sbu_3, # of connection points: 4
#     Node 12, Type 0, BuildingBlock: QUQFOY_clean_sbu_3, # of connection points: 4
#     Node 13, Type 0, BuildingBlock: QUQFOY_clean_sbu_3, # of connection points: 4
#     Node 14, Type 0, BuildingBlock: QUQFOY_clean_sbu_3, # of connection points: 4
#     Node 15, Type 0, BuildingBlock: QUQFOY_clean_sbu_3, # of connection points: 4
#     Node 16, Type 0, BuildingBlock: QUQFOY_clean_sbu_3, # of connection points: 4
#     Node 17, Type 0, BuildingBlock: QUQFOY_clean_sbu_3, # of connection points: 4
#     Node 18, Type 0, BuildingBlock: QUQFOY_clean_sbu_3, # of connection points: 4
#     Node 19, Type 0, BuildingBlock: QUQFOY_clean_sbu_3, # of connection points: 4
#     Node 20, Type 0, BuildingBlock: QUQFOY_clean_sbu_3, # of connection points: 4
#     Node 21, Type 0, BuildingBlock: QUQFOY_clean_sbu_3, # of connection points: 4
#     Node 22, Type 0, BuildingBlock: QUQFOY_clean_sbu_3, # of connection points: 4
#     Node 23, Type 0, BuildingBlock: QUQFOY_clean_sbu_3, # of connection points: 4
#     Node 24, Type 1, BuildingBlock: KUMJIN_clean_sbu_1, # of connection points: 6
#     Node 25, Type 1, BuildingBlock: KUMJIN_clean_sbu_1, # of connection points: 6
#     Node 26, Type 1, BuildingBlock: KUMJIN_clean_sbu_1, # of connection points: 6
#     Node 27, Type 1, BuildingBlock: KUMJIN_clean_sbu_1, # of connection points: 6
#     Node 28, Type 1, BuildingBlock: KUMJIN_clean_sbu_1, # of connection points: 6
#     Node 29, Type 1, BuildingBlock: KUMJIN_clean_sbu_1, # of connection points: 6
#     Node 30, Type 1, BuildingBlock: KUMJIN_clean_sbu_1, # of connection points: 6
#     Node 31, Type 1, BuildingBlock: KUMJIN_clean_sbu_1, # of connection points: 6
#     Node 32, Type 1, BuildingBlock: KUMJIN_clean_sbu_1, # of connection points: 6
#     Node 33, Type 1, BuildingBlock: KUMJIN_clean_sbu_1, # of connection points: 6
#     Node 34, Type 1, BuildingBlock: KUMJIN_clean_sbu_1, # of connection points: 6
#     Node 35, Type 1, BuildingBlock: KUMJIN_clean_sbu_1, # of connection points: 6
#     Node 36, Type 1, BuildingBlock: KUMJIN_clean_sbu_1, # of connection points: 6
#     Node 37, Type 1, BuildingBlock: KUMJIN_clean_sbu_1, # of connection points: 6
#     Node 38, Type 1, BuildingBlock: KUMJIN_clean_sbu_1, # of connection points: 6
#     Node 39, Type 1, BuildingBlock: KUMJIN_clean_sbu_1, # of connection points: 6
#     Edge 40, Type (0, 1), BuildingBlock: MIFKUJ_clean_linker_0, # of connection points: 2
#     Edge 41, Type (0, 1), BuildingBlock: MIFKUJ_clean_linker_0, # of connection points: 2
#     Edge 42, Type (0, 1), BuildingBlock: MIFKUJ_clean_linker_0, # of connection points: 2
#     Edge 43, Type (0, 1), BuildingBlock: MIFKUJ_clean_linker_0, # of connection points: 2
#     Edge 44, Type (0, 1), BuildingBlock: MIFKUJ_clean_linker_0, # of connection points: 2
#     Edge 45, Type (0, 1), BuildingBlock: MIFKUJ_clean_linker_0, # of connection points: 2
#     Edge 46, Type (0, 1), BuildingBlock: MIFKUJ_clean_linker_0, # of connection points: 2
#     Edge 47, Type (0, 1), BuildingBlock: MIFKUJ_clean_linker_0, # of connection points: 2
#     Edge 48, Type (0, 1), BuildingBlock: MIFKUJ_clean_linker_0, # of connection points: 2
#     Edge 49, Type (0, 1), BuildingBlock: MIFKUJ_clean_linker_0, # of connection points: 2
#     Edge 50, Type (0, 1), BuildingBlock: MIFKUJ_clean_linker_0, # of connection points: 2
#     Edge 51, Type (0, 1), BuildingBlock: MIFKUJ_clean_linker_0, # of connection points: 2
#     Edge 52, Type (0, 1), BuildingBlock: MIFKUJ_clean_linker_0, # of connection points: 2
#     Edge 53, Type (0, 1), BuildingBlock: MIFKUJ_clean_linker_0, # of connection points: 2
#     Edge 54, Type (0, 1), BuildingBlock: MIFKUJ_clean_linker_0, # of connection points: 2
#     Edge 55, Type (0, 1), BuildingBlock: MIFKUJ_clean_linker_0, # of connection points: 2
#     Edge 56, Type (0, 1), BuildingBlock: MIFKUJ_clean_linker_0, # of connection points: 2
#     Edge 57, Type (0, 1), BuildingBlock: MIFKUJ_clean_linker_0, # of connection points: 2
#     Edge 58, Type (0, 1), BuildingBlock: MIFKUJ_clean_linker_0, # of connection points: 2
#     Edge 59, Type (0, 1), BuildingBlock: MIFKUJ_clean_linker_0, # of connection points: 2
#     Edge 60, Type (0, 1), BuildingBlock: MIFKUJ_clean_linker_0, # of connection points: 2
#     Edge 61, Type (0, 1), BuildingBlock: MIFKUJ_clean_linker_0, # of connection points: 2
#     Edge 62, Type (0, 1), BuildingBlock: MIFKUJ_clean_linker_0, # of connection points: 2
#     Edge 63, Type (0, 1), BuildingBlock: MIFKUJ_clean_linker_0, # of connection points: 2
#     Edge 64, Type (0, 1), BuildingBlock: MIFKUJ_clean_linker_0, # of connection points: 2
#     Edge 65, Type (0, 1), BuildingBlock: MIFKUJ_clean_linker_0, # of connection points: 2
#     Edge 66, Type (0, 1), BuildingBlock: MIFKUJ_clean_linker_0, # of connection points: 2
#     Edge 67, Type (0, 1), BuildingBlock: MIFKUJ_clean_linker_0, # of connection points: 2
#     Edge 68, Type (0, 1), BuildingBlock: MIFKUJ_clean_linker_0, # of connection points: 2
#     Edge 69, Type (0, 1), BuildingBlock: MIFKUJ_clean_linker_0, # of connection points: 2
#     Edge 70, Type (0, 1), BuildingBlock: MIFKUJ_clean_linker_0, # of connection points: 2
#     Edge 71, Type (0, 1), BuildingBlock: MIFKUJ_clean_linker_0, # of connection points: 2
#     Edge 72, Type (0, 1), BuildingBlock: MIFKUJ_clean_linker_0, # of connection points: 2
#     Edge 73, Type (0, 1), BuildingBlock: MIFKUJ_clean_linker_0, # of connection points: 2
#     Edge 74, Type (0, 1), BuildingBlock: MIFKUJ_clean_linker_0, # of connection points: 2
#     Edge 75, Type (0, 1), BuildingBlock: MIFKUJ_clean_linker_0, # of connection points: 2
#     Edge 76, Type (0, 1), BuildingBlock: MIFKUJ_clean_linker_0, # of connection points: 2
#     Edge 77, Type (0, 1), BuildingBlock: MIFKUJ_clean_linker_0, # of connection points: 2
#     Edge 78, Type (0, 1), BuildingBlock: MIFKUJ_clean_linker_0, # of connection points: 2
#     Edge 79, Type (0, 1), BuildingBlock: MIFKUJ_clean_linker_0, # of connection points: 2
#     Edge 80, Type (0, 1), BuildingBlock: MIFKUJ_clean_linker_0, # of connection points: 2
#     Edge 81, Type (0, 1), BuildingBlock: MIFKUJ_clean_linker_0, # of connection points: 2
#     Edge 82, Type (0, 1), BuildingBlock: MIFKUJ_clean_linker_0, # of connection points: 2
#     Edge 83, Type (0, 1), BuildingBlock: MIFKUJ_clean_linker_0, # of connection points: 2
#     Edge 84, Type (0, 1), BuildingBlock: MIFKUJ_clean_linker_0, # of connection points: 2
#     Edge 85, Type (0, 1), BuildingBlock: MIFKUJ_clean_linker_0, # of connection points: 2
#     Edge 86, Type (0, 1), BuildingBlock: MIFKUJ_clean_linker_0, # of connection points: 2
#     Edge 87, Type (0, 1), BuildingBlock: MIFKUJ_clean_linker_0, # of connection points: 2
#     Edge 88, Type (0, 1), BuildingBlock: MIFKUJ_clean_linker_0, # of connection points: 2
#     Edge 89, Type (0, 1), BuildingBlock: MIFKUJ_clean_linker_0, # of connection points: 2
#     Edge 90, Type (0, 1), BuildingBlock: MIFKUJ_clean_linker_0, # of connection points: 2
#     Edge 91, Type (0, 1), BuildingBlock: MIFKUJ_clean_linker_0, # of connection points: 2
#     Edge 92, Type (0, 1), BuildingBlock: MIFKUJ_clean_linker_0, # of connection points: 2
#     Edge 93, Type (0, 1), BuildingBlock: MIFKUJ_clean_linker_0, # of connection points: 2
#     Edge 94, Type (0, 1), BuildingBlock: MIFKUJ_clean_linker_0, # of connection points: 2
#     Edge 95, Type (0, 1), BuildingBlock: MIFKUJ_clean_linker_0, # of connection points: 2
#     Edge 96, Type (0, 1), BuildingBlock: MIFKUJ_clean_linker_0, # of connection points: 2
#     Edge 97, Type (0, 1), BuildingBlock: MIFKUJ_clean_linker_0, # of connection points: 2
#     Edge 98, Type (0, 1), BuildingBlock: MIFKUJ_clean_linker_0, # of connection points: 2
#     Edge 99, Type (0, 1), BuildingBlock: MIFKUJ_clean_linker_0, # of connection points: 2
#     Edge 100, Type (0, 1), BuildingBlock: MIFKUJ_clean_linker_0, # of connection points: 2
#     Edge 101, Type (0, 1), BuildingBlock: MIFKUJ_clean_linker_0, # of connection points: 2
#     Edge 102, Type (0, 1), BuildingBlock: MIFKUJ_clean_linker_0, # of connection points: 2
#     Edge 103, Type (0, 1), BuildingBlock: MIFKUJ_clean_linker_0, # of connection points: 2
#     Edge 104, Type (0, 1), BuildingBlock: MIFKUJ_clean_linker_0, # of connection points: 2
#     Edge 105, Type (0, 1), BuildingBlock: MIFKUJ_clean_linker_0, # of connection points: 2
#     Edge 106, Type (0, 1), BuildingBlock: MIFKUJ_clean_linker_0, # of connection points: 2
#     Edge 107, Type (0, 1), BuildingBlock: MIFKUJ_clean_linker_0, # of connection points: 2
#     Edge 108, Type (0, 1), BuildingBlock: MIFKUJ_clean_linker_0, # of connection points: 2
#     Edge 109, Type (0, 1), BuildingBlock: MIFKUJ_clean_linker_0, # of connection points: 2
#     Edge 110, Type (0, 1), BuildingBlock: MIFKUJ_clean_linker_0, # of connection points: 2
#     Edge 111, Type (0, 1), BuildingBlock: MIFKUJ_clean_linker_0, # of connection points: 2
#     Edge 112, Type (0, 1), BuildingBlock: MIFKUJ_clean_linker_0, # of connection points: 2
#     Edge 113, Type (0, 1), BuildingBlock: MIFKUJ_clean_linker_0, # of connection points: 2
#     Edge 114, Type (0, 1), BuildingBlock: MIFKUJ_clean_linker_0, # of connection points: 2
#     Edge 115, Type (0, 1), BuildingBlock: MIFKUJ_clean_linker_0, # of connection points: 2
#     Edge 116, Type (0, 1), BuildingBlock: MIFKUJ_clean_linker_0, # of connection points: 2
#     Edge 117, Type (0, 1), BuildingBlock: MIFKUJ_clean_linker_0, # of connection points: 2
#     Edge 118, Type (0, 1), BuildingBlock: MIFKUJ_clean_linker_0, # of connection points: 2
#     Edge 119, Type (0, 1), BuildingBlock: MIFKUJ_clean_linker_0, # of connection points: 2
#     Edge 120, Type (0, 1), BuildingBlock: MIFKUJ_clean_linker_0, # of connection points: 2
#     Edge 121, Type (0, 1), BuildingBlock: MIFKUJ_clean_linker_0, # of connection points: 2
#     Edge 122, Type (0, 1), BuildingBlock: MIFKUJ_clean_linker_0, # of connection points: 2
#     Edge 123, Type (0, 1), BuildingBlock: MIFKUJ_clean_linker_0, # of connection points: 2
#     Edge 124, Type (0, 1), BuildingBlock: MIFKUJ_clean_linker_0, # of connection points: 2
#     Edge 125, Type (0, 1), BuildingBlock: MIFKUJ_clean_linker_0, # of connection points: 2
#     Edge 126, Type (0, 1), BuildingBlock: MIFKUJ_clean_linker_0, # of connection points: 2
#     Edge 127, Type (0, 1), BuildingBlock: MIFKUJ_clean_linker_0, # of connection points: 2
#     Edge 128, Type (0, 1), BuildingBlock: MIFKUJ_clean_linker_0, # of connection points: 2
#     Edge 129, Type (0, 1), BuildingBlock: MIFKUJ_clean_linker_0, # of connection points: 2
#     Edge 130, Type (0, 1), BuildingBlock: MIFKUJ_clean_linker_0, # of connection points: 2
#     Edge 131, Type (0, 1), BuildingBlock: MIFKUJ_clean_linker_0, # of connection points: 2
#     Edge 132, Type (0, 1), BuildingBlock: MIFKUJ_clean_linker_0, # of connection points: 2
#     Edge 133, Type (0, 1), BuildingBlock: MIFKUJ_clean_linker_0, # of connection points: 2
#     Edge 134, Type (0, 1), BuildingBlock: MIFKUJ_clean_linker_0, # of connection points: 2
#     Edge 135, Type (0, 1), BuildingBlock: MIFKUJ_clean_linker_0, # of connection points: 2
# Relax obj value: 0.055
# Max RMSD: 0.176
# Mean RMSD: 0.102
data_MOF--net-gar--node1-QUQFOY_clean_sbu_3--node2-KUMJIN_clean_sbu_1--edge1-MIFKUJ_clean_linker_0
_symmetry_space_group_name_H-M    P1
_symmetry_Int_Tables_number       1
_symmetry_cell_setting            triclinic
loop_
_symmetry_equiv_pos_as_xyz
'x, y, z'
_cell_length_a     76.874946
_cell_length_b     78.090917
_cell_length_c     72.855962
_cell_angle_alpha  96.36195
_cell_angle_beta   95.502674
_cell_angle_gamma 100.61485
loop_
_atom_site_label
_atom_site_type_symbol
_atom_site_fract_x
_atom_site_fract_y
_atom_site_fract_z
_atom_type_partial_charge
C0 C 0.99881 0.29587 0.33127 0.0
O1 O 0.00849 0.30521 0.3215 0.0
Cd2 Cd 0.03942 0.31667 0.33285 0.0
O3 O 0.00613 0.2909 0.34578 0.0
Cd4 Cd 0.03845 0.29323 0.36143 0.0
C5 C 0.03951 0.33705 0.37696 0.0
O6 O 0.05664 0.29333 0.334 0.0
O7 O 0.07151 0.29899 0.36124 0.0
O8 O 0.03335 0.26094 0.36263 0.0
C9 C 0.07171 0.29564 0.34382 0.0
O10 O 0.0398 0.33885 0.35984 0.0
C11 C 0.03492 0.26179 0.38022 0.0
O12 O 0.03925 0.32189 0.38212 0.0
O13 O 0.03792 0.27714 0.38923 0.0
C14 C 0.97843 0.74509 0.70406 0.0
O15 O 0.98563 0.73387 0.71167 0.0
Cd16 Cd 0.01488 0.7289 0.70493 0.0
O17 O 0.98659 0.75366 0.69241 0.0
Cd18 Cd 0.0159 0.7535 0.67798 0.0
C19 C 0.00992 0.70933 0.66096 0.0
O20 O 0.03906 0.75456 0.7058 0.0
O21 O 0.04729 0.75156 0.67834 0.0
O22 O 0.02022 0.78543 0.67582 0.0
C23 C 0.05172 0.75391 0.69577 0.0
O24 O 0.01187 0.70678 0.67789 0.0
C25 C 0.01715 0.78395 0.65822 0.0
O26 O 0.00996 0.72479 0.65677 0.0
O27 O 0.01359 0.76839 0.64974 0.0
C28 C 0.4998 0.79654 0.83213 0.0
O29 O 0.50961 0.8069 0.82339 0.0
Cd30 Cd 0.54082 0.81721 0.83436 0.0
O31 O 0.50693 0.79053 0.84602 0.0
Cd32 Cd 0.53907 0.79316 0.86174 0.0
C33 C 0.54028 0.83665 0.87839 0.0
O34 O 0.55665 0.79279 0.8341 0.0
O35 O 0.57218 0.80087 0.86077 0.0
O36 O 0.52982 0.76107 0.86301 0.0
C37 C 0.57196 0.79614 0.8435 0.0
O38 O 0.54342 0.83942 0.86203 0.0
C39 C 0.53643 0.7614 0.87971 0.0
O40 O 0.53718 0.82094 0.88238 0.0
O41 O 0.54399 0.77635 0.88833 0.0
C42 C 0.47799 0.24528 0.20368 0.0
O43 O 0.48642 0.23586 0.21289 0.0
Cd44 Cd 0.51501 0.22981 0.20522 0.0
O45 O 0.48508 0.25235 0.19045 0.0
Cd46 Cd 0.51504 0.25381 0.17657 0.0
C47 C 0.50904 0.20959 0.16071 0.0
O48 O 0.53789 0.25587 0.2052 0.0
O49 O 0.5472 0.25472 0.17819 0.0
O50 O 0.51093 0.28426 0.17342 0.0
C51 C 0.55097 0.25619 0.19564 0.0
O52 O 0.51163 0.20785 0.17786 0.0
C53 C 0.51533 0.28437 0.15707 0.0
O54 O 0.50851 0.22474 0.15589 0.0
O55 O 0.51938 0.27037 0.14966 0.0
C56 C 0.02017 0.77739 0.13694 0.0
O57 O 0.03112 0.77068 0.14662 0.0
Cd58 Cd 0.0597 0.76619 0.1407 0.0
O59 O 0.02438 0.78355 0.12201 0.0
Cd60 Cd 0.0521 0.78792 0.10441 0.0
C61 C 0.04811 0.74187 0.09624 0.0
O62 O 0.07358 0.79319 0.13256 0.0
O63 O 0.08519 0.78683 0.1078 0.0
O64 O 0.05223 0.82018 0.105 0.0
C65 C 0.08748 0.7913 0.12531 0.0
O66 O 0.05344 0.74394 0.11359 0.0
C67 C 0.04919 0.82084 0.08769 0.0
O68 O 0.04543 0.75523 0.08822 0.0
O69 O 0.04749 0.80617 0.07739 0.0
C70 C 0.46498 0.76268 0.40071 0.0
O71 O 0.47597 0.77241 0.3925 0.0
Cd72 Cd 0.50713 0.78145 0.39993 0.0
O73 O 0.47033 0.75568 0.41486 0.0
Cd74 Cd 0.50122 0.75614 0.43381 0.0
C75 C 0.50552 0.80218 0.44436 0.0
O76 O 0.51735 0.75584 0.40667 0.0
O77 O 0.5344 0.76277 0.43249 0.0
O78 O 0.49572 0.72335 0.43312 0.0
C79 C 0.53305 0.7593 0.41492 0.0
O80 O 0.50794 0.80241 0.42734 0.0
C81 C 0.49951 0.72266 0.45034 0.0
O82 O 0.50249 0.78751 0.45114 0.0
O83 O 0.50303 0.73749 0.4606 0.0
C84 C 0.52013 0.27766 0.63543 0.0
O85 O 0.53016 0.2699 0.64505 0.0
Cd86 Cd 0.55814 0.26316 0.63939 0.0
O87 O 0.525 0.28398 0.62077 0.0
Cd88 Cd 0.5528 0.28836 0.60302 0.0
C89 C 0.54688 0.24173 0.59357 0.0
O90 O 0.5719 0.2904 0.63199 0.0
O91 O 0.58692 0.293 0.60899 0.0
O92 O 0.54413 0.3179 0.60258 0.0
C93 C 0.58701 0.29203 0.62627 0.0
O94 O 0.55076 0.24232 0.61106 0.0
C95 C 0.54846 0.32111 0.58674 0.0
O96 O 0.54635 0.25594 0.58621 0.0
O97 O 0.55463 0.30904 0.57776 0.0
C98 C 0.96674 0.26415 0.89978 0.0
O99 O 0.97864 0.27414 0.89288 0.0
Cd100 Cd 0.0096 0.28215 0.90157 0.0
O101 O 0.97105 0.25619 0.91358 0.0
Cd102 Cd 0.00161 0.25614 0.93325 0.0
C103 C 0.00699 0.30193 0.94566 0.0
O104 O 0.01795 0.25507 0.90596 0.0
O105 O 0.0348 0.26221 0.93178 0.0
O106 O 0.99125 0.22376 0.9358 0.0
C107 C 0.03359 0.25823 0.9143 0.0
O108 O 0.01121 0.30309 0.92932 0.0
C109 C -9e-05 0.22365 0.95155 0.0
O110 O 0.00204 0.28683 0.95104 0.0
O111 O 0.0082 0.23863 0.95956 0.0
C112 C 0.41155 0.00964 0.31792 0.0
O113 O 0.42101 0.00419 0.30606 0.0
Cd114 Cd 0.40982 0.99694 0.27442 0.0
O115 O 0.39644 0.01308 0.31319 0.0
Cd116 Cd 0.37607 0.01458 0.28727 0.0
C117 C 0.37031 0.97254 0.28438 0.0
O118 O 0.39711 0.02109 0.26726 0.0
O119 O 0.37016 0.01225 0.25358 0.0
O120 O 0.37643 0.04258 0.30212 0.0
C121 C 0.38649 0.01799 0.25242 0.0
O122 O 0.38554 0.97348 0.2786 0.0
C123 C 0.3597 0.04119 0.29881 0.0
O124 O 0.36371 0.98588 0.28874 0.0
O125 O 0.35039 0.02642 0.29141 0.0
C126 C 0.28943 0.13739 0.51298 0.0
O127 O 0.27818 0.12892 0.52203 0.0
Cd128 Cd 0.25008 0.13448 0.52831 0.0
O129 O 0.28608 0.15053 0.50528 0.0
Cd130 Cd 0.26069 0.16623 0.50114 0.0
C131 C 0.26363 0.17808 0.54803 0.0
O132 O 0.239 0.14018 0.49896 0.0
O133 O 0.22776 0.16348 0.49983 0.0
O134 O 0.26102 0.16566 0.46783 0.0
C135 C 0.22524 0.14684 0.49867 0.0
O136 O 0.2582 0.16188 0.54927 0.0
C137 C 0.26613 0.18209 0.4682 0.0
O138 O 0.26582 0.18359 0.5324 0.0
O139 O 0.26907 0.19141 0.48404 0.0
C140 C 0.10586 0.03804 0.81383 0.0
O141 O 0.09722 0.04677 0.80391 0.0
Cd142 Cd 0.10387 0.05434 0.77398 0.0
O143 O 0.11872 0.03179 0.80772 0.0
Cd144 Cd 0.13276 0.0304 0.77798 0.0
C145 C 0.1479 0.0745 0.78307 0.0
O146 O 0.10596 0.0277 0.75527 0.0
O147 O 0.13131 0.03036 0.74438 0.0
O148 O 0.13406 1.00005 0.78269 0.0
C149 C 0.11453 0.02824 0.74122 0.0
O150 O 0.13177 0.07585 0.77914 0.0
C151 C 0.15019 0.00122 0.77966 0.0
O152 O 0.15216 0.05963 0.78424 0.0
O153 O 0.1583 0.01604 0.77633 0.0
C154 C 0.31811 0.94889 0.98884 0.0
O155 O 0.30828 0.9596 0.98463 0.0
Cd156 Cd 0.2771 0.94922 0.97935 0.0
O157 O 0.31196 0.93428 0.99395 0.0
Cd158 Cd 0.28621 0.91658 0.00091 0.0
C159 C 0.28041 0.90932 0.95619 0.0
O160 O 0.27047 0.93816 0.00744 0.0
O161 O 0.25453 0.91193 -0.00073 0.0
O162 O 0.29985 0.91536 0.03075 0.0
C163 C 0.25536 0.92806 0.00488 0.0
O164 O 0.27637 0.92438 0.95547 0.0
C165 C 0.29517 0.89874 0.02922 0.0
O166 O 0.28474 0.904 0.97139 0.0
O167 O 0.28734 0.89054 0.01373 0.0
C168 C 0.31964 0.41194 0.02999 0.0
O169 O 0.30922 0.42004 0.02143 0.0
Cd170 Cd 0.27868 0.40943 0.0118 0.0
O171 O 0.31371 0.39723 0.03548 0.0
Cd172 Cd 0.28332 0.37854 0.0357 0.0
C173 C 0.28055 0.3683 0.9892 0.0
O174 O 0.26702 0.40192 0.03927 0.0
O175 O 0.25062 0.37668 0.02876 0.0
O176 O 0.28623 0.37848 0.06911 0.0
C177 C 0.25155 0.39269 0.03505 0.0
O178 O 0.27828 0.38403 0.98901 0.0
C179 C 0.28476 0.36204 0.06886 0.0
O180 O 0.2831 0.3622 0.00456 0.0
O181 O 0.2834 0.35291 0.05302 0.0
C182 C 0.78687 0.09934 0.05029 0.0
O183 O 0.77393 0.08781 0.05345 0.0
Cd184 Cd 0.74456 0.09333 0.0549 0.0
O185 O 0.78468 0.11376 0.04513 0.0
Cd186 Cd 0.76287 0.12892 0.03632 0.0
C187 C 0.75731 0.13425 0.08022 0.0
O188 O 0.73943 0.10547 0.0272 0.0
O189 O 0.7327 0.1313 0.03231 0.0
O190 O 0.77145 0.12959 0.00645 0.0
C191 C 0.72776 0.11496 0.02715 0.0
O192 O 0.74906 0.11837 0.07895 0.0
C193 C 0.77298 0.14614 0.00745 0.0
O194 O 0.76444 0.14084 0.06698 0.0
O195 O 0.77193 0.15482 0.02303 0.0
C196 C 0.14262 0.54311 0.27533 0.0
O197 O 0.132 0.54752 0.2631 0.0
Cd198 Cd 0.13704 0.54886 0.23196 0.0
O199 O 0.1567 0.53802 0.27131 0.0
Cd200 Cd 0.17218 0.5317 0.24525 0.0
C201 C 0.17994 0.57308 0.24175 0.0
O202 O 0.14687 0.52255 0.22504 0.0
O203 O 0.17087 0.52594 0.21153 0.0
O204 O 0.17166 0.50477 0.2551 0.0
C205 C 0.15402 0.52174 0.21019 0.0
O206 O 0.16356 0.57118 0.23551 0.0
C207 C 0.18806 0.50515 0.254 0.0
O208 O 0.18654 0.56059 0.2473 0.0
O209 O 0.19776 0.5191 0.25031 0.0
C210 C 0.82065 0.91064 0.53158 0.0
O211 O 0.81107 0.91891 0.52207 0.0
Cd212 Cd 0.78042 0.91025 0.51062 0.0
O213 O 0.81398 0.89608 0.5369 0.0
Cd214 Cd 0.78334 0.87797 0.53528 0.0
C215 C 0.78106 0.86867 0.48849 0.0
O216 O 0.76829 0.90231 0.53748 0.0
O217 O 0.75064 0.87711 0.53128 0.0
O218 O 0.7895 0.87741 0.56823 0.0
C219 C 0.7525 0.89366 0.53474 0.0
O220 O 0.77862 0.88433 0.48818 0.0
C221 C 0.7846 0.86093 0.56776 0.0
O222 O 0.78419 0.86278 0.50388 0.0
O223 O 0.77999 0.85194 0.5518 0.0
C224 C 0.94658 0.00923 0.29004 0.0
O225 O 0.9531 0.99867 0.27945 0.0
Cd226 Cd 0.94494 0.99006 0.24687 0.0
O227 O 0.93407 0.01646 0.28383 0.0
Cd228 Cd 0.91589 0.01473 0.25335 0.0
C229 C 0.90203 0.97016 0.25012 0.0
O230 O 0.94003 0.01574 0.23425 0.0
O231 O 0.91358 0.01146 0.21929 0.0
O232 O 0.9159 0.04604 0.25718 0.0
C233 C 0.9303 0.01388 0.21885 0.0
O234 O 0.9176 0.96896 0.24632 0.0
C235 C 0.89925 0.04439 0.25779 0.0
O236 O 0.89785 0.98513 0.25383 0.0
O237 O 0.89025 0.02888 0.25684 0.0
C238 C 0.2868 0.59867 0.55163 0.0
O239 O 0.27442 0.58781 0.55683 0.0
Cd240 Cd 0.24527 0.59379 0.55683 0.0
O241 O 0.28389 0.61177 0.54399 0.0
Cd242 Cd 0.26277 0.62723 0.53325 0.0
C243 C 0.25816 0.63655 0.57728 0.0
O244 O 0.24011 0.60321 0.52734 0.0
O245 O 0.23229 0.62835 0.52546 0.0
O246 O 0.27139 0.62746 0.5034 0.0
C247 C 0.22787 0.61182 0.52482 0.0
O248 O 0.25144 0.62058 0.57839 0.0
C249 C 0.27449 0.64413 0.50485 0.0
O250 O 0.26327 0.64181 0.56251 0.0
O251 O 0.27392 0.65288 0.5205 0.0
C252 C 0.44435 0.51048 0.79178 0.0
O253 O 0.45385 0.50285 0.78155 0.0
Cd254 Cd 0.4445 0.49201 0.7495 0.0
O255 O 0.42997 0.51448 0.78486 0.0
Cd256 Cd 0.414 0.51392 0.75298 0.0
C257 C 0.40128 0.47024 0.75192 0.0
O258 O 0.43977 0.51701 0.73531 0.0
O259 O 0.41392 0.50936 0.71915 0.0
O260 O 0.41255 0.54422 0.76441 0.0
C261 C 0.43064 0.5139 0.71945 0.0
O262 O 0.41731 0.46986 0.74907 0.0
C263 C 0.39722 0.54369 0.75593 0.0
O264 O 0.39615 0.48483 0.75466 0.0
O265 O 0.38932 0.52914 0.74667 0.0
C266 C 0.64119 0.03851 0.76983 0.0
O267 O 0.62925 0.03776 0.75633 0.0
Cd268 Cd 0.63834 0.04412 0.72732 0.0
O269 O 0.65725 0.03845 0.7674 0.0
Cd270 Cd 0.67354 0.03225 0.74184 0.0
C271 C 0.67837 0.07297 0.74458 0.0
O272 O 0.65199 0.02085 0.71731 0.0
O273 O 0.67673 0.03447 0.70934 0.0
O274 O 0.67149 0.0049 0.75063 0.0
C275 C 0.66126 0.02517 0.70455 0.0
O276 O 0.66228 0.06966 0.73688 0.0
C277 C 0.68808 0.00522 0.75134 0.0
O278 O 0.68646 0.06094 0.74862 0.0
O279 O 0.69849 0.01919 0.74868 0.0
C280 C 0.78913 0.63776 0.01266 0.0
O281 O 0.77812 0.62961 0.02219 0.0
Cd282 Cd 0.74966 0.63448 0.02862 0.0
O283 O 0.78566 0.65074 0.00477 0.0
Cd284 Cd 0.76019 0.66632 0.00131 0.0
C285 C 0.76253 0.67782 0.0485 0.0
O286 O 0.73865 0.63981 -0.00085 0.0
O287 O 0.72706 0.66267 -0.00264 0.0
O288 O 0.76702 0.66675 0.96955 0.0
C289 C 0.72476 0.64621 -0.00251 0.0
O290 O 0.75581 0.66185 0.04952 0.0
C291 C 0.76588 0.68265 0.9687 0.0
O292 O 0.76645 0.68307 0.03313 0.0
O293 O 0.76278 0.69137 0.98343 0.0
C294 C 0.91054 0.5089 0.81843 0.0
O295 O 0.92055 0.50533 0.80625 0.0
Cd296 Cd 0.91026 0.50084 0.77454 0.0
O297 O 0.89519 0.51206 0.814 0.0
Cd298 Cd 0.87478 0.51531 0.78838 0.0
C299 C 0.87128 0.4733 0.7821 0.0
O300 O 0.89732 0.52549 0.77158 0.0
O301 O 0.87259 0.51419 0.75452 0.0
O302 O 0.87206 0.54137 0.80641 0.0
C303 C 0.88885 0.5216 0.75555 0.0
O304 O 0.88641 0.4759 0.77598 0.0
C305 C 0.85604 0.5404 0.7996 0.0
O306 O 0.86404 0.48584 0.78799 0.0
O307 O 0.8482 0.52651 0.78905 0.0
C308 C 0.81871 0.44881 0.49004 0.0
O309 O 0.80959 0.45943 0.48403 0.0
Cd310 Cd 0.77826 0.45018 0.47784 0.0
O311 O 0.81176 0.43492 0.49604 0.0
Cd312 Cd 0.78578 0.41715 0.50221 0.0
C313 C 0.78031 0.40918 0.45699 0.0
O314 O 0.76967 0.4389 0.50524 0.0
O315 O 0.75427 0.41223 0.50259 0.0
O316 O 0.798 0.41724 0.53296 0.0
C317 C 0.7547 0.42863 0.50406 0.0
O318 O 0.77751 0.42458 0.4555 0.0
C319 C 0.79424 0.40058 0.53177 0.0
O320 O 0.78375 0.40392 0.47249 0.0
O321 O 0.78791 0.39179 0.51604 0.0
C322 C 0.60746 0.53868 0.31569 0.0
O323 O 0.6003 0.54946 0.30723 0.0
Cd324 Cd 0.60366 0.55478 0.27555 0.0
O325 O 0.61838 0.53051 0.3082 0.0
Cd326 Cd 0.63298 0.53098 0.27935 0.0
C327 C 0.64696 0.57547 0.28181 0.0
O328 O 0.60602 0.52814 0.25725 0.0
O329 O 0.63125 0.53122 0.24583 0.0
O330 O 0.63392 0.4999 0.27891 0.0
C331 C 0.6144 0.52877 0.24308 0.0
O332 O 0.63089 0.57596 0.27628 0.0
C333 C 0.65077 0.50191 0.28049 0.0
O334 O 0.65141 0.56126 0.28589 0.0
O335 O 0.65953 0.51758 0.28191 0.0
Eu336 Eu 0.0483 0.03103 0.03277 0.0
C337 C 0.98569 0.97232 0.98875 0.0
N338 N 0.99555 0.98712 0.98389 0.0
C339 C 0.99419 0.97308 0.95268 0.0
C340 C 0.97958 0.95728 0.9755 0.0
C341 C -0.00016 0.98773 0.96618 0.0
C342 C 0.98395 0.95782 0.95732 0.0
C343 C 0.9713 0.95697 0.01225 0.0
C344 C 0.98153 0.9722 0.00703 0.0
C345 C 0.96505 0.9421 -0.00103 0.0
C346 C 0.96913 0.94228 0.98067 0.0
Eu347 Eu -8e-05 0.01187 0.00653 0.0
N348 N 0.98738 0.98691 0.01963 0.0
C349 C 0.9674 0.95717 0.03064 0.0
C350 C 0.98318 0.9873 0.03741 0.0
C351 C 0.97342 0.97239 0.04327 0.0
H352 H 0.00676 0.99975 0.96214 0.0
H353 H 0.97014 0.97279 0.05741 0.0
H354 H 0.04205 0.04244 0.07747 0.0
H355 H 0.0848 0.06967 0.98554 0.0
H356 H 0.98669 0.99916 0.04694 0.0
H357 H 0.95956 0.94574 0.03516 0.0
H358 H 0.06632 0.04364 0.99483 0.0
H359 H 0.99739 0.9737 0.93859 0.0
H360 H 0.95697 0.93039 0.00271 0.0
H361 H 0.96414 0.9307 0.9706 0.0
H362 H 0.05175 0.06774 0.10186 0.0
H363 H 0.97936 0.94658 0.94673 0.0
H364 H 0.09542 0.09631 0.00839 0.0
N365 N 0.05457 0.05529 0.05654 0.0
C366 C 0.0655 0.06989 0.05262 0.0
C367 C 0.05549 0.06862 0.08801 0.0
C368 C 0.0717 0.08456 0.06635 0.0
C369 C 0.04968 0.0544 0.074 0.0
C370 C 0.06651 0.08378 0.08417 0.0
N371 N 0.06484 0.05572 0.02197 0.0
C372 C 0.07007 0.05533 0.0046 0.0
C373 C 0.08207 0.08512 0.03044 0.0
C374 C 0.07081 0.0701 0.0349 0.0
C375 C 0.0869 0.085 0.01239 0.0
C376 C 0.08087 0.07002 -0.00057 0.0
H377 H 0.07113 0.0947 0.09513 0.0
H378 H 0.088 0.11076 0.07238 0.0
H379 H 0.09688 0.11132 0.0409 0.0
O380 O 0.07185 0.01984 0.02762 0.0
O381 O 0.03486 0.05301 0.02284 0.0
O382 O 0.00887 0.04071 0.00304 0.0
O383 O 0.06793 0.03034 0.05588 0.0
O384 O 0.04581 0.01657 0.00343 0.0
O385 O 0.02039 0.02264 0.98848 0.0
O386 O 0.97273 0.01414 0.01069 0.0
O387 O 0.0177 0.99172 0.01219 0.0
O388 O 0.03372 0.00477 0.03971 0.0
O389 O 0.98023 0.01115 0.98282 0.0
O390 O 0.00124 0.02782 0.0351 0.0
O391 O 0.02663 0.02202 0.04987 0.0
C392 C 0.02107 0.05436 0.01107 0.0
C393 C 0.094 0.01801 0.05331 0.0
C394 C 0.12135 0.0081 0.04871 0.0
C395 C 0.12468 0.00741 0.06788 0.0
C396 C 0.09727 0.01732 0.07251 0.0
C397 C 0.11262 0.01204 0.07975 0.0
C398 C 0.10609 0.01346 0.04153 0.0
C399 C 0.03646 0.01924 0.98829 0.0
C400 C 0.07767 0.02267 0.04537 0.0
C401 C 0.08306 0.09942 0.06198 0.0
C402 C 0.08816 0.09973 0.04406 0.0
C403 C 0.0274 0.99057 0.02777 0.0
C404 C 0.95733 0.02685 0.98771 0.0
C405 C 0.93651 0.04551 0.99531 0.0
C406 C 0.93561 0.05011 0.97725 0.0
C407 C 0.95628 0.03135 0.9695 0.0
C408 C 0.94727 0.03393 0.00053 0.0
C409 C 0.94549 0.043 0.96436 0.0
C410 C 0.01155 0.02733 0.05042 0.0
C411 C 0.96777 0.01384 0.993 0.0
H412 H 0.13636 0.00295 0.07357 0.0
H413 H 0.08789 0.0206 0.08186 0.0
H414 H 0.11505 0.01132 0.0945 0.0
H415 H 0.10359 0.01398 0.0267 0.0
H416 H 0.92693 0.05879 0.97303 0.0
H417 H 0.96357 0.02572 0.95918 0.0
H418 H 0.94744 0.03019 0.01444 0.0
H419 H 0.94457 0.04629 0.95031 0.0
Eu420 Eu 0.25747 0.77274 0.29321 0.0
C421 C 0.29815 0.7384 0.22125 0.0
N422 N 0.30498 0.75153 0.23539 0.0
C423 C 0.33197 0.7404 0.23929 0.0
C424 C 0.30789 0.72538 0.21598 0.0
C425 C 0.32169 0.7528 0.24431 0.0
C426 C 0.32501 0.72656 0.22515 0.0
C427 C 0.27325 0.7235 0.19857 0.0
C428 C 0.28107 0.73758 0.21251 0.0
C429 C 0.28288 0.71046 0.1934 0.0
C430 C 0.30018 0.71144 0.20202 0.0
Eu431 Eu 0.28621 0.77105 0.24418 0.0
N432 N 0.27177 0.75002 0.21839 0.0
C433 C 0.25583 0.72272 0.19047 0.0
C434 C 0.25501 0.74963 0.20993 0.0
C435 C 0.24676 0.73592 0.19606 0.0
H436 H 0.32718 0.76342 0.2553 0.0
H437 H 0.23335 0.73555 0.18971 0.0
H438 H 0.21715 0.78093 0.28236 0.0
H439 H 0.31129 0.80816 0.34699 0.0
H440 H 0.24778 0.75975 0.21365 0.0
H441 H 0.24932 0.71203 0.17984 0.0
H442 H 0.29608 0.78357 0.32412 0.0
H443 H 0.3452 0.74144 0.24643 0.0
H444 H 0.27703 0.69951 0.18281 0.0
H445 H 0.30741 0.70125 0.19791 0.0
H446 H 0.19954 0.80346 0.2909 0.0
H447 H 0.33291 0.71684 0.22148 0.0
H448 H 0.2964 0.83279 0.35576 0.0
N449 N 0.23972 0.7932 0.30156 0.0
C450 C 0.24709 0.80679 0.31494 0.0
C451 C 0.21291 0.80458 0.29774 0.0
C452 C 0.23766 0.82011 0.32003 0.0
C453 C 0.22289 0.79185 0.29296 0.0
C454 C 0.22035 0.81882 0.31128 0.0
N455 N 0.27293 0.7944 0.31806 0.0
C456 C 0.28941 0.7943 0.32694 0.0
C457 C 0.27241 0.82174 0.33697 0.0
C458 C 0.26425 0.80752 0.3233 0.0
C459 C 0.28964 0.82206 0.34531 0.0
C460 C 0.29809 0.8082 0.34038 0.0
H461 H 0.21265 0.82876 0.31485 0.0
H462 H 0.23881 0.84472 0.33752 0.0
H463 H 0.26927 0.84619 0.3523 0.0
O464 O 0.25752 0.75248 0.31126 0.0
O465 O 0.26472 0.7988 0.28319 0.0
O466 O 0.28643 0.78801 0.27109 0.0
O467 O 0.23236 0.75694 0.29859 0.0
O468 O 0.28511 0.76476 0.29714 0.0
O469 O 0.30264 0.77101 0.27258 0.0
O470 O 0.28575 0.79173 0.22664 0.0
O471 O 0.27477 0.74347 0.24845 0.0
O472 O 0.26564 0.76087 0.26829 0.0
O473 O 0.31102 0.78574 0.23702 0.0
O474 O 0.25812 0.77869 0.24142 0.0
O475 O 0.24042 0.76854 0.26457 0.0
C476 C 0.27739 0.80045 0.27255 0.0
C477 C 0.23369 0.74879 0.32908 0.0
C478 C 0.2359 0.739 0.35943 0.0
C479 C 0.22161 0.74681 0.36401 0.0
C480 C 0.21945 0.75679 0.33371 0.0
C481 C 0.21351 0.75583 0.35119 0.0
C482 C 0.24199 0.74014 0.34214 0.0
C483 C 0.3003 0.76622 0.28937 0.0
C484 C 0.24024 0.74909 0.31085 0.0
C485 C 0.2458 0.83431 0.33351 0.0
C486 C 0.26316 0.83515 0.34191 0.0
C487 C 0.26581 0.74493 0.26222 0.0
C488 C 0.3096 0.79797 0.20871 0.0
C489 C 0.30688 0.81132 0.18051 0.0
C490 C 0.32333 0.80763 0.17631 0.0
C491 C 0.32612 0.79422 0.20454 0.0
C492 C 0.30007 0.80651 0.19657 0.0
C493 C 0.3329 0.79903 0.18832 0.0
C494 C 0.24258 0.77487 0.24844 0.0
C495 C 0.303 0.79501 0.2265 0.0
H496 H 0.21666 0.74577 0.37735 0.0
H497 H 0.21288 0.76368 0.32389 0.0
H498 H 0.20247 0.76187 0.35471 0.0
H499 H 0.25289 0.73378 0.33866 0.0
H500 H 0.32887 0.81173 0.164 0.0
H501 H 0.33396 0.78799 0.21394 0.0
H502 H 0.2876 0.81002 0.1999 0.0
H503 H 0.34573 0.79639 0.18525 0.0
Eu504 Eu 0.50086 0.01999 0.53001 0.0
C505 C 0.56759 0.05709 0.49346 0.0
N506 N 0.55489 0.04242 0.48726 0.0
C507 C 0.55223 0.05115 0.45676 0.0
C508 C 0.57276 0.0696 0.48145 0.0
C509 C 0.54752 0.03908 0.46911 0.0
C510 C 0.56483 0.06651 0.46296 0.0
C511 C 0.58821 0.07505 0.51876 0.0
C512 C 0.57534 0.05977 0.51198 0.0
C513 C 0.59335 0.08748 0.50677 0.0
C514 C 0.58567 0.08475 0.48819 0.0
Eu515 Eu 0.54932 0.02265 0.50919 0.0
N516 N 0.56994 0.0477 0.52347 0.0
C517 C 0.59551 0.07742 0.53745 0.0
C518 C 0.57727 0.04969 0.54152 0.0
C519 C 0.59006 0.06467 0.54885 0.0
H520 H 0.5383 0.02697 0.4639 0.0
H521 H 0.59582 0.06629 0.56323 0.0
H522 H 0.51172 0.02045 0.57621 0.0
H523 H 0.4509 0.97392 0.48178 0.0
H524 H 0.57353 0.03959 0.55013 0.0
H525 H 0.60545 0.08899 0.54317 0.0
H526 H 0.47289 0.00141 0.49217 0.0
H527 H 0.54628 0.04851 0.4424 0.0
H528 H 0.60326 0.09927 0.51174 0.0
H529 H 0.58981 0.09448 0.47914 0.0
H530 H 0.50536 0.00101 0.60012 0.0
H531 H 0.56848 0.07579 0.45331 0.0
H532 H 0.4442 0.95197 0.50337 0.0
N533 N 0.49676 0.00202 0.55395 0.0
C534 C 0.48471 0.98667 0.5492 0.0
C535 C 0.49971 0.99667 0.58581 0.0
C536 C 0.48013 0.97544 0.56264 0.0
C537 C 0.50364 0.00749 0.5721 0.0
C538 C 0.48804 0.98049 0.58103 0.0
N539 N 0.47983 0.99418 0.51872 0.0
C540 C 0.47036 0.99166 0.50149 0.0
C541 C 0.46299 0.96714 0.52603 0.0
C542 C 0.47601 0.98265 0.53114 0.0
C543 C 0.45415 0.96383 0.50791 0.0
C544 C 0.45781 0.9762 0.49565 0.0
H545 H 0.48479 0.97228 0.59176 0.0
H546 H 0.46369 0.9511 0.56764 0.0
H547 H 0.44888 0.94373 0.53556 0.0
O548 O 0.47988 0.03483 0.52101 0.0
O549 O 0.5054 0.99496 0.51247 0.0
O550 O 0.53576 0.99639 0.51735 0.0
O551 O 0.48419 0.02861 0.54946 0.0
O552 O 0.5082 0.03111 0.5043 0.0
O553 O 0.52453 0.01403 0.48886 0.0
O554 O 0.57577 0.01598 0.51374 0.0
O555 O 0.53996 0.04907 0.51666 0.0
O556 O 0.522 0.04481 0.54014 0.0
O557 O 0.55971 0.00832 0.48648 0.0
O558 O 0.54735 0.01324 0.53718 0.0
O559 O 0.5263 0.02733 0.54873 0.0
C560 C 0.5194 0.98736 0.51249 0.0
C561 C 0.46181 0.04565 0.54474 0.0
C562 C 0.43611 0.0594 0.53988 0.0
C563 C 0.43589 0.06241 0.55922 0.0
C564 C 0.46142 0.04899 0.5641 0.0
C565 C 0.44855 0.05731 0.57124 0.0
C566 C 0.44921 0.05113 0.53259 0.0
C567 C 0.51058 0.02139 0.48943 0.0
C568 C 0.47531 0.03619 0.53786 0.0
C569 C 0.46736 0.95985 0.5575 0.0
C570 C 0.45889 0.95567 0.53923 0.0
C571 C 0.53146 0.05533 0.53013 0.0
C572 C 0.58871 0.99972 0.48981 0.0
C573 C 0.61393 0.98513 0.49486 0.0
C574 C 0.61477 0.98291 0.47561 0.0
C575 C 0.58978 0.9973 0.47059 0.0
C576 C 0.60087 0.99357 0.50199 0.0
C577 C 0.60275 0.98895 0.46358 0.0
C578 C 0.5383 0.01772 0.55066 0.0
C579 C 0.57445 0.00802 0.49683 0.0
H580 H 0.42597 0.0689 0.56503 0.0
H581 H 0.47106 0.04511 0.57384 0.0
H582 H 0.44836 0.05978 0.58613 0.0
H583 H 0.44936 0.04873 0.51766 0.0
H584 H 0.62465 0.9763 0.46988 0.0
H585 H 0.58055 0.00185 0.46097 0.0
H586 H 0.6001 0.99517 0.51685 0.0
H587 H 0.60345 0.98709 0.44874 0.0
Eu588 Eu 0.29802 0.2638 0.77123 0.0
C589 C 0.2307 0.28792 0.72902 0.0
N590 N 0.24228 0.2968 0.74373 0.0
C591 C 0.24306 0.32373 0.73063 0.0
C592 C 0.225 0.29669 0.71433 0.0
C593 C 0.2483 0.31448 0.74488 0.0
C594 C 0.23141 0.31479 0.71525 0.0
C595 C 0.21256 0.2604 0.7135 0.0
C596 C 0.22464 0.26994 0.72858 0.0
C597 C 0.20688 0.26911 0.69885 0.0
C598 C 0.2131 0.28719 0.69925 0.0
Eu599 Eu 0.25018 0.28015 0.76716 0.0
N600 N 0.23074 0.26174 0.74273 0.0
C601 C 0.20651 0.24239 0.71364 0.0
C602 C 0.22422 0.24439 0.74332 0.0
C603 C 0.21223 0.2344 0.72871 0.0
H604 H 0.25676 0.32154 0.757 0.0
H605 H 0.20721 0.22058 0.7292 0.0
H606 H 0.28938 0.22189 0.77997 0.0
H607 H 0.34012 0.32203 0.81258 0.0
H608 H 0.22781 0.23829 0.75522 0.0
H609 H 0.19719 0.23461 0.70234 0.0
H610 H 0.31966 0.30548 0.78578 0.0
H611 H 0.24789 0.33776 0.73161 0.0
H612 H 0.19764 0.26198 0.68715 0.0
H613 H 0.20858 0.29371 0.68785 0.0
H614 H 0.29747 0.20457 0.80468 0.0
H615 H 0.22734 0.322 0.70425 0.0
H616 H 0.3498 0.30662 0.83845 0.0
N617 N 0.30466 0.24607 0.79407 0.0
C618 C 0.3161 0.25432 0.80918 0.0
C619 C 0.30274 0.21856 0.80615 0.0
C620 C 0.3213 0.24486 0.82348 0.0
C621 C 0.29803 0.22844 0.79227 0.0
C622 C 0.31442 0.22679 0.82182 0.0
N623 N 0.31689 0.2812 0.79667 0.0
C624 C 0.32332 0.29872 0.79713 0.0
C625 C 0.33437 0.28122 0.826 0.0
C626 C 0.3225 0.27234 0.81046 0.0
C627 C 0.34061 0.29933 0.82679 0.0
C628 C 0.33512 0.30809 0.81225 0.0
H629 H 0.3181 0.21907 0.83251 0.0
H630 H 0.33733 0.24662 0.85002 0.0
H631 H 0.34882 0.27842 0.85218 0.0
O632 O 0.32069 0.27162 0.75498 0.0
O633 O 0.28668 0.27114 0.7983 0.0
O634 O 0.27155 0.29261 0.79076 0.0
O635 O 0.31421 0.24509 0.7625 0.0
O636 O 0.29647 0.28869 0.75804 0.0
O637 O 0.27505 0.3018 0.77123 0.0
O638 O 0.22776 0.27257 0.78382 0.0
O639 O 0.26111 0.27279 0.73971 0.0
O640 O 0.2768 0.25193 0.74747 0.0
O641 O 0.23412 0.29897 0.77595 0.0
O642 O 0.25239 0.25562 0.78094 0.0
O643 O 0.27284 0.24281 0.76588 0.0
C644 C 0.27878 0.28424 0.80311 0.0
C645 C 0.3395 0.25046 0.74485 0.0
C646 C 0.36544 0.25572 0.72745 0.0
C647 C 0.36723 0.23824 0.72813 0.0
C648 C 0.34177 0.233 0.74513 0.0
C649 C 0.35548 0.227 0.73685 0.0
C650 C 0.35146 0.26191 0.73582 0.0
C651 C 0.2897 0.3026 0.76296 0.0
C652 C 0.32465 0.25603 0.75422 0.0
C653 C 0.33314 0.25369 0.83894 0.0
C654 C 0.33968 0.2718 0.84018 0.0
C655 C 0.27015 0.26053 0.73499 0.0
C656 C 0.20905 0.29386 0.79395 0.0
C657 C 0.18321 0.28882 0.81153 0.0
C658 C 0.18173 0.30642 0.81115 0.0
C659 C 0.20707 0.31142 0.79393 0.0
C660 C 0.19696 0.28245 0.80289 0.0
C661 C 0.19355 0.31759 0.80243 0.0
C662 C 0.25914 0.24183 0.77556 0.0
C663 C 0.22377 0.28815 0.78443 0.0
H664 H 0.37784 0.23325 0.72185 0.0
H665 H 0.33293 0.22386 0.75185 0.0
H666 H 0.35704 0.21354 0.73725 0.0
H667 H 0.35003 0.27542 0.73545 0.0
H668 H 0.17134 0.31155 0.81771 0.0
H669 H 0.21602 0.32055 0.7873 0.0
H670 H 0.1982 0.26888 0.80313 0.0
H671 H 0.19226 0.33114 0.80229 0.0
Eu672 Eu 0.03363 0.99808 0.51517 0.0
C673 C 0.00896 0.06399 0.56035 0.0
N674 N 0.00015 0.05319 0.54504 0.0
C675 C 0.97243 0.05234 0.55772 0.0
C676 C -0.00029 0.06912 0.5752 0.0
C677 C 0.98213 0.04773 0.54331 0.0
C678 C 0.98127 0.063 0.57379 0.0
C679 C 0.03667 0.08135 0.57686 0.0
C680 C 0.02729 0.07004 0.56116 0.0
C681 C 0.02747 0.08641 0.59168 0.0
C682 C 0.00907 0.0803 0.59085 0.0
Eu683 Eu 0.01764 0.04655 0.52143 0.0
N684 N 0.03596 0.06482 0.54669 0.0
C685 C 0.05502 0.08735 0.57718 0.0
C686 C 0.05374 0.07094 0.54677 0.0
C687 C 0.06356 0.08218 0.56204 0.0
H688 H 0.97518 0.04026 0.5306 0.0
H689 H 0.0777 0.08697 0.56206 0.0
H690 H 0.07671 0.00671 0.50649 0.0
H691 H 0.9775 0.95059 0.47653 0.0
H692 H 0.06036 0.06745 0.535 0.0
H693 H 0.06267 0.09611 0.58896 0.0
H694 H 0.99335 0.97257 0.50263 0.0
H695 H 0.95812 0.04788 0.55631 0.0
H696 H 0.03447 0.0951 0.60382 0.0
H697 H 0.00217 0.08439 0.60236 0.0
H698 H 0.09455 1.00014 0.48132 0.0
H699 H 0.9737 0.06666 0.5849 0.0
H700 H 0.99327 0.94262 0.44976 0.0
N701 N 0.05212 0.99265 0.49174 0.0
C702 C 0.04426 0.98092 0.4767 0.0
C703 C 0.08036 0.99487 0.47969 0.0
C704 C 0.05415 0.97612 0.46227 0.0
C705 C 0.07008 0.999 0.49376 0.0
C706 C 0.07232 0.98353 0.46377 0.0
N707 N 0.0173 0.97764 0.49033 0.0
C708 C 0.00016 0.96933 0.49092 0.0
C709 C 0.01806 0.96033 0.46102 0.0
C710 C 0.02644 0.97303 0.47609 0.0
C711 C 0.0002 0.95235 0.46113 0.0
C712 C 0.99124 0.95683 0.4762 0.0
H713 H 0.08037 0.98016 0.453 0.0
H714 H 0.05313 0.95997 0.43584 0.0
H715 H 0.02152 0.94623 0.4347 0.0
O716 O 0.02614 0.9773 0.53352 0.0
O717 O 0.01587 0.00376 0.49021 0.0
O718 O 0.01859 0.03401 0.49228 0.0
O719 O 0.05162 0.98101 0.52231 0.0
O720 O 0.00962 0.0019 0.52968 0.0
O721 O 0.99564 0.02191 0.51596 0.0
O722 O 0.02458 0.07298 0.51256 0.0
O723 O 0.02474 0.03407 0.54753 0.0
O724 O 0.04646 0.01956 0.53858 0.0
O725 O 0.99686 0.05881 0.50908 0.0
O726 O 0.0425 0.04505 0.50759 0.0
O727 O 0.05538 0.02276 0.51822 0.0
C728 C 0.01435 0.0182 0.48287 0.0
C729 C 0.04711 0.95759 0.54149 0.0
C730 C 0.04247 0.93245 0.55921 0.0
C731 C 0.05997 0.93036 0.55734 0.0
C732 C 0.06462 0.95503 0.54 0.0
C733 C 0.07093 0.94156 0.54783 0.0
C734 C 0.03593 0.94613 0.55121 0.0
C735 C 0.99514 0.0069 0.52296 0.0
C736 C 0.04118 0.97204 0.53231 0.0
C737 C 0.04575 0.96375 0.44706 0.0
C738 C 0.02775 0.95589 0.44643 0.0
C739 C 0.03804 0.02612 0.55165 0.0
C740 C 0.00195 0.08736 0.49752 0.0
C741 C 0.00642 0.11296 0.48022 0.0
C742 C 0.98801 0.11256 0.47901 0.0
C743 C 0.98366 0.08763 0.49607 0.0
C744 C 0.01347 0.10018 0.48947 0.0
C745 C 0.97679 0.10005 0.48687 0.0
C746 C 0.05625 0.03759 0.5109 0.0
C747 C 0.00808 0.0727 0.50615 0.0
H748 H 0.06518 0.91994 0.56329 0.0
H749 H 0.07359 0.96345 0.53267 0.0
H750 H 0.08441 0.93977 0.54648 0.0
H751 H 0.02239 0.94777 0.5525 0.0
H752 H 0.98225 0.12205 0.47191 0.0
H753 H 0.97448 0.07802 0.5019 0.0
H754 H 0.02762 0.10017 0.4903 0.0
H755 H 0.96263 0.09996 0.48576 0.0
Eu756 Eu 0.27718 0.79611 0.75554 0.0
C757 C 0.23672 0.73292 0.79532 0.0
N758 N 0.2524 0.74427 0.80133 0.0
C759 C 0.24485 0.74635 0.83257 0.0
C760 C 0.22429 0.72811 0.80781 0.0
C761 C 0.25683 0.75056 0.81973 0.0
C762 C 0.22845 0.73517 0.82657 0.0
C763 C 0.21713 0.71382 0.7701 0.0
C764 C 0.23317 0.72582 0.77664 0.0
C765 C 0.20472 0.70908 0.7825 0.0
C766 C 0.20828 0.71622 0.80128 0.0
Eu767 Eu 0.27195 0.74977 0.77862 0.0
N768 N 0.24534 0.73076 0.76485 0.0
C769 C 0.21409 0.70685 0.75128 0.0
C770 C 0.24271 0.72357 0.74669 0.0
C771 C 0.22696 0.71175 0.73957 0.0
H772 H 0.26987 0.75822 0.82464 0.0
H773 H 0.22486 0.70636 0.7251 0.0
H774 H 0.28098 0.78559 0.71001 0.0
H775 H 0.3217 0.84273 0.80885 0.0
H776 H 0.25279 0.72673 0.73777 0.0
H777 H 0.20195 0.69757 0.74569 0.0
H778 H 0.29515 0.82009 0.79639 0.0
H779 H 0.24842 0.75146 0.84715 0.0
H780 H 0.19235 0.69985 0.77771 0.0
H781 H 0.19861 0.71236 0.81069 0.0
H782 H 0.30249 0.79332 0.68785 0.0
H783 H 0.21926 0.73179 0.83659 0.0
H784 H 0.34418 0.85253 0.78814 0.0
N785 N 0.29704 0.80175 0.73317 0.0
C786 C 0.31212 0.81402 0.73918 0.0
C787 C 0.30543 0.79911 0.70228 0.0
C788 C 0.32456 0.81918 0.72682 0.0
C789 C 0.29339 0.79452 0.71496 0.0
C790 C 0.32112 0.81144 0.70823 0.0
N791 N 0.30297 0.81631 0.76944 0.0
C792 C 0.30511 0.82382 0.78749 0.0
C793 C 0.3304 0.83465 0.76416 0.0
C794 C 0.31507 0.82164 0.75771 0.0
C795 C 0.33276 0.84226 0.78277 0.0
C796 C 0.32009 0.83678 0.79449 0.0
H797 H 0.33034 0.81509 0.69832 0.0
H798 H 0.34955 0.83621 0.72395 0.0
H799 H 0.35452 0.84988 0.75652 0.0
O800 O 0.26423 0.81863 0.76394 0.0
O801 O 0.30336 0.7873 0.76496 0.0
O802 O 0.29824 0.76904 0.78791 0.0
O803 O 0.26797 0.81109 0.73491 0.0
O804 O 0.26511 0.79166 0.78186 0.0
O805 O 0.27975 0.77434 0.79854 0.0
O806 O 0.28271 0.72576 0.76982 0.0
O807 O 0.24609 0.75964 0.77019 0.0
O808 O 0.25141 0.77607 0.74596 0.0
O809 O 0.2813 0.73482 0.7991 0.0
O810 O 0.28442 0.75399 0.75232 0.0
O811 O 0.26954 0.7714 0.73599 0.0
C812 C 0.30906 0.77904 0.7786 0.0
C813 C 0.25252 0.83501 0.73975 0.0
C814 C 0.23875 0.8607 0.74451 0.0
C815 C 0.23465 0.85966 0.72515 0.0
C816 C 0.2482 0.83433 0.72042 0.0
C817 C 0.23931 0.84654 0.71323 0.0
C818 C 0.24755 0.84819 0.75188 0.0
C819 C 0.27321 0.78853 0.79733 0.0
C820 C 0.26165 0.82145 0.74662 0.0
C821 C 0.33989 0.83204 0.73327 0.0
C822 C 0.34276 0.83981 0.75185 0.0
C823 C 0.24043 0.76735 0.7561 0.0
C824 C 0.29205 0.708 0.79398 0.0
C825 C 0.30929 0.68464 0.79152 0.0
C826 C 0.30538 0.68092 0.8093 0.0
C827 C 0.28837 0.70389 0.81171 0.0
C828 C 0.30235 0.69812 0.7837 0.0
C829 C 0.29497 0.69044 0.81925 0.0
C830 C 0.27639 0.75737 0.73691 0.0
C831 C 0.28555 0.72311 0.78718 0.0
H832 H 0.22768 0.86901 0.71923 0.0
H833 H 0.25158 0.82424 0.71074 0.0
H834 H 0.23599 0.84582 0.69835 0.0
H835 H 0.25065 0.84886 0.7668 0.0
H836 H 0.3103 0.67047 0.81548 0.0
H837 H 0.28041 0.71115 0.81989 0.0
H838 H 0.30538 0.7012 0.77008 0.0
H839 H 0.29207 0.68744 0.83292 0.0
Eu840 Eu 0.52144 0.03674 0.9921 0.0
C841 C 0.55625 0.99839 0.06347 0.0
N842 N 0.54231 0.99153 0.05028 0.0
C843 C 0.55315 0.9647 0.0455 0.0
C844 C 0.5696 0.98879 0.06786 0.0
C845 C 0.54041 0.97485 0.04145 0.0
C846 C 0.56791 0.97176 0.05864 0.0
C847 C 0.57158 0.02271 0.08629 0.0
C848 C 0.55717 0.01509 0.07254 0.0
C849 C 0.58516 0.01343 0.09037 0.0
C850 C 0.58416 0.99648 0.0812 0.0
Eu851 Eu 0.52248 0.00993 0.04217 0.0
N852 N 0.544 0.02387 0.0679 0.0
C853 C 0.5719 0.03945 0.09554 0.0
C854 C 0.54383 0.0398 0.07772 0.0
C855 C 0.55782 0.04788 0.09142 0.0
H856 H 0.52912 0.96938 0.03115 0.0
H857 H 0.55766 0.06059 0.09885 0.0
H858 H 0.51324 0.07726 0.00273 0.0
H859 H 0.48749 0.98433 0.93677 0.0
H860 H 0.53295 0.04642 0.0754 0.0
H861 H 0.58275 0.0458 0.10611 0.0
H862 H 0.51157 0.99918 0.96086 0.0
H863 H 0.55166 0.9515 0.03838 0.0
H864 H 0.59642 0.01917 0.10072 0.0
H865 H 0.59465 0.98939 0.08459 0.0
H866 H 0.49049 0.09439 0.99415 0.0
H867 H 0.57785 0.96394 0.06163 0.0
H868 H 0.46284 0.9991 0.92754 0.0
N869 N 0.50104 0.05463 0.98377 0.0
C870 C 0.48779 0.0475 0.96977 0.0
C871 C 0.48948 0.08116 0.9873 0.0
C872 C 0.47441 0.05678 0.96451 0.0
C873 C 0.50228 0.07135 0.99226 0.0
C874 C 0.47538 0.07378 0.9735 0.0
N875 N 0.50029 0.02191 0.96662 0.0
C876 C 0.50076 0.00573 0.95759 0.0
C877 C 0.47343 0.02269 0.94686 0.0
C878 C 0.48739 0.03068 0.96094 0.0
C879 C 0.47337 0.00572 0.93833 0.0
C880 C 0.48721 0.99731 0.94357 0.0
H881 H 0.4654 0.08136 0.96983 0.0
H882 H 0.44997 0.05568 0.94652 0.0
H883 H 0.44904 0.0258 0.93117 0.0
O884 O 0.54045 0.035 0.9722 0.0
O885 O 0.49353 0.02545 0.99683 0.0
O886 O 0.51146 0.02003 0.01855 0.0
O887 O 0.53598 0.06055 0.98328 0.0
O888 O 0.52819 0.00879 0.99014 0.0
O889 O 0.51803 0.9923 0.01394 0.0
O890 O 0.50249 0.01091 0.06114 0.0
O891 O 0.54813 0.01446 0.0301 0.0
O892 O 0.54101 0.03782 0.01776 0.0
O893 O 0.50337 0.98622 0.04491 0.0
O894 O 0.51777 0.03848 0.04577 0.0
O895 O 0.52243 0.05446 0.02011 0.0
C896 C 0.49518 0.01855 0.01178 0.0
C897 C 0.54487 0.05731 0.95301 0.0
C898 C 0.55769 0.05463 0.9241 0.0
C899 C 0.55053 0.06878 0.91862 0.0
C900 C 0.53754 0.07145 0.94754 0.0
C901 C 0.54032 0.07708 0.9303 0.0
C902 C 0.55473 0.04885 0.94109 0.0
C903 C 0.52401 0.99385 -0.0025 0.0
C904 C 0.54391 0.05188 0.97151 0.0
C905 C 0.46045 0.04881 0.95059 0.0
C906 C 0.45993 0.03179 0.94184 0.0
C907 C 0.55192 0.02695 0.01973 0.0
C908 C 0.4942 0.98525 0.07505 0.0
C909 C 0.48654 0.98625 0.10685 0.0
C910 C 0.48736 0.96831 0.10624 0.0
C911 C 0.49526 0.96748 0.07489 0.0
C912 C 0.49012 0.99459 0.09114 0.0
C913 C 0.49194 0.95913 0.09049 0.0
C914 C 0.51923 0.05318 0.03771 0.0
C915 C 0.49646 0.994 0.05834 0.0
H916 H 0.55304 0.07351 0.90551 0.0
H917 H 0.52998 0.07831 0.95663 0.0
H918 H 0.53488 0.08809 0.92616 0.0
H919 H 0.56077 0.03818 0.94537 0.0
H920 H 0.48403 0.96113 0.11771 0.0
H921 H 0.49829 0.95994 0.06263 0.0
H922 H 0.48965 0.00838 0.09132 0.0
H923 H 0.49243 0.94534 0.09018 0.0
Eu924 Eu 0.26185 0.24596 0.25388 0.0
C925 C 0.32229 0.31118 0.29904 0.0
N926 N 0.30726 0.30116 0.30359 0.0
C927 C 0.32026 0.30454 0.33546 0.0
C928 C 0.33706 0.31796 0.31264 0.0
C929 C 0.30587 0.29834 0.32167 0.0
C930 C 0.33597 0.31428 0.33091 0.0
C931 C 0.33775 0.32674 0.27633 0.0
C932 C 0.32257 0.31571 0.28107 0.0
C933 C 0.35247 0.33325 0.28981 0.0
C934 C 0.35215 0.32884 0.30787 0.0
Eu935 Eu 0.28281 0.29405 0.27981 0.0
N936 N 0.30776 0.31015 0.26851 0.0
C937 C 0.33749 0.3314 0.25831 0.0
C938 C 0.30707 0.31566 0.25134 0.0
C939 C 0.3221 0.32575 0.24574 0.0
H940 H 0.29341 0.2917 0.32558 0.0
H941 H 0.3217 0.32943 0.23185 0.0
H942 H 0.25119 0.25483 0.2102 0.0
H943 H 0.22273 0.20175 0.29487 0.0
H944 H 0.29494 0.31222 0.24196 0.0
H945 H 0.34893 0.3397 0.25411 0.0
H946 H 0.24967 0.22027 0.28721 0.0
H947 H 0.31905 0.30215 0.34968 0.0
H948 H 0.36403 0.34208 0.28653 0.0
H949 H 0.36352 0.33426 0.31818 0.0
H950 H 0.22532 0.24843 0.18637 0.0
H951 H 0.34699 0.31937 0.34173 0.0
H952 H 0.19474 0.19669 0.27363 0.0
N953 N 0.23733 0.24246 0.23068 0.0
C954 C 0.22202 0.23207 0.23413 0.0
C955 C 0.2241 0.24404 0.19985 0.0
C956 C 0.20698 0.22763 0.22052 0.0
C957 C 0.23869 0.24803 0.21365 0.0
C958 C 0.20814 0.23392 0.20334 0.0
N959 N 0.23664 0.2282 0.26326 0.0
C960 C 0.2373 0.21942 0.27849 0.0
C961 C 0.2061 0.21345 0.25425 0.0
C962 C 0.22162 0.22492 0.25087 0.0
C963 C 0.20638 0.20556 0.27058 0.0
C964 C 0.22212 0.20842 0.28264 0.0
H965 H 0.19695 0.23062 0.19249 0.0
H966 H 0.17985 0.21302 0.21379 0.0
H967 H 0.17904 0.20074 0.24333 0.0
O968 O 0.26657 0.21977 0.25639 0.0
O969 O 0.24139 0.26335 0.25944 0.0
O970 O 0.25504 0.28124 0.2863 0.0
O971 O 0.26446 0.22852 0.22913 0.0
O972 O 0.26373 0.24945 0.28513 0.0
O973 O 0.28784 0.27166 0.29565 0.0
O974 O 0.27835 0.32033 0.27638 0.0
O975 O 0.30069 0.28252 0.26082 0.0
O976 O 0.29243 0.2529 0.26249 0.0
O977 O 0.27837 0.31144 0.30359 0.0
O978 O 0.2655 0.2907 0.25205 0.0
O979 O 0.27325 0.26654 0.23673 0.0
C980 C 0.24054 0.27327 0.27513 0.0
C981 C 0.27802 0.20368 0.23231 0.0
C982 C 0.29132 0.17869 0.23794 0.0
C983 C 0.29358 0.17573 0.21906 0.0
C984 C 0.28048 0.2008 0.21342 0.0
C985 C 0.28838 0.18693 0.20688 0.0
C986 C 0.28382 0.19274 0.24456 0.0
C987 C 0.27615 0.25792 0.29822 0.0
C988 C 0.26656 0.21566 0.23855 0.0
C989 C 0.19147 0.21656 0.22412 0.0
C990 C 0.191 0.20956 0.24095 0.0
C991 C 0.30417 0.26661 0.25925 0.0
C992 C 0.26574 0.33649 0.29976 0.0
C993 C 0.25167 0.36066 0.293 0.0
C994 C 0.25097 0.36527 0.31203 0.0
C995 C 0.26473 0.34094 0.31882 0.0
C996 C 0.25879 0.3462 0.28685 0.0
C997 C 0.25735 0.35528 0.32489 0.0
C998 C 0.26887 0.28199 0.23674 0.0
C999 C 0.27719 0.32435 0.29403 0.0
H1000 H 0.29932 0.16476 0.21379 0.0
H1001 H 0.27573 0.20883 0.20359 0.0
H1002 H 0.29003 0.1846 0.19229 0.0
H1003 H 0.28162 0.19444 0.25909 0.0
H1004 H 0.2457 0.37668 0.31689 0.0
H1005 H 0.27042 0.33387 0.32909 0.0
H1006 H 0.25998 0.34333 0.27216 0.0
H1007 H 0.25708 0.35898 0.3396 0.0
Eu1008 Eu 0.53347 0.49774 0.01439 0.0
C1009 C 0.50936 0.56387 0.05985 0.0
N1010 N 0.50086 0.55306 0.04437 0.0
C1011 C 0.47267 0.55285 0.05591 0.0
C1012 C 0.49968 0.56943 0.07412 0.0
C1013 C 0.48274 0.54802 0.04193 0.0
C1014 C 0.48118 0.56349 0.07214 0.0
C1015 C 0.53668 0.58187 0.07665 0.0
C1016 C 0.52777 0.56991 0.0612 0.0
C1017 C 0.52704 0.58728 0.0909 0.0
C1018 C 0.50863 0.581 0.0897 0.0
Eu1019 Eu 0.51944 0.54606 0.02189 0.0
N1020 N 0.53699 0.56398 0.04756 0.0
C1021 C 0.55507 0.58798 0.07736 0.0
C1022 C 0.55472 0.57045 0.04778 0.0
C1023 C 0.56409 0.58235 0.06278 0.0
H1024 H 0.47595 0.5407 0.02903 0.0
H1025 H 0.57822 0.58736 0.06298 0.0
H1026 H 0.57696 0.50487 0.0068 0.0
H1027 H 0.47456 0.45904 0.97111 0.0
H1028 H 0.56155 0.56678 0.03622 0.0
H1029 H 0.56238 0.59721 0.08896 0.0
H1030 H 0.4912 0.47827 -0.00116 0.0
H1031 H 0.45832 0.54864 0.05402 0.0
H1032 H 0.53369 0.59637 0.10292 0.0
H1033 H 0.50139 0.58539 0.10077 0.0
H1034 H 0.59461 0.4975 0.98171 0.0
H1035 H 0.4733 0.56741 0.08284 0.0
H1036 H 0.49052 0.45035 0.94477 0.0
N1037 N 0.55205 0.49233 0.99137 0.0
C1038 C 0.5436 0.4821 0.9755 0.0
C1039 C 0.58028 0.49325 0.97972 0.0
C1040 C 0.55336 0.47709 0.96105 0.0
C1041 C 0.57016 0.49765 0.99382 0.0
C1042 C 0.57186 0.48299 0.96325 0.0
N1043 N 0.51592 0.48127 0.98785 0.0
C1044 C 0.49811 0.47499 0.98722 0.0
C1045 C 0.51624 0.46507 0.95779 0.0
C1046 C 0.52515 0.4762 0.97381 0.0
C1047 C 0.49781 0.45902 0.95679 0.0
C1048 C 0.48873 0.46394 0.97161 0.0
H1049 H 0.57981 0.47943 0.95246 0.0
H1050 H 0.55177 0.4621 0.93386 0.0
H1051 H 0.51936 0.4515 0.93107 0.0
O1052 O 0.52353 0.47599 0.03012 0.0
O1053 O 0.52375 0.51002 0.98895 0.0
O1054 O 0.50371 0.52759 -0.0027 0.0
O1055 O 0.54752 0.47622 0.01705 0.0
O1056 O 0.51034 0.50229 0.03023 0.0
O1057 O 0.49619 0.52268 0.01787 0.0
O1058 O 0.5279 0.56497 0.00221 0.0
O1059 O 0.53033 0.53546 0.04807 0.0
O1060 O 0.54772 0.51489 0.04038 0.0
O1061 O 0.50794 0.56924 0.01996 0.0
O1062 O 0.54305 0.54103 0.00708 0.0
O1063 O 0.55659 0.5209 0.02061 0.0
C1064 C 0.51058 0.51819 0.98481 0.0
C1065 C 0.54512 0.46034 0.04294 0.0
C1066 C 0.54527 0.43602 0.06173 0.0
C1067 C 0.56319 0.44319 0.06845 0.0
C1068 C 0.56298 0.46721 0.05019 0.0
C1069 C 0.57188 0.45869 0.06284 0.0
C1070 C 0.53618 0.44479 0.04902 0.0
C1071 C 0.49574 0.50753 0.02448 0.0
C1072 C 0.53675 0.46803 0.02738 0.0
C1073 C 0.54445 0.46614 0.94503 0.0
C1074 C 0.52598 0.4601 0.94344 0.0
C1075 C 0.54126 0.52493 0.05266 0.0
C1076 C 0.50729 0.58343 0.99299 0.0
C1077 C 0.50528 0.60834 0.97519 0.0
C1078 C 0.48671 0.60214 0.97182 0.0
C1079 C 0.48875 0.57783 0.98916 0.0
C1080 C 0.51562 0.59873 0.98583 0.0
C1081 C 0.47859 0.58736 0.97908 0.0
C1082 C 0.55739 0.53589 0.01377 0.0
C1083 C 0.51708 0.57523 0.00714 0.0
H1084 H 0.57051 0.43679 0.07818 0.0
H1085 H 0.57024 0.47897 0.04573 0.0
H1086 H 0.58569 0.46401 0.06813 0.0
H1087 H 0.52251 0.43917 0.04334 0.0
H1088 H 0.47826 0.60882 0.9636 0.0
H1089 H 0.48194 0.56645 0.9947 0.0
H1090 H 0.52983 0.60356 0.98928 0.0
H1091 H 0.46422 0.58328 0.97694 0.0
Eu1092 Eu 0.7778 0.29763 0.25489 0.0
C1093 C 0.73785 0.22968 0.29338 0.0
N1094 N 0.7531 0.24139 0.3001 0.0
C1095 C 0.74546 0.24064 0.33119 0.0
C1096 C 0.72533 0.22364 0.30532 0.0
C1097 C 0.75745 0.24621 0.31878 0.0
C1098 C 0.72916 0.22955 0.3244 0.0
C1099 C 0.71974 0.21047 0.26729 0.0
C1100 C 0.73514 0.22307 0.27462 0.0
C1101 C 0.70688 0.20498 0.279 0.0
C1102 C 0.70968 0.21154 0.29796 0.0
Eu1103 Eu 0.77236 0.25044 0.27807 0.0
N1104 N 0.74767 0.2289 0.26355 0.0
C1105 C 0.71786 0.20358 0.24848 0.0
C1106 C 0.74646 0.22139 0.24557 0.0
C1107 C 0.73143 0.20886 0.23765 0.0
H1108 H 0.77042 0.25404 0.32411 0.0
H1109 H 0.73041 0.20313 0.22327 0.0
H1110 H 0.78098 0.28516 0.20933 0.0
H1111 H 0.82613 0.33993 0.30839 0.0
H1112 H 0.75722 0.22478 0.23745 0.0
H1113 H 0.70624 0.19385 0.24232 0.0
H1114 H 0.79864 0.3181 0.29639 0.0
H1115 H 0.74888 0.24473 0.34599 0.0
H1116 H 0.69488 0.19543 0.27358 0.0
H1117 H 0.69983 0.20689 0.3069 0.0
H1118 H 0.80216 0.29238 0.18675 0.0
H1119 H 0.71993 0.22518 0.33404 0.0
H1120 H 0.84772 0.34994 0.28685 0.0
N1121 N 0.79744 0.30162 0.23213 0.0
C1122 C 0.81276 0.31369 0.23783 0.0
C1123 C 0.80535 0.29835 0.20108 0.0
C1124 C 0.82501 0.3185 0.22517 0.0
C1125 C 0.79349 0.29407 0.21403 0.0
C1126 C 0.82115 0.31062 0.20664 0.0
N1127 N 0.80458 0.31613 0.26859 0.0
C1128 C 0.8079 0.32257 0.28698 0.0
C1129 C 0.83225 0.33355 0.26268 0.0
C1130 C 0.81634 0.32124 0.25645 0.0
C1131 C 0.83566 0.34043 0.28154 0.0
C1132 C 0.8235 0.33481 0.29376 0.0
H1133 H 0.83021 0.31399 0.19651 0.0
H1134 H 0.85014 0.33497 0.22172 0.0
H1135 H 0.85648 0.34809 0.2545 0.0
O1136 O 0.76942 0.32279 0.26225 0.0
O1137 O 0.80299 0.28709 0.26401 0.0
O1138 O 0.79584 0.27278 0.28901 0.0
O1139 O 0.7681 0.31158 0.23303 0.0
O1140 O 0.76524 0.29577 0.28132 0.0
O1141 O 0.775 0.27493 0.29825 0.0
O1142 O 0.78777 0.22982 0.26914 0.0
O1143 O 0.7455 0.25649 0.26661 0.0
O1144 O 0.7496 0.28171 0.25164 0.0
O1145 O 0.78361 0.23633 0.29815 0.0
O1146 O 0.78343 0.2565 0.25161 0.0
O1147 O 0.76774 0.27316 0.23553 0.0
C1148 C 0.80775 0.27996 0.27886 0.0
C1149 C 0.75765 0.33901 0.23847 0.0
C1150 C 0.74013 0.36185 0.24334 0.0
C1151 C 0.73996 0.36408 0.22448 0.0
C1152 C 0.75741 0.34158 0.21966 0.0
C1153 C 0.74868 0.3541 0.21277 0.0
C1154 C 0.74919 0.34944 0.25042 0.0
C1155 C 0.7681 0.28901 0.29676 0.0
C1156 C 0.76488 0.32411 0.24479 0.0
C1157 C 0.84067 0.33104 0.23131 0.0
C1158 C 0.84427 0.33854 0.24998 0.0
C1159 C 0.73943 0.26809 0.25707 0.0
C1160 C 0.80094 0.21415 0.29334 0.0
C1161 C 0.81371 0.18779 0.28929 0.0
C1162 C 0.8177 0.18912 0.30869 0.0
C1163 C 0.80544 0.21529 0.31271 0.0
C1164 C 0.80546 0.20048 0.28153 0.0
C1165 C 0.81367 0.20284 0.32027 0.0
C1166 C 0.77371 0.25873 0.23673 0.0
C1167 C 0.7905 0.2267 0.28635 0.0
H1168 H 0.73307 0.3736 0.21883 0.0
H1169 H 0.76369 0.33368 0.21014 0.0
H1170 H 0.74844 0.35588 0.19823 0.0
H1171 H 0.74901 0.34745 0.2649 0.0
H1172 H 0.82416 0.17959 0.31491 0.0
H1173 H 0.80233 0.22571 0.32218 0.0
H1174 H 0.80203 0.19934 0.26661 0.0
H1175 H 0.81692 0.2038 0.33518 0.0
Eu1176 Eu 0.02242 0.5376 0.49256 0.0
C1177 C 0.05622 0.50047 0.56346 0.0
N1178 N 0.04191 0.4927 0.55105 0.0
C1179 C 0.05321 0.46604 0.54759 0.0
C1180 C 0.06995 0.4914 0.5681 0.0
C1181 C 0.04011 0.4757 0.54319 0.0
C1182 C 0.06826 0.47397 0.56001 0.0
C1183 C 0.07218 0.52633 0.58385 0.0
C1184 C 0.05727 0.51769 0.57117 0.0
C1185 C 0.08607 0.51749 0.58826 0.0
C1186 C 0.08493 0.50005 0.58045 0.0
Eu1187 Eu 0.02138 0.51012 0.5421 0.0
N1188 N 0.04368 0.52592 0.56637 0.0
C1189 C 0.07262 0.54354 0.59184 0.0
C1190 C 0.04361 0.54232 0.57514 0.0
C1191 C 0.05814 0.55145 0.5877 0.0
H1192 H 0.02864 0.46964 0.53331 0.0
H1193 H 0.05809 0.56457 0.59427 0.0
H1194 H 0.01282 0.57722 0.50652 0.0
H1195 H 0.99235 0.48954 0.43221 0.0
H1196 H 0.0324 0.54855 0.57291 0.0
H1197 H 0.08386 0.55066 0.60155 0.0
H1198 H 0.01575 0.50368 0.45762 0.0
H1199 H 0.05179 0.45258 0.54123 0.0
H1200 H 0.09767 0.52398 0.59784 0.0
H1201 H 0.09569 0.49336 0.58406 0.0
H1202 H 0.98952 0.59403 0.49915 0.0
H1203 H 0.0785 0.46653 0.56323 0.0
H1204 H 0.96671 0.50357 0.4245 0.0
N1205 N 0.00176 0.5557 0.48556 0.0
C1206 C 0.9891 0.54936 0.47078 0.0
C1207 C 0.98915 0.5814 0.49119 0.0
C1208 C 0.97534 0.55843 0.4663 0.0
C1209 C 0.00226 0.57172 0.49544 0.0
C1210 C 0.9755 0.57463 0.47674 0.0
N1211 N 0.00293 0.52489 0.46524 0.0
C1212 C 0.00446 0.50976 0.45477 0.0
C1213 C 0.97611 0.52601 0.44567 0.0
C1214 C 0.98964 0.53347 0.46035 0.0
C1215 C 0.97695 0.50984 0.43574 0.0
C1216 C 0.99135 0.50183 0.44011 0.0
H1217 H 0.96523 0.58207 0.47367 0.0
H1218 H 0.95098 0.55767 0.44831 0.0
H1219 H 0.9515 0.52915 0.43047 0.0
O1220 O 0.04416 0.53702 0.47566 0.0
O1221 O 0.9943 0.52461 0.49448 0.0
O1222 O 0.01011 0.52045 0.51851 0.0
O1223 O 0.03649 0.56177 0.4842 0.0
O1224 O 0.02696 0.50875 0.48981 0.0
O1225 O 0.01719 0.49238 0.514 0.0
O1226 O 0.00194 0.51096 0.56145 0.0
O1227 O 0.04718 0.5137 0.53032 0.0
O1228 O 0.03965 0.53703 0.51917 0.0
O1229 O 0.00345 0.48591 0.54632 0.0
O1230 O 0.01442 0.53789 0.54496 0.0
O1231 O 0.02413 0.55453 0.52113 0.0
C1232 C 0.99448 0.51791 0.50963 0.0
C1233 C 0.04812 0.55893 0.45552 0.0
C1234 C 0.05583 0.5524 0.42442 0.0
C1235 C 0.05488 0.5696 0.42105 0.0
C1236 C 0.04744 0.5762 0.45218 0.0
C1237 C 0.05064 0.58143 0.43491 0.0
C1238 C 0.05216 0.54708 0.44151 0.0
C1239 C 0.02273 0.49383 0.49731 0.0
C1240 C 0.04631 0.55374 0.47405 0.0
C1241 C 0.9618 0.551 0.45174 0.0
C1242 C 0.96211 0.53477 0.44155 0.0
C1243 C 0.05096 0.52662 0.52063 0.0
C1244 C 0.99493 0.48674 0.57697 0.0
C1245 C 0.98502 0.48973 0.60745 0.0
C1246 C 0.99382 0.47644 0.61249 0.0
C1247 C 0.00371 0.47335 0.5819 0.0
C1248 C 0.98535 0.49461 0.5897 0.0
C1249 C 0.00301 0.46815 0.59963 0.0
C1250 C 0.01818 0.55291 0.53762 0.0
C1251 C 0.99643 0.49402 0.55945 0.0
H1252 H 0.0582 0.57412 0.40805 0.0
H1253 H 0.04476 0.58573 0.46298 0.0
H1254 H 0.05034 0.5948 0.43245 0.0
H1255 H 0.05321 0.53387 0.44407 0.0
H1256 H 0.99339 0.4724 0.62622 0.0
H1257 H 0.01126 0.46714 0.57225 0.0
H1258 H 0.97851 0.50494 0.58595 0.0
H1259 H 0.00972 0.45783 0.60348 0.0
Eu1260 Eu 0.79886 0.76467 0.27081 0.0
C1261 C 0.73122 0.78754 0.22814 0.0
N1262 N 0.74221 0.7962 0.24338 0.0
C1263 C 0.74263 0.82352 0.23106 0.0
C1264 C 0.72625 0.79648 0.21328 0.0
C1265 C 0.74693 0.81409 0.24549 0.0
C1266 C 0.73256 0.81462 0.21468 0.0
C1267 C 0.71131 0.76083 0.21311 0.0
C1268 C 0.72378 0.76996 0.22806 0.0
C1269 C 0.70704 0.76945 0.19785 0.0
C1270 C 0.71452 0.78723 0.19792 0.0
Eu1271 Eu 0.74917 0.77903 0.26696 0.0
N1272 N 0.72835 0.7619 0.24289 0.0
C1273 C 0.70334 0.74337 0.21409 0.0
C1274 C 0.71982 0.7453 0.24448 0.0
C1275 C 0.70746 0.73564 0.22996 0.0
H1276 H 0.75332 0.82115 0.25862 0.0
H1277 H 0.701 0.72232 0.23107 0.0
H1278 H 0.78953 0.7221 0.27789 0.0
H1279 H 0.84132 0.82141 0.31462 0.0
H1280 H 0.72263 0.73957 0.25698 0.0
H1281 H 0.69372 0.73589 0.20289 0.0
H1282 H 0.8211 0.80612 0.28719 0.0
H1283 H 0.7467 0.83769 0.23276 0.0
H1284 H 0.69766 0.76259 0.18613 0.0
H1285 H 0.71072 0.79385 0.1863 0.0
H1286 H 0.79643 0.704 0.30215 0.0
H1287 H 0.729 0.82199 0.20361 0.0
H1288 H 0.85009 0.80485 0.33983 0.0
N1289 N 0.80424 0.74604 0.29318 0.0
C1290 C 0.81566 0.75372 0.30856 0.0
C1291 C 0.8018 0.71798 0.3042 0.0
C1292 C 0.82028 0.74372 0.32261 0.0
C1293 C 0.79769 0.72837 0.29058 0.0
C1294 C 0.81307 0.7257 0.32032 0.0
N1295 N 0.81788 0.78111 0.29674 0.0
C1296 C 0.82452 0.79871 0.29808 0.0
C1297 C 0.8344 0.77995 0.3263 0.0
C1298 C 0.82272 0.77168 0.31035 0.0
C1299 C 0.84108 0.79803 0.32781 0.0
C1300 C 0.83613 0.80743 0.31363 0.0
H1301 H 0.81629 0.71759 0.3308 0.0
H1302 H 0.83566 0.74445 0.34932 0.0
H1303 H 0.84798 0.77614 0.35257 0.0
O1304 O 0.82615 0.77043 0.26285 0.0
O1305 O 0.78663 0.77103 0.29765 0.0
O1306 O 0.77128 0.7921 0.28957 0.0
O1307 O 0.80932 0.74434 0.25464 0.0
O1308 O 0.79892 0.79129 0.26149 0.0
O1309 O 0.77316 0.80196 0.26773 0.0
O1310 O 0.72986 0.77134 0.2873 0.0
O1311 O 0.75526 0.76107 0.24242 0.0
O1312 O 0.78506 0.77159 0.24456 0.0
O1313 O 0.73034 0.79519 0.27431 0.0
O1314 O 0.75405 0.75517 0.28051 0.0
O1315 O 0.77416 0.74298 0.26417 0.0
C1316 C 0.77843 0.78402 0.30227 0.0
C1317 C 0.83912 0.74857 0.24464 0.0
C1318 C 0.8661 0.75369 0.22878 0.0
C1319 C 0.86624 0.73564 0.2276 0.0
C1320 C 0.83965 0.7306 0.243 0.0
C1321 C 0.85313 0.72423 0.2346 0.0
C1322 C 0.85242 0.76021 0.23736 0.0
C1323 C 0.78976 0.804 0.26328 0.0
C1324 C 0.82463 0.75467 0.25408 0.0
C1325 C 0.83197 0.75195 0.33842 0.0
C1326 C 0.839 0.76999 0.34026 0.0
C1327 C 0.77039 0.76224 0.2352 0.0
C1328 C 0.70892 0.7909 0.29621 0.0
C1329 C 0.68155 0.78541 0.31131 0.0
C1330 C 0.68159 0.8035 0.31324 0.0
C1331 C 0.70856 0.80896 0.29866 0.0
C1332 C 0.69543 0.77903 0.30292 0.0
C1333 C 0.69504 0.81516 0.3071 0.0
C1334 C 0.75975 0.74153 0.27277 0.0
C1335 C 0.72289 0.78516 0.28557 0.0
H1336 H 0.87653 0.7303 0.22107 0.0
H1337 H 0.82971 0.72143 0.24844 0.0
H1338 H 0.85342 0.71035 0.23352 0.0
H1339 H 0.85219 0.77411 0.23842 0.0
H1340 H 0.67118 0.80867 0.31971 0.0
H1341 H 0.7187 0.8184 0.29383 0.0
H1342 H 0.69543 0.76507 0.30118 0.0
H1343 H 0.69491 0.82908 0.30876 0.0
Eu1344 Eu 0.75719 0.27127 0.79241 0.0
C1345 C 0.80051 0.24171 0.72104 0.0
N1346 N 0.80638 0.25375 0.73641 0.0
C1347 C 0.83332 0.24262 0.74085 0.0
C1348 C 0.81077 0.2293 0.71529 0.0
C1349 C 0.82261 0.25451 0.74619 0.0
C1350 C 0.82735 0.22991 0.72539 0.0
C1351 C 0.777 0.22828 0.69616 0.0
C1352 C 0.7838 0.24126 0.71152 0.0
C1353 C 0.78726 0.21601 0.69036 0.0
C1354 C 0.80408 0.21652 0.69989 0.0
Eu1355 Eu 0.78737 0.27319 0.74461 0.0
N1356 N 0.77381 0.25288 0.71795 0.0
C1357 C 0.75994 0.22777 0.68727 0.0
C1358 C 0.75734 0.25266 0.70891 0.0
C1359 C 0.7501 0.24004 0.69365 0.0
H1360 H 0.82748 0.26444 0.758 0.0
H1361 H 0.73693 0.23983 0.68676 0.0
H1362 H 0.71629 0.27844 0.78253 0.0
H1363 H 0.81115 0.30772 0.84524 0.0
H1364 H 0.74961 0.26218 0.71314 0.0
H1365 H 0.75425 0.21798 0.67547 0.0
H1366 H 0.79587 0.28256 0.82329 0.0
H1367 H 0.84618 0.24326 0.74867 0.0
H1368 H 0.7822 0.20593 0.67865 0.0
H1369 H 0.81175 0.20684 0.69535 0.0
H1370 H 0.69835 0.30066 0.79112 0.0
H1371 H 0.83562 0.22062 0.7214 0.0
H1372 H 0.79594 0.33203 0.85423 0.0
N1373 N 0.73881 0.29092 0.80165 0.0
C1374 C 0.74606 0.30459 0.81497 0.0
C1375 C 0.71175 0.30193 0.79793 0.0
C1376 C 0.73649 0.31782 0.82 0.0
C1377 C 0.7219 0.28935 0.79314 0.0
C1378 C 0.71911 0.31629 0.81136 0.0
N1379 N 0.77223 0.29272 0.81769 0.0
C1380 C 0.78897 0.29309 0.82617 0.0
C1381 C 0.77157 0.32018 0.83634 0.0
C1382 C 0.76335 0.30567 0.82306 0.0
C1383 C 0.78907 0.32101 0.84417 0.0
C1384 C 0.79771 0.30733 0.83915 0.0
H1385 H 0.71131 0.32616 0.81485 0.0
H1386 H 0.73757 0.34263 0.8371 0.0
H1387 H 0.76834 0.34476 0.85133 0.0
O1388 O 0.75728 0.24963 0.80854 0.0
O1389 O 0.76326 0.29769 0.78326 0.0
O1390 O 0.78699 0.28992 0.77183 0.0
O1391 O 0.73207 0.2548 0.79706 0.0
O1392 O 0.78495 0.26365 0.7962 0.0
O1393 O 0.8032 0.27383 0.77355 0.0
O1394 O 0.78737 0.29385 0.72694 0.0
O1395 O 0.77668 0.24504 0.74712 0.0
O1396 O 0.7668 0.26126 0.76748 0.0
O1397 O 0.81236 0.28728 0.73715 0.0
O1398 O 0.75899 0.28007 0.74174 0.0
O1399 O 0.7408 0.26816 0.76365 0.0
C1400 C 0.77676 0.30141 0.77395 0.0
C1401 C 0.73391 0.24483 0.82673 0.0
C1402 C 0.73914 0.23652 0.85755 0.0
C1403 C 0.72478 0.24383 0.86298 0.0
C1404 C 0.71936 0.25194 0.83211 0.0
C1405 C 0.71481 0.25136 0.85019 0.0
C1406 C 0.74351 0.23687 0.83947 0.0
C1407 C 0.8006 0.26707 0.78941 0.0
C1408 C 0.74004 0.24612 0.80838 0.0
C1409 C 0.74465 0.33227 0.83317 0.0
C1410 C 0.76218 0.33348 0.84126 0.0
C1411 C 0.76733 0.24556 0.76059 0.0
C1412 C 0.80985 0.2957 0.70698 0.0
C1413 C 0.80502 0.30358 0.67595 0.0
C1414 C 0.81998 0.297 0.67112 0.0
C1415 C 0.82495 0.28921 0.70219 0.0
C1416 C 0.79999 0.30283 0.69375 0.0
C1417 C 0.82992 0.28983 0.68427 0.0
C1418 C 0.7432 0.27544 0.74809 0.0
C1419 C 0.80444 0.29589 0.72577 0.0
H1420 H 0.72106 0.24331 0.87691 0.0
H1421 H 0.71163 0.25806 0.82248 0.0
H1422 H 0.70358 0.25677 0.85432 0.0
H1423 H 0.75461 0.2311 0.83542 0.0
H1424 H 0.82434 0.29806 0.65751 0.0
H1425 H 0.83298 0.28384 0.71227 0.0
H1426 H 0.78863 0.30834 0.69744 0.0
H1427 H 0.84168 0.28507 0.68069 0.0
Eu1428 Eu 0.76337 0.74774 0.75459 0.0
C1429 C 0.82272 0.8108 0.80078 0.0
N1430 N 0.80753 0.80071 0.8049 0.0
C1431 C 0.82079 0.80171 0.83629 0.0
C1432 C 0.83759 0.81672 0.81441 0.0
C1433 C 0.80629 0.79639 0.82244 0.0
C1434 C 0.83652 0.8119 0.83226 0.0
C1435 C 0.83854 0.8268 0.77862 0.0
C1436 C 0.82323 0.81574 0.78301 0.0
C1437 C 0.85334 0.83264 0.79216 0.0
C1438 C 0.85288 0.82759 0.80998 0.0
Eu1439 Eu 0.78309 0.7955 0.78132 0.0
N1440 N 0.80873 0.80988 0.77007 0.0
C1441 C 0.83842 0.83188 0.76078 0.0
C1442 C 0.80839 0.81521 0.75291 0.0
C1443 C 0.82322 0.82611 0.74795 0.0
H1444 H 0.7939 0.78965 0.82612 0.0
H1445 H 0.82269 0.83037 0.73439 0.0
H1446 H 0.75104 0.75332 0.71018 0.0
H1447 H 0.72401 0.71612 0.80464 0.0
H1448 H 0.79651 0.8117 0.74327 0.0
H1449 H 0.84985 0.84046 0.75689 0.0
H1450 H 0.75048 0.73306 0.79416 0.0
H1451 H 0.81966 0.79832 0.85019 0.0
H1452 H 0.86517 0.84117 0.78902 0.0
H1453 H 0.86436 0.83234 0.82032 0.0
H1454 H 0.72494 0.74344 0.68658 0.0
H1455 H 0.84762 0.81626 0.84312 0.0
H1456 H 0.69679 0.70519 0.7825 0.0
N1457 N 0.7383 0.74198 0.7318 0.0
C1458 C 0.72338 0.73196 0.73654 0.0
C1459 C 0.72425 0.74029 0.70063 0.0
C1460 C 0.70824 0.72567 0.72331 0.0
C1461 C 0.73894 0.74618 0.71415 0.0
C1462 C 0.70885 0.72995 0.7052 0.0
N1463 N 0.73807 0.73379 0.76712 0.0
C1464 C 0.73851 0.72946 0.78475 0.0
C1465 C 0.70792 0.71735 0.75982 0.0
C1466 C 0.72325 0.72777 0.75464 0.0
C1467 C 0.7082 0.71332 0.77806 0.0
C1468 C 0.72354 0.71947 0.7906 0.0
H1469 H 0.69756 0.72524 0.69461 0.0
H1470 H 0.68141 0.71011 0.71841 0.0
H1471 H 0.68109 0.70294 0.75039 0.0
O1472 O 0.77077 0.72262 0.75951 0.0
O1473 O 0.74234 0.76413 0.76192 0.0
O1474 O 0.75549 0.78325 0.7881 0.0
O1475 O 0.76322 0.72797 0.73114 0.0
O1476 O 0.77917 0.75026 0.78324 0.0
O1477 O 0.77299 0.77506 0.79904 0.0
O1478 O 0.77588 0.8201 0.77537 0.0
O1479 O 0.80452 0.78026 0.77256 0.0
O1480 O 0.79116 0.75906 0.74796 0.0
O1481 O 0.78402 0.81651 0.80382 0.0
O1482 O 0.76765 0.79306 0.7525 0.0
O1483 O 0.77339 0.76807 0.73662 0.0
C1484 C 0.74119 0.77474 0.77702 0.0
C1485 C 0.77042 0.69961 0.73383 0.0
C1486 C 0.78349 0.67385 0.73662 0.0
C1487 C 0.77492 0.66641 0.71881 0.0
C1488 C 0.76218 0.69218 0.71597 0.0
C1489 C 0.76444 0.67562 0.70852 0.0
C1490 C 0.78115 0.69052 0.744 0.0
C1491 C 0.77721 0.75957 0.79881 0.0
C1492 C 0.76814 0.71697 0.74171 0.0
C1493 C 0.69308 0.71516 0.72844 0.0
C1494 C 0.6929 0.71106 0.74665 0.0
C1495 C 0.8054 0.76848 0.75838 0.0
C1496 C 0.76511 0.83674 0.79928 0.0
C1497 C 0.74837 0.85931 0.79385 0.0
C1498 C 0.74382 0.85993 0.81205 0.0
C1499 C 0.76048 0.83718 0.81754 0.0
C1500 C 0.75879 0.84769 0.78748 0.0
C1501 C 0.74974 0.84871 0.82382 0.0
C1502 C 0.76997 0.7839 0.73699 0.0
C1503 C 0.77823 0.82681 0.79286 0.0
H1504 H 0.77615 0.65342 0.71285 0.0
H1505 H 0.75391 0.6991 0.70783 0.0
H1506 H 0.75798 0.66986 0.6948 0.0
H1507 H 0.78798 0.69665 0.75749 0.0
H1508 H 0.73596 0.86922 0.81714 0.0
H1509 H 0.76546 0.82901 0.82706 0.0
H1510 H 0.7627 0.84784 0.77355 0.0
H1511 H 0.74639 0.84925 0.83793 0.0
Eu1512 Eu 0.54982 0.53345 0.53345 0.0
C1513 C 0.48499 0.47338 0.48842 0.0
N1514 N 0.49525 0.48816 0.48398 0.0
C1515 C 0.49276 0.47494 0.45218 0.0
C1516 C 0.47858 0.45862 0.47482 0.0
C1517 C 0.49862 0.48929 0.46597 0.0
C1518 C 0.48282 0.45948 0.45664 0.0
C1519 C 0.46843 0.45842 0.51083 0.0
C1520 C 0.47976 0.47333 0.50625 0.0
C1521 C 0.46257 0.44358 0.49746 0.0
C1522 C 0.46756 0.44371 0.4795 0.0
Eu1523 Eu 0.5015 0.51253 0.50772 0.0
N1524 N 0.48495 0.48809 0.51879 0.0
C1525 C 0.46274 0.45907 0.52855 0.0
C1526 C 0.47861 0.48911 0.53569 0.0
C1527 C 0.46778 0.47452 0.54099 0.0
H1528 H 0.50535 0.50154 0.46207 0.0
H1529 H 0.46305 0.47532 0.55452 0.0
H1530 H 0.5417 0.54511 0.57734 0.0
H1531 H 0.59625 0.56975 0.49203 0.0
H1532 H 0.48184 0.50121 0.54502 0.0
H1533 H 0.45406 0.44788 0.53256 0.0
H1534 H 0.57708 0.54369 0.50039 0.0
H1535 H 0.49556 0.47595 0.43802 0.0
H1536 H 0.45379 0.43208 0.50073 0.0
H1537 H 0.46251 0.43231 0.46921 0.0
H1538 H 0.54832 0.57115 0.60092 0.0
H1539 H 0.478 0.44847 0.44581 0.0
H1540 H 0.60129 0.59804 0.51256 0.0
N1541 N 0.55461 0.558 0.55673 0.0
C1542 C 0.5652 0.57287 0.55295 0.0
C1543 C 0.55287 0.57192 0.58738 0.0
C1544 C 0.56962 0.58806 0.56625 0.0
C1545 C 0.54883 0.55722 0.57381 0.0
C1546 C 0.56315 0.58748 0.58353 0.0
N1547 N 0.56917 0.55746 0.52417 0.0
C1548 C 0.57823 0.55614 0.50895 0.0
C1549 C 0.58423 0.58768 0.53238 0.0
C1550 C 0.57251 0.57264 0.53618 0.0
C1551 C 0.59231 0.58675 0.51598 0.0
C1552 C 0.58947 0.57083 0.50435 0.0
H1553 H 0.56644 0.5988 0.59417 0.0
H1554 H 0.58435 0.61491 0.57228 0.0
H1555 H 0.59718 0.61455 0.5427 0.0
O1556 O 0.57467 0.52512 0.52957 0.0
O1557 O 0.53208 0.55363 0.52883 0.0
O1558 O 0.5138 0.54036 0.50203 0.0
O1559 O 0.56749 0.53041 0.55792 0.0
O1560 O 0.54614 0.53293 0.50236 0.0
O1561 O 0.5248 0.50831 0.49183 0.0
O1562 O 0.47461 0.51679 0.51077 0.0
O1563 O 0.51288 0.49488 0.52657 0.0
O1564 O 0.54264 0.50334 0.52414 0.0
O1565 O 0.48404 0.51585 0.48365 0.0
O1566 O 0.504 0.52932 0.53584 0.0
O1567 O 0.52887 0.52254 0.55091 0.0
C1568 C 0.52191 0.5546 0.51341 0.0
C1569 C 0.59586 0.52138 0.55471 0.0
C1570 C 0.62168 0.50909 0.54869 0.0
C1571 C 0.62675 0.51022 0.56786 0.0
C1572 C 0.60099 0.52273 0.57393 0.0
C1573 C 0.61649 0.51723 0.58045 0.0
C1574 C 0.60646 0.51484 0.54218 0.0
C1575 C 0.53849 0.52018 0.48932 0.0
C1576 C 0.57913 0.52585 0.54742 0.0
C1577 C 0.58085 0.60315 0.56223 0.0
C1578 C 0.58812 0.60295 0.54535 0.0
C1579 C 0.52909 0.49165 0.52791 0.0
C1580 C 0.45892 0.5289 0.48708 0.0
C1581 C 0.43557 0.54479 0.49343 0.0
C1582 C 0.43222 0.5463 0.47449 0.0
C1583 C 0.45554 0.53041 0.46805 0.0
C1584 C 0.44889 0.53623 0.49975 0.0
C1585 C 0.44229 0.53918 0.46184 0.0
C1586 C 0.51309 0.52661 0.55114 0.0
C1587 C 0.47074 0.51734 0.49304 0.0
H1588 H 0.63852 0.5056 0.573 0.0
H1589 H 0.59296 0.5278 0.58386 0.0
H1590 H 0.62039 0.51814 0.59525 0.0
H1591 H 0.60256 0.51351 0.5273 0.0
H1592 H 0.42165 0.55271 0.46954 0.0
H1593 H 0.46275 0.52437 0.45792 0.0
H1594 H 0.45089 0.53473 0.51438 0.0
H1595 H 0.43955 0.54009 0.44717 0.0
Eu1596 Eu -0.00015 0.51948 0.0301 0.0
C1597 C 0.06615 0.55771 0.99036 0.0
N1598 N 0.05392 0.54256 0.98465 0.0
C1599 C 0.05159 0.54966 0.95342 0.0
C1600 C 0.07127 0.56956 0.97766 0.0
C1601 C 0.0471 0.53815 0.96637 0.0
C1602 C 0.06362 0.56548 0.95911 0.0
C1603 C 0.08705 0.57663 0.01486 0.0
C1604 C 0.07401 0.56127 0.00889 0.0
C1605 C 0.09203 0.5884 0.0022 0.0
C1606 C 0.08412 0.58493 0.98371 0.0
Eu1607 Eu 0.04917 0.52391 0.00778 0.0
N1608 N 0.06898 0.54975 0.02106 0.0
C1609 C 0.09488 0.57959 0.03338 0.0
C1610 C 0.07661 0.55255 0.03902 0.0
C1611 C 0.08945 0.56761 0.04552 0.0
H1612 H 0.03867 0.52554 0.96148 0.0
H1613 H 0.09532 0.56981 0.0598 0.0
H1614 H 0.0109 0.51572 0.07585 0.0
H1615 H 0.94927 0.47736 0.97869 0.0
H1616 H 0.07315 0.543 0.04819 0.0
H1617 H 0.10531 0.59092 0.0384 0.0
H1618 H 0.97262 0.50344 0.99088 0.0
H1619 H 0.04604 0.54614 0.93898 0.0
H1620 H 0.10206 0.60023 0.00655 0.0
H1621 H 0.08821 0.59412 0.97411 0.0
H1622 H 0.00341 0.49444 0.09755 0.0
H1623 H 0.06723 0.57425 0.94896 0.0
H1624 H 0.94104 0.45424 -0.00131 0.0
N1625 N 0.99487 0.49971 0.05237 0.0
C1626 C 0.98214 0.48497 0.0465 0.0
C1627 C 0.99757 0.49147 0.08316 0.0
C1628 C 0.97708 0.47265 0.05878 0.0
C1629 C 0.0021 0.50338 0.0706 0.0
C1630 C 0.98515 0.47597 0.07719 0.0
N1631 N 0.97822 0.49466 0.01686 0.0
C1632 C 0.96938 0.49325 -0.00055 0.0
C1633 C 0.96003 0.46748 0.02214 0.0
C1634 C 0.97351 0.48245 0.02838 0.0
C1635 C 0.95143 0.46557 0.00398 0.0
C1636 C 0.95605 0.47857 0.99263 0.0
H1637 H 0.98153 0.46688 0.08704 0.0
H1638 H 0.95983 0.44807 0.06174 0.0
H1639 H 0.94505 0.44348 0.02967 0.0
O1640 O 0.97808 0.53344 0.02156 0.0
O1641 O 0.00493 0.49365 0.01455 0.0
O1642 O 0.03439 0.49589 0.00767 0.0
O1643 O 0.98364 0.52803 0.05019 0.0
O1644 O 0.00844 0.53094 0.00488 0.0
O1645 O 0.02474 0.51576 0.98739 0.0
O1646 O 0.07486 0.51608 0.016 0.0
O1647 O 0.03995 0.54975 0.01756 0.0
O1648 O 0.01967 0.54555 0.0395 0.0
O1649 O 0.06313 0.51246 0.98673 0.0
O1650 O 0.04175 0.5122 0.03338 0.0
O1651 O 0.02422 0.52632 0.05044 0.0
C1652 C 0.01841 0.48674 0.00906 0.0
C1653 C 0.96041 0.54425 0.0456 0.0
C1654 C 0.93542 0.55902 0.04089 0.0
C1655 C 0.93507 0.5618 0.06021 0.0
C1656 C 0.95985 0.54727 0.06496 0.0
C1657 C 0.94727 0.55601 0.07216 0.0
C1658 C 0.9482 0.55034 0.03353 0.0
C1659 C 0.01007 0.52153 0.9895 0.0
C1660 C 0.97414 0.53515 0.03864 0.0
C1661 C 0.96382 0.45765 0.05249 0.0
C1662 C 0.95537 0.45505 0.03423 0.0
C1663 C 0.03079 0.55575 0.03058 0.0
C1664 C 0.09133 0.5034 0.99215 0.0
C1665 C 0.11456 0.48616 0.99605 0.0
C1666 C 0.11761 0.48725 0.97748 0.0
C1667 C 0.09473 0.50436 0.97363 0.0
C1668 C 0.10154 0.4945 0.00353 0.0
C1669 C 0.10783 0.49639 0.96641 0.0
C1670 C 0.03925 0.52121 0.04866 0.0
C1671 C 0.07619 0.51059 -0.00135 0.0
H1672 H 0.92541 0.56864 0.06606 0.0
H1673 H 0.96921 0.54297 0.07464 0.0
H1674 H 0.94702 0.55831 0.08705 0.0
H1675 H 0.94851 0.54825 0.01861 0.0
H1676 H 0.1276 0.48095 0.97153 0.0
H1677 H 0.08708 0.51112 0.9646 0.0
H1678 H 0.09891 0.49342 0.01775 0.0
H1679 H 0.11026 0.49712 0.9521 0.0
H1680 H 0.97703 0.19132 0.94408 0.0
H1681 H 0.98067 0.16353 0.95541 0.0
H1682 H 0.03049 0.18952 0.9872 0.0
H1683 H 0.02662 0.21745 0.97641 0.0
H1684 H 0.03272 0.15705 0.96626 0.0
H1685 H 0.99646 0.17864 0.00956 0.0
H1686 H 0.97066 0.19004 0.01984 0.0
H1687 H 0.93542 0.14277 0.99328 0.0
H1688 H 0.96099 0.13121 0.98253 0.0
H1689 H 0.04543 0.08614 0.01837 0.0
H1690 H 0.0423 0.11469 0.00904 0.0
H1691 H 0.98915 0.09221 0.98275 0.0
H1692 H 0.99226 0.06363 0.99187 0.0
H1693 H 0.98916 0.12348 0.00149 0.0
H1694 H 0.02485 0.10186 0.95771 0.0
H1695 H 0.05025 0.09037 0.94649 0.0
H1696 H 0.08617 0.13731 0.97281 0.0
H1697 H 0.06101 0.14895 0.98451 0.0
C1698 C 0.98867 0.1912 0.95366 0.0
C1699 C 0.00144 0.2068 0.95939 0.0
C1700 C 0.99077 0.17522 0.96014 0.0
C1701 C 0.0059 0.17421 0.97224 0.0
C1702 C 0.01869 0.18977 0.97792 0.0
C1703 C 0.01638 0.20584 0.9718 0.0
C1704 C 0.00847 0.15697 0.97873 0.0
C1705 C 0.02331 0.14986 0.97421 0.0
C1706 C 0.99607 0.14717 0.98875 0.0
C1707 C 0.98063 0.15416 0.995 0.0
C1708 C 0.98319 0.17076 0.0057 0.0
C1709 C 0.96861 0.17724 0.01166 0.0
C1710 C 0.95141 0.16717 0.00716 0.0
C1711 C 0.94875 0.15058 0.99671 0.0
C1712 C 0.96329 0.14406 0.99068 0.0
C1713 C 0.03309 0.08716 0.01056 0.0
C1714 C 0.01922 0.07226 0.00586 0.0
C1715 C 0.03131 0.10363 0.00513 0.0
C1716 C 0.01551 0.10585 0.99493 0.0
C1717 C 0.00152 0.09108 0.99053 0.0
C1718 C 0.00338 0.07459 0.99576 0.0
C1719 C 0.0134 0.12345 0.98897 0.0
C1720 C 0.99862 0.13065 0.99358 0.0
C1721 C 0.02583 0.13327 0.97894 0.0
C1722 C 0.04105 0.12617 0.97223 0.0
C1723 C 0.03818 0.10964 0.96133 0.0
C1724 C 0.05254 0.10312 0.95483 0.0
C1725 C 0.06982 0.11307 0.959 0.0
C1726 C 0.07278 0.12958 0.96965 0.0
C1727 C 0.05848 0.13615 0.97622 0.0
H1728 H 0.08091 0.10802 0.95392 0.0
H1729 H 0.94014 0.17219 0.01181 0.0
H1730 H 0.11171 0.81709 0.14726 0.0
H1731 H 0.13694 0.81376 0.16908 0.0
H1732 H 0.12419 0.75766 0.15317 0.0
H1733 H 0.09896 0.76103 0.13119 0.0
H1734 H 0.13271 0.77104 0.19488 0.0
H1735 H 0.16427 0.77327 0.13691 0.0
H1736 H 0.16532 0.78674 0.10779 0.0
H1737 H 0.17315 0.83806 0.13908 0.0
H1738 H 0.17294 0.82488 0.16837 0.0
H1739 H 0.21193 0.75022 0.23829 0.0
H1740 H 0.18559 0.75227 0.21757 0.0
H1741 H 0.20937 0.80572 0.21191 0.0
H1742 H 0.23631 0.803 0.2314 0.0
H1743 H 0.19405 0.7935 0.18089 0.0
H1744 H 0.17185 0.79047 0.24027 0.0
H1745 H 0.16543 0.77829 0.26928 0.0
H1746 H 0.13457 0.73096 0.23763 0.0
H1747 H 0.14099 0.74276 0.20843 0.0
C1748 C 0.11445 0.80408 0.14827 0.0
C1749 C 0.10366 0.78937 0.13721 0.0
C1750 C 0.12881 0.80216 0.16081 0.0
C1751 C 0.1326 0.78545 0.16278 0.0
C1752 C 0.12163 0.77069 0.15192 0.0
C1753 C 0.10736 0.77263 0.1392 0.0
C1754 C 0.14849 0.7836 0.17557 0.0
C1755 C 0.14615 0.77575 0.19182 0.0
C1756 C 0.166 0.79012 0.17188 0.0
C1757 C 0.16889 0.79815 0.15474 0.0
C1758 C 0.16668 0.78745 0.13754 0.0
C1759 C 0.16709 0.79502 0.12103 0.0
C1760 C 0.1694 0.81325 0.12159 0.0
C1761 C 0.17148 0.82395 0.13867 0.0
C1762 C 0.17154 0.81647 0.15524 0.0
C1763 C 0.21146 0.76242 0.23266 0.0
C1764 C 0.22617 0.77648 0.23656 0.0
C1765 C 0.19626 0.76368 0.22088 0.0
C1766 C 0.19497 0.77934 0.21329 0.0
C1767 C 0.20975 0.79343 0.21738 0.0
C1768 C 0.22519 0.79194 0.22864 0.0
C1769 C 0.17858 0.78093 0.20076 0.0
C1770 C 0.18075 0.78873 0.18431 0.0
C1771 C 0.16085 0.77459 0.20459 0.0
C1772 C 0.15705 0.76745 0.22215 0.0
C1773 C 0.1638 0.77742 0.23949 0.0
C1774 C 0.16014 0.77059 0.25597 0.0
C1775 C 0.14963 0.75385 0.25529 0.0
C1776 C 0.14273 0.74391 0.23813 0.0
C1777 C 0.14636 0.75067 0.22162 0.0
H1778 H 0.14681 0.74859 0.26806 0.0
H1779 H 0.16951 0.81909 0.1088 0.0
H1780 H 0.5235 0.8184 0.47874 0.0
H1781 H 0.52566 0.84924 0.49217 0.0
H1782 H 0.48806 0.85601 0.44696 0.0
H1783 H 0.48643 0.82571 0.43341 0.0
H1784 H 0.51355 0.88233 0.4508 0.0
H1785 H 0.47894 0.85439 0.49494 0.0
H1786 H 0.47253 0.8343 0.51835 0.0
H1787 H 0.52036 0.86085 0.553 0.0
H1788 H 0.52716 0.88099 0.52968 0.0
H1789 H 0.49377 0.96553 0.48683 0.0
H1790 H 0.49116 0.93391 0.47679 0.0
H1791 H 0.53654 0.93319 0.51607 0.0
H1792 H 0.53951 0.96481 0.52572 0.0
H1793 H 0.50844 0.90417 0.51618 0.0
H1794 H 0.54252 0.93239 0.47264 0.0
H1795 H 0.55003 0.9517 0.44881 0.0
H1796 H 0.50366 0.92398 0.4126 0.0
H1797 H 0.4957 0.90467 0.43635 0.0
C1798 C 0.51539 0.82638 0.47197 0.0
C1799 C 0.50466 0.81948 0.45507 0.0
C1800 C 0.51665 0.84411 0.47962 0.0
C1801 C 0.507 0.85527 0.47069 0.0
C1802 C 0.49581 0.84801 0.45419 0.0
C1803 C 0.49476 0.83053 0.4465 0.0
C1804 C 0.50897 0.87463 0.4777 0.0
C1805 C 0.5121 0.88697 0.46505 0.0
C1806 C 0.50775 0.88111 0.49644 0.0
C1807 C 0.50365 0.86908 0.51049 0.0
C1808 C 0.48815 0.85587 0.5075 0.0
C1809 C 0.48444 0.84448 0.52076 0.0
C1810 C 0.49606 0.84626 0.53713 0.0
C1811 C 0.51139 0.85947 0.5403 0.0
C1812 C 0.51517 0.87088 0.52707 0.0
C1813 C 0.50312 0.95862 0.49343 0.0
C1814 C 0.51687 0.96782 0.50711 0.0
C1815 C 0.50168 0.9405 0.48759 0.0
C1816 C 0.5137 0.93098 0.49556 0.0
C1817 C 0.52709 0.94008 0.50962 0.0
C1818 C 0.5288 0.95824 0.51511 0.0
C1819 C 0.51253 0.91168 0.48913 0.0
C1820 C 0.5097 0.89943 0.50189 0.0
C1821 C 0.51398 0.90524 0.47047 0.0
C1822 C 0.51835 0.91726 0.45643 0.0
C1823 C 0.53376 0.93058 0.45973 0.0
C1824 C 0.53814 0.94148 0.44619 0.0
C1825 C 0.52729 0.93912 0.42923 0.0
C1826 C 0.51202 0.92584 0.42577 0.0
C1827 C 0.50756 0.91492 0.43927 0.0
H1828 H 0.53074 0.94753 0.41874 0.0
H1829 H 0.49316 0.83743 0.54737 0.0
H1830 H 0.51462 0.28391 0.67131 0.0
H1831 H 0.48661 0.28402 0.68418 0.0
H1832 H 0.4585 0.27572 0.6288 0.0
H1833 H 0.48704 0.27614 0.61567 0.0
H1834 H 0.44433 0.29827 0.65321 0.0
H1835 H 0.45761 0.24091 0.65257 0.0
H1836 H 0.47662 0.21922 0.65761 0.0
H1837 H 0.48486 0.23725 0.71623 0.0
H1838 H 0.46603 0.25915 0.71151 0.0
H1839 H 0.36246 0.26281 0.69152 0.0
H1840 H 0.38742 0.27125 0.67353 0.0
H1841 H 0.42405 0.27996 0.72385 0.0
H1842 H 0.39915 0.27148 0.7417 0.0
H1843 H 0.43189 0.25579 0.69838 0.0
H1844 H 0.41904 0.31393 0.69842 0.0
H1845 H 0.40083 0.33615 0.69278 0.0
H1846 H 0.39127 0.31624 0.6346 0.0
H1847 H 0.40929 0.29378 0.63995 0.0
C1848 C 0.50253 0.2823 0.6618 0.0
C1849 C 0.50304 0.27985 0.64246 0.0
C1850 C 0.48647 0.2823 0.6692 0.0
C1851 C 0.47031 0.27945 0.65753 0.0
C1852 C 0.47077 0.27785 0.63812 0.0
C1853 C 0.48706 0.27811 0.63063 0.0
C1854 C 0.45318 0.27733 0.66598 0.0
C1855 C 0.4414 0.28877 0.66283 0.0
C1856 C 0.44939 0.26507 0.67872 0.0
C1857 C 0.46048 0.25172 0.68167 0.0
C1858 C 0.46354 0.24029 0.66653 0.0
C1859 C 0.47427 0.22795 0.66933 0.0
C1860 C 0.48196 0.22687 0.68723 0.0
C1861 C 0.47889 0.23809 0.70237 0.0
C1862 C 0.46815 0.25044 0.69965 0.0
C1863 C 0.37575 0.26738 0.69882 0.0
C1864 C 0.37884 0.26679 0.71806 0.0
C1865 C 0.39006 0.27209 0.68851 0.0
C1866 C 0.40772 0.27616 0.69726 0.0
C1867 C 0.4106 0.27686 0.71671 0.0
C1868 C 0.39634 0.27221 0.72698 0.0
C1869 C 0.42322 0.27713 0.68615 0.0
C1870 C 0.43466 0.26527 0.6887 0.0
C1871 C 0.42651 0.28887 0.67279 0.0
C1872 C 0.41531 0.30203 0.66963 0.0
C1873 C 0.41287 0.31415 0.68447 0.0
C1874 C 0.40264 0.32683 0.68131 0.0
C1875 C 0.39484 0.32756 0.66336 0.0
C1876 C 0.39729 0.31563 0.64851 0.0
C1877 C 0.40752 0.30294 0.6516 0.0
H1878 H 0.38695 0.33741 0.66094 0.0
H1879 H 0.49029 0.21733 0.68936 0.0
H1880 H 0.00608 0.78466 0.62148 0.0
H1881 H 0.00665 0.81031 0.60496 0.0
H1882 H 0.03019 0.8443 0.65538 0.0
H1883 H 0.02913 0.81868 0.67212 0.0
H1884 H 0.00612 0.85861 0.63826 0.0
H1885 H 0.05518 0.83408 0.6192 0.0
H1886 H 0.07009 0.81069 0.60672 0.0
H1887 H 0.03609 0.80354 0.55502 0.0
H1888 H 0.02083 0.82677 0.56728 0.0
H1889 H 0.04319 0.9339 0.59661 0.0
H1890 H 0.03471 0.90899 0.61369 0.0
H1891 H 0.01097 0.87674 0.56226 0.0
H1892 H 0.01987 0.9017 0.54517 0.0
H1893 H 0.03373 0.86127 0.57961 0.0
H1894 H 0.98551 0.88759 0.59941 0.0
H1895 H 0.97161 0.91137 0.61292 0.0
H1896 H 0.0058 0.9161 0.66418 0.0
H1897 H 0.01997 0.89242 0.65092 0.0
C1898 C 0.0114 0.79759 0.62907 0.0
C1899 C 0.01763 0.79958 0.64812 0.0
C1900 C 0.01179 0.81229 0.61957 0.0
C1901 C 0.01872 0.82934 0.62879 0.0
C1902 C 0.02478 0.83135 0.64789 0.0
C1903 C 0.02422 0.81666 0.65745 0.0
C1904 C 0.01968 0.84502 0.61853 0.0
C1905 C 0.01232 0.85925 0.62553 0.0
C1906 C 0.02748 0.84587 0.60172 0.0
C1907 C 0.03675 0.83203 0.59423 0.0
C1908 C 0.05081 0.82744 0.60521 0.0
C1909 C 0.05934 0.81423 0.59817 0.0
C1910 C 0.05401 0.8056 0.58011 0.0
C1911 C 0.04019 0.81022 0.56902 0.0
C1912 C 0.03161 0.82342 0.576 0.0
C1913 C 0.03541 0.92172 0.5891 0.0
C1914 C 0.03181 0.91985 0.56963 0.0
C1915 C 0.03063 0.9074 0.59886 0.0
C1916 C 0.02211 0.89086 0.58936 0.0
C1917 C 0.0175 0.88931 0.56998 0.0
C1918 C 0.02234 0.90365 0.56022 0.0
C1919 C 0.02002 0.87487 0.59922 0.0
C1920 C 0.02732 0.86059 0.59221 0.0
C1921 C 0.01236 0.87409 0.61613 0.0
C1922 C 0.00389 0.88834 0.62411 0.0
C1923 C 0.99014 0.89379 0.61351 0.0
C1924 C 0.98219 0.90722 0.62114 0.0
C1925 C 0.98785 0.91527 0.63938 0.0
C1926 C 0.00143 0.90986 0.65005 0.0
C1927 C 0.0094 0.89641 0.6425 0.0
H1928 H 0.9817 0.92568 0.64525 0.0
H1929 H 0.06061 0.79535 0.57469 0.0
H1930 H 0.47268 0.78329 0.85216 0.0
H1931 H 0.4404 0.77901 0.84318 0.0
H1932 H 0.44996 0.79531 0.78977 0.0
H1933 H 0.48201 0.80013 0.79889 0.0
H1934 H 0.42674 0.81141 0.80236 0.0
H1935 H 0.43264 0.75084 0.79783 0.0
H1936 H 0.44064 0.72425 0.80888 0.0
H1937 H 0.40548 0.7268 0.85104 0.0
H1938 H 0.39749 0.75357 0.84045 0.0
H1939 H 0.33686 0.79109 0.75904 0.0
H1940 H 0.36875 0.79271 0.76759 0.0
H1941 H 0.35786 0.77399 0.81965 0.0
H1942 H 0.32601 0.77167 0.81083 0.0
H1943 H 0.38167 0.75863 0.80797 0.0
H1944 H 0.37762 0.8197 0.81489 0.0
H1945 H 0.37068 0.84744 0.80598 0.0
H1946 H 0.40223 0.84417 0.76062 0.0
H1947 H 0.40954 0.81647 0.76944 0.0
C1948 C 0.46789 0.78577 0.83843 0.0
C1949 C 0.48006 0.79214 0.82631 0.0
C1950 C 0.44935 0.78324 0.83324 0.0
C1951 C 0.44249 0.78672 0.81567 0.0
C1952 C 0.4547 0.7926 0.80343 0.0
C1953 C 0.47314 0.79532 0.80868 0.0
C1954 C 0.42279 0.78533 0.81024 0.0
C1955 C 0.41697 0.7997 0.80334 0.0
C1956 C 0.40972 0.77036 0.81201 0.0
C1957 C 0.41463 0.75434 0.81848 0.0
C1958 C 0.42675 0.74583 0.80958 0.0
C1959 C 0.43126 0.73071 0.81574 0.0
C1960 C 0.42362 0.72387 0.83069 0.0
C1961 C 0.41142 0.73213 0.83949 0.0
C1962 C 0.4069 0.74728 0.83341 0.0
C1963 C 0.34125 0.78744 0.77238 0.0
C1964 C 0.32872 0.78127 0.78421 0.0
C1965 C 0.3596 0.78844 0.77734 0.0
C1966 C 0.36603 0.78369 0.79448 0.0
C1967 C 0.35348 0.77769 0.80634 0.0
C1968 C 0.33515 0.77644 0.80128 0.0
C1969 C 0.38568 0.78471 0.80001 0.0
C1970 C 0.39147 0.7703 0.80694 0.0
C1971 C 0.39878 0.79967 0.79841 0.0
C1972 C 0.39397 0.81596 0.79271 0.0
C1973 C 0.38294 0.82483 0.80292 0.0
C1974 C 0.37899 0.84056 0.79791 0.0
C1975 C 0.38593 0.84752 0.78267 0.0
C1976 C 0.39685 0.83876 0.77241 0.0
C1977 C 0.40096 0.82308 0.77745 0.0
H1978 H 0.3829 0.85975 0.77887 0.0
H1979 H 0.42711 0.71215 0.83542 0.0
H1980 H 0.5157 0.20856 0.12414 0.0
H1981 H 0.51695 0.18264 0.10239 0.0
H1982 H 0.50069 0.14916 0.1435 0.0
H1983 H 0.50013 0.17499 0.16542 0.0
H1984 H 0.52649 0.13856 0.12945 0.0
H1985 H 0.47269 0.1532 0.10221 0.0
H1986 H 0.45413 0.17246 0.08896 0.0
H1987 H 0.48758 0.17956 0.04536 0.0
H1988 H 0.50649 0.16052 0.0585 0.0
H1989 H 0.50479 0.05634 0.07074 0.0
H1990 H 0.50335 0.08318 0.09076 0.0
H1991 H 0.52825 0.11442 0.05172 0.0
H1992 H 0.5305 0.08762 0.03198 0.0
H1993 H 0.49877 0.1265 0.06385 0.0
H1994 H 0.55295 0.11285 0.09198 0.0
H1995 H 0.57249 0.09501 0.10636 0.0
H1996 H 0.53761 0.08597 0.14843 0.0
H1997 H 0.51791 0.10384 0.13433 0.0
C1998 C 0.51215 0.19566 0.12844 0.0
C1999 C 0.50779 0.1939 0.14655 0.0
C2000 C 0.51282 0.18078 0.11594 0.0
C2001 C 0.50878 0.16375 0.12111 0.0
C2002 C 0.50398 0.16204 0.13906 0.0
C2003 C 0.50357 0.17687 0.15161 0.0
C2004 C 0.5103 0.14776 0.10832 0.0
C2005 C 0.52014 0.13585 0.1152 0.0
C2006 C 0.50254 0.14428 0.08948 0.0
C2007 C 0.49111 0.15559 0.08145 0.0
C2008 C 0.47616 0.15897 0.08987 0.0
C2009 C 0.46556 0.16983 0.08237 0.0
C2010 C 0.4697 0.17728 0.06636 0.0
C2011 C 0.48441 0.17381 0.05778 0.0
C2012 C 0.49506 0.16297 0.06524 0.0
C2013 C 0.51018 0.06888 0.06644 0.0
C2014 C 0.51783 0.06966 0.04965 0.0
C2015 C 0.5093 0.08427 0.07794 0.0
C2016 C 0.5158 0.10091 0.07288 0.0
C2017 C 0.52312 0.10178 0.05597 0.0
C2018 C 0.52428 0.08637 0.04459 0.0
C2019 C 0.51472 0.1173 0.08514 0.0
C2020 C 0.50502 0.12926 0.07813 0.0
C2021 C 0.52249 0.12081 0.10392 0.0
C2022 C 0.53388 0.1095 0.11199 0.0
C2023 C 0.54937 0.10691 0.10419 0.0
C2024 C 0.56053 0.0969 0.11236 0.0
C2025 C 0.55627 0.08934 0.12828 0.0
C2026 C 0.54088 0.09182 0.13609 0.0
C2027 C 0.52974 0.10194 0.12806 0.0
H2028 H 0.56491 0.08155 0.13455 0.0
H2029 H 0.46149 0.1857 0.06058 0.0
H2030 H 0.07778 0.29255 0.30684 0.0
H2031 H 0.10537 0.28896 0.29382 0.0
H2032 H 0.13142 0.2896 0.34909 0.0
H2033 H 0.10415 0.29384 0.36211 0.0
H2034 H 0.15361 0.30774 0.33147 0.0
H2035 H 0.11556 0.2503 0.31429 0.0
H2036 H 0.08815 0.22997 0.29937 0.0
H2037 H 0.0979 0.24657 0.24641 0.0
H2038 H 0.12527 0.26715 0.26106 0.0
H2039 H 0.23176 0.27841 0.31063 0.0
H2040 H 0.203 0.28125 0.32081 0.0
H2041 H 0.17978 0.27527 0.2636 0.0
H2042 H 0.20844 0.27107 0.25341 0.0
H2043 H 0.15549 0.26086 0.28035 0.0
H2044 H 0.19285 0.31794 0.29639 0.0
H2045 H 0.21892 0.34029 0.31065 0.0
H2046 H 0.20979 0.32612 0.36473 0.0
H2047 H 0.18363 0.30359 0.35073 0.0
C2048 C 0.08938 0.29192 0.31624 0.0
C2049 C 0.08857 0.29347 0.3356 0.0
C2050 C 0.10523 0.28972 0.30873 0.0
C2051 C 0.1207 0.28864 0.32032 0.0
C2052 C 0.11987 0.29033 0.33966 0.0
C2053 C 0.10414 0.29274 0.34716 0.0
C2054 C 0.13785 0.28612 0.31259 0.0
C2055 C 0.15396 0.29728 0.32046 0.0
C2056 C 0.13859 0.27298 0.29767 0.0
C2057 C 0.12237 0.26035 0.2888 0.0
C2058 C 0.11181 0.24965 0.29947 0.0
C2059 C 0.09629 0.23809 0.29107 0.0
C2060 C 0.09127 0.23701 0.27196 0.0
C2061 C 0.1018 0.24743 0.26121 0.0
C2062 C 0.11733 0.25903 0.26955 0.0
C2063 C 0.22055 0.27771 0.30017 0.0
C2064 C 0.22262 0.27476 0.28115 0.0
C2065 C 0.20399 0.27953 0.30603 0.0
C2066 C 0.18897 0.27919 0.29312 0.0
C2067 C 0.19094 0.2758 0.27405 0.0
C2068 C 0.20745 0.27345 0.26817 0.0
C2069 C 0.17139 0.28229 0.29954 0.0
C2070 C 0.15518 0.27131 0.29137 0.0
C2071 C 0.17048 0.29574 0.31409 0.0
C2072 C 0.18638 0.30902 0.32249 0.0
C2073 C 0.19649 0.31951 0.3113 0.0
C2074 C 0.21128 0.33223 0.31936 0.0
C2075 C 0.21605 0.33462 0.33861 0.0
C2076 C 0.20607 0.32425 0.34983 0.0
C2077 C 0.19124 0.31153 0.34185 0.0
H2078 H 0.22739 0.34456 0.3449 0.0
H2079 H 0.07923 0.22807 0.26549 0.0
H2080 H 0.91931 0.02856 0.18888 0.0
H2081 H 0.93376 0.0316 0.16065 0.0
H2082 H 0.97289 0.00273 0.18081 0.0
H2083 H 0.95917 0.00092 0.2097 0.0
H2084 H 0.98901 0.02837 0.16686 0.0
H2085 H 0.93666 0.98436 0.14363 0.0
H2086 H 0.90434 0.97213 0.13938 0.0
H2087 H 0.89463 0.0162 0.11244 0.0
H2088 H 0.92683 0.02847 0.1161 0.0
H2089 H 0.02149 0.01181 0.08023 0.0
H2090 H 0.00844 0.01062 0.10916 0.0
H2091 H 0.97187 0.04279 0.09083 0.0
H2092 H 0.98466 0.04359 0.06121 0.0
H2093 H 0.95486 0.01546 0.10397 0.0
H2094 H 0.00898 0.05834 0.12685 0.0
H2095 H 0.04138 0.06993 0.13285 0.0
H2096 H 0.04836 0.02601 0.16142 0.0
H2097 H 0.016 0.0142 0.15568 0.0
C2098 C 0.93092 0.02278 0.18716 0.0
C2099 C 0.93816 0.01449 0.20131 0.0
C2100 C 0.93912 0.02439 0.17098 0.0
C2101 C 0.95423 0.01706 0.16836 0.0
C2102 C 0.96127 0.0085 0.18247 0.0
C2103 C 0.95341 0.00741 0.19891 0.0
C2104 C 0.9631 0.01892 0.15124 0.0
C2105 C 0.98157 0.02528 0.15308 0.0
C2106 C 0.95342 0.0152 0.13326 0.0
C2107 C 0.93413 0.00736 0.13021 0.0
C2108 C 0.92761 0.99137 0.13668 0.0
C2109 C 0.90931 0.98439 0.1343 0.0
C2110 C 0.89743 0.9933 0.12548 0.0
C2111 C 0.90383 0.00915 0.11895 0.0
C2112 C 0.92211 0.01609 0.12111 0.0
C2113 C 0.01084 0.0189 0.08238 0.0
C2114 C 0.00416 0.02793 0.06844 0.0
C2115 C 0.00346 0.01827 0.09906 0.0
C2116 C 0.98941 0.0269 0.10237 0.0
C2117 C 0.9828 0.03613 0.08859 0.0
C2118 C 0.99008 0.03659 0.07171 0.0
C2119 C 0.98074 0.02508 0.11959 0.0
C2120 C 0.9623 0.01857 0.11774 0.0
C2121 C 0.99056 0.02835 0.13753 0.0
C2122 C 0.01007 0.03531 0.14066 0.0
C2123 C 0.01744 0.05108 0.13426 0.0
C2124 C 0.0358 0.0577 0.13765 0.0
C2125 C 0.04694 0.04865 0.14737 0.0
C2126 C 0.03973 0.03299 0.15384 0.0
C2127 C 0.02138 0.02636 0.15058 0.0
H2128 H 0.06114 0.0538 0.14996 0.0
H2129 H 0.88325 0.98797 0.12377 0.0
H2130 H 0.29373 0.67562 0.49991 0.0
H2131 H 0.2887 0.69167 0.47344 0.0
H2132 H 0.24664 0.64856 0.44794 0.0
H2133 H 0.25237 0.6322 0.4737 0.0
H2134 H 0.26718 0.65881 0.42382 0.0
H2135 H 0.2354 0.68713 0.46699 0.0
H2136 H 0.2304 0.70175 0.49729 0.0
H2137 H 0.27506 0.74328 0.49521 0.0
H2138 H 0.28028 0.72892 0.46485 0.0
H2139 H 0.22092 0.70648 0.36504 0.0
H2140 H 0.23257 0.68833 0.38663 0.0
H2141 H 0.27944 0.72907 0.40313 0.0
H2142 H 0.26792 0.74711 0.38096 0.0
H2143 H 0.25802 0.7203 0.43149 0.0
H2144 H 0.28944 0.68731 0.38746 0.0
H2145 H 0.29334 0.66861 0.35914 0.0
H2146 H 0.2442 0.63351 0.36322 0.0
H2147 H 0.24041 0.6517 0.39197 0.0
C2148 C 0.28378 0.66954 0.48835 0.0
C2149 C 0.27381 0.65265 0.4883 0.0
C2150 C 0.28066 0.67875 0.47353 0.0
C2151 C 0.26716 0.6713 0.459 0.0
C2152 C 0.25719 0.6544 0.45903 0.0
C2153 C 0.26063 0.64503 0.47354 0.0
C2154 C 0.26413 0.68072 0.44316 0.0
C2155 C 0.26495 0.6722 0.42545 0.0
C2156 C 0.2614 0.69816 0.44549 0.0
C2157 C 0.2583 0.70691 0.46371 0.0
C2158 C 0.24419 0.69935 0.47304 0.0
C2159 C 0.24129 0.7076 0.49019 0.0
C2160 C 0.25243 0.72342 0.49818 0.0
C2161 C 0.26643 0.73104 0.48899 0.0
C2162 C 0.26933 0.72289 0.47177 0.0
C2163 C 0.23382 0.71137 0.37312 0.0
C2164 C 0.24344 0.72815 0.37187 0.0
C2165 C 0.24058 0.70095 0.38515 0.0
C2166 C 0.25688 0.70739 0.39625 0.0
C2167 C 0.26691 0.72391 0.39443 0.0
C2168 C 0.26028 0.73422 0.38207 0.0
C2169 C 0.26133 0.69844 0.41212 0.0
C2170 C 0.26049 0.70701 0.42992 0.0
C2171 C 0.26336 0.68079 0.40983 0.0
C2172 C 0.2645 0.67102 0.39158 0.0
C2173 C 0.27936 0.67575 0.38213 0.0
C2174 C 0.28166 0.66511 0.36617 0.0
C2175 C 0.26896 0.64994 0.35931 0.0
C2176 C 0.25399 0.6453 0.36849 0.0
C2177 C 0.25182 0.6557 0.38468 0.0
H2178 H 0.27074 0.64178 0.34689 0.0
H2179 H 0.25019 0.72977 0.51148 0.0
H2180 H 0.63858 0.99816 0.68486 0.0
H2181 H 0.61527 0.00031 0.66059 0.0
H2182 H 0.6377 0.05535 0.66127 0.0
H2183 H 0.66107 0.0533 0.68603 0.0
H2184 H 0.59704 0.0439 0.66153 0.0
H2185 H 0.64677 0.03384 0.62866 0.0
H2186 H 0.67208 0.01892 0.62504 0.0
H2187 H 0.63603 0.969 0.61303 0.0
H2188 H 0.61054 0.9836 0.617 0.0
H2189 H 0.5506 0.04698 0.57407 0.0
H2190 H 0.57015 0.04962 0.60284 0.0
H2191 H 0.5637 0.99299 0.59782 0.0
H2192 H 0.54526 0.99052 0.56783 0.0
H2193 H 0.59701 0.00837 0.60058 0.0
H2194 H 0.54682 0.01811 0.63233 0.0
H2195 H 0.52127 0.03272 0.6356 0.0
H2196 H 0.55687 0.08277 0.64935 0.0
H2197 H 0.58265 0.06851 0.64576 0.0
C2198 C 0.63881 0.01054 0.67938 0.0
C2199 C 0.65167 0.02543 0.68667 0.0
C2200 C 0.62538 0.01187 0.66596 0.0
C2201 C 0.62489 0.02803 0.65957 0.0
C2202 C 0.638 0.04288 0.66638 0.0
C2203 C 0.65152 0.04156 0.67995 0.0
C2204 C 0.61146 0.0285 0.64439 0.0
C2205 C 0.59701 0.03644 0.64804 0.0
C2206 C 0.61162 0.01845 0.62717 0.0
C2207 C 0.62676 0.00981 0.62316 0.0
C2208 C 0.64425 0.01968 0.62521 0.0
C2209 C 0.65863 0.01128 0.62316 0.0
C2210 C 0.65567 0.99302 0.61882 0.0
C2211 C 0.6383 0.98314 0.61638 0.0
C2212 C 0.62388 0.99148 0.61849 0.0
C2213 C 0.55312 0.03513 0.57941 0.0
C2214 C 0.54695 0.01858 0.56908 0.0
C2215 C 0.56406 0.03663 0.59585 0.0
C2216 C 0.56806 0.02148 0.60243 0.0
C2217 C 0.56062 0.00476 0.59277 0.0
C2218 C 0.55025 0.00333 0.57584 0.0
C2219 C 0.58213 0.02333 0.6177 0.0
C2220 C 0.59686 0.01591 0.614 0.0
C2221 C 0.58209 0.03387 0.63477 0.0
C2222 C 0.56672 0.04222 0.63878 0.0
C2223 C 0.54923 0.03222 0.63615 0.0
C2224 C 0.53469 0.04045 0.63797 0.0
C2225 C 0.53744 0.05866 0.64268 0.0
C2226 C 0.55476 0.06866 0.64574 0.0
C2227 C 0.56936 0.0605 0.64385 0.0
H2228 H 0.52616 0.06503 0.64397 0.0
H2229 H 0.66683 0.98652 0.61735 0.0
H2230 H 0.27491 0.33218 0.98108 0.0
H2231 H 0.2739 0.31509 0.9504 0.0
H2232 H 0.28628 0.36328 0.92627 0.0
H2233 H 0.28679 0.38021 0.95644 0.0
H2234 H 0.25953 0.34192 0.90581 0.0
H2235 H 0.31731 0.3365 0.93519 0.0
H2236 H 0.33756 0.32803 0.9594 0.0
H2237 H 0.30975 0.27435 0.9471 0.0
H2238 H 0.28919 0.28256 0.92297 0.0
H2239 H 0.28368 0.31844 0.81794 0.0
H2240 H 0.2837 0.33024 0.85038 0.0
H2241 H 0.27539 0.27762 0.86537 0.0
H2242 H 0.27654 0.26587 0.83289 0.0
H2243 H 0.2967 0.29775 0.89131 0.0
H2244 H 0.24 0.30306 0.86033 0.0
H2245 H 0.21941 0.31186 0.8367 0.0
H2246 H 0.24488 0.36598 0.85222 0.0
H2247 H 0.26566 0.35749 0.87591 0.0
C2248 C 0.27748 0.33906 0.96921 0.0
C2249 C 0.28076 0.35754 0.97116 0.0
C2250 C 0.27696 0.3293 0.9517 0.0
C2251 C 0.28001 0.33789 0.93597 0.0
C2252 C 0.28369 0.35632 0.9381 0.0
C2253 C 0.28399 0.366 0.95541 0.0
C2254 C 0.27895 0.32804 0.91706 0.0
C2255 C 0.26776 0.33234 0.90262 0.0
C2256 C 0.2892 0.31509 0.91296 0.0
C2257 C 0.3016 0.31018 0.92742 0.0
C2258 C 0.31543 0.32292 0.93775 0.0
C2259 C 0.32698 0.31816 0.95144 0.0
C2260 C 0.32491 0.30067 0.95483 0.0
C2261 C 0.31132 0.2879 0.94449 0.0
C2262 C 0.29972 0.29259 0.9308 0.0
C2263 C 0.28193 0.30941 0.82819 0.0
C2264 C 0.27991 0.29124 0.82294 0.0
C2265 C 0.28177 0.31614 0.84673 0.0
C2266 C 0.27891 0.30482 0.86034 0.0
C2267 C 0.27744 0.28665 0.85516 0.0
C2268 C 0.2781 0.27993 0.83663 0.0
C2269 C 0.27767 0.31205 0.87991 0.0
C2270 C 0.28832 0.30718 0.89448 0.0
C2271 C 0.26689 0.32452 0.88419 0.0
C2272 C 0.25445 0.32961 0.86983 0.0
C2273 C 0.24127 0.31682 0.85863 0.0
C2274 C 0.22955 0.32176 0.84524 0.0
C2275 C 0.23086 0.33946 0.84292 0.0
C2276 C 0.24387 0.35227 0.85403 0.0
C2277 C 0.25559 0.34741 0.86747 0.0
H2278 H 0.22177 0.34326 0.83254 0.0
H2279 H 0.33387 0.29701 0.96543 0.0
H2280 H 0.95507 0.03994 0.31413 0.0
H2281 H 0.96661 0.04324 0.3474 0.0
H2282 H 0.96221 0.98704 0.34391 0.0
H2283 H 0.95125 0.98381 0.3109 0.0
H2284 H 0.94864 0.00146 0.37438 0.0
H2285 H 0.00073 0.01077 0.3429 0.0
H2286 H 0.01956 0.02552 0.32151 0.0
H2287 H 0.02627 0.07458 0.35697 0.0
H2288 H 0.00709 0.06016 0.3784 0.0
H2289 H -0.00046 0.98893 0.45709 0.0
H2290 H 0.98789 0.98839 0.42447 0.0
H2291 H 0.00135 0.04498 0.43062 0.0
H2292 H 0.01344 0.04561 0.46274 0.0
H2293 H 0.01014 0.03256 0.3986 0.0
H2294 H 0.95621 0.02296 0.42848 0.0
H2295 H 0.93102 0.00992 0.44393 0.0
H2296 H 0.92625 0.96071 0.40907 0.0
H2297 H 0.95149 0.97369 0.39325 0.0
C2298 C 0.95658 0.02837 0.3206 0.0
C2299 C 0.95256 0.01165 0.31007 0.0
C2300 C 0.96319 0.03025 0.33948 0.0
C2301 C 0.96543 0.01537 0.34799 0.0
C2302 C 0.96072 0.99867 0.33755 0.0
C2303 C 0.95455 0.99685 0.31873 0.0
C2304 C 0.97278 0.01683 0.36776 0.0
C2305 C 0.96218 0.00807 0.37967 0.0
C2306 C 0.99027 0.02581 0.37461 0.0
C2307 C 0.00232 0.03443 0.36216 0.0
C2308 C 0.00612 0.02473 0.34609 0.0
C2309 C 0.01685 0.03303 0.33395 0.0
C2310 C 0.02408 0.05099 0.33786 0.0
C2311 C 0.02063 0.06067 0.35395 0.0
C2312 C 0.00982 0.05244 0.36611 0.0
C2313 C 0.00026 0.00122 0.45147 0.0
C2314 C 0.00758 0.01725 0.46273 0.0
C2315 C 0.99337 0.00093 0.43282 0.0
C2316 C 0.99355 0.01669 0.42505 0.0
C2317 C 0.00105 0.03264 0.43618 0.0
C2318 C 0.00794 0.03293 0.45469 0.0
C2319 C 0.98604 0.01672 0.40538 0.0
C2320 C 0.99662 0.02586 0.39342 0.0
C2321 C 0.96854 0.00784 0.39827 0.0
C2322 C 0.95582 0.99921 0.40991 0.0
C2323 C 0.95008 0.00924 0.42446 0.0
C2324 C 0.93563 0.00187 0.43314 0.0
C2325 C 0.9269 0.98444 0.42743 0.0
C2326 C 0.93297 0.9742 0.41342 0.0
C2327 C 0.94734 0.98156 0.40461 0.0
H2328 H 0.91536 0.97882 0.43371 0.0
H2329 H 0.03238 0.05739 0.32843 0.0
H2330 H 0.25447 0.67018 0.57942 0.0
H2331 H 0.26303 0.69238 0.60668 0.0
H2332 H 0.28031 0.65373 0.6385 0.0
H2333 H 0.27116 0.63128 0.61134 0.0
H2334 H 0.25453 0.66857 0.65201 0.0
H2335 H 0.31055 0.68846 0.62908 0.0
H2336 H 0.32987 0.69855 0.6057 0.0
H2337 H 0.30506 0.74324 0.60234 0.0
H2338 H 0.28542 0.73332 0.62551 0.0
H2339 H 0.29208 0.72912 0.73221 0.0
H2340 H 0.2891 0.70846 0.70393 0.0
H2341 H 0.25587 0.73839 0.67522 0.0
H2342 H 0.25801 0.75877 0.70357 0.0
H2343 H 0.29114 0.72886 0.66039 0.0
H2344 H 0.23115 0.70655 0.67298 0.0
H2345 H 0.2061 0.69489 0.68979 0.0
H2346 H 0.23435 0.65616 0.70828 0.0
H2347 H 0.2594 0.66738 0.69122 0.0
C2348 C 0.26011 0.66653 0.59229 0.0
C2349 C 0.26191 0.6492 0.59373 0.0
C2350 C 0.26534 0.67921 0.60759 0.0
C2351 C 0.27266 0.67459 0.62421 0.0
C2352 C 0.27489 0.65736 0.62552 0.0
C2353 C 0.26934 0.64459 0.6103 0.0
C2354 C 0.27436 0.68675 0.64104 0.0
C2355 C 0.26295 0.68159 0.65412 0.0
C2356 C 0.28449 0.70399 0.64286 0.0
C2357 C 0.29642 0.71005 0.62898 0.0
C2358 C 0.30911 0.70037 0.62327 0.0
C2359 C 0.32015 0.70608 0.61007 0.0
C2360 C 0.31867 0.72151 0.60252 0.0
C2361 C 0.30619 0.73129 0.6082 0.0
C2362 C 0.29513 0.72564 0.62139 0.0
C2363 C 0.28414 0.73131 0.7199 0.0
C2364 C 0.27549 0.7456 0.7199 0.0
C2365 C 0.28239 0.71952 0.70393 0.0
C2366 C 0.27225 0.72218 0.68794 0.0
C2367 C 0.26368 0.7364 0.68772 0.0
C2368 C 0.26512 0.74803 0.70378 0.0
C2369 C 0.27154 0.71041 0.67118 0.0
C2370 C 0.28306 0.71569 0.65825 0.0
C2371 C 0.26114 0.69341 0.66906 0.0
C2372 C 0.24725 0.688 0.68114 0.0
C2373 C 0.23213 0.69574 0.6809 0.0
C2374 C 0.21782 0.68904 0.69021 0.0
C2375 C 0.21864 0.6748 0.70011 0.0
C2376 C 0.23375 0.66722 0.70066 0.0
C2377 C 0.24797 0.67368 0.6911 0.0
H2378 H 0.20757 0.66968 0.70738 0.0
H2379 H 0.32721 0.7259 0.59229 0.0
H2380 H 0.61709 0.01263 0.77908 0.0
H2381 H 0.60871 0.00902 0.81014 0.0
H2382 H 0.64611 0.05673 0.83286 0.0
H2383 H 0.65529 0.05977 0.80172 0.0
H2384 H 0.64173 0.0304 0.85781 0.0
H2385 H 0.60755 0.0622 0.82058 0.0
H2386 H 0.59146 0.06695 0.79123 0.0
H2387 H 0.55355 0.01917 0.79147 0.0
H2388 H 0.56961 0.01398 0.82071 0.0
H2389 H 0.59227 0.06788 0.92293 0.0
H2390 H 0.61175 0.05701 0.90173 0.0
H2391 H 0.5697 0.01251 0.88018 0.0
H2392 H 0.55011 0.02364 0.90136 0.0
H2393 H 0.57783 0.03428 0.85534 0.0
H2394 H 0.61257 0.00562 0.89696 0.0
H2395 H 0.63049 0.00332 0.92624 0.0
H2396 H 0.668 0.04956 0.91943 0.0
H2397 H 0.65034 0.05211 0.89009 0.0
C2398 C 0.62354 0.02223 0.79078 0.0
C2399 C 0.63626 0.03676 0.78828 0.0
C2400 C 0.61903 0.02002 0.80844 0.0
C2401 C 0.62671 0.03273 0.82357 0.0
C2402 C 0.64018 0.04679 0.82126 0.0
C2403 C 0.64511 0.0487 0.80358 0.0
C2404 C 0.61816 0.03292 0.84063 0.0
C2405 C 0.62779 0.03129 0.85745 0.0
C2406 C 0.60004 0.03416 0.83988 0.0
C2407 C 0.58985 0.03764 0.82276 0.0
C2408 C 0.59581 0.05268 0.81435 0.0
C2409 C 0.58671 0.05545 0.79772 0.0
C2410 C 0.57151 0.04335 0.78947 0.0
C2411 C 0.56533 0.02852 0.79788 0.0
C2412 C 0.57441 0.02567 0.81449 0.0
C2413 C 0.58742 0.05562 0.91383 0.0
C2414 C 0.56973 0.04683 0.91302 0.0
C2415 C 0.59861 0.04921 0.90208 0.0
C2416 C 0.59213 0.03396 0.88943 0.0
C2417 C 0.5749 0.02426 0.88995 0.0
C2418 C 0.56369 0.03071 0.90173 0.0
C2419 C 0.60114 0.03124 0.87279 0.0
C2420 C 0.59164 0.03283 0.85585 0.0
C2421 C 0.61946 0.03054 0.87372 0.0
C2422 C 0.63009 0.02907 0.89137 0.0
C2423 C 0.6246 0.01534 0.90176 0.0
C2424 C 0.63474 0.01397 0.91833 0.0
C2425 C 0.65036 0.0263 0.9247 0.0
C2426 C 0.65592 0.04 0.91447 0.0
C2427 C 0.64589 0.04136 0.89782 0.0
H2428 H 0.65816 0.02523 0.93755 0.0
H2429 H 0.5645 0.04549 0.77657 0.0
H2430 H 0.29844 0.334 0.0789 0.0
H2431 H 0.2958 0.32112 0.10796 0.0
H2432 H 0.26401 0.35854 0.12612 0.0
H2433 H 0.26784 0.37218 0.0978 0.0
H2434 H 0.28384 0.35492 0.15431 0.0
H2435 H 0.24588 0.31297 0.10709 0.0
H2436 H 0.23871 0.2935 0.07719 0.0
H2437 H 0.27802 0.26413 0.09442 0.0
H2438 H 0.28554 0.28353 0.12436 0.0
H2439 H 0.25137 0.30761 0.22655 0.0
H2440 H 0.25276 0.3213 0.19791 0.0
H2441 H 0.28953 0.28911 0.17986 0.0
H2442 H 0.28758 0.27493 0.20798 0.0
H2443 H 0.26555 0.29031 0.1519 0.0
H2444 H 0.30611 0.33671 0.19719 0.0
H2445 H 0.31182 0.35611 0.22729 0.0
H2446 H 0.26363 0.37478 0.21435 0.0
H2447 H 0.25826 0.35652 0.18367 0.0
C2448 C 0.29097 0.33945 0.08918 0.0
C2449 C 0.28332 0.35402 0.08617 0.0
C2450 C 0.28933 0.33204 0.10573 0.0
C2451 C 0.27934 0.33857 0.11916 0.0
C2452 C 0.2718 0.35323 0.11609 0.0
C2453 C 0.27395 0.36099 0.09987 0.0
C2454 C 0.27659 0.33015 0.13633 0.0
C2455 C 0.27965 0.3408 0.15368 0.0
C2456 C 0.27116 0.31171 0.13573 0.0
C2457 C 0.26635 0.29977 0.11791 0.0
C2458 C 0.25302 0.30239 0.10448 0.0
C2459 C 0.2489 0.29137 0.08753 0.0
C2460 C 0.25792 0.27761 0.0839 0.0
C2461 C 0.27104 0.27479 0.09725 0.0
C2462 C 0.27521 0.28577 0.11423 0.0
C2463 C 0.2597 0.30347 0.21642 0.0
C2464 C 0.26933 0.29022 0.21945 0.0
C2465 C 0.26062 0.31139 0.20014 0.0
C2466 C 0.27153 0.30648 0.18686 0.0
C2467 C 0.28103 0.29313 0.18987 0.0
C2468 C 0.27989 0.28503 0.20595 0.0
C2469 C 0.27307 0.31505 0.16971 0.0
C2470 C 0.26973 0.30442 0.15241 0.0
C2471 C 0.27797 0.33348 0.17032 0.0
C2472 C 0.28183 0.34532 0.18817 0.0
C2473 C 0.29689 0.34518 0.20067 0.0
C2474 C 0.30011 0.35603 0.21776 0.0
C2475 C 0.28815 0.36674 0.22264 0.0
C2476 C 0.27307 0.3668 0.21035 0.0
C2477 C 0.27004 0.35637 0.19304 0.0
H2478 H 0.29053 0.37494 0.23598 0.0
H2479 H 0.25474 0.26912 0.07075 0.0
H2480 H 0.22512 0.91608 0.98105 0.0
H2481 H 0.1994 0.93057 0.97778 0.0
H2482 H 0.22581 0.97195 0.02117 0.0
H2483 H 0.25133 0.95766 0.02456 0.0
H2484 H 0.19126 0.94756 0.0254 0.0
H2485 H 0.2239 0.98663 0.98725 0.0
H2486 H 0.23963 0.99133 0.95974 0.0
H2487 H 0.19186 0.9668 0.92388 0.0
H2488 H 0.17591 0.96171 0.95126 0.0
H2489 H 0.15714 0.01872 0.05128 0.0
H2490 H 0.17731 0.00557 0.03264 0.0
H2491 H 0.13232 0.97148 -0.00108 0.0
H2492 H 0.11204 0.98457 0.01748 0.0
H2493 H 0.17118 0.98737 0.98276 0.0
H2494 H 0.13964 0.95085 0.02749 0.0
H2495 H 0.12951 0.94673 0.05815 0.0
H2496 H 0.18208 0.96981 0.08506 0.0
H2497 H 0.19242 0.97425 0.0546 0.0
C2498 C 0.22527 0.92824 0.98987 0.0
C2499 C 0.23976 0.93574 0.00331 0.0
C2500 C 0.21091 0.93659 0.9877 0.0
C2501 C 0.21117 0.95228 -0.00097 0.0
C2502 C 0.22581 0.95995 0.01213 0.0
C2503 C 0.24012 0.95171 0.01424 0.0
C2504 C 0.19504 0.95905 0.0002 0.0
C2505 C 0.18659 0.95602 0.01593 0.0
C2506 C 0.18941 0.97 0.98772 0.0
C2507 C 0.19875 0.97365 0.97128 0.0
C2508 C 0.21677 0.98214 0.9735 0.0
C2509 C 0.22573 0.98489 0.95794 0.0
C2510 C 0.21676 0.97932 0.94007 0.0
C2511 C 0.19879 0.97108 0.93774 0.0
C2512 C 0.18978 0.96828 0.95327 0.0
C2513 C 0.15162 0.00874 0.0396 0.0
C2514 C 0.13324 0.00232 0.03592 0.0
C2515 C 0.16304 0.00151 0.02882 0.0
C2516 C 0.15608 0.98774 0.01453 0.0
C2517 C 0.13771 0.98235 0.00977 0.0
C2518 C 0.12625 0.98965 0.02048 0.0
C2519 C 0.16779 0.97626 0.00836 0.0
C2520 C 0.17535 0.97834 0.99176 0.0
C2521 C 0.17327 0.96485 0.02047 0.0
C2522 C 0.1667 0.96309 0.0388 0.0
C2523 C 0.14894 0.9553 0.03997 0.0
C2524 C 0.14319 0.95284 0.05731 0.0
C2525 C 0.15512 0.95806 0.07355 0.0
C2526 C 0.17283 0.96582 0.0725 0.0
C2527 C 0.17863 0.96832 0.05521 0.0
H2528 H 0.15067 0.95604 0.08693 0.0
H2529 H 0.22372 0.98143 0.92803 0.0
H2530 H 0.69287 0.64574 0.97741 0.0
H2531 H 0.66421 0.62663 0.97972 0.0
H2532 H 0.68902 0.60467 0.02491 0.0
H2533 H 0.71767 0.6227 0.02163 0.0
H2534 H 0.66894 0.57975 0.00344 0.0
H2535 H 0.66055 0.63631 0.03103 0.0
H2536 H 0.66087 0.66798 0.03121 0.0
H2537 H 0.6218 0.65672 0.98302 0.0
H2538 H 0.62137 0.62499 0.98246 0.0
H2539 H 0.58915 0.53729 0.03457 0.0
H2540 H 0.61772 0.55639 0.03231 0.0
H2541 H 0.59359 0.57672 0.98553 0.0
H2542 H 0.56493 0.55824 0.98826 0.0
H2543 H 0.61324 0.60259 0.00816 0.0
H2544 H 0.62289 0.54596 0.98033 0.0
H2545 H 0.62425 0.51456 0.97945 0.0
H2546 H 0.66146 0.52634 0.02913 0.0
H2547 H 0.66046 0.55784 0.03017 0.0
C2548 C 0.69207 0.63683 0.98782 0.0
C2549 C 0.70735 0.63561 -0.00066 0.0
C2550 C 0.67573 0.62601 0.98924 0.0
C2551 C 0.67438 0.61438 0.00271 0.0
C2552 C 0.6897 0.61345 0.01436 0.0
C2553 C 0.70607 0.6238 0.01253 0.0
C2554 C 0.6572 0.60283 0.00451 0.0
C2555 C 0.65682 0.58481 0.00473 0.0
C2556 C 0.6413 0.60932 0.00586 0.0
C2557 C 0.641 0.62831 0.00665 0.0
C2558 C 0.65203 0.6406 0.02047 0.0
C2559 C 0.65225 0.65856 0.02063 0.0
C2560 C 0.64139 0.66436 0.00711 0.0
C2561 C 0.6302 0.65221 0.99348 0.0
C2562 C 0.62993 0.63424 0.99326 0.0
C2563 C 0.59005 0.5457 0.02369 0.0
C2564 C 0.57492 0.54623 0.01151 0.0
C2565 C 0.60635 0.55658 0.02238 0.0
C2566 C 0.60785 0.56783 0.00858 0.0
C2567 C 0.59275 0.56819 0.9963 0.0
C2568 C 0.57641 0.55756 -0.00218 0.0
C2569 C 0.62502 0.57952 0.00707 0.0
C2570 C 0.62539 0.59756 0.00694 0.0
C2571 C 0.64097 0.57309 0.00596 0.0
C2572 C 0.64148 0.55418 0.0054 0.0
C2573 C 0.63127 0.54181 0.99111 0.0
C2574 C 0.632 0.52401 0.99057 0.0
C2575 C 0.64283 0.51843 0.0043 0.0
C2576 C 0.65305 0.53067 0.01853 0.0
C2577 C 0.65247 0.5485 0.01905 0.0
H2578 H 0.64334 0.50464 0.00387 0.0
H2579 H 0.64163 0.67827 0.00722 0.0
H2580 H 0.68577 0.50187 0.29142 0.0
H2581 H 0.70055 0.47666 0.28998 0.0
H2582 H 0.65084 0.44241 0.26667 0.0
H2583 H 0.63586 0.46748 0.26876 0.0
H2584 H 0.66767 0.42659 0.29048 0.0
H2585 H 0.68357 0.4565 0.23897 0.0
H2586 H 0.69488 0.48189 0.22313 0.0
H2587 H 0.74591 0.48911 0.25569 0.0
H2588 H 0.73484 0.46386 0.27187 0.0
H2589 H 0.70437 0.35862 0.2427 0.0
H2590 H 0.68864 0.38101 0.25529 0.0
H2591 H 0.7387 0.4124 0.28195 0.0
H2592 H 0.7544 0.38993 0.26926 0.0
H2593 H 0.72191 0.42959 0.25827 0.0
H2594 H 0.70451 0.39679 0.30835 0.0
H2595 H 0.69141 0.37083 0.32245 0.0
H2596 H 0.64136 0.36753 0.28923 0.0
H2597 H 0.65418 0.39343 0.27489 0.0
C2598 C 0.67799 0.48896 0.28607 0.0
C2599 C 0.65968 0.48666 0.28014 0.0
C2600 C 0.68645 0.47456 0.28519 0.0
C2601 C 0.67688 0.45765 0.27794 0.0
C2602 C 0.65851 0.4553 0.27233 0.0
C2603 C 0.64998 0.46965 0.27348 0.0
C2604 C 0.68611 0.44254 0.27579 0.0
C2605 C 0.67945 0.42718 0.2833 0.0
C2606 C 0.70157 0.44332 0.26657 0.0
C2607 C 0.70832 0.45841 0.25676 0.0
C2608 C 0.69717 0.46358 0.24283 0.0
C2609 C 0.70354 0.47793 0.23377 0.0
C2610 C 0.72109 0.48714 0.23844 0.0
C2611 C 0.73232 0.48197 0.25211 0.0
C2612 C 0.72601 0.46763 0.26121 0.0
C2613 C 0.71187 0.37001 0.25185 0.0
C2614 C 0.73052 0.37263 0.25511 0.0
C2615 C 0.70289 0.38278 0.25908 0.0
C2616 C 0.71248 0.39842 0.26958 0.0
C2617 C 0.73103 0.40042 0.27394 0.0
C2618 C 0.73999 0.38758 0.2668 0.0
C2619 C 0.70368 0.41368 0.27322 0.0
C2620 C 0.7103 0.42906 0.26572 0.0
C2621 C 0.68799 0.41271 0.28207 0.0
C2622 C 0.68036 0.39695 0.29044 0.0
C2623 C 0.69076 0.39043 0.30394 0.0
C2624 C 0.68336 0.37576 0.31202 0.0
C2625 C 0.66558 0.36751 0.30671 0.0
C2626 C 0.65513 0.37393 0.29333 0.0
C2627 C 0.66244 0.38862 0.28526 0.0
H2628 H 0.65988 0.35615 0.31298 0.0
H2629 H 0.72599 0.49826 0.23143 0.0
H2630 H 0.83516 0.46552 0.52213 0.0
H2631 H 0.86692 0.46952 0.53269 0.0
H2632 H 0.87568 0.44543 0.4789 0.0
H2633 H 0.84346 0.44046 0.46871 0.0
H2634 H 0.89912 0.43929 0.50838 0.0
H2635 H 0.87634 0.48578 0.48311 0.0
H2636 H 0.85442 0.50502 0.48048 0.0
H2637 H 0.87184 0.52914 0.53672 0.0
H2638 H 0.89343 0.50953 0.53992 0.0
H2639 H 0.97736 0.48946 0.48759 0.0
H2640 H 0.94835 0.47249 0.49111 0.0
H2641 H 0.94926 0.5029 0.5447 0.0
H2642 H 0.97773 0.52109 0.54016 0.0
H2643 H 0.92144 0.50387 0.52062 0.0
H2644 H 0.95052 0.45747 0.53997 0.0
H2645 H 0.97344 0.43965 0.53506 0.0
H2646 H 0.94616 0.41752 0.48106 0.0
H2647 H 0.92322 0.43538 0.48552 0.0
C2648 C 0.84402 0.46134 0.51259 0.0
C2649 C 0.83757 0.45384 0.49436 0.0
C2650 C 0.86186 0.46309 0.51874 0.0
C2651 C 0.87337 0.45794 0.50641 0.0
C2652 C 0.86678 0.44947 0.48846 0.0
C2653 C 0.84871 0.44725 0.48246 0.0
C2654 C 0.89227 0.46493 0.51087 0.0
C2655 C 0.90413 0.45336 0.51129 0.0
C2656 C 0.89843 0.48332 0.51416 0.0
C2657 C 0.88633 0.49599 0.51186 0.0
C2658 C 0.87543 0.4951 0.49497 0.0
C2659 C 0.86303 0.50604 0.49338 0.0
C2660 C 0.86169 0.51825 0.50845 0.0
C2661 C 0.87284 0.51962 0.52509 0.0
C2662 C 0.88514 0.50856 0.52681 0.0
C2663 C 0.97148 0.49208 0.50031 0.0
C2664 C 0.97952 0.50599 0.5139 0.0
C2665 C 0.95515 0.48229 0.50246 0.0
C2666 C 0.94711 0.48613 0.51848 0.0
C2667 C 0.95565 0.4996 0.53253 0.0
C2668 C 0.97181 0.50977 0.53006 0.0
C2669 C 0.92852 0.47827 0.51866 0.0
C2670 C 0.91654 0.48976 0.51869 0.0
C2671 C 0.92242 0.45989 0.51492 0.0
C2672 C 0.93503 0.44763 0.51318 0.0
C2673 C 0.94929 0.44864 0.52714 0.0
C2674 C 0.96235 0.43861 0.52439 0.0
C2675 C 0.96122 0.42742 0.50778 0.0
C2676 C 0.94695 0.42612 0.49396 0.0
C2677 C 0.93387 0.43612 0.49663 0.0
H2678 H 0.97143 0.41978 0.5056 0.0
H2679 H 0.85205 0.52669 0.50722 0.0
H2680 H 0.32786 0.04407 0.28149 0.0
H2681 H 0.32012 0.07124 0.27309 0.0
H2682 H 0.36789 0.10114 0.30615 0.0
H2683 H 0.37581 0.07397 0.31478 0.0
H2684 H 0.337 0.11223 0.31258 0.0
H2685 H 0.36774 0.09902 0.2609 0.0
H2686 H 0.37634 0.08139 0.23427 0.0
H2687 H 0.32291 0.07254 0.20684 0.0
H2688 H 0.31389 0.0899 0.23335 0.0
H2689 H 0.31666 0.18635 0.26769 0.0
H2690 H 0.32853 0.16502 0.28512 0.0
H2691 H 0.28799 0.12323 0.25453 0.0
H2692 H 0.27648 0.14443 0.23679 0.0
H2693 H 0.32224 0.12197 0.24734 0.0
H2694 H 0.29004 0.12934 0.30045 0.0
H2695 H 0.27978 0.14231 0.32891 0.0
H2696 H 0.33394 0.15852 0.35434 0.0
H2697 H 0.34454 0.14587 0.32599 0.0
C2698 C 0.33649 0.05644 0.28737 0.0
C2699 C 0.35243 0.05703 0.29872 0.0
C2700 C 0.3323 0.07184 0.28217 0.0
C2701 C 0.3439 0.08787 0.28846 0.0
C2702 C 0.35916 0.08867 0.30084 0.0
C2703 C 0.36342 0.07326 0.306 0.0
C2704 C 0.33869 0.10392 0.28379 0.0
C2705 C 0.33419 0.11481 0.29836 0.0
C2706 C 0.3348 0.10658 0.26514 0.0
C2707 C 0.3401 0.09574 0.24925 0.0
C2708 C 0.35776 0.09318 0.24929 0.0
C2709 C 0.36273 0.08327 0.23417 0.0
C2710 C 0.35018 0.07584 0.21889 0.0
C2711 C 0.33262 0.07831 0.21868 0.0
C2712 C 0.32759 0.08822 0.23374 0.0
C2713 C 0.3101 0.17264 0.26513 0.0
C2714 C 0.29616 0.16671 0.25066 0.0
C2715 C 0.31668 0.16059 0.2752 0.0
C2716 C 0.30915 0.14268 0.2709 0.0
C2717 C 0.29393 0.13707 0.25788 0.0
C2718 C 0.28753 0.14905 0.24766 0.0
C2719 C 0.31948 0.12969 0.27616 0.0
C2720 C 0.32529 0.11965 0.2616 0.0
C2721 C 0.32434 0.1276 0.29481 0.0
C2722 C 0.31809 0.13708 0.31088 0.0
C2723 C 0.29978 0.1361 0.31191 0.0
C2724 C 0.2939 0.14325 0.3281 0.0
C2725 C 0.30621 0.15136 0.34335 0.0
C2726 C 0.32443 0.15237 0.34246 0.0
C2727 C 0.33037 0.14526 0.32633 0.0
H2728 H 0.30164 0.15681 0.35589 0.0
H2729 H 0.35405 0.06819 0.2072 0.0
H2730 H 0.29789 0.10724 0.52285 0.0
H2731 H 0.32619 0.09789 0.52243 0.0
H2732 H 0.34843 0.14476 0.49983 0.0
H2733 H 0.31966 0.15437 0.5 0.0
H2734 H 0.35698 0.1118 0.48294 0.0
H2735 H 0.36182 0.14534 0.54313 0.0
H2736 H 0.35058 0.15519 0.5723 0.0
H2737 H 0.34208 0.10244 0.58599 0.0
H2738 H 0.35316 0.09226 0.55686 0.0
H2739 H 0.44116 0.08502 0.51731 0.0
H2740 H 0.41829 0.10097 0.50616 0.0
H2741 H 0.3779 0.06357 0.52561 0.0
H2742 H 0.40058 0.04774 0.53671 0.0
H2743 H 0.38379 0.09924 0.54348 0.0
H2744 H 0.37419 0.06502 0.48245 0.0
H2745 H 0.38263 0.05357 0.45236 0.0
H2746 H 0.39859 0.10623 0.43982 0.0
H2747 H 0.39042 0.11801 0.46997 0.0
C2748 C 0.3087 0.11565 0.51773 0.0
C2749 C 0.30657 0.13166 0.51164 0.0
C2750 C 0.32489 0.11025 0.51751 0.0
C2751 C 0.3394 0.12079 0.5114 0.0
C2752 C 0.33732 0.13654 0.50469 0.0
C2753 C 0.32095 0.14199 0.50483 0.0
C2754 C 0.35665 0.11506 0.51265 0.0
C2755 C 0.36327 0.1095 0.49618 0.0
C2756 C 0.36455 0.1119 0.52995 0.0
C2757 C 0.35834 0.11804 0.54779 0.0
C2758 C 0.35754 0.13584 0.55235 0.0
C2759 C 0.3512 0.14148 0.56888 0.0
C2760 C 0.34562 0.12945 0.58099 0.0
C2761 C 0.34645 0.11176 0.57663 0.0
C2762 C 0.35282 0.10606 0.56014 0.0
C2763 C 0.42728 0.07983 0.51838 0.0
C2764 C 0.4225 0.06529 0.52788 0.0
C2765 C 0.41428 0.08895 0.51211 0.0
C2766 C 0.39652 0.0835 0.51529 0.0
C2767 C 0.39158 0.06796 0.52311 0.0
C2768 C 0.40448 0.05891 0.52936 0.0
C2769 C 0.38368 0.09529 0.5137 0.0
C2770 C 0.37797 0.10204 0.53024 0.0
C2771 C 0.37666 0.09945 0.49648 0.0
C2772 C 0.38199 0.0924 0.4786 0.0
C2773 C 0.37975 0.07417 0.4734 0.0
C2774 C 0.3844 0.06762 0.4563 0.0
C2775 C 0.39123 0.07917 0.44422 0.0
C2776 C 0.39336 0.0973 0.44922 0.0
C2777 C 0.38872 0.10392 0.4663 0.0
H2778 H 0.3948 0.07407 0.43097 0.0
H2779 H 0.34066 0.13383 0.59374 0.0
H2780 H 0.67254 0.59182 0.31036 0.0
H2781 H 0.69325 0.62015 0.31104 0.0
H2782 H 0.67231 0.62316 0.25465 0.0
H2783 H 0.6514 0.59537 0.25417 0.0
H2784 H 0.71027 0.62983 0.2617 0.0
H2785 H 0.65878 0.64617 0.2864 0.0
H2786 H 0.63631 0.64584 0.30839 0.0
H2787 H 0.6776 0.66631 0.35358 0.0
H2788 H 0.70038 0.66645 0.33189 0.0
H2789 H 0.74337 0.71609 0.24504 0.0
H2790 H 0.7248 0.6878 0.24809 0.0
H2791 H 0.73684 0.69869 0.30791 0.0
H2792 H 0.75386 0.72782 0.30473 0.0
H2793 H 0.70494 0.68395 0.30152 0.0
H2794 H 0.75676 0.66858 0.27622 0.0
H2795 H 0.77881 0.6686 0.25374 0.0
H2796 H 0.737 0.64589 0.20967 0.0
H2797 H 0.71469 0.64593 0.23184 0.0
C2798 C 0.67256 0.59853 0.29813 0.0
C2799 C 0.66052 0.59151 0.28218 0.0
C2800 C 0.68424 0.61469 0.29855 0.0
C2801 C 0.68423 0.62372 0.28289 0.0
C2802 C 0.6725 0.6164 0.26686 0.0
C2803 C 0.6606 0.60057 0.2666 0.0
C2804 C 0.69638 0.64079 0.2829 0.0
C2805 C 0.70915 0.64171 0.27037 0.0
C2806 C 0.69502 0.65613 0.29448 0.0
C2807 C 0.68132 0.65605 0.30755 0.0
C2808 C 0.6631 0.65039 0.30106 0.0
C2809 C 0.6503 0.65028 0.31346 0.0
C2810 C 0.65552 0.65598 0.33238 0.0
C2811 C 0.67357 0.66185 0.33893 0.0
C2812 C 0.68644 0.66194 0.32658 0.0
C2813 C 0.74206 0.71231 0.25879 0.0
C2814 C 0.75002 0.72391 0.27465 0.0
C2815 C 0.73158 0.69609 0.26057 0.0
C2816 C 0.72976 0.69072 0.27825 0.0
C2817 C 0.73799 0.70239 0.29411 0.0
C2818 C 0.74782 0.71895 0.29232 0.0
C2819 C 0.71904 0.67316 0.28019 0.0
C2820 C 0.70643 0.67209 0.29306 0.0
C2821 C 0.72058 0.65759 0.26895 0.0
C2822 C 0.73406 0.65733 0.25568 0.0
C2823 C 0.75227 0.66364 0.26173 0.0
C2824 C 0.76481 0.66365 0.24904 0.0
C2825 C 0.75931 0.65727 0.23029 0.0
C2826 C 0.74125 0.65082 0.2242 0.0
C2827 C 0.72866 0.6508 0.23682 0.0
H2828 H 0.76904 0.6573 0.22049 0.0
H2829 H 0.64559 0.6559 0.34196 0.0
H2830 H 0.84129 0.46371 0.79834 0.0
H2831 H 0.82599 0.434 0.80038 0.0
H2832 H 0.86603 0.41314 0.7723 0.0
H2833 H 0.88156 0.44291 0.77001 0.0
H2834 H 0.83047 0.40381 0.75503 0.0
H2835 H 0.86382 0.40887 0.81559 0.0
H2836 H 0.87446 0.42351 0.84747 0.0
H2837 H 0.82068 0.41581 0.86104 0.0
H2838 H 0.80963 0.40155 0.8291 0.0
H2839 H 0.80751 0.31431 0.76091 0.0
H2840 H 0.82187 0.34495 0.76325 0.0
H2841 H 0.7776 0.36041 0.78847 0.0
H2842 H 0.76254 0.32962 0.78531 0.0
H2843 H 0.81359 0.37315 0.80872 0.0
H2844 H 0.7793 0.37039 0.7513 0.0
H2845 H 0.7654 0.36024 0.71917 0.0
H2846 H 0.81698 0.36758 0.6999 0.0
H2847 H 0.8313 0.37703 0.73208 0.0
C2848 C 0.84696 0.45283 0.79272 0.0
C2849 C 0.86244 0.45551 0.78372 0.0
C2850 C 0.83836 0.43596 0.79419 0.0
C2851 C 0.84518 0.42171 0.78672 0.0
C2852 C 0.8609 0.42425 0.77831 0.0
C2853 C 0.86956 0.44114 0.77685 0.0
C2854 C 0.83422 0.4043 0.7848 0.0
C2855 C 0.82705 0.39685 0.76669 0.0
C2856 C 0.82908 0.3962 0.80033 0.0
C2857 C 0.83585 0.40427 0.81979 0.0
C2858 C 0.85422 0.41042 0.82529 0.0
C2859 C 0.86033 0.41866 0.84339 0.0
C2860 C 0.84825 0.42064 0.85625 0.0
C2861 C 0.83003 0.4143 0.85105 0.0
C2862 C 0.82383 0.40614 0.83294 0.0
C2863 C 0.80048 0.3242 0.76624 0.0
C2864 C 0.78388 0.31969 0.77268 0.0
C2865 C 0.80879 0.34162 0.7678 0.0
C2866 C 0.80064 0.35458 0.77606 0.0
C2867 C 0.78388 0.3503 0.7821 0.0
C2868 C 0.77535 0.33283 0.78016 0.0
C2869 C 0.81028 0.37256 0.7789 0.0
C2870 C 0.81713 0.38012 0.79711 0.0
C2871 C 0.81481 0.3811 0.76352 0.0
C2872 C 0.80641 0.37426 0.74422 0.0
C2873 C 0.78774 0.36945 0.74031 0.0
C2874 C 0.77977 0.36386 0.72207 0.0
C2875 C 0.79029 0.36327 0.70753 0.0
C2876 C 0.80884 0.368 0.71121 0.0
C2877 C 0.81691 0.37341 0.72947 0.0
H2878 H 0.78399 0.35926 0.69342 0.0
H2879 H 0.85301 0.42705 0.87024 0.0
H2880 H 0.06218 0.85443 0.105 0.0
H2881 H 0.05931 0.88235 0.09418 0.0
H2882 H 0.0289 0.85458 0.04331 0.0
H2883 H 0.03278 0.82648 0.05375 0.0
H2884 H 0.04727 0.8818 0.0342 0.0
H2885 H 0.01101 0.87643 0.08455 0.0
H2886 H 0.00453 0.8726 0.11653 0.0
H2887 H 0.04422 0.91856 0.13795 0.0
H2888 H 0.05109 0.92254 0.10612 0.0
H2889 H 0.01371 0.95722 0.00868 0.0
H2890 H 0.01731 0.9287 0.0178 0.0
H2891 H 0.05097 0.95489 0.06745 0.0
H2892 H 0.04692 0.98336 0.0587 0.0
H2893 H 0.03032 0.92835 0.07677 0.0
H2894 H 0.06656 0.93407 0.02701 0.0
H2895 H 0.07382 0.93803 0.99531 0.0
H2896 H 0.03472 0.8919 0.973 0.0
H2897 H 0.02704 0.88778 0.00454 0.0
C2898 C 0.05489 0.85419 0.09146 0.0
C2899 C 0.04764 0.83799 0.08037 0.0
C2900 C 0.05306 0.87033 0.08529 0.0
C2901 C 0.04333 0.871 0.06803 0.0
C2902 C 0.03638 0.85478 0.05674 0.0
C2903 C 0.03858 0.83858 0.06275 0.0
C2904 C 0.04057 0.88844 0.06178 0.0
C2905 C 0.04326 0.8918 0.04351 0.0
C2906 C 0.0358 0.90207 0.07381 0.0
C2907 C 0.03167 0.89968 0.09295 0.0
C2908 C 0.01843 0.88565 0.09609 0.0
C2909 C 0.01468 0.88347 0.11419 0.0
C2910 C 0.02399 0.89531 0.12926 0.0
C2911 C 0.03704 0.90939 0.12626 0.0
C2912 C 0.04085 0.91162 0.1082 0.0
C2913 C 0.02183 0.95698 0.02159 0.0
C2914 C 0.02988 0.97284 0.03294 0.0
C2915 C 0.02405 0.94052 0.02676 0.0
C2916 C 0.03463 0.93929 0.04334 0.0
C2917 C 0.04269 0.95516 0.05463 0.0
C2918 C 0.04038 0.97158 0.04954 0.0
C2919 C 0.03701 0.92167 0.04923 0.0
C2920 C 0.03425 0.91831 0.06745 0.0
C2921 C 0.04172 0.90808 0.03717 0.0
C2922 C 0.04608 0.91073 0.01814 0.0
C2923 C 0.05937 0.92487 0.01533 0.0
C2924 C 0.06359 0.92712 -0.00261 0.0
C2925 C 0.0547 0.91525 0.98214 0.0
C2926 C 0.04157 0.9011 0.98481 0.0
C2927 C 0.03728 0.8988 0.00272 0.0
H2928 H 0.05801 0.917 0.96827 0.0
H2929 H 0.02106 0.89359 0.14326 0.0
H2930 H 0.93649 0.23788 0.89983 0.0
H2931 H 0.90651 0.23628 0.88322 0.0
H2932 H 0.92496 0.28601 0.86402 0.0
H2933 H 0.95415 0.28784 0.88055 0.0
H2934 H 0.89421 0.28628 0.87376 0.0
H2935 H 0.91988 0.24511 0.83685 0.0
H2936 H 0.93296 0.21894 0.82983 0.0
H2937 H 0.88499 0.18573 0.84068 0.0
H2938 H 0.87174 0.21177 0.84815 0.0
H2939 H 0.83434 0.28698 0.79251 0.0
H2940 H 0.86054 0.28517 0.81365 0.0
H2941 H 0.82994 0.24155 0.83528 0.0
H2942 H 0.8035 0.24357 0.81441 0.0
H2943 H 0.86444 0.23619 0.82658 0.0
H2944 H 0.84037 0.27961 0.86495 0.0
H2945 H 0.82984 0.30709 0.8735 0.0
H2946 H 0.87696 0.33703 0.85673 0.0
H2947 H 0.88804 0.30974 0.84873 0.0
C2948 C 0.93402 0.24852 0.89222 0.0
C2949 C 0.94788 0.2629 0.89146 0.0
C2950 C 0.91691 0.24753 0.88258 0.0
C2951 C 0.91338 0.26095 0.87208 0.0
C2952 C 0.92713 0.27545 0.8719 0.0
C2953 C 0.944 0.27641 0.88137 0.0
C2954 C 0.89562 0.26037 0.86114 0.0
C2955 C 0.88784 0.27529 0.86339 0.0
C2956 C 0.88694 0.24605 0.84768 0.0
C2957 C 0.89494 0.23041 0.84337 0.0
C2958 C 0.9122 0.23225 0.83797 0.0
C2959 C 0.91963 0.21743 0.83387 0.0
C2960 C 0.90984 0.20069 0.8349 0.0
C2961 C 0.89258 0.19872 0.83997 0.0
C2962 C 0.88512 0.2135 0.84416 0.0
C2963 C 0.83318 0.27694 0.80169 0.0
C2964 C 0.81678 0.26538 0.80169 0.0
C2965 C 0.84817 0.276 0.8139 0.0
C2966 C 0.84727 0.2633 0.82623 0.0
C2967 C 0.83101 0.25151 0.826 0.0
C2968 C 0.81589 0.25268 0.81405 0.0
C2969 C 0.86337 0.26221 0.83908 0.0
C2970 C 0.8708 0.24703 0.83712 0.0
C2971 C 0.87206 0.27645 0.85252 0.0
C2972 C 0.86487 0.29266 0.856 0.0
C2973 C 0.84836 0.29204 0.86289 0.0
C2974 C 0.84237 0.30759 0.86777 0.0
C2975 C 0.8526 0.32378 0.86542 0.0
C2976 C 0.86898 0.32448 0.85842 0.0
C2977 C 0.87518 0.309 0.85385 0.0
H2978 H 0.84789 0.33579 0.86914 0.0
H2979 H 0.91561 0.18923 0.83169 0.0
H2980 H 0.52583 0.21295 0.60264 0.0
H2981 H 0.52265 0.18231 0.58945 0.0
H2982 H 0.55575 0.19816 0.54739 0.0
H2983 H 0.55855 0.22928 0.56043 0.0
H2984 H 0.52983 0.16987 0.53293 0.0
H2985 H 0.57257 0.18267 0.5878 0.0
H2986 H 0.58356 0.19346 0.62074 0.0
H2987 H 0.54164 0.15635 0.63774 0.0
H2988 H 0.53027 0.14547 0.6049 0.0
H2989 H 0.54827 0.08257 0.51259 0.0
H2990 H 0.55014 0.11427 0.52058 0.0
H2991 H 0.51912 0.10434 0.56589 0.0
H2992 H 0.51748 0.07284 0.55822 0.0
H2993 H 0.54555 0.13021 0.57778 0.0
H2994 H 0.50198 0.11775 0.52431 0.0
H2995 H 0.48884 0.10753 0.49184 0.0
H2996 H 0.53015 0.14361 0.47255 0.0
H2997 H 0.54367 0.15391 0.50491 0.0
C2998 C 0.53217 0.21001 0.59032 0.0
C2999 C 0.54243 0.2237 0.58262 0.0
C3000 C 0.53049 0.19235 0.58287 0.0
C3001 C 0.53937 0.18761 0.56767 0.0
C3002 C 0.54884 0.2013 0.55921 0.0
C3003 C 0.55036 0.21915 0.56659 0.0
C3004 C 0.53923 0.16843 0.56138 0.0
C3005 C 0.5336 0.16128 0.54269 0.0
C3006 C 0.54363 0.15687 0.57408 0.0
C3007 C 0.5505 0.16334 0.59387 0.0
C3008 C 0.56563 0.17688 0.59856 0.0
C3009 C 0.57194 0.183 0.61722 0.0
C3010 C 0.56328 0.17561 0.63133 0.0
C3011 C 0.54833 0.16206 0.6268 0.0
C3012 C 0.54196 0.1559 0.60817 0.0
C3013 C 0.54193 0.08709 0.52433 0.0
C3014 C 0.53289 0.0749 0.53481 0.0
C3015 C 0.54284 0.10533 0.5288 0.0
C3016 C 0.53468 0.11199 0.54385 0.0
C3017 C 0.52563 0.0998 0.55426 0.0
C3018 C 0.5247 0.08163 0.54981 0.0
C3019 C 0.53602 0.13152 0.54931 0.0
C3020 C 0.5419 0.13876 0.56792 0.0
C3021 C 0.5317 0.14307 0.53655 0.0
C3022 C 0.52399 0.13643 0.51704 0.0
C3023 C 0.50841 0.12334 0.51314 0.0
C3024 C 0.50085 0.11758 0.49475 0.0
C3025 C 0.50869 0.12487 0.48014 0.0
C3026 C 0.52412 0.13794 0.48388 0.0
C3027 C 0.53173 0.14375 0.50224 0.0
H3028 H 0.50278 0.12044 0.46592 0.0
H3029 H 0.56818 0.18037 0.64576 0.0
H3030 H 0.533 0.75396 0.37728 0.0
H3031 H 0.55851 0.75596 0.35957 0.0
H3032 H 0.59429 0.77025 0.41054 0.0
H3033 H 0.56867 0.76847 0.42845 0.0
H3034 H 0.60562 0.79005 0.38379 0.0
H3035 H 0.58671 0.72879 0.38776 0.0
H3036 H 0.56486 0.70096 0.38493 0.0
H3037 H 0.55403 0.70203 0.32619 0.0
H3038 H 0.57562 0.73004 0.32871 0.0
H3039 H 0.68239 0.76977 0.34317 0.0
H3040 H 0.657 0.76345 0.36105 0.0
H3041 H 0.6213 0.76884 0.31366 0.0
H3042 H 0.64684 0.77671 0.29636 0.0
H3043 H 0.61078 0.73867 0.33945 0.0
H3044 H 0.62871 0.80077 0.33598 0.0
H3045 H 0.64964 0.82915 0.33912 0.0
H3046 H 0.66149 0.82719 0.39755 0.0
H3047 H 0.64109 0.7984 0.39462 0.0
C3048 C 0.54628 0.75755 0.38478 0.0
C3049 C 0.54877 0.76091 0.40433 0.0
C3050 C 0.56089 0.75864 0.3746 0.0
C3051 C 0.57839 0.76298 0.38368 0.0
C3052 C 0.58094 0.76679 0.4032 0.0
C3053 C 0.56628 0.7657 0.41343 0.0
C3054 C 0.5939 0.76324 0.37275 0.0
C3055 C 0.60688 0.77871 0.37433 0.0
C3056 C 0.59543 0.74858 0.36008 0.0
C3057 C 0.5827 0.73158 0.35845 0.0
C3058 C 0.5796 0.72314 0.37425 0.0
C3059 C 0.56726 0.70733 0.37271 0.0
C3060 C 0.55804 0.69974 0.3554 0.0
C3061 C 0.56118 0.70793 0.33959 0.0
C3062 C 0.57348 0.72376 0.34106 0.0
C3063 C 0.66913 0.76931 0.33647 0.0
C3064 C 0.66665 0.77409 0.31851 0.0
C3065 C 0.65462 0.7657 0.34669 0.0
C3066 C 0.63732 0.76609 0.33882 0.0
C3067 C 0.63457 0.76865 0.32007 0.0
C3068 C 0.64914 0.77292 0.31011 0.0
C3069 C 0.62243 0.76544 0.35053 0.0
C3070 C 0.60958 0.74993 0.34905 0.0
C3071 C 0.62102 0.78008 0.36329 0.0
C3072 C 0.63371 0.79715 0.36497 0.0
C3073 C 0.63611 0.80613 0.34941 0.0
C3074 C 0.64782 0.82236 0.35117 0.0
C3075 C 0.657 0.82991 0.3685 0.0
C3076 C 0.65448 0.82125 0.3841 0.0
C3077 C 0.64288 0.80495 0.38238 0.0
H3078 H 0.66598 0.84253 0.36985 0.0
H3079 H 0.54849 0.68751 0.35423 0.0
H3080 H 0.02581 0.25765 0.41511 0.0
H3081 H 0.02415 0.23147 0.43091 0.0
H3082 H 0.04033 0.2035 0.38306 0.0
H3083 H 0.0409 0.22942 0.36678 0.0
H3084 H 0.017 0.18178 0.39632 0.0
H3085 H 0.06994 0.22231 0.42565 0.0
H3086 H 0.08642 0.2512 0.44126 0.0
H3087 H 0.05376 0.24737 0.48582 0.0
H3088 H 0.03696 0.21856 0.47039 0.0
H3089 H 0.02384 0.11068 0.44882 0.0
H3090 H 0.0336 0.1349 0.43085 0.0
H3091 H 0.02096 0.17166 0.47387 0.0
H3092 H 0.01218 0.14777 0.49196 0.0
H3093 H 0.04671 0.18795 0.46083 0.0
H3094 H 0.99197 0.14928 0.43064 0.0
H3095 H 0.97354 0.12156 0.41428 0.0
H3096 H 0.00779 0.12251 0.37104 0.0
H3097 H 0.02662 0.15007 0.38731 0.0
C3098 C 0.029 0.24592 0.40794 0.0
C3099 C 0.03365 0.24571 0.38974 0.0
C3100 C 0.02818 0.23092 0.41706 0.0
C3101 C 0.03266 0.21548 0.40852 0.0
C3102 C 0.03694 0.21517 0.39013 0.0
C3103 C 0.0373 0.23004 0.38082 0.0
C3104 C 0.03294 0.1998 0.41879 0.0
C3105 C 0.02375 0.1831 0.41033 0.0
C3106 C 0.04156 0.20134 0.43717 0.0
C3107 C 0.05217 0.21831 0.44683 0.0
C3108 C 0.06629 0.22763 0.43878 0.0
C3109 C 0.07566 0.244 0.44758 0.0
C3110 C 0.07113 0.25112 0.46451 0.0
C3111 C 0.05727 0.24184 0.47272 0.0
C3112 C 0.04784 0.22547 0.46398 0.0
C3113 C 0.02388 0.12405 0.45471 0.0
C3114 C 0.01737 0.12734 0.47191 0.0
C3115 C 0.02911 0.1379 0.44425 0.0
C3116 C 0.02752 0.15525 0.45058 0.0
C3117 C 0.02228 0.15855 0.46841 0.0
C3118 C 0.01732 0.14484 0.47888 0.0
C3119 C 0.03019 0.16993 0.43866 0.0
C3120 C 0.04008 0.18651 0.44675 0.0
C3121 C 0.02207 0.16826 0.41998 0.0
C3122 C 0.01087 0.15158 0.41036 0.0
C3123 C 0.99567 0.14348 0.41774 0.0
C3124 C 0.98514 0.12781 0.40847 0.0
C3125 C 0.98953 0.12024 0.39167 0.0
C3126 C 0.00445 0.12834 0.38409 0.0
C3127 C 0.01507 0.14397 0.39335 0.0
H3128 H 0.98135 0.10813 0.3845 0.0
H3129 H 0.07836 0.26382 0.47127 0.0
H3130 H 0.58048 0.27491 0.18411 0.0
H3131 H 0.61172 0.27703 0.19584 0.0
H3132 H 0.59587 0.24315 0.23675 0.0
H3133 H 0.56438 0.24218 0.22581 0.0
H3134 H 0.62289 0.26502 0.25214 0.0
H3135 H 0.61354 0.22977 0.19192 0.0
H3136 H 0.60467 0.22286 0.15806 0.0
H3137 H 0.64228 0.26815 0.14894 0.0
H3138 H 0.65128 0.27541 0.18275 0.0
H3139 H 0.71133 0.24655 0.26972 0.0
H3140 H 0.67927 0.24409 0.26078 0.0
H3141 H 0.69069 0.28323 0.22398 0.0
H3142 H 0.72247 0.28544 0.2324 0.0
H3143 H 0.66586 0.25703 0.20688 0.0
H3144 H 0.67496 0.29247 0.26661 0.0
H3145 H 0.68374 0.30004 0.30042 0.0
H3146 H 0.64692 0.25449 0.3103 0.0
H3147 H 0.63804 0.24655 0.27652 0.0
C3148 C 0.58364 0.26805 0.19574 0.0
C3149 C 0.5699 0.25838 0.20401 0.0
C3150 C 0.60162 0.26906 0.20233 0.0
C3151 C 0.6065 0.25975 0.21686 0.0
C3152 C 0.5927 0.2504 0.22546 0.0
C3153 C 0.57464 0.24986 0.21923 0.0
C3154 C 0.62587 0.25984 0.22305 0.0
C3155 C 0.63215 0.26293 0.24218 0.0
C3156 C 0.63838 0.25756 0.21023 0.0
C3157 C 0.63297 0.2532 0.18989 0.0
C3158 C 0.61985 0.2383 0.1827 0.0
C3159 C 0.61481 0.23431 0.16351 0.0
C3160 C 0.62287 0.24508 0.15136 0.0
C3161 C 0.63603 0.25983 0.15836 0.0
C3162 C 0.64113 0.26387 0.17753 0.0
C3163 C 0.70706 0.25447 0.25955 0.0
C3164 C 0.71971 0.26602 0.25168 0.0
C3165 C 0.68863 0.25322 0.2546 0.0
C3166 C 0.68237 0.26355 0.24172 0.0
C3167 C 0.695 0.27505 0.23388 0.0
C3168 C 0.71332 0.27631 0.2388 0.0
C3169 C 0.66279 0.26223 0.23588 0.0
C3170 C 0.65651 0.25893 0.21681 0.0
C3171 C 0.65034 0.26428 0.24873 0.0
C3172 C 0.65599 0.2688 0.26901 0.0
C3173 C 0.66888 0.28396 0.27597 0.0
C3174 C 0.67384 0.28835 0.29514 0.0
C3175 C 0.66594 0.27772 0.30749 0.0
C3176 C 0.65305 0.26269 0.30071 0.0
C3177 C 0.64805 0.25824 0.28156 0.0
H3178 H 0.66976 0.28116 0.32233 0.0
H3179 H 0.61895 0.24198 0.13652 0.0
H3180 H 0.56744 0.86019 0.89987 0.0
H3181 H 0.56525 0.88649 0.92084 0.0
H3182 H 0.50803 0.87415 0.90818 0.0
H3183 H 0.51026 0.84779 0.8874 0.0
H3184 H 0.52104 0.90887 0.90663 0.0
H3185 H 0.52795 0.86805 0.95023 0.0
H3186 H 0.54258 0.84663 0.96499 0.0
H3187 H 0.59021 0.88597 0.98081 0.0
H3188 H 0.57593 0.90759 0.96592 0.0
H3189 H 0.49785 0.96823 0.97751 0.0
H3190 H 0.50129 0.94161 0.95799 0.0
H3191 H 0.55829 0.95564 0.97237 0.0
H3192 H 0.55479 0.98243 0.99176 0.0
H3193 H 0.54637 0.92044 0.97306 0.0
H3194 H 0.53987 0.96144 0.93044 0.0
H3195 H 0.52613 0.98307 0.91505 0.0
H3196 H 0.47884 0.94387 0.89665 0.0
H3197 H 0.49218 0.92207 0.91222 0.0
C3198 C 0.5544 0.86299 0.90181 0.0
C3199 C 0.539 0.8518 0.89223 0.0
C3200 C 0.55314 0.87805 0.91379 0.0
C3201 C 0.53644 0.88239 0.91631 0.0
C3202 C 0.52107 0.87119 0.90661 0.0
C3203 C 0.52233 0.85604 0.89482 0.0
C3204 C 0.53498 0.89873 0.92872 0.0
C3205 C 0.52636 0.91124 0.92122 0.0
C3206 C 0.54238 0.90227 0.94768 0.0
C3207 C 0.55094 0.88938 0.95679 0.0
C3208 C 0.54159 0.8721 0.95673 0.0
C3209 C 0.54981 0.85993 0.96515 0.0
C3210 C 0.56733 0.86492 0.97378 0.0
C3211 C 0.57665 0.88212 0.97409 0.0
C3212 C 0.5685 0.89434 0.96568 0.0
C3213 C 0.51109 0.96557 0.97657 0.0
C3214 C 0.52605 0.9774 0.98615 0.0
C3215 C 0.51308 0.95038 0.96531 0.0
C3216 C 0.53009 0.94653 0.96347 0.0
C3217 C 0.54503 0.95821 0.97344 0.0
C3218 C 0.54304 0.97355 0.98449 0.0
C3219 C 0.53223 0.93049 0.95102 0.0
C3220 C 0.54102 0.91807 0.95848 0.0
C3221 C 0.52509 0.92707 0.93198 0.0
C3222 C 0.51695 0.94016 0.92269 0.0
C3223 C 0.52647 0.95747 0.92327 0.0
C3224 C 0.51877 0.96975 0.91448 0.0
C3225 C 0.50161 0.96485 0.9049 0.0
C3226 C 0.49212 0.94765 0.90409 0.0
C3227 C 0.49975 0.93532 0.9129 0.0
H3228 H 0.49567 0.97438 0.89811 0.0
H3229 H 0.57368 0.85547 0.98027 0.0
H3230 H 0.96465 0.77541 0.70519 0.0
H3231 H 0.93548 0.7797 0.71409 0.0
H3232 H 0.92203 0.72507 0.72152 0.0
H3233 H 0.9513 0.72087 0.71332 0.0
H3234 H 0.89379 0.73804 0.70101 0.0
H3235 H 0.93336 0.75205 0.75829 0.0
H3236 H 0.96048 0.76772 0.77847 0.0
H3237 H 0.94501 0.81707 0.77229 0.0
H3238 H 0.91791 0.80169 0.75181 0.0
H3239 H 0.81577 0.73794 0.74604 0.0
H3240 H 0.8448 0.73395 0.73712 0.0
H3241 H 0.86428 0.79 0.74842 0.0
H3242 H 0.83571 0.79365 0.75845 0.0
H3243 H 0.88995 0.77674 0.75861 0.0
H3244 H 0.85047 0.76359 0.70142 0.0
H3245 H 0.82367 0.74849 0.68036 0.0
H3246 H 0.83896 0.69879 0.68485 0.0
H3247 H 0.86575 0.71357 0.70611 0.0
C3248 C 0.95546 0.7643 0.70866 0.0
C3249 C 0.96042 0.7478 0.7086 0.0
C3250 C 0.93877 0.76678 0.7138 0.0
C3251 C 0.92644 0.75271 0.71854 0.0
C3252 C 0.93121 0.73614 0.71795 0.0
C3253 C 0.94802 0.73378 0.71332 0.0
C3254 C 0.9088 0.75528 0.72454 0.0
C3255 C 0.89294 0.74639 0.71368 0.0
C3256 C 0.90755 0.76646 0.74085 0.0
C3257 C 0.92372 0.77573 0.75333 0.0
C3258 C 0.93582 0.76626 0.76109 0.0
C3259 C 0.95117 0.77508 0.77261 0.0
C3260 C 0.9545 0.79338 0.77661 0.0
C3261 C 0.94243 0.80289 0.76915 0.0
C3262 C 0.92707 0.79413 0.75759 0.0
C3263 C 0.82628 0.74941 0.74667 0.0
C3264 C 0.8233 0.76618 0.75306 0.0
C3265 C 0.84294 0.74715 0.74136 0.0
C3266 C 0.85695 0.76169 0.74151 0.0
C3267 C 0.85394 0.77844 0.74806 0.0
C3268 C 0.83746 0.78059 0.75387 0.0
C3269 C 0.87466 0.75953 0.73503 0.0
C3270 C 0.89064 0.76848 0.74582 0.0
C3271 C 0.876 0.74855 0.71848 0.0
C3272 C 0.86004 0.73968 0.70547 0.0
C3273 C 0.84808 0.74943 0.69797 0.0
C3274 C 0.83289 0.74093 0.686 0.0
C3275 C 0.8296 0.72269 0.6813 0.0
C3276 C 0.84152 0.71292 0.68851 0.0
C3277 C 0.85672 0.72135 0.7005 0.0
H3278 H 0.81782 0.71613 0.67205 0.0
H3279 H 0.9664 0.80019 0.78552 0.0
H3280 H 0.07483 0.0422 0.82719 0.0
H3281 H 0.06599 0.03779 0.85777 0.0
H3282 H 0.11601 0.0228 0.87367 0.0
H3283 H 0.12487 0.0268 0.84263 0.0
H3284 H 0.0879 0.00156 0.88579 0.0
H3285 H 0.10996 0.06359 0.89033 0.0
H3286 H 0.11284 0.09284 0.87981 0.0
H3287 H 0.05679 0.09078 0.88129 0.0
H3288 H 0.05356 0.06147 0.89168 0.0
H3289 H 0.06749 0.00872 0.98067 0.0
H3290 H 0.08186 0.01085 0.95224 0.0
H3291 H 0.03783 0.03086 0.9272 0.0
H3292 H 0.02382 0.0295 0.95574 0.0
H3293 H 0.0677 0.05038 0.92193 0.0
H3294 H 0.04509 0.98755 0.915 0.0
H3295 H 0.04177 0.958 0.9248 0.0
H3296 H 0.09835 0.96121 0.9276 0.0
H3297 H 0.10203 0.99088 0.918 0.0
C3298 C 0.08402 0.03799 0.83714 0.0
C3299 C 0.10063 0.035 0.83248 0.0
C3300 C 0.07894 0.03551 0.85468 0.0
C3301 C 0.09045 0.03028 0.86817 0.0
C3302 C 0.10693 0.02691 0.86351 0.0
C3303 C 0.11198 0.02923 0.84579 0.0
C3304 C 0.08508 0.02859 0.88708 0.0
C3305 C 0.08378 0.01231 0.89388 0.0
C3306 C 0.07953 0.04254 0.89758 0.0
C3307 C 0.08151 0.06032 0.89171 0.0
C3308 C 0.09824 0.06937 0.88836 0.0
C3309 C 0.09994 0.08595 0.88243 0.0
C3310 C 0.08501 0.09365 0.87986 0.0
C3311 C 0.06835 0.08481 0.8833 0.0
C3312 C 0.06659 0.06824 0.88926 0.0
C3313 C 0.06081 0.01346 0.96905 0.0
C3314 C 0.04448 0.01894 0.97052 0.0
C3315 C 0.06901 0.01458 0.95275 0.0
C3316 C 0.0609 0.02092 0.93747 0.0
C3317 C 0.0444 0.02598 0.93879 0.0
C3318 C 0.03633 0.02507 0.95511 0.0
C3319 C 0.06981 0.02313 0.92036 0.0
C3320 C 0.07194 0.03962 0.91397 0.0
C3321 C 0.07607 0.00935 0.9103 0.0
C3322 C 0.07385 0.99149 0.91597 0.0
C3323 C 0.05683 0.982 0.91783 0.0
C3324 C 0.05488 0.96522 0.92332 0.0
C3325 C 0.06984 0.95775 0.92687 0.0
C3326 C 0.08678 0.96702 0.92487 0.0
C3327 C 0.0888 0.98381 0.91939 0.0
H3328 H 0.0683 0.94476 0.93113 0.0
H3329 H 0.08634 0.10648 0.87522 0.0
H3330 H 0.78371 0.36583 0.53376 0.0
H3331 H 0.77777 0.35249 0.56176 0.0
H3332 H 0.79688 0.40284 0.59529 0.0
H3333 H 0.80307 0.41635 0.56738 0.0
H3334 H 0.81254 0.37656 0.60558 0.0
H3335 H 0.75358 0.38607 0.59178 0.0
H3336 H 0.72591 0.38556 0.57143 0.0
H3337 H 0.71671 0.32922 0.56141 0.0
H3338 H 0.74444 0.32938 0.58154 0.0
H3339 H 0.80334 0.33736 0.68344 0.0
H3340 H 0.79297 0.35625 0.66195 0.0
H3341 H 0.77698 0.31155 0.61935 0.0
H3342 H 0.78735 0.29254 0.64107 0.0
H3343 H 0.75597 0.339 0.6167 0.0
H3344 H 0.81637 0.32949 0.62341 0.0
H3345 H 0.84593 0.32879 0.6393 0.0
H3346 H 0.85435 0.38421 0.65747 0.0
H3347 H 0.82449 0.3851 0.64226 0.0
C3348 C 0.78682 0.37402 0.54712 0.0
C3349 C 0.79387 0.39207 0.54851 0.0
C3350 C 0.78305 0.36648 0.56297 0.0
C3351 C 0.78632 0.37691 0.5803 0.0
C3352 C 0.7939 0.3948 0.58183 0.0
C3353 C 0.7977 0.40237 0.56599 0.0
C3354 C 0.78436 0.36849 0.59702 0.0
C3355 C 0.80007 0.36881 0.60844 0.0
C3356 C 0.76812 0.35796 0.59998 0.0
C3357 C 0.75116 0.35774 0.58818 0.0
C3358 C 0.74571 0.37356 0.5852 0.0
C3359 C 0.73 0.37334 0.5737 0.0
C3360 C 0.71956 0.35737 0.56513 0.0
C3361 C 0.72479 0.34158 0.56809 0.0
C3362 C 0.74049 0.34173 0.57959 0.0
C3363 C 0.79697 0.33155 0.66971 0.0
C3364 C 0.79625 0.31376 0.66364 0.0
C3365 C 0.79093 0.34223 0.65758 0.0
C3366 C 0.78433 0.33519 0.63922 0.0
C3367 C 0.782 0.31706 0.63359 0.0
C3368 C 0.78815 0.30634 0.64579 0.0
C3369 C 0.78422 0.34711 0.62515 0.0
C3370 C 0.76825 0.34729 0.6142 0.0
C3371 C 0.80034 0.35795 0.62222 0.0
C3372 C 0.81797 0.35726 0.63213 0.0
C3373 C 0.82432 0.34144 0.63118 0.0
C3374 C 0.84117 0.34102 0.63999 0.0
C3375 C 0.85197 0.35642 0.6495 0.0
C3376 C 0.84591 0.37226 0.65024 0.0
C3377 C 0.82899 0.37271 0.6416 0.0
H3378 H 0.86507 0.3561 0.65619 0.0
H3379 H 0.70742 0.35722 0.5562 0.0
H3380 H 0.40334 0.03193 0.34554 0.0
H3381 H 0.41386 0.03446 0.37878 0.0
H3382 H 0.44244 0.99249 0.36729 0.0
H3383 H 0.4322 0.99002 0.33427 0.0
H3384 H 0.42499 0.99075 0.39906 0.0
H3385 H 0.46136 0.03218 0.36558 0.0
H3386 H 0.46636 0.05747 0.34799 0.0
H3387 H 0.45434 0.09089 0.39398 0.0
H3388 H 0.44868 0.06562 0.41165 0.0
H3389 H 0.5071 0.99891 0.45728 0.0
H3390 H 0.48517 0.99717 0.43006 0.0
H3391 H 0.46404 0.03923 0.45781 0.0
H3392 H 0.48612 0.04164 0.48447 0.0
H3393 H 0.47221 0.04337 0.42174 0.0
H3394 H 0.42646 0.99556 0.4482 0.0
H3395 H 0.41969 0.96746 0.46115 0.0
H3396 H 0.45407 0.94559 0.426 0.0
H3397 H 0.46033 0.97331 0.4123 0.0
C3398 C 0.4118 0.02323 0.35024 0.0
C3399 C 0.41747 0.0111 0.33757 0.0
C3400 C 0.41759 0.02459 0.36908 0.0
C3401 C 0.42882 0.01366 0.37514 0.0
C3402 C 0.43368 0.00094 0.36261 0.0
C3403 C 0.42813 0.99975 0.34385 0.0
C3404 C 0.43757 0.01656 0.39402 0.0
C3405 C 0.43512 0.00237 0.40424 0.0
C3406 C 0.45073 0.03174 0.40044 0.0
C3407 C 0.45418 0.04691 0.38978 0.0
C3408 C 0.45949 0.04484 0.37184 0.0
C3409 C 0.46248 0.05919 0.36186 0.0
C3410 C 0.46056 0.07575 0.36981 0.0
C3411 C 0.4557 0.07802 0.38779 0.0
C3412 C 0.45254 0.06368 0.39777 0.0
C3413 C 0.49778 0.00777 0.45746 0.0
C3414 C 0.49813 0.02029 0.47289 0.0
C3415 C 0.48517 0.00658 0.44214 0.0
C3416 C 0.47283 0.01774 0.44243 0.0
C3417 C 0.47336 0.03037 0.45768 0.0
C3418 C 0.48598 0.03169 0.47282 0.0
C3419 C 0.46005 0.01724 0.42632 0.0
C3420 C 0.46169 0.03201 0.41686 0.0
C3421 C 0.4465 0.00242 0.42022 0.0
C3422 C 0.44417 0.98653 0.42962 0.0
C3423 C 0.43267 0.98478 0.44341 0.0
C3424 C 0.42871 0.96886 0.45065 0.0
C3425 C 0.43654 0.95479 0.44451 0.0
C3426 C 0.44813 0.95653 0.43088 0.0
C3427 C 0.45178 0.97229 0.42328 0.0
H3428 H 0.43358 0.94253 0.45026 0.0
H3429 H 0.46294 0.08686 0.36208 0.0
H3430 H 0.79373 0.69131 0.07058 0.0
H3431 H 0.79714 0.70724 0.10223 0.0
H3432 H 0.74063 0.70673 0.09706 0.0
H3433 H 0.73732 0.69084 0.06559 0.0
H3434 H 0.75902 0.73781 0.11387 0.0
H3435 H 0.75811 0.67723 0.11931 0.0
H3436 H 0.76784 0.64885 0.11487 0.0
H3437 H 0.81912 0.6726 0.14453 0.0
H3438 H 0.80982 0.70124 0.14883 0.0
H3439 H 0.74211 0.74822 0.20856 0.0
H3440 H 0.74283 0.7364 0.17627 0.0
H3441 H 0.80016 0.74476 0.18566 0.0
H3442 H 0.79955 0.75739 0.21787 0.0
H3443 H 0.78361 0.71105 0.16672 0.0
H3444 H 0.78272 0.77182 0.16203 0.0
H3445 H 0.77179 0.79964 0.16553 0.0
H3446 H 0.72178 0.7741 0.13426 0.0
H3447 H 0.73231 0.74606 0.13081 0.0
C3448 C 0.78219 0.69506 0.07612 0.0
C3449 C 0.76532 0.69021 0.0657 0.0
C3450 C 0.78408 0.70394 0.09423 0.0
C3451 C 0.7691 0.70801 0.10212 0.0
C3452 C 0.75238 0.70375 0.0913 0.0
C3453 C 0.75049 0.69477 0.07332 0.0
C3454 C 0.77056 0.71624 0.12178 0.0
C3455 C 0.76426 0.73187 0.12543 0.0
C3456 C 0.77768 0.70864 0.13687 0.0
C3457 C 0.78336 0.69146 0.13414 0.0
C3458 C 0.77154 0.67647 0.12469 0.0
C3459 C 0.77696 0.66032 0.12223 0.0
C3460 C 0.79411 0.65894 0.12935 0.0
C3461 C 0.80586 0.67371 0.13897 0.0
C3462 C 0.80053 0.68991 0.14141 0.0
C3463 C 0.75487 0.74783 0.20376 0.0
C3464 C 0.77074 0.75418 0.21577 0.0
C3465 C 0.75527 0.74099 0.18525 0.0
C3466 C 0.77156 0.73991 0.17845 0.0
C3467 C 0.78744 0.74562 0.19055 0.0
C3468 C 0.78705 0.75287 0.20896 0.0
C3469 C 0.77193 0.73256 0.15878 0.0
C3470 C 0.77852 0.71706 0.15514 0.0
C3471 C 0.76482 0.74011 0.14367 0.0
C3472 C 0.75823 0.75679 0.14638 0.0
C3473 C 0.7693 0.77208 0.15614 0.0
C3474 C 0.7632 0.7879 0.15805 0.0
C3475 C 0.74608 0.78863 0.15019 0.0
C3476 C 0.73502 0.77352 0.1404 0.0
C3477 C 0.74104 0.75766 0.13846 0.0
H3478 H 0.74141 0.80091 0.15163 0.0
H3479 H 0.79827 0.64642 0.12746 0.0
H3480 H 0.12649 0.01735 0.70883 0.0
H3481 H 0.11254 0.01666 0.67714 0.0
H3482 H 0.06909 0.03729 0.69865 0.0
H3483 H 0.0826 0.03702 0.73048 0.0
H3484 H 0.05624 0.01381 0.67084 0.0
H3485 H 0.10516 0.06323 0.67953 0.0
H3486 H 0.13656 0.07823 0.68785 0.0
H3487 H 0.15222 0.04429 0.64465 0.0
H3488 H 0.12094 0.02894 0.63621 0.0
H3489 H 0.02486 0.03875 0.58325 0.0
H3490 H 0.03668 0.03878 0.61571 0.0
H3491 H 0.0781 0.01285 0.5975 0.0
H3492 H 0.06652 0.01287 0.56514 0.0
H3493 H 0.0916 0.04019 0.62394 0.0
H3494 H 0.04281 0.99052 0.61589 0.0
H3495 H 0.0118 0.97405 0.60919 0.0
H3496 H 0.99602 0.00839 0.65195 0.0
H3497 H 0.02689 0.02519 0.65876 0.0
C3498 C 0.11392 0.02167 0.70679 0.0
C3499 C 0.10565 0.02729 0.7221 0.0
C3500 C 0.10601 0.02142 0.68864 0.0
C3501 C 0.08994 0.02737 0.68537 0.0
C3502 C 0.08151 0.03271 0.70072 0.0
C3503 C 0.08922 0.03256 0.71892 0.0
C3504 C 0.08188 0.02783 0.66598 0.0
C3505 C 0.0639 0.01989 0.66069 0.0
C3506 C 0.09194 0.03538 0.65252 0.0
C3507 C 0.11071 0.04487 0.65731 0.0
C3508 C 0.11531 0.05893 0.67185 0.0
C3509 C 0.13309 0.06749 0.67659 0.0
C3510 C 0.14638 0.0622 0.66681 0.0
C3511 C 0.14191 0.04837 0.65222 0.0
C3512 C 0.12416 0.03976 0.64743 0.0
C3513 C 0.03648 0.03305 0.58612 0.0
C3514 C 0.04479 0.02593 0.57149 0.0
C3515 C 0.04316 0.03297 0.60473 0.0
C3516 C 0.05826 0.02574 0.60911 0.0
C3517 C 0.06648 0.01855 0.59452 0.0
C3518 C 0.0598 0.01857 0.57597 0.0
C3519 C 0.06595 0.02615 0.62881 0.0
C3520 C 0.08389 0.03428 0.63415 0.0
C3521 C 0.05583 0.01886 0.64233 0.0
C3522 C 0.03712 0.00927 0.63764 0.0
C3523 C 0.03268 0.99472 0.62367 0.0
C3524 C 0.01514 0.98528 0.61991 0.0
C3525 C 0.00193 0.99021 0.63009 0.0
C3526 C 0.00624 0.00461 0.64403 0.0
C3527 C 0.02375 0.0141 0.64785 0.0
H3528 H 0.98838 0.98284 0.62721 0.0
H3529 H 0.16013 0.06882 0.67052 0.0
H3530 H 0.79107 0.41696 0.42403 0.0
H3531 H 0.79279 0.39553 0.39726 0.0
H3532 H 0.77204 0.35311 0.42737 0.0
H3533 H 0.77037 0.37422 0.45396 0.0
H3534 H 0.79965 0.34646 0.40588 0.0
H3535 H 0.74296 0.36807 0.40222 0.0
H3536 H 0.72516 0.39129 0.40087 0.0
H3537 H 0.75023 0.40816 0.35397 0.0
H3538 H 0.76826 0.38514 0.35519 0.0
H3539 H 0.76231 0.27933 0.33103 0.0
H3540 H 0.76587 0.29887 0.36004 0.0
H3541 H 0.77527 0.34349 0.32957 0.0
H3542 H 0.77023 0.32414 0.30072 0.0
H3543 H 0.75451 0.34823 0.35301 0.0
H3544 H 0.81032 0.32622 0.35415 0.0
H3545 H 0.82842 0.3032 0.3546 0.0
H3546 H 0.80734 0.28774 0.40408 0.0
H3547 H 0.78903 0.31058 0.40384 0.0
C3548 C 0.78684 0.40305 0.42475 0.0
C3549 C 0.78035 0.39704 0.44065 0.0
C3550 C 0.78814 0.39095 0.40978 0.0
C3551 C 0.78267 0.37299 0.41075 0.0
C3552 C 0.77658 0.367 0.42675 0.0
C3553 C 0.77538 0.37901 0.44168 0.0
C3554 C 0.78045 0.36043 0.39423 0.0
C3555 C 0.78996 0.34679 0.39413 0.0
C3556 C 0.76763 0.36107 0.37934 0.0
C3557 C 0.75705 0.37508 0.37894 0.0
C3558 C 0.74477 0.37686 0.39176 0.0
C3559 C 0.73462 0.38994 0.39098 0.0
C3560 C 0.7366 0.40123 0.37738 0.0
C3561 C 0.74873 0.39945 0.36452 0.0
C3562 C 0.7589 0.38639 0.36524 0.0
C3563 C 0.76514 0.29319 0.33054 0.0
C3564 C 0.76686 0.30013 0.31374 0.0
C3565 C 0.76725 0.30434 0.3471 0.0
C3566 C 0.7715 0.32247 0.34683 0.0
C3567 C 0.77222 0.32942 0.32997 0.0
C3568 C 0.76934 0.31832 0.3135 0.0
C3569 C 0.77446 0.3346 0.36386 0.0
C3570 C 0.76461 0.34797 0.36441 0.0
C3571 C 0.78727 0.3338 0.37884 0.0
C3572 C 0.79818 0.31998 0.37886 0.0
C3573 C 0.80946 0.31782 0.36504 0.0
C3574 C 0.81978 0.30483 0.36529 0.0
C3575 C 0.819 0.29399 0.37933 0.0
C3576 C 0.80792 0.29613 0.39319 0.0
C3577 C 0.79759 0.30911 0.39302 0.0
H3578 H 0.827 0.28395 0.3795 0.0
H3579 H 0.7287 0.41132 0.37677 0.0
H3580 H 0.39103 0.0406 0.22725 0.0
H3581 H 0.41068 0.03922 0.20265 0.0
H3582 H 0.41932 0.98867 0.21593 0.0
H3583 H 0.39931 0.98983 0.24009 0.0
H3584 H 0.45169 0.01799 0.21494 0.0
H3585 H 0.39743 0.98297 0.17893 0.0
H3586 H 0.36485 0.97957 0.17183 0.0
H3587 H 0.372 0.0293 0.15074 0.0
H3588 H 0.40467 0.03302 0.15788 0.0
H3589 H 0.49264 0.98127 0.14337 0.0
H3590 H 0.47744 0.99127 0.16862 0.0
H3591 H 0.45492 0.02548 0.13449 0.0
H3592 H 0.46767 0.01324 0.1081 0.0
H3593 H 0.43006 0.00862 0.1475 0.0
H3594 H 0.48712 0.0408 0.18032 0.0
H3595 H 0.51902 0.04409 0.19172 0.0
H3596 H 0.50688 0.99981 0.22161 0.0
H3597 H 0.47493 0.99637 0.21053 0.0
C3598 C 0.3967 0.02901 0.22438 0.0
C3599 C 0.39377 0.01525 0.23512 0.0
C3600 C 0.40805 0.02835 0.21069 0.0
C3601 C 0.41656 0.01402 0.20798 0.0
C3602 C 0.41299 0.99991 0.2182 0.0
C3603 C 0.40147 0.00047 0.23169 0.0
C3604 C 0.42899 0.01365 0.19412 0.0
C3605 C 0.44717 0.01596 0.20014 0.0
C3606 C 0.42278 0.01129 0.17509 0.0
C3607 C 0.40343 0.0082 0.16874 0.0
C3608 C 0.39204 0.99307 0.17255 0.0
C3609 C 0.37357 0.99112 0.16863 0.0
C3610 C 0.36636 0.0042 0.1608 0.0
C3611 C 0.37762 0.01915 0.15672 0.0
C3612 C 0.39611 0.02116 0.16063 0.0
C3613 C 0.48434 0.9908 0.14108 0.0
C3614 C 0.48092 0.99582 0.12337 0.0
C3615 C 0.47608 0.99704 0.15587 0.0
C3616 C 0.46511 0.00936 0.15367 0.0
C3617 C 0.46322 0.01588 0.13655 0.0
C3618 C 0.47077 0.00897 0.12144 0.0
C3619 C 0.4534 0.01304 0.16801 0.0
C3620 C 0.43504 0.0112 0.16218 0.0
C3621 C 0.45955 0.01581 0.18731 0.0
C3622 C 0.47868 0.01831 0.19453 0.0
C3623 C 0.49127 0.0318 0.18934 0.0
C3624 C 0.50935 0.0337 0.19577 0.0
C3625 C 0.51497 0.02215 0.20735 0.0
C3626 C 0.50251 0.00878 0.21269 0.0
C3627 C 0.48441 0.00692 0.20644 0.0
H3628 H 0.52898 0.02356 0.21219 0.0
H3629 H 0.35205 0.00276 0.15793 0.0
H3630 H 0.7614 0.71539 0.96168 0.0
H3631 H 0.7629 0.72746 0.93212 0.0
H3632 H 0.7747 0.67914 0.90634 0.0
H3633 H 0.77333 0.66703 0.93579 0.0
H3634 H 0.79699 0.70784 0.89819 0.0
H3635 H 0.73366 0.68808 0.89679 0.0
H3636 H 0.70427 0.68577 0.9083 0.0
H3637 H 0.70863 0.74163 0.91093 0.0
H3638 H 0.73811 0.74428 0.89958 0.0
H3639 H 0.78752 0.72875 0.80538 0.0
H3640 H 0.78544 0.71462 0.83362 0.0
H3641 H 0.76613 0.7585 0.86015 0.0
H3642 H 0.76682 0.77193 0.83169 0.0
H3643 H 0.74714 0.73041 0.86723 0.0
H3644 H 0.81077 0.75083 0.87011 0.0
H3645 H 0.84 0.75355 0.85818 0.0
H3646 H 0.83542 0.69754 0.85319 0.0
H3647 H 0.80608 0.69448 0.86492 0.0
C3648 C 0.76437 0.70737 0.94973 0.0
C3649 C 0.76733 0.6903 0.9511 0.0
C3650 C 0.76509 0.71422 0.93282 0.0
C3651 C 0.76876 0.70412 0.91701 0.0
C3652 C 0.77184 0.68713 0.91838 0.0
C3653 C 0.77106 0.68025 0.93523 0.0
C3654 C 0.76997 0.71145 0.89918 0.0
C3655 C 0.78603 0.7126 0.89128 0.0
C3656 C 0.75577 0.71794 0.89039 0.0
C3657 C 0.73818 0.71639 0.89752 0.0
C3658 C 0.72843 0.69989 0.89999 0.0
C3659 C 0.71173 0.69851 0.90644 0.0
C3660 C 0.70461 0.71355 0.91039 0.0
C3661 C 0.71416 0.72999 0.90788 0.0
C3662 C 0.73086 0.73144 0.90142 0.0
C3663 C 0.78296 0.73543 0.81729 0.0
C3664 C 0.77765 0.75163 0.81635 0.0
C3665 C 0.78187 0.72738 0.83347 0.0
C3666 C 0.7759 0.73562 0.84917 0.0
C3667 C 0.77081 0.75188 0.84828 0.0
C3668 C 0.77147 0.75968 0.83202 0.0
C3669 C 0.77433 0.72717 0.86638 0.0
C3670 C 0.75816 0.72571 0.87413 0.0
C3671 C 0.78848 0.72056 0.87513 0.0
C3672 C 0.80619 0.72242 0.86826 0.0
C3673 C 0.81597 0.73909 0.86638 0.0
C3674 C 0.83255 0.7407 0.85967 0.0
C3675 C 0.83955 0.72573 0.8549 0.0
C3676 C 0.82999 0.70913 0.85688 0.0
C3677 C 0.8134 0.70745 0.86359 0.0
H3678 H 0.85238 0.727 0.8497 0.0
H3679 H 0.69168 0.71245 0.91536 0.0
H3680 H 0.81918 0.1203 0.05967 0.0
H3681 H 0.84701 0.11489 0.04847 0.0
H3682 H 0.81929 0.06422 0.02041 0.0
H3683 H 0.79163 0.06936 0.03188 0.0
H3684 H 0.8458 0.06602 0.0512 0.0
H3685 H 0.83523 0.0897 0.99435 0.0
H3686 H 0.82938 0.11202 0.97442 0.0
H3687 H 0.87878 0.1458 -0.00173 0.0
H3688 H 0.88482 0.1238 0.01858 0.0
H3689 H 0.90582 0.02675 0.00298 0.0
H3690 H 0.88287 0.03831 0.01843 0.0
H3691 H 0.91828 0.08895 0.03214 0.0
H3692 H 0.94103 0.07743 0.01581 0.0
H3693 H 0.8897 0.09122 0.01112 0.0
H3694 H 0.89885 0.06384 0.06773 0.0
H3695 H 0.90069 0.04074 0.08805 0.0
H3696 H 0.84985 0.01155 0.06183 0.0
H3697 H 0.84783 0.03422 0.04126 0.0
C3698 C 0.81925 0.1079 0.05138 0.0
C3699 C 0.80375 0.0948 0.04726 0.0
C3700 C 0.83484 0.10515 0.0445 0.0
C3701 C 0.83484 0.08938 0.03342 0.0
C3702 C 0.81922 0.07657 0.02878 0.0
C3703 C 0.80373 0.07919 0.03586 0.0
C3704 C 0.85166 0.08406 0.03139 0.0
C3705 C 0.85541 0.07128 0.04223 0.0
C3706 C 0.86412 0.09179 0.02032 0.0
C3707 C 0.86035 0.10517 0.00827 0.0
C3708 C 0.84474 0.10198 0.99558 0.0
C3709 C 0.84142 0.11456 0.98414 0.0
C3710 C 0.85366 0.13035 0.98514 0.0
C3711 C 0.86928 0.13358 -0.00246 0.0
C3712 C 0.87266 0.12105 0.00902 0.0
C3713 C 0.90879 0.04018 0.00982 0.0
C3714 C 0.9248 0.05142 0.00812 0.0
C3715 C 0.89583 0.04672 0.01885 0.0
C3716 C 0.89897 0.06446 0.02648 0.0
C3717 C 0.91572 0.07522 0.02632 0.0
C3718 C 0.92858 0.06873 0.01699 0.0
C3719 C 0.88374 0.07246 0.03054 0.0
C3720 C 0.88028 0.08599 0.02024 0.0
C3721 C 0.8711 0.06505 0.04171 0.0
C3722 C 0.87334 0.05064 0.05281 0.0
C3723 C 0.88826 0.05232 0.06607 0.0
C3724 C 0.88926 0.03934 0.07771 0.0
C3725 C 0.87543 0.02467 0.07616 0.0
C3726 C 0.86059 0.02287 0.06296 0.0
C3727 C 0.85954 0.03575 0.05131 0.0
H3728 H 0.87612 0.01464 0.08514 0.0
H3729 H 0.85107 0.14006 0.97627 0.0
H3730 H 0.33473 0.44599 0.02934 0.0
H3731 H 0.36611 0.4586 0.02956 0.0
H3732 H 0.37977 0.4084 0.03666 0.0
H3733 H 0.34799 0.39549 0.03655 0.0
H3734 H 0.40312 0.43922 0.05886 0.0
H3735 H 0.37994 0.41802 0.99506 0.0
H3736 H 0.35749 0.41387 0.96755 0.0
H3737 H 0.36462 0.46977 0.96815 0.0
H3738 H 0.38702 0.47427 0.99575 0.0
H3739 H 0.48991 0.47625 0.03865 0.0
H3740 H 0.46159 0.45688 0.04 0.0
H3741 H 0.43375 0.49444 0.01724 0.0
H3742 H 0.46212 0.51307 0.01411 0.0
H3743 H 0.41858 0.46468 0.00169 0.0
H3744 H 0.43869 0.48658 0.06682 0.0
H3745 H 0.45922 0.49177 0.09595 0.0
H3746 H 0.45663 0.43623 0.09448 0.0
H3747 H 0.43621 0.43072 0.06526 0.0
C3748 C 0.34436 0.43759 0.03111 0.0
C3749 C 0.33888 0.41968 0.03268 0.0
C3750 C 0.36229 0.44484 0.03122 0.0
C3751 C 0.37515 0.43434 0.03275 0.0
C3752 C 0.36995 0.41665 0.03535 0.0
C3753 C 0.35186 0.40933 0.03531 0.0
C3754 C 0.39382 0.44204 0.03079 0.0
C3755 C 0.40671 0.4445 0.04627 0.0
C3756 C 0.39824 0.44914 0.01444 0.0
C3757 C 0.38514 0.44647 -0.0025 0.0
C3758 C 0.37669 0.42943 0.98935 0.0
C3759 C 0.36398 0.42701 0.97374 0.0
C3760 C 0.35963 0.44155 0.96612 0.0
C3761 C 0.36803 0.45853 0.97405 0.0
C3762 C 0.38078 0.46101 0.98964 0.0
C3763 C 0.47778 0.48047 0.03397 0.0
C3764 C 0.47836 0.49646 0.02657 0.0
C3765 C 0.46153 0.46939 0.03492 0.0
C3766 C 0.44542 0.47431 0.02917 0.0
C3767 C 0.44596 0.49033 0.02189 0.0
C3768 C 0.46224 0.50116 0.02037 0.0
C3769 C 0.42797 0.46264 0.0301 0.0
C3770 C 0.41525 0.45929 0.01429 0.0
C3771 C 0.42369 0.45491 0.04627 0.0
C3772 C 0.43609 0.45826 0.06375 0.0
C3773 C 0.44261 0.47549 0.07264 0.0
C3774 C 0.4542 0.47848 0.08918 0.0
C3775 C 0.45927 0.46434 0.09703 0.0
C3776 C 0.45272 0.44717 0.08837 0.0
C3777 C 0.44113 0.4441 0.07183 0.0
H3778 H 0.46823 0.46669 0.10984 0.0
H3779 H 0.34975 0.43965 0.95406 0.0
H3780 H 0.37801 0.55419 0.72743 0.0
H3781 H 0.36463 0.58051 0.72828 0.0
H3782 H 0.38464 0.59454 0.78639 0.0
H3783 H 0.39865 0.56868 0.78541 0.0
H3784 H 0.34563 0.59128 0.77518 0.0
H3785 H 0.40377 0.61906 0.76301 0.0
H3786 H 0.43014 0.62331 0.74603 0.0
H3787 H 0.39753 0.63006 0.69715 0.0
H3788 H 0.37088 0.62562 0.7138 0.0
H3789 H 0.34136 0.67862 0.80504 0.0
H3790 H 0.35645 0.65569 0.79274 0.0
H3791 H 0.31806 0.64363 0.74369 0.0
H3792 H 0.3025 0.66646 0.75624 0.0
H3793 H 0.36415 0.64507 0.74574 0.0
H3794 H 0.30519 0.61666 0.75986 0.0
H3795 H 0.2803 0.61276 0.77897 0.0
H3796 H 0.3162 0.60724 0.82588 0.0
H3797 H 0.34137 0.61149 0.80713 0.0
C3798 C 0.37958 0.56297 0.74034 0.0
C3799 C 0.38918 0.55942 0.75642 0.0
C3800 C 0.37209 0.57801 0.74076 0.0
C3801 C 0.37375 0.58943 0.75737 0.0
C3802 C 0.38336 0.58591 0.77342 0.0
C3803 C 0.39128 0.57116 0.77287 0.0
C3804 C 0.36425 0.60426 0.75849 0.0
C3805 C 0.34964 0.60301 0.76867 0.0
C3806 C 0.36938 0.61939 0.74974 0.0
C3807 C 0.38528 0.62172 0.73957 0.0
C3808 C 0.40217 0.6212 0.74856 0.0
C3809 C 0.41718 0.62372 0.73902 0.0
C3810 C 0.4155 0.62688 0.7205 0.0
C3811 C 0.3988 0.62756 0.71149 0.0
C3812 C 0.38374 0.62505 0.72097 0.0
C3813 C 0.33635 0.67135 0.79144 0.0
C3814 C 0.32062 0.67412 0.7817 0.0
C3815 C 0.34499 0.65831 0.78443 0.0
C3816 C 0.33821 0.64789 0.76746 0.0
C3817 C 0.32343 0.65157 0.75686 0.0
C3818 C 0.31462 0.66463 0.76397 0.0
C3819 C 0.34547 0.63199 0.76236 0.0
C3820 C 0.35981 0.63309 0.7517 0.0
C3821 C 0.34019 0.61666 0.77073 0.0
C3822 C 0.32519 0.61473 0.78219 0.0
C3823 C 0.30783 0.61495 0.77434 0.0
C3824 C 0.29365 0.61259 0.78509 0.0
C3825 C 0.29668 0.60984 0.80366 0.0
C3826 C 0.31389 0.60945 0.81152 0.0
C3827 C 0.32811 0.61186 0.80085 0.0
H3828 H 0.28568 0.60793 0.81192 0.0
H3829 H 0.42714 0.62886 0.71314 0.0
H3830 H 0.21682 0.58297 0.54103 0.0
H3831 H 0.18652 0.57043 0.5451 0.0
H3832 H 0.16749 0.60929 0.51492 0.0
H3833 H 0.19831 0.62312 0.51231 0.0
H3834 H 0.1489 0.60168 0.54374 0.0
H3835 H 0.17138 0.57025 0.49286 0.0
H3836 H 0.19208 0.5538 0.47829 0.0
H3837 H 0.18115 0.51429 0.51445 0.0
H3838 H 0.16068 0.53068 0.52951 0.0
H3839 H 0.06404 0.55684 0.50784 0.0
H3840 H 0.09474 0.57203 0.51192 0.0
H3841 H 0.11009 0.52982 0.53932 0.0
H3842 H 0.07951 0.51351 0.53338 0.0
H3843 H 0.13084 0.53939 0.51511 0.0
H3844 H 0.10525 0.56973 0.56369 0.0
H3845 H 0.08394 0.58616 0.57706 0.0
H3846 H 0.09934 0.6275 0.54413 0.0
H3847 H 0.1205 0.61122 0.5303 0.0
C3848 C 0.20629 0.58908 0.53556 0.0
C3849 C 0.2097 0.6039 0.52627 0.0
C3850 C 0.18904 0.58191 0.53791 0.0
C3851 C 0.17509 0.58887 0.52999 0.0
C3852 C 0.17836 0.6039 0.52106 0.0
C3853 C 0.19576 0.61157 0.51937 0.0
C3854 C 0.15707 0.57935 0.5295 0.0
C3855 C 0.14476 0.58809 0.53744 0.0
C3856 C 0.15223 0.56157 0.52154 0.0
C3857 C 0.16465 0.55181 0.51246 0.0
C3858 C 0.17352 0.55815 0.49783 0.0
C3859 C 0.18521 0.54882 0.48948 0.0
C3860 C 0.18797 0.53304 0.49548 0.0
C3861 C 0.17904 0.52654 0.50985 0.0
C3862 C 0.16742 0.53585 0.5183 0.0
C3863 C 0.07402 0.55039 0.5139 0.0
C3864 C 0.06951 0.53393 0.52 0.0
C3865 C 0.09141 0.55937 0.51683 0.0
C3866 C 0.10426 0.55224 0.52656 0.0
C3867 C 0.10003 0.53552 0.53209 0.0
C3868 C 0.0827 0.52621 0.52853 0.0
C3869 C 0.1225 0.56162 0.52943 0.0
C3870 C 0.13492 0.55288 0.52179 0.0
C3871 C 0.12729 0.57939 0.53753 0.0
C3872 C 0.11445 0.58917 0.54587 0.0
C3873 C 0.10401 0.58226 0.55918 0.0
C3874 C 0.09196 0.59156 0.56686 0.0
C3875 C 0.09027 0.60785 0.56144 0.0
C3876 C 0.10065 0.61488 0.54833 0.0
C3877 C 0.11269 0.60562 0.54057 0.0
H3878 H 0.08094 0.61503 0.56741 0.0
H3879 H 0.19699 0.52583 0.48897 0.0
H3880 H 0.66982 0.9731 0.73782 0.0
H3881 H 0.6804 0.94565 0.73784 0.0
H3882 H 0.73071 0.97365 0.76772 0.0
H3883 H 0.72039 0.00151 0.76693 0.0
H3884 H 0.73482 0.95066 0.73945 0.0
H3885 H 0.69884 0.95198 0.78964 0.0
H3886 H 0.67144 0.95497 0.80363 0.0
H3887 H 0.64262 0.90893 0.76814 0.0
H3888 H 0.66979 0.90587 0.7536 0.0
H3889 H 0.76541 0.89268 0.79501 0.0
H3890 H 0.75645 0.91472 0.77679 0.0
H3891 H 0.7128 0.87557 0.74697 0.0
H3892 H 0.72183 0.85349 0.76542 0.0
H3893 H 0.70237 0.90135 0.76795 0.0
H3894 H 0.74343 0.89967 0.72162 0.0
H3895 H 0.77202 0.90037 0.70863 0.0
H3896 H 0.79396 0.94988 0.74202 0.0
H3897 H 0.76563 0.94943 0.75529 0.0
C3898 C 0.68308 0.97334 0.74454 0.0
C3899 C 0.69436 0.98912 0.75263 0.0
C3900 C 0.68907 0.95775 0.74447 0.0
C3901 C 0.70614 0.95782 0.75297 0.0
C3902 C 0.71746 0.97358 0.7611 0.0
C3903 C 0.7116 0.98931 0.76076 0.0
C3904 C 0.7122 0.94135 0.75341 0.0
C3905 C 0.7279 0.93982 0.74578 0.0
C3906 C 0.70258 0.92731 0.76117 0.0
C3907 C 0.68633 0.92881 0.77035 0.0
C3908 C 0.68665 0.94255 0.78471 0.0
C3909 C 0.67115 0.94427 0.79274 0.0
C3910 C 0.65529 0.93218 0.78674 0.0
C3911 C 0.65491 0.91831 0.77274 0.0
C3912 C 0.67036 0.91658 0.76459 0.0
C3913 C 0.75409 0.88885 0.78433 0.0
C3914 C 0.7438 0.87185 0.78185 0.0
C3915 C 0.74924 0.90124 0.77366 0.0
C3916 C 0.73407 0.89664 0.76048 0.0
C3917 C 0.72466 0.8792 0.75698 0.0
C3918 C 0.72956 0.86678 0.76765 0.0
C3919 C 0.7256 0.9107 0.75457 0.0
C3920 C 0.70921 0.91189 0.76117 0.0
C3921 C 0.735 0.92475 0.74659 0.0
C3922 C 0.75242 0.92442 0.73952 0.0
C3923 C 0.75444 0.91057 0.72637 0.0
C3924 C 0.77058 0.91098 0.71889 0.0
C3925 C 0.7848 0.92514 0.72451 0.0
C3926 C 0.78295 0.93891 0.73767 0.0
C3927 C 0.76685 0.93859 0.74515 0.0
H3928 H 0.79725 0.92546 0.71864 0.0
H3929 H 0.64329 0.93355 0.79295 0.0
H3930 H 0.75328 0.92714 0.52774 0.0
H3931 H 0.72847 0.94249 0.52519 0.0
H3932 H 0.69274 0.89629 0.53631 0.0
H3933 H 0.71756 0.88051 0.53797 0.0
H3934 H 0.67804 0.91044 0.50924 0.0
H3935 H 0.70923 0.93367 0.57033 0.0
H3936 H 0.73628 0.94717 0.59181 0.0
H3937 H 0.74328 0.99247 0.56282 0.0
H3938 H 0.7164 0.97916 0.54103 0.0
H3939 H 0.6074 0.95605 0.51258 0.0
H3940 H 0.62983 0.94037 0.52521 0.0
H3941 H 0.67167 0.98232 0.51557 0.0
H3942 H 0.6493 0.99797 0.50322 0.0
H3943 H 0.68202 0.96904 0.54536 0.0
H3944 H 0.65449 0.94652 0.48329 0.0
H3945 H 0.63036 0.93314 0.45825 0.0
H3946 H 0.6192 0.88692 0.48539 0.0
H3947 H 0.64297 0.90022 0.51086 0.0
C3948 C 0.74014 0.92026 0.52969 0.0
C3949 C 0.73732 0.90269 0.53321 0.0
C3950 C 0.72599 0.92908 0.52835 0.0
C3951 C 0.70882 0.92072 0.53109 0.0
C3952 C 0.70591 0.90306 0.53433 0.0
C3953 C 0.72006 0.89407 0.53528 0.0
C3954 C 0.69387 0.93032 0.5301 0.0
C3955 C 0.67869 0.92305 0.51748 0.0
C3956 C 0.69505 0.94706 0.54041 0.0
C3957 C 0.71078 0.9554 0.55403 0.0
C3958 C 0.71652 0.94652 0.56854 0.0
C3959 C 0.73185 0.95412 0.58075 0.0
C3960 C 0.74149 0.97066 0.57868 0.0
C3961 C 0.73578 0.97967 0.56443 0.0
C3962 C 0.72047 0.97212 0.55218 0.0
C3963 C 0.62139 0.96214 0.51384 0.0
C3964 C 0.62673 0.97815 0.50696 0.0
C3965 C 0.63418 0.95314 0.52087 0.0
C3966 C 0.65245 0.95998 0.52093 0.0
C3967 C 0.65769 0.97672 0.51558 0.0
C3968 C 0.64493 0.98567 0.50854 0.0
C3969 C 0.66609 0.94911 0.52451 0.0
C3970 C 0.68111 0.9562 0.5375 0.0
C3971 C 0.66494 0.93231 0.51427 0.0
C3972 C 0.6503 0.92452 0.49919 0.0
C3973 C 0.64672 0.93362 0.48408 0.0
C3974 C 0.63313 0.92603 0.46978 0.0
C3975 C 0.6232 0.90922 0.47027 0.0
C3976 C 0.62683 0.89998 0.48507 0.0
C3977 C 0.64033 0.90755 0.49947 0.0
H3978 H 0.61273 0.90334 0.45914 0.0
H3979 H 0.75337 0.9765 0.58811 0.0
H3980 H 0.36676 0.46532 0.76049 0.0
H3981 H 0.34673 0.43734 0.76207 0.0
H3982 H 0.3876 0.40932 0.74654 0.0
H3983 H 0.40754 0.43702 0.74474 0.0
H3984 H 0.35604 0.39461 0.72726 0.0
H3985 H 0.3787 0.41544 0.79135 0.0
H3986 H 0.38463 0.43645 0.82016 0.0
H3987 H 0.32844 0.43386 0.82102 0.0
H3988 H 0.32218 0.41303 0.79204 0.0
H3989 H 0.321 0.30981 0.74767 0.0
H3990 H 0.33923 0.33838 0.746 0.0
H3991 H 0.30017 0.36378 0.77074 0.0
H3992 H 0.28291 0.33522 0.77443 0.0
H3993 H 0.32982 0.3807 0.78471 0.0
H3994 H 0.30719 0.3591 0.72027 0.0
H3995 H 0.30193 0.33817 0.6914 0.0
H3996 H 0.35836 0.34222 0.69101 0.0
H3997 H 0.36395 0.36301 0.71997 0.0
C3998 C 0.37146 0.4532 0.75736 0.0
C3999 C 0.38878 0.45344 0.75251 0.0
C4000 C 0.36003 0.43723 0.75837 0.0
C4001 C 0.36574 0.42125 0.75459 0.0
C4002 C 0.38292 0.42148 0.74953 0.0
C4003 C 0.39432 0.43737 0.74855 0.0
C4004 C 0.35388 0.40418 0.75564 0.0
C4005 C 0.35037 0.39149 0.73985 0.0
C4006 C 0.34622 0.40029 0.77196 0.0
C4007 C 0.34999 0.41284 0.78938 0.0
C4008 C 0.36761 0.41948 0.79758 0.0
C4009 C 0.37103 0.43133 0.81396 0.0
C4010 C 0.35692 0.43653 0.82238 0.0
C4011 C 0.33936 0.42985 0.81446 0.0
C4012 C 0.33587 0.41802 0.79806 0.0
C4013 C 0.31619 0.32145 0.75268 0.0
C4014 C 0.30013 0.3201 0.76072 0.0
C4015 C 0.3266 0.33787 0.75154 0.0
C4016 C 0.32086 0.35339 0.75762 0.0
C4017 C 0.30485 0.35207 0.76569 0.0
C4018 C 0.29477 0.33564 0.76749 0.0
C4019 C 0.3318 0.37097 0.75623 0.0
C4020 C 0.33523 0.3838 0.77199 0.0
C4021 C 0.33939 0.37501 0.73984 0.0
C4022 C 0.33597 0.36253 0.72237 0.0
C4023 C 0.31847 0.35546 0.71408 0.0
C4024 C 0.31543 0.34362 0.69769 0.0
C4025 C 0.3298 0.33885 0.6894 0.0
C4026 C 0.34724 0.34592 0.69745 0.0
C4027 C 0.35035 0.35774 0.71383 0.0
H4028 H 0.32741 0.32969 0.67672 0.0
H4029 H 0.3596 0.4457 0.83507 0.0
H4030 H 0.16944 0.60332 0.23559 0.0
H4031 H 0.18752 0.63265 0.2419 0.0
H4032 H 0.23369 0.61151 0.25908 0.0
H4033 H 0.21558 0.58183 0.25317 0.0
H4034 H 0.22712 0.63916 0.28401 0.0
H4035 H 0.23385 0.62643 0.22001 0.0
H4036 H 0.22208 0.61311 0.18792 0.0
H4037 H 0.18705 0.64988 0.1847 0.0
H4038 H 0.19844 0.6633 0.21689 0.0
H4039 H 0.28189 0.722 0.27797 0.0
H4040 H 0.26763 0.69144 0.27817 0.0
H4041 H 0.21633 0.7039 0.26193 0.0
H4042 H 0.23066 0.73449 0.26167 0.0
H4043 H 0.22925 0.67967 0.2359 0.0
H4044 H 0.2193 0.6884 0.30137 0.0
H4045 H 0.23154 0.70247 0.33303 0.0
H4046 H 0.27471 0.6746 0.33152 0.0
H4047 H 0.26221 0.65973 0.30025 0.0
C4048 C 0.18347 0.60483 0.24049 0.0
C4049 C 0.19117 0.5904 0.24387 0.0
C4050 C 0.19372 0.62153 0.24406 0.0
C4051 C 0.21179 0.62389 0.25067 0.0
C4052 C 0.21969 0.60961 0.25386 0.0
C4053 C 0.20938 0.59282 0.25042 0.0
C4054 C 0.22202 0.64159 0.25481 0.0
C4055 C 0.22798 0.648 0.2735 0.0
C4056 C 0.22278 0.65281 0.2409 0.0
C4057 C 0.21704 0.6459 0.22091 0.0
C4058 C 0.2237 0.63175 0.21244 0.0
C4059 C 0.21705 0.62414 0.19424 0.0
C4060 C 0.20382 0.63065 0.18428 0.0
C4061 C 0.19734 0.64489 0.19243 0.0
C4062 C 0.20394 0.65255 0.21064 0.0
C4063 C 0.26749 0.71828 0.27549 0.0
C4064 C 0.25717 0.73012 0.2699 0.0
C4065 C 0.25942 0.70098 0.27548 0.0
C4066 C 0.24111 0.69575 0.26985 0.0
C4067 C 0.23052 0.70802 0.26625 0.0
C4068 C 0.23861 0.72538 0.26638 0.0
C4069 C 0.23371 0.67723 0.26516 0.0
C4070 C 0.22851 0.67075 0.24633 0.0
C4071 C 0.23375 0.66592 0.27884 0.0
C4072 C 0.23973 0.67282 0.29862 0.0
C4073 C 0.23116 0.68496 0.30804 0.0
C4074 C 0.23815 0.69307 0.32596 0.0
C4075 C 0.2538 0.68927 0.33453 0.0
C4076 C 0.26234 0.6772 0.32521 0.0
C4077 C 0.25522 0.66878 0.30744 0.0
H4078 H 0.25939 0.69579 0.34828 0.0
H4079 H 0.19858 0.62465 0.17025 0.0
H4080 H 0.50008 0.69087 0.43037 0.0
H4081 H 0.50402 0.66339 0.44161 0.0
H4082 H 0.50563 0.68736 0.49813 0.0
H4083 H 0.50252 0.7153 0.48685 0.0
H4084 H 0.52918 0.66812 0.49827 0.0
H4085 H 0.46757 0.65457 0.47119 0.0
H4086 H 0.44256 0.65189 0.44646 0.0
H4087 H 0.46618 0.61713 0.41118 0.0
H4088 H 0.49139 0.61971 0.43564 0.0
H4089 H 0.52435 0.58616 0.53584 0.0
H4090 H 0.52014 0.61448 0.52656 0.0
H4091 H 0.5132 0.59199 0.46886 0.0
H4092 H 0.51605 0.56348 0.47825 0.0
H4093 H 0.49153 0.61096 0.47034 0.0
H4094 H 0.55349 0.62487 0.49579 0.0
H4095 H 0.57942 0.62783 0.51939 0.0
H4096 H 0.55651 0.66163 0.55656 0.0
H4097 H 0.53043 0.65891 0.5331 0.0
C4098 C 0.50111 0.69034 0.44522 0.0
C4099 C 0.5008 0.70547 0.45762 0.0
C4100 C 0.50327 0.67442 0.4517 0.0
C4101 C 0.50477 0.6728 0.47085 0.0
C4102 C 0.50447 0.68795 0.48329 0.0
C4103 C 0.50259 0.70401 0.47681 0.0
C4104 C 0.50712 0.65559 0.47783 0.0
C4105 C 0.52073 0.65567 0.49229 0.0
C4106 C 0.49658 0.63901 0.46991 0.0
C4107 C 0.48143 0.63746 0.4552 0.0
C4108 C 0.46747 0.64644 0.45812 0.0
C4109 C 0.45325 0.64492 0.44416 0.0
C4110 C 0.45281 0.63439 0.42724 0.0
C4111 C 0.46655 0.6253 0.42427 0.0
C4112 C 0.48079 0.62677 0.43819 0.0
C4113 C 0.52194 0.58727 0.52117 0.0
C4114 C 0.52041 0.57236 0.50785 0.0
C4115 C 0.51971 0.60365 0.51577 0.0
C4116 C 0.51657 0.60591 0.49682 0.0
C4117 C 0.51543 0.59098 0.48357 0.0
C4118 C 0.51713 0.57453 0.48897 0.0
C4119 C 0.51382 0.62337 0.49064 0.0
C4120 C 0.50006 0.62336 0.47635 0.0
C4121 C 0.52435 0.63998 0.49859 0.0
C4122 C 0.53991 0.6415 0.51278 0.0
C4123 C 0.55392 0.63282 0.50905 0.0
C4124 C 0.56866 0.63448 0.5224 0.0
C4125 C 0.56956 0.64479 0.53955 0.0
C4126 C 0.55577 0.65359 0.54331 0.0
C4127 C 0.54103 0.65203 0.52997 0.0
H4128 H 0.58097 0.64602 0.54988 0.0
H4129 H 0.44179 0.63324 0.41645 0.0
H4130 H 0.62243 0.30208 0.62153 0.0
H4131 H 0.64862 0.29963 0.64234 0.0
H4132 H 0.61419 0.27451 0.67909 0.0
H4133 H 0.58818 0.27803 0.65901 0.0
H4134 H 0.63896 0.29451 0.69968 0.0
H4135 H 0.64014 0.25219 0.64695 0.0
H4136 H 0.64054 0.24128 0.61392 0.0
H4137 H 0.68928 0.27806 0.61282 0.0
H4138 H 0.68908 0.2893 0.6458 0.0
H4139 H 0.7079 0.26184 0.75093 0.0
H4140 H 0.68142 0.26493 0.73112 0.0
H4141 H 0.71467 0.29687 0.69838 0.0
H4142 H 0.7412 0.29394 0.71817 0.0
H4143 H 0.69042 0.27287 0.67618 0.0
H4144 H 0.68885 0.31411 0.73026 0.0
H4145 H 0.68781 0.32372 0.76348 0.0
H4146 H 0.63875 0.28677 0.76227 0.0
H4147 H 0.63963 0.27673 0.72912 0.0
C4148 C 0.62048 0.29603 0.63405 0.0
C4149 C 0.60316 0.29024 0.63853 0.0
C4150 C 0.6355 0.29447 0.64594 0.0
C4151 C 0.63362 0.28655 0.66233 0.0
C4152 C 0.61625 0.28072 0.66668 0.0
C4153 C 0.60128 0.28267 0.65508 0.0
C4154 C 0.64957 0.28467 0.67517 0.0
C4155 C 0.65005 0.28951 0.69447 0.0
C4156 C 0.66438 0.27843 0.66864 0.0
C4157 C 0.6645 0.2717 0.6488 0.0
C4158 C 0.65088 0.25803 0.63963 0.0
C4159 C 0.65108 0.25177 0.62092 0.0
C4160 C 0.6649 0.259 0.61127 0.0
C4161 C 0.67857 0.27248 0.62031 0.0
C4162 C 0.67843 0.27878 0.63901 0.0
C4163 C 0.70964 0.26972 0.73967 0.0
C4164 C 0.72686 0.27766 0.73628 0.0
C4165 C 0.69439 0.27148 0.7283 0.0
C4166 C 0.6959 0.28126 0.71322 0.0
C4167 C 0.71305 0.28923 0.70986 0.0
C4168 C 0.72827 0.28754 0.72125 0.0
C4169 C 0.67977 0.28277 0.70056 0.0
C4170 C 0.67926 0.27782 0.68132 0.0
C4171 C 0.66483 0.28864 0.70719 0.0
C4172 C 0.66442 0.29453 0.72722 0.0
C4173 C 0.67793 0.3079 0.73712 0.0
C4174 C 0.67735 0.31346 0.75593 0.0
C4175 C 0.66324 0.30583 0.76499 0.0
C4176 C 0.64968 0.29264 0.75525 0.0
C4177 C 0.65022 0.28702 0.73644 0.0
H4178 H 0.66281 0.31017 0.77955 0.0
H4179 H 0.66504 0.25414 0.59679 0.0
H4180 H 0.03311 0.32287 0.97105 0.0
H4181 H 0.03427 0.35363 0.98377 0.0
H4182 H 0.98101 0.35051 0.95711 0.0
H4183 H 0.98 0.31988 0.94433 0.0
H4184 H 0.00184 0.37934 0.95003 0.0
H4185 H 0.9911 0.35359 0.00598 0.0
H4186 H 0.9969 0.33546 0.03067 0.0
H4187 H 0.0492 0.36732 0.04596 0.0
H4188 H 0.04377 0.38554 0.02121 0.0
H4189 H 0.98812 0.46244 0.99361 0.0
H4190 H 0.9854 0.43064 0.98471 0.0
H4191 H 0.04071 0.4349 0.00516 0.0
H4192 H 0.04354 0.46656 0.01375 0.0
H4193 H 0.0189 0.40562 0.01591 0.0
H4194 H 0.03051 0.43107 0.96084 0.0
H4195 H 0.0263 0.44905 0.93563 0.0
H4196 H 0.97408 0.41773 0.91811 0.0
H4197 H 0.97786 0.39971 0.94344 0.0
C4198 C 0.02143 0.32858 0.9685 0.0
C4199 C 0.00623 0.31873 0.9572 0.0
C4200 C 0.02212 0.34626 0.97567 0.0
C4201 C 0.00767 0.35459 0.97159 0.0
C4202 C 0.99236 0.34456 0.96059 0.0
C4203 C 0.99167 0.32692 0.95349 0.0
C4204 C 0.00878 0.37391 0.97786 0.0
C4205 C 0.00524 0.38496 0.96451 0.0
C4206 C 0.01384 0.38162 0.99664 0.0
C4207 C 0.01709 0.37082 0.01164 0.0
C4208 C 0.00388 0.35666 0.01453 0.0
C4209 C 0.00709 0.34638 0.02855 0.0
C4210 C 0.02343 0.35021 0.03984 0.0
C4211 C 0.03656 0.36436 0.03719 0.0
C4212 C 0.03341 0.37469 0.02318 0.0
C4213 C -0.00037 0.45659 0.99638 0.0
C4214 C 0.01603 0.46717 0.00442 0.0
C4215 C 0.99811 0.43837 0.99117 0.0
C4216 C 0.01287 0.43023 0.99416 0.0
C4217 C 0.0291 0.44072 0.00266 0.0
C4218 C 0.0307 0.45891 0.00751 0.0
C4219 C 0.01161 0.41091 0.98814 0.0
C4220 C 0.01528 0.39992 0.00147 0.0
C4221 C 0.00681 0.40326 0.96933 0.0
C4222 C 0.00436 0.4142 0.95423 0.0
C4223 C 0.01803 0.42815 0.95177 0.0
C4224 C 0.01574 0.43832 0.93742 0.0
C4225 C -0.0001 0.43458 0.92533 0.0
C4226 C 0.98632 0.42064 0.92753 0.0
C4227 C 0.98853 0.41044 0.94189 0.0
H4228 H 0.99816 0.44245 0.91421 0.0
H4229 H 0.02589 0.34222 0.05068 0.0
H4230 H 0.00991 0.76846 0.16979 0.0
H4231 H 0.9815 0.76821 0.18148 0.0
H4232 H 0.96132 0.78689 0.13175 0.0
H4233 H 0.99036 0.78742 0.11975 0.0
H4234 H 0.95162 0.80364 0.16456 0.0
H4235 H 0.94652 0.74455 0.13657 0.0
H4236 H 0.95668 0.7167 0.12909 0.0
H4237 H 0.96238 0.71038 0.18703 0.0
H4238 H 0.9524 0.73826 0.19487 0.0
H4239 H 0.8635 0.77049 0.1977 0.0
H4240 H 0.88803 0.78002 0.17937 0.0
H4241 H 0.92574 0.77013 0.22267 0.0
H4242 H 0.90143 0.76075 0.2409 0.0
H4243 H 0.92261 0.74882 0.18665 0.0
H4244 H 0.93088 0.80931 0.21459 0.0
H4245 H 0.92458 0.83892 0.22235 0.0
H4246 H 0.91391 0.84317 0.16427 0.0
H4247 H 0.91995 0.81348 0.15616 0.0
C4248 C -0.00046 0.77253 0.16116 0.0
C4249 C 0.00251 0.77785 0.14368 0.0
C4250 C 0.98318 0.77231 0.16792 0.0
C4251 C 0.96909 0.7772 0.1574 0.0
C4252 C 0.97196 0.78293 0.14008 0.0
C4253 C 0.98855 0.78321 0.13323 0.0
C4254 C 0.95161 0.77615 0.165 0.0
C4255 C 0.94494 0.79155 0.16895 0.0
C4256 C 0.94302 0.76046 0.17099 0.0
C4257 C 0.94874 0.74352 0.16631 0.0
C4258 C 0.94999 0.73725 0.14772 0.0
C4259 C 0.95571 0.72145 0.14341 0.0
C4260 C 0.96018 0.71178 0.15757 0.0
C4261 C 0.95888 0.71786 0.17607 0.0
C4262 C 0.95314 0.73364 0.18045 0.0
C4263 C 0.87711 0.77117 0.20365 0.0
C4264 C 0.88056 0.76493 0.22077 0.0
C4265 C 0.89112 0.77654 0.19312 0.0
C4266 C 0.90875 0.7757 0.19957 0.0
C4267 C 0.91228 0.77092 0.21739 0.0
C4268 C 0.89838 0.76563 0.22786 0.0
C4269 C 0.92292 0.77646 0.18684 0.0
C4270 C 0.92893 0.76085 0.18186 0.0
C4271 C 0.93075 0.79194 0.17987 0.0
C4272 C 0.92552 0.80903 0.18478 0.0
C4273 C 0.92679 0.81638 0.20348 0.0
C4274 C 0.92339 0.83324 0.20794 0.0
C4275 C 0.9188 0.84289 0.19381 0.0
C4276 C 0.91742 0.83565 0.1752 0.0
C4277 C 0.92081 0.81881 0.17066 0.0
H4278 H 0.91649 0.85603 0.19728 0.0
H4279 H 0.96464 0.69957 0.15422 0.0
H4280 H 0.49227 0.30723 0.15693 0.0
H4281 H 0.49348 0.33307 0.14019 0.0
H4282 H 0.54183 0.32337 0.11927 0.0
H4283 H 0.54021 0.29714 0.13525 0.0
H4284 H 0.54197 0.3601 0.13589 0.0
H4285 H 0.5095 0.31282 0.09027 0.0
H4286 H 0.48536 0.2872 0.07936 0.0
H4287 H 0.44636 0.31934 0.08772 0.0
H4288 H 0.47033 0.34513 0.09899 0.0
H4289 H 0.55719 0.40525 0.05939 0.0
H4290 H 0.5476 0.37979 0.07536 0.0
H4291 H 0.5051 0.40319 0.09492 0.0
H4292 H 0.51483 0.42898 0.07898 0.0
H4293 H 0.4988 0.36114 0.08095 0.0
H4294 H 0.53227 0.40917 0.12554 0.0
H4295 H 0.55716 0.43409 0.13659 0.0
H4296 H 0.5946 0.39989 0.13029 0.0
H4297 H 0.56992 0.37481 0.11891 0.0
C4298 C 0.50312 0.31062 0.14871 0.0
C4299 C 0.5161 0.30014 0.14728 0.0
C4300 C 0.50379 0.32536 0.13916 0.0
C4301 C 0.51775 0.33016 0.12846 0.0
C4302 C 0.53093 0.31991 0.1274 0.0
C4303 C 0.52995 0.30489 0.13646 0.0
C4304 C 0.51864 0.34575 0.11821 0.0
C4305 C 0.53252 0.36031 0.12389 0.0
C4306 C 0.50613 0.3462 0.10275 0.0
C4307 C 0.49169 0.33085 0.09569 0.0
C4308 C 0.49577 0.31439 0.08994 0.0
C4309 C 0.48213 0.29985 0.08367 0.0
C4310 C 0.46433 0.30163 0.08291 0.0
C4311 C 0.46016 0.31798 0.08836 0.0
C4312 C 0.47377 0.33257 0.09468 0.0
C4313 C 0.54556 0.40483 0.06677 0.0
C4314 C 0.53683 0.41918 0.06801 0.0
C4315 C 0.54009 0.39026 0.07589 0.0
C4316 C 0.52572 0.38961 0.08646 0.0
C4317 C 0.51617 0.40336 0.08677 0.0
C4318 C 0.5217 0.41806 0.07762 0.0
C4319 C 0.52223 0.37545 0.0986 0.0
C4320 C 0.50799 0.3611 0.0932 0.0
C4321 C 0.53439 0.37514 0.11439 0.0
C4322 C 0.54927 0.39017 0.12117 0.0
C4323 C 0.54582 0.40701 0.12631 0.0
C4324 C 0.55989 0.42115 0.13268 0.0
C4325 C 0.57746 0.41859 0.13409 0.0
C4326 C 0.58099 0.40186 0.12916 0.0
C4327 C 0.56697 0.38768 0.12276 0.0
H4328 H 0.58833 0.42955 0.13904 0.0
H4329 H 0.45378 0.29035 0.07805 0.0
H4330 H 0.98036 0.29549 0.29714 0.0
H4331 H 0.94822 0.29128 0.28876 0.0
H4332 H 0.93978 0.28353 0.34515 0.0
H4333 H 0.97212 0.28704 0.35345 0.0
H4334 H 0.91434 0.2621 0.32234 0.0
H4335 H 0.93767 0.3242 0.32706 0.0
H4336 H 0.95821 0.35026 0.32011 0.0
H4337 H 0.93927 0.33699 0.26194 0.0
H4338 H 0.91871 0.31078 0.26854 0.0
H4339 H 0.82402 0.27422 0.31242 0.0
H4340 H 0.85576 0.27585 0.32177 0.0
H4341 H 0.8674 0.28847 0.26751 0.0
H4342 H 0.8358 0.28769 0.25847 0.0
H4343 H 0.89142 0.30762 0.29022 0.0
H4344 H 0.86811 0.24527 0.28524 0.0
H4345 H 0.85017 0.21741 0.29166 0.0
H4346 H 0.8697 0.23017 0.34972 0.0
H4347 H 0.88759 0.25815 0.34369 0.0
C4348 C 0.9717 0.29276 0.30778 0.0
C4349 C 0.97897 0.29173 0.32604 0.0
C4350 C 0.95321 0.29048 0.30298 0.0
C4351 C 0.94133 0.28755 0.31637 0.0
C4352 C 0.9485 0.28588 0.3345 0.0
C4353 C 0.96706 0.28788 0.33926 0.0
C4354 C 0.92159 0.28658 0.31148 0.0
C4355 C 0.90933 0.2722 0.31556 0.0
C4356 C 0.91482 0.29947 0.30222 0.0
C4357 C 0.92673 0.3155 0.29828 0.0
C4358 C 0.93791 0.32685 0.31279 0.0
C4359 C 0.94956 0.34163 0.30891 0.0
C4360 C 0.95006 0.34527 0.29059 0.0
C4361 C 0.93885 0.33417 0.27612 0.0
C4362 C 0.92717 0.31937 0.27993 0.0
C4363 C 0.83333 0.27732 0.30245 0.0
C4364 C 0.8272 0.2808 0.28464 0.0
C4365 C 0.85159 0.27809 0.30777 0.0
C4366 C 0.86429 0.28195 0.29532 0.0
C4367 C 0.85812 0.28545 0.27753 0.0
C4368 C 0.83992 0.28497 0.27231 0.0
C4369 C 0.88398 0.28297 0.3009 0.0
C4370 C 0.89631 0.29745 0.297 0.0
C4371 C 0.89077 0.27012 0.31029 0.0
C4372 C 0.87912 0.25384 0.31403 0.0
C4373 C 0.8684 0.24223 0.2994 0.0
C4374 C 0.85829 0.22639 0.30297 0.0
C4375 C 0.8589 0.22201 0.32107 0.0
C4376 C 0.86932 0.23357 0.3357 0.0
C4377 C 0.87944 0.2494 0.33222 0.0
H4378 H 0.85146 0.2096 0.3238 0.0
H4379 H 0.95912 0.35669 0.28762 0.0
H4380 H 0.98495 0.67898 0.6533 0.0
H4381 H 0.98543 0.6531 0.63115 0.0
H4382 H 0.03512 0.6794 0.61519 0.0
H4383 H 0.03376 0.70573 0.63628 0.0
H4384 H 0.01787 0.66174 0.58624 0.0
H4385 H 0.03003 0.64546 0.64778 0.0
H4386 H 0.0238 0.64103 0.67972 0.0
H4387 H 0.97477 0.60554 0.65812 0.0
H4388 H 0.98064 0.60974 0.62614 0.0
H4389 H 0.04153 0.5844 0.54238 0.0
H4390 H 0.0403 0.61118 0.56267 0.0
H4391 H 0.99056 0.58553 0.5791 0.0
H4392 H 0.99254 0.55837 0.55979 0.0
H4393 H 0.00818 0.60305 0.6077 0.0
H4394 H 0.99637 0.6193 0.54592 0.0
H4395 H 0.0027 0.62417 0.51412 0.0
H4396 H 0.05153 0.65984 0.53613 0.0
H4397 H 0.04553 0.65517 0.56806 0.0
C4398 C 0.99577 0.67927 0.64478 0.0
C4399 C 0.00922 0.69437 0.64633 0.0
C4400 C 0.99622 0.66437 0.6323 0.0
C4401 C 0.0106 0.66391 0.62172 0.0
C4402 C 0.02386 0.67923 0.62309 0.0
C4403 C 0.02309 0.69433 0.63513 0.0
C4404 C 0.01193 0.64758 0.60935 0.0
C4405 C 0.01596 0.64895 0.59106 0.0
C4406 C 0.00914 0.63068 0.6153 0.0
C4407 C 0.00572 0.62802 0.63458 0.0
C4408 C 0.0179 0.63674 0.64987 0.0
C4409 C 0.01443 0.63424 0.66799 0.0
C4410 C 0.99889 0.62299 0.67097 0.0
C4411 C 0.98681 0.61418 0.65583 0.0
C4412 C 0.99021 0.61659 0.63771 0.0
C4413 C 0.03028 0.58456 0.55025 0.0
C4414 C 0.01702 0.56936 0.54937 0.0
C4415 C 0.0295 0.59995 0.56179 0.0
C4416 C 0.01507 0.60074 0.5722 0.0
C4417 C 0.00184 0.58545 0.57126 0.0
C4418 C 0.00291 0.56991 0.56016 0.0
C4419 C 0.01395 0.61717 0.58451 0.0
C4420 C 0.01005 0.61583 0.60283 0.0
C4421 C 0.01693 0.63409 0.5786 0.0
C4422 C 0.02056 0.63678 0.55937 0.0
C4423 C 0.00851 0.6281 0.54397 0.0
C4424 C 0.01203 0.63083 0.52593 0.0
C4425 C 0.02754 0.64223 0.52311 0.0
C4426 C 0.03953 0.65099 0.53833 0.0
C4427 C 0.03606 0.64834 0.5564 0.0
H4428 H 0.03023 0.64433 0.50913 0.0
H4429 H 0.9962 0.62108 0.68499 0.0
H4430 H 0.60661 0.8107 0.85764 0.0
H4431 H 0.63405 0.80725 0.84429 0.0
H4432 H 0.60303 0.77378 0.79691 0.0
H4433 H 0.57545 0.77753 0.81003 0.0
H4434 H 0.63168 0.75975 0.8112 0.0
H4435 H 0.62269 0.81369 0.79129 0.0
H4436 H 0.61728 0.84397 0.79407 0.0
H4437 H 0.66592 0.86178 0.83086 0.0
H4438 H 0.67149 0.83154 0.82854 0.0
H4439 H 0.70756 0.75756 0.76025 0.0
H4440 H 0.67846 0.7605 0.76984 0.0
H4441 H 0.70436 0.79949 0.81555 0.0
H4442 H 0.73342 0.79649 0.80619 0.0
H4443 H 0.67695 0.81029 0.79987 0.0
H4444 H 0.68521 0.75563 0.8204 0.0
H4445 H 0.68975 0.72506 0.818 0.0
H4446 H 0.6419 0.70833 0.77982 0.0
H4447 H 0.63724 0.73886 0.78172 0.0
C4448 C 0.60558 0.80268 0.84432 0.0
C4449 C 0.58871 0.79443 0.83495 0.0
C4450 C 0.62134 0.80075 0.83664 0.0
C4451 C 0.62079 0.79027 0.81949 0.0
C4452 C 0.60395 0.78194 0.81013 0.0
C4453 C 0.58814 0.78416 0.81764 0.0
C4454 C 0.63777 0.78779 0.81163 0.0
C4455 C 0.64144 0.7708 0.80843 0.0
C4456 C 0.6508 0.80213 0.80827 0.0
C4457 C 0.64739 0.8203 0.80992 0.0
C4458 C 0.63213 0.82402 0.80015 0.0
C4459 C 0.62906 0.84119 0.8016 0.0
C4460 C 0.64122 0.85478 0.81269 0.0
C4461 C 0.65649 0.85123 0.82232 0.0
C4462 C 0.65962 0.83408 0.82093 0.0
C4463 C 0.70715 0.76663 0.77247 0.0
C4464 C 0.7231 0.77657 0.78251 0.0
C4465 C 0.69037 0.76831 0.77798 0.0
C4466 C 0.68896 0.7801 0.79365 0.0
C4467 C 0.70486 0.79024 0.80347 0.0
C4468 C 0.7216 0.78845 0.79808 0.0
C4469 C 0.67109 0.78222 0.79971 0.0
C4470 C 0.6672 0.79919 0.80255 0.0
C4471 C 0.65785 0.76782 0.8027 0.0
C4472 C 0.66101 0.74958 0.80102 0.0
C4473 C 0.67579 0.74548 0.8113 0.0
C4474 C 0.67834 0.72814 0.81008 0.0
C4475 C 0.66611 0.71476 0.79878 0.0
C4476 C 0.65136 0.7187 0.78856 0.0
C4477 C 0.64877 0.73602 0.78969 0.0
H4478 H 0.66805 0.70133 0.79794 0.0
H4479 H 0.63883 0.86807 0.81377 0.0
H4480 H 0.41522 0.51728 0.68513 0.0
H4481 H 0.42945 0.5197 0.65669 0.0
H4482 H 0.4792 0.51419 0.6861 0.0
H4483 H 0.46518 0.51261 0.71479 0.0
H4484 H 0.48571 0.53875 0.66589 0.0
H4485 H 0.45148 0.48021 0.65374 0.0
H4486 H 0.42474 0.45669 0.65074 0.0
H4487 H 0.39932 0.48075 0.60821 0.0
H4488 H 0.42582 0.50455 0.61112 0.0
H4489 H 0.52576 0.51632 0.58366 0.0
H4490 H 0.51224 0.51578 0.61258 0.0
H4491 H 0.46819 0.53571 0.58766 0.0
H4492 H 0.48198 0.53698 0.55871 0.0
H4493 H 0.45917 0.50398 0.6053 0.0
H4494 H 0.4952 0.56221 0.61767 0.0
H4495 H 0.52274 0.58477 0.62117 0.0
H4496 H 0.54608 0.55935 0.66384 0.0
H4497 H 0.51879 0.53642 0.66035 0.0
C4498 C 0.42918 0.51652 0.68549 0.0
C4499 C 0.43912 0.51478 0.70215 0.0
C4500 C 0.43728 0.51779 0.66919 0.0
C4501 C 0.45536 0.51685 0.66911 0.0
C4502 C 0.46525 0.51497 0.68577 0.0
C4503 C 0.45723 0.51405 0.70215 0.0
C4504 C 0.46411 0.51851 0.65187 0.0
C4505 C 0.48002 0.53092 0.65272 0.0
C4506 C 0.45656 0.50856 0.63454 0.0
C4507 C 0.44058 0.49427 0.6328 0.0
C4508 C 0.44014 0.48057 0.64386 0.0
C4509 C 0.42503 0.46717 0.64215 0.0
C4510 C 0.41032 0.46725 0.62933 0.0
C4511 C 0.41071 0.48072 0.61815 0.0
C4512 C 0.42577 0.49416 0.61982 0.0
C4513 C 0.51335 0.52091 0.58435 0.0
C4514 C 0.50503 0.52685 0.56886 0.0
C4515 C 0.50565 0.52056 0.60092 0.0
C4516 C 0.4893 0.5258 0.60226 0.0
C4517 C 0.48088 0.53168 0.58687 0.0
C4518 C 0.48876 0.53239 0.57037 0.0
C4519 C 0.4806 0.52421 0.61942 0.0
C4520 C 0.46478 0.51175 0.61852 0.0
C4521 C 0.48841 0.53388 0.63674 0.0
C4522 C 0.505 0.54744 0.63855 0.0
C4523 C 0.50629 0.56127 0.62761 0.0
C4524 C 0.52184 0.57417 0.62965 0.0
C4525 C 0.53617 0.57346 0.64267 0.0
C4526 C 0.53498 0.55985 0.65371 0.0
C4527 C 0.51947 0.5469 0.65171 0.0
H4528 H 0.54818 0.58348 0.64424 0.0
H4529 H 0.39864 0.45687 0.62803 0.0
H4530 H 0.78194 0.18081 0.00447 0.0
H4531 H 0.77558 0.19476 0.97689 0.0
H4532 H 0.75352 0.14386 0.9455 0.0
H4533 H 0.76034 0.12979 0.97283 0.0
H4534 H 0.77666 0.1629 0.92788 0.0
H4535 H 0.72495 0.17155 0.95592 0.0
H4536 H 0.70703 0.17979 0.9806 0.0
H4537 H 0.73682 0.23277 0.98791 0.0
H4538 H 0.75493 0.22485 0.9633 0.0
H4539 H 0.74108 0.20227 0.85278 0.0
H4540 H 0.7513 0.1855 0.8765 0.0
H4541 H 0.77019 0.23364 0.9141 0.0
H4542 H 0.75887 0.25029 0.8906 0.0
H4543 H 0.74581 0.21328 0.92751 0.0
H4544 H 0.79933 0.20263 0.90022 0.0
H4545 H 0.8171 0.19258 0.87618 0.0
H4546 H 0.78261 0.14172 0.86729 0.0
H4547 H 0.76469 0.15147 0.89129 0.0
C4548 C 0.77601 0.17264 0.99158 0.0
C4549 C 0.77196 0.15432 0.99055 0.0
C4550 C 0.77206 0.18058 0.97602 0.0
C4551 C 0.76377 0.17027 0.95943 0.0
C4552 C 0.75984 0.15194 0.95831 0.0
C4553 C 0.76401 0.14397 0.97379 0.0
C4554 C 0.76101 0.17866 0.94277 0.0
C4555 C 0.76966 0.17375 0.92757 0.0
C4556 C 0.75203 0.19284 0.94271 0.0
C4557 C 0.74138 0.19757 0.95782 0.0
C4558 C 0.72777 0.18493 0.96289 0.0
C4559 C 0.71754 0.18955 0.97682 0.0
C4560 C 0.72081 0.20678 0.98584 0.0
C4561 C 0.73429 0.21943 0.98091 0.0
C4562 C 0.74451 0.21489 0.96692 0.0
C4563 C 0.74782 0.20923 0.86599 0.0
C4564 C 0.74879 0.22734 0.87029 0.0
C4565 C 0.75389 0.1997 0.87942 0.0
C4566 C 0.76138 0.20833 0.89709 0.0
C4567 C 0.76425 0.22676 0.90056 0.0
C4568 C 0.75772 0.23623 0.88729 0.0
C4569 C 0.76233 0.19817 0.91284 0.0
C4570 C 0.75295 0.20253 0.92776 0.0
C4571 C 0.77046 0.18334 0.91253 0.0
C4572 C 0.78056 0.17787 0.89734 0.0
C4573 C 0.79541 0.18939 0.89294 0.0
C4574 C 0.80557 0.18371 0.87942 0.0
C4575 C 0.80095 0.16655 0.87017 0.0
C4576 C 0.78616 0.15502 0.87443 0.0
C4577 C 0.77604 0.1606 0.88801 0.0
H4578 H 0.80886 0.16217 0.85975 0.0
H4579 H 0.71287 0.21034 0.99662 0.0
H4580 H 0.12149 0.52981 0.20627 0.0
H4581 H 0.10371 0.5314 0.17788 0.0
H4582 H 0.1426 0.51246 0.1461 0.0
H4583 H 0.16203 0.51304 0.17514 0.0
H4584 H 0.13035 0.53863 0.13232 0.0
H4585 H 0.1032 0.48521 0.1554 0.0
H4586 H 0.09151 0.46935 0.18047 0.0
H4587 H 0.05109 0.50048 0.18405 0.0
H4588 H 0.06273 0.51678 0.15929 0.0
H4589 H 0.06745 0.50515 0.0527 0.0
H4590 H 0.08872 0.50831 0.08046 0.0
H4591 H 0.06014 0.54334 0.10956 0.0
H4592 H 0.03909 0.54091 0.08164 0.0
H4593 H 0.06665 0.50891 0.12418 0.0
H4594 H 0.09605 0.56616 0.11218 0.0
H4595 H 0.10983 0.58905 0.09431 0.0
H4596 H 0.14374 0.5552 0.07369 0.0
H4597 H 0.13045 0.53231 0.09188 0.0
C4598 C 0.12653 0.52624 0.19335 0.0
C4599 C 0.14313 0.52132 0.19279 0.0
C4600 C 0.11617 0.52688 0.17713 0.0
C4601 C 0.1216 0.52132 0.16014 0.0
C4602 C 0.13821 0.51646 0.15933 0.0
C4603 C 0.14915 0.51671 0.17574 0.0
C4604 C 0.10989 0.5212 0.1433 0.0
C4605 C 0.11654 0.53175 0.13026 0.0
C4606 C 0.09167 0.51296 0.14145 0.0
C4607 C 0.08388 0.50224 0.15544 0.0
C4608 C 0.09179 0.48865 0.16149 0.0
C4609 C 0.0852 0.47962 0.1757 0.0
C4610 C 0.07057 0.48391 0.18385 0.0
C4611 C 0.06241 0.49716 0.17771 0.0
C4612 C 0.06898 0.50627 0.16356 0.0
C4613 C 0.06577 0.51361 0.06495 0.0
C4614 C 0.05164 0.52266 0.06523 0.0
C4615 C 0.07794 0.51551 0.08061 0.0
C4616 C 0.07583 0.52619 0.09658 0.0
C4617 C 0.06181 0.53524 0.09703 0.0
C4618 C 0.04979 0.53363 0.08126 0.0
C4619 C 0.08729 0.52615 0.11336 0.0
C4620 C 0.08055 0.5155 0.12624 0.0
C4621 C 0.10524 0.53461 0.1154 0.0
C4622 C 0.11218 0.54753 0.1032 0.0
C4623 C 0.10634 0.56357 0.10369 0.0
C4624 C 0.11422 0.57663 0.09373 0.0
C4625 C 0.12769 0.5736 0.08291 0.0
C4626 C 0.13333 0.55753 0.08208 0.0
C4627 C 0.12572 0.54457 0.09232 0.0
H4628 H 0.13368 0.58367 0.07509 0.0
H4629 H 0.06555 0.47697 0.19491 0.0
H4630 H 0.79496 0.83879 0.48139 0.0
H4631 H 0.79506 0.82187 0.45083 0.0
H4632 H 0.76624 0.85693 0.42469 0.0
H4633 H 0.76603 0.87367 0.45481 0.0
H4634 H 0.7521 0.824 0.41179 0.0
H4635 H 0.80945 0.86065 0.42267 0.0
H4636 H 0.83897 0.8736 0.43985 0.0
H4637 H 0.8535 0.82292 0.43478 0.0
H4638 H 0.82388 0.80957 0.41785 0.0
H4639 H 0.76387 0.81128 0.31641 0.0
H4640 H 0.76428 0.82304 0.34883 0.0
H4641 H 0.79316 0.78399 0.36604 0.0
H4642 H 0.79307 0.77225 0.33341 0.0
H4643 H 0.80737 0.81577 0.38507 0.0
H4644 H 0.7454 0.78211 0.36952 0.0
H4645 H 0.71494 0.77499 0.35279 0.0
H4646 H 0.70966 0.82873 0.3651 0.0
H4647 H 0.7401 0.83621 0.38162 0.0
C4648 C 0.78855 0.84277 0.46911 0.0
C4649 C 0.78053 0.85759 0.47051 0.0
C4650 C 0.78873 0.83318 0.45167 0.0
C4651 C 0.78075 0.83821 0.43547 0.0
C4652 C 0.77248 0.85279 0.43698 0.0
C4653 C 0.77242 0.8624 0.45424 0.0
C4654 C 0.78066 0.82839 0.41678 0.0
C4655 C 0.7642 0.82222 0.40592 0.0
C4656 C 0.79645 0.8261 0.40916 0.0
C4657 C 0.81432 0.83404 0.41925 0.0
C4658 C 0.81885 0.85221 0.4254 0.0
C4659 C 0.83562 0.85964 0.43506 0.0
C4660 C 0.84808 0.84907 0.43848 0.0
C4661 C 0.84381 0.83107 0.43218 0.0
C4662 C 0.82702 0.82356 0.42255 0.0
C4663 C 0.77031 0.80511 0.32703 0.0
C4664 C 0.77851 0.79081 0.3222 0.0
C4665 C 0.77039 0.81179 0.34566 0.0
C4666 C 0.77845 0.80423 0.36001 0.0
C4667 C 0.78675 0.79 0.35526 0.0
C4668 C 0.78671 0.7833 0.33656 0.0
C4669 C 0.7787 0.81156 0.37986 0.0
C4670 C 0.79524 0.81724 0.39101 0.0
C4671 C 0.76299 0.81428 0.3875 0.0
C4672 C 0.74506 0.80972 0.37668 0.0
C4673 C 0.73781 0.79243 0.36846 0.0
C4674 C 0.72052 0.78833 0.35906 0.0
C4675 C 0.71041 0.80144 0.35791 0.0
C4676 C 0.71753 0.81863 0.36601 0.0
C4677 C 0.73477 0.82278 0.37536 0.0
H4678 H 0.69703 0.79842 0.3508 0.0
H4679 H 0.86106 0.85485 0.44596 0.0
H4680 H 0.47704 0.5261 0.80928 0.0
H4681 H 0.48737 0.52888 0.8425 0.0
H4682 H 0.43478 0.50415 0.8527 0.0
H4683 H 0.42417 0.50256 0.81957 0.0
H4684 H 0.44853 0.52774 0.88058 0.0
H4685 H 0.47023 0.48055 0.84784 0.0
H4686 H 0.48521 0.46819 0.82251 0.0
H4687 H 0.53368 0.50509 0.84297 0.0
H4688 H 0.51893 0.51778 0.86834 0.0
H4689 H 0.47617 0.50678 0.96944 0.0
H4690 H 0.46418 0.5049 0.93674 0.0
H4691 H 0.51679 0.52598 0.92343 0.0
H4692 H 0.5289 0.52643 0.95591 0.0
H4693 H 0.50235 0.50328 0.89672 0.0
H4694 H 0.47966 0.55294 0.92568 0.0
H4695 H 0.46363 0.5686 0.94735 0.0
H4696 H 0.41718 0.52755 0.93383 0.0
H4697 H 0.43266 0.51211 0.91096 0.0
C4698 C 0.46766 0.52154 0.81872 0.0
C4699 C 0.44988 0.51402 0.81197 0.0
C4700 C 0.47358 0.52297 0.83766 0.0
C4701 C 0.46204 0.51615 0.85008 0.0
C4702 C 0.44401 0.50937 0.84342 0.0
C4703 C 0.43794 0.50846 0.82452 0.0
C4704 C 0.46892 0.51541 0.86977 0.0
C4705 C 0.46014 0.52213 0.88408 0.0
C4706 C 0.48426 0.50839 0.87447 0.0
C4707 C 0.49348 0.50011 0.85997 0.0
C4708 C 0.48411 0.48598 0.84697 0.0
C4709 C 0.49254 0.47894 0.83258 0.0
C4710 C 0.51038 0.48585 0.83113 0.0
C4711 C 0.51987 0.49973 0.84414 0.0
C4712 C 0.5115 0.50682 0.85856 0.0
C4713 C 0.4851 0.51097 0.95945 0.0
C4714 C 0.50337 0.51691 0.9651 0.0
C4715 C 0.47824 0.51009 0.94077 0.0
C4716 C 0.48941 0.51583 0.92751 0.0
C4717 C 0.50779 0.52152 0.93325 0.0
C4718 C 0.51473 0.52184 0.95182 0.0
C4719 C 0.48205 0.51581 0.90769 0.0
C4720 C 0.4907 0.50883 0.89329 0.0
C4721 C 0.46653 0.52251 0.90285 0.0
C4722 C 0.45738 0.53129 0.91692 0.0
C4723 C 0.46608 0.54719 0.92746 0.0
C4724 C 0.45707 0.55604 0.93995 0.0
C4725 C 0.43954 0.54891 0.94245 0.0
C4726 C 0.43082 0.53302 0.93205 0.0
C4727 C 0.43962 0.5243 0.91914 0.0
H4728 H 0.43266 0.55581 0.95224 0.0
H4729 H 0.51686 0.48045 0.81993 0.0
H4730 H 0.78602 0.1428 0.10531 0.0
H4731 H 0.79143 0.16676 0.13115 0.0
H4732 H 0.73829 0.17615 0.11764 0.0
H4733 H 0.73297 0.15219 0.09165 0.0
H4734 H 0.76541 0.20662 0.1238 0.0
H4735 H 0.74465 0.15439 0.15101 0.0
H4736 H 0.74487 0.12406 0.15727 0.0
H4737 H 0.79797 0.14042 0.18561 0.0
H4738 H 0.79827 0.1708 0.17905 0.0
H4739 H 0.74868 0.25135 0.20719 0.0
H4740 H 0.74913 0.23202 0.17859 0.0
H4741 H 0.8013 0.22392 0.19896 0.0
H4742 H 0.80066 0.24279 0.22784 0.0
H4743 H 0.77747 0.19397 0.18861 0.0
H4744 H 0.79762 0.24692 0.16183 0.0
H4745 H 0.79658 0.27707 0.1553 0.0
H4746 H 0.74321 0.25958 0.12798 0.0
H4747 H 0.74403 0.22925 0.13408 0.0
C4748 C 0.77544 0.14976 0.10831 0.0
C4749 C 0.75895 0.14561 0.09733 0.0
C4750 C 0.77857 0.16345 0.12272 0.0
C4751 C 0.76518 0.17293 0.12606 0.0
C4752 C 0.74865 0.16878 0.11505 0.0
C4753 C 0.74552 0.15503 0.10062 0.0
C4754 C 0.76824 0.18678 0.14164 0.0
C4755 C 0.76797 0.20395 0.13801 0.0
C4756 C 0.77189 0.18301 0.15993 0.0
C4757 C 0.77157 0.16484 0.16432 0.0
C4758 C 0.75645 0.1515 0.15842 0.0
C4759 C 0.75648 0.1343 0.16202 0.0
C4760 C 0.77145 0.13031 0.17178 0.0
C4761 C 0.78641 0.14353 0.178 0.0
C4762 C 0.78649 0.16074 0.17433 0.0
C4763 C 0.76031 0.24562 0.20533 0.0
C4764 C 0.77459 0.24829 0.21942 0.0
C4765 C 0.76063 0.23479 0.18907 0.0
C4766 C 0.77542 0.22698 0.18677 0.0
C4767 C 0.78992 0.23008 0.20065 0.0
C4768 C 0.78948 0.24067 0.21704 0.0
C4769 C 0.77469 0.2139 0.17084 0.0
C4770 C 0.77529 0.19676 0.17439 0.0
C4771 C 0.77124 0.21771 0.15254 0.0
C4772 C 0.77088 0.23584 0.14841 0.0
C4773 C 0.78566 0.24951 0.15443 0.0
C4774 C 0.78512 0.26663 0.15081 0.0
C4775 C 0.76981 0.27026 0.14135 0.0
C4776 C 0.75507 0.25674 0.1353 0.0
C4777 C 0.75561 0.23957 0.13872 0.0
H4778 H 0.76938 0.28354 0.13865 0.0
H4779 H 0.77145 0.11698 0.17456 0.0
H4780 H 0.11078 0.54581 0.28695 0.0
H4781 H 0.10196 0.54222 0.31757 0.0
H4782 H 0.15456 0.53475 0.33688 0.0
H4783 H 0.1636 0.53797 0.30586 0.0
H4784 H 0.12262 0.50949 0.34589 0.0
H4785 H 0.14829 0.57128 0.3532 0.0
H4786 H 0.15411 0.59944 0.34034 0.0
H4787 H 0.09799 0.59926 0.33296 0.0
H4788 H 0.09181 0.57105 0.3456 0.0
H4789 H 0.08293 0.53554 0.43222 0.0
H4790 H 0.10146 0.52508 0.40978 0.0
H4791 H 0.06437 0.53325 0.36484 0.0
H4792 H 0.04583 0.54395 0.38723 0.0
H4793 H 0.09889 0.55885 0.37642 0.0
H4794 H 0.07217 0.49691 0.36145 0.0
H4795 H 0.0634 0.46625 0.36751 0.0
H4796 H 0.11809 0.46486 0.3846 0.0
H4797 H 0.12716 0.49563 0.37896 0.0
C4798 C 0.12056 0.54355 0.29768 0.0
C4799 C 0.13787 0.54229 0.29413 0.0
C4800 C 0.11548 0.54141 0.31509 0.0
C4801 C 0.12774 0.53837 0.32927 0.0
C4802 C 0.14506 0.53709 0.32593 0.0
C4803 C 0.15015 0.53906 0.30834 0.0
C4804 C 0.12195 0.53708 0.34758 0.0
C4805 C 0.11792 0.52033 0.35315 0.0
C4806 C 0.11584 0.55134 0.35661 0.0
C4807 C 0.11961 0.5691 0.35054 0.0
C4808 C 0.1372 0.57732 0.34898 0.0
C4809 C 0.14056 0.59326 0.34166 0.0
C4810 C 0.12643 0.60115 0.33588 0.0
C4811 C 0.10893 0.59318 0.33754 0.0
C4812 C 0.1055 0.57726 0.34487 0.0
C4813 C 0.07827 0.53427 0.41753 0.0
C4814 C 0.0633 0.54097 0.41128 0.0
C4815 C 0.0888 0.52815 0.40478 0.0
C4816 C 0.08427 0.52867 0.38585 0.0
C4817 C 0.06793 0.53282 0.37952 0.0
C4818 C 0.05751 0.53912 0.39224 0.0
C4819 C 0.09846 0.53095 0.37389 0.0
C4820 C 0.10424 0.54809 0.36987 0.0
C4821 C 0.10587 0.51699 0.36617 0.0
C4822 C 0.1003 0.49871 0.37017 0.0
C4823 C 0.08229 0.49019 0.36685 0.0
C4824 C 0.07728 0.47275 0.3701 0.0
C4825 C 0.09017 0.46364 0.37654 0.0
C4826 C 0.10811 0.47195 0.3797 0.0
C4827 C 0.11319 0.48939 0.37649 0.0
H4828 H 0.08626 0.45013 0.37901 0.0
H4829 H 0.12904 0.61342 0.33009 0.0
H4830 H 0.77929 0.826 0.57215 0.0
H4831 H 0.7752 0.81321 0.60105 0.0
H4832 H 0.78129 0.86517 0.63116 0.0
H4833 H 0.78596 0.87799 0.60259 0.0
H4834 H 0.79993 0.8467 0.64951 0.0
H4835 H 0.73949 0.83692 0.62039 0.0
H4836 H 0.71524 0.82646 0.59466 0.0
H4837 H 0.72361 0.77363 0.59514 0.0
H4838 H 0.74801 0.78381 0.62078 0.0
H4839 H 0.76167 0.8157 0.73075 0.0
H4840 H 0.76366 0.8295 0.70214 0.0
H4841 H 0.77977 0.78406 0.67503 0.0
H4842 H 0.77868 0.77052 0.70357 0.0
H4843 H 0.74853 0.79984 0.65584 0.0
H4844 H 0.81178 0.81036 0.67971 0.0
H4845 H 0.83948 0.82134 0.70109 0.0
H4846 H 0.82633 0.87256 0.70899 0.0
H4847 H 0.79864 0.86189 0.68747 0.0
C4848 C 0.77983 0.83466 0.58496 0.0
C4849 C 0.78301 0.85298 0.58513 0.0
C4850 C 0.77732 0.82735 0.60142 0.0
C4851 C 0.77763 0.83823 0.61821 0.0
C4852 C 0.78096 0.85652 0.61837 0.0
C4853 C 0.78369 0.86382 0.60203 0.0
C4854 C 0.77524 0.8307 0.63582 0.0
C4855 C 0.78848 0.8367 0.65096 0.0
C4856 C 0.76053 0.81736 0.63761 0.0
C4857 C 0.74565 0.81115 0.62243 0.0
C4858 C 0.73621 0.82308 0.61495 0.0
C4859 C 0.72242 0.8172 0.6004 0.0
C4860 C 0.71791 0.7994 0.59325 0.0
C4861 C 0.72712 0.78742 0.60069 0.0
C4862 C 0.7409 0.79323 0.61527 0.0
C4863 C 0.76558 0.80861 0.71869 0.0
C4864 C 0.76985 0.79192 0.71945 0.0
C4865 C 0.76675 0.81653 0.70241 0.0
C4866 C 0.77187 0.80774 0.68659 0.0
C4867 C 0.77576 0.79098 0.68714 0.0
C4868 C 0.77499 0.78324 0.70346 0.0
C4869 C 0.7732 0.81596 0.66937 0.0
C4870 C 0.75977 0.81006 0.65437 0.0
C4871 C 0.78772 0.82941 0.66763 0.0
C4872 C 0.80305 0.83527 0.68226 0.0
C4873 C 0.81466 0.82388 0.68627 0.0
C4874 C 0.83047 0.8301 0.69819 0.0
C4875 C 0.83472 0.84767 0.7063 0.0
C4876 C 0.82306 0.85898 0.70266 0.0
C4877 C 0.80733 0.85286 0.69058 0.0
H4878 H 0.84696 0.85246 0.71553 0.0
H4879 H 0.70726 0.79488 0.58196 0.0
H4880 H 0.7229 0.41628 0.51535 0.0
H4881 H 0.69662 0.42984 0.51262 0.0
H4882 H 0.72415 0.46855 0.4819 0.0
H4883 H 0.75052 0.45574 0.48546 0.0
H4884 H 0.71202 0.48196 0.51355 0.0
H4885 H 0.68891 0.43972 0.45867 0.0
H4886 H 0.68535 0.40888 0.44458 0.0
H4887 H 0.65235 0.39206 0.4861 0.0
H4888 H 0.65579 0.42283 0.50048 0.0
H4889 H 0.64149 0.52434 0.52374 0.0
H4890 H 0.6602 0.51016 0.50374 0.0
H4891 H 0.64126 0.4607 0.52354 0.0
H4892 H 0.62243 0.47479 0.54286 0.0
H4893 H 0.64928 0.45453 0.48965 0.0
H4894 H 0.67487 0.49095 0.5473 0.0
H4895 H 0.6846 0.51762 0.57007 0.0
H4896 H 0.71762 0.54163 0.53193 0.0
H4897 H 0.70766 0.51527 0.5087 0.0
C4898 C 0.72311 0.42752 0.50781 0.0
C4899 C 0.73856 0.43523 0.50082 0.0
C4900 C 0.70818 0.43509 0.50609 0.0
C4901 C 0.70863 0.44997 0.49685 0.0
C4902 C 0.72375 0.45701 0.48898 0.0
C4903 C 0.73874 0.44975 0.49111 0.0
C4904 C 0.69426 0.45964 0.49759 0.0
C4905 C 0.69833 0.47637 0.50776 0.0
C4906 C 0.6766 0.4517 0.49059 0.0
C4907 C 0.67237 0.43359 0.48047 0.0
C4908 C 0.68062 0.42947 0.46458 0.0
C4909 C 0.67874 0.412 0.45662 0.0
C4910 C 0.66857 0.39853 0.4644 0.0
C4911 C 0.6601 0.40253 0.48001 0.0
C4912 C 0.66192 0.41999 0.48801 0.0
C4913 C 0.64122 0.51039 0.52344 0.0
C4914 C 0.63138 0.50061 0.53532 0.0
C4915 C 0.65165 0.50231 0.51195 0.0
C4916 C 0.6523 0.48452 0.51254 0.0
C4917 C 0.641 0.47447 0.523 0.0
C4918 C 0.6306 0.48253 0.53436 0.0
C4919 C 0.66697 0.47718 0.50563 0.0
C4920 C 0.66302 0.4607 0.49452 0.0
C4921 C 0.68488 0.4851 0.51239 0.0
C4922 C 0.69008 0.50133 0.52602 0.0
C4923 C 0.68389 0.50205 0.5436 0.0
C4924 C 0.68951 0.5171 0.55663 0.0
C4925 C 0.70161 0.53137 0.5524 0.0
C4926 C 0.70812 0.53063 0.53512 0.0
C4927 C 0.70242 0.51568 0.52199 0.0
H4928 H 0.70604 0.54296 0.56254 0.0
H4929 H 0.6673 0.38499 0.45835 0.0
H4930 H 0.19237 0.1558 0.49476 0.0
H4931 H 0.16357 0.13701 0.49711 0.0
H4932 H 0.19026 0.09469 0.50875 0.0
H4933 H 0.2188 0.11307 0.50583 0.0
H4934 H 0.16243 0.08252 0.48468 0.0
H4935 H 0.17408 0.11902 0.54339 0.0
H4936 H 0.18173 0.14701 0.56442 0.0
H4937 H 0.13466 0.16258 0.54075 0.0
H4938 H 0.12684 0.13476 0.51941 0.0
H4939 H 0.08936 0.03262 0.52448 0.0
H4940 H 0.11828 0.05074 0.52171 0.0
H4941 H 0.09207 0.08549 0.49205 0.0
H4942 H 0.06319 0.06685 0.49349 0.0
H4943 H 0.11954 0.10099 0.52581 0.0
H4944 H 0.10877 0.0629 0.4669 0.0
H4945 H 0.10231 0.03432 0.44694 0.0
H4946 H 0.1495 0.02089 0.4732 0.0
H4947 H 0.15602 0.04924 0.49364 0.0
C4948 C 0.19203 0.14249 0.49781 0.0
C4949 C 0.20778 0.13589 0.50008 0.0
C4950 C 0.17563 0.13181 0.49925 0.0
C4951 C 0.17482 0.1145 0.5033 0.0
C4952 C 0.19056 0.10796 0.50557 0.0
C4953 C 0.20687 0.11851 0.50392 0.0
C4954 C 0.15757 0.103 0.50481 0.0
C4955 C 0.15317 0.08649 0.49386 0.0
C4956 C 0.14544 0.10823 0.51668 0.0
C4957 C 0.14996 0.12487 0.52968 0.0
C4958 C 0.16542 0.12846 0.54259 0.0
C4959 C 0.16977 0.14428 0.55458 0.0
C4960 C 0.15871 0.15658 0.55389 0.0
C4961 C 0.14322 0.15305 0.54125 0.0
C4962 C 0.13881 0.13724 0.52923 0.0
C4963 C 0.08972 0.04371 0.51675 0.0
C4964 C 0.07393 0.04792 0.5087 0.0
C4965 C 0.10625 0.0542 0.51548 0.0
C4966 C 0.10718 0.06934 0.50664 0.0
C4967 C 0.09152 0.07379 0.49887 0.0
C4968 C 0.07506 0.06306 0.49967 0.0
C4969 C 0.12451 0.0807 0.50561 0.0
C4970 C 0.1289 0.0971 0.5167 0.0
C4971 C 0.13678 0.07525 0.49412 0.0
C4972 C 0.13272 0.05809 0.48201 0.0
C4973 C 0.11762 0.05374 0.46863 0.0
C4974 C 0.11398 0.0376 0.45718 0.0
C4975 C 0.12544 0.02576 0.45886 0.0
C4976 C 0.14059 0.03004 0.47197 0.0
C4977 C 0.14425 0.04614 0.4835 0.0
H4978 H 0.12262 0.01329 0.44995 0.0
H4979 H 0.16212 0.16884 0.56316 0.0
H4980 H 0.17901 0.99647 0.76228 0.0
H4981 H 0.19282 0.97062 0.76019 0.0
H4982 H 0.15508 0.94548 0.79381 0.0
H4983 H 0.1409 0.97127 0.79566 0.0
H4984 H 0.19166 0.94361 0.80463 0.0
H4985 H 0.14847 0.93076 0.75096 0.0
H4986 H 0.13194 0.93602 0.72208 0.0
H4987 H 0.18025 0.94346 0.69635 0.0
H4988 H 0.19714 0.93851 0.72516 0.0
H4989 H 0.21565 0.85817 0.77097 0.0
H4990 H 0.20047 0.88158 0.78281 0.0
H4991 H 0.23411 0.91861 0.75529 0.0
H4992 H 0.24927 0.89548 0.74367 0.0
H4993 H 0.1956 0.91128 0.7431 0.0
H4994 H 0.23906 0.92688 0.79759 0.0
H4995 H 0.25584 0.92247 0.82667 0.0
H4996 H 0.20701 0.90995 0.85081 0.0
H4997 H 0.18989 0.91404 0.82174 0.0
C4998 C 0.1737 0.98548 0.7693 0.0
C4999 C 0.15891 0.98587 0.77915 0.0
C5000 C 0.18153 0.9707 0.76802 0.0
C5001 C 0.17487 0.95614 0.77675 0.0
C5002 C 0.16034 0.9566 0.78694 0.0
C5003 C 0.15227 0.97129 0.78795 0.0
C5004 C 0.18332 0.94057 0.77518 0.0
C5005 C 0.19225 0.93625 0.79124 0.0
C5006 C 0.18419 0.9312 0.75765 0.0
C5007 C 0.17412 0.93443 0.74033 0.0
C5008 C 0.15562 0.93371 0.73922 0.0
C5009 C 0.14617 0.93659 0.72284 0.0
C5010 C 0.15505 0.94012 0.70741 0.0
C5011 C 0.1734 0.94075 0.70833 0.0
C5012 C 0.18291 0.93789 0.72468 0.0
C5013 C 0.22025 0.87149 0.76817 0.0
C5014 C 0.23351 0.87509 0.75635 0.0
C5015 C 0.21155 0.8848 0.77485 0.0
C5016 C 0.2161 0.90174 0.76975 0.0
C5017 C 0.2304 0.90561 0.75933 0.0
C5018 C 0.23908 0.89242 0.75276 0.0
C5019 C 0.20443 0.91467 0.77247 0.0
C5020 C 0.1948 0.91842 0.75654 0.0
C5021 C 0.20295 0.92347 0.79009 0.0
C5022 C 0.21316 0.92042 0.80734 0.0
C5023 C 0.23186 0.92288 0.80897 0.0
C5024 C 0.24145 0.92053 0.8255 0.0
C5025 C 0.23249 0.91583 0.84055 0.0
C5026 C 0.21393 0.91351 0.83912 0.0
C5027 C 0.20428 0.91584 0.82261 0.0
H5028 H 0.23994 0.91406 0.85335 0.0
H5029 H 0.14771 0.94232 0.69474 0.0
H5030 H 0.33656 0.97675 0.01137 0.0
H5031 H 0.36864 0.98261 0.02098 0.0
H5032 H 0.37389 0.93771 0.98308 0.0
H5033 H 0.34144 0.93121 0.97422 0.0
H5034 H 0.39739 0.94436 0.01843 0.0
H5035 H 0.37981 0.97186 0.96605 0.0
H5036 H 0.3581 0.98658 0.95021 0.0
H5037 H 0.37241 0.03092 0.99292 0.0
H5038 H 0.39386 0.01622 0.00933 0.0
H5039 H 0.48449 0.98423 0.00152 0.0
H5040 H 0.45491 0.96765 0.00341 0.0
H5041 H 0.44277 0.01242 0.03653 0.0
H5042 H 0.47269 0.02915 0.03448 0.0
H5043 H 0.42314 0.00303 0.00186 0.0
H5044 H 0.43727 0.9727 0.05567 0.0
H5045 H 0.45652 0.95624 0.07256 0.0
H5046 H 0.45029 0.91743 0.02452 0.0
H5047 H 0.43039 0.93342 0.00758 0.0
C5048 C 0.34468 0.96838 0.00494 0.0
C5049 C 0.33711 0.95415 0.99152 0.0
C5050 C 0.36273 0.97138 0.01075 0.0
C5051 C 0.37331 0.96058 0.00254 0.0
C5052 C 0.3657 0.94601 0.98949 0.0
C5053 C 0.34748 0.94269 0.98409 0.0
C5054 C 0.39243 0.96667 0.00521 0.0
C5055 C 0.40317 0.95705 0.01466 0.0
C5056 C 0.39964 0.9831 -6e-05 0.0
C5057 C 0.38847 0.99293 0.98893 0.0
C5058 C 0.37842 0.9848 0.97201 0.0
C5059 C 0.36607 0.99309 0.96299 0.0
C5060 C 0.36387 0.00968 0.97056 0.0
C5061 C 0.37415 0.01807 0.98707 0.0
C5062 C 0.38643 0.00978 0.99623 0.0
C5063 C 0.47585 0.9901 0.01009 0.0
C5064 C 0.48053 0.00764 0.0181 0.0
C5065 C 0.45901 0.98067 0.01119 0.0
C5066 C 0.4469 0.98889 0.02021 0.0
C5067 C 0.45219 0.00597 0.0297 0.0
C5068 C 0.4691 0.01543 0.02856 0.0
C5069 C 0.42807 0.98119 0.01607 0.0
C5070 C 0.41743 0.99036 0.00576 0.0
C5071 C 0.42113 0.96423 0.02012 0.0
C5072 C 0.43234 0.95417 0.03046 0.0
C5073 C 0.43993 0.96059 0.04879 0.0
C5074 C 0.45097 0.95136 0.05835 0.0
C5075 C 0.45479 0.93586 0.04958 0.0
C5076 C 0.44731 0.92942 0.03131 0.0
C5077 C 0.43599 0.93846 0.02179 0.0
H5078 H 0.4635 0.92883 0.05697 0.0
H5079 H 0.35421 0.01602 0.96363 0.0
H5080 H 0.83982 0.54983 0.76938 0.0
H5081 H 0.83614 0.57945 0.76496 0.0
H5082 H 0.85518 0.59739 0.82283 0.0
H5083 H 0.85964 0.56761 0.82722 0.0
H5084 H 0.81954 0.60185 0.80647 0.0
H5085 H 0.88146 0.61232 0.79522 0.0
H5086 H 0.90713 0.60539 0.78006 0.0
H5087 H 0.87967 0.60776 0.72653 0.0
H5088 H 0.85374 0.61439 0.74126 0.0
H5089 H 0.78757 0.67335 0.77446 0.0
H5090 H 0.80628 0.65735 0.79197 0.0
H5091 H 0.82248 0.63559 0.74063 0.0
H5092 H 0.80567 0.65316 0.72343 0.0
H5093 H 0.84824 0.63979 0.76328 0.0
H5094 H 0.7867 0.61614 0.76535 0.0
H5095 H 0.75562 0.61183 0.77246 0.0
H5096 H 0.77374 0.62052 0.83095 0.0
H5097 H 0.80496 0.62546 0.82421 0.0
C5098 C 0.84283 0.56 0.78127 0.0
C5099 C 0.84955 0.55656 0.79876 0.0
C5100 C 0.84124 0.57693 0.77859 0.0
C5101 C 0.846 0.59048 0.79346 0.0
C5102 C 0.85199 0.587 0.81117 0.0
C5103 C 0.85407 0.57008 0.81375 0.0
C5104 C 0.8417 0.60748 0.79086 0.0
C5105 C 0.82601 0.61063 0.79749 0.0
C5106 C 0.84988 0.61792 0.77828 0.0
C5107 C 0.86561 0.61391 0.76943 0.0
C5108 C 0.88083 0.61126 0.78022 0.0
C5109 C 0.89545 0.60739 0.77168 0.0
C5110 C 0.89504 0.60615 0.75235 0.0
C5111 C 0.88 0.60876 0.7415 0.0
C5112 C 0.86535 0.61261 0.74996 0.0
C5113 C 0.79551 0.66554 0.76695 0.0
C5114 C 0.79493 0.66436 0.74746 0.0
C5115 C 0.80601 0.6562 0.77699 0.0
C5116 C 0.81552 0.645 0.76763 0.0
C5117 C 0.81529 0.64416 0.74825 0.0
C5118 C 0.80533 0.65394 0.73832 0.0
C5119 C 0.82502 0.63336 0.77759 0.0
C5120 C 0.84188 0.63146 0.77268 0.0
C5121 C 0.81695 0.62275 0.79025 0.0
C5122 C 0.79822 0.62173 0.79426 0.0
C5123 C 0.78409 0.61765 0.77973 0.0
C5124 C 0.76643 0.61498 0.7837 0.0
C5125 C 0.76271 0.61604 0.80214 0.0
C5126 C 0.77664 0.61988 0.81667 0.0
C5127 C 0.79431 0.62274 0.81278 0.0
H5128 H 0.74902 0.61377 0.80518 0.0
H5129 H 0.90637 0.60317 0.74578 0.0
H5130 H 0.81915 0.65412 -0.00126 0.0
H5131 H 0.84756 0.6439 -0.00225 0.0
H5132 H 0.82508 0.59735 0.02078 0.0
H5133 H 0.79717 0.60731 0.02199 0.0
H5134 H 0.85634 0.61567 0.04047 0.0
H5135 H 0.83052 0.59585 0.97635 0.0
H5136 H 0.81944 0.60005 0.94461 0.0
H5137 H 0.87057 0.63053 0.93852 0.0
H5138 H 0.88187 0.62681 0.97041 0.0
H5139 H 0.89984 0.54756 0.03603 0.0
H5140 H 0.87768 0.56398 0.02492 0.0
H5141 H 0.91938 0.60271 0.00929 0.0
H5142 H 0.94167 0.58604 0.02024 0.0
H5143 H 0.88433 0.5959 0.9854 0.0
H5144 H 0.91022 0.61076 0.04988 0.0
H5145 H 0.91937 0.60464 0.08149 0.0
H5146 H 0.8653 0.58102 0.08653 0.0
H5147 H 0.85588 0.58666 0.05483 0.0
C5148 C 0.8203 0.64166 0.00345 0.0
C5149 C 0.80601 0.63165 0.01071 0.0
C5150 C 0.83647 0.63584 0.00281 0.0
C5151 C 0.83837 0.61994 0.0093 0.0
C5152 C 0.8239 0.60973 0.01586 0.0
C5153 C 0.80794 0.6155 0.01659 0.0
C5154 C 0.85553 0.61401 0.01071 0.0
C5155 C 0.86251 0.61141 0.02843 0.0
C5156 C 0.86382 0.60899 0.99501 0.0
C5157 C 0.85695 0.61132 0.97591 0.0
C5158 C 0.83934 0.60367 0.96836 0.0
C5159 C 0.83303 0.60592 0.95031 0.0
C5160 C 0.84427 0.61563 0.93958 0.0
C5161 C 0.86186 0.62308 0.94687 0.0
C5162 C 0.86821 0.62091 0.96494 0.0
C5163 C 0.90415 0.55917 0.02948 0.0
C5164 C 0.92233 0.56565 0.02897 0.0
C5165 C 0.89155 0.56857 0.02324 0.0
C5166 C 0.89701 0.58469 0.01666 0.0
C5167 C 0.91499 0.5903 0.01438 0.0
C5168 C 0.92766 0.58078 0.02055 0.0
C5169 C 0.88429 0.59662 0.01503 0.0
C5170 C 0.87839 0.60054 -0.00257 0.0
C5171 C 0.87662 0.6026 0.03083 0.0
C5172 C 0.88238 0.59905 0.04989 0.0
C5173 C 0.90031 0.60411 0.05764 0.0
C5174 C 0.90554 0.60074 0.0756 0.0
C5175 C 0.89293 0.59243 0.086 0.0
C5176 C 0.87506 0.58745 0.07846 0.0
C5177 C 0.86978 0.59073 0.0605 0.0
H5178 H 0.897 0.58987 0.09991 0.0
H5179 H 0.83937 0.61733 0.9256 0.0
H5180 H 0.17194 0.08233 0.75907 0.0
H5181 H 0.19202 0.11052 0.75888 0.0
H5182 H 0.17524 0.13048 0.8106 0.0
H5183 H 0.15426 0.10256 0.81002 0.0
H5184 H 0.17502 0.15347 0.78825 0.0
H5185 H 0.21891 0.11921 0.80607 0.0
H5186 H 0.23395 0.09392 0.80255 0.0
H5187 H 0.24693 0.10617 0.74885 0.0
H5188 H 0.23184 0.13144 0.752 0.0
H5189 H 0.23919 0.23297 0.80332 0.0
H5190 H 0.22143 0.20413 0.80603 0.0
H5191 H 0.23781 0.18277 0.75469 0.0
H5192 H 0.25628 0.2113 0.75253 0.0
H5193 H 0.23849 0.16048 0.77744 0.0
H5194 H 0.19505 0.19431 0.75891 0.0
H5195 H 0.17928 0.21913 0.76106 0.0
H5196 H 0.16454 0.20739 0.81434 0.0
H5197 H 0.18045 0.18266 0.81263 0.0
C5198 C 0.17285 0.09268 0.77054 0.0
C5199 C 0.16183 0.09037 0.78467 0.0
C5200 C 0.18436 0.10876 0.77049 0.0
C5201 C 0.18542 0.12261 0.7849 0.0
C5202 C 0.1747 0.12003 0.79933 0.0
C5203 C 0.16283 0.10409 0.7991 0.0
C5204 C 0.19681 0.14012 0.78433 0.0
C5205 C 0.18899 0.15503 0.78623 0.0
C5206 C 0.21487 0.14216 0.78099 0.0
C5207 C 0.22415 0.12712 0.77923 0.0
C5208 C 0.22491 0.11645 0.79349 0.0
C5209 C 0.23345 0.10214 0.79156 0.0
C5210 C 0.24136 0.09842 0.77548 0.0
C5211 C 0.2408 0.10906 0.76131 0.0
C5212 C 0.23229 0.1234 0.76317 0.0
C5213 C 0.23907 0.22205 0.79273 0.0
C5214 C 0.24916 0.2243 0.77779 0.0
C5215 C 0.22879 0.20561 0.79417 0.0
C5216 C 0.22798 0.19129 0.78038 0.0
C5217 C 0.23821 0.19356 0.76553 0.0
C5218 C 0.24881 0.20986 0.76433 0.0
C5219 C 0.21674 0.17386 0.7815 0.0
C5220 C 0.22455 0.15895 0.77961 0.0
C5221 C 0.19862 0.17182 0.78468 0.0
C5222 C 0.1891 0.18674 0.78572 0.0
C5223 C 0.18857 0.19711 0.77115 0.0
C5224 C 0.17958 0.21115 0.77228 0.0
C5225 C 0.17095 0.21486 0.78786 0.0
C5226 C 0.17126 0.20452 0.80231 0.0
C5227 C 0.18025 0.19049 0.80126 0.0
H5228 H 0.164 0.22573 0.78871 0.0
H5229 H 0.24793 0.08731 0.774 0.0
H5230 H 0.33629 0.96092 0.27034 0.0
H5231 H 0.31858 0.9318 0.27115 0.0
H5232 H 0.36269 0.91816 0.30403 0.0
H5233 H 0.38083 0.94714 0.30225 0.0
H5234 H 0.35231 0.89682 0.27298 0.0
H5235 H 0.32299 0.92171 0.32164 0.0
H5236 H 0.30708 0.94317 0.33647 0.0
H5237 H 0.2639 0.928 0.29231 0.0
H5238 H 0.27966 0.90666 0.27703 0.0
H5239 H 0.31025 0.81454 0.28782 0.0
H5240 H 0.3251 0.84493 0.28929 0.0
H5241 H 0.2799 0.8556 0.25548 0.0
H5242 H 0.26442 0.82493 0.25493 0.0
H5243 H 0.29001 0.87855 0.28636 0.0
H5244 H 0.3195 0.85402 0.23757 0.0
H5245 H 0.3356 0.83286 0.22252 0.0
H5246 H 0.37849 0.84758 0.26704 0.0
H5247 H 0.3626 0.86872 0.28245 0.0
C5248 C 0.34203 0.95167 0.27785 0.0
C5249 C 0.35979 0.9557 0.28588 0.0
C5250 C 0.33189 0.93528 0.2786 0.0
C5251 C 0.33936 0.92312 0.28788 0.0
C5252 C 0.35684 0.92758 0.29689 0.0
C5253 C 0.36716 0.94385 0.29569 0.0
C5254 C 0.33011 0.90493 0.28515 0.0
C5255 C 0.3388 0.89271 0.27625 0.0
C5256 C 0.31227 0.90005 0.28867 0.0
C5257 C 0.3026 0.91265 0.29811 0.0
C5258 C 0.31016 0.92302 0.31502 0.0
C5259 C 0.30115 0.93516 0.32352 0.0
C5260 C 0.28451 0.93697 0.31532 0.0
C5261 C 0.2768 0.92659 0.29864 0.0
C5262 C 0.28575 0.91445 0.29007 0.0
C5263 C 0.3037 0.82333 0.2804 0.0
C5264 C 0.28648 0.81781 0.27108 0.0
C5265 C 0.31215 0.84056 0.28117 0.0
C5266 C 0.30366 0.85217 0.27209 0.0
C5267 C 0.28655 0.84655 0.26235 0.0
C5268 C 0.27783 0.82927 0.26199 0.0
C5269 C 0.3123 0.87052 0.27437 0.0
C5270 C 0.3035 0.88274 0.28312 0.0
C5271 C 0.33007 0.87547 0.27067 0.0
C5272 C 0.33981 0.86294 0.2612 0.0
C5273 C 0.33233 0.8527 0.24419 0.0
C5274 C 0.34142 0.84069 0.2356 0.0
C5275 C 0.35803 0.83883 0.24384 0.0
C5276 C 0.36562 0.84903 0.26066 0.0
C5277 C 0.3566 0.86107 0.2693 0.0
H5278 H 0.36502 0.8295 0.23718 0.0
H5279 H 0.27758 0.94641 0.3219 0.0
H5280 H 0.52895 0.34521 0.5994 0.0
H5281 H 0.52606 0.37322 0.58846 0.0
H5282 H 0.56105 0.36455 0.54711 0.0
H5283 H 0.56375 0.33622 0.55783 0.0
H5284 H 0.56926 0.3996 0.56626 0.0
H5285 H 0.51743 0.35953 0.53371 0.0
H5286 H 0.49024 0.33673 0.53198 0.0
H5287 H 0.4672 0.37153 0.56784 0.0
H5288 H 0.49436 0.39448 0.56997 0.0
H5289 H 0.5556 0.47314 0.52003 0.0
H5290 H 0.55892 0.44417 0.52817 0.0
H5291 H 0.5123 0.44166 0.55713 0.0
H5292 H 0.50839 0.46997 0.54796 0.0
H5293 H 0.51032 0.41132 0.54337 0.0
H5294 H 0.56011 0.45059 0.57823 0.0
H5295 H 0.58773 0.47311 0.5853 0.0
H5296 H 0.6147 0.44108 0.55069 0.0
H5297 H 0.58713 0.41849 0.54311 0.0
C5298 C 0.53601 0.34915 0.58791 0.0
C5299 C 0.54653 0.3382 0.5795 0.0
C5300 C 0.53431 0.36528 0.58161 0.0
C5301 C 0.54324 0.37122 0.56681 0.0
C5302 C 0.55396 0.36044 0.55852 0.0
C5303 C 0.55543 0.34411 0.56462 0.0
C5304 C 0.5413 0.38858 0.56006 0.0
C5305 C 0.5564 0.40205 0.56095 0.0
C5306 C 0.5245 0.39226 0.55374 0.0
C5307 C 0.50798 0.37867 0.5521 0.0
C5308 C 0.50659 0.36229 0.54129 0.0
C5309 C 0.49119 0.34935 0.54023 0.0
C5310 C 0.47702 0.35267 0.54982 0.0
C5311 C 0.4782 0.36898 0.56043 0.0
C5312 C 0.49358 0.38197 0.56154 0.0
C5313 C 0.54608 0.46643 0.52817 0.0
C5314 C 0.53175 0.4741 0.53333 0.0
C5315 C 0.54805 0.44977 0.53301 0.0
C5316 C 0.53613 0.44042 0.54376 0.0
C5317 C 0.5218 0.44819 0.54885 0.0
C5318 C 0.51958 0.46459 0.54362 0.0
C5319 C 0.53836 0.42267 0.5496 0.0
C5320 C 0.52327 0.40903 0.54857 0.0
C5321 C 0.55516 0.419 0.55626 0.0
C5322 C 0.57152 0.43289 0.56003 0.0
C5323 C 0.57187 0.44843 0.57196 0.0
C5324 C 0.58752 0.46119 0.57609 0.0
C5325 C 0.60297 0.45846 0.56858 0.0
C5326 C 0.60273 0.44312 0.5566 0.0
C5327 C 0.58709 0.43035 0.55235 0.0
H5328 H 0.61514 0.46822 0.57214 0.0
H5329 H 0.46512 0.34262 0.54902 0.0
H5330 H 0.4392 0.7328 0.38843 0.0
H5331 H 0.40979 0.73175 0.37098 0.0
H5332 H 0.4189 0.7884 0.3793 0.0
H5333 H 0.44793 0.78938 0.3966 0.0
H5334 H 0.38533 0.7762 0.38169 0.0
H5335 H 0.42667 0.76518 0.33916 0.0
H5336 H 0.44857 0.75001 0.32516 0.0
H5337 H 0.40896 0.70253 0.31183 0.0
H5338 H 0.38689 0.71734 0.32609 0.0
H5339 H 0.32715 0.79288 0.3056 0.0
H5340 H 0.35386 0.79105 0.32616 0.0
H5341 H 0.33723 0.73469 0.32033 0.0
H5342 H 0.31027 0.73662 0.30011 0.0
H5343 H 0.37365 0.7454 0.31715 0.0
H5344 H 0.3317 0.75927 0.35886 0.0
H5345 H 0.31115 0.77651 0.37245 0.0
H5346 H 0.35376 0.82151 0.38617 0.0
H5347 H 0.37451 0.80466 0.37231 0.0
C5348 C 0.43462 0.74494 0.38698 0.0
C5349 C 0.44579 0.76117 0.39401 0.0
C5350 C 0.41792 0.74438 0.37678 0.0
C5351 C 0.41212 0.76003 0.37348 0.0
C5352 C 0.42292 0.77613 0.38152 0.0
C5353 C 0.43955 0.77668 0.39148 0.0
C5354 C 0.39535 0.75996 0.361 0.0
C5355 C 0.38287 0.76953 0.36755 0.0
C5356 C 0.39194 0.75125 0.34249 0.0
C5357 C 0.40519 0.7423 0.33395 0.0
C5358 C 0.42267 0.75145 0.33343 0.0
C5359 C 0.43511 0.74292 0.32542 0.0
C5360 C 0.43018 0.72529 0.31768 0.0
C5361 C 0.41278 0.71617 0.31789 0.0
C5362 C 0.4003 0.72462 0.32595 0.0
C5363 C 0.32924 0.78012 0.30874 0.0
C5364 C 0.31661 0.76489 0.3014 0.0
C5365 C 0.34447 0.77908 0.32053 0.0
C5366 C 0.34757 0.76273 0.32501 0.0
C5367 C 0.33515 0.74746 0.31721 0.0
C5368 C 0.31972 0.74855 0.30571 0.0
C5369 C 0.36365 0.76158 0.33789 0.0
C5370 C 0.37604 0.75189 0.33136 0.0
C5371 C 0.36718 0.77051 0.3563 0.0
C5372 C 0.35463 0.78073 0.36436 0.0
C5373 C 0.33666 0.7729 0.36458 0.0
C5374 C 0.32498 0.78259 0.37239 0.0
C5375 C 0.33115 0.80009 0.38018 0.0
C5376 C 0.349 0.80795 0.38013 0.0
C5377 C 0.36072 0.79834 0.37229 0.0
H5378 H 0.32209 0.80756 0.38623 0.0
H5379 H 0.43982 0.71872 0.31147 0.0
H5380 H 0.03451 0.72806 0.05906 0.0
H5381 H 0.03012 0.6971 0.04466 0.0
H5382 H 0.05007 0.68274 0.09692 0.0
H5383 H 0.0546 0.71287 0.11103 0.0
H5384 H 0.06555 0.66851 0.0711 0.0
H5385 H 0.00525 0.67288 0.079 0.0
H5386 H 0.97718 0.68372 0.07469 0.0
H5387 H 0.97255 0.66754 0.01586 0.0
H5388 H 0.00078 0.65685 0.01978 0.0
H5389 H 0.03678 0.57518 0.06512 0.0
H5390 H 0.03909 0.60706 0.0729 0.0
H5391 H 0.03062 0.6122 0.01461 0.0
H5392 H 0.02909 0.58038 0.00678 0.0
H5393 H 0.00912 0.63133 0.03924 0.0
H5394 H 0.07065 0.62896 0.03203 0.0
H5395 H 0.09913 0.61909 0.03702 0.0
H5396 H 0.09981 0.63048 0.09616 0.0
H5397 H 0.07161 0.64118 0.09142 0.0
C5398 C 0.03796 0.71829 0.06744 0.0
C5399 C 0.04503 0.7233 0.0863 0.0
C5400 C 0.03533 0.7005 0.05921 0.0
C5401 C 0.03974 0.68732 0.06964 0.0
C5402 C 0.04662 0.69241 0.08838 0.0
C5403 C 0.04919 0.70991 0.0965 0.0
C5404 C 0.03811 0.66832 0.06147 0.0
C5405 C 0.05308 0.66049 0.06426 0.0
C5406 C 0.02206 0.65757 0.05209 0.0
C5407 C 0.00532 0.66436 0.04964 0.0
C5408 C 0.9984 0.67186 0.0651 0.0
C5409 C 0.98242 0.67792 0.06274 0.0
C5410 C 0.97313 0.6764 0.045 0.0
C5411 C 0.9798 0.66878 0.02958 0.0
C5412 C 0.99579 0.66272 0.03187 0.0
C5413 C 0.03551 0.58313 0.05396 0.0
C5414 C 0.03285 0.57524 0.03533 0.0
C5415 C 0.0368 0.60138 0.05841 0.0
C5416 C 0.03494 0.61219 0.04438 0.0
C5417 C 0.03206 0.60426 0.02574 0.0
C5418 C 0.03131 0.58607 0.02126 0.0
C5419 C 0.03646 0.63173 0.04931 0.0
C5420 C 0.02153 0.63955 0.04594 0.0
C5421 C 0.05244 0.64255 0.05838 0.0
C5422 C 0.06897 0.63562 0.06139 0.0
C5423 C 0.07681 0.62921 0.0461 0.0
C5424 C 0.09293 0.62352 0.04889 0.0
C5425 C 0.10114 0.62382 0.06692 0.0
C5426 C 0.09338 0.63013 0.08221 0.0
C5427 C 0.07741 0.63615 0.07948 0.0
H5428 H 0.11359 0.6193 0.06903 0.0
H5429 H 0.96074 0.68107 0.0432 0.0
H5430 H 0.03403 0.25254 0.87667 0.0
H5431 H 0.05986 0.25531 0.85932 0.0
H5432 H 0.09491 0.27044 0.91073 0.0
H5433 H 0.06901 0.2679 0.92822 0.0
H5434 H 0.10546 0.29094 0.88414 0.0
H5435 H 0.08864 0.2289 0.88754 0.0
H5436 H 0.06662 0.2011 0.88379 0.0
H5437 H 0.05704 0.20337 0.82515 0.0
H5438 H 0.07884 0.23135 0.8286 0.0
H5439 H 0.18553 0.28569 0.84836 0.0
H5440 H 0.16045 0.27705 0.86601 0.0
H5441 H 0.12536 0.26103 0.81471 0.0
H5442 H 0.15057 0.26949 0.79708 0.0
H5443 H 0.11454 0.24031 0.84107 0.0
H5444 H 0.13024 0.30153 0.83672 0.0
H5445 H 0.14983 0.33071 0.83955 0.0
H5446 H 0.15923 0.33139 0.89871 0.0
H5447 H 0.14001 0.30201 0.89618 0.0
C5448 C 0.04722 0.25644 0.88433 0.0
C5449 C 0.04943 0.25987 0.90388 0.0
C5450 C 0.06201 0.25798 0.87436 0.0
C5451 C 0.07941 0.26285 0.88368 0.0
C5452 C 0.08165 0.2666 0.9032 0.0
C5453 C 0.06683 0.26506 0.91319 0.0
C5454 C 0.09523 0.26387 0.87308 0.0
C5455 C 0.10761 0.27977 0.875 0.0
C5456 C 0.09776 0.2495 0.86062 0.0
C5457 C 0.08533 0.23225 0.85834 0.0
C5458 C 0.08184 0.22348 0.87384 0.0
C5459 C 0.06937 0.20771 0.87178 0.0
C5460 C 0.06043 0.20049 0.85425 0.0
C5461 C 0.06399 0.20898 0.83873 0.0
C5462 C 0.07643 0.22478 0.84072 0.0
C5463 C 0.17263 0.27954 0.84087 0.0
C5464 C 0.17006 0.27797 0.82135 0.0
C5465 C 0.15822 0.27484 0.85095 0.0
C5466 C 0.14086 0.26871 0.84175 0.0
C5467 C 0.13856 0.26574 0.82219 0.0
C5468 C 0.15301 0.27044 0.81209 0.0
C5469 C 0.12503 0.26733 0.85243 0.0
C5470 C 0.11254 0.25143 0.85039 0.0
C5471 C 0.12225 0.28179 0.86466 0.0
C5472 C 0.13387 0.29945 0.86623 0.0
C5473 C 0.13664 0.30781 0.85031 0.0
C5474 C 0.14766 0.3244 0.85187 0.0
C5475 C 0.15582 0.33287 0.86929 0.0
C5476 C 0.15295 0.32478 0.88521 0.0
C5477 C 0.142 0.30815 0.88373 0.0
H5478 H 0.16432 0.34573 0.87047 0.0
H5479 H 0.05074 0.1883 0.85269 0.0
H5480 H 0.56228 0.74225 0.88576 0.0
H5481 H 0.56045 0.71583 0.90168 0.0
H5482 H 0.50606 0.71789 0.91007 0.0
H5483 H 0.50782 0.74403 0.89388 0.0
H5484 H 0.52735 0.71533 0.94255 0.0
H5485 H 0.51387 0.68601 0.87927 0.0
H5486 H 0.51985 0.6798 0.84678 0.0
H5487 H 0.56875 0.66459 0.86559 0.0
H5488 H 0.5631 0.67083 0.89822 0.0
H5489 H 0.4911 0.63793 0.97486 0.0
H5490 H 0.4997 0.66299 0.9588 0.0
H5491 H 0.54648 0.64385 0.9445 0.0
H5492 H 0.53677 0.61735 0.95928 0.0
H5493 H 0.53421 0.65603 0.91592 0.0
H5494 H 0.54707 0.68367 0.97932 0.0
H5495 H 0.5416 0.69082 0.01187 0.0
H5496 H 0.49532 0.71056 0.99324 0.0
H5497 H 0.50049 0.70351 0.96062 0.0
C5498 C 0.54992 0.73693 0.89092 0.0
C5499 C 0.53521 0.74518 0.88873 0.0
C5500 C 0.54885 0.7218 0.89992 0.0
C5501 C 0.53311 0.71479 0.9071 0.0
C5502 C 0.51836 0.723 0.90469 0.0
C5503 C 0.51935 0.73793 0.89545 0.0
C5504 C 0.53219 0.69964 0.91815 0.0
C5505 C 0.52872 0.70232 0.93668 0.0
C5506 C 0.53473 0.68283 0.91079 0.0
C5507 C 0.53814 0.67904 0.89119 0.0
C5508 C 0.52596 0.68146 0.87648 0.0
C5509 C 0.52927 0.6779 0.85804 0.0
C5510 C 0.54469 0.67185 0.85413 0.0
C5511 C 0.55681 0.66929 0.86865 0.0
C5512 C 0.55355 0.6728 0.88712 0.0
C5513 C 0.50321 0.63885 0.96825 0.0
C5514 C 0.51298 0.62524 0.96814 0.0
C5515 C 0.50838 0.65357 0.95931 0.0
C5516 C 0.52404 0.65583 0.95061 0.0
C5517 C 0.53435 0.64262 0.95108 0.0
C5518 C 0.52889 0.62751 0.95975 0.0
C5519 C 0.5288 0.67152 0.94037 0.0
C5520 C 0.53309 0.66904 0.92198 0.0
C5521 C 0.52722 0.68869 0.94791 0.0
C5522 C 0.52414 0.69299 0.96754 0.0
C5523 C 0.5357 0.68947 0.98218 0.0
C5524 C 0.53266 0.69354 0.00064 0.0
C5525 C 0.51811 0.70112 0.00461 0.0
C5526 C 0.5066 0.70471 0.99015 0.0
C5527 C 0.50961 0.70075 0.97168 0.0
H5528 H 0.51576 0.70421 0.01891 0.0
H5529 H 0.54724 0.6691 0.83984 0.0
H5530 H 0.08059 0.75482 0.67655 0.0
H5531 H 0.11178 0.75728 0.68839 0.0
H5532 H 0.09807 0.75954 0.74449 0.0
H5533 H 0.06654 0.75739 0.73261 0.0
H5534 H 0.12861 0.7826 0.74337 0.0
H5535 H 0.10776 0.7215 0.72102 0.0
H5536 H 0.0932 0.69578 0.69843 0.0
H5537 H 0.13096 0.71052 0.66043 0.0
H5538 H 0.14562 0.73647 0.68269 0.0
H5539 H 0.21356 0.76238 0.77856 0.0
H5540 H 0.18154 0.76114 0.77016 0.0
H5541 H 0.19079 0.76703 0.71359 0.0
H5542 H 0.22277 0.76883 0.72199 0.0
H5543 H 0.16218 0.73921 0.71685 0.0
H5544 H 0.1826 0.80031 0.73829 0.0
H5545 H 0.19679 0.82688 0.7598 0.0
H5546 H 0.16003 0.81275 0.79894 0.0
H5547 H 0.14576 0.7859 0.77776 0.0
C5548 C 0.0841 0.75585 0.69144 0.0
C5549 C 0.07088 0.7558 0.70358 0.0
C5550 C 0.10206 0.75717 0.69822 0.0
C5551 C 0.10746 0.75828 0.71738 0.0
C5552 C 0.09436 0.75862 0.72964 0.0
C5553 C 0.07629 0.75734 0.72282 0.0
C5554 C 0.12673 0.75899 0.72436 0.0
C5555 C 0.13584 0.7729 0.73783 0.0
C5556 C 0.13648 0.74663 0.71689 0.0
C5557 C 0.1277 0.73102 0.70347 0.0
C5558 C 0.11289 0.71933 0.70779 0.0
C5559 C 0.10463 0.70469 0.69506 0.0
C5560 C 0.11113 0.70154 0.678 0.0
C5561 C 0.12593 0.71299 0.67365 0.0
C5562 C 0.13423 0.72765 0.68633 0.0
C5563 C 0.20877 0.76341 0.76432 0.0
C5564 C 0.22081 0.76573 0.75096 0.0
C5565 C 0.19044 0.76281 0.75956 0.0
C5566 C 0.18365 0.7641 0.74123 0.0
C5567 C 0.19562 0.76607 0.72783 0.0
C5568 C 0.21395 0.7671 0.73267 0.0
C5569 C 0.16405 0.76282 0.73577 0.0
C5570 C 0.1549 0.7488 0.72256 0.0
C5571 C 0.15434 0.77509 0.74348 0.0
C5572 C 0.16329 0.7909 0.75655 0.0
C5573 C 0.17771 0.8027 0.75161 0.0
C5574 C 0.18572 0.81787 0.76371 0.0
C5575 C 0.17937 0.82147 0.78077 0.0
C5576 C 0.16497 0.80991 0.78575 0.0
C5577 C 0.15692 0.79471 0.7737 0.0
H5578 H 0.18556 0.83325 0.79009 0.0
H5579 H 0.10472 0.6902 0.66816 0.0
H5580 H 0.01793 0.36054 0.37256 0.0
H5581 H 0.01557 0.3862 0.3938 0.0
H5582 H 0.05695 0.37539 0.43264 0.0
H5583 H 0.05817 0.34868 0.41183 0.0
H5584 H 0.03595 0.38706 0.45216 0.0
H5585 H 0.06215 0.41078 0.40113 0.0
H5586 H 0.06511 0.41482 0.36838 0.0
H5587 H 0.01487 0.43148 0.36335 0.0
H5588 H 0.01153 0.4274 0.39602 0.0
H5589 H 0.04872 0.47467 0.50257 0.0
H5590 H 0.05247 0.44782 0.48357 0.0
H5591 H 0.00462 0.44859 0.44782 0.0
H5592 H 0.0008 0.47526 0.46699 0.0
H5593 H 0.03119 0.44288 0.42746 0.0
H5594 H 0.00631 0.41911 0.47994 0.0
H5595 H 0.00509 0.41552 0.51303 0.0
H5596 H 0.0559 0.39996 0.51574 0.0
H5597 H 0.05759 0.40373 0.48274 0.0
C5598 C 0.02651 0.36361 0.38566 0.0
C5599 C 0.03829 0.35258 0.39043 0.0
C5600 C 0.02532 0.37851 0.3978 0.0
C5601 C 0.03649 0.38341 0.4148 0.0
C5602 C 0.04817 0.3722 0.41968 0.0
C5603 C 0.04892 0.35688 0.40775 0.0
C5604 C 0.03567 0.39993 0.42747 0.0
C5605 C 0.03524 0.39931 0.4467 0.0
C5606 C 0.03451 0.41613 0.42065 0.0
C5607 C 0.03653 0.41866 0.401 0.0
C5608 C 0.05169 0.41522 0.39302 0.0
C5609 C 0.05344 0.41753 0.37447 0.0
C5610 C 0.04017 0.42337 0.36379 0.0
C5611 C 0.02514 0.42696 0.37164 0.0
C5612 C 0.02332 0.42468 0.39018 0.0
C5613 C 0.03896 0.46901 0.49071 0.0
C5614 C 0.02461 0.47723 0.4861 0.0
C5615 C 0.04109 0.45361 0.47984 0.0
C5616 C 0.02884 0.44599 0.46413 0.0
C5617 C 0.01437 0.45416 0.45971 0.0
C5618 C 0.01222 0.4695 0.47062 0.0
C5619 C 0.03125 0.42986 0.45197 0.0
C5620 C 0.03202 0.43061 0.43286 0.0
C5621 C 0.03309 0.41394 0.45897 0.0
C5622 C 0.03216 0.4119 0.4789 0.0
C5623 C 0.01732 0.41511 0.48763 0.0
C5624 C 0.01652 0.413 0.50637 0.0
C5625 C 0.03043 0.40756 0.51649 0.0
C5626 C 0.04516 0.40421 0.5079 0.0
C5627 C 0.04604 0.40632 0.48918 0.0
H5628 H 0.02977 0.4059 0.53098 0.0
H5629 H 0.04155 0.42514 0.34944 0.0
H5630 H 0.46084 0.23422 0.23291 0.0
H5631 H 0.43173 0.23819 0.24122 0.0
H5632 H 0.42451 0.26601 0.19404 0.0
H5633 H 0.45401 0.26238 0.18582 0.0
H5634 H 0.41301 0.28219 0.22307 0.0
H5635 H 0.40158 0.22201 0.195 0.0
H5636 H 0.40657 0.19159 0.19049 0.0
H5637 H 0.39828 0.18617 0.24719 0.0
H5638 H 0.39338 0.21661 0.25207 0.0
H5639 H 0.32156 0.28296 0.23308 0.0
H5640 H 0.35014 0.27978 0.22259 0.0
H5641 H 0.35624 0.24337 0.26212 0.0
H5642 H 0.32678 0.24548 0.27141 0.0
H5643 H 0.36833 0.23155 0.23514 0.0
H5644 H 0.38211 0.29214 0.26437 0.0
H5645 H 0.38015 0.32334 0.27013 0.0
H5646 H 0.38492 0.32866 0.21272 0.0
H5647 H 0.38736 0.29751 0.2067 0.0
C5648 C 0.45312 0.24116 0.22419 0.0
C5649 C 0.45995 0.24789 0.20857 0.0
C5650 C 0.43629 0.24334 0.22894 0.0
C5651 C 0.42551 0.25213 0.21814 0.0
C5652 C 0.43237 0.25909 0.20265 0.0
C5653 C 0.44931 0.25697 0.19791 0.0
C5654 C 0.40732 0.25423 0.22324 0.0
C5655 C 0.40314 0.27106 0.22545 0.0
C5656 C 0.3944 0.2399 0.22686 0.0
C5657 C 0.39725 0.2216 0.22393 0.0
C5658 C 0.40092 0.21435 0.20653 0.0
C5659 C 0.40371 0.1971 0.2039 0.0
C5660 C 0.40278 0.18697 0.21856 0.0
C5661 C 0.399 0.19404 0.23585 0.0
C5662 C 0.39619 0.21127 0.23855 0.0
C5663 C 0.32899 0.27422 0.2395 0.0
C5664 C 0.32176 0.26439 0.25304 0.0
C5665 C 0.34561 0.27259 0.23367 0.0
C5666 C 0.35603 0.26164 0.24175 0.0
C5667 C 0.34876 0.2519 0.25543 0.0
C5668 C 0.33182 0.25309 0.26082 0.0
C5669 C 0.37397 0.25968 0.2355 0.0
C5670 C 0.37811 0.24279 0.23289 0.0
C5671 C 0.38691 0.27401 0.23166 0.0
C5672 C 0.38465 0.29246 0.23505 0.0
C5673 C 0.38254 0.29992 0.25294 0.0
C5674 C 0.3814 0.31762 0.25626 0.0
C5675 C 0.38217 0.32796 0.24177 0.0
C5676 C 0.38423 0.32063 0.22392 0.0
C5677 C 0.38559 0.30298 0.22057 0.0
H5678 H 0.38129 0.34167 0.2444 0.0
H5679 H 0.40496 0.17362 0.2165 0.0
H5680 H 0.59794 0.50703 0.32793 0.0
H5681 H 0.58759 0.50154 0.35803 0.0
H5682 H 0.59676 0.55738 0.3755 0.0
H5683 H 0.60638 0.56291 0.34513 0.0
H5684 H 0.60842 0.53583 0.40355 0.0
H5685 H 0.55856 0.5412 0.36116 0.0
H5686 H 0.53851 0.53432 0.33173 0.0
H5687 H 0.52323 0.48088 0.34211 0.0
H5688 H 0.54359 0.48734 0.37143 0.0
H5689 H 0.55426 0.54837 0.47416 0.0
H5690 H 0.56753 0.54861 0.44512 0.0
H5691 H 0.55051 0.49233 0.43324 0.0
H5692 H 0.53755 0.49192 0.46284 0.0
H5693 H 0.54401 0.5109 0.40253 0.0
H5694 H 0.59234 0.50746 0.44768 0.0
H5695 H 0.61205 0.51594 0.47731 0.0
H5696 H 0.62956 0.56742 0.46232 0.0
H5697 H 0.60975 0.55936 0.43271 0.0
C5698 C 0.59788 0.51809 0.3383 0.0
C5699 C 0.60277 0.53537 0.33428 0.0
C5700 C 0.59201 0.51495 0.35543 0.0
C5701 C 0.59141 0.52907 0.36893 0.0
C5702 C 0.59716 0.54634 0.36525 0.0
C5703 C 0.60252 0.54948 0.34792 0.0
C5704 C 0.58348 0.5259 0.38629 0.0
C5705 C 0.59435 0.53044 0.40338 0.0
C5706 C 0.56516 0.51862 0.38594 0.0
C5707 C 0.55285 0.51468 0.36835 0.0
C5708 C 0.55113 0.52791 0.35705 0.0
C5709 C 0.53967 0.5241 0.34041 0.0
C5710 C 0.52966 0.50715 0.33501 0.0
C5711 C 0.53106 0.49398 0.34628 0.0
C5712 C 0.54258 0.49771 0.36291 0.0
C5713 C 0.55351 0.53599 0.46551 0.0
C5714 C 0.54517 0.52008 0.47095 0.0
C5715 C 0.56104 0.53617 0.44887 0.0
C5716 C 0.56029 0.52046 0.4372 0.0
C5717 C 0.55134 0.50458 0.44215 0.0
C5718 C 0.54389 0.50437 0.45898 0.0
C5719 C 0.56892 0.52091 0.41987 0.0
C5720 C 0.55816 0.51596 0.40274 0.0
C5721 C 0.58732 0.52797 0.42022 0.0
C5722 C 0.59943 0.53283 0.43798 0.0
C5723 C 0.60029 0.52064 0.45074 0.0
C5724 C 0.6115 0.52537 0.46753 0.0
C5725 C 0.62202 0.54222 0.47171 0.0
C5726 C 0.62139 0.55437 0.45907 0.0
C5727 C 0.61019 0.54972 0.44226 0.0
H5728 H 0.63068 0.54585 0.48471 0.0
H5729 H 0.52077 0.50423 0.32214 0.0
H5730 H 0.31161 0.91251 0.06364 0.0
H5731 H 0.3076 0.89941 0.09219 0.0
H5732 H 0.27547 0.85233 0.06042 0.0
H5733 H 0.27923 0.86532 0.03178 0.0
H5734 H 0.26112 0.86445 0.0927 0.0
H5735 H 0.31493 0.85139 0.07219 0.0
H5736 H 0.34402 0.85934 0.06061 0.0
H5737 H 0.36466 0.89239 0.11206 0.0
H5738 H 0.33547 0.88505 0.12376 0.0
H5739 H 0.28356 0.79942 0.14953 0.0
H5740 H 0.27336 0.81759 0.12691 0.0
H5741 H 0.29946 0.86444 0.16351 0.0
H5742 H 0.30951 0.84629 0.18615 0.0
H5743 H 0.31505 0.85444 0.12983 0.0
H5744 H 0.25969 0.86406 0.15057 0.0
H5745 H 0.22983 0.85484 0.16008 0.0
H5746 H 0.21191 0.82478 0.10642 0.0
H5747 H 0.24176 0.83364 0.09662 0.0
C5748 C 0.30389 0.89928 0.06274 0.0
C5749 C 0.29579 0.88983 0.04562 0.0
C5750 C 0.30144 0.89197 0.07899 0.0
C5751 C 0.29107 0.87511 0.07816 0.0
C5752 C 0.28328 0.86549 0.06111 0.0
C5753 C 0.28575 0.87278 0.04484 0.0
C5754 C 0.28967 0.86693 0.09504 0.0
C5755 C 0.27282 0.86213 0.10087 0.0
C5756 C 0.30507 0.8641 0.10539 0.0
C5757 C 0.32293 0.86782 0.09879 0.0
C5758 C 0.32562 0.86044 0.08101 0.0
C5759 C 0.34213 0.86486 0.0744 0.0
C5760 C 0.35617 0.87641 0.08557 0.0
C5761 C 0.35375 0.88348 0.1034 0.0
C5762 C 0.33722 0.87921 0.11003 0.0
C5763 C 0.28651 0.8136 0.15288 0.0
C5764 C 0.2976 0.8217 0.16904 0.0
C5765 C 0.2805 0.82391 0.14019 0.0
C5766 C 0.2858 0.84224 0.14368 0.0
C5767 C 0.29522 0.85028 0.16081 0.0
C5768 C 0.30111 0.83999 0.17351 0.0
C5769 C 0.28648 0.85216 0.12787 0.0
C5770 C 0.30331 0.85704 0.12196 0.0
C5771 C 0.27101 0.85456 0.11725 0.0
C5772 C 0.25302 0.84933 0.12297 0.0
C5773 C 0.24944 0.85535 0.14085 0.0
C5774 C 0.23252 0.85024 0.14627 0.0
C5775 C 0.21908 0.83918 0.13389 0.0
C5776 C 0.2224 0.83332 0.11599 0.0
C5777 C 0.23931 0.8384 0.11049 0.0
H5778 H 0.20612 0.83517 0.13823 0.0
H5779 H 0.36894 0.87984 0.08042 0.0
H5780 H 0.94268 0.504 0.83326 0.0
H5781 H 0.95314 0.50585 0.86611 0.0
H5782 H 0.90279 0.51669 0.88069 0.0
H5783 H 0.89204 0.51493 0.84774 0.0
H5784 H 0.93703 0.54101 0.89825 0.0
H5785 H 0.90748 0.47934 0.8897 0.0
H5786 H 0.89986 0.4499 0.8713 0.0
H5787 H 0.95545 0.44799 0.87278 0.0
H5788 H 0.96337 0.4774 0.89112 0.0
H5789 H 0.98281 0.53912 0.98751 0.0
H5790 H 0.96037 0.53704 0.96127 0.0
H5791 H 0.98902 0.50531 0.92763 0.0
H5792 H 0.01026 0.50535 0.95457 0.0
H5793 H 0.95654 0.49058 0.92424 0.0
H5794 H 0.988 0.55063 0.92427 0.0
H5795 H 0.00012 0.58108 0.93888 0.0
H5796 H 0.94752 0.58796 0.9488 0.0
H5797 H 0.93511 0.55747 0.93442 0.0
C5798 C 0.93379 0.5067 0.8434 0.0
C5799 C 0.91665 0.50946 0.83803 0.0
C5800 C 0.93973 0.50767 0.86206 0.0
C5801 C 0.92854 0.51125 0.87545 0.0
C5802 C 0.9114 0.51387 0.87029 0.0
C5803 C 0.90539 0.51288 0.85156 0.0
C5804 C 0.93552 0.51298 0.89487 0.0
C5805 C 0.94092 0.53002 0.90436 0.0
C5806 C 0.94078 0.49854 0.90217 0.0
C5807 C 0.93598 0.48051 0.89186 0.0
C5808 C 0.91805 0.4726 0.88614 0.0
C5809 C 0.91369 0.45593 0.87571 0.0
C5810 C 0.92716 0.44707 0.8709 0.0
C5811 C 0.94502 0.45482 0.87658 0.0
C5812 C 0.94945 0.47145 0.88707 0.0
C5813 C 0.98427 0.53157 0.97457 0.0
C5814 C 0.998 0.52206 0.97311 0.0
C5815 C 0.97157 0.53064 0.95955 0.0
C5816 C 0.97314 0.52106 0.94264 0.0
C5817 C 0.98756 0.51258 0.94077 0.0
C5818 C -0.00024 0.51276 0.95605 0.0
C5819 C 0.9592 0.51881 0.92711 0.0
C5820 C 0.95226 0.50162 0.91857 0.0
C5821 C 0.95323 0.53323 0.92028 0.0
C5822 C 0.96065 0.55172 0.92844 0.0
C5823 C 0.97903 0.55862 0.92963 0.0
C5824 C 0.98595 0.57588 0.93786 0.0
C5825 C 0.9746 0.58643 0.94481 0.0
C5826 C 0.9563 0.57977 0.94344 0.0
C5827 C 0.94931 0.56251 0.93522 0.0
H5828 H 0.97999 0.59978 0.95122 0.0
H5829 H 0.92376 0.43421 0.86275 0.0
H5830 H 0.24741 0.20526 0.55819 0.0
H5831 H 0.2499 0.22144 0.58948 0.0
H5832 H 0.29115 0.19434 0.6081 0.0
H5833 H 0.28788 0.17755 0.57713 0.0
H5834 H 0.26794 0.19245 0.63107 0.0
H5835 H 0.29916 0.2402 0.60319 0.0
H5836 H 0.30291 0.2602 0.5793 0.0
H5837 H 0.25612 0.27931 0.59261 0.0
H5838 H 0.252 0.2593 0.61647 0.0
H5839 H 0.2915 0.23952 0.72088 0.0
H5840 H 0.29175 0.2276 0.68863 0.0
H5841 H 0.24974 0.25437 0.67167 0.0
H5842 H 0.25014 0.26719 0.70396 0.0
H5843 H 0.27304 0.25664 0.64772 0.0
H5844 H 0.24252 0.20857 0.67625 0.0
H5845 H 0.2386 0.18743 0.69901 0.0
H5846 H 0.28472 0.16809 0.68379 0.0
H5847 H 0.28907 0.18928 0.66113 0.0
C5848 C 0.25729 0.20315 0.56891 0.0
C5849 C 0.26756 0.19034 0.56538 0.0
C5850 C 0.25874 0.21239 0.58678 0.0
C5851 C 0.2708 0.20922 0.60122 0.0
C5852 C 0.28168 0.19698 0.59729 0.0
C5853 C 0.27993 0.18749 0.57959 0.0
C5854 C 0.27115 0.2175 0.62072 0.0
C5855 C 0.26937 0.20653 0.63474 0.0
C5856 C 0.27248 0.2358 0.6255 0.0
C5857 C 0.27522 0.24819 0.61154 0.0
C5858 C 0.28965 0.24864 0.60098 0.0
C5859 C 0.29184 0.25997 0.58745 0.0
C5860 C 0.27974 0.271 0.58442 0.0
C5861 C 0.26548 0.27077 0.59498 0.0
C5862 C 0.26323 0.25946 0.60854 0.0
C5863 C 0.28227 0.2429 0.71033 0.0
C5864 C 0.27049 0.25403 0.71512 0.0
C5865 C 0.28237 0.23596 0.69184 0.0
C5866 C 0.27042 0.23965 0.67769 0.0
C5867 C 0.25898 0.25117 0.68234 0.0
C5868 C 0.25911 0.25841 0.70086 0.0
C5869 C 0.27001 0.23158 0.65809 0.0
C5870 C 0.2717 0.24257 0.64406 0.0
C5871 C 0.26873 0.21325 0.65329 0.0
C5872 C 0.26621 0.20064 0.6671 0.0
C5873 C 0.25192 0.19992 0.67787 0.0
C5874 C 0.2496 0.1879 0.69073 0.0
C5875 C 0.26142 0.17645 0.69287 0.0
C5876 C 0.27558 0.17698 0.68214 0.0
C5877 C 0.27798 0.18898 0.66928 0.0
H5878 H 0.25958 0.16713 0.70281 0.0
H5879 H 0.28144 0.27973 0.5739 0.0
H5880 H 0.59479 0.55134 0.2301 0.0
H5881 H 0.58155 0.55086 0.19801 0.0
H5882 H 0.59963 0.50275 0.18201 0.0
H5883 H 0.61395 0.50406 0.21382 0.0
H5884 H 0.60588 0.52266 0.15723 0.0
H5885 H 0.55354 0.50574 0.18816 0.0
H5886 H 0.53393 0.50974 0.21253 0.0
H5887 H 0.52634 0.55869 0.19461 0.0
H5888 H 0.54605 0.55506 0.17024 0.0
H5889 H 0.55753 0.50081 0.06812 0.0
H5890 H 0.56803 0.50063 0.1007 0.0
H5891 H 0.55003 0.549 0.11519 0.0
H5892 H 0.53817 0.54828 0.0829 0.0
H5893 H 0.54364 0.52953 0.14083 0.0
H5894 H 0.59587 0.5466 0.11014 0.0
H5895 H 0.61599 0.54314 0.08615 0.0
H5896 H 0.62416 0.49434 0.10403 0.0
H5897 H 0.60393 0.49741 0.12798 0.0
C5898 C 0.59574 0.54063 0.21968 0.0
C5899 C 0.60518 0.52766 0.22427 0.0
C5900 C 0.58811 0.54028 0.20138 0.0
C5901 C 0.58925 0.52657 0.18754 0.0
C5902 C 0.59854 0.51347 0.19235 0.0
C5903 C 0.60662 0.51414 0.2105 0.0
C5904 C 0.58139 0.52613 0.16793 0.0
C5905 C 0.59217 0.52389 0.15367 0.0
C5906 C 0.56367 0.52827 0.16319 0.0
C5907 C 0.55135 0.53017 0.17744 0.0
C5908 C 0.54771 0.51737 0.18943 0.0
C5909 C 0.53659 0.51958 0.20326 0.0
C5910 C 0.52892 0.53448 0.20514 0.0
C5911 C 0.53229 0.54716 0.19314 0.0
C5912 C 0.5434 0.54501 0.17929 0.0
C5913 C 0.55586 0.51147 0.07819 0.0
C5914 C 0.54755 0.52499 0.07264 0.0
C5915 C 0.56194 0.51138 0.09688 0.0
C5916 C 0.56041 0.52513 0.11044 0.0
C5917 C 0.55163 0.53834 0.10504 0.0
C5918 C 0.54506 0.53811 0.08641 0.0
C5919 C 0.56808 0.52582 0.13016 0.0
C5920 C 0.55731 0.52821 0.14442 0.0
C5921 C 0.58585 0.52384 0.13494 0.0
C5922 C 0.59831 0.52219 0.12078 0.0
C5923 C 0.60192 0.53511 0.10892 0.0
C5924 C 0.61334 0.53321 0.09532 0.0
C5925 C 0.62133 0.51852 0.09356 0.0
C5926 C 0.61796 0.50571 0.10541 0.0
C5927 C 0.60654 0.50753 0.11902 0.0
H5928 H 0.63015 0.51707 0.08301 0.0
H5929 H 0.52036 0.53619 0.21588 0.0
H5930 H 0.28477 0.8757 0.95418 0.0
H5931 H 0.28656 0.85625 0.92658 0.0
H5932 H 0.27997 0.89711 0.89266 0.0
H5933 H 0.27813 0.91707 0.92053 0.0
H5934 H 0.25474 0.86558 0.88468 0.0
H5935 H 0.31918 0.88445 0.89776 0.0
H5936 H 0.34823 0.88948 0.91713 0.0
H5937 H 0.34044 0.83468 0.92343 0.0
H5938 H 0.31123 0.82935 0.90439 0.0
H5939 H 0.2597 0.81815 0.80021 0.0
H5940 H 0.26181 0.83884 0.82778 0.0
H5941 H 0.28462 0.80378 0.86067 0.0
H5942 H 0.28612 0.78489 0.8325 0.0
H5943 H 0.30221 0.83291 0.86977 0.0
H5944 H 0.23895 0.8122 0.86043 0.0
H5945 H 0.20936 0.80431 0.84193 0.0
H5946 H 0.2125 0.85797 0.83222 0.0
H5947 H 0.24222 0.86615 0.85039 0.0
C5948 C 0.28388 0.88072 0.94091 0.0
C5949 C 0.28116 0.89785 0.93936 0.0
C5950 C 0.28516 0.86964 0.92526 0.0
C5951 C 0.28376 0.87557 0.90794 0.0
C5952 C 0.28133 0.89267 0.90621 0.0
C5953 C 0.28005 0.90387 0.92196 0.0
C5954 C 0.28193 0.86287 0.89158 0.0
C5955 C 0.26514 0.85854 0.88109 0.0
C5956 C 0.2953 0.85321 0.88809 0.0
C5957 C 0.3129 0.85654 0.89972 0.0
C5958 C 0.32356 0.8735 0.90342 0.0
C5959 C 0.34009 0.8764 0.91432 0.0
C5960 C 0.34616 0.86242 0.92153 0.0
C5961 C 0.33573 0.8455 0.91785 0.0
C5962 C 0.31919 0.84254 0.90699 0.0
C5963 C 0.26513 0.8148 0.81331 0.0
C5964 C 0.27237 0.79969 0.8143 0.0
C5965 C 0.266 0.82649 0.82912 0.0
C5966 C 0.27274 0.82248 0.84631 0.0
C5967 C 0.27918 0.80696 0.84748 0.0
C5968 C 0.27964 0.79595 0.83143 0.0
C5969 C 0.27489 0.83542 0.86271 0.0
C5970 C 0.29168 0.83977 0.8733 0.0
C5971 C 0.26122 0.84455 0.86688 0.0
C5972 C 0.24288 0.83978 0.85676 0.0
C5973 C 0.23334 0.82232 0.85436 0.0
C5974 C 0.21655 0.81779 0.84389 0.0
C5975 C 0.20906 0.83062 0.83589 0.0
C5976 C 0.2183 0.84804 0.83844 0.0
C5977 C 0.23511 0.85264 0.84886 0.0
H5978 H 0.1961 0.82707 0.82771 0.0
H5979 H 0.35897 0.86469 0.92994 0.0
H5980 H 0.87957 0.49771 0.72417 0.0
H5981 H 0.89878 0.49219 0.70005 0.0
H5982 H 0.94093 0.53315 0.72938 0.0
H5983 H 0.92186 0.53895 0.7532 0.0
H5984 H 0.92868 0.53817 0.69394 0.0
H5985 H 0.94862 0.49429 0.72614 0.0
H5986 H 0.94739 0.46749 0.74134 0.0
H5987 H 0.92204 0.43592 0.69048 0.0
H5988 H 0.92283 0.46253 0.67503 0.0
H5989 H 0.99803 0.51469 0.63698 0.0
H5990 H 0.9809 0.52556 0.66105 0.0
H5991 H 0.93236 0.49457 0.63054 0.0
H5992 H 0.94937 0.484 0.60638 0.0
H5993 H 0.94918 0.4852 0.66755 0.0
H5994 H 0.929 0.53066 0.63619 0.0
H5995 H 0.92887 0.55834 0.62293 0.0
H5996 H 0.95485 0.58779 0.67471 0.0
H5997 H 0.95588 0.56035 0.68794 0.0
C5998 C 0.89285 0.50564 0.72527 0.0
C5999 C 0.89914 0.51913 0.74009 0.0
C6000 C 0.90391 0.50217 0.71185 0.0
C6001 C 0.92119 0.51219 0.71324 0.0
C6002 C 0.92762 0.52524 0.72832 0.0
C6003 C 0.91665 0.52873 0.74164 0.0
C6004 C 0.93116 0.51166 0.69725 0.0
C6005 C 0.93356 0.52673 0.6883 0.0
C6006 C 0.93686 0.49646 0.68993 0.0
C6007 C 0.93556 0.48049 0.69948 0.0
C6008 C 0.9425 0.48167 0.71826 0.0
C6009 C 0.94196 0.46649 0.72691 0.0
C6010 C 0.93458 0.45002 0.7169 0.0
C6011 C 0.92771 0.44869 0.69823 0.0
C6012 C 0.9282 0.46382 0.68953 0.0
C6013 C 0.98365 0.51062 0.63532 0.0
C6014 C 0.97487 0.4982 0.62039 0.0
C6015 C 0.97392 0.51702 0.64879 0.0
C6016 C 0.95548 0.51083 0.64737 0.0
C6017 C 0.94658 0.49959 0.6316 0.0
C6018 C 0.95626 0.49339 0.61806 0.0
C6019 C 0.94662 0.51174 0.66416 0.0
C6020 C 0.94448 0.4967 0.6733 0.0
C6021 C 0.94134 0.52707 0.67182 0.0
C6022 C 0.9429 0.54336 0.66291 0.0
C6023 C 0.93525 0.54299 0.64453 0.0
C6024 C 0.93493 0.55869 0.63704 0.0
C6025 C 0.94204 0.57483 0.64787 0.0
C6026 C 0.9496 0.57532 0.66618 0.0
C6027 C 0.95015 0.55969 0.67364 0.0
H6028 H 0.94157 0.58696 0.64213 0.0
H6029 H 0.93425 0.43828 0.7236 0.0
H6030 H 0.24497 0.17229 0.43536 0.0
H6031 H 0.24748 0.1856 0.40668 0.0
H6032 H 0.29499 0.22187 0.43296 0.0
H6033 H 0.29158 0.20939 0.46211 0.0
H6034 H 0.27652 0.23891 0.41506 0.0
H6035 H 0.29284 0.18279 0.39832 0.0
H6036 H 0.28908 0.1505 0.39326 0.0
H6037 H 0.2427 0.14712 0.35418 0.0
H6038 H 0.24592 0.17933 0.35931 0.0
H6039 H 0.30424 0.2611 0.32557 0.0
H6040 H 0.30339 0.24944 0.35557 0.0
H6041 H 0.24693 0.22945 0.34219 0.0
H6042 H 0.2474 0.24204 0.31305 0.0
H6043 H 0.27116 0.2043 0.35276 0.0
H6044 H 0.2532 0.25898 0.37091 0.0
H6045 H 0.25624 0.29119 0.37492 0.0
H6046 H 0.30537 0.29667 0.41048 0.0
H6047 H 0.30279 0.26446 0.40635 0.0
C6048 C 0.25595 0.1831 0.43494 0.0
C6049 C 0.26809 0.18988 0.45085 0.0
C6050 C 0.2575 0.19059 0.41849 0.0
C6051 C 0.27168 0.20452 0.41742 0.0
C6052 C 0.28393 0.21114 0.43336 0.0
C6053 C 0.28201 0.20403 0.45 0.0
C6054 C 0.27326 0.21284 0.40008 0.0
C6055 C 0.27571 0.23127 0.40152 0.0
C6056 C 0.2716 0.20294 0.38221 0.0
C6057 C 0.26953 0.1835 0.37938 0.0
C6058 C 0.28172 0.17516 0.38882 0.0
C6059 C 0.27968 0.15685 0.38594 0.0
C6060 C 0.26563 0.14676 0.37346 0.0
C6061 C 0.25356 0.15494 0.36386 0.0
C6062 C 0.25547 0.17322 0.36678 0.0
C6063 C 0.29163 0.2545 0.32921 0.0
C6064 C 0.27597 0.2521 0.31679 0.0
C6065 C 0.29118 0.24779 0.34625 0.0
C6066 C 0.27513 0.23844 0.35086 0.0
C6067 C 0.25945 0.23644 0.3387 0.0
C6068 C 0.25982 0.24347 0.32198 0.0
C6069 C 0.27463 0.23009 0.36803 0.0
C6070 C 0.27225 0.21176 0.36645 0.0
C6071 C 0.27629 0.23999 0.38572 0.0
C6072 C 0.27797 0.25934 0.38804 0.0
C6073 C 0.2648 0.26706 0.37934 0.0
C6074 C 0.2664 0.28531 0.38169 0.0
C6075 C 0.28104 0.29598 0.39287 0.0
C6076 C 0.29408 0.2884 0.40176 0.0
C6077 C 0.29256 0.27015 0.39941 0.0
H6078 H 0.28224 0.31011 0.39471 0.0
H6079 H 0.26414 0.13261 0.37117 0.0
H6080 H 0.2937 0.56807 0.53718 0.0
H6081 H 0.32245 0.56338 0.52814 0.0
H6082 H 0.34707 0.61623 0.55271 0.0
H6083 H 0.31807 0.62121 0.56116 0.0
H6084 H 0.35809 0.60051 0.51522 0.0
H6085 H 0.35266 0.59167 0.58039 0.0
H6086 H 0.33075 0.58111 0.60124 0.0
H6087 H 0.32098 0.52942 0.57048 0.0
H6088 H 0.34265 0.53979 0.54924 0.0
H6089 H 0.44074 0.57719 0.5127 0.0
H6090 H 0.41875 0.5895 0.52958 0.0
H6091 H 0.3832 0.53881 0.51949 0.0
H6092 H 0.40526 0.52654 0.50283 0.0
H6093 H 0.3799 0.55775 0.553 0.0
H6094 H 0.38222 0.56432 0.48808 0.0
H6095 H 0.39623 0.57346 0.46076 0.0
H6096 H 0.40633 0.62737 0.48556 0.0
H6097 H 0.39273 0.61849 0.51327 0.0
C6098 C 0.30537 0.57848 0.54097 0.0
C6099 C 0.30417 0.59467 0.55045 0.0
C6100 C 0.3215 0.57602 0.53535 0.0
C6101 C 0.33656 0.58954 0.5398 0.0
C6102 C 0.33538 0.60583 0.54908 0.0
C6103 C 0.31912 0.60843 0.55436 0.0
C6104 C 0.35392 0.58533 0.53787 0.0
C6105 C 0.36331 0.59163 0.52375 0.0
C6106 C 0.36002 0.57341 0.54887 0.0
C6107 C 0.34953 0.56642 0.56346 0.0
C6108 C 0.34612 0.57796 0.57832 0.0
C6109 C 0.33361 0.57206 0.59009 0.0
C6110 C 0.32455 0.55458 0.58725 0.0
C6111 C 0.32812 0.54293 0.57274 0.0
C6112 C 0.34059 0.54879 0.56089 0.0
C6113 C 0.42842 0.56869 0.51465 0.0
C6114 C 0.42427 0.55117 0.5064 0.0
C6115 C 0.41601 0.57563 0.52429 0.0
C6116 C 0.39942 0.56504 0.52544 0.0
C6117 C 0.39602 0.54708 0.5187 0.0
C6118 C 0.40844 0.54016 0.5091 0.0
C6119 C 0.38455 0.57312 0.53039 0.0
C6120 C 0.37535 0.56732 0.54498 0.0
C6121 C 0.37849 0.58535 0.51956 0.0
C6122 C 0.38677 0.5907 0.50293 0.0
C6123 C 0.38765 0.57809 0.48784 0.0
C6124 C 0.39548 0.58323 0.47226 0.0
C6125 C 0.40226 0.60097 0.47147 0.0
C6126 C 0.40116 0.61362 0.48624 0.0
C6127 C 0.39342 0.60854 0.5019 0.0
H6128 H 0.40828 0.60493 0.45938 0.0
H6129 H 0.31472 0.55007 0.59624 0.0
H6130 H 0.84893 0.89378 0.53627 0.0
H6131 H 0.8808 0.90755 0.53889 0.0
H6132 H 0.8667 0.95863 0.54053 0.0
H6133 H 0.83528 0.94513 0.53757 0.0
H6134 H 0.88475 0.94935 0.51099 0.0
H6135 H 0.88731 0.949 0.57741 0.0
H6136 H 0.88461 0.93436 0.60557 0.0
H6137 H 0.92536 0.90606 0.59134 0.0
H6138 H 0.92809 0.92033 0.56287 0.0
H6139 H 0.96147 0.01421 0.51642 0.0
H6140 H 0.93363 0.99748 0.52334 0.0
H6141 H 0.96077 0.95661 0.53909 0.0
H6142 H 0.9891 0.97506 0.53601 0.0
H6143 H 0.93689 0.95563 0.5585 0.0
H6144 H 0.93389 0.96183 0.49099 0.0
H6145 H 0.93312 0.97887 0.46456 0.0
H6146 H 0.88863 0.99922 0.48315 0.0
H6147 H 0.88971 0.98299 0.51015 0.0
C6148 C 0.85276 0.90797 0.53762 0.0
C6149 C 0.83972 0.91842 0.53637 0.0
C6150 C 0.8709 0.91578 0.53918 0.0
C6151 C 0.87601 0.93407 0.53978 0.0
C6152 C 0.86298 0.94448 0.53999 0.0
C6153 C 0.84504 0.93675 0.5382 0.0
C6154 C 0.8943 0.94253 0.53729 0.0
C6155 C 0.89623 0.95079 0.52138 0.0
C6156 C 0.90918 0.94394 0.55067 0.0
C6157 C 0.90773 0.93555 0.56788 0.0
C6158 C 0.89557 0.93952 0.58017 0.0
C6159 C 0.89405 0.93132 0.59621 0.0
C6160 C 0.90475 0.91924 0.6002 0.0
C6161 C 0.91705 0.91539 0.5882 0.0
C6162 C 0.91859 0.92354 0.57211 0.0
C6163 C 0.96168 0.00203 0.52206 0.0
C6164 C 0.97772 0.99625 0.52588 0.0
C6165 C 0.94553 0.99206 0.52543 0.0
C6166 C 0.94472 0.97521 0.53089 0.0
C6167 C 0.96077 0.96943 0.53474 0.0
C6168 C 0.97706 0.97999 0.53273 0.0
C6169 C 0.92731 0.96348 0.5324 0.0
C6170 C 0.92561 0.95418 0.54792 0.0
C6171 C 0.91223 0.96154 0.5189 0.0
C6172 C 0.91194 0.97124 0.50259 0.0
C6173 C 0.92403 0.97001 0.48946 0.0
C6174 C 0.92353 0.97959 0.4744 0.0
C6175 C 0.91071 0.99005 0.47211 0.0
C6176 C 0.89852 0.99112 0.48495 0.0
C6177 C 0.89914 0.98183 0.50016 0.0
H6178 H 0.91002 0.99734 0.46043 0.0
H6179 H 0.90355 0.9129 0.61263 0.0
H6180 H 0.90976 0.075 0.24382 0.0
H6181 H 0.89459 0.09992 0.24374 0.0
H6182 H 0.85488 0.07371 0.27474 0.0
H6183 H 0.86943 0.04834 0.27377 0.0
H6184 H 0.83915 0.08627 0.24872 0.0
H6185 H 0.89086 0.11016 0.29373 0.0
H6186 H 0.92303 0.11863 0.30463 0.0
H6187 H 0.92996 0.15304 0.2627 0.0
H6188 H 0.89788 0.14459 0.2514 0.0
H6189 H 0.80265 0.15345 0.29204 0.0
H6190 H 0.81632 0.12935 0.28056 0.0
H6191 H 0.84901 0.16384 0.24947 0.0
H6192 H 0.83575 0.18843 0.26189 0.0
H6193 H 0.86904 0.14816 0.26971 0.0
H6194 H 0.81542 0.12563 0.22735 0.0
H6195 H 0.78299 0.11674 0.21806 0.0
H6196 H 0.77942 0.07964 0.25754 0.0
H6197 H 0.81179 0.08835 0.2671 0.0
C6198 C 0.89784 0.07466 0.2507 0.0
C6199 C 0.89071 0.05981 0.25881 0.0
C6200 C 0.88923 0.08894 0.25073 0.0
C6201 C 0.87369 0.08884 0.25943 0.0
C6202 C 0.8668 0.07409 0.26785 0.0
C6203 C 0.87511 0.05962 0.26736 0.0
C6204 C 0.86409 0.1037 0.25923 0.0
C6205 C 0.84569 0.09979 0.25347 0.0
C6206 C 0.8727 0.12145 0.26471 0.0
C6207 C 0.89199 0.12657 0.27158 0.0
C6208 C 0.89927 0.11943 0.28675 0.0
C6209 C 0.91748 0.12424 0.29301 0.0
C6210 C 0.92854 0.13632 0.28432 0.0
C6211 C 0.92139 0.14365 0.26939 0.0
C6212 C 0.90319 0.13886 0.26306 0.0
C6213 C 0.81235 0.15575 0.28228 0.0
C6214 C 0.81819 0.17274 0.27784 0.0
C6215 C 0.82011 0.14191 0.27559 0.0
C6216 C 0.83362 0.14464 0.26394 0.0
C6217 C 0.83858 0.16139 0.25839 0.0
C6218 C 0.83089 0.17537 0.26529 0.0
C6219 C 0.84396 0.13063 0.2598 0.0
C6220 C 0.86254 0.13468 0.26467 0.0
C6221 C 0.8355 0.11294 0.25375 0.0
C6222 C 0.81602 0.10769 0.24796 0.0
C6223 C 0.8077 0.11563 0.23409 0.0
C6224 C 0.78933 0.1106 0.22877 0.0
C6225 C 0.77915 0.09765 0.23722 0.0
C6226 C 0.78732 0.08966 0.25098 0.0
C6227 C 0.80568 0.09459 0.25631 0.0
H6228 H 0.76493 0.0938 0.2331 0.0
H6229 H 0.94264 0.14003 0.28919 0.0
H6230 H 0.7015 0.10715 -0.00094 0.0
H6231 H 0.67076 0.09255 0.00086 0.0
H6232 H 0.6837 0.09046 0.05955 0.0
H6233 H 0.71452 0.10504 0.05768 0.0
H6234 H 0.66579 0.05832 0.03788 0.0
H6235 H 0.66003 0.11779 0.05121 0.0
H6236 H 0.66609 0.1491 0.04685 0.0
H6237 H 0.63816 0.13628 0.99166 0.0
H6238 H 0.63214 0.10483 0.9956 0.0
H6239 H 0.57549 0.0349 0.05012 0.0
H6240 H 0.60612 0.05046 0.05243 0.0
H6241 H 0.60047 0.05217 0.99312 0.0
H6242 H 0.56965 0.03587 0.99074 0.0
H6243 H 0.6146 0.0856 0.01845 0.0
H6244 H 0.62233 0.02544 0.0054 0.0
H6245 H 0.61625 0.9944 0.01077 0.0
H6246 H 0.64055 0.00912 0.06726 0.0
H6247 H 0.64651 0.04032 0.06231 0.0
C6248 C 0.69759 0.10361 0.01225 0.0
C6249 C 0.70978 0.10697 0.02823 0.0
C6250 C 0.68027 0.09541 0.01331 0.0
C6251 C 0.67531 0.09078 0.03038 0.0
C6252 C 0.68757 0.09413 0.04639 0.0
C6253 C 0.70492 0.10235 0.04531 0.0
C6254 C 0.65725 0.08191 0.03106 0.0
C6255 C 0.65452 0.06429 0.03402 0.0
C6256 C 0.64292 0.08997 0.02582 0.0
C6257 C 0.64566 0.10895 0.02369 0.0
C6258 C 0.65519 0.12164 0.03813 0.0
C6259 C 0.65863 0.13941 0.03573 0.0
C6260 C 0.65252 0.14467 0.01898 0.0
C6261 C 0.64286 0.13218 0.00464 0.0
C6262 C 0.63938 0.11438 0.00697 0.0
C6263 C 0.58093 0.03813 0.03755 0.0
C6264 C 0.57054 0.03417 0.02023 0.0
C6265 C 0.59824 0.04717 0.03891 0.0
C6266 C 0.60517 0.05228 0.02293 0.0
C6267 C 0.59496 0.04825 0.00551 0.0
C6268 C 0.57755 0.03905 0.00416 0.0
C6269 C 0.62323 0.06191 0.02473 0.0
C6270 C 0.62589 0.07969 0.02243 0.0
C6271 C 0.63748 0.05405 0.03078 0.0
C6272 C 0.63478 0.03522 0.03351 0.0
C6273 C 0.62634 0.02206 0.01899 0.0
C6274 C 0.6229 0.00444 0.02195 0.0
C6275 C 0.62799 0.99979 0.03936 0.0
C6276 C 0.63662 0.01275 0.05379 0.0
C6277 C 0.64006 0.0304 0.0509 0.0
H6278 H 0.62526 0.98614 0.04165 0.0
H6279 H 0.65527 0.15843 0.01711 0.0
H6280 H 0.16924 0.47284 0.2422 0.0
H6281 H 0.18008 0.44545 0.24107 0.0
H6282 H 0.23246 0.47402 0.26483 0.0
H6283 H 0.22177 0.50177 0.26525 0.0
H6284 H 0.23333 0.44929 0.23631 0.0
H6285 H 0.2045 0.45475 0.2914 0.0
H6286 H 0.17937 0.4598 0.30849 0.0
H6287 H 0.14666 0.4126 0.27852 0.0
H6288 H 0.17149 0.40747 0.26087 0.0
H6289 H 0.26978 0.39263 0.28921 0.0
H6290 H 0.25909 0.41403 0.27136 0.0
H6291 H 0.21178 0.37546 0.24917 0.0
H6292 H 0.22258 0.35398 0.26728 0.0
H6293 H 0.20509 0.40271 0.27119 0.0
H6294 H 0.23673 0.39952 0.21529 0.0
H6295 H 0.26196 0.39981 0.19661 0.0
H6296 H 0.29168 0.44545 0.23207 0.0
H6297 H 0.26645 0.44576 0.25054 0.0
C6298 C 0.18303 0.47323 0.24734 0.0
C6299 C 0.19471 0.48912 0.25427 0.0
C6300 C 0.18916 0.45768 0.24656 0.0
C6301 C 0.20687 0.45792 0.25316 0.0
C6302 C 0.21869 0.47382 0.25976 0.0
C6303 C 0.21263 0.48949 0.26015 0.0
C6304 C 0.21294 0.44145 0.25363 0.0
C6305 C 0.22729 0.43905 0.24397 0.0
C6306 C 0.20454 0.42822 0.26335 0.0
C6307 C 0.18984 0.43081 0.27464 0.0
C6308 C 0.19194 0.44547 0.28836 0.0
C6309 C 0.17773 0.44838 0.29814 0.0
C6310 C 0.16141 0.43656 0.29455 0.0
C6311 C 0.15931 0.42176 0.28125 0.0
C6312 C 0.17344 0.41885 0.27135 0.0
C6313 C 0.25737 0.38867 0.28006 0.0
C6314 C 0.24668 0.37205 0.27974 0.0
C6315 C 0.25143 0.40072 0.26961 0.0
C6316 C 0.23473 0.39621 0.25885 0.0
C6317 C 0.2248 0.37901 0.25725 0.0
C6318 C 0.23081 0.3669 0.26768 0.0
C6319 C 0.22591 0.41045 0.254 0.0
C6320 C 0.21093 0.41262 0.26304 0.0
C6321 C 0.23409 0.42377 0.24425 0.0
C6322 C 0.24985 0.42246 0.23443 0.0
C6323 C 0.24877 0.40943 0.21925 0.0
C6324 C 0.26299 0.4096 0.20861 0.0
C6325 C 0.27849 0.4225 0.21329 0.0
C6326 C 0.27974 0.43539 0.22853 0.0
C6327 C 0.26545 0.43546 0.239 0.0
H6328 H 0.28947 0.42258 0.20503 0.0
H6329 H 0.15042 0.43884 0.3021 0.0
H6330 H 0.2488 0.42356 0.05438 0.0
H6331 H 0.2241 0.43919 0.05136 0.0
H6332 H 0.19474 0.39707 0.01043 0.0
H6333 H 0.21943 0.38122 0.01352 0.0
H6334 H 0.19669 0.43136 -0.00012 0.0
H6335 H 0.1818 0.40001 0.05132 0.0
H6336 H 0.18928 0.39052 0.08176 0.0
H6337 H 0.20064 0.4442 0.10743 0.0
H6338 H 0.19347 0.45405 0.07704 0.0
H6339 H 0.11306 0.45122 0.98939 0.0
H6340 H 0.13541 0.43515 0.00088 0.0
H6341 H 0.16235 0.4815 0.03766 0.0
H6342 H 0.13983 0.49771 0.02609 0.0
H6343 H 0.16272 0.44674 0.05192 0.0
H6344 H 0.17725 0.47822 0.00086 0.0
H6345 H 0.17194 0.48814 0.97022 0.0
H6346 H 0.16342 0.43487 0.94373 0.0
H6347 H 0.16827 0.42457 0.97429 0.0
C6348 C 0.237 0.41756 0.04486 0.0
C6349 C 0.23596 0.40117 0.03421 0.0
C6350 C 0.22293 0.42649 0.04318 0.0
C6351 C 0.20763 0.41924 0.03073 0.0
C6352 C 0.20647 0.40282 0.02014 0.0
C6353 C 0.22048 0.39375 0.02201 0.0
C6354 C 0.19302 0.42903 0.02847 0.0
C6355 C 0.18908 0.43451 0.01116 0.0
C6356 C 0.18363 0.43366 0.04345 0.0
C6357 C 0.18719 0.42777 0.06189 0.0
C6358 C 0.18594 0.4098 0.06345 0.0
C6359 C 0.19013 0.40435 0.08069 0.0
C6360 C 0.19545 0.41675 0.09652 0.0
C6361 C 0.19651 0.43462 0.09515 0.0
C6362 C 0.19235 0.44014 0.07792 0.0
C6363 C 0.1234 0.45778 0.0004 0.0
C6364 C 0.12484 0.47565 0.00686 0.0
C6365 C 0.13616 0.44863 0.00691 0.0
C6366 C 0.15062 0.45723 0.01991 0.0
C6367 C 0.15124 0.47466 0.02765 0.0
C6368 C 0.1384 0.48387 0.0211 0.0
C6369 C 0.1661 0.44869 0.02315 0.0
C6370 C 0.1703 0.44357 0.04064 0.0
C6371 C 0.1759 0.44447 0.00835 0.0
C6372 C 0.17287 0.4506 0.98992 0.0
C6373 C 0.174 0.46859 0.98854 0.0
C6374 C 0.17112 0.47429 0.97118 0.0
C6375 C 0.16728 0.46214 0.95505 0.0
C6376 C 0.16634 0.44426 0.95625 0.0
C6377 C 0.16915 0.43848 0.97359 0.0
H6378 H 0.16509 0.46658 0.94161 0.0
H6379 H 0.19874 0.41251 0.10985 0.0
H6380 H 0.90917 0.9375 0.25167 0.0
H6381 H 0.8884 0.91039 0.25353 0.0
H6382 H 0.84485 0.93822 0.25242 0.0
H6383 H 0.86579 0.96577 0.25106 0.0
H6384 H 0.84318 0.91526 0.27849 0.0
H6385 H 0.85172 0.91223 0.21273 0.0
H6386 H 0.87038 0.91349 0.18696 0.0
H6387 H 0.89423 0.87192 0.20553 0.0
H6388 H 0.87584 0.87047 0.23142 0.0
H6389 H 0.77953 0.83615 0.26964 0.0
H6390 H 0.79584 0.86474 0.26497 0.0
H6391 H 0.84048 0.8413 0.25143 0.0
H6392 H 0.82314 0.81251 0.2529 0.0
H6393 H 0.83973 0.86355 0.2312 0.0
H6394 H 0.83533 0.86654 0.29721 0.0
H6395 H 0.81952 0.86464 0.32507 0.0
H6396 H 0.79199 0.90503 0.30983 0.0
H6397 H 0.80751 0.90704 0.28179 0.0
C6398 C 0.89517 0.93792 0.25172 0.0
C6399 C 0.8891 0.95379 0.25102 0.0
C6400 C 0.8833 0.92236 0.25275 0.0
C6401 C 0.86504 0.92222 0.25274 0.0
C6402 C 0.8589 0.93805 0.25233 0.0
C6403 C 0.87085 0.95375 0.25151 0.0
C6404 C 0.85248 0.90547 0.2532 0.0
C6405 C 0.84218 0.90397 0.26804 0.0
C6406 C 0.85166 0.89064 0.23988 0.0
C6407 C 0.86243 0.89128 0.22403 0.0
C6408 C 0.86098 0.90338 0.21132 0.0
C6409 C 0.87151 0.90412 0.19669 0.0
C6410 C 0.88351 0.8928 0.19461 0.0
C6411 C 0.88494 0.88066 0.20712 0.0
C6412 C 0.87443 0.87984 0.22174 0.0
C6413 C 0.79241 0.8369 0.26479 0.0
C6414 C 0.79959 0.82177 0.26106 0.0
C6415 C 0.80208 0.85346 0.26274 0.0
C6416 C 0.81965 0.85541 0.25821 0.0
C6417 C 0.82694 0.84032 0.25479 0.0
C6418 C 0.81695 0.82374 0.25582 0.0
C6419 C 0.83057 0.87299 0.25685 0.0
C6420 C 0.84057 0.87473 0.24174 0.0
C6421 C 0.83155 0.88785 0.2703 0.0
C6422 C 0.82247 0.88684 0.28734 0.0
C6423 C 0.82586 0.87497 0.29978 0.0
C6424 C 0.81695 0.87387 0.3156 0.0
C6425 C 0.80473 0.88468 0.31919 0.0
C6426 C 0.80145 0.89666 0.30702 0.0
C6427 C 0.81032 0.8978 0.29118 0.0
H6428 H 0.79783 0.88379 0.33143 0.0
H6429 H 0.89168 0.89342 0.18331 0.0
H6430 H 0.7128 0.08421 0.75969 0.0
H6431 H 0.72844 0.11454 0.7679 0.0
H6432 H 0.68061 0.13254 0.74961 0.0
H6433 H 0.66478 0.10226 0.74111 0.0
H6434 H 0.71035 0.1447 0.73282 0.0
H6435 H 0.69397 0.13647 0.79395 0.0
H6436 H 0.69265 0.12225 0.82246 0.0
H6437 H 0.74978 0.13408 0.83307 0.0
H6438 H 0.75148 0.14802 0.80435 0.0
H6439 H 0.73215 0.23438 0.75812 0.0
H6440 H 0.7176 0.20403 0.75909 0.0
H6441 H 0.76853 0.19135 0.77652 0.0
H6442 H 0.78315 0.22187 0.77556 0.0
H6443 H 0.73959 0.17578 0.79427 0.0
H6444 H 0.75629 0.18061 0.73217 0.0
H6445 H 0.75831 0.19016 0.70115 0.0
H6446 H 0.70132 0.18334 0.69178 0.0
H6447 H 0.69896 0.17356 0.72267 0.0
C6448 C 0.70556 0.09462 0.75753 0.0
C6449 C 0.68764 0.09102 0.74966 0.0
C6450 C 0.71445 0.11183 0.76242 0.0
C6451 C 0.70543 0.12541 0.75954 0.0
C6452 C 0.68752 0.12194 0.75201 0.0
C6453 C 0.67861 0.10475 0.74706 0.0
C6454 C 0.71522 0.14329 0.76219 0.0
C6455 C 0.7165 0.15168 0.74628 0.0
C6456 C 0.72387 0.15166 0.77967 0.0
C6457 C 0.72285 0.14308 0.79684 0.0
C6458 C 0.70627 0.13583 0.80221 0.0
C6459 C 0.70545 0.12785 0.81844 0.0
C6460 C 0.72112 0.1272 0.82953 0.0
C6461 C 0.73765 0.13454 0.82443 0.0
C6462 C 0.73855 0.14247 0.80816 0.0
C6463 C 0.74003 0.22528 0.76299 0.0
C6464 C 0.75853 0.23005 0.76701 0.0
C6465 C 0.73183 0.20802 0.76322 0.0
C6466 C 0.74224 0.19575 0.76743 0.0
C6467 C 0.76054 0.20088 0.77307 0.0
C6468 C 0.76876 0.21812 0.77269 0.0
C6469 C 0.73405 0.17738 0.76501 0.0
C6470 C 0.73333 0.16881 0.78086 0.0
C6471 C 0.72594 0.16873 0.74742 0.0
C6472 C 0.72748 0.17665 0.72988 0.0
C6473 C 0.74423 0.18151 0.72367 0.0
C6474 C 0.74542 0.18683 0.70603 0.0
C6475 C 0.72997 0.18748 0.69455 0.0
C6476 C 0.71329 0.1829 0.70071 0.0
C6477 C 0.71202 0.17744 0.71826 0.0
H6478 H 0.7309 0.19141 0.68084 0.0
H6479 H 0.72045 0.12105 0.84212 0.0
loop_
_geom_bond_atom_site_label_1
_geom_bond_atom_site_label_2
_geom_bond_distance
_geom_bond_site_symmetry_2
_ccdc_geom_bond_type
C0 O1 1.306 . S
C0 O3 1.160 . S
O1 C0 1.306 . S
O1 Cd2 2.228 . S
Cd2 O1 2.228 . S
Cd2 O6 2.273 . S
Cd2 O10 2.277 . S
O3 C0 1.160 . S
O3 Cd4 2.203 . S
Cd4 O3 2.203 . S
Cd4 O6 2.411 . S
Cd4 O7 2.333 . S
Cd4 O8 2.352 . S
Cd4 O12 2.277 . S
Cd4 O13 2.356 . S
C5 O10 1.209 . S
C5 O12 1.226 . S
O6 Cd2 2.273 . S
O6 Cd4 2.411 . S
O6 C9 1.320 . S
O7 Cd4 2.333 . S
O7 C9 1.214 . S
O8 Cd4 2.352 . S
O8 C11 1.258 . S
C9 O6 1.320 . S
C9 O7 1.214 . S
O10 Cd2 2.277 . S
O10 C5 1.209 . S
C11 O8 1.258 . S
C11 O13 1.282 . S
O12 Cd4 2.277 . S
O12 C5 1.226 . S
O13 Cd4 2.356 . S
O13 C11 1.282 . S
C14 O15 1.306 . S
C14 O17 1.160 . S
O15 C14 1.306 . S
O15 Cd16 2.228 1_655 S
Cd16 O15 2.228 1_455 S
Cd16 O20 2.273 . S
Cd16 O24 2.277 . S
O17 C14 1.160 . S
O17 Cd18 2.203 1_655 S
Cd18 O17 2.203 1_455 S
Cd18 O20 2.411 . S
Cd18 O21 2.333 . S
Cd18 O22 2.352 . S
Cd18 O26 2.277 . S
Cd18 O27 2.356 . S
C19 O24 1.209 . S
C19 O26 1.226 . S
O20 Cd16 2.273 . S
O20 Cd18 2.411 . S
O20 C23 1.320 . S
O21 Cd18 2.333 . S
O21 C23 1.214 . S
O22 Cd18 2.352 . S
O22 C25 1.258 . S
C23 O20 1.320 . S
C23 O21 1.214 . S
O24 Cd16 2.277 . S
O24 C19 1.209 . S
C25 O22 1.258 . S
C25 O27 1.282 . S
O26 Cd18 2.277 . S
O26 C19 1.226 . S
O27 Cd18 2.356 . S
O27 C25 1.282 . S
C28 O29 1.306 . S
C28 O31 1.160 . S
O29 C28 1.306 . S
O29 Cd30 2.228 . S
Cd30 O29 2.228 . S
Cd30 O34 2.273 . S
Cd30 O38 2.277 . S
O31 C28 1.160 . S
O31 Cd32 2.203 . S
Cd32 O31 2.203 . S
Cd32 O34 2.411 . S
Cd32 O35 2.333 . S
Cd32 O36 2.352 . S
Cd32 O40 2.277 . S
Cd32 O41 2.356 . S
C33 O38 1.209 . S
C33 O40 1.226 . S
O34 Cd30 2.273 . S
O34 Cd32 2.411 . S
O34 C37 1.320 . S
O35 Cd32 2.333 . S
O35 C37 1.214 . S
O36 Cd32 2.352 . S
O36 C39 1.258 . S
C37 O34 1.320 . S
C37 O35 1.214 . S
O38 Cd30 2.277 . S
O38 C33 1.209 . S
C39 O36 1.258 . S
C39 O41 1.282 . S
O40 Cd32 2.277 . S
O40 C33 1.226 . S
O41 Cd32 2.356 . S
O41 C39 1.282 . S
C42 O43 1.306 . S
C42 O45 1.160 . S
O43 C42 1.306 . S
O43 Cd44 2.228 . S
Cd44 O43 2.228 . S
Cd44 O48 2.273 . S
Cd44 O52 2.277 . S
O45 C42 1.160 . S
O45 Cd46 2.203 . S
Cd46 O45 2.203 . S
Cd46 O48 2.411 . S
Cd46 O49 2.333 . S
Cd46 O50 2.352 . S
Cd46 O54 2.277 . S
Cd46 O55 2.356 . S
C47 O52 1.209 . S
C47 O54 1.226 . S
O48 Cd44 2.273 . S
O48 Cd46 2.411 . S
O48 C51 1.320 . S
O49 Cd46 2.333 . S
O49 C51 1.214 . S
O50 Cd46 2.352 . S
O50 C53 1.258 . S
C51 O48 1.320 . S
C51 O49 1.214 . S
O52 Cd44 2.277 . S
O52 C47 1.209 . S
C53 O50 1.258 . S
C53 O55 1.282 . S
O54 Cd46 2.277 . S
O54 C47 1.226 . S
O55 Cd46 2.356 . S
O55 C53 1.282 . S
C56 O57 1.306 . S
C56 O59 1.160 . S
O57 C56 1.306 . S
O57 Cd58 2.228 . S
Cd58 O57 2.228 . S
Cd58 O62 2.273 . S
Cd58 O66 2.277 . S
O59 C56 1.160 . S
O59 Cd60 2.203 . S
Cd60 O59 2.203 . S
Cd60 O62 2.411 . S
Cd60 O63 2.333 . S
Cd60 O64 2.352 . S
Cd60 O68 2.277 . S
Cd60 O69 2.356 . S
C61 O66 1.209 . S
C61 O68 1.226 . S
O62 Cd58 2.273 . S
O62 Cd60 2.411 . S
O62 C65 1.320 . S
O63 Cd60 2.333 . S
O63 C65 1.214 . S
O64 Cd60 2.352 . S
O64 C67 1.258 . S
C65 O62 1.320 . S
C65 O63 1.214 . S
O66 Cd58 2.277 . S
O66 C61 1.209 . S
C67 O64 1.258 . S
C67 O69 1.282 . S
O68 Cd60 2.277 . S
O68 C61 1.226 . S
O69 Cd60 2.356 . S
O69 C67 1.282 . S
C70 O71 1.306 . S
C70 O73 1.160 . S
O71 C70 1.306 . S
O71 Cd72 2.228 . S
Cd72 O71 2.228 . S
Cd72 O76 2.273 . S
Cd72 O80 2.277 . S
O73 C70 1.160 . S
O73 Cd74 2.203 . S
Cd74 O73 2.203 . S
Cd74 O76 2.411 . S
Cd74 O77 2.333 . S
Cd74 O78 2.352 . S
Cd74 O82 2.277 . S
Cd74 O83 2.356 . S
C75 O80 1.209 . S
C75 O82 1.226 . S
O76 Cd72 2.273 . S
O76 Cd74 2.411 . S
O76 C79 1.320 . S
O77 Cd74 2.333 . S
O77 C79 1.214 . S
O78 Cd74 2.352 . S
O78 C81 1.258 . S
C79 O76 1.320 . S
C79 O77 1.214 . S
O80 Cd72 2.277 . S
O80 C75 1.209 . S
C81 O78 1.258 . S
C81 O83 1.282 . S
O82 Cd74 2.277 . S
O82 C75 1.226 . S
O83 Cd74 2.356 . S
O83 C81 1.282 . S
C84 O85 1.306 . S
C84 O87 1.160 . S
O85 C84 1.306 . S
O85 Cd86 2.228 . S
Cd86 O85 2.228 . S
Cd86 O90 2.273 . S
Cd86 O94 2.277 . S
O87 C84 1.160 . S
O87 Cd88 2.203 . S
Cd88 O87 2.203 . S
Cd88 O90 2.411 . S
Cd88 O91 2.333 . S
Cd88 O92 2.352 . S
Cd88 O96 2.277 . S
Cd88 O97 2.356 . S
C89 O94 1.209 . S
C89 O96 1.226 . S
O90 Cd86 2.273 . S
O90 Cd88 2.411 . S
O90 C93 1.320 . S
O91 Cd88 2.333 . S
O91 C93 1.214 . S
O92 Cd88 2.352 . S
O92 C95 1.258 . S
C93 O90 1.320 . S
C93 O91 1.214 . S
O94 Cd86 2.277 . S
O94 C89 1.209 . S
C95 O92 1.258 . S
C95 O97 1.282 . S
O96 Cd88 2.277 . S
O96 C89 1.226 . S
O97 Cd88 2.356 . S
O97 C95 1.282 . S
C98 O99 1.306 . S
C98 O101 1.160 . S
O99 C98 1.306 . S
O99 Cd100 2.228 1_655 S
Cd100 O99 2.228 1_455 S
Cd100 O104 2.273 . S
Cd100 O108 2.277 . S
O101 C98 1.160 . S
O101 Cd102 2.203 1_655 S
Cd102 O101 2.203 1_455 S
Cd102 O104 2.411 . S
Cd102 O105 2.333 . S
Cd102 O106 2.352 1_455 S
Cd102 O110 2.277 . S
Cd102 O111 2.356 . S
C103 O108 1.209 . S
C103 O110 1.226 . S
O104 Cd100 2.273 . S
O104 Cd102 2.411 . S
O104 C107 1.320 . S
O105 Cd102 2.333 . S
O105 C107 1.214 . S
O106 Cd102 2.352 1_655 S
O106 C109 1.263 . S
C107 O104 1.320 . S
C107 O105 1.214 . S
O108 Cd100 2.277 . S
O108 C103 1.209 . S
C109 O106 1.263 . S
C109 O111 1.280 1_655 S
O110 Cd102 2.277 . S
O110 C103 1.226 . S
O111 Cd102 2.356 . S
O111 C109 1.280 1_455 S
C112 O113 1.306 . S
C112 O115 1.160 . S
O113 C112 1.306 . S
O113 Cd114 2.228 1_545 S
Cd114 O113 2.228 1_565 S
Cd114 O118 2.273 1_565 S
Cd114 O122 2.277 . S
O115 C112 1.160 . S
O115 Cd116 2.203 . S
Cd116 O115 2.203 . S
Cd116 O118 2.411 . S
Cd116 O119 2.333 . S
Cd116 O120 2.352 . S
Cd116 O124 2.277 1_545 S
Cd116 O125 2.356 . S
C117 O122 1.209 . S
C117 O124 1.226 . S
O118 Cd114 2.273 1_545 S
O118 Cd116 2.411 . S
O118 C121 1.320 . S
O119 Cd116 2.333 . S
O119 C121 1.214 . S
O120 Cd116 2.352 . S
O120 C123 1.258 . S
C121 O118 1.320 . S
C121 O119 1.214 . S
O122 Cd114 2.277 . S
O122 C117 1.209 . S
C123 O120 1.258 . S
C123 O125 1.282 . S
O124 Cd116 2.277 1_565 S
O124 C117 1.226 . S
O125 Cd116 2.356 . S
O125 C123 1.282 . S
C126 O127 1.306 . S
C126 O129 1.160 . S
O127 C126 1.306 . S
O127 Cd128 2.228 . S
Cd128 O127 2.228 . S
Cd128 O132 2.273 . S
Cd128 O136 2.277 . S
O129 C126 1.160 . S
O129 Cd130 2.203 . S
Cd130 O129 2.203 . S
Cd130 O132 2.411 . S
Cd130 O133 2.333 . S
Cd130 O134 2.352 . S
Cd130 O138 2.277 . S
Cd130 O139 2.356 . S
C131 O136 1.209 . S
C131 O138 1.226 . S
O132 Cd128 2.273 . S
O132 Cd130 2.411 . S
O132 C135 1.320 . S
O133 Cd130 2.333 . S
O133 C135 1.214 . S
O134 Cd130 2.352 . S
O134 C137 1.258 . S
C135 O132 1.320 . S
C135 O133 1.214 . S
O136 Cd128 2.277 . S
O136 C131 1.209 . S
C137 O134 1.258 . S
C137 O139 1.282 . S
O138 Cd130 2.277 . S
O138 C131 1.226 . S
O139 Cd130 2.356 . S
O139 C137 1.282 . S
C140 O141 1.306 . S
C140 O143 1.160 . S
O141 C140 1.306 . S
O141 Cd142 2.228 . S
Cd142 O141 2.228 . S
Cd142 O146 2.273 . S
Cd142 O150 2.277 . S
O143 C140 1.160 . S
O143 Cd144 2.203 . S
Cd144 O143 2.203 . S
Cd144 O146 2.411 . S
Cd144 O147 2.333 . S
Cd144 O148 2.311 1_545 S
Cd144 O152 2.277 . S
Cd144 O153 2.356 . S
C145 O150 1.209 . S
C145 O152 1.226 . S
O146 Cd142 2.273 . S
O146 Cd144 2.411 . S
O146 C149 1.320 . S
O147 Cd144 2.333 . S
O147 C149 1.214 . S
O148 Cd144 2.311 1_565 S
O148 C151 1.258 . S
C149 O146 1.320 . S
C149 O147 1.214 . S
O150 Cd142 2.277 . S
O150 C145 1.209 . S
C151 O148 1.258 . S
C151 O153 1.254 1_565 S
O152 Cd144 2.277 . S
O152 C145 1.226 . S
O153 Cd144 2.356 . S
O153 C151 1.254 1_545 S
C154 O155 1.299 1_554 S
C154 O157 1.166 . S
O155 C154 1.299 1_556 S
O155 Cd156 2.228 . S
Cd156 O155 2.228 . S
Cd156 O160 2.283 . S
Cd156 O164 2.277 . S
O157 C154 1.166 . S
O157 Cd158 2.203 . S
Cd158 O157 2.203 . S
Cd158 O160 2.409 1_554 S
Cd158 O161 2.331 . S
Cd158 O162 2.352 . S
Cd158 O166 2.277 1_554 S
Cd158 O167 2.356 . S
C159 O164 1.209 . S
C159 O166 1.226 . S
O160 Cd156 2.283 . S
O160 Cd158 2.409 1_556 S
O160 C163 1.321 . S
O161 Cd158 2.331 . S
O161 C163 1.202 1_554 S
O162 Cd158 2.352 . S
O162 C165 1.258 . S
C163 O160 1.321 . S
C163 O161 1.202 1_556 S
O164 Cd156 2.277 . S
O164 C159 1.209 . S
C165 O162 1.258 . S
C165 O167 1.282 . S
O166 Cd158 2.277 1_556 S
O166 C159 1.226 . S
O167 Cd158 2.356 . S
O167 C165 1.282 . S
C168 O169 1.306 . S
C168 O171 1.160 . S
O169 C168 1.306 . S
O169 Cd170 2.228 . S
Cd170 O169 2.228 . S
Cd170 O174 2.273 . S
Cd170 O178 2.277 . S
O171 C168 1.160 . S
O171 Cd172 2.203 . S
Cd172 O171 2.203 . S
Cd172 O174 2.411 . S
Cd172 O175 2.333 . S
Cd172 O176 2.352 . S
Cd172 O180 2.277 . S
Cd172 O181 2.356 . S
C173 O178 1.209 1_556 S
C173 O180 1.216 1_556 S
O174 Cd170 2.273 . S
O174 Cd172 2.411 . S
O174 C177 1.320 . S
O175 Cd172 2.333 . S
O175 C177 1.214 . S
O176 Cd172 2.352 . S
O176 C179 1.258 . S
C177 O174 1.320 . S
C177 O175 1.214 . S
O178 Cd170 2.277 . S
O178 C173 1.209 1_554 S
C179 O176 1.258 . S
C179 O181 1.282 . S
O180 Cd172 2.277 . S
O180 C173 1.216 1_554 S
O181 Cd172 2.356 . S
O181 C179 1.282 . S
C182 O183 1.306 . S
C182 O185 1.160 . S
O183 C182 1.306 . S
O183 Cd184 2.228 . S
Cd184 O183 2.228 . S
Cd184 O188 2.273 . S
Cd184 O192 2.277 . S
O185 C182 1.160 . S
O185 Cd186 2.203 . S
Cd186 O185 2.203 . S
Cd186 O188 2.411 . S
Cd186 O189 2.333 . S
Cd186 O190 2.352 . S
Cd186 O194 2.277 . S
Cd186 O195 2.356 . S
C187 O192 1.209 . S
C187 O194 1.226 . S
O188 Cd184 2.273 . S
O188 Cd186 2.411 . S
O188 C191 1.320 . S
O189 Cd186 2.333 . S
O189 C191 1.214 . S
O190 Cd186 2.352 . S
O190 C193 1.258 . S
C191 O188 1.320 . S
C191 O189 1.214 . S
O192 Cd184 2.277 . S
O192 C187 1.209 . S
C193 O190 1.258 . S
C193 O195 1.282 . S
O194 Cd186 2.277 . S
O194 C187 1.226 . S
O195 Cd186 2.356 . S
O195 C193 1.282 . S
C196 O197 1.306 . S
C196 O199 1.160 . S
O197 C196 1.306 . S
O197 Cd198 2.228 . S
Cd198 O197 2.228 . S
Cd198 O202 2.273 . S
Cd198 O206 2.277 . S
O199 C196 1.160 . S
O199 Cd200 2.203 . S
Cd200 O199 2.203 . S
Cd200 O202 2.411 . S
Cd200 O203 2.333 . S
Cd200 O204 2.352 . S
Cd200 O208 2.277 . S
Cd200 O209 2.356 . S
C201 O206 1.209 . S
C201 O208 1.226 . S
O202 Cd198 2.273 . S
O202 Cd200 2.411 . S
O202 C205 1.320 . S
O203 Cd200 2.333 . S
O203 C205 1.214 . S
O204 Cd200 2.352 . S
O204 C207 1.258 . S
C205 O202 1.320 . S
C205 O203 1.214 . S
O206 Cd198 2.277 . S
O206 C201 1.209 . S
C207 O204 1.258 . S
C207 O209 1.282 . S
O208 Cd200 2.277 . S
O208 C201 1.226 . S
O209 Cd200 2.356 . S
O209 C207 1.282 . S
C210 O211 1.306 . S
C210 O213 1.160 . S
O211 C210 1.306 . S
O211 Cd212 2.228 . S
Cd212 O211 2.228 . S
Cd212 O216 2.273 . S
Cd212 O220 2.277 . S
O213 C210 1.160 . S
O213 Cd214 2.203 . S
Cd214 O213 2.203 . S
Cd214 O216 2.411 . S
Cd214 O217 2.333 . S
Cd214 O218 2.352 . S
Cd214 O222 2.277 . S
Cd214 O223 2.356 . S
C215 O220 1.209 . S
C215 O222 1.226 . S
O216 Cd212 2.273 . S
O216 Cd214 2.411 . S
O216 C219 1.320 . S
O217 Cd214 2.333 . S
O217 C219 1.214 . S
O218 Cd214 2.352 . S
O218 C221 1.258 . S
C219 O216 1.320 . S
C219 O217 1.214 . S
O220 Cd212 2.277 . S
O220 C215 1.209 . S
C221 O218 1.258 . S
C221 O223 1.282 . S
O222 Cd214 2.277 . S
O222 C215 1.226 . S
O223 Cd214 2.356 . S
O223 C221 1.282 . S
C224 O225 1.306 . S
C224 O227 1.160 . S
O225 C224 1.306 . S
O225 Cd226 2.228 1_545 S
Cd226 O225 2.228 1_565 S
Cd226 O230 2.273 1_565 S
Cd226 O234 2.277 . S
O227 C224 1.160 . S
O227 Cd228 2.203 . S
Cd228 O227 2.203 . S
Cd228 O230 2.411 . S
Cd228 O231 2.333 . S
Cd228 O232 2.352 . S
Cd228 O236 2.277 1_545 S
Cd228 O237 2.356 . S
C229 O234 1.209 . S
C229 O236 1.226 . S
O230 Cd226 2.273 1_545 S
O230 Cd228 2.411 . S
O230 C233 1.320 . S
O231 Cd228 2.333 . S
O231 C233 1.214 . S
O232 Cd228 2.352 . S
O232 C235 1.258 . S
C233 O230 1.320 . S
C233 O231 1.214 . S
O234 Cd226 2.277 . S
O234 C229 1.209 . S
C235 O232 1.258 . S
C235 O237 1.282 . S
O236 Cd228 2.277 1_565 S
O236 C229 1.226 . S
O237 Cd228 2.356 . S
O237 C235 1.282 . S
C238 O239 1.306 . S
C238 O241 1.160 . S
O239 C238 1.306 . S
O239 Cd240 2.228 . S
Cd240 O239 2.228 . S
Cd240 O244 2.273 . S
Cd240 O248 2.277 . S
O241 C238 1.160 . S
O241 Cd242 2.203 . S
Cd242 O241 2.203 . S
Cd242 O244 2.411 . S
Cd242 O245 2.333 . S
Cd242 O246 2.352 . S
Cd242 O250 2.277 . S
Cd242 O251 2.356 . S
C243 O248 1.209 . S
C243 O250 1.226 . S
O244 Cd240 2.273 . S
O244 Cd242 2.411 . S
O244 C247 1.320 . S
O245 Cd242 2.333 . S
O245 C247 1.214 . S
O246 Cd242 2.352 . S
O246 C249 1.258 . S
C247 O244 1.320 . S
C247 O245 1.214 . S
O248 Cd240 2.277 . S
O248 C243 1.209 . S
C249 O246 1.258 . S
C249 O251 1.282 . S
O250 Cd242 2.277 . S
O250 C243 1.226 . S
O251 Cd242 2.356 . S
O251 C249 1.282 . S
C252 O253 1.306 . S
C252 O255 1.160 . S
O253 C252 1.306 . S
O253 Cd254 2.228 . S
Cd254 O253 2.228 . S
Cd254 O258 2.273 . S
Cd254 O262 2.277 . S
O255 C252 1.160 . S
O255 Cd256 2.203 . S
Cd256 O255 2.203 . S
Cd256 O258 2.411 . S
Cd256 O259 2.333 . S
Cd256 O260 2.352 . S
Cd256 O264 2.277 . S
Cd256 O265 2.356 . S
C257 O262 1.209 . S
C257 O264 1.226 . S
O258 Cd254 2.273 . S
O258 Cd256 2.411 . S
O258 C261 1.320 . S
O259 Cd256 2.333 . S
O259 C261 1.214 . S
O260 Cd256 2.352 . S
O260 C263 1.258 . S
C261 O258 1.320 . S
C261 O259 1.214 . S
O262 Cd254 2.277 . S
O262 C257 1.209 . S
C263 O260 1.258 . S
C263 O265 1.282 . S
O264 Cd256 2.277 . S
O264 C257 1.226 . S
O265 Cd256 2.356 . S
O265 C263 1.282 . S
C266 O267 1.306 . S
C266 O269 1.160 . S
O267 C266 1.306 . S
O267 Cd268 2.228 . S
Cd268 O267 2.228 . S
Cd268 O272 2.273 . S
Cd268 O276 2.277 . S
O269 C266 1.160 . S
O269 Cd270 2.203 . S
Cd270 O269 2.203 . S
Cd270 O272 2.411 . S
Cd270 O273 2.333 . S
Cd270 O274 2.352 . S
Cd270 O278 2.277 . S
Cd270 O279 2.356 . S
C271 O276 1.209 . S
C271 O278 1.226 . S
O272 Cd268 2.273 . S
O272 Cd270 2.411 . S
O272 C275 1.320 . S
O273 Cd270 2.333 . S
O273 C275 1.214 . S
O274 Cd270 2.352 . S
O274 C277 1.258 . S
C275 O272 1.320 . S
C275 O273 1.214 . S
O276 Cd268 2.277 . S
O276 C271 1.209 . S
C277 O274 1.258 . S
C277 O279 1.282 . S
O278 Cd270 2.277 . S
O278 C271 1.226 . S
O279 Cd270 2.356 . S
O279 C277 1.282 . S
C280 O281 1.306 . S
C280 O283 1.160 . S
O281 C280 1.306 . S
O281 Cd282 2.228 . S
Cd282 O281 2.228 . S
Cd282 O286 2.273 . S
Cd282 O290 2.277 . S
O283 C280 1.160 . S
O283 Cd284 2.203 . S
Cd284 O283 2.203 . S
Cd284 O286 2.411 . S
Cd284 O287 2.333 . S
Cd284 O288 2.352 1_554 S
Cd284 O292 2.277 . S
Cd284 O293 2.356 1_554 S
C285 O290 1.209 . S
C285 O292 1.226 . S
O286 Cd282 2.273 . S
O286 Cd284 2.411 . S
O286 C289 1.320 . S
O287 Cd284 2.333 . S
O287 C289 1.214 . S
O288 Cd284 2.352 1_556 S
O288 C291 1.258 . S
C289 O286 1.320 . S
C289 O287 1.214 . S
O290 Cd282 2.277 . S
O290 C285 1.209 . S
C291 O288 1.258 . S
C291 O293 1.282 . S
O292 Cd284 2.277 . S
O292 C285 1.226 . S
O293 Cd284 2.356 1_556 S
O293 C291 1.282 . S
C294 O295 1.306 . S
C294 O297 1.160 . S
O295 C294 1.306 . S
O295 Cd296 2.228 . S
Cd296 O295 2.228 . S
Cd296 O300 2.273 . S
Cd296 O304 2.277 . S
O297 C294 1.160 . S
O297 Cd298 2.203 . S
Cd298 O297 2.203 . S
Cd298 O300 2.411 . S
Cd298 O301 2.333 . S
Cd298 O302 2.352 . S
Cd298 O306 2.277 . S
Cd298 O307 2.356 . S
C299 O304 1.209 . S
C299 O306 1.226 . S
O300 Cd296 2.273 . S
O300 Cd298 2.411 . S
O300 C303 1.320 . S
O301 Cd298 2.333 . S
O301 C303 1.214 . S
O302 Cd298 2.352 . S
O302 C305 1.258 . S
C303 O300 1.320 . S
C303 O301 1.214 . S
O304 Cd296 2.277 . S
O304 C299 1.209 . S
C305 O302 1.258 . S
C305 O307 1.282 . S
O306 Cd298 2.277 . S
O306 C299 1.226 . S
O307 Cd298 2.356 . S
O307 C305 1.282 . S
C308 O309 1.306 . S
C308 O311 1.160 . S
O309 C308 1.306 . S
O309 Cd310 2.228 . S
Cd310 O309 2.228 . S
Cd310 O314 2.273 . S
Cd310 O318 2.277 . S
O311 C308 1.160 . S
O311 Cd312 2.203 . S
Cd312 O311 2.203 . S
Cd312 O314 2.411 . S
Cd312 O315 2.333 . S
Cd312 O316 2.352 . S
Cd312 O320 2.277 . S
Cd312 O321 2.356 . S
C313 O318 1.209 . S
C313 O320 1.226 . S
O314 Cd310 2.273 . S
O314 Cd312 2.411 . S
O314 C317 1.320 . S
O315 Cd312 2.333 . S
O315 C317 1.214 . S
O316 Cd312 2.352 . S
O316 C319 1.258 . S
C317 O314 1.320 . S
C317 O315 1.214 . S
O318 Cd310 2.277 . S
O318 C313 1.209 . S
C319 O316 1.258 . S
C319 O321 1.282 . S
O320 Cd312 2.277 . S
O320 C313 1.226 . S
O321 Cd312 2.356 . S
O321 C319 1.282 . S
C322 O323 1.306 . S
C322 O325 1.160 . S
O323 C322 1.306 . S
O323 Cd324 2.228 . S
Cd324 O323 2.228 . S
Cd324 O328 2.273 . S
Cd324 O332 2.277 . S
O325 C322 1.160 . S
O325 Cd326 2.203 . S
Cd326 O325 2.203 . S
Cd326 O328 2.411 . S
Cd326 O329 2.333 . S
Cd326 O330 2.352 . S
Cd326 O334 2.277 . S
Cd326 O335 2.356 . S
C327 O332 1.209 . S
C327 O334 1.226 . S
O328 Cd324 2.273 . S
O328 Cd326 2.411 . S
O328 C331 1.320 . S
O329 Cd326 2.333 . S
O329 C331 1.214 . S
O330 Cd326 2.352 . S
O330 C333 1.258 . S
C331 O328 1.320 . S
C331 O329 1.214 . S
O332 Cd324 2.277 . S
O332 C327 1.209 . S
C333 O330 1.258 . S
C333 O335 1.282 . S
O334 Cd326 2.277 . S
O334 C327 1.226 . S
O335 Cd326 2.356 . S
O335 C333 1.282 . S
Eu336 N365 2.600 . S
Eu336 N371 2.562 . S
Eu336 O380 2.462 . S
Eu336 O381 2.373 . S
Eu336 O383 2.432 . S
Eu336 O384 2.291 . S
Eu336 O388 2.335 . S
Eu336 O391 2.372 . S
Eu336 C400 2.787 . S
C337 N338 1.365 . S
C337 C340 1.405 . S
C337 C344 1.448 1_556 S
N338 C337 1.365 . S
N338 C341 1.319 . S
N338 Eu347 2.600 1_566 S
C339 C341 1.397 . S
C339 C342 1.367 . S
C339 H359 0.931 . S
C340 C337 1.405 . S
C340 C342 1.403 . S
C340 C346 1.439 . S
C341 N338 1.319 . S
C341 C339 1.397 . S
C341 H352 0.981 . S
C342 C339 1.367 . S
C342 C340 1.403 . S
C342 H363 0.929 . S
C343 C344 1.430 . S
C343 C345 1.387 1_554 S
C343 C349 1.404 . S
C344 C337 1.448 1_554 S
C344 C343 1.430 . S
C344 N348 1.351 . S
C345 C343 1.387 1_556 S
C345 C346 1.374 . S
C345 H360 0.931 1_556 S
C346 C340 1.439 . S
C346 C345 1.374 . S
C346 H361 0.931 . S
Eu347 N338 2.600 1_544 S
Eu347 N348 2.563 1_545 S
Eu347 O382 2.335 1_655 S
Eu347 O385 2.370 1_654 S
Eu347 O386 2.464 . S
Eu347 O387 2.371 1_645 S
Eu347 O389 2.433 1_554 S
Eu347 O390 2.291 1_655 S
Eu347 C411 2.789 . S
N348 C344 1.351 . S
N348 Eu347 2.563 1_565 S
N348 C350 1.325 . S
C349 C343 1.404 . S
C349 C351 1.366 . S
C349 H357 0.930 . S
C350 N348 1.325 . S
C350 C351 1.416 . S
C350 H356 0.929 . S
C351 C349 1.366 . S
C351 C350 1.416 . S
C351 H353 0.930 . S
H352 C341 0.981 . S
H353 C351 0.930 . S
H354 C369 0.930 . S
H355 C376 0.930 1_556 S
H356 C350 0.929 . S
H357 C349 0.930 . S
H358 C372 0.929 . S
H359 C339 0.931 . S
H360 C345 0.931 1_554 S
H361 C346 0.931 . S
H362 C367 0.931 . S
H363 C342 0.929 . S
H364 C375 0.930 . S
N365 Eu336 2.600 . S
N365 C366 1.365 . S
N365 C369 1.319 . S
C366 N365 1.365 . S
C366 C368 1.405 . S
C366 C374 1.448 . S
C367 H362 0.931 . S
C367 C369 1.397 . S
C367 C370 1.367 . S
C368 C366 1.405 . S
C368 C370 1.403 . S
C368 C401 1.439 . S
C369 H354 0.930 . S
C369 N365 1.319 . S
C369 C367 1.397 . S
C370 C367 1.367 . S
C370 C368 1.403 . S
C370 H377 0.929 . S
N371 Eu336 2.562 . S
N371 C372 1.325 . S
N371 C374 1.351 . S
C372 H358 0.929 . S
C372 N371 1.325 . S
C372 C376 1.416 . S
C373 C374 1.430 . S
C373 C375 1.404 . S
C373 C402 1.387 . S
C374 C366 1.448 . S
C374 N371 1.351 . S
C374 C373 1.430 . S
C375 H364 0.930 . S
C375 C373 1.404 . S
C375 C376 1.366 . S
C376 H355 0.930 1_554 S
C376 C372 1.416 . S
C376 C375 1.366 . S
H377 C370 0.929 . S
H378 C401 0.931 . S
H379 C402 0.931 . S
O380 Eu336 2.462 . S
O380 C400 1.252 . S
O381 Eu336 2.373 . S
O381 C392 1.249 . S
O382 Eu347 2.335 1_455 S
O382 C392 1.264 . S
O383 Eu336 2.432 . S
O383 C400 1.268 . S
O384 Eu336 2.291 . S
O384 C399 1.255 1_554 S
O385 Eu347 2.370 1_456 S
O385 C399 1.257 . S
O386 Eu347 2.464 . S
O386 C411 1.252 . S
O387 Eu347 2.371 1_465 S
O387 C403 1.249 . S
O388 Eu336 2.335 . S
O388 C403 1.264 1_545 S
O389 Eu347 2.433 1_556 S
O389 C411 1.268 1_556 S
O390 Eu347 2.291 1_455 S
O390 C410 1.255 . S
O391 Eu336 2.372 . S
O391 C410 1.257 . S
C392 O381 1.249 . S
C392 O382 1.264 . S
C393 C396 1.382 . S
C393 C398 1.390 . S
C393 C400 1.506 . S
C394 C395 1.406 . S
C394 C398 1.400 . S
C395 C394 1.406 . S
C395 C397 1.392 . S
C395 H412 0.904 1_545 S
C396 C393 1.382 . S
C396 C397 1.390 . S
C396 H413 0.931 . S
C397 C395 1.392 . S
C397 C396 1.390 . S
C397 H414 0.929 . S
C398 C393 1.390 . S
C398 C394 1.400 . S
C398 H415 0.930 . S
C399 O384 1.255 1_556 S
C399 O385 1.257 . S
C400 Eu336 2.787 . S
C400 O380 1.252 . S
C400 O383 1.268 . S
C400 C393 1.506 . S
C401 C368 1.439 . S
C401 H378 0.931 . S
C401 C402 1.374 . S
C402 C373 1.387 . S
C402 H379 0.931 . S
C402 C401 1.374 . S
C403 O387 1.249 . S
C403 O388 1.264 1_565 S
C404 C407 1.382 1_554 S
C404 C408 1.390 . S
C404 C411 1.506 . S
C405 C406 1.398 1_554 S
C405 C408 1.392 . S
C406 C405 1.398 1_556 S
C406 C409 1.372 . S
C406 H416 0.931 . S
C407 C404 1.382 1_556 S
C407 C409 1.390 . S
C407 H417 0.931 . S
C408 C404 1.390 . S
C408 C405 1.392 . S
C408 H418 0.930 . S
C409 C406 1.372 . S
C409 C407 1.390 . S
C409 H419 0.929 . S
C410 O390 1.255 . S
C410 O391 1.257 . S
C411 Eu347 2.789 . S
C411 O386 1.252 . S
C411 O389 1.268 1_554 S
C411 C404 1.506 . S
H412 C395 0.904 1_565 S
H413 C396 0.931 . S
H414 C397 0.929 . S
H415 C398 0.930 . S
H416 C406 0.931 . S
H417 C407 0.931 . S
H418 C408 0.930 . S
H419 C409 0.929 . S
Eu420 N449 2.600 . S
Eu420 N455 2.562 . S
Eu420 O464 2.462 . S
Eu420 O465 2.373 . S
Eu420 O467 2.432 . S
Eu420 O468 2.291 . S
Eu420 O472 2.335 . S
Eu420 O475 2.372 . S
Eu420 C484 2.787 . S
C421 N422 1.365 . S
C421 C424 1.405 . S
C421 C428 1.448 . S
N422 C421 1.365 . S
N422 C425 1.319 . S
N422 Eu431 2.600 . S
C423 C425 1.397 . S
C423 C426 1.367 . S
C423 H443 0.931 . S
C424 C421 1.405 . S
C424 C426 1.403 . S
C424 C430 1.439 . S
C425 N422 1.319 . S
C425 C423 1.397 . S
C425 H436 0.930 . S
C426 C423 1.367 . S
C426 C424 1.403 . S
C426 H447 0.929 . S
C427 C428 1.430 . S
C427 C429 1.387 . S
C427 C433 1.404 . S
C428 C421 1.448 . S
C428 C427 1.430 . S
C428 N432 1.351 . S
C429 C427 1.387 . S
C429 C430 1.374 . S
C429 H444 0.931 . S
C430 C424 1.439 . S
C430 C429 1.374 . S
C430 H445 0.931 . S
Eu431 N422 2.600 . S
Eu431 N432 2.562 . S
Eu431 O466 2.335 . S
Eu431 O469 2.372 . S
Eu431 O470 2.462 . S
Eu431 O471 2.373 . S
Eu431 O473 2.432 . S
Eu431 O474 2.291 . S
Eu431 C495 2.787 . S
N432 C428 1.351 . S
N432 Eu431 2.562 . S
N432 C434 1.325 . S
C433 C427 1.404 . S
C433 C435 1.366 . S
C433 H441 0.930 . S
C434 N432 1.325 . S
C434 C435 1.416 . S
C434 H440 0.929 . S
C435 C433 1.366 . S
C435 C434 1.416 . S
C435 H437 0.930 . S
H436 C425 0.930 . S
H437 C435 0.930 . S
H438 C453 0.930 . S
H439 C460 0.930 . S
H440 C434 0.929 . S
H441 C433 0.930 . S
H442 C456 0.929 . S
H443 C423 0.931 . S
H444 C429 0.931 . S
H445 C430 0.931 . S
H446 C451 0.931 . S
H447 C426 0.929 . S
H448 C459 0.930 . S
N449 Eu420 2.600 . S
N449 C450 1.365 . S
N449 C453 1.319 . S
C450 N449 1.365 . S
C450 C452 1.405 . S
C450 C458 1.448 . S
C451 H446 0.931 . S
C451 C453 1.397 . S
C451 C454 1.367 . S
C452 C450 1.405 . S
C452 C454 1.403 . S
C452 C485 1.439 . S
C453 H438 0.930 . S
C453 N449 1.319 . S
C453 C451 1.397 . S
C454 C451 1.367 . S
C454 C452 1.403 . S
C454 H461 0.929 . S
N455 Eu420 2.562 . S
N455 C456 1.325 . S
N455 C458 1.351 . S
C456 H442 0.929 . S
C456 N455 1.325 . S
C456 C460 1.416 . S
C457 C458 1.430 . S
C457 C459 1.404 . S
C457 C486 1.387 . S
C458 C450 1.448 . S
C458 N455 1.351 . S
C458 C457 1.430 . S
C459 H448 0.930 . S
C459 C457 1.404 . S
C459 C460 1.366 . S
C460 H439 0.930 . S
C460 C456 1.416 . S
C460 C459 1.366 . S
H461 C454 0.929 . S
H462 C485 0.931 . S
H463 C486 0.931 . S
O464 Eu420 2.462 . S
O464 C484 1.252 . S
O465 Eu420 2.373 . S
O465 C476 1.249 . S
O466 Eu431 2.335 . S
O466 C476 1.264 . S
O467 Eu420 2.432 . S
O467 C484 1.268 . S
O468 Eu420 2.291 . S
O468 C483 1.255 . S
O469 Eu431 2.372 . S
O469 C483 1.257 . S
O470 Eu431 2.462 . S
O470 C495 1.252 . S
O471 Eu431 2.373 . S
O471 C487 1.249 . S
O472 Eu420 2.335 . S
O472 C487 1.264 . S
O473 Eu431 2.432 . S
O473 C495 1.268 . S
O474 Eu431 2.291 . S
O474 C494 1.255 . S
O475 Eu420 2.372 . S
O475 C494 1.257 . S
C476 O465 1.249 . S
C476 O466 1.264 . S
C477 C480 1.382 . S
C477 C482 1.390 . S
C477 C484 1.506 . S
C478 C479 1.398 . S
C478 C482 1.392 . S
C479 C478 1.398 . S
C479 C481 1.372 . S
C479 H496 0.931 . S
C480 C477 1.382 . S
C480 C481 1.390 . S
C480 H497 0.931 . S
C481 C479 1.372 . S
C481 C480 1.390 . S
C481 H498 0.929 . S
C482 C477 1.390 . S
C482 C478 1.392 . S
C482 H499 0.930 . S
C483 O468 1.255 . S
C483 O469 1.257 . S
C484 Eu420 2.787 . S
C484 O464 1.252 . S
C484 O467 1.268 . S
C484 C477 1.506 . S
C485 C452 1.439 . S
C485 H462 0.931 . S
C485 C486 1.374 . S
C486 C457 1.387 . S
C486 H463 0.931 . S
C486 C485 1.374 . S
C487 O471 1.249 . S
C487 O472 1.264 . S
C488 C491 1.382 . S
C488 C492 1.390 . S
C488 C495 1.506 . S
C489 C490 1.398 . S
C489 C492 1.392 . S
C490 C489 1.398 . S
C490 C493 1.372 . S
C490 H500 0.931 . S
C491 C488 1.382 . S
C491 C493 1.390 . S
C491 H501 0.931 . S
C492 C488 1.390 . S
C492 C489 1.392 . S
C492 H502 0.930 . S
C493 C490 1.372 . S
C493 C491 1.390 . S
C493 H503 0.929 . S
C494 O474 1.255 . S
C494 O475 1.257 . S
C495 Eu431 2.787 . S
C495 O470 1.252 . S
C495 O473 1.268 . S
C495 C488 1.506 . S
H496 C479 0.931 . S
H497 C480 0.931 . S
H498 C481 0.929 . S
H499 C482 0.930 . S
H500 C490 0.931 . S
H501 C491 0.931 . S
H502 C492 0.930 . S
H503 C493 0.929 . S
Eu504 N533 2.600 1_545 S
Eu504 N539 2.562 1_545 S
Eu504 O548 2.462 . S
Eu504 O549 2.373 1_545 S
Eu504 O551 2.432 . S
Eu504 O552 2.291 . S
Eu504 O556 2.335 . S
Eu504 O559 2.372 . S
Eu504 C568 2.787 . S
C505 N506 1.365 . S
C505 C508 1.405 . S
C505 C512 1.448 . S
N506 C505 1.365 . S
N506 C509 1.319 . S
N506 Eu515 2.600 . S
C507 C509 1.397 . S
C507 C510 1.367 . S
C507 H527 0.931 . S
C508 C505 1.405 . S
C508 C510 1.403 . S
C508 C514 1.439 . S
C509 N506 1.319 . S
C509 C507 1.397 . S
C509 H520 0.930 . S
C510 C507 1.367 . S
C510 C508 1.403 . S
C510 H531 0.929 . S
C511 C512 1.430 . S
C511 C513 1.387 . S
C511 C517 1.404 . S
C512 C505 1.448 . S
C512 C511 1.430 . S
C512 N516 1.351 . S
C513 C511 1.387 . S
C513 C514 1.374 . S
C513 H528 0.931 . S
C514 C508 1.439 . S
C514 C513 1.374 . S
C514 H529 0.931 . S
Eu515 N506 2.600 . S
Eu515 N516 2.562 . S
Eu515 O550 2.335 1_545 S
Eu515 O553 2.372 . S
Eu515 O554 2.462 . S
Eu515 O555 2.373 . S
Eu515 O557 2.432 . S
Eu515 O558 2.291 . S
Eu515 C579 2.787 . S
N516 C512 1.351 . S
N516 Eu515 2.562 . S
N516 C518 1.325 . S
C517 C511 1.404 . S
C517 C519 1.366 . S
C517 H525 0.930 . S
C518 N516 1.325 . S
C518 C519 1.416 . S
C518 H524 0.929 . S
C519 C517 1.366 . S
C519 C518 1.416 . S
C519 H521 0.930 . S
H520 C509 0.930 . S
H521 C519 0.930 . S
H522 C537 0.935 . S
H523 C544 0.930 . S
H524 C518 0.929 . S
H525 C517 0.930 . S
H526 C540 0.929 . S
H527 C507 0.931 . S
H528 C513 0.931 . S
H529 C514 0.931 . S
H530 C535 0.931 . S
H531 C510 0.929 . S
H532 C543 0.930 . S
N533 Eu504 2.600 1_565 S
N533 C534 1.365 . S
N533 C537 1.319 1_565 S
C534 N533 1.365 . S
C534 C536 1.405 . S
C534 C542 1.448 . S
C535 H530 0.931 . S
C535 C537 1.392 1_565 S
C535 C538 1.367 . S
C536 C534 1.405 . S
C536 C538 1.403 . S
C536 C569 1.439 . S
C537 H522 0.935 . S
C537 N533 1.319 1_545 S
C537 C535 1.392 1_545 S
C538 C535 1.367 . S
C538 C536 1.403 . S
C538 H545 0.929 . S
N539 Eu504 2.562 1_565 S
N539 C540 1.325 . S
N539 C542 1.351 . S
C540 H526 0.929 . S
C540 N539 1.325 . S
C540 C544 1.416 . S
C541 C542 1.430 . S
C541 C543 1.404 . S
C541 C570 1.387 . S
C542 C534 1.448 . S
C542 N539 1.351 . S
C542 C541 1.430 . S
C543 H532 0.930 . S
C543 C541 1.404 . S
C543 C544 1.366 . S
C544 H523 0.930 . S
C544 C540 1.416 . S
C544 C543 1.366 . S
H545 C538 0.929 . S
H546 C569 0.931 . S
H547 C570 0.931 . S
O548 Eu504 2.462 . S
O548 C568 1.252 . S
O549 Eu504 2.373 1_565 S
O549 C560 1.249 . S
O550 Eu515 2.335 1_565 S
O550 C560 1.264 . S
O551 Eu504 2.432 . S
O551 C568 1.268 . S
O552 Eu504 2.291 . S
O552 C567 1.255 . S
O553 Eu515 2.372 . S
O553 C567 1.257 . S
O554 Eu515 2.462 . S
O554 C579 1.252 . S
O555 Eu515 2.373 . S
O555 C571 1.249 . S
O556 Eu504 2.335 . S
O556 C571 1.264 . S
O557 Eu515 2.432 . S
O557 C579 1.268 . S
O558 Eu515 2.291 . S
O558 C578 1.255 . S
O559 Eu504 2.372 . S
O559 C578 1.257 . S
C560 O549 1.249 . S
C560 O550 1.264 . S
C561 C564 1.382 . S
C561 C566 1.390 . S
C561 C568 1.506 . S
C562 C563 1.398 . S
C562 C566 1.392 . S
C563 C562 1.398 . S
C563 C565 1.372 . S
C563 H580 0.931 . S
C564 C561 1.382 . S
C564 C565 1.390 . S
C564 H581 0.931 . S
C565 C563 1.372 . S
C565 C564 1.390 . S
C565 H582 0.929 . S
C566 C561 1.390 . S
C566 C562 1.392 . S
C566 H583 0.930 . S
C567 O552 1.255 . S
C567 O553 1.257 . S
C568 Eu504 2.787 . S
C568 O548 1.252 . S
C568 O551 1.268 . S
C568 C561 1.506 . S
C569 C536 1.439 . S
C569 H546 0.931 . S
C569 C570 1.374 . S
C570 C541 1.387 . S
C570 H547 0.931 . S
C570 C569 1.374 . S
C571 O555 1.249 . S
C571 O556 1.264 . S
C572 C575 1.382 . S
C572 C576 1.390 . S
C572 C579 1.506 1_565 S
C573 C574 1.398 . S
C573 C576 1.392 . S
C574 C573 1.398 . S
C574 C577 1.372 . S
C574 H584 0.931 . S
C575 C572 1.382 . S
C575 C577 1.390 . S
C575 H585 0.931 . S
C576 C572 1.390 . S
C576 C573 1.392 . S
C576 H586 0.930 . S
C577 C574 1.372 . S
C577 C575 1.390 . S
C577 H587 0.929 . S
C578 O558 1.255 . S
C578 O559 1.257 . S
C579 Eu515 2.787 . S
C579 O554 1.252 . S
C579 O557 1.268 . S
C579 C572 1.506 1_545 S
H580 C563 0.931 . S
H581 C564 0.931 . S
H582 C565 0.929 . S
H583 C566 0.930 . S
H584 C574 0.931 . S
H585 C575 0.931 . S
H586 C576 0.930 . S
H587 C577 0.929 . S
Eu588 N617 2.600 . S
Eu588 N623 2.562 . S
Eu588 O632 2.462 . S
Eu588 O633 2.373 . S
Eu588 O635 2.432 . S
Eu588 O636 2.291 . S
Eu588 O640 2.335 . S
Eu588 O643 2.372 . S
Eu588 C652 2.787 . S
C589 N590 1.365 . S
C589 C592 1.405 . S
C589 C596 1.448 . S
N590 C589 1.365 . S
N590 C593 1.319 . S
N590 Eu599 2.600 . S
C591 C593 1.397 . S
C591 C594 1.367 . S
C591 H611 0.931 . S
C592 C589 1.405 . S
C592 C594 1.403 . S
C592 C598 1.439 . S
C593 N590 1.319 . S
C593 C591 1.397 . S
C593 H604 0.930 . S
C594 C591 1.367 . S
C594 C592 1.403 . S
C594 H615 0.929 . S
C595 C596 1.430 . S
C595 C597 1.387 . S
C595 C601 1.404 . S
C596 C589 1.448 . S
C596 C595 1.430 . S
C596 N600 1.351 . S
C597 C595 1.387 . S
C597 C598 1.374 . S
C597 H612 0.931 . S
C598 C592 1.439 . S
C598 C597 1.374 . S
C598 H613 0.931 . S
Eu599 N590 2.600 . S
Eu599 N600 2.562 . S
Eu599 O634 2.335 . S
Eu599 O637 2.372 . S
Eu599 O638 2.462 . S
Eu599 O639 2.373 . S
Eu599 O641 2.432 . S
Eu599 O642 2.291 . S
Eu599 C663 2.787 . S
N600 C596 1.351 . S
N600 Eu599 2.562 . S
N600 C602 1.325 . S
C601 C595 1.404 . S
C601 C603 1.366 . S
C601 H609 0.930 . S
C602 N600 1.325 . S
C602 C603 1.416 . S
C602 H608 0.929 . S
C603 C601 1.366 . S
C603 C602 1.416 . S
C603 H605 0.930 . S
H604 C593 0.930 . S
H605 C603 0.930 . S
H606 C621 0.930 . S
H607 C628 0.930 . S
H608 C602 0.929 . S
H609 C601 0.930 . S
H610 C624 0.929 . S
H611 C591 0.931 . S
H612 C597 0.931 . S
H613 C598 0.931 . S
H614 C619 0.931 . S
H615 C594 0.929 . S
H616 C627 0.930 . S
N617 Eu588 2.600 . S
N617 C618 1.365 . S
N617 C621 1.319 . S
C618 N617 1.365 . S
C618 C620 1.405 . S
C618 C626 1.448 . S
C619 H614 0.931 . S
C619 C621 1.397 . S
C619 C622 1.367 . S
C620 C618 1.405 . S
C620 C622 1.403 . S
C620 C653 1.439 . S
C621 H606 0.930 . S
C621 N617 1.319 . S
C621 C619 1.397 . S
C622 C619 1.367 . S
C622 C620 1.403 . S
C622 H629 0.929 . S
N623 Eu588 2.562 . S
N623 C624 1.325 . S
N623 C626 1.351 . S
C624 H610 0.929 . S
C624 N623 1.325 . S
C624 C628 1.416 . S
C625 C626 1.430 . S
C625 C627 1.404 . S
C625 C654 1.387 . S
C626 C618 1.448 . S
C626 N623 1.351 . S
C626 C625 1.430 . S
C627 H616 0.930 . S
C627 C625 1.404 . S
C627 C628 1.366 . S
C628 H607 0.930 . S
C628 C624 1.416 . S
C628 C627 1.366 . S
H629 C622 0.929 . S
H630 C653 0.931 . S
H631 C654 0.931 . S
O632 Eu588 2.462 . S
O632 C652 1.252 . S
O633 Eu588 2.373 . S
O633 C644 1.249 . S
O634 Eu599 2.335 . S
O634 C644 1.264 . S
O635 Eu588 2.432 . S
O635 C652 1.268 . S
O636 Eu588 2.291 . S
O636 C651 1.255 . S
O637 Eu599 2.372 . S
O637 C651 1.257 . S
O638 Eu599 2.462 . S
O638 C663 1.252 . S
O639 Eu599 2.373 . S
O639 C655 1.249 . S
O640 Eu588 2.335 . S
O640 C655 1.264 . S
O641 Eu599 2.432 . S
O641 C663 1.268 . S
O642 Eu599 2.291 . S
O642 C662 1.255 . S
O643 Eu588 2.372 . S
O643 C662 1.257 . S
C644 O633 1.249 . S
C644 O634 1.264 . S
C645 C648 1.382 . S
C645 C650 1.390 . S
C645 C652 1.506 . S
C646 C647 1.398 . S
C646 C650 1.392 . S
C647 C646 1.398 . S
C647 C649 1.372 . S
C647 H664 0.931 . S
C648 C645 1.382 . S
C648 C649 1.390 . S
C648 H665 0.931 . S
C649 C647 1.372 . S
C649 C648 1.390 . S
C649 H666 0.929 . S
C650 C645 1.390 . S
C650 C646 1.392 . S
C650 H667 0.930 . S
C651 O636 1.255 . S
C651 O637 1.257 . S
C652 Eu588 2.787 . S
C652 O632 1.252 . S
C652 O635 1.268 . S
C652 C645 1.506 . S
C653 C620 1.439 . S
C653 H630 0.931 . S
C653 C654 1.374 . S
C654 C625 1.387 . S
C654 H631 0.931 . S
C654 C653 1.374 . S
C655 O639 1.249 . S
C655 O640 1.264 . S
C656 C659 1.382 . S
C656 C660 1.390 . S
C656 C663 1.506 . S
C657 C658 1.398 . S
C657 C660 1.392 . S
C658 C657 1.398 . S
C658 C661 1.372 . S
C658 H668 0.931 . S
C659 C656 1.382 . S
C659 C661 1.390 . S
C659 H669 0.931 . S
C660 C656 1.390 . S
C660 C657 1.392 . S
C660 H670 0.930 . S
C661 C658 1.372 . S
C661 C659 1.390 . S
C661 H671 0.929 . S
C662 O642 1.255 . S
C662 O643 1.257 . S
C663 Eu599 2.787 . S
C663 O638 1.252 . S
C663 O641 1.268 . S
C663 C656 1.506 . S
H664 C647 0.931 . S
H665 C648 0.931 . S
H666 C649 0.929 . S
H667 C650 0.930 . S
H668 C658 0.931 . S
H669 C659 0.931 . S
H670 C660 0.930 . S
H671 C661 0.929 . S
Eu672 N701 2.600 . S
Eu672 N707 2.562 . S
Eu672 O716 2.462 . S
Eu672 O717 2.373 1_565 S
Eu672 O719 2.432 . S
Eu672 O720 2.291 1_565 S
Eu672 O724 2.335 1_565 S
Eu672 O727 2.372 1_565 S
Eu672 C736 2.787 . S
C673 N674 1.365 1_455 S
C673 C676 1.405 1_455 S
C673 C680 1.448 . S
N674 C673 1.365 1_655 S
N674 C677 1.319 . S
N674 Eu683 2.600 1_655 S
C675 C677 1.397 . S
C675 C678 1.367 . S
C675 H695 0.931 . S
C676 C673 1.405 1_655 S
C676 C678 1.403 . S
C676 C682 1.439 1_655 S
C677 N674 1.319 . S
C677 C675 1.397 . S
C677 H688 0.930 . S
C678 C675 1.367 . S
C678 C676 1.403 . S
C678 H699 0.929 . S
C679 C680 1.430 . S
C679 C681 1.387 . S
C679 C685 1.404 . S
C680 C673 1.448 . S
C680 C679 1.430 . S
C680 N684 1.351 . S
C681 C679 1.387 . S
C681 C682 1.374 . S
C681 H696 0.931 . S
C682 C676 1.439 1_455 S
C682 C681 1.374 . S
C682 H697 0.966 . S
Eu683 N674 2.600 1_455 S
Eu683 N684 2.562 . S
Eu683 O718 2.335 . S
Eu683 O721 2.372 1_455 S
Eu683 O722 2.462 . S
Eu683 O723 2.373 . S
Eu683 O725 2.432 1_455 S
Eu683 O726 2.291 . S
Eu683 C747 2.787 . S
N684 C680 1.351 . S
N684 Eu683 2.562 . S
N684 C686 1.325 . S
C685 C679 1.404 . S
C685 C687 1.366 . S
C685 H693 0.930 . S
C686 N684 1.325 . S
C686 C687 1.416 . S
C686 H692 0.929 . S
C687 C685 1.366 . S
C687 C686 1.416 . S
C687 H689 0.930 . S
H688 C677 0.930 . S
H689 C687 0.930 . S
H690 C705 0.930 1_545 S
H691 C712 0.930 . S
H692 C686 0.929 . S
H693 C685 0.930 . S
H694 C708 0.929 1_655 S
H695 C675 0.931 . S
H696 C681 0.931 . S
H697 C682 0.966 . S
H698 C703 0.931 . S
H699 C678 0.929 . S
H700 C711 0.930 1_655 S
N701 Eu672 2.600 . S
N701 C702 1.365 . S
N701 C705 1.319 . S
C702 N701 1.365 . S
C702 C704 1.405 . S
C702 C710 1.448 . S
C703 H698 0.931 . S
C703 C705 1.397 . S
C703 C706 1.367 . S
C704 C702 1.405 . S
C704 C706 1.403 . S
C704 C737 1.439 . S
C705 H690 0.930 1_565 S
C705 N701 1.319 . S
C705 C703 1.397 . S
C706 C703 1.367 . S
C706 C704 1.403 . S
C706 H713 0.929 . S
N707 Eu672 2.562 . S
N707 C708 1.325 . S
N707 C710 1.351 . S
C708 H694 0.929 1_455 S
C708 N707 1.325 . S
C708 C712 1.416 1_455 S
C709 C710 1.430 . S
C709 C711 1.404 . S
C709 C738 1.387 . S
C710 C702 1.448 . S
C710 N707 1.351 . S
C710 C709 1.430 . S
C711 H700 0.930 1_455 S
C711 C709 1.404 . S
C711 C712 1.366 1_455 S
C712 H691 0.930 . S
C712 C708 1.416 1_655 S
C712 C711 1.366 1_655 S
H713 C706 0.929 . S
H714 C737 0.931 . S
H715 C738 0.931 . S
O716 Eu672 2.462 . S
O716 C736 1.252 . S
O717 Eu672 2.373 1_545 S
O717 C728 1.249 . S
O718 Eu683 2.335 . S
O718 C728 1.264 . S
O719 Eu672 2.432 . S
O719 C736 1.268 . S
O720 Eu672 2.291 1_545 S
O720 C735 1.255 1_455 S
O721 Eu683 2.372 1_655 S
O721 C735 1.257 . S
O722 Eu683 2.462 . S
O722 C747 1.252 . S
O723 Eu683 2.373 . S
O723 C739 1.249 . S
O724 Eu672 2.335 1_545 S
O724 C739 1.264 . S
O725 Eu683 2.432 1_655 S
O725 C747 1.268 1_655 S
O726 Eu683 2.291 . S
O726 C746 1.255 . S
O727 Eu672 2.372 1_545 S
O727 C746 1.257 . S
C728 O717 1.249 . S
C728 O718 1.264 . S
C729 C732 1.382 . S
C729 C734 1.390 . S
C729 C736 1.506 . S
C730 C731 1.398 . S
C730 C734 1.392 . S
C731 C730 1.398 . S
C731 C733 1.372 . S
C731 H748 0.931 . S
C732 C729 1.382 . S
C732 C733 1.390 . S
C732 H749 0.931 . S
C733 C731 1.372 . S
C733 C732 1.390 . S
C733 H750 0.929 . S
C734 C729 1.390 . S
C734 C730 1.392 . S
C734 H751 0.930 . S
C735 O720 1.255 1_655 S
C735 O721 1.257 . S
C736 Eu672 2.787 . S
C736 O716 1.252 . S
C736 O719 1.268 . S
C736 C729 1.506 . S
C737 C704 1.439 . S
C737 H714 0.931 . S
C737 C738 1.374 . S
C738 C709 1.387 . S
C738 H715 0.931 . S
C738 C737 1.374 . S
C739 O723 1.249 . S
C739 O724 1.264 . S
C740 C743 1.382 1_455 S
C740 C744 1.390 . S
C740 C747 1.506 . S
C741 C742 1.398 . S
C741 C744 1.392 . S
C742 C741 1.398 . S
C742 C745 1.372 1_455 S
C742 H752 0.931 . S
C743 C740 1.382 1_655 S
C743 C745 1.390 . S
C743 H753 0.931 . S
C744 C740 1.390 . S
C744 C741 1.392 . S
C744 H754 0.930 . S
C745 C742 1.372 1_655 S
C745 C743 1.390 . S
C745 H755 0.929 . S
C746 O726 1.255 . S
C746 O727 1.257 . S
C747 Eu683 2.787 . S
C747 O722 1.252 . S
C747 O725 1.268 1_455 S
C747 C740 1.506 . S
H748 C731 0.931 . S
H749 C732 0.931 . S
H750 C733 0.929 . S
H751 C734 0.930 . S
H752 C742 0.931 . S
H753 C743 0.931 . S
H754 C744 0.930 . S
H755 C745 0.929 . S
Eu756 N785 2.600 . S
Eu756 N791 2.562 . S
Eu756 O800 2.462 . S
Eu756 O801 2.373 . S
Eu756 O803 2.432 . S
Eu756 O804 2.291 . S
Eu756 O808 2.335 . S
Eu756 O811 2.372 . S
Eu756 C820 2.787 . S
C757 N758 1.365 . S
C757 C760 1.405 . S
C757 C764 1.448 . S
N758 C757 1.365 . S
N758 C761 1.319 . S
N758 Eu767 2.600 . S
C759 C761 1.397 . S
C759 C762 1.367 . S
C759 H779 0.931 . S
C760 C757 1.405 . S
C760 C762 1.403 . S
C760 C766 1.439 . S
C761 N758 1.319 . S
C761 C759 1.397 . S
C761 H772 0.930 . S
C762 C759 1.367 . S
C762 C760 1.403 . S
C762 H783 0.929 . S
C763 C764 1.430 . S
C763 C765 1.387 . S
C763 C769 1.404 . S
C764 C757 1.448 . S
C764 C763 1.430 . S
C764 N768 1.351 . S
C765 C763 1.387 . S
C765 C766 1.374 . S
C765 H780 0.931 . S
C766 C760 1.439 . S
C766 C765 1.374 . S
C766 H781 0.931 . S
Eu767 N758 2.600 . S
Eu767 N768 2.562 . S
Eu767 O802 2.335 . S
Eu767 O805 2.372 . S
Eu767 O806 2.462 . S
Eu767 O807 2.373 . S
Eu767 O809 2.432 . S
Eu767 O810 2.291 . S
Eu767 C831 2.787 . S
N768 C764 1.351 . S
N768 Eu767 2.562 . S
N768 C770 1.325 . S
C769 C763 1.404 . S
C769 C771 1.366 . S
C769 H777 0.930 . S
C770 N768 1.325 . S
C770 C771 1.416 . S
C770 H776 0.929 . S
C771 C769 1.366 . S
C771 C770 1.416 . S
C771 H773 0.930 . S
H772 C761 0.930 . S
H773 C771 0.930 . S
H774 C789 0.930 . S
H775 C796 0.930 . S
H776 C770 0.929 . S
H777 C769 0.930 . S
H778 C792 0.929 . S
H779 C759 0.931 . S
H780 C765 0.931 . S
H781 C766 0.931 . S
H782 C787 0.931 . S
H783 C762 0.929 . S
H784 C795 0.930 . S
N785 Eu756 2.600 . S
N785 C786 1.365 . S
N785 C789 1.319 . S
C786 N785 1.365 . S
C786 C788 1.405 . S
C786 C794 1.448 . S
C787 H782 0.931 . S
C787 C789 1.397 . S
C787 C790 1.367 . S
C788 C786 1.405 . S
C788 C790 1.403 . S
C788 C821 1.439 . S
C789 H774 0.930 . S
C789 N785 1.319 . S
C789 C787 1.397 . S
C790 C787 1.367 . S
C790 C788 1.403 . S
C790 H797 0.929 . S
N791 Eu756 2.562 . S
N791 C792 1.325 . S
N791 C794 1.351 . S
C792 H778 0.929 . S
C792 N791 1.325 . S
C792 C796 1.416 . S
C793 C794 1.430 . S
C793 C795 1.404 . S
C793 C822 1.387 . S
C794 C786 1.448 . S
C794 N791 1.351 . S
C794 C793 1.430 . S
C795 H784 0.930 . S
C795 C793 1.404 . S
C795 C796 1.366 . S
C796 H775 0.930 . S
C796 C792 1.416 . S
C796 C795 1.366 . S
H797 C790 0.929 . S
H798 C821 0.931 . S
H799 C822 0.931 . S
O800 Eu756 2.462 . S
O800 C820 1.252 . S
O801 Eu756 2.373 . S
O801 C812 1.249 . S
O802 Eu767 2.335 . S
O802 C812 1.264 . S
O803 Eu756 2.432 . S
O803 C820 1.268 . S
O804 Eu756 2.291 . S
O804 C819 1.255 . S
O805 Eu767 2.372 . S
O805 C819 1.257 . S
O806 Eu767 2.462 . S
O806 C831 1.252 . S
O807 Eu767 2.373 . S
O807 C823 1.249 . S
O808 Eu756 2.335 . S
O808 C823 1.264 . S
O809 Eu767 2.432 . S
O809 C831 1.268 . S
O810 Eu767 2.291 . S
O810 C830 1.255 . S
O811 Eu756 2.372 . S
O811 C830 1.257 . S
C812 O801 1.249 . S
C812 O802 1.264 . S
C813 C816 1.382 . S
C813 C818 1.390 . S
C813 C820 1.506 . S
C814 C815 1.398 . S
C814 C818 1.392 . S
C815 C814 1.398 . S
C815 C817 1.372 . S
C815 H832 0.931 . S
C816 C813 1.382 . S
C816 C817 1.390 . S
C816 H833 0.931 . S
C817 C815 1.372 . S
C817 C816 1.390 . S
C817 H834 0.929 . S
C818 C813 1.390 . S
C818 C814 1.392 . S
C818 H835 0.930 . S
C819 O804 1.255 . S
C819 O805 1.257 . S
C820 Eu756 2.787 . S
C820 O800 1.252 . S
C820 O803 1.268 . S
C820 C813 1.506 . S
C821 C788 1.439 . S
C821 H798 0.931 . S
C821 C822 1.374 . S
C822 C793 1.387 . S
C822 H799 0.931 . S
C822 C821 1.374 . S
C823 O807 1.249 . S
C823 O808 1.264 . S
C824 C827 1.382 . S
C824 C828 1.390 . S
C824 C831 1.506 . S
C825 C826 1.398 . S
C825 C828 1.392 . S
C826 C825 1.398 . S
C826 C829 1.372 . S
C826 H836 0.931 . S
C827 C824 1.382 . S
C827 C829 1.390 . S
C827 H837 0.931 . S
C828 C824 1.390 . S
C828 C825 1.392 . S
C828 H838 0.930 . S
C829 C826 1.372 . S
C829 C827 1.390 . S
C829 H839 0.929 . S
C830 O810 1.255 . S
C830 O811 1.257 . S
C831 Eu767 2.787 . S
C831 O806 1.252 . S
C831 O809 1.268 . S
C831 C824 1.506 . S
H832 C815 0.931 . S
H833 C816 0.931 . S
H834 C817 0.929 . S
H835 C818 0.930 . S
H836 C826 0.931 . S
H837 C827 0.931 . S
H838 C828 0.930 . S
H839 C829 0.929 . S
Eu840 N869 2.600 . S
Eu840 N875 2.562 . S
Eu840 O884 2.462 . S
Eu840 O885 2.373 1_556 S
Eu840 O887 2.432 . S
Eu840 O888 2.291 . S
Eu840 O892 2.335 1_556 S
Eu840 O895 2.372 1_556 S
Eu840 C904 2.787 . S
C841 N842 1.361 1_545 S
C841 C844 1.391 1_545 S
C841 C848 1.467 . S
N842 C841 1.361 1_565 S
N842 C845 1.319 . S
N842 Eu851 2.600 1_565 S
C843 C845 1.397 . S
C843 C846 1.367 . S
C843 H863 0.931 . S
C844 C841 1.391 1_565 S
C844 C846 1.403 . S
C844 C850 1.433 1_565 S
C845 N842 1.319 . S
C845 C843 1.397 . S
C845 H856 0.930 . S
C846 C843 1.367 . S
C846 C844 1.403 . S
C846 H867 0.929 . S
C847 C848 1.430 . S
C847 C849 1.387 . S
C847 C853 1.404 . S
C848 C841 1.467 . S
C848 C847 1.430 . S
C848 N852 1.351 . S
C849 C847 1.387 . S
C849 C850 1.397 . S
C849 H864 0.931 . S
C850 C844 1.433 1_545 S
C850 C849 1.397 . S
C850 H865 0.915 1_545 S
Eu851 N842 2.600 1_545 S
Eu851 N852 2.562 . S
Eu851 O886 2.335 . S
Eu851 O889 2.372 1_545 S
Eu851 O890 2.462 . S
Eu851 O891 2.373 . S
Eu851 O893 2.432 1_545 S
Eu851 O894 2.291 . S
Eu851 C915 2.787 . S
N852 C848 1.351 . S
N852 Eu851 2.562 . S
N852 C854 1.325 . S
C853 C847 1.404 . S
C853 C855 1.366 . S
C853 H861 0.930 . S
C854 N852 1.325 . S
C854 C855 1.416 . S
C854 H860 0.929 . S
C855 C853 1.366 . S
C855 C854 1.416 . S
C855 H857 0.930 . S
H856 C845 0.930 . S
H857 C855 0.930 . S
H858 C873 0.914 1_554 S
H859 C880 0.930 . S
H860 C854 0.929 . S
H861 C853 0.930 . S
H862 C876 0.929 1_565 S
H863 C843 0.931 . S
H864 C849 0.931 . S
H865 C850 0.915 1_565 S
H866 C871 0.931 . S
H867 C846 0.929 . S
H868 C879 0.930 1_565 S
N869 Eu840 2.600 . S
N869 C870 1.365 . S
N869 C873 1.319 . S
C870 N869 1.365 . S
C870 C872 1.405 . S
C870 C878 1.448 . S
C871 H866 0.931 . S
C871 C873 1.397 . S
C871 C874 1.367 . S
C872 C870 1.405 . S
C872 C874 1.403 . S
C872 C905 1.439 . S
C873 H858 0.914 1_556 S
C873 N869 1.319 . S
C873 C871 1.397 . S
C874 C871 1.367 . S
C874 C872 1.403 . S
C874 H881 0.929 . S
N875 Eu840 2.562 . S
N875 C876 1.325 . S
N875 C878 1.351 . S
C876 H862 0.929 1_545 S
C876 N875 1.325 . S
C876 C880 1.416 1_545 S
C877 C878 1.430 . S
C877 C879 1.404 . S
C877 C906 1.387 . S
C878 C870 1.448 . S
C878 N875 1.351 . S
C878 C877 1.430 . S
C879 H868 0.930 1_545 S
C879 C877 1.404 . S
C879 C880 1.366 1_545 S
C880 H859 0.930 . S
C880 C876 1.416 1_565 S
C880 C879 1.366 1_565 S
H881 C874 0.929 . S
H882 C905 0.931 . S
H883 C906 0.931 . S
O884 Eu840 2.462 . S
O884 C904 1.252 . S
O885 Eu840 2.373 1_554 S
O885 C896 1.249 . S
O886 Eu851 2.335 . S
O886 C896 1.264 . S
O887 Eu840 2.432 . S
O887 C904 1.268 . S
O888 Eu840 2.291 . S
O888 C903 1.255 1_546 S
O889 Eu851 2.372 1_565 S
O889 C903 1.257 . S
O890 Eu851 2.462 . S
O890 C915 1.252 . S
O891 Eu851 2.373 . S
O891 C907 1.249 . S
O892 Eu840 2.335 1_554 S
O892 C907 1.264 . S
O893 Eu851 2.432 1_565 S
O893 C915 1.268 1_565 S
O894 Eu851 2.291 . S
O894 C914 1.255 . S
O895 Eu840 2.372 1_554 S
O895 C914 1.257 . S
C896 O885 1.249 . S
C896 O886 1.264 . S
C897 C900 1.382 . S
C897 C902 1.390 . S
C897 C904 1.506 . S
C898 C899 1.398 . S
C898 C902 1.392 . S
C899 C898 1.398 . S
C899 C901 1.372 . S
C899 H916 0.931 . S
C900 C897 1.382 . S
C900 C901 1.390 . S
C900 H917 0.931 . S
C901 C899 1.372 . S
C901 C900 1.390 . S
C901 H918 0.929 . S
C902 C897 1.390 . S
C902 C898 1.392 . S
C902 H919 0.930 . S
C903 O888 1.255 1_564 S
C903 O889 1.257 . S
C904 Eu840 2.787 . S
C904 O884 1.252 . S
C904 O887 1.268 . S
C904 C897 1.506 . S
C905 C872 1.439 . S
C905 H882 0.931 . S
C905 C906 1.374 . S
C906 C877 1.387 . S
C906 H883 0.931 . S
C906 C905 1.374 . S
C907 O891 1.249 . S
C907 O892 1.264 . S
C908 C911 1.382 . S
C908 C912 1.390 1_565 S
C908 C915 1.506 1_565 S
C909 C910 1.398 1_545 S
C909 C912 1.392 . S
C910 C909 1.398 1_565 S
C910 C913 1.372 . S
C910 H920 0.931 . S
C911 C908 1.382 . S
C911 C913 1.390 . S
C911 H921 0.931 . S
C912 C908 1.390 1_545 S
C912 C909 1.392 . S
C912 H922 0.930 . S
C913 C910 1.372 . S
C913 C911 1.390 . S
C913 H923 0.929 . S
C914 O894 1.255 . S
C914 O895 1.257 . S
C915 Eu851 2.787 . S
C915 O890 1.252 . S
C915 O893 1.268 1_545 S
C915 C908 1.506 1_545 S
H916 C899 0.931 . S
H917 C900 0.931 . S
H918 C901 0.929 . S
H919 C902 0.930 . S
H920 C910 0.931 . S
H921 C911 0.931 . S
H922 C912 0.930 . S
H923 C913 0.929 . S
Eu924 N953 2.600 . S
Eu924 N959 2.562 . S
Eu924 O968 2.462 . S
Eu924 O969 2.373 . S
Eu924 O971 2.432 . S
Eu924 O972 2.291 . S
Eu924 O976 2.335 . S
Eu924 O979 2.372 . S
Eu924 C988 2.787 . S
C925 N926 1.365 . S
C925 C928 1.405 . S
C925 C932 1.448 . S
N926 C925 1.365 . S
N926 C929 1.319 . S
N926 Eu935 2.600 . S
C927 C929 1.397 . S
C927 C930 1.367 . S
C927 H947 0.931 . S
C928 C925 1.405 . S
C928 C930 1.403 . S
C928 C934 1.439 . S
C929 N926 1.319 . S
C929 C927 1.397 . S
C929 H940 0.930 . S
C930 C927 1.367 . S
C930 C928 1.403 . S
C930 H951 0.929 . S
C931 C932 1.430 . S
C931 C933 1.387 . S
C931 C937 1.404 . S
C932 C925 1.448 . S
C932 C931 1.430 . S
C932 N936 1.351 . S
C933 C931 1.387 . S
C933 C934 1.374 . S
C933 H948 0.931 . S
C934 C928 1.439 . S
C934 C933 1.374 . S
C934 H949 0.931 . S
Eu935 N926 2.600 . S
Eu935 N936 2.562 . S
Eu935 O970 2.335 . S
Eu935 O973 2.372 . S
Eu935 O974 2.462 . S
Eu935 O975 2.373 . S
Eu935 O977 2.432 . S
Eu935 O978 2.291 . S
Eu935 C999 2.787 . S
N936 C932 1.351 . S
N936 Eu935 2.562 . S
N936 C938 1.325 . S
C937 C931 1.404 . S
C937 C939 1.366 . S
C937 H945 0.930 . S
C938 N936 1.325 . S
C938 C939 1.416 . S
C938 H944 0.929 . S
C939 C937 1.366 . S
C939 C938 1.416 . S
C939 H941 0.930 . S
H940 C929 0.930 . S
H941 C939 0.930 . S
H942 C957 0.930 . S
H943 C964 0.930 . S
H944 C938 0.929 . S
H945 C937 0.930 . S
H946 C960 0.929 . S
H947 C927 0.931 . S
H948 C933 0.931 . S
H949 C934 0.931 . S
H950 C955 0.931 . S
H951 C930 0.929 . S
H952 C963 0.930 . S
N953 Eu924 2.600 . S
N953 C954 1.365 . S
N953 C957 1.319 . S
C954 N953 1.365 . S
C954 C956 1.405 . S
C954 C962 1.448 . S
C955 H950 0.931 . S
C955 C957 1.397 . S
C955 C958 1.367 . S
C956 C954 1.405 . S
C956 C958 1.403 . S
C956 C989 1.439 . S
C957 H942 0.930 . S
C957 N953 1.319 . S
C957 C955 1.397 . S
C958 C955 1.367 . S
C958 C956 1.403 . S
C958 H965 0.929 . S
N959 Eu924 2.562 . S
N959 C960 1.325 . S
N959 C962 1.351 . S
C960 H946 0.929 . S
C960 N959 1.325 . S
C960 C964 1.416 . S
C961 C962 1.430 . S
C961 C963 1.404 . S
C961 C990 1.387 . S
C962 C954 1.448 . S
C962 N959 1.351 . S
C962 C961 1.430 . S
C963 H952 0.930 . S
C963 C961 1.404 . S
C963 C964 1.366 . S
C964 H943 0.930 . S
C964 C960 1.416 . S
C964 C963 1.366 . S
H965 C958 0.929 . S
H966 C989 0.931 . S
H967 C990 0.931 . S
O968 Eu924 2.462 . S
O968 C988 1.252 . S
O969 Eu924 2.373 . S
O969 C980 1.249 . S
O970 Eu935 2.335 . S
O970 C980 1.264 . S
O971 Eu924 2.432 . S
O971 C988 1.268 . S
O972 Eu924 2.291 . S
O972 C987 1.255 . S
O973 Eu935 2.372 . S
O973 C987 1.257 . S
O974 Eu935 2.462 . S
O974 C999 1.252 . S
O975 Eu935 2.373 . S
O975 C991 1.249 . S
O976 Eu924 2.335 . S
O976 C991 1.264 . S
O977 Eu935 2.432 . S
O977 C999 1.268 . S
O978 Eu935 2.291 . S
O978 C998 1.255 . S
O979 Eu924 2.372 . S
O979 C998 1.257 . S
C980 O969 1.249 . S
C980 O970 1.264 . S
C981 C984 1.382 . S
C981 C986 1.390 . S
C981 C988 1.506 . S
C982 C983 1.398 . S
C982 C986 1.392 . S
C983 C982 1.398 . S
C983 C985 1.372 . S
C983 H1000 0.931 . S
C984 C981 1.382 . S
C984 C985 1.390 . S
C984 H1001 0.931 . S
C985 C983 1.372 . S
C985 C984 1.390 . S
C985 H1002 0.929 . S
C986 C981 1.390 . S
C986 C982 1.392 . S
C986 H1003 0.930 . S
C987 O972 1.255 . S
C987 O973 1.257 . S
C988 Eu924 2.787 . S
C988 O968 1.252 . S
C988 O971 1.268 . S
C988 C981 1.506 . S
C989 C956 1.439 . S
C989 H966 0.931 . S
C989 C990 1.374 . S
C990 C961 1.387 . S
C990 H967 0.931 . S
C990 C989 1.374 . S
C991 O975 1.249 . S
C991 O976 1.264 . S
C992 C995 1.382 . S
C992 C996 1.390 . S
C992 C999 1.506 . S
C993 C994 1.398 . S
C993 C996 1.392 . S
C994 C993 1.398 . S
C994 C997 1.372 . S
C994 H1004 0.931 . S
C995 C992 1.382 . S
C995 C997 1.390 . S
C995 H1005 0.931 . S
C996 C992 1.390 . S
C996 C993 1.392 . S
C996 H1006 0.930 . S
C997 C994 1.372 . S
C997 C995 1.390 . S
C997 H1007 0.929 . S
C998 O978 1.255 . S
C998 O979 1.257 . S
C999 Eu935 2.787 . S
C999 O974 1.252 . S
C999 O977 1.268 . S
C999 C992 1.506 . S
H1000 C983 0.931 . S
H1001 C984 0.931 . S
H1002 C985 0.929 . S
H1003 C986 0.930 . S
H1004 C994 0.931 . S
H1005 C995 0.931 . S
H1006 C996 0.930 . S
H1007 C997 0.929 . S
Eu1008 N1037 2.600 1_554 S
Eu1008 N1043 2.562 1_554 S
Eu1008 O1052 2.462 . S
Eu1008 O1053 2.373 1_554 S
Eu1008 O1055 2.432 . S
Eu1008 O1056 2.291 . S
Eu1008 O1060 2.335 . S
Eu1008 O1063 2.372 . S
Eu1008 C1072 2.787 . S
C1009 N1010 1.365 . S
C1009 C1012 1.405 . S
C1009 C1016 1.448 . S
N1010 C1009 1.365 . S
N1010 C1013 1.319 . S
N1010 Eu1019 2.600 . S
C1011 C1013 1.397 . S
C1011 C1014 1.367 . S
C1011 H1031 0.931 . S
C1012 C1009 1.405 . S
C1012 C1014 1.403 . S
C1012 C1018 1.439 . S
C1013 N1010 1.319 . S
C1013 C1011 1.397 . S
C1013 H1024 0.930 . S
C1014 C1011 1.367 . S
C1014 C1012 1.403 . S
C1014 H1035 0.929 . S
C1015 C1016 1.430 . S
C1015 C1017 1.387 . S
C1015 C1021 1.404 . S
C1016 C1009 1.448 . S
C1016 C1015 1.430 . S
C1016 N1020 1.351 . S
C1017 C1015 1.387 . S
C1017 C1018 1.374 . S
C1017 H1032 0.931 . S
C1018 C1012 1.439 . S
C1018 C1017 1.374 . S
C1018 H1033 0.931 . S
Eu1019 N1010 2.600 . S
Eu1019 N1020 2.562 . S
Eu1019 O1054 2.335 1_554 S
Eu1019 O1057 2.372 . S
Eu1019 O1058 2.462 . S
Eu1019 O1059 2.373 . S
Eu1019 O1061 2.432 . S
Eu1019 O1062 2.291 . S
Eu1019 C1083 2.787 . S
N1020 C1016 1.351 . S
N1020 Eu1019 2.562 . S
N1020 C1022 1.325 . S
C1021 C1015 1.404 . S
C1021 C1023 1.366 . S
C1021 H1029 0.930 . S
C1022 N1020 1.325 . S
C1022 C1023 1.416 . S
C1022 H1028 0.929 . S
C1023 C1021 1.366 . S
C1023 C1022 1.416 . S
C1023 H1025 0.930 . S
H1024 C1013 0.930 . S
H1025 C1023 0.930 . S
H1026 C1041 0.930 1_554 S
H1027 C1048 0.930 . S
H1028 C1022 0.929 . S
H1029 C1021 0.930 . S
H1030 C1044 0.928 1_554 S
H1031 C1011 0.931 . S
H1032 C1017 0.931 . S
H1033 C1018 0.931 . S
H1034 C1039 0.931 . S
H1035 C1014 0.929 . S
H1036 C1047 0.930 . S
N1037 Eu1008 2.600 1_556 S
N1037 C1038 1.365 . S
N1037 C1041 1.319 . S
C1038 N1037 1.365 . S
C1038 C1040 1.405 . S
C1038 C1046 1.448 . S
C1039 H1034 0.931 . S
C1039 C1041 1.397 . S
C1039 C1042 1.367 . S
C1040 C1038 1.405 . S
C1040 C1042 1.403 . S
C1040 C1073 1.439 . S
C1041 H1026 0.930 1_556 S
C1041 N1037 1.319 . S
C1041 C1039 1.397 . S
C1042 C1039 1.367 . S
C1042 C1040 1.403 . S
C1042 H1049 0.929 . S
N1043 Eu1008 2.562 1_556 S
N1043 C1044 1.325 . S
N1043 C1046 1.351 . S
C1044 H1030 0.928 1_556 S
C1044 N1043 1.325 . S
C1044 C1048 1.416 . S
C1045 C1046 1.430 . S
C1045 C1047 1.404 . S
C1045 C1074 1.387 . S
C1046 C1038 1.448 . S
C1046 N1043 1.351 . S
C1046 C1045 1.430 . S
C1047 H1036 0.930 . S
C1047 C1045 1.404 . S
C1047 C1048 1.366 . S
C1048 H1027 0.930 . S
C1048 C1044 1.416 . S
C1048 C1047 1.366 . S
H1049 C1042 0.929 . S
H1050 C1073 0.931 . S
H1051 C1074 0.931 . S
O1052 Eu1008 2.462 . S
O1052 C1072 1.252 . S
O1053 Eu1008 2.373 1_556 S
O1053 C1064 1.249 . S
O1054 Eu1019 2.335 1_556 S
O1054 C1064 1.264 . S
O1055 Eu1008 2.432 . S
O1055 C1072 1.268 . S
O1056 Eu1008 2.291 . S
O1056 C1071 1.255 . S
O1057 Eu1019 2.372 . S
O1057 C1071 1.257 . S
O1058 Eu1019 2.462 . S
O1058 C1083 1.252 . S
O1059 Eu1019 2.373 . S
O1059 C1075 1.249 . S
O1060 Eu1008 2.335 . S
O1060 C1075 1.264 . S
O1061 Eu1019 2.432 . S
O1061 C1083 1.268 . S
O1062 Eu1019 2.291 . S
O1062 C1082 1.255 . S
O1063 Eu1008 2.372 . S
O1063 C1082 1.257 . S
C1064 O1053 1.249 . S
C1064 O1054 1.264 . S
C1065 C1068 1.382 . S
C1065 C1070 1.390 . S
C1065 C1072 1.506 . S
C1066 C1067 1.398 . S
C1066 C1070 1.392 . S
C1067 C1066 1.398 . S
C1067 C1069 1.372 . S
C1067 H1084 0.931 . S
C1068 C1065 1.382 . S
C1068 C1069 1.390 . S
C1068 H1085 0.931 . S
C1069 C1067 1.372 . S
C1069 C1068 1.390 . S
C1069 H1086 0.929 . S
C1070 C1065 1.390 . S
C1070 C1066 1.392 . S
C1070 H1087 0.930 . S
C1071 O1056 1.255 . S
C1071 O1057 1.257 . S
C1072 Eu1008 2.787 . S
C1072 O1052 1.252 . S
C1072 O1055 1.268 . S
C1072 C1065 1.506 . S
C1073 C1040 1.439 . S
C1073 H1050 0.931 . S
C1073 C1074 1.374 . S
C1074 C1045 1.387 . S
C1074 H1051 0.931 . S
C1074 C1073 1.374 . S
C1075 O1059 1.249 . S
C1075 O1060 1.264 . S
C1076 C1079 1.382 . S
C1076 C1080 1.390 . S
C1076 C1083 1.506 1_556 S
C1077 C1078 1.398 . S
C1077 C1080 1.392 . S
C1078 C1077 1.398 . S
C1078 C1081 1.372 . S
C1078 H1088 0.931 . S
C1079 C1076 1.382 . S
C1079 C1081 1.390 . S
C1079 H1089 0.950 . S
C1080 C1076 1.390 . S
C1080 C1077 1.392 . S
C1080 H1090 0.930 . S
C1081 C1078 1.372 . S
C1081 C1079 1.390 . S
C1081 H1091 0.929 . S
C1082 O1062 1.255 . S
C1082 O1063 1.257 . S
C1083 Eu1019 2.787 . S
C1083 O1058 1.252 . S
C1083 O1061 1.268 . S
C1083 C1076 1.506 1_554 S
H1084 C1067 0.931 . S
H1085 C1068 0.931 . S
H1086 C1069 0.929 . S
H1087 C1070 0.930 . S
H1088 C1078 0.931 . S
H1089 C1079 0.950 . S
H1090 C1080 0.930 . S
H1091 C1081 0.929 . S
Eu1092 N1121 2.600 . S
Eu1092 N1127 2.562 . S
Eu1092 O1136 2.462 . S
Eu1092 O1137 2.373 . S
Eu1092 O1139 2.432 . S
Eu1092 O1140 2.291 . S
Eu1092 O1144 2.335 . S
Eu1092 O1147 2.372 . S
Eu1092 C1156 2.787 . S
C1093 N1094 1.365 . S
C1093 C1096 1.405 . S
C1093 C1100 1.448 . S
N1094 C1093 1.365 . S
N1094 C1097 1.319 . S
N1094 Eu1103 2.600 . S
C1095 C1097 1.397 . S
C1095 C1098 1.367 . S
C1095 H1115 0.931 . S
C1096 C1093 1.405 . S
C1096 C1098 1.403 . S
C1096 C1102 1.439 . S
C1097 N1094 1.319 . S
C1097 C1095 1.397 . S
C1097 H1108 0.930 . S
C1098 C1095 1.367 . S
C1098 C1096 1.403 . S
C1098 H1119 0.929 . S
C1099 C1100 1.430 . S
C1099 C1101 1.387 . S
C1099 C1105 1.404 . S
C1100 C1093 1.448 . S
C1100 C1099 1.430 . S
C1100 N1104 1.351 . S
C1101 C1099 1.387 . S
C1101 C1102 1.374 . S
C1101 H1116 0.931 . S
C1102 C1096 1.439 . S
C1102 C1101 1.374 . S
C1102 H1117 0.931 . S
Eu1103 N1094 2.600 . S
Eu1103 N1104 2.562 . S
Eu1103 O1138 2.335 . S
Eu1103 O1141 2.372 . S
Eu1103 O1142 2.462 . S
Eu1103 O1143 2.373 . S
Eu1103 O1145 2.432 . S
Eu1103 O1146 2.291 . S
Eu1103 C1167 2.787 . S
N1104 C1100 1.351 . S
N1104 Eu1103 2.562 . S
N1104 C1106 1.325 . S
C1105 C1099 1.404 . S
C1105 C1107 1.366 . S
C1105 H1113 0.930 . S
C1106 N1104 1.325 . S
C1106 C1107 1.416 . S
C1106 H1112 0.929 . S
C1107 C1105 1.366 . S
C1107 C1106 1.416 . S
C1107 H1109 0.930 . S
H1108 C1097 0.930 . S
H1109 C1107 0.930 . S
H1110 C1125 0.930 . S
H1111 C1132 0.930 . S
H1112 C1106 0.929 . S
H1113 C1105 0.930 . S
H1114 C1128 0.929 . S
H1115 C1095 0.931 . S
H1116 C1101 0.931 . S
H1117 C1102 0.931 . S
H1118 C1123 0.931 . S
H1119 C1098 0.929 . S
H1120 C1131 0.930 . S
N1121 Eu1092 2.600 . S
N1121 C1122 1.365 . S
N1121 C1125 1.319 . S
C1122 N1121 1.365 . S
C1122 C1124 1.405 . S
C1122 C1130 1.448 . S
C1123 H1118 0.931 . S
C1123 C1125 1.397 . S
C1123 C1126 1.367 . S
C1124 C1122 1.405 . S
C1124 C1126 1.403 . S
C1124 C1157 1.439 . S
C1125 H1110 0.930 . S
C1125 N1121 1.319 . S
C1125 C1123 1.397 . S
C1126 C1123 1.367 . S
C1126 C1124 1.403 . S
C1126 H1133 0.929 . S
N1127 Eu1092 2.562 . S
N1127 C1128 1.325 . S
N1127 C1130 1.351 . S
C1128 H1114 0.929 . S
C1128 N1127 1.325 . S
C1128 C1132 1.416 . S
C1129 C1130 1.430 . S
C1129 C1131 1.404 . S
C1129 C1158 1.387 . S
C1130 C1122 1.448 . S
C1130 N1127 1.351 . S
C1130 C1129 1.430 . S
C1131 H1120 0.930 . S
C1131 C1129 1.404 . S
C1131 C1132 1.366 . S
C1132 H1111 0.930 . S
C1132 C1128 1.416 . S
C1132 C1131 1.366 . S
H1133 C1126 0.929 . S
H1134 C1157 0.931 . S
H1135 C1158 0.931 . S
O1136 Eu1092 2.462 . S
O1136 C1156 1.252 . S
O1137 Eu1092 2.373 . S
O1137 C1148 1.249 . S
O1138 Eu1103 2.335 . S
O1138 C1148 1.264 . S
O1139 Eu1092 2.432 . S
O1139 C1156 1.268 . S
O1140 Eu1092 2.291 . S
O1140 C1155 1.255 . S
O1141 Eu1103 2.372 . S
O1141 C1155 1.257 . S
O1142 Eu1103 2.462 . S
O1142 C1167 1.252 . S
O1143 Eu1103 2.373 . S
O1143 C1159 1.249 . S
O1144 Eu1092 2.335 . S
O1144 C1159 1.264 . S
O1145 Eu1103 2.432 . S
O1145 C1167 1.268 . S
O1146 Eu1103 2.291 . S
O1146 C1166 1.255 . S
O1147 Eu1092 2.372 . S
O1147 C1166 1.257 . S
C1148 O1137 1.249 . S
C1148 O1138 1.264 . S
C1149 C1152 1.382 . S
C1149 C1154 1.390 . S
C1149 C1156 1.506 . S
C1150 C1151 1.398 . S
C1150 C1154 1.392 . S
C1151 C1150 1.398 . S
C1151 C1153 1.372 . S
C1151 H1168 0.931 . S
C1152 C1149 1.382 . S
C1152 C1153 1.390 . S
C1152 H1169 0.931 . S
C1153 C1151 1.372 . S
C1153 C1152 1.390 . S
C1153 H1170 0.929 . S
C1154 C1149 1.390 . S
C1154 C1150 1.392 . S
C1154 H1171 0.930 . S
C1155 O1140 1.255 . S
C1155 O1141 1.257 . S
C1156 Eu1092 2.787 . S
C1156 O1136 1.252 . S
C1156 O1139 1.268 . S
C1156 C1149 1.506 . S
C1157 C1124 1.439 . S
C1157 H1134 0.931 . S
C1157 C1158 1.374 . S
C1158 C1129 1.387 . S
C1158 H1135 0.931 . S
C1158 C1157 1.374 . S
C1159 O1143 1.249 . S
C1159 O1144 1.264 . S
C1160 C1163 1.382 . S
C1160 C1164 1.390 . S
C1160 C1167 1.506 . S
C1161 C1162 1.398 . S
C1161 C1164 1.392 . S
C1162 C1161 1.398 . S
C1162 C1165 1.372 . S
C1162 H1172 0.931 . S
C1163 C1160 1.382 . S
C1163 C1165 1.390 . S
C1163 H1173 0.931 . S
C1164 C1160 1.390 . S
C1164 C1161 1.392 . S
C1164 H1174 0.930 . S
C1165 C1162 1.372 . S
C1165 C1163 1.390 . S
C1165 H1175 0.929 . S
C1166 O1146 1.255 . S
C1166 O1147 1.257 . S
C1167 Eu1103 2.787 . S
C1167 O1142 1.252 . S
C1167 O1145 1.268 . S
C1167 C1160 1.506 . S
H1168 C1151 0.931 . S
H1169 C1152 0.931 . S
H1170 C1153 0.929 . S
H1171 C1154 0.930 . S
H1172 C1162 0.931 . S
H1173 C1163 0.931 . S
H1174 C1164 0.930 . S
H1175 C1165 0.929 . S
Eu1176 N1205 2.600 1_455 S
Eu1176 N1211 2.562 1_455 S
Eu1176 O1220 2.462 . S
Eu1176 O1221 2.373 1_455 S
Eu1176 O1223 2.432 . S
Eu1176 O1224 2.291 . S
Eu1176 O1228 2.335 . S
Eu1176 O1231 2.372 . S
Eu1176 C1240 2.787 . S
C1177 N1178 1.365 . S
C1177 C1180 1.405 . S
C1177 C1184 1.448 . S
N1178 C1177 1.365 . S
N1178 C1181 1.319 . S
N1178 Eu1187 2.600 . S
C1179 C1181 1.397 . S
C1179 C1182 1.367 . S
C1179 H1199 0.931 . S
C1180 C1177 1.405 . S
C1180 C1182 1.403 . S
C1180 C1186 1.439 . S
C1181 N1178 1.319 . S
C1181 C1179 1.397 . S
C1181 H1192 0.930 . S
C1182 C1179 1.367 . S
C1182 C1180 1.403 . S
C1182 H1203 0.929 . S
C1183 C1184 1.430 . S
C1183 C1185 1.387 . S
C1183 C1189 1.404 . S
C1184 C1177 1.448 . S
C1184 C1183 1.430 . S
C1184 N1188 1.351 . S
C1185 C1183 1.387 . S
C1185 C1186 1.374 . S
C1185 H1200 0.931 . S
C1186 C1180 1.439 . S
C1186 C1185 1.374 . S
C1186 H1201 0.931 . S
Eu1187 N1178 2.600 . S
Eu1187 N1188 2.562 . S
Eu1187 O1222 2.335 1_455 S
Eu1187 O1225 2.372 . S
Eu1187 O1226 2.462 . S
Eu1187 O1227 2.373 . S
Eu1187 O1229 2.432 . S
Eu1187 O1230 2.291 . S
Eu1187 C1251 2.787 . S
N1188 C1184 1.351 . S
N1188 Eu1187 2.562 . S
N1188 C1190 1.325 . S
C1189 C1183 1.404 . S
C1189 C1191 1.366 . S
C1189 H1197 0.930 . S
C1190 N1188 1.325 . S
C1190 C1191 1.416 . S
C1190 H1196 0.929 . S
C1191 C1189 1.366 . S
C1191 C1190 1.416 . S
C1191 H1193 0.930 . S
H1192 C1181 0.930 . S
H1193 C1191 0.930 . S
H1194 C1209 0.912 1_455 S
H1195 C1216 0.930 . S
H1196 C1190 0.929 . S
H1197 C1189 0.930 . S
H1198 C1212 0.929 1_455 S
H1199 C1179 0.931 . S
H1200 C1185 0.931 . S
H1201 C1186 0.931 . S
H1202 C1207 0.931 . S
H1203 C1182 0.929 . S
H1204 C1215 0.930 . S
N1205 Eu1176 2.600 1_655 S
N1205 C1206 1.365 . S
N1205 C1209 1.315 . S
C1206 N1205 1.365 . S
C1206 C1208 1.405 . S
C1206 C1214 1.448 . S
C1207 H1202 0.931 . S
C1207 C1209 1.418 . S
C1207 C1210 1.367 . S
C1208 C1206 1.405 . S
C1208 C1210 1.403 . S
C1208 C1241 1.439 . S
C1209 H1194 0.912 1_655 S
C1209 N1205 1.315 . S
C1209 C1207 1.418 . S
C1210 C1207 1.367 . S
C1210 C1208 1.403 . S
C1210 H1217 0.929 . S
N1211 Eu1176 2.562 1_655 S
N1211 C1212 1.325 . S
N1211 C1214 1.351 . S
C1212 H1198 0.929 1_655 S
C1212 N1211 1.325 . S
C1212 C1216 1.416 . S
C1213 C1214 1.430 . S
C1213 C1215 1.404 . S
C1213 C1242 1.387 . S
C1214 C1206 1.448 . S
C1214 N1211 1.351 . S
C1214 C1213 1.430 . S
C1215 H1204 0.930 . S
C1215 C1213 1.404 . S
C1215 C1216 1.366 . S
C1216 H1195 0.930 . S
C1216 C1212 1.416 . S
C1216 C1215 1.366 . S
H1217 C1210 0.929 . S
H1218 C1241 0.931 . S
H1219 C1242 0.931 . S
O1220 Eu1176 2.462 . S
O1220 C1240 1.252 . S
O1221 Eu1176 2.373 1_655 S
O1221 C1232 1.249 . S
O1222 Eu1187 2.335 1_655 S
O1222 C1232 1.264 . S
O1223 Eu1176 2.432 . S
O1223 C1240 1.268 . S
O1224 Eu1176 2.291 . S
O1224 C1239 1.255 . S
O1225 Eu1187 2.372 . S
O1225 C1239 1.257 . S
O1226 Eu1187 2.462 . S
O1226 C1251 1.252 . S
O1227 Eu1187 2.373 . S
O1227 C1243 1.249 . S
O1228 Eu1176 2.335 . S
O1228 C1243 1.264 . S
O1229 Eu1187 2.432 . S
O1229 C1251 1.268 . S
O1230 Eu1187 2.291 . S
O1230 C1250 1.255 . S
O1231 Eu1176 2.372 . S
O1231 C1250 1.257 . S
C1232 O1221 1.249 . S
C1232 O1222 1.264 . S
C1233 C1236 1.382 . S
C1233 C1238 1.390 . S
C1233 C1240 1.506 . S
C1234 C1235 1.398 . S
C1234 C1238 1.392 . S
C1235 C1234 1.398 . S
C1235 C1237 1.372 . S
C1235 H1252 0.931 . S
C1236 C1233 1.382 . S
C1236 C1237 1.390 . S
C1236 H1253 0.931 . S
C1237 C1235 1.372 . S
C1237 C1236 1.390 . S
C1237 H1254 0.929 . S
C1238 C1233 1.390 . S
C1238 C1234 1.392 . S
C1238 H1255 0.930 . S
C1239 O1224 1.255 . S
C1239 O1225 1.257 . S
C1240 Eu1176 2.787 . S
C1240 O1220 1.252 . S
C1240 O1223 1.268 . S
C1240 C1233 1.506 . S
C1241 C1208 1.439 . S
C1241 H1218 0.931 . S
C1241 C1242 1.374 . S
C1242 C1213 1.387 . S
C1242 H1219 0.931 . S
C1242 C1241 1.374 . S
C1243 O1227 1.249 . S
C1243 O1228 1.264 . S
C1244 C1247 1.382 . S
C1244 C1248 1.390 . S
C1244 C1251 1.506 1_655 S
C1245 C1246 1.398 . S
C1245 C1248 1.392 . S
C1246 C1245 1.398 . S
C1246 C1249 1.372 . S
C1246 H1256 0.931 . S
C1247 C1244 1.382 . S
C1247 C1249 1.390 . S
C1247 H1257 0.931 . S
C1248 C1244 1.390 . S
C1248 C1245 1.392 . S
C1248 H1258 0.930 . S
C1249 C1246 1.372 . S
C1249 C1247 1.390 . S
C1249 H1259 0.929 . S
C1250 O1230 1.255 . S
C1250 O1231 1.257 . S
C1251 Eu1187 2.787 . S
C1251 O1226 1.252 . S
C1251 O1229 1.268 . S
C1251 C1244 1.506 1_455 S
H1252 C1235 0.931 . S
H1253 C1236 0.931 . S
H1254 C1237 0.929 . S
H1255 C1238 0.930 . S
H1256 C1246 0.931 . S
H1257 C1247 0.931 . S
H1258 C1248 0.930 . S
H1259 C1249 0.929 . S
Eu1260 N1289 2.600 . S
Eu1260 N1295 2.562 . S
Eu1260 O1304 2.462 . S
Eu1260 O1305 2.373 . S
Eu1260 O1307 2.432 . S
Eu1260 O1308 2.291 . S
Eu1260 O1312 2.335 . S
Eu1260 O1315 2.372 . S
Eu1260 C1324 2.787 . S
C1261 N1262 1.365 . S
C1261 C1264 1.405 . S
C1261 C1268 1.448 . S
N1262 C1261 1.365 . S
N1262 C1265 1.319 . S
N1262 Eu1271 2.600 . S
C1263 C1265 1.397 . S
C1263 C1266 1.367 . S
C1263 H1283 0.931 . S
C1264 C1261 1.405 . S
C1264 C1266 1.403 . S
C1264 C1270 1.439 . S
C1265 N1262 1.319 . S
C1265 C1263 1.397 . S
C1265 H1276 0.930 . S
C1266 C1263 1.367 . S
C1266 C1264 1.403 . S
C1266 H1287 0.929 . S
C1267 C1268 1.430 . S
C1267 C1269 1.387 . S
C1267 C1273 1.404 . S
C1268 C1261 1.448 . S
C1268 C1267 1.430 . S
C1268 N1272 1.351 . S
C1269 C1267 1.387 . S
C1269 C1270 1.374 . S
C1269 H1284 0.931 . S
C1270 C1264 1.439 . S
C1270 C1269 1.374 . S
C1270 H1285 0.931 . S
Eu1271 N1262 2.600 . S
Eu1271 N1272 2.562 . S
Eu1271 O1306 2.335 . S
Eu1271 O1309 2.372 . S
Eu1271 O1310 2.462 . S
Eu1271 O1311 2.373 . S
Eu1271 O1313 2.432 . S
Eu1271 O1314 2.291 . S
Eu1271 C1335 2.787 . S
N1272 C1268 1.351 . S
N1272 Eu1271 2.562 . S
N1272 C1274 1.325 . S
C1273 C1267 1.404 . S
C1273 C1275 1.366 . S
C1273 H1281 0.930 . S
C1274 N1272 1.325 . S
C1274 C1275 1.416 . S
C1274 H1280 0.929 . S
C1275 C1273 1.366 . S
C1275 C1274 1.416 . S
C1275 H1277 0.930 . S
H1276 C1265 0.930 . S
H1277 C1275 0.930 . S
H1278 C1293 0.930 . S
H1279 C1300 0.930 . S
H1280 C1274 0.929 . S
H1281 C1273 0.930 . S
H1282 C1296 0.929 . S
H1283 C1263 0.931 . S
H1284 C1269 0.931 . S
H1285 C1270 0.931 . S
H1286 C1291 0.931 . S
H1287 C1266 0.929 . S
H1288 C1299 0.930 . S
N1289 Eu1260 2.600 . S
N1289 C1290 1.365 . S
N1289 C1293 1.319 . S
C1290 N1289 1.365 . S
C1290 C1292 1.405 . S
C1290 C1298 1.448 . S
C1291 H1286 0.931 . S
C1291 C1293 1.397 . S
C1291 C1294 1.367 . S
C1292 C1290 1.405 . S
C1292 C1294 1.403 . S
C1292 C1325 1.439 . S
C1293 H1278 0.930 . S
C1293 N1289 1.319 . S
C1293 C1291 1.397 . S
C1294 C1291 1.367 . S
C1294 C1292 1.403 . S
C1294 H1301 0.929 . S
N1295 Eu1260 2.562 . S
N1295 C1296 1.325 . S
N1295 C1298 1.351 . S
C1296 H1282 0.929 . S
C1296 N1295 1.325 . S
C1296 C1300 1.416 . S
C1297 C1298 1.430 . S
C1297 C1299 1.404 . S
C1297 C1326 1.387 . S
C1298 C1290 1.448 . S
C1298 N1295 1.351 . S
C1298 C1297 1.430 . S
C1299 H1288 0.930 . S
C1299 C1297 1.404 . S
C1299 C1300 1.366 . S
C1300 H1279 0.930 . S
C1300 C1296 1.416 . S
C1300 C1299 1.366 . S
H1301 C1294 0.929 . S
H1302 C1325 0.931 . S
H1303 C1326 0.931 . S
O1304 Eu1260 2.462 . S
O1304 C1324 1.252 . S
O1305 Eu1260 2.373 . S
O1305 C1316 1.249 . S
O1306 Eu1271 2.335 . S
O1306 C1316 1.264 . S
O1307 Eu1260 2.432 . S
O1307 C1324 1.268 . S
O1308 Eu1260 2.291 . S
O1308 C1323 1.255 . S
O1309 Eu1271 2.372 . S
O1309 C1323 1.257 . S
O1310 Eu1271 2.462 . S
O1310 C1335 1.252 . S
O1311 Eu1271 2.373 . S
O1311 C1327 1.249 . S
O1312 Eu1260 2.335 . S
O1312 C1327 1.264 . S
O1313 Eu1271 2.432 . S
O1313 C1335 1.268 . S
O1314 Eu1271 2.291 . S
O1314 C1334 1.255 . S
O1315 Eu1260 2.372 . S
O1315 C1334 1.257 . S
C1316 O1305 1.249 . S
C1316 O1306 1.264 . S
C1317 C1320 1.382 . S
C1317 C1322 1.390 . S
C1317 C1324 1.506 . S
C1318 C1319 1.398 . S
C1318 C1322 1.392 . S
C1319 C1318 1.398 . S
C1319 C1321 1.372 . S
C1319 H1336 0.931 . S
C1320 C1317 1.382 . S
C1320 C1321 1.390 . S
C1320 H1337 0.931 . S
C1321 C1319 1.372 . S
C1321 C1320 1.390 . S
C1321 H1338 0.929 . S
C1322 C1317 1.390 . S
C1322 C1318 1.392 . S
C1322 H1339 0.930 . S
C1323 O1308 1.255 . S
C1323 O1309 1.257 . S
C1324 Eu1260 2.787 . S
C1324 O1304 1.252 . S
C1324 O1307 1.268 . S
C1324 C1317 1.506 . S
C1325 C1292 1.439 . S
C1325 H1302 0.931 . S
C1325 C1326 1.374 . S
C1326 C1297 1.387 . S
C1326 H1303 0.931 . S
C1326 C1325 1.374 . S
C1327 O1311 1.249 . S
C1327 O1312 1.264 . S
C1328 C1331 1.382 . S
C1328 C1332 1.390 . S
C1328 C1335 1.506 . S
C1329 C1330 1.398 . S
C1329 C1332 1.392 . S
C1330 C1329 1.398 . S
C1330 C1333 1.372 . S
C1330 H1340 0.931 . S
C1331 C1328 1.382 . S
C1331 C1333 1.390 . S
C1331 H1341 0.931 . S
C1332 C1328 1.390 . S
C1332 C1329 1.392 . S
C1332 H1342 0.930 . S
C1333 C1330 1.372 . S
C1333 C1331 1.390 . S
C1333 H1343 0.929 . S
C1334 O1314 1.255 . S
C1334 O1315 1.257 . S
C1335 Eu1271 2.787 . S
C1335 O1310 1.252 . S
C1335 O1313 1.268 . S
C1335 C1328 1.506 . S
H1336 C1319 0.931 . S
H1337 C1320 0.931 . S
H1338 C1321 0.929 . S
H1339 C1322 0.930 . S
H1340 C1330 0.931 . S
H1341 C1331 0.931 . S
H1342 C1332 0.930 . S
H1343 C1333 0.929 . S
Eu1344 N1373 2.600 . S
Eu1344 N1379 2.562 . S
Eu1344 O1388 2.462 . S
Eu1344 O1389 2.373 . S
Eu1344 O1391 2.432 . S
Eu1344 O1392 2.291 . S
Eu1344 O1396 2.335 . S
Eu1344 O1399 2.372 . S
Eu1344 C1408 2.787 . S
C1345 N1346 1.365 . S
C1345 C1348 1.405 . S
C1345 C1352 1.448 . S
N1346 C1345 1.365 . S
N1346 C1349 1.319 . S
N1346 Eu1355 2.600 . S
C1347 C1349 1.397 . S
C1347 C1350 1.367 . S
C1347 H1367 0.931 . S
C1348 C1345 1.405 . S
C1348 C1350 1.403 . S
C1348 C1354 1.439 . S
C1349 N1346 1.319 . S
C1349 C1347 1.397 . S
C1349 H1360 0.930 . S
C1350 C1347 1.367 . S
C1350 C1348 1.403 . S
C1350 H1371 0.929 . S
C1351 C1352 1.430 . S
C1351 C1353 1.387 . S
C1351 C1357 1.404 . S
C1352 C1345 1.448 . S
C1352 C1351 1.430 . S
C1352 N1356 1.351 . S
C1353 C1351 1.387 . S
C1353 C1354 1.374 . S
C1353 H1368 0.931 . S
C1354 C1348 1.439 . S
C1354 C1353 1.374 . S
C1354 H1369 0.931 . S
Eu1355 N1346 2.600 . S
Eu1355 N1356 2.562 . S
Eu1355 O1390 2.335 . S
Eu1355 O1393 2.372 . S
Eu1355 O1394 2.462 . S
Eu1355 O1395 2.373 . S
Eu1355 O1397 2.432 . S
Eu1355 O1398 2.291 . S
Eu1355 C1419 2.787 . S
N1356 C1352 1.351 . S
N1356 Eu1355 2.562 . S
N1356 C1358 1.325 . S
C1357 C1351 1.404 . S
C1357 C1359 1.366 . S
C1357 H1365 0.930 . S
C1358 N1356 1.325 . S
C1358 C1359 1.416 . S
C1358 H1364 0.929 . S
C1359 C1357 1.366 . S
C1359 C1358 1.416 . S
C1359 H1361 0.930 . S
H1360 C1349 0.930 . S
H1361 C1359 0.930 . S
H1362 C1377 0.930 . S
H1363 C1384 0.930 . S
H1364 C1358 0.929 . S
H1365 C1357 0.930 . S
H1366 C1380 0.929 . S
H1367 C1347 0.931 . S
H1368 C1353 0.931 . S
H1369 C1354 0.931 . S
H1370 C1375 0.931 . S
H1371 C1350 0.929 . S
H1372 C1383 0.930 . S
N1373 Eu1344 2.600 . S
N1373 C1374 1.365 . S
N1373 C1377 1.319 . S
C1374 N1373 1.365 . S
C1374 C1376 1.405 . S
C1374 C1382 1.448 . S
C1375 H1370 0.931 . S
C1375 C1377 1.397 . S
C1375 C1378 1.367 . S
C1376 C1374 1.405 . S
C1376 C1378 1.403 . S
C1376 C1409 1.439 . S
C1377 H1362 0.930 . S
C1377 N1373 1.319 . S
C1377 C1375 1.397 . S
C1378 C1375 1.367 . S
C1378 C1376 1.403 . S
C1378 H1385 0.929 . S
N1379 Eu1344 2.562 . S
N1379 C1380 1.325 . S
N1379 C1382 1.351 . S
C1380 H1366 0.929 . S
C1380 N1379 1.325 . S
C1380 C1384 1.416 . S
C1381 C1382 1.430 . S
C1381 C1383 1.404 . S
C1381 C1410 1.387 . S
C1382 C1374 1.448 . S
C1382 N1379 1.351 . S
C1382 C1381 1.430 . S
C1383 H1372 0.930 . S
C1383 C1381 1.404 . S
C1383 C1384 1.366 . S
C1384 H1363 0.930 . S
C1384 C1380 1.416 . S
C1384 C1383 1.366 . S
H1385 C1378 0.929 . S
H1386 C1409 0.931 . S
H1387 C1410 0.931 . S
O1388 Eu1344 2.462 . S
O1388 C1408 1.252 . S
O1389 Eu1344 2.373 . S
O1389 C1400 1.249 . S
O1390 Eu1355 2.335 . S
O1390 C1400 1.264 . S
O1391 Eu1344 2.432 . S
O1391 C1408 1.268 . S
O1392 Eu1344 2.291 . S
O1392 C1407 1.255 . S
O1393 Eu1355 2.372 . S
O1393 C1407 1.257 . S
O1394 Eu1355 2.462 . S
O1394 C1419 1.252 . S
O1395 Eu1355 2.373 . S
O1395 C1411 1.249 . S
O1396 Eu1344 2.335 . S
O1396 C1411 1.264 . S
O1397 Eu1355 2.432 . S
O1397 C1419 1.268 . S
O1398 Eu1355 2.291 . S
O1398 C1418 1.255 . S
O1399 Eu1344 2.372 . S
O1399 C1418 1.257 . S
C1400 O1389 1.249 . S
C1400 O1390 1.264 . S
C1401 C1404 1.382 . S
C1401 C1406 1.390 . S
C1401 C1408 1.506 . S
C1402 C1403 1.398 . S
C1402 C1406 1.392 . S
C1403 C1402 1.398 . S
C1403 C1405 1.372 . S
C1403 H1420 0.931 . S
C1404 C1401 1.382 . S
C1404 C1405 1.390 . S
C1404 H1421 0.931 . S
C1405 C1403 1.372 . S
C1405 C1404 1.390 . S
C1405 H1422 0.929 . S
C1406 C1401 1.390 . S
C1406 C1402 1.392 . S
C1406 H1423 0.930 . S
C1407 O1392 1.255 . S
C1407 O1393 1.257 . S
C1408 Eu1344 2.787 . S
C1408 O1388 1.252 . S
C1408 O1391 1.268 . S
C1408 C1401 1.506 . S
C1409 C1376 1.439 . S
C1409 H1386 0.931 . S
C1409 C1410 1.374 . S
C1410 C1381 1.387 . S
C1410 H1387 0.931 . S
C1410 C1409 1.374 . S
C1411 O1395 1.249 . S
C1411 O1396 1.264 . S
C1412 C1415 1.382 . S
C1412 C1416 1.390 . S
C1412 C1419 1.506 . S
C1413 C1414 1.398 . S
C1413 C1416 1.392 . S
C1414 C1413 1.398 . S
C1414 C1417 1.372 . S
C1414 H1424 0.931 . S
C1415 C1412 1.382 . S
C1415 C1417 1.390 . S
C1415 H1425 0.931 . S
C1416 C1412 1.390 . S
C1416 C1413 1.392 . S
C1416 H1426 0.930 . S
C1417 C1414 1.372 . S
C1417 C1415 1.390 . S
C1417 H1427 0.929 . S
C1418 O1398 1.255 . S
C1418 O1399 1.257 . S
C1419 Eu1355 2.787 . S
C1419 O1394 1.252 . S
C1419 O1397 1.268 . S
C1419 C1412 1.506 . S
H1420 C1403 0.931 . S
H1421 C1404 0.931 . S
H1422 C1405 0.929 . S
H1423 C1406 0.930 . S
H1424 C1414 0.931 . S
H1425 C1415 0.931 . S
H1426 C1416 0.930 . S
H1427 C1417 0.929 . S
Eu1428 N1457 2.600 . S
Eu1428 N1463 2.562 . S
Eu1428 O1472 2.462 . S
Eu1428 O1473 2.373 . S
Eu1428 O1475 2.432 . S
Eu1428 O1476 2.291 . S
Eu1428 O1480 2.335 . S
Eu1428 O1483 2.372 . S
Eu1428 C1492 2.787 . S
C1429 N1430 1.365 . S
C1429 C1432 1.405 . S
C1429 C1436 1.448 . S
N1430 C1429 1.365 . S
N1430 C1433 1.319 . S
N1430 Eu1439 2.600 . S
C1431 C1433 1.397 . S
C1431 C1434 1.367 . S
C1431 H1451 0.931 . S
C1432 C1429 1.405 . S
C1432 C1434 1.403 . S
C1432 C1438 1.439 . S
C1433 N1430 1.319 . S
C1433 C1431 1.397 . S
C1433 H1444 0.930 . S
C1434 C1431 1.367 . S
C1434 C1432 1.403 . S
C1434 H1455 0.929 . S
C1435 C1436 1.430 . S
C1435 C1437 1.387 . S
C1435 C1441 1.404 . S
C1436 C1429 1.448 . S
C1436 C1435 1.430 . S
C1436 N1440 1.351 . S
C1437 C1435 1.387 . S
C1437 C1438 1.374 . S
C1437 H1452 0.931 . S
C1438 C1432 1.439 . S
C1438 C1437 1.374 . S
C1438 H1453 0.931 . S
Eu1439 N1430 2.600 . S
Eu1439 N1440 2.562 . S
Eu1439 O1474 2.335 . S
Eu1439 O1477 2.372 . S
Eu1439 O1478 2.462 . S
Eu1439 O1479 2.373 . S
Eu1439 O1481 2.432 . S
Eu1439 O1482 2.291 . S
Eu1439 C1503 2.787 . S
N1440 C1436 1.351 . S
N1440 Eu1439 2.562 . S
N1440 C1442 1.325 . S
C1441 C1435 1.404 . S
C1441 C1443 1.366 . S
C1441 H1449 0.930 . S
C1442 N1440 1.325 . S
C1442 C1443 1.416 . S
C1442 H1448 0.929 . S
C1443 C1441 1.366 . S
C1443 C1442 1.416 . S
C1443 H1445 0.930 . S
H1444 C1433 0.930 . S
H1445 C1443 0.930 . S
H1446 C1461 0.930 . S
H1447 C1468 0.930 . S
H1448 C1442 0.929 . S
H1449 C1441 0.930 . S
H1450 C1464 0.929 . S
H1451 C1431 0.931 . S
H1452 C1437 0.931 . S
H1453 C1438 0.931 . S
H1454 C1459 0.931 . S
H1455 C1434 0.929 . S
H1456 C1467 0.930 . S
N1457 Eu1428 2.600 . S
N1457 C1458 1.365 . S
N1457 C1461 1.319 . S
C1458 N1457 1.365 . S
C1458 C1460 1.405 . S
C1458 C1466 1.448 . S
C1459 H1454 0.931 . S
C1459 C1461 1.397 . S
C1459 C1462 1.367 . S
C1460 C1458 1.405 . S
C1460 C1462 1.403 . S
C1460 C1493 1.439 . S
C1461 H1446 0.930 . S
C1461 N1457 1.319 . S
C1461 C1459 1.397 . S
C1462 C1459 1.367 . S
C1462 C1460 1.403 . S
C1462 H1469 0.929 . S
N1463 Eu1428 2.562 . S
N1463 C1464 1.325 . S
N1463 C1466 1.351 . S
C1464 H1450 0.929 . S
C1464 N1463 1.325 . S
C1464 C1468 1.416 . S
C1465 C1466 1.430 . S
C1465 C1467 1.404 . S
C1465 C1494 1.387 . S
C1466 C1458 1.448 . S
C1466 N1463 1.351 . S
C1466 C1465 1.430 . S
C1467 H1456 0.930 . S
C1467 C1465 1.404 . S
C1467 C1468 1.366 . S
C1468 H1447 0.930 . S
C1468 C1464 1.416 . S
C1468 C1467 1.366 . S
H1469 C1462 0.929 . S
H1470 C1493 0.931 . S
H1471 C1494 0.931 . S
O1472 Eu1428 2.462 . S
O1472 C1492 1.252 . S
O1473 Eu1428 2.373 . S
O1473 C1484 1.249 . S
O1474 Eu1439 2.335 . S
O1474 C1484 1.264 . S
O1475 Eu1428 2.432 . S
O1475 C1492 1.268 . S
O1476 Eu1428 2.291 . S
O1476 C1491 1.255 . S
O1477 Eu1439 2.372 . S
O1477 C1491 1.257 . S
O1478 Eu1439 2.462 . S
O1478 C1503 1.252 . S
O1479 Eu1439 2.373 . S
O1479 C1495 1.249 . S
O1480 Eu1428 2.335 . S
O1480 C1495 1.264 . S
O1481 Eu1439 2.432 . S
O1481 C1503 1.268 . S
O1482 Eu1439 2.291 . S
O1482 C1502 1.255 . S
O1483 Eu1428 2.372 . S
O1483 C1502 1.257 . S
C1484 O1473 1.249 . S
C1484 O1474 1.264 . S
C1485 C1488 1.382 . S
C1485 C1490 1.390 . S
C1485 C1492 1.506 . S
C1486 C1487 1.398 . S
C1486 C1490 1.392 . S
C1487 C1486 1.398 . S
C1487 C1489 1.372 . S
C1487 H1504 0.931 . S
C1488 C1485 1.382 . S
C1488 C1489 1.390 . S
C1488 H1505 0.931 . S
C1489 C1487 1.372 . S
C1489 C1488 1.390 . S
C1489 H1506 0.929 . S
C1490 C1485 1.390 . S
C1490 C1486 1.392 . S
C1490 H1507 0.930 . S
C1491 O1476 1.255 . S
C1491 O1477 1.257 . S
C1492 Eu1428 2.787 . S
C1492 O1472 1.252 . S
C1492 O1475 1.268 . S
C1492 C1485 1.506 . S
C1493 C1460 1.439 . S
C1493 H1470 0.931 . S
C1493 C1494 1.374 . S
C1494 C1465 1.387 . S
C1494 H1471 0.931 . S
C1494 C1493 1.374 . S
C1495 O1479 1.249 . S
C1495 O1480 1.264 . S
C1496 C1499 1.382 . S
C1496 C1500 1.390 . S
C1496 C1503 1.506 . S
C1497 C1498 1.398 . S
C1497 C1500 1.392 . S
C1498 C1497 1.398 . S
C1498 C1501 1.372 . S
C1498 H1508 0.931 . S
C1499 C1496 1.382 . S
C1499 C1501 1.390 . S
C1499 H1509 0.931 . S
C1500 C1496 1.390 . S
C1500 C1497 1.392 . S
C1500 H1510 0.930 . S
C1501 C1498 1.372 . S
C1501 C1499 1.390 . S
C1501 H1511 0.929 . S
C1502 O1482 1.255 . S
C1502 O1483 1.257 . S
C1503 Eu1439 2.787 . S
C1503 O1478 1.252 . S
C1503 O1481 1.268 . S
C1503 C1496 1.506 . S
H1504 C1487 0.931 . S
H1505 C1488 0.931 . S
H1506 C1489 0.929 . S
H1507 C1490 0.930 . S
H1508 C1498 0.931 . S
H1509 C1499 0.931 . S
H1510 C1500 0.930 . S
H1511 C1501 0.929 . S
Eu1512 N1541 2.600 . S
Eu1512 N1547 2.562 . S
Eu1512 O1556 2.462 . S
Eu1512 O1557 2.373 . S
Eu1512 O1559 2.432 . S
Eu1512 O1560 2.291 . S
Eu1512 O1564 2.335 . S
Eu1512 O1567 2.372 . S
Eu1512 C1576 2.787 . S
C1513 N1514 1.365 . S
C1513 C1516 1.405 . S
C1513 C1520 1.448 . S
N1514 C1513 1.365 . S
N1514 C1517 1.319 . S
N1514 Eu1523 2.600 . S
C1515 C1517 1.397 . S
C1515 C1518 1.367 . S
C1515 H1535 0.931 . S
C1516 C1513 1.405 . S
C1516 C1518 1.403 . S
C1516 C1522 1.439 . S
C1517 N1514 1.319 . S
C1517 C1515 1.397 . S
C1517 H1528 0.930 . S
C1518 C1515 1.367 . S
C1518 C1516 1.403 . S
C1518 H1539 0.929 . S
C1519 C1520 1.430 . S
C1519 C1521 1.387 . S
C1519 C1525 1.404 . S
C1520 C1513 1.448 . S
C1520 C1519 1.430 . S
C1520 N1524 1.351 . S
C1521 C1519 1.387 . S
C1521 C1522 1.374 . S
C1521 H1536 0.931 . S
C1522 C1516 1.439 . S
C1522 C1521 1.374 . S
C1522 H1537 0.931 . S
Eu1523 N1514 2.600 . S
Eu1523 N1524 2.562 . S
Eu1523 O1558 2.335 . S
Eu1523 O1561 2.372 . S
Eu1523 O1562 2.462 . S
Eu1523 O1563 2.373 . S
Eu1523 O1565 2.432 . S
Eu1523 O1566 2.291 . S
Eu1523 C1587 2.787 . S
N1524 C1520 1.351 . S
N1524 Eu1523 2.562 . S
N1524 C1526 1.325 . S
C1525 C1519 1.404 . S
C1525 C1527 1.366 . S
C1525 H1533 0.930 . S
C1526 N1524 1.325 . S
C1526 C1527 1.416 . S
C1526 H1532 0.929 . S
C1527 C1525 1.366 . S
C1527 C1526 1.416 . S
C1527 H1529 0.930 . S
H1528 C1517 0.930 . S
H1529 C1527 0.930 . S
H1530 C1545 0.930 . S
H1531 C1552 0.930 . S
H1532 C1526 0.929 . S
H1533 C1525 0.930 . S
H1534 C1548 0.929 . S
H1535 C1515 0.931 . S
H1536 C1521 0.931 . S
H1537 C1522 0.931 . S
H1538 C1543 0.931 . S
H1539 C1518 0.929 . S
H1540 C1551 0.930 . S
N1541 Eu1512 2.600 . S
N1541 C1542 1.365 . S
N1541 C1545 1.319 . S
C1542 N1541 1.365 . S
C1542 C1544 1.405 . S
C1542 C1550 1.448 . S
C1543 H1538 0.931 . S
C1543 C1545 1.397 . S
C1543 C1546 1.367 . S
C1544 C1542 1.405 . S
C1544 C1546 1.403 . S
C1544 C1577 1.439 . S
C1545 H1530 0.930 . S
C1545 N1541 1.319 . S
C1545 C1543 1.397 . S
C1546 C1543 1.367 . S
C1546 C1544 1.403 . S
C1546 H1553 0.929 . S
N1547 Eu1512 2.562 . S
N1547 C1548 1.325 . S
N1547 C1550 1.351 . S
C1548 H1534 0.929 . S
C1548 N1547 1.325 . S
C1548 C1552 1.416 . S
C1549 C1550 1.430 . S
C1549 C1551 1.404 . S
C1549 C1578 1.387 . S
C1550 C1542 1.448 . S
C1550 N1547 1.351 . S
C1550 C1549 1.430 . S
C1551 H1540 0.930 . S
C1551 C1549 1.404 . S
C1551 C1552 1.366 . S
C1552 H1531 0.930 . S
C1552 C1548 1.416 . S
C1552 C1551 1.366 . S
H1553 C1546 0.929 . S
H1554 C1577 0.931 . S
H1555 C1578 0.931 . S
O1556 Eu1512 2.462 . S
O1556 C1576 1.252 . S
O1557 Eu1512 2.373 . S
O1557 C1568 1.249 . S
O1558 Eu1523 2.335 . S
O1558 C1568 1.264 . S
O1559 Eu1512 2.432 . S
O1559 C1576 1.268 . S
O1560 Eu1512 2.291 . S
O1560 C1575 1.255 . S
O1561 Eu1523 2.372 . S
O1561 C1575 1.257 . S
O1562 Eu1523 2.462 . S
O1562 C1587 1.252 . S
O1563 Eu1523 2.373 . S
O1563 C1579 1.249 . S
O1564 Eu1512 2.335 . S
O1564 C1579 1.264 . S
O1565 Eu1523 2.432 . S
O1565 C1587 1.268 . S
O1566 Eu1523 2.291 . S
O1566 C1586 1.255 . S
O1567 Eu1512 2.372 . S
O1567 C1586 1.257 . S
C1568 O1557 1.249 . S
C1568 O1558 1.264 . S
C1569 C1572 1.382 . S
C1569 C1574 1.390 . S
C1569 C1576 1.506 . S
C1570 C1571 1.398 . S
C1570 C1574 1.392 . S
C1571 C1570 1.398 . S
C1571 C1573 1.372 . S
C1571 H1588 0.931 . S
C1572 C1569 1.382 . S
C1572 C1573 1.390 . S
C1572 H1589 0.931 . S
C1573 C1571 1.372 . S
C1573 C1572 1.390 . S
C1573 H1590 0.929 . S
C1574 C1569 1.390 . S
C1574 C1570 1.392 . S
C1574 H1591 0.930 . S
C1575 O1560 1.255 . S
C1575 O1561 1.257 . S
C1576 Eu1512 2.787 . S
C1576 O1556 1.252 . S
C1576 O1559 1.268 . S
C1576 C1569 1.506 . S
C1577 C1544 1.439 . S
C1577 H1554 0.931 . S
C1577 C1578 1.374 . S
C1578 C1549 1.387 . S
C1578 H1555 0.931 . S
C1578 C1577 1.374 . S
C1579 O1563 1.249 . S
C1579 O1564 1.264 . S
C1580 C1583 1.382 . S
C1580 C1584 1.390 . S
C1580 C1587 1.506 . S
C1581 C1582 1.398 . S
C1581 C1584 1.392 . S
C1582 C1581 1.398 . S
C1582 C1585 1.372 . S
C1582 H1592 0.931 . S
C1583 C1580 1.382 . S
C1583 C1585 1.390 . S
C1583 H1593 0.931 . S
C1584 C1580 1.390 . S
C1584 C1581 1.392 . S
C1584 H1594 0.930 . S
C1585 C1582 1.372 . S
C1585 C1583 1.390 . S
C1585 H1595 0.929 . S
C1586 O1566 1.255 . S
C1586 O1567 1.257 . S
C1587 Eu1523 2.787 . S
C1587 O1562 1.252 . S
C1587 O1565 1.268 . S
C1587 C1580 1.506 . S
H1588 C1571 0.931 . S
H1589 C1572 0.931 . S
H1590 C1573 0.929 . S
H1591 C1574 0.930 . S
H1592 C1582 0.931 . S
H1593 C1583 0.931 . S
H1594 C1584 0.930 . S
H1595 C1585 0.929 . S
Eu1596 N1625 2.584 1_455 S
Eu1596 N1631 2.525 1_455 S
Eu1596 O1640 2.412 1_455 S
Eu1596 O1641 2.405 . S
Eu1596 O1643 2.391 1_455 S
Eu1596 O1644 2.304 . S
Eu1596 O1648 2.354 . S
Eu1596 O1651 2.413 . S
Eu1596 C1660 2.736 1_455 S
C1597 N1598 1.365 . S
C1597 C1600 1.405 . S
C1597 C1604 1.448 1_556 S
N1598 C1597 1.365 . S
N1598 C1601 1.319 . S
N1598 Eu1607 2.600 1_556 S
C1599 C1601 1.397 . S
C1599 C1602 1.367 . S
C1599 H1619 0.931 . S
C1600 C1597 1.405 . S
C1600 C1602 1.403 . S
C1600 C1606 1.439 . S
C1601 N1598 1.319 . S
C1601 C1599 1.397 . S
C1601 H1612 0.930 . S
C1602 C1599 1.367 . S
C1602 C1600 1.403 . S
C1602 H1623 0.929 . S
C1603 C1604 1.430 . S
C1603 C1605 1.387 . S
C1603 C1609 1.404 . S
C1604 C1597 1.448 1_554 S
C1604 C1603 1.430 . S
C1604 N1608 1.351 . S
C1605 C1603 1.387 . S
C1605 C1606 1.374 1_554 S
C1605 H1620 0.931 . S
C1606 C1600 1.439 . S
C1606 C1605 1.374 1_556 S
C1606 H1621 0.931 . S
Eu1607 N1598 2.600 1_554 S
Eu1607 N1608 2.562 . S
Eu1607 O1642 2.335 . S
Eu1607 O1645 2.372 1_554 S
Eu1607 O1646 2.462 . S
Eu1607 O1647 2.373 . S
Eu1607 O1649 2.432 1_554 S
Eu1607 O1650 2.291 . S
Eu1607 C1671 2.787 . S
N1608 C1604 1.351 . S
N1608 Eu1607 2.562 . S
N1608 C1610 1.325 . S
C1609 C1603 1.404 . S
C1609 C1611 1.366 . S
C1609 H1617 0.930 . S
C1610 N1608 1.325 . S
C1610 C1611 1.416 . S
C1610 H1616 0.929 . S
C1611 C1609 1.366 . S
C1611 C1610 1.416 . S
C1611 H1613 0.930 . S
H1612 C1601 0.930 . S
H1613 C1611 0.930 . S
H1614 C1629 0.930 1_455 S
H1615 C1636 0.930 . S
H1616 C1610 0.929 . S
H1617 C1609 0.930 . S
H1618 C1632 0.929 1_556 S
H1619 C1599 0.931 . S
H1620 C1605 0.931 . S
H1621 C1606 0.931 . S
H1622 C1627 0.931 . S
H1623 C1602 0.929 . S
H1624 C1635 0.930 . S
N1625 Eu1596 2.584 1_655 S
N1625 C1626 1.365 . S
N1625 C1629 1.319 . S
C1626 N1625 1.365 . S
C1626 C1628 1.405 . S
C1626 C1634 1.448 . S
C1627 H1622 0.931 . S
C1627 C1629 1.397 . S
C1627 C1630 1.367 . S
C1628 C1626 1.405 . S
C1628 C1630 1.403 . S
C1628 C1661 1.439 . S
C1629 H1614 0.930 1_655 S
C1629 N1625 1.319 . S
C1629 C1627 1.397 . S
C1630 C1627 1.367 . S
C1630 C1628 1.403 . S
C1630 H1637 0.929 . S
N1631 Eu1596 2.525 1_655 S
N1631 C1632 1.325 . S
N1631 C1634 1.351 . S
C1632 H1618 0.929 1_554 S
C1632 N1631 1.325 . S
C1632 C1636 1.416 1_554 S
C1633 C1634 1.430 . S
C1633 C1635 1.404 . S
C1633 C1662 1.387 . S
C1634 C1626 1.448 . S
C1634 N1631 1.351 . S
C1634 C1633 1.430 . S
C1635 H1624 0.930 . S
C1635 C1633 1.404 . S
C1635 C1636 1.366 1_554 S
C1636 H1615 0.930 . S
C1636 C1632 1.416 1_556 S
C1636 C1635 1.366 1_556 S
H1637 C1630 0.929 . S
H1638 C1661 0.931 . S
H1639 C1662 0.931 . S
O1640 Eu1596 2.412 1_655 S
O1640 C1660 1.252 . S
O1641 Eu1596 2.405 . S
O1641 C1652 1.249 . S
O1642 Eu1607 2.335 . S
O1642 C1652 1.264 . S
O1643 Eu1596 2.391 1_655 S
O1643 C1660 1.268 . S
O1644 Eu1596 2.304 . S
O1644 C1659 1.255 1_554 S
O1645 Eu1607 2.372 1_556 S
O1645 C1659 1.257 . S
O1646 Eu1607 2.462 . S
O1646 C1671 1.252 . S
O1647 Eu1607 2.373 . S
O1647 C1663 1.249 . S
O1648 Eu1596 2.354 . S
O1648 C1663 1.264 . S
O1649 Eu1607 2.432 1_556 S
O1649 C1671 1.268 1_556 S
O1650 Eu1607 2.291 . S
O1650 C1670 1.255 . S
O1651 Eu1596 2.413 . S
O1651 C1670 1.257 . S
C1652 O1641 1.249 . S
C1652 O1642 1.264 . S
C1653 C1656 1.382 . S
C1653 C1658 1.390 . S
C1653 C1660 1.506 . S
C1654 C1655 1.398 . S
C1654 C1658 1.392 . S
C1655 C1654 1.398 . S
C1655 C1657 1.372 . S
C1655 H1672 0.931 . S
C1656 C1653 1.382 . S
C1656 C1657 1.390 . S
C1656 H1673 0.931 . S
C1657 C1655 1.372 . S
C1657 C1656 1.390 . S
C1657 H1674 0.929 . S
C1658 C1653 1.390 . S
C1658 C1654 1.392 . S
C1658 H1675 0.930 . S
C1659 O1644 1.255 1_556 S
C1659 O1645 1.257 . S
C1660 Eu1596 2.736 1_655 S
C1660 O1640 1.252 . S
C1660 O1643 1.268 . S
C1660 C1653 1.506 . S
C1661 C1628 1.439 . S
C1661 H1638 0.931 . S
C1661 C1662 1.374 . S
C1662 C1633 1.387 . S
C1662 H1639 0.931 . S
C1662 C1661 1.374 . S
C1663 O1647 1.249 . S
C1663 O1648 1.264 . S
C1664 C1667 1.395 . S
C1664 C1668 1.380 1_556 S
C1664 C1671 1.503 1_556 S
C1665 C1666 1.398 1_554 S
C1665 C1668 1.392 . S
C1666 C1665 1.398 1_556 S
C1666 C1669 1.372 . S
C1666 H1676 0.931 . S
C1667 C1664 1.395 . S
C1667 C1669 1.390 . S
C1667 H1677 0.931 . S
C1668 C1664 1.380 1_554 S
C1668 C1665 1.392 . S
C1668 H1678 0.930 . S
C1669 C1666 1.372 . S
C1669 C1667 1.390 . S
C1669 H1679 0.929 . S
C1670 O1650 1.255 . S
C1670 O1651 1.257 . S
C1671 Eu1607 2.787 . S
C1671 O1646 1.252 . S
C1671 O1649 1.268 1_554 S
C1671 C1664 1.503 1_554 S
H1672 C1655 0.931 . S
H1673 C1656 0.931 . S
H1674 C1657 0.929 . S
H1675 C1658 0.930 . S
H1676 C1666 0.931 . S
H1677 C1667 0.931 . S
H1678 C1668 0.930 . S
H1679 C1669 0.929 . S
H1680 C1698 0.951 . S
H1681 C1700 0.951 . S
H1682 C1702 0.950 . S
H1683 C1703 0.950 . S
H1684 C1705 0.950 . S
H1685 C1708 0.950 . S
H1686 C1709 0.950 . S
H1687 C1711 0.950 . S
H1688 C1712 0.950 . S
H1689 C1713 0.951 . S
H1690 C1715 0.951 . S
H1691 C1717 0.950 1_655 S
H1692 C1718 0.950 1_656 S
H1693 C1720 0.914 1_554 S
H1694 C1723 0.950 . S
H1695 C1724 0.950 . S
H1696 C1726 0.950 . S
H1697 C1727 0.950 . S
C1698 H1680 0.951 . S
C1698 C1699 1.344 1_655 S
C1698 C1700 1.388 . S
C1699 C1698 1.344 1_455 S
C1699 C1703 1.417 . S
C1700 H1681 0.951 . S
C1700 C1698 1.388 . S
C1700 C1701 1.366 1_655 S
C1701 C1700 1.366 1_455 S
C1701 C1702 1.414 . S
C1701 C1704 1.499 . S
C1702 H1682 0.950 . S
C1702 C1701 1.414 . S
C1702 C1703 1.374 . S
C1703 H1683 0.950 . S
C1703 C1699 1.417 . S
C1703 C1702 1.374 . S
C1704 C1701 1.499 . S
C1704 C1705 1.373 . S
C1704 C1706 1.389 1_455 S
C1705 H1684 0.950 . S
C1705 C1704 1.373 . S
C1705 C1721 1.377 . S
C1706 C1704 1.389 1_655 S
C1706 C1707 1.524 . S
C1706 C1720 1.377 . S
C1707 C1706 1.524 . S
C1707 C1708 1.397 1_556 S
C1707 C1712 1.363 . S
C1708 H1685 0.950 . S
C1708 C1707 1.397 1_554 S
C1708 C1709 1.334 . S
C1709 H1686 0.950 . S
C1709 C1708 1.334 . S
C1709 C1710 1.287 . S
C1710 C1709 1.287 . S
C1710 C1711 1.524 1_554 S
C1710 H1729 0.913 . S
C1711 H1687 0.950 . S
C1711 C1710 1.524 1_556 S
C1711 C1712 1.415 . S
C1712 H1688 0.950 . S
C1712 C1707 1.363 . S
C1712 C1711 1.415 . S
C1713 H1689 0.951 . S
C1713 C1714 1.366 . S
C1713 C1715 1.388 . S
C1714 C1713 1.366 . S
C1714 C1718 1.385 . S
C1715 H1690 0.951 . S
C1715 C1713 1.388 . S
C1715 C1716 1.366 1_554 S
C1716 C1715 1.366 1_556 S
C1716 C1717 1.414 . S
C1716 C1719 1.499 . S
C1717 H1691 0.950 1_455 S
C1717 C1716 1.414 . S
C1717 C1718 1.374 1_556 S
C1718 H1692 0.950 1_454 S
C1718 C1714 1.385 . S
C1718 C1717 1.374 1_554 S
C1719 C1716 1.499 . S
C1719 C1720 1.373 1_455 S
C1719 C1721 1.389 . S
C1720 H1693 0.914 1_556 S
C1720 C1706 1.377 . S
C1720 C1719 1.373 1_655 S
C1721 C1705 1.377 . S
C1721 C1719 1.389 . S
C1721 C1722 1.524 . S
C1722 C1721 1.524 . S
C1722 C1723 1.397 . S
C1722 C1727 1.363 . S
C1723 H1694 0.950 . S
C1723 C1722 1.397 . S
C1723 C1724 1.334 . S
C1724 H1695 0.950 . S
C1724 C1723 1.334 . S
C1724 C1725 1.287 . S
C1725 C1724 1.287 . S
C1725 C1726 1.524 . S
C1725 H1728 0.999 . S
C1726 H1696 0.950 . S
C1726 C1725 1.524 . S
C1726 C1727 1.415 . S
C1727 H1697 0.950 . S
C1727 C1722 1.363 . S
C1727 C1726 1.415 . S
H1728 C1725 0.999 . S
H1729 C1710 0.913 . S
H1730 C1748 0.951 . S
H1731 C1750 0.951 . S
H1732 C1752 0.950 . S
H1733 C1753 0.950 . S
H1734 C1755 0.950 . S
H1735 C1758 0.950 . S
H1736 C1759 0.950 . S
H1737 C1761 0.950 . S
H1738 C1762 0.950 . S
H1739 C1763 0.951 . S
H1740 C1765 0.951 . S
H1741 C1767 0.950 . S
H1742 C1768 0.950 . S
H1743 C1770 0.950 . S
H1744 C1773 0.950 . S
H1745 C1774 0.950 . S
H1746 C1776 0.950 . S
H1747 C1777 0.950 . S
C1748 H1730 0.951 . S
C1748 C1749 1.366 . S
C1748 C1750 1.388 . S
C1749 C1748 1.366 . S
C1749 C1753 1.385 . S
C1750 H1731 0.951 . S
C1750 C1748 1.388 . S
C1750 C1751 1.366 . S
C1751 C1750 1.366 . S
C1751 C1752 1.414 . S
C1751 C1754 1.499 . S
C1752 H1732 0.950 . S
C1752 C1751 1.414 . S
C1752 C1753 1.374 . S
C1753 H1733 0.950 . S
C1753 C1749 1.385 . S
C1753 C1752 1.374 . S
C1754 C1751 1.499 . S
C1754 C1755 1.373 . S
C1754 C1756 1.389 . S
C1755 H1734 0.950 . S
C1755 C1754 1.373 . S
C1755 C1771 1.377 . S
C1756 C1754 1.389 . S
C1756 C1757 1.524 . S
C1756 C1770 1.377 . S
C1757 C1756 1.524 . S
C1757 C1758 1.397 . S
C1757 C1762 1.363 . S
C1758 H1735 0.950 . S
C1758 C1757 1.397 . S
C1758 C1759 1.334 . S
C1759 H1736 0.950 . S
C1759 C1758 1.334 . S
C1759 C1760 1.287 . S
C1760 C1759 1.287 . S
C1760 C1761 1.524 . S
C1760 H1779 0.913 . S
C1761 H1737 0.950 . S
C1761 C1760 1.524 . S
C1761 C1762 1.415 . S
C1762 H1738 0.950 . S
C1762 C1757 1.363 . S
C1762 C1761 1.415 . S
C1763 H1739 0.951 . S
C1763 C1764 1.366 . S
C1763 C1765 1.388 . S
C1764 C1763 1.366 . S
C1764 C1768 1.385 . S
C1765 H1740 0.951 . S
C1765 C1763 1.388 . S
C1765 C1766 1.366 . S
C1766 C1765 1.366 . S
C1766 C1767 1.414 . S
C1766 C1769 1.499 . S
C1767 H1741 0.950 . S
C1767 C1766 1.414 . S
C1767 C1768 1.374 . S
C1768 H1742 0.950 . S
C1768 C1764 1.385 . S
C1768 C1767 1.374 . S
C1769 C1766 1.499 . S
C1769 C1770 1.373 . S
C1769 C1771 1.389 . S
C1770 H1743 0.950 . S
C1770 C1756 1.377 . S
C1770 C1769 1.373 . S
C1771 C1755 1.377 . S
C1771 C1769 1.389 . S
C1771 C1772 1.524 . S
C1772 C1771 1.524 . S
C1772 C1773 1.397 . S
C1772 C1777 1.363 . S
C1773 H1744 0.950 . S
C1773 C1772 1.397 . S
C1773 C1774 1.334 . S
C1774 H1745 0.950 . S
C1774 C1773 1.334 . S
C1774 C1775 1.287 . S
C1775 C1774 1.287 . S
C1775 C1776 1.524 . S
C1775 H1778 0.999 . S
C1776 H1746 0.950 . S
C1776 C1775 1.524 . S
C1776 C1777 1.415 . S
C1777 H1747 0.950 . S
C1777 C1772 1.363 . S
C1777 C1776 1.415 . S
H1778 C1775 0.999 . S
H1779 C1760 0.913 . S
H1780 C1798 0.951 . S
H1781 C1800 0.951 . S
H1782 C1802 0.950 . S
H1783 C1803 0.950 . S
H1784 C1805 0.950 . S
H1785 C1808 0.950 . S
H1786 C1809 0.950 . S
H1787 C1811 0.950 . S
H1788 C1812 0.950 . S
H1789 C1813 0.951 . S
H1790 C1815 0.951 . S
H1791 C1817 0.950 . S
H1792 C1818 0.950 . S
H1793 C1820 0.950 . S
H1794 C1823 0.950 . S
H1795 C1824 0.950 . S
H1796 C1826 0.950 . S
H1797 C1827 0.950 . S
C1798 H1780 0.951 . S
C1798 C1799 1.366 . S
C1798 C1800 1.388 . S
C1799 C1798 1.366 . S
C1799 C1803 1.385 . S
C1800 H1781 0.951 . S
C1800 C1798 1.388 . S
C1800 C1801 1.366 . S
C1801 C1800 1.366 . S
C1801 C1802 1.414 . S
C1801 C1804 1.499 . S
C1802 H1782 0.950 . S
C1802 C1801 1.414 . S
C1802 C1803 1.374 . S
C1803 H1783 0.950 . S
C1803 C1799 1.385 . S
C1803 C1802 1.374 . S
C1804 C1801 1.499 . S
C1804 C1805 1.373 . S
C1804 C1806 1.389 . S
C1805 H1784 0.950 . S
C1805 C1804 1.373 . S
C1805 C1821 1.377 . S
C1806 C1804 1.389 . S
C1806 C1807 1.524 . S
C1806 C1820 1.377 . S
C1807 C1806 1.524 . S
C1807 C1808 1.397 . S
C1807 C1812 1.363 . S
C1808 H1785 0.950 . S
C1808 C1807 1.397 . S
C1808 C1809 1.334 . S
C1809 H1786 0.950 . S
C1809 C1808 1.334 . S
C1809 C1810 1.287 . S
C1810 C1809 1.287 . S
C1810 C1811 1.524 . S
C1810 H1829 0.913 . S
C1811 H1787 0.950 . S
C1811 C1810 1.524 . S
C1811 C1812 1.415 . S
C1812 H1788 0.950 . S
C1812 C1807 1.363 . S
C1812 C1811 1.415 . S
C1813 H1789 0.951 . S
C1813 C1814 1.366 . S
C1813 C1815 1.388 . S
C1814 C1813 1.366 . S
C1814 C1818 1.385 . S
C1815 H1790 0.951 . S
C1815 C1813 1.388 . S
C1815 C1816 1.366 . S
C1816 C1815 1.366 . S
C1816 C1817 1.414 . S
C1816 C1819 1.499 . S
C1817 H1791 0.950 . S
C1817 C1816 1.414 . S
C1817 C1818 1.374 . S
C1818 H1792 0.950 . S
C1818 C1814 1.385 . S
C1818 C1817 1.374 . S
C1819 C1816 1.499 . S
C1819 C1820 1.373 . S
C1819 C1821 1.389 . S
C1820 H1793 0.950 . S
C1820 C1806 1.377 . S
C1820 C1819 1.373 . S
C1821 C1805 1.377 . S
C1821 C1819 1.389 . S
C1821 C1822 1.524 . S
C1822 C1821 1.524 . S
C1822 C1823 1.397 . S
C1822 C1827 1.363 . S
C1823 H1794 0.950 . S
C1823 C1822 1.397 . S
C1823 C1824 1.334 . S
C1824 H1795 0.950 . S
C1824 C1823 1.334 . S
C1824 C1825 1.287 . S
C1825 C1824 1.287 . S
C1825 C1826 1.524 . S
C1825 H1828 0.999 . S
C1826 H1796 0.950 . S
C1826 C1825 1.524 . S
C1826 C1827 1.415 . S
C1827 H1797 0.950 . S
C1827 C1822 1.363 . S
C1827 C1826 1.415 . S
H1828 C1825 0.999 . S
H1829 C1810 0.913 . S
H1830 C1848 0.951 . S
H1831 C1850 0.951 . S
H1832 C1852 0.950 . S
H1833 C1853 0.950 . S
H1834 C1855 0.950 . S
H1835 C1858 0.950 . S
H1836 C1859 0.950 . S
H1837 C1861 0.950 . S
H1838 C1862 0.950 . S
H1839 C1863 0.951 . S
H1840 C1865 0.951 . S
H1841 C1867 0.950 . S
H1842 C1868 0.950 . S
H1843 C1870 0.950 . S
H1844 C1873 0.950 . S
H1845 C1874 0.950 . S
H1846 C1876 0.950 . S
H1847 C1877 0.950 . S
C1848 H1830 0.951 . S
C1848 C1849 1.366 . S
C1848 C1850 1.388 . S
C1849 C1848 1.366 . S
C1849 C1853 1.385 . S
C1850 H1831 0.951 . S
C1850 C1848 1.388 . S
C1850 C1851 1.366 . S
C1851 C1850 1.366 . S
C1851 C1852 1.414 . S
C1851 C1854 1.499 . S
C1852 H1832 0.950 . S
C1852 C1851 1.414 . S
C1852 C1853 1.374 . S
C1853 H1833 0.950 . S
C1853 C1849 1.385 . S
C1853 C1852 1.374 . S
C1854 C1851 1.499 . S
C1854 C1855 1.373 . S
C1854 C1856 1.389 . S
C1855 H1834 0.950 . S
C1855 C1854 1.373 . S
C1855 C1871 1.377 . S
C1856 C1854 1.389 . S
C1856 C1857 1.524 . S
C1856 C1870 1.377 . S
C1857 C1856 1.524 . S
C1857 C1858 1.397 . S
C1857 C1862 1.363 . S
C1858 H1835 0.950 . S
C1858 C1857 1.397 . S
C1858 C1859 1.334 . S
C1859 H1836 0.950 . S
C1859 C1858 1.334 . S
C1859 C1860 1.287 . S
C1860 C1859 1.287 . S
C1860 C1861 1.524 . S
C1860 H1879 0.913 . S
C1861 H1837 0.950 . S
C1861 C1860 1.524 . S
C1861 C1862 1.415 . S
C1862 H1838 0.950 . S
C1862 C1857 1.363 . S
C1862 C1861 1.415 . S
C1863 H1839 0.951 . S
C1863 C1864 1.366 . S
C1863 C1865 1.388 . S
C1864 C1863 1.366 . S
C1864 C1868 1.385 . S
C1865 H1840 0.951 . S
C1865 C1863 1.388 . S
C1865 C1866 1.366 . S
C1866 C1865 1.366 . S
C1866 C1867 1.414 . S
C1866 C1869 1.499 . S
C1867 H1841 0.950 . S
C1867 C1866 1.414 . S
C1867 C1868 1.374 . S
C1868 H1842 0.950 . S
C1868 C1864 1.385 . S
C1868 C1867 1.374 . S
C1869 C1866 1.499 . S
C1869 C1870 1.373 . S
C1869 C1871 1.389 . S
C1870 H1843 0.950 . S
C1870 C1856 1.377 . S
C1870 C1869 1.373 . S
C1871 C1855 1.377 . S
C1871 C1869 1.389 . S
C1871 C1872 1.524 . S
C1872 C1871 1.524 . S
C1872 C1873 1.397 . S
C1872 C1877 1.363 . S
C1873 H1844 0.950 . S
C1873 C1872 1.397 . S
C1873 C1874 1.334 . S
C1874 H1845 0.950 . S
C1874 C1873 1.334 . S
C1874 C1875 1.287 . S
C1875 C1874 1.287 . S
C1875 C1876 1.524 . S
C1875 H1878 0.999 . S
C1876 H1846 0.950 . S
C1876 C1875 1.524 . S
C1876 C1877 1.415 . S
C1877 H1847 0.950 . S
C1877 C1872 1.363 . S
C1877 C1876 1.415 . S
H1878 C1875 0.999 . S
H1879 C1860 0.913 . S
H1880 C1898 0.951 . S
H1881 C1900 0.951 . S
H1882 C1902 0.950 . S
H1883 C1903 0.950 . S
H1884 C1905 0.950 . S
H1885 C1908 0.950 . S
H1886 C1909 0.950 . S
H1887 C1911 0.950 . S
H1888 C1912 0.950 . S
H1889 C1913 0.951 . S
H1890 C1915 0.951 . S
H1891 C1917 0.950 . S
H1892 C1918 0.950 . S
H1893 C1920 0.950 . S
H1894 C1923 0.950 . S
H1895 C1924 0.950 . S
H1896 C1926 0.950 . S
H1897 C1927 0.950 . S
C1898 H1880 0.951 . S
C1898 C1899 1.366 . S
C1898 C1900 1.388 . S
C1899 C1898 1.366 . S
C1899 C1903 1.385 . S
C1900 H1881 0.951 . S
C1900 C1898 1.388 . S
C1900 C1901 1.366 . S
C1901 C1900 1.366 . S
C1901 C1902 1.414 . S
C1901 C1904 1.499 . S
C1902 H1882 0.950 . S
C1902 C1901 1.414 . S
C1902 C1903 1.374 . S
C1903 H1883 0.950 . S
C1903 C1899 1.385 . S
C1903 C1902 1.374 . S
C1904 C1901 1.499 . S
C1904 C1905 1.373 . S
C1904 C1906 1.389 . S
C1905 H1884 0.950 . S
C1905 C1904 1.373 . S
C1905 C1921 1.377 . S
C1906 C1904 1.389 . S
C1906 C1907 1.524 . S
C1906 C1920 1.377 . S
C1907 C1906 1.524 . S
C1907 C1908 1.397 . S
C1907 C1912 1.363 . S
C1908 H1885 0.950 . S
C1908 C1907 1.397 . S
C1908 C1909 1.334 . S
C1909 H1886 0.950 . S
C1909 C1908 1.334 . S
C1909 C1910 1.287 . S
C1910 C1909 1.287 . S
C1910 C1911 1.524 . S
C1910 H1929 0.913 . S
C1911 H1887 0.950 . S
C1911 C1910 1.524 . S
C1911 C1912 1.415 . S
C1912 H1888 0.950 . S
C1912 C1907 1.363 . S
C1912 C1911 1.415 . S
C1913 H1889 0.951 . S
C1913 C1914 1.366 . S
C1913 C1915 1.388 . S
C1914 C1913 1.366 . S
C1914 C1918 1.385 . S
C1915 H1890 0.951 . S
C1915 C1913 1.388 . S
C1915 C1916 1.366 . S
C1916 C1915 1.366 . S
C1916 C1917 1.414 . S
C1916 C1919 1.499 . S
C1917 H1891 0.950 . S
C1917 C1916 1.414 . S
C1917 C1918 1.374 . S
C1918 H1892 0.950 . S
C1918 C1914 1.385 . S
C1918 C1917 1.374 . S
C1919 C1916 1.499 . S
C1919 C1920 1.373 . S
C1919 C1921 1.389 . S
C1920 H1893 0.950 . S
C1920 C1906 1.377 . S
C1920 C1919 1.373 . S
C1921 C1905 1.377 . S
C1921 C1919 1.389 . S
C1921 C1922 1.524 . S
C1922 C1921 1.524 . S
C1922 C1923 1.397 1_455 S
C1922 C1927 1.363 . S
C1923 H1894 0.950 . S
C1923 C1922 1.397 1_655 S
C1923 C1924 1.334 . S
C1924 H1895 0.950 . S
C1924 C1923 1.334 . S
C1924 C1925 1.287 . S
C1925 C1924 1.287 . S
C1925 C1926 1.524 1_655 S
C1925 H1928 0.999 . S
C1926 H1896 0.950 . S
C1926 C1925 1.524 1_455 S
C1926 C1927 1.415 . S
C1927 H1897 0.950 . S
C1927 C1922 1.363 . S
C1927 C1926 1.415 . S
H1928 C1925 0.999 . S
H1929 C1910 0.913 . S
H1930 C1948 0.951 . S
H1931 C1950 0.951 . S
H1932 C1952 0.950 . S
H1933 C1953 0.950 . S
H1934 C1955 0.950 . S
H1935 C1958 0.950 . S
H1936 C1959 0.950 . S
H1937 C1961 0.950 . S
H1938 C1962 0.950 . S
H1939 C1963 0.951 . S
H1940 C1965 0.951 . S
H1941 C1967 0.950 . S
H1942 C1968 0.950 . S
H1943 C1970 0.950 . S
H1944 C1973 0.950 . S
H1945 C1974 0.950 . S
H1946 C1976 0.950 . S
H1947 C1977 0.950 . S
C1948 H1930 0.951 . S
C1948 C1949 1.366 . S
C1948 C1950 1.388 . S
C1949 C1948 1.366 . S
C1949 C1953 1.385 . S
C1950 H1931 0.951 . S
C1950 C1948 1.388 . S
C1950 C1951 1.366 . S
C1951 C1950 1.366 . S
C1951 C1952 1.414 . S
C1951 C1954 1.499 . S
C1952 H1932 0.950 . S
C1952 C1951 1.414 . S
C1952 C1953 1.374 . S
C1953 H1933 0.950 . S
C1953 C1949 1.385 . S
C1953 C1952 1.374 . S
C1954 C1951 1.499 . S
C1954 C1955 1.373 . S
C1954 C1956 1.389 . S
C1955 H1934 0.950 . S
C1955 C1954 1.373 . S
C1955 C1971 1.377 . S
C1956 C1954 1.389 . S
C1956 C1957 1.524 . S
C1956 C1970 1.377 . S
C1957 C1956 1.524 . S
C1957 C1958 1.397 . S
C1957 C1962 1.363 . S
C1958 H1935 0.950 . S
C1958 C1957 1.397 . S
C1958 C1959 1.334 . S
C1959 H1936 0.950 . S
C1959 C1958 1.334 . S
C1959 C1960 1.287 . S
C1960 C1959 1.287 . S
C1960 C1961 1.524 . S
C1960 H1979 0.913 . S
C1961 H1937 0.950 . S
C1961 C1960 1.524 . S
C1961 C1962 1.415 . S
C1962 H1938 0.950 . S
C1962 C1957 1.363 . S
C1962 C1961 1.415 . S
C1963 H1939 0.951 . S
C1963 C1964 1.366 . S
C1963 C1965 1.388 . S
C1964 C1963 1.366 . S
C1964 C1968 1.385 . S
C1965 H1940 0.951 . S
C1965 C1963 1.388 . S
C1965 C1966 1.366 . S
C1966 C1965 1.366 . S
C1966 C1967 1.414 . S
C1966 C1969 1.499 . S
C1967 H1941 0.950 . S
C1967 C1966 1.414 . S
C1967 C1968 1.374 . S
C1968 H1942 0.950 . S
C1968 C1964 1.385 . S
C1968 C1967 1.374 . S
C1969 C1966 1.499 . S
C1969 C1970 1.373 . S
C1969 C1971 1.389 . S
C1970 H1943 0.950 . S
C1970 C1956 1.377 . S
C1970 C1969 1.373 . S
C1971 C1955 1.377 . S
C1971 C1969 1.389 . S
C1971 C1972 1.524 . S
C1972 C1971 1.524 . S
C1972 C1973 1.397 . S
C1972 C1977 1.363 . S
C1973 H1944 0.950 . S
C1973 C1972 1.397 . S
C1973 C1974 1.334 . S
C1974 H1945 0.950 . S
C1974 C1973 1.334 . S
C1974 C1975 1.287 . S
C1975 C1974 1.287 . S
C1975 C1976 1.524 . S
C1975 H1978 0.999 . S
C1976 H1946 0.950 . S
C1976 C1975 1.524 . S
C1976 C1977 1.415 . S
C1977 H1947 0.950 . S
C1977 C1972 1.363 . S
C1977 C1976 1.415 . S
H1978 C1975 0.999 . S
H1979 C1960 0.913 . S
H1980 C1998 0.951 . S
H1981 C2000 0.951 . S
H1982 C2002 0.950 . S
H1983 C2003 0.950 . S
H1984 C2005 0.950 . S
H1985 C2008 0.950 . S
H1986 C2009 0.950 . S
H1987 C2011 0.950 . S
H1988 C2012 0.950 . S
H1989 C2013 0.951 . S
H1990 C2015 0.951 . S
H1991 C2017 0.950 . S
H1992 C2018 0.950 . S
H1993 C2020 0.950 . S
H1994 C2023 0.950 . S
H1995 C2024 0.950 . S
H1996 C2026 0.950 . S
H1997 C2027 0.950 . S
C1998 H1980 0.951 . S
C1998 C1999 1.366 . S
C1998 C2000 1.388 . S
C1999 C1998 1.366 . S
C1999 C2003 1.385 . S
C2000 H1981 0.951 . S
C2000 C1998 1.388 . S
C2000 C2001 1.366 . S
C2001 C2000 1.366 . S
C2001 C2002 1.414 . S
C2001 C2004 1.499 . S
C2002 H1982 0.950 . S
C2002 C2001 1.414 . S
C2002 C2003 1.374 . S
C2003 H1983 0.950 . S
C2003 C1999 1.385 . S
C2003 C2002 1.374 . S
C2004 C2001 1.499 . S
C2004 C2005 1.373 . S
C2004 C2006 1.389 . S
C2005 H1984 0.950 . S
C2005 C2004 1.373 . S
C2005 C2021 1.377 . S
C2006 C2004 1.389 . S
C2006 C2007 1.524 . S
C2006 C2020 1.377 . S
C2007 C2006 1.524 . S
C2007 C2008 1.397 . S
C2007 C2012 1.363 . S
C2008 H1985 0.950 . S
C2008 C2007 1.397 . S
C2008 C2009 1.334 . S
C2009 H1986 0.950 . S
C2009 C2008 1.334 . S
C2009 C2010 1.287 . S
C2010 C2009 1.287 . S
C2010 C2011 1.524 . S
C2010 H2029 0.913 . S
C2011 H1987 0.950 . S
C2011 C2010 1.524 . S
C2011 C2012 1.415 . S
C2012 H1988 0.950 . S
C2012 C2007 1.363 . S
C2012 C2011 1.415 . S
C2013 H1989 0.951 . S
C2013 C2014 1.366 . S
C2013 C2015 1.388 . S
C2014 C2013 1.366 . S
C2014 C2018 1.385 . S
C2015 H1990 0.951 . S
C2015 C2013 1.388 . S
C2015 C2016 1.366 . S
C2016 C2015 1.366 . S
C2016 C2017 1.414 . S
C2016 C2019 1.499 . S
C2017 H1991 0.950 . S
C2017 C2016 1.414 . S
C2017 C2018 1.374 . S
C2018 H1992 0.950 . S
C2018 C2014 1.385 . S
C2018 C2017 1.374 . S
C2019 C2016 1.499 . S
C2019 C2020 1.373 . S
C2019 C2021 1.389 . S
C2020 H1993 0.950 . S
C2020 C2006 1.377 . S
C2020 C2019 1.373 . S
C2021 C2005 1.377 . S
C2021 C2019 1.389 . S
C2021 C2022 1.524 . S
C2022 C2021 1.524 . S
C2022 C2023 1.397 . S
C2022 C2027 1.363 . S
C2023 H1994 0.950 . S
C2023 C2022 1.397 . S
C2023 C2024 1.334 . S
C2024 H1995 0.950 . S
C2024 C2023 1.334 . S
C2024 C2025 1.287 . S
C2025 C2024 1.287 . S
C2025 C2026 1.524 . S
C2025 H2028 0.999 . S
C2026 H1996 0.950 . S
C2026 C2025 1.524 . S
C2026 C2027 1.415 . S
C2027 H1997 0.950 . S
C2027 C2022 1.363 . S
C2027 C2026 1.415 . S
H2028 C2025 0.999 . S
H2029 C2010 0.913 . S
H2030 C2048 0.951 . S
H2031 C2050 0.951 . S
H2032 C2052 0.950 . S
H2033 C2053 0.950 . S
H2034 C2055 0.950 . S
H2035 C2058 0.950 . S
H2036 C2059 0.950 . S
H2037 C2061 0.950 . S
H2038 C2062 0.950 . S
H2039 C2063 0.951 . S
H2040 C2065 0.951 . S
H2041 C2067 0.950 . S
H2042 C2068 0.950 . S
H2043 C2070 0.950 . S
H2044 C2073 0.950 . S
H2045 C2074 0.950 . S
H2046 C2076 0.950 . S
H2047 C2077 0.950 . S
C2048 H2030 0.951 . S
C2048 C2049 1.366 . S
C2048 C2050 1.388 . S
C2049 C2048 1.366 . S
C2049 C2053 1.385 . S
C2050 H2031 0.951 . S
C2050 C2048 1.388 . S
C2050 C2051 1.366 . S
C2051 C2050 1.366 . S
C2051 C2052 1.414 . S
C2051 C2054 1.499 . S
C2052 H2032 0.950 . S
C2052 C2051 1.414 . S
C2052 C2053 1.374 . S
C2053 H2033 0.950 . S
C2053 C2049 1.385 . S
C2053 C2052 1.374 . S
C2054 C2051 1.499 . S
C2054 C2055 1.373 . S
C2054 C2056 1.389 . S
C2055 H2034 0.950 . S
C2055 C2054 1.373 . S
C2055 C2071 1.377 . S
C2056 C2054 1.389 . S
C2056 C2057 1.524 . S
C2056 C2070 1.377 . S
C2057 C2056 1.524 . S
C2057 C2058 1.397 . S
C2057 C2062 1.363 . S
C2058 H2035 0.950 . S
C2058 C2057 1.397 . S
C2058 C2059 1.334 . S
C2059 H2036 0.950 . S
C2059 C2058 1.334 . S
C2059 C2060 1.287 . S
C2060 C2059 1.287 . S
C2060 C2061 1.524 . S
C2060 H2079 0.913 . S
C2061 H2037 0.950 . S
C2061 C2060 1.524 . S
C2061 C2062 1.415 . S
C2062 H2038 0.950 . S
C2062 C2057 1.363 . S
C2062 C2061 1.415 . S
C2063 H2039 0.951 . S
C2063 C2064 1.366 . S
C2063 C2065 1.388 . S
C2064 C2063 1.366 . S
C2064 C2068 1.385 . S
C2065 H2040 0.951 . S
C2065 C2063 1.388 . S
C2065 C2066 1.366 . S
C2066 C2065 1.366 . S
C2066 C2067 1.414 . S
C2066 C2069 1.499 . S
C2067 H2041 0.950 . S
C2067 C2066 1.414 . S
C2067 C2068 1.374 . S
C2068 H2042 0.950 . S
C2068 C2064 1.385 . S
C2068 C2067 1.374 . S
C2069 C2066 1.499 . S
C2069 C2070 1.373 . S
C2069 C2071 1.389 . S
C2070 H2043 0.950 . S
C2070 C2056 1.377 . S
C2070 C2069 1.373 . S
C2071 C2055 1.377 . S
C2071 C2069 1.389 . S
C2071 C2072 1.524 . S
C2072 C2071 1.524 . S
C2072 C2073 1.397 . S
C2072 C2077 1.363 . S
C2073 H2044 0.950 . S
C2073 C2072 1.397 . S
C2073 C2074 1.334 . S
C2074 H2045 0.950 . S
C2074 C2073 1.334 . S
C2074 C2075 1.287 . S
C2075 C2074 1.287 . S
C2075 C2076 1.524 . S
C2075 H2078 0.999 . S
C2076 H2046 0.950 . S
C2076 C2075 1.524 . S
C2076 C2077 1.415 . S
C2077 H2047 0.950 . S
C2077 C2072 1.363 . S
C2077 C2076 1.415 . S
H2078 C2075 0.999 . S
H2079 C2060 0.913 . S
H2080 C2098 0.951 . S
H2081 C2100 0.951 . S
H2082 C2102 0.951 . S
H2083 C2103 0.950 1_565 S
H2084 C2105 0.950 . S
H2085 C2108 0.950 . S
H2086 C2109 0.950 . S
H2087 C2111 0.950 . S
H2088 C2112 0.950 . S
H2089 C2113 0.951 . S
H2090 C2115 0.951 . S
H2091 C2117 0.950 . S
H2092 C2118 0.950 . S
H2093 C2120 0.950 . S
H2094 C2123 0.950 . S
H2095 C2124 0.950 . S
H2096 C2126 0.950 . S
H2097 C2127 0.950 . S
C2098 H2080 0.951 . S
C2098 C2099 1.366 . S
C2098 C2100 1.388 . S
C2099 C2098 1.366 . S
C2099 C2103 1.385 . S
C2100 H2081 0.951 . S
C2100 C2098 1.388 . S
C2100 C2101 1.366 . S
C2101 C2100 1.366 . S
C2101 C2102 1.414 . S
C2101 C2104 1.499 . S
C2102 H2082 0.951 . S
C2102 C2101 1.414 . S
C2102 C2103 1.374 . S
C2103 H2083 0.950 1_545 S
C2103 C2099 1.385 . S
C2103 C2102 1.374 . S
C2104 C2101 1.499 . S
C2104 C2105 1.373 . S
C2104 C2106 1.389 . S
C2105 H2084 0.950 . S
C2105 C2104 1.373 . S
C2105 C2121 1.377 . S
C2106 C2104 1.389 . S
C2106 C2107 1.524 . S
C2106 C2120 1.377 . S
C2107 C2106 1.524 . S
C2107 C2108 1.397 1_545 S
C2107 C2112 1.363 . S
C2108 H2085 0.950 . S
C2108 C2107 1.397 1_565 S
C2108 C2109 1.334 . S
C2109 H2086 0.950 . S
C2109 C2108 1.334 . S
C2109 C2110 1.287 . S
C2110 C2109 1.287 . S
C2110 C2111 1.524 1_565 S
C2110 H2129 0.913 . S
C2111 H2087 0.950 . S
C2111 C2110 1.524 1_545 S
C2111 C2112 1.415 . S
C2112 H2088 0.950 . S
C2112 C2107 1.363 . S
C2112 C2111 1.415 . S
C2113 H2089 0.951 . S
C2113 C2114 1.366 . S
C2113 C2115 1.388 . S
C2114 C2113 1.366 . S
C2114 C2118 1.385 1_455 S
C2115 H2090 0.951 . S
C2115 C2113 1.388 . S
C2115 C2116 1.366 1_455 S
C2116 C2115 1.366 1_655 S
C2116 C2117 1.414 . S
C2116 C2119 1.499 . S
C2117 H2091 0.950 . S
C2117 C2116 1.414 . S
C2117 C2118 1.374 . S
C2118 H2092 0.950 . S
C2118 C2114 1.385 1_655 S
C2118 C2117 1.374 . S
C2119 C2116 1.499 . S
C2119 C2120 1.373 . S
C2119 C2121 1.389 . S
C2120 H2093 0.950 . S
C2120 C2106 1.377 . S
C2120 C2119 1.373 . S
C2121 C2105 1.377 . S
C2121 C2119 1.389 . S
C2121 C2122 1.524 1_655 S
C2122 C2121 1.524 1_455 S
C2122 C2123 1.397 . S
C2122 C2127 1.363 . S
C2123 H2094 0.950 . S
C2123 C2122 1.397 . S
C2123 C2124 1.334 . S
C2124 H2095 0.950 . S
C2124 C2123 1.334 . S
C2124 C2125 1.287 . S
C2125 C2124 1.287 . S
C2125 C2126 1.524 . S
C2125 H2128 0.999 . S
C2126 H2096 0.950 . S
C2126 C2125 1.524 . S
C2126 C2127 1.415 . S
C2127 H2097 0.950 . S
C2127 C2122 1.363 . S
C2127 C2126 1.415 . S
H2128 C2125 0.999 . S
H2129 C2110 0.913 . S
H2130 C2148 0.951 . S
H2131 C2150 0.951 . S
H2132 C2152 0.950 . S
H2133 C2153 0.950 . S
H2134 C2155 0.950 . S
H2135 C2158 0.950 . S
H2136 C2159 0.950 . S
H2137 C2161 0.950 . S
H2138 C2162 0.950 . S
H2139 C2163 0.951 . S
H2140 C2165 0.951 . S
H2141 C2167 0.950 . S
H2142 C2168 0.950 . S
H2143 C2170 0.950 . S
H2144 C2173 0.950 . S
H2145 C2174 0.950 . S
H2146 C2176 0.950 . S
H2147 C2177 0.950 . S
C2148 H2130 0.951 . S
C2148 C2149 1.366 . S
C2148 C2150 1.388 . S
C2149 C2148 1.366 . S
C2149 C2153 1.385 . S
C2150 H2131 0.951 . S
C2150 C2148 1.388 . S
C2150 C2151 1.366 . S
C2151 C2150 1.366 . S
C2151 C2152 1.414 . S
C2151 C2154 1.499 . S
C2152 H2132 0.950 . S
C2152 C2151 1.414 . S
C2152 C2153 1.374 . S
C2153 H2133 0.950 . S
C2153 C2149 1.385 . S
C2153 C2152 1.374 . S
C2154 C2151 1.499 . S
C2154 C2155 1.373 . S
C2154 C2156 1.389 . S
C2155 H2134 0.950 . S
C2155 C2154 1.373 . S
C2155 C2171 1.377 . S
C2156 C2154 1.389 . S
C2156 C2157 1.524 . S
C2156 C2170 1.377 . S
C2157 C2156 1.524 . S
C2157 C2158 1.397 . S
C2157 C2162 1.363 . S
C2158 H2135 0.950 . S
C2158 C2157 1.397 . S
C2158 C2159 1.334 . S
C2159 H2136 0.950 . S
C2159 C2158 1.334 . S
C2159 C2160 1.287 . S
C2160 C2159 1.287 . S
C2160 C2161 1.524 . S
C2160 H2179 0.913 . S
C2161 H2137 0.950 . S
C2161 C2160 1.524 . S
C2161 C2162 1.415 . S
C2162 H2138 0.950 . S
C2162 C2157 1.363 . S
C2162 C2161 1.415 . S
C2163 H2139 0.951 . S
C2163 C2164 1.366 . S
C2163 C2165 1.388 . S
C2164 C2163 1.366 . S
C2164 C2168 1.385 . S
C2165 H2140 0.951 . S
C2165 C2163 1.388 . S
C2165 C2166 1.366 . S
C2166 C2165 1.366 . S
C2166 C2167 1.414 . S
C2166 C2169 1.499 . S
C2167 H2141 0.950 . S
C2167 C2166 1.414 . S
C2167 C2168 1.374 . S
C2168 H2142 0.950 . S
C2168 C2164 1.385 . S
C2168 C2167 1.374 . S
C2169 C2166 1.499 . S
C2169 C2170 1.373 . S
C2169 C2171 1.389 . S
C2170 H2143 0.950 . S
C2170 C2156 1.377 . S
C2170 C2169 1.373 . S
C2171 C2155 1.377 . S
C2171 C2169 1.389 . S
C2171 C2172 1.524 . S
C2172 C2171 1.524 . S
C2172 C2173 1.397 . S
C2172 C2177 1.363 . S
C2173 H2144 0.950 . S
C2173 C2172 1.397 . S
C2173 C2174 1.334 . S
C2174 H2145 0.950 . S
C2174 C2173 1.334 . S
C2174 C2175 1.287 . S
C2175 C2174 1.287 . S
C2175 C2176 1.524 . S
C2175 H2178 0.999 . S
C2176 H2146 0.950 . S
C2176 C2175 1.524 . S
C2176 C2177 1.415 . S
C2177 H2147 0.950 . S
C2177 C2172 1.363 . S
C2177 C2176 1.415 . S
H2178 C2175 0.999 . S
H2179 C2160 0.913 . S
H2180 C2198 0.951 . S
H2181 C2200 0.951 . S
H2182 C2202 0.950 . S
H2183 C2203 0.950 . S
H2184 C2205 0.950 . S
H2185 C2208 0.950 . S
H2186 C2209 0.950 . S
H2187 C2211 0.950 . S
H2188 C2212 0.950 . S
H2189 C2213 0.951 . S
H2190 C2215 0.951 . S
H2191 C2217 0.950 1_565 S
H2192 C2218 0.950 1_565 S
H2193 C2220 0.950 . S
H2194 C2223 0.950 . S
H2195 C2224 0.950 . S
H2196 C2226 0.950 . S
H2197 C2227 0.950 . S
C2198 H2180 0.951 . S
C2198 C2199 1.366 . S
C2198 C2200 1.388 . S
C2199 C2198 1.366 . S
C2199 C2203 1.385 . S
C2200 H2181 0.951 . S
C2200 C2198 1.388 . S
C2200 C2201 1.366 . S
C2201 C2200 1.366 . S
C2201 C2202 1.414 . S
C2201 C2204 1.499 . S
C2202 H2182 0.950 . S
C2202 C2201 1.414 . S
C2202 C2203 1.374 . S
C2203 H2183 0.950 . S
C2203 C2199 1.385 . S
C2203 C2202 1.374 . S
C2204 C2201 1.499 . S
C2204 C2205 1.373 . S
C2204 C2206 1.389 . S
C2205 H2184 0.950 . S
C2205 C2204 1.373 . S
C2205 C2221 1.377 . S
C2206 C2204 1.389 . S
C2206 C2207 1.524 . S
C2206 C2220 1.377 . S
C2207 C2206 1.524 . S
C2207 C2208 1.397 . S
C2207 C2212 1.363 1_545 S
C2208 H2185 0.950 . S
C2208 C2207 1.397 . S
C2208 C2209 1.334 . S
C2209 H2186 0.950 . S
C2209 C2208 1.334 . S
C2209 C2210 1.287 1_545 S
C2210 C2209 1.287 1_565 S
C2210 C2211 1.524 . S
C2210 H2229 0.913 . S
C2211 H2187 0.950 . S
C2211 C2210 1.524 . S
C2211 C2212 1.415 . S
C2212 H2188 0.950 . S
C2212 C2207 1.363 1_565 S
C2212 C2211 1.415 . S
C2213 H2189 0.951 . S
C2213 C2214 1.366 . S
C2213 C2215 1.388 . S
C2214 C2213 1.366 . S
C2214 C2218 1.385 . S
C2215 H2190 0.951 . S
C2215 C2213 1.388 . S
C2215 C2216 1.366 . S
C2216 C2215 1.366 . S
C2216 C2217 1.414 . S
C2216 C2219 1.499 . S
C2217 H2191 0.950 1_545 S
C2217 C2216 1.414 . S
C2217 C2218 1.374 . S
C2218 H2192 0.950 1_545 S
C2218 C2214 1.385 . S
C2218 C2217 1.374 . S
C2219 C2216 1.499 . S
C2219 C2220 1.373 . S
C2219 C2221 1.389 . S
C2220 H2193 0.950 . S
C2220 C2206 1.377 . S
C2220 C2219 1.373 . S
C2221 C2205 1.377 . S
C2221 C2219 1.389 . S
C2221 C2222 1.524 . S
C2222 C2221 1.524 . S
C2222 C2223 1.397 . S
C2222 C2227 1.363 . S
C2223 H2194 0.950 . S
C2223 C2222 1.397 . S
C2223 C2224 1.334 . S
C2224 H2195 0.950 . S
C2224 C2223 1.334 . S
C2224 C2225 1.287 . S
C2225 C2224 1.287 . S
C2225 C2226 1.524 . S
C2225 H2228 0.999 . S
C2226 H2196 0.950 . S
C2226 C2225 1.524 . S
C2226 C2227 1.415 . S
C2227 H2197 0.950 . S
C2227 C2222 1.363 . S
C2227 C2226 1.415 . S
H2228 C2225 0.999 . S
H2229 C2210 0.913 . S
H2230 C2248 0.951 . S
H2231 C2250 0.951 . S
H2232 C2252 0.950 . S
H2233 C2253 0.950 . S
H2234 C2255 0.950 . S
H2235 C2258 0.950 . S
H2236 C2259 0.950 . S
H2237 C2261 0.950 . S
H2238 C2262 0.950 . S
H2239 C2263 0.951 . S
H2240 C2265 0.951 . S
H2241 C2267 0.950 . S
H2242 C2268 0.950 . S
H2243 C2270 0.950 . S
H2244 C2273 0.950 . S
H2245 C2274 0.950 . S
H2246 C2276 0.950 . S
H2247 C2277 0.950 . S
C2248 H2230 0.951 . S
C2248 C2249 1.366 . S
C2248 C2250 1.388 . S
C2249 C2248 1.366 . S
C2249 C2253 1.385 . S
C2250 H2231 0.951 . S
C2250 C2248 1.388 . S
C2250 C2251 1.366 . S
C2251 C2250 1.366 . S
C2251 C2252 1.414 . S
C2251 C2254 1.499 . S
C2252 H2232 0.950 . S
C2252 C2251 1.414 . S
C2252 C2253 1.374 . S
C2253 H2233 0.950 . S
C2253 C2249 1.385 . S
C2253 C2252 1.374 . S
C2254 C2251 1.499 . S
C2254 C2255 1.373 . S
C2254 C2256 1.389 . S
C2255 H2234 0.950 . S
C2255 C2254 1.373 . S
C2255 C2271 1.377 . S
C2256 C2254 1.389 . S
C2256 C2257 1.524 . S
C2256 C2270 1.377 . S
C2257 C2256 1.524 . S
C2257 C2258 1.397 . S
C2257 C2262 1.363 . S
C2258 H2235 0.950 . S
C2258 C2257 1.397 . S
C2258 C2259 1.334 . S
C2259 H2236 0.950 . S
C2259 C2258 1.334 . S
C2259 C2260 1.287 . S
C2260 C2259 1.287 . S
C2260 C2261 1.524 . S
C2260 H2279 0.913 . S
C2261 H2237 0.950 . S
C2261 C2260 1.524 . S
C2261 C2262 1.415 . S
C2262 H2238 0.950 . S
C2262 C2257 1.363 . S
C2262 C2261 1.415 . S
C2263 H2239 0.951 . S
C2263 C2264 1.366 . S
C2263 C2265 1.388 . S
C2264 C2263 1.366 . S
C2264 C2268 1.385 . S
C2265 H2240 0.951 . S
C2265 C2263 1.388 . S
C2265 C2266 1.366 . S
C2266 C2265 1.366 . S
C2266 C2267 1.414 . S
C2266 C2269 1.499 . S
C2267 H2241 0.950 . S
C2267 C2266 1.414 . S
C2267 C2268 1.374 . S
C2268 H2242 0.950 . S
C2268 C2264 1.385 . S
C2268 C2267 1.374 . S
C2269 C2266 1.499 . S
C2269 C2270 1.373 . S
C2269 C2271 1.389 . S
C2270 H2243 0.950 . S
C2270 C2256 1.377 . S
C2270 C2269 1.373 . S
C2271 C2255 1.377 . S
C2271 C2269 1.389 . S
C2271 C2272 1.524 . S
C2272 C2271 1.524 . S
C2272 C2273 1.397 . S
C2272 C2277 1.363 . S
C2273 H2244 0.950 . S
C2273 C2272 1.397 . S
C2273 C2274 1.334 . S
C2274 H2245 0.950 . S
C2274 C2273 1.334 . S
C2274 C2275 1.287 . S
C2275 C2274 1.287 . S
C2275 C2276 1.524 . S
C2275 H2278 0.999 . S
C2276 H2246 0.950 . S
C2276 C2275 1.524 . S
C2276 C2277 1.415 . S
C2277 H2247 0.950 . S
C2277 C2272 1.363 . S
C2277 C2276 1.415 . S
H2278 C2275 0.999 . S
H2279 C2260 0.913 . S
H2280 C2298 0.951 . S
H2281 C2300 0.951 . S
H2282 C2302 0.927 1_565 S
H2283 C2303 0.937 1_565 S
H2284 C2305 0.950 . S
H2285 C2308 0.935 1_655 S
H2286 C2309 0.950 . S
H2287 C2311 0.950 . S
H2288 C2312 0.950 . S
H2289 C2313 0.947 1_565 S
H2290 C2315 0.951 1_565 S
H2291 C2317 0.949 . S
H2292 C2318 0.950 . S
H2293 C2320 0.950 1_455 S
H2294 C2323 0.950 . S
H2295 C2324 0.950 . S
H2296 C2326 0.950 . S
H2297 C2327 0.950 . S
C2298 H2280 0.951 . S
C2298 C2299 1.366 . S
C2298 C2300 1.388 . S
C2299 C2298 1.366 . S
C2299 C2303 1.401 . S
C2300 H2281 0.951 . S
C2300 C2298 1.388 . S
C2300 C2301 1.366 . S
C2301 C2300 1.366 . S
C2301 C2302 1.433 . S
C2301 C2304 1.499 . S
C2302 H2282 0.927 1_545 S
C2302 C2301 1.433 . S
C2302 C2303 1.375 . S
C2303 H2283 0.937 1_545 S
C2303 C2299 1.401 . S
C2303 C2302 1.375 . S
C2304 C2301 1.499 . S
C2304 C2305 1.373 . S
C2304 C2306 1.389 . S
C2305 H2284 0.950 . S
C2305 C2304 1.373 . S
C2305 C2321 1.377 . S
C2306 C2304 1.389 . S
C2306 C2307 1.524 . S
C2306 C2320 1.377 . S
C2307 C2306 1.524 . S
C2307 C2308 1.379 1_655 S
C2307 C2312 1.363 1_655 S
C2308 H2285 0.935 1_455 S
C2308 C2307 1.379 1_455 S
C2308 C2309 1.369 . S
C2309 H2286 0.950 . S
C2309 C2308 1.369 . S
C2309 C2310 1.287 . S
C2310 C2309 1.287 . S
C2310 C2311 1.524 . S
C2310 H2329 0.913 . S
C2311 H2287 0.950 . S
C2311 C2310 1.524 . S
C2311 C2312 1.415 . S
C2312 H2288 0.950 . S
C2312 C2307 1.363 1_455 S
C2312 C2311 1.415 . S
C2313 H2289 0.947 1_545 S
C2313 C2314 1.353 1_655 S
C2313 C2315 1.407 . S
C2314 C2313 1.353 1_455 S
C2314 C2318 1.385 . S
C2315 H2290 0.951 1_545 S
C2315 C2313 1.407 . S
C2315 C2316 1.366 . S
C2316 C2315 1.366 . S
C2316 C2317 1.406 1_655 S
C2316 C2319 1.499 . S
C2317 H2291 0.949 . S
C2317 C2316 1.406 1_455 S
C2317 C2318 1.384 . S
C2318 H2292 0.950 . S
C2318 C2314 1.385 . S
C2318 C2317 1.384 . S
C2319 C2316 1.499 . S
C2319 C2320 1.373 . S
C2319 C2321 1.389 . S
C2320 H2293 0.950 1_655 S
C2320 C2306 1.377 . S
C2320 C2319 1.373 . S
C2321 C2305 1.377 . S
C2321 C2319 1.389 . S
C2321 C2322 1.533 . S
C2322 C2321 1.533 . S
C2322 C2323 1.409 . S
C2322 C2327 1.345 1_545 S
C2323 H2294 0.950 . S
C2323 C2322 1.409 . S
C2323 C2324 1.334 . S
C2324 H2295 0.950 . S
C2324 C2323 1.334 . S
C2324 C2325 1.287 1_545 S
C2325 C2324 1.287 1_565 S
C2325 C2326 1.524 . S
C2325 H2328 0.999 . S
C2326 H2296 0.950 . S
C2326 C2325 1.524 . S
C2326 C2327 1.415 . S
C2327 H2297 0.950 . S
C2327 C2322 1.345 1_565 S
C2327 C2326 1.415 . S
H2328 C2325 0.999 . S
H2329 C2310 0.913 . S
H2330 C2348 0.951 . S
H2331 C2350 0.951 . S
H2332 C2352 0.950 . S
H2333 C2353 0.950 . S
H2334 C2355 0.950 . S
H2335 C2358 0.950 . S
H2336 C2359 0.950 . S
H2337 C2361 0.950 . S
H2338 C2362 0.950 . S
H2339 C2363 0.951 . S
H2340 C2365 0.951 . S
H2341 C2367 0.950 . S
H2342 C2368 0.950 . S
H2343 C2370 0.950 . S
H2344 C2373 0.950 . S
H2345 C2374 0.950 . S
H2346 C2376 0.950 . S
H2347 C2377 0.950 . S
C2348 H2330 0.951 . S
C2348 C2349 1.366 . S
C2348 C2350 1.388 . S
C2349 C2348 1.366 . S
C2349 C2353 1.385 . S
C2350 H2331 0.951 . S
C2350 C2348 1.388 . S
C2350 C2351 1.366 . S
C2351 C2350 1.366 . S
C2351 C2352 1.414 . S
C2351 C2354 1.499 . S
C2352 H2332 0.950 . S
C2352 C2351 1.414 . S
C2352 C2353 1.374 . S
C2353 H2333 0.950 . S
C2353 C2349 1.385 . S
C2353 C2352 1.374 . S
C2354 C2351 1.499 . S
C2354 C2355 1.373 . S
C2354 C2356 1.389 . S
C2355 H2334 0.950 . S
C2355 C2354 1.373 . S
C2355 C2371 1.377 . S
C2356 C2354 1.389 . S
C2356 C2357 1.524 . S
C2356 C2370 1.377 . S
C2357 C2356 1.524 . S
C2357 C2358 1.397 . S
C2357 C2362 1.363 . S
C2358 H2335 0.950 . S
C2358 C2357 1.397 . S
C2358 C2359 1.334 . S
C2359 H2336 0.950 . S
C2359 C2358 1.334 . S
C2359 C2360 1.287 . S
C2360 C2359 1.287 . S
C2360 C2361 1.524 . S
C2360 H2379 0.913 . S
C2361 H2337 0.950 . S
C2361 C2360 1.524 . S
C2361 C2362 1.415 . S
C2362 H2338 0.950 . S
C2362 C2357 1.363 . S
C2362 C2361 1.415 . S
C2363 H2339 0.951 . S
C2363 C2364 1.366 . S
C2363 C2365 1.388 . S
C2364 C2363 1.366 . S
C2364 C2368 1.385 . S
C2365 H2340 0.951 . S
C2365 C2363 1.388 . S
C2365 C2366 1.366 . S
C2366 C2365 1.366 . S
C2366 C2367 1.414 . S
C2366 C2369 1.499 . S
C2367 H2341 0.950 . S
C2367 C2366 1.414 . S
C2367 C2368 1.374 . S
C2368 H2342 0.950 . S
C2368 C2364 1.385 . S
C2368 C2367 1.374 . S
C2369 C2366 1.499 . S
C2369 C2370 1.373 . S
C2369 C2371 1.389 . S
C2370 H2343 0.950 . S
C2370 C2356 1.377 . S
C2370 C2369 1.373 . S
C2371 C2355 1.377 . S
C2371 C2369 1.389 . S
C2371 C2372 1.524 . S
C2372 C2371 1.524 . S
C2372 C2373 1.397 . S
C2372 C2377 1.363 . S
C2373 H2344 0.950 . S
C2373 C2372 1.397 . S
C2373 C2374 1.334 . S
C2374 H2345 0.950 . S
C2374 C2373 1.334 . S
C2374 C2375 1.287 . S
C2375 C2374 1.287 . S
C2375 C2376 1.524 . S
C2375 H2378 0.999 . S
C2376 H2346 0.950 . S
C2376 C2375 1.524 . S
C2376 C2377 1.415 . S
C2377 H2347 0.950 . S
C2377 C2372 1.363 . S
C2377 C2376 1.415 . S
H2378 C2375 0.999 . S
H2379 C2360 0.913 . S
H2380 C2398 0.951 . S
H2381 C2400 0.951 . S
H2382 C2402 0.950 . S
H2383 C2403 0.950 . S
H2384 C2405 0.950 . S
H2385 C2408 0.950 . S
H2386 C2409 0.950 . S
H2387 C2411 0.950 . S
H2388 C2412 0.950 . S
H2389 C2413 0.951 . S
H2390 C2415 0.951 . S
H2391 C2417 0.950 . S
H2392 C2418 0.950 . S
H2393 C2420 0.950 . S
H2394 C2423 0.950 . S
H2395 C2424 0.950 . S
H2396 C2426 0.950 . S
H2397 C2427 0.950 . S
C2398 H2380 0.951 . S
C2398 C2399 1.366 . S
C2398 C2400 1.388 . S
C2399 C2398 1.366 . S
C2399 C2403 1.385 . S
C2400 H2381 0.951 . S
C2400 C2398 1.388 . S
C2400 C2401 1.366 . S
C2401 C2400 1.366 . S
C2401 C2402 1.414 . S
C2401 C2404 1.499 . S
C2402 H2382 0.950 . S
C2402 C2401 1.414 . S
C2402 C2403 1.374 . S
C2403 H2383 0.950 . S
C2403 C2399 1.385 . S
C2403 C2402 1.374 . S
C2404 C2401 1.499 . S
C2404 C2405 1.373 . S
C2404 C2406 1.389 . S
C2405 H2384 0.950 . S
C2405 C2404 1.373 . S
C2405 C2421 1.377 . S
C2406 C2404 1.389 . S
C2406 C2407 1.524 . S
C2406 C2420 1.377 . S
C2407 C2406 1.524 . S
C2407 C2408 1.397 . S
C2407 C2412 1.363 . S
C2408 H2385 0.950 . S
C2408 C2407 1.397 . S
C2408 C2409 1.334 . S
C2409 H2386 0.950 . S
C2409 C2408 1.334 . S
C2409 C2410 1.287 . S
C2410 C2409 1.287 . S
C2410 C2411 1.524 . S
C2410 H2429 0.913 . S
C2411 H2387 0.950 . S
C2411 C2410 1.524 . S
C2411 C2412 1.415 . S
C2412 H2388 0.950 . S
C2412 C2407 1.363 . S
C2412 C2411 1.415 . S
C2413 H2389 0.951 . S
C2413 C2414 1.366 . S
C2413 C2415 1.388 . S
C2414 C2413 1.366 . S
C2414 C2418 1.385 . S
C2415 H2390 0.951 . S
C2415 C2413 1.388 . S
C2415 C2416 1.366 . S
C2416 C2415 1.366 . S
C2416 C2417 1.414 . S
C2416 C2419 1.499 . S
C2417 H2391 0.950 . S
C2417 C2416 1.414 . S
C2417 C2418 1.374 . S
C2418 H2392 0.950 . S
C2418 C2414 1.385 . S
C2418 C2417 1.374 . S
C2419 C2416 1.499 . S
C2419 C2420 1.373 . S
C2419 C2421 1.389 . S
C2420 H2393 0.950 . S
C2420 C2406 1.377 . S
C2420 C2419 1.373 . S
C2421 C2405 1.377 . S
C2421 C2419 1.389 . S
C2421 C2422 1.524 . S
C2422 C2421 1.524 . S
C2422 C2423 1.397 . S
C2422 C2427 1.363 . S
C2423 H2394 0.950 . S
C2423 C2422 1.397 . S
C2423 C2424 1.334 . S
C2424 H2395 0.950 . S
C2424 C2423 1.334 . S
C2424 C2425 1.287 . S
C2425 C2424 1.287 . S
C2425 C2426 1.524 . S
C2425 H2428 0.999 . S
C2426 H2396 0.950 . S
C2426 C2425 1.524 . S
C2426 C2427 1.415 . S
C2427 H2397 0.950 . S
C2427 C2422 1.363 . S
C2427 C2426 1.415 . S
H2428 C2425 0.999 . S
H2429 C2410 0.913 . S
H2430 C2448 0.951 . S
H2431 C2450 0.951 . S
H2432 C2452 0.950 . S
H2433 C2453 0.950 . S
H2434 C2455 0.950 . S
H2435 C2458 0.950 . S
H2436 C2459 0.950 . S
H2437 C2461 0.950 . S
H2438 C2462 0.950 . S
H2439 C2463 0.951 . S
H2440 C2465 0.951 . S
H2441 C2467 0.950 . S
H2442 C2468 0.950 . S
H2443 C2470 0.950 . S
H2444 C2473 0.950 . S
H2445 C2474 0.950 . S
H2446 C2476 0.950 . S
H2447 C2477 0.950 . S
C2448 H2430 0.951 . S
C2448 C2449 1.366 . S
C2448 C2450 1.388 . S
C2449 C2448 1.366 . S
C2449 C2453 1.385 . S
C2450 H2431 0.951 . S
C2450 C2448 1.388 . S
C2450 C2451 1.366 . S
C2451 C2450 1.366 . S
C2451 C2452 1.414 . S
C2451 C2454 1.499 . S
C2452 H2432 0.950 . S
C2452 C2451 1.414 . S
C2452 C2453 1.374 . S
C2453 H2433 0.950 . S
C2453 C2449 1.385 . S
C2453 C2452 1.374 . S
C2454 C2451 1.499 . S
C2454 C2455 1.373 . S
C2454 C2456 1.389 . S
C2455 H2434 0.950 . S
C2455 C2454 1.373 . S
C2455 C2471 1.377 . S
C2456 C2454 1.389 . S
C2456 C2457 1.524 . S
C2456 C2470 1.377 . S
C2457 C2456 1.524 . S
C2457 C2458 1.397 . S
C2457 C2462 1.363 . S
C2458 H2435 0.950 . S
C2458 C2457 1.397 . S
C2458 C2459 1.334 . S
C2459 H2436 0.950 . S
C2459 C2458 1.334 . S
C2459 C2460 1.287 . S
C2460 C2459 1.287 . S
C2460 C2461 1.524 . S
C2460 H2479 0.913 . S
C2461 H2437 0.950 . S
C2461 C2460 1.524 . S
C2461 C2462 1.415 . S
C2462 H2438 0.950 . S
C2462 C2457 1.363 . S
C2462 C2461 1.415 . S
C2463 H2439 0.951 . S
C2463 C2464 1.366 . S
C2463 C2465 1.388 . S
C2464 C2463 1.366 . S
C2464 C2468 1.385 . S
C2465 H2440 0.951 . S
C2465 C2463 1.388 . S
C2465 C2466 1.366 . S
C2466 C2465 1.366 . S
C2466 C2467 1.414 . S
C2466 C2469 1.499 . S
C2467 H2441 0.950 . S
C2467 C2466 1.414 . S
C2467 C2468 1.374 . S
C2468 H2442 0.950 . S
C2468 C2464 1.385 . S
C2468 C2467 1.374 . S
C2469 C2466 1.499 . S
C2469 C2470 1.373 . S
C2469 C2471 1.389 . S
C2470 H2443 0.950 . S
C2470 C2456 1.377 . S
C2470 C2469 1.373 . S
C2471 C2455 1.377 . S
C2471 C2469 1.389 . S
C2471 C2472 1.524 . S
C2472 C2471 1.524 . S
C2472 C2473 1.397 . S
C2472 C2477 1.363 . S
C2473 H2444 0.950 . S
C2473 C2472 1.397 . S
C2473 C2474 1.334 . S
C2474 H2445 0.950 . S
C2474 C2473 1.334 . S
C2474 C2475 1.287 . S
C2475 C2474 1.287 . S
C2475 C2476 1.524 . S
C2475 H2478 0.999 . S
C2476 H2446 0.950 . S
C2476 C2475 1.524 . S
C2476 C2477 1.415 . S
C2477 H2447 0.950 . S
C2477 C2472 1.363 . S
C2477 C2476 1.415 . S
H2478 C2475 0.999 . S
H2479 C2460 0.913 . S
H2480 C2498 0.951 . S
H2481 C2500 0.951 . S
H2482 C2502 0.950 . S
H2483 C2503 0.950 . S
H2484 C2505 0.950 . S
H2485 C2508 0.950 . S
H2486 C2509 0.950 . S
H2487 C2511 0.950 . S
H2488 C2512 0.950 . S
H2489 C2513 0.942 1_545 S
H2490 C2515 0.951 . S
H2491 C2517 0.950 1_556 S
H2492 C2518 0.950 . S
H2493 C2520 0.990 . S
H2494 C2523 0.950 . S
H2495 C2524 0.950 . S
H2496 C2526 0.950 . S
H2497 C2527 0.950 . S
C2498 H2480 0.951 . S
C2498 C2499 1.366 . S
C2498 C2500 1.388 . S
C2499 C2498 1.366 . S
C2499 C2503 1.385 1_556 S
C2500 H2481 0.951 . S
C2500 C2498 1.388 . S
C2500 C2501 1.366 1_556 S
C2501 C2500 1.366 1_554 S
C2501 C2502 1.414 . S
C2501 C2504 1.499 . S
C2502 H2482 0.950 . S
C2502 C2501 1.414 . S
C2502 C2503 1.374 . S
C2503 H2483 0.950 . S
C2503 C2499 1.385 1_554 S
C2503 C2502 1.374 . S
C2504 C2501 1.499 . S
C2504 C2505 1.373 . S
C2504 C2506 1.389 1_554 S
C2505 H2484 0.950 . S
C2505 C2504 1.373 . S
C2505 C2521 1.377 . S
C2506 C2504 1.389 1_556 S
C2506 C2507 1.524 . S
C2506 C2520 1.389 . S
C2507 C2506 1.524 . S
C2507 C2508 1.397 . S
C2507 C2512 1.363 . S
C2508 H2485 0.950 . S
C2508 C2507 1.397 . S
C2508 C2509 1.334 . S
C2509 H2486 0.950 . S
C2509 C2508 1.334 . S
C2509 C2510 1.287 . S
C2510 C2509 1.287 . S
C2510 C2511 1.524 . S
C2510 H2529 0.913 . S
C2511 H2487 0.950 . S
C2511 C2510 1.524 . S
C2511 C2512 1.415 . S
C2512 H2488 0.950 . S
C2512 C2507 1.363 . S
C2512 C2511 1.415 . S
C2513 H2489 0.942 1_565 S
C2513 C2514 1.365 . S
C2513 C2515 1.398 . S
C2514 C2513 1.365 . S
C2514 C2518 1.385 . S
C2515 H2490 0.951 . S
C2515 C2513 1.398 . S
C2515 C2516 1.366 . S
C2516 C2515 1.366 . S
C2516 C2517 1.414 . S
C2516 C2519 1.499 . S
C2517 H2491 0.950 1_554 S
C2517 C2516 1.414 . S
C2517 C2518 1.374 . S
C2518 H2492 0.950 . S
C2518 C2514 1.385 . S
C2518 C2517 1.374 . S
C2519 C2516 1.499 . S
C2519 C2520 1.323 1_554 S
C2519 C2521 1.389 . S
C2520 H2493 0.990 . S
C2520 C2506 1.389 . S
C2520 C2519 1.323 1_556 S
C2521 C2505 1.377 . S
C2521 C2519 1.389 . S
C2521 C2522 1.524 . S
C2522 C2521 1.524 . S
C2522 C2523 1.397 . S
C2522 C2527 1.363 . S
C2523 H2494 0.950 . S
C2523 C2522 1.397 . S
C2523 C2524 1.334 . S
C2524 H2495 0.950 . S
C2524 C2523 1.334 . S
C2524 C2525 1.287 . S
C2525 C2524 1.287 . S
C2525 C2526 1.524 . S
C2525 H2528 0.999 . S
C2526 H2496 0.950 . S
C2526 C2525 1.524 . S
C2526 C2527 1.415 . S
C2527 H2497 0.950 . S
C2527 C2522 1.363 . S
C2527 C2526 1.415 . S
H2528 C2525 0.999 . S
H2529 C2510 0.913 . S
H2530 C2548 0.951 . S
H2531 C2550 0.951 . S
H2532 C2552 0.950 . S
H2533 C2553 0.950 . S
H2534 C2555 0.950 . S
H2535 C2558 0.950 . S
H2536 C2559 0.950 . S
H2537 C2561 0.950 . S
H2538 C2562 0.950 . S
H2539 C2563 0.951 . S
H2540 C2565 0.951 . S
H2541 C2567 0.950 . S
H2542 C2568 0.950 . S
H2543 C2570 0.950 . S
H2544 C2573 0.950 . S
H2545 C2574 0.950 . S
H2546 C2576 0.950 . S
H2547 C2577 0.950 . S
C2548 H2530 0.951 . S
C2548 C2549 1.366 1_556 S
C2548 C2550 1.388 . S
C2549 C2548 1.366 1_554 S
C2549 C2553 1.385 . S
C2550 H2531 0.951 . S
C2550 C2548 1.388 . S
C2550 C2551 1.366 1_556 S
C2551 C2550 1.366 1_554 S
C2551 C2552 1.414 . S
C2551 C2554 1.499 . S
C2552 H2532 0.950 . S
C2552 C2551 1.414 . S
C2552 C2553 1.374 . S
C2553 H2533 0.950 . S
C2553 C2549 1.385 . S
C2553 C2552 1.374 . S
C2554 C2551 1.499 . S
C2554 C2555 1.373 . S
C2554 C2556 1.389 . S
C2555 H2534 0.950 . S
C2555 C2554 1.373 . S
C2555 C2571 1.377 . S
C2556 C2554 1.389 . S
C2556 C2557 1.524 . S
C2556 C2570 1.377 . S
C2557 C2556 1.524 . S
C2557 C2558 1.397 . S
C2557 C2562 1.363 1_554 S
C2558 H2535 0.950 . S
C2558 C2557 1.397 . S
C2558 C2559 1.334 . S
C2559 H2536 0.950 . S
C2559 C2558 1.334 . S
C2559 C2560 1.287 . S
C2560 C2559 1.287 . S
C2560 C2561 1.524 1_554 S
C2560 H2579 0.913 . S
C2561 H2537 0.950 . S
C2561 C2560 1.524 1_556 S
C2561 C2562 1.415 . S
C2562 H2538 0.950 . S
C2562 C2557 1.363 1_556 S
C2562 C2561 1.415 . S
C2563 H2539 0.951 . S
C2563 C2564 1.366 . S
C2563 C2565 1.388 . S
C2564 C2563 1.366 . S
C2564 C2568 1.385 1_554 S
C2565 H2540 0.951 . S
C2565 C2563 1.388 . S
C2565 C2566 1.366 . S
C2566 C2565 1.366 . S
C2566 C2567 1.414 1_554 S
C2566 C2569 1.499 . S
C2567 H2541 0.950 . S
C2567 C2566 1.414 1_556 S
C2567 C2568 1.374 . S
C2568 H2542 0.950 . S
C2568 C2564 1.385 1_556 S
C2568 C2567 1.374 . S
C2569 C2566 1.499 . S
C2569 C2570 1.373 . S
C2569 C2571 1.389 . S
C2570 H2543 0.950 . S
C2570 C2556 1.377 . S
C2570 C2569 1.373 . S
C2571 C2555 1.377 . S
C2571 C2569 1.389 . S
C2571 C2572 1.524 . S
C2572 C2571 1.524 . S
C2572 C2573 1.397 1_554 S
C2572 C2577 1.363 . S
C2573 H2544 0.950 . S
C2573 C2572 1.397 1_556 S
C2573 C2574 1.334 . S
C2574 H2545 0.950 . S
C2574 C2573 1.334 . S
C2574 C2575 1.287 1_556 S
C2575 C2574 1.287 1_554 S
C2575 C2576 1.524 . S
C2575 H2578 0.999 . S
C2576 H2546 0.950 . S
C2576 C2575 1.524 . S
C2576 C2577 1.415 . S
C2577 H2547 0.950 . S
C2577 C2572 1.363 . S
C2577 C2576 1.415 . S
H2578 C2575 0.999 . S
H2579 C2560 0.913 . S
H2580 C2598 0.951 . S
H2581 C2600 0.951 . S
H2582 C2602 0.950 . S
H2583 C2603 0.950 . S
H2584 C2605 0.950 . S
H2585 C2608 0.950 . S
H2586 C2609 0.950 . S
H2587 C2611 0.950 . S
H2588 C2612 0.950 . S
H2589 C2613 0.951 . S
H2590 C2615 0.951 . S
H2591 C2617 0.950 . S
H2592 C2618 0.950 . S
H2593 C2620 0.950 . S
H2594 C2623 0.950 . S
H2595 C2624 0.950 . S
H2596 C2626 0.950 . S
H2597 C2627 0.950 . S
C2598 H2580 0.951 . S
C2598 C2599 1.366 . S
C2598 C2600 1.388 . S
C2599 C2598 1.366 . S
C2599 C2603 1.385 . S
C2600 H2581 0.951 . S
C2600 C2598 1.388 . S
C2600 C2601 1.366 . S
C2601 C2600 1.366 . S
C2601 C2602 1.414 . S
C2601 C2604 1.499 . S
C2602 H2582 0.950 . S
C2602 C2601 1.414 . S
C2602 C2603 1.374 . S
C2603 H2583 0.950 . S
C2603 C2599 1.385 . S
C2603 C2602 1.374 . S
C2604 C2601 1.499 . S
C2604 C2605 1.373 . S
C2604 C2606 1.389 . S
C2605 H2584 0.950 . S
C2605 C2604 1.373 . S
C2605 C2621 1.377 . S
C2606 C2604 1.389 . S
C2606 C2607 1.524 . S
C2606 C2620 1.377 . S
C2607 C2606 1.524 . S
C2607 C2608 1.397 . S
C2607 C2612 1.363 . S
C2608 H2585 0.950 . S
C2608 C2607 1.397 . S
C2608 C2609 1.334 . S
C2609 H2586 0.950 . S
C2609 C2608 1.334 . S
C2609 C2610 1.287 . S
C2610 C2609 1.287 . S
C2610 C2611 1.524 . S
C2610 H2629 0.913 . S
C2611 H2587 0.950 . S
C2611 C2610 1.524 . S
C2611 C2612 1.415 . S
C2612 H2588 0.950 . S
C2612 C2607 1.363 . S
C2612 C2611 1.415 . S
C2613 H2589 0.951 . S
C2613 C2614 1.366 . S
C2613 C2615 1.388 . S
C2614 C2613 1.366 . S
C2614 C2618 1.385 . S
C2615 H2590 0.951 . S
C2615 C2613 1.388 . S
C2615 C2616 1.366 . S
C2616 C2615 1.366 . S
C2616 C2617 1.414 . S
C2616 C2619 1.499 . S
C2617 H2591 0.950 . S
C2617 C2616 1.414 . S
C2617 C2618 1.374 . S
C2618 H2592 0.950 . S
C2618 C2614 1.385 . S
C2618 C2617 1.374 . S
C2619 C2616 1.499 . S
C2619 C2620 1.373 . S
C2619 C2621 1.389 . S
C2620 H2593 0.950 . S
C2620 C2606 1.377 . S
C2620 C2619 1.373 . S
C2621 C2605 1.377 . S
C2621 C2619 1.389 . S
C2621 C2622 1.524 . S
C2622 C2621 1.524 . S
C2622 C2623 1.397 . S
C2622 C2627 1.363 . S
C2623 H2594 0.950 . S
C2623 C2622 1.397 . S
C2623 C2624 1.334 . S
C2624 H2595 0.950 . S
C2624 C2623 1.334 . S
C2624 C2625 1.287 . S
C2625 C2624 1.287 . S
C2625 C2626 1.524 . S
C2625 H2628 0.999 . S
C2626 H2596 0.950 . S
C2626 C2625 1.524 . S
C2626 C2627 1.415 . S
C2627 H2597 0.950 . S
C2627 C2622 1.363 . S
C2627 C2626 1.415 . S
H2628 C2625 0.999 . S
H2629 C2610 0.913 . S
H2630 C2648 0.951 . S
H2631 C2650 0.951 . S
H2632 C2652 0.950 . S
H2633 C2653 0.950 . S
H2634 C2655 0.950 . S
H2635 C2658 0.950 . S
H2636 C2659 0.950 . S
H2637 C2661 0.950 . S
H2638 C2662 0.950 . S
H2639 C2663 0.951 . S
H2640 C2665 0.951 . S
H2641 C2667 0.950 . S
H2642 C2668 0.950 . S
H2643 C2670 0.950 . S
H2644 C2673 0.950 . S
H2645 C2674 0.950 . S
H2646 C2676 0.950 . S
H2647 C2677 0.950 . S
C2648 H2630 0.951 . S
C2648 C2649 1.366 . S
C2648 C2650 1.388 . S
C2649 C2648 1.366 . S
C2649 C2653 1.385 . S
C2650 H2631 0.951 . S
C2650 C2648 1.388 . S
C2650 C2651 1.366 . S
C2651 C2650 1.366 . S
C2651 C2652 1.414 . S
C2651 C2654 1.499 . S
C2652 H2632 0.950 . S
C2652 C2651 1.414 . S
C2652 C2653 1.374 . S
C2653 H2633 0.950 . S
C2653 C2649 1.385 . S
C2653 C2652 1.374 . S
C2654 C2651 1.499 . S
C2654 C2655 1.373 . S
C2654 C2656 1.389 . S
C2655 H2634 0.950 . S
C2655 C2654 1.373 . S
C2655 C2671 1.377 . S
C2656 C2654 1.389 . S
C2656 C2657 1.524 . S
C2656 C2670 1.377 . S
C2657 C2656 1.524 . S
C2657 C2658 1.397 . S
C2657 C2662 1.363 . S
C2658 H2635 0.950 . S
C2658 C2657 1.397 . S
C2658 C2659 1.334 . S
C2659 H2636 0.950 . S
C2659 C2658 1.334 . S
C2659 C2660 1.287 . S
C2660 C2659 1.287 . S
C2660 C2661 1.524 . S
C2660 H2679 0.913 . S
C2661 H2637 0.950 . S
C2661 C2660 1.524 . S
C2661 C2662 1.415 . S
C2662 H2638 0.950 . S
C2662 C2657 1.363 . S
C2662 C2661 1.415 . S
C2663 H2639 0.951 . S
C2663 C2664 1.366 . S
C2663 C2665 1.388 . S
C2664 C2663 1.366 . S
C2664 C2668 1.385 . S
C2665 H2640 0.951 . S
C2665 C2663 1.388 . S
C2665 C2666 1.366 . S
C2666 C2665 1.366 . S
C2666 C2667 1.414 . S
C2666 C2669 1.499 . S
C2667 H2641 0.950 . S
C2667 C2666 1.414 . S
C2667 C2668 1.374 . S
C2668 H2642 0.950 . S
C2668 C2664 1.385 . S
C2668 C2667 1.374 . S
C2669 C2666 1.499 . S
C2669 C2670 1.373 . S
C2669 C2671 1.389 . S
C2670 H2643 0.950 . S
C2670 C2656 1.377 . S
C2670 C2669 1.373 . S
C2671 C2655 1.377 . S
C2671 C2669 1.389 . S
C2671 C2672 1.524 . S
C2672 C2671 1.524 . S
C2672 C2673 1.397 . S
C2672 C2677 1.363 . S
C2673 H2644 0.950 . S
C2673 C2672 1.397 . S
C2673 C2674 1.334 . S
C2674 H2645 0.950 . S
C2674 C2673 1.334 . S
C2674 C2675 1.287 . S
C2675 C2674 1.287 . S
C2675 C2676 1.524 . S
C2675 H2678 0.999 . S
C2676 H2646 0.950 . S
C2676 C2675 1.524 . S
C2676 C2677 1.415 . S
C2677 H2647 0.950 . S
C2677 C2672 1.363 . S
C2677 C2676 1.415 . S
H2678 C2675 0.999 . S
H2679 C2660 0.913 . S
H2680 C2698 0.951 . S
H2681 C2700 0.951 . S
H2682 C2702 0.950 . S
H2683 C2703 0.950 . S
H2684 C2705 0.950 . S
H2685 C2708 0.950 . S
H2686 C2709 0.950 . S
H2687 C2711 0.950 . S
H2688 C2712 0.950 . S
H2689 C2713 0.951 . S
H2690 C2715 0.951 . S
H2691 C2717 0.950 . S
H2692 C2718 0.950 . S
H2693 C2720 0.950 . S
H2694 C2723 0.950 . S
H2695 C2724 0.950 . S
H2696 C2726 0.950 . S
H2697 C2727 0.950 . S
C2698 H2680 0.951 . S
C2698 C2699 1.366 . S
C2698 C2700 1.388 . S
C2699 C2698 1.366 . S
C2699 C2703 1.385 . S
C2700 H2681 0.951 . S
C2700 C2698 1.388 . S
C2700 C2701 1.366 . S
C2701 C2700 1.366 . S
C2701 C2702 1.414 . S
C2701 C2704 1.499 . S
C2702 H2682 0.950 . S
C2702 C2701 1.414 . S
C2702 C2703 1.374 . S
C2703 H2683 0.950 . S
C2703 C2699 1.385 . S
C2703 C2702 1.374 . S
C2704 C2701 1.499 . S
C2704 C2705 1.373 . S
C2704 C2706 1.389 . S
C2705 H2684 0.950 . S
C2705 C2704 1.373 . S
C2705 C2721 1.377 . S
C2706 C2704 1.389 . S
C2706 C2707 1.524 . S
C2706 C2720 1.377 . S
C2707 C2706 1.524 . S
C2707 C2708 1.397 . S
C2707 C2712 1.363 . S
C2708 H2685 0.950 . S
C2708 C2707 1.397 . S
C2708 C2709 1.334 . S
C2709 H2686 0.950 . S
C2709 C2708 1.334 . S
C2709 C2710 1.287 . S
C2710 C2709 1.287 . S
C2710 C2711 1.524 . S
C2710 H2729 0.913 . S
C2711 H2687 0.950 . S
C2711 C2710 1.524 . S
C2711 C2712 1.415 . S
C2712 H2688 0.950 . S
C2712 C2707 1.363 . S
C2712 C2711 1.415 . S
C2713 H2689 0.951 . S
C2713 C2714 1.366 . S
C2713 C2715 1.388 . S
C2714 C2713 1.366 . S
C2714 C2718 1.385 . S
C2715 H2690 0.951 . S
C2715 C2713 1.388 . S
C2715 C2716 1.366 . S
C2716 C2715 1.366 . S
C2716 C2717 1.414 . S
C2716 C2719 1.499 . S
C2717 H2691 0.950 . S
C2717 C2716 1.414 . S
C2717 C2718 1.374 . S
C2718 H2692 0.950 . S
C2718 C2714 1.385 . S
C2718 C2717 1.374 . S
C2719 C2716 1.499 . S
C2719 C2720 1.373 . S
C2719 C2721 1.389 . S
C2720 H2693 0.950 . S
C2720 C2706 1.377 . S
C2720 C2719 1.373 . S
C2721 C2705 1.377 . S
C2721 C2719 1.389 . S
C2721 C2722 1.524 . S
C2722 C2721 1.524 . S
C2722 C2723 1.397 . S
C2722 C2727 1.363 . S
C2723 H2694 0.950 . S
C2723 C2722 1.397 . S
C2723 C2724 1.334 . S
C2724 H2695 0.950 . S
C2724 C2723 1.334 . S
C2724 C2725 1.287 . S
C2725 C2724 1.287 . S
C2725 C2726 1.524 . S
C2725 H2728 0.999 . S
C2726 H2696 0.950 . S
C2726 C2725 1.524 . S
C2726 C2727 1.415 . S
C2727 H2697 0.950 . S
C2727 C2722 1.363 . S
C2727 C2726 1.415 . S
H2728 C2725 0.999 . S
H2729 C2710 0.913 . S
H2730 C2748 0.951 . S
H2731 C2750 0.951 . S
H2732 C2752 0.950 . S
H2733 C2753 0.950 . S
H2734 C2755 0.950 . S
H2735 C2758 0.950 . S
H2736 C2759 0.950 . S
H2737 C2761 0.950 . S
H2738 C2762 0.950 . S
H2739 C2763 0.951 . S
H2740 C2765 0.951 . S
H2741 C2767 0.950 . S
H2742 C2768 0.950 . S
H2743 C2770 0.950 . S
H2744 C2773 0.950 . S
H2745 C2774 0.950 . S
H2746 C2776 0.950 . S
H2747 C2777 0.950 . S
C2748 H2730 0.951 . S
C2748 C2749 1.366 . S
C2748 C2750 1.388 . S
C2749 C2748 1.366 . S
C2749 C2753 1.385 . S
C2750 H2731 0.951 . S
C2750 C2748 1.388 . S
C2750 C2751 1.366 . S
C2751 C2750 1.366 . S
C2751 C2752 1.414 . S
C2751 C2754 1.499 . S
C2752 H2732 0.950 . S
C2752 C2751 1.414 . S
C2752 C2753 1.374 . S
C2753 H2733 0.950 . S
C2753 C2749 1.385 . S
C2753 C2752 1.374 . S
C2754 C2751 1.499 . S
C2754 C2755 1.373 . S
C2754 C2756 1.389 . S
C2755 H2734 0.950 . S
C2755 C2754 1.373 . S
C2755 C2771 1.377 . S
C2756 C2754 1.389 . S
C2756 C2757 1.524 . S
C2756 C2770 1.377 . S
C2757 C2756 1.524 . S
C2757 C2758 1.397 . S
C2757 C2762 1.363 . S
C2758 H2735 0.950 . S
C2758 C2757 1.397 . S
C2758 C2759 1.334 . S
C2759 H2736 0.950 . S
C2759 C2758 1.334 . S
C2759 C2760 1.287 . S
C2760 C2759 1.287 . S
C2760 C2761 1.524 . S
C2760 H2779 0.913 . S
C2761 H2737 0.950 . S
C2761 C2760 1.524 . S
C2761 C2762 1.415 . S
C2762 H2738 0.950 . S
C2762 C2757 1.363 . S
C2762 C2761 1.415 . S
C2763 H2739 0.951 . S
C2763 C2764 1.366 . S
C2763 C2765 1.388 . S
C2764 C2763 1.366 . S
C2764 C2768 1.385 . S
C2765 H2740 0.951 . S
C2765 C2763 1.388 . S
C2765 C2766 1.366 . S
C2766 C2765 1.366 . S
C2766 C2767 1.414 . S
C2766 C2769 1.499 . S
C2767 H2741 0.950 . S
C2767 C2766 1.414 . S
C2767 C2768 1.374 . S
C2768 H2742 0.950 . S
C2768 C2764 1.385 . S
C2768 C2767 1.374 . S
C2769 C2766 1.499 . S
C2769 C2770 1.373 . S
C2769 C2771 1.389 . S
C2770 H2743 0.950 . S
C2770 C2756 1.377 . S
C2770 C2769 1.373 . S
C2771 C2755 1.377 . S
C2771 C2769 1.389 . S
C2771 C2772 1.524 . S
C2772 C2771 1.524 . S
C2772 C2773 1.397 . S
C2772 C2777 1.363 . S
C2773 H2744 0.950 . S
C2773 C2772 1.397 . S
C2773 C2774 1.334 . S
C2774 H2745 0.950 . S
C2774 C2773 1.334 . S
C2774 C2775 1.287 . S
C2775 C2774 1.287 . S
C2775 C2776 1.524 . S
C2775 H2778 0.999 . S
C2776 H2746 0.950 . S
C2776 C2775 1.524 . S
C2776 C2777 1.415 . S
C2777 H2747 0.950 . S
C2777 C2772 1.363 . S
C2777 C2776 1.415 . S
H2778 C2775 0.999 . S
H2779 C2760 0.913 . S
H2780 C2798 0.951 . S
H2781 C2800 0.951 . S
H2782 C2802 0.950 . S
H2783 C2803 0.950 . S
H2784 C2805 0.950 . S
H2785 C2808 0.950 . S
H2786 C2809 0.950 . S
H2787 C2811 0.950 . S
H2788 C2812 0.950 . S
H2789 C2813 0.951 . S
H2790 C2815 0.951 . S
H2791 C2817 0.950 . S
H2792 C2818 0.950 . S
H2793 C2820 0.950 . S
H2794 C2823 0.950 . S
H2795 C2824 0.950 . S
H2796 C2826 0.950 . S
H2797 C2827 0.950 . S
C2798 H2780 0.951 . S
C2798 C2799 1.366 . S
C2798 C2800 1.388 . S
C2799 C2798 1.366 . S
C2799 C2803 1.385 . S
C2800 H2781 0.951 . S
C2800 C2798 1.388 . S
C2800 C2801 1.366 . S
C2801 C2800 1.366 . S
C2801 C2802 1.414 . S
C2801 C2804 1.499 . S
C2802 H2782 0.950 . S
C2802 C2801 1.414 . S
C2802 C2803 1.374 . S
C2803 H2783 0.950 . S
C2803 C2799 1.385 . S
C2803 C2802 1.374 . S
C2804 C2801 1.499 . S
C2804 C2805 1.373 . S
C2804 C2806 1.389 . S
C2805 H2784 0.950 . S
C2805 C2804 1.373 . S
C2805 C2821 1.377 . S
C2806 C2804 1.389 . S
C2806 C2807 1.524 . S
C2806 C2820 1.377 . S
C2807 C2806 1.524 . S
C2807 C2808 1.397 . S
C2807 C2812 1.363 . S
C2808 H2785 0.950 . S
C2808 C2807 1.397 . S
C2808 C2809 1.334 . S
C2809 H2786 0.950 . S
C2809 C2808 1.334 . S
C2809 C2810 1.287 . S
C2810 C2809 1.287 . S
C2810 C2811 1.524 . S
C2810 H2829 0.913 . S
C2811 H2787 0.950 . S
C2811 C2810 1.524 . S
C2811 C2812 1.415 . S
C2812 H2788 0.950 . S
C2812 C2807 1.363 . S
C2812 C2811 1.415 . S
C2813 H2789 0.951 . S
C2813 C2814 1.366 . S
C2813 C2815 1.388 . S
C2814 C2813 1.366 . S
C2814 C2818 1.385 . S
C2815 H2790 0.951 . S
C2815 C2813 1.388 . S
C2815 C2816 1.366 . S
C2816 C2815 1.366 . S
C2816 C2817 1.414 . S
C2816 C2819 1.499 . S
C2817 H2791 0.950 . S
C2817 C2816 1.414 . S
C2817 C2818 1.374 . S
C2818 H2792 0.950 . S
C2818 C2814 1.385 . S
C2818 C2817 1.374 . S
C2819 C2816 1.499 . S
C2819 C2820 1.373 . S
C2819 C2821 1.389 . S
C2820 H2793 0.950 . S
C2820 C2806 1.377 . S
C2820 C2819 1.373 . S
C2821 C2805 1.377 . S
C2821 C2819 1.389 . S
C2821 C2822 1.524 . S
C2822 C2821 1.524 . S
C2822 C2823 1.397 . S
C2822 C2827 1.363 . S
C2823 H2794 0.950 . S
C2823 C2822 1.397 . S
C2823 C2824 1.334 . S
C2824 H2795 0.950 . S
C2824 C2823 1.334 . S
C2824 C2825 1.287 . S
C2825 C2824 1.287 . S
C2825 C2826 1.524 . S
C2825 H2828 0.999 . S
C2826 H2796 0.950 . S
C2826 C2825 1.524 . S
C2826 C2827 1.415 . S
C2827 H2797 0.950 . S
C2827 C2822 1.363 . S
C2827 C2826 1.415 . S
H2828 C2825 0.999 . S
H2829 C2810 0.913 . S
H2830 C2848 0.951 . S
H2831 C2850 0.951 . S
H2832 C2852 0.950 . S
H2833 C2853 0.950 . S
H2834 C2855 0.950 . S
H2835 C2858 0.950 . S
H2836 C2859 0.950 . S
H2837 C2861 0.950 . S
H2838 C2862 0.950 . S
H2839 C2863 0.951 . S
H2840 C2865 0.951 . S
H2841 C2867 0.950 . S
H2842 C2868 0.950 . S
H2843 C2870 0.950 . S
H2844 C2873 0.950 . S
H2845 C2874 0.950 . S
H2846 C2876 0.950 . S
H2847 C2877 0.950 . S
C2848 H2830 0.951 . S
C2848 C2849 1.366 . S
C2848 C2850 1.388 . S
C2849 C2848 1.366 . S
C2849 C2853 1.385 . S
C2850 H2831 0.951 . S
C2850 C2848 1.388 . S
C2850 C2851 1.366 . S
C2851 C2850 1.366 . S
C2851 C2852 1.414 . S
C2851 C2854 1.499 . S
C2852 H2832 0.950 . S
C2852 C2851 1.414 . S
C2852 C2853 1.374 . S
C2853 H2833 0.950 . S
C2853 C2849 1.385 . S
C2853 C2852 1.374 . S
C2854 C2851 1.499 . S
C2854 C2855 1.373 . S
C2854 C2856 1.389 . S
C2855 H2834 0.950 . S
C2855 C2854 1.373 . S
C2855 C2871 1.377 . S
C2856 C2854 1.389 . S
C2856 C2857 1.524 . S
C2856 C2870 1.377 . S
C2857 C2856 1.524 . S
C2857 C2858 1.397 . S
C2857 C2862 1.363 . S
C2858 H2835 0.950 . S
C2858 C2857 1.397 . S
C2858 C2859 1.334 . S
C2859 H2836 0.950 . S
C2859 C2858 1.334 . S
C2859 C2860 1.287 . S
C2860 C2859 1.287 . S
C2860 C2861 1.524 . S
C2860 H2879 0.913 . S
C2861 H2837 0.950 . S
C2861 C2860 1.524 . S
C2861 C2862 1.415 . S
C2862 H2838 0.950 . S
C2862 C2857 1.363 . S
C2862 C2861 1.415 . S
C2863 H2839 0.951 . S
C2863 C2864 1.366 . S
C2863 C2865 1.388 . S
C2864 C2863 1.366 . S
C2864 C2868 1.385 . S
C2865 H2840 0.951 . S
C2865 C2863 1.388 . S
C2865 C2866 1.366 . S
C2866 C2865 1.366 . S
C2866 C2867 1.414 . S
C2866 C2869 1.499 . S
C2867 H2841 0.950 . S
C2867 C2866 1.414 . S
C2867 C2868 1.374 . S
C2868 H2842 0.950 . S
C2868 C2864 1.385 . S
C2868 C2867 1.374 . S
C2869 C2866 1.499 . S
C2869 C2870 1.373 . S
C2869 C2871 1.389 . S
C2870 H2843 0.950 . S
C2870 C2856 1.377 . S
C2870 C2869 1.373 . S
C2871 C2855 1.377 . S
C2871 C2869 1.389 . S
C2871 C2872 1.524 . S
C2872 C2871 1.524 . S
C2872 C2873 1.397 . S
C2872 C2877 1.363 . S
C2873 H2844 0.950 . S
C2873 C2872 1.397 . S
C2873 C2874 1.334 . S
C2874 H2845 0.950 . S
C2874 C2873 1.334 . S
C2874 C2875 1.287 . S
C2875 C2874 1.287 . S
C2875 C2876 1.524 . S
C2875 H2878 0.999 . S
C2876 H2846 0.950 . S
C2876 C2875 1.524 . S
C2876 C2877 1.415 . S
C2877 H2847 0.950 . S
C2877 C2872 1.363 . S
C2877 C2876 1.415 . S
H2878 C2875 0.999 . S
H2879 C2860 0.913 . S
H2880 C2898 0.951 . S
H2881 C2900 0.951 . S
H2882 C2902 0.950 . S
H2883 C2903 0.950 . S
H2884 C2905 0.950 . S
H2885 C2908 0.950 . S
H2886 C2909 0.950 . S
H2887 C2911 0.950 . S
H2888 C2912 0.950 . S
H2889 C2913 0.951 . S
H2890 C2915 0.951 . S
H2891 C2917 0.950 . S
H2892 C2918 0.950 . S
H2893 C2920 0.950 . S
H2894 C2923 0.950 . S
H2895 C2924 0.948 . S
H2896 C2926 0.950 . S
H2897 C2927 0.950 . S
C2898 H2880 0.951 . S
C2898 C2899 1.366 . S
C2898 C2900 1.388 . S
C2899 C2898 1.366 . S
C2899 C2903 1.385 . S
C2900 H2881 0.951 . S
C2900 C2898 1.388 . S
C2900 C2901 1.366 . S
C2901 C2900 1.366 . S
C2901 C2902 1.414 . S
C2901 C2904 1.499 . S
C2902 H2882 0.950 . S
C2902 C2901 1.414 . S
C2902 C2903 1.374 . S
C2903 H2883 0.950 . S
C2903 C2899 1.385 . S
C2903 C2902 1.374 . S
C2904 C2901 1.499 . S
C2904 C2905 1.373 . S
C2904 C2906 1.389 . S
C2905 H2884 0.950 . S
C2905 C2904 1.373 . S
C2905 C2921 1.377 . S
C2906 C2904 1.389 . S
C2906 C2907 1.524 . S
C2906 C2920 1.377 . S
C2907 C2906 1.524 . S
C2907 C2908 1.397 . S
C2907 C2912 1.363 . S
C2908 H2885 0.950 . S
C2908 C2907 1.397 . S
C2908 C2909 1.334 . S
C2909 H2886 0.950 . S
C2909 C2908 1.334 . S
C2909 C2910 1.287 . S
C2910 C2909 1.287 . S
C2910 C2911 1.524 . S
C2910 H2929 0.913 . S
C2911 H2887 0.950 . S
C2911 C2910 1.524 . S
C2911 C2912 1.415 . S
C2912 H2888 0.950 . S
C2912 C2907 1.363 . S
C2912 C2911 1.415 . S
C2913 H2889 0.951 . S
C2913 C2914 1.366 . S
C2913 C2915 1.388 . S
C2914 C2913 1.366 . S
C2914 C2918 1.385 . S
C2915 H2890 0.951 . S
C2915 C2913 1.388 . S
C2915 C2916 1.366 . S
C2916 C2915 1.366 . S
C2916 C2917 1.414 . S
C2916 C2919 1.499 . S
C2917 H2891 0.950 . S
C2917 C2916 1.414 . S
C2917 C2918 1.374 . S
C2918 H2892 0.950 . S
C2918 C2914 1.385 . S
C2918 C2917 1.374 . S
C2919 C2916 1.499 . S
C2919 C2920 1.373 . S
C2919 C2921 1.389 . S
C2920 H2893 0.950 . S
C2920 C2906 1.377 . S
C2920 C2919 1.373 . S
C2921 C2905 1.377 . S
C2921 C2919 1.389 . S
C2921 C2922 1.524 . S
C2922 C2921 1.524 . S
C2922 C2923 1.397 . S
C2922 C2927 1.363 . S
C2923 H2894 0.950 . S
C2923 C2922 1.397 . S
C2923 C2924 1.334 . S
C2924 H2895 0.948 . S
C2924 C2923 1.334 . S
C2924 C2925 1.287 1_554 S
C2925 C2924 1.287 1_556 S
C2925 C2926 1.524 . S
C2925 H2928 0.999 . S
C2926 H2896 0.950 . S
C2926 C2925 1.524 . S
C2926 C2927 1.415 1_556 S
C2927 H2897 0.950 . S
C2927 C2922 1.363 . S
C2927 C2926 1.415 1_554 S
H2928 C2925 0.999 . S
H2929 C2910 0.913 . S
H2930 C2948 0.951 . S
H2931 C2950 0.951 . S
H2932 C2952 0.950 . S
H2933 C2953 0.950 . S
H2934 C2955 0.950 . S
H2935 C2958 0.950 . S
H2936 C2959 0.950 . S
H2937 C2961 0.950 . S
H2938 C2962 0.950 . S
H2939 C2963 0.951 . S
H2940 C2965 0.951 . S
H2941 C2967 0.950 . S
H2942 C2968 0.950 . S
H2943 C2970 0.950 . S
H2944 C2973 0.950 . S
H2945 C2974 0.950 . S
H2946 C2976 0.950 . S
H2947 C2977 0.950 . S
C2948 H2930 0.951 . S
C2948 C2949 1.366 . S
C2948 C2950 1.388 . S
C2949 C2948 1.366 . S
C2949 C2953 1.385 . S
C2950 H2931 0.951 . S
C2950 C2948 1.388 . S
C2950 C2951 1.366 . S
C2951 C2950 1.366 . S
C2951 C2952 1.414 . S
C2951 C2954 1.499 . S
C2952 H2932 0.950 . S
C2952 C2951 1.414 . S
C2952 C2953 1.374 . S
C2953 H2933 0.950 . S
C2953 C2949 1.385 . S
C2953 C2952 1.374 . S
C2954 C2951 1.499 . S
C2954 C2955 1.373 . S
C2954 C2956 1.389 . S
C2955 H2934 0.950 . S
C2955 C2954 1.373 . S
C2955 C2971 1.377 . S
C2956 C2954 1.389 . S
C2956 C2957 1.524 . S
C2956 C2970 1.377 . S
C2957 C2956 1.524 . S
C2957 C2958 1.397 . S
C2957 C2962 1.363 . S
C2958 H2935 0.950 . S
C2958 C2957 1.397 . S
C2958 C2959 1.334 . S
C2959 H2936 0.950 . S
C2959 C2958 1.334 . S
C2959 C2960 1.287 . S
C2960 C2959 1.287 . S
C2960 C2961 1.524 . S
C2960 H2979 0.913 . S
C2961 H2937 0.950 . S
C2961 C2960 1.524 . S
C2961 C2962 1.415 . S
C2962 H2938 0.950 . S
C2962 C2957 1.363 . S
C2962 C2961 1.415 . S
C2963 H2939 0.951 . S
C2963 C2964 1.366 . S
C2963 C2965 1.388 . S
C2964 C2963 1.366 . S
C2964 C2968 1.385 . S
C2965 H2940 0.951 . S
C2965 C2963 1.388 . S
C2965 C2966 1.366 . S
C2966 C2965 1.366 . S
C2966 C2967 1.414 . S
C2966 C2969 1.499 . S
C2967 H2941 0.950 . S
C2967 C2966 1.414 . S
C2967 C2968 1.374 . S
C2968 H2942 0.950 . S
C2968 C2964 1.385 . S
C2968 C2967 1.374 . S
C2969 C2966 1.499 . S
C2969 C2970 1.373 . S
C2969 C2971 1.389 . S
C2970 H2943 0.950 . S
C2970 C2956 1.377 . S
C2970 C2969 1.373 . S
C2971 C2955 1.377 . S
C2971 C2969 1.389 . S
C2971 C2972 1.524 . S
C2972 C2971 1.524 . S
C2972 C2973 1.397 . S
C2972 C2977 1.363 . S
C2973 H2944 0.950 . S
C2973 C2972 1.397 . S
C2973 C2974 1.334 . S
C2974 H2945 0.950 . S
C2974 C2973 1.334 . S
C2974 C2975 1.287 . S
C2975 C2974 1.287 . S
C2975 C2976 1.524 . S
C2975 H2978 0.999 . S
C2976 H2946 0.950 . S
C2976 C2975 1.524 . S
C2976 C2977 1.415 . S
C2977 H2947 0.950 . S
C2977 C2972 1.363 . S
C2977 C2976 1.415 . S
H2978 C2975 0.999 . S
H2979 C2960 0.913 . S
H2980 C2998 0.951 . S
H2981 C3000 0.951 . S
H2982 C3002 0.950 . S
H2983 C3003 0.950 . S
H2984 C3005 0.950 . S
H2985 C3008 0.950 . S
H2986 C3009 0.950 . S
H2987 C3011 0.950 . S
H2988 C3012 0.950 . S
H2989 C3013 0.951 . S
H2990 C3015 0.951 . S
H2991 C3017 0.950 . S
H2992 C3018 0.950 . S
H2993 C3020 0.950 . S
H2994 C3023 0.950 . S
H2995 C3024 0.950 . S
H2996 C3026 0.950 . S
H2997 C3027 0.950 . S
C2998 H2980 0.951 . S
C2998 C2999 1.366 . S
C2998 C3000 1.388 . S
C2999 C2998 1.366 . S
C2999 C3003 1.385 . S
C3000 H2981 0.951 . S
C3000 C2998 1.388 . S
C3000 C3001 1.366 . S
C3001 C3000 1.366 . S
C3001 C3002 1.414 . S
C3001 C3004 1.499 . S
C3002 H2982 0.950 . S
C3002 C3001 1.414 . S
C3002 C3003 1.374 . S
C3003 H2983 0.950 . S
C3003 C2999 1.385 . S
C3003 C3002 1.374 . S
C3004 C3001 1.499 . S
C3004 C3005 1.373 . S
C3004 C3006 1.389 . S
C3005 H2984 0.950 . S
C3005 C3004 1.373 . S
C3005 C3021 1.377 . S
C3006 C3004 1.389 . S
C3006 C3007 1.524 . S
C3006 C3020 1.377 . S
C3007 C3006 1.524 . S
C3007 C3008 1.397 . S
C3007 C3012 1.363 . S
C3008 H2985 0.950 . S
C3008 C3007 1.397 . S
C3008 C3009 1.334 . S
C3009 H2986 0.950 . S
C3009 C3008 1.334 . S
C3009 C3010 1.287 . S
C3010 C3009 1.287 . S
C3010 C3011 1.524 . S
C3010 H3029 0.913 . S
C3011 H2987 0.950 . S
C3011 C3010 1.524 . S
C3011 C3012 1.415 . S
C3012 H2988 0.950 . S
C3012 C3007 1.363 . S
C3012 C3011 1.415 . S
C3013 H2989 0.951 . S
C3013 C3014 1.366 . S
C3013 C3015 1.388 . S
C3014 C3013 1.366 . S
C3014 C3018 1.385 . S
C3015 H2990 0.951 . S
C3015 C3013 1.388 . S
C3015 C3016 1.366 . S
C3016 C3015 1.366 . S
C3016 C3017 1.414 . S
C3016 C3019 1.499 . S
C3017 H2991 0.950 . S
C3017 C3016 1.414 . S
C3017 C3018 1.374 . S
C3018 H2992 0.950 . S
C3018 C3014 1.385 . S
C3018 C3017 1.374 . S
C3019 C3016 1.499 . S
C3019 C3020 1.373 . S
C3019 C3021 1.389 . S
C3020 H2993 0.950 . S
C3020 C3006 1.377 . S
C3020 C3019 1.373 . S
C3021 C3005 1.377 . S
C3021 C3019 1.389 . S
C3021 C3022 1.524 . S
C3022 C3021 1.524 . S
C3022 C3023 1.397 . S
C3022 C3027 1.363 . S
C3023 H2994 0.950 . S
C3023 C3022 1.397 . S
C3023 C3024 1.334 . S
C3024 H2995 0.950 . S
C3024 C3023 1.334 . S
C3024 C3025 1.287 . S
C3025 C3024 1.287 . S
C3025 C3026 1.524 . S
C3025 H3028 0.999 . S
C3026 H2996 0.950 . S
C3026 C3025 1.524 . S
C3026 C3027 1.415 . S
C3027 H2997 0.950 . S
C3027 C3022 1.363 . S
C3027 C3026 1.415 . S
H3028 C3025 0.999 . S
H3029 C3010 0.913 . S
H3030 C3048 0.951 . S
H3031 C3050 0.951 . S
H3032 C3052 0.950 . S
H3033 C3053 0.950 . S
H3034 C3055 0.950 . S
H3035 C3058 0.950 . S
H3036 C3059 0.950 . S
H3037 C3061 0.950 . S
H3038 C3062 0.950 . S
H3039 C3063 0.951 . S
H3040 C3065 0.951 . S
H3041 C3067 0.950 . S
H3042 C3068 0.950 . S
H3043 C3070 0.950 . S
H3044 C3073 0.950 . S
H3045 C3074 0.950 . S
H3046 C3076 0.950 . S
H3047 C3077 0.950 . S
C3048 H3030 0.951 . S
C3048 C3049 1.366 . S
C3048 C3050 1.388 . S
C3049 C3048 1.366 . S
C3049 C3053 1.385 . S
C3050 H3031 0.951 . S
C3050 C3048 1.388 . S
C3050 C3051 1.366 . S
C3051 C3050 1.366 . S
C3051 C3052 1.414 . S
C3051 C3054 1.499 . S
C3052 H3032 0.950 . S
C3052 C3051 1.414 . S
C3052 C3053 1.374 . S
C3053 H3033 0.950 . S
C3053 C3049 1.385 . S
C3053 C3052 1.374 . S
C3054 C3051 1.499 . S
C3054 C3055 1.373 . S
C3054 C3056 1.389 . S
C3055 H3034 0.950 . S
C3055 C3054 1.373 . S
C3055 C3071 1.377 . S
C3056 C3054 1.389 . S
C3056 C3057 1.524 . S
C3056 C3070 1.377 . S
C3057 C3056 1.524 . S
C3057 C3058 1.397 . S
C3057 C3062 1.363 . S
C3058 H3035 0.950 . S
C3058 C3057 1.397 . S
C3058 C3059 1.334 . S
C3059 H3036 0.950 . S
C3059 C3058 1.334 . S
C3059 C3060 1.287 . S
C3060 C3059 1.287 . S
C3060 C3061 1.524 . S
C3060 H3079 0.913 . S
C3061 H3037 0.950 . S
C3061 C3060 1.524 . S
C3061 C3062 1.415 . S
C3062 H3038 0.950 . S
C3062 C3057 1.363 . S
C3062 C3061 1.415 . S
C3063 H3039 0.951 . S
C3063 C3064 1.366 . S
C3063 C3065 1.388 . S
C3064 C3063 1.366 . S
C3064 C3068 1.385 . S
C3065 H3040 0.951 . S
C3065 C3063 1.388 . S
C3065 C3066 1.366 . S
C3066 C3065 1.366 . S
C3066 C3067 1.414 . S
C3066 C3069 1.499 . S
C3067 H3041 0.950 . S
C3067 C3066 1.414 . S
C3067 C3068 1.374 . S
C3068 H3042 0.950 . S
C3068 C3064 1.385 . S
C3068 C3067 1.374 . S
C3069 C3066 1.499 . S
C3069 C3070 1.373 . S
C3069 C3071 1.389 . S
C3070 H3043 0.950 . S
C3070 C3056 1.377 . S
C3070 C3069 1.373 . S
C3071 C3055 1.377 . S
C3071 C3069 1.389 . S
C3071 C3072 1.524 . S
C3072 C3071 1.524 . S
C3072 C3073 1.397 . S
C3072 C3077 1.363 . S
C3073 H3044 0.950 . S
C3073 C3072 1.397 . S
C3073 C3074 1.334 . S
C3074 H3045 0.950 . S
C3074 C3073 1.334 . S
C3074 C3075 1.287 . S
C3075 C3074 1.287 . S
C3075 C3076 1.524 . S
C3075 H3078 0.999 . S
C3076 H3046 0.950 . S
C3076 C3075 1.524 . S
C3076 C3077 1.415 . S
C3077 H3047 0.950 . S
C3077 C3072 1.363 . S
C3077 C3076 1.415 . S
H3078 C3075 0.999 . S
H3079 C3060 0.913 . S
H3080 C3098 0.951 . S
H3081 C3100 0.951 . S
H3082 C3102 0.950 . S
H3083 C3103 0.950 . S
H3084 C3105 0.950 . S
H3085 C3108 0.950 . S
H3086 C3109 0.950 . S
H3087 C3111 0.950 . S
H3088 C3112 0.950 . S
H3089 C3113 0.951 . S
H3090 C3115 0.951 . S
H3091 C3117 0.950 . S
H3092 C3118 0.950 . S
H3093 C3120 0.950 . S
H3094 C3123 0.950 . S
H3095 C3124 0.950 . S
H3096 C3126 0.950 . S
H3097 C3127 0.950 . S
C3098 H3080 0.951 . S
C3098 C3099 1.366 . S
C3098 C3100 1.388 . S
C3099 C3098 1.366 . S
C3099 C3103 1.385 . S
C3100 H3081 0.951 . S
C3100 C3098 1.388 . S
C3100 C3101 1.366 . S
C3101 C3100 1.366 . S
C3101 C3102 1.414 . S
C3101 C3104 1.499 . S
C3102 H3082 0.950 . S
C3102 C3101 1.414 . S
C3102 C3103 1.374 . S
C3103 H3083 0.950 . S
C3103 C3099 1.385 . S
C3103 C3102 1.374 . S
C3104 C3101 1.499 . S
C3104 C3105 1.373 . S
C3104 C3106 1.389 . S
C3105 H3084 0.950 . S
C3105 C3104 1.373 . S
C3105 C3121 1.377 . S
C3106 C3104 1.389 . S
C3106 C3107 1.524 . S
C3106 C3120 1.377 . S
C3107 C3106 1.524 . S
C3107 C3108 1.397 . S
C3107 C3112 1.363 . S
C3108 H3085 0.950 . S
C3108 C3107 1.397 . S
C3108 C3109 1.334 . S
C3109 H3086 0.950 . S
C3109 C3108 1.334 . S
C3109 C3110 1.287 . S
C3110 C3109 1.287 . S
C3110 C3111 1.524 . S
C3110 H3129 0.913 . S
C3111 H3087 0.950 . S
C3111 C3110 1.524 . S
C3111 C3112 1.415 . S
C3112 H3088 0.950 . S
C3112 C3107 1.363 . S
C3112 C3111 1.415 . S
C3113 H3089 0.951 . S
C3113 C3114 1.366 . S
C3113 C3115 1.388 . S
C3114 C3113 1.366 . S
C3114 C3118 1.385 . S
C3115 H3090 0.951 . S
C3115 C3113 1.388 . S
C3115 C3116 1.366 . S
C3116 C3115 1.366 . S
C3116 C3117 1.414 . S
C3116 C3119 1.499 . S
C3117 H3091 0.950 . S
C3117 C3116 1.414 . S
C3117 C3118 1.374 . S
C3118 H3092 0.950 . S
C3118 C3114 1.385 . S
C3118 C3117 1.374 . S
C3119 C3116 1.499 . S
C3119 C3120 1.373 . S
C3119 C3121 1.389 . S
C3120 H3093 0.950 . S
C3120 C3106 1.377 . S
C3120 C3119 1.373 . S
C3121 C3105 1.377 . S
C3121 C3119 1.389 . S
C3121 C3122 1.524 . S
C3122 C3121 1.524 . S
C3122 C3123 1.397 1_455 S
C3122 C3127 1.363 . S
C3123 H3094 0.950 . S
C3123 C3122 1.397 1_655 S
C3123 C3124 1.334 . S
C3124 H3095 0.950 . S
C3124 C3123 1.334 . S
C3124 C3125 1.287 . S
C3125 C3124 1.287 . S
C3125 C3126 1.524 1_655 S
C3125 H3128 0.999 . S
C3126 H3096 0.950 . S
C3126 C3125 1.524 1_455 S
C3126 C3127 1.415 . S
C3127 H3097 0.950 . S
C3127 C3122 1.363 . S
C3127 C3126 1.415 . S
H3128 C3125 0.999 . S
H3129 C3110 0.913 . S
H3130 C3148 0.951 . S
H3131 C3150 0.951 . S
H3132 C3152 0.950 . S
H3133 C3153 0.950 . S
H3134 C3155 0.950 . S
H3135 C3158 0.950 . S
H3136 C3159 0.950 . S
H3137 C3161 0.950 . S
H3138 C3162 0.950 . S
H3139 C3163 0.951 . S
H3140 C3165 0.951 . S
H3141 C3167 0.950 . S
H3142 C3168 0.950 . S
H3143 C3170 0.950 . S
H3144 C3173 0.950 . S
H3145 C3174 0.950 . S
H3146 C3176 0.950 . S
H3147 C3177 0.950 . S
C3148 H3130 0.951 . S
C3148 C3149 1.366 . S
C3148 C3150 1.388 . S
C3149 C3148 1.366 . S
C3149 C3153 1.385 . S
C3150 H3131 0.951 . S
C3150 C3148 1.388 . S
C3150 C3151 1.366 . S
C3151 C3150 1.366 . S
C3151 C3152 1.414 . S
C3151 C3154 1.499 . S
C3152 H3132 0.950 . S
C3152 C3151 1.414 . S
C3152 C3153 1.374 . S
C3153 H3133 0.950 . S
C3153 C3149 1.385 . S
C3153 C3152 1.374 . S
C3154 C3151 1.499 . S
C3154 C3155 1.373 . S
C3154 C3156 1.389 . S
C3155 H3134 0.950 . S
C3155 C3154 1.373 . S
C3155 C3171 1.377 . S
C3156 C3154 1.389 . S
C3156 C3157 1.524 . S
C3156 C3170 1.377 . S
C3157 C3156 1.524 . S
C3157 C3158 1.397 . S
C3157 C3162 1.363 . S
C3158 H3135 0.950 . S
C3158 C3157 1.397 . S
C3158 C3159 1.334 . S
C3159 H3136 0.950 . S
C3159 C3158 1.334 . S
C3159 C3160 1.287 . S
C3160 C3159 1.287 . S
C3160 C3161 1.524 . S
C3160 H3179 0.913 . S
C3161 H3137 0.950 . S
C3161 C3160 1.524 . S
C3161 C3162 1.415 . S
C3162 H3138 0.950 . S
C3162 C3157 1.363 . S
C3162 C3161 1.415 . S
C3163 H3139 0.951 . S
C3163 C3164 1.366 . S
C3163 C3165 1.388 . S
C3164 C3163 1.366 . S
C3164 C3168 1.385 . S
C3165 H3140 0.951 . S
C3165 C3163 1.388 . S
C3165 C3166 1.366 . S
C3166 C3165 1.366 . S
C3166 C3167 1.414 . S
C3166 C3169 1.499 . S
C3167 H3141 0.950 . S
C3167 C3166 1.414 . S
C3167 C3168 1.374 . S
C3168 H3142 0.950 . S
C3168 C3164 1.385 . S
C3168 C3167 1.374 . S
C3169 C3166 1.499 . S
C3169 C3170 1.373 . S
C3169 C3171 1.389 . S
C3170 H3143 0.950 . S
C3170 C3156 1.377 . S
C3170 C3169 1.373 . S
C3171 C3155 1.377 . S
C3171 C3169 1.389 . S
C3171 C3172 1.524 . S
C3172 C3171 1.524 . S
C3172 C3173 1.397 . S
C3172 C3177 1.363 . S
C3173 H3144 0.950 . S
C3173 C3172 1.397 . S
C3173 C3174 1.334 . S
C3174 H3145 0.950 . S
C3174 C3173 1.334 . S
C3174 C3175 1.287 . S
C3175 C3174 1.287 . S
C3175 C3176 1.524 . S
C3175 H3178 0.999 . S
C3176 H3146 0.950 . S
C3176 C3175 1.524 . S
C3176 C3177 1.415 . S
C3177 H3147 0.950 . S
C3177 C3172 1.363 . S
C3177 C3176 1.415 . S
H3178 C3175 0.999 . S
H3179 C3160 0.913 . S
H3180 C3198 0.951 . S
H3181 C3200 0.951 . S
H3182 C3202 0.950 . S
H3183 C3203 0.950 . S
H3184 C3205 0.950 . S
H3185 C3208 0.950 . S
H3186 C3209 0.950 . S
H3187 C3211 0.950 . S
H3188 C3212 0.950 . S
H3189 C3213 0.951 . S
H3190 C3215 0.951 . S
H3191 C3217 0.950 . S
H3192 C3218 0.950 . S
H3193 C3220 0.950 . S
H3194 C3223 0.950 . S
H3195 C3224 0.950 . S
H3196 C3226 0.950 . S
H3197 C3227 0.950 . S
C3198 H3180 0.951 . S
C3198 C3199 1.366 . S
C3198 C3200 1.388 . S
C3199 C3198 1.366 . S
C3199 C3203 1.385 . S
C3200 H3181 0.951 . S
C3200 C3198 1.388 . S
C3200 C3201 1.366 . S
C3201 C3200 1.366 . S
C3201 C3202 1.414 . S
C3201 C3204 1.499 . S
C3202 H3182 0.950 . S
C3202 C3201 1.414 . S
C3202 C3203 1.374 . S
C3203 H3183 0.950 . S
C3203 C3199 1.385 . S
C3203 C3202 1.374 . S
C3204 C3201 1.499 . S
C3204 C3205 1.373 . S
C3204 C3206 1.389 . S
C3205 H3184 0.950 . S
C3205 C3204 1.373 . S
C3205 C3221 1.377 . S
C3206 C3204 1.389 . S
C3206 C3207 1.524 . S
C3206 C3220 1.377 . S
C3207 C3206 1.524 . S
C3207 C3208 1.397 . S
C3207 C3212 1.363 . S
C3208 H3185 0.950 . S
C3208 C3207 1.397 . S
C3208 C3209 1.334 . S
C3209 H3186 0.950 . S
C3209 C3208 1.334 . S
C3209 C3210 1.287 . S
C3210 C3209 1.287 . S
C3210 C3211 1.524 . S
C3210 H3229 0.913 . S
C3211 H3187 0.950 . S
C3211 C3210 1.524 . S
C3211 C3212 1.415 . S
C3212 H3188 0.950 . S
C3212 C3207 1.363 . S
C3212 C3211 1.415 . S
C3213 H3189 0.951 . S
C3213 C3214 1.366 . S
C3213 C3215 1.388 . S
C3214 C3213 1.366 . S
C3214 C3218 1.385 . S
C3215 H3190 0.951 . S
C3215 C3213 1.388 . S
C3215 C3216 1.366 . S
C3216 C3215 1.366 . S
C3216 C3217 1.414 . S
C3216 C3219 1.499 . S
C3217 H3191 0.950 . S
C3217 C3216 1.414 . S
C3217 C3218 1.374 . S
C3218 H3192 0.950 . S
C3218 C3214 1.385 . S
C3218 C3217 1.374 . S
C3219 C3216 1.499 . S
C3219 C3220 1.373 . S
C3219 C3221 1.389 . S
C3220 H3193 0.950 . S
C3220 C3206 1.377 . S
C3220 C3219 1.373 . S
C3221 C3205 1.377 . S
C3221 C3219 1.389 . S
C3221 C3222 1.524 . S
C3222 C3221 1.524 . S
C3222 C3223 1.397 . S
C3222 C3227 1.363 . S
C3223 H3194 0.950 . S
C3223 C3222 1.397 . S
C3223 C3224 1.334 . S
C3224 H3195 0.950 . S
C3224 C3223 1.334 . S
C3224 C3225 1.287 . S
C3225 C3224 1.287 . S
C3225 C3226 1.524 . S
C3225 H3228 0.999 . S
C3226 H3196 0.950 . S
C3226 C3225 1.524 . S
C3226 C3227 1.415 . S
C3227 H3197 0.950 . S
C3227 C3222 1.363 . S
C3227 C3226 1.415 . S
H3228 C3225 0.999 . S
H3229 C3210 0.913 . S
H3230 C3248 0.951 . S
H3231 C3250 0.951 . S
H3232 C3252 0.950 . S
H3233 C3253 0.950 . S
H3234 C3255 0.950 . S
H3235 C3258 0.950 . S
H3236 C3259 0.950 . S
H3237 C3261 0.950 . S
H3238 C3262 0.950 . S
H3239 C3263 0.951 . S
H3240 C3265 0.951 . S
H3241 C3267 0.950 . S
H3242 C3268 0.950 . S
H3243 C3270 0.950 . S
H3244 C3273 0.950 . S
H3245 C3274 0.950 . S
H3246 C3276 0.950 . S
H3247 C3277 0.950 . S
C3248 H3230 0.951 . S
C3248 C3249 1.366 . S
C3248 C3250 1.388 . S
C3249 C3248 1.366 . S
C3249 C3253 1.385 . S
C3250 H3231 0.951 . S
C3250 C3248 1.388 . S
C3250 C3251 1.366 . S
C3251 C3250 1.366 . S
C3251 C3252 1.414 . S
C3251 C3254 1.499 . S
C3252 H3232 0.950 . S
C3252 C3251 1.414 . S
C3252 C3253 1.374 . S
C3253 H3233 0.950 . S
C3253 C3249 1.385 . S
C3253 C3252 1.374 . S
C3254 C3251 1.499 . S
C3254 C3255 1.373 . S
C3254 C3256 1.389 . S
C3255 H3234 0.950 . S
C3255 C3254 1.373 . S
C3255 C3271 1.377 . S
C3256 C3254 1.389 . S
C3256 C3257 1.524 . S
C3256 C3270 1.377 . S
C3257 C3256 1.524 . S
C3257 C3258 1.397 . S
C3257 C3262 1.363 . S
C3258 H3235 0.950 . S
C3258 C3257 1.397 . S
C3258 C3259 1.334 . S
C3259 H3236 0.950 . S
C3259 C3258 1.334 . S
C3259 C3260 1.287 . S
C3260 C3259 1.287 . S
C3260 C3261 1.524 . S
C3260 H3279 0.913 . S
C3261 H3237 0.950 . S
C3261 C3260 1.524 . S
C3261 C3262 1.415 . S
C3262 H3238 0.950 . S
C3262 C3257 1.363 . S
C3262 C3261 1.415 . S
C3263 H3239 0.951 . S
C3263 C3264 1.366 . S
C3263 C3265 1.388 . S
C3264 C3263 1.366 . S
C3264 C3268 1.385 . S
C3265 H3240 0.951 . S
C3265 C3263 1.388 . S
C3265 C3266 1.366 . S
C3266 C3265 1.366 . S
C3266 C3267 1.414 . S
C3266 C3269 1.499 . S
C3267 H3241 0.950 . S
C3267 C3266 1.414 . S
C3267 C3268 1.374 . S
C3268 H3242 0.950 . S
C3268 C3264 1.385 . S
C3268 C3267 1.374 . S
C3269 C3266 1.499 . S
C3269 C3270 1.373 . S
C3269 C3271 1.389 . S
C3270 H3243 0.950 . S
C3270 C3256 1.377 . S
C3270 C3269 1.373 . S
C3271 C3255 1.377 . S
C3271 C3269 1.389 . S
C3271 C3272 1.524 . S
C3272 C3271 1.524 . S
C3272 C3273 1.397 . S
C3272 C3277 1.363 . S
C3273 H3244 0.950 . S
C3273 C3272 1.397 . S
C3273 C3274 1.334 . S
C3274 H3245 0.950 . S
C3274 C3273 1.334 . S
C3274 C3275 1.287 . S
C3275 C3274 1.287 . S
C3275 C3276 1.524 . S
C3275 H3278 0.999 . S
C3276 H3246 0.950 . S
C3276 C3275 1.524 . S
C3276 C3277 1.415 . S
C3277 H3247 0.950 . S
C3277 C3272 1.363 . S
C3277 C3276 1.415 . S
H3278 C3275 0.999 . S
H3279 C3260 0.913 . S
H3280 C3298 0.951 . S
H3281 C3300 0.951 . S
H3282 C3302 0.950 . S
H3283 C3303 0.950 . S
H3284 C3305 0.950 . S
H3285 C3308 0.950 . S
H3286 C3309 0.950 . S
H3287 C3311 0.950 . S
H3288 C3312 0.950 . S
H3289 C3313 0.951 . S
H3290 C3315 0.951 . S
H3291 C3317 0.950 . S
H3292 C3318 0.950 . S
H3293 C3320 0.950 . S
H3294 C3323 0.950 . S
H3295 C3324 0.950 . S
H3296 C3326 0.950 . S
H3297 C3327 0.950 . S
C3298 H3280 0.951 . S
C3298 C3299 1.366 . S
C3298 C3300 1.388 . S
C3299 C3298 1.366 . S
C3299 C3303 1.385 . S
C3300 H3281 0.951 . S
C3300 C3298 1.388 . S
C3300 C3301 1.366 . S
C3301 C3300 1.366 . S
C3301 C3302 1.414 . S
C3301 C3304 1.499 . S
C3302 H3282 0.950 . S
C3302 C3301 1.414 . S
C3302 C3303 1.374 . S
C3303 H3283 0.950 . S
C3303 C3299 1.385 . S
C3303 C3302 1.374 . S
C3304 C3301 1.499 . S
C3304 C3305 1.373 . S
C3304 C3306 1.389 . S
C3305 H3284 0.950 . S
C3305 C3304 1.373 . S
C3305 C3321 1.377 . S
C3306 C3304 1.389 . S
C3306 C3307 1.524 . S
C3306 C3320 1.377 . S
C3307 C3306 1.524 . S
C3307 C3308 1.397 . S
C3307 C3312 1.363 . S
C3308 H3285 0.950 . S
C3308 C3307 1.397 . S
C3308 C3309 1.334 . S
C3309 H3286 0.950 . S
C3309 C3308 1.334 . S
C3309 C3310 1.287 . S
C3310 C3309 1.287 . S
C3310 C3311 1.524 . S
C3310 H3329 0.913 . S
C3311 H3287 0.950 . S
C3311 C3310 1.524 . S
C3311 C3312 1.415 . S
C3312 H3288 0.950 . S
C3312 C3307 1.363 . S
C3312 C3311 1.415 . S
C3313 H3289 0.951 . S
C3313 C3314 1.366 . S
C3313 C3315 1.388 . S
C3314 C3313 1.366 . S
C3314 C3318 1.385 . S
C3315 H3290 0.951 . S
C3315 C3313 1.388 . S
C3315 C3316 1.366 . S
C3316 C3315 1.366 . S
C3316 C3317 1.414 . S
C3316 C3319 1.499 . S
C3317 H3291 0.950 . S
C3317 C3316 1.414 . S
C3317 C3318 1.374 . S
C3318 H3292 0.950 . S
C3318 C3314 1.385 . S
C3318 C3317 1.374 . S
C3319 C3316 1.499 . S
C3319 C3320 1.373 . S
C3319 C3321 1.389 . S
C3320 H3293 0.950 . S
C3320 C3306 1.377 . S
C3320 C3319 1.373 . S
C3321 C3305 1.377 . S
C3321 C3319 1.389 . S
C3321 C3322 1.524 1_545 S
C3322 C3321 1.524 1_565 S
C3322 C3323 1.397 . S
C3322 C3327 1.363 . S
C3323 H3294 0.950 . S
C3323 C3322 1.397 . S
C3323 C3324 1.334 . S
C3324 H3295 0.950 . S
C3324 C3323 1.334 . S
C3324 C3325 1.287 . S
C3325 C3324 1.287 . S
C3325 C3326 1.524 . S
C3325 H3328 0.999 . S
C3326 H3296 0.950 . S
C3326 C3325 1.524 . S
C3326 C3327 1.415 . S
C3327 H3297 0.950 . S
C3327 C3322 1.363 . S
C3327 C3326 1.415 . S
H3328 C3325 0.999 . S
H3329 C3310 0.913 . S
H3330 C3348 0.951 . S
H3331 C3350 0.951 . S
H3332 C3352 0.950 . S
H3333 C3353 0.950 . S
H3334 C3355 0.950 . S
H3335 C3358 0.950 . S
H3336 C3359 0.950 . S
H3337 C3361 0.950 . S
H3338 C3362 0.950 . S
H3339 C3363 0.951 . S
H3340 C3365 0.951 . S
H3341 C3367 0.950 . S
H3342 C3368 0.950 . S
H3343 C3370 0.950 . S
H3344 C3373 0.950 . S
H3345 C3374 0.950 . S
H3346 C3376 0.950 . S
H3347 C3377 0.950 . S
C3348 H3330 0.951 . S
C3348 C3349 1.366 . S
C3348 C3350 1.388 . S
C3349 C3348 1.366 . S
C3349 C3353 1.385 . S
C3350 H3331 0.951 . S
C3350 C3348 1.388 . S
C3350 C3351 1.366 . S
C3351 C3350 1.366 . S
C3351 C3352 1.414 . S
C3351 C3354 1.499 . S
C3352 H3332 0.950 . S
C3352 C3351 1.414 . S
C3352 C3353 1.374 . S
C3353 H3333 0.950 . S
C3353 C3349 1.385 . S
C3353 C3352 1.374 . S
C3354 C3351 1.499 . S
C3354 C3355 1.373 . S
C3354 C3356 1.389 . S
C3355 H3334 0.950 . S
C3355 C3354 1.373 . S
C3355 C3371 1.377 . S
C3356 C3354 1.389 . S
C3356 C3357 1.524 . S
C3356 C3370 1.377 . S
C3357 C3356 1.524 . S
C3357 C3358 1.397 . S
C3357 C3362 1.363 . S
C3358 H3335 0.950 . S
C3358 C3357 1.397 . S
C3358 C3359 1.334 . S
C3359 H3336 0.950 . S
C3359 C3358 1.334 . S
C3359 C3360 1.287 . S
C3360 C3359 1.287 . S
C3360 C3361 1.524 . S
C3360 H3379 0.913 . S
C3361 H3337 0.950 . S
C3361 C3360 1.524 . S
C3361 C3362 1.415 . S
C3362 H3338 0.950 . S
C3362 C3357 1.363 . S
C3362 C3361 1.415 . S
C3363 H3339 0.951 . S
C3363 C3364 1.366 . S
C3363 C3365 1.388 . S
C3364 C3363 1.366 . S
C3364 C3368 1.385 . S
C3365 H3340 0.951 . S
C3365 C3363 1.388 . S
C3365 C3366 1.366 . S
C3366 C3365 1.366 . S
C3366 C3367 1.414 . S
C3366 C3369 1.499 . S
C3367 H3341 0.950 . S
C3367 C3366 1.414 . S
C3367 C3368 1.374 . S
C3368 H3342 0.950 . S
C3368 C3364 1.385 . S
C3368 C3367 1.374 . S
C3369 C3366 1.499 . S
C3369 C3370 1.373 . S
C3369 C3371 1.389 . S
C3370 H3343 0.950 . S
C3370 C3356 1.377 . S
C3370 C3369 1.373 . S
C3371 C3355 1.377 . S
C3371 C3369 1.389 . S
C3371 C3372 1.524 . S
C3372 C3371 1.524 . S
C3372 C3373 1.397 . S
C3372 C3377 1.363 . S
C3373 H3344 0.950 . S
C3373 C3372 1.397 . S
C3373 C3374 1.334 . S
C3374 H3345 0.950 . S
C3374 C3373 1.334 . S
C3374 C3375 1.287 . S
C3375 C3374 1.287 . S
C3375 C3376 1.524 . S
C3375 H3378 0.999 . S
C3376 H3346 0.950 . S
C3376 C3375 1.524 . S
C3376 C3377 1.415 . S
C3377 H3347 0.950 . S
C3377 C3372 1.363 . S
C3377 C3376 1.415 . S
H3378 C3375 0.999 . S
H3379 C3360 0.913 . S
H3380 C3398 0.951 . S
H3381 C3400 0.951 . S
H3382 C3402 0.939 1_565 S
H3383 C3403 0.950 . S
H3384 C3405 0.900 1_565 S
H3385 C3408 0.950 . S
H3386 C3409 0.950 . S
H3387 C3411 0.950 . S
H3388 C3412 0.950 . S
H3389 C3413 0.996 . S
H3390 C3415 0.951 1_565 S
H3391 C3417 0.950 . S
H3392 C3418 0.950 . S
H3393 C3420 0.950 . S
H3394 C3423 0.950 . S
H3395 C3424 0.950 . S
H3396 C3426 0.950 . S
H3397 C3427 0.950 . S
C3398 H3380 0.951 . S
C3398 C3399 1.366 . S
C3398 C3400 1.388 . S
C3399 C3398 1.366 . S
C3399 C3403 1.385 1_545 S
C3400 H3381 0.951 . S
C3400 C3398 1.388 . S
C3400 C3401 1.366 . S
C3401 C3400 1.366 . S
C3401 C3402 1.424 . S
C3401 C3404 1.499 . S
C3402 H3382 0.939 1_545 S
C3402 C3401 1.424 . S
C3402 C3403 1.376 1_545 S
C3403 H3383 0.950 . S
C3403 C3399 1.385 1_565 S
C3403 C3402 1.376 1_565 S
C3404 C3401 1.499 . S
C3404 C3405 1.434 . S
C3404 C3406 1.389 . S
C3405 H3384 0.900 1_545 S
C3405 C3404 1.434 . S
C3405 C3421 1.369 . S
C3406 C3404 1.389 . S
C3406 C3407 1.524 . S
C3406 C3420 1.377 . S
C3407 C3406 1.524 . S
C3407 C3408 1.397 . S
C3407 C3412 1.363 . S
C3408 H3385 0.950 . S
C3408 C3407 1.397 . S
C3408 C3409 1.334 . S
C3409 H3386 0.950 . S
C3409 C3408 1.334 . S
C3409 C3410 1.287 . S
C3410 C3409 1.287 . S
C3410 C3411 1.524 . S
C3410 H3429 0.913 . S
C3411 H3387 0.950 . S
C3411 C3410 1.524 . S
C3411 C3412 1.415 . S
C3412 H3388 0.950 . S
C3412 C3407 1.363 . S
C3412 C3411 1.415 . S
C3413 H3389 0.996 . S
C3413 C3414 1.366 . S
C3413 C3415 1.388 . S
C3414 C3413 1.366 . S
C3414 C3418 1.385 . S
C3415 H3390 0.951 1_545 S
C3415 C3413 1.388 . S
C3415 C3416 1.366 . S
C3416 C3415 1.366 . S
C3416 C3417 1.414 . S
C3416 C3419 1.499 . S
C3417 H3391 0.950 . S
C3417 C3416 1.414 . S
C3417 C3418 1.374 . S
C3418 H3392 0.950 . S
C3418 C3414 1.385 . S
C3418 C3417 1.374 . S
C3419 C3416 1.499 . S
C3419 C3420 1.373 . S
C3419 C3421 1.389 . S
C3420 H3393 0.950 . S
C3420 C3406 1.377 . S
C3420 C3419 1.373 . S
C3421 C3405 1.369 . S
C3421 C3419 1.389 . S
C3421 C3422 1.524 1_545 S
C3422 C3421 1.524 1_565 S
C3422 C3423 1.397 . S
C3422 C3427 1.363 . S
C3423 H3394 0.950 . S
C3423 C3422 1.397 . S
C3423 C3424 1.334 . S
C3424 H3395 0.950 . S
C3424 C3423 1.334 . S
C3424 C3425 1.287 . S
C3425 C3424 1.287 . S
C3425 C3426 1.524 . S
C3425 H3428 0.999 . S
C3426 H3396 0.950 . S
C3426 C3425 1.524 . S
C3426 C3427 1.415 . S
C3427 H3397 0.950 . S
C3427 C3422 1.363 . S
C3427 C3426 1.415 . S
H3428 C3425 0.999 . S
H3429 C3410 0.913 . S
H3430 C3448 0.951 . S
H3431 C3450 0.951 . S
H3432 C3452 0.950 . S
H3433 C3453 0.950 . S
H3434 C3455 0.950 . S
H3435 C3458 0.950 . S
H3436 C3459 0.950 . S
H3437 C3461 0.950 . S
H3438 C3462 0.950 . S
H3439 C3463 0.951 . S
H3440 C3465 0.951 . S
H3441 C3467 0.950 . S
H3442 C3468 0.950 . S
H3443 C3470 0.950 . S
H3444 C3473 0.950 . S
H3445 C3474 0.950 . S
H3446 C3476 0.950 . S
H3447 C3477 0.950 . S
C3448 H3430 0.951 . S
C3448 C3449 1.366 . S
C3448 C3450 1.388 . S
C3449 C3448 1.366 . S
C3449 C3453 1.385 . S
C3450 H3431 0.951 . S
C3450 C3448 1.388 . S
C3450 C3451 1.366 . S
C3451 C3450 1.366 . S
C3451 C3452 1.414 . S
C3451 C3454 1.499 . S
C3452 H3432 0.950 . S
C3452 C3451 1.414 . S
C3452 C3453 1.374 . S
C3453 H3433 0.950 . S
C3453 C3449 1.385 . S
C3453 C3452 1.374 . S
C3454 C3451 1.499 . S
C3454 C3455 1.373 . S
C3454 C3456 1.389 . S
C3455 H3434 0.950 . S
C3455 C3454 1.373 . S
C3455 C3471 1.377 . S
C3456 C3454 1.389 . S
C3456 C3457 1.524 . S
C3456 C3470 1.377 . S
C3457 C3456 1.524 . S
C3457 C3458 1.397 . S
C3457 C3462 1.363 . S
C3458 H3435 0.950 . S
C3458 C3457 1.397 . S
C3458 C3459 1.334 . S
C3459 H3436 0.950 . S
C3459 C3458 1.334 . S
C3459 C3460 1.287 . S
C3460 C3459 1.287 . S
C3460 C3461 1.524 . S
C3460 H3479 0.913 . S
C3461 H3437 0.950 . S
C3461 C3460 1.524 . S
C3461 C3462 1.415 . S
C3462 H3438 0.950 . S
C3462 C3457 1.363 . S
C3462 C3461 1.415 . S
C3463 H3439 0.951 . S
C3463 C3464 1.366 . S
C3463 C3465 1.388 . S
C3464 C3463 1.366 . S
C3464 C3468 1.385 . S
C3465 H3440 0.951 . S
C3465 C3463 1.388 . S
C3465 C3466 1.366 . S
C3466 C3465 1.366 . S
C3466 C3467 1.414 . S
C3466 C3469 1.499 . S
C3467 H3441 0.950 . S
C3467 C3466 1.414 . S
C3467 C3468 1.374 . S
C3468 H3442 0.950 . S
C3468 C3464 1.385 . S
C3468 C3467 1.374 . S
C3469 C3466 1.499 . S
C3469 C3470 1.373 . S
C3469 C3471 1.389 . S
C3470 H3443 0.950 . S
C3470 C3456 1.377 . S
C3470 C3469 1.373 . S
C3471 C3455 1.377 . S
C3471 C3469 1.389 . S
C3471 C3472 1.524 . S
C3472 C3471 1.524 . S
C3472 C3473 1.397 . S
C3472 C3477 1.363 . S
C3473 H3444 0.950 . S
C3473 C3472 1.397 . S
C3473 C3474 1.334 . S
C3474 H3445 0.950 . S
C3474 C3473 1.334 . S
C3474 C3475 1.287 . S
C3475 C3474 1.287 . S
C3475 C3476 1.524 . S
C3475 H3478 0.999 . S
C3476 H3446 0.950 . S
C3476 C3475 1.524 . S
C3476 C3477 1.415 . S
C3477 H3447 0.950 . S
C3477 C3472 1.363 . S
C3477 C3476 1.415 . S
H3478 C3475 0.999 . S
H3479 C3460 0.913 . S
H3480 C3498 0.951 . S
H3481 C3500 0.951 . S
H3482 C3502 0.950 . S
H3483 C3503 0.950 . S
H3484 C3505 0.950 . S
H3485 C3508 0.950 . S
H3486 C3509 0.950 . S
H3487 C3511 0.950 . S
H3488 C3512 0.950 . S
H3489 C3513 0.951 . S
H3490 C3515 0.951 . S
H3491 C3517 0.950 . S
H3492 C3518 0.950 . S
H3493 C3520 0.950 . S
H3494 C3523 0.950 . S
H3495 C3524 0.950 . S
H3496 C3526 0.948 1_655 S
H3497 C3527 0.950 . S
C3498 H3480 0.951 . S
C3498 C3499 1.366 . S
C3498 C3500 1.388 . S
C3499 C3498 1.366 . S
C3499 C3503 1.385 . S
C3500 H3481 0.951 . S
C3500 C3498 1.388 . S
C3500 C3501 1.366 . S
C3501 C3500 1.366 . S
C3501 C3502 1.414 . S
C3501 C3504 1.499 . S
C3502 H3482 0.950 . S
C3502 C3501 1.414 . S
C3502 C3503 1.374 . S
C3503 H3483 0.950 . S
C3503 C3499 1.385 . S
C3503 C3502 1.374 . S
C3504 C3501 1.499 . S
C3504 C3505 1.373 . S
C3504 C3506 1.389 . S
C3505 H3484 0.950 . S
C3505 C3504 1.373 . S
C3505 C3521 1.377 . S
C3506 C3504 1.389 . S
C3506 C3507 1.524 . S
C3506 C3520 1.377 . S
C3507 C3506 1.524 . S
C3507 C3508 1.397 . S
C3507 C3512 1.363 . S
C3508 H3485 0.950 . S
C3508 C3507 1.397 . S
C3508 C3509 1.334 . S
C3509 H3486 0.950 . S
C3509 C3508 1.334 . S
C3509 C3510 1.287 . S
C3510 C3509 1.287 . S
C3510 C3511 1.524 . S
C3510 H3529 0.913 . S
C3511 H3487 0.950 . S
C3511 C3510 1.524 . S
C3511 C3512 1.415 . S
C3512 H3488 0.950 . S
C3512 C3507 1.363 . S
C3512 C3511 1.415 . S
C3513 H3489 0.951 . S
C3513 C3514 1.366 . S
C3513 C3515 1.388 . S
C3514 C3513 1.366 . S
C3514 C3518 1.385 . S
C3515 H3490 0.951 . S
C3515 C3513 1.388 . S
C3515 C3516 1.366 . S
C3516 C3515 1.366 . S
C3516 C3517 1.414 . S
C3516 C3519 1.499 . S
C3517 H3491 0.950 . S
C3517 C3516 1.414 . S
C3517 C3518 1.374 . S
C3518 H3492 0.950 . S
C3518 C3514 1.385 . S
C3518 C3517 1.374 . S
C3519 C3516 1.499 . S
C3519 C3520 1.373 . S
C3519 C3521 1.389 . S
C3520 H3493 0.950 . S
C3520 C3506 1.377 . S
C3520 C3519 1.373 . S
C3521 C3505 1.377 . S
C3521 C3519 1.389 . S
C3521 C3522 1.524 . S
C3522 C3521 1.524 . S
C3522 C3523 1.397 1_545 S
C3522 C3527 1.363 . S
C3523 H3494 0.950 . S
C3523 C3522 1.397 1_565 S
C3523 C3524 1.334 . S
C3524 H3495 0.950 . S
C3524 C3523 1.334 . S
C3524 C3525 1.287 . S
C3525 C3524 1.287 . S
C3525 C3526 1.524 1_565 S
C3525 H3528 0.999 1_455 S
C3526 H3496 0.948 1_455 S
C3526 C3525 1.524 1_545 S
C3526 C3527 1.415 . S
C3527 H3497 0.950 . S
C3527 C3522 1.363 . S
C3527 C3526 1.415 . S
H3528 C3525 0.999 1_655 S
H3529 C3510 0.913 . S
H3530 C3548 0.951 . S
H3531 C3550 0.951 . S
H3532 C3552 0.950 . S
H3533 C3553 0.950 . S
H3534 C3555 0.950 . S
H3535 C3558 0.950 . S
H3536 C3559 0.950 . S
H3537 C3561 0.950 . S
H3538 C3562 0.950 . S
H3539 C3563 0.951 . S
H3540 C3565 0.951 . S
H3541 C3567 0.950 . S
H3542 C3568 0.950 . S
H3543 C3570 0.950 . S
H3544 C3573 0.950 . S
H3545 C3574 0.950 . S
H3546 C3576 0.950 . S
H3547 C3577 0.950 . S
C3548 H3530 0.951 . S
C3548 C3549 1.366 . S
C3548 C3550 1.388 . S
C3549 C3548 1.366 . S
C3549 C3553 1.385 . S
C3550 H3531 0.951 . S
C3550 C3548 1.388 . S
C3550 C3551 1.366 . S
C3551 C3550 1.366 . S
C3551 C3552 1.414 . S
C3551 C3554 1.499 . S
C3552 H3532 0.950 . S
C3552 C3551 1.414 . S
C3552 C3553 1.374 . S
C3553 H3533 0.950 . S
C3553 C3549 1.385 . S
C3553 C3552 1.374 . S
C3554 C3551 1.499 . S
C3554 C3555 1.373 . S
C3554 C3556 1.389 . S
C3555 H3534 0.950 . S
C3555 C3554 1.373 . S
C3555 C3571 1.377 . S
C3556 C3554 1.389 . S
C3556 C3557 1.524 . S
C3556 C3570 1.377 . S
C3557 C3556 1.524 . S
C3557 C3558 1.397 . S
C3557 C3562 1.363 . S
C3558 H3535 0.950 . S
C3558 C3557 1.397 . S
C3558 C3559 1.334 . S
C3559 H3536 0.950 . S
C3559 C3558 1.334 . S
C3559 C3560 1.287 . S
C3560 C3559 1.287 . S
C3560 C3561 1.524 . S
C3560 H3579 0.913 . S
C3561 H3537 0.950 . S
C3561 C3560 1.524 . S
C3561 C3562 1.415 . S
C3562 H3538 0.950 . S
C3562 C3557 1.363 . S
C3562 C3561 1.415 . S
C3563 H3539 0.951 . S
C3563 C3564 1.366 . S
C3563 C3565 1.388 . S
C3564 C3563 1.366 . S
C3564 C3568 1.385 . S
C3565 H3540 0.951 . S
C3565 C3563 1.388 . S
C3565 C3566 1.366 . S
C3566 C3565 1.366 . S
C3566 C3567 1.414 . S
C3566 C3569 1.499 . S
C3567 H3541 0.950 . S
C3567 C3566 1.414 . S
C3567 C3568 1.374 . S
C3568 H3542 0.950 . S
C3568 C3564 1.385 . S
C3568 C3567 1.374 . S
C3569 C3566 1.499 . S
C3569 C3570 1.373 . S
C3569 C3571 1.389 . S
C3570 H3543 0.950 . S
C3570 C3556 1.377 . S
C3570 C3569 1.373 . S
C3571 C3555 1.377 . S
C3571 C3569 1.389 . S
C3571 C3572 1.524 . S
C3572 C3571 1.524 . S
C3572 C3573 1.397 . S
C3572 C3577 1.363 . S
C3573 H3544 0.950 . S
C3573 C3572 1.397 . S
C3573 C3574 1.334 . S
C3574 H3545 0.950 . S
C3574 C3573 1.334 . S
C3574 C3575 1.287 . S
C3575 C3574 1.287 . S
C3575 C3576 1.524 . S
C3575 H3578 0.999 . S
C3576 H3546 0.950 . S
C3576 C3575 1.524 . S
C3576 C3577 1.415 . S
C3577 H3547 0.950 . S
C3577 C3572 1.363 . S
C3577 C3576 1.415 . S
H3578 C3575 0.999 . S
H3579 C3560 0.913 . S
H3580 C3598 0.951 . S
H3581 C3600 0.951 . S
H3582 C3602 0.950 . S
H3583 C3603 0.950 . S
H3584 C3605 0.950 . S
H3585 C3608 0.950 . S
H3586 C3609 0.950 . S
H3587 C3611 0.950 . S
H3588 C3612 0.950 . S
H3589 C3613 0.976 . S
H3590 C3615 1.003 . S
H3591 C3617 0.950 . S
H3592 C3618 0.950 . S
H3593 C3620 0.950 . S
H3594 C3623 0.950 . S
H3595 C3624 0.950 . S
H3596 C3626 0.950 . S
H3597 C3627 0.950 . S
C3598 H3580 0.951 . S
C3598 C3599 1.366 . S
C3598 C3600 1.388 . S
C3599 C3598 1.366 . S
C3599 C3603 1.385 1_545 S
C3600 H3581 0.951 . S
C3600 C3598 1.388 . S
C3600 C3601 1.366 . S
C3601 C3600 1.366 . S
C3601 C3602 1.414 1_545 S
C3601 C3604 1.499 . S
C3602 H3582 0.950 . S
C3602 C3601 1.414 1_565 S
C3602 C3603 1.374 . S
C3603 H3583 0.950 . S
C3603 C3599 1.385 1_565 S
C3603 C3602 1.374 . S
C3604 C3601 1.499 . S
C3604 C3605 1.373 . S
C3604 C3606 1.389 . S
C3605 H3584 0.950 . S
C3605 C3604 1.373 . S
C3605 C3621 1.377 . S
C3606 C3604 1.389 . S
C3606 C3607 1.524 . S
C3606 C3620 1.377 . S
C3607 C3606 1.524 . S
C3607 C3608 1.397 1_545 S
C3607 C3612 1.363 . S
C3608 H3585 0.950 . S
C3608 C3607 1.397 1_565 S
C3608 C3609 1.334 . S
C3609 H3586 0.950 . S
C3609 C3608 1.334 . S
C3609 C3610 1.287 1_565 S
C3610 C3609 1.287 1_545 S
C3610 C3611 1.524 . S
C3610 H3629 0.913 . S
C3611 H3587 0.950 . S
C3611 C3610 1.524 . S
C3611 C3612 1.415 . S
C3612 H3588 0.950 . S
C3612 C3607 1.363 . S
C3612 C3611 1.415 . S
C3613 H3589 0.976 . S
C3613 C3614 1.341 1_565 S
C3613 C3615 1.387 . S
C3614 C3613 1.341 1_545 S
C3614 C3618 1.385 . S
C3615 H3590 1.003 . S
C3615 C3613 1.387 . S
C3615 C3616 1.316 1_565 S
C3616 C3615 1.316 1_545 S
C3616 C3617 1.414 . S
C3616 C3619 1.499 . S
C3617 H3591 0.950 . S
C3617 C3616 1.414 . S
C3617 C3618 1.374 . S
C3618 H3592 0.950 . S
C3618 C3614 1.385 . S
C3618 C3617 1.374 . S
C3619 C3616 1.499 . S
C3619 C3620 1.373 . S
C3619 C3621 1.389 . S
C3620 H3593 0.950 . S
C3620 C3606 1.377 . S
C3620 C3619 1.373 . S
C3621 C3605 1.377 . S
C3621 C3619 1.389 . S
C3621 C3622 1.524 . S
C3622 C3621 1.524 . S
C3622 C3623 1.397 . S
C3622 C3627 1.363 1_545 S
C3623 H3594 0.950 . S
C3623 C3622 1.397 . S
C3623 C3624 1.334 . S
C3624 H3595 0.950 . S
C3624 C3623 1.334 . S
C3624 C3625 1.287 . S
C3625 C3624 1.287 . S
C3625 C3626 1.524 1_545 S
C3625 H3628 0.999 . S
C3626 H3596 0.950 . S
C3626 C3625 1.524 1_565 S
C3626 C3627 1.415 . S
C3627 H3597 0.950 . S
C3627 C3622 1.363 1_565 S
C3627 C3626 1.415 . S
H3628 C3625 0.999 . S
H3629 C3610 0.913 . S
H3630 C3648 0.951 . S
H3631 C3650 0.951 . S
H3632 C3652 0.950 . S
H3633 C3653 0.950 . S
H3634 C3655 0.950 . S
H3635 C3658 0.950 . S
H3636 C3659 0.950 . S
H3637 C3661 0.950 . S
H3638 C3662 0.950 . S
H3639 C3663 0.951 . S
H3640 C3665 0.951 . S
H3641 C3667 0.950 . S
H3642 C3668 0.950 . S
H3643 C3670 0.950 . S
H3644 C3673 0.950 . S
H3645 C3674 0.950 . S
H3646 C3676 0.950 . S
H3647 C3677 0.950 . S
C3648 H3630 0.951 . S
C3648 C3649 1.366 . S
C3648 C3650 1.388 . S
C3649 C3648 1.366 . S
C3649 C3653 1.385 . S
C3650 H3631 0.951 . S
C3650 C3648 1.388 . S
C3650 C3651 1.366 . S
C3651 C3650 1.366 . S
C3651 C3652 1.414 . S
C3651 C3654 1.499 . S
C3652 H3632 0.950 . S
C3652 C3651 1.414 . S
C3652 C3653 1.374 . S
C3653 H3633 0.950 . S
C3653 C3649 1.385 . S
C3653 C3652 1.374 . S
C3654 C3651 1.499 . S
C3654 C3655 1.373 . S
C3654 C3656 1.389 . S
C3655 H3634 0.950 . S
C3655 C3654 1.373 . S
C3655 C3671 1.377 . S
C3656 C3654 1.389 . S
C3656 C3657 1.524 . S
C3656 C3670 1.377 . S
C3657 C3656 1.524 . S
C3657 C3658 1.397 . S
C3657 C3662 1.363 . S
C3658 H3635 0.950 . S
C3658 C3657 1.397 . S
C3658 C3659 1.334 . S
C3659 H3636 0.950 . S
C3659 C3658 1.334 . S
C3659 C3660 1.287 . S
C3660 C3659 1.287 . S
C3660 C3661 1.524 . S
C3660 H3679 0.913 . S
C3661 H3637 0.950 . S
C3661 C3660 1.524 . S
C3661 C3662 1.415 . S
C3662 H3638 0.950 . S
C3662 C3657 1.363 . S
C3662 C3661 1.415 . S
C3663 H3639 0.951 . S
C3663 C3664 1.366 . S
C3663 C3665 1.388 . S
C3664 C3663 1.366 . S
C3664 C3668 1.385 . S
C3665 H3640 0.951 . S
C3665 C3663 1.388 . S
C3665 C3666 1.366 . S
C3666 C3665 1.366 . S
C3666 C3667 1.414 . S
C3666 C3669 1.499 . S
C3667 H3641 0.950 . S
C3667 C3666 1.414 . S
C3667 C3668 1.374 . S
C3668 H3642 0.950 . S
C3668 C3664 1.385 . S
C3668 C3667 1.374 . S
C3669 C3666 1.499 . S
C3669 C3670 1.373 . S
C3669 C3671 1.389 . S
C3670 H3643 0.950 . S
C3670 C3656 1.377 . S
C3670 C3669 1.373 . S
C3671 C3655 1.377 . S
C3671 C3669 1.389 . S
C3671 C3672 1.524 . S
C3672 C3671 1.524 . S
C3672 C3673 1.397 . S
C3672 C3677 1.363 . S
C3673 H3644 0.950 . S
C3673 C3672 1.397 . S
C3673 C3674 1.334 . S
C3674 H3645 0.950 . S
C3674 C3673 1.334 . S
C3674 C3675 1.287 . S
C3675 C3674 1.287 . S
C3675 C3676 1.524 . S
C3675 H3678 0.999 . S
C3676 H3646 0.950 . S
C3676 C3675 1.524 . S
C3676 C3677 1.415 . S
C3677 H3647 0.950 . S
C3677 C3672 1.363 . S
C3677 C3676 1.415 . S
H3678 C3675 0.999 . S
H3679 C3660 0.913 . S
H3680 C3698 0.951 . S
H3681 C3700 0.951 . S
H3682 C3702 0.950 . S
H3683 C3703 0.950 . S
H3684 C3705 0.950 . S
H3685 C3708 0.950 . S
H3686 C3709 0.950 . S
H3687 C3711 0.949 . S
H3688 C3712 0.950 . S
H3689 C3713 0.951 . S
H3690 C3715 0.951 . S
H3691 C3717 0.950 . S
H3692 C3718 0.950 . S
H3693 C3720 0.950 . S
H3694 C3723 0.950 . S
H3695 C3724 0.950 . S
H3696 C3726 0.950 . S
H3697 C3727 0.950 . S
C3698 H3680 0.951 . S
C3698 C3699 1.366 . S
C3698 C3700 1.388 . S
C3699 C3698 1.366 . S
C3699 C3703 1.385 . S
C3700 H3681 0.951 . S
C3700 C3698 1.388 . S
C3700 C3701 1.366 . S
C3701 C3700 1.366 . S
C3701 C3702 1.414 . S
C3701 C3704 1.499 . S
C3702 H3682 0.950 . S
C3702 C3701 1.414 . S
C3702 C3703 1.374 . S
C3703 H3683 0.950 . S
C3703 C3699 1.385 . S
C3703 C3702 1.374 . S
C3704 C3701 1.499 . S
C3704 C3705 1.373 . S
C3704 C3706 1.389 . S
C3705 H3684 0.950 . S
C3705 C3704 1.373 . S
C3705 C3721 1.377 . S
C3706 C3704 1.389 . S
C3706 C3707 1.524 . S
C3706 C3720 1.377 . S
C3707 C3706 1.524 . S
C3707 C3708 1.397 1_554 S
C3707 C3712 1.363 . S
C3708 H3685 0.950 . S
C3708 C3707 1.397 1_556 S
C3708 C3709 1.334 . S
C3709 H3686 0.950 . S
C3709 C3708 1.334 . S
C3709 C3710 1.287 . S
C3710 C3709 1.287 . S
C3710 C3711 1.536 . S
C3710 H3729 0.913 . S
C3711 H3687 0.949 . S
C3711 C3710 1.536 . S
C3711 C3712 1.399 1_556 S
C3712 H3688 0.950 . S
C3712 C3707 1.363 . S
C3712 C3711 1.399 1_554 S
C3713 H3689 0.951 . S
C3713 C3714 1.366 . S
C3713 C3715 1.388 . S
C3714 C3713 1.366 . S
C3714 C3718 1.385 . S
C3715 H3690 0.951 . S
C3715 C3713 1.388 . S
C3715 C3716 1.366 . S
C3716 C3715 1.366 . S
C3716 C3717 1.414 . S
C3716 C3719 1.499 . S
C3717 H3691 0.950 . S
C3717 C3716 1.414 . S
C3717 C3718 1.374 . S
C3718 H3692 0.950 . S
C3718 C3714 1.385 . S
C3718 C3717 1.374 . S
C3719 C3716 1.499 . S
C3719 C3720 1.373 . S
C3719 C3721 1.389 . S
C3720 H3693 0.950 . S
C3720 C3706 1.377 . S
C3720 C3719 1.373 . S
C3721 C3705 1.377 . S
C3721 C3719 1.389 . S
C3721 C3722 1.524 . S
C3722 C3721 1.524 . S
C3722 C3723 1.397 . S
C3722 C3727 1.363 . S
C3723 H3694 0.950 . S
C3723 C3722 1.397 . S
C3723 C3724 1.334 . S
C3724 H3695 0.950 . S
C3724 C3723 1.334 . S
C3724 C3725 1.287 . S
C3725 C3724 1.287 . S
C3725 C3726 1.524 . S
C3725 H3728 0.999 . S
C3726 H3696 0.950 . S
C3726 C3725 1.524 . S
C3726 C3727 1.415 . S
C3727 H3697 0.950 . S
C3727 C3722 1.363 . S
C3727 C3726 1.415 . S
H3728 C3725 0.999 . S
H3729 C3710 0.913 . S
H3730 C3748 0.951 . S
H3731 C3750 0.951 . S
H3732 C3752 0.950 . S
H3733 C3753 0.950 . S
H3734 C3755 0.950 . S
H3735 C3758 0.950 . S
H3736 C3759 0.950 . S
H3737 C3761 0.950 . S
H3738 C3762 0.957 . S
H3739 C3763 0.951 . S
H3740 C3765 0.951 . S
H3741 C3767 0.950 . S
H3742 C3768 0.950 . S
H3743 C3770 0.950 . S
H3744 C3773 0.950 . S
H3745 C3774 0.950 . S
H3746 C3776 0.950 . S
H3747 C3777 0.950 . S
C3748 H3730 0.951 . S
C3748 C3749 1.366 . S
C3748 C3750 1.388 . S
C3749 C3748 1.366 . S
C3749 C3753 1.385 . S
C3750 H3731 0.951 . S
C3750 C3748 1.388 . S
C3750 C3751 1.366 . S
C3751 C3750 1.366 . S
C3751 C3752 1.414 . S
C3751 C3754 1.499 . S
C3752 H3732 0.950 . S
C3752 C3751 1.414 . S
C3752 C3753 1.374 . S
C3753 H3733 0.950 . S
C3753 C3749 1.385 . S
C3753 C3752 1.374 . S
C3754 C3751 1.499 . S
C3754 C3755 1.373 . S
C3754 C3756 1.389 . S
C3755 H3734 0.950 . S
C3755 C3754 1.373 . S
C3755 C3771 1.377 . S
C3756 C3754 1.389 . S
C3756 C3757 1.573 . S
C3756 C3770 1.377 . S
C3757 C3756 1.573 . S
C3757 C3758 1.378 1_554 S
C3757 C3762 1.334 1_554 S
C3758 H3735 0.950 . S
C3758 C3757 1.378 1_556 S
C3758 C3759 1.334 . S
C3759 H3736 0.950 . S
C3759 C3758 1.334 . S
C3759 C3760 1.287 . S
C3760 C3759 1.287 . S
C3760 C3761 1.524 . S
C3760 H3779 0.913 . S
C3761 H3737 0.950 . S
C3761 C3760 1.524 . S
C3761 C3762 1.415 . S
C3762 H3738 0.957 . S
C3762 C3757 1.334 1_556 S
C3762 C3761 1.415 . S
C3763 H3739 0.951 . S
C3763 C3764 1.366 . S
C3763 C3765 1.388 . S
C3764 C3763 1.366 . S
C3764 C3768 1.385 . S
C3765 H3740 0.951 . S
C3765 C3763 1.388 . S
C3765 C3766 1.366 . S
C3766 C3765 1.366 . S
C3766 C3767 1.414 . S
C3766 C3769 1.499 . S
C3767 H3741 0.950 . S
C3767 C3766 1.414 . S
C3767 C3768 1.374 . S
C3768 H3742 0.950 . S
C3768 C3764 1.385 . S
C3768 C3767 1.374 . S
C3769 C3766 1.499 . S
C3769 C3770 1.373 . S
C3769 C3771 1.389 . S
C3770 H3743 0.950 . S
C3770 C3756 1.377 . S
C3770 C3769 1.373 . S
C3771 C3755 1.377 . S
C3771 C3769 1.389 . S
C3771 C3772 1.524 . S
C3772 C3771 1.524 . S
C3772 C3773 1.397 . S
C3772 C3777 1.363 . S
C3773 H3744 0.950 . S
C3773 C3772 1.397 . S
C3773 C3774 1.334 . S
C3774 H3745 0.950 . S
C3774 C3773 1.334 . S
C3774 C3775 1.287 . S
C3775 C3774 1.287 . S
C3775 C3776 1.524 . S
C3775 H3778 0.999 . S
C3776 H3746 0.950 . S
C3776 C3775 1.524 . S
C3776 C3777 1.415 . S
C3777 H3747 0.950 . S
C3777 C3772 1.363 . S
C3777 C3776 1.415 . S
H3778 C3775 0.999 . S
H3779 C3760 0.913 . S
H3780 C3798 0.951 . S
H3781 C3800 0.951 . S
H3782 C3802 0.950 . S
H3783 C3803 0.950 . S
H3784 C3805 0.950 . S
H3785 C3808 0.950 . S
H3786 C3809 0.950 . S
H3787 C3811 0.950 . S
H3788 C3812 0.950 . S
H3789 C3813 0.951 . S
H3790 C3815 0.951 . S
H3791 C3817 0.950 . S
H3792 C3818 0.950 . S
H3793 C3820 0.950 . S
H3794 C3823 0.950 . S
H3795 C3824 0.950 . S
H3796 C3826 0.950 . S
H3797 C3827 0.950 . S
C3798 H3780 0.951 . S
C3798 C3799 1.366 . S
C3798 C3800 1.388 . S
C3799 C3798 1.366 . S
C3799 C3803 1.385 . S
C3800 H3781 0.951 . S
C3800 C3798 1.388 . S
C3800 C3801 1.366 . S
C3801 C3800 1.366 . S
C3801 C3802 1.414 . S
C3801 C3804 1.499 . S
C3802 H3782 0.950 . S
C3802 C3801 1.414 . S
C3802 C3803 1.374 . S
C3803 H3783 0.950 . S
C3803 C3799 1.385 . S
C3803 C3802 1.374 . S
C3804 C3801 1.499 . S
C3804 C3805 1.373 . S
C3804 C3806 1.389 . S
C3805 H3784 0.950 . S
C3805 C3804 1.373 . S
C3805 C3821 1.377 . S
C3806 C3804 1.389 . S
C3806 C3807 1.524 . S
C3806 C3820 1.377 . S
C3807 C3806 1.524 . S
C3807 C3808 1.397 . S
C3807 C3812 1.363 . S
C3808 H3785 0.950 . S
C3808 C3807 1.397 . S
C3808 C3809 1.334 . S
C3809 H3786 0.950 . S
C3809 C3808 1.334 . S
C3809 C3810 1.287 . S
C3810 C3809 1.287 . S
C3810 C3811 1.524 . S
C3810 H3829 0.913 . S
C3811 H3787 0.950 . S
C3811 C3810 1.524 . S
C3811 C3812 1.415 . S
C3812 H3788 0.950 . S
C3812 C3807 1.363 . S
C3812 C3811 1.415 . S
C3813 H3789 0.951 . S
C3813 C3814 1.366 . S
C3813 C3815 1.388 . S
C3814 C3813 1.366 . S
C3814 C3818 1.385 . S
C3815 H3790 0.951 . S
C3815 C3813 1.388 . S
C3815 C3816 1.366 . S
C3816 C3815 1.366 . S
C3816 C3817 1.414 . S
C3816 C3819 1.499 . S
C3817 H3791 0.950 . S
C3817 C3816 1.414 . S
C3817 C3818 1.374 . S
C3818 H3792 0.950 . S
C3818 C3814 1.385 . S
C3818 C3817 1.374 . S
C3819 C3816 1.499 . S
C3819 C3820 1.373 . S
C3819 C3821 1.389 . S
C3820 H3793 0.950 . S
C3820 C3806 1.377 . S
C3820 C3819 1.373 . S
C3821 C3805 1.377 . S
C3821 C3819 1.389 . S
C3821 C3822 1.524 . S
C3822 C3821 1.524 . S
C3822 C3823 1.397 . S
C3822 C3827 1.363 . S
C3823 H3794 0.950 . S
C3823 C3822 1.397 . S
C3823 C3824 1.334 . S
C3824 H3795 0.950 . S
C3824 C3823 1.334 . S
C3824 C3825 1.287 . S
C3825 C3824 1.287 . S
C3825 C3826 1.524 . S
C3825 H3828 0.999 . S
C3826 H3796 0.950 . S
C3826 C3825 1.524 . S
C3826 C3827 1.415 . S
C3827 H3797 0.950 . S
C3827 C3822 1.363 . S
C3827 C3826 1.415 . S
H3828 C3825 0.999 . S
H3829 C3810 0.913 . S
H3830 C3848 0.951 . S
H3831 C3850 0.951 . S
H3832 C3852 0.950 . S
H3833 C3853 0.950 . S
H3834 C3855 0.950 . S
H3835 C3858 0.950 . S
H3836 C3859 0.950 . S
H3837 C3861 0.950 . S
H3838 C3862 0.950 . S
H3839 C3863 0.951 . S
H3840 C3865 0.951 . S
H3841 C3867 0.950 . S
H3842 C3868 0.950 . S
H3843 C3870 0.950 . S
H3844 C3873 0.950 . S
H3845 C3874 0.950 . S
H3846 C3876 0.950 . S
H3847 C3877 0.950 . S
C3848 H3830 0.951 . S
C3848 C3849 1.366 . S
C3848 C3850 1.388 . S
C3849 C3848 1.366 . S
C3849 C3853 1.385 . S
C3850 H3831 0.951 . S
C3850 C3848 1.388 . S
C3850 C3851 1.366 . S
C3851 C3850 1.366 . S
C3851 C3852 1.414 . S
C3851 C3854 1.499 . S
C3852 H3832 0.950 . S
C3852 C3851 1.414 . S
C3852 C3853 1.374 . S
C3853 H3833 0.950 . S
C3853 C3849 1.385 . S
C3853 C3852 1.374 . S
C3854 C3851 1.499 . S
C3854 C3855 1.373 . S
C3854 C3856 1.389 . S
C3855 H3834 0.950 . S
C3855 C3854 1.373 . S
C3855 C3871 1.377 . S
C3856 C3854 1.389 . S
C3856 C3857 1.524 . S
C3856 C3870 1.377 . S
C3857 C3856 1.524 . S
C3857 C3858 1.397 . S
C3857 C3862 1.363 . S
C3858 H3835 0.950 . S
C3858 C3857 1.397 . S
C3858 C3859 1.334 . S
C3859 H3836 0.950 . S
C3859 C3858 1.334 . S
C3859 C3860 1.287 . S
C3860 C3859 1.287 . S
C3860 C3861 1.524 . S
C3860 H3879 0.913 . S
C3861 H3837 0.950 . S
C3861 C3860 1.524 . S
C3861 C3862 1.415 . S
C3862 H3838 0.950 . S
C3862 C3857 1.363 . S
C3862 C3861 1.415 . S
C3863 H3839 0.951 . S
C3863 C3864 1.366 . S
C3863 C3865 1.388 . S
C3864 C3863 1.366 . S
C3864 C3868 1.385 . S
C3865 H3840 0.951 . S
C3865 C3863 1.388 . S
C3865 C3866 1.366 . S
C3866 C3865 1.366 . S
C3866 C3867 1.414 . S
C3866 C3869 1.499 . S
C3867 H3841 0.950 . S
C3867 C3866 1.414 . S
C3867 C3868 1.374 . S
C3868 H3842 0.950 . S
C3868 C3864 1.385 . S
C3868 C3867 1.374 . S
C3869 C3866 1.499 . S
C3869 C3870 1.373 . S
C3869 C3871 1.389 . S
C3870 H3843 0.950 . S
C3870 C3856 1.377 . S
C3870 C3869 1.373 . S
C3871 C3855 1.377 . S
C3871 C3869 1.389 . S
C3871 C3872 1.524 . S
C3872 C3871 1.524 . S
C3872 C3873 1.397 . S
C3872 C3877 1.363 . S
C3873 H3844 0.950 . S
C3873 C3872 1.397 . S
C3873 C3874 1.334 . S
C3874 H3845 0.950 . S
C3874 C3873 1.334 . S
C3874 C3875 1.287 . S
C3875 C3874 1.287 . S
C3875 C3876 1.524 . S
C3875 H3878 0.999 . S
C3876 H3846 0.950 . S
C3876 C3875 1.524 . S
C3876 C3877 1.415 . S
C3877 H3847 0.950 . S
C3877 C3872 1.363 . S
C3877 C3876 1.415 . S
H3878 C3875 0.999 . S
H3879 C3860 0.913 . S
H3880 C3898 0.951 . S
H3881 C3900 0.951 . S
H3882 C3902 0.950 . S
H3883 C3903 0.950 1_545 S
H3884 C3905 0.950 . S
H3885 C3908 0.950 . S
H3886 C3909 0.950 . S
H3887 C3911 0.950 . S
H3888 C3912 0.950 . S
H3889 C3913 0.951 . S
H3890 C3915 0.951 . S
H3891 C3917 0.950 . S
H3892 C3918 0.950 . S
H3893 C3920 0.950 . S
H3894 C3923 0.950 . S
H3895 C3924 0.950 . S
H3896 C3926 0.950 . S
H3897 C3927 0.950 . S
C3898 H3880 0.951 . S
C3898 C3899 1.366 . S
C3898 C3900 1.388 . S
C3899 C3898 1.366 . S
C3899 C3903 1.385 . S
C3900 H3881 0.951 . S
C3900 C3898 1.388 . S
C3900 C3901 1.366 . S
C3901 C3900 1.366 . S
C3901 C3902 1.414 . S
C3901 C3904 1.499 . S
C3902 H3882 0.950 . S
C3902 C3901 1.414 . S
C3902 C3903 1.374 . S
C3903 H3883 0.950 1_565 S
C3903 C3899 1.385 . S
C3903 C3902 1.374 . S
C3904 C3901 1.499 . S
C3904 C3905 1.373 . S
C3904 C3906 1.389 . S
C3905 H3884 0.950 . S
C3905 C3904 1.373 . S
C3905 C3921 1.377 . S
C3906 C3904 1.389 . S
C3906 C3907 1.524 . S
C3906 C3920 1.377 . S
C3907 C3906 1.524 . S
C3907 C3908 1.397 . S
C3907 C3912 1.363 . S
C3908 H3885 0.950 . S
C3908 C3907 1.397 . S
C3908 C3909 1.334 . S
C3909 H3886 0.950 . S
C3909 C3908 1.334 . S
C3909 C3910 1.287 . S
C3910 C3909 1.287 . S
C3910 C3911 1.524 . S
C3910 H3929 0.913 . S
C3911 H3887 0.950 . S
C3911 C3910 1.524 . S
C3911 C3912 1.415 . S
C3912 H3888 0.950 . S
C3912 C3907 1.363 . S
C3912 C3911 1.415 . S
C3913 H3889 0.951 . S
C3913 C3914 1.366 . S
C3913 C3915 1.388 . S
C3914 C3913 1.366 . S
C3914 C3918 1.385 . S
C3915 H3890 0.951 . S
C3915 C3913 1.388 . S
C3915 C3916 1.366 . S
C3916 C3915 1.366 . S
C3916 C3917 1.414 . S
C3916 C3919 1.499 . S
C3917 H3891 0.950 . S
C3917 C3916 1.414 . S
C3917 C3918 1.374 . S
C3918 H3892 0.950 . S
C3918 C3914 1.385 . S
C3918 C3917 1.374 . S
C3919 C3916 1.499 . S
C3919 C3920 1.373 . S
C3919 C3921 1.389 . S
C3920 H3893 0.950 . S
C3920 C3906 1.377 . S
C3920 C3919 1.373 . S
C3921 C3905 1.377 . S
C3921 C3919 1.389 . S
C3921 C3922 1.524 . S
C3922 C3921 1.524 . S
C3922 C3923 1.397 . S
C3922 C3927 1.363 . S
C3923 H3894 0.950 . S
C3923 C3922 1.397 . S
C3923 C3924 1.334 . S
C3924 H3895 0.950 . S
C3924 C3923 1.334 . S
C3924 C3925 1.287 . S
C3925 C3924 1.287 . S
C3925 C3926 1.524 . S
C3925 H3928 0.999 . S
C3926 H3896 0.950 . S
C3926 C3925 1.524 . S
C3926 C3927 1.415 . S
C3927 H3897 0.950 . S
C3927 C3922 1.363 . S
C3927 C3926 1.415 . S
H3928 C3925 0.999 . S
H3929 C3910 0.913 . S
H3930 C3948 0.951 . S
H3931 C3950 0.951 . S
H3932 C3952 0.950 . S
H3933 C3953 0.950 . S
H3934 C3955 0.950 . S
H3935 C3958 0.950 . S
H3936 C3959 0.950 . S
H3937 C3961 0.950 . S
H3938 C3962 0.950 . S
H3939 C3963 0.951 . S
H3940 C3965 0.951 . S
H3941 C3967 0.950 . S
H3942 C3968 0.950 . S
H3943 C3970 0.950 . S
H3944 C3973 0.950 . S
H3945 C3974 0.950 . S
H3946 C3976 0.950 . S
H3947 C3977 0.950 . S
C3948 H3930 0.951 . S
C3948 C3949 1.366 . S
C3948 C3950 1.388 . S
C3949 C3948 1.366 . S
C3949 C3953 1.385 . S
C3950 H3931 0.951 . S
C3950 C3948 1.388 . S
C3950 C3951 1.366 . S
C3951 C3950 1.366 . S
C3951 C3952 1.414 . S
C3951 C3954 1.499 . S
C3952 H3932 0.950 . S
C3952 C3951 1.414 . S
C3952 C3953 1.374 . S
C3953 H3933 0.950 . S
C3953 C3949 1.385 . S
C3953 C3952 1.374 . S
C3954 C3951 1.499 . S
C3954 C3955 1.373 . S
C3954 C3956 1.389 . S
C3955 H3934 0.950 . S
C3955 C3954 1.373 . S
C3955 C3971 1.377 . S
C3956 C3954 1.389 . S
C3956 C3957 1.524 . S
C3956 C3970 1.377 . S
C3957 C3956 1.524 . S
C3957 C3958 1.397 . S
C3957 C3962 1.363 . S
C3958 H3935 0.950 . S
C3958 C3957 1.397 . S
C3958 C3959 1.334 . S
C3959 H3936 0.950 . S
C3959 C3958 1.334 . S
C3959 C3960 1.287 . S
C3960 C3959 1.287 . S
C3960 C3961 1.524 . S
C3960 H3979 0.913 . S
C3961 H3937 0.950 . S
C3961 C3960 1.524 . S
C3961 C3962 1.415 . S
C3962 H3938 0.950 . S
C3962 C3957 1.363 . S
C3962 C3961 1.415 . S
C3963 H3939 0.951 . S
C3963 C3964 1.366 . S
C3963 C3965 1.388 . S
C3964 C3963 1.366 . S
C3964 C3968 1.385 . S
C3965 H3940 0.951 . S
C3965 C3963 1.388 . S
C3965 C3966 1.366 . S
C3966 C3965 1.366 . S
C3966 C3967 1.414 . S
C3966 C3969 1.499 . S
C3967 H3941 0.950 . S
C3967 C3966 1.414 . S
C3967 C3968 1.374 . S
C3968 H3942 0.950 . S
C3968 C3964 1.385 . S
C3968 C3967 1.374 . S
C3969 C3966 1.499 . S
C3969 C3970 1.373 . S
C3969 C3971 1.389 . S
C3970 H3943 0.950 . S
C3970 C3956 1.377 . S
C3970 C3969 1.373 . S
C3971 C3955 1.377 . S
C3971 C3969 1.389 . S
C3971 C3972 1.524 . S
C3972 C3971 1.524 . S
C3972 C3973 1.397 . S
C3972 C3977 1.363 . S
C3973 H3944 0.950 . S
C3973 C3972 1.397 . S
C3973 C3974 1.334 . S
C3974 H3945 0.950 . S
C3974 C3973 1.334 . S
C3974 C3975 1.287 . S
C3975 C3974 1.287 . S
C3975 C3976 1.524 . S
C3975 H3978 0.999 . S
C3976 H3946 0.950 . S
C3976 C3975 1.524 . S
C3976 C3977 1.415 . S
C3977 H3947 0.950 . S
C3977 C3972 1.363 . S
C3977 C3976 1.415 . S
H3978 C3975 0.999 . S
H3979 C3960 0.913 . S
H3980 C3998 0.951 . S
H3981 C4000 0.951 . S
H3982 C4002 0.950 . S
H3983 C4003 0.950 . S
H3984 C4005 0.950 . S
H3985 C4008 0.950 . S
H3986 C4009 0.950 . S
H3987 C4011 0.950 . S
H3988 C4012 0.950 . S
H3989 C4013 0.951 . S
H3990 C4015 0.951 . S
H3991 C4017 0.950 . S
H3992 C4018 0.950 . S
H3993 C4020 0.950 . S
H3994 C4023 0.950 . S
H3995 C4024 0.950 . S
H3996 C4026 0.950 . S
H3997 C4027 0.950 . S
C3998 H3980 0.951 . S
C3998 C3999 1.366 . S
C3998 C4000 1.388 . S
C3999 C3998 1.366 . S
C3999 C4003 1.385 . S
C4000 H3981 0.951 . S
C4000 C3998 1.388 . S
C4000 C4001 1.366 . S
C4001 C4000 1.366 . S
C4001 C4002 1.414 . S
C4001 C4004 1.499 . S
C4002 H3982 0.950 . S
C4002 C4001 1.414 . S
C4002 C4003 1.374 . S
C4003 H3983 0.950 . S
C4003 C3999 1.385 . S
C4003 C4002 1.374 . S
C4004 C4001 1.499 . S
C4004 C4005 1.373 . S
C4004 C4006 1.389 . S
C4005 H3984 0.950 . S
C4005 C4004 1.373 . S
C4005 C4021 1.377 . S
C4006 C4004 1.389 . S
C4006 C4007 1.524 . S
C4006 C4020 1.377 . S
C4007 C4006 1.524 . S
C4007 C4008 1.397 . S
C4007 C4012 1.363 . S
C4008 H3985 0.950 . S
C4008 C4007 1.397 . S
C4008 C4009 1.334 . S
C4009 H3986 0.950 . S
C4009 C4008 1.334 . S
C4009 C4010 1.287 . S
C4010 C4009 1.287 . S
C4010 C4011 1.524 . S
C4010 H4029 0.913 . S
C4011 H3987 0.950 . S
C4011 C4010 1.524 . S
C4011 C4012 1.415 . S
C4012 H3988 0.950 . S
C4012 C4007 1.363 . S
C4012 C4011 1.415 . S
C4013 H3989 0.951 . S
C4013 C4014 1.366 . S
C4013 C4015 1.388 . S
C4014 C4013 1.366 . S
C4014 C4018 1.385 . S
C4015 H3990 0.951 . S
C4015 C4013 1.388 . S
C4015 C4016 1.366 . S
C4016 C4015 1.366 . S
C4016 C4017 1.414 . S
C4016 C4019 1.499 . S
C4017 H3991 0.950 . S
C4017 C4016 1.414 . S
C4017 C4018 1.374 . S
C4018 H3992 0.950 . S
C4018 C4014 1.385 . S
C4018 C4017 1.374 . S
C4019 C4016 1.499 . S
C4019 C4020 1.373 . S
C4019 C4021 1.389 . S
C4020 H3993 0.950 . S
C4020 C4006 1.377 . S
C4020 C4019 1.373 . S
C4021 C4005 1.377 . S
C4021 C4019 1.389 . S
C4021 C4022 1.524 . S
C4022 C4021 1.524 . S
C4022 C4023 1.397 . S
C4022 C4027 1.363 . S
C4023 H3994 0.950 . S
C4023 C4022 1.397 . S
C4023 C4024 1.334 . S
C4024 H3995 0.950 . S
C4024 C4023 1.334 . S
C4024 C4025 1.287 . S
C4025 C4024 1.287 . S
C4025 C4026 1.524 . S
C4025 H4028 0.999 . S
C4026 H3996 0.950 . S
C4026 C4025 1.524 . S
C4026 C4027 1.415 . S
C4027 H3997 0.950 . S
C4027 C4022 1.363 . S
C4027 C4026 1.415 . S
H4028 C4025 0.999 . S
H4029 C4010 0.913 . S
H4030 C4048 0.951 . S
H4031 C4050 0.951 . S
H4032 C4052 0.950 . S
H4033 C4053 0.950 . S
H4034 C4055 0.950 . S
H4035 C4058 0.950 . S
H4036 C4059 0.950 . S
H4037 C4061 0.950 . S
H4038 C4062 0.950 . S
H4039 C4063 0.951 . S
H4040 C4065 0.951 . S
H4041 C4067 0.950 . S
H4042 C4068 0.950 . S
H4043 C4070 0.950 . S
H4044 C4073 0.950 . S
H4045 C4074 0.950 . S
H4046 C4076 0.950 . S
H4047 C4077 0.950 . S
C4048 H4030 0.951 . S
C4048 C4049 1.366 . S
C4048 C4050 1.388 . S
C4049 C4048 1.366 . S
C4049 C4053 1.385 . S
C4050 H4031 0.951 . S
C4050 C4048 1.388 . S
C4050 C4051 1.366 . S
C4051 C4050 1.366 . S
C4051 C4052 1.414 . S
C4051 C4054 1.499 . S
C4052 H4032 0.950 . S
C4052 C4051 1.414 . S
C4052 C4053 1.374 . S
C4053 H4033 0.950 . S
C4053 C4049 1.385 . S
C4053 C4052 1.374 . S
C4054 C4051 1.499 . S
C4054 C4055 1.373 . S
C4054 C4056 1.389 . S
C4055 H4034 0.950 . S
C4055 C4054 1.373 . S
C4055 C4071 1.377 . S
C4056 C4054 1.389 . S
C4056 C4057 1.524 . S
C4056 C4070 1.377 . S
C4057 C4056 1.524 . S
C4057 C4058 1.397 . S
C4057 C4062 1.363 . S
C4058 H4035 0.950 . S
C4058 C4057 1.397 . S
C4058 C4059 1.334 . S
C4059 H4036 0.950 . S
C4059 C4058 1.334 . S
C4059 C4060 1.287 . S
C4060 C4059 1.287 . S
C4060 C4061 1.524 . S
C4060 H4079 0.913 . S
C4061 H4037 0.950 . S
C4061 C4060 1.524 . S
C4061 C4062 1.415 . S
C4062 H4038 0.950 . S
C4062 C4057 1.363 . S
C4062 C4061 1.415 . S
C4063 H4039 0.951 . S
C4063 C4064 1.366 . S
C4063 C4065 1.388 . S
C4064 C4063 1.366 . S
C4064 C4068 1.385 . S
C4065 H4040 0.951 . S
C4065 C4063 1.388 . S
C4065 C4066 1.366 . S
C4066 C4065 1.366 . S
C4066 C4067 1.414 . S
C4066 C4069 1.499 . S
C4067 H4041 0.950 . S
C4067 C4066 1.414 . S
C4067 C4068 1.374 . S
C4068 H4042 0.950 . S
C4068 C4064 1.385 . S
C4068 C4067 1.374 . S
C4069 C4066 1.499 . S
C4069 C4070 1.373 . S
C4069 C4071 1.389 . S
C4070 H4043 0.950 . S
C4070 C4056 1.377 . S
C4070 C4069 1.373 . S
C4071 C4055 1.377 . S
C4071 C4069 1.389 . S
C4071 C4072 1.524 . S
C4072 C4071 1.524 . S
C4072 C4073 1.397 . S
C4072 C4077 1.363 . S
C4073 H4044 0.950 . S
C4073 C4072 1.397 . S
C4073 C4074 1.334 . S
C4074 H4045 0.950 . S
C4074 C4073 1.334 . S
C4074 C4075 1.287 . S
C4075 C4074 1.287 . S
C4075 C4076 1.524 . S
C4075 H4078 0.999 . S
C4076 H4046 0.950 . S
C4076 C4075 1.524 . S
C4076 C4077 1.415 . S
C4077 H4047 0.950 . S
C4077 C4072 1.363 . S
C4077 C4076 1.415 . S
H4078 C4075 0.999 . S
H4079 C4060 0.913 . S
H4080 C4098 0.951 . S
H4081 C4100 0.951 . S
H4082 C4102 0.950 . S
H4083 C4103 0.950 . S
H4084 C4105 0.950 . S
H4085 C4108 0.950 . S
H4086 C4109 0.950 . S
H4087 C4111 0.950 . S
H4088 C4112 0.950 . S
H4089 C4113 0.951 . S
H4090 C4115 0.951 . S
H4091 C4117 0.950 . S
H4092 C4118 0.950 . S
H4093 C4120 0.950 . S
H4094 C4123 0.950 . S
H4095 C4124 0.950 . S
H4096 C4126 0.950 . S
H4097 C4127 0.950 . S
C4098 H4080 0.951 . S
C4098 C4099 1.366 . S
C4098 C4100 1.388 . S
C4099 C4098 1.366 . S
C4099 C4103 1.385 . S
C4100 H4081 0.951 . S
C4100 C4098 1.388 . S
C4100 C4101 1.366 . S
C4101 C4100 1.366 . S
C4101 C4102 1.414 . S
C4101 C4104 1.499 . S
C4102 H4082 0.950 . S
C4102 C4101 1.414 . S
C4102 C4103 1.374 . S
C4103 H4083 0.950 . S
C4103 C4099 1.385 . S
C4103 C4102 1.374 . S
C4104 C4101 1.499 . S
C4104 C4105 1.373 . S
C4104 C4106 1.389 . S
C4105 H4084 0.950 . S
C4105 C4104 1.373 . S
C4105 C4121 1.377 . S
C4106 C4104 1.389 . S
C4106 C4107 1.524 . S
C4106 C4120 1.377 . S
C4107 C4106 1.524 . S
C4107 C4108 1.397 . S
C4107 C4112 1.363 . S
C4108 H4085 0.950 . S
C4108 C4107 1.397 . S
C4108 C4109 1.334 . S
C4109 H4086 0.950 . S
C4109 C4108 1.334 . S
C4109 C4110 1.287 . S
C4110 C4109 1.287 . S
C4110 C4111 1.524 . S
C4110 H4129 0.913 . S
C4111 H4087 0.950 . S
C4111 C4110 1.524 . S
C4111 C4112 1.415 . S
C4112 H4088 0.950 . S
C4112 C4107 1.363 . S
C4112 C4111 1.415 . S
C4113 H4089 0.951 . S
C4113 C4114 1.366 . S
C4113 C4115 1.388 . S
C4114 C4113 1.366 . S
C4114 C4118 1.385 . S
C4115 H4090 0.951 . S
C4115 C4113 1.388 . S
C4115 C4116 1.366 . S
C4116 C4115 1.366 . S
C4116 C4117 1.414 . S
C4116 C4119 1.499 . S
C4117 H4091 0.950 . S
C4117 C4116 1.414 . S
C4117 C4118 1.374 . S
C4118 H4092 0.950 . S
C4118 C4114 1.385 . S
C4118 C4117 1.374 . S
C4119 C4116 1.499 . S
C4119 C4120 1.373 . S
C4119 C4121 1.389 . S
C4120 H4093 0.950 . S
C4120 C4106 1.377 . S
C4120 C4119 1.373 . S
C4121 C4105 1.377 . S
C4121 C4119 1.389 . S
C4121 C4122 1.524 . S
C4122 C4121 1.524 . S
C4122 C4123 1.397 . S
C4122 C4127 1.363 . S
C4123 H4094 0.950 . S
C4123 C4122 1.397 . S
C4123 C4124 1.334 . S
C4124 H4095 0.950 . S
C4124 C4123 1.334 . S
C4124 C4125 1.287 . S
C4125 C4124 1.287 . S
C4125 C4126 1.524 . S
C4125 H4128 0.999 . S
C4126 H4096 0.950 . S
C4126 C4125 1.524 . S
C4126 C4127 1.415 . S
C4127 H4097 0.950 . S
C4127 C4122 1.363 . S
C4127 C4126 1.415 . S
H4128 C4125 0.999 . S
H4129 C4110 0.913 . S
H4130 C4148 0.951 . S
H4131 C4150 0.951 . S
H4132 C4152 0.950 . S
H4133 C4153 0.950 . S
H4134 C4155 0.950 . S
H4135 C4158 0.950 . S
H4136 C4159 0.950 . S
H4137 C4161 0.950 . S
H4138 C4162 0.950 . S
H4139 C4163 0.951 . S
H4140 C4165 0.951 . S
H4141 C4167 0.950 . S
H4142 C4168 0.950 . S
H4143 C4170 0.950 . S
H4144 C4173 0.950 . S
H4145 C4174 0.950 . S
H4146 C4176 0.950 . S
H4147 C4177 0.950 . S
C4148 H4130 0.951 . S
C4148 C4149 1.366 . S
C4148 C4150 1.388 . S
C4149 C4148 1.366 . S
C4149 C4153 1.385 . S
C4150 H4131 0.951 . S
C4150 C4148 1.388 . S
C4150 C4151 1.366 . S
C4151 C4150 1.366 . S
C4151 C4152 1.414 . S
C4151 C4154 1.499 . S
C4152 H4132 0.950 . S
C4152 C4151 1.414 . S
C4152 C4153 1.374 . S
C4153 H4133 0.950 . S
C4153 C4149 1.385 . S
C4153 C4152 1.374 . S
C4154 C4151 1.499 . S
C4154 C4155 1.373 . S
C4154 C4156 1.389 . S
C4155 H4134 0.950 . S
C4155 C4154 1.373 . S
C4155 C4171 1.377 . S
C4156 C4154 1.389 . S
C4156 C4157 1.524 . S
C4156 C4170 1.377 . S
C4157 C4156 1.524 . S
C4157 C4158 1.397 . S
C4157 C4162 1.363 . S
C4158 H4135 0.950 . S
C4158 C4157 1.397 . S
C4158 C4159 1.334 . S
C4159 H4136 0.950 . S
C4159 C4158 1.334 . S
C4159 C4160 1.287 . S
C4160 C4159 1.287 . S
C4160 C4161 1.524 . S
C4160 H4179 0.913 . S
C4161 H4137 0.950 . S
C4161 C4160 1.524 . S
C4161 C4162 1.415 . S
C4162 H4138 0.950 . S
C4162 C4157 1.363 . S
C4162 C4161 1.415 . S
C4163 H4139 0.951 . S
C4163 C4164 1.366 . S
C4163 C4165 1.388 . S
C4164 C4163 1.366 . S
C4164 C4168 1.385 . S
C4165 H4140 0.951 . S
C4165 C4163 1.388 . S
C4165 C4166 1.366 . S
C4166 C4165 1.366 . S
C4166 C4167 1.414 . S
C4166 C4169 1.499 . S
C4167 H4141 0.950 . S
C4167 C4166 1.414 . S
C4167 C4168 1.374 . S
C4168 H4142 0.950 . S
C4168 C4164 1.385 . S
C4168 C4167 1.374 . S
C4169 C4166 1.499 . S
C4169 C4170 1.373 . S
C4169 C4171 1.389 . S
C4170 H4143 0.950 . S
C4170 C4156 1.377 . S
C4170 C4169 1.373 . S
C4171 C4155 1.377 . S
C4171 C4169 1.389 . S
C4171 C4172 1.524 . S
C4172 C4171 1.524 . S
C4172 C4173 1.397 . S
C4172 C4177 1.363 . S
C4173 H4144 0.950 . S
C4173 C4172 1.397 . S
C4173 C4174 1.334 . S
C4174 H4145 0.950 . S
C4174 C4173 1.334 . S
C4174 C4175 1.287 . S
C4175 C4174 1.287 . S
C4175 C4176 1.524 . S
C4175 H4178 0.999 . S
C4176 H4146 0.950 . S
C4176 C4175 1.524 . S
C4176 C4177 1.415 . S
C4177 H4147 0.950 . S
C4177 C4172 1.363 . S
C4177 C4176 1.415 . S
H4178 C4175 0.999 . S
H4179 C4160 0.913 . S
H4180 C4198 0.951 . S
H4181 C4200 0.951 . S
H4182 C4202 0.950 . S
H4183 C4203 0.950 . S
H4184 C4205 0.950 . S
H4185 C4208 0.950 1_655 S
H4186 C4209 0.950 1_655 S
H4187 C4211 0.950 . S
H4188 C4212 0.950 . S
H4189 C4213 0.951 1_655 S
H4190 C4215 0.951 1_655 S
H4191 C4217 0.950 . S
H4192 C4218 0.950 . S
H4193 C4220 0.950 . S
H4194 C4223 0.950 . S
H4195 C4224 0.950 . S
H4196 C4226 0.950 . S
H4197 C4227 0.950 . S
C4198 H4180 0.951 . S
C4198 C4199 1.366 . S
C4198 C4200 1.388 . S
C4199 C4198 1.366 . S
C4199 C4203 1.385 1_455 S
C4200 H4181 0.951 . S
C4200 C4198 1.388 . S
C4200 C4201 1.366 . S
C4201 C4200 1.366 . S
C4201 C4202 1.414 1_455 S
C4201 C4204 1.499 . S
C4202 H4182 0.950 . S
C4202 C4201 1.414 1_655 S
C4202 C4203 1.374 . S
C4203 H4183 0.950 . S
C4203 C4199 1.385 1_655 S
C4203 C4202 1.374 . S
C4204 C4201 1.499 . S
C4204 C4205 1.373 . S
C4204 C4206 1.389 . S
C4205 H4184 0.950 . S
C4205 C4204 1.373 . S
C4205 C4221 1.377 . S
C4206 C4204 1.389 . S
C4206 C4207 1.524 1_556 S
C4206 C4220 1.377 1_556 S
C4207 C4206 1.524 1_554 S
C4207 C4208 1.397 . S
C4207 C4212 1.363 . S
C4208 H4185 0.950 1_455 S
C4208 C4207 1.397 . S
C4208 C4209 1.334 . S
C4209 H4186 0.950 1_455 S
C4209 C4208 1.334 . S
C4209 C4210 1.287 . S
C4210 C4209 1.287 . S
C4210 C4211 1.524 . S
C4210 H4229 0.913 . S
C4211 H4187 0.950 . S
C4211 C4210 1.524 . S
C4211 C4212 1.415 . S
C4212 H4188 0.950 . S
C4212 C4207 1.363 . S
C4212 C4211 1.415 . S
C4213 H4189 0.951 1_455 S
C4213 C4214 1.366 1_556 S
C4213 C4215 1.388 . S
C4214 C4213 1.366 1_554 S
C4214 C4218 1.385 . S
C4215 H4190 0.951 1_455 S
C4215 C4213 1.388 . S
C4215 C4216 1.366 . S
C4216 C4215 1.366 . S
C4216 C4217 1.414 1_556 S
C4216 C4219 1.499 . S
C4217 H4191 0.950 . S
C4217 C4216 1.414 1_554 S
C4217 C4218 1.374 . S
C4218 H4192 0.950 . S
C4218 C4214 1.385 . S
C4218 C4217 1.374 . S
C4219 C4216 1.499 . S
C4219 C4220 1.373 1_556 S
C4219 C4221 1.389 . S
C4220 H4193 0.950 . S
C4220 C4206 1.377 1_554 S
C4220 C4219 1.373 1_554 S
C4221 C4205 1.377 . S
C4221 C4219 1.389 . S
C4221 C4222 1.524 . S
C4222 C4221 1.524 . S
C4222 C4223 1.397 . S
C4222 C4227 1.363 1_455 S
C4223 H4194 0.950 . S
C4223 C4222 1.397 . S
C4223 C4224 1.334 . S
C4224 H4195 0.950 . S
C4224 C4223 1.334 . S
C4224 C4225 1.287 . S
C4225 C4224 1.287 . S
C4225 C4226 1.524 1_455 S
C4225 H4228 0.999 . S
C4226 H4196 0.950 . S
C4226 C4225 1.524 1_655 S
C4226 C4227 1.415 . S
C4227 H4197 0.950 . S
C4227 C4222 1.363 1_655 S
C4227 C4226 1.415 . S
H4228 C4225 0.999 . S
H4229 C4210 0.913 . S
H4230 C4248 0.951 . S
H4231 C4250 0.951 . S
H4232 C4252 0.950 . S
H4233 C4253 0.950 . S
H4234 C4255 0.950 . S
H4235 C4258 0.950 . S
H4236 C4259 0.950 . S
H4237 C4261 0.950 . S
H4238 C4262 0.950 . S
H4239 C4263 0.951 . S
H4240 C4265 0.951 . S
H4241 C4267 0.950 . S
H4242 C4268 0.950 . S
H4243 C4270 0.950 . S
H4244 C4273 0.950 . S
H4245 C4274 0.950 . S
H4246 C4276 0.950 . S
H4247 C4277 0.950 . S
C4248 H4230 0.951 . S
C4248 C4249 1.366 . S
C4248 C4250 1.388 1_455 S
C4249 C4248 1.366 . S
C4249 C4253 1.385 1_455 S
C4250 H4231 0.951 . S
C4250 C4248 1.388 1_655 S
C4250 C4251 1.366 . S
C4251 C4250 1.366 . S
C4251 C4252 1.414 . S
C4251 C4254 1.499 . S
C4252 H4232 0.950 . S
C4252 C4251 1.414 . S
C4252 C4253 1.374 . S
C4253 H4233 0.950 . S
C4253 C4249 1.385 1_655 S
C4253 C4252 1.374 . S
C4254 C4251 1.499 . S
C4254 C4255 1.373 . S
C4254 C4256 1.389 . S
C4255 H4234 0.950 . S
C4255 C4254 1.373 . S
C4255 C4271 1.377 . S
C4256 C4254 1.389 . S
C4256 C4257 1.524 . S
C4256 C4270 1.377 . S
C4257 C4256 1.524 . S
C4257 C4258 1.397 . S
C4257 C4262 1.363 . S
C4258 H4235 0.950 . S
C4258 C4257 1.397 . S
C4258 C4259 1.334 . S
C4259 H4236 0.950 . S
C4259 C4258 1.334 . S
C4259 C4260 1.287 . S
C4260 C4259 1.287 . S
C4260 C4261 1.524 . S
C4260 H4279 0.913 . S
C4261 H4237 0.950 . S
C4261 C4260 1.524 . S
C4261 C4262 1.415 . S
C4262 H4238 0.950 . S
C4262 C4257 1.363 . S
C4262 C4261 1.415 . S
C4263 H4239 0.951 . S
C4263 C4264 1.366 . S
C4263 C4265 1.388 . S
C4264 C4263 1.366 . S
C4264 C4268 1.385 . S
C4265 H4240 0.951 . S
C4265 C4263 1.388 . S
C4265 C4266 1.366 . S
C4266 C4265 1.366 . S
C4266 C4267 1.414 . S
C4266 C4269 1.499 . S
C4267 H4241 0.950 . S
C4267 C4266 1.414 . S
C4267 C4268 1.374 . S
C4268 H4242 0.950 . S
C4268 C4264 1.385 . S
C4268 C4267 1.374 . S
C4269 C4266 1.499 . S
C4269 C4270 1.373 . S
C4269 C4271 1.389 . S
C4270 H4243 0.950 . S
C4270 C4256 1.377 . S
C4270 C4269 1.373 . S
C4271 C4255 1.377 . S
C4271 C4269 1.389 . S
C4271 C4272 1.524 . S
C4272 C4271 1.524 . S
C4272 C4273 1.397 . S
C4272 C4277 1.363 . S
C4273 H4244 0.950 . S
C4273 C4272 1.397 . S
C4273 C4274 1.334 . S
C4274 H4245 0.950 . S
C4274 C4273 1.334 . S
C4274 C4275 1.287 . S
C4275 C4274 1.287 . S
C4275 C4276 1.524 . S
C4275 H4278 0.999 . S
C4276 H4246 0.950 . S
C4276 C4275 1.524 . S
C4276 C4277 1.415 . S
C4277 H4247 0.950 . S
C4277 C4272 1.363 . S
C4277 C4276 1.415 . S
H4278 C4275 0.999 . S
H4279 C4260 0.913 . S
H4280 C4298 0.951 . S
H4281 C4300 0.951 . S
H4282 C4302 0.950 . S
H4283 C4303 0.950 . S
H4284 C4305 0.950 . S
H4285 C4308 0.950 . S
H4286 C4309 0.950 . S
H4287 C4311 0.950 . S
H4288 C4312 0.950 . S
H4289 C4313 0.951 . S
H4290 C4315 0.951 . S
H4291 C4317 0.950 . S
H4292 C4318 0.950 . S
H4293 C4320 0.950 . S
H4294 C4323 0.950 . S
H4295 C4324 0.950 . S
H4296 C4326 0.950 . S
H4297 C4327 0.950 . S
C4298 H4280 0.951 . S
C4298 C4299 1.366 . S
C4298 C4300 1.388 . S
C4299 C4298 1.366 . S
C4299 C4303 1.385 . S
C4300 H4281 0.951 . S
C4300 C4298 1.388 . S
C4300 C4301 1.366 . S
C4301 C4300 1.366 . S
C4301 C4302 1.414 . S
C4301 C4304 1.499 . S
C4302 H4282 0.950 . S
C4302 C4301 1.414 . S
C4302 C4303 1.374 . S
C4303 H4283 0.950 . S
C4303 C4299 1.385 . S
C4303 C4302 1.374 . S
C4304 C4301 1.499 . S
C4304 C4305 1.373 . S
C4304 C4306 1.389 . S
C4305 H4284 0.950 . S
C4305 C4304 1.373 . S
C4305 C4321 1.377 . S
C4306 C4304 1.389 . S
C4306 C4307 1.524 . S
C4306 C4320 1.377 . S
C4307 C4306 1.524 . S
C4307 C4308 1.397 . S
C4307 C4312 1.363 . S
C4308 H4285 0.950 . S
C4308 C4307 1.397 . S
C4308 C4309 1.334 . S
C4309 H4286 0.950 . S
C4309 C4308 1.334 . S
C4309 C4310 1.287 . S
C4310 C4309 1.287 . S
C4310 C4311 1.524 . S
C4310 H4329 0.913 . S
C4311 H4287 0.950 . S
C4311 C4310 1.524 . S
C4311 C4312 1.415 . S
C4312 H4288 0.950 . S
C4312 C4307 1.363 . S
C4312 C4311 1.415 . S
C4313 H4289 0.951 . S
C4313 C4314 1.366 . S
C4313 C4315 1.388 . S
C4314 C4313 1.366 . S
C4314 C4318 1.385 . S
C4315 H4290 0.951 . S
C4315 C4313 1.388 . S
C4315 C4316 1.366 . S
C4316 C4315 1.366 . S
C4316 C4317 1.414 . S
C4316 C4319 1.499 . S
C4317 H4291 0.950 . S
C4317 C4316 1.414 . S
C4317 C4318 1.374 . S
C4318 H4292 0.950 . S
C4318 C4314 1.385 . S
C4318 C4317 1.374 . S
C4319 C4316 1.499 . S
C4319 C4320 1.373 . S
C4319 C4321 1.389 . S
C4320 H4293 0.950 . S
C4320 C4306 1.377 . S
C4320 C4319 1.373 . S
C4321 C4305 1.377 . S
C4321 C4319 1.389 . S
C4321 C4322 1.524 . S
C4322 C4321 1.524 . S
C4322 C4323 1.397 . S
C4322 C4327 1.363 . S
C4323 H4294 0.950 . S
C4323 C4322 1.397 . S
C4323 C4324 1.334 . S
C4324 H4295 0.950 . S
C4324 C4323 1.334 . S
C4324 C4325 1.287 . S
C4325 C4324 1.287 . S
C4325 C4326 1.524 . S
C4325 H4328 0.999 . S
C4326 H4296 0.950 . S
C4326 C4325 1.524 . S
C4326 C4327 1.415 . S
C4327 H4297 0.950 . S
C4327 C4322 1.363 . S
C4327 C4326 1.415 . S
H4328 C4325 0.999 . S
H4329 C4310 0.913 . S
H4330 C4348 0.951 . S
H4331 C4350 0.951 . S
H4332 C4352 0.950 . S
H4333 C4353 0.950 . S
H4334 C4355 0.950 . S
H4335 C4358 0.950 . S
H4336 C4359 0.950 . S
H4337 C4361 0.950 . S
H4338 C4362 0.950 . S
H4339 C4363 0.951 . S
H4340 C4365 0.951 . S
H4341 C4367 0.950 . S
H4342 C4368 0.950 . S
H4343 C4370 0.950 . S
H4344 C4373 0.950 . S
H4345 C4374 0.950 . S
H4346 C4376 0.950 . S
H4347 C4377 0.950 . S
C4348 H4330 0.951 . S
C4348 C4349 1.366 . S
C4348 C4350 1.388 . S
C4349 C4348 1.366 . S
C4349 C4353 1.385 . S
C4350 H4331 0.951 . S
C4350 C4348 1.388 . S
C4350 C4351 1.366 . S
C4351 C4350 1.366 . S
C4351 C4352 1.414 . S
C4351 C4354 1.499 . S
C4352 H4332 0.950 . S
C4352 C4351 1.414 . S
C4352 C4353 1.374 . S
C4353 H4333 0.950 . S
C4353 C4349 1.385 . S
C4353 C4352 1.374 . S
C4354 C4351 1.499 . S
C4354 C4355 1.373 . S
C4354 C4356 1.389 . S
C4355 H4334 0.950 . S
C4355 C4354 1.373 . S
C4355 C4371 1.377 . S
C4356 C4354 1.389 . S
C4356 C4357 1.524 . S
C4356 C4370 1.377 . S
C4357 C4356 1.524 . S
C4357 C4358 1.397 . S
C4357 C4362 1.363 . S
C4358 H4335 0.950 . S
C4358 C4357 1.397 . S
C4358 C4359 1.334 . S
C4359 H4336 0.950 . S
C4359 C4358 1.334 . S
C4359 C4360 1.287 . S
C4360 C4359 1.287 . S
C4360 C4361 1.524 . S
C4360 H4379 0.913 . S
C4361 H4337 0.950 . S
C4361 C4360 1.524 . S
C4361 C4362 1.415 . S
C4362 H4338 0.950 . S
C4362 C4357 1.363 . S
C4362 C4361 1.415 . S
C4363 H4339 0.951 . S
C4363 C4364 1.366 . S
C4363 C4365 1.388 . S
C4364 C4363 1.366 . S
C4364 C4368 1.385 . S
C4365 H4340 0.951 . S
C4365 C4363 1.388 . S
C4365 C4366 1.366 . S
C4366 C4365 1.366 . S
C4366 C4367 1.414 . S
C4366 C4369 1.499 . S
C4367 H4341 0.950 . S
C4367 C4366 1.414 . S
C4367 C4368 1.374 . S
C4368 H4342 0.950 . S
C4368 C4364 1.385 . S
C4368 C4367 1.374 . S
C4369 C4366 1.499 . S
C4369 C4370 1.373 . S
C4369 C4371 1.389 . S
C4370 H4343 0.950 . S
C4370 C4356 1.377 . S
C4370 C4369 1.373 . S
C4371 C4355 1.377 . S
C4371 C4369 1.389 . S
C4371 C4372 1.524 . S
C4372 C4371 1.524 . S
C4372 C4373 1.397 . S
C4372 C4377 1.363 . S
C4373 H4344 0.950 . S
C4373 C4372 1.397 . S
C4373 C4374 1.334 . S
C4374 H4345 0.950 . S
C4374 C4373 1.334 . S
C4374 C4375 1.287 . S
C4375 C4374 1.287 . S
C4375 C4376 1.524 . S
C4375 H4378 0.999 . S
C4376 H4346 0.950 . S
C4376 C4375 1.524 . S
C4376 C4377 1.415 . S
C4377 H4347 0.950 . S
C4377 C4372 1.363 . S
C4377 C4376 1.415 . S
H4378 C4375 0.999 . S
H4379 C4360 0.913 . S
H4380 C4398 0.951 . S
H4381 C4400 0.951 . S
H4382 C4402 0.950 . S
H4383 C4403 0.950 . S
H4384 C4405 0.950 . S
H4385 C4408 0.950 . S
H4386 C4409 0.950 . S
H4387 C4411 0.950 . S
H4388 C4412 0.950 . S
H4389 C4413 0.951 . S
H4390 C4415 0.951 . S
H4391 C4417 0.891 1_655 S
H4392 C4418 0.950 1_655 S
H4393 C4420 0.950 . S
H4394 C4423 0.944 1_655 S
H4395 C4424 0.950 . S
H4396 C4426 0.950 . S
H4397 C4427 0.950 . S
C4398 H4380 0.951 . S
C4398 C4399 1.366 1_655 S
C4398 C4400 1.388 . S
C4399 C4398 1.366 1_455 S
C4399 C4403 1.385 . S
C4400 H4381 0.951 . S
C4400 C4398 1.388 . S
C4400 C4401 1.366 1_655 S
C4401 C4400 1.366 1_455 S
C4401 C4402 1.414 . S
C4401 C4404 1.499 . S
C4402 H4382 0.950 . S
C4402 C4401 1.414 . S
C4402 C4403 1.374 . S
C4403 H4383 0.950 . S
C4403 C4399 1.385 . S
C4403 C4402 1.374 . S
C4404 C4401 1.499 . S
C4404 C4405 1.373 . S
C4404 C4406 1.389 . S
C4405 H4384 0.950 . S
C4405 C4404 1.373 . S
C4405 C4421 1.377 . S
C4406 C4404 1.389 . S
C4406 C4407 1.524 . S
C4406 C4420 1.377 . S
C4407 C4406 1.524 . S
C4407 C4408 1.397 . S
C4407 C4412 1.363 1_455 S
C4408 H4385 0.950 . S
C4408 C4407 1.397 . S
C4408 C4409 1.334 . S
C4409 H4386 0.950 . S
C4409 C4408 1.334 . S
C4409 C4410 1.326 . S
C4410 C4409 1.326 . S
C4410 C4411 1.492 1_455 S
C4410 H4429 0.902 1_455 S
C4411 H4387 0.950 . S
C4411 C4410 1.492 1_655 S
C4411 C4412 1.415 . S
C4412 H4388 0.950 . S
C4412 C4407 1.363 1_655 S
C4412 C4411 1.415 . S
C4413 H4389 0.951 . S
C4413 C4414 1.366 . S
C4413 C4415 1.388 . S
C4414 C4413 1.366 . S
C4414 C4418 1.385 . S
C4415 H4390 0.951 . S
C4415 C4413 1.388 . S
C4415 C4416 1.366 . S
C4416 C4415 1.366 . S
C4416 C4417 1.456 . S
C4416 C4419 1.499 . S
C4417 H4391 0.891 1_455 S
C4417 C4416 1.456 . S
C4417 C4418 1.394 . S
C4418 H4392 0.950 1_455 S
C4418 C4414 1.385 . S
C4418 C4417 1.394 . S
C4419 C4416 1.499 . S
C4419 C4420 1.373 . S
C4419 C4421 1.389 . S
C4420 H4393 0.950 . S
C4420 C4406 1.377 . S
C4420 C4419 1.373 . S
C4421 C4405 1.377 . S
C4421 C4419 1.389 . S
C4421 C4422 1.524 . S
C4422 C4421 1.524 . S
C4422 C4423 1.397 . S
C4422 C4427 1.363 . S
C4423 H4394 0.944 1_455 S
C4423 C4422 1.397 . S
C4423 C4424 1.334 . S
C4424 H4395 0.950 . S
C4424 C4423 1.334 . S
C4424 C4425 1.287 . S
C4425 C4424 1.287 . S
C4425 C4426 1.524 . S
C4425 H4428 0.999 . S
C4426 H4396 0.950 . S
C4426 C4425 1.524 . S
C4426 C4427 1.415 . S
C4427 H4397 0.950 . S
C4427 C4422 1.363 . S
C4427 C4426 1.415 . S
H4428 C4425 0.999 . S
H4429 C4410 0.902 1_655 S
H4430 C4448 0.951 . S
H4431 C4450 0.951 . S
H4432 C4452 0.950 . S
H4433 C4453 0.950 . S
H4434 C4455 0.950 . S
H4435 C4458 0.950 . S
H4436 C4459 0.950 . S
H4437 C4461 0.950 . S
H4438 C4462 0.950 . S
H4439 C4463 0.951 . S
H4440 C4465 0.951 . S
H4441 C4467 0.950 . S
H4442 C4468 0.950 . S
H4443 C4470 0.950 . S
H4444 C4473 0.950 . S
H4445 C4474 0.950 . S
H4446 C4476 0.950 . S
H4447 C4477 0.950 . S
C4448 H4430 0.951 . S
C4448 C4449 1.366 . S
C4448 C4450 1.388 . S
C4449 C4448 1.366 . S
C4449 C4453 1.385 . S
C4450 H4431 0.951 . S
C4450 C4448 1.388 . S
C4450 C4451 1.366 . S
C4451 C4450 1.366 . S
C4451 C4452 1.414 . S
C4451 C4454 1.499 . S
C4452 H4432 0.950 . S
C4452 C4451 1.414 . S
C4452 C4453 1.374 . S
C4453 H4433 0.950 . S
C4453 C4449 1.385 . S
C4453 C4452 1.374 . S
C4454 C4451 1.499 . S
C4454 C4455 1.373 . S
C4454 C4456 1.389 . S
C4455 H4434 0.950 . S
C4455 C4454 1.373 . S
C4455 C4471 1.377 . S
C4456 C4454 1.389 . S
C4456 C4457 1.524 . S
C4456 C4470 1.377 . S
C4457 C4456 1.524 . S
C4457 C4458 1.397 . S
C4457 C4462 1.363 . S
C4458 H4435 0.950 . S
C4458 C4457 1.397 . S
C4458 C4459 1.334 . S
C4459 H4436 0.950 . S
C4459 C4458 1.334 . S
C4459 C4460 1.287 . S
C4460 C4459 1.287 . S
C4460 C4461 1.524 . S
C4460 H4479 0.913 . S
C4461 H4437 0.950 . S
C4461 C4460 1.524 . S
C4461 C4462 1.415 . S
C4462 H4438 0.950 . S
C4462 C4457 1.363 . S
C4462 C4461 1.415 . S
C4463 H4439 0.951 . S
C4463 C4464 1.366 . S
C4463 C4465 1.388 . S
C4464 C4463 1.366 . S
C4464 C4468 1.385 . S
C4465 H4440 0.951 . S
C4465 C4463 1.388 . S
C4465 C4466 1.366 . S
C4466 C4465 1.366 . S
C4466 C4467 1.414 . S
C4466 C4469 1.499 . S
C4467 H4441 0.950 . S
C4467 C4466 1.414 . S
C4467 C4468 1.374 . S
C4468 H4442 0.950 . S
C4468 C4464 1.385 . S
C4468 C4467 1.374 . S
C4469 C4466 1.499 . S
C4469 C4470 1.373 . S
C4469 C4471 1.389 . S
C4470 H4443 0.950 . S
C4470 C4456 1.377 . S
C4470 C4469 1.373 . S
C4471 C4455 1.377 . S
C4471 C4469 1.389 . S
C4471 C4472 1.524 . S
C4472 C4471 1.524 . S
C4472 C4473 1.397 . S
C4472 C4477 1.363 . S
C4473 H4444 0.950 . S
C4473 C4472 1.397 . S
C4473 C4474 1.334 . S
C4474 H4445 0.950 . S
C4474 C4473 1.334 . S
C4474 C4475 1.287 . S
C4475 C4474 1.287 . S
C4475 C4476 1.524 . S
C4475 H4478 0.999 . S
C4476 H4446 0.950 . S
C4476 C4475 1.524 . S
C4476 C4477 1.415 . S
C4477 H4447 0.950 . S
C4477 C4472 1.363 . S
C4477 C4476 1.415 . S
H4478 C4475 0.999 . S
H4479 C4460 0.913 . S
H4480 C4498 0.951 . S
H4481 C4500 0.951 . S
H4482 C4502 0.950 . S
H4483 C4503 0.950 . S
H4484 C4505 0.950 . S
H4485 C4508 0.950 . S
H4486 C4509 0.950 . S
H4487 C4511 0.950 . S
H4488 C4512 0.950 . S
H4489 C4513 0.951 . S
H4490 C4515 0.951 . S
H4491 C4517 0.950 . S
H4492 C4518 0.950 . S
H4493 C4520 0.950 . S
H4494 C4523 0.950 . S
H4495 C4524 0.950 . S
H4496 C4526 0.950 . S
H4497 C4527 0.950 . S
C4498 H4480 0.951 . S
C4498 C4499 1.366 . S
C4498 C4500 1.388 . S
C4499 C4498 1.366 . S
C4499 C4503 1.385 . S
C4500 H4481 0.951 . S
C4500 C4498 1.388 . S
C4500 C4501 1.366 . S
C4501 C4500 1.366 . S
C4501 C4502 1.414 . S
C4501 C4504 1.499 . S
C4502 H4482 0.950 . S
C4502 C4501 1.414 . S
C4502 C4503 1.374 . S
C4503 H4483 0.950 . S
C4503 C4499 1.385 . S
C4503 C4502 1.374 . S
C4504 C4501 1.499 . S
C4504 C4505 1.373 . S
C4504 C4506 1.389 . S
C4505 H4484 0.950 . S
C4505 C4504 1.373 . S
C4505 C4521 1.377 . S
C4506 C4504 1.389 . S
C4506 C4507 1.524 . S
C4506 C4520 1.377 . S
C4507 C4506 1.524 . S
C4507 C4508 1.397 . S
C4507 C4512 1.363 . S
C4508 H4485 0.950 . S
C4508 C4507 1.397 . S
C4508 C4509 1.334 . S
C4509 H4486 0.950 . S
C4509 C4508 1.334 . S
C4509 C4510 1.287 . S
C4510 C4509 1.287 . S
C4510 C4511 1.524 . S
C4510 H4529 0.913 . S
C4511 H4487 0.950 . S
C4511 C4510 1.524 . S
C4511 C4512 1.415 . S
C4512 H4488 0.950 . S
C4512 C4507 1.363 . S
C4512 C4511 1.415 . S
C4513 H4489 0.951 . S
C4513 C4514 1.366 . S
C4513 C4515 1.388 . S
C4514 C4513 1.366 . S
C4514 C4518 1.385 . S
C4515 H4490 0.951 . S
C4515 C4513 1.388 . S
C4515 C4516 1.366 . S
C4516 C4515 1.366 . S
C4516 C4517 1.414 . S
C4516 C4519 1.499 . S
C4517 H4491 0.950 . S
C4517 C4516 1.414 . S
C4517 C4518 1.374 . S
C4518 H4492 0.950 . S
C4518 C4514 1.385 . S
C4518 C4517 1.374 . S
C4519 C4516 1.499 . S
C4519 C4520 1.373 . S
C4519 C4521 1.389 . S
C4520 H4493 0.950 . S
C4520 C4506 1.377 . S
C4520 C4519 1.373 . S
C4521 C4505 1.377 . S
C4521 C4519 1.389 . S
C4521 C4522 1.524 . S
C4522 C4521 1.524 . S
C4522 C4523 1.397 . S
C4522 C4527 1.363 . S
C4523 H4494 0.950 . S
C4523 C4522 1.397 . S
C4523 C4524 1.334 . S
C4524 H4495 0.950 . S
C4524 C4523 1.334 . S
C4524 C4525 1.287 . S
C4525 C4524 1.287 . S
C4525 C4526 1.524 . S
C4525 H4528 0.999 . S
C4526 H4496 0.950 . S
C4526 C4525 1.524 . S
C4526 C4527 1.415 . S
C4527 H4497 0.950 . S
C4527 C4522 1.363 . S
C4527 C4526 1.415 . S
H4528 C4525 0.999 . S
H4529 C4510 0.913 . S
H4530 C4548 0.951 1_554 S
H4531 C4550 0.951 . S
H4532 C4552 0.950 . S
H4533 C4553 0.950 . S
H4534 C4555 0.950 . S
H4535 C4558 0.950 . S
H4536 C4559 0.950 . S
H4537 C4561 0.950 . S
H4538 C4562 0.950 . S
H4539 C4563 0.951 . S
H4540 C4565 0.951 . S
H4541 C4567 0.950 . S
H4542 C4568 0.950 . S
H4543 C4570 0.950 . S
H4544 C4573 0.950 . S
H4545 C4574 0.950 . S
H4546 C4576 0.950 . S
H4547 C4577 0.950 . S
C4548 H4530 0.951 1_556 S
C4548 C4549 1.366 . S
C4548 C4550 1.388 . S
C4549 C4548 1.366 . S
C4549 C4553 1.385 . S
C4550 H4531 0.951 . S
C4550 C4548 1.388 . S
C4550 C4551 1.366 . S
C4551 C4550 1.366 . S
C4551 C4552 1.414 . S
C4551 C4554 1.499 . S
C4552 H4532 0.950 . S
C4552 C4551 1.414 . S
C4552 C4553 1.374 . S
C4553 H4533 0.950 . S
C4553 C4549 1.385 . S
C4553 C4552 1.374 . S
C4554 C4551 1.499 . S
C4554 C4555 1.373 . S
C4554 C4556 1.389 . S
C4555 H4534 0.950 . S
C4555 C4554 1.373 . S
C4555 C4571 1.377 . S
C4556 C4554 1.389 . S
C4556 C4557 1.524 . S
C4556 C4570 1.377 . S
C4557 C4556 1.524 . S
C4557 C4558 1.397 . S
C4557 C4562 1.363 . S
C4558 H4535 0.950 . S
C4558 C4557 1.397 . S
C4558 C4559 1.334 . S
C4559 H4536 0.950 . S
C4559 C4558 1.334 . S
C4559 C4560 1.287 . S
C4560 C4559 1.287 . S
C4560 C4561 1.524 . S
C4560 H4579 0.922 . S
C4561 H4537 0.950 . S
C4561 C4560 1.524 . S
C4561 C4562 1.415 . S
C4562 H4538 0.950 . S
C4562 C4557 1.363 . S
C4562 C4561 1.415 . S
C4563 H4539 0.951 . S
C4563 C4564 1.366 . S
C4563 C4565 1.388 . S
C4564 C4563 1.366 . S
C4564 C4568 1.385 . S
C4565 H4540 0.951 . S
C4565 C4563 1.388 . S
C4565 C4566 1.366 . S
C4566 C4565 1.366 . S
C4566 C4567 1.414 . S
C4566 C4569 1.499 . S
C4567 H4541 0.950 . S
C4567 C4566 1.414 . S
C4567 C4568 1.374 . S
C4568 H4542 0.950 . S
C4568 C4564 1.385 . S
C4568 C4567 1.374 . S
C4569 C4566 1.499 . S
C4569 C4570 1.373 . S
C4569 C4571 1.389 . S
C4570 H4543 0.950 . S
C4570 C4556 1.377 . S
C4570 C4569 1.373 . S
C4571 C4555 1.377 . S
C4571 C4569 1.389 . S
C4571 C4572 1.524 . S
C4572 C4571 1.524 . S
C4572 C4573 1.397 . S
C4572 C4577 1.363 . S
C4573 H4544 0.950 . S
C4573 C4572 1.397 . S
C4573 C4574 1.334 . S
C4574 H4545 0.950 . S
C4574 C4573 1.334 . S
C4574 C4575 1.287 . S
C4575 C4574 1.287 . S
C4575 C4576 1.524 . S
C4575 H4578 0.999 . S
C4576 H4546 0.950 . S
C4576 C4575 1.524 . S
C4576 C4577 1.415 . S
C4577 H4547 0.950 . S
C4577 C4572 1.363 . S
C4577 C4576 1.415 . S
H4578 C4575 0.999 . S
H4579 C4560 0.922 . S
H4580 C4598 0.951 . S
H4581 C4600 0.951 . S
H4582 C4602 0.950 . S
H4583 C4603 0.950 . S
H4584 C4605 0.950 . S
H4585 C4608 0.950 . S
H4586 C4609 0.950 . S
H4587 C4611 0.950 . S
H4588 C4612 0.950 . S
H4589 C4613 0.951 . S
H4590 C4615 0.951 . S
H4591 C4617 0.950 . S
H4592 C4618 0.950 . S
H4593 C4620 0.950 . S
H4594 C4623 0.950 . S
H4595 C4624 0.950 . S
H4596 C4626 0.950 . S
H4597 C4627 0.950 . S
C4598 H4580 0.951 . S
C4598 C4599 1.366 . S
C4598 C4600 1.388 . S
C4599 C4598 1.366 . S
C4599 C4603 1.385 . S
C4600 H4581 0.951 . S
C4600 C4598 1.388 . S
C4600 C4601 1.366 . S
C4601 C4600 1.366 . S
C4601 C4602 1.414 . S
C4601 C4604 1.499 . S
C4602 H4582 0.950 . S
C4602 C4601 1.414 . S
C4602 C4603 1.374 . S
C4603 H4583 0.950 . S
C4603 C4599 1.385 . S
C4603 C4602 1.374 . S
C4604 C4601 1.499 . S
C4604 C4605 1.373 . S
C4604 C4606 1.389 . S
C4605 H4584 0.950 . S
C4605 C4604 1.373 . S
C4605 C4621 1.377 . S
C4606 C4604 1.389 . S
C4606 C4607 1.524 . S
C4606 C4620 1.377 . S
C4607 C4606 1.524 . S
C4607 C4608 1.397 . S
C4607 C4612 1.363 . S
C4608 H4585 0.950 . S
C4608 C4607 1.397 . S
C4608 C4609 1.334 . S
C4609 H4586 0.950 . S
C4609 C4608 1.334 . S
C4609 C4610 1.287 . S
C4610 C4609 1.287 . S
C4610 C4611 1.524 . S
C4610 H4629 0.913 . S
C4611 H4587 0.950 . S
C4611 C4610 1.524 . S
C4611 C4612 1.415 . S
C4612 H4588 0.950 . S
C4612 C4607 1.363 . S
C4612 C4611 1.415 . S
C4613 H4589 0.951 . S
C4613 C4614 1.366 . S
C4613 C4615 1.388 . S
C4614 C4613 1.366 . S
C4614 C4618 1.385 . S
C4615 H4590 0.951 . S
C4615 C4613 1.388 . S
C4615 C4616 1.366 . S
C4616 C4615 1.366 . S
C4616 C4617 1.414 . S
C4616 C4619 1.499 . S
C4617 H4591 0.950 . S
C4617 C4616 1.414 . S
C4617 C4618 1.374 . S
C4618 H4592 0.950 . S
C4618 C4614 1.385 . S
C4618 C4617 1.374 . S
C4619 C4616 1.499 . S
C4619 C4620 1.373 . S
C4619 C4621 1.389 . S
C4620 H4593 0.950 . S
C4620 C4606 1.377 . S
C4620 C4619 1.373 . S
C4621 C4605 1.377 . S
C4621 C4619 1.389 . S
C4621 C4622 1.524 . S
C4622 C4621 1.524 . S
C4622 C4623 1.397 . S
C4622 C4627 1.363 . S
C4623 H4594 0.950 . S
C4623 C4622 1.397 . S
C4623 C4624 1.334 . S
C4624 H4595 0.950 . S
C4624 C4623 1.334 . S
C4624 C4625 1.287 . S
C4625 C4624 1.287 . S
C4625 C4626 1.524 . S
C4625 H4628 0.999 . S
C4626 H4596 0.950 . S
C4626 C4625 1.524 . S
C4626 C4627 1.415 . S
C4627 H4597 0.950 . S
C4627 C4622 1.363 . S
C4627 C4626 1.415 . S
H4628 C4625 0.999 . S
H4629 C4610 0.913 . S
H4630 C4648 0.951 . S
H4631 C4650 0.951 . S
H4632 C4652 0.950 . S
H4633 C4653 0.950 . S
H4634 C4655 0.950 . S
H4635 C4658 0.950 . S
H4636 C4659 0.950 . S
H4637 C4661 0.950 . S
H4638 C4662 0.950 . S
H4639 C4663 0.951 . S
H4640 C4665 0.951 . S
H4641 C4667 0.950 . S
H4642 C4668 0.950 . S
H4643 C4670 0.950 . S
H4644 C4673 0.950 . S
H4645 C4674 0.950 . S
H4646 C4676 0.950 . S
H4647 C4677 0.950 . S
C4648 H4630 0.951 . S
C4648 C4649 1.366 . S
C4648 C4650 1.388 . S
C4649 C4648 1.366 . S
C4649 C4653 1.385 . S
C4650 H4631 0.951 . S
C4650 C4648 1.388 . S
C4650 C4651 1.366 . S
C4651 C4650 1.366 . S
C4651 C4652 1.414 . S
C4651 C4654 1.499 . S
C4652 H4632 0.950 . S
C4652 C4651 1.414 . S
C4652 C4653 1.374 . S
C4653 H4633 0.950 . S
C4653 C4649 1.385 . S
C4653 C4652 1.374 . S
C4654 C4651 1.499 . S
C4654 C4655 1.373 . S
C4654 C4656 1.389 . S
C4655 H4634 0.950 . S
C4655 C4654 1.373 . S
C4655 C4671 1.377 . S
C4656 C4654 1.389 . S
C4656 C4657 1.524 . S
C4656 C4670 1.377 . S
C4657 C4656 1.524 . S
C4657 C4658 1.397 . S
C4657 C4662 1.363 . S
C4658 H4635 0.950 . S
C4658 C4657 1.397 . S
C4658 C4659 1.334 . S
C4659 H4636 0.950 . S
C4659 C4658 1.334 . S
C4659 C4660 1.287 . S
C4660 C4659 1.287 . S
C4660 C4661 1.524 . S
C4660 H4679 0.913 . S
C4661 H4637 0.950 . S
C4661 C4660 1.524 . S
C4661 C4662 1.415 . S
C4662 H4638 0.950 . S
C4662 C4657 1.363 . S
C4662 C4661 1.415 . S
C4663 H4639 0.951 . S
C4663 C4664 1.366 . S
C4663 C4665 1.388 . S
C4664 C4663 1.366 . S
C4664 C4668 1.385 . S
C4665 H4640 0.951 . S
C4665 C4663 1.388 . S
C4665 C4666 1.366 . S
C4666 C4665 1.366 . S
C4666 C4667 1.414 . S
C4666 C4669 1.499 . S
C4667 H4641 0.950 . S
C4667 C4666 1.414 . S
C4667 C4668 1.374 . S
C4668 H4642 0.950 . S
C4668 C4664 1.385 . S
C4668 C4667 1.374 . S
C4669 C4666 1.499 . S
C4669 C4670 1.373 . S
C4669 C4671 1.389 . S
C4670 H4643 0.950 . S
C4670 C4656 1.377 . S
C4670 C4669 1.373 . S
C4671 C4655 1.377 . S
C4671 C4669 1.389 . S
C4671 C4672 1.524 . S
C4672 C4671 1.524 . S
C4672 C4673 1.397 . S
C4672 C4677 1.363 . S
C4673 H4644 0.950 . S
C4673 C4672 1.397 . S
C4673 C4674 1.334 . S
C4674 H4645 0.950 . S
C4674 C4673 1.334 . S
C4674 C4675 1.287 . S
C4675 C4674 1.287 . S
C4675 C4676 1.524 . S
C4675 H4678 0.999 . S
C4676 H4646 0.950 . S
C4676 C4675 1.524 . S
C4676 C4677 1.415 . S
C4677 H4647 0.950 . S
C4677 C4672 1.363 . S
C4677 C4676 1.415 . S
H4678 C4675 0.999 . S
H4679 C4660 0.913 . S
H4680 C4698 0.951 . S
H4681 C4700 0.951 . S
H4682 C4702 0.950 . S
H4683 C4703 0.950 . S
H4684 C4705 0.950 . S
H4685 C4708 0.950 . S
H4686 C4709 0.950 . S
H4687 C4711 0.950 . S
H4688 C4712 0.950 . S
H4689 C4713 0.951 . S
H4690 C4715 0.951 . S
H4691 C4717 0.950 . S
H4692 C4718 0.950 . S
H4693 C4720 0.950 . S
H4694 C4723 0.950 . S
H4695 C4724 0.950 . S
H4696 C4726 0.950 . S
H4697 C4727 0.950 . S
C4698 H4680 0.951 . S
C4698 C4699 1.366 . S
C4698 C4700 1.388 . S
C4699 C4698 1.366 . S
C4699 C4703 1.385 . S
C4700 H4681 0.951 . S
C4700 C4698 1.388 . S
C4700 C4701 1.366 . S
C4701 C4700 1.366 . S
C4701 C4702 1.414 . S
C4701 C4704 1.499 . S
C4702 H4682 0.950 . S
C4702 C4701 1.414 . S
C4702 C4703 1.374 . S
C4703 H4683 0.950 . S
C4703 C4699 1.385 . S
C4703 C4702 1.374 . S
C4704 C4701 1.499 . S
C4704 C4705 1.373 . S
C4704 C4706 1.389 . S
C4705 H4684 0.950 . S
C4705 C4704 1.373 . S
C4705 C4721 1.377 . S
C4706 C4704 1.389 . S
C4706 C4707 1.524 . S
C4706 C4720 1.377 . S
C4707 C4706 1.524 . S
C4707 C4708 1.397 . S
C4707 C4712 1.363 . S
C4708 H4685 0.950 . S
C4708 C4707 1.397 . S
C4708 C4709 1.334 . S
C4709 H4686 0.950 . S
C4709 C4708 1.334 . S
C4709 C4710 1.287 . S
C4710 C4709 1.287 . S
C4710 C4711 1.524 . S
C4710 H4729 0.913 . S
C4711 H4687 0.950 . S
C4711 C4710 1.524 . S
C4711 C4712 1.415 . S
C4712 H4688 0.950 . S
C4712 C4707 1.363 . S
C4712 C4711 1.415 . S
C4713 H4689 0.951 . S
C4713 C4714 1.366 . S
C4713 C4715 1.388 . S
C4714 C4713 1.366 . S
C4714 C4718 1.385 . S
C4715 H4690 0.951 . S
C4715 C4713 1.388 . S
C4715 C4716 1.366 . S
C4716 C4715 1.366 . S
C4716 C4717 1.414 . S
C4716 C4719 1.499 . S
C4717 H4691 0.950 . S
C4717 C4716 1.414 . S
C4717 C4718 1.374 . S
C4718 H4692 0.950 . S
C4718 C4714 1.385 . S
C4718 C4717 1.374 . S
C4719 C4716 1.499 . S
C4719 C4720 1.373 . S
C4719 C4721 1.389 . S
C4720 H4693 0.950 . S
C4720 C4706 1.377 . S
C4720 C4719 1.373 . S
C4721 C4705 1.377 . S
C4721 C4719 1.389 . S
C4721 C4722 1.524 . S
C4722 C4721 1.524 . S
C4722 C4723 1.397 . S
C4722 C4727 1.363 . S
C4723 H4694 0.950 . S
C4723 C4722 1.397 . S
C4723 C4724 1.334 . S
C4724 H4695 0.950 . S
C4724 C4723 1.334 . S
C4724 C4725 1.287 . S
C4725 C4724 1.287 . S
C4725 C4726 1.524 . S
C4725 H4728 0.999 . S
C4726 H4696 0.950 . S
C4726 C4725 1.524 . S
C4726 C4727 1.415 . S
C4727 H4697 0.950 . S
C4727 C4722 1.363 . S
C4727 C4726 1.415 . S
H4728 C4725 0.999 . S
H4729 C4710 0.913 . S
H4730 C4748 0.951 . S
H4731 C4750 0.951 . S
H4732 C4752 0.950 . S
H4733 C4753 0.950 . S
H4734 C4755 0.950 . S
H4735 C4758 0.950 . S
H4736 C4759 0.950 . S
H4737 C4761 0.950 . S
H4738 C4762 0.950 . S
H4739 C4763 0.951 . S
H4740 C4765 0.951 . S
H4741 C4767 0.950 . S
H4742 C4768 0.950 . S
H4743 C4770 0.950 . S
H4744 C4773 0.950 . S
H4745 C4774 0.950 . S
H4746 C4776 0.950 . S
H4747 C4777 0.950 . S
C4748 H4730 0.951 . S
C4748 C4749 1.366 . S
C4748 C4750 1.388 . S
C4749 C4748 1.366 . S
C4749 C4753 1.385 . S
C4750 H4731 0.951 . S
C4750 C4748 1.388 . S
C4750 C4751 1.366 . S
C4751 C4750 1.366 . S
C4751 C4752 1.414 . S
C4751 C4754 1.499 . S
C4752 H4732 0.950 . S
C4752 C4751 1.414 . S
C4752 C4753 1.374 . S
C4753 H4733 0.950 . S
C4753 C4749 1.385 . S
C4753 C4752 1.374 . S
C4754 C4751 1.499 . S
C4754 C4755 1.373 . S
C4754 C4756 1.389 . S
C4755 H4734 0.950 . S
C4755 C4754 1.373 . S
C4755 C4771 1.377 . S
C4756 C4754 1.389 . S
C4756 C4757 1.524 . S
C4756 C4770 1.377 . S
C4757 C4756 1.524 . S
C4757 C4758 1.397 . S
C4757 C4762 1.363 . S
C4758 H4735 0.950 . S
C4758 C4757 1.397 . S
C4758 C4759 1.334 . S
C4759 H4736 0.950 . S
C4759 C4758 1.334 . S
C4759 C4760 1.287 . S
C4760 C4759 1.287 . S
C4760 C4761 1.524 . S
C4760 H4779 0.913 . S
C4761 H4737 0.950 . S
C4761 C4760 1.524 . S
C4761 C4762 1.415 . S
C4762 H4738 0.950 . S
C4762 C4757 1.363 . S
C4762 C4761 1.415 . S
C4763 H4739 0.951 . S
C4763 C4764 1.366 . S
C4763 C4765 1.388 . S
C4764 C4763 1.366 . S
C4764 C4768 1.385 . S
C4765 H4740 0.951 . S
C4765 C4763 1.388 . S
C4765 C4766 1.366 . S
C4766 C4765 1.366 . S
C4766 C4767 1.414 . S
C4766 C4769 1.499 . S
C4767 H4741 0.950 . S
C4767 C4766 1.414 . S
C4767 C4768 1.374 . S
C4768 H4742 0.950 . S
C4768 C4764 1.385 . S
C4768 C4767 1.374 . S
C4769 C4766 1.499 . S
C4769 C4770 1.373 . S
C4769 C4771 1.389 . S
C4770 H4743 0.950 . S
C4770 C4756 1.377 . S
C4770 C4769 1.373 . S
C4771 C4755 1.377 . S
C4771 C4769 1.389 . S
C4771 C4772 1.524 . S
C4772 C4771 1.524 . S
C4772 C4773 1.397 . S
C4772 C4777 1.363 . S
C4773 H4744 0.950 . S
C4773 C4772 1.397 . S
C4773 C4774 1.334 . S
C4774 H4745 0.950 . S
C4774 C4773 1.334 . S
C4774 C4775 1.287 . S
C4775 C4774 1.287 . S
C4775 C4776 1.524 . S
C4775 H4778 0.999 . S
C4776 H4746 0.950 . S
C4776 C4775 1.524 . S
C4776 C4777 1.415 . S
C4777 H4747 0.950 . S
C4777 C4772 1.363 . S
C4777 C4776 1.415 . S
H4778 C4775 0.999 . S
H4779 C4760 0.913 . S
H4780 C4798 0.951 . S
H4781 C4800 0.951 . S
H4782 C4802 0.950 . S
H4783 C4803 0.950 . S
H4784 C4805 0.950 . S
H4785 C4808 0.950 . S
H4786 C4809 0.950 . S
H4787 C4811 0.950 . S
H4788 C4812 0.950 . S
H4789 C4813 0.951 . S
H4790 C4815 0.951 . S
H4791 C4817 0.950 . S
H4792 C4818 0.950 . S
H4793 C4820 0.950 . S
H4794 C4823 0.950 . S
H4795 C4824 0.950 . S
H4796 C4826 0.950 . S
H4797 C4827 0.950 . S
C4798 H4780 0.951 . S
C4798 C4799 1.366 . S
C4798 C4800 1.388 . S
C4799 C4798 1.366 . S
C4799 C4803 1.385 . S
C4800 H4781 0.951 . S
C4800 C4798 1.388 . S
C4800 C4801 1.366 . S
C4801 C4800 1.366 . S
C4801 C4802 1.414 . S
C4801 C4804 1.499 . S
C4802 H4782 0.950 . S
C4802 C4801 1.414 . S
C4802 C4803 1.374 . S
C4803 H4783 0.950 . S
C4803 C4799 1.385 . S
C4803 C4802 1.374 . S
C4804 C4801 1.499 . S
C4804 C4805 1.373 . S
C4804 C4806 1.389 . S
C4805 H4784 0.950 . S
C4805 C4804 1.373 . S
C4805 C4821 1.377 . S
C4806 C4804 1.389 . S
C4806 C4807 1.524 . S
C4806 C4820 1.377 . S
C4807 C4806 1.524 . S
C4807 C4808 1.397 . S
C4807 C4812 1.363 . S
C4808 H4785 0.950 . S
C4808 C4807 1.397 . S
C4808 C4809 1.334 . S
C4809 H4786 0.950 . S
C4809 C4808 1.334 . S
C4809 C4810 1.287 . S
C4810 C4809 1.287 . S
C4810 C4811 1.524 . S
C4810 H4829 0.913 . S
C4811 H4787 0.950 . S
C4811 C4810 1.524 . S
C4811 C4812 1.415 . S
C4812 H4788 0.950 . S
C4812 C4807 1.363 . S
C4812 C4811 1.415 . S
C4813 H4789 0.951 . S
C4813 C4814 1.366 . S
C4813 C4815 1.388 . S
C4814 C4813 1.366 . S
C4814 C4818 1.385 . S
C4815 H4790 0.951 . S
C4815 C4813 1.388 . S
C4815 C4816 1.366 . S
C4816 C4815 1.366 . S
C4816 C4817 1.414 . S
C4816 C4819 1.499 . S
C4817 H4791 0.950 . S
C4817 C4816 1.414 . S
C4817 C4818 1.374 . S
C4818 H4792 0.950 . S
C4818 C4814 1.385 . S
C4818 C4817 1.374 . S
C4819 C4816 1.499 . S
C4819 C4820 1.373 . S
C4819 C4821 1.389 . S
C4820 H4793 0.950 . S
C4820 C4806 1.377 . S
C4820 C4819 1.373 . S
C4821 C4805 1.377 . S
C4821 C4819 1.389 . S
C4821 C4822 1.524 . S
C4822 C4821 1.524 . S
C4822 C4823 1.397 . S
C4822 C4827 1.363 . S
C4823 H4794 0.950 . S
C4823 C4822 1.397 . S
C4823 C4824 1.334 . S
C4824 H4795 0.950 . S
C4824 C4823 1.334 . S
C4824 C4825 1.287 . S
C4825 C4824 1.287 . S
C4825 C4826 1.524 . S
C4825 H4828 0.999 . S
C4826 H4796 0.950 . S
C4826 C4825 1.524 . S
C4826 C4827 1.415 . S
C4827 H4797 0.950 . S
C4827 C4822 1.363 . S
C4827 C4826 1.415 . S
H4828 C4825 0.999 . S
H4829 C4810 0.913 . S
H4830 C4848 0.951 . S
H4831 C4850 0.951 . S
H4832 C4852 0.950 . S
H4833 C4853 0.950 . S
H4834 C4855 0.950 . S
H4835 C4858 0.950 . S
H4836 C4859 0.950 . S
H4837 C4861 0.950 . S
H4838 C4862 0.950 . S
H4839 C4863 0.951 . S
H4840 C4865 0.951 . S
H4841 C4867 0.950 . S
H4842 C4868 0.950 . S
H4843 C4870 0.950 . S
H4844 C4873 0.950 . S
H4845 C4874 0.950 . S
H4846 C4876 0.950 . S
H4847 C4877 0.950 . S
C4848 H4830 0.951 . S
C4848 C4849 1.366 . S
C4848 C4850 1.388 . S
C4849 C4848 1.366 . S
C4849 C4853 1.385 . S
C4850 H4831 0.951 . S
C4850 C4848 1.388 . S
C4850 C4851 1.366 . S
C4851 C4850 1.366 . S
C4851 C4852 1.414 . S
C4851 C4854 1.499 . S
C4852 H4832 0.950 . S
C4852 C4851 1.414 . S
C4852 C4853 1.374 . S
C4853 H4833 0.950 . S
C4853 C4849 1.385 . S
C4853 C4852 1.374 . S
C4854 C4851 1.499 . S
C4854 C4855 1.373 . S
C4854 C4856 1.389 . S
C4855 H4834 0.950 . S
C4855 C4854 1.373 . S
C4855 C4871 1.377 . S
C4856 C4854 1.389 . S
C4856 C4857 1.524 . S
C4856 C4870 1.377 . S
C4857 C4856 1.524 . S
C4857 C4858 1.397 . S
C4857 C4862 1.363 . S
C4858 H4835 0.950 . S
C4858 C4857 1.397 . S
C4858 C4859 1.334 . S
C4859 H4836 0.950 . S
C4859 C4858 1.334 . S
C4859 C4860 1.287 . S
C4860 C4859 1.287 . S
C4860 C4861 1.524 . S
C4860 H4879 0.913 . S
C4861 H4837 0.950 . S
C4861 C4860 1.524 . S
C4861 C4862 1.415 . S
C4862 H4838 0.950 . S
C4862 C4857 1.363 . S
C4862 C4861 1.415 . S
C4863 H4839 0.951 . S
C4863 C4864 1.366 . S
C4863 C4865 1.388 . S
C4864 C4863 1.366 . S
C4864 C4868 1.385 . S
C4865 H4840 0.951 . S
C4865 C4863 1.388 . S
C4865 C4866 1.366 . S
C4866 C4865 1.366 . S
C4866 C4867 1.414 . S
C4866 C4869 1.499 . S
C4867 H4841 0.950 . S
C4867 C4866 1.414 . S
C4867 C4868 1.374 . S
C4868 H4842 0.950 . S
C4868 C4864 1.385 . S
C4868 C4867 1.374 . S
C4869 C4866 1.499 . S
C4869 C4870 1.373 . S
C4869 C4871 1.389 . S
C4870 H4843 0.950 . S
C4870 C4856 1.377 . S
C4870 C4869 1.373 . S
C4871 C4855 1.377 . S
C4871 C4869 1.389 . S
C4871 C4872 1.524 . S
C4872 C4871 1.524 . S
C4872 C4873 1.397 . S
C4872 C4877 1.363 . S
C4873 H4844 0.950 . S
C4873 C4872 1.397 . S
C4873 C4874 1.334 . S
C4874 H4845 0.950 . S
C4874 C4873 1.334 . S
C4874 C4875 1.287 . S
C4875 C4874 1.287 . S
C4875 C4876 1.524 . S
C4875 H4878 0.999 . S
C4876 H4846 0.950 . S
C4876 C4875 1.524 . S
C4876 C4877 1.415 . S
C4877 H4847 0.950 . S
C4877 C4872 1.363 . S
C4877 C4876 1.415 . S
H4878 C4875 0.999 . S
H4879 C4860 0.913 . S
H4880 C4898 0.951 . S
H4881 C4900 0.951 . S
H4882 C4902 0.950 . S
H4883 C4903 0.950 . S
H4884 C4905 0.950 . S
H4885 C4908 0.950 . S
H4886 C4909 0.950 . S
H4887 C4911 0.950 . S
H4888 C4912 0.950 . S
H4889 C4913 0.951 . S
H4890 C4915 0.951 . S
H4891 C4917 0.950 . S
H4892 C4918 0.950 . S
H4893 C4920 0.950 . S
H4894 C4923 0.950 . S
H4895 C4924 0.950 . S
H4896 C4926 0.950 . S
H4897 C4927 0.950 . S
C4898 H4880 0.951 . S
C4898 C4899 1.366 . S
C4898 C4900 1.388 . S
C4899 C4898 1.366 . S
C4899 C4903 1.385 . S
C4900 H4881 0.951 . S
C4900 C4898 1.388 . S
C4900 C4901 1.366 . S
C4901 C4900 1.366 . S
C4901 C4902 1.414 . S
C4901 C4904 1.499 . S
C4902 H4882 0.950 . S
C4902 C4901 1.414 . S
C4902 C4903 1.374 . S
C4903 H4883 0.950 . S
C4903 C4899 1.385 . S
C4903 C4902 1.374 . S
C4904 C4901 1.499 . S
C4904 C4905 1.373 . S
C4904 C4906 1.389 . S
C4905 H4884 0.950 . S
C4905 C4904 1.373 . S
C4905 C4921 1.377 . S
C4906 C4904 1.389 . S
C4906 C4907 1.524 . S
C4906 C4920 1.377 . S
C4907 C4906 1.524 . S
C4907 C4908 1.397 . S
C4907 C4912 1.363 . S
C4908 H4885 0.950 . S
C4908 C4907 1.397 . S
C4908 C4909 1.334 . S
C4909 H4886 0.950 . S
C4909 C4908 1.334 . S
C4909 C4910 1.287 . S
C4910 C4909 1.287 . S
C4910 C4911 1.524 . S
C4910 H4929 0.913 . S
C4911 H4887 0.950 . S
C4911 C4910 1.524 . S
C4911 C4912 1.415 . S
C4912 H4888 0.950 . S
C4912 C4907 1.363 . S
C4912 C4911 1.415 . S
C4913 H4889 0.951 . S
C4913 C4914 1.366 . S
C4913 C4915 1.388 . S
C4914 C4913 1.366 . S
C4914 C4918 1.385 . S
C4915 H4890 0.951 . S
C4915 C4913 1.388 . S
C4915 C4916 1.366 . S
C4916 C4915 1.366 . S
C4916 C4917 1.414 . S
C4916 C4919 1.499 . S
C4917 H4891 0.950 . S
C4917 C4916 1.414 . S
C4917 C4918 1.374 . S
C4918 H4892 0.950 . S
C4918 C4914 1.385 . S
C4918 C4917 1.374 . S
C4919 C4916 1.499 . S
C4919 C4920 1.373 . S
C4919 C4921 1.389 . S
C4920 H4893 0.950 . S
C4920 C4906 1.377 . S
C4920 C4919 1.373 . S
C4921 C4905 1.377 . S
C4921 C4919 1.389 . S
C4921 C4922 1.524 . S
C4922 C4921 1.524 . S
C4922 C4923 1.397 . S
C4922 C4927 1.363 . S
C4923 H4894 0.950 . S
C4923 C4922 1.397 . S
C4923 C4924 1.334 . S
C4924 H4895 0.950 . S
C4924 C4923 1.334 . S
C4924 C4925 1.287 . S
C4925 C4924 1.287 . S
C4925 C4926 1.524 . S
C4925 H4928 0.999 . S
C4926 H4896 0.950 . S
C4926 C4925 1.524 . S
C4926 C4927 1.415 . S
C4927 H4897 0.950 . S
C4927 C4922 1.363 . S
C4927 C4926 1.415 . S
H4928 C4925 0.999 . S
H4929 C4910 0.913 . S
H4930 C4948 0.951 . S
H4931 C4950 0.951 . S
H4932 C4952 0.950 . S
H4933 C4953 0.950 . S
H4934 C4955 0.950 . S
H4935 C4958 0.950 . S
H4936 C4959 0.950 . S
H4937 C4961 0.950 . S
H4938 C4962 0.950 . S
H4939 C4963 0.951 . S
H4940 C4965 0.951 . S
H4941 C4967 0.950 . S
H4942 C4968 0.950 . S
H4943 C4970 0.950 . S
H4944 C4973 0.950 . S
H4945 C4974 0.950 . S
H4946 C4976 0.950 . S
H4947 C4977 0.950 . S
C4948 H4930 0.951 . S
C4948 C4949 1.366 . S
C4948 C4950 1.388 . S
C4949 C4948 1.366 . S
C4949 C4953 1.385 . S
C4950 H4931 0.951 . S
C4950 C4948 1.388 . S
C4950 C4951 1.366 . S
C4951 C4950 1.366 . S
C4951 C4952 1.414 . S
C4951 C4954 1.499 . S
C4952 H4932 0.950 . S
C4952 C4951 1.414 . S
C4952 C4953 1.374 . S
C4953 H4933 0.950 . S
C4953 C4949 1.385 . S
C4953 C4952 1.374 . S
C4954 C4951 1.499 . S
C4954 C4955 1.373 . S
C4954 C4956 1.389 . S
C4955 H4934 0.950 . S
C4955 C4954 1.373 . S
C4955 C4971 1.377 . S
C4956 C4954 1.389 . S
C4956 C4957 1.524 . S
C4956 C4970 1.377 . S
C4957 C4956 1.524 . S
C4957 C4958 1.397 . S
C4957 C4962 1.363 . S
C4958 H4935 0.950 . S
C4958 C4957 1.397 . S
C4958 C4959 1.334 . S
C4959 H4936 0.950 . S
C4959 C4958 1.334 . S
C4959 C4960 1.287 . S
C4960 C4959 1.287 . S
C4960 C4961 1.524 . S
C4960 H4979 0.913 . S
C4961 H4937 0.950 . S
C4961 C4960 1.524 . S
C4961 C4962 1.415 . S
C4962 H4938 0.950 . S
C4962 C4957 1.363 . S
C4962 C4961 1.415 . S
C4963 H4939 0.951 . S
C4963 C4964 1.366 . S
C4963 C4965 1.388 . S
C4964 C4963 1.366 . S
C4964 C4968 1.385 . S
C4965 H4940 0.951 . S
C4965 C4963 1.388 . S
C4965 C4966 1.366 . S
C4966 C4965 1.366 . S
C4966 C4967 1.414 . S
C4966 C4969 1.499 . S
C4967 H4941 0.950 . S
C4967 C4966 1.414 . S
C4967 C4968 1.374 . S
C4968 H4942 0.950 . S
C4968 C4964 1.385 . S
C4968 C4967 1.374 . S
C4969 C4966 1.499 . S
C4969 C4970 1.373 . S
C4969 C4971 1.389 . S
C4970 H4943 0.950 . S
C4970 C4956 1.377 . S
C4970 C4969 1.373 . S
C4971 C4955 1.377 . S
C4971 C4969 1.389 . S
C4971 C4972 1.524 . S
C4972 C4971 1.524 . S
C4972 C4973 1.397 . S
C4972 C4977 1.363 . S
C4973 H4944 0.950 . S
C4973 C4972 1.397 . S
C4973 C4974 1.334 . S
C4974 H4945 0.950 . S
C4974 C4973 1.334 . S
C4974 C4975 1.287 . S
C4975 C4974 1.287 . S
C4975 C4976 1.524 . S
C4975 H4978 0.999 . S
C4976 H4946 0.950 . S
C4976 C4975 1.524 . S
C4976 C4977 1.415 . S
C4977 H4947 0.950 . S
C4977 C4972 1.363 . S
C4977 C4976 1.415 . S
H4978 C4975 0.999 . S
H4979 C4960 0.913 . S
H4980 C4998 0.951 . S
H4981 C5000 0.951 . S
H4982 C5002 0.950 . S
H4983 C5003 0.950 . S
H4984 C5005 0.950 . S
H4985 C5008 0.950 . S
H4986 C5009 0.950 . S
H4987 C5011 0.950 . S
H4988 C5012 0.950 . S
H4989 C5013 0.951 . S
H4990 C5015 0.951 . S
H4991 C5017 0.950 . S
H4992 C5018 0.950 . S
H4993 C5020 0.950 . S
H4994 C5023 0.950 . S
H4995 C5024 0.950 . S
H4996 C5026 0.950 . S
H4997 C5027 0.950 . S
C4998 H4980 0.951 . S
C4998 C4999 1.366 . S
C4998 C5000 1.388 . S
C4999 C4998 1.366 . S
C4999 C5003 1.385 . S
C5000 H4981 0.951 . S
C5000 C4998 1.388 . S
C5000 C5001 1.366 . S
C5001 C5000 1.366 . S
C5001 C5002 1.414 . S
C5001 C5004 1.499 . S
C5002 H4982 0.950 . S
C5002 C5001 1.414 . S
C5002 C5003 1.374 . S
C5003 H4983 0.950 . S
C5003 C4999 1.385 . S
C5003 C5002 1.374 . S
C5004 C5001 1.499 . S
C5004 C5005 1.373 . S
C5004 C5006 1.389 . S
C5005 H4984 0.950 . S
C5005 C5004 1.373 . S
C5005 C5021 1.377 . S
C5006 C5004 1.389 . S
C5006 C5007 1.524 . S
C5006 C5020 1.377 . S
C5007 C5006 1.524 . S
C5007 C5008 1.397 . S
C5007 C5012 1.363 . S
C5008 H4985 0.950 . S
C5008 C5007 1.397 . S
C5008 C5009 1.334 . S
C5009 H4986 0.950 . S
C5009 C5008 1.334 . S
C5009 C5010 1.287 . S
C5010 C5009 1.287 . S
C5010 C5011 1.524 . S
C5010 H5029 0.913 . S
C5011 H4987 0.950 . S
C5011 C5010 1.524 . S
C5011 C5012 1.415 . S
C5012 H4988 0.950 . S
C5012 C5007 1.363 . S
C5012 C5011 1.415 . S
C5013 H4989 0.951 . S
C5013 C5014 1.366 . S
C5013 C5015 1.388 . S
C5014 C5013 1.366 . S
C5014 C5018 1.385 . S
C5015 H4990 0.951 . S
C5015 C5013 1.388 . S
C5015 C5016 1.366 . S
C5016 C5015 1.366 . S
C5016 C5017 1.414 . S
C5016 C5019 1.499 . S
C5017 H4991 0.950 . S
C5017 C5016 1.414 . S
C5017 C5018 1.374 . S
C5018 H4992 0.950 . S
C5018 C5014 1.385 . S
C5018 C5017 1.374 . S
C5019 C5016 1.499 . S
C5019 C5020 1.373 . S
C5019 C5021 1.389 . S
C5020 H4993 0.950 . S
C5020 C5006 1.377 . S
C5020 C5019 1.373 . S
C5021 C5005 1.377 . S
C5021 C5019 1.389 . S
C5021 C5022 1.524 . S
C5022 C5021 1.524 . S
C5022 C5023 1.397 . S
C5022 C5027 1.363 . S
C5023 H4994 0.950 . S
C5023 C5022 1.397 . S
C5023 C5024 1.334 . S
C5024 H4995 0.950 . S
C5024 C5023 1.334 . S
C5024 C5025 1.287 . S
C5025 C5024 1.287 . S
C5025 C5026 1.524 . S
C5025 H5028 0.999 . S
C5026 H4996 0.950 . S
C5026 C5025 1.524 . S
C5026 C5027 1.415 . S
C5027 H4997 0.950 . S
C5027 C5022 1.363 . S
C5027 C5026 1.415 . S
H5028 C5025 0.999 . S
H5029 C5010 0.913 . S
H5030 C5048 0.951 . S
H5031 C5050 0.951 . S
H5032 C5052 0.950 . S
H5033 C5053 0.950 . S
H5034 C5055 0.950 . S
H5035 C5058 0.950 . S
H5036 C5059 0.950 . S
H5037 C5061 0.950 . S
H5038 C5062 0.950 1_554 S
H5039 C5063 0.951 . S
H5040 C5065 0.967 . S
H5041 C5067 0.950 . S
H5042 C5068 0.950 . S
H5043 C5070 0.950 1_545 S
H5044 C5073 0.950 . S
H5045 C5074 0.950 . S
H5046 C5076 0.950 . S
H5047 C5077 0.950 . S
C5048 H5030 0.951 . S
C5048 C5049 1.366 . S
C5048 C5050 1.388 . S
C5049 C5048 1.366 . S
C5049 C5053 1.385 1_554 S
C5050 H5031 0.951 . S
C5050 C5048 1.388 . S
C5050 C5051 1.366 . S
C5051 C5050 1.366 . S
C5051 C5052 1.414 1_554 S
C5051 C5054 1.499 . S
C5052 H5032 0.950 . S
C5052 C5051 1.414 1_556 S
C5052 C5053 1.374 . S
C5053 H5033 0.950 . S
C5053 C5049 1.385 1_556 S
C5053 C5052 1.374 . S
C5054 C5051 1.499 . S
C5054 C5055 1.373 . S
C5054 C5056 1.389 . S
C5055 H5034 0.950 . S
C5055 C5054 1.373 . S
C5055 C5071 1.377 . S
C5056 C5054 1.389 . S
C5056 C5057 1.524 1_554 S
C5056 C5070 1.377 . S
C5057 C5056 1.524 1_556 S
C5057 C5058 1.397 . S
C5057 C5062 1.363 1_565 S
C5058 H5035 0.950 . S
C5058 C5057 1.397 . S
C5058 C5059 1.334 . S
C5059 H5036 0.950 . S
C5059 C5058 1.334 . S
C5059 C5060 1.287 1_565 S
C5060 C5059 1.287 1_545 S
C5060 C5061 1.524 . S
C5060 H5079 0.913 . S
C5061 H5037 0.950 . S
C5061 C5060 1.524 . S
C5061 C5062 1.415 . S
C5062 H5038 0.950 1_556 S
C5062 C5057 1.363 1_545 S
C5062 C5061 1.415 . S
C5063 H5039 0.951 . S
C5063 C5064 1.366 1_565 S
C5063 C5065 1.388 . S
C5064 C5063 1.366 1_545 S
C5064 C5068 1.385 . S
C5065 H5040 0.967 . S
C5065 C5063 1.388 . S
C5065 C5066 1.366 . S
C5066 C5065 1.366 . S
C5066 C5067 1.414 1_565 S
C5066 C5069 1.499 . S
C5067 H5041 0.950 . S
C5067 C5066 1.414 1_545 S
C5067 C5068 1.374 . S
C5068 H5042 0.950 . S
C5068 C5064 1.385 . S
C5068 C5067 1.374 . S
C5069 C5066 1.499 . S
C5069 C5070 1.373 . S
C5069 C5071 1.389 . S
C5070 H5043 0.950 1_565 S
C5070 C5056 1.377 . S
C5070 C5069 1.373 . S
C5071 C5055 1.377 . S
C5071 C5069 1.389 . S
C5071 C5072 1.524 . S
C5072 C5071 1.524 . S
C5072 C5073 1.397 . S
C5072 C5077 1.363 . S
C5073 H5044 0.950 . S
C5073 C5072 1.397 . S
C5073 C5074 1.334 . S
C5074 H5045 0.950 . S
C5074 C5073 1.334 . S
C5074 C5075 1.287 . S
C5075 C5074 1.287 . S
C5075 C5076 1.524 . S
C5075 H5078 0.999 . S
C5076 H5046 0.950 . S
C5076 C5075 1.524 . S
C5076 C5077 1.415 . S
C5077 H5047 0.950 . S
C5077 C5072 1.363 . S
C5077 C5076 1.415 . S
H5078 C5075 0.999 . S
H5079 C5060 0.913 . S
H5080 C5098 0.951 . S
H5081 C5100 0.951 . S
H5082 C5102 0.950 . S
H5083 C5103 0.950 . S
H5084 C5105 0.950 . S
H5085 C5108 0.950 . S
H5086 C5109 0.950 . S
H5087 C5111 0.950 . S
H5088 C5112 0.950 . S
H5089 C5113 0.951 . S
H5090 C5115 0.951 . S
H5091 C5117 0.950 . S
H5092 C5118 0.950 . S
H5093 C5120 0.950 . S
H5094 C5123 0.950 . S
H5095 C5124 0.950 . S
H5096 C5126 0.950 . S
H5097 C5127 0.950 . S
C5098 H5080 0.951 . S
C5098 C5099 1.366 . S
C5098 C5100 1.388 . S
C5099 C5098 1.366 . S
C5099 C5103 1.385 . S
C5100 H5081 0.951 . S
C5100 C5098 1.388 . S
C5100 C5101 1.366 . S
C5101 C5100 1.366 . S
C5101 C5102 1.414 . S
C5101 C5104 1.499 . S
C5102 H5082 0.950 . S
C5102 C5101 1.414 . S
C5102 C5103 1.374 . S
C5103 H5083 0.950 . S
C5103 C5099 1.385 . S
C5103 C5102 1.374 . S
C5104 C5101 1.499 . S
C5104 C5105 1.373 . S
C5104 C5106 1.389 . S
C5105 H5084 0.950 . S
C5105 C5104 1.373 . S
C5105 C5121 1.377 . S
C5106 C5104 1.389 . S
C5106 C5107 1.524 . S
C5106 C5120 1.377 . S
C5107 C5106 1.524 . S
C5107 C5108 1.397 . S
C5107 C5112 1.363 . S
C5108 H5085 0.950 . S
C5108 C5107 1.397 . S
C5108 C5109 1.334 . S
C5109 H5086 0.950 . S
C5109 C5108 1.334 . S
C5109 C5110 1.287 . S
C5110 C5109 1.287 . S
C5110 C5111 1.524 . S
C5110 H5129 0.913 . S
C5111 H5087 0.950 . S
C5111 C5110 1.524 . S
C5111 C5112 1.415 . S
C5112 H5088 0.950 . S
C5112 C5107 1.363 . S
C5112 C5111 1.415 . S
C5113 H5089 0.951 . S
C5113 C5114 1.366 . S
C5113 C5115 1.388 . S
C5114 C5113 1.366 . S
C5114 C5118 1.385 . S
C5115 H5090 0.951 . S
C5115 C5113 1.388 . S
C5115 C5116 1.366 . S
C5116 C5115 1.366 . S
C5116 C5117 1.414 . S
C5116 C5119 1.499 . S
C5117 H5091 0.950 . S
C5117 C5116 1.414 . S
C5117 C5118 1.374 . S
C5118 H5092 0.950 . S
C5118 C5114 1.385 . S
C5118 C5117 1.374 . S
C5119 C5116 1.499 . S
C5119 C5120 1.373 . S
C5119 C5121 1.389 . S
C5120 H5093 0.950 . S
C5120 C5106 1.377 . S
C5120 C5119 1.373 . S
C5121 C5105 1.377 . S
C5121 C5119 1.389 . S
C5121 C5122 1.524 . S
C5122 C5121 1.524 . S
C5122 C5123 1.397 . S
C5122 C5127 1.363 . S
C5123 H5094 0.950 . S
C5123 C5122 1.397 . S
C5123 C5124 1.334 . S
C5124 H5095 0.950 . S
C5124 C5123 1.334 . S
C5124 C5125 1.287 . S
C5125 C5124 1.287 . S
C5125 C5126 1.524 . S
C5125 H5128 0.999 . S
C5126 H5096 0.950 . S
C5126 C5125 1.524 . S
C5126 C5127 1.415 . S
C5127 H5097 0.950 . S
C5127 C5122 1.363 . S
C5127 C5126 1.415 . S
H5128 C5125 0.999 . S
H5129 C5110 0.913 . S
H5130 C5148 0.951 1_556 S
H5131 C5150 0.965 . S
H5132 C5152 0.950 . S
H5133 C5153 0.950 . S
H5134 C5155 0.950 . S
H5135 C5158 0.950 . S
H5136 C5159 0.950 . S
H5137 C5161 0.950 . S
H5138 C5162 0.950 . S
H5139 C5163 0.951 . S
H5140 C5165 0.951 . S
H5141 C5167 0.950 . S
H5142 C5168 0.950 . S
H5143 C5170 0.950 1_556 S
H5144 C5173 0.950 . S
H5145 C5174 0.950 . S
H5146 C5176 0.950 . S
H5147 C5177 0.950 . S
C5148 H5130 0.951 1_554 S
C5148 C5149 1.366 . S
C5148 C5150 1.388 . S
C5149 C5148 1.366 . S
C5149 C5153 1.385 . S
C5150 H5131 0.965 . S
C5150 C5148 1.388 . S
C5150 C5151 1.366 . S
C5151 C5150 1.366 . S
C5151 C5152 1.414 . S
C5151 C5154 1.499 . S
C5152 H5132 0.950 . S
C5152 C5151 1.414 . S
C5152 C5153 1.374 . S
C5153 H5133 0.950 . S
C5153 C5149 1.385 . S
C5153 C5152 1.374 . S
C5154 C5151 1.499 . S
C5154 C5155 1.373 . S
C5154 C5156 1.432 . S
C5155 H5134 0.950 . S
C5155 C5154 1.373 . S
C5155 C5171 1.377 . S
C5156 C5154 1.432 . S
C5156 C5157 1.474 1_554 S
C5156 C5170 1.384 . S
C5157 C5156 1.474 1_556 S
C5157 C5158 1.397 . S
C5157 C5162 1.363 . S
C5158 H5135 0.950 . S
C5158 C5157 1.397 . S
C5158 C5159 1.334 . S
C5159 H5136 0.950 . S
C5159 C5158 1.334 . S
C5159 C5160 1.287 . S
C5160 C5159 1.287 . S
C5160 C5161 1.524 . S
C5160 H5179 0.913 . S
C5161 H5137 0.950 . S
C5161 C5160 1.524 . S
C5161 C5162 1.415 . S
C5162 H5138 0.950 . S
C5162 C5157 1.363 . S
C5162 C5161 1.415 . S
C5163 H5139 0.951 . S
C5163 C5164 1.366 . S
C5163 C5165 1.388 . S
C5164 C5163 1.366 . S
C5164 C5168 1.385 . S
C5165 H5140 0.951 . S
C5165 C5163 1.388 . S
C5165 C5166 1.366 . S
C5166 C5165 1.366 . S
C5166 C5167 1.414 . S
C5166 C5169 1.499 . S
C5167 H5141 0.950 . S
C5167 C5166 1.414 . S
C5167 C5168 1.374 . S
C5168 H5142 0.950 . S
C5168 C5164 1.385 . S
C5168 C5167 1.374 . S
C5169 C5166 1.499 . S
C5169 C5170 1.373 . S
C5169 C5171 1.389 . S
C5170 H5143 0.950 1_554 S
C5170 C5156 1.384 . S
C5170 C5169 1.373 . S
C5171 C5155 1.377 . S
C5171 C5169 1.389 . S
C5171 C5172 1.524 . S
C5172 C5171 1.524 . S
C5172 C5173 1.397 . S
C5172 C5177 1.363 . S
C5173 H5144 0.950 . S
C5173 C5172 1.397 . S
C5173 C5174 1.334 . S
C5174 H5145 0.950 . S
C5174 C5173 1.334 . S
C5174 C5175 1.287 . S
C5175 C5174 1.287 . S
C5175 C5176 1.524 . S
C5175 H5178 0.999 . S
C5176 H5146 0.950 . S
C5176 C5175 1.524 . S
C5176 C5177 1.415 . S
C5177 H5147 0.950 . S
C5177 C5172 1.363 . S
C5177 C5176 1.415 . S
H5178 C5175 0.999 . S
H5179 C5160 0.913 . S
H5180 C5198 0.951 . S
H5181 C5200 0.951 . S
H5182 C5202 0.950 . S
H5183 C5203 0.950 . S
H5184 C5205 0.950 . S
H5185 C5208 0.950 . S
H5186 C5209 0.950 . S
H5187 C5211 0.950 . S
H5188 C5212 0.950 . S
H5189 C5213 0.951 . S
H5190 C5215 0.951 . S
H5191 C5217 0.950 . S
H5192 C5218 0.950 . S
H5193 C5220 0.950 . S
H5194 C5223 0.950 . S
H5195 C5224 0.950 . S
H5196 C5226 0.950 . S
H5197 C5227 0.950 . S
C5198 H5180 0.951 . S
C5198 C5199 1.366 . S
C5198 C5200 1.388 . S
C5199 C5198 1.366 . S
C5199 C5203 1.385 . S
C5200 H5181 0.951 . S
C5200 C5198 1.388 . S
C5200 C5201 1.366 . S
C5201 C5200 1.366 . S
C5201 C5202 1.414 . S
C5201 C5204 1.499 . S
C5202 H5182 0.950 . S
C5202 C5201 1.414 . S
C5202 C5203 1.374 . S
C5203 H5183 0.950 . S
C5203 C5199 1.385 . S
C5203 C5202 1.374 . S
C5204 C5201 1.499 . S
C5204 C5205 1.373 . S
C5204 C5206 1.389 . S
C5205 H5184 0.950 . S
C5205 C5204 1.373 . S
C5205 C5221 1.377 . S
C5206 C5204 1.389 . S
C5206 C5207 1.524 . S
C5206 C5220 1.377 . S
C5207 C5206 1.524 . S
C5207 C5208 1.397 . S
C5207 C5212 1.363 . S
C5208 H5185 0.950 . S
C5208 C5207 1.397 . S
C5208 C5209 1.334 . S
C5209 H5186 0.950 . S
C5209 C5208 1.334 . S
C5209 C5210 1.287 . S
C5210 C5209 1.287 . S
C5210 C5211 1.524 . S
C5210 H5229 0.913 . S
C5211 H5187 0.950 . S
C5211 C5210 1.524 . S
C5211 C5212 1.415 . S
C5212 H5188 0.950 . S
C5212 C5207 1.363 . S
C5212 C5211 1.415 . S
C5213 H5189 0.951 . S
C5213 C5214 1.366 . S
C5213 C5215 1.388 . S
C5214 C5213 1.366 . S
C5214 C5218 1.385 . S
C5215 H5190 0.951 . S
C5215 C5213 1.388 . S
C5215 C5216 1.366 . S
C5216 C5215 1.366 . S
C5216 C5217 1.414 . S
C5216 C5219 1.499 . S
C5217 H5191 0.950 . S
C5217 C5216 1.414 . S
C5217 C5218 1.374 . S
C5218 H5192 0.950 . S
C5218 C5214 1.385 . S
C5218 C5217 1.374 . S
C5219 C5216 1.499 . S
C5219 C5220 1.373 . S
C5219 C5221 1.389 . S
C5220 H5193 0.950 . S
C5220 C5206 1.377 . S
C5220 C5219 1.373 . S
C5221 C5205 1.377 . S
C5221 C5219 1.389 . S
C5221 C5222 1.524 . S
C5222 C5221 1.524 . S
C5222 C5223 1.397 . S
C5222 C5227 1.363 . S
C5223 H5194 0.950 . S
C5223 C5222 1.397 . S
C5223 C5224 1.334 . S
C5224 H5195 0.950 . S
C5224 C5223 1.334 . S
C5224 C5225 1.287 . S
C5225 C5224 1.287 . S
C5225 C5226 1.524 . S
C5225 H5228 0.999 . S
C5226 H5196 0.950 . S
C5226 C5225 1.524 . S
C5226 C5227 1.415 . S
C5227 H5197 0.950 . S
C5227 C5222 1.363 . S
C5227 C5226 1.415 . S
H5228 C5225 0.999 . S
H5229 C5210 0.913 . S
H5230 C5248 0.951 . S
H5231 C5250 0.951 . S
H5232 C5252 0.950 . S
H5233 C5253 0.950 . S
H5234 C5255 0.950 . S
H5235 C5258 0.950 . S
H5236 C5259 0.950 . S
H5237 C5261 0.950 . S
H5238 C5262 0.950 . S
H5239 C5263 0.951 . S
H5240 C5265 0.951 . S
H5241 C5267 0.950 . S
H5242 C5268 0.950 . S
H5243 C5270 0.950 . S
H5244 C5273 0.950 . S
H5245 C5274 0.950 . S
H5246 C5276 0.950 . S
H5247 C5277 0.950 . S
C5248 H5230 0.951 . S
C5248 C5249 1.366 . S
C5248 C5250 1.388 . S
C5249 C5248 1.366 . S
C5249 C5253 1.385 . S
C5250 H5231 0.951 . S
C5250 C5248 1.388 . S
C5250 C5251 1.366 . S
C5251 C5250 1.366 . S
C5251 C5252 1.414 . S
C5251 C5254 1.499 . S
C5252 H5232 0.950 . S
C5252 C5251 1.414 . S
C5252 C5253 1.374 . S
C5253 H5233 0.950 . S
C5253 C5249 1.385 . S
C5253 C5252 1.374 . S
C5254 C5251 1.499 . S
C5254 C5255 1.373 . S
C5254 C5256 1.389 . S
C5255 H5234 0.950 . S
C5255 C5254 1.373 . S
C5255 C5271 1.377 . S
C5256 C5254 1.389 . S
C5256 C5257 1.524 . S
C5256 C5270 1.377 . S
C5257 C5256 1.524 . S
C5257 C5258 1.397 . S
C5257 C5262 1.363 . S
C5258 H5235 0.950 . S
C5258 C5257 1.397 . S
C5258 C5259 1.334 . S
C5259 H5236 0.950 . S
C5259 C5258 1.334 . S
C5259 C5260 1.287 . S
C5260 C5259 1.287 . S
C5260 C5261 1.524 . S
C5260 H5279 0.913 . S
C5261 H5237 0.950 . S
C5261 C5260 1.524 . S
C5261 C5262 1.415 . S
C5262 H5238 0.950 . S
C5262 C5257 1.363 . S
C5262 C5261 1.415 . S
C5263 H5239 0.951 . S
C5263 C5264 1.366 . S
C5263 C5265 1.388 . S
C5264 C5263 1.366 . S
C5264 C5268 1.385 . S
C5265 H5240 0.951 . S
C5265 C5263 1.388 . S
C5265 C5266 1.366 . S
C5266 C5265 1.366 . S
C5266 C5267 1.414 . S
C5266 C5269 1.499 . S
C5267 H5241 0.950 . S
C5267 C5266 1.414 . S
C5267 C5268 1.374 . S
C5268 H5242 0.950 . S
C5268 C5264 1.385 . S
C5268 C5267 1.374 . S
C5269 C5266 1.499 . S
C5269 C5270 1.373 . S
C5269 C5271 1.389 . S
C5270 H5243 0.950 . S
C5270 C5256 1.377 . S
C5270 C5269 1.373 . S
C5271 C5255 1.377 . S
C5271 C5269 1.389 . S
C5271 C5272 1.524 . S
C5272 C5271 1.524 . S
C5272 C5273 1.397 . S
C5272 C5277 1.363 . S
C5273 H5244 0.950 . S
C5273 C5272 1.397 . S
C5273 C5274 1.334 . S
C5274 H5245 0.950 . S
C5274 C5273 1.334 . S
C5274 C5275 1.287 . S
C5275 C5274 1.287 . S
C5275 C5276 1.524 . S
C5275 H5278 0.999 . S
C5276 H5246 0.950 . S
C5276 C5275 1.524 . S
C5276 C5277 1.415 . S
C5277 H5247 0.950 . S
C5277 C5272 1.363 . S
C5277 C5276 1.415 . S
H5278 C5275 0.999 . S
H5279 C5260 0.913 . S
H5280 C5298 0.951 . S
H5281 C5300 0.951 . S
H5282 C5302 0.950 . S
H5283 C5303 0.950 . S
H5284 C5305 0.950 . S
H5285 C5308 0.950 . S
H5286 C5309 0.950 . S
H5287 C5311 0.950 . S
H5288 C5312 0.950 . S
H5289 C5313 0.951 . S
H5290 C5315 0.951 . S
H5291 C5317 0.950 . S
H5292 C5318 0.950 . S
H5293 C5320 0.950 . S
H5294 C5323 0.950 . S
H5295 C5324 0.950 . S
H5296 C5326 0.950 . S
H5297 C5327 0.950 . S
C5298 H5280 0.951 . S
C5298 C5299 1.366 . S
C5298 C5300 1.388 . S
C5299 C5298 1.366 . S
C5299 C5303 1.385 . S
C5300 H5281 0.951 . S
C5300 C5298 1.388 . S
C5300 C5301 1.366 . S
C5301 C5300 1.366 . S
C5301 C5302 1.414 . S
C5301 C5304 1.499 . S
C5302 H5282 0.950 . S
C5302 C5301 1.414 . S
C5302 C5303 1.374 . S
C5303 H5283 0.950 . S
C5303 C5299 1.385 . S
C5303 C5302 1.374 . S
C5304 C5301 1.499 . S
C5304 C5305 1.373 . S
C5304 C5306 1.389 . S
C5305 H5284 0.950 . S
C5305 C5304 1.373 . S
C5305 C5321 1.377 . S
C5306 C5304 1.389 . S
C5306 C5307 1.524 . S
C5306 C5320 1.377 . S
C5307 C5306 1.524 . S
C5307 C5308 1.397 . S
C5307 C5312 1.363 . S
C5308 H5285 0.950 . S
C5308 C5307 1.397 . S
C5308 C5309 1.334 . S
C5309 H5286 0.950 . S
C5309 C5308 1.334 . S
C5309 C5310 1.287 . S
C5310 C5309 1.287 . S
C5310 C5311 1.524 . S
C5310 H5329 0.913 . S
C5311 H5287 0.950 . S
C5311 C5310 1.524 . S
C5311 C5312 1.415 . S
C5312 H5288 0.950 . S
C5312 C5307 1.363 . S
C5312 C5311 1.415 . S
C5313 H5289 0.951 . S
C5313 C5314 1.366 . S
C5313 C5315 1.388 . S
C5314 C5313 1.366 . S
C5314 C5318 1.385 . S
C5315 H5290 0.951 . S
C5315 C5313 1.388 . S
C5315 C5316 1.366 . S
C5316 C5315 1.366 . S
C5316 C5317 1.414 . S
C5316 C5319 1.499 . S
C5317 H5291 0.950 . S
C5317 C5316 1.414 . S
C5317 C5318 1.374 . S
C5318 H5292 0.950 . S
C5318 C5314 1.385 . S
C5318 C5317 1.374 . S
C5319 C5316 1.499 . S
C5319 C5320 1.373 . S
C5319 C5321 1.389 . S
C5320 H5293 0.950 . S
C5320 C5306 1.377 . S
C5320 C5319 1.373 . S
C5321 C5305 1.377 . S
C5321 C5319 1.389 . S
C5321 C5322 1.524 . S
C5322 C5321 1.524 . S
C5322 C5323 1.397 . S
C5322 C5327 1.363 . S
C5323 H5294 0.950 . S
C5323 C5322 1.397 . S
C5323 C5324 1.334 . S
C5324 H5295 0.950 . S
C5324 C5323 1.334 . S
C5324 C5325 1.287 . S
C5325 C5324 1.287 . S
C5325 C5326 1.524 . S
C5325 H5328 0.999 . S
C5326 H5296 0.950 . S
C5326 C5325 1.524 . S
C5326 C5327 1.415 . S
C5327 H5297 0.950 . S
C5327 C5322 1.363 . S
C5327 C5326 1.415 . S
H5328 C5325 0.999 . S
H5329 C5310 0.913 . S
H5330 C5348 0.951 . S
H5331 C5350 0.951 . S
H5332 C5352 0.950 . S
H5333 C5353 0.950 . S
H5334 C5355 0.950 . S
H5335 C5358 0.950 . S
H5336 C5359 0.950 . S
H5337 C5361 0.950 . S
H5338 C5362 0.950 . S
H5339 C5363 0.951 . S
H5340 C5365 0.951 . S
H5341 C5367 0.950 . S
H5342 C5368 0.950 . S
H5343 C5370 0.950 . S
H5344 C5373 0.950 . S
H5345 C5374 0.950 . S
H5346 C5376 0.950 . S
H5347 C5377 0.950 . S
C5348 H5330 0.951 . S
C5348 C5349 1.366 . S
C5348 C5350 1.388 . S
C5349 C5348 1.366 . S
C5349 C5353 1.385 . S
C5350 H5331 0.951 . S
C5350 C5348 1.388 . S
C5350 C5351 1.366 . S
C5351 C5350 1.366 . S
C5351 C5352 1.414 . S
C5351 C5354 1.499 . S
C5352 H5332 0.950 . S
C5352 C5351 1.414 . S
C5352 C5353 1.374 . S
C5353 H5333 0.950 . S
C5353 C5349 1.385 . S
C5353 C5352 1.374 . S
C5354 C5351 1.499 . S
C5354 C5355 1.373 . S
C5354 C5356 1.389 . S
C5355 H5334 0.950 . S
C5355 C5354 1.373 . S
C5355 C5371 1.377 . S
C5356 C5354 1.389 . S
C5356 C5357 1.524 . S
C5356 C5370 1.377 . S
C5357 C5356 1.524 . S
C5357 C5358 1.397 . S
C5357 C5362 1.363 . S
C5358 H5335 0.950 . S
C5358 C5357 1.397 . S
C5358 C5359 1.334 . S
C5359 H5336 0.950 . S
C5359 C5358 1.334 . S
C5359 C5360 1.287 . S
C5360 C5359 1.287 . S
C5360 C5361 1.524 . S
C5360 H5379 0.913 . S
C5361 H5337 0.950 . S
C5361 C5360 1.524 . S
C5361 C5362 1.415 . S
C5362 H5338 0.950 . S
C5362 C5357 1.363 . S
C5362 C5361 1.415 . S
C5363 H5339 0.951 . S
C5363 C5364 1.366 . S
C5363 C5365 1.388 . S
C5364 C5363 1.366 . S
C5364 C5368 1.385 . S
C5365 H5340 0.951 . S
C5365 C5363 1.388 . S
C5365 C5366 1.366 . S
C5366 C5365 1.366 . S
C5366 C5367 1.414 . S
C5366 C5369 1.499 . S
C5367 H5341 0.950 . S
C5367 C5366 1.414 . S
C5367 C5368 1.374 . S
C5368 H5342 0.950 . S
C5368 C5364 1.385 . S
C5368 C5367 1.374 . S
C5369 C5366 1.499 . S
C5369 C5370 1.373 . S
C5369 C5371 1.389 . S
C5370 H5343 0.950 . S
C5370 C5356 1.377 . S
C5370 C5369 1.373 . S
C5371 C5355 1.377 . S
C5371 C5369 1.389 . S
C5371 C5372 1.524 . S
C5372 C5371 1.524 . S
C5372 C5373 1.397 . S
C5372 C5377 1.363 . S
C5373 H5344 0.950 . S
C5373 C5372 1.397 . S
C5373 C5374 1.334 . S
C5374 H5345 0.950 . S
C5374 C5373 1.334 . S
C5374 C5375 1.287 . S
C5375 C5374 1.287 . S
C5375 C5376 1.524 . S
C5375 H5378 0.999 . S
C5376 H5346 0.950 . S
C5376 C5375 1.524 . S
C5376 C5377 1.415 . S
C5377 H5347 0.950 . S
C5377 C5372 1.363 . S
C5377 C5376 1.415 . S
H5378 C5375 0.999 . S
H5379 C5360 0.913 . S
H5380 C5398 0.951 . S
H5381 C5400 0.951 . S
H5382 C5402 0.950 . S
H5383 C5403 0.950 . S
H5384 C5405 0.950 . S
H5385 C5408 0.950 1_455 S
H5386 C5409 0.950 . S
H5387 C5411 0.950 . S
H5388 C5412 0.927 1_455 S
H5389 C5413 0.951 . S
H5390 C5415 0.951 . S
H5391 C5417 0.950 . S
H5392 C5418 0.950 . S
H5393 C5420 0.950 . S
H5394 C5423 0.950 . S
H5395 C5424 0.950 . S
H5396 C5426 0.950 . S
H5397 C5427 0.950 . S
C5398 H5380 0.951 . S
C5398 C5399 1.366 . S
C5398 C5400 1.388 . S
C5399 C5398 1.366 . S
C5399 C5403 1.385 . S
C5400 H5381 0.951 . S
C5400 C5398 1.388 . S
C5400 C5401 1.366 . S
C5401 C5400 1.366 . S
C5401 C5402 1.414 . S
C5401 C5404 1.499 . S
C5402 H5382 0.950 . S
C5402 C5401 1.414 . S
C5402 C5403 1.374 . S
C5403 H5383 0.950 . S
C5403 C5399 1.385 . S
C5403 C5402 1.374 . S
C5404 C5401 1.499 . S
C5404 C5405 1.373 . S
C5404 C5406 1.389 . S
C5405 H5384 0.950 . S
C5405 C5404 1.373 . S
C5405 C5421 1.377 . S
C5406 C5404 1.389 . S
C5406 C5407 1.524 . S
C5406 C5420 1.377 . S
C5407 C5406 1.524 . S
C5407 C5408 1.397 1_455 S
C5407 C5412 1.363 1_455 S
C5408 H5385 0.950 1_655 S
C5408 C5407 1.397 1_655 S
C5408 C5409 1.334 . S
C5409 H5386 0.950 . S
C5409 C5408 1.334 . S
C5409 C5410 1.287 . S
C5410 C5409 1.287 . S
C5410 C5411 1.524 . S
C5410 H5429 0.913 . S
C5411 H5387 0.950 . S
C5411 C5410 1.524 . S
C5411 C5412 1.415 . S
C5412 H5388 0.927 1_655 S
C5412 C5407 1.363 1_655 S
C5412 C5411 1.415 . S
C5413 H5389 0.951 . S
C5413 C5414 1.366 . S
C5413 C5415 1.388 . S
C5414 C5413 1.366 . S
C5414 C5418 1.385 . S
C5415 H5390 0.951 . S
C5415 C5413 1.388 . S
C5415 C5416 1.366 . S
C5416 C5415 1.366 . S
C5416 C5417 1.414 . S
C5416 C5419 1.499 . S
C5417 H5391 0.950 . S
C5417 C5416 1.414 . S
C5417 C5418 1.374 . S
C5418 H5392 0.950 . S
C5418 C5414 1.385 . S
C5418 C5417 1.374 . S
C5419 C5416 1.499 . S
C5419 C5420 1.373 . S
C5419 C5421 1.389 . S
C5420 H5393 0.950 . S
C5420 C5406 1.377 . S
C5420 C5419 1.373 . S
C5421 C5405 1.377 . S
C5421 C5419 1.389 . S
C5421 C5422 1.524 . S
C5422 C5421 1.524 . S
C5422 C5423 1.397 . S
C5422 C5427 1.363 . S
C5423 H5394 0.950 . S
C5423 C5422 1.397 . S
C5423 C5424 1.334 . S
C5424 H5395 0.950 . S
C5424 C5423 1.334 . S
C5424 C5425 1.287 . S
C5425 C5424 1.287 . S
C5425 C5426 1.524 . S
C5425 H5428 0.999 . S
C5426 H5396 0.950 . S
C5426 C5425 1.524 . S
C5426 C5427 1.415 . S
C5427 H5397 0.950 . S
C5427 C5422 1.363 . S
C5427 C5426 1.415 . S
H5428 C5425 0.999 . S
H5429 C5410 0.913 . S
H5430 C5448 0.951 . S
H5431 C5450 0.951 . S
H5432 C5452 0.950 . S
H5433 C5453 0.950 . S
H5434 C5455 0.950 . S
H5435 C5458 0.950 . S
H5436 C5459 0.950 . S
H5437 C5461 0.950 . S
H5438 C5462 0.950 . S
H5439 C5463 0.951 . S
H5440 C5465 0.951 . S
H5441 C5467 0.950 . S
H5442 C5468 0.950 . S
H5443 C5470 0.950 . S
H5444 C5473 0.950 . S
H5445 C5474 0.950 . S
H5446 C5476 0.950 . S
H5447 C5477 0.950 . S
C5448 H5430 0.951 . S
C5448 C5449 1.366 . S
C5448 C5450 1.388 . S
C5449 C5448 1.366 . S
C5449 C5453 1.385 . S
C5450 H5431 0.951 . S
C5450 C5448 1.388 . S
C5450 C5451 1.366 . S
C5451 C5450 1.366 . S
C5451 C5452 1.414 . S
C5451 C5454 1.499 . S
C5452 H5432 0.950 . S
C5452 C5451 1.414 . S
C5452 C5453 1.374 . S
C5453 H5433 0.950 . S
C5453 C5449 1.385 . S
C5453 C5452 1.374 . S
C5454 C5451 1.499 . S
C5454 C5455 1.373 . S
C5454 C5456 1.389 . S
C5455 H5434 0.950 . S
C5455 C5454 1.373 . S
C5455 C5471 1.377 . S
C5456 C5454 1.389 . S
C5456 C5457 1.524 . S
C5456 C5470 1.377 . S
C5457 C5456 1.524 . S
C5457 C5458 1.397 . S
C5457 C5462 1.363 . S
C5458 H5435 0.950 . S
C5458 C5457 1.397 . S
C5458 C5459 1.334 . S
C5459 H5436 0.950 . S
C5459 C5458 1.334 . S
C5459 C5460 1.287 . S
C5460 C5459 1.287 . S
C5460 C5461 1.524 . S
C5460 H5479 0.913 . S
C5461 H5437 0.950 . S
C5461 C5460 1.524 . S
C5461 C5462 1.415 . S
C5462 H5438 0.950 . S
C5462 C5457 1.363 . S
C5462 C5461 1.415 . S
C5463 H5439 0.951 . S
C5463 C5464 1.366 . S
C5463 C5465 1.388 . S
C5464 C5463 1.366 . S
C5464 C5468 1.385 . S
C5465 H5440 0.951 . S
C5465 C5463 1.388 . S
C5465 C5466 1.366 . S
C5466 C5465 1.366 . S
C5466 C5467 1.414 . S
C5466 C5469 1.499 . S
C5467 H5441 0.950 . S
C5467 C5466 1.414 . S
C5467 C5468 1.374 . S
C5468 H5442 0.950 . S
C5468 C5464 1.385 . S
C5468 C5467 1.374 . S
C5469 C5466 1.499 . S
C5469 C5470 1.373 . S
C5469 C5471 1.389 . S
C5470 H5443 0.950 . S
C5470 C5456 1.377 . S
C5470 C5469 1.373 . S
C5471 C5455 1.377 . S
C5471 C5469 1.389 . S
C5471 C5472 1.524 . S
C5472 C5471 1.524 . S
C5472 C5473 1.397 . S
C5472 C5477 1.363 . S
C5473 H5444 0.950 . S
C5473 C5472 1.397 . S
C5473 C5474 1.334 . S
C5474 H5445 0.950 . S
C5474 C5473 1.334 . S
C5474 C5475 1.287 . S
C5475 C5474 1.287 . S
C5475 C5476 1.524 . S
C5475 H5478 0.999 . S
C5476 H5446 0.950 . S
C5476 C5475 1.524 . S
C5476 C5477 1.415 . S
C5477 H5447 0.950 . S
C5477 C5472 1.363 . S
C5477 C5476 1.415 . S
H5478 C5475 0.999 . S
H5479 C5460 0.913 . S
H5480 C5498 0.951 . S
H5481 C5500 0.951 . S
H5482 C5502 0.950 . S
H5483 C5503 0.950 . S
H5484 C5505 0.950 . S
H5485 C5508 0.950 . S
H5486 C5509 0.950 . S
H5487 C5511 0.950 . S
H5488 C5512 0.950 . S
H5489 C5513 0.951 . S
H5490 C5515 0.951 . S
H5491 C5517 0.950 . S
H5492 C5518 0.950 . S
H5493 C5520 0.950 . S
H5494 C5523 0.950 . S
H5495 C5524 0.950 1_554 S
H5496 C5526 0.950 . S
H5497 C5527 0.950 . S
C5498 H5480 0.951 . S
C5498 C5499 1.366 . S
C5498 C5500 1.388 . S
C5499 C5498 1.366 . S
C5499 C5503 1.385 . S
C5500 H5481 0.951 . S
C5500 C5498 1.388 . S
C5500 C5501 1.366 . S
C5501 C5500 1.366 . S
C5501 C5502 1.414 . S
C5501 C5504 1.499 . S
C5502 H5482 0.950 . S
C5502 C5501 1.414 . S
C5502 C5503 1.374 . S
C5503 H5483 0.950 . S
C5503 C5499 1.385 . S
C5503 C5502 1.374 . S
C5504 C5501 1.499 . S
C5504 C5505 1.373 . S
C5504 C5506 1.389 . S
C5505 H5484 0.950 . S
C5505 C5504 1.373 . S
C5505 C5521 1.377 . S
C5506 C5504 1.389 . S
C5506 C5507 1.524 . S
C5506 C5520 1.377 . S
C5507 C5506 1.524 . S
C5507 C5508 1.397 . S
C5507 C5512 1.363 . S
C5508 H5485 0.950 . S
C5508 C5507 1.397 . S
C5508 C5509 1.334 . S
C5509 H5486 0.950 . S
C5509 C5508 1.334 . S
C5509 C5510 1.287 . S
C5510 C5509 1.287 . S
C5510 C5511 1.524 . S
C5510 H5529 0.913 . S
C5511 H5487 0.950 . S
C5511 C5510 1.524 . S
C5511 C5512 1.415 . S
C5512 H5488 0.950 . S
C5512 C5507 1.363 . S
C5512 C5511 1.415 . S
C5513 H5489 0.951 . S
C5513 C5514 1.366 . S
C5513 C5515 1.388 . S
C5514 C5513 1.366 . S
C5514 C5518 1.385 . S
C5515 H5490 0.951 . S
C5515 C5513 1.388 . S
C5515 C5516 1.366 . S
C5516 C5515 1.366 . S
C5516 C5517 1.414 . S
C5516 C5519 1.499 . S
C5517 H5491 0.950 . S
C5517 C5516 1.414 . S
C5517 C5518 1.374 . S
C5518 H5492 0.950 . S
C5518 C5514 1.385 . S
C5518 C5517 1.374 . S
C5519 C5516 1.499 . S
C5519 C5520 1.373 . S
C5519 C5521 1.389 . S
C5520 H5493 0.950 . S
C5520 C5506 1.377 . S
C5520 C5519 1.373 . S
C5521 C5505 1.377 . S
C5521 C5519 1.389 . S
C5521 C5522 1.524 . S
C5522 C5521 1.524 . S
C5522 C5523 1.397 . S
C5522 C5527 1.363 . S
C5523 H5494 0.950 . S
C5523 C5522 1.397 . S
C5523 C5524 1.334 . S
C5524 H5495 0.950 1_556 S
C5524 C5523 1.334 . S
C5524 C5525 1.287 1_556 S
C5525 C5524 1.287 1_554 S
C5525 C5526 1.524 1_554 S
C5525 H5528 0.999 . S
C5526 H5496 0.950 . S
C5526 C5525 1.524 1_556 S
C5526 C5527 1.415 . S
C5527 H5497 0.950 . S
C5527 C5522 1.363 . S
C5527 C5526 1.415 . S
H5528 C5525 0.999 . S
H5529 C5510 0.913 . S
H5530 C5548 0.951 . S
H5531 C5550 0.951 . S
H5532 C5552 0.950 . S
H5533 C5553 0.950 . S
H5534 C5555 0.950 . S
H5535 C5558 0.950 . S
H5536 C5559 0.950 . S
H5537 C5561 0.950 . S
H5538 C5562 0.950 . S
H5539 C5563 0.951 . S
H5540 C5565 0.951 . S
H5541 C5567 0.950 . S
H5542 C5568 0.950 . S
H5543 C5570 0.950 . S
H5544 C5573 0.950 . S
H5545 C5574 0.950 . S
H5546 C5576 0.950 . S
H5547 C5577 0.950 . S
C5548 H5530 0.951 . S
C5548 C5549 1.366 . S
C5548 C5550 1.388 . S
C5549 C5548 1.366 . S
C5549 C5553 1.385 . S
C5550 H5531 0.951 . S
C5550 C5548 1.388 . S
C5550 C5551 1.366 . S
C5551 C5550 1.366 . S
C5551 C5552 1.414 . S
C5551 C5554 1.499 . S
C5552 H5532 0.950 . S
C5552 C5551 1.414 . S
C5552 C5553 1.374 . S
C5553 H5533 0.950 . S
C5553 C5549 1.385 . S
C5553 C5552 1.374 . S
C5554 C5551 1.499 . S
C5554 C5555 1.373 . S
C5554 C5556 1.389 . S
C5555 H5534 0.950 . S
C5555 C5554 1.373 . S
C5555 C5571 1.377 . S
C5556 C5554 1.389 . S
C5556 C5557 1.524 . S
C5556 C5570 1.377 . S
C5557 C5556 1.524 . S
C5557 C5558 1.397 . S
C5557 C5562 1.363 . S
C5558 H5535 0.950 . S
C5558 C5557 1.397 . S
C5558 C5559 1.334 . S
C5559 H5536 0.950 . S
C5559 C5558 1.334 . S
C5559 C5560 1.287 . S
C5560 C5559 1.287 . S
C5560 C5561 1.524 . S
C5560 H5579 0.913 . S
C5561 H5537 0.950 . S
C5561 C5560 1.524 . S
C5561 C5562 1.415 . S
C5562 H5538 0.950 . S
C5562 C5557 1.363 . S
C5562 C5561 1.415 . S
C5563 H5539 0.951 . S
C5563 C5564 1.366 . S
C5563 C5565 1.388 . S
C5564 C5563 1.366 . S
C5564 C5568 1.385 . S
C5565 H5540 0.951 . S
C5565 C5563 1.388 . S
C5565 C5566 1.366 . S
C5566 C5565 1.366 . S
C5566 C5567 1.414 . S
C5566 C5569 1.499 . S
C5567 H5541 0.950 . S
C5567 C5566 1.414 . S
C5567 C5568 1.374 . S
C5568 H5542 0.950 . S
C5568 C5564 1.385 . S
C5568 C5567 1.374 . S
C5569 C5566 1.499 . S
C5569 C5570 1.373 . S
C5569 C5571 1.389 . S
C5570 H5543 0.950 . S
C5570 C5556 1.377 . S
C5570 C5569 1.373 . S
C5571 C5555 1.377 . S
C5571 C5569 1.389 . S
C5571 C5572 1.524 . S
C5572 C5571 1.524 . S
C5572 C5573 1.397 . S
C5572 C5577 1.363 . S
C5573 H5544 0.950 . S
C5573 C5572 1.397 . S
C5573 C5574 1.334 . S
C5574 H5545 0.950 . S
C5574 C5573 1.334 . S
C5574 C5575 1.287 . S
C5575 C5574 1.287 . S
C5575 C5576 1.524 . S
C5575 H5578 0.999 . S
C5576 H5546 0.950 . S
C5576 C5575 1.524 . S
C5576 C5577 1.415 . S
C5577 H5547 0.950 . S
C5577 C5572 1.363 . S
C5577 C5576 1.415 . S
H5578 C5575 0.999 . S
H5579 C5560 0.913 . S
H5580 C5598 0.951 . S
H5581 C5600 0.951 . S
H5582 C5602 0.950 . S
H5583 C5603 0.950 . S
H5584 C5605 0.950 . S
H5585 C5608 0.950 . S
H5586 C5609 0.950 . S
H5587 C5611 0.950 . S
H5588 C5612 0.950 . S
H5589 C5613 0.951 . S
H5590 C5615 0.951 . S
H5591 C5617 0.950 . S
H5592 C5618 0.950 . S
H5593 C5620 0.950 . S
H5594 C5623 0.950 . S
H5595 C5624 0.950 . S
H5596 C5626 0.950 . S
H5597 C5627 0.950 . S
C5598 H5580 0.951 . S
C5598 C5599 1.366 . S
C5598 C5600 1.388 . S
C5599 C5598 1.366 . S
C5599 C5603 1.385 . S
C5600 H5581 0.951 . S
C5600 C5598 1.388 . S
C5600 C5601 1.366 . S
C5601 C5600 1.366 . S
C5601 C5602 1.414 . S
C5601 C5604 1.499 . S
C5602 H5582 0.950 . S
C5602 C5601 1.414 . S
C5602 C5603 1.374 . S
C5603 H5583 0.950 . S
C5603 C5599 1.385 . S
C5603 C5602 1.374 . S
C5604 C5601 1.499 . S
C5604 C5605 1.373 . S
C5604 C5606 1.389 . S
C5605 H5584 0.950 . S
C5605 C5604 1.373 . S
C5605 C5621 1.377 . S
C5606 C5604 1.389 . S
C5606 C5607 1.524 . S
C5606 C5620 1.377 . S
C5607 C5606 1.524 . S
C5607 C5608 1.397 . S
C5607 C5612 1.363 . S
C5608 H5585 0.950 . S
C5608 C5607 1.397 . S
C5608 C5609 1.334 . S
C5609 H5586 0.950 . S
C5609 C5608 1.334 . S
C5609 C5610 1.287 . S
C5610 C5609 1.287 . S
C5610 C5611 1.524 . S
C5610 H5629 0.913 . S
C5611 H5587 0.950 . S
C5611 C5610 1.524 . S
C5611 C5612 1.415 . S
C5612 H5588 0.950 . S
C5612 C5607 1.363 . S
C5612 C5611 1.415 . S
C5613 H5589 0.951 . S
C5613 C5614 1.366 . S
C5613 C5615 1.388 . S
C5614 C5613 1.366 . S
C5614 C5618 1.385 . S
C5615 H5590 0.951 . S
C5615 C5613 1.388 . S
C5615 C5616 1.366 . S
C5616 C5615 1.366 . S
C5616 C5617 1.414 . S
C5616 C5619 1.499 . S
C5617 H5591 0.950 . S
C5617 C5616 1.414 . S
C5617 C5618 1.374 . S
C5618 H5592 0.950 . S
C5618 C5614 1.385 . S
C5618 C5617 1.374 . S
C5619 C5616 1.499 . S
C5619 C5620 1.373 . S
C5619 C5621 1.389 . S
C5620 H5593 0.950 . S
C5620 C5606 1.377 . S
C5620 C5619 1.373 . S
C5621 C5605 1.377 . S
C5621 C5619 1.389 . S
C5621 C5622 1.524 . S
C5622 C5621 1.524 . S
C5622 C5623 1.397 . S
C5622 C5627 1.363 . S
C5623 H5594 0.950 . S
C5623 C5622 1.397 . S
C5623 C5624 1.334 . S
C5624 H5595 0.950 . S
C5624 C5623 1.334 . S
C5624 C5625 1.287 . S
C5625 C5624 1.287 . S
C5625 C5626 1.524 . S
C5625 H5628 0.999 . S
C5626 H5596 0.950 . S
C5626 C5625 1.524 . S
C5626 C5627 1.415 . S
C5627 H5597 0.950 . S
C5627 C5622 1.363 . S
C5627 C5626 1.415 . S
H5628 C5625 0.999 . S
H5629 C5610 0.913 . S
H5630 C5648 0.951 . S
H5631 C5650 0.951 . S
H5632 C5652 0.950 . S
H5633 C5653 0.950 . S
H5634 C5655 0.950 . S
H5635 C5658 0.950 . S
H5636 C5659 0.950 . S
H5637 C5661 0.950 . S
H5638 C5662 0.950 . S
H5639 C5663 0.951 . S
H5640 C5665 0.951 . S
H5641 C5667 0.950 . S
H5642 C5668 0.950 . S
H5643 C5670 0.950 . S
H5644 C5673 0.950 . S
H5645 C5674 0.950 . S
H5646 C5676 0.950 . S
H5647 C5677 0.950 . S
C5648 H5630 0.951 . S
C5648 C5649 1.366 . S
C5648 C5650 1.388 . S
C5649 C5648 1.366 . S
C5649 C5653 1.385 . S
C5650 H5631 0.951 . S
C5650 C5648 1.388 . S
C5650 C5651 1.366 . S
C5651 C5650 1.366 . S
C5651 C5652 1.414 . S
C5651 C5654 1.499 . S
C5652 H5632 0.950 . S
C5652 C5651 1.414 . S
C5652 C5653 1.374 . S
C5653 H5633 0.950 . S
C5653 C5649 1.385 . S
C5653 C5652 1.374 . S
C5654 C5651 1.499 . S
C5654 C5655 1.373 . S
C5654 C5656 1.389 . S
C5655 H5634 0.950 . S
C5655 C5654 1.373 . S
C5655 C5671 1.377 . S
C5656 C5654 1.389 . S
C5656 C5657 1.524 . S
C5656 C5670 1.377 . S
C5657 C5656 1.524 . S
C5657 C5658 1.397 . S
C5657 C5662 1.363 . S
C5658 H5635 0.950 . S
C5658 C5657 1.397 . S
C5658 C5659 1.334 . S
C5659 H5636 0.950 . S
C5659 C5658 1.334 . S
C5659 C5660 1.287 . S
C5660 C5659 1.287 . S
C5660 C5661 1.524 . S
C5660 H5679 0.913 . S
C5661 H5637 0.950 . S
C5661 C5660 1.524 . S
C5661 C5662 1.415 . S
C5662 H5638 0.950 . S
C5662 C5657 1.363 . S
C5662 C5661 1.415 . S
C5663 H5639 0.951 . S
C5663 C5664 1.366 . S
C5663 C5665 1.388 . S
C5664 C5663 1.366 . S
C5664 C5668 1.385 . S
C5665 H5640 0.951 . S
C5665 C5663 1.388 . S
C5665 C5666 1.366 . S
C5666 C5665 1.366 . S
C5666 C5667 1.414 . S
C5666 C5669 1.499 . S
C5667 H5641 0.950 . S
C5667 C5666 1.414 . S
C5667 C5668 1.374 . S
C5668 H5642 0.950 . S
C5668 C5664 1.385 . S
C5668 C5667 1.374 . S
C5669 C5666 1.499 . S
C5669 C5670 1.373 . S
C5669 C5671 1.389 . S
C5670 H5643 0.950 . S
C5670 C5656 1.377 . S
C5670 C5669 1.373 . S
C5671 C5655 1.377 . S
C5671 C5669 1.389 . S
C5671 C5672 1.524 . S
C5672 C5671 1.524 . S
C5672 C5673 1.397 . S
C5672 C5677 1.363 . S
C5673 H5644 0.950 . S
C5673 C5672 1.397 . S
C5673 C5674 1.334 . S
C5674 H5645 0.950 . S
C5674 C5673 1.334 . S
C5674 C5675 1.287 . S
C5675 C5674 1.287 . S
C5675 C5676 1.524 . S
C5675 H5678 0.999 . S
C5676 H5646 0.950 . S
C5676 C5675 1.524 . S
C5676 C5677 1.415 . S
C5677 H5647 0.950 . S
C5677 C5672 1.363 . S
C5677 C5676 1.415 . S
H5678 C5675 0.999 . S
H5679 C5660 0.913 . S
H5680 C5698 0.951 . S
H5681 C5700 0.951 . S
H5682 C5702 0.950 . S
H5683 C5703 0.950 . S
H5684 C5705 0.950 . S
H5685 C5708 0.950 . S
H5686 C5709 0.950 . S
H5687 C5711 0.950 . S
H5688 C5712 0.950 . S
H5689 C5713 0.951 . S
H5690 C5715 0.951 . S
H5691 C5717 0.950 . S
H5692 C5718 0.950 . S
H5693 C5720 0.950 . S
H5694 C5723 0.950 . S
H5695 C5724 0.950 . S
H5696 C5726 0.950 . S
H5697 C5727 0.950 . S
C5698 H5680 0.951 . S
C5698 C5699 1.366 . S
C5698 C5700 1.388 . S
C5699 C5698 1.366 . S
C5699 C5703 1.385 . S
C5700 H5681 0.951 . S
C5700 C5698 1.388 . S
C5700 C5701 1.366 . S
C5701 C5700 1.366 . S
C5701 C5702 1.414 . S
C5701 C5704 1.499 . S
C5702 H5682 0.950 . S
C5702 C5701 1.414 . S
C5702 C5703 1.374 . S
C5703 H5683 0.950 . S
C5703 C5699 1.385 . S
C5703 C5702 1.374 . S
C5704 C5701 1.499 . S
C5704 C5705 1.373 . S
C5704 C5706 1.389 . S
C5705 H5684 0.950 . S
C5705 C5704 1.373 . S
C5705 C5721 1.377 . S
C5706 C5704 1.389 . S
C5706 C5707 1.524 . S
C5706 C5720 1.377 . S
C5707 C5706 1.524 . S
C5707 C5708 1.397 . S
C5707 C5712 1.363 . S
C5708 H5685 0.950 . S
C5708 C5707 1.397 . S
C5708 C5709 1.334 . S
C5709 H5686 0.950 . S
C5709 C5708 1.334 . S
C5709 C5710 1.287 . S
C5710 C5709 1.287 . S
C5710 C5711 1.524 . S
C5710 H5729 0.913 . S
C5711 H5687 0.950 . S
C5711 C5710 1.524 . S
C5711 C5712 1.415 . S
C5712 H5688 0.950 . S
C5712 C5707 1.363 . S
C5712 C5711 1.415 . S
C5713 H5689 0.951 . S
C5713 C5714 1.366 . S
C5713 C5715 1.388 . S
C5714 C5713 1.366 . S
C5714 C5718 1.385 . S
C5715 H5690 0.951 . S
C5715 C5713 1.388 . S
C5715 C5716 1.366 . S
C5716 C5715 1.366 . S
C5716 C5717 1.414 . S
C5716 C5719 1.499 . S
C5717 H5691 0.950 . S
C5717 C5716 1.414 . S
C5717 C5718 1.374 . S
C5718 H5692 0.950 . S
C5718 C5714 1.385 . S
C5718 C5717 1.374 . S
C5719 C5716 1.499 . S
C5719 C5720 1.373 . S
C5719 C5721 1.389 . S
C5720 H5693 0.950 . S
C5720 C5706 1.377 . S
C5720 C5719 1.373 . S
C5721 C5705 1.377 . S
C5721 C5719 1.389 . S
C5721 C5722 1.524 . S
C5722 C5721 1.524 . S
C5722 C5723 1.397 . S
C5722 C5727 1.363 . S
C5723 H5694 0.950 . S
C5723 C5722 1.397 . S
C5723 C5724 1.334 . S
C5724 H5695 0.950 . S
C5724 C5723 1.334 . S
C5724 C5725 1.287 . S
C5725 C5724 1.287 . S
C5725 C5726 1.524 . S
C5725 H5728 0.999 . S
C5726 H5696 0.950 . S
C5726 C5725 1.524 . S
C5726 C5727 1.415 . S
C5727 H5697 0.950 . S
C5727 C5722 1.363 . S
C5727 C5726 1.415 . S
H5728 C5725 0.999 . S
H5729 C5710 0.913 . S
H5730 C5748 0.951 . S
H5731 C5750 0.951 . S
H5732 C5752 0.950 . S
H5733 C5753 0.950 . S
H5734 C5755 0.950 . S
H5735 C5758 0.950 . S
H5736 C5759 0.950 . S
H5737 C5761 0.950 . S
H5738 C5762 0.950 . S
H5739 C5763 0.951 . S
H5740 C5765 0.951 . S
H5741 C5767 0.950 . S
H5742 C5768 0.950 . S
H5743 C5770 0.950 . S
H5744 C5773 0.950 . S
H5745 C5774 0.950 . S
H5746 C5776 0.950 . S
H5747 C5777 0.950 . S
C5748 H5730 0.951 . S
C5748 C5749 1.366 . S
C5748 C5750 1.388 . S
C5749 C5748 1.366 . S
C5749 C5753 1.385 . S
C5750 H5731 0.951 . S
C5750 C5748 1.388 . S
C5750 C5751 1.366 . S
C5751 C5750 1.366 . S
C5751 C5752 1.414 . S
C5751 C5754 1.499 . S
C5752 H5732 0.950 . S
C5752 C5751 1.414 . S
C5752 C5753 1.374 . S
C5753 H5733 0.950 . S
C5753 C5749 1.385 . S
C5753 C5752 1.374 . S
C5754 C5751 1.499 . S
C5754 C5755 1.373 . S
C5754 C5756 1.389 . S
C5755 H5734 0.950 . S
C5755 C5754 1.373 . S
C5755 C5771 1.377 . S
C5756 C5754 1.389 . S
C5756 C5757 1.524 . S
C5756 C5770 1.377 . S
C5757 C5756 1.524 . S
C5757 C5758 1.397 . S
C5757 C5762 1.363 . S
C5758 H5735 0.950 . S
C5758 C5757 1.397 . S
C5758 C5759 1.334 . S
C5759 H5736 0.950 . S
C5759 C5758 1.334 . S
C5759 C5760 1.287 . S
C5760 C5759 1.287 . S
C5760 C5761 1.524 . S
C5760 H5779 0.913 . S
C5761 H5737 0.950 . S
C5761 C5760 1.524 . S
C5761 C5762 1.415 . S
C5762 H5738 0.950 . S
C5762 C5757 1.363 . S
C5762 C5761 1.415 . S
C5763 H5739 0.951 . S
C5763 C5764 1.366 . S
C5763 C5765 1.388 . S
C5764 C5763 1.366 . S
C5764 C5768 1.385 . S
C5765 H5740 0.951 . S
C5765 C5763 1.388 . S
C5765 C5766 1.366 . S
C5766 C5765 1.366 . S
C5766 C5767 1.414 . S
C5766 C5769 1.499 . S
C5767 H5741 0.950 . S
C5767 C5766 1.414 . S
C5767 C5768 1.374 . S
C5768 H5742 0.950 . S
C5768 C5764 1.385 . S
C5768 C5767 1.374 . S
C5769 C5766 1.499 . S
C5769 C5770 1.373 . S
C5769 C5771 1.389 . S
C5770 H5743 0.950 . S
C5770 C5756 1.377 . S
C5770 C5769 1.373 . S
C5771 C5755 1.377 . S
C5771 C5769 1.389 . S
C5771 C5772 1.524 . S
C5772 C5771 1.524 . S
C5772 C5773 1.397 . S
C5772 C5777 1.363 . S
C5773 H5744 0.950 . S
C5773 C5772 1.397 . S
C5773 C5774 1.334 . S
C5774 H5745 0.950 . S
C5774 C5773 1.334 . S
C5774 C5775 1.287 . S
C5775 C5774 1.287 . S
C5775 C5776 1.524 . S
C5775 H5778 0.999 . S
C5776 H5746 0.950 . S
C5776 C5775 1.524 . S
C5776 C5777 1.415 . S
C5777 H5747 0.950 . S
C5777 C5772 1.363 . S
C5777 C5776 1.415 . S
H5778 C5775 0.999 . S
H5779 C5760 0.913 . S
H5780 C5798 0.951 . S
H5781 C5800 0.951 . S
H5782 C5802 0.950 . S
H5783 C5803 0.950 . S
H5784 C5805 0.950 . S
H5785 C5808 0.950 . S
H5786 C5809 0.950 . S
H5787 C5811 0.950 . S
H5788 C5812 0.950 . S
H5789 C5813 0.951 . S
H5790 C5815 0.951 . S
H5791 C5817 0.950 . S
H5792 C5818 0.950 . S
H5793 C5820 0.950 . S
H5794 C5823 0.950 . S
H5795 C5824 0.963 . S
H5796 C5826 0.950 . S
H5797 C5827 0.950 . S
C5798 H5780 0.951 . S
C5798 C5799 1.366 . S
C5798 C5800 1.388 . S
C5799 C5798 1.366 . S
C5799 C5803 1.385 . S
C5800 H5781 0.951 . S
C5800 C5798 1.388 . S
C5800 C5801 1.366 . S
C5801 C5800 1.366 . S
C5801 C5802 1.414 . S
C5801 C5804 1.499 . S
C5802 H5782 0.950 . S
C5802 C5801 1.414 . S
C5802 C5803 1.374 . S
C5803 H5783 0.950 . S
C5803 C5799 1.385 . S
C5803 C5802 1.374 . S
C5804 C5801 1.499 . S
C5804 C5805 1.373 . S
C5804 C5806 1.389 . S
C5805 H5784 0.950 . S
C5805 C5804 1.373 . S
C5805 C5821 1.377 . S
C5806 C5804 1.389 . S
C5806 C5807 1.524 . S
C5806 C5820 1.377 . S
C5807 C5806 1.524 . S
C5807 C5808 1.397 . S
C5807 C5812 1.363 . S
C5808 H5785 0.950 . S
C5808 C5807 1.397 . S
C5808 C5809 1.334 . S
C5809 H5786 0.950 . S
C5809 C5808 1.334 . S
C5809 C5810 1.287 . S
C5810 C5809 1.287 . S
C5810 C5811 1.524 . S
C5810 H5829 0.913 . S
C5811 H5787 0.950 . S
C5811 C5810 1.524 . S
C5811 C5812 1.415 . S
C5812 H5788 0.950 . S
C5812 C5807 1.363 . S
C5812 C5811 1.415 . S
C5813 H5789 0.951 . S
C5813 C5814 1.364 . S
C5813 C5815 1.388 . S
C5814 C5813 1.364 . S
C5814 C5818 1.385 1_655 S
C5815 H5790 0.951 . S
C5815 C5813 1.388 . S
C5815 C5816 1.366 . S
C5816 C5815 1.366 . S
C5816 C5817 1.414 . S
C5816 C5819 1.499 . S
C5817 H5791 0.950 . S
C5817 C5816 1.414 . S
C5817 C5818 1.374 1_655 S
C5818 H5792 0.950 . S
C5818 C5814 1.385 1_455 S
C5818 C5817 1.374 1_455 S
C5819 C5816 1.499 . S
C5819 C5820 1.373 . S
C5819 C5821 1.389 . S
C5820 H5793 0.950 . S
C5820 C5806 1.377 . S
C5820 C5819 1.373 . S
C5821 C5805 1.377 . S
C5821 C5819 1.389 . S
C5821 C5822 1.524 . S
C5822 C5821 1.524 . S
C5822 C5823 1.397 . S
C5822 C5827 1.363 . S
C5823 H5794 0.950 . S
C5823 C5822 1.397 . S
C5823 C5824 1.334 . S
C5824 H5795 0.963 . S
C5824 C5823 1.334 . S
C5824 C5825 1.287 . S
C5825 C5824 1.287 . S
C5825 C5826 1.524 . S
C5825 H5828 0.999 . S
C5826 H5796 0.950 . S
C5826 C5825 1.524 . S
C5826 C5827 1.415 . S
C5827 H5797 0.950 . S
C5827 C5822 1.363 . S
C5827 C5826 1.415 . S
H5828 C5825 0.999 . S
H5829 C5810 0.913 . S
H5830 C5848 0.951 . S
H5831 C5850 0.951 . S
H5832 C5852 0.950 . S
H5833 C5853 0.950 . S
H5834 C5855 0.950 . S
H5835 C5858 0.950 . S
H5836 C5859 0.950 . S
H5837 C5861 0.950 . S
H5838 C5862 0.950 . S
H5839 C5863 0.951 . S
H5840 C5865 0.951 . S
H5841 C5867 0.950 . S
H5842 C5868 0.950 . S
H5843 C5870 0.950 . S
H5844 C5873 0.950 . S
H5845 C5874 0.950 . S
H5846 C5876 0.950 . S
H5847 C5877 0.950 . S
C5848 H5830 0.951 . S
C5848 C5849 1.366 . S
C5848 C5850 1.388 . S
C5849 C5848 1.366 . S
C5849 C5853 1.385 . S
C5850 H5831 0.951 . S
C5850 C5848 1.388 . S
C5850 C5851 1.366 . S
C5851 C5850 1.366 . S
C5851 C5852 1.414 . S
C5851 C5854 1.499 . S
C5852 H5832 0.950 . S
C5852 C5851 1.414 . S
C5852 C5853 1.374 . S
C5853 H5833 0.950 . S
C5853 C5849 1.385 . S
C5853 C5852 1.374 . S
C5854 C5851 1.499 . S
C5854 C5855 1.373 . S
C5854 C5856 1.389 . S
C5855 H5834 0.950 . S
C5855 C5854 1.373 . S
C5855 C5871 1.377 . S
C5856 C5854 1.389 . S
C5856 C5857 1.524 . S
C5856 C5870 1.377 . S
C5857 C5856 1.524 . S
C5857 C5858 1.397 . S
C5857 C5862 1.363 . S
C5858 H5835 0.950 . S
C5858 C5857 1.397 . S
C5858 C5859 1.334 . S
C5859 H5836 0.950 . S
C5859 C5858 1.334 . S
C5859 C5860 1.287 . S
C5860 C5859 1.287 . S
C5860 C5861 1.524 . S
C5860 H5879 0.913 . S
C5861 H5837 0.950 . S
C5861 C5860 1.524 . S
C5861 C5862 1.415 . S
C5862 H5838 0.950 . S
C5862 C5857 1.363 . S
C5862 C5861 1.415 . S
C5863 H5839 0.951 . S
C5863 C5864 1.366 . S
C5863 C5865 1.388 . S
C5864 C5863 1.366 . S
C5864 C5868 1.385 . S
C5865 H5840 0.951 . S
C5865 C5863 1.388 . S
C5865 C5866 1.366 . S
C5866 C5865 1.366 . S
C5866 C5867 1.414 . S
C5866 C5869 1.499 . S
C5867 H5841 0.950 . S
C5867 C5866 1.414 . S
C5867 C5868 1.374 . S
C5868 H5842 0.950 . S
C5868 C5864 1.385 . S
C5868 C5867 1.374 . S
C5869 C5866 1.499 . S
C5869 C5870 1.373 . S
C5869 C5871 1.389 . S
C5870 H5843 0.950 . S
C5870 C5856 1.377 . S
C5870 C5869 1.373 . S
C5871 C5855 1.377 . S
C5871 C5869 1.389 . S
C5871 C5872 1.524 . S
C5872 C5871 1.524 . S
C5872 C5873 1.397 . S
C5872 C5877 1.363 . S
C5873 H5844 0.950 . S
C5873 C5872 1.397 . S
C5873 C5874 1.334 . S
C5874 H5845 0.950 . S
C5874 C5873 1.334 . S
C5874 C5875 1.287 . S
C5875 C5874 1.287 . S
C5875 C5876 1.524 . S
C5875 H5878 0.999 . S
C5876 H5846 0.950 . S
C5876 C5875 1.524 . S
C5876 C5877 1.415 . S
C5877 H5847 0.950 . S
C5877 C5872 1.363 . S
C5877 C5876 1.415 . S
H5878 C5875 0.999 . S
H5879 C5860 0.913 . S
H5880 C5898 0.951 . S
H5881 C5900 0.951 . S
H5882 C5902 0.950 . S
H5883 C5903 0.950 . S
H5884 C5905 0.950 . S
H5885 C5908 0.950 . S
H5886 C5909 0.950 . S
H5887 C5911 0.950 . S
H5888 C5912 0.950 . S
H5889 C5913 0.951 . S
H5890 C5915 0.951 . S
H5891 C5917 0.950 . S
H5892 C5918 0.950 . S
H5893 C5920 0.950 . S
H5894 C5923 0.950 . S
H5895 C5924 0.950 . S
H5896 C5926 0.950 . S
H5897 C5927 0.950 . S
C5898 H5880 0.951 . S
C5898 C5899 1.366 . S
C5898 C5900 1.388 . S
C5899 C5898 1.366 . S
C5899 C5903 1.385 . S
C5900 H5881 0.951 . S
C5900 C5898 1.388 . S
C5900 C5901 1.366 . S
C5901 C5900 1.366 . S
C5901 C5902 1.414 . S
C5901 C5904 1.499 . S
C5902 H5882 0.950 . S
C5902 C5901 1.414 . S
C5902 C5903 1.374 . S
C5903 H5883 0.950 . S
C5903 C5899 1.385 . S
C5903 C5902 1.374 . S
C5904 C5901 1.499 . S
C5904 C5905 1.373 . S
C5904 C5906 1.389 . S
C5905 H5884 0.950 . S
C5905 C5904 1.373 . S
C5905 C5921 1.377 . S
C5906 C5904 1.389 . S
C5906 C5907 1.524 . S
C5906 C5920 1.377 . S
C5907 C5906 1.524 . S
C5907 C5908 1.397 . S
C5907 C5912 1.363 . S
C5908 H5885 0.950 . S
C5908 C5907 1.397 . S
C5908 C5909 1.334 . S
C5909 H5886 0.950 . S
C5909 C5908 1.334 . S
C5909 C5910 1.287 . S
C5910 C5909 1.287 . S
C5910 C5911 1.524 . S
C5910 H5929 0.913 . S
C5911 H5887 0.950 . S
C5911 C5910 1.524 . S
C5911 C5912 1.415 . S
C5912 H5888 0.950 . S
C5912 C5907 1.363 . S
C5912 C5911 1.415 . S
C5913 H5889 0.951 . S
C5913 C5914 1.366 . S
C5913 C5915 1.388 . S
C5914 C5913 1.366 . S
C5914 C5918 1.385 . S
C5915 H5890 0.951 . S
C5915 C5913 1.388 . S
C5915 C5916 1.366 . S
C5916 C5915 1.366 . S
C5916 C5917 1.414 . S
C5916 C5919 1.499 . S
C5917 H5891 0.950 . S
C5917 C5916 1.414 . S
C5917 C5918 1.374 . S
C5918 H5892 0.950 . S
C5918 C5914 1.385 . S
C5918 C5917 1.374 . S
C5919 C5916 1.499 . S
C5919 C5920 1.373 . S
C5919 C5921 1.389 . S
C5920 H5893 0.950 . S
C5920 C5906 1.377 . S
C5920 C5919 1.373 . S
C5921 C5905 1.377 . S
C5921 C5919 1.389 . S
C5921 C5922 1.524 . S
C5922 C5921 1.524 . S
C5922 C5923 1.397 . S
C5922 C5927 1.363 . S
C5923 H5894 0.950 . S
C5923 C5922 1.397 . S
C5923 C5924 1.334 . S
C5924 H5895 0.950 . S
C5924 C5923 1.334 . S
C5924 C5925 1.287 . S
C5925 C5924 1.287 . S
C5925 C5926 1.524 . S
C5925 H5928 0.999 . S
C5926 H5896 0.950 . S
C5926 C5925 1.524 . S
C5926 C5927 1.415 . S
C5927 H5897 0.950 . S
C5927 C5922 1.363 . S
C5927 C5926 1.415 . S
H5928 C5925 0.999 . S
H5929 C5910 0.913 . S
H5930 C5948 0.951 . S
H5931 C5950 0.951 . S
H5932 C5952 0.950 . S
H5933 C5953 0.950 . S
H5934 C5955 0.950 . S
H5935 C5958 0.950 . S
H5936 C5959 0.950 . S
H5937 C5961 0.950 . S
H5938 C5962 0.950 . S
H5939 C5963 0.951 . S
H5940 C5965 0.951 . S
H5941 C5967 0.950 . S
H5942 C5968 0.950 . S
H5943 C5970 0.950 . S
H5944 C5973 0.950 . S
H5945 C5974 0.950 . S
H5946 C5976 0.950 . S
H5947 C5977 0.950 . S
C5948 H5930 0.951 . S
C5948 C5949 1.366 . S
C5948 C5950 1.388 . S
C5949 C5948 1.366 . S
C5949 C5953 1.385 . S
C5950 H5931 0.951 . S
C5950 C5948 1.388 . S
C5950 C5951 1.366 . S
C5951 C5950 1.366 . S
C5951 C5952 1.414 . S
C5951 C5954 1.499 . S
C5952 H5932 0.950 . S
C5952 C5951 1.414 . S
C5952 C5953 1.374 . S
C5953 H5933 0.950 . S
C5953 C5949 1.385 . S
C5953 C5952 1.374 . S
C5954 C5951 1.499 . S
C5954 C5955 1.373 . S
C5954 C5956 1.389 . S
C5955 H5934 0.950 . S
C5955 C5954 1.373 . S
C5955 C5971 1.377 . S
C5956 C5954 1.389 . S
C5956 C5957 1.524 . S
C5956 C5970 1.377 . S
C5957 C5956 1.524 . S
C5957 C5958 1.397 . S
C5957 C5962 1.363 . S
C5958 H5935 0.950 . S
C5958 C5957 1.397 . S
C5958 C5959 1.334 . S
C5959 H5936 0.950 . S
C5959 C5958 1.334 . S
C5959 C5960 1.287 . S
C5960 C5959 1.287 . S
C5960 C5961 1.524 . S
C5960 H5979 0.913 . S
C5961 H5937 0.950 . S
C5961 C5960 1.524 . S
C5961 C5962 1.415 . S
C5962 H5938 0.950 . S
C5962 C5957 1.363 . S
C5962 C5961 1.415 . S
C5963 H5939 0.951 . S
C5963 C5964 1.366 . S
C5963 C5965 1.388 . S
C5964 C5963 1.366 . S
C5964 C5968 1.385 . S
C5965 H5940 0.951 . S
C5965 C5963 1.388 . S
C5965 C5966 1.366 . S
C5966 C5965 1.366 . S
C5966 C5967 1.414 . S
C5966 C5969 1.499 . S
C5967 H5941 0.950 . S
C5967 C5966 1.414 . S
C5967 C5968 1.374 . S
C5968 H5942 0.950 . S
C5968 C5964 1.385 . S
C5968 C5967 1.374 . S
C5969 C5966 1.499 . S
C5969 C5970 1.373 . S
C5969 C5971 1.389 . S
C5970 H5943 0.950 . S
C5970 C5956 1.377 . S
C5970 C5969 1.373 . S
C5971 C5955 1.377 . S
C5971 C5969 1.389 . S
C5971 C5972 1.524 . S
C5972 C5971 1.524 . S
C5972 C5973 1.397 . S
C5972 C5977 1.363 . S
C5973 H5944 0.950 . S
C5973 C5972 1.397 . S
C5973 C5974 1.334 . S
C5974 H5945 0.950 . S
C5974 C5973 1.334 . S
C5974 C5975 1.287 . S
C5975 C5974 1.287 . S
C5975 C5976 1.524 . S
C5975 H5978 0.999 . S
C5976 H5946 0.950 . S
C5976 C5975 1.524 . S
C5976 C5977 1.415 . S
C5977 H5947 0.950 . S
C5977 C5972 1.363 . S
C5977 C5976 1.415 . S
H5978 C5975 0.999 . S
H5979 C5960 0.913 . S
H5980 C5998 0.951 . S
H5981 C6000 0.951 . S
H5982 C6002 0.950 . S
H5983 C6003 0.950 . S
H5984 C6005 0.950 . S
H5985 C6008 0.950 . S
H5986 C6009 0.950 . S
H5987 C6011 0.950 . S
H5988 C6012 0.950 . S
H5989 C6013 0.951 . S
H5990 C6015 0.951 . S
H5991 C6017 0.950 . S
H5992 C6018 0.950 . S
H5993 C6020 0.950 . S
H5994 C6023 0.950 . S
H5995 C6024 0.950 . S
H5996 C6026 0.950 . S
H5997 C6027 0.950 . S
C5998 H5980 0.951 . S
C5998 C5999 1.366 . S
C5998 C6000 1.388 . S
C5999 C5998 1.366 . S
C5999 C6003 1.385 . S
C6000 H5981 0.951 . S
C6000 C5998 1.388 . S
C6000 C6001 1.366 . S
C6001 C6000 1.366 . S
C6001 C6002 1.414 . S
C6001 C6004 1.499 . S
C6002 H5982 0.950 . S
C6002 C6001 1.414 . S
C6002 C6003 1.374 . S
C6003 H5983 0.950 . S
C6003 C5999 1.385 . S
C6003 C6002 1.374 . S
C6004 C6001 1.499 . S
C6004 C6005 1.373 . S
C6004 C6006 1.389 . S
C6005 H5984 0.950 . S
C6005 C6004 1.373 . S
C6005 C6021 1.377 . S
C6006 C6004 1.389 . S
C6006 C6007 1.524 . S
C6006 C6020 1.377 . S
C6007 C6006 1.524 . S
C6007 C6008 1.397 . S
C6007 C6012 1.363 . S
C6008 H5985 0.950 . S
C6008 C6007 1.397 . S
C6008 C6009 1.334 . S
C6009 H5986 0.950 . S
C6009 C6008 1.334 . S
C6009 C6010 1.287 . S
C6010 C6009 1.287 . S
C6010 C6011 1.524 . S
C6010 H6029 0.913 . S
C6011 H5987 0.950 . S
C6011 C6010 1.524 . S
C6011 C6012 1.415 . S
C6012 H5988 0.950 . S
C6012 C6007 1.363 . S
C6012 C6011 1.415 . S
C6013 H5989 0.951 . S
C6013 C6014 1.366 . S
C6013 C6015 1.388 . S
C6014 C6013 1.366 . S
C6014 C6018 1.385 . S
C6015 H5990 0.951 . S
C6015 C6013 1.388 . S
C6015 C6016 1.366 . S
C6016 C6015 1.366 . S
C6016 C6017 1.414 . S
C6016 C6019 1.499 . S
C6017 H5991 0.950 . S
C6017 C6016 1.414 . S
C6017 C6018 1.374 . S
C6018 H5992 0.950 . S
C6018 C6014 1.385 . S
C6018 C6017 1.374 . S
C6019 C6016 1.499 . S
C6019 C6020 1.373 . S
C6019 C6021 1.389 . S
C6020 H5993 0.950 . S
C6020 C6006 1.377 . S
C6020 C6019 1.373 . S
C6021 C6005 1.377 . S
C6021 C6019 1.389 . S
C6021 C6022 1.524 . S
C6022 C6021 1.524 . S
C6022 C6023 1.397 . S
C6022 C6027 1.363 . S
C6023 H5994 0.950 . S
C6023 C6022 1.397 . S
C6023 C6024 1.334 . S
C6024 H5995 0.950 . S
C6024 C6023 1.334 . S
C6024 C6025 1.287 . S
C6025 C6024 1.287 . S
C6025 C6026 1.524 . S
C6025 H6028 0.999 . S
C6026 H5996 0.950 . S
C6026 C6025 1.524 . S
C6026 C6027 1.415 . S
C6027 H5997 0.950 . S
C6027 C6022 1.363 . S
C6027 C6026 1.415 . S
H6028 C6025 0.999 . S
H6029 C6010 0.913 . S
H6030 C6048 0.951 . S
H6031 C6050 0.951 . S
H6032 C6052 0.950 . S
H6033 C6053 0.950 . S
H6034 C6055 0.950 . S
H6035 C6058 0.950 . S
H6036 C6059 0.950 . S
H6037 C6061 0.950 . S
H6038 C6062 0.950 . S
H6039 C6063 0.951 . S
H6040 C6065 0.951 . S
H6041 C6067 0.950 . S
H6042 C6068 0.950 . S
H6043 C6070 0.950 . S
H6044 C6073 0.950 . S
H6045 C6074 0.950 . S
H6046 C6076 0.950 . S
H6047 C6077 0.950 . S
C6048 H6030 0.951 . S
C6048 C6049 1.366 . S
C6048 C6050 1.388 . S
C6049 C6048 1.366 . S
C6049 C6053 1.385 . S
C6050 H6031 0.951 . S
C6050 C6048 1.388 . S
C6050 C6051 1.366 . S
C6051 C6050 1.366 . S
C6051 C6052 1.414 . S
C6051 C6054 1.499 . S
C6052 H6032 0.950 . S
C6052 C6051 1.414 . S
C6052 C6053 1.374 . S
C6053 H6033 0.950 . S
C6053 C6049 1.385 . S
C6053 C6052 1.374 . S
C6054 C6051 1.499 . S
C6054 C6055 1.373 . S
C6054 C6056 1.389 . S
C6055 H6034 0.950 . S
C6055 C6054 1.373 . S
C6055 C6071 1.377 . S
C6056 C6054 1.389 . S
C6056 C6057 1.524 . S
C6056 C6070 1.377 . S
C6057 C6056 1.524 . S
C6057 C6058 1.397 . S
C6057 C6062 1.363 . S
C6058 H6035 0.950 . S
C6058 C6057 1.397 . S
C6058 C6059 1.334 . S
C6059 H6036 0.950 . S
C6059 C6058 1.334 . S
C6059 C6060 1.287 . S
C6060 C6059 1.287 . S
C6060 C6061 1.524 . S
C6060 H6079 0.913 . S
C6061 H6037 0.950 . S
C6061 C6060 1.524 . S
C6061 C6062 1.415 . S
C6062 H6038 0.950 . S
C6062 C6057 1.363 . S
C6062 C6061 1.415 . S
C6063 H6039 0.951 . S
C6063 C6064 1.366 . S
C6063 C6065 1.388 . S
C6064 C6063 1.366 . S
C6064 C6068 1.385 . S
C6065 H6040 0.951 . S
C6065 C6063 1.388 . S
C6065 C6066 1.366 . S
C6066 C6065 1.366 . S
C6066 C6067 1.414 . S
C6066 C6069 1.499 . S
C6067 H6041 0.950 . S
C6067 C6066 1.414 . S
C6067 C6068 1.374 . S
C6068 H6042 0.950 . S
C6068 C6064 1.385 . S
C6068 C6067 1.374 . S
C6069 C6066 1.499 . S
C6069 C6070 1.373 . S
C6069 C6071 1.389 . S
C6070 H6043 0.950 . S
C6070 C6056 1.377 . S
C6070 C6069 1.373 . S
C6071 C6055 1.377 . S
C6071 C6069 1.389 . S
C6071 C6072 1.524 . S
C6072 C6071 1.524 . S
C6072 C6073 1.397 . S
C6072 C6077 1.363 . S
C6073 H6044 0.950 . S
C6073 C6072 1.397 . S
C6073 C6074 1.334 . S
C6074 H6045 0.950 . S
C6074 C6073 1.334 . S
C6074 C6075 1.287 . S
C6075 C6074 1.287 . S
C6075 C6076 1.524 . S
C6075 H6078 0.999 . S
C6076 H6046 0.950 . S
C6076 C6075 1.524 . S
C6076 C6077 1.415 . S
C6077 H6047 0.950 . S
C6077 C6072 1.363 . S
C6077 C6076 1.415 . S
H6078 C6075 0.999 . S
H6079 C6060 0.913 . S
H6080 C6098 0.951 . S
H6081 C6100 0.951 . S
H6082 C6102 0.950 . S
H6083 C6103 0.950 . S
H6084 C6105 0.950 . S
H6085 C6108 0.950 . S
H6086 C6109 0.950 . S
H6087 C6111 0.950 . S
H6088 C6112 0.950 . S
H6089 C6113 0.951 . S
H6090 C6115 0.951 . S
H6091 C6117 0.950 . S
H6092 C6118 0.950 . S
H6093 C6120 0.950 . S
H6094 C6123 0.950 . S
H6095 C6124 0.950 . S
H6096 C6126 0.950 . S
H6097 C6127 0.950 . S
C6098 H6080 0.951 . S
C6098 C6099 1.366 . S
C6098 C6100 1.388 . S
C6099 C6098 1.366 . S
C6099 C6103 1.385 . S
C6100 H6081 0.951 . S
C6100 C6098 1.388 . S
C6100 C6101 1.366 . S
C6101 C6100 1.366 . S
C6101 C6102 1.414 . S
C6101 C6104 1.499 . S
C6102 H6082 0.950 . S
C6102 C6101 1.414 . S
C6102 C6103 1.374 . S
C6103 H6083 0.950 . S
C6103 C6099 1.385 . S
C6103 C6102 1.374 . S
C6104 C6101 1.499 . S
C6104 C6105 1.373 . S
C6104 C6106 1.389 . S
C6105 H6084 0.950 . S
C6105 C6104 1.373 . S
C6105 C6121 1.377 . S
C6106 C6104 1.389 . S
C6106 C6107 1.524 . S
C6106 C6120 1.377 . S
C6107 C6106 1.524 . S
C6107 C6108 1.397 . S
C6107 C6112 1.363 . S
C6108 H6085 0.950 . S
C6108 C6107 1.397 . S
C6108 C6109 1.334 . S
C6109 H6086 0.950 . S
C6109 C6108 1.334 . S
C6109 C6110 1.287 . S
C6110 C6109 1.287 . S
C6110 C6111 1.524 . S
C6110 H6129 0.913 . S
C6111 H6087 0.950 . S
C6111 C6110 1.524 . S
C6111 C6112 1.415 . S
C6112 H6088 0.950 . S
C6112 C6107 1.363 . S
C6112 C6111 1.415 . S
C6113 H6089 0.951 . S
C6113 C6114 1.366 . S
C6113 C6115 1.388 . S
C6114 C6113 1.366 . S
C6114 C6118 1.385 . S
C6115 H6090 0.951 . S
C6115 C6113 1.388 . S
C6115 C6116 1.366 . S
C6116 C6115 1.366 . S
C6116 C6117 1.414 . S
C6116 C6119 1.499 . S
C6117 H6091 0.950 . S
C6117 C6116 1.414 . S
C6117 C6118 1.374 . S
C6118 H6092 0.950 . S
C6118 C6114 1.385 . S
C6118 C6117 1.374 . S
C6119 C6116 1.499 . S
C6119 C6120 1.373 . S
C6119 C6121 1.389 . S
C6120 H6093 0.950 . S
C6120 C6106 1.377 . S
C6120 C6119 1.373 . S
C6121 C6105 1.377 . S
C6121 C6119 1.389 . S
C6121 C6122 1.524 . S
C6122 C6121 1.524 . S
C6122 C6123 1.397 . S
C6122 C6127 1.363 . S
C6123 H6094 0.950 . S
C6123 C6122 1.397 . S
C6123 C6124 1.334 . S
C6124 H6095 0.950 . S
C6124 C6123 1.334 . S
C6124 C6125 1.287 . S
C6125 C6124 1.287 . S
C6125 C6126 1.524 . S
C6125 H6128 0.999 . S
C6126 H6096 0.950 . S
C6126 C6125 1.524 . S
C6126 C6127 1.415 . S
C6127 H6097 0.950 . S
C6127 C6122 1.363 . S
C6127 C6126 1.415 . S
H6128 C6125 0.999 . S
H6129 C6110 0.913 . S
H6130 C6148 0.951 . S
H6131 C6150 0.951 . S
H6132 C6152 0.950 . S
H6133 C6153 0.950 . S
H6134 C6155 0.950 . S
H6135 C6158 0.950 . S
H6136 C6159 0.950 . S
H6137 C6161 0.950 . S
H6138 C6162 0.950 . S
H6139 C6163 0.958 . S
H6140 C6165 0.951 . S
H6141 C6167 0.950 . S
H6142 C6168 0.950 . S
H6143 C6170 0.950 . S
H6144 C6173 0.950 . S
H6145 C6174 0.950 . S
H6146 C6176 0.950 . S
H6147 C6177 0.950 . S
C6148 H6130 0.951 . S
C6148 C6149 1.366 . S
C6148 C6150 1.388 . S
C6149 C6148 1.366 . S
C6149 C6153 1.385 . S
C6150 H6131 0.951 . S
C6150 C6148 1.388 . S
C6150 C6151 1.366 . S
C6151 C6150 1.366 . S
C6151 C6152 1.414 . S
C6151 C6154 1.499 . S
C6152 H6132 0.950 . S
C6152 C6151 1.414 . S
C6152 C6153 1.374 . S
C6153 H6133 0.950 . S
C6153 C6149 1.385 . S
C6153 C6152 1.374 . S
C6154 C6151 1.499 . S
C6154 C6155 1.373 . S
C6154 C6156 1.389 . S
C6155 H6134 0.950 . S
C6155 C6154 1.373 . S
C6155 C6171 1.377 . S
C6156 C6154 1.389 . S
C6156 C6157 1.524 . S
C6156 C6170 1.377 . S
C6157 C6156 1.524 . S
C6157 C6158 1.397 . S
C6157 C6162 1.363 . S
C6158 H6135 0.950 . S
C6158 C6157 1.397 . S
C6158 C6159 1.334 . S
C6159 H6136 0.950 . S
C6159 C6158 1.334 . S
C6159 C6160 1.287 . S
C6160 C6159 1.287 . S
C6160 C6161 1.524 . S
C6160 H6179 0.913 . S
C6161 H6137 0.950 . S
C6161 C6160 1.524 . S
C6161 C6162 1.415 . S
C6162 H6138 0.950 . S
C6162 C6157 1.363 . S
C6162 C6161 1.415 . S
C6163 H6139 0.958 . S
C6163 C6164 1.362 1_545 S
C6163 C6165 1.385 1_545 S
C6164 C6163 1.362 1_565 S
C6164 C6168 1.385 . S
C6165 H6140 0.951 . S
C6165 C6163 1.385 1_565 S
C6165 C6166 1.366 . S
C6166 C6165 1.366 . S
C6166 C6167 1.414 . S
C6166 C6169 1.499 . S
C6167 H6141 0.950 . S
C6167 C6166 1.414 . S
C6167 C6168 1.374 . S
C6168 H6142 0.950 . S
C6168 C6164 1.385 . S
C6168 C6167 1.374 . S
C6169 C6166 1.499 . S
C6169 C6170 1.373 . S
C6169 C6171 1.389 . S
C6170 H6143 0.950 . S
C6170 C6156 1.377 . S
C6170 C6169 1.373 . S
C6171 C6155 1.377 . S
C6171 C6169 1.389 . S
C6171 C6172 1.524 . S
C6172 C6171 1.524 . S
C6172 C6173 1.397 . S
C6172 C6177 1.363 . S
C6173 H6144 0.950 . S
C6173 C6172 1.397 . S
C6173 C6174 1.334 . S
C6174 H6145 0.950 . S
C6174 C6173 1.334 . S
C6174 C6175 1.287 . S
C6175 C6174 1.287 . S
C6175 C6176 1.524 . S
C6175 H6178 0.999 . S
C6176 H6146 0.950 . S
C6176 C6175 1.524 . S
C6176 C6177 1.415 . S
C6177 H6147 0.950 . S
C6177 C6172 1.363 . S
C6177 C6176 1.415 . S
H6178 C6175 0.999 . S
H6179 C6160 0.913 . S
H6180 C6198 0.951 . S
H6181 C6200 0.951 . S
H6182 C6202 0.950 . S
H6183 C6203 0.950 . S
H6184 C6205 0.950 . S
H6185 C6208 0.950 . S
H6186 C6209 0.950 . S
H6187 C6211 0.950 . S
H6188 C6212 0.950 . S
H6189 C6213 0.951 . S
H6190 C6215 0.951 . S
H6191 C6217 0.950 . S
H6192 C6218 0.950 . S
H6193 C6220 0.950 . S
H6194 C6223 0.950 . S
H6195 C6224 0.950 . S
H6196 C6226 0.950 . S
H6197 C6227 0.950 . S
C6198 H6180 0.951 . S
C6198 C6199 1.366 . S
C6198 C6200 1.388 . S
C6199 C6198 1.366 . S
C6199 C6203 1.385 . S
C6200 H6181 0.951 . S
C6200 C6198 1.388 . S
C6200 C6201 1.366 . S
C6201 C6200 1.366 . S
C6201 C6202 1.414 . S
C6201 C6204 1.499 . S
C6202 H6182 0.950 . S
C6202 C6201 1.414 . S
C6202 C6203 1.374 . S
C6203 H6183 0.950 . S
C6203 C6199 1.385 . S
C6203 C6202 1.374 . S
C6204 C6201 1.499 . S
C6204 C6205 1.373 . S
C6204 C6206 1.389 . S
C6205 H6184 0.950 . S
C6205 C6204 1.373 . S
C6205 C6221 1.377 . S
C6206 C6204 1.389 . S
C6206 C6207 1.524 . S
C6206 C6220 1.377 . S
C6207 C6206 1.524 . S
C6207 C6208 1.397 . S
C6207 C6212 1.363 . S
C6208 H6185 0.950 . S
C6208 C6207 1.397 . S
C6208 C6209 1.334 . S
C6209 H6186 0.950 . S
C6209 C6208 1.334 . S
C6209 C6210 1.287 . S
C6210 C6209 1.287 . S
C6210 C6211 1.524 . S
C6210 H6229 0.913 . S
C6211 H6187 0.950 . S
C6211 C6210 1.524 . S
C6211 C6212 1.415 . S
C6212 H6188 0.950 . S
C6212 C6207 1.363 . S
C6212 C6211 1.415 . S
C6213 H6189 0.951 . S
C6213 C6214 1.366 . S
C6213 C6215 1.388 . S
C6214 C6213 1.366 . S
C6214 C6218 1.385 . S
C6215 H6190 0.951 . S
C6215 C6213 1.388 . S
C6215 C6216 1.366 . S
C6216 C6215 1.366 . S
C6216 C6217 1.414 . S
C6216 C6219 1.499 . S
C6217 H6191 0.950 . S
C6217 C6216 1.414 . S
C6217 C6218 1.374 . S
C6218 H6192 0.950 . S
C6218 C6214 1.385 . S
C6218 C6217 1.374 . S
C6219 C6216 1.499 . S
C6219 C6220 1.373 . S
C6219 C6221 1.389 . S
C6220 H6193 0.950 . S
C6220 C6206 1.377 . S
C6220 C6219 1.373 . S
C6221 C6205 1.377 . S
C6221 C6219 1.389 . S
C6221 C6222 1.524 . S
C6222 C6221 1.524 . S
C6222 C6223 1.397 . S
C6222 C6227 1.363 . S
C6223 H6194 0.950 . S
C6223 C6222 1.397 . S
C6223 C6224 1.334 . S
C6224 H6195 0.950 . S
C6224 C6223 1.334 . S
C6224 C6225 1.287 . S
C6225 C6224 1.287 . S
C6225 C6226 1.524 . S
C6225 H6228 0.999 . S
C6226 H6196 0.950 . S
C6226 C6225 1.524 . S
C6226 C6227 1.415 . S
C6227 H6197 0.950 . S
C6227 C6222 1.363 . S
C6227 C6226 1.415 . S
H6228 C6225 0.999 . S
H6229 C6210 0.913 . S
H6230 C6248 0.951 . S
H6231 C6250 0.951 . S
H6232 C6252 0.950 . S
H6233 C6253 0.950 . S
H6234 C6255 0.950 . S
H6235 C6258 0.950 . S
H6236 C6259 0.950 . S
H6237 C6261 0.950 1_556 S
H6238 C6262 0.914 1_556 S
H6239 C6263 0.951 . S
H6240 C6265 0.951 . S
H6241 C6267 0.950 . S
H6242 C6268 0.950 1_556 S
H6243 C6270 0.950 . S
H6244 C6273 0.950 . S
H6245 C6274 0.950 1_565 S
H6246 C6276 0.950 . S
H6247 C6277 0.950 . S
C6248 H6230 0.951 . S
C6248 C6249 1.366 . S
C6248 C6250 1.388 . S
C6249 C6248 1.366 . S
C6249 C6253 1.385 . S
C6250 H6231 0.951 . S
C6250 C6248 1.388 . S
C6250 C6251 1.366 . S
C6251 C6250 1.366 . S
C6251 C6252 1.414 . S
C6251 C6254 1.499 . S
C6252 H6232 0.950 . S
C6252 C6251 1.414 . S
C6252 C6253 1.374 . S
C6253 H6233 0.950 . S
C6253 C6249 1.385 . S
C6253 C6252 1.374 . S
C6254 C6251 1.499 . S
C6254 C6255 1.373 . S
C6254 C6256 1.389 . S
C6255 H6234 0.950 . S
C6255 C6254 1.373 . S
C6255 C6271 1.377 . S
C6256 C6254 1.389 . S
C6256 C6257 1.524 . S
C6256 C6270 1.377 . S
C6257 C6256 1.524 . S
C6257 C6258 1.397 . S
C6257 C6262 1.363 . S
C6258 H6235 0.950 . S
C6258 C6257 1.397 . S
C6258 C6259 1.334 . S
C6259 H6236 0.950 . S
C6259 C6258 1.334 . S
C6259 C6260 1.287 . S
C6260 C6259 1.287 . S
C6260 C6261 1.524 . S
C6260 H6279 0.913 . S
C6261 H6237 0.950 1_554 S
C6261 C6260 1.524 . S
C6261 C6262 1.415 . S
C6262 H6238 0.914 1_554 S
C6262 C6257 1.363 . S
C6262 C6261 1.415 . S
C6263 H6239 0.951 . S
C6263 C6264 1.366 . S
C6263 C6265 1.388 . S
C6264 C6263 1.366 . S
C6264 C6268 1.385 . S
C6265 H6240 0.951 . S
C6265 C6263 1.388 . S
C6265 C6266 1.366 . S
C6266 C6265 1.366 . S
C6266 C6267 1.414 . S
C6266 C6269 1.499 . S
C6267 H6241 0.950 . S
C6267 C6266 1.414 . S
C6267 C6268 1.374 . S
C6268 H6242 0.950 1_554 S
C6268 C6264 1.385 . S
C6268 C6267 1.374 . S
C6269 C6266 1.499 . S
C6269 C6270 1.373 . S
C6269 C6271 1.389 . S
C6270 H6243 0.950 . S
C6270 C6256 1.377 . S
C6270 C6269 1.373 . S
C6271 C6255 1.377 . S
C6271 C6269 1.389 . S
C6271 C6272 1.524 . S
C6272 C6271 1.524 . S
C6272 C6273 1.397 . S
C6272 C6277 1.363 . S
C6273 H6244 0.950 . S
C6273 C6272 1.397 . S
C6273 C6274 1.334 . S
C6274 H6245 0.950 1_545 S
C6274 C6273 1.334 . S
C6274 C6275 1.287 . S
C6275 C6274 1.287 . S
C6275 C6276 1.524 . S
C6275 H6278 0.999 1_545 S
C6276 H6246 0.950 . S
C6276 C6275 1.524 . S
C6276 C6277 1.415 . S
C6277 H6247 0.950 . S
C6277 C6272 1.363 . S
C6277 C6276 1.415 . S
H6278 C6275 0.999 1_565 S
H6279 C6260 0.913 . S
H6280 C6298 0.951 . S
H6281 C6300 0.951 . S
H6282 C6302 0.950 . S
H6283 C6303 0.950 . S
H6284 C6305 0.950 . S
H6285 C6308 0.950 . S
H6286 C6309 0.950 . S
H6287 C6311 0.950 . S
H6288 C6312 0.950 . S
H6289 C6313 0.951 . S
H6290 C6315 0.951 . S
H6291 C6317 0.950 . S
H6292 C6318 0.950 . S
H6293 C6320 0.950 . S
H6294 C6323 0.950 . S
H6295 C6324 0.950 . S
H6296 C6326 0.950 . S
H6297 C6327 0.950 . S
C6298 H6280 0.951 . S
C6298 C6299 1.366 . S
C6298 C6300 1.388 . S
C6299 C6298 1.366 . S
C6299 C6303 1.385 . S
C6300 H6281 0.951 . S
C6300 C6298 1.388 . S
C6300 C6301 1.366 . S
C6301 C6300 1.366 . S
C6301 C6302 1.414 . S
C6301 C6304 1.499 . S
C6302 H6282 0.950 . S
C6302 C6301 1.414 . S
C6302 C6303 1.374 . S
C6303 H6283 0.950 . S
C6303 C6299 1.385 . S
C6303 C6302 1.374 . S
C6304 C6301 1.499 . S
C6304 C6305 1.373 . S
C6304 C6306 1.389 . S
C6305 H6284 0.950 . S
C6305 C6304 1.373 . S
C6305 C6321 1.377 . S
C6306 C6304 1.389 . S
C6306 C6307 1.524 . S
C6306 C6320 1.377 . S
C6307 C6306 1.524 . S
C6307 C6308 1.397 . S
C6307 C6312 1.363 . S
C6308 H6285 0.950 . S
C6308 C6307 1.397 . S
C6308 C6309 1.334 . S
C6309 H6286 0.950 . S
C6309 C6308 1.334 . S
C6309 C6310 1.287 . S
C6310 C6309 1.287 . S
C6310 C6311 1.524 . S
C6310 H6329 0.913 . S
C6311 H6287 0.950 . S
C6311 C6310 1.524 . S
C6311 C6312 1.415 . S
C6312 H6288 0.950 . S
C6312 C6307 1.363 . S
C6312 C6311 1.415 . S
C6313 H6289 0.951 . S
C6313 C6314 1.366 . S
C6313 C6315 1.388 . S
C6314 C6313 1.366 . S
C6314 C6318 1.385 . S
C6315 H6290 0.951 . S
C6315 C6313 1.388 . S
C6315 C6316 1.366 . S
C6316 C6315 1.366 . S
C6316 C6317 1.414 . S
C6316 C6319 1.499 . S
C6317 H6291 0.950 . S
C6317 C6316 1.414 . S
C6317 C6318 1.374 . S
C6318 H6292 0.950 . S
C6318 C6314 1.385 . S
C6318 C6317 1.374 . S
C6319 C6316 1.499 . S
C6319 C6320 1.373 . S
C6319 C6321 1.389 . S
C6320 H6293 0.950 . S
C6320 C6306 1.377 . S
C6320 C6319 1.373 . S
C6321 C6305 1.377 . S
C6321 C6319 1.389 . S
C6321 C6322 1.524 . S
C6322 C6321 1.524 . S
C6322 C6323 1.397 . S
C6322 C6327 1.363 . S
C6323 H6294 0.950 . S
C6323 C6322 1.397 . S
C6323 C6324 1.334 . S
C6324 H6295 0.950 . S
C6324 C6323 1.334 . S
C6324 C6325 1.287 . S
C6325 C6324 1.287 . S
C6325 C6326 1.524 . S
C6325 H6328 0.999 . S
C6326 H6296 0.950 . S
C6326 C6325 1.524 . S
C6326 C6327 1.415 . S
C6327 H6297 0.950 . S
C6327 C6322 1.363 . S
C6327 C6326 1.415 . S
H6328 C6325 0.999 . S
H6329 C6310 0.913 . S
H6330 C6348 0.951 . S
H6331 C6350 0.951 . S
H6332 C6352 0.950 . S
H6333 C6353 0.950 . S
H6334 C6355 0.988 . S
H6335 C6358 0.950 . S
H6336 C6359 0.950 . S
H6337 C6361 0.950 . S
H6338 C6362 0.950 . S
H6339 C6363 0.951 1_556 S
H6340 C6365 0.952 . S
H6341 C6367 0.950 . S
H6342 C6368 0.950 . S
H6343 C6370 0.950 . S
H6344 C6373 0.914 1_554 S
H6345 C6374 0.950 . S
H6346 C6376 0.950 . S
H6347 C6377 0.950 . S
C6348 H6330 0.951 . S
C6348 C6349 1.366 . S
C6348 C6350 1.388 . S
C6349 C6348 1.366 . S
C6349 C6353 1.385 . S
C6350 H6331 0.951 . S
C6350 C6348 1.388 . S
C6350 C6351 1.366 . S
C6351 C6350 1.366 . S
C6351 C6352 1.414 . S
C6351 C6354 1.499 . S
C6352 H6332 0.950 . S
C6352 C6351 1.414 . S
C6352 C6353 1.374 . S
C6353 H6333 0.950 . S
C6353 C6349 1.385 . S
C6353 C6352 1.374 . S
C6354 C6351 1.499 . S
C6354 C6355 1.373 . S
C6354 C6356 1.389 . S
C6355 H6334 0.988 . S
C6355 C6354 1.373 . S
C6355 C6371 1.377 . S
C6356 C6354 1.389 . S
C6356 C6357 1.524 . S
C6356 C6370 1.377 . S
C6357 C6356 1.524 . S
C6357 C6358 1.397 . S
C6357 C6362 1.363 . S
C6358 H6335 0.950 . S
C6358 C6357 1.397 . S
C6358 C6359 1.334 . S
C6359 H6336 0.950 . S
C6359 C6358 1.334 . S
C6359 C6360 1.287 . S
C6360 C6359 1.287 . S
C6360 C6361 1.524 . S
C6360 H6379 0.913 . S
C6361 H6337 0.950 . S
C6361 C6360 1.524 . S
C6361 C6362 1.415 . S
C6362 H6338 0.950 . S
C6362 C6357 1.363 . S
C6362 C6361 1.415 . S
C6363 H6339 0.951 1_554 S
C6363 C6364 1.366 . S
C6363 C6365 1.388 . S
C6364 C6363 1.366 . S
C6364 C6368 1.385 . S
C6365 H6340 0.952 . S
C6365 C6363 1.388 . S
C6365 C6366 1.366 . S
C6366 C6365 1.366 . S
C6366 C6367 1.414 . S
C6366 C6369 1.499 . S
C6367 H6341 0.950 . S
C6367 C6366 1.414 . S
C6367 C6368 1.374 . S
C6368 H6342 0.950 . S
C6368 C6364 1.385 . S
C6368 C6367 1.374 . S
C6369 C6366 1.499 . S
C6369 C6370 1.373 . S
C6369 C6371 1.389 . S
C6370 H6343 0.950 . S
C6370 C6356 1.377 . S
C6370 C6369 1.373 . S
C6371 C6355 1.377 . S
C6371 C6369 1.389 . S
C6371 C6372 1.524 1_554 S
C6372 C6371 1.524 1_556 S
C6372 C6373 1.397 . S
C6372 C6377 1.363 . S
C6373 H6344 0.914 1_556 S
C6373 C6372 1.397 . S
C6373 C6374 1.334 . S
C6374 H6345 0.950 . S
C6374 C6373 1.334 . S
C6374 C6375 1.287 . S
C6375 C6374 1.287 . S
C6375 C6376 1.524 . S
C6375 H6378 0.999 . S
C6376 H6346 0.950 . S
C6376 C6375 1.524 . S
C6376 C6377 1.415 . S
C6377 H6347 0.950 . S
C6377 C6372 1.363 . S
C6377 C6376 1.415 . S
H6378 C6375 0.999 . S
H6379 C6360 0.913 . S
H6380 C6398 0.951 . S
H6381 C6400 0.951 . S
H6382 C6402 0.950 . S
H6383 C6403 0.950 . S
H6384 C6405 0.950 . S
H6385 C6408 0.950 . S
H6386 C6409 0.950 . S
H6387 C6411 0.950 . S
H6388 C6412 0.950 . S
H6389 C6413 0.951 . S
H6390 C6415 0.951 . S
H6391 C6417 0.950 . S
H6392 C6418 0.950 . S
H6393 C6420 0.950 . S
H6394 C6423 0.950 . S
H6395 C6424 0.950 . S
H6396 C6426 0.950 . S
H6397 C6427 0.950 . S
C6398 H6380 0.951 . S
C6398 C6399 1.366 . S
C6398 C6400 1.388 . S
C6399 C6398 1.366 . S
C6399 C6403 1.385 . S
C6400 H6381 0.951 . S
C6400 C6398 1.388 . S
C6400 C6401 1.366 . S
C6401 C6400 1.366 . S
C6401 C6402 1.414 . S
C6401 C6404 1.499 . S
C6402 H6382 0.950 . S
C6402 C6401 1.414 . S
C6402 C6403 1.374 . S
C6403 H6383 0.950 . S
C6403 C6399 1.385 . S
C6403 C6402 1.374 . S
C6404 C6401 1.499 . S
C6404 C6405 1.373 . S
C6404 C6406 1.389 . S
C6405 H6384 0.950 . S
C6405 C6404 1.373 . S
C6405 C6421 1.377 . S
C6406 C6404 1.389 . S
C6406 C6407 1.524 . S
C6406 C6420 1.377 . S
C6407 C6406 1.524 . S
C6407 C6408 1.397 . S
C6407 C6412 1.363 . S
C6408 H6385 0.950 . S
C6408 C6407 1.397 . S
C6408 C6409 1.334 . S
C6409 H6386 0.950 . S
C6409 C6408 1.334 . S
C6409 C6410 1.287 . S
C6410 C6409 1.287 . S
C6410 C6411 1.524 . S
C6410 H6429 0.913 . S
C6411 H6387 0.950 . S
C6411 C6410 1.524 . S
C6411 C6412 1.415 . S
C6412 H6388 0.950 . S
C6412 C6407 1.363 . S
C6412 C6411 1.415 . S
C6413 H6389 0.951 . S
C6413 C6414 1.366 . S
C6413 C6415 1.388 . S
C6414 C6413 1.366 . S
C6414 C6418 1.385 . S
C6415 H6390 0.951 . S
C6415 C6413 1.388 . S
C6415 C6416 1.366 . S
C6416 C6415 1.366 . S
C6416 C6417 1.414 . S
C6416 C6419 1.499 . S
C6417 H6391 0.950 . S
C6417 C6416 1.414 . S
C6417 C6418 1.374 . S
C6418 H6392 0.950 . S
C6418 C6414 1.385 . S
C6418 C6417 1.374 . S
C6419 C6416 1.499 . S
C6419 C6420 1.373 . S
C6419 C6421 1.389 . S
C6420 H6393 0.950 . S
C6420 C6406 1.377 . S
C6420 C6419 1.373 . S
C6421 C6405 1.377 . S
C6421 C6419 1.389 . S
C6421 C6422 1.524 . S
C6422 C6421 1.524 . S
C6422 C6423 1.397 . S
C6422 C6427 1.363 . S
C6423 H6394 0.950 . S
C6423 C6422 1.397 . S
C6423 C6424 1.334 . S
C6424 H6395 0.950 . S
C6424 C6423 1.334 . S
C6424 C6425 1.287 . S
C6425 C6424 1.287 . S
C6425 C6426 1.524 . S
C6425 H6428 0.999 . S
C6426 H6396 0.950 . S
C6426 C6425 1.524 . S
C6426 C6427 1.415 . S
C6427 H6397 0.950 . S
C6427 C6422 1.363 . S
C6427 C6426 1.415 . S
H6428 C6425 0.999 . S
H6429 C6410 0.913 . S
H6430 C6448 0.951 . S
H6431 C6450 0.951 . S
H6432 C6452 0.950 . S
H6433 C6453 0.950 . S
H6434 C6455 0.950 . S
H6435 C6458 0.950 . S
H6436 C6459 0.950 . S
H6437 C6461 0.950 . S
H6438 C6462 0.950 . S
H6439 C6463 0.951 . S
H6440 C6465 0.951 . S
H6441 C6467 0.950 . S
H6442 C6468 0.950 . S
H6443 C6470 0.950 . S
H6444 C6473 0.950 . S
H6445 C6474 0.950 . S
H6446 C6476 0.950 . S
H6447 C6477 0.950 . S
C6448 H6430 0.951 . S
C6448 C6449 1.366 . S
C6448 C6450 1.388 . S
C6449 C6448 1.366 . S
C6449 C6453 1.385 . S
C6450 H6431 0.951 . S
C6450 C6448 1.388 . S
C6450 C6451 1.366 . S
C6451 C6450 1.366 . S
C6451 C6452 1.414 . S
C6451 C6454 1.499 . S
C6452 H6432 0.950 . S
C6452 C6451 1.414 . S
C6452 C6453 1.374 . S
C6453 H6433 0.950 . S
C6453 C6449 1.385 . S
C6453 C6452 1.374 . S
C6454 C6451 1.499 . S
C6454 C6455 1.373 . S
C6454 C6456 1.389 . S
C6455 H6434 0.950 . S
C6455 C6454 1.373 . S
C6455 C6471 1.377 . S
C6456 C6454 1.389 . S
C6456 C6457 1.524 . S
C6456 C6470 1.377 . S
C6457 C6456 1.524 . S
C6457 C6458 1.397 . S
C6457 C6462 1.363 . S
C6458 H6435 0.950 . S
C6458 C6457 1.397 . S
C6458 C6459 1.334 . S
C6459 H6436 0.950 . S
C6459 C6458 1.334 . S
C6459 C6460 1.287 . S
C6460 C6459 1.287 . S
C6460 C6461 1.524 . S
C6460 H6479 0.913 . S
C6461 H6437 0.950 . S
C6461 C6460 1.524 . S
C6461 C6462 1.415 . S
C6462 H6438 0.950 . S
C6462 C6457 1.363 . S
C6462 C6461 1.415 . S
C6463 H6439 0.951 . S
C6463 C6464 1.366 . S
C6463 C6465 1.388 . S
C6464 C6463 1.366 . S
C6464 C6468 1.385 . S
C6465 H6440 0.951 . S
C6465 C6463 1.388 . S
C6465 C6466 1.366 . S
C6466 C6465 1.366 . S
C6466 C6467 1.414 . S
C6466 C6469 1.499 . S
C6467 H6441 0.950 . S
C6467 C6466 1.414 . S
C6467 C6468 1.374 . S
C6468 H6442 0.950 . S
C6468 C6464 1.385 . S
C6468 C6467 1.374 . S
C6469 C6466 1.499 . S
C6469 C6470 1.373 . S
C6469 C6471 1.389 . S
C6470 H6443 0.950 . S
C6470 C6456 1.377 . S
C6470 C6469 1.373 . S
C6471 C6455 1.377 . S
C6471 C6469 1.389 . S
C6471 C6472 1.524 . S
C6472 C6471 1.524 . S
C6472 C6473 1.397 . S
C6472 C6477 1.363 . S
C6473 H6444 0.950 . S
C6473 C6472 1.397 . S
C6473 C6474 1.334 . S
C6474 H6445 0.950 . S
C6474 C6473 1.334 . S
C6474 C6475 1.287 . S
C6475 C6474 1.287 . S
C6475 C6476 1.524 . S
C6475 H6478 0.999 . S
C6476 H6446 0.950 . S
C6476 C6475 1.524 . S
C6476 C6477 1.415 . S
C6477 H6447 0.950 . S
C6477 C6472 1.363 . S
C6477 C6476 1.415 . S
H6478 C6475 0.999 . S
H6479 C6460 0.913 . S
C1699 C109 1.928 1_455 S
C1714 C392 1.950 . S
C1749 C65 1.834 . S
C1764 C494 1.816 . S
C1799 C75 1.805 . S
C1814 C560 1.809 . S
C1864 C646 1.486 . S
C1849 C84 1.599 . S
C1899 C25 1.572 . S
C1914 C730 1.467 . S
C1964 C812 1.744 . S
C1949 C28 1.740 . S
C2014 C914 1.842 . S
C1999 C47 1.849 . S
C2049 C9 1.930 . S
C2064 C980 1.954 . S
C2114 C410 1.616 . S
C2099 C233 1.650 . S
C2149 C249 0.842 . S
C2164 C478 0.822 . S
C2214 C578 1.106 . S
C2199 C275 1.120 . S
C2264 C644 1.614 . S
C2249 C173 1.627 . S
C2299 C224 1.658 . S
C2314 C728 1.664 . S
C2364 C830 1.110 . S
C2349 C243 1.118 . S
C2414 C898 0.856 . S
C2399 C266 0.888 . S
C2464 C998 1.471 . S
C2449 C179 1.499 . S
C2514 C394 0.899 1_565 S
C2499 C163 0.931 . S
C2549 C289 1.672 . S
C2564 C1082 1.647 . S
C2614 C1150 1.251 . S
C2599 C333 1.321 . S
C2664 C1232 0.736 . S
C2649 C308 0.736 . S
C2699 C123 0.900 . S
C2714 C982 0.878 . S
C2749 C126 1.405 . S
C2764 C562 1.332 . S
C2799 C327 1.705 . S
C2814 C1334 1.686 . S
C2864 C1400 0.871 . S
C2849 C299 0.871 . S
C2914 C403 1.972 . S
C2899 C67 1.972 . S
C2964 C1407 1.858 . S
C2949 C98 1.840 . S
C2999 C89 1.843 . S
C3014 C571 1.848 . S
C3049 C79 1.659 . S
C3064 C1329 1.531 . S
C3114 C741 1.493 . S
C3099 C11 1.605 . S
C3149 C51 1.776 . S
C3164 C1159 1.793 . S
C3214 C903 1.900 1_556 S
C3199 C33 1.910 . S
C3264 C1495 1.967 . S
C3249 C14 1.970 . S
C3314 C399 1.615 . S
C3299 C140 1.656 . S
C3364 C1413 0.841 . S
C3349 C319 0.864 . S
C3399 C112 1.133 . S
C3414 C567 1.131 . S
C3449 C285 1.644 . S
C3464 C1327 1.643 . S
C3499 C149 1.708 . S
C3514 C739 1.712 . S
C3564 C1155 1.165 . S
C3549 C313 1.175 . S
C3599 C121 0.962 . S
C3614 C909 0.913 . S
C3649 C291 1.552 . S
C3664 C1491 1.519 . S
C3699 C182 0.933 . S
C3714 C405 0.899 . S
C3749 C168 1.680 . S
C3764 C1071 1.675 . S
C3799 C263 1.364 . S
C3814 C825 1.285 . S
C3849 C247 0.798 . S
C3864 C1243 0.798 . S
C3914 C1497 0.879 . S
C3899 C277 0.906 1_565 S
C3949 C219 1.450 . S
C3964 C573 1.355 . S
C4014 C651 1.735 . S
C3999 C257 1.756 . S
C4064 C487 0.887 . S
C4049 C201 0.888 . S
C4099 C81 1.941 . S
C4114 C1568 1.949 . S
C4164 C1418 1.816 . S
C4149 C93 1.834 . S
C4199 C103 1.805 . S
C4214 C1652 1.809 . S
C4249 C56 1.599 . S
C4264 C1318 1.485 . S
C4299 C53 1.572 . S
C4314 C1066 1.468 . S
C4364 C1148 1.745 . S
C4349 C0 1.741 1_655 S
C4414 C1250 1.842 . S
C4399 C19 1.849 . S
C4464 C1484 1.954 . S
C4449 C37 1.930 . S
C4514 C1586 1.616 . S
C4499 C261 1.650 . S
C4549 C193 0.841 1_556 S
C4564 C1402 0.821 . S
C4614 C1670 1.106 . S
C4599 C205 1.120 . S
C4664 C1316 1.614 . S
C4649 C215 1.615 . S
C4714 C1064 1.664 . S
C4699 C252 1.657 . S
C4749 C187 1.118 . S
C4764 C1166 1.109 . S
C4814 C1234 0.856 . S
C4799 C196 0.887 . S
C4849 C221 1.499 . S
C4864 C1502 1.471 . S
C4914 C1570 0.905 . S
C4899 C317 0.930 . S
C4949 C135 1.673 . S
C4964 C746 1.647 . S
C5014 C814 1.251 . S
C4999 C151 1.359 . S
C5064 C896 0.736 . S
C5049 C154 0.737 . S
C5114 C1486 0.878 . S
C5099 C305 0.899 . S
C5149 C280 1.404 . S
C5164 C1654 1.334 . S
C5214 C662 1.685 . S
C5199 C145 1.705 . S
C5264 C476 0.871 . S
C5249 C117 0.871 . S
C5299 C95 1.972 . S
C5314 C1579 1.973 . S
C5364 C483 1.858 . S
C5349 C70 1.840 . S
C5399 C61 1.843 . S
C5414 C1663 1.848 . S
C5449 C107 1.659 . S
C5464 C657 1.531 . S
C5499 C39 1.605 . S
C5514 C1077 1.493 . S
C5564 C823 1.794 . S
C5549 C23 1.776 . S
C5599 C5 1.909 . S
C5614 C1239 1.901 . S
C5649 C42 1.970 . S
C5664 C991 1.967 . S
C5714 C1575 1.615 . S
C5699 C322 1.656 . S
C5749 C165 0.863 . S
C5764 C489 0.833 . S
C5814 C1659 1.132 1_655 S
C5799 C294 1.133 . S
C5849 C131 1.644 . S
C5864 C655 1.643 . S
C5899 C331 1.708 . S
C5914 C1075 1.712 . S
C5964 C819 1.165 . S
C5949 C159 1.183 . S
C5999 C303 0.962 . S
C6014 C1245 0.912 . S
C6064 C987 1.520 . S
C6049 C137 1.552 . S
C6114 C1581 0.901 . S
C6099 C238 0.933 . S
C6164 C735 1.676 1_565 S
C6149 C210 1.680 . S
C6199 C235 1.364 . S
C6214 C1161 1.284 . S
C6264 C907 0.799 . S
C6249 C191 0.798 . S
C6299 C207 0.906 . S
C6314 C993 0.879 . S
C6349 C177 1.450 . S
C6364 C1665 1.355 . S
C6414 C1323 1.735 . S
C6399 C229 1.756 . S
C6464 C1411 0.887 . S
C6449 C271 0.887 . S
