# Generated by pormake.
# Topology fgl, (4,4)-cn, num edge types: 1
# Building blocks:
#     Node 0, Type 0, BuildingBlock: ESEHIV_clean_sbu_0, # of connection points: 4
#     Node 1, Type 0, BuildingBlock: ESEHIV_clean_sbu_0, # of connection points: 4
#     Node 2, Type 0, BuildingBlock: ESEHIV_clean_sbu_0, # of connection points: 4
#     Node 3, Type 0, BuildingBlock: ESEHIV_clean_sbu_0, # of connection points: 4
#     Node 4, Type 0, BuildingBlock: ESEHIV_clean_sbu_0, # of connection points: 4
#     Node 5, Type 0, BuildingBlock: ESEHIV_clean_sbu_0, # of connection points: 4
#     Node 6, Type 0, BuildingBlock: ESEHIV_clean_sbu_0, # of connection points: 4
#     Node 7, Type 0, BuildingBlock: ESEHIV_clean_sbu_0, # of connection points: 4
#     Node 8, Type 0, BuildingBlock: ESEHIV_clean_sbu_0, # of connection points: 4
#     Node 9, Type 0, BuildingBlock: ESEHIV_clean_sbu_0, # of connection points: 4
#     Node 10, Type 0, BuildingBlock: ESEHIV_clean_sbu_0, # of connection points: 4
#     Node 11, Type 0, BuildingBlock: ESEHIV_clean_sbu_0, # of connection points: 4
#     Node 12, Type 0, BuildingBlock: ESEHIV_clean_sbu_0, # of connection points: 4
#     Node 13, Type 0, BuildingBlock: ESEHIV_clean_sbu_0, # of connection points: 4
#     Node 14, Type 0, BuildingBlock: ESEHIV_clean_sbu_0, # of connection points: 4
#     Node 15, Type 0, BuildingBlock: ESEHIV_clean_sbu_0, # of connection points: 4
#     Node 16, Type 0, BuildingBlock: ESEHIV_clean_sbu_0, # of connection points: 4
#     Node 17, Type 0, BuildingBlock: ESEHIV_clean_sbu_0, # of connection points: 4
#     Node 18, Type 1, BuildingBlock: NAHDIM_clean_sbu_0, # of connection points: 4
#     Node 19, Type 1, BuildingBlock: NAHDIM_clean_sbu_0, # of connection points: 4
#     Node 20, Type 1, BuildingBlock: NAHDIM_clean_sbu_0, # of connection points: 4
#     Node 21, Type 1, BuildingBlock: NAHDIM_clean_sbu_0, # of connection points: 4
#     Node 22, Type 1, BuildingBlock: NAHDIM_clean_sbu_0, # of connection points: 4
#     Node 23, Type 1, BuildingBlock: NAHDIM_clean_sbu_0, # of connection points: 4
#     Node 24, Type 1, BuildingBlock: NAHDIM_clean_sbu_0, # of connection points: 4
#     Node 25, Type 1, BuildingBlock: NAHDIM_clean_sbu_0, # of connection points: 4
#     Node 26, Type 1, BuildingBlock: NAHDIM_clean_sbu_0, # of connection points: 4
#     Node 27, Type 1, BuildingBlock: NAHDIM_clean_sbu_0, # of connection points: 4
#     Node 28, Type 1, BuildingBlock: NAHDIM_clean_sbu_0, # of connection points: 4
#     Node 29, Type 1, BuildingBlock: NAHDIM_clean_sbu_0, # of connection points: 4
#     Node 30, Type 1, BuildingBlock: NAHDIM_clean_sbu_0, # of connection points: 4
#     Node 31, Type 1, BuildingBlock: NAHDIM_clean_sbu_0, # of connection points: 4
#     Node 32, Type 1, BuildingBlock: NAHDIM_clean_sbu_0, # of connection points: 4
#     Node 33, Type 1, BuildingBlock: NAHDIM_clean_sbu_0, # of connection points: 4
#     Node 34, Type 1, BuildingBlock: NAHDIM_clean_sbu_0, # of connection points: 4
#     Node 35, Type 1, BuildingBlock: NAHDIM_clean_sbu_0, # of connection points: 4
#     Edge 36, Type (0, 1), BuildingBlock: UVAHIK_clean_linker_0, # of connection points: 2
#     Edge 37, Type (0, 1), BuildingBlock: UVAHIK_clean_linker_0, # of connection points: 2
#     Edge 38, Type (0, 1), BuildingBlock: UVAHIK_clean_linker_0, # of connection points: 2
#     Edge 39, Type (0, 1), BuildingBlock: UVAHIK_clean_linker_0, # of connection points: 2
#     Edge 40, Type (0, 1), BuildingBlock: UVAHIK_clean_linker_0, # of connection points: 2
#     Edge 41, Type (0, 1), BuildingBlock: UVAHIK_clean_linker_0, # of connection points: 2
#     Edge 42, Type (0, 1), BuildingBlock: UVAHIK_clean_linker_0, # of connection points: 2
#     Edge 43, Type (0, 1), BuildingBlock: UVAHIK_clean_linker_0, # of connection points: 2
#     Edge 44, Type (0, 1), BuildingBlock: UVAHIK_clean_linker_0, # of connection points: 2
#     Edge 45, Type (0, 1), BuildingBlock: UVAHIK_clean_linker_0, # of connection points: 2
#     Edge 46, Type (0, 1), BuildingBlock: UVAHIK_clean_linker_0, # of connection points: 2
#     Edge 47, Type (0, 1), BuildingBlock: UVAHIK_clean_linker_0, # of connection points: 2
#     Edge 48, Type (0, 1), BuildingBlock: UVAHIK_clean_linker_0, # of connection points: 2
#     Edge 49, Type (0, 1), BuildingBlock: UVAHIK_clean_linker_0, # of connection points: 2
#     Edge 50, Type (0, 1), BuildingBlock: UVAHIK_clean_linker_0, # of connection points: 2
#     Edge 51, Type (0, 1), BuildingBlock: UVAHIK_clean_linker_0, # of connection points: 2
#     Edge 52, Type (0, 1), BuildingBlock: UVAHIK_clean_linker_0, # of connection points: 2
#     Edge 53, Type (0, 1), BuildingBlock: UVAHIK_clean_linker_0, # of connection points: 2
#     Edge 54, Type (0, 1), BuildingBlock: UVAHIK_clean_linker_0, # of connection points: 2
#     Edge 55, Type (0, 1), BuildingBlock: UVAHIK_clean_linker_0, # of connection points: 2
#     Edge 56, Type (0, 1), BuildingBlock: UVAHIK_clean_linker_0, # of connection points: 2
#     Edge 57, Type (0, 1), BuildingBlock: UVAHIK_clean_linker_0, # of connection points: 2
#     Edge 58, Type (0, 1), BuildingBlock: UVAHIK_clean_linker_0, # of connection points: 2
#     Edge 59, Type (0, 1), BuildingBlock: UVAHIK_clean_linker_0, # of connection points: 2
#     Edge 60, Type (0, 1), BuildingBlock: UVAHIK_clean_linker_0, # of connection points: 2
#     Edge 61, Type (0, 1), BuildingBlock: UVAHIK_clean_linker_0, # of connection points: 2
#     Edge 62, Type (0, 1), BuildingBlock: UVAHIK_clean_linker_0, # of connection points: 2
#     Edge 63, Type (0, 1), BuildingBlock: UVAHIK_clean_linker_0, # of connection points: 2
#     Edge 64, Type (0, 1), BuildingBlock: UVAHIK_clean_linker_0, # of connection points: 2
#     Edge 65, Type (0, 1), BuildingBlock: UVAHIK_clean_linker_0, # of connection points: 2
#     Edge 66, Type (0, 1), BuildingBlock: UVAHIK_clean_linker_0, # of connection points: 2
#     Edge 67, Type (0, 1), BuildingBlock: UVAHIK_clean_linker_0, # of connection points: 2
#     Edge 68, Type (0, 1), BuildingBlock: UVAHIK_clean_linker_0, # of connection points: 2
#     Edge 69, Type (0, 1), BuildingBlock: UVAHIK_clean_linker_0, # of connection points: 2
#     Edge 70, Type (0, 1), BuildingBlock: UVAHIK_clean_linker_0, # of connection points: 2
#     Edge 71, Type (0, 1), BuildingBlock: UVAHIK_clean_linker_0, # of connection points: 2
#     Edge 72, Type (0, 1), BuildingBlock: UVAHIK_clean_linker_0, # of connection points: 2
#     Edge 73, Type (0, 1), BuildingBlock: UVAHIK_clean_linker_0, # of connection points: 2
#     Edge 74, Type (0, 1), BuildingBlock: UVAHIK_clean_linker_0, # of connection points: 2
#     Edge 75, Type (0, 1), BuildingBlock: UVAHIK_clean_linker_0, # of connection points: 2
#     Edge 76, Type (0, 1), BuildingBlock: UVAHIK_clean_linker_0, # of connection points: 2
#     Edge 77, Type (0, 1), BuildingBlock: UVAHIK_clean_linker_0, # of connection points: 2
#     Edge 78, Type (0, 1), BuildingBlock: UVAHIK_clean_linker_0, # of connection points: 2
#     Edge 79, Type (0, 1), BuildingBlock: UVAHIK_clean_linker_0, # of connection points: 2
#     Edge 80, Type (0, 1), BuildingBlock: UVAHIK_clean_linker_0, # of connection points: 2
#     Edge 81, Type (0, 1), BuildingBlock: UVAHIK_clean_linker_0, # of connection points: 2
#     Edge 82, Type (0, 1), BuildingBlock: UVAHIK_clean_linker_0, # of connection points: 2
#     Edge 83, Type (0, 1), BuildingBlock: UVAHIK_clean_linker_0, # of connection points: 2
#     Edge 84, Type (0, 1), BuildingBlock: UVAHIK_clean_linker_0, # of connection points: 2
#     Edge 85, Type (0, 1), BuildingBlock: UVAHIK_clean_linker_0, # of connection points: 2
#     Edge 86, Type (0, 1), BuildingBlock: UVAHIK_clean_linker_0, # of connection points: 2
#     Edge 87, Type (0, 1), BuildingBlock: UVAHIK_clean_linker_0, # of connection points: 2
#     Edge 88, Type (0, 1), BuildingBlock: UVAHIK_clean_linker_0, # of connection points: 2
#     Edge 89, Type (0, 1), BuildingBlock: UVAHIK_clean_linker_0, # of connection points: 2
#     Edge 90, Type (0, 1), BuildingBlock: UVAHIK_clean_linker_0, # of connection points: 2
#     Edge 91, Type (0, 1), BuildingBlock: UVAHIK_clean_linker_0, # of connection points: 2
#     Edge 92, Type (0, 1), BuildingBlock: UVAHIK_clean_linker_0, # of connection points: 2
#     Edge 93, Type (0, 1), BuildingBlock: UVAHIK_clean_linker_0, # of connection points: 2
#     Edge 94, Type (0, 1), BuildingBlock: UVAHIK_clean_linker_0, # of connection points: 2
#     Edge 95, Type (0, 1), BuildingBlock: UVAHIK_clean_linker_0, # of connection points: 2
#     Edge 96, Type (0, 1), BuildingBlock: UVAHIK_clean_linker_0, # of connection points: 2
#     Edge 97, Type (0, 1), BuildingBlock: UVAHIK_clean_linker_0, # of connection points: 2
#     Edge 98, Type (0, 1), BuildingBlock: UVAHIK_clean_linker_0, # of connection points: 2
#     Edge 99, Type (0, 1), BuildingBlock: UVAHIK_clean_linker_0, # of connection points: 2
#     Edge 100, Type (0, 1), BuildingBlock: UVAHIK_clean_linker_0, # of connection points: 2
#     Edge 101, Type (0, 1), BuildingBlock: UVAHIK_clean_linker_0, # of connection points: 2
#     Edge 102, Type (0, 1), BuildingBlock: UVAHIK_clean_linker_0, # of connection points: 2
#     Edge 103, Type (0, 1), BuildingBlock: UVAHIK_clean_linker_0, # of connection points: 2
#     Edge 104, Type (0, 1), BuildingBlock: UVAHIK_clean_linker_0, # of connection points: 2
#     Edge 105, Type (0, 1), BuildingBlock: UVAHIK_clean_linker_0, # of connection points: 2
#     Edge 106, Type (0, 1), BuildingBlock: UVAHIK_clean_linker_0, # of connection points: 2
#     Edge 107, Type (0, 1), BuildingBlock: UVAHIK_clean_linker_0, # of connection points: 2
# Relax obj value: 0.032
# Max RMSD: 0.145
# Mean RMSD: 0.109
data_MOF--net-fgl--node1-ESEHIV_clean_sbu_0--node2-NAHDIM_clean_sbu_0--edge1-UVAHIK_clean_linker_0
_symmetry_space_group_name_H-M    P1
_symmetry_Int_Tables_number       1
_symmetry_cell_setting            triclinic
loop_
_symmetry_equiv_pos_as_xyz
'x, y, z'
_cell_length_a     95.850883
_cell_length_b     97.577487
_cell_length_c     65.326992
_cell_angle_alpha  88.697879
_cell_angle_beta   90.36866
_cell_angle_gamma 119.71596
loop_
_atom_site_label
_atom_site_type_symbol
_atom_site_fract_x
_atom_site_fract_y
_atom_site_fract_z
_atom_type_partial_charge
Cu0 Cu 0.02914 0.54098 1.0028 0.0
N1 N 0.04255 0.55722 0.02021 0.0
N2 N 0.04998 0.57579 0.04397 0.0
C3 C 0.03761 0.56429 0.03356 0.0
C4 C 0.06322 0.57589 0.03673 0.0
C5 C 0.0586 0.56444 0.02212 0.0
O6 O 0.0106 0.54356 0.99803 0.0
C7 C 0.02226 0.51765 0.03424 0.0
O8 O 0.02381 0.52852 0.04701 0.0
H9 H 0.02511 0.56083 0.03568 0.0
H10 H 0.06638 0.56163 0.01342 0.0
N11 N 0.03938 0.54237 0.97794 0.0
N12 N 0.04437 0.53501 0.94793 0.0
C13 C 0.03558 0.53027 0.96537 0.0
C14 C 0.05108 0.55522 0.96826 0.0
C15 C 0.05423 0.5507 0.94975 0.0
C16 C 1.00366 0.54185 0.98085 0.0
O17 O 0.00771 0.53606 0.9655 0.0
H18 H 0.02634 0.51827 0.96888 0.0
H19 H 0.05665 0.56707 0.97404 0.0
O20 O 0.02343 0.52063 0.01509 0.0
H21 H 0.07545 0.58377 0.04138 0.0
H22 H 0.06272 0.55847 0.93825 0.0
Cu23 Cu 0.53142 0.54729 0.02668 0.0
N24 N 0.5476 0.54958 0.00867 0.0
N25 N 0.56332 0.55782 0.98079 0.0
C26 C 0.5515 0.55834 0.99125 0.0
C27 C 0.56698 0.54829 0.99213 0.0
C28 C 0.55728 0.54326 0.00936 0.0
O29 O 0.53644 0.56885 0.03308 0.0
C30 C 0.50958 0.52007 0.00877 0.0
O31 O 0.52174 0.51777 0.01262 0.0
H32 H 0.54549 0.56472 0.98621 0.0
H33 H 0.55719 0.53542 0.02139 0.0
N34 N 0.53112 0.5371 0.05142 0.0
N35 N 0.52102 0.52383 0.08093 0.0
C36 C 0.51785 0.5289 0.06305 0.0
C37 C 0.54314 0.53715 0.06225 0.0
C38 C 0.53695 0.52902 0.08054 0.0
C39 C 0.55054 0.57707 0.04042 0.0
O40 O 0.55943 0.57035 0.04263 0.0
H41 H 0.50617 0.5272 0.05878 0.0
H42 H 0.55559 0.54298 0.05747 0.0
O43 O 0.51082 0.53324 0.01364 0.0
H44 H 0.57607 0.54524 0.98834 0.0
H45 H 0.54363 0.52716 0.09265 0.0
Cu46 Cu 0.50186 0.01311 0.00998 0.0
N47 N 0.49362 0.00452 0.98464 0.0
N48 N 0.47985 1.00006 0.95551 0.0
C49 C 0.48097 0.00426 0.97528 0.0
C50 C 0.49215 0.99727 0.95256 0.0
C51 C 0.50063 1.00005 0.97055 0.0
O52 O 0.48679 0.01751 0.02417 0.0
C53 C 0.52781 0.03972 0.98974 0.0
O54 O 0.51712 0.03793 0.97582 0.0
H55 H 0.4732 0.00774 0.98265 0.0
H56 H 0.5117 0.99982 0.97285 0.0
N57 N 0.50453 0.99869 0.02607 0.0
N58 N 0.51336 0.99005 0.0522 0.0
C59 C 0.51098 1.00174 0.04484 0.0
C60 C 0.50265 0.98453 0.02129 0.0
C61 C 0.50818 0.97917 0.03743 0.0
C62 C 0.48226 0.02713 0.01794 0.0
O63 O 0.48894 0.03593 1.00147 0.0
H64 H 0.51473 0.01278 0.05242 0.0
H65 H 0.49818 0.97882 0.00682 0.0
O66 O 0.52326 0.03118 0.00602 0.0
H67 H 0.4955 0.99446 0.93813 0.0
H68 H 0.50873 0.96836 0.03804 0.0
Cu69 Cu 0.50727 0.02779 0.49506 0.0
N70 N 0.50717 0.02024 0.46901 0.0
N71 N 0.5168 0.01886 0.43858 0.0
C72 C 0.51997 0.02655 0.45639 0.0
C73 C 0.50136 0.00721 0.44005 0.0
C74 C 0.49542 0.00812 0.45884 0.0
O75 O 0.52791 0.03274 0.50735 0.0
C76 C 0.4889 0.04056 0.48289 0.0
O77 O 0.48043 0.02579 0.47742 0.0
H78 H 0.53148 0.03644 0.46044 0.0
H79 H 0.48335 1.00057 0.46452 0.0
N80 N 0.49137 0.01248 0.51199 0.0
N81 N 0.47569 1.00276 0.53963 0.0
C82 C 0.48714 0.01581 0.52994 0.0
C83 C 0.48233 0.99673 0.51021 0.0
C84 C 0.4725 0.99068 0.52725 0.0
C85 C 0.53021 0.02092 0.50777 0.0
O86 O 0.5189 0.00752 0.5005 0.0
H87 H 0.49235 0.02765 0.53571 0.0
H88 H 0.48303 0.99004 0.49769 0.0
O89 O 0.50228 0.04494 0.49187 0.0
H90 H 0.49476 0.99878 0.42831 0.0
H91 H 0.46398 0.97838 0.53051 0.0
Cu92 Cu 0.03917 0.55935 0.49336 0.0
N93 N 0.05244 0.55556 0.51111 0.0
N94 N 0.05893 0.54412 0.53674 0.0
C95 C 0.04692 0.54436 0.52608 0.0
C96 C 0.07259 0.5557 0.52805 0.0
C97 C 0.06855 0.56271 0.51226 0.0
O98 O 0.02222 0.53849 0.48555 0.0
C99 C 0.04361 0.58514 0.51428 0.0
O100 O 0.05838 0.58775 0.5125 0.0
H101 H 0.03425 0.53672 0.52923 0.0
H102 H 0.07681 0.57245 0.50251 0.0
N103 N 0.04952 0.57067 0.46935 0.0
N104 N 0.05309 0.58435 0.43994 0.0
C105 C 0.04359 0.57754 0.45655 0.0
C106 C 0.06329 0.57321 0.46059 0.0
C107 C 0.06554 0.58165 0.4425 0.0
C108 C 0.02746 0.53096 0.47538 0.0
O109 O 0.04286 0.53801 0.47096 0.0
H110 H 0.03246 0.57747 0.45947 0.0
H111 H 0.07096 0.56888 0.4666 0.0
O112 O 0.03218 0.5724 0.50723 0.0
H113 H 0.08467 0.55885 0.53262 0.0
H114 H 0.07535 0.5851 0.43181 0.0
Cu115 Cu 0.51426 0.5633 0.51524 0.0
N116 N 0.53216 0.57782 0.50014 0.0
N117 N 0.55684 0.59246 0.48711 0.0
C118 C 0.5475 0.58093 0.50078 0.0
C119 C 0.54691 0.59663 0.47758 0.0
C120 C 0.53178 0.58765 0.48569 0.0
O121 O 0.51393 0.57238 0.5413 0.0
C122 C 0.4969 0.55227 0.48025 0.0
O123 O 0.51051 0.55293 0.47542 0.0
H124 H 0.55171 0.57498 0.51116 0.0
H125 H 0.52114 0.58814 0.48128 0.0
N126 N 0.51482 0.54493 0.5216 0.0
N127 N 0.50328 0.51949 0.53114 0.0
C128 C 0.50161 0.53066 0.52071 0.0
C129 C 0.52543 0.54281 0.53287 0.0
C130 C 0.51831 0.52705 0.53882 0.0
C131 C 0.52044 0.58717 0.54404 0.0
O132 O 0.52537 0.59686 0.52807 0.0
H133 H 0.49034 0.52891 0.51458 0.0
H134 H 0.53688 0.55222 0.53798 0.0
O135 O 0.49541 0.55669 0.49794 0.0
H136 H 0.55021 0.60535 0.46533 0.0
H137 H 0.52335 0.52186 0.54917 0.0
Cu138 Cu 0.72263 0.89694 0.34742 0.0
N139 N 0.734 0.91653 0.33407 0.0
N140 N 0.73867 0.9397 0.32097 0.0
C141 C 0.72906 0.92721 0.33307 0.0
C142 C 0.75015 0.93682 0.31398 0.0
C143 C 0.74731 0.92252 0.32226 0.0
O144 O 0.71146 0.90002 0.37055 0.0
C145 C 0.71782 0.87975 0.31267 0.0
O146 O 0.73351 0.88712 0.31461 0.0
H147 H 0.71816 0.92548 0.34031 0.0
H148 H 0.75423 0.91675 0.31938 0.0
N149 N 0.73682 0.89079 0.35802 0.0
N150 N 0.74587 0.87496 0.36944 0.0
C151 C 0.73288 0.87599 0.3637 0.0
C152 C 0.75284 0.89949 0.36033 0.0
C153 C 0.75849 0.88971 0.36733 0.0
C154 C 0.72092 0.91037 0.38311 0.0
O155 O 0.73645 0.91715 0.37959 0.0
H156 H 0.72079 0.86608 0.36288 0.0
H157 H 0.75995 0.91199 0.35689 0.0
O158 O 0.70954 0.88168 0.3264 0.0
H159 H 0.75968 0.94436 0.3034 0.0
H160 H 0.77088 0.89315 0.37052 0.0
Cu161 Cu 0.19354 0.89447 0.34592 0.0
N162 N 0.19235 0.87611 0.33605 0.0
N163 N 0.18054 0.85177 0.32349 0.0
C164 C 0.17855 0.86234 0.33422 0.0
C165 C 0.19632 0.85918 0.31851 0.0
C166 C 0.20357 0.87422 0.32629 0.0
O167 O 0.17425 0.88721 0.3628 0.0
C168 C 0.19034 0.90285 0.30466 0.0
O169 O 0.18079 0.88763 0.30238 0.0
H170 H 0.16706 0.86057 0.33939 0.0
H171 H 0.21594 0.88337 0.32408 0.0
N172 N 0.21219 0.90612 0.36121 0.0
N173 N 0.23236 0.92702 0.37614 0.0
C174 C 0.2183 0.92138 0.36607 0.0
C175 C 0.22279 0.90195 0.36833 0.0
C176 C 0.2353 0.91486 0.37753 0.0
C177 C 0.17432 0.89094 0.38139 0.0
O178 O 0.18763 0.90216 0.38923 0.0
H179 H 0.21266 0.9283 0.36191 0.0
H180 H 0.22163 0.89042 0.36671 0.0
O181 O 0.19548 0.90802 0.32246 0.0
H182 H 0.20211 0.8543 0.30936 0.0
H183 H 0.24568 0.91524 0.38473 0.0
Cu184 Cu 0.189 0.39996 0.3418 0.0
N185 N 0.18716 0.41375 0.32314 0.0
N186 N 0.17817 0.42213 0.29678 0.0
C187 C 0.17539 0.40985 0.30934 0.0
C188 C 0.19224 0.43429 0.30305 0.0
C189 C 0.19774 0.42908 0.31936 0.0
O190 O 0.16793 0.3852 0.35287 0.0
C191 C 0.20559 0.39286 0.31137 0.0
O192 O 0.20045 0.39989 0.29852 0.0
H193 H 0.16542 0.39803 0.30783 0.0
H194 H 0.2089 0.43584 0.32748 0.0
N195 N 0.20121 0.41117 0.36396 0.0
N196 N 0.21664 0.41639 0.39166 0.0
C197 C 0.21026 0.407 0.3754 0.0
C198 C 0.20186 0.42366 0.37312 0.0
C199 C 0.21144 0.42697 0.39022 0.0
C200 C 0.15602 0.37447 0.34342 0.0
O201 O 0.15779 0.37143 0.32442 0.0
H202 H 0.21187 0.39709 0.37193 0.0
H203 H 0.19543 0.42962 0.36808 0.0
O204 O 0.20064 0.39039 0.32986 0.0
H205 H 0.19827 0.44602 0.29616 0.0
H206 H 0.21386 0.43605 0.40113 0.0
Cu207 Cu 0.17576 0.35576 0.83558 0.0
N208 N 0.17496 0.34542 0.81162 0.0
N209 N 0.18397 0.3402 0.78308 0.0
C210 C 0.18796 0.34778 0.801 0.0
C211 C 0.16776 0.33269 0.78245 0.0
C212 C 0.16222 0.33591 0.80016 0.0
O213 O 0.19571 0.36055 0.84954 0.0
C214 C 0.17383 0.37931 0.81078 0.0
O215 O 0.18052 0.37525 0.79642 0.0
H216 H 0.20014 0.35569 0.80582 0.0
H217 H 0.14986 0.33211 0.80405 0.0
N218 N 0.15872 0.34284 0.85292 0.0
N219 N 0.14069 0.33664 0.87795 0.0
C220 C 0.15309 0.34837 0.86746 0.0
C221 C 0.1496 0.32702 0.85413 0.0
C222 C 0.13847 0.32314 0.86969 0.0
C223 C 0.1972 0.34846 0.85338 0.0
O224 O 0.18545 0.33456 0.84815 0.0
H225 H 0.15821 0.36081 0.87043 0.0
H226 H 0.15094 0.31892 0.84441 0.0
O227 O 0.17263 0.37365 0.82888 0.0
H228 H 0.16046 0.32569 0.76991 0.0
H229 H 0.12935 0.31135 0.87437 0.0
Cu230 Cu 0.69551 0.88388 0.83873 0.0
N231 N 0.70618 0.87377 0.82896 0.0
N232 N 0.70894 0.85344 0.81916 0.0
C233 C 0.70044 0.8581 0.83058 0.0
C234 C 0.72057 0.86675 0.81001 0.0
C235 C 0.71885 0.8793 0.81613 0.0
O236 O 0.68148 0.86948 0.86043 0.0
C237 C 0.67688 0.89404 0.81289 0.0
O238 O 0.6711 0.89675 0.82953 0.0
H239 H 0.68952 0.85013 0.83883 0.0
H240 H 0.72577 0.89144 0.81077 0.0
N241 N 0.71012 0.90326 0.84995 0.0
N242 N 0.71937 0.92705 0.86359 0.0
C243 C 0.70751 0.91543 0.85279 0.0
C244 C 0.72427 0.90738 0.85898 0.0
C245 C 0.73004 0.92208 0.86737 0.0
C246 C 0.68056 0.87374 0.87846 0.0
O247 O 0.68617 0.88877 0.88189 0.0
H248 H 0.69684 0.9155 0.84761 0.0
H249 H 0.72966 0.89994 0.86011 0.0
O250 O 0.68582 0.88783 0.81442 0.0
H251 H 0.72934 0.86729 0.79918 0.0
H252 H 0.74083 0.92824 0.87639 0.0
Cu253 Cu 0.16922 0.87905 0.83727 0.0
N254 N 0.15558 0.87795 0.81606 0.0
N255 N 0.14154 0.86976 0.78704 0.0
C256 C 0.15119 0.86781 0.80054 0.0
C257 C 0.13984 0.88168 0.79446 0.0
C258 C 0.14852 0.8867 0.81235 0.0
O259 O 0.16076 0.85771 0.84802 0.0
C260 C 0.19639 0.90107 0.81728 0.0
O261 O 0.18765 0.90802 0.81656 0.0
H262 H 0.15533 0.85939 0.79904 0.0
H263 H 0.14969 0.89615 0.82186 0.0
N264 N 0.1704 0.89241 0.85811 0.0
N265 N 0.18046 0.90808 0.88508 0.0
C266 C 0.1834 0.90069 0.86986 0.0
C267 C 0.1588 0.89468 0.86603 0.0
C268 C 0.165 0.90442 0.88262 0.0
C269 C 0.1608 0.85414 0.86686 0.0
O270 O 0.16836 0.8654 0.88007 0.0
H271 H 0.19467 0.9009 0.86754 0.0
H272 H 0.14655 0.88918 0.8606 0.0
O273 O 0.19055 0.88751 0.8259 0.0
H274 H 0.13276 0.88639 0.78759 0.0
H275 H 0.15842 0.90792 0.89262 0.0
Cu276 Cu 0.389 0.23483 0.70187 0.0
N277 N 0.39779 0.25457 0.68881 0.0
N278 N 0.39693 0.275 0.67409 0.0
C279 C 0.38903 0.26168 0.68558 0.0
C280 C 0.41135 0.27637 0.66988 0.0
C281 C 0.41187 0.26372 0.67906 0.0
O282 O 0.37845 0.23667 0.72648 0.0
C283 C 0.38356 0.22011 0.66537 0.0
O284 O 0.39901 0.23032 0.66472 0.0
H285 H 0.37671 0.25662 0.69071 0.0
H286 H 0.42152 0.26108 0.67789 0.0
N287 N 0.40426 0.22932 0.71016 0.0
N288 N 0.41332 0.21333 0.72105 0.0
C289 C 0.4003 0.21461 0.71628 0.0
C290 C 0.4204 0.23778 0.71113 0.0
C291 C 0.42605 0.22788 0.71775 0.0
C292 C 0.3883 0.24704 0.73871 0.0
O293 O 0.40366 0.2543 0.73396 0.0
H294 H 0.38806 0.20492 0.71672 0.0
H295 H 0.42756 0.25022 0.70736 0.0
O296 O 0.37564 0.21937 0.68141 0.0
H297 H 0.42068 0.28561 0.66049 0.0
H298 H 0.43849 0.23114 0.72011 0.0
Cu299 Cu 0.86002 0.20513 0.6767 0.0
N300 N 0.87769 0.20915 0.66046 0.0
N301 N 0.89662 0.22156 0.63646 0.0
C302 C 0.88449 0.22136 0.64701 0.0
C303 C 0.89754 0.20893 0.64355 0.0
C304 C 0.8859 0.20135 0.65854 0.0
O305 O 0.86422 0.22621 0.68415 0.0
C306 C 0.83911 0.17914 0.65501 0.0
O307 O 0.85121 0.17661 0.65804 0.0
H308 H 0.8803 0.22975 0.64465 0.0
H309 H 0.88346 0.19079 0.66716 0.0
N310 N 0.85817 0.19349 0.70064 0.0
N311 N 0.84653 0.17923 0.72902 0.0
C312 C 0.84462 0.18611 0.71192 0.0
C313 C 0.86905 0.19107 0.71082 0.0
C314 C 0.86191 0.18236 0.72848 0.0
C315 C 0.87597 0.23335 0.69642 0.0
O316 O 0.88307 0.22575 0.70376 0.0
H317 H 0.8337 0.18622 0.70793 0.0
H318 H 0.88137 0.19562 0.706 0.0
O319 O 0.84025 0.1919 0.66152 0.0
H320 H 0.90601 0.20547 0.63831 0.0
H321 H 0.86757 0.17865 0.74003 0.0
Cu322 Cu 0.85632 0.72535 0.68606 0.0
N323 N 0.85733 0.74019 0.66686 0.0
N324 N 0.85396 0.7488 0.63633 0.0
C325 C 0.85117 0.73615 0.64804 0.0
C326 C 0.86225 0.7614 0.64832 0.0
C327 C 0.86444 0.75604 0.66719 0.0
O328 O 0.83408 0.70854 0.68937 0.0
C329 C 0.88551 0.72908 0.67557 0.0
O330 O 0.88957 0.74282 0.68347 0.0
H331 H 0.84457 0.72403 0.64321 0.0
H332 H 0.87098 0.76319 0.68002 0.0
N333 N 0.86382 0.73382 0.71169 0.0
N334 N 0.87607 0.73695 0.74176 0.0
C335 C 0.87099 0.72841 0.72466 0.0
C336 C 0.86412 0.74615 0.72095 0.0
C337 C 0.87182 0.74819 0.73954 0.0
C338 C 0.82305 0.71218 0.68782 0.0
O339 O 0.82698 0.72689 0.68366 0.0
H340 H 0.87298 0.71872 0.72117 0.0
H341 H 0.85929 0.75324 0.71457 0.0
O342 O 0.87072 0.71853 0.67532 0.0
H343 H 0.86667 0.77359 0.6437 0.0
H344 H 0.87416 0.75724 0.75048 0.0
Cu345 Cu 0.83527 0.69754 0.14817 0.0
N346 N 0.83727 0.68875 0.12407 0.0
N347 N 0.84865 0.68634 0.0957 0.0
C348 C 0.84966 0.69594 0.11088 0.0
C349 C 0.83503 0.67256 0.09954 0.0
C350 C 0.82807 0.67407 0.11711 0.0
O351 O 0.85565 0.70442 0.16265 0.0
C352 C 0.81802 0.70957 0.12789 0.0
O353 O 0.81326 0.69632 0.11826 0.0
H354 H 0.85958 0.70776 0.11297 0.0
H355 H 0.81732 0.66494 0.12451 0.0
N356 N 0.81898 0.68225 0.16472 0.0
N357 N 0.80556 0.67023 0.19342 0.0
C358 C 0.81967 0.6813 0.18522 0.0
C359 C 0.80387 0.67147 0.1597 0.0
C360 C 0.79555 0.66399 0.1774 0.0
C361 C 0.85818 0.69302 0.16718 0.0
O362 O 0.84724 0.67869 0.1621 0.0
H363 H 0.83008 0.68925 0.194 0.0
H364 H 0.79902 0.66964 0.14439 0.0
O365 O 0.82874 0.71336 0.14171 0.0
H366 H 0.8305 0.66205 0.09051 0.0
H367 H 0.78301 0.65502 0.17843 0.0
Cu368 Cu 0.36598 0.22455 0.19222 0.0
N369 N 0.37273 0.2131 0.17668 0.0
N370 N 0.37071 0.19195 0.16134 0.0
C371 C 0.3644 0.1973 0.17536 0.0
C372 C 0.38376 0.20496 0.15377 0.0
C373 C 0.38494 0.21803 0.16323 0.0
O374 O 0.35507 0.21094 0.21614 0.0
C375 C 0.3476 0.22508 0.15755 0.0
O376 O 0.34685 0.21174 0.15274 0.0
H377 H 0.35359 0.18996 0.18416 0.0
H378 H 0.39367 0.23026 0.15997 0.0
N379 N 0.38331 0.24325 0.20131 0.0
N380 N 0.39568 0.26716 0.21499 0.0
C381 C 0.38196 0.25569 0.20696 0.0
C382 C 0.39855 0.24702 0.20553 0.0
C383 C 0.40627 0.26187 0.21393 0.0
C384 C 0.35534 0.21589 0.23412 0.0
O385 O 0.36066 0.23098 0.23669 0.0
H386 H 0.37087 0.25604 0.20582 0.0
H387 H 0.4035 0.23931 0.20335 0.0
O388 O 0.35361 0.23122 0.17471 0.0
H389 H 0.39147 0.20511 0.14162 0.0
H390 H 0.41843 0.26794 0.21972 0.0
Cu391 Cu 0.83629 0.23671 0.17828 0.0
N392 N 0.82455 0.23587 0.15507 0.0
N393 N 0.81052 0.22612 0.12643 0.0
C394 C 0.81895 0.22409 0.14166 0.0
C395 C 0.81093 0.23984 0.13046 0.0
C396 C 0.81958 0.24582 0.14819 0.0
O397 O 0.82446 0.21612 0.19152 0.0
C398 C 0.86534 0.25356 0.15854 0.0
O399 O 0.85859 0.262 0.15326 0.0
H400 H 0.8212 0.21428 0.14307 0.0
H401 H 0.822 0.25658 0.15557 0.0
N402 N 0.83866 0.25246 0.19592 0.0
N403 N 0.84927 0.26983 0.22099 0.0
C404 C 0.85168 0.26092 0.20752 0.0
C405 C 0.82762 0.2562 0.20209 0.0
C406 C 0.83413 0.26691 0.21765 0.0
C407 C 0.82042 0.21376 0.21033 0.0
O408 O 0.82601 0.22576 0.22268 0.0
H409 H 0.86234 0.25977 0.20696 0.0
H410 H 0.81546 0.25093 0.19638 0.0
O411 O 0.85746 0.24127 0.16977 0.0
H412 H 0.80517 0.24507 0.12148 0.0
H413 H 0.82806 0.2718 0.2262 0.0
C414 C 0.04066 0.67155 0.20298 0.0
O415 O 0.05379 0.68196 0.21216 0.0
O416 O 1.00437 0.68283 0.22786 0.0
Zn417 Zn 0.02387 0.68 0.23383 0.0
O418 O 0.02129 0.66635 0.25943 0.0
C419 C 0.04459 0.70795 0.2555 0.0
O420 O 0.0329 0.70052 0.2689 0.0
O421 O 0.02709 0.6692 0.20932 0.0
C422 C 0.03423 0.66694 0.26553 0.0
O423 O 0.04753 0.67593 0.2552 0.0
C424 C 0.99571 0.68465 0.24104 0.0
O425 O 0.99879 0.68422 0.26059 0.0
O426 O 0.04353 0.70162 0.23831 0.0
C427 C 0.40448 0.45694 0.31759 0.0
O428 O 0.3953 0.45957 0.30495 0.0
O429 O 0.37496 0.42607 0.28699 0.0
Zn430 Zn 0.39899 0.43421 0.28725 0.0
O431 O 0.41075 0.44848 0.26294 0.0
C432 C 0.39213 0.40159 0.28944 0.0
O433 O 0.37784 0.39876 0.2953 0.0
O434 O 0.40798 0.44634 0.3133 0.0
C435 C 0.4084 0.44296 0.24501 0.0
O436 O 0.3973 0.42821 0.24229 0.0
C437 C 0.36716 0.4298 0.27439 0.0
O438 O 0.37488 0.43997 0.25943 0.0
O439 O 0.40306 0.41578 0.28596 0.0
C440 C 0.66125 0.02726 0.26971 0.0
O441 O 0.66046 0.03641 0.28356 0.0
O442 O 0.63166 0.03875 0.27045 0.0
Zn443 Zn 0.64628 0.04105 0.24709 0.0
O444 O 0.66569 0.06262 0.24553 0.0
C445 C 0.62234 0.03851 0.21894 0.0
O446 O 0.62017 0.04659 0.23316 0.0
O447 O 0.65511 0.02659 0.25222 0.0
C448 C 0.66753 0.07508 0.23653 0.0
O449 O 0.6554 0.07488 0.2268 0.0
C450 C 0.63312 0.05013 0.28108 0.0
O451 O 0.645 0.06445 0.27716 0.0
O452 O 0.63351 0.03517 0.22111 0.0
C453 C 0.03531 0.44179 0.77511 0.0
O454 O 0.04914 0.44412 0.76809 0.0
O455 O 0.029 0.43239 0.71684 0.0
Zn456 Zn 0.0246 0.41914 0.74321 0.0
O457 O 0.04312 0.41532 0.75054 0.0
C458 C 0.99439 0.39482 0.72522 0.0
O459 O 0.9975 0.40598 0.71141 0.0
O460 O 0.02242 0.43132 0.76688 0.0
C461 C 0.05298 0.41456 0.7383 0.0
O462 O 0.05138 0.41594 0.7185 0.0
C463 C 0.04233 0.44471 0.71257 0.0
O464 O 0.05435 0.44914 0.72537 0.0
O465 O 1.00404 0.39777 0.74014 0.0
C466 C 0.60967 0.63983 0.72928 0.0
O467 O 0.60906 0.62885 0.74186 0.0
O468 O 0.62658 0.6475 0.78086 0.0
Zn469 Zn 0.63661 0.66078 0.75503 0.0
O470 O 0.65569 0.65901 0.7455 0.0
C471 C 0.64711 0.68897 0.77912 0.0
O472 O 0.64371 0.67895 0.79458 0.0
O473 O 0.62026 0.65416 0.73205 0.0
C474 C 0.66603 0.659 0.7578 0.0
O475 O 0.66409 0.65963 0.77758 0.0
C476 C 0.62634 0.63461 0.78529 0.0
O477 O 0.63256 0.62898 0.77234 0.0
O478 O 0.64484 0.68388 0.76096 0.0
C479 C 0.4108 0.02926 0.71999 0.0
O480 O 0.42097 0.03972 0.73274 0.0
O481 O 0.40004 0.02595 0.77259 0.0
Zn482 Zn 0.38861 0.02901 0.7487 0.0
O483 O 0.39411 0.05176 0.74643 0.0
C484 C 0.36066 1.00001 0.75718 0.0
O485 O 0.37166 0.99573 0.75868 0.0
O486 O 0.39584 0.02304 0.72346 0.0
C487 C 0.3852 0.05665 0.75391 0.0
O488 O 0.37177 0.04652 0.76323 0.0
C489 C 0.39794 0.02913 0.79065 0.0
O490 O 0.38844 0.03503 0.79365 0.0
O491 O 0.365 0.01431 0.75266 0.0
C492 C 0.68112 0.97503 0.55659 0.0
O493 O 0.66619 0.97001 0.56223 0.0
O494 O 0.66916 1.00079 0.58026 0.0
Zn495 Zn 0.68733 0.99699 0.58971 0.0
O496 O 0.6816 0.98336 0.61613 0.0
C497 C 0.70468 0.02821 0.60639 0.0
O498 O 0.69043 0.02341 0.61444 0.0
O499 O 0.69239 0.98639 0.56623 0.0
C500 C 0.68804 0.97484 0.61978 0.0
O501 O 0.69798 0.97472 0.60613 0.0
C502 C 0.65757 0.99943 0.59119 0.0
O503 O 0.65636 0.99458 0.61036 0.0
O504 O 0.70666 0.01877 0.5952 0.0
C505 C 0.07411 0.78608 0.60063 0.0
O506 O 0.06744 0.79183 0.58805 0.0
O507 O 0.03714 0.75543 0.57831 0.0
Zn508 Zn 0.06018 0.76226 0.57122 0.0
O509 O 0.06915 0.77826 0.54747 0.0
C510 C 0.04859 0.73121 0.55623 0.0
O511 O 0.03685 0.73373 0.55064 0.0
O512 O 0.07304 0.77289 0.59658 0.0
C513 C 0.06841 0.77504 0.52858 0.0
O514 O 0.06075 0.76021 0.52315 0.0
C515 C 0.02809 0.76063 0.57175 0.0
O516 O 0.03369 0.77234 0.55823 0.0
O517 O 0.06075 0.74216 0.56515 0.0
C518 C 0.31088 0.34972 0.59719 0.0
O519 O 0.29836 0.34785 0.60764 0.0
O520 O 0.30056 0.37871 0.60953 0.0
Zn521 Zn 0.31457 0.38037 0.58563 0.0
O522 O 0.33645 0.39979 0.58626 0.0
C523 C 0.3034 0.39454 0.55739 0.0
O524 O 0.31027 0.40552 0.57116 0.0
O525 O 0.31852 0.36196 0.58583 0.0
C526 C 0.34814 0.39984 0.59562 0.0
O527 O 0.3456 0.38742 0.60675 0.0
C528 C 0.30407 0.37856 0.62829 0.0
O529 O 0.31813 0.38021 0.63317 0.0
O530 O 0.3036 0.38168 0.55996 0.0
C531 C 0.6876 0.79322 0.12786 0.0
O532 O 0.7 0.80003 0.11534 0.0
O533 O 0.67883 0.78376 0.07224 0.0
Zn534 Zn 0.67779 0.76966 0.09687 0.0
O535 O 0.6981 0.76761 0.09947 0.0
C536 C 0.65238 0.74172 0.07659 0.0
O537 O 0.65914 0.75036 0.06005 0.0
O538 O 0.67596 0.77974 0.12327 0.0
C539 C 0.69976 0.75717 0.09014 0.0
O540 O 0.68839 0.74779 0.07765 0.0
C541 C 0.68544 0.7845 0.05506 0.0
O542 O 0.69273 0.77625 0.0527 0.0
O543 O 0.65805 0.74746 0.09404 0.0
C544 C 0.28435 0.98185 0.05615 0.0
O545 O 0.29238 0.97503 0.06301 0.0
O546 O 0.28695 0.98819 0.11533 0.0
Zn547 Zn 0.29987 1.00131 0.09059 0.0
O548 O 0.31987 0.99961 0.08559 0.0
C549 C 0.29887 0.02987 0.10166 0.0
O550 O 0.28358 0.02015 0.10546 0.0
O551 O 0.28562 0.99371 0.06549 0.0
C552 C 0.3329 0.00857 0.09483 0.0
O553 O 0.33289 0.01805 0.10879 0.0
C554 C 0.28981 0.99333 0.1335 0.0
O555 O 0.3021 0.00741 0.13671 0.0
O556 O 0.30753 0.02441 0.09501 0.0
C557 C 0.07354 0.37142 0.05134 0.0
O558 O 0.074 0.38509 0.05147 0.0
O559 O 0.07208 0.3736 0.11426 0.0
Zn560 Zn 0.05713 0.36656 0.09021 0.0
O561 O 0.05166 0.38348 0.08252 0.0
C562 C 0.03124 0.34409 0.11617 0.0
O563 O 0.03956 0.35412 0.13048 0.0
O564 O 0.06714 0.3618 0.06636 0.0
C565 C 0.04898 0.39081 0.09642 0.0
O566 O 0.05005 0.38735 0.11571 0.0
C567 C 0.08532 0.38653 0.11386 0.0
O568 O 0.08965 0.39532 0.09704 0.0
O569 O 0.03658 0.34687 0.0979 0.0
C570 C 0.35317 0.31502 0.91222 0.0
O571 O 0.33836 0.30989 0.91846 0.0
O572 O 0.3402 0.33924 0.93498 0.0
Zn573 Zn 0.35902 0.33671 0.94483 0.0
O574 O 0.35326 0.32204 0.97022 0.0
C575 C 0.37527 0.36938 0.95791 0.0
O576 O 0.3604 0.36571 0.96196 0.0
O577 O 0.36458 0.32662 0.92135 0.0
C578 C 0.35678 0.3269 0.9885 0.0
O579 O 0.36409 0.34214 0.99165 0.0
C580 C 0.32854 0.33794 0.94567 0.0
O581 O 0.3278 0.33433 0.96528 0.0
O582 O 0.3779 0.35883 0.95064 0.0
C583 C 0.73586 0.12279 0.95751 0.0
O584 O 0.73054 0.12772 0.94206 0.0
O585 O 0.69837 0.09043 0.93658 0.0
Zn586 Zn 0.72156 0.09578 0.93313 0.0
O587 O 0.73268 0.10874 0.9077 0.0
C588 C 0.71131 0.0631 0.92562 0.0
O589 O 0.6979 0.06289 0.9207 0.0
O590 O 0.73359 0.10879 0.95741 0.0
C591 C 0.72908 0.10386 0.88951 0.0
O592 O 0.7164 0.09001 0.88638 0.0
C593 C 0.69094 0.09622 0.92672 0.0
O594 O 0.69833 0.10654 0.91178 0.0
O595 O 0.72307 0.07581 0.93206 0.0
C596 C 0.97995 0.67115 0.93951 0.0
O597 O 0.98209 0.68053 0.95477 0.0
O598 O 0.96909 0.69924 0.94206 0.0
Zn599 Zn 0.98189 0.69758 0.91904 0.0
O600 O 0.00525 0.71403 0.92051 0.0
C601 C 0.9755 0.71444 0.88797 0.0
O602 O 0.98585 0.72625 0.89899 0.0
O603 O 0.97961 0.67595 0.92135 0.0
C604 C 0.01416 0.71504 0.90558 0.0
O605 O 0.00775 0.70535 0.89029 0.0
C606 C 0.97076 0.71167 0.95015 0.0
O607 O 0.98231 0.72554 0.94378 0.0
O608 O 0.97221 0.70049 0.89303 0.0
C609 C 0.36629 0.13877 0.48057 0.0
O610 O 0.37629 0.14821 0.46635 0.0
O611 O 0.36325 0.12953 0.42647 0.0
Zn612 Zn 0.36235 0.11544 0.45095 0.0
O613 O 0.3831 0.11436 0.45393 0.0
C614 C 0.33258 0.08897 0.4345 0.0
O615 O 0.33129 0.10009 0.42444 0.0
O616 O 0.35862 0.12398 0.47747 0.0
C617 C 0.3845 0.10395 0.44415 0.0
O618 O 0.37297 0.09492 0.43159 0.0
C619 C 0.36391 0.12606 0.40793 0.0
O620 O 0.36469 0.11328 0.40425 0.0
O621 O 0.34419 0.09283 0.44688 0.0
C622 C 0.96148 0.33787 0.385 0.0
O623 O 0.97682 0.34667 0.38053 0.0
O624 O 0.96577 0.32817 0.45075 0.0
Zn625 Zn 0.97397 0.343 0.42596 0.0
O626 O 0.99427 0.3439 0.41549 0.0
C627 C 0.96796 0.36774 0.44005 0.0
O628 O 0.95363 0.3558 0.44437 0.0
O629 O 0.95722 0.3346 0.40368 0.0
C630 C 0.00602 0.3469 0.42725 0.0
O631 O 0.00496 0.34953 0.44665 0.0
C632 C 0.96774 0.33275 0.46915 0.0
O633 O 0.97542 0.34794 0.47273 0.0
O634 O 0.97855 0.36505 0.43251 0.0
C635 C 0.76888 0.69514 0.392 0.0
O636 O 0.77906 0.70104 0.4072 0.0
O637 O 0.76402 0.70957 0.43958 0.0
Zn638 Zn 0.74903 0.7041 0.41555 0.0
O639 O 0.7486 0.72356 0.40561 0.0
C640 C 0.72286 0.67514 0.43379 0.0
O641 O 0.73404 0.67162 0.43872 0.0
O642 O 0.75574 0.69535 0.39256 0.0
C643 C 0.73893 0.72719 0.41385 0.0
O644 O 0.72903 0.71784 0.4282 0.0
C645 C 0.7729 0.7238 0.44483 0.0
O646 O 0.77256 0.7352 0.43416 0.0
O647 O 0.72672 0.688 0.42419 0.0
C648 C 0.02088 0.49177 0.02817 0.0
C649 C 0.02121 0.50277 0.04198 0.0
C650 C 0.02172 0.4786 0.03526 0.0
C651 C 0.03644 0.46524 0.07919 0.0
H652 H 0.01423 0.42486 0.05254 0.0
C653 C 0.04231 0.41154 0.10638 0.0
C654 C 0.04456 0.40297 0.091 0.0
C655 C 0.03814 0.42304 0.10132 0.0
C656 C 0.02059 0.4361 0.06004 0.0
H657 H 0.02191 0.50814 0.07413 0.0
H658 H 0.02315 0.48498 0.08652 0.0
H659 H 0.00848 0.44577 0.04244 0.0
H660 H 0.04413 0.39971 0.05821 0.0
H661 H 0.03693 0.41982 0.04938 0.0
H662 H 0.04867 0.45562 0.09664 0.0
C663 C 0.02254 0.48673 0.07018 0.0
C664 C 0.01729 0.44808 0.05428 0.0
C665 C 0.02171 0.49994 0.06308 0.0
C666 C 0.04247 0.40609 0.07044 0.0
C667 C 0.03824 0.41754 0.06538 0.0
C668 C 0.0397 0.45325 0.085 0.0
C669 C 0.02287 0.47606 0.05632 0.0
C670 C 0.02533 0.46287 0.0636 0.0
C671 C 0.03606 0.42617 0.08076 0.0
C672 C 0.03196 0.43861 0.07531 0.0
H673 H 0.02049 0.49357 0.0118 0.0
H674 H 0.02212 0.47074 0.02413 0.0
H675 H 0.04305 0.47656 0.08646 0.0
H676 H 0.04379 0.40941 0.12238 0.0
H677 H 0.03641 0.42938 0.11352 0.0
C678 C 0.57242 0.60118 0.05633 0.0
C679 C 0.55751 0.59386 0.04628 0.0
C680 C 0.5799 0.61707 0.06128 0.0
C681 C 0.58206 0.65482 0.04701 0.0
H682 H 0.60819 0.66843 0.09593 0.0
C683 C 0.63457 0.71851 0.05511 0.0
C684 C 0.63891 0.72525 0.07456 0.0
C685 C 0.62244 0.70283 0.05294 0.0
C686 C 0.60079 0.66495 0.08235 0.0
H687 H 0.53868 0.59767 0.03381 0.0
H688 H 0.55184 0.62574 0.04266 0.0
H689 H 0.59038 0.64049 0.09063 0.0
H690 H 0.63345 0.72079 0.10698 0.0
H691 H 0.61199 0.69352 0.1032 0.0
H692 H 0.59237 0.67934 0.03886 0.0
C693 C 0.55773 0.61901 0.04654 0.0
C694 C 0.59069 0.64883 0.07916 0.0
C695 C 0.55014 0.60292 0.04157 0.0
C696 C 0.63051 0.71597 0.09178 0.0
C697 C 0.61823 0.70027 0.08959 0.0
C698 C 0.59211 0.671 0.05028 0.0
C699 C 0.57276 0.62629 0.05646 0.0
C700 C 0.58154 0.6435 0.06115 0.0
C701 C 0.61413 0.6934 0.07013 0.0
C702 C 0.60197 0.6763 0.06775 0.0
H703 H 0.57854 0.59467 0.06024 0.0
H704 H 0.59159 0.62223 0.06847 0.0
H705 H 0.57523 0.65121 0.03296 0.0
H706 H 0.6408 0.72525 0.04148 0.0
H707 H 0.61994 0.69799 0.03774 0.0
C708 C 0.46112 0.03522 0.01891 0.0
C709 C 0.46813 0.0268 0.02768 0.0
C710 C 0.4469 0.03366 0.027 0.0
C711 C 0.42069 0.02025 0.0732 0.0
H712 H 0.38773 0.0159 0.0349 0.0
C713 C 0.36265 0.01982 0.09848 0.0
C714 C 0.34823 0.00951 0.0886 0.0
C715 C 0.37732 0.02169 0.09169 0.0
C716 C 0.39675 0.01696 0.04582 0.0
H717 H 0.46588 0.01047 0.05226 0.0
H718 H 0.44113 0.00774 0.06628 0.0
H719 H 0.41343 0.02016 0.02203 0.0
H720 H 0.33793 0.99277 0.06411 0.0
H721 H 0.36351 0.99592 0.05238 0.0
H722 H 0.40389 0.01677 0.09698 0.0
C723 C 0.44665 0.01563 0.05322 0.0
C724 C 0.41158 0.01962 0.03843 0.0
C725 C 0.46084 0.01715 0.04511 0.0
C726 C 0.3488 1.00083 0.07205 0.0
C727 C 0.36349 1.00274 0.06522 0.0
C728 C 0.40586 0.01763 0.08059 0.0
C729 C 0.43937 0.02369 0.0441 0.0
C730 C 0.42374 0.02128 0.05202 0.0
C731 C 0.37796 0.01332 0.07481 0.0
C732 C 0.39369 0.01591 0.06699 0.0
H733 H 0.46641 0.04276 0.00549 0.0
H734 H 0.44175 0.04023 0.01978 0.0
H735 H 0.42981 0.02159 0.08411 0.0
H736 H 0.36268 0.02672 0.11126 0.0
H737 H 0.38822 0.03005 0.09932 0.0
C738 C 0.47144 0.04753 0.46223 0.0
C739 C 0.48227 0.0512 0.47852 0.0
C740 C 0.46289 0.05551 0.45933 0.0
C741 C 0.4594 0.09035 0.47161 0.0
H742 H 0.41444 0.06148 0.46047 0.0
C743 C 0.40913 0.10823 0.46385 0.0
C744 C 0.39802 0.10086 0.44799 0.0
C745 C 0.4208 0.1039 0.46846 0.0
C746 C 0.42697 0.06975 0.4634 0.0
H747 H 0.49333 0.06683 0.50391 0.0
H748 H 0.4781 0.08091 0.49889 0.0
H749 H 0.43249 0.05117 0.46704 0.0
H750 H 0.39111 0.08378 0.42388 0.0
H751 H 0.41131 0.07639 0.43177 0.0
H752 H 0.45365 0.10897 0.46779 0.0
C753 C 0.47634 0.07179 0.48834 0.0
C754 C 0.43734 0.06383 0.46719 0.0
C755 C 0.48507 0.06377 0.49121 0.0
C756 C 0.3993 0.08959 0.43636 0.0
C757 C 0.41086 0.08527 0.44095 0.0
C758 C 0.44892 0.09633 0.46781 0.0
C759 C 0.46476 0.06734 0.47274 0.0
C760 C 0.45377 0.07403 0.47082 0.0
C761 C 0.42152 0.09207 0.45734 0.0
C762 C 0.43265 0.08608 0.46315 0.0
H763 H 0.46919 0.0381 0.45195 0.0
H764 H 0.45443 0.05209 0.4468 0.0
H765 H 0.47197 0.09851 0.47442 0.0
H766 H 0.40851 0.11699 0.4731 0.0
H767 H 0.42883 0.10936 0.48117 0.0
C768 C 0.02296 0.50791 0.45507 0.0
C769 C 0.01718 0.51428 0.46965 0.0
C770 C 0.01461 0.49187 0.45093 0.0
C771 C 0.98638 0.45346 0.47444 0.0
H772 H 0.98766 0.43887 0.4201 0.0
C773 C 0.96111 0.38722 0.45497 0.0
C774 C 0.97162 0.38416 0.44351 0.0
C775 C 0.96451 0.40275 0.45793 0.0
C776 C 0.98722 0.44276 0.43536 0.0
H777 H 0.99776 0.50883 0.49089 0.0
H778 H 0.98294 0.48051 0.48353 0.0
H779 H 0.99638 0.46665 0.425 0.0
H780 H 0.99393 0.39504 0.42619 0.0
H781 H 0.99974 0.42206 0.43118 0.0
H782 H 0.97732 0.42946 0.48473 0.0
C783 C 0.99408 0.48805 0.47542 0.0
C784 C 0.99222 0.45868 0.4382 0.0
C785 C 1.00247 0.50426 0.47952 0.0
C786 C 0.98558 0.39697 0.4351 0.0
C787 C 0.98886 0.41244 0.43784 0.0
C788 C 0.98123 0.43746 0.47155 0.0
C789 C 1.00019 0.48165 0.46124 0.0
C790 C 0.99234 0.46434 0.45786 0.0
C791 C 0.97836 0.41551 0.44924 0.0
C792 C 0.98205 0.43205 0.45207 0.0
H793 H 0.03423 0.51528 0.44713 0.0
H794 H 0.01985 0.48739 0.44018 0.0
H795 H 0.98642 0.45741 0.48981 0.0
H796 H 0.95027 0.37761 0.46169 0.0
H797 H 0.95619 0.40476 0.46675 0.0
C798 C 0.58164 0.59039 0.4878 0.0
C799 C 0.57375 0.59897 0.48303 0.0
C800 C 0.59786 0.59652 0.48267 0.0
C801 C 0.62795 0.62395 0.44608 0.0
H802 H 0.66012 0.62803 0.48553 0.0
C803 C 0.69417 0.66849 0.43386 0.0
C804 C 0.70583 0.66435 0.43926 0.0
C805 C 0.67807 0.65851 0.43885 0.0
C806 C 0.65124 0.6267 0.47424 0.0
H807 H 0.5771 0.62114 0.47018 0.0
H808 H 0.60505 0.63153 0.46091 0.0
H809 H 0.63165 0.61394 0.49535 0.0
H810 H 0.70973 0.64647 0.45425 0.0
H811 H 0.68138 0.62889 0.46295 0.0
H812 H 0.64733 0.63681 0.42505 0.0
C813 C 0.59864 0.61997 0.46829 0.0
C814 C 0.63498 0.61867 0.47988 0.0
C815 C 0.58257 0.61396 0.47357 0.0
C816 C 0.70101 0.64998 0.44987 0.0
C817 C 0.68482 0.63995 0.45491 0.0
C818 C 0.6441 0.63184 0.44043 0.0
C819 C 0.60638 0.61124 0.47252 0.0
C820 C 0.62327 0.61767 0.46601 0.0
C821 C 0.67318 0.6441 0.44934 0.0
C822 C 0.65597 0.63376 0.45463 0.0
H823 H 0.57522 0.57878 0.49499 0.0
H824 H 0.60361 0.58958 0.48611 0.0
H825 H 0.6191 0.62306 0.43499 0.0
H826 H 0.69745 0.67951 0.4258 0.0
H827 H 0.66946 0.66222 0.43472 0.0
C828 C 0.99117 0.5531 0.95702 0.0
C829 C 0.99403 0.54969 0.97713 0.0
C830 C 0.98544 0.56361 0.95341 0.0
C831 C 0.98761 0.59781 0.97813 0.0
H832 H 0.96133 0.59774 0.93272 0.0
C833 C 0.97653 0.64969 0.96395 0.0
C834 C 0.97816 0.6554 0.94367 0.0
C835 C 0.97559 0.63519 0.96825 0.0
C836 C 0.96875 0.59794 0.9454 0.0
H837 H 0.99148 0.55325 0.00924 0.0
H838 H 0.98114 0.57126 1.00295 0.0
H839 H 0.96366 0.57426 0.94026 0.0
H840 H 0.97957 0.65017 0.91192 0.0
H841 H 0.97826 0.6249 0.9195 0.0
H842 H 0.9931 0.6215 0.98303 0.0
C843 C 0.9838 0.56622 0.98995 0.0
C844 C 0.97005 0.58449 0.94975 0.0
C845 C 0.98963 0.55582 0.99356 0.0
C846 C 0.97836 0.64609 0.92771 0.0
C847 C 0.9775 0.63157 0.93204 0.0
C848 C 0.98632 0.61118 0.97381 0.0
C849 C 0.98235 0.5708 0.96984 0.0
C850 C 0.97959 0.58434 0.9661 0.0
C851 C 0.97636 0.62609 0.95241 0.0
C852 C 0.97698 0.61147 0.95732 0.0
H853 H 0.99439 0.54853 0.94401 0.0
H854 H 0.98449 0.5669 0.93773 0.0
H855 H 0.9954 0.59828 0.9905 0.0
H856 H 0.97612 0.65647 0.9766 0.0
H857 H 0.9744 0.63118 0.98407 0.0
C858 C 0.49611 0.49517 0.98936 0.0
C859 C 0.49484 0.50694 0.99985 0.0
C860 C 0.48246 0.48158 0.98295 0.0
C861 C 0.43963 0.45613 0.99528 0.0
H862 H 0.4398 0.43583 0.94499 0.0
C863 C 0.3853 0.39685 0.97037 0.0
C864 C 0.3886 0.38563 0.96184 0.0
C865 C 0.39765 0.41221 0.97403 0.0
C866 C 0.43961 0.44125 0.95918 0.0
H867 H 0.47812 0.51383 0.0113 0.0
H868 H 0.45399 0.48987 0.99998 0.0
H869 H 0.4619 0.46212 0.95212 0.0
H870 H 0.40762 0.38188 0.95051 0.0
H871 H 0.42923 0.40867 0.95703 0.0
H872 H 0.41742 0.43515 1.00245 0.0
C873 C 0.46569 0.49123 0.99685 0.0
C874 C 0.45227 0.45638 0.96326 0.0
C875 C 0.47949 0.50502 1.00316 0.0
C876 C 0.40462 0.3902 0.95706 0.0
C877 C 0.41701 0.40561 0.96068 0.0
C878 C 0.42694 0.44099 0.99119 0.0
C879 C 0.46703 0.47924 0.98689 0.0
C880 C 0.45261 0.46393 0.98152 0.0
C881 C 0.41369 0.41683 0.96922 0.0
C882 C 0.42687 0.43324 0.97321 0.0
H883 H 0.50775 0.49627 0.9865 0.0
H884 H 0.48402 0.47259 0.9756 0.0
H885 H 0.43957 0.46147 0.00961 0.0
H886 H 0.3731 0.3938 0.97421 0.0
H887 H 0.39459 0.42054 0.98038 0.0
C888 C 0.55665 0.04846 0.99761 0.0
C889 C 0.54522 0.04938 0.98492 0.0
C890 C 0.57278 0.05564 0.9916 0.0
C891 C 0.59813 0.06949 0.94479 0.0
H892 H 0.63293 0.08576 0.98399 0.0
C893 C 0.66527 0.0969 0.92114 0.0
C894 C 0.67433 0.09188 0.93287 0.0
C895 C 0.64974 0.09301 0.92733 0.0
C896 C 0.62333 0.08118 0.97287 0.0
H897 H 0.54201 0.05936 0.95648 0.0
H898 H 0.5702 0.07224 0.94627 0.0
H899 H 0.6057 0.07759 0.99547 0.0
H900 H 0.67412 0.07881 0.96032 0.0
H901 H 0.64715 0.07212 0.97106 0.0
H902 H 0.61585 0.07312 0.92221 0.0
C903 C 0.56663 0.0656 0.96062 0.0
C904 C 0.60769 0.07647 0.97945 0.0
C905 C 0.55046 0.05833 0.96657 0.0
C906 C 0.6675 0.08288 0.95089 0.0
C907 C 0.65207 0.07914 0.95716 0.0
C908 C 0.6138 0.07433 0.93819 0.0
C909 C 0.57794 0.06403 0.97282 0.0
C910 C 0.59482 0.07032 0.96556 0.0
C911 C 0.64301 0.08417 0.94548 0.0
C912 C 0.62653 0.08 0.95221 0.0
H913 H 0.55305 0.04162 0.01181 0.0
H914 H 0.58104 0.05399 1.00133 0.0
H915 H 0.58854 0.06459 0.93368 0.0
H916 H 0.67017 0.10385 0.90719 0.0
H917 H 0.64308 0.09713 0.91805 0.0
C918 C 0.54763 0.00884 0.51254 0.0
C919 C 0.54512 0.02166 0.51579 0.0
C920 C 0.56117 0.00874 0.52022 0.0
C921 C 0.59194 0.02493 0.5601 0.0
H922 H 0.61207 0.00709 0.52678 0.0
C923 C 0.63274 1.00191 0.59422 0.0
C924 C 0.6459 1.00383 0.58253 0.0
C925 C 0.62176 0.00606 0.58602 0.0
C926 C 0.60678 0.0123 0.53627 0.0
H927 H 0.55506 0.04453 0.52974 0.0
H928 H 0.57898 0.04435 0.54338 0.0
H929 H 0.59124 0.01154 0.51217 0.0
H930 H 0.65796 0.01199 0.55312 0.0
H931 H 0.63897 0.01936 0.53895 0.0
H932 H 0.60756 0.02566 0.58425 0.0
C933 C 0.57028 0.03434 0.53481 0.0
C934 C 0.59469 0.01471 0.52793 0.0
C935 C 0.55665 0.0345 0.52693 0.0
C936 C 0.6479 0.0102 0.56253 0.0
C937 C 0.63696 0.01439 0.55436 0.0
C938 C 0.60408 0.02251 0.5685 0.0
C939 C 0.5727 0.02144 0.53146 0.0
C940 C 0.58687 0.02075 0.53982 0.0
C941 C 0.62366 0.01228 0.56593 0.0
C942 C 0.6115 0.01592 0.55677 0.0
H943 H 0.53906 0.99871 0.50405 0.0
H944 H 0.56244 0.99848 0.51763 0.0
H945 H 0.58614 0.02955 0.56972 0.0
H946 H 0.63082 0.99705 0.60968 0.0
H947 H 0.61157 1.00404 0.5953 0.0
C948 C 0.02726 0.59876 0.51769 0.0
C949 C 0.04104 0.59775 0.52247 0.0
C950 C 0.02624 0.61207 0.52317 0.0
C951 C 0.04484 0.64728 0.55635 0.0
H952 H 0.03167 0.66657 0.51356 0.0
C953 C 0.05914 0.71219 0.55943 0.0
C954 C 0.04717 0.71558 0.5528 0.0
C955 C 0.05735 0.69721 0.55662 0.0
C956 C 0.03519 0.66126 0.52579 0.0
H957 H 0.06414 0.60947 0.53765 0.0
H958 H 0.06236 0.63244 0.54714 0.0
H959 H 0.02933 0.64088 0.50815 0.0
H960 H 0.02394 0.70582 0.53797 0.0
H961 H 0.02082 0.6798 0.53326 0.0
H962 H 0.05091 0.66776 0.57388 0.0
C963 C 0.05231 0.62306 0.53924 0.0
C964 C 0.03379 0.64648 0.52271 0.0
C965 C 0.05337 0.60989 0.53367 0.0
C966 C 0.03344 0.70367 0.54321 0.0
C967 C 0.03167 0.68874 0.54041 0.0
C968 C 0.04623 0.66205 0.55944 0.0
C969 C 0.03891 0.6245 0.53371 0.0
C970 C 0.0388 0.63941 0.53784 0.0
C971 C 0.04357 0.68528 0.54711 0.0
C972 C 0.04161 0.66932 0.5441 0.0
H973 H 0.01758 0.58961 0.50902 0.0
H974 H 0.01567 0.61275 0.51887 0.0
H975 H 0.0486 0.64207 0.56844 0.0
H976 H 0.06986 0.72109 0.56685 0.0
H977 H 0.06686 0.69503 0.56173 0.0
C978 C 0.4768 0.49669 0.524 0.0
C979 C 0.49008 0.50425 0.53705 0.0
C980 C 0.46233 0.4842 0.53126 0.0
C981 C 0.44142 0.45344 0.56954 0.0
H982 H 0.40838 0.4653 0.56515 0.0
C983 C 0.37762 0.41385 0.60332 0.0
C984 C 0.36474 0.41272 0.59164 0.0
C985 C 0.39345 0.42514 0.59825 0.0
C986 C 0.41734 0.46164 0.56627 0.0
H987 H 0.49903 0.50358 0.56743 0.0
H988 H 0.47369 0.48129 0.57997 0.0
H989 H 0.43524 0.48315 0.55201 0.0
H990 H 0.35834 0.42264 0.56561 0.0
H991 H 0.38576 0.44184 0.55637 0.0
H992 H 0.4234 0.43162 0.58304 0.0
C993 C 0.47455 0.4853 0.56419 0.0
C994 C 0.43275 0.47193 0.55883 0.0
C995 C 0.48905 0.49799 0.55697 0.0
C996 C 0.36798 0.42329 0.57506 0.0
C997 C 0.38377 0.43439 0.56981 0.0
C998 C 0.42586 0.44295 0.57669 0.0
C999 C 0.46092 0.47882 0.55163 0.0
C1000 C 0.44485 0.46786 0.5602 0.0
C1001 C 0.39674 0.43541 0.58123 0.0
C1002 C 0.41357 0.44687 0.57493 0.0
H1003 H 0.47734 0.50107 0.50847 0.0
H1004 H 0.452 0.47921 0.52124 0.0
H1005 H 0.45062 0.4501 0.57076 0.0
H1006 H 0.37549 0.4059 0.61625 0.0
H1007 H 0.40309 0.42575 0.60762 0.0
C1008 C 0.75936 0.85898 0.37016 0.0
C1009 C 0.74616 0.8608 0.37525 0.0
C1010 C 0.75916 0.84483 0.37472 0.0
C1011 C 0.74006 0.80935 0.40796 0.0
H1012 H 0.75145 0.78993 0.36487 0.0
C1013 C 0.72785 0.74553 0.41594 0.0
C1014 C 0.7396 0.74229 0.40849 0.0
C1015 C 0.72889 0.76009 0.41174 0.0
C1016 C 0.74844 0.79528 0.37717 0.0
H1017 H 0.72268 0.8495 0.38973 0.0
H1018 H 0.72233 0.82478 0.39776 0.0
H1019 H 0.75343 0.81557 0.35854 0.0
H1020 H 0.76161 0.75173 0.39068 0.0
H1021 H 0.76359 0.77727 0.3837 0.0
H1022 H 0.73521 0.78922 0.42669 0.0
C1023 C 0.7328 0.83427 0.39019 0.0
C1024 C 0.74957 0.80996 0.37352 0.0
C1025 C 0.73294 0.84835 0.38545 0.0
C1026 C 0.75231 0.75384 0.39654 0.0
C1027 C 0.75341 0.76846 0.39247 0.0
C1028 C 0.73905 0.79474 0.41167 0.0
C1029 C 0.74583 0.83231 0.38467 0.0
C1030 C 0.74528 0.81708 0.38884 0.0
C1031 C 0.74176 0.7718 0.40014 0.0
C1032 C 0.74311 0.78747 0.39627 0.0
H1033 H 0.76964 0.86834 0.36215 0.0
H1034 H 0.76941 0.84366 0.37043 0.0
H1035 H 0.73687 0.81468 0.42012 0.0
H1036 H 0.71786 0.73683 0.42508 0.0
H1037 H 0.71954 0.76215 0.41755 0.0
C1038 C 0.25901 0.95 0.38338 0.0
C1039 C 0.24218 0.94282 0.3835 0.0
C1040 C 0.26852 0.96556 0.3898 0.0
C1041 C 0.26645 1.00213 0.39951 0.0
H1042 H 0.30747 0.01535 0.4256 0.0
C1043 C 0.3115 0.06793 0.41281 0.0
C1044 C 0.32144 0.0721 0.43012 0.0
C1045 C 0.30164 0.05209 0.40791 0.0
C1046 C 0.29595 0.01187 0.41859 0.0
H1047 H 0.22211 0.94608 0.39118 0.0
H1048 H 0.23853 0.97293 0.40304 0.0
H1049 H 0.29065 0.98792 0.41646 0.0
H1050 H 0.32853 0.06281 0.45613 0.0
H1051 H 0.31089 0.03515 0.44807 0.0
H1052 H 0.27141 0.02589 0.40241 0.0
C1053 C 0.24452 0.96685 0.39731 0.0
C1054 C 0.28638 0.99611 0.41301 0.0
C1055 C 0.23505 0.9514 0.3906 0.0
C1056 C 0.32106 0.06001 0.44264 0.0
C1057 C 0.31102 0.04412 0.43788 0.0
C1058 C 0.27592 0.01782 0.40533 0.0
C1059 C 0.26141 0.97426 0.39682 0.0
C1060 C 0.27152 0.99101 0.40325 0.0
C1061 C 0.30125 0.03992 0.42034 0.0
C1062 C 0.29088 0.02298 0.41481 0.0
H1063 H 0.26484 0.94373 0.37778 0.0
H1064 H 0.28145 0.97086 0.38882 0.0
H1065 H 0.25523 0.99881 0.39178 0.0
H1066 H 0.3116 0.07694 0.40271 0.0
H1067 H 0.29458 0.04944 0.39406 0.0
C1068 C 0.12591 0.36054 0.34086 0.0
C1069 C 0.13984 0.36742 0.35292 0.0
C1070 C 0.11091 0.35628 0.34947 0.0
C1071 C 0.09391 0.36674 0.39313 0.0
H1072 H 0.05359 0.33104 0.37647 0.0
C1073 C 0.03402 0.35157 0.43199 0.0
C1074 C 0.02081 0.34765 0.41913 0.0
C1075 C 0.04813 0.35269 0.42429 0.0
C1076 C 0.06475 0.34113 0.38116 0.0
H1077 H 0.14879 0.37416 0.38376 0.0
H1078 H 0.12269 0.36636 0.39882 0.0
H1079 H 0.07887 0.33466 0.36261 0.0
H1080 H 0.01201 0.34155 0.3881 0.0
H1081 H 0.03671 0.34361 0.37464 0.0
H1082 H 0.07988 0.37328 0.41156 0.0
C1083 C 0.12335 0.3647 0.3826 0.0
C1084 C 0.07924 0.3432 0.37322 0.0
C1085 C 0.13832 0.36906 0.37398 0.0
C1086 C 0.02197 0.34462 0.39843 0.0
C1087 C 0.03609 0.34569 0.39074 0.0
C1088 C 0.07948 0.36464 0.40109 0.0
C1089 C 0.10952 0.35873 0.37035 0.0
C1090 C 0.09402 0.35606 0.37911 0.0
C1091 C 0.04939 0.34988 0.40354 0.0
C1092 C 0.06471 0.35183 0.39521 0.0
H1093 H 0.12669 0.35918 0.32457 0.0
H1094 H 0.10054 0.35179 0.33955 0.0
H1095 H 0.105 0.37699 0.39766 0.0
H1096 H 0.03353 0.3539 0.44802 0.0
H1097 H 0.05807 0.35573 0.43463 0.0
C1098 C 0.16406 0.39166 0.78442 0.0
C1099 C 0.16468 0.38743 0.805 0.0
C1100 C 0.15332 0.39673 0.77823 0.0
C1101 C 0.11462 0.39302 0.79398 0.0
H1102 H 0.12354 0.42353 0.74983 0.0
C1103 C 0.06802 0.41098 0.76768 0.0
C1104 C 0.06635 0.4125 0.74647 0.0
C1105 C 0.08064 0.40911 0.77543 0.0
C1106 C 0.12082 0.41488 0.76207 0.0
H1107 H 0.1551 0.38617 0.83542 0.0
H1108 H 0.13661 0.3953 0.82469 0.0
H1109 H 0.14498 0.4191 0.7627 0.0
H1110 H 0.07678 0.41331 0.71679 0.0
H1111 H 0.0987 0.40991 0.73029 0.0
H1112 H 0.09044 0.38869 0.79324 0.0
C1113 C 0.14419 0.39435 0.81323 0.0
C1114 C 0.13313 0.41236 0.76948 0.0
C1115 C 0.15493 0.38927 0.81943 0.0
C1116 C 0.07768 0.41218 0.7332 0.0
C1117 C 0.09033 0.41034 0.74097 0.0
C1118 C 0.10234 0.39557 0.78661 0.0
C1119 C 0.14292 0.39774 0.79246 0.0
C1120 C 0.13017 0.40129 0.78543 0.0
C1121 C 0.09196 0.40874 0.76218 0.0
C1122 C 0.10523 0.40644 0.77044 0.0
H1123 H 0.17137 0.39039 0.77287 0.0
H1124 H 0.15264 0.39911 0.76209 0.0
H1125 H 0.11178 0.38419 0.806 0.0
H1126 H 0.05958 0.41126 0.77838 0.0
H1127 H 0.08161 0.40811 0.79186 0.0
C1128 C 0.69733 0.8257 0.83098 0.0
C1129 C 0.70481 0.83734 0.81553 0.0
C1130 C 0.69194 0.80984 0.82705 0.0
C1131 C 0.69495 0.78301 0.78982 0.0
H1132 H 0.65427 0.7523 0.81442 0.0
C1133 C 0.66002 0.71724 0.76672 0.0
C1134 C 0.65379 0.70603 0.7829 0.0
C1135 C 0.6666 0.73335 0.77047 0.0
C1136 C 0.66571 0.76071 0.80757 0.0
H1137 H 0.71275 0.84148 0.7839 0.0
H1138 H 0.70312 0.81376 0.77685 0.0
H1139 H 0.66541 0.78018 0.82145 0.0
H1140 H 0.64951 0.70297 0.81569 0.0
H1141 H 0.66084 0.73101 0.82217 0.0
H1142 H 0.69498 0.76341 0.77564 0.0
C1143 C 0.70166 0.8169 0.79216 0.0
C1144 C 0.67216 0.77672 0.81166 0.0
C1145 C 0.7072 0.83281 0.79618 0.0
C1146 C 0.65419 0.71128 0.80287 0.0
C1147 C 0.66062 0.72735 0.80658 0.0
C1148 C 0.68841 0.76698 0.78559 0.0
C1149 C 0.69373 0.80516 0.80747 0.0
C1150 C 0.68692 0.7881 0.80295 0.0
C1151 C 0.66693 0.73857 0.79045 0.0
C1152 C 0.67376 0.75565 0.79452 0.0
H1153 H 0.69554 0.82888 0.84612 0.0
H1154 H 0.68627 0.80123 0.83938 0.0
H1155 H 0.70642 0.79137 0.78303 0.0
H1156 H 0.65992 0.7136 0.75116 0.0
H1157 H 0.67124 0.74171 0.7577 0.0
C1158 C 0.21886 0.9242 0.79922 0.0
C1159 C 0.2129 0.9093 0.80884 0.0
C1160 C 0.23459 0.93243 0.79186 0.0
C1161 C 0.27421 0.93594 0.7991 0.0
H1162 H 0.2843 0.96089 0.74868 0.0
C1163 C 0.33906 0.97294 0.76784 0.0
C1164 C 0.3436 0.98842 0.76125 0.0
C1165 C 0.32299 0.96208 0.77225 0.0
C1166 C 0.28167 0.95404 0.76284 0.0
H1167 H 0.21872 0.89123 0.81799 0.0
H1168 H 0.24632 0.90563 0.80496 0.0
H1169 H 0.25631 0.94366 0.75861 0.0
H1170 H 0.33481 0.00459 0.75388 0.0
H1171 H 0.30678 0.98564 0.76163 0.0
H1172 H 0.2996 0.9465 0.80343 0.0
C1173 C 0.23879 0.91097 0.80331 0.0
C1174 C 0.26565 0.94417 0.76853 0.0
C1175 C 0.22298 0.9027 0.81068 0.0
C1176 C 0.33171 0.99275 0.75891 0.0
C1177 C 0.31564 0.98187 0.76322 0.0
C1178 C 0.29024 0.94579 0.79337 0.0
C1179 C 0.24478 0.92597 0.79391 0.0
C1180 C 0.26174 0.93523 0.78691 0.0
C1181 C 0.31112 0.96645 0.77005 0.0
C1182 C 0.29413 0.95514 0.77536 0.0
H1183 H 0.21143 0.92965 0.79757 0.0
H1184 H 0.2389 0.94406 0.78501 0.0
H1185 H 0.2716 0.92935 0.81347 0.0
H1186 H 0.34793 0.96922 0.76977 0.0
H1187 H 0.31985 0.95024 0.7773 0.0
C1188 C 0.72961 0.95843 0.32933 0.0
C1189 C 0.73574 0.95227 0.31498 0.0
C1190 C 0.72453 0.96901 0.3231 0.0
C1191 C 0.70633 0.97709 0.27964 0.0
H1192 H 0.71408 0.01413 0.30939 0.0
C1193 C 0.67535 0.01314 0.25768 0.0
C1194 C 0.67044 0.01906 0.27384 0.0
C1195 C 0.68497 0.00633 0.26148 0.0
C1196 C 0.71167 1.00372 0.30104 0.0
H1197 H 0.74198 0.95267 0.28311 0.0
H1198 H 0.73282 0.97108 0.27205 0.0
H1199 H 0.7291 1.00068 0.31821 0.0
H1200 H 0.67137 0.02214 0.30667 0.0
H1201 H 0.6876 0.00973 0.31343 0.0
H1202 H 0.68837 0.97955 0.26313 0.0
C1203 C 0.73206 0.96778 0.28812 0.0
C1204 C 0.72037 0.99613 0.306 0.0
C1205 C 0.7374 0.95738 0.29443 0.0
C1206 C 0.67505 0.01776 0.2939 0.0
C1207 C 0.6845 0.01079 0.29773 0.0
C1208 C 0.69749 0.98455 0.27484 0.0
C1209 C 0.72529 0.97342 0.30236 0.0
C1210 C 0.71761 0.98262 0.29553 0.0
C1211 C 0.68971 0.00513 0.28155 0.0
C1212 C 0.69987 0.99782 0.2857 0.0
H1213 H 0.72832 0.95468 0.34526 0.0
H1214 H 0.71924 0.97309 0.33435 0.0
H1215 H 0.70382 0.96654 0.27154 0.0
H1216 H 0.67209 0.0141 0.24202 0.0
H1217 H 0.68891 1.00227 0.24863 0.0
C1218 C 0.16932 0.83039 0.2981 0.0
C1219 C 0.16793 0.83665 0.31668 0.0
C1220 C 0.15647 0.81642 0.29074 0.0
C1221 C 0.11228 0.79179 0.29571 0.0
H1222 H 0.11824 0.75986 0.26929 0.0
C1223 C 0.05924 0.73014 0.27962 0.0
C1224 C 0.05893 0.72309 0.26096 0.0
C1225 C 0.07276 0.74415 0.28534 0.0
C1226 C 0.1164 0.76877 0.27639 0.0
H1227 H 0.15223 0.83263 0.34257 0.0
H1228 H 0.12994 0.8083 0.32988 0.0
H1229 H 0.14159 0.78368 0.28177 0.0
H1230 H 0.07271 0.72532 0.23365 0.0
H1231 H 0.09642 0.74994 0.24365 0.0
H1232 H 0.08714 0.77692 0.29049 0.0
C1233 C 0.1408 0.81437 0.3207 0.0
C1234 C 0.12978 0.78241 0.28357 0.0
C1235 C 0.1536 0.82832 0.32802 0.0
C1236 C 0.07253 0.73046 0.24811 0.0
C1237 C 0.08615 0.7445 0.2539 0.0
C1238 C 0.09894 0.77819 0.28857 0.0
C1239 C 0.14195 0.80837 0.3018 0.0
C1240 C 0.12786 0.79402 0.29354 0.0
C1241 C 0.08641 0.75152 0.27259 0.0
C1242 C 0.10079 0.76641 0.27903 0.0
H1243 H 0.18011 0.83657 0.28886 0.0
H1244 H 0.15774 0.8122 0.27606 0.0
H1245 H 0.11036 0.80064 0.30285 0.0
H1246 H 0.04902 0.72479 0.28996 0.0
H1247 H 0.07262 0.74907 0.29998 0.0
C1248 C 0.22706 0.39668 0.28646 0.0
C1249 C 0.21955 0.39106 0.30564 0.0
C1250 C 0.24188 0.39779 0.28232 0.0
C1251 C 0.27749 0.40203 0.3099 0.0
H1252 H 0.29144 0.39852 0.25565 0.0
C1253 C 0.34163 0.41338 0.29424 0.0
C1254 C 0.34958 0.42306 0.27707 0.0
C1255 C 0.32518 0.40748 0.29724 0.0
C1256 C 0.28773 0.39962 0.27086 0.0
H1257 H 0.22121 0.38107 0.33496 0.0
H1258 H 0.24685 0.38261 0.32753 0.0
H1259 H 0.26331 0.3907 0.26163 0.0
H1260 H 0.34634 0.43381 0.24936 0.0
H1261 H 0.31762 0.42352 0.25463 0.0
H1262 H 0.30192 0.41106 0.31909 0.0
C1263 C 0.2415 0.3866 0.31588 0.0
C1264 C 0.27161 0.39513 0.27431 0.0
C1265 C 0.2267 0.38557 0.32007 0.0
C1266 C 0.34061 0.42642 0.26276 0.0
C1267 C 0.32412 0.42044 0.26571 0.0
C1268 C 0.29357 0.40641 0.30648 0.0
C1269 C 0.24954 0.3932 0.29719 0.0
C1270 C 0.26631 0.39648 0.29382 0.0
C1271 C 0.31625 0.41103 0.2831 0.0
C1272 C 0.29893 0.40545 0.28687 0.0
H1273 H 0.22192 0.401 0.27496 0.0
H1274 H 0.24771 0.40304 0.26782 0.0
H1275 H 0.27399 0.40355 0.32503 0.0
H1276 H 0.34814 0.41049 0.30554 0.0
H1277 H 0.31944 0.40013 0.31067 0.0
C1278 C 0.2243 0.36374 0.8705 0.0
C1279 C 0.21188 0.34956 0.86274 0.0
C1280 C 0.23799 0.36425 0.87925 0.0
C1281 C 0.26093 0.34294 0.87931 0.0
H1282 H 0.2775 0.36226 0.93166 0.0
C1283 C 0.31698 0.34474 0.91506 0.0
C1284 C 0.31617 0.34094 0.93608 0.0
C1285 C 0.30532 0.34747 0.90592 0.0
C1286 C 0.27298 0.35679 0.91705 0.0
H1287 H 0.20418 0.32484 0.85813 0.0
H1288 H 0.22778 0.32577 0.87316 0.0
H1289 H 0.25521 0.36409 0.91583 0.0
H1290 H 0.30252 0.33727 0.964 0.0
H1291 H 0.28206 0.34185 0.94797 0.0
H1292 H 0.27828 0.33524 0.88065 0.0
C1293 C 0.2271 0.33653 0.87242 0.0
C1294 C 0.26034 0.35799 0.90789 0.0
C1295 C 0.21348 0.33599 0.8639 0.0
C1296 C 0.30351 0.34014 0.94777 0.0
C1297 C 0.29184 0.3429 0.93861 0.0
C1298 C 0.27357 0.3418 0.88838 0.0
C1299 C 0.23957 0.35064 0.88013 0.0
C1300 C 0.254 0.35083 0.88907 0.0
C1301 C 0.29253 0.34648 0.91753 0.0
C1302 C 0.27964 0.34853 0.90749 0.0
H1303 H 0.22343 0.37439 0.86986 0.0
H1304 H 0.24743 0.37531 0.88503 0.0
H1305 H 0.25644 0.33744 0.8647 0.0
H1306 H 0.32662 0.34557 0.90559 0.0
H1307 H 0.30635 0.3504 0.8897 0.0
C1308 C 0.73414 0.95436 0.87655 0.0
C1309 C 0.71961 0.94095 0.87124 0.0
C1310 C 0.73423 0.96771 0.88419 0.0
C1311 C 0.70744 0.98027 0.90823 0.0
H1312 H 0.73939 0.02216 0.88929 0.0
C1313 C 0.69954 0.03463 0.91691 0.0
C1314 C 0.71299 0.049 0.92228 0.0
C1315 C 0.70116 0.02153 0.91259 0.0
C1316 C 0.73052 0.01056 0.89495 0.0
H1317 H 0.69373 0.93113 0.87024 0.0
H1318 H 0.69395 0.95436 0.88286 0.0
H1319 H 0.74084 0.99922 0.87796 0.0
H1320 H 0.73869 0.06079 0.92757 0.0
H1321 H 0.74149 0.03785 0.91996 0.0
H1322 H 0.69691 0.99157 0.92485 0.0
C1323 C 0.70529 0.95455 0.8814 0.0
C1324 C 0.73135 0.9974 0.88847 0.0
C1325 C 0.7052 0.94125 0.87381 0.0
C1326 C 0.72808 0.04989 0.92351 0.0
C1327 C 0.72971 0.03679 0.91902 0.0
C1328 C 0.70657 0.99339 0.91462 0.0
C1329 C 0.71978 0.96794 0.88676 0.0
C1330 C 0.71967 0.98206 0.89478 0.0
C1331 C 0.71627 0.02248 0.9134 0.0
C1332 C 0.71796 0.00867 0.90783 0.0
H1333 H 0.74546 0.9546 0.87467 0.0
H1334 H 0.74561 0.97779 0.8883 0.0
H1335 H 0.69845 0.96867 0.91378 0.0
H1336 H 0.68775 0.03353 0.91579 0.0
H1337 H 0.6906 0.01074 0.90808 0.0
C1338 C 0.14602 0.83437 0.89501 0.0
C1339 C 0.14998 0.83773 0.87412 0.0
C1340 C 0.13363 0.81955 0.90142 0.0
C1341 C 0.10685 0.77843 0.88533 0.0
H1342 H 0.07485 0.78156 0.91776 0.0
C1343 C 0.04038 0.73003 0.88693 0.0
C1344 C 0.03129 0.72739 0.90486 0.0
C1345 C 0.0563 0.74224 0.88575 0.0
C1346 C 0.08376 0.78035 0.90909 0.0
H1347 H 0.1449 0.8278 0.84379 0.0
H1348 H 0.12337 0.80196 0.85499 0.0
H1349 H 0.10083 0.80491 0.91151 0.0
H1350 H 0.03198 0.73511 0.9359 0.0
H1351 H 0.05989 0.75625 0.93399 0.0
H1352 H 0.08965 0.75391 0.8826 0.0
C1353 C 0.12979 0.81077 0.86641 0.0
C1354 C 0.09868 0.79377 0.9055 0.0
C1355 C 0.14209 0.82562 0.85998 0.0
C1356 C 0.03862 0.73693 0.9218 0.0
C1357 C 0.0546 0.74909 0.92068 0.0
C1358 C 0.09196 0.76496 0.88906 0.0
C1359 C 0.12507 0.80776 0.88709 0.0
C1360 C 0.11025 0.79303 0.8932 0.0
C1361 C 0.06358 0.75204 0.90253 0.0
C1362 C 0.08008 0.76584 0.90057 0.0
H1363 H 0.15191 0.84342 0.90631 0.0
H1364 H 0.13036 0.81747 0.91749 0.0
H1365 H 0.11562 0.77748 0.87598 0.0
H1366 H 0.03509 0.72291 0.87358 0.0
H1367 H 0.06273 0.7443 0.87141 0.0
C1368 C 0.40019 0.18732 0.73867 0.0
C1369 C 0.4133 0.19912 0.72752 0.0
C1370 C 0.39937 0.17295 0.74353 0.0
C1371 C 0.41333 0.14664 0.72529 0.0
H1372 H 0.39572 0.12445 0.77694 0.0
C1373 C 0.40457 0.08449 0.74275 0.0
C1374 C 0.38999 0.07357 0.75224 0.0
C1375 C 0.40904 0.10046 0.74105 0.0
C1376 C 0.40056 0.13045 0.76239 0.0
H1377 H 0.43606 0.20529 0.71325 0.0
H1378 H 0.43468 0.18008 0.72185 0.0
H1379 H 0.40115 0.15152 0.77216 0.0
H1380 H 0.36871 0.0709 0.76748 0.0
H1381 H 0.37639 0.09868 0.76426 0.0
H1382 H 0.41239 0.12546 0.71533 0.0
C1383 C 0.42498 0.18197 0.72668 0.0
C1384 C 0.4037 0.14597 0.75967 0.0
C1385 C 0.42585 0.19643 0.72192 0.0
C1386 C 0.38003 0.07899 0.76011 0.0
C1387 C 0.3845 0.09495 0.7584 0.0
C1388 C 0.41016 0.1311 0.72799 0.0
C1389 C 0.41162 0.16999 0.73731 0.0
C1390 C 0.40988 0.15415 0.74097 0.0
C1391 C 0.39903 0.10587 0.74881 0.0
C1392 C 0.40349 0.12274 0.74646 0.0
H1393 H 0.39045 0.18913 0.74344 0.0
H1394 H 0.38884 0.16394 0.75156 0.0
H1395 H 0.41788 0.15254 0.71061 0.0
H1396 H 0.41257 0.08072 0.7366 0.0
H1397 H 0.4204 0.10858 0.73378 0.0
C1398 C 0.89245 0.25613 0.71868 0.0
C1399 C 0.88323 0.25038 0.70086 0.0
C1400 C 0.90191 0.27232 0.7217 0.0
C1401 C 0.9235 0.30977 0.69247 0.0
H1402 H 0.93176 0.3278 0.74649 0.0
C1403 C 0.96989 0.37559 0.70591 0.0
C1404 C 0.98004 0.37887 0.72295 0.0
C1405 C 0.95664 0.36051 0.70332 0.0
C1406 C 0.92969 0.32294 0.73132 0.0
H1407 H 0.87622 0.25718 0.67254 0.0
H1408 H 0.89277 0.2857 0.67785 0.0
H1409 H 0.91032 0.3007 0.74188 0.0
H1410 H 0.98402 0.36878 0.75077 0.0
H1411 H 0.96098 0.34247 0.74622 0.0
H1412 H 0.94306 0.33193 0.68198 0.0
C1413 C 0.89272 0.27757 0.68945 0.0
C1414 C 0.91734 0.30739 0.72864 0.0
C1415 C 0.88308 0.26125 0.68651 0.0
C1416 C 0.97647 0.36671 0.73748 0.0
C1417 C 0.96317 0.35162 0.73493 0.0
C1418 C 0.93584 0.32534 0.69513 0.0
C1419 C 0.90252 0.2833 0.70692 0.0
C1420 C 0.91427 0.30047 0.70926 0.0
C1421 C 0.95313 0.34829 0.71774 0.0
C1422 C 0.93929 0.33205 0.71466 0.0
H1423 H 0.89285 0.24806 0.73003 0.0
H1424 H 0.90938 0.27619 0.7352 0.0
H1425 H 0.92166 0.30481 0.67737 0.0
H1426 H 0.97222 0.38466 0.69441 0.0
H1427 H 0.94909 0.35846 0.69005 0.0
C1428 C 0.79399 0.70231 0.68212 0.0
C1429 C 0.80606 0.70062 0.69218 0.0
C1430 C 0.77796 0.69319 0.68821 0.0
C1431 C 0.75467 0.67657 0.73394 0.0
H1432 H 0.71839 0.6575 0.69709 0.0
C1433 C 0.69044 0.65618 0.76294 0.0
C1434 C 0.68064 0.65934 0.74986 0.0
C1435 C 0.7048 0.65753 0.75573 0.0
C1436 C 0.72836 0.66289 0.7076 0.0
H1437 H 0.81086 0.68773 0.71599 0.0
H1438 H 0.78268 0.67201 0.72716 0.0
H1439 H 0.74541 0.66622 0.68416 0.0
H1440 H 0.67806 0.66612 0.71885 0.0
H1441 H 0.70329 0.66911 0.70649 0.0
H1442 H 0.73799 0.67435 0.75706 0.0
C1443 C 0.78568 0.68025 0.71434 0.0
C1444 C 0.74382 0.66773 0.7002 0.0
C1445 C 0.80174 0.68915 0.7079 0.0
C1446 C 0.68531 0.66352 0.7293 0.0
C1447 C 0.69977 0.66512 0.72217 0.0
C1448 C 0.73926 0.67198 0.74128 0.0
C1449 C 0.77371 0.68243 0.70478 0.0
C1450 C 0.75715 0.67491 0.7132 0.0
C1451 C 0.70984 0.66233 0.73534 0.0
C1452 C 0.72592 0.66541 0.7281 0.0
H1453 H 0.79702 0.71106 0.66994 0.0
H1454 H 0.76902 0.69521 0.68069 0.0
H1455 H 0.76477 0.68228 0.74423 0.0
H1456 H 0.68709 0.65276 0.77883 0.0
H1457 H 0.71202 0.65495 0.76625 0.0
C1458 C 0.79993 0.71515 0.10607 0.0
C1459 C 0.80941 0.71852 0.12377 0.0
C1460 C 0.78958 0.72123 0.10314 0.0
C1461 C 0.77905 0.75111 0.11829 0.0
H1462 H 0.73648 0.71923 0.1015 0.0
C1463 C 0.72461 0.76249 0.1101 0.0
C1464 C 0.71382 0.75488 0.09403 0.0
C1465 C 0.73711 0.75929 0.11444 0.0
C1466 C 0.74834 0.72838 0.1059 0.0
H1467 H 0.81608 0.73175 0.15177 0.0
H1468 H 0.79789 0.74256 0.14653 0.0
H1469 H 0.75703 0.71201 0.10767 0.0
H1470 H 0.70823 0.73844 0.0694 0.0
H1471 H 0.73002 0.73317 0.07659 0.0
H1472 H 0.77029 0.76754 0.1162 0.0
C1473 C 0.79853 0.73511 0.13497 0.0
C1474 C 0.76014 0.72421 0.10953 0.0
C1475 C 0.80897 0.72895 0.13795 0.0
C1476 C 0.71616 0.7444 0.08204 0.0
C1477 C 0.72864 0.74128 0.08628 0.0
C1478 C 0.76719 0.75535 0.11451 0.0
C1479 C 0.78835 0.73088 0.11781 0.0
C1480 C 0.77573 0.73553 0.11543 0.0
C1481 C 0.73913 0.74842 0.10278 0.0
C1482 C 0.75173 0.74406 0.10792 0.0
H1483 H 0.80009 0.70735 0.09466 0.0
H1484 H 0.78222 0.71803 0.08952 0.0
H1485 H 0.79094 0.76011 0.12281 0.0
H1486 H 0.72316 0.77064 0.11966 0.0
H1487 H 0.74488 0.76497 0.12731 0.0
C1488 C 0.37366 0.1705 0.14593 0.0
C1489 C 0.36394 0.17588 0.15467 0.0
C1490 C 0.36698 0.15484 0.13969 0.0
C1491 C 0.33128 0.11531 0.14802 0.0
H1492 H 0.34427 0.10531 0.09697 0.0
C1493 C 0.29705 0.05296 0.11463 0.0
C1494 C 0.30629 0.04686 0.10635 0.0
C1495 C 0.30424 0.06883 0.11996 0.0
C1496 C 0.34062 0.10789 0.11137 0.0
H1497 H 0.33941 0.16909 0.16292 0.0
H1498 H 0.32786 0.14199 0.15218 0.0
H1499 H 0.35682 0.13273 0.10755 0.0
H1500 H 0.33034 0.05276 0.0969 0.0
H1501 H 0.34286 0.08036 0.10632 0.0
H1502 H 0.3151 0.09053 0.15188 0.0
C1503 C 0.34071 0.14972 0.15055 0.0
C1504 C 0.34784 0.12361 0.11745 0.0
C1505 C 0.34736 0.1653 0.15676 0.0
C1506 C 0.32284 0.05707 0.1032 0.0
C1507 C 0.33003 0.07293 0.10851 0.0
C1508 C 0.32408 0.09963 0.14195 0.0
C1509 C 0.35042 0.14424 0.14206 0.0
C1510 C 0.34318 0.12751 0.13579 0.0
C1511 C 0.32084 0.07898 0.11712 0.0
C1512 C 0.32859 0.09572 0.12351 0.0
H1513 H 0.38647 0.1783 0.14422 0.0
H1514 H 0.37482 0.15096 0.13336 0.0
H1515 H 0.32761 0.11786 0.16243 0.0
H1516 H 0.28427 0.04545 0.1172 0.0
H1517 H 0.29677 0.07316 0.12627 0.0
C1518 C 0.89035 0.25133 0.15992 0.0
C1519 C 0.88209 0.25891 0.15235 0.0
C1520 C 0.90654 0.25719 0.1549 0.0
C1521 C 0.94289 0.27947 0.15367 0.0
H1522 H 0.95923 0.29842 0.10009 0.0
C1523 C 0.00782 0.32918 0.13986 0.0
C1524 C 0.01516 0.33053 0.12081 0.0
C1525 C 0.99197 0.31735 0.14349 0.0
C1526 C 0.95492 0.29295 0.11504 0.0
H1527 H 0.88422 0.27831 0.13315 0.0
H1528 H 0.9123 0.28856 0.12465 0.0
H1529 H 0.93041 0.28292 0.10579 0.0
H1530 H 0.01199 0.31992 0.09108 0.0
H1531 H 0.98442 0.2991 0.09756 0.0
H1532 H 0.96744 0.28961 0.16294 0.0
C1533 C 0.9063 0.278 0.13424 0.0
C1534 C 0.93837 0.28422 0.11837 0.0
C1535 C 0.89021 0.27219 0.13927 0.0
C1536 C 0.0066 0.31931 0.10584 0.0
C1537 C 0.99078 0.30741 0.10952 0.0
C1538 C 0.95948 0.28817 0.15032 0.0
C1539 C 0.91472 0.27068 0.14214 0.0
C1540 C 0.93217 0.27779 0.13787 0.0
C1541 C 0.98314 0.30654 0.1282 0.0
C1542 C 0.96568 0.29539 0.13111 0.0
H1543 H 0.8844 0.24105 0.17001 0.0
H1544 H 0.91267 0.25124 0.1611 0.0
H1545 H 0.93849 0.27471 0.1689 0.0
H1546 H 0.01409 0.33762 0.15173 0.0
H1547 H 0.98642 0.31716 0.15796 0.0
C1548 C 0.39505 0.29238 0.64727 0.0
C1549 C 0.39028 0.28449 0.66638 0.0
C1550 C 0.3872 0.30006 0.63893 0.0
C1551 C 0.3596 0.31502 0.65265 0.0
H1552 H 0.34862 0.30955 0.59502 0.0
C1553 C 0.31293 0.32944 0.61905 0.0
C1554 C 0.31808 0.33968 0.60183 0.0
C1555 C 0.32159 0.32215 0.62568 0.0
C1556 C 0.35168 0.31122 0.61111 0.0
H1557 H 0.3742 0.27926 0.69222 0.0
H1558 H 0.36028 0.29215 0.67758 0.0
H1559 H 0.36522 0.29921 0.60954 0.0
H1560 H 0.3357 0.34941 0.57723 0.0
H1561 H 0.35067 0.33646 0.58871 0.0
H1562 H 0.34577 0.32671 0.65429 0.0
C1563 C 0.37012 0.29258 0.669 0.0
C1564 C 0.36127 0.30541 0.61941 0.0
C1565 C 0.37798 0.285 0.67731 0.0
C1566 C 0.33145 0.34163 0.5906 0.0
C1567 C 0.34002 0.3342 0.59713 0.0
C1568 C 0.34989 0.32066 0.64441 0.0
C1569 C 0.37445 0.30002 0.64958 0.0
C1570 C 0.36523 0.30713 0.64034 0.0
C1571 C 0.33546 0.32481 0.6151 0.0
C1572 C 0.34572 0.3187 0.62361 0.0
H1573 H 0.40444 0.29214 0.63843 0.0
H1574 H 0.39099 0.30588 0.62407 0.0
H1575 H 0.36268 0.31686 0.66871 0.0
H1576 H 0.30267 0.32765 0.62803 0.0
H1577 H 0.31768 0.31475 0.63942 0.0
C1578 C 0.80892 0.16376 0.65141 0.0
C1579 C 0.82421 0.16637 0.64593 0.0
C1580 C 0.79503 0.14996 0.64538 0.0
C1581 C 0.78026 0.11636 0.60947 0.0
H1582 H 0.74895 0.09293 0.65211 0.0
C1583 C 0.73348 0.04997 0.60208 0.0
C1584 C 0.71797 0.04454 0.61003 0.0
C1585 C 0.74581 0.06544 0.60552 0.0
C1586 C 0.75742 0.09937 0.63989 0.0
H1587 H 0.83691 0.15704 0.62897 0.0
H1588 H 0.81295 0.13333 0.61835 0.0
H1589 H 0.77097 0.11936 0.65881 0.0
H1590 H 0.70332 0.05127 0.62775 0.0
H1591 H 0.72465 0.07813 0.63348 0.0
H1592 H 0.76685 0.09635 0.5906 0.0
C1593 C 0.81152 0.14178 0.62727 0.0
C1594 C 0.77006 0.11459 0.64374 0.0
C1595 C 0.8253 0.15538 0.63346 0.0
C1596 C 0.71512 0.05498 0.62147 0.0
C1597 C 0.72742 0.07041 0.62486 0.0
C1598 C 0.76762 0.10117 0.60559 0.0
C1599 C 0.7962 0.13867 0.63352 0.0
C1600 C 0.78179 0.12321 0.62868 0.0
C1601 C 0.74296 0.07589 0.61697 0.0
C1602 C 0.75612 0.09236 0.62083 0.0
H1603 H 0.80771 0.17195 0.66115 0.0
H1604 H 0.7834 0.148 0.65031 0.0
H1605 H 0.78895 0.12273 0.59741 0.0
H1606 H 0.73612 0.04227 0.59325 0.0
H1607 H 0.75767 0.06913 0.59944 0.0
C1608 C 0.89492 0.71724 0.6489 0.0
C1609 C 0.89813 0.72686 0.66596 0.0
C1610 C 0.90759 0.71739 0.63806 0.0
C1611 C 0.95062 0.72893 0.64184 0.0
H1612 H 0.95225 0.73757 0.5834 0.0
C1613 C 0.00552 0.7406 0.59362 0.0
C1614 C 0.01156 0.75374 0.5801 0.0
C1615 C 0.99037 0.73459 0.60264 0.0
C1616 C 0.95196 0.73515 0.5997 0.0
H1617 H 0.91687 0.74342 0.68575 0.0
H1618 H 0.93878 0.74347 0.66721 0.0
H1619 H 0.92798 0.73121 0.60287 0.0
H1620 H 0.00614 0.77053 0.56491 0.0
H1621 H 0.97972 0.76015 0.58091 0.0
H1622 H 0.97474 0.73348 0.63896 0.0
C1623 C 0.9266 0.73588 0.66205 0.0
C1624 C 0.93799 0.73131 0.6108 0.0
C1625 C 0.91405 0.73591 0.67263 0.0
C1626 C 1.00186 0.76041 0.57529 0.0
C1627 C 0.98667 0.7544 0.58435 0.0
C1628 C 0.96452 0.73269 0.63077 0.0
C1629 C 0.92359 0.72691 0.64438 0.0
C1630 C 0.93732 0.72853 0.63207 0.0
C1631 C 0.98087 0.74158 0.59841 0.0
C1632 C 0.96549 0.73616 0.60964 0.0
H1633 H 0.88275 0.71024 0.64337 0.0
H1634 H 0.90492 0.71029 0.62454 0.0
H1635 H 0.95042 0.72674 0.65819 0.0
H1636 H 0.01258 0.73503 0.59751 0.0
H1637 H 0.98617 0.72454 0.61312 0.0
C1638 C 0.87265 0.68198 0.18727 0.0
C1639 C 0.87294 0.69515 0.17761 0.0
C1640 C 0.88655 0.68296 0.19559 0.0
C1641 C 0.93058 0.70494 0.19115 0.0
H1642 H 0.9278 0.68136 0.24102 0.0
C1643 C 0.97874 0.68769 0.21357 0.0
C1644 C 0.98244 0.68753 0.23443 0.0
C1645 C 0.96622 0.69038 0.20745 0.0
C1646 C 0.92892 0.68818 0.2272 0.0
H1647 H 0.88817 0.71987 0.16949 0.0
H1648 H 0.91274 0.72162 0.18413 0.0
H1649 H 0.90476 0.68367 0.22996 0.0
H1650 H 0.97596 0.69037 0.26515 0.0
H1651 H 0.95432 0.69517 0.25453 0.0
H1652 H 0.95479 0.70943 0.18843 0.0
C1653 C 0.9016 0.71048 0.18514 0.0
C1654 C 0.91561 0.68938 0.22073 0.0
C1655 C 0.88753 0.70953 0.17692 0.0
C1656 C 0.9734 0.69028 0.24897 0.0
C1657 C 0.96091 0.69299 0.24286 0.0
C1658 C 0.94393 0.70372 0.19762 0.0
C1659 C 0.90127 0.69714 0.19447 0.0
C1660 C 0.91613 0.69753 0.20243 0.0
C1661 C 0.95706 0.69298 0.22202 0.0
C1662 C 0.94322 0.69513 0.2156 0.0
H1663 H 0.86164 0.67071 0.18814 0.0
H1664 H 0.88581 0.67238 0.20235 0.0
H1665 H 0.9314 0.71122 0.17692 0.0
H1666 H 0.98544 0.68562 0.20193 0.0
H1667 H 0.96351 0.69006 0.1913 0.0
C1668 C 0.38467 0.2809 0.23475 0.0
C1669 C 0.39773 0.28114 0.22474 0.0
C1670 C 0.38634 0.29442 0.24385 0.0
C1671 C 0.40987 0.33749 0.24123 0.0
H1672 H 0.38889 0.33409 0.29318 0.0
C1673 C 0.40988 0.39119 0.2773 0.0
C1674 C 0.39503 0.38834 0.28518 0.0
C1675 C 0.41215 0.37863 0.27187 0.0
C1676 C 0.39474 0.33524 0.27861 0.0
H1677 H 0.42284 0.29571 0.21664 0.0
H1678 H 0.4258 0.31957 0.23257 0.0
H1679 H 0.38952 0.31122 0.28006 0.0
H1680 H 0.37104 0.37002 0.29394 0.0
H1681 H 0.37492 0.34821 0.28431 0.0
H1682 H 0.41467 0.36139 0.23947 0.0
C1683 C 0.41425 0.30884 0.23327 0.0
C1684 C 0.39513 0.32214 0.27112 0.0
C1685 C 0.41261 0.2952 0.22429 0.0
C1686 C 0.38265 0.37265 0.28797 0.0
C1687 C 0.38491 0.36012 0.28255 0.0
C1688 C 0.40943 0.35061 0.2487 0.0
C1689 C 0.4011 0.30857 0.24314 0.0
C1690 C 0.4024 0.32301 0.25214 0.0
C1691 C 0.39963 0.36294 0.27423 0.0
C1692 C 0.40156 0.34954 0.26728 0.0
H1693 H 0.37313 0.2702 0.23567 0.0
H1694 H 0.37593 0.29384 0.25111 0.0
H1695 H 0.41543 0.3385 0.22648 0.0
H1696 H 0.41969 0.40314 0.27499 0.0
H1697 H 0.42369 0.38122 0.26574 0.0
C1698 C 0.79904 0.1965 0.23564 0.0
C1699 C 0.80716 0.19817 0.2171 0.0
C1700 C 0.78476 0.1826 0.24029 0.0
C1701 C 0.75954 0.14084 0.2266 0.0
H1702 H 0.72409 0.14709 0.24206 0.0
C1703 C 0.69662 0.08891 0.24572 0.0
C1704 C 0.68356 0.08942 0.23651 0.0
C1705 C 0.71196 0.10211 0.24506 0.0
C1706 C 0.73387 0.14518 0.23771 0.0
H1707 H 0.80727 0.18616 0.18959 0.0
H1708 H 0.78245 0.16188 0.19782 0.0
H1709 H 0.7511 0.16983 0.23851 0.0
H1710 H 0.67635 0.10432 0.21977 0.0
H1711 H 0.70327 0.12748 0.21866 0.0
H1712 H 0.74226 0.11623 0.22536 0.0
C1713 C 0.78708 0.17134 0.2087 0.0
C1714 C 0.74935 0.15815 0.23593 0.0
C1715 C 0.80127 0.18527 0.20397 0.0
C1716 C 0.68615 0.10355 0.22699 0.0
C1717 C 0.70154 0.11682 0.22644 0.0
C1718 C 0.74408 0.12786 0.22853 0.0
C1719 C 0.77843 0.17004 0.22661 0.0
C1720 C 0.76231 0.15613 0.23015 0.0
C1721 C 0.71461 0.11616 0.23529 0.0
C1722 C 0.73107 0.12992 0.23391 0.0
H1723 H 0.80328 0.2062 0.24611 0.0
H1724 H 0.77845 0.18181 0.25435 0.0
H1725 H 0.76931 0.13893 0.22219 0.0
H1726 H 0.69506 0.07824 0.25327 0.0
H1727 H 0.72176 0.10132 0.25225 0.0
C1728 C 0.05604 0.52957 0.91754 0.0
C1729 C 0.04286 0.52548 0.93053 0.0
C1730 C 0.05451 0.52044 0.90055 0.0
C1731 C 0.02847 0.48082 0.87856 0.0
H1732 H 0.05157 0.50168 0.82858 0.0
C1733 C 0.0207 0.44761 0.80261 0.0
C1734 C 0.03506 0.45132 0.79236 0.0
C1735 C 0.02085 0.45657 0.8192 0.0
C1736 C 0.04511 0.49566 0.84246 0.0
H1737 H 0.01762 0.50867 0.93557 0.0
H1738 H 0.01489 0.49288 0.9059 0.0
H1739 H 0.05344 0.5174 0.85798 0.0
H1740 H 0.06078 0.4675 0.79144 0.0
H1741 H 0.06098 0.48305 0.82009 0.0
H1742 H 0.02009 0.45906 0.86284 0.0
C1743 C 0.02654 0.50295 0.90905 0.0
C1744 C 0.04623 0.50468 0.85938 0.0
C1745 C 0.0281 0.51202 0.9261 0.0
C1746 C 0.04948 0.46427 0.79894 0.0
C1747 C 0.04961 0.47328 0.81532 0.0
C1748 C 0.02727 0.4718 0.86156 0.0
C1749 C 0.03972 0.50703 0.89601 0.0
C1750 C 0.03808 0.49738 0.87776 0.0
C1751 C 0.03532 0.46954 0.8257 0.0
C1752 C 0.03572 0.47911 0.84338 0.0
H1753 H 0.06762 0.53973 0.92065 0.0
H1754 H 0.06502 0.52381 0.89113 0.0
H1755 H 0.02217 0.47475 0.89249 0.0
H1756 H 0.00939 0.4377 0.79794 0.0
H1757 H 0.00962 0.45345 0.82681 0.0
C1758 C 0.57693 0.55932 0.94797 0.0
C1759 C 0.5702 0.56557 0.96138 0.0
C1760 C 0.58306 0.56658 0.92887 0.0
C1761 C 0.58065 0.59402 0.89072 0.0
H1762 H 0.61997 0.59755 0.86936 0.0
C1763 C 0.61298 0.63236 0.8191 0.0
C1764 C 0.61953 0.6263 0.80512 0.0
C1765 C 0.60684 0.62469 0.83797 0.0
C1766 C 0.60887 0.59649 0.87499 0.0
H1767 H 0.56522 0.58474 0.96543 0.0
H1768 H 0.57592 0.59739 0.93229 0.0
H1769 H 0.60971 0.58476 0.9027 0.0
H1770 H 0.62466 0.60734 0.80003 0.0
H1771 H 0.61385 0.59392 0.83287 0.0
H1772 H 0.57982 0.60579 0.86307 0.0
C1773 C 0.57614 0.58667 0.93631 0.0
C1774 C 0.60299 0.58916 0.89412 0.0
C1775 C 0.57 0.5794 0.95535 0.0
C1776 C 0.61973 0.61235 0.81044 0.0
C1777 C 0.61362 0.6047 0.82933 0.0
C1778 C 0.58653 0.60136 0.87163 0.0
C1779 C 0.58264 0.58029 0.92274 0.0
C1780 C 0.58883 0.58789 0.90226 0.0
C1781 C 0.60713 0.61079 0.84335 0.0
C1782 C 0.60074 0.60274 0.86355 0.0
H1783 H 0.57712 0.5486 0.95201 0.0
H1784 H 0.58782 0.56125 0.91872 0.0
H1785 H 0.56955 0.59299 0.89633 0.0
H1786 H 0.61268 0.6431 0.81555 0.0
H1787 H 0.60212 0.62981 0.8485 0.0
C1788 C 0.46751 0.99375 0.92108 0.0
C1789 C 0.46949 1.00101 0.94006 0.0
C1790 C 0.45867 0.99588 0.90548 0.0
C1791 C 0.44489 0.02361 0.8888 0.0
H1792 H 0.41847 0.99051 0.85125 0.0
C1793 C 0.40486 0.03064 0.82786 0.0
C1794 C 0.40567 0.02568 0.8081 0.0
C1795 C 0.41204 0.0272 0.84435 0.0
C1796 C 0.4259 0.99988 0.86157 0.0
H1797 H 0.4631 0.01586 0.9575 0.0
H1798 H 0.44732 0.019 0.93075 0.0
H1799 H 0.43161 0.98478 0.87966 0.0
H1800 H 0.41459 0.01316 0.79014 0.0
H1801 H 0.42708 0.00713 0.81896 0.0
H1802 H 0.4391 0.03867 0.87076 0.0
C1803 C 0.45294 0.01197 0.92774 0.0
C1804 C 0.43344 0.99662 0.87781 0.0
C1805 C 0.46186 0.00995 0.94326 0.0
C1806 C 0.41376 0.01717 0.80518 0.0
C1807 C 0.42082 0.01361 0.82169 0.0
C1808 C 0.43726 0.02683 0.87268 0.0
C1809 C 0.4515 0.00523 0.90853 0.0
C1810 C 0.44308 0.00847 0.89157 0.0
C1811 C 0.42005 0.01861 0.84143 0.0
C1812 C 0.42776 0.01503 0.85885 0.0
H1813 H 0.47298 0.98659 0.91812 0.0
H1814 H 0.45788 0.99057 0.89082 0.0
H1815 H 0.45249 0.03311 0.89886 0.0
H1816 H 0.3987 0.03721 0.8306 0.0
H1817 H 0.41117 0.03109 0.85945 0.0
C1818 C 0.45234 0.99129 0.56316 0.0
C1819 C 0.46859 1.00215 0.55919 0.0
C1820 C 0.44522 0.9917 0.5816 0.0
C1821 C 0.4545 0.00673 0.63422 0.0
H1822 H 0.41493 0.00828 0.63003 0.0
C1823 C 0.43319 0.0319 0.69778 0.0
C1824 C 0.41668 0.0245 0.70216 0.0
C1825 C 0.43877 0.02732 0.68105 0.0
C1826 C 0.42583 0.0076 0.63154 0.0
H1827 H 0.49033 0.02133 0.5717 0.0
H1828 H 0.47796 0.0221 0.60375 0.0
H1829 H 0.42593 1.00279 0.59975 0.0
H1830 H 0.39306 0.00638 0.69252 0.0
H1831 H 0.40284 0.99828 0.66343 0.0
H1832 H 0.45456 0.01177 0.66592 0.0
C1833 C 0.47068 0.01329 0.5927 0.0
C1834 C 0.43211 0.00444 0.6142 0.0
C1835 C 0.47773 0.01297 0.57426 0.0
C1836 C 0.40586 0.01238 0.68949 0.0
C1837 C 0.41145 0.00777 0.67278 0.0
C1838 C 0.44819 0.00983 0.65157 0.0
C1839 C 0.4543 1.00283 0.59644 0.0
C1840 C 0.44667 0.00428 0.61529 0.0
C1841 C 0.42797 0.01519 0.66836 0.0
C1842 C 0.43396 0.01062 0.65034 0.0
H1843 H 0.44504 0.98287 0.55175 0.0
H1844 H 0.43259 0.98343 0.58417 0.0
H1845 H 0.46563 0.00646 0.63555 0.0
H1846 H 0.44183 0.04131 0.70721 0.0
H1847 H 0.45155 0.03347 0.67786 0.0
C1848 C 0.07 0.53822 0.56806 0.0
C1849 C 0.05742 0.53383 0.55394 0.0
C1850 C 0.06843 0.52837 0.58486 0.0
C1851 C 0.0446 0.48695 0.60444 0.0
H1852 H 0.06162 0.50574 0.65692 0.0
C1853 C 0.0314 0.44985 0.67992 0.0
C1854 C 0.04414 0.45437 0.6938 0.0
C1855 C 0.03304 0.45929 0.66259 0.0
C1856 C 0.05695 0.5003 0.64233 0.0
H1857 H 0.03338 0.51534 0.54643 0.0
H1858 H 0.03051 0.49842 0.57588 0.0
H1859 H 0.06445 0.52263 0.62738 0.0
H1860 H 0.0687 0.47229 0.70011 0.0
H1861 H 0.07157 0.48862 0.66994 0.0
H1862 H 0.03701 0.46459 0.6195 0.0
C1863 C 0.04169 0.50942 0.57386 0.0
C1864 C 0.05859 0.51 0.62535 0.0
C1865 C 0.04326 0.51926 0.55705 0.0
C1866 C 0.0586 0.46845 0.68981 0.0
C1867 C 0.06022 0.4779 0.67255 0.0
C1868 C 0.04292 0.47724 0.62145 0.0
C1869 C 0.05423 0.51386 0.58805 0.0
C1870 C 0.05247 0.50347 0.60615 0.0
C1871 C 0.04744 0.47349 0.65876 0.0
C1872 C 0.04911 0.48379 0.64062 0.0
H1873 H 0.08103 0.54937 0.56634 0.0
H1874 H 0.07843 0.53211 0.5953 0.0
H1875 H 0.03993 0.48149 0.58986 0.0
H1876 H 0.02008 0.43909 0.68251 0.0
H1877 H 0.02289 0.4556 0.65241 0.0
C1878 C 0.53429 0.60983 0.56788 0.0
C1879 C 0.52541 0.59346 0.56493 0.0
C1880 C 0.54138 0.61579 0.5868 0.0
C1881 C 0.54237 0.60489 0.64166 0.0
H1882 H 0.5868 0.63832 0.63803 0.0
C1883 C 0.587 0.61956 0.70852 0.0
C1884 C 0.59851 0.63545 0.71166 0.0
C1885 C 0.57686 0.61528 0.69152 0.0
C1886 C 0.57433 0.62917 0.6394 0.0
H1887 H 0.51623 0.57053 0.58001 0.0
H1888 H 0.52867 0.5809 0.61287 0.0
H1889 H 0.57078 0.62946 0.60708 0.0
H1890 H 0.6081 0.65934 0.69956 0.0
H1891 H 0.59033 0.65187 0.66997 0.0
H1892 H 0.54608 0.60441 0.67398 0.0
C1893 C 0.5301 0.58917 0.60062 0.0
C1894 C 0.56511 0.62408 0.62161 0.0
C1895 C 0.52299 0.58321 0.58171 0.0
C1896 C 0.59943 0.64698 0.69757 0.0
C1897 C 0.58929 0.64269 0.68054 0.0
C1898 C 0.5516 0.60998 0.65946 0.0
C1899 C 0.53977 0.60553 0.60323 0.0
C1900 C 0.54906 0.61176 0.62246 0.0
C1901 C 0.57796 0.62677 0.67722 0.0
C1902 C 0.56777 0.62205 0.65852 0.0
H1903 H 0.53631 0.61808 0.55534 0.0
H1904 H 0.54847 0.62846 0.58839 0.0
H1905 H 0.52999 0.59553 0.64292 0.0
H1906 H 0.58595 0.61035 0.71904 0.0
H1907 H 0.56844 0.60289 0.68932 0.0
C1908 C 0.06219 0.59438 0.07269 0.0
C1909 C 0.04915 0.58576 0.05953 0.0
C1910 C 0.06133 0.60391 0.08778 0.0
C1911 C 0.03244 0.60936 0.11867 0.0
H1912 H 0.06839 0.65128 0.12723 0.0
C1913 C 0.028 0.65239 0.17438 0.0
C1914 C 0.04165 0.6622 0.18595 0.0
C1915 C 0.02892 0.64336 0.15863 0.0
C1916 C 0.0583 0.63952 0.12528 0.0
H1917 H 0.025 0.58087 0.05205 0.0
H1918 H 0.02346 0.59718 0.0785 0.0
H1919 H 0.07007 0.63493 0.10076 0.0
H1920 H 0.06698 0.67012 0.19 0.0
H1921 H 0.0685 0.65414 0.163 0.0
H1922 H 0.02075 0.61374 0.14339 0.0
C1923 C 0.03432 0.59643 0.07718 0.0
C1924 C 0.05927 0.63016 0.11004 0.0
C1925 C 0.03522 0.58701 0.06197 0.0
C1926 C 0.05624 0.66278 0.18133 0.0
C1927 C 0.05714 0.65365 0.16571 0.0
C1928 C 0.03151 0.61865 0.13404 0.0
C1929 C 0.04736 0.605 0.09027 0.0
C1930 C 0.04634 0.61497 0.10652 0.0
C1931 C 0.04349 0.64378 0.15412 0.0
C1932 C 0.04443 0.63389 0.13758 0.0
H1933 H 0.07305 0.59365 0.0716 0.0
H1934 H 0.07152 0.61021 0.09777 0.0
H1935 H 0.02234 0.59762 0.11655 0.0
H1936 H 0.01658 0.65171 0.17744 0.0
H1937 H 0.01821 0.63614 0.14986 0.0
C1938 C 0.51462 0.51845 0.11788 0.0
C1939 C 0.50979 0.51549 0.09734 0.0
C1940 C 0.50349 0.51091 0.13378 0.0
C1941 C 0.46494 0.47577 0.14617 0.0
H1942 H 0.46255 0.5006 0.1901 0.0
C1943 C 0.41504 0.44748 0.20755 0.0
C1944 C 0.4191 0.45244 0.22781 0.0
C1945 C 0.42571 0.45566 0.19145 0.0
C1946 C 0.46317 0.49342 0.17814 0.0
H1947 H 0.48965 0.50202 0.07735 0.0
H1948 H 0.47023 0.48865 0.10512 0.0
H1949 H 0.48235 0.51355 0.16276 0.0
H1950 H 0.43747 0.47006 0.24702 0.0
H1951 H 0.45628 0.48403 0.21912 0.0
H1952 H 0.44617 0.45558 0.16166 0.0
C1953 C 0.4826 0.49689 0.10891 0.0
C1954 C 0.47451 0.50088 0.16243 0.0
C1955 C 0.49367 0.50461 0.09304 0.0
C1956 C 0.43393 0.46598 0.23156 0.0
C1957 C 0.4447 0.47405 0.21549 0.0
C1958 C 0.45376 0.46827 0.16199 0.0
C1959 C 0.48735 0.50007 0.12944 0.0
C1960 C 0.47548 0.49213 0.14626 0.0
C1961 C 0.44083 0.4689 0.19521 0.0
C1962 C 0.45266 0.47699 0.1782 0.0
H1963 H 0.52693 0.52688 0.12164 0.0
H1964 H 0.5075 0.5135 0.14947 0.0
H1965 H 0.46554 0.46871 0.13401 0.0
H1966 H 0.40364 0.43716 0.20413 0.0
H1967 H 0.42209 0.45153 0.17603 0.0
C1968 C 0.52078 0.99856 0.08769 0.0
C1969 C 0.52177 0.99051 0.07071 0.0
C1970 C 0.53053 1.00096 0.10469 0.0
C1971 C 0.56955 0.00528 0.11783 0.0
H1972 H 0.55569 0.00529 0.17346 0.0
C1973 C 0.61256 0.02259 0.18715 0.0
C1974 C 0.61107 0.03225 0.2016 0.0
C1975 C 0.60129 0.01591 0.17152 0.0
C1976 C 0.55976 0.00544 0.15798 0.0
H1977 H 0.5332 0.97802 0.05856 0.0
H1978 H 0.55023 0.98211 0.08846 0.0
H1979 H 0.53589 0.99523 0.14609 0.0
H1980 H 0.59677 0.04273 0.21074 0.0
H1981 H 0.57727 0.03126 0.18334 0.0
H1982 H 0.59346 0.01582 0.12964 0.0
C1983 C 0.54199 0.98668 0.08848 0.0
C1984 C 0.54842 0.99963 0.14234 0.0
C1985 C 0.53214 0.9842 0.07148 0.0
C1986 C 0.59824 0.0353 0.1999 0.0
C1987 C 0.58698 0.02861 0.1843 0.0
C1988 C 0.5809 0.0111 0.13348 0.0
C1989 C 0.54153 0.99539 0.10507 0.0
C1990 C 0.55323 0.99975 0.12203 0.0
C1991 C 0.58829 0.01873 0.17005 0.0
C1992 C 0.57615 0.01152 0.15366 0.0
H1993 H 0.51275 1.00338 0.08758 0.0
H1994 H 0.52996 0.00781 0.11714 0.0
H1995 H 0.57366 0.00574 0.10229 0.0
H1996 H 0.6223 0.01998 0.18807 0.0
H1997 H 0.60257 0.00827 0.16083 0.0
C1998 C 0.54063 0.03773 0.41847 0.0
C1999 C 0.52782 0.02231 0.42183 0.0
C2000 C 0.55175 0.04101 0.40281 0.0
C2001 C 0.55785 0.02558 0.35462 0.0
H2002 H 0.60301 0.05299 0.36638 0.0
C2003 C 0.60816 0.03196 0.30076 0.0
C2004 C 0.6212 0.04723 0.29726 0.0
C2005 C 0.59669 0.02919 0.31574 0.0
C2006 C 0.59044 0.04547 0.36279 0.0
H2007 H 0.51659 0.99828 0.41125 0.0
H2008 H 0.53605 1.00399 0.38389 0.0
H2009 H 0.58293 0.0476 0.39274 0.0
H2010 H 0.63247 0.07155 0.30682 0.0
H2011 H 0.61237 0.0667 0.33298 0.0
H2012 H 0.56539 0.02337 0.32471 0.0
C2013 C 0.53737 0.01358 0.39324 0.0
C2014 C 0.57893 0.04238 0.37787 0.0
C2015 C 0.52621 0.0103 0.40891 0.0
C2016 C 0.62258 0.05965 0.30917 0.0
C2017 C 0.61111 0.05686 0.32421 0.0
C2018 C 0.56936 0.02866 0.33955 0.0
C2019 C 0.55033 0.02896 0.39013 0.0
C2020 C 0.56251 0.03238 0.37398 0.0
C2021 C 0.59801 0.04161 0.3276 0.0
C2022 C 0.58578 0.03859 0.34349 0.0
H2023 H 0.54202 0.04731 0.42788 0.0
H2024 H 0.56142 0.05304 0.40055 0.0
H2025 H 0.54529 0.01802 0.35105 0.0
H2026 H 0.60675 0.02211 0.29189 0.0
H2027 H 0.58686 0.01727 0.3182 0.0
C2028 C 0.03471 0.58951 0.41821 0.0
C2029 C 0.05029 0.59234 0.42278 0.0
C2030 C 0.03201 0.59703 0.40136 0.0
C2031 C 0.05016 0.61697 0.35184 0.0
H2032 H 0.02129 0.63398 0.35557 0.0
C2033 C 0.04951 0.65933 0.29 0.0
C2034 C 0.03474 0.65783 0.28381 0.0
C2035 C 0.0504 0.65077 0.30687 0.0
C2036 C 0.02922 0.6291 0.35418 0.0
H2037 H 0.07528 0.60574 0.41331 0.0
H2038 H 0.07056 0.61872 0.38402 0.0
H2039 H 0.02487 0.62028 0.38523 0.0
H2040 H 0.00928 0.64619 0.29081 0.0
H2041 H 0.01081 0.63104 0.3204 0.0
H2042 H 0.05457 0.62576 0.32091 0.0
C2043 C 0.06038 0.61048 0.39328 0.0
C2044 C 0.03129 0.62127 0.3712 0.0
C2045 C 0.06309 0.60301 0.41013 0.0
C2046 C 0.02084 0.64761 0.29515 0.0
C2047 C 0.02174 0.63899 0.31215 0.0
C2048 C 0.04807 0.62475 0.33488 0.0
C2049 C 0.04479 0.60753 0.38859 0.0
C2050 C 0.04197 0.61529 0.37032 0.0
C2051 C 0.03654 0.64038 0.31811 0.0
C2052 C 0.03777 0.63114 0.33588 0.0
H2053 H 0.0245 0.58125 0.42737 0.0
H2054 H 0.01983 0.59435 0.39809 0.0
H2055 H 0.05818 0.61221 0.35043 0.0
H2056 H 0.06051 0.66716 0.28179 0.0
H2057 H 0.06205 0.65243 0.31122 0.0
C2058 C 0.46792 0.53414 0.47182 0.0
C2059 C 0.48358 0.54527 0.46552 0.0
C2060 C 0.45632 0.52512 0.45725 0.0
C2061 C 0.4471 0.52261 0.40169 0.0
H2062 H 0.42726 0.47735 0.41064 0.0
C2063 C 0.40755 0.47867 0.34023 0.0
C2064 C 0.41084 0.46644 0.33628 0.0
C2065 C 0.41396 0.48804 0.35742 0.0
C2066 C 0.43268 0.48996 0.40794 0.0
H2067 H 0.49917 0.55641 0.4393 0.0
H2068 H 0.47896 0.5411 0.414 0.0
H2069 H 0.44249 0.49513 0.43819 0.0
H2070 H 0.42316 0.45424 0.34763 0.0
H2071 H 0.43443 0.47066 0.37757 0.0
H2072 H 0.4379 0.51753 0.37122 0.0
C2073 C 0.47555 0.53919 0.43004 0.0
C2074 C 0.44123 0.50013 0.4238 0.0
C2075 C 0.48715 0.54794 0.44452 0.0
C2076 C 0.42041 0.46357 0.35018 0.0
C2077 C 0.42677 0.47292 0.36744 0.0
C2078 C 0.43849 0.51246 0.38589 0.0
C2079 C 0.46015 0.52735 0.43621 0.0
C2080 C 0.44887 0.51659 0.42068 0.0
C2081 C 0.42376 0.48537 0.37115 0.0
C2082 C 0.43149 0.49602 0.38866 0.0
H2083 H 0.46496 0.53173 0.48796 0.0
H2084 H 0.44451 0.51611 0.46243 0.0
H2085 H 0.45279 0.53524 0.39886 0.0
H2086 H 0.40016 0.48116 0.32991 0.0
H2087 H 0.41126 0.49742 0.35994 0.0
C2088 C 0.72054 0.87415 0.27641 0.0
C2089 C 0.71074 0.87043 0.29391 0.0
C2090 C 0.71491 0.86531 0.25875 0.0
C2091 C 0.687 0.82624 0.23981 0.0
H2092 H 0.6981 0.84842 0.18723 0.0
C2093 C 0.67493 0.79408 0.16143 0.0
C2094 C 0.68753 0.80125 0.147 0.0
C2095 C 0.67528 0.80185 0.17948 0.0
C2096 C 0.69497 0.842 0.20175 0.0
H2097 H 0.68716 0.85439 0.30646 0.0
H2098 H 0.67726 0.83852 0.27529 0.0
H2099 H 0.70268 0.86315 0.21848 0.0
H2100 H 0.71041 0.82226 0.14045 0.0
H2101 H 0.71106 0.8356 0.1716 0.0
H2102 H 0.6798 0.80511 0.22299 0.0
C2103 C 0.68935 0.84848 0.27543 0.0
C2104 C 0.69753 0.85046 0.21969 0.0
C2105 C 0.69496 0.8576 0.29319 0.0
C2106 C 0.70043 0.81635 0.15108 0.0
C2107 C 0.70075 0.8241 0.16897 0.0
C2108 C 0.68448 0.81773 0.22177 0.0
C2109 C 0.69931 0.85229 0.25798 0.0
C2110 C 0.69401 0.84278 0.239 0.0
C2111 C 0.68818 0.81703 0.18343 0.0
C2112 C 0.68888 0.82557 0.20252 0.0
H2113 H 0.73274 0.88397 0.27633 0.0
H2114 H 0.72299 0.86847 0.24576 0.0
H2115 H 0.68424 0.81998 0.25444 0.0
H2116 H 0.66482 0.78245 0.15883 0.0
H2117 H 0.66536 0.79606 0.1902 0.0
C2118 C 0.19337 0.90726 0.26655 0.0
C2119 C 0.19765 0.91331 0.28635 0.0
C2120 C 0.20199 0.91628 0.2494 0.0
C2121 C 0.23179 0.95696 0.23145 0.0
H2122 H 0.24275 0.93489 0.19164 0.0
C2123 C 0.28166 0.99001 0.17053 0.0
C2124 C 0.27889 0.98396 0.15067 0.0
C2125 C 0.27109 0.9815 0.18661 0.0
C2126 C 0.23964 0.94122 0.20244 0.0
H2127 H 0.2139 0.93397 0.30348 0.0
H2128 H 0.22896 0.94963 0.27364 0.0
H2129 H 0.22496 0.92021 0.22016 0.0
H2130 H 0.26279 0.96412 0.1322 0.0
H2131 H 0.24433 0.94931 0.1602 0.0
H2132 H 0.24666 0.97801 0.21381 0.0
C2133 C 0.21887 0.93794 0.27131 0.0
C2134 C 0.2294 0.93279 0.21882 0.0
C2135 C 0.21024 0.92892 0.28847 0.0
C2136 C 0.26534 0.96912 0.14731 0.0
C2137 C 0.25477 0.96059 0.16341 0.0
C2138 C 0.24205 0.96541 0.21507 0.0
C2139 C 0.21512 0.93159 0.2516 0.0
C2140 C 0.22539 0.94055 0.23361 0.0
C2141 C 0.25747 0.9667 0.18325 0.0
C2142 C 0.2462 0.95766 0.20042 0.0
H2143 H 0.18369 0.89532 0.26431 0.0
H2144 H 0.19854 0.91112 0.23443 0.0
H2145 H 0.22881 0.96331 0.24238 0.0
H2146 H 0.29198 1.00139 0.17371 0.0
H2147 H 0.27369 0.98646 0.20174 0.0
C2148 C 0.17608 0.43166 0.26204 0.0
C2149 C 0.16882 0.42159 0.27912 0.0
C2150 C 0.16727 0.43003 0.24422 0.0
C2151 C 0.12561 0.41148 0.22398 0.0
H2152 H 0.14602 0.41232 0.17254 0.0
C2153 C 0.0896 0.38348 0.15113 0.0
C2154 C 0.09533 0.39189 0.13248 0.0
C2155 C 0.09882 0.38867 0.16885 0.0
C2156 C 0.14022 0.41226 0.18674 0.0
H2157 H 0.14637 0.40249 0.2912 0.0
H2158 H 0.13117 0.39938 0.26009 0.0
H2159 H 0.16161 0.41904 0.20404 0.0
H2160 H 0.11529 0.4123 0.11779 0.0
H2161 H 0.13146 0.42131 0.14882 0.0
H2162 H 0.10411 0.40426 0.20672 0.0
C2163 C 0.14363 0.40863 0.26044 0.0
C2164 C 0.14916 0.41615 0.2048 0.0
C2165 C 0.15241 0.41027 0.27823 0.0
C2166 C 0.11054 0.40555 0.13192 0.0
C2167 C 0.11983 0.41069 0.14966 0.0
C2168 C 0.11667 0.40751 0.20596 0.0
C2169 C 0.151 0.41831 0.2431 0.0
C2170 C 0.1419 0.41558 0.22368 0.0
C2171 C 0.11402 0.40233 0.16832 0.0
C2172 C 0.12382 0.40763 0.18719 0.0
H2173 H 0.1887 0.44044 0.26215 0.0
H2174 H 0.17325 0.43782 0.23122 0.0
H2175 H 0.11972 0.41121 0.2382 0.0
H2176 H 0.07793 0.37291 0.15211 0.0
H2177 H 0.09412 0.38186 0.18295 0.0
C2178 C 0.125 0.32683 0.91018 0.0
C2179 C 0.13198 0.33845 0.89459 0.0
C2180 C 0.11741 0.32914 0.92692 0.0
C2181 C 0.09967 0.35316 0.9441 0.0
H2182 H 0.10931 0.34361 0.99856 0.0
C2183 C 0.08629 0.37729 0.01653 0.0
C2184 C 0.07989 0.367 0.03359 0.0
C2185 C 0.09188 0.37296 0.99954 0.0
C2186 C 0.10633 0.34616 0.98345 0.0
H2187 H 0.13585 0.36129 0.88393 0.0
H2188 H 0.12292 0.36543 0.91314 0.0
H2189 H 0.11984 0.33708 0.96868 0.0
H2190 H 0.07445 0.34411 0.04624 0.0
H2191 H 0.08416 0.33654 0.01654 0.0
H2192 H 0.08633 0.36241 0.95885 0.0
C2193 C 0.12322 0.3545 0.91247 0.0
C2194 C 0.11234 0.34239 0.96633 0.0
C2195 C 0.13082 0.35221 0.89583 0.0
C2196 C 0.07934 0.35233 0.03336 0.0
C2197 C 0.08497 0.34801 0.01637 0.0
C2198 C 0.09368 0.35693 0.9612 0.0
C2199 C 0.11656 0.34307 0.92832 0.0
C2200 C 0.10923 0.34601 0.94646 0.0
C2201 C 0.09123 0.35824 0.99923 0.0
C2202 C 0.09709 0.35364 0.98107 0.0
H2203 H 0.12577 0.31614 0.90972 0.0
H2204 H 0.11225 0.32004 0.9388 0.0
H2205 H 0.09682 0.35586 0.929 0.0
H2206 H 0.08694 0.38869 0.01622 0.0
H2207 H 0.09687 0.38121 0.9867 0.0
C2208 C 0.67748 0.84861 0.89427 0.0
C2209 C 0.67668 0.86253 0.89619 0.0
C2210 C 0.67669 0.8395 0.91162 0.0
C2211 C 0.6826 0.84298 0.96835 0.0
H2212 H 0.6663 0.79791 0.96615 0.0
C2213 C 0.67829 0.80428 0.03998 0.0
C2214 C 0.68388 0.79354 0.03734 0.0
C2215 C 0.67655 0.81247 0.0231 0.0
C2216 C 0.67098 0.81052 0.96698 0.0
H2217 H 0.67346 0.87725 0.91783 0.0
H2218 H 0.67135 0.86108 0.94789 0.0
H2219 H 0.66376 0.81197 0.93631 0.0
H2220 H 0.69193 0.78299 0.01474 0.0
H2221 H 0.68872 0.7971 0.98542 0.0
H2222 H 0.6896 0.84138 0.99919 0.0
C2223 C 0.67319 0.85743 0.93309 0.0
C2224 C 0.66958 0.81863 0.94981 0.0
C2225 C 0.6742 0.86664 0.91578 0.0
C2226 C 0.68764 0.79119 0.0174 0.0
C2227 C 0.68569 0.79919 1.00053 0.0
C2228 C 0.68382 0.83482 0.9856 0.0
C2229 C 0.67488 0.84395 0.93139 0.0
C2230 C 0.67551 0.83504 0.95011 0.0
C2231 C 0.68012 0.80994 1.00314 0.0
C2232 C 0.67818 0.81852 0.98507 0.0
H2233 H 0.67956 0.84514 0.87946 0.0
H2234 H 0.67822 0.82936 0.90952 0.0
H2235 H 0.68765 0.85563 0.96921 0.0
H2236 H 0.67527 0.80638 0.0551 0.0
H2237 H 0.67216 0.82061 0.02563 0.0
C2238 C 0.18949 0.92841 0.91178 0.0
C2239 C 0.19115 0.91677 0.90153 0.0
C2240 C 0.19979 0.93666 0.92787 0.0
C2241 C 0.23921 0.9462 0.95067 0.0
H2242 H 0.22221 0.95498 0.99925 0.0
C2243 C 0.27401 0.96358 0.02657 0.0
C2244 C 0.27393 0.97563 0.03789 0.0
C2245 C 0.26418 0.95752 0.00945 0.0
C2246 C 0.22718 0.95279 0.98569 0.0
H2247 H 0.20475 0.90444 0.90064 0.0
H2248 H 0.22252 0.91864 0.92858 0.0
H2249 H 0.20453 0.94234 0.97028 0.0
H2250 H 0.26337 0.99072 0.04005 0.0
H2251 H 0.2461 0.98004 0.0101 0.0
H2252 H 0.26177 0.95636 0.96622 0.0
C2253 C 0.21354 0.92173 0.92391 0.0
C2254 C 0.21705 0.94556 0.96905 0.0
C2255 C 0.20331 0.91355 0.90783 0.0
C2256 C 0.26374 0.98146 0.03166 0.0
C2257 C 0.25378 0.97528 0.01458 0.0
C2258 C 0.24929 0.95334 0.96731 0.0
C2259 C 0.21197 0.93342 0.93414 0.0
C2260 C 0.22289 0.94198 0.95142 0.0
C2261 C 0.25393 0.96326 1.00325 0.0
C2262 C 0.24336 0.95655 0.98512 0.0
H2263 H 0.18036 0.93128 0.9072 0.0
H2264 H 0.19833 0.9457 0.93523 0.0
H2265 H 0.24423 0.94397 0.9372 0.0
H2266 H 0.28169 0.95879 0.03092 0.0
H2267 H 0.26443 0.94812 1.00125 0.0
C2268 C 0.69883 0.90988 0.4051 0.0
C2269 C 0.71521 0.9156 0.40094 0.0
C2270 C 0.6941 0.9157 0.42167 0.0
C2271 C 0.71001 0.9505 0.45543 0.0
H2272 H 0.67528 0.92315 0.49228 0.0
C2273 C 0.70042 0.97291 0.53246 0.0
C2274 C 0.68457 0.96774 0.5389 0.0
C2275 C 0.7035 0.96621 0.5155 0.0
C2276 C 0.6849 0.93101 0.48201 0.0
H2277 H 0.73939 0.93171 0.41138 0.0
H2278 H 0.73123 0.94158 0.43983 0.0
H2279 H 0.68127 0.91201 0.46266 0.0
H2280 H 0.65954 0.9513 0.53247 0.0
H2281 H 0.66489 0.9398 0.50291 0.0
H2282 H 0.71372 0.96949 0.47461 0.0
C2283 C 0.72197 0.93284 0.43024 0.0
C2284 C 0.68832 0.92459 0.46499 0.0
C2285 C 0.72665 0.92705 0.41389 0.0
C2286 C 0.67191 0.95559 0.52802 0.0
C2287 C 0.67499 0.9489 0.51108 0.0
C2288 C 0.7066 0.9569 0.47236 0.0
C2289 C 0.70567 0.92743 0.4343 0.0
C2290 C 0.70108 0.93423 0.45161 0.0
C2291 C 0.69082 0.95415 0.50448 0.0
C2292 C 0.69412 0.94725 0.48608 0.0
H2293 H 0.6897 0.90107 0.39546 0.0
H2294 H 0.68142 0.91127 0.42433 0.0
H2295 H 0.71972 0.95837 0.44525 0.0
H2296 H 0.71048 0.98218 0.54048 0.0
H2297 H 0.71587 0.97042 0.51114 0.0
C2298 C 0.14839 0.86591 0.38896 0.0
C2299 C 0.16053 0.88084 0.39513 0.0
C2300 C 0.13688 0.85538 0.40303 0.0
C2301 C 0.13166 0.8471 0.45894 0.0
H2302 H 0.08781 0.81697 0.44446 0.0
C2303 C 0.08656 0.80362 0.51895 0.0
C2304 C 0.07709 0.78785 0.51302 0.0
C2305 C 0.09557 0.81554 0.50446 0.0
C2306 C 0.10005 0.82525 0.44871 0.0
H2307 H 0.16942 0.89676 0.42064 0.0
H2308 H 0.14916 0.87862 0.44495 0.0
H2309 H 0.10531 0.83698 0.4193 0.0
H2310 H 0.06936 0.77239 0.487 0.0
H2311 H 0.08512 0.79316 0.46177 0.0
H2312 H 0.12648 0.83534 0.48825 0.0
C2313 C 0.14878 0.87483 0.4294 0.0
C2314 C 0.1101 0.83673 0.43427 0.0
C2315 C 0.16033 0.88531 0.41539 0.0
C2316 C 0.07652 0.78439 0.49214 0.0
C2317 C 0.0855 0.79633 0.47763 0.0
C2318 C 0.12161 0.83569 0.47336 0.0
C2319 C 0.13716 0.85955 0.42359 0.0
C2320 C 0.12608 0.84776 0.43915 0.0
C2321 C 0.09531 0.81202 0.48364 0.0
C2322 C 0.10571 0.82455 0.46842 0.0
H2323 H 0.14822 0.86203 0.37351 0.0
H2324 H 0.12822 0.8437 0.39798 0.0
H2325 H 0.14397 0.85514 0.46318 0.0
H2326 H 0.08723 0.80675 0.53487 0.0
H2327 H 0.10281 0.82753 0.50959 0.0
C2328 C 0.22534 0.40011 0.41164 0.0
C2329 C 0.22609 0.41471 0.4078 0.0
C2330 C 0.23435 0.39839 0.42732 0.0
C2331 C 0.25413 0.41548 0.47584 0.0
H2332 H 0.27625 0.3919 0.46687 0.0
C2333 C 0.29614 0.41178 0.53638 0.0
C2334 C 0.29531 0.3971 0.53957 0.0
C2335 C 0.28823 0.41423 0.5199 0.0
C2336 C 0.27 0.39837 0.46969 0.0
H2337 H 0.2371 0.43899 0.41744 0.0
H2338 H 0.25271 0.43592 0.445 0.0
H2339 H 0.26155 0.3958 0.43883 0.0
H2340 H 0.2856 0.37349 0.52787 0.0
H2341 H 0.27155 0.37768 0.49925 0.0
H2342 H 0.26236 0.41789 0.50675 0.0
C2343 C 0.24503 0.42579 0.43588 0.0
C2344 C 0.26161 0.40063 0.45362 0.0
C2345 C 0.23607 0.42755 0.42011 0.0
C2346 C 0.28651 0.38495 0.5258 0.0
C2347 C 0.27853 0.38738 0.50933 0.0
C2348 C 0.26246 0.41317 0.49194 0.0
C2349 C 0.24426 0.41119 0.43964 0.0
C2350 C 0.25355 0.40918 0.45654 0.0
C2351 C 0.27923 0.40203 0.50626 0.0
C2352 C 0.27048 0.40457 0.48906 0.0
H2353 H 0.21757 0.38986 0.40283 0.0
H2354 H 0.23328 0.38692 0.43007 0.0
H2355 H 0.24784 0.42192 0.47865 0.0
H2356 H 0.30291 0.42143 0.54662 0.0
H2357 H 0.28925 0.42573 0.51779 0.0
C2358 C 0.21049 0.34453 0.77222 0.0
C2359 C 0.19499 0.34162 0.76719 0.0
C2360 C 0.22179 0.34749 0.75691 0.0
C2361 C 0.23175 0.36245 0.7039 0.0
H2362 H 0.26132 0.34619 0.70726 0.0
C2363 C 0.27632 0.37198 0.6388 0.0
C2364 C 0.29179 0.37503 0.64428 0.0
C2365 C 0.26439 0.36772 0.65369 0.0
C2366 C 0.25328 0.35098 0.70623 0.0
H2367 H 0.17907 0.3391 0.74207 0.0
H2368 H 0.19877 0.34409 0.71524 0.0
H2369 H 0.24028 0.33815 0.73311 0.0
H2370 H 0.30694 0.37628 0.6698 0.0
H2371 H 0.28618 0.36909 0.69584 0.0
H2372 H 0.24482 0.37541 0.67717 0.0
C2373 C 0.20221 0.34424 0.73109 0.0
C2374 C 0.24119 0.34633 0.721 0.0
C2375 C 0.19086 0.3412 0.74644 0.0
C2376 C 0.29514 0.37398 0.66505 0.0
C2377 C 0.2832 0.36973 0.67996 0.0
C2378 C 0.24386 0.36713 0.68916 0.0
C2379 C 0.21787 0.34766 0.73618 0.0
C2380 C 0.23031 0.35204 0.72003 0.0
C2381 C 0.26765 0.36643 0.67443 0.0
C2382 C 0.2548 0.36149 0.69017 0.0
H2383 H 0.21396 0.34474 0.78807 0.0
H2384 H 0.23377 0.35017 0.76135 0.0
H2385 H 0.22374 0.36728 0.70292 0.0
H2386 H 0.2733 0.37262 0.62293 0.0
H2387 H 0.2525 0.36509 0.64885 0.0
C2388 C 0.66756 0.90948 0.79068 0.0
C2389 C 0.67506 0.90024 0.79254 0.0
C2390 C 0.6676 0.91682 0.7719 0.0
C2391 C 0.69084 0.93081 0.72339 0.0
H2392 H 0.65468 0.93457 0.70342 0.0
C2393 C 0.6915 0.95556 0.64228 0.0
C2394 C 0.685 0.9656 0.63935 0.0
C2395 C 0.6894 0.9473 0.66084 0.0
C2396 C 0.66497 0.93379 0.70887 0.0
H2397 H 0.68788 0.89096 0.77567 0.0
H2398 H 0.68778 0.90352 0.74311 0.0
H2399 H 0.65234 0.92044 0.73579 0.0
H2400 H 0.6709 0.97456 0.65374 0.0
H2401 H 0.66739 0.96026 0.68632 0.0
H2402 H 0.70356 0.94423 0.69675 0.0
C2403 C 0.68212 0.90538 0.75623 0.0
C2404 C 0.6636 0.92566 0.72745 0.0
C2405 C 0.68206 0.89805 0.77493 0.0
C2406 C 0.67607 0.96692 0.65543 0.0
C2407 C 0.67399 0.95866 0.67411 0.0
C2408 C 0.69221 0.93895 0.70492 0.0
C2409 C 0.67519 0.91513 0.75451 0.0
C2410 C 0.67649 0.92393 0.73487 0.0
C2411 C 0.68079 0.94885 0.67715 0.0
C2412 C 0.67927 0.94047 0.69725 0.0
H2413 H 0.66209 0.91148 0.80389 0.0
H2414 H 0.6622 0.92428 0.77121 0.0
H2415 H 0.70116 0.93008 0.7288 0.0
H2416 H 0.69834 0.95411 0.63023 0.0
H2417 H 0.69452 0.93962 0.66234 0.0
C2418 C 0.13297 0.846 0.76611 0.0
C2419 C 0.13476 0.8611 0.76851 0.0
C2420 C 0.1266 0.83769 0.74809 0.0
C2421 C 0.10173 0.83533 0.70338 0.0
H2422 H 0.12091 0.81272 0.67881 0.0
C2423 C 0.08375 0.80956 0.62292 0.0
C2424 C 0.082 0.79461 0.61956 0.0
C2425 C 0.09045 0.81746 0.64106 0.0
C2426 C 0.11528 0.81881 0.68559 0.0
H2427 H 0.13135 0.87927 0.75349 0.0
H2428 H 0.12018 0.86476 0.7222 0.0
H2429 H 0.13191 0.82684 0.71053 0.0
H2430 H 0.08619 0.77634 0.63258 0.0
H2431 H 0.09776 0.79008 0.66445 0.0
H2432 H 0.08506 0.82728 0.6786 0.0
C2433 C 0.12354 0.85928 0.7344 0.0
C2434 C 0.1216 0.82692 0.70378 0.0
C2435 C 0.12994 0.86761 0.75239 0.0
C2436 C 0.08739 0.78786 0.63467 0.0
C2437 C 0.09408 0.79577 0.65291 0.0
C2438 C 0.09539 0.8272 0.68527 0.0
C2439 C 0.1218 0.84422 0.732 0.0
C2440 C 0.11496 0.83536 0.71283 0.0
C2441 C 0.09555 0.81061 0.65641 0.0
C2442 C 0.10214 0.81892 0.67603 0.0
H2443 H 0.13626 0.84045 0.77825 0.0
H2444 H 0.12521 0.82602 0.74689 0.0
H2445 H 0.09612 0.84145 0.71013 0.0
H2446 H 0.07985 0.8152 0.61157 0.0
H2447 H 0.09169 0.829 0.643 0.0
C2448 C 0.38264 0.21685 0.62777 0.0
C2449 C 0.37616 0.21035 0.64714 0.0
C2450 C 0.37767 0.20761 0.61038 0.0
C2451 C 0.36226 0.16718 0.59387 0.0
H2452 H 0.3584 0.18476 0.5417 0.0
C2453 C 0.35482 0.13557 0.51625 0.0
C2454 C 0.36433 0.1454 0.49996 0.0
C2455 C 0.35343 0.14207 0.5346 0.0
C2456 C 0.35951 0.17968 0.55611 0.0
H2457 H 0.35909 0.18904 0.66346 0.0
H2458 H 0.35043 0.17259 0.63276 0.0
H2459 H 0.36023 0.1985 0.57314 0.0
H2460 H 0.37977 0.16979 0.49029 0.0
H2461 H 0.37744 0.18101 0.52203 0.0
H2462 H 0.36208 0.1486 0.57668 0.0
C2463 C 0.35934 0.18498 0.63116 0.0
C2464 C 0.36049 0.18753 0.57416 0.0
C2465 C 0.36417 0.19439 0.64867 0.0
C2466 C 0.37229 0.16183 0.50243 0.0
C2467 C 0.37086 0.16829 0.52065 0.0
C2468 C 0.3613 0.1593 0.57573 0.0
C2469 C 0.36619 0.19149 0.61183 0.0
C2470 C 0.36235 0.18165 0.59323 0.0
C2471 C 0.36143 0.15854 0.53702 0.0
C2472 C 0.36039 0.1657 0.55655 0.0
H2473 H 0.39191 0.22911 0.62608 0.0
H2474 H 0.38337 0.213 0.59586 0.0
H2475 H 0.3638 0.16238 0.60827 0.0
H2476 H 0.34852 0.12286 0.5149 0.0
H2477 H 0.346 0.13419 0.54683 0.0
C2478 C 0.90973 0.2485 0.62142 0.0
C2479 C 0.90596 0.23266 0.62041 0.0
C2480 C 0.91783 0.25913 0.6053 0.0
C2481 C 0.92388 0.26081 0.55013 0.0
H2482 H 0.9591 0.30298 0.55963 0.0
C2483 C 0.95646 0.30511 0.48322 0.0
C2484 C 0.96149 0.32109 0.48639 0.0
C2485 C 0.95064 0.29413 0.49954 0.0
C2486 C 0.94914 0.29133 0.55669 0.0
H2487 H 0.90787 0.21556 0.60185 0.0
H2488 H 0.92191 0.23416 0.57338 0.0
H2489 H 0.94746 0.28423 0.58829 0.0
H2490 H 0.96419 0.33805 0.50915 0.0
H2491 H 0.95355 0.3189 0.53741 0.0
H2492 H 0.92507 0.26797 0.51872 0.0
C2493 C 0.91862 0.23832 0.58675 0.0
C2494 C 0.94255 0.28056 0.57313 0.0
C2495 C 0.91072 0.22772 0.60307 0.0
C2496 C 0.96051 0.32584 0.50621 0.0
C2497 C 0.95451 0.31485 0.52248 0.0
C2498 C 0.93033 0.27164 0.53371 0.0
C2499 C 0.92216 0.25411 0.58766 0.0
C2500 C 0.92979 0.26523 0.57004 0.0
C2501 C 0.94952 0.29883 0.5194 0.0
C2502 C 0.94299 0.2871 0.53678 0.0
H2503 H 0.90631 0.25264 0.63469 0.0
H2504 H 0.9203 0.27119 0.60638 0.0
H2505 H 0.91391 0.24913 0.54734 0.0
H2506 H 0.95717 0.30108 0.46815 0.0
H2507 H 0.94718 0.28199 0.49658 0.0
C2508 C 0.84578 0.73577 0.60306 0.0
C2509 C 0.8487 0.74846 0.61555 0.0
C2510 C 0.83896 0.73431 0.58379 0.0
C2511 C 0.83142 0.75498 0.54179 0.0
H2512 H 0.79402 0.71404 0.53266 0.0
C2513 C 0.78976 0.74251 0.47187 0.0
C2514 C 0.78298 0.72748 0.4633 0.0
C2515 C 0.79863 0.74578 0.48992 0.0
C2516 C 0.80459 0.72546 0.53477 0.0
H2517 H 0.84757 0.77006 0.61707 0.0
H2518 H 0.8358 0.76761 0.58298 0.0
H2519 H 0.80846 0.71889 0.56481 0.0
H2520 H 0.78064 0.70426 0.46645 0.0
H2521 H 0.79649 0.71008 0.49758 0.0
H2522 H 0.82773 0.76148 0.51156 0.0
C2523 C 0.83874 0.75876 0.58835 0.0
C2524 C 0.8128 0.72825 0.55324 0.0
C2525 C 0.84549 0.76017 0.6078 0.0
C2526 C 0.78558 0.71591 0.47282 0.0
C2527 C 0.79459 0.71923 0.49073 0.0
C2528 C 0.82329 0.75214 0.52314 0.0
C2529 C 0.83505 0.74559 0.57644 0.0
C2530 C 0.82633 0.74299 0.55689 0.0
C2531 C 0.80103 0.73413 0.49968 0.0
C2532 C 0.8098 0.7373 0.5194 0.0
H2533 H 0.84855 0.72679 0.60827 0.0
H2534 H 0.83654 0.72421 0.57471 0.0
H2535 H 0.84188 0.76643 0.54424 0.0
H2536 H 0.78791 0.75166 0.46492 0.0
H2537 H 0.80323 0.75731 0.4965 0.0
C2538 C 0.81367 0.67066 0.22943 0.0
C2539 C 0.80163 0.66755 0.21491 0.0
C2540 C 0.81043 0.67015 0.25033 0.0
C2541 C 0.7776 0.65758 0.28862 0.0
H2542 H 0.80872 0.69491 0.31691 0.0
C2543 C 0.76149 0.68186 0.35825 0.0
C2544 C 0.77281 0.6888 0.37395 0.0
C2545 C 0.76537 0.67661 0.34064 0.0
C2546 C 0.80005 0.68425 0.30942 0.0
H2547 H 0.77655 0.66071 0.21099 0.0
H2548 H 0.7709 0.65988 0.24739 0.0
H2549 H 0.81478 0.68999 0.28268 0.0
H2550 H 0.79691 0.6952 0.38376 0.0
H2551 H 0.80369 0.686 0.3529 0.0
H2552 H 0.76265 0.65216 0.31519 0.0
C2553 C 0.78281 0.66255 0.24267 0.0
C2554 C 0.80352 0.68141 0.28978 0.0
C2555 C 0.78605 0.66304 0.22177 0.0
C2556 C 0.78795 0.68998 0.3719 0.0
C2557 C 0.79186 0.68476 0.35421 0.0
C2558 C 0.77412 0.66042 0.30829 0.0
C2559 C 0.79508 0.66651 0.25714 0.0
C2560 C 0.79219 0.66825 0.27897 0.0
C2561 C 0.78066 0.67819 0.3383 0.0
C2562 C 0.78515 0.67399 0.31869 0.0
H2563 H 0.82571 0.67384 0.22462 0.0
H2564 H 0.82006 0.67298 0.26113 0.0
H2565 H 0.76874 0.6472 0.2808 0.0
H2566 H 0.74969 0.68073 0.35936 0.0
H2567 H 0.75656 0.67182 0.32855 0.0
C2568 C 0.35324 0.2109 0.2722 0.0
C2569 C 0.3526 0.20536 0.25233 0.0
C2570 C 0.353 0.20198 0.28944 0.0
C2571 C 0.34457 0.16179 0.30679 0.0
H2572 H 0.37364 0.18476 0.35077 0.0
C2573 C 0.3616 0.13053 0.37034 0.0
C2574 C 0.36258 0.13553 0.3906 0.0
C2575 C 0.35971 0.13896 0.35396 0.0
C2576 C 0.36531 0.17815 0.33876 0.0
H2577 H 0.35063 0.18573 0.23514 0.0
H2578 H 0.35039 0.17026 0.2651 0.0
H2579 H 0.37094 0.19919 0.3215 0.0
H2580 H 0.36245 0.15349 0.4094 0.0
H2581 H 0.3592 0.16825 0.38077 0.0
H2582 H 0.33917 0.14073 0.32395 0.0
C2583 C 0.35089 0.18145 0.26744 0.0
C2584 C 0.36372 0.18644 0.32194 0.0
C2585 C 0.35105 0.19035 0.25019 0.0
C2586 C 0.36178 0.14931 0.39401 0.0
C2587 C 0.35997 0.15781 0.37757 0.0
C2588 C 0.34622 0.1535 0.32357 0.0
C2589 C 0.35219 0.18727 0.28732 0.0
C2590 C 0.35338 0.17839 0.30564 0.0
C2591 C 0.3588 0.15268 0.35733 0.0
C2592 C 0.35668 0.16156 0.33974 0.0
H2593 H 0.35436 0.22237 0.27448 0.0
H2594 H 0.35366 0.20673 0.30446 0.0
H2595 H 0.33629 0.15515 0.29476 0.0
H2596 H 0.36218 0.11999 0.36707 0.0
H2597 H 0.35911 0.13478 0.33859 0.0
C2598 C 0.87671 0.28612 0.23429 0.0
C2599 C 0.86 0.27884 0.23714 0.0
C2600 C 0.88718 0.29379 0.25041 0.0
C2601 C 0.88904 0.29341 0.30633 0.0
H2602 H 0.92829 0.3334 0.29836 0.0
C2603 C 0.93289 0.32436 0.37293 0.0
C2604 C 0.9494 0.33184 0.36843 0.0
C2605 C 0.92155 0.31871 0.35719 0.0
C2606 C 0.91748 0.32214 0.30081 0.0
H2607 H 0.84117 0.27407 0.25906 0.0
H2608 H 0.85948 0.28747 0.28729 0.0
H2609 H 0.90931 0.32234 0.27025 0.0
H2610 H 0.96695 0.33915 0.34387 0.0
H2611 H 0.94726 0.32897 0.31656 0.0
H2612 H 0.89735 0.29291 0.33665 0.0
C2613 C 0.86446 0.28722 0.27255 0.0
C2614 C 0.90658 0.31585 0.28471 0.0
C2615 C 0.85398 0.27969 0.25635 0.0
C2616 C 0.95432 0.33353 0.34787 0.0
C2617 C 0.94301 0.32778 0.33217 0.0
C2618 C 0.9 0.29963 0.32239 0.0
C2619 C 0.88116 0.29421 0.2698 0.0
C2620 C 0.8923 0.30136 0.28724 0.0
C2621 C 0.92646 0.32031 0.3366 0.0
C2622 C 0.91444 0.31401 0.31979 0.0
H2623 H 0.88168 0.28575 0.21962 0.0
H2624 H 0.89998 0.29896 0.24784 0.0
H2625 H 0.87824 0.28211 0.30865 0.0
H2626 H 0.9287 0.32296 0.3886 0.0
H2627 H 0.90894 0.31323 0.36118 0.0
C2628 C 0.39496 0.26287 0.7704 0.0
C2629 C 0.38314 0.25203 0.75725 0.0
C2630 C 0.39082 0.2689 0.787 0.0
C2631 C 0.35791 0.26248 0.82185 0.0
H2632 H 0.38482 0.30736 0.83058 0.0
C2633 C 0.34338 0.29537 0.88396 0.0
C2634 C 0.35628 0.30745 0.8946 0.0
C2635 C 0.3461 0.28829 0.86719 0.0
C2636 C 0.37729 0.29478 0.82859 0.0
H2637 H 0.35752 0.23867 0.75178 0.0
H2638 H 0.3502 0.24925 0.78112 0.0
H2639 H 0.39005 0.29537 0.80154 0.0
H2640 H 0.38224 0.32138 0.89594 0.0
H2641 H 0.38702 0.30888 0.86693 0.0
H2642 H 0.34525 0.26188 0.8491 0.0
C2643 C 0.36274 0.25304 0.7784 0.0
C2644 C 0.38026 0.28789 0.81184 0.0
C2645 C 0.36692 0.24698 0.76159 0.0
C2646 C 0.37201 0.31218 0.88808 0.0
C2647 C 0.37474 0.30505 0.87132 0.0
C2648 C 0.35496 0.26938 0.83871 0.0
C2649 C 0.37471 0.26431 0.79108 0.0
C2650 C 0.37073 0.27162 0.80834 0.0
C2651 C 0.36181 0.29303 0.86057 0.0
C2652 C 0.36471 0.28562 0.84243 0.0
H2653 H 0.40757 0.26695 0.76775 0.0
H2654 H 0.40033 0.27726 0.79666 0.0
H2655 H 0.35042 0.24991 0.81972 0.0
H2656 H 0.33108 0.29143 0.88846 0.0
H2657 H 0.33582 0.27926 0.8592 0.0
C2658 C 0.83921 0.17254 0.76556 0.0
C2659 C 0.83471 0.17106 0.74488 0.0
C2660 C 0.82755 0.16543 0.78099 0.0
C2661 C 0.78659 0.13338 0.79131 0.0
H2662 H 0.7874 0.15879 0.83654 0.0
C2663 C 0.73585 0.10859 0.852 0.0
C2664 C 0.74026 0.1128 0.87243 0.0
C2665 C 0.74695 0.11619 0.83607 0.0
C2666 C 0.78709 0.15142 0.82421 0.0
H2667 H 0.81457 0.16057 0.72407 0.0
H2668 H 0.79421 0.14789 0.751 0.0
H2669 H 0.808 0.17049 0.80993 0.0
H2670 H 0.75974 0.12848 0.8921 0.0
H2671 H 0.77914 0.14131 0.86459 0.0
H2672 H 0.76604 0.11416 0.80574 0.0
C2673 C 0.80673 0.15467 0.75528 0.0
C2674 C 0.79889 0.15817 0.80893 0.0
C2675 C 0.81836 0.16199 0.7399 0.0
C2676 C 0.75589 0.125 0.87653 0.0
C2677 C 0.76704 0.13244 0.86066 0.0
C2678 C 0.77492 0.12654 0.80674 0.0
C2679 C 0.81119 0.15647 0.776 0.0
C2680 C 0.79876 0.14922 0.79232 0.0
C2681 C 0.76279 0.12805 0.84021 0.0
C2682 C 0.77499 0.13546 0.82343 0.0
H2683 H 0.85171 0.17955 0.76982 0.0
H2684 H 0.83132 0.1669 0.79684 0.0
H2685 H 0.78629 0.12617 0.77875 0.0
H2686 H 0.72387 0.09929 0.84831 0.0
H2687 H 0.74309 0.11269 0.82052 0.0
C2688 C 0.8832 0.71994 0.7625 0.0
C2689 C 0.88519 0.73495 0.75797 0.0
C2690 C 0.89307 0.71807 0.77672 0.0
C2691 C 0.92099 0.73728 0.81941 0.0
H2692 H 0.93708 0.7093 0.80481 0.0
C2693 C 0.96932 0.73256 0.86708 0.0
C2694 C 0.96657 0.71723 0.87137 0.0
C2695 C 0.95995 0.73511 0.85271 0.0
C2696 C 0.93258 0.71705 0.80918 0.0
H2697 H 0.89879 0.75973 0.76528 0.0
H2698 H 0.91613 0.75649 0.79022 0.0
H2699 H 0.91922 0.71301 0.7815 0.0
H2700 H 0.95212 0.6926 0.86349 0.0
H2701 H 0.93573 0.69705 0.83843 0.0
H2702 H 0.93437 0.7413 0.84713 0.0
C2703 C 0.90682 0.74614 0.78282 0.0
C2704 C 0.92233 0.71916 0.79585 0.0
C2705 C 0.89689 0.748 0.76858 0.0
C2706 C 0.95456 0.70456 0.86053 0.0
C2707 C 0.9452 0.70712 0.84611 0.0
C2708 C 0.93127 0.73518 0.83274 0.0
C2709 C 0.9052 0.73118 0.78677 0.0
C2710 C 0.91632 0.72922 0.80087 0.0
C2711 C 0.94765 0.72239 0.84226 0.0
C2712 C 0.93712 0.72498 0.82782 0.0
H2713 H 0.87406 0.70961 0.75489 0.0
H2714 H 0.89123 0.70633 0.77978 0.0
H2715 H 0.91643 0.74498 0.82382 0.0
H2716 H 0.97852 0.7426 0.87511 0.0
H2717 H 0.96229 0.74705 0.84984 0.0
C2718 C 0.87106 0.70542 0.07355 0.0
C2719 C 0.86038 0.68974 0.07983 0.0
C2720 C 0.88292 0.70876 0.05885 0.0
C2721 C 0.89377 0.69063 0.01749 0.0
H2722 H 0.93736 0.72401 0.0274 0.0
C2723 C 0.94709 0.6953 0.97276 0.0
C2724 C 0.95897 0.7103 0.96571 0.0
C2725 C 0.93525 0.69372 0.98641 0.0
C2726 C 0.92521 0.7148 0.02429 0.0
H2727 H 0.85388 0.66531 0.07546 0.0
H2728 H 0.87443 0.67113 0.04979 0.0
H2729 H 0.91593 0.71952 0.05134 0.0
H2730 H 0.96797 0.73546 0.96789 0.0
H2731 H 0.94713 0.73266 0.99183 0.0
H2732 H 0.903 0.68579 0.99059 0.0
C2733 C 0.87351 0.68083 0.05608 0.0
C2734 C 0.91295 0.71223 0.03798 0.0
C2735 C 0.86169 0.67749 0.0708 0.0
C2736 C 0.95898 0.72374 0.97305 0.0
C2737 C 0.94708 0.72215 0.98677 0.0
C2738 C 0.906 0.69321 1.00384 0.0
C2739 C 0.88431 0.6965 0.05004 0.0
C2740 C 0.89714 0.69996 0.03487 0.0
C2741 C 0.93496 0.70709 0.99336 0.0
C2742 C 0.9219 0.70515 0.00725 0.0
H2743 H 0.87023 0.71513 0.07992 0.0
H2744 H 0.89093 0.72094 0.05429 0.0
H2745 H 0.88166 0.68129 0.01447 0.0
H2746 H 0.9468 0.68469 0.96757 0.0
H2747 H 0.92629 0.68198 0.99154 0.0
C2748 C 0.33838 0.2277 0.12232 0.0
C2749 C 0.34439 0.23427 0.14153 0.0
C2750 C 0.33761 0.23696 0.10613 0.0
C2751 C 0.33988 0.27548 0.09309 0.0
H2752 H 0.35381 0.26944 0.04012 0.0
C2753 C 0.35741 0.32116 0.02611 0.0
C2754 C 0.35338 0.31562 0.00603 0.0
C2755 C 0.35487 0.31073 0.0426 0.0
C2756 C 0.34965 0.27116 0.0547 0.0
H2757 H 0.35371 0.25571 0.15891 0.0
H2758 H 0.35247 0.27187 0.13067 0.0
H2759 H 0.35161 0.25223 0.06895 0.0
H2760 H 0.34321 0.29461 0.9877 0.0
H2761 H 0.33867 0.2764 0.01648 0.0
H2762 H 0.33816 0.29459 0.07883 0.0
C2763 C 0.34821 0.25949 0.12814 0.0
C2764 C 0.34838 0.26125 0.0713 0.0
C2765 C 0.34894 0.2502 0.14437 0.0
C2766 C 0.34651 0.29931 1.00293 0.0
C2767 C 0.344 0.28888 0.01944 0.0
C2768 C 0.34118 0.28541 0.07647 0.0
C2769 C 0.34288 0.25308 0.10864 0.0
C2770 C 0.34355 0.26331 0.09078 0.0
C2771 C 0.34824 0.29445 0.03951 0.0
C2772 C 0.34618 0.28346 0.05706 0.0
H2773 H 0.33468 0.21546 0.11956 0.0
H2774 H 0.33311 0.2315 0.0915 0.0
H2775 H 0.33592 0.27731 0.10775 0.0
H2776 H 0.36275 0.33362 0.02912 0.0
H2777 H 0.35849 0.31552 0.05773 0.0
C2778 C 0.79846 0.19968 0.11115 0.0
C2779 C 0.80272 0.2157 0.1096 0.0
C2780 C 0.79128 0.18964 0.09476 0.0
C2781 C 0.78575 0.18996 0.03865 0.0
H2782 H 0.75196 0.1468 0.04877 0.0
C2783 C 0.74745 0.14912 0.97388 0.0
C2784 C 0.74404 0.13335 0.97482 0.0
C2785 C 0.75487 0.15911 0.99025 0.0
C2786 C 0.76151 0.15876 0.04572 0.0
H2787 H 0.8026 0.23361 0.08944 0.0
H2788 H 0.7897 0.216 0.06102 0.0
H2789 H 0.76397 0.16439 0.07747 0.0
H2790 H 0.74584 0.11572 0.9937 0.0
H2791 H 0.75883 0.13322 0.02236 0.0
H2792 H 0.78314 0.18434 0.00686 0.0
C2793 C 0.79218 0.21127 0.07486 0.0
C2794 C 0.7684 0.16886 0.06216 0.0
C2795 C 0.79941 0.22135 0.09127 0.0
C2796 C 0.74829 0.1278 0.9925 0.0
C2797 C 0.75565 0.1378 0.00895 0.0
C2798 C 0.7788 0.17988 0.0222 0.0
C2799 C 0.78808 0.1953 0.07637 0.0
C2800 C 0.78062 0.18459 0.05884 0.0
C2801 C 0.759 0.15356 0.00801 0.0
C2802 C 0.7666 0.16417 0.02554 0.0
H2803 H 0.80057 0.1948 0.12509 0.0
H2804 H 0.78845 0.17746 0.09642 0.0
H2805 H 0.79532 0.2019 0.03554 0.0
H2806 H 0.74433 0.15378 0.96051 0.0
H2807 H 0.75712 0.17113 0.98914 0.0
loop_
_geom_bond_atom_site_label_1
_geom_bond_atom_site_label_2
_geom_bond_distance
_geom_bond_site_symmetry_2
_ccdc_geom_bond_type
Cu0 N1 2.041 . S
Cu0 O6 1.959 1_554 S
Cu0 N11 1.944 1_554 S
Cu0 O20 1.976 . S
N1 Cu0 2.041 . S
N1 C3 1.263 . S
N1 C5 1.389 . S
N2 C3 1.358 . S
N2 C4 1.400 . S
C3 N1 1.263 . S
C3 N2 1.358 . S
C3 H9 0.930 . S
C4 N2 1.400 . S
C4 C5 1.351 . S
C4 H21 0.930 . S
C5 N1 1.389 . S
C5 C4 1.351 . S
C5 H10 0.930 . S
O6 Cu0 1.959 1_556 S
O6 C16 1.282 . S
C7 O8 1.261 . S
C7 O20 1.251 . S
O8 C7 1.261 . S
H9 C3 0.930 . S
H10 C5 0.930 . S
N11 Cu0 1.944 1_556 S
N11 C13 1.335 . S
N11 C14 1.390 . S
N12 C13 1.345 . S
N12 C15 1.336 . S
C13 N11 1.335 . S
C13 N12 1.345 . S
C13 H18 0.930 . S
C14 N11 1.390 . S
C14 C15 1.346 . S
C14 H19 0.930 . S
C15 N12 1.336 . S
C15 C14 1.346 . S
C15 H22 0.929 . S
C16 O6 1.282 . S
C16 O17 1.216 . S
O17 C16 1.216 . S
H18 C13 0.930 . S
H19 C14 0.930 . S
O20 Cu0 1.976 . S
O20 C7 1.251 . S
H21 C4 0.930 . S
H22 C15 0.929 . S
Cu23 N24 1.999 1_554 S
Cu23 O29 1.974 . S
Cu23 N34 1.985 . S
Cu23 O43 1.959 1_554 S
N24 Cu23 1.999 1_556 S
N24 C26 1.263 . S
N24 C28 1.389 . S
N25 C26 1.358 . S
N25 C27 1.400 . S
C26 N24 1.263 . S
C26 N25 1.358 . S
C26 H32 0.930 . S
C27 N25 1.400 . S
C27 C28 1.351 . S
C27 H44 0.930 . S
C28 N24 1.389 . S
C28 C27 1.351 . S
C28 H33 0.930 . S
O29 Cu23 1.974 . S
O29 C39 1.282 . S
C30 O31 1.261 . S
C30 O43 1.251 . S
O31 C30 1.261 . S
H32 C26 0.930 . S
H33 C28 0.930 . S
N34 Cu23 1.985 . S
N34 C36 1.335 . S
N34 C37 1.390 . S
N35 C36 1.345 . S
N35 C38 1.336 . S
C36 N34 1.335 . S
C36 N35 1.345 . S
C36 H41 0.930 . S
C37 N34 1.390 . S
C37 C38 1.346 . S
C37 H42 0.930 . S
C38 N35 1.336 . S
C38 C37 1.346 . S
C38 H45 0.929 . S
C39 O29 1.282 . S
C39 O40 1.216 . S
O40 C39 1.216 . S
H41 C36 0.930 . S
H42 C37 0.930 . S
O43 Cu23 1.959 1_556 S
O43 C30 1.251 . S
H44 C27 0.930 . S
H45 C38 0.929 . S
Cu46 N47 1.999 1_554 S
Cu46 O52 1.974 . S
Cu46 N57 1.985 . S
Cu46 O66 1.955 1_554 S
N47 Cu46 1.999 1_556 S
N47 C49 1.263 . S
N47 C51 1.396 . S
N48 C49 1.358 . S
N48 C50 1.420 . S
C49 N47 1.263 . S
C49 N48 1.358 . S
C49 H55 0.930 . S
C50 N48 1.420 . S
C50 C51 1.347 . S
C50 H67 0.921 1_545 S
C51 N47 1.396 . S
C51 C50 1.347 . S
C51 H56 0.921 1_545 S
O52 Cu46 1.974 . S
O52 C62 1.282 . S
C53 O54 1.261 . S
C53 O66 1.253 . S
O54 C53 1.261 . S
H55 C49 0.930 . S
H56 C51 0.921 1_565 S
N57 Cu46 1.985 . S
N57 C59 1.335 . S
N57 C60 1.390 . S
N58 C59 1.345 . S
N58 C61 1.336 . S
C59 N57 1.335 . S
C59 N58 1.345 . S
C59 H64 0.930 . S
C60 N57 1.390 . S
C60 C61 1.346 . S
C60 H65 0.930 . S
C61 N58 1.336 . S
C61 C60 1.346 . S
C61 H68 0.929 . S
C62 O52 1.282 . S
C62 O63 1.216 . S
O63 C62 1.216 . S
H64 C59 0.930 . S
H65 C60 0.930 . S
O66 Cu46 1.955 1_556 S
O66 C53 1.253 . S
H67 C50 0.921 1_565 S
H68 C61 0.929 . S
Cu69 N70 1.999 . S
Cu69 O75 1.974 . S
Cu69 N80 1.985 . S
Cu69 O89 1.959 . S
N70 Cu69 1.999 . S
N70 C72 1.263 . S
N70 C74 1.389 . S
N71 C72 1.358 . S
N71 C73 1.400 . S
C72 N70 1.263 . S
C72 N71 1.358 . S
C72 H78 0.930 . S
C73 N71 1.400 . S
C73 C74 1.351 . S
C73 H90 0.930 . S
C74 N70 1.389 . S
C74 C73 1.351 . S
C74 H79 0.930 . S
O75 Cu69 1.974 . S
O75 C85 1.282 . S
C76 O77 1.261 . S
C76 O89 1.251 . S
O77 C76 1.261 . S
H78 C72 0.930 . S
H79 C74 0.930 . S
N80 Cu69 1.985 . S
N80 C82 1.335 . S
N80 C83 1.390 . S
N81 C82 1.345 . S
N81 C84 1.336 . S
C82 N80 1.335 . S
C82 N81 1.345 . S
C82 H87 0.930 . S
C83 N80 1.390 . S
C83 C84 1.346 . S
C83 H88 0.930 . S
C84 N81 1.336 . S
C84 C83 1.346 . S
C84 H91 0.929 . S
C85 O75 1.282 . S
C85 O86 1.216 . S
O86 C85 1.216 . S
H87 C82 0.930 . S
H88 C83 0.930 . S
O89 Cu69 1.959 . S
O89 C76 1.251 . S
H90 C73 0.930 . S
H91 C84 0.929 . S
Cu92 N93 1.999 . S
Cu92 O98 1.974 . S
Cu92 N103 1.985 . S
Cu92 O112 1.959 . S
N93 Cu92 1.999 . S
N93 C95 1.263 . S
N93 C97 1.389 . S
N94 C95 1.358 . S
N94 C96 1.400 . S
C95 N93 1.263 . S
C95 N94 1.358 . S
C95 H101 0.930 . S
C96 N94 1.400 . S
C96 C97 1.351 . S
C96 H113 0.930 . S
C97 N93 1.389 . S
C97 C96 1.351 . S
C97 H102 0.930 . S
O98 Cu92 1.974 . S
O98 C108 1.282 . S
C99 O100 1.261 . S
C99 O112 1.251 . S
O100 C99 1.261 . S
H101 C95 0.930 . S
H102 C97 0.930 . S
N103 Cu92 1.985 . S
N103 C105 1.335 . S
N103 C106 1.390 . S
N104 C105 1.345 . S
N104 C107 1.336 . S
C105 N103 1.335 . S
C105 N104 1.345 . S
C105 H110 0.930 . S
C106 N103 1.390 . S
C106 C107 1.346 . S
C106 H111 0.930 . S
C107 N104 1.336 . S
C107 C106 1.346 . S
C107 H114 0.929 . S
C108 O98 1.282 . S
C108 O109 1.216 . S
O109 C108 1.216 . S
H110 C105 0.930 . S
H111 C106 0.930 . S
O112 Cu92 1.959 . S
O112 C99 1.251 . S
H113 C96 0.930 . S
H114 C107 0.929 . S
Cu115 N116 1.999 . S
Cu115 O121 1.974 . S
Cu115 N126 1.985 . S
Cu115 O135 1.959 . S
N116 Cu115 1.999 . S
N116 C118 1.263 . S
N116 C120 1.389 . S
N117 C118 1.358 . S
N117 C119 1.400 . S
C118 N116 1.263 . S
C118 N117 1.358 . S
C118 H124 0.930 . S
C119 N117 1.400 . S
C119 C120 1.351 . S
C119 H136 0.930 . S
C120 N116 1.389 . S
C120 C119 1.351 . S
C120 H125 0.930 . S
O121 Cu115 1.974 . S
O121 C131 1.282 . S
C122 O123 1.261 . S
C122 O135 1.251 . S
O123 C122 1.261 . S
H124 C118 0.930 . S
H125 C120 0.930 . S
N126 Cu115 1.985 . S
N126 C128 1.335 . S
N126 C129 1.390 . S
N127 C128 1.345 . S
N127 C130 1.336 . S
C128 N126 1.335 . S
C128 N127 1.345 . S
C128 H133 0.930 . S
C129 N126 1.390 . S
C129 C130 1.346 . S
C129 H134 0.930 . S
C130 N127 1.336 . S
C130 C129 1.346 . S
C130 H137 0.929 . S
C131 O121 1.282 . S
C131 O132 1.216 . S
O132 C131 1.216 . S
H133 C128 0.930 . S
H134 C129 0.930 . S
O135 Cu115 1.959 . S
O135 C122 1.251 . S
H136 C119 0.930 . S
H137 C130 0.929 . S
Cu138 N139 1.999 . S
Cu138 O144 1.974 . S
Cu138 N149 1.985 . S
Cu138 O158 1.959 . S
N139 Cu138 1.999 . S
N139 C141 1.263 . S
N139 C143 1.389 . S
N140 C141 1.358 . S
N140 C142 1.400 . S
C141 N139 1.263 . S
C141 N140 1.358 . S
C141 H147 0.930 . S
C142 N140 1.400 . S
C142 C143 1.351 . S
C142 H159 0.930 . S
C143 N139 1.389 . S
C143 C142 1.351 . S
C143 H148 0.930 . S
O144 Cu138 1.974 . S
O144 C154 1.282 . S
C145 O146 1.261 . S
C145 O158 1.251 . S
O146 C145 1.261 . S
H147 C141 0.930 . S
H148 C143 0.930 . S
N149 Cu138 1.985 . S
N149 C151 1.335 . S
N149 C152 1.390 . S
N150 C151 1.345 . S
N150 C153 1.336 . S
C151 N149 1.335 . S
C151 N150 1.345 . S
C151 H156 0.930 . S
C152 N149 1.390 . S
C152 C153 1.346 . S
C152 H157 0.930 . S
C153 N150 1.336 . S
C153 C152 1.346 . S
C153 H160 0.929 . S
C154 O144 1.282 . S
C154 O155 1.216 . S
O155 C154 1.216 . S
H156 C151 0.930 . S
H157 C152 0.930 . S
O158 Cu138 1.959 . S
O158 C145 1.251 . S
H159 C142 0.930 . S
H160 C153 0.929 . S
Cu161 N162 1.999 . S
Cu161 O167 1.974 . S
Cu161 N172 1.985 . S
Cu161 O181 1.959 . S
N162 Cu161 1.999 . S
N162 C164 1.263 . S
N162 C166 1.389 . S
N163 C164 1.358 . S
N163 C165 1.400 . S
C164 N162 1.263 . S
C164 N163 1.358 . S
C164 H170 0.930 . S
C165 N163 1.400 . S
C165 C166 1.351 . S
C165 H182 0.930 . S
C166 N162 1.389 . S
C166 C165 1.351 . S
C166 H171 0.930 . S
O167 Cu161 1.974 . S
O167 C177 1.282 . S
C168 O169 1.261 . S
C168 O181 1.251 . S
O169 C168 1.261 . S
H170 C164 0.930 . S
H171 C166 0.930 . S
N172 Cu161 1.985 . S
N172 C174 1.335 . S
N172 C175 1.390 . S
N173 C174 1.345 . S
N173 C176 1.336 . S
C174 N172 1.335 . S
C174 N173 1.345 . S
C174 H179 0.930 . S
C175 N172 1.390 . S
C175 C176 1.346 . S
C175 H180 0.930 . S
C176 N173 1.336 . S
C176 C175 1.346 . S
C176 H183 0.929 . S
C177 O167 1.282 . S
C177 O178 1.216 . S
O178 C177 1.216 . S
H179 C174 0.930 . S
H180 C175 0.930 . S
O181 Cu161 1.959 . S
O181 C168 1.251 . S
H182 C165 0.930 . S
H183 C176 0.929 . S
Cu184 N185 1.999 . S
Cu184 O190 1.974 . S
Cu184 N195 1.985 . S
Cu184 O204 1.959 . S
N185 Cu184 1.999 . S
N185 C187 1.263 . S
N185 C189 1.389 . S
N186 C187 1.358 . S
N186 C188 1.400 . S
C187 N185 1.263 . S
C187 N186 1.358 . S
C187 H193 0.930 . S
C188 N186 1.400 . S
C188 C189 1.351 . S
C188 H205 0.930 . S
C189 N185 1.389 . S
C189 C188 1.351 . S
C189 H194 0.930 . S
O190 Cu184 1.974 . S
O190 C200 1.282 . S
C191 O192 1.261 . S
C191 O204 1.251 . S
O192 C191 1.261 . S
H193 C187 0.930 . S
H194 C189 0.930 . S
N195 Cu184 1.985 . S
N195 C197 1.335 . S
N195 C198 1.390 . S
N196 C197 1.345 . S
N196 C199 1.336 . S
C197 N195 1.335 . S
C197 N196 1.345 . S
C197 H202 0.930 . S
C198 N195 1.390 . S
C198 C199 1.346 . S
C198 H203 0.930 . S
C199 N196 1.336 . S
C199 C198 1.346 . S
C199 H206 0.929 . S
C200 O190 1.282 . S
C200 O201 1.216 . S
O201 C200 1.216 . S
H202 C197 0.930 . S
H203 C198 0.930 . S
O204 Cu184 1.959 . S
O204 C191 1.251 . S
H205 C188 0.930 . S
H206 C199 0.929 . S
Cu207 N208 1.999 . S
Cu207 O213 1.974 . S
Cu207 N218 1.985 . S
Cu207 O227 1.959 . S
N208 Cu207 1.999 . S
N208 C210 1.263 . S
N208 C212 1.389 . S
N209 C210 1.358 . S
N209 C211 1.400 . S
C210 N208 1.263 . S
C210 N209 1.358 . S
C210 H216 0.930 . S
C211 N209 1.400 . S
C211 C212 1.351 . S
C211 H228 0.930 . S
C212 N208 1.389 . S
C212 C211 1.351 . S
C212 H217 0.930 . S
O213 Cu207 1.974 . S
O213 C223 1.282 . S
C214 O215 1.261 . S
C214 O227 1.251 . S
O215 C214 1.261 . S
H216 C210 0.930 . S
H217 C212 0.930 . S
N218 Cu207 1.985 . S
N218 C220 1.335 . S
N218 C221 1.390 . S
N219 C220 1.345 . S
N219 C222 1.336 . S
C220 N218 1.335 . S
C220 N219 1.345 . S
C220 H225 0.930 . S
C221 N218 1.390 . S
C221 C222 1.346 . S
C221 H226 0.930 . S
C222 N219 1.336 . S
C222 C221 1.346 . S
C222 H229 0.929 . S
C223 O213 1.282 . S
C223 O224 1.216 . S
O224 C223 1.216 . S
H225 C220 0.930 . S
H226 C221 0.930 . S
O227 Cu207 1.959 . S
O227 C214 1.251 . S
H228 C211 0.930 . S
H229 C222 0.929 . S
Cu230 N231 1.999 . S
Cu230 O236 1.974 . S
Cu230 N241 1.985 . S
Cu230 O250 1.959 . S
N231 Cu230 1.999 . S
N231 C233 1.263 . S
N231 C235 1.389 . S
N232 C233 1.358 . S
N232 C234 1.400 . S
C233 N231 1.263 . S
C233 N232 1.358 . S
C233 H239 0.930 . S
C234 N232 1.400 . S
C234 C235 1.351 . S
C234 H251 0.930 . S
C235 N231 1.389 . S
C235 C234 1.351 . S
C235 H240 0.930 . S
O236 Cu230 1.974 . S
O236 C246 1.282 . S
C237 O238 1.261 . S
C237 O250 1.251 . S
O238 C237 1.261 . S
H239 C233 0.930 . S
H240 C235 0.930 . S
N241 Cu230 1.985 . S
N241 C243 1.335 . S
N241 C244 1.390 . S
N242 C243 1.345 . S
N242 C245 1.336 . S
C243 N241 1.335 . S
C243 N242 1.345 . S
C243 H248 0.930 . S
C244 N241 1.390 . S
C244 C245 1.346 . S
C244 H249 0.930 . S
C245 N242 1.336 . S
C245 C244 1.346 . S
C245 H252 0.929 . S
C246 O236 1.282 . S
C246 O247 1.216 . S
O247 C246 1.216 . S
H248 C243 0.930 . S
H249 C244 0.930 . S
O250 Cu230 1.959 . S
O250 C237 1.251 . S
H251 C234 0.930 . S
H252 C245 0.929 . S
Cu253 N254 1.999 . S
Cu253 O259 1.974 . S
Cu253 N264 1.985 . S
Cu253 O273 1.959 . S
N254 Cu253 1.999 . S
N254 C256 1.263 . S
N254 C258 1.389 . S
N255 C256 1.358 . S
N255 C257 1.400 . S
C256 N254 1.263 . S
C256 N255 1.358 . S
C256 H262 0.930 . S
C257 N255 1.400 . S
C257 C258 1.351 . S
C257 H274 0.930 . S
C258 N254 1.389 . S
C258 C257 1.351 . S
C258 H263 0.930 . S
O259 Cu253 1.974 . S
O259 C269 1.282 . S
C260 O261 1.261 . S
C260 O273 1.251 . S
O261 C260 1.261 . S
H262 C256 0.930 . S
H263 C258 0.930 . S
N264 Cu253 1.985 . S
N264 C266 1.335 . S
N264 C267 1.390 . S
N265 C266 1.345 . S
N265 C268 1.336 . S
C266 N264 1.335 . S
C266 N265 1.345 . S
C266 H271 0.930 . S
C267 N264 1.390 . S
C267 C268 1.346 . S
C267 H272 0.930 . S
C268 N265 1.336 . S
C268 C267 1.346 . S
C268 H275 0.929 . S
C269 O259 1.282 . S
C269 O270 1.216 . S
O270 C269 1.216 . S
H271 C266 0.930 . S
H272 C267 0.930 . S
O273 Cu253 1.959 . S
O273 C260 1.251 . S
H274 C257 0.930 . S
H275 C268 0.929 . S
Cu276 N277 1.999 . S
Cu276 O282 1.974 . S
Cu276 N287 1.985 . S
Cu276 O296 1.959 . S
N277 Cu276 1.999 . S
N277 C279 1.263 . S
N277 C281 1.389 . S
N278 C279 1.358 . S
N278 C280 1.400 . S
C279 N277 1.263 . S
C279 N278 1.358 . S
C279 H285 0.930 . S
C280 N278 1.400 . S
C280 C281 1.351 . S
C280 H297 0.930 . S
C281 N277 1.389 . S
C281 C280 1.351 . S
C281 H286 0.930 . S
O282 Cu276 1.974 . S
O282 C292 1.282 . S
C283 O284 1.261 . S
C283 O296 1.251 . S
O284 C283 1.261 . S
H285 C279 0.930 . S
H286 C281 0.930 . S
N287 Cu276 1.985 . S
N287 C289 1.335 . S
N287 C290 1.390 . S
N288 C289 1.345 . S
N288 C291 1.336 . S
C289 N287 1.335 . S
C289 N288 1.345 . S
C289 H294 0.930 . S
C290 N287 1.390 . S
C290 C291 1.346 . S
C290 H295 0.930 . S
C291 N288 1.336 . S
C291 C290 1.346 . S
C291 H298 0.929 . S
C292 O282 1.282 . S
C292 O293 1.216 . S
O293 C292 1.216 . S
H294 C289 0.930 . S
H295 C290 0.930 . S
O296 Cu276 1.959 . S
O296 C283 1.251 . S
H297 C280 0.930 . S
H298 C291 0.929 . S
Cu299 N300 1.999 . S
Cu299 O305 1.974 . S
Cu299 N310 1.985 . S
Cu299 O319 1.959 . S
N300 Cu299 1.999 . S
N300 C302 1.263 . S
N300 C304 1.389 . S
N301 C302 1.358 . S
N301 C303 1.400 . S
C302 N300 1.263 . S
C302 N301 1.358 . S
C302 H308 0.930 . S
C303 N301 1.400 . S
C303 C304 1.351 . S
C303 H320 0.930 . S
C304 N300 1.389 . S
C304 C303 1.351 . S
C304 H309 0.930 . S
O305 Cu299 1.974 . S
O305 C315 1.282 . S
C306 O307 1.261 . S
C306 O319 1.251 . S
O307 C306 1.261 . S
H308 C302 0.930 . S
H309 C304 0.930 . S
N310 Cu299 1.985 . S
N310 C312 1.335 . S
N310 C313 1.390 . S
N311 C312 1.345 . S
N311 C314 1.336 . S
C312 N310 1.335 . S
C312 N311 1.345 . S
C312 H317 0.930 . S
C313 N310 1.390 . S
C313 C314 1.346 . S
C313 H318 0.930 . S
C314 N311 1.336 . S
C314 C313 1.346 . S
C314 H321 0.929 . S
C315 O305 1.282 . S
C315 O316 1.216 . S
O316 C315 1.216 . S
H317 C312 0.930 . S
H318 C313 0.930 . S
O319 Cu299 1.959 . S
O319 C306 1.251 . S
H320 C303 0.930 . S
H321 C314 0.929 . S
Cu322 N323 1.999 . S
Cu322 O328 1.974 . S
Cu322 N333 1.985 . S
Cu322 O342 1.959 . S
N323 Cu322 1.999 . S
N323 C325 1.263 . S
N323 C327 1.389 . S
N324 C325 1.358 . S
N324 C326 1.400 . S
C325 N323 1.263 . S
C325 N324 1.358 . S
C325 H331 0.930 . S
C326 N324 1.400 . S
C326 C327 1.351 . S
C326 H343 0.930 . S
C327 N323 1.389 . S
C327 C326 1.351 . S
C327 H332 0.930 . S
O328 Cu322 1.974 . S
O328 C338 1.282 . S
C329 O330 1.261 . S
C329 O342 1.251 . S
O330 C329 1.261 . S
H331 C325 0.930 . S
H332 C327 0.930 . S
N333 Cu322 1.985 . S
N333 C335 1.335 . S
N333 C336 1.390 . S
N334 C335 1.345 . S
N334 C337 1.336 . S
C335 N333 1.335 . S
C335 N334 1.345 . S
C335 H340 0.930 . S
C336 N333 1.390 . S
C336 C337 1.346 . S
C336 H341 0.930 . S
C337 N334 1.336 . S
C337 C336 1.346 . S
C337 H344 0.929 . S
C338 O328 1.282 . S
C338 O339 1.216 . S
O339 C338 1.216 . S
H340 C335 0.930 . S
H341 C336 0.930 . S
O342 Cu322 1.959 . S
O342 C329 1.251 . S
H343 C326 0.930 . S
H344 C337 0.929 . S
Cu345 N346 1.999 . S
Cu345 O351 1.974 . S
Cu345 N356 1.985 . S
Cu345 O365 1.959 . S
N346 Cu345 1.999 . S
N346 C348 1.263 . S
N346 C350 1.389 . S
N347 C348 1.358 . S
N347 C349 1.400 . S
C348 N346 1.263 . S
C348 N347 1.358 . S
C348 H354 0.930 . S
C349 N347 1.400 . S
C349 C350 1.351 . S
C349 H366 0.930 . S
C350 N346 1.389 . S
C350 C349 1.351 . S
C350 H355 0.930 . S
O351 Cu345 1.974 . S
O351 C361 1.282 . S
C352 O353 1.261 . S
C352 O365 1.251 . S
O353 C352 1.261 . S
H354 C348 0.930 . S
H355 C350 0.930 . S
N356 Cu345 1.985 . S
N356 C358 1.335 . S
N356 C359 1.390 . S
N357 C358 1.345 . S
N357 C360 1.336 . S
C358 N356 1.335 . S
C358 N357 1.345 . S
C358 H363 0.930 . S
C359 N356 1.390 . S
C359 C360 1.346 . S
C359 H364 0.930 . S
C360 N357 1.336 . S
C360 C359 1.346 . S
C360 H367 0.929 . S
C361 O351 1.282 . S
C361 O362 1.216 . S
O362 C361 1.216 . S
H363 C358 0.930 . S
H364 C359 0.930 . S
O365 Cu345 1.959 . S
O365 C352 1.251 . S
H366 C349 0.930 . S
H367 C360 0.929 . S
Cu368 N369 1.999 . S
Cu368 O374 1.974 . S
Cu368 N379 1.985 . S
Cu368 O388 1.959 . S
N369 Cu368 1.999 . S
N369 C371 1.263 . S
N369 C373 1.389 . S
N370 C371 1.358 . S
N370 C372 1.400 . S
C371 N369 1.263 . S
C371 N370 1.358 . S
C371 H377 0.930 . S
C372 N370 1.400 . S
C372 C373 1.351 . S
C372 H389 0.930 . S
C373 N369 1.389 . S
C373 C372 1.351 . S
C373 H378 0.930 . S
O374 Cu368 1.974 . S
O374 C384 1.282 . S
C375 O376 1.261 . S
C375 O388 1.251 . S
O376 C375 1.261 . S
H377 C371 0.930 . S
H378 C373 0.930 . S
N379 Cu368 1.985 . S
N379 C381 1.335 . S
N379 C382 1.390 . S
N380 C381 1.345 . S
N380 C383 1.336 . S
C381 N379 1.335 . S
C381 N380 1.345 . S
C381 H386 0.930 . S
C382 N379 1.390 . S
C382 C383 1.346 . S
C382 H387 0.930 . S
C383 N380 1.336 . S
C383 C382 1.346 . S
C383 H390 0.929 . S
C384 O374 1.282 . S
C384 O385 1.216 . S
O385 C384 1.216 . S
H386 C381 0.930 . S
H387 C382 0.930 . S
O388 Cu368 1.959 . S
O388 C375 1.251 . S
H389 C372 0.930 . S
H390 C383 0.929 . S
Cu391 N392 1.999 . S
Cu391 O397 1.974 . S
Cu391 N402 1.985 . S
Cu391 O411 1.959 . S
N392 Cu391 1.999 . S
N392 C394 1.263 . S
N392 C396 1.389 . S
N393 C394 1.358 . S
N393 C395 1.400 . S
C394 N392 1.263 . S
C394 N393 1.358 . S
C394 H400 0.930 . S
C395 N393 1.400 . S
C395 C396 1.351 . S
C395 H412 0.930 . S
C396 N392 1.389 . S
C396 C395 1.351 . S
C396 H401 0.930 . S
O397 Cu391 1.974 . S
O397 C407 1.282 . S
C398 O399 1.261 . S
C398 O411 1.251 . S
O399 C398 1.261 . S
H400 C394 0.930 . S
H401 C396 0.930 . S
N402 Cu391 1.985 . S
N402 C404 1.335 . S
N402 C405 1.390 . S
N403 C404 1.345 . S
N403 C406 1.336 . S
C404 N402 1.335 . S
C404 N403 1.345 . S
C404 H409 0.930 . S
C405 N402 1.390 . S
C405 C406 1.346 . S
C405 H410 0.930 . S
C406 N403 1.336 . S
C406 C405 1.346 . S
C406 H413 0.929 . S
C407 O397 1.282 . S
C407 O408 1.216 . S
O408 C407 1.216 . S
H409 C404 0.930 . S
H410 C405 0.930 . S
O411 Cu391 1.959 . S
O411 C398 1.251 . S
H412 C395 0.930 . S
H413 C406 0.929 . S
C414 O415 1.160 . S
C414 O421 1.185 . S
O415 C414 1.160 . S
O416 Zn417 1.899 . S
O416 C424 1.284 1_455 S
Zn417 O416 1.899 . S
Zn417 O418 2.032 . S
Zn417 O421 2.086 . S
Zn417 O426 1.977 . S
O418 Zn417 2.032 . S
O418 C422 1.278 . S
C419 O420 1.203 . S
C419 O426 1.267 . S
O420 C419 1.203 . S
O421 C414 1.185 . S
O421 Zn417 2.086 . S
C422 O418 1.278 . S
C422 O423 1.211 . S
O423 C422 1.211 . S
C424 O416 1.284 1_655 S
C424 O425 1.273 . S
O425 C424 1.273 . S
O426 Zn417 1.977 . S
O426 C419 1.267 . S
C427 O428 1.160 . S
C427 O434 1.185 . S
O428 C427 1.160 . S
O429 Zn430 1.899 . S
O429 C437 1.284 . S
Zn430 O429 1.899 . S
Zn430 O431 2.032 . S
Zn430 O434 2.086 . S
Zn430 O439 1.977 . S
O431 Zn430 2.032 . S
O431 C435 1.278 . S
C432 O433 1.203 . S
C432 O439 1.267 . S
O433 C432 1.203 . S
O434 C427 1.185 . S
O434 Zn430 2.086 . S
C435 O431 1.278 . S
C435 O436 1.211 . S
O436 C435 1.211 . S
C437 O429 1.284 . S
C437 O438 1.273 . S
O438 C437 1.273 . S
O439 Zn430 1.977 . S
O439 C432 1.267 . S
C440 O441 1.160 . S
C440 O447 1.185 . S
O441 C440 1.160 . S
O442 Zn443 1.899 . S
O442 C450 1.284 . S
Zn443 O442 1.899 . S
Zn443 O444 2.032 . S
Zn443 O447 2.086 . S
Zn443 O452 1.977 . S
O444 Zn443 2.032 . S
O444 C448 1.278 . S
C445 O446 1.203 . S
C445 O452 1.267 . S
O446 C445 1.203 . S
O447 C440 1.185 . S
O447 Zn443 2.086 . S
C448 O444 1.278 . S
C448 O449 1.211 . S
O449 C448 1.211 . S
C450 O442 1.284 . S
C450 O451 1.273 . S
O451 C450 1.273 . S
O452 Zn443 1.977 . S
O452 C445 1.267 . S
C453 O454 1.160 . S
C453 O460 1.185 . S
O454 C453 1.160 . S
O455 Zn456 1.899 . S
O455 C463 1.284 . S
Zn456 O455 1.899 . S
Zn456 O457 2.032 . S
Zn456 O460 2.086 . S
Zn456 O465 1.977 1_455 S
O457 Zn456 2.032 . S
O457 C461 1.278 . S
C458 O459 1.219 . S
C458 O465 1.267 . S
O459 C458 1.219 . S
O460 C453 1.185 . S
O460 Zn456 2.086 . S
C461 O457 1.278 . S
C461 O462 1.211 . S
O462 C461 1.211 . S
C463 O455 1.284 . S
C463 O464 1.273 . S
O464 C463 1.273 . S
O465 Zn456 1.977 1_655 S
O465 C458 1.267 . S
C466 O467 1.160 . S
C466 O473 1.185 . S
O467 C466 1.160 . S
O468 Zn469 1.899 . S
O468 C476 1.284 . S
Zn469 O468 1.899 . S
Zn469 O470 2.032 . S
Zn469 O473 2.086 . S
Zn469 O478 1.977 . S
O470 Zn469 2.032 . S
O470 C474 1.278 . S
C471 O472 1.203 . S
C471 O478 1.267 . S
O472 C471 1.203 . S
O473 C466 1.185 . S
O473 Zn469 2.086 . S
C474 O470 1.278 . S
C474 O475 1.211 . S
O475 C474 1.211 . S
C476 O468 1.284 . S
C476 O477 1.273 . S
O477 C476 1.273 . S
O478 Zn469 1.977 . S
O478 C471 1.267 . S
C479 O480 1.160 . S
C479 O486 1.185 . S
O480 C479 1.160 . S
O481 Zn482 1.899 . S
O481 C489 1.284 . S
Zn482 O481 1.899 . S
Zn482 O483 2.032 . S
Zn482 O486 2.086 . S
Zn482 O491 1.977 . S
O483 Zn482 2.032 . S
O483 C487 1.278 . S
C484 O485 1.203 . S
C484 O491 1.267 . S
O485 C484 1.203 . S
O486 C479 1.185 . S
O486 Zn482 2.086 . S
C487 O483 1.278 . S
C487 O488 1.211 . S
O488 C487 1.211 . S
C489 O481 1.284 . S
C489 O490 1.273 . S
O490 C489 1.273 . S
O491 Zn482 1.977 . S
O491 C484 1.267 . S
C492 O493 1.160 . S
C492 O499 1.185 . S
O493 C492 1.160 . S
O494 Zn495 1.899 . S
O494 C502 1.288 1_545 S
Zn495 O494 1.899 . S
Zn495 O496 2.032 1_545 S
Zn495 O499 2.086 1_545 S
Zn495 O504 1.977 . S
O496 Zn495 2.032 1_565 S
O496 C500 1.278 . S
C497 O498 1.203 . S
C497 O504 1.267 . S
O498 C497 1.203 . S
O499 C492 1.185 . S
O499 Zn495 2.086 1_565 S
C500 O496 1.278 . S
C500 O501 1.211 . S
O501 C500 1.211 . S
C502 O494 1.288 1_565 S
C502 O503 1.279 . S
O503 C502 1.279 . S
O504 Zn495 1.977 . S
O504 C497 1.267 . S
C505 O506 1.160 . S
C505 O512 1.185 . S
O506 C505 1.160 . S
O507 Zn508 1.899 . S
O507 C515 1.284 . S
Zn508 O507 1.899 . S
Zn508 O509 2.032 . S
Zn508 O512 2.086 . S
Zn508 O517 1.977 . S
O509 Zn508 2.032 . S
O509 C513 1.278 . S
C510 O511 1.203 . S
C510 O517 1.267 . S
O511 C510 1.203 . S
O512 C505 1.185 . S
O512 Zn508 2.086 . S
C513 O509 1.278 . S
C513 O514 1.211 . S
O514 C513 1.211 . S
C515 O507 1.284 . S
C515 O516 1.273 . S
O516 C515 1.273 . S
O517 Zn508 1.977 . S
O517 C510 1.267 . S
C518 O519 1.160 . S
C518 O525 1.185 . S
O519 C518 1.160 . S
O520 Zn521 1.899 . S
O520 C528 1.284 . S
Zn521 O520 1.899 . S
Zn521 O522 2.032 . S
Zn521 O525 2.086 . S
Zn521 O530 1.977 . S
O522 Zn521 2.032 . S
O522 C526 1.278 . S
C523 O524 1.203 . S
C523 O530 1.267 . S
O524 C523 1.203 . S
O525 C518 1.185 . S
O525 Zn521 2.086 . S
C526 O522 1.278 . S
C526 O527 1.211 . S
O527 C526 1.211 . S
C528 O520 1.284 . S
C528 O529 1.273 . S
O529 C528 1.273 . S
O530 Zn521 1.977 . S
O530 C523 1.267 . S
C531 O532 1.160 . S
C531 O538 1.185 . S
O532 C531 1.160 . S
O533 Zn534 1.899 . S
O533 C541 1.284 . S
Zn534 O533 1.899 . S
Zn534 O535 2.032 . S
Zn534 O538 2.086 . S
Zn534 O543 1.977 . S
O535 Zn534 2.032 . S
O535 C539 1.278 . S
C536 O537 1.203 . S
C536 O543 1.267 . S
O537 C536 1.203 . S
O538 C531 1.185 . S
O538 Zn534 2.086 . S
C539 O535 1.278 . S
C539 O540 1.211 . S
O540 C539 1.211 . S
C541 O533 1.284 . S
C541 O542 1.273 . S
O542 C541 1.273 . S
O543 Zn534 1.977 . S
O543 C536 1.267 . S
C544 O545 1.160 . S
C544 O551 1.185 . S
O545 C544 1.160 . S
O546 Zn547 1.899 . S
O546 C554 1.284 . S
Zn547 O546 1.899 . S
Zn547 O548 2.032 . S
Zn547 O551 2.086 . S
Zn547 O556 1.977 1_565 S
O548 Zn547 2.032 . S
O548 C552 1.278 . S
C549 O550 1.203 . S
C549 O556 1.267 . S
O550 C549 1.203 . S
O551 C544 1.185 . S
O551 Zn547 2.086 . S
C552 O548 1.278 . S
C552 O553 1.211 1_565 S
O553 C552 1.211 1_545 S
C554 O546 1.284 . S
C554 O555 1.273 . S
O555 C554 1.273 . S
O556 Zn547 1.977 1_545 S
O556 C549 1.267 . S
C557 O558 1.160 . S
C557 O564 1.185 . S
O558 C557 1.160 . S
O559 Zn560 1.899 . S
O559 C567 1.284 . S
Zn560 O559 1.899 . S
Zn560 O561 2.032 . S
Zn560 O564 2.086 . S
Zn560 O569 1.977 . S
O561 Zn560 2.032 . S
O561 C565 1.278 . S
C562 O563 1.203 . S
C562 O569 1.267 . S
O563 C562 1.203 . S
O564 C557 1.185 . S
O564 Zn560 2.086 . S
C565 O561 1.278 . S
C565 O566 1.211 . S
O566 C565 1.211 . S
C567 O559 1.284 . S
C567 O568 1.273 . S
O568 C567 1.273 . S
O569 Zn560 1.977 . S
O569 C562 1.267 . S
C570 O571 1.160 . S
C570 O577 1.185 . S
O571 C570 1.160 . S
O572 Zn573 1.899 . S
O572 C580 1.284 . S
Zn573 O572 1.899 . S
Zn573 O574 2.032 . S
Zn573 O577 2.086 . S
Zn573 O582 1.977 . S
O574 Zn573 2.032 . S
O574 C578 1.278 . S
C575 O576 1.203 . S
C575 O582 1.267 . S
O576 C575 1.203 . S
O577 C570 1.185 . S
O577 Zn573 2.086 . S
C578 O574 1.278 . S
C578 O579 1.211 . S
O579 C578 1.211 . S
C580 O572 1.284 . S
C580 O581 1.273 . S
O581 C580 1.273 . S
O582 Zn573 1.977 . S
O582 C575 1.267 . S
C583 O584 1.160 . S
C583 O590 1.185 . S
O584 C583 1.160 . S
O585 Zn586 1.899 . S
O585 C593 1.284 . S
Zn586 O585 1.899 . S
Zn586 O587 2.032 . S
Zn586 O590 2.086 . S
Zn586 O595 1.977 . S
O587 Zn586 2.032 . S
O587 C591 1.278 . S
C588 O589 1.203 . S
C588 O595 1.267 . S
O589 C588 1.203 . S
O590 C583 1.185 . S
O590 Zn586 2.086 . S
C591 O587 1.278 . S
C591 O592 1.211 . S
O592 C591 1.211 . S
C593 O585 1.284 . S
C593 O594 1.273 . S
O594 C593 1.273 . S
O595 Zn586 1.977 . S
O595 C588 1.267 . S
C596 O597 1.160 . S
C596 O603 1.185 . S
O597 C596 1.160 . S
O598 Zn599 1.899 . S
O598 C606 1.284 . S
Zn599 O598 1.899 . S
Zn599 O600 2.032 . S
Zn599 O603 2.086 . S
Zn599 O608 1.977 . S
O600 Zn599 2.032 . S
O600 C604 1.278 1_655 S
C601 O602 1.203 . S
C601 O608 1.267 . S
O602 C601 1.203 . S
O603 C596 1.185 . S
O603 Zn599 2.086 . S
C604 O600 1.278 1_455 S
C604 O605 1.208 1_455 S
O605 C604 1.208 1_655 S
C606 O598 1.284 . S
C606 O607 1.273 . S
O607 C606 1.273 . S
O608 Zn599 1.977 . S
O608 C601 1.267 . S
C609 O610 1.160 . S
C609 O616 1.185 . S
O610 C609 1.160 . S
O611 Zn612 1.899 . S
O611 C619 1.284 . S
Zn612 O611 1.899 . S
Zn612 O613 2.032 . S
Zn612 O616 2.086 . S
Zn612 O621 1.977 . S
O613 Zn612 2.032 . S
O613 C617 1.278 . S
C614 O615 1.203 . S
C614 O621 1.267 . S
O615 C614 1.203 . S
O616 C609 1.185 . S
O616 Zn612 2.086 . S
C617 O613 1.278 . S
C617 O618 1.211 . S
O618 C617 1.211 . S
C619 O611 1.284 . S
C619 O620 1.273 . S
O620 C619 1.273 . S
O621 Zn612 1.977 . S
O621 C614 1.267 . S
C622 O623 1.160 . S
C622 O629 1.185 . S
O623 C622 1.160 . S
O624 Zn625 1.899 . S
O624 C632 1.284 . S
Zn625 O624 1.899 . S
Zn625 O626 2.032 . S
Zn625 O629 2.086 . S
Zn625 O634 1.977 . S
O626 Zn625 2.032 . S
O626 C630 1.278 . S
C627 O628 1.203 . S
C627 O634 1.267 . S
O628 C627 1.203 . S
O629 C622 1.185 . S
O629 Zn625 2.086 . S
C630 O626 1.278 . S
C630 O631 1.211 1_655 S
O631 C630 1.211 1_455 S
C632 O624 1.284 . S
C632 O633 1.273 . S
O633 C632 1.273 . S
O634 Zn625 1.977 . S
O634 C627 1.267 . S
C635 O636 1.160 . S
C635 O642 1.185 . S
O636 C635 1.160 . S
O637 Zn638 1.899 . S
O637 C645 1.284 . S
Zn638 O637 1.899 . S
Zn638 O639 2.032 . S
Zn638 O642 2.086 . S
Zn638 O647 1.977 . S
O639 Zn638 2.032 . S
O639 C643 1.278 . S
C640 O641 1.203 . S
C640 O647 1.267 . S
O641 C640 1.203 . S
O642 C635 1.185 . S
O642 Zn638 2.086 . S
C643 O639 1.278 . S
C643 O644 1.211 . S
O644 C643 1.211 . S
C645 O637 1.284 . S
C645 O646 1.273 . S
O646 C645 1.273 . S
O647 Zn638 1.977 . S
O647 C640 1.267 . S
C648 C649 1.349 . S
C648 C650 1.327 . S
C648 H673 0.950 1_554 S
C649 C648 1.349 . S
C649 C665 1.349 . S
C650 C648 1.327 . S
C650 C669 1.429 . S
C650 H674 0.950 . S
C651 C668 1.574 . S
C651 C670 1.368 . S
C651 H675 0.949 . S
H652 C656 0.949 . S
C653 C654 1.349 . S
C653 C655 1.327 . S
C653 H676 0.950 . S
C654 C653 1.349 . S
C654 C666 1.349 . S
C655 C653 1.327 . S
C655 C671 1.429 . S
C655 H677 0.950 . S
C656 H652 0.949 . S
C656 C664 1.574 . S
C656 C672 1.368 . S
H657 C665 0.950 . S
H658 C663 0.950 . S
H659 C664 0.949 . S
H660 C666 0.950 . S
H661 C667 0.950 . S
H662 C668 0.949 . S
C663 H658 0.950 . S
C663 C665 1.327 . S
C663 C669 1.429 . S
C664 C656 1.574 . S
C664 H659 0.949 . S
C664 C670 1.368 . S
C665 C649 1.349 . S
C665 H657 0.950 . S
C665 C663 1.327 . S
C666 C654 1.349 . S
C666 H660 0.950 . S
C666 C667 1.327 . S
C667 H661 0.950 . S
C667 C666 1.327 . S
C667 C671 1.429 . S
C668 C651 1.574 . S
C668 H662 0.949 . S
C668 C672 1.368 . S
C669 C650 1.429 . S
C669 C663 1.429 . S
C669 C670 1.523 . S
C670 C651 1.368 . S
C670 C664 1.368 . S
C670 C669 1.523 . S
C671 C655 1.429 . S
C671 C667 1.429 . S
C671 C672 1.523 . S
C672 C656 1.368 . S
C672 C668 1.368 . S
C672 C671 1.523 . S
H673 C648 0.950 1_556 S
H674 C650 0.950 . S
H675 C651 0.949 . S
H676 C653 0.950 . S
H677 C655 0.950 . S
C678 C679 1.349 . S
C678 C680 1.327 . S
C678 H703 0.950 . S
C679 C678 1.349 . S
C679 C695 1.349 . S
C680 C678 1.327 . S
C680 C699 1.429 . S
C680 H704 0.950 . S
C681 C698 1.574 . S
C681 C700 1.368 . S
C681 H705 0.949 . S
H682 C686 0.949 . S
C683 C684 1.349 . S
C683 C685 1.327 . S
C683 H706 0.950 . S
C684 C683 1.349 . S
C684 C696 1.349 . S
C685 C683 1.327 . S
C685 C701 1.429 . S
C685 H707 0.950 . S
C686 H682 0.949 . S
C686 C694 1.574 . S
C686 C702 1.368 . S
H687 C695 0.950 . S
H688 C693 0.950 . S
H689 C694 0.949 . S
H690 C696 0.950 . S
H691 C697 0.950 . S
H692 C698 0.949 . S
C693 H688 0.950 . S
C693 C695 1.327 . S
C693 C699 1.429 . S
C694 C686 1.574 . S
C694 H689 0.949 . S
C694 C700 1.368 . S
C695 C679 1.349 . S
C695 H687 0.950 . S
C695 C693 1.327 . S
C696 C684 1.349 . S
C696 H690 0.950 . S
C696 C697 1.327 . S
C697 H691 0.950 . S
C697 C696 1.327 . S
C697 C701 1.429 . S
C698 C681 1.574 . S
C698 H692 0.949 . S
C698 C702 1.368 . S
C699 C680 1.429 . S
C699 C693 1.429 . S
C699 C700 1.523 . S
C700 C681 1.368 . S
C700 C694 1.368 . S
C700 C699 1.523 . S
C701 C685 1.429 . S
C701 C697 1.429 . S
C701 C702 1.523 . S
C702 C686 1.368 . S
C702 C698 1.368 . S
C702 C701 1.523 . S
H703 C678 0.950 . S
H704 C680 0.950 . S
H705 C681 0.949 . S
H706 C683 0.950 . S
H707 C685 0.950 . S
C708 C709 1.349 . S
C708 C710 1.327 . S
C708 H733 0.950 . S
C709 C708 1.349 . S
C709 C725 1.349 1_545 S
C710 C708 1.327 . S
C710 C729 1.429 . S
C710 H734 0.950 . S
C711 C728 1.574 . S
C711 C730 1.368 1_565 S
C711 H735 0.949 . S
H712 C716 0.949 . S
C713 C714 1.349 . S
C713 C715 1.327 . S
C713 H736 0.950 . S
C714 C713 1.349 . S
C714 C726 1.349 1_565 S
C715 C713 1.327 . S
C715 C731 1.429 . S
C715 H737 0.950 . S
C716 H712 0.949 . S
C716 C724 1.574 . S
C716 C732 1.365 . S
H717 C725 0.950 . S
H718 C723 0.950 . S
H719 C724 0.949 . S
H720 C726 0.950 . S
H721 C727 0.950 . S
H722 C728 0.949 . S
C723 H718 0.950 . S
C723 C725 1.327 . S
C723 C729 1.429 1_565 S
C724 C716 1.574 . S
C724 H719 0.949 . S
C724 C730 1.368 . S
C725 C709 1.349 1_565 S
C725 H717 0.950 . S
C725 C723 1.327 . S
C726 C714 1.349 1_545 S
C726 H720 0.950 . S
C726 C727 1.327 . S
C727 H721 0.950 . S
C727 C726 1.327 . S
C727 C731 1.429 1_545 S
C728 C711 1.574 . S
C728 H722 0.949 . S
C728 C732 1.373 1_565 S
C729 C710 1.429 . S
C729 C723 1.429 1_545 S
C729 C730 1.523 . S
C730 C711 1.368 1_545 S
C730 C724 1.368 . S
C730 C729 1.523 . S
C731 C715 1.429 . S
C731 C727 1.429 1_565 S
C731 C732 1.521 1_565 S
C732 C716 1.365 . S
C732 C728 1.373 1_545 S
C732 C731 1.521 1_545 S
H733 C708 0.950 . S
H734 C710 0.950 . S
H735 C711 0.949 . S
H736 C713 0.950 . S
H737 C715 0.950 . S
C738 C739 1.349 . S
C738 C740 1.327 . S
C738 H763 0.950 . S
C739 C738 1.349 . S
C739 C755 1.349 . S
C740 C738 1.327 . S
C740 C759 1.429 . S
C740 H764 0.950 . S
C741 C758 1.574 . S
C741 C760 1.368 . S
C741 H765 0.949 . S
H742 C746 0.949 . S
C743 C744 1.349 . S
C743 C745 1.327 . S
C743 H766 0.950 . S
C744 C743 1.349 . S
C744 C756 1.349 . S
C745 C743 1.327 . S
C745 C761 1.429 . S
C745 H767 0.950 . S
C746 H742 0.949 . S
C746 C754 1.574 . S
C746 C762 1.368 . S
H747 C755 0.950 . S
H748 C753 0.950 . S
H749 C754 0.949 . S
H750 C756 0.950 . S
H751 C757 0.950 . S
H752 C758 0.949 . S
C753 H748 0.950 . S
C753 C755 1.327 . S
C753 C759 1.429 . S
C754 C746 1.574 . S
C754 H749 0.949 . S
C754 C760 1.368 . S
C755 C739 1.349 . S
C755 H747 0.950 . S
C755 C753 1.327 . S
C756 C744 1.349 . S
C756 H750 0.950 . S
C756 C757 1.327 . S
C757 H751 0.950 . S
C757 C756 1.327 . S
C757 C761 1.429 . S
C758 C741 1.574 . S
C758 H752 0.949 . S
C758 C762 1.368 . S
C759 C740 1.429 . S
C759 C753 1.429 . S
C759 C760 1.523 . S
C760 C741 1.368 . S
C760 C754 1.368 . S
C760 C759 1.523 . S
C761 C745 1.429 . S
C761 C757 1.429 . S
C761 C762 1.523 . S
C762 C746 1.368 . S
C762 C758 1.368 . S
C762 C761 1.523 . S
H763 C738 0.950 . S
H764 C740 0.950 . S
H765 C741 0.949 . S
H766 C743 0.950 . S
H767 C745 0.950 . S
C768 C769 1.349 . S
C768 C770 1.327 . S
C768 H793 0.950 . S
C769 C768 1.349 . S
C769 C785 1.349 . S
C770 C768 1.327 . S
C770 C789 1.429 . S
C770 H794 0.950 . S
C771 C788 1.574 . S
C771 C790 1.368 1_655 S
C771 H795 0.949 . S
H772 C776 0.949 . S
C773 C774 1.349 . S
C773 C775 1.327 . S
C773 H796 0.950 . S
C774 C773 1.349 . S
C774 C786 1.349 . S
C775 C773 1.327 . S
C775 C791 1.429 . S
C775 H797 0.950 . S
C776 H772 0.949 . S
C776 C784 1.574 . S
C776 C792 1.368 1_455 S
H777 C785 0.950 . S
H778 C783 0.950 1_655 S
H779 C784 0.949 . S
H780 C786 0.950 . S
H781 C787 0.950 1_455 S
H782 C788 0.949 . S
C783 H778 0.950 1_455 S
C783 C785 1.327 . S
C783 C789 1.429 . S
C784 C776 1.574 . S
C784 H779 0.949 . S
C784 C790 1.368 . S
C785 C769 1.349 . S
C785 H777 0.950 . S
C785 C783 1.327 . S
C786 C774 1.349 . S
C786 H780 0.950 . S
C786 C787 1.327 . S
C787 H781 0.950 1_655 S
C787 C786 1.327 . S
C787 C791 1.429 . S
C788 C771 1.574 . S
C788 H782 0.949 . S
C788 C792 1.368 . S
C789 C770 1.429 . S
C789 C783 1.429 . S
C789 C790 1.523 . S
C790 C771 1.368 1_455 S
C790 C784 1.368 . S
C790 C789 1.523 . S
C791 C775 1.429 . S
C791 C787 1.429 . S
C791 C792 1.523 . S
C792 C776 1.368 1_655 S
C792 C788 1.368 . S
C792 C791 1.523 . S
H793 C768 0.950 . S
H794 C770 0.950 . S
H795 C771 0.949 . S
H796 C773 0.950 . S
H797 C775 0.950 . S
C798 C799 1.349 . S
C798 C800 1.327 . S
C798 H823 0.950 . S
C799 C798 1.349 . S
C799 C815 1.349 . S
C800 C798 1.327 . S
C800 C819 1.429 . S
C800 H824 0.950 . S
C801 C818 1.574 . S
C801 C820 1.368 . S
C801 H825 0.949 . S
H802 C806 0.949 . S
C803 C804 1.349 . S
C803 C805 1.327 . S
C803 H826 0.950 . S
C804 C803 1.349 . S
C804 C816 1.349 . S
C805 C803 1.327 . S
C805 C821 1.429 . S
C805 H827 0.950 . S
C806 H802 0.949 . S
C806 C814 1.574 . S
C806 C822 1.368 . S
H807 C815 0.950 . S
H808 C813 0.950 . S
H809 C814 0.949 . S
H810 C816 0.950 . S
H811 C817 0.950 . S
H812 C818 0.949 . S
C813 H808 0.950 . S
C813 C815 1.327 . S
C813 C819 1.429 . S
C814 C806 1.574 . S
C814 H809 0.949 . S
C814 C820 1.368 . S
C815 C799 1.349 . S
C815 H807 0.950 . S
C815 C813 1.327 . S
C816 C804 1.349 . S
C816 H810 0.950 . S
C816 C817 1.327 . S
C817 H811 0.950 . S
C817 C816 1.327 . S
C817 C821 1.429 . S
C818 C801 1.574 . S
C818 H812 0.949 . S
C818 C822 1.368 . S
C819 C800 1.429 . S
C819 C813 1.429 . S
C819 C820 1.523 . S
C820 C801 1.368 . S
C820 C814 1.368 . S
C820 C819 1.523 . S
C821 C805 1.429 . S
C821 C817 1.429 . S
C821 C822 1.523 . S
C822 C806 1.368 . S
C822 C818 1.368 . S
C822 C821 1.523 . S
H823 C798 0.950 . S
H824 C800 0.950 . S
H825 C801 0.949 . S
H826 C803 0.950 . S
H827 C805 0.950 . S
C828 C829 1.349 . S
C828 C830 1.327 . S
C828 H853 0.950 . S
C829 C828 1.349 . S
C829 C845 1.349 . S
C830 C828 1.327 . S
C830 C849 1.429 . S
C830 H854 0.950 . S
C831 C848 1.574 . S
C831 C850 1.368 . S
C831 H855 0.949 . S
H832 C836 0.949 . S
C833 C834 1.349 1_455 S
C833 C835 1.327 . S
C833 H856 0.950 . S
C834 C833 1.349 1_655 S
C834 C846 1.349 . S
C835 C833 1.327 . S
C835 C851 1.429 . S
C835 H857 0.950 . S
C836 H832 0.949 . S
C836 C844 1.574 1_655 S
C836 C852 1.368 1_655 S
H837 C845 0.950 . S
H838 C843 0.950 . S
H839 C844 0.949 1_655 S
H840 C846 0.950 . S
H841 C847 0.950 . S
H842 C848 0.949 . S
C843 H838 0.950 . S
C843 C845 1.327 . S
C843 C849 1.429 . S
C844 C836 1.574 1_455 S
C844 H839 0.949 1_455 S
C844 C850 1.368 . S
C845 C829 1.349 . S
C845 H837 0.950 . S
C845 C843 1.327 . S
C846 C834 1.349 . S
C846 H840 0.950 . S
C846 C847 1.327 . S
C847 H841 0.950 . S
C847 C846 1.327 . S
C847 C851 1.429 1_655 S
C848 C831 1.574 . S
C848 H842 0.949 . S
C848 C852 1.368 . S
C849 C830 1.429 . S
C849 C843 1.429 . S
C849 C850 1.523 . S
C850 C831 1.368 . S
C850 C844 1.368 . S
C850 C849 1.523 . S
C851 C835 1.429 . S
C851 C847 1.429 1_455 S
C851 C852 1.523 . S
C852 C836 1.368 1_455 S
C852 C848 1.368 . S
C852 C851 1.523 . S
H853 C828 0.950 . S
H854 C830 0.950 . S
H855 C831 0.949 . S
H856 C833 0.950 . S
H857 C835 0.950 . S
C858 C859 1.349 . S
C858 C860 1.327 . S
C858 H883 0.950 . S
C859 C858 1.349 . S
C859 C875 1.349 1_556 S
C860 C858 1.327 . S
C860 C879 1.429 . S
C860 H884 0.950 . S
C861 C878 1.574 . S
C861 C880 1.368 . S
C861 H885 0.949 1_556 S
H862 C866 0.949 . S
C863 C864 1.349 . S
C863 C865 1.327 . S
C863 H886 0.950 . S
C864 C863 1.349 . S
C864 C876 1.349 . S
C865 C863 1.327 . S
C865 C881 1.429 . S
C865 H887 0.950 . S
C866 H862 0.949 . S
C866 C874 1.574 . S
C866 C882 1.368 . S
H867 C875 0.950 . S
H868 C873 0.950 1_554 S
H869 C874 0.949 . S
H870 C876 0.950 . S
H871 C877 0.950 . S
H872 C878 0.949 . S
C873 H868 0.950 1_556 S
C873 C875 1.327 1_556 S
C873 C879 1.429 . S
C874 C866 1.574 . S
C874 H869 0.949 . S
C874 C880 1.368 . S
C875 C859 1.349 1_554 S
C875 H867 0.950 . S
C875 C873 1.327 1_554 S
C876 C864 1.349 . S
C876 H870 0.950 . S
C876 C877 1.327 . S
C877 H871 0.950 . S
C877 C876 1.327 . S
C877 C881 1.429 . S
C878 C861 1.574 . S
C878 H872 0.949 . S
C878 C882 1.368 . S
C879 C860 1.429 . S
C879 C873 1.429 . S
C879 C880 1.523 . S
C880 C861 1.368 . S
C880 C874 1.368 . S
C880 C879 1.523 . S
C881 C865 1.429 . S
C881 C877 1.429 . S
C881 C882 1.523 . S
C882 C866 1.368 . S
C882 C878 1.368 . S
C882 C881 1.523 . S
H883 C858 0.950 . S
H884 C860 0.950 . S
H885 C861 0.949 1_554 S
H886 C863 0.950 . S
H887 C865 0.950 . S
C888 C889 1.332 1_554 S
C888 C890 1.317 1_554 S
C888 H913 0.978 . S
C889 C888 1.332 1_556 S
C889 C905 1.349 . S
C890 C888 1.317 1_556 S
C890 C909 1.429 . S
C890 H914 0.950 1_556 S
C891 C908 1.574 . S
C891 C910 1.368 . S
C891 H915 0.949 . S
H892 C896 0.949 . S
C893 C894 1.349 . S
C893 C895 1.327 . S
C893 H916 0.950 . S
C894 C893 1.349 . S
C894 C906 1.349 . S
C895 C893 1.327 . S
C895 C911 1.429 . S
C895 H917 0.950 . S
C896 H892 0.949 . S
C896 C904 1.574 . S
C896 C912 1.368 . S
H897 C905 0.950 . S
H898 C903 0.950 . S
H899 C904 0.949 . S
H900 C906 0.950 . S
H901 C907 0.950 . S
H902 C908 0.949 . S
C903 H898 0.950 . S
C903 C905 1.327 . S
C903 C909 1.429 . S
C904 C896 1.574 . S
C904 H899 0.949 . S
C904 C910 1.368 . S
C905 C889 1.349 . S
C905 H897 0.950 . S
C905 C903 1.327 . S
C906 C894 1.349 . S
C906 H900 0.950 . S
C906 C907 1.327 . S
C907 H901 0.950 . S
C907 C906 1.327 . S
C907 C911 1.429 . S
C908 C891 1.574 . S
C908 H902 0.949 . S
C908 C912 1.368 . S
C909 C890 1.429 . S
C909 C903 1.429 . S
C909 C910 1.523 . S
C910 C891 1.368 . S
C910 C904 1.368 . S
C910 C909 1.523 . S
C911 C895 1.429 . S
C911 C907 1.429 . S
C911 C912 1.523 . S
C912 C896 1.368 . S
C912 C908 1.368 . S
C912 C911 1.523 . S
H913 C888 0.978 . S
H914 C890 0.950 1_554 S
H915 C891 0.949 . S
H916 C893 0.950 . S
H917 C895 0.950 . S
C918 C919 1.349 . S
C918 C920 1.327 . S
C918 H943 0.950 . S
C919 C918 1.349 . S
C919 C935 1.349 . S
C920 C918 1.327 . S
C920 C939 1.429 . S
C920 H944 0.950 . S
C921 C938 1.574 . S
C921 C940 1.368 . S
C921 H945 0.949 . S
H922 C926 0.949 1_565 S
C923 C924 1.349 . S
C923 C925 1.327 . S
C923 H946 0.950 . S
C924 C923 1.349 . S
C924 C936 1.349 1_545 S
C925 C923 1.327 . S
C925 C941 1.429 . S
C925 H947 0.950 . S
C926 H922 0.949 1_545 S
C926 C934 1.574 . S
C926 C942 1.368 . S
H927 C935 0.950 . S
H928 C933 0.950 . S
H929 C934 0.949 . S
H930 C936 0.950 . S
H931 C937 0.950 . S
H932 C938 0.949 . S
C933 H928 0.950 . S
C933 C935 1.327 . S
C933 C939 1.429 . S
C934 C926 1.574 . S
C934 H929 0.949 . S
C934 C940 1.368 . S
C935 C919 1.349 . S
C935 H927 0.950 . S
C935 C933 1.327 . S
C936 C924 1.349 1_565 S
C936 H930 0.950 . S
C936 C937 1.327 . S
C937 H931 0.950 . S
C937 C936 1.327 . S
C937 C941 1.429 1_565 S
C938 C921 1.574 . S
C938 H932 0.949 . S
C938 C942 1.368 . S
C939 C920 1.429 . S
C939 C933 1.429 . S
C939 C940 1.523 . S
C940 C921 1.368 . S
C940 C934 1.368 . S
C940 C939 1.523 . S
C941 C925 1.429 . S
C941 C937 1.429 1_545 S
C941 C942 1.523 . S
C942 C926 1.368 . S
C942 C938 1.368 . S
C942 C941 1.523 . S
H943 C918 0.950 . S
H944 C920 0.950 . S
H945 C921 0.949 . S
H946 C923 0.950 . S
H947 C925 0.950 . S
C948 C949 1.349 . S
C948 C950 1.327 . S
C948 H973 0.950 . S
C949 C948 1.349 . S
C949 C965 1.349 . S
C950 C948 1.327 . S
C950 C969 1.429 . S
C950 H974 0.950 . S
C951 C968 1.574 . S
C951 C970 1.368 . S
C951 H975 0.949 . S
H952 C956 0.949 . S
C953 C954 1.349 . S
C953 C955 1.327 . S
C953 H976 0.950 . S
C954 C953 1.349 . S
C954 C966 1.349 . S
C955 C953 1.327 . S
C955 C971 1.429 . S
C955 H977 0.950 . S
C956 H952 0.949 . S
C956 C964 1.574 . S
C956 C972 1.368 . S
H957 C965 0.950 . S
H958 C963 0.950 . S
H959 C964 0.949 . S
H960 C966 0.950 . S
H961 C967 0.950 . S
H962 C968 0.949 . S
C963 H958 0.950 . S
C963 C965 1.327 . S
C963 C969 1.429 . S
C964 C956 1.574 . S
C964 H959 0.949 . S
C964 C970 1.368 . S
C965 C949 1.349 . S
C965 H957 0.950 . S
C965 C963 1.327 . S
C966 C954 1.349 . S
C966 H960 0.950 . S
C966 C967 1.327 . S
C967 H961 0.950 . S
C967 C966 1.327 . S
C967 C971 1.429 . S
C968 C951 1.574 . S
C968 H962 0.949 . S
C968 C972 1.368 . S
C969 C950 1.429 . S
C969 C963 1.429 . S
C969 C970 1.523 . S
C970 C951 1.368 . S
C970 C964 1.368 . S
C970 C969 1.523 . S
C971 C955 1.429 . S
C971 C967 1.429 . S
C971 C972 1.523 . S
C972 C956 1.368 . S
C972 C968 1.368 . S
C972 C971 1.523 . S
H973 C948 0.950 . S
H974 C950 0.950 . S
H975 C951 0.949 . S
H976 C953 0.950 . S
H977 C955 0.950 . S
C978 C979 1.349 . S
C978 C980 1.327 . S
C978 H1003 0.950 . S
C979 C978 1.349 . S
C979 C995 1.349 . S
C980 C978 1.327 . S
C980 C999 1.429 . S
C980 H1004 0.950 . S
C981 C998 1.574 . S
C981 C1000 1.368 . S
C981 H1005 0.949 . S
H982 C986 0.949 . S
C983 C984 1.349 . S
C983 C985 1.327 . S
C983 H1006 0.950 . S
C984 C983 1.349 . S
C984 C996 1.349 . S
C985 C983 1.327 . S
C985 C1001 1.429 . S
C985 H1007 0.950 . S
C986 H982 0.949 . S
C986 C994 1.574 . S
C986 C1002 1.368 . S
H987 C995 0.950 . S
H988 C993 0.950 . S
H989 C994 0.949 . S
H990 C996 0.950 . S
H991 C997 0.950 . S
H992 C998 0.949 . S
C993 H988 0.950 . S
C993 C995 1.327 . S
C993 C999 1.429 . S
C994 C986 1.574 . S
C994 H989 0.949 . S
C994 C1000 1.368 . S
C995 C979 1.349 . S
C995 H987 0.950 . S
C995 C993 1.327 . S
C996 C984 1.349 . S
C996 H990 0.950 . S
C996 C997 1.327 . S
C997 H991 0.950 . S
C997 C996 1.327 . S
C997 C1001 1.429 . S
C998 C981 1.574 . S
C998 H992 0.949 . S
C998 C1002 1.368 . S
C999 C980 1.429 . S
C999 C993 1.429 . S
C999 C1000 1.523 . S
C1000 C981 1.368 . S
C1000 C994 1.368 . S
C1000 C999 1.523 . S
C1001 C985 1.429 . S
C1001 C997 1.429 . S
C1001 C1002 1.523 . S
C1002 C986 1.368 . S
C1002 C998 1.368 . S
C1002 C1001 1.523 . S
H1003 C978 0.950 . S
H1004 C980 0.950 . S
H1005 C981 0.949 . S
H1006 C983 0.950 . S
H1007 C985 0.950 . S
C1008 C1009 1.349 . S
C1008 C1010 1.327 . S
C1008 H1033 0.950 . S
C1009 C1008 1.349 . S
C1009 C1025 1.349 . S
C1010 C1008 1.327 . S
C1010 C1029 1.429 . S
C1010 H1034 0.950 . S
C1011 C1028 1.574 . S
C1011 C1030 1.368 . S
C1011 H1035 0.949 . S
H1012 C1016 0.949 . S
C1013 C1014 1.349 . S
C1013 C1015 1.327 . S
C1013 H1036 0.950 . S
C1014 C1013 1.349 . S
C1014 C1026 1.349 . S
C1015 C1013 1.327 . S
C1015 C1031 1.429 . S
C1015 H1037 0.950 . S
C1016 H1012 0.949 . S
C1016 C1024 1.574 . S
C1016 C1032 1.368 . S
H1017 C1025 0.950 . S
H1018 C1023 0.950 . S
H1019 C1024 0.949 . S
H1020 C1026 0.950 . S
H1021 C1027 0.950 . S
H1022 C1028 0.949 . S
C1023 H1018 0.950 . S
C1023 C1025 1.327 . S
C1023 C1029 1.429 . S
C1024 C1016 1.574 . S
C1024 H1019 0.949 . S
C1024 C1030 1.368 . S
C1025 C1009 1.349 . S
C1025 H1017 0.950 . S
C1025 C1023 1.327 . S
C1026 C1014 1.349 . S
C1026 H1020 0.950 . S
C1026 C1027 1.327 . S
C1027 H1021 0.950 . S
C1027 C1026 1.327 . S
C1027 C1031 1.429 . S
C1028 C1011 1.574 . S
C1028 H1022 0.949 . S
C1028 C1032 1.368 . S
C1029 C1010 1.429 . S
C1029 C1023 1.429 . S
C1029 C1030 1.523 . S
C1030 C1011 1.368 . S
C1030 C1024 1.368 . S
C1030 C1029 1.523 . S
C1031 C1015 1.429 . S
C1031 C1027 1.429 . S
C1031 C1032 1.523 . S
C1032 C1016 1.368 . S
C1032 C1028 1.368 . S
C1032 C1031 1.523 . S
H1033 C1008 0.950 . S
H1034 C1010 0.950 . S
H1035 C1011 0.949 . S
H1036 C1013 0.950 . S
H1037 C1015 0.950 . S
C1038 C1039 1.349 . S
C1038 C1040 1.327 . S
C1038 H1063 0.950 . S
C1039 C1038 1.349 . S
C1039 C1055 1.349 . S
C1040 C1038 1.327 . S
C1040 C1059 1.429 . S
C1040 H1064 0.950 . S
C1041 C1058 1.574 . S
C1041 C1060 1.368 1_545 S
C1041 H1065 0.949 . S
H1042 C1046 0.949 . S
C1043 C1044 1.349 . S
C1043 C1045 1.327 . S
C1043 H1066 0.950 . S
C1044 C1043 1.349 . S
C1044 C1056 1.349 . S
C1045 C1043 1.327 . S
C1045 C1061 1.429 . S
C1045 H1067 0.950 . S
C1046 H1042 0.949 . S
C1046 C1054 1.574 1_545 S
C1046 C1062 1.368 . S
H1047 C1055 0.950 . S
H1048 C1053 0.950 . S
H1049 C1054 0.949 . S
H1050 C1056 0.950 . S
H1051 C1057 0.950 . S
H1052 C1058 0.949 . S
C1053 H1048 0.950 . S
C1053 C1055 1.327 . S
C1053 C1059 1.429 . S
C1054 C1046 1.574 1_565 S
C1054 H1049 0.949 . S
C1054 C1060 1.368 . S
C1055 C1039 1.349 . S
C1055 H1047 0.950 . S
C1055 C1053 1.327 . S
C1056 C1044 1.349 . S
C1056 H1050 0.950 . S
C1056 C1057 1.327 . S
C1057 H1051 0.950 . S
C1057 C1056 1.327 . S
C1057 C1061 1.429 . S
C1058 C1041 1.574 . S
C1058 H1052 0.949 . S
C1058 C1062 1.368 . S
C1059 C1040 1.429 . S
C1059 C1053 1.429 . S
C1059 C1060 1.523 . S
C1060 C1041 1.368 1_565 S
C1060 C1054 1.368 . S
C1060 C1059 1.523 . S
C1061 C1045 1.429 . S
C1061 C1057 1.429 . S
C1061 C1062 1.523 . S
C1062 C1046 1.368 . S
C1062 C1058 1.368 . S
C1062 C1061 1.523 . S
H1063 C1038 0.950 . S
H1064 C1040 0.950 . S
H1065 C1041 0.949 . S
H1066 C1043 0.950 . S
H1067 C1045 0.950 . S
C1068 C1069 1.349 . S
C1068 C1070 1.327 . S
C1068 H1093 0.950 . S
C1069 C1068 1.349 . S
C1069 C1085 1.349 . S
C1070 C1068 1.327 . S
C1070 C1089 1.429 . S
C1070 H1094 0.950 . S
C1071 C1088 1.574 . S
C1071 C1090 1.368 . S
C1071 H1095 0.949 . S
H1072 C1076 0.949 . S
C1073 C1074 1.349 . S
C1073 C1075 1.327 . S
C1073 H1096 0.950 . S
C1074 C1073 1.349 . S
C1074 C1086 1.349 . S
C1075 C1073 1.327 . S
C1075 C1091 1.429 . S
C1075 H1097 0.950 . S
C1076 H1072 0.949 . S
C1076 C1084 1.574 . S
C1076 C1092 1.368 . S
H1077 C1085 0.950 . S
H1078 C1083 0.950 . S
H1079 C1084 0.949 . S
H1080 C1086 0.950 . S
H1081 C1087 0.950 . S
H1082 C1088 0.949 . S
C1083 H1078 0.950 . S
C1083 C1085 1.327 . S
C1083 C1089 1.429 . S
C1084 C1076 1.574 . S
C1084 H1079 0.949 . S
C1084 C1090 1.368 . S
C1085 C1069 1.349 . S
C1085 H1077 0.950 . S
C1085 C1083 1.327 . S
C1086 C1074 1.349 . S
C1086 H1080 0.950 . S
C1086 C1087 1.327 . S
C1087 H1081 0.950 . S
C1087 C1086 1.327 . S
C1087 C1091 1.429 . S
C1088 C1071 1.574 . S
C1088 H1082 0.949 . S
C1088 C1092 1.368 . S
C1089 C1070 1.429 . S
C1089 C1083 1.429 . S
C1089 C1090 1.523 . S
C1090 C1071 1.368 . S
C1090 C1084 1.368 . S
C1090 C1089 1.523 . S
C1091 C1075 1.429 . S
C1091 C1087 1.429 . S
C1091 C1092 1.523 . S
C1092 C1076 1.368 . S
C1092 C1088 1.368 . S
C1092 C1091 1.523 . S
H1093 C1068 0.950 . S
H1094 C1070 0.950 . S
H1095 C1071 0.949 . S
H1096 C1073 0.950 . S
H1097 C1075 0.950 . S
C1098 C1099 1.349 . S
C1098 C1100 1.327 . S
C1098 H1123 0.950 . S
C1099 C1098 1.349 . S
C1099 C1115 1.349 . S
C1100 C1098 1.327 . S
C1100 C1119 1.429 . S
C1100 H1124 0.950 . S
C1101 C1118 1.574 . S
C1101 C1120 1.368 . S
C1101 H1125 0.949 . S
H1102 C1106 0.949 . S
C1103 C1104 1.349 . S
C1103 C1105 1.327 . S
C1103 H1126 0.950 . S
C1104 C1103 1.349 . S
C1104 C1116 1.349 . S
C1105 C1103 1.327 . S
C1105 C1121 1.429 . S
C1105 H1127 0.950 . S
C1106 H1102 0.949 . S
C1106 C1114 1.574 . S
C1106 C1122 1.368 . S
H1107 C1115 0.950 . S
H1108 C1113 0.950 . S
H1109 C1114 0.949 . S
H1110 C1116 0.950 . S
H1111 C1117 0.950 . S
H1112 C1118 0.949 . S
C1113 H1108 0.950 . S
C1113 C1115 1.327 . S
C1113 C1119 1.429 . S
C1114 C1106 1.574 . S
C1114 H1109 0.949 . S
C1114 C1120 1.368 . S
C1115 C1099 1.349 . S
C1115 H1107 0.950 . S
C1115 C1113 1.327 . S
C1116 C1104 1.349 . S
C1116 H1110 0.950 . S
C1116 C1117 1.327 . S
C1117 H1111 0.950 . S
C1117 C1116 1.327 . S
C1117 C1121 1.429 . S
C1118 C1101 1.574 . S
C1118 H1112 0.949 . S
C1118 C1122 1.368 . S
C1119 C1100 1.429 . S
C1119 C1113 1.429 . S
C1119 C1120 1.523 . S
C1120 C1101 1.368 . S
C1120 C1114 1.368 . S
C1120 C1119 1.523 . S
C1121 C1105 1.429 . S
C1121 C1117 1.429 . S
C1121 C1122 1.523 . S
C1122 C1106 1.368 . S
C1122 C1118 1.368 . S
C1122 C1121 1.523 . S
H1123 C1098 0.950 . S
H1124 C1100 0.950 . S
H1125 C1101 0.949 . S
H1126 C1103 0.950 . S
H1127 C1105 0.950 . S
C1128 C1129 1.349 . S
C1128 C1130 1.327 . S
C1128 H1153 0.950 . S
C1129 C1128 1.349 . S
C1129 C1145 1.349 . S
C1130 C1128 1.327 . S
C1130 C1149 1.429 . S
C1130 H1154 0.950 . S
C1131 C1148 1.574 . S
C1131 C1150 1.368 . S
C1131 H1155 0.949 . S
H1132 C1136 0.949 . S
C1133 C1134 1.349 . S
C1133 C1135 1.327 . S
C1133 H1156 0.950 . S
C1134 C1133 1.349 . S
C1134 C1146 1.349 . S
C1135 C1133 1.327 . S
C1135 C1151 1.429 . S
C1135 H1157 0.950 . S
C1136 H1132 0.949 . S
C1136 C1144 1.574 . S
C1136 C1152 1.368 . S
H1137 C1145 0.950 . S
H1138 C1143 0.950 . S
H1139 C1144 0.949 . S
H1140 C1146 0.950 . S
H1141 C1147 0.950 . S
H1142 C1148 0.949 . S
C1143 H1138 0.950 . S
C1143 C1145 1.327 . S
C1143 C1149 1.429 . S
C1144 C1136 1.574 . S
C1144 H1139 0.949 . S
C1144 C1150 1.368 . S
C1145 C1129 1.349 . S
C1145 H1137 0.950 . S
C1145 C1143 1.327 . S
C1146 C1134 1.349 . S
C1146 H1140 0.950 . S
C1146 C1147 1.327 . S
C1147 H1141 0.950 . S
C1147 C1146 1.327 . S
C1147 C1151 1.429 . S
C1148 C1131 1.574 . S
C1148 H1142 0.949 . S
C1148 C1152 1.368 . S
C1149 C1130 1.429 . S
C1149 C1143 1.429 . S
C1149 C1150 1.523 . S
C1150 C1131 1.368 . S
C1150 C1144 1.368 . S
C1150 C1149 1.523 . S
C1151 C1135 1.429 . S
C1151 C1147 1.429 . S
C1151 C1152 1.523 . S
C1152 C1136 1.368 . S
C1152 C1148 1.368 . S
C1152 C1151 1.523 . S
H1153 C1128 0.950 . S
H1154 C1130 0.950 . S
H1155 C1131 0.949 . S
H1156 C1133 0.950 . S
H1157 C1135 0.950 . S
C1158 C1159 1.349 . S
C1158 C1160 1.327 . S
C1158 H1183 0.950 . S
C1159 C1158 1.349 . S
C1159 C1175 1.349 . S
C1160 C1158 1.327 . S
C1160 C1179 1.429 . S
C1160 H1184 0.950 . S
C1161 C1178 1.574 . S
C1161 C1180 1.368 . S
C1161 H1185 0.949 . S
H1162 C1166 0.949 . S
C1163 C1164 1.349 . S
C1163 C1165 1.327 . S
C1163 H1186 0.950 . S
C1164 C1163 1.349 . S
C1164 C1176 1.349 . S
C1165 C1163 1.327 . S
C1165 C1181 1.429 . S
C1165 H1187 0.950 . S
C1166 H1162 0.949 . S
C1166 C1174 1.574 . S
C1166 C1182 1.368 . S
H1167 C1175 0.950 . S
H1168 C1173 0.950 . S
H1169 C1174 0.949 . S
H1170 C1176 0.950 . S
H1171 C1177 0.950 . S
H1172 C1178 0.949 . S
C1173 H1168 0.950 . S
C1173 C1175 1.327 . S
C1173 C1179 1.429 . S
C1174 C1166 1.574 . S
C1174 H1169 0.949 . S
C1174 C1180 1.368 . S
C1175 C1159 1.349 . S
C1175 H1167 0.950 . S
C1175 C1173 1.327 . S
C1176 C1164 1.349 . S
C1176 H1170 0.950 . S
C1176 C1177 1.327 . S
C1177 H1171 0.950 . S
C1177 C1176 1.327 . S
C1177 C1181 1.429 . S
C1178 C1161 1.574 . S
C1178 H1172 0.949 . S
C1178 C1182 1.368 . S
C1179 C1160 1.429 . S
C1179 C1173 1.429 . S
C1179 C1180 1.523 . S
C1180 C1161 1.368 . S
C1180 C1174 1.368 . S
C1180 C1179 1.523 . S
C1181 C1165 1.429 . S
C1181 C1177 1.429 . S
C1181 C1182 1.523 . S
C1182 C1166 1.368 . S
C1182 C1178 1.368 . S
C1182 C1181 1.523 . S
H1183 C1158 0.950 . S
H1184 C1160 0.950 . S
H1185 C1161 0.949 . S
H1186 C1163 0.950 . S
H1187 C1165 0.950 . S
C1188 C1189 1.349 . S
C1188 C1190 1.327 . S
C1188 H1213 0.950 . S
C1189 C1188 1.349 . S
C1189 C1205 1.349 . S
C1190 C1188 1.327 . S
C1190 C1209 1.429 . S
C1190 H1214 0.950 . S
C1191 C1208 1.574 . S
C1191 C1210 1.368 . S
C1191 H1215 0.949 . S
H1192 C1196 0.949 1_545 S
C1193 C1194 1.349 . S
C1193 C1195 1.327 1_545 S
C1193 H1216 0.950 . S
C1194 C1193 1.349 . S
C1194 C1206 1.349 . S
C1195 C1193 1.327 1_565 S
C1195 C1211 1.429 . S
C1195 H1217 0.950 . S
C1196 H1192 0.949 1_565 S
C1196 C1204 1.574 . S
C1196 C1212 1.368 . S
H1197 C1205 0.950 . S
H1198 C1203 0.950 . S
H1199 C1204 0.949 . S
H1200 C1206 0.950 . S
H1201 C1207 0.950 . S
H1202 C1208 0.949 . S
C1203 H1198 0.950 . S
C1203 C1205 1.327 . S
C1203 C1209 1.429 . S
C1204 C1196 1.574 . S
C1204 H1199 0.949 . S
C1204 C1210 1.368 . S
C1205 C1189 1.349 . S
C1205 H1197 0.950 . S
C1205 C1203 1.327 . S
C1206 C1194 1.349 . S
C1206 H1200 0.950 . S
C1206 C1207 1.327 . S
C1207 H1201 0.950 . S
C1207 C1206 1.327 . S
C1207 C1211 1.429 1_545 S
C1208 C1191 1.574 . S
C1208 H1202 0.949 . S
C1208 C1212 1.368 . S
C1209 C1190 1.429 . S
C1209 C1203 1.429 . S
C1209 C1210 1.523 . S
C1210 C1191 1.368 . S
C1210 C1204 1.368 . S
C1210 C1209 1.523 . S
C1211 C1195 1.429 . S
C1211 C1207 1.429 1_565 S
C1211 C1212 1.523 . S
C1212 C1196 1.368 . S
C1212 C1208 1.368 . S
C1212 C1211 1.523 . S
H1213 C1188 0.950 . S
H1214 C1190 0.950 . S
H1215 C1191 0.949 . S
H1216 C1193 0.950 . S
H1217 C1195 0.950 . S
C1218 C1219 1.349 . S
C1218 C1220 1.327 . S
C1218 H1243 0.950 . S
C1219 C1218 1.349 . S
C1219 C1235 1.349 . S
C1220 C1218 1.327 . S
C1220 C1239 1.429 . S
C1220 H1244 0.950 . S
C1221 C1238 1.574 . S
C1221 C1240 1.368 . S
C1221 H1245 0.949 . S
H1222 C1226 0.949 . S
C1223 C1224 1.349 . S
C1223 C1225 1.327 . S
C1223 H1246 0.950 . S
C1224 C1223 1.349 . S
C1224 C1236 1.349 . S
C1225 C1223 1.327 . S
C1225 C1241 1.429 . S
C1225 H1247 0.950 . S
C1226 H1222 0.949 . S
C1226 C1234 1.574 . S
C1226 C1242 1.368 . S
H1227 C1235 0.950 . S
H1228 C1233 0.950 . S
H1229 C1234 0.949 . S
H1230 C1236 0.950 . S
H1231 C1237 0.950 . S
H1232 C1238 0.949 . S
C1233 H1228 0.950 . S
C1233 C1235 1.327 . S
C1233 C1239 1.429 . S
C1234 C1226 1.574 . S
C1234 H1229 0.949 . S
C1234 C1240 1.368 . S
C1235 C1219 1.349 . S
C1235 H1227 0.950 . S
C1235 C1233 1.327 . S
C1236 C1224 1.349 . S
C1236 H1230 0.950 . S
C1236 C1237 1.327 . S
C1237 H1231 0.950 . S
C1237 C1236 1.327 . S
C1237 C1241 1.429 . S
C1238 C1221 1.574 . S
C1238 H1232 0.949 . S
C1238 C1242 1.368 . S
C1239 C1220 1.429 . S
C1239 C1233 1.429 . S
C1239 C1240 1.523 . S
C1240 C1221 1.368 . S
C1240 C1234 1.368 . S
C1240 C1239 1.523 . S
C1241 C1225 1.429 . S
C1241 C1237 1.429 . S
C1241 C1242 1.523 . S
C1242 C1226 1.368 . S
C1242 C1238 1.368 . S
C1242 C1241 1.523 . S
H1243 C1218 0.950 . S
H1244 C1220 0.950 . S
H1245 C1221 0.949 . S
H1246 C1223 0.950 . S
H1247 C1225 0.950 . S
C1248 C1249 1.349 . S
C1248 C1250 1.327 . S
C1248 H1273 0.950 . S
C1249 C1248 1.349 . S
C1249 C1265 1.349 . S
C1250 C1248 1.327 . S
C1250 C1269 1.429 . S
C1250 H1274 0.950 . S
C1251 C1268 1.574 . S
C1251 C1270 1.368 . S
C1251 H1275 0.949 . S
H1252 C1256 0.949 . S
C1253 C1254 1.349 . S
C1253 C1255 1.327 . S
C1253 H1276 0.950 . S
C1254 C1253 1.349 . S
C1254 C1266 1.349 . S
C1255 C1253 1.327 . S
C1255 C1271 1.429 . S
C1255 H1277 0.950 . S
C1256 H1252 0.949 . S
C1256 C1264 1.574 . S
C1256 C1272 1.368 . S
H1257 C1265 0.950 . S
H1258 C1263 0.950 . S
H1259 C1264 0.949 . S
H1260 C1266 0.950 . S
H1261 C1267 0.950 . S
H1262 C1268 0.949 . S
C1263 H1258 0.950 . S
C1263 C1265 1.327 . S
C1263 C1269 1.429 . S
C1264 C1256 1.574 . S
C1264 H1259 0.949 . S
C1264 C1270 1.368 . S
C1265 C1249 1.349 . S
C1265 H1257 0.950 . S
C1265 C1263 1.327 . S
C1266 C1254 1.349 . S
C1266 H1260 0.950 . S
C1266 C1267 1.327 . S
C1267 H1261 0.950 . S
C1267 C1266 1.327 . S
C1267 C1271 1.429 . S
C1268 C1251 1.574 . S
C1268 H1262 0.949 . S
C1268 C1272 1.368 . S
C1269 C1250 1.429 . S
C1269 C1263 1.429 . S
C1269 C1270 1.523 . S
C1270 C1251 1.368 . S
C1270 C1264 1.368 . S
C1270 C1269 1.523 . S
C1271 C1255 1.429 . S
C1271 C1267 1.429 . S
C1271 C1272 1.523 . S
C1272 C1256 1.368 . S
C1272 C1268 1.368 . S
C1272 C1271 1.523 . S
H1273 C1248 0.950 . S
H1274 C1250 0.950 . S
H1275 C1251 0.949 . S
H1276 C1253 0.950 . S
H1277 C1255 0.950 . S
C1278 C1279 1.349 . S
C1278 C1280 1.327 . S
C1278 H1303 0.950 . S
C1279 C1278 1.349 . S
C1279 C1295 1.349 . S
C1280 C1278 1.327 . S
C1280 C1299 1.429 . S
C1280 H1304 0.950 . S
C1281 C1298 1.574 . S
C1281 C1300 1.368 . S
C1281 H1305 0.949 . S
H1282 C1286 0.949 . S
C1283 C1284 1.349 . S
C1283 C1285 1.327 . S
C1283 H1306 0.950 . S
C1284 C1283 1.349 . S
C1284 C1296 1.349 . S
C1285 C1283 1.327 . S
C1285 C1301 1.429 . S
C1285 H1307 0.950 . S
C1286 H1282 0.949 . S
C1286 C1294 1.574 . S
C1286 C1302 1.368 . S
H1287 C1295 0.950 . S
H1288 C1293 0.950 . S
H1289 C1294 0.949 . S
H1290 C1296 0.950 . S
H1291 C1297 0.950 . S
H1292 C1298 0.949 . S
C1293 H1288 0.950 . S
C1293 C1295 1.327 . S
C1293 C1299 1.429 . S
C1294 C1286 1.574 . S
C1294 H1289 0.949 . S
C1294 C1300 1.368 . S
C1295 C1279 1.349 . S
C1295 H1287 0.950 . S
C1295 C1293 1.327 . S
C1296 C1284 1.349 . S
C1296 H1290 0.950 . S
C1296 C1297 1.327 . S
C1297 H1291 0.950 . S
C1297 C1296 1.327 . S
C1297 C1301 1.429 . S
C1298 C1281 1.574 . S
C1298 H1292 0.949 . S
C1298 C1302 1.368 . S
C1299 C1280 1.429 . S
C1299 C1293 1.429 . S
C1299 C1300 1.523 . S
C1300 C1281 1.368 . S
C1300 C1294 1.368 . S
C1300 C1299 1.523 . S
C1301 C1285 1.429 . S
C1301 C1297 1.429 . S
C1301 C1302 1.523 . S
C1302 C1286 1.368 . S
C1302 C1298 1.368 . S
C1302 C1301 1.523 . S
H1303 C1278 0.950 . S
H1304 C1280 0.950 . S
H1305 C1281 0.949 . S
H1306 C1283 0.950 . S
H1307 C1285 0.950 . S
C1308 C1309 1.349 . S
C1308 C1310 1.327 . S
C1308 H1333 0.950 . S
C1309 C1308 1.349 . S
C1309 C1325 1.349 . S
C1310 C1308 1.327 . S
C1310 C1329 1.429 . S
C1310 H1334 0.950 . S
C1311 C1328 1.574 . S
C1311 C1330 1.368 . S
C1311 H1335 0.949 . S
H1312 C1316 0.949 . S
C1313 C1314 1.349 . S
C1313 C1315 1.327 . S
C1313 H1336 0.950 . S
C1314 C1313 1.349 . S
C1314 C1326 1.349 . S
C1315 C1313 1.327 . S
C1315 C1331 1.429 . S
C1315 H1337 0.950 . S
C1316 H1312 0.949 . S
C1316 C1324 1.574 1_545 S
C1316 C1332 1.368 . S
H1317 C1325 0.950 . S
H1318 C1323 0.950 . S
H1319 C1324 0.949 . S
H1320 C1326 0.950 . S
H1321 C1327 0.950 . S
H1322 C1328 0.949 . S
C1323 H1318 0.950 . S
C1323 C1325 1.327 . S
C1323 C1329 1.429 . S
C1324 C1316 1.574 1_565 S
C1324 H1319 0.949 . S
C1324 C1330 1.368 . S
C1325 C1309 1.349 . S
C1325 H1317 0.950 . S
C1325 C1323 1.327 . S
C1326 C1314 1.349 . S
C1326 H1320 0.950 . S
C1326 C1327 1.327 . S
C1327 H1321 0.950 . S
C1327 C1326 1.327 . S
C1327 C1331 1.429 . S
C1328 C1311 1.574 . S
C1328 H1322 0.949 . S
C1328 C1332 1.368 1_565 S
C1329 C1310 1.429 . S
C1329 C1323 1.429 . S
C1329 C1330 1.523 . S
C1330 C1311 1.368 . S
C1330 C1324 1.368 . S
C1330 C1329 1.523 . S
C1331 C1315 1.429 . S
C1331 C1327 1.429 . S
C1331 C1332 1.523 . S
C1332 C1316 1.368 . S
C1332 C1328 1.368 1_545 S
C1332 C1331 1.523 . S
H1333 C1308 0.950 . S
H1334 C1310 0.950 . S
H1335 C1311 0.949 . S
H1336 C1313 0.950 . S
H1337 C1315 0.950 . S
C1338 C1339 1.349 . S
C1338 C1340 1.327 . S
C1338 H1363 0.950 . S
C1339 C1338 1.349 . S
C1339 C1355 1.349 . S
C1340 C1338 1.327 . S
C1340 C1359 1.429 . S
C1340 H1364 0.950 . S
C1341 C1358 1.574 . S
C1341 C1360 1.368 . S
C1341 H1365 0.949 . S
H1342 C1346 0.949 . S
C1343 C1344 1.349 . S
C1343 C1345 1.327 . S
C1343 H1366 0.950 . S
C1344 C1343 1.349 . S
C1344 C1356 1.349 . S
C1345 C1343 1.327 . S
C1345 C1361 1.429 . S
C1345 H1367 0.950 . S
C1346 H1342 0.949 . S
C1346 C1354 1.574 . S
C1346 C1362 1.368 . S
H1347 C1355 0.950 . S
H1348 C1353 0.950 . S
H1349 C1354 0.949 . S
H1350 C1356 0.950 . S
H1351 C1357 0.950 . S
H1352 C1358 0.949 . S
C1353 H1348 0.950 . S
C1353 C1355 1.327 . S
C1353 C1359 1.429 . S
C1354 C1346 1.574 . S
C1354 H1349 0.949 . S
C1354 C1360 1.368 . S
C1355 C1339 1.349 . S
C1355 H1347 0.950 . S
C1355 C1353 1.327 . S
C1356 C1344 1.349 . S
C1356 H1350 0.950 . S
C1356 C1357 1.327 . S
C1357 H1351 0.950 . S
C1357 C1356 1.327 . S
C1357 C1361 1.429 . S
C1358 C1341 1.574 . S
C1358 H1352 0.949 . S
C1358 C1362 1.368 . S
C1359 C1340 1.429 . S
C1359 C1353 1.429 . S
C1359 C1360 1.523 . S
C1360 C1341 1.368 . S
C1360 C1354 1.368 . S
C1360 C1359 1.523 . S
C1361 C1345 1.429 . S
C1361 C1357 1.429 . S
C1361 C1362 1.523 . S
C1362 C1346 1.368 . S
C1362 C1358 1.368 . S
C1362 C1361 1.523 . S
H1363 C1338 0.950 . S
H1364 C1340 0.950 . S
H1365 C1341 0.949 . S
H1366 C1343 0.950 . S
H1367 C1345 0.950 . S
C1368 C1369 1.349 . S
C1368 C1370 1.327 . S
C1368 H1393 0.950 . S
C1369 C1368 1.349 . S
C1369 C1385 1.349 . S
C1370 C1368 1.327 . S
C1370 C1389 1.429 . S
C1370 H1394 0.950 . S
C1371 C1388 1.574 . S
C1371 C1390 1.368 . S
C1371 H1395 0.949 . S
H1372 C1376 0.949 . S
C1373 C1374 1.349 . S
C1373 C1375 1.327 . S
C1373 H1396 0.950 . S
C1374 C1373 1.349 . S
C1374 C1386 1.349 . S
C1375 C1373 1.327 . S
C1375 C1391 1.429 . S
C1375 H1397 0.950 . S
C1376 H1372 0.949 . S
C1376 C1384 1.574 . S
C1376 C1392 1.368 . S
H1377 C1385 0.950 . S
H1378 C1383 0.950 . S
H1379 C1384 0.949 . S
H1380 C1386 0.950 . S
H1381 C1387 0.950 . S
H1382 C1388 0.949 . S
C1383 H1378 0.950 . S
C1383 C1385 1.327 . S
C1383 C1389 1.429 . S
C1384 C1376 1.574 . S
C1384 H1379 0.949 . S
C1384 C1390 1.368 . S
C1385 C1369 1.349 . S
C1385 H1377 0.950 . S
C1385 C1383 1.327 . S
C1386 C1374 1.349 . S
C1386 H1380 0.950 . S
C1386 C1387 1.327 . S
C1387 H1381 0.950 . S
C1387 C1386 1.327 . S
C1387 C1391 1.429 . S
C1388 C1371 1.574 . S
C1388 H1382 0.949 . S
C1388 C1392 1.368 . S
C1389 C1370 1.429 . S
C1389 C1383 1.429 . S
C1389 C1390 1.523 . S
C1390 C1371 1.368 . S
C1390 C1384 1.368 . S
C1390 C1389 1.523 . S
C1391 C1375 1.429 . S
C1391 C1387 1.429 . S
C1391 C1392 1.523 . S
C1392 C1376 1.368 . S
C1392 C1388 1.368 . S
C1392 C1391 1.523 . S
H1393 C1368 0.950 . S
H1394 C1370 0.950 . S
H1395 C1371 0.949 . S
H1396 C1373 0.950 . S
H1397 C1375 0.950 . S
C1398 C1399 1.349 . S
C1398 C1400 1.327 . S
C1398 H1423 0.950 . S
C1399 C1398 1.349 . S
C1399 C1415 1.349 . S
C1400 C1398 1.327 . S
C1400 C1419 1.429 . S
C1400 H1424 0.950 . S
C1401 C1418 1.574 . S
C1401 C1420 1.368 . S
C1401 H1425 0.949 . S
H1402 C1406 0.949 . S
C1403 C1404 1.349 . S
C1403 C1405 1.327 . S
C1403 H1426 0.950 . S
C1404 C1403 1.349 . S
C1404 C1416 1.349 . S
C1405 C1403 1.327 . S
C1405 C1421 1.429 . S
C1405 H1427 0.950 . S
C1406 H1402 0.949 . S
C1406 C1414 1.574 . S
C1406 C1422 1.368 . S
H1407 C1415 0.950 . S
H1408 C1413 0.950 . S
H1409 C1414 0.949 . S
H1410 C1416 0.950 . S
H1411 C1417 0.950 . S
H1412 C1418 0.949 . S
C1413 H1408 0.950 . S
C1413 C1415 1.327 . S
C1413 C1419 1.429 . S
C1414 C1406 1.574 . S
C1414 H1409 0.949 . S
C1414 C1420 1.368 . S
C1415 C1399 1.349 . S
C1415 H1407 0.950 . S
C1415 C1413 1.327 . S
C1416 C1404 1.349 . S
C1416 H1410 0.950 . S
C1416 C1417 1.327 . S
C1417 H1411 0.950 . S
C1417 C1416 1.327 . S
C1417 C1421 1.429 . S
C1418 C1401 1.574 . S
C1418 H1412 0.949 . S
C1418 C1422 1.368 . S
C1419 C1400 1.429 . S
C1419 C1413 1.429 . S
C1419 C1420 1.523 . S
C1420 C1401 1.368 . S
C1420 C1414 1.368 . S
C1420 C1419 1.523 . S
C1421 C1405 1.429 . S
C1421 C1417 1.429 . S
C1421 C1422 1.523 . S
C1422 C1406 1.368 . S
C1422 C1418 1.368 . S
C1422 C1421 1.523 . S
H1423 C1398 0.950 . S
H1424 C1400 0.950 . S
H1425 C1401 0.949 . S
H1426 C1403 0.950 . S
H1427 C1405 0.950 . S
C1428 C1429 1.349 . S
C1428 C1430 1.327 . S
C1428 H1453 0.950 . S
C1429 C1428 1.349 . S
C1429 C1445 1.349 . S
C1430 C1428 1.327 . S
C1430 C1449 1.429 . S
C1430 H1454 0.950 . S
C1431 C1448 1.574 . S
C1431 C1450 1.368 . S
C1431 H1455 0.949 . S
H1432 C1436 0.949 . S
C1433 C1434 1.349 . S
C1433 C1435 1.327 . S
C1433 H1456 0.950 . S
C1434 C1433 1.349 . S
C1434 C1446 1.349 . S
C1435 C1433 1.327 . S
C1435 C1451 1.429 . S
C1435 H1457 0.950 . S
C1436 H1432 0.949 . S
C1436 C1444 1.574 . S
C1436 C1452 1.368 . S
H1437 C1445 0.950 . S
H1438 C1443 0.950 . S
H1439 C1444 0.949 . S
H1440 C1446 0.950 . S
H1441 C1447 0.950 . S
H1442 C1448 0.949 . S
C1443 H1438 0.950 . S
C1443 C1445 1.327 . S
C1443 C1449 1.429 . S
C1444 C1436 1.574 . S
C1444 H1439 0.949 . S
C1444 C1450 1.368 . S
C1445 C1429 1.349 . S
C1445 H1437 0.950 . S
C1445 C1443 1.327 . S
C1446 C1434 1.349 . S
C1446 H1440 0.950 . S
C1446 C1447 1.327 . S
C1447 H1441 0.950 . S
C1447 C1446 1.327 . S
C1447 C1451 1.429 . S
C1448 C1431 1.574 . S
C1448 H1442 0.949 . S
C1448 C1452 1.368 . S
C1449 C1430 1.429 . S
C1449 C1443 1.429 . S
C1449 C1450 1.523 . S
C1450 C1431 1.368 . S
C1450 C1444 1.368 . S
C1450 C1449 1.523 . S
C1451 C1435 1.429 . S
C1451 C1447 1.429 . S
C1451 C1452 1.523 . S
C1452 C1436 1.368 . S
C1452 C1448 1.368 . S
C1452 C1451 1.523 . S
H1453 C1428 0.950 . S
H1454 C1430 0.950 . S
H1455 C1431 0.949 . S
H1456 C1433 0.950 . S
H1457 C1435 0.950 . S
C1458 C1459 1.349 . S
C1458 C1460 1.327 . S
C1458 H1483 0.950 . S
C1459 C1458 1.349 . S
C1459 C1475 1.349 . S
C1460 C1458 1.327 . S
C1460 C1479 1.429 . S
C1460 H1484 0.950 . S
C1461 C1478 1.574 . S
C1461 C1480 1.368 . S
C1461 H1485 0.949 . S
H1462 C1466 0.949 . S
C1463 C1464 1.349 . S
C1463 C1465 1.327 . S
C1463 H1486 0.950 . S
C1464 C1463 1.349 . S
C1464 C1476 1.349 . S
C1465 C1463 1.327 . S
C1465 C1481 1.429 . S
C1465 H1487 0.950 . S
C1466 H1462 0.949 . S
C1466 C1474 1.574 . S
C1466 C1482 1.368 . S
H1467 C1475 0.950 . S
H1468 C1473 0.950 . S
H1469 C1474 0.949 . S
H1470 C1476 0.950 . S
H1471 C1477 0.950 . S
H1472 C1478 0.949 . S
C1473 H1468 0.950 . S
C1473 C1475 1.327 . S
C1473 C1479 1.429 . S
C1474 C1466 1.574 . S
C1474 H1469 0.949 . S
C1474 C1480 1.368 . S
C1475 C1459 1.349 . S
C1475 H1467 0.950 . S
C1475 C1473 1.327 . S
C1476 C1464 1.349 . S
C1476 H1470 0.950 . S
C1476 C1477 1.327 . S
C1477 H1471 0.950 . S
C1477 C1476 1.327 . S
C1477 C1481 1.429 . S
C1478 C1461 1.574 . S
C1478 H1472 0.949 . S
C1478 C1482 1.368 . S
C1479 C1460 1.429 . S
C1479 C1473 1.429 . S
C1479 C1480 1.523 . S
C1480 C1461 1.368 . S
C1480 C1474 1.368 . S
C1480 C1479 1.523 . S
C1481 C1465 1.429 . S
C1481 C1477 1.429 . S
C1481 C1482 1.523 . S
C1482 C1466 1.368 . S
C1482 C1478 1.368 . S
C1482 C1481 1.523 . S
H1483 C1458 0.950 . S
H1484 C1460 0.950 . S
H1485 C1461 0.949 . S
H1486 C1463 0.950 . S
H1487 C1465 0.950 . S
C1488 C1489 1.349 . S
C1488 C1490 1.327 . S
C1488 H1513 0.950 . S
C1489 C1488 1.349 . S
C1489 C1505 1.349 . S
C1490 C1488 1.327 . S
C1490 C1509 1.429 . S
C1490 H1514 0.950 . S
C1491 C1508 1.574 . S
C1491 C1510 1.368 . S
C1491 H1515 0.949 . S
H1492 C1496 0.949 . S
C1493 C1494 1.349 . S
C1493 C1495 1.327 . S
C1493 H1516 0.950 . S
C1494 C1493 1.349 . S
C1494 C1506 1.349 . S
C1495 C1493 1.327 . S
C1495 C1511 1.429 . S
C1495 H1517 0.950 . S
C1496 H1492 0.949 . S
C1496 C1504 1.574 . S
C1496 C1512 1.368 . S
H1497 C1505 0.950 . S
H1498 C1503 0.950 . S
H1499 C1504 0.949 . S
H1500 C1506 0.950 . S
H1501 C1507 0.950 . S
H1502 C1508 0.949 . S
C1503 H1498 0.950 . S
C1503 C1505 1.327 . S
C1503 C1509 1.429 . S
C1504 C1496 1.574 . S
C1504 H1499 0.949 . S
C1504 C1510 1.368 . S
C1505 C1489 1.349 . S
C1505 H1497 0.950 . S
C1505 C1503 1.327 . S
C1506 C1494 1.349 . S
C1506 H1500 0.950 . S
C1506 C1507 1.327 . S
C1507 H1501 0.950 . S
C1507 C1506 1.327 . S
C1507 C1511 1.429 . S
C1508 C1491 1.574 . S
C1508 H1502 0.949 . S
C1508 C1512 1.368 . S
C1509 C1490 1.429 . S
C1509 C1503 1.429 . S
C1509 C1510 1.523 . S
C1510 C1491 1.368 . S
C1510 C1504 1.368 . S
C1510 C1509 1.523 . S
C1511 C1495 1.429 . S
C1511 C1507 1.429 . S
C1511 C1512 1.523 . S
C1512 C1496 1.368 . S
C1512 C1508 1.368 . S
C1512 C1511 1.523 . S
H1513 C1488 0.950 . S
H1514 C1490 0.950 . S
H1515 C1491 0.949 . S
H1516 C1493 0.950 . S
H1517 C1495 0.950 . S
C1518 C1519 1.349 . S
C1518 C1520 1.327 . S
C1518 H1543 0.950 . S
C1519 C1518 1.349 . S
C1519 C1535 1.349 . S
C1520 C1518 1.327 . S
C1520 C1539 1.429 . S
C1520 H1544 0.950 . S
C1521 C1538 1.574 . S
C1521 C1540 1.368 . S
C1521 H1545 0.949 . S
H1522 C1526 0.949 . S
C1523 C1524 1.349 . S
C1523 C1525 1.327 1_455 S
C1523 H1546 0.950 . S
C1524 C1523 1.349 . S
C1524 C1536 1.349 1_455 S
C1525 C1523 1.327 1_655 S
C1525 C1541 1.429 . S
C1525 H1547 0.950 . S
C1526 H1522 0.949 . S
C1526 C1534 1.574 . S
C1526 C1542 1.368 . S
H1527 C1535 0.950 . S
H1528 C1533 0.950 . S
H1529 C1534 0.949 . S
H1530 C1536 0.950 1_455 S
H1531 C1537 0.950 . S
H1532 C1538 0.949 . S
C1533 H1528 0.950 . S
C1533 C1535 1.327 . S
C1533 C1539 1.429 . S
C1534 C1526 1.574 . S
C1534 H1529 0.949 . S
C1534 C1540 1.368 . S
C1535 C1519 1.349 . S
C1535 H1527 0.950 . S
C1535 C1533 1.327 . S
C1536 C1524 1.349 1_655 S
C1536 H1530 0.950 1_655 S
C1536 C1537 1.327 . S
C1537 H1531 0.950 . S
C1537 C1536 1.327 . S
C1537 C1541 1.429 . S
C1538 C1521 1.574 . S
C1538 H1532 0.949 . S
C1538 C1542 1.368 . S
C1539 C1520 1.429 . S
C1539 C1533 1.429 . S
C1539 C1540 1.523 . S
C1540 C1521 1.368 . S
C1540 C1534 1.368 . S
C1540 C1539 1.523 . S
C1541 C1525 1.429 . S
C1541 C1537 1.429 . S
C1541 C1542 1.523 . S
C1542 C1526 1.368 . S
C1542 C1538 1.368 . S
C1542 C1541 1.523 . S
H1543 C1518 0.950 . S
H1544 C1520 0.950 . S
H1545 C1521 0.949 . S
H1546 C1523 0.950 . S
H1547 C1525 0.950 . S
C1548 C1549 1.349 . S
C1548 C1550 1.327 . S
C1548 H1573 0.950 . S
C1549 C1548 1.349 . S
C1549 C1565 1.349 . S
C1550 C1548 1.327 . S
C1550 C1569 1.429 . S
C1550 H1574 0.950 . S
C1551 C1568 1.574 . S
C1551 C1570 1.368 . S
C1551 H1575 0.949 . S
H1552 C1556 0.949 . S
C1553 C1554 1.349 . S
C1553 C1555 1.327 . S
C1553 H1576 0.950 . S
C1554 C1553 1.349 . S
C1554 C1566 1.349 . S
C1555 C1553 1.327 . S
C1555 C1571 1.429 . S
C1555 H1577 0.950 . S
C1556 H1552 0.949 . S
C1556 C1564 1.574 . S
C1556 C1572 1.368 . S
H1557 C1565 0.950 . S
H1558 C1563 0.950 . S
H1559 C1564 0.949 . S
H1560 C1566 0.950 . S
H1561 C1567 0.950 . S
H1562 C1568 0.949 . S
C1563 H1558 0.950 . S
C1563 C1565 1.327 . S
C1563 C1569 1.429 . S
C1564 C1556 1.574 . S
C1564 H1559 0.949 . S
C1564 C1570 1.368 . S
C1565 C1549 1.349 . S
C1565 H1557 0.950 . S
C1565 C1563 1.327 . S
C1566 C1554 1.349 . S
C1566 H1560 0.950 . S
C1566 C1567 1.327 . S
C1567 H1561 0.950 . S
C1567 C1566 1.327 . S
C1567 C1571 1.429 . S
C1568 C1551 1.574 . S
C1568 H1562 0.949 . S
C1568 C1572 1.368 . S
C1569 C1550 1.429 . S
C1569 C1563 1.429 . S
C1569 C1570 1.523 . S
C1570 C1551 1.368 . S
C1570 C1564 1.368 . S
C1570 C1569 1.523 . S
C1571 C1555 1.429 . S
C1571 C1567 1.429 . S
C1571 C1572 1.523 . S
C1572 C1556 1.368 . S
C1572 C1568 1.368 . S
C1572 C1571 1.523 . S
H1573 C1548 0.950 . S
H1574 C1550 0.950 . S
H1575 C1551 0.949 . S
H1576 C1553 0.950 . S
H1577 C1555 0.950 . S
C1578 C1579 1.349 . S
C1578 C1580 1.327 . S
C1578 H1603 0.950 . S
C1579 C1578 1.349 . S
C1579 C1595 1.349 . S
C1580 C1578 1.327 . S
C1580 C1599 1.429 . S
C1580 H1604 0.950 . S
C1581 C1598 1.574 . S
C1581 C1600 1.368 . S
C1581 H1605 0.949 . S
H1582 C1586 0.949 . S
C1583 C1584 1.349 . S
C1583 C1585 1.327 . S
C1583 H1606 0.950 . S
C1584 C1583 1.349 . S
C1584 C1596 1.349 . S
C1585 C1583 1.327 . S
C1585 C1601 1.429 . S
C1585 H1607 0.950 . S
C1586 H1582 0.949 . S
C1586 C1594 1.574 . S
C1586 C1602 1.368 . S
H1587 C1595 0.950 . S
H1588 C1593 0.950 . S
H1589 C1594 0.949 . S
H1590 C1596 0.950 . S
H1591 C1597 0.950 . S
H1592 C1598 0.949 . S
C1593 H1588 0.950 . S
C1593 C1595 1.327 . S
C1593 C1599 1.429 . S
C1594 C1586 1.574 . S
C1594 H1589 0.949 . S
C1594 C1600 1.368 . S
C1595 C1579 1.349 . S
C1595 H1587 0.950 . S
C1595 C1593 1.327 . S
C1596 C1584 1.349 . S
C1596 H1590 0.950 . S
C1596 C1597 1.327 . S
C1597 H1591 0.950 . S
C1597 C1596 1.327 . S
C1597 C1601 1.429 . S
C1598 C1581 1.574 . S
C1598 H1592 0.949 . S
C1598 C1602 1.368 . S
C1599 C1580 1.429 . S
C1599 C1593 1.429 . S
C1599 C1600 1.523 . S
C1600 C1581 1.368 . S
C1600 C1594 1.368 . S
C1600 C1599 1.523 . S
C1601 C1585 1.429 . S
C1601 C1597 1.429 . S
C1601 C1602 1.523 . S
C1602 C1586 1.368 . S
C1602 C1598 1.368 . S
C1602 C1601 1.523 . S
H1603 C1578 0.950 . S
H1604 C1580 0.950 . S
H1605 C1581 0.949 . S
H1606 C1583 0.950 . S
H1607 C1585 0.950 . S
C1608 C1609 1.349 . S
C1608 C1610 1.327 . S
C1608 H1633 0.950 . S
C1609 C1608 1.349 . S
C1609 C1625 1.349 . S
C1610 C1608 1.327 . S
C1610 C1629 1.429 . S
C1610 H1634 0.950 . S
C1611 C1628 1.574 . S
C1611 C1630 1.368 . S
C1611 H1635 0.949 . S
H1612 C1616 0.949 . S
C1613 C1614 1.349 . S
C1613 C1615 1.327 1_455 S
C1613 H1636 0.950 . S
C1614 C1613 1.349 . S
C1614 C1626 1.353 1_455 S
C1615 C1613 1.327 1_655 S
C1615 C1631 1.429 . S
C1615 H1637 0.950 . S
C1616 H1612 0.949 . S
C1616 C1624 1.574 . S
C1616 C1632 1.368 . S
H1617 C1625 0.950 . S
H1618 C1623 0.950 . S
H1619 C1624 0.949 . S
H1620 C1626 0.952 1_455 S
H1621 C1627 0.950 . S
H1622 C1628 0.949 . S
C1623 H1618 0.950 . S
C1623 C1625 1.327 . S
C1623 C1629 1.429 . S
C1624 C1616 1.574 . S
C1624 H1619 0.949 . S
C1624 C1630 1.368 . S
C1625 C1609 1.349 . S
C1625 H1617 0.950 . S
C1625 C1623 1.327 . S
C1626 C1614 1.353 1_655 S
C1626 H1620 0.952 1_655 S
C1626 C1627 1.320 . S
C1627 H1621 0.950 . S
C1627 C1626 1.320 . S
C1627 C1631 1.429 . S
C1628 C1611 1.574 . S
C1628 H1622 0.949 . S
C1628 C1632 1.368 . S
C1629 C1610 1.429 . S
C1629 C1623 1.429 . S
C1629 C1630 1.523 . S
C1630 C1611 1.368 . S
C1630 C1624 1.368 . S
C1630 C1629 1.523 . S
C1631 C1615 1.429 . S
C1631 C1627 1.429 . S
C1631 C1632 1.523 . S
C1632 C1616 1.368 . S
C1632 C1628 1.368 . S
C1632 C1631 1.523 . S
H1633 C1608 0.950 . S
H1634 C1610 0.950 . S
H1635 C1611 0.949 . S
H1636 C1613 0.950 . S
H1637 C1615 0.950 . S
C1638 C1639 1.349 . S
C1638 C1640 1.327 . S
C1638 H1663 0.950 . S
C1639 C1638 1.349 . S
C1639 C1655 1.349 . S
C1640 C1638 1.327 . S
C1640 C1659 1.429 . S
C1640 H1664 0.950 . S
C1641 C1658 1.574 . S
C1641 C1660 1.368 . S
C1641 H1665 0.949 . S
H1642 C1646 0.949 . S
C1643 C1644 1.349 . S
C1643 C1645 1.327 . S
C1643 H1666 0.950 . S
C1644 C1643 1.349 . S
C1644 C1656 1.349 . S
C1645 C1643 1.327 . S
C1645 C1661 1.429 . S
C1645 H1667 0.950 . S
C1646 H1642 0.949 . S
C1646 C1654 1.574 . S
C1646 C1662 1.368 . S
H1647 C1655 0.950 . S
H1648 C1653 0.950 . S
H1649 C1654 0.949 . S
H1650 C1656 0.950 . S
H1651 C1657 0.950 . S
H1652 C1658 0.949 . S
C1653 H1648 0.950 . S
C1653 C1655 1.327 . S
C1653 C1659 1.429 . S
C1654 C1646 1.574 . S
C1654 H1649 0.949 . S
C1654 C1660 1.368 . S
C1655 C1639 1.349 . S
C1655 H1647 0.950 . S
C1655 C1653 1.327 . S
C1656 C1644 1.349 . S
C1656 H1650 0.950 . S
C1656 C1657 1.327 . S
C1657 H1651 0.950 . S
C1657 C1656 1.327 . S
C1657 C1661 1.429 . S
C1658 C1641 1.574 . S
C1658 H1652 0.949 . S
C1658 C1662 1.368 . S
C1659 C1640 1.429 . S
C1659 C1653 1.429 . S
C1659 C1660 1.523 . S
C1660 C1641 1.368 . S
C1660 C1654 1.368 . S
C1660 C1659 1.523 . S
C1661 C1645 1.429 . S
C1661 C1657 1.429 . S
C1661 C1662 1.523 . S
C1662 C1646 1.368 . S
C1662 C1658 1.368 . S
C1662 C1661 1.523 . S
H1663 C1638 0.950 . S
H1664 C1640 0.950 . S
H1665 C1641 0.949 . S
H1666 C1643 0.950 . S
H1667 C1645 0.950 . S
C1668 C1669 1.349 . S
C1668 C1670 1.327 . S
C1668 H1693 0.950 . S
C1669 C1668 1.349 . S
C1669 C1685 1.349 . S
C1670 C1668 1.327 . S
C1670 C1689 1.429 . S
C1670 H1694 0.950 . S
C1671 C1688 1.574 . S
C1671 C1690 1.368 . S
C1671 H1695 0.949 . S
H1672 C1676 0.949 . S
C1673 C1674 1.349 . S
C1673 C1675 1.327 . S
C1673 H1696 0.950 . S
C1674 C1673 1.349 . S
C1674 C1686 1.349 . S
C1675 C1673 1.327 . S
C1675 C1691 1.429 . S
C1675 H1697 0.950 . S
C1676 H1672 0.949 . S
C1676 C1684 1.574 . S
C1676 C1692 1.368 . S
H1677 C1685 0.950 . S
H1678 C1683 0.950 . S
H1679 C1684 0.949 . S
H1680 C1686 0.950 . S
H1681 C1687 0.950 . S
H1682 C1688 0.949 . S
C1683 H1678 0.950 . S
C1683 C1685 1.327 . S
C1683 C1689 1.429 . S
C1684 C1676 1.574 . S
C1684 H1679 0.949 . S
C1684 C1690 1.368 . S
C1685 C1669 1.349 . S
C1685 H1677 0.950 . S
C1685 C1683 1.327 . S
C1686 C1674 1.349 . S
C1686 H1680 0.950 . S
C1686 C1687 1.327 . S
C1687 H1681 0.950 . S
C1687 C1686 1.327 . S
C1687 C1691 1.429 . S
C1688 C1671 1.574 . S
C1688 H1682 0.949 . S
C1688 C1692 1.368 . S
C1689 C1670 1.429 . S
C1689 C1683 1.429 . S
C1689 C1690 1.523 . S
C1690 C1671 1.368 . S
C1690 C1684 1.368 . S
C1690 C1689 1.523 . S
C1691 C1675 1.429 . S
C1691 C1687 1.429 . S
C1691 C1692 1.523 . S
C1692 C1676 1.368 . S
C1692 C1688 1.368 . S
C1692 C1691 1.523 . S
H1693 C1668 0.950 . S
H1694 C1670 0.950 . S
H1695 C1671 0.949 . S
H1696 C1673 0.950 . S
H1697 C1675 0.950 . S
C1698 C1699 1.349 . S
C1698 C1700 1.327 . S
C1698 H1723 0.950 . S
C1699 C1698 1.349 . S
C1699 C1715 1.349 . S
C1700 C1698 1.327 . S
C1700 C1719 1.429 . S
C1700 H1724 0.950 . S
C1701 C1718 1.574 . S
C1701 C1720 1.368 . S
C1701 H1725 0.949 . S
H1702 C1706 0.949 . S
C1703 C1704 1.349 . S
C1703 C1705 1.327 . S
C1703 H1726 0.950 . S
C1704 C1703 1.349 . S
C1704 C1716 1.349 . S
C1705 C1703 1.327 . S
C1705 C1721 1.429 . S
C1705 H1727 0.950 . S
C1706 H1702 0.949 . S
C1706 C1714 1.574 . S
C1706 C1722 1.368 . S
H1707 C1715 0.950 . S
H1708 C1713 0.950 . S
H1709 C1714 0.949 . S
H1710 C1716 0.950 . S
H1711 C1717 0.950 . S
H1712 C1718 0.949 . S
C1713 H1708 0.950 . S
C1713 C1715 1.327 . S
C1713 C1719 1.429 . S
C1714 C1706 1.574 . S
C1714 H1709 0.949 . S
C1714 C1720 1.368 . S
C1715 C1699 1.349 . S
C1715 H1707 0.950 . S
C1715 C1713 1.327 . S
C1716 C1704 1.349 . S
C1716 H1710 0.950 . S
C1716 C1717 1.327 . S
C1717 H1711 0.950 . S
C1717 C1716 1.327 . S
C1717 C1721 1.429 . S
C1718 C1701 1.574 . S
C1718 H1712 0.949 . S
C1718 C1722 1.368 . S
C1719 C1700 1.429 . S
C1719 C1713 1.429 . S
C1719 C1720 1.523 . S
C1720 C1701 1.368 . S
C1720 C1714 1.368 . S
C1720 C1719 1.523 . S
C1721 C1705 1.429 . S
C1721 C1717 1.429 . S
C1721 C1722 1.523 . S
C1722 C1706 1.368 . S
C1722 C1718 1.368 . S
C1722 C1721 1.523 . S
H1723 C1698 0.950 . S
H1724 C1700 0.950 . S
H1725 C1701 0.949 . S
H1726 C1703 0.950 . S
H1727 C1705 0.950 . S
C1728 C1729 1.349 . S
C1728 C1730 1.327 . S
C1728 H1753 0.950 . S
C1729 C1728 1.349 . S
C1729 C1745 1.349 . S
C1730 C1728 1.327 . S
C1730 C1749 1.429 . S
C1730 H1754 0.950 . S
C1731 C1748 1.574 . S
C1731 C1750 1.368 . S
C1731 H1755 0.949 . S
H1732 C1736 0.949 . S
C1733 C1734 1.349 . S
C1733 C1735 1.327 . S
C1733 H1756 0.950 . S
C1734 C1733 1.349 . S
C1734 C1746 1.349 . S
C1735 C1733 1.327 . S
C1735 C1751 1.429 . S
C1735 H1757 0.950 . S
C1736 H1732 0.949 . S
C1736 C1744 1.574 . S
C1736 C1752 1.368 . S
H1737 C1745 0.950 . S
H1738 C1743 0.950 . S
H1739 C1744 0.949 . S
H1740 C1746 0.950 . S
H1741 C1747 0.950 . S
H1742 C1748 0.949 . S
C1743 H1738 0.950 . S
C1743 C1745 1.327 . S
C1743 C1749 1.429 . S
C1744 C1736 1.574 . S
C1744 H1739 0.949 . S
C1744 C1750 1.368 . S
C1745 C1729 1.349 . S
C1745 H1737 0.950 . S
C1745 C1743 1.327 . S
C1746 C1734 1.349 . S
C1746 H1740 0.950 . S
C1746 C1747 1.327 . S
C1747 H1741 0.950 . S
C1747 C1746 1.327 . S
C1747 C1751 1.429 . S
C1748 C1731 1.574 . S
C1748 H1742 0.949 . S
C1748 C1752 1.368 . S
C1749 C1730 1.429 . S
C1749 C1743 1.429 . S
C1749 C1750 1.523 . S
C1750 C1731 1.368 . S
C1750 C1744 1.368 . S
C1750 C1749 1.523 . S
C1751 C1735 1.429 . S
C1751 C1747 1.429 . S
C1751 C1752 1.523 . S
C1752 C1736 1.368 . S
C1752 C1748 1.368 . S
C1752 C1751 1.523 . S
H1753 C1728 0.950 . S
H1754 C1730 0.950 . S
H1755 C1731 0.949 . S
H1756 C1733 0.950 . S
H1757 C1735 0.950 . S
C1758 C1759 1.349 . S
C1758 C1760 1.327 . S
C1758 H1783 0.950 . S
C1759 C1758 1.349 . S
C1759 C1775 1.349 . S
C1760 C1758 1.327 . S
C1760 C1779 1.429 . S
C1760 H1784 0.950 . S
C1761 C1778 1.574 . S
C1761 C1780 1.368 . S
C1761 H1785 0.949 . S
H1762 C1766 0.949 . S
C1763 C1764 1.349 . S
C1763 C1765 1.327 . S
C1763 H1786 0.950 . S
C1764 C1763 1.349 . S
C1764 C1776 1.349 . S
C1765 C1763 1.327 . S
C1765 C1781 1.429 . S
C1765 H1787 0.950 . S
C1766 H1762 0.949 . S
C1766 C1774 1.574 . S
C1766 C1782 1.368 . S
H1767 C1775 0.950 . S
H1768 C1773 0.950 . S
H1769 C1774 0.949 . S
H1770 C1776 0.950 . S
H1771 C1777 0.950 . S
H1772 C1778 0.949 . S
C1773 H1768 0.950 . S
C1773 C1775 1.327 . S
C1773 C1779 1.429 . S
C1774 C1766 1.574 . S
C1774 H1769 0.949 . S
C1774 C1780 1.368 . S
C1775 C1759 1.349 . S
C1775 H1767 0.950 . S
C1775 C1773 1.327 . S
C1776 C1764 1.349 . S
C1776 H1770 0.950 . S
C1776 C1777 1.327 . S
C1777 H1771 0.950 . S
C1777 C1776 1.327 . S
C1777 C1781 1.429 . S
C1778 C1761 1.574 . S
C1778 H1772 0.949 . S
C1778 C1782 1.368 . S
C1779 C1760 1.429 . S
C1779 C1773 1.429 . S
C1779 C1780 1.523 . S
C1780 C1761 1.368 . S
C1780 C1774 1.368 . S
C1780 C1779 1.523 . S
C1781 C1765 1.429 . S
C1781 C1777 1.429 . S
C1781 C1782 1.523 . S
C1782 C1766 1.368 . S
C1782 C1778 1.368 . S
C1782 C1781 1.523 . S
H1783 C1758 0.950 . S
H1784 C1760 0.950 . S
H1785 C1761 0.949 . S
H1786 C1763 0.950 . S
H1787 C1765 0.950 . S
C1788 C1789 1.338 1_565 S
C1788 C1790 1.281 1_565 S
C1788 H1813 0.991 . S
C1789 C1788 1.338 1_545 S
C1789 C1805 1.349 . S
C1790 C1788 1.281 1_545 S
C1790 C1809 1.471 . S
C1790 H1814 0.938 1_545 S
C1791 C1808 1.574 . S
C1791 C1810 1.368 . S
C1791 H1815 0.949 . S
H1792 C1796 0.951 . S
C1793 C1794 1.349 . S
C1793 C1795 1.327 . S
C1793 H1816 0.950 . S
C1794 C1793 1.349 . S
C1794 C1806 1.349 . S
C1795 C1793 1.327 . S
C1795 C1811 1.429 . S
C1795 H1817 0.950 . S
C1796 H1792 0.951 . S
C1796 C1804 1.574 . S
C1796 C1812 1.368 . S
H1797 C1805 0.950 . S
H1798 C1803 0.950 . S
H1799 C1804 0.949 1_565 S
H1800 C1806 0.950 . S
H1801 C1807 0.950 . S
H1802 C1808 0.949 . S
C1803 H1798 0.950 . S
C1803 C1805 1.327 . S
C1803 C1809 1.429 . S
C1804 C1796 1.574 . S
C1804 H1799 0.949 1_545 S
C1804 C1810 1.368 . S
C1805 C1789 1.349 . S
C1805 H1797 0.950 . S
C1805 C1803 1.327 . S
C1806 C1794 1.349 . S
C1806 H1800 0.950 . S
C1806 C1807 1.327 . S
C1807 H1801 0.950 . S
C1807 C1806 1.327 . S
C1807 C1811 1.429 . S
C1808 C1791 1.574 . S
C1808 H1802 0.949 . S
C1808 C1812 1.368 . S
C1809 C1790 1.471 . S
C1809 C1803 1.429 . S
C1809 C1810 1.523 . S
C1810 C1791 1.368 . S
C1810 C1804 1.368 . S
C1810 C1809 1.523 . S
C1811 C1795 1.429 . S
C1811 C1807 1.429 . S
C1811 C1812 1.523 . S
C1812 C1796 1.368 . S
C1812 C1808 1.368 . S
C1812 C1811 1.523 . S
H1813 C1788 0.991 . S
H1814 C1790 0.938 1_565 S
H1815 C1791 0.949 . S
H1816 C1793 0.950 . S
H1817 C1795 0.950 . S
C1818 C1819 1.349 . S
C1818 C1820 1.327 . S
C1818 H1843 0.950 . S
C1819 C1818 1.349 . S
C1819 C1835 1.349 . S
C1820 C1818 1.327 . S
C1820 C1839 1.429 . S
C1820 H1844 0.950 . S
C1821 C1838 1.574 . S
C1821 C1840 1.368 . S
C1821 H1845 0.949 . S
H1822 C1826 0.949 . S
C1823 C1824 1.349 . S
C1823 C1825 1.327 . S
C1823 H1846 0.950 . S
C1824 C1823 1.349 . S
C1824 C1836 1.349 . S
C1825 C1823 1.327 . S
C1825 C1841 1.429 . S
C1825 H1847 0.950 . S
C1826 H1822 0.949 . S
C1826 C1834 1.574 . S
C1826 C1842 1.368 . S
H1827 C1835 0.950 . S
H1828 C1833 0.950 . S
H1829 C1834 0.949 . S
H1830 C1836 0.950 . S
H1831 C1837 0.950 . S
H1832 C1838 0.949 . S
C1833 H1828 0.950 . S
C1833 C1835 1.327 . S
C1833 C1839 1.429 . S
C1834 C1826 1.574 . S
C1834 H1829 0.949 . S
C1834 C1840 1.368 . S
C1835 C1819 1.349 . S
C1835 H1827 0.950 . S
C1835 C1833 1.327 . S
C1836 C1824 1.349 . S
C1836 H1830 0.950 . S
C1836 C1837 1.327 . S
C1837 H1831 0.950 . S
C1837 C1836 1.327 . S
C1837 C1841 1.429 . S
C1838 C1821 1.574 . S
C1838 H1832 0.949 . S
C1838 C1842 1.368 . S
C1839 C1820 1.429 . S
C1839 C1833 1.429 . S
C1839 C1840 1.523 . S
C1840 C1821 1.368 . S
C1840 C1834 1.368 . S
C1840 C1839 1.523 . S
C1841 C1825 1.429 . S
C1841 C1837 1.429 . S
C1841 C1842 1.523 . S
C1842 C1826 1.368 . S
C1842 C1838 1.368 . S
C1842 C1841 1.523 . S
H1843 C1818 0.950 . S
H1844 C1820 0.950 . S
H1845 C1821 0.949 . S
H1846 C1823 0.950 . S
H1847 C1825 0.950 . S
C1848 C1849 1.349 . S
C1848 C1850 1.327 . S
C1848 H1873 0.950 . S
C1849 C1848 1.349 . S
C1849 C1865 1.349 . S
C1850 C1848 1.327 . S
C1850 C1869 1.429 . S
C1850 H1874 0.950 . S
C1851 C1868 1.574 . S
C1851 C1870 1.368 . S
C1851 H1875 0.949 . S
H1852 C1856 0.949 . S
C1853 C1854 1.349 . S
C1853 C1855 1.327 . S
C1853 H1876 0.950 . S
C1854 C1853 1.349 . S
C1854 C1866 1.349 . S
C1855 C1853 1.327 . S
C1855 C1871 1.429 . S
C1855 H1877 0.950 . S
C1856 H1852 0.949 . S
C1856 C1864 1.574 . S
C1856 C1872 1.368 . S
H1857 C1865 0.950 . S
H1858 C1863 0.950 . S
H1859 C1864 0.949 . S
H1860 C1866 0.950 . S
H1861 C1867 0.950 . S
H1862 C1868 0.949 . S
C1863 H1858 0.950 . S
C1863 C1865 1.327 . S
C1863 C1869 1.429 . S
C1864 C1856 1.574 . S
C1864 H1859 0.949 . S
C1864 C1870 1.368 . S
C1865 C1849 1.349 . S
C1865 H1857 0.950 . S
C1865 C1863 1.327 . S
C1866 C1854 1.349 . S
C1866 H1860 0.950 . S
C1866 C1867 1.327 . S
C1867 H1861 0.950 . S
C1867 C1866 1.327 . S
C1867 C1871 1.429 . S
C1868 C1851 1.574 . S
C1868 H1862 0.949 . S
C1868 C1872 1.368 . S
C1869 C1850 1.429 . S
C1869 C1863 1.429 . S
C1869 C1870 1.523 . S
C1870 C1851 1.368 . S
C1870 C1864 1.368 . S
C1870 C1869 1.523 . S
C1871 C1855 1.429 . S
C1871 C1867 1.429 . S
C1871 C1872 1.523 . S
C1872 C1856 1.368 . S
C1872 C1868 1.368 . S
C1872 C1871 1.523 . S
H1873 C1848 0.950 . S
H1874 C1850 0.950 . S
H1875 C1851 0.949 . S
H1876 C1853 0.950 . S
H1877 C1855 0.950 . S
C1878 C1879 1.349 . S
C1878 C1880 1.327 . S
C1878 H1903 0.950 . S
C1879 C1878 1.349 . S
C1879 C1895 1.349 . S
C1880 C1878 1.327 . S
C1880 C1899 1.429 . S
C1880 H1904 0.950 . S
C1881 C1898 1.574 . S
C1881 C1900 1.368 . S
C1881 H1905 0.949 . S
H1882 C1886 0.949 . S
C1883 C1884 1.349 . S
C1883 C1885 1.327 . S
C1883 H1906 0.950 . S
C1884 C1883 1.349 . S
C1884 C1896 1.349 . S
C1885 C1883 1.327 . S
C1885 C1901 1.429 . S
C1885 H1907 0.950 . S
C1886 H1882 0.949 . S
C1886 C1894 1.574 . S
C1886 C1902 1.368 . S
H1887 C1895 0.950 . S
H1888 C1893 0.950 . S
H1889 C1894 0.949 . S
H1890 C1896 0.950 . S
H1891 C1897 0.950 . S
H1892 C1898 0.949 . S
C1893 H1888 0.950 . S
C1893 C1895 1.327 . S
C1893 C1899 1.429 . S
C1894 C1886 1.574 . S
C1894 H1889 0.949 . S
C1894 C1900 1.368 . S
C1895 C1879 1.349 . S
C1895 H1887 0.950 . S
C1895 C1893 1.327 . S
C1896 C1884 1.349 . S
C1896 H1890 0.950 . S
C1896 C1897 1.327 . S
C1897 H1891 0.950 . S
C1897 C1896 1.327 . S
C1897 C1901 1.429 . S
C1898 C1881 1.574 . S
C1898 H1892 0.949 . S
C1898 C1902 1.368 . S
C1899 C1880 1.429 . S
C1899 C1893 1.429 . S
C1899 C1900 1.523 . S
C1900 C1881 1.368 . S
C1900 C1894 1.368 . S
C1900 C1899 1.523 . S
C1901 C1885 1.429 . S
C1901 C1897 1.429 . S
C1901 C1902 1.523 . S
C1902 C1886 1.368 . S
C1902 C1898 1.368 . S
C1902 C1901 1.523 . S
H1903 C1878 0.950 . S
H1904 C1880 0.950 . S
H1905 C1881 0.949 . S
H1906 C1883 0.950 . S
H1907 C1885 0.950 . S
C1908 C1909 1.349 . S
C1908 C1910 1.327 . S
C1908 H1933 0.950 . S
C1909 C1908 1.349 . S
C1909 C1925 1.349 . S
C1910 C1908 1.327 . S
C1910 C1929 1.429 . S
C1910 H1934 0.950 . S
C1911 C1928 1.574 . S
C1911 C1930 1.368 . S
C1911 H1935 0.949 . S
H1912 C1916 0.949 . S
C1913 C1914 1.349 . S
C1913 C1915 1.327 . S
C1913 H1936 0.950 . S
C1914 C1913 1.349 . S
C1914 C1926 1.349 . S
C1915 C1913 1.327 . S
C1915 C1931 1.429 . S
C1915 H1937 0.950 . S
C1916 H1912 0.949 . S
C1916 C1924 1.574 . S
C1916 C1932 1.368 . S
H1917 C1925 0.950 . S
H1918 C1923 0.950 . S
H1919 C1924 0.949 . S
H1920 C1926 0.950 . S
H1921 C1927 0.950 . S
H1922 C1928 0.949 . S
C1923 H1918 0.950 . S
C1923 C1925 1.327 . S
C1923 C1929 1.429 . S
C1924 C1916 1.574 . S
C1924 H1919 0.949 . S
C1924 C1930 1.368 . S
C1925 C1909 1.349 . S
C1925 H1917 0.950 . S
C1925 C1923 1.327 . S
C1926 C1914 1.349 . S
C1926 H1920 0.950 . S
C1926 C1927 1.327 . S
C1927 H1921 0.950 . S
C1927 C1926 1.327 . S
C1927 C1931 1.429 . S
C1928 C1911 1.574 . S
C1928 H1922 0.949 . S
C1928 C1932 1.368 . S
C1929 C1910 1.429 . S
C1929 C1923 1.429 . S
C1929 C1930 1.523 . S
C1930 C1911 1.368 . S
C1930 C1924 1.368 . S
C1930 C1929 1.523 . S
C1931 C1915 1.429 . S
C1931 C1927 1.429 . S
C1931 C1932 1.523 . S
C1932 C1916 1.368 . S
C1932 C1928 1.368 . S
C1932 C1931 1.523 . S
H1933 C1908 0.950 . S
H1934 C1910 0.950 . S
H1935 C1911 0.949 . S
H1936 C1913 0.950 . S
H1937 C1915 0.950 . S
C1938 C1939 1.349 . S
C1938 C1940 1.327 . S
C1938 H1963 0.950 . S
C1939 C1938 1.349 . S
C1939 C1955 1.349 . S
C1940 C1938 1.327 . S
C1940 C1959 1.429 . S
C1940 H1964 0.950 . S
C1941 C1958 1.574 . S
C1941 C1960 1.368 . S
C1941 H1965 0.949 . S
H1942 C1946 0.949 . S
C1943 C1944 1.349 . S
C1943 C1945 1.327 . S
C1943 H1966 0.950 . S
C1944 C1943 1.349 . S
C1944 C1956 1.349 . S
C1945 C1943 1.327 . S
C1945 C1961 1.429 . S
C1945 H1967 0.950 . S
C1946 H1942 0.949 . S
C1946 C1954 1.574 . S
C1946 C1962 1.368 . S
H1947 C1955 0.950 . S
H1948 C1953 0.950 . S
H1949 C1954 0.949 . S
H1950 C1956 0.950 . S
H1951 C1957 0.950 . S
H1952 C1958 0.949 . S
C1953 H1948 0.950 . S
C1953 C1955 1.327 . S
C1953 C1959 1.429 . S
C1954 C1946 1.574 . S
C1954 H1949 0.949 . S
C1954 C1960 1.368 . S
C1955 C1939 1.349 . S
C1955 H1947 0.950 . S
C1955 C1953 1.327 . S
C1956 C1944 1.349 . S
C1956 H1950 0.950 . S
C1956 C1957 1.327 . S
C1957 H1951 0.950 . S
C1957 C1956 1.327 . S
C1957 C1961 1.429 . S
C1958 C1941 1.574 . S
C1958 H1952 0.949 . S
C1958 C1962 1.368 . S
C1959 C1940 1.429 . S
C1959 C1953 1.429 . S
C1959 C1960 1.523 . S
C1960 C1941 1.368 . S
C1960 C1954 1.368 . S
C1960 C1959 1.523 . S
C1961 C1945 1.429 . S
C1961 C1957 1.429 . S
C1961 C1962 1.523 . S
C1962 C1946 1.368 . S
C1962 C1958 1.368 . S
C1962 C1961 1.523 . S
H1963 C1938 0.950 . S
H1964 C1940 0.950 . S
H1965 C1941 0.949 . S
H1966 C1943 0.950 . S
H1967 C1945 0.950 . S
C1968 C1969 1.349 . S
C1968 C1970 1.327 . S
C1968 H1993 0.950 . S
C1969 C1968 1.349 . S
C1969 C1985 1.349 . S
C1970 C1968 1.327 . S
C1970 C1989 1.429 . S
C1970 H1994 0.950 . S
C1971 C1988 1.574 . S
C1971 C1990 1.368 . S
C1971 H1995 0.949 . S
H1972 C1976 0.949 . S
C1973 C1974 1.349 . S
C1973 C1975 1.327 . S
C1973 H1996 0.950 . S
C1974 C1973 1.349 . S
C1974 C1986 1.349 . S
C1975 C1973 1.327 . S
C1975 C1991 1.429 . S
C1975 H1997 0.950 . S
C1976 H1972 0.949 . S
C1976 C1984 1.574 . S
C1976 C1992 1.368 . S
H1977 C1985 0.950 1_565 S
H1978 C1983 0.957 1_565 S
H1979 C1984 0.949 . S
H1980 C1986 0.950 . S
H1981 C1987 0.950 . S
H1982 C1988 0.949 . S
C1983 H1978 0.957 1_545 S
C1983 C1985 1.327 . S
C1983 C1989 1.429 . S
C1984 C1976 1.574 . S
C1984 H1979 0.949 . S
C1984 C1990 1.368 . S
C1985 C1969 1.349 . S
C1985 H1977 0.950 1_545 S
C1985 C1983 1.327 . S
C1986 C1974 1.349 . S
C1986 H1980 0.950 . S
C1986 C1987 1.327 . S
C1987 H1981 0.950 . S
C1987 C1986 1.327 . S
C1987 C1991 1.429 . S
C1988 C1971 1.574 . S
C1988 H1982 0.949 . S
C1988 C1992 1.368 . S
C1989 C1970 1.429 . S
C1989 C1983 1.429 . S
C1989 C1990 1.523 . S
C1990 C1971 1.368 . S
C1990 C1984 1.368 . S
C1990 C1989 1.523 . S
C1991 C1975 1.429 . S
C1991 C1987 1.429 . S
C1991 C1992 1.523 . S
C1992 C1976 1.368 . S
C1992 C1988 1.368 . S
C1992 C1991 1.523 . S
H1993 C1968 0.950 . S
H1994 C1970 0.950 . S
H1995 C1971 0.949 . S
H1996 C1973 0.950 . S
H1997 C1975 0.950 . S
C1998 C1999 1.349 . S
C1998 C2000 1.327 . S
C1998 H2023 0.950 . S
C1999 C1998 1.349 . S
C1999 C2015 1.349 . S
C2000 C1998 1.327 . S
C2000 C2019 1.429 . S
C2000 H2024 0.950 . S
C2001 C2018 1.574 . S
C2001 C2020 1.368 . S
C2001 H2025 0.949 . S
H2002 C2006 0.949 . S
C2003 C2004 1.349 . S
C2003 C2005 1.327 . S
C2003 H2026 0.950 . S
C2004 C2003 1.349 . S
C2004 C2016 1.349 . S
C2005 C2003 1.327 . S
C2005 C2021 1.429 . S
C2005 H2027 0.950 . S
C2006 H2002 0.949 . S
C2006 C2014 1.574 . S
C2006 C2022 1.368 . S
H2007 C2015 0.950 . S
H2008 C2013 0.950 . S
H2009 C2014 0.949 . S
H2010 C2016 0.950 . S
H2011 C2017 0.950 . S
H2012 C2018 0.949 . S
C2013 H2008 0.950 . S
C2013 C2015 1.327 . S
C2013 C2019 1.429 . S
C2014 C2006 1.574 . S
C2014 H2009 0.949 . S
C2014 C2020 1.368 . S
C2015 C1999 1.349 . S
C2015 H2007 0.950 . S
C2015 C2013 1.327 . S
C2016 C2004 1.349 . S
C2016 H2010 0.950 . S
C2016 C2017 1.327 . S
C2017 H2011 0.950 . S
C2017 C2016 1.327 . S
C2017 C2021 1.429 . S
C2018 C2001 1.574 . S
C2018 H2012 0.949 . S
C2018 C2022 1.368 . S
C2019 C2000 1.429 . S
C2019 C2013 1.429 . S
C2019 C2020 1.523 . S
C2020 C2001 1.368 . S
C2020 C2014 1.368 . S
C2020 C2019 1.523 . S
C2021 C2005 1.429 . S
C2021 C2017 1.429 . S
C2021 C2022 1.523 . S
C2022 C2006 1.368 . S
C2022 C2018 1.368 . S
C2022 C2021 1.523 . S
H2023 C1998 0.950 . S
H2024 C2000 0.950 . S
H2025 C2001 0.949 . S
H2026 C2003 0.950 . S
H2027 C2005 0.950 . S
C2028 C2029 1.349 . S
C2028 C2030 1.327 . S
C2028 H2053 0.950 . S
C2029 C2028 1.349 . S
C2029 C2045 1.349 . S
C2030 C2028 1.327 . S
C2030 C2049 1.429 . S
C2030 H2054 0.983 . S
C2031 C2048 1.574 . S
C2031 C2050 1.368 . S
C2031 H2055 0.949 . S
H2032 C2036 0.949 1_655 S
C2033 C2034 1.349 . S
C2033 C2035 1.327 . S
C2033 H2056 0.950 . S
C2034 C2033 1.349 . S
C2034 C2046 1.349 . S
C2035 C2033 1.327 . S
C2035 C2051 1.429 . S
C2035 H2057 0.950 . S
C2036 H2032 0.949 1_455 S
C2036 C2044 1.574 . S
C2036 C2052 1.368 . S
H2037 C2045 0.950 . S
H2038 C2043 0.950 . S
H2039 C2044 0.949 1_655 S
H2040 C2046 0.950 1_655 S
H2041 C2047 0.950 1_655 S
H2042 C2048 0.949 . S
C2043 H2038 0.950 . S
C2043 C2045 1.327 . S
C2043 C2049 1.429 . S
C2044 C2036 1.574 . S
C2044 H2039 0.949 1_455 S
C2044 C2050 1.368 . S
C2045 C2029 1.349 . S
C2045 H2037 0.950 . S
C2045 C2043 1.327 . S
C2046 C2034 1.349 . S
C2046 H2040 0.950 1_455 S
C2046 C2047 1.327 . S
C2047 H2041 0.950 1_455 S
C2047 C2046 1.327 . S
C2047 C2051 1.429 . S
C2048 C2031 1.574 . S
C2048 H2042 0.949 . S
C2048 C2052 1.368 . S
C2049 C2030 1.429 . S
C2049 C2043 1.429 . S
C2049 C2050 1.523 . S
C2050 C2031 1.368 . S
C2050 C2044 1.368 . S
C2050 C2049 1.523 . S
C2051 C2035 1.429 . S
C2051 C2047 1.429 . S
C2051 C2052 1.523 . S
C2052 C2036 1.368 . S
C2052 C2048 1.368 . S
C2052 C2051 1.523 . S
H2053 C2028 0.950 . S
H2054 C2030 0.983 . S
H2055 C2031 0.949 . S
H2056 C2033 0.950 . S
H2057 C2035 0.950 . S
C2058 C2059 1.349 . S
C2058 C2060 1.327 . S
C2058 H2083 0.950 . S
C2059 C2058 1.349 . S
C2059 C2075 1.349 . S
C2060 C2058 1.327 . S
C2060 C2079 1.429 . S
C2060 H2084 0.950 . S
C2061 C2078 1.574 . S
C2061 C2080 1.368 . S
C2061 H2085 0.949 . S
H2062 C2066 0.949 . S
C2063 C2064 1.349 . S
C2063 C2065 1.327 . S
C2063 H2086 0.950 . S
C2064 C2063 1.349 . S
C2064 C2076 1.349 . S
C2065 C2063 1.327 . S
C2065 C2081 1.429 . S
C2065 H2087 0.950 . S
C2066 H2062 0.949 . S
C2066 C2074 1.574 . S
C2066 C2082 1.368 . S
H2067 C2075 0.950 . S
H2068 C2073 0.950 . S
H2069 C2074 0.949 . S
H2070 C2076 0.950 . S
H2071 C2077 0.950 . S
H2072 C2078 0.949 . S
C2073 H2068 0.950 . S
C2073 C2075 1.327 . S
C2073 C2079 1.429 . S
C2074 C2066 1.574 . S
C2074 H2069 0.949 . S
C2074 C2080 1.368 . S
C2075 C2059 1.349 . S
C2075 H2067 0.950 . S
C2075 C2073 1.327 . S
C2076 C2064 1.349 . S
C2076 H2070 0.950 . S
C2076 C2077 1.327 . S
C2077 H2071 0.950 . S
C2077 C2076 1.327 . S
C2077 C2081 1.429 . S
C2078 C2061 1.574 . S
C2078 H2072 0.949 . S
C2078 C2082 1.368 . S
C2079 C2060 1.429 . S
C2079 C2073 1.429 . S
C2079 C2080 1.523 . S
C2080 C2061 1.368 . S
C2080 C2074 1.368 . S
C2080 C2079 1.523 . S
C2081 C2065 1.429 . S
C2081 C2077 1.429 . S
C2081 C2082 1.523 . S
C2082 C2066 1.368 . S
C2082 C2078 1.368 . S
C2082 C2081 1.523 . S
H2083 C2058 0.950 . S
H2084 C2060 0.950 . S
H2085 C2061 0.949 . S
H2086 C2063 0.950 . S
H2087 C2065 0.950 . S
C2088 C2089 1.349 . S
C2088 C2090 1.327 . S
C2088 H2113 0.950 . S
C2089 C2088 1.349 . S
C2089 C2105 1.349 . S
C2090 C2088 1.327 . S
C2090 C2109 1.429 . S
C2090 H2114 0.950 . S
C2091 C2108 1.574 . S
C2091 C2110 1.368 . S
C2091 H2115 0.949 . S
H2092 C2096 0.949 . S
C2093 C2094 1.349 . S
C2093 C2095 1.327 . S
C2093 H2116 0.950 . S
C2094 C2093 1.349 . S
C2094 C2106 1.349 . S
C2095 C2093 1.327 . S
C2095 C2111 1.429 . S
C2095 H2117 0.950 . S
C2096 H2092 0.949 . S
C2096 C2104 1.574 . S
C2096 C2112 1.368 . S
H2097 C2105 0.950 . S
H2098 C2103 0.950 . S
H2099 C2104 0.949 . S
H2100 C2106 0.950 . S
H2101 C2107 0.950 . S
H2102 C2108 0.949 . S
C2103 H2098 0.950 . S
C2103 C2105 1.327 . S
C2103 C2109 1.429 . S
C2104 C2096 1.574 . S
C2104 H2099 0.949 . S
C2104 C2110 1.368 . S
C2105 C2089 1.349 . S
C2105 H2097 0.950 . S
C2105 C2103 1.327 . S
C2106 C2094 1.349 . S
C2106 H2100 0.950 . S
C2106 C2107 1.327 . S
C2107 H2101 0.950 . S
C2107 C2106 1.327 . S
C2107 C2111 1.429 . S
C2108 C2091 1.574 . S
C2108 H2102 0.949 . S
C2108 C2112 1.368 . S
C2109 C2090 1.429 . S
C2109 C2103 1.429 . S
C2109 C2110 1.523 . S
C2110 C2091 1.368 . S
C2110 C2104 1.368 . S
C2110 C2109 1.523 . S
C2111 C2095 1.429 . S
C2111 C2107 1.429 . S
C2111 C2112 1.523 . S
C2112 C2096 1.368 . S
C2112 C2108 1.368 . S
C2112 C2111 1.523 . S
H2113 C2088 0.950 . S
H2114 C2090 0.950 . S
H2115 C2091 0.949 . S
H2116 C2093 0.950 . S
H2117 C2095 0.950 . S
C2118 C2119 1.349 . S
C2118 C2120 1.327 . S
C2118 H2143 0.950 . S
C2119 C2118 1.349 . S
C2119 C2135 1.349 . S
C2120 C2118 1.327 . S
C2120 C2139 1.429 . S
C2120 H2144 0.950 . S
C2121 C2138 1.574 . S
C2121 C2140 1.368 . S
C2121 H2145 0.949 . S
H2122 C2126 0.949 . S
C2123 C2124 1.349 . S
C2123 C2125 1.327 . S
C2123 H2146 0.950 . S
C2124 C2123 1.349 . S
C2124 C2136 1.349 . S
C2125 C2123 1.327 . S
C2125 C2141 1.429 . S
C2125 H2147 0.950 . S
C2126 H2122 0.949 . S
C2126 C2134 1.574 . S
C2126 C2142 1.368 . S
H2127 C2135 0.950 . S
H2128 C2133 0.950 . S
H2129 C2134 0.949 . S
H2130 C2136 0.950 . S
H2131 C2137 0.950 . S
H2132 C2138 0.949 . S
C2133 H2128 0.950 . S
C2133 C2135 1.327 . S
C2133 C2139 1.429 . S
C2134 C2126 1.574 . S
C2134 H2129 0.949 . S
C2134 C2140 1.368 . S
C2135 C2119 1.349 . S
C2135 H2127 0.950 . S
C2135 C2133 1.327 . S
C2136 C2124 1.349 . S
C2136 H2130 0.950 . S
C2136 C2137 1.327 . S
C2137 H2131 0.950 . S
C2137 C2136 1.327 . S
C2137 C2141 1.429 . S
C2138 C2121 1.574 . S
C2138 H2132 0.949 . S
C2138 C2142 1.368 . S
C2139 C2120 1.429 . S
C2139 C2133 1.429 . S
C2139 C2140 1.523 . S
C2140 C2121 1.368 . S
C2140 C2134 1.368 . S
C2140 C2139 1.523 . S
C2141 C2125 1.429 . S
C2141 C2137 1.429 . S
C2141 C2142 1.523 . S
C2142 C2126 1.368 . S
C2142 C2138 1.368 . S
C2142 C2141 1.523 . S
H2143 C2118 0.950 . S
H2144 C2120 0.950 . S
H2145 C2121 0.949 . S
H2146 C2123 0.950 . S
H2147 C2125 0.950 . S
C2148 C2149 1.349 . S
C2148 C2150 1.327 . S
C2148 H2173 0.950 . S
C2149 C2148 1.349 . S
C2149 C2165 1.349 . S
C2150 C2148 1.327 . S
C2150 C2169 1.429 . S
C2150 H2174 0.950 . S
C2151 C2168 1.574 . S
C2151 C2170 1.368 . S
C2151 H2175 0.949 . S
H2152 C2156 0.949 . S
C2153 C2154 1.349 . S
C2153 C2155 1.327 . S
C2153 H2176 0.950 . S
C2154 C2153 1.349 . S
C2154 C2166 1.349 . S
C2155 C2153 1.327 . S
C2155 C2171 1.429 . S
C2155 H2177 0.950 . S
C2156 H2152 0.949 . S
C2156 C2164 1.574 . S
C2156 C2172 1.368 . S
H2157 C2165 0.950 . S
H2158 C2163 0.950 . S
H2159 C2164 0.949 . S
H2160 C2166 0.950 . S
H2161 C2167 0.950 . S
H2162 C2168 0.949 . S
C2163 H2158 0.950 . S
C2163 C2165 1.327 . S
C2163 C2169 1.429 . S
C2164 C2156 1.574 . S
C2164 H2159 0.949 . S
C2164 C2170 1.368 . S
C2165 C2149 1.349 . S
C2165 H2157 0.950 . S
C2165 C2163 1.327 . S
C2166 C2154 1.349 . S
C2166 H2160 0.950 . S
C2166 C2167 1.327 . S
C2167 H2161 0.950 . S
C2167 C2166 1.327 . S
C2167 C2171 1.429 . S
C2168 C2151 1.574 . S
C2168 H2162 0.949 . S
C2168 C2172 1.368 . S
C2169 C2150 1.429 . S
C2169 C2163 1.429 . S
C2169 C2170 1.523 . S
C2170 C2151 1.368 . S
C2170 C2164 1.368 . S
C2170 C2169 1.523 . S
C2171 C2155 1.429 . S
C2171 C2167 1.429 . S
C2171 C2172 1.523 . S
C2172 C2156 1.368 . S
C2172 C2168 1.368 . S
C2172 C2171 1.523 . S
H2173 C2148 0.950 . S
H2174 C2150 0.950 . S
H2175 C2151 0.949 . S
H2176 C2153 0.950 . S
H2177 C2155 0.950 . S
C2178 C2179 1.349 . S
C2178 C2180 1.327 . S
C2178 H2203 0.950 . S
C2179 C2178 1.349 . S
C2179 C2195 1.349 . S
C2180 C2178 1.327 . S
C2180 C2199 1.429 . S
C2180 H2204 0.950 . S
C2181 C2198 1.574 . S
C2181 C2200 1.368 . S
C2181 H2205 0.949 . S
H2182 C2186 0.949 . S
C2183 C2184 1.349 . S
C2183 C2185 1.327 . S
C2183 H2206 0.950 . S
C2184 C2183 1.349 . S
C2184 C2196 1.349 . S
C2185 C2183 1.327 . S
C2185 C2201 1.429 . S
C2185 H2207 0.950 1_554 S
C2186 H2182 0.949 . S
C2186 C2194 1.574 . S
C2186 C2202 1.368 . S
H2187 C2195 0.950 . S
H2188 C2193 0.950 . S
H2189 C2194 0.949 . S
H2190 C2196 0.950 . S
H2191 C2197 0.950 . S
H2192 C2198 0.949 . S
C2193 H2188 0.950 . S
C2193 C2195 1.327 . S
C2193 C2199 1.429 . S
C2194 C2186 1.574 . S
C2194 H2189 0.949 . S
C2194 C2200 1.368 . S
C2195 C2179 1.349 . S
C2195 H2187 0.950 . S
C2195 C2193 1.327 . S
C2196 C2184 1.349 . S
C2196 H2190 0.950 . S
C2196 C2197 1.327 . S
C2197 H2191 0.950 . S
C2197 C2196 1.327 . S
C2197 C2201 1.429 . S
C2198 C2181 1.574 . S
C2198 H2192 0.949 . S
C2198 C2202 1.368 . S
C2199 C2180 1.429 . S
C2199 C2193 1.429 . S
C2199 C2200 1.523 . S
C2200 C2181 1.368 . S
C2200 C2194 1.368 . S
C2200 C2199 1.523 . S
C2201 C2185 1.429 . S
C2201 C2197 1.429 . S
C2201 C2202 1.523 1_554 S
C2202 C2186 1.368 . S
C2202 C2198 1.368 . S
C2202 C2201 1.523 1_556 S
H2203 C2178 0.950 . S
H2204 C2180 0.950 . S
H2205 C2181 0.949 . S
H2206 C2183 0.950 . S
H2207 C2185 0.950 1_556 S
C2208 C2209 1.349 . S
C2208 C2210 1.327 . S
C2208 H2233 0.950 . S
C2209 C2208 1.349 . S
C2209 C2225 1.349 . S
C2210 C2208 1.327 . S
C2210 C2229 1.429 . S
C2210 H2234 0.950 . S
C2211 C2228 1.574 . S
C2211 C2230 1.368 . S
C2211 H2235 0.949 . S
H2212 C2216 0.949 . S
C2213 C2214 1.349 . S
C2213 C2215 1.327 . S
C2213 H2236 0.950 . S
C2214 C2213 1.349 . S
C2214 C2226 1.349 . S
C2215 C2213 1.327 . S
C2215 C2231 1.429 1_554 S
C2215 H2237 0.950 . S
C2216 H2212 0.949 . S
C2216 C2224 1.574 . S
C2216 C2232 1.368 . S
H2217 C2225 0.950 . S
H2218 C2223 0.950 . S
H2219 C2224 0.949 . S
H2220 C2226 0.950 . S
H2221 C2227 0.950 . S
H2222 C2228 0.949 . S
C2223 H2218 0.950 . S
C2223 C2225 1.327 . S
C2223 C2229 1.429 . S
C2224 C2216 1.574 . S
C2224 H2219 0.949 . S
C2224 C2230 1.368 . S
C2225 C2209 1.349 . S
C2225 H2217 0.950 . S
C2225 C2223 1.327 . S
C2226 C2214 1.349 . S
C2226 H2220 0.950 . S
C2226 C2227 1.327 1_554 S
C2227 H2221 0.950 . S
C2227 C2226 1.327 1_556 S
C2227 C2231 1.429 . S
C2228 C2211 1.574 . S
C2228 H2222 0.949 . S
C2228 C2232 1.368 . S
C2229 C2210 1.429 . S
C2229 C2223 1.429 . S
C2229 C2230 1.523 . S
C2230 C2211 1.368 . S
C2230 C2224 1.368 . S
C2230 C2229 1.523 . S
C2231 C2215 1.429 1_556 S
C2231 C2227 1.429 . S
C2231 C2232 1.523 . S
C2232 C2216 1.368 . S
C2232 C2228 1.368 . S
C2232 C2231 1.523 . S
H2233 C2208 0.950 . S
H2234 C2210 0.950 . S
H2235 C2211 0.949 . S
H2236 C2213 0.950 . S
H2237 C2215 0.950 . S
C2238 C2239 1.349 . S
C2238 C2240 1.327 . S
C2238 H2263 0.950 . S
C2239 C2238 1.349 . S
C2239 C2255 1.349 . S
C2240 C2238 1.327 . S
C2240 C2259 1.429 . S
C2240 H2264 0.950 . S
C2241 C2258 1.574 . S
C2241 C2260 1.368 . S
C2241 H2265 0.949 . S
H2242 C2246 0.949 . S
C2243 C2244 1.349 . S
C2243 C2245 1.327 . S
C2243 H2266 0.950 . S
C2244 C2243 1.349 . S
C2244 C2256 1.349 . S
C2245 C2243 1.327 . S
C2245 C2261 1.429 . S
C2245 H2267 0.950 . S
C2246 H2242 0.949 . S
C2246 C2254 1.574 . S
C2246 C2262 1.368 . S
H2247 C2255 0.950 . S
H2248 C2253 0.950 . S
H2249 C2254 0.949 . S
H2250 C2256 0.950 . S
H2251 C2257 0.950 . S
H2252 C2258 0.949 . S
C2253 H2248 0.950 . S
C2253 C2255 1.327 . S
C2253 C2259 1.429 . S
C2254 C2246 1.574 . S
C2254 H2249 0.949 . S
C2254 C2260 1.368 . S
C2255 C2239 1.349 . S
C2255 H2247 0.950 . S
C2255 C2253 1.327 . S
C2256 C2244 1.349 . S
C2256 H2250 0.950 . S
C2256 C2257 1.327 . S
C2257 H2251 0.950 . S
C2257 C2256 1.327 . S
C2257 C2261 1.429 . S
C2258 C2241 1.574 . S
C2258 H2252 0.949 . S
C2258 C2262 1.368 . S
C2259 C2240 1.429 . S
C2259 C2253 1.429 . S
C2259 C2260 1.523 . S
C2260 C2241 1.368 . S
C2260 C2254 1.368 . S
C2260 C2259 1.523 . S
C2261 C2245 1.429 . S
C2261 C2257 1.429 . S
C2261 C2262 1.523 1_554 S
C2262 C2246 1.368 . S
C2262 C2258 1.368 . S
C2262 C2261 1.523 1_556 S
H2263 C2238 0.950 . S
H2264 C2240 0.950 . S
H2265 C2241 0.949 . S
H2266 C2243 0.950 . S
H2267 C2245 0.950 . S
C2268 C2269 1.349 . S
C2268 C2270 1.327 . S
C2268 H2293 0.950 . S
C2269 C2268 1.349 . S
C2269 C2285 1.349 . S
C2270 C2268 1.327 . S
C2270 C2289 1.429 . S
C2270 H2294 0.950 . S
C2271 C2288 1.574 . S
C2271 C2290 1.368 . S
C2271 H2295 0.949 . S
H2272 C2276 0.949 . S
C2273 C2274 1.349 . S
C2273 C2275 1.327 . S
C2273 H2296 0.950 . S
C2274 C2273 1.349 . S
C2274 C2286 1.349 . S
C2275 C2273 1.327 . S
C2275 C2291 1.429 . S
C2275 H2297 0.950 . S
C2276 H2272 0.949 . S
C2276 C2284 1.574 . S
C2276 C2292 1.368 . S
H2277 C2285 0.950 . S
H2278 C2283 0.950 . S
H2279 C2284 0.949 . S
H2280 C2286 0.950 . S
H2281 C2287 0.950 . S
H2282 C2288 0.949 . S
C2283 H2278 0.950 . S
C2283 C2285 1.327 . S
C2283 C2289 1.429 . S
C2284 C2276 1.574 . S
C2284 H2279 0.949 . S
C2284 C2290 1.368 . S
C2285 C2269 1.349 . S
C2285 H2277 0.950 . S
C2285 C2283 1.327 . S
C2286 C2274 1.349 . S
C2286 H2280 0.950 . S
C2286 C2287 1.327 . S
C2287 H2281 0.950 . S
C2287 C2286 1.327 . S
C2287 C2291 1.429 . S
C2288 C2271 1.574 . S
C2288 H2282 0.949 . S
C2288 C2292 1.368 . S
C2289 C2270 1.429 . S
C2289 C2283 1.429 . S
C2289 C2290 1.523 . S
C2290 C2271 1.368 . S
C2290 C2284 1.368 . S
C2290 C2289 1.523 . S
C2291 C2275 1.429 . S
C2291 C2287 1.429 . S
C2291 C2292 1.523 . S
C2292 C2276 1.368 . S
C2292 C2288 1.368 . S
C2292 C2291 1.523 . S
H2293 C2268 0.950 . S
H2294 C2270 0.950 . S
H2295 C2271 0.949 . S
H2296 C2273 0.950 . S
H2297 C2275 0.950 . S
C2298 C2299 1.349 . S
C2298 C2300 1.327 . S
C2298 H2323 0.950 . S
C2299 C2298 1.349 . S
C2299 C2315 1.349 . S
C2300 C2298 1.327 . S
C2300 C2319 1.429 . S
C2300 H2324 0.950 . S
C2301 C2318 1.574 . S
C2301 C2320 1.368 . S
C2301 H2325 0.949 . S
H2302 C2306 0.949 . S
C2303 C2304 1.349 . S
C2303 C2305 1.327 . S
C2303 H2326 0.950 . S
C2304 C2303 1.349 . S
C2304 C2316 1.349 . S
C2305 C2303 1.327 . S
C2305 C2321 1.429 . S
C2305 H2327 0.950 . S
C2306 H2302 0.949 . S
C2306 C2314 1.574 . S
C2306 C2322 1.368 . S
H2307 C2315 0.950 . S
H2308 C2313 0.950 . S
H2309 C2314 0.949 . S
H2310 C2316 0.950 . S
H2311 C2317 0.950 . S
H2312 C2318 0.949 . S
C2313 H2308 0.950 . S
C2313 C2315 1.327 . S
C2313 C2319 1.429 . S
C2314 C2306 1.574 . S
C2314 H2309 0.949 . S
C2314 C2320 1.368 . S
C2315 C2299 1.349 . S
C2315 H2307 0.950 . S
C2315 C2313 1.327 . S
C2316 C2304 1.349 . S
C2316 H2310 0.950 . S
C2316 C2317 1.327 . S
C2317 H2311 0.950 . S
C2317 C2316 1.327 . S
C2317 C2321 1.429 . S
C2318 C2301 1.574 . S
C2318 H2312 0.949 . S
C2318 C2322 1.368 . S
C2319 C2300 1.429 . S
C2319 C2313 1.429 . S
C2319 C2320 1.523 . S
C2320 C2301 1.368 . S
C2320 C2314 1.368 . S
C2320 C2319 1.523 . S
C2321 C2305 1.429 . S
C2321 C2317 1.429 . S
C2321 C2322 1.523 . S
C2322 C2306 1.368 . S
C2322 C2318 1.368 . S
C2322 C2321 1.523 . S
H2323 C2298 0.950 . S
H2324 C2300 0.950 . S
H2325 C2301 0.949 . S
H2326 C2303 0.950 . S
H2327 C2305 0.950 . S
C2328 C2329 1.349 . S
C2328 C2330 1.327 . S
C2328 H2353 0.950 . S
C2329 C2328 1.349 . S
C2329 C2345 1.349 . S
C2330 C2328 1.327 . S
C2330 C2349 1.429 . S
C2330 H2354 0.950 . S
C2331 C2348 1.574 . S
C2331 C2350 1.368 . S
C2331 H2355 0.949 . S
H2332 C2336 0.949 . S
C2333 C2334 1.349 . S
C2333 C2335 1.327 . S
C2333 H2356 0.950 . S
C2334 C2333 1.349 . S
C2334 C2346 1.349 . S
C2335 C2333 1.327 . S
C2335 C2351 1.429 . S
C2335 H2357 0.950 . S
C2336 H2332 0.949 . S
C2336 C2344 1.574 . S
C2336 C2352 1.368 . S
H2337 C2345 0.950 . S
H2338 C2343 0.950 . S
H2339 C2344 0.949 . S
H2340 C2346 0.950 . S
H2341 C2347 0.950 . S
H2342 C2348 0.949 . S
C2343 H2338 0.950 . S
C2343 C2345 1.327 . S
C2343 C2349 1.429 . S
C2344 C2336 1.574 . S
C2344 H2339 0.949 . S
C2344 C2350 1.368 . S
C2345 C2329 1.349 . S
C2345 H2337 0.950 . S
C2345 C2343 1.327 . S
C2346 C2334 1.349 . S
C2346 H2340 0.950 . S
C2346 C2347 1.327 . S
C2347 H2341 0.950 . S
C2347 C2346 1.327 . S
C2347 C2351 1.429 . S
C2348 C2331 1.574 . S
C2348 H2342 0.949 . S
C2348 C2352 1.368 . S
C2349 C2330 1.429 . S
C2349 C2343 1.429 . S
C2349 C2350 1.523 . S
C2350 C2331 1.368 . S
C2350 C2344 1.368 . S
C2350 C2349 1.523 . S
C2351 C2335 1.429 . S
C2351 C2347 1.429 . S
C2351 C2352 1.523 . S
C2352 C2336 1.368 . S
C2352 C2348 1.368 . S
C2352 C2351 1.523 . S
H2353 C2328 0.950 . S
H2354 C2330 0.950 . S
H2355 C2331 0.949 . S
H2356 C2333 0.950 . S
H2357 C2335 0.950 . S
C2358 C2359 1.349 . S
C2358 C2360 1.327 . S
C2358 H2383 0.950 . S
C2359 C2358 1.349 . S
C2359 C2375 1.349 . S
C2360 C2358 1.327 . S
C2360 C2379 1.429 . S
C2360 H2384 0.950 . S
C2361 C2378 1.574 . S
C2361 C2380 1.368 . S
C2361 H2385 0.949 . S
H2362 C2366 0.949 . S
C2363 C2364 1.349 . S
C2363 C2365 1.327 . S
C2363 H2386 0.950 . S
C2364 C2363 1.349 . S
C2364 C2376 1.349 . S
C2365 C2363 1.327 . S
C2365 C2381 1.429 . S
C2365 H2387 0.950 . S
C2366 H2362 0.949 . S
C2366 C2374 1.574 . S
C2366 C2382 1.368 . S
H2367 C2375 0.950 . S
H2368 C2373 0.950 . S
H2369 C2374 0.949 . S
H2370 C2376 0.950 . S
H2371 C2377 0.950 . S
H2372 C2378 0.949 . S
C2373 H2368 0.950 . S
C2373 C2375 1.327 . S
C2373 C2379 1.429 . S
C2374 C2366 1.574 . S
C2374 H2369 0.949 . S
C2374 C2380 1.368 . S
C2375 C2359 1.349 . S
C2375 H2367 0.950 . S
C2375 C2373 1.327 . S
C2376 C2364 1.349 . S
C2376 H2370 0.950 . S
C2376 C2377 1.327 . S
C2377 H2371 0.950 . S
C2377 C2376 1.327 . S
C2377 C2381 1.429 . S
C2378 C2361 1.574 . S
C2378 H2372 0.949 . S
C2378 C2382 1.368 . S
C2379 C2360 1.429 . S
C2379 C2373 1.429 . S
C2379 C2380 1.523 . S
C2380 C2361 1.368 . S
C2380 C2374 1.368 . S
C2380 C2379 1.523 . S
C2381 C2365 1.429 . S
C2381 C2377 1.429 . S
C2381 C2382 1.523 . S
C2382 C2366 1.368 . S
C2382 C2378 1.368 . S
C2382 C2381 1.523 . S
H2383 C2358 0.950 . S
H2384 C2360 0.950 . S
H2385 C2361 0.949 . S
H2386 C2363 0.950 . S
H2387 C2365 0.950 . S
C2388 C2389 1.349 . S
C2388 C2390 1.327 . S
C2388 H2413 0.950 . S
C2389 C2388 1.349 . S
C2389 C2405 1.349 . S
C2390 C2388 1.327 . S
C2390 C2409 1.429 . S
C2390 H2414 0.950 . S
C2391 C2408 1.574 . S
C2391 C2410 1.368 . S
C2391 H2415 0.949 . S
H2392 C2396 0.949 . S
C2393 C2394 1.349 . S
C2393 C2395 1.327 . S
C2393 H2416 0.950 . S
C2394 C2393 1.349 . S
C2394 C2406 1.349 . S
C2395 C2393 1.327 . S
C2395 C2411 1.429 . S
C2395 H2417 0.950 . S
C2396 H2392 0.949 . S
C2396 C2404 1.574 . S
C2396 C2412 1.368 . S
H2397 C2405 0.950 . S
H2398 C2403 0.950 . S
H2399 C2404 0.949 . S
H2400 C2406 0.950 . S
H2401 C2407 0.950 . S
H2402 C2408 0.949 . S
C2403 H2398 0.950 . S
C2403 C2405 1.327 . S
C2403 C2409 1.429 . S
C2404 C2396 1.574 . S
C2404 H2399 0.949 . S
C2404 C2410 1.368 . S
C2405 C2389 1.349 . S
C2405 H2397 0.950 . S
C2405 C2403 1.327 . S
C2406 C2394 1.349 . S
C2406 H2400 0.950 . S
C2406 C2407 1.327 . S
C2407 H2401 0.950 . S
C2407 C2406 1.327 . S
C2407 C2411 1.429 . S
C2408 C2391 1.574 . S
C2408 H2402 0.949 . S
C2408 C2412 1.368 . S
C2409 C2390 1.429 . S
C2409 C2403 1.429 . S
C2409 C2410 1.523 . S
C2410 C2391 1.368 . S
C2410 C2404 1.368 . S
C2410 C2409 1.523 . S
C2411 C2395 1.429 . S
C2411 C2407 1.429 . S
C2411 C2412 1.523 . S
C2412 C2396 1.368 . S
C2412 C2408 1.368 . S
C2412 C2411 1.523 . S
H2413 C2388 0.950 . S
H2414 C2390 0.950 . S
H2415 C2391 0.949 . S
H2416 C2393 0.950 . S
H2417 C2395 0.950 . S
C2418 C2419 1.349 . S
C2418 C2420 1.327 . S
C2418 H2443 0.950 . S
C2419 C2418 1.349 . S
C2419 C2435 1.349 . S
C2420 C2418 1.327 . S
C2420 C2439 1.429 . S
C2420 H2444 0.950 . S
C2421 C2438 1.574 . S
C2421 C2440 1.368 . S
C2421 H2445 0.949 . S
H2422 C2426 0.949 . S
C2423 C2424 1.349 . S
C2423 C2425 1.327 . S
C2423 H2446 0.950 . S
C2424 C2423 1.349 . S
C2424 C2436 1.349 . S
C2425 C2423 1.327 . S
C2425 C2441 1.429 . S
C2425 H2447 0.950 . S
C2426 H2422 0.949 . S
C2426 C2434 1.574 . S
C2426 C2442 1.368 . S
H2427 C2435 0.950 . S
H2428 C2433 0.950 . S
H2429 C2434 0.949 . S
H2430 C2436 0.950 . S
H2431 C2437 0.950 . S
H2432 C2438 0.949 . S
C2433 H2428 0.950 . S
C2433 C2435 1.327 . S
C2433 C2439 1.429 . S
C2434 C2426 1.574 . S
C2434 H2429 0.949 . S
C2434 C2440 1.368 . S
C2435 C2419 1.349 . S
C2435 H2427 0.950 . S
C2435 C2433 1.327 . S
C2436 C2424 1.349 . S
C2436 H2430 0.950 . S
C2436 C2437 1.327 . S
C2437 H2431 0.950 . S
C2437 C2436 1.327 . S
C2437 C2441 1.429 . S
C2438 C2421 1.574 . S
C2438 H2432 0.949 . S
C2438 C2442 1.368 . S
C2439 C2420 1.429 . S
C2439 C2433 1.429 . S
C2439 C2440 1.523 . S
C2440 C2421 1.368 . S
C2440 C2434 1.368 . S
C2440 C2439 1.523 . S
C2441 C2425 1.429 . S
C2441 C2437 1.429 . S
C2441 C2442 1.523 . S
C2442 C2426 1.368 . S
C2442 C2438 1.368 . S
C2442 C2441 1.523 . S
H2443 C2418 0.950 . S
H2444 C2420 0.950 . S
H2445 C2421 0.949 . S
H2446 C2423 0.950 . S
H2447 C2425 0.950 . S
C2448 C2449 1.349 . S
C2448 C2450 1.327 . S
C2448 H2473 0.950 . S
C2449 C2448 1.349 . S
C2449 C2465 1.349 . S
C2450 C2448 1.327 . S
C2450 C2469 1.429 . S
C2450 H2474 0.950 . S
C2451 C2468 1.574 . S
C2451 C2470 1.368 . S
C2451 H2475 0.949 . S
H2452 C2456 0.949 . S
C2453 C2454 1.349 . S
C2453 C2455 1.327 . S
C2453 H2476 0.950 . S
C2454 C2453 1.349 . S
C2454 C2466 1.349 . S
C2455 C2453 1.327 . S
C2455 C2471 1.429 . S
C2455 H2477 0.950 . S
C2456 H2452 0.949 . S
C2456 C2464 1.574 . S
C2456 C2472 1.368 . S
H2457 C2465 0.950 . S
H2458 C2463 0.950 . S
H2459 C2464 0.949 . S
H2460 C2466 0.950 . S
H2461 C2467 0.950 . S
H2462 C2468 0.949 . S
C2463 H2458 0.950 . S
C2463 C2465 1.327 . S
C2463 C2469 1.429 . S
C2464 C2456 1.574 . S
C2464 H2459 0.949 . S
C2464 C2470 1.368 . S
C2465 C2449 1.349 . S
C2465 H2457 0.950 . S
C2465 C2463 1.327 . S
C2466 C2454 1.349 . S
C2466 H2460 0.950 . S
C2466 C2467 1.327 . S
C2467 H2461 0.950 . S
C2467 C2466 1.327 . S
C2467 C2471 1.429 . S
C2468 C2451 1.574 . S
C2468 H2462 0.949 . S
C2468 C2472 1.368 . S
C2469 C2450 1.429 . S
C2469 C2463 1.429 . S
C2469 C2470 1.523 . S
C2470 C2451 1.368 . S
C2470 C2464 1.368 . S
C2470 C2469 1.523 . S
C2471 C2455 1.429 . S
C2471 C2467 1.429 . S
C2471 C2472 1.523 . S
C2472 C2456 1.368 . S
C2472 C2468 1.368 . S
C2472 C2471 1.523 . S
H2473 C2448 0.950 . S
H2474 C2450 0.950 . S
H2475 C2451 0.949 . S
H2476 C2453 0.950 . S
H2477 C2455 0.950 . S
C2478 C2479 1.349 . S
C2478 C2480 1.327 . S
C2478 H2503 0.950 . S
C2479 C2478 1.349 . S
C2479 C2495 1.349 . S
C2480 C2478 1.327 . S
C2480 C2499 1.429 . S
C2480 H2504 0.950 . S
C2481 C2498 1.574 . S
C2481 C2500 1.368 . S
C2481 H2505 0.949 . S
H2482 C2486 0.949 . S
C2483 C2484 1.349 . S
C2483 C2485 1.327 . S
C2483 H2506 0.950 . S
C2484 C2483 1.349 . S
C2484 C2496 1.349 . S
C2485 C2483 1.327 . S
C2485 C2501 1.429 . S
C2485 H2507 0.950 . S
C2486 H2482 0.949 . S
C2486 C2494 1.574 . S
C2486 C2502 1.368 . S
H2487 C2495 0.950 . S
H2488 C2493 0.950 . S
H2489 C2494 0.949 . S
H2490 C2496 0.950 . S
H2491 C2497 0.950 . S
H2492 C2498 0.949 . S
C2493 H2488 0.950 . S
C2493 C2495 1.327 . S
C2493 C2499 1.429 . S
C2494 C2486 1.574 . S
C2494 H2489 0.949 . S
C2494 C2500 1.368 . S
C2495 C2479 1.349 . S
C2495 H2487 0.950 . S
C2495 C2493 1.327 . S
C2496 C2484 1.349 . S
C2496 H2490 0.950 . S
C2496 C2497 1.327 . S
C2497 H2491 0.950 . S
C2497 C2496 1.327 . S
C2497 C2501 1.429 . S
C2498 C2481 1.574 . S
C2498 H2492 0.949 . S
C2498 C2502 1.368 . S
C2499 C2480 1.429 . S
C2499 C2493 1.429 . S
C2499 C2500 1.523 . S
C2500 C2481 1.368 . S
C2500 C2494 1.368 . S
C2500 C2499 1.523 . S
C2501 C2485 1.429 . S
C2501 C2497 1.429 . S
C2501 C2502 1.523 . S
C2502 C2486 1.368 . S
C2502 C2498 1.368 . S
C2502 C2501 1.523 . S
H2503 C2478 0.950 . S
H2504 C2480 0.950 . S
H2505 C2481 0.949 . S
H2506 C2483 0.950 . S
H2507 C2485 0.950 . S
C2508 C2509 1.349 . S
C2508 C2510 1.327 . S
C2508 H2533 0.950 . S
C2509 C2508 1.349 . S
C2509 C2525 1.349 . S
C2510 C2508 1.327 . S
C2510 C2529 1.429 . S
C2510 H2534 0.950 . S
C2511 C2528 1.574 . S
C2511 C2530 1.368 . S
C2511 H2535 0.949 . S
H2512 C2516 0.949 . S
C2513 C2514 1.349 . S
C2513 C2515 1.327 . S
C2513 H2536 0.950 . S
C2514 C2513 1.349 . S
C2514 C2526 1.349 . S
C2515 C2513 1.327 . S
C2515 C2531 1.429 . S
C2515 H2537 0.950 . S
C2516 H2512 0.949 . S
C2516 C2524 1.574 . S
C2516 C2532 1.368 . S
H2517 C2525 0.950 . S
H2518 C2523 0.950 . S
H2519 C2524 0.949 . S
H2520 C2526 0.950 . S
H2521 C2527 0.950 . S
H2522 C2528 0.949 . S
C2523 H2518 0.950 . S
C2523 C2525 1.327 . S
C2523 C2529 1.429 . S
C2524 C2516 1.574 . S
C2524 H2519 0.949 . S
C2524 C2530 1.368 . S
C2525 C2509 1.349 . S
C2525 H2517 0.950 . S
C2525 C2523 1.327 . S
C2526 C2514 1.349 . S
C2526 H2520 0.950 . S
C2526 C2527 1.327 . S
C2527 H2521 0.950 . S
C2527 C2526 1.327 . S
C2527 C2531 1.429 . S
C2528 C2511 1.574 . S
C2528 H2522 0.949 . S
C2528 C2532 1.368 . S
C2529 C2510 1.429 . S
C2529 C2523 1.429 . S
C2529 C2530 1.523 . S
C2530 C2511 1.368 . S
C2530 C2524 1.368 . S
C2530 C2529 1.523 . S
C2531 C2515 1.429 . S
C2531 C2527 1.429 . S
C2531 C2532 1.523 . S
C2532 C2516 1.368 . S
C2532 C2528 1.368 . S
C2532 C2531 1.523 . S
H2533 C2508 0.950 . S
H2534 C2510 0.950 . S
H2535 C2511 0.949 . S
H2536 C2513 0.950 . S
H2537 C2515 0.950 . S
C2538 C2539 1.349 . S
C2538 C2540 1.327 . S
C2538 H2563 0.950 . S
C2539 C2538 1.349 . S
C2539 C2555 1.349 . S
C2540 C2538 1.327 . S
C2540 C2559 1.429 . S
C2540 H2564 0.950 . S
C2541 C2558 1.574 . S
C2541 C2560 1.368 . S
C2541 H2565 0.949 . S
H2542 C2546 0.949 . S
C2543 C2544 1.349 . S
C2543 C2545 1.327 . S
C2543 H2566 0.950 . S
C2544 C2543 1.349 . S
C2544 C2556 1.349 . S
C2545 C2543 1.327 . S
C2545 C2561 1.429 . S
C2545 H2567 0.950 . S
C2546 H2542 0.949 . S
C2546 C2554 1.574 . S
C2546 C2562 1.368 . S
H2547 C2555 0.950 . S
H2548 C2553 0.950 . S
H2549 C2554 0.949 . S
H2550 C2556 0.950 . S
H2551 C2557 0.950 . S
H2552 C2558 0.949 . S
C2553 H2548 0.950 . S
C2553 C2555 1.327 . S
C2553 C2559 1.429 . S
C2554 C2546 1.574 . S
C2554 H2549 0.949 . S
C2554 C2560 1.368 . S
C2555 C2539 1.349 . S
C2555 H2547 0.950 . S
C2555 C2553 1.327 . S
C2556 C2544 1.349 . S
C2556 H2550 0.950 . S
C2556 C2557 1.327 . S
C2557 H2551 0.950 . S
C2557 C2556 1.327 . S
C2557 C2561 1.429 . S
C2558 C2541 1.574 . S
C2558 H2552 0.949 . S
C2558 C2562 1.368 . S
C2559 C2540 1.429 . S
C2559 C2553 1.429 . S
C2559 C2560 1.523 . S
C2560 C2541 1.368 . S
C2560 C2554 1.368 . S
C2560 C2559 1.523 . S
C2561 C2545 1.429 . S
C2561 C2557 1.429 . S
C2561 C2562 1.523 . S
C2562 C2546 1.368 . S
C2562 C2558 1.368 . S
C2562 C2561 1.523 . S
H2563 C2538 0.950 . S
H2564 C2540 0.950 . S
H2565 C2541 0.949 . S
H2566 C2543 0.950 . S
H2567 C2545 0.950 . S
C2568 C2569 1.349 . S
C2568 C2570 1.327 . S
C2568 H2593 0.950 . S
C2569 C2568 1.349 . S
C2569 C2585 1.349 . S
C2570 C2568 1.327 . S
C2570 C2589 1.429 . S
C2570 H2594 0.950 . S
C2571 C2588 1.574 . S
C2571 C2590 1.368 . S
C2571 H2595 0.949 . S
H2572 C2576 0.949 . S
C2573 C2574 1.349 . S
C2573 C2575 1.327 . S
C2573 H2596 0.950 . S
C2574 C2573 1.349 . S
C2574 C2586 1.349 . S
C2575 C2573 1.327 . S
C2575 C2591 1.429 . S
C2575 H2597 0.950 . S
C2576 H2572 0.949 . S
C2576 C2584 1.574 . S
C2576 C2592 1.368 . S
H2577 C2585 0.950 . S
H2578 C2583 0.950 . S
H2579 C2584 0.949 . S
H2580 C2586 0.950 . S
H2581 C2587 0.950 . S
H2582 C2588 0.949 . S
C2583 H2578 0.950 . S
C2583 C2585 1.327 . S
C2583 C2589 1.429 . S
C2584 C2576 1.574 . S
C2584 H2579 0.949 . S
C2584 C2590 1.368 . S
C2585 C2569 1.349 . S
C2585 H2577 0.950 . S
C2585 C2583 1.327 . S
C2586 C2574 1.349 . S
C2586 H2580 0.950 . S
C2586 C2587 1.327 . S
C2587 H2581 0.950 . S
C2587 C2586 1.327 . S
C2587 C2591 1.429 . S
C2588 C2571 1.574 . S
C2588 H2582 0.949 . S
C2588 C2592 1.368 . S
C2589 C2570 1.429 . S
C2589 C2583 1.429 . S
C2589 C2590 1.523 . S
C2590 C2571 1.368 . S
C2590 C2584 1.368 . S
C2590 C2589 1.523 . S
C2591 C2575 1.429 . S
C2591 C2587 1.429 . S
C2591 C2592 1.523 . S
C2592 C2576 1.368 . S
C2592 C2588 1.368 . S
C2592 C2591 1.523 . S
H2593 C2568 0.950 . S
H2594 C2570 0.950 . S
H2595 C2571 0.949 . S
H2596 C2573 0.950 . S
H2597 C2575 0.950 . S
C2598 C2599 1.349 . S
C2598 C2600 1.327 . S
C2598 H2623 0.950 . S
C2599 C2598 1.349 . S
C2599 C2615 1.349 . S
C2600 C2598 1.327 . S
C2600 C2619 1.429 . S
C2600 H2624 0.950 . S
C2601 C2618 1.574 . S
C2601 C2620 1.368 . S
C2601 H2625 0.949 . S
H2602 C2606 0.949 . S
C2603 C2604 1.349 . S
C2603 C2605 1.327 . S
C2603 H2626 0.950 . S
C2604 C2603 1.349 . S
C2604 C2616 1.349 . S
C2605 C2603 1.327 . S
C2605 C2621 1.429 . S
C2605 H2627 0.950 . S
C2606 H2602 0.949 . S
C2606 C2614 1.574 . S
C2606 C2622 1.368 . S
H2607 C2615 0.950 . S
H2608 C2613 0.950 . S
H2609 C2614 0.949 . S
H2610 C2616 0.950 . S
H2611 C2617 0.950 . S
H2612 C2618 0.949 . S
C2613 H2608 0.950 . S
C2613 C2615 1.327 . S
C2613 C2619 1.429 . S
C2614 C2606 1.574 . S
C2614 H2609 0.949 . S
C2614 C2620 1.368 . S
C2615 C2599 1.349 . S
C2615 H2607 0.950 . S
C2615 C2613 1.327 . S
C2616 C2604 1.349 . S
C2616 H2610 0.950 . S
C2616 C2617 1.327 . S
C2617 H2611 0.950 . S
C2617 C2616 1.327 . S
C2617 C2621 1.429 . S
C2618 C2601 1.574 . S
C2618 H2612 0.949 . S
C2618 C2622 1.368 . S
C2619 C2600 1.429 . S
C2619 C2613 1.429 . S
C2619 C2620 1.523 . S
C2620 C2601 1.368 . S
C2620 C2614 1.368 . S
C2620 C2619 1.523 . S
C2621 C2605 1.429 . S
C2621 C2617 1.429 . S
C2621 C2622 1.523 . S
C2622 C2606 1.368 . S
C2622 C2618 1.368 . S
C2622 C2621 1.523 . S
H2623 C2598 0.950 . S
H2624 C2600 0.950 . S
H2625 C2601 0.949 . S
H2626 C2603 0.950 . S
H2627 C2605 0.950 . S
C2628 C2629 1.349 . S
C2628 C2630 1.327 . S
C2628 H2653 0.950 . S
C2629 C2628 1.349 . S
C2629 C2645 1.349 . S
C2630 C2628 1.327 . S
C2630 C2649 1.429 . S
C2630 H2654 0.950 . S
C2631 C2648 1.574 . S
C2631 C2650 1.368 . S
C2631 H2655 0.949 . S
H2632 C2636 0.949 . S
C2633 C2634 1.349 . S
C2633 C2635 1.327 . S
C2633 H2656 0.950 . S
C2634 C2633 1.349 . S
C2634 C2646 1.349 . S
C2635 C2633 1.327 . S
C2635 C2651 1.429 . S
C2635 H2657 0.950 . S
C2636 H2632 0.949 . S
C2636 C2644 1.574 . S
C2636 C2652 1.368 . S
H2637 C2645 0.950 . S
H2638 C2643 0.950 . S
H2639 C2644 0.949 . S
H2640 C2646 0.950 . S
H2641 C2647 0.950 . S
H2642 C2648 0.949 . S
C2643 H2638 0.950 . S
C2643 C2645 1.327 . S
C2643 C2649 1.429 . S
C2644 C2636 1.574 . S
C2644 H2639 0.949 . S
C2644 C2650 1.368 . S
C2645 C2629 1.349 . S
C2645 H2637 0.950 . S
C2645 C2643 1.327 . S
C2646 C2634 1.349 . S
C2646 H2640 0.950 . S
C2646 C2647 1.327 . S
C2647 H2641 0.950 . S
C2647 C2646 1.327 . S
C2647 C2651 1.429 . S
C2648 C2631 1.574 . S
C2648 H2642 0.949 . S
C2648 C2652 1.368 . S
C2649 C2630 1.429 . S
C2649 C2643 1.429 . S
C2649 C2650 1.523 . S
C2650 C2631 1.368 . S
C2650 C2644 1.368 . S
C2650 C2649 1.523 . S
C2651 C2635 1.429 . S
C2651 C2647 1.429 . S
C2651 C2652 1.523 . S
C2652 C2636 1.368 . S
C2652 C2648 1.368 . S
C2652 C2651 1.523 . S
H2653 C2628 0.950 . S
H2654 C2630 0.950 . S
H2655 C2631 0.949 . S
H2656 C2633 0.950 . S
H2657 C2635 0.950 . S
C2658 C2659 1.349 . S
C2658 C2660 1.327 . S
C2658 H2683 0.950 . S
C2659 C2658 1.349 . S
C2659 C2675 1.349 . S
C2660 C2658 1.327 . S
C2660 C2679 1.429 . S
C2660 H2684 0.950 . S
C2661 C2678 1.574 . S
C2661 C2680 1.368 . S
C2661 H2685 0.949 . S
H2662 C2666 0.949 . S
C2663 C2664 1.349 . S
C2663 C2665 1.327 . S
C2663 H2686 0.950 . S
C2664 C2663 1.349 . S
C2664 C2676 1.349 . S
C2665 C2663 1.327 . S
C2665 C2681 1.429 . S
C2665 H2687 0.950 . S
C2666 H2662 0.949 . S
C2666 C2674 1.574 . S
C2666 C2682 1.368 . S
H2667 C2675 0.950 . S
H2668 C2673 0.950 . S
H2669 C2674 0.949 . S
H2670 C2676 0.950 . S
H2671 C2677 0.950 . S
H2672 C2678 0.949 . S
C2673 H2668 0.950 . S
C2673 C2675 1.327 . S
C2673 C2679 1.429 . S
C2674 C2666 1.574 . S
C2674 H2669 0.949 . S
C2674 C2680 1.368 . S
C2675 C2659 1.349 . S
C2675 H2667 0.950 . S
C2675 C2673 1.327 . S
C2676 C2664 1.349 . S
C2676 H2670 0.950 . S
C2676 C2677 1.327 . S
C2677 H2671 0.950 . S
C2677 C2676 1.327 . S
C2677 C2681 1.429 . S
C2678 C2661 1.574 . S
C2678 H2672 0.949 . S
C2678 C2682 1.368 . S
C2679 C2660 1.429 . S
C2679 C2673 1.429 . S
C2679 C2680 1.523 . S
C2680 C2661 1.368 . S
C2680 C2674 1.368 . S
C2680 C2679 1.523 . S
C2681 C2665 1.429 . S
C2681 C2677 1.429 . S
C2681 C2682 1.523 . S
C2682 C2666 1.368 . S
C2682 C2678 1.368 . S
C2682 C2681 1.523 . S
H2683 C2658 0.950 . S
H2684 C2660 0.950 . S
H2685 C2661 0.949 . S
H2686 C2663 0.950 . S
H2687 C2665 0.950 . S
C2688 C2689 1.349 . S
C2688 C2690 1.327 . S
C2688 H2713 0.950 . S
C2689 C2688 1.349 . S
C2689 C2705 1.349 . S
C2690 C2688 1.327 . S
C2690 C2709 1.429 . S
C2690 H2714 0.950 . S
C2691 C2708 1.574 . S
C2691 C2710 1.368 . S
C2691 H2715 0.949 . S
H2692 C2696 0.949 . S
C2693 C2694 1.349 . S
C2693 C2695 1.327 . S
C2693 H2716 0.950 . S
C2694 C2693 1.349 . S
C2694 C2706 1.349 . S
C2695 C2693 1.327 . S
C2695 C2711 1.429 . S
C2695 H2717 0.950 . S
C2696 H2692 0.949 . S
C2696 C2704 1.574 . S
C2696 C2712 1.368 . S
H2697 C2705 0.950 . S
H2698 C2703 0.950 . S
H2699 C2704 0.949 . S
H2700 C2706 0.950 . S
H2701 C2707 0.950 . S
H2702 C2708 0.949 . S
C2703 H2698 0.950 . S
C2703 C2705 1.327 . S
C2703 C2709 1.429 . S
C2704 C2696 1.574 . S
C2704 H2699 0.949 . S
C2704 C2710 1.368 . S
C2705 C2689 1.349 . S
C2705 H2697 0.950 . S
C2705 C2703 1.327 . S
C2706 C2694 1.349 . S
C2706 H2700 0.950 . S
C2706 C2707 1.327 . S
C2707 H2701 0.950 . S
C2707 C2706 1.327 . S
C2707 C2711 1.429 . S
C2708 C2691 1.574 . S
C2708 H2702 0.949 . S
C2708 C2712 1.368 . S
C2709 C2690 1.429 . S
C2709 C2703 1.429 . S
C2709 C2710 1.523 . S
C2710 C2691 1.368 . S
C2710 C2704 1.368 . S
C2710 C2709 1.523 . S
C2711 C2695 1.429 . S
C2711 C2707 1.429 . S
C2711 C2712 1.523 . S
C2712 C2696 1.368 . S
C2712 C2708 1.368 . S
C2712 C2711 1.523 . S
H2713 C2688 0.950 . S
H2714 C2690 0.950 . S
H2715 C2691 0.949 . S
H2716 C2693 0.950 . S
H2717 C2695 0.950 . S
C2718 C2719 1.349 . S
C2718 C2720 1.327 . S
C2718 H2743 0.950 . S
C2719 C2718 1.349 . S
C2719 C2735 1.349 . S
C2720 C2718 1.327 . S
C2720 C2739 1.429 . S
C2720 H2744 0.950 . S
C2721 C2738 1.574 . S
C2721 C2740 1.368 . S
C2721 H2745 0.949 . S
H2722 C2726 0.949 . S
C2723 C2724 1.349 . S
C2723 C2725 1.327 . S
C2723 H2746 0.950 . S
C2724 C2723 1.349 . S
C2724 C2736 1.349 . S
C2725 C2723 1.327 . S
C2725 C2741 1.429 . S
C2725 H2747 0.950 . S
C2726 H2722 0.949 . S
C2726 C2734 1.574 . S
C2726 C2742 1.368 . S
H2727 C2735 0.950 . S
H2728 C2733 0.950 . S
H2729 C2734 0.949 . S
H2730 C2736 0.950 . S
H2731 C2737 0.950 . S
H2732 C2738 0.949 1_556 S
C2733 H2728 0.950 . S
C2733 C2735 1.327 . S
C2733 C2739 1.429 . S
C2734 C2726 1.574 . S
C2734 H2729 0.949 . S
C2734 C2740 1.368 . S
C2735 C2719 1.349 . S
C2735 H2727 0.950 . S
C2735 C2733 1.327 . S
C2736 C2724 1.349 . S
C2736 H2730 0.950 . S
C2736 C2737 1.327 . S
C2737 H2731 0.950 . S
C2737 C2736 1.327 . S
C2737 C2741 1.429 . S
C2738 C2721 1.574 . S
C2738 H2732 0.949 1_554 S
C2738 C2742 1.368 . S
C2739 C2720 1.429 . S
C2739 C2733 1.429 . S
C2739 C2740 1.523 . S
C2740 C2721 1.368 . S
C2740 C2734 1.368 . S
C2740 C2739 1.523 . S
C2741 C2725 1.429 . S
C2741 C2737 1.429 . S
C2741 C2742 1.523 1_556 S
C2742 C2726 1.368 . S
C2742 C2738 1.368 . S
C2742 C2741 1.523 1_554 S
H2743 C2718 0.950 . S
H2744 C2720 0.950 . S
H2745 C2721 0.949 . S
H2746 C2723 0.950 . S
H2747 C2725 0.950 . S
C2748 C2749 1.349 . S
C2748 C2750 1.327 . S
C2748 H2773 0.950 . S
C2749 C2748 1.349 . S
C2749 C2765 1.349 . S
C2750 C2748 1.327 . S
C2750 C2769 1.429 . S
C2750 H2774 0.950 . S
C2751 C2768 1.574 . S
C2751 C2770 1.368 . S
C2751 H2775 0.949 . S
H2752 C2756 0.949 . S
C2753 C2754 1.349 . S
C2753 C2755 1.327 1_556 S
C2753 H2776 0.950 . S
C2754 C2753 1.349 . S
C2754 C2766 1.349 . S
C2755 C2753 1.327 1_554 S
C2755 C2771 1.429 . S
C2755 H2777 0.950 . S
C2756 H2752 0.949 . S
C2756 C2764 1.574 . S
C2756 C2772 1.368 . S
H2757 C2765 0.950 . S
H2758 C2763 0.950 . S
H2759 C2764 0.949 . S
H2760 C2766 0.950 . S
H2761 C2767 0.950 . S
H2762 C2768 0.949 . S
C2763 H2758 0.950 . S
C2763 C2765 1.327 . S
C2763 C2769 1.429 . S
C2764 C2756 1.574 . S
C2764 H2759 0.949 . S
C2764 C2770 1.368 . S
C2765 C2749 1.349 . S
C2765 H2757 0.950 . S
C2765 C2763 1.327 . S
C2766 C2754 1.349 . S
C2766 H2760 0.950 . S
C2766 C2767 1.329 1_556 S
C2767 H2761 0.950 . S
C2767 C2766 1.329 1_554 S
C2767 C2771 1.427 . S
C2768 C2751 1.574 . S
C2768 H2762 0.949 . S
C2768 C2772 1.368 . S
C2769 C2750 1.429 . S
C2769 C2763 1.429 . S
C2769 C2770 1.523 . S
C2770 C2751 1.368 . S
C2770 C2764 1.368 . S
C2770 C2769 1.523 . S
C2771 C2755 1.429 . S
C2771 C2767 1.427 . S
C2771 C2772 1.523 . S
C2772 C2756 1.368 . S
C2772 C2768 1.368 . S
C2772 C2771 1.523 . S
H2773 C2748 0.950 . S
H2774 C2750 0.950 . S
H2775 C2751 0.949 . S
H2776 C2753 0.950 . S
H2777 C2755 0.950 . S
C2778 C2779 1.349 . S
C2778 C2780 1.327 . S
C2778 H2803 0.950 . S
C2779 C2778 1.349 . S
C2779 C2795 1.349 . S
C2780 C2778 1.327 . S
C2780 C2799 1.429 . S
C2780 H2804 0.950 . S
C2781 C2798 1.574 . S
C2781 C2800 1.368 . S
C2781 H2805 0.949 . S
H2782 C2786 0.949 . S
C2783 C2784 1.349 . S
C2783 C2785 1.327 . S
C2783 H2806 0.950 . S
C2784 C2783 1.349 . S
C2784 C2796 1.349 . S
C2785 C2783 1.327 . S
C2785 C2801 1.429 1_556 S
C2785 H2807 0.950 . S
C2786 H2782 0.949 . S
C2786 C2794 1.574 . S
C2786 C2802 1.368 . S
H2787 C2795 0.950 . S
H2788 C2793 0.950 . S
H2789 C2794 0.949 . S
H2790 C2796 0.950 . S
H2791 C2797 0.950 . S
H2792 C2798 0.949 . S
C2793 H2788 0.950 . S
C2793 C2795 1.327 . S
C2793 C2799 1.429 . S
C2794 C2786 1.574 . S
C2794 H2789 0.949 . S
C2794 C2800 1.368 . S
C2795 C2779 1.349 . S
C2795 H2787 0.950 . S
C2795 C2793 1.327 . S
C2796 C2784 1.349 . S
C2796 H2790 0.950 . S
C2796 C2797 1.327 1_556 S
C2797 H2791 0.950 . S
C2797 C2796 1.327 1_554 S
C2797 C2801 1.429 . S
C2798 C2781 1.574 . S
C2798 H2792 0.949 . S
C2798 C2802 1.368 . S
C2799 C2780 1.429 . S
C2799 C2793 1.429 . S
C2799 C2800 1.523 . S
C2800 C2781 1.368 . S
C2800 C2794 1.368 . S
C2800 C2799 1.523 . S
C2801 C2785 1.429 1_554 S
C2801 C2797 1.429 . S
C2801 C2802 1.523 . S
C2802 C2786 1.368 . S
C2802 C2798 1.368 . S
C2802 C2801 1.523 . S
H2803 C2778 0.950 . S
H2804 C2780 0.950 . S
H2805 C2781 0.949 . S
H2806 C2783 0.950 . S
H2807 C2785 0.950 . S
C649 C7 1.318 . S
C654 C565 1.294 . S
C684 C536 1.695 . S
C679 C39 1.730 . S
C714 C552 1.471 . S
C709 C62 1.495 . S
C739 C76 1.646 . S
C744 C617 1.590 . S
C769 C108 1.304 . S
C774 C627 1.275 . S
C799 N117 1.165 . S
C804 C640 1.147 . S
C834 C596 1.325 . S
C829 C16 1.337 . S
C859 C30 1.798 . S
C864 C575 1.753 . S
C894 C593 1.477 . S
C889 C53 1.472 . S
C919 C85 1.751 . S
C924 C502 1.740 1_545 S
C954 C510 1.558 . S
C949 C99 1.595 . S
C979 N127 1.161 . S
C984 C526 1.163 . S
C1009 N150 1.062 . S
C1014 C643 1.057 . S
C1044 C614 1.471 . S
C1039 N173 1.487 . S
C1074 C630 1.341 1_455 S
C1069 C200 1.357 . S
C1099 C214 1.469 . S
C1104 C461 1.431 . S
C1129 N232 1.360 . S
C1134 C471 1.343 . S
C1159 C260 1.319 . S
C1164 C484 1.288 1_565 S
C1194 C440 1.174 . S
C1189 N140 1.153 . S
C1219 N163 1.239 . S
C1224 C419 1.252 . S
C1254 C437 1.567 . S
C1249 C191 1.563 . S
C1284 C580 1.838 . S
C1279 C223 1.836 . S
C1314 C588 1.326 . S
C1309 N242 1.314 . S
C1344 C604 1.353 . S
C1339 C269 1.387 . S
C1369 N288 1.192 . S
C1374 C487 1.189 . S
C1399 C315 1.465 . S
C1404 C458 1.443 . S
C1429 C338 1.567 . S
C1434 C474 1.538 . S
C1459 C352 1.662 . S
C1464 C539 1.611 . S
C1494 C549 1.391 . S
C1489 N370 1.407 . S
C1524 C562 1.357 . S
C1519 C398 1.382 . S
C1554 C518 1.127 . S
C1549 N278 1.104 . S
C1579 C306 1.715 . S
C1584 C497 1.669 . S
C1609 C329 1.570 . S
C1614 C515 1.573 . S
C1644 C424 1.484 . S
C1639 C361 1.481 . S
C1669 N380 1.366 . S
C1674 C432 1.376 . S
C1704 C448 1.311 . S
C1699 C407 1.347 . S
C1734 C453 1.325 . S
C1729 N12 1.317 . S
C1759 N25 1.473 . S
C1764 C476 1.497 . S
C1794 C489 1.209 . S
C1789 N48 1.192 . S
C1824 C479 1.207 . S
C1819 N81 1.211 . S
C1854 C463 1.460 . S
C1849 N94 1.433 . S
C1884 C466 1.408 . S
C1879 C131 1.425 . S
C1914 C414 1.298 . S
C1909 N2 1.314 . S
C1939 N35 1.416 . S
C1944 C435 1.402 . S
C1969 N58 1.184 . S
C1974 C445 1.194 . S
C2004 C450 1.202 . S
C1999 N71 1.178 . S
C2034 C422 1.266 . S
C2029 N104 1.284 . S
C2064 C427 1.424 . S
C2059 C122 1.465 . S
C2089 C145 1.943 . S
C2094 C531 1.909 . S
C2119 C168 1.632 . S
C2124 C554 1.640 . S
C2149 N186 1.301 . S
C2154 C567 1.319 . S
C2184 C557 1.174 . S
C2179 N219 1.181 . S
C2214 C541 1.718 . S
C2209 C246 1.714 . S
C2244 C544 1.348 . S
C2239 N265 1.347 . S
C2274 C492 1.786 . S
C2269 C154 1.831 . S
C2299 C177 1.741 . S
C2304 C513 1.703 . S
C2329 N196 1.173 . S
C2334 C523 1.174 . S
C2359 N209 1.039 . S
C2364 C528 1.062 . S
C2389 C237 1.769 . S
C2394 C500 1.716 . S
C2424 C505 1.303 . S
C2419 N255 1.309 . S
C2449 C283 1.696 . S
C2454 C609 1.669 . S
C2479 N301 1.361 . S
C2484 C632 1.380 . S
C2509 N324 1.176 . S
C2514 C645 1.190 . S
C2544 C635 1.037 . S
C2539 N357 1.032 . S
C2574 C619 1.697 . S
C2569 C384 1.695 . S
C2599 N403 1.178 . S
C2604 C622 1.175 . S
C2629 C292 1.794 . S
C2634 C570 1.746 . S
C2664 C591 1.270 . S
C2659 N311 1.284 . S
C2689 N334 1.285 . S
C2694 C601 1.293 . S
C2719 N347 1.223 . S
C2724 C606 1.244 . S
C2754 C578 1.771 . S
C2749 C375 1.823 . S
C2779 N393 1.228 . S
C2784 C583 1.229 . S
