# Generated by pormake.
# Topology ocu, (6,8)-cn, num edge types: 1
# Building blocks:
#     Node 0, Type 0, BuildingBlock: JUFBIX_clean_sbu_0, # of connection points: 6
#     Node 1, Type 0, BuildingBlock: JUFBIX_clean_sbu_0, # of connection points: 6
#     Node 2, Type 0, BuildingBlock: JUFBIX_clean_sbu_0, # of connection points: 6
#     Node 3, Type 0, BuildingBlock: JUFBIX_clean_sbu_0, # of connection points: 6
#     Node 4, Type 0, BuildingBlock: JUFBIX_clean_sbu_0, # of connection points: 6
#     Node 5, Type 0, BuildingBlock: JUFBIX_clean_sbu_0, # of connection points: 6
#     Node 6, Type 0, BuildingBlock: JUFBIX_clean_sbu_0, # of connection points: 6
#     Node 7, Type 0, BuildingBlock: JUFBIX_clean_sbu_0, # of connection points: 6
#     Node 8, Type 1, BuildingBlock: TAGTUT_clean_sbu_1, # of connection points: 8
#     Node 9, Type 1, BuildingBlock: TAGTUT_clean_sbu_1, # of connection points: 8
#     Node 10, Type 1, BuildingBlock: TAGTUT_clean_sbu_1, # of connection points: 8
#     Node 11, Type 1, BuildingBlock: TAGTUT_clean_sbu_1, # of connection points: 8
#     Node 12, Type 1, BuildingBlock: TAGTUT_clean_sbu_1, # of connection points: 8
#     Node 13, Type 1, BuildingBlock: TAGTUT_clean_sbu_1, # of connection points: 8
#     Edge 14, Type (0, 1), BuildingBlock: KIFKEQ_clean_linker_1, # of connection points: 2
#     Edge 15, Type (0, 1), BuildingBlock: KIFKEQ_clean_linker_1, # of connection points: 2
#     Edge 16, Type (0, 1), BuildingBlock: KIFKEQ_clean_linker_1, # of connection points: 2
#     Edge 17, Type (0, 1), BuildingBlock: KIFKEQ_clean_linker_1, # of connection points: 2
#     Edge 18, Type (0, 1), BuildingBlock: KIFKEQ_clean_linker_1, # of connection points: 2
#     Edge 19, Type (0, 1), BuildingBlock: KIFKEQ_clean_linker_1, # of connection points: 2
#     Edge 20, Type (0, 1), BuildingBlock: KIFKEQ_clean_linker_1, # of connection points: 2
#     Edge 21, Type (0, 1), BuildingBlock: KIFKEQ_clean_linker_1, # of connection points: 2
#     Edge 22, Type (0, 1), BuildingBlock: KIFKEQ_clean_linker_1, # of connection points: 2
#     Edge 23, Type (0, 1), BuildingBlock: KIFKEQ_clean_linker_1, # of connection points: 2
#     Edge 24, Type (0, 1), BuildingBlock: KIFKEQ_clean_linker_1, # of connection points: 2
#     Edge 25, Type (0, 1), BuildingBlock: KIFKEQ_clean_linker_1, # of connection points: 2
#     Edge 26, Type (0, 1), BuildingBlock: KIFKEQ_clean_linker_1, # of connection points: 2
#     Edge 27, Type (0, 1), BuildingBlock: KIFKEQ_clean_linker_1, # of connection points: 2
#     Edge 28, Type (0, 1), BuildingBlock: KIFKEQ_clean_linker_1, # of connection points: 2
#     Edge 29, Type (0, 1), BuildingBlock: KIFKEQ_clean_linker_1, # of connection points: 2
#     Edge 30, Type (0, 1), BuildingBlock: KIFKEQ_clean_linker_1, # of connection points: 2
#     Edge 31, Type (0, 1), BuildingBlock: KIFKEQ_clean_linker_1, # of connection points: 2
#     Edge 32, Type (0, 1), BuildingBlock: KIFKEQ_clean_linker_1, # of connection points: 2
#     Edge 33, Type (0, 1), BuildingBlock: KIFKEQ_clean_linker_1, # of connection points: 2
#     Edge 34, Type (0, 1), BuildingBlock: KIFKEQ_clean_linker_1, # of connection points: 2
#     Edge 35, Type (0, 1), BuildingBlock: KIFKEQ_clean_linker_1, # of connection points: 2
#     Edge 36, Type (0, 1), BuildingBlock: KIFKEQ_clean_linker_1, # of connection points: 2
#     Edge 37, Type (0, 1), BuildingBlock: KIFKEQ_clean_linker_1, # of connection points: 2
#     Edge 38, Type (0, 1), BuildingBlock: KIFKEQ_clean_linker_1, # of connection points: 2
#     Edge 39, Type (0, 1), BuildingBlock: KIFKEQ_clean_linker_1, # of connection points: 2
#     Edge 40, Type (0, 1), BuildingBlock: KIFKEQ_clean_linker_1, # of connection points: 2
#     Edge 41, Type (0, 1), BuildingBlock: KIFKEQ_clean_linker_1, # of connection points: 2
#     Edge 42, Type (0, 1), BuildingBlock: KIFKEQ_clean_linker_1, # of connection points: 2
#     Edge 43, Type (0, 1), BuildingBlock: KIFKEQ_clean_linker_1, # of connection points: 2
#     Edge 44, Type (0, 1), BuildingBlock: KIFKEQ_clean_linker_1, # of connection points: 2
#     Edge 45, Type (0, 1), BuildingBlock: KIFKEQ_clean_linker_1, # of connection points: 2
#     Edge 46, Type (0, 1), BuildingBlock: KIFKEQ_clean_linker_1, # of connection points: 2
#     Edge 47, Type (0, 1), BuildingBlock: KIFKEQ_clean_linker_1, # of connection points: 2
#     Edge 48, Type (0, 1), BuildingBlock: KIFKEQ_clean_linker_1, # of connection points: 2
#     Edge 49, Type (0, 1), BuildingBlock: KIFKEQ_clean_linker_1, # of connection points: 2
#     Edge 50, Type (0, 1), BuildingBlock: KIFKEQ_clean_linker_1, # of connection points: 2
#     Edge 51, Type (0, 1), BuildingBlock: KIFKEQ_clean_linker_1, # of connection points: 2
#     Edge 52, Type (0, 1), BuildingBlock: KIFKEQ_clean_linker_1, # of connection points: 2
#     Edge 53, Type (0, 1), BuildingBlock: KIFKEQ_clean_linker_1, # of connection points: 2
#     Edge 54, Type (0, 1), BuildingBlock: KIFKEQ_clean_linker_1, # of connection points: 2
#     Edge 55, Type (0, 1), BuildingBlock: KIFKEQ_clean_linker_1, # of connection points: 2
#     Edge 56, Type (0, 1), BuildingBlock: KIFKEQ_clean_linker_1, # of connection points: 2
#     Edge 57, Type (0, 1), BuildingBlock: KIFKEQ_clean_linker_1, # of connection points: 2
#     Edge 58, Type (0, 1), BuildingBlock: KIFKEQ_clean_linker_1, # of connection points: 2
#     Edge 59, Type (0, 1), BuildingBlock: KIFKEQ_clean_linker_1, # of connection points: 2
#     Edge 60, Type (0, 1), BuildingBlock: KIFKEQ_clean_linker_1, # of connection points: 2
#     Edge 61, Type (0, 1), BuildingBlock: KIFKEQ_clean_linker_1, # of connection points: 2
# Relax obj value: 0.184
# Max RMSD: 0.311
# Mean RMSD: 0.181
data_MOF--net-ocu--node1-JUFBIX_clean_sbu_0--node2-TAGTUT_clean_sbu_1--edge1-KIFKEQ_clean_linker_1
_symmetry_space_group_name_H-M    P1
_symmetry_Int_Tables_number       1
_symmetry_cell_setting            triclinic
loop_
_symmetry_equiv_pos_as_xyz
'x, y, z'
_cell_length_a     37.74487
_cell_length_b     36.93528
_cell_length_c     40.239995
_cell_angle_alpha  93.031936
_cell_angle_beta   94.597723
_cell_angle_gamma 100.06876
loop_
_atom_site_label
_atom_site_type_symbol
_atom_site_fract_x
_atom_site_fract_y
_atom_site_fract_z
_atom_type_partial_charge
Co0 Co 0.24432 0.2369 0.24172 0.0
C1 C 0.23944 0.28881 0.29375 0.0
Co2 Co 0.29037 0.283 0.24869 0.0
C3 C 0.18458 0.18522 0.25954 0.0
C4 C 0.18799 0.18179 0.20671 0.0
N5 N 0.20452 0.19953 0.23553 0.0
N6 N 0.1562 0.15949 0.24699 0.0
C7 C 0.15834 0.1568 0.21376 0.0
H8 H 0.19102 0.1932 0.2859 0.0
H9 H 0.19673 0.18693 0.18217 0.0
C10 C 0.29557 0.2312 0.19661 0.0
N11 N 0.33047 0.32012 0.25536 0.0
C12 C 0.35287 0.33259 0.23243 0.0
C13 C 0.34645 0.33702 0.28471 0.0
N14 N 0.38238 0.3561 0.24626 0.0
C15 C 0.37831 0.35945 0.27913 0.0
C16 C 0.30021 0.22214 0.28557 0.0
O17 O 0.26521 0.21542 0.20502 0.0
O18 O 0.31091 0.26127 0.21236 0.0
O19 O 0.31434 0.25442 0.27871 0.0
O20 O 0.26861 0.20841 0.27224 0.0
O21 O 0.2697 0.30435 0.28507 0.0
H22 H 0.33633 0.33227 0.30879 0.0
H23 H 0.34792 0.32417 0.20605 0.0
O24 O 0.22375 0.25872 0.27818 0.0
O25 O 0.2202 0.26545 0.21197 0.0
O26 O 0.26584 0.31171 0.21823 0.0
C27 C 0.23394 0.298 0.20546 0.0
H28 H 0.13961 0.13849 0.19593 0.0
H29 H 0.39755 0.37585 0.29785 0.0
Co30 Co 0.80714 0.25829 0.24032 0.0
C31 C 0.78846 0.28845 0.30138 0.0
Co32 Co 0.75426 0.2352 0.25609 0.0
C33 C 0.87185 0.28525 0.20899 0.0
C34 C 0.88199 0.27644 0.2607 0.0
N35 N 0.85517 0.27446 0.23595 0.0
N36 N 0.90802 0.29404 0.216 0.0
C37 C 0.91453 0.28871 0.24854 0.0
H38 H 0.8576 0.28807 0.18509 0.0
H39 H 0.87809 0.26977 0.28616 0.0
C40 C 0.77254 0.20529 0.19468 0.0
N41 N 0.70604 0.2184 0.25968 0.0
C42 C 0.6874 0.20835 0.28582 0.0
C43 C 0.68074 0.2155 0.23343 0.0
N44 N 0.65158 0.19922 0.27666 0.0
C45 C 0.64734 0.20364 0.24376 0.0
C46 C 0.75865 0.2981 0.21583 0.0
O47 O 0.80174 0.22857 0.19935 0.0
O48 O 0.74993 0.20385 0.21638 0.0
O49 O 0.73962 0.27374 0.23116 0.0
O50 O 0.7924 0.29795 0.21606 0.0
O51 O 0.75854 0.26632 0.29591 0.0
H52 H 0.68624 0.22167 0.20816 0.0
H53 H 0.6999 0.20686 0.31077 0.0
O54 O 0.81226 0.28845 0.28085 0.0
O55 O 0.82159 0.21899 0.26402 0.0
O56 O 0.76954 0.19677 0.28188 0.0
C57 C 0.80309 0.1959 0.28097 0.0
H58 H 0.94076 0.2943 0.26267 0.0
H59 H 0.62193 0.1983 0.22827 0.0
Co60 Co 0.76942 0.73775 0.2728 0.0
C61 C 0.80834 0.79908 0.30766 0.0
Co62 Co 0.76794 0.78797 0.2463 0.0
C63 C 0.78777 0.66711 0.27841 0.0
C64 C 0.7686 0.68574 0.32373 0.0
N65 N 0.77284 0.69428 0.29201 0.0
N66 N 0.79526 0.64312 0.30078 0.0
C67 C 0.78245 0.65426 0.32921 0.0
H68 H 0.79657 0.66693 0.25347 0.0
H69 H 0.75954 0.70322 0.34249 0.0
C70 C 0.7295 0.72626 0.21146 0.0
N71 N 0.76361 0.83117 0.22732 0.0
C72 C 0.73138 0.83936 0.21713 0.0
C73 C 0.78739 0.86294 0.22693 0.0
N74 N 0.73349 0.87512 0.21143 0.0
C75 C 0.76884 0.89017 0.2169 0.0
C76 C 0.8219 0.75397 0.22651 0.0
O77 O 0.73954 0.71075 0.23703 0.0
O78 O 0.73734 0.76099 0.21086 0.0
O79 O 0.80784 0.78228 0.2214 0.0
O80 O 0.81044 0.7331 0.24887 0.0
O81 O 0.79857 0.81485 0.2821 0.0
H82 H 0.81582 0.86659 0.23533 0.0
H83 H 0.70644 0.81951 0.21532 0.0
O84 O 0.79962 0.76441 0.30835 0.0
O85 O 0.72866 0.74325 0.29693 0.0
O86 O 0.72783 0.79339 0.27062 0.0
C87 C 0.71514 0.77188 0.29195 0.0
H88 H 0.78698 0.64332 0.35332 0.0
H89 H 0.78017 0.91899 0.21537 0.0
Co90 Co 0.24571 0.77827 0.23411 0.0
C91 C 0.28576 0.8095 0.29284 0.0
Co92 Co 0.29012 0.75017 0.25039 0.0
C93 C 0.18058 0.80317 0.24259 0.0
C94 C 0.20058 0.82246 0.19741 0.0
N95 N 0.20712 0.80114 0.22266 0.0
N96 N 0.15777 0.82473 0.23125 0.0
C97 C 0.17043 0.83769 0.20304 0.0
H98 H 0.17982 0.79207 0.26693 0.0
H99 H 0.21776 0.82838 0.17739 0.0
C100 C 0.25 0.71893 0.19173 0.0
N101 N 0.32838 0.72705 0.26167 0.0
C102 C 0.35309 0.72225 0.24048 0.0
C103 C 0.33557 0.70711 0.28778 0.0
N104 N 0.37529 0.70007 0.25179 0.0
C105 C 0.36428 0.68986 0.28144 0.0
C106 C 0.22624 0.72003 0.27872 0.0
O107 O 0.23253 0.74488 0.19627 0.0
O108 O 0.27602 0.71561 0.21266 0.0
O109 O 0.25939 0.71743 0.27764 0.0
O110 O 0.21463 0.74407 0.26119 0.0
O111 O 0.3038 0.78407 0.2879 0.0
H112 H 0.31965 0.70343 0.30893 0.0
H113 H 0.35274 0.73192 0.21555 0.0
O114 O 0.2592 0.81231 0.2723 0.0
O115 O 0.27676 0.81149 0.20737 0.0
O116 O 0.32112 0.78373 0.2228 0.0
C117 C 0.30972 0.80828 0.20576 0.0
H118 H 0.15993 0.85814 0.18876 0.0
H119 H 0.37491 0.67003 0.29642 0.0
Co120 Co 0.30654 0.75474 0.73691 0.0
C121 C 0.29006 0.78989 0.79685 0.0
Co122 Co 0.25408 0.73447 0.75498 0.0
C123 C 0.37079 0.77685 0.70335 0.0
C124 C 0.3818 0.77133 0.7556 0.0
N125 N 0.35455 0.7688 0.73119 0.0
N126 N 0.40712 0.78446 0.70946 0.0
C127 C 0.41415 0.78113 0.74233 0.0
H128 H 0.35616 0.77864 0.6794 0.0
H129 H 0.37833 0.76668 0.78155 0.0
C130 C 0.2699 0.69929 0.69488 0.0
N131 N 0.20576 0.71958 0.75965 0.0
C132 C 0.18743 0.70917 0.78589 0.0
C133 C 0.18015 0.71717 0.7337 0.0
N134 N 0.15153 0.7003 0.77704 0.0
C135 C 0.1469 0.70534 0.74429 0.0
C136 C 0.25897 0.79439 0.7108 0.0
O137 O 0.29962 0.72188 0.69768 0.0
O138 O 0.24813 0.70066 0.71707 0.0
O139 O 0.24015 0.77201 0.72814 0.0
O140 O 0.29239 0.79293 0.7102 0.0
O141 O 0.25997 0.7679 0.79317 0.0
H142 H 0.18538 0.72307 0.70832 0.0
H143 H 0.20021 0.70674 0.81054 0.0
O144 O 0.31312 0.78802 0.7758 0.0
O145 O 0.3204 0.71675 0.76304 0.0
O146 O 0.26864 0.6971 0.78257 0.0
C147 C 0.30192 0.69516 0.78128 0.0
H148 H 0.44067 0.78654 0.75594 0.0
H149 H 0.12137 0.69998 0.72899 0.0
Co150 Co 0.25984 0.23001 0.77379 0.0
C151 C 0.30293 0.29053 0.80751 0.0
Co152 Co 0.26345 0.27972 0.74591 0.0
C153 C 0.27498 0.15867 0.78252 0.0
C154 C 0.25756 0.18109 0.8272 0.0
N155 N 0.26056 0.18691 0.79472 0.0
N156 N 0.28415 0.13711 0.80651 0.0
C157 C 0.27212 0.15044 0.83452 0.0
H158 H 0.28322 0.15672 0.75744 0.0
H159 H 0.24976 0.20037 0.84518 0.0
C160 C 0.22157 0.21855 0.71192 0.0
N161 N 0.26227 0.32282 0.72569 0.0
C162 C 0.23123 0.33361 0.71559 0.0
C163 C 0.28824 0.35267 0.72417 0.0
N164 N 0.23624 0.36928 0.70892 0.0
C165 C 0.27221 0.38145 0.71362 0.0
C166 C 0.31406 0.24117 0.72774 0.0
O167 O 0.22995 0.20316 0.73811 0.0
O168 O 0.23106 0.25316 0.7109 0.0
O169 O 0.30178 0.27012 0.72131 0.0
O170 O 0.30138 0.22202 0.75085 0.0
O171 O 0.29611 0.30589 0.78084 0.0
H172 H 0.31652 0.35409 0.73221 0.0
H173 H 0.2051 0.3158 0.71461 0.0
O174 O 0.29013 0.25669 0.80946 0.0
O175 O 0.2188 0.23884 0.79653 0.0
O176 O 0.22472 0.28945 0.77027 0.0
C177 C 0.20906 0.26948 0.79132 0.0
H178 H 0.2783 0.14217 0.85944 0.0
H179 H 0.2857 0.40944 0.71127 0.0
Co180 Co 0.74881 0.28058 0.73677 0.0
C181 C 0.79193 0.30595 0.79483 0.0
Co182 Co 0.79077 0.24786 0.74771 0.0
C183 C 0.6896 0.315 0.74824 0.0
C184 C 0.7077 0.32735 0.70048 0.0
N185 N 0.71286 0.30693 0.72673 0.0
N186 N 0.67074 0.34028 0.73716 0.0
C187 C 0.68225 0.34868 0.70728 0.0
H188 H 0.68965 0.30604 0.77344 0.0
H189 H 0.72354 0.32905 0.6792 0.0
C190 C 0.74753 0.2226 0.68986 0.0
N191 N 0.82719 0.22177 0.75713 0.0
C192 C 0.85259 0.21786 0.73641 0.0
C193 C 0.83497 0.2027 0.78369 0.0
N194 N 0.87612 0.1976 0.74876 0.0
C195 C 0.86498 0.18716 0.77829 0.0
C196 C 0.7265 0.22061 0.77793 0.0
O197 O 0.7324 0.24934 0.69825 0.0
O198 O 0.77427 0.21617 0.70839 0.0
O199 O 0.75841 0.21513 0.77381 0.0
O200 O 0.71628 0.24762 0.76362 0.0
O201 O 0.80697 0.279 0.78669 0.0
H202 H 0.81949 0.1997 0.80518 0.0
H203 H 0.85294 0.22817 0.71172 0.0
O204 O 0.76553 0.31253 0.77592 0.0
O205 O 0.78107 0.31303 0.71032 0.0
O206 O 0.8233 0.28122 0.72139 0.0
C207 C 0.81308 0.30786 0.70665 0.0
H208 H 0.67525 0.37085 0.693 0.0
H209 H 0.87719 0.16922 0.79431 0.0
Co210 Co 0.74267 0.73565 0.74106 0.0
C211 C 0.73786 0.78741 0.79328 0.0
Co212 Co 0.78848 0.78192 0.74774 0.0
C213 C 0.68259 0.68439 0.75877 0.0
C214 C 0.68804 0.67833 0.70639 0.0
N215 N 0.70317 0.69787 0.73489 0.0
N216 N 0.65522 0.65743 0.74645 0.0
C217 C 0.65866 0.65303 0.71354 0.0
H218 H 0.688 0.69354 0.78498 0.0
H219 H 0.69771 0.6822 0.68201 0.0
C220 C 0.7939 0.73068 0.69553 0.0
N221 N 0.82812 0.81929 0.75425 0.0
C222 C 0.84438 0.83899 0.73076 0.0
C223 C 0.84975 0.82956 0.78278 0.0
N224 N 0.87554 0.86068 0.74336 0.0
C225 C 0.87921 0.85489 0.77607 0.0
C226 C 0.79895 0.72101 0.78436 0.0
O227 O 0.76397 0.71441 0.7045 0.0
O228 O 0.80895 0.76113 0.71086 0.0
O229 O 0.81307 0.75309 0.77704 0.0
O230 O 0.76709 0.70743 0.7717 0.0
O231 O 0.76828 0.80274 0.78474 0.0
H232 H 0.84507 0.81836 0.80667 0.0
H233 H 0.83449 0.83613 0.70457 0.0
O234 O 0.72191 0.75755 0.77745 0.0
O235 O 0.71826 0.76364 0.71113 0.0
O236 O 0.76315 0.81059 0.7179 0.0
C237 C 0.7315 0.79639 0.70485 0.0
H238 H 0.64117 0.63313 0.69606 0.0
H239 H 0.90172 0.8677 0.79361 0.0
C240 C 0.96531 0.10477 0.54593 0.0
C241 C 0.95976 0.0735 0.44016 0.0
C242 C 0.9661 0.93678 0.48729 0.0
Mg243 Mg 0.02232 0.09226 0.4974 0.0
O244 O 1.00994 0.04582 0.51392 0.0
Mg245 Mg 0.95832 0.02097 0.5075 0.0
Mg246 Mg 0.03423 1.00441 0.50106 0.0
O247 O 0.05813 0.96318 0.48779 0.0
Mg248 Mg 0.045 0.91603 0.50265 0.0
Mg249 Mg 0.10985 0.98737 0.4928 0.0
C250 C 0.10188 0.07236 0.51569 0.0
C251 C 0.06919 0.02419 0.43213 0.0
O252 O 0.94698 0.07278 0.53605 0.0
O253 O 0.99561 0.1177 0.53492 0.0
O254 O 0.94593 0.04699 0.45708 0.0
O255 O 0.99055 0.09336 0.44984 0.0
O256 O 0.08133 0.09523 0.50646 0.0
O257 O 0.08948 0.03801 0.51836 0.0
C258 C 0.99859 0.98616 0.5696 0.0
O259 O 0.02623 0.98432 0.55357 0.0
O260 O 0.97114 0.99814 0.55688 0.0
O261 O 0.11916 0.93591 0.46154 0.0
O262 O 0.0699 0.89189 0.46337 0.0
O263 O 0.12279 0.95866 0.54227 0.0
C264 C 0.09946 0.90471 0.45107 0.0
O265 O 0.07714 0.91314 0.54933 0.0
O266 O 0.98597 0.913 0.49544 0.0
C267 C 0.10857 0.93179 0.55871 0.0
O268 O 0.97945 0.97068 0.48407 0.0
O269 O 0.04174 0.02459 0.44874 0.0
O270 O 0.09708 0.01244 0.44413 0.0
C271 C 0.43386 0.10748 0.03073 0.0
C272 C 0.47284 0.08547 0.93117 0.0
C273 C 0.45735 0.94838 0.95761 0.0
Mg274 Mg 0.50795 0.10154 0.0025 0.0
O275 O 0.49195 0.05138 0.01055 0.0
Mg276 Mg 0.44283 0.02737 0.98853 0.0
Mg277 Mg 0.52027 0.0142 0.9937 0.0
O278 O 0.54859 0.97702 0.97696 0.0
Mg279 Mg 0.53222 0.9271 0.98533 0.0
Mg280 Mg 0.59741 1.0004 -0.00013 0.0
C281 C 0.58316 0.07966 0.03027 0.0
C282 C 0.58192 0.05487 0.94122 0.0
O283 O 0.42105 0.07482 0.01742 0.0
O284 O 0.46667 0.12322 0.02836 0.0
O285 O 0.45156 0.05984 0.94318 0.0
O286 O 0.49867 0.10615 0.94914 0.0
O287 O 0.5644 0.10477 0.02344 0.0
O288 O 0.57011 0.04504 0.02512 0.0
C289 C 0.45983 0.97445 0.04765 0.0
O290 O 0.49249 0.97693 0.03836 0.0
O291 O 0.43757 0.99219 0.03303 0.0
O292 O 0.61919 0.95247 0.97105 0.0
O293 O 0.57305 0.90452 0.96038 0.0
O294 O 0.588 0.96762 0.04522 0.0
C295 C 0.60598 0.91971 0.95807 0.0
O296 O 0.54036 0.92198 0.0383 0.0
O297 O 0.47632 0.9235 0.96435 0.0
C298 C 0.56615 0.94204 0.05672 0.0
O299 O 0.47012 0.98306 0.96266 0.0
O300 O 0.54866 0.05174 0.94916 0.0
O301 O 0.60351 0.03659 0.9562 0.0
C302 C 0.9393 0.61035 0.06049 0.0
C303 C 0.94183 0.59332 0.95358 0.0
C304 C 0.9422 0.44827 0.97909 0.0
Mg305 Mg 1.0001 0.60229 0.01439 0.0
O306 O 0.98662 0.55278 0.02272 0.0
Mg307 Mg 0.93449 0.5298 0.01273 0.0
Mg308 Mg 1.01082 0.51376 0.0028 0.0
O309 O 0.0347 0.47405 0.98325 0.0
Mg310 Mg 1.02094 0.42517 0.99427 0.0
Mg311 Mg 0.08676 0.49676 0.99342 0.0
C312 C 0.07923 0.57918 0.02591 0.0
C313 C 0.04838 0.54389 0.93912 0.0
O314 O 0.92163 0.57884 0.04787 0.0
O315 O 0.97093 0.62375 0.05251 0.0
O316 O 0.92563 0.56451 0.96629 0.0
O317 O 0.97221 0.61108 0.96698 0.0
O318 O 0.05876 0.60356 0.02241 0.0
O319 O 0.06645 0.54436 0.02379 0.0
C320 C 0.97322 0.48187 0.06598 0.0
O321 O 1.00097 0.48522 0.04947 0.0
O322 O 0.94545 0.49601 0.05724 0.0
O323 O 0.09919 0.44689 0.95984 0.0
O324 O 0.05135 0.40069 0.95864 0.0
O325 O 0.09598 0.46271 0.0403 0.0
C326 C 0.08253 0.41416 0.94959 0.0
O327 O 0.04816 0.41812 0.04259 0.0
O328 O 0.96223 0.42372 0.98405 0.0
C329 C 0.07961 0.43494 0.05433 0.0
O330 O 0.95519 0.48306 0.98146 0.0
O331 O 0.02104 0.54269 0.95605 0.0
O332 O 0.07541 0.52866 0.94785 0.0
C333 C 0.45332 0.59469 0.04562 0.0
C334 C 0.45532 0.5681 0.93979 0.0
C335 C 0.47381 0.43157 0.98281 0.0
Mg336 Mg 0.51408 0.58883 -0.00075 0.0
O337 O 0.5043 0.54186 0.01516 0.0
Mg338 Mg 0.45453 0.51279 0.00595 0.0
Mg339 Mg 0.5343 0.50501 0.0037 0.0
O340 O 0.56479 0.46859 0.99198 0.0
Mg341 Mg 0.55592 0.41972 0.00299 0.0
Mg342 Mg 0.61408 0.4986 0.00314 0.0
C343 C 0.59496 0.57814 0.02262 0.0
C344 C 0.57449 0.53172 0.93929 0.0
O345 O 0.43742 0.56164 0.03587 0.0
O346 O 0.48272 0.61012 0.03451 0.0
O347 O 0.44203 0.54058 0.9559 0.0
O348 O 0.48523 0.58896 0.95049 0.0
O349 O 0.57294 0.59877 0.01173 0.0
O350 O 0.58496 0.5435 0.02559 0.0
C351 C 0.49516 0.47936 0.06888 0.0
O352 O 0.5244 0.48191 0.0545 0.0
O353 O 0.46671 0.4886 0.05506 0.0
O354 O 0.63481 0.45299 0.9741 0.0
O355 O 0.58989 0.40352 0.96675 0.0
O356 O 0.62458 0.46895 0.05268 0.0
C357 C 0.62049 0.4213 0.95992 0.0
O358 O 0.58308 0.41759 0.05209 0.0
O359 O 0.49692 0.41075 0.99056 0.0
C360 C 0.61129 0.43916 0.06586 0.0
O361 O 0.48295 0.46673 0.98228 0.0
O362 O 0.54469 0.52786 0.95293 0.0
O363 O 0.60315 0.52366 0.95393 0.0
C364 C 0.93185 0.60624 0.52985 0.0
C365 C 0.97116 0.58273 0.4303 0.0
C366 C 0.95729 0.44623 0.46007 0.0
Mg367 Mg 1.00593 0.60094 0.50164 0.0
O368 O 0.99106 0.55078 0.51003 0.0
Mg369 Mg 0.94196 0.52571 0.48879 0.0
Mg370 Mg 1.01978 0.51405 0.49293 0.0
O371 O 0.04857 0.4772 0.47622 0.0
Mg372 Mg 0.03388 0.42774 0.4867 0.0
Mg373 Mg 0.09783 0.50233 0.49713 0.0
C374 C 0.0824 0.58142 0.52816 0.0
C375 C 0.07814 0.55318 0.43714 0.0
O376 O 0.91952 0.57326 0.51708 0.0
O377 O 0.96443 0.6224 0.52716 0.0
O378 O 0.94989 0.55716 0.44248 0.0
O379 O 0.99657 0.60402 0.44826 0.0
O380 O 0.0625 0.60583 0.52243 0.0
O381 O 0.07015 0.54672 0.52222 0.0
C382 C 0.96137 0.47461 0.54852 0.0
O383 O 0.99384 0.47755 0.53869 0.0
O384 O 0.9383 0.49159 0.53408 0.0
O385 O 0.11971 0.45425 0.46925 0.0
O386 O 0.07445 0.40517 0.46124 0.0
O387 O 0.09146 0.47142 0.54378 0.0
C388 C 0.10691 0.42092 0.45761 0.0
O389 O 0.04437 0.4253 0.53987 0.0
O390 O 0.9772 0.42227 0.46729 0.0
C391 C 0.07071 0.44625 0.55688 0.0
O392 O 0.9694 0.48116 0.46355 0.0
O393 O 0.04573 0.55053 0.44705 0.0
O394 O 0.10106 0.53605 0.45162 0.0
C395 C 0.43598 0.10176 0.56135 0.0
C396 C 0.44083 0.09093 0.45408 0.0
C397 C 0.44217 0.94464 0.47391 0.0
Mg398 Mg 0.49804 0.09768 0.51556 0.0
O399 O 0.48484 0.04747 0.52177 0.0
Mg400 Mg 0.43298 0.02403 0.51027 0.0
Mg401 Mg 0.50988 0.00996 0.5006 0.0
O402 O 0.53468 0.97174 0.47992 0.0
Mg403 Mg 0.52104 0.9223 0.48903 0.0
Mg404 Mg 0.58643 0.99459 0.49199 0.0
C405 C 0.57737 0.07509 0.52615 0.0
C406 C 0.54877 0.0437 0.43893 0.0
O407 O 0.41896 0.07066 0.54725 0.0
O408 O 0.46764 0.11634 0.55422 0.0
O409 O 0.42468 0.06127 0.46551 0.0
O410 O 0.47089 0.10848 0.46836 0.0
O411 O 0.55696 0.09961 0.52346 0.0
O412 O 0.56473 0.0403 0.52328 0.0
C413 C 0.47105 0.97328 0.56121 0.0
O414 O 0.49937 0.97856 0.54554 0.0
O415 O 0.44316 0.98744 0.55293 0.0
O416 O 0.60072 0.94611 0.45769 0.0
O417 O 0.55199 0.90049 0.45259 0.0
O418 O 0.59452 0.95919 0.53784 0.0
C419 C 0.58385 0.91419 0.44536 0.0
O420 O 0.5474 0.91324 0.53728 0.0
O421 O 0.46249 0.92025 0.47824 0.0
C422 C 0.57813 0.93045 0.55047 0.0
O423 O 0.45482 0.97948 0.47751 0.0
O424 O 0.521 0.04151 0.45539 0.0
O425 O 0.57576 0.02824 0.44739 0.0
H426 H 0.12822 0.18417 0.30133 0.0
H427 H 0.12641 0.08741 0.23587 0.0
H428 H 0.09455 0.14655 0.34026 0.0
H429 H 0.09221 0.04944 0.27477 0.0
H430 H 0.10936 1.00627 0.38295 0.0
H431 H 0.11806 0.03583 0.33104 0.0
H432 H 0.03884 0.10309 0.35286 0.0
H433 H 0.03014 0.07326 0.40522 0.0
C434 C 0.11983 0.15489 0.29501 0.0
C435 C 0.13044 0.13846 0.26607 0.0
C436 C 0.10016 0.13341 0.31703 0.0
C437 C 0.09103 0.09503 0.31064 0.0
C438 C 0.09915 0.07897 0.28035 0.0
C439 C 0.11856 0.10061 0.2581 0.0
C440 C 0.09332 0.02693 0.37645 0.0
C441 C 0.06964 0.03812 0.39848 0.0
C442 C 0.09795 0.04352 0.34646 0.0
C443 C 0.07925 0.07189 0.338 0.0
C444 C 0.05373 0.0814 0.35893 0.0
C445 C 0.04876 0.06438 0.38886 0.0
H446 H 0.78247 0.15713 0.33567 0.0
H447 H 0.86839 0.17811 0.27079 0.0
H448 H 0.81976 0.1237 0.37134 0.0
H449 H 0.90494 0.14447 0.30556 0.0
H450 H 0.97843 0.12875 0.3982 0.0
H451 H 0.93884 0.15402 0.35851 0.0
H452 H 0.8491 0.07045 0.37803 0.0
H453 H 0.88869 0.04547 0.41834 0.0
C454 C 0.80891 0.15398 0.32861 0.0
C455 C 0.82238 0.17061 0.30042 0.0
C456 C 0.8304 0.1348 0.34906 0.0
C457 C 0.86582 0.13173 0.34177 0.0
C458 C 0.87834 0.14691 0.31265 0.0
C459 C 0.85709 0.16605 0.29245 0.0
C460 C 0.95041 0.11531 0.39375 0.0
C461 C 0.93699 0.08499 0.41173 0.0
C462 C 0.92755 0.12983 0.3708 0.0
C463 C 0.89044 0.11454 0.36499 0.0
C464 C 0.87727 0.08342 0.38211 0.0
C465 C 0.9002 0.06879 0.40502 0.0
H466 H 0.85337 0.77883 0.35636 0.0
H467 H 0.79938 0.86782 0.32791 0.0
H468 H 0.8796 0.81434 0.40764 0.0
H469 H 0.82354 0.9027 0.38033 0.0
H470 H 0.92264 0.87232 0.49927 0.0
H471 H 0.87309 0.83956 0.46056 0.0
H472 H 0.87809 0.93605 0.40339 0.0
H473 H 0.92541 0.96909 0.44304 0.0
C474 C 0.84697 0.80597 0.36134 0.0
C475 C 0.82523 0.82106 0.33799 0.0
C476 C 0.86135 0.82612 0.39105 0.0
C477 C 0.8535 0.86144 0.39842 0.0
C478 C 0.83065 0.87591 0.37533 0.0
C479 C 0.817 0.85608 0.34522 0.0
C480 C 0.91194 0.8869 0.47923 0.0
C481 C 0.92868 0.92272 0.47342 0.0
C482 C 0.88389 0.86804 0.45678 0.0
C483 C 0.8729 0.8845 0.42788 0.0
C484 C 0.88601 0.92216 0.42505 0.0
C485 C 0.91339 0.94126 0.44792 0.0
H486 H 0.10607 0.78424 0.26165 0.0
H487 H 0.15783 0.89574 0.25005 0.0
H488 H 0.0879 0.80291 0.31556 0.0
H489 H 0.13842 0.91536 0.30357 0.0
H490 H 0.15926 0.92114 0.41666 0.0
H491 H 0.1637 0.90415 0.35813 0.0
H492 H 0.05765 0.83593 0.3524 0.0
H493 H 0.05381 0.85155 0.41111 0.0
C494 C 0.11157 0.81324 0.2699 0.0
C495 C 0.13363 0.83851 0.25218 0.0
C496 C 0.1015 0.82396 0.30092 0.0
C497 C 0.11292 0.86038 0.31439 0.0
C498 C 0.13036 0.88679 0.29429 0.0
C499 C 0.14069 0.87587 0.2633 0.0
C500 C 0.13724 0.90187 0.40312 0.0
C501 C 0.1062 0.88781 0.41864 0.0
C502 C 0.13942 0.89275 0.36936 0.0
C503 C 0.1105 0.86961 0.35032 0.0
C504 C 0.08031 0.85399 0.36627 0.0
C505 C 0.0783 0.86275 0.4001 0.0
H506 H 0.28086 0.83377 0.6567 0.0
H507 H 0.19461 0.81414 0.72135 0.0
H508 H 0.24563 0.87068 0.62264 0.0
H509 H 0.16031 0.85139 0.68845 0.0
H510 H 0.08797 0.87592 0.59928 0.0
H511 H 0.1261 0.84645 0.6366 0.0
H512 H 0.21937 0.92582 0.61742 0.0
H513 H 0.18106 0.95495 0.57912 0.0
C514 C 0.25474 0.83779 0.66399 0.0
C515 C 0.24054 0.82056 0.69163 0.0
C516 C 0.23448 0.85906 0.64451 0.0
C517 C 0.19962 0.86375 0.65231 0.0
C518 C 0.18643 0.84778 0.68088 0.0
C519 C 0.20638 0.82649 0.70002 0.0
C520 C 0.11649 0.88759 0.6033 0.0
C521 C 0.13117 0.91802 0.58599 0.0
C522 C 0.13855 0.87062 0.62493 0.0
C523 C 0.17615 0.88349 0.63022 0.0
C524 C 0.19073 0.91467 0.61375 0.0
C525 C 0.16858 0.93173 0.59204 0.0
H526 H 0.23645 0.15134 0.69553 0.0
H527 H 0.1809 0.23545 0.65767 0.0
H528 H 0.2225 0.11587 0.64215 0.0
H529 H 0.16446 0.19879 0.60475 0.0
H530 H 0.13809 0.04269 0.5655 0.0
H531 H 0.17452 0.07879 0.61164 0.0
H532 H 0.18238 0.17568 0.55482 0.0
H533 H 0.14365 0.13955 0.50911 0.0
C534 C 0.22035 0.16174 0.67594 0.0
C535 C 0.20888 0.19566 0.68088 0.0
C536 C 0.21257 0.14151 0.64522 0.0
C537 C 0.19233 0.15428 0.61894 0.0
C538 C 0.18086 0.18836 0.62403 0.0
C539 C 0.18952 0.20909 0.65456 0.0
C540 C 0.14873 0.07135 0.5622 0.0
C541 C 0.13678 0.08866 0.53425 0.0
C542 C 0.16972 0.09228 0.5889 0.0
C543 C 0.17998 0.13067 0.58764 0.0
C544 C 0.17338 0.14653 0.55725 0.0
C545 C 0.15173 0.1257 0.53079 0.0
H546 H 0.92455 0.23982 0.71596 0.0
H547 H 0.88535 0.12758 0.73737 0.0
H548 H 0.95163 0.21838 0.66738 0.0
H549 H 0.91319 0.10561 0.68907 0.0
H550 H 0.90227 0.08808 0.57515 0.0
H551 H 0.89017 0.1099 0.63035 0.0
H552 H 0.99305 0.18413 0.6409 0.0
H553 H 1.00512 0.16276 0.58531 0.0
C554 C 0.92335 0.21049 0.71102 0.0
C555 C 0.90267 0.18523 0.72984 0.0
C556 C 0.9387 0.19819 0.68322 0.0
C557 C 0.93355 0.16037 0.67398 0.0
C558 C 0.91671 0.135 0.69529 0.0
C559 C 0.90136 0.14741 0.72318 0.0
C560 C 0.92213 0.10944 0.58897 0.0
C561 C 0.95471 0.12356 0.57582 0.0
C562 C 0.91548 0.12145 0.62085 0.0
C563 C 0.94121 0.14785 0.64028 0.0
C564 C 0.97294 0.16345 0.62656 0.0
C565 C 0.97963 0.15145 0.59457 0.0
H566 H 0.85863 0.90466 0.6962 0.0
H567 H 0.94826 0.86702 0.74835 0.0
H568 H 0.89988 0.94006 0.66123 0.0
H569 H 0.99002 0.90225 0.7127 0.0
H570 H 1.01529 0.92275 0.59386 0.0
H571 H 0.99291 0.89557 0.64437 0.0
H572 H 0.9548 0.99573 0.67155 0.0
H573 H 0.97658 0.02248 0.62132 0.0
C574 C 0.88729 0.90432 0.70024 0.0
C575 C 0.90044 0.8834 0.72481 0.0
C576 C 0.91089 0.92466 0.68049 0.0
C577 C 0.94808 0.92401 0.68461 0.0
C578 C 0.96145 0.90325 0.70933 0.0
C579 C 0.93774 0.88339 0.72967 0.0
C580 C 1.00354 0.93935 0.61147 0.0
C581 C 0.99693 0.97428 0.60369 0.0
C582 C 0.9908 0.9239 0.64027 0.0
C583 C 0.97164 0.94348 0.66129 0.0
C584 C 0.96912 0.98004 0.65543 0.0
C585 C 0.98155 0.99527 0.62677 0.0
H586 H 0.26711 0.17399 0.15022 0.0
H587 H 0.36583 0.24987 0.18273 0.0
H588 H 0.29805 0.14574 0.10754 0.0
H589 H 0.39724 0.22068 0.14156 0.0
H590 H 0.44238 0.18126 0.04928 0.0
H591 H 0.40717 0.21194 0.08619 0.0
H592 H 0.33915 0.10723 0.09809 0.0
H593 H 0.37329 0.07707 0.05975 0.0
C594 C 0.29547 0.18456 0.14834 0.0
C595 C 0.31389 0.21427 0.16992 0.0
C596 C 0.3134 0.16816 0.12397 0.0
C597 C 0.35043 0.18066 0.12079 0.0
C598 C 0.36866 0.21054 0.14245 0.0
C599 C 0.35063 0.22722 0.16641 0.0
C600 C 0.41967 0.16485 0.05951 0.0
C601 C 0.41077 0.12664 0.05147 0.0
C602 C 0.39955 0.18242 0.08104 0.0
C603 C 0.37027 0.16224 0.09575 0.0
C604 C 0.36101 0.12406 0.0871 0.0
C605 C 0.38079 0.1066 0.06511 0.0
H606 H 0.96407 0.3492 0.23528 0.0
H607 H 0.90698 0.28283 0.14942 0.0
H608 H 0.99087 0.39489 0.19862 0.0
H609 H 0.9336 0.32878 0.11285 0.0
H610 H 0.91305 0.44692 0.09118 0.0
H611 H 0.90934 0.39586 0.12724 0.0
H612 H 0.0256 0.40769 0.137 0.0
H613 H 0.02966 0.45938 0.1008 0.0
C614 C 0.95866 0.34352 0.20852 0.0
C615 C 0.93265 0.31324 0.19501 0.0
C616 C 0.97403 0.36961 0.18765 0.0
C617 C 0.96346 0.3653 0.15334 0.0
C618 C 0.94164 0.33251 0.13946 0.0
C619 C 0.92633 0.30649 0.16026 0.0
C620 C 0.93788 0.43922 0.10147 0.0
C621 C 0.97158 0.45666 0.09288 0.0
C622 C 0.93572 0.40976 0.12163 0.0
C623 C 0.96719 0.3976 0.13371 0.0
C624 C 1.00111 0.41648 0.12724 0.0
C625 C 1.0033 0.4459 0.10674 0.0
H626 H 0.66445 0.85496 0.22672 0.0
H627 H 0.73418 0.93529 0.17597 0.0
H628 H 0.61158 0.87554 0.20071 0.0
H629 H 0.68137 0.95677 0.15104 0.0
H630 H 0.55941 0.87591 0.08489 0.0
H631 H 0.59313 0.86537 0.13679 0.0
H632 H 0.62347 0.98292 0.15923 0.0
H633 H 0.58971 0.99334 0.10751 0.0
C634 C 0.66854 0.8774 0.21042 0.0
C635 C 0.7034 0.89267 0.20229 0.0
C636 C 0.63827 0.88942 0.19598 0.0
C637 C 0.64246 0.91743 0.17379 0.0
C638 C 0.67743 0.93528 0.16839 0.0
C639 C 0.7077 0.92293 0.1825 0.0
C640 C 0.57176 0.89935 0.10176 0.0
C641 C 0.57321 0.93534 0.09195 0.0
C642 C 0.591 0.89341 0.13148 0.0
C643 C 0.61159 0.92347 0.15138 0.0
C644 C 0.60829 0.9594 0.14394 0.0
C645 C 0.58913 0.96529 0.11436 0.0
H646 H 0.21724 0.64785 0.19224 0.0
H647 H 0.25757 0.73101 0.12678 0.0
H648 H 0.18722 0.60809 0.14427 0.0
H649 H 0.22995 0.69046 0.0782 0.0
H650 H 0.11805 0.64741 0.02063 0.0
H651 H 0.17084 0.67639 0.05615 0.0
H652 H 0.18127 0.57108 0.09444 0.0
H653 H 0.12661 0.54227 0.05964 0.0
C654 C 0.2207 0.65688 0.16732 0.0
C655 C 0.23908 0.69236 0.16288 0.0
C656 C 0.20381 0.63403 0.1397 0.0
C657 C 0.20552 0.64617 0.10712 0.0
C658 C 0.22709 0.68052 0.10285 0.0
C659 C 0.24314 0.7037 0.13055 0.0
C660 C 0.1321 0.63017 0.03595 0.0
C661 C 0.11748 0.59281 0.03812 0.0
C662 C 0.16283 0.6468 0.0563 0.0
C663 C 0.18001 0.62637 0.07909 0.0
C664 C 0.16807 0.58793 0.078 0.0
C665 C 0.13697 0.57127 0.05772 0.0
H666 H 0.31565 0.77508 0.85796 0.0
H667 H 0.28928 0.86328 0.80035 0.0
H668 H 0.34684 0.81951 0.90195 0.0
H669 H 0.3186 0.90845 0.84526 0.0
H670 H 0.42888 0.96877 0.89905 0.0
H671 H 0.37771 0.93351 0.8639 0.0
H672 H 0.35153 0.86392 0.94498 0.0
H673 H 0.40456 0.89784 0.97893 0.0
C674 C 0.31528 0.8041 0.85554 0.0
C675 C 0.30003 0.81597 0.82617 0.0
C676 C 0.33304 0.82978 0.88082 0.0
C677 C 0.33565 0.86796 0.87733 0.0
C678 C 0.31787 0.87947 0.84868 0.0
C679 C 0.30066 0.85369 0.82312 0.0
C680 C 0.41139 0.94668 0.90957 0.0
C681 C 0.42068 0.93564 0.94139 0.0
C682 C 0.3819 0.92633 0.88946 0.0
C683 C 0.36078 0.89497 0.90114 0.0
C684 C 0.36784 0.88692 0.93459 0.0
C685 C 0.3979 0.90663 0.95428 0.0
H686 H 0.18087 0.33122 0.78125 0.0
H687 H 0.18147 0.24465 0.8493 0.0
H688 H 0.14925 0.36429 0.81947 0.0
H689 H 0.14934 0.27817 0.88789 0.0
H690 H 0.06316 0.33992 0.93278 0.0
H691 H 0.09048 0.30206 0.89408 0.0
H692 H 0.16806 0.39769 0.87549 0.0
H693 H 0.14091 0.43561 0.91413 0.0
C694 C 0.17374 0.31886 0.80417 0.0
C695 C 0.18392 0.28524 0.81219 0.0
C696 C 0.15586 0.3381 0.82625 0.0
C697 C 0.14736 0.32425 0.85701 0.0
C698 C 0.15558 0.28959 0.86437 0.0
C699 C 0.17384 0.27031 0.84221 0.0
C700 C 0.08607 0.35294 0.92046 0.0
C701 C 0.09969 0.39098 0.92651 0.0
C702 C 0.10183 0.33111 0.89843 0.0
C703 C 0.13128 0.34685 0.88154 0.0
C704 C 0.14508 0.38478 0.88778 0.0
C705 C 0.12963 0.40652 0.91009 0.0
H706 H 0.73874 0.15781 0.80783 0.0
H707 H 0.65848 0.22731 0.79825 0.0
H708 H 0.70187 0.11936 0.84383 0.0
H709 H 0.62153 0.18914 0.83554 0.0
H710 H 0.55064 0.09358 0.8899 0.0
H711 H 0.58265 0.13285 0.84965 0.0
H712 H 0.68465 0.11617 0.89694 0.0
H713 H 0.65365 0.07746 0.9354 0.0
C714 C 0.71321 0.16517 0.81345 0.0
C715 C 0.70222 0.19626 0.79978 0.0
C716 C 0.69182 0.143 0.83466 0.0
C717 C 0.65827 0.15081 0.84378 0.0
C718 C 0.6468 0.18155 0.82949 0.0
C719 C 0.6683 0.20377 0.80801 0.0
C720 C 0.57988 0.09825 0.89161 0.0
C721 C 0.59896 0.08114 0.91614 0.0
C722 C 0.5985 0.12103 0.8684 0.0
C723 C 0.63688 0.12764 0.86886 0.0
C724 C 0.65542 0.11135 0.89416 0.0
C725 C 0.63714 0.08886 0.91685 0.0
H726 H 0.87206 0.73186 0.79877 0.0
H727 H 0.77377 0.66233 0.82091 0.0
H728 H 0.90719 0.69868 0.83548 0.0
H729 H 0.80865 0.63028 0.85958 0.0
H730 H 0.88105 0.56109 0.91259 0.0
H731 H 0.84749 0.58948 0.86993 0.0
H732 H 0.92494 0.69096 0.88945 0.0
H733 H 0.95921 0.66193 0.93031 0.0
C734 C 0.85786 0.70963 0.81181 0.0
C735 C 0.81999 0.69996 0.80692 0.0
C736 C 0.87809 0.69062 0.83326 0.0
C737 C 0.86114 0.66171 0.85127 0.0
C738 C 0.82311 0.65185 0.84605 0.0
C739 C 0.8029 0.67047 0.82398 0.0
C740 C 0.89119 0.5893 0.90735 0.0
C741 C 0.92303 0.60905 0.92501 0.0
C742 C 0.87162 0.60587 0.88304 0.0
C743 C 0.88298 0.64293 0.87593 0.0
C744 C 0.91527 0.66229 0.8933 0.0
C745 C 0.93506 0.64557 0.91712 0.0
H746 H 0.16054 0.28806 0.19601 0.0
H747 H 0.25633 0.35816 0.16925 0.0
H748 H 0.12296 0.32341 0.16446 0.0
H749 H 0.21874 0.39245 0.13534 0.0
H750 H 0.1439 0.46478 0.0914 0.0
H751 H 0.18047 0.43403 0.12959 0.0
H752 H 0.09928 0.33494 0.11396 0.0
H753 H 0.06219 0.36642 0.07787 0.0
C754 C 0.17366 0.3108 0.18286 0.0
C755 C 0.21159 0.31996 0.18504 0.0
C756 C 0.15194 0.33115 0.16437 0.0
C757 C 0.16726 0.36099 0.14653 0.0
C758 C 0.20543 0.37022 0.14888 0.0
C759 C 0.22722 0.35028 0.16814 0.0
C760 C 0.13356 0.43665 0.09671 0.0
C761 C 0.09985 0.4183 0.08144 0.0
C762 C 0.15489 0.41865 0.11838 0.0
C763 C 0.14353 0.38145 0.1251 0.0
C764 C 0.10926 0.3636 0.11037 0.0
C765 C 0.08774 0.38178 0.08929 0.0
H766 H 0.09569 0.64601 0.75592 0.0
H767 H 0.14687 0.71514 0.84252 0.0
H768 H 0.05637 0.60884 0.79132 0.0
H769 H 0.10731 0.67797 0.87798 0.0
H770 H 0.02583 0.60887 0.93267 0.0
H771 H 0.0379 0.65063 0.88814 0.0
H772 H 0.08762 0.57 0.83634 0.0
H773 H 0.07578 0.52844 0.88098 0.0
C774 C 0.09762 0.65399 0.78237 0.0
C775 C 0.12451 0.68299 0.7968 0.0
C776 C 0.07515 0.6328 0.80247 0.0
C777 C 0.07903 0.64078 0.83708 0.0
C778 C 0.10372 0.67171 0.85118 0.0
C779 C 0.12657 0.69258 0.83112 0.0
C780 C 0.03809 0.59966 0.91115 0.0
C781 C 0.05004 0.56576 0.91002 0.0
C782 C 0.04504 0.62349 0.88587 0.0
C783 C 0.06343 0.61321 0.85906 0.0
C784 C 0.0729 0.57813 0.85669 0.0
C785 C 0.06655 0.55463 0.88226 0.0
H786 H 0.29436 0.07743 0.83914 0.0
H787 H 0.3446 0.15795 0.77553 0.0
H788 H 0.3529 0.0597 0.85309 0.0
H789 H 0.40298 0.14087 0.78987 0.0
H790 H 0.47119 0.15065 0.90284 0.0
H791 H 0.43034 0.15629 0.85395 0.0
H792 H 0.41252 0.03844 0.83244 0.0
H793 H 0.45394 0.03296 0.88081 0.0
C794 C 0.31758 0.09015 0.82708 0.0
C795 C 0.31496 0.11914 0.80652 0.0
C796 C 0.35102 0.07998 0.83484 0.0
C797 C 0.38235 0.09918 0.82257 0.0
C798 C 0.37917 0.12563 0.79944 0.0
C799 C 0.34565 0.13526 0.79121 0.0
C800 C 0.46042 0.12636 0.88641 0.0
C801 C 0.46461 0.09133 0.89588 0.0
C802 C 0.43698 0.12949 0.85845 0.0
C803 C 0.41771 0.09757 0.84014 0.0
C804 C 0.42681 0.06329 0.84645 0.0
C805 C 0.45042 0.06023 0.87411 0.0
H806 H 0.83957 0.29126 0.84417 0.0
H807 H 0.774 0.37184 0.81678 0.0
H808 H 0.86406 0.32877 0.89461 0.0
H809 H 0.79877 0.40984 0.86812 0.0
H810 H 0.90599 0.48006 0.93048 0.0
H811 H 0.85945 0.44646 0.88906 0.0
H812 H 0.84926 0.35196 0.94868 0.0
H813 H 0.89661 0.38513 0.98944 0.0
C814 C 0.83011 0.31692 0.84907 0.0
C815 C 0.80507 0.32869 0.82627 0.0
C816 C 0.84384 0.33828 0.87831 0.0
C817 C 0.83307 0.37216 0.88566 0.0
C818 C 0.80753 0.38383 0.86317 0.0
C819 C 0.79342 0.36212 0.83382 0.0
C820 C 0.89266 0.45271 0.93547 0.0
C821 C 0.90546 0.43484 0.96275 0.0
C822 C 0.866 0.43338 0.91165 0.0
C823 C 0.85158 0.39612 0.91507 0.0
C824 C 0.86069 0.38028 0.94488 0.0
C825 C 0.88757 0.39937 0.96839 0.0
H826 H 0.7684 0.84418 0.83905 0.0
H827 H 0.66763 0.77084 0.80814 0.0
H828 H 0.73911 0.87459 0.88156 0.0
H829 H 0.63785 0.80222 0.84934 0.0
H830 H 0.59607 0.84554 0.94189 0.0
H831 H 0.62965 0.8126 0.90524 0.0
H832 H 0.69936 0.91524 0.8899 0.0
H833 H 0.66669 0.9478 0.92796 0.0
C834 C 0.73993 0.83459 0.84128 0.0
C835 C 0.72041 0.80502 0.82016 0.0
C836 C 0.72298 0.85226 0.86555 0.0
C837 C 0.68587 0.84118 0.86912 0.0
C838 C 0.66653 0.81131 0.84805 0.0
C839 C 0.6836 0.79335 0.82412 0.0
C840 C 0.61881 0.86104 0.93097 0.0
C841 C 0.62858 0.89939 0.93789 0.0
C842 C 0.63797 0.84214 0.9096 0.0
C843 C 0.66716 0.86108 0.89399 0.0
C844 C 0.67744 0.89939 0.90161 0.0
C845 C 0.65858 0.91822 0.92343 0.0
H846 H 0.87712 0.71665 0.23989 0.0
H847 H 0.81727 0.75815 0.15901 0.0
H848 H 0.9065 0.68272 0.1994 0.0
H849 H 0.846 0.72353 0.11851 0.0
H850 H 0.86744 0.61113 0.0671 0.0
H851 H 0.84188 0.64999 0.10684 0.0
H852 H 0.94925 0.69771 0.15002 0.0
H853 H 0.97485 0.65979 0.10998 0.0
C854 C 0.87087 0.71911 0.21346 0.0
C855 C 0.8453 0.74043 0.20262 0.0
C856 C 0.88752 0.6996 0.19031 0.0
C857 C 0.87824 0.70021 0.15582 0.0
C858 C 0.85346 0.72237 0.14494 0.0
C859 C 0.83746 0.74262 0.1681 0.0
C860 C 0.88554 0.62985 0.08511 0.0
C861 C 0.92317 0.63237 0.08532 0.0
C862 C 0.87095 0.65227 0.10767 0.0
C863 C 0.89364 0.67698 0.1314 0.0
C864 C 0.93115 0.67894 0.13203 0.0
C865 C 0.94575 0.65724 0.10903 0.0
H866 H 0.29349 0.86282 0.16563 0.0
H867 H 0.38201 0.80852 0.1951 0.0
H868 H 0.33152 0.90081 0.13002 0.0
H869 H 0.4208 0.84738 0.15983 0.0
H870 H 0.47313 0.90533 0.06804 0.0
H871 H 0.43888 0.86515 0.10602 0.0
H872 H 0.3774 0.9503 0.12757 0.0
H873 H 0.41053 0.98921 0.08975 0.0
C874 C 0.32123 0.85905 0.16484 0.0
C875 C 0.33421 0.83232 0.18389 0.0
C876 C 0.34352 0.88132 0.14431 0.0
C877 C 0.38014 0.87822 0.14172 0.0
C878 C 0.39304 0.85107 0.16053 0.0
C879 C 0.37063 0.82872 0.18116 0.0
C880 C 0.45278 0.91571 0.08137 0.0
C881 C 0.44498 0.95098 0.07534 0.0
C882 C 0.43274 0.89243 0.10323 0.0
C883 C 0.40412 0.90349 0.11991 0.0
C884 C 0.39791 0.93948 0.11486 0.0
C885 C 0.41757 0.96236 0.09316 0.0
H886 H 0.74942 0.23259 0.13815 0.0
H887 H 0.76587 0.13149 0.18037 0.0
H888 H 0.71024 0.19808 0.09238 0.0
H889 H 0.72913 0.09603 0.13293 0.0
H890 H 0.63472 0.13525 0.01358 0.0
H891 H 0.69184 0.1613 0.04565 0.0
H892 H 0.66958 0.07864 0.11737 0.0
H893 H 0.6145 0.05119 0.08339 0.0
C894 C 0.74617 0.20278 0.13646 0.0
C895 C 0.76084 0.1846 0.1624 0.0
C896 C 0.72356 0.1827 0.11011 0.0
C897 C 0.71557 0.14383 0.10882 0.0
C898 C 0.73342 0.1258 0.13336 0.0
C899 C 0.75518 0.14601 0.16027 0.0
C900 C 0.64277 0.12227 0.0358 0.0
C901 C 0.62021 0.09148 0.04628 0.0
C902 C 0.67535 0.13739 0.0545 0.0
C903 C 0.68541 0.12297 0.08492 0.0
C904 C 0.66354 0.09065 0.09411 0.0
C905 C 0.63161 0.07484 0.07474 0.0
H906 H 0.63285 0.58375 0.74085 0.0
H907 H 0.62153 0.68363 0.79619 0.0
H908 H 0.60147 0.54718 0.78235 0.0
H909 H 0.59028 0.64745 0.83759 0.0
H910 H 0.53038 0.57267 0.90657 0.0
H911 H 0.53801 0.59876 0.85228 0.0
H912 H 0.62976 0.54509 0.84139 0.0
H913 H 0.62236 0.51944 0.8952 0.0
C914 C 0.62249 0.59774 0.76126 0.0
C915 C 0.62995 0.63631 0.76584 0.0
C916 C 0.60472 0.57695 0.785 0.0
C917 C 0.5938 0.59456 0.81327 0.0
C918 C 0.59818 0.63315 0.81596 0.0
C919 C 0.61633 0.65385 0.79251 0.0
C920 C 0.55179 0.56612 0.8923 0.0
C921 C 0.57622 0.54472 0.90538 0.0
C922 C 0.55607 0.5809 0.86127 0.0
C923 C 0.58439 0.57382 0.84267 0.0
C924 C 0.60738 0.5506 0.85494 0.0
C925 C 0.60346 0.53637 0.88602 0.0
H926 H 0.3667 0.67592 0.77135 0.0
H927 H 0.28079 0.65737 0.83649 0.0
H928 H 0.40208 0.64098 0.80582 0.0
H929 H 0.31701 0.62262 0.87193 0.0
H930 H 0.47505 0.62269 0.89764 0.0
H931 H 0.43619 0.64934 0.85846 0.0
H932 H 0.34474 0.56807 0.87838 0.0
H933 H 0.38372 0.54169 0.91831 0.0
C934 C 0.35517 0.66422 0.79306 0.0
C935 C 0.3208 0.66983 0.80115 0.0
C936 C 0.37576 0.64427 0.81308 0.0
C937 C 0.36294 0.62929 0.84218 0.0
C938 C 0.32787 0.63353 0.84967 0.0
C939 C 0.30702 0.65353 0.82938 0.0
C940 C 0.4468 0.61001 0.89337 0.0
C941 C 0.43276 0.57991 0.91135 0.0
C942 C 0.42434 0.62534 0.87071 0.0
C943 C 0.387 0.61114 0.86515 0.0
C944 C 0.37314 0.5802 0.88225 0.0
C945 C 0.3957 0.56472 0.9049 0.0
H946 H 0.30429 0.27193 0.87202 0.0
H947 H 0.34435 0.35908 0.80977 0.0
H948 H 0.33487 0.30878 0.92134 0.0
H949 H 0.37628 0.39532 0.85887 0.0
H950 H 0.42224 0.46271 0.94871 0.0
H951 H 0.37255 0.42966 0.91029 0.0
H952 H 0.39545 0.32615 0.94386 0.0
H953 H 0.44375 0.359 0.98296 0.0
C954 C 0.31996 0.29885 0.86887 0.0
C955 C 0.3225 0.31246 0.83703 0.0
C956 C 0.33732 0.32002 0.89714 0.0
C957 C 0.35801 0.355 0.89411 0.0
C958 C 0.35997 0.36882 0.86224 0.0
C959 C 0.34217 0.34784 0.83401 0.0
C960 C 0.41578 0.43298 0.94876 0.0
C961 C 0.4376 0.4134 0.96814 0.0
C962 C 0.38757 0.41402 0.92646 0.0
C963 C 0.38083 0.37527 0.92323 0.0
C964 C 0.3999 0.35599 0.94552 0.0
C965 C 0.42786 0.37489 0.9679 0.0
H966 H 0.70475 0.40445 0.76629 0.0
H967 H 0.60638 0.32474 0.76132 0.0
H968 H 0.69483 0.4263 0.82212 0.0
H969 H 0.59428 0.34811 0.81642 0.0
H970 H 0.61085 0.35265 0.928 0.0
H971 H 0.61971 0.33902 0.86966 0.0
H972 H 0.66511 0.45383 0.86128 0.0
H973 H 0.65883 0.46663 0.91972 0.0
C974 C 0.67967 0.39347 0.77646 0.0
C975 C 0.65616 0.36322 0.75988 0.0
C976 C 0.6741 0.40556 0.80864 0.0
C977 C 0.64432 0.38808 0.82425 0.0
C978 C 0.61825 0.36115 0.80561 0.0
C979 C 0.62444 0.34847 0.77376 0.0
C980 C 0.62379 0.37458 0.91385 0.0
C981 C 0.63421 0.41056 0.92843 0.0
C982 C 0.6281 0.36707 0.88024 0.0
C983 C 0.64206 0.39561 0.86045 0.0
C984 C 0.65435 0.43114 0.87565 0.0
C985 C 0.65095 0.43841 0.90938 0.0
H986 H 0.78216 0.34277 0.16558 0.0
H987 H 0.69261 0.31435 0.22528 0.0
H988 H 0.74722 0.38114 0.13299 0.0
H989 H 0.65852 0.35302 0.19385 0.0
H990 H 0.68172 0.46525 0.09166 0.0
H991 H 0.71914 0.43548 0.13028 0.0
H992 H 0.62695 0.35076 0.14087 0.0
H993 H 0.58968 0.3808 0.10326 0.0
C994 C 0.75535 0.34516 0.17213 0.0
C995 C 0.74017 0.32506 0.19786 0.0
C996 C 0.73526 0.36727 0.15351 0.0
C997 C 0.6996 0.36995 0.16031 0.0
C998 C 0.68536 0.35109 0.1871 0.0
C999 C 0.70516 0.32895 0.20538 0.0
C1000 C 0.66921 0.44077 0.10288 0.0
C1001 C 0.63247 0.42559 0.0942 0.0
C1002 C 0.69089 0.42334 0.12472 0.0
C1003 C 0.67641 0.39038 0.13871 0.0
C1004 C 0.63928 0.37624 0.1311 0.0
C1005 C 0.61772 0.39354 0.10931 0.0
H1006 H 0.74678 0.66127 0.19119 0.0
H1007 H 0.68291 0.74233 0.16161 0.0
H1008 H 0.72846 0.62626 0.13787 0.0
H1009 H 0.66231 0.70616 0.10911 0.0
H1010 H 0.63179 0.64723 0.01441 0.0
H1011 H 0.67491 0.6843 0.05652 0.0
H1012 H 0.67772 0.58783 0.11252 0.0
H1013 H 0.63681 0.55082 0.06974 0.0
C1014 C 0.72809 0.67108 0.17344 0.0
C1015 C 0.71538 0.70388 0.18062 0.0
C1016 C 0.71781 0.65119 0.14281 0.0
C1017 C 0.69385 0.66323 0.11907 0.0
C1018 C 0.68145 0.69638 0.12635 0.0
C1019 C 0.69256 0.71678 0.15667 0.0
C1020 C 0.64289 0.63378 0.03507 0.0
C1021 C 0.63 0.59649 0.03947 0.0
C1022 C 0.66722 0.65507 0.05941 0.0
C1023 C 0.6784 0.63945 0.0887 0.0
C1024 C 0.66951 0.60105 0.09054 0.0
C1025 C 0.64583 0.57966 0.06588 0.0
H1026 H 0.37721 0.6278 0.24027 0.0
H1027 H 0.42256 0.73687 0.21447 0.0
H1028 H 0.39946 0.60136 0.19065 0.0
H1029 H 0.44301 0.71136 0.16427 0.0
H1030 H 0.49038 0.65528 0.08249 0.0
H1031 H 0.47953 0.67763 0.13742 0.0
H1032 H 0.38002 0.59826 0.13247 0.0
H1033 H 0.39217 0.57402 0.07779 0.0
C1034 C 0.39317 0.64592 0.22461 0.0
C1035 C 0.39822 0.68425 0.23085 0.0
C1036 C 0.40514 0.63098 0.19582 0.0
C1037 C 0.42213 0.65428 0.17297 0.0
C1038 C 0.43018 0.69245 0.18121 0.0
C1039 C 0.41862 0.70718 0.21003 0.0
C1040 C 0.46586 0.64275 0.09275 0.0
C1041 C 0.44206 0.61281 0.07559 0.0
C1042 C 0.45972 0.65559 0.12448 0.0
C1043 C 0.42912 0.63953 0.13962 0.0
C1044 C 0.40442 0.6106 0.12192 0.0
C1045 C 0.41096 0.59718 0.09029 0.0
H1046 H 0.4094 0.32692 0.19311 0.0
H1047 H 0.42254 0.42404 0.26062 0.0
H1048 H 0.45136 0.35985 0.15747 0.0
H1049 H 0.46535 0.45704 0.22522 0.0
H1050 H 0.45951 0.50448 0.11788 0.0
H1051 H 0.44571 0.47594 0.1693 0.0
H1052 H 0.51246 0.39532 0.14742 0.0
H1053 H 0.52653 0.42448 0.0954 0.0
C1054 C 0.42188 0.35515 0.20061 0.0
C1055 C 0.41201 0.37335 0.22902 0.0
C1056 C 0.44641 0.37381 0.18055 0.0
C1057 C 0.46136 0.41111 0.18845 0.0
C1058 C 0.45397 0.42834 0.21848 0.0
C1059 C 0.42954 0.40952 0.2387 0.0
C1060 C 0.47195 0.4812 0.12446 0.0
C1061 C 0.49344 0.46612 0.10255 0.0
C1062 C 0.46443 0.46511 0.15413 0.0
C1063 C 0.47786 0.43328 0.16228 0.0
C1064 C 0.50167 0.41979 0.14158 0.0
C1065 C 0.50972 0.4364 0.11194 0.0
H1066 H 0.76547 0.67272 0.64994 0.0
H1067 H 0.86376 0.75001 0.68059 0.0
H1068 H 0.79616 0.6442 0.60723 0.0
H1069 H 0.89496 0.7206 0.63935 0.0
H1070 H 0.93935 0.6802 0.54706 0.0
H1071 H 0.90414 0.71103 0.58384 0.0
H1072 H 0.8377 0.60607 0.59792 0.0
H1073 H 0.87186 0.5757 0.55972 0.0
C1074 C 0.79368 0.68356 0.64763 0.0
C1075 C 0.81206 0.71374 0.6687 0.0
C1076 C 0.81147 0.667 0.62324 0.0
C1077 C 0.84832 0.67982 0.61952 0.0
C1078 C 0.8665 0.71019 0.64065 0.0
C1079 C 0.8486 0.72702 0.66464 0.0
C1080 C 0.91698 0.66375 0.55774 0.0
C1081 C 0.90855 0.6254 0.55037 0.0
C1082 C 0.89686 0.68142 0.5792 0.0
C1083 C 0.86806 0.66123 0.5945 0.0
C1084 C 0.85921 0.6229 0.58647 0.0
C1085 C 0.87898 0.60531 0.56456 0.0
H1086 H 0.46555 0.83786 0.72586 0.0
H1087 H 0.40366 0.77033 0.6429 0.0
H1088 H 0.49169 0.88149 0.68741 0.0
H1089 H 0.42976 0.81427 0.6044 0.0
H1090 H 0.41041 0.93172 0.57974 0.0
H1091 H 0.40699 0.87835 0.61293 0.0
H1092 H 0.52336 0.89766 0.63074 0.0
H1093 H 0.52697 0.95168 0.59744 0.0
C1094 C 0.45891 0.83138 0.6993 0.0
C1095 C 0.43162 0.80158 0.68724 0.0
C1096 C 0.47393 0.85636 0.67734 0.0
C1097 C 0.46173 0.85147 0.64335 0.0
C1098 C 0.4389 0.81868 0.63077 0.0
C1099 C 0.4239 0.79376 0.65269 0.0
C1100 C 0.43524 0.925 0.59112 0.0
C1101 C 0.46893 0.9456 0.58599 0.0
C1102 C 0.43334 0.89409 0.60948 0.0
C1103 C 0.46505 0.88351 0.62322 0.0
C1104 C 0.49872 0.90507 0.61965 0.0
C1105 C 0.50067 0.93592 0.60091 0.0
H1106 H 0.16743 0.35621 0.72615 0.0
H1107 H 0.24125 0.42846 0.67178 0.0
H1108 H 0.11698 0.3815 0.70116 0.0
H1109 H 0.19091 0.45446 0.64753 0.0
H1110 H 0.06015 0.38182 0.58802 0.0
H1111 H 0.09503 0.37047 0.63891 0.0
H1112 H 0.13767 0.487 0.65556 0.0
H1113 H 0.10289 0.49833 0.60478 0.0
C1114 C 0.17299 0.3779 0.70926 0.0
C1115 C 0.20814 0.38953 0.69992 0.0
C1116 C 0.14412 0.3926 0.69535 0.0
C1117 C 0.15006 0.41958 0.6723 0.0
C1118 C 0.18564 0.43385 0.66555 0.0
C1119 C 0.21449 0.41888 0.67926 0.0
C1120 C 0.07566 0.4051 0.60339 0.0
C1121 C 0.08 0.44067 0.59207 0.0
C1122 C 0.09555 0.39869 0.63257 0.0
C1123 C 0.1197 0.42788 0.6505 0.0
C1124 C 0.11974 0.46406 0.64173 0.0
C1125 C 0.09995 0.47043 0.61267 0.0
H1126 H 0.70104 0.23836 0.6403 0.0
H1127 H 0.76164 0.15447 0.66978 0.0
H1128 H 0.67154 0.19871 0.59291 0.0
H1129 H 0.73213 0.1143 0.62122 0.0
H1130 H 0.61804 0.04599 0.57297 0.0
H1131 H 0.67072 0.08032 0.60708 0.0
H1132 H 0.6758 0.16836 0.54002 0.0
H1133 H 0.62191 0.13478 0.50712 0.0
C1134 C 0.70851 0.21154 0.63632 0.0
C1135 C 0.73327 0.19934 0.65907 0.0
C1136 C 0.69192 0.18888 0.60874 0.0
C1137 C 0.69958 0.15327 0.60303 0.0
C1138 C 0.72557 0.14153 0.62499 0.0
C1139 C 0.74247 0.1645 0.65272 0.0
C1140 C 0.63134 0.07201 0.56483 0.0
C1141 C 0.61556 0.08827 0.538 0.0
C1142 C 0.66161 0.09173 0.58436 0.0
C1143 C 0.6767 0.12766 0.5769 0.0
C1144 C 0.66402 0.14127 0.54705 0.0
C1145 C 0.63336 0.12198 0.52804 0.0
H1146 H 0.7803 0.35973 0.31088 0.0
H1147 H 0.82013 0.27164 0.35923 0.0
H1148 H 0.81038 0.40371 0.35651 0.0
H1149 H 0.85147 0.31503 0.40394 0.0
H1150 H 0.92298 0.46766 0.40447 0.0
H1151 H 0.87077 0.43146 0.37116 0.0
H1152 H 0.85524 0.35654 0.44999 0.0
H1153 H 0.90895 0.39168 0.48206 0.0
C1154 C 0.79456 0.34974 0.33195 0.0
C1155 C 0.79759 0.31246 0.33212 0.0
C1156 C 0.81221 0.37489 0.35785 0.0
C1157 C 0.83377 0.36321 0.38395 0.0
C1158 C 0.8347 0.32525 0.38482 0.0
C1159 C 0.81679 0.3002 0.35916 0.0
C1160 C 0.90762 0.44413 0.415 0.0
C1161 C 0.92014 0.43203 0.44546 0.0
C1162 C 0.87755 0.42327 0.39596 0.0
C1163 C 0.85916 0.39032 0.40742 0.0
C1164 C 0.8694 0.38095 0.4398 0.0
C1165 C 0.89992 0.40126 0.45838 0.0
H1166 H 0.66052 0.80819 0.27462 0.0
H1167 H 0.71407 0.7662 0.35917 0.0
H1168 H 0.62701 0.84074 0.31235 0.0
H1169 H 0.68128 0.7998 0.39706 0.0
H1170 H 0.65631 0.91426 0.44305 0.0
H1171 H 0.68482 0.87459 0.40665 0.0
H1172 H 0.58002 0.82416 0.35918 0.0
H1173 H 0.55139 0.86293 0.39599 0.0
C1174 C 0.66441 0.80522 0.30124 0.0
C1175 C 0.68947 0.78427 0.31397 0.0
C1176 C 0.64542 0.82398 0.3228 0.0
C1177 C 0.65184 0.82301 0.35757 0.0
C1178 C 0.67602 0.8011 0.37032 0.0
C1179 C 0.69436 0.78151 0.34867 0.0
C1180 C 0.63939 0.89477 0.4248 0.0
C1181 C 0.60162 0.89177 0.42238 0.0
C1182 C 0.65567 0.87187 0.40422 0.0
C1183 C 0.63454 0.84617 0.38031 0.0
C1184 C 0.59688 0.84365 0.37747 0.0
C1185 C 0.58056 0.86587 0.39854 0.0
H1186 H 0.24278 0.66562 0.31876 0.0
H1187 H 0.15384 0.71934 0.28927 0.0
H1188 H 0.20487 0.62729 0.35424 0.0
H1189 H 0.11522 0.6802 0.3245 0.0
H1190 H 0.06424 0.62216 0.41718 0.0
H1191 H 0.0979 0.66253 0.37895 0.0
H1192 H 0.15879 0.57736 0.35582 0.0
H1193 H 0.1262 0.5382 0.39384 0.0
C1194 C 0.21498 0.6692 0.31954 0.0
C1195 C 0.20183 0.69585 0.30051 0.0
C1196 C 0.19279 0.64675 0.33998 0.0
C1197 C 0.15612 0.64963 0.34254 0.0
C1198 C 0.14303 0.6767 0.32379 0.0
C1199 C 0.16534 0.69921 0.30319 0.0
C1200 C 0.08428 0.6118 0.40341 0.0
C1201 C 0.09212 0.57646 0.40906 0.0
C1202 C 0.10398 0.63519 0.38142 0.0
C1203 C 0.13231 0.62417 0.36429 0.0
C1204 C 0.13848 0.58809 0.3689 0.0
C1205 C 0.11913 0.56509 0.39069 0.0
H1206 H 0.37307 0.23404 0.3022 0.0
H1207 H 0.27462 0.1621 0.32039 0.0
H1208 H 0.40768 0.20045 0.33901 0.0
H1209 H 0.30891 0.12952 0.35909 0.0
H1210 H 0.38115 0.05952 0.41137 0.0
H1211 H 0.34817 0.08905 0.36915 0.0
H1212 H 0.42406 0.19096 0.39295 0.0
H1213 H 0.4578 0.16087 0.43343 0.0
C1214 C 0.3587 0.21119 0.3144 0.0
C1215 C 0.32095 0.20097 0.30834 0.0
C1216 C 0.37862 0.19192 0.3359 0.0
C1217 C 0.36147 0.16213 0.35277 0.0
C1218 C 0.32355 0.15178 0.34645 0.0
C1219 C 0.30367 0.1707 0.32436 0.0
C1220 C 0.39107 0.0881 0.40719 0.0
C1221 C 0.42234 0.10763 0.42592 0.0
C1222 C 0.37183 0.10531 0.38313 0.0
C1223 C 0.38293 0.14281 0.37731 0.0
C1224 C 0.41463 0.162 0.3958 0.0
C1225 C 0.43411 0.14466 0.41939 0.0
H1226 H 0.65816 0.78395 0.69297 0.0
H1227 H 0.7535 0.85775 0.67012 0.0
H1228 H 0.62036 0.8183 0.66041 0.0
H1229 H 0.71581 0.89114 0.63538 0.0
H1230 H 0.63973 0.96156 0.59068 0.0
H1231 H 0.67583 0.9313 0.62968 0.0
H1232 H 0.59868 0.82977 0.6088 0.0
H1233 H 0.5619 0.86065 0.57168 0.0
C1234 C 0.67116 0.80733 0.68052 0.0
C1235 C 0.70901 0.81784 0.68406 0.0
C1236 C 0.64933 0.82708 0.66147 0.0
C1237 C 0.66454 0.85768 0.64452 0.0
C1238 C 0.7026 0.86826 0.64823 0.0
C1239 C 0.72445 0.84887 0.66799 0.0
C1240 C 0.63015 0.93294 0.59495 0.0
C1241 C 0.5977 0.91371 0.5779 0.0
C1242 C 0.65122 0.91528 0.61709 0.0
C1243 C 0.64086 0.8776 0.62256 0.0
C1244 C 0.60778 0.85881 0.60611 0.0
C1245 C 0.58647 0.87662 0.58447 0.0
H1246 H 0.59435 0.1462 0.25611 0.0
H1247 H 0.64728 0.21534 0.34208 0.0
H1248 H 0.55481 0.11013 0.29202 0.0
H1249 H 0.60757 0.17918 0.37806 0.0
H1250 H 0.52654 0.10912 0.43378 0.0
H1251 H 0.5383 0.15157 0.38958 0.0
H1252 H 0.5873 0.07143 0.33628 0.0
H1253 H 0.57605 0.0294 0.38059 0.0
C1254 C 0.59663 0.15447 0.28251 0.0
C1255 C 0.62419 0.18301 0.29662 0.0
C1256 C 0.574 0.13392 0.30292 0.0
C1257 C 0.57843 0.14204 0.33753 0.0
C1258 C 0.60359 0.17277 0.35128 0.0
C1259 C 0.62655 0.19303 0.3309 0.0
C1260 C 0.53875 0.10029 0.41206 0.0
C1261 C 0.55066 0.06636 0.41037 0.0
C1262 C 0.54544 0.12446 0.38696 0.0
C1263 C 0.56338 0.11442 0.35973 0.0
C1264 C 0.5729 0.07938 0.35693 0.0
C1265 C 0.56691 0.0556 0.38232 0.0
H1266 H 0.85698 0.66175 0.2709 0.0
H1267 H 0.79992 0.57972 0.32929 0.0
H1268 H 0.91313 0.64017 0.28543 0.0
H1269 H 0.85603 0.55769 0.34352 0.0
H1270 H 0.95073 0.5288 0.38118 0.0
H1271 H 0.91451 0.53497 0.32961 0.0
H1272 H 0.93854 0.65339 0.34773 0.0
H1273 H 0.97465 0.64711 0.39942 0.0
C1274 C 0.85602 0.63783 0.2854 0.0
C1275 C 0.82424 0.62272 0.2996 0.0
C1276 C 0.88827 0.62557 0.2937 0.0
C1277 C 0.88898 0.59768 0.31585 0.0
C1278 C 0.85625 0.57919 0.32619 0.0
C1279 C 0.82413 0.59186 0.31833 0.0
C1280 C 0.9496 0.55619 0.37325 0.0
C1281 C 0.96408 0.58752 0.39462 0.0
C1282 C 0.9291 0.55965 0.34367 0.0
C1283 C 0.92293 0.5945 0.33534 0.0
C1284 C 0.94277 0.62612 0.35372 0.0
C1285 C 0.96334 0.62262 0.38342 0.0
H1286 H 0.32484 0.87845 0.29549 0.0
H1287 H 0.26998 0.79775 0.35616 0.0
H1288 H 0.35117 0.91679 0.34568 0.0
H1289 H 0.2947 0.83667 0.40669 0.0
H1290 H 0.40187 0.87623 0.47503 0.0
H1291 H 0.35305 0.84813 0.43418 0.0
H1292 H 0.34915 0.9544 0.39521 0.0
H1293 H 0.39937 0.98242 0.43574 0.0
C1294 C 0.31759 0.86965 0.31969 0.0
C1295 C 0.29582 0.83532 0.32233 0.0
C1296 C 0.33235 0.89168 0.3485 0.0
C1297 C 0.32537 0.87975 0.38043 0.0
C1298 C 0.30122 0.84644 0.38262 0.0
C1299 C 0.28692 0.82422 0.3538 0.0
C1300 C 0.38989 0.89386 0.45844 0.0
C1301 C 0.40514 0.93133 0.45802 0.0
C1302 C 0.36159 0.87774 0.435 0.0
C1303 C 0.34767 0.89879 0.41068 0.0
C1304 C 0.35992 0.93719 0.41299 0.0
C1305 C 0.38843 0.95337 0.43652 0.0
H1306 H 0.26955 0.34629 0.33885 0.0
H1307 H 0.16949 0.27128 0.3091 0.0
H1308 H 0.24007 0.37662 0.38125 0.0
H1309 H 0.1395 0.30254 0.35023 0.0
H1310 H 0.09807 0.34652 0.44283 0.0
H1311 H 0.13192 0.31353 0.40642 0.0
H1312 H 0.19936 0.41663 0.3885 0.0
H1313 H 0.16649 0.44927 0.42622 0.0
C1314 C 0.2412 0.33632 0.34131 0.0
C1315 C 0.22191 0.30635 0.32054 0.0
C1316 C 0.22414 0.35392 0.36551 0.0
C1317 C 0.18718 0.34233 0.36934 0.0
C1318 C 0.16808 0.31202 0.34868 0.0
C1319 C 0.18526 0.29414 0.32481 0.0
C1320 C 0.12037 0.36211 0.43137 0.0
C1321 C 0.12947 0.4006 0.43745 0.0
C1322 C 0.13968 0.34319 0.41018 0.0
C1323 C 0.16832 0.36225 0.39398 0.0
C1324 C 0.1779 0.40073 0.40073 0.0
C1325 C 0.1589 0.41959 0.42234 0.0
H1326 H 0.37003 0.20458 0.7422 0.0
H1327 H 0.30735 0.24075 0.66018 0.0
H1328 H 0.40001 0.17015 0.70238 0.0
H1329 H 0.33684 0.20613 0.62049 0.0
H1330 H 0.36366 0.09875 0.56814 0.0
H1331 H 0.33619 0.13455 0.6088 0.0
H1332 H 0.44217 0.18544 0.65326 0.0
H1333 H 0.46968 0.15046 0.61233 0.0
C1334 C 0.36296 0.20539 0.71569 0.0
C1335 C 0.33658 0.22546 0.70428 0.0
C1336 C 0.38008 0.18579 0.69292 0.0
C1337 C 0.37047 0.18519 0.65834 0.0
C1338 C 0.34455 0.20585 0.64698 0.0
C1339 C 0.32807 0.22607 0.66968 0.0
C1340 C 0.38108 0.11746 0.58666 0.0
C1341 C 0.41886 0.12182 0.58688 0.0
C1342 C 0.36537 0.13808 0.6098 0.0
C1343 C 0.38708 0.16285 0.63413 0.0
C1344 C 0.42479 0.16651 0.63488 0.0
C1345 C 0.44049 0.14656 0.61132 0.0
H1346 H 0.79831 0.36582 0.67041 0.0
H1347 H 0.88392 0.30508 0.69261 0.0
H1348 H 0.83621 0.4041 0.63496 0.0
H1349 H 0.92269 0.34427 0.65757 0.0
H1350 H 0.97293 0.4042 0.56595 0.0
H1351 H 0.93918 0.36388 0.6041 0.0
H1352 H 0.88353 0.45182 0.63222 0.0
H1353 H 0.91607 0.49086 0.59403 0.0
C1354 C 0.82542 0.3607 0.66807 0.0
C1355 C 0.83762 0.33206 0.685 0.0
C1356 C 0.84765 0.38313 0.64765 0.0
C1357 C 0.88344 0.37832 0.64309 0.0
C1358 C 0.89557 0.34933 0.65982 0.0
C1359 C 0.87319 0.32677 0.68032 0.0
C1360 C 0.95406 0.41514 0.58084 0.0
C1361 C 0.94766 0.45125 0.57658 0.0
C1362 C 0.93429 0.39179 0.60278 0.0
C1363 C 0.90736 0.40365 0.6213 0.0
C1364 C 0.90268 0.44044 0.61806 0.0
C1365 C 0.92204 0.46339 0.59622 0.0
H1366 H 0.2307 0.6307 0.6931 0.0
H1367 H 0.27965 0.71206 0.62957 0.0
H1368 H 0.19428 0.59708 0.64508 0.0
H1369 H 0.24301 0.67815 0.58087 0.0
H1370 H 0.12102 0.65159 0.53433 0.0
H1371 H 0.17747 0.67421 0.56827 0.0
H1372 H 0.18582 0.56274 0.59064 0.0
H1373 H 0.12881 0.54004 0.55694 0.0
C1374 C 0.23464 0.64056 0.66854 0.0
C1375 C 0.2577 0.67405 0.665 0.0
C1376 C 0.21384 0.62121 0.64091 0.0
C1377 C 0.21534 0.63518 0.60915 0.0
C1378 C 0.24099 0.66693 0.60512 0.0
C1379 C 0.26222 0.68614 0.63287 0.0
C1380 C 0.13517 0.63175 0.54593 0.0
C1381 C 0.11993 0.59403 0.54346 0.0
C1382 C 0.16786 0.64473 0.56512 0.0
C1383 C 0.18607 0.62033 0.58243 0.0
C1384 C 0.17225 0.58229 0.57789 0.0
C1385 C 0.13957 0.56927 0.55852 0.0
loop_
_geom_bond_atom_site_label_1
_geom_bond_atom_site_label_2
_geom_bond_distance
_geom_bond_site_symmetry_2
_ccdc_geom_bond_type
Co0 N5 2.057 . S
Co0 O17 2.021 . S
Co0 O20 2.062 . S
Co0 O24 2.117 . S
Co0 O25 2.020 . S
C1 O21 1.259 . S
C1 O24 1.258 . S
Co2 N11 2.057 . S
Co2 O18 2.117 . S
Co2 O19 2.020 . S
Co2 O21 2.021 . S
Co2 O26 2.062 . S
C3 N5 1.316 . S
C3 N6 1.347 . S
C3 H8 0.931 . S
C4 N5 1.375 . S
C4 C7 1.350 . S
C4 H9 0.930 . S
N5 Co0 2.057 . S
N5 C3 1.316 . S
N5 C4 1.375 . S
N6 C3 1.347 . S
N6 C7 1.373 . S
C7 C4 1.350 . S
C7 N6 1.373 . S
C7 H28 0.931 . S
H8 C3 0.931 . S
H9 C4 0.930 . S
C10 O17 1.259 . S
C10 O18 1.258 . S
N11 Co2 2.057 . S
N11 C12 1.316 . S
N11 C13 1.375 . S
C12 N11 1.316 . S
C12 N14 1.347 . S
C12 H23 0.931 . S
C13 N11 1.375 . S
C13 C15 1.350 . S
C13 H22 0.930 . S
N14 C12 1.347 . S
N14 C15 1.373 . S
C15 C13 1.350 . S
C15 N14 1.373 . S
C15 H29 0.931 . S
C16 O19 1.256 . S
C16 O20 1.255 . S
O17 Co0 2.021 . S
O17 C10 1.259 . S
O18 Co2 2.117 . S
O18 C10 1.258 . S
O19 Co2 2.020 . S
O19 C16 1.256 . S
O20 Co0 2.062 . S
O20 C16 1.255 . S
O21 C1 1.259 . S
O21 Co2 2.021 . S
H22 C13 0.930 . S
H23 C12 0.931 . S
O24 Co0 2.117 . S
O24 C1 1.258 . S
O25 Co0 2.020 . S
O25 C27 1.256 . S
O26 Co2 2.062 . S
O26 C27 1.255 . S
C27 O25 1.256 . S
C27 O26 1.255 . S
H28 C7 0.931 . S
H29 C15 0.931 . S
Co30 N35 2.057 . S
Co30 O47 2.021 . S
Co30 O50 2.062 . S
Co30 O54 2.117 . S
Co30 O55 2.020 . S
C31 O51 1.259 . S
C31 O54 1.258 . S
Co32 N41 2.057 . S
Co32 O48 2.117 . S
Co32 O49 2.020 . S
Co32 O51 2.021 . S
Co32 O56 2.062 . S
C33 N35 1.316 . S
C33 N36 1.347 . S
C33 H38 0.931 . S
C34 N35 1.375 . S
C34 C37 1.350 . S
C34 H39 0.930 . S
N35 Co30 2.057 . S
N35 C33 1.316 . S
N35 C34 1.375 . S
N36 C33 1.347 . S
N36 C37 1.373 . S
C37 C34 1.350 . S
C37 N36 1.373 . S
C37 H58 0.931 . S
H38 C33 0.931 . S
H39 C34 0.930 . S
C40 O47 1.259 . S
C40 O48 1.258 . S
N41 Co32 2.057 . S
N41 C42 1.316 . S
N41 C43 1.375 . S
C42 N41 1.316 . S
C42 N44 1.347 . S
C42 H53 0.931 . S
C43 N41 1.375 . S
C43 C45 1.350 . S
C43 H52 0.930 . S
N44 C42 1.347 . S
N44 C45 1.373 . S
C45 C43 1.350 . S
C45 N44 1.373 . S
C45 H59 0.931 . S
C46 O49 1.256 . S
C46 O50 1.255 . S
O47 Co30 2.021 . S
O47 C40 1.259 . S
O48 Co32 2.117 . S
O48 C40 1.258 . S
O49 Co32 2.020 . S
O49 C46 1.256 . S
O50 Co30 2.062 . S
O50 C46 1.255 . S
O51 C31 1.259 . S
O51 Co32 2.021 . S
H52 C43 0.930 . S
H53 C42 0.931 . S
O54 Co30 2.117 . S
O54 C31 1.258 . S
O55 Co30 2.020 . S
O55 C57 1.256 . S
O56 Co32 2.062 . S
O56 C57 1.255 . S
C57 O55 1.256 . S
C57 O56 1.255 . S
H58 C37 0.931 . S
H59 C45 0.931 . S
Co60 N65 2.057 . S
Co60 O77 2.021 . S
Co60 O80 2.062 . S
Co60 O84 2.117 . S
Co60 O85 2.020 . S
C61 O81 1.259 . S
C61 O84 1.258 . S
Co62 N71 2.057 . S
Co62 O78 2.117 . S
Co62 O79 2.020 . S
Co62 O81 2.021 . S
Co62 O86 2.062 . S
C63 N65 1.316 . S
C63 N66 1.347 . S
C63 H68 0.931 . S
C64 N65 1.375 . S
C64 C67 1.350 . S
C64 H69 0.930 . S
N65 Co60 2.057 . S
N65 C63 1.316 . S
N65 C64 1.375 . S
N66 C63 1.347 . S
N66 C67 1.373 . S
C67 C64 1.350 . S
C67 N66 1.373 . S
C67 H88 0.931 . S
H68 C63 0.931 . S
H69 C64 0.930 . S
C70 O77 1.259 . S
C70 O78 1.258 . S
N71 Co62 2.057 . S
N71 C72 1.316 . S
N71 C73 1.375 . S
C72 N71 1.316 . S
C72 N74 1.347 . S
C72 H83 0.931 . S
C73 N71 1.375 . S
C73 C75 1.350 . S
C73 H82 0.930 . S
N74 C72 1.347 . S
N74 C75 1.373 . S
C75 C73 1.350 . S
C75 N74 1.373 . S
C75 H89 0.931 . S
C76 O79 1.256 . S
C76 O80 1.255 . S
O77 Co60 2.021 . S
O77 C70 1.259 . S
O78 Co62 2.117 . S
O78 C70 1.258 . S
O79 Co62 2.020 . S
O79 C76 1.256 . S
O80 Co60 2.062 . S
O80 C76 1.255 . S
O81 C61 1.259 . S
O81 Co62 2.021 . S
H82 C73 0.930 . S
H83 C72 0.931 . S
O84 Co60 2.117 . S
O84 C61 1.258 . S
O85 Co60 2.020 . S
O85 C87 1.256 . S
O86 Co62 2.062 . S
O86 C87 1.255 . S
C87 O85 1.256 . S
C87 O86 1.255 . S
H88 C67 0.931 . S
H89 C75 0.931 . S
Co90 N95 2.057 . S
Co90 O107 2.021 . S
Co90 O110 2.062 . S
Co90 O114 2.117 . S
Co90 O115 2.020 . S
C91 O111 1.259 . S
C91 O114 1.258 . S
Co92 N101 2.057 . S
Co92 O108 2.117 . S
Co92 O109 2.020 . S
Co92 O111 2.021 . S
Co92 O116 2.062 . S
C93 N95 1.316 . S
C93 N96 1.347 . S
C93 H98 0.931 . S
C94 N95 1.375 . S
C94 C97 1.350 . S
C94 H99 0.930 . S
N95 Co90 2.057 . S
N95 C93 1.316 . S
N95 C94 1.375 . S
N96 C93 1.347 . S
N96 C97 1.373 . S
C97 C94 1.350 . S
C97 N96 1.373 . S
C97 H118 0.931 . S
H98 C93 0.931 . S
H99 C94 0.930 . S
C100 O107 1.259 . S
C100 O108 1.258 . S
N101 Co92 2.057 . S
N101 C102 1.316 . S
N101 C103 1.375 . S
C102 N101 1.316 . S
C102 N104 1.347 . S
C102 H113 0.931 . S
C103 N101 1.375 . S
C103 C105 1.350 . S
C103 H112 0.930 . S
N104 C102 1.347 . S
N104 C105 1.373 . S
C105 C103 1.350 . S
C105 N104 1.373 . S
C105 H119 0.931 . S
C106 O109 1.256 . S
C106 O110 1.255 . S
O107 Co90 2.021 . S
O107 C100 1.259 . S
O108 Co92 2.117 . S
O108 C100 1.258 . S
O109 Co92 2.020 . S
O109 C106 1.256 . S
O110 Co90 2.062 . S
O110 C106 1.255 . S
O111 C91 1.259 . S
O111 Co92 2.021 . S
H112 C103 0.930 . S
H113 C102 0.931 . S
O114 Co90 2.117 . S
O114 C91 1.258 . S
O115 Co90 2.020 . S
O115 C117 1.256 . S
O116 Co92 2.062 . S
O116 C117 1.255 . S
C117 O115 1.256 . S
C117 O116 1.255 . S
H118 C97 0.931 . S
H119 C105 0.931 . S
Co120 N125 2.057 . S
Co120 O137 2.021 . S
Co120 O140 2.062 . S
Co120 O144 2.117 . S
Co120 O145 2.020 . S
C121 O141 1.259 . S
C121 O144 1.258 . S
Co122 N131 2.057 . S
Co122 O138 2.117 . S
Co122 O139 2.020 . S
Co122 O141 2.021 . S
Co122 O146 2.062 . S
C123 N125 1.316 . S
C123 N126 1.347 . S
C123 H128 0.931 . S
C124 N125 1.375 . S
C124 C127 1.350 . S
C124 H129 0.930 . S
N125 Co120 2.057 . S
N125 C123 1.316 . S
N125 C124 1.375 . S
N126 C123 1.347 . S
N126 C127 1.373 . S
C127 C124 1.350 . S
C127 N126 1.373 . S
C127 H148 0.931 . S
H128 C123 0.931 . S
H129 C124 0.930 . S
C130 O137 1.259 . S
C130 O138 1.258 . S
N131 Co122 2.057 . S
N131 C132 1.316 . S
N131 C133 1.375 . S
C132 N131 1.316 . S
C132 N134 1.347 . S
C132 H143 0.931 . S
C133 N131 1.375 . S
C133 C135 1.350 . S
C133 H142 0.930 . S
N134 C132 1.347 . S
N134 C135 1.373 . S
C135 C133 1.350 . S
C135 N134 1.373 . S
C135 H149 0.931 . S
C136 O139 1.256 . S
C136 O140 1.255 . S
O137 Co120 2.021 . S
O137 C130 1.259 . S
O138 Co122 2.117 . S
O138 C130 1.258 . S
O139 Co122 2.020 . S
O139 C136 1.256 . S
O140 Co120 2.062 . S
O140 C136 1.255 . S
O141 C121 1.259 . S
O141 Co122 2.021 . S
H142 C133 0.930 . S
H143 C132 0.931 . S
O144 Co120 2.117 . S
O144 C121 1.258 . S
O145 Co120 2.020 . S
O145 C147 1.256 . S
O146 Co122 2.062 . S
O146 C147 1.255 . S
C147 O145 1.256 . S
C147 O146 1.255 . S
H148 C127 0.931 . S
H149 C135 0.931 . S
Co150 N155 2.057 . S
Co150 O167 2.021 . S
Co150 O170 2.062 . S
Co150 O174 2.117 . S
Co150 O175 2.020 . S
C151 O171 1.259 . S
C151 O174 1.258 . S
Co152 N161 2.057 . S
Co152 O168 2.117 . S
Co152 O169 2.020 . S
Co152 O171 2.021 . S
Co152 O176 2.062 . S
C153 N155 1.316 . S
C153 N156 1.347 . S
C153 H158 0.931 . S
C154 N155 1.375 . S
C154 C157 1.350 . S
C154 H159 0.930 . S
N155 Co150 2.057 . S
N155 C153 1.316 . S
N155 C154 1.375 . S
N156 C153 1.347 . S
N156 C157 1.373 . S
C157 C154 1.350 . S
C157 N156 1.373 . S
C157 H178 0.931 . S
H158 C153 0.931 . S
H159 C154 0.930 . S
C160 O167 1.259 . S
C160 O168 1.258 . S
N161 Co152 2.057 . S
N161 C162 1.316 . S
N161 C163 1.375 . S
C162 N161 1.316 . S
C162 N164 1.347 . S
C162 H173 0.931 . S
C163 N161 1.375 . S
C163 C165 1.350 . S
C163 H172 0.930 . S
N164 C162 1.347 . S
N164 C165 1.373 . S
C165 C163 1.350 . S
C165 N164 1.373 . S
C165 H179 0.931 . S
C166 O169 1.256 . S
C166 O170 1.255 . S
O167 Co150 2.021 . S
O167 C160 1.259 . S
O168 Co152 2.117 . S
O168 C160 1.258 . S
O169 Co152 2.020 . S
O169 C166 1.256 . S
O170 Co150 2.062 . S
O170 C166 1.255 . S
O171 C151 1.259 . S
O171 Co152 2.021 . S
H172 C163 0.930 . S
H173 C162 0.931 . S
O174 Co150 2.117 . S
O174 C151 1.258 . S
O175 Co150 2.020 . S
O175 C177 1.256 . S
O176 Co152 2.062 . S
O176 C177 1.255 . S
C177 O175 1.256 . S
C177 O176 1.255 . S
H178 C157 0.931 . S
H179 C165 0.931 . S
Co180 N185 2.057 . S
Co180 O197 2.021 . S
Co180 O200 2.062 . S
Co180 O204 2.117 . S
Co180 O205 2.020 . S
C181 O201 1.259 . S
C181 O204 1.258 . S
Co182 N191 2.057 . S
Co182 O198 2.117 . S
Co182 O199 2.020 . S
Co182 O201 2.021 . S
Co182 O206 2.062 . S
C183 N185 1.316 . S
C183 N186 1.347 . S
C183 H188 0.931 . S
C184 N185 1.375 . S
C184 C187 1.350 . S
C184 H189 0.930 . S
N185 Co180 2.057 . S
N185 C183 1.316 . S
N185 C184 1.375 . S
N186 C183 1.347 . S
N186 C187 1.373 . S
C187 C184 1.350 . S
C187 N186 1.373 . S
C187 H208 0.931 . S
H188 C183 0.931 . S
H189 C184 0.930 . S
C190 O197 1.259 . S
C190 O198 1.258 . S
N191 Co182 2.057 . S
N191 C192 1.316 . S
N191 C193 1.375 . S
C192 N191 1.316 . S
C192 N194 1.347 . S
C192 H203 0.931 . S
C193 N191 1.375 . S
C193 C195 1.350 . S
C193 H202 0.930 . S
N194 C192 1.347 . S
N194 C195 1.373 . S
C195 C193 1.350 . S
C195 N194 1.373 . S
C195 H209 0.931 . S
C196 O199 1.256 . S
C196 O200 1.255 . S
O197 Co180 2.021 . S
O197 C190 1.259 . S
O198 Co182 2.117 . S
O198 C190 1.258 . S
O199 Co182 2.020 . S
O199 C196 1.256 . S
O200 Co180 2.062 . S
O200 C196 1.255 . S
O201 C181 1.259 . S
O201 Co182 2.021 . S
H202 C193 0.930 . S
H203 C192 0.931 . S
O204 Co180 2.117 . S
O204 C181 1.258 . S
O205 Co180 2.020 . S
O205 C207 1.256 . S
O206 Co182 2.062 . S
O206 C207 1.255 . S
C207 O205 1.256 . S
C207 O206 1.255 . S
H208 C187 0.931 . S
H209 C195 0.931 . S
Co210 N215 2.057 . S
Co210 O227 2.021 . S
Co210 O230 2.062 . S
Co210 O234 2.117 . S
Co210 O235 2.020 . S
C211 O231 1.259 . S
C211 O234 1.258 . S
Co212 N221 2.057 . S
Co212 O228 2.117 . S
Co212 O229 2.020 . S
Co212 O231 2.021 . S
Co212 O236 2.062 . S
C213 N215 1.316 . S
C213 N216 1.347 . S
C213 H218 0.931 . S
C214 N215 1.375 . S
C214 C217 1.350 . S
C214 H219 0.930 . S
N215 Co210 2.057 . S
N215 C213 1.316 . S
N215 C214 1.375 . S
N216 C213 1.347 . S
N216 C217 1.373 . S
C217 C214 1.350 . S
C217 N216 1.373 . S
C217 H238 0.931 . S
H218 C213 0.931 . S
H219 C214 0.930 . S
C220 O227 1.259 . S
C220 O228 1.258 . S
N221 Co212 2.057 . S
N221 C222 1.316 . S
N221 C223 1.375 . S
C222 N221 1.316 . S
C222 N224 1.347 . S
C222 H233 0.931 . S
C223 N221 1.375 . S
C223 C225 1.350 . S
C223 H232 0.930 . S
N224 C222 1.347 . S
N224 C225 1.373 . S
C225 C223 1.350 . S
C225 N224 1.373 . S
C225 H239 0.931 . S
C226 O229 1.256 . S
C226 O230 1.255 . S
O227 Co210 2.021 . S
O227 C220 1.259 . S
O228 Co212 2.117 . S
O228 C220 1.258 . S
O229 Co212 2.020 . S
O229 C226 1.256 . S
O230 Co210 2.062 . S
O230 C226 1.255 . S
O231 C211 1.259 . S
O231 Co212 2.021 . S
H232 C223 0.930 . S
H233 C222 0.931 . S
O234 Co210 2.117 . S
O234 C211 1.258 . S
O235 Co210 2.020 . S
O235 C237 1.256 . S
O236 Co212 2.062 . S
O236 C237 1.255 . S
C237 O235 1.256 . S
C237 O236 1.255 . S
H238 C217 0.931 . S
H239 C225 0.931 . S
C240 O252 1.241 . S
C240 O253 1.280 . S
C241 O254 1.277 . S
C241 O255 1.245 . S
C242 O266 1.247 . S
C242 O268 1.289 . S
Mg243 O244 1.926 . S
Mg243 O253 1.984 . S
Mg243 O255 1.988 . S
Mg243 O256 2.061 1_655 S
O244 Mg243 1.926 . S
O244 Mg245 1.986 . S
O244 Mg246 1.917 1_655 S
Mg245 O244 1.986 . S
Mg245 O252 2.042 . S
Mg245 O254 2.041 . S
Mg245 O260 2.038 1_545 S
Mg245 O268 2.238 1_545 S
Mg246 O244 1.917 1_455 S
Mg246 O247 1.917 1_545 S
Mg246 O257 2.106 . S
Mg246 O259 2.079 1_445 S
Mg246 O268 2.106 1_445 S
Mg246 O269 2.079 . S
O247 Mg246 1.917 1_565 S
O247 Mg248 1.926 . S
O247 Mg249 1.986 . S
Mg248 O247 1.926 . S
Mg248 O262 1.984 . S
Mg248 O265 1.988 . S
Mg248 O266 2.061 1_455 S
Mg249 O247 1.986 . S
Mg249 O257 2.238 1_565 S
Mg249 O261 2.042 . S
Mg249 O263 2.041 . S
Mg249 O270 2.038 1_565 S
C250 O256 1.247 . S
C250 O257 1.289 . S
C251 O269 1.245 . S
C251 O270 1.274 . S
O252 C240 1.241 . S
O252 Mg245 2.042 . S
O253 C240 1.280 . S
O253 Mg243 1.984 . S
O254 C241 1.277 . S
O254 Mg245 2.041 . S
O255 C241 1.245 . S
O255 Mg243 1.988 . S
O256 Mg243 2.061 1_455 S
O256 C250 1.247 . S
O257 Mg246 2.106 . S
O257 Mg249 2.238 1_545 S
O257 C250 1.289 . S
C258 O259 1.245 . S
C258 O260 1.274 . S
O259 Mg246 2.079 1_665 S
O259 C258 1.245 . S
O260 Mg245 2.038 1_565 S
O260 C258 1.274 . S
O261 Mg249 2.042 . S
O261 C264 1.241 . S
O262 Mg248 1.984 . S
O262 C264 1.280 . S
O263 Mg249 2.041 . S
O263 C267 1.277 . S
C264 O261 1.241 . S
C264 O262 1.280 . S
O265 Mg248 1.988 . S
O265 C267 1.245 . S
O266 C242 1.247 . S
O266 Mg248 2.061 1_655 S
C267 O263 1.277 . S
C267 O265 1.245 . S
O268 C242 1.289 . S
O268 Mg245 2.238 1_565 S
O268 Mg246 2.106 1_665 S
O269 Mg246 2.079 . S
O269 C251 1.245 . S
O270 Mg249 2.038 1_545 S
O270 C251 1.274 . S
C271 O283 1.241 . S
C271 O284 1.280 . S
C272 O285 1.277 . S
C272 O286 1.245 . S
C273 O297 1.247 . S
C273 O299 1.289 . S
Mg274 O275 1.926 . S
Mg274 O284 1.984 . S
Mg274 O286 1.988 1_554 S
Mg274 O287 2.061 . S
O275 Mg274 1.926 . S
O275 Mg276 1.986 1_554 S
O275 Mg277 1.917 . S
Mg276 O275 1.986 1_556 S
Mg276 O283 2.042 1_556 S
Mg276 O285 2.041 . S
Mg276 O291 2.038 1_546 S
Mg276 O299 2.238 1_545 S
Mg277 O275 1.917 . S
Mg277 O278 1.917 1_544 S
Mg277 O288 2.106 . S
Mg277 O290 2.079 1_545 S
Mg277 O299 2.106 1_544 S
Mg277 O300 2.079 1_554 S
O278 Mg277 1.917 1_566 S
O278 Mg279 1.926 . S
O278 Mg280 1.986 1_556 S
Mg279 O278 1.926 . S
Mg279 O293 1.984 . S
Mg279 O296 1.988 1_556 S
Mg279 O297 2.061 . S
Mg280 O278 1.986 1_554 S
Mg280 O288 2.238 1_565 S
Mg280 O292 2.042 1_554 S
Mg280 O294 2.041 . S
Mg280 O301 2.038 1_564 S
C281 O287 1.247 . S
C281 O288 1.289 . S
C282 O300 1.245 . S
C282 O301 1.274 . S
O283 C271 1.241 . S
O283 Mg276 2.042 1_554 S
O284 C271 1.280 . S
O284 Mg274 1.984 . S
O285 C272 1.277 . S
O285 Mg276 2.041 . S
O286 C272 1.245 . S
O286 Mg274 1.988 1_556 S
O287 Mg274 2.061 . S
O287 C281 1.247 . S
O288 Mg277 2.106 . S
O288 Mg280 2.238 1_545 S
O288 C281 1.289 . S
C289 O290 1.245 . S
C289 O291 1.274 . S
O290 Mg277 2.079 1_565 S
O290 C289 1.245 . S
O291 Mg276 2.038 1_564 S
O291 C289 1.274 . S
O292 Mg280 2.042 1_556 S
O292 C295 1.241 . S
O293 Mg279 1.984 . S
O293 C295 1.280 . S
O294 Mg280 2.041 . S
O294 C298 1.277 . S
C295 O292 1.241 . S
C295 O293 1.280 . S
O296 Mg279 1.988 1_554 S
O296 C298 1.245 . S
O297 C273 1.247 . S
O297 Mg279 2.061 . S
C298 O294 1.277 . S
C298 O296 1.245 . S
O299 C273 1.289 . S
O299 Mg276 2.238 1_565 S
O299 Mg277 2.106 1_566 S
O300 Mg277 2.079 1_556 S
O300 C282 1.245 . S
O301 Mg280 2.038 1_546 S
O301 C282 1.274 . S
C302 O314 1.241 . S
C302 O315 1.280 . S
C303 O316 1.277 . S
C303 O317 1.245 . S
C304 O328 1.247 . S
C304 O330 1.289 . S
Mg305 O306 1.926 . S
Mg305 O315 1.984 . S
Mg305 O317 1.988 1_554 S
Mg305 O318 2.061 1_655 S
O306 Mg305 1.926 . S
O306 Mg307 1.986 1_554 S
O306 Mg308 1.917 1_655 S
Mg307 O306 1.986 1_556 S
Mg307 O314 2.042 1_556 S
Mg307 O316 2.041 . S
Mg307 O322 2.038 1_556 S
Mg307 O330 2.238 . S
Mg308 O306 1.917 1_455 S
Mg308 O309 1.917 1_554 S
Mg308 O319 2.106 . S
Mg308 O321 2.079 1_455 S
Mg308 O330 2.106 1_454 S
Mg308 O331 2.079 1_554 S
O309 Mg308 1.917 1_556 S
O309 Mg310 1.926 . S
O309 Mg311 1.986 1_556 S
Mg310 O309 1.926 . S
Mg310 O324 1.984 . S
Mg310 O327 1.988 1_556 S
Mg310 O328 2.061 1_455 S
Mg311 O309 1.986 1_554 S
Mg311 O319 2.238 . S
Mg311 O323 2.042 1_554 S
Mg311 O325 2.041 . S
Mg311 O332 2.038 1_554 S
C312 O318 1.247 . S
C312 O319 1.289 . S
C313 O331 1.245 . S
C313 O332 1.274 . S
O314 C302 1.241 . S
O314 Mg307 2.042 1_554 S
O315 C302 1.280 . S
O315 Mg305 1.984 . S
O316 C303 1.277 . S
O316 Mg307 2.041 . S
O317 C303 1.245 . S
O317 Mg305 1.988 1_556 S
O318 Mg305 2.061 1_455 S
O318 C312 1.247 . S
O319 Mg308 2.106 . S
O319 Mg311 2.238 . S
O319 C312 1.289 . S
C320 O321 1.245 . S
C320 O322 1.274 . S
O321 Mg308 2.079 1_655 S
O321 C320 1.245 . S
O322 Mg307 2.038 1_554 S
O322 C320 1.274 . S
O323 Mg311 2.042 1_556 S
O323 C326 1.241 . S
O324 Mg310 1.984 . S
O324 C326 1.280 . S
O325 Mg311 2.041 . S
O325 C329 1.277 . S
C326 O323 1.241 . S
C326 O324 1.280 . S
O327 Mg310 1.988 1_554 S
O327 C329 1.245 . S
O328 C304 1.247 . S
O328 Mg310 2.061 1_655 S
C329 O325 1.277 . S
C329 O327 1.245 . S
O330 C304 1.289 . S
O330 Mg307 2.238 . S
O330 Mg308 2.106 1_656 S
O331 Mg308 2.079 1_556 S
O331 C313 1.245 . S
O332 Mg311 2.038 1_556 S
O332 C313 1.274 . S
C333 O345 1.241 . S
C333 O346 1.280 . S
C334 O347 1.277 . S
C334 O348 1.245 . S
C335 O359 1.247 . S
C335 O361 1.289 . S
Mg336 O337 1.926 . S
Mg336 O346 1.984 . S
Mg336 O348 1.988 1_554 S
Mg336 O349 2.061 . S
O337 Mg336 1.926 . S
O337 Mg338 1.986 1_554 S
O337 Mg339 1.917 . S
Mg338 O337 1.986 1_556 S
Mg338 O345 2.042 1_556 S
Mg338 O347 2.041 . S
Mg338 O353 2.038 1_556 S
Mg338 O361 2.238 . S
Mg339 O337 1.917 . S
Mg339 O340 1.917 1_554 S
Mg339 O350 2.106 . S
Mg339 O352 2.079 . S
Mg339 O361 2.106 1_554 S
Mg339 O362 2.079 1_554 S
O340 Mg339 1.917 1_556 S
O340 Mg341 1.926 . S
O340 Mg342 1.986 1_556 S
Mg341 O340 1.926 . S
Mg341 O355 1.984 . S
Mg341 O358 1.988 1_556 S
Mg341 O359 2.061 . S
Mg342 O340 1.986 1_554 S
Mg342 O350 2.238 . S
Mg342 O354 2.042 1_554 S
Mg342 O356 2.041 . S
Mg342 O363 2.038 1_554 S
C343 O349 1.247 . S
C343 O350 1.289 . S
C344 O362 1.245 . S
C344 O363 1.274 . S
O345 C333 1.241 . S
O345 Mg338 2.042 1_554 S
O346 C333 1.280 . S
O346 Mg336 1.984 . S
O347 C334 1.277 . S
O347 Mg338 2.041 . S
O348 C334 1.245 . S
O348 Mg336 1.988 1_556 S
O349 Mg336 2.061 . S
O349 C343 1.247 . S
O350 Mg339 2.106 . S
O350 Mg342 2.238 . S
O350 C343 1.289 . S
C351 O352 1.245 . S
C351 O353 1.274 . S
O352 Mg339 2.079 . S
O352 C351 1.245 . S
O353 Mg338 2.038 1_554 S
O353 C351 1.274 . S
O354 Mg342 2.042 1_556 S
O354 C357 1.241 . S
O355 Mg341 1.984 . S
O355 C357 1.280 . S
O356 Mg342 2.041 . S
O356 C360 1.277 . S
C357 O354 1.241 . S
C357 O355 1.280 . S
O358 Mg341 1.988 1_554 S
O358 C360 1.245 . S
O359 C335 1.247 . S
O359 Mg341 2.061 . S
C360 O356 1.277 . S
C360 O358 1.245 . S
O361 C335 1.289 . S
O361 Mg338 2.238 . S
O361 Mg339 2.106 1_556 S
O362 Mg339 2.079 1_556 S
O362 C344 1.245 . S
O363 Mg342 2.038 1_556 S
O363 C344 1.274 . S
C364 O376 1.241 . S
C364 O377 1.280 . S
C365 O378 1.277 . S
C365 O379 1.245 . S
C366 O390 1.247 . S
C366 O392 1.289 . S
Mg367 O368 1.926 . S
Mg367 O377 1.984 . S
Mg367 O379 1.988 . S
Mg367 O380 2.061 1_655 S
O368 Mg367 1.926 . S
O368 Mg369 1.986 . S
O368 Mg370 1.917 1_655 S
Mg369 O368 1.986 . S
Mg369 O376 2.042 . S
Mg369 O378 2.041 . S
Mg369 O384 2.038 . S
Mg369 O392 2.238 . S
Mg370 O368 1.917 1_455 S
Mg370 O371 1.917 . S
Mg370 O381 2.106 . S
Mg370 O383 2.079 1_455 S
Mg370 O392 2.106 1_455 S
Mg370 O393 2.079 . S
O371 Mg370 1.917 . S
O371 Mg372 1.926 . S
O371 Mg373 1.986 . S
Mg372 O371 1.926 . S
Mg372 O386 1.984 . S
Mg372 O389 1.988 . S
Mg372 O390 2.061 1_455 S
Mg373 O371 1.986 . S
Mg373 O381 2.238 . S
Mg373 O385 2.042 . S
Mg373 O387 2.041 . S
Mg373 O394 2.038 . S
C374 O380 1.247 . S
C374 O381 1.289 . S
C375 O393 1.245 . S
C375 O394 1.274 . S
O376 C364 1.241 . S
O376 Mg369 2.042 . S
O377 C364 1.280 . S
O377 Mg367 1.984 . S
O378 C365 1.277 . S
O378 Mg369 2.041 . S
O379 C365 1.245 . S
O379 Mg367 1.988 . S
O380 Mg367 2.061 1_455 S
O380 C374 1.247 . S
O381 Mg370 2.106 . S
O381 Mg373 2.238 . S
O381 C374 1.289 . S
C382 O383 1.245 . S
C382 O384 1.274 . S
O383 Mg370 2.079 1_655 S
O383 C382 1.245 . S
O384 Mg369 2.038 . S
O384 C382 1.274 . S
O385 Mg373 2.042 . S
O385 C388 1.241 . S
O386 Mg372 1.984 . S
O386 C388 1.280 . S
O387 Mg373 2.041 . S
O387 C391 1.277 . S
C388 O385 1.241 . S
C388 O386 1.280 . S
O389 Mg372 1.988 . S
O389 C391 1.245 . S
O390 C366 1.247 . S
O390 Mg372 2.061 1_655 S
C391 O387 1.277 . S
C391 O389 1.245 . S
O392 C366 1.289 . S
O392 Mg369 2.238 . S
O392 Mg370 2.106 1_655 S
O393 Mg370 2.079 . S
O393 C375 1.245 . S
O394 Mg373 2.038 . S
O394 C375 1.274 . S
C395 O407 1.241 . S
C395 O408 1.280 . S
C396 O409 1.277 . S
C396 O410 1.245 . S
C397 O421 1.247 . S
C397 O423 1.289 . S
Mg398 O399 1.926 . S
Mg398 O408 1.984 . S
Mg398 O410 1.988 . S
Mg398 O411 2.061 . S
O399 Mg398 1.926 . S
O399 Mg400 1.986 . S
O399 Mg401 1.917 . S
Mg400 O399 1.986 . S
Mg400 O407 2.042 . S
Mg400 O409 2.041 . S
Mg400 O415 2.038 1_545 S
Mg400 O423 2.238 1_545 S
Mg401 O399 1.917 . S
Mg401 O402 1.917 1_545 S
Mg401 O412 2.106 . S
Mg401 O414 2.079 1_545 S
Mg401 O423 2.106 1_545 S
Mg401 O424 2.079 . S
O402 Mg401 1.917 1_565 S
O402 Mg403 1.926 . S
O402 Mg404 1.986 . S
Mg403 O402 1.926 . S
Mg403 O417 1.984 . S
Mg403 O420 1.988 . S
Mg403 O421 2.061 . S
Mg404 O402 1.986 . S
Mg404 O412 2.238 1_565 S
Mg404 O416 2.042 . S
Mg404 O418 2.041 . S
Mg404 O425 2.038 1_565 S
C405 O411 1.247 . S
C405 O412 1.289 . S
C406 O424 1.245 . S
C406 O425 1.274 . S
O407 C395 1.241 . S
O407 Mg400 2.042 . S
O408 C395 1.280 . S
O408 Mg398 1.984 . S
O409 C396 1.277 . S
O409 Mg400 2.041 . S
O410 C396 1.245 . S
O410 Mg398 1.988 . S
O411 Mg398 2.061 . S
O411 C405 1.247 . S
O412 Mg401 2.106 . S
O412 Mg404 2.238 1_545 S
O412 C405 1.289 . S
C413 O414 1.245 . S
C413 O415 1.274 . S
O414 Mg401 2.079 1_565 S
O414 C413 1.245 . S
O415 Mg400 2.038 1_565 S
O415 C413 1.274 . S
O416 Mg404 2.042 . S
O416 C419 1.241 . S
O417 Mg403 1.984 . S
O417 C419 1.280 . S
O418 Mg404 2.041 . S
O418 C422 1.277 . S
C419 O416 1.241 . S
C419 O417 1.280 . S
O420 Mg403 1.988 . S
O420 C422 1.245 . S
O421 C397 1.247 . S
O421 Mg403 2.061 . S
C422 O418 1.277 . S
C422 O420 1.245 . S
O423 C397 1.289 . S
O423 Mg400 2.238 1_565 S
O423 Mg401 2.106 1_565 S
O424 Mg401 2.079 . S
O424 C406 1.245 . S
O425 Mg404 2.038 1_545 S
O425 C406 1.274 . S
H426 C434 0.950 . S
H427 C439 0.950 . S
H428 C436 0.950 . S
H429 C438 0.950 . S
H430 C440 0.950 . S
H431 C442 0.950 . S
H432 C444 0.950 . S
H433 C445 0.950 . S
C434 H426 0.950 . S
C434 C435 1.386 . S
C434 C436 1.391 . S
C435 C434 1.386 . S
C435 C439 1.393 . S
C436 H428 0.950 . S
C436 C434 1.391 . S
C436 C437 1.400 . S
C437 C436 1.400 . S
C437 C438 1.398 . S
C437 C443 1.491 . S
C438 H429 0.950 . S
C438 C437 1.398 . S
C438 C439 1.391 . S
C439 H427 0.950 . S
C439 C435 1.393 . S
C439 C438 1.391 . S
C440 H430 0.950 . S
C440 C441 1.386 . S
C440 C442 1.391 . S
C441 C440 1.386 . S
C441 C445 1.393 . S
C442 H431 0.950 . S
C442 C440 1.391 . S
C442 C443 1.400 . S
C443 C437 1.491 . S
C443 C442 1.400 . S
C443 C444 1.398 . S
C444 H432 0.950 . S
C444 C443 1.398 . S
C444 C445 1.391 . S
C445 H433 0.950 . S
C445 C441 1.393 . S
C445 C444 1.391 . S
H446 C454 0.950 . S
H447 C459 0.950 . S
H448 C456 0.950 . S
H449 C458 0.950 . S
H450 C460 0.950 . S
H451 C462 0.950 . S
H452 C464 0.950 . S
H453 C465 0.950 . S
C454 H446 0.950 . S
C454 C455 1.386 . S
C454 C456 1.391 . S
C455 C454 1.386 . S
C455 C459 1.393 . S
C456 H448 0.950 . S
C456 C454 1.391 . S
C456 C457 1.400 . S
C457 C456 1.400 . S
C457 C458 1.398 . S
C457 C463 1.491 . S
C458 H449 0.950 . S
C458 C457 1.398 . S
C458 C459 1.391 . S
C459 H447 0.950 . S
C459 C455 1.393 . S
C459 C458 1.391 . S
C460 H450 0.950 . S
C460 C461 1.386 . S
C460 C462 1.391 . S
C461 C460 1.386 . S
C461 C465 1.393 . S
C462 H451 0.950 . S
C462 C460 1.391 . S
C462 C463 1.400 . S
C463 C457 1.491 . S
C463 C462 1.400 . S
C463 C464 1.398 . S
C464 H452 0.950 . S
C464 C463 1.398 . S
C464 C465 1.391 . S
C465 H453 0.950 . S
C465 C461 1.393 . S
C465 C464 1.391 . S
H466 C474 0.950 . S
H467 C479 0.950 . S
H468 C476 0.950 . S
H469 C478 0.950 . S
H470 C480 0.950 . S
H471 C482 0.950 . S
H472 C484 0.950 . S
H473 C485 0.950 . S
C474 H466 0.950 . S
C474 C475 1.386 . S
C474 C476 1.391 . S
C475 C474 1.386 . S
C475 C479 1.393 . S
C476 H468 0.950 . S
C476 C474 1.391 . S
C476 C477 1.400 . S
C477 C476 1.400 . S
C477 C478 1.398 . S
C477 C483 1.491 . S
C478 H469 0.950 . S
C478 C477 1.398 . S
C478 C479 1.391 . S
C479 H467 0.950 . S
C479 C475 1.393 . S
C479 C478 1.391 . S
C480 H470 0.950 . S
C480 C481 1.386 . S
C480 C482 1.391 . S
C481 C480 1.386 . S
C481 C485 1.393 . S
C482 H471 0.950 . S
C482 C480 1.391 . S
C482 C483 1.400 . S
C483 C477 1.491 . S
C483 C482 1.400 . S
C483 C484 1.398 . S
C484 H472 0.950 . S
C484 C483 1.398 . S
C484 C485 1.391 . S
C485 H473 0.950 . S
C485 C481 1.393 . S
C485 C484 1.391 . S
H486 C494 0.950 . S
H487 C499 0.950 . S
H488 C496 0.950 . S
H489 C498 0.950 . S
H490 C500 0.950 . S
H491 C502 0.950 . S
H492 C504 0.950 . S
H493 C505 0.950 . S
C494 H486 0.950 . S
C494 C495 1.386 . S
C494 C496 1.391 . S
C495 C494 1.386 . S
C495 C499 1.393 . S
C496 H488 0.950 . S
C496 C494 1.391 . S
C496 C497 1.400 . S
C497 C496 1.400 . S
C497 C498 1.398 . S
C497 C503 1.491 . S
C498 H489 0.950 . S
C498 C497 1.398 . S
C498 C499 1.391 . S
C499 H487 0.950 . S
C499 C495 1.393 . S
C499 C498 1.391 . S
C500 H490 0.950 . S
C500 C501 1.386 . S
C500 C502 1.391 . S
C501 C500 1.386 . S
C501 C505 1.393 . S
C502 H491 0.950 . S
C502 C500 1.391 . S
C502 C503 1.400 . S
C503 C497 1.491 . S
C503 C502 1.400 . S
C503 C504 1.398 . S
C504 H492 0.950 . S
C504 C503 1.398 . S
C504 C505 1.391 . S
C505 H493 0.950 . S
C505 C501 1.393 . S
C505 C504 1.391 . S
H506 C514 0.950 . S
H507 C519 0.950 . S
H508 C516 0.950 . S
H509 C518 0.950 . S
H510 C520 0.950 . S
H511 C522 0.950 . S
H512 C524 0.950 . S
H513 C525 0.950 . S
C514 H506 0.950 . S
C514 C515 1.386 . S
C514 C516 1.391 . S
C515 C514 1.386 . S
C515 C519 1.393 . S
C516 H508 0.950 . S
C516 C514 1.391 . S
C516 C517 1.400 . S
C517 C516 1.400 . S
C517 C518 1.398 . S
C517 C523 1.491 . S
C518 H509 0.950 . S
C518 C517 1.398 . S
C518 C519 1.391 . S
C519 H507 0.950 . S
C519 C515 1.393 . S
C519 C518 1.391 . S
C520 H510 0.950 . S
C520 C521 1.386 . S
C520 C522 1.391 . S
C521 C520 1.386 . S
C521 C525 1.393 . S
C522 H511 0.950 . S
C522 C520 1.391 . S
C522 C523 1.400 . S
C523 C517 1.491 . S
C523 C522 1.400 . S
C523 C524 1.398 . S
C524 H512 0.950 . S
C524 C523 1.398 . S
C524 C525 1.391 . S
C525 H513 0.950 . S
C525 C521 1.393 . S
C525 C524 1.391 . S
H526 C534 0.950 . S
H527 C539 0.950 . S
H528 C536 0.950 . S
H529 C538 0.950 . S
H530 C540 0.950 . S
H531 C542 0.950 . S
H532 C544 0.950 . S
H533 C545 0.950 . S
C534 H526 0.950 . S
C534 C535 1.386 . S
C534 C536 1.391 . S
C535 C534 1.386 . S
C535 C539 1.393 . S
C536 H528 0.950 . S
C536 C534 1.391 . S
C536 C537 1.400 . S
C537 C536 1.400 . S
C537 C538 1.398 . S
C537 C543 1.491 . S
C538 H529 0.950 . S
C538 C537 1.398 . S
C538 C539 1.391 . S
C539 H527 0.950 . S
C539 C535 1.393 . S
C539 C538 1.391 . S
C540 H530 0.950 . S
C540 C541 1.386 . S
C540 C542 1.391 . S
C541 C540 1.386 . S
C541 C545 1.393 . S
C542 H531 0.950 . S
C542 C540 1.391 . S
C542 C543 1.400 . S
C543 C537 1.491 . S
C543 C542 1.400 . S
C543 C544 1.398 . S
C544 H532 0.950 . S
C544 C543 1.398 . S
C544 C545 1.391 . S
C545 H533 0.950 . S
C545 C541 1.393 . S
C545 C544 1.391 . S
H546 C554 0.950 . S
H547 C559 0.950 . S
H548 C556 0.950 . S
H549 C558 0.950 . S
H550 C560 0.950 . S
H551 C562 0.950 . S
H552 C564 0.950 . S
H553 C565 0.950 . S
C554 H546 0.950 . S
C554 C555 1.386 . S
C554 C556 1.391 . S
C555 C554 1.386 . S
C555 C559 1.393 . S
C556 H548 0.950 . S
C556 C554 1.391 . S
C556 C557 1.400 . S
C557 C556 1.400 . S
C557 C558 1.398 . S
C557 C563 1.491 . S
C558 H549 0.950 . S
C558 C557 1.398 . S
C558 C559 1.391 . S
C559 H547 0.950 . S
C559 C555 1.393 . S
C559 C558 1.391 . S
C560 H550 0.950 . S
C560 C561 1.386 . S
C560 C562 1.391 . S
C561 C560 1.386 . S
C561 C565 1.393 . S
C562 H551 0.950 . S
C562 C560 1.391 . S
C562 C563 1.400 . S
C563 C557 1.491 . S
C563 C562 1.400 . S
C563 C564 1.398 . S
C564 H552 0.950 . S
C564 C563 1.398 . S
C564 C565 1.391 . S
C565 H553 0.950 . S
C565 C561 1.393 . S
C565 C564 1.391 . S
H566 C574 0.950 . S
H567 C579 0.950 . S
H568 C576 0.950 . S
H569 C578 0.950 . S
H570 C580 0.950 . S
H571 C582 0.950 . S
H572 C584 0.950 . S
H573 C585 0.952 1_545 S
C574 H566 0.950 . S
C574 C575 1.386 . S
C574 C576 1.391 . S
C575 C574 1.386 . S
C575 C579 1.393 . S
C576 H568 0.950 . S
C576 C574 1.391 . S
C576 C577 1.400 . S
C577 C576 1.400 . S
C577 C578 1.398 . S
C577 C583 1.491 . S
C578 H569 0.950 . S
C578 C577 1.398 . S
C578 C579 1.391 . S
C579 H567 0.950 . S
C579 C575 1.393 . S
C579 C578 1.391 . S
C580 H570 0.950 . S
C580 C581 1.386 . S
C580 C582 1.391 . S
C581 C580 1.386 . S
C581 C585 1.393 . S
C582 H571 0.950 . S
C582 C580 1.391 . S
C582 C583 1.400 . S
C583 C577 1.491 . S
C583 C582 1.400 . S
C583 C584 1.398 . S
C584 H572 0.950 . S
C584 C583 1.398 . S
C584 C585 1.391 . S
C585 H573 0.952 1_565 S
C585 C581 1.393 . S
C585 C584 1.391 . S
H586 C594 0.950 . S
H587 C599 0.950 . S
H588 C596 0.950 . S
H589 C598 0.950 . S
H590 C600 0.950 . S
H591 C602 0.950 . S
H592 C604 0.950 . S
H593 C605 0.950 . S
C594 H586 0.950 . S
C594 C595 1.386 . S
C594 C596 1.391 . S
C595 C594 1.386 . S
C595 C599 1.393 . S
C596 H588 0.950 . S
C596 C594 1.391 . S
C596 C597 1.400 . S
C597 C596 1.400 . S
C597 C598 1.398 . S
C597 C603 1.491 . S
C598 H589 0.950 . S
C598 C597 1.398 . S
C598 C599 1.391 . S
C599 H587 0.950 . S
C599 C595 1.393 . S
C599 C598 1.391 . S
C600 H590 0.950 . S
C600 C601 1.386 . S
C600 C602 1.391 . S
C601 C600 1.386 . S
C601 C605 1.393 . S
C602 H591 0.950 . S
C602 C600 1.391 . S
C602 C603 1.400 . S
C603 C597 1.491 . S
C603 C602 1.400 . S
C603 C604 1.398 . S
C604 H592 0.950 . S
C604 C603 1.398 . S
C604 C605 1.391 . S
C605 H593 0.950 . S
C605 C601 1.393 . S
C605 C604 1.391 . S
H606 C614 0.950 . S
H607 C619 0.950 . S
H608 C616 0.950 . S
H609 C618 0.950 . S
H610 C620 0.950 . S
H611 C622 0.950 . S
H612 C624 0.950 . S
H613 C625 0.950 . S
C614 H606 0.950 . S
C614 C615 1.386 . S
C614 C616 1.391 . S
C615 C614 1.386 . S
C615 C619 1.393 . S
C616 H608 0.950 . S
C616 C614 1.391 . S
C616 C617 1.400 . S
C617 C616 1.400 . S
C617 C618 1.398 . S
C617 C623 1.491 . S
C618 H609 0.950 . S
C618 C617 1.398 . S
C618 C619 1.391 . S
C619 H607 0.950 . S
C619 C615 1.393 . S
C619 C618 1.391 . S
C620 H610 0.950 . S
C620 C621 1.386 . S
C620 C622 1.391 . S
C621 C620 1.386 . S
C621 C625 1.393 . S
C622 H611 0.950 . S
C622 C620 1.391 . S
C622 C623 1.400 . S
C623 C617 1.491 . S
C623 C622 1.400 . S
C623 C624 1.398 . S
C624 H612 0.950 . S
C624 C623 1.398 . S
C624 C625 1.391 . S
C625 H613 0.950 . S
C625 C621 1.393 . S
C625 C624 1.391 . S
H626 C634 0.950 . S
H627 C639 0.950 . S
H628 C636 0.950 . S
H629 C638 0.950 . S
H630 C640 0.950 . S
H631 C642 0.950 . S
H632 C644 0.950 . S
H633 C645 0.950 . S
C634 H626 0.950 . S
C634 C635 1.386 . S
C634 C636 1.391 . S
C635 C634 1.386 . S
C635 C639 1.393 . S
C636 H628 0.950 . S
C636 C634 1.391 . S
C636 C637 1.400 . S
C637 C636 1.400 . S
C637 C638 1.398 . S
C637 C643 1.491 . S
C638 H629 0.950 . S
C638 C637 1.398 . S
C638 C639 1.391 . S
C639 H627 0.950 . S
C639 C635 1.393 . S
C639 C638 1.391 . S
C640 H630 0.950 . S
C640 C641 1.386 . S
C640 C642 1.391 . S
C641 C640 1.386 . S
C641 C645 1.393 . S
C642 H631 0.950 . S
C642 C640 1.391 . S
C642 C643 1.400 . S
C643 C637 1.491 . S
C643 C642 1.400 . S
C643 C644 1.398 . S
C644 H632 0.950 . S
C644 C643 1.398 . S
C644 C645 1.391 . S
C645 H633 0.950 . S
C645 C641 1.393 . S
C645 C644 1.391 . S
H646 C654 0.950 . S
H647 C659 0.950 . S
H648 C656 0.950 . S
H649 C658 0.950 . S
H650 C660 0.950 . S
H651 C662 0.950 . S
H652 C664 0.950 . S
H653 C665 0.950 . S
C654 H646 0.950 . S
C654 C655 1.386 . S
C654 C656 1.391 . S
C655 C654 1.386 . S
C655 C659 1.393 . S
C656 H648 0.950 . S
C656 C654 1.391 . S
C656 C657 1.400 . S
C657 C656 1.400 . S
C657 C658 1.398 . S
C657 C663 1.491 . S
C658 H649 0.950 . S
C658 C657 1.398 . S
C658 C659 1.391 . S
C659 H647 0.950 . S
C659 C655 1.393 . S
C659 C658 1.391 . S
C660 H650 0.950 . S
C660 C661 1.386 . S
C660 C662 1.391 . S
C661 C660 1.386 . S
C661 C665 1.393 . S
C662 H651 0.950 . S
C662 C660 1.391 . S
C662 C663 1.400 . S
C663 C657 1.491 . S
C663 C662 1.400 . S
C663 C664 1.398 . S
C664 H652 0.950 . S
C664 C663 1.398 . S
C664 C665 1.391 . S
C665 H653 0.950 . S
C665 C661 1.393 . S
C665 C664 1.391 . S
H666 C674 0.950 . S
H667 C679 0.950 . S
H668 C676 0.950 . S
H669 C678 0.950 . S
H670 C680 0.950 . S
H671 C682 0.950 . S
H672 C684 0.950 . S
H673 C685 0.950 . S
C674 H666 0.950 . S
C674 C675 1.386 . S
C674 C676 1.391 . S
C675 C674 1.386 . S
C675 C679 1.393 . S
C676 H668 0.950 . S
C676 C674 1.391 . S
C676 C677 1.400 . S
C677 C676 1.400 . S
C677 C678 1.398 . S
C677 C683 1.491 . S
C678 H669 0.950 . S
C678 C677 1.398 . S
C678 C679 1.391 . S
C679 H667 0.950 . S
C679 C675 1.393 . S
C679 C678 1.391 . S
C680 H670 0.950 . S
C680 C681 1.386 . S
C680 C682 1.391 . S
C681 C680 1.386 . S
C681 C685 1.393 . S
C682 H671 0.950 . S
C682 C680 1.391 . S
C682 C683 1.400 . S
C683 C677 1.491 . S
C683 C682 1.400 . S
C683 C684 1.398 . S
C684 H672 0.950 . S
C684 C683 1.398 . S
C684 C685 1.391 . S
C685 H673 0.950 . S
C685 C681 1.393 . S
C685 C684 1.391 . S
H686 C694 0.950 . S
H687 C699 0.950 . S
H688 C696 0.950 . S
H689 C698 0.950 . S
H690 C700 0.950 . S
H691 C702 0.950 . S
H692 C704 0.950 . S
H693 C705 0.950 . S
C694 H686 0.950 . S
C694 C695 1.386 . S
C694 C696 1.391 . S
C695 C694 1.386 . S
C695 C699 1.393 . S
C696 H688 0.950 . S
C696 C694 1.391 . S
C696 C697 1.400 . S
C697 C696 1.400 . S
C697 C698 1.398 . S
C697 C703 1.491 . S
C698 H689 0.950 . S
C698 C697 1.398 . S
C698 C699 1.391 . S
C699 H687 0.950 . S
C699 C695 1.393 . S
C699 C698 1.391 . S
C700 H690 0.950 . S
C700 C701 1.386 . S
C700 C702 1.391 . S
C701 C700 1.386 . S
C701 C705 1.393 . S
C702 H691 0.950 . S
C702 C700 1.391 . S
C702 C703 1.400 . S
C703 C697 1.491 . S
C703 C702 1.400 . S
C703 C704 1.398 . S
C704 H692 0.950 . S
C704 C703 1.398 . S
C704 C705 1.391 . S
C705 H693 0.950 . S
C705 C701 1.393 . S
C705 C704 1.391 . S
H706 C714 0.950 . S
H707 C719 0.950 . S
H708 C716 0.950 . S
H709 C718 0.950 . S
H710 C720 0.950 . S
H711 C722 0.950 . S
H712 C724 0.950 . S
H713 C725 0.950 . S
C714 H706 0.950 . S
C714 C715 1.386 . S
C714 C716 1.391 . S
C715 C714 1.386 . S
C715 C719 1.393 . S
C716 H708 0.950 . S
C716 C714 1.391 . S
C716 C717 1.400 . S
C717 C716 1.400 . S
C717 C718 1.398 . S
C717 C723 1.491 . S
C718 H709 0.950 . S
C718 C717 1.398 . S
C718 C719 1.391 . S
C719 H707 0.950 . S
C719 C715 1.393 . S
C719 C718 1.391 . S
C720 H710 0.950 . S
C720 C721 1.386 . S
C720 C722 1.391 . S
C721 C720 1.386 . S
C721 C725 1.393 . S
C722 H711 0.950 . S
C722 C720 1.391 . S
C722 C723 1.400 . S
C723 C717 1.491 . S
C723 C722 1.400 . S
C723 C724 1.398 . S
C724 H712 0.950 . S
C724 C723 1.398 . S
C724 C725 1.391 . S
C725 H713 0.950 . S
C725 C721 1.393 . S
C725 C724 1.391 . S
H726 C734 0.950 . S
H727 C739 0.950 . S
H728 C736 0.950 . S
H729 C738 0.950 . S
H730 C740 0.950 . S
H731 C742 0.950 . S
H732 C744 0.950 . S
H733 C745 0.950 . S
C734 H726 0.950 . S
C734 C735 1.386 . S
C734 C736 1.391 . S
C735 C734 1.386 . S
C735 C739 1.393 . S
C736 H728 0.950 . S
C736 C734 1.391 . S
C736 C737 1.400 . S
C737 C736 1.400 . S
C737 C738 1.398 . S
C737 C743 1.491 . S
C738 H729 0.950 . S
C738 C737 1.398 . S
C738 C739 1.391 . S
C739 H727 0.950 . S
C739 C735 1.393 . S
C739 C738 1.391 . S
C740 H730 0.950 . S
C740 C741 1.386 . S
C740 C742 1.391 . S
C741 C740 1.386 . S
C741 C745 1.393 . S
C742 H731 0.950 . S
C742 C740 1.391 . S
C742 C743 1.400 . S
C743 C737 1.491 . S
C743 C742 1.400 . S
C743 C744 1.398 . S
C744 H732 0.950 . S
C744 C743 1.398 . S
C744 C745 1.391 . S
C745 H733 0.950 . S
C745 C741 1.393 . S
C745 C744 1.391 . S
H746 C754 0.950 . S
H747 C759 0.950 . S
H748 C756 0.950 . S
H749 C758 0.950 . S
H750 C760 0.950 . S
H751 C762 0.950 . S
H752 C764 0.950 . S
H753 C765 0.950 . S
C754 H746 0.950 . S
C754 C755 1.386 . S
C754 C756 1.391 . S
C755 C754 1.386 . S
C755 C759 1.393 . S
C756 H748 0.950 . S
C756 C754 1.391 . S
C756 C757 1.400 . S
C757 C756 1.400 . S
C757 C758 1.398 . S
C757 C763 1.491 . S
C758 H749 0.950 . S
C758 C757 1.398 . S
C758 C759 1.391 . S
C759 H747 0.950 . S
C759 C755 1.393 . S
C759 C758 1.391 . S
C760 H750 0.950 . S
C760 C761 1.386 . S
C760 C762 1.391 . S
C761 C760 1.386 . S
C761 C765 1.393 . S
C762 H751 0.950 . S
C762 C760 1.391 . S
C762 C763 1.400 . S
C763 C757 1.491 . S
C763 C762 1.400 . S
C763 C764 1.398 . S
C764 H752 0.950 . S
C764 C763 1.398 . S
C764 C765 1.391 . S
C765 H753 0.950 . S
C765 C761 1.393 . S
C765 C764 1.391 . S
H766 C774 0.950 . S
H767 C779 0.950 . S
H768 C776 0.950 . S
H769 C778 0.950 . S
H770 C780 0.950 . S
H771 C782 0.950 . S
H772 C784 0.950 . S
H773 C785 0.950 . S
C774 H766 0.950 . S
C774 C775 1.386 . S
C774 C776 1.391 . S
C775 C774 1.386 . S
C775 C779 1.393 . S
C776 H768 0.950 . S
C776 C774 1.391 . S
C776 C777 1.400 . S
C777 C776 1.400 . S
C777 C778 1.398 . S
C777 C783 1.491 . S
C778 H769 0.950 . S
C778 C777 1.398 . S
C778 C779 1.391 . S
C779 H767 0.950 . S
C779 C775 1.393 . S
C779 C778 1.391 . S
C780 H770 0.950 . S
C780 C781 1.386 . S
C780 C782 1.391 . S
C781 C780 1.386 . S
C781 C785 1.393 . S
C782 H771 0.950 . S
C782 C780 1.391 . S
C782 C783 1.400 . S
C783 C777 1.491 . S
C783 C782 1.400 . S
C783 C784 1.398 . S
C784 H772 0.950 . S
C784 C783 1.398 . S
C784 C785 1.391 . S
C785 H773 0.950 . S
C785 C781 1.393 . S
C785 C784 1.391 . S
H786 C794 0.950 . S
H787 C799 0.950 . S
H788 C796 0.950 . S
H789 C798 0.950 . S
H790 C800 0.950 . S
H791 C802 0.950 . S
H792 C804 0.950 . S
H793 C805 0.950 . S
C794 H786 0.950 . S
C794 C795 1.386 . S
C794 C796 1.391 . S
C795 C794 1.386 . S
C795 C799 1.393 . S
C796 H788 0.950 . S
C796 C794 1.391 . S
C796 C797 1.400 . S
C797 C796 1.400 . S
C797 C798 1.398 . S
C797 C803 1.491 . S
C798 H789 0.950 . S
C798 C797 1.398 . S
C798 C799 1.391 . S
C799 H787 0.950 . S
C799 C795 1.393 . S
C799 C798 1.391 . S
C800 H790 0.950 . S
C800 C801 1.386 . S
C800 C802 1.391 . S
C801 C800 1.386 . S
C801 C805 1.393 . S
C802 H791 0.950 . S
C802 C800 1.391 . S
C802 C803 1.400 . S
C803 C797 1.491 . S
C803 C802 1.400 . S
C803 C804 1.398 . S
C804 H792 0.950 . S
C804 C803 1.398 . S
C804 C805 1.391 . S
C805 H793 0.950 . S
C805 C801 1.393 . S
C805 C804 1.391 . S
H806 C814 0.950 . S
H807 C819 0.950 . S
H808 C816 0.950 . S
H809 C818 0.950 . S
H810 C820 0.950 . S
H811 C822 0.950 . S
H812 C824 0.950 . S
H813 C825 0.950 . S
C814 H806 0.950 . S
C814 C815 1.386 . S
C814 C816 1.391 . S
C815 C814 1.386 . S
C815 C819 1.393 . S
C816 H808 0.950 . S
C816 C814 1.391 . S
C816 C817 1.400 . S
C817 C816 1.400 . S
C817 C818 1.398 . S
C817 C823 1.491 . S
C818 H809 0.950 . S
C818 C817 1.398 . S
C818 C819 1.391 . S
C819 H807 0.950 . S
C819 C815 1.393 . S
C819 C818 1.391 . S
C820 H810 0.950 . S
C820 C821 1.386 . S
C820 C822 1.391 . S
C821 C820 1.386 . S
C821 C825 1.393 . S
C822 H811 0.950 . S
C822 C820 1.391 . S
C822 C823 1.400 . S
C823 C817 1.491 . S
C823 C822 1.400 . S
C823 C824 1.398 . S
C824 H812 0.950 . S
C824 C823 1.398 . S
C824 C825 1.391 . S
C825 H813 0.950 . S
C825 C821 1.393 . S
C825 C824 1.391 . S
H826 C834 0.950 . S
H827 C839 0.950 . S
H828 C836 0.950 . S
H829 C838 0.950 . S
H830 C840 0.950 . S
H831 C842 0.950 . S
H832 C844 0.950 . S
H833 C845 0.950 . S
C834 H826 0.950 . S
C834 C835 1.386 . S
C834 C836 1.391 . S
C835 C834 1.386 . S
C835 C839 1.393 . S
C836 H828 0.950 . S
C836 C834 1.391 . S
C836 C837 1.400 . S
C837 C836 1.400 . S
C837 C838 1.398 . S
C837 C843 1.491 . S
C838 H829 0.950 . S
C838 C837 1.398 . S
C838 C839 1.391 . S
C839 H827 0.950 . S
C839 C835 1.393 . S
C839 C838 1.391 . S
C840 H830 0.950 . S
C840 C841 1.386 . S
C840 C842 1.391 . S
C841 C840 1.386 . S
C841 C845 1.393 . S
C842 H831 0.950 . S
C842 C840 1.391 . S
C842 C843 1.400 . S
C843 C837 1.491 . S
C843 C842 1.400 . S
C843 C844 1.398 . S
C844 H832 0.950 . S
C844 C843 1.398 . S
C844 C845 1.391 . S
C845 H833 0.950 . S
C845 C841 1.393 . S
C845 C844 1.391 . S
H846 C854 0.950 . S
H847 C859 0.950 . S
H848 C856 0.950 . S
H849 C858 0.950 . S
H850 C860 0.950 . S
H851 C862 0.950 . S
H852 C864 0.950 . S
H853 C865 0.950 . S
C854 H846 0.950 . S
C854 C855 1.386 . S
C854 C856 1.391 . S
C855 C854 1.386 . S
C855 C859 1.393 . S
C856 H848 0.950 . S
C856 C854 1.391 . S
C856 C857 1.400 . S
C857 C856 1.400 . S
C857 C858 1.398 . S
C857 C863 1.491 . S
C858 H849 0.950 . S
C858 C857 1.398 . S
C858 C859 1.391 . S
C859 H847 0.950 . S
C859 C855 1.393 . S
C859 C858 1.391 . S
C860 H850 0.950 . S
C860 C861 1.386 . S
C860 C862 1.391 . S
C861 C860 1.386 . S
C861 C865 1.393 . S
C862 H851 0.950 . S
C862 C860 1.391 . S
C862 C863 1.400 . S
C863 C857 1.491 . S
C863 C862 1.400 . S
C863 C864 1.398 . S
C864 H852 0.950 . S
C864 C863 1.398 . S
C864 C865 1.391 . S
C865 H853 0.950 . S
C865 C861 1.393 . S
C865 C864 1.391 . S
H866 C874 0.950 . S
H867 C879 0.950 . S
H868 C876 0.950 . S
H869 C878 0.950 . S
H870 C880 0.950 . S
H871 C882 0.950 . S
H872 C884 0.950 . S
H873 C885 0.950 . S
C874 H866 0.950 . S
C874 C875 1.386 . S
C874 C876 1.391 . S
C875 C874 1.386 . S
C875 C879 1.393 . S
C876 H868 0.950 . S
C876 C874 1.391 . S
C876 C877 1.400 . S
C877 C876 1.400 . S
C877 C878 1.398 . S
C877 C883 1.491 . S
C878 H869 0.950 . S
C878 C877 1.398 . S
C878 C879 1.391 . S
C879 H867 0.950 . S
C879 C875 1.393 . S
C879 C878 1.391 . S
C880 H870 0.950 . S
C880 C881 1.386 . S
C880 C882 1.391 . S
C881 C880 1.386 . S
C881 C885 1.393 . S
C882 H871 0.950 . S
C882 C880 1.391 . S
C882 C883 1.400 . S
C883 C877 1.491 . S
C883 C882 1.400 . S
C883 C884 1.398 . S
C884 H872 0.950 . S
C884 C883 1.398 . S
C884 C885 1.391 . S
C885 H873 0.950 . S
C885 C881 1.393 . S
C885 C884 1.391 . S
H886 C894 0.950 . S
H887 C899 0.950 . S
H888 C896 0.950 . S
H889 C898 0.950 . S
H890 C900 0.950 . S
H891 C902 0.950 . S
H892 C904 0.950 . S
H893 C905 0.950 . S
C894 H886 0.950 . S
C894 C895 1.386 . S
C894 C896 1.391 . S
C895 C894 1.386 . S
C895 C899 1.393 . S
C896 H888 0.950 . S
C896 C894 1.391 . S
C896 C897 1.400 . S
C897 C896 1.400 . S
C897 C898 1.398 . S
C897 C903 1.491 . S
C898 H889 0.950 . S
C898 C897 1.398 . S
C898 C899 1.391 . S
C899 H887 0.950 . S
C899 C895 1.393 . S
C899 C898 1.391 . S
C900 H890 0.950 . S
C900 C901 1.386 . S
C900 C902 1.391 . S
C901 C900 1.386 . S
C901 C905 1.393 . S
C902 H891 0.950 . S
C902 C900 1.391 . S
C902 C903 1.400 . S
C903 C897 1.491 . S
C903 C902 1.400 . S
C903 C904 1.398 . S
C904 H892 0.950 . S
C904 C903 1.398 . S
C904 C905 1.391 . S
C905 H893 0.950 . S
C905 C901 1.393 . S
C905 C904 1.391 . S
H906 C914 0.950 . S
H907 C919 0.950 . S
H908 C916 0.950 . S
H909 C918 0.950 . S
H910 C920 0.950 . S
H911 C922 0.950 . S
H912 C924 0.950 . S
H913 C925 0.950 . S
C914 H906 0.950 . S
C914 C915 1.386 . S
C914 C916 1.391 . S
C915 C914 1.386 . S
C915 C919 1.393 . S
C916 H908 0.950 . S
C916 C914 1.391 . S
C916 C917 1.400 . S
C917 C916 1.400 . S
C917 C918 1.398 . S
C917 C923 1.491 . S
C918 H909 0.950 . S
C918 C917 1.398 . S
C918 C919 1.391 . S
C919 H907 0.950 . S
C919 C915 1.393 . S
C919 C918 1.391 . S
C920 H910 0.950 . S
C920 C921 1.386 . S
C920 C922 1.391 . S
C921 C920 1.386 . S
C921 C925 1.393 . S
C922 H911 0.950 . S
C922 C920 1.391 . S
C922 C923 1.400 . S
C923 C917 1.491 . S
C923 C922 1.400 . S
C923 C924 1.398 . S
C924 H912 0.950 . S
C924 C923 1.398 . S
C924 C925 1.391 . S
C925 H913 0.950 . S
C925 C921 1.393 . S
C925 C924 1.391 . S
H926 C934 0.950 . S
H927 C939 0.950 . S
H928 C936 0.950 . S
H929 C938 0.950 . S
H930 C940 0.950 . S
H931 C942 0.950 . S
H932 C944 0.950 . S
H933 C945 0.950 . S
C934 H926 0.950 . S
C934 C935 1.386 . S
C934 C936 1.391 . S
C935 C934 1.386 . S
C935 C939 1.393 . S
C936 H928 0.950 . S
C936 C934 1.391 . S
C936 C937 1.400 . S
C937 C936 1.400 . S
C937 C938 1.398 . S
C937 C943 1.491 . S
C938 H929 0.950 . S
C938 C937 1.398 . S
C938 C939 1.391 . S
C939 H927 0.950 . S
C939 C935 1.393 . S
C939 C938 1.391 . S
C940 H930 0.950 . S
C940 C941 1.386 . S
C940 C942 1.391 . S
C941 C940 1.386 . S
C941 C945 1.393 . S
C942 H931 0.950 . S
C942 C940 1.391 . S
C942 C943 1.400 . S
C943 C937 1.491 . S
C943 C942 1.400 . S
C943 C944 1.398 . S
C944 H932 0.950 . S
C944 C943 1.398 . S
C944 C945 1.391 . S
C945 H933 0.950 . S
C945 C941 1.393 . S
C945 C944 1.391 . S
H946 C954 0.950 . S
H947 C959 0.950 . S
H948 C956 0.950 . S
H949 C958 0.950 . S
H950 C960 0.950 . S
H951 C962 0.950 . S
H952 C964 0.950 . S
H953 C965 0.950 . S
C954 H946 0.950 . S
C954 C955 1.386 . S
C954 C956 1.391 . S
C955 C954 1.386 . S
C955 C959 1.393 . S
C956 H948 0.950 . S
C956 C954 1.391 . S
C956 C957 1.400 . S
C957 C956 1.400 . S
C957 C958 1.398 . S
C957 C963 1.491 . S
C958 H949 0.950 . S
C958 C957 1.398 . S
C958 C959 1.391 . S
C959 H947 0.950 . S
C959 C955 1.393 . S
C959 C958 1.391 . S
C960 H950 0.950 . S
C960 C961 1.386 . S
C960 C962 1.391 . S
C961 C960 1.386 . S
C961 C965 1.393 . S
C962 H951 0.950 . S
C962 C960 1.391 . S
C962 C963 1.400 . S
C963 C957 1.491 . S
C963 C962 1.400 . S
C963 C964 1.398 . S
C964 H952 0.950 . S
C964 C963 1.398 . S
C964 C965 1.391 . S
C965 H953 0.950 . S
C965 C961 1.393 . S
C965 C964 1.391 . S
H966 C974 0.950 . S
H967 C979 0.950 . S
H968 C976 0.950 . S
H969 C978 0.950 . S
H970 C980 0.950 . S
H971 C982 0.950 . S
H972 C984 0.950 . S
H973 C985 0.950 . S
C974 H966 0.950 . S
C974 C975 1.386 . S
C974 C976 1.391 . S
C975 C974 1.386 . S
C975 C979 1.393 . S
C976 H968 0.950 . S
C976 C974 1.391 . S
C976 C977 1.400 . S
C977 C976 1.400 . S
C977 C978 1.398 . S
C977 C983 1.491 . S
C978 H969 0.950 . S
C978 C977 1.398 . S
C978 C979 1.391 . S
C979 H967 0.950 . S
C979 C975 1.393 . S
C979 C978 1.391 . S
C980 H970 0.950 . S
C980 C981 1.386 . S
C980 C982 1.391 . S
C981 C980 1.386 . S
C981 C985 1.393 . S
C982 H971 0.950 . S
C982 C980 1.391 . S
C982 C983 1.400 . S
C983 C977 1.491 . S
C983 C982 1.400 . S
C983 C984 1.398 . S
C984 H972 0.950 . S
C984 C983 1.398 . S
C984 C985 1.391 . S
C985 H973 0.950 . S
C985 C981 1.393 . S
C985 C984 1.391 . S
H986 C994 0.950 . S
H987 C999 0.950 . S
H988 C996 0.950 . S
H989 C998 0.950 . S
H990 C1000 0.950 . S
H991 C1002 0.950 . S
H992 C1004 0.950 . S
H993 C1005 0.950 . S
C994 H986 0.950 . S
C994 C995 1.386 . S
C994 C996 1.391 . S
C995 C994 1.386 . S
C995 C999 1.393 . S
C996 H988 0.950 . S
C996 C994 1.391 . S
C996 C997 1.400 . S
C997 C996 1.400 . S
C997 C998 1.398 . S
C997 C1003 1.491 . S
C998 H989 0.950 . S
C998 C997 1.398 . S
C998 C999 1.391 . S
C999 H987 0.950 . S
C999 C995 1.393 . S
C999 C998 1.391 . S
C1000 H990 0.950 . S
C1000 C1001 1.386 . S
C1000 C1002 1.391 . S
C1001 C1000 1.386 . S
C1001 C1005 1.393 . S
C1002 H991 0.950 . S
C1002 C1000 1.391 . S
C1002 C1003 1.400 . S
C1003 C997 1.491 . S
C1003 C1002 1.400 . S
C1003 C1004 1.398 . S
C1004 H992 0.950 . S
C1004 C1003 1.398 . S
C1004 C1005 1.391 . S
C1005 H993 0.950 . S
C1005 C1001 1.393 . S
C1005 C1004 1.391 . S
H1006 C1014 0.950 . S
H1007 C1019 0.950 . S
H1008 C1016 0.950 . S
H1009 C1018 0.950 . S
H1010 C1020 0.950 . S
H1011 C1022 0.950 . S
H1012 C1024 0.950 . S
H1013 C1025 0.950 . S
C1014 H1006 0.950 . S
C1014 C1015 1.386 . S
C1014 C1016 1.391 . S
C1015 C1014 1.386 . S
C1015 C1019 1.393 . S
C1016 H1008 0.950 . S
C1016 C1014 1.391 . S
C1016 C1017 1.400 . S
C1017 C1016 1.400 . S
C1017 C1018 1.398 . S
C1017 C1023 1.491 . S
C1018 H1009 0.950 . S
C1018 C1017 1.398 . S
C1018 C1019 1.391 . S
C1019 H1007 0.950 . S
C1019 C1015 1.393 . S
C1019 C1018 1.391 . S
C1020 H1010 0.950 . S
C1020 C1021 1.386 . S
C1020 C1022 1.391 . S
C1021 C1020 1.386 . S
C1021 C1025 1.393 . S
C1022 H1011 0.950 . S
C1022 C1020 1.391 . S
C1022 C1023 1.400 . S
C1023 C1017 1.491 . S
C1023 C1022 1.400 . S
C1023 C1024 1.398 . S
C1024 H1012 0.950 . S
C1024 C1023 1.398 . S
C1024 C1025 1.391 . S
C1025 H1013 0.950 . S
C1025 C1021 1.393 . S
C1025 C1024 1.391 . S
H1026 C1034 0.950 . S
H1027 C1039 0.950 . S
H1028 C1036 0.950 . S
H1029 C1038 0.950 . S
H1030 C1040 0.950 . S
H1031 C1042 0.950 . S
H1032 C1044 0.950 . S
H1033 C1045 0.950 . S
C1034 H1026 0.950 . S
C1034 C1035 1.386 . S
C1034 C1036 1.391 . S
C1035 C1034 1.386 . S
C1035 C1039 1.393 . S
C1036 H1028 0.950 . S
C1036 C1034 1.391 . S
C1036 C1037 1.400 . S
C1037 C1036 1.400 . S
C1037 C1038 1.398 . S
C1037 C1043 1.491 . S
C1038 H1029 0.950 . S
C1038 C1037 1.398 . S
C1038 C1039 1.391 . S
C1039 H1027 0.950 . S
C1039 C1035 1.393 . S
C1039 C1038 1.391 . S
C1040 H1030 0.950 . S
C1040 C1041 1.386 . S
C1040 C1042 1.391 . S
C1041 C1040 1.386 . S
C1041 C1045 1.393 . S
C1042 H1031 0.950 . S
C1042 C1040 1.391 . S
C1042 C1043 1.400 . S
C1043 C1037 1.491 . S
C1043 C1042 1.400 . S
C1043 C1044 1.398 . S
C1044 H1032 0.950 . S
C1044 C1043 1.398 . S
C1044 C1045 1.391 . S
C1045 H1033 0.950 . S
C1045 C1041 1.393 . S
C1045 C1044 1.391 . S
H1046 C1054 0.950 . S
H1047 C1059 0.950 . S
H1048 C1056 0.950 . S
H1049 C1058 0.950 . S
H1050 C1060 0.950 . S
H1051 C1062 0.950 . S
H1052 C1064 0.950 . S
H1053 C1065 0.950 . S
C1054 H1046 0.950 . S
C1054 C1055 1.386 . S
C1054 C1056 1.391 . S
C1055 C1054 1.386 . S
C1055 C1059 1.393 . S
C1056 H1048 0.950 . S
C1056 C1054 1.391 . S
C1056 C1057 1.400 . S
C1057 C1056 1.400 . S
C1057 C1058 1.398 . S
C1057 C1063 1.491 . S
C1058 H1049 0.950 . S
C1058 C1057 1.398 . S
C1058 C1059 1.391 . S
C1059 H1047 0.950 . S
C1059 C1055 1.393 . S
C1059 C1058 1.391 . S
C1060 H1050 0.950 . S
C1060 C1061 1.386 . S
C1060 C1062 1.391 . S
C1061 C1060 1.386 . S
C1061 C1065 1.393 . S
C1062 H1051 0.950 . S
C1062 C1060 1.391 . S
C1062 C1063 1.400 . S
C1063 C1057 1.491 . S
C1063 C1062 1.400 . S
C1063 C1064 1.398 . S
C1064 H1052 0.950 . S
C1064 C1063 1.398 . S
C1064 C1065 1.391 . S
C1065 H1053 0.950 . S
C1065 C1061 1.393 . S
C1065 C1064 1.391 . S
H1066 C1074 0.950 . S
H1067 C1079 0.950 . S
H1068 C1076 0.950 . S
H1069 C1078 0.950 . S
H1070 C1080 0.950 . S
H1071 C1082 0.950 . S
H1072 C1084 0.950 . S
H1073 C1085 0.950 . S
C1074 H1066 0.950 . S
C1074 C1075 1.386 . S
C1074 C1076 1.391 . S
C1075 C1074 1.386 . S
C1075 C1079 1.393 . S
C1076 H1068 0.950 . S
C1076 C1074 1.391 . S
C1076 C1077 1.400 . S
C1077 C1076 1.400 . S
C1077 C1078 1.398 . S
C1077 C1083 1.491 . S
C1078 H1069 0.950 . S
C1078 C1077 1.398 . S
C1078 C1079 1.391 . S
C1079 H1067 0.950 . S
C1079 C1075 1.393 . S
C1079 C1078 1.391 . S
C1080 H1070 0.950 . S
C1080 C1081 1.386 . S
C1080 C1082 1.391 . S
C1081 C1080 1.386 . S
C1081 C1085 1.393 . S
C1082 H1071 0.950 . S
C1082 C1080 1.391 . S
C1082 C1083 1.400 . S
C1083 C1077 1.491 . S
C1083 C1082 1.400 . S
C1083 C1084 1.398 . S
C1084 H1072 0.950 . S
C1084 C1083 1.398 . S
C1084 C1085 1.391 . S
C1085 H1073 0.950 . S
C1085 C1081 1.393 . S
C1085 C1084 1.391 . S
H1086 C1094 0.950 . S
H1087 C1099 0.950 . S
H1088 C1096 0.950 . S
H1089 C1098 0.950 . S
H1090 C1100 0.950 . S
H1091 C1102 0.950 . S
H1092 C1104 0.950 . S
H1093 C1105 0.950 . S
C1094 H1086 0.950 . S
C1094 C1095 1.386 . S
C1094 C1096 1.391 . S
C1095 C1094 1.386 . S
C1095 C1099 1.393 . S
C1096 H1088 0.950 . S
C1096 C1094 1.391 . S
C1096 C1097 1.400 . S
C1097 C1096 1.400 . S
C1097 C1098 1.398 . S
C1097 C1103 1.491 . S
C1098 H1089 0.950 . S
C1098 C1097 1.398 . S
C1098 C1099 1.391 . S
C1099 H1087 0.950 . S
C1099 C1095 1.393 . S
C1099 C1098 1.391 . S
C1100 H1090 0.950 . S
C1100 C1101 1.386 . S
C1100 C1102 1.391 . S
C1101 C1100 1.386 . S
C1101 C1105 1.393 . S
C1102 H1091 0.950 . S
C1102 C1100 1.391 . S
C1102 C1103 1.400 . S
C1103 C1097 1.491 . S
C1103 C1102 1.400 . S
C1103 C1104 1.398 . S
C1104 H1092 0.950 . S
C1104 C1103 1.398 . S
C1104 C1105 1.391 . S
C1105 H1093 0.950 . S
C1105 C1101 1.393 . S
C1105 C1104 1.391 . S
H1106 C1114 0.950 . S
H1107 C1119 0.950 . S
H1108 C1116 0.950 . S
H1109 C1118 0.950 . S
H1110 C1120 0.950 . S
H1111 C1122 0.950 . S
H1112 C1124 0.950 . S
H1113 C1125 0.950 . S
C1114 H1106 0.950 . S
C1114 C1115 1.386 . S
C1114 C1116 1.391 . S
C1115 C1114 1.386 . S
C1115 C1119 1.393 . S
C1116 H1108 0.950 . S
C1116 C1114 1.391 . S
C1116 C1117 1.400 . S
C1117 C1116 1.400 . S
C1117 C1118 1.398 . S
C1117 C1123 1.491 . S
C1118 H1109 0.950 . S
C1118 C1117 1.398 . S
C1118 C1119 1.391 . S
C1119 H1107 0.950 . S
C1119 C1115 1.393 . S
C1119 C1118 1.391 . S
C1120 H1110 0.950 . S
C1120 C1121 1.386 . S
C1120 C1122 1.391 . S
C1121 C1120 1.386 . S
C1121 C1125 1.393 . S
C1122 H1111 0.950 . S
C1122 C1120 1.391 . S
C1122 C1123 1.400 . S
C1123 C1117 1.491 . S
C1123 C1122 1.400 . S
C1123 C1124 1.398 . S
C1124 H1112 0.950 . S
C1124 C1123 1.398 . S
C1124 C1125 1.391 . S
C1125 H1113 0.950 . S
C1125 C1121 1.393 . S
C1125 C1124 1.391 . S
H1126 C1134 0.950 . S
H1127 C1139 0.950 . S
H1128 C1136 0.950 . S
H1129 C1138 0.950 . S
H1130 C1140 0.950 . S
H1131 C1142 0.950 . S
H1132 C1144 0.950 . S
H1133 C1145 0.950 . S
C1134 H1126 0.950 . S
C1134 C1135 1.386 . S
C1134 C1136 1.391 . S
C1135 C1134 1.386 . S
C1135 C1139 1.393 . S
C1136 H1128 0.950 . S
C1136 C1134 1.391 . S
C1136 C1137 1.400 . S
C1137 C1136 1.400 . S
C1137 C1138 1.398 . S
C1137 C1143 1.491 . S
C1138 H1129 0.950 . S
C1138 C1137 1.398 . S
C1138 C1139 1.391 . S
C1139 H1127 0.950 . S
C1139 C1135 1.393 . S
C1139 C1138 1.391 . S
C1140 H1130 0.950 . S
C1140 C1141 1.386 . S
C1140 C1142 1.391 . S
C1141 C1140 1.386 . S
C1141 C1145 1.393 . S
C1142 H1131 0.950 . S
C1142 C1140 1.391 . S
C1142 C1143 1.400 . S
C1143 C1137 1.491 . S
C1143 C1142 1.400 . S
C1143 C1144 1.398 . S
C1144 H1132 0.950 . S
C1144 C1143 1.398 . S
C1144 C1145 1.391 . S
C1145 H1133 0.950 . S
C1145 C1141 1.393 . S
C1145 C1144 1.391 . S
H1146 C1154 0.950 . S
H1147 C1159 0.950 . S
H1148 C1156 0.950 . S
H1149 C1158 0.950 . S
H1150 C1160 0.950 . S
H1151 C1162 0.950 . S
H1152 C1164 0.950 . S
H1153 C1165 0.950 . S
C1154 H1146 0.950 . S
C1154 C1155 1.386 . S
C1154 C1156 1.391 . S
C1155 C1154 1.386 . S
C1155 C1159 1.393 . S
C1156 H1148 0.950 . S
C1156 C1154 1.391 . S
C1156 C1157 1.400 . S
C1157 C1156 1.400 . S
C1157 C1158 1.398 . S
C1157 C1163 1.491 . S
C1158 H1149 0.950 . S
C1158 C1157 1.398 . S
C1158 C1159 1.391 . S
C1159 H1147 0.950 . S
C1159 C1155 1.393 . S
C1159 C1158 1.391 . S
C1160 H1150 0.950 . S
C1160 C1161 1.386 . S
C1160 C1162 1.391 . S
C1161 C1160 1.386 . S
C1161 C1165 1.393 . S
C1162 H1151 0.950 . S
C1162 C1160 1.391 . S
C1162 C1163 1.400 . S
C1163 C1157 1.491 . S
C1163 C1162 1.400 . S
C1163 C1164 1.398 . S
C1164 H1152 0.950 . S
C1164 C1163 1.398 . S
C1164 C1165 1.391 . S
C1165 H1153 0.950 . S
C1165 C1161 1.393 . S
C1165 C1164 1.391 . S
H1166 C1174 0.950 . S
H1167 C1179 0.950 . S
H1168 C1176 0.950 . S
H1169 C1178 0.950 . S
H1170 C1180 0.950 . S
H1171 C1182 0.950 . S
H1172 C1184 0.950 . S
H1173 C1185 0.950 . S
C1174 H1166 0.950 . S
C1174 C1175 1.386 . S
C1174 C1176 1.391 . S
C1175 C1174 1.386 . S
C1175 C1179 1.393 . S
C1176 H1168 0.950 . S
C1176 C1174 1.391 . S
C1176 C1177 1.400 . S
C1177 C1176 1.400 . S
C1177 C1178 1.398 . S
C1177 C1183 1.491 . S
C1178 H1169 0.950 . S
C1178 C1177 1.398 . S
C1178 C1179 1.391 . S
C1179 H1167 0.950 . S
C1179 C1175 1.393 . S
C1179 C1178 1.391 . S
C1180 H1170 0.950 . S
C1180 C1181 1.386 . S
C1180 C1182 1.391 . S
C1181 C1180 1.386 . S
C1181 C1185 1.393 . S
C1182 H1171 0.950 . S
C1182 C1180 1.391 . S
C1182 C1183 1.400 . S
C1183 C1177 1.491 . S
C1183 C1182 1.400 . S
C1183 C1184 1.398 . S
C1184 H1172 0.950 . S
C1184 C1183 1.398 . S
C1184 C1185 1.391 . S
C1185 H1173 0.950 . S
C1185 C1181 1.393 . S
C1185 C1184 1.391 . S
H1186 C1194 0.950 . S
H1187 C1199 0.950 . S
H1188 C1196 0.950 . S
H1189 C1198 0.950 . S
H1190 C1200 0.950 . S
H1191 C1202 0.950 . S
H1192 C1204 0.950 . S
H1193 C1205 0.950 . S
C1194 H1186 0.950 . S
C1194 C1195 1.386 . S
C1194 C1196 1.391 . S
C1195 C1194 1.386 . S
C1195 C1199 1.393 . S
C1196 H1188 0.950 . S
C1196 C1194 1.391 . S
C1196 C1197 1.400 . S
C1197 C1196 1.400 . S
C1197 C1198 1.398 . S
C1197 C1203 1.491 . S
C1198 H1189 0.950 . S
C1198 C1197 1.398 . S
C1198 C1199 1.391 . S
C1199 H1187 0.950 . S
C1199 C1195 1.393 . S
C1199 C1198 1.391 . S
C1200 H1190 0.950 . S
C1200 C1201 1.386 . S
C1200 C1202 1.391 . S
C1201 C1200 1.386 . S
C1201 C1205 1.393 . S
C1202 H1191 0.950 . S
C1202 C1200 1.391 . S
C1202 C1203 1.400 . S
C1203 C1197 1.491 . S
C1203 C1202 1.400 . S
C1203 C1204 1.398 . S
C1204 H1192 0.950 . S
C1204 C1203 1.398 . S
C1204 C1205 1.391 . S
C1205 H1193 0.950 . S
C1205 C1201 1.393 . S
C1205 C1204 1.391 . S
H1206 C1214 0.950 . S
H1207 C1219 0.950 . S
H1208 C1216 0.950 . S
H1209 C1218 0.950 . S
H1210 C1220 0.950 . S
H1211 C1222 0.950 . S
H1212 C1224 0.950 . S
H1213 C1225 0.950 . S
C1214 H1206 0.950 . S
C1214 C1215 1.386 . S
C1214 C1216 1.391 . S
C1215 C1214 1.386 . S
C1215 C1219 1.393 . S
C1216 H1208 0.950 . S
C1216 C1214 1.391 . S
C1216 C1217 1.400 . S
C1217 C1216 1.400 . S
C1217 C1218 1.398 . S
C1217 C1223 1.491 . S
C1218 H1209 0.950 . S
C1218 C1217 1.398 . S
C1218 C1219 1.391 . S
C1219 H1207 0.950 . S
C1219 C1215 1.393 . S
C1219 C1218 1.391 . S
C1220 H1210 0.950 . S
C1220 C1221 1.386 . S
C1220 C1222 1.391 . S
C1221 C1220 1.386 . S
C1221 C1225 1.393 . S
C1222 H1211 0.950 . S
C1222 C1220 1.391 . S
C1222 C1223 1.400 . S
C1223 C1217 1.491 . S
C1223 C1222 1.400 . S
C1223 C1224 1.398 . S
C1224 H1212 0.950 . S
C1224 C1223 1.398 . S
C1224 C1225 1.391 . S
C1225 H1213 0.950 . S
C1225 C1221 1.393 . S
C1225 C1224 1.391 . S
H1226 C1234 0.950 . S
H1227 C1239 0.950 . S
H1228 C1236 0.950 . S
H1229 C1238 0.950 . S
H1230 C1240 0.950 . S
H1231 C1242 0.950 . S
H1232 C1244 0.950 . S
H1233 C1245 0.950 . S
C1234 H1226 0.950 . S
C1234 C1235 1.386 . S
C1234 C1236 1.391 . S
C1235 C1234 1.386 . S
C1235 C1239 1.393 . S
C1236 H1228 0.950 . S
C1236 C1234 1.391 . S
C1236 C1237 1.400 . S
C1237 C1236 1.400 . S
C1237 C1238 1.398 . S
C1237 C1243 1.491 . S
C1238 H1229 0.950 . S
C1238 C1237 1.398 . S
C1238 C1239 1.391 . S
C1239 H1227 0.950 . S
C1239 C1235 1.393 . S
C1239 C1238 1.391 . S
C1240 H1230 0.950 . S
C1240 C1241 1.386 . S
C1240 C1242 1.391 . S
C1241 C1240 1.386 . S
C1241 C1245 1.393 . S
C1242 H1231 0.950 . S
C1242 C1240 1.391 . S
C1242 C1243 1.400 . S
C1243 C1237 1.491 . S
C1243 C1242 1.400 . S
C1243 C1244 1.398 . S
C1244 H1232 0.950 . S
C1244 C1243 1.398 . S
C1244 C1245 1.391 . S
C1245 H1233 0.950 . S
C1245 C1241 1.393 . S
C1245 C1244 1.391 . S
H1246 C1254 0.950 . S
H1247 C1259 0.950 . S
H1248 C1256 0.950 . S
H1249 C1258 0.950 . S
H1250 C1260 0.950 . S
H1251 C1262 0.950 . S
H1252 C1264 0.950 . S
H1253 C1265 0.950 . S
C1254 H1246 0.950 . S
C1254 C1255 1.386 . S
C1254 C1256 1.391 . S
C1255 C1254 1.386 . S
C1255 C1259 1.393 . S
C1256 H1248 0.950 . S
C1256 C1254 1.391 . S
C1256 C1257 1.400 . S
C1257 C1256 1.400 . S
C1257 C1258 1.398 . S
C1257 C1263 1.491 . S
C1258 H1249 0.950 . S
C1258 C1257 1.398 . S
C1258 C1259 1.391 . S
C1259 H1247 0.950 . S
C1259 C1255 1.393 . S
C1259 C1258 1.391 . S
C1260 H1250 0.950 . S
C1260 C1261 1.386 . S
C1260 C1262 1.391 . S
C1261 C1260 1.386 . S
C1261 C1265 1.393 . S
C1262 H1251 0.950 . S
C1262 C1260 1.391 . S
C1262 C1263 1.400 . S
C1263 C1257 1.491 . S
C1263 C1262 1.400 . S
C1263 C1264 1.398 . S
C1264 H1252 0.950 . S
C1264 C1263 1.398 . S
C1264 C1265 1.391 . S
C1265 H1253 0.950 . S
C1265 C1261 1.393 . S
C1265 C1264 1.391 . S
H1266 C1274 0.950 . S
H1267 C1279 0.950 . S
H1268 C1276 0.950 . S
H1269 C1278 0.950 . S
H1270 C1280 0.950 . S
H1271 C1282 0.950 . S
H1272 C1284 0.950 . S
H1273 C1285 0.950 . S
C1274 H1266 0.950 . S
C1274 C1275 1.386 . S
C1274 C1276 1.391 . S
C1275 C1274 1.386 . S
C1275 C1279 1.393 . S
C1276 H1268 0.950 . S
C1276 C1274 1.391 . S
C1276 C1277 1.400 . S
C1277 C1276 1.400 . S
C1277 C1278 1.398 . S
C1277 C1283 1.491 . S
C1278 H1269 0.950 . S
C1278 C1277 1.398 . S
C1278 C1279 1.391 . S
C1279 H1267 0.950 . S
C1279 C1275 1.393 . S
C1279 C1278 1.391 . S
C1280 H1270 0.950 . S
C1280 C1281 1.386 . S
C1280 C1282 1.391 . S
C1281 C1280 1.386 . S
C1281 C1285 1.393 . S
C1282 H1271 0.950 . S
C1282 C1280 1.391 . S
C1282 C1283 1.400 . S
C1283 C1277 1.491 . S
C1283 C1282 1.400 . S
C1283 C1284 1.398 . S
C1284 H1272 0.950 . S
C1284 C1283 1.398 . S
C1284 C1285 1.391 . S
C1285 H1273 0.950 . S
C1285 C1281 1.393 . S
C1285 C1284 1.391 . S
H1286 C1294 0.950 . S
H1287 C1299 0.950 . S
H1288 C1296 0.950 . S
H1289 C1298 0.950 . S
H1290 C1300 0.950 . S
H1291 C1302 0.950 . S
H1292 C1304 0.950 . S
H1293 C1305 0.950 . S
C1294 H1286 0.950 . S
C1294 C1295 1.386 . S
C1294 C1296 1.391 . S
C1295 C1294 1.386 . S
C1295 C1299 1.393 . S
C1296 H1288 0.950 . S
C1296 C1294 1.391 . S
C1296 C1297 1.400 . S
C1297 C1296 1.400 . S
C1297 C1298 1.398 . S
C1297 C1303 1.491 . S
C1298 H1289 0.950 . S
C1298 C1297 1.398 . S
C1298 C1299 1.391 . S
C1299 H1287 0.950 . S
C1299 C1295 1.393 . S
C1299 C1298 1.391 . S
C1300 H1290 0.950 . S
C1300 C1301 1.386 . S
C1300 C1302 1.391 . S
C1301 C1300 1.386 . S
C1301 C1305 1.393 . S
C1302 H1291 0.950 . S
C1302 C1300 1.391 . S
C1302 C1303 1.400 . S
C1303 C1297 1.491 . S
C1303 C1302 1.400 . S
C1303 C1304 1.398 . S
C1304 H1292 0.950 . S
C1304 C1303 1.398 . S
C1304 C1305 1.391 . S
C1305 H1293 0.950 . S
C1305 C1301 1.393 . S
C1305 C1304 1.391 . S
H1306 C1314 0.950 . S
H1307 C1319 0.950 . S
H1308 C1316 0.950 . S
H1309 C1318 0.950 . S
H1310 C1320 0.950 . S
H1311 C1322 0.950 . S
H1312 C1324 0.950 . S
H1313 C1325 0.950 . S
C1314 H1306 0.950 . S
C1314 C1315 1.386 . S
C1314 C1316 1.391 . S
C1315 C1314 1.386 . S
C1315 C1319 1.393 . S
C1316 H1308 0.950 . S
C1316 C1314 1.391 . S
C1316 C1317 1.400 . S
C1317 C1316 1.400 . S
C1317 C1318 1.398 . S
C1317 C1323 1.491 . S
C1318 H1309 0.950 . S
C1318 C1317 1.398 . S
C1318 C1319 1.391 . S
C1319 H1307 0.950 . S
C1319 C1315 1.393 . S
C1319 C1318 1.391 . S
C1320 H1310 0.950 . S
C1320 C1321 1.386 . S
C1320 C1322 1.391 . S
C1321 C1320 1.386 . S
C1321 C1325 1.393 . S
C1322 H1311 0.950 . S
C1322 C1320 1.391 . S
C1322 C1323 1.400 . S
C1323 C1317 1.491 . S
C1323 C1322 1.400 . S
C1323 C1324 1.398 . S
C1324 H1312 0.950 . S
C1324 C1323 1.398 . S
C1324 C1325 1.391 . S
C1325 H1313 0.950 . S
C1325 C1321 1.393 . S
C1325 C1324 1.391 . S
H1326 C1334 0.950 . S
H1327 C1339 0.950 . S
H1328 C1336 0.950 . S
H1329 C1338 0.950 . S
H1330 C1340 0.950 . S
H1331 C1342 0.950 . S
H1332 C1344 0.950 . S
H1333 C1345 0.950 . S
C1334 H1326 0.950 . S
C1334 C1335 1.386 . S
C1334 C1336 1.391 . S
C1335 C1334 1.386 . S
C1335 C1339 1.393 . S
C1336 H1328 0.950 . S
C1336 C1334 1.391 . S
C1336 C1337 1.400 . S
C1337 C1336 1.400 . S
C1337 C1338 1.398 . S
C1337 C1343 1.491 . S
C1338 H1329 0.950 . S
C1338 C1337 1.398 . S
C1338 C1339 1.391 . S
C1339 H1327 0.950 . S
C1339 C1335 1.393 . S
C1339 C1338 1.391 . S
C1340 H1330 0.950 . S
C1340 C1341 1.386 . S
C1340 C1342 1.391 . S
C1341 C1340 1.386 . S
C1341 C1345 1.393 . S
C1342 H1331 0.950 . S
C1342 C1340 1.391 . S
C1342 C1343 1.400 . S
C1343 C1337 1.491 . S
C1343 C1342 1.400 . S
C1343 C1344 1.398 . S
C1344 H1332 0.950 . S
C1344 C1343 1.398 . S
C1344 C1345 1.391 . S
C1345 H1333 0.950 . S
C1345 C1341 1.393 . S
C1345 C1344 1.391 . S
H1346 C1354 0.950 . S
H1347 C1359 0.950 . S
H1348 C1356 0.950 . S
H1349 C1358 0.950 . S
H1350 C1360 0.950 . S
H1351 C1362 0.950 . S
H1352 C1364 0.950 . S
H1353 C1365 0.950 . S
C1354 H1346 0.950 . S
C1354 C1355 1.386 . S
C1354 C1356 1.391 . S
C1355 C1354 1.386 . S
C1355 C1359 1.393 . S
C1356 H1348 0.950 . S
C1356 C1354 1.391 . S
C1356 C1357 1.400 . S
C1357 C1356 1.400 . S
C1357 C1358 1.398 . S
C1357 C1363 1.491 . S
C1358 H1349 0.950 . S
C1358 C1357 1.398 . S
C1358 C1359 1.391 . S
C1359 H1347 0.950 . S
C1359 C1355 1.393 . S
C1359 C1358 1.391 . S
C1360 H1350 0.950 . S
C1360 C1361 1.386 . S
C1360 C1362 1.391 . S
C1361 C1360 1.386 . S
C1361 C1365 1.393 . S
C1362 H1351 0.950 . S
C1362 C1360 1.391 . S
C1362 C1363 1.400 . S
C1363 C1357 1.491 . S
C1363 C1362 1.400 . S
C1363 C1364 1.398 . S
C1364 H1352 0.950 . S
C1364 C1363 1.398 . S
C1364 C1365 1.391 . S
C1365 H1353 0.950 . S
C1365 C1361 1.393 . S
C1365 C1364 1.391 . S
H1366 C1374 0.950 . S
H1367 C1379 0.950 . S
H1368 C1376 0.950 . S
H1369 C1378 0.950 . S
H1370 C1380 0.950 . S
H1371 C1382 0.950 . S
H1372 C1384 0.950 . S
H1373 C1385 0.950 . S
C1374 H1366 0.950 . S
C1374 C1375 1.386 . S
C1374 C1376 1.391 . S
C1375 C1374 1.386 . S
C1375 C1379 1.393 . S
C1376 H1368 0.950 . S
C1376 C1374 1.391 . S
C1376 C1377 1.400 . S
C1377 C1376 1.400 . S
C1377 C1378 1.398 . S
C1377 C1383 1.491 . S
C1378 H1369 0.950 . S
C1378 C1377 1.398 . S
C1378 C1379 1.391 . S
C1379 H1367 0.950 . S
C1379 C1375 1.393 . S
C1379 C1378 1.391 . S
C1380 H1370 0.950 . S
C1380 C1381 1.386 . S
C1380 C1382 1.391 . S
C1381 C1380 1.386 . S
C1381 C1385 1.393 . S
C1382 H1371 0.950 . S
C1382 C1380 1.391 . S
C1382 C1383 1.400 . S
C1383 C1377 1.491 . S
C1383 C1382 1.400 . S
C1383 C1384 1.398 . S
C1384 H1372 0.950 . S
C1384 C1383 1.398 . S
C1384 C1385 1.391 . S
C1385 H1373 0.950 . S
C1385 C1381 1.393 . S
C1385 C1384 1.391 . S
C441 C251 0.985 . S
C435 N6 0.948 . S
C461 C241 2.021 . S
C455 C57 2.037 . S
C481 C242 0.966 . S
C475 C61 1.010 . S
C495 N96 0.658 . S
C501 C264 0.662 . S
C515 C136 2.029 . S
C521 C267 2.035 . S
C541 C250 0.966 . S
C535 C160 1.006 . S
C555 N194 0.706 . S
C561 C240 0.635 . S
C575 N224 0.931 . S
C581 C258 0.956 . S
C601 C271 1.920 . S
C595 C10 1.950 . S
C615 N36 0.887 . S
C621 C320 0.882 . S
C641 C298 0.735 . S
C635 N74 0.778 . S
C661 C312 0.954 . S
C655 C100 0.997 . S
C675 C121 0.986 . S
C681 C273 0.977 . S
C701 C326 1.863 . S
C695 C177 1.914 . S
C715 C196 2.251 . S
C721 C282 2.172 . S
C735 C226 2.040 . S
C741 C303 2.016 . S
C755 C27 2.031 . S
C761 C329 2.001 . S
C775 N134 0.846 . S
C781 C313 0.864 . S
C801 C272 0.712 . S
C795 N156 0.737 . S
C821 C304 0.983 . S
C815 C181 1.003 . S
C835 C211 1.952 . S
C841 C295 1.904 . S
C855 C76 1.908 . S
C861 C302 1.859 . S
C881 C289 2.165 . S
C875 C117 2.250 . S
C895 C40 0.991 . S
C901 C281 0.985 . S
C915 N216 0.909 . S
C921 C344 0.956 . S
C935 C147 2.032 . S
C941 C334 2.026 . S
C961 C335 0.970 . S
C955 C151 1.010 . S
C981 C357 0.659 . S
C975 N186 0.712 . S
C995 C46 2.035 . S
C1001 C360 2.023 . S
C1021 C343 0.980 . S
C1015 C70 1.008 . S
C1035 N104 0.665 . S
C1041 C333 0.663 . S
C1055 N14 0.939 . S
C1061 C351 0.987 . S
C1075 C220 1.957 . S
C1081 C364 1.913 . S
C1101 C413 0.890 . S
C1095 N126 0.879 . S
C1115 N164 0.773 . S
C1121 C391 0.752 . S
C1135 C190 0.991 . S
C1141 C405 0.942 . S
C1161 C366 0.985 . S
C1155 C31 0.992 . S
C1175 C87 1.918 . S
C1181 C419 1.881 . S
C1201 C375 2.181 . S
C1195 C106 2.257 . S
C1221 C396 2.016 . S
C1215 C16 2.040 . S
C1241 C422 1.999 . S
C1235 C237 2.035 . S
C1255 N44 0.847 . S
C1261 C406 0.864 . S
C1275 N66 0.739 . S
C1281 C365 0.764 . S
C1301 C397 0.971 . S
C1295 C91 0.998 . S
C1315 C1 1.950 . S
C1321 C388 1.903 . S
C1335 C166 1.906 . S
C1341 C395 1.860 . S
C1361 C382 2.165 . S
C1355 C207 2.249 . S
C1381 C374 0.952 . S
C1375 C130 0.989 . S
