# Generated by pormake.
# Topology pth, (4,4)-cn, num edge types: 1
# Building blocks:
#     Node 0, Type 0, BuildingBlock: NAHDIM_clean_sbu_0, # of connection points: 4
#     Node 1, Type 0, BuildingBlock: NAHDIM_clean_sbu_0, # of connection points: 4
#     Node 2, Type 0, BuildingBlock: NAHDIM_clean_sbu_0, # of connection points: 4
#     Node 3, Type 1, BuildingBlock: NAWXER_clean_sbu_0, # of connection points: 4
#     Node 4, Type 1, BuildingBlock: NAWXER_clean_sbu_0, # of connection points: 4
#     Node 5, Type 1, BuildingBlock: NAWXER_clean_sbu_0, # of connection points: 4
#     Edge 6, Type (0, 1), BuildingBlock: FUNLAD_clean_linker_0, # of connection points: 2
#     Edge 7, Type (0, 1), BuildingBlock: FUNLAD_clean_linker_0, # of connection points: 2
#     Edge 8, Type (0, 1), BuildingBlock: FUNLAD_clean_linker_0, # of connection points: 2
#     Edge 9, Type (0, 1), BuildingBlock: FUNLAD_clean_linker_0, # of connection points: 2
#     Edge 10, Type (0, 1), BuildingBlock: FUNLAD_clean_linker_0, # of connection points: 2
#     Edge 11, Type (0, 1), BuildingBlock: FUNLAD_clean_linker_0, # of connection points: 2
#     Edge 12, Type (0, 1), BuildingBlock: FUNLAD_clean_linker_0, # of connection points: 2
#     Edge 13, Type (0, 1), BuildingBlock: FUNLAD_clean_linker_0, # of connection points: 2
#     Edge 14, Type (0, 1), BuildingBlock: FUNLAD_clean_linker_0, # of connection points: 2
#     Edge 15, Type (0, 1), BuildingBlock: FUNLAD_clean_linker_0, # of connection points: 2
#     Edge 16, Type (0, 1), BuildingBlock: FUNLAD_clean_linker_0, # of connection points: 2
#     Edge 17, Type (0, 1), BuildingBlock: FUNLAD_clean_linker_0, # of connection points: 2
# Relax obj value: 0.052
# Max RMSD: 0.176
# Mean RMSD: 0.102
data_MOF--net-pth--node1-NAHDIM_clean_sbu_0--node2-NAWXER_clean_sbu_0--edge1-FUNLAD_clean_linker_0
_symmetry_space_group_name_H-M    P1
_symmetry_Int_Tables_number       1
_symmetry_cell_setting            triclinic
loop_
_symmetry_equiv_pos_as_xyz
'x, y, z'
_cell_length_a     26.695225
_cell_length_b     26.885414
_cell_length_c     65.967199
_cell_angle_alpha  91.963687
_cell_angle_beta   89.995035
_cell_angle_gamma 120.60679
loop_
_atom_site_label
_atom_site_type_symbol
_atom_site_fract_x
_atom_site_fract_y
_atom_site_fract_z
_atom_type_partial_charge
C0 C 0.00359 0.96576 0.09106 0.0
O1 O 0.96021 0.97469 0.08803 0.0
O2 O 0.05089 0.11835 0.08213 0.0
Zn3 Zn 0.04937 0.05546 0.06403 0.0
O4 O 0.97797 0.01112 0.04591 0.0
C5 C 0.12135 0.14077 0.03852 0.0
O6 O 0.07872 0.15055 0.04226 0.0
O7 O 0.0511 0.99672 0.08195 0.0
C8 C 0.94298 0.02479 0.03839 0.0
O9 O 0.95061 0.07642 0.04239 0.0
C10 C 0.01008 0.12205 0.09053 0.0
O11 O 0.95599 0.0796 0.08795 0.0
O12 O 0.11958 0.0971 0.04619 0.0
C13 C 0.03793 0.15753 0.37058 0.0
O14 O 0.9966 0.10318 0.37195 0.0
O15 O 0.06857 0.047 0.37643 0.0
Zn16 Zn 0.08046 0.11051 0.39642 0.0
O17 O 0.01492 0.09035 0.4158 0.0
C18 C 0.13943 0.08325 0.42324 0.0
O19 O 0.08636 0.03824 0.42195 0.0
O20 O 0.08566 0.17529 0.3803 0.0
C21 C 0.02763 0.13151 0.42873 0.0
O22 O 0.07951 0.17821 0.42826 0.0
C23 C 0.03093 0.99344 0.37653 0.0
O24 O 0.99089 0.97419 0.39048 0.0
O25 O 0.15117 0.12735 0.41316 0.0
C26 C 0.09695 0.02741 0.69916 0.0
O27 O 0.04515 0.99783 0.69041 0.0
O28 O 0.97028 0.03359 0.71212 0.0
Zn29 Zn 0.03418 0.0462 0.73178 0.0
O30 O 0.06634 0.12206 0.74762 0.0
C31 C 0.96995 0.92887 0.74677 0.0
O32 O 0.96029 0.91255 0.72747 0.0
O33 O 0.10189 0.04997 0.71682 0.0
C34 C 0.0486 0.12512 0.76525 0.0
O35 O 0.00461 0.07854 0.7726 0.0
C36 C 0.91772 0.01134 0.71763 0.0
O37 O 0.90521 0.99853 0.73671 0.0
O38 O 0.00156 0.98231 0.75168 0.0
C39 C 0.0969 0.6705 0.2576 0.0
C40 C 0.07186 0.51411 0.2105 0.0
O41 O 0.13814 0.66944 0.24827 0.0
Zn42 Zn 0.08891 0.59641 0.23293 0.0
O43 O 0.04407 0.63093 0.25385 0.0
Zn44 Zn 0.9949 0.55469 0.23553 0.0
O45 O 0.95538 0.49812 0.25618 0.0
O46 O 0.05115 0.53719 0.25682 0.0
O47 O 0.02456 0.50983 0.21684 0.0
O48 O 0.12055 0.55839 0.21576 0.0
O49 O 0.04765 0.62079 0.21133 0.0
O50 O 0.95323 0.57626 0.2167 0.0
C51 C 0.00118 0.50289 0.26418 0.0
C52 C 0.99693 0.61112 0.20652 0.0
C53 C 0.57777 0.97916 0.58617 0.0
C54 C 0.46253 0.00206 0.53363 0.0
O55 O 0.53295 0.93851 0.577 0.0
Zn56 Zn 0.51569 0.98725 0.56053 0.0
O57 O 0.59359 0.03186 0.58314 0.0
Zn58 Zn 0.56696 0.07974 0.56589 0.0
O59 O 0.53933 0.11541 0.58597 0.0
O60 O 0.47909 0.02162 0.58101 0.0
O61 O 0.50185 0.04976 0.54219 0.0
O62 O 0.45501 0.95417 0.53961 0.0
O63 O 0.59129 0.03194 0.54235 0.0
O64 O 0.63706 0.12557 0.55055 0.0
C65 C 0.4911 0.07007 0.58947 0.0
C66 C 0.63346 0.08351 0.5398 0.0
C67 C 0.48886 0.46429 0.91844 0.0
C68 C 0.6198 0.58612 0.86662 0.0
O69 O 0.47995 0.50533 0.91396 0.0
Zn70 Zn 0.5156 0.57685 0.89373 0.0
O71 O 0.52891 0.45997 0.90965 0.0
Zn72 Zn 0.55407 0.52497 0.89263 0.0
O73 O 0.59282 0.59721 0.91441 0.0
O74 O 0.54439 0.64325 0.9121 0.0
O75 O 0.61612 0.54147 0.87405 0.0
O76 O 0.58525 0.6033 0.87269 0.0
O77 O 0.44975 0.55895 0.87648 0.0
O78 O 0.47878 0.49561 0.87306 0.0
C79 C 0.58492 0.63873 0.92025 0.0
C80 C 0.44325 0.51246 0.86838 0.0
C81 C 0.98124 0.17694 0.11461 0.0
C82 C 0.0244 0.174 0.10339 0.0
C83 C 0.99546 0.22547 0.12717 0.0
C84 C 0.05331 0.27208 0.12883 0.0
C85 C 0.09603 0.26982 0.11716 0.0
C86 C 0.08189 0.22119 0.10469 0.0
C87 C 0.06994 0.32404 0.14219 0.0
C88 C 0.04201 0.32113 0.15948 0.0
C89 C 0.05336 0.372 0.17258 0.0
C90 C 0.00852 0.36592 0.18518 0.0
C91 C 0.01532 0.41211 0.19746 0.0
C92 C 0.06762 0.46574 0.19773 0.0
H93 H 0.1426 0.43122 0.16391 0.0
C94 C 0.11355 0.47179 0.18561 0.0
C95 C 0.10643 0.42531 0.17303 0.0
H96 H 0.15444 0.5125 0.18562 0.0
H97 H 0.93646 0.14166 0.11379 0.0
H98 H 0.96083 0.22655 0.13533 0.0
H99 H 0.14069 0.3054 0.11794 0.0
H100 H 0.11618 0.22062 0.09609 0.0
H101 H 0.10605 0.36511 0.13762 0.0
H102 H 0.00683 0.27933 0.16397 0.0
H103 H 0.96742 0.32536 0.1853 0.0
H104 H 0.9792 0.40555 0.20679 0.0
C105 C 0.92675 0.083 0.44267 0.0
C106 C 0.98466 0.12902 0.44344 0.0
C107 C 0.88596 0.08268 0.45607 0.0
C108 C 0.90234 0.12859 0.47048 0.0
C109 C 0.96057 0.17361 0.47157 0.0
C110 C 0.00121 0.17405 0.45815 0.0
C111 C 0.86054 0.13029 0.48498 0.0
C112 C 0.8029 0.10357 0.48111 0.0
C113 C 0.76038 0.10196 0.49596 0.0
C114 C 0.70359 0.05428 0.4949 0.0
C115 C 0.66252 0.04917 0.50899 0.0
C116 C 0.67691 0.09223 0.52431 0.0
H117 H 0.81757 0.18437 0.51182 0.0
C118 C 0.73306 0.14132 0.52496 0.0
C119 C 0.77464 0.14609 0.51094 0.0
H120 H 0.74522 0.17529 0.53653 0.0
H121 H 0.91278 0.04743 0.43163 0.0
H122 H 0.84201 0.04602 0.45522 0.0
H123 H 0.97457 0.20908 0.48267 0.0
H124 H 0.0456 0.21002 0.45926 0.0
H125 H 0.87825 0.15475 0.49921 0.0
H126 H 0.78528 0.07936 0.46682 0.0
H127 H 0.69124 0.02003 0.48341 0.0
H128 H 0.61939 0.01108 0.50792 0.0
C129 C 0.89763 0.82873 0.75748 0.0
C130 C 0.93783 0.88706 0.76265 0.0
C131 C 0.86229 0.79111 0.77227 0.0
C132 C 0.86665 0.81118 0.79256 0.0
C133 C 0.90826 0.8689 0.79779 0.0
C134 C 0.94364 0.90633 0.78306 0.0
C135 C 0.82524 0.77538 0.80828 0.0
C136 C 0.79394 0.71714 0.80738 0.0
C137 C 0.74947 0.6839 0.82268 0.0
C138 C 0.73879 0.62914 0.82782 0.0
C139 C 0.69688 0.59723 0.84218 0.0
C140 C 0.66408 0.61911 0.85135 0.0
H141 H 0.7218 0.74658 0.82758 0.0
C142 C 0.67398 0.67338 0.84582 0.0
C143 C 0.71614 0.70539 0.83168 0.0
H144 H 0.64928 0.6914 0.85248 0.0
H145 H 0.89193 0.81256 0.74188 0.0
H146 H 0.82998 0.74729 0.76753 0.0
H147 H 0.91245 0.88559 0.81327 0.0
H148 H 0.97417 0.95096 0.78761 0.0
H149 H 0.82066 0.79846 0.82133 0.0
H150 H 0.80192 0.69302 0.79558 0.0
H151 H 0.76339 0.61132 0.82091 0.0
H152 H 0.69001 0.55537 0.84601 0.0
C153 C 0.03905 0.90501 0.10674 0.0
C154 C 0.99622 0.92028 0.10486 0.0
C155 C 0.0311 0.86159 0.11975 0.0
C156 C 0.98003 0.83253 0.13113 0.0
C157 C 0.93779 0.84849 0.12943 0.0
C158 C 0.94553 0.89151 0.11635 0.0
C159 C 0.97061 0.78759 0.14567 0.0
C160 C 0.99466 0.75425 0.14358 0.0
C161 C 0.99046 0.71334 0.15902 0.0
C162 C 0.03525 0.70075 0.16009 0.0
C163 C 0.03603 0.66615 0.17519 0.0
C164 C 0.99144 0.64238 0.18945 0.0
H165 H 0.90801 0.6948 0.172 0.0
C166 C 0.94476 0.65223 0.1878 0.0
C167 C 0.94432 0.68763 0.17275 0.0
H168 H 0.90966 0.63417 0.19852 0.0
H169 H 0.07875 0.92664 0.0982 0.0
H170 H 0.06565 0.85198 0.12115 0.0
H171 H 0.89842 0.82738 0.13818 0.0
H172 H 0.91175 0.9024 0.11537 0.0
H173 H 0.94325 0.7825 0.15853 0.0
H174 H 0.0216 0.75933 0.13058 0.0
H175 H 0.07092 0.7193 0.1496 0.0
H176 H 0.0723 0.65881 0.17588 0.0
C177 C 0.16885 0.02946 0.44573 0.0
C178 C 0.18404 0.0803 0.4356 0.0
C179 C 0.21021 0.02485 0.45711 0.0
C180 C 0.26808 0.07097 0.45856 0.0
C181 C 0.28315 0.12224 0.44874 0.0
C182 C 0.24162 0.12681 0.43725 0.0
C183 C 0.31273 0.068 0.47107 0.0
C184 C 0.31029 0.01787 0.47511 0.0
C185 C 0.35207 0.01385 0.48894 0.0
C186 C 0.33578 0.96038 0.49735 0.0
C187 C 0.37223 0.95558 0.51142 0.0
C188 C 0.42574 0.00432 0.51736 0.0
H189 H 0.42277 0.10324 0.48748 0.0
C190 C 0.44314 0.05712 0.50828 0.0
C191 C 0.40706 0.06182 0.49415 0.0
H192 H 0.4847 0.0953 0.51221 0.0
H193 H 0.12474 0.9929 0.44496 0.0
H194 H 0.19611 0.98547 0.46506 0.0
H195 H 0.32727 0.15874 0.44985 0.0
H196 H 0.25463 0.16661 0.42969 0.0
H197 H 0.3481 0.10881 0.47722 0.0
H198 H 0.27495 0.97742 0.46865 0.0
H199 H 0.294 0.92248 0.49343 0.0
H200 H 0.35773 0.91427 0.5181 0.0
C201 C 0.13015 0.22761 0.77072 0.0
C202 C 0.08359 0.17728 0.77855 0.0
C203 C 0.16903 0.27336 0.78374 0.0
C204 C 0.16213 0.26952 0.80488 0.0
C205 C 0.11397 0.2205 0.81259 0.0
C206 C 0.07478 0.17506 0.79958 0.0
C207 C 0.20795 0.31177 0.81929 0.0
C208 C 0.24641 0.36696 0.81503 0.0
C209 C 0.29665 0.40436 0.82879 0.0
C210 C 0.31568 0.46337 0.83164 0.0
C211 C 0.36328 0.49883 0.84459 0.0
C212 C 0.39356 0.47607 0.8544 0.0
H213 H 0.3146 0.3368 0.83614 0.0
C214 C 0.3753 0.41732 0.85106 0.0
C215 C 0.32725 0.3818 0.83849 0.0
H216 H 0.39771 0.39846 0.85838 0.0
H217 H 0.13808 0.23068 0.75458 0.0
H218 H 0.2062 0.30995 0.77724 0.0
H219 H 0.10779 0.21638 0.82882 0.0
H220 H 0.03938 0.13697 0.80612 0.0
H221 H 0.2109 0.29614 0.83398 0.0
H222 H 0.24106 0.38532 0.80136 0.0
H223 H 0.29318 0.4818 0.8241 0.0
H224 H 0.37661 0.54405 0.84679 0.0
C225 C 0.88422 0.01301 0.68231 0.0
C226 C 0.87089 0.99824 0.70262 0.0
C227 C 0.84013 0.0005 0.6681 0.0
C228 C 0.78132 0.97223 0.67381 0.0
C229 C 0.76815 0.95779 0.69416 0.0
C230 C 0.81233 0.97045 0.70839 0.0
C231 C 0.7332 0.96065 0.65939 0.0
C232 C 0.73807 0.96012 0.63907 0.0
C233 C 0.69436 0.95933 0.625 0.0
C234 C 0.7146 0.99344 0.60795 0.0
C235 C 0.67597 0.99834 0.59516 0.0
C236 C 0.61601 0.96772 0.59874 0.0
H237 H 0.6171 0.89961 0.64118 0.0
C238 C 0.59493 0.93092 0.61512 0.0
C239 C 0.634 0.9272 0.62835 0.0
H240 H 0.54877 0.90705 0.61814 0.0
H241 H 0.92891 0.03483 0.67737 0.0
H242 H 0.85294 0.01456 0.65284 0.0
H243 H 0.72347 0.93669 0.69909 0.0
H244 H 0.80049 0.95847 0.72393 0.0
H245 H 0.69312 0.9547 0.66584 0.0
H246 H 0.77775 0.96604 0.63236 0.0
H247 H 0.76078 0.01827 0.60497 0.0
H248 H 0.69309 0.02683 0.58254 0.0
C249 C 0.88942 0.92844 0.02001 0.0
C250 C 0.89495 0.98242 0.02473 0.0
C251 C 0.84551 0.88846 0.00679 0.0
C252 C 0.80527 0.90103 0.99808 0.0
C253 C 0.81091 0.95512 0.0027 0.0
C254 C 0.85516 0.99537 0.01595 0.0
C255 C 0.75923 0.86003 0.98333 0.0
C256 C 0.73892 0.80264 0.98259 0.0
C257 C 0.69794 0.76155 0.96668 0.0
C258 C 0.6984 0.71029 0.96241 0.0
C259 C 0.66178 0.67062 0.94735 0.0
C260 C 0.62306 0.68085 0.93636 0.0
H261 H 0.65584 0.80983 0.9591 0.0
C262 C 0.62152 0.73155 0.94089 0.0
C263 C 0.65866 0.77163 0.95589 0.0
H264 H 0.59187 0.74049 0.93278 0.0
H265 H 0.91964 0.91714 0.02631 0.0
H266 H 0.8446 0.84853 0.00309 0.0
H267 H 0.78103 0.96629 0.99602 0.0
H268 H 0.85837 0.03667 0.01919 0.0
H269 H 0.74281 0.87824 0.97257 0.0
H270 H 0.75487 0.78458 0.99358 0.0
H271 H 0.72791 0.70121 0.97057 0.0
H272 H 0.66383 0.63184 0.94437 0.0
C273 C 0.08257 0.97388 0.34846 0.0
C274 C 0.0362 0.95302 0.36209 0.0
C275 C 0.08993 0.93582 0.33559 0.0
C276 C 0.05101 0.87587 0.33607 0.0
C277 C 0.0039 0.85521 0.34933 0.0
C278 C 0.99668 0.89327 0.36227 0.0
C279 C 0.05672 0.8334 0.32273 0.0
C280 C 0.10649 0.84347 0.31384 0.0
C281 C 0.10935 0.79876 0.3008 0.0
C282 C 0.14896 0.81542 0.28479 0.0
C283 C 0.14805 0.77368 0.27115 0.0
C284 C 0.10739 0.7149 0.27343 0.0
H285 H 0.04333 0.72465 0.31662 0.0
C286 C 0.07084 0.69824 0.29022 0.0
C287 C 0.07221 0.73952 0.30388 0.0
H288 H 0.03995 0.65297 0.29255 0.0
H289 H 0.11367 0.01976 0.34782 0.0
H290 H 0.12572 0.9538 0.32519 0.0
H291 H 0.97289 0.80927 0.34988 0.0
H292 H 0.96045 0.87576 0.37253 0.0
H293 H 0.01755 0.79137 0.3204 0.0
H294 H 0.14576 0.88556 0.3156 0.0
H295 H 0.17885 0.86079 0.28233 0.0
H296 H 0.17671 0.78747 0.25831 0.0
C297 C 0.14396 0.01117 0.66882 0.0
C298 C 0.14942 0.03732 0.68811 0.0
C299 C 0.19332 0.02206 0.65801 0.0
C300 C 0.24959 0.06009 0.66615 0.0
C301 C 0.25499 0.08511 0.68565 0.0
C302 C 0.20551 0.07405 0.6965 0.0
C303 C 0.30319 0.07247 0.65507 0.0
C304 C 0.30401 0.06621 0.63475 0.0
C305 C 0.3541 0.0702 0.62362 0.0
C306 C 0.34198 0.03351 0.60645 0.0
C307 C 0.38688 0.03397 0.5956 0.0
C308 C 0.4453 0.07228 0.60131 0.0
H309 H 0.42324 0.13886 0.64236 0.0
C310 C 0.45801 0.11067 0.61812 0.0
C311 C 0.41259 0.10919 0.62939 0.0
H312 H 0.50273 0.14079 0.62274 0.0
H313 H 0.10144 0.98209 0.66201 0.0
H314 H 0.18678 -0.00035 0.64346 0.0
H315 H 0.29763 0.11381 0.69244 0.0
H316 H 0.21131 0.09477 0.71139 0.0
H317 H 0.34261 0.08597 0.66397 0.0
H318 H 0.26492 0.05332 0.62578 0.0
H319 H 0.29739 0.00344 0.6016 0.0
H320 H 0.37571 0.00442 0.58254 0.0
C321 C 0.21169 0.1687 0.01836 0.0
C322 C 0.17092 0.18203 0.02638 0.0
C323 C 0.25748 0.20856 0.00656 0.0
C324 C 0.26335 0.26257 0.00281 0.0
C325 C 0.22328 0.27597 0.01126 0.0
C326 C 0.17746 0.23617 0.02273 0.0
C327 C 0.31003 0.3067 0.99028 0.0
C328 C 0.33748 0.29491 0.97541 0.0
C329 C 0.37741 0.33967 0.96134 0.0
C330 C 0.42171 0.33431 0.95193 0.0
C331 C 0.45863 0.3751 0.93819 0.0
C332 C 0.45144 0.42173 0.93341 0.0
H333 H 0.33495 0.39061 0.96255 0.0
C334 C 0.40672 0.42667 0.94268 0.0
C335 C 0.37001 0.38609 0.95636 0.0
H336 H 0.3994 0.46157 0.93918 0.0
H337 H 0.2079 0.1274 0.02104 0.0
H338 H 0.28829 0.19717 0.00066 0.0
H339 H 0.22684 0.31727 0.00872 0.0
H340 H 0.14723 0.24818 0.02883 0.0
H341 H 0.31953 0.35084 0.99273 0.0
H342 H 0.32971 0.25137 0.97303 0.0
H343 H 0.42787 0.29857 0.95526 0.0
H344 H 0.49242 0.3698 0.9312 0.0
C345 C 0.06726 0.25621 0.3584 0.0
C346 C 0.02724 0.1965 0.35837 0.0
C347 C 0.05557 0.29242 0.34708 0.0
C348 C 0.00345 0.26948 0.33555 0.0
C349 C 0.96405 0.20976 0.33536 0.0
C350 C 0.97556 0.17374 0.34671 0.0
C351 C 0.99 0.30556 0.3226 0.0
C352 C 0.01256 0.36276 0.32597 0.0
C353 C 0.00453 0.39933 0.3115 0.0
C354 C 0.05001 0.45645 0.30965 0.0
C355 C 0.04748 0.49062 0.29474 0.0
C356 C 0.99878 0.46883 0.2816 0.0
H357 H 0.91753 0.33504 0.30056 0.0
C358 C 0.95131 0.41305 0.28429 0.0
C359 C 0.95424 0.37834 0.29908 0.0
H360 H 0.91318 0.39538 0.2744 0.0
H361 H 0.10758 0.27498 0.36715 0.0
H362 H 0.08806 0.33795 0.34711 0.0
H363 H 0.92398 0.19081 0.32644 0.0
H364 H 0.94381 0.12787 0.34626 0.0
H365 H 0.96105 0.2839 0.3096 0.0
H366 H 0.04164 0.38466 0.33891 0.0
H367 H 0.08885 0.47393 0.31918 0.0
H368 H 0.08445 0.53381 0.29317 0.0
loop_
_geom_bond_atom_site_label_1
_geom_bond_atom_site_label_2
_geom_bond_distance
_geom_bond_site_symmetry_2
_ccdc_geom_bond_type
C0 O1 1.160 . S
C0 O7 1.185 1_565 S
O1 C0 1.160 . S
O2 Zn3 1.899 . S
O2 C10 1.284 . S
Zn3 O2 1.899 . S
Zn3 O4 2.032 1_445 S
Zn3 O7 2.086 . S
Zn3 O12 1.977 . S
O4 Zn3 2.032 1_665 S
O4 C8 1.273 1_565 S
C5 O6 1.203 . S
C5 O12 1.267 . S
O6 C5 1.203 . S
O7 C0 1.185 1_545 S
O7 Zn3 2.086 . S
C8 O4 1.273 1_545 S
C8 O9 1.220 . S
O9 C8 1.220 . S
C10 O2 1.284 . S
C10 O11 1.273 1_455 S
O11 C10 1.273 1_655 S
O12 Zn3 1.977 . S
O12 C5 1.267 . S
C13 O14 1.160 . S
C13 O20 1.185 . S
O14 C13 1.160 . S
O15 Zn16 1.899 . S
O15 C23 1.284 1_545 S
Zn16 O15 1.899 . S
Zn16 O17 2.032 1_455 S
Zn16 O20 2.086 . S
Zn16 O25 1.977 . S
O17 Zn16 2.032 1_655 S
O17 C21 1.278 . S
C18 O19 1.203 . S
C18 O25 1.267 . S
O19 C18 1.203 . S
O20 C13 1.185 . S
O20 Zn16 2.086 . S
C21 O17 1.278 . S
C21 O22 1.211 . S
O22 C21 1.211 . S
C23 O15 1.284 1_565 S
C23 O24 1.273 1_455 S
O24 C23 1.273 1_655 S
O25 Zn16 1.977 . S
O25 C18 1.267 . S
C26 O27 1.160 . S
C26 O33 1.185 1_545 S
O27 C26 1.160 . S
O28 Zn29 1.899 1_655 S
O28 C36 1.284 . S
Zn29 O28 1.899 1_455 S
Zn29 O30 2.032 . S
Zn29 O33 2.086 1_545 S
Zn29 O38 1.977 1_445 S
O30 Zn29 2.032 . S
O30 C34 1.278 . S
C31 O32 1.203 . S
C31 O38 1.267 . S
O32 C31 1.203 . S
O33 C26 1.185 1_565 S
O33 Zn29 2.086 1_565 S
C34 O30 1.278 . S
C34 O35 1.211 . S
O35 C34 1.211 . S
C36 O28 1.284 . S
C36 O37 1.273 . S
O37 C36 1.273 . S
O38 Zn29 1.977 1_665 S
O38 C31 1.267 . S
C39 O41 1.247 . S
C39 O43 1.258 1_455 S
C40 O47 1.247 1_455 S
C40 O48 1.258 . S
O41 C39 1.247 . S
O41 Zn42 2.028 . S
Zn42 O41 2.028 . S
Zn42 O46 2.035 . S
Zn42 O48 2.035 . S
Zn42 O49 2.028 . S
O43 C39 1.258 1_655 S
O43 Zn44 2.035 . S
Zn44 O43 2.035 . S
Zn44 O45 2.028 . S
Zn44 O47 2.028 . S
Zn44 O50 2.035 . S
O45 Zn44 2.028 . S
O45 C51 1.247 1_655 S
O46 Zn42 2.035 . S
O46 C51 1.258 . S
O47 C40 1.247 1_655 S
O47 Zn44 2.028 . S
O48 C40 1.258 . S
O48 Zn42 2.035 . S
O49 Zn42 2.028 . S
O49 C52 1.247 . S
O50 Zn44 2.035 . S
O50 C52 1.258 1_655 S
C51 O45 1.247 1_455 S
C51 O46 1.258 . S
C52 O49 1.247 . S
C52 O50 1.258 1_455 S
C53 O55 1.247 1_545 S
C53 O57 1.258 . S
C54 O61 1.247 . S
C54 O62 1.258 . S
O55 C53 1.247 1_565 S
O55 Zn56 2.028 . S
Zn56 O55 2.028 . S
Zn56 O60 2.035 . S
Zn56 O62 2.035 1_565 S
Zn56 O63 2.028 1_565 S
O57 C53 1.258 . S
O57 Zn58 2.035 . S
Zn58 O57 2.035 . S
Zn58 O59 2.028 . S
Zn58 O61 2.028 . S
Zn58 O64 2.035 . S
O59 Zn58 2.028 . S
O59 C65 1.247 . S
O60 Zn56 2.035 . S
O60 C65 1.258 1_565 S
O61 C54 1.247 . S
O61 Zn58 2.028 . S
O62 C54 1.258 . S
O62 Zn56 2.035 1_545 S
O63 Zn56 2.028 1_545 S
O63 C66 1.247 . S
O64 Zn58 2.035 . S
O64 C66 1.258 . S
C65 O59 1.247 . S
C65 O60 1.258 1_545 S
C66 O63 1.247 . S
C66 O64 1.258 . S
C67 O69 1.247 . S
C67 O71 1.258 . S
C68 O75 1.247 . S
C68 O76 1.258 . S
O69 C67 1.247 . S
O69 Zn70 2.028 . S
Zn70 O69 2.028 . S
Zn70 O74 2.035 . S
Zn70 O76 2.035 . S
Zn70 O77 2.028 . S
O71 C67 1.258 . S
O71 Zn72 2.035 . S
Zn72 O71 2.035 . S
Zn72 O73 2.028 . S
Zn72 O75 2.028 . S
Zn72 O78 2.035 . S
O73 Zn72 2.028 . S
O73 C79 1.247 . S
O74 Zn70 2.035 . S
O74 C79 1.258 . S
O75 C68 1.247 . S
O75 Zn72 2.028 . S
O76 C68 1.258 . S
O76 Zn70 2.035 . S
O77 Zn70 2.028 . S
O77 C80 1.247 . S
O78 Zn72 2.035 . S
O78 C80 1.258 . S
C79 O73 1.247 . S
C79 O74 1.258 . S
C80 O77 1.247 . S
C80 O78 1.258 . S
C81 C82 1.386 1_655 S
C81 C83 1.383 . S
C81 H97 0.951 . S
C82 C81 1.386 1_455 S
C82 C86 1.383 . S
C83 C81 1.383 . S
C83 C84 1.402 1_655 S
C83 H98 0.951 . S
C84 C83 1.402 1_455 S
C84 C85 1.375 . S
C84 C87 1.481 . S
C85 C84 1.375 . S
C85 C86 1.367 . S
C85 H99 0.951 . S
C86 C82 1.383 . S
C86 C85 1.367 . S
C86 H100 0.950 . S
C87 C84 1.481 . S
C87 C88 1.297 1_455 S
C87 H101 0.950 . S
C88 C87 1.297 1_655 S
C88 C89 1.479 1_655 S
C88 H102 0.950 . S
C89 C88 1.479 1_455 S
C89 C90 1.375 1_455 S
C89 C95 1.404 . S
C90 C89 1.375 1_655 S
C90 C91 1.369 . S
C90 H103 0.950 . S
C91 C90 1.369 . S
C91 C92 1.392 1_655 S
C91 H104 0.951 . S
C92 C91 1.392 1_455 S
C92 C94 1.384 . S
H93 C95 0.949 . S
C94 C92 1.384 . S
C94 C95 1.385 . S
C94 H96 0.950 . S
C95 C89 1.404 . S
C95 H93 0.949 . S
C95 C94 1.385 . S
H96 C94 0.950 . S
H97 C81 0.951 . S
H98 C83 0.951 . S
H99 C85 0.951 . S
H100 C86 0.950 . S
H101 C87 0.950 . S
H102 C88 0.950 . S
H103 C90 0.950 . S
H104 C91 0.951 . S
C105 C106 1.386 . S
C105 C107 1.383 . S
C105 H121 0.951 1_545 S
C106 C105 1.386 . S
C106 C110 1.383 . S
C107 C105 1.383 . S
C107 C108 1.402 . S
C107 H122 0.951 1_545 S
C108 C107 1.402 . S
C108 C109 1.375 . S
C108 C111 1.481 . S
C109 C108 1.375 . S
C109 C110 1.367 . S
C109 H123 0.951 . S
C110 C106 1.383 . S
C110 C109 1.367 . S
C110 H124 0.950 . S
C111 C108 1.481 . S
C111 C112 1.297 . S
C111 H125 0.950 . S
C112 C111 1.297 . S
C112 C113 1.479 . S
C112 H126 0.950 1_545 S
C113 C112 1.479 . S
C113 C114 1.375 1_545 S
C113 C119 1.404 . S
C114 C113 1.375 1_565 S
C114 C115 1.369 1_565 S
C114 H127 0.950 . S
C115 C114 1.369 1_545 S
C115 C116 1.392 . S
C115 H128 0.951 1_545 S
C116 C115 1.392 . S
C116 C118 1.384 . S
H117 C119 0.949 . S
C118 C116 1.384 . S
C118 C119 1.385 . S
C118 H120 0.950 . S
C119 C113 1.404 . S
C119 H117 0.949 . S
C119 C118 1.385 . S
H120 C118 0.950 . S
H121 C105 0.951 1_565 S
H122 C107 0.951 1_565 S
H123 C109 0.951 . S
H124 C110 0.950 . S
H125 C111 0.950 . S
H126 C112 0.950 1_565 S
H127 C114 0.950 . S
H128 C115 0.951 1_565 S
C129 C130 1.386 . S
C129 C131 1.383 . S
C129 H145 0.951 . S
C130 C129 1.386 . S
C130 C134 1.383 . S
C131 C129 1.383 . S
C131 C132 1.402 . S
C131 H146 0.951 . S
C132 C131 1.402 . S
C132 C133 1.375 . S
C132 C135 1.481 . S
C133 C132 1.375 . S
C133 C134 1.367 . S
C133 H147 0.951 . S
C134 C130 1.383 . S
C134 C133 1.367 . S
C134 H148 0.950 . S
C135 C132 1.481 . S
C135 C136 1.297 . S
C135 H149 0.950 . S
C136 C135 1.297 . S
C136 C137 1.479 . S
C136 H150 0.950 . S
C137 C136 1.479 . S
C137 C138 1.375 . S
C137 C143 1.404 . S
C138 C137 1.375 . S
C138 C139 1.369 . S
C138 H151 0.950 . S
C139 C138 1.369 . S
C139 C140 1.392 . S
C139 H152 0.951 . S
C140 C139 1.392 . S
C140 C142 1.384 . S
H141 C143 0.949 . S
C142 C140 1.384 . S
C142 C143 1.385 . S
C142 H144 0.950 . S
C143 C137 1.404 . S
C143 H141 0.949 . S
C143 C142 1.385 . S
H144 C142 0.950 . S
H145 C129 0.951 . S
H146 C131 0.951 . S
H147 C133 0.951 . S
H148 C134 0.950 . S
H149 C135 0.950 . S
H150 C136 0.950 . S
H151 C138 0.950 . S
H152 C139 0.951 . S
C153 C154 1.386 . S
C153 C155 1.383 . S
C153 H169 0.951 . S
C154 C153 1.386 . S
C154 C158 1.383 . S
C155 C153 1.383 . S
C155 C156 1.402 . S
C155 H170 0.951 . S
C156 C155 1.402 . S
C156 C157 1.375 . S
C156 C159 1.481 . S
C157 C156 1.375 . S
C157 C158 1.367 . S
C157 H171 0.951 . S
C158 C154 1.383 . S
C158 C157 1.367 . S
C158 H172 0.950 . S
C159 C156 1.481 . S
C159 C160 1.297 . S
C159 H173 0.950 . S
C160 C159 1.297 . S
C160 C161 1.479 . S
C160 H174 0.950 . S
C161 C160 1.479 . S
C161 C162 1.375 . S
C161 C167 1.404 . S
C162 C161 1.375 . S
C162 C163 1.369 . S
C162 H175 0.950 . S
C163 C162 1.369 . S
C163 C164 1.392 . S
C163 H176 0.951 . S
C164 C163 1.392 . S
C164 C166 1.384 . S
H165 C167 0.949 . S
C166 C164 1.384 . S
C166 C167 1.385 . S
C166 H168 0.950 1_455 S
C167 C161 1.404 . S
C167 H165 0.949 . S
C167 C166 1.385 . S
H168 C166 0.950 1_655 S
H169 C153 0.951 . S
H170 C155 0.951 . S
H171 C157 0.951 . S
H172 C158 0.950 . S
H173 C159 0.950 . S
H174 C160 0.950 . S
H175 C162 0.950 . S
H176 C163 0.951 . S
C177 C178 1.386 . S
C177 C179 1.383 . S
C177 H193 0.951 . S
C178 C177 1.386 . S
C178 C182 1.383 . S
C179 C177 1.383 . S
C179 C180 1.402 . S
C179 H194 0.951 . S
C180 C179 1.402 . S
C180 C181 1.375 . S
C180 C183 1.481 . S
C181 C180 1.375 . S
C181 C182 1.367 . S
C181 H195 0.951 . S
C182 C178 1.383 . S
C182 C181 1.367 . S
C182 H196 0.950 . S
C183 C180 1.481 . S
C183 C184 1.297 . S
C183 H197 0.950 . S
C184 C183 1.297 . S
C184 C185 1.479 . S
C184 H198 0.950 . S
C185 C184 1.479 . S
C185 C186 1.375 . S
C185 C191 1.404 . S
C186 C185 1.375 . S
C186 C187 1.369 . S
C186 H199 0.950 1_545 S
C187 C186 1.369 . S
C187 C188 1.392 . S
C187 H200 0.951 1_545 S
C188 C187 1.392 . S
C188 C190 1.384 . S
H189 C191 0.949 . S
C190 C188 1.384 . S
C190 C191 1.385 . S
C190 H192 0.950 . S
C191 C185 1.404 . S
C191 H189 0.949 . S
C191 C190 1.385 . S
H192 C190 0.950 . S
H193 C177 0.951 . S
H194 C179 0.951 . S
H195 C181 0.951 . S
H196 C182 0.950 . S
H197 C183 0.950 . S
H198 C184 0.950 . S
H199 C186 0.950 1_565 S
H200 C187 0.951 1_565 S
C201 C202 1.386 . S
C201 C203 1.383 . S
C201 H217 0.951 . S
C202 C201 1.386 . S
C202 C206 1.383 . S
C203 C201 1.383 . S
C203 C204 1.402 . S
C203 H218 0.951 . S
C204 C203 1.402 . S
C204 C205 1.375 . S
C204 C207 1.481 . S
C205 C204 1.375 . S
C205 C206 1.367 . S
C205 H219 0.951 . S
C206 C202 1.383 . S
C206 C205 1.367 . S
C206 H220 0.950 . S
C207 C204 1.481 . S
C207 C208 1.297 . S
C207 H221 0.950 . S
C208 C207 1.297 . S
C208 C209 1.479 . S
C208 H222 0.950 . S
C209 C208 1.479 . S
C209 C210 1.375 . S
C209 C215 1.404 . S
C210 C209 1.375 . S
C210 C211 1.369 . S
C210 H223 0.950 . S
C211 C210 1.369 . S
C211 C212 1.392 . S
C211 H224 0.951 . S
C212 C211 1.392 . S
C212 C214 1.384 . S
H213 C215 0.949 . S
C214 C212 1.384 . S
C214 C215 1.385 . S
C214 H216 0.950 . S
C215 C209 1.404 . S
C215 H213 0.949 . S
C215 C214 1.385 . S
H216 C214 0.950 . S
H217 C201 0.951 . S
H218 C203 0.951 . S
H219 C205 0.951 . S
H220 C206 0.950 . S
H221 C207 0.950 . S
H222 C208 0.950 . S
H223 C210 0.950 . S
H224 C211 0.951 . S
C225 C226 1.386 . S
C225 C227 1.383 . S
C225 H241 0.951 . S
C226 C225 1.386 . S
C226 C230 1.383 . S
C227 C225 1.383 . S
C227 C228 1.402 . S
C227 H242 0.951 . S
C228 C227 1.402 . S
C228 C229 1.375 . S
C228 C231 1.481 . S
C229 C228 1.375 . S
C229 C230 1.367 . S
C229 H243 0.951 1_545 S
C230 C226 1.383 . S
C230 C229 1.367 . S
C230 H244 0.950 . S
C231 C228 1.481 . S
C231 C232 1.297 . S
C231 H245 0.950 . S
C232 C231 1.297 . S
C232 C233 1.479 . S
C232 H246 0.950 . S
C233 C232 1.479 . S
C233 C234 1.375 . S
C233 C239 1.404 1_545 S
C234 C233 1.375 . S
C234 C235 1.369 . S
C234 H247 0.950 . S
C235 C234 1.369 . S
C235 C236 1.392 . S
C235 H248 0.951 . S
C236 C235 1.392 . S
C236 C238 1.384 . S
H237 C239 0.955 . S
C238 C236 1.384 . S
C238 C239 1.379 1_545 S
C238 H240 0.950 1_545 S
C239 C233 1.404 1_565 S
C239 H237 0.955 . S
C239 C238 1.379 1_565 S
H240 C238 0.950 1_565 S
H241 C225 0.951 . S
H242 C227 0.951 . S
H243 C229 0.951 1_565 S
H244 C230 0.950 . S
H245 C231 0.950 . S
H246 C232 0.950 . S
H247 C234 0.950 . S
H248 C235 0.951 . S
C249 C250 1.386 . S
C249 C251 1.383 . S
C249 H265 0.951 . S
C250 C249 1.386 . S
C250 C254 1.383 . S
C251 C249 1.383 . S
C251 C252 1.402 . S
C251 H266 0.951 . S
C252 C251 1.402 . S
C252 C253 1.375 . S
C252 C255 1.481 1_554 S
C253 C252 1.375 . S
C253 C254 1.367 . S
C253 H267 0.951 . S
C254 C250 1.383 . S
C254 C253 1.367 . S
C254 H268 0.950 . S
C255 C252 1.481 1_556 S
C255 C256 1.297 . S
C255 H269 0.950 . S
C256 C255 1.297 . S
C256 C257 1.479 . S
C256 H270 0.950 . S
C257 C256 1.479 . S
C257 C258 1.375 . S
C257 C263 1.404 . S
C258 C257 1.375 . S
C258 C259 1.369 . S
C258 H271 0.950 . S
C259 C258 1.369 . S
C259 C260 1.392 . S
C259 H272 0.951 . S
C260 C259 1.392 . S
C260 C262 1.384 . S
H261 C263 0.949 . S
C262 C260 1.384 . S
C262 C263 1.385 . S
C262 H264 0.950 . S
C263 C257 1.404 . S
C263 H261 0.949 . S
C263 C262 1.385 . S
H264 C262 0.950 . S
H265 C249 0.951 . S
H266 C251 0.951 . S
H267 C253 0.951 . S
H268 C254 0.950 . S
H269 C255 0.950 . S
H270 C256 0.950 . S
H271 C258 0.950 . S
H272 C259 0.951 . S
C273 C274 1.386 . S
C273 C275 1.383 . S
C273 H289 0.951 . S
C274 C273 1.386 . S
C274 C278 1.383 . S
C275 C273 1.383 . S
C275 C276 1.402 . S
C275 H290 0.951 . S
C276 C275 1.402 . S
C276 C277 1.375 . S
C276 C279 1.481 . S
C277 C276 1.375 . S
C277 C278 1.367 . S
C277 H291 0.951 . S
C278 C274 1.383 . S
C278 C277 1.367 . S
C278 H292 0.950 . S
C279 C276 1.481 . S
C279 C280 1.297 . S
C279 H293 0.950 . S
C280 C279 1.297 . S
C280 C281 1.479 . S
C280 H294 0.950 . S
C281 C280 1.479 . S
C281 C282 1.375 . S
C281 C287 1.404 . S
C282 C281 1.375 . S
C282 C283 1.369 . S
C282 H295 0.950 . S
C283 C282 1.369 . S
C283 C284 1.392 . S
C283 H296 0.951 . S
C284 C283 1.392 . S
C284 C286 1.384 . S
H285 C287 0.949 . S
C286 C284 1.384 . S
C286 C287 1.385 . S
C286 H288 0.950 . S
C287 C281 1.404 . S
C287 H285 0.949 . S
C287 C286 1.385 . S
H288 C286 0.950 . S
H289 C273 0.951 . S
H290 C275 0.951 . S
H291 C277 0.951 . S
H292 C278 0.950 . S
H293 C279 0.950 . S
H294 C280 0.950 . S
H295 C282 0.950 . S
H296 C283 0.951 . S
C297 C298 1.386 1_565 S
C297 C299 1.382 . S
C297 H313 0.951 . S
C298 C297 1.386 1_545 S
C298 C302 1.383 . S
C299 C297 1.382 . S
C299 C300 1.400 1_565 S
C299 H314 0.953 . S
C300 C299 1.400 1_545 S
C300 C301 1.375 . S
C300 C303 1.481 . S
C301 C300 1.375 . S
C301 C302 1.367 . S
C301 H315 0.951 . S
C302 C298 1.383 . S
C302 C301 1.367 . S
C302 H316 0.950 . S
C303 C300 1.481 . S
C303 C304 1.297 . S
C303 H317 0.950 . S
C304 C303 1.297 . S
C304 C305 1.479 . S
C304 H318 0.950 . S
C305 C304 1.479 . S
C305 C306 1.375 . S
C305 C311 1.404 . S
C306 C305 1.375 . S
C306 C307 1.369 . S
C306 H319 0.950 1_545 S
C307 C306 1.369 . S
C307 C308 1.392 . S
C307 H320 0.951 1_545 S
C308 C307 1.392 . S
C308 C310 1.384 . S
H309 C311 0.949 . S
C310 C308 1.384 . S
C310 C311 1.385 . S
C310 H312 0.950 . S
C311 C305 1.404 . S
C311 H309 0.949 . S
C311 C310 1.385 . S
H312 C310 0.950 . S
H313 C297 0.951 . S
H314 C299 0.953 . S
H315 C301 0.951 . S
H316 C302 0.950 . S
H317 C303 0.950 . S
H318 C304 0.950 . S
H319 C306 0.950 1_565 S
H320 C307 0.951 1_565 S
C321 C322 1.386 . S
C321 C323 1.383 . S
C321 H337 0.951 . S
C322 C321 1.386 . S
C322 C326 1.383 . S
C323 C321 1.383 . S
C323 C324 1.402 1_554 S
C323 H338 0.951 . S
C324 C323 1.402 1_556 S
C324 C325 1.375 . S
C324 C327 1.481 . S
C325 C324 1.375 . S
C325 C326 1.367 1_556 S
C325 H339 0.951 . S
C326 C322 1.383 . S
C326 C325 1.367 1_554 S
C326 H340 0.950 . S
C327 C324 1.481 . S
C327 C328 1.297 . S
C327 H341 0.950 . S
C328 C327 1.297 . S
C328 C329 1.479 . S
C328 H342 0.950 . S
C329 C328 1.479 . S
C329 C330 1.375 . S
C329 C335 1.404 . S
C330 C329 1.375 . S
C330 C331 1.369 . S
C330 H343 0.950 . S
C331 C330 1.369 . S
C331 C332 1.392 . S
C331 H344 0.951 . S
C332 C331 1.392 . S
C332 C334 1.384 . S
H333 C335 0.949 . S
C334 C332 1.384 . S
C334 C335 1.385 . S
C334 H336 0.950 . S
C335 C329 1.404 . S
C335 H333 0.949 . S
C335 C334 1.385 . S
H336 C334 0.950 . S
H337 C321 0.951 . S
H338 C323 0.951 . S
H339 C325 0.951 . S
H340 C326 0.950 . S
H341 C327 0.950 . S
H342 C328 0.950 . S
H343 C330 0.950 . S
H344 C331 0.951 . S
C345 C346 1.386 . S
C345 C347 1.383 . S
C345 H361 0.951 . S
C346 C345 1.386 . S
C346 C350 1.383 . S
C347 C345 1.383 . S
C347 C348 1.402 . S
C347 H362 0.951 . S
C348 C347 1.402 . S
C348 C349 1.375 . S
C348 C351 1.481 . S
C349 C348 1.375 . S
C349 C350 1.367 . S
C349 H363 0.951 1_455 S
C350 C346 1.383 . S
C350 C349 1.367 . S
C350 H364 0.950 1_455 S
C351 C348 1.481 . S
C351 C352 1.297 . S
C351 H365 0.950 . S
C352 C351 1.297 . S
C352 C353 1.479 . S
C352 H366 0.950 . S
C353 C352 1.479 . S
C353 C354 1.375 . S
C353 C359 1.404 . S
C354 C353 1.375 . S
C354 C355 1.369 . S
C354 H367 0.950 . S
C355 C354 1.369 . S
C355 C356 1.392 . S
C355 H368 0.951 . S
C356 C355 1.392 . S
C356 C358 1.384 1_455 S
H357 C359 0.949 1_655 S
C358 C356 1.384 1_655 S
C358 C359 1.385 1_655 S
C358 H360 0.950 . S
C359 C353 1.404 . S
C359 H357 0.949 1_455 S
C359 C358 1.385 1_455 S
H360 C358 0.950 . S
H361 C345 0.951 . S
H362 C347 0.951 . S
H363 C349 0.951 1_655 S
H364 C350 0.950 1_655 S
H365 C351 0.950 . S
H366 C352 0.950 . S
H367 C354 0.950 . S
H368 C355 0.951 . S
C92 C40 1.383 . S
C82 C10 1.387 . S
C106 C21 1.378 . S
C116 C66 1.436 . S
C130 C31 1.361 . S
C140 C68 1.388 . S
C154 C0 1.315 . S
C164 C52 1.377 . S
C188 C54 1.393 . S
C178 C18 1.376 . S
C202 C34 1.334 . S
C212 C80 1.394 . S
C236 C53 1.381 . S
C226 C36 1.382 . S
C250 C8 1.378 1_565 S
C260 C79 1.379 . S
C284 C39 1.381 . S
C274 C23 1.388 . S
C308 C65 1.339 . S
C298 C26 1.277 . S
C332 C67 1.392 . S
C322 C5 1.358 . S
C346 C13 1.313 . S
C356 C51 1.389 . S
