# Generated by pormake.
# Topology soc, (4,6)-cn, num edge types: 1
# Building blocks:
#     Node 0, Type 0, BuildingBlock: ESEHIV_clean_sbu_0, # of connection points: 4
#     Node 1, Type 0, BuildingBlock: ESEHIV_clean_sbu_0, # of connection points: 4
#     Node 2, Type 0, BuildingBlock: ESEHIV_clean_sbu_0, # of connection points: 4
#     Node 3, Type 0, BuildingBlock: ESEHIV_clean_sbu_0, # of connection points: 4
#     Node 4, Type 0, BuildingBlock: ESEHIV_clean_sbu_0, # of connection points: 4
#     Node 5, Type 0, BuildingBlock: ESEHIV_clean_sbu_0, # of connection points: 4
#     Node 6, Type 0, BuildingBlock: ESEHIV_clean_sbu_0, # of connection points: 4
#     Node 7, Type 0, BuildingBlock: ESEHIV_clean_sbu_0, # of connection points: 4
#     Node 8, Type 0, BuildingBlock: ESEHIV_clean_sbu_0, # of connection points: 4
#     Node 9, Type 0, BuildingBlock: ESEHIV_clean_sbu_0, # of connection points: 4
#     Node 10, Type 0, BuildingBlock: ESEHIV_clean_sbu_0, # of connection points: 4
#     Node 11, Type 0, BuildingBlock: ESEHIV_clean_sbu_0, # of connection points: 4
#     Node 12, Type 1, BuildingBlock: PAMTUU_clean_sbu_0, # of connection points: 6
#     Node 13, Type 1, BuildingBlock: PAMTUU_clean_sbu_0, # of connection points: 6
#     Node 14, Type 1, BuildingBlock: PAMTUU_clean_sbu_0, # of connection points: 6
#     Node 15, Type 1, BuildingBlock: PAMTUU_clean_sbu_0, # of connection points: 6
#     Node 16, Type 1, BuildingBlock: PAMTUU_clean_sbu_0, # of connection points: 6
#     Node 17, Type 1, BuildingBlock: PAMTUU_clean_sbu_0, # of connection points: 6
#     Node 18, Type 1, BuildingBlock: PAMTUU_clean_sbu_0, # of connection points: 6
#     Node 19, Type 1, BuildingBlock: PAMTUU_clean_sbu_0, # of connection points: 6
#     Edge 20, Type (0, 1), BuildingBlock: XUDNAN_clean_linker_2, # of connection points: 2
#     Edge 21, Type (0, 1), BuildingBlock: XUDNAN_clean_linker_2, # of connection points: 2
#     Edge 22, Type (0, 1), BuildingBlock: XUDNAN_clean_linker_2, # of connection points: 2
#     Edge 23, Type (0, 1), BuildingBlock: XUDNAN_clean_linker_2, # of connection points: 2
#     Edge 24, Type (0, 1), BuildingBlock: XUDNAN_clean_linker_2, # of connection points: 2
#     Edge 25, Type (0, 1), BuildingBlock: XUDNAN_clean_linker_2, # of connection points: 2
#     Edge 26, Type (0, 1), BuildingBlock: XUDNAN_clean_linker_2, # of connection points: 2
#     Edge 27, Type (0, 1), BuildingBlock: XUDNAN_clean_linker_2, # of connection points: 2
#     Edge 28, Type (0, 1), BuildingBlock: XUDNAN_clean_linker_2, # of connection points: 2
#     Edge 29, Type (0, 1), BuildingBlock: XUDNAN_clean_linker_2, # of connection points: 2
#     Edge 30, Type (0, 1), BuildingBlock: XUDNAN_clean_linker_2, # of connection points: 2
#     Edge 31, Type (0, 1), BuildingBlock: XUDNAN_clean_linker_2, # of connection points: 2
#     Edge 32, Type (0, 1), BuildingBlock: XUDNAN_clean_linker_2, # of connection points: 2
#     Edge 33, Type (0, 1), BuildingBlock: XUDNAN_clean_linker_2, # of connection points: 2
#     Edge 34, Type (0, 1), BuildingBlock: XUDNAN_clean_linker_2, # of connection points: 2
#     Edge 35, Type (0, 1), BuildingBlock: XUDNAN_clean_linker_2, # of connection points: 2
#     Edge 36, Type (0, 1), BuildingBlock: XUDNAN_clean_linker_2, # of connection points: 2
#     Edge 37, Type (0, 1), BuildingBlock: XUDNAN_clean_linker_2, # of connection points: 2
#     Edge 38, Type (0, 1), BuildingBlock: XUDNAN_clean_linker_2, # of connection points: 2
#     Edge 39, Type (0, 1), BuildingBlock: XUDNAN_clean_linker_2, # of connection points: 2
#     Edge 40, Type (0, 1), BuildingBlock: XUDNAN_clean_linker_2, # of connection points: 2
#     Edge 41, Type (0, 1), BuildingBlock: XUDNAN_clean_linker_2, # of connection points: 2
#     Edge 42, Type (0, 1), BuildingBlock: XUDNAN_clean_linker_2, # of connection points: 2
#     Edge 43, Type (0, 1), BuildingBlock: XUDNAN_clean_linker_2, # of connection points: 2
#     Edge 44, Type (0, 1), BuildingBlock: XUDNAN_clean_linker_2, # of connection points: 2
#     Edge 45, Type (0, 1), BuildingBlock: XUDNAN_clean_linker_2, # of connection points: 2
#     Edge 46, Type (0, 1), BuildingBlock: XUDNAN_clean_linker_2, # of connection points: 2
#     Edge 47, Type (0, 1), BuildingBlock: XUDNAN_clean_linker_2, # of connection points: 2
#     Edge 48, Type (0, 1), BuildingBlock: XUDNAN_clean_linker_2, # of connection points: 2
#     Edge 49, Type (0, 1), BuildingBlock: XUDNAN_clean_linker_2, # of connection points: 2
#     Edge 50, Type (0, 1), BuildingBlock: XUDNAN_clean_linker_2, # of connection points: 2
#     Edge 51, Type (0, 1), BuildingBlock: XUDNAN_clean_linker_2, # of connection points: 2
#     Edge 52, Type (0, 1), BuildingBlock: XUDNAN_clean_linker_2, # of connection points: 2
#     Edge 53, Type (0, 1), BuildingBlock: XUDNAN_clean_linker_2, # of connection points: 2
#     Edge 54, Type (0, 1), BuildingBlock: XUDNAN_clean_linker_2, # of connection points: 2
#     Edge 55, Type (0, 1), BuildingBlock: XUDNAN_clean_linker_2, # of connection points: 2
#     Edge 56, Type (0, 1), BuildingBlock: XUDNAN_clean_linker_2, # of connection points: 2
#     Edge 57, Type (0, 1), BuildingBlock: XUDNAN_clean_linker_2, # of connection points: 2
#     Edge 58, Type (0, 1), BuildingBlock: XUDNAN_clean_linker_2, # of connection points: 2
#     Edge 59, Type (0, 1), BuildingBlock: XUDNAN_clean_linker_2, # of connection points: 2
#     Edge 60, Type (0, 1), BuildingBlock: XUDNAN_clean_linker_2, # of connection points: 2
#     Edge 61, Type (0, 1), BuildingBlock: XUDNAN_clean_linker_2, # of connection points: 2
#     Edge 62, Type (0, 1), BuildingBlock: XUDNAN_clean_linker_2, # of connection points: 2
#     Edge 63, Type (0, 1), BuildingBlock: XUDNAN_clean_linker_2, # of connection points: 2
#     Edge 64, Type (0, 1), BuildingBlock: XUDNAN_clean_linker_2, # of connection points: 2
#     Edge 65, Type (0, 1), BuildingBlock: XUDNAN_clean_linker_2, # of connection points: 2
#     Edge 66, Type (0, 1), BuildingBlock: XUDNAN_clean_linker_2, # of connection points: 2
#     Edge 67, Type (0, 1), BuildingBlock: XUDNAN_clean_linker_2, # of connection points: 2
# Relax obj value: 0.137
# Max RMSD: 0.234
# Mean RMSD: 0.157
data_MOF--net-soc--node1-ESEHIV_clean_sbu_0--node2-PAMTUU_clean_sbu_0--edge1-XUDNAN_clean_linker_2
_symmetry_space_group_name_H-M    P1
_symmetry_Int_Tables_number       1
_symmetry_cell_setting            triclinic
loop_
_symmetry_equiv_pos_as_xyz
'x, y, z'
_cell_length_a     51.52124
_cell_length_b     50.282434
_cell_length_c     43.135555
_cell_angle_alpha  82.816642
_cell_angle_beta   82.189223
_cell_angle_gamma 71.33614
loop_
_atom_site_label
_atom_site_type_symbol
_atom_site_fract_x
_atom_site_fract_y
_atom_site_fract_z
_atom_type_partial_charge
Cu0 Cu 0.05266 0.03099 0.36643 0.0
N1 N 0.06939 0.05002 0.38799 0.0
N2 N 0.09778 0.07304 0.39744 0.0
C3 C 0.09335 0.05551 0.37882 0.0
C4 C 0.07564 0.07873 0.41911 0.0
C5 C 0.05812 0.06475 0.41304 0.0
O6 O 0.08103 1.00348 0.34216 0.0
C7 C 1.00166 0.06415 0.34153 0.0
O8 O 0.99126 0.04439 0.35492 0.0
H9 H 0.10646 0.04795 0.3579 0.0
H10 H 0.03797 0.06628 0.42518 0.0
N11 N 0.03426 0.01009 0.39463 0.0
N12 N 1.01591 0.9757 0.41215 0.0
C13 C 1.02405 0.99065 0.38669 0.0
C14 C 0.03278 0.0071 0.42624 0.0
C15 C 1.02137 0.98593 0.43711 0.0
C16 C 0.0986 0.98553 0.35854 0.0
O17 O 0.0968 0.98818 0.38875 0.0
H18 H 1.02398 0.98654 0.36266 0.0
H19 H 0.04075 0.01835 0.4404 0.0
O20 O 0.02726 0.06065 0.34174 0.0
H21 H 0.07193 0.09252 0.43766 0.0
H22 H 1.01802 0.97818 0.46141 0.0
Cu23 Cu 0.05024 0.04062 0.75454 0.0
N24 N 0.0372 0.01978 0.73067 0.0
N25 N 1.01143 0.99686 0.71462 0.0
C26 C 1.01584 0.00937 0.73852 0.0
C27 C 0.03087 0.99925 0.69108 0.0
C28 C 0.0467 0.01329 0.70104 0.0
O29 O 1.01938 0.06489 0.77982 0.0
C30 C 0.09975 0.99802 0.76245 0.0
O31 O 0.09914 0.99866 0.73204 0.0
H32 H 1.00327 0.01175 0.76086 0.0
H33 H 0.06382 0.01868 0.68742 0.0
N34 N 0.06467 0.0659 0.72821 0.0
N35 N 0.08084 0.10247 0.71551 0.0
C36 C 0.07847 0.08163 0.73758 0.0
C37 C 0.05818 0.07712 0.6992 0.0
C38 C 0.06821 0.09964 0.69127 0.0
C39 C 0.99903 0.08047 0.76535 0.0
O40 O 0.99882 0.07711 0.73567 0.0
H41 H 0.08457 0.0793 0.76106 0.0
H42 H 0.0453 0.07079 0.68569 0.0
O43 O 0.07989 0.01503 0.77811 0.0
H44 H 0.03345 0.99141 0.66824 0.0
H45 H 0.06528 0.11367 0.66997 0.0
Cu46 Cu 0.32136 0.0573 0.09027 0.0
N47 N 0.35797 0.03684 0.07868 0.0
N48 N 0.38972 1.00249 0.05371 0.0
C49 C 0.36429 0.01101 0.06892 0.0
C50 C 0.40021 0.02382 0.05408 0.0
C51 C 0.38061 0.04497 0.06987 0.0
O52 O 0.30552 0.03096 0.11791 0.0
C53 C 0.31633 0.09469 0.03806 0.0
O54 O 0.33561 0.09891 0.05201 0.0
H55 H 0.3494 0.99995 0.06972 0.0
H56 H 0.38199 0.0656 0.07232 0.0
N57 N 0.31714 0.08652 0.11513 0.0
N58 N 0.32025 0.11497 0.14926 0.0
C59 C 0.33381 0.09212 0.13333 0.0
C60 C 0.29268 0.1065 0.11959 0.0
C61 C 0.2945 0.12401 0.14054 0.0
C62 C 0.30042 0.00859 0.11334 0.0
O63 O 0.30083 1.00239 0.08455 0.0
H64 H 0.35491 0.07935 0.13564 0.0
H65 H 0.27457 0.10783 0.10866 0.0
O66 O 0.30536 0.07598 0.05109 0.0
H67 H 0.41977 0.02484 0.04206 0.0
H68 H 0.27808 0.14201 0.14889 0.0
Cu69 Cu 0.07752 0.31031 0.11747 0.0
N70 N 0.09065 0.33511 0.08795 0.0
N71 N 0.11267 0.34809 0.04301 0.0
C72 C 0.1101 0.32647 0.06387 0.0
C73 C 0.0942 0.37133 0.05456 0.0
C74 C 0.08074 0.36329 0.08234 0.0
O75 O 0.10863 0.29045 0.14301 0.0
C76 C 0.04463 0.30582 0.07587 0.0
O77 O 0.0389 0.33297 0.07802 0.0
H78 H 0.12088 0.3045 0.06065 0.0
H79 H 0.06388 0.37685 0.09641 0.0
N80 N 0.04541 0.32765 0.1435 0.0
N81 N 1.00334 0.33285 0.16899 0.0
C82 C 1.02475 0.31626 0.15157 0.0
C83 C 0.03666 0.35253 0.15629 0.0
C84 C 1.01079 0.35565 0.17232 0.0
C85 C 0.11073 0.3003 0.16829 0.0
O86 O 0.09032 0.32141 0.17893 0.0
H87 H 1.0253 0.29617 0.14448 0.0
H88 H 0.0481 0.36747 0.15393 0.0
O89 O 0.06367 0.28897 0.09159 0.0
H90 H 0.09012 0.39252 0.04323 0.0
H91 H 0.99812 0.37362 0.18461 0.0
Cu92 Cu 0.8015 0.00845 1.01877 0.0
N93 N 0.82254 0.0275 0.99188 0.0
N94 N 0.83214 0.06562 0.96777 0.0
C95 C 0.81338 0.05559 0.98584 0.0
C96 C 0.85409 0.04293 0.96167 0.0
C97 C 0.8482 0.01929 0.97698 0.0
O98 O 0.77862 0.03738 0.04596 0.0
C99 C 0.79505 0.97838 0.97153 0.0
O100 O 0.82054 0.97827 0.96307 0.0
H101 H 0.79329 0.06859 0.9949 0.0
H102 H 0.86183 0.99786 0.97762 0.0
N103 N 0.8223 0.97953 0.04506 0.0
N104 N 0.83168 0.95169 0.08926 0.0
C105 C 0.81365 0.97414 0.07529 0.0
C106 C 0.84661 0.95954 0.03937 0.0
C107 C 0.85244 0.94219 0.06673 0.0
C108 C 0.79242 0.04543 0.06332 0.0
O109 O 0.81913 0.03304 0.06233 0.0
H110 H 0.79406 0.98615 0.0866 0.0
H111 H 0.85895 0.95744 1.01691 0.0
O112 O 0.7818 0.99164 0.99505 0.0
H113 H 0.8732 0.04354 0.94808 0.0
H114 H 0.87047 0.92408 0.06979 0.0
Cu115 Cu 0.03404 0.75738 0.02762 0.0
N116 N 1.01831 0.73912 1.00343 0.0
N117 N 0.98976 0.72926 0.97496 0.0
C118 C 0.99498 0.74944 0.98888 0.0
C119 C 1.01079 0.7056 0.98067 0.0
C120 C 0.02829 0.71175 0.99808 0.0
O121 O 1.00581 0.77709 0.06029 0.0
C122 C 0.07336 0.78831 1.00268 0.0
O123 O 0.07586 0.79144 0.03181 0.0
H124 H 0.98162 0.77097 0.98952 0.0
H125 H 0.04686 0.69716 1.00669 0.0
N126 N 0.0605 0.73035 0.05032 0.0
N127 N 0.09999 0.71357 0.0727 0.0
C128 C 0.08764 0.72728 0.04708 0.0
C129 C 0.05571 0.71684 0.0784 0.0
C130 C 0.07999 0.70648 0.09226 0.0
C131 C 0.98726 0.76586 0.07266 0.0
O132 O 0.98594 0.74352 0.06093 0.0
H133 H 0.09765 0.73734 0.02773 0.0
H134 H 0.03555 0.71686 0.08936 0.0
O135 O 0.05459 0.77834 0.9973 0.0
H136 H 1.01329 0.68517 0.97296 0.0
H137 H 0.08215 0.69654 0.11591 0.0
Cu138 Cu 0.54153 0.53518 0.87754 0.0
N139 N 0.5574 0.54611 0.90834 0.0
N140 N 0.58598 0.56464 0.92634 0.0
C141 C 0.58286 0.54869 0.90506 0.0
C142 C 0.56159 0.57206 0.94419 0.0
C143 C 0.54401 0.56061 0.93302 0.0
O144 O 0.56977 0.50646 0.85401 0.0
C145 C 0.49791 0.57413 0.84462 0.0
O146 O 0.49082 0.55215 0.84012 0.0
H147 H 0.59796 0.54148 0.88562 0.0
H148 H 0.52233 0.56474 0.9406 0.0
N149 N 0.51606 0.51707 0.89559 0.0
N150 N 0.49046 0.4884 0.89708 0.0
C151 C 0.51355 0.49439 0.88429 0.0
C152 C 0.49391 0.52576 0.91655 0.0
C153 C 0.47814 0.50794 0.91769 0.0
C154 C 0.59291 0.50605 0.83885 0.0
O155 O 0.59961 0.52939 0.83261 0.0
H156 H 0.52779 0.48342 0.86582 0.0
H157 H 0.48859 0.54472 0.92852 0.0
O158 O 0.52076 0.57036 0.85552 0.0
H159 H 0.55624 0.58627 0.96257 0.0
H160 H 0.45827 0.51038 0.93104 0.0
Cu161 Cu 0.56324 0.54302 0.2556 0.0
N162 N 0.54537 0.52504 0.23434 0.0
N163 N 0.51901 0.49835 0.22994 0.0
C164 C 0.52917 0.51036 0.24967 0.0
C165 C 0.52909 0.50599 0.20083 0.0
C166 C 0.54552 0.52242 0.20363 0.0
O167 O 0.53526 0.57266 0.27719 0.0
C168 C 0.60161 0.49211 0.27122 0.0
O169 O 0.59905 0.489 0.24211 0.0
H170 H 0.52497 0.50863 0.27498 0.0
H171 H 0.55705 0.53133 0.1847 0.0
N172 N 0.58587 0.5611 0.23052 0.0
N173 N 0.61166 0.58994 0.22463 0.0
C174 C 0.60231 0.57115 0.24408 0.0
C175 C 0.58497 0.57362 0.20103 0.0
C176 C 0.60118 0.59133 0.19723 0.0
C177 C 0.51816 0.59005 0.25983 0.0
O178 O 0.51992 0.58575 0.23008 0.0
H179 H 0.60544 0.56644 0.26873 0.0
H180 H 0.57159 0.57213 0.18451 0.0
O181 O 0.58691 0.51473 0.28323 0.0
H182 H 0.52545 0.49959 0.17919 0.0
H183 H 0.60299 0.60595 0.17701 0.0
Cu184 Cu 0.78873 0.57428 0.5999 0.0
N185 N 0.77016 0.60033 0.56948 0.0
N186 N 0.76455 0.62616 0.52355 0.0
C187 C 0.78274 0.61013 0.54328 0.0
C188 C 0.73947 0.62665 0.53788 0.0
C189 C 0.74299 0.6108 0.56645 0.0
O190 O 0.805 0.59346 0.62495 0.0
C191 C 0.82752 0.5204 0.59141 0.0
O192 O 0.82969 0.51944 0.62153 0.0
H193 H 0.80489 0.60456 0.53817 0.0
H194 H 0.72694 0.60667 0.58337 0.0
N195 N 0.76536 0.55756 0.62612 0.0
N196 N 0.75729 0.52457 0.66249 0.0
C197 C 0.77226 0.54237 0.65338 0.0
C198 C 0.7448 0.54968 0.61796 0.0
C199 C 0.73962 0.52949 0.64046 0.0
C200 C 0.78842 0.60957 0.64449 0.0
O201 O 0.76214 0.61175 0.64672 0.0
H202 H 0.79017 0.54196 0.66415 0.0
H203 H 0.73623 0.55583 0.59567 0.0
O204 O 0.81418 0.54352 0.57733 0.0
H205 H 0.7201 0.63746 0.52828 0.0
H206 H 0.72553 0.51776 0.63922 0.0
Cu207 Cu 0.57524 0.79608 0.60639 0.0
N208 N 0.60494 0.77669 0.57814 0.0
N209 N 0.63901 0.77237 0.53837 0.0
C210 C 0.61887 0.79019 0.55633 0.0
C211 C 0.63761 0.74645 0.54943 0.0
C212 C 0.61672 0.74915 0.57396 0.0
O213 O 0.59179 0.81395 0.63283 0.0
C214 C 0.54192 0.81054 0.5589 0.0
O215 O 0.55627 0.78442 0.55387 0.0
H216 H 0.6139 0.81289 0.55352 0.0
H217 H 0.61066 0.7322 0.5877 0.0
N218 N 0.55406 0.77559 0.6323 0.0
N219 N 0.51691 0.77118 0.66448 0.0
C220 C 0.53306 0.7877 0.6536 0.0
C221 C 0.55106 0.75041 0.62942 0.0
C222 C 0.52837 0.74757 0.64929 0.0
C223 C 0.60365 0.79899 0.65612 0.0
O224 O 0.60202 0.77332 0.6629 0.0
H225 H 0.52872 0.80913 0.65936 0.0
H226 H 0.56344 0.7358 0.61279 0.0
O227 O 0.54783 0.82187 0.58074 0.0
H228 H 0.651 0.72684 0.54086 0.0
H229 H 0.52056 0.72977 0.65163 0.0
Cu230 Cu 0.29908 0.51539 0.52338 0.0
N231 N 0.3227 0.53032 0.49416 0.0
N232 N 0.33815 0.56125 0.46059 0.0
C233 C 0.31655 0.5568 0.47975 0.0
C234 C 0.35856 0.53643 0.46309 0.0
C235 C 0.34898 0.5175 0.48359 0.0
O236 O 0.2746 0.54735 0.54459 0.0
C237 C 0.29006 0.47077 0.4971 0.0
O238 O 0.3109 0.45559 0.51257 0.0
H239 H 0.29653 0.57239 0.48318 0.0
H240 H 0.36044 0.49593 0.49043 0.0
N241 N 0.31759 0.48984 0.55529 0.0
N242 N 0.32455 0.46191 0.60026 0.0
C243 C 0.30662 0.47487 0.57877 0.0
C244 C 0.34326 0.48611 0.56233 0.0
C245 C 0.34755 0.46904 0.58997 0.0
C246 C 0.2876 0.56136 0.55528 0.0
O247 O 0.31465 0.55259 0.55185 0.0
H248 H 0.28548 0.47474 0.58096 0.0
H249 H 0.35742 0.49626 0.54918 0.0
O250 O 0.28074 0.49726 0.49949 0.0
H251 H 0.3792 0.53216 0.45128 0.0
H252 H 0.36589 0.46302 0.60214 0.0
Cu253 Cu 0.5283 0.26233 0.53448 0.0
N254 N 0.56028 0.24135 0.51088 0.0
N255 N 0.60279 0.2294 0.48516 0.0
C256 C 0.58334 0.24888 0.50181 0.0
C257 C 0.5913 0.209 0.48348 0.0
C258 C 0.56522 0.21642 0.4992 0.0
O259 O 0.54179 0.28609 0.55731 0.0
C260 C 0.49052 0.26145 0.49499 0.0
O261 O 0.49899 0.2351 0.50665 0.0
H262 H 0.58592 0.2681 0.50778 0.0
H263 H 0.55092 0.20439 0.50186 0.0
N264 N 0.51383 0.23949 0.56557 0.0
N265 N 0.4865 0.22635 0.60546 0.0
C266 C 0.49136 0.24812 0.58639 0.0
C267 C 0.52361 0.21138 0.57192 0.0
C268 C 0.5068 0.20325 0.59634 0.0
C269 C 0.55941 0.27083 0.57571 0.0
O270 O 0.56463 0.24338 0.57727 0.0
H271 H 0.47862 0.26987 0.58717 0.0
H272 H 0.5418 0.19773 0.55982 0.0
O273 O 0.50015 0.27922 0.50449 0.0
H274 H 0.60089 0.19011 0.47141 0.0
H275 H 0.50956 0.18194 0.60682 0.0
Tb276 Tb 0.31751 0.30821 0.29645 0.0
Tb277 Tb 0.28835 0.27369 0.35305 0.0
C278 C 0.26336 0.29436 0.2879 0.0
C279 C 0.35444 0.35637 0.25414 0.0
C280 C 0.38784 0.39069 0.25625 0.0
C281 C 0.38786 0.37883 0.22838 0.0
C282 C 0.3713 0.36176 0.22739 0.0
C283 C 0.35348 0.369 0.28165 0.0
C284 C 0.36998 0.38612 0.28266 0.0
C285 C 0.34026 0.33532 0.25414 0.0
O286 O 0.28759 0.3397 0.3248 0.0
O287 O 0.28573 0.31272 0.37146 0.0
O288 O 0.3308 0.26594 0.36386 0.0
O289 O 0.34023 0.30469 0.33662 0.0
O290 O 0.25369 0.27214 0.38436 0.0
O291 O 0.29141 0.23729 0.38371 0.0
O292 O 0.30285 0.24621 0.31556 0.0
O293 O 0.33698 0.2634 0.29021 0.0
O294 O 0.28699 0.29717 0.27472 0.0
O295 O 0.25796 0.29185 0.31871 0.0
C296 C 0.28255 0.33735 0.35558 0.0
O297 O 0.35277 0.3105 0.26715 0.0
O298 O 0.31388 0.34309 0.26298 0.0
C299 C 0.34541 0.28362 0.3585 0.0
C300 C 0.24998 0.22626 0.39182 0.0
C301 C 0.22192 0.18718 0.3878 0.0
C302 C 0.22129 0.19794 0.41659 0.0
C303 C 0.23529 0.21726 0.41858 0.0
C304 C 0.2503 0.21597 0.36293 0.0
C305 C 0.2365 0.19651 0.36095 0.0
C306 C 0.26538 0.24589 0.39412 0.0
C307 C 0.32478 0.24373 0.29547 0.0
H308 H 0.40158 0.38166 0.20776 0.0
H309 H 0.37244 0.35192 0.20607 0.0
H310 H 0.34064 0.36491 0.3026 0.0
H311 H 0.36918 0.39527 0.30433 0.0
H312 H 0.21042 0.19098 0.43772 0.0
H313 H 0.23486 0.22499 0.44105 0.0
H314 H 0.26139 0.22285 0.34193 0.0
H315 H 0.23707 0.18892 0.33836 0.0
Tb316 Tb 0.7893 0.27039 0.3025 0.0
Tb317 Tb 0.8136 0.29545 0.35696 0.0
C318 C 0.76045 0.33166 0.32594 0.0
C319 C 0.76762 0.23592 0.23909 0.0
C320 C 0.76746 0.20079 0.19272 0.0
C321 C 0.74314 0.22131 0.20338 0.0
C322 C 0.74329 0.23868 0.22616 0.0
C323 C 0.79218 0.21602 0.22821 0.0
C324 C 0.79213 0.19868 0.2051 0.0
C325 C 0.76563 0.25208 0.26601 0.0
O326 O 0.81763 0.29097 0.27516 0.0
O327 O 0.84099 0.29764 0.31431 0.0
O328 O 0.83872 0.25157 0.35284 0.0
O329 O 0.83074 0.24188 0.30448 0.0
O330 O 0.8312 0.32418 0.3697 0.0
O331 O 0.82495 0.29034 0.40315 0.0
O332 O 0.7755 0.28737 0.37859 0.0
O333 O 0.78011 0.2513 0.34905 0.0
O334 O 0.75782 0.30876 0.31675 0.0
O335 O 0.78265 0.33177 0.33761 0.0
C336 C 0.83788 0.29776 0.28451 0.0
O337 O 0.77555 0.23806 0.2915 0.0
O338 O 0.76985 0.27655 0.26091 0.0
C339 C 0.84533 0.23632 0.32853 0.0
C340 C 0.83036 0.3302 0.42367 0.0
C341 C 0.83009 0.36663 0.46885 0.0
C342 C 0.84937 0.33951 0.46824 0.0
C343 C 0.8494 0.32155 0.44603 0.0
C344 C 0.81065 0.357 0.42433 0.0
C345 C 0.81047 0.37503 0.44682 0.0
C346 C 0.83416 0.31201 0.39806 0.0
C347 C 0.76894 0.26516 0.37375 0.0
H348 H 0.72364 0.22334 0.19505 0.0
H349 H 0.72405 0.25368 0.23455 0.0
H350 H 0.81118 0.21347 0.23805 0.0
H351 H 0.81136 0.18346 0.19719 0.0
H352 H 0.86518 0.33237 0.48423 0.0
H353 H 0.86507 0.30115 0.4456 0.0
H354 H 0.79587 0.36419 0.4071 0.0
H355 H 0.79509 0.3956 0.44677 0.0
Tb356 Tb 0.83379 0.79209 0.33657 0.0
Tb357 Tb 0.79678 0.77789 0.28743 0.0
C358 C 0.82311 0.73278 0.34043 0.0
C359 C 0.8808 0.81562 0.37984 0.0
C360 C 0.92004 0.84152 0.38842 0.0
C361 C 0.90624 0.83001 0.41435 0.0
C362 C 0.88687 0.81716 0.41006 0.0
C363 C 0.8945 0.82684 0.3537 0.0
C364 C 0.91403 0.83975 0.35797 0.0
C365 C 0.85934 0.80308 0.37672 0.0
O366 O 0.86376 0.77684 0.29646 0.0
O367 O 0.83482 0.77938 0.25891 0.0
O368 O 0.78958 0.8233 0.2828 0.0
O369 O 0.82946 0.82542 0.29899 0.0
O370 O 0.79374 0.75553 0.25087 0.0
O371 O 0.75866 0.78852 0.2692 0.0
O372 O 0.77349 0.77704 0.3338 0.0
O373 O 0.79016 0.80728 0.35441 0.0
O374 O 0.82748 0.75223 0.35482 0.0
O375 O 0.81687 0.73727 0.31132 0.0
C376 C 0.85935 0.77669 0.26701 0.0
O377 O 0.8365 0.82027 0.36697 0.0
O378 O 0.86711 0.77919 0.36397 0.0
C379 C 0.80813 0.83609 0.28294 0.0
C380 C 0.75016 0.75003 0.25163 0.0
C381 C 0.71701 0.71479 0.25348 0.0
C382 C 0.72067 0.73225 0.22618 0.0
C383 C 0.73717 0.74969 0.22528 0.0
C384 C 0.74666 0.73271 0.27891 0.0
C385 C 0.73033 0.71512 0.2798 0.0
C386 C 0.76742 0.76838 0.2504 0.0
C387 C 0.77219 0.79342 0.35579 0.0
H388 H 0.90989 0.83151 0.43812 0.0
H389 H 0.87628 0.80877 0.43047 0.0
H390 H 0.88993 0.82583 0.33017 0.0
H391 H 0.92442 0.84827 0.33752 0.0
H392 H 0.71041 0.73283 0.20568 0.0
H393 H 0.73966 0.76304 0.20406 0.0
H394 H 0.75654 0.73284 0.29947 0.0
H395 H 0.7283 0.70167 0.30105 0.0
Tb396 Tb 0.32093 0.80871 0.33377 0.0
Tb397 Tb 0.30821 0.7803 0.27337 0.0
C398 C 0.26039 0.82375 0.31271 0.0
C399 C 0.34776 0.83198 0.40114 0.0
C400 C 0.38392 0.83277 0.44452 0.0
C401 C 0.36094 0.85634 0.4386 0.0
C402 C 0.34308 0.85587 0.41723 0.0
C403 C 0.3701 0.80802 0.40745 0.0
C404 C 0.38796 0.80836 0.42912 0.0
C405 C 0.3309 0.83424 0.37549 0.0
O406 O 0.31377 0.76937 0.35566 0.0
O407 O 0.31856 0.74676 0.31085 0.0
O408 O 0.3528 0.77135 0.27177 0.0
O409 O 0.35802 0.77465 0.32312 0.0
O410 O 0.29165 0.75169 0.25861 0.0
O411 O 0.31512 0.77332 0.22528 0.0
O412 O 0.30187 0.82415 0.2562 0.0
O413 O 0.3273 0.83447 0.29022 0.0
O414 O 0.27824 0.83014 0.32701 0.0
O415 O 0.26729 0.80301 0.29434 0.0
C416 C 0.3172 0.7465 0.34152 0.0
O417 O 0.34392 0.832 0.34739 0.0
O418 O 0.31198 0.82163 0.37983 0.0
C419 C 0.36767 0.76466 0.29579 0.0
C420 C 0.28203 0.75754 0.20578 0.0
C421 C 0.2461 0.75255 0.16454 0.0
C422 C 0.27473 0.74009 0.15873 0.0
C423 C 0.29247 0.74257 0.17918 0.0
C424 C 0.25362 0.77111 0.21104 0.0
C425 C 0.23578 0.76864 0.19055 0.0
C426 C 0.30086 0.75567 0.22927 0.0
C427 C 0.31403 0.84087 0.2649 0.0
H428 H 0.35731 0.87566 0.44946 0.0
H429 H 0.32612 0.8747 0.41232 0.0
H430 H 0.37413 0.78943 0.39505 0.0
H431 H 0.40515 0.78964 0.43343 0.0
H432 H 0.28338 0.72729 0.1392 0.0
H433 H 0.31434 0.73176 0.17491 0.0
H434 H 0.24515 0.78279 0.23148 0.0
H435 H 0.21388 0.77885 0.19542 0.0
Tb436 Tb 0.28418 0.7758 0.80461 0.0
Tb437 Tb 0.30303 0.79938 0.86367 0.0
C438 C 0.26184 0.84062 0.81926 0.0
C439 C 0.26913 0.73806 0.73961 0.0
C440 C 0.26391 0.70387 0.69523 0.0
C441 C 0.26668 0.73063 0.6855 0.0
C442 C 0.269 0.74772 0.70759 0.0
C443 C 0.26805 0.71056 0.74888 0.0
C444 C 0.26539 0.69371 0.72694 0.0
C445 C 0.26477 0.75807 0.7636 0.0
O446 O 0.32231 0.78435 0.78373 0.0
O447 O 0.33383 0.80307 0.82455 0.0
O448 O 0.31614 0.75331 0.868 0.0
O449 O 0.32159 0.74354 0.81684 0.0
O450 O 0.33381 0.79121 0.89411 0.0
O451 O 0.29598 0.82531 0.90051 0.0
O452 O 0.26151 0.79746 0.88007 0.0
O453 O 0.26052 0.76516 0.84771 0.0
O454 O 0.25782 0.819 0.80866 0.0
O455 O 0.28205 0.83776 0.83628 0.0
C456 C 0.33874 0.79497 0.79577 0.0
O457 O 0.26597 0.74758 0.79276 0.0
O458 O 0.27455 0.77938 0.75774 0.0
C459 C 0.32924 0.73735 0.84526 0.0
C460 C 0.3359 0.83011 0.91799 0.0
C461 C 0.36376 0.86416 0.93752 0.0
C462 C 0.36556 0.83744 0.9531 0.0
C463 C 0.35174 0.82064 0.94344 0.0
C464 C 0.33474 0.85632 0.90156 0.0
C465 C 0.34859 0.87323 0.91126 0.0
C466 C 0.32014 0.81252 0.91014 0.0
C467 C 0.24954 0.78049 0.8715 0.0
H468 H 0.26566 0.73886 0.6611 0.0
H469 H 0.26931 0.76897 0.69984 0.0
H470 H 0.26781 0.70245 0.77335 0.0
H471 H 0.26377 0.67294 0.73491 0.0
H472 H 0.37741 0.82963 0.97306 0.0
H473 H 0.35303 0.80038 0.95627 0.0
H474 H 0.32271 0.86395 0.88172 0.0
H475 H 0.3466 0.89379 0.8989 0.0
Tb476 Tb 0.31266 0.29067 0.83983 0.0
Tb477 Tb 0.27313 0.27598 0.79549 0.0
C478 C 0.29379 0.23604 0.85509 0.0
C479 C 0.36095 0.31993 0.87128 0.0
C480 C 0.39432 0.3552 0.86759 0.0
C481 C 0.39172 0.3374 0.89492 0.0
C482 C 0.37515 0.31994 0.89673 0.0
C483 C 0.36369 0.3373 0.84375 0.0
C484 C 0.38027 0.35481 0.84191 0.0
C485 C 0.34248 0.30262 0.87436 0.0
O486 O 0.33796 0.28087 0.79545 0.0
O487 O 0.31577 0.25223 0.78123 0.0
O488 O 0.28731 0.30926 0.76837 0.0
O489 O 0.29702 0.32886 0.80885 0.0
O490 O 0.26587 0.24606 0.77104 0.0
O491 O 0.23971 0.28939 0.76796 0.0
O492 O 0.24523 0.30417 0.82891 0.0
O493 O 0.27348 0.29493 0.86822 0.0
O494 O 0.31423 0.24679 0.85319 0.0
O495 O 0.2731 0.24728 0.83786 0.0
C496 C 0.33711 0.26161 0.77807 0.0
O497 O 0.31655 0.31647 0.87231 0.0
O498 O 0.35064 0.28046 0.85845 0.0
C499 C 0.29264 0.33002 0.77925 0.0
C500 C 0.22023 0.25436 0.75967 0.0
C501 C 0.17809 0.23119 0.75429 0.0
C502 C 0.18511 0.25005 0.73023 0.0
C503 C 0.20595 0.2615 0.73295 0.0
C504 C 0.21284 0.23626 0.78429 0.0
C505 C 0.1919 0.22474 0.7816 0.0
C506 C 0.24422 0.26411 0.75968 0.0
C507 C 0.24888 0.30449 0.85846 0.0
H508 H 0.40258 0.33688 0.91491 0.0
H509 H 0.37322 0.30662 0.91813 0.0
H510 H 0.35272 0.33759 0.82392 0.0
H511 H 0.38159 0.36848 0.82066 0.0
H512 H 0.17529 0.25514 0.70866 0.0
H513 H 0.21155 0.27526 0.71362 0.0
H514 H 0.22368 0.2305 0.80516 0.0
H515 H 0.18678 0.21052 0.80068 0.0
Tb516 Tb 0.8155 0.30872 0.84742 0.0
Tb517 Tb 0.78974 0.28471 0.79283 0.0
C518 C 0.75351 0.33439 0.83312 0.0
C519 C 0.85842 0.31381 0.90997 0.0
C520 C 0.90145 0.29783 0.94988 0.0
C521 C 0.87681 0.31953 0.95697 0.0
C522 C 0.85564 0.32743 0.93723 0.0
C523 C 0.8824 0.29123 0.90348 0.0
C524 C 0.90367 0.2833 0.92325 0.0
C525 C 0.83746 0.32538 0.8873 0.0
O526 O 0.79654 0.27772 0.87141 0.0
O527 O 0.79884 0.25144 0.83051 0.0
O528 O 0.83453 0.26431 0.7873 0.0
O529 O 0.84587 0.2692 0.83581 0.0
O530 O 0.76216 0.26487 0.78255 0.0
O531 O 0.78875 0.27893 0.74546 0.0
O532 O 0.78991 0.32702 0.77547 0.0
O533 O 0.82487 0.32915 0.80173 0.0
O534 O 0.77534 0.33959 0.84041 0.0
O535 O 0.75524 0.31048 0.8222 0.0
C536 C 0.79739 0.25408 0.86063 0.0
O537 O 0.84647 0.32395 0.85765 0.0
O538 O 0.8142 0.3197 0.89354 0.0
C539 C 0.85147 0.25684 0.80952 0.0
C540 C 0.74612 0.27666 0.73209 0.0
C541 C 0.70094 0.28946 0.69596 0.0
C542 C 0.72394 0.26545 0.69136 0.0
C543 C 0.74621 0.25918 0.70919 0.0
C544 C 0.72366 0.30118 0.73627 0.0
C545 C 0.70128 0.3076 0.71822 0.0
C546 C 0.76893 0.26758 0.75233 0.0
C547 C 0.80782 0.33932 0.78008 0.0
H548 H 0.87404 0.33083 0.97757 0.0
H549 H 0.83738 0.34486 0.94278 0.0
H550 H 0.88512 0.28035 0.88256 0.0
H551 H 0.92231 0.26661 0.91689 0.0
H552 H 0.72464 0.25127 0.6741 0.0
H553 H 0.76333 0.2402 0.70553 0.0
H554 H 0.72315 0.31495 0.75391 0.0
H555 H 0.68388 0.32619 0.72242 0.0
Tb556 Tb 0.80716 0.80534 0.79057 0.0
Tb557 Tb 0.77186 0.77332 0.844 0.0
C558 C 0.74621 0.80611 0.78189 0.0
C559 C 0.84986 0.85041 0.74914 0.0
C560 C 0.88016 0.8893 0.73917 0.0
C561 C 0.85458 0.89579 0.72718 0.0
C562 C 0.83971 0.87653 0.73197 0.0
C563 C 0.87489 0.84428 0.76231 0.0
C564 C 0.88986 0.86358 0.75741 0.0
C565 C 0.83505 0.82933 0.7508 0.0
O566 O 0.7842 0.83748 0.82189 0.0
O567 O 0.77249 0.81018 0.86524 0.0
O568 O 0.81545 0.7565 0.85089 0.0
O569 O 0.82955 0.79461 0.83211 0.0
O570 O 0.73641 0.77298 0.87472 0.0
O571 O 0.77315 0.73705 0.87418 0.0
O572 O 0.77973 0.74992 0.80303 0.0
O573 O 0.81756 0.76178 0.77865 0.0
O574 O 0.77027 0.80817 0.76907 0.0
O575 O 0.74197 0.79664 0.81139 0.0
C576 C 0.77527 0.83419 0.85171 0.0
O577 O 0.84539 0.80477 0.76587 0.0
O578 O 0.8083 0.83857 0.75625 0.0
C579 C 0.83261 0.77108 0.8502 0.0
C580 C 0.73086 0.7277 0.88639 0.0
C581 C 0.70311 0.68697 0.89223 0.0
C582 C 0.69981 0.7043 0.91659 0.0
C583 C 0.71365 0.72442 0.9137 0.0
C584 C 0.73344 0.71122 0.86149 0.0
C585 C 0.71974 0.69094 0.86444 0.0
C586 C 0.74743 0.74686 0.88529 0.0
C587 C 0.80129 0.7458 0.78203 0.0
H588 H 0.84625 0.91561 0.71351 0.0
H589 H 0.82053 0.88182 0.72152 0.0
H590 H 0.88332 0.82429 0.77562 0.0
H591 H 0.90956 0.85783 0.76679 0.0
H592 H 0.68733 0.70161 0.93836 0.0
H593 H 0.7115 0.73691 0.93317 0.0
H594 H 0.74655 0.71354 0.84012 0.0
H595 H 0.72237 0.67819 0.84509 0.0
H596 H 0.09788 0.12157 0.41958 0.0
H597 H 0.14856 0.05237 0.3658 0.0
H598 H 0.18593 0.07409 0.35722 0.0
H599 H 0.11901 0.17603 0.3733 0.0
H600 H 0.11881 0.19481 0.40634 0.0
H601 H 0.09612 0.17372 0.40836 0.0
H602 H 0.11622 0.14561 0.45884 0.0
H603 H 0.13892 0.16668 0.45704 0.0
H604 H 0.15286 0.12884 0.45835 0.0
H605 H 0.21753 0.10408 0.35365 0.0
H606 H 0.24131 0.13912 0.35689 0.0
H607 H 0.17016 0.18782 0.41411 0.0
C608 C 0.11689 0.11065 0.40635 0.0
C609 C 0.12009 0.08517 0.39333 0.0
C610 C 0.14533 0.07205 0.37569 0.0
C611 C 0.16677 0.08416 0.37082 0.0
C612 C 0.16277 0.10935 0.38385 0.0
C613 C 0.1385 0.12235 0.40139 0.0
C614 C 0.13932 0.14933 0.41281 0.0
C615 C 0.11699 0.17499 0.39939 0.0
C616 C 0.13668 0.14749 0.4489 0.0
C617 C 0.16785 0.14952 0.3989 0.0
C618 C 0.18104 0.12635 0.38218 0.0
C619 C 0.20742 0.12226 0.36676 0.0
C620 C 0.22069 0.14235 0.36859 0.0
C621 C 0.20761 0.16616 0.38581 0.0
C622 C 0.18084 0.16966 0.40112 0.0
H623 H 0.94708 0.07862 0.33121 0.0
H624 H 1.01366 0.11389 0.33201 0.0
H625 H 0.98103 0.16176 0.32563 0.0
H626 H 0.90949 0.13404 0.27245 0.0
H627 H 0.87632 0.13352 0.29172 0.0
H628 H 0.90542 0.10193 0.29309 0.0
H629 H 0.89744 0.09785 0.35385 0.0
H630 H 0.86861 0.12958 0.35272 0.0
H631 H 0.89674 0.12696 0.37485 0.0
H632 H 0.94055 0.20529 0.32754 0.0
H633 H 0.89526 0.2423 0.33019 0.0
H634 H 0.85494 0.1799 0.32383 0.0
C635 C 0.9549 0.09641 0.32925 0.0
C636 C 0.98297 0.09244 0.33213 0.0
C637 C 0.99234 0.1163 0.32965 0.0
C638 C 0.97392 0.14363 0.32614 0.0
C639 C 0.94627 0.14682 0.32447 0.0
C640 C 0.93684 0.12391 0.32517 0.0
C641 C 0.9059 0.13328 0.32379 0.0
C642 C 0.89887 0.12521 0.29345 0.0
C643 C 0.89133 0.1212 0.35305 0.0
C644 C 0.8993 0.16495 0.32346 0.0
C645 C 0.92294 0.17225 0.32397 0.0
C646 C 0.92199 0.19992 0.32643 0.0
C647 C 0.89624 0.22073 0.32815 0.0
C648 C 0.8719 0.2138 0.32697 0.0
C649 C 0.87342 0.18565 0.3243 0.0
H650 H 0.98207 0.96982 0.37241 0.0
H651 H 0.02674 0.92853 0.45228 0.0
H652 H 1.00957 0.88789 0.45237 0.0
H653 H 0.92238 0.94882 0.39818 0.0
H654 H 0.91619 0.94414 0.35938 0.0
H655 H 0.93345 0.96904 0.36446 0.0
H656 H 0.97453 0.94408 0.32567 0.0
H657 H 0.95745 0.91896 0.32063 0.0
H658 H 0.99167 0.90687 0.33298 0.0
H659 H 0.98725 0.85222 0.44412 0.0
H660 H 0.95824 0.8254 0.43109 0.0
H661 H 0.92633 0.89088 0.35789 0.0
C662 C 0.98843 0.95205 0.38965 0.0
C663 C 1.00578 0.95217 0.41228 0.0
C664 C 1.01329 0.92886 0.43493 0.0
C665 C 1.00384 0.90564 0.43497 0.0
C666 C 0.98675 0.90617 0.41232 0.0
C667 C 0.9789 0.92886 0.39025 0.0
C668 C 0.95905 0.92485 0.36969 0.0
C669 C 0.93111 0.94808 0.37316 0.0
C670 C 0.97142 0.92361 0.3352 0.0
C671 C 0.95679 0.89646 0.38385 0.0
C672 C 0.97322 0.88592 0.40813 0.0
C673 C 0.97424 0.86028 0.42521 0.0
C674 C 0.95757 0.84529 0.41772 0.0
C675 C 0.93983 0.8561 0.39362 0.0
C676 C 0.93989 0.88183 0.37616 0.0
H677 H 0.14326 0.95091 0.38585 0.0
H678 H 0.10235 0.96468 0.30111 0.0
H679 H 0.13734 0.92185 0.2813 0.0
H680 H 0.21178 0.92823 0.34897 0.0
H681 H 0.2243 0.90302 0.38131 0.0
H682 H 0.1955 0.93399 0.38833 0.0
H683 H 0.16635 0.90238 0.41538 0.0
H684 H 0.19498 0.87127 0.40799 0.0
H685 H 0.16226 0.87545 0.39429 0.0
H686 H 0.17799 0.87656 0.27131 0.0
H687 H 0.222 0.83733 0.26985 0.0
H688 H 0.23489 0.85508 0.36138 0.0
C689 C 0.14151 0.94499 0.36312 0.0
C690 C 0.11999 0.96109 0.34507 0.0
C691 C 0.11872 0.95269 0.3153 0.0
C692 C 0.13839 0.92829 0.304 0.0
C693 C 0.15917 0.91267 0.32273 0.0
C694 C 0.16089 0.92099 0.35153 0.0
C695 C 0.18561 0.90159 0.36683 0.0
C696 C 0.20547 0.91767 0.37162 0.0
C697 C 0.17676 0.8868 0.39796 0.0
C698 C 0.19783 0.88103 0.3421 0.0
C699 C 0.18226 0.88739 0.31692 0.0
C700 C 0.19022 0.87141 0.291 0.0
C701 C 0.21511 0.84902 0.29046 0.0
C702 C 0.23181 0.84311 0.31554 0.0
C703 C 0.22256 0.859 0.34188 0.0
H704 H 0.13313 0.94868 0.74084 0.0
H705 H 0.12035 1.00129 0.81732 0.0
H706 H 0.16234 0.9682 0.83899 0.0
H707 H 0.15565 0.88247 0.78729 0.0
H708 H 0.17993 0.86558 0.75606 0.0
H709 H 0.14948 0.89385 0.74689 0.0
H710 H 0.17993 0.92086 0.71262 0.0
H711 H 0.2105 0.89281 0.72203 0.0
H712 H 0.20657 0.92838 0.72975 0.0
H713 H 0.20752 0.92909 0.85087 0.0
H714 H 0.24722 0.88555 0.85551 0.0
H715 H 0.22803 0.85845 0.77219 0.0
C716 C 0.13912 0.95332 0.76217 0.0
C717 C 0.12357 0.97769 0.7773 0.0
C718 C 0.13192 0.98271 0.8054 0.0
C719 C 0.15584 0.96412 0.81772 0.0
C720 C 0.17093 0.94045 0.80187 0.0
C721 C 0.16253 0.93486 0.77495 0.0
C722 C 0.18141 0.90752 0.76288 0.0
C723 C 0.16568 0.88609 0.76332 0.0
C724 C 0.19543 0.91272 0.72987 0.0
C725 C 0.20195 0.8985 0.78707 0.0
C726 C 0.19589 0.91784 0.8092 0.0
C727 C 0.2123 0.91383 0.83369 0.0
C728 C 0.23497 0.88913 0.836 0.0
C729 C 0.24079 0.86858 0.81421 0.0
C730 C 0.22417 0.8737 0.78926 0.0
H731 H 0.12417 0.10007 0.74627 0.0
H732 H 0.05952 0.15701 0.69354 0.0
H733 H 0.07556 0.19687 0.70102 0.0
H734 H 0.12316 0.14822 0.80299 0.0
H735 H 0.16003 0.13644 0.80357 0.0
H736 H 0.14274 0.1125 0.79536 0.0
H737 H 0.17397 0.10289 0.74297 0.0
H738 H 0.19149 0.12659 0.75116 0.0
H739 H 0.17596 0.13211 0.71492 0.0
H740 H 0.09861 0.23037 0.71399 0.0
H741 H 0.12957 0.25479 0.72757 0.0
H742 H 0.18056 0.17576 0.77008 0.0
C743 C 0.11334 0.12099 0.73654 0.0
C744 C 0.09064 0.12552 0.71932 0.0
C745 C 0.07715 0.15307 0.70648 0.0
C746 C 0.08594 0.17585 0.71087 0.0
C747 C 0.10836 0.1707 0.72801 0.0
C748 C 0.12206 0.14393 0.74039 0.0
C749 C 0.14647 0.14393 0.75642 0.0
C750 C 0.14287 0.13473 0.79168 0.0
C751 C 0.17357 0.12528 0.7404 0.0
C752 C 0.14445 0.17485 0.7509 0.0
C753 C 0.12211 0.18995 0.73482 0.0
C754 C 0.11622 0.21877 0.72651 0.0
C755 C 0.13401 0.23242 0.7342 0.0
C756 C 0.15761 0.21721 0.74974 0.0
C757 C 0.16251 0.18811 0.75862 0.0
H758 H 0.95134 0.1138 0.74166 0.0
H759 H 0.99877 0.10241 0.82082 0.0
H760 H 0.96601 0.14618 0.84067 0.0
H761 H 0.93593 0.18709 0.72786 0.0
H762 H 0.90136 0.19353 0.7182 0.0
H763 H 0.92709 0.16024 0.71145 0.0
H764 H 0.89612 0.13376 0.74566 0.0
H765 H 0.87009 0.16699 0.75206 0.0
H766 H 0.88319 0.14308 0.78512 0.0
H767 H 0.92992 0.19297 0.84969 0.0
H768 H 0.89148 0.23719 0.84981 0.0
H769 H 0.86713 0.2181 0.76471 0.0
C770 C 0.95468 0.12024 0.76344 0.0
C771 C 0.9777 0.10459 0.7797 0.0
C772 C 0.98125 0.11387 0.80806 0.0
C773 C 0.9628 0.13879 0.81943 0.0
C774 C 0.94077 0.15407 0.80232 0.0
C775 C 0.93641 0.14493 0.77518 0.0
C776 C 0.91144 0.16544 0.7609 0.0
C777 C 0.91945 0.17727 0.72763 0.0
C778 C 0.88887 0.15148 0.76095 0.0
C779 C 0.9028 0.18801 0.78378 0.0
C780 C 0.91993 0.18095 0.80757 0.0
C781 C 0.9163 0.19858 0.83128 0.0
C782 C 0.89439 0.22381 0.831 0.0
C783 C 0.87617 0.2314 0.80716 0.0
C784 C 0.88071 0.21319 0.78312 0.0
H785 H 0.98863 0.96793 0.76248 0.0
H786 H 0.98557 0.9979 0.66388 0.0
H787 H 0.9504 0.97508 0.66033 0.0
H788 H 0.98245 0.90064 0.75481 0.0
H789 H 0.96111 0.89905 0.79131 0.0
H790 H 0.98485 0.91921 0.78693 0.0
H791 H 0.94488 0.96363 0.80204 0.0
H792 H 0.92101 0.94357 0.8066 0.0
H793 H 0.91506 0.97533 0.78043 0.0
H794 H 0.91726 0.94784 0.66652 0.0
H795 H 0.88809 0.91707 0.68189 0.0
H796 H 0.91183 0.90425 0.7768 0.0
C797 C 0.98021 0.96999 0.74032 0.0
C798 C 0.98986 0.98464 0.71341 0.0
C799 C 0.97871 0.98652 0.68466 0.0
C800 C 0.95861 0.97378 0.68247 0.0
C801 C 0.94984 0.95915 0.70924 0.0
C802 C 0.9602 0.95715 0.73765 0.0
C803 C 0.94792 0.93911 0.76242 0.0
C804 C 0.97043 0.91295 0.77457 0.0
C805 C 0.93122 0.95645 0.78947 0.0
C806 C 0.9293 0.93111 0.74333 0.0
C807 C 0.93063 0.94313 0.71279 0.0
C808 C 0.9158 0.93852 0.69045 0.0
C809 C 0.89913 0.92113 0.6995 0.0
C810 C 0.89737 0.90843 0.73065 0.0
C811 C 0.91274 0.91358 0.75281 0.0
H812 H 0.29202 0.13445 0.20312 0.0
H813 H 0.36966 0.12446 0.14569 0.0
H814 H 0.38244 0.15306 0.18062 0.0
H815 H 0.27835 0.20446 0.21475 0.0
H816 H 0.26273 0.20194 0.25454 0.0
H817 H 0.26181 0.17779 0.22763 0.0
H818 H 0.28506 0.1355 0.26615 0.0
H819 H 0.28587 0.15966 0.29326 0.0
H820 H 0.31723 0.13352 0.27984 0.0
H821 H 0.38286 0.18906 0.21785 0.0
H822 H 0.37243 0.22558 0.2554 0.0
H823 H 0.29506 0.20937 0.28846 0.0
C824 C 0.31196 0.1378 0.19832 0.0
C825 C 0.32991 0.12737 0.17184 0.0
C826 C 0.35584 0.13209 0.16615 0.0
C827 C 0.36314 0.14838 0.18576 0.0
C828 C 0.34443 0.15924 0.21117 0.0
C829 C 0.31954 0.15368 0.2177 0.0
C830 C 0.30212 0.16904 0.24497 0.0
C831 C 0.27465 0.18951 0.23485 0.0
C832 C 0.2973 0.14818 0.2727 0.0
C833 C 0.32073 0.18473 0.25243 0.0
C834 C 0.34506 0.17896 0.23283 0.0
C835 C 0.36416 0.19321 0.23376 0.0
C836 C 0.35805 0.21395 0.2551 0.0
C837 C 0.33314 0.22007 0.27523 0.0
C838 C 0.31461 0.20482 0.27402 0.0
H839 H 0.97316 0.34358 0.22552 0.0
H840 H 0.97509 0.31009 0.13717 0.0
H841 H 0.9314 0.29987 0.15584 0.0
H842 H 0.94844 0.29168 0.27358 0.0
H843 H 0.92723 0.31569 0.30136 0.0
H844 H 0.95755 0.32213 0.28018 0.0
H845 H 0.92797 0.37181 0.25976 0.0
H846 H 0.89754 0.36546 0.28086 0.0
H847 H 0.89868 0.37531 0.23918 0.0
H848 H 0.88746 0.29276 0.18466 0.0
H849 H 0.84887 0.28627 0.22247 0.0
H850 H 0.87665 0.32249 0.29297 0.0
C851 C 0.96413 0.33444 0.21004 0.0
C852 C 0.97741 0.32775 0.17983 0.0
C853 C 0.96531 0.31525 0.16043 0.0
C854 C 0.94043 0.30951 0.17079 0.0
C855 C 0.92794 0.31613 0.20079 0.0
C856 C 0.93949 0.32812 0.22025 0.0
C857 C 0.92276 0.33164 0.2521 0.0
C858 C 0.94003 0.31424 0.27835 0.0
C859 C 0.91104 0.36292 0.25833 0.0
C860 C 0.90006 0.31974 0.24754 0.0
C861 C 0.90321 0.3112 0.21768 0.0
C862 C 0.8848 0.2994 0.20811 0.0
C863 C 0.86285 0.29589 0.22974 0.0
C864 C 0.8596 0.30383 0.26077 0.0
C865 C 0.87846 0.31613 0.26949 0.0
H866 H 0.84965 0.89656 0.11134 0.0
H867 H 0.80526 0.98037 0.13939 0.0
H868 H 0.79518 0.9602 0.19312 0.0
H869 H 0.80437 0.8628 0.15415 0.0
H870 H 0.83059 0.83074 0.16534 0.0
H871 H 0.83645 0.85161 0.12958 0.0
H872 H 0.88098 0.85471 0.14813 0.0
H873 H 0.87549 0.8339 0.18407 0.0
H874 H 0.87954 0.86796 0.1855 0.0
H875 H 0.78765 0.93046 0.24328 0.0
H876 H 0.7847 0.89305 0.286 0.0
H877 H 0.83387 0.82941 0.22472 0.0
C878 C 0.83833 0.91068 0.12896 0.0
C879 C 0.82818 0.94001 0.12119 0.0
C880 C 0.81295 0.95779 0.14477 0.0
C881 C 0.80725 0.94656 0.17539 0.0
C882 C 0.81699 0.91749 0.18211 0.0
C883 C 0.83238 0.8998 0.15962 0.0
C884 C 0.8394 0.86924 0.1725 0.0
C885 C 0.82696 0.85263 0.1543 0.0
C886 C 0.87072 0.85567 0.17253 0.0
C887 C 0.82534 0.87251 0.20554 0.0
C888 C 0.81258 0.90047 0.21079 0.0
C889 C 0.79772 0.90849 0.23951 0.0
C890 C 0.79603 0.88727 0.26352 0.0
C891 C 0.80903 0.85867 0.25831 0.0
C892 C 0.82382 0.85125 0.2291 0.0
H893 H 0.11361 0.71571 0.13103 0.0
H894 H 0.14492 0.71537 0.03239 0.0
H895 H 0.18608 0.72528 0.045 0.0
H896 H 0.13402 0.77177 0.14736 0.0
H897 H 0.14344 0.7573 0.1861 0.0
H898 H 0.11751 0.74787 0.1699 0.0
H899 H 0.14504 0.6949 0.17829 0.0
H900 H 0.17081 0.70411 0.19512 0.0
H901 H 0.1806 0.68273 0.16233 0.0
H902 H 0.22223 0.73864 0.06811 0.0
H903 H 0.25214 0.75099 0.10037 0.0
H904 H 0.19735 0.74138 0.18386 0.0
C905 C 0.12942 0.71683 0.11212 0.0
C906 C 0.12595 0.71465 0.08067 0.0
C907 C 0.14699 0.71709 0.05663 0.0
C908 C 0.17046 0.72271 0.06357 0.0
C909 C 0.17272 0.72563 0.0947 0.0
C910 C 0.15294 0.72241 0.11863 0.0
C911 C 0.15977 0.72751 0.14998 0.0
C912 C 0.13735 0.7526 0.16415 0.0
C913 C 0.16433 0.70071 0.17277 0.0
C914 C 0.18635 0.73439 0.13993 0.0
C915 C 0.19351 0.73321 0.10797 0.0
C916 C 0.217 0.73929 0.09322 0.0
C917 C 0.23387 0.74626 0.11175 0.0
C918 C 0.22717 0.74713 0.14469 0.0
C919 C 0.20293 0.74127 0.15875 0.0
H920 H 0.38225 0.95178 0.0683 0.0
H921 H 0.4156 1.00186 0.99442 0.0
H922 H 0.41871 0.96736 0.95676 0.0
H923 H 0.41985 0.88018 0.03866 0.0
H924 H 0.38992 0.86872 0.0504 0.0
H925 H 0.39682 0.89341 0.07253 0.0
H926 H 0.34817 0.92799 0.06508 0.0
H927 H 0.34122 0.90381 0.04252 0.0
H928 H 0.33817 0.93927 0.02591 0.0
H929 H 0.40932 0.93261 0.92548 0.0
H930 H 0.39173 0.89888 0.90429 0.0
H931 H 0.36297 0.87298 0.99892 0.0
C932 C 0.39128 0.95479 0.04447 0.0
C933 C 0.3989 0.97928 0.03427 0.0
C934 C 0.41018 0.98294 1.00283 0.0
C935 C 0.4118 0.96354 0.98126 0.0
C936 C 0.40239 0.94049 0.9917 0.0
C937 C 0.39282 0.9358 0.02279 0.0
C938 C 0.3808 0.91161 0.02755 0.0
C939 C 0.39788 0.88702 0.04852 0.0
C940 C 0.3503 0.92127 0.04103 0.0
C941 C 0.38394 0.90416 0.99406 0.0
C942 C 0.39676 0.92073 0.97372 0.0
C943 C 0.3998 0.91913 0.9413 0.0
C944 C 0.38952 0.90011 0.92944 0.0
C945 C 0.37622 0.88307 0.94994 0.0
C946 C 0.37371 0.8851 0.98266 0.0
H947 H 0.16454 0.31303 0.02945 0.0
H948 H 0.0979 0.37864 0.98827 0.0
H949 H 0.12509 0.37429 0.93621 0.0
H950 H 0.21951 0.33507 0.98342 0.0
H951 H 0.24222 0.29964 0.97997 0.0
H952 H 0.21721 0.30753 1.01372 0.0
H953 H 0.19749 0.26878 1.00235 0.0
H954 H 0.22238 0.26085 0.9685 0.0
H955 H 0.18617 0.26989 0.96432 0.0
H956 H 0.15904 0.36098 0.88782 0.0
H957 H 0.19867 0.34318 0.8483 0.0
H958 H 0.24439 0.28856 0.92164 0.0
C959 C 0.15572 0.32642 1.00942 0.0
C960 C 0.12906 0.34616 1.01289 0.0
C961 C 0.11833 0.36357 0.98621 0.0
C962 C 0.13357 0.3611 0.95651 0.0
C963 C 0.15975 0.34138 0.95385 0.0
C964 C 0.1709 0.32459 0.97968 0.0
C965 C 0.19985 0.30575 0.97067 0.0
C966 C 0.22094 0.3124 0.98797 0.0
C967 C 0.20156 0.27447 0.97683 0.0
C968 C 0.20319 0.31443 0.93574 0.0
C969 C 0.17971 0.33474 0.92638 0.0
C970 C 0.17762 0.34527 0.89498 0.0
C971 C 0.20019 0.33498 0.87265 0.0
C972 C 0.22473 0.31473 0.88188 0.0
C973 C 0.22608 0.30437 0.91389 0.0
H974 H 0.84604 0.08876 0.91025 0.0
H975 H 0.81 0.10835 1.00461 0.0
H976 H 0.79888 0.15923 0.98801 0.0
H977 H 0.87421 0.14927 0.89105 0.0
H978 H 0.86579 0.15453 0.85108 0.0
H979 H 0.87416 0.11973 0.87132 0.0
H980 H 0.82775 0.1154 0.85941 0.0
H981 H 0.81916 0.15027 0.8395 0.0
H982 H 0.79604 0.14171 0.87158 0.0
H983 H 0.78924 0.20778 0.96066 0.0
H984 H 0.78153 0.25091 0.92394 0.0
H985 H 0.82176 0.19963 0.84687 0.0
C986 C 0.83651 0.10387 0.92745 0.0
C987 C 0.82898 0.09485 0.95868 0.0
C988 C 0.81585 0.11504 0.98056 0.0
C989 C 0.80956 0.1439 0.97138 0.0
C990 C 0.81647 0.15222 0.94019 0.0
C991 C 0.82977 0.13285 0.91854 0.0
C992 C 0.83301 0.14745 0.88598 0.0
C993 C 0.86361 0.14245 0.87418 0.0
C994 C 0.81809 0.13815 0.86276 0.0
C995 C 0.81886 0.17786 0.89269 0.0
C996 C 0.80987 0.18021 0.92415 0.0
C997 C 0.79623 0.20624 0.93594 0.0
C998 C 0.79185 0.23058 0.91496 0.0
C999 C 0.80066 0.22855 0.88258 0.0
C1000 C 0.8143 0.20181 0.87143 0.0
H1001 H 0.95962 0.7745 0.93879 0.0
H1002 H 0.96575 0.68864 0.97576 0.0
H1003 H 0.92651 0.69047 0.94789 0.0
H1004 H 0.88447 0.80061 0.94255 0.0
H1005 H 0.88397 0.82274 0.90624 0.0
H1006 H 0.91222 0.81527 0.92978 0.0
H1007 H 0.9466 0.7964 0.882 0.0
H1008 H 0.91843 0.8037 0.85839 0.0
H1009 H 0.94248 0.76869 0.86222 0.0
H1010 H 0.88715 0.70085 0.91629 0.0
H1011 H 0.84962 0.7192 0.88217 0.0
H1012 H 0.8682 0.79848 0.86383 0.0
C1013 C 0.95248 0.75624 0.94119 0.0
C1014 C 0.96594 0.73132 0.95938 0.0
C1015 C 0.95613 0.70777 0.96166 0.0
C1016 C 0.93372 0.70865 0.94603 0.0
C1017 C 0.92119 0.73325 0.928 0.0
C1018 C 0.9301 0.75668 0.92541 0.0
C1019 C 0.91307 0.78019 0.90381 0.0
C1020 C 0.89751 0.80625 0.92167 0.0
C1021 C 0.93123 0.78768 0.87489 0.0
C1022 C 0.89333 0.76621 0.89475 0.0
C1023 C 0.89841 0.73918 0.90917 0.0
C1024 C 0.88295 0.72199 0.90484 0.0
C1025 C 0.86162 0.73266 0.88535 0.0
C1026 C 0.85588 0.76029 0.87014 0.0
C1027 C 0.87212 0.77722 0.87491 0.0
H1028 H 0.11781 0.31104 0.22694 0.0
H1029 H 0.16316 0.27072 0.14421 0.0
H1030 H 0.20691 0.26289 0.16705 0.0
H1031 H 0.1627 0.34763 0.23766 0.0
H1032 H 0.15926 0.34283 0.27996 0.0
H1033 H 0.13155 0.34286 0.25865 0.0
H1034 H 0.13234 0.29376 0.28594 0.0
H1035 H 0.15988 0.29371 0.30765 0.0
H1036 H 0.16413 0.26507 0.28418 0.0
H1037 H 0.24596 0.26421 0.19671 0.0
H1038 H 0.2768 0.27099 0.23199 0.0
H1039 H 0.20617 0.30883 0.2968 0.0
C1040 C 0.1369 0.30004 0.21381 0.0
C1041 C 0.13691 0.29141 0.18367 0.0
C1042 C 0.16246 0.27727 0.16737 0.0
C1043 C 0.18745 0.27287 0.18015 0.0
C1044 C 0.18666 0.28238 0.2095 0.0
C1045 C 0.16196 0.29524 0.22637 0.0
C1046 C 0.16669 0.30421 0.25702 0.0
C1047 C 0.15432 0.33628 0.25838 0.0
C1048 C 0.15507 0.28823 0.28538 0.0
C1049 C 0.19795 0.29514 0.25446 0.0
C1050 C 0.20905 0.28258 0.22685 0.0
C1051 C 0.2374 0.27379 0.21846 0.0
C1052 C 0.25478 0.27795 0.23862 0.0
C1053 C 0.24399 0.2906 0.26718 0.0
C1054 C 0.21512 0.29897 0.27528 0.0
H1055 H 0.12109 0.8017 1.00684 0.0
H1056 H 0.07852 0.77586 0.94153 0.0
H1057 H 0.11876 0.77082 0.90205 0.0
H1058 H 0.15553 0.84209 0.94777 0.0
H1059 H 0.18673 0.83145 0.96689 0.0
H1060 H 0.15416 0.83407 0.98977 0.0
H1061 H 0.17364 0.78233 1.01269 0.0
H1062 H 0.20616 0.77945 0.98964 0.0
H1063 H 0.18792 0.75491 0.98636 0.0
H1064 H 0.16486 0.76489 0.87086 0.0
H1065 H 0.21154 0.76374 0.84765 0.0
H1066 H 0.22466 0.79575 0.93121 0.0
C1067 C 0.11998 0.79549 0.98404 0.0
C1068 C 0.09629 0.78931 0.97746 0.0
C1069 C 0.0961 0.78091 0.94732 0.0
C1070 C 0.11902 0.77783 0.92469 0.0
C1071 C 0.14216 0.78342 0.9322 0.0
C1072 C 0.14271 0.79252 0.96094 0.0
C1073 C 0.17033 0.797 0.96289 0.0
C1074 C 0.16645 0.828 0.96707 0.0
C1075 C 0.1854 0.77725 0.98947 0.0
C1076 C 0.18523 0.78894 0.93078 0.0
C1077 C 0.1686 0.78084 0.9137 0.0
C1078 C 0.17792 0.77146 0.88392 0.0
C1079 C 0.20467 0.77071 0.87098 0.0
C1080 C 0.22202 0.77964 0.88743 0.0
C1081 C 0.21199 0.78888 0.91787 0.0
H1082 H 0.34119 0.13135 1.00555 0.0
H1083 H 0.27351 0.0982 1.00292 0.0
H1084 H 0.26075 0.12965 0.95437 0.0
H1085 H 0.3064 0.20236 0.98125 0.0
H1086 H 0.33649 0.20834 0.95882 0.0
H1087 H 0.34025 0.18263 0.99225 0.0
H1088 H 0.37227 0.14436 0.95726 0.0
H1089 H 0.36859 0.16996 0.92368 0.0
H1090 H 0.36032 0.13792 0.92237 0.0
H1091 H 0.25493 0.16729 0.90625 0.0
H1092 H 0.2569 0.20549 0.8646 0.0
H1093 H 0.32914 0.21221 0.90028 0.0
C1094 C 0.32368 0.13043 0.99488 0.0
C1095 C 0.30833 0.11219 1.00823 0.0
C1096 C 0.28564 0.11188 0.99318 0.0
C1097 C 0.27827 0.12973 0.96561 0.0
C1098 C 0.29386 0.14762 0.95332 0.0
C1099 C 0.31617 0.14788 0.96761 0.0
C1100 C 0.32957 0.16911 0.95058 0.0
C1101 C 0.32807 0.19196 0.972 0.0
C1102 C 0.35945 0.15445 0.93771 0.0
C1103 C 0.31134 0.18105 0.9243 0.0
C1104 C 0.29079 0.16853 0.92613 0.0
C1105 C 0.27109 0.17698 0.90464 0.0
C1106 C 0.2724 0.19874 0.881 0.0
C1107 C 0.2933 0.21186 0.87886 0.0
C1108 C 0.31304 0.20256 0.90085 0.0
H1109 H 1.00137 0.33984 0.04606 0.0
H1110 H 0.04734 0.25152 0.06372 0.0
H1111 H 1.01586 0.23889 0.03318 0.0
H1112 H 0.9349 0.3314 0.05436 0.0
H1113 H 0.92242 0.3591 0.02418 0.0
H1114 H 0.94895 0.36039 0.0466 0.0
H1115 H 0.98063 0.36412 0.9952 0.0
H1116 H 0.95417 0.36299 0.97257 0.0
H1117 H 0.98806 0.33779 0.96771 0.0
H1118 H 0.97769 0.23717 0.99942 0.0
H1119 H 0.9382 0.24616 0.96823 0.0
H1120 H 0.91896 0.33592 0.97469 0.0
C1121 C 1.00516 0.31772 0.04359 0.0
C1122 C 0.02707 0.29666 0.05729 0.0
C1123 C 0.03082 0.26806 0.05339 0.0
C1124 C 1.01298 0.26075 0.03609 0.0
C1125 C 0.99149 0.28229 0.02302 0.0
C1126 C 0.98767 0.31019 0.02678 0.0
C1127 C 0.96315 0.32973 1.01118 0.0
C1128 C 0.94105 0.34611 0.03553 0.0
C1129 C 0.97204 0.34983 0.98512 0.0
C1130 C 0.95351 0.30864 0.99771 0.0
C1131 C 0.96998 0.28133 1.00459 0.0
C1132 C 0.96478 0.25852 0.99406 0.0
C1133 C 0.94233 0.26385 0.9762 0.0
C1134 C 0.92517 0.29177 0.96911 0.0
C1135 C 0.93115 0.31427 0.98011 0.0
H1136 H 0.81366 0.95757 0.9144 0.0
H1137 H 0.75149 0.95817 0.99317 0.0
H1138 H 0.73721 0.92335 0.96933 0.0
H1139 H 0.77332 0.94978 0.85366 0.0
H1140 H 0.80323 0.92722 0.83254 0.0
H1141 H 0.80674 0.95377 0.85467 0.0
H1142 H 0.84309 0.91546 0.88555 0.0
H1143 H 0.83956 0.88884 0.86365 0.0
H1144 H 0.83439 0.88542 0.90595 0.0
H1145 H 0.73399 0.88382 0.93971 0.0
H1146 H 0.73927 0.84646 0.90477 0.0
H1147 H 0.80176 0.87411 0.84418 0.0
C1148 C 0.79669 0.95079 0.92642 0.0
C1149 C 0.78366 0.96063 0.95568 0.0
C1150 C 0.76161 0.95113 0.97064 0.0
C1151 C 0.75345 0.93126 0.9573 0.0
C1152 C 0.76725 0.92147 0.92878 0.0
C1153 C 0.78812 0.9313 0.91329 0.0
C1154 C 0.80035 0.91688 0.88347 0.0
C1155 C 0.79561 0.93819 0.85436 0.0
C1156 C 0.83116 0.90069 0.88476 0.0
C1157 C 0.78352 0.89692 0.88484 0.0
C1158 C 0.7646 0.89973 0.9112 0.0
C1159 C 0.74833 0.88188 0.91868 0.0
C1160 C 0.75151 0.86068 0.89878 0.0
C1161 C 0.77055 0.85772 0.87149 0.0
C1162 C 0.78649 0.87633 0.8644 0.0
H1163 H 0.93766 0.75756 0.09337 0.0
H1164 H 0.99745 0.79233 0.12008 0.0
H1165 H 0.97148 0.79886 0.17292 0.0
H1166 H 0.87774 0.80436 0.13549 0.0
H1167 H 0.86082 0.77777 0.14675 0.0
H1168 H 0.88333 0.77635 0.11075 0.0
H1169 H 0.91292 0.72614 0.12789 0.0
H1170 H 0.89056 0.72647 0.16384 0.0
H1171 H 0.92703 0.71912 0.16517 0.0
H1172 H 0.94066 0.79702 0.22512 0.0
H1173 H 0.90526 0.79292 0.2688 0.0
H1174 H 0.86453 0.76153 0.20659 0.0
C1175 C 0.94509 0.76703 0.11012 0.0
C1176 C 0.96964 0.77452 0.10244 0.0
C1177 C 0.97858 0.78675 0.12517 0.0
C1178 C 0.96404 0.7903 0.15537 0.0
C1179 C 0.94035 0.78187 0.16241 0.0
C1180 C 0.93068 0.77102 0.14011 0.0
C1181 C 0.90474 0.7636 0.15329 0.0
C1182 C 0.88018 0.78159 0.13554 0.0
C1183 C 0.90909 0.73195 0.1525 0.0
C1184 C 0.9015 0.77141 0.18677 0.0
C1185 C 0.92236 0.78168 0.19174 0.0
C1186 C 0.92417 0.78921 0.22127 0.0
C1187 C 0.90404 0.78658 0.24609 0.0
C1188 C 0.88206 0.77676 0.24136 0.0
C1189 C 0.88098 0.76911 0.21114 0.0
H1190 H 0.29673 0.95455 0.11353 0.0
H1191 H 0.30176 0.01431 0.17526 0.0
H1192 H 0.30545 0.97816 0.21988 0.0
H1193 H 0.25573 0.91967 0.17158 0.0
H1194 H 0.27323 0.88525 0.15825 0.0
H1195 H 0.26971 0.9162 0.13111 0.0
H1196 H 0.32256 0.90089 0.11708 0.0
H1197 H 0.32631 0.87006 0.14441 0.0
H1198 H 0.34478 0.89435 0.14789 0.0
H1199 H 0.31257 0.93483 0.25713 0.0
H1200 H 0.31767 0.88824 0.28604 0.0
H1201 H 0.30567 0.85614 0.20199 0.0
C1202 C 0.29808 0.96021 0.13653 0.0
C1203 C 0.2989 0.9875 0.14067 0.0
C1204 C 0.30101 0.99375 0.17124 0.0
C1205 C 0.30321 0.97326 0.19684 0.0
C1206 C 0.30302 0.9465 0.19183 0.0
C1207 C 0.30006 0.93997 0.1626 0.0
C1208 C 0.30068 0.90938 0.16383 0.0
C1209 C 0.2732 0.90753 0.15571 0.0
C1210 C 0.32503 0.89269 0.14201 0.0
C1211 C 0.30474 0.89975 0.19821 0.0
C1212 C 0.30626 0.92153 0.21378 0.0
C1213 C 0.3111 0.9177 0.24528 0.0
C1214 C 0.31415 0.89105 0.26149 0.0
C1215 C 0.31202 0.86846 0.24643 0.0
C1216 C 0.30719 0.87301 0.21428 0.0
H1217 H 0.80959 0.05388 0.11683 0.0
H1218 H 0.74905 0.09296 0.05085 0.0
H1219 H 0.7352 0.13723 0.07735 0.0
H1220 H 0.76851 0.0888 0.18582 0.0
H1221 H 0.79855 0.09151 0.20066 0.0
H1222 H 0.8015 0.06273 0.17799 0.0
H1223 H 0.83935 0.07641 0.1396 0.0
H1224 H 0.83615 0.10556 0.16173 0.0
H1225 H 0.83194 0.1116 0.12037 0.0
H1226 H 0.732 0.17866 0.10795 0.0
H1227 H 0.73576 0.21207 0.1431 0.0
H1228 H 0.79713 0.14447 0.19047 0.0
C1229 C 0.79298 0.07158 0.10837 0.0
C1230 C 0.78023 0.07004 0.08193 0.0
C1231 C 0.75873 0.09362 0.07138 0.0
C1232 C 0.75094 0.11887 0.08614 0.0
C1233 C 0.76462 0.11992 0.11161 0.0
C1234 C 0.78481 0.09666 0.12298 0.0
C1235 C 0.79686 0.10322 0.15016 0.0
C1236 C 0.79099 0.08552 0.18045 0.0
C1237 C 0.82791 0.09895 0.14248 0.0
C1238 C 0.78078 0.13407 0.15196 0.0
C1239 C 0.76232 0.14337 0.12953 0.0
C1240 C 0.74602 0.17141 0.12596 0.0
C1241 C 0.74827 0.19024 0.14618 0.0
C1242 C 0.76657 0.18102 0.16996 0.0
C1243 C 0.7831 0.15247 0.17253 0.0
H1244 H 0.58249 0.61721 0.9399 0.0
H1245 H 0.63964 0.53945 0.90739 0.0
H1246 H 0.67651 0.56193 0.8966 0.0
H1247 H 0.60526 0.66276 0.88309 0.0
H1248 H 0.60126 0.6898 0.90873 0.0
H1249 H 0.58001 0.66697 0.91692 0.0
H1250 H 0.59625 0.65226 0.97257 0.0
H1251 H 0.61728 0.67538 0.96472 0.0
H1252 H 0.63259 0.63862 0.97685 0.0
H1253 H 0.70591 0.59403 0.8851 0.0
H1254 H 0.72676 0.63261 0.87699 0.0
H1255 H 0.65043 0.68947 0.91716 0.0
C1256 C 0.60295 0.60464 0.93143 0.0
C1257 C 0.60824 0.5765 0.9246 0.0
C1258 C 0.63515 0.56105 0.91267 0.0
C1259 C 0.6562 0.57363 0.90652 0.0
C1260 C 0.65006 0.60167 0.91258 0.0
C1261 C 0.62419 0.61691 0.9251 0.0
C1262 C 0.62263 0.64712 0.92802 0.0
C1263 C 0.60101 0.66787 0.90799 0.0
C1264 C 0.61685 0.65372 0.9626 0.0
C1265 C 0.65155 0.64658 0.91477 0.0
C1266 C 0.66705 0.62016 0.90602 0.0
C1267 C 0.69405 0.61474 0.89212 0.0
C1268 C 0.70563 0.63685 0.88734 0.0
C1269 C 0.69023 0.66404 0.89645 0.0
C1270 C 0.66282 0.66884 0.91032 0.0
H1271 H 0.45292 0.5957 0.81046 0.0
H1272 H 0.49383 0.61546 0.88202 0.0
H1273 H 0.4547 0.65842 0.89065 0.0
H1274 H 0.42384 0.67026 0.77872 0.0
H1275 H 0.39264 0.66491 0.77029 0.0
H1276 H 0.42442 0.63623 0.76893 0.0
H1277 H 0.40088 0.60582 0.8087 0.0
H1278 H 0.36922 0.63459 0.81064 0.0
H1279 H 0.38496 0.61869 0.84607 0.0
H1280 H 0.409 0.69633 0.89579 0.0
H1281 H 0.36349 0.73167 0.89031 0.0
H1282 H 0.35336 0.69037 0.81228 0.0
C1283 C 0.45384 0.60938 0.82749 0.0
C1284 C 0.47653 0.60218 0.84551 0.0
C1285 C 0.4769 0.62061 0.86765 0.0
C1286 C 0.45462 0.64498 0.87295 0.0
C1287 C 0.43228 0.65108 0.85545 0.0
C1288 C 0.43203 0.6343 0.83251 0.0
C1289 C 0.40567 0.64617 0.81649 0.0
C1290 C 0.41203 0.65491 0.78154 0.0
C1291 C 0.38922 0.62505 0.82074 0.0
C1292 C 0.39087 0.67172 0.83464 0.0
C1293 C 0.40649 0.67393 0.85724 0.0
C1294 C 0.39676 0.69504 0.87787 0.0
C1295 C 0.37072 0.71488 0.87477 0.0
C1296 C 0.35479 0.71384 0.8509 0.0
C1297 C 0.36504 0.69178 0.83073 0.0
H1298 H 0.45442 0.46388 0.93151 0.0
H1299 H 0.50114 0.46699 0.84014 0.0
H1300 H 0.48222 0.43275 0.82315 0.0
H1301 H 0.4613 0.38979 0.93749 0.0
H1302 H 0.42678 0.39428 0.95591 0.0
H1303 H 0.44451 0.4187 0.96138 0.0
H1304 H 0.4043 0.46029 0.94078 0.0
H1305 H 0.38645 0.43601 0.93529 0.0
H1306 H 0.39359 0.4598 0.90282 0.0
H1307 H 0.45776 0.39876 0.81546 0.0
H1308 H 0.42957 0.36686 0.81806 0.0
H1309 H 0.39766 0.38672 0.9137 0.0
C1310 C 0.46062 0.45742 0.90792 0.0
C1311 C 0.47953 0.46802 0.88737 0.0
C1312 C 0.4872 0.45884 0.85669 0.0
C1313 C 0.47639 0.4395 0.84666 0.0
C1314 C 0.45785 0.4295 0.86749 0.0
C1315 C 0.45 0.4381 0.89748 0.0
C1316 C 0.42952 0.42426 0.91509 0.0
C1317 C 0.44124 0.40565 0.94419 0.0
C1318 C 0.40183 0.44641 0.92401 0.0
C1319 C 0.42708 0.40664 0.89025 0.0
C1320 C 0.44359 0.40997 0.86298 0.0
C1321 C 0.4447 0.39598 0.83668 0.0
C1322 C 0.42849 0.37804 0.83831 0.0
C1323 C 0.4114 0.37426 0.86605 0.0
C1324 C 0.41077 0.38884 0.89229 0.0
H1325 H 0.64963 0.49249 0.8319 0.0
H1326 H 0.58317 0.4564 0.83487 0.0
H1327 H 0.61704 0.40895 0.83291 0.0
H1328 H 0.6998 0.44319 0.77981 0.0
H1329 H 0.72877 0.44124 0.80018 0.0
H1330 H 0.69979 0.47295 0.79915 0.0
H1331 H 0.69371 0.47058 0.85979 0.0
H1332 H 0.72272 0.43899 0.86139 0.0
H1333 H 0.68988 0.43903 0.88213 0.0
H1334 H 0.65772 0.36515 0.83315 0.0
H1335 H 0.7026 0.32799 0.8346 0.0
H1336 H 0.74306 0.39177 0.83358 0.0
C1337 C 0.64226 0.47468 0.83133 0.0
C1338 C 0.61368 0.47826 0.83318 0.0
C1339 C 0.6049 0.45426 0.83325 0.0
C1340 C 0.624 0.42718 0.8322 0.0
C1341 C 0.65191 0.42429 0.83125 0.0
C1342 C 0.6611 0.44736 0.83064 0.0
C1343 C 0.69219 0.43817 0.8311 0.0
C1344 C 0.70596 0.44956 0.80076 0.0
C1345 C 0.70008 0.44723 0.86035 0.0
C1346 C 0.69892 0.40635 0.83262 0.0
C1347 C 0.67539 0.39887 0.83236 0.0
C1348 C 0.67628 0.37077 0.83335 0.0
C1349 C 0.70191 0.34978 0.83428 0.0
C1350 C 0.72639 0.35684 0.83459 0.0
C1351 C 0.72471 0.38559 0.83392 0.0
H1352 H 0.62484 0.43728 0.25905 0.0
H1353 H 0.62742 0.49814 0.32056 0.0
H1354 H 0.66759 0.46293 0.34329 0.0
H1355 H 0.64492 0.37487 0.31568 0.0
H1356 H 0.66464 0.35275 0.28545 0.0
H1357 H 0.63497 0.38209 0.27625 0.0
H1358 H 0.6652 0.40152 0.23201 0.0
H1359 H 0.69499 0.37247 0.2413 0.0
H1360 H 0.69553 0.40813 0.24136 0.0
H1361 H 0.71074 0.42225 0.35489 0.0
H1362 H 0.75023 0.37854 0.35792 0.0
H1363 H 0.71761 0.34434 0.28992 0.0
C1364 C 0.63356 0.4431 0.27767 0.0
C1365 C 0.62307 0.47043 0.28805 0.0
C1366 C 0.63503 0.47723 0.31245 0.0
C1367 C 0.6579 0.4574 0.32537 0.0
C1368 C 0.66819 0.43082 0.31394 0.0
C1369 C 0.65605 0.42354 0.291 0.0
C1370 C 0.67127 0.39396 0.2821 0.0
C1371 C 0.65285 0.37479 0.29038 0.0
C1372 C 0.6824 0.39405 0.24713 0.0
C1373 C 0.69438 0.38588 0.303 0.0
C1374 C 0.69234 0.40736 0.3212 0.0
C1375 C 0.71228 0.40517 0.34107 0.0
C1376 C 0.73472 0.38032 0.34249 0.0
C1377 C 0.73693 0.35794 0.32429 0.0
C1378 C 0.71636 0.36088 0.30444 0.0
H1379 H 0.64911 0.61199 0.18932 0.0
H1380 H 0.60261 0.61129 0.28101 0.0
H1381 H 0.62467 0.64292 0.29803 0.0
H1382 H 0.71195 0.61228 0.21706 0.0
H1383 H 0.72003 0.63567 0.1847 0.0
H1384 H 0.70038 0.61304 0.17925 0.0
H1385 H 0.66143 0.65646 0.15946 0.0
H1386 H 0.68098 0.67922 0.16487 0.0
H1387 H 0.64639 0.68538 0.18374 0.0
H1388 H 0.65111 0.67459 0.30544 0.0
H1389 H 0.68104 0.70457 0.30284 0.0
H1390 H 0.71175 0.68442 0.20694 0.0
C1391 C 0.64358 0.61865 0.21288 0.0
C1392 C 0.62444 0.60888 0.23394 0.0
C1393 C 0.61768 0.61796 0.26468 0.0
C1394 C 0.62994 0.63612 0.27452 0.0
C1395 C 0.64893 0.6451 0.25339 0.0
C1396 C 0.65581 0.63674 0.22323 0.0
C1397 C 0.67717 0.64939 0.20548 0.0
C1398 C 0.70397 0.62621 0.19608 0.0
C1399 C 0.6658 0.66876 0.17669 0.0
C1400 C 0.68109 0.66612 0.23043 0.0
C1401 C 0.66453 0.66336 0.25782 0.0
C1402 C 0.66432 0.67684 0.28418 0.0
C1403 C 0.68157 0.69366 0.28254 0.0
C1404 C 0.69892 0.69675 0.25478 0.0
C1405 C 0.69857 0.68274 0.22841 0.0
H1406 H 0.47508 0.62594 0.23033 0.0
H1407 H 0.5153 0.61275 0.31558 0.0
H1408 H 0.48276 0.65783 0.33271 0.0
H1409 H 0.46202 0.70032 0.21726 0.0
H1410 H 0.4288 0.707 0.20354 0.0
H1411 H 0.45508 0.67376 0.19816 0.0
H1412 H 0.42208 0.64708 0.22737 0.0
H1413 H 0.3956 0.68023 0.23233 0.0
H1414 H 0.40598 0.65595 0.26611 0.0
H1415 H 0.44578 0.70473 0.33998 0.0
H1416 H 0.40537 0.74742 0.33908 0.0
H1417 H 0.38979 0.72936 0.24873 0.0
C1418 C 0.47708 0.63244 0.25266 0.0
C1419 C 0.4978 0.61586 0.27161 0.0
C1420 C 0.49954 0.62507 0.30075 0.0
C1421 C 0.48125 0.6507 0.31056 0.0
C1422 C 0.46135 0.66673 0.29099 0.0
C1423 C 0.45902 0.65777 0.26281 0.0
C1424 C 0.43549 0.67841 0.2464 0.0
C1425 C 0.44599 0.69059 0.21445 0.0
C1426 C 0.41349 0.66459 0.24286 0.0
C1427 C 0.42495 0.70059 0.26963 0.0
C1428 C 0.44018 0.69354 0.29515 0.0
C1429 C 0.43379 0.71045 0.32006 0.0
C1430 C 0.41083 0.73476 0.31923 0.0
C1431 C 0.39445 0.74195 0.2937 0.0
C1432 C 0.40207 0.72481 0.26835 0.0
H1433 H 0.48139 0.49082 0.19585 0.0
H1434 H 0.51776 0.46492 0.28413 0.0
H1435 H 0.48718 0.43579 0.30077 0.0
H1436 H 0.41206 0.4949 0.22716 0.0
H1437 H 0.4046 0.48101 0.19402 0.0
H1438 H 0.42936 0.50006 0.18871 0.0
H1439 H 0.46622 0.45757 0.16415 0.0
H1440 H 0.44153 0.43845 0.16923 0.0
H1441 H 0.47395 0.42331 0.18571 0.0
H1442 H 0.45297 0.4096 0.30817 0.0
H1443 H 0.41807 0.38637 0.30506 0.0
H1444 H 0.40337 0.42892 0.21211 0.0
C1445 C 0.48306 0.47883 0.21854 0.0
C1446 C 0.50181 0.48042 0.2388 0.0
C1447 C 0.50321 0.46455 0.26845 0.0
C1448 C 0.48602 0.44779 0.27807 0.0
C1449 C 0.46754 0.44701 0.25778 0.0
C1450 C 0.46598 0.46195 0.22858 0.0
C1451 C 0.44428 0.45722 0.21135 0.0
C1452 C 0.42121 0.48495 0.20494 0.0
C1453 C 0.45728 0.4433 0.18081 0.0
C1454 C 0.43404 0.43721 0.23543 0.0
C1455 C 0.4477 0.43173 0.26205 0.0
C1456 C 0.44201 0.41381 0.28751 0.0
C1457 C 0.42197 0.40089 0.28561 0.0
C1458 C 0.40781 0.40596 0.25845 0.0
C1459 C 0.41393 0.4245 0.23312 0.0
H1460 H 0.75962 0.63698 0.69518 0.0
H1461 H 0.83787 0.62122 0.63737 0.0
H1462 H 0.85103 0.65285 0.66773 0.0
H1463 H 0.74766 0.70912 0.70168 0.0
H1464 H 0.73271 0.7083 0.74192 0.0
H1465 H 0.7303 0.68348 0.71667 0.0
H1466 H 0.75305 0.64228 0.75654 0.0
H1467 H 0.75537 0.66719 0.78183 0.0
H1468 H 0.78588 0.63981 0.76883 0.0
H1469 H 0.85377 0.68947 0.70265 0.0
H1470 H 0.84675 0.72548 0.73985 0.0
H1471 H 0.76711 0.71541 0.77506 0.0
C1472 C 0.77966 0.63992 0.68899 0.0
C1473 C 0.79771 0.62664 0.6638 0.0
C1474 C 0.82375 0.63107 0.65663 0.0
C1475 C 0.83136 0.64904 0.67373 0.0
C1476 C 0.81283 0.66214 0.69815 0.0
C1477 C 0.78762 0.65749 0.70593 0.0
C1478 C 0.77112 0.67432 0.73274 0.0
C1479 C 0.74384 0.69503 0.7226 0.0
C1480 C 0.76607 0.65472 0.7617 0.0
C1481 C 0.79065 0.68971 0.7385 0.0
C1482 C 0.81465 0.68245 0.71842 0.0
C1483 C 0.83517 0.69502 0.71867 0.0
C1484 C 0.83098 0.71551 0.73987 0.0
C1485 C 0.80648 0.72321 0.76063 0.0
C1486 C 0.78626 0.70985 0.75989 0.0
H1487 H 0.47364 0.74902 0.67072 0.0
H1488 H 0.50254 0.80964 0.70787 0.0
H1489 H 0.45981 0.82308 0.74359 0.0
H1490 H 0.40198 0.79055 0.67332 0.0
H1491 H 0.3891 0.76107 0.68533 0.0
H1492 H 0.42203 0.75586 0.66243 0.0
H1493 H 0.44527 0.71793 0.70502 0.0
H1494 H 0.41239 0.72292 0.72795 0.0
H1495 H 0.44092 0.72661 0.7451 0.0
H1496 H 0.41421 0.82968 0.77634 0.0
H1497 H 0.36924 0.82878 0.80376 0.0
H1498 H 0.3685 0.76443 0.74585 0.0
C1499 C 0.47116 0.76498 0.68648 0.0
C1500 C 0.49179 0.77833 0.68606 0.0
C1501 C 0.4872 0.79932 0.7071 0.0
C1502 C 0.46292 0.80704 0.72771 0.0
C1503 C 0.44305 0.7937 0.7273 0.0
C1504 C 0.44687 0.77306 0.7073 0.0
C1505 C 0.42212 0.76205 0.71179 0.0
C1506 C 0.40797 0.76773 0.6814 0.0
C1507 C 0.43069 0.73051 0.72313 0.0
C1508 C 0.40384 0.77977 0.73735 0.0
C1509 C 0.41645 0.7978 0.74598 0.0
C1510 C 0.40412 0.81573 0.76964 0.0
C1511 C 0.37846 0.81506 0.78512 0.0
C1512 C 0.36495 0.79676 0.77694 0.0
C1513 C 0.3779 0.77904 0.75242 0.0
H1514 H 0.30158 0.41917 0.61137 0.0
H1515 H 0.33672 0.47 0.65645 0.0
H1516 H 0.33017 0.44336 0.70756 0.0
H1517 H 0.2507 0.40991 0.67599 0.0
H1518 H 0.25585 0.37364 0.67006 0.0
H1519 H 0.26164 0.3978 0.63732 0.0
H1520 H 0.31127 0.36462 0.62523 0.0
H1521 H 0.30556 0.34038 0.65788 0.0
H1522 H 0.3342 0.35399 0.65571 0.0
H1523 H 0.32048 0.41083 0.75374 0.0
H1524 H 0.31083 0.37307 0.79119 0.0
H1525 H 0.28378 0.34125 0.71635 0.0
C1526 C 0.3075 0.42482 0.63216 0.0
C1527 C 0.31945 0.44681 0.63007 0.0
C1528 C 0.32755 0.45325 0.65759 0.0
C1529 C 0.32382 0.43829 0.68672 0.0
C1530 C 0.31225 0.41657 0.68803 0.0
C1531 C 0.30441 0.40963 0.66147 0.0
C1532 C 0.29401 0.38422 0.66918 0.0
C1533 C 0.26375 0.39186 0.66276 0.0
C1534 C 0.31236 0.35933 0.65091 0.0
C1535 C 0.29702 0.37816 0.70418 0.0
C1536 C 0.30742 0.39722 0.71457 0.0
C1537 C 0.31228 0.39582 0.74586 0.0
C1538 C 0.30664 0.37426 0.76704 0.0
C1539 C 0.2964 0.35409 0.75696 0.0
C1540 C 0.29144 0.35633 0.72501 0.0
H1541 H 0.59498 0.24071 0.61747 0.0
H1542 H 0.5618 0.32571 0.57457 0.0
H1543 H 0.59285 0.34121 0.60277 0.0
H1544 H 0.60394 0.25858 0.69301 0.0
H1545 H 0.63541 0.22982 0.69626 0.0
H1546 H 0.60919 0.22679 0.67449 0.0
H1547 H 0.64484 0.21549 0.62561 0.0
H1548 H 0.67113 0.21863 0.64712 0.0
H1549 H 0.66377 0.23973 0.61051 0.0
H1550 H 0.63035 0.34597 0.63544 0.0
H1551 H 0.66945 0.33932 0.66665 0.0
H1552 H 0.67686 0.25065 0.68573 0.0
C1553 C 0.59384 0.26275 0.61404 0.0
C1554 C 0.57578 0.28202 0.59375 0.0
C1555 C 0.57529 0.31057 0.59011 0.0
C1556 C 0.59292 0.31949 0.60602 0.0
C1557 C 0.61082 0.29961 0.62547 0.0
C1558 C 0.61119 0.27182 0.62941 0.0
C1559 C 0.63283 0.25393 0.65022 0.0
C1560 C 0.61954 0.24156 0.68028 0.0
C1561 C 0.65441 0.23058 0.63228 0.0
C1562 C 0.64503 0.27579 0.65735 0.0
C1563 C 0.63209 0.30214 0.64322 0.0
C1564 C 0.64045 0.32539 0.64657 0.0
C1565 C 0.66263 0.32146 0.66444 0.0
C1566 C 0.67643 0.29441 0.67847 0.0
C1567 C 0.6671 0.27152 0.67499 0.0
H1568 H 0.82125 0.51378 0.53057 0.0
H1569 H 0.84782 0.46657 0.61815 0.0
H1570 H 0.85162 0.42241 0.59613 0.0
H1571 H 0.7798 0.4744 0.5157 0.0
H1572 H 0.78875 0.47541 0.47379 0.0
H1573 H 0.79025 0.50338 0.49511 0.0
H1574 H 0.84135 0.49519 0.47344 0.0
H1575 H 0.8399 0.46751 0.45158 0.0
H1576 H 0.86572 0.46044 0.47842 0.0
H1577 H 0.84816 0.38396 0.56674 0.0
H1578 H 0.84253 0.35299 0.52998 0.0
H1579 H 0.82023 0.42447 0.46022 0.0
C1580 C 0.82849 0.49411 0.54489 0.0
C1581 C 0.83432 0.49375 0.57614 0.0
C1582 C 0.84341 0.46751 0.59413 0.0
C1583 C 0.8455 0.44226 0.58187 0.0
C1584 C 0.83873 0.44347 0.55143 0.0
C1585 C 0.83086 0.46864 0.53294 0.0
C1586 C 0.82413 0.46409 0.5012 0.0
C1587 C 0.79394 0.48028 0.49617 0.0
C1588 C 0.84396 0.47229 0.47459 0.0
C1589 C 0.82903 0.4325 0.50495 0.0
C1590 C 0.83734 0.42109 0.53415 0.0
C1591 C 0.84217 0.39257 0.54358 0.0
C1592 C 0.83899 0.3751 0.52239 0.0
C1593 C 0.8313 0.38604 0.49186 0.0
C1594 C 0.826 0.4153 0.48332 0.0
H1595 H 0.66761 0.74194 0.48867 0.0
H1596 H 0.65476 0.81968 0.53102 0.0
H1597 H 0.68635 0.83333 0.48875 0.0
H1598 H 0.74037 0.72979 0.46344 0.0
H1599 H 0.73967 0.71645 0.42679 0.0
H1600 H 0.7158 0.71189 0.46009 0.0
H1601 H 0.6747 0.73649 0.4277 0.0
H1602 H 0.69828 0.74071 0.39396 0.0
H1603 H 0.67142 0.771 0.4079 0.0
H1604 H 0.71988 0.83882 0.44247 0.0
H1605 H 0.75276 0.83584 0.39481 0.0
H1606 H 0.7444 0.75515 0.38058 0.0
C1607 C 0.67153 0.76176 0.4892 0.0
C1608 C 0.65823 0.77979 0.51341 0.0
C1609 C 0.66403 0.80562 0.51276 0.0
C1610 C 0.6822 0.81354 0.48883 0.0
C1611 C 0.69469 0.79551 0.46534 0.0
C1612 C 0.68968 0.77011 0.46524 0.0
C1613 C 0.70588 0.7548 0.43692 0.0
C1614 C 0.72666 0.72656 0.44745 0.0
C1615 C 0.6864 0.75051 0.41534 0.0
C1616 C 0.72054 0.77568 0.42113 0.0
C1617 C 0.71385 0.7989 0.43814 0.0
C1618 C 0.72515 0.82079 0.42888 0.0
C1619 C 0.74384 0.81892 0.40169 0.0
C1620 C 0.75102 0.79549 0.38357 0.0
C1621 C 0.739 0.77363 0.39351 0.0
H1622 H 0.30516 0.61612 0.46704 0.0
H1623 H 0.37367 0.56448 0.40871 0.0
H1624 H 0.37686 0.60672 0.37534 0.0
H1625 H 0.27343 0.66365 0.40337 0.0
H1626 H 0.26282 0.6946 0.42476 0.0
H1627 H 0.26635 0.66044 0.44553 0.0
H1628 H 0.30003 0.66841 0.48009 0.0
H1629 H 0.29672 0.70257 0.45932 0.0
H1630 H 0.33028 0.67692 0.46163 0.0
H1631 H 0.37233 0.65322 0.34683 0.0
H1632 H 0.35936 0.7021 0.32334 0.0
H1633 H 0.29344 0.72623 0.39841 0.0
C1634 C 0.3208 0.61365 0.44723 0.0
C1635 C 0.33939 0.58661 0.44094 0.0
C1636 C 0.35955 0.58466 0.41471 0.0
C1637 C 0.36147 0.60865 0.39539 0.0
C1638 C 0.34309 0.63478 0.40232 0.0
C1639 C 0.32305 0.6376 0.42749 0.0
C1640 C 0.30551 0.66841 0.42883 0.0
C1641 C 0.27523 0.67198 0.42541 0.0
C1642 C 0.30831 0.67974 0.45928 0.0
C1643 C 0.31867 0.68226 0.4002 0.0
C1644 C 0.3404 0.66223 0.38553 0.0
C1645 C 0.35543 0.6691 0.35815 0.0
C1646 C 0.34783 0.69699 0.34495 0.0
C1647 C 0.32541 0.71807 0.35897 0.0
C1648 C 0.31088 0.71068 0.38737 0.0
H1649 H 0.43812 0.29927 0.48762 0.0
H1650 H 0.50513 0.23518 0.44209 0.0
H1651 H 0.47573 0.23523 0.40155 0.0
H1652 H 0.3857 0.27256 0.47725 0.0
H1653 H 0.35981 0.30561 0.46861 0.0
H1654 H 0.38657 0.30416 0.49219 0.0
H1655 H 0.40039 0.34223 0.45442 0.0
H1656 H 0.37402 0.34436 0.42984 0.0
H1657 H 0.40928 0.33711 0.41321 0.0
H1658 H 0.43807 0.23741 0.36983 0.0
H1659 H 0.39521 0.24572 0.34508 0.0
H1660 H 0.3517 0.30951 0.4087 0.0
C1661 C 0.44682 0.28615 0.46837 0.0
C1662 C 0.47418 0.26761 0.46762 0.0
C1663 C 0.48446 0.24987 0.44278 0.0
C1664 C 0.46784 0.24962 0.41973 0.0
C1665 C 0.44075 0.2673 0.4216 0.0
C1666 C 0.43033 0.28565 0.44487 0.0
C1667 C 0.40001 0.30146 0.44191 0.0
C1668 C 0.38197 0.2956 0.47177 0.0
C1669 C 0.39567 0.33318 0.43442 0.0
C1670 C 0.39496 0.28852 0.41405 0.0
C1671 C 0.41885 0.26884 0.40278 0.0
C1672 C 0.41932 0.25306 0.37817 0.0
C1673 C 0.39489 0.25774 0.36437 0.0
C1674 C 0.37029 0.27811 0.37502 0.0
C1675 C 0.37032 0.29378 0.40015 0.0
H1676 H 0.62262 0.77705 0.71309 0.0
H1677 H 0.62687 0.84147 0.63741 0.0
H1678 H 0.66206 0.85245 0.66293 0.0
H1679 H 0.632 0.81503 0.77656 0.0
H1680 H 0.65223 0.78313 0.7968 0.0
H1681 H 0.626 0.78205 0.7737 0.0
H1682 H 0.66226 0.74406 0.74179 0.0
H1683 H 0.68861 0.74521 0.76454 0.0
H1684 H 0.69283 0.75129 0.72232 0.0
H1685 H 0.70093 0.85229 0.69395 0.0
H1686 H 0.73687 0.84397 0.72993 0.0
H1687 H 0.70522 0.78149 0.78671 0.0
C1688 C 0.63056 0.79384 0.70212 0.0
C1689 C 0.6219 0.80844 0.67322 0.0
C1690 C 0.63296 0.83016 0.65965 0.0
C1691 C 0.65306 0.83646 0.67394 0.0
C1692 C 0.66159 0.82117 0.70207 0.0
C1693 C 0.65031 0.80062 0.71627 0.0
C1694 C 0.66346 0.78667 0.746 0.0
C1695 C 0.64215 0.79205 0.77498 0.0
C1696 C 0.67763 0.75493 0.74349 0.0
C1697 C 0.68436 0.80211 0.74604 0.0
C1698 C 0.68307 0.82187 0.72045 0.0
C1699 C 0.70171 0.83727 0.71436 0.0
C1700 C 0.72212 0.83235 0.73487 0.0
C1701 C 0.72357 0.81247 0.76144 0.0
C1702 C 0.70421 0.79737 0.76709 0.0
H1703 H 0.62105 0.27536 0.4676 0.0
H1704 H 0.64731 0.18393 0.47352 0.0
H1705 H 0.69347 0.18364 0.44949 0.0
H1706 H 0.65756 0.28536 0.39348 0.0
H1707 H 0.66701 0.3147 0.403 0.0
H1708 H 0.63623 0.30801 0.42248 0.0
H1709 H 0.65375 0.30594 0.47649 0.0
H1710 H 0.68465 0.31258 0.45714 0.0
H1711 H 0.68703 0.28189 0.48448 0.0
H1712 H 0.73556 0.19272 0.4214 0.0
H1713 H 0.77139 0.21086 0.39098 0.0
H1714 H 0.71998 0.2965 0.40442 0.0
C1715 C 0.63661 0.25527 0.46431 0.0
C1716 C 0.63027 0.22963 0.47239 0.0
C1717 C 0.6513 0.20387 0.46716 0.0
C1718 C 0.67776 0.20346 0.45373 0.0
C1719 C 0.6832 0.22898 0.44572 0.0
C1720 C 0.66333 0.25446 0.45086 0.0
C1721 C 0.67453 0.27884 0.43878 0.0
C1722 C 0.65784 0.29784 0.4129 0.0
C1723 C 0.67502 0.29581 0.46584 0.0
C1724 C 0.70358 0.26304 0.42557 0.0
C1725 C 0.70805 0.23427 0.43002 0.0
C1726 C 0.73248 0.21517 0.4182 0.0
C1727 C 0.75272 0.22567 0.40094 0.0
C1728 C 0.74869 0.25502 0.3958 0.0
C1729 C 0.72393 0.27394 0.40876 0.0
H1730 H 0.80328 0.65227 0.50689 0.0
H1731 H 0.74042 0.62796 0.47101 0.0
H1732 H 0.75335 0.64727 0.41749 0.0
H1733 H 0.79146 0.71822 0.46043 0.0
H1734 H 0.82722 0.71649 0.45568 0.0
H1735 H 0.81371 0.69895 0.48995 0.0
H1736 H 0.85174 0.65219 0.47688 0.0
H1737 H 0.86455 0.66973 0.44199 0.0
H1738 H 0.8544 0.63905 0.43918 0.0
H1739 H 0.77321 0.66959 0.36808 0.0
H1740 H 0.79247 0.70015 0.32878 0.0
H1741 H 0.84077 0.7117 0.39801 0.0
C1742 C 0.79248 0.65081 0.48762 0.0
C1743 C 0.77111 0.63843 0.49278 0.0
C1744 C 0.75685 0.63743 0.46735 0.0
C1745 C 0.76426 0.64804 0.43692 0.0
C1746 C 0.78577 0.65978 0.43252 0.0
C1747 C 0.79929 0.66172 0.45732 0.0
C1748 C 0.81994 0.67754 0.44698 0.0
C1749 C 0.81263 0.70438 0.46428 0.0
C1750 C 0.8494 0.65848 0.45153 0.0
C1751 C 0.81577 0.68449 0.41252 0.0
C1752 C 0.79641 0.67357 0.40445 0.0
C1753 C 0.78847 0.67816 0.37412 0.0
C1754 C 0.79968 0.69542 0.35186 0.0
C1755 C 0.81809 0.70839 0.36032 0.0
C1756 C 0.82691 0.70193 0.39074 0.0
H1757 H 0.5325 0.79927 0.50236 0.0
H1758 H 0.4939 0.84971 0.58036 0.0
H1759 H 0.44899 0.86279 0.55839 0.0
H1760 H 0.48975 0.84577 0.44187 0.0
H1761 H 0.48943 0.81597 0.42278 0.0
H1762 H 0.51863 0.81397 0.44274 0.0
H1763 H 0.51317 0.76914 0.47609 0.0
H1764 H 0.4836 0.77135 0.45684 0.0
H1765 H 0.48083 0.7706 0.49903 0.0
H1766 H 0.40741 0.86465 0.5314 0.0
H1767 H 0.37359 0.8598 0.49885 0.0
H1768 H 0.44035 0.80941 0.43756 0.0
C1769 C 0.51475 0.81373 0.51436 0.0
C1770 C 0.51664 0.82364 0.54295 0.0
C1771 C 0.49295 0.84227 0.55817 0.0
C1772 C 0.46735 0.8496 0.54598 0.0
C1773 C 0.46601 0.83843 0.51838 0.0
C1774 C 0.48925 0.82137 0.50243 0.0
C1775 C 0.4823 0.81099 0.4741 0.0
C1776 C 0.49582 0.82236 0.44356 0.0
C1777 C 0.49046 0.77861 0.4767 0.0
C1778 C 0.45136 0.82413 0.47703 0.0
C1779 C 0.4423 0.83992 0.50265 0.0
C1780 C 0.41437 0.85284 0.51091 0.0
C1781 C 0.3953 0.84998 0.49218 0.0
C1782 C 0.40417 0.83438 0.46536 0.0
C1783 C 0.43268 0.82127 0.45796 0.0
H1784 H 0.29274 0.4156 0.49977 0.0
H1785 H 0.26623 0.49497 0.44288 0.0
H1786 H 0.25714 0.47012 0.40137 0.0
H1787 H 0.32818 0.37527 0.44052 0.0
H1788 H 0.31867 0.34404 0.45468 0.0
H1789 H 0.3195 0.36799 0.48193 0.0
H1790 H 0.26866 0.37433 0.50303 0.0
H1791 H 0.26763 0.34955 0.47679 0.0
H1792 H 0.24273 0.3842 0.47595 0.0
H1793 H 0.25785 0.43484 0.36295 0.0
H1794 H 0.2643 0.39346 0.33358 0.0
H1795 H 0.28791 0.33816 0.41746 0.0
C1796 C 0.28436 0.42788 0.47891 0.0
C1797 C 0.28013 0.45721 0.47455 0.0
C1798 C 0.26933 0.47252 0.44685 0.0
C1799 C 0.26421 0.45854 0.42311 0.0
C1800 C 0.26941 0.42939 0.42779 0.0
C1801 C 0.27869 0.41438 0.45537 0.0
C1802 C 0.28406 0.38311 0.45421 0.0
C1803 C 0.31441 0.36663 0.45808 0.0
C1804 C 0.2646 0.37216 0.47896 0.0
C1805 C 0.27726 0.38263 0.4213 0.0
C1806 C 0.26882 0.40946 0.40631 0.0
C1807 C 0.26381 0.41382 0.37476 0.0
C1808 C 0.2676 0.39019 0.35822 0.0
C1809 C 0.27614 0.36256 0.37331 0.0
C1810 C 0.28066 0.35898 0.40537 0.0
H1811 H 0.45943 0.26888 0.6432 0.0
H1812 H 0.46265 0.18534 0.62331 0.0
H1813 H 0.42557 0.18517 0.66582 0.0
H1814 H 0.4473 0.25787 0.72725 0.0
H1815 H 0.4239 0.2928 0.73212 0.0
H1816 H 0.45038 0.28696 0.69956 0.0
H1817 H 0.41347 0.30908 0.66067 0.0
H1818 H 0.38691 0.31512 0.69314 0.0
H1819 H 0.38503 0.29528 0.66196 0.0
H1820 H 0.38765 0.19403 0.70962 0.0
H1821 H 0.35172 0.21115 0.75287 0.0
H1822 H 0.37339 0.2884 0.7465 0.0
C1823 C 0.45215 0.25068 0.64765 0.0
C1824 C 0.46411 0.22703 0.62989 0.0
C1825 C 0.45416 0.20351 0.63676 0.0
C1826 C 0.43297 0.20327 0.6608 0.0
C1827 C 0.42185 0.22669 0.67804 0.0
C1828 C 0.43104 0.24999 0.67187 0.0
C1829 C 0.41566 0.2722 0.69438 0.0
C1830 C 0.4355 0.27777 0.71452 0.0
C1831 C 0.3993 0.29953 0.67647 0.0
C1832 C 0.39653 0.25765 0.71413 0.0
C1833 C 0.40035 0.2315 0.70407 0.0
C1834 C 0.38458 0.21439 0.71785 0.0
C1835 C 0.3642 0.2243 0.74241 0.0
C1836 C 0.35992 0.25095 0.75332 0.0
C1837 C 0.3765 0.26771 0.73906 0.0
H1838 H 0.74851 0.47384 0.66191 0.0
H1839 H 0.78303 0.52023 0.71463 0.0
H1840 H 0.80148 0.4771 0.7492 0.0
H1841 H 0.72838 0.43052 0.7295 0.0
H1842 H 0.73665 0.40006 0.70769 0.0
H1843 H 0.72549 0.4349 0.68788 0.0
H1844 H 0.76979 0.42242 0.64905 0.0
H1845 H 0.7814 0.38772 0.66905 0.0
H1846 H 0.80296 0.41029 0.6641 0.0
H1847 H 0.81874 0.42828 0.77574 0.0
H1848 H 0.82847 0.37861 0.79699 0.0
H1849 H 0.78095 0.36466 0.72826 0.0
C1850 C 0.75934 0.47526 0.68112 0.0
C1851 C 0.76442 0.50054 0.68536 0.0
C1852 C 0.77918 0.50107 0.71061 0.0
C1853 C 0.78973 0.47668 0.73039 0.0
C1854 C 0.78512 0.45196 0.72484 0.0
C1855 C 0.76986 0.45117 0.7012 0.0
C1856 C 0.76791 0.42187 0.70021 0.0
C1857 C 0.73782 0.42184 0.70672 0.0
C1858 C 0.78132 0.40988 0.66873 0.0
C1859 C 0.78452 0.40629 0.72696 0.0
C1860 C 0.79451 0.42396 0.74063 0.0
C1861 C 0.81086 0.41427 0.76538 0.0
C1862 C 0.81648 0.38594 0.7771 0.0
C1863 C 0.80552 0.3677 0.76426 0.0
C1864 C 0.78966 0.37804 0.73856 0.0
H1865 H 0.30603 0.60573 0.55608 0.0
H1866 H 0.23856 0.57323 0.59307 0.0
H1867 H 0.22098 0.61143 0.62897 0.0
H1868 H 0.32103 0.61933 0.62473 0.0
H1869 H 0.32913 0.65137 0.61085 0.0
H1870 H 0.33305 0.62544 0.58403 0.0
H1871 H 0.30068 0.66268 0.54777 0.0
H1872 H 0.29692 0.68899 0.57429 0.0
H1873 H 0.26686 0.68266 0.56378 0.0
H1874 H 0.21652 0.64695 0.66717 0.0
H1875 H 0.22316 0.67925 0.70197 0.0
H1876 H 0.293 0.68922 0.63878 0.0
C1877 C 0.28706 0.60719 0.57109 0.0
C1878 C 0.27356 0.58669 0.57198 0.0
C1879 C 0.24894 0.58901 0.59191 0.0
C1880 C 0.2389 0.61058 0.61235 0.0
C1881 C 0.25346 0.62981 0.61187 0.0
C1882 C 0.27671 0.62864 0.59123 0.0
C1883 C 0.29013 0.65003 0.5971 0.0
C1884 C 0.32009 0.63567 0.60464 0.0
C1885 C 0.28854 0.67242 0.56907 0.0
C1886 C 0.27177 0.66239 0.62552 0.0
C1887 C 0.25052 0.65072 0.63346 0.0
C1888 C 0.23263 0.65671 0.66073 0.0
C1889 C 0.23669 0.67486 0.68045 0.0
C1890 C 0.25848 0.68676 0.67283 0.0
C1891 C 0.27585 0.68085 0.64472 0.0
loop_
_geom_bond_atom_site_label_1
_geom_bond_atom_site_label_2
_geom_bond_distance
_geom_bond_site_symmetry_2
_ccdc_geom_bond_type
Cu0 N1 1.999 . S
Cu0 O6 1.974 1_545 S
Cu0 N11 1.985 1_545 S
Cu0 O20 1.959 1_455 S
N1 Cu0 1.999 . S
N1 C3 1.263 . S
N1 C5 1.389 . S
N2 C3 1.358 . S
N2 C4 1.400 . S
C3 N1 1.263 . S
C3 N2 1.358 . S
C3 H9 0.930 . S
C4 N2 1.400 . S
C4 C5 1.351 . S
C4 H21 0.930 . S
C5 N1 1.389 . S
C5 C4 1.351 . S
C5 H10 0.930 . S
O6 Cu0 1.974 1_565 S
O6 C16 1.282 . S
C7 O8 1.261 1_655 S
C7 O20 1.251 . S
O8 C7 1.261 1_455 S
H9 C3 0.930 . S
H10 C5 0.930 . S
N11 Cu0 1.985 1_565 S
N11 C13 1.335 1_455 S
N11 C14 1.390 . S
N12 C13 1.345 . S
N12 C15 1.336 1_655 S
C13 N11 1.335 1_655 S
C13 N12 1.345 . S
C13 H18 0.930 1_565 S
C14 N11 1.390 . S
C14 C15 1.346 . S
C14 H19 0.930 . S
C15 N12 1.336 1_455 S
C15 C14 1.346 . S
C15 H22 0.929 . S
C16 O6 1.282 . S
C16 O17 1.216 . S
O17 C16 1.216 . S
H18 C13 0.930 1_545 S
H19 C14 0.930 . S
O20 Cu0 1.959 1_655 S
O20 C7 1.251 . S
H21 C4 0.930 . S
H22 C15 0.929 . S
Cu23 N24 1.999 . S
Cu23 O29 1.974 1_455 S
Cu23 N34 1.985 . S
Cu23 O43 1.959 . S
N24 Cu23 1.999 . S
N24 C26 1.263 1_455 S
N24 C28 1.389 1_545 S
N25 C26 1.352 1_565 S
N25 C27 1.403 . S
C26 N24 1.263 1_655 S
C26 N25 1.352 1_545 S
C26 H32 0.930 . S
C27 N25 1.403 . S
C27 C28 1.351 1_655 S
C27 H44 0.930 . S
C28 N24 1.389 1_565 S
C28 C27 1.351 1_455 S
C28 H33 0.930 . S
O29 Cu23 1.974 1_655 S
O29 C39 1.282 . S
C30 O31 1.261 . S
C30 O43 1.251 . S
O31 C30 1.261 . S
H32 C26 0.930 . S
H33 C28 0.930 . S
N34 Cu23 1.985 . S
N34 C36 1.335 . S
N34 C37 1.390 . S
N35 C36 1.345 . S
N35 C38 1.336 . S
C36 N34 1.335 . S
C36 N35 1.345 . S
C36 H41 0.930 . S
C37 N34 1.390 . S
C37 C38 1.346 . S
C37 H42 0.930 . S
C38 N35 1.336 . S
C38 C37 1.346 . S
C38 H45 0.929 . S
C39 O29 1.282 . S
C39 O40 1.216 . S
O40 C39 1.216 . S
H41 C36 0.930 . S
H42 C37 0.930 . S
O43 Cu23 1.959 . S
O43 C30 1.251 . S
H44 C27 0.930 . S
H45 C38 0.929 . S
Cu46 N47 1.999 . S
Cu46 O52 1.974 . S
Cu46 N57 1.985 . S
Cu46 O66 1.959 . S
N47 Cu46 1.999 . S
N47 C49 1.263 . S
N47 C51 1.389 . S
N48 C49 1.358 . S
N48 C50 1.400 . S
C49 N47 1.263 . S
C49 N48 1.358 . S
C49 H55 0.930 . S
C50 N48 1.400 . S
C50 C51 1.351 . S
C50 H67 0.930 1_554 S
C51 N47 1.389 . S
C51 C50 1.351 . S
C51 H56 0.930 . S
O52 Cu46 1.974 . S
O52 C62 1.282 . S
C53 O54 1.261 . S
C53 O66 1.251 . S
O54 C53 1.261 . S
H55 C49 0.930 . S
H56 C51 0.930 . S
N57 Cu46 1.985 . S
N57 C59 1.335 . S
N57 C60 1.390 . S
N58 C59 1.345 . S
N58 C61 1.336 . S
C59 N57 1.335 . S
C59 N58 1.345 . S
C59 H64 0.930 . S
C60 N57 1.390 . S
C60 C61 1.346 . S
C60 H65 0.930 . S
C61 N58 1.336 . S
C61 C60 1.346 . S
C61 H68 0.929 . S
C62 O52 1.282 . S
C62 O63 1.216 . S
O63 C62 1.216 . S
H64 C59 0.930 . S
H65 C60 0.930 . S
O66 Cu46 1.959 . S
O66 C53 1.251 . S
H67 C50 0.930 1_556 S
H68 C61 0.929 . S
Cu69 N70 1.999 . S
Cu69 O75 1.974 . S
Cu69 N80 1.985 . S
Cu69 O89 1.959 . S
N70 Cu69 1.999 . S
N70 C72 1.263 . S
N70 C74 1.389 . S
N71 C72 1.358 . S
N71 C73 1.400 1_554 S
C72 N70 1.263 . S
C72 N71 1.358 . S
C72 H78 0.930 . S
C73 N71 1.400 1_556 S
C73 C74 1.351 1_556 S
C73 H90 0.930 . S
C74 N70 1.389 . S
C74 C73 1.351 1_554 S
C74 H79 0.930 . S
O75 Cu69 1.974 . S
O75 C85 1.282 . S
C76 O77 1.261 . S
C76 O89 1.251 . S
O77 C76 1.261 . S
H78 C72 0.930 . S
H79 C74 0.930 . S
N80 Cu69 1.985 . S
N80 C82 1.335 1_455 S
N80 C83 1.390 . S
N81 C82 1.345 . S
N81 C84 1.336 1_655 S
C82 N80 1.335 1_655 S
C82 N81 1.345 . S
C82 H87 0.930 . S
C83 N80 1.390 . S
C83 C84 1.346 . S
C83 H88 0.930 . S
C84 N81 1.336 1_455 S
C84 C83 1.346 . S
C84 H91 0.929 . S
C85 O75 1.282 . S
C85 O86 1.216 . S
O86 C85 1.216 . S
H87 C82 0.930 . S
H88 C83 0.930 . S
O89 Cu69 1.959 . S
O89 C76 1.251 . S
H90 C73 0.930 . S
H91 C84 0.929 . S
Cu92 N93 1.999 1_554 S
Cu92 O98 1.974 . S
Cu92 N103 1.985 1_545 S
Cu92 O112 1.959 1_544 S
N93 Cu92 1.999 1_556 S
N93 C95 1.263 . S
N93 C97 1.389 . S
N94 C95 1.358 . S
N94 C96 1.400 . S
C95 N93 1.263 . S
C95 N94 1.358 . S
C95 H101 0.930 . S
C96 N94 1.400 . S
C96 C97 1.351 . S
C96 H113 0.930 . S
C97 N93 1.389 . S
C97 C96 1.351 . S
C97 H102 0.930 . S
O98 Cu92 1.974 . S
O98 C108 1.282 . S
C99 O100 1.261 . S
C99 O112 1.251 . S
O100 C99 1.261 . S
H101 C95 0.930 . S
H102 C97 0.930 . S
N103 Cu92 1.985 1_565 S
N103 C105 1.335 . S
N103 C106 1.390 . S
N104 C105 1.345 . S
N104 C107 1.336 . S
C105 N103 1.335 . S
C105 N104 1.345 . S
C105 H110 0.930 . S
C106 N103 1.390 . S
C106 C107 1.346 . S
C106 H111 0.930 . S
C107 N104 1.336 . S
C107 C106 1.346 . S
C107 H114 0.929 . S
C108 O98 1.282 . S
C108 O109 1.216 . S
O109 C108 1.216 . S
H110 C105 0.930 . S
H111 C106 0.930 . S
O112 Cu92 1.959 1_566 S
O112 C99 1.251 . S
H113 C96 0.930 . S
H114 C107 0.929 . S
Cu115 N116 1.999 1_454 S
Cu115 O121 1.974 1_455 S
Cu115 N126 1.985 . S
Cu115 O135 1.959 1_554 S
N116 Cu115 1.999 1_656 S
N116 C118 1.263 . S
N116 C120 1.389 . S
N117 C118 1.358 . S
N117 C119 1.400 . S
C118 N116 1.263 . S
C118 N117 1.358 . S
C118 H124 0.930 . S
C119 N117 1.400 . S
C119 C120 1.351 . S
C119 H136 0.930 . S
C120 N116 1.389 . S
C120 C119 1.351 . S
C120 H125 0.930 1_655 S
O121 Cu115 1.974 1_655 S
O121 C131 1.282 . S
C122 O123 1.261 . S
C122 O135 1.251 . S
O123 C122 1.261 . S
H124 C118 0.930 . S
H125 C120 0.930 1_455 S
N126 Cu115 1.985 . S
N126 C128 1.335 . S
N126 C129 1.390 . S
N127 C128 1.345 . S
N127 C130 1.336 . S
C128 N126 1.335 . S
C128 N127 1.345 . S
C128 H133 0.930 . S
C129 N126 1.390 . S
C129 C130 1.346 . S
C129 H134 0.930 . S
C130 N127 1.336 . S
C130 C129 1.346 . S
C130 H137 0.929 . S
C131 O121 1.282 . S
C131 O132 1.216 . S
O132 C131 1.216 . S
H133 C128 0.930 . S
H134 C129 0.930 . S
O135 Cu115 1.959 1_556 S
O135 C122 1.251 . S
H136 C119 0.930 . S
H137 C130 0.929 . S
Cu138 N139 1.999 . S
Cu138 O144 1.974 . S
Cu138 N149 1.985 . S
Cu138 O158 1.959 . S
N139 Cu138 1.999 . S
N139 C141 1.263 . S
N139 C143 1.389 . S
N140 C141 1.358 . S
N140 C142 1.400 . S
C141 N139 1.263 . S
C141 N140 1.358 . S
C141 H147 0.930 . S
C142 N140 1.400 . S
C142 C143 1.351 . S
C142 H159 0.930 . S
C143 N139 1.389 . S
C143 C142 1.351 . S
C143 H148 0.930 . S
O144 Cu138 1.974 . S
O144 C154 1.282 . S
C145 O146 1.261 . S
C145 O158 1.251 . S
O146 C145 1.261 . S
H147 C141 0.930 . S
H148 C143 0.930 . S
N149 Cu138 1.985 . S
N149 C151 1.335 . S
N149 C152 1.390 . S
N150 C151 1.345 . S
N150 C153 1.336 . S
C151 N149 1.335 . S
C151 N150 1.345 . S
C151 H156 0.930 . S
C152 N149 1.390 . S
C152 C153 1.346 . S
C152 H157 0.930 . S
C153 N150 1.336 . S
C153 C152 1.346 . S
C153 H160 0.929 . S
C154 O144 1.282 . S
C154 O155 1.216 . S
O155 C154 1.216 . S
H156 C151 0.930 . S
H157 C152 0.930 . S
O158 Cu138 1.959 . S
O158 C145 1.251 . S
H159 C142 0.930 . S
H160 C153 0.929 . S
Cu161 N162 1.999 . S
Cu161 O167 1.974 . S
Cu161 N172 1.985 . S
Cu161 O181 1.959 . S
N162 Cu161 1.999 . S
N162 C164 1.263 . S
N162 C166 1.389 . S
N163 C164 1.358 . S
N163 C165 1.400 . S
C164 N162 1.263 . S
C164 N163 1.358 . S
C164 H170 0.930 . S
C165 N163 1.400 . S
C165 C166 1.351 . S
C165 H182 0.930 . S
C166 N162 1.389 . S
C166 C165 1.351 . S
C166 H171 0.930 . S
O167 Cu161 1.974 . S
O167 C177 1.282 . S
C168 O169 1.261 . S
C168 O181 1.251 . S
O169 C168 1.261 . S
H170 C164 0.930 . S
H171 C166 0.930 . S
N172 Cu161 1.985 . S
N172 C174 1.335 . S
N172 C175 1.390 . S
N173 C174 1.345 . S
N173 C176 1.336 . S
C174 N172 1.335 . S
C174 N173 1.345 . S
C174 H179 0.930 . S
C175 N172 1.390 . S
C175 C176 1.346 . S
C175 H180 0.930 . S
C176 N173 1.336 . S
C176 C175 1.346 . S
C176 H183 0.929 . S
C177 O167 1.282 . S
C177 O178 1.216 . S
O178 C177 1.216 . S
H179 C174 0.930 . S
H180 C175 0.930 . S
O181 Cu161 1.959 . S
O181 C168 1.251 . S
H182 C165 0.930 . S
H183 C176 0.929 . S
Cu184 N185 1.999 . S
Cu184 O190 1.974 . S
Cu184 N195 1.985 . S
Cu184 O204 1.959 . S
N185 Cu184 1.999 . S
N185 C187 1.263 . S
N185 C189 1.389 . S
N186 C187 1.358 . S
N186 C188 1.400 . S
C187 N185 1.263 . S
C187 N186 1.358 . S
C187 H193 0.930 . S
C188 N186 1.400 . S
C188 C189 1.351 . S
C188 H205 0.930 . S
C189 N185 1.389 . S
C189 C188 1.351 . S
C189 H194 0.930 . S
O190 Cu184 1.974 . S
O190 C200 1.282 . S
C191 O192 1.261 . S
C191 O204 1.251 . S
O192 C191 1.261 . S
H193 C187 0.930 . S
H194 C189 0.930 . S
N195 Cu184 1.985 . S
N195 C197 1.335 . S
N195 C198 1.390 . S
N196 C197 1.345 . S
N196 C199 1.336 . S
C197 N195 1.335 . S
C197 N196 1.345 . S
C197 H202 0.930 . S
C198 N195 1.390 . S
C198 C199 1.346 . S
C198 H203 0.930 . S
C199 N196 1.336 . S
C199 C198 1.346 . S
C199 H206 0.929 . S
C200 O190 1.282 . S
C200 O201 1.216 . S
O201 C200 1.216 . S
H202 C197 0.930 . S
H203 C198 0.930 . S
O204 Cu184 1.959 . S
O204 C191 1.251 . S
H205 C188 0.930 . S
H206 C199 0.929 . S
Cu207 N208 1.999 . S
Cu207 O213 1.974 . S
Cu207 N218 1.985 . S
Cu207 O227 1.959 . S
N208 Cu207 1.999 . S
N208 C210 1.263 . S
N208 C212 1.389 . S
N209 C210 1.358 . S
N209 C211 1.400 . S
C210 N208 1.263 . S
C210 N209 1.358 . S
C210 H216 0.930 . S
C211 N209 1.400 . S
C211 C212 1.351 . S
C211 H228 0.930 . S
C212 N208 1.389 . S
C212 C211 1.351 . S
C212 H217 0.930 . S
O213 Cu207 1.974 . S
O213 C223 1.282 . S
C214 O215 1.261 . S
C214 O227 1.251 . S
O215 C214 1.261 . S
H216 C210 0.930 . S
H217 C212 0.930 . S
N218 Cu207 1.985 . S
N218 C220 1.335 . S
N218 C221 1.390 . S
N219 C220 1.345 . S
N219 C222 1.336 . S
C220 N218 1.335 . S
C220 N219 1.345 . S
C220 H225 0.930 . S
C221 N218 1.390 . S
C221 C222 1.346 . S
C221 H226 0.930 . S
C222 N219 1.336 . S
C222 C221 1.346 . S
C222 H229 0.929 . S
C223 O213 1.282 . S
C223 O224 1.216 . S
O224 C223 1.216 . S
H225 C220 0.930 . S
H226 C221 0.930 . S
O227 Cu207 1.959 . S
O227 C214 1.251 . S
H228 C211 0.930 . S
H229 C222 0.929 . S
Cu230 N231 1.999 . S
Cu230 O236 1.974 . S
Cu230 N241 1.985 . S
Cu230 O250 1.959 . S
N231 Cu230 1.999 . S
N231 C233 1.263 . S
N231 C235 1.389 . S
N232 C233 1.358 . S
N232 C234 1.400 . S
C233 N231 1.263 . S
C233 N232 1.358 . S
C233 H239 0.930 . S
C234 N232 1.400 . S
C234 C235 1.351 . S
C234 H251 0.930 . S
C235 N231 1.389 . S
C235 C234 1.351 . S
C235 H240 0.930 . S
O236 Cu230 1.974 . S
O236 C246 1.282 . S
C237 O238 1.261 . S
C237 O250 1.251 . S
O238 C237 1.261 . S
H239 C233 0.930 . S
H240 C235 0.930 . S
N241 Cu230 1.985 . S
N241 C243 1.335 . S
N241 C244 1.390 . S
N242 C243 1.345 . S
N242 C245 1.336 . S
C243 N241 1.335 . S
C243 N242 1.345 . S
C243 H248 0.930 . S
C244 N241 1.390 . S
C244 C245 1.346 . S
C244 H249 0.930 . S
C245 N242 1.336 . S
C245 C244 1.346 . S
C245 H252 0.929 . S
C246 O236 1.282 . S
C246 O247 1.216 . S
O247 C246 1.216 . S
H248 C243 0.930 . S
H249 C244 0.930 . S
O250 Cu230 1.959 . S
O250 C237 1.251 . S
H251 C234 0.930 . S
H252 C245 0.929 . S
Cu253 N254 1.999 . S
Cu253 O259 1.974 . S
Cu253 N264 1.985 . S
Cu253 O273 1.959 . S
N254 Cu253 1.999 . S
N254 C256 1.263 . S
N254 C258 1.389 . S
N255 C256 1.358 . S
N255 C257 1.400 . S
C256 N254 1.263 . S
C256 N255 1.358 . S
C256 H262 0.930 . S
C257 N255 1.400 . S
C257 C258 1.351 . S
C257 H274 0.930 . S
C258 N254 1.389 . S
C258 C257 1.351 . S
C258 H263 0.930 . S
O259 Cu253 1.974 . S
O259 C269 1.282 . S
C260 O261 1.261 . S
C260 O273 1.251 . S
O261 C260 1.261 . S
H262 C256 0.930 . S
H263 C258 0.930 . S
N264 Cu253 1.985 . S
N264 C266 1.335 . S
N264 C267 1.390 . S
N265 C266 1.345 . S
N265 C268 1.336 . S
C266 N264 1.335 . S
C266 N265 1.345 . S
C266 H271 0.930 . S
C267 N264 1.390 . S
C267 C268 1.346 . S
C267 H272 0.930 . S
C268 N265 1.336 . S
C268 C267 1.346 . S
C268 H275 0.929 . S
C269 O259 1.282 . S
C269 O270 1.216 . S
O270 C269 1.216 . S
H271 C266 0.930 . S
H272 C267 0.930 . S
O273 Cu253 1.959 . S
O273 C260 1.251 . S
H274 C257 0.930 . S
H275 C268 0.929 . S
Tb276 C285 2.764 . S
Tb276 O286 2.325 . S
Tb276 O289 2.303 . S
Tb276 O293 2.322 . S
Tb276 O294 2.349 . S
Tb276 O297 2.415 . S
Tb276 O298 2.399 . S
Tb277 O287 2.322 . S
Tb277 O288 2.349 . S
Tb277 O290 2.415 . S
Tb277 O291 2.399 . S
Tb277 O292 2.325 . S
Tb277 O295 2.303 . S
Tb277 C306 2.764 . S
C278 O294 1.261 . S
C278 O295 1.257 . S
C279 C282 1.358 . S
C279 C283 1.332 . S
C279 C285 1.504 . S
C280 C281 1.373 . S
C280 C284 1.308 . S
C281 C280 1.373 . S
C281 C282 1.429 . S
C281 H308 0.932 . S
C282 C279 1.358 . S
C282 C281 1.429 . S
C282 H309 0.930 . S
C283 C279 1.332 . S
C283 C284 1.394 . S
C283 H310 0.932 . S
C284 C280 1.308 . S
C284 C283 1.394 . S
C284 H311 0.929 . S
C285 Tb276 2.764 . S
C285 C279 1.504 . S
C285 O297 1.239 . S
C285 O298 1.263 . S
O286 Tb276 2.325 . S
O286 C296 1.236 . S
O287 Tb277 2.322 . S
O287 C296 1.257 . S
O288 Tb277 2.349 . S
O288 C299 1.261 . S
O289 Tb276 2.303 . S
O289 C299 1.257 . S
O290 Tb277 2.415 . S
O290 C306 1.239 . S
O291 Tb277 2.399 . S
O291 C306 1.263 . S
O292 Tb277 2.325 . S
O292 C307 1.236 . S
O293 Tb276 2.322 . S
O293 C307 1.257 . S
O294 Tb276 2.349 . S
O294 C278 1.261 . S
O295 Tb277 2.303 . S
O295 C278 1.257 . S
C296 O286 1.236 . S
C296 O287 1.257 . S
O297 Tb276 2.415 . S
O297 C285 1.239 . S
O298 Tb276 2.399 . S
O298 C285 1.263 . S
C299 O288 1.261 . S
C299 O289 1.257 . S
C300 C303 1.358 . S
C300 C304 1.332 . S
C300 C306 1.504 . S
C301 C302 1.373 . S
C301 C305 1.308 . S
C302 C301 1.373 . S
C302 C303 1.429 . S
C302 H312 0.932 . S
C303 C300 1.358 . S
C303 C302 1.429 . S
C303 H313 0.930 . S
C304 C300 1.332 . S
C304 C305 1.394 . S
C304 H314 0.932 . S
C305 C301 1.308 . S
C305 C304 1.394 . S
C305 H315 0.929 . S
C306 Tb277 2.764 . S
C306 O290 1.239 . S
C306 O291 1.263 . S
C306 C300 1.504 . S
C307 O292 1.236 . S
C307 O293 1.257 . S
H308 C281 0.932 . S
H309 C282 0.930 . S
H310 C283 0.932 . S
H311 C284 0.929 . S
H312 C302 0.932 . S
H313 C303 0.930 . S
H314 C304 0.932 . S
H315 C305 0.929 . S
Tb316 C325 2.764 . S
Tb316 O326 2.325 . S
Tb316 O329 2.303 . S
Tb316 O333 2.322 . S
Tb316 O334 2.349 . S
Tb316 O337 2.415 . S
Tb316 O338 2.399 . S
Tb317 O327 2.322 . S
Tb317 O328 2.349 . S
Tb317 O330 2.415 . S
Tb317 O331 2.399 . S
Tb317 O332 2.325 . S
Tb317 O335 2.303 . S
Tb317 C346 2.764 . S
C318 O334 1.261 . S
C318 O335 1.257 . S
C319 C322 1.358 . S
C319 C323 1.332 . S
C319 C325 1.504 . S
C320 C321 1.373 . S
C320 C324 1.308 . S
C321 C320 1.373 . S
C321 C322 1.429 . S
C321 H348 0.932 . S
C322 C319 1.358 . S
C322 C321 1.429 . S
C322 H349 0.930 . S
C323 C319 1.332 . S
C323 C324 1.394 . S
C323 H350 0.932 . S
C324 C320 1.308 . S
C324 C323 1.394 . S
C324 H351 0.929 . S
C325 Tb316 2.764 . S
C325 C319 1.504 . S
C325 O337 1.239 . S
C325 O338 1.263 . S
O326 Tb316 2.325 . S
O326 C336 1.236 . S
O327 Tb317 2.322 . S
O327 C336 1.257 . S
O328 Tb317 2.349 . S
O328 C339 1.261 . S
O329 Tb316 2.303 . S
O329 C339 1.257 . S
O330 Tb317 2.415 . S
O330 C346 1.239 . S
O331 Tb317 2.399 . S
O331 C346 1.263 . S
O332 Tb317 2.325 . S
O332 C347 1.236 . S
O333 Tb316 2.322 . S
O333 C347 1.257 . S
O334 Tb316 2.349 . S
O334 C318 1.261 . S
O335 Tb317 2.303 . S
O335 C318 1.257 . S
C336 O326 1.236 . S
C336 O327 1.257 . S
O337 Tb316 2.415 . S
O337 C325 1.239 . S
O338 Tb316 2.399 . S
O338 C325 1.263 . S
C339 O328 1.261 . S
C339 O329 1.257 . S
C340 C343 1.358 . S
C340 C344 1.332 . S
C340 C346 1.504 . S
C341 C342 1.373 . S
C341 C345 1.308 . S
C342 C341 1.373 . S
C342 C343 1.429 . S
C342 H352 0.932 . S
C343 C340 1.358 . S
C343 C342 1.429 . S
C343 H353 0.930 . S
C344 C340 1.332 . S
C344 C345 1.394 . S
C344 H354 0.932 . S
C345 C341 1.308 . S
C345 C344 1.394 . S
C345 H355 0.929 . S
C346 Tb317 2.764 . S
C346 O330 1.239 . S
C346 O331 1.263 . S
C346 C340 1.504 . S
C347 O332 1.236 . S
C347 O333 1.257 . S
H348 C321 0.932 . S
H349 C322 0.930 . S
H350 C323 0.932 . S
H351 C324 0.929 . S
H352 C342 0.932 . S
H353 C343 0.930 . S
H354 C344 0.932 . S
H355 C345 0.929 . S
Tb356 C365 2.764 . S
Tb356 O366 2.325 . S
Tb356 O369 2.303 . S
Tb356 O373 2.322 . S
Tb356 O374 2.349 . S
Tb356 O377 2.415 . S
Tb356 O378 2.399 . S
Tb357 O367 2.322 . S
Tb357 O368 2.349 . S
Tb357 O370 2.415 . S
Tb357 O371 2.399 . S
Tb357 O372 2.325 . S
Tb357 O375 2.303 . S
Tb357 C386 2.764 . S
C358 O374 1.261 . S
C358 O375 1.257 . S
C359 C362 1.358 . S
C359 C363 1.332 . S
C359 C365 1.504 . S
C360 C361 1.373 . S
C360 C364 1.308 . S
C361 C360 1.373 . S
C361 C362 1.429 . S
C361 H388 0.932 . S
C362 C359 1.358 . S
C362 C361 1.429 . S
C362 H389 0.930 . S
C363 C359 1.332 . S
C363 C364 1.394 . S
C363 H390 0.932 . S
C364 C360 1.308 . S
C364 C363 1.394 . S
C364 H391 0.929 . S
C365 Tb356 2.764 . S
C365 C359 1.504 . S
C365 O377 1.239 . S
C365 O378 1.263 . S
O366 Tb356 2.325 . S
O366 C376 1.236 . S
O367 Tb357 2.322 . S
O367 C376 1.257 . S
O368 Tb357 2.349 . S
O368 C379 1.261 . S
O369 Tb356 2.303 . S
O369 C379 1.257 . S
O370 Tb357 2.415 . S
O370 C386 1.239 . S
O371 Tb357 2.399 . S
O371 C386 1.263 . S
O372 Tb357 2.325 . S
O372 C387 1.236 . S
O373 Tb356 2.322 . S
O373 C387 1.257 . S
O374 Tb356 2.349 . S
O374 C358 1.261 . S
O375 Tb357 2.303 . S
O375 C358 1.257 . S
C376 O366 1.236 . S
C376 O367 1.257 . S
O377 Tb356 2.415 . S
O377 C365 1.239 . S
O378 Tb356 2.399 . S
O378 C365 1.263 . S
C379 O368 1.261 . S
C379 O369 1.257 . S
C380 C383 1.358 . S
C380 C384 1.332 . S
C380 C386 1.504 . S
C381 C382 1.373 . S
C381 C385 1.308 . S
C382 C381 1.373 . S
C382 C383 1.429 . S
C382 H392 0.932 . S
C383 C380 1.358 . S
C383 C382 1.429 . S
C383 H393 0.930 . S
C384 C380 1.332 . S
C384 C385 1.394 . S
C384 H394 0.932 . S
C385 C381 1.308 . S
C385 C384 1.394 . S
C385 H395 0.929 . S
C386 Tb357 2.764 . S
C386 O370 1.239 . S
C386 O371 1.263 . S
C386 C380 1.504 . S
C387 O372 1.236 . S
C387 O373 1.257 . S
H388 C361 0.932 . S
H389 C362 0.930 . S
H390 C363 0.932 . S
H391 C364 0.929 . S
H392 C382 0.932 . S
H393 C383 0.930 . S
H394 C384 0.932 . S
H395 C385 0.929 . S
Tb396 C405 2.764 . S
Tb396 O406 2.325 . S
Tb396 O409 2.303 . S
Tb396 O413 2.322 . S
Tb396 O414 2.349 . S
Tb396 O417 2.415 . S
Tb396 O418 2.399 . S
Tb397 O407 2.322 . S
Tb397 O408 2.349 . S
Tb397 O410 2.415 . S
Tb397 O411 2.399 . S
Tb397 O412 2.325 . S
Tb397 O415 2.303 . S
Tb397 C426 2.764 . S
C398 O414 1.261 . S
C398 O415 1.257 . S
C399 C402 1.358 . S
C399 C403 1.332 . S
C399 C405 1.504 . S
C400 C401 1.373 . S
C400 C404 1.308 . S
C401 C400 1.373 . S
C401 C402 1.429 . S
C401 H428 0.932 . S
C402 C399 1.358 . S
C402 C401 1.429 . S
C402 H429 0.930 . S
C403 C399 1.332 . S
C403 C404 1.394 . S
C403 H430 0.932 . S
C404 C400 1.308 . S
C404 C403 1.394 . S
C404 H431 0.929 . S
C405 Tb396 2.764 . S
C405 C399 1.504 . S
C405 O417 1.239 . S
C405 O418 1.263 . S
O406 Tb396 2.325 . S
O406 C416 1.236 . S
O407 Tb397 2.322 . S
O407 C416 1.257 . S
O408 Tb397 2.349 . S
O408 C419 1.261 . S
O409 Tb396 2.303 . S
O409 C419 1.257 . S
O410 Tb397 2.415 . S
O410 C426 1.239 . S
O411 Tb397 2.399 . S
O411 C426 1.263 . S
O412 Tb397 2.325 . S
O412 C427 1.236 . S
O413 Tb396 2.322 . S
O413 C427 1.257 . S
O414 Tb396 2.349 . S
O414 C398 1.261 . S
O415 Tb397 2.303 . S
O415 C398 1.257 . S
C416 O406 1.236 . S
C416 O407 1.257 . S
O417 Tb396 2.415 . S
O417 C405 1.239 . S
O418 Tb396 2.399 . S
O418 C405 1.263 . S
C419 O408 1.261 . S
C419 O409 1.257 . S
C420 C423 1.358 . S
C420 C424 1.332 . S
C420 C426 1.504 . S
C421 C422 1.373 . S
C421 C425 1.308 . S
C422 C421 1.373 . S
C422 C423 1.429 . S
C422 H432 0.932 . S
C423 C420 1.358 . S
C423 C422 1.429 . S
C423 H433 0.930 . S
C424 C420 1.332 . S
C424 C425 1.394 . S
C424 H434 0.932 . S
C425 C421 1.308 . S
C425 C424 1.394 . S
C425 H435 0.929 . S
C426 Tb397 2.764 . S
C426 O410 1.239 . S
C426 O411 1.263 . S
C426 C420 1.504 . S
C427 O412 1.236 . S
C427 O413 1.257 . S
H428 C401 0.932 . S
H429 C402 0.930 . S
H430 C403 0.932 . S
H431 C404 0.929 . S
H432 C422 0.932 . S
H433 C423 0.930 . S
H434 C424 0.932 . S
H435 C425 0.929 . S
Tb436 C445 2.764 . S
Tb436 O446 2.325 . S
Tb436 O449 2.303 . S
Tb436 O453 2.322 . S
Tb436 O454 2.349 . S
Tb436 O457 2.415 . S
Tb436 O458 2.399 . S
Tb437 O447 2.322 . S
Tb437 O448 2.349 . S
Tb437 O450 2.415 . S
Tb437 O451 2.399 . S
Tb437 O452 2.325 . S
Tb437 O455 2.303 . S
Tb437 C466 2.764 . S
C438 O454 1.261 . S
C438 O455 1.257 . S
C439 C442 1.358 . S
C439 C443 1.332 . S
C439 C445 1.504 . S
C440 C441 1.373 . S
C440 C444 1.308 . S
C441 C440 1.373 . S
C441 C442 1.429 . S
C441 H468 0.932 . S
C442 C439 1.358 . S
C442 C441 1.429 . S
C442 H469 0.930 . S
C443 C439 1.332 . S
C443 C444 1.394 . S
C443 H470 0.932 . S
C444 C440 1.308 . S
C444 C443 1.394 . S
C444 H471 0.929 . S
C445 Tb436 2.764 . S
C445 C439 1.504 . S
C445 O457 1.239 . S
C445 O458 1.263 . S
O446 Tb436 2.325 . S
O446 C456 1.236 . S
O447 Tb437 2.322 . S
O447 C456 1.257 . S
O448 Tb437 2.349 . S
O448 C459 1.261 . S
O449 Tb436 2.303 . S
O449 C459 1.257 . S
O450 Tb437 2.415 . S
O450 C466 1.239 . S
O451 Tb437 2.399 . S
O451 C466 1.263 . S
O452 Tb437 2.325 . S
O452 C467 1.236 . S
O453 Tb436 2.322 . S
O453 C467 1.257 . S
O454 Tb436 2.349 . S
O454 C438 1.261 . S
O455 Tb437 2.303 . S
O455 C438 1.257 . S
C456 O446 1.236 . S
C456 O447 1.257 . S
O457 Tb436 2.415 . S
O457 C445 1.239 . S
O458 Tb436 2.399 . S
O458 C445 1.263 . S
C459 O448 1.261 . S
C459 O449 1.257 . S
C460 C463 1.358 . S
C460 C464 1.332 . S
C460 C466 1.504 . S
C461 C462 1.373 . S
C461 C465 1.308 . S
C462 C461 1.373 . S
C462 C463 1.429 . S
C462 H472 0.932 . S
C463 C460 1.358 . S
C463 C462 1.429 . S
C463 H473 0.930 . S
C464 C460 1.332 . S
C464 C465 1.394 . S
C464 H474 0.932 . S
C465 C461 1.308 . S
C465 C464 1.394 . S
C465 H475 0.929 . S
C466 Tb437 2.764 . S
C466 O450 1.239 . S
C466 O451 1.263 . S
C466 C460 1.504 . S
C467 O452 1.236 . S
C467 O453 1.257 . S
H468 C441 0.932 . S
H469 C442 0.930 . S
H470 C443 0.932 . S
H471 C444 0.929 . S
H472 C462 0.932 . S
H473 C463 0.930 . S
H474 C464 0.932 . S
H475 C465 0.929 . S
Tb476 C485 2.764 . S
Tb476 O486 2.325 . S
Tb476 O489 2.303 . S
Tb476 O493 2.322 . S
Tb476 O494 2.349 . S
Tb476 O497 2.415 . S
Tb476 O498 2.399 . S
Tb477 O487 2.322 . S
Tb477 O488 2.349 . S
Tb477 O490 2.415 . S
Tb477 O491 2.399 . S
Tb477 O492 2.325 . S
Tb477 O495 2.303 . S
Tb477 C506 2.764 . S
C478 O494 1.261 . S
C478 O495 1.257 . S
C479 C482 1.358 . S
C479 C483 1.332 . S
C479 C485 1.504 . S
C480 C481 1.373 . S
C480 C484 1.308 . S
C481 C480 1.373 . S
C481 C482 1.429 . S
C481 H508 0.932 . S
C482 C479 1.358 . S
C482 C481 1.429 . S
C482 H509 0.930 . S
C483 C479 1.332 . S
C483 C484 1.394 . S
C483 H510 0.932 . S
C484 C480 1.308 . S
C484 C483 1.394 . S
C484 H511 0.929 . S
C485 Tb476 2.764 . S
C485 C479 1.504 . S
C485 O497 1.239 . S
C485 O498 1.263 . S
O486 Tb476 2.325 . S
O486 C496 1.236 . S
O487 Tb477 2.322 . S
O487 C496 1.257 . S
O488 Tb477 2.349 . S
O488 C499 1.261 . S
O489 Tb476 2.303 . S
O489 C499 1.257 . S
O490 Tb477 2.415 . S
O490 C506 1.239 . S
O491 Tb477 2.399 . S
O491 C506 1.263 . S
O492 Tb477 2.325 . S
O492 C507 1.236 . S
O493 Tb476 2.322 . S
O493 C507 1.257 . S
O494 Tb476 2.349 . S
O494 C478 1.261 . S
O495 Tb477 2.303 . S
O495 C478 1.257 . S
C496 O486 1.236 . S
C496 O487 1.257 . S
O497 Tb476 2.415 . S
O497 C485 1.239 . S
O498 Tb476 2.399 . S
O498 C485 1.263 . S
C499 O488 1.261 . S
C499 O489 1.257 . S
C500 C503 1.358 . S
C500 C504 1.332 . S
C500 C506 1.504 . S
C501 C502 1.373 . S
C501 C505 1.308 . S
C502 C501 1.373 . S
C502 C503 1.429 . S
C502 H512 0.932 . S
C503 C500 1.358 . S
C503 C502 1.429 . S
C503 H513 0.930 . S
C504 C500 1.332 . S
C504 C505 1.394 . S
C504 H514 0.932 . S
C505 C501 1.308 . S
C505 C504 1.394 . S
C505 H515 0.929 . S
C506 Tb477 2.764 . S
C506 O490 1.239 . S
C506 O491 1.263 . S
C506 C500 1.504 . S
C507 O492 1.236 . S
C507 O493 1.257 . S
H508 C481 0.932 . S
H509 C482 0.930 . S
H510 C483 0.932 . S
H511 C484 0.929 . S
H512 C502 0.932 . S
H513 C503 0.930 . S
H514 C504 0.932 . S
H515 C505 0.929 . S
Tb516 C525 2.764 . S
Tb516 O526 2.325 . S
Tb516 O529 2.303 . S
Tb516 O533 2.322 . S
Tb516 O534 2.349 . S
Tb516 O537 2.415 . S
Tb516 O538 2.399 . S
Tb517 O527 2.322 . S
Tb517 O528 2.349 . S
Tb517 O530 2.415 . S
Tb517 O531 2.399 . S
Tb517 O532 2.325 . S
Tb517 O535 2.303 . S
Tb517 C546 2.764 . S
C518 O534 1.261 . S
C518 O535 1.257 . S
C519 C522 1.358 . S
C519 C523 1.332 . S
C519 C525 1.504 . S
C520 C521 1.373 . S
C520 C524 1.308 . S
C521 C520 1.373 . S
C521 C522 1.429 . S
C521 H548 0.932 . S
C522 C519 1.358 . S
C522 C521 1.429 . S
C522 H549 0.930 . S
C523 C519 1.332 . S
C523 C524 1.394 . S
C523 H550 0.932 . S
C524 C520 1.308 . S
C524 C523 1.394 . S
C524 H551 0.929 . S
C525 Tb516 2.764 . S
C525 C519 1.504 . S
C525 O537 1.239 . S
C525 O538 1.263 . S
O526 Tb516 2.325 . S
O526 C536 1.236 . S
O527 Tb517 2.322 . S
O527 C536 1.257 . S
O528 Tb517 2.349 . S
O528 C539 1.261 . S
O529 Tb516 2.303 . S
O529 C539 1.257 . S
O530 Tb517 2.415 . S
O530 C546 1.239 . S
O531 Tb517 2.399 . S
O531 C546 1.263 . S
O532 Tb517 2.325 . S
O532 C547 1.236 . S
O533 Tb516 2.322 . S
O533 C547 1.257 . S
O534 Tb516 2.349 . S
O534 C518 1.261 . S
O535 Tb517 2.303 . S
O535 C518 1.257 . S
C536 O526 1.236 . S
C536 O527 1.257 . S
O537 Tb516 2.415 . S
O537 C525 1.239 . S
O538 Tb516 2.399 . S
O538 C525 1.263 . S
C539 O528 1.261 . S
C539 O529 1.257 . S
C540 C543 1.358 . S
C540 C544 1.332 . S
C540 C546 1.504 . S
C541 C542 1.373 . S
C541 C545 1.308 . S
C542 C541 1.373 . S
C542 C543 1.429 . S
C542 H552 0.932 . S
C543 C540 1.358 . S
C543 C542 1.429 . S
C543 H553 0.930 . S
C544 C540 1.332 . S
C544 C545 1.394 . S
C544 H554 0.932 . S
C545 C541 1.308 . S
C545 C544 1.394 . S
C545 H555 0.929 . S
C546 Tb517 2.764 . S
C546 O530 1.239 . S
C546 O531 1.263 . S
C546 C540 1.504 . S
C547 O532 1.236 . S
C547 O533 1.257 . S
H548 C521 0.932 . S
H549 C522 0.930 . S
H550 C523 0.932 . S
H551 C524 0.929 . S
H552 C542 0.932 . S
H553 C543 0.930 . S
H554 C544 0.932 . S
H555 C545 0.929 . S
Tb556 C565 2.764 . S
Tb556 O566 2.325 . S
Tb556 O569 2.303 . S
Tb556 O573 2.322 . S
Tb556 O574 2.349 . S
Tb556 O577 2.415 . S
Tb556 O578 2.399 . S
Tb557 O567 2.322 . S
Tb557 O568 2.349 . S
Tb557 O570 2.415 . S
Tb557 O571 2.399 . S
Tb557 O572 2.325 . S
Tb557 O575 2.303 . S
Tb557 C586 2.764 . S
C558 O574 1.261 . S
C558 O575 1.257 . S
C559 C562 1.358 . S
C559 C563 1.332 . S
C559 C565 1.504 . S
C560 C561 1.373 . S
C560 C564 1.308 . S
C561 C560 1.373 . S
C561 C562 1.429 . S
C561 H588 0.932 . S
C562 C559 1.358 . S
C562 C561 1.429 . S
C562 H589 0.930 . S
C563 C559 1.332 . S
C563 C564 1.394 . S
C563 H590 0.932 . S
C564 C560 1.308 . S
C564 C563 1.394 . S
C564 H591 0.929 . S
C565 Tb556 2.764 . S
C565 C559 1.504 . S
C565 O577 1.239 . S
C565 O578 1.263 . S
O566 Tb556 2.325 . S
O566 C576 1.236 . S
O567 Tb557 2.322 . S
O567 C576 1.257 . S
O568 Tb557 2.349 . S
O568 C579 1.261 . S
O569 Tb556 2.303 . S
O569 C579 1.257 . S
O570 Tb557 2.415 . S
O570 C586 1.239 . S
O571 Tb557 2.399 . S
O571 C586 1.263 . S
O572 Tb557 2.325 . S
O572 C587 1.236 . S
O573 Tb556 2.322 . S
O573 C587 1.257 . S
O574 Tb556 2.349 . S
O574 C558 1.261 . S
O575 Tb557 2.303 . S
O575 C558 1.257 . S
C576 O566 1.236 . S
C576 O567 1.257 . S
O577 Tb556 2.415 . S
O577 C565 1.239 . S
O578 Tb556 2.399 . S
O578 C565 1.263 . S
C579 O568 1.261 . S
C579 O569 1.257 . S
C580 C583 1.358 . S
C580 C584 1.332 . S
C580 C586 1.504 . S
C581 C582 1.373 . S
C581 C585 1.308 . S
C582 C581 1.373 . S
C582 C583 1.429 . S
C582 H592 0.932 . S
C583 C580 1.358 . S
C583 C582 1.429 . S
C583 H593 0.930 . S
C584 C580 1.332 . S
C584 C585 1.394 . S
C584 H594 0.932 . S
C585 C581 1.308 . S
C585 C584 1.394 . S
C585 H595 0.929 . S
C586 Tb557 2.764 . S
C586 O570 1.239 . S
C586 O571 1.263 . S
C586 C580 1.504 . S
C587 O572 1.236 . S
C587 O573 1.257 . S
H588 C561 0.932 . S
H589 C562 0.930 . S
H590 C563 0.932 . S
H591 C564 0.929 . S
H592 C582 0.932 . S
H593 C583 0.930 . S
H594 C584 0.932 . S
H595 C585 0.929 . S
H596 C608 0.930 . S
H597 C610 0.930 . S
H598 C611 0.930 . S
H599 C615 0.959 . S
H600 C615 0.959 . S
H601 C615 0.961 . S
H602 C616 0.960 . S
H603 C616 0.961 . S
H604 C616 0.959 . S
H605 C619 0.929 . S
H606 C620 0.931 . S
H607 C622 0.930 . S
C608 H596 0.930 . S
C608 C609 1.399 . S
C608 C613 1.399 . S
C609 C608 1.399 . S
C609 C610 1.376 . S
C610 H597 0.930 . S
C610 C609 1.376 . S
C610 C611 1.388 . S
C611 H598 0.930 . S
C611 C610 1.388 . S
C611 C612 1.390 . S
C612 C611 1.390 . S
C612 C613 1.394 . S
C612 C618 1.465 . S
C613 C608 1.399 . S
C613 C612 1.394 . S
C613 C614 1.516 . S
C614 C613 1.516 . S
C614 C615 1.502 . S
C614 C616 1.561 . S
C614 C617 1.526 . S
C615 H599 0.959 . S
C615 H600 0.959 . S
C615 H601 0.961 . S
C615 C614 1.502 . S
C616 H602 0.960 . S
C616 H603 0.961 . S
C616 H604 0.959 . S
C616 C614 1.561 . S
C617 C614 1.526 . S
C617 C618 1.396 . S
C617 C622 1.390 . S
C618 C612 1.465 . S
C618 C617 1.396 . S
C618 C619 1.399 . S
C619 H605 0.929 . S
C619 C618 1.399 . S
C619 C620 1.385 . S
C620 H606 0.931 . S
C620 C619 1.385 . S
C620 C621 1.389 . S
C621 C620 1.389 . S
C621 C622 1.387 . S
C622 H607 0.930 . S
C622 C617 1.390 . S
C622 C621 1.387 . S
H623 C635 0.930 . S
H624 C637 0.930 . S
H625 C638 0.930 . S
H626 C642 0.959 . S
H627 C642 0.959 . S
H628 C642 0.961 . S
H629 C643 0.960 . S
H630 C643 0.961 . S
H631 C643 0.959 . S
H632 C646 0.929 . S
H633 C647 0.931 . S
H634 C649 0.930 . S
C635 H623 0.930 . S
C635 C636 1.399 . S
C635 C640 1.399 . S
C636 C635 1.399 . S
C636 C637 1.376 . S
C637 H624 0.930 . S
C637 C636 1.376 . S
C637 C638 1.388 . S
C638 H625 0.930 . S
C638 C637 1.388 . S
C638 C639 1.390 . S
C639 C638 1.390 . S
C639 C640 1.394 . S
C639 C645 1.465 . S
C640 C635 1.399 . S
C640 C639 1.394 . S
C640 C641 1.516 . S
C641 C640 1.516 . S
C641 C642 1.502 . S
C641 C643 1.561 . S
C641 C644 1.526 . S
C642 H626 0.959 . S
C642 H627 0.959 . S
C642 H628 0.961 . S
C642 C641 1.502 . S
C643 H629 0.960 . S
C643 H630 0.961 . S
C643 H631 0.959 . S
C643 C641 1.561 . S
C644 C641 1.526 . S
C644 C645 1.396 . S
C644 C649 1.390 . S
C645 C639 1.465 . S
C645 C644 1.396 . S
C645 C646 1.399 . S
C646 H632 0.929 . S
C646 C645 1.399 . S
C646 C647 1.385 . S
C647 H633 0.931 . S
C647 C646 1.385 . S
C647 C648 1.389 . S
C648 C647 1.389 . S
C648 C649 1.387 . S
C649 H634 0.930 . S
C649 C644 1.390 . S
C649 C648 1.387 . S
H650 C662 0.930 . S
H651 C664 0.930 . S
H652 C665 0.930 . S
H653 C669 0.959 . S
H654 C669 0.959 . S
H655 C669 0.961 . S
H656 C670 0.960 . S
H657 C670 0.961 . S
H658 C670 0.959 . S
H659 C673 0.929 . S
H660 C674 0.931 . S
H661 C676 0.930 . S
C662 H650 0.930 . S
C662 C663 1.399 . S
C662 C667 1.399 . S
C663 C662 1.399 . S
C663 C664 1.376 . S
C664 H651 0.930 . S
C664 C663 1.376 . S
C664 C665 1.388 . S
C665 H652 0.930 . S
C665 C664 1.388 . S
C665 C666 1.390 . S
C666 C665 1.390 . S
C666 C667 1.394 . S
C666 C672 1.465 . S
C667 C662 1.399 . S
C667 C666 1.394 . S
C667 C668 1.516 . S
C668 C667 1.516 . S
C668 C669 1.502 . S
C668 C670 1.561 . S
C668 C671 1.526 . S
C669 H653 0.959 . S
C669 H654 0.959 . S
C669 H655 0.961 . S
C669 C668 1.502 . S
C670 H656 0.960 . S
C670 H657 0.961 . S
C670 H658 0.959 . S
C670 C668 1.561 . S
C671 C668 1.526 . S
C671 C672 1.396 . S
C671 C676 1.390 . S
C672 C666 1.465 . S
C672 C671 1.396 . S
C672 C673 1.399 . S
C673 H659 0.929 . S
C673 C672 1.399 . S
C673 C674 1.385 . S
C674 H660 0.931 . S
C674 C673 1.385 . S
C674 C675 1.389 . S
C675 C674 1.389 . S
C675 C676 1.387 . S
C676 H661 0.930 . S
C676 C671 1.390 . S
C676 C675 1.387 . S
H677 C689 0.930 . S
H678 C691 0.930 . S
H679 C692 0.930 . S
H680 C696 0.959 . S
H681 C696 0.959 . S
H682 C696 0.961 . S
H683 C697 0.960 . S
H684 C697 0.961 . S
H685 C697 0.959 . S
H686 C700 0.929 . S
H687 C701 0.931 . S
H688 C703 0.930 . S
C689 H677 0.930 . S
C689 C690 1.399 . S
C689 C694 1.399 . S
C690 C689 1.399 . S
C690 C691 1.376 . S
C691 H678 0.930 . S
C691 C690 1.376 . S
C691 C692 1.388 . S
C692 H679 0.930 . S
C692 C691 1.388 . S
C692 C693 1.390 . S
C693 C692 1.390 . S
C693 C694 1.394 . S
C693 C699 1.465 . S
C694 C689 1.399 . S
C694 C693 1.394 . S
C694 C695 1.516 . S
C695 C694 1.516 . S
C695 C696 1.502 . S
C695 C697 1.561 . S
C695 C698 1.526 . S
C696 H680 0.959 . S
C696 H681 0.959 . S
C696 H682 0.961 . S
C696 C695 1.502 . S
C697 H683 0.960 . S
C697 H684 0.961 . S
C697 H685 0.959 . S
C697 C695 1.561 . S
C698 C695 1.526 . S
C698 C699 1.396 . S
C698 C703 1.390 . S
C699 C693 1.465 . S
C699 C698 1.396 . S
C699 C700 1.399 . S
C700 H686 0.929 . S
C700 C699 1.399 . S
C700 C701 1.385 . S
C701 H687 0.931 . S
C701 C700 1.385 . S
C701 C702 1.389 . S
C702 C701 1.389 . S
C702 C703 1.387 . S
C703 H688 0.930 . S
C703 C698 1.390 . S
C703 C702 1.387 . S
H704 C716 0.930 . S
H705 C718 0.930 . S
H706 C719 0.930 . S
H707 C723 0.959 . S
H708 C723 0.959 . S
H709 C723 0.961 . S
H710 C724 0.960 . S
H711 C724 0.961 . S
H712 C724 0.959 . S
H713 C727 0.929 . S
H714 C728 0.931 . S
H715 C730 0.930 . S
C716 H704 0.930 . S
C716 C717 1.399 . S
C716 C721 1.399 . S
C717 C716 1.399 . S
C717 C718 1.376 . S
C718 H705 0.930 . S
C718 C717 1.376 . S
C718 C719 1.388 . S
C719 H706 0.930 . S
C719 C718 1.388 . S
C719 C720 1.390 . S
C720 C719 1.390 . S
C720 C721 1.394 . S
C720 C726 1.465 . S
C721 C716 1.399 . S
C721 C720 1.394 . S
C721 C722 1.516 . S
C722 C721 1.516 . S
C722 C723 1.502 . S
C722 C724 1.561 . S
C722 C725 1.526 . S
C723 H707 0.959 . S
C723 H708 0.959 . S
C723 H709 0.961 . S
C723 C722 1.502 . S
C724 H710 0.960 . S
C724 H711 0.961 . S
C724 H712 0.959 . S
C724 C722 1.561 . S
C725 C722 1.526 . S
C725 C726 1.396 . S
C725 C730 1.390 . S
C726 C720 1.465 . S
C726 C725 1.396 . S
C726 C727 1.399 . S
C727 H713 0.929 . S
C727 C726 1.399 . S
C727 C728 1.385 . S
C728 H714 0.931 . S
C728 C727 1.385 . S
C728 C729 1.389 . S
C729 C728 1.389 . S
C729 C730 1.387 . S
C730 H715 0.930 . S
C730 C725 1.390 . S
C730 C729 1.387 . S
H731 C743 0.930 . S
H732 C745 0.930 . S
H733 C746 0.930 . S
H734 C750 0.959 . S
H735 C750 0.959 . S
H736 C750 0.961 . S
H737 C751 0.960 . S
H738 C751 0.961 . S
H739 C751 0.959 . S
H740 C754 0.929 . S
H741 C755 0.931 . S
H742 C757 0.930 . S
C743 H731 0.930 . S
C743 C744 1.399 . S
C743 C748 1.399 . S
C744 C743 1.399 . S
C744 C745 1.376 . S
C745 H732 0.930 . S
C745 C744 1.376 . S
C745 C746 1.388 . S
C746 H733 0.930 . S
C746 C745 1.388 . S
C746 C747 1.390 . S
C747 C746 1.390 . S
C747 C748 1.394 . S
C747 C753 1.465 . S
C748 C743 1.399 . S
C748 C747 1.394 . S
C748 C749 1.516 . S
C749 C748 1.516 . S
C749 C750 1.502 . S
C749 C751 1.561 . S
C749 C752 1.526 . S
C750 H734 0.959 . S
C750 H735 0.959 . S
C750 H736 0.961 . S
C750 C749 1.502 . S
C751 H737 0.960 . S
C751 H738 0.961 . S
C751 H739 0.959 . S
C751 C749 1.561 . S
C752 C749 1.526 . S
C752 C753 1.396 . S
C752 C757 1.390 . S
C753 C747 1.465 . S
C753 C752 1.396 . S
C753 C754 1.399 . S
C754 H740 0.929 . S
C754 C753 1.399 . S
C754 C755 1.385 . S
C755 H741 0.931 . S
C755 C754 1.385 . S
C755 C756 1.389 . S
C756 C755 1.389 . S
C756 C757 1.387 . S
C757 H742 0.930 . S
C757 C752 1.390 . S
C757 C756 1.387 . S
H758 C770 0.930 . S
H759 C772 0.930 . S
H760 C773 0.930 . S
H761 C777 0.959 . S
H762 C777 0.959 . S
H763 C777 0.961 . S
H764 C778 0.960 . S
H765 C778 0.961 . S
H766 C778 0.959 . S
H767 C781 0.929 . S
H768 C782 0.931 . S
H769 C784 0.930 . S
C770 H758 0.930 . S
C770 C771 1.399 . S
C770 C775 1.399 . S
C771 C770 1.399 . S
C771 C772 1.376 . S
C772 H759 0.930 . S
C772 C771 1.376 . S
C772 C773 1.388 . S
C773 H760 0.930 . S
C773 C772 1.388 . S
C773 C774 1.390 . S
C774 C773 1.390 . S
C774 C775 1.394 . S
C774 C780 1.465 . S
C775 C770 1.399 . S
C775 C774 1.394 . S
C775 C776 1.516 . S
C776 C775 1.516 . S
C776 C777 1.502 . S
C776 C778 1.561 . S
C776 C779 1.526 . S
C777 H761 0.959 . S
C777 H762 0.959 . S
C777 H763 0.961 . S
C777 C776 1.502 . S
C778 H764 0.960 . S
C778 H765 0.961 . S
C778 H766 0.959 . S
C778 C776 1.561 . S
C779 C776 1.526 . S
C779 C780 1.396 . S
C779 C784 1.390 . S
C780 C774 1.465 . S
C780 C779 1.396 . S
C780 C781 1.399 . S
C781 H767 0.929 . S
C781 C780 1.399 . S
C781 C782 1.385 . S
C782 H768 0.931 . S
C782 C781 1.385 . S
C782 C783 1.389 . S
C783 C782 1.389 . S
C783 C784 1.387 . S
C784 H769 0.930 . S
C784 C779 1.390 . S
C784 C783 1.387 . S
H785 C797 0.930 . S
H786 C799 0.930 1_545 S
H787 C800 0.930 . S
H788 C804 0.959 . S
H789 C804 0.959 . S
H790 C804 0.961 . S
H791 C805 0.960 . S
H792 C805 0.961 . S
H793 C805 0.959 . S
H794 C808 0.929 . S
H795 C809 0.931 . S
H796 C811 0.930 . S
C797 H785 0.930 . S
C797 C798 1.399 . S
C797 C802 1.399 . S
C798 C797 1.399 . S
C798 C799 1.376 . S
C799 H786 0.930 1_565 S
C799 C798 1.376 . S
C799 C800 1.388 . S
C800 H787 0.930 . S
C800 C799 1.388 . S
C800 C801 1.390 . S
C801 C800 1.390 . S
C801 C802 1.394 . S
C801 C807 1.465 . S
C802 C797 1.399 . S
C802 C801 1.394 . S
C802 C803 1.516 . S
C803 C802 1.516 . S
C803 C804 1.502 . S
C803 C805 1.561 . S
C803 C806 1.526 . S
C804 H788 0.959 . S
C804 H789 0.959 . S
C804 H790 0.961 . S
C804 C803 1.502 . S
C805 H791 0.960 . S
C805 H792 0.961 . S
C805 H793 0.959 . S
C805 C803 1.561 . S
C806 C803 1.526 . S
C806 C807 1.396 . S
C806 C811 1.390 . S
C807 C801 1.465 . S
C807 C806 1.396 . S
C807 C808 1.399 . S
C808 H794 0.929 . S
C808 C807 1.399 . S
C808 C809 1.385 . S
C809 H795 0.931 . S
C809 C808 1.385 . S
C809 C810 1.389 . S
C810 C809 1.389 . S
C810 C811 1.387 . S
C811 H796 0.930 . S
C811 C806 1.390 . S
C811 C810 1.387 . S
H812 C824 0.930 . S
H813 C826 0.930 . S
H814 C827 0.930 . S
H815 C831 0.959 . S
H816 C831 0.959 . S
H817 C831 0.961 . S
H818 C832 0.960 . S
H819 C832 0.961 . S
H820 C832 0.959 . S
H821 C835 0.929 . S
H822 C836 0.931 . S
H823 C838 0.930 . S
C824 H812 0.930 . S
C824 C825 1.399 . S
C824 C829 1.399 . S
C825 C824 1.399 . S
C825 C826 1.376 . S
C826 H813 0.930 . S
C826 C825 1.376 . S
C826 C827 1.388 . S
C827 H814 0.930 . S
C827 C826 1.388 . S
C827 C828 1.390 . S
C828 C827 1.390 . S
C828 C829 1.394 . S
C828 C834 1.465 . S
C829 C824 1.399 . S
C829 C828 1.394 . S
C829 C830 1.516 . S
C830 C829 1.516 . S
C830 C831 1.502 . S
C830 C832 1.561 . S
C830 C833 1.526 . S
C831 H815 0.959 . S
C831 H816 0.959 . S
C831 H817 0.961 . S
C831 C830 1.502 . S
C832 H818 0.960 . S
C832 H819 0.961 . S
C832 H820 0.959 . S
C832 C830 1.561 . S
C833 C830 1.526 . S
C833 C834 1.396 . S
C833 C838 1.390 . S
C834 C828 1.465 . S
C834 C833 1.396 . S
C834 C835 1.399 . S
C835 H821 0.929 . S
C835 C834 1.399 . S
C835 C836 1.385 . S
C836 H822 0.931 . S
C836 C835 1.385 . S
C836 C837 1.389 . S
C837 C836 1.389 . S
C837 C838 1.387 . S
C838 H823 0.930 . S
C838 C833 1.390 . S
C838 C837 1.387 . S
H839 C851 0.930 . S
H840 C853 0.930 . S
H841 C854 0.930 . S
H842 C858 0.959 . S
H843 C858 0.959 . S
H844 C858 0.961 . S
H845 C859 0.960 . S
H846 C859 0.961 . S
H847 C859 0.959 . S
H848 C862 0.929 . S
H849 C863 0.931 . S
H850 C865 0.930 . S
C851 H839 0.930 . S
C851 C852 1.399 . S
C851 C856 1.399 . S
C852 C851 1.399 . S
C852 C853 1.376 . S
C853 H840 0.930 . S
C853 C852 1.376 . S
C853 C854 1.388 . S
C854 H841 0.930 . S
C854 C853 1.388 . S
C854 C855 1.390 . S
C855 C854 1.390 . S
C855 C856 1.394 . S
C855 C861 1.465 . S
C856 C851 1.399 . S
C856 C855 1.394 . S
C856 C857 1.516 . S
C857 C856 1.516 . S
C857 C858 1.502 . S
C857 C859 1.561 . S
C857 C860 1.526 . S
C858 H842 0.959 . S
C858 H843 0.959 . S
C858 H844 0.961 . S
C858 C857 1.502 . S
C859 H845 0.960 . S
C859 H846 0.961 . S
C859 H847 0.959 . S
C859 C857 1.561 . S
C860 C857 1.526 . S
C860 C861 1.396 . S
C860 C865 1.390 . S
C861 C855 1.465 . S
C861 C860 1.396 . S
C861 C862 1.399 . S
C862 H848 0.929 . S
C862 C861 1.399 . S
C862 C863 1.385 . S
C863 H849 0.931 . S
C863 C862 1.385 . S
C863 C864 1.389 . S
C864 C863 1.389 . S
C864 C865 1.387 . S
C865 H850 0.930 . S
C865 C860 1.390 . S
C865 C864 1.387 . S
H866 C878 0.930 . S
H867 C880 0.930 . S
H868 C881 0.930 . S
H869 C885 0.959 . S
H870 C885 0.959 . S
H871 C885 0.961 . S
H872 C886 0.960 . S
H873 C886 0.961 . S
H874 C886 0.959 . S
H875 C889 0.929 . S
H876 C890 0.931 . S
H877 C892 0.930 . S
C878 H866 0.930 . S
C878 C879 1.399 . S
C878 C883 1.399 . S
C879 C878 1.399 . S
C879 C880 1.376 . S
C880 H867 0.930 . S
C880 C879 1.376 . S
C880 C881 1.388 . S
C881 H868 0.930 . S
C881 C880 1.388 . S
C881 C882 1.390 . S
C882 C881 1.390 . S
C882 C883 1.394 . S
C882 C888 1.465 . S
C883 C878 1.399 . S
C883 C882 1.394 . S
C883 C884 1.516 . S
C884 C883 1.516 . S
C884 C885 1.502 . S
C884 C886 1.561 . S
C884 C887 1.526 . S
C885 H869 0.959 . S
C885 H870 0.959 . S
C885 H871 0.961 . S
C885 C884 1.502 . S
C886 H872 0.960 . S
C886 H873 0.961 . S
C886 H874 0.959 . S
C886 C884 1.561 . S
C887 C884 1.526 . S
C887 C888 1.396 . S
C887 C892 1.390 . S
C888 C882 1.465 . S
C888 C887 1.396 . S
C888 C889 1.399 . S
C889 H875 0.929 . S
C889 C888 1.399 . S
C889 C890 1.385 . S
C890 H876 0.931 . S
C890 C889 1.385 . S
C890 C891 1.389 . S
C891 C890 1.389 . S
C891 C892 1.387 . S
C892 H877 0.930 . S
C892 C887 1.390 . S
C892 C891 1.387 . S
H893 C905 0.930 . S
H894 C907 0.930 . S
H895 C908 0.930 . S
H896 C912 0.959 . S
H897 C912 0.959 . S
H898 C912 0.961 . S
H899 C913 0.960 . S
H900 C913 0.961 . S
H901 C913 0.959 . S
H902 C916 0.929 . S
H903 C917 0.931 . S
H904 C919 0.930 . S
C905 H893 0.930 . S
C905 C906 1.399 . S
C905 C910 1.399 . S
C906 C905 1.399 . S
C906 C907 1.376 . S
C907 H894 0.930 . S
C907 C906 1.376 . S
C907 C908 1.388 . S
C908 H895 0.930 . S
C908 C907 1.388 . S
C908 C909 1.390 . S
C909 C908 1.390 . S
C909 C910 1.394 . S
C909 C915 1.465 . S
C910 C905 1.399 . S
C910 C909 1.394 . S
C910 C911 1.516 . S
C911 C910 1.516 . S
C911 C912 1.502 . S
C911 C913 1.561 . S
C911 C914 1.526 . S
C912 H896 0.959 . S
C912 H897 0.959 . S
C912 H898 0.961 . S
C912 C911 1.502 . S
C913 H899 0.960 . S
C913 H900 0.961 . S
C913 H901 0.959 . S
C913 C911 1.561 . S
C914 C911 1.526 . S
C914 C915 1.396 . S
C914 C919 1.390 . S
C915 C909 1.465 . S
C915 C914 1.396 . S
C915 C916 1.399 . S
C916 H902 0.929 . S
C916 C915 1.399 . S
C916 C917 1.385 . S
C917 H903 0.931 . S
C917 C916 1.385 . S
C917 C918 1.389 . S
C918 C917 1.389 . S
C918 C919 1.387 . S
C919 H904 0.930 . S
C919 C914 1.390 . S
C919 C918 1.387 . S
H920 C932 0.930 . S
H921 C934 0.930 . S
H922 C935 0.930 1_545 S
H923 C939 0.959 1_556 S
H924 C939 0.959 . S
H925 C939 0.961 . S
H926 C940 0.960 . S
H927 C940 0.961 . S
H928 C940 0.959 . S
H929 C943 0.929 . S
H930 C944 0.931 . S
H931 C946 0.930 . S
C932 H920 0.930 . S
C932 C933 1.399 . S
C932 C937 1.399 . S
C933 C932 1.399 . S
C933 C934 1.376 1_565 S
C934 H921 0.930 . S
C934 C933 1.376 1_545 S
C934 C935 1.388 1_544 S
C935 H922 0.930 1_565 S
C935 C934 1.388 1_566 S
C935 C936 1.390 . S
C936 C935 1.390 . S
C936 C937 1.394 1_556 S
C936 C942 1.465 . S
C937 C932 1.399 . S
C937 C936 1.394 1_554 S
C937 C938 1.516 . S
C938 C937 1.516 . S
C938 C939 1.502 . S
C938 C940 1.561 . S
C938 C941 1.526 1_554 S
C939 H923 0.959 1_554 S
C939 H924 0.959 . S
C939 H925 0.961 . S
C939 C938 1.502 . S
C940 H926 0.960 . S
C940 H927 0.961 . S
C940 H928 0.959 . S
C940 C938 1.561 . S
C941 C938 1.526 1_556 S
C941 C942 1.396 . S
C941 C946 1.390 . S
C942 C936 1.465 . S
C942 C941 1.396 . S
C942 C943 1.399 . S
C943 H929 0.929 . S
C943 C942 1.399 . S
C943 C944 1.385 . S
C944 H930 0.931 . S
C944 C943 1.385 . S
C944 C945 1.389 . S
C945 C944 1.389 . S
C945 C946 1.387 . S
C946 H931 0.930 . S
C946 C941 1.390 . S
C946 C945 1.387 . S
H947 C959 0.926 1_554 S
H948 C961 0.930 . S
H949 C962 0.930 . S
H950 C966 0.959 . S
H951 C966 0.959 . S
H952 C966 0.961 . S
H953 C967 0.960 . S
H954 C967 0.961 . S
H955 C967 0.959 . S
H956 C970 0.929 . S
H957 C971 0.931 . S
H958 C973 0.930 . S
C959 H947 0.926 1_556 S
C959 C960 1.399 . S
C959 C964 1.399 . S
C960 C959 1.399 . S
C960 C961 1.376 . S
C961 H948 0.930 . S
C961 C960 1.376 . S
C961 C962 1.388 . S
C962 H949 0.930 . S
C962 C961 1.388 . S
C962 C963 1.390 . S
C963 C962 1.390 . S
C963 C964 1.394 . S
C963 C969 1.465 . S
C964 C959 1.399 . S
C964 C963 1.394 . S
C964 C965 1.516 . S
C965 C964 1.516 . S
C965 C966 1.502 . S
C965 C967 1.561 . S
C965 C968 1.526 . S
C966 H950 0.959 . S
C966 H951 0.959 . S
C966 H952 0.961 . S
C966 C965 1.502 . S
C967 H953 0.960 . S
C967 H954 0.961 . S
C967 H955 0.959 . S
C967 C965 1.561 . S
C968 C965 1.526 . S
C968 C969 1.396 . S
C968 C973 1.390 . S
C969 C963 1.465 . S
C969 C968 1.396 . S
C969 C970 1.399 . S
C970 H956 0.929 . S
C970 C969 1.399 . S
C970 C971 1.385 . S
C971 H957 0.931 . S
C971 C970 1.385 . S
C971 C972 1.389 . S
C972 C971 1.389 . S
C972 C973 1.387 . S
C973 H958 0.930 . S
C973 C968 1.390 . S
C973 C972 1.387 . S
H974 C986 0.930 . S
H975 C988 0.930 . S
H976 C989 0.930 . S
H977 C993 0.959 . S
H978 C993 0.959 . S
H979 C993 0.961 . S
H980 C994 0.960 . S
H981 C994 0.961 . S
H982 C994 0.959 . S
H983 C997 0.929 . S
H984 C998 0.931 . S
H985 C1000 0.930 . S
C986 H974 0.930 . S
C986 C987 1.399 . S
C986 C991 1.399 . S
C987 C986 1.399 . S
C987 C988 1.376 . S
C988 H975 0.930 . S
C988 C987 1.376 . S
C988 C989 1.388 . S
C989 H976 0.930 . S
C989 C988 1.388 . S
C989 C990 1.390 . S
C990 C989 1.390 . S
C990 C991 1.394 . S
C990 C996 1.465 . S
C991 C986 1.399 . S
C991 C990 1.394 . S
C991 C992 1.516 . S
C992 C991 1.516 . S
C992 C993 1.502 . S
C992 C994 1.561 . S
C992 C995 1.526 . S
C993 H977 0.959 . S
C993 H978 0.959 . S
C993 H979 0.961 . S
C993 C992 1.502 . S
C994 H980 0.960 . S
C994 H981 0.961 . S
C994 H982 0.959 . S
C994 C992 1.561 . S
C995 C992 1.526 . S
C995 C996 1.396 . S
C995 C1000 1.390 . S
C996 C990 1.465 . S
C996 C995 1.396 . S
C996 C997 1.399 . S
C997 H983 0.929 . S
C997 C996 1.399 . S
C997 C998 1.385 . S
C998 H984 0.931 . S
C998 C997 1.385 . S
C998 C999 1.389 . S
C999 C998 1.389 . S
C999 C1000 1.387 . S
C1000 H985 0.930 . S
C1000 C995 1.390 . S
C1000 C999 1.387 . S
H1001 C1013 0.930 . S
H1002 C1015 0.930 . S
H1003 C1016 0.930 . S
H1004 C1020 0.959 . S
H1005 C1020 0.959 . S
H1006 C1020 0.961 . S
H1007 C1021 0.960 . S
H1008 C1021 0.961 . S
H1009 C1021 0.959 . S
H1010 C1024 0.929 . S
H1011 C1025 0.931 . S
H1012 C1027 0.930 . S
C1013 H1001 0.930 . S
C1013 C1014 1.399 . S
C1013 C1018 1.399 . S
C1014 C1013 1.399 . S
C1014 C1015 1.376 . S
C1015 H1002 0.930 . S
C1015 C1014 1.376 . S
C1015 C1016 1.388 . S
C1016 H1003 0.930 . S
C1016 C1015 1.388 . S
C1016 C1017 1.390 . S
C1017 C1016 1.390 . S
C1017 C1018 1.394 . S
C1017 C1023 1.465 . S
C1018 C1013 1.399 . S
C1018 C1017 1.394 . S
C1018 C1019 1.516 . S
C1019 C1018 1.516 . S
C1019 C1020 1.502 . S
C1019 C1021 1.561 . S
C1019 C1022 1.526 . S
C1020 H1004 0.959 . S
C1020 H1005 0.959 . S
C1020 H1006 0.961 . S
C1020 C1019 1.502 . S
C1021 H1007 0.960 . S
C1021 H1008 0.961 . S
C1021 H1009 0.959 . S
C1021 C1019 1.561 . S
C1022 C1019 1.526 . S
C1022 C1023 1.396 . S
C1022 C1027 1.390 . S
C1023 C1017 1.465 . S
C1023 C1022 1.396 . S
C1023 C1024 1.399 . S
C1024 H1010 0.929 . S
C1024 C1023 1.399 . S
C1024 C1025 1.385 . S
C1025 H1011 0.931 . S
C1025 C1024 1.385 . S
C1025 C1026 1.389 . S
C1026 C1025 1.389 . S
C1026 C1027 1.387 . S
C1027 H1012 0.930 . S
C1027 C1022 1.390 . S
C1027 C1026 1.387 . S
H1028 C1040 0.930 . S
H1029 C1042 0.930 . S
H1030 C1043 0.930 . S
H1031 C1047 0.959 . S
H1032 C1047 0.959 . S
H1033 C1047 0.961 . S
H1034 C1048 0.960 . S
H1035 C1048 0.961 . S
H1036 C1048 0.959 . S
H1037 C1051 0.929 . S
H1038 C1052 0.931 . S
H1039 C1054 0.930 . S
C1040 H1028 0.930 . S
C1040 C1041 1.399 . S
C1040 C1045 1.399 . S
C1041 C1040 1.399 . S
C1041 C1042 1.376 . S
C1042 H1029 0.930 . S
C1042 C1041 1.376 . S
C1042 C1043 1.388 . S
C1043 H1030 0.930 . S
C1043 C1042 1.388 . S
C1043 C1044 1.390 . S
C1044 C1043 1.390 . S
C1044 C1045 1.394 . S
C1044 C1050 1.465 . S
C1045 C1040 1.399 . S
C1045 C1044 1.394 . S
C1045 C1046 1.516 . S
C1046 C1045 1.516 . S
C1046 C1047 1.502 . S
C1046 C1048 1.561 . S
C1046 C1049 1.526 . S
C1047 H1031 0.959 . S
C1047 H1032 0.959 . S
C1047 H1033 0.961 . S
C1047 C1046 1.502 . S
C1048 H1034 0.960 . S
C1048 H1035 0.961 . S
C1048 H1036 0.959 . S
C1048 C1046 1.561 . S
C1049 C1046 1.526 . S
C1049 C1050 1.396 . S
C1049 C1054 1.390 . S
C1050 C1044 1.465 . S
C1050 C1049 1.396 . S
C1050 C1051 1.399 . S
C1051 H1037 0.929 . S
C1051 C1050 1.399 . S
C1051 C1052 1.385 . S
C1052 H1038 0.931 . S
C1052 C1051 1.385 . S
C1052 C1053 1.389 . S
C1053 C1052 1.389 . S
C1053 C1054 1.387 . S
C1054 H1039 0.930 . S
C1054 C1049 1.390 . S
C1054 C1053 1.387 . S
H1055 C1067 0.930 . S
H1056 C1069 0.930 . S
H1057 C1070 0.930 . S
H1058 C1074 0.959 . S
H1059 C1074 0.959 . S
H1060 C1074 0.961 . S
H1061 C1075 0.960 . S
H1062 C1075 0.961 . S
H1063 C1075 0.959 . S
H1064 C1078 0.929 . S
H1065 C1079 0.931 . S
H1066 C1081 0.930 . S
C1067 H1055 0.930 . S
C1067 C1068 1.399 . S
C1067 C1072 1.399 . S
C1068 C1067 1.399 . S
C1068 C1069 1.376 . S
C1069 H1056 0.930 . S
C1069 C1068 1.376 . S
C1069 C1070 1.388 . S
C1070 H1057 0.930 . S
C1070 C1069 1.388 . S
C1070 C1071 1.390 . S
C1071 C1070 1.390 . S
C1071 C1072 1.394 . S
C1071 C1077 1.465 . S
C1072 C1067 1.399 . S
C1072 C1071 1.394 . S
C1072 C1073 1.516 . S
C1073 C1072 1.516 . S
C1073 C1074 1.502 . S
C1073 C1075 1.561 . S
C1073 C1076 1.526 . S
C1074 H1058 0.959 . S
C1074 H1059 0.959 . S
C1074 H1060 0.961 . S
C1074 C1073 1.502 . S
C1075 H1061 0.960 . S
C1075 H1062 0.961 . S
C1075 H1063 0.959 . S
C1075 C1073 1.561 . S
C1076 C1073 1.526 . S
C1076 C1077 1.396 . S
C1076 C1081 1.390 . S
C1077 C1071 1.465 . S
C1077 C1076 1.396 . S
C1077 C1078 1.399 . S
C1078 H1064 0.929 . S
C1078 C1077 1.399 . S
C1078 C1079 1.385 . S
C1079 H1065 0.931 . S
C1079 C1078 1.385 . S
C1079 C1080 1.389 . S
C1080 C1079 1.389 . S
C1080 C1081 1.387 . S
C1081 H1066 0.930 . S
C1081 C1076 1.390 . S
C1081 C1080 1.387 . S
H1082 C1094 0.930 . S
H1083 C1096 0.930 1_554 S
H1084 C1097 0.930 . S
H1085 C1101 0.959 . S
H1086 C1101 0.959 . S
H1087 C1101 0.961 . S
H1088 C1102 0.960 1_554 S
H1089 C1102 0.961 . S
H1090 C1102 0.959 . S
H1091 C1105 0.929 . S
H1092 C1106 0.931 . S
H1093 C1108 0.930 . S
C1094 H1082 0.930 . S
C1094 C1095 1.399 . S
C1094 C1099 1.399 1_554 S
C1095 C1094 1.399 . S
C1095 C1096 1.376 1_554 S
C1096 H1083 0.930 1_556 S
C1096 C1095 1.376 1_556 S
C1096 C1097 1.388 . S
C1097 H1084 0.930 . S
C1097 C1096 1.388 . S
C1097 C1098 1.390 . S
C1098 C1097 1.390 . S
C1098 C1099 1.394 . S
C1098 C1104 1.465 . S
C1099 C1094 1.399 1_556 S
C1099 C1098 1.394 . S
C1099 C1100 1.516 . S
C1100 C1099 1.516 . S
C1100 C1101 1.502 . S
C1100 C1102 1.561 . S
C1100 C1103 1.526 . S
C1101 H1085 0.959 . S
C1101 H1086 0.959 . S
C1101 H1087 0.961 . S
C1101 C1100 1.502 . S
C1102 H1088 0.960 1_556 S
C1102 H1089 0.961 . S
C1102 H1090 0.959 . S
C1102 C1100 1.561 . S
C1103 C1100 1.526 . S
C1103 C1104 1.396 . S
C1103 C1108 1.390 . S
C1104 C1098 1.465 . S
C1104 C1103 1.396 . S
C1104 C1105 1.399 . S
C1105 H1091 0.929 . S
C1105 C1104 1.399 . S
C1105 C1106 1.385 . S
C1106 H1092 0.931 . S
C1106 C1105 1.385 . S
C1106 C1107 1.389 . S
C1107 C1106 1.389 . S
C1107 C1108 1.387 . S
C1108 H1093 0.930 . S
C1108 C1103 1.390 . S
C1108 C1107 1.387 . S
H1109 C1121 0.930 . S
H1110 C1123 0.930 . S
H1111 C1124 0.935 . S
H1112 C1128 0.959 . S
H1113 C1128 0.959 1_556 S
H1114 C1128 0.961 . S
H1115 C1129 0.960 . S
H1116 C1129 0.961 . S
H1117 C1129 0.959 . S
H1118 C1132 0.929 . S
H1119 C1133 0.931 . S
H1120 C1135 0.930 . S
C1121 H1109 0.930 . S
C1121 C1122 1.399 . S
C1121 C1126 1.399 1_554 S
C1122 C1121 1.399 . S
C1122 C1123 1.376 1_655 S
C1123 H1110 0.930 . S
C1123 C1122 1.376 1_455 S
C1123 C1124 1.388 1_455 S
C1124 H1111 0.935 . S
C1124 C1123 1.388 1_655 S
C1124 C1125 1.390 1_554 S
C1125 C1124 1.390 1_556 S
C1125 C1126 1.394 . S
C1125 C1131 1.465 . S
C1126 C1121 1.399 1_556 S
C1126 C1125 1.394 . S
C1126 C1127 1.516 . S
C1127 C1126 1.516 . S
C1127 C1128 1.502 1_556 S
C1127 C1129 1.561 . S
C1127 C1130 1.526 . S
C1128 H1112 0.959 . S
C1128 H1113 0.959 1_554 S
C1128 H1114 0.961 . S
C1128 C1127 1.502 1_554 S
C1129 H1115 0.960 . S
C1129 H1116 0.961 . S
C1129 H1117 0.959 . S
C1129 C1127 1.561 . S
C1130 C1127 1.526 . S
C1130 C1131 1.396 . S
C1130 C1135 1.390 . S
C1131 C1125 1.465 . S
C1131 C1130 1.396 . S
C1131 C1132 1.399 . S
C1132 H1118 0.929 . S
C1132 C1131 1.399 . S
C1132 C1133 1.385 . S
C1133 H1119 0.931 . S
C1133 C1132 1.385 . S
C1133 C1134 1.389 . S
C1134 C1133 1.389 . S
C1134 C1135 1.387 . S
C1135 H1120 0.930 . S
C1135 C1130 1.390 . S
C1135 C1134 1.387 . S
H1136 C1148 0.930 . S
H1137 C1150 0.930 . S
H1138 C1151 0.930 . S
H1139 C1155 0.959 . S
H1140 C1155 0.959 . S
H1141 C1155 0.961 . S
H1142 C1156 0.960 . S
H1143 C1156 0.961 . S
H1144 C1156 0.959 . S
H1145 C1159 0.929 . S
H1146 C1160 0.931 . S
H1147 C1162 0.930 . S
C1148 H1136 0.930 . S
C1148 C1149 1.399 . S
C1148 C1153 1.399 . S
C1149 C1148 1.399 . S
C1149 C1150 1.376 . S
C1150 H1137 0.930 . S
C1150 C1149 1.376 . S
C1150 C1151 1.388 . S
C1151 H1138 0.930 . S
C1151 C1150 1.388 . S
C1151 C1152 1.390 . S
C1152 C1151 1.390 . S
C1152 C1153 1.394 . S
C1152 C1158 1.465 . S
C1153 C1148 1.399 . S
C1153 C1152 1.394 . S
C1153 C1154 1.516 . S
C1154 C1153 1.516 . S
C1154 C1155 1.502 . S
C1154 C1156 1.561 . S
C1154 C1157 1.526 . S
C1155 H1139 0.959 . S
C1155 H1140 0.959 . S
C1155 H1141 0.961 . S
C1155 C1154 1.502 . S
C1156 H1142 0.960 . S
C1156 H1143 0.961 . S
C1156 H1144 0.959 . S
C1156 C1154 1.561 . S
C1157 C1154 1.526 . S
C1157 C1158 1.396 . S
C1157 C1162 1.390 . S
C1158 C1152 1.465 . S
C1158 C1157 1.396 . S
C1158 C1159 1.399 . S
C1159 H1145 0.929 . S
C1159 C1158 1.399 . S
C1159 C1160 1.385 . S
C1160 H1146 0.931 . S
C1160 C1159 1.385 . S
C1160 C1161 1.389 . S
C1161 C1160 1.389 . S
C1161 C1162 1.387 . S
C1162 H1147 0.930 . S
C1162 C1157 1.390 . S
C1162 C1161 1.387 . S
H1163 C1175 0.930 . S
H1164 C1177 0.930 . S
H1165 C1178 0.930 . S
H1166 C1182 0.959 . S
H1167 C1182 0.959 . S
H1168 C1182 0.961 . S
H1169 C1183 0.960 . S
H1170 C1183 0.961 . S
H1171 C1183 0.959 . S
H1172 C1186 0.929 . S
H1173 C1187 0.931 . S
H1174 C1189 0.930 . S
C1175 H1163 0.930 . S
C1175 C1176 1.399 . S
C1175 C1180 1.399 . S
C1176 C1175 1.399 . S
C1176 C1177 1.376 . S
C1177 H1164 0.930 . S
C1177 C1176 1.376 . S
C1177 C1178 1.388 . S
C1178 H1165 0.930 . S
C1178 C1177 1.388 . S
C1178 C1179 1.390 . S
C1179 C1178 1.390 . S
C1179 C1180 1.394 . S
C1179 C1185 1.465 . S
C1180 C1175 1.399 . S
C1180 C1179 1.394 . S
C1180 C1181 1.516 . S
C1181 C1180 1.516 . S
C1181 C1182 1.502 . S
C1181 C1183 1.561 . S
C1181 C1184 1.526 . S
C1182 H1166 0.959 . S
C1182 H1167 0.959 . S
C1182 H1168 0.961 . S
C1182 C1181 1.502 . S
C1183 H1169 0.960 . S
C1183 H1170 0.961 . S
C1183 H1171 0.959 . S
C1183 C1181 1.561 . S
C1184 C1181 1.526 . S
C1184 C1185 1.396 . S
C1184 C1189 1.390 . S
C1185 C1179 1.465 . S
C1185 C1184 1.396 . S
C1185 C1186 1.399 . S
C1186 H1172 0.929 . S
C1186 C1185 1.399 . S
C1186 C1187 1.385 . S
C1187 H1173 0.931 . S
C1187 C1186 1.385 . S
C1187 C1188 1.389 . S
C1188 C1187 1.389 . S
C1188 C1189 1.387 . S
C1189 H1174 0.930 . S
C1189 C1184 1.390 . S
C1189 C1188 1.387 . S
H1190 C1202 0.930 . S
H1191 C1204 0.930 1_545 S
H1192 C1205 0.930 . S
H1193 C1209 0.959 . S
H1194 C1209 0.959 . S
H1195 C1209 0.961 . S
H1196 C1210 0.960 . S
H1197 C1210 0.961 . S
H1198 C1210 0.959 . S
H1199 C1213 0.929 . S
H1200 C1214 0.931 . S
H1201 C1216 0.930 . S
C1202 H1190 0.930 . S
C1202 C1203 1.399 . S
C1202 C1207 1.399 . S
C1203 C1202 1.399 . S
C1203 C1204 1.376 . S
C1204 H1191 0.930 1_565 S
C1204 C1203 1.376 . S
C1204 C1205 1.388 . S
C1205 H1192 0.930 . S
C1205 C1204 1.388 . S
C1205 C1206 1.390 . S
C1206 C1205 1.390 . S
C1206 C1207 1.394 . S
C1206 C1212 1.465 . S
C1207 C1202 1.399 . S
C1207 C1206 1.394 . S
C1207 C1208 1.516 . S
C1208 C1207 1.516 . S
C1208 C1209 1.502 . S
C1208 C1210 1.561 . S
C1208 C1211 1.526 . S
C1209 H1193 0.959 . S
C1209 H1194 0.959 . S
C1209 H1195 0.961 . S
C1209 C1208 1.502 . S
C1210 H1196 0.960 . S
C1210 H1197 0.961 . S
C1210 H1198 0.959 . S
C1210 C1208 1.561 . S
C1211 C1208 1.526 . S
C1211 C1212 1.396 . S
C1211 C1216 1.390 . S
C1212 C1206 1.465 . S
C1212 C1211 1.396 . S
C1212 C1213 1.399 . S
C1213 H1199 0.929 . S
C1213 C1212 1.399 . S
C1213 C1214 1.385 . S
C1214 H1200 0.931 . S
C1214 C1213 1.385 . S
C1214 C1215 1.389 . S
C1215 C1214 1.389 . S
C1215 C1216 1.387 . S
C1216 H1201 0.930 . S
C1216 C1211 1.390 . S
C1216 C1215 1.387 . S
H1217 C1229 0.930 . S
H1218 C1231 0.930 . S
H1219 C1232 0.930 . S
H1220 C1236 0.959 . S
H1221 C1236 0.959 . S
H1222 C1236 0.961 . S
H1223 C1237 0.960 . S
H1224 C1237 0.961 . S
H1225 C1237 0.959 . S
H1226 C1240 0.929 . S
H1227 C1241 0.931 . S
H1228 C1243 0.930 . S
C1229 H1217 0.930 . S
C1229 C1230 1.399 . S
C1229 C1234 1.399 . S
C1230 C1229 1.399 . S
C1230 C1231 1.376 . S
C1231 H1218 0.930 . S
C1231 C1230 1.376 . S
C1231 C1232 1.388 . S
C1232 H1219 0.930 . S
C1232 C1231 1.388 . S
C1232 C1233 1.390 . S
C1233 C1232 1.390 . S
C1233 C1234 1.394 . S
C1233 C1239 1.465 . S
C1234 C1229 1.399 . S
C1234 C1233 1.394 . S
C1234 C1235 1.516 . S
C1235 C1234 1.516 . S
C1235 C1236 1.502 . S
C1235 C1237 1.561 . S
C1235 C1238 1.526 . S
C1236 H1220 0.959 . S
C1236 H1221 0.959 . S
C1236 H1222 0.961 . S
C1236 C1235 1.502 . S
C1237 H1223 0.960 . S
C1237 H1224 0.961 . S
C1237 H1225 0.959 . S
C1237 C1235 1.561 . S
C1238 C1235 1.526 . S
C1238 C1239 1.396 . S
C1238 C1243 1.390 . S
C1239 C1233 1.465 . S
C1239 C1238 1.396 . S
C1239 C1240 1.399 . S
C1240 H1226 0.929 . S
C1240 C1239 1.399 . S
C1240 C1241 1.385 . S
C1241 H1227 0.931 . S
C1241 C1240 1.385 . S
C1241 C1242 1.389 . S
C1242 C1241 1.389 . S
C1242 C1243 1.387 . S
C1243 H1228 0.930 . S
C1243 C1238 1.390 . S
C1243 C1242 1.387 . S
H1244 C1256 0.930 . S
H1245 C1258 0.930 . S
H1246 C1259 0.930 . S
H1247 C1263 0.959 . S
H1248 C1263 0.959 . S
H1249 C1263 0.961 . S
H1250 C1264 0.960 . S
H1251 C1264 0.961 . S
H1252 C1264 0.959 . S
H1253 C1267 0.929 . S
H1254 C1268 0.931 . S
H1255 C1270 0.930 . S
C1256 H1244 0.930 . S
C1256 C1257 1.399 . S
C1256 C1261 1.399 . S
C1257 C1256 1.399 . S
C1257 C1258 1.376 . S
C1258 H1245 0.930 . S
C1258 C1257 1.376 . S
C1258 C1259 1.388 . S
C1259 H1246 0.930 . S
C1259 C1258 1.388 . S
C1259 C1260 1.390 . S
C1260 C1259 1.390 . S
C1260 C1261 1.394 . S
C1260 C1266 1.465 . S
C1261 C1256 1.399 . S
C1261 C1260 1.394 . S
C1261 C1262 1.516 . S
C1262 C1261 1.516 . S
C1262 C1263 1.502 . S
C1262 C1264 1.561 . S
C1262 C1265 1.526 . S
C1263 H1247 0.959 . S
C1263 H1248 0.959 . S
C1263 H1249 0.961 . S
C1263 C1262 1.502 . S
C1264 H1250 0.960 . S
C1264 H1251 0.961 . S
C1264 H1252 0.959 . S
C1264 C1262 1.561 . S
C1265 C1262 1.526 . S
C1265 C1266 1.396 . S
C1265 C1270 1.390 . S
C1266 C1260 1.465 . S
C1266 C1265 1.396 . S
C1266 C1267 1.399 . S
C1267 H1253 0.929 . S
C1267 C1266 1.399 . S
C1267 C1268 1.385 . S
C1268 H1254 0.931 . S
C1268 C1267 1.385 . S
C1268 C1269 1.389 . S
C1269 C1268 1.389 . S
C1269 C1270 1.387 . S
C1270 H1255 0.930 . S
C1270 C1265 1.390 . S
C1270 C1269 1.387 . S
H1271 C1283 0.930 . S
H1272 C1285 0.930 . S
H1273 C1286 0.930 . S
H1274 C1290 0.959 . S
H1275 C1290 0.959 . S
H1276 C1290 0.961 . S
H1277 C1291 0.960 . S
H1278 C1291 0.961 . S
H1279 C1291 0.959 . S
H1280 C1294 0.929 . S
H1281 C1295 0.931 . S
H1282 C1297 0.930 . S
C1283 H1271 0.930 . S
C1283 C1284 1.399 . S
C1283 C1288 1.399 . S
C1284 C1283 1.399 . S
C1284 C1285 1.376 . S
C1285 H1272 0.930 . S
C1285 C1284 1.376 . S
C1285 C1286 1.388 . S
C1286 H1273 0.930 . S
C1286 C1285 1.388 . S
C1286 C1287 1.390 . S
C1287 C1286 1.390 . S
C1287 C1288 1.394 . S
C1287 C1293 1.465 . S
C1288 C1283 1.399 . S
C1288 C1287 1.394 . S
C1288 C1289 1.516 . S
C1289 C1288 1.516 . S
C1289 C1290 1.502 . S
C1289 C1291 1.561 . S
C1289 C1292 1.526 . S
C1290 H1274 0.959 . S
C1290 H1275 0.959 . S
C1290 H1276 0.961 . S
C1290 C1289 1.502 . S
C1291 H1277 0.960 . S
C1291 H1278 0.961 . S
C1291 H1279 0.959 . S
C1291 C1289 1.561 . S
C1292 C1289 1.526 . S
C1292 C1293 1.396 . S
C1292 C1297 1.390 . S
C1293 C1287 1.465 . S
C1293 C1292 1.396 . S
C1293 C1294 1.399 . S
C1294 H1280 0.929 . S
C1294 C1293 1.399 . S
C1294 C1295 1.385 . S
C1295 H1281 0.931 . S
C1295 C1294 1.385 . S
C1295 C1296 1.389 . S
C1296 C1295 1.389 . S
C1296 C1297 1.387 . S
C1297 H1282 0.930 . S
C1297 C1292 1.390 . S
C1297 C1296 1.387 . S
H1298 C1310 0.930 . S
H1299 C1312 0.930 . S
H1300 C1313 0.930 . S
H1301 C1317 0.959 . S
H1302 C1317 0.959 . S
H1303 C1317 0.961 . S
H1304 C1318 0.960 . S
H1305 C1318 0.961 . S
H1306 C1318 0.959 . S
H1307 C1321 0.929 . S
H1308 C1322 0.931 . S
H1309 C1324 0.930 . S
C1310 H1298 0.930 . S
C1310 C1311 1.399 . S
C1310 C1315 1.399 . S
C1311 C1310 1.399 . S
C1311 C1312 1.376 . S
C1312 H1299 0.930 . S
C1312 C1311 1.376 . S
C1312 C1313 1.388 . S
C1313 H1300 0.930 . S
C1313 C1312 1.388 . S
C1313 C1314 1.390 . S
C1314 C1313 1.390 . S
C1314 C1315 1.394 . S
C1314 C1320 1.465 . S
C1315 C1310 1.399 . S
C1315 C1314 1.394 . S
C1315 C1316 1.516 . S
C1316 C1315 1.516 . S
C1316 C1317 1.502 . S
C1316 C1318 1.561 . S
C1316 C1319 1.526 . S
C1317 H1301 0.959 . S
C1317 H1302 0.959 . S
C1317 H1303 0.961 . S
C1317 C1316 1.502 . S
C1318 H1304 0.960 . S
C1318 H1305 0.961 . S
C1318 H1306 0.959 . S
C1318 C1316 1.561 . S
C1319 C1316 1.526 . S
C1319 C1320 1.396 . S
C1319 C1324 1.390 . S
C1320 C1314 1.465 . S
C1320 C1319 1.396 . S
C1320 C1321 1.399 . S
C1321 H1307 0.929 . S
C1321 C1320 1.399 . S
C1321 C1322 1.385 . S
C1322 H1308 0.931 . S
C1322 C1321 1.385 . S
C1322 C1323 1.389 . S
C1323 C1322 1.389 . S
C1323 C1324 1.387 . S
C1324 H1309 0.930 . S
C1324 C1319 1.390 . S
C1324 C1323 1.387 . S
H1325 C1337 0.930 . S
H1326 C1339 0.930 . S
H1327 C1340 0.930 . S
H1328 C1344 0.959 . S
H1329 C1344 0.959 . S
H1330 C1344 0.961 . S
H1331 C1345 0.960 . S
H1332 C1345 0.961 . S
H1333 C1345 0.959 . S
H1334 C1348 0.929 . S
H1335 C1349 0.931 . S
H1336 C1351 0.930 . S
C1337 H1325 0.930 . S
C1337 C1338 1.399 . S
C1337 C1342 1.399 . S
C1338 C1337 1.399 . S
C1338 C1339 1.376 . S
C1339 H1326 0.930 . S
C1339 C1338 1.376 . S
C1339 C1340 1.388 . S
C1340 H1327 0.930 . S
C1340 C1339 1.388 . S
C1340 C1341 1.390 . S
C1341 C1340 1.390 . S
C1341 C1342 1.394 . S
C1341 C1347 1.465 . S
C1342 C1337 1.399 . S
C1342 C1341 1.394 . S
C1342 C1343 1.516 . S
C1343 C1342 1.516 . S
C1343 C1344 1.502 . S
C1343 C1345 1.561 . S
C1343 C1346 1.526 . S
C1344 H1328 0.959 . S
C1344 H1329 0.959 . S
C1344 H1330 0.961 . S
C1344 C1343 1.502 . S
C1345 H1331 0.960 . S
C1345 H1332 0.961 . S
C1345 H1333 0.959 . S
C1345 C1343 1.561 . S
C1346 C1343 1.526 . S
C1346 C1347 1.396 . S
C1346 C1351 1.390 . S
C1347 C1341 1.465 . S
C1347 C1346 1.396 . S
C1347 C1348 1.399 . S
C1348 H1334 0.929 . S
C1348 C1347 1.399 . S
C1348 C1349 1.385 . S
C1349 H1335 0.931 . S
C1349 C1348 1.385 . S
C1349 C1350 1.389 . S
C1350 C1349 1.389 . S
C1350 C1351 1.387 . S
C1351 H1336 0.930 . S
C1351 C1346 1.390 . S
C1351 C1350 1.387 . S
H1352 C1364 0.930 . S
H1353 C1366 0.930 . S
H1354 C1367 0.930 . S
H1355 C1371 0.959 . S
H1356 C1371 0.959 . S
H1357 C1371 0.961 . S
H1358 C1372 0.960 . S
H1359 C1372 0.961 . S
H1360 C1372 0.959 . S
H1361 C1375 0.929 . S
H1362 C1376 0.931 . S
H1363 C1378 0.930 . S
C1364 H1352 0.930 . S
C1364 C1365 1.399 . S
C1364 C1369 1.399 . S
C1365 C1364 1.399 . S
C1365 C1366 1.376 . S
C1366 H1353 0.930 . S
C1366 C1365 1.376 . S
C1366 C1367 1.388 . S
C1367 H1354 0.930 . S
C1367 C1366 1.388 . S
C1367 C1368 1.390 . S
C1368 C1367 1.390 . S
C1368 C1369 1.394 . S
C1368 C1374 1.465 . S
C1369 C1364 1.399 . S
C1369 C1368 1.394 . S
C1369 C1370 1.516 . S
C1370 C1369 1.516 . S
C1370 C1371 1.502 . S
C1370 C1372 1.561 . S
C1370 C1373 1.526 . S
C1371 H1355 0.959 . S
C1371 H1356 0.959 . S
C1371 H1357 0.961 . S
C1371 C1370 1.502 . S
C1372 H1358 0.960 . S
C1372 H1359 0.961 . S
C1372 H1360 0.959 . S
C1372 C1370 1.561 . S
C1373 C1370 1.526 . S
C1373 C1374 1.396 . S
C1373 C1378 1.390 . S
C1374 C1368 1.465 . S
C1374 C1373 1.396 . S
C1374 C1375 1.399 . S
C1375 H1361 0.929 . S
C1375 C1374 1.399 . S
C1375 C1376 1.385 . S
C1376 H1362 0.931 . S
C1376 C1375 1.385 . S
C1376 C1377 1.389 . S
C1377 C1376 1.389 . S
C1377 C1378 1.387 . S
C1378 H1363 0.930 . S
C1378 C1373 1.390 . S
C1378 C1377 1.387 . S
H1379 C1391 0.930 . S
H1380 C1393 0.930 . S
H1381 C1394 0.930 . S
H1382 C1398 0.959 . S
H1383 C1398 0.959 . S
H1384 C1398 0.961 . S
H1385 C1399 0.960 . S
H1386 C1399 0.961 . S
H1387 C1399 0.959 . S
H1388 C1402 0.929 . S
H1389 C1403 0.931 . S
H1390 C1405 0.930 . S
C1391 H1379 0.930 . S
C1391 C1392 1.399 . S
C1391 C1396 1.399 . S
C1392 C1391 1.399 . S
C1392 C1393 1.376 . S
C1393 H1380 0.930 . S
C1393 C1392 1.376 . S
C1393 C1394 1.388 . S
C1394 H1381 0.930 . S
C1394 C1393 1.388 . S
C1394 C1395 1.390 . S
C1395 C1394 1.390 . S
C1395 C1396 1.394 . S
C1395 C1401 1.465 . S
C1396 C1391 1.399 . S
C1396 C1395 1.394 . S
C1396 C1397 1.516 . S
C1397 C1396 1.516 . S
C1397 C1398 1.502 . S
C1397 C1399 1.561 . S
C1397 C1400 1.526 . S
C1398 H1382 0.959 . S
C1398 H1383 0.959 . S
C1398 H1384 0.961 . S
C1398 C1397 1.502 . S
C1399 H1385 0.960 . S
C1399 H1386 0.961 . S
C1399 H1387 0.959 . S
C1399 C1397 1.561 . S
C1400 C1397 1.526 . S
C1400 C1401 1.396 . S
C1400 C1405 1.390 . S
C1401 C1395 1.465 . S
C1401 C1400 1.396 . S
C1401 C1402 1.399 . S
C1402 H1388 0.929 . S
C1402 C1401 1.399 . S
C1402 C1403 1.385 . S
C1403 H1389 0.931 . S
C1403 C1402 1.385 . S
C1403 C1404 1.389 . S
C1404 C1403 1.389 . S
C1404 C1405 1.387 . S
C1405 H1390 0.930 . S
C1405 C1400 1.390 . S
C1405 C1404 1.387 . S
H1406 C1418 0.930 . S
H1407 C1420 0.930 . S
H1408 C1421 0.930 . S
H1409 C1425 0.959 . S
H1410 C1425 0.959 . S
H1411 C1425 0.961 . S
H1412 C1426 0.960 . S
H1413 C1426 0.961 . S
H1414 C1426 0.959 . S
H1415 C1429 0.929 . S
H1416 C1430 0.931 . S
H1417 C1432 0.930 . S
C1418 H1406 0.930 . S
C1418 C1419 1.399 . S
C1418 C1423 1.399 . S
C1419 C1418 1.399 . S
C1419 C1420 1.376 . S
C1420 H1407 0.930 . S
C1420 C1419 1.376 . S
C1420 C1421 1.388 . S
C1421 H1408 0.930 . S
C1421 C1420 1.388 . S
C1421 C1422 1.390 . S
C1422 C1421 1.390 . S
C1422 C1423 1.394 . S
C1422 C1428 1.465 . S
C1423 C1418 1.399 . S
C1423 C1422 1.394 . S
C1423 C1424 1.516 . S
C1424 C1423 1.516 . S
C1424 C1425 1.502 . S
C1424 C1426 1.561 . S
C1424 C1427 1.526 . S
C1425 H1409 0.959 . S
C1425 H1410 0.959 . S
C1425 H1411 0.961 . S
C1425 C1424 1.502 . S
C1426 H1412 0.960 . S
C1426 H1413 0.961 . S
C1426 H1414 0.959 . S
C1426 C1424 1.561 . S
C1427 C1424 1.526 . S
C1427 C1428 1.396 . S
C1427 C1432 1.390 . S
C1428 C1422 1.465 . S
C1428 C1427 1.396 . S
C1428 C1429 1.399 . S
C1429 H1415 0.929 . S
C1429 C1428 1.399 . S
C1429 C1430 1.385 . S
C1430 H1416 0.931 . S
C1430 C1429 1.385 . S
C1430 C1431 1.389 . S
C1431 C1430 1.389 . S
C1431 C1432 1.387 . S
C1432 H1417 0.930 . S
C1432 C1427 1.390 . S
C1432 C1431 1.387 . S
H1433 C1445 0.930 . S
H1434 C1447 0.930 . S
H1435 C1448 0.930 . S
H1436 C1452 0.959 . S
H1437 C1452 0.959 . S
H1438 C1452 0.961 . S
H1439 C1453 0.960 . S
H1440 C1453 0.961 . S
H1441 C1453 0.959 . S
H1442 C1456 0.929 . S
H1443 C1457 0.931 . S
H1444 C1459 0.930 . S
C1445 H1433 0.930 . S
C1445 C1446 1.399 . S
C1445 C1450 1.399 . S
C1446 C1445 1.399 . S
C1446 C1447 1.376 . S
C1447 H1434 0.930 . S
C1447 C1446 1.376 . S
C1447 C1448 1.388 . S
C1448 H1435 0.930 . S
C1448 C1447 1.388 . S
C1448 C1449 1.390 . S
C1449 C1448 1.390 . S
C1449 C1450 1.394 . S
C1449 C1455 1.465 . S
C1450 C1445 1.399 . S
C1450 C1449 1.394 . S
C1450 C1451 1.516 . S
C1451 C1450 1.516 . S
C1451 C1452 1.502 . S
C1451 C1453 1.561 . S
C1451 C1454 1.526 . S
C1452 H1436 0.959 . S
C1452 H1437 0.959 . S
C1452 H1438 0.961 . S
C1452 C1451 1.502 . S
C1453 H1439 0.960 . S
C1453 H1440 0.961 . S
C1453 H1441 0.959 . S
C1453 C1451 1.561 . S
C1454 C1451 1.526 . S
C1454 C1455 1.396 . S
C1454 C1459 1.390 . S
C1455 C1449 1.465 . S
C1455 C1454 1.396 . S
C1455 C1456 1.399 . S
C1456 H1442 0.929 . S
C1456 C1455 1.399 . S
C1456 C1457 1.385 . S
C1457 H1443 0.931 . S
C1457 C1456 1.385 . S
C1457 C1458 1.389 . S
C1458 C1457 1.389 . S
C1458 C1459 1.387 . S
C1459 H1444 0.930 . S
C1459 C1454 1.390 . S
C1459 C1458 1.387 . S
H1460 C1472 0.930 . S
H1461 C1474 0.930 . S
H1462 C1475 0.930 . S
H1463 C1479 0.959 . S
H1464 C1479 0.959 . S
H1465 C1479 0.961 . S
H1466 C1480 0.960 . S
H1467 C1480 0.961 . S
H1468 C1480 0.959 . S
H1469 C1483 0.929 . S
H1470 C1484 0.931 . S
H1471 C1486 0.930 . S
C1472 H1460 0.930 . S
C1472 C1473 1.399 . S
C1472 C1477 1.399 . S
C1473 C1472 1.399 . S
C1473 C1474 1.376 . S
C1474 H1461 0.930 . S
C1474 C1473 1.376 . S
C1474 C1475 1.388 . S
C1475 H1462 0.930 . S
C1475 C1474 1.388 . S
C1475 C1476 1.390 . S
C1476 C1475 1.390 . S
C1476 C1477 1.394 . S
C1476 C1482 1.465 . S
C1477 C1472 1.399 . S
C1477 C1476 1.394 . S
C1477 C1478 1.516 . S
C1478 C1477 1.516 . S
C1478 C1479 1.502 . S
C1478 C1480 1.561 . S
C1478 C1481 1.526 . S
C1479 H1463 0.959 . S
C1479 H1464 0.959 . S
C1479 H1465 0.961 . S
C1479 C1478 1.502 . S
C1480 H1466 0.960 . S
C1480 H1467 0.961 . S
C1480 H1468 0.959 . S
C1480 C1478 1.561 . S
C1481 C1478 1.526 . S
C1481 C1482 1.396 . S
C1481 C1486 1.390 . S
C1482 C1476 1.465 . S
C1482 C1481 1.396 . S
C1482 C1483 1.399 . S
C1483 H1469 0.929 . S
C1483 C1482 1.399 . S
C1483 C1484 1.385 . S
C1484 H1470 0.931 . S
C1484 C1483 1.385 . S
C1484 C1485 1.389 . S
C1485 C1484 1.389 . S
C1485 C1486 1.387 . S
C1486 H1471 0.930 . S
C1486 C1481 1.390 . S
C1486 C1485 1.387 . S
H1487 C1499 0.930 . S
H1488 C1501 0.930 . S
H1489 C1502 0.930 . S
H1490 C1506 0.959 . S
H1491 C1506 0.959 . S
H1492 C1506 0.961 . S
H1493 C1507 0.960 . S
H1494 C1507 0.961 . S
H1495 C1507 0.959 . S
H1496 C1510 0.929 . S
H1497 C1511 0.931 . S
H1498 C1513 0.930 . S
C1499 H1487 0.930 . S
C1499 C1500 1.399 . S
C1499 C1504 1.399 . S
C1500 C1499 1.399 . S
C1500 C1501 1.376 . S
C1501 H1488 0.930 . S
C1501 C1500 1.376 . S
C1501 C1502 1.388 . S
C1502 H1489 0.930 . S
C1502 C1501 1.388 . S
C1502 C1503 1.390 . S
C1503 C1502 1.390 . S
C1503 C1504 1.394 . S
C1503 C1509 1.465 . S
C1504 C1499 1.399 . S
C1504 C1503 1.394 . S
C1504 C1505 1.516 . S
C1505 C1504 1.516 . S
C1505 C1506 1.502 . S
C1505 C1507 1.561 . S
C1505 C1508 1.526 . S
C1506 H1490 0.959 . S
C1506 H1491 0.959 . S
C1506 H1492 0.961 . S
C1506 C1505 1.502 . S
C1507 H1493 0.960 . S
C1507 H1494 0.961 . S
C1507 H1495 0.959 . S
C1507 C1505 1.561 . S
C1508 C1505 1.526 . S
C1508 C1509 1.396 . S
C1508 C1513 1.390 . S
C1509 C1503 1.465 . S
C1509 C1508 1.396 . S
C1509 C1510 1.399 . S
C1510 H1496 0.929 . S
C1510 C1509 1.399 . S
C1510 C1511 1.385 . S
C1511 H1497 0.931 . S
C1511 C1510 1.385 . S
C1511 C1512 1.389 . S
C1512 C1511 1.389 . S
C1512 C1513 1.387 . S
C1513 H1498 0.930 . S
C1513 C1508 1.390 . S
C1513 C1512 1.387 . S
H1514 C1526 0.930 . S
H1515 C1528 0.930 . S
H1516 C1529 0.930 . S
H1517 C1533 0.959 . S
H1518 C1533 0.959 . S
H1519 C1533 0.961 . S
H1520 C1534 0.960 . S
H1521 C1534 0.961 . S
H1522 C1534 0.959 . S
H1523 C1537 0.929 . S
H1524 C1538 0.931 . S
H1525 C1540 0.930 . S
C1526 H1514 0.930 . S
C1526 C1527 1.399 . S
C1526 C1531 1.399 . S
C1527 C1526 1.399 . S
C1527 C1528 1.376 . S
C1528 H1515 0.930 . S
C1528 C1527 1.376 . S
C1528 C1529 1.388 . S
C1529 H1516 0.930 . S
C1529 C1528 1.388 . S
C1529 C1530 1.390 . S
C1530 C1529 1.390 . S
C1530 C1531 1.394 . S
C1530 C1536 1.465 . S
C1531 C1526 1.399 . S
C1531 C1530 1.394 . S
C1531 C1532 1.516 . S
C1532 C1531 1.516 . S
C1532 C1533 1.502 . S
C1532 C1534 1.561 . S
C1532 C1535 1.526 . S
C1533 H1517 0.959 . S
C1533 H1518 0.959 . S
C1533 H1519 0.961 . S
C1533 C1532 1.502 . S
C1534 H1520 0.960 . S
C1534 H1521 0.961 . S
C1534 H1522 0.959 . S
C1534 C1532 1.561 . S
C1535 C1532 1.526 . S
C1535 C1536 1.396 . S
C1535 C1540 1.390 . S
C1536 C1530 1.465 . S
C1536 C1535 1.396 . S
C1536 C1537 1.399 . S
C1537 H1523 0.929 . S
C1537 C1536 1.399 . S
C1537 C1538 1.385 . S
C1538 H1524 0.931 . S
C1538 C1537 1.385 . S
C1538 C1539 1.389 . S
C1539 C1538 1.389 . S
C1539 C1540 1.387 . S
C1540 H1525 0.930 . S
C1540 C1535 1.390 . S
C1540 C1539 1.387 . S
H1541 C1553 0.930 . S
H1542 C1555 0.930 . S
H1543 C1556 0.930 . S
H1544 C1560 0.959 . S
H1545 C1560 0.959 . S
H1546 C1560 0.961 . S
H1547 C1561 0.960 . S
H1548 C1561 0.961 . S
H1549 C1561 0.959 . S
H1550 C1564 0.929 . S
H1551 C1565 0.931 . S
H1552 C1567 0.930 . S
C1553 H1541 0.930 . S
C1553 C1554 1.399 . S
C1553 C1558 1.399 . S
C1554 C1553 1.399 . S
C1554 C1555 1.376 . S
C1555 H1542 0.930 . S
C1555 C1554 1.376 . S
C1555 C1556 1.388 . S
C1556 H1543 0.930 . S
C1556 C1555 1.388 . S
C1556 C1557 1.390 . S
C1557 C1556 1.390 . S
C1557 C1558 1.394 . S
C1557 C1563 1.465 . S
C1558 C1553 1.399 . S
C1558 C1557 1.394 . S
C1558 C1559 1.516 . S
C1559 C1558 1.516 . S
C1559 C1560 1.502 . S
C1559 C1561 1.561 . S
C1559 C1562 1.526 . S
C1560 H1544 0.959 . S
C1560 H1545 0.959 . S
C1560 H1546 0.961 . S
C1560 C1559 1.502 . S
C1561 H1547 0.960 . S
C1561 H1548 0.961 . S
C1561 H1549 0.959 . S
C1561 C1559 1.561 . S
C1562 C1559 1.526 . S
C1562 C1563 1.396 . S
C1562 C1567 1.390 . S
C1563 C1557 1.465 . S
C1563 C1562 1.396 . S
C1563 C1564 1.399 . S
C1564 H1550 0.929 . S
C1564 C1563 1.399 . S
C1564 C1565 1.385 . S
C1565 H1551 0.931 . S
C1565 C1564 1.385 . S
C1565 C1566 1.389 . S
C1566 C1565 1.389 . S
C1566 C1567 1.387 . S
C1567 H1552 0.930 . S
C1567 C1562 1.390 . S
C1567 C1566 1.387 . S
H1568 C1580 0.930 . S
H1569 C1582 0.930 . S
H1570 C1583 0.930 . S
H1571 C1587 0.959 . S
H1572 C1587 0.959 . S
H1573 C1587 0.961 . S
H1574 C1588 0.960 . S
H1575 C1588 0.961 . S
H1576 C1588 0.959 . S
H1577 C1591 0.929 . S
H1578 C1592 0.931 . S
H1579 C1594 0.930 . S
C1580 H1568 0.930 . S
C1580 C1581 1.399 . S
C1580 C1585 1.399 . S
C1581 C1580 1.399 . S
C1581 C1582 1.376 . S
C1582 H1569 0.930 . S
C1582 C1581 1.376 . S
C1582 C1583 1.388 . S
C1583 H1570 0.930 . S
C1583 C1582 1.388 . S
C1583 C1584 1.390 . S
C1584 C1583 1.390 . S
C1584 C1585 1.394 . S
C1584 C1590 1.465 . S
C1585 C1580 1.399 . S
C1585 C1584 1.394 . S
C1585 C1586 1.516 . S
C1586 C1585 1.516 . S
C1586 C1587 1.502 . S
C1586 C1588 1.561 . S
C1586 C1589 1.526 . S
C1587 H1571 0.959 . S
C1587 H1572 0.959 . S
C1587 H1573 0.961 . S
C1587 C1586 1.502 . S
C1588 H1574 0.960 . S
C1588 H1575 0.961 . S
C1588 H1576 0.959 . S
C1588 C1586 1.561 . S
C1589 C1586 1.526 . S
C1589 C1590 1.396 . S
C1589 C1594 1.390 . S
C1590 C1584 1.465 . S
C1590 C1589 1.396 . S
C1590 C1591 1.399 . S
C1591 H1577 0.929 . S
C1591 C1590 1.399 . S
C1591 C1592 1.385 . S
C1592 H1578 0.931 . S
C1592 C1591 1.385 . S
C1592 C1593 1.389 . S
C1593 C1592 1.389 . S
C1593 C1594 1.387 . S
C1594 H1579 0.930 . S
C1594 C1589 1.390 . S
C1594 C1593 1.387 . S
H1595 C1607 0.930 . S
H1596 C1609 0.930 . S
H1597 C1610 0.930 . S
H1598 C1614 0.959 . S
H1599 C1614 0.959 . S
H1600 C1614 0.961 . S
H1601 C1615 0.960 . S
H1602 C1615 0.961 . S
H1603 C1615 0.959 . S
H1604 C1618 0.929 . S
H1605 C1619 0.931 . S
H1606 C1621 0.930 . S
C1607 H1595 0.930 . S
C1607 C1608 1.399 . S
C1607 C1612 1.399 . S
C1608 C1607 1.399 . S
C1608 C1609 1.376 . S
C1609 H1596 0.930 . S
C1609 C1608 1.376 . S
C1609 C1610 1.388 . S
C1610 H1597 0.930 . S
C1610 C1609 1.388 . S
C1610 C1611 1.390 . S
C1611 C1610 1.390 . S
C1611 C1612 1.394 . S
C1611 C1617 1.465 . S
C1612 C1607 1.399 . S
C1612 C1611 1.394 . S
C1612 C1613 1.516 . S
C1613 C1612 1.516 . S
C1613 C1614 1.502 . S
C1613 C1615 1.561 . S
C1613 C1616 1.526 . S
C1614 H1598 0.959 . S
C1614 H1599 0.959 . S
C1614 H1600 0.961 . S
C1614 C1613 1.502 . S
C1615 H1601 0.960 . S
C1615 H1602 0.961 . S
C1615 H1603 0.959 . S
C1615 C1613 1.561 . S
C1616 C1613 1.526 . S
C1616 C1617 1.396 . S
C1616 C1621 1.390 . S
C1617 C1611 1.465 . S
C1617 C1616 1.396 . S
C1617 C1618 1.399 . S
C1618 H1604 0.929 . S
C1618 C1617 1.399 . S
C1618 C1619 1.385 . S
C1619 H1605 0.931 . S
C1619 C1618 1.385 . S
C1619 C1620 1.389 . S
C1620 C1619 1.389 . S
C1620 C1621 1.387 . S
C1621 H1606 0.930 . S
C1621 C1616 1.390 . S
C1621 C1620 1.387 . S
H1622 C1634 0.930 . S
H1623 C1636 0.930 . S
H1624 C1637 0.930 . S
H1625 C1641 0.959 . S
H1626 C1641 0.959 . S
H1627 C1641 0.961 . S
H1628 C1642 0.960 . S
H1629 C1642 0.961 . S
H1630 C1642 0.959 . S
H1631 C1645 0.929 . S
H1632 C1646 0.931 . S
H1633 C1648 0.930 . S
C1634 H1622 0.930 . S
C1634 C1635 1.399 . S
C1634 C1639 1.399 . S
C1635 C1634 1.399 . S
C1635 C1636 1.376 . S
C1636 H1623 0.930 . S
C1636 C1635 1.376 . S
C1636 C1637 1.388 . S
C1637 H1624 0.930 . S
C1637 C1636 1.388 . S
C1637 C1638 1.390 . S
C1638 C1637 1.390 . S
C1638 C1639 1.394 . S
C1638 C1644 1.465 . S
C1639 C1634 1.399 . S
C1639 C1638 1.394 . S
C1639 C1640 1.516 . S
C1640 C1639 1.516 . S
C1640 C1641 1.502 . S
C1640 C1642 1.561 . S
C1640 C1643 1.526 . S
C1641 H1625 0.959 . S
C1641 H1626 0.959 . S
C1641 H1627 0.961 . S
C1641 C1640 1.502 . S
C1642 H1628 0.960 . S
C1642 H1629 0.961 . S
C1642 H1630 0.959 . S
C1642 C1640 1.561 . S
C1643 C1640 1.526 . S
C1643 C1644 1.396 . S
C1643 C1648 1.390 . S
C1644 C1638 1.465 . S
C1644 C1643 1.396 . S
C1644 C1645 1.399 . S
C1645 H1631 0.929 . S
C1645 C1644 1.399 . S
C1645 C1646 1.385 . S
C1646 H1632 0.931 . S
C1646 C1645 1.385 . S
C1646 C1647 1.389 . S
C1647 C1646 1.389 . S
C1647 C1648 1.387 . S
C1648 H1633 0.930 . S
C1648 C1643 1.390 . S
C1648 C1647 1.387 . S
H1649 C1661 0.930 . S
H1650 C1663 0.930 . S
H1651 C1664 0.930 . S
H1652 C1668 0.959 . S
H1653 C1668 0.959 . S
H1654 C1668 0.961 . S
H1655 C1669 0.960 . S
H1656 C1669 0.961 . S
H1657 C1669 0.959 . S
H1658 C1672 0.929 . S
H1659 C1673 0.931 . S
H1660 C1675 0.930 . S
C1661 H1649 0.930 . S
C1661 C1662 1.399 . S
C1661 C1666 1.399 . S
C1662 C1661 1.399 . S
C1662 C1663 1.376 . S
C1663 H1650 0.930 . S
C1663 C1662 1.376 . S
C1663 C1664 1.388 . S
C1664 H1651 0.930 . S
C1664 C1663 1.388 . S
C1664 C1665 1.390 . S
C1665 C1664 1.390 . S
C1665 C1666 1.394 . S
C1665 C1671 1.465 . S
C1666 C1661 1.399 . S
C1666 C1665 1.394 . S
C1666 C1667 1.516 . S
C1667 C1666 1.516 . S
C1667 C1668 1.502 . S
C1667 C1669 1.561 . S
C1667 C1670 1.526 . S
C1668 H1652 0.959 . S
C1668 H1653 0.959 . S
C1668 H1654 0.961 . S
C1668 C1667 1.502 . S
C1669 H1655 0.960 . S
C1669 H1656 0.961 . S
C1669 H1657 0.959 . S
C1669 C1667 1.561 . S
C1670 C1667 1.526 . S
C1670 C1671 1.396 . S
C1670 C1675 1.390 . S
C1671 C1665 1.465 . S
C1671 C1670 1.396 . S
C1671 C1672 1.399 . S
C1672 H1658 0.929 . S
C1672 C1671 1.399 . S
C1672 C1673 1.385 . S
C1673 H1659 0.931 . S
C1673 C1672 1.385 . S
C1673 C1674 1.389 . S
C1674 C1673 1.389 . S
C1674 C1675 1.387 . S
C1675 H1660 0.930 . S
C1675 C1670 1.390 . S
C1675 C1674 1.387 . S
H1676 C1688 0.930 . S
H1677 C1690 0.930 . S
H1678 C1691 0.930 . S
H1679 C1695 0.959 . S
H1680 C1695 0.959 . S
H1681 C1695 0.961 . S
H1682 C1696 0.960 . S
H1683 C1696 0.961 . S
H1684 C1696 0.959 . S
H1685 C1699 0.929 . S
H1686 C1700 0.931 . S
H1687 C1702 0.930 . S
C1688 H1676 0.930 . S
C1688 C1689 1.399 . S
C1688 C1693 1.399 . S
C1689 C1688 1.399 . S
C1689 C1690 1.376 . S
C1690 H1677 0.930 . S
C1690 C1689 1.376 . S
C1690 C1691 1.388 . S
C1691 H1678 0.930 . S
C1691 C1690 1.388 . S
C1691 C1692 1.390 . S
C1692 C1691 1.390 . S
C1692 C1693 1.394 . S
C1692 C1698 1.465 . S
C1693 C1688 1.399 . S
C1693 C1692 1.394 . S
C1693 C1694 1.516 . S
C1694 C1693 1.516 . S
C1694 C1695 1.502 . S
C1694 C1696 1.561 . S
C1694 C1697 1.526 . S
C1695 H1679 0.959 . S
C1695 H1680 0.959 . S
C1695 H1681 0.961 . S
C1695 C1694 1.502 . S
C1696 H1682 0.960 . S
C1696 H1683 0.961 . S
C1696 H1684 0.959 . S
C1696 C1694 1.561 . S
C1697 C1694 1.526 . S
C1697 C1698 1.396 . S
C1697 C1702 1.390 . S
C1698 C1692 1.465 . S
C1698 C1697 1.396 . S
C1698 C1699 1.399 . S
C1699 H1685 0.929 . S
C1699 C1698 1.399 . S
C1699 C1700 1.385 . S
C1700 H1686 0.931 . S
C1700 C1699 1.385 . S
C1700 C1701 1.389 . S
C1701 C1700 1.389 . S
C1701 C1702 1.387 . S
C1702 H1687 0.930 . S
C1702 C1697 1.390 . S
C1702 C1701 1.387 . S
H1703 C1715 0.930 . S
H1704 C1717 0.930 . S
H1705 C1718 0.930 . S
H1706 C1722 0.959 . S
H1707 C1722 0.959 . S
H1708 C1722 0.961 . S
H1709 C1723 0.960 . S
H1710 C1723 0.961 . S
H1711 C1723 0.959 . S
H1712 C1726 0.929 . S
H1713 C1727 0.931 . S
H1714 C1729 0.930 . S
C1715 H1703 0.930 . S
C1715 C1716 1.399 . S
C1715 C1720 1.399 . S
C1716 C1715 1.399 . S
C1716 C1717 1.376 . S
C1717 H1704 0.930 . S
C1717 C1716 1.376 . S
C1717 C1718 1.388 . S
C1718 H1705 0.930 . S
C1718 C1717 1.388 . S
C1718 C1719 1.390 . S
C1719 C1718 1.390 . S
C1719 C1720 1.394 . S
C1719 C1725 1.465 . S
C1720 C1715 1.399 . S
C1720 C1719 1.394 . S
C1720 C1721 1.516 . S
C1721 C1720 1.516 . S
C1721 C1722 1.502 . S
C1721 C1723 1.561 . S
C1721 C1724 1.526 . S
C1722 H1706 0.959 . S
C1722 H1707 0.959 . S
C1722 H1708 0.961 . S
C1722 C1721 1.502 . S
C1723 H1709 0.960 . S
C1723 H1710 0.961 . S
C1723 H1711 0.959 . S
C1723 C1721 1.561 . S
C1724 C1721 1.526 . S
C1724 C1725 1.396 . S
C1724 C1729 1.390 . S
C1725 C1719 1.465 . S
C1725 C1724 1.396 . S
C1725 C1726 1.399 . S
C1726 H1712 0.929 . S
C1726 C1725 1.399 . S
C1726 C1727 1.385 . S
C1727 H1713 0.931 . S
C1727 C1726 1.385 . S
C1727 C1728 1.389 . S
C1728 C1727 1.389 . S
C1728 C1729 1.387 . S
C1729 H1714 0.930 . S
C1729 C1724 1.390 . S
C1729 C1728 1.387 . S
H1730 C1742 0.930 . S
H1731 C1744 0.930 . S
H1732 C1745 0.930 . S
H1733 C1749 0.959 . S
H1734 C1749 0.959 . S
H1735 C1749 0.961 . S
H1736 C1750 0.960 . S
H1737 C1750 0.961 . S
H1738 C1750 0.959 . S
H1739 C1753 0.929 . S
H1740 C1754 0.931 . S
H1741 C1756 0.930 . S
C1742 H1730 0.930 . S
C1742 C1743 1.399 . S
C1742 C1747 1.399 . S
C1743 C1742 1.399 . S
C1743 C1744 1.376 . S
C1744 H1731 0.930 . S
C1744 C1743 1.376 . S
C1744 C1745 1.388 . S
C1745 H1732 0.930 . S
C1745 C1744 1.388 . S
C1745 C1746 1.390 . S
C1746 C1745 1.390 . S
C1746 C1747 1.394 . S
C1746 C1752 1.465 . S
C1747 C1742 1.399 . S
C1747 C1746 1.394 . S
C1747 C1748 1.516 . S
C1748 C1747 1.516 . S
C1748 C1749 1.502 . S
C1748 C1750 1.561 . S
C1748 C1751 1.526 . S
C1749 H1733 0.959 . S
C1749 H1734 0.959 . S
C1749 H1735 0.961 . S
C1749 C1748 1.502 . S
C1750 H1736 0.960 . S
C1750 H1737 0.961 . S
C1750 H1738 0.959 . S
C1750 C1748 1.561 . S
C1751 C1748 1.526 . S
C1751 C1752 1.396 . S
C1751 C1756 1.390 . S
C1752 C1746 1.465 . S
C1752 C1751 1.396 . S
C1752 C1753 1.399 . S
C1753 H1739 0.929 . S
C1753 C1752 1.399 . S
C1753 C1754 1.385 . S
C1754 H1740 0.931 . S
C1754 C1753 1.385 . S
C1754 C1755 1.389 . S
C1755 C1754 1.389 . S
C1755 C1756 1.387 . S
C1756 H1741 0.930 . S
C1756 C1751 1.390 . S
C1756 C1755 1.387 . S
H1757 C1769 0.930 . S
H1758 C1771 0.930 . S
H1759 C1772 0.930 . S
H1760 C1776 0.959 . S
H1761 C1776 0.959 . S
H1762 C1776 0.961 . S
H1763 C1777 0.960 . S
H1764 C1777 0.961 . S
H1765 C1777 0.959 . S
H1766 C1780 0.929 . S
H1767 C1781 0.931 . S
H1768 C1783 0.930 . S
C1769 H1757 0.930 . S
C1769 C1770 1.399 . S
C1769 C1774 1.399 . S
C1770 C1769 1.399 . S
C1770 C1771 1.376 . S
C1771 H1758 0.930 . S
C1771 C1770 1.376 . S
C1771 C1772 1.388 . S
C1772 H1759 0.930 . S
C1772 C1771 1.388 . S
C1772 C1773 1.390 . S
C1773 C1772 1.390 . S
C1773 C1774 1.394 . S
C1773 C1779 1.465 . S
C1774 C1769 1.399 . S
C1774 C1773 1.394 . S
C1774 C1775 1.516 . S
C1775 C1774 1.516 . S
C1775 C1776 1.502 . S
C1775 C1777 1.561 . S
C1775 C1778 1.526 . S
C1776 H1760 0.959 . S
C1776 H1761 0.959 . S
C1776 H1762 0.961 . S
C1776 C1775 1.502 . S
C1777 H1763 0.960 . S
C1777 H1764 0.961 . S
C1777 H1765 0.959 . S
C1777 C1775 1.561 . S
C1778 C1775 1.526 . S
C1778 C1779 1.396 . S
C1778 C1783 1.390 . S
C1779 C1773 1.465 . S
C1779 C1778 1.396 . S
C1779 C1780 1.399 . S
C1780 H1766 0.929 . S
C1780 C1779 1.399 . S
C1780 C1781 1.385 . S
C1781 H1767 0.931 . S
C1781 C1780 1.385 . S
C1781 C1782 1.389 . S
C1782 C1781 1.389 . S
C1782 C1783 1.387 . S
C1783 H1768 0.930 . S
C1783 C1778 1.390 . S
C1783 C1782 1.387 . S
H1784 C1796 0.930 . S
H1785 C1798 0.930 . S
H1786 C1799 0.930 . S
H1787 C1803 0.959 . S
H1788 C1803 0.959 . S
H1789 C1803 0.961 . S
H1790 C1804 0.960 . S
H1791 C1804 0.961 . S
H1792 C1804 0.959 . S
H1793 C1807 0.929 . S
H1794 C1808 0.931 . S
H1795 C1810 0.930 . S
C1796 H1784 0.930 . S
C1796 C1797 1.399 . S
C1796 C1801 1.399 . S
C1797 C1796 1.399 . S
C1797 C1798 1.376 . S
C1798 H1785 0.930 . S
C1798 C1797 1.376 . S
C1798 C1799 1.388 . S
C1799 H1786 0.930 . S
C1799 C1798 1.388 . S
C1799 C1800 1.390 . S
C1800 C1799 1.390 . S
C1800 C1801 1.394 . S
C1800 C1806 1.465 . S
C1801 C1796 1.399 . S
C1801 C1800 1.394 . S
C1801 C1802 1.516 . S
C1802 C1801 1.516 . S
C1802 C1803 1.502 . S
C1802 C1804 1.561 . S
C1802 C1805 1.526 . S
C1803 H1787 0.959 . S
C1803 H1788 0.959 . S
C1803 H1789 0.961 . S
C1803 C1802 1.502 . S
C1804 H1790 0.960 . S
C1804 H1791 0.961 . S
C1804 H1792 0.959 . S
C1804 C1802 1.561 . S
C1805 C1802 1.526 . S
C1805 C1806 1.396 . S
C1805 C1810 1.390 . S
C1806 C1800 1.465 . S
C1806 C1805 1.396 . S
C1806 C1807 1.399 . S
C1807 H1793 0.929 . S
C1807 C1806 1.399 . S
C1807 C1808 1.385 . S
C1808 H1794 0.931 . S
C1808 C1807 1.385 . S
C1808 C1809 1.389 . S
C1809 C1808 1.389 . S
C1809 C1810 1.387 . S
C1810 H1795 0.930 . S
C1810 C1805 1.390 . S
C1810 C1809 1.387 . S
H1811 C1823 0.930 . S
H1812 C1825 0.930 . S
H1813 C1826 0.930 . S
H1814 C1830 0.959 . S
H1815 C1830 0.959 . S
H1816 C1830 0.961 . S
H1817 C1831 0.960 . S
H1818 C1831 0.961 . S
H1819 C1831 0.959 . S
H1820 C1834 0.929 . S
H1821 C1835 0.931 . S
H1822 C1837 0.930 . S
C1823 H1811 0.930 . S
C1823 C1824 1.399 . S
C1823 C1828 1.399 . S
C1824 C1823 1.399 . S
C1824 C1825 1.376 . S
C1825 H1812 0.930 . S
C1825 C1824 1.376 . S
C1825 C1826 1.388 . S
C1826 H1813 0.930 . S
C1826 C1825 1.388 . S
C1826 C1827 1.390 . S
C1827 C1826 1.390 . S
C1827 C1828 1.394 . S
C1827 C1833 1.465 . S
C1828 C1823 1.399 . S
C1828 C1827 1.394 . S
C1828 C1829 1.516 . S
C1829 C1828 1.516 . S
C1829 C1830 1.502 . S
C1829 C1831 1.561 . S
C1829 C1832 1.526 . S
C1830 H1814 0.959 . S
C1830 H1815 0.959 . S
C1830 H1816 0.961 . S
C1830 C1829 1.502 . S
C1831 H1817 0.960 . S
C1831 H1818 0.961 . S
C1831 H1819 0.959 . S
C1831 C1829 1.561 . S
C1832 C1829 1.526 . S
C1832 C1833 1.396 . S
C1832 C1837 1.390 . S
C1833 C1827 1.465 . S
C1833 C1832 1.396 . S
C1833 C1834 1.399 . S
C1834 H1820 0.929 . S
C1834 C1833 1.399 . S
C1834 C1835 1.385 . S
C1835 H1821 0.931 . S
C1835 C1834 1.385 . S
C1835 C1836 1.389 . S
C1836 C1835 1.389 . S
C1836 C1837 1.387 . S
C1837 H1822 0.930 . S
C1837 C1832 1.390 . S
C1837 C1836 1.387 . S
H1838 C1850 0.930 . S
H1839 C1852 0.930 . S
H1840 C1853 0.930 . S
H1841 C1857 0.959 . S
H1842 C1857 0.959 . S
H1843 C1857 0.961 . S
H1844 C1858 0.960 . S
H1845 C1858 0.961 . S
H1846 C1858 0.959 . S
H1847 C1861 0.929 . S
H1848 C1862 0.931 . S
H1849 C1864 0.930 . S
C1850 H1838 0.930 . S
C1850 C1851 1.399 . S
C1850 C1855 1.399 . S
C1851 C1850 1.399 . S
C1851 C1852 1.376 . S
C1852 H1839 0.930 . S
C1852 C1851 1.376 . S
C1852 C1853 1.388 . S
C1853 H1840 0.930 . S
C1853 C1852 1.388 . S
C1853 C1854 1.390 . S
C1854 C1853 1.390 . S
C1854 C1855 1.394 . S
C1854 C1860 1.465 . S
C1855 C1850 1.399 . S
C1855 C1854 1.394 . S
C1855 C1856 1.516 . S
C1856 C1855 1.516 . S
C1856 C1857 1.502 . S
C1856 C1858 1.561 . S
C1856 C1859 1.526 . S
C1857 H1841 0.959 . S
C1857 H1842 0.959 . S
C1857 H1843 0.961 . S
C1857 C1856 1.502 . S
C1858 H1844 0.960 . S
C1858 H1845 0.961 . S
C1858 H1846 0.959 . S
C1858 C1856 1.561 . S
C1859 C1856 1.526 . S
C1859 C1860 1.396 . S
C1859 C1864 1.390 . S
C1860 C1854 1.465 . S
C1860 C1859 1.396 . S
C1860 C1861 1.399 . S
C1861 H1847 0.929 . S
C1861 C1860 1.399 . S
C1861 C1862 1.385 . S
C1862 H1848 0.931 . S
C1862 C1861 1.385 . S
C1862 C1863 1.389 . S
C1863 C1862 1.389 . S
C1863 C1864 1.387 . S
C1864 H1849 0.930 . S
C1864 C1859 1.390 . S
C1864 C1863 1.387 . S
H1865 C1877 0.930 . S
H1866 C1879 0.930 . S
H1867 C1880 0.930 . S
H1868 C1884 0.959 . S
H1869 C1884 0.959 . S
H1870 C1884 0.961 . S
H1871 C1885 0.960 . S
H1872 C1885 0.961 . S
H1873 C1885 0.959 . S
H1874 C1888 0.929 . S
H1875 C1889 0.931 . S
H1876 C1891 0.930 . S
C1877 H1865 0.930 . S
C1877 C1878 1.399 . S
C1877 C1882 1.399 . S
C1878 C1877 1.399 . S
C1878 C1879 1.376 . S
C1879 H1866 0.930 . S
C1879 C1878 1.376 . S
C1879 C1880 1.388 . S
C1880 H1867 0.930 . S
C1880 C1879 1.388 . S
C1880 C1881 1.390 . S
C1881 C1880 1.390 . S
C1881 C1882 1.394 . S
C1881 C1887 1.465 . S
C1882 C1877 1.399 . S
C1882 C1881 1.394 . S
C1882 C1883 1.516 . S
C1883 C1882 1.516 . S
C1883 C1884 1.502 . S
C1883 C1885 1.561 . S
C1883 C1886 1.526 . S
C1884 H1868 0.959 . S
C1884 H1869 0.959 . S
C1884 H1870 0.961 . S
C1884 C1883 1.502 . S
C1885 H1871 0.960 . S
C1885 H1872 0.961 . S
C1885 H1873 0.959 . S
C1885 C1883 1.561 . S
C1886 C1883 1.526 . S
C1886 C1887 1.396 . S
C1886 C1891 1.390 . S
C1887 C1881 1.465 . S
C1887 C1886 1.396 . S
C1887 C1888 1.399 . S
C1888 H1874 0.929 . S
C1888 C1887 1.399 . S
C1888 C1889 1.385 . S
C1889 H1875 0.931 . S
C1889 C1888 1.385 . S
C1889 C1890 1.389 . S
C1890 C1889 1.389 . S
C1890 C1891 1.387 . S
C1891 H1876 0.930 . S
C1891 C1886 1.390 . S
C1891 C1890 1.387 . S
C621 C301 1.294 . S
C609 N2 1.297 . S
C648 C339 2.485 . S
C636 C7 2.517 . S
C675 C360 1.646 . S
C663 N12 1.469 . S
C690 C16 1.935 . S
C702 C398 1.933 . S
C729 C438 2.602 . S
C717 C30 2.571 1_565 S
C756 C501 1.398 . S
C744 N35 1.374 . S
C771 C39 2.104 . S
C783 C539 2.088 . S
C810 C560 1.187 . S
C798 N25 1.181 . S
C837 C307 1.176 . S
C825 N58 1.201 . S
C852 N81 1.980 . S
C864 C336 1.977 . S
C891 C379 1.373 . S
C879 N104 1.232 . S
C906 N127 1.197 . S
C918 C421 1.230 . S
C945 C461 0.883 . S
C933 N48 0.873 1_565 S
C972 C507 1.566 . S
C960 N71 1.450 1_556 S
C987 N94 1.414 . S
C999 C536 1.416 . S
C1026 C579 1.836 . S
C1014 N117 1.793 . S
C1041 C85 2.399 . S
C1053 C278 2.337 . S
C1068 C122 2.438 . S
C1080 C467 2.415 . S
C1095 C53 1.914 . S
C1107 C478 1.933 . S
C1134 C520 1.409 . S
C1122 C76 1.401 1_655 S
C1161 C576 1.791 . S
C1149 C99 1.830 . S
C1188 C376 1.985 . S
C1176 C131 1.932 . S
C1215 C427 1.784 . S
C1203 C62 1.822 1_565 S
C1230 C108 1.107 . S
C1242 C320 1.127 . S
C1269 C581 1.355 . S
C1257 N140 1.343 . S
C1284 C145 2.510 . S
C1296 C459 2.465 . S
C1323 C480 1.527 . S
C1311 N150 1.388 . S
C1338 C154 1.908 . S
C1350 C518 1.988 . S
C1377 C318 2.592 . S
C1365 C168 2.569 . S
C1392 N173 1.204 . S
C1404 C381 1.309 . S
C1431 C419 2.079 . S
C1419 C177 2.123 . S
C1458 C280 1.207 . S
C1446 N163 1.097 . S
C1485 C587 1.665 . S
C1473 C200 1.625 . S
C1512 C456 2.230 . S
C1500 N219 2.248 . S
C1527 N242 1.513 . S
C1539 C499 1.619 . S
C1566 C541 1.457 . S
C1554 C269 1.457 . S
C1593 C341 1.155 . S
C1581 C191 1.184 . S
C1608 N209 1.717 . S
C1620 C387 1.811 . S
C1635 N232 1.718 . S
C1647 C416 1.688 . S
C1662 C260 2.352 . S
C1674 C299 2.337 . S
C1689 C223 2.096 . S
C1701 C558 2.044 . S
C1716 N255 1.984 . S
C1728 C347 1.990 . S
C1743 N186 1.451 . S
C1755 C358 1.499 . S
C1782 C400 1.139 . S
C1770 C214 1.097 . S
C1809 C296 1.506 . S
C1797 C237 1.464 . S
C1836 C496 1.542 . S
C1824 N265 1.523 . S
C1863 C547 1.398 . S
C1851 N196 1.396 . S
C1890 C440 0.775 . S
C1878 C246 0.841 . S
