# Generated by pormake.
# Topology ocu, (6,8)-cn, num edge types: 1
# Building blocks:
#     Node 0, Type 0, BuildingBlock: JUFBIX_clean_sbu_0, # of connection points: 6
#     Node 1, Type 0, BuildingBlock: JUFBIX_clean_sbu_0, # of connection points: 6
#     Node 2, Type 0, BuildingBlock: JUFBIX_clean_sbu_0, # of connection points: 6
#     Node 3, Type 0, BuildingBlock: JUFBIX_clean_sbu_0, # of connection points: 6
#     Node 4, Type 0, BuildingBlock: JUFBIX_clean_sbu_0, # of connection points: 6
#     Node 5, Type 0, BuildingBlock: JUFBIX_clean_sbu_0, # of connection points: 6
#     Node 6, Type 0, BuildingBlock: JUFBIX_clean_sbu_0, # of connection points: 6
#     Node 7, Type 0, BuildingBlock: JUFBIX_clean_sbu_0, # of connection points: 6
#     Node 8, Type 1, BuildingBlock: VETTIZ_charged_sbu_0, # of connection points: 8
#     Node 9, Type 1, BuildingBlock: VETTIZ_charged_sbu_0, # of connection points: 8
#     Node 10, Type 1, BuildingBlock: VETTIZ_charged_sbu_0, # of connection points: 8
#     Node 11, Type 1, BuildingBlock: VETTIZ_charged_sbu_0, # of connection points: 8
#     Node 12, Type 1, BuildingBlock: VETTIZ_charged_sbu_0, # of connection points: 8
#     Node 13, Type 1, BuildingBlock: VETTIZ_charged_sbu_0, # of connection points: 8
#     Edge 14, Type (0, 1), None
#     Edge 15, Type (0, 1), None
#     Edge 16, Type (0, 1), None
#     Edge 17, Type (0, 1), None
#     Edge 18, Type (0, 1), None
#     Edge 19, Type (0, 1), None
#     Edge 20, Type (0, 1), None
#     Edge 21, Type (0, 1), None
#     Edge 22, Type (0, 1), None
#     Edge 23, Type (0, 1), None
#     Edge 24, Type (0, 1), None
#     Edge 25, Type (0, 1), None
#     Edge 26, Type (0, 1), None
#     Edge 27, Type (0, 1), None
#     Edge 28, Type (0, 1), None
#     Edge 29, Type (0, 1), None
#     Edge 30, Type (0, 1), None
#     Edge 31, Type (0, 1), None
#     Edge 32, Type (0, 1), None
#     Edge 33, Type (0, 1), None
#     Edge 34, Type (0, 1), None
#     Edge 35, Type (0, 1), None
#     Edge 36, Type (0, 1), None
#     Edge 37, Type (0, 1), None
#     Edge 38, Type (0, 1), None
#     Edge 39, Type (0, 1), None
#     Edge 40, Type (0, 1), None
#     Edge 41, Type (0, 1), None
#     Edge 42, Type (0, 1), None
#     Edge 43, Type (0, 1), None
#     Edge 44, Type (0, 1), None
#     Edge 45, Type (0, 1), None
#     Edge 46, Type (0, 1), None
#     Edge 47, Type (0, 1), None
#     Edge 48, Type (0, 1), None
#     Edge 49, Type (0, 1), None
#     Edge 50, Type (0, 1), None
#     Edge 51, Type (0, 1), None
#     Edge 52, Type (0, 1), None
#     Edge 53, Type (0, 1), None
#     Edge 54, Type (0, 1), None
#     Edge 55, Type (0, 1), None
#     Edge 56, Type (0, 1), None
#     Edge 57, Type (0, 1), None
#     Edge 58, Type (0, 1), None
#     Edge 59, Type (0, 1), None
#     Edge 60, Type (0, 1), None
#     Edge 61, Type (0, 1), None
# Relax obj value: 0.294
# Max RMSD: 0.289
# Mean RMSD: 0.159
data_MOF--net-ocu--node1-JUFBIX_clean_sbu_0--node2-VETTIZ_charged_sbu_0--edge1-none
_symmetry_space_group_name_H-M    P1
_symmetry_Int_Tables_number       1
_symmetry_cell_setting            triclinic
loop_
_symmetry_equiv_pos_as_xyz
'x, y, z'
_cell_length_a     18.074289
_cell_length_b     18.932024
_cell_length_c     18.315132
_cell_angle_alpha  94.613575
_cell_angle_beta   94.183994
_cell_angle_gamma 88.779459
loop_
_atom_site_label
_atom_site_type_symbol
_atom_site_fract_x
_atom_site_fract_y
_atom_site_fract_z
_atom_type_partial_charge
Co0 Co 0.25936 0.24869 0.26951 0.0
C1 C 0.20104 0.34443 0.37876 0.0
Co2 Co 0.3372 0.32498 0.31524 0.0
C3 C 0.1999 0.12764 0.31005 0.0
C4 C 0.13092 0.17055 0.22543 0.0
N5 N 0.20224 0.16683 0.25172 0.0
N6 N 0.13183 0.1236 0.33219 0.0
C7 C 0.08744 0.14562 0.27599 0.0
H8 H 0.24657 0.1162 0.34677 0.0
H9 H 0.11089 0.20138 0.18077 0.0
C10 C 0.39122 0.23197 0.20241 0.0
N11 N 0.39813 0.3975 0.3436 0.0
C12 C 0.39291 0.44587 0.29609 0.0
C13 C 0.47131 0.39207 0.36422 0.0
N14 N 0.45806 0.4577 0.27238 0.0
C15 C 0.50921 0.43145 0.32003 0.0
C16 C 0.37285 0.21891 0.3902 0.0
O17 O 0.32313 0.21527 0.19677 0.0
O18 O 0.41323 0.2771 0.25471 0.0
O19 O 0.38156 0.28417 0.40087 0.0
O20 O 0.32561 0.19834 0.339 0.0
O21 O 0.26318 0.37239 0.37197 0.0
H22 H 0.49618 0.35314 0.39888 0.0
H23 H 0.34125 0.46685 0.27399 0.0
O24 O 0.18935 0.28429 0.34421 0.0
O25 O 0.20019 0.30042 0.19687 0.0
O26 O 0.29312 0.36972 0.22318 0.0
C27 C 0.23406 0.35578 0.18346 0.0
H28 H 1.02796 0.1521 0.27651 0.0
H29 H 0.56859 0.43227 0.31594 0.0
Co30 Co 0.84992 0.27923 0.24049 0.0
C31 C 0.87637 0.38268 0.36715 0.0
Co32 Co 0.76034 0.30281 0.31085 0.0
C33 C 0.92548 0.31366 0.13331 0.0
C34 C 0.99794 0.2882 0.2253 0.0
N35 N 0.93178 0.27306 0.18931 0.0
N36 N 0.97304 0.36608 0.1457 0.0
C37 C 1.02342 0.34731 0.19859 0.0
H38 H 0.87664 0.31548 0.0955 0.0
H39 H 1.01378 0.27409 0.28033 0.0
C40 C 0.74203 0.20024 0.17611 0.0
N41 N 0.67609 0.2992 0.3632 0.0
C42 C 0.67159 0.24781 0.41012 0.0
C43 C 0.61299 0.29275 0.31909 0.0
N44 N 0.61843 0.20162 0.38583 0.0
C45 C 0.57926 0.23156 0.33097 0.0
C46 C 0.74524 0.40166 0.20056 0.0
O47 O 0.80821 0.21384 0.16826 0.0
O48 O 0.71276 0.23011 0.23274 0.0
O49 O 0.71419 0.38256 0.25589 0.0
O50 O 0.80276 0.36451 0.18379 0.0
O51 O 0.81003 0.37353 0.38431 0.0
H52 H 0.60211 0.31844 0.26878 0.0
H53 H 0.71455 0.23655 0.45213 0.0
O54 O 0.89745 0.34732 0.3107 0.0
O55 O 0.89385 0.19998 0.2972 0.0
O56 O 0.80689 0.22606 0.36863 0.0
C57 C 0.86299 0.18728 0.35495 0.0
H58 H 0.06391 0.38244 0.22812 0.0
H59 H 0.53469 0.20676 0.29627 0.0
Co60 Co 0.78058 0.75608 0.34519 0.0
C61 C 0.89231 0.85161 0.40606 0.0
Co62 Co 0.81353 0.83387 0.27861 0.0
C63 C 0.81785 0.62438 0.3825 0.0
C64 C 0.76867 0.68554 0.47007 0.0
N65 N 0.77042 0.67823 0.39646 0.0
N66 N 0.86145 0.61464 0.44212 0.0
C67 C 0.82532 0.64544 0.49883 0.0
H68 H 0.83102 0.60323 0.32839 0.0
H69 H 0.74217 0.72892 0.50078 0.0
C70 C 0.70893 0.73037 0.21608 0.0
N71 N 0.81918 0.90673 0.22797 0.0
C72 C 0.75548 0.93552 0.20566 0.0
C73 C 0.87289 0.94096 0.19863 0.0
N74 N 0.76446 0.9822 0.1581 0.0
C75 C 0.8384 0.98806 0.15363 0.0
C76 C 0.89675 0.72654 0.23352 0.0
O77 O 0.70517 0.71912 0.28226 0.0
O78 O 0.74851 0.78157 0.20085 0.0
O79 O 0.89611 0.79249 0.22963 0.0
O80 O 0.85439 0.70337 0.27885 0.0
O81 O 0.87624 0.88081 0.34779 0.0
H82 H 0.93145 0.92772 0.20398 0.0
H83 H 0.70263 0.91129 0.21131 0.0
O84 O 0.86133 0.79341 0.41551 0.0
O85 O 0.70749 0.80788 0.40399 0.0
O86 O 0.72827 0.8827 0.32641 0.0
C87 C 0.69108 0.86655 0.37788 0.0
H88 H 0.84751 0.65189 0.55551 0.0
H89 H 0.86449 1.0167 0.11378 0.0
Co90 Co 0.26221 0.81263 0.27621 0.0
C91 C 0.3811 0.83868 0.40268 0.0
Co92 Co 0.34995 0.73975 0.31475 0.0
C93 C 0.14925 0.89889 0.31667 0.0
C94 C 0.24364 0.95397 0.28932 0.0
N95 N 0.20395 0.89494 0.27055 0.0
N96 N 0.16836 0.94214 0.37596 0.0
C97 C 0.22572 0.97939 0.35774 0.0
H98 H 0.10696 0.85907 0.31568 0.0
H99 H 0.29606 0.96466 0.26791 0.0
C100 C 0.22841 0.70641 0.19225 0.0
N101 N 0.41281 0.66091 0.32405 0.0
C102 C 0.45969 0.65833 0.27047 0.0
C103 C 0.36984 0.60433 0.30809 0.0
N104 N 0.42851 0.62256 0.21109 0.0
C105 C 0.37191 0.58781 0.23498 0.0
C106 C 0.21178 0.72071 0.38551 0.0
O107 O 0.20047 0.76794 0.19891 0.0
O108 O 0.28924 0.69498 0.22885 0.0
O109 O 0.27873 0.69812 0.38147 0.0
O110 O 0.19384 0.77171 0.3463 0.0
O111 O 0.40457 0.77664 0.39506 0.0
H112 H 0.32627 0.58843 0.3403 0.0
H113 H 0.50484 0.69484 0.2693 0.0
O114 O 0.32607 0.85787 0.35987 0.0
O115 O 0.33065 0.85121 0.20355 0.0
O116 O 0.42303 0.78943 0.24515 0.0
C117 C 0.40013 0.83557 0.20015 0.0
H118 H 0.26087 1.01279 0.3959 0.0
H119 H 0.33052 0.55754 0.20095 0.0
Co120 Co 0.35023 0.77656 0.77279 0.0
C121 C 0.36854 0.87912 0.90753 0.0
Co122 Co 0.26065 0.80014 0.84315 0.0
C123 C 0.43898 0.83155 0.67352 0.0
C124 C 0.49759 0.78661 0.76455 0.0
N125 N 0.43448 0.78017 0.72044 0.0
N126 N 0.49214 0.87775 0.69781 0.0
C127 C 0.53131 0.84781 0.75266 0.0
H128 H 0.39603 0.84282 0.63151 0.0
H129 H 0.50846 0.76093 0.81486 0.0
C130 C 0.2342 0.69669 0.71648 0.0
N131 N 0.17879 0.80631 0.89433 0.0
C132 C 0.1851 0.76571 0.95033 0.0
C133 C 0.11263 0.79117 0.85833 0.0
N134 N 0.13753 0.71329 0.93794 0.0
C135 C 0.08715 0.73206 0.88505 0.0
C136 C 0.24758 0.89208 0.72868 0.0
O137 O 0.30055 0.70583 0.69933 0.0
O138 O 0.21312 0.73205 0.77294 0.0
O139 O 0.21672 0.87939 0.78644 0.0
O140 O 0.30368 0.85331 0.71501 0.0
O141 O 0.30236 0.86553 0.91537 0.0
H142 H 0.09679 0.80528 0.8033 0.0
H143 H 0.23393 0.76389 0.98814 0.0
O144 O 0.39781 0.84926 0.8509 0.0
O145 O 0.39638 0.69681 0.82775 0.0
O146 O 0.30781 0.71486 0.89984 0.0
C147 C 0.36533 0.67771 0.88308 0.0
H148 H 0.57588 0.87261 0.78737 0.0
H149 H 1.04666 0.69693 0.85552 0.0
Co150 Co 0.29704 0.2455 0.80503 0.0
C151 C 0.40164 0.349 0.86756 0.0
Co152 Co 0.32999 0.32329 0.73845 0.0
C153 C 0.35509 0.14385 0.87798 0.0
C154 C 0.23769 0.13841 0.885 0.0
N155 N 0.29139 0.17264 0.85567 0.0
N156 N 0.34611 0.09717 0.92554 0.0
C157 C 0.27217 0.0913 0.93001 0.0
H158 H 0.40794 0.16808 0.87233 0.0
H159 H 0.17912 0.15164 0.87965 0.0
C160 C 0.21827 0.22776 0.67758 0.0
N161 N 0.34015 0.40114 0.68718 0.0
C162 C 0.29272 0.45499 0.70113 0.0
C163 C 0.34191 0.39383 0.61357 0.0
N164 N 0.24912 0.46473 0.64152 0.0
C165 C 0.28525 0.43393 0.58481 0.0
C166 C 0.41949 0.21282 0.70575 0.0
O167 O 0.23434 0.19856 0.73585 0.0
O168 O 0.24925 0.28596 0.66813 0.0
O169 O 0.40309 0.27149 0.67965 0.0
O170 O 0.3823 0.19667 0.75723 0.0
O171 O 0.4054 0.36025 0.80138 0.0
H172 H 0.3684 0.35045 0.58286 0.0
H173 H 0.27955 0.47614 0.75525 0.0
O174 O 0.36206 0.2978 0.88279 0.0
O175 O 0.21446 0.28688 0.85401 0.0
O176 O 0.25618 0.376 0.80478 0.0
C177 C 0.21382 0.35283 0.85011 0.0
H178 H 0.24608 0.06267 0.96986 0.0
H179 H 0.26307 0.42748 0.52813 0.0
Co180 Co 0.76063 0.33962 0.76889 0.0
C181 C 0.88216 0.37296 0.89139 0.0
Co182 Co 0.84836 0.26674 0.80743 0.0
C183 C 0.65088 0.42103 0.81317 0.0
C184 C 0.74074 0.47504 0.77555 0.0
N185 N 0.69776 0.41846 0.75959 0.0
N186 N 0.68206 0.45681 0.87255 0.0
C187 C 0.73867 0.49156 0.84866 0.0
H188 H 0.60573 0.38453 0.81434 0.0
H189 H 0.7843 0.49094 0.74334 0.0
C190 C 0.72947 0.24069 0.68095 0.0
N191 N 0.90662 0.18443 0.81309 0.0
C192 C 0.96132 0.18048 0.76697 0.0
C193 C 0.86693 0.12539 0.79432 0.0
N194 N 0.94221 0.13723 0.70767 0.0
C195 C 0.88485 0.09998 0.72589 0.0
C196 C 0.71044 0.2438 0.88348 0.0
O197 O 0.70601 0.30273 0.68858 0.0
O198 O 0.7845 0.2215 0.72377 0.0
O199 O 0.77992 0.22816 0.88008 0.0
O200 O 0.68754 0.28994 0.83849 0.0
O201 O 0.9101 0.31143 0.88473 0.0
H202 H 0.81451 0.11471 0.81573 0.0
H203 H 1.00361 0.2203 0.76795 0.0
O204 O 0.82133 0.38439 0.85479 0.0
O205 O 0.83184 0.38125 0.70216 0.0
O206 O 0.91673 0.30766 0.73733 0.0
C207 C 0.89879 0.35866 0.69813 0.0
H208 H 0.78005 0.52183 0.88269 0.0
H209 H 0.8497 0.06658 0.68774 0.0
Co210 Co 0.77338 0.75439 0.76839 0.0
C211 C 0.71935 0.8474 0.88123 0.0
Co212 Co 0.85121 0.83068 0.81412 0.0
C213 C 0.71766 0.6335 0.78755 0.0
C214 C 0.63926 0.6873 0.71942 0.0
N215 N 0.71245 0.68186 0.74004 0.0
N216 N 0.65251 0.62167 0.81125 0.0
C217 C 0.60137 0.64792 0.76361 0.0
H218 H 0.76933 0.61252 0.80964 0.0
H219 H 0.6144 0.72623 0.68476 0.0
C220 C 0.90953 0.73494 0.70487 0.0
N221 N 0.90834 0.91254 0.83191 0.0
C222 C 0.91068 0.95173 0.77359 0.0
C223 C 0.97965 0.90882 0.85821 0.0
N224 N 0.97874 0.95577 0.75145 0.0
C225 C 1.02314 0.93375 0.80765 0.0
C226 C 0.87651 0.72359 0.90018 0.0
O227 O 0.84739 0.70697 0.71167 0.0
O228 O 0.92122 0.79508 0.73943 0.0
O229 O 0.91039 0.77894 0.88677 0.0
O230 O 0.81745 0.70965 0.86046 0.0
O231 O 0.78744 0.8641 0.88687 0.0
H232 H 0.99968 0.87798 0.90286 0.0
H233 H 0.864 0.96317 0.73686 0.0
O234 O 0.69735 0.80227 0.82893 0.0
O235 O 0.72902 0.7952 0.68277 0.0
O236 O 0.78496 0.88102 0.74464 0.0
C237 C 0.73772 0.86046 0.69343 0.0
H238 H 0.54199 0.6471 0.7677 0.0
H239 H 0.08261 0.92726 0.80713 0.0
Fe240 Fe 1.03738 0.19836 0.51995 0.0
O241 O 1.04042 0.09133 0.5147 0.0
Fe242 Fe 0.16218 0.04857 0.56299 0.0
Fe243 Fe 0.9484 1.0308 0.52065 0.0
O244 O 0.0629 0.09036 0.51086 0.0
O245 O 0.07015 0.98804 0.56894 0.0
O246 O 1.04767 0.98901 0.57278 0.0
Fe247 Fe 0.07319 0.881 0.56369 0.0
C248 C 0.95847 0.14543 0.63818 0.0
O249 O 0.93029 0.19318 0.47128 0.0
O250 O 0.90713 0.08369 0.42437 0.0
O251 O 0.10862 0.88542 0.45958 0.0
O252 O 0.19276 0.96443 0.49691 0.0
O253 O 0.1466 0.09553 0.45313 0.0
O254 O 0.0764 0.19071 0.42082 0.0
O255 O 0.97058 0.94684 0.44768 0.0
O256 O 0.96736 0.86057 0.51858 0.0
C257 C 0.11989 0.13846 0.40415 0.0
O258 O 0.18028 0.88619 0.61236 0.0
O259 O 0.20344 0.99568 0.65927 0.0
O260 O 1.00195 0.19394 0.62406 0.0
O261 O 0.91782 0.11494 0.58672 0.0
C262 C 0.90502 0.15145 0.41789 0.0
C263 C 0.94541 0.88753 0.46018 0.0
C264 C 0.99068 0.94091 0.67948 0.0
O265 O 0.96397 0.98384 0.63051 0.0
O266 O 1.03418 0.88866 0.66282 0.0
C267 C 0.1521 0.93394 0.44546 0.0
O268 O 0.13999 0.13253 0.63596 0.0
O269 O 0.14321 0.21879 0.56506 0.0
C270 C 0.20555 0.92792 0.66575 0.0
C271 C 0.16516 0.19184 0.62346 0.0
Fe272 Fe 0.56007 0.953 1.03975 0.0
O273 O 0.59872 1.03611 0.98679 0.0
Fe274 Fe 0.40432 1.02901 0.11204 0.0
Fe275 Fe 0.70625 0.05035 0.9716 0.0
O276 O 0.50827 1.03198 0.09424 0.0
O277 O 0.51185 0.04326 0.09685 0.0
O278 O 0.6023 0.04738 0.98939 0.0
Fe279 Fe 0.5505 0.12637 0.04389 0.0
C280 C 0.71231 0.98622 0.1039 0.0
O281 O 0.63015 0.88484 0.9718 0.0
O282 O 0.68225 0.96355 0.89934 0.0
O283 O 0.46509 0.10742 0.96765 0.0
O284 O 0.37665 0.09984 0.04318 0.0
O285 O 0.38073 0.94687 1.02608 0.0
O286 O 0.4781 0.93655 0.95783 0.0
O287 O 0.67798 0.12611 0.90065 0.0
O288 O 0.61168 0.20287 0.97389 0.0
C289 C 0.41091 0.92466 0.96644 0.0
O290 O 0.48042 0.19453 0.11184 0.0
O291 O 0.42832 0.11582 0.1843 0.0
O292 O 0.64548 0.97195 0.11599 0.0
O293 O 0.73393 0.97953 1.04045 0.0
C294 C 0.66851 0.89991 0.91631 0.0
C295 C 0.65929 0.19011 0.9202 0.0
C296 C 0.69966 0.15471 0.1172 0.0
O297 O 0.72984 0.1325 0.05756 0.0
O298 O 0.63247 0.14282 0.12581 0.0
C299 C 0.39826 0.09314 0.97973 0.0
O300 O 0.43259 0.95326 0.18299 0.0
O301 O 0.49889 0.8765 0.10975 0.0
C302 C 0.44206 0.17946 0.16733 0.0
C303 C 0.45128 0.88926 0.16344 0.0
Fe304 Fe 1.04817 0.6467 0.05684 0.0
O305 O 0.98915 0.5593 0.04894 0.0
Fe306 Fe 0.2282 0.53185 1.02117 0.0
Fe307 Fe 0.88237 0.54752 0.06247 0.0
O308 O 0.11116 0.55027 1.01642 0.0
O309 O 0.12142 0.52006 1.03469 0.0
O310 O 0.99941 0.5291 0.06722 0.0
Fe311 Fe 0.0624 0.43267 1.0268 0.0
C312 C 0.92794 0.6779 0.17333 0.0
O313 O 0.97714 0.67816 0.97312 0.0
O314 O 0.86686 0.63153 0.98816 0.0
O315 O 0.12913 0.38091 0.94659 0.0
O316 O 0.21863 0.45856 0.9294 0.0
O317 O 0.21877 0.61953 0.95602 0.0
O318 O 0.10346 0.60976 0.96751 0.0
O319 O 0.869 0.47108 0.97637 0.0
O320 O 0.98279 0.44824 0.94198 0.0
C321 C 0.15342 0.64526 0.94672 0.0
O322 O 0.13344 0.4012 0.11052 0.0
O323 O 0.24372 0.44784 0.09548 0.0
O324 O 0.98144 0.69846 0.13704 0.0
O325 O 0.89195 0.62081 0.15424 0.0
C326 C 0.90778 0.6745 0.95734 0.0
C327 C 0.91489 0.43013 0.94362 0.0
C328 C 0.95716 0.43411 0.13692 0.0
O329 O 0.8918 0.45984 0.12762 0.0
O330 O 1.00711 0.46961 0.11613 0.0
C331 C 0.18263 0.40147 0.9103 0.0
O332 O 0.24157 0.60829 0.10726 0.0
O333 O 0.12779 0.63113 0.14165 0.0
C334 C 0.20279 0.40487 0.1263 0.0
C335 C 0.19569 0.64924 0.14002 0.0
Fe336 Fe 0.53764 0.52692 0.95915 0.0
O337 O 0.61122 0.58225 1.02969 0.0
Fe338 Fe 0.38773 0.50906 0.04778 0.0
Fe339 Fe 0.72284 0.57031 1.03586 0.0
O340 O 0.49426 0.50131 0.04668 0.0
O341 O 0.49935 0.49711 0.05395 0.0
O342 O 0.61631 0.57806 1.03696 0.0
Fe343 Fe 0.57293 0.55245 0.12448 0.0
C344 C 0.67269 0.4463 0.94283 0.0
O345 O 0.58566 0.56155 0.87744 0.0
O346 O 0.69422 0.61217 0.93138 0.0
O347 O 0.50264 0.63833 0.11974 0.0
O348 O 0.38811 0.60942 0.09491 0.0
O349 O 0.36414 0.56527 0.94912 0.0
O350 O 0.47014 0.61798 0.94646 0.0
O351 O 0.7181 0.66518 0.10014 0.0
O352 O 0.64841 0.62116 0.18519 0.0
C353 C 0.40055 0.61793 0.92983 0.0
O354 O 0.52491 0.51782 0.2062 0.0
O355 O 0.41635 0.4672 0.15226 0.0
O356 O 0.60793 0.44104 0.96389 0.0
O357 O 0.72246 0.46995 0.98873 0.0
C358 C 0.64153 0.60147 0.87753 0.0
C359 C 0.68652 0.67155 0.16178 0.0
C360 C 0.71002 0.46144 0.15381 0.0
O361 O 0.74643 0.5141 0.13452 0.0
O362 O 0.64043 0.46138 0.13718 0.0
C363 C 0.43788 0.63307 0.14081 0.0
O364 O 0.39247 0.41418 0.98349 0.0
O365 O 0.46216 0.4582 0.89845 0.0
C366 C 0.46904 0.4779 0.2061 0.0
C367 C 0.42405 0.40782 0.92185 0.0
Fe368 Fe 1.04122 0.45407 0.53215 0.0
O369 O 1.01618 0.53876 0.60219 0.0
Fe370 Fe 0.06102 0.53231 0.37283 0.0
Fe371 Fe 1.04955 0.54706 0.71081 0.0
O372 O 0.08194 0.53051 0.47736 0.0
O373 O 0.09439 0.54061 0.48145 0.0
O374 O 1.02863 0.54886 0.60627 0.0
Fe375 Fe 0.06936 0.6253 0.55149 0.0
C376 C 0.95858 0.40449 0.66854 0.0
O377 O 0.1412 0.45467 0.57961 0.0
O378 O 0.13988 0.47921 0.69915 0.0
O379 O 0.11902 0.69318 0.47633 0.0
O380 O 0.13721 0.61635 0.37502 0.0
O381 O 0.13903 0.45269 0.37075 0.0
O382 O 0.09249 0.37918 0.45175 0.0
O383 O 0.12638 0.62856 0.71676 0.0
O384 O 0.17404 0.62962 0.60927 0.0
C385 C 0.13907 0.39348 0.40211 0.0
O386 O 0.96937 0.6247 0.50403 0.0
O387 O 0.97069 0.60016 0.38449 0.0
O388 O 0.99155 0.38619 0.60731 0.0
O389 O 0.97336 0.46302 0.70862 0.0
C390 C 0.17446 0.46992 0.64048 0.0
C391 C 0.17872 0.64514 0.67845 0.0
C392 C 0.9715 0.68589 0.68153 0.0
O393 O 0.97154 0.62668 0.71289 0.0
O394 O 1.01808 0.70019 0.63189 0.0
C395 C 0.15199 0.67487 0.4151 0.0
O396 O 0.98419 0.45081 0.36688 0.0
O397 O 0.93654 0.44975 0.47436 0.0
C398 C 0.93611 0.60945 0.44316 0.0
C399 C 0.93185 0.43423 0.40519 0.0
Fe400 Fe 0.55861 0.95546 0.54473 0.0
O401 O 0.60793 0.04121 0.59666 0.0
Fe402 Fe 0.4954 1.02007 0.37843 0.0
Fe403 Fe 0.61517 0.0593 0.70521 0.0
O404 O 0.50574 1.02912 0.48628 0.0
O405 O 0.50264 1.03816 0.48698 0.0
O406 O 0.60484 0.05024 0.59736 0.0
Fe407 Fe 0.55197 0.12391 0.53891 0.0
C408 C 0.4988 0.94572 0.68153 0.0
O409 O 0.62898 0.89227 0.61465 0.0
O410 O 0.6907 0.97625 0.69419 0.0
O411 O 0.63149 0.11587 0.46585 0.0
O412 O 0.56687 0.09611 0.36035 0.0
O413 O 0.57838 0.93865 0.367 0.0
O414 O 0.64205 0.93988 0.47509 0.0
O415 O 0.68646 0.13207 0.68537 0.0
O416 O 0.62091 0.20015 0.60319 0.0
C417 C 0.63353 0.91724 0.40822 0.0
O418 O 0.48159 0.1871 0.46899 0.0
O419 O 0.41988 0.10312 0.38945 0.0
O420 O 0.47908 0.9635 0.61778 0.0
O421 O 0.5437 0.98325 0.72329 0.0
C422 C 0.68387 0.91269 0.6624 0.0
C423 C 0.67827 0.18681 0.64893 0.0
C424 C 0.47704 0.16213 0.67542 0.0
O425 O 0.53219 0.14072 0.71663 0.0
O426 O 0.46853 0.13949 0.60855 0.0
C427 C 0.61177 0.13365 0.40211 0.0
O428 O 0.42411 0.9473 0.39827 0.0
O429 O 0.48966 0.87921 0.48045 0.0
C430 C 0.4267 0.16668 0.42124 0.0
C431 C 0.4323 0.89256 0.43471 0.0
loop_
_geom_bond_atom_site_label_1
_geom_bond_atom_site_label_2
_geom_bond_distance
_geom_bond_site_symmetry_2
_ccdc_geom_bond_type
Co0 N5 2.057 . S
Co0 O17 2.021 . S
Co0 O20 2.062 . S
Co0 O24 2.117 . S
Co0 O25 2.020 . S
C1 O21 1.259 . S
C1 O24 1.258 . S
Co2 N11 2.057 . S
Co2 O18 2.117 . S
Co2 O19 2.020 . S
Co2 O21 2.021 . S
Co2 O26 2.062 . S
C3 N5 1.316 . S
C3 N6 1.347 . S
C3 H8 0.931 . S
C4 N5 1.375 . S
C4 C7 1.350 . S
C4 H9 0.930 . S
N5 Co0 2.057 . S
N5 C3 1.316 . S
N5 C4 1.375 . S
N6 C3 1.347 . S
N6 C7 1.373 . S
C7 C4 1.350 . S
C7 N6 1.373 . S
C7 H28 0.931 . S
H8 C3 0.931 . S
H9 C4 0.930 . S
C10 O17 1.259 . S
C10 O18 1.258 . S
N11 Co2 2.057 . S
N11 C12 1.316 . S
N11 C13 1.375 . S
C12 N11 1.316 . S
C12 N14 1.347 . S
C12 H23 0.931 . S
C13 N11 1.375 . S
C13 C15 1.350 . S
C13 H22 0.930 . S
N14 C12 1.347 . S
N14 C15 1.373 . S
C15 C13 1.350 . S
C15 N14 1.373 . S
C15 H29 0.931 . S
C16 O19 1.256 . S
C16 O20 1.255 . S
O17 Co0 2.021 . S
O17 C10 1.259 . S
O18 Co2 2.117 . S
O18 C10 1.258 . S
O19 Co2 2.020 . S
O19 C16 1.256 . S
O20 Co0 2.062 . S
O20 C16 1.255 . S
O21 C1 1.259 . S
O21 Co2 2.021 . S
H22 C13 0.930 . S
H23 C12 0.931 . S
O24 Co0 2.117 . S
O24 C1 1.258 . S
O25 Co0 2.020 . S
O25 C27 1.256 . S
O26 Co2 2.062 . S
O26 C27 1.255 . S
C27 O25 1.256 . S
C27 O26 1.255 . S
H28 C7 0.931 . S
H29 C15 0.931 . S
Co30 N35 2.057 . S
Co30 O47 2.021 . S
Co30 O50 2.062 . S
Co30 O54 2.117 . S
Co30 O55 2.020 . S
C31 O51 1.259 . S
C31 O54 1.258 . S
Co32 N41 2.057 . S
Co32 O48 2.117 . S
Co32 O49 2.020 . S
Co32 O51 2.021 . S
Co32 O56 2.062 . S
C33 N35 1.316 . S
C33 N36 1.347 . S
C33 H38 0.931 . S
C34 N35 1.375 . S
C34 C37 1.350 . S
C34 H39 0.930 . S
N35 Co30 2.057 . S
N35 C33 1.316 . S
N35 C34 1.375 . S
N36 C33 1.347 . S
N36 C37 1.373 . S
C37 C34 1.350 . S
C37 N36 1.373 . S
C37 H58 0.931 . S
H38 C33 0.931 . S
H39 C34 0.930 . S
C40 O47 1.259 . S
C40 O48 1.258 . S
N41 Co32 2.057 . S
N41 C42 1.316 . S
N41 C43 1.375 . S
C42 N41 1.316 . S
C42 N44 1.347 . S
C42 H53 0.931 . S
C43 N41 1.375 . S
C43 C45 1.350 . S
C43 H52 0.930 . S
N44 C42 1.347 . S
N44 C45 1.373 . S
C45 C43 1.350 . S
C45 N44 1.373 . S
C45 H59 0.931 . S
C46 O49 1.256 . S
C46 O50 1.255 . S
O47 Co30 2.021 . S
O47 C40 1.259 . S
O48 Co32 2.117 . S
O48 C40 1.258 . S
O49 Co32 2.020 . S
O49 C46 1.256 . S
O50 Co30 2.062 . S
O50 C46 1.255 . S
O51 C31 1.259 . S
O51 Co32 2.021 . S
H52 C43 0.930 . S
H53 C42 0.931 . S
O54 Co30 2.117 . S
O54 C31 1.258 . S
O55 Co30 2.020 . S
O55 C57 1.256 . S
O56 Co32 2.062 . S
O56 C57 1.255 . S
C57 O55 1.256 . S
C57 O56 1.255 . S
H58 C37 0.931 . S
H59 C45 0.931 . S
Co60 N65 2.057 . S
Co60 O77 2.021 . S
Co60 O80 2.062 . S
Co60 O84 2.117 . S
Co60 O85 2.020 . S
C61 O81 1.259 . S
C61 O84 1.258 . S
Co62 N71 2.057 . S
Co62 O78 2.117 . S
Co62 O79 2.020 . S
Co62 O81 2.021 . S
Co62 O86 2.062 . S
C63 N65 1.316 . S
C63 N66 1.347 . S
C63 H68 0.931 . S
C64 N65 1.375 . S
C64 C67 1.350 . S
C64 H69 0.930 . S
N65 Co60 2.057 . S
N65 C63 1.316 . S
N65 C64 1.375 . S
N66 C63 1.347 . S
N66 C67 1.373 . S
C67 C64 1.350 . S
C67 N66 1.373 . S
C67 H88 0.931 . S
H68 C63 0.931 . S
H69 C64 0.930 . S
C70 O77 1.259 . S
C70 O78 1.258 . S
N71 Co62 2.057 . S
N71 C72 1.316 . S
N71 C73 1.375 . S
C72 N71 1.316 . S
C72 N74 1.347 . S
C72 H83 0.931 . S
C73 N71 1.375 . S
C73 C75 1.350 . S
C73 H82 0.930 . S
N74 C72 1.347 . S
N74 C75 1.373 . S
C75 C73 1.350 . S
C75 N74 1.373 . S
C75 H89 0.931 . S
C76 O79 1.256 . S
C76 O80 1.255 . S
O77 Co60 2.021 . S
O77 C70 1.259 . S
O78 Co62 2.117 . S
O78 C70 1.258 . S
O79 Co62 2.020 . S
O79 C76 1.256 . S
O80 Co60 2.062 . S
O80 C76 1.255 . S
O81 C61 1.259 . S
O81 Co62 2.021 . S
H82 C73 0.930 . S
H83 C72 0.931 . S
O84 Co60 2.117 . S
O84 C61 1.258 . S
O85 Co60 2.020 . S
O85 C87 1.256 . S
O86 Co62 2.062 . S
O86 C87 1.255 . S
C87 O85 1.256 . S
C87 O86 1.255 . S
H88 C67 0.931 . S
H89 C75 0.931 . S
Co90 N95 2.057 . S
Co90 O107 2.021 . S
Co90 O110 2.062 . S
Co90 O114 2.117 . S
Co90 O115 2.020 . S
C91 O111 1.259 . S
C91 O114 1.258 . S
Co92 N101 2.057 . S
Co92 O108 2.117 . S
Co92 O109 2.020 . S
Co92 O111 2.021 . S
Co92 O116 2.062 . S
C93 N95 1.316 . S
C93 N96 1.347 . S
C93 H98 0.931 . S
C94 N95 1.375 . S
C94 C97 1.350 . S
C94 H99 0.930 . S
N95 Co90 2.057 . S
N95 C93 1.316 . S
N95 C94 1.375 . S
N96 C93 1.347 . S
N96 C97 1.373 . S
C97 C94 1.350 . S
C97 N96 1.373 . S
C97 H118 0.931 . S
H98 C93 0.931 . S
H99 C94 0.930 . S
C100 O107 1.259 . S
C100 O108 1.258 . S
N101 Co92 2.057 . S
N101 C102 1.316 . S
N101 C103 1.375 . S
C102 N101 1.316 . S
C102 N104 1.347 . S
C102 H113 0.931 . S
C103 N101 1.375 . S
C103 C105 1.350 . S
C103 H112 0.930 . S
N104 C102 1.347 . S
N104 C105 1.373 . S
C105 C103 1.350 . S
C105 N104 1.373 . S
C105 H119 0.931 . S
C106 O109 1.256 . S
C106 O110 1.255 . S
O107 Co90 2.021 . S
O107 C100 1.259 . S
O108 Co92 2.117 . S
O108 C100 1.258 . S
O109 Co92 2.020 . S
O109 C106 1.256 . S
O110 Co90 2.062 . S
O110 C106 1.255 . S
O111 C91 1.259 . S
O111 Co92 2.021 . S
H112 C103 0.930 . S
H113 C102 0.931 . S
O114 Co90 2.117 . S
O114 C91 1.258 . S
O115 Co90 2.020 . S
O115 C117 1.256 . S
O116 Co92 2.062 . S
O116 C117 1.255 . S
C117 O115 1.256 . S
C117 O116 1.255 . S
H118 C97 0.931 . S
H119 C105 0.931 . S
Co120 N125 2.057 . S
Co120 O137 2.021 . S
Co120 O140 2.062 . S
Co120 O144 2.117 . S
Co120 O145 2.020 . S
C121 O141 1.259 . S
C121 O144 1.258 . S
Co122 N131 2.057 . S
Co122 O138 2.117 . S
Co122 O139 2.020 . S
Co122 O141 2.021 . S
Co122 O146 2.062 . S
C123 N125 1.316 . S
C123 N126 1.347 . S
C123 H128 0.931 . S
C124 N125 1.375 . S
C124 C127 1.350 . S
C124 H129 0.930 . S
N125 Co120 2.057 . S
N125 C123 1.316 . S
N125 C124 1.375 . S
N126 C123 1.347 . S
N126 C127 1.373 . S
C127 C124 1.350 . S
C127 N126 1.373 . S
C127 H148 0.931 . S
H128 C123 0.931 . S
H129 C124 0.930 . S
C130 O137 1.259 . S
C130 O138 1.258 . S
N131 Co122 2.057 . S
N131 C132 1.316 . S
N131 C133 1.375 . S
C132 N131 1.316 . S
C132 N134 1.347 . S
C132 H143 0.931 . S
C133 N131 1.375 . S
C133 C135 1.350 . S
C133 H142 0.930 . S
N134 C132 1.347 . S
N134 C135 1.373 . S
C135 C133 1.350 . S
C135 N134 1.373 . S
C135 H149 0.931 . S
C136 O139 1.256 . S
C136 O140 1.255 . S
O137 Co120 2.021 . S
O137 C130 1.259 . S
O138 Co122 2.117 . S
O138 C130 1.258 . S
O139 Co122 2.020 . S
O139 C136 1.256 . S
O140 Co120 2.062 . S
O140 C136 1.255 . S
O141 C121 1.259 . S
O141 Co122 2.021 . S
H142 C133 0.930 . S
H143 C132 0.931 . S
O144 Co120 2.117 . S
O144 C121 1.258 . S
O145 Co120 2.020 . S
O145 C147 1.256 . S
O146 Co122 2.062 . S
O146 C147 1.255 . S
C147 O145 1.256 . S
C147 O146 1.255 . S
H148 C127 0.931 . S
H149 C135 0.931 . S
Co150 N155 2.057 . S
Co150 O167 2.021 . S
Co150 O170 2.062 . S
Co150 O174 2.117 . S
Co150 O175 2.020 . S
C151 O171 1.259 . S
C151 O174 1.258 . S
Co152 N161 2.057 . S
Co152 O168 2.117 . S
Co152 O169 2.020 . S
Co152 O171 2.021 . S
Co152 O176 2.062 . S
C153 N155 1.316 . S
C153 N156 1.347 . S
C153 H158 0.931 . S
C154 N155 1.375 . S
C154 C157 1.350 . S
C154 H159 0.930 . S
N155 Co150 2.057 . S
N155 C153 1.316 . S
N155 C154 1.375 . S
N156 C153 1.347 . S
N156 C157 1.373 . S
C157 C154 1.350 . S
C157 N156 1.373 . S
C157 H178 0.931 . S
H158 C153 0.931 . S
H159 C154 0.930 . S
C160 O167 1.259 . S
C160 O168 1.258 . S
N161 Co152 2.057 . S
N161 C162 1.316 . S
N161 C163 1.375 . S
C162 N161 1.316 . S
C162 N164 1.347 . S
C162 H173 0.931 . S
C163 N161 1.375 . S
C163 C165 1.350 . S
C163 H172 0.930 . S
N164 C162 1.347 . S
N164 C165 1.373 . S
C165 C163 1.350 . S
C165 N164 1.373 . S
C165 H179 0.931 . S
C166 O169 1.256 . S
C166 O170 1.255 . S
O167 Co150 2.021 . S
O167 C160 1.259 . S
O168 Co152 2.117 . S
O168 C160 1.258 . S
O169 Co152 2.020 . S
O169 C166 1.256 . S
O170 Co150 2.062 . S
O170 C166 1.255 . S
O171 C151 1.259 . S
O171 Co152 2.021 . S
H172 C163 0.930 . S
H173 C162 0.931 . S
O174 Co150 2.117 . S
O174 C151 1.258 . S
O175 Co150 2.020 . S
O175 C177 1.256 . S
O176 Co152 2.062 . S
O176 C177 1.255 . S
C177 O175 1.256 . S
C177 O176 1.255 . S
H178 C157 0.931 . S
H179 C165 0.931 . S
Co180 N185 2.057 . S
Co180 O197 2.021 . S
Co180 O200 2.062 . S
Co180 O204 2.117 . S
Co180 O205 2.020 . S
C181 O201 1.259 . S
C181 O204 1.258 . S
Co182 N191 2.057 . S
Co182 O198 2.117 . S
Co182 O199 2.020 . S
Co182 O201 2.021 . S
Co182 O206 2.062 . S
C183 N185 1.316 . S
C183 N186 1.347 . S
C183 H188 0.931 . S
C184 N185 1.375 . S
C184 C187 1.350 . S
C184 H189 0.930 . S
N185 Co180 2.057 . S
N185 C183 1.316 . S
N185 C184 1.375 . S
N186 C183 1.347 . S
N186 C187 1.373 . S
C187 C184 1.350 . S
C187 N186 1.373 . S
C187 H208 0.931 . S
H188 C183 0.931 . S
H189 C184 0.930 . S
C190 O197 1.259 . S
C190 O198 1.258 . S
N191 Co182 2.057 . S
N191 C192 1.316 . S
N191 C193 1.375 . S
C192 N191 1.316 . S
C192 N194 1.347 . S
C192 H203 0.931 . S
C193 N191 1.375 . S
C193 C195 1.350 . S
C193 H202 0.930 . S
N194 C192 1.347 . S
N194 C195 1.373 . S
C195 C193 1.350 . S
C195 N194 1.373 . S
C195 H209 0.931 . S
C196 O199 1.256 . S
C196 O200 1.255 . S
O197 Co180 2.021 . S
O197 C190 1.259 . S
O198 Co182 2.117 . S
O198 C190 1.258 . S
O199 Co182 2.020 . S
O199 C196 1.256 . S
O200 Co180 2.062 . S
O200 C196 1.255 . S
O201 C181 1.259 . S
O201 Co182 2.021 . S
H202 C193 0.930 . S
H203 C192 0.931 . S
O204 Co180 2.117 . S
O204 C181 1.258 . S
O205 Co180 2.020 . S
O205 C207 1.256 . S
O206 Co182 2.062 . S
O206 C207 1.255 . S
C207 O205 1.256 . S
C207 O206 1.255 . S
H208 C187 0.931 . S
H209 C195 0.931 . S
Co210 N215 2.057 . S
Co210 O227 2.021 . S
Co210 O230 2.062 . S
Co210 O234 2.117 . S
Co210 O235 2.020 . S
C211 O231 1.259 . S
C211 O234 1.258 . S
Co212 N221 2.057 . S
Co212 O228 2.117 . S
Co212 O229 2.020 . S
Co212 O231 2.021 . S
Co212 O236 2.062 . S
C213 N215 1.316 . S
C213 N216 1.347 . S
C213 H218 0.931 . S
C214 N215 1.375 . S
C214 C217 1.350 . S
C214 H219 0.930 . S
N215 Co210 2.057 . S
N215 C213 1.316 . S
N215 C214 1.375 . S
N216 C213 1.347 . S
N216 C217 1.373 . S
C217 C214 1.350 . S
C217 N216 1.373 . S
C217 H238 0.931 . S
H218 C213 0.931 . S
H219 C214 0.930 . S
C220 O227 1.259 . S
C220 O228 1.258 . S
N221 Co212 2.057 . S
N221 C222 1.316 . S
N221 C223 1.375 . S
C222 N221 1.316 . S
C222 N224 1.347 . S
C222 H233 0.931 . S
C223 N221 1.375 . S
C223 C225 1.350 . S
C223 H232 0.930 . S
N224 C222 1.347 . S
N224 C225 1.373 . S
C225 C223 1.350 . S
C225 N224 1.373 . S
C225 H239 0.931 . S
C226 O229 1.256 . S
C226 O230 1.255 . S
O227 Co210 2.021 . S
O227 C220 1.259 . S
O228 Co212 2.117 . S
O228 C220 1.258 . S
O229 Co212 2.020 . S
O229 C226 1.256 . S
O230 Co210 2.062 . S
O230 C226 1.255 . S
O231 C211 1.259 . S
O231 Co212 2.021 . S
H232 C223 0.930 . S
H233 C222 0.931 . S
O234 Co210 2.117 . S
O234 C211 1.258 . S
O235 Co210 2.020 . S
O235 C237 1.256 . S
O236 Co212 2.062 . S
O236 C237 1.255 . S
C237 O235 1.256 . S
C237 O236 1.255 . S
H238 C217 0.931 . S
H239 C225 0.931 . S
Fe240 O241 1.885 1_455 S
Fe240 O244 1.716 . S
Fe240 O249 2.077 1_455 S
Fe240 O254 1.936 . S
Fe240 O260 2.077 1_455 S
Fe240 O269 1.936 . S
O241 Fe240 1.885 1_655 S
O241 Fe243 1.715 1_545 S
Fe242 O244 1.886 . S
Fe242 O245 1.715 1_545 S
Fe242 O252 1.935 1_545 S
Fe242 O253 2.077 . S
Fe242 O259 1.935 1_545 S
Fe242 O268 2.077 . S
Fe243 O241 1.715 1_565 S
Fe243 O246 1.886 . S
Fe243 O250 1.935 1_565 S
Fe243 O255 2.077 . S
Fe243 O261 1.935 1_565 S
Fe243 O265 2.077 . S
O244 Fe240 1.716 . S
O244 Fe242 1.886 . S
O245 Fe242 1.715 1_565 S
O245 Fe247 1.885 . S
O246 Fe243 1.886 . S
O246 Fe247 1.716 1_655 S
Fe247 O245 1.885 . S
Fe247 O246 1.716 1_455 S
Fe247 O251 2.077 . S
Fe247 O256 1.936 1_455 S
Fe247 O258 2.077 . S
Fe247 O266 1.936 1_455 S
C248 O260 1.381 . S
C248 O261 1.421 . S
O249 Fe240 2.077 1_655 S
O249 C262 1.381 . S
O250 Fe243 1.935 1_545 S
O250 C262 1.421 . S
O251 Fe247 2.077 . S
O251 C267 1.381 . S
O252 Fe242 1.935 1_565 S
O252 C267 1.421 . S
O253 Fe242 2.077 . S
O253 C257 1.381 . S
O254 Fe240 1.936 . S
O254 C257 1.421 . S
O255 Fe243 2.077 . S
O255 C263 1.381 . S
O256 Fe247 1.936 1_655 S
O256 C263 1.421 . S
C257 O253 1.381 . S
C257 O254 1.421 . S
O258 Fe247 2.077 . S
O258 C270 1.381 . S
O259 Fe242 1.935 1_565 S
O259 C270 1.421 . S
O260 Fe240 2.077 1_655 S
O260 C248 1.381 . S
O261 Fe243 1.935 1_545 S
O261 C248 1.421 . S
C262 O249 1.381 . S
C262 O250 1.421 . S
C263 O255 1.381 . S
C263 O256 1.421 . S
C264 O265 1.381 . S
C264 O266 1.421 . S
O265 Fe243 2.077 . S
O265 C264 1.381 . S
O266 Fe247 1.936 1_655 S
O266 C264 1.421 . S
C267 O251 1.381 . S
C267 O252 1.421 . S
O268 Fe242 2.077 . S
O268 C271 1.381 . S
O269 Fe240 1.936 . S
O269 C271 1.421 . S
C270 O258 1.381 . S
C270 O259 1.421 . S
C271 O268 1.381 . S
C271 O269 1.421 . S
Fe272 O273 1.886 1_556 S
Fe272 O276 1.715 . S
Fe272 O281 2.077 . S
Fe272 O286 1.935 . S
Fe272 O292 2.077 1_556 S
Fe272 O301 1.935 1_556 S
O273 Fe272 1.886 1_554 S
O273 Fe275 1.714 1_565 S
Fe274 O276 1.886 . S
Fe274 O277 1.715 1_565 S
Fe274 O284 1.935 1_565 S
Fe274 O285 2.077 . S
Fe274 O291 1.935 1_566 S
Fe274 O300 2.077 1_556 S
Fe275 O273 1.714 1_545 S
Fe275 O278 1.886 . S
Fe275 O282 1.935 1_544 S
Fe275 O287 2.077 1_554 S
Fe275 O293 1.935 1_545 S
Fe275 O297 2.077 . S
O276 Fe272 1.715 . S
O276 Fe274 1.886 . S
O277 Fe274 1.715 1_545 S
O277 Fe279 1.886 1_556 S
O278 Fe275 1.886 . S
O278 Fe279 1.715 . S
Fe279 O277 1.886 1_554 S
Fe279 O278 1.715 . S
Fe279 O283 2.077 1_554 S
Fe279 O288 1.935 1_554 S
Fe279 O290 2.077 . S
Fe279 O298 1.935 . S
C280 O292 1.381 . S
C280 O293 1.421 . S
O281 Fe272 2.077 . S
O281 C294 1.381 . S
O282 Fe275 1.935 1_566 S
O282 C294 1.421 . S
O283 Fe279 2.077 1_556 S
O283 C299 1.381 . S
O284 Fe274 1.935 1_545 S
O284 C299 1.421 . S
O285 Fe274 2.077 . S
O285 C289 1.381 . S
O286 Fe272 1.935 . S
O286 C289 1.421 . S
O287 Fe275 2.077 1_556 S
O287 C295 1.381 . S
O288 Fe279 1.935 1_556 S
O288 C295 1.421 . S
C289 O285 1.381 . S
C289 O286 1.421 . S
O290 Fe279 2.077 . S
O290 C302 1.381 . S
O291 Fe274 1.935 1_544 S
O291 C302 1.421 . S
O292 Fe272 2.077 1_554 S
O292 C280 1.381 . S
O293 Fe275 1.935 1_565 S
O293 C280 1.421 . S
C294 O281 1.381 . S
C294 O282 1.421 . S
C295 O287 1.381 . S
C295 O288 1.421 . S
C296 O297 1.381 . S
C296 O298 1.421 . S
O297 Fe275 2.077 . S
O297 C296 1.381 . S
O298 Fe279 1.935 . S
O298 C296 1.421 . S
C299 O283 1.381 . S
C299 O284 1.421 . S
O300 Fe274 2.077 1_554 S
O300 C303 1.381 . S
O301 Fe272 1.935 1_554 S
O301 C303 1.421 . S
C302 O290 1.381 . S
C302 O291 1.421 . S
C303 O300 1.381 . S
C303 O301 1.421 . S
Fe304 O305 1.885 1_454 S
Fe304 O308 1.716 . S
Fe304 O313 2.076 1_454 S
Fe304 O318 1.936 1_554 S
Fe304 O324 2.076 1_455 S
Fe304 O333 1.936 . S
O305 Fe304 1.885 1_656 S
O305 Fe307 1.715 . S
Fe306 O308 1.886 . S
Fe306 O309 1.714 . S
Fe306 O316 1.935 1_554 S
Fe306 O317 2.077 1_554 S
Fe306 O323 1.935 . S
Fe306 O332 2.077 . S
Fe307 O305 1.715 . S
Fe307 O310 1.886 . S
Fe307 O314 1.935 . S
Fe307 O319 2.077 . S
Fe307 O325 1.935 1_556 S
Fe307 O329 2.077 1_556 S
O308 Fe304 1.716 . S
O308 Fe306 1.886 . S
O309 Fe306 1.714 . S
O309 Fe311 1.886 1_554 S
O310 Fe307 1.886 . S
O310 Fe311 1.716 1_655 S
Fe311 O309 1.886 1_556 S
Fe311 O310 1.716 1_455 S
Fe311 O315 2.076 . S
Fe311 O320 1.936 1_455 S
Fe311 O322 2.076 1_556 S
Fe311 O330 1.936 1_456 S
C312 O324 1.381 . S
C312 O325 1.421 . S
O313 Fe304 2.076 1_656 S
O313 C326 1.381 . S
O314 Fe307 1.935 . S
O314 C326 1.421 . S
O315 Fe311 2.076 . S
O315 C331 1.381 . S
O316 Fe306 1.935 1_556 S
O316 C331 1.421 . S
O317 Fe306 2.077 1_556 S
O317 C321 1.381 . S
O318 Fe304 1.936 1_556 S
O318 C321 1.421 . S
O319 Fe307 2.077 . S
O319 C327 1.381 . S
O320 Fe311 1.936 1_655 S
O320 C327 1.421 . S
C321 O317 1.381 . S
C321 O318 1.421 . S
O322 Fe311 2.076 1_554 S
O322 C334 1.381 . S
O323 Fe306 1.935 . S
O323 C334 1.421 . S
O324 Fe304 2.076 1_655 S
O324 C312 1.381 . S
O325 Fe307 1.935 1_554 S
O325 C312 1.421 . S
C326 O313 1.381 . S
C326 O314 1.421 . S
C327 O319 1.381 . S
C327 O320 1.421 . S
C328 O329 1.381 . S
C328 O330 1.421 . S
O329 Fe307 2.077 1_554 S
O329 C328 1.381 . S
O330 Fe311 1.936 1_654 S
O330 C328 1.421 . S
C331 O315 1.381 . S
C331 O316 1.421 . S
O332 Fe306 2.077 . S
O332 C335 1.381 . S
O333 Fe304 1.936 . S
O333 C335 1.421 . S
C334 O322 1.381 . S
C334 O323 1.421 . S
C335 O332 1.381 . S
C335 O333 1.421 . S
Fe336 O337 1.886 . S
Fe336 O340 1.715 . S
Fe336 O345 2.077 . S
Fe336 O350 1.935 . S
Fe336 O356 2.077 . S
Fe336 O365 1.935 . S
O337 Fe336 1.886 . S
O337 Fe339 1.715 1_556 S
Fe338 O340 1.886 . S
Fe338 O341 1.715 1_556 S
Fe338 O348 1.935 1_556 S
Fe338 O349 2.077 . S
Fe338 O355 1.935 1_556 S
Fe338 O364 2.077 . S
Fe339 O337 1.715 1_554 S
Fe339 O342 1.886 . S
Fe339 O346 1.935 1_554 S
Fe339 O351 2.077 . S
Fe339 O357 1.935 1_554 S
Fe339 O361 2.077 . S
O340 Fe336 1.715 . S
O340 Fe338 1.886 . S
O341 Fe338 1.715 1_554 S
O341 Fe343 1.886 . S
O342 Fe339 1.886 . S
O342 Fe343 1.715 . S
Fe343 O341 1.886 . S
Fe343 O342 1.715 . S
Fe343 O347 2.077 . S
Fe343 O352 1.935 . S
Fe343 O354 2.077 . S
Fe343 O362 1.935 . S
C344 O356 1.381 . S
C344 O357 1.421 . S
O345 Fe336 2.077 . S
O345 C358 1.381 . S
O346 Fe339 1.935 1_556 S
O346 C358 1.421 . S
O347 Fe343 2.077 . S
O347 C363 1.381 . S
O348 Fe338 1.935 1_554 S
O348 C363 1.421 . S
O349 Fe338 2.077 . S
O349 C353 1.381 . S
O350 Fe336 1.935 . S
O350 C353 1.421 . S
O351 Fe339 2.077 . S
O351 C359 1.381 . S
O352 Fe343 1.935 . S
O352 C359 1.421 . S
C353 O349 1.381 . S
C353 O350 1.421 . S
O354 Fe343 2.077 . S
O354 C366 1.381 . S
O355 Fe338 1.935 1_554 S
O355 C366 1.421 . S
O356 Fe336 2.077 . S
O356 C344 1.381 . S
O357 Fe339 1.935 1_556 S
O357 C344 1.421 . S
C358 O345 1.381 . S
C358 O346 1.421 . S
C359 O351 1.381 . S
C359 O352 1.421 . S
C360 O361 1.381 . S
C360 O362 1.421 . S
O361 Fe339 2.077 . S
O361 C360 1.381 . S
O362 Fe343 1.935 . S
O362 C360 1.421 . S
C363 O347 1.381 . S
C363 O348 1.421 . S
O364 Fe338 2.077 . S
O364 C367 1.381 . S
O365 Fe336 1.935 . S
O365 C367 1.421 . S
C366 O354 1.381 . S
C366 O355 1.421 . S
C367 O364 1.381 . S
C367 O365 1.421 . S
Fe368 O369 1.886 1_655 S
Fe368 O372 1.715 . S
Fe368 O377 2.077 1_655 S
Fe368 O382 1.935 1_655 S
Fe368 O388 2.077 . S
Fe368 O397 1.935 . S
O369 Fe368 1.886 1_455 S
O369 Fe371 1.715 . S
Fe370 O372 1.886 . S
Fe370 O373 1.715 . S
Fe370 O380 1.935 1_655 S
Fe370 O381 2.077 1_655 S
Fe370 O387 1.935 . S
Fe370 O396 2.077 . S
Fe371 O369 1.715 . S
Fe371 O374 1.886 . S
Fe371 O378 1.935 . S
Fe371 O383 2.077 . S
Fe371 O389 1.935 1_455 S
Fe371 O393 2.077 1_455 S
O372 Fe368 1.715 . S
O372 Fe370 1.886 . S
O373 Fe370 1.715 . S
O373 Fe375 1.886 1_655 S
O374 Fe371 1.886 . S
O374 Fe375 1.715 . S
Fe375 O373 1.886 1_455 S
Fe375 O374 1.715 . S
Fe375 O379 2.077 . S
Fe375 O384 1.935 . S
Fe375 O386 2.077 1_455 S
Fe375 O394 1.935 1_455 S
C376 O388 1.381 . S
C376 O389 1.421 . S
O377 Fe368 2.077 1_455 S
O377 C390 1.381 . S
O378 Fe371 1.935 . S
O378 C390 1.421 . S
O379 Fe375 2.077 . S
O379 C395 1.381 . S
O380 Fe370 1.935 1_455 S
O380 C395 1.421 . S
O381 Fe370 2.077 1_455 S
O381 C385 1.381 . S
O382 Fe368 1.935 1_455 S
O382 C385 1.421 . S
O383 Fe371 2.077 . S
O383 C391 1.381 . S
O384 Fe375 1.935 . S
O384 C391 1.421 . S
C385 O381 1.381 . S
C385 O382 1.421 . S
O386 Fe375 2.077 1_655 S
O386 C398 1.381 . S
O387 Fe370 1.935 . S
O387 C398 1.421 . S
O388 Fe368 2.077 . S
O388 C376 1.381 . S
O389 Fe371 1.935 1_655 S
O389 C376 1.421 . S
C390 O377 1.381 . S
C390 O378 1.421 . S
C391 O383 1.381 . S
C391 O384 1.421 . S
C392 O393 1.381 . S
C392 O394 1.421 . S
O393 Fe371 2.077 1_655 S
O393 C392 1.381 . S
O394 Fe375 1.935 1_655 S
O394 C392 1.421 . S
C395 O379 1.381 . S
C395 O380 1.421 . S
O396 Fe370 2.077 . S
O396 C399 1.381 . S
O397 Fe368 1.935 . S
O397 C399 1.421 . S
C398 O386 1.381 . S
C398 O387 1.421 . S
C399 O396 1.381 . S
C399 O397 1.421 . S
Fe400 O401 1.886 . S
Fe400 O404 1.715 . S
Fe400 O409 2.077 . S
Fe400 O414 1.935 . S
Fe400 O420 2.077 . S
Fe400 O429 1.935 . S
O401 Fe400 1.886 . S
O401 Fe403 1.715 1_565 S
Fe402 O404 1.886 . S
Fe402 O405 1.715 1_565 S
Fe402 O412 1.935 1_565 S
Fe402 O413 2.077 . S
Fe402 O419 1.935 1_565 S
Fe402 O428 2.077 . S
Fe403 O401 1.715 1_545 S
Fe403 O406 1.886 . S
Fe403 O410 1.935 1_545 S
Fe403 O415 2.077 . S
Fe403 O421 1.935 1_545 S
Fe403 O425 2.077 . S
O404 Fe400 1.715 . S
O404 Fe402 1.886 . S
O405 Fe402 1.715 1_545 S
O405 Fe407 1.886 . S
O406 Fe403 1.886 . S
O406 Fe407 1.715 . S
Fe407 O405 1.886 . S
Fe407 O406 1.715 . S
Fe407 O411 2.077 . S
Fe407 O416 1.935 . S
Fe407 O418 2.077 . S
Fe407 O426 1.935 . S
C408 O420 1.381 . S
C408 O421 1.421 . S
O409 Fe400 2.077 . S
O409 C422 1.381 . S
O410 Fe403 1.935 1_565 S
O410 C422 1.421 . S
O411 Fe407 2.077 . S
O411 C427 1.381 . S
O412 Fe402 1.935 1_545 S
O412 C427 1.421 . S
O413 Fe402 2.077 . S
O413 C417 1.381 . S
O414 Fe400 1.935 . S
O414 C417 1.421 . S
O415 Fe403 2.077 . S
O415 C423 1.381 . S
O416 Fe407 1.935 . S
O416 C423 1.421 . S
C417 O413 1.381 . S
C417 O414 1.421 . S
O418 Fe407 2.077 . S
O418 C430 1.381 . S
O419 Fe402 1.935 1_545 S
O419 C430 1.421 . S
O420 Fe400 2.077 . S
O420 C408 1.381 . S
O421 Fe403 1.935 1_565 S
O421 C408 1.421 . S
C422 O409 1.381 . S
C422 O410 1.421 . S
C423 O415 1.381 . S
C423 O416 1.421 . S
C424 O425 1.381 . S
C424 O426 1.421 . S
O425 Fe403 2.077 . S
O425 C424 1.381 . S
O426 Fe407 1.935 . S
O426 C424 1.421 . S
C427 O411 1.381 . S
C427 O412 1.421 . S
O428 Fe402 2.077 . S
O428 C431 1.381 . S
O429 Fe400 1.935 . S
O429 C431 1.421 . S
C430 O418 1.381 . S
C430 O419 1.421 . S
C431 O428 1.381 . S
C431 O429 1.421 . S
C257 N6 2.109 . S
C262 C57 2.585 . S
C263 C61 1.679 . S
N96 C267 1.738 . S
C136 C270 2.585 . S
C271 C160 1.679 . S
N194 C248 1.738 . S
N224 C264 2.108 . S
C302 C10 2.569 . S
N36 C328 1.157 . S
C280 N74 0.855 . S
C335 C100 1.533 . S
C121 C289 1.544 . S
C331 C177 2.300 . S
C196 C295 3.128 . S
C226 C326 2.539 . S
C27 C334 2.539 . S
N134 C321 1.158 . S
C299 N156 0.856 . S
C327 C181 1.534 . S
C211 C294 2.569 . S
C76 C312 2.302 . S
C303 C117 3.129 . S
C40 C296 1.543 . S
N216 C358 1.605 . S
C147 C353 2.461 . S
C367 C151 1.439 . S
C344 N186 1.262 . S
C46 C360 2.461 . S
C359 C70 1.439 . S
N104 C363 1.262 . S
N14 C366 1.605 . S
C220 C392 2.823 . S
C408 N126 1.250 . S
N164 C390 1.405 . S
C190 C423 1.577 . S
C399 C31 1.873 . S
C87 C417 2.365 . S
C395 C106 3.179 . S
C430 C16 2.531 . S
C422 C237 2.532 . S
N44 C427 1.249 . S
N66 C398 1.406 . S
C431 C91 1.578 . S
C1 C385 2.821 . S
C166 C424 2.364 . S
C376 C207 3.181 . S
C391 C130 1.871 . S
