# Generated by pormake.
# Topology zzz, (3,6)-cn, num edge types: 1
# Building blocks:
#     Node 0, Type 0, BuildingBlock: OLANEW_clean_sbu_2, # of connection points: 3
#     Node 1, Type 0, BuildingBlock: OLANEW_clean_sbu_2, # of connection points: 3
#     Node 2, Type 0, BuildingBlock: OLANEW_clean_sbu_2, # of connection points: 3
#     Node 3, Type 0, BuildingBlock: OLANEW_clean_sbu_2, # of connection points: 3
#     Node 4, Type 0, BuildingBlock: OLANEW_clean_sbu_2, # of connection points: 3
#     Node 5, Type 0, BuildingBlock: OLANEW_clean_sbu_2, # of connection points: 3
#     Node 6, Type 0, BuildingBlock: OLANEW_clean_sbu_2, # of connection points: 3
#     Node 7, Type 0, BuildingBlock: OLANEW_clean_sbu_2, # of connection points: 3
#     Node 8, Type 1, BuildingBlock: HISSIN_clean_sbu_0, # of connection points: 6
#     Node 9, Type 1, BuildingBlock: HISSIN_clean_sbu_0, # of connection points: 6
#     Node 10, Type 1, BuildingBlock: HISSIN_clean_sbu_0, # of connection points: 6
#     Node 11, Type 1, BuildingBlock: HISSIN_clean_sbu_0, # of connection points: 6
#     Edge 12, Type (0, 1), BuildingBlock: KIFKEQ_clean_linker_1, # of connection points: 2
#     Edge 13, Type (0, 1), BuildingBlock: KIFKEQ_clean_linker_1, # of connection points: 2
#     Edge 14, Type (0, 1), BuildingBlock: KIFKEQ_clean_linker_1, # of connection points: 2
#     Edge 15, Type (0, 1), BuildingBlock: KIFKEQ_clean_linker_1, # of connection points: 2
#     Edge 16, Type (0, 1), BuildingBlock: KIFKEQ_clean_linker_1, # of connection points: 2
#     Edge 17, Type (0, 1), BuildingBlock: KIFKEQ_clean_linker_1, # of connection points: 2
#     Edge 18, Type (0, 1), BuildingBlock: KIFKEQ_clean_linker_1, # of connection points: 2
#     Edge 19, Type (0, 1), BuildingBlock: KIFKEQ_clean_linker_1, # of connection points: 2
#     Edge 20, Type (0, 1), BuildingBlock: KIFKEQ_clean_linker_1, # of connection points: 2
#     Edge 21, Type (0, 1), BuildingBlock: KIFKEQ_clean_linker_1, # of connection points: 2
#     Edge 22, Type (0, 1), BuildingBlock: KIFKEQ_clean_linker_1, # of connection points: 2
#     Edge 23, Type (0, 1), BuildingBlock: KIFKEQ_clean_linker_1, # of connection points: 2
#     Edge 24, Type (0, 1), BuildingBlock: KIFKEQ_clean_linker_1, # of connection points: 2
#     Edge 25, Type (0, 1), BuildingBlock: KIFKEQ_clean_linker_1, # of connection points: 2
#     Edge 26, Type (0, 1), BuildingBlock: KIFKEQ_clean_linker_1, # of connection points: 2
#     Edge 27, Type (0, 1), BuildingBlock: KIFKEQ_clean_linker_1, # of connection points: 2
#     Edge 28, Type (0, 1), BuildingBlock: KIFKEQ_clean_linker_1, # of connection points: 2
#     Edge 29, Type (0, 1), BuildingBlock: KIFKEQ_clean_linker_1, # of connection points: 2
#     Edge 30, Type (0, 1), BuildingBlock: KIFKEQ_clean_linker_1, # of connection points: 2
#     Edge 31, Type (0, 1), BuildingBlock: KIFKEQ_clean_linker_1, # of connection points: 2
#     Edge 32, Type (0, 1), BuildingBlock: KIFKEQ_clean_linker_1, # of connection points: 2
#     Edge 33, Type (0, 1), BuildingBlock: KIFKEQ_clean_linker_1, # of connection points: 2
#     Edge 34, Type (0, 1), BuildingBlock: KIFKEQ_clean_linker_1, # of connection points: 2
#     Edge 35, Type (0, 1), BuildingBlock: KIFKEQ_clean_linker_1, # of connection points: 2
# Relax obj value: 0.221
# Max RMSD: 0.187
# Mean RMSD: 0.098
data_MOF--net-zzz--node1-OLANEW_clean_sbu_2--node2-HISSIN_clean_sbu_0--edge1-KIFKEQ_clean_linker_1
_symmetry_space_group_name_H-M    P1
_symmetry_Int_Tables_number       1
_symmetry_cell_setting            triclinic
loop_
_symmetry_equiv_pos_as_xyz
'x, y, z'
_cell_length_a     54.773523
_cell_length_b     54.632469
_cell_length_c     18.666088
_cell_angle_alpha  89.808938
_cell_angle_beta   93.314051
_cell_angle_gamma 90.349153
loop_
_atom_site_label
_atom_site_type_symbol
_atom_site_fract_x
_atom_site_fract_y
_atom_site_fract_z
_atom_type_partial_charge
O0 O 0.76286 0.60998 0.05621 0.0
Cd1 Cd 0.72803 0.63338 0.09308 0.0
O2 O 0.75422 0.58279 0.13761 0.0
Cd3 Cd 0.76476 0.55171 0.2057 0.0
O4 O 0.79437 0.53605 0.273 0.0
C5 C 0.81444 0.54763 0.26907 0.0
O6 O 0.81513 0.56668 0.22607 0.0
C7 C 0.76754 0.58977 0.0877 0.0
C8 C 0.68557 0.61278 0.03 0.0
O9 O 0.6969 0.63003 0.99885 0.0
O10 O 0.69406 0.60563 0.09194 0.0
O11 O 0.94098 0.74744 0.07338 0.0
Cd12 Cd 0.92002 0.70992 0.10632 0.0
O13 O 0.94565 0.75836 0.18626 0.0
Cd14 Cd 0.9554 0.78458 0.2713 0.0
O15 O 0.96446 0.81489 0.34369 0.0
C16 C 0.96165 0.83662 0.32031 0.0
O17 O 0.95345 0.84001 0.25347 0.0
C18 C 0.949 0.76264 0.12053 0.0
C19 C 0.93717 0.67091 0.02828 0.0
O20 O 0.91903 0.68376 0.00373 0.0
O21 O 0.94696 0.67632 0.09028 0.0
O22 O 0.77662 0.94795 0.13659 0.0
Cd23 Cd 0.81367 0.92769 0.18322 0.0
O24 O 0.7598 0.93817 0.23613 0.0
Cd25 Cd 0.73203 0.93888 0.31501 0.0
O26 O 0.70305 0.94226 0.38892 0.0
C27 C 0.68141 0.93579 0.36903 0.0
O28 O 0.67712 0.92669 0.30442 0.0
C29 C 0.75829 0.94862 0.17503 0.0
C30 C 0.85248 0.94448 0.10694 0.0
O31 O 0.84069 0.925 0.08792 0.0
O32 O 0.84621 0.95572 0.1631 0.0
O33 O 0.49856 0.78026 0.19904 0.0
Cd34 Cd 0.50326 0.81873 0.26397 0.0
O35 O 0.46478 0.77441 0.25402 0.0
Cd36 Cd 0.43733 0.74967 0.29365 0.0
O37 O 0.4399 0.71451 0.34743 0.0
C38 C 0.45957 0.71228 0.38633 0.0
O39 O 0.47479 0.73096 0.39188 0.0
C40 C 0.48014 0.76692 0.21057 0.0
C41 C 0.50251 0.85733 0.16707 0.0
O42 O 0.52263 0.84689 0.18752 0.0
O43 O 0.48275 0.8497 0.19352 0.0
O44 O 0.27738 0.49692 0.1141 0.0
Cd45 Cd 0.31499 0.48696 0.0577 0.0
O46 O 0.26843 0.45777 0.1138 0.0
Cd47 Cd 0.2414 0.42848 0.12004 0.0
O48 O 0.2054 0.42305 0.06742 0.0
C49 C 0.20475 0.42851 1.00115 0.0
O50 O 0.22529 0.43459 0.97242 0.0
C51 C 0.26308 0.47962 0.13 0.0
C52 C 0.351 0.48402 0.16795 0.0
O53 O 0.3464 0.50428 0.13521 0.0
O54 O 0.33916 0.46485 0.14649 0.0
O55 O 0.0046 0.26833 0.06395 0.0
Cd56 Cd 0.01706 0.30861 0.02261 0.0
O57 O 0.0416 0.25438 0.05381 0.0
Cd58 Cd 0.07348 0.23053 0.07169 0.0
O59 O 0.1134 0.21873 0.08584 0.0
C60 C 0.12303 0.2017 0.05009 0.0
O61 O 0.11408 0.21919 0.08787 0.0
C62 C 0.01989 0.25104 0.07291 0.0
C63 C 0.0182 0.33997 0.14058 0.0
O64 O 0.99877 0.33737 0.0996 0.0
O65 O 0.03732 0.32822 0.12468 0.0
O66 O 0.22378 0.01793 0.10364 0.0
Cd67 Cd 0.18128 0.02417 0.06364 0.0
O68 O 0.23483 0.05228 0.05346 0.0
Cd69 Cd 0.26244 0.07767 0.01708 0.0
O70 O 0.29549 0.08704 0.96369 0.0
C71 C 0.29792 0.07623 0.90443 0.0
O72 O 0.28023 0.06172 0.87928 0.0
C73 C 0.24037 0.03338 0.09079 0.0
C74 C 0.15524 0.02859 0.18624 0.0
O75 O 0.15893 0.0076 0.15854 0.0
O76 O 0.16326 0.04762 0.15458 0.0
O77 O 0.59454 0.23877 0.17141 0.0
Cd78 Cd 0.59362 0.19992 0.10806 0.0
O79 O 0.5558 0.23968 0.13553 0.0
Cd80 Cd 0.52193 0.25973 0.11259 0.0
O81 O 0.50852 0.29294 0.0598 0.0
C82 C 0.52568 0.30797 0.04857 0.0
O83 O 0.54812 0.30221 0.07074 0.0
C84 C 0.57403 0.24952 0.1699 0.0
C85 C 0.57173 0.1659 0.1949 0.0
O86 O 0.59507 0.16737 0.19362 0.0
O87 O 0.55873 0.18004 0.15347 0.0
Eu88 Eu 0.00051 0.03913 0.66827 0.0
Eu89 Eu 0.04039 0.00534 0.76278 0.0
C90 C 0.03795 0.06326 0.78422 0.0
C91 C 0.97457 0.08283 0.52748 0.0
C92 C 0.96006 0.10368 0.51667 0.0
C93 C 0.99689 0.09379 0.42312 0.0
C94 C 0.96399 0.11958 0.45954 0.0
C95 C 0.99301 0.07799 0.48033 0.0
C96 C 0.98251 0.11485 0.41218 0.0
C97 C 0.97083 0.06648 0.58866 0.0
O98 O 0.00266 0.99377 0.78936 0.0
O99 O 0.98352 0.03043 0.77267 0.0
C100 C 0.98487 0.00867 0.8026 0.0
O101 O 0.99067 -0.0 0.64083 0.0
O102 O 0.05391 0.99419 0.8701 0.0
O103 O 0.0687 0.97744 0.77727 0.0
O104 O 0.02794 0.98234 0.66783 0.0
C105 C 0.00608 0.98188 0.63517 0.0
O106 O 0.03255 0.03419 0.59991 0.0
O107 O 0.06348 0.02504 0.68473 0.0
O108 O 0.0391 0.04204 0.81718 0.0
O109 O 0.97425 0.04327 0.57716 0.0
O110 O 0.98065 0.0735 0.6506 0.0
O111 O 0.02859 0.06513 0.71824 0.0
C112 C 0.05839 0.95185 0.8729 0.0
C113 C 0.03897 0.93948 0.83606 0.0
C114 C 0.05707 0.9221 0.96968 0.0
C115 C 0.02845 0.91887 0.86612 0.0
C116 C 0.06761 0.94288 0.93945 0.0
C117 C 0.03699 0.91025 0.93396 0.0
C118 C 0.06616 0.97584 0.84627 0.0
C119 C 0.05587 0.03179 0.61948 0.0
H120 H 0.94586 0.10778 0.5528 0.0
H121 H 0.0111 0.08942 0.3873 0.0
H122 H 0.95285 0.13584 0.45343 0.0
H123 H 0.00445 0.06199 0.48776 0.0
H124 H 0.03131 0.94629 0.78505 0.0
H125 H 0.06394 0.91595 0.02221 0.0
H126 H 0.01329 0.90993 0.83673 0.0
H127 H 0.08231 0.95244 0.96917 0.0
Eu128 Eu 0.51896 0.0393 0.73104 0.0
Eu129 Eu 0.48328 0.00475 0.62378 0.0
C130 C 0.50036 0.98726 0.7823 0.0
C131 C 0.57074 0.05311 0.86142 0.0
C132 C 0.58023 0.03036 0.8428 0.0
C133 C 0.60106 0.0556 0.96142 0.0
C134 C 0.59991 0.02026 0.88312 0.0
C135 C 0.58128 0.06574 0.92079 0.0
C136 C 0.61044 0.03261 0.94335 0.0
C137 C 0.54892 0.0625 0.82113 0.0
O138 O 0.46174 0.0382 0.64868 0.0
O139 O 0.48012 0.04583 0.75929 0.0
C140 C 0.46125 0.04766 0.713 0.0
O141 O 0.50826 0.0634 0.63651 0.0
O142 O 0.44868 0.98543 0.60289 0.0
O143 O 0.47585 0.98511 0.5232 0.0
O144 O 0.50159 0.03242 0.55496 0.0
C145 C 0.5066 0.05543 0.57006 0.0
O146 O 0.54338 0.01871 0.65962 0.0
O147 O 0.51929 0.98515 0.6323 0.0
O148 O 0.48174 0.98886 0.73507 0.0
O149 O 0.55032 0.06364 0.75162 0.0
O150 O 0.52833 0.05282 0.8391 0.0
O151 O 0.51947 0.00164 0.77886 0.0
C152 C 0.43452 0.98618 0.48198 0.0
C153 C 0.42974 0.01082 0.46557 0.0
C154 C 0.40188 0.97397 0.39591 0.0
C155 C 0.41099 0.01702 0.41497 0.0
C156 C 0.42065 0.9678 0.44658 0.0
C157 C 0.39669 0.99867 0.38 0.0
C158 C 0.45343 0.97966 0.53743 0.0
C159 C 0.54068 0.99619 0.63579 0.0
H160 H 0.57222 0.02024 0.79736 0.0
H161 H 0.60864 0.06548 0.00781 0.0
H162 H 0.60693 0.00277 0.86685 0.0
H163 H 0.57399 0.08321 0.93631 0.0
H164 H 0.44036 0.02524 0.49249 0.0
H165 H 0.39101 0.95942 0.37068 0.0
H166 H 0.40766 0.03619 0.40333 0.0
H167 H 0.42409 0.94869 0.45892 0.0
Eu168 Eu 0.4863 0.51714 0.75134 0.0
Eu169 Eu 0.52279 0.49685 0.6294 0.0
C170 C 0.54429 0.52651 0.76614 0.0
C171 C 0.46088 0.55752 0.89221 0.0
C172 C 0.48377 0.56851 0.90831 0.0
C173 C 0.44143 0.5905 0.95405 0.0
C174 C 0.48548 0.59033 0.94718 0.0
C175 C 0.43975 0.56857 0.91559 0.0
C176 C 0.4643 0.60169 0.96991 0.0
C177 C 0.45883 0.53548 0.84731 0.0
O178 O 0.52322 0.4691 0.71898 0.0
O179 O 0.48547 0.47621 0.7612 0.0
C180 C 0.5046 0.46218 0.75566 0.0
O181 O 0.46302 0.50896 0.65058 0.0
O182 O 0.55672 0.4794 0.60133 0.0
O183 O 0.53059 0.49156 0.51743 0.0
O184 O 0.48638 0.4788 0.60535 0.0
C185 C 0.46569 0.49068 0.60619 0.0
O186 O 0.50045 0.55035 0.69592 0.0
O187 O 0.50653 0.53238 0.58794 0.0
O188 O 0.54535 0.52357 0.69662 0.0
O189 O 0.45528 0.53948 0.77861 0.0
O190 O 0.47506 0.51848 0.86146 0.0
O191 O 0.52486 0.52002 0.79983 0.0
C192 C 0.55292 0.456 0.49549 0.0
C193 C 0.53417 0.43842 0.49605 0.0
C194 C 0.57625 0.42892 0.42298 0.0
C195 C 0.5364 0.41624 0.45996 0.0
C196 C 0.57396 0.45113 0.45892 0.0
C197 C 0.55748 0.4112 0.42297 0.0
C198 C 0.55067 0.47944 0.53271 0.0
C199 C 0.50243 0.55185 0.62641 0.0
H200 H 0.50029 0.56044 0.88977 0.0
H201 H 0.42482 0.59873 0.97134 0.0
H202 H 0.50331 0.59867 0.95769 0.0
H203 H 0.42193 0.56041 0.90318 0.0
H204 H 0.51777 0.4419 0.5241 0.0
H205 H 0.59287 0.42552 0.396 0.0
H206 H 0.52146 0.40317 0.46031 0.0
H207 H 0.58864 0.4645 0.45828 0.0
Eu208 Eu 0.02383 0.50853 0.6028 0.0
Eu209 Eu 0.99001 0.47473 0.7062 0.0
C210 C 0.04785 0.47482 0.73011 0.0
C211 C 0.07391 0.5295 0.48377 0.0
C212 C 0.08641 0.50735 0.49452 0.0
C213 C 0.10281 0.54169 0.39643 0.0
C214 C 0.10693 0.50232 0.45606 0.0
C215 C 0.08228 0.54669 0.43495 0.0
C216 C 0.11525 0.51935 0.40606 0.0
C217 C 0.05135 0.53412 0.52002 0.0
O218 O -0.00064 0.51 0.76395 0.0
O219 O 0.00301 0.53516 0.6673 0.0
C220 C 0.99866 0.5319 0.73501 0.0
O221 O 0.98685 0.50415 0.54531 0.0
O222 O 0.98152 0.46238 0.81353 0.0
O223 O 0.95869 0.45078 0.72119 0.0
O224 O 0.96423 0.4997 0.6435 0.0
C225 C 0.96579 0.50471 0.57523 0.0
O226 O 0.0308 0.46965 0.572 0.0
O227 O 0.99489 0.45248 0.60608 0.0
O228 O 0.02821 0.46091 0.72811 0.0
O229 O 0.03242 0.52133 0.49651 0.0
O230 O 0.05332 0.53503 0.58996 0.0
O231 O 0.04801 0.49626 0.69788 0.0
C232 C 0.93894 0.46277 0.82524 0.0
C233 C 0.92022 0.47459 0.78392 0.0
C234 C 0.91976 0.47536 0.93359 0.0
C235 C 0.90173 0.48695 0.81702 0.0
C236 C 0.93827 0.46286 0.90033 0.0
C237 C 0.90158 0.48801 0.89226 0.0
C238 C 0.96051 0.45298 0.79096 0.0
C239 C 0.01419 0.45222 0.56716 0.0
H240 H 0.08009 0.49383 0.53194 0.0
H241 H 0.10856 0.55506 0.35778 0.0
H242 H 0.11629 0.4851 0.46548 0.0
H243 H 0.07268 0.56379 0.42567 0.0
H244 H 0.9202 0.475 0.7259 0.0
H245 H 0.92028 0.47593 0.99165 0.0
H246 H 0.88773 0.49604 0.78349 0.0
H247 H 0.9526 0.45406 0.93336 0.0
H248 H 0.13914 0.07024 0.24873 0.0
H249 H 0.14291 0.99174 0.27647 0.0
H250 H 0.11799 0.07352 0.36004 0.0
H251 H 0.1218 0.9951 0.38749 0.0
H252 H 0.10131 0.01155 0.61442 0.0
H253 H 0.12777 0.01253 0.51304 0.0
H254 H 0.07655 0.06013 0.39729 0.0
H255 H 0.05028 0.05925 0.49813 0.0
C256 C 0.13552 0.05371 0.27864 0.0
C257 C 0.14254 0.03071 0.25362 0.0
C258 C 0.12343 0.05561 0.34227 0.0
C259 C 0.11838 0.03458 0.38247 0.0
C260 C 0.12577 0.01164 0.35808 0.0
C261 C 0.13762 0.00971 0.29414 0.0
C262 C 0.09599 0.02258 0.56786 0.0
C263 C 0.07365 0.03513 0.56381 0.0
C264 C 0.11101 0.02299 0.50973 0.0
C265 C 0.10408 0.03625 0.44719 0.0
C266 C 0.0824 0.04986 0.44491 0.0
C267 C 0.06729 0.04921 0.50248 0.0
H268 H 0.52621 0.16917 0.246 0.0
H269 H 0.59145 0.12493 0.25753 0.0
H270 H 0.5082 0.14261 0.33523 0.0
H271 H 0.57318 0.09817 0.34531 0.0
H272 H 0.51944 0.04248 0.43689 0.0
H273 H 0.53354 0.06917 0.34269 0.0
H274 H 0.52209 0.13234 0.47445 0.0
H275 H 0.50831 0.1056 0.57007 0.0
C276 C 0.53656 0.15363 0.26696 0.0
C277 C 0.56022 0.14906 0.24494 0.0
C278 C 0.52632 0.13859 0.31814 0.0
C279 C 0.53937 0.11846 0.34678 0.0
C280 C 0.56276 0.11356 0.32356 0.0
C281 C 0.5732 0.12887 0.2736 0.0
C282 C 0.51964 0.06207 0.4457 0.0
C283 C 0.51286 0.07196 0.51107 0.0
C284 C 0.52782 0.07728 0.39185 0.0
C285 C 0.52893 0.10269 0.40172 0.0
C286 C 0.52126 0.11275 0.46574 0.0
C287 C 0.51349 0.09748 0.52036 0.0
H288 H 0.36652 0.44376 0.24521 0.0
H289 H 0.37449 0.52245 0.23474 0.0
H290 H 0.39286 0.44307 0.3556 0.0
H291 H 0.40074 0.52166 0.34447 0.0
H292 H 0.42309 0.5156 0.57943 0.0
H293 H 0.39495 0.51227 0.47408 0.0
H294 H 0.43689 0.45224 0.39646 0.0
H295 H 0.46513 0.45538 0.50215 0.0
C296 C 0.37401 0.46086 0.26613 0.0
C297 C 0.36838 0.48317 0.23139 0.0
C298 C 0.38908 0.46044 0.32921 0.0
C299 C 0.39855 0.48234 0.35895 0.0
C300 C 0.3933 0.50455 0.32341 0.0
C301 C 0.37844 0.50497 0.26022 0.0
C302 C 0.42614 0.5014 0.54064 0.0
C303 C 0.4465 0.48591 0.54891 0.0
C304 C 0.41011 0.49964 0.48003 0.0
C305 C 0.414 0.48226 0.42667 0.0
C306 C 0.43348 0.4658 0.43684 0.0
C307 C 0.44964 0.46764 0.49734 0.0
H308 H 0.98013 0.36572 0.19049 0.0
H309 H 0.05649 0.34937 0.23756 0.0
H310 H 0.98009 0.39093 0.29789 0.0
H311 H 0.05631 0.37434 0.34575 0.0
H312 H 0.05175 0.44555 0.47896 0.0
H313 H 0.05314 0.41745 0.37851 0.0
H314 H 0.98304 0.38738 0.42895 0.0
H315 H 0.98138 0.41582 0.52901 0.0
C316 C 0.99691 0.36746 0.22382 0.0
C317 C 0.01834 0.35559 0.20531 0.0
C318 C 0.99682 0.38174 0.28576 0.0
C319 C 0.01816 0.38454 0.33061 0.0
C320 C 0.03962 0.37271 0.31203 0.0
C321 C 0.0397 0.35836 0.25012 0.0
C322 C 0.03672 0.43278 0.46928 0.0
C323 C 0.01636 0.43307 0.51189 0.0
C324 C 0.03759 0.41658 0.41174 0.0
C325 C 0.01811 0.40032 0.39533 0.0
C326 C 0.99816 0.39998 0.4395 0.0
C327 C 0.9973 0.41615 0.49722 0.0
H328 H 0.87283 0.92251 0.99389 0.0
H329 H 0.87682 0.98813 0.12294 0.0
H330 H 0.90481 0.9387 0.92115 0.0
H331 H 0.90895 0.00424 0.05014 0.0
H332 H 0.94554 0.03405 0.84807 0.0
H333 H 0.91359 0.01872 0.92325 0.0
H334 H 0.94918 0.9484 0.93763 0.0
H335 H 0.98085 0.96345 0.86271 0.0
C336 C 0.88059 0.94034 0.0069 0.0
C337 C 0.87234 0.95402 0.06423 0.0
C338 C 0.89895 0.94957 0.96539 0.0
C339 C 0.90934 0.97272 0.98005 0.0
C340 C 0.90109 0.98644 0.03727 0.0
C341 C 0.88283 0.97713 0.07919 0.0
C342 C 0.94653 0.01535 0.86738 0.0
C343 C 0.96566 -3e-05 0.84912 0.0
C344 C 0.92833 0.00663 0.91066 0.0
C345 C 0.92888 0.98235 0.93593 0.0
C346 C 0.94811 0.96709 0.91811 0.0
C347 C 0.96632 0.9758 0.87539 0.0
H348 H 0.46313 0.88399 0.11609 0.0
H349 H 0.54082 0.8754 0.09571 0.0
H350 H 0.46229 0.91602 0.02468 0.0
H351 H 0.53985 0.90694 0.00325 0.0
H352 H 0.53428 0.98108 0.89362 0.0
H353 H 0.53434 0.95054 0.98858 0.0
H354 H 0.46648 0.92054 0.89625 0.0
H355 H 0.46607 0.95153 0.80186 0.0
C356 C 0.48002 0.88892 0.09208 0.0
C357 C 0.50205 0.87718 0.11315 0.0
C358 C 0.4795 0.90715 0.03938 0.0
C359 C 0.50099 0.91399 0.00662 0.0
C360 C 0.52304 0.90234 0.02813 0.0
C361 C 0.52357 0.88417 0.08089 0.0
C362 C 0.51933 0.968 0.89348 0.0
C363 C 0.50018 0.9687 0.84 0.0
C364 C 0.51944 0.95041 0.9478 0.0
C365 C 0.50047 0.93306 0.94982 0.0
C366 C 0.48122 0.93385 0.89666 0.0
C367 C 0.48106 0.95152 0.84233 0.0
H368 H 0.65832 0.57497 0.08024 0.0
H369 H 0.66382 0.62355 0.89856 0.0
H370 H 0.62402 0.55381 0.01772 0.0
H371 H 0.62934 0.60267 0.83676 0.0
H372 H 0.5877 0.54174 0.71572 0.0
H373 H 0.62124 0.56271 0.78149 0.0
H374 H 0.58122 0.55995 0.97415 0.0
H375 H 0.54772 0.53859 0.90869 0.0
C376 C 0.65208 0.58127 0.02726 0.0
C377 C 0.66385 0.60088 0.99423 0.0
C378 C 0.63237 0.5692 0.9916 0.0
C379 C 0.62408 0.57647 0.92214 0.0
C380 C 0.63557 0.59638 0.88976 0.0
C381 C 0.65522 0.60845 0.9254 0.0
C382 C 0.58604 0.54551 0.77215 0.0
C383 C 0.56501 0.53848 0.80689 0.0
C384 C 0.60521 0.55769 0.80973 0.0
C385 C 0.60381 0.56313 0.88289 0.0
C386 C 0.58293 0.55583 0.91794 0.0
C387 C 0.5637 0.54365 0.88032 0.0
H388 H 0.92253 0.65727 0.8917 0.0
H389 H 0.97357 0.63885 0.06863 0.0
H390 H 0.93859 0.62413 0.82126 0.0
H391 H 0.98977 0.60586 0.99779 0.0
H392 H 0.99021 0.53203 0.87783 0.0
H393 H 0.97589 0.56585 0.94856 0.0
H394 H 0.97657 0.61318 0.76288 0.0
H395 H 0.99068 0.57925 0.69155 0.0
C396 C 0.93719 0.64618 0.91554 0.0
C397 C 0.94675 0.65066 0.98581 0.0
C398 C 0.9465 0.62731 0.87498 0.0
C399 C 0.96548 0.61245 0.90393 0.0
C400 C 0.97499 0.61688 0.97427 0.0
C401 C 0.96576 0.63583 0.01472 0.0
C402 C 0.98749 0.54967 0.85206 0.0
C403 C 0.99159 0.55292 0.77894 0.0
C404 C 0.97937 0.56908 0.89277 0.0
C405 C 0.97505 0.59215 0.86124 0.0
C406 C 0.97947 0.59552 0.78842 0.0
C407 C 0.98772 0.57613 0.74772 0.0
H408 H 0.03867 0.20456 0.06563 0.0
H409 H 0.98429 0.24706 0.16724 0.0
H410 H 0.02926 0.16936 0.14103 0.0
H411 H 0.97437 0.21194 0.24055 0.0
H412 H 0.94896 0.13938 0.3247 0.0
H413 H 0.95685 0.17007 0.23354 0.0
H414 H 0.03458 0.15995 0.2734 0.0
H415 H 0.02679 0.12957 0.36533 0.0
C416 C 0.02499 0.20647 0.10459 0.0
C417 C 0.01284 0.22879 0.1122 0.0
C418 C 0.01937 0.18627 0.14709 0.0
C419 C 0.00117 0.18796 0.197 0.0
C420 C 0.98831 0.20998 0.20214 0.0
C421 C 0.99406 0.23013 0.16022 0.0
C422 C 0.96773 0.14373 0.31416 0.0
C423 C 0.98723 0.13218 0.35289 0.0
C424 C 0.97224 0.16121 0.26172 0.0
C425 C 0.99633 0.16746 0.24658 0.0
C426 C 0.01582 0.15529 0.28328 0.0
C427 C 0.01132 0.13789 0.33602 0.0
H428 H 0.26295 0.9897 0.11455 0.0
H429 H 0.27403 0.06759 0.13887 0.0
H430 H 0.30249 0.98233 0.17756 0.0
H431 H 0.31404 0.06034 0.19896 0.0
H432 H 0.36327 0.03496 0.3946 0.0
H433 H 0.32757 0.04432 0.31597 0.0
H434 H 0.34677 0.98651 0.17257 0.0
H435 H 0.38264 0.97712 0.25154 0.0
C436 C 0.27412 0.00526 0.13186 0.0
C437 C 0.2656 0.02924 0.12054 0.0
C438 C 0.29685 0.00106 0.16753 0.0
C439 C 0.31145 0.02075 0.19324 0.0
C440 C 0.30318 0.04477 0.18014 0.0
C441 C 0.28044 0.04896 0.14442 0.0
C442 C 0.36015 0.02452 0.34567 0.0
C443 C 0.37578 0.00525 0.32945 0.0
C444 C 0.33967 0.02991 0.30048 0.0
C445 C 0.33431 0.01617 0.23794 0.0
C446 C 0.35023 0.99724 0.22084 0.0
C447 C 0.37074 0.99184 0.2661 0.0
H448 H 0.53489 0.26635 0.23809 0.0
H449 H 0.60806 0.28609 0.18455 0.0
H450 H 0.53059 0.30584 0.29644 0.0
H451 H 0.60406 0.32547 0.24487 0.0
H452 H 0.57656 0.40326 0.29241 0.0
H453 H 0.5807 0.36434 0.2305 0.0
H454 H 0.54786 0.32673 0.40494 0.0
H455 H 0.54397 0.3655 0.46729 0.0
C456 C 0.54993 0.2793 0.23799 0.0
C457 C 0.57162 0.2734 0.20552 0.0
C458 C 0.54761 0.30176 0.27231 0.0
C459 C 0.56697 0.31879 0.27514 0.0
C460 C 0.58872 0.31285 0.24281 0.0
C461 C 0.59109 0.29027 0.2088 0.0
C462 C 0.57044 0.38666 0.31792 0.0
C463 C 0.55992 0.38753 0.38487 0.0
C464 C 0.57279 0.36438 0.28237 0.0
C465 C 0.56457 0.34249 0.31279 0.0
C466 C 0.55403 0.34334 0.3796 0.0
C467 C 0.55177 0.36558 0.41528 0.0
H468 H 0.23483 0.52049 0.11561 0.0
H469 H 0.24115 0.45168 0.22924 0.0
H470 H 0.19838 0.53019 0.17954 0.0
H471 H 0.20477 0.46118 0.29259 0.0
H472 H 0.12575 0.47585 0.34291 0.0
H473 H 0.16066 0.46625 0.27299 0.0
H474 H 0.18763 0.54026 0.30142 0.0
H475 H 0.15271 0.54987 0.37151 0.0
C476 C 0.22828 0.50736 0.15376 0.0
C477 C 0.24042 0.48503 0.16601 0.0
C478 C 0.2075 0.51295 0.1906 0.0
C479 C 0.19858 0.49638 0.24082 0.0
C480 C 0.21082 0.47408 0.25305 0.0
C481 C 0.23157 0.46853 0.21631 0.0
C482 C 0.13923 0.49002 0.33479 0.0
C483 C 0.1365 0.5136 0.36311 0.0
C484 C 0.15921 0.48453 0.29459 0.0
C485 C 0.17694 0.50248 0.28169 0.0
C486 C 0.17411 0.52612 0.30948 0.0
C487 C 0.15412 0.53161 0.34974 0.0
H488 H 0.93956 0.78874 0.99828 0.0
H489 H 0.98753 0.7866 0.18995 0.0
H490 H 0.96094 0.82504 0.95762 0.0
H491 H 0.00835 0.82355 0.15079 0.0
H492 H 0.05716 0.87091 0.00693 0.0
H493 H 0.03568 0.83591 0.05657 0.0
H494 H 0.96643 0.86828 0.98786 0.0
H495 H 0.98781 0.90309 0.93839 0.0
C496 C 0.95449 0.79625 0.03215 0.0
C497 C 0.9615 0.78519 0.09806 0.0
C498 C 0.96662 0.81714 0.00916 0.0
C499 C 0.98621 0.82732 0.0513 0.0
C500 C 0.99335 0.81614 0.1171 0.0
C501 C 0.98113 0.79524 0.14017 0.0
C502 C 0.03735 0.87062 0.00319 0.0
C503 C 0.0242 0.88957 0.96787 0.0
C504 C 0.02505 0.85062 0.03168 0.0
C505 C -0.00065 0.84922 0.02551 0.0
C506 C 0.98624 0.86856 0.99214 0.0
C507 C 0.9985 0.88848 0.96372 0.0
H508 H 0.71047 0.93877 0.20171 0.0
H509 H 0.75597 0.988 0.08595 0.0
H510 H 0.67417 0.9608 0.15638 0.0
H511 H 0.71969 0.00917 0.03705 0.0
H512 H 0.65191 0.05501 1.0016 0.0
H513 H 0.68684 0.03582 0.06609 0.0
H514 H 0.65096 0.96534 0.04446 0.0
H515 H 0.6157 0.98465 0.9832 0.0
C516 C 0.71276 0.95462 0.16794 0.0
C517 C 0.73611 0.96203 0.14898 0.0
C518 C 0.69192 0.96698 0.14071 0.0
C519 C 0.69398 0.98685 0.0932 0.0
C520 C 0.71741 0.99427 0.07452 0.0
C521 C 0.7382 0.98197 0.10196 0.0
C522 C 0.65131 0.0355 0.01178 0.0
C523 C 0.63111 0.02134 0.98663 0.0
C524 C 0.67145 0.02444 0.04805 0.0
C525 C 0.67182 0.99899 0.06002 0.0
C526 C 0.65126 0.985 0.03681 0.0
C527 C 0.63115 0.99604 1.00075 0.0
H528 H 0.51656 0.73642 0.17433 0.0
H529 H 0.43797 0.74276 0.16787 0.0
H530 H 0.51251 0.69632 0.11743 0.0
H531 H 0.4338 0.70215 0.11511 0.0
H532 H 0.43582 0.64204 0.94573 0.0
H533 H 0.43956 0.68171 0.00472 0.0
H534 H 0.50042 0.65477 0.13965 0.0
H535 H 0.49689 0.61521 0.07947 0.0
C536 C 0.49842 0.72908 0.16157 0.0
C537 C 0.47758 0.74246 0.17722 0.0
C538 C 0.49607 0.70601 0.12959 0.0
C539 C 0.47282 0.69586 0.11221 0.0
C540 C 0.45199 0.7094 0.12745 0.0
C541 C 0.45436 0.7325 0.15907 0.0
C542 C 0.44983 0.64453 0.9885 0.0
C543 C 0.46605 0.62551 0.00798 0.0
C544 C 0.45197 0.66727 0.02244 0.0
C545 C 0.4703 0.67148 0.07702 0.0
C546 C 0.48635 0.65232 0.09703 0.0
C547 C 0.4843 0.62962 0.06273 0.0
H548 H 0.81128 0.6062 0.04405 0.0
H549 H 0.77066 0.53998 0.08224 0.0
H550 H 0.84521 0.58189 0.00434 0.0
H551 H 0.80436 0.51561 0.04199 0.0
H552 H 0.87672 0.47747 0.01262 0.0
H553 H 0.84604 0.5025 0.06738 0.0
H554 H 0.85353 0.55747 0.90295 0.0
H555 H 0.88485 0.53315 0.85067 0.0
C556 C 0.8097 0.58642 0.04431 0.0
C557 C 0.78851 0.57496 0.06723 0.0
C558 C 0.82907 0.57248 0.02135 0.0
C559 C 0.82753 0.54675 0.0198 0.0
C560 C 0.8064 0.53533 0.04373 0.0
C561 C 0.78708 0.54929 0.06702 0.0
C562 C 0.87201 0.49504 0.98879 0.0
C563 C 0.8831 0.50318 0.92684 0.0
C564 C 0.85426 0.50929 0.01975 0.0
C565 C 0.84724 0.532 0.98952 0.0
C566 C 0.85865 0.54024 0.92828 0.0
C567 C 0.87637 0.52608 0.89754 0.0
H568 H 0.13461 0.17968 0.92874 0.0
H569 H 0.07767 0.1833 0.07852 0.0
H570 H 0.11165 0.14784 0.86133 0.0
H571 H 0.05465 0.15136 0.0113 0.0
H572 H 0.04652 0.06962 0.92847 0.0
H573 H 0.06451 0.10532 0.9904 0.0
H574 H 0.07014 0.14223 0.78719 0.0
H575 H 0.05181 0.10665 0.72497 0.0
C576 C 0.11695 0.17393 0.94634 0.0
C577 C 0.1076 0.18428 0.00753 0.0
C578 C 0.10381 0.15581 0.90778 0.0
C579 C 0.08134 0.14727 0.93092 0.0
C580 C 0.07189 0.15771 0.9922 0.0
C581 C 0.08487 0.17616 0.03005 0.0
C582 C 0.05144 0.08541 0.897 0.0
C583 C 0.04785 0.08529 0.82182 0.0
C584 C 0.06155 0.10589 0.93253 0.0
C585 C 0.06867 0.1265 0.89352 0.0
C586 C 0.06486 0.12652 0.81844 0.0
C587 C 0.05432 0.1062 0.78295 0.0
H588 H 0.31003 0.0517 0.78488 0.0
H589 H 0.33859 0.10372 0.94279 0.0
H590 H 0.34976 0.04977 0.73415 0.0
H591 H 0.37837 0.10237 0.89036 0.0
H592 H 0.45038 0.06134 0.84807 0.0
H593 H 0.41066 0.07291 0.88838 0.0
H594 H 0.38029 0.07026 0.66957 0.0
H595 H 0.41989 0.05789 0.62947 0.0
C596 C 0.32468 0.0631 0.80796 0.0
C597 C 0.32122 0.07764 0.86839 0.0
C598 C 0.34747 0.06214 0.77844 0.0
C599 C 0.36733 0.07584 0.80835 0.0
C600 C 0.36356 0.0913 0.86675 0.0
C601 C 0.34073 0.09217 0.89655 0.0
C602 C 0.43533 0.06358 0.80837 0.0
C603 C 0.43822 0.05835 0.73572 0.0
C604 C 0.41255 0.07039 0.83146 0.0
C605 C 0.39219 0.07227 0.78231 0.0
C606 C 0.39547 0.06848 0.70902 0.0
C607 C 0.41822 0.06151 0.68599 0.0
H608 H 0.48242 0.32393 0.98346 0.0
H609 H 0.55863 0.34367 0.02099 0.0
H610 H 0.47601 0.36066 0.90955 0.0
H611 H 0.55214 0.38028 0.94846 0.0
H612 H 0.54002 0.4274 0.75147 0.0
H613 H 0.54367 0.38985 0.82142 0.0
H614 H 0.47595 0.40594 0.91871 0.0
H615 H 0.472 0.44345 0.84774 0.0
C616 C 0.49773 0.33617 0.9764 0.0
C617 C 0.52107 0.33081 0.0076 0.0
C618 C 0.49404 0.3572 0.93427 0.0
C619 C 0.51365 0.37318 0.92255 0.0
C620 C 0.5368 0.36805 0.95522 0.0
C621 C 0.54047 0.34713 0.99722 0.0
C622 C 0.52581 0.42292 0.78743 0.0
C623 C 0.50583 0.43855 0.79448 0.0
C624 C 0.52798 0.40144 0.82778 0.0
C625 C 0.51025 0.39511 0.8762 0.0
C626 C 0.48984 0.41029 0.88158 0.0
C627 C 0.48765 0.43183 0.84112 0.0
H628 H 0.1584 0.42335 0.04766 0.0
H629 H 0.19792 0.43997 0.85943 0.0
H630 H 0.11994 0.43286 0.9807 0.0
H631 H 0.15959 0.44913 0.79272 0.0
H632 H 0.09286 0.49656 0.73483 0.0
H633 H 0.13016 0.48279 0.79896 0.0
H634 H 0.09172 0.41984 0.87775 0.0
H635 H 0.05408 0.43378 0.81406 0.0
C636 C 0.15886 0.42864 0.99178 0.0
C637 C 0.18122 0.43114 0.95904 0.0
C638 C 0.13683 0.43402 0.95342 0.0
C639 C 0.13681 0.44202 0.88177 0.0
C640 C 0.15909 0.44345 0.84828 0.0
C641 C 0.18104 0.43806 0.88645 0.0
C642 C 0.09227 0.47979 0.76579 0.0
C643 C 0.07046 0.46628 0.76931 0.0
C644 C 0.11373 0.4718 0.80212 0.0
C645 C 0.1139 0.45014 0.84296 0.0
C646 C 0.09209 0.43667 0.84695 0.0
C647 C 0.07058 0.44461 0.81023 0.0
H648 H 0.95649 0.88522 0.28804 0.0
H649 H 0.98007 0.83593 0.45964 0.0
H650 H 0.96661 0.92011 0.36553 0.0
H651 H 0.98985 0.87084 0.53731 0.0
H652 H 0.03121 0.93924 0.6219 0.0
H653 H 0.01994 0.90422 0.54658 0.0
H654 H 0.95301 0.94029 0.47395 0.0
H655 H 0.96442 0.97562 0.54853 0.0
C656 C 0.96373 0.88182 0.34235 0.0
C657 C 0.96752 0.85779 0.3676 0.0
C658 C 0.96939 0.90182 0.38688 0.0
C659 C 0.97902 0.89823 0.45754 0.0
C660 C 0.98272 0.8742 0.48286 0.0
C661 C 0.977 0.8542 0.43843 0.0
C662 C 0.01406 0.93975 0.58996 0.0
C663 C 0.99875 0.9603 0.59108 0.0
C664 C 0.00754 0.91958 0.54713 0.0
C665 C 0.9856 0.91949 0.50428 0.0
C666 C 0.97018 0.93994 0.50576 0.0
C667 C 0.97666 0.96011 0.54885 0.0
H668 H 0.63245 0.93028 0.33601 0.0
H669 H 0.68441 0.95142 0.50813 0.0
H670 H 0.59893 0.94173 0.40897 0.0
H671 H 0.65084 0.96226 0.58182 0.0
H672 H 0.58762 0.01312 0.6367 0.0
H673 H 0.62177 0.99516 0.57904 0.0
H674 H 0.5767 0.9329 0.5149 0.0
H675 H 0.54212 0.95125 0.57121 0.0
C676 C 0.63671 0.93698 0.38985 0.0
C677 C 0.66108 0.94023 0.41596 0.0
C678 C 0.61748 0.94339 0.4319 0.0
C679 C 0.62222 0.95307 0.50105 0.0
C680 C 0.6466 0.95525 0.5283 0.0
C681 C 0.66583 0.94896 0.48615 0.0
C682 C 0.58498 0.99549 0.6109 0.0
C683 C 0.56204 0.98376 0.60784 0.0
C684 C 0.60467 0.98508 0.5783 0.0
C685 C 0.60194 0.96264 0.54207 0.0
C686 C 0.57927 0.95039 0.54152 0.0
C687 C 0.55951 0.96085 0.57413 0.0
H688 H 0.49654 0.704 0.48717 0.0
H689 H 0.43723 0.66772 0.36616 0.0
H690 H 0.50811 0.66522 0.54413 0.0
H691 H 0.44885 0.62889 0.42352 0.0
H692 H 0.49469 0.56068 0.48275 0.0
H693 H 0.4846 0.59968 0.42443 0.0
H694 H 0.49004 0.6357 0.63036 0.0
H695 H 0.50021 0.59682 0.68886 0.0
C696 C 0.48593 0.68776 0.47288 0.0
C697 C 0.46594 0.6889 0.42231 0.0
C698 C 0.49253 0.6656 0.50568 0.0
C699 C 0.47941 0.6441 0.48806 0.0
C700 C 0.45942 0.64519 0.43748 0.0
C701 C 0.45266 0.66742 0.40513 0.0
C702 C 0.49398 0.57695 0.51553 0.0
C703 C 0.49823 0.57567 0.59042 0.0
C704 C 0.488 0.59921 0.48217 0.0
C705 C 0.48642 0.62063 0.52299 0.0
C706 C 0.49128 0.61948 0.59761 0.0
C707 C 0.49702 0.5972 0.63105 0.0
H708 H 0.81901 0.51093 0.36938 0.0
H709 H 0.85972 0.56837 0.26902 0.0
H710 H 0.85557 0.50002 0.44362 0.0
H711 H 0.89594 0.55777 0.34381 0.0
H712 H 0.96215 0.51534 0.43212 0.0
H713 H 0.9254 0.52464 0.358 0.0
H714 H 0.88202 0.51719 0.54302 0.0
H715 H 0.9188 0.50745 0.61736 0.0
C716 C 0.83573 0.52121 0.36318 0.0
C717 C 0.83649 0.5405 0.31333 0.0
C718 C 0.8566 0.51507 0.40599 0.0
C719 C 0.87862 0.52804 0.39951 0.0
C720 C 0.87934 0.54723 0.3494 0.0
C721 C 0.85853 0.55338 0.3068 0.0
C722 C 0.94481 0.51569 0.45717 0.0
C723 C 0.94343 0.51072 0.53073 0.0
C724 C 0.92375 0.52112 0.41466 0.0
C725 C 0.90083 0.5217 0.44471 0.0
C726 C 0.8994 0.51661 0.5182 0.0
C727 C 0.9205 0.5112 0.56084 0.0
loop_
_geom_bond_atom_site_label_1
_geom_bond_atom_site_label_2
_geom_bond_distance
_geom_bond_site_symmetry_2
_ccdc_geom_bond_type
O0 Cd1 2.300 . S
O0 C7 1.275 . S
Cd1 O0 2.300 . S
Cd1 O9 2.381 . S
Cd1 O10 2.378 . S
O2 Cd3 2.385 . S
O2 C7 1.255 . S
Cd3 O2 2.385 . S
Cd3 O4 2.317 . S
O4 Cd3 2.317 . S
O4 C5 1.232 . S
C5 O4 1.232 . S
C5 O6 1.218 . S
O6 C5 1.218 . S
C7 O0 1.275 . S
C7 O2 1.255 . S
C8 O9 1.258 . S
C8 O10 1.256 . S
O9 Cd1 2.381 . S
O9 C8 1.258 . S
O10 Cd1 2.378 . S
O10 C8 1.256 . S
O11 Cd12 2.300 . S
O11 C18 1.275 . S
Cd12 O11 2.300 . S
Cd12 O20 2.381 . S
Cd12 O21 2.378 . S
O13 Cd14 2.385 1_655 S
O13 C18 1.255 . S
Cd14 O13 2.385 1_455 S
Cd14 O15 2.317 1_455 S
O15 Cd14 2.317 1_655 S
O15 C16 1.232 . S
C16 O15 1.232 . S
C16 O17 1.218 . S
O17 C16 1.218 . S
C18 O11 1.275 . S
C18 O13 1.255 . S
C19 O20 1.258 . S
C19 O21 1.256 . S
O20 Cd12 2.381 . S
O20 C19 1.258 . S
O21 Cd12 2.378 . S
O21 C19 1.256 . S
O22 Cd23 2.300 . S
O22 C29 1.275 . S
Cd23 O22 2.300 . S
Cd23 O31 2.381 . S
Cd23 O32 2.378 . S
O24 Cd25 2.385 1_565 S
O24 C29 1.255 . S
Cd25 O24 2.385 1_545 S
Cd25 O26 2.317 1_545 S
O26 Cd25 2.317 1_565 S
O26 C27 1.232 . S
C27 O26 1.232 . S
C27 O28 1.218 . S
O28 C27 1.218 . S
C29 O22 1.275 . S
C29 O24 1.255 . S
C30 O31 1.258 . S
C30 O32 1.256 . S
O31 Cd23 2.381 . S
O31 C30 1.258 . S
O32 Cd23 2.378 . S
O32 C30 1.256 . S
O33 Cd34 2.300 . S
O33 C40 1.275 . S
Cd34 O33 2.300 . S
Cd34 O42 2.381 . S
Cd34 O43 2.378 . S
O35 Cd36 2.385 . S
O35 C40 1.255 . S
Cd36 O35 2.385 . S
Cd36 O37 2.317 . S
O37 Cd36 2.317 . S
O37 C38 1.232 . S
C38 O37 1.232 . S
C38 O39 1.218 . S
O39 C38 1.218 . S
C40 O33 1.275 . S
C40 O35 1.255 . S
C41 O42 1.258 . S
C41 O43 1.256 . S
O42 Cd34 2.381 . S
O42 C41 1.258 . S
O43 Cd34 2.378 . S
O43 C41 1.256 . S
O44 Cd45 2.300 . S
O44 C51 1.275 . S
Cd45 O44 2.300 . S
Cd45 O53 2.381 . S
Cd45 O54 2.378 . S
O46 Cd47 2.385 . S
O46 C51 1.255 . S
Cd47 O46 2.385 . S
Cd47 O48 2.317 1_554 S
O48 Cd47 2.317 1_556 S
O48 C49 1.232 . S
C49 O48 1.232 . S
C49 O50 1.218 . S
O50 C49 1.218 . S
C51 O44 1.275 . S
C51 O46 1.255 . S
C52 O53 1.258 . S
C52 O54 1.256 . S
O53 Cd45 2.381 . S
O53 C52 1.258 . S
O54 Cd45 2.378 . S
O54 C52 1.256 . S
O55 Cd56 2.300 . S
O55 C62 1.275 . S
Cd56 O55 2.300 . S
Cd56 O64 2.381 . S
Cd56 O65 2.378 . S
O57 Cd58 2.385 . S
O57 C62 1.255 . S
Cd58 O57 2.385 . S
Cd58 O59 2.317 1_554 S
O59 Cd58 2.317 1_556 S
O59 C60 1.232 . S
C60 O59 1.232 . S
C60 O61 1.218 . S
O61 C60 1.218 . S
C62 O55 1.275 . S
C62 O57 1.255 . S
C63 O64 1.258 . S
C63 O65 1.256 . S
O64 Cd56 2.381 . S
O64 C63 1.258 . S
O65 Cd56 2.378 . S
O65 C63 1.256 . S
O66 Cd67 2.300 . S
O66 C73 1.275 . S
Cd67 O66 2.300 . S
Cd67 O75 2.381 . S
Cd67 O76 2.378 . S
O68 Cd69 2.385 1_554 S
O68 C73 1.255 . S
Cd69 O68 2.385 1_556 S
Cd69 O70 2.317 . S
O70 Cd69 2.317 . S
O70 C71 1.232 . S
C71 O70 1.232 . S
C71 O72 1.218 . S
O72 C71 1.218 . S
C73 O66 1.275 . S
C73 O68 1.255 . S
C74 O75 1.258 . S
C74 O76 1.256 . S
O75 Cd67 2.381 . S
O75 C74 1.258 . S
O76 Cd67 2.378 . S
O76 C74 1.256 . S
O77 Cd78 2.300 . S
O77 C84 1.275 . S
Cd78 O77 2.300 . S
Cd78 O86 2.381 . S
Cd78 O87 2.378 . S
O79 Cd80 2.385 . S
O79 C84 1.255 . S
Cd80 O79 2.385 . S
Cd80 O81 2.317 1_554 S
O81 Cd80 2.317 1_556 S
O81 C82 1.232 . S
C82 O81 1.232 . S
C82 O83 1.218 . S
O83 C82 1.218 . S
C84 O77 1.275 . S
C84 O79 1.255 . S
C85 O86 1.258 . S
C85 O87 1.256 . S
O86 Cd78 2.381 . S
O86 C85 1.258 . S
O87 Cd78 2.378 . S
O87 C85 1.256 . S
Eu88 C97 2.828 . S
Eu88 O99 2.392 . S
Eu88 O101 2.418 1_545 S
Eu88 O106 2.373 1_655 S
Eu88 O109 2.488 . S
Eu88 O110 2.482 . S
Eu88 O111 2.349 1_655 S
Eu89 O98 2.373 1_455 S
Eu89 O102 2.488 . S
Eu89 O103 2.471 . S
Eu89 O104 2.349 . S
Eu89 O107 2.392 1_565 S
Eu89 O108 2.418 1_565 S
Eu89 C118 2.828 . S
C90 O108 1.244 . S
C90 O111 1.265 . S
C91 C92 1.379 1_655 S
C91 C95 1.373 . S
C91 C97 1.505 . S
C92 C91 1.379 1_455 S
C92 C94 1.369 . S
C92 H120 0.930 . S
C93 C95 1.383 . S
C93 C96 1.382 1_655 S
C93 H121 0.930 . S
C94 C92 1.369 . S
C94 C96 1.392 . S
C94 H122 0.930 . S
C95 C91 1.373 . S
C95 C93 1.383 . S
C95 H123 0.931 . S
C96 C93 1.382 1_455 S
C96 C94 1.392 . S
C97 Eu88 2.828 . S
C97 C91 1.505 . S
C97 O109 1.249 . S
C97 O110 1.252 . S
O98 Eu89 2.373 1_655 S
O98 C100 1.258 1_565 S
O99 Eu88 2.392 . S
O99 C100 1.242 . S
C100 O98 1.258 1_545 S
C100 O99 1.242 . S
O101 Eu88 2.418 1_565 S
O101 C105 1.244 . S
O102 Eu89 2.488 . S
O102 C118 1.249 . S
O103 Eu89 2.471 . S
O103 C118 1.244 . S
O104 Eu89 2.349 . S
O104 C105 1.265 1_455 S
C105 O101 1.244 . S
C105 O104 1.265 1_655 S
O106 Eu88 2.373 1_455 S
O106 C119 1.258 . S
O107 Eu89 2.392 1_545 S
O107 C119 1.242 . S
O108 Eu89 2.418 1_545 S
O108 C90 1.244 . S
O109 Eu88 2.488 . S
O109 C97 1.249 . S
O110 Eu88 2.482 . S
O110 C97 1.252 . S
O111 Eu88 2.349 1_455 S
O111 C90 1.265 . S
C112 C113 1.379 . S
C112 C116 1.373 . S
C112 C118 1.505 . S
C113 C112 1.379 . S
C113 C115 1.360 1_455 S
C113 H124 0.930 1_455 S
C114 C116 1.383 1_554 S
C114 C117 1.382 . S
C114 H125 0.930 . S
C115 C113 1.360 1_655 S
C115 C117 1.375 1_656 S
C115 H126 0.959 . S
C116 C112 1.373 . S
C116 C114 1.383 1_556 S
C116 H127 0.931 . S
C117 C114 1.382 . S
C117 C115 1.375 1_454 S
C118 Eu89 2.828 . S
C118 O102 1.249 . S
C118 O103 1.244 . S
C118 C112 1.505 . S
C119 O106 1.258 . S
C119 O107 1.242 . S
H120 C92 0.930 . S
H121 C93 0.930 . S
H122 C94 0.930 . S
H123 C95 0.931 . S
H124 C113 0.930 1_655 S
H125 C114 0.930 . S
H126 C115 0.959 . S
H127 C116 0.931 . S
Eu128 C137 2.828 . S
Eu128 O139 2.392 . S
Eu128 O141 2.418 . S
Eu128 O146 2.373 . S
Eu128 O149 2.488 . S
Eu128 O150 2.471 . S
Eu128 O151 2.349 1_545 S
Eu129 O138 2.373 1_565 S
Eu129 O142 2.488 . S
Eu129 O143 2.471 1_565 S
Eu129 O144 2.349 1_565 S
Eu129 O147 2.392 . S
Eu129 O148 2.418 . S
Eu129 C158 2.828 . S
C130 O148 1.244 . S
C130 O151 1.265 . S
C131 C132 1.379 . S
C131 C135 1.373 . S
C131 C137 1.505 . S
C132 C131 1.379 . S
C132 C134 1.373 . S
C132 H160 0.930 1_545 S
C133 C135 1.383 . S
C133 C136 1.382 . S
C133 H161 0.930 . S
C134 C132 1.373 . S
C134 C136 1.430 . S
C134 H162 0.888 1_545 S
C135 C131 1.373 . S
C135 C133 1.383 . S
C135 H163 0.931 . S
C136 C133 1.382 . S
C136 C134 1.430 . S
C137 Eu128 2.828 . S
C137 C131 1.505 . S
C137 O149 1.249 . S
C137 O150 1.244 . S
O138 Eu129 2.373 1_545 S
O138 C140 1.258 . S
O139 Eu128 2.392 . S
O139 C140 1.242 . S
C140 O138 1.258 . S
C140 O139 1.242 . S
O141 Eu128 2.418 . S
O141 C145 1.244 . S
O142 Eu129 2.488 . S
O142 C158 1.249 . S
O143 Eu129 2.471 1_545 S
O143 C158 1.244 1_545 S
O144 Eu129 2.349 1_545 S
O144 C145 1.265 . S
C145 O141 1.244 . S
C145 O144 1.265 . S
O146 Eu128 2.373 . S
O146 C159 1.258 1_545 S
O147 Eu129 2.392 . S
O147 C159 1.242 . S
O148 Eu129 2.418 . S
O148 C130 1.244 . S
O149 Eu128 2.488 . S
O149 C137 1.249 . S
O150 Eu128 2.471 . S
O150 C137 1.244 . S
O151 Eu128 2.349 1_565 S
O151 C130 1.265 . S
C152 C153 1.379 1_565 S
C152 C156 1.373 . S
C152 C158 1.505 . S
C153 C152 1.379 1_545 S
C153 C155 1.369 . S
C153 H164 0.930 . S
C154 C156 1.383 . S
C154 C157 1.379 . S
C154 H165 0.930 . S
C155 C153 1.369 . S
C155 C157 1.395 1_545 S
C155 H166 0.930 . S
C156 C152 1.373 . S
C156 C154 1.383 . S
C156 H167 0.931 . S
C157 C154 1.379 . S
C157 C155 1.395 1_565 S
C158 Eu129 2.828 . S
C158 O142 1.249 . S
C158 O143 1.244 1_565 S
C158 C152 1.505 . S
C159 O146 1.258 1_565 S
C159 O147 1.242 . S
H160 C132 0.930 1_565 S
H161 C133 0.930 . S
H162 C134 0.888 1_565 S
H163 C135 0.931 . S
H164 C153 0.930 . S
H165 C154 0.930 . S
H166 C155 0.930 . S
H167 C156 0.931 . S
Eu168 C177 2.828 . S
Eu168 O179 2.392 . S
Eu168 O181 2.418 . S
Eu168 O186 2.373 . S
Eu168 O189 2.488 . S
Eu168 O190 2.471 . S
Eu168 O191 2.349 . S
Eu169 O178 2.373 . S
Eu169 O182 2.488 . S
Eu169 O183 2.471 . S
Eu169 O184 2.349 . S
Eu169 O187 2.392 . S
Eu169 O188 2.418 . S
Eu169 C198 2.828 . S
C170 O188 1.244 . S
C170 O191 1.265 . S
C171 C172 1.379 . S
C171 C175 1.373 . S
C171 C177 1.505 . S
C172 C171 1.379 . S
C172 C174 1.369 . S
C172 H200 0.930 . S
C173 C175 1.383 . S
C173 C176 1.382 . S
C173 H201 0.930 . S
C174 C172 1.369 . S
C174 C176 1.392 . S
C174 H202 0.930 . S
C175 C171 1.373 . S
C175 C173 1.383 . S
C175 H203 0.931 . S
C176 C173 1.382 . S
C176 C174 1.392 . S
C177 Eu168 2.828 . S
C177 C171 1.505 . S
C177 O189 1.249 . S
C177 O190 1.244 . S
O178 Eu169 2.373 . S
O178 C180 1.258 . S
O179 Eu168 2.392 . S
O179 C180 1.242 . S
C180 O178 1.258 . S
C180 O179 1.242 . S
O181 Eu168 2.418 . S
O181 C185 1.244 . S
O182 Eu169 2.488 . S
O182 C198 1.249 . S
O183 Eu169 2.471 . S
O183 C198 1.244 . S
O184 Eu169 2.349 . S
O184 C185 1.265 . S
C185 O181 1.244 . S
C185 O184 1.265 . S
O186 Eu168 2.373 . S
O186 C199 1.258 . S
O187 Eu169 2.392 . S
O187 C199 1.242 . S
O188 Eu169 2.418 . S
O188 C170 1.244 . S
O189 Eu168 2.488 . S
O189 C177 1.249 . S
O190 Eu168 2.471 . S
O190 C177 1.244 . S
O191 Eu168 2.349 . S
O191 C170 1.265 . S
C192 C193 1.379 . S
C192 C196 1.373 . S
C192 C198 1.505 . S
C193 C192 1.379 . S
C193 C195 1.369 . S
C193 H204 0.930 . S
C194 C196 1.383 . S
C194 C197 1.382 . S
C194 H205 0.930 . S
C195 C193 1.369 . S
C195 C197 1.392 . S
C195 H206 0.930 . S
C196 C192 1.373 . S
C196 C194 1.383 . S
C196 H207 0.931 . S
C197 C194 1.382 . S
C197 C195 1.392 . S
C198 Eu169 2.828 . S
C198 O182 1.249 . S
C198 O183 1.244 . S
C198 C192 1.505 . S
C199 O186 1.258 . S
C199 O187 1.242 . S
H200 C172 0.930 . S
H201 C173 0.930 . S
H202 C174 0.930 . S
H203 C175 0.931 . S
H204 C193 0.930 . S
H205 C194 0.930 . S
H206 C195 0.930 . S
H207 C196 0.931 . S
Eu208 C217 2.828 . S
Eu208 O219 2.392 . S
Eu208 O221 2.418 1_455 S
Eu208 O226 2.373 . S
Eu208 O229 2.488 . S
Eu208 O230 2.471 . S
Eu208 O231 2.349 . S
Eu209 O218 2.373 . S
Eu209 O222 2.488 . S
Eu209 O223 2.471 . S
Eu209 O224 2.349 . S
Eu209 O227 2.392 1_655 S
Eu209 O228 2.418 1_655 S
Eu209 C238 2.828 . S
C210 O228 1.244 . S
C210 O231 1.265 . S
C211 C212 1.379 . S
C211 C215 1.373 . S
C211 C217 1.505 . S
C212 C211 1.379 . S
C212 C214 1.369 . S
C212 H240 0.930 . S
C213 C215 1.383 . S
C213 C216 1.382 . S
C213 H241 0.930 . S
C214 C212 1.369 . S
C214 C216 1.392 . S
C214 H242 0.930 . S
C215 C211 1.373 . S
C215 C213 1.383 . S
C215 H243 0.931 . S
C216 C213 1.382 . S
C216 C214 1.392 . S
C217 Eu208 2.828 . S
C217 C211 1.505 . S
C217 O229 1.249 . S
C217 O230 1.244 . S
O218 Eu209 2.373 . S
O218 C220 1.252 1_655 S
O219 Eu208 2.392 . S
O219 C220 1.255 . S
C220 O218 1.252 1_455 S
C220 O219 1.255 . S
O221 Eu208 2.418 1_655 S
O221 C225 1.244 . S
O222 Eu209 2.488 . S
O222 C238 1.249 . S
O223 Eu209 2.471 . S
O223 C238 1.244 . S
O224 Eu209 2.349 . S
O224 C225 1.265 . S
C225 O221 1.244 . S
C225 O224 1.265 . S
O226 Eu208 2.373 . S
O226 C239 1.258 . S
O227 Eu209 2.392 1_455 S
O227 C239 1.242 . S
O228 Eu209 2.418 1_455 S
O228 C210 1.244 . S
O229 Eu208 2.488 . S
O229 C217 1.249 . S
O230 Eu208 2.471 . S
O230 C217 1.244 . S
O231 Eu208 2.349 . S
O231 C210 1.265 . S
C232 C233 1.379 . S
C232 C236 1.373 . S
C232 C238 1.505 . S
C233 C232 1.379 . S
C233 C235 1.369 . S
C233 H244 0.930 . S
C234 C236 1.383 1_554 S
C234 C237 1.382 1_554 S
C234 H245 0.930 . S
C235 C233 1.369 . S
C235 C237 1.392 . S
C235 H246 0.930 . S
C236 C232 1.373 . S
C236 C234 1.383 1_556 S
C236 H247 0.931 . S
C237 C234 1.382 1_556 S
C237 C235 1.392 . S
C238 Eu209 2.828 . S
C238 O222 1.249 . S
C238 O223 1.244 . S
C238 C232 1.505 . S
C239 O226 1.258 . S
C239 O227 1.242 . S
H240 C212 0.930 . S
H241 C213 0.930 . S
H242 C214 0.930 . S
H243 C215 0.931 . S
H244 C233 0.930 . S
H245 C234 0.930 . S
H246 C235 0.930 . S
H247 C236 0.931 . S
H248 C256 0.950 . S
H249 C261 0.950 . S
H250 C258 0.950 . S
H251 C260 0.950 . S
H252 C262 0.950 . S
H253 C264 0.950 . S
H254 C266 0.950 . S
H255 C267 0.950 . S
C256 H248 0.950 . S
C256 C257 1.386 . S
C256 C258 1.391 . S
C257 C256 1.386 . S
C257 C261 1.393 . S
C258 H250 0.950 . S
C258 C256 1.391 . S
C258 C259 1.400 . S
C259 C258 1.400 . S
C259 C260 1.398 . S
C259 C265 1.491 . S
C260 H251 0.950 . S
C260 C259 1.398 . S
C260 C261 1.391 . S
C261 H249 0.950 . S
C261 C257 1.393 . S
C261 C260 1.391 . S
C262 H252 0.950 . S
C262 C263 1.386 . S
C262 C264 1.391 . S
C263 C262 1.386 . S
C263 C267 1.393 . S
C264 H253 0.950 . S
C264 C262 1.391 . S
C264 C265 1.400 . S
C265 C259 1.491 . S
C265 C264 1.400 . S
C265 C266 1.398 . S
C266 H254 0.950 . S
C266 C265 1.398 . S
C266 C267 1.391 . S
C267 H255 0.950 . S
C267 C263 1.393 . S
C267 C266 1.391 . S
H268 C276 0.950 . S
H269 C281 0.950 . S
H270 C278 0.950 . S
H271 C280 0.950 . S
H272 C282 0.950 . S
H273 C284 0.950 . S
H274 C286 0.950 . S
H275 C287 0.950 . S
C276 H268 0.950 . S
C276 C277 1.386 . S
C276 C278 1.391 . S
C277 C276 1.386 . S
C277 C281 1.393 . S
C278 H270 0.950 . S
C278 C276 1.391 . S
C278 C279 1.400 . S
C279 C278 1.400 . S
C279 C280 1.398 . S
C279 C285 1.491 . S
C280 H271 0.950 . S
C280 C279 1.398 . S
C280 C281 1.391 . S
C281 H269 0.950 . S
C281 C277 1.393 . S
C281 C280 1.391 . S
C282 H272 0.950 . S
C282 C283 1.386 . S
C282 C284 1.391 . S
C283 C282 1.386 . S
C283 C287 1.393 . S
C284 H273 0.950 . S
C284 C282 1.391 . S
C284 C285 1.400 . S
C285 C279 1.491 . S
C285 C284 1.400 . S
C285 C286 1.398 . S
C286 H274 0.950 . S
C286 C285 1.398 . S
C286 C287 1.391 . S
C287 H275 0.950 . S
C287 C283 1.393 . S
C287 C286 1.391 . S
H288 C296 0.950 . S
H289 C301 0.950 . S
H290 C298 0.950 . S
H291 C300 0.950 . S
H292 C302 0.950 . S
H293 C304 0.950 . S
H294 C306 0.950 . S
H295 C307 0.950 . S
C296 H288 0.950 . S
C296 C297 1.386 . S
C296 C298 1.391 . S
C297 C296 1.386 . S
C297 C301 1.393 . S
C298 H290 0.950 . S
C298 C296 1.391 . S
C298 C299 1.400 . S
C299 C298 1.400 . S
C299 C300 1.398 . S
C299 C305 1.491 . S
C300 H291 0.950 . S
C300 C299 1.398 . S
C300 C301 1.391 . S
C301 H289 0.950 . S
C301 C297 1.393 . S
C301 C300 1.391 . S
C302 H292 0.950 . S
C302 C303 1.386 . S
C302 C304 1.391 . S
C303 C302 1.386 . S
C303 C307 1.393 . S
C304 H293 0.950 . S
C304 C302 1.391 . S
C304 C305 1.400 . S
C305 C299 1.491 . S
C305 C304 1.400 . S
C305 C306 1.398 . S
C306 H294 0.950 . S
C306 C305 1.398 . S
C306 C307 1.391 . S
C307 H295 0.950 . S
C307 C303 1.393 . S
C307 C306 1.391 . S
H308 C316 0.950 . S
H309 C321 0.950 . S
H310 C318 0.950 . S
H311 C320 0.950 . S
H312 C322 0.950 . S
H313 C324 0.950 . S
H314 C326 0.950 . S
H315 C327 0.950 . S
C316 H308 0.950 . S
C316 C317 1.386 . S
C316 C318 1.391 . S
C317 C316 1.386 . S
C317 C321 1.393 . S
C318 H310 0.950 . S
C318 C316 1.391 . S
C318 C319 1.400 . S
C319 C318 1.400 . S
C319 C320 1.398 . S
C319 C325 1.491 . S
C320 H311 0.950 . S
C320 C319 1.398 . S
C320 C321 1.391 . S
C321 H309 0.950 . S
C321 C317 1.393 . S
C321 C320 1.391 . S
C322 H312 0.950 . S
C322 C323 1.386 . S
C322 C324 1.391 . S
C323 C322 1.386 . S
C323 C327 1.393 . S
C324 H313 0.950 . S
C324 C322 1.391 . S
C324 C325 1.400 . S
C325 C319 1.491 . S
C325 C324 1.400 . S
C325 C326 1.398 . S
C326 H314 0.950 . S
C326 C325 1.398 . S
C326 C327 1.391 . S
C327 H315 0.950 . S
C327 C323 1.393 . S
C327 C326 1.391 . S
H328 C336 0.950 . S
H329 C341 0.948 1_545 S
H330 C338 0.950 . S
H331 C340 0.950 . S
H332 C342 0.950 . S
H333 C344 0.950 . S
H334 C346 0.950 . S
H335 C347 0.950 . S
C336 H328 0.950 . S
C336 C337 1.386 . S
C336 C338 1.391 . S
C337 C336 1.386 . S
C337 C341 1.394 . S
C338 H330 0.950 . S
C338 C336 1.391 . S
C338 C339 1.400 . S
C339 C338 1.400 . S
C339 C340 1.398 1_565 S
C339 C345 1.491 1_554 S
C340 H331 0.950 . S
C340 C339 1.398 1_545 S
C340 C341 1.390 1_545 S
C341 H329 0.948 1_565 S
C341 C337 1.394 . S
C341 C340 1.390 1_565 S
C342 H332 0.950 . S
C342 C343 1.386 1_545 S
C342 C344 1.391 . S
C343 C342 1.386 1_565 S
C343 C347 1.393 . S
C344 H333 0.950 . S
C344 C342 1.391 . S
C344 C345 1.400 1_545 S
C345 C339 1.491 1_556 S
C345 C344 1.400 1_565 S
C345 C346 1.398 . S
C346 H334 0.950 . S
C346 C345 1.398 . S
C346 C347 1.391 . S
C347 H335 0.950 . S
C347 C343 1.393 . S
C347 C346 1.391 . S
H348 C356 0.950 . S
H349 C361 0.950 . S
H350 C358 0.950 . S
H351 C360 0.950 . S
H352 C362 0.950 . S
H353 C364 0.950 . S
H354 C366 0.950 . S
H355 C367 0.950 . S
C356 H348 0.950 . S
C356 C357 1.386 . S
C356 C358 1.391 1_554 S
C357 C356 1.386 . S
C357 C361 1.393 . S
C358 H350 0.950 . S
C358 C356 1.391 1_556 S
C358 C359 1.400 . S
C359 C358 1.400 . S
C359 C360 1.398 1_556 S
C359 C365 1.491 . S
C360 H351 0.950 . S
C360 C359 1.398 1_554 S
C360 C361 1.391 . S
C361 H349 0.950 . S
C361 C357 1.393 . S
C361 C360 1.391 . S
C362 H352 0.950 . S
C362 C363 1.386 . S
C362 C364 1.391 . S
C363 C362 1.386 . S
C363 C367 1.393 . S
C364 H353 0.950 . S
C364 C362 1.391 . S
C364 C365 1.400 . S
C365 C359 1.491 . S
C365 C364 1.400 . S
C365 C366 1.398 . S
C366 H354 0.950 . S
C366 C365 1.398 . S
C366 C367 1.391 . S
C367 H355 0.950 . S
C367 C363 1.393 . S
C367 C366 1.391 . S
H368 C376 0.950 . S
H369 C381 0.950 . S
H370 C378 0.950 . S
H371 C380 0.950 . S
H372 C382 0.950 . S
H373 C384 0.950 . S
H374 C386 0.950 . S
H375 C387 0.950 . S
C376 H368 0.950 . S
C376 C377 1.386 . S
C376 C378 1.391 . S
C377 C376 1.386 . S
C377 C381 1.393 . S
C378 H370 0.950 . S
C378 C376 1.391 . S
C378 C379 1.400 1_554 S
C379 C378 1.400 1_556 S
C379 C380 1.398 . S
C379 C385 1.491 . S
C380 H371 0.950 . S
C380 C379 1.398 . S
C380 C381 1.391 1_556 S
C381 H369 0.950 . S
C381 C377 1.393 . S
C381 C380 1.391 1_554 S
C382 H372 0.950 . S
C382 C383 1.386 . S
C382 C384 1.391 . S
C383 C382 1.386 . S
C383 C387 1.393 . S
C384 H373 0.950 . S
C384 C382 1.391 . S
C384 C385 1.400 . S
C385 C379 1.491 . S
C385 C384 1.400 . S
C385 C386 1.398 . S
C386 H374 0.950 . S
C386 C385 1.398 . S
C386 C387 1.391 . S
C387 H375 0.950 . S
C387 C383 1.393 . S
C387 C386 1.391 . S
H388 C396 0.950 . S
H389 C401 0.950 . S
H390 C398 0.950 1_556 S
H391 C400 0.950 . S
H392 C402 0.950 . S
H393 C404 0.950 . S
H394 C406 0.950 . S
H395 C407 0.944 1_455 S
C396 H388 0.950 . S
C396 C397 1.386 . S
C396 C398 1.391 . S
C397 C396 1.386 . S
C397 C401 1.393 . S
C398 H390 0.950 1_554 S
C398 C396 1.391 . S
C398 C399 1.400 . S
C399 C398 1.400 . S
C399 C400 1.398 . S
C399 C405 1.491 1_554 S
C400 H391 0.950 . S
C400 C399 1.398 . S
C400 C401 1.391 . S
C401 H389 0.950 . S
C401 C397 1.393 . S
C401 C400 1.391 . S
C402 H392 0.950 . S
C402 C403 1.386 . S
C402 C404 1.391 . S
C403 C402 1.386 . S
C403 C407 1.393 . S
C404 H393 0.950 . S
C404 C402 1.391 . S
C404 C405 1.400 . S
C405 C399 1.491 1_556 S
C405 C404 1.400 . S
C405 C406 1.398 . S
C406 H394 0.950 . S
C406 C405 1.398 . S
C406 C407 1.391 . S
C407 H395 0.944 1_655 S
C407 C403 1.393 . S
C407 C406 1.391 . S
H408 C416 0.950 . S
H409 C421 0.950 . S
H410 C418 0.950 . S
H411 C420 0.950 . S
H412 C422 0.950 . S
H413 C424 0.950 . S
H414 C426 0.950 . S
H415 C427 0.950 1_655 S
C416 H408 0.950 . S
C416 C417 1.386 . S
C416 C418 1.391 . S
C417 C416 1.386 . S
C417 C421 1.393 . S
C418 H410 0.950 . S
C418 C416 1.391 . S
C418 C419 1.400 . S
C419 C418 1.400 . S
C419 C420 1.398 . S
C419 C425 1.491 . S
C420 H411 0.950 . S
C420 C419 1.398 . S
C420 C421 1.391 . S
C421 H409 0.950 . S
C421 C417 1.393 . S
C421 C420 1.391 . S
C422 H412 0.950 . S
C422 C423 1.386 . S
C422 C424 1.391 . S
C423 C422 1.386 . S
C423 C427 1.393 . S
C424 H413 0.950 . S
C424 C422 1.391 . S
C424 C425 1.400 . S
C425 C419 1.491 . S
C425 C424 1.400 . S
C425 C426 1.398 . S
C426 H414 0.950 . S
C426 C425 1.398 . S
C426 C427 1.391 . S
C427 H415 0.950 1_455 S
C427 C423 1.393 . S
C427 C426 1.391 . S
H428 C436 0.950 . S
H429 C441 0.950 . S
H430 C438 0.950 1_565 S
H431 C440 0.950 . S
H432 C442 0.950 . S
H433 C444 0.950 . S
H434 C446 0.950 . S
H435 C447 0.950 . S
C436 H428 0.950 . S
C436 C437 1.386 . S
C436 C438 1.391 . S
C437 C436 1.386 . S
C437 C441 1.393 . S
C438 H430 0.950 1_545 S
C438 C436 1.391 . S
C438 C439 1.400 . S
C439 C438 1.400 . S
C439 C440 1.398 . S
C439 C445 1.491 . S
C440 H431 0.950 . S
C440 C439 1.398 . S
C440 C441 1.391 . S
C441 H429 0.950 . S
C441 C437 1.393 . S
C441 C440 1.391 . S
C442 H432 0.950 . S
C442 C443 1.386 . S
C442 C444 1.391 . S
C443 C442 1.386 . S
C443 C447 1.393 1_545 S
C444 H433 0.950 . S
C444 C442 1.391 . S
C444 C445 1.400 . S
C445 C439 1.491 . S
C445 C444 1.400 . S
C445 C446 1.398 1_545 S
C446 H434 0.950 . S
C446 C445 1.398 1_565 S
C446 C447 1.391 . S
C447 H435 0.950 . S
C447 C443 1.393 1_565 S
C447 C446 1.391 . S
H448 C456 0.950 . S
H449 C461 0.950 . S
H450 C458 0.950 . S
H451 C460 0.950 . S
H452 C462 0.950 . S
H453 C464 0.950 . S
H454 C466 0.950 . S
H455 C467 0.950 . S
C456 H448 0.950 . S
C456 C457 1.386 . S
C456 C458 1.391 . S
C457 C456 1.386 . S
C457 C461 1.393 . S
C458 H450 0.950 . S
C458 C456 1.391 . S
C458 C459 1.400 . S
C459 C458 1.400 . S
C459 C460 1.398 . S
C459 C465 1.491 . S
C460 H451 0.950 . S
C460 C459 1.398 . S
C460 C461 1.391 . S
C461 H449 0.950 . S
C461 C457 1.393 . S
C461 C460 1.391 . S
C462 H452 0.950 . S
C462 C463 1.386 . S
C462 C464 1.391 . S
C463 C462 1.386 . S
C463 C467 1.393 . S
C464 H453 0.950 . S
C464 C462 1.391 . S
C464 C465 1.400 . S
C465 C459 1.491 . S
C465 C464 1.400 . S
C465 C466 1.398 . S
C466 H454 0.950 . S
C466 C465 1.398 . S
C466 C467 1.391 . S
C467 H455 0.950 . S
C467 C463 1.393 . S
C467 C466 1.391 . S
H468 C476 0.950 . S
H469 C481 0.950 . S
H470 C478 0.950 . S
H471 C480 0.950 . S
H472 C482 0.950 . S
H473 C484 0.950 . S
H474 C486 0.950 . S
H475 C487 0.950 . S
C476 H468 0.950 . S
C476 C477 1.386 . S
C476 C478 1.391 . S
C477 C476 1.386 . S
C477 C481 1.393 . S
C478 H470 0.950 . S
C478 C476 1.391 . S
C478 C479 1.400 . S
C479 C478 1.400 . S
C479 C480 1.398 . S
C479 C485 1.491 . S
C480 H471 0.950 . S
C480 C479 1.398 . S
C480 C481 1.391 . S
C481 H469 0.950 . S
C481 C477 1.393 . S
C481 C480 1.391 . S
C482 H472 0.950 . S
C482 C483 1.386 . S
C482 C484 1.391 . S
C483 C482 1.386 . S
C483 C487 1.393 . S
C484 H473 0.950 . S
C484 C482 1.391 . S
C484 C485 1.400 . S
C485 C479 1.491 . S
C485 C484 1.400 . S
C485 C486 1.398 . S
C486 H474 0.950 . S
C486 C485 1.398 . S
C486 C487 1.391 . S
C487 H475 0.950 . S
C487 C483 1.393 . S
C487 C486 1.391 . S
H488 C496 0.950 . S
H489 C501 0.950 . S
H490 C498 0.950 . S
H491 C500 0.950 1_455 S
H492 C502 0.950 . S
H493 C504 0.950 . S
H494 C506 0.950 . S
H495 C507 0.950 1_556 S
C496 H488 0.950 . S
C496 C497 1.386 . S
C496 C498 1.391 . S
C497 C496 1.386 . S
C497 C501 1.393 . S
C498 H490 0.950 . S
C498 C496 1.391 . S
C498 C499 1.400 . S
C499 C498 1.400 . S
C499 C500 1.398 . S
C499 C505 1.491 . S
C500 H491 0.950 1_655 S
C500 C499 1.398 . S
C500 C501 1.391 . S
C501 H489 0.950 . S
C501 C497 1.393 . S
C501 C500 1.391 . S
C502 H492 0.950 . S
C502 C503 1.386 . S
C502 C504 1.391 . S
C503 C502 1.386 . S
C503 C507 1.393 1_455 S
C504 H493 0.950 . S
C504 C502 1.391 . S
C504 C505 1.400 1_455 S
C505 C499 1.491 . S
C505 C504 1.400 1_655 S
C505 C506 1.398 . S
C506 H494 0.950 . S
C506 C505 1.398 . S
C506 C507 1.391 . S
C507 H495 0.950 1_554 S
C507 C503 1.393 1_655 S
C507 C506 1.391 . S
H508 C516 0.950 . S
H509 C521 0.950 . S
H510 C518 0.950 . S
H511 C520 0.950 1_545 S
H512 C522 0.950 . S
H513 C524 0.950 . S
H514 C526 0.950 . S
H515 C527 0.950 1_554 S
C516 H508 0.950 . S
C516 C517 1.386 . S
C516 C518 1.391 . S
C517 C516 1.386 . S
C517 C521 1.393 . S
C518 H510 0.950 . S
C518 C516 1.391 . S
C518 C519 1.400 . S
C519 C518 1.400 . S
C519 C520 1.398 . S
C519 C525 1.477 1_565 S
C520 H511 0.950 1_565 S
C520 C519 1.398 . S
C520 C521 1.391 . S
C521 H509 0.950 . S
C521 C517 1.393 . S
C521 C520 1.391 . S
C522 H512 0.950 . S
C522 C523 1.386 . S
C522 C524 1.391 . S
C523 C522 1.386 . S
C523 C527 1.393 . S
C524 H513 0.950 . S
C524 C522 1.391 . S
C524 C525 1.422 1_556 S
C525 C519 1.477 1_545 S
C525 C524 1.422 1_554 S
C525 C526 1.392 1_545 S
C526 H514 0.950 . S
C526 C525 1.392 1_565 S
C526 C527 1.391 1_564 S
C527 H515 0.950 1_556 S
C527 C523 1.393 . S
C527 C526 1.391 1_546 S
H528 C536 0.950 . S
H529 C541 0.950 . S
H530 C538 0.950 . S
H531 C540 0.950 . S
H532 C542 0.950 . S
H533 C544 0.950 . S
H534 C546 0.950 . S
H535 C547 0.950 . S
C536 H528 0.950 . S
C536 C537 1.386 . S
C536 C538 1.391 . S
C537 C536 1.386 . S
C537 C541 1.393 . S
C538 H530 0.950 . S
C538 C536 1.391 . S
C538 C539 1.400 . S
C539 C538 1.400 . S
C539 C540 1.398 . S
C539 C545 1.491 . S
C540 H531 0.950 . S
C540 C539 1.398 . S
C540 C541 1.391 . S
C541 H529 0.950 . S
C541 C537 1.393 . S
C541 C540 1.391 . S
C542 H532 0.950 . S
C542 C543 1.386 . S
C542 C544 1.391 . S
C543 C542 1.386 . S
C543 C547 1.393 . S
C544 H533 0.950 . S
C544 C542 1.391 . S
C544 C545 1.400 1_556 S
C545 C539 1.491 . S
C545 C544 1.400 1_554 S
C545 C546 1.398 . S
C546 H534 0.950 . S
C546 C545 1.398 . S
C546 C547 1.391 1_554 S
C547 H535 0.950 . S
C547 C543 1.393 . S
C547 C546 1.391 1_556 S
H548 C556 0.950 . S
H549 C561 0.950 . S
H550 C558 0.950 . S
H551 C560 0.950 . S
H552 C562 0.950 . S
H553 C564 0.950 1_556 S
H554 C566 0.950 . S
H555 C567 0.950 . S
C556 H548 0.950 . S
C556 C557 1.386 . S
C556 C558 1.391 . S
C557 C556 1.386 . S
C557 C561 1.393 . S
C558 H550 0.950 . S
C558 C556 1.391 . S
C558 C559 1.400 . S
C559 C558 1.400 . S
C559 C560 1.398 . S
C559 C565 1.491 . S
C560 H551 0.950 . S
C560 C559 1.398 . S
C560 C561 1.391 . S
C561 H549 0.950 . S
C561 C557 1.393 . S
C561 C560 1.391 . S
C562 H552 0.950 . S
C562 C563 1.386 1_556 S
C562 C564 1.391 1_556 S
C563 C562 1.386 1_554 S
C563 C567 1.393 . S
C564 H553 0.950 1_554 S
C564 C562 1.391 1_554 S
C564 C565 1.400 . S
C565 C559 1.491 . S
C565 C564 1.400 . S
C565 C566 1.398 . S
C566 H554 0.950 . S
C566 C565 1.398 . S
C566 C567 1.391 . S
C567 H555 0.950 . S
C567 C563 1.393 . S
C567 C566 1.391 . S
H568 C576 0.950 . S
H569 C581 0.950 . S
H570 C578 0.950 . S
H571 C580 0.950 . S
H572 C582 0.950 . S
H573 C584 0.950 . S
H574 C586 0.950 . S
H575 C587 0.950 . S
C576 H568 0.950 . S
C576 C577 1.386 . S
C576 C578 1.391 . S
C577 C576 1.386 . S
C577 C581 1.393 . S
C578 H570 0.950 . S
C578 C576 1.391 . S
C578 C579 1.400 . S
C579 C578 1.400 . S
C579 C580 1.398 . S
C579 C585 1.491 . S
C580 H571 0.950 . S
C580 C579 1.398 . S
C580 C581 1.391 . S
C581 H569 0.950 . S
C581 C577 1.393 . S
C581 C580 1.391 . S
C582 H572 0.950 . S
C582 C583 1.386 . S
C582 C584 1.391 . S
C583 C582 1.386 . S
C583 C587 1.393 . S
C584 H573 0.950 . S
C584 C582 1.391 . S
C584 C585 1.400 . S
C585 C579 1.491 . S
C585 C584 1.400 . S
C585 C586 1.398 . S
C586 H574 0.950 . S
C586 C585 1.398 . S
C586 C587 1.391 . S
C587 H575 0.950 . S
C587 C583 1.393 . S
C587 C586 1.391 . S
H588 C596 0.950 . S
H589 C601 0.950 . S
H590 C598 0.950 . S
H591 C600 0.950 . S
H592 C602 0.950 . S
H593 C604 0.950 . S
H594 C606 0.950 . S
H595 C607 0.950 . S
C596 H588 0.950 . S
C596 C597 1.386 . S
C596 C598 1.391 . S
C597 C596 1.386 . S
C597 C601 1.393 . S
C598 H590 0.950 . S
C598 C596 1.391 . S
C598 C599 1.400 . S
C599 C598 1.400 . S
C599 C600 1.398 . S
C599 C605 1.491 . S
C600 H591 0.950 . S
C600 C599 1.398 . S
C600 C601 1.391 . S
C601 H589 0.950 . S
C601 C597 1.393 . S
C601 C600 1.391 . S
C602 H592 0.950 . S
C602 C603 1.386 . S
C602 C604 1.391 . S
C603 C602 1.386 . S
C603 C607 1.393 . S
C604 H593 0.950 . S
C604 C602 1.391 . S
C604 C605 1.400 . S
C605 C599 1.491 . S
C605 C604 1.400 . S
C605 C606 1.398 . S
C606 H594 0.950 . S
C606 C605 1.398 . S
C606 C607 1.391 . S
C607 H595 0.950 . S
C607 C603 1.393 . S
C607 C606 1.391 . S
H608 C616 0.950 . S
H609 C621 0.950 . S
H610 C618 0.950 . S
H611 C620 0.950 . S
H612 C622 0.950 . S
H613 C624 0.950 . S
H614 C626 0.950 . S
H615 C627 0.950 . S
C616 H608 0.950 . S
C616 C617 1.386 . S
C616 C618 1.391 . S
C617 C616 1.386 . S
C617 C621 1.393 . S
C618 H610 0.950 . S
C618 C616 1.391 . S
C618 C619 1.400 . S
C619 C618 1.400 . S
C619 C620 1.398 . S
C619 C625 1.491 . S
C620 H611 0.950 . S
C620 C619 1.398 . S
C620 C621 1.391 . S
C621 H609 0.950 . S
C621 C617 1.393 . S
C621 C620 1.391 . S
C622 H612 0.950 . S
C622 C623 1.386 . S
C622 C624 1.391 . S
C623 C622 1.386 . S
C623 C627 1.393 . S
C624 H613 0.950 . S
C624 C622 1.391 . S
C624 C625 1.400 . S
C625 C619 1.491 . S
C625 C624 1.400 . S
C625 C626 1.398 . S
C626 H614 0.950 . S
C626 C625 1.398 . S
C626 C627 1.391 . S
C627 H615 0.950 . S
C627 C623 1.393 . S
C627 C626 1.391 . S
H628 C636 0.950 . S
H629 C641 0.950 . S
H630 C638 0.950 . S
H631 C640 0.950 . S
H632 C642 0.950 . S
H633 C644 0.950 . S
H634 C646 0.950 . S
H635 C647 0.950 . S
C636 H628 0.950 . S
C636 C637 1.386 . S
C636 C638 1.391 . S
C637 C636 1.386 . S
C637 C641 1.393 . S
C638 H630 0.950 . S
C638 C636 1.391 . S
C638 C639 1.400 . S
C639 C638 1.400 . S
C639 C640 1.398 . S
C639 C645 1.491 . S
C640 H631 0.950 . S
C640 C639 1.398 . S
C640 C641 1.391 . S
C641 H629 0.950 . S
C641 C637 1.393 . S
C641 C640 1.391 . S
C642 H632 0.950 . S
C642 C643 1.386 . S
C642 C644 1.391 . S
C643 C642 1.386 . S
C643 C647 1.393 . S
C644 H633 0.950 . S
C644 C642 1.391 . S
C644 C645 1.400 . S
C645 C639 1.491 . S
C645 C644 1.400 . S
C645 C646 1.398 . S
C646 H634 0.950 . S
C646 C645 1.398 . S
C646 C647 1.391 . S
C647 H635 0.950 . S
C647 C643 1.393 . S
C647 C646 1.391 . S
H648 C656 0.950 . S
H649 C661 0.950 1_455 S
H650 C658 0.950 . S
H651 C660 0.950 1_455 S
H652 C662 0.950 . S
H653 C664 0.950 . S
H654 C666 0.950 . S
H655 C667 0.950 . S
C656 H648 0.950 . S
C656 C657 1.386 . S
C656 C658 1.391 . S
C657 C656 1.386 . S
C657 C661 1.393 . S
C658 H650 0.950 . S
C658 C656 1.391 . S
C658 C659 1.400 . S
C659 C658 1.400 . S
C659 C660 1.398 . S
C659 C665 1.491 . S
C660 H651 0.950 1_655 S
C660 C659 1.398 . S
C660 C661 1.391 . S
C661 H649 0.950 1_655 S
C661 C657 1.393 . S
C661 C660 1.391 . S
C662 H652 0.950 . S
C662 C663 1.386 1_455 S
C662 C664 1.391 . S
C663 C662 1.386 1_655 S
C663 C667 1.393 . S
C664 H653 0.950 . S
C664 C662 1.391 . S
C664 C665 1.400 1_455 S
C665 C659 1.491 . S
C665 C664 1.400 1_655 S
C665 C666 1.398 . S
C666 H654 0.950 . S
C666 C665 1.398 . S
C666 C667 1.391 . S
C667 H655 0.950 . S
C667 C663 1.393 . S
C667 C666 1.391 . S
H668 C676 0.950 . S
H669 C681 0.950 1_545 S
H670 C678 0.950 . S
H671 C680 0.950 . S
H672 C682 0.950 . S
H673 C684 0.950 . S
H674 C686 0.950 . S
H675 C687 0.950 . S
C676 H668 0.950 . S
C676 C677 1.386 . S
C676 C678 1.391 . S
C677 C676 1.386 . S
C677 C681 1.393 . S
C678 H670 0.950 . S
C678 C676 1.391 . S
C678 C679 1.400 . S
C679 C678 1.400 . S
C679 C680 1.398 1_565 S
C679 C685 1.491 . S
C680 H671 0.950 . S
C680 C679 1.398 1_545 S
C680 C681 1.391 1_545 S
C681 H669 0.950 1_565 S
C681 C677 1.393 . S
C681 C680 1.391 1_565 S
C682 H672 0.950 . S
C682 C683 1.386 1_545 S
C682 C684 1.391 . S
C683 C682 1.386 1_565 S
C683 C687 1.393 . S
C684 H673 0.950 . S
C684 C682 1.391 . S
C684 C685 1.400 1_545 S
C685 C679 1.491 . S
C685 C684 1.400 1_565 S
C685 C686 1.398 . S
C686 H674 0.950 . S
C686 C685 1.398 . S
C686 C687 1.391 . S
C687 H675 0.950 . S
C687 C683 1.393 . S
C687 C686 1.391 . S
H688 C696 0.950 . S
H689 C701 0.950 . S
H690 C698 0.950 . S
H691 C700 0.950 . S
H692 C702 0.950 . S
H693 C704 0.950 . S
H694 C706 0.950 . S
H695 C707 0.950 . S
C696 H688 0.950 . S
C696 C697 1.386 . S
C696 C698 1.391 . S
C697 C696 1.386 . S
C697 C701 1.393 . S
C698 H690 0.950 . S
C698 C696 1.391 . S
C698 C699 1.400 . S
C699 C698 1.400 . S
C699 C700 1.398 . S
C699 C705 1.491 . S
C700 H691 0.950 . S
C700 C699 1.398 . S
C700 C701 1.391 . S
C701 H689 0.950 . S
C701 C697 1.393 . S
C701 C700 1.391 . S
C702 H692 0.950 . S
C702 C703 1.386 . S
C702 C704 1.391 . S
C703 C702 1.386 . S
C703 C707 1.393 . S
C704 H693 0.950 . S
C704 C702 1.391 . S
C704 C705 1.400 . S
C705 C699 1.491 . S
C705 C704 1.400 . S
C705 C706 1.398 . S
C706 H694 0.950 . S
C706 C705 1.398 . S
C706 C707 1.391 . S
C707 H695 0.950 . S
C707 C703 1.393 . S
C707 C706 1.391 . S
H708 C716 0.950 . S
H709 C721 0.950 . S
H710 C718 0.950 . S
H711 C720 0.950 . S
H712 C722 0.950 . S
H713 C724 0.950 . S
H714 C726 0.950 . S
H715 C727 0.950 . S
C716 H708 0.950 . S
C716 C717 1.386 . S
C716 C718 1.391 . S
C717 C716 1.386 . S
C717 C721 1.393 . S
C718 H710 0.950 . S
C718 C716 1.391 . S
C718 C719 1.400 . S
C719 C718 1.400 . S
C719 C720 1.398 . S
C719 C725 1.491 . S
C720 H711 0.950 . S
C720 C719 1.398 . S
C720 C721 1.391 . S
C721 H709 0.950 . S
C721 C717 1.393 . S
C721 C720 1.391 . S
C722 H712 0.950 . S
C722 C723 1.386 . S
C722 C724 1.391 . S
C723 C722 1.386 . S
C723 C727 1.393 . S
C724 H713 0.950 . S
C724 C722 1.391 . S
C724 C725 1.400 . S
C725 C719 1.491 . S
C725 C724 1.400 . S
C725 C726 1.398 . S
C726 H714 0.950 . S
C726 C725 1.398 . S
C726 C727 1.391 . S
C727 H715 0.950 . S
C727 C723 1.393 . S
C727 C726 1.391 . S
C257 C74 2.175 . S
C263 C119 2.285 . S
C283 C145 1.785 . S
C277 C85 1.660 . S
C303 C185 1.869 . S
C297 C52 1.798 . S
C323 C239 2.318 . S
C317 C63 2.226 . S
C343 C100 2.278 1_565 S
C337 C30 2.124 . S
C357 C41 1.692 . S
C363 C130 1.796 . S
C377 C8 1.754 . S
C383 C170 1.867 . S
C397 C19 2.186 . S
C403 C220 2.313 1_655 S
C423 C96 0.547 . S
C417 C62 0.522 . S
C443 C157 0.813 1_545 S
C437 C73 0.814 . S
C463 C197 0.636 . S
C457 C84 0.656 . S
C477 C51 0.382 . S
C483 C216 0.392 . S
C497 C18 0.601 . S
C503 C117 0.518 . S
C523 C136 0.788 . S
C517 C29 0.763 . S
C543 C176 0.659 . S
C537 C40 0.661 . S
C557 C7 0.459 . S
C563 C237 0.401 1_554 S
C577 C60 1.673 . S
C583 C90 2.072 . S
C597 C71 2.161 . S
C603 C140 2.591 . S
C623 C180 2.357 . S
C617 C82 1.805 . S
C643 C210 1.823 . S
C637 C49 1.487 . S
C657 C16 1.530 . S
C663 C105 2.070 . S
C683 C159 2.590 . S
C677 C27 2.043 . S
C703 C199 2.359 . S
C697 C38 1.978 . S
C717 C5 1.316 . S
C723 C225 1.823 . S
