# Generated by pormake.
# Topology eea, (3,6)-cn, num edge types: 1
# Building blocks:
#     Node 0, Type 0, BuildingBlock: OLANEW_clean_sbu_2, # of connection points: 3
#     Node 1, Type 0, BuildingBlock: OLANEW_clean_sbu_2, # of connection points: 3
#     Node 2, Type 0, BuildingBlock: OLANEW_clean_sbu_2, # of connection points: 3
#     Node 3, Type 0, BuildingBlock: OLANEW_clean_sbu_2, # of connection points: 3
#     Node 4, Type 0, BuildingBlock: OLANEW_clean_sbu_2, # of connection points: 3
#     Node 5, Type 0, BuildingBlock: OLANEW_clean_sbu_2, # of connection points: 3
#     Node 6, Type 0, BuildingBlock: OLANEW_clean_sbu_2, # of connection points: 3
#     Node 7, Type 0, BuildingBlock: OLANEW_clean_sbu_2, # of connection points: 3
#     Node 8, Type 0, BuildingBlock: OLANEW_clean_sbu_2, # of connection points: 3
#     Node 9, Type 0, BuildingBlock: OLANEW_clean_sbu_2, # of connection points: 3
#     Node 10, Type 0, BuildingBlock: OLANEW_clean_sbu_2, # of connection points: 3
#     Node 11, Type 0, BuildingBlock: OLANEW_clean_sbu_2, # of connection points: 3
#     Node 12, Type 0, BuildingBlock: OLANEW_clean_sbu_2, # of connection points: 3
#     Node 13, Type 0, BuildingBlock: OLANEW_clean_sbu_2, # of connection points: 3
#     Node 14, Type 0, BuildingBlock: OLANEW_clean_sbu_2, # of connection points: 3
#     Node 15, Type 0, BuildingBlock: OLANEW_clean_sbu_2, # of connection points: 3
#     Node 16, Type 0, BuildingBlock: OLANEW_clean_sbu_2, # of connection points: 3
#     Node 17, Type 0, BuildingBlock: OLANEW_clean_sbu_2, # of connection points: 3
#     Node 18, Type 1, BuildingBlock: CIFDUS_clean_sbu_1, # of connection points: 6
#     Node 19, Type 1, BuildingBlock: CIFDUS_clean_sbu_1, # of connection points: 6
#     Node 20, Type 1, BuildingBlock: CIFDUS_clean_sbu_1, # of connection points: 6
#     Node 21, Type 1, BuildingBlock: CIFDUS_clean_sbu_1, # of connection points: 6
#     Node 22, Type 1, BuildingBlock: CIFDUS_clean_sbu_1, # of connection points: 6
#     Node 23, Type 1, BuildingBlock: CIFDUS_clean_sbu_1, # of connection points: 6
#     Node 24, Type 1, BuildingBlock: CIFDUS_clean_sbu_1, # of connection points: 6
#     Node 25, Type 1, BuildingBlock: CIFDUS_clean_sbu_1, # of connection points: 6
#     Node 26, Type 1, BuildingBlock: CIFDUS_clean_sbu_1, # of connection points: 6
#     Edge 27, Type (0, 1), BuildingBlock: XUDNAN_clean_linker_2, # of connection points: 2
#     Edge 28, Type (0, 1), BuildingBlock: XUDNAN_clean_linker_2, # of connection points: 2
#     Edge 29, Type (0, 1), BuildingBlock: XUDNAN_clean_linker_2, # of connection points: 2
#     Edge 30, Type (0, 1), BuildingBlock: XUDNAN_clean_linker_2, # of connection points: 2
#     Edge 31, Type (0, 1), BuildingBlock: XUDNAN_clean_linker_2, # of connection points: 2
#     Edge 32, Type (0, 1), BuildingBlock: XUDNAN_clean_linker_2, # of connection points: 2
#     Edge 33, Type (0, 1), BuildingBlock: XUDNAN_clean_linker_2, # of connection points: 2
#     Edge 34, Type (0, 1), BuildingBlock: XUDNAN_clean_linker_2, # of connection points: 2
#     Edge 35, Type (0, 1), BuildingBlock: XUDNAN_clean_linker_2, # of connection points: 2
#     Edge 36, Type (0, 1), BuildingBlock: XUDNAN_clean_linker_2, # of connection points: 2
#     Edge 37, Type (0, 1), BuildingBlock: XUDNAN_clean_linker_2, # of connection points: 2
#     Edge 38, Type (0, 1), BuildingBlock: XUDNAN_clean_linker_2, # of connection points: 2
#     Edge 39, Type (0, 1), BuildingBlock: XUDNAN_clean_linker_2, # of connection points: 2
#     Edge 40, Type (0, 1), BuildingBlock: XUDNAN_clean_linker_2, # of connection points: 2
#     Edge 41, Type (0, 1), BuildingBlock: XUDNAN_clean_linker_2, # of connection points: 2
#     Edge 42, Type (0, 1), BuildingBlock: XUDNAN_clean_linker_2, # of connection points: 2
#     Edge 43, Type (0, 1), BuildingBlock: XUDNAN_clean_linker_2, # of connection points: 2
#     Edge 44, Type (0, 1), BuildingBlock: XUDNAN_clean_linker_2, # of connection points: 2
#     Edge 45, Type (0, 1), BuildingBlock: XUDNAN_clean_linker_2, # of connection points: 2
#     Edge 46, Type (0, 1), BuildingBlock: XUDNAN_clean_linker_2, # of connection points: 2
#     Edge 47, Type (0, 1), BuildingBlock: XUDNAN_clean_linker_2, # of connection points: 2
#     Edge 48, Type (0, 1), BuildingBlock: XUDNAN_clean_linker_2, # of connection points: 2
#     Edge 49, Type (0, 1), BuildingBlock: XUDNAN_clean_linker_2, # of connection points: 2
#     Edge 50, Type (0, 1), BuildingBlock: XUDNAN_clean_linker_2, # of connection points: 2
#     Edge 51, Type (0, 1), BuildingBlock: XUDNAN_clean_linker_2, # of connection points: 2
#     Edge 52, Type (0, 1), BuildingBlock: XUDNAN_clean_linker_2, # of connection points: 2
#     Edge 53, Type (0, 1), BuildingBlock: XUDNAN_clean_linker_2, # of connection points: 2
#     Edge 54, Type (0, 1), BuildingBlock: XUDNAN_clean_linker_2, # of connection points: 2
#     Edge 55, Type (0, 1), BuildingBlock: XUDNAN_clean_linker_2, # of connection points: 2
#     Edge 56, Type (0, 1), BuildingBlock: XUDNAN_clean_linker_2, # of connection points: 2
#     Edge 57, Type (0, 1), BuildingBlock: XUDNAN_clean_linker_2, # of connection points: 2
#     Edge 58, Type (0, 1), BuildingBlock: XUDNAN_clean_linker_2, # of connection points: 2
#     Edge 59, Type (0, 1), BuildingBlock: XUDNAN_clean_linker_2, # of connection points: 2
#     Edge 60, Type (0, 1), BuildingBlock: XUDNAN_clean_linker_2, # of connection points: 2
#     Edge 61, Type (0, 1), BuildingBlock: XUDNAN_clean_linker_2, # of connection points: 2
#     Edge 62, Type (0, 1), BuildingBlock: XUDNAN_clean_linker_2, # of connection points: 2
#     Edge 63, Type (0, 1), BuildingBlock: XUDNAN_clean_linker_2, # of connection points: 2
#     Edge 64, Type (0, 1), BuildingBlock: XUDNAN_clean_linker_2, # of connection points: 2
#     Edge 65, Type (0, 1), BuildingBlock: XUDNAN_clean_linker_2, # of connection points: 2
#     Edge 66, Type (0, 1), BuildingBlock: XUDNAN_clean_linker_2, # of connection points: 2
#     Edge 67, Type (0, 1), BuildingBlock: XUDNAN_clean_linker_2, # of connection points: 2
#     Edge 68, Type (0, 1), BuildingBlock: XUDNAN_clean_linker_2, # of connection points: 2
#     Edge 69, Type (0, 1), BuildingBlock: XUDNAN_clean_linker_2, # of connection points: 2
#     Edge 70, Type (0, 1), BuildingBlock: XUDNAN_clean_linker_2, # of connection points: 2
#     Edge 71, Type (0, 1), BuildingBlock: XUDNAN_clean_linker_2, # of connection points: 2
#     Edge 72, Type (0, 1), BuildingBlock: XUDNAN_clean_linker_2, # of connection points: 2
#     Edge 73, Type (0, 1), BuildingBlock: XUDNAN_clean_linker_2, # of connection points: 2
#     Edge 74, Type (0, 1), BuildingBlock: XUDNAN_clean_linker_2, # of connection points: 2
#     Edge 75, Type (0, 1), BuildingBlock: XUDNAN_clean_linker_2, # of connection points: 2
#     Edge 76, Type (0, 1), BuildingBlock: XUDNAN_clean_linker_2, # of connection points: 2
#     Edge 77, Type (0, 1), BuildingBlock: XUDNAN_clean_linker_2, # of connection points: 2
#     Edge 78, Type (0, 1), BuildingBlock: XUDNAN_clean_linker_2, # of connection points: 2
#     Edge 79, Type (0, 1), BuildingBlock: XUDNAN_clean_linker_2, # of connection points: 2
#     Edge 80, Type (0, 1), BuildingBlock: XUDNAN_clean_linker_2, # of connection points: 2
# Relax obj value: 0.065
# Max RMSD: 0.119
# Mean RMSD: 0.081
data_MOF--net-eea--node1-OLANEW_clean_sbu_2--node2-CIFDUS_clean_sbu_1--edge1-XUDNAN_clean_linker_2
_symmetry_space_group_name_H-M    P1
_symmetry_Int_Tables_number       1
_symmetry_cell_setting            triclinic
loop_
_symmetry_equiv_pos_as_xyz
'x, y, z'
_cell_length_a     63.229122
_cell_length_b     61.983156
_cell_length_c     44.899526
_cell_angle_alpha  94.867892
_cell_angle_beta   90.094459
_cell_angle_gamma 120.34521
loop_
_atom_site_label
_atom_site_type_symbol
_atom_site_fract_x
_atom_site_fract_y
_atom_site_fract_z
_atom_type_partial_charge
O0 O 0.22977 0.1143 0.4128 0.0
Cd1 Cd 0.20908 0.1116 0.3651 0.0
O2 O 0.26623 0.1264 0.39543 0.0
Cd3 Cd 0.24741 0.11054 0.35161 0.0
O4 O 0.2229 0.07027 0.33937 0.0
C5 C 0.22364 0.05676 0.35871 0.0
O6 O 0.23868 0.06793 0.38246 0.0
C7 C 0.25243 0.12189 0.41738 0.0
C8 C 0.20002 0.15067 0.35758 0.0
O9 O 0.18602 0.13262 0.37288 0.0
O10 O 0.21862 0.15072 0.34622 0.0
O11 O 0.88538 0.13221 0.38272 0.0
Cd12 Cd 0.9023 0.12117 0.33876 0.0
O13 O 0.89349 0.10995 0.41139 0.0
Cd14 Cd 0.90092 0.09082 0.37363 0.0
O15 O 0.87834 0.05183 0.35554 0.0
C16 C 0.85811 0.04137 0.36836 0.0
O17 O 0.85361 0.05502 0.38847 0.0
C18 C 0.88564 0.12492 0.40833 0.0
C19 C 0.9532 0.15253 0.33876 0.0
O20 O 0.93882 0.15716 0.32397 0.0
O21 O 0.94354 0.13309 0.35327 0.0
O22 O 0.89163 0.74836 0.4072 0.0
Cd23 Cd 0.90055 0.75967 0.35545 0.0
O24 O 0.85301 0.71803 0.39897 0.0
Cd25 Cd 0.84893 0.72756 0.35441 0.0
O26 O 0.8253 0.73808 0.33155 0.0
C27 C 0.82704 0.75903 0.34017 0.0
O28 O 0.84432 0.77436 0.36045 0.0
C29 C 0.87186 0.73092 0.41663 0.0
C30 C 0.94809 0.77242 0.33865 0.0
O31 O 0.9443 0.78776 0.35547 0.0
O32 O 0.92955 0.75082 0.32994 0.0
O33 O 0.16059 0.26382 0.6291 0.0
Cd34 Cd 0.14706 0.24637 0.67701 0.0
O35 O 0.13911 0.28282 0.63 0.0
Cd36 Cd 0.11973 0.26764 0.67046 0.0
O37 O 0.08419 0.24886 0.69128 0.0
C38 C 0.06631 0.23836 0.67191 0.0
O39 O 0.07122 0.23955 0.64346 0.0
C40 C 0.15414 0.27762 0.61714 0.0
C41 C 0.17739 0.22932 0.69673 0.0
O42 O 0.15972 0.21605 0.67718 0.0
O43 O 0.18059 0.25062 0.70758 0.0
O44 O 0.73978 0.85226 0.64132 0.0
Cd45 Cd 0.75147 0.84518 0.68968 0.0
O46 O 0.77597 0.88574 0.63909 0.0
Cd47 Cd 0.8035 0.91652 0.61622 0.0
O48 O 0.82432 0.95652 0.61254 0.0
C49 C 0.82864 0.96937 0.63768 0.0
O50 O 0.82141 0.9575 0.66188 0.0
C51 C 0.75466 0.87062 0.62738 0.0
C52 C 0.78407 0.82751 0.68275 0.0
O53 O 0.76094 0.81294 0.67735 0.0
O54 O 0.79201 0.85062 0.69174 0.0
O55 O 0.12104 0.88425 0.61907 0.0
Cd56 Cd 0.10698 0.88401 0.67015 0.0
O57 O 0.14502 0.86947 0.62948 0.0
Cd58 Cd 0.14917 0.88737 0.67453 0.0
O59 O 0.17086 0.92842 0.67671 0.0
C60 C 0.1848 0.9368 0.65501 0.0
O61 O 0.186 0.92073 0.63506 0.0
C62 C 0.13469 0.87559 0.61034 0.0
C63 C 0.05665 0.85031 0.67441 0.0
O64 O 0.06451 0.87208 0.66553 0.0
O65 O 0.07252 0.8442 0.6811 0.0
O66 O 0.89173 0.44373 0.74974 0.0
Cd67 Cd 0.86892 0.44068 0.7038 0.0
O68 O 0.92875 0.45977 0.73266 0.0
Cd69 Cd 0.91019 0.44567 0.68844 0.0
O70 O 0.88668 0.40522 0.67623 0.0
C71 C 0.8897 0.39228 0.69451 0.0
O72 O 0.90636 0.40412 0.71662 0.0
C73 C 0.91467 0.4528 0.75436 0.0
C74 C 0.86823 0.48364 0.69027 0.0
O75 O 0.85505 0.47049 0.71067 0.0
O76 O 0.8824 0.47713 0.67708 0.0
O77 O 0.5535 0.47383 0.71744 0.0
Cd78 Cd 0.56446 0.46668 0.66669 0.0
O79 O 0.53363 0.43312 0.71836 0.0
Cd80 Cd 0.52114 0.39755 0.73698 0.0
O81 O 0.5434 0.3895 0.70591 0.0
C82 C 0.53701 0.36922 0.68954 0.0
O83 O 0.55165 0.36904 0.66893 0.0
C84 C 0.54179 0.45482 0.73201 0.0
C85 C 0.61568 0.49074 0.66645 0.0
O86 O 0.60412 0.50052 0.65546 0.0
O87 O 0.60309 0.46936 0.6767 0.0
O88 O 0.55888 0.0835 0.73965 0.0
Cd89 Cd 0.56839 0.09452 0.68796 0.0
O90 O 0.52129 0.0516 0.72971 0.0
Cd91 Cd 0.51968 0.06254 0.68498 0.0
O92 O 0.50247 0.0819 0.6662 0.0
C93 C 0.4938 0.09001 0.68688 0.0
O94 O 0.49672 0.08618 0.71456 0.0
C95 C 0.53927 0.06533 0.74836 0.0
C96 C 0.61595 0.1072 0.67161 0.0
O97 O 0.61203 0.12299 0.68727 0.0
O98 O 0.59755 0.08522 0.66408 0.0
O99 O 0.82097 0.58813 0.95984 0.0
Cd100 Cd 0.80888 0.57225 0.00874 0.0
O101 O 0.80926 0.61605 0.96561 0.0
Cd102 Cd 0.7896 0.60122 0.0061 0.0
O103 O 0.75289 0.58298 0.02417 0.0
C104 C 0.73748 0.58273 0.00573 0.0
O105 O 0.74556 0.59309 0.98071 0.0
C106 C 0.81936 0.60593 0.95009 0.0
C107 C 0.84145 0.55818 0.02908 0.0
O108 O 0.82368 0.54378 0.0101 0.0
O109 O 0.84372 0.57925 0.03917 0.0
O110 O 0.4168 0.19789 0.97061 0.0
Cd111 Cd 0.43314 0.19486 0.01854 0.0
O112 O 0.44774 0.23571 0.96886 0.0
Cd113 Cd 0.47582 0.2721 0.95643 0.0
O114 O 0.49901 0.27943 0.99637 0.0
C115 C 0.50694 0.29853 0.0154 0.0
O116 O 0.51742 0.29879 0.04082 0.0
C117 C 0.42794 0.21739 0.95673 0.0
C118 C 0.46075 0.17116 0.01161 0.0
O119 O 0.43724 0.15861 0.00998 0.0
O120 O 0.47149 0.19513 0.01654 0.0
O121 O 0.78761 0.21449 0.95394 0.0
Cd122 Cd 0.77435 0.2159 0.00518 0.0
O123 O 0.81192 0.20033 0.96531 0.0
Cd124 Cd 0.81655 0.22002 0.00937 0.0
O125 O 0.83712 0.26116 0.01303 0.0
C126 C 0.84865 0.27054 0.98992 0.0
O127 O 0.84793 0.25531 0.96722 0.0
C128 C 0.80112 0.20554 0.94574 0.0
C129 C 0.72405 0.18313 0.01098 0.0
O130 O 0.73209 0.20501 0.00231 0.0
O131 O 0.73973 0.17652 0.01665 0.0
O132 O 0.55545 0.77649 0.08461 0.0
Cd133 Cd 0.5331 0.77328 0.03829 0.0
O134 O 0.59226 0.79046 0.06751 0.0
Cd135 Cd 0.57397 0.77624 0.02334 0.0
O136 O 0.55172 0.73547 0.01381 0.0
C137 C 0.55825 0.72348 0.02956 0.0
O138 O 0.57769 0.73626 0.04802 0.0
C139 C 0.57822 0.78459 0.08928 0.0
C140 C 0.53423 0.81694 0.02389 0.0
O141 O 0.52011 0.80389 0.04374 0.0
O142 O 0.54838 0.80992 0.0117 0.0
O143 O 0.21383 0.80731 0.04803 0.0
Cd144 Cd 0.22703 0.8086 0.99639 0.0
O145 O 0.22109 0.77712 0.05558 0.0
Cd146 Cd 0.221 0.74987 0.08309 0.0
O147 O 0.20243 0.70924 0.07923 0.0
C148 C 0.19241 0.70063 0.05312 0.0
O149 O 0.19552 0.71663 0.03374 0.0
C150 C 0.2135 0.79176 0.06496 0.0
C151 C 0.27785 0.83181 0.9934 0.0
O152 O 0.26719 0.84449 0.99914 0.0
O153 O 0.2646 0.80784 0.98892 0.0
O154 O 0.22297 0.41306 0.06855 0.0
Cd155 Cd 0.23238 0.42527 0.01724 0.0
O156 O 0.18479 0.38223 0.05917 0.0
Cd157 Cd 0.18311 0.39347 0.01471 0.0
O158 O 0.16668 0.41336 0.99555 0.0
C159 C 0.16207 0.42579 0.01582 0.0
O160 O 0.16833 0.42581 0.04376 0.0
C161 C 0.20319 0.39528 0.07748 0.0
C162 C 0.27979 0.43757 1.00087 0.0
O163 O 0.27622 0.45253 0.01872 0.0
O164 O 0.26108 0.41654 0.99084 0.0
O165 O 0.48602 0.91816 0.28915 0.0
Cd166 Cd 0.47586 0.90357 0.33894 0.0
O167 O 0.47419 0.94602 0.29565 0.0
Cd168 Cd 0.45442 0.93164 0.33619 0.0
O169 O 0.41872 0.91437 0.35685 0.0
C170 C 0.40098 0.90613 0.33751 0.0
O171 O 0.40607 0.90862 0.30919 0.0
C172 C 0.48422 0.93599 0.27978 0.0
C173 C 0.51318 0.89674 0.36125 0.0
O174 O 0.49418 0.87853 0.34677 0.0
O175 O 0.51426 0.91798 0.36571 0.0
O176 O 0.06544 0.51634 0.30653 0.0
Cd177 Cd 0.07743 0.50699 0.35336 0.0
O178 O 0.1036 0.54609 0.30294 0.0
Cd179 Cd 0.13138 0.5776 0.28099 0.0
O180 O 0.15281 0.61823 0.281 0.0
C181 C 0.155 0.62972 0.30665 0.0
O182 O 0.14538 0.61638 0.32934 0.0
C183 C 0.08154 0.5338 0.29251 0.0
C184 C 0.11207 0.49187 0.34575 0.0
O185 O 0.08918 0.47665 0.33926 0.0
O186 O 0.11884 0.51451 0.35583 0.0
O187 O 0.45397 0.55479 0.28294 0.0
Cd188 Cd 0.44012 0.55658 0.33391 0.0
O189 O 0.47443 0.53629 0.29415 0.0
Cd190 Cd 0.47906 0.55439 0.33918 0.0
O191 O 0.50133 0.59543 0.3429 0.0
C192 C 0.5153 0.60437 0.32134 0.0
O193 O 0.51621 0.58876 0.30041 0.0
C194 C 0.46582 0.54394 0.2747 0.0
C195 C 0.39502 0.51496 0.34623 0.0
O196 O 0.39588 0.53318 0.33366 0.0
O197 O 0.41539 0.5161 0.3524 0.0
O198 O 0.4699 0.96833 0.00739 0.0
Mn199 Mn 0.50512 0.00102 0.01399 0.0
O200 O 0.44567 0.97695 0.03689 0.0
Mn201 Mn 0.46936 0.00729 0.05589 0.0
O202 O 0.53877 0.03529 0.0224 0.0
O203 O 0.51936 0.97834 0.99776 0.0
Mn204 Mn 0.54568 0.0039 0.98341 0.0
O205 O 0.50213 0.01019 0.97102 0.0
O206 O 0.56764 0.02649 0.01272 0.0
O207 O 0.50826 0.99225 0.05769 0.0
O208 O 0.48704 0.00512 0.08685 0.0
O209 O 0.55059 0.9789 0.97254 0.0
O210 O 0.53757 0.01692 0.95265 0.0
C211 C 0.48578 0.03987 0.03237 0.0
C212 C 0.44889 0.96229 0.0182 0.0
C213 C 0.5613 0.04132 0.02444 0.0
C214 C 0.53046 0.96652 0.98626 0.0
C215 C 0.51766 0.01714 0.95049 0.0
C216 C 0.50138 0.99638 0.08355 0.0
O217 O 0.4905 0.02187 0.02882 0.0
O218 O 0.4695 0.03664 0.05166 0.0
O219 O 0.03424 0.49084 0.01182 0.0
Mn220 Mn 0.00479 0.49659 0.02143 0.0
O221 O 0.03167 0.46404 0.04464 0.0
Mn222 Mn 0.0036 0.45935 0.06267 0.0
O223 O 0.97487 0.5014 0.03262 0.0
O224 O 0.02457 0.53126 0.00671 0.0
Mn225 Mn 0.00306 0.53625 0.98806 0.0
O226 O 0.98925 0.48091 0.97776 0.0
O227 O 0.98167 0.5369 0.01491 0.0
O228 O 0.02095 0.51347 0.06482 0.0
O229 O 0.00859 0.48227 0.09422 0.0
O230 O 0.03192 0.56459 0.98456 0.0
O231 O 0.99005 0.51261 0.95564 0.0
C232 C 0.96929 0.43855 0.03914 0.0
C233 C 0.04226 0.47796 0.02375 0.0
C234 C 0.96984 0.51893 0.03073 0.0
C235 C 0.04063 0.55335 0.99917 0.0
C236 C 0.98554 0.49012 0.95494 0.0
C237 C 0.01907 0.50543 0.09075 0.0
O238 O 0.98528 0.46164 0.03508 0.0
O239 O 0.97556 0.4288 0.05934 0.0
O240 O 0.54253 0.51174 0.01078 0.0
Mn241 Mn 0.50569 0.50182 0.00223 0.0
O242 O 0.56223 0.53986 0.97726 0.0
Mn243 Mn 0.5365 0.54236 0.96183 0.0
O244 O 0.46984 0.49425 0.99115 0.0
O245 O 0.49437 0.46591 0.01381 0.0
Mn246 Mn 0.4677 0.46052 0.03293 0.0
O247 O 0.50444 0.51531 0.04663 0.0
O248 O 0.44333 0.45839 0.0089 0.0
O249 O 0.50814 0.48814 0.95838 0.0
O250 O 0.51823 0.51934 0.93018 0.0
O251 O 0.46718 0.43201 0.03587 0.0
O252 O 0.47623 0.48154 0.06742 0.0
C253 C 0.52134 0.55962 0.98947 0.0
C254 C 0.56214 0.5266 0.99765 0.0
C255 C 0.44785 0.4763 0.99373 0.0
C256 C 0.48703 0.44315 0.02126 0.0
C257 C 0.49243 0.50464 0.06924 0.0
C258 C 0.51154 0.49661 0.93261 0.0
O259 O 0.51694 0.53696 0.99139 0.0
O260 O 0.53594 0.57147 0.96891 0.0
O261 O 0.13897 0.30323 0.33854 0.0
Mn262 Mn 0.17378 0.33561 0.3466 0.0
O263 O 0.1113 0.31127 0.36001 0.0
Mn264 Mn 0.13451 0.33989 0.38295 0.0
O265 O 0.20905 0.36758 0.35572 0.0
O266 O 0.18799 0.31383 0.33166 0.0
Mn267 Mn 0.21107 0.33128 0.3071 0.0
O268 O 0.1724 0.34578 0.30339 0.0
O269 O 0.23503 0.3596 0.32933 0.0
O270 O 0.17489 0.32634 0.39063 0.0
O271 O 0.14825 0.33436 0.41549 0.0
O272 O 0.21087 0.30182 0.30697 0.0
O273 O 0.19652 0.3366 0.27504 0.0
C274 C 0.15421 0.37479 0.36451 0.0
C275 C 0.11676 0.29696 0.34414 0.0
C276 C 0.23079 0.37326 0.34819 0.0
C277 C 0.19332 0.29633 0.32508 0.0
C278 C 0.18125 0.34413 0.27811 0.0
C279 C 0.16446 0.3279 0.41482 0.0
O280 O 0.15914 0.3569 0.36037 0.0
O281 O 0.136 0.37006 0.38123 0.0
O282 O 0.69718 0.81934 0.34264 0.0
Mn283 Mn 0.6717 0.83049 0.35391 0.0
O284 O 0.68979 0.789 0.37236 0.0
Mn285 Mn 0.66398 0.78916 0.39161 0.0
O286 O 0.646 0.84167 0.36556 0.0
O287 O 0.69533 0.86485 0.3408 0.0
Mn288 Mn 0.67852 0.87263 0.31691 0.0
O289 O 0.65532 0.81661 0.31046 0.0
O290 O 0.65503 0.87446 0.33932 0.0
O291 O 0.6889 0.84473 0.39785 0.0
O292 O 0.67117 0.81155 0.42411 0.0
O293 O 0.70952 0.89953 0.31862 0.0
O294 O 0.66782 0.84961 0.28378 0.0
C295 C 0.62988 0.77266 0.36884 0.0
C296 C 0.70162 0.80292 0.35201 0.0
C297 C 0.64271 0.85956 0.35858 0.0
C298 C 0.71395 0.88644 0.33593 0.0
C299 C 0.65708 0.8261 0.28557 0.0
C300 C 0.68531 0.83483 0.42284 0.0
O301 O 0.64762 0.79532 0.36537 0.0
O302 O 0.63414 0.761 0.38851 0.0
O303 O 0.2095 0.8438 0.34785 0.0
Mn304 Mn 0.17421 0.83802 0.33736 0.0
O305 O 0.23676 0.88017 0.33025 0.0
Mn306 Mn 0.21421 0.88182 0.30623 0.0
O307 O 0.13897 0.83219 0.32633 0.0
O308 O 0.16013 0.80232 0.34869 0.0
Mn309 Mn 0.13477 0.79635 0.37041 0.0
O310 O 0.17308 0.85143 0.3817 0.0
O311 O 0.11163 0.79796 0.3476 0.0
O312 O 0.17623 0.82527 0.29272 0.0
O313 O 0.20375 0.85997 0.27206 0.0
O314 O 0.13548 0.76752 0.36899 0.0
O315 O 0.14669 0.8179 0.40476 0.0
C316 C 0.19234 0.89602 0.32396 0.0
C317 C 0.23167 0.86139 0.34448 0.0
C318 C 0.11678 0.81544 0.33112 0.0
C319 C 0.15469 0.77974 0.35369 0.0
C320 C 0.16252 0.84111 0.4052 0.0
C321 C 0.18867 0.83641 0.27042 0.0
O322 O 0.18815 0.87359 0.32685 0.0
O323 O 0.21126 0.90973 0.30901 0.0
O324 O 0.80422 0.63352 0.67641 0.0
Mn325 Mn 0.83847 0.66712 0.68266 0.0
O326 O 0.77731 0.64054 0.70237 0.0
Mn327 Mn 0.80014 0.67089 0.72277 0.0
O328 O 0.87169 0.70191 0.69039 0.0
O329 O 0.85402 0.64603 0.66691 0.0
Mn330 Mn 0.88027 0.67025 0.65131 0.0
O331 O 0.8355 0.67579 0.63941 0.0
O332 O 0.9014 0.69412 0.68039 0.0
O333 O 0.84171 0.65898 0.72647 0.0
O334 O 0.81724 0.66834 0.75438 0.0
O335 O 0.88416 0.64391 0.64316 0.0
O336 O 0.87059 0.68166 0.62013 0.0
C337 C 0.81769 0.70449 0.70064 0.0
C338 C 0.78243 0.6266 0.68504 0.0
C339 C 0.89446 0.70864 0.69173 0.0
C340 C 0.86389 0.6327 0.65692 0.0
C341 C 0.8507 0.68206 0.61843 0.0
C342 C 0.83317 0.66154 0.75177 0.0
O343 O 0.82245 0.68656 0.69713 0.0
O344 O 0.80048 0.70049 0.71877 0.0
O345 O 0.36768 0.15799 0.6791 0.0
Mn346 Mn 0.33858 0.16471 0.68706 0.0
O347 O 0.36179 0.12971 0.7114 0.0
Mn348 Mn 0.3324 0.12459 0.72569 0.0
O349 O 0.30903 0.17035 0.69677 0.0
O350 O 0.36045 0.20049 0.67595 0.0
Mn351 Mn 0.34088 0.20704 0.6552 0.0
O352 O 0.32532 0.15177 0.64214 0.0
O353 O 0.31714 0.20635 0.67914 0.0
O354 O 0.35231 0.17879 0.73214 0.0
O355 O 0.33445 0.14546 0.75799 0.0
O356 O 0.37033 0.23552 0.6558 0.0
O357 O 0.33019 0.18545 0.6208 0.0
C358 C 0.30015 0.10509 0.6987 0.0
C359 C 0.3742 0.14415 0.69168 0.0
C360 C 0.30434 0.18801 0.69415 0.0
C361 C 0.37736 0.22309 0.67085 0.0
C362 C 0.32401 0.16242 0.61932 0.0
C363 C 0.34706 0.16899 0.75721 0.0
O364 O 0.31657 0.12852 0.69651 0.0
O365 O 0.30473 0.09418 0.71907 0.0
O366 O 0.87543 0.17658 0.68106 0.0
Mn367 Mn 0.84102 0.17303 0.6714 0.0
O368 O 0.90415 0.21274 0.66434 0.0
Mn369 Mn 0.88253 0.21825 0.64356 0.0
O370 O 0.80635 0.16895 0.66139 0.0
O371 O 0.82551 0.13659 0.67866 0.0
Mn372 Mn 0.79955 0.12797 0.69991 0.0
O373 O 0.83928 0.18291 0.71682 0.0
O374 O 0.77793 0.13197 0.67697 0.0
O375 O 0.84266 0.16344 0.6255 0.0
O376 O 0.87015 0.19957 0.60723 0.0
O377 O 0.80201 0.09978 0.69428 0.0
O378 O 0.81094 0.14773 0.73588 0.0
C379 C 0.86208 0.23283 0.66517 0.0
C380 C 0.89794 0.19328 0.67771 0.0
C381 C 0.78393 0.15132 0.66345 0.0
C382 C 0.82143 0.11411 0.68044 0.0
C383 C 0.82747 0.17088 0.73884 0.0
C384 C 0.85385 0.17636 0.60368 0.0
O385 O 0.8568 0.20976 0.66518 0.0
O386 O 0.88157 0.24715 0.65145 0.0
H387 H 0.30958 0.8663 0.03602 0.0
H388 H 0.30643 0.82676 0.95044 0.0
H389 H 0.35183 0.85312 0.94859 0.0
H390 H 0.35304 0.92543 0.02177 0.0
H391 H 0.36832 0.93482 0.05845 0.0
H392 H 0.33646 0.91099 0.05386 0.0
H393 H 0.34559 0.88013 0.07884 0.0
H394 H 0.37759 0.90397 0.08368 0.0
H395 H 0.3686 0.87373 0.06415 0.0
H396 H 0.39779 0.88908 0.95412 0.0
H397 H 0.43802 0.92808 0.96768 0.0
H398 H 0.40921 0.93985 0.05122 0.0
C399 C 0.31855 0.86291 0.01718 0.0
C400 C 0.30478 0.84477 0.99334 0.0
C401 C 0.31692 0.84063 0.969 0.0
C402 C 0.34262 0.85549 0.9678 0.0
C403 C 0.35577 0.87379 0.99155 0.0
C404 C 0.34401 0.877 0.01607 0.0
C405 C 0.36164 0.89825 0.03834 0.0
C406 C 0.35444 0.91856 0.04336 0.0
C407 C 0.36346 0.88842 0.068 0.0
C408 C 0.38503 0.90749 0.02196 0.0
C409 C 0.38164 0.89325 0.99511 0.0
C410 C 0.40068 0.90004 0.97539 0.0
C411 C 0.42348 0.92218 0.98322 0.0
C412 C 0.42677 0.93719 0.01036 0.0
C413 C 0.4074 0.92905 0.03013 0.0
H414 H 0.14632 0.44932 0.05588 0.0
H415 H 0.14578 0.43006 0.96062 0.0
H416 H 0.11965 0.44826 0.95092 0.0
H417 H 0.08512 0.43125 0.05717 0.0
H418 H 0.0894 0.45554 0.08577 0.0
H419 H 0.11079 0.44454 0.0841 0.0
H420 H 0.14649 0.49019 0.08107 0.0
H421 H 0.12505 0.50127 0.0824 0.0
H422 H 0.14535 0.50796 0.05197 0.0
H423 H 0.08936 0.46456 0.95274 0.0
H424 H 0.05656 0.47402 0.96638 0.0
H425 H 0.07804 0.48208 0.06011 0.0
C426 C 0.14124 0.44939 0.03287 0.0
C427 C 0.14826 0.43843 0.009 0.0
C428 C 0.14074 0.43852 0.97928 0.0
C429 C 0.12599 0.44891 0.97356 0.0
C430 C 0.11905 0.45923 0.99779 0.0
C431 C 0.12652 0.45948 0.02686 0.0
C432 C 0.11471 0.46905 0.04936 0.0
C433 C 0.09908 0.44889 0.0703 0.0
C434 C 0.13406 0.49358 0.06724 0.0
C435 C 0.09891 0.47363 0.02857 0.0
C436 C 0.10179 0.46829 0.99884 0.0
C437 C 0.0873 0.4692 0.97593 0.0
C438 C 0.06885 0.47475 0.98378 0.0
C439 C 0.065 0.47892 0.01423 0.0
C440 C 0.08084 0.47924 0.03662 0.0
H441 H 0.57106 0.69301 0.05525 0.0
H442 H 0.51402 0.69114 0.99935 0.0
H443 H 0.49145 0.64475 0.99551 0.0
H444 H 0.57398 0.6459 0.01449 0.0
H445 H 0.57982 0.63306 0.04596 0.0
H446 H 0.58828 0.66549 0.04894 0.0
H447 H 0.56236 0.65832 0.09573 0.0
H448 H 0.55316 0.62548 0.09209 0.0
H449 H 0.53025 0.63463 0.093 0.0
H450 H 0.47824 0.59943 0.99165 0.0
H451 H 0.47984 0.5607 0.9801 0.0
H452 H 0.54513 0.59139 0.03817 0.0
C453 C 0.55351 0.68286 0.0428 0.0
C454 C 0.54416 0.6957 0.02785 0.0
C455 C 0.52146 0.68172 0.01116 0.0
C456 C 0.50837 0.65535 0.00916 0.0
C457 C 0.51811 0.64324 0.02415 0.0
C458 C 0.54032 0.65659 0.04044 0.0
C459 C 0.54866 0.63928 0.05066 0.0
C460 C 0.57416 0.64634 0.0393 0.0
C461 C 0.5486 0.63944 0.08491 0.0
C462 C 0.52858 0.61424 0.03572 0.0
C463 C 0.51056 0.61678 0.02164 0.0
C464 C 0.49182 0.59702 0.00323 0.0
C465 C 0.49261 0.57487 0.99712 0.0
C466 C 0.51221 0.57291 0.00896 0.0
C467 C 0.52938 0.5921 0.03002 0.0
H468 H 0.85633 0.30781 0.03366 0.0
H469 H 0.8743 0.29542 0.94299 0.0
H470 H 0.901 0.34112 0.94162 0.0
H471 H 0.8592 0.36913 0.02521 0.0
H472 H 0.8731 0.38166 0.0624 0.0
H473 H 0.85184 0.34845 0.05432 0.0
H474 H 0.88443 0.33855 0.0737 0.0
H475 H 0.90535 0.37154 0.08244 0.0
H476 H 0.9143 0.3531 0.05827 0.0
H477 H 0.93136 0.38688 0.95334 0.0
H478 H 0.96425 0.42708 0.97884 0.0
H479 H 0.92508 0.41067 0.06027 0.0
C480 C 0.86537 0.31475 0.01324 0.0
C481 C 0.86312 0.29804 0.98844 0.0
C482 C 0.87565 0.30785 0.96231 0.0
C483 C 0.89072 0.33383 0.96119 0.0
C484 C 0.89285 0.34984 0.98622 0.0
C485 C 0.88044 0.34063 0.01175 0.0
C486 C 0.88821 0.36134 0.03694 0.0
C487 C 0.86681 0.36538 0.04519 0.0
C488 C 0.89871 0.35581 0.06442 0.0
C489 C 0.90786 0.3834 0.02218 0.0
C490 C 0.90994 0.37658 0.99266 0.0
C491 C 0.92935 0.39276 0.97603 0.0
C492 C 0.94778 0.41579 0.99046 0.0
C493 C 0.94651 0.42228 0.02102 0.0
C494 C 0.92572 0.40651 0.03646 0.0
H495 H 0.70205 0.58012 0.96913 0.0
H496 H 0.71284 0.55878 0.05488 0.0
H497 H 0.66815 0.53952 0.06251 0.0
H498 H 0.65831 0.59698 0.99149 0.0
H499 H 0.64135 0.58552 0.95584 0.0
H500 H 0.67371 0.59664 0.95785 0.0
H501 H 0.66535 0.554 0.93132 0.0
H502 H 0.63291 0.54265 0.9294 0.0
H503 H 0.64443 0.52526 0.94698 0.0
H504 H 0.6206 0.52337 0.06003 0.0
H505 H 0.57802 0.51395 0.04816 0.0
H506 H 0.60157 0.54574 0.9636 0.0
C507 C 0.69517 0.57135 0.98956 0.0
C508 C 0.71097 0.57095 0.01137 0.0
C509 C 0.70104 0.5593 0.0378 0.0
C510 C 0.67568 0.54828 0.04228 0.0
C511 C 0.66059 0.54903 0.02008 0.0
C512 C 0.67022 0.56036 0.99427 0.0
C513 C 0.65089 0.55953 0.97383 0.0
C514 C 0.65639 0.58624 0.96952 0.0
C515 C 0.64824 0.54445 0.94361 0.0
C516 C 0.62867 0.54592 0.99194 0.0
C517 C 0.63425 0.53991 0.01862 0.0
C518 C 0.61614 0.52796 0.03908 0.0
C519 C 0.59199 0.52257 0.03216 0.0
C520 C 0.58635 0.52925 0.00508 0.0
C521 C 0.60503 0.54053 0.98471 0.0
H522 H 0.44743 0.12701 0.97862 0.0
H523 H 0.50517 0.18531 0.03915 0.0
H524 H 0.52542 0.16002 0.03982 0.0
H525 H 0.43932 0.07736 0.01072 0.0
H526 H 0.4343 0.05703 0.97698 0.0
H527 H 0.42813 0.08218 0.97639 0.0
H528 H 0.45762 0.09923 0.93309 0.0
H529 H 0.46424 0.07418 0.93413 0.0
H530 H 0.4889 0.10643 0.93799 0.0
H531 H 0.53391 0.12486 0.04249 0.0
H532 H 0.5279 0.08309 0.04959 0.0
H533 H 0.46628 0.04843 0.98511 0.0
C534 C 0.46475 0.13474 0.99126 0.0
C535 C 0.47482 0.15805 0.00875 0.0
C536 C 0.49735 0.16758 0.02529 0.0
C537 C 0.50902 0.15339 0.02566 0.0
C538 C 0.49831 0.13009 0.0086 0.0
C539 C 0.47682 0.12105 0.99133 0.0
C540 C 0.46739 0.09438 0.97783 0.0
C541 C 0.44074 0.07672 0.98602 0.0
C542 C 0.46968 0.09351 0.94373 0.0
C543 C 0.48537 0.0888 0.99272 0.0
C544 C 0.50371 0.10994 0.00944 0.0
C545 C 0.52024 0.10845 0.02863 0.0
C546 C 0.51692 0.08466 0.0323 0.0
C547 C 0.49715 0.0628 0.01707 0.0
C548 C 0.4822 0.06508 0.9958 0.0
H549 H 0.70206 0.14025 0.03993 0.0
H550 H 0.68592 0.18748 0.98972 0.0
H551 H 0.64159 0.15908 0.99512 0.0
H552 H 0.65401 0.0823 0.00941 0.0
H553 H 0.64777 0.06767 0.04387 0.0
H554 H 0.67802 0.09306 0.03827 0.0
H555 H 0.67626 0.11719 0.08746 0.0
H556 H 0.64565 0.09198 0.09271 0.0
H557 H 0.65153 0.12354 0.0918 0.0
H558 H 0.59885 0.12397 0.00305 0.0
H559 H 0.56174 0.08273 0.00759 0.0
H560 H 0.60574 0.05863 0.05266 0.0
C561 C 0.68922 0.14475 0.03032 0.0
C562 C 0.69747 0.16618 0.01455 0.0
C563 C 0.68005 0.17132 0.00216 0.0
C564 C 0.65482 0.15536 0.00524 0.0
C565 C 0.64729 0.13453 0.02118 0.0
C566 C 0.66399 0.12917 0.03345 0.0
C567 C 0.6511 0.10479 0.04792 0.0
C568 C 0.65813 0.08584 0.03401 0.0
C569 C 0.65646 0.10967 0.08199 0.0
C570 C 0.62457 0.09649 0.04023 0.0
C571 C 0.62269 0.11427 0.02566 0.0
C572 C 0.60007 0.11011 0.0149 0.0
C573 C 0.57902 0.08674 0.01788 0.0
C574 C 0.58091 0.06774 0.03094 0.0
C575 C 0.60381 0.07308 0.04318 0.0
H576 H 0.8559 0.53029 0.99482 0.0
H577 H 0.86815 0.57087 0.08253 0.0
H578 H 0.89861 0.55884 0.0962 0.0
H579 H 0.86311 0.47909 0.01405 0.0
H580 H 0.88025 0.4798 0.98172 0.0
H581 H 0.85796 0.48967 0.98003 0.0
H582 H 0.89108 0.53289 0.96407 0.0
H583 H 0.91322 0.52285 0.96493 0.0
H584 H 0.91924 0.55136 0.98668 0.0
H585 H 0.93009 0.54464 0.09841 0.0
H586 H 0.96235 0.53401 0.08677 0.0
H587 H 0.92861 0.50282 0.99794 0.0
C588 C 0.86461 0.53619 0.01715 0.0
C589 C 0.85936 0.55099 0.0379 0.0
C590 C 0.87181 0.55926 0.06646 0.0
C591 C 0.88899 0.5524 0.07443 0.0
C592 C 0.89365 0.53756 0.05342 0.0
C593 C 0.88205 0.52997 0.02517 0.0
C594 C 0.89218 0.51677 0.00536 0.0
C595 C 0.87217 0.48972 0.99468 0.0
C596 C 0.90467 0.53186 0.97871 0.0
C597 C 0.91079 0.51734 0.02703 0.0
C598 C 0.91153 0.52945 0.05468 0.0
C599 C 0.92927 0.53461 0.0771 0.0
C600 C 0.94731 0.52822 0.07053 0.0
C601 C 0.94717 0.51667 0.04195 0.0
C602 C 0.92826 0.51047 0.02044 0.0
H603 H 0.49749 0.32763 0.05539 0.0
H604 H 0.51168 0.31852 0.96215 0.0
H605 H 0.51314 0.35829 0.9539 0.0
H606 H 0.45782 0.35341 0.04022 0.0
H607 H 0.46779 0.37333 0.07501 0.0
H608 H 0.46718 0.34389 0.07215 0.0
H609 H 0.51304 0.36781 0.09038 0.0
H610 H 0.51406 0.39744 0.09201 0.0
H611 H 0.53529 0.39257 0.06977 0.0
H612 H 0.51342 0.40004 0.95661 0.0
H613 H 0.50621 0.43571 0.96864 0.0
H614 H 0.49423 0.41735 0.06035 0.0
C615 C 0.5008 0.33399 0.03322 0.0
C616 C 0.50465 0.32026 0.00942 0.0
C617 C 0.5085 0.3288 0.98058 0.0
C618 C 0.50961 0.35146 0.97579 0.0
C619 C 0.50654 0.36508 1.00003 0.0
C620 C 0.5016 0.35626 0.02799 0.0
C621 C 0.4977 0.37353 0.05002 0.0
C622 C 0.47105 0.36026 0.05992 0.0
C623 C 0.51614 0.38342 0.07713 0.0
C624 C 0.50246 0.39411 0.03058 0.0
C625 C 0.50722 0.38893 0.00167 0.0
C626 C 0.50997 0.40444 0.97927 0.0
C627 C 0.50629 0.42488 0.98631 0.0
C628 C 0.50011 0.4294 0.01547 0.0
C629 C 0.49948 0.41458 0.038 0.0
H630 H 0.16206 0.67884 0.00345 0.0
H631 H 0.18316 0.66152 0.08608 0.0
H632 H 0.15028 0.61705 0.07536 0.0
H633 H 0.10075 0.64469 0.01332 0.0
H634 H 0.09186 0.63534 0.97411 0.0
H635 H 0.11996 0.66388 0.98548 0.0
H636 H 0.14377 0.64802 0.95214 0.0
H637 H 0.11562 0.61914 0.94105 0.0
H638 H 0.14122 0.61828 0.95742 0.0
H639 H 0.11004 0.57672 0.06036 0.0
H640 H 0.06668 0.54627 0.04343 0.0
H641 H 0.07438 0.59019 0.96975 0.0
C642 C 0.16039 0.66558 0.01883 0.0
C643 C 0.17526 0.67354 0.04545 0.0
C644 C 0.17199 0.65572 0.06543 0.0
C645 C 0.15347 0.63042 0.05943 0.0
C646 C 0.13856 0.62332 0.03333 0.0
C647 C 0.14199 0.6405 0.01332 0.0
C648 C 0.12155 0.62957 0.9894 0.0
C649 C 0.10773 0.64423 0.99069 0.0
C650 C 0.13113 0.62868 0.95816 0.0
C651 C 0.10587 0.60361 0.99919 0.0
C652 C 0.1158 0.60011 0.0245 0.0
C653 C 0.10237 0.57897 0.04011 0.0
C654 C 0.07781 0.56172 0.03038 0.0
C655 C 0.06728 0.56606 0.00549 0.0
C656 C 0.082 0.58636 0.98887 0.0
H657 H 0.32168 0.46167 0.03659 0.0
H658 H 0.29412 0.42848 0.94596 0.0
H659 H 0.33643 0.44106 0.93159 0.0
H660 H 0.38045 0.51405 0.02148 0.0
H661 H 0.39647 0.51038 0.05211 0.0
H662 H 0.36452 0.50084 0.05445 0.0
H663 H 0.35396 0.45591 0.06444 0.0
H664 H 0.38593 0.46558 0.06289 0.0
H665 H 0.36349 0.43884 0.03878 0.0
H666 H 0.38203 0.45558 0.92821 0.0
H667 H 0.42486 0.46539 0.938 0.0
H668 H 0.42157 0.48809 0.03084 0.0
C669 C 0.32465 0.4574 0.01362 0.0
C670 C 0.30482 0.44451 0.99222 0.0
C671 C 0.30919 0.43848 0.96261 0.0
C672 C 0.33314 0.44571 0.95424 0.0
C673 C 0.35242 0.4586 0.97589 0.0
C674 C 0.34827 0.46392 0.00513 0.0
C675 C 0.37142 0.47527 0.02502 0.0
C676 C 0.37863 0.50171 0.03908 0.0
C677 C 0.36853 0.45787 0.04919 0.0
C678 C 0.38944 0.47615 0.00237 0.0
C679 C 0.37829 0.46655 0.97407 0.0
C680 C 0.39103 0.46351 0.95017 0.0
C681 C 0.41539 0.46938 0.95575 0.0
C682 C 0.42656 0.47822 0.9849 0.0
C683 C 0.41364 0.4823 0.00812 0.0
H684 H 0.52238 0.84919 0.05572 0.0
H685 H 0.54267 0.83243 0.9682 0.0
H686 H 0.53648 0.86483 0.94833 0.0
H687 H 0.47687 0.86436 0.03079 0.0
H688 H 0.48615 0.89042 0.05899 0.0
H689 H 0.49 0.86444 0.0665 0.0
H690 H 0.53647 0.89486 0.07918 0.0
H691 H 0.53248 0.92085 0.07255 0.0
H692 H 0.55482 0.91623 0.05255 0.0
H693 H 0.52658 0.89703 0.9372 0.0
H694 H 0.5255 0.93609 0.9378 0.0
H695 H 0.51636 0.93667 0.03351 0.0
C696 C 0.52541 0.85235 0.03237 0.0
C697 C 0.53261 0.83803 0.01332 0.0
C698 C 0.53701 0.84307 0.9831 0.0
C699 C 0.53328 0.86123 0.97154 0.0
C700 C 0.52554 0.87452 0.99062 0.0
C701 C 0.52245 0.87101 0.0206 0.0
C702 C 0.51665 0.88988 0.03672 0.0
C703 C 0.49088 0.87647 0.04898 0.0
C704 C 0.53628 0.90645 0.06171 0.0
C705 C 0.51751 0.90486 0.01117 0.0
C706 C 0.52167 0.89484 0.98463 0.0
C707 C 0.52341 0.90511 0.95782 0.0
C708 C 0.5225 0.92717 0.95837 0.0
C709 C 0.52069 0.93928 0.98565 0.0
C710 C 0.51713 0.92747 0.01227 0.0
H711 H 0.98029 0.18899 0.30162 0.0
H712 H 0.98686 0.15488 0.37897 0.0
H713 H 0.03143 0.1849 0.38327 0.0
H714 H 0.04181 0.20359 0.27262 0.0
H715 H 0.04705 0.23244 0.25933 0.0
H716 H 0.01622 0.20607 0.2596 0.0
H717 H 0.00329 0.23397 0.29142 0.0
H718 H 0.03391 0.26034 0.2911 0.0
H719 H 0.0201 0.25061 0.32626 0.0
H720 H 0.07421 0.22047 0.38208 0.0
H721 H 0.11162 0.26154 0.37826 0.0
H722 H 0.07755 0.27388 0.30293 0.0
C723 C 0.9912 0.18761 0.31916 0.0
C724 C 0.98013 0.16952 0.33989 0.0
C725 C 0.99497 0.16837 0.36263 0.0
C726 C 0.02033 0.18529 0.36518 0.0
C727 C 0.03068 0.20296 0.34449 0.0
C728 C 0.01663 0.20421 0.32183 0.0
C729 C 0.0321 0.2261 0.30378 0.0
C730 C 0.03443 0.21648 0.27194 0.0
C731 C 0.02173 0.2438 0.30315 0.0
C732 C 0.05648 0.2383 0.32155 0.0
C733 C 0.05549 0.22396 0.3441 0.0
C734 C 0.07537 0.2316 0.36417 0.0
C735 C 0.09658 0.25483 0.36171 0.0
C736 C 0.09752 0.27037 0.33983 0.0
C737 C 0.07741 0.26189 0.31922 0.0
H738 H 0.82544 0.80205 0.35482 0.0
H739 H 0.78485 0.72814 0.30557 0.0
H740 H 0.75048 0.73515 0.29599 0.0
H741 H 0.77782 0.80002 0.39227 0.0
H742 H 0.78647 0.83239 0.39047 0.0
H743 H 0.80951 0.82355 0.38879 0.0
H744 H 0.82312 0.84314 0.33856 0.0
H745 H 0.80001 0.85204 0.3401 0.0
H746 H 0.80081 0.83316 0.3078 0.0
H747 H 0.71849 0.74714 0.29828 0.0
H748 H 0.69081 0.76293 0.31327 0.0
H749 H 0.75164 0.82926 0.36065 0.0
C750 C 0.80961 0.78761 0.34129 0.0
C751 C 0.80794 0.7646 0.33079 0.0
C752 C 0.78671 0.74603 0.3136 0.0
C753 C 0.76709 0.74987 0.30797 0.0
C754 C 0.76909 0.77253 0.31926 0.0
C755 C 0.78989 0.7912 0.33536 0.0
C756 C 0.78646 0.8128 0.34743 0.0
C757 C 0.79027 0.81743 0.38177 0.0
C758 C 0.80362 0.8367 0.33259 0.0
C759 C 0.75992 0.8026 0.33733 0.0
C760 C 0.75049 0.77963 0.3204 0.0
C761 C 0.72583 0.7654 0.31075 0.0
C762 C 0.71026 0.77452 0.31924 0.0
C763 C 0.71937 0.79758 0.33721 0.0
C764 C 0.74457 0.81206 0.34587 0.0
H765 H 0.22587 0.02364 0.39303 0.0
H766 H 0.18808 0.02711 0.3145 0.0
H767 H 0.16522 0.98073 0.30627 0.0
H768 H 0.23713 0.97908 0.36224 0.0
H769 H 0.23345 0.96358 0.39569 0.0
H770 H 0.24207 0.99604 0.39867 0.0
H771 H 0.20468 0.98554 0.43101 0.0
H772 H 0.19553 0.95271 0.42708 0.0
H773 H 0.17425 0.96228 0.41629 0.0
H774 H 0.152 0.93539 0.3016 0.0
H775 H 0.15555 0.89748 0.29577 0.0
H776 H 0.20139 0.92276 0.37721 0.0
C777 C 0.21225 0.01464 0.37458 0.0
C778 C 0.20855 0.02899 0.35459 0.0
C779 C 0.19107 0.0165 0.33026 0.0
C780 C 0.1778 0.99014 0.32561 0.0
C781 C 0.18206 0.97652 0.34563 0.0
C782 C 0.19902 0.98842 0.36956 0.0
C783 C 0.20325 0.96999 0.38493 0.0
C784 C 0.23057 0.97762 0.38535 0.0
C785 C 0.19386 0.96749 0.41672 0.0
C786 C 0.18738 0.94612 0.36462 0.0
C787 C 0.17449 0.95004 0.34281 0.0
C788 C 0.16137 0.93185 0.31904 0.0
C789 C 0.16313 0.91011 0.31611 0.0
C790 C 0.1782 0.90703 0.33652 0.0
C791 C 0.18889 0.92426 0.36217 0.0
H792 H 0.51992 0.64232 0.36199 0.0
H793 H 0.54436 0.62838 0.27605 0.0
H794 H 0.57008 0.67402 0.27313 0.0
H795 H 0.52042 0.70075 0.34681 0.0
H796 H 0.53219 0.71512 0.38429 0.0
H797 H 0.51271 0.68149 0.37747 0.0
H798 H 0.54598 0.67506 0.40234 0.0
H799 H 0.56499 0.70848 0.41003 0.0
H800 H 0.57669 0.69086 0.38932 0.0
H801 H 0.59819 0.72039 0.28347 0.0
H802 H 0.62864 0.76169 0.30897 0.0
H803 H 0.58399 0.74659 0.38577 0.0
C804 C 0.53024 0.64886 0.34223 0.0
C805 C 0.52997 0.63177 0.31919 0.0
C806 C 0.54417 0.64111 0.29399 0.0
C807 C 0.55868 0.66704 0.29196 0.0
C808 C 0.5586 0.68344 0.31513 0.0
C809 C 0.54479 0.67467 0.33984 0.0
C810 C 0.55026 0.69595 0.36344 0.0
C811 C 0.52753 0.69847 0.36827 0.0
C812 C 0.56008 0.69238 0.39299 0.0
C813 C 0.56994 0.71801 0.34868 0.0
C814 C 0.57427 0.71052 0.32056 0.0
C815 C 0.59439 0.72674 0.30492 0.0
C816 C 0.61141 0.75048 0.31926 0.0
C817 C 0.60804 0.75765 0.34876 0.0
C818 C 0.58621 0.74195 0.36261 0.0
H819 H 0.36057 0.88758 0.30003 0.0
H820 H 0.38282 0.89948 0.39421 0.0
H821 H 0.33943 0.88261 0.40715 0.0
H822 H 0.31866 0.90802 0.30832 0.0
H823 H 0.29768 0.88597 0.27872 0.0
H824 H 0.3298 0.89629 0.27783 0.0
H825 H 0.31924 0.84985 0.27409 0.0
H826 H 0.28704 0.83944 0.27546 0.0
H827 H 0.30134 0.83004 0.30224 0.0
H828 H 0.29332 0.86868 0.40918 0.0
H829 H 0.25123 0.86136 0.39974 0.0
H830 H 0.2607 0.85749 0.30443 0.0
C831 C 0.3564 0.88628 0.32342 0.0
C832 C 0.37511 0.89475 0.34608 0.0
C833 C 0.36876 0.89298 0.37641 0.0
C834 C 0.34415 0.88334 0.38395 0.0
C835 C 0.32614 0.87537 0.36089 0.0
C836 C 0.33215 0.87677 0.33122 0.0
C837 C 0.31021 0.86919 0.31048 0.0
C838 C 0.31434 0.89117 0.29283 0.0
C839 C 0.3041 0.84573 0.28933 0.0
C840 C 0.2908 0.8635 0.33298 0.0
C841 C 0.30007 0.867 0.36202 0.0
C842 C 0.28578 0.86534 0.38649 0.0
C843 C 0.26185 0.86096 0.38102 0.0
C844 C 0.25272 0.85832 0.35138 0.0
C845 C 0.2671 0.85874 0.32728 0.0
H846 H 0.10756 0.45264 0.30864 0.0
H847 H 0.15582 0.51037 0.37755 0.0
H848 H 0.18153 0.4908 0.37859 0.0
H849 H 0.10402 0.40381 0.33716 0.0
H850 H 0.10398 0.38671 0.30257 0.0
H851 H 0.09388 0.40894 0.30226 0.0
H852 H 0.12599 0.43218 0.26333 0.0
H853 H 0.13658 0.41011 0.26416 0.0
H854 H 0.15796 0.44332 0.27176 0.0
H855 H 0.19501 0.45949 0.38126 0.0
H856 H 0.19286 0.41926 0.38728 0.0
H857 H 0.13832 0.38305 0.31412 0.0
C858 C 0.12405 0.46161 0.32319 0.0
C859 C 0.12977 0.48297 0.34296 0.0
C860 C 0.15128 0.49413 0.36196 0.0
C861 C 0.16606 0.48319 0.36257 0.0
C862 C 0.15947 0.46155 0.34338 0.0
C863 C 0.13914 0.45115 0.32366 0.0
C864 C 0.1339 0.42612 0.30834 0.0
C865 C 0.10741 0.40519 0.31291 0.0
C866 C 0.13891 0.42806 0.27491 0.0
C867 C 0.15278 0.42269 0.32479 0.0
C868 C 0.16802 0.44376 0.34413 0.0
C869 C 0.18392 0.44331 0.36539 0.0
C870 C 0.18287 0.42042 0.36844 0.0
C871 C 0.16598 0.39836 0.35047 0.0
C872 C 0.15219 0.4 0.32704 0.0
H873 H 0.3485 0.5028 0.32762 0.0
H874 H 0.38781 0.47842 0.38203 0.0
H875 H 0.34838 0.44299 0.39542 0.0
H876 H 0.29555 0.48449 0.37498 0.0
H877 H 0.2739 0.47379 0.34333 0.0
H878 H 0.30504 0.49888 0.3405 0.0
H879 H 0.3101 0.47398 0.29438 0.0
H880 H 0.27889 0.44919 0.29677 0.0
H881 H 0.30338 0.44231 0.29723 0.0
H882 H 0.30514 0.40885 0.4004 0.0
H883 H 0.26179 0.37535 0.39085 0.0
H884 H 0.2502 0.42092 0.33251 0.0
C885 C 0.34881 0.49021 0.34268 0.0
C886 C 0.37128 0.49357 0.35403 0.0
C887 C 0.37087 0.47634 0.37317 0.0
C888 C 0.34854 0.45626 0.38111 0.0
C889 C 0.32673 0.4536 0.36973 0.0
C890 C 0.32667 0.46991 0.35062 0.0
C891 C 0.30078 0.46149 0.33924 0.0
C892 C 0.29339 0.48082 0.35017 0.0
C893 C 0.29814 0.45643 0.30488 0.0
C894 C 0.28634 0.43743 0.35414 0.0
C895 C 0.30163 0.43361 0.37226 0.0
C896 C 0.29292 0.41187 0.38675 0.0
C897 C 0.26824 0.39306 0.38149 0.0
C898 C 0.25261 0.39604 0.36185 0.0
C899 C 0.26157 0.41876 0.34868 0.0
H900 H 0.51597 0.85373 0.35633 0.0
H901 H 0.55742 0.93312 0.38764 0.0
H902 H 0.59324 0.92916 0.39983 0.0
H903 H 0.5462 0.83361 0.4122 0.0
H904 H 0.5454 0.81006 0.38499 0.0
H905 H 0.5216 0.81796 0.38377 0.0
H906 H 0.53046 0.82779 0.3287 0.0
H907 H 0.55406 0.81979 0.32972 0.0
H908 H 0.56122 0.85019 0.31949 0.0
H909 H 0.62573 0.9184 0.40234 0.0
H910 H 0.65384 0.9026 0.39083 0.0
H911 H 0.59235 0.83009 0.35742 0.0
C912 C 0.53239 0.87014 0.36645 0.0
C913 C 0.5338 0.8937 0.37126 0.0
C914 C 0.55577 0.91481 0.38406 0.0
C915 C 0.5762 0.91272 0.39121 0.0
C916 C 0.57432 0.88931 0.38585 0.0
C917 C 0.55298 0.86834 0.37383 0.0
C918 C 0.55663 0.84602 0.36748 0.0
C919 C 0.54156 0.8257 0.38834 0.0
C920 C 0.55024 0.83535 0.33438 0.0
C921 C 0.58391 0.85827 0.37539 0.0
C922 C 0.59343 0.883 0.38709 0.0
C923 C 0.61842 0.89894 0.3939 0.0
C924 C 0.63424 0.88977 0.38742 0.0
C925 C 0.62514 0.865 0.37398 0.0
C926 C 0.59959 0.84876 0.36877 0.0
H927 H 0.15705 0.65806 0.35743 0.0
H928 H 0.1757 0.66334 0.26439 0.0
H929 H 0.18776 0.70821 0.26993 0.0
H930 H 0.12773 0.69091 0.35565 0.0
H931 H 0.13684 0.70565 0.39344 0.0
H932 H 0.13512 0.67616 0.38358 0.0
H933 H 0.18041 0.69574 0.40284 0.0
H934 H 0.18232 0.72554 0.41233 0.0
H935 H 0.20402 0.72358 0.3879 0.0
H936 H 0.18931 0.74957 0.2828 0.0
H937 H 0.17839 0.78142 0.30138 0.0
H938 H 0.16128 0.74959 0.38632 0.0
C939 C 0.16447 0.66882 0.33845 0.0
C940 C 0.16557 0.65726 0.31054 0.0
C941 C 0.17482 0.67188 0.28607 0.0
C942 C 0.18185 0.69742 0.28906 0.0
C943 C 0.17977 0.70809 0.31672 0.0
C944 C 0.17142 0.69417 0.34105 0.0
C945 C 0.16724 0.70849 0.36697 0.0
C946 C 0.14015 0.69448 0.37535 0.0
C947 C 0.18455 0.71365 0.39411 0.0
C948 C 0.17378 0.73236 0.35317 0.0
C949 C 0.18123 0.73209 0.32428 0.0
C950 C 0.18424 0.75039 0.30569 0.0
C951 C 0.17818 0.76854 0.31639 0.0
C952 C 0.16917 0.76788 0.34523 0.0
C953 C 0.16848 0.75062 0.36426 0.0
H954 H 0.81818 0.01309 0.39989 0.0
H955 H 0.858 0.0083 0.32341 0.0
H956 H 0.82834 0.96265 0.31455 0.0
H957 H 0.80022 0.95073 0.42458 0.0
H958 H 0.77059 0.94532 0.43529 0.0
H959 H 0.79659 0.97687 0.4379 0.0
H960 H 0.77315 0.99079 0.40416 0.0
H961 H 0.74697 0.95966 0.40256 0.0
H962 H 0.75973 0.97324 0.36838 0.0
H963 H 0.79247 0.91885 0.31132 0.0
H964 H 0.74992 0.88322 0.30809 0.0
H965 H 0.73391 0.91633 0.38699 0.0
C966 C 0.82091 0.00241 0.3815 0.0
C967 C 0.84056 0.01415 0.36255 0.0
C968 C 0.84326 -0.00042 0.33847 0.0
C969 C 0.82662 0.97364 0.33343 0.0
C970 C 0.80769 0.96256 0.35296 0.0
C971 C 0.80464 0.97658 0.37633 0.0
C972 C 0.78146 0.96084 0.39223 0.0
C973 C 0.78759 0.95829 0.42441 0.0
C974 C 0.76432 0.97177 0.39176 0.0
C975 C 0.77105 0.93604 0.37302 0.0
C976 C 0.7869 0.93716 0.35115 0.0
C977 C 0.78018 0.91751 0.32877 0.0
C978 C 0.75609 0.89708 0.32738 0.0
C979 C 0.73904 0.89681 0.34786 0.0
C980 C 0.74703 0.91565 0.37201 0.0
H981 H 0.99135 0.80325 0.37073 0.0
H982 H 0.96122 0.75724 0.28632 0.0
H983 H 0.00326 0.76983 0.27102 0.0
H984 H 0.04777 0.85397 0.34546 0.0
H985 H 0.06591 0.85627 0.3779 0.0
H986 H 0.03378 0.84578 0.38084 0.0
H987 H 0.02632 0.80475 0.40146 0.0
H988 H 0.05849 0.8155 0.39933 0.0
H989 H 0.03609 0.78544 0.3806 0.0
H990 H 0.04882 0.78554 0.26655 0.0
H991 H 0.09228 0.79774 0.27643 0.0
H992 H 0.09207 0.83265 0.36389 0.0
C993 C 0.99365 0.79617 0.34882 0.0
C994 C 0.97312 0.77961 0.32949 0.0
C995 C 0.97677 0.77006 0.3014 0.0
C996 C 1.00058 0.77728 0.29244 0.0
C997 C 0.02052 0.79381 0.312 0.0
C998 C 0.0172 0.80274 0.33984 0.0
C999 C 0.04122 0.81779 0.35819 0.0
C1000 C 0.04754 0.84508 0.36605 0.0
C1001 C 0.04048 0.80511 0.38655 0.0
C1002 C 0.0587 0.81625 0.33628 0.0
C1003 C 0.04653 0.80255 0.3096 0.0
C1004 C 0.05861 0.79671 0.2871 0.0
C1005 C 0.08337 0.804 0.29266 0.0
C1006 C 0.09566 0.81697 0.32041 0.0
C1007 C 0.08336 0.82381 0.34197 0.0
H1008 H 0.20717 0.19252 0.39276 0.0
H1009 H 0.17817 0.15056 0.30595 0.0
H1010 H 0.16472 0.18008 0.29354 0.0
H1011 H 0.16093 0.21207 0.40475 0.0
H1012 H 0.18318 0.24311 0.42123 0.0
H1013 H 0.18775 0.21703 0.42538 0.0
H1014 H 0.2303 0.24039 0.40231 0.0
H1015 H 0.22612 0.26672 0.39923 0.0
H1016 H 0.23259 0.25244 0.36655 0.0
H1017 H 0.15544 0.21423 0.28988 0.0
H1018 H 0.16077 0.25638 0.28922 0.0
H1019 H 0.19861 0.27868 0.37653 0.0
C1020 C 0.1977 0.18951 0.37134 0.0
C1021 C 0.19322 0.16916 0.3504 0.0
C1022 C 0.18141 0.16595 0.3223 0.0
C1023 C 0.17351 0.18245 0.31523 0.0
C1024 C 0.17769 0.20211 0.33652 0.0
C1025 C 0.19006 0.20613 0.36372 0.0
C1026 C 0.19493 0.23052 0.38091 0.0
C1027 C 0.18086 0.22537 0.40979 0.0
C1028 C 0.22263 0.24858 0.38761 0.0
C1029 C 0.18436 0.24011 0.35857 0.0
C1030 C 0.17352 0.22281 0.33374 0.0
C1031 C 0.16359 0.22778 0.30935 0.0
C1032 C 0.16634 0.25166 0.30936 0.0
C1033 C 0.17947 0.27047 0.33318 0.0
C1034 C 0.18758 0.26428 0.35868 0.0
H1035 H 0.64819 0.52316 0.62882 0.0
H1036 H 0.64399 0.49039 0.71171 0.0
H1037 H 0.68881 0.51768 0.72094 0.0
H1038 H 0.71118 0.53127 0.61154 0.0
H1039 H 0.72009 0.55974 0.59445 0.0
H1040 H 0.6884 0.53483 0.59195 0.0
H1041 H 0.67563 0.56605 0.61504 0.0
H1042 H 0.70712 0.59093 0.61764 0.0
H1043 H 0.68953 0.58367 0.65068 0.0
H1044 H 0.7322 0.55241 0.725 0.0
H1045 H 0.7712 0.5925 0.72391 0.0
H1046 H 0.7483 0.60268 0.63789 0.0
C1047 C 0.65689 0.52137 0.6485 0.0
C1048 C 0.64275 0.50466 0.66953 0.0
C1049 C 0.65459 0.50282 0.69514 0.0
C1050 C 0.68003 0.51822 0.70053 0.0
C1051 C 0.69347 0.53479 0.67961 0.0
C1052 C 0.68241 0.53616 0.65382 0.0
C1053 C 0.70093 0.55661 0.63586 0.0
C1054 C 0.70541 0.54492 0.60672 0.0
C1055 C 0.69282 0.57543 0.62948 0.0
C1056 C 0.72343 0.56834 0.65718 0.0
C1057 C 0.71895 0.55476 0.6817 0.0
C1058 C 0.7362 0.56273 0.70551 0.0
C1059 C 0.75834 0.58544 0.70464 0.0
C1060 C 0.76297 0.60007 0.68034 0.0
C1061 C 0.74551 0.59123 0.65606 0.0
H1062 H 0.4708 0.10516 0.72705 0.0
H1063 H 0.48443 0.10255 0.63255 0.0
H1064 H 0.45895 0.12164 0.6233 0.0
H1065 H 0.40901 0.08674 0.71727 0.0
H1066 H 0.40937 0.1061 0.74979 0.0
H1067 H 0.43053 0.09477 0.74845 0.0
H1068 H 0.46688 0.14057 0.75864 0.0
H1069 H 0.44578 0.15207 0.75969 0.0
H1070 H 0.47036 0.16372 0.73428 0.0
H1071 H 0.42843 0.13829 0.62481 0.0
H1072 H 0.39526 0.1477 0.6367 0.0
H1073 H 0.40379 0.13932 0.73005 0.0
C1074 C 0.46885 0.10892 0.7044 0.0
C1075 C 0.47975 0.1025 0.68056 0.0
C1076 C 0.47632 0.10743 0.65122 0.0
C1077 C 0.46195 0.11834 0.64579 0.0
C1078 C 0.45127 0.12426 0.66996 0.0
C1079 C 0.45464 0.11961 0.69866 0.0
C1080 C 0.43992 0.12562 0.72067 0.0
C1081 C 0.4211 0.10191 0.73486 0.0
C1082 C 0.45675 0.14676 0.74473 0.0
C1083 C 0.42749 0.13426 0.69999 0.0
C1084 C 0.43419 0.13359 0.6708 0.0
C1085 C 0.42335 0.13916 0.6477 0.0
C1086 C 0.40467 0.14466 0.6546 0.0
C1087 C 0.39703 0.14425 0.68426 0.0
C1088 C 0.40929 0.13985 0.70715 0.0
H1089 H 0.89385 0.36075 0.72962 0.0
H1090 H 0.85337 0.36096 0.65168 0.0
H1091 H 0.83136 0.31452 0.64525 0.0
H1092 H 0.90574 0.31638 0.69993 0.0
H1093 H 0.90336 0.30217 0.73412 0.0
H1094 H 0.91125 0.33436 0.73574 0.0
H1095 H 0.87455 0.32413 0.76931 0.0
H1096 H 0.8661 0.29151 0.76671 0.0
H1097 H 0.84401 0.30002 0.75597 0.0
H1098 H 0.81914 0.2693 0.64235 0.0
H1099 H 0.82374 0.23199 0.63778 0.0
H1100 H 0.87169 0.26077 0.71758 0.0
C1101 C 0.87987 0.35105 0.71164 0.0
C1102 C 0.87516 0.36448 0.6913 0.0
C1103 C 0.85713 0.35106 0.6677 0.0
C1104 C 0.84436 0.32466 0.66408 0.0
C1105 C 0.84962 0.31196 0.68445 0.0
C1106 C 0.86709 0.32481 0.7077 0.0
C1107 C 0.87231 0.30733 0.72367 0.0
C1108 C 0.89976 0.31553 0.72329 0.0
C1109 C 0.86372 0.30565 0.75583 0.0
C1110 C 0.85638 0.28284 0.70445 0.0
C1111 C 0.84262 0.28565 0.6827 0.0
C1112 C 0.82922 0.26666 0.65977 0.0
C1113 C 0.83158 0.24526 0.65758 0.0
C1114 C 0.84761 0.24341 0.67779 0.0
C1115 C 0.85855 0.2614 0.70271 0.0
H1116 H 0.18839 0.97572 0.69307 0.0
H1117 H 0.21452 0.95947 0.60968 0.0
H1118 H 0.24047 0.0048 0.6052 0.0
H1119 H 0.19052 0.03456 0.67302 0.0
H1120 H 0.20117 0.04957 0.71051 0.0
H1121 H 0.18113 0.01597 0.70438 0.0
H1122 H 0.2127 0.00912 0.73289 0.0
H1123 H 0.23224 0.04251 0.73979 0.0
H1124 H 0.24392 0.0239 0.72153 0.0
H1125 H 0.26891 0.05099 0.61433 0.0
H1126 H 0.29972 0.09239 0.63937 0.0
H1127 H 0.2539 0.07977 0.71472 0.0
C1128 C 0.19911 0.9817 0.67349 0.0
C1129 C 0.1993 0.96403 0.65169 0.0
C1130 C 0.21397 0.97263 0.62668 0.0
C1131 C 0.22861 0.99839 0.62376 0.0
C1132 C 0.2282 0.01539 0.64579 0.0
C1133 C 0.21381 0.00736 0.67021 0.0
C1134 C 0.21909 0.02923 0.69279 0.0
C1135 C 0.19664 0.03252 0.69531 0.0
C1136 C 0.22751 0.026 0.72352 0.0
C1137 C 0.23971 0.05066 0.67815 0.0
C1138 C 0.24429 0.04244 0.65062 0.0
C1139 C 0.26498 0.05792 0.63528 0.0
C1140 C 0.28225 0.08166 0.64937 0.0
C1141 C 0.2786 0.08953 0.67835 0.0
C1142 C 0.25638 0.07455 0.6919 0.0
H1143 H 0.0256 0.21679 0.63443 0.0
H1144 H 0.04843 0.2332 0.72872 0.0
H1145 H 0.00499 0.21564 0.74165 0.0
H1146 H 0.98311 0.23618 0.64015 0.0
H1147 H 0.96212 0.21296 0.61139 0.0
H1148 H 0.99429 0.22355 0.61068 0.0
H1149 H 0.98424 0.17738 0.60989 0.0
H1150 H 0.95196 0.16672 0.61116 0.0
H1151 H 0.96668 0.15871 0.63906 0.0
H1152 H 0.959 0.20135 0.74339 0.0
H1153 H 0.91713 0.19427 0.73336 0.0
H1154 H 0.92565 0.18619 0.63826 0.0
C1155 C 0.02154 0.21624 0.65787 0.0
C1156 C 0.04044 0.22624 0.68055 0.0
C1157 C 0.03424 0.22551 0.71092 0.0
C1158 C 0.00959 0.21547 0.71846 0.0
C1159 C 0.9914 0.20607 0.69537 0.0
C1160 C 0.99725 0.20641 0.66568 0.0
C1161 C 0.97513 0.1978 0.6448 0.0
C1162 C 0.97889 0.21887 0.62566 0.0
C1163 C 0.96915 0.17371 0.62507 0.0
C1164 C 0.95581 0.19281 0.66723 0.0
C1165 C 0.96529 0.19748 0.69638 0.0
C1166 C 0.95126 0.197 0.72068 0.0
C1167 C 0.92743 0.19273 0.71488 0.0
C1168 C 0.9181 0.189 0.68508 0.0
C1169 C 0.93214 0.1881 0.66123 0.0
H1170 H 0.77811 0.78824 0.64462 0.0
H1171 H 0.82705 0.84356 0.71502 0.0
H1172 H 0.85098 0.82203 0.7156 0.0
H1173 H 0.77082 0.7377 0.67063 0.0
H1174 H 0.77105 0.72091 0.63589 0.0
H1175 H 0.76279 0.74454 0.63549 0.0
H1176 H 0.79689 0.76746 0.59858 0.0
H1177 H 0.80562 0.74392 0.5995 0.0
H1178 H 0.82815 0.77664 0.60855 0.0
H1179 H 0.86227 0.78922 0.71766 0.0
H1180 H 0.85733 0.74778 0.7237 0.0
H1181 H 0.80286 0.7143 0.6503 0.0
C1182 C 0.79441 0.79626 0.65937 0.0
C1183 C 0.80082 0.81747 0.67973 0.0
C1184 C 0.82205 0.82745 0.69899 0.0
C1185 C 0.83582 0.81541 0.69931 0.0
C1186 C 0.82857 0.79392 0.67955 0.0
C1187 C 0.80855 0.78471 0.65951 0.0
C1188 C 0.80232 0.75952 0.64365 0.0
C1189 C 0.77517 0.73952 0.64667 0.0
C1190 C 0.80862 0.76204 0.61061 0.0
C1191 C 0.81971 0.75434 0.66072 0.0
C1192 C 0.83563 0.77498 0.68024 0.0
C1193 C 0.85061 0.77332 0.70172 0.0
C1194 C 0.8479 0.74972 0.70485 0.0
C1195 C 0.83018 0.72816 0.68686 0.0
C1196 C 0.81724 0.73082 0.6633 0.0
H1197 H 0.03457 0.81021 0.70809 0.0
H1198 H 0.01863 0.85104 0.64652 0.0
H1199 H 0.9742 0.8223 0.65086 0.0
H1200 H 0.98795 0.74955 0.68256 0.0
H1201 H 0.98093 0.7385 0.71914 0.0
H1202 H 0.01118 0.76353 0.71274 0.0
H1203 H 0.00748 0.79139 0.7565 0.0
H1204 H 0.97686 0.7665 0.76245 0.0
H1205 H 0.98222 0.79708 0.75573 0.0
H1206 H 0.93147 0.78787 0.66 0.0
H1207 H 0.89448 0.74741 0.66788 0.0
H1208 H 0.93822 0.72894 0.72306 0.0
C1209 C 0.02172 0.81318 0.69568 0.0
C1210 C 0.03004 0.83295 0.67709 0.0
C1211 C 0.01265 0.8362 0.66117 0.0
C1212 C 0.98738 0.82004 0.6636 0.0
C1213 C 0.97975 0.80098 0.68247 0.0
C1214 C 0.99642 0.79743 0.69817 0.0
C1215 C 0.98343 0.7748 0.7158 0.0
C1216 C 0.99133 0.75545 0.707 0.0
C1217 C 0.98776 0.78293 0.74962 0.0
C1218 C 0.95697 0.76517 0.70592 0.0
C1219 C 0.95515 0.78104 0.68757 0.0
C1220 C 0.93264 0.77551 0.67471 0.0
C1221 C 0.91165 0.75263 0.6796 0.0
C1222 C 0.91352 0.73537 0.69654 0.0
C1223 C 0.93629 0.74214 0.71066 0.0
H1224 H 0.18982 0.19989 0.66192 0.0
H1225 H 0.20401 0.24054 0.74991 0.0
H1226 H 0.23383 0.22745 0.76249 0.0
H1227 H 0.19722 0.14783 0.68089 0.0
H1228 H 0.21337 0.14834 0.64766 0.0
H1229 H 0.1908 0.15793 0.64725 0.0
H1230 H 0.22304 0.20094 0.62988 0.0
H1231 H 0.24545 0.19124 0.62965 0.0
H1232 H 0.25175 0.21987 0.65132 0.0
H1233 H 0.26493 0.213 0.76337 0.0
H1234 H 0.2973 0.20288 0.75034 0.0
H1235 H 0.26289 0.17272 0.66161 0.0
C1236 C 0.19872 0.20548 0.68412 0.0
C1237 C 0.1943 0.22075 0.7052 0.0
C1238 C 0.20702 0.22859 0.73359 0.0
C1239 C 0.22383 0.22111 0.74096 0.0
C1240 C 0.22786 0.20606 0.71954 0.0
C1241 C 0.21586 0.19865 0.69154 0.0
C1242 C 0.22564 0.18546 0.67106 0.0
C1243 C 0.20555 0.15827 0.66114 0.0
C1244 C 0.23715 0.20026 0.64389 0.0
C1245 C 0.24495 0.18639 0.69185 0.0
C1246 C 0.24588 0.19811 0.71986 0.0
C1247 C 0.26399 0.2033 0.74176 0.0
C1248 C 0.28214 0.19729 0.73436 0.0
C1249 C 0.28188 0.18626 0.7054 0.0
C1250 C 0.26272 0.18014 0.6843 0.0
H1251 H 0.83592 0.00066 0.68777 0.0
H1252 H 0.84254 -0.00045 0.59162 0.0
H1253 H 0.85286 0.04382 0.5945 0.0
H1254 H 0.80398 0.03047 0.69117 0.0
H1255 H 0.81712 0.04817 0.72694 0.0
H1256 H 0.81642 0.01911 0.71785 0.0
H1257 H 0.86355 0.04212 0.7284 0.0
H1258 H 0.86439 0.07149 0.73698 0.0
H1259 H 0.88336 0.06883 0.70867 0.0
H1260 H 0.85303 0.0842 0.6062 0.0
H1261 H 0.84056 0.11461 0.62552 0.0
H1262 H 0.83604 0.09031 0.71386 0.0
C1263 C 0.84043 0.00997 0.66743 0.0
C1264 C 0.83862 0.99675 0.63952 0.0
C1265 C 0.84404 0.00942 0.61332 0.0
C1266 C 0.85006 0.03462 0.61476 0.0
C1267 C 0.85089 0.04694 0.6426 0.0
C1268 C 0.84634 0.03498 0.66851 0.0
C1269 C 0.84432 0.05054 0.69486 0.0
C1270 C 0.81897 0.03623 0.70845 0.0
C1271 C 0.86516 0.05874 0.71862 0.0
C1272 C 0.84727 0.07261 0.67952 0.0
C1273 C 0.85152 0.07058 0.64946 0.0
C1274 C 0.8506 0.08653 0.62988 0.0
C1275 C 0.84375 0.10394 0.64096 0.0
C1276 C 0.83787 0.1049 0.67114 0.0
C1277 C 0.84117 0.09024 0.69084 0.0
H1278 H 0.5052 0.3357 0.64526 0.0
H1279 H 0.5164 0.35085 0.74172 0.0
H1280 H 0.47952 0.30943 0.74737 0.0
H1281 H 0.4394 0.30721 0.64639 0.0
H1282 H 0.43414 0.28575 0.61376 0.0
H1283 H 0.46207 0.31571 0.61855 0.0
H1284 H 0.48662 0.29253 0.61275 0.0
H1285 H 0.45864 0.26246 0.6094 0.0
H1286 H 0.48195 0.26948 0.63791 0.0
H1287 H 0.44069 0.26649 0.74212 0.0
H1288 H 0.399 0.23086 0.72662 0.0
H1289 H 0.41375 0.24457 0.63406 0.0
C1290 C 0.4999 0.33018 0.66755 0.0
C1291 C 0.51365 0.34611 0.6931 0.0
C1292 C 0.50595 0.33874 0.72193 0.0
C1293 C 0.48527 0.31518 0.72531 0.0
C1294 C 0.47242 0.2995 0.69959 0.0
C1295 C 0.47908 0.30707 0.67129 0.0
C1296 C 0.46075 0.28818 0.64735 0.0
C1297 C 0.44836 0.29991 0.63055 0.0
C1298 C 0.47272 0.27753 0.62558 0.0
C1299 C 0.44296 0.26852 0.66652 0.0
C1300 C 0.45004 0.27516 0.6966 0.0
C1301 C 0.4351 0.26095 0.71861 0.0
C1302 C 0.41161 0.24052 0.70972 0.0
C1303 C 0.40352 0.23494 0.67928 0.0
C1304 C 0.4199 0.24815 0.65745 0.0
H1305 H 0.65996 0.14324 0.69916 0.0
H1306 H 0.62827 0.08685 0.623 0.0
H1307 H 0.66992 0.09906 0.60685 0.0
H1308 H 0.71436 0.19063 0.6641 0.0
H1309 H 0.7341 0.19851 0.69712 0.0
H1310 H 0.70195 0.18776 0.70063 0.0
H1311 H 0.69706 0.15185 0.73109 0.0
H1312 H 0.72925 0.16301 0.72832 0.0
H1313 H 0.70702 0.13083 0.71568 0.0
H1314 H 0.71485 0.11521 0.60106 0.0
H1315 H 0.75847 0.12858 0.61087 0.0
H1316 H 0.76104 0.17355 0.69138 0.0
C1317 C 0.66181 0.13379 0.67879 0.0
C1318 C 0.6409 0.11437 0.66206 0.0
C1319 C 0.64405 0.10188 0.63605 0.0
C1320 C 0.66763 0.10886 0.62655 0.0
C1321 C 0.68791 0.12824 0.64344 0.0
C1322 C 0.68521 0.1402 0.66932 0.0
C1323 C 0.70983 0.15814 0.68549 0.0
C1324 C 0.71538 0.18538 0.68691 0.0
C1325 C 0.71085 0.15049 0.71699 0.0
C1326 C 0.72682 0.15413 0.66499 0.0
C1327 C 0.71386 0.13723 0.64046 0.0
C1328 C 0.72524 0.12884 0.61981 0.0
C1329 C 0.75011 0.13678 0.62529 0.0
C1330 C 0.76324 0.15283 0.65121 0.0
C1331 C 0.75169 0.16231 0.67064 0.0
H1332 H 0.85915 0.51701 0.72427 0.0
H1333 H 0.87121 0.49676 0.63366 0.0
H1334 H 0.86288 0.52828 0.61525 0.0
H1335 H 0.81174 0.53202 0.70646 0.0
H1336 H 0.82373 0.55905 0.73377 0.0
H1337 H 0.82797 0.5331 0.74012 0.0
H1338 H 0.87513 0.56306 0.7464 0.0
H1339 H 0.87079 0.58903 0.74106 0.0
H1340 H 0.89085 0.58323 0.71756 0.0
H1341 H 0.85233 0.56059 0.60628 0.0
H1342 H 0.85281 0.60057 0.60821 0.0
H1343 H 0.85238 0.60429 0.70499 0.0
C1344 C 0.85986 0.51918 0.70055 0.0
C1345 C 0.86538 0.50418 0.68024 0.0
C1346 C 0.86685 0.50795 0.64951 0.0
C1347 C 0.86185 0.52558 0.63882 0.0
C1348 C 0.85582 0.53962 0.65923 0.0
C1349 C 0.85565 0.53731 0.68957 0.0
C1350 C 0.85162 0.55699 0.70694 0.0
C1351 C 0.82732 0.54454 0.72277 0.0
C1352 C 0.8734 0.5741 0.72929 0.0
C1353 C 0.85022 0.57111 0.68166 0.0
C1354 C 0.85161 0.55992 0.65428 0.0
C1355 C 0.85122 0.5695 0.62754 0.0
C1356 C 0.85117 0.59207 0.62886 0.0
C1357 C 0.8523 0.60528 0.65671 0.0
C1358 C 0.85073 0.59417 0.68343 0.0
H1359 H 0.48682 0.9761 0.25474 0.0
H1360 H 0.50048 0.9144 0.23671 0.0
H1361 H 0.51172 0.92641 0.18551 0.0
H1362 H 0.45867 0.96971 0.18544 0.0
H1363 H 0.4717 0.00292 0.18312 0.0
H1364 H 0.46738 0.991 0.21909 0.0
H1365 H 0.51353 0.02134 0.23372 0.0
H1366 H 0.518 0.03324 0.1976 0.0
H1367 H 0.53635 0.02074 0.21021 0.0
H1368 H 0.51734 0.94274 0.13415 0.0
H1369 H 0.51568 0.9613 0.08801 0.0
H1370 H 0.49987 0.01287 0.14106 0.0
C1371 C 0.49257 0.96533 0.24025 0.0
C1372 C 0.49283 0.94434 0.24985 0.0
C1373 C 0.50027 0.93067 0.22999 0.0
C1374 C 0.50675 0.93737 0.20084 0.0
C1375 C 0.50601 0.958 0.19197 0.0
C1376 C 0.49925 0.97186 0.21123 0.0
C1377 C 0.49841 0.9922 0.19583 0.0
C1378 C 0.4725 0.98873 0.19586 0.0
C1379 C 0.51773 0.01843 0.2102 0.0
C1380 C 0.50497 0.98712 0.16467 0.0
C1381 C 0.50958 0.96753 0.16278 0.0
C1382 C 0.5142 0.95841 0.1355 0.0
C1383 C 0.51337 0.96914 0.10941 0.0
C1384 C 0.50776 0.9886 0.11089 0.0
C1385 C 0.50436 0.99811 0.13911 0.0
H1386 H 0.08889 0.51677 0.23879 0.0
H1387 H 0.05841 0.55968 0.28095 0.0
H1388 H 0.04477 0.56404 0.23094 0.0
H1389 H 0.10891 0.54817 0.17009 0.0
H1390 H 0.09903 0.519 0.14727 0.0
H1391 H 0.10911 0.52246 0.18584 0.0
H1392 H 0.06786 0.48304 0.19603 0.0
H1393 H 0.05793 0.4793 0.15746 0.0
H1394 H 0.03946 0.48168 0.18663 0.0
H1395 H 0.03001 0.55871 0.17614 0.0
H1396 H 0.01368 0.54192 0.12363 0.0
H1397 H 0.05525 0.50383 0.11852 0.0
C1398 C 0.07992 0.52765 0.2373 0.0
C1399 C 0.07501 0.53832 0.26327 0.0
C1400 C 0.06251 0.55169 0.26096 0.0
C1401 C 0.05483 0.5543 0.23273 0.0
C1402 C 0.05977 0.54332 0.20726 0.0
C1403 C 0.07196 0.53015 0.20946 0.0
C1404 C 0.07252 0.51749 0.17951 0.0
C1405 C 0.09897 0.52739 0.17013 0.0
C1406 C 0.05862 0.48869 0.17994 0.0
C1407 C 0.05892 0.52566 0.15992 0.0
C1408 C 0.05163 0.54056 0.17611 0.0
C1409 C 0.03616 0.5476 0.16309 0.0
C1410 C 0.02716 0.53827 0.13323 0.0
C1411 C 0.03383 0.52224 0.11704 0.0
C1412 C 0.05062 0.51681 0.13024 0.0
H1413 H 0.46874 0.50666 0.24137 0.0
H1414 H 0.47893 0.58097 0.23803 0.0
H1415 H 0.49269 0.58186 0.18631 0.0
H1416 H 0.51906 0.51369 0.19624 0.0
H1417 H 0.5015 0.48251 0.17717 0.0
H1418 H 0.49483 0.48884 0.21481 0.0
H1419 H 0.44947 0.47185 0.1977 0.0
H1420 H 0.45596 0.46519 0.16017 0.0
H1421 H 0.44274 0.48486 0.16711 0.0
H1422 H 0.50369 0.57353 0.13354 0.0
H1423 H 0.50576 0.55444 0.08341 0.0
H1424 H 0.48733 0.48566 0.1222 0.0
C1425 C 0.47402 0.52314 0.22974 0.0
C1426 C 0.47275 0.54369 0.24344 0.0
C1427 C 0.47951 0.56488 0.22759 0.0
C1428 C 0.48761 0.56568 0.1984 0.0
C1429 C 0.4886 0.54502 0.18534 0.0
C1430 C 0.48164 0.524 0.20043 0.0
C1431 C 0.48192 0.50327 0.18056 0.0
C1432 C 0.50044 0.49671 0.19294 0.0
C1433 C 0.45599 0.47993 0.17612 0.0
C1434 C 0.49021 0.5159 0.15204 0.0
C1435 C 0.49428 0.54006 0.15512 0.0
C1436 C 0.50071 0.55466 0.13092 0.0
C1437 C 0.50202 0.5438 0.10261 0.0
C1438 C 0.49662 0.51862 0.099 0.0
C1439 C 0.49154 0.50499 0.12429 0.0
H1440 H 0.95894 0.48669 0.78366 0.0
H1441 H 0.89126 0.41665 0.79174 0.0
H1442 H 0.90576 0.4145 0.84185 0.0
H1443 H 1.00073 0.47367 0.82669 0.0
H1444 H 0.01753 0.50529 0.84473 0.0
H1445 H 0.00369 0.49944 0.8076 0.0
H1446 H 0.97999 0.52178 0.82556 0.0
H1447 H 0.99396 0.52789 0.86253 0.0
H1448 H 0.96101 0.51139 0.85718 0.0
H1449 H 0.92515 0.42241 0.8933 0.0
H1450 H 0.94653 0.44196 0.9429 0.0
H1451 H 0.00169 0.50622 0.90141 0.0
C1452 C 0.94746 0.47072 0.79583 0.0
C1453 C 0.92404 0.45185 0.78399 0.0
C1454 C 0.90921 0.43143 0.80067 0.0
C1455 C 0.91739 0.42988 0.82897 0.0
C1456 C 0.94042 0.44897 0.84037 0.0
C1457 C 0.95519 0.46912 0.82441 0.0
C1458 C 0.97766 0.48871 0.84323 0.0
C1459 C 1.0013 0.49195 0.82974 0.0
C1460 C 0.97817 0.51391 0.84738 0.0
C1461 C 0.97301 0.47659 0.87225 0.0
C1462 C 0.95163 0.45351 0.87013 0.0
C1463 C 0.94229 0.44015 0.89509 0.0
C1464 C 0.95468 0.45116 0.92315 0.0
C1465 C 0.97605 0.47517 0.92577 0.0
C1466 C 0.98566 0.48752 0.89982 0.0
H1467 H 0.50245 0.43343 0.76796 0.0
H1468 H 0.58082 0.48559 0.76941 0.0
H1469 H 0.58151 0.49505 0.82395 0.0
H1470 H 0.48929 0.47119 0.81559 0.0
H1471 H 0.46564 0.44669 0.83517 0.0
H1472 H 0.47173 0.43958 0.79763 0.0
H1473 H 0.47879 0.40495 0.81555 0.0
H1474 H 0.47284 0.41211 0.85331 0.0
H1475 H 0.50116 0.41286 0.84566 0.0
H1476 H 0.57395 0.50167 0.87622 0.0
H1477 H 0.55786 0.5109 0.92228 0.0
H1478 H 0.48341 0.45829 0.88785 0.0
C1479 C 0.51976 0.44628 0.78009 0.0
C1480 C 0.5417 0.45852 0.76481 0.0
C1481 C 0.56394 0.47589 0.78093 0.0
C1482 C 0.56452 0.48119 0.8119 0.0
C1483 C 0.54263 0.46915 0.82641 0.0
C1484 C 0.52055 0.45231 0.81113 0.0
C1485 C 0.49932 0.44494 0.83165 0.0
C1486 C 0.48039 0.45098 0.81927 0.0
C1487 C 0.48731 0.41705 0.83684 0.0
C1488 C 0.5128 0.46161 0.86011 0.0
C1489 C 0.53788 0.47439 0.8568 0.0
C1490 C 0.5544 0.49158 0.87923 0.0
C1491 C 0.54509 0.49664 0.90533 0.0
C1492 C 0.51948 0.4851 0.90857 0.0
C1493 C 0.50305 0.46689 0.88605 0.0
H1494 H 0.51123 0.0218 0.77551 0.0
H1495 H 0.56042 0.10218 0.79428 0.0
H1496 H 0.5537 0.09862 0.84814 0.0
H1497 H 0.4686 0.0138 0.83513 0.0
H1498 H 0.46535 0.98454 0.84423 0.0
H1499 H 0.47146 0.9933 0.80655 0.0
H1500 H 0.50998 0.9887 0.80778 0.0
H1501 H 0.50359 0.97938 0.8451 0.0
H1502 H 0.53309 0.00551 0.83778 0.0
H1503 H 0.54284 0.08675 0.89972 0.0
H1504 H 0.53532 0.06624 0.94653 0.0
H1505 H 0.49567 0.99321 0.89572 0.0
C1506 C 0.52044 0.03862 0.79102 0.0
C1507 C 0.53626 0.06231 0.78072 0.0
C1508 C 0.54832 0.08384 0.80167 0.0
C1509 C 0.54436 0.08206 0.83228 0.0
C1510 C 0.5285 0.05855 0.84173 0.0
C1511 C 0.51714 0.03709 0.82187 0.0
C1512 C 0.50323 0.01383 0.8384 0.0
C1513 C 0.47551 0.00059 0.83061 0.0
C1514 C 0.51308 0.99581 0.83189 0.0
C1515 C 0.50918 0.02555 0.87063 0.0
C1516 C 0.52307 0.05146 0.87191 0.0
C1517 C 0.53177 0.06651 0.89904 0.0
C1518 C 0.52724 0.05475 0.92551 0.0
C1519 C 0.51442 0.02828 0.92458 0.0
C1520 C 0.50475 0.0135 0.89693 0.0
H1521 H 0.14601 0.30951 0.58691 0.0
H1522 H 0.18065 0.26426 0.57912 0.0
H1523 H 0.19054 0.27484 0.52713 0.0
H1524 H 0.11766 0.29158 0.51548 0.0
H1525 H 0.12202 0.32197 0.50975 0.0
H1526 H 0.12003 0.31283 0.54706 0.0
H1527 H 0.16214 0.35265 0.56247 0.0
H1528 H 0.1642 0.36197 0.52516 0.0
H1529 H 0.18848 0.35876 0.54129 0.0
H1530 H 0.193 0.28749 0.47349 0.0
H1531 H 0.18825 0.3016 0.42501 0.0
H1532 H 0.153 0.33895 0.47011 0.0
C1533 C 0.15607 0.30215 0.57453 0.0
C1534 C 0.16258 0.28609 0.5872 0.0
C1535 C 0.17557 0.27674 0.57001 0.0
C1536 C 0.18127 0.28263 0.54041 0.0
C1537 C 0.17409 0.29811 0.5284 0.0
C1538 C 0.16197 0.30791 0.54515 0.0
C1539 C 0.15507 0.323 0.52688 0.0
C1540 C 0.12704 0.31166 0.52466 0.0
C1541 C 0.16827 0.35074 0.53972 0.0
C1542 C 0.16471 0.31976 0.49707 0.0
C1543 C 0.17575 0.30548 0.49817 0.0
C1544 C 0.1847 0.29901 0.47253 0.0
C1545 C 0.182 0.30714 0.4451 0.0
C1546 C 0.1703 0.32142 0.44363 0.0
C1547 C 0.16207 0.32808 0.47023 0.0
H1548 H 0.73059 0.83245 0.58459 0.0
H1549 H 0.76313 0.91306 0.60144 0.0
H1550 H 0.75074 0.91471 0.54938 0.0
H1551 H 0.74934 0.83226 0.5093 0.0
H1552 H 0.72167 0.80323 0.49709 0.0
H1553 H 0.73328 0.80929 0.53534 0.0
H1554 H 0.69147 0.80211 0.55372 0.0
H1555 H 0.67971 0.79588 0.51555 0.0
H1556 H 0.67894 0.82006 0.53999 0.0
H1557 H 0.73193 0.9055 0.49345 0.0
H1558 H 0.71032 0.88659 0.44311 0.0
H1559 H 0.69434 0.8135 0.46668 0.0
C1560 C 0.73509 0.85047 0.57737 0.0
C1561 C 0.74778 0.87259 0.59679 0.0
C1562 C 0.7536 0.89589 0.58655 0.0
C1563 C 0.74656 0.89697 0.55712 0.0
C1564 C 0.73406 0.87461 0.53829 0.0
C1565 C 0.72867 0.85189 0.54826 0.0
C1566 C 0.71549 0.83038 0.52442 0.0
C1567 C 0.73087 0.81808 0.51604 0.0
C1568 C 0.68989 0.81099 0.534 0.0
C1569 C 0.71378 0.84426 0.49949 0.0
C1570 C 0.72437 0.86972 0.50734 0.0
C1571 C 0.72369 0.88553 0.48718 0.0
C1572 C 0.71147 0.87474 0.45866 0.0
C1573 C 0.70016 0.84848 0.45099 0.0
C1574 C 0.70216 0.83357 0.47167 0.0
H1575 H 0.14839 0.84528 0.57866 0.0
H1576 H 0.13639 0.90763 0.57123 0.0
H1577 H 0.1496 0.91043 0.51924 0.0
H1578 H 0.2012 0.86575 0.53119 0.0
H1579 H 0.19068 0.83434 0.51426 0.0
H1580 H 0.18328 0.8392 0.55206 0.0
H1581 H 0.13691 0.8097 0.5378 0.0
H1582 H 0.14424 0.80443 0.50023 0.0
H1583 H 0.12329 0.81582 0.50671 0.0
H1584 H 0.16187 0.90483 0.46688 0.0
H1585 H 0.16574 0.88691 0.41701 0.0
H1586 H 0.16827 0.82765 0.45866 0.0
C1587 C 0.14876 0.85963 0.56612 0.0
C1588 C 0.14136 0.8762 0.57884 0.0
C1589 C 0.14176 0.89456 0.56171 0.0
C1590 C 0.14955 0.89653 0.53233 0.0
C1591 C 0.15676 0.87991 0.52036 0.0
C1592 C 0.15607 0.86157 0.53661 0.0
C1593 C 0.162 0.84419 0.51759 0.0
C1594 C 0.1857 0.84599 0.5295 0.0
C1595 C 0.14032 0.81694 0.51545 0.0
C1596 C 0.16558 0.85526 0.48799 0.0
C1597 C 0.16311 0.87624 0.49009 0.0
C1598 C 0.16412 0.88859 0.46501 0.0
C1599 C 0.16653 0.87847 0.43684 0.0
C1600 C 0.16744 0.85608 0.43425 0.0
C1601 C 0.1679 0.845 0.46023 0.0
H1602 H 0.62553 0.81237 0.11365 0.0
H1603 H 0.55156 0.75596 0.13273 0.0
H1604 H 0.56621 0.75453 0.18294 0.0
H1605 H 0.65867 0.78933 0.15861 0.0
H1606 H 0.68249 0.82078 0.17169 0.0
H1607 H 0.66732 0.81453 0.1353 0.0
H1608 H 0.65561 0.84844 0.1496 0.0
H1609 H 0.6711 0.85502 0.18565 0.0
H1610 H 0.63935 0.84665 0.18311 0.0
H1611 H 0.58723 0.76248 0.23258 0.0
H1612 H 0.61224 0.7832 0.27964 0.0
H1613 H 0.6727 0.83425 0.22928 0.0
C1614 C 0.61256 0.79945 0.12828 0.0
C1615 C 0.58744 0.7843 0.11936 0.0
C1616 C 0.57088 0.76791 0.13923 0.0
C1617 C 0.57907 0.76669 0.16765 0.0
C1618 C 0.60388 0.78198 0.17595 0.0
C1619 C 0.62039 0.79824 0.15698 0.0
C1620 C 0.64538 0.81496 0.17277 0.0
C1621 C 0.6646 0.80956 0.15875 0.0
C1622 C 0.6533 0.8429 0.1728 0.0
C1623 C 0.63994 0.80636 0.20388 0.0
C1624 C 0.61611 0.78679 0.20502 0.0
C1625 C 0.60612 0.77737 0.23192 0.0
C1626 C 0.62053 0.78901 0.25855 0.0
C1627 C 0.64448 0.80985 0.25794 0.0
C1628 C 0.65454 0.818 0.2302 0.0
H1629 H 0.23698 0.82816 0.11018 0.0
H1630 H 0.17218 0.75518 0.08843 0.0
H1631 H 0.15827 0.75667 0.14005 0.0
H1632 H 0.24652 0.81724 0.18652 0.0
H1633 H 0.25789 0.84953 0.20052 0.0
H1634 H 0.26233 0.84184 0.16232 0.0
H1635 H 0.24098 0.86501 0.14372 0.0
H1636 H 0.23656 0.8728 0.1818 0.0
H1637 H 0.21059 0.8562 0.1553 0.0
H1638 H 0.15099 0.76851 0.19494 0.0
H1639 H 0.15202 0.78882 0.24576 0.0
H1640 H 0.22318 0.85212 0.22942 0.0
C1641 C 0.21994 0.81247 0.11644 0.0
C1642 C 0.2055 0.79166 0.09567 0.0
C1643 C 0.1834 0.77129 0.10437 0.0
C1644 C 0.17542 0.772 0.13354 0.0
C1645 C 0.19011 0.79299 0.1537 0.0
C1646 C 0.21208 0.81265 0.14544 0.0
C1647 C 0.2248 0.83305 0.17079 0.0
C1648 C 0.24933 0.83555 0.18062 0.0
C1649 C 0.22842 0.85824 0.16239 0.0
C1650 C 0.20621 0.82241 0.19435 0.0
C1651 C 0.18631 0.79924 0.18454 0.0
C1652 C 0.16663 0.78659 0.20284 0.0
C1653 C 0.16733 0.79818 0.23164 0.0
C1654 C 0.18747 0.8222 0.24151 0.0
C1655 C 0.20722 0.83393 0.22261 0.0
H1656 H 0.17279 0.35216 0.10414 0.0
H1657 H 0.22769 0.431 0.12391 0.0
H1658 H 0.22151 0.42715 0.17784 0.0
H1659 H 0.13274 0.34808 0.16594 0.0
H1660 H 0.12637 0.31735 0.17365 0.0
H1661 H 0.13251 0.32654 0.13615 0.0
H1662 H 0.16788 0.31684 0.13448 0.0
H1663 H 0.16135 0.30702 0.17155 0.0
H1664 H 0.19185 0.33112 0.16379 0.0
H1665 H 0.2097 0.41517 0.22941 0.0
H1666 H 0.20113 0.39373 0.27558 0.0
H1667 H 0.15751 0.32181 0.22341 0.0
C1668 C 0.18339 0.36861 0.11987 0.0
C1669 C 0.2006 0.39195 0.10982 0.0
C1670 C 0.21444 0.41294 0.13108 0.0
C1671 C 0.21081 0.41102 0.16175 0.0
C1672 C 0.19347 0.38791 0.17093 0.0
C1673 C 0.18043 0.36688 0.15074 0.0
C1674 C 0.16505 0.34368 0.16688 0.0
C1675 C 0.13754 0.3333 0.16025 0.0
C1676 C 0.17197 0.32349 0.1587 0.0
C1677 C 0.17246 0.35478 0.19924 0.0
C1678 C 0.18791 0.38054 0.201 0.0
C1679 C 0.19755 0.39503 0.22835 0.0
C1680 C 0.19239 0.38276 0.25448 0.0
C1681 C 0.17839 0.35626 0.25293 0.0
C1682 C 0.16776 0.34215 0.22511 0.0
H1683 H 0.82459 0.64715 0.92486 0.0
H1684 H 0.83199 0.58146 0.90643 0.0
H1685 H 0.84183 0.59175 0.85448 0.0
H1686 H 0.79492 0.64212 0.85777 0.0
H1687 H 0.81032 0.67535 0.85407 0.0
H1688 H 0.80686 0.66447 0.89057 0.0
H1689 H 0.85394 0.69155 0.9014 0.0
H1690 H 0.85751 0.7024 0.86472 0.0
H1691 H 0.87416 0.68768 0.8761 0.0
H1692 H 0.84682 0.6069 0.8029 0.0
H1693 H 0.84485 0.62483 0.75641 0.0
H1694 H 0.83479 0.68066 0.80902 0.0
C1695 C 0.82874 0.63518 0.91009 0.0
C1696 C 0.82764 0.61357 0.91984 0.0
C1697 C 0.83297 0.59828 0.89964 0.0
C1698 C 0.83862 0.60398 0.87004 0.0
C1699 C 0.83927 0.62527 0.86104 0.0
C1700 C 0.83464 0.64073 0.88057 0.0
C1701 C 0.83498 0.66158 0.86491 0.0
C1702 C 0.8103 0.6608 0.86694 0.0
C1703 C 0.85642 0.68732 0.87754 0.0
C1704 C 0.83921 0.65464 0.83324 0.0
C1705 C 0.84219 0.63399 0.83148 0.0
C1706 C 0.84495 0.62336 0.80411 0.0
C1707 C 0.84397 0.63374 0.77782 0.0
C1708 C 0.83987 0.65422 0.77917 0.0
C1709 C 0.83816 0.66512 0.80735 0.0
H1710 H 0.39245 0.17706 0.92271 0.0
H1711 H 0.44074 0.25752 0.92276 0.0
H1712 H 0.4237 0.25546 0.8721 0.0
H1713 H 0.39761 0.16127 0.84678 0.0
H1714 H 0.3662 0.13592 0.84215 0.0
H1715 H 0.38212 0.1447 0.87828 0.0
H1716 H 0.34774 0.15108 0.90118 0.0
H1717 H 0.33184 0.1425 0.86501 0.0
H1718 H 0.33997 0.17218 0.8855 0.0
H1719 H 0.40154 0.24272 0.81854 0.0
H1720 H 0.37763 0.22094 0.77045 0.0
H1721 H 0.34391 0.15027 0.81032 0.0
C1722 C 0.39943 0.19441 0.91236 0.0
C1723 C 0.41811 0.21742 0.92672 0.0
C1724 C 0.42672 0.23956 0.91207 0.0
C1725 C 0.41699 0.23859 0.88335 0.0
C1726 C 0.3986 0.21538 0.86979 0.0
C1727 C 0.38999 0.19377 0.8841 0.0
C1728 C 0.37087 0.17088 0.86508 0.0
C1729 C 0.37974 0.15211 0.85763 0.0
C1730 C 0.34614 0.15845 0.88009 0.0
C1731 C 0.36971 0.18285 0.83778 0.0
C1732 C 0.38586 0.20844 0.84038 0.0
C1733 C 0.38872 0.22269 0.8165 0.0
C1734 C 0.37512 0.21021 0.78923 0.0
C1735 C 0.35894 0.18385 0.78629 0.0
C1736 C 0.3559 0.17045 0.81141 0.0
H1737 H 0.80825 0.17073 0.91259 0.0
H1738 H 0.8094 0.24095 0.90858 0.0
H1739 H 0.82282 0.24302 0.85671 0.0
H1740 H 0.85985 0.18381 0.86514 0.0
H1741 H 0.84487 0.15231 0.84673 0.0
H1742 H 0.83837 0.15782 0.88477 0.0
H1743 H 0.79191 0.1354 0.86976 0.0
H1744 H 0.79827 0.12954 0.83187 0.0
H1745 H 0.7817 0.14585 0.83951 0.0
H1746 H 0.83461 0.23669 0.8046 0.0
H1747 H 0.83719 0.21892 0.75406 0.0
H1748 H 0.82583 0.1518 0.79139 0.0
C1749 C 0.81152 0.18658 0.90076 0.0
C1750 C 0.8078 0.20565 0.91436 0.0
C1751 C 0.81191 0.226 0.89827 0.0
C1752 C 0.81984 0.22752 0.869 0.0
C1753 C 0.82332 0.20838 0.85608 0.0
C1754 C 0.81887 0.18807 0.87126 0.0
C1755 C 0.82124 0.16863 0.85117 0.0
C1756 C 0.84234 0.16547 0.86265 0.0
C1757 C 0.79683 0.14338 0.84788 0.0
C1758 C 0.82723 0.18096 0.82226 0.0
C1759 C 0.82901 0.20419 0.82568 0.0
C1760 C 0.83341 0.21859 0.80165 0.0
C1761 C 0.83501 0.20848 0.7731 0.0
C1762 C 0.83169 0.18407 0.769 0.0
C1763 C 0.82852 0.17058 0.79403 0.0
H1764 H 0.29572 0.15759 0.44703 0.0
H1765 H 0.22967 0.08619 0.45535 0.0
H1766 H 0.24431 0.0854 0.5061 0.0
H1767 H 0.33884 0.14779 0.49132 0.0
H1768 H 0.35444 0.17955 0.50902 0.0
H1769 H 0.34058 0.17284 0.47176 0.0
H1770 H 0.31513 0.19341 0.48896 0.0
H1771 H 0.32906 0.20035 0.5261 0.0
H1772 H 0.29612 0.18252 0.52048 0.0
H1773 H 0.26428 0.09409 0.5575 0.0
H1774 H 0.28598 0.11391 0.60689 0.0
H1775 H 0.3385 0.17974 0.56543 0.0
C1776 C 0.28462 0.14167 0.45946 0.0
C1777 C 0.26166 0.12192 0.44749 0.0
C1778 C 0.24727 0.10157 0.46442 0.0
C1779 C 0.25554 0.10083 0.49307 0.0
C1780 C 0.27815 0.12072 0.50455 0.0
C1781 C 0.29237 0.14091 0.4884 0.0
C1782 C 0.31439 0.1613 0.50722 0.0
C1783 C 0.33849 0.16561 0.49403 0.0
C1784 C 0.31361 0.18583 0.51091 0.0
C1785 C 0.3102 0.1495 0.53643 0.0
C1786 C 0.28943 0.12593 0.53438 0.0
C1787 C 0.28087 0.11233 0.55927 0.0
C1788 C 0.29343 0.12353 0.58718 0.0
C1789 C 0.31413 0.14804 0.58982 0.0
C1790 C 0.32292 0.16077 0.56393 0.0
H1791 H 0.87636 0.1067 0.46344 0.0
H1792 H 0.87301 0.16125 0.41197 0.0
H1793 H 0.85711 0.1748 0.45527 0.0
H1794 H 0.82034 0.09178 0.50619 0.0
H1795 H 0.83357 0.08838 0.5398 0.0
H1796 H 0.84159 0.08047 0.50362 0.0
H1797 H 0.88769 0.1112 0.51814 0.0
H1798 H 0.87972 0.11885 0.5543 0.0
H1799 H 0.89787 0.14349 0.53095 0.0
H1800 H 0.84564 0.18525 0.50445 0.0
H1801 H 0.84319 0.19508 0.55813 0.0
H1802 H 0.85403 0.13422 0.57887 0.0
C1803 C 0.87205 0.12133 0.46117 0.0
C1804 C 0.87593 0.13293 0.43427 0.0
C1805 C 0.8701 0.15202 0.43225 0.0
C1806 C 0.86088 0.15971 0.45667 0.0
C1807 C 0.85724 0.14787 0.48279 0.0
C1808 C 0.86266 0.12911 0.48529 0.0
C1809 C 0.85882 0.12089 0.51671 0.0
C1810 C 0.8373 0.09377 0.51656 0.0
C1811 C 0.88244 0.12381 0.53085 0.0
C1812 C 0.85225 0.13932 0.53206 0.0
C1813 C 0.85058 0.15403 0.51169 0.0
C1814 C 0.84643 0.17357 0.5205 0.0
C1815 C 0.84499 0.17895 0.55101 0.0
C1816 C 0.84796 0.16508 0.57245 0.0
C1817 C 0.85081 0.14447 0.56284 0.0
H1818 H 0.84514 0.68726 0.44356 0.0
H1819 H 0.8933 0.76776 0.46257 0.0
H1820 H 0.88666 0.76393 0.5165 0.0
H1821 H 0.80228 0.67802 0.50238 0.0
H1822 H 0.79961 0.64902 0.51156 0.0
H1823 H 0.80593 0.65794 0.47397 0.0
H1824 H 0.84509 0.65451 0.47584 0.0
H1825 H 0.83847 0.64492 0.51303 0.0
H1826 H 0.86779 0.67155 0.50621 0.0
H1827 H 0.87508 0.75171 0.56807 0.0
H1828 H 0.86721 0.731 0.61478 0.0
H1829 H 0.82952 0.65812 0.5634 0.0
C1830 C 0.85421 0.70404 0.45915 0.0
C1831 C 0.86963 0.72785 0.44896 0.0
C1832 C 0.88152 0.74935 0.46996 0.0
C1833 C 0.87759 0.7474 0.50058 0.0
C1834 C 0.86198 0.72376 0.50991 0.0
C1835 C 0.851 0.70234 0.48996 0.0
C1836 C 0.83732 0.67895 0.50628 0.0
C1837 C 0.80964 0.66517 0.49805 0.0
C1838 C 0.84781 0.66146 0.49997 0.0
C1839 C 0.8428 0.69055 0.53852 0.0
C1840 C 0.85633 0.71649 0.53999 0.0
C1841 C 0.86437 0.73144 0.56723 0.0
C1842 C 0.85961 0.71956 0.59364 0.0
C1843 C 0.8473 0.69309 0.59251 0.0
C1844 C 0.83824 0.67839 0.56474 0.0
loop_
_geom_bond_atom_site_label_1
_geom_bond_atom_site_label_2
_geom_bond_distance
_geom_bond_site_symmetry_2
_ccdc_geom_bond_type
O0 Cd1 2.300 . S
O0 C7 1.275 . S
Cd1 O0 2.300 . S
Cd1 O9 2.381 . S
Cd1 O10 2.378 . S
O2 Cd3 2.385 . S
O2 C7 1.255 . S
Cd3 O2 2.385 . S
Cd3 O4 2.317 . S
O4 Cd3 2.317 . S
O4 C5 1.232 . S
C5 O4 1.232 . S
C5 O6 1.218 . S
O6 C5 1.218 . S
C7 O0 1.275 . S
C7 O2 1.255 . S
C8 O9 1.258 . S
C8 O10 1.256 . S
O9 Cd1 2.381 . S
O9 C8 1.258 . S
O10 Cd1 2.378 . S
O10 C8 1.256 . S
O11 Cd12 2.300 . S
O11 C18 1.275 . S
Cd12 O11 2.300 . S
Cd12 O20 2.381 . S
Cd12 O21 2.378 . S
O13 Cd14 2.385 . S
O13 C18 1.255 . S
Cd14 O13 2.385 . S
Cd14 O15 2.317 . S
O15 Cd14 2.317 . S
O15 C16 1.232 . S
C16 O15 1.232 . S
C16 O17 1.218 . S
O17 C16 1.218 . S
C18 O11 1.275 . S
C18 O13 1.255 . S
C19 O20 1.258 . S
C19 O21 1.256 . S
O20 Cd12 2.381 . S
O20 C19 1.258 . S
O21 Cd12 2.378 . S
O21 C19 1.256 . S
O22 Cd23 2.300 . S
O22 C29 1.275 . S
Cd23 O22 2.300 . S
Cd23 O31 2.381 . S
Cd23 O32 2.378 . S
O24 Cd25 2.385 . S
O24 C29 1.255 . S
Cd25 O24 2.385 . S
Cd25 O26 2.317 . S
O26 Cd25 2.317 . S
O26 C27 1.232 . S
C27 O26 1.232 . S
C27 O28 1.218 . S
O28 C27 1.218 . S
C29 O22 1.275 . S
C29 O24 1.255 . S
C30 O31 1.258 . S
C30 O32 1.256 . S
O31 Cd23 2.381 . S
O31 C30 1.258 . S
O32 Cd23 2.378 . S
O32 C30 1.256 . S
O33 Cd34 2.300 . S
O33 C40 1.275 . S
Cd34 O33 2.300 . S
Cd34 O42 2.381 . S
Cd34 O43 2.378 . S
O35 Cd36 2.385 . S
O35 C40 1.255 . S
Cd36 O35 2.385 . S
Cd36 O37 2.317 . S
O37 Cd36 2.317 . S
O37 C38 1.232 . S
C38 O37 1.232 . S
C38 O39 1.218 . S
O39 C38 1.218 . S
C40 O33 1.275 . S
C40 O35 1.255 . S
C41 O42 1.258 . S
C41 O43 1.256 . S
O42 Cd34 2.381 . S
O42 C41 1.258 . S
O43 Cd34 2.378 . S
O43 C41 1.256 . S
O44 Cd45 2.300 . S
O44 C51 1.275 . S
Cd45 O44 2.300 . S
Cd45 O53 2.381 . S
Cd45 O54 2.378 . S
O46 Cd47 2.385 . S
O46 C51 1.255 . S
Cd47 O46 2.385 . S
Cd47 O48 2.317 . S
O48 Cd47 2.317 . S
O48 C49 1.232 . S
C49 O48 1.232 . S
C49 O50 1.218 . S
O50 C49 1.218 . S
C51 O44 1.275 . S
C51 O46 1.255 . S
C52 O53 1.258 . S
C52 O54 1.256 . S
O53 Cd45 2.381 . S
O53 C52 1.258 . S
O54 Cd45 2.378 . S
O54 C52 1.256 . S
O55 Cd56 2.300 . S
O55 C62 1.275 . S
Cd56 O55 2.300 . S
Cd56 O64 2.381 . S
Cd56 O65 2.378 . S
O57 Cd58 2.385 . S
O57 C62 1.255 . S
Cd58 O57 2.385 . S
Cd58 O59 2.317 . S
O59 Cd58 2.317 . S
O59 C60 1.232 . S
C60 O59 1.232 . S
C60 O61 1.218 . S
O61 C60 1.218 . S
C62 O55 1.275 . S
C62 O57 1.255 . S
C63 O64 1.258 . S
C63 O65 1.256 . S
O64 Cd56 2.381 . S
O64 C63 1.258 . S
O65 Cd56 2.378 . S
O65 C63 1.256 . S
O66 Cd67 2.300 . S
O66 C73 1.275 . S
Cd67 O66 2.300 . S
Cd67 O75 2.381 . S
Cd67 O76 2.378 . S
O68 Cd69 2.385 . S
O68 C73 1.255 . S
Cd69 O68 2.385 . S
Cd69 O70 2.317 . S
O70 Cd69 2.317 . S
O70 C71 1.232 . S
C71 O70 1.232 . S
C71 O72 1.218 . S
O72 C71 1.218 . S
C73 O66 1.275 . S
C73 O68 1.255 . S
C74 O75 1.258 . S
C74 O76 1.256 . S
O75 Cd67 2.381 . S
O75 C74 1.258 . S
O76 Cd67 2.378 . S
O76 C74 1.256 . S
O77 Cd78 2.300 . S
O77 C84 1.275 . S
Cd78 O77 2.300 . S
Cd78 O86 2.381 . S
Cd78 O87 2.378 . S
O79 Cd80 2.385 . S
O79 C84 1.255 . S
Cd80 O79 2.385 . S
Cd80 O81 2.317 . S
O81 Cd80 2.317 . S
O81 C82 1.232 . S
C82 O81 1.232 . S
C82 O83 1.218 . S
O83 C82 1.218 . S
C84 O77 1.275 . S
C84 O79 1.255 . S
C85 O86 1.258 . S
C85 O87 1.256 . S
O86 Cd78 2.381 . S
O86 C85 1.258 . S
O87 Cd78 2.378 . S
O87 C85 1.256 . S
O88 Cd89 2.300 . S
O88 C95 1.275 . S
Cd89 O88 2.300 . S
Cd89 O97 2.381 . S
Cd89 O98 2.378 . S
O90 Cd91 2.385 . S
O90 C95 1.255 . S
Cd91 O90 2.385 . S
Cd91 O92 2.317 . S
O92 Cd91 2.317 . S
O92 C93 1.232 . S
C93 O92 1.232 . S
C93 O94 1.218 . S
O94 C93 1.218 . S
C95 O88 1.275 . S
C95 O90 1.255 . S
C96 O97 1.258 . S
C96 O98 1.256 . S
O97 Cd89 2.381 . S
O97 C96 1.258 . S
O98 Cd89 2.378 . S
O98 C96 1.256 . S
O99 Cd100 2.300 1_556 S
O99 C106 1.275 . S
Cd100 O99 2.300 1_554 S
Cd100 O108 2.377 1_554 S
Cd100 O109 2.378 . S
O101 Cd102 2.385 1_556 S
O101 C106 1.255 . S
Cd102 O101 2.385 1_554 S
Cd102 O103 2.317 . S
O103 Cd102 2.317 . S
O103 C104 1.232 . S
C104 O103 1.232 . S
C104 O105 1.218 . S
O105 C104 1.218 . S
C106 O99 1.275 . S
C106 O101 1.255 . S
C107 O108 1.226 1_554 S
C107 O109 1.256 . S
O108 Cd100 2.377 1_556 S
O108 C107 1.226 1_556 S
O109 Cd100 2.378 . S
O109 C107 1.256 . S
O110 Cd111 2.300 . S
O110 C117 1.275 . S
Cd111 O110 2.300 . S
Cd111 O119 2.381 1_556 S
Cd111 O120 2.378 1_556 S
O112 Cd113 2.385 . S
O112 C117 1.255 . S
Cd113 O112 2.385 . S
Cd113 O114 2.317 1_556 S
O114 Cd113 2.317 1_554 S
O114 C115 1.232 . S
C115 O114 1.232 . S
C115 O116 1.218 1_554 S
O116 C115 1.218 1_556 S
C117 O110 1.275 . S
C117 O112 1.255 . S
C118 O119 1.258 . S
C118 O120 1.256 . S
O119 Cd111 2.381 1_554 S
O119 C118 1.258 . S
O120 Cd111 2.378 1_554 S
O120 C118 1.256 . S
O121 Cd122 2.300 . S
O121 C128 1.275 . S
Cd122 O121 2.300 . S
Cd122 O130 2.381 . S
Cd122 O131 2.378 1_556 S
O123 Cd124 2.385 1_556 S
O123 C128 1.255 . S
Cd124 O123 2.385 1_554 S
Cd124 O125 2.317 . S
O125 Cd124 2.317 . S
O125 C126 1.232 . S
C126 O125 1.232 . S
C126 O127 1.220 1_554 S
O127 C126 1.220 1_556 S
C128 O121 1.275 . S
C128 O123 1.255 . S
C129 O130 1.258 1_554 S
C129 O131 1.256 . S
O130 Cd122 2.381 . S
O130 C129 1.258 1_556 S
O131 Cd122 2.378 1_554 S
O131 C129 1.256 . S
O132 Cd133 2.300 . S
O132 C139 1.275 . S
Cd133 O132 2.300 . S
Cd133 O141 2.381 . S
Cd133 O142 2.378 1_554 S
O134 Cd135 2.385 . S
O134 C139 1.255 . S
Cd135 O134 2.385 . S
Cd135 O136 2.315 1_554 S
O136 Cd135 2.315 1_556 S
O136 C137 1.225 1_556 S
C137 O136 1.225 1_554 S
C137 O138 1.218 . S
O138 C137 1.218 . S
C139 O132 1.275 . S
C139 O134 1.255 . S
C140 O141 1.258 . S
C140 O142 1.256 1_554 S
O141 Cd133 2.381 . S
O141 C140 1.258 . S
O142 Cd133 2.378 1_556 S
O142 C140 1.256 1_556 S
O143 Cd144 2.300 . S
O143 C150 1.275 . S
Cd144 O143 2.300 . S
Cd144 O152 2.381 . S
Cd144 O153 2.377 . S
O145 Cd146 2.385 . S
O145 C150 1.255 . S
Cd146 O145 2.385 . S
Cd146 O147 2.317 . S
O147 Cd146 2.317 . S
O147 C148 1.232 . S
C148 O147 1.232 . S
C148 O149 1.218 . S
O149 C148 1.218 . S
C150 O143 1.275 . S
C150 O145 1.255 . S
C151 O152 1.251 1_556 S
C151 O153 1.254 1_556 S
O152 Cd144 2.381 . S
O152 C151 1.251 1_554 S
O153 Cd144 2.377 . S
O153 C151 1.254 1_554 S
O154 Cd155 2.300 . S
O154 C161 1.275 . S
Cd155 O154 2.300 . S
Cd155 O163 2.381 . S
Cd155 O164 2.378 1_554 S
O156 Cd157 2.385 . S
O156 C161 1.255 . S
Cd157 O156 2.385 . S
Cd157 O158 2.317 1_554 S
O158 Cd157 2.317 1_556 S
O158 C159 1.232 1_556 S
C159 O158 1.232 1_554 S
C159 O160 1.218 . S
O160 C159 1.218 . S
C161 O154 1.275 . S
C161 O156 1.255 . S
C162 O163 1.258 . S
C162 O164 1.256 1_554 S
O163 Cd155 2.381 . S
O163 C162 1.258 . S
O164 Cd155 2.378 1_556 S
O164 C162 1.256 1_556 S
O165 Cd166 2.300 . S
O165 C172 1.275 . S
Cd166 O165 2.300 . S
Cd166 O174 2.381 . S
Cd166 O175 2.378 . S
O167 Cd168 2.385 . S
O167 C172 1.255 . S
Cd168 O167 2.385 . S
Cd168 O169 2.317 . S
O169 Cd168 2.317 . S
O169 C170 1.232 . S
C170 O169 1.232 . S
C170 O171 1.218 . S
O171 C170 1.218 . S
C172 O165 1.275 . S
C172 O167 1.255 . S
C173 O174 1.258 . S
C173 O175 1.256 . S
O174 Cd166 2.381 . S
O174 C173 1.258 . S
O175 Cd166 2.378 . S
O175 C173 1.256 . S
O176 Cd177 2.300 . S
O176 C183 1.275 . S
Cd177 O176 2.300 . S
Cd177 O185 2.381 . S
Cd177 O186 2.378 . S
O178 Cd179 2.385 . S
O178 C183 1.255 . S
Cd179 O178 2.385 . S
Cd179 O180 2.317 . S
O180 Cd179 2.317 . S
O180 C181 1.232 . S
C181 O180 1.232 . S
C181 O182 1.218 . S
O182 C181 1.218 . S
C183 O176 1.275 . S
C183 O178 1.255 . S
C184 O185 1.258 . S
C184 O186 1.256 . S
O185 Cd177 2.381 . S
O185 C184 1.258 . S
O186 Cd177 2.378 . S
O186 C184 1.256 . S
O187 Cd188 2.300 . S
O187 C194 1.275 . S
Cd188 O187 2.300 . S
Cd188 O196 2.381 . S
Cd188 O197 2.378 . S
O189 Cd190 2.385 . S
O189 C194 1.255 . S
Cd190 O189 2.385 . S
Cd190 O191 2.317 . S
O191 Cd190 2.317 . S
O191 C192 1.232 . S
C192 O191 1.232 . S
C192 O193 1.218 . S
O193 C192 1.218 . S
C194 O187 1.275 . S
C194 O189 1.255 . S
C195 O196 1.258 . S
C195 O197 1.256 . S
O196 Cd188 2.381 . S
O196 C195 1.258 . S
O197 Cd188 2.378 . S
O197 C195 1.256 . S
O198 Mn199 2.163 1_565 S
O198 C212 1.244 . S
Mn199 O198 2.163 1_545 S
Mn199 O202 2.160 . S
Mn199 O203 2.221 1_545 S
Mn199 O205 2.163 1_554 S
Mn199 O207 2.159 1_545 S
Mn199 O217 2.221 . S
O200 Mn201 2.087 1_565 S
O200 C212 1.256 . S
Mn201 O200 2.087 1_545 S
Mn201 O208 2.089 1_545 S
Mn201 O217 2.290 . S
Mn201 O218 2.251 . S
O202 Mn199 2.160 . S
O202 C213 1.239 . S
O203 Mn199 2.221 1_565 S
O203 Mn204 2.290 1_554 S
O203 C214 1.278 1_554 S
Mn204 O203 2.290 1_556 S
Mn204 O206 2.089 1_565 S
Mn204 O209 2.251 . S
Mn204 O210 2.087 . S
O205 Mn199 2.163 1_556 S
O205 C215 1.244 . S
O206 Mn204 2.089 1_545 S
O206 C213 1.256 1_556 S
O207 Mn199 2.159 1_565 S
O207 C216 1.239 . S
O208 Mn201 2.089 1_565 S
O208 C216 1.256 . S
O209 Mn204 2.251 . S
O209 C214 1.241 . S
O210 Mn204 2.087 . S
O210 C215 1.256 1_565 S
C211 O217 1.278 . S
C211 O218 1.241 . S
C212 O198 1.244 . S
C212 O200 1.256 . S
C213 O202 1.239 . S
C213 O206 1.256 1_554 S
C214 O203 1.278 1_556 S
C214 O209 1.241 . S
C215 O205 1.244 . S
C215 O210 1.256 1_545 S
C216 O207 1.239 . S
C216 O208 1.256 . S
O217 Mn199 2.221 . S
O217 Mn201 2.290 . S
O217 C211 1.278 . S
O218 Mn201 2.251 . S
O218 C211 1.241 . S
O219 Mn220 2.163 . S
O219 C233 1.244 . S
Mn220 O219 2.163 . S
Mn220 O223 2.160 1_455 S
Mn220 O224 2.221 . S
Mn220 O226 2.163 1_454 S
Mn220 O228 2.160 . S
Mn220 O238 2.221 1_455 S
O221 Mn222 2.087 . S
O221 C233 1.256 . S
Mn222 O221 2.087 . S
Mn222 O229 2.089 . S
Mn222 O238 2.290 1_455 S
Mn222 O239 2.251 1_455 S
O223 Mn220 2.160 1_655 S
O223 C234 1.239 . S
O224 Mn220 2.221 . S
O224 Mn225 2.290 1_554 S
O224 C235 1.278 . S
Mn225 O224 2.290 1_556 S
Mn225 O227 2.089 1_455 S
Mn225 O230 2.251 . S
Mn225 O231 2.087 . S
O226 Mn220 2.163 1_656 S
O226 C236 1.244 . S
O227 Mn225 2.089 1_655 S
O227 C234 1.256 1_556 S
O228 Mn220 2.160 . S
O228 C237 1.239 . S
O229 Mn222 2.089 . S
O229 C237 1.256 . S
O230 Mn225 2.251 . S
O230 C235 1.241 1_556 S
O231 Mn225 2.087 . S
O231 C236 1.256 1_455 S
C232 O238 1.278 . S
C232 O239 1.241 . S
C233 O219 1.244 . S
C233 O221 1.256 . S
C234 O223 1.239 . S
C234 O227 1.256 1_554 S
C235 O224 1.278 . S
C235 O230 1.241 1_554 S
C236 O226 1.244 . S
C236 O231 1.256 1_655 S
C237 O228 1.239 . S
C237 O229 1.256 . S
O238 Mn220 2.221 1_655 S
O238 Mn222 2.290 1_655 S
O238 C232 1.278 . S
O239 Mn222 2.251 1_655 S
O239 C232 1.241 . S
O240 Mn241 2.159 1_554 S
O240 C254 1.250 . S
Mn241 O240 2.159 1_556 S
Mn241 O244 2.165 . S
Mn241 O245 2.212 1_556 S
Mn241 O247 2.128 1_556 S
Mn241 O249 2.196 . S
Mn241 O259 2.233 . S
O242 Mn243 2.087 . S
O242 C254 1.246 1_556 S
Mn243 O242 2.087 . S
Mn243 O250 2.089 . S
Mn243 O259 2.290 . S
Mn243 O260 2.251 . S
O244 Mn241 2.165 . S
O244 C255 1.239 1_556 S
O245 Mn241 2.212 1_554 S
O245 Mn246 2.290 . S
O245 C256 1.278 . S
Mn246 O245 2.290 . S
Mn246 O248 2.089 . S
Mn246 O251 2.251 . S
Mn246 O252 2.087 . S
O247 Mn241 2.128 1_554 S
O247 C257 1.244 . S
O248 Mn246 2.089 . S
O248 C255 1.256 . S
O249 Mn241 2.196 . S
O249 C258 1.239 . S
O250 Mn243 2.089 . S
O250 C258 1.256 . S
O251 Mn246 2.251 . S
O251 C256 1.241 . S
O252 Mn246 2.087 . S
O252 C257 1.256 . S
C253 O259 1.270 1_554 S
C253 O260 1.236 1_554 S
C254 O240 1.250 . S
C254 O242 1.246 1_554 S
C255 O244 1.239 1_554 S
C255 O248 1.256 . S
C256 O245 1.278 . S
C256 O251 1.241 . S
C257 O247 1.244 . S
C257 O252 1.256 . S
C258 O249 1.239 . S
C258 O250 1.256 . S
O259 Mn241 2.233 . S
O259 Mn243 2.290 . S
O259 C253 1.270 1_556 S
O260 Mn243 2.251 . S
O260 C253 1.236 1_556 S
O261 Mn262 2.163 . S
O261 C275 1.244 . S
Mn262 O261 2.163 . S
Mn262 O265 2.160 . S
Mn262 O266 2.221 . S
Mn262 O268 2.163 . S
Mn262 O270 2.160 . S
Mn262 O280 2.221 . S
O263 Mn264 2.087 . S
O263 C275 1.256 . S
Mn264 O263 2.087 . S
Mn264 O271 2.089 . S
Mn264 O280 2.290 . S
Mn264 O281 2.251 . S
O265 Mn262 2.160 . S
O265 C276 1.239 . S
O266 Mn262 2.221 . S
O266 Mn267 2.290 . S
O266 C277 1.278 . S
Mn267 O266 2.290 . S
Mn267 O269 2.089 . S
Mn267 O272 2.251 . S
Mn267 O273 2.087 . S
O268 Mn262 2.163 . S
O268 C278 1.244 . S
O269 Mn267 2.089 . S
O269 C276 1.256 . S
O270 Mn262 2.160 . S
O270 C279 1.239 . S
O271 Mn264 2.089 . S
O271 C279 1.256 . S
O272 Mn267 2.251 . S
O272 C277 1.241 . S
O273 Mn267 2.087 . S
O273 C278 1.256 . S
C274 O280 1.278 . S
C274 O281 1.241 . S
C275 O261 1.244 . S
C275 O263 1.256 . S
C276 O265 1.239 . S
C276 O269 1.256 . S
C277 O266 1.278 . S
C277 O272 1.241 . S
C278 O268 1.244 . S
C278 O273 1.256 . S
C279 O270 1.239 . S
C279 O271 1.256 . S
O280 Mn262 2.221 . S
O280 Mn264 2.290 . S
O280 C274 1.278 . S
O281 Mn264 2.251 . S
O281 C274 1.241 . S
O282 Mn283 2.163 . S
O282 C296 1.244 . S
Mn283 O282 2.163 . S
Mn283 O286 2.160 . S
Mn283 O287 2.221 . S
Mn283 O289 2.163 . S
Mn283 O291 2.160 . S
Mn283 O301 2.221 . S
O284 Mn285 2.087 . S
O284 C296 1.256 . S
Mn285 O284 2.087 . S
Mn285 O292 2.089 . S
Mn285 O301 2.290 . S
Mn285 O302 2.251 . S
O286 Mn283 2.160 . S
O286 C297 1.239 . S
O287 Mn283 2.221 . S
O287 Mn288 2.290 . S
O287 C298 1.278 . S
Mn288 O287 2.290 . S
Mn288 O290 2.089 . S
Mn288 O293 2.251 . S
Mn288 O294 2.087 . S
O289 Mn283 2.163 . S
O289 C299 1.244 . S
O290 Mn288 2.089 . S
O290 C297 1.256 . S
O291 Mn283 2.160 . S
O291 C300 1.239 . S
O292 Mn285 2.089 . S
O292 C300 1.256 . S
O293 Mn288 2.251 . S
O293 C298 1.241 . S
O294 Mn288 2.087 . S
O294 C299 1.256 . S
C295 O301 1.278 . S
C295 O302 1.241 . S
C296 O282 1.244 . S
C296 O284 1.256 . S
C297 O286 1.239 . S
C297 O290 1.256 . S
C298 O287 1.278 . S
C298 O293 1.241 . S
C299 O289 1.244 . S
C299 O294 1.256 . S
C300 O291 1.239 . S
C300 O292 1.256 . S
O301 Mn283 2.221 . S
O301 Mn285 2.290 . S
O301 C295 1.278 . S
O302 Mn285 2.251 . S
O302 C295 1.241 . S
O303 Mn304 2.163 . S
O303 C317 1.244 . S
Mn304 O303 2.163 . S
Mn304 O307 2.160 . S
Mn304 O308 2.221 . S
Mn304 O310 2.163 . S
Mn304 O312 2.160 . S
Mn304 O322 2.221 . S
O305 Mn306 2.087 . S
O305 C317 1.256 . S
Mn306 O305 2.087 . S
Mn306 O313 2.089 . S
Mn306 O322 2.290 . S
Mn306 O323 2.251 . S
O307 Mn304 2.160 . S
O307 C318 1.239 . S
O308 Mn304 2.221 . S
O308 Mn309 2.290 . S
O308 C319 1.278 . S
Mn309 O308 2.290 . S
Mn309 O311 2.089 . S
Mn309 O314 2.251 . S
Mn309 O315 2.087 . S
O310 Mn304 2.163 . S
O310 C320 1.244 . S
O311 Mn309 2.089 . S
O311 C318 1.256 . S
O312 Mn304 2.160 . S
O312 C321 1.239 . S
O313 Mn306 2.089 . S
O313 C321 1.256 . S
O314 Mn309 2.251 . S
O314 C319 1.241 . S
O315 Mn309 2.087 . S
O315 C320 1.256 . S
C316 O322 1.278 . S
C316 O323 1.241 . S
C317 O303 1.244 . S
C317 O305 1.256 . S
C318 O307 1.239 . S
C318 O311 1.256 . S
C319 O308 1.278 . S
C319 O314 1.241 . S
C320 O310 1.244 . S
C320 O315 1.256 . S
C321 O312 1.239 . S
C321 O313 1.256 . S
O322 Mn304 2.221 . S
O322 Mn306 2.290 . S
O322 C316 1.278 . S
O323 Mn306 2.251 . S
O323 C316 1.241 . S
O324 Mn325 2.163 . S
O324 C338 1.244 . S
Mn325 O324 2.163 . S
Mn325 O328 2.160 . S
Mn325 O329 2.221 . S
Mn325 O331 2.163 . S
Mn325 O333 2.160 . S
Mn325 O343 2.221 . S
O326 Mn327 2.087 . S
O326 C338 1.256 . S
Mn327 O326 2.087 . S
Mn327 O334 2.089 . S
Mn327 O343 2.290 . S
Mn327 O344 2.251 . S
O328 Mn325 2.160 . S
O328 C339 1.239 . S
O329 Mn325 2.221 . S
O329 Mn330 2.290 . S
O329 C340 1.278 . S
Mn330 O329 2.290 . S
Mn330 O332 2.089 . S
Mn330 O335 2.251 . S
Mn330 O336 2.087 . S
O331 Mn325 2.163 . S
O331 C341 1.244 . S
O332 Mn330 2.089 . S
O332 C339 1.256 . S
O333 Mn325 2.160 . S
O333 C342 1.239 . S
O334 Mn327 2.089 . S
O334 C342 1.256 . S
O335 Mn330 2.251 . S
O335 C340 1.241 . S
O336 Mn330 2.087 . S
O336 C341 1.256 . S
C337 O343 1.278 . S
C337 O344 1.241 . S
C338 O324 1.244 . S
C338 O326 1.256 . S
C339 O328 1.239 . S
C339 O332 1.256 . S
C340 O329 1.278 . S
C340 O335 1.241 . S
C341 O331 1.244 . S
C341 O336 1.256 . S
C342 O333 1.239 . S
C342 O334 1.256 . S
O343 Mn325 2.221 . S
O343 Mn327 2.290 . S
O343 C337 1.278 . S
O344 Mn327 2.251 . S
O344 C337 1.241 . S
O345 Mn346 2.163 . S
O345 C359 1.244 . S
Mn346 O345 2.163 . S
Mn346 O349 2.160 . S
Mn346 O350 2.221 . S
Mn346 O352 2.163 . S
Mn346 O354 2.160 . S
Mn346 O364 2.221 . S
O347 Mn348 2.087 . S
O347 C359 1.256 . S
Mn348 O347 2.087 . S
Mn348 O355 2.089 . S
Mn348 O364 2.290 . S
Mn348 O365 2.251 . S
O349 Mn346 2.160 . S
O349 C360 1.239 . S
O350 Mn346 2.221 . S
O350 Mn351 2.290 . S
O350 C361 1.278 . S
Mn351 O350 2.290 . S
Mn351 O353 2.089 . S
Mn351 O356 2.251 . S
Mn351 O357 2.087 . S
O352 Mn346 2.163 . S
O352 C362 1.244 . S
O353 Mn351 2.089 . S
O353 C360 1.256 . S
O354 Mn346 2.160 . S
O354 C363 1.239 . S
O355 Mn348 2.089 . S
O355 C363 1.256 . S
O356 Mn351 2.251 . S
O356 C361 1.241 . S
O357 Mn351 2.087 . S
O357 C362 1.256 . S
C358 O364 1.278 . S
C358 O365 1.241 . S
C359 O345 1.244 . S
C359 O347 1.256 . S
C360 O349 1.239 . S
C360 O353 1.256 . S
C361 O350 1.278 . S
C361 O356 1.241 . S
C362 O352 1.244 . S
C362 O357 1.256 . S
C363 O354 1.239 . S
C363 O355 1.256 . S
O364 Mn346 2.221 . S
O364 Mn348 2.290 . S
O364 C358 1.278 . S
O365 Mn348 2.251 . S
O365 C358 1.241 . S
O366 Mn367 2.163 . S
O366 C380 1.244 . S
Mn367 O366 2.163 . S
Mn367 O370 2.160 . S
Mn367 O371 2.221 . S
Mn367 O373 2.163 . S
Mn367 O375 2.160 . S
Mn367 O385 2.221 . S
O368 Mn369 2.087 . S
O368 C380 1.256 . S
Mn369 O368 2.087 . S
Mn369 O376 2.089 . S
Mn369 O385 2.290 . S
Mn369 O386 2.251 . S
O370 Mn367 2.160 . S
O370 C381 1.239 . S
O371 Mn367 2.221 . S
O371 Mn372 2.290 . S
O371 C382 1.278 . S
Mn372 O371 2.290 . S
Mn372 O374 2.089 . S
Mn372 O377 2.251 . S
Mn372 O378 2.087 . S
O373 Mn367 2.163 . S
O373 C383 1.244 . S
O374 Mn372 2.089 . S
O374 C381 1.256 . S
O375 Mn367 2.160 . S
O375 C384 1.239 . S
O376 Mn369 2.089 . S
O376 C384 1.256 . S
O377 Mn372 2.251 . S
O377 C382 1.241 . S
O378 Mn372 2.087 . S
O378 C383 1.256 . S
C379 O385 1.278 . S
C379 O386 1.241 . S
C380 O366 1.244 . S
C380 O368 1.256 . S
C381 O370 1.239 . S
C381 O374 1.256 . S
C382 O371 1.278 . S
C382 O377 1.241 . S
C383 O373 1.244 . S
C383 O378 1.256 . S
C384 O375 1.239 . S
C384 O376 1.256 . S
O385 Mn367 2.221 . S
O385 Mn369 2.290 . S
O385 C379 1.278 . S
O386 Mn369 2.251 . S
O386 C379 1.241 . S
H387 C399 0.930 . S
H388 C401 0.930 . S
H389 C402 0.930 . S
H390 C406 0.959 . S
H391 C406 0.959 . S
H392 C406 0.961 . S
H393 C407 0.960 . S
H394 C407 0.961 . S
H395 C407 0.959 . S
H396 C410 0.929 . S
H397 C411 0.931 . S
H398 C413 0.930 . S
C399 H387 0.930 . S
C399 C400 1.399 1_554 S
C399 C404 1.399 . S
C400 C399 1.399 1_556 S
C400 C401 1.376 . S
C401 H388 0.930 . S
C401 C400 1.376 . S
C401 C402 1.388 . S
C402 H389 0.930 . S
C402 C401 1.388 . S
C402 C403 1.390 . S
C403 C402 1.390 . S
C403 C404 1.394 1_556 S
C403 C409 1.465 . S
C404 C399 1.399 . S
C404 C403 1.394 1_554 S
C404 C405 1.516 . S
C405 C404 1.516 . S
C405 C406 1.502 . S
C405 C407 1.561 . S
C405 C408 1.526 . S
C406 H390 0.959 . S
C406 H391 0.959 . S
C406 H392 0.961 . S
C406 C405 1.502 . S
C407 H393 0.960 . S
C407 H394 0.961 . S
C407 H395 0.959 . S
C407 C405 1.561 . S
C408 C405 1.526 . S
C408 C409 1.396 1_554 S
C408 C413 1.390 . S
C409 C403 1.465 . S
C409 C408 1.396 1_556 S
C409 C410 1.399 . S
C410 H396 0.929 . S
C410 C409 1.399 . S
C410 C411 1.385 . S
C411 H397 0.931 . S
C411 C410 1.385 . S
C411 C412 1.389 1_556 S
C412 C411 1.389 1_554 S
C412 C413 1.387 . S
C413 H398 0.930 . S
C413 C408 1.390 . S
C413 C412 1.387 . S
H414 C426 0.930 . S
H415 C428 0.930 . S
H416 C429 0.930 . S
H417 C433 0.959 . S
H418 C433 0.959 . S
H419 C433 0.961 . S
H420 C434 0.960 . S
H421 C434 0.961 . S
H422 C434 0.959 . S
H423 C437 0.929 . S
H424 C438 0.931 . S
H425 C440 0.930 . S
C426 H414 0.930 . S
C426 C427 1.399 . S
C426 C431 1.399 . S
C427 C426 1.399 . S
C427 C428 1.376 1_554 S
C428 H415 0.930 . S
C428 C427 1.376 1_556 S
C428 C429 1.388 . S
C429 H416 0.930 . S
C429 C428 1.388 . S
C429 C430 1.406 . S
C430 C429 1.406 . S
C430 C431 1.373 1_556 S
C430 C436 1.466 1_556 S
C431 C426 1.399 . S
C431 C430 1.373 1_554 S
C431 C432 1.516 . S
C432 C431 1.516 . S
C432 C433 1.502 . S
C432 C434 1.561 . S
C432 C435 1.526 . S
C433 H417 0.959 . S
C433 H418 0.959 . S
C433 H419 0.961 . S
C433 C432 1.502 . S
C434 H420 0.960 . S
C434 H421 0.961 . S
C434 H422 0.959 . S
C434 C432 1.561 . S
C435 C432 1.526 . S
C435 C436 1.410 . S
C435 C440 1.390 . S
C436 C430 1.466 1_554 S
C436 C435 1.410 . S
C436 C437 1.388 1_554 S
C437 H423 0.929 . S
C437 C436 1.388 1_556 S
C437 C438 1.385 . S
C438 H424 0.931 . S
C438 C437 1.385 . S
C438 C439 1.389 1_556 S
C439 C438 1.389 1_554 S
C439 C440 1.387 . S
C440 H425 0.930 . S
C440 C435 1.390 . S
C440 C439 1.387 . S
H441 C453 0.930 . S
H442 C455 0.930 . S
H443 C456 0.930 . S
H444 C460 0.959 . S
H445 C460 0.959 . S
H446 C460 0.961 . S
H447 C461 0.960 . S
H448 C461 0.961 . S
H449 C461 0.959 . S
H450 C464 0.929 . S
H451 C465 0.931 . S
H452 C467 0.930 . S
C453 H441 0.930 . S
C453 C454 1.399 . S
C453 C458 1.399 . S
C454 C453 1.399 . S
C454 C455 1.376 1_554 S
C455 H442 0.930 . S
C455 C454 1.376 1_556 S
C455 C456 1.388 . S
C456 H443 0.930 . S
C456 C455 1.388 . S
C456 C457 1.390 . S
C457 C456 1.390 . S
C457 C458 1.394 1_556 S
C457 C463 1.465 . S
C458 C453 1.399 . S
C458 C457 1.394 1_554 S
C458 C459 1.516 . S
C459 C458 1.516 . S
C459 C460 1.502 . S
C459 C461 1.561 . S
C459 C462 1.526 . S
C460 H444 0.959 . S
C460 H445 0.959 . S
C460 H446 0.961 . S
C460 C459 1.502 . S
C461 H447 0.960 . S
C461 H448 0.961 . S
C461 H449 0.959 . S
C461 C459 1.561 . S
C462 C459 1.526 . S
C462 C463 1.396 1_554 S
C462 C467 1.390 . S
C463 C457 1.465 . S
C463 C462 1.396 1_556 S
C463 C464 1.399 . S
C464 H450 0.929 . S
C464 C463 1.399 . S
C464 C465 1.385 . S
C465 H451 0.931 . S
C465 C464 1.385 . S
C465 C466 1.389 1_556 S
C466 C465 1.389 1_554 S
C466 C467 1.387 . S
C467 H452 0.930 . S
C467 C462 1.390 . S
C467 C466 1.387 . S
H468 C480 0.930 . S
H469 C482 0.930 . S
H470 C483 0.930 . S
H471 C487 0.959 . S
H472 C487 0.959 . S
H473 C487 0.961 . S
H474 C488 0.960 . S
H475 C488 0.961 . S
H476 C488 0.959 . S
H477 C491 0.929 . S
H478 C492 0.931 . S
H479 C494 0.930 . S
C480 H468 0.930 . S
C480 C481 1.399 . S
C480 C485 1.399 . S
C481 C480 1.399 . S
C481 C482 1.376 1_554 S
C482 H469 0.930 . S
C482 C481 1.376 1_556 S
C482 C483 1.388 . S
C483 H470 0.930 . S
C483 C482 1.388 . S
C483 C484 1.390 . S
C484 C483 1.390 . S
C484 C485 1.394 1_556 S
C484 C490 1.465 . S
C485 C480 1.399 . S
C485 C484 1.394 1_554 S
C485 C486 1.516 . S
C486 C485 1.516 . S
C486 C487 1.502 . S
C486 C488 1.561 . S
C486 C489 1.526 . S
C487 H471 0.959 . S
C487 H472 0.959 . S
C487 H473 0.961 . S
C487 C486 1.502 . S
C488 H474 0.960 . S
C488 H475 0.961 . S
C488 H476 0.959 . S
C488 C486 1.561 . S
C489 C486 1.526 . S
C489 C490 1.396 1_554 S
C489 C494 1.390 . S
C490 C484 1.465 . S
C490 C489 1.396 1_556 S
C490 C491 1.399 . S
C491 H477 0.929 . S
C491 C490 1.399 . S
C491 C492 1.385 . S
C492 H478 0.931 . S
C492 C491 1.385 . S
C492 C493 1.389 1_556 S
C493 C492 1.389 1_554 S
C493 C494 1.387 . S
C494 H479 0.930 . S
C494 C489 1.390 . S
C494 C493 1.387 . S
H495 C507 0.930 . S
H496 C509 0.930 . S
H497 C510 0.930 . S
H498 C514 0.959 1_554 S
H499 C514 0.959 . S
H500 C514 0.961 . S
H501 C515 0.960 . S
H502 C515 0.961 . S
H503 C515 0.959 . S
H504 C518 0.929 . S
H505 C519 0.931 . S
H506 C521 0.930 . S
C507 H495 0.930 . S
C507 C508 1.399 1_556 S
C507 C512 1.403 . S
C508 C507 1.399 1_554 S
C508 C509 1.376 . S
C509 H496 0.930 . S
C509 C508 1.376 . S
C509 C510 1.388 . S
C510 H497 0.930 . S
C510 C509 1.388 . S
C510 C511 1.390 . S
C511 C510 1.390 . S
C511 C512 1.371 1_554 S
C511 C517 1.465 . S
C512 C507 1.403 . S
C512 C511 1.371 1_556 S
C512 C513 1.533 . S
C513 C512 1.533 . S
C513 C514 1.502 . S
C513 C515 1.561 . S
C513 C516 1.526 . S
C514 H498 0.959 1_556 S
C514 H499 0.959 . S
C514 H500 0.961 . S
C514 C513 1.502 . S
C515 H501 0.960 . S
C515 H502 0.961 . S
C515 H503 0.959 . S
C515 C513 1.561 . S
C516 C513 1.526 . S
C516 C517 1.396 1_556 S
C516 C521 1.390 . S
C517 C511 1.465 . S
C517 C516 1.396 1_554 S
C517 C518 1.399 . S
C518 H504 0.929 . S
C518 C517 1.399 . S
C518 C519 1.385 . S
C519 H505 0.931 . S
C519 C518 1.385 . S
C519 C520 1.389 . S
C520 C519 1.389 . S
C520 C521 1.387 1_554 S
C521 H506 0.930 . S
C521 C516 1.390 . S
C521 C520 1.387 1_556 S
H522 C534 0.930 1_556 S
H523 C536 0.930 . S
H524 C537 0.930 . S
H525 C541 0.959 . S
H526 C541 0.959 . S
H527 C541 0.961 . S
H528 C542 0.960 . S
H529 C542 0.961 . S
H530 C542 0.959 . S
H531 C545 0.929 . S
H532 C546 0.931 . S
H533 C548 0.930 . S
C534 H522 0.930 1_554 S
C534 C535 1.399 . S
C534 C539 1.399 . S
C535 C534 1.399 . S
C535 C536 1.376 . S
C536 H523 0.930 . S
C536 C535 1.376 . S
C536 C537 1.388 . S
C537 H524 0.930 . S
C537 C536 1.388 . S
C537 C538 1.390 . S
C538 C537 1.390 . S
C538 C539 1.394 . S
C538 C544 1.465 . S
C539 C534 1.399 . S
C539 C538 1.394 . S
C539 C540 1.516 1_554 S
C540 C539 1.516 1_556 S
C540 C541 1.502 . S
C540 C542 1.561 . S
C540 C543 1.526 1_556 S
C541 H525 0.959 . S
C541 H526 0.959 . S
C541 H527 0.961 . S
C541 C540 1.502 . S
C542 H528 0.960 . S
C542 H529 0.961 . S
C542 H530 0.959 . S
C542 C540 1.561 . S
C543 C540 1.526 1_554 S
C543 C544 1.396 . S
C543 C548 1.390 1_554 S
C544 C538 1.465 . S
C544 C543 1.396 . S
C544 C545 1.399 . S
C545 H531 0.929 . S
C545 C544 1.399 . S
C545 C546 1.385 . S
C546 H532 0.931 . S
C546 C545 1.385 . S
C546 C547 1.389 . S
C547 C546 1.389 . S
C547 C548 1.387 1_554 S
C548 H533 0.930 . S
C548 C543 1.390 1_556 S
C548 C547 1.387 1_556 S
H549 C561 0.930 . S
H550 C563 0.930 . S
H551 C564 0.930 . S
H552 C568 0.959 . S
H553 C568 0.959 . S
H554 C568 0.961 . S
H555 C569 0.960 . S
H556 C569 0.961 . S
H557 C569 0.959 . S
H558 C572 0.929 . S
H559 C573 0.931 . S
H560 C575 0.930 . S
C561 H549 0.930 . S
C561 C562 1.399 . S
C561 C566 1.399 . S
C562 C561 1.399 . S
C562 C563 1.376 1_554 S
C563 H550 0.930 . S
C563 C562 1.376 1_556 S
C563 C564 1.388 . S
C564 H551 0.930 . S
C564 C563 1.388 . S
C564 C565 1.390 1_556 S
C565 C564 1.390 1_554 S
C565 C566 1.394 . S
C565 C571 1.465 . S
C566 C561 1.399 . S
C566 C565 1.394 . S
C566 C567 1.516 . S
C567 C566 1.516 . S
C567 C568 1.502 . S
C567 C569 1.561 . S
C567 C570 1.526 . S
C568 H552 0.959 . S
C568 H553 0.959 . S
C568 H554 0.961 . S
C568 C567 1.502 . S
C569 H555 0.960 . S
C569 H556 0.961 . S
C569 H557 0.959 . S
C569 C567 1.561 . S
C570 C567 1.526 . S
C570 C571 1.396 . S
C570 C575 1.390 . S
C571 C565 1.465 . S
C571 C570 1.396 . S
C571 C572 1.399 1_554 S
C572 H558 0.929 . S
C572 C571 1.399 1_556 S
C572 C573 1.385 . S
C573 H559 0.931 . S
C573 C572 1.385 . S
C573 C574 1.389 1_556 S
C574 C573 1.389 1_554 S
C574 C575 1.387 . S
C575 H560 0.930 . S
C575 C570 1.390 . S
C575 C574 1.387 . S
H576 C588 0.930 1_556 S
H577 C590 0.930 . S
H578 C591 0.930 . S
H579 C595 0.959 . S
H580 C595 0.959 . S
H581 C595 0.961 . S
H582 C596 0.960 . S
H583 C596 0.961 . S
H584 C596 0.959 . S
H585 C599 0.929 . S
H586 C600 0.931 . S
H587 C602 0.930 1_556 S
C588 H576 0.930 1_554 S
C588 C589 1.399 . S
C588 C593 1.399 . S
C589 C588 1.399 . S
C589 C590 1.376 . S
C590 H577 0.930 . S
C590 C589 1.376 . S
C590 C591 1.388 . S
C591 H578 0.930 . S
C591 C590 1.388 . S
C591 C592 1.390 . S
C592 C591 1.390 . S
C592 C593 1.394 . S
C592 C598 1.465 . S
C593 C588 1.399 . S
C593 C592 1.394 . S
C593 C594 1.516 1_554 S
C594 C593 1.516 1_556 S
C594 C595 1.502 . S
C594 C596 1.561 . S
C594 C597 1.526 1_556 S
C595 H579 0.959 . S
C595 H580 0.959 . S
C595 H581 0.961 . S
C595 C594 1.502 . S
C596 H582 0.960 . S
C596 H583 0.961 . S
C596 H584 0.959 . S
C596 C594 1.561 . S
C597 C594 1.526 1_554 S
C597 C598 1.396 . S
C597 C602 1.390 . S
C598 C592 1.465 . S
C598 C597 1.396 . S
C598 C599 1.399 . S
C599 H585 0.929 . S
C599 C598 1.399 . S
C599 C600 1.385 . S
C600 H586 0.931 . S
C600 C599 1.385 . S
C600 C601 1.389 . S
C601 C600 1.389 . S
C601 C602 1.387 . S
C602 H587 0.930 1_554 S
C602 C597 1.390 . S
C602 C601 1.387 . S
H603 C615 0.930 . S
H604 C617 0.930 . S
H605 C618 0.930 . S
H606 C622 0.959 . S
H607 C622 0.959 . S
H608 C622 0.961 . S
H609 C623 0.960 . S
H610 C623 0.961 . S
H611 C623 0.959 . S
H612 C626 0.929 . S
H613 C627 0.931 . S
H614 C629 0.930 . S
C615 H603 0.930 . S
C615 C616 1.399 . S
C615 C620 1.399 . S
C616 C615 1.399 . S
C616 C617 1.376 1_554 S
C617 H604 0.930 . S
C617 C616 1.376 1_556 S
C617 C618 1.388 . S
C618 H605 0.930 . S
C618 C617 1.388 . S
C618 C619 1.390 1_556 S
C619 C618 1.390 1_554 S
C619 C620 1.394 . S
C619 C625 1.465 . S
C620 C615 1.399 . S
C620 C619 1.394 . S
C620 C621 1.516 . S
C621 C620 1.516 . S
C621 C622 1.502 . S
C621 C623 1.561 . S
C621 C624 1.526 . S
C622 H606 0.959 . S
C622 H607 0.959 . S
C622 H608 0.961 . S
C622 C621 1.502 . S
C623 H609 0.960 . S
C623 H610 0.961 . S
C623 H611 0.959 . S
C623 C621 1.561 . S
C624 C621 1.526 . S
C624 C625 1.396 . S
C624 C629 1.390 . S
C625 C619 1.465 . S
C625 C624 1.396 . S
C625 C626 1.399 1_554 S
C626 H612 0.929 . S
C626 C625 1.399 1_556 S
C626 C627 1.385 . S
C627 H613 0.931 . S
C627 C626 1.385 . S
C627 C628 1.389 1_556 S
C628 C627 1.389 1_554 S
C628 C629 1.387 . S
C629 H614 0.930 . S
C629 C624 1.390 . S
C629 C628 1.387 . S
H630 C642 0.930 . S
H631 C644 0.930 . S
H632 C645 0.930 . S
H633 C649 0.959 1_554 S
H634 C649 0.959 . S
H635 C649 0.961 . S
H636 C650 0.960 . S
H637 C650 0.961 . S
H638 C650 0.959 . S
H639 C653 0.929 . S
H640 C654 0.931 . S
H641 C656 0.930 . S
C642 H630 0.930 . S
C642 C643 1.399 1_556 S
C642 C647 1.399 . S
C643 C642 1.399 1_554 S
C643 C644 1.376 . S
C644 H631 0.930 . S
C644 C643 1.376 . S
C644 C645 1.388 . S
C645 H632 0.930 . S
C645 C644 1.388 . S
C645 C646 1.390 . S
C646 C645 1.390 . S
C646 C647 1.394 1_554 S
C646 C652 1.465 . S
C647 C642 1.399 . S
C647 C646 1.394 1_556 S
C647 C648 1.516 . S
C648 C647 1.516 . S
C648 C649 1.502 . S
C648 C650 1.561 . S
C648 C651 1.526 . S
C649 H633 0.959 1_556 S
C649 H634 0.959 . S
C649 H635 0.961 . S
C649 C648 1.502 . S
C650 H636 0.960 . S
C650 H637 0.961 . S
C650 H638 0.959 . S
C650 C648 1.561 . S
C651 C648 1.526 . S
C651 C652 1.396 1_556 S
C651 C656 1.390 . S
C652 C646 1.465 . S
C652 C651 1.396 1_554 S
C652 C653 1.399 . S
C653 H639 0.929 . S
C653 C652 1.399 . S
C653 C654 1.385 . S
C654 H640 0.931 . S
C654 C653 1.385 . S
C654 C655 1.389 . S
C655 C654 1.389 . S
C655 C656 1.387 1_554 S
C656 H641 0.930 . S
C656 C651 1.390 . S
C656 C655 1.387 1_556 S
H657 C669 0.930 . S
H658 C671 0.930 . S
H659 C672 0.930 . S
H660 C676 0.959 . S
H661 C676 0.959 . S
H662 C676 0.961 . S
H663 C677 0.960 . S
H664 C677 0.961 . S
H665 C677 0.959 . S
H666 C680 0.929 . S
H667 C681 0.931 . S
H668 C683 0.930 . S
C669 H657 0.930 . S
C669 C670 1.399 1_554 S
C669 C674 1.399 . S
C670 C669 1.399 1_556 S
C670 C671 1.376 . S
C671 H658 0.930 . S
C671 C670 1.376 . S
C671 C672 1.388 . S
C672 H659 0.930 . S
C672 C671 1.388 . S
C672 C673 1.390 . S
C673 C672 1.390 . S
C673 C674 1.394 1_556 S
C673 C679 1.465 . S
C674 C669 1.399 . S
C674 C673 1.394 1_554 S
C674 C675 1.516 . S
C675 C674 1.516 . S
C675 C676 1.502 . S
C675 C677 1.561 . S
C675 C678 1.526 . S
C676 H660 0.959 . S
C676 H661 0.959 . S
C676 H662 0.961 . S
C676 C675 1.502 . S
C677 H663 0.960 . S
C677 H664 0.961 . S
C677 H665 0.959 . S
C677 C675 1.561 . S
C678 C675 1.526 . S
C678 C679 1.396 1_554 S
C678 C683 1.390 . S
C679 C673 1.465 . S
C679 C678 1.396 1_556 S
C679 C680 1.399 . S
C680 H666 0.929 . S
C680 C679 1.399 . S
C680 C681 1.385 . S
C681 H667 0.931 . S
C681 C680 1.385 . S
C681 C682 1.389 . S
C682 C681 1.389 . S
C682 C683 1.387 1_556 S
C683 H668 0.930 . S
C683 C678 1.390 . S
C683 C682 1.387 1_554 S
H684 C696 0.930 . S
H685 C698 0.930 . S
H686 C699 0.930 . S
H687 C703 0.959 . S
H688 C703 0.959 . S
H689 C703 0.961 . S
H690 C704 0.960 . S
H691 C704 0.961 . S
H692 C704 0.959 . S
H693 C707 0.929 . S
H694 C708 0.931 . S
H695 C710 0.930 . S
C696 H684 0.930 . S
C696 C697 1.399 . S
C696 C701 1.399 . S
C697 C696 1.399 . S
C697 C698 1.376 1_554 S
C698 H685 0.930 . S
C698 C697 1.376 1_556 S
C698 C699 1.388 . S
C699 H686 0.930 . S
C699 C698 1.388 . S
C699 C700 1.390 . S
C700 C699 1.390 . S
C700 C701 1.394 1_556 S
C700 C706 1.465 . S
C701 C696 1.399 . S
C701 C700 1.394 1_554 S
C701 C702 1.516 . S
C702 C701 1.516 . S
C702 C703 1.502 . S
C702 C704 1.561 . S
C702 C705 1.526 . S
C703 H687 0.959 . S
C703 H688 0.959 . S
C703 H689 0.961 . S
C703 C702 1.502 . S
C704 H690 0.960 . S
C704 H691 0.961 . S
C704 H692 0.959 . S
C704 C702 1.561 . S
C705 C702 1.526 . S
C705 C706 1.396 1_554 S
C705 C710 1.390 . S
C706 C700 1.465 . S
C706 C705 1.396 1_556 S
C706 C707 1.399 . S
C707 H693 0.929 . S
C707 C706 1.399 . S
C707 C708 1.385 . S
C708 H694 0.931 . S
C708 C707 1.385 . S
C708 C709 1.389 1_556 S
C709 C708 1.389 1_554 S
C709 C710 1.387 . S
C710 H695 0.930 . S
C710 C705 1.390 . S
C710 C709 1.387 . S
H711 C723 0.930 . S
H712 C725 0.930 . S
H713 C726 0.930 1_455 S
H714 C730 0.959 . S
H715 C730 0.959 . S
H716 C730 0.961 . S
H717 C731 0.960 . S
H718 C731 0.961 . S
H719 C731 0.959 . S
H720 C734 0.929 . S
H721 C735 0.931 . S
H722 C737 0.930 . S
C723 H711 0.930 . S
C723 C724 1.399 . S
C723 C728 1.399 1_655 S
C724 C723 1.399 . S
C724 C725 1.376 . S
C725 H712 0.930 . S
C725 C724 1.376 . S
C725 C726 1.388 . S
C726 H713 0.930 1_655 S
C726 C725 1.388 . S
C726 C727 1.390 1_655 S
C727 C726 1.390 1_455 S
C727 C728 1.394 . S
C727 C733 1.465 . S
C728 C723 1.399 1_455 S
C728 C727 1.394 . S
C728 C729 1.516 . S
C729 C728 1.516 . S
C729 C730 1.502 . S
C729 C731 1.561 . S
C729 C732 1.526 . S
C730 H714 0.959 . S
C730 H715 0.959 . S
C730 H716 0.961 . S
C730 C729 1.502 . S
C731 H717 0.960 . S
C731 H718 0.961 . S
C731 H719 0.959 . S
C731 C729 1.561 . S
C732 C729 1.526 . S
C732 C733 1.396 . S
C732 C737 1.390 . S
C733 C727 1.465 . S
C733 C732 1.396 . S
C733 C734 1.399 . S
C734 H720 0.929 . S
C734 C733 1.399 . S
C734 C735 1.385 . S
C735 H721 0.931 . S
C735 C734 1.385 . S
C735 C736 1.389 . S
C736 C735 1.389 . S
C736 C737 1.387 . S
C737 H722 0.930 . S
C737 C732 1.390 . S
C737 C736 1.387 . S
H738 C750 0.930 . S
H739 C752 0.930 . S
H740 C753 0.930 . S
H741 C757 0.959 . S
H742 C757 0.959 . S
H743 C757 0.961 . S
H744 C758 0.960 . S
H745 C758 0.961 . S
H746 C758 0.959 . S
H747 C761 0.929 . S
H748 C762 0.931 . S
H749 C764 0.930 . S
C750 H738 0.930 . S
C750 C751 1.399 . S
C750 C755 1.399 . S
C751 C750 1.399 . S
C751 C752 1.376 . S
C752 H739 0.930 . S
C752 C751 1.376 . S
C752 C753 1.388 . S
C753 H740 0.930 . S
C753 C752 1.388 . S
C753 C754 1.390 . S
C754 C753 1.390 . S
C754 C755 1.394 . S
C754 C760 1.465 . S
C755 C750 1.399 . S
C755 C754 1.394 . S
C755 C756 1.516 . S
C756 C755 1.516 . S
C756 C757 1.502 . S
C756 C758 1.561 . S
C756 C759 1.526 . S
C757 H741 0.959 . S
C757 H742 0.959 . S
C757 H743 0.961 . S
C757 C756 1.502 . S
C758 H744 0.960 . S
C758 H745 0.961 . S
C758 H746 0.959 . S
C758 C756 1.561 . S
C759 C756 1.526 . S
C759 C760 1.396 . S
C759 C764 1.390 . S
C760 C754 1.465 . S
C760 C759 1.396 . S
C760 C761 1.399 . S
C761 H747 0.929 . S
C761 C760 1.399 . S
C761 C762 1.385 . S
C762 H748 0.931 . S
C762 C761 1.385 . S
C762 C763 1.389 . S
C763 C762 1.389 . S
C763 C764 1.387 . S
C764 H749 0.930 . S
C764 C759 1.390 . S
C764 C763 1.387 . S
H765 C777 0.930 . S
H766 C779 0.930 . S
H767 C780 0.937 . S
H768 C784 0.959 . S
H769 C784 0.959 . S
H770 C784 0.961 1_545 S
H771 C785 0.960 . S
H772 C785 0.961 . S
H773 C785 0.959 . S
H774 C788 0.929 . S
H775 C789 0.931 . S
H776 C791 0.930 . S
C777 H765 0.930 . S
C777 C778 1.399 . S
C777 C782 1.399 1_545 S
C778 C777 1.399 . S
C778 C779 1.376 . S
C779 H766 0.930 . S
C779 C778 1.376 . S
C779 C780 1.365 1_545 S
C780 H767 0.937 . S
C780 C779 1.365 1_565 S
C780 C781 1.406 . S
C781 C780 1.406 . S
C781 C782 1.394 . S
C781 C787 1.465 . S
C782 C777 1.399 1_565 S
C782 C781 1.394 . S
C782 C783 1.516 . S
C783 C782 1.516 . S
C783 C784 1.502 . S
C783 C785 1.561 . S
C783 C786 1.526 . S
C784 H768 0.959 . S
C784 H769 0.959 . S
C784 H770 0.961 1_565 S
C784 C783 1.502 . S
C785 H771 0.960 . S
C785 H772 0.961 . S
C785 H773 0.959 . S
C785 C783 1.561 . S
C786 C783 1.526 . S
C786 C787 1.396 . S
C786 C791 1.390 . S
C787 C781 1.465 . S
C787 C786 1.396 . S
C787 C788 1.399 . S
C788 H774 0.929 . S
C788 C787 1.399 . S
C788 C789 1.385 . S
C789 H775 0.931 . S
C789 C788 1.385 . S
C789 C790 1.389 . S
C790 C789 1.389 . S
C790 C791 1.387 . S
C791 H776 0.930 . S
C791 C786 1.390 . S
C791 C790 1.387 . S
H792 C804 0.930 . S
H793 C806 0.930 . S
H794 C807 0.930 . S
H795 C811 0.959 . S
H796 C811 0.959 . S
H797 C811 0.961 . S
H798 C812 0.960 . S
H799 C812 0.961 . S
H800 C812 0.959 . S
H801 C815 0.929 . S
H802 C816 0.931 . S
H803 C818 0.930 . S
C804 H792 0.930 . S
C804 C805 1.399 . S
C804 C809 1.399 . S
C805 C804 1.399 . S
C805 C806 1.376 . S
C806 H793 0.930 . S
C806 C805 1.376 . S
C806 C807 1.388 . S
C807 H794 0.930 . S
C807 C806 1.388 . S
C807 C808 1.390 . S
C808 C807 1.390 . S
C808 C809 1.394 . S
C808 C814 1.465 . S
C809 C804 1.399 . S
C809 C808 1.394 . S
C809 C810 1.516 . S
C810 C809 1.516 . S
C810 C811 1.502 . S
C810 C812 1.561 . S
C810 C813 1.526 . S
C811 H795 0.959 . S
C811 H796 0.959 . S
C811 H797 0.961 . S
C811 C810 1.502 . S
C812 H798 0.960 . S
C812 H799 0.961 . S
C812 H800 0.959 . S
C812 C810 1.561 . S
C813 C810 1.526 . S
C813 C814 1.396 . S
C813 C818 1.390 . S
C814 C808 1.465 . S
C814 C813 1.396 . S
C814 C815 1.399 . S
C815 H801 0.929 . S
C815 C814 1.399 . S
C815 C816 1.385 . S
C816 H802 0.931 . S
C816 C815 1.385 . S
C816 C817 1.389 . S
C817 C816 1.389 . S
C817 C818 1.387 . S
C818 H803 0.930 . S
C818 C813 1.390 . S
C818 C817 1.387 . S
H819 C831 0.930 . S
H820 C833 0.930 . S
H821 C834 0.930 . S
H822 C838 0.959 . S
H823 C838 0.959 . S
H824 C838 0.961 . S
H825 C839 0.960 . S
H826 C839 0.961 . S
H827 C839 0.959 . S
H828 C842 0.929 . S
H829 C843 0.931 . S
H830 C845 0.930 . S
C831 H819 0.930 . S
C831 C832 1.399 . S
C831 C836 1.399 . S
C832 C831 1.399 . S
C832 C833 1.376 . S
C833 H820 0.930 . S
C833 C832 1.376 . S
C833 C834 1.388 . S
C834 H821 0.930 . S
C834 C833 1.388 . S
C834 C835 1.390 . S
C835 C834 1.390 . S
C835 C836 1.394 . S
C835 C841 1.465 . S
C836 C831 1.399 . S
C836 C835 1.394 . S
C836 C837 1.516 . S
C837 C836 1.516 . S
C837 C838 1.502 . S
C837 C839 1.561 . S
C837 C840 1.526 . S
C838 H822 0.959 . S
C838 H823 0.959 . S
C838 H824 0.961 . S
C838 C837 1.502 . S
C839 H825 0.960 . S
C839 H826 0.961 . S
C839 H827 0.959 . S
C839 C837 1.561 . S
C840 C837 1.526 . S
C840 C841 1.396 . S
C840 C845 1.390 . S
C841 C835 1.465 . S
C841 C840 1.396 . S
C841 C842 1.399 . S
C842 H828 0.929 . S
C842 C841 1.399 . S
C842 C843 1.385 . S
C843 H829 0.931 . S
C843 C842 1.385 . S
C843 C844 1.389 . S
C844 C843 1.389 . S
C844 C845 1.387 . S
C845 H830 0.930 . S
C845 C840 1.390 . S
C845 C844 1.387 . S
H846 C858 0.930 . S
H847 C860 0.930 . S
H848 C861 0.930 . S
H849 C865 0.959 . S
H850 C865 0.959 . S
H851 C865 0.961 . S
H852 C866 0.960 . S
H853 C866 0.961 . S
H854 C866 0.959 . S
H855 C869 0.929 . S
H856 C870 0.931 . S
H857 C872 0.930 . S
C858 H846 0.930 . S
C858 C859 1.399 . S
C858 C863 1.399 . S
C859 C858 1.399 . S
C859 C860 1.376 . S
C860 H847 0.930 . S
C860 C859 1.376 . S
C860 C861 1.388 . S
C861 H848 0.930 . S
C861 C860 1.388 . S
C861 C862 1.390 . S
C862 C861 1.390 . S
C862 C863 1.394 . S
C862 C868 1.465 . S
C863 C858 1.399 . S
C863 C862 1.394 . S
C863 C864 1.516 . S
C864 C863 1.516 . S
C864 C865 1.502 . S
C864 C866 1.561 . S
C864 C867 1.526 . S
C865 H849 0.959 . S
C865 H850 0.959 . S
C865 H851 0.961 . S
C865 C864 1.502 . S
C866 H852 0.960 . S
C866 H853 0.961 . S
C866 H854 0.959 . S
C866 C864 1.561 . S
C867 C864 1.526 . S
C867 C868 1.396 . S
C867 C872 1.390 . S
C868 C862 1.465 . S
C868 C867 1.396 . S
C868 C869 1.399 . S
C869 H855 0.929 . S
C869 C868 1.399 . S
C869 C870 1.385 . S
C870 H856 0.931 . S
C870 C869 1.385 . S
C870 C871 1.389 . S
C871 C870 1.389 . S
C871 C872 1.387 . S
C872 H857 0.930 . S
C872 C867 1.390 . S
C872 C871 1.387 . S
H873 C885 0.930 . S
H874 C887 0.930 . S
H875 C888 0.930 . S
H876 C892 0.959 . S
H877 C892 0.959 . S
H878 C892 0.961 . S
H879 C893 0.960 . S
H880 C893 0.961 . S
H881 C893 0.959 . S
H882 C896 0.929 . S
H883 C897 0.931 . S
H884 C899 0.930 . S
C885 H873 0.930 . S
C885 C886 1.399 . S
C885 C890 1.399 . S
C886 C885 1.399 . S
C886 C887 1.376 . S
C887 H874 0.930 . S
C887 C886 1.376 . S
C887 C888 1.388 . S
C888 H875 0.930 . S
C888 C887 1.388 . S
C888 C889 1.390 . S
C889 C888 1.390 . S
C889 C890 1.394 . S
C889 C895 1.465 . S
C890 C885 1.399 . S
C890 C889 1.394 . S
C890 C891 1.516 . S
C891 C890 1.516 . S
C891 C892 1.502 . S
C891 C893 1.561 . S
C891 C894 1.526 . S
C892 H876 0.959 . S
C892 H877 0.959 . S
C892 H878 0.961 . S
C892 C891 1.502 . S
C893 H879 0.960 . S
C893 H880 0.961 . S
C893 H881 0.959 . S
C893 C891 1.561 . S
C894 C891 1.526 . S
C894 C895 1.396 . S
C894 C899 1.390 . S
C895 C889 1.465 . S
C895 C894 1.396 . S
C895 C896 1.399 . S
C896 H882 0.929 . S
C896 C895 1.399 . S
C896 C897 1.385 . S
C897 H883 0.931 . S
C897 C896 1.385 . S
C897 C898 1.389 . S
C898 C897 1.389 . S
C898 C899 1.387 . S
C899 H884 0.930 . S
C899 C894 1.390 . S
C899 C898 1.387 . S
H900 C912 0.930 . S
H901 C914 0.930 . S
H902 C915 0.930 . S
H903 C919 0.959 . S
H904 C919 0.959 . S
H905 C919 0.961 . S
H906 C920 0.960 . S
H907 C920 0.961 . S
H908 C920 0.959 . S
H909 C923 0.929 . S
H910 C924 0.931 . S
H911 C926 0.930 . S
C912 H900 0.930 . S
C912 C913 1.399 . S
C912 C917 1.399 . S
C913 C912 1.399 . S
C913 C914 1.376 . S
C914 H901 0.930 . S
C914 C913 1.376 . S
C914 C915 1.388 . S
C915 H902 0.930 . S
C915 C914 1.388 . S
C915 C916 1.390 . S
C916 C915 1.390 . S
C916 C917 1.394 . S
C916 C922 1.465 . S
C917 C912 1.399 . S
C917 C916 1.394 . S
C917 C918 1.516 . S
C918 C917 1.516 . S
C918 C919 1.502 . S
C918 C920 1.561 . S
C918 C921 1.526 . S
C919 H903 0.959 . S
C919 H904 0.959 . S
C919 H905 0.961 . S
C919 C918 1.502 . S
C920 H906 0.960 . S
C920 H907 0.961 . S
C920 H908 0.959 . S
C920 C918 1.561 . S
C921 C918 1.526 . S
C921 C922 1.396 . S
C921 C926 1.390 . S
C922 C916 1.465 . S
C922 C921 1.396 . S
C922 C923 1.399 . S
C923 H909 0.929 . S
C923 C922 1.399 . S
C923 C924 1.385 . S
C924 H910 0.931 . S
C924 C923 1.385 . S
C924 C925 1.389 . S
C925 C924 1.389 . S
C925 C926 1.387 . S
C926 H911 0.930 . S
C926 C921 1.390 . S
C926 C925 1.387 . S
H927 C939 0.930 . S
H928 C941 0.930 . S
H929 C942 0.930 . S
H930 C946 0.959 . S
H931 C946 0.959 . S
H932 C946 0.961 . S
H933 C947 0.960 . S
H934 C947 0.961 . S
H935 C947 0.959 . S
H936 C950 0.929 . S
H937 C951 0.931 . S
H938 C953 0.930 . S
C939 H927 0.930 . S
C939 C940 1.399 . S
C939 C944 1.399 . S
C940 C939 1.399 . S
C940 C941 1.376 . S
C941 H928 0.930 . S
C941 C940 1.376 . S
C941 C942 1.388 . S
C942 H929 0.930 . S
C942 C941 1.388 . S
C942 C943 1.390 . S
C943 C942 1.390 . S
C943 C944 1.394 . S
C943 C949 1.465 . S
C944 C939 1.399 . S
C944 C943 1.394 . S
C944 C945 1.516 . S
C945 C944 1.516 . S
C945 C946 1.502 . S
C945 C947 1.561 . S
C945 C948 1.526 . S
C946 H930 0.959 . S
C946 H931 0.959 . S
C946 H932 0.961 . S
C946 C945 1.502 . S
C947 H933 0.960 . S
C947 H934 0.961 . S
C947 H935 0.959 . S
C947 C945 1.561 . S
C948 C945 1.526 . S
C948 C949 1.396 . S
C948 C953 1.390 . S
C949 C943 1.465 . S
C949 C948 1.396 . S
C949 C950 1.399 . S
C950 H936 0.929 . S
C950 C949 1.399 . S
C950 C951 1.385 . S
C951 H937 0.931 . S
C951 C950 1.385 . S
C951 C952 1.389 . S
C952 C951 1.389 . S
C952 C953 1.387 . S
C953 H938 0.930 . S
C953 C948 1.390 . S
C953 C952 1.387 . S
H954 C966 0.930 . S
H955 C968 0.930 . S
H956 C969 0.930 . S
H957 C973 0.959 . S
H958 C973 0.959 . S
H959 C973 0.961 . S
H960 C974 0.960 . S
H961 C974 0.961 . S
H962 C974 0.959 . S
H963 C977 0.929 . S
H964 C978 0.931 . S
H965 C980 0.930 . S
C966 H954 0.930 . S
C966 C967 1.399 . S
C966 C971 1.399 1_545 S
C967 C966 1.399 . S
C967 C968 1.376 . S
C968 H955 0.930 . S
C968 C967 1.376 . S
C968 C969 1.388 1_545 S
C969 H956 0.930 . S
C969 C968 1.388 1_565 S
C969 C970 1.390 . S
C970 C969 1.390 . S
C970 C971 1.394 . S
C970 C976 1.465 . S
C971 C966 1.399 1_565 S
C971 C970 1.394 . S
C971 C972 1.516 . S
C972 C971 1.516 . S
C972 C973 1.502 . S
C972 C974 1.561 . S
C972 C975 1.526 . S
C973 H957 0.959 . S
C973 H958 0.959 . S
C973 H959 0.961 . S
C973 C972 1.502 . S
C974 H960 0.960 . S
C974 H961 0.961 . S
C974 H962 0.959 . S
C974 C972 1.561 . S
C975 C972 1.526 . S
C975 C976 1.396 . S
C975 C980 1.390 . S
C976 C970 1.465 . S
C976 C975 1.396 . S
C976 C977 1.399 . S
C977 H963 0.929 . S
C977 C976 1.399 . S
C977 C978 1.385 . S
C978 H964 0.931 . S
C978 C977 1.385 . S
C978 C979 1.389 . S
C979 C978 1.389 . S
C979 C980 1.387 . S
C980 H965 0.930 . S
C980 C975 1.390 . S
C980 C979 1.387 . S
H981 C993 0.930 . S
H982 C995 0.930 . S
H983 C996 0.912 1_455 S
H984 C1000 0.959 . S
H985 C1000 0.959 . S
H986 C1000 0.961 . S
H987 C1001 0.960 . S
H988 C1001 0.961 . S
H989 C1001 0.959 . S
H990 C1004 0.929 . S
H991 C1005 0.931 . S
H992 C1007 0.930 . S
C993 H981 0.930 . S
C993 C994 1.399 . S
C993 C998 1.399 1_655 S
C994 C993 1.399 . S
C994 C995 1.376 . S
C995 H982 0.930 . S
C995 C994 1.376 . S
C995 C996 1.388 . S
C996 H983 0.912 1_655 S
C996 C995 1.388 . S
C996 C997 1.390 1_655 S
C997 C996 1.390 1_455 S
C997 C998 1.394 . S
C997 C1003 1.465 . S
C998 C993 1.399 1_455 S
C998 C997 1.394 . S
C998 C999 1.516 . S
C999 C998 1.516 . S
C999 C1000 1.502 . S
C999 C1001 1.561 . S
C999 C1002 1.526 . S
C1000 H984 0.959 . S
C1000 H985 0.959 . S
C1000 H986 0.961 . S
C1000 C999 1.502 . S
C1001 H987 0.960 . S
C1001 H988 0.961 . S
C1001 H989 0.959 . S
C1001 C999 1.561 . S
C1002 C999 1.526 . S
C1002 C1003 1.396 . S
C1002 C1007 1.390 . S
C1003 C997 1.465 . S
C1003 C1002 1.396 . S
C1003 C1004 1.399 . S
C1004 H990 0.929 . S
C1004 C1003 1.399 . S
C1004 C1005 1.385 . S
C1005 H991 0.931 . S
C1005 C1004 1.385 . S
C1005 C1006 1.389 . S
C1006 C1005 1.389 . S
C1006 C1007 1.387 . S
C1007 H992 0.930 . S
C1007 C1002 1.390 . S
C1007 C1006 1.387 . S
H1008 C1020 0.930 . S
H1009 C1022 0.930 . S
H1010 C1023 0.930 . S
H1011 C1027 0.959 . S
H1012 C1027 0.959 . S
H1013 C1027 0.961 . S
H1014 C1028 0.960 . S
H1015 C1028 0.961 . S
H1016 C1028 0.959 . S
H1017 C1031 0.929 . S
H1018 C1032 0.931 . S
H1019 C1034 0.930 . S
C1020 H1008 0.930 . S
C1020 C1021 1.399 . S
C1020 C1025 1.399 . S
C1021 C1020 1.399 . S
C1021 C1022 1.376 . S
C1022 H1009 0.930 . S
C1022 C1021 1.376 . S
C1022 C1023 1.388 . S
C1023 H1010 0.930 . S
C1023 C1022 1.388 . S
C1023 C1024 1.390 . S
C1024 C1023 1.390 . S
C1024 C1025 1.394 . S
C1024 C1030 1.465 . S
C1025 C1020 1.399 . S
C1025 C1024 1.394 . S
C1025 C1026 1.516 . S
C1026 C1025 1.516 . S
C1026 C1027 1.502 . S
C1026 C1028 1.561 . S
C1026 C1029 1.526 . S
C1027 H1011 0.959 . S
C1027 H1012 0.959 . S
C1027 H1013 0.961 . S
C1027 C1026 1.502 . S
C1028 H1014 0.960 . S
C1028 H1015 0.961 . S
C1028 H1016 0.959 . S
C1028 C1026 1.561 . S
C1029 C1026 1.526 . S
C1029 C1030 1.396 . S
C1029 C1034 1.390 . S
C1030 C1024 1.465 . S
C1030 C1029 1.396 . S
C1030 C1031 1.399 . S
C1031 H1017 0.929 . S
C1031 C1030 1.399 . S
C1031 C1032 1.385 . S
C1032 H1018 0.931 . S
C1032 C1031 1.385 . S
C1032 C1033 1.389 . S
C1033 C1032 1.389 . S
C1033 C1034 1.387 . S
C1034 H1019 0.930 . S
C1034 C1029 1.390 . S
C1034 C1033 1.387 . S
H1035 C1047 0.930 . S
H1036 C1049 0.930 . S
H1037 C1050 0.930 . S
H1038 C1054 0.959 . S
H1039 C1054 0.959 . S
H1040 C1054 0.961 . S
H1041 C1055 0.960 . S
H1042 C1055 0.961 . S
H1043 C1055 0.959 . S
H1044 C1058 0.929 . S
H1045 C1059 0.931 . S
H1046 C1061 0.930 . S
C1047 H1035 0.930 . S
C1047 C1048 1.399 . S
C1047 C1052 1.399 . S
C1048 C1047 1.399 . S
C1048 C1049 1.376 . S
C1049 H1036 0.930 . S
C1049 C1048 1.376 . S
C1049 C1050 1.388 . S
C1050 H1037 0.930 . S
C1050 C1049 1.388 . S
C1050 C1051 1.390 . S
C1051 C1050 1.390 . S
C1051 C1052 1.394 . S
C1051 C1057 1.465 . S
C1052 C1047 1.399 . S
C1052 C1051 1.394 . S
C1052 C1053 1.516 . S
C1053 C1052 1.516 . S
C1053 C1054 1.502 . S
C1053 C1055 1.561 . S
C1053 C1056 1.526 . S
C1054 H1038 0.959 . S
C1054 H1039 0.959 . S
C1054 H1040 0.961 . S
C1054 C1053 1.502 . S
C1055 H1041 0.960 . S
C1055 H1042 0.961 . S
C1055 H1043 0.959 . S
C1055 C1053 1.561 . S
C1056 C1053 1.526 . S
C1056 C1057 1.396 . S
C1056 C1061 1.390 . S
C1057 C1051 1.465 . S
C1057 C1056 1.396 . S
C1057 C1058 1.399 . S
C1058 H1044 0.929 . S
C1058 C1057 1.399 . S
C1058 C1059 1.385 . S
C1059 H1045 0.931 . S
C1059 C1058 1.385 . S
C1059 C1060 1.389 . S
C1060 C1059 1.389 . S
C1060 C1061 1.387 . S
C1061 H1046 0.930 . S
C1061 C1056 1.390 . S
C1061 C1060 1.387 . S
H1062 C1074 0.930 . S
H1063 C1076 0.930 . S
H1064 C1077 0.930 . S
H1065 C1081 0.959 . S
H1066 C1081 0.959 . S
H1067 C1081 0.961 . S
H1068 C1082 0.960 . S
H1069 C1082 0.961 . S
H1070 C1082 0.959 . S
H1071 C1085 0.929 . S
H1072 C1086 0.931 . S
H1073 C1088 0.930 . S
C1074 H1062 0.930 . S
C1074 C1075 1.399 . S
C1074 C1079 1.399 . S
C1075 C1074 1.399 . S
C1075 C1076 1.376 . S
C1076 H1063 0.930 . S
C1076 C1075 1.376 . S
C1076 C1077 1.388 . S
C1077 H1064 0.930 . S
C1077 C1076 1.388 . S
C1077 C1078 1.390 . S
C1078 C1077 1.390 . S
C1078 C1079 1.394 . S
C1078 C1084 1.465 . S
C1079 C1074 1.399 . S
C1079 C1078 1.394 . S
C1079 C1080 1.516 . S
C1080 C1079 1.516 . S
C1080 C1081 1.502 . S
C1080 C1082 1.561 . S
C1080 C1083 1.526 . S
C1081 H1065 0.959 . S
C1081 H1066 0.959 . S
C1081 H1067 0.961 . S
C1081 C1080 1.502 . S
C1082 H1068 0.960 . S
C1082 H1069 0.961 . S
C1082 H1070 0.959 . S
C1082 C1080 1.561 . S
C1083 C1080 1.526 . S
C1083 C1084 1.396 . S
C1083 C1088 1.390 . S
C1084 C1078 1.465 . S
C1084 C1083 1.396 . S
C1084 C1085 1.399 . S
C1085 H1071 0.929 . S
C1085 C1084 1.399 . S
C1085 C1086 1.385 . S
C1086 H1072 0.931 . S
C1086 C1085 1.385 . S
C1086 C1087 1.389 . S
C1087 C1086 1.389 . S
C1087 C1088 1.387 . S
C1088 H1073 0.930 . S
C1088 C1083 1.390 . S
C1088 C1087 1.387 . S
H1089 C1101 0.930 . S
H1090 C1103 0.930 . S
H1091 C1104 0.930 . S
H1092 C1108 0.959 . S
H1093 C1108 0.959 . S
H1094 C1108 0.961 . S
H1095 C1109 0.960 . S
H1096 C1109 0.961 . S
H1097 C1109 0.959 . S
H1098 C1112 0.929 . S
H1099 C1113 0.931 . S
H1100 C1115 0.930 . S
C1101 H1089 0.930 . S
C1101 C1102 1.399 . S
C1101 C1106 1.399 . S
C1102 C1101 1.399 . S
C1102 C1103 1.376 . S
C1103 H1090 0.930 . S
C1103 C1102 1.376 . S
C1103 C1104 1.388 . S
C1104 H1091 0.930 . S
C1104 C1103 1.388 . S
C1104 C1105 1.390 . S
C1105 C1104 1.390 . S
C1105 C1106 1.394 . S
C1105 C1111 1.465 . S
C1106 C1101 1.399 . S
C1106 C1105 1.394 . S
C1106 C1107 1.516 . S
C1107 C1106 1.516 . S
C1107 C1108 1.502 . S
C1107 C1109 1.561 . S
C1107 C1110 1.526 . S
C1108 H1092 0.959 . S
C1108 H1093 0.959 . S
C1108 H1094 0.961 . S
C1108 C1107 1.502 . S
C1109 H1095 0.960 . S
C1109 H1096 0.961 . S
C1109 H1097 0.959 . S
C1109 C1107 1.561 . S
C1110 C1107 1.526 . S
C1110 C1111 1.396 . S
C1110 C1115 1.390 . S
C1111 C1105 1.465 . S
C1111 C1110 1.396 . S
C1111 C1112 1.399 . S
C1112 H1098 0.929 . S
C1112 C1111 1.399 . S
C1112 C1113 1.385 . S
C1113 H1099 0.931 . S
C1113 C1112 1.385 . S
C1113 C1114 1.389 . S
C1114 C1113 1.389 . S
C1114 C1115 1.387 . S
C1115 H1100 0.930 . S
C1115 C1110 1.390 . S
C1115 C1114 1.387 . S
H1116 C1128 0.930 . S
H1117 C1130 0.930 . S
H1118 C1131 0.930 . S
H1119 C1135 0.959 . S
H1120 C1135 0.959 . S
H1121 C1135 0.961 . S
H1122 C1136 0.960 . S
H1123 C1136 0.961 . S
H1124 C1136 0.959 . S
H1125 C1139 0.929 . S
H1126 C1140 0.931 . S
H1127 C1142 0.930 . S
C1128 H1116 0.930 . S
C1128 C1129 1.399 . S
C1128 C1133 1.399 1_565 S
C1129 C1128 1.399 . S
C1129 C1130 1.376 . S
C1130 H1117 0.930 . S
C1130 C1129 1.376 . S
C1130 C1131 1.388 . S
C1131 H1118 0.930 . S
C1131 C1130 1.388 . S
C1131 C1132 1.390 1_565 S
C1132 C1131 1.390 1_545 S
C1132 C1133 1.394 . S
C1132 C1138 1.465 . S
C1133 C1128 1.399 1_545 S
C1133 C1132 1.394 . S
C1133 C1134 1.516 . S
C1134 C1133 1.516 . S
C1134 C1135 1.502 . S
C1134 C1136 1.561 . S
C1134 C1137 1.526 . S
C1135 H1119 0.959 . S
C1135 H1120 0.959 . S
C1135 H1121 0.961 . S
C1135 C1134 1.502 . S
C1136 H1122 0.960 . S
C1136 H1123 0.961 . S
C1136 H1124 0.959 . S
C1136 C1134 1.561 . S
C1137 C1134 1.526 . S
C1137 C1138 1.396 . S
C1137 C1142 1.390 . S
C1138 C1132 1.465 . S
C1138 C1137 1.396 . S
C1138 C1139 1.399 . S
C1139 H1125 0.929 . S
C1139 C1138 1.399 . S
C1139 C1140 1.385 . S
C1140 H1126 0.931 . S
C1140 C1139 1.385 . S
C1140 C1141 1.389 . S
C1141 C1140 1.389 . S
C1141 C1142 1.387 . S
C1142 H1127 0.930 . S
C1142 C1137 1.390 . S
C1142 C1141 1.387 . S
H1143 C1155 0.930 . S
H1144 C1157 0.930 . S
H1145 C1158 0.930 . S
H1146 C1162 0.959 . S
H1147 C1162 0.959 . S
H1148 C1162 0.961 1_455 S
H1149 C1163 0.960 . S
H1150 C1163 0.961 . S
H1151 C1163 0.959 . S
H1152 C1166 0.929 . S
H1153 C1167 0.931 . S
H1154 C1169 0.930 . S
C1155 H1143 0.930 . S
C1155 C1156 1.399 . S
C1155 C1160 1.399 . S
C1156 C1155 1.399 . S
C1156 C1157 1.376 . S
C1157 H1144 0.930 . S
C1157 C1156 1.376 . S
C1157 C1158 1.388 . S
C1158 H1145 0.930 . S
C1158 C1157 1.388 . S
C1158 C1159 1.368 1_455 S
C1159 C1158 1.368 1_655 S
C1159 C1160 1.386 1_655 S
C1159 C1165 1.497 . S
C1160 C1155 1.399 . S
C1160 C1159 1.386 1_455 S
C1160 C1161 1.516 1_455 S
C1161 C1160 1.516 1_655 S
C1161 C1162 1.502 . S
C1161 C1163 1.561 . S
C1161 C1164 1.526 . S
C1162 H1146 0.959 . S
C1162 H1147 0.959 . S
C1162 H1148 0.961 1_655 S
C1162 C1161 1.502 . S
C1163 H1149 0.960 . S
C1163 H1150 0.961 . S
C1163 H1151 0.959 . S
C1163 C1161 1.561 . S
C1164 C1161 1.526 . S
C1164 C1165 1.396 . S
C1164 C1169 1.390 . S
C1165 C1159 1.497 . S
C1165 C1164 1.396 . S
C1165 C1166 1.399 . S
C1166 H1152 0.929 . S
C1166 C1165 1.399 . S
C1166 C1167 1.385 . S
C1167 H1153 0.931 . S
C1167 C1166 1.385 . S
C1167 C1168 1.389 . S
C1168 C1167 1.389 . S
C1168 C1169 1.387 . S
C1169 H1154 0.930 . S
C1169 C1164 1.390 . S
C1169 C1168 1.387 . S
H1170 C1182 0.930 . S
H1171 C1184 0.930 . S
H1172 C1185 0.930 . S
H1173 C1189 0.959 . S
H1174 C1189 0.959 . S
H1175 C1189 0.961 . S
H1176 C1190 0.960 . S
H1177 C1190 0.961 . S
H1178 C1190 0.959 . S
H1179 C1193 0.929 . S
H1180 C1194 0.931 . S
H1181 C1196 0.930 . S
C1182 H1170 0.930 . S
C1182 C1183 1.399 . S
C1182 C1187 1.399 . S
C1183 C1182 1.399 . S
C1183 C1184 1.376 . S
C1184 H1171 0.930 . S
C1184 C1183 1.376 . S
C1184 C1185 1.388 . S
C1185 H1172 0.930 . S
C1185 C1184 1.388 . S
C1185 C1186 1.390 . S
C1186 C1185 1.390 . S
C1186 C1187 1.394 . S
C1186 C1192 1.465 . S
C1187 C1182 1.399 . S
C1187 C1186 1.394 . S
C1187 C1188 1.516 . S
C1188 C1187 1.516 . S
C1188 C1189 1.502 . S
C1188 C1190 1.561 . S
C1188 C1191 1.526 . S
C1189 H1173 0.959 . S
C1189 H1174 0.959 . S
C1189 H1175 0.961 . S
C1189 C1188 1.502 . S
C1190 H1176 0.960 . S
C1190 H1177 0.961 . S
C1190 H1178 0.959 . S
C1190 C1188 1.561 . S
C1191 C1188 1.526 . S
C1191 C1192 1.396 . S
C1191 C1196 1.390 . S
C1192 C1186 1.465 . S
C1192 C1191 1.396 . S
C1192 C1193 1.399 . S
C1193 H1179 0.929 . S
C1193 C1192 1.399 . S
C1193 C1194 1.385 . S
C1194 H1180 0.931 . S
C1194 C1193 1.385 . S
C1194 C1195 1.389 . S
C1195 C1194 1.389 . S
C1195 C1196 1.387 . S
C1196 H1181 0.930 . S
C1196 C1191 1.390 . S
C1196 C1195 1.387 . S
H1197 C1209 0.930 . S
H1198 C1211 0.930 . S
H1199 C1212 0.930 1_655 S
H1200 C1216 0.959 . S
H1201 C1216 0.959 . S
H1202 C1216 0.961 . S
H1203 C1217 0.960 . S
H1204 C1217 0.961 . S
H1205 C1217 0.959 . S
H1206 C1220 0.929 . S
H1207 C1221 0.931 . S
H1208 C1223 0.930 . S
C1209 H1197 0.930 . S
C1209 C1210 1.399 . S
C1209 C1214 1.399 1_455 S
C1210 C1209 1.399 . S
C1210 C1211 1.376 . S
C1211 H1198 0.930 . S
C1211 C1210 1.376 . S
C1211 C1212 1.388 . S
C1212 H1199 0.930 1_455 S
C1212 C1211 1.388 . S
C1212 C1213 1.390 1_455 S
C1213 C1212 1.390 1_655 S
C1213 C1214 1.394 . S
C1213 C1219 1.465 . S
C1214 C1209 1.399 1_655 S
C1214 C1213 1.394 . S
C1214 C1215 1.516 . S
C1215 C1214 1.516 . S
C1215 C1216 1.502 . S
C1215 C1217 1.561 . S
C1215 C1218 1.526 . S
C1216 H1200 0.959 . S
C1216 H1201 0.959 . S
C1216 H1202 0.961 . S
C1216 C1215 1.502 . S
C1217 H1203 0.960 . S
C1217 H1204 0.961 . S
C1217 H1205 0.959 . S
C1217 C1215 1.561 . S
C1218 C1215 1.526 . S
C1218 C1219 1.396 . S
C1218 C1223 1.390 . S
C1219 C1213 1.465 . S
C1219 C1218 1.396 . S
C1219 C1220 1.399 . S
C1220 H1206 0.929 . S
C1220 C1219 1.399 . S
C1220 C1221 1.385 . S
C1221 H1207 0.931 . S
C1221 C1220 1.385 . S
C1221 C1222 1.389 . S
C1222 C1221 1.389 . S
C1222 C1223 1.387 . S
C1223 H1208 0.930 . S
C1223 C1218 1.390 . S
C1223 C1222 1.387 . S
H1224 C1236 0.930 . S
H1225 C1238 0.930 . S
H1226 C1239 0.930 . S
H1227 C1243 0.959 . S
H1228 C1243 0.959 . S
H1229 C1243 0.961 . S
H1230 C1244 0.960 . S
H1231 C1244 0.961 . S
H1232 C1244 0.959 . S
H1233 C1247 0.929 . S
H1234 C1248 0.931 . S
H1235 C1250 0.930 . S
C1236 H1224 0.930 . S
C1236 C1237 1.399 . S
C1236 C1241 1.399 . S
C1237 C1236 1.399 . S
C1237 C1238 1.376 . S
C1238 H1225 0.930 . S
C1238 C1237 1.376 . S
C1238 C1239 1.388 . S
C1239 H1226 0.930 . S
C1239 C1238 1.388 . S
C1239 C1240 1.390 . S
C1240 C1239 1.390 . S
C1240 C1241 1.394 . S
C1240 C1246 1.465 . S
C1241 C1236 1.399 . S
C1241 C1240 1.394 . S
C1241 C1242 1.516 . S
C1242 C1241 1.516 . S
C1242 C1243 1.502 . S
C1242 C1244 1.561 . S
C1242 C1245 1.526 . S
C1243 H1227 0.959 . S
C1243 H1228 0.959 . S
C1243 H1229 0.961 . S
C1243 C1242 1.502 . S
C1244 H1230 0.960 . S
C1244 H1231 0.961 . S
C1244 H1232 0.959 . S
C1244 C1242 1.561 . S
C1245 C1242 1.526 . S
C1245 C1246 1.396 . S
C1245 C1250 1.390 . S
C1246 C1240 1.465 . S
C1246 C1245 1.396 . S
C1246 C1247 1.399 . S
C1247 H1233 0.929 . S
C1247 C1246 1.399 . S
C1247 C1248 1.385 . S
C1248 H1234 0.931 . S
C1248 C1247 1.385 . S
C1248 C1249 1.389 . S
C1249 C1248 1.389 . S
C1249 C1250 1.387 . S
C1250 H1235 0.930 . S
C1250 C1245 1.390 . S
C1250 C1249 1.387 . S
H1251 C1263 0.930 . S
H1252 C1265 0.930 . S
H1253 C1266 0.934 . S
H1254 C1270 0.959 . S
H1255 C1270 0.959 . S
H1256 C1270 0.961 . S
H1257 C1271 0.960 . S
H1258 C1271 0.961 . S
H1259 C1271 0.959 . S
H1260 C1274 0.929 . S
H1261 C1275 0.931 . S
H1262 C1277 0.930 . S
C1263 H1251 0.930 . S
C1263 C1264 1.399 . S
C1263 C1268 1.399 1_565 S
C1264 C1263 1.399 . S
C1264 C1265 1.376 . S
C1265 H1252 0.930 . S
C1265 C1264 1.376 . S
C1265 C1266 1.367 1_565 S
C1266 H1253 0.934 . S
C1266 C1265 1.367 1_545 S
C1266 C1267 1.407 . S
C1267 C1266 1.407 . S
C1267 C1268 1.394 . S
C1267 C1273 1.465 . S
C1268 C1263 1.399 1_545 S
C1268 C1267 1.394 . S
C1268 C1269 1.516 . S
C1269 C1268 1.516 . S
C1269 C1270 1.502 . S
C1269 C1271 1.561 . S
C1269 C1272 1.526 . S
C1270 H1254 0.959 . S
C1270 H1255 0.959 . S
C1270 H1256 0.961 . S
C1270 C1269 1.502 . S
C1271 H1257 0.960 . S
C1271 H1258 0.961 . S
C1271 H1259 0.959 . S
C1271 C1269 1.561 . S
C1272 C1269 1.526 . S
C1272 C1273 1.396 . S
C1272 C1277 1.390 . S
C1273 C1267 1.465 . S
C1273 C1272 1.396 . S
C1273 C1274 1.399 . S
C1274 H1260 0.929 . S
C1274 C1273 1.399 . S
C1274 C1275 1.385 . S
C1275 H1261 0.931 . S
C1275 C1274 1.385 . S
C1275 C1276 1.389 . S
C1276 C1275 1.389 . S
C1276 C1277 1.387 . S
C1277 H1262 0.930 . S
C1277 C1272 1.390 . S
C1277 C1276 1.387 . S
H1278 C1290 0.930 . S
H1279 C1292 0.930 . S
H1280 C1293 0.930 . S
H1281 C1297 0.959 . S
H1282 C1297 0.959 . S
H1283 C1297 0.961 . S
H1284 C1298 0.960 . S
H1285 C1298 0.961 . S
H1286 C1298 0.959 . S
H1287 C1301 0.929 . S
H1288 C1302 0.931 . S
H1289 C1304 0.930 . S
C1290 H1278 0.930 . S
C1290 C1291 1.399 . S
C1290 C1295 1.399 . S
C1291 C1290 1.399 . S
C1291 C1292 1.376 . S
C1292 H1279 0.930 . S
C1292 C1291 1.376 . S
C1292 C1293 1.388 . S
C1293 H1280 0.930 . S
C1293 C1292 1.388 . S
C1293 C1294 1.390 . S
C1294 C1293 1.390 . S
C1294 C1295 1.394 . S
C1294 C1300 1.465 . S
C1295 C1290 1.399 . S
C1295 C1294 1.394 . S
C1295 C1296 1.516 . S
C1296 C1295 1.516 . S
C1296 C1297 1.502 . S
C1296 C1298 1.561 . S
C1296 C1299 1.526 . S
C1297 H1281 0.959 . S
C1297 H1282 0.959 . S
C1297 H1283 0.961 . S
C1297 C1296 1.502 . S
C1298 H1284 0.960 . S
C1298 H1285 0.961 . S
C1298 H1286 0.959 . S
C1298 C1296 1.561 . S
C1299 C1296 1.526 . S
C1299 C1300 1.396 . S
C1299 C1304 1.390 . S
C1300 C1294 1.465 . S
C1300 C1299 1.396 . S
C1300 C1301 1.399 . S
C1301 H1287 0.929 . S
C1301 C1300 1.399 . S
C1301 C1302 1.385 . S
C1302 H1288 0.931 . S
C1302 C1301 1.385 . S
C1302 C1303 1.389 . S
C1303 C1302 1.389 . S
C1303 C1304 1.387 . S
C1304 H1289 0.930 . S
C1304 C1299 1.390 . S
C1304 C1303 1.387 . S
H1305 C1317 0.930 . S
H1306 C1319 0.930 . S
H1307 C1320 0.930 . S
H1308 C1324 0.959 . S
H1309 C1324 0.959 . S
H1310 C1324 0.961 . S
H1311 C1325 0.960 . S
H1312 C1325 0.961 . S
H1313 C1325 0.959 . S
H1314 C1328 0.929 . S
H1315 C1329 0.931 . S
H1316 C1331 0.930 . S
C1317 H1305 0.930 . S
C1317 C1318 1.399 . S
C1317 C1322 1.399 . S
C1318 C1317 1.399 . S
C1318 C1319 1.376 . S
C1319 H1306 0.930 . S
C1319 C1318 1.376 . S
C1319 C1320 1.388 . S
C1320 H1307 0.930 . S
C1320 C1319 1.388 . S
C1320 C1321 1.390 . S
C1321 C1320 1.390 . S
C1321 C1322 1.394 . S
C1321 C1327 1.465 . S
C1322 C1317 1.399 . S
C1322 C1321 1.394 . S
C1322 C1323 1.516 . S
C1323 C1322 1.516 . S
C1323 C1324 1.502 . S
C1323 C1325 1.561 . S
C1323 C1326 1.526 . S
C1324 H1308 0.959 . S
C1324 H1309 0.959 . S
C1324 H1310 0.961 . S
C1324 C1323 1.502 . S
C1325 H1311 0.960 . S
C1325 H1312 0.961 . S
C1325 H1313 0.959 . S
C1325 C1323 1.561 . S
C1326 C1323 1.526 . S
C1326 C1327 1.396 . S
C1326 C1331 1.390 . S
C1327 C1321 1.465 . S
C1327 C1326 1.396 . S
C1327 C1328 1.399 . S
C1328 H1314 0.929 . S
C1328 C1327 1.399 . S
C1328 C1329 1.385 . S
C1329 H1315 0.931 . S
C1329 C1328 1.385 . S
C1329 C1330 1.389 . S
C1330 C1329 1.389 . S
C1330 C1331 1.387 . S
C1331 H1316 0.930 . S
C1331 C1326 1.390 . S
C1331 C1330 1.387 . S
H1332 C1344 0.930 . S
H1333 C1346 0.930 . S
H1334 C1347 0.930 . S
H1335 C1351 0.959 . S
H1336 C1351 0.959 . S
H1337 C1351 0.961 . S
H1338 C1352 0.960 . S
H1339 C1352 0.961 . S
H1340 C1352 0.959 . S
H1341 C1355 0.929 . S
H1342 C1356 0.931 . S
H1343 C1358 0.930 . S
C1344 H1332 0.930 . S
C1344 C1345 1.399 . S
C1344 C1349 1.399 . S
C1345 C1344 1.399 . S
C1345 C1346 1.376 . S
C1346 H1333 0.930 . S
C1346 C1345 1.376 . S
C1346 C1347 1.388 . S
C1347 H1334 0.930 . S
C1347 C1346 1.388 . S
C1347 C1348 1.390 . S
C1348 C1347 1.390 . S
C1348 C1349 1.394 . S
C1348 C1354 1.465 . S
C1349 C1344 1.399 . S
C1349 C1348 1.394 . S
C1349 C1350 1.516 . S
C1350 C1349 1.516 . S
C1350 C1351 1.502 . S
C1350 C1352 1.561 . S
C1350 C1353 1.526 . S
C1351 H1335 0.959 . S
C1351 H1336 0.959 . S
C1351 H1337 0.961 . S
C1351 C1350 1.502 . S
C1352 H1338 0.960 . S
C1352 H1339 0.961 . S
C1352 H1340 0.959 . S
C1352 C1350 1.561 . S
C1353 C1350 1.526 . S
C1353 C1354 1.396 . S
C1353 C1358 1.390 . S
C1354 C1348 1.465 . S
C1354 C1353 1.396 . S
C1354 C1355 1.399 . S
C1355 H1341 0.929 . S
C1355 C1354 1.399 . S
C1355 C1356 1.385 . S
C1356 H1342 0.931 . S
C1356 C1355 1.385 . S
C1356 C1357 1.389 . S
C1357 C1356 1.389 . S
C1357 C1358 1.387 . S
C1358 H1343 0.930 . S
C1358 C1353 1.390 . S
C1358 C1357 1.387 . S
H1359 C1371 0.930 . S
H1360 C1373 0.930 . S
H1361 C1374 0.930 . S
H1362 C1378 0.959 1_565 S
H1363 C1378 0.959 . S
H1364 C1378 0.961 . S
H1365 C1379 0.960 . S
H1366 C1379 0.961 . S
H1367 C1379 0.959 . S
H1368 C1382 0.929 . S
H1369 C1383 0.931 . S
H1370 C1385 0.930 1_545 S
C1371 H1359 0.930 . S
C1371 C1372 1.399 . S
C1371 C1376 1.399 . S
C1372 C1371 1.399 . S
C1372 C1373 1.376 . S
C1373 H1360 0.930 . S
C1373 C1372 1.376 . S
C1373 C1374 1.388 . S
C1374 H1361 0.930 . S
C1374 C1373 1.388 . S
C1374 C1375 1.390 . S
C1375 C1374 1.390 . S
C1375 C1376 1.394 . S
C1375 C1381 1.465 . S
C1376 C1371 1.399 . S
C1376 C1375 1.394 . S
C1376 C1377 1.516 . S
C1377 C1376 1.516 . S
C1377 C1378 1.502 1_565 S
C1377 C1379 1.561 1_565 S
C1377 C1380 1.526 . S
C1378 H1362 0.959 1_545 S
C1378 H1363 0.959 . S
C1378 H1364 0.961 . S
C1378 C1377 1.502 1_545 S
C1379 H1365 0.960 . S
C1379 H1366 0.961 . S
C1379 H1367 0.959 . S
C1379 C1377 1.561 1_545 S
C1380 C1377 1.526 . S
C1380 C1381 1.396 . S
C1380 C1385 1.390 . S
C1381 C1375 1.465 . S
C1381 C1380 1.396 . S
C1381 C1382 1.399 . S
C1382 H1368 0.929 . S
C1382 C1381 1.399 . S
C1382 C1383 1.385 . S
C1383 H1369 0.931 . S
C1383 C1382 1.385 . S
C1383 C1384 1.389 . S
C1384 C1383 1.389 . S
C1384 C1385 1.387 . S
C1385 H1370 0.930 1_565 S
C1385 C1380 1.390 . S
C1385 C1384 1.387 . S
H1386 C1398 0.930 . S
H1387 C1400 0.930 . S
H1388 C1401 0.930 . S
H1389 C1405 0.959 . S
H1390 C1405 0.959 . S
H1391 C1405 0.961 . S
H1392 C1406 0.960 . S
H1393 C1406 0.961 . S
H1394 C1406 0.959 . S
H1395 C1409 0.929 . S
H1396 C1410 0.931 . S
H1397 C1412 0.930 . S
C1398 H1386 0.930 . S
C1398 C1399 1.399 . S
C1398 C1403 1.399 . S
C1399 C1398 1.399 . S
C1399 C1400 1.376 . S
C1400 H1387 0.930 . S
C1400 C1399 1.376 . S
C1400 C1401 1.388 . S
C1401 H1388 0.930 . S
C1401 C1400 1.388 . S
C1401 C1402 1.390 . S
C1402 C1401 1.390 . S
C1402 C1403 1.394 . S
C1402 C1408 1.465 . S
C1403 C1398 1.399 . S
C1403 C1402 1.394 . S
C1403 C1404 1.516 . S
C1404 C1403 1.516 . S
C1404 C1405 1.502 . S
C1404 C1406 1.561 . S
C1404 C1407 1.526 . S
C1405 H1389 0.959 . S
C1405 H1390 0.959 . S
C1405 H1391 0.961 . S
C1405 C1404 1.502 . S
C1406 H1392 0.960 . S
C1406 H1393 0.961 . S
C1406 H1394 0.959 . S
C1406 C1404 1.561 . S
C1407 C1404 1.526 . S
C1407 C1408 1.396 . S
C1407 C1412 1.390 . S
C1408 C1402 1.465 . S
C1408 C1407 1.396 . S
C1408 C1409 1.399 . S
C1409 H1395 0.929 . S
C1409 C1408 1.399 . S
C1409 C1410 1.385 . S
C1410 H1396 0.931 . S
C1410 C1409 1.385 . S
C1410 C1411 1.389 . S
C1411 C1410 1.389 . S
C1411 C1412 1.387 . S
C1412 H1397 0.930 . S
C1412 C1407 1.390 . S
C1412 C1411 1.387 . S
H1413 C1425 0.930 . S
H1414 C1427 0.930 . S
H1415 C1428 0.930 . S
H1416 C1432 0.959 . S
H1417 C1432 0.959 . S
H1418 C1432 0.961 . S
H1419 C1433 0.960 . S
H1420 C1433 0.961 . S
H1421 C1433 0.959 . S
H1422 C1436 0.929 . S
H1423 C1437 0.931 . S
H1424 C1439 0.930 . S
C1425 H1413 0.930 . S
C1425 C1426 1.399 . S
C1425 C1430 1.399 . S
C1426 C1425 1.399 . S
C1426 C1427 1.376 . S
C1427 H1414 0.930 . S
C1427 C1426 1.376 . S
C1427 C1428 1.388 . S
C1428 H1415 0.930 . S
C1428 C1427 1.388 . S
C1428 C1429 1.390 . S
C1429 C1428 1.390 . S
C1429 C1430 1.394 . S
C1429 C1435 1.465 . S
C1430 C1425 1.399 . S
C1430 C1429 1.394 . S
C1430 C1431 1.516 . S
C1431 C1430 1.516 . S
C1431 C1432 1.502 . S
C1431 C1433 1.561 . S
C1431 C1434 1.526 . S
C1432 H1416 0.959 . S
C1432 H1417 0.959 . S
C1432 H1418 0.961 . S
C1432 C1431 1.502 . S
C1433 H1419 0.960 . S
C1433 H1420 0.961 . S
C1433 H1421 0.959 . S
C1433 C1431 1.561 . S
C1434 C1431 1.526 . S
C1434 C1435 1.396 . S
C1434 C1439 1.390 . S
C1435 C1429 1.465 . S
C1435 C1434 1.396 . S
C1435 C1436 1.399 . S
C1436 H1422 0.929 . S
C1436 C1435 1.399 . S
C1436 C1437 1.385 . S
C1437 H1423 0.931 . S
C1437 C1436 1.385 . S
C1437 C1438 1.389 . S
C1438 C1437 1.389 . S
C1438 C1439 1.387 . S
C1439 H1424 0.930 . S
C1439 C1434 1.390 . S
C1439 C1438 1.387 . S
H1440 C1452 0.930 . S
H1441 C1454 0.930 . S
H1442 C1455 0.930 . S
H1443 C1459 0.959 . S
H1444 C1459 0.959 . S
H1445 C1459 0.961 . S
H1446 C1460 0.960 . S
H1447 C1460 0.961 . S
H1448 C1460 0.959 . S
H1449 C1463 0.929 . S
H1450 C1464 0.931 . S
H1451 C1466 0.930 . S
C1452 H1440 0.930 . S
C1452 C1453 1.399 . S
C1452 C1457 1.399 . S
C1453 C1452 1.399 . S
C1453 C1454 1.376 . S
C1454 H1441 0.930 . S
C1454 C1453 1.376 . S
C1454 C1455 1.388 . S
C1455 H1442 0.930 . S
C1455 C1454 1.388 . S
C1455 C1456 1.390 . S
C1456 C1455 1.390 . S
C1456 C1457 1.394 . S
C1456 C1462 1.465 . S
C1457 C1452 1.399 . S
C1457 C1456 1.394 . S
C1457 C1458 1.516 . S
C1458 C1457 1.516 . S
C1458 C1459 1.502 1_655 S
C1458 C1460 1.561 . S
C1458 C1461 1.526 . S
C1459 H1443 0.959 . S
C1459 H1444 0.959 . S
C1459 H1445 0.961 . S
C1459 C1458 1.502 1_455 S
C1460 H1446 0.960 . S
C1460 H1447 0.961 . S
C1460 H1448 0.959 . S
C1460 C1458 1.561 . S
C1461 C1458 1.526 . S
C1461 C1462 1.396 . S
C1461 C1466 1.390 . S
C1462 C1456 1.465 . S
C1462 C1461 1.396 . S
C1462 C1463 1.399 . S
C1463 H1449 0.929 . S
C1463 C1462 1.399 . S
C1463 C1464 1.385 . S
C1464 H1450 0.931 . S
C1464 C1463 1.385 . S
C1464 C1465 1.389 . S
C1465 C1464 1.389 . S
C1465 C1466 1.387 . S
C1466 H1451 0.930 . S
C1466 C1461 1.390 . S
C1466 C1465 1.387 . S
H1467 C1479 0.930 . S
H1468 C1481 0.930 . S
H1469 C1482 0.930 . S
H1470 C1486 0.959 . S
H1471 C1486 0.959 . S
H1472 C1486 0.961 . S
H1473 C1487 0.960 . S
H1474 C1487 0.961 . S
H1475 C1487 0.959 . S
H1476 C1490 0.929 . S
H1477 C1491 0.931 . S
H1478 C1493 0.930 . S
C1479 H1467 0.930 . S
C1479 C1480 1.399 . S
C1479 C1484 1.399 . S
C1480 C1479 1.399 . S
C1480 C1481 1.376 . S
C1481 H1468 0.930 . S
C1481 C1480 1.376 . S
C1481 C1482 1.388 . S
C1482 H1469 0.930 . S
C1482 C1481 1.388 . S
C1482 C1483 1.390 . S
C1483 C1482 1.390 . S
C1483 C1484 1.394 . S
C1483 C1489 1.465 . S
C1484 C1479 1.399 . S
C1484 C1483 1.394 . S
C1484 C1485 1.516 . S
C1485 C1484 1.516 . S
C1485 C1486 1.502 . S
C1485 C1487 1.561 . S
C1485 C1488 1.526 . S
C1486 H1470 0.959 . S
C1486 H1471 0.959 . S
C1486 H1472 0.961 . S
C1486 C1485 1.502 . S
C1487 H1473 0.960 . S
C1487 H1474 0.961 . S
C1487 H1475 0.959 . S
C1487 C1485 1.561 . S
C1488 C1485 1.526 . S
C1488 C1489 1.396 . S
C1488 C1493 1.390 . S
C1489 C1483 1.465 . S
C1489 C1488 1.396 . S
C1489 C1490 1.399 . S
C1490 H1476 0.929 . S
C1490 C1489 1.399 . S
C1490 C1491 1.385 . S
C1491 H1477 0.931 . S
C1491 C1490 1.385 . S
C1491 C1492 1.389 . S
C1492 C1491 1.389 . S
C1492 C1493 1.387 . S
C1493 H1478 0.930 . S
C1493 C1488 1.390 . S
C1493 C1492 1.387 . S
H1494 C1506 0.930 . S
H1495 C1508 0.930 . S
H1496 C1509 0.930 . S
H1497 C1513 0.959 1_545 S
H1498 C1513 0.959 . S
H1499 C1513 0.961 . S
H1500 C1514 0.960 . S
H1501 C1514 0.961 . S
H1502 C1514 0.959 . S
H1503 C1517 0.929 . S
H1504 C1518 0.931 . S
H1505 C1520 0.930 1_565 S
C1506 H1494 0.930 . S
C1506 C1507 1.399 . S
C1506 C1511 1.399 . S
C1507 C1506 1.399 . S
C1507 C1508 1.376 . S
C1508 H1495 0.930 . S
C1508 C1507 1.376 . S
C1508 C1509 1.388 . S
C1509 H1496 0.930 . S
C1509 C1508 1.388 . S
C1509 C1510 1.390 . S
C1510 C1509 1.390 . S
C1510 C1511 1.394 . S
C1510 C1516 1.465 . S
C1511 C1506 1.399 . S
C1511 C1510 1.394 . S
C1511 C1512 1.516 . S
C1512 C1511 1.516 . S
C1512 C1513 1.502 1_545 S
C1512 C1514 1.561 1_545 S
C1512 C1515 1.526 . S
C1513 H1497 0.959 1_565 S
C1513 H1498 0.959 . S
C1513 H1499 0.961 . S
C1513 C1512 1.502 1_565 S
C1514 H1500 0.960 . S
C1514 H1501 0.961 . S
C1514 H1502 0.959 . S
C1514 C1512 1.561 1_565 S
C1515 C1512 1.526 . S
C1515 C1516 1.396 . S
C1515 C1520 1.390 . S
C1516 C1510 1.465 . S
C1516 C1515 1.396 . S
C1516 C1517 1.399 . S
C1517 H1503 0.929 . S
C1517 C1516 1.399 . S
C1517 C1518 1.385 . S
C1518 H1504 0.931 . S
C1518 C1517 1.385 . S
C1518 C1519 1.389 . S
C1519 C1518 1.389 . S
C1519 C1520 1.387 . S
C1520 H1505 0.930 1_545 S
C1520 C1515 1.390 . S
C1520 C1519 1.387 . S
H1521 C1533 0.930 . S
H1522 C1535 0.930 . S
H1523 C1536 0.930 . S
H1524 C1540 0.959 . S
H1525 C1540 0.959 . S
H1526 C1540 0.961 . S
H1527 C1541 0.960 . S
H1528 C1541 0.961 . S
H1529 C1541 0.959 . S
H1530 C1544 0.929 . S
H1531 C1545 0.931 . S
H1532 C1547 0.930 . S
C1533 H1521 0.930 . S
C1533 C1534 1.399 . S
C1533 C1538 1.399 . S
C1534 C1533 1.399 . S
C1534 C1535 1.376 . S
C1535 H1522 0.930 . S
C1535 C1534 1.376 . S
C1535 C1536 1.388 . S
C1536 H1523 0.930 . S
C1536 C1535 1.388 . S
C1536 C1537 1.390 . S
C1537 C1536 1.390 . S
C1537 C1538 1.394 . S
C1537 C1543 1.465 . S
C1538 C1533 1.399 . S
C1538 C1537 1.394 . S
C1538 C1539 1.516 . S
C1539 C1538 1.516 . S
C1539 C1540 1.502 . S
C1539 C1541 1.561 . S
C1539 C1542 1.526 . S
C1540 H1524 0.959 . S
C1540 H1525 0.959 . S
C1540 H1526 0.961 . S
C1540 C1539 1.502 . S
C1541 H1527 0.960 . S
C1541 H1528 0.961 . S
C1541 H1529 0.959 . S
C1541 C1539 1.561 . S
C1542 C1539 1.526 . S
C1542 C1543 1.396 . S
C1542 C1547 1.390 . S
C1543 C1537 1.465 . S
C1543 C1542 1.396 . S
C1543 C1544 1.399 . S
C1544 H1530 0.929 . S
C1544 C1543 1.399 . S
C1544 C1545 1.385 . S
C1545 H1531 0.931 . S
C1545 C1544 1.385 . S
C1545 C1546 1.389 . S
C1546 C1545 1.389 . S
C1546 C1547 1.387 . S
C1547 H1532 0.930 . S
C1547 C1542 1.390 . S
C1547 C1546 1.387 . S
H1548 C1560 0.930 . S
H1549 C1562 0.930 . S
H1550 C1563 0.930 . S
H1551 C1567 0.959 . S
H1552 C1567 0.959 . S
H1553 C1567 0.961 . S
H1554 C1568 0.960 . S
H1555 C1568 0.961 . S
H1556 C1568 0.959 . S
H1557 C1571 0.929 . S
H1558 C1572 0.931 . S
H1559 C1574 0.930 . S
C1560 H1548 0.930 . S
C1560 C1561 1.399 . S
C1560 C1565 1.399 . S
C1561 C1560 1.399 . S
C1561 C1562 1.376 . S
C1562 H1549 0.930 . S
C1562 C1561 1.376 . S
C1562 C1563 1.388 . S
C1563 H1550 0.930 . S
C1563 C1562 1.388 . S
C1563 C1564 1.390 . S
C1564 C1563 1.390 . S
C1564 C1565 1.394 . S
C1564 C1570 1.465 . S
C1565 C1560 1.399 . S
C1565 C1564 1.394 . S
C1565 C1566 1.516 . S
C1566 C1565 1.516 . S
C1566 C1567 1.502 . S
C1566 C1568 1.561 . S
C1566 C1569 1.526 . S
C1567 H1551 0.959 . S
C1567 H1552 0.959 . S
C1567 H1553 0.961 . S
C1567 C1566 1.502 . S
C1568 H1554 0.960 . S
C1568 H1555 0.961 . S
C1568 H1556 0.959 . S
C1568 C1566 1.561 . S
C1569 C1566 1.526 . S
C1569 C1570 1.396 . S
C1569 C1574 1.390 . S
C1570 C1564 1.465 . S
C1570 C1569 1.396 . S
C1570 C1571 1.399 . S
C1571 H1557 0.929 . S
C1571 C1570 1.399 . S
C1571 C1572 1.385 . S
C1572 H1558 0.931 . S
C1572 C1571 1.385 . S
C1572 C1573 1.389 . S
C1573 C1572 1.389 . S
C1573 C1574 1.387 . S
C1574 H1559 0.930 . S
C1574 C1569 1.390 . S
C1574 C1573 1.387 . S
H1575 C1587 0.930 . S
H1576 C1589 0.930 . S
H1577 C1590 0.930 . S
H1578 C1594 0.959 . S
H1579 C1594 0.959 . S
H1580 C1594 0.961 . S
H1581 C1595 0.960 . S
H1582 C1595 0.961 . S
H1583 C1595 0.959 . S
H1584 C1598 0.929 . S
H1585 C1599 0.931 . S
H1586 C1601 0.930 . S
C1587 H1575 0.930 . S
C1587 C1588 1.399 . S
C1587 C1592 1.399 . S
C1588 C1587 1.399 . S
C1588 C1589 1.376 . S
C1589 H1576 0.930 . S
C1589 C1588 1.376 . S
C1589 C1590 1.388 . S
C1590 H1577 0.930 . S
C1590 C1589 1.388 . S
C1590 C1591 1.390 . S
C1591 C1590 1.390 . S
C1591 C1592 1.394 . S
C1591 C1597 1.465 . S
C1592 C1587 1.399 . S
C1592 C1591 1.394 . S
C1592 C1593 1.516 . S
C1593 C1592 1.516 . S
C1593 C1594 1.502 . S
C1593 C1595 1.561 . S
C1593 C1596 1.526 . S
C1594 H1578 0.959 . S
C1594 H1579 0.959 . S
C1594 H1580 0.961 . S
C1594 C1593 1.502 . S
C1595 H1581 0.960 . S
C1595 H1582 0.961 . S
C1595 H1583 0.959 . S
C1595 C1593 1.561 . S
C1596 C1593 1.526 . S
C1596 C1597 1.396 . S
C1596 C1601 1.390 . S
C1597 C1591 1.465 . S
C1597 C1596 1.396 . S
C1597 C1598 1.399 . S
C1598 H1584 0.929 . S
C1598 C1597 1.399 . S
C1598 C1599 1.385 . S
C1599 H1585 0.931 . S
C1599 C1598 1.385 . S
C1599 C1600 1.389 . S
C1600 C1599 1.389 . S
C1600 C1601 1.387 . S
C1601 H1586 0.930 . S
C1601 C1596 1.390 . S
C1601 C1600 1.387 . S
H1602 C1614 0.930 . S
H1603 C1616 0.930 . S
H1604 C1617 0.930 . S
H1605 C1621 0.959 . S
H1606 C1621 0.959 . S
H1607 C1621 0.961 . S
H1608 C1622 0.960 . S
H1609 C1622 0.961 . S
H1610 C1622 0.959 . S
H1611 C1625 0.929 . S
H1612 C1626 0.931 . S
H1613 C1628 0.930 . S
C1614 H1602 0.930 . S
C1614 C1615 1.399 . S
C1614 C1619 1.399 . S
C1615 C1614 1.399 . S
C1615 C1616 1.376 . S
C1616 H1603 0.930 . S
C1616 C1615 1.376 . S
C1616 C1617 1.388 . S
C1617 H1604 0.930 . S
C1617 C1616 1.388 . S
C1617 C1618 1.390 . S
C1618 C1617 1.390 . S
C1618 C1619 1.394 . S
C1618 C1624 1.465 . S
C1619 C1614 1.399 . S
C1619 C1618 1.394 . S
C1619 C1620 1.516 . S
C1620 C1619 1.516 . S
C1620 C1621 1.502 . S
C1620 C1622 1.561 . S
C1620 C1623 1.526 . S
C1621 H1605 0.959 . S
C1621 H1606 0.959 . S
C1621 H1607 0.961 . S
C1621 C1620 1.502 . S
C1622 H1608 0.960 . S
C1622 H1609 0.961 . S
C1622 H1610 0.959 . S
C1622 C1620 1.561 . S
C1623 C1620 1.526 . S
C1623 C1624 1.396 . S
C1623 C1628 1.390 . S
C1624 C1618 1.465 . S
C1624 C1623 1.396 . S
C1624 C1625 1.399 . S
C1625 H1611 0.929 . S
C1625 C1624 1.399 . S
C1625 C1626 1.385 . S
C1626 H1612 0.931 . S
C1626 C1625 1.385 . S
C1626 C1627 1.389 . S
C1627 C1626 1.389 . S
C1627 C1628 1.387 . S
C1628 H1613 0.930 . S
C1628 C1623 1.390 . S
C1628 C1627 1.387 . S
H1629 C1641 0.930 . S
H1630 C1643 0.930 . S
H1631 C1644 0.930 . S
H1632 C1648 0.959 . S
H1633 C1648 0.959 . S
H1634 C1648 0.961 . S
H1635 C1649 0.960 . S
H1636 C1649 0.961 . S
H1637 C1649 0.959 . S
H1638 C1652 0.929 . S
H1639 C1653 0.931 . S
H1640 C1655 0.930 . S
C1641 H1629 0.930 . S
C1641 C1642 1.399 . S
C1641 C1646 1.399 . S
C1642 C1641 1.399 . S
C1642 C1643 1.376 . S
C1643 H1630 0.930 . S
C1643 C1642 1.376 . S
C1643 C1644 1.388 . S
C1644 H1631 0.930 . S
C1644 C1643 1.388 . S
C1644 C1645 1.390 . S
C1645 C1644 1.390 . S
C1645 C1646 1.394 . S
C1645 C1651 1.465 . S
C1646 C1641 1.399 . S
C1646 C1645 1.394 . S
C1646 C1647 1.516 . S
C1647 C1646 1.516 . S
C1647 C1648 1.502 . S
C1647 C1649 1.561 . S
C1647 C1650 1.526 . S
C1648 H1632 0.959 . S
C1648 H1633 0.959 . S
C1648 H1634 0.961 . S
C1648 C1647 1.502 . S
C1649 H1635 0.960 . S
C1649 H1636 0.961 . S
C1649 H1637 0.959 . S
C1649 C1647 1.561 . S
C1650 C1647 1.526 . S
C1650 C1651 1.396 . S
C1650 C1655 1.390 . S
C1651 C1645 1.465 . S
C1651 C1650 1.396 . S
C1651 C1652 1.399 . S
C1652 H1638 0.929 . S
C1652 C1651 1.399 . S
C1652 C1653 1.385 . S
C1653 H1639 0.931 . S
C1653 C1652 1.385 . S
C1653 C1654 1.389 . S
C1654 C1653 1.389 . S
C1654 C1655 1.387 . S
C1655 H1640 0.930 . S
C1655 C1650 1.390 . S
C1655 C1654 1.387 . S
H1656 C1668 0.930 . S
H1657 C1670 0.930 . S
H1658 C1671 0.930 . S
H1659 C1675 0.959 . S
H1660 C1675 0.959 . S
H1661 C1675 0.961 . S
H1662 C1676 0.960 . S
H1663 C1676 0.961 . S
H1664 C1676 0.959 . S
H1665 C1679 0.929 . S
H1666 C1680 0.931 . S
H1667 C1682 0.930 . S
C1668 H1656 0.930 . S
C1668 C1669 1.399 . S
C1668 C1673 1.399 . S
C1669 C1668 1.399 . S
C1669 C1670 1.376 . S
C1670 H1657 0.930 . S
C1670 C1669 1.376 . S
C1670 C1671 1.388 . S
C1671 H1658 0.930 . S
C1671 C1670 1.388 . S
C1671 C1672 1.390 . S
C1672 C1671 1.390 . S
C1672 C1673 1.394 . S
C1672 C1678 1.465 . S
C1673 C1668 1.399 . S
C1673 C1672 1.394 . S
C1673 C1674 1.516 . S
C1674 C1673 1.516 . S
C1674 C1675 1.502 . S
C1674 C1676 1.561 . S
C1674 C1677 1.526 . S
C1675 H1659 0.959 . S
C1675 H1660 0.959 . S
C1675 H1661 0.961 . S
C1675 C1674 1.502 . S
C1676 H1662 0.960 . S
C1676 H1663 0.961 . S
C1676 H1664 0.959 . S
C1676 C1674 1.561 . S
C1677 C1674 1.526 . S
C1677 C1678 1.396 . S
C1677 C1682 1.390 . S
C1678 C1672 1.465 . S
C1678 C1677 1.396 . S
C1678 C1679 1.399 . S
C1679 H1665 0.929 . S
C1679 C1678 1.399 . S
C1679 C1680 1.385 . S
C1680 H1666 0.931 . S
C1680 C1679 1.385 . S
C1680 C1681 1.389 . S
C1681 C1680 1.389 . S
C1681 C1682 1.387 . S
C1682 H1667 0.930 . S
C1682 C1677 1.390 . S
C1682 C1681 1.387 . S
H1683 C1695 0.930 . S
H1684 C1697 0.930 . S
H1685 C1698 0.930 . S
H1686 C1702 0.959 . S
H1687 C1702 0.959 . S
H1688 C1702 0.961 . S
H1689 C1703 0.960 . S
H1690 C1703 0.961 . S
H1691 C1703 0.959 . S
H1692 C1706 0.929 . S
H1693 C1707 0.931 . S
H1694 C1709 0.930 . S
C1695 H1683 0.930 . S
C1695 C1696 1.399 . S
C1695 C1700 1.399 . S
C1696 C1695 1.399 . S
C1696 C1697 1.376 . S
C1697 H1684 0.930 . S
C1697 C1696 1.376 . S
C1697 C1698 1.388 . S
C1698 H1685 0.930 . S
C1698 C1697 1.388 . S
C1698 C1699 1.390 . S
C1699 C1698 1.390 . S
C1699 C1700 1.394 . S
C1699 C1705 1.465 . S
C1700 C1695 1.399 . S
C1700 C1699 1.394 . S
C1700 C1701 1.516 . S
C1701 C1700 1.516 . S
C1701 C1702 1.502 . S
C1701 C1703 1.561 . S
C1701 C1704 1.526 . S
C1702 H1686 0.959 . S
C1702 H1687 0.959 . S
C1702 H1688 0.961 . S
C1702 C1701 1.502 . S
C1703 H1689 0.960 . S
C1703 H1690 0.961 . S
C1703 H1691 0.959 . S
C1703 C1701 1.561 . S
C1704 C1701 1.526 . S
C1704 C1705 1.396 . S
C1704 C1709 1.390 . S
C1705 C1699 1.465 . S
C1705 C1704 1.396 . S
C1705 C1706 1.399 . S
C1706 H1692 0.929 . S
C1706 C1705 1.399 . S
C1706 C1707 1.385 . S
C1707 H1693 0.931 . S
C1707 C1706 1.385 . S
C1707 C1708 1.389 . S
C1708 C1707 1.389 . S
C1708 C1709 1.387 . S
C1709 H1694 0.930 . S
C1709 C1704 1.390 . S
C1709 C1708 1.387 . S
H1710 C1722 0.930 . S
H1711 C1724 0.930 . S
H1712 C1725 0.930 . S
H1713 C1729 0.959 . S
H1714 C1729 0.959 . S
H1715 C1729 0.961 . S
H1716 C1730 0.960 . S
H1717 C1730 0.961 . S
H1718 C1730 0.959 . S
H1719 C1733 0.929 . S
H1720 C1734 0.931 . S
H1721 C1736 0.930 . S
C1722 H1710 0.930 . S
C1722 C1723 1.399 . S
C1722 C1727 1.399 . S
C1723 C1722 1.399 . S
C1723 C1724 1.376 . S
C1724 H1711 0.930 . S
C1724 C1723 1.376 . S
C1724 C1725 1.388 . S
C1725 H1712 0.930 . S
C1725 C1724 1.388 . S
C1725 C1726 1.390 . S
C1726 C1725 1.390 . S
C1726 C1727 1.394 . S
C1726 C1732 1.465 . S
C1727 C1722 1.399 . S
C1727 C1726 1.394 . S
C1727 C1728 1.516 . S
C1728 C1727 1.516 . S
C1728 C1729 1.502 . S
C1728 C1730 1.561 . S
C1728 C1731 1.526 . S
C1729 H1713 0.959 . S
C1729 H1714 0.959 . S
C1729 H1715 0.961 . S
C1729 C1728 1.502 . S
C1730 H1716 0.960 . S
C1730 H1717 0.961 . S
C1730 H1718 0.959 . S
C1730 C1728 1.561 . S
C1731 C1728 1.526 . S
C1731 C1732 1.396 . S
C1731 C1736 1.390 . S
C1732 C1726 1.465 . S
C1732 C1731 1.396 . S
C1732 C1733 1.399 . S
C1733 H1719 0.929 . S
C1733 C1732 1.399 . S
C1733 C1734 1.385 . S
C1734 H1720 0.931 . S
C1734 C1733 1.385 . S
C1734 C1735 1.389 . S
C1735 C1734 1.389 . S
C1735 C1736 1.387 . S
C1736 H1721 0.930 . S
C1736 C1731 1.390 . S
C1736 C1735 1.387 . S
H1737 C1749 0.930 . S
H1738 C1751 0.930 . S
H1739 C1752 0.930 . S
H1740 C1756 0.959 . S
H1741 C1756 0.959 . S
H1742 C1756 0.961 . S
H1743 C1757 0.960 . S
H1744 C1757 0.961 . S
H1745 C1757 0.959 . S
H1746 C1760 0.929 . S
H1747 C1761 0.931 . S
H1748 C1763 0.930 . S
C1749 H1737 0.930 . S
C1749 C1750 1.399 . S
C1749 C1754 1.399 . S
C1750 C1749 1.399 . S
C1750 C1751 1.376 . S
C1751 H1738 0.930 . S
C1751 C1750 1.376 . S
C1751 C1752 1.388 . S
C1752 H1739 0.930 . S
C1752 C1751 1.388 . S
C1752 C1753 1.390 . S
C1753 C1752 1.390 . S
C1753 C1754 1.394 . S
C1753 C1759 1.465 . S
C1754 C1749 1.399 . S
C1754 C1753 1.394 . S
C1754 C1755 1.516 . S
C1755 C1754 1.516 . S
C1755 C1756 1.502 . S
C1755 C1757 1.561 . S
C1755 C1758 1.526 . S
C1756 H1740 0.959 . S
C1756 H1741 0.959 . S
C1756 H1742 0.961 . S
C1756 C1755 1.502 . S
C1757 H1743 0.960 . S
C1757 H1744 0.961 . S
C1757 H1745 0.959 . S
C1757 C1755 1.561 . S
C1758 C1755 1.526 . S
C1758 C1759 1.396 . S
C1758 C1763 1.390 . S
C1759 C1753 1.465 . S
C1759 C1758 1.396 . S
C1759 C1760 1.399 . S
C1760 H1746 0.929 . S
C1760 C1759 1.399 . S
C1760 C1761 1.385 . S
C1761 H1747 0.931 . S
C1761 C1760 1.385 . S
C1761 C1762 1.389 . S
C1762 C1761 1.389 . S
C1762 C1763 1.387 . S
C1763 H1748 0.930 . S
C1763 C1758 1.390 . S
C1763 C1762 1.387 . S
H1764 C1776 0.930 . S
H1765 C1778 0.930 . S
H1766 C1779 0.930 . S
H1767 C1783 0.959 . S
H1768 C1783 0.959 . S
H1769 C1783 0.961 . S
H1770 C1784 0.960 . S
H1771 C1784 0.961 . S
H1772 C1784 0.959 . S
H1773 C1787 0.929 . S
H1774 C1788 0.931 . S
H1775 C1790 0.930 . S
C1776 H1764 0.930 . S
C1776 C1777 1.399 . S
C1776 C1781 1.399 . S
C1777 C1776 1.399 . S
C1777 C1778 1.376 . S
C1778 H1765 0.930 . S
C1778 C1777 1.376 . S
C1778 C1779 1.388 . S
C1779 H1766 0.930 . S
C1779 C1778 1.388 . S
C1779 C1780 1.390 . S
C1780 C1779 1.390 . S
C1780 C1781 1.394 . S
C1780 C1786 1.465 . S
C1781 C1776 1.399 . S
C1781 C1780 1.394 . S
C1781 C1782 1.516 . S
C1782 C1781 1.516 . S
C1782 C1783 1.502 . S
C1782 C1784 1.561 . S
C1782 C1785 1.526 . S
C1783 H1767 0.959 . S
C1783 H1768 0.959 . S
C1783 H1769 0.961 . S
C1783 C1782 1.502 . S
C1784 H1770 0.960 . S
C1784 H1771 0.961 . S
C1784 H1772 0.959 . S
C1784 C1782 1.561 . S
C1785 C1782 1.526 . S
C1785 C1786 1.396 . S
C1785 C1790 1.390 . S
C1786 C1780 1.465 . S
C1786 C1785 1.396 . S
C1786 C1787 1.399 . S
C1787 H1773 0.929 . S
C1787 C1786 1.399 . S
C1787 C1788 1.385 . S
C1788 H1774 0.931 . S
C1788 C1787 1.385 . S
C1788 C1789 1.389 . S
C1789 C1788 1.389 . S
C1789 C1790 1.387 . S
C1790 H1775 0.930 . S
C1790 C1785 1.390 . S
C1790 C1789 1.387 . S
H1791 C1803 0.930 . S
H1792 C1805 0.930 . S
H1793 C1806 0.930 . S
H1794 C1810 0.959 . S
H1795 C1810 0.959 . S
H1796 C1810 0.961 . S
H1797 C1811 0.960 . S
H1798 C1811 0.961 . S
H1799 C1811 0.959 . S
H1800 C1814 0.929 . S
H1801 C1815 0.931 . S
H1802 C1817 0.930 . S
C1803 H1791 0.930 . S
C1803 C1804 1.399 . S
C1803 C1808 1.399 . S
C1804 C1803 1.399 . S
C1804 C1805 1.376 . S
C1805 H1792 0.930 . S
C1805 C1804 1.376 . S
C1805 C1806 1.388 . S
C1806 H1793 0.930 . S
C1806 C1805 1.388 . S
C1806 C1807 1.390 . S
C1807 C1806 1.390 . S
C1807 C1808 1.394 . S
C1807 C1813 1.465 . S
C1808 C1803 1.399 . S
C1808 C1807 1.394 . S
C1808 C1809 1.516 . S
C1809 C1808 1.516 . S
C1809 C1810 1.502 . S
C1809 C1811 1.561 . S
C1809 C1812 1.526 . S
C1810 H1794 0.959 . S
C1810 H1795 0.959 . S
C1810 H1796 0.961 . S
C1810 C1809 1.502 . S
C1811 H1797 0.960 . S
C1811 H1798 0.961 . S
C1811 H1799 0.959 . S
C1811 C1809 1.561 . S
C1812 C1809 1.526 . S
C1812 C1813 1.396 . S
C1812 C1817 1.390 . S
C1813 C1807 1.465 . S
C1813 C1812 1.396 . S
C1813 C1814 1.399 . S
C1814 H1800 0.929 . S
C1814 C1813 1.399 . S
C1814 C1815 1.385 . S
C1815 H1801 0.931 . S
C1815 C1814 1.385 . S
C1815 C1816 1.389 . S
C1816 C1815 1.389 . S
C1816 C1817 1.387 . S
C1817 H1802 0.930 . S
C1817 C1812 1.390 . S
C1817 C1816 1.387 . S
H1818 C1830 0.930 . S
H1819 C1832 0.930 . S
H1820 C1833 0.930 . S
H1821 C1837 0.959 . S
H1822 C1837 0.959 . S
H1823 C1837 0.961 . S
H1824 C1838 0.960 . S
H1825 C1838 0.961 . S
H1826 C1838 0.959 . S
H1827 C1841 0.929 . S
H1828 C1842 0.931 . S
H1829 C1844 0.930 . S
C1830 H1818 0.930 . S
C1830 C1831 1.399 . S
C1830 C1835 1.399 . S
C1831 C1830 1.399 . S
C1831 C1832 1.376 . S
C1832 H1819 0.930 . S
C1832 C1831 1.376 . S
C1832 C1833 1.388 . S
C1833 H1820 0.930 . S
C1833 C1832 1.388 . S
C1833 C1834 1.390 . S
C1834 C1833 1.390 . S
C1834 C1835 1.394 . S
C1834 C1840 1.465 . S
C1835 C1830 1.399 . S
C1835 C1834 1.394 . S
C1835 C1836 1.516 . S
C1836 C1835 1.516 . S
C1836 C1837 1.502 . S
C1836 C1838 1.561 . S
C1836 C1839 1.526 . S
C1837 H1821 0.959 . S
C1837 H1822 0.959 . S
C1837 H1823 0.961 . S
C1837 C1836 1.502 . S
C1838 H1824 0.960 . S
C1838 H1825 0.961 . S
C1838 H1826 0.959 . S
C1838 C1836 1.561 . S
C1839 C1836 1.526 . S
C1839 C1840 1.396 . S
C1839 C1844 1.390 . S
C1840 C1834 1.465 . S
C1840 C1839 1.396 . S
C1840 C1841 1.399 . S
C1841 H1827 0.929 . S
C1841 C1840 1.399 . S
C1841 C1842 1.385 . S
C1842 H1828 0.931 . S
C1842 C1841 1.385 . S
C1842 C1843 1.389 . S
C1843 C1842 1.389 . S
C1843 C1844 1.387 . S
C1844 H1829 0.930 . S
C1844 C1839 1.390 . S
C1844 C1843 1.387 . S
C400 C151 1.303 . S
C412 C212 1.337 . S
C427 C159 1.638 . S
C439 C233 1.689 . S
C454 C137 1.328 . S
C466 C253 1.218 . S
C481 C126 1.232 . S
C493 C232 1.212 . S
C520 C254 1.741 . S
C508 C104 1.702 . S
C535 C118 1.274 . S
C547 C211 1.092 . S
C574 C213 1.354 . S
C562 C129 1.404 . S
C601 C234 1.479 . S
C589 C107 1.533 . S
C616 C115 1.045 . S
C628 C256 1.296 . S
C643 C148 1.047 . S
C655 C235 1.287 . S
C670 C162 1.516 1_556 S
C682 C255 1.466 1_556 S
C709 C214 1.178 1_554 S
C697 C140 1.462 . S
C736 C275 1.284 . S
C724 C19 1.251 . S
C751 C27 1.572 . S
C763 C296 1.637 . S
C778 C5 1.306 . S
C790 C316 1.177 . S
C805 C192 1.226 . S
C817 C295 1.202 . S
C832 C170 1.689 . S
C844 C317 1.727 . S
C859 C184 1.266 . S
C871 C274 1.108 . S
C886 C195 1.399 . S
C898 C276 1.322 . S
C913 C173 1.497 . S
C925 C297 1.427 . S
C952 C319 1.296 . S
C940 C181 1.046 . S
C967 C16 1.215 . S
C979 C298 1.129 . S
C1006 C318 1.455 . S
C994 C30 1.511 . S
C1021 C8 1.465 . S
C1033 C277 1.184 . S
C1060 C338 1.278 . S
C1048 C85 1.260 . S
C1075 C93 1.654 . S
C1087 C359 1.702 . S
C1114 C379 1.194 . S
C1102 C71 1.318 . S
C1141 C358 1.173 . S
C1129 C60 1.215 . S
C1168 C380 1.725 . S
C1156 C38 1.686 . S
C1183 C52 1.274 . S
C1195 C337 1.093 . S
C1210 C63 1.399 . S
C1222 C339 1.341 . S
C1237 C41 1.531 . S
C1249 C360 1.475 . S
C1276 C382 1.285 . S
C1264 C49 1.041 . S
C1291 C82 1.027 . S
C1303 C361 1.281 . S
C1318 C96 1.501 . S
C1330 C381 1.433 . S
C1345 C74 1.462 . S
C1357 C340 1.178 . S
C1372 C172 1.557 . S
C1384 C216 1.591 . S
C1411 C237 1.333 . S
C1399 C183 1.314 . S
C1426 C194 1.539 . S
C1438 C257 1.536 . S
C1453 C73 1.598 . S
C1465 C236 1.595 . S
C1480 C84 1.243 . S
C1492 C258 1.298 . S
C1519 C215 1.671 . S
C1507 C95 1.660 . S
C1534 C40 1.549 . S
C1546 C279 1.600 . S
C1561 C51 1.307 . S
C1573 C300 1.340 . S
C1588 C62 1.529 . S
C1600 C320 1.528 . S
C1615 C139 1.591 . S
C1627 C299 1.589 . S
C1654 C321 1.368 . S
C1642 C150 1.347 . S
C1669 C161 1.653 . S
C1681 C278 1.662 . S
C1696 C106 1.569 . S
C1708 C342 1.578 . S
C1723 C117 1.301 . S
C1735 C363 1.340 . S
C1762 C383 1.532 . S
C1750 C128 1.534 . S
C1777 C7 1.598 . S
C1789 C362 1.595 . S
C1804 C18 1.251 . S
C1816 C384 1.298 . S
C1831 C29 1.662 . S
C1843 C341 1.673 . S
