# Generated by pormake.
# Topology nia, (6,6)-cn, num edge types: 1
# Building blocks:
#     Node 0, Type 0, BuildingBlock: FUNLAD_clean_sbu_0, # of connection points: 6
#     Node 1, Type 0, BuildingBlock: FUNLAD_clean_sbu_0, # of connection points: 6
#     Node 2, Type 1, BuildingBlock: MIDCAF_clean_sbu_0, # of connection points: 6
#     Node 3, Type 1, BuildingBlock: MIDCAF_clean_sbu_0, # of connection points: 6
#     Edge 4, Type (0, 1), BuildingBlock: CIFDUS_clean_linker_0, # of connection points: 2
#     Edge 5, Type (0, 1), BuildingBlock: CIFDUS_clean_linker_0, # of connection points: 2
#     Edge 6, Type (0, 1), BuildingBlock: CIFDUS_clean_linker_0, # of connection points: 2
#     Edge 7, Type (0, 1), BuildingBlock: CIFDUS_clean_linker_0, # of connection points: 2
#     Edge 8, Type (0, 1), BuildingBlock: CIFDUS_clean_linker_0, # of connection points: 2
#     Edge 9, Type (0, 1), BuildingBlock: CIFDUS_clean_linker_0, # of connection points: 2
#     Edge 10, Type (0, 1), BuildingBlock: CIFDUS_clean_linker_0, # of connection points: 2
#     Edge 11, Type (0, 1), BuildingBlock: CIFDUS_clean_linker_0, # of connection points: 2
#     Edge 12, Type (0, 1), BuildingBlock: CIFDUS_clean_linker_0, # of connection points: 2
#     Edge 13, Type (0, 1), BuildingBlock: CIFDUS_clean_linker_0, # of connection points: 2
#     Edge 14, Type (0, 1), BuildingBlock: CIFDUS_clean_linker_0, # of connection points: 2
#     Edge 15, Type (0, 1), BuildingBlock: CIFDUS_clean_linker_0, # of connection points: 2
# Relax obj value: 0.155
# Max RMSD: 0.246
# Mean RMSD: 0.149
data_MOF--net-nia--node1-FUNLAD_clean_sbu_0--node2-MIDCAF_clean_sbu_0--edge1-CIFDUS_clean_linker_0
_symmetry_space_group_name_H-M    P1
_symmetry_Int_Tables_number       1
_symmetry_cell_setting            triclinic
loop_
_symmetry_equiv_pos_as_xyz
'x, y, z'
_cell_length_a     21.798725
_cell_length_b     21.94595
_cell_length_c     29.484358
_cell_angle_alpha  98.22052
_cell_angle_beta   96.787861
_cell_angle_gamma 118.09973
loop_
_atom_site_label
_atom_site_type_symbol
_atom_site_fract_x
_atom_site_fract_y
_atom_site_fract_z
_atom_type_partial_charge
C0 C 0.09227 0.97831 0.11555 0.0
N1 N 0.11257 0.047 0.99006 0.0
C2 C 0.18319 0.07717 1.00879 0.0
C3 C 0.23117 0.08584 0.97981 0.0
C4 C 0.20653 0.06428 0.93106 0.0
C5 C 0.13392 0.03541 0.91223 0.0
C6 C 0.08723 0.02654 0.94273 0.0
Zn7 Zn 0.04647 0.03021 1.03605 0.0
C8 C 0.92684 0.88288 1.01338 0.0
N9 N 0.91503 -0.00529 0.13662 0.0
C10 C 0.94331 0.00854 0.18315 0.0
C11 C 0.84373 0.965 0.1205 0.0
C12 C 0.79778 0.94687 0.15149 0.0
C13 C 0.82543 0.95817 0.19923 0.0
C14 C 0.89899 0.98965 0.21526 0.0
Zn15 Zn 0.97958 0.01251 0.08947 0.0
O16 O 0.10628 -0.00295 0.07754 0.0
C17 C 0.09904 0.15968 0.11237 0.0
O18 O 0.04019 0.97934 0.12997 0.0
H19 H 0.82224 0.95366 0.0834 0.0
H20 H 0.20238 0.09377 1.0464 0.0
H21 H 0.0002 0.03267 0.19532 0.0
O22 O 0.11215 0.13619 0.07493 0.0
O23 O 0.04564 0.1185 0.1274 0.0
H24 H 0.03079 0.00254 0.92867 0.0
O25 O 0.91956 0.04545 1.04779 0.0
O26 O -0.01398 0.06331 0.99526 0.0
O27 O 0.91402 0.90674 1.05081 0.0
O28 O -0.01993 0.9239 0.9981 0.0
C29 C 0.93376 0.06423 1.00971 0.0
H30 H 0.28719 0.10922 0.99532 0.0
H31 H 0.11356 0.01861 0.87465 0.0
H32 H 0.74094 0.92191 0.1381 0.0
H33 H 0.92167 -0.00115 0.25197 0.0
C34 C 0.03602 0.93209 0.50112 0.0
N35 N -0.01965 0.91825 0.63255 0.0
C36 C 0.93192 0.84854 0.61465 0.0
C37 C 0.91568 0.8003 0.64343 0.0
C38 C 0.95026 0.82401 0.69077 0.0
C39 C -0.00019 0.89591 0.70862 0.0
C40 C 0.01375 0.94269 0.6787 0.0
Zn41 Zn 0.00342 0.98665 0.58888 0.0
C42 C 0.15564 0.09041 0.60648 0.0
N43 N 0.04943 0.12644 0.49562 0.0
C44 C 0.02468 0.10412 0.44826 0.0
C45 C 0.0985 0.19522 0.51587 0.0
C46 C 0.12728 0.24382 0.48824 0.0
C47 C 0.10458 0.22178 0.43939 0.0
C48 C 0.05138 0.15162 0.4192 0.0
Zn49 Zn 0.02329 0.05665 0.5384 0.0
O50 O 0.02045 0.91837 0.54006 0.0
C51 C 0.87116 0.95264 0.52027 0.0
O52 O 0.0408 0.98803 0.49055 0.0
H53 H 0.11727 0.212 0.55351 0.0
H54 H 0.90639 0.83014 0.57787 0.0
H55 H -0.01405 0.04906 0.43294 0.0
O56 O 0.8948 0.93517 0.55472 0.0
O57 O 0.91423 0.00409 0.50475 0.0
H58 H 0.05178 -0.00159 0.69225 0.0
O59 O 0.00607 0.12486 0.58741 0.0
O60 O -0.01395 0.05504 0.63681 0.0
O61 O 0.13159 0.10779 0.57229 0.0
O62 O 0.11279 0.03926 0.62218 0.0
C63 C -0.00925 0.11102 0.62639 0.0
H64 H 0.87769 0.74472 0.62869 0.0
H65 H 0.02759 0.91539 0.74504 0.0
H66 H 0.16772 0.29801 0.50481 0.0
H67 H 0.03266 0.13334 0.38151 0.0
Zn68 Zn 0.32748 0.70258 0.22441 0.0
Zn69 Zn 0.3244 0.71334 0.40112 0.0
Zn70 Zn 0.32081 0.71361 0.31243 0.0
C71 C 0.46396 0.79069 0.39736 0.0
C72 C 0.25599 0.57353 0.35702 0.0
O73 O 0.26287 0.76545 0.28542 0.0
O74 O 0.27101 0.74883 0.21102 0.0
C75 C 0.46489 0.78922 0.27178 0.0
O76 O 0.43345 0.77497 0.35376 0.0
O77 O 0.42708 0.77021 0.42763 0.0
O78 O 0.27949 0.61137 0.39812 0.0
O79 O 0.26593 0.60218 0.32133 0.0
O80 O 0.42981 0.76175 0.2302 0.0
O81 O 0.43371 0.77663 0.30662 0.0
O82 O 0.26986 0.59998 0.27408 0.0
O83 O 0.286 0.60014 0.20134 0.0
C84 C 0.26265 0.56647 0.2323 0.0
O85 O 0.25806 0.76412 0.33273 0.0
O86 O 0.26285 0.75576 0.40688 0.0
C87 C 0.25057 0.77363 0.24355 0.0
C88 C 0.24061 0.77333 0.37232 0.0
Zn89 Zn 0.69617 0.33819 0.90098 0.0
Zn90 Zn 0.70422 0.32935 0.72339 0.0
Zn91 Zn 0.7038 0.32952 0.81256 0.0
C92 C 0.76724 0.46909 0.76766 0.0
C93 C 0.56346 0.25068 0.72634 0.0
O94 O 0.76209 0.27781 0.84049 0.0
O95 O 0.75043 0.29 0.9143 0.0
C96 C 0.76305 0.47584 0.89278 0.0
O97 O 0.75453 0.44035 0.80315 0.0
O98 O 0.7499 0.43151 0.72685 0.0
O99 O 0.60122 0.27168 0.69654 0.0
O100 O 0.59277 0.2671 0.77021 0.0
O101 O 0.74056 0.44161 0.9237 0.0
O102 O 0.75448 0.44277 0.85062 0.0
O103 O 0.59024 0.26987 0.81734 0.0
O104 O 0.59288 0.28091 0.89351 0.0
C105 C 0.55815 0.25693 0.85173 0.0
O106 O 0.76774 0.27935 0.79338 0.0
O107 O 0.76559 0.28706 0.71916 0.0
C108 C 0.7726 0.26729 0.88193 0.0
C109 C 0.78667 0.2699 0.75436 0.0
H110 H 0.06225 0.9091 0.18718 0.0
H111 H 0.21786 0.99049 0.10152 0.0
H112 H 0.28358 0.93983 0.13777 0.0
H113 H 0.29205 0.86499 0.18839 0.0
H114 H 0.13599 0.77713 0.27212 0.0
H115 H 0.07586 0.83918 0.24295 0.0
C116 C 0.11097 0.91636 0.17689 0.0
C117 C 0.13469 0.95289 0.14128 0.0
C118 C 0.14827 0.88604 0.19751 0.0
C119 C 0.19797 0.962 0.12839 0.0
C120 C 0.23569 0.93313 0.14913 0.0
C121 C 0.24511 0.85987 0.20057 0.0
C122 C 0.21819 0.81673 0.2322 0.0
C123 C 0.21047 0.89385 0.18283 0.0
C124 C 0.15798 0.81091 0.24819 0.0
C125 C 0.12337 0.84575 0.23112 0.0
H126 H 0.22822 0.06241 0.6752 0.0
H127 H 0.25719 0.2049 0.58227 0.0
H128 H 0.38518 0.26638 0.61162 0.0
H129 H 0.4892 0.27907 0.66221 0.0
H130 H 0.46399 0.13688 0.75414 0.0
H131 H 0.33412 0.07637 0.72724 0.0
C132 C 0.26257 0.1071 0.66157 0.0
C133 C 0.23302 0.12876 0.62644 0.0
C134 C 0.33668 0.14236 0.67849 0.0
C135 C 0.27831 0.18681 0.60916 0.0
C136 C 0.35165 0.22211 0.62588 0.0
C137 C 0.45517 0.23465 0.67624 0.0
C138 C 0.48551 0.21291 0.71055 0.0
C139 C 0.38135 0.20004 0.66019 0.0
C140 C 0.44127 0.15549 0.72856 0.0
C141 C 0.36726 0.12061 0.71284 0.0
H142 H 0.06786 0.23442 0.17853 0.0
H143 H 0.2285 0.25506 0.09939 0.0
H144 H 0.29596 0.38249 0.13275 0.0
H145 H 0.30512 0.48903 0.17982 0.0
H146 H 0.14069 0.47086 0.25368 0.0
H147 H 0.07943 0.3412 0.22813 0.0
C148 C 0.11809 0.26668 0.16907 0.0
C149 C 0.14294 0.23538 0.13633 0.0
C150 C 0.15593 0.34022 0.18765 0.0
C151 C 0.20795 0.27792 0.12425 0.0
C152 C 0.24656 0.35079 0.14328 0.0
C153 C 0.25619 0.4564 0.19062 0.0
C154 C 0.22817 0.48865 0.21976 0.0
C155 C 0.22033 0.38261 0.17421 0.0
C156 C 0.16456 0.44645 0.23317 0.0
C157 C 0.12907 0.37263 0.21779 0.0
H158 H 0.91596 0.07777 0.6956 0.0
H159 H 0.02543 0.24706 0.62622 0.0
H160 H -0.01878 0.31702 0.66796 0.0
H161 H 0.89823 0.32271 0.71447 0.0
H162 H 0.7799 0.15121 0.77925 0.0
H163 H 0.84233 0.09005 0.75029 0.0
C164 C 0.93121 0.13055 0.69037 0.0
C165 C 0.97305 0.15686 0.65734 0.0
C166 C 0.90387 0.16982 0.71359 0.0
C167 C -0.00752 0.22527 0.65091 0.0
C168 C 0.9673 0.26533 0.67479 0.0
C169 C 0.88741 0.27263 0.72313 0.0
C170 C 0.83479 0.24114 0.74872 0.0
C171 C 0.92098 0.23702 0.70476 0.0
C172 C 0.82088 0.17653 0.75995 0.0
C173 C 0.85592 0.14135 0.7429 0.0
H174 H 0.74144 0.00888 0.22614 0.0
H175 H 0.7981 0.84844 0.24102 0.0
H176 H 0.69493 0.78639 0.27568 0.0
H177 H 0.57639 0.76638 0.28609 0.0
H178 H 0.51916 0.92574 0.26848 0.0
H179 H 0.63543 0.00106 0.25189 0.0
C180 C 0.73213 0.96156 0.23845 0.0
C181 C 0.77607 0.93246 0.23087 0.0
C182 C 0.67242 0.92597 0.25754 0.0
C183 C 0.76439 0.87135 0.24673 0.0
C184 C 0.7053 0.83577 0.26619 0.0
C185 C 0.59094 0.81887 0.2805 0.0
C186 C 0.54027 0.84113 0.27848 0.0
C187 C 0.6571 0.86081 0.26963 0.0
C188 C 0.55827 0.90841 0.2705 0.0
C189 C 0.62429 0.95101 0.26058 0.0
H190 H 0.83875 0.76458 0.73243 0.0
H191 H 0.03167 0.76595 0.71189 0.0
H192 H -0.00322 0.65943 0.74311 0.0
H193 H 0.90131 0.55509 0.76206 0.0
H194 H 0.70769 0.55221 0.78213 0.0
H195 H 0.75303 0.67112 0.76646 0.0
C196 C 0.87381 0.74247 0.73629 0.0
C197 C 0.93721 0.77194 0.71989 0.0
C198 C 0.85292 0.68096 0.75377 0.0
C199 C -0.01733 0.74355 0.72456 0.0
C200 C 0.96254 0.68264 0.7421 0.0
C201 C 0.87042 0.5819 0.76458 0.0
C202 C 0.80165 0.54593 0.77301 0.0
C203 C 0.89641 0.64927 0.75481 0.0
C204 C 0.76113 0.57989 0.77595 0.0
C205 C 0.78677 0.64734 0.76658 0.0
H206 H 0.10898 0.964 0.43085 0.0
H207 H 0.00438 0.79737 0.50328 0.0
H208 H 0.04999 0.72809 0.4625 0.0
H209 H 0.13239 0.72229 0.41547 0.0
H210 H 0.24471 0.89057 0.34668 0.0
H211 H 0.18188 0.95125 0.37571 0.0
C212 C 0.09509 0.91193 0.43697 0.0
C213 C 0.05423 0.88626 0.47058 0.0
C214 C 0.12309 0.87297 0.41419 0.0
C215 C 0.03653 0.81871 0.47811 0.0
C216 C 0.06255 0.77904 0.4548 0.0
C217 C 0.14194 0.7716 0.40606 0.0
C218 C 0.19294 0.80233 0.37926 0.0
C219 C 0.10783 0.8068 0.42418 0.0
C220 C 0.20504 0.86587 0.36698 0.0
C221 C 0.16973 0.90076 0.38401 0.0
H222 H 0.2464 0.15128 0.87061 0.0
H223 H 0.28407 -0.00154 0.92709 0.0
H224 H 0.393 0.03638 0.89705 0.0
H225 H 0.48871 0.12957 0.87055 0.0
H226 H 0.45684 0.28816 0.81845 0.0
H227 H 0.33383 0.23105 0.82973 0.0
C228 C 0.27733 0.1248 0.87464 0.0
C229 C 0.25827 0.07281 0.90119 0.0
C230 C 0.3413 0.14876 0.8587 0.0
C231 C 0.29848 0.03885 0.90683 0.0
C232 C 0.36081 0.06079 0.88995 0.0
C233 C 0.45371 0.14989 0.86018 0.0
C234 C 0.48086 0.21262 0.84404 0.0
C235 C 0.38455 0.11818 0.86818 0.0
C236 C 0.4362 0.23951 0.83084 0.0
C237 C 0.36631 0.20723 0.83768 0.0
H238 H 0.04406 0.27806 0.38634 0.0
H239 H 0.24137 0.28144 0.43042 0.0
H240 H 0.30535 0.38565 0.3985 0.0
H241 H 0.30788 0.48749 0.37168 0.0
H242 H 0.1129 0.49132 0.33532 0.0
H243 H 0.04462 0.37226 0.34932 0.0
C244 C 0.10062 0.30059 0.38747 0.0
C245 C 0.13838 0.27294 0.41059 0.0
C246 C 0.13733 0.3621 0.3707 0.0
C247 C 0.21172 0.30248 0.41269 0.0
C248 C 0.24821 0.36208 0.39468 0.0
C249 C 0.2502 0.46076 0.36518 0.0
C250 C 0.2149 0.49664 0.35161 0.0
C251 C 0.21208 0.39411 0.37552 0.0
C252 C 0.14055 0.46334 0.3447 0.0
C253 C 0.10175 0.39579 0.35322 0.0
H254 H 0.96474 0.13587 0.93916 0.0
H255 H 0.8064 0.04874 1.02217 0.0
H256 H 0.73959 0.09812 0.98556 0.0
H257 H 0.73062 0.17336 0.93544 0.0
H258 H 0.88953 0.26739 0.85465 0.0
H259 H 0.95096 0.20654 0.88392 0.0
C260 C 0.9152 0.12708 0.94878 0.0
C261 C 0.891 0.08925 0.98377 0.0
C262 C 0.87724 0.15672 0.92798 0.0
C263 C 0.8267 0.07825 0.99582 0.0
C264 C 0.78832 0.10637 0.97485 0.0
C265 C 0.77844 0.18006 0.92387 0.0
C266 C 0.80569 0.22456 0.89299 0.0
C267 C 0.8139 0.14686 0.94178 0.0
C268 C 0.86717 0.23247 0.87791 0.0
C269 C 0.90254 0.19833 0.89507 0.0
H270 H 0.79919 0.98087 0.45118 0.0
H271 H 0.76931 0.83608 0.5425 0.0
H272 H 0.64169 0.77292 0.51124 0.0
H273 H 0.5381 0.75998 0.45993 0.0
H274 H 0.56396 0.90567 0.37068 0.0
H275 H 0.69373 0.96646 0.39823 0.0
C276 C 0.76475 0.93531 0.46406 0.0
C277 C 0.79395 0.91356 0.49934 0.0
C278 C 0.69081 0.89911 0.44605 0.0
C279 C 0.74849 0.85435 0.51559 0.0
C280 C 0.67536 0.81804 0.49773 0.0
C281 C 0.57226 0.80505 0.44648 0.0
C282 C 0.54208 0.82755 0.41257 0.0
C283 C 0.64598 0.84029 0.46334 0.0
C284 C 0.58653 0.88595 0.39546 0.0
C285 C 0.66049 0.92122 0.41178 0.0
H286 H 0.95232 0.80903 0.94258 0.0
H287 H 0.80302 0.78571 1.03209 0.0
H288 H 0.73704 0.65808 1.00018 0.0
H289 H 0.72628 0.55237 0.95124 0.0
H290 H 0.87766 0.57311 0.8645 0.0
H291 H 0.93757 0.70265 0.89006 0.0
C292 C 0.90485 0.77612 0.95467 0.0
C293 C 0.88301 0.80686 0.98997 0.0
C294 C 0.86758 0.70238 0.93665 0.0
C295 C 0.82136 0.76344 1.00524 0.0
C296 C 0.78358 0.69039 0.98707 0.0
C297 C 0.77221 0.58541 0.93778 0.0
C298 C 0.79712 0.55373 0.90557 0.0
C299 C 0.80707 0.65923 0.95356 0.0
C300 C 0.8565 0.59672 0.88829 0.0
C301 C 0.89118 0.6706 0.90338 0.0
loop_
_geom_bond_atom_site_label_1
_geom_bond_atom_site_label_2
_geom_bond_distance
_geom_bond_site_symmetry_2
_ccdc_geom_bond_type
C0 O16 1.251 1_565 S
C0 O18 1.254 . S
N1 C2 1.333 . S
N1 C6 1.307 . S
N1 Zn7 2.020 . S
C2 N1 1.333 . S
C2 C3 1.379 . S
C2 H20 0.952 1_556 S
C3 C2 1.379 . S
C3 C4 1.390 . S
C3 H30 0.949 . S
C4 C3 1.390 . S
C4 C5 1.357 . S
C5 C4 1.357 . S
C5 C6 1.370 . S
C5 H31 0.950 . S
C6 N1 1.307 . S
C6 C5 1.370 . S
C6 H24 0.948 . S
Zn7 N1 2.020 . S
Zn7 O16 2.039 1_556 S
Zn7 O22 2.034 1_556 S
Zn7 O26 2.025 . S
Zn7 O28 2.024 1_545 S
C8 O27 1.246 . S
C8 O28 1.249 1_655 S
N9 C10 1.307 . S
N9 C11 1.333 . S
N9 Zn15 2.020 1_565 S
C10 N9 1.307 . S
C10 C14 1.370 . S
C10 H21 0.948 . S
C11 N9 1.333 . S
C11 C12 1.379 . S
C11 H19 0.952 . S
C12 C11 1.379 . S
C12 C13 1.390 . S
C12 H32 0.949 . S
C13 C12 1.390 . S
C13 C14 1.357 . S
C14 C10 1.370 . S
C14 C13 1.357 . S
C14 H33 0.950 . S
Zn15 N9 2.020 1_545 S
Zn15 O18 2.025 1_645 S
Zn15 O23 2.024 1_655 S
Zn15 O25 2.039 1_554 S
Zn15 O27 2.034 1_544 S
O16 C0 1.251 1_545 S
O16 Zn7 2.039 1_554 S
C17 O22 1.246 . S
C17 O23 1.249 . S
O18 C0 1.254 . S
O18 Zn15 2.025 1_465 S
H19 C11 0.952 . S
H20 C2 0.952 1_554 S
H21 C10 0.948 . S
O22 Zn7 2.034 1_554 S
O22 C17 1.246 . S
O23 Zn15 2.024 1_455 S
O23 C17 1.249 . S
H24 C6 0.948 . S
O25 Zn15 2.039 1_556 S
O25 C29 1.251 . S
O26 Zn7 2.025 . S
O26 C29 1.254 1_455 S
O27 C8 1.246 . S
O27 Zn15 2.034 1_566 S
O28 Zn7 2.024 1_565 S
O28 C8 1.249 1_455 S
C29 O25 1.251 . S
C29 O26 1.254 1_655 S
H30 C3 0.949 . S
H31 C5 0.950 . S
H32 C12 0.949 . S
H33 C14 0.950 . S
C34 O50 1.251 . S
C34 O52 1.254 1_565 S
N35 C36 1.333 . S
N35 C40 1.307 . S
N35 Zn41 2.020 1_655 S
C36 N35 1.333 . S
C36 C37 1.379 . S
C36 H54 0.952 . S
C37 C36 1.379 . S
C37 C38 1.390 . S
C37 H64 0.949 . S
C38 C37 1.390 . S
C38 C39 1.357 . S
C39 C38 1.357 . S
C39 C40 1.370 . S
C39 H65 0.950 . S
C40 N35 1.307 . S
C40 C39 1.370 . S
C40 H58 0.948 . S
Zn41 N35 2.020 1_455 S
Zn41 O50 2.039 . S
Zn41 O56 2.034 1_455 S
Zn41 O60 2.025 1_465 S
Zn41 O62 2.024 1_565 S
C42 O61 1.246 . S
C42 O62 1.249 . S
N43 C44 1.307 . S
N43 C45 1.333 . S
N43 Zn49 2.020 . S
C44 N43 1.307 . S
C44 C48 1.370 . S
C44 H55 0.948 . S
C45 N43 1.333 . S
C45 C46 1.379 . S
C45 H53 0.952 . S
C46 C45 1.379 . S
C46 C47 1.390 . S
C46 H66 0.949 . S
C47 C46 1.390 . S
C47 C48 1.357 . S
C48 C44 1.370 . S
C48 C47 1.357 . S
C48 H67 0.950 . S
Zn49 N43 2.020 . S
Zn49 O52 2.025 . S
Zn49 O57 2.024 1_455 S
Zn49 O59 2.039 . S
Zn49 O61 2.034 . S
O50 C34 1.251 . S
O50 Zn41 2.039 . S
C51 O56 1.246 . S
C51 O57 1.249 1_565 S
O52 C34 1.254 1_545 S
O52 Zn49 2.025 . S
H53 C45 0.952 . S
H54 C36 0.952 . S
H55 C44 0.948 . S
O56 Zn41 2.034 1_655 S
O56 C51 1.246 . S
O57 Zn49 2.024 1_655 S
O57 C51 1.249 1_545 S
H58 C40 0.948 . S
O59 Zn49 2.039 . S
O59 C63 1.251 1_455 S
O60 Zn41 2.025 1_645 S
O60 C63 1.254 . S
O61 C42 1.246 . S
O61 Zn49 2.034 . S
O62 Zn41 2.024 1_545 S
O62 C42 1.249 . S
C63 O59 1.251 1_655 S
C63 O60 1.254 . S
H64 C37 0.949 . S
H65 C39 0.950 . S
H66 C46 0.949 . S
H67 C48 0.950 . S
Zn68 O74 1.920 . S
Zn68 O80 1.898 . S
Zn68 O83 1.905 . S
Zn69 O77 1.905 . S
Zn69 O78 1.898 . S
Zn69 O86 1.920 . S
Zn70 O73 2.080 . S
Zn70 O76 2.114 . S
Zn70 O79 2.120 . S
Zn70 O81 2.120 . S
Zn70 O82 2.114 . S
Zn70 O85 2.080 . S
C71 O76 1.166 . S
C71 O77 1.182 . S
C72 O78 1.167 . S
C72 O79 1.299 . S
O73 Zn70 2.080 . S
O73 C87 1.305 . S
O74 Zn68 1.920 . S
O74 C87 1.234 . S
C75 O80 1.167 . S
C75 O81 1.299 . S
O76 Zn70 2.114 . S
O76 C71 1.166 . S
O77 Zn69 1.905 . S
O77 C71 1.182 . S
O78 Zn69 1.898 . S
O78 C72 1.167 . S
O79 Zn70 2.120 . S
O79 C72 1.299 . S
O80 Zn68 1.898 . S
O80 C75 1.167 . S
O81 Zn70 2.120 . S
O81 C75 1.299 . S
O82 Zn70 2.114 . S
O82 C84 1.166 . S
O83 Zn68 1.905 . S
O83 C84 1.182 . S
C84 O82 1.166 . S
C84 O83 1.182 . S
O85 Zn70 2.080 . S
O85 C88 1.305 . S
O86 Zn69 1.920 . S
O86 C88 1.234 . S
C87 O73 1.305 . S
C87 O74 1.234 . S
C88 O85 1.305 . S
C88 O86 1.234 . S
Zn89 O95 1.920 . S
Zn89 O101 1.898 . S
Zn89 O104 1.905 . S
Zn90 O98 1.905 . S
Zn90 O99 1.898 . S
Zn90 O107 1.920 . S
Zn91 O94 2.080 . S
Zn91 O97 2.114 . S
Zn91 O100 2.120 . S
Zn91 O102 2.120 . S
Zn91 O103 2.114 . S
Zn91 O106 2.080 . S
C92 O97 1.166 . S
C92 O98 1.182 . S
C93 O99 1.167 . S
C93 O100 1.299 . S
O94 Zn91 2.080 . S
O94 C108 1.305 . S
O95 Zn89 1.920 . S
O95 C108 1.234 . S
C96 O101 1.167 . S
C96 O102 1.299 . S
O97 Zn91 2.114 . S
O97 C92 1.166 . S
O98 Zn90 1.905 . S
O98 C92 1.182 . S
O99 Zn90 1.898 . S
O99 C93 1.167 . S
O100 Zn91 2.120 . S
O100 C93 1.299 . S
O101 Zn89 1.898 . S
O101 C96 1.167 . S
O102 Zn91 2.120 . S
O102 C96 1.299 . S
O103 Zn91 2.114 . S
O103 C105 1.166 . S
O104 Zn89 1.905 . S
O104 C105 1.182 . S
C105 O103 1.166 . S
C105 O104 1.182 . S
O106 Zn91 2.080 . S
O106 C109 1.305 . S
O107 Zn90 1.920 . S
O107 C109 1.234 . S
C108 O94 1.305 . S
C108 O95 1.234 . S
C109 O106 1.305 . S
C109 O107 1.234 . S
H110 C116 0.930 . S
H111 C119 0.930 . S
H112 C120 0.930 . S
H113 C121 0.930 . S
H114 C124 0.930 . S
H115 C125 0.930 . S
C116 H110 0.930 . S
C116 C117 1.355 . S
C116 C118 1.415 . S
C117 C116 1.355 . S
C117 C119 1.419 . S
C118 C116 1.415 . S
C118 C123 1.425 . S
C118 C125 1.409 . S
C119 H111 0.930 . S
C119 C117 1.419 . S
C119 C120 1.362 . S
C120 H112 0.930 . S
C120 C119 1.362 . S
C120 C123 1.409 . S
C121 H113 0.930 . S
C121 C122 1.355 . S
C121 C123 1.415 . S
C122 C121 1.355 . S
C122 C124 1.419 . S
C123 C118 1.425 . S
C123 C120 1.409 . S
C123 C121 1.415 . S
C124 H114 0.930 . S
C124 C122 1.419 . S
C124 C125 1.362 . S
C125 H115 0.930 . S
C125 C118 1.409 . S
C125 C124 1.362 . S
H126 C132 0.930 . S
H127 C135 0.930 . S
H128 C136 0.930 . S
H129 C137 0.930 . S
H130 C140 0.930 . S
H131 C141 0.930 . S
C132 H126 0.930 . S
C132 C133 1.355 . S
C132 C134 1.415 . S
C133 C132 1.355 . S
C133 C135 1.419 . S
C134 C132 1.415 . S
C134 C139 1.425 . S
C134 C141 1.409 . S
C135 H127 0.930 . S
C135 C133 1.419 . S
C135 C136 1.362 . S
C136 H128 0.930 . S
C136 C135 1.362 . S
C136 C139 1.409 . S
C137 H129 0.930 . S
C137 C138 1.355 . S
C137 C139 1.415 . S
C138 C137 1.355 . S
C138 C140 1.419 . S
C139 C134 1.425 . S
C139 C136 1.409 . S
C139 C137 1.415 . S
C140 H130 0.930 . S
C140 C138 1.419 . S
C140 C141 1.362 . S
C141 H131 0.930 . S
C141 C134 1.409 . S
C141 C140 1.362 . S
H142 C148 0.930 . S
H143 C151 0.930 . S
H144 C152 0.930 . S
H145 C153 0.930 . S
H146 C156 0.930 . S
H147 C157 0.930 . S
C148 H142 0.930 . S
C148 C149 1.355 . S
C148 C150 1.415 . S
C149 C148 1.355 . S
C149 C151 1.419 . S
C150 C148 1.415 . S
C150 C155 1.425 . S
C150 C157 1.409 . S
C151 H143 0.930 . S
C151 C149 1.419 . S
C151 C152 1.362 . S
C152 H144 0.930 . S
C152 C151 1.362 . S
C152 C155 1.409 . S
C153 H145 0.930 . S
C153 C154 1.355 . S
C153 C155 1.415 . S
C154 C153 1.355 . S
C154 C156 1.419 . S
C155 C150 1.425 . S
C155 C152 1.409 . S
C155 C153 1.415 . S
C156 H146 0.930 . S
C156 C154 1.419 . S
C156 C157 1.362 . S
C157 H147 0.930 . S
C157 C150 1.409 . S
C157 C156 1.362 . S
H158 C164 0.930 . S
H159 C167 0.930 . S
H160 C168 0.930 . S
H161 C169 0.930 . S
H162 C172 0.930 . S
H163 C173 0.930 . S
C164 H158 0.930 . S
C164 C165 1.355 . S
C164 C166 1.415 . S
C165 C164 1.355 . S
C165 C167 1.419 1_655 S
C166 C164 1.415 . S
C166 C171 1.425 . S
C166 C173 1.409 . S
C167 H159 0.930 . S
C167 C165 1.419 1_455 S
C167 C168 1.362 . S
C168 H160 0.930 . S
C168 C167 1.362 . S
C168 C171 1.409 1_455 S
C169 H161 0.930 . S
C169 C170 1.355 . S
C169 C171 1.415 . S
C170 C169 1.355 . S
C170 C172 1.419 . S
C171 C166 1.425 . S
C171 C168 1.409 1_655 S
C171 C169 1.415 . S
C172 H162 0.930 . S
C172 C170 1.419 . S
C172 C173 1.362 . S
C173 H163 0.930 . S
C173 C166 1.409 . S
C173 C172 1.362 . S
H174 C180 0.930 . S
H175 C183 0.930 . S
H176 C184 0.930 . S
H177 C185 0.930 . S
H178 C188 0.930 . S
H179 C189 0.930 . S
C180 H174 0.930 . S
C180 C181 1.355 . S
C180 C182 1.415 . S
C181 C180 1.355 . S
C181 C183 1.419 . S
C182 C180 1.415 . S
C182 C187 1.425 . S
C182 C189 1.409 . S
C183 H175 0.930 . S
C183 C181 1.419 . S
C183 C184 1.362 . S
C184 H176 0.930 . S
C184 C183 1.362 . S
C184 C187 1.409 . S
C185 H177 0.930 . S
C185 C186 1.355 . S
C185 C187 1.415 . S
C186 C185 1.355 . S
C186 C188 1.419 . S
C187 C182 1.425 . S
C187 C184 1.409 . S
C187 C185 1.415 . S
C188 H178 0.930 . S
C188 C186 1.419 . S
C188 C189 1.362 . S
C189 H179 0.930 . S
C189 C182 1.409 . S
C189 C188 1.362 . S
H190 C196 0.930 . S
H191 C199 0.930 . S
H192 C200 0.930 . S
H193 C201 0.930 . S
H194 C204 0.930 . S
H195 C205 0.930 . S
C196 H190 0.930 . S
C196 C197 1.355 . S
C196 C198 1.415 . S
C197 C196 1.355 . S
C197 C199 1.419 . S
C198 C196 1.415 . S
C198 C203 1.425 . S
C198 C205 1.409 . S
C199 H191 0.930 . S
C199 C197 1.419 . S
C199 C200 1.362 . S
C200 H192 0.930 . S
C200 C199 1.362 . S
C200 C203 1.409 . S
C201 H193 0.930 . S
C201 C202 1.355 . S
C201 C203 1.415 . S
C202 C201 1.355 . S
C202 C204 1.419 . S
C203 C198 1.425 . S
C203 C200 1.409 . S
C203 C201 1.415 . S
C204 H194 0.930 . S
C204 C202 1.419 . S
C204 C205 1.362 . S
C205 H195 0.930 . S
C205 C198 1.409 . S
C205 C204 1.362 . S
H206 C212 0.930 1_545 S
H207 C215 0.930 . S
H208 C216 0.930 . S
H209 C217 0.930 . S
H210 C220 0.930 . S
H211 C221 0.930 1_545 S
C212 H206 0.930 1_565 S
C212 C213 1.355 . S
C212 C214 1.415 . S
C213 C212 1.355 . S
C213 C215 1.419 . S
C214 C212 1.415 . S
C214 C219 1.425 . S
C214 C221 1.409 . S
C215 H207 0.930 . S
C215 C213 1.419 . S
C215 C216 1.362 . S
C216 H208 0.930 . S
C216 C215 1.362 . S
C216 C219 1.409 . S
C217 H209 0.930 . S
C217 C218 1.355 . S
C217 C219 1.415 . S
C218 C217 1.355 . S
C218 C220 1.419 . S
C219 C214 1.425 . S
C219 C216 1.409 . S
C219 C217 1.415 . S
C220 H210 0.930 . S
C220 C218 1.419 . S
C220 C221 1.362 . S
C221 H211 0.930 1_565 S
C221 C214 1.409 . S
C221 C220 1.362 . S
H222 C228 0.930 . S
H223 C231 0.930 . S
H224 C232 0.930 . S
H225 C233 0.930 . S
H226 C236 0.930 . S
H227 C237 0.930 . S
C228 H222 0.930 . S
C228 C229 1.355 . S
C228 C230 1.415 . S
C229 C228 1.355 . S
C229 C231 1.419 . S
C230 C228 1.415 . S
C230 C235 1.425 . S
C230 C237 1.409 . S
C231 H223 0.930 . S
C231 C229 1.419 . S
C231 C232 1.362 . S
C232 H224 0.930 . S
C232 C231 1.362 . S
C232 C235 1.409 . S
C233 H225 0.930 . S
C233 C234 1.355 . S
C233 C235 1.415 . S
C234 C233 1.355 . S
C234 C236 1.419 . S
C235 C230 1.425 . S
C235 C232 1.409 . S
C235 C233 1.415 . S
C236 H226 0.930 . S
C236 C234 1.419 . S
C236 C237 1.362 . S
C237 H227 0.930 . S
C237 C230 1.409 . S
C237 C236 1.362 . S
H238 C244 0.930 . S
H239 C247 0.930 . S
H240 C248 0.930 . S
H241 C249 0.930 . S
H242 C252 0.930 . S
H243 C253 0.930 . S
C244 H238 0.930 . S
C244 C245 1.355 . S
C244 C246 1.415 . S
C245 C244 1.355 . S
C245 C247 1.419 . S
C246 C244 1.415 . S
C246 C251 1.425 . S
C246 C253 1.409 . S
C247 H239 0.930 . S
C247 C245 1.419 . S
C247 C248 1.362 . S
C248 H240 0.930 . S
C248 C247 1.362 . S
C248 C251 1.409 . S
C249 H241 0.930 . S
C249 C250 1.355 . S
C249 C251 1.415 . S
C250 C249 1.355 . S
C250 C252 1.419 . S
C251 C246 1.425 . S
C251 C248 1.409 . S
C251 C249 1.415 . S
C252 H242 0.930 . S
C252 C250 1.419 . S
C252 C253 1.362 . S
C253 H243 0.930 . S
C253 C246 1.409 . S
C253 C252 1.362 . S
H254 C260 0.930 . S
H255 C263 0.930 . S
H256 C264 0.930 . S
H257 C265 0.930 . S
H258 C268 0.930 . S
H259 C269 0.930 . S
C260 H254 0.930 . S
C260 C261 1.355 . S
C260 C262 1.415 . S
C261 C260 1.355 . S
C261 C263 1.419 . S
C262 C260 1.415 . S
C262 C267 1.425 . S
C262 C269 1.409 . S
C263 H255 0.930 . S
C263 C261 1.419 . S
C263 C264 1.362 . S
C264 H256 0.930 . S
C264 C263 1.362 . S
C264 C267 1.409 . S
C265 H257 0.930 . S
C265 C266 1.355 . S
C265 C267 1.415 . S
C266 C265 1.355 . S
C266 C268 1.419 . S
C267 C262 1.425 . S
C267 C264 1.409 . S
C267 C265 1.415 . S
C268 H258 0.930 . S
C268 C266 1.419 . S
C268 C269 1.362 . S
C269 H259 0.930 . S
C269 C262 1.409 . S
C269 C268 1.362 . S
H270 C276 0.930 . S
H271 C279 0.930 . S
H272 C280 0.930 . S
H273 C281 0.930 . S
H274 C284 0.930 . S
H275 C285 0.930 . S
C276 H270 0.930 . S
C276 C277 1.355 . S
C276 C278 1.415 . S
C277 C276 1.355 . S
C277 C279 1.419 . S
C278 C276 1.415 . S
C278 C283 1.425 . S
C278 C285 1.409 . S
C279 H271 0.930 . S
C279 C277 1.419 . S
C279 C280 1.362 . S
C280 H272 0.930 . S
C280 C279 1.362 . S
C280 C283 1.409 . S
C281 H273 0.930 . S
C281 C282 1.355 . S
C281 C283 1.415 . S
C282 C281 1.355 . S
C282 C284 1.419 . S
C283 C278 1.425 . S
C283 C280 1.409 . S
C283 C281 1.415 . S
C284 H274 0.930 . S
C284 C282 1.419 . S
C284 C285 1.362 . S
C285 H275 0.930 . S
C285 C278 1.409 . S
C285 C284 1.362 . S
H286 C292 0.930 . S
H287 C295 0.930 1_455 S
H288 C296 0.930 1_455 S
H289 C297 0.930 . S
H290 C300 0.930 . S
H291 C301 0.930 . S
C292 H286 0.930 . S
C292 C293 1.355 . S
C292 C294 1.415 . S
C293 C292 1.355 . S
C293 C295 1.419 . S
C294 C292 1.415 . S
C294 C299 1.425 . S
C294 C301 1.409 . S
C295 H287 0.930 1_655 S
C295 C293 1.419 . S
C295 C296 1.362 . S
C296 H288 0.930 1_655 S
C296 C295 1.362 . S
C296 C299 1.409 . S
C297 H289 0.930 . S
C297 C298 1.355 . S
C297 C299 1.415 . S
C298 C297 1.355 . S
C298 C300 1.419 . S
C299 C294 1.425 . S
C299 C296 1.409 . S
C299 C297 1.415 . S
C300 H290 0.930 . S
C300 C298 1.419 . S
C300 C301 1.362 . S
C301 H291 0.930 . S
C301 C294 1.409 . S
C301 C300 1.362 . S
C117 C0 1.692 . S
C122 C87 1.513 . S
C133 C42 1.820 . S
C138 C93 1.628 . S
C149 C17 1.658 . S
C154 C84 1.537 . S
C165 C63 1.502 . S
C170 C109 1.315 . S
C181 C13 1.213 . S
C186 C75 1.027 . S
C202 C92 1.195 . S
C197 C38 1.296 . S
C213 C34 1.715 . S
C218 C88 1.534 . S
C234 C105 1.114 . S
C229 C4 1.275 . S
C250 C72 1.121 . S
C245 C47 1.221 . S
C266 C108 1.380 . S
C261 C29 1.507 . S
C282 C71 1.532 . S
C277 C51 1.658 . S
C298 C96 1.687 . S
C293 C8 1.818 . S
