# Generated by pormake.
# Topology the, (3,8)-cn, num edge types: 1
# Building blocks:
#     Node 0, Type 0, BuildingBlock: OLANEW_clean_sbu_2, # of connection points: 3
#     Node 1, Type 0, BuildingBlock: OLANEW_clean_sbu_2, # of connection points: 3
#     Node 2, Type 0, BuildingBlock: OLANEW_clean_sbu_2, # of connection points: 3
#     Node 3, Type 0, BuildingBlock: OLANEW_clean_sbu_2, # of connection points: 3
#     Node 4, Type 0, BuildingBlock: OLANEW_clean_sbu_2, # of connection points: 3
#     Node 5, Type 0, BuildingBlock: OLANEW_clean_sbu_2, # of connection points: 3
#     Node 6, Type 0, BuildingBlock: OLANEW_clean_sbu_2, # of connection points: 3
#     Node 7, Type 0, BuildingBlock: OLANEW_clean_sbu_2, # of connection points: 3
#     Node 8, Type 1, BuildingBlock: GIZVER_clean_sbu_0, # of connection points: 8
#     Node 9, Type 1, BuildingBlock: GIZVER_clean_sbu_0, # of connection points: 8
#     Node 10, Type 1, BuildingBlock: GIZVER_clean_sbu_0, # of connection points: 8
#     Edge 11, Type (0, 1), BuildingBlock: TEMPAE_clean_linker_10, # of connection points: 2
#     Edge 12, Type (0, 1), BuildingBlock: TEMPAE_clean_linker_10, # of connection points: 2
#     Edge 13, Type (0, 1), BuildingBlock: TEMPAE_clean_linker_10, # of connection points: 2
#     Edge 14, Type (0, 1), BuildingBlock: TEMPAE_clean_linker_10, # of connection points: 2
#     Edge 15, Type (0, 1), BuildingBlock: TEMPAE_clean_linker_10, # of connection points: 2
#     Edge 16, Type (0, 1), BuildingBlock: TEMPAE_clean_linker_10, # of connection points: 2
#     Edge 17, Type (0, 1), BuildingBlock: TEMPAE_clean_linker_10, # of connection points: 2
#     Edge 18, Type (0, 1), BuildingBlock: TEMPAE_clean_linker_10, # of connection points: 2
#     Edge 19, Type (0, 1), BuildingBlock: TEMPAE_clean_linker_10, # of connection points: 2
#     Edge 20, Type (0, 1), BuildingBlock: TEMPAE_clean_linker_10, # of connection points: 2
#     Edge 21, Type (0, 1), BuildingBlock: TEMPAE_clean_linker_10, # of connection points: 2
#     Edge 22, Type (0, 1), BuildingBlock: TEMPAE_clean_linker_10, # of connection points: 2
#     Edge 23, Type (0, 1), BuildingBlock: TEMPAE_clean_linker_10, # of connection points: 2
#     Edge 24, Type (0, 1), BuildingBlock: TEMPAE_clean_linker_10, # of connection points: 2
#     Edge 25, Type (0, 1), BuildingBlock: TEMPAE_clean_linker_10, # of connection points: 2
#     Edge 26, Type (0, 1), BuildingBlock: TEMPAE_clean_linker_10, # of connection points: 2
#     Edge 27, Type (0, 1), BuildingBlock: TEMPAE_clean_linker_10, # of connection points: 2
#     Edge 28, Type (0, 1), BuildingBlock: TEMPAE_clean_linker_10, # of connection points: 2
#     Edge 29, Type (0, 1), BuildingBlock: TEMPAE_clean_linker_10, # of connection points: 2
#     Edge 30, Type (0, 1), BuildingBlock: TEMPAE_clean_linker_10, # of connection points: 2
#     Edge 31, Type (0, 1), BuildingBlock: TEMPAE_clean_linker_10, # of connection points: 2
#     Edge 32, Type (0, 1), BuildingBlock: TEMPAE_clean_linker_10, # of connection points: 2
#     Edge 33, Type (0, 1), BuildingBlock: TEMPAE_clean_linker_10, # of connection points: 2
#     Edge 34, Type (0, 1), BuildingBlock: TEMPAE_clean_linker_10, # of connection points: 2
# Relax obj value: 0.076
# Max RMSD: 0.210
# Mean RMSD: 0.134
data_MOF--net-the--node1-OLANEW_clean_sbu_2--node2-GIZVER_clean_sbu_0--edge1-TEMPAE_clean_linker_10
_symmetry_space_group_name_H-M    P1
_symmetry_Int_Tables_number       1
_symmetry_cell_setting            triclinic
loop_
_symmetry_equiv_pos_as_xyz
'x, y, z'
_cell_length_a     44.8287
_cell_length_b     41.552121
_cell_length_c     37.16334
_cell_angle_alpha  91.638798
_cell_angle_beta   94.038828
_cell_angle_gamma 106.01447
loop_
_atom_site_label
_atom_site_type_symbol
_atom_site_fract_x
_atom_site_fract_y
_atom_site_fract_z
_atom_type_partial_charge
O0 O 0.3481 0.36958 0.34821 0.0
Cd1 Cd 0.33169 0.35112 0.40753 0.0
O2 O 0.31682 0.40201 0.34452 0.0
Cd3 Cd 0.29242 0.38413 0.39189 0.0
O4 O 0.25209 0.383 0.4217 0.0
C5 C 0.23611 0.40108 0.40777 0.0
O6 O 0.24547 0.41711 0.37882 0.0
C7 C 0.33801 0.39133 0.33165 0.0
C8 C 0.34696 0.29303 0.42704 0.0
O9 O 0.319 0.2918 0.41563 0.0
O10 O 0.36757 0.32149 0.42904 0.0
O11 O 0.74492 0.38038 0.30668 0.0
Cd12 Cd 0.69703 0.3457 0.27337 0.0
O13 O 0.75021 0.33802 0.33838 0.0
Cd14 Cd 0.70748 0.30055 0.31761 0.0
O15 O 0.6696 0.25651 0.32754 0.0
C16 C 0.65502 0.25888 0.35517 0.0
O17 O 0.66242 0.28757 0.37411 0.0
C18 C 0.7601 0.36856 0.33066 0.0
C19 C 0.66632 0.37985 0.22618 0.0
O20 O 0.66117 0.37812 0.25967 0.0
O21 O 0.6865 0.36602 0.21509 0.0
O22 O 0.73354 0.73842 0.25547 0.0
Cd23 Cd 0.77526 0.78115 0.29017 0.0
O24 O 0.69903 0.76714 0.2573 0.0
Cd25 Cd 0.72465 0.80749 0.29608 0.0
O26 O 0.71666 0.84378 0.33546 0.0
C27 C 0.69773 0.85986 0.32432 0.0
O28 O 0.68665 0.85529 0.29029 0.0
C29 C 0.70669 0.74156 0.24609 0.0
C30 C 0.81219 0.75363 0.33678 0.0
O31 O 0.79137 0.76594 0.3488 0.0
O32 O 0.81556 0.75422 0.30284 0.0
O33 O 0.33713 0.8061 0.2787 0.0
Cd34 Cd 0.30314 0.77053 0.23011 0.0
O35 O 0.30361 0.78082 0.31564 0.0
Cd36 Cd 0.2803 0.76419 0.36429 0.0
O37 O 0.24186 0.73466 0.39279 0.0
C38 C 0.21452 0.73442 0.38086 0.0
O39 O 0.21115 0.75297 0.35364 0.0
C40 C 0.32896 0.80268 0.31074 0.0
C41 C 0.32789 0.72004 0.20559 0.0
O42 O 0.30931 0.71491 0.23085 0.0
O43 O 0.33457 0.74893 0.192 0.0
O44 O 0.36408 0.78183 0.75197 0.0
Cd45 Cd 0.33235 0.7327 0.78063 0.0
O46 O 0.32708 0.80744 0.74778 0.0
Cd47 Cd 0.28974 0.76409 0.76039 0.0
O48 O 0.24551 0.72816 0.74103 0.0
C49 C 0.22902 0.73829 0.71705 0.0
O50 O 0.23896 0.76925 0.70701 0.0
C51 C 0.355 0.80736 0.74381 0.0
C52 C 0.36736 0.70054 0.82508 0.0
O53 O 0.35741 0.7243 0.83782 0.0
O54 O 0.36099 0.69219 0.79135 0.0
O55 O 0.31812 0.32104 0.77787 0.0
Cd56 Cd 0.27711 0.28309 0.73713 0.0
O57 O 0.29204 0.35832 0.78439 0.0
Cd58 Cd 0.25138 0.33317 0.74776 0.0
O59 O 0.2093 0.33399 0.71462 0.0
C60 C 0.21253 0.34781 0.68453 0.0
O61 O 0.24066 0.35849 0.67356 0.0
C62 C 0.31622 0.34866 0.79183 0.0
C63 C 0.29981 0.23681 0.69933 0.0
O64 O 0.29919 0.26475 0.68599 0.0
O65 O 0.28951 0.23066 0.73045 0.0
O66 O 0.73552 0.36677 0.80914 0.0
Cd67 Cd 0.75328 0.32634 0.77348 0.0
O68 O 0.70815 0.32828 0.84231 0.0
Cd69 Cd 0.71315 0.28687 0.80818 0.0
O70 O 0.69019 0.2462 0.76873 0.0
C71 C 0.69099 0.25009 0.73497 0.0
O72 O 0.70809 0.2784 0.72363 0.0
C73 C 0.7184 0.35892 0.83517 0.0
C74 C 0.80052 0.36061 0.73262 0.0
O75 O 0.77186 0.35355 0.72046 0.0
O76 O 0.80685 0.35078 0.76389 0.0
O77 O 0.81493 0.8007 0.62296 0.0
Cd78 Cd 0.8039 0.85029 0.64859 0.0
O79 O 0.78359 0.76959 0.65895 0.0
Cd80 Cd 0.75924 0.72347 0.68355 0.0
O81 O 0.72907 0.68929 0.71785 0.0
C82 C 0.73619 0.66536 0.73363 0.0
O83 O 0.76297 0.65951 0.72851 0.0
C84 C 0.80292 0.77211 0.63502 0.0
C85 C 0.74916 0.86198 0.61962 0.0
O86 O 0.77502 0.87414 0.6057 0.0
O87 O 0.74913 0.84359 0.64675 0.0
Co88 Co 0.04627 0.502 0.55847 0.0
Co89 Co 0.02294 0.4945 0.49128 0.0
Co90 Co 0.99331 0.54371 0.53529 0.0
O91 O 0.007 0.50195 0.53473 0.0
H92 H 0.99049 0.48252 0.53979 0.0
O93 O 0.97991 0.58549 0.53554 0.0
Co94 Co 0.94002 0.58633 0.5147 0.0
Co95 Co 0.96678 0.59329 0.58027 0.0
H96 H 0.99629 0.60473 0.52972 0.0
O97 O 0.02733 0.45266 0.47683 0.0
O98 O 0.06155 0.49322 0.51168 0.0
O99 O 0.03173 0.53119 0.45958 0.0
O100 O 0.0241 0.56734 0.50087 0.0
O101 O 0.96181 0.52326 0.49431 0.0
O102 O 0.90456 0.59146 0.49457 0.0
O103 O 0.95053 0.63063 0.50701 0.0
O104 O 0.92428 0.53946 0.51816 0.0
O105 O 0.96278 0.5202 0.57016 0.0
O106 O 0.9621 0.55798 0.61343 0.0
O107 O 0.92719 0.59424 0.56335 0.0
O108 O 0.96364 0.63499 0.59568 0.0
C109 C 0.06452 0.46719 0.5822 0.0
C110 C 0.05348 0.56857 0.57384 0.0
C111 C 0.03525 0.56099 0.47164 0.0
C112 C 0.05468 0.46441 0.49384 0.0
C113 C 0.92165 0.62227 0.49334 0.0
C114 C 0.93291 0.52071 0.49585 0.0
C115 C 0.95626 0.52775 0.60169 0.0
C116 C 0.93532 0.62309 0.58124 0.0
O117 O 0.0808 0.49831 0.58159 0.0
O118 O 0.03612 0.45766 0.56693 0.0
O119 O 0.02456 0.5647 0.57633 0.0
O120 O 0.06232 0.54852 0.55355 0.0
Co121 Co 0.5382 0.97483 0.50844 0.0
Co122 Co 0.54742 1.00033 0.57398 0.0
Co123 Co 0.49674 0.02793 0.53453 0.0
O124 O 0.5361 0.01566 0.53084 0.0
H125 H 0.55281 0.03447 0.52477 0.0
O126 O 0.45768 0.04163 0.53808 0.0
Co127 Co 0.45859 0.08413 0.56091 0.0
Co128 Co 0.44659 0.05845 0.4949 0.0
H129 H 0.44068 0.02349 0.54488 0.0
O130 O 0.58783 1.00294 0.58708 0.0
O131 O 0.5519 0.96 0.55622 0.0
O132 O 0.51833 0.99276 0.61036 0.0
O133 O 0.47914 0.99302 0.57042 0.0
O134 O 0.51866 0.0602 0.57453 0.0
O135 O 0.45571 0.121 0.58331 0.0
O136 O 0.41793 0.07277 0.5704 0.0
O137 O 0.50178 0.10223 0.55544 0.0
O138 O 0.51431 0.06264 0.49864 0.0
O139 O 0.47572 0.06414 0.45845 0.0
O140 O 0.44805 0.101 0.51346 0.0
O141 O 0.40747 0.06379 0.48241 0.0
C142 C 0.57151 0.95911 0.48367 0.0
C143 C 0.47454 0.96369 0.49556 0.0
C144 C 0.48943 0.98545 0.6011 0.0
C145 C 0.57944 0.97234 0.57332 0.0
C146 C 0.42705 0.10326 0.58498 0.0
C147 C 0.52203 0.09145 0.57311 0.0
C148 C 0.50455 0.0708 0.46801 0.0
C149 C 0.42054 0.09391 0.49614 0.0
O150 O 0.54389 0.93888 0.48625 0.0
O151 O 0.5783 0.98962 0.49785 0.0
O152 O 0.47543 0.99465 0.49482 0.0
O153 O 0.49528 0.95442 0.51455 0.0
Co154 Co 0.47708 0.54832 0.09011 0.0
Co155 Co 0.46692 0.48737 0.0639 0.0
Co156 Co 0.51782 0.53608 0.01999 0.0
O157 O 0.47832 0.52866 0.04357 0.0
H158 H 0.46151 0.53073 0.02686 0.0
O159 O 0.5576 0.5432 0.99711 0.0
Co160 Co 0.56068 0.51954 0.95374 0.0
Co161 Co 0.56926 0.58165 0.97255 0.0
H162 H 0.57441 0.54324 1.0149 0.0
O163 O 0.4266 0.46699 0.07549 0.0
O164 O 0.46486 0.50336 0.11054 0.0
O165 O 0.4974 0.4626 0.06624 0.0
O166 O 0.53557 0.50646 0.05277 0.0
O167 O 0.49651 0.49687 0.98636 0.0
O168 O 0.56748 0.49702 0.91539 0.0
O169 O 0.60012 0.51851 0.96447 0.0
O170 O 0.51884 0.51646 0.93727 0.0
O171 O 0.5001 0.56615 0.98724 0.0
O172 O 0.53839 0.60482 0.96472 0.0
O173 O 0.57523 0.56226 0.92926 0.0
O174 O 0.61042 0.60169 0.96486 0.0
C175 C 0.44447 0.56438 0.11538 0.0
C176 C 0.541 0.57274 0.08776 0.0
C177 C 0.52614 0.47745 0.06554 0.0
C178 C 0.4374 0.48187 0.10682 0.0
C179 C 0.59436 0.50147 0.93353 0.0
C180 C 0.49602 0.49779 0.9521 0.0
C181 C 0.50986 0.59279 0.96983 0.0
C182 C 0.60274 0.58357 0.93479 0.0
O183 O 0.47185 0.56737 0.13169 0.0
O184 O 0.43717 0.54899 0.08354 0.0
O185 O 0.53899 0.57516 0.05365 0.0
O186 O 0.51974 0.55179 0.10269 0.0
C187 C 0.19327 0.42827 0.41023 0.0
C188 C 0.20799 0.40499 0.4239 0.0
C189 C 0.16709 0.43326 0.42534 0.0
C190 C 0.15517 0.41445 0.45491 0.0
C191 C 0.16943 0.39026 0.46837 0.0
C192 C 0.19582 0.38593 0.45277 0.0
C193 C 0.15233 0.45897 0.40974 0.0
C194 C 0.15732 0.36856 0.49897 0.0
C195 C 0.10925 0.46119 0.5062 0.0
C196 C 0.07914 0.44718 0.48964 0.0
C197 C 0.13395 0.44854 0.49776 0.0
C198 C 0.12845 0.42156 0.4718 0.0
C199 C 0.09765 0.40518 0.45783 0.0
C200 C 0.07327 0.41822 0.46688 0.0
C201 C 0.1663 0.46594 0.51437 0.0
C202 C 0.09083 0.37532 0.43143 0.0
H203 H 0.20241 0.44301 0.38782 0.0
H204 H 0.20684 0.36758 0.46326 0.0
H205 H 0.12728 0.44715 0.40166 0.0
H206 H 0.15383 0.4792 0.43051 0.0
H207 H 0.16371 0.4705 0.38581 0.0
H208 H 0.17642 0.37086 0.52043 0.0
H209 H 0.13751 0.37467 0.511 0.0
H210 H 0.14969 0.3419 0.48891 0.0
H211 H 0.11397 0.48313 0.52446 0.0
H212 H 0.04993 0.40671 0.45466 0.0
H213 H 0.17854 0.48433 0.49547 0.0
H214 H 0.18008 0.44782 0.5193 0.0
H215 H 0.16564 0.47966 0.54028 0.0
H216 H 0.10055 0.38342 0.40545 0.0
H217 H 0.06544 0.36317 0.42613 0.0
H218 H 0.10224 0.35653 0.4419 0.0
C219 C 0.61491 0.23304 0.3971 0.0
C220 C 0.63178 0.22936 0.3676 0.0
C221 C 0.59414 0.20524 0.41077 0.0
C222 C 0.59017 0.17288 0.39469 0.0
C223 C 0.60673 0.16899 0.36455 0.0
C224 C 0.6273 0.19732 0.35129 0.0
C225 C 0.57674 0.21049 0.44281 0.0
C226 C 0.60314 0.13486 0.34678 0.0
C227 C 0.55905 0.10228 0.45645 0.0
C228 C 0.52703 0.09324 0.44588 0.0
C229 C 0.58013 0.12703 0.4388 0.0
C230 C 0.56893 0.14325 0.40998 0.0
C231 C 0.53691 0.13306 0.39798 0.0
C232 C 0.51637 0.10812 0.41598 0.0
C233 C 0.61416 0.13699 0.45221 0.0
C234 C 0.52405 0.14978 0.36739 0.0
H235 H 0.61812 0.25769 0.40982 0.0
H236 H 0.6403 0.19424 0.32854 0.0
H237 H 0.55128 0.2004 0.43602 0.0
H238 H 0.58305 0.1966 0.46586 0.0
H239 H 0.58187 0.23736 0.45163 0.0
H240 H 0.617 0.13618 0.32296 0.0
H241 H 0.61069 0.11855 0.3665 0.0
H242 H 0.5783 0.12268 0.33802 0.0
H243 H 0.5676 0.09081 0.47934 0.0
H244 H 0.49171 0.1013 0.40747 0.0
H245 H 0.62067 0.16266 0.46508 0.0
H246 H 0.62886 0.13748 0.42932 0.0
H247 H 0.61961 0.11968 0.47226 0.0
H248 H 0.52583 0.17609 0.37595 0.0
H249 H 0.49926 0.13678 0.35899 0.0
H250 H 0.53784 0.15051 0.34365 0.0
C251 C 0.84068 0.75208 0.39658 0.0
C252 C 0.83142 0.73864 0.36127 0.0
C253 C 0.8583 0.73753 0.42046 0.0
C254 C 0.86574 0.708 0.40912 0.0
C255 C 0.85699 0.69484 0.3731 0.0
C256 C 0.84029 0.71059 0.34947 0.0
C257 C 0.86898 0.7546 0.4573 0.0
C258 C 0.86468 0.66364 0.35974 0.0
C259 C 0.92688 0.67457 0.45955 0.0
C260 C 0.90808 0.64721 0.47609 0.0
C261 C 0.91353 0.69563 0.43883 0.0
C262 C 0.88075 0.68932 0.43503 0.0
C263 C 0.86194 0.66334 0.4541 0.0
C264 C 0.87578 0.64234 0.47403 0.0
C265 C 0.93435 0.72397 0.42009 0.0
C266 C 0.82707 0.65713 0.45257 0.0
H267 H 0.83449 0.77431 0.40549 0.0
H268 H 0.83324 0.70028 0.32206 0.0
H269 H 0.88007 0.74001 0.47572 0.0
H270 H 0.88614 0.77916 0.45418 0.0
H271 H 0.84901 0.75995 0.46987 0.0
H272 H 0.85767 0.65763 0.33051 0.0
H273 H 0.89007 0.66675 0.36446 0.0
H274 H 0.85258 0.64199 0.37507 0.0
H275 H 0.9519 0.67862 0.46141 0.0
H276 H 0.86123 0.6217 0.48756 0.0
H277 H 0.92934 0.74791 0.42753 0.0
H278 H 0.92947 0.7196 0.39039 0.0
H279 H 0.95944 0.72662 0.42713 0.0
H280 H 0.82134 0.68071 0.45989 0.0
H281 H 0.81604 0.63762 0.47109 0.0
H282 H 0.8168 0.64903 0.42461 0.0
C283 C 0.38039 0.8396 0.33615 0.0
C284 C 0.34904 0.82382 0.34089 0.0
C285 C 0.39974 0.86111 0.36329 0.0
C286 C 0.38752 0.867 0.39615 0.0
C287 C 0.35605 0.85078 0.40144 0.0
C288 C 0.33711 0.82958 0.37361 0.0
C289 C 0.43313 0.87806 0.35648 0.0
C290 C 0.34222 0.8564 0.43616 0.0
C291 C 0.44796 0.90421 0.47406 0.0
C292 C 0.45028 0.93852 0.47249 0.0
C293 C 0.42673 0.88044 0.45032 0.0
C294 C 0.40754 0.89126 0.42421 0.0
C295 C 0.40904 0.92571 0.42328 0.0
C296 C 0.43029 0.94889 0.4475 0.0
C297 C 0.42556 0.84389 0.4524 0.0
C298 C 0.38908 0.93828 0.39574 0.0
H299 H 0.38985 0.83533 0.31096 0.0
H300 H 0.31278 0.81847 0.37719 0.0
H301 H 0.43722 0.90566 0.35763 0.0
H302 H 0.44916 0.87222 0.37781 0.0
H303 H 0.43923 0.87021 0.32978 0.0
H304 H 0.31808 0.84007 0.43707 0.0
H305 H 0.35678 0.85154 0.45964 0.0
H306 H 0.34191 0.88294 0.43916 0.0
H307 H 0.46314 0.89591 0.49343 0.0
H308 H 0.43183 0.97531 0.4461 0.0
H309 H 0.43402 0.83525 0.42755 0.0
H310 H 0.40121 0.82844 0.45393 0.0
H311 H 0.44004 0.83924 0.47612 0.0
H312 H 0.39564 0.93371 0.3682 0.0
H313 H 0.39164 0.96551 0.40003 0.0
H314 H 0.3642 0.92441 0.39675 0.0
C315 C 0.19043 0.68154 0.70782 0.0
C316 C 0.2004 0.71511 0.69861 0.0
C317 C 0.16476 0.65882 0.68858 0.0
C318 C 0.14872 0.66993 0.65942 0.0
C319 C 0.15802 0.70401 0.65076 0.0
C320 C 0.18372 0.72619 0.67048 0.0
C321 C 0.15548 0.62266 0.69866 0.0
C322 C 0.14154 0.71678 0.61981 0.0
C323 C 0.10828 0.60403 0.58597 0.0
C324 C 0.07717 0.59611 0.5945 0.0
C325 C 0.1316 0.6285 0.60644 0.0
C326 C 0.12372 0.64537 0.63639 0.0
C327 C 0.09225 0.63813 0.64465 0.0
C328 C 0.06928 0.61364 0.62348 0.0
C329 C 0.1648 0.63581 0.59636 0.0
C330 C 0.08298 0.6557 0.67633 0.0
H331 H 0.20309 0.67279 0.72958 0.0
H332 H 0.19115 0.7521 0.66322 0.0
H333 H 0.13031 0.61447 0.70293 0.0
H334 H 0.15936 0.60648 0.67621 0.0
H335 H 0.16893 0.61853 0.72351 0.0
H336 H 0.1502 0.74442 0.61819 0.0
H337 H 0.14498 0.70481 0.59395 0.0
H338 H 0.11612 0.70995 0.62264 0.0
H339 H 0.11454 0.59086 0.56336 0.0
H340 H 0.04528 0.60765 0.63019 0.0
H341 H 0.17955 0.62939 0.61872 0.0
H342 H 0.17432 0.66294 0.59222 0.0
H343 H 0.16681 0.62148 0.57138 0.0
H344 H 0.0943 0.64968 0.70179 0.0
H345 H 0.05738 0.64832 0.67818 0.0
H346 H 0.09117 0.68327 0.67417 0.0
C347 C 0.31788 0.18489 0.69712 0.0
C348 C 0.31318 0.21298 0.68003 0.0
C349 C 0.33321 0.16391 0.6805 0.0
C350 C 0.34393 0.17105 0.64587 0.0
C351 C 0.33772 0.19828 0.62768 0.0
C352 C 0.32261 0.21903 0.64506 0.0
C353 C 0.3394 0.13516 0.70083 0.0
C354 C 0.34865 0.20691 0.59076 0.0
C355 C 0.41705 0.14819 0.62395 0.0
C356 C 0.40515 0.119 0.60163 0.0
C357 C 0.39732 0.16505 0.63865 0.0
C358 C 0.36474 0.15262 0.63069 0.0
C359 C 0.35246 0.12311 0.60818 0.0
C360 C 0.37285 0.10649 0.59404 0.0
C361 C 0.41143 0.19644 0.66244 0.0
C362 C 0.31791 0.10968 0.59835 0.0
H363 H 0.31054 0.1799 0.72406 0.0
H364 H 0.31889 0.24052 0.6315 0.0
H365 H 0.33214 0.11171 0.6835 0.0
H366 H 0.36477 0.14045 0.70827 0.0
H367 H 0.32704 0.13099 0.7259 0.0
H368 H 0.33495 0.22193 0.57643 0.0
H369 H 0.37339 0.22201 0.59384 0.0
H370 H 0.34713 0.18407 0.57374 0.0
H371 H 0.442 0.15806 0.62994 0.0
H372 H 0.36356 0.08423 0.57635 0.0
H373 H 0.40149 0.19373 0.68906 0.0
H374 H 0.40568 0.21812 0.6499 0.0
H375 H 0.43717 0.20218 0.66692 0.0
H376 H 0.30526 0.10541 0.62316 0.0
H377 H 0.31195 0.08582 0.58165 0.0
H378 H 0.30947 0.12844 0.58306 0.0
C379 C 0.81769 0.39621 0.68077 0.0
C380 C 0.8254 0.38102 0.71195 0.0
C381 C 0.84079 0.41812 0.6627 0.0
C382 C 0.8724 0.42475 0.67594 0.0
C383 C 0.88047 0.40842 0.70649 0.0
C384 C 0.85683 0.38685 0.72427 0.0
C385 C 0.83126 0.43519 0.63026 0.0
C386 C 0.91396 0.41455 0.72107 0.0
C387 C 0.93146 0.4671 0.61147 0.0
C388 C 0.9377 0.50093 0.62304 0.0
C389 C 0.91118 0.44177 0.62932 0.0
C390 C 0.89662 0.45055 0.6592 0.0
C391 C 0.90372 0.48448 0.67182 0.0
C392 C 0.92429 0.50923 0.65373 0.0
C393 C 0.90447 0.40579 0.61539 0.0
C394 C 0.88854 0.49486 0.70353 0.0
H395 H 0.79346 0.39181 0.67105 0.0
H396 H 0.86298 0.37503 0.74822 0.0
H397 H 0.8374 0.46264 0.63636 0.0
H398 H 0.84407 0.43104 0.60689 0.0
H399 H 0.80587 0.42603 0.6223 0.0
H400 H 0.91657 0.39765 0.74298 0.0
H401 H 0.92846 0.41097 0.69912 0.0
H402 H 0.92328 0.44087 0.73189 0.0
H403 H 0.94188 0.46041 0.58794 0.0
H404 H 0.92895 0.53525 0.66294 0.0
H405 H 0.87998 0.39671 0.60371 0.0
H406 H 0.90724 0.38955 0.63785 0.0
H407 H 0.91999 0.40278 0.59428 0.0
H408 H 0.86305 0.48911 0.69677 0.0
H409 H 0.89779 0.52204 0.71113 0.0
H410 H 0.89216 0.48047 0.72733 0.0
C411 C 0.69313 0.85949 0.62375 0.0
C412 C 0.72073 0.87111 0.60663 0.0
C413 C 0.66746 0.87184 0.61539 0.0
C414 C 0.6695 0.89633 0.58929 0.0
C415 C 0.69653 0.90653 0.57028 0.0
C416 C 0.72184 0.89375 0.57914 0.0
C417 C 0.63904 0.86044 0.6363 0.0
C418 C 0.69966 0.93278 0.54247 0.0
C419 C 0.59704 0.92166 0.55734 0.0
C420 C 0.60146 0.95172 0.57785 0.0
C421 C 0.61906 0.90329 0.56045 0.0
C422 C 0.64544 0.91471 0.58558 0.0
C423 C 0.64941 0.94441 0.60719 0.0
C424 C 0.62759 0.96269 0.60277 0.0
C425 C 0.61455 0.87226 0.53622 0.0
C426 C 0.67688 0.95711 0.63487 0.0
H427 H 0.69199 0.8418 0.64484 0.0
H428 H 0.74301 0.90271 0.5656 0.0
H429 H 0.63763 0.8813 0.65484 0.0
H430 H 0.61754 0.85365 0.61772 0.0
H431 H 0.63962 0.83857 0.65257 0.0
H432 H 0.71964 0.93385 0.52604 0.0
H433 H 0.67801 0.9279 0.52427 0.0
H434 H 0.70339 0.95776 0.55628 0.0
H435 H 0.57673 0.91279 0.53837 0.0
H436 H 0.63101 0.98565 0.61911 0.0
H437 H 0.59144 0.86497 0.5206 0.0
H438 H 0.61701 0.85092 0.55229 0.0
H439 H 0.63285 0.87693 0.51688 0.0
H440 H 0.67783 0.93739 0.65409 0.0
H441 H 0.67585 0.97993 0.65047 0.0
H442 H 0.69888 0.9631 0.6213 0.0
C443 C 0.33463 0.23755 0.45526 0.0
C444 C 0.35537 0.26255 0.43765 0.0
C445 C 0.34308 0.20919 0.46695 0.0
C446 C 0.37236 0.20508 0.45917 0.0
C447 C 0.39299 0.22993 0.4405 0.0
C448 C 0.38449 0.25871 0.43065 0.0
C449 C 0.32058 0.18387 0.48756 0.0
C450 C 0.42399 0.22604 0.4307 0.0
C451 C 0.41375 0.15044 0.51095 0.0
C452 C 0.40572 0.121 0.48876 0.0
C453 C 0.40132 0.17712 0.50295 0.0
C454 C 0.38187 0.17514 0.47077 0.0
C455 C 0.37338 0.14533 0.44844 0.0
C456 C 0.38492 0.11835 0.45811 0.0
C457 C 0.41007 0.20779 0.52846 0.0
C458 C 0.35328 0.1425 0.41351 0.0
H459 H 0.31213 0.24064 0.46084 0.0
H460 H 0.40041 0.27797 0.41678 0.0
H461 H 0.306 0.16381 0.46839 0.0
H462 H 0.33287 0.172 0.50791 0.0
H463 H 0.30478 0.19557 0.50152 0.0
H464 H 0.43609 0.2462 0.41349 0.0
H465 H 0.4393 0.22657 0.45561 0.0
H466 H 0.42066 0.20145 0.41612 0.0
H467 H 0.43002 0.15292 0.53445 0.0
H468 H 0.37884 0.09576 0.44065 0.0
H469 H 0.3909 0.21986 0.52912 0.0
H470 H 0.43071 0.22631 0.51932 0.0
H471 H 0.41618 0.20144 0.55637 0.0
H472 H 0.33043 0.1462 0.41897 0.0
H473 H 0.34921 0.11778 0.39889 0.0
H474 H 0.36452 0.16247 0.39562 0.0
C475 C 0.80322 0.37744 0.37965 0.0
C476 C 0.78833 0.39043 0.35137 0.0
C477 C 0.82827 0.39807 0.4017 0.0
C478 C 0.83895 0.43259 0.39526 0.0
C479 C 0.82487 0.44569 0.36595 0.0
C480 C 0.79965 0.42447 0.3444 0.0
C481 C 0.84252 0.38314 0.43278 0.0
C482 C 0.83581 0.48234 0.35807 0.0
C483 C 0.87744 0.49155 0.47555 0.0
C484 C 0.90918 0.49735 0.47051 0.0
C485 C 0.85445 0.47063 0.45121 0.0
C486 C 0.86332 0.45528 0.42081 0.0
C487 C 0.89531 0.46095 0.41551 0.0
C488 C 0.91789 0.4818 0.44054 0.0
C489 C 0.82061 0.4649 0.45811 0.0
C490 C 0.90564 0.44517 0.3833 0.0
H491 H 0.79479 0.35117 0.38528 0.0
H492 H 0.78842 0.43474 0.32256 0.0
H493 H 0.86811 0.38909 0.43161 0.0
H494 H 0.83825 0.39429 0.45873 0.0
H495 H 0.8328 0.35548 0.43282 0.0
H496 H 0.82416 0.48806 0.33264 0.0
H497 H 0.83095 0.49774 0.38062 0.0
H498 H 0.86135 0.49005 0.35604 0.0
H499 H 0.87046 0.50337 0.49866 0.0
H500 H 0.94235 0.4863 0.43631 0.0
H501 H 0.80954 0.43776 0.46073 0.0
H502 H 0.80795 0.47297 0.43492 0.0
H503 H 0.81761 0.47872 0.48302 0.0
H504 H 0.89712 0.41745 0.38359 0.0
H505 H 0.93138 0.45246 0.38277 0.0
H506 H 0.89537 0.45269 0.35797 0.0
C507 C 0.69432 0.88227 0.38693 0.0
C508 C 0.68522 0.87999 0.34982 0.0
C509 C 0.67971 0.89786 0.41164 0.0
C510 C 0.65547 0.91148 0.39894 0.0
C511 C 0.64729 0.91069 0.36137 0.0
C512 C 0.6623 0.89505 0.3373 0.0
C513 C 0.68957 0.89893 0.45138 0.0
C514 C 0.62156 0.92487 0.34664 0.0
C515 C 0.58873 0.91271 0.45555 0.0
C516 C 0.59488 0.94692 0.46521 0.0
C517 C 0.60917 0.90071 0.43563 0.0
C518 C 0.63639 0.92348 0.42472 0.0
C519 C 0.64355 0.95785 0.43584 0.0
C520 C 0.62271 0.96918 0.45607 0.0
C521 C 0.60092 0.86375 0.425 0.0
C522 C 0.67245 0.98288 0.42499 0.0
H523 H 0.71222 0.87099 0.39683 0.0
H524 H 0.65523 0.89365 0.30867 0.0
H525 H 0.69716 0.92535 0.46205 0.0
H526 H 0.66958 0.8856 0.46628 0.0
H527 H 0.70895 0.88745 0.45696 0.0
H528 H 0.61966 0.92461 0.31666 0.0
H529 H 0.59897 0.90992 0.35554 0.0
H530 H 0.62553 0.95102 0.35737 0.0
H531 H 0.56756 0.89521 0.46304 0.0
H532 H 0.62775 0.99562 0.46368 0.0
H533 H 0.62072 0.85356 0.43286 0.0
H534 H 0.59623 0.86002 0.39523 0.0
H535 H 0.58007 0.84907 0.43775 0.0
H536 H 0.69315 0.97351 0.43032 0.0
H537 H 0.67671 1.00767 0.43952 0.0
H538 H 0.66994 0.98636 0.39555 0.0
C539 C 0.1903 0.68916 0.42162 0.0
C540 C 0.18684 0.7117 0.39532 0.0
C541 C 0.16425 0.66596 0.43366 0.0
C542 C 0.13402 0.66536 0.41911 0.0
C543 C 0.13033 0.68862 0.3933 0.0
C544 C 0.15678 0.71149 0.38167 0.0
C545 C 0.1691 0.64161 0.4614 0.0
C546 C 0.09845 0.68893 0.37747 0.0
C547 C 0.07151 0.58302 0.42401 0.0
C548 C 0.05731 0.58895 0.45503 0.0
C549 C 0.09591 0.60805 0.41139 0.0
C550 C 0.10638 0.63974 0.43026 0.0
C551 C 0.09132 0.64637 0.46066 0.0
C552 C 0.06692 0.62095 0.47261 0.0
C553 C 0.11133 0.60011 0.37874 0.0
C554 C 0.10186 0.6798 0.48157 0.0
H555 H 0.21342 0.68918 0.43236 0.0
H556 H 0.15386 0.72891 0.36147 0.0
H557 H 0.15597 0.6437 0.48516 0.0
H558 H 0.15996 0.61555 0.44975 0.0
H559 H 0.19404 0.64596 0.47076 0.0
H560 H 0.09949 0.70949 0.35872 0.0
H561 H 0.08686 0.66469 0.36254 0.0
H562 H 0.08366 0.69179 0.39938 0.0
H563 H 0.06428 0.55845 0.41021 0.0
H564 H 0.05625 0.62586 0.4967 0.0
H565 H 0.13583 0.60083 0.38682 0.0
H566 H 0.11186 0.61926 0.35842 0.0
H567 H 0.09924 0.57501 0.36585 0.0
H568 H 0.12553 0.68321 0.49494 0.0
H569 H 0.08601 0.68193 0.50262 0.0
H570 H 0.1033 0.70056 0.46306 0.0
C571 C 0.36868 0.86676 0.72508 0.0
C572 C 0.37597 0.83606 0.72704 0.0
C573 C 0.38672 0.89323 0.70649 0.0
C574 C 0.41237 0.88872 0.68889 0.0
C575 C 0.42022 0.85803 0.69135 0.0
C576 C 0.4021 0.83219 0.71067 0.0
C577 C 0.37801 0.92581 0.70515 0.0
C578 C 0.44721 0.85212 0.67263 0.0
C579 C 0.44004 0.94114 0.60913 0.0
C580 C 0.46784 0.96346 0.62432 0.0
C581 C 0.42145 0.91704 0.63 0.0
C582 C 0.43058 0.9157 0.6671 0.0
C583 C 0.45785 0.93924 0.68294 0.0
C584 C 0.47632 0.9626 0.66128 0.0
C585 C 0.39276 0.8921 0.61198 0.0
C586 C 0.468 0.93915 0.72254 0.0
H587 H 0.34861 0.87002 0.73782 0.0
H588 H 0.40778 0.8085 0.71186 0.0
H589 H 0.39844 0.9471 0.71445 0.0
H590 H 0.37088 0.93008 0.6769 0.0
H591 H 0.35863 0.92604 0.72211 0.0
H592 H 0.45051 0.82703 0.67755 0.0
H593 H 0.44327 0.85425 0.64308 0.0
H594 H 0.46904 0.87152 0.68204 0.0
H595 H 0.43351 0.94148 0.58051 0.0
H596 H 0.4977 0.97995 0.6732 0.0
H597 H 0.37204 0.89255 0.62641 0.0
H598 H 0.39548 0.86641 0.61333 0.0
H599 H 0.38831 0.8972 0.5832 0.0
H600 H 0.44854 0.93973 0.73919 0.0
H601 H 0.48829 0.96083 0.7313 0.0
H602 H 0.47442 0.91573 0.72808 0.0
C603 C 0.19101 0.37659 0.6351 0.0
C604 C 0.18601 0.35655 0.66505 0.0
C605 C 0.16763 0.38973 0.61987 0.0
C606 C 0.13843 0.38248 0.63475 0.0
C607 C 0.13246 0.36033 0.66329 0.0
C608 C 0.15636 0.34767 0.67818 0.0
C609 C 0.17507 0.41343 0.58963 0.0
C610 C 0.10156 0.35184 0.6797 0.0
C611 C 0.10157 0.45392 0.62797 0.0
C612 C 0.0796 0.44311 0.59835 0.0
C613 C 0.11964 0.43357 0.64117 0.0
C614 C 0.11614 0.40183 0.62378 0.0
C615 C 0.09334 0.39033 0.59437 0.0
C616 C 0.07494 0.41102 0.58227 0.0
C617 C 0.14348 0.44676 0.67275 0.0
C618 C 0.08914 0.3568 0.57495 0.0
H619 H 0.21373 0.38345 0.62455 0.0
H620 H 0.15217 0.33195 0.70111 0.0
H621 H 0.15518 0.40851 0.5688 0.0
H622 H 0.17937 0.43957 0.60057 0.0
H623 H 0.1961 0.4115 0.57659 0.0
H624 H 0.09916 0.33101 0.69834 0.0
H625 H 0.09927 0.37422 0.69505 0.0
H626 H 0.08209 0.34475 0.65826 0.0
H627 H 0.1051 0.47875 0.64043 0.0
H628 H 0.05814 0.40285 0.55909 0.0
H629 H 0.16726 0.45097 0.6637 0.0
H630 H 0.14078 0.42813 0.69394 0.0
H631 H 0.14152 0.47074 0.68496 0.0
H632 H 0.1119 0.35406 0.56759 0.0
H633 H 0.07313 0.35332 0.55004 0.0
H634 H 0.07953 0.33647 0.59317 0.0
C635 C 0.6462 0.19891 0.72174 0.0
C636 C 0.66978 0.22482 0.70909 0.0
C637 C 0.62377 0.17689 0.69771 0.0
C638 C 0.62519 0.18053 0.66007 0.0
C639 C 0.64967 0.2057 0.64703 0.0
C640 C 0.67158 0.22773 0.67173 0.0
C641 C 0.59786 0.15053 0.71269 0.0
C642 C 0.65223 0.20991 0.60705 0.0
C643 C 0.57642 0.10541 0.60179 0.0
C644 C 0.54947 0.11528 0.59261 0.0
C645 C 0.60192 0.12703 0.62235 0.0
C646 C 0.60008 0.15893 0.63465 0.0
C647 C 0.57321 0.16931 0.62469 0.0
C648 C 0.54834 0.14746 0.60344 0.0
C649 C 0.63044 0.11538 0.63173 0.0
C650 C 0.57018 0.20294 0.63771 0.0
H651 H 0.64458 0.19647 0.75055 0.0
H652 H 0.68983 0.24757 0.66175 0.0
H653 H 0.57512 0.15509 0.7046 0.0
H654 H 0.59706 0.1253 0.70135 0.0
H655 H 0.6006 0.1504 0.74263 0.0
H656 H 0.67405 0.2288 0.60128 0.0
H657 H 0.6514 0.18564 0.59317 0.0
H658 H 0.63216 0.21794 0.59526 0.0
H659 H 0.57751 0.08066 0.59309 0.0
H660 H 0.52751 0.15513 0.59647 0.0
H661 H 0.63285 0.11208 0.66121 0.0
H662 H 0.6517 0.13455 0.62499 0.0
H663 H 0.62934 0.09125 0.61728 0.0
H664 H 0.5705 0.20407 0.66762 0.0
H665 H 0.54833 0.20778 0.62632 0.0
H666 H 0.59022 0.22334 0.63028 0.0
C667 C 0.81767 0.71954 0.64746 0.0
C668 C 0.81348 0.74325 0.62299 0.0
C669 C 0.83325 0.69585 0.63821 0.0
C670 C 0.84515 0.69625 0.60388 0.0
C671 C 0.8388 0.71842 0.57817 0.0
C672 C 0.82328 0.74189 0.58815 0.0
C673 C 0.83902 0.67211 0.66614 0.0
C674 C 0.85048 0.71959 0.54105 0.0
C675 C 0.92166 0.67452 0.6017 0.0
C676 C 0.91219 0.64196 0.58583 0.0
C677 C 0.90002 0.69248 0.60727 0.0
C678 C 0.86806 0.67738 0.59704 0.0
C679 C 0.85835 0.64475 0.58037 0.0
C680 C 0.88058 0.6274 0.57487 0.0
C681 C 0.9114 0.7277 0.62408 0.0
C682 C 0.82458 0.62829 0.56831 0.0
H683 H 0.81089 0.72097 0.67471 0.0
H684 H 0.81996 0.76013 0.56908 0.0
H685 H 0.83421 0.64635 0.65387 0.0
H686 H 0.86386 0.68018 0.6767 0.0
H687 H 0.82442 0.67146 0.68921 0.0
H688 H 0.87321 0.73901 0.54172 0.0
H689 H 0.8538 0.69538 0.53155 0.0
H690 H 0.83398 0.72661 0.52118 0.0
H691 H 0.94607 0.68608 0.60985 0.0
H692 H 0.87312 0.60231 0.56232 0.0
H693 H 0.90032 0.72925 0.6496 0.0
H694 H 0.90464 0.74546 0.60559 0.0
H695 H 0.93708 0.73594 0.63005 0.0
H696 H 0.81016 0.62704 0.59159 0.0
H697 H 0.82076 0.60255 0.55628 0.0
H698 H 0.81624 0.64356 0.54797 0.0
C699 C 0.34162 0.43084 0.28148 0.0
C700 C 0.35121 0.40492 0.29793 0.0
C701 C 0.35435 0.44465 0.25008 0.0
C702 C 0.37714 0.43218 0.23462 0.0
C703 C 0.38676 0.40587 0.25086 0.0
C704 C 0.37372 0.39258 0.28235 0.0
C705 C 0.34358 0.47275 0.23358 0.0
C706 C 0.41098 0.39187 0.23505 0.0
C707 C 0.39243 0.4454 0.13618 0.0
C708 C 0.42026 0.47144 0.13911 0.0
C709 C 0.37772 0.43289 0.16702 0.0
C710 C 0.39116 0.44678 0.20159 0.0
C711 C 0.41858 0.47391 0.20465 0.0
C712 C 0.43279 0.48594 0.17338 0.0
C713 C 0.34833 0.40414 0.16266 0.0
C714 C 0.43348 0.48956 0.24105 0.0
H715 H 0.32428 0.44062 0.29331 0.0
H716 H 0.38124 0.37257 0.29481 0.0
H717 H 0.36361 0.49539 0.23292 0.0
H718 H 0.33401 0.46548 0.20525 0.0
H719 H 0.32546 0.47941 0.24876 0.0
H720 H 0.41568 0.37117 0.25071 0.0
H721 H 0.40318 0.38234 0.20678 0.0
H722 H 0.4331 0.41201 0.23439 0.0
H723 H 0.38249 0.43413 0.10981 0.0
H724 H 0.45418 0.5062 0.17592 0.0
H725 H 0.32959 0.41064 0.17671 0.0
H726 H 0.35261 0.38178 0.17532 0.0
H727 H 0.33996 0.39735 0.13386 0.0
H728 H 0.41626 0.49756 0.25653 0.0
H729 H 0.45382 0.51163 0.23868 0.0
H730 H 0.44133 0.47076 0.25692 0.0
C731 C 0.39698 0.65784 0.83395 0.0
C732 C 0.38582 0.6834 0.84852 0.0
C733 C 0.41532 0.64213 0.85546 0.0
C734 C 0.42273 0.65215 0.89252 0.0
C735 C 0.41092 0.67735 0.90762 0.0
C736 C 0.39265 0.6927 0.88545 0.0
C737 C 0.42747 0.61539 0.83828 0.0
C738 C 0.41821 0.68869 0.947 0.0
C739 C 0.45489 0.59427 0.95228 0.0
C740 C 0.48712 0.60905 0.9526 0.0
C741 C 0.43354 0.60838 0.93355 0.0
C742 C 0.44466 0.63794 0.91468 0.0
C743 C 0.47708 0.65342 0.91574 0.0
C744 C 0.49783 0.63886 0.93465 0.0
C745 C 0.39913 0.5912 0.93319 0.0
C746 C 0.48997 0.68498 0.89608 0.0
H747 H 0.39174 0.65036 0.80552 0.0
H748 H 0.38402 0.71229 0.89703 0.0
H749 H 0.45326 0.62403 0.83934 0.0
H750 H 0.42114 0.59221 0.85349 0.0
H751 H 0.41822 0.60915 0.80964 0.0
H752 H 0.40555 0.7069 0.95516 0.0
H753 H 0.41205 0.66682 0.96421 0.0
H754 H 0.44358 0.70066 0.95245 0.0
H755 H 0.44631 0.57126 0.96601 0.0
H756 H 0.52263 0.65069 0.93478 0.0
H757 H 0.38965 0.58188 0.90527 0.0
H758 H 0.38657 0.60927 0.9419 0.0
H759 H 0.39414 0.56971 0.95107 0.0
H760 H 0.4837 0.67998 0.86664 0.0
H761 H 0.51571 0.6946 0.90068 0.0
H762 H 0.47954 0.70487 0.90498 0.0
C763 C 0.3687 0.35941 0.82607 0.0
C764 C 0.34222 0.37 0.81637 0.0
C765 C 0.39358 0.37976 0.84877 0.0
C766 C 0.39202 0.41151 0.862 0.0
C767 C 0.36531 0.42226 0.85252 0.0
C768 C 0.34075 0.40139 0.82991 0.0
C769 C 0.42165 0.36738 0.85839 0.0
C770 C 0.36279 0.45599 0.86596 0.0
C771 C 0.44471 0.45348 0.9448 0.0
C772 C 0.46906 0.47618 0.92916 0.0
C773 C 0.41953 0.43224 0.92329 0.0
C774 C 0.41857 0.43381 0.88523 0.0
C775 C 0.4429 0.45686 0.8693 0.0
C776 C 0.46784 0.47771 0.89142 0.0
C777 C 0.39404 0.40799 0.9413 0.0
C778 C 0.44262 0.45947 0.82883 0.0
H779 H 0.37007 0.33521 0.81585 0.0
H780 H 0.32044 0.40988 0.82262 0.0
H781 H 0.44273 0.38471 0.84863 0.0
H782 H 0.42567 0.36707 0.88816 0.0
H783 H 0.41899 0.3418 0.84654 0.0
H784 H 0.34025 0.46044 0.85655 0.0
H785 H 0.36526 0.45791 0.89592 0.0
H786 H 0.38196 0.47625 0.8565 0.0
H787 H 0.4454 0.45207 0.97392 0.0
H788 H 0.48646 0.49518 0.87903 0.0
H789 H 0.39212 0.38193 0.93164 0.0
H790 H 0.37131 0.41283 0.93389 0.0
H791 H 0.39824 0.40986 0.9712 0.0
H792 H 0.44212 0.43496 0.81579 0.0
H793 H 0.46324 0.47879 0.82069 0.0
H794 H 0.42128 0.46581 0.81827 0.0
C795 C 0.71575 0.41812 0.84434 0.0
C796 C 0.7076 0.38474 0.85459 0.0
C797 C 0.70175 0.44148 0.85872 0.0
C798 C 0.67901 0.43107 0.88372 0.0
C799 C 0.67216 0.39803 0.89582 0.0
C800 C 0.68661 0.37532 0.88121 0.0
C801 C 0.70999 0.47668 0.84562 0.0
C802 C 0.64804 0.38597 0.92249 0.0
C803 C 0.64657 0.49015 0.93865 0.0
C804 C 0.61792 0.48693 0.91899 0.0
C805 C 0.66766 0.47355 0.92654 0.0
C806 C 0.65971 0.45314 0.89422 0.0
C807 C 0.63156 0.45126 0.87336 0.0
C808 C 0.61109 0.46828 0.88594 0.0
C809 C 0.69774 0.47665 0.94911 0.0
C810 C 0.62225 0.42986 0.83865 0.0
H811 H 0.73212 0.42573 0.82398 0.0
H812 H 0.68034 0.3497 0.88956 0.0
H813 H 0.69041 0.47992 0.82745 0.0
H814 H 0.71373 0.49534 0.86863 0.0
H815 H 0.73122 0.48225 0.83055 0.0
H816 H 0.6473 0.36048 0.93139 0.0
H817 H 0.65283 0.40347 0.94664 0.0
H818 H 0.62468 0.38536 0.90989 0.0
H819 H 0.65219 0.50485 0.96403 0.0
H820 H 0.58919 0.46602 0.87031 0.0
H821 H 0.7176 0.48168 0.9319 0.0
H822 H 0.6966 0.45266 0.96206 0.0
H823 H 0.70242 0.49694 0.97063 0.0
H824 H 0.64115 0.43631 0.82016 0.0
H825 H 0.60061 0.43289 0.82445 0.0
H826 H 0.6184 0.40307 0.8446 0.0
C827 C 0.68799 0.65453 0.76652 0.0
C828 C 0.71566 0.64657 0.76009 0.0
C829 C 0.66978 0.63976 0.79398 0.0
C830 C 0.67933 0.61628 0.81552 0.0
C831 C 0.70631 0.60673 0.80801 0.0
C832 C 0.72426 0.62211 0.78041 0.0
C833 C 0.64104 0.65049 0.80097 0.0
C834 C 0.71687 0.58133 0.83005 0.0
C835 C 0.65184 0.61553 0.9095 0.0
C836 C 0.62435 0.58908 0.90576 0.0
C837 C 0.67087 0.62348 0.88085 0.0
C838 C 0.6624 0.60431 0.84774 0.0
C839 C 0.63581 0.5762 0.84456 0.0
C840 C 0.61693 0.56909 0.87352 0.0
C841 C 0.69912 0.65361 0.88539 0.0
C842 C 0.62634 0.55468 0.80999 0.0
H843 H 0.68095 0.67315 0.75077 0.0
H844 H 0.74547 0.6156 0.77545 0.0
H845 H 0.62057 0.62823 0.80115 0.0
H846 H 0.64432 0.66369 0.82796 0.0
H847 H 0.63578 0.66747 0.78041 0.0
H848 H 0.73589 0.57348 0.81796 0.0
H849 H 0.7254 0.59226 0.8577 0.0
H850 H 0.69714 0.55876 0.8327 0.0
H851 H 0.65793 0.63095 0.93439 0.0
H852 H 0.5959 0.54838 0.87047 0.0
H853 H 0.69536 0.67349 0.86777 0.0
H854 H 0.71996 0.64687 0.87697 0.0
H855 H 0.70401 0.6641 0.91371 0.0
H856 H 0.61614 0.56837 0.78952 0.0
H857 H 0.60879 0.53058 0.81404 0.0
H858 H 0.64684 0.54922 0.79887 0.0
C859 C 0.69097 0.6861 0.21077 0.0
C860 C 0.68401 0.71554 0.22213 0.0
C861 C 0.66933 0.66132 0.18841 0.0
C862 C 0.64011 0.66616 0.17708 0.0
C863 C 0.63305 0.69587 0.18826 0.0
C864 C 0.65502 0.72013 0.21063 0.0
C865 C 0.67762 0.62989 0.17706 0.0
C866 C 0.60216 0.70201 0.17674 0.0
C867 C 0.59098 0.61894 0.09451 0.0
C868 C 0.56781 0.5949 0.11035 0.0
C869 C 0.61532 0.64156 0.11585 0.0
C870 C 0.61655 0.64009 0.15393 0.0
C871 C 0.59388 0.61514 0.17 0.0
C872 C 0.5698 0.59287 0.14804 0.0
C873 C 0.63911 0.66775 0.0977 0.0
C874 C 0.59443 0.61268 0.21049 0.0
H875 H 0.71328 0.68229 0.21951 0.0
H876 H 0.64937 0.74277 0.21913 0.0
H877 H 0.66073 0.6076 0.18673 0.0
H878 H 0.67609 0.62698 0.14717 0.0
H879 H 0.70144 0.63011 0.1878 0.0
H880 H 0.60045 0.72663 0.18741 0.0
H881 H 0.5987 0.70112 0.14683 0.0
H882 H 0.58288 0.68198 0.18634 0.0
H883 H 0.58978 0.62059 0.06541 0.0
H884 H 0.55214 0.57427 0.16055 0.0
H885 H 0.663 0.66738 0.10729 0.0
H886 H 0.63688 0.69302 0.10499 0.0
H887 H 0.63627 0.66396 0.06781 0.0
H888 H 0.61764 0.61137 0.2217 0.0
H889 H 0.57648 0.5904 0.21859 0.0
H890 H 0.59029 0.63549 0.22295 0.0
C891 C 0.36429 0.70099 0.16777 0.0
C892 C 0.34167 0.69365 0.19281 0.0
C893 C 0.37844 0.67678 0.15621 0.0
C894 C 0.36963 0.6443 0.16981 0.0
C895 C 0.34637 0.63646 0.19454 0.0
C896 C 0.33273 0.6613 0.20588 0.0
C897 C 0.4033 0.6862 0.12993 0.0
C898 C 0.33622 0.60202 0.20935 0.0
C899 C 0.39402 0.5795 0.11385 0.0
C900 C 0.42265 0.58016 0.13218 0.0
C901 C 0.37545 0.59876 0.12697 0.0
C902 C 0.38589 0.61924 0.15902 0.0
C903 C 0.41378 0.61834 0.17878 0.0
C904 C 0.43176 0.59872 0.1652 0.0
C905 C 0.34559 0.59866 0.10544 0.0
C906 C 0.42571 0.63976 0.21311 0.0
H907 H 0.37134 0.72589 0.15753 0.0
H908 H 0.31516 0.65539 0.22512 0.0
H909 H 0.42566 0.6836 0.1425 0.0
H910 H 0.39684 0.66896 0.10553 0.0
H911 H 0.40702 0.71232 0.12138 0.0
H912 H 0.31668 0.59941 0.22687 0.0
H913 H 0.32887 0.58263 0.18688 0.0
H914 H 0.35607 0.59683 0.22536 0.0
H915 H 0.38666 0.56501 0.08848 0.0
H916 H 0.4537 0.59917 0.17974 0.0
H917 H 0.34862 0.62295 0.09247 0.0
H918 H 0.32637 0.59587 0.12338 0.0
H919 H 0.33866 0.5782 0.084 0.0
H920 H 0.43279 0.66658 0.20664 0.0
H921 H 0.44606 0.63368 0.22712 0.0
H922 H 0.4071 0.63652 0.23194 0.0
C923 C 0.62856 0.41363 0.21398 0.0
C924 C 0.64864 0.39625 0.20088 0.0
C925 C 0.61034 0.42767 0.19031 0.0
C926 C 0.612 0.42405 0.15254 0.0
C927 C 0.63267 0.40712 0.13915 0.0
C928 C 0.65081 0.39353 0.16347 0.0
C929 C 0.58883 0.44583 0.20571 0.0
C930 C 0.63501 0.40264 0.09908 0.0
C931 C 0.54019 0.42946 0.09497 0.0
C932 C 0.54922 0.46266 0.08431 0.0
C933 C 0.56079 0.41626 0.11612 0.0
C934 C 0.5911 0.43681 0.1272 0.0
C935 C 0.60072 0.46999 0.11559 0.0
C936 C 0.57973 0.48246 0.09414 0.0
C937 C 0.54972 0.38063 0.12758 0.0
C938 C 0.63275 0.49278 0.12699 0.0
H939 H 0.62682 0.416 0.24282 0.0
H940 H 0.66623 0.38012 0.15309 0.0
H941 H 0.59351 0.47141 0.19544 0.0
H942 H 0.5643 0.43234 0.19681 0.0
H943 H 0.59139 0.44792 0.23571 0.0
H944 H 0.65319 0.39017 0.09306 0.0
H945 H 0.6123 0.3873 0.08608 0.0
H946 H 0.64042 0.4273 0.08659 0.0
H947 H 0.51676 0.41389 0.08737 0.0
H948 H 0.58694 0.5082 0.08622 0.0
H949 H 0.54876 0.38059 0.15733 0.0
H950 H 0.56636 0.36647 0.12056 0.0
H951 H 0.52627 0.36725 0.11472 0.0
H952 H 0.63515 0.49781 0.15669 0.0
H953 H 0.63736 0.51713 0.11378 0.0
H954 H 0.65086 0.48046 0.1204 0.0
loop_
_geom_bond_atom_site_label_1
_geom_bond_atom_site_label_2
_geom_bond_distance
_geom_bond_site_symmetry_2
_ccdc_geom_bond_type
O0 Cd1 2.300 . S
O0 C7 1.275 . S
Cd1 O0 2.300 . S
Cd1 O9 2.381 . S
Cd1 O10 2.378 . S
O2 Cd3 2.385 . S
O2 C7 1.255 . S
Cd3 O2 2.385 . S
Cd3 O4 2.317 . S
O4 Cd3 2.317 . S
O4 C5 1.232 . S
C5 O4 1.232 . S
C5 O6 1.218 . S
O6 C5 1.218 . S
C7 O0 1.275 . S
C7 O2 1.255 . S
C8 O9 1.258 . S
C8 O10 1.256 . S
O9 Cd1 2.381 . S
O9 C8 1.258 . S
O10 Cd1 2.378 . S
O10 C8 1.256 . S
O11 Cd12 2.300 . S
O11 C18 1.275 . S
Cd12 O11 2.300 . S
Cd12 O20 2.381 . S
Cd12 O21 2.378 . S
O13 Cd14 2.385 . S
O13 C18 1.255 . S
Cd14 O13 2.385 . S
Cd14 O15 2.317 . S
O15 Cd14 2.317 . S
O15 C16 1.232 . S
C16 O15 1.232 . S
C16 O17 1.218 . S
O17 C16 1.218 . S
C18 O11 1.275 . S
C18 O13 1.255 . S
C19 O20 1.258 . S
C19 O21 1.256 . S
O20 Cd12 2.381 . S
O20 C19 1.258 . S
O21 Cd12 2.378 . S
O21 C19 1.256 . S
O22 Cd23 2.300 . S
O22 C29 1.275 . S
Cd23 O22 2.300 . S
Cd23 O31 2.381 . S
Cd23 O32 2.378 . S
O24 Cd25 2.385 . S
O24 C29 1.255 . S
Cd25 O24 2.385 . S
Cd25 O26 2.317 . S
O26 Cd25 2.317 . S
O26 C27 1.232 . S
C27 O26 1.232 . S
C27 O28 1.218 . S
O28 C27 1.218 . S
C29 O22 1.275 . S
C29 O24 1.255 . S
C30 O31 1.258 . S
C30 O32 1.256 . S
O31 Cd23 2.381 . S
O31 C30 1.258 . S
O32 Cd23 2.378 . S
O32 C30 1.256 . S
O33 Cd34 2.300 . S
O33 C40 1.275 . S
Cd34 O33 2.300 . S
Cd34 O42 2.381 . S
Cd34 O43 2.378 . S
O35 Cd36 2.385 . S
O35 C40 1.255 . S
Cd36 O35 2.385 . S
Cd36 O37 2.317 . S
O37 Cd36 2.317 . S
O37 C38 1.232 . S
C38 O37 1.232 . S
C38 O39 1.218 . S
O39 C38 1.218 . S
C40 O33 1.275 . S
C40 O35 1.255 . S
C41 O42 1.258 . S
C41 O43 1.256 . S
O42 Cd34 2.381 . S
O42 C41 1.258 . S
O43 Cd34 2.378 . S
O43 C41 1.256 . S
O44 Cd45 2.300 . S
O44 C51 1.275 . S
Cd45 O44 2.300 . S
Cd45 O53 2.381 . S
Cd45 O54 2.378 . S
O46 Cd47 2.385 . S
O46 C51 1.255 . S
Cd47 O46 2.385 . S
Cd47 O48 2.317 . S
O48 Cd47 2.317 . S
O48 C49 1.232 . S
C49 O48 1.232 . S
C49 O50 1.218 . S
O50 C49 1.218 . S
C51 O44 1.275 . S
C51 O46 1.255 . S
C52 O53 1.258 . S
C52 O54 1.256 . S
O53 Cd45 2.381 . S
O53 C52 1.258 . S
O54 Cd45 2.378 . S
O54 C52 1.256 . S
O55 Cd56 2.300 . S
O55 C62 1.275 . S
Cd56 O55 2.300 . S
Cd56 O64 2.381 . S
Cd56 O65 2.378 . S
O57 Cd58 2.385 . S
O57 C62 1.255 . S
Cd58 O57 2.385 . S
Cd58 O59 2.317 . S
O59 Cd58 2.317 . S
O59 C60 1.232 . S
C60 O59 1.232 . S
C60 O61 1.218 . S
O61 C60 1.218 . S
C62 O55 1.275 . S
C62 O57 1.255 . S
C63 O64 1.258 . S
C63 O65 1.256 . S
O64 Cd56 2.381 . S
O64 C63 1.258 . S
O65 Cd56 2.378 . S
O65 C63 1.256 . S
O66 Cd67 2.300 . S
O66 C73 1.275 . S
Cd67 O66 2.300 . S
Cd67 O75 2.381 . S
Cd67 O76 2.378 . S
O68 Cd69 2.385 . S
O68 C73 1.255 . S
Cd69 O68 2.385 . S
Cd69 O70 2.317 . S
O70 Cd69 2.317 . S
O70 C71 1.232 . S
C71 O70 1.232 . S
C71 O72 1.218 . S
O72 C71 1.218 . S
C73 O66 1.275 . S
C73 O68 1.255 . S
C74 O75 1.258 . S
C74 O76 1.256 . S
O75 Cd67 2.381 . S
O75 C74 1.258 . S
O76 Cd67 2.378 . S
O76 C74 1.256 . S
O77 Cd78 2.300 . S
O77 C84 1.275 . S
Cd78 O77 2.300 . S
Cd78 O86 2.381 . S
Cd78 O87 2.378 . S
O79 Cd80 2.385 . S
O79 C84 1.255 . S
Cd80 O79 2.385 . S
Cd80 O81 2.317 . S
O81 Cd80 2.317 . S
O81 C82 1.232 . S
C82 O81 1.232 . S
C82 O83 1.218 . S
O83 C82 1.218 . S
C84 O77 1.275 . S
C84 O79 1.255 . S
C85 O86 1.258 . S
C85 O87 1.256 . S
O86 Cd78 2.381 . S
O86 C85 1.258 . S
O87 Cd78 2.378 . S
O87 C85 1.256 . S
Co88 O91 2.042 . S
Co88 O98 2.264 . S
Co88 O117 2.286 . S
Co88 O118 2.069 . S
Co88 O120 2.015 . S
Co89 O91 2.122 . S
Co89 O97 2.073 . S
Co89 O98 2.327 . S
Co89 O99 1.976 . S
Co90 O91 2.087 . S
Co90 O93 2.087 1_455 S
Co90 O100 2.111 . S
Co90 O101 2.143 1_455 S
Co90 O105 2.111 1_455 S
Co90 O119 2.143 . S
O91 Co88 2.042 . S
O91 Co89 2.122 . S
O91 Co90 2.087 . S
O91 H92 0.980 . S
H92 O91 0.980 . S
O93 Co90 2.087 1_655 S
O93 Co94 2.042 . S
O93 Co95 2.122 . S
O93 H96 0.980 1_655 S
Co94 O93 2.042 . S
Co94 O102 2.286 . S
Co94 O103 2.069 . S
Co94 O104 2.015 . S
Co94 O107 2.264 . S
Co95 O93 2.122 . S
Co95 O106 1.976 . S
Co95 O107 2.327 . S
Co95 O108 2.073 . S
H96 O93 0.980 1_455 S
O97 Co89 2.073 . S
O97 C112 1.245 . S
O98 Co88 2.264 . S
O98 Co89 2.327 . S
O98 C112 1.257 . S
O99 Co89 1.976 . S
O99 C111 1.251 . S
O100 Co90 2.111 . S
O100 C111 1.274 . S
O101 Co90 2.143 1_655 S
O101 C114 1.246 . S
O102 Co94 2.286 . S
O102 C113 1.259 . S
O103 Co94 2.069 . S
O103 C113 1.289 . S
O104 Co94 2.015 . S
O104 C114 1.257 . S
O105 Co90 2.111 1_655 S
O105 C115 1.274 . S
O106 Co95 1.976 . S
O106 C115 1.251 . S
O107 Co94 2.264 . S
O107 Co95 2.327 . S
O107 C116 1.257 . S
O108 Co95 2.073 . S
O108 C116 1.245 . S
C109 O117 1.259 . S
C109 O118 1.289 . S
C110 O119 1.246 . S
C110 O120 1.257 . S
C111 O99 1.251 . S
C111 O100 1.274 . S
C112 O97 1.245 . S
C112 O98 1.257 . S
C113 O102 1.259 . S
C113 O103 1.289 . S
C114 O101 1.246 . S
C114 O104 1.257 . S
C115 O105 1.274 . S
C115 O106 1.251 . S
C116 O107 1.257 . S
C116 O108 1.245 . S
O117 Co88 2.286 . S
O117 C109 1.259 . S
O118 Co88 2.069 . S
O118 C109 1.289 . S
O119 Co90 2.143 . S
O119 C110 1.246 . S
O120 Co88 2.015 . S
O120 C110 1.257 . S
Co121 O124 2.042 . S
Co121 O131 2.264 . S
Co121 O150 2.286 . S
Co121 O151 2.069 . S
Co121 O153 2.015 . S
Co122 O124 2.122 . S
Co122 O130 2.073 . S
Co122 O131 2.327 . S
Co122 O132 1.976 . S
Co123 O124 2.087 1_545 S
Co123 O126 2.087 . S
Co123 O133 2.111 1_545 S
Co123 O134 2.143 . S
Co123 O138 2.111 . S
Co123 O152 2.143 1_545 S
O124 Co121 2.042 . S
O124 Co122 2.122 . S
O124 Co123 2.087 1_565 S
O124 H125 0.980 1_565 S
H125 O124 0.980 1_545 S
O126 Co123 2.087 . S
O126 Co127 2.042 . S
O126 Co128 2.122 . S
O126 H129 0.980 . S
Co127 O126 2.042 . S
Co127 O135 2.286 . S
Co127 O136 2.069 . S
Co127 O137 2.015 . S
Co127 O140 2.264 . S
Co128 O126 2.122 . S
Co128 O139 1.976 . S
Co128 O140 2.327 . S
Co128 O141 2.073 . S
H129 O126 0.980 . S
O130 Co122 2.073 . S
O130 C145 1.245 . S
O131 Co121 2.264 . S
O131 Co122 2.327 . S
O131 C145 1.257 . S
O132 Co122 1.976 . S
O132 C144 1.251 . S
O133 Co123 2.111 1_565 S
O133 C144 1.274 . S
O134 Co123 2.143 . S
O134 C147 1.246 . S
O135 Co127 2.286 . S
O135 C146 1.259 . S
O136 Co127 2.069 . S
O136 C146 1.289 . S
O137 Co127 2.015 . S
O137 C147 1.257 . S
O138 Co123 2.111 . S
O138 C148 1.274 . S
O139 Co128 1.976 . S
O139 C148 1.251 . S
O140 Co127 2.264 . S
O140 Co128 2.327 . S
O140 C149 1.257 . S
O141 Co128 2.073 . S
O141 C149 1.245 . S
C142 O150 1.259 . S
C142 O151 1.289 . S
C143 O152 1.246 . S
C143 O153 1.257 . S
C144 O132 1.251 . S
C144 O133 1.274 . S
C145 O130 1.245 . S
C145 O131 1.257 . S
C146 O135 1.259 . S
C146 O136 1.289 . S
C147 O134 1.246 . S
C147 O137 1.257 . S
C148 O138 1.274 . S
C148 O139 1.251 . S
C149 O140 1.257 . S
C149 O141 1.245 . S
O150 Co121 2.286 . S
O150 C142 1.259 . S
O151 Co121 2.069 . S
O151 C142 1.289 . S
O152 Co123 2.143 1_565 S
O152 C143 1.246 . S
O153 Co121 2.015 . S
O153 C143 1.257 . S
Co154 O157 2.042 . S
Co154 O164 2.264 . S
Co154 O183 2.286 . S
Co154 O184 2.069 . S
Co154 O186 2.015 . S
Co155 O157 2.122 . S
Co155 O163 2.073 . S
Co155 O164 2.327 . S
Co155 O165 1.976 . S
Co156 O157 2.087 . S
Co156 O159 2.087 1_554 S
Co156 O166 2.111 . S
Co156 O167 2.143 1_554 S
Co156 O171 2.111 1_554 S
Co156 O185 2.143 . S
O157 Co154 2.042 . S
O157 Co155 2.122 . S
O157 Co156 2.087 . S
O157 H158 0.980 . S
H158 O157 0.980 . S
O159 Co156 2.087 1_556 S
O159 Co160 2.042 . S
O159 Co161 2.122 . S
O159 H162 0.980 . S
Co160 O159 2.042 . S
Co160 O168 2.286 . S
Co160 O169 2.069 . S
Co160 O170 2.015 . S
Co160 O173 2.264 . S
Co161 O159 2.122 . S
Co161 O172 1.976 . S
Co161 O173 2.327 . S
Co161 O174 2.073 . S
H162 O159 0.980 . S
O163 Co155 2.073 . S
O163 C178 1.245 . S
O164 Co154 2.264 . S
O164 Co155 2.327 . S
O164 C178 1.257 . S
O165 Co155 1.976 . S
O165 C177 1.251 . S
O166 Co156 2.111 . S
O166 C177 1.274 . S
O167 Co156 2.143 1_556 S
O167 C180 1.246 . S
O168 Co160 2.286 . S
O168 C179 1.259 . S
O169 Co160 2.069 . S
O169 C179 1.289 . S
O170 Co160 2.015 . S
O170 C180 1.257 . S
O171 Co156 2.111 1_556 S
O171 C181 1.274 . S
O172 Co161 1.976 . S
O172 C181 1.251 . S
O173 Co160 2.264 . S
O173 Co161 2.327 . S
O173 C182 1.257 . S
O174 Co161 2.073 . S
O174 C182 1.245 . S
C175 O183 1.259 . S
C175 O184 1.289 . S
C176 O185 1.246 . S
C176 O186 1.257 . S
C177 O165 1.251 . S
C177 O166 1.274 . S
C178 O163 1.245 . S
C178 O164 1.257 . S
C179 O168 1.259 . S
C179 O169 1.289 . S
C180 O167 1.246 . S
C180 O170 1.257 . S
C181 O171 1.274 . S
C181 O172 1.251 . S
C182 O173 1.257 . S
C182 O174 1.245 . S
O183 Co154 2.286 . S
O183 C175 1.259 . S
O184 Co154 2.069 . S
O184 C175 1.289 . S
O185 Co156 2.143 . S
O185 C176 1.246 . S
O186 Co154 2.015 . S
O186 C176 1.257 . S
C187 C188 1.391 . S
C187 C189 1.394 . S
C187 H203 0.931 . S
C188 C187 1.391 . S
C188 C192 1.376 . S
C189 C187 1.394 . S
C189 C190 1.369 . S
C189 C193 1.531 . S
C190 C189 1.369 . S
C190 C191 1.410 . S
C190 C198 1.503 . S
C191 C190 1.410 . S
C191 C192 1.392 . S
C191 C194 1.511 . S
C192 C188 1.376 . S
C192 C191 1.392 . S
C192 H204 0.929 . S
C193 C189 1.531 . S
C193 H205 0.960 . S
C193 H206 0.962 . S
C193 H207 0.960 . S
C194 C191 1.511 . S
C194 H208 0.961 . S
C194 H209 0.961 . S
C194 H210 0.961 . S
C195 C196 1.370 . S
C195 C197 1.363 . S
C195 H211 0.931 . S
C196 C195 1.370 . S
C196 C200 1.408 . S
C197 C195 1.363 . S
C197 C198 1.370 . S
C197 C201 1.524 . S
C198 C190 1.503 . S
C198 C197 1.370 . S
C198 C199 1.403 . S
C199 C198 1.403 . S
C199 C200 1.404 . S
C199 C202 1.539 . S
C200 C196 1.408 . S
C200 C199 1.404 . S
C200 H212 0.930 . S
C201 C197 1.524 . S
C201 H213 0.956 . S
C201 H214 0.961 . S
C201 H215 0.961 . S
C202 C199 1.539 . S
C202 H216 0.958 . S
C202 H217 0.961 . S
C202 H218 0.960 . S
H203 C187 0.931 . S
H204 C192 0.929 . S
H205 C193 0.960 . S
H206 C193 0.962 . S
H207 C193 0.960 . S
H208 C194 0.961 . S
H209 C194 0.961 . S
H210 C194 0.961 . S
H211 C195 0.931 . S
H212 C200 0.930 . S
H213 C201 0.956 . S
H214 C201 0.961 . S
H215 C201 0.961 . S
H216 C202 0.958 . S
H217 C202 0.961 . S
H218 C202 0.960 . S
C219 C220 1.391 . S
C219 C221 1.394 . S
C219 H235 0.931 . S
C220 C219 1.391 . S
C220 C224 1.376 . S
C221 C219 1.394 . S
C221 C222 1.369 . S
C221 C225 1.531 . S
C222 C221 1.369 . S
C222 C223 1.410 . S
C222 C230 1.503 . S
C223 C222 1.410 . S
C223 C224 1.392 . S
C223 C226 1.511 . S
C224 C220 1.376 . S
C224 C223 1.392 . S
C224 H236 0.929 . S
C225 C221 1.531 . S
C225 H237 0.960 . S
C225 H238 0.962 . S
C225 H239 0.960 . S
C226 C223 1.511 . S
C226 H240 0.961 . S
C226 H241 0.961 . S
C226 H242 0.961 . S
C227 C228 1.370 . S
C227 C229 1.363 . S
C227 H243 0.931 . S
C228 C227 1.370 . S
C228 C232 1.408 . S
C229 C227 1.363 . S
C229 C230 1.370 . S
C229 C233 1.524 . S
C230 C222 1.503 . S
C230 C229 1.370 . S
C230 C231 1.403 . S
C231 C230 1.403 . S
C231 C232 1.404 . S
C231 C234 1.539 . S
C232 C228 1.408 . S
C232 C231 1.404 . S
C232 H244 0.930 . S
C233 C229 1.524 . S
C233 H245 0.956 . S
C233 H246 0.961 . S
C233 H247 0.961 . S
C234 C231 1.539 . S
C234 H248 0.958 . S
C234 H249 0.961 . S
C234 H250 0.960 . S
H235 C219 0.931 . S
H236 C224 0.929 . S
H237 C225 0.960 . S
H238 C225 0.962 . S
H239 C225 0.960 . S
H240 C226 0.961 . S
H241 C226 0.961 . S
H242 C226 0.961 . S
H243 C227 0.931 . S
H244 C232 0.930 . S
H245 C233 0.956 . S
H246 C233 0.961 . S
H247 C233 0.961 . S
H248 C234 0.958 . S
H249 C234 0.961 . S
H250 C234 0.960 . S
C251 C252 1.391 . S
C251 C253 1.394 . S
C251 H267 0.931 . S
C252 C251 1.391 . S
C252 C256 1.376 . S
C253 C251 1.394 . S
C253 C254 1.369 . S
C253 C257 1.531 . S
C254 C253 1.369 . S
C254 C255 1.410 . S
C254 C262 1.503 . S
C255 C254 1.410 . S
C255 C256 1.392 . S
C255 C258 1.511 . S
C256 C252 1.376 . S
C256 C255 1.392 . S
C256 H268 0.929 . S
C257 C253 1.531 . S
C257 H269 0.960 . S
C257 H270 0.962 . S
C257 H271 0.960 . S
C258 C255 1.511 . S
C258 H272 0.961 . S
C258 H273 0.961 . S
C258 H274 0.961 . S
C259 C260 1.370 . S
C259 C261 1.363 . S
C259 H275 0.931 . S
C260 C259 1.370 . S
C260 C264 1.408 . S
C261 C259 1.363 . S
C261 C262 1.370 . S
C261 C265 1.524 . S
C262 C254 1.503 . S
C262 C261 1.370 . S
C262 C263 1.403 . S
C263 C262 1.403 . S
C263 C264 1.404 . S
C263 C266 1.539 . S
C264 C260 1.408 . S
C264 C263 1.404 . S
C264 H276 0.930 . S
C265 C261 1.524 . S
C265 H277 0.956 . S
C265 H278 0.961 . S
C265 H279 0.961 . S
C266 C263 1.539 . S
C266 H280 0.958 . S
C266 H281 0.961 . S
C266 H282 0.960 . S
H267 C251 0.931 . S
H268 C256 0.929 . S
H269 C257 0.960 . S
H270 C257 0.962 . S
H271 C257 0.960 . S
H272 C258 0.961 . S
H273 C258 0.961 . S
H274 C258 0.961 . S
H275 C259 0.931 . S
H276 C264 0.930 . S
H277 C265 0.956 . S
H278 C265 0.961 . S
H279 C265 0.961 . S
H280 C266 0.958 . S
H281 C266 0.961 . S
H282 C266 0.960 . S
C283 C284 1.391 . S
C283 C285 1.394 . S
C283 H299 0.931 . S
C284 C283 1.391 . S
C284 C288 1.376 . S
C285 C283 1.394 . S
C285 C286 1.369 . S
C285 C289 1.531 . S
C286 C285 1.369 . S
C286 C287 1.410 . S
C286 C294 1.503 . S
C287 C286 1.410 . S
C287 C288 1.392 . S
C287 C290 1.511 . S
C288 C284 1.376 . S
C288 C287 1.392 . S
C288 H300 0.929 . S
C289 C285 1.531 . S
C289 H301 0.960 . S
C289 H302 0.962 . S
C289 H303 0.960 . S
C290 C287 1.511 . S
C290 H304 0.961 . S
C290 H305 0.961 . S
C290 H306 0.961 . S
C291 C292 1.370 . S
C291 C293 1.363 . S
C291 H307 0.931 . S
C292 C291 1.370 . S
C292 C296 1.408 . S
C293 C291 1.363 . S
C293 C294 1.370 . S
C293 C297 1.524 . S
C294 C286 1.503 . S
C294 C293 1.370 . S
C294 C295 1.403 . S
C295 C294 1.403 . S
C295 C296 1.404 . S
C295 C298 1.539 . S
C296 C292 1.408 . S
C296 C295 1.404 . S
C296 H308 0.930 . S
C297 C293 1.524 . S
C297 H309 0.956 . S
C297 H310 0.961 . S
C297 H311 0.961 . S
C298 C295 1.539 . S
C298 H312 0.958 . S
C298 H313 0.961 . S
C298 H314 0.960 . S
H299 C283 0.931 . S
H300 C288 0.929 . S
H301 C289 0.960 . S
H302 C289 0.962 . S
H303 C289 0.960 . S
H304 C290 0.961 . S
H305 C290 0.961 . S
H306 C290 0.961 . S
H307 C291 0.931 . S
H308 C296 0.930 . S
H309 C297 0.956 . S
H310 C297 0.961 . S
H311 C297 0.961 . S
H312 C298 0.958 . S
H313 C298 0.961 . S
H314 C298 0.960 . S
C315 C316 1.391 . S
C315 C317 1.394 . S
C315 H331 0.931 . S
C316 C315 1.391 . S
C316 C320 1.376 . S
C317 C315 1.394 . S
C317 C318 1.369 . S
C317 C321 1.531 . S
C318 C317 1.369 . S
C318 C319 1.410 . S
C318 C326 1.503 . S
C319 C318 1.410 . S
C319 C320 1.392 . S
C319 C322 1.511 . S
C320 C316 1.376 . S
C320 C319 1.392 . S
C320 H332 0.929 . S
C321 C317 1.531 . S
C321 H333 0.960 . S
C321 H334 0.962 . S
C321 H335 0.960 . S
C322 C319 1.511 . S
C322 H336 0.961 . S
C322 H337 0.961 . S
C322 H338 0.961 . S
C323 C324 1.370 . S
C323 C325 1.363 . S
C323 H339 0.931 . S
C324 C323 1.370 . S
C324 C328 1.408 . S
C325 C323 1.363 . S
C325 C326 1.370 . S
C325 C329 1.524 . S
C326 C318 1.503 . S
C326 C325 1.370 . S
C326 C327 1.403 . S
C327 C326 1.403 . S
C327 C328 1.404 . S
C327 C330 1.539 . S
C328 C324 1.408 . S
C328 C327 1.404 . S
C328 H340 0.930 . S
C329 C325 1.524 . S
C329 H341 0.956 . S
C329 H342 0.961 . S
C329 H343 0.961 . S
C330 C327 1.539 . S
C330 H344 0.958 . S
C330 H345 0.961 . S
C330 H346 0.960 . S
H331 C315 0.931 . S
H332 C320 0.929 . S
H333 C321 0.960 . S
H334 C321 0.962 . S
H335 C321 0.960 . S
H336 C322 0.961 . S
H337 C322 0.961 . S
H338 C322 0.961 . S
H339 C323 0.931 . S
H340 C328 0.930 . S
H341 C329 0.956 . S
H342 C329 0.961 . S
H343 C329 0.961 . S
H344 C330 0.958 . S
H345 C330 0.961 . S
H346 C330 0.960 . S
C347 C348 1.391 . S
C347 C349 1.394 . S
C347 H363 0.931 . S
C348 C347 1.391 . S
C348 C352 1.376 . S
C349 C347 1.394 . S
C349 C350 1.369 . S
C349 C353 1.531 . S
C350 C349 1.369 . S
C350 C351 1.410 . S
C350 C358 1.503 . S
C351 C350 1.410 . S
C351 C352 1.392 . S
C351 C354 1.511 . S
C352 C348 1.376 . S
C352 C351 1.392 . S
C352 H364 0.929 . S
C353 C349 1.531 . S
C353 H365 0.960 . S
C353 H366 0.962 . S
C353 H367 0.960 . S
C354 C351 1.511 . S
C354 H368 0.961 . S
C354 H369 0.961 . S
C354 H370 0.961 . S
C355 C356 1.370 . S
C355 C357 1.363 . S
C355 H371 0.931 . S
C356 C355 1.370 . S
C356 C360 1.408 . S
C357 C355 1.363 . S
C357 C358 1.370 . S
C357 C361 1.524 . S
C358 C350 1.503 . S
C358 C357 1.370 . S
C358 C359 1.403 . S
C359 C358 1.403 . S
C359 C360 1.404 . S
C359 C362 1.539 . S
C360 C356 1.408 . S
C360 C359 1.404 . S
C360 H372 0.930 . S
C361 C357 1.524 . S
C361 H373 0.956 . S
C361 H374 0.961 . S
C361 H375 0.961 . S
C362 C359 1.539 . S
C362 H376 0.958 . S
C362 H377 0.961 . S
C362 H378 0.960 . S
H363 C347 0.931 . S
H364 C352 0.929 . S
H365 C353 0.960 . S
H366 C353 0.962 . S
H367 C353 0.960 . S
H368 C354 0.961 . S
H369 C354 0.961 . S
H370 C354 0.961 . S
H371 C355 0.931 . S
H372 C360 0.930 . S
H373 C361 0.956 . S
H374 C361 0.961 . S
H375 C361 0.961 . S
H376 C362 0.958 . S
H377 C362 0.961 . S
H378 C362 0.960 . S
C379 C380 1.391 . S
C379 C381 1.394 . S
C379 H395 0.931 . S
C380 C379 1.391 . S
C380 C384 1.376 . S
C381 C379 1.394 . S
C381 C382 1.369 . S
C381 C385 1.531 . S
C382 C381 1.369 . S
C382 C383 1.410 . S
C382 C390 1.503 . S
C383 C382 1.410 . S
C383 C384 1.392 . S
C383 C386 1.511 . S
C384 C380 1.376 . S
C384 C383 1.392 . S
C384 H396 0.929 . S
C385 C381 1.531 . S
C385 H397 0.960 . S
C385 H398 0.962 . S
C385 H399 0.960 . S
C386 C383 1.511 . S
C386 H400 0.961 . S
C386 H401 0.961 . S
C386 H402 0.961 . S
C387 C388 1.370 . S
C387 C389 1.363 . S
C387 H403 0.931 . S
C388 C387 1.370 . S
C388 C392 1.408 . S
C389 C387 1.363 . S
C389 C390 1.370 . S
C389 C393 1.524 . S
C390 C382 1.503 . S
C390 C389 1.370 . S
C390 C391 1.403 . S
C391 C390 1.403 . S
C391 C392 1.404 . S
C391 C394 1.539 . S
C392 C388 1.408 . S
C392 C391 1.404 . S
C392 H404 0.930 . S
C393 C389 1.524 . S
C393 H405 0.956 . S
C393 H406 0.961 . S
C393 H407 0.961 . S
C394 C391 1.539 . S
C394 H408 0.958 . S
C394 H409 0.961 . S
C394 H410 0.960 . S
H395 C379 0.931 . S
H396 C384 0.929 . S
H397 C385 0.960 . S
H398 C385 0.962 . S
H399 C385 0.960 . S
H400 C386 0.961 . S
H401 C386 0.961 . S
H402 C386 0.961 . S
H403 C387 0.931 . S
H404 C392 0.930 . S
H405 C393 0.956 . S
H406 C393 0.961 . S
H407 C393 0.961 . S
H408 C394 0.958 . S
H409 C394 0.961 . S
H410 C394 0.960 . S
C411 C412 1.391 . S
C411 C413 1.394 . S
C411 H427 0.931 . S
C412 C411 1.391 . S
C412 C416 1.376 . S
C413 C411 1.394 . S
C413 C414 1.369 . S
C413 C417 1.531 . S
C414 C413 1.369 . S
C414 C415 1.410 . S
C414 C422 1.503 . S
C415 C414 1.410 . S
C415 C416 1.392 . S
C415 C418 1.511 . S
C416 C412 1.376 . S
C416 C415 1.392 . S
C416 H428 0.929 . S
C417 C413 1.531 . S
C417 H429 0.960 . S
C417 H430 0.962 . S
C417 H431 0.960 . S
C418 C415 1.511 . S
C418 H432 0.961 . S
C418 H433 0.961 . S
C418 H434 0.961 . S
C419 C420 1.370 . S
C419 C421 1.363 . S
C419 H435 0.931 . S
C420 C419 1.370 . S
C420 C424 1.408 . S
C421 C419 1.363 . S
C421 C422 1.370 . S
C421 C425 1.524 . S
C422 C414 1.503 . S
C422 C421 1.370 . S
C422 C423 1.403 . S
C423 C422 1.403 . S
C423 C424 1.404 . S
C423 C426 1.539 . S
C424 C420 1.408 . S
C424 C423 1.404 . S
C424 H436 0.930 . S
C425 C421 1.524 . S
C425 H437 0.956 . S
C425 H438 0.961 . S
C425 H439 0.961 . S
C426 C423 1.539 . S
C426 H440 0.958 . S
C426 H441 0.961 . S
C426 H442 0.960 . S
H427 C411 0.931 . S
H428 C416 0.929 . S
H429 C417 0.960 . S
H430 C417 0.962 . S
H431 C417 0.960 . S
H432 C418 0.961 . S
H433 C418 0.961 . S
H434 C418 0.961 . S
H435 C419 0.931 . S
H436 C424 0.930 . S
H437 C425 0.956 . S
H438 C425 0.961 . S
H439 C425 0.961 . S
H440 C426 0.958 . S
H441 C426 0.961 . S
H442 C426 0.960 . S
C443 C444 1.391 . S
C443 C445 1.394 . S
C443 H459 0.931 . S
C444 C443 1.391 . S
C444 C448 1.376 . S
C445 C443 1.394 . S
C445 C446 1.369 . S
C445 C449 1.531 . S
C446 C445 1.369 . S
C446 C447 1.410 . S
C446 C454 1.503 . S
C447 C446 1.410 . S
C447 C448 1.392 . S
C447 C450 1.511 . S
C448 C444 1.376 . S
C448 C447 1.392 . S
C448 H460 0.929 . S
C449 C445 1.531 . S
C449 H461 0.960 . S
C449 H462 0.962 . S
C449 H463 0.960 . S
C450 C447 1.511 . S
C450 H464 0.961 . S
C450 H465 0.961 . S
C450 H466 0.961 . S
C451 C452 1.370 . S
C451 C453 1.363 . S
C451 H467 0.931 . S
C452 C451 1.370 . S
C452 C456 1.408 . S
C453 C451 1.363 . S
C453 C454 1.370 . S
C453 C457 1.524 . S
C454 C446 1.503 . S
C454 C453 1.370 . S
C454 C455 1.403 . S
C455 C454 1.403 . S
C455 C456 1.404 . S
C455 C458 1.539 . S
C456 C452 1.408 . S
C456 C455 1.404 . S
C456 H468 0.930 . S
C457 C453 1.524 . S
C457 H469 0.956 . S
C457 H470 0.961 . S
C457 H471 0.961 . S
C458 C455 1.539 . S
C458 H472 0.958 . S
C458 H473 0.961 . S
C458 H474 0.960 . S
H459 C443 0.931 . S
H460 C448 0.929 . S
H461 C449 0.960 . S
H462 C449 0.962 . S
H463 C449 0.960 . S
H464 C450 0.961 . S
H465 C450 0.961 . S
H466 C450 0.961 . S
H467 C451 0.931 . S
H468 C456 0.930 . S
H469 C457 0.956 . S
H470 C457 0.961 . S
H471 C457 0.961 . S
H472 C458 0.958 . S
H473 C458 0.961 . S
H474 C458 0.960 . S
C475 C476 1.391 . S
C475 C477 1.394 . S
C475 H491 0.931 . S
C476 C475 1.391 . S
C476 C480 1.376 . S
C477 C475 1.394 . S
C477 C478 1.369 . S
C477 C481 1.531 . S
C478 C477 1.369 . S
C478 C479 1.410 . S
C478 C486 1.503 . S
C479 C478 1.410 . S
C479 C480 1.392 . S
C479 C482 1.511 . S
C480 C476 1.376 . S
C480 C479 1.392 . S
C480 H492 0.929 . S
C481 C477 1.531 . S
C481 H493 0.960 . S
C481 H494 0.962 . S
C481 H495 0.960 . S
C482 C479 1.511 . S
C482 H496 0.961 . S
C482 H497 0.961 . S
C482 H498 0.961 . S
C483 C484 1.370 . S
C483 C485 1.363 . S
C483 H499 0.931 . S
C484 C483 1.370 . S
C484 C488 1.408 . S
C485 C483 1.363 . S
C485 C486 1.370 . S
C485 C489 1.524 . S
C486 C478 1.503 . S
C486 C485 1.370 . S
C486 C487 1.403 . S
C487 C486 1.403 . S
C487 C488 1.404 . S
C487 C490 1.539 . S
C488 C484 1.408 . S
C488 C487 1.404 . S
C488 H500 0.930 . S
C489 C485 1.524 . S
C489 H501 0.956 . S
C489 H502 0.961 . S
C489 H503 0.961 . S
C490 C487 1.539 . S
C490 H504 0.958 . S
C490 H505 0.961 . S
C490 H506 0.960 . S
H491 C475 0.931 . S
H492 C480 0.929 . S
H493 C481 0.960 . S
H494 C481 0.962 . S
H495 C481 0.960 . S
H496 C482 0.961 . S
H497 C482 0.961 . S
H498 C482 0.961 . S
H499 C483 0.931 . S
H500 C488 0.930 . S
H501 C489 0.956 . S
H502 C489 0.961 . S
H503 C489 0.961 . S
H504 C490 0.958 . S
H505 C490 0.961 . S
H506 C490 0.960 . S
C507 C508 1.391 . S
C507 C509 1.394 . S
C507 H523 0.931 . S
C508 C507 1.391 . S
C508 C512 1.376 . S
C509 C507 1.394 . S
C509 C510 1.369 . S
C509 C513 1.531 . S
C510 C509 1.369 . S
C510 C511 1.410 . S
C510 C518 1.503 . S
C511 C510 1.410 . S
C511 C512 1.392 . S
C511 C514 1.511 . S
C512 C508 1.376 . S
C512 C511 1.392 . S
C512 H524 0.929 . S
C513 C509 1.531 . S
C513 H525 0.960 . S
C513 H526 0.962 . S
C513 H527 0.960 . S
C514 C511 1.511 . S
C514 H528 0.961 . S
C514 H529 0.961 . S
C514 H530 0.961 . S
C515 C516 1.370 . S
C515 C517 1.363 . S
C515 H531 0.931 . S
C516 C515 1.370 . S
C516 C520 1.408 . S
C517 C515 1.363 . S
C517 C518 1.370 . S
C517 C521 1.524 . S
C518 C510 1.503 . S
C518 C517 1.370 . S
C518 C519 1.403 . S
C519 C518 1.403 . S
C519 C520 1.404 . S
C519 C522 1.539 . S
C520 C516 1.408 . S
C520 C519 1.404 . S
C520 H532 0.930 . S
C521 C517 1.524 . S
C521 H533 0.956 . S
C521 H534 0.961 . S
C521 H535 0.961 . S
C522 C519 1.539 . S
C522 H536 0.958 . S
C522 H537 0.961 . S
C522 H538 0.960 . S
H523 C507 0.931 . S
H524 C512 0.929 . S
H525 C513 0.960 . S
H526 C513 0.962 . S
H527 C513 0.960 . S
H528 C514 0.961 . S
H529 C514 0.961 . S
H530 C514 0.961 . S
H531 C515 0.931 . S
H532 C520 0.930 . S
H533 C521 0.956 . S
H534 C521 0.961 . S
H535 C521 0.961 . S
H536 C522 0.958 . S
H537 C522 0.961 . S
H538 C522 0.960 . S
C539 C540 1.391 . S
C539 C541 1.394 . S
C539 H555 0.931 . S
C540 C539 1.391 . S
C540 C544 1.376 . S
C541 C539 1.394 . S
C541 C542 1.369 . S
C541 C545 1.531 . S
C542 C541 1.369 . S
C542 C543 1.410 . S
C542 C550 1.503 . S
C543 C542 1.410 . S
C543 C544 1.392 . S
C543 C546 1.511 . S
C544 C540 1.376 . S
C544 C543 1.392 . S
C544 H556 0.929 . S
C545 C541 1.531 . S
C545 H557 0.960 . S
C545 H558 0.962 . S
C545 H559 0.960 . S
C546 C543 1.511 . S
C546 H560 0.961 . S
C546 H561 0.961 . S
C546 H562 0.961 . S
C547 C548 1.370 . S
C547 C549 1.363 . S
C547 H563 0.931 . S
C548 C547 1.370 . S
C548 C552 1.408 . S
C549 C547 1.363 . S
C549 C550 1.370 . S
C549 C553 1.524 . S
C550 C542 1.503 . S
C550 C549 1.370 . S
C550 C551 1.403 . S
C551 C550 1.403 . S
C551 C552 1.404 . S
C551 C554 1.539 . S
C552 C548 1.408 . S
C552 C551 1.404 . S
C552 H564 0.930 . S
C553 C549 1.524 . S
C553 H565 0.956 . S
C553 H566 0.961 . S
C553 H567 0.961 . S
C554 C551 1.539 . S
C554 H568 0.958 . S
C554 H569 0.961 . S
C554 H570 0.960 . S
H555 C539 0.931 . S
H556 C544 0.929 . S
H557 C545 0.960 . S
H558 C545 0.962 . S
H559 C545 0.960 . S
H560 C546 0.961 . S
H561 C546 0.961 . S
H562 C546 0.961 . S
H563 C547 0.931 . S
H564 C552 0.930 . S
H565 C553 0.956 . S
H566 C553 0.961 . S
H567 C553 0.961 . S
H568 C554 0.958 . S
H569 C554 0.961 . S
H570 C554 0.960 . S
C571 C572 1.391 . S
C571 C573 1.394 . S
C571 H587 0.931 . S
C572 C571 1.391 . S
C572 C576 1.376 . S
C573 C571 1.394 . S
C573 C574 1.369 . S
C573 C577 1.531 . S
C574 C573 1.369 . S
C574 C575 1.410 . S
C574 C582 1.503 . S
C575 C574 1.410 . S
C575 C576 1.392 . S
C575 C578 1.511 . S
C576 C572 1.376 . S
C576 C575 1.392 . S
C576 H588 0.929 . S
C577 C573 1.531 . S
C577 H589 0.960 . S
C577 H590 0.962 . S
C577 H591 0.960 . S
C578 C575 1.511 . S
C578 H592 0.961 . S
C578 H593 0.961 . S
C578 H594 0.961 . S
C579 C580 1.370 . S
C579 C581 1.363 . S
C579 H595 0.931 . S
C580 C579 1.370 . S
C580 C584 1.408 . S
C581 C579 1.363 . S
C581 C582 1.370 . S
C581 C585 1.524 . S
C582 C574 1.503 . S
C582 C581 1.370 . S
C582 C583 1.403 . S
C583 C582 1.403 . S
C583 C584 1.404 . S
C583 C586 1.539 . S
C584 C580 1.408 . S
C584 C583 1.404 . S
C584 H596 0.930 . S
C585 C581 1.524 . S
C585 H597 0.956 . S
C585 H598 0.961 . S
C585 H599 0.961 . S
C586 C583 1.539 . S
C586 H600 0.958 . S
C586 H601 0.961 . S
C586 H602 0.960 . S
H587 C571 0.931 . S
H588 C576 0.929 . S
H589 C577 0.960 . S
H590 C577 0.962 . S
H591 C577 0.960 . S
H592 C578 0.961 . S
H593 C578 0.961 . S
H594 C578 0.961 . S
H595 C579 0.931 . S
H596 C584 0.930 . S
H597 C585 0.956 . S
H598 C585 0.961 . S
H599 C585 0.961 . S
H600 C586 0.958 . S
H601 C586 0.961 . S
H602 C586 0.960 . S
C603 C604 1.391 . S
C603 C605 1.394 . S
C603 H619 0.931 . S
C604 C603 1.391 . S
C604 C608 1.376 . S
C605 C603 1.394 . S
C605 C606 1.369 . S
C605 C609 1.531 . S
C606 C605 1.369 . S
C606 C607 1.410 . S
C606 C614 1.503 . S
C607 C606 1.410 . S
C607 C608 1.392 . S
C607 C610 1.511 . S
C608 C604 1.376 . S
C608 C607 1.392 . S
C608 H620 0.929 . S
C609 C605 1.531 . S
C609 H621 0.960 . S
C609 H622 0.962 . S
C609 H623 0.960 . S
C610 C607 1.511 . S
C610 H624 0.961 . S
C610 H625 0.961 . S
C610 H626 0.961 . S
C611 C612 1.370 . S
C611 C613 1.363 . S
C611 H627 0.931 . S
C612 C611 1.370 . S
C612 C616 1.408 . S
C613 C611 1.363 . S
C613 C614 1.370 . S
C613 C617 1.524 . S
C614 C606 1.503 . S
C614 C613 1.370 . S
C614 C615 1.403 . S
C615 C614 1.403 . S
C615 C616 1.404 . S
C615 C618 1.539 . S
C616 C612 1.408 . S
C616 C615 1.404 . S
C616 H628 0.930 . S
C617 C613 1.524 . S
C617 H629 0.956 . S
C617 H630 0.961 . S
C617 H631 0.961 . S
C618 C615 1.539 . S
C618 H632 0.958 . S
C618 H633 0.961 . S
C618 H634 0.960 . S
H619 C603 0.931 . S
H620 C608 0.929 . S
H621 C609 0.960 . S
H622 C609 0.962 . S
H623 C609 0.960 . S
H624 C610 0.961 . S
H625 C610 0.961 . S
H626 C610 0.961 . S
H627 C611 0.931 . S
H628 C616 0.930 . S
H629 C617 0.956 . S
H630 C617 0.961 . S
H631 C617 0.961 . S
H632 C618 0.958 . S
H633 C618 0.961 . S
H634 C618 0.960 . S
C635 C636 1.391 . S
C635 C637 1.394 . S
C635 H651 0.931 . S
C636 C635 1.391 . S
C636 C640 1.376 . S
C637 C635 1.394 . S
C637 C638 1.369 . S
C637 C641 1.531 . S
C638 C637 1.369 . S
C638 C639 1.410 . S
C638 C646 1.503 . S
C639 C638 1.410 . S
C639 C640 1.392 . S
C639 C642 1.511 . S
C640 C636 1.376 . S
C640 C639 1.392 . S
C640 H652 0.929 . S
C641 C637 1.531 . S
C641 H653 0.960 . S
C641 H654 0.962 . S
C641 H655 0.960 . S
C642 C639 1.511 . S
C642 H656 0.961 . S
C642 H657 0.961 . S
C642 H658 0.961 . S
C643 C644 1.370 . S
C643 C645 1.363 . S
C643 H659 0.931 . S
C644 C643 1.370 . S
C644 C648 1.408 . S
C645 C643 1.363 . S
C645 C646 1.370 . S
C645 C649 1.524 . S
C646 C638 1.503 . S
C646 C645 1.370 . S
C646 C647 1.403 . S
C647 C646 1.403 . S
C647 C648 1.404 . S
C647 C650 1.539 . S
C648 C644 1.408 . S
C648 C647 1.404 . S
C648 H660 0.930 . S
C649 C645 1.524 . S
C649 H661 0.956 . S
C649 H662 0.961 . S
C649 H663 0.961 . S
C650 C647 1.539 . S
C650 H664 0.958 . S
C650 H665 0.961 . S
C650 H666 0.960 . S
H651 C635 0.931 . S
H652 C640 0.929 . S
H653 C641 0.960 . S
H654 C641 0.962 . S
H655 C641 0.960 . S
H656 C642 0.961 . S
H657 C642 0.961 . S
H658 C642 0.961 . S
H659 C643 0.931 . S
H660 C648 0.930 . S
H661 C649 0.956 . S
H662 C649 0.961 . S
H663 C649 0.961 . S
H664 C650 0.958 . S
H665 C650 0.961 . S
H666 C650 0.960 . S
C667 C668 1.391 . S
C667 C669 1.394 . S
C667 H683 0.931 . S
C668 C667 1.391 . S
C668 C672 1.376 . S
C669 C667 1.394 . S
C669 C670 1.369 . S
C669 C673 1.531 . S
C670 C669 1.369 . S
C670 C671 1.410 . S
C670 C678 1.503 . S
C671 C670 1.410 . S
C671 C672 1.392 . S
C671 C674 1.511 . S
C672 C668 1.376 . S
C672 C671 1.392 . S
C672 H684 0.929 . S
C673 C669 1.531 . S
C673 H685 0.960 . S
C673 H686 0.962 . S
C673 H687 0.960 . S
C674 C671 1.511 . S
C674 H688 0.961 . S
C674 H689 0.961 . S
C674 H690 0.961 . S
C675 C676 1.370 . S
C675 C677 1.363 . S
C675 H691 0.931 . S
C676 C675 1.370 . S
C676 C680 1.408 . S
C677 C675 1.363 . S
C677 C678 1.370 . S
C677 C681 1.524 . S
C678 C670 1.503 . S
C678 C677 1.370 . S
C678 C679 1.403 . S
C679 C678 1.403 . S
C679 C680 1.404 . S
C679 C682 1.539 . S
C680 C676 1.408 . S
C680 C679 1.404 . S
C680 H692 0.930 . S
C681 C677 1.524 . S
C681 H693 0.956 . S
C681 H694 0.961 . S
C681 H695 0.961 . S
C682 C679 1.539 . S
C682 H696 0.958 . S
C682 H697 0.961 . S
C682 H698 0.960 . S
H683 C667 0.931 . S
H684 C672 0.929 . S
H685 C673 0.960 . S
H686 C673 0.962 . S
H687 C673 0.960 . S
H688 C674 0.961 . S
H689 C674 0.961 . S
H690 C674 0.961 . S
H691 C675 0.931 . S
H692 C680 0.930 . S
H693 C681 0.956 . S
H694 C681 0.961 . S
H695 C681 0.961 . S
H696 C682 0.958 . S
H697 C682 0.961 . S
H698 C682 0.960 . S
C699 C700 1.391 . S
C699 C701 1.394 . S
C699 H715 0.931 . S
C700 C699 1.391 . S
C700 C704 1.376 . S
C701 C699 1.394 . S
C701 C702 1.369 . S
C701 C705 1.531 . S
C702 C701 1.369 . S
C702 C703 1.410 . S
C702 C710 1.503 . S
C703 C702 1.410 . S
C703 C704 1.392 . S
C703 C706 1.511 . S
C704 C700 1.376 . S
C704 C703 1.392 . S
C704 H716 0.929 . S
C705 C701 1.531 . S
C705 H717 0.960 . S
C705 H718 0.962 . S
C705 H719 0.960 . S
C706 C703 1.511 . S
C706 H720 0.961 . S
C706 H721 0.961 . S
C706 H722 0.961 . S
C707 C708 1.370 . S
C707 C709 1.363 . S
C707 H723 0.931 . S
C708 C707 1.370 . S
C708 C712 1.408 . S
C709 C707 1.363 . S
C709 C710 1.370 . S
C709 C713 1.524 . S
C710 C702 1.503 . S
C710 C709 1.370 . S
C710 C711 1.403 . S
C711 C710 1.403 . S
C711 C712 1.404 . S
C711 C714 1.539 . S
C712 C708 1.408 . S
C712 C711 1.404 . S
C712 H724 0.930 . S
C713 C709 1.524 . S
C713 H725 0.956 . S
C713 H726 0.961 . S
C713 H727 0.961 . S
C714 C711 1.539 . S
C714 H728 0.958 . S
C714 H729 0.961 . S
C714 H730 0.960 . S
H715 C699 0.931 . S
H716 C704 0.929 . S
H717 C705 0.960 . S
H718 C705 0.962 . S
H719 C705 0.960 . S
H720 C706 0.961 . S
H721 C706 0.961 . S
H722 C706 0.961 . S
H723 C707 0.931 . S
H724 C712 0.930 . S
H725 C713 0.956 . S
H726 C713 0.961 . S
H727 C713 0.961 . S
H728 C714 0.958 . S
H729 C714 0.961 . S
H730 C714 0.960 . S
C731 C732 1.391 . S
C731 C733 1.394 . S
C731 H747 0.931 . S
C732 C731 1.391 . S
C732 C736 1.376 . S
C733 C731 1.394 . S
C733 C734 1.369 . S
C733 C737 1.531 . S
C734 C733 1.369 . S
C734 C735 1.410 . S
C734 C742 1.503 . S
C735 C734 1.410 . S
C735 C736 1.392 . S
C735 C738 1.511 . S
C736 C732 1.376 . S
C736 C735 1.392 . S
C736 H748 0.929 . S
C737 C733 1.531 . S
C737 H749 0.960 . S
C737 H750 0.962 . S
C737 H751 0.960 . S
C738 C735 1.511 . S
C738 H752 0.961 . S
C738 H753 0.961 . S
C738 H754 0.961 . S
C739 C740 1.370 . S
C739 C741 1.363 . S
C739 H755 0.931 . S
C740 C739 1.370 . S
C740 C744 1.408 . S
C741 C739 1.363 . S
C741 C742 1.370 . S
C741 C745 1.524 . S
C742 C734 1.503 . S
C742 C741 1.370 . S
C742 C743 1.403 . S
C743 C742 1.403 . S
C743 C744 1.404 . S
C743 C746 1.539 . S
C744 C740 1.408 . S
C744 C743 1.404 . S
C744 H756 0.930 . S
C745 C741 1.524 . S
C745 H757 0.956 . S
C745 H758 0.961 . S
C745 H759 0.961 . S
C746 C743 1.539 . S
C746 H760 0.958 . S
C746 H761 0.961 . S
C746 H762 0.960 . S
H747 C731 0.931 . S
H748 C736 0.929 . S
H749 C737 0.960 . S
H750 C737 0.962 . S
H751 C737 0.960 . S
H752 C738 0.961 . S
H753 C738 0.961 . S
H754 C738 0.961 . S
H755 C739 0.931 . S
H756 C744 0.930 . S
H757 C745 0.956 . S
H758 C745 0.961 . S
H759 C745 0.961 . S
H760 C746 0.958 . S
H761 C746 0.961 . S
H762 C746 0.960 . S
C763 C764 1.391 . S
C763 C765 1.394 . S
C763 H779 0.931 . S
C764 C763 1.391 . S
C764 C768 1.376 . S
C765 C763 1.394 . S
C765 C766 1.369 . S
C765 C769 1.531 . S
C766 C765 1.369 . S
C766 C767 1.410 . S
C766 C774 1.503 . S
C767 C766 1.410 . S
C767 C768 1.392 . S
C767 C770 1.511 . S
C768 C764 1.376 . S
C768 C767 1.392 . S
C768 H780 0.929 . S
C769 C765 1.531 . S
C769 H781 0.960 . S
C769 H782 0.962 . S
C769 H783 0.960 . S
C770 C767 1.511 . S
C770 H784 0.961 . S
C770 H785 0.961 . S
C770 H786 0.961 . S
C771 C772 1.370 . S
C771 C773 1.363 . S
C771 H787 0.931 . S
C772 C771 1.370 . S
C772 C776 1.408 . S
C773 C771 1.363 . S
C773 C774 1.370 . S
C773 C777 1.524 . S
C774 C766 1.503 . S
C774 C773 1.370 . S
C774 C775 1.403 . S
C775 C774 1.403 . S
C775 C776 1.404 . S
C775 C778 1.539 . S
C776 C772 1.408 . S
C776 C775 1.404 . S
C776 H788 0.930 . S
C777 C773 1.524 . S
C777 H789 0.956 . S
C777 H790 0.961 . S
C777 H791 0.961 . S
C778 C775 1.539 . S
C778 H792 0.958 . S
C778 H793 0.961 . S
C778 H794 0.960 . S
H779 C763 0.931 . S
H780 C768 0.929 . S
H781 C769 0.960 . S
H782 C769 0.962 . S
H783 C769 0.960 . S
H784 C770 0.961 . S
H785 C770 0.961 . S
H786 C770 0.961 . S
H787 C771 0.931 . S
H788 C776 0.930 . S
H789 C777 0.956 . S
H790 C777 0.961 . S
H791 C777 0.961 . S
H792 C778 0.958 . S
H793 C778 0.961 . S
H794 C778 0.960 . S
C795 C796 1.391 . S
C795 C797 1.394 . S
C795 H811 0.931 . S
C796 C795 1.391 . S
C796 C800 1.376 . S
C797 C795 1.394 . S
C797 C798 1.369 . S
C797 C801 1.531 . S
C798 C797 1.369 . S
C798 C799 1.410 . S
C798 C806 1.503 . S
C799 C798 1.410 . S
C799 C800 1.392 . S
C799 C802 1.511 . S
C800 C796 1.376 . S
C800 C799 1.392 . S
C800 H812 0.929 . S
C801 C797 1.531 . S
C801 H813 0.960 . S
C801 H814 0.962 . S
C801 H815 0.960 . S
C802 C799 1.511 . S
C802 H816 0.961 . S
C802 H817 0.961 . S
C802 H818 0.961 . S
C803 C804 1.370 . S
C803 C805 1.363 . S
C803 H819 0.931 . S
C804 C803 1.370 . S
C804 C808 1.408 . S
C805 C803 1.363 . S
C805 C806 1.370 . S
C805 C809 1.524 . S
C806 C798 1.503 . S
C806 C805 1.370 . S
C806 C807 1.403 . S
C807 C806 1.403 . S
C807 C808 1.404 . S
C807 C810 1.539 . S
C808 C804 1.408 . S
C808 C807 1.404 . S
C808 H820 0.930 . S
C809 C805 1.524 . S
C809 H821 0.956 . S
C809 H822 0.961 . S
C809 H823 0.961 . S
C810 C807 1.539 . S
C810 H824 0.958 . S
C810 H825 0.961 . S
C810 H826 0.960 . S
H811 C795 0.931 . S
H812 C800 0.929 . S
H813 C801 0.960 . S
H814 C801 0.962 . S
H815 C801 0.960 . S
H816 C802 0.961 . S
H817 C802 0.961 . S
H818 C802 0.961 . S
H819 C803 0.931 . S
H820 C808 0.930 . S
H821 C809 0.956 . S
H822 C809 0.961 . S
H823 C809 0.961 . S
H824 C810 0.958 . S
H825 C810 0.961 . S
H826 C810 0.960 . S
C827 C828 1.391 . S
C827 C829 1.394 . S
C827 H843 0.931 . S
C828 C827 1.391 . S
C828 C832 1.376 . S
C829 C827 1.394 . S
C829 C830 1.369 . S
C829 C833 1.531 . S
C830 C829 1.369 . S
C830 C831 1.410 . S
C830 C838 1.503 . S
C831 C830 1.410 . S
C831 C832 1.392 . S
C831 C834 1.511 . S
C832 C828 1.376 . S
C832 C831 1.392 . S
C832 H844 0.929 . S
C833 C829 1.531 . S
C833 H845 0.960 . S
C833 H846 0.962 . S
C833 H847 0.960 . S
C834 C831 1.511 . S
C834 H848 0.961 . S
C834 H849 0.961 . S
C834 H850 0.961 . S
C835 C836 1.370 . S
C835 C837 1.363 . S
C835 H851 0.931 . S
C836 C835 1.370 . S
C836 C840 1.408 . S
C837 C835 1.363 . S
C837 C838 1.370 . S
C837 C841 1.524 . S
C838 C830 1.503 . S
C838 C837 1.370 . S
C838 C839 1.403 . S
C839 C838 1.403 . S
C839 C840 1.404 . S
C839 C842 1.539 . S
C840 C836 1.408 . S
C840 C839 1.404 . S
C840 H852 0.930 . S
C841 C837 1.524 . S
C841 H853 0.956 . S
C841 H854 0.961 . S
C841 H855 0.961 . S
C842 C839 1.539 . S
C842 H856 0.958 . S
C842 H857 0.961 . S
C842 H858 0.960 . S
H843 C827 0.931 . S
H844 C832 0.929 . S
H845 C833 0.960 . S
H846 C833 0.962 . S
H847 C833 0.960 . S
H848 C834 0.961 . S
H849 C834 0.961 . S
H850 C834 0.961 . S
H851 C835 0.931 . S
H852 C840 0.930 . S
H853 C841 0.956 . S
H854 C841 0.961 . S
H855 C841 0.961 . S
H856 C842 0.958 . S
H857 C842 0.961 . S
H858 C842 0.960 . S
C859 C860 1.391 . S
C859 C861 1.394 . S
C859 H875 0.931 . S
C860 C859 1.391 . S
C860 C864 1.376 . S
C861 C859 1.394 . S
C861 C862 1.369 . S
C861 C865 1.531 . S
C862 C861 1.369 . S
C862 C863 1.410 . S
C862 C870 1.503 . S
C863 C862 1.410 . S
C863 C864 1.392 . S
C863 C866 1.511 . S
C864 C860 1.376 . S
C864 C863 1.392 . S
C864 H876 0.929 . S
C865 C861 1.531 . S
C865 H877 0.960 . S
C865 H878 0.962 . S
C865 H879 0.960 . S
C866 C863 1.511 . S
C866 H880 0.961 . S
C866 H881 0.961 . S
C866 H882 0.961 . S
C867 C868 1.370 . S
C867 C869 1.363 . S
C867 H883 0.931 . S
C868 C867 1.370 . S
C868 C872 1.408 . S
C869 C867 1.363 . S
C869 C870 1.370 . S
C869 C873 1.524 . S
C870 C862 1.503 . S
C870 C869 1.370 . S
C870 C871 1.403 . S
C871 C870 1.403 . S
C871 C872 1.404 . S
C871 C874 1.539 . S
C872 C868 1.408 . S
C872 C871 1.404 . S
C872 H884 0.930 . S
C873 C869 1.524 . S
C873 H885 0.956 . S
C873 H886 0.961 . S
C873 H887 0.961 . S
C874 C871 1.539 . S
C874 H888 0.958 . S
C874 H889 0.961 . S
C874 H890 0.960 . S
H875 C859 0.931 . S
H876 C864 0.929 . S
H877 C865 0.960 . S
H878 C865 0.962 . S
H879 C865 0.960 . S
H880 C866 0.961 . S
H881 C866 0.961 . S
H882 C866 0.961 . S
H883 C867 0.931 . S
H884 C872 0.930 . S
H885 C873 0.956 . S
H886 C873 0.961 . S
H887 C873 0.961 . S
H888 C874 0.958 . S
H889 C874 0.961 . S
H890 C874 0.960 . S
C891 C892 1.391 . S
C891 C893 1.394 . S
C891 H907 0.931 . S
C892 C891 1.391 . S
C892 C896 1.376 . S
C893 C891 1.394 . S
C893 C894 1.369 . S
C893 C897 1.531 . S
C894 C893 1.369 . S
C894 C895 1.410 . S
C894 C902 1.503 . S
C895 C894 1.410 . S
C895 C896 1.392 . S
C895 C898 1.511 . S
C896 C892 1.376 . S
C896 C895 1.392 . S
C896 H908 0.929 . S
C897 C893 1.531 . S
C897 H909 0.960 . S
C897 H910 0.962 . S
C897 H911 0.960 . S
C898 C895 1.511 . S
C898 H912 0.961 . S
C898 H913 0.961 . S
C898 H914 0.961 . S
C899 C900 1.370 . S
C899 C901 1.363 . S
C899 H915 0.931 . S
C900 C899 1.370 . S
C900 C904 1.408 . S
C901 C899 1.363 . S
C901 C902 1.370 . S
C901 C905 1.524 . S
C902 C894 1.503 . S
C902 C901 1.370 . S
C902 C903 1.403 . S
C903 C902 1.403 . S
C903 C904 1.404 . S
C903 C906 1.539 . S
C904 C900 1.408 . S
C904 C903 1.404 . S
C904 H916 0.930 . S
C905 C901 1.524 . S
C905 H917 0.956 . S
C905 H918 0.961 . S
C905 H919 0.961 . S
C906 C903 1.539 . S
C906 H920 0.958 . S
C906 H921 0.961 . S
C906 H922 0.960 . S
H907 C891 0.931 . S
H908 C896 0.929 . S
H909 C897 0.960 . S
H910 C897 0.962 . S
H911 C897 0.960 . S
H912 C898 0.961 . S
H913 C898 0.961 . S
H914 C898 0.961 . S
H915 C899 0.931 . S
H916 C904 0.930 . S
H917 C905 0.956 . S
H918 C905 0.961 . S
H919 C905 0.961 . S
H920 C906 0.958 . S
H921 C906 0.961 . S
H922 C906 0.960 . S
C923 C924 1.391 . S
C923 C925 1.394 . S
C923 H939 0.931 . S
C924 C923 1.391 . S
C924 C928 1.376 . S
C925 C923 1.394 . S
C925 C926 1.369 . S
C925 C929 1.531 . S
C926 C925 1.369 . S
C926 C927 1.410 . S
C926 C934 1.503 . S
C927 C926 1.410 . S
C927 C928 1.392 . S
C927 C930 1.511 . S
C928 C924 1.376 . S
C928 C927 1.392 . S
C928 H940 0.929 . S
C929 C925 1.531 . S
C929 H941 0.960 . S
C929 H942 0.962 . S
C929 H943 0.960 . S
C930 C927 1.511 . S
C930 H944 0.961 . S
C930 H945 0.961 . S
C930 H946 0.961 . S
C931 C932 1.370 . S
C931 C933 1.363 . S
C931 H947 0.931 . S
C932 C931 1.370 . S
C932 C936 1.408 . S
C933 C931 1.363 . S
C933 C934 1.370 . S
C933 C937 1.524 . S
C934 C926 1.503 . S
C934 C933 1.370 . S
C934 C935 1.403 . S
C935 C934 1.403 . S
C935 C936 1.404 . S
C935 C938 1.539 . S
C936 C932 1.408 . S
C936 C935 1.404 . S
C936 H948 0.930 . S
C937 C933 1.524 . S
C937 H949 0.956 . S
C937 H950 0.961 . S
C937 H951 0.961 . S
C938 C935 1.539 . S
C938 H952 0.958 . S
C938 H953 0.961 . S
C938 H954 0.960 . S
H939 C923 0.931 . S
H940 C928 0.929 . S
H941 C929 0.960 . S
H942 C929 0.962 . S
H943 C929 0.960 . S
H944 C930 0.961 . S
H945 C930 0.961 . S
H946 C930 0.961 . S
H947 C931 0.931 . S
H948 C936 0.930 . S
H949 C937 0.956 . S
H950 C937 0.961 . S
H951 C937 0.961 . S
H952 C938 0.958 . S
H953 C938 0.961 . S
H954 C938 0.960 . S
C196 C112 1.534 . S
C188 C5 1.394 . S
C228 C148 1.820 . S
C220 C16 1.820 . S
C260 C113 1.148 . S
C252 C30 1.173 . S
C292 C143 1.172 . S
C284 C40 1.132 . S
C324 C110 1.155 . S
C316 C49 1.074 . S
C348 C63 1.470 . S
C356 C146 1.464 . S
C380 C74 0.622 . S
C388 C115 0.622 . S
C420 C145 1.620 . S
C412 C85 1.591 . S
C452 C149 1.495 . S
C444 C8 1.537 . S
C484 C114 1.826 . S
C476 C18 1.850 . S
C516 C142 1.639 . S
C508 C27 1.514 . S
C548 C111 0.764 . S
C540 C38 0.656 . S
C580 C144 1.779 . S
C572 C51 1.903 . S
C604 C60 1.525 . S
C612 C109 1.612 . S
C636 C71 1.140 . S
C644 C147 1.160 . S
C676 C116 1.467 . S
C668 C84 1.485 . S
C708 C178 2.168 . S
C700 C7 2.157 . S
C732 C52 1.908 . S
C740 C181 1.735 . S
C772 C180 1.894 . S
C764 C62 1.909 . S
C796 C73 1.972 . S
C804 C179 1.980 . S
C836 C182 1.760 . S
C828 C82 1.536 . S
C860 C29 1.897 . S
C868 C176 1.831 . S
C900 C175 1.445 . S
C892 C41 1.402 . S
C924 C19 1.944 . S
C932 C177 1.825 . S
