# Generated by pormake.
# Topology anh, (6,3)-cn, num edge types: 1
# Building blocks:
#     Node 0, Type 0, BuildingBlock: BETFEN_clean_sbu_0, # of connection points: 6
#     Node 1, Type 0, BuildingBlock: BETFEN_clean_sbu_0, # of connection points: 6
#     Node 2, Type 0, BuildingBlock: BETFEN_clean_sbu_0, # of connection points: 6
#     Node 3, Type 1, BuildingBlock: OLANEW_clean_sbu_2, # of connection points: 3
#     Node 4, Type 1, BuildingBlock: OLANEW_clean_sbu_2, # of connection points: 3
#     Node 5, Type 1, BuildingBlock: OLANEW_clean_sbu_2, # of connection points: 3
#     Node 6, Type 1, BuildingBlock: OLANEW_clean_sbu_2, # of connection points: 3
#     Node 7, Type 1, BuildingBlock: OLANEW_clean_sbu_2, # of connection points: 3
#     Node 8, Type 1, BuildingBlock: OLANEW_clean_sbu_2, # of connection points: 3
#     Edge 9, Type (0, 1), BuildingBlock: ZUJKAS_clean_linker_0, # of connection points: 2
#     Edge 10, Type (0, 1), BuildingBlock: ZUJKAS_clean_linker_0, # of connection points: 2
#     Edge 11, Type (0, 1), BuildingBlock: ZUJKAS_clean_linker_0, # of connection points: 2
#     Edge 12, Type (0, 1), BuildingBlock: ZUJKAS_clean_linker_0, # of connection points: 2
#     Edge 13, Type (0, 1), BuildingBlock: ZUJKAS_clean_linker_0, # of connection points: 2
#     Edge 14, Type (0, 1), BuildingBlock: ZUJKAS_clean_linker_0, # of connection points: 2
#     Edge 15, Type (0, 1), BuildingBlock: ZUJKAS_clean_linker_0, # of connection points: 2
#     Edge 16, Type (0, 1), BuildingBlock: ZUJKAS_clean_linker_0, # of connection points: 2
#     Edge 17, Type (0, 1), BuildingBlock: ZUJKAS_clean_linker_0, # of connection points: 2
#     Edge 18, Type (0, 1), BuildingBlock: ZUJKAS_clean_linker_0, # of connection points: 2
#     Edge 19, Type (0, 1), BuildingBlock: ZUJKAS_clean_linker_0, # of connection points: 2
#     Edge 20, Type (0, 1), BuildingBlock: ZUJKAS_clean_linker_0, # of connection points: 2
#     Edge 21, Type (0, 1), BuildingBlock: ZUJKAS_clean_linker_0, # of connection points: 2
#     Edge 22, Type (0, 1), BuildingBlock: ZUJKAS_clean_linker_0, # of connection points: 2
#     Edge 23, Type (0, 1), BuildingBlock: ZUJKAS_clean_linker_0, # of connection points: 2
#     Edge 24, Type (0, 1), BuildingBlock: ZUJKAS_clean_linker_0, # of connection points: 2
#     Edge 25, Type (0, 1), BuildingBlock: ZUJKAS_clean_linker_0, # of connection points: 2
#     Edge 26, Type (0, 1), BuildingBlock: ZUJKAS_clean_linker_0, # of connection points: 2
# Relax obj value: 0.113
# Max RMSD: 0.153
# Mean RMSD: 0.109
data_MOF--net-anh--node1-BETFEN_clean_sbu_0--node2-OLANEW_clean_sbu_2--edge1-ZUJKAS_clean_linker_0
_symmetry_space_group_name_H-M    P1
_symmetry_Int_Tables_number       1
_symmetry_cell_setting            triclinic
loop_
_symmetry_equiv_pos_as_xyz
'x, y, z'
_cell_length_a     42.213272
_cell_length_b     46.107482
_cell_length_c     65.440841
_cell_angle_alpha  89.5216
_cell_angle_beta   92.539666
_cell_angle_gamma 110.54663
loop_
_atom_site_label
_atom_site_type_symbol
_atom_site_fract_x
_atom_site_fract_y
_atom_site_fract_z
_atom_type_partial_charge
Pr0 Pr 0.01797 0.50836 0.16482 0.0
Pr1 Pr 0.03736 0.57414 0.14953 0.0
C2 C 0.99147 0.45414 0.1844 0.0
C3 C 0.95809 0.42976 0.18518 0.0
C4 C 0.95449 0.40247 0.19589 0.0
C5 C 0.92275 0.37908 0.19666 0.0
C6 C 0.89413 0.38271 0.18673 0.0
C7 C 0.89795 0.41019 0.17598 0.0
C8 C 0.92972 0.4335 0.17516 0.0
C9 C 0.02368 0.51359 0.1226 0.0
C10 C 0.95717 0.5372 0.15251 0.0
C11 C 0.06534 0.62957 0.13176 0.0
C12 C 0.09841 0.65483 0.13443 0.0
C13 C 0.09962 0.68453 0.13996 0.0
C14 C 0.13057 0.70766 0.14526 0.0
C15 C 0.16093 0.70151 0.1451 0.0
C16 C 0.15978 0.67213 0.13867 0.0
C17 C 0.12884 0.64903 0.13338 0.0
C18 C 0.03252 0.56835 0.19188 0.0
C19 C 0.09817 0.54457 0.1605 0.0
O20 O 0.99419 0.48085 0.19242 0.0
O21 O 0.0064 0.45672 0.16706 0.0
O22 O 0.00977 0.52799 0.13324 0.0
O23 O 0.03355 0.49444 0.13351 0.0
O24 O 0.97946 0.55866 0.14192 0.0
O25 O 0.96653 0.51801 0.16436 0.0
O26 O 0.06519 0.60365 0.12366 0.0
O27 O 0.04552 0.62523 0.14716 0.0
O28 O 0.04652 0.55454 0.18088 0.0
O29 O 0.02139 0.58688 0.1812 0.0
O30 O 0.07618 0.52262 0.17093 0.0
O31 O 0.08866 0.56449 0.14948 0.0
H32 H 0.9762 0.3993 0.20371 0.0
H33 H 0.92052 0.35835 0.20527 0.0
H34 H 0.87645 0.41352 0.16801 0.0
H35 H 0.93218 0.4544 0.16669 0.0
H36 H 0.07648 0.68951 0.14093 0.0
H37 H 0.13051 0.72994 0.15034 0.0
H38 H 0.18276 0.66681 0.13806 0.0
H39 H 0.12872 0.62641 0.12902 0.0
Pr40 Pr 0.53942 0.02953 0.52688 0.0
Pr41 Pr 0.46374 1.00513 0.53316 0.0
C42 C 0.6026 0.05882 0.5143 0.0
C43 C 0.62742 0.09052 0.51327 0.0
C44 C 0.66177 0.09569 0.51767 0.0
C45 C 0.68586 0.12551 0.51657 0.0
C46 C 0.676 0.15074 0.51099 0.0
C47 C 0.64146 0.1455 0.50675 0.0
C48 C 0.61737 0.11567 0.50793 0.0
C49 C 0.52187 0.02241 0.56769 0.0
C50 C 0.4989 0.08014 0.53087 0.0
C51 C 0.40054 0.97473 0.54531 0.0
C52 C 0.37569 0.9434 0.54204 0.0
C53 C 0.38317 0.92205 0.52977 0.0
C54 C 0.35911 0.89255 0.52613 0.0
C55 C 0.32714 0.88387 0.53472 0.0
C56 C 0.32003 0.90531 0.54725 0.0
C57 C 0.34413 0.93485 0.55086 0.0
C58 C 0.48014 0.01271 0.49225 0.0
C59 C 0.50509 0.95475 0.53065 0.0
O60 O 0.57548 0.05206 0.50214 0.0
O61 O 0.59641 0.04694 0.53254 0.0
O62 O 0.50824 0.03372 0.55385 0.0
O63 O 0.54667 0.01522 0.56093 0.0
O64 O 0.47355 0.05765 0.53871 0.0
O65 O 0.52472 0.07448 0.52327 0.0
O66 O 0.42774 0.97668 0.55643 0.0
O67 O 0.407 0.99234 0.52914 0.0
O68 O 0.49465 1.00127 0.50565 0.0
O69 O 0.45528 0.0191 0.4996 0.0
O70 O 0.53086 0.97703 0.52307 0.0
O71 O 0.47868 0.96045 0.53726 0.0
H72 H 0.67001 0.07657 0.52181 0.0
H73 H 0.71229 0.12871 0.51968 0.0
H74 H 0.63303 0.16451 0.50263 0.0
H75 H 0.59094 0.11226 0.50459 0.0
H76 H 0.40747 0.92836 0.52281 0.0
H77 H 0.36531 0.8768 0.51621 0.0
H78 H 0.29587 0.89924 0.55433 0.0
H79 H 0.33805 0.95106 0.56043 0.0
Pr80 Pr 0.51039 0.50468 0.80803 0.0
Pr81 Pr 0.54257 0.57561 0.82678 0.0
C82 C 0.49493 0.4533 0.78488 0.0
C83 C 0.50514 0.42615 0.78365 0.0
C84 C 0.5256 0.41983 0.79925 0.0
C85 C 0.53372 0.39298 0.79835 0.0
C86 C 0.52151 0.37214 0.78182 0.0
C87 C 0.5019 0.37923 0.76593 0.0
C88 C 0.49374 0.406 0.76688 0.0
C89 C 0.51434 0.51052 0.85045 0.0
C90 C 0.59487 0.53786 0.81735 0.0
C91 C 0.56017 0.62449 0.85224 0.0
C92 C 0.55192 0.65281 0.85324 0.0
C93 C 0.54474 0.66652 0.83525 0.0
C94 C 0.53377 0.69167 0.8363 0.0
C95 C 0.52946 0.70335 0.85534 0.0
C96 C 0.5372 0.68987 0.87334 0.0
C97 C 0.54842 0.66479 0.87228 0.0
C98 C 0.53012 0.57523 0.78411 0.0
C99 C 0.45921 0.54221 0.81669 0.0
O100 O 0.51762 0.47982 0.77997 0.0
O101 O 0.47824 0.45499 0.80097 0.0
O102 O 0.53595 0.52684 0.83845 0.0
O103 O 0.49092 0.48799 0.84073 0.0
O104 O 0.59118 0.56249 0.82573 0.0
O105 O 0.56905 0.51435 0.80943 0.0
O106 O 0.53494 0.5987 0.8555 0.0
O107 O 0.57884 0.62251 0.83714 0.0
O108 O 0.52424 0.55306 0.79621 0.0
O109 O 0.54406 0.60089 0.79446 0.0
O110 O 0.46455 0.5218 0.80447 0.0
O111 O 0.48358 0.56143 0.82867 0.0
H112 H 0.53472 0.43535 0.81227 0.0
H113 H 0.54863 0.38806 0.8109 0.0
H114 H 0.49261 0.36394 0.75282 0.0
H115 H 0.47816 0.41076 0.75464 0.0
H116 H 0.5467 0.65726 0.82039 0.0
H117 H 0.52741 0.7012 0.82217 0.0
H118 H 0.5342 0.69848 0.88821 0.0
H119 H 0.55357 0.65426 0.8863 0.0
O120 O 0.51965 0.0944 0.27342 0.0
Cd121 Cd 0.51372 0.10621 0.23731 0.0
O122 O 0.5001 0.04584 0.26403 0.0
Cd123 Cd 0.47778 0.99548 0.26601 0.0
O124 O 0.44522 0.94961 0.25536 0.0
C125 C 0.44402 0.94444 0.23625 0.0
O126 O 0.46334 0.96611 0.22448 0.0
C127 C 0.51083 0.06601 0.27824 0.0
C128 C 0.57324 0.14956 0.22385 0.0
O129 O 0.55014 0.15806 0.23112 0.0
O130 O 0.56801 0.12049 0.22281 0.0
O131 O 0.50558 0.48494 0.56633 0.0
Cd132 Cd 0.49866 0.45509 0.53411 0.0
O133 O 0.50091 0.52818 0.55409 0.0
Cd134 Cd 0.50115 0.5766 0.55493 0.0
O135 O 0.49764 0.62364 0.55368 0.0
C136 C 0.52067 0.64646 0.54595 0.0
O137 O 0.54715 0.64191 0.53878 0.0
C138 C 0.50503 0.51211 0.5693 0.0
C139 C 0.50037 0.39438 0.53755 0.0
O140 O 0.52738 0.41774 0.53483 0.0
O141 O 0.47272 0.39968 0.53916 0.0
O142 O 0.05849 0.5454 0.89379 0.0
Cd143 Cd 0.06303 0.55016 0.85668 0.0
O144 O 1.00505 0.51435 0.8938 0.0
Cd145 Cd 0.99046 0.51867 0.8618 0.0
O146 O 0.94539 0.5215 0.84523 0.0
C147 C 0.91738 0.50239 0.85096 0.0
O148 O 0.91797 0.48182 0.86485 0.0
C149 C 0.03301 0.52864 0.9034 0.0
C150 C 0.12592 0.54854 0.84595 0.0
O151 O 0.12238 0.57406 0.85083 0.0
O152 O 0.09964 0.52381 0.84584 0.0
O153 O 0.03249 0.53924 0.4217 0.0
Cd154 Cd 0.03146 0.53481 0.45893 0.0
O155 O 0.9772 0.51864 0.41642 0.0
Cd156 Cd 0.96583 0.50202 0.44755 0.0
O157 O 0.93612 0.46318 0.46613 0.0
C158 C 0.9287 0.4368 0.45761 0.0
O159 O 0.94034 0.43535 0.4395 0.0
C160 C 0.00649 0.53177 0.40956 0.0
C161 C 0.07798 0.58897 0.47641 0.0
O162 O 0.08669 0.56567 0.47256 0.0
O163 O 0.04712 0.58642 0.47237 0.0
O164 O 0.34678 0.95689 0.76464 0.0
Cd165 Cd 0.32086 0.94673 0.7978 0.0
O166 O 0.3953 0.97337 0.78213 0.0
Cd167 Cd 0.44959 0.99963 0.78518 0.0
O168 O 0.48955 0.04495 0.78662 0.0
C169 C 0.49374 0.0613 0.77057 0.0
O170 O 0.47633 0.04893 0.75371 0.0
C171 C 0.37894 0.96799 0.76495 0.0
C172 C 0.34925 0.90898 0.81929 0.0
O173 O 0.36288 0.93854 0.82049 0.0
O174 O 0.32156 0.89739 0.80853 0.0
O175 O 0.54077 0.52275 0.08045 0.0
Cd176 Cd 0.54595 0.52052 0.11774 0.0
O177 O 0.5073 0.5503 0.07773 0.0
Cd178 Cd 0.49259 0.54832 0.10949 0.0
O179 O 0.45011 0.54707 0.12805 0.0
C180 C 0.43585 0.56642 0.12312 0.0
O181 O 0.44868 0.58636 0.10856 0.0
C182 C 0.52538 0.53701 0.06951 0.0
C183 C 0.61095 0.52084 0.12883 0.0
O184 O 0.58628 0.49539 0.12522 0.0
O185 O 0.60476 0.54612 0.12764 0.0
H186 H 0.12712 0.50606 0.17947 0.0
H187 H 0.18629 0.50933 0.17889 0.0
H188 H 0.20949 0.59127 0.14177 0.0
H189 H 0.1508 0.58836 0.14237 0.0
H190 H 0.22168 0.50725 0.14424 0.0
H191 H 0.28465 0.61738 0.18665 0.0
H192 H 0.23971 0.59614 0.18736 0.0
H193 H 0.25667 0.62077 0.16606 0.0
C194 C 0.14489 0.52497 0.17136 0.0
C195 C 0.13417 0.54701 0.161 0.0
C196 C 0.17868 0.52679 0.17105 0.0
C197 C 0.20241 0.55083 0.16057 0.0
C198 C 0.19182 0.57292 0.15035 0.0
H199 H 0.39988 0.60449 0.11532 0.0
H200 H 0.34417 0.59924 0.12718 0.0
C201 C 0.15811 0.57109 0.15059 0.0
C202 C 0.23775 0.55185 0.1591 0.0
H203 H 0.3202 0.59934 0.16647 0.0
C204 C 0.24328 0.52712 0.1494 0.0
C205 C 0.26583 0.57783 0.16585 0.0
C206 C 0.26149 0.60441 0.17724 0.0
C207 C 0.27612 0.52837 0.1453 0.0
C208 C 0.30417 0.55485 0.15141 0.0
C209 C 0.29867 0.57909 0.16177 0.0
C210 C 0.33909 0.55891 0.1457 0.0
C211 C 0.28037 0.50205 0.13353 0.0
C212 C 0.35517 0.53842 0.1526 0.0
C213 C 0.38713 0.5413 0.14578 0.0
C214 C 0.40357 0.56482 0.13201 0.0
C215 C 0.38791 0.586 0.12582 0.0
C216 C 0.35605 0.58309 0.13262 0.0
H217 H 0.256 0.48648 0.12643 0.0
H218 H 0.29869 0.51103 0.12132 0.0
H219 H 0.2904 0.48808 0.14411 0.0
H220 H 0.34278 0.51993 0.16301 0.0
H221 H 0.39857 0.52471 0.15094 0.0
H222 H 0.73065 0.17966 0.53689 0.0
H223 H 0.77451 0.23061 0.5328 0.0
H224 H 0.72397 0.24346 0.47656 0.0
H225 H 0.68002 0.19274 0.48061 0.0
H226 H 0.81796 0.24992 0.50238 0.0
H227 H 0.74068 0.3248 0.5057 0.0
H228 H 0.72519 0.28478 0.5135 0.0
H229 H 0.7239 0.29461 0.48686 0.0
C230 C 0.72883 0.19342 0.5237 0.0
C231 C 0.7018 0.18222 0.5091 0.0
C232 C 0.75382 0.22256 0.52143 0.0
C233 C 0.75222 0.24109 0.50457 0.0
C234 C 0.72523 0.22998 0.49 0.0
H235 H 0.9078 0.37791 0.44246 0.0
H236 H 0.86705 0.33139 0.45658 0.0
C237 C 0.70016 0.20093 0.49231 0.0
C238 C 0.77984 0.27113 0.50144 0.0
H239 H 0.79508 0.34738 0.49095 0.0
C240 C 0.81302 0.27132 0.50016 0.0
C241 C 0.77355 0.29917 0.49892 0.0
C242 C 0.73895 0.30095 0.50153 0.0
C243 C 0.83976 0.29846 0.49542 0.0
C244 C 0.833 0.32598 0.49145 0.0
C245 C 0.80017 0.32618 0.49375 0.0
C246 C 0.85906 0.3542 0.48362 0.0
C247 C 0.87497 0.29731 0.49457 0.0
C248 C 0.86769 0.38271 0.49393 0.0
C249 C 0.89091 0.40956 0.48578 0.0
C250 C 0.90566 0.40835 0.46709 0.0
C251 C 0.8971 0.37969 0.45693 0.0
C252 C 0.87394 0.35296 0.46506 0.0
H253 H 0.87791 0.27844 0.50427 0.0
H254 H 0.87967 0.29264 0.47859 0.0
H255 H 0.89448 0.31961 0.49965 0.0
H256 H 0.85629 0.3842 0.50821 0.0
H257 H 0.89688 0.43129 0.49394 0.0
H258 H 0.47943 0.70595 0.87954 0.0
H259 H 0.45004 0.74326 0.87763 0.0
H260 H 0.51646 0.79362 0.83109 0.0
H261 H 0.54598 0.75641 0.83289 0.0
H262 H 0.47135 0.80926 0.88154 0.0
H263 H 0.42067 0.76654 0.80337 0.0
H264 H 0.44053 0.74616 0.82022 0.0
H265 H 0.466 0.77953 0.8065 0.0
C266 C 0.48823 0.72535 0.86921 0.0
C267 C 0.51476 0.72812 0.8562 0.0
C268 C 0.47136 0.74655 0.8681 0.0
C269 C 0.48076 0.7708 0.85398 0.0
C270 C 0.50848 0.77468 0.84182 0.0
H271 H 0.41311 0.92629 0.83696 0.0
H272 H 0.44388 0.89238 0.84794 0.0
C273 C 0.52526 0.75344 0.84285 0.0
C274 C 0.46012 0.79069 0.85091 0.0
H275 H 0.41 0.81039 0.81526 0.0
C276 C 0.45783 0.80953 0.86709 0.0
C277 C 0.44207 0.79046 0.83215 0.0
C278 C 0.44209 0.76939 0.81461 0.0
C279 C 0.43842 0.82874 0.86484 0.0
C280 C 0.42132 0.82927 0.84583 0.0
C281 C 0.42323 0.81001 0.8298 0.0
C282 C 0.40158 0.84983 0.84189 0.0
C283 C 0.43603 0.84793 0.88287 0.0
C284 C 0.36758 0.83717 0.83487 0.0
C285 C 0.35007 0.85646 0.82834 0.0
C286 C 0.36626 0.8888 0.82872 0.0
C287 C 0.39987 0.90147 0.83659 0.0
C288 C 0.41746 0.88212 0.843 0.0
H289 H 0.44214 0.83838 0.89755 0.0
H290 H 0.45448 0.87181 0.8814 0.0
H291 H 0.41032 0.84923 0.88344 0.0
H292 H 0.35491 0.81229 0.83384 0.0
H293 H 0.32418 0.846 0.82241 0.0
H294 H 0.90456 0.49819 0.17369 0.0
H295 H 0.84489 0.49336 0.17075 0.0
H296 H 0.86815 0.56451 0.12485 0.0
H297 H 0.92778 0.5695 0.12759 0.0
H298 H 0.81651 0.54124 0.17655 0.0
H299 H 0.78972 0.49049 0.09822 0.0
H300 H 0.82612 0.49088 0.11396 0.0
H301 H 0.82624 0.52535 0.10091 0.0
C302 C 0.89702 0.51277 0.16291 0.0
C303 C 0.92099 0.53417 0.15081 0.0
C304 C 0.86291 0.51 0.1613 0.0
C305 C 0.85208 0.52833 0.14743 0.0
C306 C 0.87592 0.54982 0.13543 0.0
H307 H 0.66793 0.57075 0.13867 0.0
H308 H 0.72585 0.57142 0.14447 0.0
C309 C 0.91004 0.55272 0.13709 0.0
C310 C 0.81593 0.52533 0.14565 0.0
H311 H 0.74728 0.50625 0.11214 0.0
C312 C 0.80128 0.53345 0.16252 0.0
C313 C 0.79607 0.51484 0.1274 0.0
C314 C 0.81015 0.50461 0.10912 0.0
C315 C 0.76747 0.5321 0.16143 0.0
C316 C 0.74796 0.52261 0.14294 0.0
C317 C 0.76238 0.51374 0.12625 0.0
C318 C 0.71262 0.52198 0.14047 0.0
C319 C 0.7528 0.54064 0.18009 0.0
C320 C 0.686 0.49399 0.1361 0.0
C321 C 0.65285 0.49352 0.13277 0.0
C322 C 0.64575 0.5211 0.13353 0.0
C323 C 0.67248 0.54908 0.13805 0.0
C324 C 0.70559 0.5495 0.14147 0.0
H325 H 0.76801 0.53997 0.19426 0.0
H326 H 0.75256 0.56452 0.17835 0.0
H327 H 0.72633 0.52477 0.18186 0.0
H328 H 0.69092 0.47252 0.13516 0.0
H329 H 0.6329 0.47159 0.12926 0.0
H330 H 0.3361 0.82788 0.53229 0.0
H331 H 0.29345 0.77742 0.52326 0.0
H332 H 0.21648 0.81897 0.51863 0.0
H333 H 0.25906 0.86964 0.52687 0.0
H334 H 0.23429 0.74319 0.5425 0.0
H335 H 0.20539 0.77466 0.46362 0.0
H336 H 0.24211 0.79811 0.47874 0.0
H337 H 0.20117 0.8002 0.48301 0.0
C338 C 0.31016 0.82635 0.52915 0.0
C339 C 0.30107 0.85288 0.53017 0.0
C340 C 0.28579 0.79746 0.52414 0.0
C341 C 0.25192 0.79455 0.51996 0.0
C342 C 0.2426 0.8208 0.52143 0.0
H343 H 0.06784 0.64313 0.48434 0.0
H344 H 0.11 0.69235 0.49612 0.0
C345 C 0.26693 0.8497 0.52639 0.0
C346 C 0.22631 0.76405 0.5141 0.0
H347 H 0.16937 0.72629 0.4759 0.0
C348 C 0.22018 0.73942 0.52791 0.0
C349 C 0.208 0.75921 0.49503 0.0
C350 C 0.21465 0.78434 0.47915 0.0
C351 C 0.1957 0.71021 0.52333 0.0
C352 C 0.17724 0.70547 0.50433 0.0
C353 C 0.18345 0.73007 0.4905 0.0
C354 C 0.15153 0.67512 0.49833 0.0
C355 C 0.18931 0.68484 0.539 0.0
C356 C 0.16094 0.64912 0.49566 0.0
C357 C 0.13692 0.62095 0.4889 0.0
C358 C 0.10306 0.61831 0.48463 0.0
C359 C 0.09367 0.64434 0.48754 0.0
C360 C 0.11772 0.6725 0.49425 0.0
H361 H 0.19938 0.69418 0.55449 0.0
H362 H 0.1618 0.67144 0.53973 0.0
H363 H 0.20209 0.66866 0.53458 0.0
H364 H 0.18703 0.6508 0.49836 0.0
H365 H 0.14503 0.60139 0.48673 0.0
H366 H 0.58005 0.36131 0.79271 0.0
H367 H 0.58848 0.31125 0.79335 0.0
H368 H 0.48526 0.26596 0.77093 0.0
H369 H 0.47631 0.31537 0.77084 0.0
H370 H 0.50491 0.23836 0.80577 0.0
H371 H 0.59579 0.25874 0.74342 0.0
H372 H 0.60569 0.28707 0.76372 0.0
H373 H 0.56992 0.28225 0.74651 0.0
C374 C 0.55917 0.34064 0.78796 0.0
C375 C 0.52756 0.34232 0.7816 0.0
C376 C 0.56413 0.31216 0.78815 0.0
C377 C 0.53759 0.28505 0.78197 0.0
C378 C 0.50612 0.28671 0.77563 0.0
H379 H 0.49773 0.10436 0.74098 0.0
H380 H 0.51704 0.16041 0.7456 0.0
C381 C 0.50113 0.31501 0.77544 0.0
C382 C 0.5416 0.25447 0.78265 0.0
H383 H 0.57652 0.20897 0.75781 0.0
C384 C 0.52096 0.23197 0.79554 0.0
C385 C 0.56252 0.2464 0.7692 0.0
C386 C 0.58468 0.26972 0.7548 0.0
C387 C 0.51932 0.20113 0.79468 0.0
C388 C 0.53952 0.19275 0.78081 0.0
C389 C 0.56132 0.21557 0.76853 0.0
C390 C 0.53483 0.15985 0.77708 0.0
C391 C 0.49435 0.17747 0.80769 0.0
C392 C 0.54005 0.14111 0.79292 0.0
C393 C 0.52866 0.10894 0.79041 0.0
C394 C 0.51221 0.09511 0.77192 0.0
C395 C 0.50997 0.11422 0.75548 0.0
C396 C 0.52111 0.14632 0.75807 0.0
H397 H 0.47637 0.18686 0.81463 0.0
H398 H 0.47954 0.15661 0.79848 0.0
H399 H 0.50831 0.17019 0.82028 0.0
H400 H 0.55128 0.15122 0.80757 0.0
H401 H 0.5312 0.09488 0.80328 0.0
H402 H 0.45646 0.90271 0.54508 0.0
H403 H 0.4584 0.85042 0.54817 0.0
H404 H 0.5565 0.88138 0.52188 0.0
H405 H 0.55507 0.93383 0.51905 0.0
H406 H 0.4636 0.80977 0.51897 0.0
H407 H 0.5743 0.83991 0.57391 0.0
H408 H 0.55185 0.86606 0.56813 0.0
H409 H 0.58237 0.8624 0.55095 0.0
C410 C 0.47855 0.89849 0.54 0.0
C411 C 0.50576 0.92268 0.53196 0.0
C412 C 0.47957 0.8685 0.54176 0.0
C413 C 0.50787 0.86199 0.53563 0.0
C414 C 0.53473 0.88592 0.52719 0.0
H415 H 0.56607 0.69961 0.53081 0.0
H416 H 0.56149 0.75091 0.52844 0.0
C417 C 0.53377 0.91592 0.52545 0.0
C418 C 0.50908 0.83013 0.53782 0.0
H419 H 0.55571 0.78933 0.55933 0.0
C420 C 0.48362 0.80527 0.52791 0.0
C421 C 0.53516 0.82416 0.54951 0.0
C422 C 0.5623 0.84947 0.5614 0.0
C423 C 0.48403 0.77487 0.52891 0.0
C424 C 0.51032 0.76898 0.54042 0.0
C425 C 0.5356 0.7938 0.55047 0.0
C426 C 0.51256 0.73742 0.54188 0.0
C427 C 0.45684 0.74948 0.51712 0.0
C428 C 0.48675 0.71264 0.55046 0.0
C429 C 0.48928 0.68312 0.55185 0.0
C430 C 0.51778 0.67776 0.54476 0.0
C431 C 0.5437 0.70275 0.53638 0.0
C432 C 0.54116 0.73219 0.53503 0.0
H433 H 0.44372 0.75892 0.50516 0.0
H434 H 0.46762 0.73364 0.50972 0.0
H435 H 0.43766 0.7357 0.52782 0.0
H436 H 0.46473 0.71618 0.55626 0.0
H437 H 0.46891 0.66452 0.55849 0.0
H438 H 0.65468 0.58147 0.83118 0.0
H439 H 0.71064 0.57694 0.83358 0.0
H440 H 0.66886 0.48488 0.80773 0.0
H441 H 0.61282 0.48927 0.80496 0.0
H442 H 0.72871 0.53442 0.85602 0.0
H443 H 0.75211 0.52451 0.77408 0.0
H444 H 0.71932 0.53784 0.78244 0.0
H445 H 0.71261 0.49713 0.78192 0.0
C446 C 0.65736 0.56034 0.82579 0.0
C447 C 0.62916 0.53574 0.81786 0.0
C448 C 0.68942 0.55782 0.82717 0.0
C449 C 0.69403 0.53075 0.82058 0.0
C450 C 0.66605 0.50625 0.81248 0.0
H451 H 0.85396 0.46486 0.8606 0.0
H452 H 0.80034 0.47207 0.8521 0.0
C453 C 0.63395 0.50875 0.81104 0.0
C454 C 0.72764 0.52743 0.82346 0.0
H455 H 0.78971 0.51268 0.79833 0.0
C456 C 0.74212 0.52985 0.84338 0.0
C457 C 0.74528 0.52179 0.80694 0.0
C458 C 0.73174 0.52045 0.78511 0.0
C459 C 0.77339 0.52611 0.8473 0.0
C460 C 0.7904 0.51926 0.83089 0.0
C461 C 0.7764 0.51759 0.81089 0.0
C462 C 0.82261 0.51352 0.83439 0.0
C463 C 0.78807 0.52972 0.86898 0.0
C464 C 0.85276 0.53377 0.82656 0.0
C465 C 0.88359 0.52966 0.83133 0.0
C466 C 0.88467 0.50513 0.84395 0.0
C467 C 0.85413 0.48415 0.85099 0.0
C468 C 0.82343 0.48828 0.84622 0.0
H469 H 0.77644 0.5425 0.87875 0.0
H470 H 0.78318 0.50645 0.87569 0.0
H471 H 0.81589 0.54215 0.86938 0.0
H472 H 0.85258 0.5533 0.81729 0.0
H473 H 0.90662 0.54617 0.82561 0.0
H474 H 0.2104 0.69209 0.16976 0.0
H475 H 0.26142 0.73118 0.18482 0.0
H476 H 0.23547 0.80303 0.15358 0.0
H477 H 0.18449 0.76405 0.13823 0.0
H478 H 0.31701 0.77738 0.1667 0.0
H479 H 0.24357 0.82742 0.21481 0.0
H480 H 0.2249 0.79026 0.20217 0.0
H481 H 0.23194 0.82534 0.18797 0.0
C482 C 0.21581 0.71615 0.16579 0.0
C483 C 0.19327 0.725 0.15287 0.0
C484 C 0.24489 0.73845 0.1745 0.0
C485 C 0.25186 0.76995 0.17055 0.0
C486 C 0.23013 0.77882 0.1571 0.0
H487 H 0.43253 0.92851 0.19577 0.0
H488 H 0.3876 0.88398 0.18039 0.0
C489 C 0.20103 0.75655 0.14838 0.0
C490 C 0.28129 0.79361 0.18099 0.0
H491 H 0.30273 0.85464 0.21431 0.0
C492 C 0.31398 0.79424 0.17717 0.0
C493 C 0.27712 0.81514 0.19491 0.0
C494 C 0.24251 0.81445 0.2004 0.0
C495 C 0.34275 0.81647 0.18654 0.0
C496 C 0.33859 0.83876 0.19985 0.0
C497 C 0.30585 0.83761 0.20402 0.0
C498 C 0.36773 0.86408 0.20925 0.0
C499 C 0.37727 0.8157 0.18227 0.0
C500 C 0.37134 0.86779 0.23059 0.0
C501 C 0.39686 0.89339 0.23946 0.0
C502 C 0.41908 0.91584 0.2271 0.0
C503 C 0.41591 0.91161 0.20574 0.0
C504 C 0.39037 0.88604 0.19691 0.0
H505 H 0.37575 0.79251 0.17675 0.0
H506 H 0.3886 0.83275 0.17019 0.0
H507 H 0.39444 0.8219 0.19616 0.0
H508 H 0.354 0.85115 0.24038 0.0
H509 H 0.39861 0.89595 0.25595 0.0
H510 H 0.44827 0.10043 0.54206 0.0
H511 H 0.44904 0.15372 0.54303 0.0
H512 H 0.55124 0.18669 0.52257 0.0
H513 H 0.55041 0.13351 0.5211 0.0
H514 H 0.48875 0.2032 0.56528 0.0
H515 H 0.5072 0.22972 0.48297 0.0
H516 H 0.49614 0.19087 0.49272 0.0
H517 H 0.53932 0.21717 0.49474 0.0
C518 C 0.47086 0.11898 0.53762 0.0
C519 C 0.49918 0.11254 0.53134 0.0
C520 C 0.47127 0.1495 0.53822 0.0
C521 C 0.49996 0.17432 0.53252 0.0
C522 C 0.52844 0.16798 0.52651 0.0
H523 H 0.55378 0.37525 0.53106 0.0
H524 H 0.55384 0.32214 0.53058 0.0
C525 C 0.52798 0.13747 0.52579 0.0
C526 C 0.50036 0.20682 0.53344 0.0
H527 H 0.51282 0.2722 0.50498 0.0
C528 C 0.49383 0.2182 0.55205 0.0
C529 C 0.50703 0.22654 0.5162 0.0
C530 C 0.51249 0.21541 0.49548 0.0
C531 C 0.4943 0.24874 0.55397 0.0
C532 C 0.50112 0.26846 0.53677 0.0
C533 C 0.50773 0.25714 0.51818 0.0
C534 C 0.50116 0.30078 0.53768 0.0
C535 C 0.48813 0.25987 0.57452 0.0
C536 C 0.47148 0.30653 0.54173 0.0
C537 C 0.47133 0.33689 0.54196 0.0
C538 C 0.50087 0.36222 0.53813 0.0
C539 C 0.53061 0.35637 0.53417 0.0
C540 C 0.53068 0.32599 0.53384 0.0
H541 H 0.49157 0.24482 0.58713 0.0
H542 H 0.50546 0.28399 0.57765 0.0
H543 H 0.46173 0.25956 0.57454 0.0
H544 H 0.44824 0.28747 0.54439 0.0
H545 H 0.44794 0.34047 0.54496 0.0
H546 H 0.39979 0.49989 0.80101 0.0
H547 H 0.3424 0.50068 0.80384 0.0
H548 H 0.38264 0.58719 0.83703 0.0
H549 H 0.44002 0.58664 0.83441 0.0
H550 H 0.31175 0.5055 0.84361 0.0
H551 H 0.31844 0.60052 0.78916 0.0
H552 H 0.34619 0.57836 0.78821 0.0
H553 H 0.35341 0.60767 0.80751 0.0
C554 C 0.3965 0.51924 0.80876 0.0
C555 C 0.42455 0.54321 0.81748 0.0
C556 C 0.36368 0.51959 0.8104 0.0
C557 C 0.35838 0.54411 0.82049 0.0
C558 C 0.38628 0.56823 0.82898 0.0
H559 H 0.18747 0.59518 0.85022 0.0
H560 H 0.24312 0.59291 0.84364 0.0
C561 C 0.41904 0.56778 0.82754 0.0
C562 C 0.32361 0.54395 0.82291 0.0
H563 H 0.27001 0.58225 0.8091 0.0
C564 C 0.30243 0.52209 0.83597 0.0
C565 C 0.31179 0.5658 0.81303 0.0
C566 C 0.33345 0.58935 0.79856 0.0
C567 C 0.26992 0.52199 0.83985 0.0
C568 C 0.25795 0.54382 0.82992 0.0
C569 C 0.27913 0.56549 0.81668 0.0
C570 C 0.22391 0.5451 0.83344 0.0
C571 C 0.24927 0.49923 0.85513 0.0
C572 C 0.19447 0.51915 0.82956 0.0
C573 C 0.16261 0.52029 0.8335 0.0
C574 C 0.15952 0.54758 0.84109 0.0
C575 C 0.18895 0.57379 0.8444 0.0
C576 C 0.2208 0.57254 0.84063 0.0
H577 H 0.26544 0.49047 0.86547 0.0
H578 H 0.23505 0.50991 0.86461 0.0
H579 H 0.23079 0.47907 0.84682 0.0
H580 H 0.19612 0.49798 0.82348 0.0
H581 H 0.14043 0.49978 0.8306 0.0
H582 H 0.87842 0.32018 0.18272 0.0
H583 H 0.82303 0.27945 0.18587 0.0
H584 H 0.77842 0.3487 0.19656 0.0
H585 H 0.83366 0.38953 0.19342 0.0
H586 H 0.78403 0.26755 0.21964 0.0
H587 H 0.71365 0.29411 0.15283 0.0
H588 H 0.75925 0.3099 0.15586 0.0
H589 H 0.73379 0.32677 0.16947 0.0
C590 C 0.85678 0.32671 0.18571 0.0
C591 C 0.86037 0.35805 0.18781 0.0
C592 C 0.82516 0.30345 0.18739 0.0
C593 C 0.79656 0.31109 0.19113 0.0
C594 C 0.80001 0.34234 0.19315 0.0
H595 H 0.59151 0.21259 0.22407 0.0
H596 H 0.64585 0.25083 0.21502 0.0
C597 C 0.8316 0.36563 0.19141 0.0
C598 C 0.76356 0.28632 0.19422 0.0
H599 H 0.68064 0.25882 0.17724 0.0
C600 C 0.76148 0.26542 0.21025 0.0
C601 C 0.73423 0.2837 0.18195 0.0
C602 C 0.7353 0.30462 0.16394 0.0
C603 C 0.73061 0.24245 0.21472 0.0
C604 C 0.7012 0.24011 0.20264 0.0
C605 C 0.7033 0.26077 0.18646 0.0
C606 C 0.66786 0.21683 0.20697 0.0
C607 C 0.7295 0.22145 0.23271 0.0
C608 C 0.66213 0.1851 0.20503 0.0
C609 C 0.63116 0.16319 0.21021 0.0
C610 C 0.60537 0.17268 0.21735 0.0
C611 C 0.61091 0.20453 0.21871 0.0
C612 C 0.64188 0.2264 0.21351 0.0
H613 H 0.75254 0.23053 0.24298 0.0
H614 H 0.70692 0.21844 0.24175 0.0
H615 H 0.72775 0.19831 0.22702 0.0
H616 H 0.68175 0.17731 0.1997 0.0
H617 H 0.62761 0.13884 0.20886 0.0
H618 H 0.04161 0.47672 0.0967 0.0
H619 H 0.0456 0.48129 0.05958 0.0
H620 H 0.0172 0.56248 0.06106 0.0
H621 H 0.01178 0.55718 0.09815 0.0
H622 H 0.98368 0.52538 0.03111 0.0
H623 H 0.11889 0.53966 0.02718 0.0
H624 H 0.09563 0.50467 0.04003 0.0
H625 H 0.09979 0.5416 0.05101 0.0
C626 C 0.03633 0.49559 0.08909 0.0
C627 C 0.02647 0.51665 0.10025 0.0
C628 C 0.03893 0.49836 0.06791 0.0
C629 C 0.03248 0.52265 0.05755 0.0
C630 C 0.02253 0.54367 0.06873 0.0
H631 H 0.08052 0.56761 0.93002 0.0
H632 H 0.08067 0.56719 0.96743 0.0
C633 C 0.01945 0.54065 0.08989 0.0
C634 C 0.03458 0.52527 0.03498 0.0
H635 H 0.08579 0.52723 0.99563 0.0
C636 C 0.00613 0.52605 0.02337 0.0
C637 C 0.06407 0.52673 0.02487 0.0
C638 C 0.09643 0.52847 0.03644 0.0
C639 C 1.00601 0.52745 0.00195 0.0
C640 C 0.03475 0.52696 0.99178 0.0
C641 C 0.06355 0.52706 0.0034 0.0
C642 C 0.03541 0.52644 0.96913 0.0
C643 C 0.97524 0.52996 0.9905 0.0
C644 C 0.01051 0.50319 0.95766 0.0
C645 C 0.01011 0.50361 0.93631 0.0
C646 C 0.03507 0.52691 0.92599 0.0
C647 C 0.06093 0.54935 0.93751 0.0
C648 C 0.06102 0.54917 0.95889 0.0
H649 H 0.96079 0.53996 1.00032 0.0
H650 H 0.98237 0.54455 0.97669 0.0
H651 H 0.95813 0.50648 0.98564 0.0
H652 H 0.99115 0.48482 0.96521 0.0
H653 H 0.9901 0.48575 0.92789 0.0
H654 H 0.53009 0.99939 0.47318 0.0
H655 H 0.54099 1.00357 0.43643 0.0
H656 H 0.45719 0.03545 0.42544 0.0
H657 H 0.44621 0.03135 0.46184 0.0
H658 H 0.45894 0.98629 0.39846 0.0
H659 H 0.57998 0.08716 0.40433 0.0
H660 H 0.57607 0.05434 0.42045 0.0
H661 H 0.5504 0.07739 0.42458 0.0
C662 C 0.51407 1.0073 0.46287 0.0
C663 C 0.48731 0.01505 0.47032 0.0
C664 C 0.52036 0.00974 0.44196 0.0
C665 C 0.49994 0.01994 0.42829 0.0
C666 C 0.47318 0.0275 0.43575 0.0
H667 H 0.50858 0.10028 0.31132 0.0
H668 H 0.50893 0.08627 0.34738 0.0
C669 C 0.46699 0.0252 0.45655 0.0
C670 C 0.50601 0.02297 0.40614 0.0
H671 H 0.55789 0.06943 0.3713 0.0
C672 C 0.48081 1.00412 0.39246 0.0
C673 C 0.53447 0.04643 0.39848 0.0
C674 C 0.5618 0.0677 0.41263 0.0
C675 C 0.48272 1.00879 0.37126 0.0
C676 C 0.51076 0.03278 0.3636 0.0
C677 C 0.53653 0.05097 0.37726 0.0
C678 C 0.51213 0.04125 0.34169 0.0
C679 C 0.45392 0.98911 0.35729 0.0
C680 C 0.51432 0.02073 0.32655 0.0
C681 C 0.51406 0.02868 0.30587 0.0
C682 C 0.51156 0.05724 0.30002 0.0
C683 C 0.51029 0.07801 0.3153 0.0
C684 C 0.51055 0.07008 0.33592 0.0
H685 H 0.43166 0.97504 0.36591 0.0
H686 H 0.44583 1.00385 0.34625 0.0
H687 H 0.46253 0.97307 0.34841 0.0
H688 H 0.5163 0.99864 0.33075 0.0
H689 H 0.51648 0.01272 0.29456 0.0
H690 H 0.55062 0.62141 0.75605 0.0
H691 H 0.54471 0.61629 0.71865 0.0
H692 H 0.49354 0.5177 0.72428 0.0
H693 H 0.49862 0.52289 0.76156 0.0
H694 H 0.5707 0.58306 0.69426 0.0
H695 H 0.43101 0.54071 0.68362 0.0
H696 H 0.45276 0.55783 0.70733 0.0
H697 H 0.44547 0.51786 0.7015 0.0
C698 C 0.5378 0.59873 0.74926 0.0
C699 C 0.52525 0.57249 0.76165 0.0
C700 C 0.53449 0.59582 0.72793 0.0
C701 C 0.51832 0.56668 0.71866 0.0
C702 C 0.50551 0.54051 0.73107 0.0
H703 H 0.54023 0.49788 0.60114 0.0
H704 H 0.54435 0.51464 0.63677 0.0
C705 C 0.50876 0.54343 0.75237 0.0
C706 C 0.51648 0.56328 0.69605 0.0
H707 H 0.46164 0.53362 0.65521 0.0
C708 C 0.54682 0.57258 0.68569 0.0
C709 C 0.48531 0.55004 0.68481 0.0
C710 C 0.45177 0.54133 0.69485 0.0
C711 C 0.54692 0.56782 0.66453 0.0
C712 C 0.51589 0.55288 0.65351 0.0
C713 C 0.48545 0.54478 0.66371 0.0
C714 C 0.51456 0.54405 0.63164 0.0
C715 C 0.5803 0.57876 0.6542 0.0
C716 C 0.49581 0.55446 0.61695 0.0
C717 C 0.4932 0.5447 0.59654 0.0
C718 C 0.50926 0.52431 0.59049 0.0
C719 C 0.52788 0.51387 0.60527 0.0
C720 C 0.53049 0.52362 0.62563 0.0
H721 H 0.59972 0.59772 0.66304 0.0
H722 H 0.58974 0.55921 0.65314 0.0
H723 H 0.57749 0.58707 0.63848 0.0
H724 H 0.48286 0.56983 0.62134 0.0
H725 H 0.47756 0.55217 0.58574 0.0
H726 H 0.46946 0.03529 0.58289 0.0
H727 H 0.45004 0.02793 0.61777 0.0
H728 H 0.52981 0.99335 0.63544 0.0
H729 H 0.54911 1.00019 0.60026 0.0
H730 H 0.46738 0.95682 0.64891 0.0
H731 H 0.49277 0.07984 0.66834 0.0
H732 H 0.4675 0.06786 0.64507 0.0
H733 H 0.51032 0.06825 0.64651 0.0
C734 C 0.48304 0.02632 0.59423 0.0
C735 C 0.51092 0.01847 0.58893 0.0
C736 C 0.47204 0.02233 0.61419 0.0
C737 C 0.48892 0.01072 0.6293 0.0
C738 C 0.51666 1.00263 0.62403 0.0
H739 H 0.44003 0.96379 0.75678 0.0
H740 H 0.46919 0.97525 0.72456 0.0
C741 C 0.52765 1.00655 0.60398 0.0
C742 C 0.47642 1.00574 0.65031 0.0
H743 H 0.45596 0.04213 0.69021 0.0
C744 C 0.46529 0.97552 0.65807 0.0
C745 C 0.47377 0.0302 0.66222 0.0
C746 C 0.48704 0.06341 0.65521 0.0
C747 C 0.45034 0.96891 0.6771 0.0
C748 C 0.44675 0.99323 0.68868 0.0
C749 C 0.45858 0.02354 0.68117 0.0
C750 C 0.42988 0.98746 0.7084 0.0
C751 C 0.43744 0.93585 0.6844 0.0
C752 C 0.39845 0.99107 0.71002 0.0
C753 C 0.3819 0.98482 0.72846 0.0
C754 C 0.39682 0.97536 0.74564 0.0
C755 C 0.42841 0.97195 0.74398 0.0
C756 C 0.44487 0.97806 0.72553 0.0
H757 H 0.4367 0.91915 0.67209 0.0
H758 H 0.45435 0.93315 0.69717 0.0
H759 H 0.41162 0.92985 0.69023 0.0
H760 H 0.38652 0.99831 0.69693 0.0
H761 H 0.3575 0.98751 0.7293 0.0
H762 H 0.47296 0.47433 0.87858 0.0
H763 H 0.47687 0.48179 0.91568 0.0
H764 H 0.56381 0.56531 0.9098 0.0
H765 H 0.561 0.55702 0.87276 0.0
H766 H 0.57448 0.5321 0.94035 0.0
H767 H 0.44815 0.54075 0.94788 0.0
H768 H 0.44518 0.50509 0.93581 0.0
H769 H 0.46632 0.54136 0.92338 0.0
C770 C 0.49284 0.49432 0.88521 0.0
C771 C 0.51645 0.5153 0.8728 0.0
C772 C 0.49487 0.49873 0.9064 0.0
C773 C 0.52011 0.52454 0.91552 0.0
C774 C 0.54392 0.54537 0.90311 0.0
H775 H 0.50957 0.57575 0.04237 0.0
H776 H 0.51117 0.57512 0.00509 0.0
C777 C 0.5422 0.54071 0.88195 0.0
C778 C 0.52238 0.52922 0.93805 0.0
H779 H 0.47606 0.53252 0.97884 0.0
C780 C 0.55304 0.53248 0.94875 0.0
C781 C 0.49465 0.53033 0.94901 0.0
C782 C 0.46187 0.52954 0.93839 0.0
C783 C 0.55647 0.53599 0.97012 0.0
C784 C 0.52809 0.53517 0.98118 0.0
C785 C 0.49771 0.53274 0.97043 0.0
C786 C 0.52913 0.5366 0.00389 0.0
C787 C 0.59064 0.54105 0.98052 0.0
C788 C 0.5387 0.51518 0.01568 0.0
C789 C 0.53834 0.51582 0.03703 0.0
C790 C 0.52763 0.53744 0.04699 0.0
C791 C 0.51792 0.55878 0.03516 0.0
C792 C 0.51879 0.55843 0.01385 0.0
H793 H 0.61143 0.55133 0.96989 0.0
H794 H 0.59516 0.55649 0.99409 0.0
H795 H 0.59182 0.51841 0.98559 0.0
H796 H 0.54578 0.4975 0.00839 0.0
H797 H 0.54558 0.49883 0.04568 0.0
H798 H 1.00392 0.59703 0.2178 0.0
H799 H 1.00124 0.59183 0.25502 0.0
H800 H 0.05521 0.52793 0.25374 0.0
H801 H 0.05749 0.53266 0.21647 0.0
H802 H 0.99932 0.50751 0.27734 0.0
H803 H 0.07822 0.62871 0.29773 0.0
H804 H 0.04322 0.62552 0.28018 0.0
H805 H 0.07656 0.61275 0.27244 0.0
C806 C 0.01534 0.58199 0.22548 0.0
C807 C 0.0311 0.5654 0.21431 0.0
C808 C 0.01398 0.57919 0.24674 0.0
C809 C 0.02857 0.55993 0.25717 0.0
C810 C 0.04401 0.54309 0.24599 0.0
H811 H 0.0652 0.55491 0.38894 0.0
H812 H 0.07093 0.56153 0.35198 0.0
C813 C 0.04533 0.54584 0.22473 0.0
C814 C 0.0268 0.55658 0.27968 0.0
H815 H 0.04842 0.5972 0.32467 0.0
C816 C 0.01018 0.52708 0.2877 0.0
C817 C 0.0414 0.58209 0.29317 0.0
C818 C 0.06115 0.61401 0.28549 0.0
C819 C 0.00715 0.52248 0.30885 0.0
C820 C 0.02057 0.5482 0.32229 0.0
C821 C 0.03783 0.57759 0.31431 0.0
C822 C 0.017 0.545 0.34471 0.0
C823 C 0.99 0.49005 0.31661 0.0
C824 C 0.9848 0.53414 0.35288 0.0
C825 C 0.98142 0.53023 0.37396 0.0
C826 C 0.01022 0.53738 0.38731 0.0
C827 C 0.0425 0.5491 0.3791 0.0
C828 C 0.04583 0.55291 0.35799 0.0
H829 H 0.98957 0.4723 0.30512 0.0
H830 H 1.0029 0.48603 0.33095 0.0
H831 H 0.9634 0.48675 0.3199 0.0
H832 H 0.96223 0.5286 0.34294 0.0
H833 H 0.95618 0.52141 0.37975 0.0
loop_
_geom_bond_atom_site_label_1
_geom_bond_atom_site_label_2
_geom_bond_distance
_geom_bond_site_symmetry_2
_ccdc_geom_bond_type
Pr0 C2 2.880 . S
Pr0 O20 2.562 . S
Pr0 O21 2.490 . S
Pr0 O22 2.695 1_655 S
Pr0 O23 2.512 . S
Pr0 O25 2.437 . S
Pr0 O28 2.434 . S
Pr0 O30 2.438 1_655 S
Pr1 C11 2.880 . S
Pr1 O22 2.436 . S
Pr1 O24 2.438 1_455 S
Pr1 O26 2.562 . S
Pr1 O27 2.490 . S
Pr1 O28 2.694 1_455 S
Pr1 O29 2.512 . S
Pr1 O31 2.437 . S
C2 Pr0 2.880 . S
C2 C3 1.491 . S
C2 O20 1.254 . S
C2 O21 1.225 . S
C3 C2 1.491 . S
C3 C4 1.392 . S
C3 C8 1.356 . S
C4 C3 1.392 . S
C4 C5 1.368 . S
C4 H32 0.929 . S
C5 C4 1.368 . S
C5 C6 1.386 . S
C5 H33 0.929 . S
C6 C5 1.386 . S
C6 C7 1.373 . S
C7 C6 1.373 . S
C7 C8 1.409 . S
C7 H34 0.931 . S
C8 C3 1.356 . S
C8 C7 1.409 . S
C8 H35 0.930 . S
C9 O22 1.270 . S
C9 O23 1.248 1_455 S
C10 O24 1.267 . S
C10 O25 1.278 . S
C11 Pr1 2.880 . S
C11 C12 1.491 . S
C11 O26 1.254 . S
C11 O27 1.225 . S
C12 C11 1.491 . S
C12 C13 1.392 . S
C12 C17 1.356 . S
C13 C12 1.392 . S
C13 C14 1.368 . S
C13 H36 0.929 . S
C14 C13 1.368 . S
C14 C15 1.386 . S
C14 H37 0.929 . S
C15 C14 1.386 . S
C15 C16 1.373 . S
C16 C15 1.373 . S
C16 C17 1.409 . S
C16 H38 0.931 . S
C17 C12 1.356 . S
C17 C16 1.409 . S
C17 H39 0.930 . S
C18 O28 1.269 1_455 S
C18 O29 1.248 . S
C19 O30 1.267 . S
C19 O31 1.278 . S
O20 Pr0 2.562 . S
O20 C2 1.254 . S
O21 Pr0 2.490 . S
O21 C2 1.225 . S
O22 Pr0 2.695 1_455 S
O22 Pr1 2.436 . S
O22 C9 1.270 . S
O23 Pr0 2.512 . S
O23 C9 1.248 1_655 S
O24 Pr1 2.438 1_655 S
O24 C10 1.267 . S
O25 Pr0 2.437 . S
O25 C10 1.278 . S
O26 Pr1 2.562 . S
O26 C11 1.254 . S
O27 Pr1 2.490 . S
O27 C11 1.225 . S
O28 Pr0 2.434 . S
O28 Pr1 2.694 1_655 S
O28 C18 1.269 1_655 S
O29 Pr1 2.512 . S
O29 C18 1.248 . S
O30 Pr0 2.438 1_455 S
O30 C19 1.267 . S
O31 Pr1 2.437 . S
O31 C19 1.278 . S
H32 C4 0.929 . S
H33 C5 0.929 . S
H34 C7 0.931 . S
H35 C8 0.930 . S
H36 C13 0.929 . S
H37 C14 0.929 . S
H38 C16 0.931 . S
H39 C17 0.930 . S
Pr40 C42 2.880 . S
Pr40 O60 2.562 . S
Pr40 O61 2.490 . S
Pr40 O62 2.695 . S
Pr40 O63 2.512 . S
Pr40 O65 2.437 . S
Pr40 O68 2.436 . S
Pr40 O70 2.438 1_545 S
Pr41 C51 2.880 1_545 S
Pr41 O62 2.436 . S
Pr41 O64 2.438 . S
Pr41 O66 2.562 1_545 S
Pr41 O67 2.490 1_545 S
Pr41 O68 2.695 . S
Pr41 O69 2.512 . S
Pr41 O71 2.437 1_545 S
C42 Pr40 2.880 . S
C42 C43 1.491 . S
C42 O60 1.254 . S
C42 O61 1.225 . S
C43 C42 1.491 . S
C43 C44 1.392 . S
C43 C48 1.356 . S
C44 C43 1.392 . S
C44 C45 1.368 . S
C44 H72 0.929 . S
C45 C44 1.368 . S
C45 C46 1.386 . S
C45 H73 0.929 . S
C46 C45 1.386 . S
C46 C47 1.373 . S
C47 C46 1.373 . S
C47 C48 1.409 . S
C47 H74 0.931 . S
C48 C43 1.356 . S
C48 C47 1.409 . S
C48 H75 0.930 . S
C49 O62 1.270 . S
C49 O63 1.248 . S
C50 O64 1.267 . S
C50 O65 1.278 . S
C51 Pr41 2.880 1_565 S
C51 C52 1.491 . S
C51 O66 1.254 . S
C51 O67 1.225 . S
C52 C51 1.491 . S
C52 C53 1.392 . S
C52 C57 1.356 . S
C53 C52 1.392 . S
C53 C54 1.368 . S
C53 H76 0.929 . S
C54 C53 1.368 . S
C54 C55 1.386 . S
C54 H77 0.929 . S
C55 C54 1.386 . S
C55 C56 1.373 . S
C56 C55 1.373 . S
C56 C57 1.409 . S
C56 H78 0.931 . S
C57 C52 1.356 . S
C57 C56 1.409 . S
C57 H79 0.930 . S
C58 O68 1.270 . S
C58 O69 1.248 . S
C59 O70 1.267 . S
C59 O71 1.278 . S
O60 Pr40 2.562 . S
O60 C42 1.254 . S
O61 Pr40 2.490 . S
O61 C42 1.225 . S
O62 Pr40 2.695 . S
O62 Pr41 2.436 . S
O62 C49 1.270 . S
O63 Pr40 2.512 . S
O63 C49 1.248 . S
O64 Pr41 2.438 . S
O64 C50 1.267 . S
O65 Pr40 2.437 . S
O65 C50 1.278 . S
O66 Pr41 2.562 1_565 S
O66 C51 1.254 . S
O67 Pr41 2.490 1_565 S
O67 C51 1.225 . S
O68 Pr40 2.436 . S
O68 Pr41 2.695 . S
O68 C58 1.270 . S
O69 Pr41 2.512 . S
O69 C58 1.248 . S
O70 Pr40 2.438 1_565 S
O70 C59 1.267 . S
O71 Pr41 2.437 1_565 S
O71 C59 1.278 . S
H72 C44 0.929 . S
H73 C45 0.929 . S
H74 C47 0.931 . S
H75 C48 0.930 . S
H76 C53 0.929 . S
H77 C54 0.929 . S
H78 C56 0.931 . S
H79 C57 0.930 . S
Pr80 C82 2.880 . S
Pr80 O100 2.562 . S
Pr80 O101 2.490 . S
Pr80 O102 2.695 . S
Pr80 O103 2.512 . S
Pr80 O105 2.437 . S
Pr80 O108 2.436 . S
Pr80 O110 2.438 . S
Pr81 C91 2.880 . S
Pr81 O102 2.436 . S
Pr81 O104 2.438 . S
Pr81 O106 2.562 . S
Pr81 O107 2.490 . S
Pr81 O108 2.695 . S
Pr81 O109 2.512 . S
Pr81 O111 2.437 . S
C82 Pr80 2.880 . S
C82 C83 1.491 . S
C82 O100 1.254 . S
C82 O101 1.225 . S
C83 C82 1.491 . S
C83 C84 1.392 . S
C83 C88 1.356 . S
C84 C83 1.392 . S
C84 C85 1.368 . S
C84 H112 0.929 . S
C85 C84 1.368 . S
C85 C86 1.386 . S
C85 H113 0.929 . S
C86 C85 1.386 . S
C86 C87 1.373 . S
C87 C86 1.373 . S
C87 C88 1.409 . S
C87 H114 0.931 . S
C88 C83 1.356 . S
C88 C87 1.409 . S
C88 H115 0.930 . S
C89 O102 1.270 . S
C89 O103 1.248 . S
C90 O104 1.267 . S
C90 O105 1.278 . S
C91 Pr81 2.880 . S
C91 C92 1.491 . S
C91 O106 1.254 . S
C91 O107 1.225 . S
C92 C91 1.491 . S
C92 C93 1.392 . S
C92 C97 1.356 . S
C93 C92 1.392 . S
C93 C94 1.368 . S
C93 H116 0.929 . S
C94 C93 1.368 . S
C94 C95 1.386 . S
C94 H117 0.929 . S
C95 C94 1.386 . S
C95 C96 1.373 . S
C96 C95 1.373 . S
C96 C97 1.409 . S
C96 H118 0.931 . S
C97 C92 1.356 . S
C97 C96 1.409 . S
C97 H119 0.930 . S
C98 O108 1.270 . S
C98 O109 1.248 . S
C99 O110 1.267 . S
C99 O111 1.278 . S
O100 Pr80 2.562 . S
O100 C82 1.254 . S
O101 Pr80 2.490 . S
O101 C82 1.225 . S
O102 Pr80 2.695 . S
O102 Pr81 2.436 . S
O102 C89 1.270 . S
O103 Pr80 2.512 . S
O103 C89 1.248 . S
O104 Pr81 2.438 . S
O104 C90 1.267 . S
O105 Pr80 2.437 . S
O105 C90 1.278 . S
O106 Pr81 2.562 . S
O106 C91 1.254 . S
O107 Pr81 2.490 . S
O107 C91 1.225 . S
O108 Pr80 2.436 . S
O108 Pr81 2.695 . S
O108 C98 1.270 . S
O109 Pr81 2.512 . S
O109 C98 1.248 . S
O110 Pr80 2.438 . S
O110 C99 1.267 . S
O111 Pr81 2.437 . S
O111 C99 1.278 . S
H112 C84 0.929 . S
H113 C85 0.929 . S
H114 C87 0.931 . S
H115 C88 0.930 . S
H116 C93 0.929 . S
H117 C94 0.929 . S
H118 C96 0.931 . S
H119 C97 0.930 . S
O120 Cd121 2.300 . S
O120 C127 1.275 . S
Cd121 O120 2.300 . S
Cd121 O129 2.381 . S
Cd121 O130 2.378 . S
O122 Cd123 2.385 1_545 S
O122 C127 1.255 . S
Cd123 O122 2.385 1_565 S
Cd123 O124 2.317 . S
O124 Cd123 2.317 . S
O124 C125 1.232 . S
C125 O124 1.232 . S
C125 O126 1.218 . S
O126 C125 1.218 . S
C127 O120 1.275 . S
C127 O122 1.255 . S
C128 O129 1.258 . S
C128 O130 1.256 . S
O129 Cd121 2.381 . S
O129 C128 1.258 . S
O130 Cd121 2.378 . S
O130 C128 1.256 . S
O131 Cd132 2.300 . S
O131 C138 1.275 . S
Cd132 O131 2.300 . S
Cd132 O140 2.381 . S
Cd132 O141 2.378 . S
O133 Cd134 2.385 . S
O133 C138 1.255 . S
Cd134 O133 2.385 . S
Cd134 O135 2.317 . S
O135 Cd134 2.317 . S
O135 C136 1.232 . S
C136 O135 1.232 . S
C136 O137 1.218 . S
O137 C136 1.218 . S
C138 O131 1.275 . S
C138 O133 1.255 . S
C139 O140 1.258 . S
C139 O141 1.256 . S
O140 Cd132 2.381 . S
O140 C139 1.258 . S
O141 Cd132 2.378 . S
O141 C139 1.256 . S
O142 Cd143 2.300 . S
O142 C149 1.275 . S
Cd143 O142 2.300 . S
Cd143 O151 2.381 . S
Cd143 O152 2.378 . S
O144 Cd145 2.385 . S
O144 C149 1.255 1_655 S
Cd145 O144 2.385 . S
Cd145 O146 2.317 . S
O146 Cd145 2.317 . S
O146 C147 1.232 . S
C147 O146 1.232 . S
C147 O148 1.218 . S
O148 C147 1.218 . S
C149 O142 1.275 . S
C149 O144 1.255 1_455 S
C150 O151 1.258 . S
C150 O152 1.256 . S
O151 Cd143 2.381 . S
O151 C150 1.258 . S
O152 Cd143 2.378 . S
O152 C150 1.256 . S
O153 Cd154 2.300 . S
O153 C160 1.255 1_455 S
Cd154 O153 2.300 . S
Cd154 O162 2.381 . S
Cd154 O163 2.378 . S
O155 Cd156 2.385 . S
O155 C160 1.278 . S
Cd156 O155 2.385 . S
Cd156 O157 2.317 . S
O157 Cd156 2.317 . S
O157 C158 1.232 . S
C158 O157 1.232 . S
C158 O159 1.218 . S
O159 C158 1.218 . S
C160 O153 1.255 1_655 S
C160 O155 1.278 . S
C161 O162 1.258 . S
C161 O163 1.256 . S
O162 Cd154 2.381 . S
O162 C161 1.258 . S
O163 Cd154 2.378 . S
O163 C161 1.256 . S
O164 Cd165 2.300 . S
O164 C171 1.275 1_565 S
Cd165 O164 2.300 . S
Cd165 O173 2.381 . S
Cd165 O174 2.378 . S
O166 Cd167 2.385 . S
O166 C171 1.255 . S
Cd167 O166 2.385 . S
Cd167 O168 2.317 . S
O168 Cd167 2.317 . S
O168 C169 1.232 . S
C169 O168 1.232 . S
C169 O170 1.218 . S
O170 C169 1.218 . S
C171 O164 1.275 1_545 S
C171 O166 1.255 . S
C172 O173 1.258 . S
C172 O174 1.256 . S
O173 Cd165 2.381 . S
O173 C172 1.258 . S
O174 Cd165 2.378 . S
O174 C172 1.256 . S
O175 Cd176 2.300 . S
O175 C182 1.275 . S
Cd176 O175 2.300 . S
Cd176 O184 2.381 . S
Cd176 O185 2.378 . S
O177 Cd178 2.385 . S
O177 C182 1.255 . S
Cd178 O177 2.385 . S
Cd178 O179 2.317 . S
O179 Cd178 2.317 . S
O179 C180 1.232 . S
C180 O179 1.232 . S
C180 O181 1.218 . S
O181 C180 1.218 . S
C182 O175 1.275 . S
C182 O177 1.255 . S
C183 O184 1.258 . S
C183 O185 1.256 . S
O184 Cd176 2.381 . S
O184 C183 1.258 . S
O185 Cd176 2.378 . S
O185 C183 1.256 . S
H186 C194 0.929 . S
H187 C196 0.930 . S
H188 C198 0.930 . S
H189 C201 0.929 . S
H190 C204 0.930 . S
H191 C206 0.960 . S
H192 C206 0.960 . S
H193 C206 0.960 . S
C194 H186 0.929 . S
C194 C195 1.377 . S
C194 C196 1.384 . S
C195 C194 1.377 . S
C195 C201 1.390 . S
C196 H187 0.930 . S
C196 C194 1.384 . S
C196 C197 1.372 . S
C197 C196 1.372 . S
C197 C198 1.400 . S
C197 C202 1.490 . S
C198 H188 0.930 . S
C198 C197 1.400 . S
C198 C201 1.386 . S
H199 C215 0.930 . S
H200 C216 0.931 . S
C201 H189 0.929 . S
C201 C195 1.390 . S
C201 C198 1.386 . S
C202 C197 1.490 . S
C202 C204 1.395 . S
C202 C205 1.403 . S
H203 C209 0.930 . S
C204 H190 0.930 . S
C204 C202 1.395 . S
C204 C207 1.403 . S
C205 C202 1.403 . S
C205 C206 1.524 . S
C205 C209 1.400 . S
C206 H191 0.960 . S
C206 H192 0.960 . S
C206 H193 0.960 . S
C206 C205 1.524 . S
C207 C204 1.403 . S
C207 C208 1.392 . S
C207 C211 1.495 . S
C208 C207 1.392 . S
C208 C209 1.385 . S
C208 C210 1.478 . S
C209 H203 0.930 . S
C209 C205 1.400 . S
C209 C208 1.385 . S
C210 C208 1.478 . S
C210 C212 1.381 . S
C210 C216 1.383 . S
C211 C207 1.495 . S
C211 H217 0.959 . S
C211 H218 0.961 . S
C211 H219 0.960 . S
C212 C210 1.381 . S
C212 C213 1.394 . S
C212 H220 0.930 . S
C213 C212 1.394 . S
C213 C214 1.383 . S
C213 H221 0.929 . S
C214 C213 1.383 . S
C214 C215 1.377 . S
C215 H199 0.930 . S
C215 C214 1.377 . S
C215 C216 1.379 . S
C216 H200 0.931 . S
C216 C210 1.383 . S
C216 C215 1.379 . S
H217 C211 0.959 . S
H218 C211 0.961 . S
H219 C211 0.960 . S
H220 C212 0.930 . S
H221 C213 0.929 . S
H222 C230 0.929 . S
H223 C232 0.930 . S
H224 C234 0.930 . S
H225 C237 0.929 . S
H226 C240 0.930 . S
H227 C242 0.960 . S
H228 C242 0.960 . S
H229 C242 0.960 . S
C230 H222 0.929 . S
C230 C231 1.377 . S
C230 C232 1.384 . S
C231 C230 1.377 . S
C231 C237 1.390 . S
C232 H223 0.930 . S
C232 C230 1.384 . S
C232 C233 1.372 . S
C233 C232 1.372 . S
C233 C234 1.400 . S
C233 C238 1.490 . S
C234 H224 0.930 . S
C234 C233 1.400 . S
C234 C237 1.386 . S
H235 C251 0.930 . S
H236 C252 0.931 . S
C237 H225 0.929 . S
C237 C231 1.390 . S
C237 C234 1.386 . S
C238 C233 1.490 . S
C238 C240 1.395 . S
C238 C241 1.403 . S
H239 C245 0.930 . S
C240 H226 0.930 . S
C240 C238 1.395 . S
C240 C243 1.403 . S
C241 C238 1.403 . S
C241 C242 1.524 . S
C241 C245 1.400 . S
C242 H227 0.960 . S
C242 H228 0.960 . S
C242 H229 0.960 . S
C242 C241 1.524 . S
C243 C240 1.403 . S
C243 C244 1.392 . S
C243 C247 1.495 . S
C244 C243 1.392 . S
C244 C245 1.385 . S
C244 C246 1.478 . S
C245 H239 0.930 . S
C245 C241 1.400 . S
C245 C244 1.385 . S
C246 C244 1.478 . S
C246 C248 1.381 . S
C246 C252 1.383 . S
C247 C243 1.495 . S
C247 H253 0.959 . S
C247 H254 0.961 . S
C247 H255 0.960 . S
C248 C246 1.381 . S
C248 C249 1.394 . S
C248 H256 0.930 . S
C249 C248 1.394 . S
C249 C250 1.383 . S
C249 H257 0.929 . S
C250 C249 1.383 . S
C250 C251 1.377 . S
C251 H235 0.930 . S
C251 C250 1.377 . S
C251 C252 1.379 . S
C252 H236 0.931 . S
C252 C246 1.383 . S
C252 C251 1.379 . S
H253 C247 0.959 . S
H254 C247 0.961 . S
H255 C247 0.960 . S
H256 C248 0.930 . S
H257 C249 0.929 . S
H258 C266 0.929 . S
H259 C268 0.930 . S
H260 C270 0.930 . S
H261 C273 0.929 . S
H262 C276 0.930 . S
H263 C278 0.960 . S
H264 C278 0.960 . S
H265 C278 0.960 . S
C266 H258 0.929 . S
C266 C267 1.377 . S
C266 C268 1.384 . S
C267 C266 1.377 . S
C267 C273 1.390 . S
C268 H259 0.930 . S
C268 C266 1.384 . S
C268 C269 1.372 . S
C269 C268 1.372 . S
C269 C270 1.400 . S
C269 C274 1.490 . S
C270 H260 0.930 . S
C270 C269 1.400 . S
C270 C273 1.386 . S
H271 C287 0.930 . S
H272 C288 0.931 . S
C273 H261 0.929 . S
C273 C267 1.390 . S
C273 C270 1.386 . S
C274 C269 1.490 . S
C274 C276 1.395 . S
C274 C277 1.403 . S
H275 C281 0.930 . S
C276 H262 0.930 . S
C276 C274 1.395 . S
C276 C279 1.403 . S
C277 C274 1.403 . S
C277 C278 1.524 . S
C277 C281 1.400 . S
C278 H263 0.960 . S
C278 H264 0.960 . S
C278 H265 0.960 . S
C278 C277 1.524 . S
C279 C276 1.403 . S
C279 C280 1.392 . S
C279 C283 1.495 . S
C280 C279 1.392 . S
C280 C281 1.385 . S
C280 C282 1.478 . S
C281 H275 0.930 . S
C281 C277 1.400 . S
C281 C280 1.385 . S
C282 C280 1.478 . S
C282 C284 1.381 . S
C282 C288 1.383 . S
C283 C279 1.495 . S
C283 H289 0.959 . S
C283 H290 0.961 . S
C283 H291 0.960 . S
C284 C282 1.381 . S
C284 C285 1.394 . S
C284 H292 0.930 . S
C285 C284 1.394 . S
C285 C286 1.383 . S
C285 H293 0.929 . S
C286 C285 1.383 . S
C286 C287 1.377 . S
C287 H271 0.930 . S
C287 C286 1.377 . S
C287 C288 1.379 . S
C288 H272 0.931 . S
C288 C282 1.383 . S
C288 C287 1.379 . S
H289 C283 0.959 . S
H290 C283 0.961 . S
H291 C283 0.960 . S
H292 C284 0.930 . S
H293 C285 0.929 . S
H294 C302 0.929 . S
H295 C304 0.930 . S
H296 C306 0.930 . S
H297 C309 0.929 . S
H298 C312 0.930 . S
H299 C314 0.960 . S
H300 C314 0.960 . S
H301 C314 0.960 . S
C302 H294 0.929 . S
C302 C303 1.377 . S
C302 C304 1.384 . S
C303 C302 1.377 . S
C303 C309 1.390 . S
C304 H295 0.930 . S
C304 C302 1.384 . S
C304 C305 1.372 . S
C305 C304 1.372 . S
C305 C306 1.400 . S
C305 C310 1.490 . S
C306 H296 0.930 . S
C306 C305 1.400 . S
C306 C309 1.386 . S
H307 C323 0.930 . S
H308 C324 0.931 . S
C309 H297 0.929 . S
C309 C303 1.390 . S
C309 C306 1.386 . S
C310 C305 1.490 . S
C310 C312 1.395 . S
C310 C313 1.403 . S
H311 C317 0.930 . S
C312 H298 0.930 . S
C312 C310 1.395 . S
C312 C315 1.403 . S
C313 C310 1.403 . S
C313 C314 1.524 . S
C313 C317 1.400 . S
C314 H299 0.960 . S
C314 H300 0.960 . S
C314 H301 0.960 . S
C314 C313 1.524 . S
C315 C312 1.403 . S
C315 C316 1.392 . S
C315 C319 1.495 . S
C316 C315 1.392 . S
C316 C317 1.385 . S
C316 C318 1.478 . S
C317 H311 0.930 . S
C317 C313 1.400 . S
C317 C316 1.385 . S
C318 C316 1.478 . S
C318 C320 1.381 . S
C318 C324 1.383 . S
C319 C315 1.495 . S
C319 H325 0.959 . S
C319 H326 0.961 . S
C319 H327 0.960 . S
C320 C318 1.381 . S
C320 C321 1.394 . S
C320 H328 0.930 . S
C321 C320 1.394 . S
C321 C322 1.383 . S
C321 H329 0.929 . S
C322 C321 1.383 . S
C322 C323 1.377 . S
C323 H307 0.930 . S
C323 C322 1.377 . S
C323 C324 1.379 . S
C324 H308 0.931 . S
C324 C318 1.383 . S
C324 C323 1.379 . S
H325 C319 0.959 . S
H326 C319 0.961 . S
H327 C319 0.960 . S
H328 C320 0.930 . S
H329 C321 0.929 . S
H330 C338 0.929 . S
H331 C340 0.930 . S
H332 C342 0.930 . S
H333 C345 0.929 . S
H334 C348 0.930 . S
H335 C350 0.960 . S
H336 C350 0.960 . S
H337 C350 0.960 . S
C338 H330 0.929 . S
C338 C339 1.377 . S
C338 C340 1.384 . S
C339 C338 1.377 . S
C339 C345 1.390 . S
C340 H331 0.930 . S
C340 C338 1.384 . S
C340 C341 1.372 . S
C341 C340 1.372 . S
C341 C342 1.400 . S
C341 C346 1.490 . S
C342 H332 0.930 . S
C342 C341 1.400 . S
C342 C345 1.386 . S
H343 C359 0.930 . S
H344 C360 0.931 . S
C345 H333 0.929 . S
C345 C339 1.390 . S
C345 C342 1.386 . S
C346 C341 1.490 . S
C346 C348 1.395 . S
C346 C349 1.403 . S
H347 C353 0.930 . S
C348 H334 0.930 . S
C348 C346 1.395 . S
C348 C351 1.403 . S
C349 C346 1.403 . S
C349 C350 1.524 . S
C349 C353 1.400 . S
C350 H335 0.960 . S
C350 H336 0.960 . S
C350 H337 0.960 . S
C350 C349 1.524 . S
C351 C348 1.403 . S
C351 C352 1.392 . S
C351 C355 1.495 . S
C352 C351 1.392 . S
C352 C353 1.385 . S
C352 C354 1.478 . S
C353 H347 0.930 . S
C353 C349 1.400 . S
C353 C352 1.385 . S
C354 C352 1.478 . S
C354 C356 1.381 . S
C354 C360 1.383 . S
C355 C351 1.495 . S
C355 H361 0.959 . S
C355 H362 0.961 . S
C355 H363 0.960 . S
C356 C354 1.381 . S
C356 C357 1.394 . S
C356 H364 0.930 . S
C357 C356 1.394 . S
C357 C358 1.383 . S
C357 H365 0.929 . S
C358 C357 1.383 . S
C358 C359 1.377 . S
C359 H343 0.930 . S
C359 C358 1.377 . S
C359 C360 1.379 . S
C360 H344 0.931 . S
C360 C354 1.383 . S
C360 C359 1.379 . S
H361 C355 0.959 . S
H362 C355 0.961 . S
H363 C355 0.960 . S
H364 C356 0.930 . S
H365 C357 0.929 . S
H366 C374 0.929 . S
H367 C376 0.930 . S
H368 C378 0.930 . S
H369 C381 0.929 . S
H370 C384 0.930 . S
H371 C386 0.960 . S
H372 C386 0.960 . S
H373 C386 0.960 . S
C374 H366 0.929 . S
C374 C375 1.377 . S
C374 C376 1.384 . S
C375 C374 1.377 . S
C375 C381 1.390 . S
C376 H367 0.930 . S
C376 C374 1.384 . S
C376 C377 1.372 . S
C377 C376 1.372 . S
C377 C378 1.400 . S
C377 C382 1.490 . S
C378 H368 0.930 . S
C378 C377 1.400 . S
C378 C381 1.386 . S
H379 C395 0.930 . S
H380 C396 0.931 . S
C381 H369 0.929 . S
C381 C375 1.390 . S
C381 C378 1.386 . S
C382 C377 1.490 . S
C382 C384 1.395 . S
C382 C385 1.403 . S
H383 C389 0.930 . S
C384 H370 0.930 . S
C384 C382 1.395 . S
C384 C387 1.403 . S
C385 C382 1.403 . S
C385 C386 1.524 . S
C385 C389 1.400 . S
C386 H371 0.960 . S
C386 H372 0.960 . S
C386 H373 0.960 . S
C386 C385 1.524 . S
C387 C384 1.403 . S
C387 C388 1.392 . S
C387 C391 1.495 . S
C388 C387 1.392 . S
C388 C389 1.385 . S
C388 C390 1.478 . S
C389 H383 0.930 . S
C389 C385 1.400 . S
C389 C388 1.385 . S
C390 C388 1.478 . S
C390 C392 1.381 . S
C390 C396 1.383 . S
C391 C387 1.495 . S
C391 H397 0.959 . S
C391 H398 0.961 . S
C391 H399 0.960 . S
C392 C390 1.381 . S
C392 C393 1.394 . S
C392 H400 0.930 . S
C393 C392 1.394 . S
C393 C394 1.383 . S
C393 H401 0.929 . S
C394 C393 1.383 . S
C394 C395 1.377 . S
C395 H379 0.930 . S
C395 C394 1.377 . S
C395 C396 1.379 . S
C396 H380 0.931 . S
C396 C390 1.383 . S
C396 C395 1.379 . S
H397 C391 0.959 . S
H398 C391 0.961 . S
H399 C391 0.960 . S
H400 C392 0.930 . S
H401 C393 0.929 . S
H402 C410 0.929 . S
H403 C412 0.930 . S
H404 C414 0.930 . S
H405 C417 0.929 . S
H406 C420 0.930 . S
H407 C422 0.960 . S
H408 C422 0.960 . S
H409 C422 0.960 . S
C410 H402 0.929 . S
C410 C411 1.377 . S
C410 C412 1.384 . S
C411 C410 1.377 . S
C411 C417 1.390 . S
C412 H403 0.930 . S
C412 C410 1.384 . S
C412 C413 1.372 . S
C413 C412 1.372 . S
C413 C414 1.400 . S
C413 C418 1.490 . S
C414 H404 0.930 . S
C414 C413 1.400 . S
C414 C417 1.386 . S
H415 C431 0.930 . S
H416 C432 0.931 . S
C417 H405 0.929 . S
C417 C411 1.390 . S
C417 C414 1.386 . S
C418 C413 1.490 . S
C418 C420 1.395 . S
C418 C421 1.403 . S
H419 C425 0.930 . S
C420 H406 0.930 . S
C420 C418 1.395 . S
C420 C423 1.403 . S
C421 C418 1.403 . S
C421 C422 1.524 . S
C421 C425 1.400 . S
C422 H407 0.960 . S
C422 H408 0.960 . S
C422 H409 0.960 . S
C422 C421 1.524 . S
C423 C420 1.403 . S
C423 C424 1.392 . S
C423 C427 1.495 . S
C424 C423 1.392 . S
C424 C425 1.385 . S
C424 C426 1.478 . S
C425 H419 0.930 . S
C425 C421 1.400 . S
C425 C424 1.385 . S
C426 C424 1.478 . S
C426 C428 1.381 . S
C426 C432 1.383 . S
C427 C423 1.495 . S
C427 H433 0.959 . S
C427 H434 0.961 . S
C427 H435 0.960 . S
C428 C426 1.381 . S
C428 C429 1.394 . S
C428 H436 0.930 . S
C429 C428 1.394 . S
C429 C430 1.383 . S
C429 H437 0.929 . S
C430 C429 1.383 . S
C430 C431 1.377 . S
C431 H415 0.930 . S
C431 C430 1.377 . S
C431 C432 1.379 . S
C432 H416 0.931 . S
C432 C426 1.383 . S
C432 C431 1.379 . S
H433 C427 0.959 . S
H434 C427 0.961 . S
H435 C427 0.960 . S
H436 C428 0.930 . S
H437 C429 0.929 . S
H438 C446 0.929 . S
H439 C448 0.930 . S
H440 C450 0.930 . S
H441 C453 0.929 . S
H442 C456 0.930 . S
H443 C458 0.960 . S
H444 C458 0.960 . S
H445 C458 0.960 . S
C446 H438 0.929 . S
C446 C447 1.377 . S
C446 C448 1.384 . S
C447 C446 1.377 . S
C447 C453 1.390 . S
C448 H439 0.930 . S
C448 C446 1.384 . S
C448 C449 1.372 . S
C449 C448 1.372 . S
C449 C450 1.400 . S
C449 C454 1.490 . S
C450 H440 0.930 . S
C450 C449 1.400 . S
C450 C453 1.386 . S
H451 C467 0.930 . S
H452 C468 0.931 . S
C453 H441 0.929 . S
C453 C447 1.390 . S
C453 C450 1.386 . S
C454 C449 1.490 . S
C454 C456 1.395 . S
C454 C457 1.403 . S
H455 C461 0.930 . S
C456 H442 0.930 . S
C456 C454 1.395 . S
C456 C459 1.403 . S
C457 C454 1.403 . S
C457 C458 1.524 . S
C457 C461 1.400 . S
C458 H443 0.960 . S
C458 H444 0.960 . S
C458 H445 0.960 . S
C458 C457 1.524 . S
C459 C456 1.403 . S
C459 C460 1.392 . S
C459 C463 1.495 . S
C460 C459 1.392 . S
C460 C461 1.385 . S
C460 C462 1.478 . S
C461 H455 0.930 . S
C461 C457 1.400 . S
C461 C460 1.385 . S
C462 C460 1.478 . S
C462 C464 1.381 . S
C462 C468 1.383 . S
C463 C459 1.495 . S
C463 H469 0.959 . S
C463 H470 0.961 . S
C463 H471 0.960 . S
C464 C462 1.381 . S
C464 C465 1.394 . S
C464 H472 0.930 . S
C465 C464 1.394 . S
C465 C466 1.383 . S
C465 H473 0.929 . S
C466 C465 1.383 . S
C466 C467 1.377 . S
C467 H451 0.930 . S
C467 C466 1.377 . S
C467 C468 1.379 . S
C468 H452 0.931 . S
C468 C462 1.383 . S
C468 C467 1.379 . S
H469 C463 0.959 . S
H470 C463 0.961 . S
H471 C463 0.960 . S
H472 C464 0.930 . S
H473 C465 0.929 . S
H474 C482 0.929 . S
H475 C484 0.930 . S
H476 C486 0.930 . S
H477 C489 0.929 . S
H478 C492 0.930 . S
H479 C494 0.960 . S
H480 C494 0.960 . S
H481 C494 0.960 . S
C482 H474 0.929 . S
C482 C483 1.377 . S
C482 C484 1.384 . S
C483 C482 1.377 . S
C483 C489 1.390 . S
C484 H475 0.930 . S
C484 C482 1.384 . S
C484 C485 1.372 . S
C485 C484 1.372 . S
C485 C486 1.400 . S
C485 C490 1.490 . S
C486 H476 0.930 . S
C486 C485 1.400 . S
C486 C489 1.386 . S
H487 C503 0.930 . S
H488 C504 0.931 . S
C489 H477 0.929 . S
C489 C483 1.390 . S
C489 C486 1.386 . S
C490 C485 1.490 . S
C490 C492 1.395 . S
C490 C493 1.403 . S
H491 C497 0.930 . S
C492 H478 0.930 . S
C492 C490 1.395 . S
C492 C495 1.403 . S
C493 C490 1.403 . S
C493 C494 1.524 . S
C493 C497 1.400 . S
C494 H479 0.960 . S
C494 H480 0.960 . S
C494 H481 0.960 . S
C494 C493 1.524 . S
C495 C492 1.403 . S
C495 C496 1.392 . S
C495 C499 1.495 . S
C496 C495 1.392 . S
C496 C497 1.385 . S
C496 C498 1.478 . S
C497 H491 0.930 . S
C497 C493 1.400 . S
C497 C496 1.385 . S
C498 C496 1.478 . S
C498 C500 1.381 . S
C498 C504 1.383 . S
C499 C495 1.495 . S
C499 H505 0.959 . S
C499 H506 0.961 . S
C499 H507 0.960 . S
C500 C498 1.381 . S
C500 C501 1.394 . S
C500 H508 0.930 . S
C501 C500 1.394 . S
C501 C502 1.383 . S
C501 H509 0.929 . S
C502 C501 1.383 . S
C502 C503 1.377 . S
C503 H487 0.930 . S
C503 C502 1.377 . S
C503 C504 1.379 . S
C504 H488 0.931 . S
C504 C498 1.383 . S
C504 C503 1.379 . S
H505 C499 0.959 . S
H506 C499 0.961 . S
H507 C499 0.960 . S
H508 C500 0.930 . S
H509 C501 0.929 . S
H510 C518 0.929 . S
H511 C520 0.930 . S
H512 C522 0.930 . S
H513 C525 0.929 . S
H514 C528 0.930 . S
H515 C530 0.960 . S
H516 C530 0.960 . S
H517 C530 0.960 . S
C518 H510 0.929 . S
C518 C519 1.377 . S
C518 C520 1.384 . S
C519 C518 1.377 . S
C519 C525 1.390 . S
C520 H511 0.930 . S
C520 C518 1.384 . S
C520 C521 1.372 . S
C521 C520 1.372 . S
C521 C522 1.400 . S
C521 C526 1.490 . S
C522 H512 0.930 . S
C522 C521 1.400 . S
C522 C525 1.386 . S
H523 C539 0.930 . S
H524 C540 0.931 . S
C525 H513 0.929 . S
C525 C519 1.390 . S
C525 C522 1.386 . S
C526 C521 1.490 . S
C526 C528 1.395 . S
C526 C529 1.403 . S
H527 C533 0.930 . S
C528 H514 0.930 . S
C528 C526 1.395 . S
C528 C531 1.403 . S
C529 C526 1.403 . S
C529 C530 1.524 . S
C529 C533 1.400 . S
C530 H515 0.960 . S
C530 H516 0.960 . S
C530 H517 0.960 . S
C530 C529 1.524 . S
C531 C528 1.403 . S
C531 C532 1.392 . S
C531 C535 1.495 . S
C532 C531 1.392 . S
C532 C533 1.385 . S
C532 C534 1.478 . S
C533 H527 0.930 . S
C533 C529 1.400 . S
C533 C532 1.385 . S
C534 C532 1.478 . S
C534 C536 1.381 . S
C534 C540 1.383 . S
C535 C531 1.495 . S
C535 H541 0.959 . S
C535 H542 0.961 . S
C535 H543 0.960 . S
C536 C534 1.381 . S
C536 C537 1.394 . S
C536 H544 0.930 . S
C537 C536 1.394 . S
C537 C538 1.383 . S
C537 H545 0.929 . S
C538 C537 1.383 . S
C538 C539 1.377 . S
C539 H523 0.930 . S
C539 C538 1.377 . S
C539 C540 1.379 . S
C540 H524 0.931 . S
C540 C534 1.383 . S
C540 C539 1.379 . S
H541 C535 0.959 . S
H542 C535 0.961 . S
H543 C535 0.960 . S
H544 C536 0.930 . S
H545 C537 0.929 . S
H546 C554 0.929 . S
H547 C556 0.930 . S
H548 C558 0.930 . S
H549 C561 0.929 . S
H550 C564 0.930 . S
H551 C566 0.960 . S
H552 C566 0.960 . S
H553 C566 0.960 . S
C554 H546 0.929 . S
C554 C555 1.377 . S
C554 C556 1.384 . S
C555 C554 1.377 . S
C555 C561 1.390 . S
C556 H547 0.930 . S
C556 C554 1.384 . S
C556 C557 1.372 . S
C557 C556 1.372 . S
C557 C558 1.400 . S
C557 C562 1.490 . S
C558 H548 0.930 . S
C558 C557 1.400 . S
C558 C561 1.386 . S
H559 C575 0.930 . S
H560 C576 0.931 . S
C561 H549 0.929 . S
C561 C555 1.390 . S
C561 C558 1.386 . S
C562 C557 1.490 . S
C562 C564 1.395 . S
C562 C565 1.403 . S
H563 C569 0.930 . S
C564 H550 0.930 . S
C564 C562 1.395 . S
C564 C567 1.403 . S
C565 C562 1.403 . S
C565 C566 1.524 . S
C565 C569 1.400 . S
C566 H551 0.960 . S
C566 H552 0.960 . S
C566 H553 0.960 . S
C566 C565 1.524 . S
C567 C564 1.403 . S
C567 C568 1.392 . S
C567 C571 1.495 . S
C568 C567 1.392 . S
C568 C569 1.385 . S
C568 C570 1.478 . S
C569 H563 0.930 . S
C569 C565 1.400 . S
C569 C568 1.385 . S
C570 C568 1.478 . S
C570 C572 1.381 . S
C570 C576 1.383 . S
C571 C567 1.495 . S
C571 H577 0.959 . S
C571 H578 0.961 . S
C571 H579 0.960 . S
C572 C570 1.381 . S
C572 C573 1.394 . S
C572 H580 0.930 . S
C573 C572 1.394 . S
C573 C574 1.383 . S
C573 H581 0.929 . S
C574 C573 1.383 . S
C574 C575 1.377 . S
C575 H559 0.930 . S
C575 C574 1.377 . S
C575 C576 1.379 . S
C576 H560 0.931 . S
C576 C570 1.383 . S
C576 C575 1.379 . S
H577 C571 0.959 . S
H578 C571 0.961 . S
H579 C571 0.960 . S
H580 C572 0.930 . S
H581 C573 0.929 . S
H582 C590 0.929 . S
H583 C592 0.930 . S
H584 C594 0.930 . S
H585 C597 0.929 . S
H586 C600 0.930 . S
H587 C602 0.960 . S
H588 C602 0.960 . S
H589 C602 0.960 . S
C590 H582 0.929 . S
C590 C591 1.377 . S
C590 C592 1.384 . S
C591 C590 1.377 . S
C591 C597 1.390 . S
C592 H583 0.930 . S
C592 C590 1.384 . S
C592 C593 1.372 . S
C593 C592 1.372 . S
C593 C594 1.400 . S
C593 C598 1.490 . S
C594 H584 0.930 . S
C594 C593 1.400 . S
C594 C597 1.386 . S
H595 C611 0.930 . S
H596 C612 0.931 . S
C597 H585 0.929 . S
C597 C591 1.390 . S
C597 C594 1.386 . S
C598 C593 1.490 . S
C598 C600 1.395 . S
C598 C601 1.403 . S
H599 C605 0.930 . S
C600 H586 0.930 . S
C600 C598 1.395 . S
C600 C603 1.403 . S
C601 C598 1.403 . S
C601 C602 1.524 . S
C601 C605 1.400 . S
C602 H587 0.960 . S
C602 H588 0.960 . S
C602 H589 0.960 . S
C602 C601 1.524 . S
C603 C600 1.403 . S
C603 C604 1.392 . S
C603 C607 1.495 . S
C604 C603 1.392 . S
C604 C605 1.385 . S
C604 C606 1.478 . S
C605 H599 0.930 . S
C605 C601 1.400 . S
C605 C604 1.385 . S
C606 C604 1.478 . S
C606 C608 1.381 . S
C606 C612 1.383 . S
C607 C603 1.495 . S
C607 H613 0.959 . S
C607 H614 0.961 . S
C607 H615 0.960 . S
C608 C606 1.381 . S
C608 C609 1.394 . S
C608 H616 0.930 . S
C609 C608 1.394 . S
C609 C610 1.383 . S
C609 H617 0.929 . S
C610 C609 1.383 . S
C610 C611 1.377 . S
C611 H595 0.930 . S
C611 C610 1.377 . S
C611 C612 1.379 . S
C612 H596 0.931 . S
C612 C606 1.383 . S
C612 C611 1.379 . S
H613 C607 0.959 . S
H614 C607 0.961 . S
H615 C607 0.960 . S
H616 C608 0.930 . S
H617 C609 0.929 . S
H618 C626 0.929 . S
H619 C628 0.930 . S
H620 C630 0.930 . S
H621 C633 0.929 . S
H622 C636 0.930 . S
H623 C638 0.960 . S
H624 C638 0.960 . S
H625 C638 0.960 . S
C626 H618 0.929 . S
C626 C627 1.377 . S
C626 C628 1.384 . S
C627 C626 1.377 . S
C627 C633 1.390 . S
C628 H619 0.930 . S
C628 C626 1.384 . S
C628 C629 1.372 . S
C629 C628 1.372 . S
C629 C630 1.400 . S
C629 C634 1.490 . S
C630 H620 0.930 . S
C630 C629 1.400 . S
C630 C633 1.386 . S
H631 C647 0.930 . S
H632 C648 0.931 . S
C633 H621 0.929 . S
C633 C627 1.390 . S
C633 C630 1.386 . S
C634 C629 1.490 . S
C634 C636 1.395 1_455 S
C634 C637 1.403 . S
H635 C641 0.930 1_556 S
C636 H622 0.930 . S
C636 C634 1.395 1_655 S
C636 C639 1.403 . S
C637 C634 1.403 . S
C637 C638 1.524 . S
C637 C641 1.400 . S
C638 H623 0.960 . S
C638 H624 0.960 . S
C638 H625 0.960 . S
C638 C637 1.524 . S
C639 C636 1.403 . S
C639 C640 1.392 1_654 S
C639 C643 1.495 1_554 S
C640 C639 1.392 1_456 S
C640 C641 1.385 1_556 S
C640 C642 1.478 . S
C641 H635 0.930 1_554 S
C641 C637 1.400 . S
C641 C640 1.385 1_554 S
C642 C640 1.478 . S
C642 C644 1.381 . S
C642 C648 1.383 1_455 S
C643 C639 1.495 1_556 S
C643 H649 0.959 1_556 S
C643 H650 0.961 . S
C643 H651 0.960 . S
C644 C642 1.381 . S
C644 C645 1.394 . S
C644 H652 0.930 . S
C645 C644 1.394 . S
C645 C646 1.383 . S
C645 H653 0.929 . S
C646 C645 1.383 . S
C646 C647 1.377 1_455 S
C647 H631 0.930 . S
C647 C646 1.377 1_655 S
C647 C648 1.379 . S
C648 H632 0.931 . S
C648 C642 1.383 1_655 S
C648 C647 1.379 . S
H649 C643 0.959 1_554 S
H650 C643 0.961 . S
H651 C643 0.960 . S
H652 C644 0.930 . S
H653 C645 0.929 . S
H654 C662 0.917 1_565 S
H655 C664 0.924 1_565 S
H656 C666 0.930 . S
H657 C669 0.929 . S
H658 C672 0.945 . S
H659 C674 0.960 . S
H660 C674 0.960 . S
H661 C674 0.960 . S
C662 H654 0.917 1_545 S
C662 C663 1.390 . S
C662 C664 1.384 . S
C663 C662 1.390 . S
C663 C669 1.390 . S
C664 H655 0.924 1_545 S
C664 C662 1.384 . S
C664 C665 1.378 . S
C665 C664 1.378 . S
C665 C666 1.400 . S
C665 C670 1.490 . S
C666 H656 0.930 . S
C666 C665 1.400 . S
C666 C669 1.386 . S
H667 C683 0.930 . S
H668 C684 0.931 . S
C669 H657 0.929 . S
C669 C663 1.390 . S
C669 C666 1.386 . S
C670 C665 1.490 . S
C670 C672 1.380 1_545 S
C670 C673 1.403 . S
H671 C677 0.930 . S
C672 H658 0.945 . S
C672 C670 1.380 1_565 S
C672 C675 1.404 . S
C673 C670 1.403 . S
C673 C674 1.524 . S
C673 C677 1.400 . S
C674 H659 0.960 . S
C674 H660 0.960 . S
C674 H661 0.960 . S
C674 C673 1.524 . S
C675 C672 1.404 . S
C675 C676 1.392 1_565 S
C675 C679 1.495 . S
C676 C675 1.392 1_545 S
C676 C677 1.385 . S
C676 C678 1.478 . S
C677 H671 0.930 . S
C677 C673 1.400 . S
C677 C676 1.385 . S
C678 C676 1.478 . S
C678 C680 1.411 . S
C678 C684 1.383 . S
C679 C675 1.495 . S
C679 H685 0.959 . S
C679 H686 0.961 . S
C679 H687 0.960 . S
C680 C678 1.411 . S
C680 C681 1.397 . S
C680 H688 0.898 1_545 S
C681 C680 1.397 . S
C681 C682 1.383 . S
C681 H689 0.929 1_545 S
C682 C681 1.383 . S
C682 C683 1.377 . S
C683 H667 0.930 . S
C683 C682 1.377 . S
C683 C684 1.379 . S
C684 H668 0.931 . S
C684 C678 1.383 . S
C684 C683 1.379 . S
H685 C679 0.959 . S
H686 C679 0.961 . S
H687 C679 0.960 . S
H688 C680 0.898 1_565 S
H689 C681 0.929 1_565 S
H690 C698 0.929 . S
H691 C700 0.930 . S
H692 C702 0.930 . S
H693 C705 0.929 . S
H694 C708 0.930 . S
H695 C710 0.960 . S
H696 C710 0.960 . S
H697 C710 0.960 . S
C698 H690 0.929 . S
C698 C699 1.377 . S
C698 C700 1.384 . S
C699 C698 1.377 . S
C699 C705 1.390 . S
C700 H691 0.930 . S
C700 C698 1.384 . S
C700 C701 1.372 . S
C701 C700 1.372 . S
C701 C702 1.400 . S
C701 C706 1.490 . S
C702 H692 0.930 . S
C702 C701 1.400 . S
C702 C705 1.386 . S
H703 C719 0.930 . S
H704 C720 0.931 . S
C705 H693 0.929 . S
C705 C699 1.390 . S
C705 C702 1.386 . S
C706 C701 1.490 . S
C706 C708 1.395 . S
C706 C709 1.403 . S
H707 C713 0.930 . S
C708 H694 0.930 . S
C708 C706 1.395 . S
C708 C711 1.403 . S
C709 C706 1.403 . S
C709 C710 1.524 . S
C709 C713 1.400 . S
C710 H695 0.960 . S
C710 H696 0.960 . S
C710 H697 0.960 . S
C710 C709 1.524 . S
C711 C708 1.403 . S
C711 C712 1.392 . S
C711 C715 1.495 . S
C712 C711 1.392 . S
C712 C713 1.385 . S
C712 C714 1.478 . S
C713 H707 0.930 . S
C713 C709 1.400 . S
C713 C712 1.385 . S
C714 C712 1.478 . S
C714 C716 1.381 . S
C714 C720 1.383 . S
C715 C711 1.495 . S
C715 H721 0.959 . S
C715 H722 0.961 . S
C715 H723 0.960 . S
C716 C714 1.381 . S
C716 C717 1.394 . S
C716 H724 0.930 . S
C717 C716 1.394 . S
C717 C718 1.383 . S
C717 H725 0.929 . S
C718 C717 1.383 . S
C718 C719 1.377 . S
C719 H703 0.930 . S
C719 C718 1.377 . S
C719 C720 1.379 . S
C720 H704 0.931 . S
C720 C714 1.383 . S
C720 C719 1.379 . S
H721 C715 0.959 . S
H722 C715 0.961 . S
H723 C715 0.960 . S
H724 C716 0.930 . S
H725 C717 0.929 . S
H726 C734 0.929 . S
H727 C736 0.930 . S
H728 C738 0.930 . S
H729 C741 0.929 . S
H730 C744 0.930 . S
H731 C746 0.960 . S
H732 C746 0.960 . S
H733 C746 0.960 . S
C734 H726 0.929 . S
C734 C735 1.377 1_565 S
C734 C736 1.384 . S
C735 C734 1.377 1_545 S
C735 C741 1.390 . S
C736 H727 0.930 . S
C736 C734 1.384 . S
C736 C737 1.372 1_565 S
C737 C736 1.372 1_545 S
C737 C738 1.400 . S
C737 C742 1.490 . S
C738 H728 0.930 . S
C738 C737 1.400 . S
C738 C741 1.386 . S
H739 C755 0.930 . S
H740 C756 0.931 . S
C741 H729 0.929 . S
C741 C735 1.390 . S
C741 C738 1.386 . S
C742 C737 1.490 . S
C742 C744 1.395 1_545 S
C742 C745 1.403 . S
H743 C749 0.930 . S
C744 H730 0.930 . S
C744 C742 1.395 1_565 S
C744 C747 1.403 . S
C745 C742 1.403 . S
C745 C746 1.524 . S
C745 C749 1.400 . S
C746 H731 0.960 . S
C746 H732 0.960 . S
C746 H733 0.960 . S
C746 C745 1.524 . S
C747 C744 1.403 . S
C747 C748 1.392 1_565 S
C747 C751 1.495 . S
C748 C747 1.392 1_545 S
C748 C749 1.385 . S
C748 C750 1.478 . S
C749 H743 0.930 . S
C749 C745 1.400 . S
C749 C748 1.385 . S
C750 C748 1.478 . S
C750 C752 1.381 1_545 S
C750 C756 1.383 . S
C751 C747 1.495 . S
C751 H757 0.959 . S
C751 H758 0.961 . S
C751 H759 0.960 . S
C752 C750 1.381 1_565 S
C752 C753 1.394 . S
C752 H760 0.930 . S
C753 C752 1.394 . S
C753 C754 1.383 1_565 S
C753 H761 0.929 . S
C754 C753 1.383 1_545 S
C754 C755 1.377 . S
C755 H739 0.930 . S
C755 C754 1.377 . S
C755 C756 1.379 . S
C756 H740 0.931 . S
C756 C750 1.383 . S
C756 C755 1.379 . S
H757 C751 0.959 . S
H758 C751 0.961 . S
H759 C751 0.960 . S
H760 C752 0.930 . S
H761 C753 0.929 . S
H762 C770 0.929 . S
H763 C772 0.930 . S
H764 C774 0.930 . S
H765 C777 0.929 . S
H766 C780 0.930 . S
H767 C782 0.960 . S
H768 C782 0.960 . S
H769 C782 0.960 . S
C770 H762 0.929 . S
C770 C771 1.377 . S
C770 C772 1.384 . S
C771 C770 1.377 . S
C771 C777 1.390 . S
C772 H763 0.930 . S
C772 C770 1.384 . S
C772 C773 1.372 . S
C773 C772 1.372 . S
C773 C774 1.400 . S
C773 C778 1.490 . S
C774 H764 0.930 . S
C774 C773 1.400 . S
C774 C777 1.386 . S
H775 C791 0.930 . S
H776 C792 0.931 . S
C777 H765 0.929 . S
C777 C771 1.390 . S
C777 C774 1.386 . S
C778 C773 1.490 . S
C778 C780 1.395 . S
C778 C781 1.403 . S
H779 C785 0.930 1_554 S
C780 H766 0.930 . S
C780 C778 1.395 . S
C780 C783 1.403 . S
C781 C778 1.403 . S
C781 C782 1.524 . S
C781 C785 1.400 . S
C782 H767 0.960 . S
C782 H768 0.960 . S
C782 H769 0.960 . S
C782 C781 1.524 . S
C783 C780 1.403 . S
C783 C784 1.392 1_556 S
C783 C787 1.495 1_556 S
C784 C783 1.392 1_554 S
C784 C785 1.385 1_554 S
C784 C786 1.478 . S
C785 H779 0.930 1_556 S
C785 C781 1.400 . S
C785 C784 1.385 1_556 S
C786 C784 1.478 . S
C786 C788 1.381 . S
C786 C792 1.383 . S
C787 C783 1.495 1_554 S
C787 H793 0.959 1_554 S
C787 H794 0.961 . S
C787 H795 0.960 . S
C788 C786 1.381 . S
C788 C789 1.394 . S
C788 H796 0.930 . S
C789 C788 1.394 . S
C789 C790 1.383 . S
C789 H797 0.929 . S
C790 C789 1.383 . S
C790 C791 1.377 . S
C791 H775 0.930 . S
C791 C790 1.377 . S
C791 C792 1.379 . S
C792 H776 0.931 . S
C792 C786 1.383 . S
C792 C791 1.379 . S
H793 C787 0.959 1_556 S
H794 C787 0.961 . S
H795 C787 0.960 . S
H796 C788 0.930 . S
H797 C789 0.929 . S
H798 C806 0.929 . S
H799 C808 0.930 . S
H800 C810 0.930 . S
H801 C813 0.929 . S
H802 C816 0.930 . S
H803 C818 0.960 . S
H804 C818 0.960 . S
H805 C818 0.960 . S
C806 H798 0.929 . S
C806 C807 1.377 1_655 S
C806 C808 1.384 . S
C807 C806 1.377 1_455 S
C807 C813 1.390 . S
C808 H799 0.930 . S
C808 C806 1.384 . S
C808 C809 1.372 1_655 S
C809 C808 1.372 1_455 S
C809 C810 1.400 . S
C809 C814 1.490 1_455 S
C810 H800 0.930 . S
C810 C809 1.400 . S
C810 C813 1.386 . S
H811 C827 0.930 . S
H812 C828 0.931 . S
C813 H801 0.929 . S
C813 C807 1.390 . S
C813 C810 1.386 . S
C814 C809 1.490 1_655 S
C814 C816 1.396 . S
C814 C817 1.402 1_655 S
H815 C821 0.930 . S
C816 H802 0.930 . S
C816 C814 1.396 . S
C816 C819 1.403 . S
C817 C814 1.402 1_455 S
C817 C818 1.524 . S
C817 C821 1.400 . S
C818 H803 0.960 . S
C818 H804 0.960 . S
C818 H805 0.960 . S
C818 C817 1.524 . S
C819 C816 1.403 . S
C819 C820 1.392 . S
C819 C823 1.495 . S
C820 C819 1.392 . S
C820 C821 1.385 1_655 S
C820 C822 1.478 . S
C821 H815 0.930 . S
C821 C817 1.400 . S
C821 C820 1.385 1_455 S
C822 C820 1.478 . S
C822 C824 1.381 . S
C822 C828 1.383 1_655 S
C823 C819 1.495 . S
C823 H829 0.959 . S
C823 H830 0.961 . S
C823 H831 0.960 . S
C824 C822 1.381 . S
C824 C825 1.394 . S
C824 H832 0.930 . S
C825 C824 1.394 . S
C825 C826 1.383 . S
C825 H833 0.929 . S
C826 C825 1.383 . S
C826 C827 1.377 1_655 S
C827 H811 0.930 . S
C827 C826 1.377 1_455 S
C827 C828 1.379 . S
C828 H812 0.931 . S
C828 C822 1.383 1_455 S
C828 C827 1.379 . S
H829 C823 0.959 . S
H830 C823 0.961 . S
H831 C823 0.960 . S
H832 C824 0.930 . S
H833 C825 0.929 . S
C195 C19 2.054 . S
C214 C180 1.799 . S
C231 C46 1.362 . S
C250 C158 1.235 . S
C267 C95 0.272 . S
C286 C172 0.334 . S
C303 C10 1.790 . S
C322 C183 1.762 . S
C358 C161 1.026 . S
C339 C55 1.014 . S
C394 C169 0.776 . S
C375 C86 0.567 . S
C411 C59 3.291 . S
C430 C136 2.938 . S
C447 C90 2.132 . S
C466 C147 1.853 . S
C483 C15 1.421 . S
C502 C125 1.218 . S
C538 C139 2.732 . S
C519 C50 2.801 . S
C574 C150 1.656 . S
C555 C99 1.715 . S
C591 C6 0.959 . S
C610 C128 0.932 . S
C646 C149 1.399 . S
C627 C9 1.413 . S
C663 C58 1.476 . S
C682 C127 1.488 . S
C699 C98 1.641 . S
C718 C138 1.657 . S
C754 C171 1.187 . S
C735 C49 1.252 . S
C790 C182 1.369 . S
C771 C89 1.415 . S
C807 C18 1.484 . S
C826 C160 1.486 . S
