# Generated by pormake.
# Topology ctn, (3,4)-cn, num edge types: 1
# Building blocks:
#     Node 0, Type 0, BuildingBlock: WUSLED_clean_sbu_0, # of connection points: 3
#     Node 1, Type 0, BuildingBlock: WUSLED_clean_sbu_0, # of connection points: 3
#     Node 2, Type 0, BuildingBlock: WUSLED_clean_sbu_0, # of connection points: 3
#     Node 3, Type 0, BuildingBlock: WUSLED_clean_sbu_0, # of connection points: 3
#     Node 4, Type 0, BuildingBlock: WUSLED_clean_sbu_0, # of connection points: 3
#     Node 5, Type 0, BuildingBlock: WUSLED_clean_sbu_0, # of connection points: 3
#     Node 6, Type 0, BuildingBlock: WUSLED_clean_sbu_0, # of connection points: 3
#     Node 7, Type 0, BuildingBlock: WUSLED_clean_sbu_0, # of connection points: 3
#     Node 8, Type 0, BuildingBlock: WUSLED_clean_sbu_0, # of connection points: 3
#     Node 9, Type 0, BuildingBlock: WUSLED_clean_sbu_0, # of connection points: 3
#     Node 10, Type 0, BuildingBlock: WUSLED_clean_sbu_0, # of connection points: 3
#     Node 11, Type 0, BuildingBlock: WUSLED_clean_sbu_0, # of connection points: 3
#     Node 12, Type 0, BuildingBlock: WUSLED_clean_sbu_0, # of connection points: 3
#     Node 13, Type 0, BuildingBlock: WUSLED_clean_sbu_0, # of connection points: 3
#     Node 14, Type 0, BuildingBlock: WUSLED_clean_sbu_0, # of connection points: 3
#     Node 15, Type 0, BuildingBlock: WUSLED_clean_sbu_0, # of connection points: 3
#     Node 16, Type 1, BuildingBlock: QUQFOY_clean_sbu_1, # of connection points: 4
#     Node 17, Type 1, BuildingBlock: QUQFOY_clean_sbu_1, # of connection points: 4
#     Node 18, Type 1, BuildingBlock: QUQFOY_clean_sbu_1, # of connection points: 4
#     Node 19, Type 1, BuildingBlock: QUQFOY_clean_sbu_1, # of connection points: 4
#     Node 20, Type 1, BuildingBlock: QUQFOY_clean_sbu_1, # of connection points: 4
#     Node 21, Type 1, BuildingBlock: QUQFOY_clean_sbu_1, # of connection points: 4
#     Node 22, Type 1, BuildingBlock: QUQFOY_clean_sbu_1, # of connection points: 4
#     Node 23, Type 1, BuildingBlock: QUQFOY_clean_sbu_1, # of connection points: 4
#     Node 24, Type 1, BuildingBlock: QUQFOY_clean_sbu_1, # of connection points: 4
#     Node 25, Type 1, BuildingBlock: QUQFOY_clean_sbu_1, # of connection points: 4
#     Node 26, Type 1, BuildingBlock: QUQFOY_clean_sbu_1, # of connection points: 4
#     Node 27, Type 1, BuildingBlock: QUQFOY_clean_sbu_1, # of connection points: 4
#     Edge 28, Type (0, 1), BuildingBlock: MIFKUJ_clean_linker_0, # of connection points: 2
#     Edge 29, Type (0, 1), BuildingBlock: MIFKUJ_clean_linker_0, # of connection points: 2
#     Edge 30, Type (0, 1), BuildingBlock: MIFKUJ_clean_linker_0, # of connection points: 2
#     Edge 31, Type (0, 1), BuildingBlock: MIFKUJ_clean_linker_0, # of connection points: 2
#     Edge 32, Type (0, 1), BuildingBlock: MIFKUJ_clean_linker_0, # of connection points: 2
#     Edge 33, Type (0, 1), BuildingBlock: MIFKUJ_clean_linker_0, # of connection points: 2
#     Edge 34, Type (0, 1), BuildingBlock: MIFKUJ_clean_linker_0, # of connection points: 2
#     Edge 35, Type (0, 1), BuildingBlock: MIFKUJ_clean_linker_0, # of connection points: 2
#     Edge 36, Type (0, 1), BuildingBlock: MIFKUJ_clean_linker_0, # of connection points: 2
#     Edge 37, Type (0, 1), BuildingBlock: MIFKUJ_clean_linker_0, # of connection points: 2
#     Edge 38, Type (0, 1), BuildingBlock: MIFKUJ_clean_linker_0, # of connection points: 2
#     Edge 39, Type (0, 1), BuildingBlock: MIFKUJ_clean_linker_0, # of connection points: 2
#     Edge 40, Type (0, 1), BuildingBlock: MIFKUJ_clean_linker_0, # of connection points: 2
#     Edge 41, Type (0, 1), BuildingBlock: MIFKUJ_clean_linker_0, # of connection points: 2
#     Edge 42, Type (0, 1), BuildingBlock: MIFKUJ_clean_linker_0, # of connection points: 2
#     Edge 43, Type (0, 1), BuildingBlock: MIFKUJ_clean_linker_0, # of connection points: 2
#     Edge 44, Type (0, 1), BuildingBlock: MIFKUJ_clean_linker_0, # of connection points: 2
#     Edge 45, Type (0, 1), BuildingBlock: MIFKUJ_clean_linker_0, # of connection points: 2
#     Edge 46, Type (0, 1), BuildingBlock: MIFKUJ_clean_linker_0, # of connection points: 2
#     Edge 47, Type (0, 1), BuildingBlock: MIFKUJ_clean_linker_0, # of connection points: 2
#     Edge 48, Type (0, 1), BuildingBlock: MIFKUJ_clean_linker_0, # of connection points: 2
#     Edge 49, Type (0, 1), BuildingBlock: MIFKUJ_clean_linker_0, # of connection points: 2
#     Edge 50, Type (0, 1), BuildingBlock: MIFKUJ_clean_linker_0, # of connection points: 2
#     Edge 51, Type (0, 1), BuildingBlock: MIFKUJ_clean_linker_0, # of connection points: 2
#     Edge 52, Type (0, 1), BuildingBlock: MIFKUJ_clean_linker_0, # of connection points: 2
#     Edge 53, Type (0, 1), BuildingBlock: MIFKUJ_clean_linker_0, # of connection points: 2
#     Edge 54, Type (0, 1), BuildingBlock: MIFKUJ_clean_linker_0, # of connection points: 2
#     Edge 55, Type (0, 1), BuildingBlock: MIFKUJ_clean_linker_0, # of connection points: 2
#     Edge 56, Type (0, 1), BuildingBlock: MIFKUJ_clean_linker_0, # of connection points: 2
#     Edge 57, Type (0, 1), BuildingBlock: MIFKUJ_clean_linker_0, # of connection points: 2
#     Edge 58, Type (0, 1), BuildingBlock: MIFKUJ_clean_linker_0, # of connection points: 2
#     Edge 59, Type (0, 1), BuildingBlock: MIFKUJ_clean_linker_0, # of connection points: 2
#     Edge 60, Type (0, 1), BuildingBlock: MIFKUJ_clean_linker_0, # of connection points: 2
#     Edge 61, Type (0, 1), BuildingBlock: MIFKUJ_clean_linker_0, # of connection points: 2
#     Edge 62, Type (0, 1), BuildingBlock: MIFKUJ_clean_linker_0, # of connection points: 2
#     Edge 63, Type (0, 1), BuildingBlock: MIFKUJ_clean_linker_0, # of connection points: 2
#     Edge 64, Type (0, 1), BuildingBlock: MIFKUJ_clean_linker_0, # of connection points: 2
#     Edge 65, Type (0, 1), BuildingBlock: MIFKUJ_clean_linker_0, # of connection points: 2
#     Edge 66, Type (0, 1), BuildingBlock: MIFKUJ_clean_linker_0, # of connection points: 2
#     Edge 67, Type (0, 1), BuildingBlock: MIFKUJ_clean_linker_0, # of connection points: 2
#     Edge 68, Type (0, 1), BuildingBlock: MIFKUJ_clean_linker_0, # of connection points: 2
#     Edge 69, Type (0, 1), BuildingBlock: MIFKUJ_clean_linker_0, # of connection points: 2
#     Edge 70, Type (0, 1), BuildingBlock: MIFKUJ_clean_linker_0, # of connection points: 2
#     Edge 71, Type (0, 1), BuildingBlock: MIFKUJ_clean_linker_0, # of connection points: 2
#     Edge 72, Type (0, 1), BuildingBlock: MIFKUJ_clean_linker_0, # of connection points: 2
#     Edge 73, Type (0, 1), BuildingBlock: MIFKUJ_clean_linker_0, # of connection points: 2
#     Edge 74, Type (0, 1), BuildingBlock: MIFKUJ_clean_linker_0, # of connection points: 2
#     Edge 75, Type (0, 1), BuildingBlock: MIFKUJ_clean_linker_0, # of connection points: 2
# Relax obj value: 0.035
# Max RMSD: 0.139
# Mean RMSD: 0.064
data_MOF--net-ctn--node1-WUSLED_clean_sbu_0--node2-QUQFOY_clean_sbu_1--edge1-MIFKUJ_clean_linker_0
_symmetry_space_group_name_H-M    P1
_symmetry_Int_Tables_number       1
_symmetry_cell_setting            triclinic
loop_
_symmetry_equiv_pos_as_xyz
'x, y, z'
_cell_length_a     87.556691
_cell_length_b     88.103099
_cell_length_c     88.081153
_cell_angle_alpha  93.173234
_cell_angle_beta   90.048
_cell_angle_gamma 94.143655
loop_
_atom_site_label
_atom_site_type_symbol
_atom_site_fract_x
_atom_site_fract_y
_atom_site_fract_z
_atom_type_partial_charge
C0 C 0.02837 0.10729 0.10489 0.0
C1 C 0.0334 0.09973 0.11739 0.0
C2 C 0.00829 0.10096 0.12917 0.0
C3 C 0.02346 0.09665 0.12946 0.0
C4 C 1.00337 0.10859 0.11664 0.0
C5 C 0.01333 0.11173 0.10464 0.0
U6 U 0.06276 0.09879 0.07975 0.0
O7 O 0.06461 0.09789 0.05483 0.0
O8 O 0.0793 0.11454 0.06861 0.0
C9 C 0.07456 0.10979 0.05487 0.0
C10 C 0.03845 0.11033 0.09187 0.0
C11 C 0.07073 0.12177 0.04481 0.0
C12 C 0.05409 0.14117 0.03773 0.0
C13 C 0.05799 0.13025 0.04774 0.0
C14 C 0.07574 0.13537 0.02188 0.0
C15 C 0.06286 0.14379 0.0246 0.0
C16 C 0.07962 0.12445 0.03189 0.0
C17 C 0.08721 0.06598 0.08903 0.0
C18 C 0.10978 0.05944 0.07474 0.0
C19 C 0.09955 0.0429 0.09392 0.0
C20 C 0.08801 0.05277 0.09706 0.0
C21 C 0.11056 0.04606 0.08267 0.0
C22 C 0.09818 0.06931 0.07787 0.0
C23 C 0.07459 0.07584 0.09221 0.0
O24 O 0.05253 0.11573 0.09515 0.0
O25 O 0.03772 0.09967 0.0808 0.0
O26 O 0.06317 0.07414 0.08243 0.0
O27 O 0.07858 0.0902 0.09615 0.0
H28 H 0.04495 0.09609 0.11773 0.0
H29 H 0.02753 0.09061 0.13887 0.0
H30 H 0.99182 0.11219 0.11614 0.0
H31 H 0.00925 0.11757 0.09508 0.0
H32 H 0.04423 0.14758 0.0403 0.0
H33 H 0.05101 0.12833 0.0577 0.0
H34 H 0.08263 0.13693 0.0118 0.0
H35 H 0.08945 0.11796 0.02943 0.0
H36 H 0.11815 0.06234 0.06613 0.0
H37 H 0.09961 0.03261 0.10008 0.0
H38 H 0.07957 0.04998 0.10565 0.0
H39 H 0.09771 0.07946 0.07154 0.0
C40 C 0.27165 0.75721 0.2034 0.0
C41 C 0.27484 0.77258 0.20826 0.0
C42 C 0.2702 0.78041 0.18264 0.0
C43 C 0.27404 0.78408 0.19798 0.0
C44 C 0.26712 0.76501 0.17782 0.0
C45 C 0.26779 0.75354 0.18811 0.0
U46 U 0.29045 0.73737 0.23554 0.0
O47 O 0.27999 0.72582 0.25493 0.0
O48 O 0.29311 0.71301 0.23802 0.0
C49 C 0.28428 0.71242 0.25006 0.0
C50 C 0.27214 0.74481 0.21398 0.0
C51 C 0.2723 0.69982 0.24974 0.0
C52 C 0.25073 0.68506 0.23746 0.0
C53 C 0.26177 0.69741 0.23768 0.0
C54 C 0.26052 0.67762 0.26148 0.0
C55 C 0.25005 0.67495 0.24932 0.0
C56 C 0.27154 0.68992 0.26166 0.0
C57 C 0.32807 0.75429 0.25337 0.0
C58 C 0.34216 0.74093 0.27163 0.0
C59 C 0.35114 0.76645 0.2653 0.0
C60 C 0.33878 0.76684 0.25531 0.0
C61 C 0.35306 0.75346 0.27353 0.0
C62 C 0.32977 0.74134 0.26164 0.0
C63 C 0.31533 0.7548 0.24256 0.0
O64 O 0.28309 0.73553 0.21154 0.0
O65 O 0.27012 0.74851 0.22848 0.0
O66 O 0.30191 0.75697 0.24865 0.0
O67 O 0.31469 0.74415 0.23148 0.0
H68 H 0.27796 0.77573 0.21998 0.0
H69 H 0.27663 0.79583 0.20199 0.0
H70 H 0.26398 0.76182 0.16612 0.0
H71 H 0.26525 0.74177 0.18413 0.0
H72 H 0.24294 0.68328 0.22787 0.0
H73 H 0.26219 0.70498 0.22838 0.0
H74 H 0.26016 0.67025 0.27093 0.0
H75 H 0.27952 0.69168 0.27111 0.0
H76 H 0.34335 0.73069 0.27766 0.0
H77 H 0.35914 0.7764 0.26667 0.0
H78 H 0.33759 0.77695 0.24907 0.0
H79 H 0.32158 0.73153 0.26026 0.0
C80 C 0.93909 0.4516 0.03012 0.0
C81 C 0.94749 0.44061 0.03662 0.0
C82 C 0.94855 0.42655 0.01207 0.0
C83 C 0.95212 0.42816 0.02769 0.0
C84 C 0.94008 0.43759 0.00565 0.0
C85 C 0.93538 0.45 0.01461 0.0
U86 U 0.94398 0.47796 0.06555 0.0
O87 O 0.94488 0.50296 0.06841 0.0
O88 O 0.92708 0.48914 0.07996 0.0
C89 C 0.93234 0.5029 0.07661 0.0
C90 C 0.93467 0.46504 0.03929 0.0
C91 C 0.92079 0.51298 0.07177 0.0
C92 C 0.90302 0.52068 0.05292 0.0
C93 C 0.91375 0.51074 0.05743 0.0
C94 C 0.90617 0.53505 0.07711 0.0
C95 C 0.89914 0.53299 0.0627 0.0
C96 C 0.9169 0.52514 0.08158 0.0
C97 C 0.97436 0.46905 0.09466 0.0
C98 C 0.98578 0.48692 0.11418 0.0
C99 C 0.99048 0.46016 0.11429 0.0
C100 C 0.98126 0.45719 0.10135 0.0
C101 C 0.99303 0.4751 0.12077 0.0
C102 C 0.97651 0.48392 0.10126 0.0
C103 C 0.96555 0.46575 0.08048 0.0
O104 O 0.92782 0.46221 0.05222 0.0
O105 O 0.94525 0.4764 0.04057 0.0
O106 O 0.96834 0.47537 0.06977 0.0
O107 O 0.9509 0.46177 0.08204 0.0
H108 H 0.9506 0.44175 0.04856 0.0
H109 H 0.9588 0.41996 0.03293 0.0
H110 H 0.93702 0.4366 0.9937 0.0
H111 H 0.92894 0.45841 0.00941 0.0
H112 H 0.89769 0.51864 0.04182 0.0
H113 H 0.9166 0.50136 0.04972 0.0
H114 H 0.90362 0.54451 0.08484 0.0
H115 H 0.92226 0.52705 0.09269 0.0
H116 H 0.98761 0.49858 0.11875 0.0
H117 H 0.99564 0.45074 0.1192 0.0
H118 H 0.97968 0.44563 0.09643 0.0
H119 H 0.97125 0.49323 0.09626 0.0
C120 C 0.71264 0.79018 0.19831 0.0
C121 C 0.72588 0.79435 0.19011 0.0
C122 C 0.72087 0.77219 0.17248 0.0
C123 C 0.72999 0.78541 0.17732 0.0
C124 C 0.70765 0.76809 0.18083 0.0
C125 C 0.70359 0.77701 0.19361 0.0
U126 U 0.7171 0.82596 0.22507 0.0
O127 O 0.69938 0.8396 0.23556 0.0
O128 O 0.71518 0.82845 0.24995 0.0
C129 C 0.70289 0.83614 0.2494 0.0
C130 C 0.708 0.79947 0.21168 0.0
C131 C 0.68992 0.83081 0.25885 0.0
C132 C 0.67353 0.81047 0.26923 0.0
C133 C 0.68571 0.81522 0.25991 0.0
C134 C 0.66945 0.83682 0.2763 0.0
C135 C 0.66528 0.82121 0.27761 0.0
C136 C 0.68166 0.84155 0.26704 0.0
C137 C 0.7487 0.85709 0.21794 0.0
C138 C 0.75093 0.88168 0.23202 0.0
C139 C 0.77091 0.8747 0.21453 0.0
C140 C 0.76279 0.8607 0.21101 0.0
C141 C 0.76508 0.88541 0.22504 0.0
C142 C 0.74282 0.86763 0.22851 0.0
C143 C 0.74037 0.84229 0.21402 0.0
O144 O 0.71782 0.80102 0.22305 0.0
O145 O 0.70204 0.81226 0.20873 0.0
O146 O 0.72619 0.84285 0.2093 0.0
O147 O 0.74195 0.83166 0.22369 0.0
H148 H 0.73297 0.80455 0.19356 0.0
H149 H 0.74015 0.78897 0.17107 0.0
H150 H 0.70049 0.75788 0.17757 0.0
H151 H 0.69335 0.7736 0.19983 0.0
H152 H 0.67076 0.79836 0.27006 0.0
H153 H 0.69191 0.80674 0.25362 0.0
H154 H 0.6632 0.84543 0.28232 0.0
H155 H 0.68467 0.85363 0.26629 0.0
H156 H 0.74601 0.8897 0.24004 0.0
H157 H 0.78188 0.87704 0.20914 0.0
H158 H 0.76753 0.85265 0.20289 0.0
H159 H 0.73195 0.86501 0.23399 0.0
C160 C 0.01411 0.97839 0.43859 0.0
C161 C 0.02016 0.98944 0.42893 0.0
C162 C 0.99568 0.98893 0.41566 0.0
C163 C 0.01104 0.99463 0.41753 0.0
C164 C 0.9897 0.97784 0.42539 0.0
C165 C 0.99886 0.97262 0.43675 0.0
U166 U 0.05 0.98304 0.46299 0.0
O167 O 0.05337 0.98093 0.48747 0.0
O168 O 0.06496 0.96604 0.47107 0.0
C169 C 0.0618 0.96923 0.48543 0.0
C170 C 0.02354 0.9731 0.4508 0.0
C171 C 0.0576 0.95609 0.4946 0.0
C172 C 0.03854 0.93935 0.50666 0.0
C173 C 0.04223 0.95127 0.49715 0.0
C174 C 0.06554 0.93663 0.51081 0.0
C175 C 0.05016 0.93197 0.51375 0.0
C176 C 0.0692 0.94859 0.50136 0.0
C177 C 0.07877 0.01685 0.45646 0.0
C178 C 0.10463 0.01993 0.4668 0.0
C179 C 0.09306 0.04153 0.45689 0.0
C180 C 0.07976 0.0323 0.45331 0.0
C181 C 0.10569 0.03548 0.46365 0.0
C182 C 0.09126 0.01071 0.46328 0.0
C183 C 0.06451 0.0075 0.45279 0.0
O184 O 0.03662 0.96787 0.44644 0.0
O185 O 0.02481 0.98222 0.46312 0.0
O186 O 0.05384 0.00801 0.46325 0.0
O187 O 0.06606 0.99367 0.44686 0.0
H188 H 0.0319 0.99412 0.43028 0.0
H189 H 0.01593 1.0033 0.41036 0.0
H190 H 0.97798 0.97311 0.42414 0.0
H191 H 0.99401 0.96409 0.44412 0.0
H192 H 0.02658 0.93618 0.50877 0.0
H193 H 0.03308 0.9569 0.492 0.0
H194 H 0.07478 0.93105 0.51582 0.0
H195 H 0.08113 0.95211 0.49946 0.0
H196 H 0.11417 0.01484 0.47184 0.0
H197 H 0.09332 0.05349 0.45458 0.0
H198 H 0.07018 0.03725 0.44817 0.0
H199 H 0.09068 0.99881 0.46588 0.0
C200 C 0.20332 0.77995 0.84786 0.0
C201 C 0.21768 0.78089 0.85508 0.0
C202 C 0.20784 0.79655 0.87607 0.0
C203 C 0.21993 0.78915 0.86905 0.0
C204 C 0.19341 0.79528 0.86888 0.0
C205 C 0.1912 0.78708 0.8549 0.0
U206 U 0.21342 0.75028 0.81659 0.0
O207 O 0.19825 0.73463 0.80211 0.0
O208 O 0.21341 0.75205 0.79172 0.0
C209 C 0.20199 0.7416 0.78967 0.0
C210 C 0.20079 0.77185 0.83289 0.0
C211 C 0.18912 0.74592 0.78039 0.0
C212 C 0.16334 0.75419 0.77812 0.0
C213 C 0.17555 0.7505 0.78715 0.0
C214 C 0.17825 0.74922 0.75547 0.0
C215 C 0.16453 0.75353 0.76217 0.0
C216 C 0.19041 0.7454 0.7645 0.0
C217 C 0.24722 0.72563 0.82283 0.0
C218 C 0.25464 0.70534 0.8051 0.0
C219 C 0.26841 0.71065 0.82889 0.0
C220 C 0.25895 0.72239 0.8327 0.0
C221 C 0.26631 0.70189 0.8151 0.0
C222 C 0.24514 0.7171 0.80896 0.0
C223 C 0.23712 0.73768 0.82749 0.0
O224 O 0.21141 0.77459 0.82265 0.0
O225 O 0.19606 0.75737 0.8331 0.0
O226 O 0.22286 0.73303 0.8303 0.0
O227 O 0.23836 0.75001 0.8197 0.0
H228 H 0.22719 0.77541 0.84982 0.0
H229 H 0.23123 0.79 0.87417 0.0
H230 H 0.18377 0.80057 0.87406 0.0
H231 H 0.18001 0.78639 0.84954 0.0
H232 H 0.15299 0.75765 0.78362 0.0
H233 H 0.17435 0.75115 0.7994 0.0
H234 H 0.17947 0.74847 0.74322 0.0
H235 H 0.20079 0.74193 0.75907 0.0
H236 H 0.25264 0.69874 0.79445 0.0
H237 H 0.27743 0.70849 0.83673 0.0
H238 H 0.26075 0.72889 0.84344 0.0
H239 H 0.23609 0.71944 0.80121 0.0
C240 C 0.95664 0.60145 0.50902 0.0
C241 C 0.97205 0.60711 0.50926 0.0
C242 C 0.96574 0.62871 0.52595 0.0
C243 C 0.97657 0.6206 0.51771 0.0
C244 C 0.95027 0.62313 0.52541 0.0
C245 C 0.94579 0.6096 0.51704 0.0
U246 U 0.96213 0.57055 0.47775 0.0
O247 O 0.95917 0.5456 0.47859 0.0
O248 O 0.94515 0.55736 0.46297 0.0
C249 C 0.9475 0.54446 0.46911 0.0
C250 C 0.95175 0.58696 0.50074 0.0
C251 C 0.93375 0.53584 0.47449 0.0
C252 C 0.91068 0.53436 0.48981 0.0
C253 C 0.92348 0.54281 0.48439 0.0
C254 C 0.91837 0.51187 0.47556 0.0
C255 C 0.90803 0.51877 0.48552 0.0
C256 C 0.93111 0.52035 0.47008 0.0
C257 C 0.99647 0.57437 0.45117 0.0
C258 C 1.00016 0.5563 0.42986 0.0
C259 C 0.01986 0.57635 0.43642 0.0
C260 C 0.01085 0.58168 0.44838 0.0
C261 C 0.01464 0.5636 0.42702 0.0
C262 C 0.99117 0.56163 0.44187 0.0
C263 C 0.98724 0.58012 0.46386 0.0
O264 O 0.94719 0.58803 0.48664 0.0
O265 O 0.96065 0.57576 0.50235 0.0
O266 O 0.98727 0.57227 0.47612 0.0
O267 O 0.97356 0.58402 0.4602 0.0
H268 H 0.9806 0.60103 0.50302 0.0
H269 H 0.98854 0.62471 0.51777 0.0
H270 H 0.94168 0.62904 0.53175 0.0
H271 H 0.93384 0.60539 0.51698 0.0
H272 H 0.90304 0.53995 0.49761 0.0
H273 H 0.92543 0.55474 0.48803 0.0
H274 H 0.91655 0.49993 0.47191 0.0
H275 H 0.93896 0.51479 0.46248 0.0
H276 H 0.99588 0.54637 0.42292 0.0
H277 H 0.03085 0.58235 0.43442 0.0
H278 H 0.01509 0.59155 0.45544 0.0
H279 H 0.9801 0.5558 0.44394 0.0
C280 C 0.77874 0.80198 0.84179 0.0
C281 C 0.78797 0.78959 0.84061 0.0
C282 C 0.77877 0.7813 0.86518 0.0
C283 C 0.78796 0.77932 0.8522 0.0
C284 C 0.76966 0.79385 0.86629 0.0
C285 C 0.76965 0.80405 0.8547 0.0
U286 U 0.79555 0.81998 0.80632 0.0
O287 O 0.78399 0.82754 0.7862 0.0
O288 O 0.79788 0.84415 0.80087 0.0
C289 C 0.78814 0.842 0.78946 0.0
C290 C 0.77852 0.81292 0.82979 0.0
C291 C 0.7759 0.85269 0.78938 0.0
C292 C 0.74918 0.8583 0.79195 0.0
C293 C 0.76055 0.84793 0.79222 0.0
C294 C 0.76836 0.87836 0.78628 0.0
C295 C 0.75297 0.87365 0.78902 0.0
C296 C 0.77969 0.86797 0.78641 0.0
C297 C 0.83225 0.80571 0.7887 0.0
C298 C 0.84624 0.8182 0.76847 0.0
C299 C 0.8542 0.79436 0.77717 0.0
C300 C 0.84223 0.79399 0.78766 0.0
C301 C 0.85643 0.80653 0.7675 0.0
C302 C 0.83424 0.81779 0.77899 0.0
C303 C 0.82 0.80522 0.80011 0.0
O304 O 0.78964 0.82378 0.83044 0.0
O305 O 0.77578 0.80704 0.81593 0.0
O306 O 0.80626 0.80056 0.79498 0.0
O307 O 0.82002 0.81713 0.80979 0.0
H308 H 0.79511 0.78784 0.83072 0.0
H309 H 0.795 0.76972 0.85089 0.0
H310 H 0.76266 0.79591 0.87621 0.0
H311 H 0.76254 0.81362 0.85584 0.0
H312 H 0.73744 0.85437 0.79427 0.0
H313 H 0.75733 0.83622 0.79467 0.0
H314 H 0.77162 0.89007 0.78384 0.0
H315 H 0.79145 0.87188 0.78418 0.0
H316 H 0.8477 0.8278 0.76131 0.0
H317 H 0.86163 0.78505 0.77656 0.0
H318 H 0.84081 0.78454 0.79503 0.0
H319 H 0.82661 0.82695 0.77964 0.0
C320 C 0.27797 0.29889 0.34134 0.0
C321 C 0.29117 0.29095 0.34288 0.0
C322 C 0.27981 0.27801 0.36436 0.0
C323 C 0.29209 0.28061 0.35429 0.0
C324 C 0.26654 0.28587 0.36259 0.0
C325 C 0.26565 0.29622 0.35119 0.0
U326 U 0.29369 0.3175 0.30608 0.0
O327 O 0.28187 0.32524 0.28619 0.0
O328 O 0.29611 0.34167 0.30072 0.0
C329 C 0.28635 0.33965 0.28932 0.0
C330 C 0.27701 0.31009 0.32966 0.0
C331 C 0.27434 0.35054 0.28922 0.0
C332 C 0.24865 0.35779 0.29521 0.0
C333 C 0.25981 0.34718 0.29545 0.0
C334 C 0.2665 0.37526 0.28269 0.0
C335 C 0.2519 0.37199 0.28889 0.0
C336 C 0.27758 0.36462 0.28284 0.0
C337 C 0.33033 0.30307 0.28823 0.0
C338 C 0.34612 0.31631 0.26972 0.0
C339 C 0.3508 0.29043 0.27535 0.0
C340 C 0.33873 0.29024 0.28571 0.0
C341 C 0.35477 0.30352 0.26732 0.0
C342 C 0.33399 0.31608 0.28008 0.0
C343 C 0.31804 0.30269 0.29962 0.0
O344 O 0.28792 0.32117 0.33022 0.0
O345 O 0.27405 0.30436 0.31579 0.0
O346 O 0.30428 0.29813 0.29448 0.0
O347 O 0.31815 0.31454 0.30937 0.0
H348 H 0.30081 0.29287 0.33534 0.0
H349 H 0.30254 0.2749 0.35541 0.0
H350 H 0.25677 0.28396 0.36995 0.0
H351 H 0.25534 0.30219 0.35011 0.0
H352 H 0.23757 0.355 0.30021 0.0
H353 H 0.25711 0.33639 0.30053 0.0
H354 H 0.26931 0.38601 0.27758 0.0
H355 H 0.28873 0.36741 0.27797 0.0
H356 H 0.34892 0.32661 0.26384 0.0
H357 H 0.357 0.28028 0.27358 0.0
H358 H 0.336 0.28007 0.29183 0.0
H359 H 0.32758 0.32609 0.28186 0.0
C360 C 0.44367 0.9524 0.52999 0.0
C361 C 0.45822 0.94725 0.53248 0.0
C362 C 0.4539 0.92768 0.51199 0.0
C363 C 0.46332 0.93505 0.52351 0.0
C364 C 0.43925 0.93279 0.50967 0.0
C365 C 0.43421 0.94508 0.51858 0.0
U366 U 0.44636 0.97789 0.56608 0.0
O367 O 0.44604 1.00272 0.56982 0.0
O368 O 0.42841 0.98771 0.58029 0.0
C369 C 0.43311 1.00177 0.57742 0.0
C370 C 0.43827 0.9653 0.53932 0.0
C371 C 0.4212 0.01145 0.57246 0.0
C372 C 0.40822 0.02387 0.55266 0.0
C373 C 0.41916 0.01412 0.55704 0.0
C374 C 0.4009 0.02805 0.57899 0.0
C375 C 0.39901 0.03101 0.56359 0.0
C376 C 0.41192 0.01839 0.58337 0.0
C377 C 0.47678 0.96915 0.59535 0.0
C378 C 0.48385 0.98528 0.61789 0.0
C379 C 0.49629 0.96188 0.61257 0.0
C380 C 0.48738 0.95892 0.59943 0.0
C381 C 0.49475 0.97516 0.6219 0.0
C382 C 0.47493 0.98229 0.60471 0.0
C383 C 0.46826 0.96616 0.58099 0.0
O384 O 0.43129 0.96168 0.55197 0.0
O385 O 0.44814 0.97723 0.54118 0.0
O386 O 0.47083 0.97638 0.57081 0.0
O387 O 0.45372 0.96156 0.58217 0.0
H388 H 0.46563 0.95267 0.54136 0.0
H389 H 0.47456 0.93125 0.5257 0.0
H390 H 0.43179 0.92742 0.50081 0.0
H391 H 0.42293 0.94888 0.51653 0.0
H392 H 0.4069 0.02576 0.54069 0.0
H393 H 0.42611 0.00877 0.5484 0.0
H394 H 0.39408 0.03347 0.58769 0.0
H395 H 0.41332 0.01648 0.59532 0.0
H396 H 0.48225 0.99552 0.62491 0.0
H397 H 0.5047 0.95396 0.61517 0.0
H398 H 0.48899 0.94875 0.59228 0.0
H399 H 0.46675 0.9903 0.60171 0.0
C400 C 0.21501 0.29091 0.7002 0.0
C401 C 0.22365 0.2977 0.68863 0.0
C402 C 0.22396 0.27311 0.67452 0.0
C403 C 0.22803 0.28888 0.67587 0.0
C404 C 0.21553 0.26636 0.68629 0.0
C405 C 0.21108 0.27519 0.69899 0.0
U406 U 0.21858 0.32664 0.72691 0.0
O407 O 0.20073 0.34048 0.73683 0.0
O408 O 0.21602 0.32927 0.75173 0.0
C409 C 0.20392 0.33719 0.7508 0.0
C410 C 0.20989 0.30007 0.71348 0.0
C411 C 0.1907 0.33231 0.76012 0.0
C412 C 0.17288 0.31263 0.76968 0.0
C413 C 0.18536 0.31692 0.76051 0.0
C414 C 0.17086 0.33909 0.77798 0.0
C415 C 0.16547 0.32369 0.77852 0.0
C416 C 0.18334 0.34334 0.76888 0.0
C417 C 0.25044 0.35772 0.72031 0.0
C418 C 0.25119 0.38383 0.73097 0.0
C419 C 0.27414 0.37385 0.72028 0.0
C420 C 0.26602 0.35985 0.71678 0.0
C421 C 0.26683 0.38607 0.72734 0.0
C422 C 0.24308 0.36977 0.72753 0.0
C423 C 0.24216 0.34288 0.71635 0.0
O424 O 0.2194 0.30167 0.7251 0.0
O425 O 0.20384 0.3128 0.71045 0.0
O426 O 0.22812 0.34332 0.71116 0.0
O427 O 0.24348 0.33233 0.72615 0.0
H428 H 0.22691 0.30982 0.68942 0.0
H429 H 0.23466 0.2944 0.66709 0.0
H430 H 0.21207 0.25428 0.68553 0.0
H431 H 0.20442 0.26976 0.70782 0.0
H432 H 0.16892 0.3007 0.76972 0.0
H433 H 0.19086 0.30824 0.75374 0.0
H434 H 0.16557 0.34787 0.78479 0.0
H435 H 0.18732 0.35526 0.76875 0.0
H436 H 0.24514 0.393 0.73627 0.0
H437 H 0.28622 0.37503 0.71759 0.0
H438 H 0.27192 0.35065 0.71131 0.0
H439 H 0.23106 0.36834 0.73043 0.0
C440 C 0.77233 0.25763 0.70559 0.0
C441 C 0.78537 0.2652 0.69945 0.0
C442 C 0.76924 0.28084 0.6851 0.0
C443 C 0.78384 0.27667 0.68927 0.0
C444 C 0.75626 0.27346 0.69164 0.0
C445 C 0.7578 0.26196 0.70174 0.0
U446 U 0.79254 0.23695 0.73634 0.0
O447 O 0.78274 0.22449 0.75541 0.0
O448 O 0.79559 0.21246 0.73767 0.0
C449 C 0.78704 0.21131 0.74986 0.0
C450 C 0.77352 0.24492 0.71564 0.0
C451 C 0.77536 0.19838 0.74944 0.0
C452 C 0.74894 0.18785 0.74715 0.0
C453 C 0.75979 0.20033 0.74693 0.0
C454 C 0.76915 0.17133 0.75199 0.0
C455 C 0.75348 0.1732 0.74982 0.0
C456 C 0.77994 0.1838 0.75185 0.0
C457 C 0.83006 0.25337 0.75454 0.0
C458 C 0.84 0.24512 0.77829 0.0
C459 C 0.85667 0.25972 0.76166 0.0
C460 C 0.84453 0.26033 0.75142 0.0
C461 C 0.85452 0.2522 0.77526 0.0
C462 C 0.8279 0.24563 0.76798 0.0
C463 C 0.81737 0.25428 0.7437 0.0
O464 O 0.78462 0.23593 0.7126 0.0
O465 O 0.7719 0.24824 0.73025 0.0
O466 O 0.8039 0.2563 0.74977 0.0
O467 O 0.81677 0.24406 0.73223 0.0
H468 H 0.79672 0.26209 0.70232 0.0
H469 H 0.79409 0.28198 0.68437 0.0
H470 H 0.74486 0.27655 0.68894 0.0
H471 H 0.7476 0.25633 0.70643 0.0
H472 H 0.73698 0.18974 0.74556 0.0
H473 H 0.756 0.21149 0.74498 0.0
H474 H 0.77311 0.1602 0.75377 0.0
H475 H 0.79191 0.18205 0.7537 0.0
H476 H 0.83804 0.23909 0.78857 0.0
H477 H 0.86767 0.26541 0.75907 0.0
H478 H 0.84642 0.26632 0.7411 0.0
H479 H 0.81685 0.24002 0.77053 0.0
C480 C 0.52883 0.60677 0.60436 0.0
C481 C 0.5337 0.59825 0.61622 0.0
C482 C 0.50945 0.60108 0.62932 0.0
C483 C 0.52411 0.59548 0.62864 0.0
C484 C 0.5047 0.60967 0.6174 0.0
C485 C 0.51432 0.61249 0.60506 0.0
U486 U 0.56249 0.59787 0.57831 0.0
O487 O 0.56361 0.59669 0.55336 0.0
O488 O 0.57857 0.61361 0.56654 0.0
C489 C 0.57339 0.60871 0.55301 0.0
C490 C 0.53853 0.60955 0.59102 0.0
C491 C 0.56916 0.62059 0.54298 0.0
C492 C 0.55023 0.63632 0.53297 0.0
C493 C 0.5542 0.62534 0.54286 0.0
C494 C 0.57621 0.63822 0.52346 0.0
C495 C 0.56116 0.64288 0.52308 0.0
C496 C 0.58014 0.62717 0.5333 0.0
C497 C 0.58763 0.56541 0.58699 0.0
C498 C 0.60289 0.55138 0.56876 0.0
C499 C 0.60682 0.54925 0.59576 0.0
C500 C 0.59543 0.55932 0.59888 0.0
C501 C 0.61055 0.545 0.58066 0.0
C502 C 0.59158 0.56154 0.57189 0.0
C503 C 0.57503 0.57524 0.59057 0.0
O504 O 0.55269 0.61496 0.59387 0.0
O505 O 0.5375 0.59871 0.58014 0.0
O506 O 0.56312 0.57337 0.58138 0.0
O507 O 0.57905 0.58964 0.59429 0.0
H508 H 0.54485 0.59364 0.61582 0.0
H509 H 0.52803 0.58868 0.63755 0.0
H510 H 0.49357 0.6143 0.61766 0.0
H511 H 0.51038 0.6191 0.596 0.0
H512 H 0.53849 0.63944 0.53287 0.0
H513 H 0.54555 0.62042 0.55029 0.0
H514 H 0.58499 0.64318 0.51622 0.0
H515 H 0.59177 0.62372 0.53332 0.0
H516 H 0.60566 0.54851 0.55701 0.0
H517 H 0.61242 0.54445 0.60517 0.0
H518 H 0.59254 0.56215 0.6106 0.0
H519 H 0.58579 0.5662 0.56253 0.0
C520 C 0.51602 0.47823 0.93741 0.0
C521 C 0.52194 0.49006 0.92861 0.0
C522 C 0.49774 0.48957 0.91482 0.0
C523 C 0.51289 0.49567 0.91739 0.0
C524 C 0.49193 0.47764 0.92365 0.0
C525 C 0.501 0.47203 0.93484 0.0
U526 U 0.55243 0.4806 0.96121 0.0
O527 O 0.55579 0.47874 0.98573 0.0
O528 O 0.56588 0.4625 0.96952 0.0
C529 C 0.56313 0.46627 0.98385 0.0
C530 C 0.52528 0.47252 0.9495 0.0
C531 C 0.55817 0.45364 0.99343 0.0
C532 C 0.53889 0.44007 0.00846 0.0
C533 C 0.54301 0.45154 0.99855 0.0
C534 C 0.56489 0.43234 0.00788 0.0
C535 C 0.54983 0.43041 0.01338 0.0
C536 C 0.569 0.44386 0.99805 0.0
C537 C 0.58395 0.51151 0.9544 0.0
C538 C 0.60439 0.51862 0.97266 0.0
C539 C 0.6053 0.52899 0.94774 0.0
C540 C 0.59145 0.52076 0.94387 0.0
C541 C 0.61181 0.52817 0.96225 0.0
C542 C 0.5906 0.51031 0.96875 0.0
C543 C 0.56901 0.50357 0.95048 0.0
O544 O 0.5378 0.46626 0.94497 0.0
O545 O 0.52743 0.48181 0.96163 0.0
O546 O 0.55827 0.50522 0.96073 0.0
O547 O 0.56938 0.48948 0.94482 0.0
H548 H 0.53351 0.49504 0.93052 0.0
H549 H 0.51766 0.50497 0.91091 0.0
H550 H 0.48039 0.47255 0.92183 0.0
H551 H 0.49626 0.46288 0.94153 0.0
H552 H 0.52723 0.43903 0.01257 0.0
H553 H 0.53442 0.45893 0.99511 0.0
H554 H 0.57354 0.42496 0.01117 0.0
H555 H 0.58074 0.44525 0.99418 0.0
H556 H 0.60922 0.51762 0.98386 0.0
H557 H 0.61066 0.53636 0.93952 0.0
H558 H 0.58647 0.52181 0.93275 0.0
H559 H 0.58502 0.50312 0.97699 0.0
C560 C 0.70529 0.28258 0.34726 0.0
C561 C 0.7187 0.28074 0.3555 0.0
C562 C 0.71123 0.29937 0.37515 0.0
C563 C 0.72165 0.28907 0.36933 0.0
C564 C 0.69776 0.30101 0.36685 0.0
C565 C 0.69485 0.2927 0.35304 0.0
U566 U 0.71298 0.25125 0.31677 0.0
O567 O 0.69637 0.23576 0.30359 0.0
O568 O 0.71206 0.25172 0.29186 0.0
C569 C 0.70009 0.24181 0.29068 0.0
C570 C 0.70193 0.27404 0.33268 0.0
C571 C 0.6872 0.24623 0.28151 0.0
C572 C 0.67088 0.26531 0.27295 0.0
C573 C 0.68297 0.26132 0.28199 0.0
C574 C 0.6669 0.23911 0.26308 0.0
C575 C 0.66271 0.25426 0.26332 0.0
C576 C 0.67903 0.23516 0.27206 0.0
C577 C 0.74598 0.22532 0.32193 0.0
C578 C 0.74848 0.1989 0.3132 0.0
C579 C 0.77119 0.21558 0.31896 0.0
C580 C 0.762 0.22755 0.32279 0.0
C581 C 0.76453 0.20106 0.31429 0.0
C582 C 0.73929 0.21092 0.31692 0.0
C583 C 0.73659 0.23797 0.32687 0.0
O584 O 0.71227 0.2759 0.322 0.0
O585 O 0.69669 0.25978 0.33364 0.0
O586 O 0.72237 0.23423 0.33077 0.0
O587 O 0.73797 0.25011 0.31882 0.0
H588 H 0.72688 0.27293 0.35119 0.0
H589 H 0.7322 0.28763 0.37534 0.0
H590 H 0.68936 0.30861 0.37109 0.0
H591 H 0.68439 0.29418 0.34687 0.0
H592 H 0.66812 0.2771 0.27333 0.0
H593 H 0.68908 0.27004 0.28927 0.0
H594 H 0.66071 0.23023 0.25607 0.0
H595 H 0.68205 0.22343 0.27161 0.0
H596 H 0.74302 0.1879 0.30947 0.0
H597 H 0.7835 0.21758 0.32006 0.0
H598 H 0.76741 0.23853 0.32667 0.0
H599 H 0.72697 0.20888 0.31603 0.0
C600 C 0.45371 0.10329 0.00721 0.0
C601 C 0.469 0.1092 0.00657 0.0
C602 C 0.46328 0.13061 0.02379 0.0
C603 C 0.47377 0.12272 0.01486 0.0
C604 C 0.4479 0.12478 0.02413 0.0
C605 C 0.44318 0.11121 0.01594 0.0
U606 U 0.45854 0.07257 0.97571 0.0
O607 O 0.45597 0.04761 0.97649 0.0
O608 O 0.44134 0.05924 0.96131 0.0
C609 C 0.44405 0.04635 0.96731 0.0
C610 C 0.44863 0.08878 0.99907 0.0
C611 C 0.43055 0.03754 0.97299 0.0
C612 C 0.4077 0.0358 0.98861 0.0
C613 C 0.42029 0.0444 0.98299 0.0
C614 C 0.41559 0.01337 0.97439 0.0
C615 C 0.40524 0.02016 0.98442 0.0
C616 C 0.42813 0.022 0.96872 0.0
C617 C 0.49216 0.07708 0.94828 0.0
C618 C 0.49594 0.05899 0.92702 0.0
C619 C 0.51507 0.07976 0.9329 0.0
C620 C 0.50618 0.08488 0.94504 0.0
C621 C 0.51008 0.06673 0.92377 0.0
C622 C 0.48706 0.0641 0.93922 0.0
C623 C 0.48312 0.08257 0.96123 0.0
O624 O 0.44361 0.08982 0.98513 0.0
O625 O 0.45769 0.07765 1.00037 0.0
O626 O 0.48361 0.07466 0.97341 0.0
O627 O 0.46926 0.08625 0.95793 0.0
H628 H 0.47728 0.1033 0.99978 0.0
H629 H 0.48564 0.12703 0.01424 0.0
H630 H 0.43959 0.13051 0.03103 0.0
H631 H 0.43133 0.1068 0.01654 0.0
H632 H 0.40004 0.04132 0.99644 0.0
H633 H 0.42208 0.05637 0.98652 0.0
H634 H 0.41392 1.0014 0.97082 0.0
H635 H 0.43597 0.01653 0.96104 0.0
H636 H 0.49185 0.04884 0.92029 0.0
H637 H 0.52579 0.0861 0.93057 0.0
H638 H 0.51026 0.09494 0.95192 0.0
H639 H 0.47627 0.05791 0.94163 0.0
O640 O 0.24779 0.88647 0.02297 0.0
Cd641 Cd 0.25766 0.89841 0.04177 0.0
Cd642 Cd 0.23912 0.92132 0.03088 0.0
O643 O 0.23295 0.90368 0.01501 0.0
O644 O 0.26813 0.88246 0.05218 0.0
O645 O 0.24963 0.89491 0.06295 0.0
C646 C 0.25939 0.88465 0.06372 0.0
C647 C 0.2199 0.93685 0.03972 0.0
C648 C 0.23803 0.89051 0.01358 0.0
C649 C 0.27369 0.92805 0.03264 0.0
O650 O 0.26064 0.93236 0.02917 0.0
O651 O 0.27488 0.91509 0.03802 0.0
O652 O 0.22517 0.9374 0.02611 0.0
O653 O 0.22539 0.92722 0.04843 0.0
O654 O 0.14928 0.53458 0.27434 0.0
Cd655 Cd 0.13785 0.51582 0.28334 0.0
Cd656 Cd 0.11369 0.5263 0.26537 0.0
O657 O 0.13056 0.54327 0.26125 0.0
O658 O 0.15473 0.50555 0.29287 0.0
O659 O 0.14018 0.49447 0.27434 0.0
C660 C 0.15143 0.49385 0.28374 0.0
C661 C 0.09765 0.51744 0.24495 0.0
C662 C 0.14438 0.54443 0.26589 0.0
C663 C 0.10877 0.52357 0.29938 0.0
O664 O 0.10344 0.52634 0.28648 0.0
O665 O 0.12233 0.51948 0.30064 0.0
O666 O 0.09641 0.53055 0.25187 0.0
O667 O 0.10826 0.50926 0.24949 0.0
O668 O 0.75699 0.67874 0.99564 0.0
Cd669 Cd 0.75156 0.66565 0.01396 0.0
Cd670 Cd 0.77263 0.64785 0.99972 0.0
O671 O 0.77668 0.66669 0.98687 0.0
O672 O 0.7389 0.67877 0.02728 0.0
O673 O 0.76127 0.67153 0.03451 0.0
C674 C 0.7494 0.67902 0.03755 0.0
C675 C 0.79289 0.63616 0.01043 0.0
C676 C 0.76805 0.67767 0.98639 0.0
C677 C 0.74018 0.63452 1.00112 0.0
O678 O 0.7532 0.63363 0.99489 0.0
O679 O 0.73761 0.64588 0.01004 0.0
O680 O 0.79016 0.6349 0.99601 0.0
O681 O 0.78437 0.64456 0.01882 0.0
O682 O 0.90177 0.03702 0.28576 0.0
Cd683 Cd 0.88981 0.04051 0.26607 0.0
Cd684 Cd 0.86842 0.04949 0.28809 0.0
O685 O 0.88558 0.04524 0.30303 0.0
O686 O 0.90511 0.03693 0.24971 0.0
O687 O 0.89564 0.05925 0.25439 0.0
C688 C 0.90472 0.05099 0.24654 0.0
C689 C 0.85603 0.07214 0.29142 0.0
C690 C 0.89826 0.03977 0.29961 0.0
C691 C 0.85891 0.02268 0.26655 0.0
O692 O 0.85575 0.0308 0.27834 0.0
O693 O 0.87151 0.02521 0.25963 0.0
O694 O 0.85326 0.06097 0.30011 0.0
O695 O 0.86612 0.07058 0.28086 0.0
O696 O 0.26227 0.18004 0.49655 0.0
Cd697 Cd 0.25291 0.16801 0.51418 0.0
Cd698 Cd 0.27193 0.1462 0.50103 0.0
O699 O 0.27719 0.16322 0.48614 0.0
O700 O 0.24212 0.1839 0.52609 0.0
O701 O 0.26079 0.17185 0.53578 0.0
C702 C 0.25084 0.18195 0.53748 0.0
C703 C 0.29157 0.13296 0.511 0.0
C704 C 0.27174 0.17623 0.48634 0.0
C705 C 0.2378 0.13771 0.5025 0.0
O706 O 0.25102 0.13389 0.49855 0.0
O707 O 0.23612 0.15076 0.50895 0.0
O708 O 0.28717 0.1307 0.49704 0.0
O709 O 0.28508 0.14316 0.51932 0.0
O710 O 0.40375 0.53844 0.78553 0.0
Cd711 Cd 0.39136 0.54173 0.76613 0.0
Cd712 Cd 0.37027 0.55096 0.78796 0.0
O713 O 0.38763 0.54679 0.80279 0.0
O714 O 0.40629 0.53844 0.74938 0.0
O715 O 0.3967 0.56062 0.75457 0.0
C716 C 0.40572 0.55254 0.74645 0.0
C717 C 0.35846 0.57397 0.79071 0.0
C718 C 0.40032 0.54134 0.79936 0.0
C719 C 0.36042 0.52388 0.76706 0.0
O720 O 0.35721 0.5323 0.77864 0.0
O721 O 0.37309 0.52621 0.76021 0.0
O722 O 0.3559 0.56335 0.80008 0.0
O723 O 0.36798 0.57163 0.77976 0.0
O724 O 0.75018 0.38657 0.52401 0.0
Cd725 Cd 0.75955 0.39848 0.54309 0.0
Cd726 Cd 0.74119 0.42138 0.53202 0.0
O727 O 0.73569 0.40395 0.51576 0.0
O728 O 0.76995 0.38278 0.55397 0.0
O729 O 0.75071 0.39475 0.5639 0.0
C730 C 0.76067 0.38476 0.56513 0.0
C731 C 0.72168 0.43683 0.54028 0.0
C732 C 0.74076 0.39077 0.51436 0.0
C733 C 0.77565 0.4283 0.53452 0.0
O734 O 0.76265 0.4326 0.53093 0.0
O735 O 0.77681 0.41527 0.53977 0.0
O736 O 0.7275 0.43755 0.5269 0.0
O737 O 0.72673 0.42702 0.54906 0.0
O738 O 0.65 0.03461 0.7779 0.0
Cd739 Cd 0.63736 0.01595 0.78561 0.0
Cd740 Cd 0.61528 0.02626 0.76567 0.0
O741 O 0.63326 0.04217 0.76171 0.0
O742 O 0.65286 0.00478 0.79622 0.0
O743 O 0.63988 0.99488 0.77607 0.0
C744 C 0.65018 0.99356 0.78634 0.0
C745 C 0.6005 0.01674 0.74461 0.0
C746 C 0.64636 0.04377 0.76809 0.0
C747 C 0.60753 0.02492 0.79922 0.0
O748 O 0.6035 0.02807 0.78595 0.0
O749 O 0.62053 0.01986 0.8015 0.0
O750 O 0.59984 0.03052 0.75011 0.0
O751 O 0.60975 0.00822 0.75098 0.0
O752 O 0.99569 0.28823 0.92023 0.0
Cd753 Cd 0.99915 0.26834 0.90752 0.0
Cd754 Cd 0.01159 0.28919 0.88727 0.0
O755 O 0.00691 0.30459 0.90493 0.0
O756 O 0.99573 0.25183 0.92204 0.0
O757 O 0.01814 0.25734 0.91139 0.0
C758 C 0.00997 0.24925 0.9206 0.0
C759 C 0.03479 0.293 0.8742 0.0
C760 C 0.99991 0.30185 0.91724 0.0
C761 C 0.9835 0.269 0.87715 0.0
O762 O 0.9932 0.27992 0.87436 0.0
O763 O 0.98421 0.26233 0.88955 0.0
O764 O 0.02373 0.30167 0.87268 0.0
O765 O 0.03282 0.28214 0.88343 0.0
O766 O 0.49398 0.78849 0.41798 0.0
Cd767 Cd 0.49712 0.76814 0.40614 0.0
Cd768 Cd 0.51075 0.78819 0.38558 0.0
O769 O 0.50712 0.8041 0.40324 0.0
O770 O 0.49325 0.75285 0.42181 0.0
O771 O 0.51552 0.75635 0.41023 0.0
C772 C 0.50725 0.74943 0.42024 0.0
C773 C 0.53389 0.79099 0.3722 0.0
C774 C 0.49931 0.80183 0.41518 0.0
C775 C 0.4819 0.76845 0.37579 0.0
O776 O 0.49197 0.77904 0.37288 0.0
O777 O 0.4822 0.76201 0.38835 0.0
O778 O 0.52316 0.80005 0.37068 0.0
O779 O 0.5316 0.78028 0.38157 0.0
O780 O 0.99229 0.78599 0.66715 0.0
Cd781 Cd 0.01082 0.77801 0.65525 0.0
Cd782 Cd 0.99723 0.79585 0.6327 0.0
O783 O 0.98214 0.79993 0.65019 0.0
O784 O 0.02152 0.7673 0.6711 0.0
O785 O 0.03244 0.78697 0.65977 0.0
C786 C 0.03331 0.77668 0.66957 0.0
C787 C 0.00559 0.81605 0.61782 0.0
C788 C 0.98206 0.79462 0.66333 0.0
C789 C 1.00019 0.76217 0.6252 0.0
O790 O 0.99536 0.77469 0.62142 0.0
O791 O 0.00692 0.76129 0.63789 0.0
O792 O 0.99193 0.80964 0.61659 0.0
O793 O 0.01458 0.81122 0.62785 0.0
O794 O 0.49133 0.28381 0.16706 0.0
Cd795 Cd 0.51019 0.27721 0.1548 0.0
Cd796 Cd 0.49653 0.29578 0.13338 0.0
O797 O 0.48172 0.29928 0.15123 0.0
O798 O 0.52173 0.26616 0.16976 0.0
O799 O 0.53122 0.28731 0.15993 0.0
C800 C 0.53286 0.27646 0.16894 0.0
C801 C 0.50481 0.31652 0.11918 0.0
C802 C 0.48133 0.29294 0.16386 0.0
C803 C 0.49973 0.26255 0.12425 0.0
O804 O 0.49437 0.27507 0.12125 0.0
O805 O 0.5069 0.26131 0.13663 0.0
O806 O 0.49103 0.31036 0.11809 0.0
O807 O 0.51395 0.31112 0.12871 0.0
H808 H 0.19628 0.82386 0.88446 0.0
H809 H 0.20027 0.83906 0.90831 0.0
H810 H 0.22943 0.80591 0.92446 0.0
H811 H 0.22496 0.79026 0.90083 0.0
H812 H 0.21074 0.81514 0.94655 0.0
H813 H 0.24443 0.83969 0.91104 0.0
H814 H 0.25144 0.85174 0.88716 0.0
H815 H 0.22052 0.88652 0.89746 0.0
H816 H 0.21317 0.87455 0.92131 0.0
H817 H 0.24732 0.86199 0.00636 0.0
H818 H 0.24099 0.84561 0.98366 0.0
H819 H 0.21158 0.8788 0.96804 0.0
H820 H 0.21803 0.89541 0.99065 0.0
H821 H 0.23001 0.86946 0.94581 0.0
H822 H 0.19683 0.84503 0.98183 0.0
H823 H 0.19029 0.83297 0.00581 0.0
H824 H 0.22077 0.79798 0.99472 0.0
H825 H 0.22765 0.80995 0.97076 0.0
C826 C 0.20339 0.81967 0.89313 0.0
C827 C 0.21031 0.80581 0.89068 0.0
C828 C 0.2058 0.82847 0.90673 0.0
C829 C 0.21533 0.82374 0.91812 0.0
C830 C 0.22208 0.80983 0.91582 0.0
C831 C 0.21963 0.80097 0.90223 0.0
C832 C 0.21829 0.83337 0.93238 0.0
C833 C 0.21514 0.82697 0.9464 0.0
C834 C 0.22371 0.8489 0.9322 0.0
C835 C 0.22814 0.85614 0.91788 0.0
C836 C 0.23904 0.84984 0.90815 0.0
C837 C 0.24309 0.85666 0.89463 0.0
C838 C 0.2364 0.86986 0.89078 0.0
C839 C 0.22567 0.87628 0.90045 0.0
C840 C 0.22157 0.86949 0.91398 0.0
C841 C 0.23939 0.86577 0.9982 0.0
C842 C 0.23321 0.88004 1.00036 0.0
C843 C 0.23572 0.85635 0.98522 0.0
C844 C 0.2257 0.86091 0.97417 0.0
C845 C 0.21933 0.87504 0.9764 0.0
C846 C 0.22301 0.88449 0.98937 0.0
C847 C 0.22242 0.85127 0.95999 0.0
C848 C 0.22555 0.85765 0.94597 0.0
C849 C 0.21703 0.83573 0.96019 0.0
C850 C 0.21286 0.82847 0.97456 0.0
C851 C 0.20222 0.83483 0.98456 0.0
C852 C 0.19844 0.828 0.99814 0.0
C853 C 0.20513 0.81474 1.00181 0.0
C854 C 0.2156 0.80826 0.99188 0.0
C855 C 0.21944 0.81505 0.97828 0.0
H856 H 0.20219 0.80947 0.01233 0.0
H857 H 0.23955 0.87513 0.88031 0.0
H858 H 0.04547 0.56038 0.42724 0.0
H859 H 0.0615 0.55217 0.40607 0.0
H860 H 0.02171 0.54595 0.37685 0.0
H861 H 0.00559 0.55413 0.39802 0.0
H862 H 0.03969 0.52296 0.37199 0.0
H863 H 0.04667 0.57736 0.37514 0.0
H864 H 0.05254 0.60291 0.38752 0.0
H865 H 0.09792 0.59112 0.39812 0.0
H866 H 0.09225 0.56541 0.38599 0.0
H867 H 0.07785 0.52594 0.30049 0.0
H868 H 0.06215 0.53085 0.32291 0.0
H869 H 0.10209 0.53115 0.35164 0.0
H870 H 0.11792 0.52609 0.32924 0.0
H871 H 0.08451 0.55651 0.35708 0.0
H872 H 0.07708 0.50196 0.3523 0.0
H873 H 0.0706 0.477 0.33892 0.0
H874 H 0.02523 0.48994 0.33008 0.0
H875 H 0.03151 0.51508 0.34322 0.0
C876 C 0.04014 0.55733 0.41629 0.0
C877 C 0.02427 0.55802 0.41428 0.0
C878 C 0.04931 0.55262 0.4042 0.0
C879 C 0.04285 0.54865 0.3898 0.0
C880 C 0.02696 0.54896 0.38785 0.0
C881 C 0.01775 0.55361 0.39997 0.0
C882 C 0.0527 0.5444 0.37674 0.0
C883 C 0.04939 0.53037 0.36863 0.0
C884 C 0.06552 0.55395 0.3725 0.0
C885 C 0.06898 0.5694 0.37981 0.0
C886 C 0.05786 0.58017 0.38023 0.0
C887 C 0.06116 0.59469 0.38718 0.0
C888 C 0.07558 0.59862 0.39364 0.0
C889 C 0.08675 0.58805 0.39313 0.0
C890 C 0.0835 0.5735 0.38621 0.0
C891 C 0.0833 0.52694 0.31158 0.0
C892 C 0.09915 0.52565 0.31308 0.0
C893 C 0.07429 0.52969 0.32439 0.0
C894 C 0.08095 0.5313 0.33893 0.0
C895 C 0.09674 0.52991 0.3405 0.0
C896 C 0.10574 0.52697 0.3277 0.0
C897 C 0.0715 0.53509 0.35238 0.0
C898 C 0.07487 0.54906 0.36053 0.0
C899 C 0.05864 0.52558 0.35652 0.0
C900 C 0.05482 0.51046 0.34863 0.0
C901 C 0.06577 0.49954 0.34739 0.0
C902 C 0.06212 0.48534 0.33987 0.0
C903 C 0.04752 0.4819 0.33362 0.0
C904 C 0.03653 0.49263 0.33491 0.0
C905 C 0.04013 0.50685 0.34241 0.0
H906 H 0.04472 0.4709 0.32781 0.0
H907 H 0.07811 0.60987 0.39901 0.0
H908 H 0.803 0.76746 0.8769 0.0
H909 H 0.80259 0.74997 0.89757 0.0
H910 H 0.75389 0.75315 0.90228 0.0
H911 H 0.75412 0.77038 0.88149 0.0
H912 H 0.7689 0.75668 0.92972 0.0
H913 H 0.76787 0.72186 0.88518 0.0
H914 H 0.77762 0.71154 0.86075 0.0
H915 H 0.81992 0.70301 0.88232 0.0
H916 H 0.81049 0.71347 0.90685 0.0
H917 H 0.74737 0.69641 0.97604 0.0
H918 H 0.75066 0.71408 0.95578 0.0
H919 H 0.79743 0.70249 0.94989 0.0
H920 H 0.79393 0.68416 0.96974 0.0
H921 H 0.78553 0.70406 0.92353 0.0
H922 H 0.78706 0.73755 0.96807 0.0
H923 H 0.77834 0.74833 0.99273 0.0
H924 H 0.73688 0.7603 0.97182 0.0
H925 H 0.74526 0.74941 0.94707 0.0
C926 C 0.79216 0.76429 0.88219 0.0
C927 C 0.77859 0.77038 0.87753 0.0
C928 C 0.79196 0.75433 0.89405 0.0
C929 C 0.77819 0.75022 0.90144 0.0
C930 C 0.76465 0.75624 0.8968 0.0
C931 C 0.76483 0.76614 0.88494 0.0
C932 C 0.77784 0.73984 0.91419 0.0
C933 C 0.77239 0.74512 0.92835 0.0
C934 C 0.78291 0.72495 0.91254 0.0
C935 C 0.78854 0.71859 0.89781 0.0
C936 C 0.7793 0.7179 0.88469 0.0
C937 C 0.78476 0.712 0.87083 0.0
C938 C 0.79939 0.70667 0.86998 0.0
C939 C 0.80859 0.70717 0.88299 0.0
C940 C 0.80319 0.71307 0.89688 0.0
C941 C 0.75841 0.69769 0.97052 0.0
C942 C 0.77042 0.68894 0.97457 0.0
C943 C 0.76031 0.70788 0.95896 0.0
C944 C 0.77441 0.70992 0.95146 0.0
C945 C 0.78645 0.70119 0.95551 0.0
C946 C 0.78446 0.69075 0.96689 0.0
C947 C 0.77637 0.72081 0.93912 0.0
C948 C 0.78215 0.71565 0.92501 0.0
C949 C 0.77179 0.73591 0.94088 0.0
C950 C 0.76674 0.74255 0.95574 0.0
C951 C 0.77604 0.7424 0.96875 0.0
C952 C 0.77116 0.74854 0.98274 0.0
C953 C 0.75705 0.75496 0.98385 0.0
C954 C 0.7478 0.7553 0.97095 0.0
C955 C 0.75262 0.74917 0.95693 0.0
H956 H 0.75329 0.75971 0.99469 0.0
H957 H 0.8036 0.70211 0.85924 0.0
H958 H 0.96599 0.99652 0.41816 0.0
H959 H 0.94985 0.00575 0.39852 0.0
H960 H 0.987 1.00351 0.3665 0.0
H961 H 1.00325 0.99436 0.38617 0.0
H962 H 0.97332 0.02911 0.36396 0.0
H963 H 0.95667 0.97637 0.36536 0.0
H964 H 0.94738 0.95267 0.37707 0.0
H965 H 0.90672 0.97344 0.39203 0.0
H966 H 0.91587 0.99735 0.38059 0.0
H967 H 0.92785 0.03189 0.29676 0.0
H968 H 0.94469 0.0243 0.31672 0.0
H969 H 0.9094 0.03119 0.34999 0.0
H970 H 0.89247 0.03886 0.33012 0.0
H971 H 0.92219 1.00334 0.35169 0.0
H972 H 0.93941 0.05624 0.34939 0.0
H973 H 0.94905 0.07931 0.3368 0.0
H974 H 0.98912 0.05725 0.3223 0.0
H975 H 0.97962 0.03395 0.33464 0.0
C976 C 0.97069 0.99787 0.4069 0.0
C977 C 0.98588 0.99461 0.40371 0.0
C978 C 0.96145 1.00317 0.39568 0.0
C979 C 0.96713 0.00514 0.38095 0.0
C980 C 0.98236 1.00209 0.37778 0.0
C981 C 0.99164 0.99687 0.38903 0.0
C982 C 0.95718 0.01041 0.36889 0.0
C983 C 0.96223 0.02335 0.36115 0.0
C984 C 0.94258 1.00306 0.36536 0.0
C985 C 0.93703 0.9887 0.37225 0.0
C986 C 0.9458 0.97592 0.37125 0.0
C987 C 0.94055 0.96245 0.37782 0.0
C988 C 0.92649 0.96156 0.38533 0.0
C989 C 0.91763 0.97415 0.38624 0.0
C990 C 0.92283 0.98766 0.3797 0.0
C991 C 0.92369 0.0319 0.30834 0.0
C992 C 0.90879 0.03599 0.31183 0.0
C993 C 0.93335 0.0276 0.31974 0.0
C994 C 0.92831 0.02724 0.33485 0.0
C995 C 0.91351 0.0314 0.3384 0.0
C996 C 0.90387 0.03583 0.32703 0.0
C997 C 0.93831 0.02205 0.34685 0.0
C998 C 0.93328 0.0091 0.35455 0.0
C999 C 0.95297 0.02929 0.35021 0.0
C1000 C 0.95872 0.0433 0.34281 0.0
C1001 C 0.95021 0.05626 0.34341 0.0
C1002 C 0.95567 0.06939 0.33634 0.0
C1003 C 0.96967 0.06974 0.32872 0.0
C1004 C 0.97827 0.05696 0.32819 0.0
C1005 C 0.97286 0.04379 0.33523 0.0
H1006 H 0.97387 0.07991 0.32326 0.0
H1007 H 0.92244 0.95112 0.3904 0.0
H1008 H 0.22212 0.28031 0.64479 0.0
H1009 H 0.22792 0.26455 0.62208 0.0
H1010 H 0.24075 0.229 0.65025 0.0
H1011 H 0.23518 0.24481 0.67307 0.0
H1012 H 0.26097 0.23399 0.626 0.0
H1013 H 0.2066 0.22561 0.63405 0.0
H1014 H 0.18043 0.23359 0.63816 0.0
H1015 H 0.18207 0.25509 0.59555 0.0
H1016 H 0.20834 0.24742 0.5913 0.0
H1017 H 0.26042 0.17578 0.56604 0.0
H1018 H 0.25679 0.19079 0.58987 0.0
H1019 H 0.23495 0.22426 0.56507 0.0
H1020 H 0.23788 0.20897 0.54148 0.0
H1021 H 0.21932 0.21955 0.58862 0.0
H1022 H 0.27329 0.2294 0.58033 0.0
H1023 H 0.29988 0.22281 0.57583 0.0
H1024 H 0.29974 0.20035 0.61788 0.0
H1025 H 0.27308 0.20665 0.62254 0.0
C1026 C 0.22636 0.26922 0.64617 0.0
C1027 C 0.22813 0.26379 0.66074 0.0
C1028 C 0.22957 0.26018 0.63318 0.0
C1029 C 0.23462 0.24554 0.63447 0.0
C1030 C 0.23682 0.24025 0.64899 0.0
C1031 C 0.23352 0.24924 0.66201 0.0
C1032 C 0.23718 0.23562 0.62066 0.0
C1033 C 0.25184 0.23066 0.61789 0.0
C1034 C 0.22534 0.23156 0.60994 0.0
C1035 C 0.20949 0.23605 0.61242 0.0
C1036 C 0.20142 0.23213 0.62561 0.0
C1037 C 0.18657 0.23659 0.62796 0.0
C1038 C 0.17961 0.24487 0.61714 0.0
C1039 C 0.18748 0.24869 0.60393 0.0
C1040 C 0.20235 0.24428 0.60154 0.0
C1041 C 0.2549 0.18638 0.56571 0.0
C1042 C 0.24941 0.19118 0.5519 0.0
C1043 C 0.2529 0.19501 0.57932 0.0
C1044 C 0.24574 0.20881 0.57932 0.0
C1045 C 0.24045 0.21365 0.56546 0.0
C1046 C 0.24216 0.2049 0.55194 0.0
C1047 C 0.24326 0.21805 0.5937 0.0
C1048 C 0.22853 0.22285 0.59665 0.0
C1049 C 0.25511 0.22213 0.60446 0.0
C1050 C 0.27114 0.21836 0.6017 0.0
C1051 C 0.2789 0.22296 0.58856 0.0
C1052 C 0.29398 0.21929 0.58599 0.0
C1053 C 0.30148 0.21113 0.59654 0.0
C1054 C 0.29391 0.20665 0.6097 0.0
C1055 C 0.27882 0.21028 0.61232 0.0
H1056 H 0.31316 0.2083 0.59453 0.0
H1057 H 0.1681 0.24831 0.61898 0.0
H1058 H 0.47884 0.59241 0.62808 0.0
H1059 H 0.46168 0.5867 0.64917 0.0
H1060 H 0.49915 0.59655 0.68086 0.0
H1061 H 0.51644 0.60213 0.65973 0.0
H1062 H 0.48374 0.57192 0.68814 0.0
H1063 H 0.47045 0.62136 0.67755 0.0
H1064 H 0.46309 0.64212 0.66203 0.0
H1065 H 0.42098 0.61643 0.64954 0.0
H1066 H 0.42819 0.5954 0.66482 0.0
H1067 H 0.41331 0.58274 0.74194 0.0
H1068 H 0.43149 0.59322 0.72337 0.0
H1069 H 0.4381 0.54771 0.70512 0.0
H1070 H 0.42047 0.53722 0.72389 0.0
H1071 H 0.43313 0.5935 0.69391 0.0
H1072 H 0.47385 0.54403 0.69382 0.0
H1073 H 0.48265 0.52578 0.71159 0.0
H1074 H 0.47268 0.55619 0.74948 0.0
H1075 H 0.46402 0.57471 0.73194 0.0
C1076 C 0.4834 0.59353 0.63955 0.0
C1077 C 0.499 0.59778 0.64223 0.0
C1078 C 0.47356 0.59028 0.65162 0.0
C1079 C 0.47904 0.59141 0.66666 0.0
C1080 C 0.49463 0.59561 0.66937 0.0
C1081 C 0.50452 0.59876 0.65728 0.0
C1082 C 0.46859 0.58762 0.67946 0.0
C1083 C 0.47271 0.57669 0.68942 0.0
C1084 C 0.45434 0.59413 0.68145 0.0
C1085 C 0.44992 0.60675 0.67224 0.0
C1086 C 0.45967 0.62008 0.6714 0.0
C1087 C 0.45552 0.63191 0.66266 0.0
C1088 C 0.44159 0.63058 0.65478 0.0
C1089 C 0.43177 0.61744 0.65565 0.0
C1090 C 0.43588 0.60556 0.66436 0.0
C1091 C 0.4186 0.575 0.73391 0.0
C1092 C 0.41558 0.55915 0.73448 0.0
C1093 C 0.42899 0.581 0.7233 0.0
C1094 C 0.43645 0.57125 0.71303 0.0
C1095 C 0.43286 0.55546 0.71318 0.0
C1096 C 0.42268 0.54948 0.72387 0.0
C1097 C 0.44809 0.57744 0.70224 0.0
C1098 C 0.44421 0.58881 0.69268 0.0
C1099 C 0.46277 0.57169 0.70091 0.0
C1100 C 0.46817 0.5607 0.71155 0.0
C1101 C 0.47361 0.54686 0.70594 0.0
C1102 C 0.47856 0.53646 0.71597 0.0
C1103 C 0.47819 0.53981 0.73165 0.0
C1104 C 0.47291 0.55359 0.73733 0.0
C1105 C 0.46797 0.56403 0.72735 0.0
H1106 H 0.48201 0.53173 0.7394 0.0
H1107 H 0.43839 0.63976 0.64802 0.0
H1108 H 0.78698 0.30749 0.68153 0.0
H1109 H 0.78452 0.32591 0.66206 0.0
H1110 H 0.74488 0.29925 0.64357 0.0
H1111 H 0.74766 0.28047 0.66251 0.0
H1112 H 0.76273 0.30737 0.62151 0.0
H1113 H 0.74191 0.3333 0.66495 0.0
H1114 H 0.74148 0.34411 0.69136 0.0
H1115 H 0.78079 0.3743 0.68253 0.0
H1116 H 0.78157 0.36353 0.6561 0.0
H1117 H 0.74105 0.38373 0.58946 0.0
H1118 H 0.74149 0.36694 0.61076 0.0
H1119 H 0.78235 0.34829 0.59269 0.0
H1120 H 0.78185 0.36473 0.57135 0.0
H1121 H 0.76152 0.363 0.63329 0.0
H1122 H 0.78109 0.31067 0.59765 0.0
H1123 H 0.77906 0.2996 0.57132 0.0
H1124 H 0.73753 0.32159 0.56487 0.0
H1125 H 0.7392 0.33262 0.59122 0.0
C1126 C 0.77779 0.30548 0.67327 0.0
C1127 C 0.7675 0.29247 0.67364 0.0
C1128 C 0.77629 0.31614 0.66224 0.0
C1129 C 0.7644 0.31409 0.65142 0.0
C1130 C 0.75411 0.30114 0.6518 0.0
C1131 C 0.75564 0.29046 0.66276 0.0
C1132 C 0.76297 0.32511 0.63937 0.0
C1133 C 0.76246 0.31952 0.62412 0.0
C1134 C 0.76234 0.34097 0.64272 0.0
C1135 C 0.76188 0.34751 0.65858 0.0
C1136 C 0.75053 0.34217 0.66867 0.0
C1137 C 0.75021 0.3483 0.68364 0.0
C1138 C 0.76112 0.35986 0.68863 0.0
C1139 C 0.77235 0.36534 0.67865 0.0
C1140 C 0.77273 0.35923 0.66367 0.0
C1141 C 0.75016 0.3761 0.59008 0.0
C1142 C 0.76132 0.37547 0.57862 0.0
C1143 C 0.75042 0.36655 0.60227 0.0
C1144 C 0.76182 0.35618 0.6032 0.0
C1145 C 0.77328 0.35597 0.59207 0.0
C1146 C 0.77299 0.36543 0.57989 0.0
C1147 C 0.76156 0.34524 0.61549 0.0
C1148 C 0.76177 0.35084 0.63073 0.0
C1149 C 0.76158 0.32933 0.61217 0.0
C1150 C 0.76036 0.32258 0.59637 0.0
C1151 C 0.77149 0.31308 0.59063 0.0
C1152 C 0.77041 0.30683 0.5757 0.0
C1153 C 0.7582 0.30993 0.56641 0.0
C1154 C 0.74701 0.31925 0.57205 0.0
C1155 C 0.74803 0.32551 0.58698 0.0
H1156 H 0.75739 0.30509 0.55485 0.0
H1157 H 0.76086 0.36459 0.70022 0.0
H1158 H 0.50402 0.9555 0.64261 0.0
H1159 H 0.52231 0.96105 0.66351 0.0
H1160 H 0.52664 0.00835 0.65279 0.0
H1161 H 0.50881 1.00278 0.63153 0.0
H1162 H 0.55402 0.99818 0.65691 0.0
H1163 H 0.50639 0.99617 0.6839 0.0
H1164 H 0.48125 0.98488 0.69179 0.0
H1165 H 0.50283 0.94748 0.70988 0.0
H1166 H 0.52809 0.95846 0.70191 0.0
H1167 H 0.58617 0.03358 0.72476 0.0
H1168 H 0.56896 0.0245 0.70385 0.0
H1169 H 0.57487 0.978 0.71414 0.0
H1170 H 0.59242 0.98704 0.73508 0.0
H1171 H 0.54333 0.98552 0.71024 0.0
H1172 H 0.59134 0.98891 0.68437 0.0
H1173 H 0.61625 1.00108 0.67694 0.0
H1174 H 0.59352 0.03682 0.65711 0.0
H1175 H 0.56847 0.02499 0.66463 0.0
C1176 C 0.50889 0.96708 0.64468 0.0
C1177 C 0.50495 0.97869 0.63536 0.0
C1178 C 0.51924 0.97026 0.65673 0.0
C1179 C 0.52579 0.98514 0.6598 0.0
C1180 C 0.52173 0.99678 0.65065 0.0
C1181 C 0.5114 0.99361 0.63859 0.0
C1182 C 0.53726 0.98853 0.67221 0.0
C1183 C 0.5516 0.99555 0.66859 0.0
C1184 C 0.53429 0.98469 0.68739 0.0
C1185 C 0.51911 0.97805 0.69215 0.0
C1186 C 0.50576 0.98547 0.68944 0.0
C1187 C 0.49149 0.97914 0.69395 0.0
C1188 C 0.49044 0.96545 0.70129 0.0
C1189 C 0.50366 0.95807 0.70417 0.0
C1190 C 0.51796 0.96435 0.69966 0.0
C1191 C 0.5839 0.02141 0.72255 0.0
C1192 C 0.59066 0.01102 0.73155 0.0
C1193 C 0.57408 0.01625 0.71057 0.0
C1194 C 0.57069 1.00059 0.70744 0.0
C1195 C 0.57738 0.99013 0.7164 0.0
C1196 C 0.58743 0.99531 0.72828 0.0
C1197 C 0.55993 0.99534 0.69492 0.0
C1198 C 0.54575 0.988 0.69852 0.0
C1199 C 0.56298 0.99896 0.67973 0.0
C1200 C 0.57803 0.00613 0.67519 0.0
C1201 C 0.59165 0.99944 0.67855 0.0
C1202 C 0.6058 0.00626 0.67429 0.0
C1203 C 0.60647 0.01973 0.66658 0.0
C1204 C 0.59299 0.02639 0.66309 0.0
C1205 C 0.57881 0.01963 0.66733 0.0
H1206 H 0.61744 0.02499 0.66329 0.0
H1207 H 0.47938 0.96057 0.70478 0.0
H1208 H 0.88441 0.24675 0.76946 0.0
H1209 H 0.90562 0.24743 0.78768 0.0
H1210 H 0.87477 0.25783 0.82433 0.0
H1211 H 0.85354 0.25734 0.80615 0.0
H1212 H 0.90078 0.27662 0.82583 0.0
H1213 H 0.88749 0.22309 0.82046 0.0
H1214 H 0.88185 0.19817 0.80671 0.0
H1215 H 0.92717 0.2004 0.788 0.0
H1216 H 0.93302 0.22545 0.80147 0.0
H1217 H 0.96062 0.24608 0.87878 0.0
H1218 H 0.93817 0.24115 0.86211 0.0
H1219 H 0.9548 0.27769 0.83451 0.0
H1220 H 0.97719 0.2827 0.851 0.0
H1221 H 0.93426 0.23402 0.83081 0.0
H1222 H 0.92424 0.2978 0.8262 0.0
H1223 H 0.9291 0.32213 0.84126 0.0
H1224 H 0.92836 0.29817 0.88243 0.0
H1225 H 0.92327 0.27373 0.86765 0.0
C1226 C 0.88215 0.24918 0.7814 0.0
C1227 C 0.8673 0.252 0.78636 0.0
C1228 C 0.89425 0.24945 0.79181 0.0
C1229 C 0.89176 0.25258 0.80738 0.0
C1230 C 0.87694 0.25535 0.81238 0.0
C1231 C 0.86481 0.25497 0.80199 0.0
C1232 C 0.90472 0.25353 0.81837 0.0
C1233 C 0.90807 0.26728 0.82693 0.0
C1234 C 0.91411 0.24128 0.81999 0.0
C1235 C 0.91064 0.22621 0.81187 0.0
C1236 C 0.89621 0.21833 0.81331 0.0
C1237 C 0.89299 0.20416 0.80559 0.0
C1238 C 0.90413 0.19772 0.79646 0.0
C1239 C 0.91854 0.20541 0.79507 0.0
C1240 C 0.92183 0.21959 0.80276 0.0
C1241 C 0.95959 0.25296 0.86907 0.0
C1242 C 0.97067 0.26487 0.86632 0.0
C1243 C 0.94677 0.2501 0.85954 0.0
C1244 C 0.94474 0.25919 0.8472 0.0
C1245 C 0.95606 0.27067 0.84409 0.0
C1246 C 0.96888 0.27348 0.85353 0.0
C1247 C 0.9305 0.25721 0.83793 0.0
C1248 C 0.92693 0.24331 0.82971 0.0
C1249 C 0.92076 0.26925 0.83676 0.0
C1250 C 0.92352 0.28393 0.84579 0.0
C1251 C 0.92504 0.29773 0.83847 0.0
C1252 C 0.92785 0.31154 0.84696 0.0
C1253 C 0.92909 0.31169 0.86279 0.0
C1254 C 0.92745 0.29804 0.87017 0.0
C1255 C 0.92462 0.2842 0.86174 0.0
H1256 H 0.93128 0.32239 0.86934 0.0
H1257 H 0.90161 0.18675 0.79049 0.0
H1258 H 0.48198 0.92558 0.49876 0.0
H1259 H 0.49088 0.9043 0.48289 0.0
H1260 H 0.44708 0.87936 0.48766 0.0
H1261 H 0.43815 0.90054 0.50366 0.0
H1262 H 0.47203 0.86175 0.49182 0.0
H1263 H 0.45483 0.89644 0.45571 0.0
H1264 H 0.45445 0.92137 0.44435 0.0
H1265 H 0.50247 0.92088 0.43464 0.0
H1266 H 0.50318 0.89602 0.44613 0.0
H1267 H 0.47517 0.80342 0.43446 0.0
H1268 H 0.46867 0.82494 0.45117 0.0
H1269 H 0.50925 0.85099 0.43682 0.0
H1270 H 0.51534 0.82966 0.41936 0.0
H1271 H 0.48755 0.8686 0.43833 0.0
H1272 H 0.50552 0.8342 0.47313 0.0
H1273 H 0.50718 0.80972 0.48509 0.0
H1274 H 0.46001 0.81007 0.49831 0.0
H1275 H 0.45801 0.83446 0.48626 0.0
C1276 C 0.47428 0.91552 0.49651 0.0
C1277 C 0.45934 0.91475 0.50243 0.0
C1278 C 0.47935 0.90342 0.48737 0.0
C1279 C 0.4696 0.89031 0.48402 0.0
C1280 C 0.45477 0.8894 0.49009 0.0
C1281 C 0.44965 0.90154 0.49913 0.0
C1282 C 0.4748 0.87755 0.47409 0.0
C1283 C 0.47529 0.86317 0.48007 0.0
C1284 C 0.47955 0.87957 0.45894 0.0
C1285 C 0.47909 0.89445 0.45191 0.0
C1286 C 0.46533 0.9017 0.45126 0.0
C1287 C 0.46505 0.91581 0.44478 0.0
C1288 C 0.47843 0.92273 0.43882 0.0
C1289 C 0.49212 0.91552 0.43928 0.0
C1290 C 0.49246 0.90141 0.44576 0.0
C1291 C 0.48277 0.81371 0.43492 0.0
C1292 C 0.49582 0.81482 0.42567 0.0
C1293 C 0.47909 0.826 0.44457 0.0
C1294 C 0.48864 0.83954 0.44559 0.0
C1295 C 0.50171 0.84068 0.43632 0.0
C1296 C 0.50521 0.82847 0.42637 0.0
C1297 C 0.4847 0.85261 0.45597 0.0
C1298 C 0.48444 0.8671 0.4501 0.0
C1299 C 0.48039 0.85073 0.47131 0.0
C1300 C 0.48159 0.83611 0.47868 0.0
C1301 C 0.49548 0.82901 0.47851 0.0
C1302 C 0.49648 0.81515 0.48532 0.0
C1303 C 0.4837 0.80832 0.49243 0.0
C1304 C 0.4699 0.81536 0.49279 0.0
C1305 C 0.46883 0.82922 0.48599 0.0
H1306 H 0.4845 0.79759 0.49769 0.0
H1307 H 0.47819 0.93365 0.43381 0.0
H1308 H 0.16213 0.29959 0.79699 0.0
H1309 H 0.14078 0.29318 0.81398 0.0
H1310 H 0.11761 0.33143 0.79929 0.0
H1311 H 0.13888 0.3379 0.78236 0.0
H1312 H 0.11694 0.3308 0.82933 0.0
H1313 H 0.10639 0.29419 0.78728 0.0
H1314 H 0.11221 0.27335 0.76882 0.0
H1315 H 0.11943 0.24434 0.80538 0.0
H1316 H 0.11384 0.2651 0.82407 0.0
H1317 H 0.04161 0.31505 0.85428 0.0
H1318 H 0.0647 0.319 0.83919 0.0
H1319 H 0.08358 0.2806 0.85878 0.0
H1320 H 0.06024 0.27641 0.87389 0.0
H1321 H 0.08792 0.28025 0.82812 0.0
H1322 H 0.09673 0.31657 0.87011 0.0
H1323 H 0.09055 0.33745 0.88836 0.0
H1324 H 0.08647 0.36711 0.85173 0.0
H1325 H 0.09241 0.34634 0.83322 0.0
C1326 C 0.1524 0.30652 0.79725 0.0
C1327 C 0.15223 0.31928 0.78834 0.0
C1328 C 0.1402 0.30285 0.80698 0.0
C1329 C 0.12753 0.31177 0.80788 0.0
C1330 C 0.12729 0.32442 0.79887 0.0
C1331 C 0.13948 0.32812 0.78921 0.0
C1332 C 0.11464 0.30825 0.81843 0.0
C1333 C 0.1105 0.31979 0.82894 0.0
C1334 C 0.10653 0.29374 0.81829 0.0
C1335 C 0.10986 0.28125 0.80707 0.0
C1336 C 0.10934 0.28341 0.79138 0.0
C1337 C 0.11258 0.2716 0.78088 0.0
C1338 C 0.11624 0.25755 0.78593 0.0
C1339 C 0.11662 0.25525 0.80149 0.0
C1340 C 0.11341 0.26702 0.81204 0.0
C1341 C 0.05067 0.30745 0.85546 0.0
C1342 C 0.04909 0.29545 0.86537 0.0
C1343 C 0.06391 0.30976 0.84684 0.0
C1344 C 0.07598 0.30023 0.84799 0.0
C1345 C 0.07443 0.28813 0.85775 0.0
C1346 C 0.06112 0.28579 0.86642 0.0
C1347 C 0.09006 0.3029 0.83878 0.0
C1348 C 0.09445 0.29121 0.82857 0.0
C1349 C 0.0984 0.3173 0.83916 0.0
C1350 C 0.09491 0.32985 0.85027 0.0
C1351 C 0.09441 0.32751 0.86593 0.0
C1352 C 0.09097 0.33933 0.87633 0.0
C1353 C 0.08809 0.35358 0.87121 0.0
C1354 C 0.08869 0.35606 0.85568 0.0
C1355 C 0.09211 0.34427 0.84523 0.0
H1356 H 0.08543 0.36272 0.87928 0.0
H1357 H 0.11874 0.24842 0.77778 0.0
H1358 H 0.54172 0.66576 0.52798 0.0
H1359 H 0.5336 0.68359 0.50983 0.0
H1360 H 0.5628 0.66419 0.47569 0.0
H1361 H 0.57072 0.646 0.49362 0.0
H1362 H 0.56435 0.69641 0.47697 0.0
H1363 H 0.52602 0.6541 0.47401 0.0
H1364 H 0.507 0.63568 0.48474 0.0
H1365 H 0.48139 0.67243 0.50245 0.0
H1366 H 0.50038 0.69109 0.49201 0.0
H1367 H 0.53223 0.73274 0.41512 0.0
H1368 H 0.54229 0.7143 0.43169 0.0
H1369 H 0.50714 0.7235 0.4646 0.0
H1370 H 0.49661 0.74115 0.44774 0.0
H1371 H 0.50935 0.69531 0.46308 0.0
H1372 H 0.54707 0.73781 0.46796 0.0
H1373 H 0.56618 0.75721 0.45898 0.0
H1374 H 0.59285 0.72196 0.43974 0.0
H1375 H 0.5738 0.70235 0.44846 0.0
C1376 C 0.54635 0.66516 0.51659 0.0
C1377 C 0.5568 0.65431 0.51227 0.0
C1378 C 0.54175 0.67544 0.50625 0.0
C1379 C 0.5475 0.67513 0.49137 0.0
C1380 C 0.55826 0.66465 0.48712 0.0
C1381 C 0.5628 0.65429 0.49743 0.0
C1382 C 0.54191 0.68544 0.48014 0.0
C1383 C 0.55236 0.69609 0.47375 0.0
C1384 C 0.52623 0.68521 0.47624 0.0
C1385 C 0.51469 0.67399 0.48233 0.0
C1386 C 0.51638 0.65826 0.48028 0.0
C1387 C 0.5056 0.64778 0.4863 0.0
C1388 C 0.49301 0.65288 0.4943 0.0
C1389 C 0.49115 0.66849 0.49626 0.0
C1390 C 0.50191 0.67902 0.49028 0.0
C1391 C 0.52667 0.73077 0.42589 0.0
C1392 C 0.51362 0.73835 0.43012 0.0
C1393 C 0.53249 0.72031 0.43543 0.0
C1394 C 0.52565 0.71761 0.44958 0.0
C1395 C 0.51263 0.72527 0.45376 0.0
C1396 C 0.50662 0.73541 0.44411 0.0
C1397 C 0.53172 0.70664 0.46 0.0
C1398 C 0.52136 0.69575 0.46622 0.0
C1399 C 0.54746 0.70685 0.46394 0.0
C1400 C 0.55893 0.71862 0.45872 0.0
C1401 C 0.55696 0.7342 0.46172 0.0
C1402 C 0.56778 0.74523 0.45669 0.0
C1403 C 0.58069 0.74082 0.44875 0.0
C1404 C 0.58283 0.72537 0.44586 0.0
C1405 C 0.57203 0.71429 0.45086 0.0
H1406 H 0.58906 0.74938 0.44487 0.0
H1407 H 0.48468 0.64475 0.49896 0.0
H1408 H 0.88576 0.79887 0.77222 0.0
H1409 H 0.90684 0.79883 0.75414 0.0
H1410 H 0.87797 0.81573 0.72013 0.0
H1411 H 0.85657 0.81524 0.73802 0.0
H1412 H 0.89359 0.79334 0.70813 0.0
H1413 H 0.90623 0.83905 0.73839 0.0
H1414 H 0.91093 0.85515 0.76195 0.0
H1415 H 0.94817 0.82871 0.77346 0.0
H1416 H 0.94356 0.8123 0.75006 0.0
H1417 H 0.95583 0.80866 0.65776 0.0
H1418 H 0.93454 0.81265 0.67516 0.0
H1419 H 0.95853 0.79209 0.71058 0.0
H1420 H 0.97988 0.78805 0.69331 0.0
H1421 H 0.945 0.81817 0.721 0.0
H1422 H 0.93093 0.77162 0.69122 0.0
H1423 H 0.92614 0.75586 0.66744 0.0
H1424 H 0.89137 0.78477 0.65476 0.0
H1425 H 0.8961 0.80083 0.67838 0.0
C1426 C 0.88383 0.80248 0.76087 0.0
C1427 C 0.86943 0.80702 0.75658 0.0
C1428 C 0.89597 0.80262 0.75058 0.0
C1429 C 0.89408 0.80747 0.73582 0.0
C1430 C 0.87973 0.81202 0.73148 0.0
C1431 C 0.86754 0.81184 0.74177 0.0
C1432 C 0.90696 0.80733 0.72483 0.0
C1433 C 0.90475 0.79901 0.71084 0.0
C1434 C 0.92162 0.8145 0.72844 0.0
C1435 C 0.92446 0.82436 0.74253 0.0
C1436 C 0.91535 0.83659 0.746 0.0
C1437 C 0.91801 0.84579 0.75932 0.0
C1438 C 0.92982 0.84294 0.76921 0.0
C1439 C 0.93902 0.8309 0.76579 0.0
C1440 C 0.93639 0.82166 0.75249 0.0
C1441 C 0.95665 0.80508 0.66929 0.0
C1442 C 0.96955 0.79795 0.6741 0.0
C1443 C 0.94443 0.80733 0.67919 0.0
C1444 C 0.94489 0.80253 0.69412 0.0
C1445 C 0.95794 0.79586 0.69911 0.0
C1446 C 0.97011 0.79351 0.68919 0.0
C1447 C 0.93162 0.80407 0.70443 0.0
C1448 C 0.93378 0.81263 0.71827 0.0
C1449 C 0.91689 0.7972 0.70065 0.0
C1450 C 0.91399 0.78752 0.68648 0.0
C1451 C 0.92236 0.77469 0.6833 0.0
C1452 C 0.91963 0.76569 0.66986 0.0
C1453 C 0.90849 0.76934 0.65958 0.0
C1454 C 0.90001 0.78197 0.66273 0.0
C1455 C 0.90271 0.79102 0.67614 0.0
H1456 H 0.9064 0.76235 0.64918 0.0
H1457 H 0.93186 0.85007 0.77952 0.0
H1458 H 0.02695 0.90924 0.51129 0.0
H1459 H 0.0201 0.88984 0.52939 0.0
H1460 H 0.05776 0.90735 0.55838 0.0
H1461 H 0.06453 0.92698 0.54052 0.0
H1462 H 0.05553 0.87584 0.55514 0.0
H1463 H 0.02237 0.91603 0.56734 0.0
H1464 H 1.00343 0.93433 0.56159 0.0
H1465 H 0.97124 0.89741 0.5467 0.0
H1466 H 0.99008 0.87889 0.55216 0.0
H1467 H 0.03179 0.83521 0.61996 0.0
H1468 H 0.04006 0.85518 0.60283 0.0
H1469 H 0.99958 0.84393 0.57532 0.0
H1470 H 0.99104 0.82445 0.59263 0.0
H1471 H 1.00389 0.87304 0.5784 0.0
H1472 H 0.03644 0.83281 0.56497 0.0
H1473 H 0.05517 0.81393 0.56951 0.0
H1474 H 0.08811 0.84982 0.58531 0.0
H1475 H 0.06949 0.8689 0.58105 0.0
C1476 C 0.03372 0.90906 0.52156 0.0
C1477 C 0.04627 0.91975 0.52445 0.0
C1478 C 0.02982 0.89791 0.53187 0.0
C1479 C 0.03834 0.89723 0.5453 0.0
C1480 C 0.05105 0.90764 0.54807 0.0
C1481 C 0.05494 0.91883 0.5378 0.0
C1482 C 0.03383 0.88583 0.55659 0.0
C1483 C 0.04432 0.87533 0.5604 0.0
C1484 C 0.01908 0.88498 0.56317 0.0
C1485 C 0.00769 0.89609 0.56004 0.0
C1486 C 0.01129 0.91182 0.56274 0.0
C1487 C 1.00057 0.92223 0.55955 0.0
C1488 C 0.98615 0.91704 0.55375 0.0
C1489 C 0.98242 0.90142 0.55118 0.0
C1490 C 0.99311 0.89096 0.55433 0.0
C1491 C 0.02466 0.83703 0.61027 0.0
C1492 C 0.01077 0.82825 0.60766 0.0
C1493 C 0.02944 0.84839 0.60042 0.0
C1494 C 0.02055 0.85097 0.58762 0.0
C1495 C 0.00664 0.84223 0.5851 0.0
C1496 C 1.00178 0.83105 0.59501 0.0
C1497 C 0.02553 0.86283 0.57689 0.0
C1498 C 0.01513 0.8735 0.5732 0.0
C1499 C 0.0403 0.86371 0.57028 0.0
C1500 C 0.05151 0.85226 0.57285 0.0
C1501 C 0.04763 0.83666 0.56953 0.0
C1502 C 0.05824 0.82593 0.57203 0.0
C1503 C 0.0728 0.83067 0.57774 0.0
C1504 C 0.07681 0.84616 0.58092 0.0
C1505 C 0.06624 0.85694 0.57845 0.0
H1506 H 0.081 0.82234 0.57966 0.0
H1507 H 0.97787 0.92512 0.55128 0.0
H1508 H 0.16497 0.77083 0.73721 0.0
H1509 H 0.14333 0.77581 0.72099 0.0
H1510 H 0.1128 0.74901 0.7491 0.0
H1511 H 0.13437 0.74389 0.76527 0.0
H1512 H 0.10864 0.74156 0.7184 0.0
H1513 H 0.11305 0.78691 0.75185 0.0
H1514 H 0.12652 0.80983 0.76428 0.0
H1515 H 0.13578 0.82794 0.72069 0.0
H1516 H 0.12254 0.80501 0.70798 0.0
H1517 H 0.03636 0.75932 0.69385 0.0
H1518 H 0.05928 0.75655 0.70882 0.0
H1519 H 0.08504 0.7881 0.68114 0.0
H1520 H 0.06186 0.79129 0.66629 0.0
H1521 H 0.09293 0.79348 0.7101 0.0
H1522 H 0.08813 0.74909 0.67643 0.0
H1523 H 0.07517 0.72619 0.66343 0.0
H1524 H 0.06761 0.70614 0.70637 0.0
H1525 H 0.08034 0.72901 0.71965 0.0
C1526 C 0.15365 0.76599 0.73991 0.0
C1527 C 0.15138 0.75698 0.75254 0.0
C1528 C 0.14128 0.76893 0.7307 0.0
C1529 C 0.12643 0.76285 0.73389 0.0
C1530 C 0.12415 0.75384 0.74645 0.0
C1531 C 0.13647 0.75101 0.75574 0.0
C1532 C 0.11329 0.76555 0.72394 0.0
C1533 C 0.10509 0.7529 0.71671 0.0
C1534 C 0.109 0.78037 0.72133 0.0
C1535 C 0.11695 0.79417 0.72896 0.0
C1536 C 0.11808 0.79571 0.74491 0.0
C1537 C 0.12565 0.80872 0.75201 0.0
C1538 C 0.13204 0.82032 0.74328 0.0
C1539 C 0.13084 0.81894 0.72744 0.0
C1540 C 0.1233 0.80595 0.72028 0.0
C1541 C 0.04688 0.7657 0.69092 0.0
C1542 C 0.0473 0.77544 0.67878 0.0
C1543 C 0.06002 0.76404 0.69947 0.0
C1544 C 0.074 0.77185 0.69594 0.0
C1545 C 0.07442 0.78188 0.68404 0.0
C1546 C 0.06117 0.78367 0.67554 0.0
C1547 C 0.0881 0.76945 0.70471 0.0
C1548 C 0.09651 0.78213 0.71169 0.0
C1549 C 0.0927 0.75464 0.707 0.0
C1550 C 0.08509 0.74083 0.69904 0.0
C1551 C 0.08361 0.73984 0.68311 0.0
C1552 C 0.07632 0.72686 0.67569 0.0
C1553 C 0.07054 0.71474 0.68407 0.0
C1554 C 0.07208 0.71555 0.69989 0.0
C1555 C 0.07935 0.72851 0.70737 0.0
H1556 H 0.0649 0.7047 0.6783 0.0
H1557 H 0.1379 0.83038 0.7488 0.0
H1558 H 0.95192 0.65563 0.52814 0.0
H1559 H 0.9593 0.67833 0.54453 0.0
H1560 H 0.99777 0.65625 0.56142 0.0
H1561 H 0.99034 0.63342 0.54521 0.0
H1562 H 0.98109 0.66978 0.58435 0.0
H1563 H 1.0038 0.68354 0.53693 0.0
H1564 H 1.00403 0.68745 0.50943 0.0
H1565 H 0.9705 0.72047 0.51566 0.0
H1566 H 0.96991 0.71659 0.54319 0.0
H1567 H 0.01459 0.73556 0.62533 0.0
H1568 H 0.0103 0.71302 0.60795 0.0
H1569 H 0.97549 0.73504 0.58443 0.0
H1570 H 0.98018 0.75779 0.60133 0.0
H1571 H 0.99168 0.7211 0.56457 0.0
H1572 H 0.96725 0.7067 0.61101 0.0
H1573 H 0.96566 0.70269 0.63848 0.0
H1574 H 1.00055 0.67091 0.63416 0.0
H1575 H 1.00248 0.67488 0.60669 0.0
C1576 C 0.96195 0.65561 0.53536 0.0
C1577 C 0.97056 0.64274 0.53538 0.0
C1578 C 0.96621 0.66862 0.54462 0.0
C1579 C 0.97915 0.66901 0.5541 0.0
C1580 C 0.98777 0.6562 0.55415 0.0
C1581 C 0.98358 0.64322 0.54481 0.0
C1582 C 0.9834 0.68263 0.56429 0.0
C1583 C 0.98365 0.68098 0.58004 0.0
C1584 C 0.98632 0.69728 0.55865 0.0
C1585 C 0.98672 0.69968 0.54211 0.0
C1586 C 0.99639 0.69155 0.53243 0.0
C1587 C 0.9966 0.69377 0.51683 0.0
C1588 C 0.98726 0.70417 0.5108 0.0
C1589 C 0.97772 0.7124 0.52035 0.0
C1590 C 0.97745 0.71021 0.53595 0.0
C1591 C 0.00603 0.73559 0.61645 0.0
C1592 C 0.99769 0.74845 0.61475 0.0
C1593 C 1.00353 0.72266 0.60655 0.0
C1594 C 0.99238 0.7222 0.595 0.0
C1595 C 0.98416 0.73509 0.59323 0.0
C1596 C 0.98682 0.74809 0.60294 0.0
C1597 C 0.98923 0.70833 0.58472 0.0
C1598 C 0.98919 0.70992 0.56894 0.0
C1599 C 0.9863 0.69364 0.59033 0.0
C1600 C 0.98512 0.69121 0.60683 0.0
C1601 C 0.97466 0.69894 0.61594 0.0
C1602 C 0.97369 0.69666 0.63151 0.0
C1603 C 0.98303 0.68658 0.63806 0.0
C1604 C 0.99334 0.67873 0.62907 0.0
C1605 C 0.99437 0.68098 0.6135 0.0
H1606 H 0.98226 0.68484 0.65011 0.0
H1607 H 0.98744 0.70588 0.49872 0.0
H1608 H 0.7688 0.90087 0.25289 0.0
H1609 H 0.78363 0.92504 0.25894 0.0
H1610 H 0.79624 0.92776 0.2118 0.0
H1611 H 0.78123 0.90374 0.20559 0.0
H1612 H 0.82088 0.93352 0.23082 0.0
H1613 H 0.76995 0.95027 0.22705 0.0
H1614 H 0.74244 0.9502 0.23308 0.0
H1615 H 0.7533 0.96148 0.28009 0.0
H1616 H 0.78088 0.96141 0.27438 0.0
H1617 H 0.85674 0.00815 0.23824 0.0
H1618 H 0.83974 0.98592 0.23013 0.0
H1619 H 0.82048 0.98506 0.2752 0.0
H1620 H 0.83686 0.00772 0.2831 0.0
H1621 H 0.79877 0.97851 0.25624 0.0
H1622 H 0.84898 0.96041 0.2612 0.0
H1623 H 0.87666 0.95971 0.25629 0.0
H1624 H 0.86757 0.95001 0.2087 0.0
H1625 H 0.83983 0.95083 0.2133 0.0
C1626 C 0.77453 0.90671 0.24376 0.0
C1627 C 0.7738 0.90032 0.22874 0.0
C1628 C 0.78305 0.92051 0.24725 0.0
C1629 C 0.79097 0.92827 0.2358 0.0
C1630 C 0.79025 0.92196 0.22082 0.0
C1631 C 0.78171 0.90818 0.21731 0.0
C1632 C 0.80032 0.94275 0.23951 0.0
C1633 C 0.81602 0.94345 0.23618 0.0
C1634 C 0.79405 0.95555 0.24687 0.0
C1635 C 0.77748 0.9557 0.2503 0.0
C1636 C 0.76647 0.95262 0.23869 0.0
C1637 C 0.75087 0.95263 0.24205 0.0
C1638 C 0.74613 0.9558 0.25696 0.0
C1639 C 0.75699 0.95901 0.26855 0.0
C1640 C 0.77261 0.959 0.26525 0.0
C1641 C 0.8488 1.00326 0.24638 0.0
C1642 C 0.84819 0.00965 0.26133 0.0
C1643 C 0.83915 0.99048 0.24176 0.0
C1644 C 0.82902 0.98353 0.25213 0.0
C1645 C 0.82818 0.99014 0.26697 0.0
C1646 C 0.83758 1.0031 0.27149 0.0
C1647 C 0.81943 0.9693 0.24766 0.0
C1648 C 0.80368 0.96863 0.25084 0.0
C1649 C 0.82569 0.95642 0.24035 0.0
C1650 C 0.84235 0.95583 0.23757 0.0
C1651 C 0.85289 0.95822 0.24967 0.0
C1652 C 0.86859 0.95779 0.24695 0.0
C1653 C 0.87387 0.95486 0.23219 0.0
C1654 C 0.86346 0.9523 0.22012 0.0
C1655 C 0.84775 0.95274 0.22278 0.0
H1656 H 0.88602 0.95453 0.2301 0.0
H1657 H 0.73404 0.9558 0.25954 0.0
H1658 H 0.79121 0.20096 0.298 0.0
H1659 H 0.80767 0.17981 0.29356 0.0
H1660 H 0.77643 0.15085 0.31888 0.0
H1661 H 0.76003 0.17196 0.32349 0.0
H1662 H 0.80668 0.14925 0.3274 0.0
H1663 H 0.77699 0.14675 0.28098 0.0
H1664 H 0.7668 0.15707 0.25788 0.0
H1665 H 0.81255 0.16675 0.24176 0.0
H1666 H 0.82302 0.15668 0.26488 0.0
H1667 H 0.83119 0.07638 0.30935 0.0
H1668 H 0.81684 0.09899 0.31258 0.0
H1669 H 0.84734 0.12233 0.28165 0.0
H1670 H 0.86153 0.0994 0.27796 0.0
H1671 H 0.81914 0.12825 0.27583 0.0
H1672 H 0.84922 0.13017 0.32109 0.0
H1673 H 0.86014 0.12063 0.34423 0.0
H1674 H 0.81505 0.11325 0.36276 0.0
H1675 H 0.80383 0.12255 0.33963 0.0
C1676 C 0.78787 0.19009 0.30263 0.0
C1677 C 0.77429 0.18812 0.31107 0.0
C1678 C 0.79723 0.17799 0.30001 0.0
C1679 C 0.79324 0.16373 0.30582 0.0
C1680 C 0.77972 0.16175 0.31427 0.0
C1681 C 0.7703 0.17379 0.31679 0.0
C1682 C 0.80325 0.1509 0.30337 0.0
C1683 C 0.80928 0.14454 0.31613 0.0
C1684 C 0.80708 0.14512 0.28866 0.0
C1685 C 0.80079 0.15112 0.27473 0.0
C1686 C 0.78488 0.1512 0.27257 0.0
C1687 C 0.77905 0.15698 0.25946 0.0
C1688 C 0.78902 0.1626 0.24838 0.0
C1689 C 0.80484 0.16242 0.25037 0.0
C1690 C 0.81073 0.15666 0.26346 0.0
C1691 C 0.83492 0.08633 0.30326 0.0
C1692 C 0.84758 0.08611 0.29346 0.0
C1693 C 0.82672 0.09931 0.30518 0.0
C1694 C 0.83115 0.11253 0.2976 0.0
C1695 C 0.84372 0.11232 0.28769 0.0
C1696 C 0.85185 0.09922 0.28561 0.0
C1697 C 0.82243 0.12639 0.29989 0.0
C1698 C 0.81666 0.13299 0.28711 0.0
C1699 C 0.81897 0.13252 0.3146 0.0
C1700 C 0.82568 0.12695 0.32856 0.0
C1701 C 0.84162 0.12641 0.33005 0.0
C1702 C 0.84787 0.12106 0.34317 0.0
C1703 C 0.83829 0.11631 0.35494 0.0
C1704 C 0.82245 0.11692 0.35363 0.0
C1705 C 0.81614 0.12225 0.34052 0.0
H1706 H 0.84315 0.11217 0.3651 0.0
H1707 H 0.78449 0.16707 0.23824 0.0
H1708 H 0.40496 0.99169 0.99534 0.0
H1709 H 0.38307 0.97632 0.00495 0.0
H1710 H 0.35371 0.01236 0.99692 0.0
H1711 H 0.37561 0.02785 0.98741 0.0
H1712 H 0.34725 1.00069 0.02358 0.0
H1713 H 0.35414 0.98049 0.97254 0.0
H1714 H 0.36843 0.96966 0.95092 0.0
H1715 H 0.37759 0.93124 0.97657 0.0
H1716 H 0.36352 0.94196 0.99844 0.0
H1717 H 0.27537 0.95735 0.0236 0.0
H1718 H 0.29828 0.97315 0.01722 0.0
H1719 H 0.32653 0.93723 0.0285 0.0
H1720 H 0.30365 0.92127 0.03487 0.0
H1721 H 0.33395 0.94856 1.001 0.0
H1722 H 0.32575 0.96867 0.05178 0.0
H1723 H 0.31095 0.97969 0.07293 0.0
H1724 H 0.30355 0.01847 0.04713 0.0
H1725 H 0.31814 0.00759 0.02573 0.0
C1726 C 0.39382 0.9963 0.99554 0.0
C1727 C 0.39199 0.01094 0.99052 0.0
C1728 C 0.38132 0.98751 1.00105 0.0
C1729 C 0.36669 0.99309 1.00146 0.0
C1730 C 0.36488 0.00782 0.99671 0.0
C1731 C 0.37741 0.01666 0.9913 0.0
C1732 C 0.35325 0.98352 0.0067 0.0
C1733 C 0.34424 0.98936 0.01852 0.0
C1734 C 0.34949 0.96861 1.00033 0.0
C1735 C 0.35791 0.96211 0.98718 0.0
C1736 C 0.3593 0.96979 0.97361 0.0
C1737 C 0.36735 0.96366 0.96131 0.0
C1738 C 0.37395 0.94979 0.96239 0.0
C1739 C 0.37249 0.942 0.97576 0.0
C1740 C 0.36447 0.94809 0.98811 0.0
C1741 C 0.28645 0.95283 0.02485 0.0
C1742 C 0.28765 0.93802 0.02973 0.0
C1743 C 0.29955 0.96192 0.02125 0.0
C1744 C 0.31412 0.9564 0.02247 0.0
C1745 C 0.31539 0.9417 0.0275 0.0
C1746 C 0.30229 0.93262 0.03118 0.0
C1747 C 0.32795 0.96574 0.01785 0.0
C1748 C 0.33701 0.95986 0.00611 0.0
C1749 C 0.33168 0.98065 0.02423 0.0
C1750 C 0.32292 0.98724 0.03709 0.0
C1751 C 0.32086 0.97949 0.05056 0.0
C1752 C 0.31253 0.98572 0.06261 0.0
C1753 C 0.30628 0.99975 0.06136 0.0
C1754 C 0.30838 0.0076 0.04808 0.0
C1755 C 0.3167 1.00141 0.03599 0.0
H1756 H 0.29984 0.00456 0.0707 0.0
H1757 H 0.38017 0.94506 0.95284 0.0
H1758 H 0.22135 0.36739 0.28169 0.0
H1759 H 0.20242 0.38658 0.28114 0.0
H1760 H 0.23723 0.42165 0.29532 0.0
H1761 H 0.2561 0.40256 0.29608 0.0
H1762 H 0.2102 0.42404 0.31113 0.0
H1763 H 0.22632 0.41689 0.2586 0.0
H1764 H 0.23017 0.40158 0.2348 0.0
H1765 H 0.18206 0.38811 0.23256 0.0
H1766 H 0.17796 0.4032 0.25647 0.0
H1767 H 0.18006 0.49267 0.2953 0.0
H1768 H 0.19523 0.47065 0.2962 0.0
H1769 H 0.15845 0.4422 0.27441 0.0
H1770 H 0.14343 0.46454 0.2728 0.0
H1771 H 0.1839 0.43414 0.26319 0.0
H1772 H 0.16673 0.4421 0.31405 0.0
H1773 H 0.16196 0.45648 0.33819 0.0
H1774 H 0.21029 0.46689 0.34448 0.0
H1775 H 0.21535 0.45275 0.32027 0.0
C1776 C 0.22492 0.37917 0.28481 0.0
C1777 C 0.24024 0.38347 0.28886 0.0
C1778 C 0.21413 0.39013 0.28439 0.0
C1779 C 0.21845 0.40556 0.28807 0.0
C1780 C 0.23365 0.40982 0.29239 0.0
C1781 C 0.24445 0.39891 0.29272 0.0
C1782 C 0.20724 0.4174 0.28738 0.0
C1783 C 0.20453 0.42635 0.30063 0.0
C1784 C 0.1994 0.42001 0.27382 0.0
C1785 C 0.20186 0.41103 0.2594 0.0
C1786 C 0.21658 0.41057 0.2531 0.0
C1787 C 0.2188 0.40195 0.23958 0.0
C1788 C 0.20637 0.39384 0.2322 0.0
C1789 C 0.19168 0.39437 0.2383 0.0
C1790 C 0.1894 0.40296 0.25183 0.0
C1791 C 0.17517 0.48173 0.29071 0.0
C1792 C 0.16049 0.48032 0.28408 0.0
C1793 C 0.18383 0.46909 0.29133 0.0
C1794 C 0.17787 0.45461 0.28576 0.0
C1795 C 0.16329 0.4532 0.2789 0.0
C1796 C 0.1547 0.46596 0.27799 0.0
C1797 C 0.18707 0.4411 0.28691 0.0
C1798 C 0.1894 0.43179 0.27377 0.0
C1799 C 0.19439 0.43799 0.30065 0.0
C1800 C 0.19141 0.44644 0.31528 0.0
C1801 C 0.17634 0.44753 0.32054 0.0
C1802 C 0.17358 0.45563 0.33424 0.0
C1803 C 0.18581 0.46262 0.34285 0.0
C1804 C 0.20083 0.46148 0.33779 0.0
C1805 C 0.20365 0.45341 0.32409 0.0
H1806 H 0.18366 0.46889 0.35345 0.0
H1807 H 0.20812 0.38717 0.22173 0.0
H1808 H 0.12414 0.03531 0.48888 0.0
H1809 H 0.14686 0.05214 0.49542 0.0
H1810 H 0.14154 0.07545 0.45415 0.0
H1811 H 0.1193 0.05818 0.44714 0.0
H1812 H 0.17043 0.07184 0.4584 0.0
H1813 H 0.13008 0.09049 0.48922 0.0
H1814 H 0.10889 0.08887 0.50763 0.0
H1815 H 0.13962 0.07578 0.54179 0.0
H1816 H 0.16096 0.07713 0.52351 0.0
H1817 H 0.20751 0.14344 0.50449 0.0
H1818 H 0.18527 0.12593 0.49788 0.0
H1819 H 0.21511 0.09002 0.48698 0.0
H1820 H 0.23739 0.10755 0.49314 0.0
H1821 H 0.17353 0.10064 0.50847 0.0
H1822 H 0.20026 0.06667 0.4582 0.0
H1823 H 0.21999 0.07061 0.43854 0.0
H1824 H 0.21391 0.1186 0.44101 0.0
H1825 H 0.19401 0.11493 0.46053 0.0
C1826 C 0.12792 0.04386 0.48107 0.0
C1827 C 0.11979 0.04543 0.46752 0.0
C1828 C 0.14083 0.0536 0.48492 0.0
C1829 C 0.14578 0.06524 0.4754 0.0
C1830 C 0.13791 0.06661 0.46172 0.0
C1831 C 0.12508 0.05682 0.45781 0.0
C1832 C 0.15906 0.0761 0.47973 0.0
C1833 C 0.17111 0.0781 0.46936 0.0
C1834 C 0.15986 0.08452 0.49392 0.0
C1835 C 0.14707 0.08376 0.50495 0.0
C1836 C 0.13229 0.08716 0.50062 0.0
C1837 C 0.12026 0.08631 0.51104 0.0
C1838 C 0.1229 0.08219 0.52585 0.0
C1839 C 0.13759 0.07895 0.5303 0.0
C1840 C 0.14966 0.07977 0.51992 0.0
C1841 C 0.20935 0.13181 0.50071 0.0
C1842 C 0.22425 0.12694 0.49923 0.0
C1843 C 0.19661 0.12179 0.49696 0.0
C1844 C 0.1985 0.1067 0.49172 0.0
C1845 C 0.21335 0.10169 0.49068 0.0
C1846 C 0.22609 0.11173 0.49427 0.0
C1847 C 0.18496 0.09627 0.48719 0.0
C1848 C 0.17287 0.09433 0.49753 0.0
C1849 C 0.18393 0.08822 0.4728 0.0
C1850 C 0.19576 0.09053 0.46094 0.0
C1851 C 0.2031 0.07805 0.45451 0.0
C1852 C 0.21432 0.08024 0.4434 0.0
C1853 C 0.21824 0.09485 0.43857 0.0
C1854 C 0.2109 0.1073 0.4448 0.0
C1855 C 0.19967 0.10518 0.4559 0.0
H1856 H 0.22693 0.09652 0.42998 0.0
H1857 H 0.11357 0.08153 0.5339 0.0
H1858 H 0.7278 0.16624 0.73205 0.0
H1859 H 0.70913 0.14429 0.73342 0.0
H1860 H 0.73456 0.1281 0.77045 0.0
H1861 H 0.75306 0.15008 0.76938 0.0
H1862 H 0.72654 0.10535 0.74895 0.0
H1863 H 0.70199 0.14533 0.77715 0.0
H1864 H 0.69159 0.17054 0.78081 0.0
H1865 H 0.66022 0.15937 0.7437 0.0
H1866 H 0.67058 0.13415 0.73969 0.0
H1867 H 0.67438 0.05174 0.78104 0.0
H1868 H 0.69204 0.07348 0.77585 0.0
H1869 H 0.66114 0.08681 0.74165 0.0
H1870 H 0.64318 0.06518 0.74701 0.0
H1871 H 0.67144 0.11092 0.75908 0.0
H1872 H 0.6945 0.0704 0.73176 0.0
H1873 H 0.70474 0.04515 0.7278 0.0
H1874 H 0.73878 0.05717 0.76235 0.0
H1875 H 0.72862 0.08244 0.76667 0.0
C1876 C 0.72934 0.1581 0.7406 0.0
C1877 C 0.74198 0.15994 0.75058 0.0
C1878 C 0.71868 0.14553 0.74132 0.0
C1879 C 0.72043 0.13458 0.75207 0.0
C1880 C 0.73303 0.13636 0.76201 0.0
C1881 C 0.74365 0.14892 0.76133 0.0
C1882 C 0.7092 0.1212 0.75301 0.0
C1883 C 0.71451 0.10655 0.7513 0.0
C1884 C 0.69343 0.12278 0.75559 0.0
C1885 C 0.68718 0.13793 0.75801 0.0
C1886 C 0.69297 0.1483 0.76969 0.0
C1887 C 0.68706 0.16258 0.77184 0.0
C1888 C 0.67528 0.16657 0.76247 0.0
C1889 C 0.66936 0.15627 0.75094 0.0
C1890 C 0.67524 0.14198 0.74872 0.0
C1891 C 0.67134 0.05922 0.77234 0.0
C1892 C 0.65735 0.05666 0.76442 0.0
C1893 C 0.68151 0.07163 0.76934 0.0
C1894 C 0.67803 0.08169 0.75821 0.0
C1895 C 0.66409 0.07918 0.75026 0.0
C1896 C 0.65385 0.06678 0.75331 0.0
C1897 C 0.6888 0.09502 0.75526 0.0
C1898 C 0.68343 0.10967 0.75658 0.0
C1899 C 0.70451 0.09345 0.75223 0.0
C1900 C 0.71071 0.07828 0.74962 0.0
C1901 C 0.7041 0.06763 0.73859 0.0
C1902 C 0.70991 0.05331 0.73627 0.0
C1903 C 0.72238 0.04955 0.74484 0.0
C1904 C 0.72911 0.0601 0.75573 0.0
C1905 C 0.72334 0.07443 0.7581 0.0
H1906 H 0.72686 0.03846 0.74302 0.0
H1907 H 0.67072 0.17763 0.76416 0.0
H1908 H 0.40291 0.05345 0.54339 0.0
H1909 H 0.38437 0.07125 0.53606 0.0
H1910 H 0.35105 0.05078 0.56621 0.0
H1911 H 0.36949 0.03279 0.57345 0.0
H1912 H 0.33857 0.05538 0.53862 0.0
H1913 H 0.36881 0.08438 0.5766 0.0
H1914 H 0.39264 0.09545 0.589 0.0
H1915 H 0.4036 0.12079 0.54971 0.0
H1916 H 0.37994 0.1097 0.53698 0.0
H1917 H 0.30298 0.13407 0.54015 0.0
H1918 H 0.32096 0.11721 0.55062 0.0
H1919 H 0.32443 0.09388 0.50655 0.0
H1920 H 0.30649 0.11051 0.49606 0.0
H1921 H 0.35053 0.11137 0.54396 0.0
H1922 H 0.32622 0.05607 0.51111 0.0
H1923 H 0.30161 0.045 0.50031 0.0
H1924 H 0.27722 0.07227 0.53264 0.0
H1925 H 0.30166 0.08334 0.54377 0.0
C1926 C 0.3916 0.05266 0.54837 0.0
C1927 C 0.38767 0.04171 0.55901 0.0
C1928 C 0.38106 0.06293 0.54427 0.0
C1929 C 0.36637 0.06244 0.55069 0.0
C1930 C 0.36234 0.0514 0.56115 0.0
C1931 C 0.37291 0.04119 0.56534 0.0
C1932 C 0.35518 0.07337 0.54635 0.0
C1933 C 0.34119 0.06762 0.5398 0.0
C1934 C 0.35846 0.08935 0.54815 0.0
C1935 C 0.37267 0.0961 0.55579 0.0
C1936 C 0.37636 0.09222 0.57056 0.0
C1937 C 0.38983 0.09852 0.57765 0.0
C1938 C 0.39965 0.10879 0.57013 0.0
C1939 C 0.396 0.11282 0.55551 0.0
C1940 C 0.38255 0.10654 0.54836 0.0
C1941 C 0.30765 0.12541 0.53268 0.0
C1942 C 0.30323 0.12359 0.51729 0.0
C1943 C 0.31794 0.1158 0.53867 0.0
C1944 C 0.32387 0.10415 0.52942 0.0
C1945 C 0.31981 0.10262 0.51397 0.0
C1946 C 0.30958 0.1122 0.50797 0.0
C1947 C 0.3341 0.09336 0.53587 0.0
C1948 C 0.34791 0.09913 0.54281 0.0
C1949 C 0.33056 0.07739 0.53463 0.0
C1950 C 0.31579 0.07063 0.52818 0.0
C1951 C 0.3156 0.05965 0.51596 0.0
C1952 C 0.30169 0.05338 0.50977 0.0
C1953 C 0.28787 0.05796 0.51575 0.0
C1954 C 0.28793 0.06877 0.52798 0.0
C1955 C 0.30182 0.07506 0.53422 0.0
H1956 H 0.2771 0.05311 0.51094 0.0
H1957 H 0.41007 0.11366 0.57564 0.0
H1958 H 0.63851 0.54335 0.59429 0.0
H1959 H 0.65734 0.52454 0.5888 0.0
H1960 H 0.62754 0.50232 0.55404 0.0
H1961 H 0.6086 0.52094 0.5596 0.0
H1962 H 0.64 0.4817 0.57189 0.0
H1963 H 0.65722 0.52539 0.54415 0.0
H1964 H 0.66523 0.55249 0.54128 0.0
H1965 H 0.70243 0.54956 0.57254 0.0
H1966 H 0.69451 0.52248 0.57575 0.0
H1967 H 0.70987 0.45877 0.52414 0.0
H1968 H 0.69107 0.47656 0.53233 0.0
H1969 H 0.68812 0.4568 0.57605 0.0
H1970 H 0.70696 0.43875 0.56785 0.0
H1971 H 0.69221 0.49837 0.55478 0.0
H1972 H 0.65093 0.45979 0.58904 0.0
H1973 H 0.64231 0.43258 0.59022 0.0
H1974 H 0.65225 0.42508 0.54278 0.0
H1975 H 0.66074 0.45226 0.54128 0.0
C1976 C 0.63593 0.53439 0.58555 0.0
C1977 C 0.62209 0.53368 0.57733 0.0
C1978 C 0.64673 0.5237 0.58238 0.0
C1979 C 0.64388 0.51206 0.57096 0.0
C1980 C 0.62998 0.5112 0.5629 0.0
C1981 C 0.61923 0.52194 0.56599 0.0
C1982 C 0.65548 0.50097 0.56715 0.0
C1983 C 0.65145 0.48535 0.56823 0.0
C1984 C 0.67038 0.5057 0.56226 0.0
C1985 C 0.67517 0.52196 0.56032 0.0
C1986 C 0.66703 0.53056 0.55051 0.0
C1987 C 0.67157 0.54591 0.5488 0.0
C1988 C 0.68431 0.55276 0.55675 0.0
C1989 C 0.69255 0.54425 0.5664 0.0
C1990 C 0.68805 0.5289 0.56817 0.0
C1991 C 0.70521 0.45812 0.53549 0.0
C1992 C 0.70991 0.44729 0.54533 0.0
C1993 C 0.6945 0.46838 0.54018 0.0
C1994 C 0.68815 0.46802 0.55478 0.0
C1995 C 0.69277 0.4572 0.56467 0.0
C1996 C 0.70354 0.44691 0.55998 0.0
C1997 C 0.67675 0.47907 0.5595 0.0
C1998 C 0.68083 0.49471 0.55862 0.0
C1999 C 0.66185 0.47434 0.5644 0.0
C2000 C 0.65663 0.45801 0.5651 0.0
C2001 C 0.65123 0.45233 0.57886 0.0
C2002 C 0.64638 0.43692 0.57958 0.0
C2003 C 0.64679 0.4271 0.5666 0.0
C2004 C 0.652 0.43268 0.55285 0.0
C2005 C 0.65686 0.44809 0.55206 0.0
H2006 H 0.64303 0.41517 0.56719 0.0
H2007 H 0.6878 0.56464 0.55541 0.0
H2008 H 0.72357 0.29005 0.40147 0.0
H2009 H 0.72843 0.30501 0.42544 0.0
H2010 H 0.71039 0.34395 0.40606 0.0
H2011 H 0.70605 0.32927 0.38192 0.0
H2012 H 0.7357 0.35242 0.42164 0.0
H2013 H 0.68935 0.32186 0.43092 0.0
H2014 H 0.67285 0.29807 0.43214 0.0
H2015 H 0.70344 0.28175 0.46465 0.0
H2016 H 0.72024 0.30538 0.46346 0.0
H2017 H 0.72469 0.39742 0.48918 0.0
H2018 H 0.71938 0.38121 0.46609 0.0
H2019 H 0.74166 0.3448 0.4857 0.0
H2020 H 0.74704 0.36093 0.50888 0.0
H2021 H 0.71464 0.33467 0.47039 0.0
H2022 H 0.76079 0.3655 0.46119 0.0
H2023 H 0.77696 0.38952 0.46016 0.0
H2024 H 0.74629 0.4055 0.42752 0.0
H2025 H 0.72981 0.38165 0.42852 0.0
C2026 C 0.72078 0.30184 0.40225 0.0
C2027 C 0.71435 0.30842 0.38976 0.0
C2028 C 0.72341 0.31034 0.41603 0.0
C2029 C 0.71958 0.32556 0.41764 0.0
C2030 C 0.71337 0.33221 0.40513 0.0
C2031 C 0.71077 0.32375 0.39136 0.0
C2032 C 0.72213 0.33463 0.43229 0.0
C2033 C 0.73092 0.34861 0.43225 0.0
C2034 C 0.71621 0.32953 0.44624 0.0
C2035 C 0.70613 0.31532 0.44697 0.0
C2036 C 0.69262 0.31315 0.43823 0.0
C2037 C 0.68321 0.2997 0.43894 0.0
C2038 C 0.68712 0.28838 0.44844 0.0
C2039 C 0.70044 0.29051 0.45728 0.0
C2040 C 0.7099 0.30393 0.4566 0.0
C2041 C 0.72835 0.38593 0.48867 0.0
C2042 C 0.73638 0.38052 0.50087 0.0
C2043 C 0.72535 0.37669 0.47543 0.0
C2044 C 0.73029 0.36187 0.47411 0.0
C2045 C 0.73779 0.35622 0.48646 0.0
C2046 C 0.74089 0.36548 0.49969 0.0
C2047 C 0.72807 0.35246 0.45966 0.0
C2048 C 0.7194 0.33844 0.45975 0.0
C2049 C 0.73405 0.35753 0.44575 0.0
C2050 C 0.74399 0.37185 0.44505 0.0
C2051 C 0.75743 0.37419 0.45388 0.0
C2052 C 0.76666 0.38776 0.45329 0.0
C2053 C 0.76263 0.39905 0.44381 0.0
C2054 C 0.74938 0.39676 0.43487 0.0
C2055 C 0.7401 0.38321 0.43544 0.0
H2056 H 0.7698 0.40955 0.44336 0.0
H2057 H 0.67981 0.27798 0.44897 0.0
H2058 H 0.54106 0.06457 0.92357 0.0
H2059 H 0.55703 0.05656 0.90231 0.0
H2060 H 0.51691 0.04848 0.87372 0.0
H2061 H 0.50082 0.05647 0.89502 0.0
H2062 H 0.53564 0.0261 0.86898 0.0
H2063 H 0.54077 0.08035 0.8707 0.0
H2064 H 0.54564 0.10639 0.88223 0.0
H2065 H 0.59164 0.09687 0.89322 0.0
H2066 H 0.58697 0.07067 0.88196 0.0
H2067 H 0.57671 0.02806 0.79826 0.0
H2068 H 0.55976 0.03374 0.81961 0.0
H2069 H 0.59784 0.03405 0.85072 0.0
H2070 H 0.61485 0.02811 0.82947 0.0
H2071 H 0.5798 0.06031 0.85364 0.0
H2072 H 0.57369 0.00544 0.85106 0.0
H2073 H 0.56804 0.98 0.83837 0.0
H2074 H 0.52276 0.9918 0.82734 0.0
H2075 H 0.52823 0.0174 0.83979 0.0
C2076 C 0.53563 0.06118 0.91274 0.0
C2077 C 0.51968 0.06129 0.91095 0.0
C2078 C 0.54478 0.05658 0.9006 0.0
C2079 C 0.5382 0.05214 0.88635 0.0
C2080 C 0.52224 0.05188 0.88461 0.0
C2081 C 0.51306 0.05642 0.89679 0.0
C2082 C 0.54805 0.04796 0.87326 0.0
C2083 C 0.54517 0.03367 0.86551 0.0
C2084 C 0.5606 0.05775 0.86881 0.0
C2085 C 0.56346 0.07349 0.87562 0.0
C2086 C 0.55188 0.08376 0.87569 0.0
C2087 C 0.55461 0.09856 0.88216 0.0
C2088 C 0.56893 0.10327 0.88849 0.0
C2089 C 0.58055 0.0932 0.88834 0.0
C2090 C 0.57787 0.07837 0.8819 0.0
C2091 C 0.58147 0.02924 0.80965 0.0
C2092 C 0.59713 0.02765 0.81218 0.0
C2093 C 0.57176 0.03244 0.82183 0.0
C2094 C 0.57757 0.03428 0.83671 0.0
C2095 C 0.59316 0.03265 0.8393 0.0
C2096 C 0.60283 0.0292 0.82716 0.0
C2097 C 0.56747 0.03844 0.84953 0.0
C2098 C 0.57027 0.05276 0.85717 0.0
C2099 C 0.55474 0.02878 0.8537 0.0
C2100 C 0.55143 0.0134 0.84621 0.0
C2101 C 0.56258 1.00266 0.8458 0.0
C2102 C 0.5594 0.9882 0.83868 0.0
C2103 C 0.54507 0.9843 0.83201 0.0
C2104 C 0.53387 0.99484 0.83249 0.0
C2105 C 0.537 0.00933 0.83959 0.0
H2106 H 0.54262 0.9731 0.82651 0.0
H2107 H 0.57102 0.11474 0.89348 0.0
H2108 H 0.29249 0.25032 0.36325 0.0
H2109 H 0.2941 0.23282 0.38371 0.0
H2110 H 0.27078 0.26366 0.41385 0.0
H2111 H 0.26968 0.28146 0.39367 0.0
H2112 H 0.29406 0.25286 0.4282 0.0
H2113 H 0.25214 0.23134 0.39641 0.0
H2114 H 0.23989 0.22116 0.37238 0.0
H2115 H 0.27137 0.18596 0.36881 0.0
H2116 H 0.28394 0.19606 0.39274 0.0
H2117 H 0.26395 0.20556 0.48466 0.0
H2118 H 0.26847 0.22232 0.46378 0.0
H2119 H 0.29279 0.18784 0.43938 0.0
H2120 H 0.28818 0.17084 0.46026 0.0
H2121 H 0.27191 0.19947 0.4214 0.0
H2122 H 0.31219 0.21969 0.45474 0.0
H2123 H 0.32398 0.2298 0.479 0.0
H2124 H 0.29534 0.2674 0.47991 0.0
H2125 H 0.28322 0.2574 0.45575 0.0
C2126 C 0.28785 0.25346 0.37428 0.0
C2127 C 0.28087 0.26728 0.37677 0.0
C2128 C 0.28865 0.24337 0.38593 0.0
C2129 C 0.28239 0.24682 0.40029 0.0
C2130 C 0.27565 0.26071 0.40287 0.0
C2131 C 0.27488 0.27081 0.39125 0.0
C2132 C 0.2827 0.23599 0.41263 0.0
C2133 C 0.2891 0.24122 0.42675 0.0
C2134 C 0.27665 0.22065 0.41063 0.0
C2135 C 0.26909 0.21456 0.39626 0.0
C2136 C 0.25653 0.2215 0.39043 0.0
C2137 C 0.24951 0.21573 0.37684 0.0
C2138 C 0.25488 0.20295 0.36905 0.0
C2139 C 0.26724 0.19588 0.37485 0.0
C2140 C 0.27431 0.20162 0.38842 0.0
C2141 C 0.2704 0.20155 0.47494 0.0
C2142 C 0.27569 0.18682 0.47416 0.0
C2143 C 0.27304 0.2112 0.46302 0.0
C2144 C 0.28108 0.2064 0.45005 0.0
C2145 C 0.28658 0.19179 0.44929 0.0
C2146 C 0.28399 0.18211 0.46127 0.0
C2147 C 0.28302 0.21643 0.43705 0.0
C2148 C 0.27704 0.21105 0.42281 0.0
C2149 C 0.28942 0.23164 0.43896 0.0
C2150 C 0.29672 0.23772 0.45348 0.0
C2151 C 0.30832 0.23005 0.46016 0.0
C2152 C 0.31508 0.23578 0.47389 0.0
C2153 C 0.31039 0.24922 0.48101 0.0
C2154 C 0.29896 0.25698 0.47439 0.0
C2155 C 0.29215 0.2513 0.46066 0.0
H2156 H 0.31564 0.25363 0.49163 0.0
H2157 H 0.24943 0.1985 0.35853 0.0
H2158 H 0.50585 0.49752 0.8861 0.0
H2159 H 0.4897 0.50743 0.86683 0.0
H2160 H 0.45143 0.50535 0.89765 0.0
H2161 H 0.4675 0.49544 0.91695 0.0
H2162 H 0.44269 0.49418 0.87026 0.0
H2163 H 0.47104 0.53941 0.89018 0.0
H2164 H 0.49411 0.55583 0.89768 0.0
H2165 H 0.50989 0.55369 0.85152 0.0
H2166 H 0.487 0.53706 0.84378 0.0
H2167 H 0.39424 0.53919 0.82968 0.0
H2168 H 0.41125 0.53134 0.8494 0.0
H2169 H 0.44735 0.52735 0.81648 0.0
H2170 H 0.43039 0.53505 0.79663 0.0
H2171 H 0.45718 0.54196 0.84482 0.0
H2172 H 0.42871 0.49633 0.82527 0.0
H2173 H 0.40534 0.48026 0.81803 0.0
H2174 H 0.3895 0.48373 0.86413 0.0
H2175 H 0.41269 0.50003 0.8716 0.0
C2176 C 0.49404 0.49932 0.88883 0.0
C2177 C 0.48798 0.49569 0.90308 0.0
C2178 C 0.48481 0.50498 0.8778 0.0
C2179 C 0.46937 0.5073 0.88083 0.0
C2180 C 0.46329 0.50364 0.89502 0.0
C2181 C 0.47249 0.49792 0.90604 0.0
C2182 C 0.45946 0.51323 0.86912 0.0
C2183 C 0.44578 0.50475 0.86488 0.0
C2184 C 0.4636 0.52686 0.86183 0.0
C2185 C 0.47738 0.53686 0.86643 0.0
C2186 C 0.47949 0.54233 0.88165 0.0
C2187 C 0.49252 0.5517 0.88594 0.0
C2188 C 0.50348 0.55577 0.87509 0.0
C2189 C 0.5014 0.55051 0.85992 0.0
C2190 C 0.4884 0.54112 0.85557 0.0
C2191 C 0.40584 0.53678 0.82664 0.0
C2192 C 0.41093 0.53768 0.81155 0.0
C2193 C 0.41552 0.53224 0.83792 0.0
C2194 C 0.43051 0.52866 0.83436 0.0
C2195 C 0.43581 0.53005 0.81945 0.0
C2196 C 0.42608 0.5344 0.80812 0.0
C2197 C 0.44047 0.52293 0.84609 0.0
C2198 C 0.45413 0.53143 0.85028 0.0
C2199 C 0.43629 0.50936 0.85341 0.0
C2200 C 0.42235 0.49954 0.84896 0.0
C2201 C 0.42018 0.49379 0.83384 0.0
C2202 C 0.40698 0.48461 0.82969 0.0
C2203 C 0.39592 0.48101 0.8406 0.0
C2204 C 0.39806 0.48655 0.85568 0.0
C2205 C 0.41124 0.49575 0.85988 0.0
H2206 H 0.38571 0.4739 0.83737 0.0
H2207 H 0.51356 0.56302 0.87843 0.0
H2208 H 0.74933 0.76376 0.16386 0.0
H2209 H 0.75584 0.74759 0.14165 0.0
H2210 H 0.70834 0.74301 0.12795 0.0
H2211 H 0.70177 0.75913 0.15008 0.0
H2212 H 0.72001 0.71612 0.12596 0.0
H2213 H 0.73522 0.76621 0.1099 0.0
H2214 H 0.74906 0.79164 0.11165 0.0
H2215 H 0.79203 0.77103 0.11119 0.0
H2216 H 0.77844 0.74546 0.10964 0.0
H2217 H 0.72375 0.6913 0.04867 0.0
H2218 H 0.72085 0.70628 0.07248 0.0
H2219 H 0.76827 0.70195 0.0835 0.0
H2220 H 0.77128 0.68675 0.05958 0.0
H2221 H 0.75884 0.73214 0.08794 0.0
H2222 H 0.74291 0.68179 0.102 0.0
H2223 H 0.72845 0.6567 0.09942 0.0
H2224 H 0.68609 0.67832 0.10292 0.0
H2225 H 0.70029 0.70357 0.1053 0.0
C2226 C 0.7403 0.75944 0.15603 0.0
C2227 C 0.72502 0.76272 0.15878 0.0
C2228 C 0.74404 0.75018 0.14333 0.0
C2229 C 0.7326 0.74413 0.13305 0.0
C2230 C 0.71736 0.74746 0.13575 0.0
C2231 C 0.71361 0.75666 0.14844 0.0
C2232 C 0.73635 0.7341 0.11962 0.0
C2233 C 0.7284 0.71971 0.11759 0.0
C2234 C 0.74761 0.73857 0.10888 0.0
C2235 C 0.75581 0.75392 0.10984 0.0
C2236 C 0.74762 0.7671 0.11031 0.0
C2237 C 0.75542 0.78154 0.11124 0.0
C2238 C 0.77141 0.78295 0.11158 0.0
C2239 C 0.77964 0.76992 0.11095 0.0
C2240 C 0.7719 0.75545 0.11004 0.0
C2241 C 0.73358 0.69347 0.05615 0.0
C2242 C 0.74775 0.6878 0.05224 0.0
C2243 C 0.73188 0.70201 0.06979 0.0
C2244 C 0.74431 0.70515 0.07981 0.0
C2245 C 0.75853 0.69963 0.07593 0.0
C2246 C 0.76021 0.6909 0.0623 0.0
C2247 C 0.74231 0.71433 0.09422 0.0
C2248 C 0.75058 0.72854 0.09642 0.0
C2249 C 0.73126 0.70976 0.10508 0.0
C2250 C 0.72267 0.69459 0.10371 0.0
C2251 C 0.73051 0.68121 0.1021 0.0
C2252 C 0.72236 0.66695 0.10069 0.0
C2253 C 0.70637 0.66592 0.10097 0.0
C2254 C 0.69848 0.67914 0.10269 0.0
C2255 C 0.70658 0.69343 0.10409 0.0
H2256 H 0.70008 0.65487 0.09989 0.0
H2257 H 0.77743 0.79414 0.11229 0.0
H2258 H 0.01367 0.10394 0.1599 0.0
H2259 H 0.99596 0.09724 0.18038 0.0
H2260 H 0.96091 0.08263 0.14718 0.0
H2261 H 0.97848 0.0895 0.12673 0.0
H2262 H 0.94858 0.09757 0.17008 0.0
H2263 H 0.98248 0.057 0.16478 0.0
H2264 H 0.00751 0.04581 0.16386 0.0
H2265 H 0.01731 0.06347 0.20952 0.0
H2266 H 0.99242 0.07495 0.21063 0.0
H2267 H 0.92086 0.03515 0.22544 0.0
H2268 H 0.93793 0.04515 0.20598 0.0
H2269 H 0.92881 0.09105 0.22105 0.0
H2270 H 0.91123 0.08101 0.24036 0.0
H2271 H 0.9635 0.0615 0.20778 0.0
H2272 H 0.93328 0.1143 0.19122 0.0
H2273 H 0.90725 0.12327 0.19031 0.0
H2274 H 0.88814 0.07699 0.18523 0.0
H2275 H 0.91405 0.06776 0.18592 0.0
C2276 C 1.0022 0.09927 0.15699 0.0
C2277 C 0.9975 0.0972 0.14169 0.0
C2278 C 0.99207 0.09545 0.16869 0.0
C2279 C 0.97712 0.08927 0.16534 0.0
C2280 C 0.97235 0.08744 0.15008 0.0
C2281 C 0.98241 0.09137 0.13839 0.0
C2282 C 0.96655 0.08427 0.17763 0.0
C2283 C 0.95187 0.08973 0.17836 0.0
C2284 C 0.97072 0.0739 0.18836 0.0
C2285 C 0.98567 0.06697 0.18773 0.0
C2286 C 0.99003 0.05859 0.17458 0.0
C2287 C 1.00418 0.05218 0.17403 0.0
C2288 C 0.01401 0.05396 0.18661 0.0
C2289 C 0.0097 0.06212 0.19978 0.0
C2290 C 0.99557 0.06858 0.20038 0.0
C2291 C 0.92239 0.04738 0.22458 0.0
C2292 C 0.91465 0.05728 0.23444 0.0
C2293 C 0.93222 0.0531 0.21346 0.0
C2294 C 0.93466 0.06886 0.21196 0.0
C2295 C 0.92696 0.07883 0.22181 0.0
C2296 C 0.91694 0.07308 0.23287 0.0
C2297 C 0.94545 0.07469 0.20019 0.0
C2298 C 0.96023 0.06944 0.19959 0.0
C2299 C 0.94121 0.08495 0.18937 0.0
C2300 C 0.92559 0.09035 0.1888 0.0
C2301 C 0.92352 0.10605 0.18987 0.0
C2302 C 0.90879 0.11117 0.1894 0.0
C2303 C 0.89605 0.1007 0.18777 0.0
C2304 C 0.89801 0.08508 0.18655 0.0
C2305 C 0.91271 0.0799 0.18701 0.0
H2306 H 0.88465 0.10469 0.18741 0.0
H2307 H 0.02496 0.04899 0.18616 0.0
H2308 H 0.28172 0.7807 0.15382 0.0
H2309 H 0.2799 0.80034 0.13548 0.0
H2310 H 0.25516 0.82725 0.16816 0.0
H2311 H 0.2568 0.80752 0.18657 0.0
H2312 H 0.24175 0.82509 0.13936 0.0
H2313 H 0.29127 0.83808 0.16137 0.0
H2314 H 0.31724 0.83325 0.16985 0.0
H2315 H 0.32921 0.81989 0.12402 0.0
H2316 H 0.30323 0.82442 0.1153 0.0
H2317 H 0.24527 0.88831 0.09143 0.0
H2318 H 0.24721 0.87262 0.11341 0.0
H2319 H 0.27754 0.84419 0.08816 0.0
H2320 H 0.27603 0.86001 0.06647 0.0
H2321 H 0.28802 0.84935 0.11562 0.0
H2322 H 0.23836 0.83366 0.09387 0.0
H2323 H 0.21226 0.8374 0.08494 0.0
H2324 H 0.20046 0.85477 0.12958 0.0
H2325 H 0.22657 0.85131 0.13872 0.0
C2326 C 0.27585 0.79077 0.1571 0.0
C2327 C 0.2694 0.79256 0.17165 0.0
C2328 C 0.27491 0.80204 0.14664 0.0
C2329 C 0.2675 0.81532 0.15049 0.0
C2330 C 0.26097 0.81712 0.16497 0.0
C2331 C 0.26201 0.80589 0.1755 0.0
C2332 C 0.2664 0.82716 0.13924 0.0
C2333 C 0.25186 0.83062 0.13435 0.0
C2334 C 0.27959 0.83414 0.13251 0.0
C2335 C 0.29526 0.83148 0.1377 0.0
C2336 C 0.2994 0.834 0.15312 0.0
C2337 C 0.31413 0.83133 0.15796 0.0
C2338 C 0.32486 0.82623 0.14748 0.0
C2339 C 0.32089 0.82383 0.13213 0.0
C2340 C 0.30617 0.82646 0.12722 0.0
C2341 C 0.25237 0.87873 0.0906 0.0
C2342 C 0.26047 0.8754 0.07719 0.0
C2343 C 0.25342 0.86972 0.10315 0.0
C2344 C 0.2624 0.85708 0.10242 0.0
C2345 C 0.27057 0.85387 0.08906 0.0
C2346 C 0.26965 0.86293 0.07662 0.0
C2347 C 0.26334 0.84707 0.11543 0.0
C2348 C 0.27788 0.84396 0.1207 0.0
C2349 C 0.25015 0.84031 0.12241 0.0
C2350 C 0.23446 0.84239 0.11693 0.0
C2351 C 0.23024 0.83839 0.10174 0.0
C2352 C 0.21544 0.84044 0.09665 0.0
C2353 C 0.20473 0.84637 0.10667 0.0
C2354 C 0.20878 0.85021 0.12182 0.0
C2355 C 0.22357 0.8482 0.12697 0.0
H2356 H 0.19327 0.84794 0.10271 0.0
H2357 H 0.33625 0.82417 0.15126 0.0
H2358 H 0.9897 0.49492 0.14552 0.0
H2359 H 0.00763 0.50111 0.16663 0.0
H2360 H 0.03799 0.46883 0.14738 0.0
H2361 H 0.02028 0.46276 0.12609 0.0
H2362 H 0.03484 0.46705 0.17854 0.0
H2363 H 0.04579 0.50579 0.1428 0.0
H2364 H 0.03927 0.52604 0.12621 0.0
H2365 H 0.02333 0.55217 0.16485 0.0
H2366 H 0.02956 0.53197 0.18165 0.0
H2367 H 0.10006 0.49328 0.2242 0.0
H2368 H 0.08254 0.4851 0.20312 0.0
H2369 H 0.05351 0.52101 0.21663 0.0
H2370 H 0.07119 0.52951 0.23725 0.0
H2371 H 0.05652 0.52037 0.18766 0.0
H2372 H 0.0446 0.48208 0.22349 0.0
H2373 H 0.05004 0.46182 0.24051 0.0
H2374 H 0.06658 0.43494 0.20268 0.0
H2375 H 0.06141 0.45514 0.18545 0.0
C2376 C 1.00022 0.48919 0.14571 0.0
C2377 C 1.00356 0.47839 0.13403 0.0
C2378 C 0.01043 0.4927 0.15782 0.0
C2379 C 0.02421 0.48552 0.1585 0.0
C2380 C 0.0274 0.47447 0.1471 0.0
C2381 C 0.01722 0.47098 0.13496 0.0
C2382 C 0.03547 0.48986 0.17087 0.0
C2383 C 0.03974 0.47866 0.18045 0.0
C2384 C 0.04162 0.50507 0.17353 0.0
C2385 C 0.03802 0.51731 0.16346 0.0
C2386 C 0.0408 0.51581 0.14775 0.0
C2387 C 0.03717 0.52729 0.1383 0.0
C2388 C 0.03085 0.54037 0.14447 0.0
C2389 C 0.0282 0.54202 0.16009 0.0
C2390 C 0.0318 0.53057 0.16958 0.0
C2391 C 0.08992 0.49939 0.22267 0.0
C2392 C 0.08703 0.51206 0.23237 0.0
C2393 C 0.07986 0.49466 0.21066 0.0
C2394 C 0.06657 0.50233 0.20834 0.0
C2395 C 0.06368 0.51492 0.21811 0.0
C2396 C 0.0738 0.51976 0.22994 0.0
C2397 C 0.0558 0.49759 0.19557 0.0
C2398 C 0.05165 0.50873 0.18583 0.0
C2399 C 0.04966 0.48235 0.19288 0.0
C2400 C 0.05277 0.47019 0.20321 0.0
C2401 C 0.04951 0.4719 0.21882 0.0
C2402 C 0.05252 0.46042 0.2285 0.0
C2403 C 0.05869 0.44712 0.22269 0.0
C2404 C 0.06182 0.44526 0.20717 0.0
C2405 C 0.05884 0.45671 0.19744 0.0
H2406 H 0.06101 0.43824 0.23021 0.0
H2407 H 0.02804 0.54924 0.13714 0.0
H2408 H 0.38273 0.76432 0.26903 0.0
H2409 H 0.40442 0.76441 0.28644 0.0
H2410 H 0.37561 0.74123 0.31887 0.0
H2411 H 0.35365 0.74164 0.30172 0.0
H2412 H 0.39266 0.76384 0.33277 0.0
H2413 H 0.40233 0.72245 0.29786 0.0
H2414 H 0.40563 0.70917 0.27283 0.0
H2415 H 0.44392 0.74049 0.26356 0.0
H2416 H 0.44071 0.7541 0.28846 0.0
H2417 H 0.45567 0.75025 0.38004 0.0
H2418 H 0.43389 0.74522 0.36261 0.0
H2419 H 0.45754 0.77214 0.32931 0.0
H2420 H 0.47937 0.77724 0.34662 0.0
H2421 H 0.44267 0.74545 0.31654 0.0
H2422 H 0.43138 0.78771 0.35103 0.0
H2423 H 0.42798 0.80052 0.37628 0.0
H2424 H 0.39245 0.76649 0.38652 0.0
H2425 H 0.39579 0.75334 0.36139 0.0
C2426 C 0.38095 0.75933 0.2799 0.0
C2427 C 0.3664 0.75301 0.28397 0.0
C2428 C 0.39343 0.75922 0.28978 0.0
C2429 C 0.39172 0.75264 0.3039 0.0
C2430 C 0.37723 0.7463 0.30801 0.0
C2431 C 0.36471 0.74644 0.29814 0.0
C2432 C 0.40495 0.75289 0.31455 0.0
C2433 C 0.4035 0.75955 0.32929 0.0
C2434 C 0.41921 0.74753 0.30998 0.0
C2435 C 0.42119 0.73938 0.29498 0.0
C2436 C 0.41138 0.72658 0.29044 0.0
C2437 C 0.41324 0.71898 0.27628 0.0
C2438 C 0.42496 0.724 0.2666 0.0
C2439 C 0.43484 0.73662 0.27107 0.0
C2440 C 0.43302 0.74427 0.28521 0.0
C2441 C 0.45633 0.75497 0.36895 0.0
C2442 C 0.46925 0.76424 0.36478 0.0
C2443 C 0.44384 0.75213 0.35902 0.0
C2444 C 0.44404 0.75844 0.34473 0.0
C2445 C 0.45714 0.76718 0.34029 0.0
C2446 C 0.46959 0.77013 0.35024 0.0
C2447 C 0.43037 0.75651 0.33463 0.0
C2448 C 0.43176 0.74957 0.32002 0.0
C2449 C 0.41603 0.76152 0.33934 0.0
C2450 C 0.41396 0.76945 0.35441 0.0
C2451 C 0.42293 0.78289 0.35872 0.0
C2452 C 0.421 0.79022 0.37299 0.0
C2453 C 0.41003 0.7843 0.38301 0.0
C2454 C 0.40095 0.77105 0.37876 0.0
C2455 C 0.40286 0.76365 0.3645 0.0
H2456 H 0.40855 0.79 0.39406 0.0
H2457 H 0.42638 0.7181 0.25564 0.0
H2458 H 0.94802 0.39652 0.01877 0.0
H2459 H 0.95714 0.37527 1.00308 0.0
H2460 H 0.97034 0.40595 0.96809 0.0
H2461 H 0.96112 0.42721 0.98367 0.0
H2462 H 0.95651 0.38059 0.95579 0.0
H2463 H 0.99692 0.39258 0.99234 0.0
H2464 H 0.00821 0.39715 0.01799 0.0
H2465 H 0.993 0.35164 0.02894 0.0
H2466 H 0.98144 0.34686 1.00341 0.0
H2467 H 1.00363 0.33242 0.91284 0.0
H2468 H 0.99532 0.35338 0.92943 0.0
H2469 H 0.97869 0.3214 0.96199 0.0
H2470 H 0.987 0.30033 0.9455 0.0
H2471 H 0.9942 0.34708 0.97563 0.0
H2472 H 0.95392 0.33518 0.93896 0.0
H2473 H 0.94296 0.33059 0.91318 0.0
H2474 H 0.95829 0.37611 0.90237 0.0
H2475 H 0.96955 0.3809 0.92804 0.0
C2476 C 0.95296 0.39875 0.00777 0.0
C2477 C 0.95388 0.41356 1.00248 0.0
C2478 C 0.95817 0.3866 0.99881 0.0
C2479 C 0.96463 0.38903 0.98447 0.0
C2480 C 0.9654 0.40378 0.9791 0.0
C2481 C 0.96009 0.41592 0.98801 0.0
C2482 C 0.97048 0.37622 0.975 0.0
C2483 C 0.96491 0.3734 0.96008 0.0
C2484 C 0.98119 0.36659 0.98068 0.0
C2485 C 0.98818 0.36942 0.99601 0.0
C2486 C 0.99588 0.38358 1.00025 0.0
C2487 C 1.00235 0.38621 0.01476 0.0
C2488 C 1.00129 0.37471 0.0251 0.0
C2489 C 0.9938 0.36054 0.02093 0.0
C2490 C 0.9873 0.35787 0.00644 0.0
C2491 C 0.99832 0.32982 0.92358 0.0
C2492 C 0.99591 0.31466 0.92778 0.0
C2493 C 0.99352 0.34183 0.93302 0.0
C2494 C 0.98622 0.33893 0.94686 0.0
C2495 C 0.98426 0.32388 0.95134 0.0
C2496 C 0.98899 0.31185 0.94187 0.0
C2497 C 0.98029 0.35156 0.95645 0.0
C2498 C 0.98582 0.3543 0.97137 0.0
C2499 C 0.96958 0.36115 0.95078 0.0
C2500 C 0.96271 0.35834 0.93537 0.0
C2501 C 0.95506 0.34417 0.93105 0.0
C2502 C 0.94878 0.34154 0.91646 0.0
C2503 C 0.94997 0.35304 0.90613 0.0
C2504 C 0.9574 0.36721 0.91038 0.0
C2505 C 0.96373 0.36989 0.92495 0.0
H2506 H 0.9451 0.35097 0.89484 0.0
H2507 H 0.0063 0.37676 0.03633 0.0
H2508 H 0.65779 0.83371 0.30562 0.0
H2509 H 0.63613 0.82624 0.32162 0.0
H2510 H 0.62218 0.78958 0.28894 0.0
H2511 H 0.64343 0.79746 0.27247 0.0
H2512 H 0.59826 0.80337 0.29782 0.0
H2513 H 0.63937 0.78298 0.32337 0.0
H2514 H 0.6648 0.78309 0.33544 0.0
H2515 H 0.65212 0.81689 0.36918 0.0
H2516 H 0.62668 0.81714 0.35718 0.0
H2517 H 0.55785 0.77244 0.37057 0.0
H2518 H 0.58068 0.77507 0.35451 0.0
H2519 H 0.565 0.8163 0.33763 0.0
H2520 H 0.54217 0.81362 0.35333 0.0
H2521 H 0.60397 0.79615 0.35296 0.0
H2522 H 0.57397 0.81912 0.30088 0.0
H2523 H 0.54867 0.81648 0.28828 0.0
H2524 H 0.53946 0.77257 0.30654 0.0
H2525 H 0.56478 0.77486 0.31907 0.0
C2526 C 0.65007 0.82413 0.30174 0.0
C2527 C 0.65238 0.81623 0.28769 0.0
C2528 C 0.63777 0.81973 0.31103 0.0
C2529 C 0.6276 0.80721 0.30662 0.0
C2530 C 0.6299 0.79925 0.29264 0.0
C2531 C 0.64215 0.80369 0.28328 0.0
C2532 C 0.61426 0.8028 0.31633 0.0
C2533 C 0.59954 0.80174 0.30986 0.0
C2534 C 0.61589 0.80032 0.332 0.0
C2535 C 0.63115 0.80016 0.3393 0.0
C2536 C 0.64204 0.79051 0.3333 0.0
C2537 C 0.65645 0.7905 0.34014 0.0
C2538 C 0.66008 0.80001 0.35305 0.0
C2539 C 0.64929 0.80953 0.35917 0.0
C2540 C 0.63487 0.8096 0.35237 0.0
C2541 C 0.5593 0.78207 0.36345 0.0
C2542 C 0.54812 0.79276 0.36315 0.0
C2543 C 0.57236 0.78357 0.3543 0.0
C2544 C 0.57445 0.79575 0.34467 0.0
C2545 C 0.5635 0.80663 0.34471 0.0
C2546 C 0.55046 0.80511 0.35377 0.0
C2547 C 0.58799 0.79717 0.33451 0.0
C2548 C 0.60273 0.79768 0.34089 0.0
C2549 C 0.58642 0.79879 0.31868 0.0
C2550 C 0.57123 0.79723 0.31102 0.0
C2551 C 0.56658 0.80887 0.30215 0.0
C2552 C 0.55223 0.80744 0.29503 0.0
C2553 C 0.54245 0.79438 0.29664 0.0
C2554 C 0.54702 0.78271 0.30534 0.0
C2555 C 0.56137 0.78407 0.31247 0.0
H2556 H 0.53134 0.79331 0.29113 0.0
H2557 H 0.67125 0.79998 0.35833 0.0
H2558 H 0.08152 0.1641 0.00925 0.0
H2559 H 0.07406 0.18174 0.99054 0.0
H2560 H 0.02659 0.16663 0.99652 0.0
H2561 H 0.03399 0.14863 0.01484 0.0
H2562 H 0.03311 0.16828 0.96708 0.0
H2563 H 0.04188 0.20099 0.01226 0.0
H2564 H 0.05666 0.21274 0.03425 0.0
H2565 H 0.09088 0.23139 1.00426 0.0
H2566 H 0.0764 0.21957 0.98208 0.0
H2567 H 0.99469 0.22793 0.93729 0.0
H2568 H 0.00547 0.20978 0.95349 0.0
H2569 H 0.05108 0.22627 0.94112 0.0
H2570 H 0.04033 0.24455 0.92475 0.0
H2571 H 0.0476 0.22382 0.97233 0.0
H2572 H 0.03761 0.19241 0.92702 0.0
H2573 H 0.02238 0.18092 0.90521 0.0
H2574 H 0.99002 0.16 0.93569 0.0
H2575 H 0.00495 0.17155 0.9577 0.0
C2576 C 0.0695 0.16447 0.00653 0.0
C2577 C 0.05836 0.15495 0.01359 0.0
C2578 C 0.06524 0.17466 0.99592 0.0
C2579 C 0.04974 0.17562 0.9922 0.0
C2580 C 0.03861 0.16612 0.99922 0.0
C2581 C 0.04286 0.15594 0.00981 0.0
C2582 C 0.04507 0.18633 0.98085 0.0
C2583 C 0.03615 0.18044 0.96833 0.0
C2584 C 0.04941 0.20215 0.9822 0.0
C2585 C 0.05815 0.20924 0.99552 0.0
C2586 C 0.05263 0.20748 0.01036 0.0
C2587 C 0.06094 0.21418 0.02286 0.0
C2588 C 0.07473 0.22276 0.02066 0.0
C2589 C 0.08021 0.22471 0.00595 0.0
C2590 C 0.07196 0.21802 0.99341 0.0
C2591 C 0.00702 0.22765 0.9379 0.0
C2592 C 0.01666 0.23768 0.9297 0.0
C2593 C 0.01316 0.21722 0.94715 0.0
C2594 C 0.02908 0.21659 0.94845 0.0
C2595 C 0.03877 0.22655 0.94025 0.0
C2596 C 0.03261 0.23693 0.93086 0.0
C2597 C 0.03545 0.20578 0.95873 0.0
C2598 C 0.04468 0.21164 0.97103 0.0
C2599 C 0.03136 0.18993 0.95722 0.0
C2600 C 0.02234 0.18295 0.94401 0.0
C2601 C 0.02718 0.18546 0.92908 0.0
C2602 C 0.01861 0.17892 0.91668 0.0
C2603 C 0.00522 0.16977 0.91907 0.0
C2604 C 1.00039 0.16711 0.93386 0.0
C2605 C 0.00891 0.17363 0.9463 0.0
H2606 H 0.9986 0.16471 0.90945 0.0
H2607 H 0.08114 0.22795 0.03035 0.0
H2608 H 0.35704 0.31611 0.23947 0.0
H2609 H 0.37872 0.31621 0.22197 0.0
H2610 H 0.40383 0.29128 0.25325 0.0
H2611 H 0.38251 0.29169 0.27106 0.0
H2612 H 0.42209 0.31306 0.24196 0.0
H2613 H 0.38583 0.27364 0.22134 0.0
H2614 H 0.36074 0.26281 0.21157 0.0
H2615 H 0.36299 0.2941 0.17583 0.0
H2616 H 0.38802 0.30526 0.18551 0.0
H2617 H 0.47767 0.28271 0.19253 0.0
H2618 H 0.4564 0.28644 0.20995 0.0
H2619 H 0.43527 0.31325 0.1774 0.0
H2620 H 0.45645 0.30951 0.15983 0.0
H2621 H 0.4149 0.29209 0.18879 0.0
H2622 H 0.45217 0.33044 0.20886 0.0
H2623 H 0.47749 0.34062 0.2186 0.0
H2624 H 0.47354 0.31064 0.25543 0.0
H2625 H 0.44828 0.30013 0.24579 0.0
C2626 C 0.36724 0.3108 0.24271 0.0
C2627 C 0.36797 0.3038 0.25665 0.0
C2628 C 0.37958 0.31073 0.23262 0.0
C2629 C 0.39284 0.30356 0.23619 0.0
C2630 C 0.39371 0.29682 0.25021 0.0
C2631 C 0.38142 0.29693 0.26031 0.0
C2632 C 0.40581 0.30293 0.22533 0.0
C2633 C 0.42053 0.30833 0.23038 0.0
C2634 C 0.40376 0.29709 0.2101 0.0
C2635 C 0.38872 0.2904 0.20425 0.0
C2636 C 0.38092 0.27829 0.21147 0.0
C2637 C 0.36672 0.27208 0.20594 0.0
C2638 C 0.36025 0.27779 0.19311 0.0
C2639 C 0.368 0.28971 0.18577 0.0
C2640 C 0.3822 0.29598 0.19128 0.0
C2641 C 0.46856 0.28948 0.18909 0.0
C2642 C 0.46879 0.29581 0.17476 0.0
C2643 C 0.45643 0.29165 0.1991 0.0
C2644 C 0.4443 0.30022 0.19503 0.0
C2645 C 0.44451 0.30661 0.18078 0.0
C2646 C 0.45667 0.3045 0.17077 0.0
C2647 C 0.43117 0.30209 0.20547 0.0
C2648 C 0.41643 0.29692 0.20034 0.0
C2649 C 0.43322 0.30807 0.22065 0.0
C2650 C 0.44838 0.31441 0.22652 0.0
C2651 C 0.45675 0.32594 0.21897 0.0
C2652 C 0.47108 0.33178 0.22449 0.0
C2653 C 0.47713 0.32626 0.23761 0.0
C2654 C 0.46884 0.3149 0.24526 0.0
C2655 C 0.45451 0.30901 0.23978 0.0
H2656 H 0.48823 0.33079 0.24186 0.0
H2657 H 0.34926 0.27296 0.18884 0.0
H2658 H 0.56701 0.42205 0.03719 0.0
H2659 H 0.56008 0.40294 0.05552 0.0
H2660 H 0.51619 0.39328 0.0335 0.0
H2661 H 0.52313 0.41214 0.01487 0.0
H2662 H 0.51377 0.39695 0.06456 0.0
H2663 H 0.54351 0.36882 0.02841 0.0
H2664 H 0.56621 0.36399 0.01282 0.0
H2665 H 0.59377 0.36423 0.05319 0.0
H2666 H 0.57126 0.36928 0.06903 0.0
H2667 H 0.48843 0.3284 0.09696 0.0
H2668 H 0.49688 0.3482 0.07999 0.0
H2669 H 0.54112 0.35297 0.10204 0.0
H2670 H 0.53281 0.33278 0.11895 0.0
H2671 H 0.54429 0.35261 0.07198 0.0
H2672 H 0.51466 0.37988 0.10829 0.0
H2673 H 0.49215 0.38493 0.12409 0.0
H2674 H 0.46471 0.38679 0.0839 0.0
H2675 H 0.487 0.38154 0.06786 0.0
C2676 C 0.55596 0.41572 0.03607 0.0
C2677 C 0.54565 0.41863 0.02448 0.0
C2678 C 0.552 0.40483 0.04662 0.0
C2679 C 0.53766 0.39662 0.04582 0.0
C2680 C 0.52731 0.39952 0.03434 0.0
C2681 C 0.53128 0.41036 0.02374 0.0
C2682 C 0.53335 0.38516 0.05711 0.0
C2683 C 0.52033 0.38715 0.06607 0.0
C2684 C 0.54219 0.37265 0.05939 0.0
C2685 C 0.55574 0.36959 0.04989 0.0
C2686 C 0.55444 0.36798 0.03396 0.0
C2687 C 0.56727 0.36517 0.02508 0.0
C2688 C 0.58143 0.36385 0.03201 0.0
C2689 C 0.58279 0.36528 0.04784 0.0
C2690 C 0.57 0.36811 0.05677 0.0
C2691 C 0.49994 0.3337 0.0983 0.0
C2692 C 0.50993 0.32905 0.10938 0.0
C2693 C 0.50474 0.34509 0.0886 0.0
C2694 C 0.51956 0.35226 0.08986 0.0
C2695 C 0.5296 0.34764 0.10089 0.0
C2696 C 0.52482 0.33614 0.11058 0.0
C2697 C 0.5246 0.3643 0.07937 0.0
C2698 C 0.53776 0.36244 0.07056 0.0
C2699 C 0.51592 0.37699 0.07726 0.0
C2700 C 0.50248 0.38019 0.08688 0.0
C2701 C 0.5038 0.38125 0.10282 0.0
C2702 C 0.49108 0.38417 0.11182 0.0
C2703 C 0.477 0.38614 0.105 0.0
C2704 C 0.47562 0.38524 0.08917 0.0
C2705 C 0.4883 0.38232 0.08012 0.0
H2706 H 0.46717 0.3884 0.11199 0.0
H2707 H 0.59135 0.36167 0.02511 0.0
H2708 H 0.65533 0.24351 0.23419 0.0
H2709 H 0.6339 0.24973 0.21855 0.0
H2710 H 0.62 0.2813 0.25421 0.0
H2711 H 0.64096 0.27453 0.27027 0.0
H2712 H 0.59602 0.26557 0.24344 0.0
H2713 H 0.63777 0.29359 0.22115 0.0
H2714 H 0.66335 0.29797 0.20985 0.0
H2715 H 0.65059 0.26576 0.17285 0.0
H2716 H 0.62499 0.26102 0.18404 0.0
H2717 H 0.55722 0.29786 0.17269 0.0
H2718 H 0.57975 0.29676 0.18908 0.0
H2719 H 0.56281 0.25223 0.20228 0.0
H2720 H 0.54025 0.25339 0.1863 0.0
H2721 H 0.60252 0.27865 0.18964 0.0
H2722 H 0.57139 0.24719 0.2385 0.0
H2723 H 0.54597 0.24564 0.25061 0.0
H2724 H 0.53792 0.29013 0.23612 0.0
H2725 H 0.56336 0.29203 0.22411 0.0
C2726 C 0.64765 0.25168 0.2388 0.0
C2727 C 0.64991 0.25848 0.25355 0.0
C2728 C 0.6355 0.25539 0.22973 0.0
C2729 C 0.62542 0.26616 0.23508 0.0
C2730 C 0.62765 0.273 0.24978 0.0
C2731 C 0.63975 0.26922 0.25891 0.0
C2732 C 0.61227 0.26985 0.22555 0.0
C2733 C 0.59747 0.26848 0.2317 0.0
C2734 C 0.61412 0.27403 0.21031 0.0
C2735 C 0.62949 0.27687 0.2035 0.0
C2736 C 0.64045 0.28736 0.21066 0.0
C2737 C 0.65495 0.28992 0.20427 0.0
C2738 C 0.65861 0.28212 0.19066 0.0
C2739 C 0.64775 0.27178 0.18339 0.0
C2740 C 0.63323 0.26917 0.18975 0.0
C2741 C 0.55832 0.28784 0.17909 0.0
C2742 C 0.54688 0.27577 0.17828 0.0
C2743 C 0.57121 0.28722 0.18843 0.0
C2744 C 0.57287 0.27453 0.19713 0.0
C2745 C 0.56164 0.26231 0.19597 0.0
C2746 C 0.54876 0.26296 0.18675 0.0
C2747 C 0.58629 0.27391 0.20742 0.0
C2748 C 0.6011 0.27584 0.20141 0.0
C2749 C 0.5845 0.27064 0.22292 0.0
C2750 C 0.56924 0.26968 0.23029 0.0
C2751 C 0.56423 0.25667 0.23796 0.0
C2752 C 0.54981 0.25573 0.2448 0.0
C2753 C 0.54032 0.26776 0.2441 0.0
C2754 C 0.54525 0.28079 0.23661 0.0
C2755 C 0.55967 0.2818 0.22977 0.0
H2756 H 0.52916 0.267 0.24939 0.0
H2757 H 0.66984 0.28412 0.18572 0.0
H2758 H 0.48894 0.13566 0.04157 0.0
H2759 H 0.49673 0.1584 0.05776 0.0
H2760 H 0.45688 0.17993 0.04332 0.0
H2761 H 0.44912 0.15729 0.02696 0.0
H2762 H 0.48359 0.19944 0.04412 0.0
H2763 H 0.4563 0.1643 0.07656 0.0
H2764 H 0.45127 0.13957 0.0881 0.0
H2765 H 0.49642 0.14359 0.10765 0.0
H2766 H 0.5018 0.16826 0.09603 0.0
H2767 H 0.47919 0.25867 0.10078 0.0
H2768 H 0.4746 0.23651 0.08313 0.0
H2769 H 0.51041 0.21425 0.10485 0.0
H2770 H 0.51463 0.23621 0.123 0.0
H2771 H 0.48736 0.19481 0.09986 0.0
H2772 H 0.51479 0.23014 0.06886 0.0
H2773 H 0.52072 0.25461 0.05707 0.0
H2774 H 0.47704 0.25014 0.03445 0.0
H2775 H 0.47075 0.22574 0.04627 0.0
C2776 C 0.48194 0.14531 0.0417 0.0
C2777 C 0.46839 0.14467 0.03304 0.0
C2778 C 0.48635 0.15825 0.05102 0.0
C2779 C 0.4773 0.17078 0.05183 0.0
C2780 C 0.464 0.17036 0.04287 0.0
C2781 C 0.45953 0.15738 0.03363 0.0
C2782 C 0.48144 0.18417 0.06235 0.0
C2783 C 0.48428 0.1985 0.05632 0.0
C2784 C 0.48278 0.18281 0.07821 0.0
C2785 C 0.47951 0.16804 0.0853 0.0
C2786 C 0.4652 0.15985 0.08322 0.0
C2787 C 0.46228 0.14586 0.08979 0.0
C2788 C 0.47353 0.14 0.09857 0.0
C2789 C 0.48772 0.14814 0.10083 0.0
C2790 C 0.49071 0.16213 0.09426 0.0
C2791 C 0.48615 0.24909 0.10177 0.0
C2792 C 0.49731 0.24922 0.11328 0.0
C2793 C 0.48358 0.23645 0.09159 0.0
C2794 C 0.49235 0.22378 0.09244 0.0
C2795 C 0.50351 0.22388 0.10392 0.0
C2796 C 0.50594 0.23646 0.11428 0.0
C2797 C 0.48947 0.21024 0.08168 0.0
C2798 C 0.48682 0.19583 0.08765 0.0
C2799 C 0.48848 0.21152 0.06574 0.0
C2800 C 0.49225 0.22617 0.05855 0.0
C2801 C 0.5064 0.23443 0.06145 0.0
C2802 C 0.50984 0.24828 0.05475 0.0
C2803 C 0.49925 0.25394 0.04505 0.0
C2804 C 0.48522 0.24575 0.04198 0.0
C2805 C 0.48173 0.2319 0.04867 0.0
H2806 H 0.50193 0.26467 0.03987 0.0
H2807 H 0.47125 0.12916 0.10365 0.0
H2808 H 0.28878 0.40065 0.71006 0.0
H2809 H 0.30382 0.4246 0.71635 0.0
H2810 H 0.27948 0.42969 0.75864 0.0
H2811 H 0.26458 0.40552 0.75263 0.0
H2812 H 0.28307 0.4567 0.74353 0.0
H2813 H 0.31429 0.41757 0.75914 0.0
H2814 H 0.32767 0.39394 0.75574 0.0
H2815 H 0.35482 0.41332 0.7201 0.0
H2816 H 0.34144 0.437 0.72314 0.0
H2817 H 0.33423 0.51308 0.78108 0.0
H2818 H 0.31754 0.49053 0.77354 0.0
H2819 H 0.34533 0.48254 0.73387 0.0
H2820 H 0.36232 0.50488 0.74154 0.0
H2821 H 0.33964 0.45704 0.74735 0.0
H2822 H 0.30904 0.49627 0.73168 0.0
H2823 H 0.29564 0.51992 0.73456 0.0
H2824 H 0.26736 0.50069 0.76946 0.0
H2825 H 0.28073 0.47698 0.76693 0.0
C2826 C 0.28669 0.40676 0.72078 0.0
C2827 C 0.27553 0.40104 0.73089 0.0
C2828 C 0.29526 0.42051 0.72431 0.0
C2829 C 0.29287 0.42886 0.73803 0.0
C2830 C 0.28148 0.42343 0.74798 0.0
C2831 C 0.27295 0.40963 0.74449 0.0
C2832 C 0.3025 0.44307 0.74211 0.0
C2833 C 0.29543 0.45678 0.74456 0.0
C2834 C 0.31865 0.4432 0.74307 0.0
C2835 C 0.32676 0.429 0.74127 0.0
C2836 C 0.32303 0.41675 0.75049 0.0
C2837 C 0.33063 0.40335 0.74865 0.0
C2838 C 0.34206 0.40211 0.73768 0.0
C2839 C 0.34595 0.41428 0.72857 0.0
C2840 C 0.33837 0.4277 0.73036 0.0
C2841 C 0.33674 0.50662 0.77067 0.0
C2842 C 0.34965 0.51081 0.76192 0.0
C2843 C 0.32712 0.49374 0.76633 0.0
C2844 C 0.33006 0.48488 0.75304 0.0
C2845 C 0.34282 0.48917 0.74418 0.0
C2846 C 0.3525 0.50199 0.74856 0.0
C2847 C 0.32025 0.47079 0.74874 0.0
C2848 C 0.32729 0.45705 0.74628 0.0
C2849 C 0.30409 0.47067 0.74769 0.0
C2850 C 0.29599 0.4849 0.74921 0.0
C2851 C 0.30004 0.49712 0.74005 0.0
C2852 C 0.29244 0.51054 0.74161 0.0
C2853 C 0.28068 0.51182 0.75222 0.0
C2854 C 0.27648 0.49968 0.76126 0.0
C2855 C 0.28406 0.48625 0.75976 0.0
H2856 H 0.27481 0.52222 0.75341 0.0
H2857 H 0.34794 0.39173 0.73627 0.0
H2858 H 0.27553 0.68082 0.83415 0.0
H2859 H 0.29233 0.66035 0.82849 0.0
H2860 H 0.29612 0.67322 0.78203 0.0
H2861 H 0.27924 0.69383 0.78764 0.0
H2862 H 0.29251 0.64282 0.78315 0.0
H2863 H 0.32544 0.68238 0.80714 0.0
H2864 H 0.33381 0.70227 0.82678 0.0
H2865 H 0.33418 0.66856 0.86015 0.0
H2866 H 0.32559 0.64849 0.84075 0.0
H2867 H 0.35544 0.5955 0.76974 0.0
H2868 H 0.3408 0.61824 0.77242 0.0
H2869 H 0.32869 0.60727 0.81817 0.0
H2870 H 0.34308 0.58453 0.81554 0.0
H2871 H 0.33822 0.63818 0.81545 0.0
H2872 H 0.30335 0.59911 0.79128 0.0
H2873 H 0.29521 0.57947 0.7713 0.0
H2874 H 0.29928 0.61297 0.73765 0.0
H2875 H 0.30767 0.63277 0.75742 0.0
C2876 C 0.28003 0.67941 0.82275 0.0
C2877 C 0.27616 0.68909 0.81139 0.0
C2878 C 0.28964 0.66767 0.81952 0.0
C2879 C 0.29573 0.66539 0.8049 0.0
C2880 C 0.29161 0.67479 0.79341 0.0
C2881 C 0.28193 0.68654 0.79663 0.0
C2882 C 0.30635 0.65316 0.80171 0.0
C2883 C 0.30266 0.64198 0.79003 0.0
C2884 C 0.31953 0.65191 0.81079 0.0
C2885 C 0.32475 0.66394 0.8225 0.0
C2886 C 0.3272 0.67922 0.81869 0.0
C2887 C 0.33199 0.69053 0.82978 0.0
C2888 C 0.33449 0.68669 0.84471 0.0
C2889 C 0.33223 0.67152 0.84858 0.0
C2890 C 0.32741 0.66017 0.83753 0.0
C2891 C 0.34973 0.598 0.78039 0.0
C2892 C 0.35039 0.58819 0.79241 0.0
C2893 C 0.34133 0.61095 0.78188 0.0
C2894 C 0.3336 0.61439 0.79547 0.0
C2895 C 0.33458 0.60483 0.8076 0.0
C2896 C 0.34277 0.59181 0.80605 0.0
C2897 C 0.32422 0.62778 0.79709 0.0
C2898 C 0.32816 0.63916 0.80847 0.0
C2899 C 0.31136 0.62926 0.78767 0.0
C2900 C 0.30632 0.61738 0.77579 0.0
C2901 C 0.30266 0.60225 0.7796 0.0
C2902 C 0.29797 0.5911 0.76832 0.0
C2903 C 0.29678 0.59496 0.75321 0.0
C2904 C 0.30024 0.60999 0.74936 0.0
C2905 C 0.30495 0.62118 0.76059 0.0
H2906 H 0.29314 0.58631 0.74449 0.0
H2907 H 0.33821 0.69546 0.85328 0.0
H2908 H 0.87851 0.52682 0.48839 0.0
H2909 H 0.85648 0.51176 0.49817 0.0
H2910 H 0.88522 0.47519 0.50607 0.0
H2911 H 0.90726 0.49015 0.49618 0.0
H2912 H 0.85925 0.46423 0.4931 0.0
H2913 H 0.873 0.49901 0.53551 0.0
H2914 H 0.87904 0.52414 0.5487 0.0
H2915 H 0.83431 0.53753 0.53784 0.0
H2916 H 0.82807 0.51254 0.52439 0.0
H2917 H 0.80562 0.42159 0.53704 0.0
H2918 H 0.82848 0.43733 0.53022 0.0
H2919 H 0.80028 0.47318 0.5186 0.0
H2920 H 0.77737 0.45759 0.52545 0.0
H2921 H 0.82627 0.48431 0.53421 0.0
H2922 H 0.81298 0.44993 0.49111 0.0
H2923 H 0.80689 0.4248 0.47792 0.0
H2924 H 0.85095 0.41071 0.49027 0.0
H2925 H 0.85722 0.43571 0.50373 0.0
C2926 C 0.88016 0.51562 0.49233 0.0
C2927 C 0.89463 0.50968 0.49153 0.0
C2928 C 0.86756 0.50703 0.49794 0.0
C2929 C 0.86922 0.49241 0.50304 0.0
C2930 C 0.88365 0.48644 0.50219 0.0
C2931 C 0.89623 0.49498 0.4965 0.0
C2932 C 0.85586 0.48319 0.50896 0.0
C2933 C 0.8522 0.46855 0.50226 0.0
C2934 C 0.84643 0.48893 0.52068 0.0
C2935 C 0.85012 0.50394 0.52882 0.0
C2936 C 0.86449 0.50735 0.53583 0.0
C2937 C 0.86795 0.52157 0.54337 0.0
C2938 C 0.85708 0.53244 0.54408 0.0
C2939 C 0.84272 0.5291 0.53727 0.0
C2940 C 0.83921 0.51491 0.5297 0.0
C2941 C 0.80427 0.43288 0.53318 0.0
C2942 C 0.78963 0.43827 0.53169 0.0
C2943 C 0.81735 0.44183 0.52923 0.0
C2944 C 0.81605 0.45634 0.52372 0.0
C2945 C 0.80153 0.462 0.5228 0.0
C2946 C 0.78845 0.45304 0.52668 0.0
C2947 C 0.82975 0.4654 0.51836 0.0
C2948 C 0.83342 0.48 0.52512 0.0
C2949 C 0.83921 0.45964 0.50671 0.0
C2950 C 0.8355 0.44463 0.49856 0.0
C2951 C 0.82132 0.44143 0.49112 0.0
C2952 C 0.81784 0.42722 0.48358 0.0
C2953 C 0.82851 0.41615 0.4833 0.0
C2954 C 0.84269 0.41929 0.49052 0.0
C2955 C 0.84621 0.43348 0.4981 0.0
H2956 H 0.82579 0.40515 0.47745 0.0
H2957 H 0.85978 0.54344 0.54992 0.0
H2958 H 0.75418 0.90249 0.80226 0.0
H2959 H 0.73466 0.92097 0.8017 0.0
H2960 H 0.70511 0.88848 0.775 0.0
H2961 H 0.72469 0.86993 0.77541 0.0
H2962 H 0.70704 0.91763 0.76371 0.0
H2963 H 0.69694 0.89483 0.81111 0.0
H2964 H 0.70349 0.88598 0.83622 0.0
H2965 H 0.71862 0.93173 0.85147 0.0
H2966 H 0.71238 0.94083 0.82637 0.0
H2967 H 0.64496 0.96607 0.77017 0.0
H2968 H 0.66024 0.94384 0.77065 0.0
H2969 H 0.69108 0.96827 0.80324 0.0
H2970 H 0.67562 0.99016 0.80323 0.0
H2971 H 0.68618 0.94071 0.81125 0.0
H2972 H 0.69916 0.9633 0.76379 0.0
H2973 H 0.69385 0.97271 0.7386 0.0
H2974 H 0.6746 0.92825 0.7234 0.0
H2975 H 0.67964 0.91862 0.74858 0.0
C2976 C 0.74355 0.89929 0.79623 0.0
C2977 C 0.74097 0.88475 0.78888 0.0
C2978 C 0.73237 0.90982 0.796 0.0
C2979 C 0.71838 0.90605 0.78841 0.0
C2980 C 0.7158 0.89159 0.78096 0.0
C2981 C 0.72694 0.88099 0.7813 0.0
C2982 C 0.70662 0.91736 0.78812 0.0
C2983 C 0.70225 0.9225 0.77408 0.0
C2984 C 0.70062 0.92391 0.80167 0.0
C2985 C 0.7043 0.91849 0.81682 0.0
C2986 C 0.70177 0.90299 0.81978 0.0
C2987 C 0.70541 0.89793 0.83402 0.0
C2988 C 0.7115 0.90828 0.84542 0.0
C2989 C 0.71392 0.92372 0.84262 0.0
C2990 C 0.71031 0.92884 0.8284 0.0
C2991 C 0.65497 0.96665 0.77747 0.0
C2992 C 0.65908 0.97989 0.78664 0.0
C2993 C 0.66375 0.95397 0.77768 0.0
C2994 C 0.67697 0.95441 0.78684 0.0
C2995 C 0.68094 0.96759 0.79611 0.0
C2996 C 0.67209 0.98014 0.79605 0.0
C2997 C 0.68683 0.94131 0.78682 0.0
C2998 C 0.69083 0.93577 0.80084 0.0
C2999 C 0.69262 0.93452 0.77324 0.0
C3000 C 0.68961 0.94029 0.75811 0.0
C3001 C 0.69369 0.95556 0.75511 0.0
C3002 C 0.69075 0.96093 0.74083 0.0
C3003 C 0.68385 0.95109 0.72942 0.0
C3004 C 0.67991 0.93586 0.73226 0.0
C3005 C 0.68282 0.93044 0.74652 0.0
H3006 H 0.68158 0.95527 0.71838 0.0
H3007 H 0.7143 0.90434 0.85644 0.0
H3008 H 0.61747 0.54505 0.98885 0.0
H3009 H 0.64013 0.56192 0.9957 0.0
H3010 H 0.66063 0.55007 0.95256 0.0
H3011 H 0.63802 0.53301 0.94567 0.0
H3012 H 0.68126 0.55105 0.97739 0.0
H3013 H 0.64461 0.58232 0.95621 0.0
H3014 H 0.61931 0.59262 0.95397 0.0
H3015 H 0.62267 0.6108 1.0002 0.0
H3016 H 0.64792 0.60041 1.00278 0.0
H3017 H 0.73883 0.61243 0.97794 0.0
H3018 H 0.71777 0.59339 0.97167 0.0
H3019 H 0.69262 0.60999 0.01054 0.0
H3020 H 0.71339 0.6294 0.01653 0.0
H3021 H 0.67439 0.6061 0.98752 0.0
H3022 H 0.71069 0.57523 0.00926 0.0
H3023 H 0.73571 0.56456 0.01231 0.0
H3024 H 0.73295 0.54527 0.96646 0.0
H3025 H 0.708 0.55601 0.96306 0.0
C3026 C 0.62689 0.54586 0.9809 0.0
C3027 C 0.62594 0.53773 0.9667 0.0
C3028 C 0.63978 0.55558 0.98479 0.0
C3029 C 0.65198 0.55733 0.97458 0.0
C3030 C 0.65131 0.54889 0.96058 0.0
C3031 C 0.63835 0.53924 0.95662 0.0
C3032 C 0.66518 0.56843 0.97831 0.0
C3033 C 0.67984 0.56313 0.97944 0.0
C3034 C 0.66321 0.5841 0.9813 0.0
C3035 C 0.64809 0.59046 0.97973 0.0
C3036 C 0.6399 0.58841 0.96594 0.0
C3037 C 0.62558 0.59428 0.9646 0.0
C3038 C 0.61937 0.60233 0.97694 0.0
C3039 C 0.62749 0.60455 0.99065 0.0
C3040 C 0.64181 0.59868 0.99205 0.0
C3041 C 0.72886 0.61196 0.98521 0.0
C3042 C 0.72779 0.62244 0.99773 0.0
C3043 C 0.71684 0.601 0.98166 0.0
C3044 C 0.70364 0.60009 0.99073 0.0
C3045 C 0.70265 0.61045 1.00334 0.0
C3046 C 0.71456 0.62154 0.00677 0.0
C3047 C 0.6906 0.58878 0.98679 0.0
C3048 C 0.67591 0.59404 0.98555 0.0
C3049 C 0.69256 0.57305 0.98383 0.0
C3050 C 0.70754 0.56655 0.98586 0.0
C3051 C 0.71547 0.56881 0.99979 0.0
C3052 C 0.72964 0.56273 1.00159 0.0
C3053 C 0.73594 0.55428 0.98958 0.0
C3054 C 0.72807 0.55184 0.97575 0.0
C3055 C 0.71391 0.55791 0.97388 0.0
H3056 H 0.7469 0.54958 0.99099 0.0
H3057 H 0.60828 0.60686 0.97589 0.0
H3058 H 0.25438 0.64604 0.25751 0.0
H3059 H 0.23554 0.6243 0.25793 0.0
H3060 H 0.20113 0.65141 0.2404 0.0
H3061 H 0.21983 0.67348 0.24051 0.0
H3062 H 0.18987 0.6354 0.26312 0.0
H3063 H 0.21719 0.62396 0.21767 0.0
H3064 H 0.23982 0.62036 0.20159 0.0
H3065 H 0.2523 0.58416 0.22876 0.0
H3066 H 0.22985 0.58768 0.24514 0.0
H3067 H 0.13725 0.56985 0.25143 0.0
H3068 H 0.15436 0.59215 0.24618 0.0
H3069 H 0.1921 0.5713 0.2661 0.0
H3070 H 0.17516 0.54898 0.27134 0.0
H3071 H 0.20025 0.5847 0.23965 0.0
H3072 H 0.17396 0.59796 0.28623 0.0
H3073 H 0.15122 0.60164 0.30215 0.0
H3074 H 0.13658 0.63457 0.27211 0.0
H3075 H 0.15915 0.63092 0.2559 0.0
C3076 C 0.24278 0.64745 0.25384 0.0
C3077 C 0.23863 0.66155 0.24902 0.0
C3078 C 0.23205 0.63493 0.25391 0.0
C3079 C 0.21695 0.63613 0.249 0.0
C3080 C 0.21273 0.65018 0.24417 0.0
C3081 C 0.22347 0.66275 0.24412 0.0
C3082 C 0.20552 0.62282 0.24939 0.0
C3083 C 0.19202 0.62439 0.25773 0.0
C3084 C 0.20839 0.60837 0.24256 0.0
C3085 C 0.22189 0.60617 0.23271 0.0
C3086 C 0.22482 0.61531 0.22028 0.0
C3087 C 0.23761 0.61327 0.2111 0.0
C3088 C 0.24751 0.60206 0.21417 0.0
C3089 C 0.24462 0.59285 0.2264 0.0
C3090 C 0.23186 0.59485 0.23563 0.0
C3091 C 0.14921 0.56995 0.25461 0.0
C3092 C 0.15481 0.55764 0.26189 0.0
C3093 C 0.15896 0.58274 0.25164 0.0
C3094 C 0.17448 0.58344 0.25588 0.0
C3095 C 0.18017 0.571 0.26275 0.0
C3096 C 0.17044 0.55826 0.26578 0.0
C3097 C 0.18477 0.59726 0.25356 0.0
C3098 C 0.19805 0.59577 0.24487 0.0
C3099 C 0.18167 0.61179 0.26 0.0
C3100 C 0.16814 0.61403 0.26976 0.0
C3101 C 0.16582 0.60589 0.28296 0.0
C3102 C 0.15298 0.60799 0.29204 0.0
C3103 C 0.14243 0.6183 0.28812 0.0
C3104 C 0.14474 0.62657 0.27512 0.0
C3105 C 0.15756 0.62449 0.26599 0.0
H3106 H 0.1325 0.61991 0.29517 0.0
H3107 H 0.2574 0.6005 0.20704 0.0
H3108 H 0.87657 0.54572 0.07965 0.0
H3109 H 0.85894 0.56417 0.07189 0.0
H3110 H 0.87854 0.56297 0.02696 0.0
H3111 H 0.89655 0.54489 0.03478 0.0
H3112 H 0.87495 0.59164 0.03692 0.0
H3113 H 0.84366 0.54463 0.03397 0.0
H3114 H 0.83162 0.52073 0.04323 0.0
H3115 H 0.80871 0.54608 0.07827 0.0
H3116 H 0.82078 0.57014 0.06935 0.0
H3117 H 0.81588 0.62242 0.99548 0.0
H3118 H 0.83438 0.60627 0.0059 0.0
H3119 H 0.81544 0.61366 0.05065 0.0
H3120 H 0.79689 0.63001 0.04029 0.0
H3121 H 0.81865 0.58279 0.04225 0.0
H3122 H 0.84925 0.63006 0.04388 0.0
H3123 H 0.86101 0.65367 0.03379 0.0
H3124 H 0.88499 0.6274 1.00028 0.0
H3125 H 0.8732 0.60361 0.01003 0.0
C3126 C 0.8772 0.54945 0.06814 0.0
C3127 C 0.88799 0.5438 0.05784 0.0
C3128 C 0.86701 0.5599 0.06368 0.0
C3129 C 0.86731 0.56487 0.04879 0.0
C3130 C 0.87807 0.55928 0.0385 0.0
C3131 C 0.88827 0.54883 0.04295 0.0
C3132 C 0.85656 0.57606 0.044 0.0
C3133 C 0.86263 0.58961 0.03794 0.0
C3134 C 0.8405 0.57362 0.04567 0.0
C3135 C 0.83326 0.55918 0.0511 0.0
C3136 C 0.83616 0.5451 0.04374 0.0
C3137 C 0.82931 0.53153 0.0489 0.0
C3138 C 0.81944 0.53188 0.06136 0.0
C3139 C 0.81638 0.54582 0.06864 0.0
C3140 C 0.82321 0.55943 0.06353 0.0
C3141 C 0.81574 0.62076 0.00757 0.0
C3142 C 0.80492 0.62751 0.01707 0.0
C3143 C 0.82635 0.61155 0.01351 0.0
C3144 C 0.82632 0.6088 0.02905 0.0
C3145 C 0.81566 0.61565 0.03862 0.0
C3146 C 0.80514 0.62505 0.0327 0.0
C3147 C 0.83705 0.59827 0.03509 0.0
C3148 C 0.83098 0.58484 0.04136 0.0
C3149 C 0.8531 0.60076 0.03351 0.0
C3150 C 0.86022 0.61505 0.0276 0.0
C3151 C 0.85692 0.62931 0.03427 0.0
C3152 C 0.86362 0.64273 0.02863 0.0
C3153 C 0.87371 0.64204 0.01638 0.0
C3154 C 0.87716 0.62792 0.00976 0.0
C3155 C 0.87048 0.61446 0.01535 0.0
H3156 H 0.87889 0.65244 0.01203 0.0
H3157 H 0.81414 0.52136 0.06534 0.0
H3158 H 0.12651 0.0299 0.1024 0.0
H3159 H 0.14492 0.01097 0.09618 0.0
H3160 H 0.1405 0.01894 0.04855 0.0
H3161 H 0.12159 0.0374 0.05461 0.0
H3162 H 0.13931 0.98943 0.0524 0.0
H3163 H 0.17245 0.03267 0.06997 0.0
H3164 H 0.18209 0.05365 0.08793 0.0
H3165 H 0.19071 0.02148 0.12124 0.0
H3166 H 0.18092 1.0003 0.10354 0.0
H3167 H 0.20449 0.95579 0.02283 0.0
H3168 H 0.18584 0.97359 0.03146 0.0
H3169 H 0.19012 0.95954 0.07731 0.0
H3170 H 0.20895 0.9416 0.06872 0.0
H3171 H 0.19101 0.99104 0.0758 0.0
H3172 H 0.15885 0.9477 0.0574 0.0
H3173 H 0.14964 0.92695 0.03899 0.0
H3174 H 0.13954 0.95971 0.00678 0.0
H3175 H 0.14889 0.98067 0.02492 0.0
C3176 C 0.12939 0.02759 0.09058 0.0
C3177 C 0.12251 0.0352 0.07901 0.0
C3178 C 0.14006 0.01686 0.08706 0.0
C3179 C 0.14423 0.0136 0.07189 0.0
C3180 C 0.1375 0.02127 0.06033 0.0
C3181 C 0.12679 0.03195 0.06384 0.0
C3182 C 0.15523 1.00188 0.06799 0.0
C3183 C 0.15068 0.98991 0.05739 0.0
C3184 C 0.16993 1.0022 0.07482 0.0
C3185 C 0.17579 0.01492 0.08549 0.0
C3186 C 0.17627 0.03008 0.08117 0.0
C3187 C 0.18179 0.042 0.09129 0.0
C3188 C 0.18697 0.0389 0.10573 0.0
C3189 C 0.18667 0.02386 0.11006 0.0
C3190 C 0.18115 0.0119 0.09998 0.0
C3191 C 0.20145 0.9564 0.03475 0.0
C3192 C 0.20818 0.94723 0.04508 0.0
C3193 C 0.19073 0.96657 0.03966 0.0
C3194 C 0.18647 0.96781 0.05501 0.0
C3195 C 0.19322 0.95874 0.0654 0.0
C3196 C 0.20391 0.94845 0.06047 0.0
C3197 C 0.17512 0.97876 0.06008 0.0
C3198 C 0.1796 0.99055 0.07089 0.0
C3199 C 0.16038 0.97833 0.05341 0.0
C3200 C 0.15469 0.96575 0.04248 0.0
C3201 C 0.15478 0.95048 0.04635 0.0
C3202 C 0.14951 0.93868 0.03597 0.0
C3203 C 0.14404 0.94201 0.02171 0.0
C3204 C 0.14379 0.95715 0.01782 0.0
C3205 C 0.14906 0.96899 0.02815 0.0
H3206 H 0.13997 0.93285 0.01369 0.0
H3207 H 0.19124 0.04815 0.11355 0.0
loop_
_geom_bond_atom_site_label_1
_geom_bond_atom_site_label_2
_geom_bond_distance
_geom_bond_site_symmetry_2
_ccdc_geom_bond_type
C0 C1 1.264 . S
C0 C5 1.479 . S
C0 C10 1.465 . S
C1 C0 1.264 . S
C1 C3 1.339 . S
C1 H28 0.931 . S
C2 C3 1.395 . S
C2 C4 1.320 . S
C3 C1 1.339 . S
C3 C2 1.395 . S
C3 H29 0.929 . S
C4 C2 1.320 . S
C4 C5 1.405 . S
C4 H30 0.930 . S
C5 C0 1.479 . S
C5 C4 1.405 . S
C5 H31 0.931 . S
U6 O7 2.454 . S
U6 O8 2.458 . S
U6 C9 2.984 . S
U6 C10 2.847 . S
U6 C23 2.882 . S
U6 O24 2.441 . S
U6 O25 2.420 . S
U6 O26 2.455 . S
U6 O27 2.449 . S
O7 U6 2.454 . S
O7 C9 1.353 . S
O8 U6 2.458 . S
O8 C9 1.286 . S
C9 U6 2.984 . S
C9 O7 1.353 . S
C9 O8 1.286 . S
C9 C11 1.363 . S
C10 C0 1.465 . S
C10 U6 2.847 . S
C10 O24 1.249 . S
C10 O25 1.202 . S
C11 C9 1.363 . S
C11 C13 1.408 . S
C11 C16 1.342 . S
C12 C13 1.310 . S
C12 C15 1.461 . S
C12 H32 0.932 . S
C13 C11 1.408 . S
C13 C12 1.310 . S
C13 H33 0.930 . S
C14 C15 1.474 . S
C14 C16 1.285 . S
C14 H34 0.929 . S
C15 C12 1.461 . S
C15 C14 1.474 . S
C16 C11 1.342 . S
C16 C14 1.285 . S
C16 H35 0.930 . S
C17 C20 1.424 . S
C17 C22 1.245 . S
C17 C23 1.428 . S
C18 C21 1.260 . S
C18 C22 1.477 . S
C18 H36 0.932 . S
C19 C20 1.384 . S
C19 C21 1.479 . S
C19 H37 0.929 . S
C20 C17 1.424 . S
C20 C19 1.384 . S
C20 H38 0.928 . S
C21 C18 1.260 . S
C21 C19 1.479 . S
C22 C17 1.245 . S
C22 C18 1.477 . S
C22 H39 0.932 . S
C23 U6 2.882 . S
C23 C17 1.428 . S
C23 O26 1.301 . S
C23 O27 1.282 . S
O24 U6 2.441 . S
O24 C10 1.249 . S
O25 U6 2.420 . S
O25 C10 1.202 . S
O26 U6 2.455 . S
O26 C23 1.301 . S
O27 U6 2.449 . S
O27 C23 1.282 . S
H28 C1 0.931 . S
H29 C3 0.929 . S
H30 C4 0.930 . S
H31 C5 0.931 . S
H32 C12 0.932 . S
H33 C13 0.930 . S
H34 C14 0.929 . S
H35 C16 0.930 . S
H36 C18 0.932 . S
H37 C19 0.929 . S
H38 C20 0.928 . S
H39 C22 0.932 . S
C40 C41 1.264 . S
C40 C45 1.479 . S
C40 C50 1.465 . S
C41 C40 1.264 . S
C41 C43 1.339 . S
C41 H68 0.931 . S
C42 C43 1.395 . S
C42 C44 1.320 . S
C43 C41 1.339 . S
C43 C42 1.395 . S
C43 H69 0.929 . S
C44 C42 1.320 . S
C44 C45 1.405 . S
C44 H70 0.930 . S
C45 C40 1.479 . S
C45 C44 1.405 . S
C45 H71 0.931 . S
U46 O47 2.454 . S
U46 O48 2.458 . S
U46 C49 2.984 . S
U46 C50 2.847 . S
U46 C63 2.882 . S
U46 O64 2.441 . S
U46 O65 2.420 . S
U46 O66 2.455 . S
U46 O67 2.449 . S
O47 U46 2.454 . S
O47 C49 1.353 . S
O48 U46 2.458 . S
O48 C49 1.286 . S
C49 U46 2.984 . S
C49 O47 1.353 . S
C49 O48 1.286 . S
C49 C51 1.363 . S
C50 C40 1.465 . S
C50 U46 2.847 . S
C50 O64 1.249 . S
C50 O65 1.202 . S
C51 C49 1.363 . S
C51 C53 1.408 . S
C51 C56 1.342 . S
C52 C53 1.310 . S
C52 C55 1.461 . S
C52 H72 0.932 . S
C53 C51 1.408 . S
C53 C52 1.310 . S
C53 H73 0.930 . S
C54 C55 1.474 . S
C54 C56 1.285 . S
C54 H74 0.929 . S
C55 C52 1.461 . S
C55 C54 1.474 . S
C56 C51 1.342 . S
C56 C54 1.285 . S
C56 H75 0.930 . S
C57 C60 1.424 . S
C57 C62 1.245 . S
C57 C63 1.428 . S
C58 C61 1.260 . S
C58 C62 1.477 . S
C58 H76 0.932 . S
C59 C60 1.384 . S
C59 C61 1.479 . S
C59 H77 0.929 . S
C60 C57 1.424 . S
C60 C59 1.384 . S
C60 H78 0.928 . S
C61 C58 1.260 . S
C61 C59 1.479 . S
C62 C57 1.245 . S
C62 C58 1.477 . S
C62 H79 0.932 . S
C63 U46 2.882 . S
C63 C57 1.428 . S
C63 O66 1.301 . S
C63 O67 1.282 . S
O64 U46 2.441 . S
O64 C50 1.249 . S
O65 U46 2.420 . S
O65 C50 1.202 . S
O66 U46 2.455 . S
O66 C63 1.301 . S
O67 U46 2.449 . S
O67 C63 1.282 . S
H68 C41 0.931 . S
H69 C43 0.929 . S
H70 C44 0.930 . S
H71 C45 0.931 . S
H72 C52 0.932 . S
H73 C53 0.930 . S
H74 C54 0.929 . S
H75 C56 0.930 . S
H76 C58 0.932 . S
H77 C59 0.929 . S
H78 C60 0.928 . S
H79 C62 0.932 . S
C80 C81 1.264 . S
C80 C85 1.479 . S
C80 C90 1.465 . S
C81 C80 1.264 . S
C81 C83 1.339 . S
C81 H108 0.931 . S
C82 C83 1.395 . S
C82 C84 1.320 . S
C83 C81 1.339 . S
C83 C82 1.395 . S
C83 H109 0.929 . S
C84 C82 1.320 . S
C84 C85 1.405 . S
C84 H110 0.930 . S
C85 C80 1.479 . S
C85 C84 1.405 . S
C85 H111 0.931 . S
U86 O87 2.454 . S
U86 O88 2.458 . S
U86 C89 2.984 . S
U86 C90 2.847 . S
U86 C103 2.882 . S
U86 O104 2.441 . S
U86 O105 2.420 . S
U86 O106 2.455 . S
U86 O107 2.449 . S
O87 U86 2.454 . S
O87 C89 1.353 . S
O88 U86 2.458 . S
O88 C89 1.286 . S
C89 U86 2.984 . S
C89 O87 1.353 . S
C89 O88 1.286 . S
C89 C91 1.363 . S
C90 C80 1.465 . S
C90 U86 2.847 . S
C90 O104 1.249 . S
C90 O105 1.202 . S
C91 C89 1.363 . S
C91 C93 1.408 . S
C91 C96 1.342 . S
C92 C93 1.310 . S
C92 C95 1.461 . S
C92 H112 0.932 . S
C93 C91 1.408 . S
C93 C92 1.310 . S
C93 H113 0.930 . S
C94 C95 1.474 . S
C94 C96 1.285 . S
C94 H114 0.929 . S
C95 C92 1.461 . S
C95 C94 1.474 . S
C96 C91 1.342 . S
C96 C94 1.285 . S
C96 H115 0.930 . S
C97 C100 1.424 . S
C97 C102 1.245 . S
C97 C103 1.428 . S
C98 C101 1.260 . S
C98 C102 1.477 . S
C98 H116 0.932 . S
C99 C100 1.384 . S
C99 C101 1.479 . S
C99 H117 0.929 . S
C100 C97 1.424 . S
C100 C99 1.384 . S
C100 H118 0.928 . S
C101 C98 1.260 . S
C101 C99 1.479 . S
C102 C97 1.245 . S
C102 C98 1.477 . S
C102 H119 0.932 . S
C103 U86 2.882 . S
C103 C97 1.428 . S
C103 O106 1.301 . S
C103 O107 1.282 . S
O104 U86 2.441 . S
O104 C90 1.249 . S
O105 U86 2.420 . S
O105 C90 1.202 . S
O106 U86 2.455 . S
O106 C103 1.301 . S
O107 U86 2.449 . S
O107 C103 1.282 . S
H108 C81 0.931 . S
H109 C83 0.929 . S
H110 C84 0.930 . S
H111 C85 0.931 . S
H112 C92 0.932 . S
H113 C93 0.930 . S
H114 C94 0.929 . S
H115 C96 0.930 . S
H116 C98 0.932 . S
H117 C99 0.929 . S
H118 C100 0.928 . S
H119 C102 0.932 . S
C120 C121 1.264 . S
C120 C125 1.479 . S
C120 C130 1.465 . S
C121 C120 1.264 . S
C121 C123 1.339 . S
C121 H148 0.931 . S
C122 C123 1.395 . S
C122 C124 1.320 . S
C123 C121 1.339 . S
C123 C122 1.395 . S
C123 H149 0.929 . S
C124 C122 1.320 . S
C124 C125 1.405 . S
C124 H150 0.930 . S
C125 C120 1.479 . S
C125 C124 1.405 . S
C125 H151 0.931 . S
U126 O127 2.454 . S
U126 O128 2.458 . S
U126 C129 2.984 . S
U126 C130 2.847 . S
U126 C143 2.882 . S
U126 O144 2.441 . S
U126 O145 2.420 . S
U126 O146 2.455 . S
U126 O147 2.449 . S
O127 U126 2.454 . S
O127 C129 1.353 . S
O128 U126 2.458 . S
O128 C129 1.286 . S
C129 U126 2.984 . S
C129 O127 1.353 . S
C129 O128 1.286 . S
C129 C131 1.363 . S
C130 C120 1.465 . S
C130 U126 2.847 . S
C130 O144 1.249 . S
C130 O145 1.202 . S
C131 C129 1.363 . S
C131 C133 1.408 . S
C131 C136 1.342 . S
C132 C133 1.310 . S
C132 C135 1.461 . S
C132 H152 0.932 . S
C133 C131 1.408 . S
C133 C132 1.310 . S
C133 H153 0.930 . S
C134 C135 1.474 . S
C134 C136 1.285 . S
C134 H154 0.929 . S
C135 C132 1.461 . S
C135 C134 1.474 . S
C136 C131 1.342 . S
C136 C134 1.285 . S
C136 H155 0.930 . S
C137 C140 1.424 . S
C137 C142 1.245 . S
C137 C143 1.428 . S
C138 C141 1.260 . S
C138 C142 1.477 . S
C138 H156 0.932 . S
C139 C140 1.384 . S
C139 C141 1.479 . S
C139 H157 0.929 . S
C140 C137 1.424 . S
C140 C139 1.384 . S
C140 H158 0.928 . S
C141 C138 1.260 . S
C141 C139 1.479 . S
C142 C137 1.245 . S
C142 C138 1.477 . S
C142 H159 0.932 . S
C143 U126 2.882 . S
C143 C137 1.428 . S
C143 O146 1.301 . S
C143 O147 1.282 . S
O144 U126 2.441 . S
O144 C130 1.249 . S
O145 U126 2.420 . S
O145 C130 1.202 . S
O146 U126 2.455 . S
O146 C143 1.301 . S
O147 U126 2.449 . S
O147 C143 1.282 . S
H148 C121 0.931 . S
H149 C123 0.929 . S
H150 C124 0.930 . S
H151 C125 0.931 . S
H152 C132 0.932 . S
H153 C133 0.930 . S
H154 C134 0.929 . S
H155 C136 0.930 . S
H156 C138 0.932 . S
H157 C139 0.929 . S
H158 C140 0.928 . S
H159 C142 0.932 . S
C160 C161 1.264 . S
C160 C165 1.479 . S
C160 C170 1.465 . S
C161 C160 1.264 . S
C161 C163 1.339 . S
C161 H188 0.931 . S
C162 C163 1.395 . S
C162 C164 1.320 . S
C163 C161 1.339 . S
C163 C162 1.395 . S
C163 H189 0.929 . S
C164 C162 1.320 . S
C164 C165 1.405 . S
C164 H190 0.930 . S
C165 C160 1.479 . S
C165 C164 1.405 . S
C165 H191 0.931 . S
U166 O167 2.454 . S
U166 O168 2.458 . S
U166 C169 2.984 . S
U166 C170 2.847 . S
U166 C183 2.882 . S
U166 O184 2.441 . S
U166 O185 2.420 . S
U166 O186 2.455 . S
U166 O187 2.449 . S
O167 U166 2.454 . S
O167 C169 1.353 . S
O168 U166 2.458 . S
O168 C169 1.286 . S
C169 U166 2.984 . S
C169 O167 1.353 . S
C169 O168 1.286 . S
C169 C171 1.363 . S
C170 C160 1.465 . S
C170 U166 2.847 . S
C170 O184 1.249 . S
C170 O185 1.202 . S
C171 C169 1.363 . S
C171 C173 1.408 . S
C171 C176 1.342 . S
C172 C173 1.310 . S
C172 C175 1.461 . S
C172 H192 0.932 . S
C173 C171 1.408 . S
C173 C172 1.310 . S
C173 H193 0.930 . S
C174 C175 1.474 . S
C174 C176 1.285 . S
C174 H194 0.929 . S
C175 C172 1.461 . S
C175 C174 1.474 . S
C176 C171 1.342 . S
C176 C174 1.285 . S
C176 H195 0.930 . S
C177 C180 1.424 . S
C177 C182 1.245 . S
C177 C183 1.428 . S
C178 C181 1.260 1_565 S
C178 C182 1.477 . S
C178 H196 0.932 . S
C179 C180 1.384 1_545 S
C179 C181 1.479 . S
C179 H197 0.929 . S
C180 C177 1.424 . S
C180 C179 1.384 1_565 S
C180 H198 0.928 . S
C181 C178 1.260 1_545 S
C181 C179 1.479 . S
C182 C177 1.245 . S
C182 C178 1.477 . S
C182 H199 0.932 . S
C183 U166 2.882 . S
C183 C177 1.428 . S
C183 O186 1.301 . S
C183 O187 1.282 . S
O184 U166 2.441 . S
O184 C170 1.249 . S
O185 U166 2.420 . S
O185 C170 1.202 . S
O186 U166 2.455 . S
O186 C183 1.301 . S
O187 U166 2.449 . S
O187 C183 1.282 . S
H188 C161 0.931 . S
H189 C163 0.929 . S
H190 C164 0.930 . S
H191 C165 0.931 . S
H192 C172 0.932 . S
H193 C173 0.930 . S
H194 C174 0.929 . S
H195 C176 0.930 . S
H196 C178 0.932 . S
H197 C179 0.929 . S
H198 C180 0.928 . S
H199 C182 0.932 . S
C200 C201 1.264 . S
C200 C205 1.479 . S
C200 C210 1.465 . S
C201 C200 1.264 . S
C201 C203 1.339 . S
C201 H228 0.931 . S
C202 C203 1.395 . S
C202 C204 1.320 . S
C203 C201 1.339 . S
C203 C202 1.395 . S
C203 H229 0.929 . S
C204 C202 1.320 . S
C204 C205 1.405 . S
C204 H230 0.930 . S
C205 C200 1.479 . S
C205 C204 1.405 . S
C205 H231 0.931 . S
U206 O207 2.454 . S
U206 O208 2.458 . S
U206 C209 2.984 . S
U206 C210 2.847 . S
U206 C223 2.882 . S
U206 O224 2.441 . S
U206 O225 2.420 . S
U206 O226 2.455 . S
U206 O227 2.449 . S
O207 U206 2.454 . S
O207 C209 1.353 . S
O208 U206 2.458 . S
O208 C209 1.286 . S
C209 U206 2.984 . S
C209 O207 1.353 . S
C209 O208 1.286 . S
C209 C211 1.363 . S
C210 C200 1.465 . S
C210 U206 2.847 . S
C210 O224 1.249 . S
C210 O225 1.202 . S
C211 C209 1.363 . S
C211 C213 1.408 . S
C211 C216 1.342 . S
C212 C213 1.310 . S
C212 C215 1.461 . S
C212 H232 0.932 . S
C213 C211 1.408 . S
C213 C212 1.310 . S
C213 H233 0.930 . S
C214 C215 1.474 . S
C214 C216 1.285 . S
C214 H234 0.929 . S
C215 C212 1.461 . S
C215 C214 1.474 . S
C216 C211 1.342 . S
C216 C214 1.285 . S
C216 H235 0.930 . S
C217 C220 1.424 . S
C217 C222 1.245 . S
C217 C223 1.428 . S
C218 C221 1.260 . S
C218 C222 1.477 . S
C218 H236 0.932 . S
C219 C220 1.384 . S
C219 C221 1.479 . S
C219 H237 0.929 . S
C220 C217 1.424 . S
C220 C219 1.384 . S
C220 H238 0.928 . S
C221 C218 1.260 . S
C221 C219 1.479 . S
C222 C217 1.245 . S
C222 C218 1.477 . S
C222 H239 0.932 . S
C223 U206 2.882 . S
C223 C217 1.428 . S
C223 O226 1.301 . S
C223 O227 1.282 . S
O224 U206 2.441 . S
O224 C210 1.249 . S
O225 U206 2.420 . S
O225 C210 1.202 . S
O226 U206 2.455 . S
O226 C223 1.301 . S
O227 U206 2.449 . S
O227 C223 1.282 . S
H228 C201 0.931 . S
H229 C203 0.929 . S
H230 C204 0.930 . S
H231 C205 0.931 . S
H232 C212 0.932 . S
H233 C213 0.930 . S
H234 C214 0.929 . S
H235 C216 0.930 . S
H236 C218 0.932 . S
H237 C219 0.929 . S
H238 C220 0.928 . S
H239 C222 0.932 . S
C240 C241 1.264 . S
C240 C245 1.479 . S
C240 C250 1.465 . S
C241 C240 1.264 . S
C241 C243 1.339 . S
C241 H268 0.931 . S
C242 C243 1.395 . S
C242 C244 1.320 . S
C243 C241 1.339 . S
C243 C242 1.395 . S
C243 H269 0.929 . S
C244 C242 1.320 . S
C244 C245 1.405 . S
C244 H270 0.930 . S
C245 C240 1.479 . S
C245 C244 1.405 . S
C245 H271 0.931 . S
U246 O247 2.454 . S
U246 O248 2.458 . S
U246 C249 2.984 . S
U246 C250 2.847 . S
U246 C263 2.882 . S
U246 O264 2.441 . S
U246 O265 2.420 . S
U246 O266 2.455 . S
U246 O267 2.449 . S
O247 U246 2.454 . S
O247 C249 1.353 . S
O248 U246 2.458 . S
O248 C249 1.286 . S
C249 U246 2.984 . S
C249 O247 1.353 . S
C249 O248 1.286 . S
C249 C251 1.363 . S
C250 C240 1.465 . S
C250 U246 2.847 . S
C250 O264 1.249 . S
C250 O265 1.202 . S
C251 C249 1.363 . S
C251 C253 1.408 . S
C251 C256 1.342 . S
C252 C253 1.310 . S
C252 C255 1.461 . S
C252 H272 0.932 . S
C253 C251 1.408 . S
C253 C252 1.310 . S
C253 H273 0.930 . S
C254 C255 1.474 . S
C254 C256 1.285 . S
C254 H274 0.929 . S
C255 C252 1.461 . S
C255 C254 1.474 . S
C256 C251 1.342 . S
C256 C254 1.285 . S
C256 H275 0.930 . S
C257 C260 1.424 . S
C257 C262 1.245 . S
C257 C263 1.428 . S
C258 C261 1.260 . S
C258 C262 1.477 . S
C258 H276 0.932 . S
C259 C260 1.384 . S
C259 C261 1.479 . S
C259 H277 0.929 . S
C260 C257 1.424 . S
C260 C259 1.384 . S
C260 H278 0.928 . S
C261 C258 1.260 . S
C261 C259 1.479 . S
C262 C257 1.245 . S
C262 C258 1.477 . S
C262 H279 0.932 . S
C263 U246 2.882 . S
C263 C257 1.428 . S
C263 O266 1.301 . S
C263 O267 1.282 . S
O264 U246 2.441 . S
O264 C250 1.249 . S
O265 U246 2.420 . S
O265 C250 1.202 . S
O266 U246 2.455 . S
O266 C263 1.301 . S
O267 U246 2.449 . S
O267 C263 1.282 . S
H268 C241 0.931 . S
H269 C243 0.929 . S
H270 C244 0.930 . S
H271 C245 0.931 . S
H272 C252 0.932 . S
H273 C253 0.930 . S
H274 C254 0.929 . S
H275 C256 0.930 . S
H276 C258 0.932 . S
H277 C259 0.929 . S
H278 C260 0.928 . S
H279 C262 0.932 . S
C280 C281 1.264 . S
C280 C285 1.479 . S
C280 C290 1.465 . S
C281 C280 1.264 . S
C281 C283 1.339 . S
C281 H308 0.931 . S
C282 C283 1.395 . S
C282 C284 1.320 . S
C283 C281 1.339 . S
C283 C282 1.395 . S
C283 H309 0.929 . S
C284 C282 1.320 . S
C284 C285 1.405 . S
C284 H310 0.930 . S
C285 C280 1.479 . S
C285 C284 1.405 . S
C285 H311 0.931 . S
U286 O287 2.454 . S
U286 O288 2.458 . S
U286 C289 2.984 . S
U286 C290 2.847 . S
U286 C303 2.882 . S
U286 O304 2.441 . S
U286 O305 2.420 . S
U286 O306 2.455 . S
U286 O307 2.449 . S
O287 U286 2.454 . S
O287 C289 1.353 . S
O288 U286 2.458 . S
O288 C289 1.286 . S
C289 U286 2.984 . S
C289 O287 1.353 . S
C289 O288 1.286 . S
C289 C291 1.363 . S
C290 C280 1.465 . S
C290 U286 2.847 . S
C290 O304 1.249 . S
C290 O305 1.202 . S
C291 C289 1.363 . S
C291 C293 1.408 . S
C291 C296 1.342 . S
C292 C293 1.310 . S
C292 C295 1.461 . S
C292 H312 0.932 . S
C293 C291 1.408 . S
C293 C292 1.310 . S
C293 H313 0.930 . S
C294 C295 1.474 . S
C294 C296 1.285 . S
C294 H314 0.929 . S
C295 C292 1.461 . S
C295 C294 1.474 . S
C296 C291 1.342 . S
C296 C294 1.285 . S
C296 H315 0.930 . S
C297 C300 1.424 . S
C297 C302 1.245 . S
C297 C303 1.428 . S
C298 C301 1.260 . S
C298 C302 1.477 . S
C298 H316 0.932 . S
C299 C300 1.384 . S
C299 C301 1.479 . S
C299 H317 0.929 . S
C300 C297 1.424 . S
C300 C299 1.384 . S
C300 H318 0.928 . S
C301 C298 1.260 . S
C301 C299 1.479 . S
C302 C297 1.245 . S
C302 C298 1.477 . S
C302 H319 0.932 . S
C303 U286 2.882 . S
C303 C297 1.428 . S
C303 O306 1.301 . S
C303 O307 1.282 . S
O304 U286 2.441 . S
O304 C290 1.249 . S
O305 U286 2.420 . S
O305 C290 1.202 . S
O306 U286 2.455 . S
O306 C303 1.301 . S
O307 U286 2.449 . S
O307 C303 1.282 . S
H308 C281 0.931 . S
H309 C283 0.929 . S
H310 C284 0.930 . S
H311 C285 0.931 . S
H312 C292 0.932 . S
H313 C293 0.930 . S
H314 C294 0.929 . S
H315 C296 0.930 . S
H316 C298 0.932 . S
H317 C299 0.929 . S
H318 C300 0.928 . S
H319 C302 0.932 . S
C320 C321 1.264 . S
C320 C325 1.479 . S
C320 C330 1.465 . S
C321 C320 1.264 . S
C321 C323 1.339 . S
C321 H348 0.931 . S
C322 C323 1.395 . S
C322 C324 1.320 . S
C323 C321 1.339 . S
C323 C322 1.395 . S
C323 H349 0.929 . S
C324 C322 1.320 . S
C324 C325 1.405 . S
C324 H350 0.930 . S
C325 C320 1.479 . S
C325 C324 1.405 . S
C325 H351 0.931 . S
U326 O327 2.454 . S
U326 O328 2.458 . S
U326 C329 2.984 . S
U326 C330 2.847 . S
U326 C343 2.882 . S
U326 O344 2.441 . S
U326 O345 2.420 . S
U326 O346 2.455 . S
U326 O347 2.449 . S
O327 U326 2.454 . S
O327 C329 1.353 . S
O328 U326 2.458 . S
O328 C329 1.286 . S
C329 U326 2.984 . S
C329 O327 1.353 . S
C329 O328 1.286 . S
C329 C331 1.363 . S
C330 C320 1.465 . S
C330 U326 2.847 . S
C330 O344 1.249 . S
C330 O345 1.202 . S
C331 C329 1.363 . S
C331 C333 1.408 . S
C331 C336 1.342 . S
C332 C333 1.310 . S
C332 C335 1.461 . S
C332 H352 0.932 . S
C333 C331 1.408 . S
C333 C332 1.310 . S
C333 H353 0.930 . S
C334 C335 1.474 . S
C334 C336 1.285 . S
C334 H354 0.929 . S
C335 C332 1.461 . S
C335 C334 1.474 . S
C336 C331 1.342 . S
C336 C334 1.285 . S
C336 H355 0.930 . S
C337 C340 1.424 . S
C337 C342 1.245 . S
C337 C343 1.428 . S
C338 C341 1.260 . S
C338 C342 1.477 . S
C338 H356 0.932 . S
C339 C340 1.384 . S
C339 C341 1.479 . S
C339 H357 0.929 . S
C340 C337 1.424 . S
C340 C339 1.384 . S
C340 H358 0.928 . S
C341 C338 1.260 . S
C341 C339 1.479 . S
C342 C337 1.245 . S
C342 C338 1.477 . S
C342 H359 0.932 . S
C343 U326 2.882 . S
C343 C337 1.428 . S
C343 O346 1.301 . S
C343 O347 1.282 . S
O344 U326 2.441 . S
O344 C330 1.249 . S
O345 U326 2.420 . S
O345 C330 1.202 . S
O346 U326 2.455 . S
O346 C343 1.301 . S
O347 U326 2.449 . S
O347 C343 1.282 . S
H348 C321 0.931 . S
H349 C323 0.929 . S
H350 C324 0.930 . S
H351 C325 0.931 . S
H352 C332 0.932 . S
H353 C333 0.930 . S
H354 C334 0.929 . S
H355 C336 0.930 . S
H356 C338 0.932 . S
H357 C339 0.929 . S
H358 C340 0.928 . S
H359 C342 0.932 . S
C360 C361 1.264 . S
C360 C365 1.479 . S
C360 C370 1.465 . S
C361 C360 1.264 . S
C361 C363 1.339 . S
C361 H388 0.931 . S
C362 C363 1.395 . S
C362 C364 1.320 . S
C363 C361 1.339 . S
C363 C362 1.395 . S
C363 H389 0.929 . S
C364 C362 1.320 . S
C364 C365 1.405 . S
C364 H390 0.930 . S
C365 C360 1.479 . S
C365 C364 1.405 . S
C365 H391 0.931 . S
U366 O367 2.454 . S
U366 O368 2.458 . S
U366 C369 2.984 . S
U366 C370 2.847 . S
U366 C383 2.882 . S
U366 O384 2.441 . S
U366 O385 2.420 . S
U366 O386 2.455 . S
U366 O387 2.449 . S
O367 U366 2.454 . S
O367 C369 1.353 . S
O368 U366 2.458 . S
O368 C369 1.286 . S
C369 U366 2.984 . S
C369 O367 1.353 . S
C369 O368 1.286 . S
C369 C371 1.363 . S
C370 C360 1.465 . S
C370 U366 2.847 . S
C370 O384 1.249 . S
C370 O385 1.202 . S
C371 C369 1.363 . S
C371 C373 1.408 . S
C371 C376 1.342 . S
C372 C373 1.310 . S
C372 C375 1.461 . S
C372 H392 0.932 . S
C373 C371 1.408 . S
C373 C372 1.310 . S
C373 H393 0.930 . S
C374 C375 1.474 . S
C374 C376 1.285 . S
C374 H394 0.929 . S
C375 C372 1.461 . S
C375 C374 1.474 . S
C376 C371 1.342 . S
C376 C374 1.285 . S
C376 H395 0.930 . S
C377 C380 1.424 . S
C377 C382 1.245 . S
C377 C383 1.428 . S
C378 C381 1.260 . S
C378 C382 1.477 . S
C378 H396 0.932 . S
C379 C380 1.384 . S
C379 C381 1.479 . S
C379 H397 0.929 . S
C380 C377 1.424 . S
C380 C379 1.384 . S
C380 H398 0.928 . S
C381 C378 1.260 . S
C381 C379 1.479 . S
C382 C377 1.245 . S
C382 C378 1.477 . S
C382 H399 0.932 . S
C383 U366 2.882 . S
C383 C377 1.428 . S
C383 O386 1.301 . S
C383 O387 1.282 . S
O384 U366 2.441 . S
O384 C370 1.249 . S
O385 U366 2.420 . S
O385 C370 1.202 . S
O386 U366 2.455 . S
O386 C383 1.301 . S
O387 U366 2.449 . S
O387 C383 1.282 . S
H388 C361 0.931 . S
H389 C363 0.929 . S
H390 C364 0.930 . S
H391 C365 0.931 . S
H392 C372 0.932 . S
H393 C373 0.930 . S
H394 C374 0.929 . S
H395 C376 0.930 . S
H396 C378 0.932 . S
H397 C379 0.929 . S
H398 C380 0.928 . S
H399 C382 0.932 . S
C400 C401 1.264 . S
C400 C405 1.479 . S
C400 C410 1.465 . S
C401 C400 1.264 . S
C401 C403 1.339 . S
C401 H428 0.931 . S
C402 C403 1.395 . S
C402 C404 1.320 . S
C403 C401 1.339 . S
C403 C402 1.395 . S
C403 H429 0.929 . S
C404 C402 1.320 . S
C404 C405 1.405 . S
C404 H430 0.930 . S
C405 C400 1.479 . S
C405 C404 1.405 . S
C405 H431 0.931 . S
U406 O407 2.454 . S
U406 O408 2.458 . S
U406 C409 2.984 . S
U406 C410 2.847 . S
U406 C423 2.882 . S
U406 O424 2.441 . S
U406 O425 2.420 . S
U406 O426 2.455 . S
U406 O427 2.449 . S
O407 U406 2.454 . S
O407 C409 1.353 . S
O408 U406 2.458 . S
O408 C409 1.286 . S
C409 U406 2.984 . S
C409 O407 1.353 . S
C409 O408 1.286 . S
C409 C411 1.363 . S
C410 C400 1.465 . S
C410 U406 2.847 . S
C410 O424 1.249 . S
C410 O425 1.202 . S
C411 C409 1.363 . S
C411 C413 1.408 . S
C411 C416 1.342 . S
C412 C413 1.310 . S
C412 C415 1.461 . S
C412 H432 0.932 . S
C413 C411 1.408 . S
C413 C412 1.310 . S
C413 H433 0.930 . S
C414 C415 1.474 . S
C414 C416 1.285 . S
C414 H434 0.929 . S
C415 C412 1.461 . S
C415 C414 1.474 . S
C416 C411 1.342 . S
C416 C414 1.285 . S
C416 H435 0.930 . S
C417 C420 1.424 . S
C417 C422 1.245 . S
C417 C423 1.428 . S
C418 C421 1.260 . S
C418 C422 1.477 . S
C418 H436 0.932 . S
C419 C420 1.384 . S
C419 C421 1.479 . S
C419 H437 0.929 . S
C420 C417 1.424 . S
C420 C419 1.384 . S
C420 H438 0.928 . S
C421 C418 1.260 . S
C421 C419 1.479 . S
C422 C417 1.245 . S
C422 C418 1.477 . S
C422 H439 0.932 . S
C423 U406 2.882 . S
C423 C417 1.428 . S
C423 O426 1.301 . S
C423 O427 1.282 . S
O424 U406 2.441 . S
O424 C410 1.249 . S
O425 U406 2.420 . S
O425 C410 1.202 . S
O426 U406 2.455 . S
O426 C423 1.301 . S
O427 U406 2.449 . S
O427 C423 1.282 . S
H428 C401 0.931 . S
H429 C403 0.929 . S
H430 C404 0.930 . S
H431 C405 0.931 . S
H432 C412 0.932 . S
H433 C413 0.930 . S
H434 C414 0.929 . S
H435 C416 0.930 . S
H436 C418 0.932 . S
H437 C419 0.929 . S
H438 C420 0.928 . S
H439 C422 0.932 . S
C440 C441 1.264 . S
C440 C445 1.479 . S
C440 C450 1.465 . S
C441 C440 1.264 . S
C441 C443 1.339 . S
C441 H468 0.931 . S
C442 C443 1.395 . S
C442 C444 1.320 . S
C443 C441 1.339 . S
C443 C442 1.395 . S
C443 H469 0.929 . S
C444 C442 1.320 . S
C444 C445 1.405 . S
C444 H470 0.930 . S
C445 C440 1.479 . S
C445 C444 1.405 . S
C445 H471 0.931 . S
U446 O447 2.454 . S
U446 O448 2.458 . S
U446 C449 2.984 . S
U446 C450 2.847 . S
U446 C463 2.882 . S
U446 O464 2.441 . S
U446 O465 2.420 . S
U446 O466 2.455 . S
U446 O467 2.449 . S
O447 U446 2.454 . S
O447 C449 1.353 . S
O448 U446 2.458 . S
O448 C449 1.286 . S
C449 U446 2.984 . S
C449 O447 1.353 . S
C449 O448 1.286 . S
C449 C451 1.363 . S
C450 C440 1.465 . S
C450 U446 2.847 . S
C450 O464 1.249 . S
C450 O465 1.202 . S
C451 C449 1.363 . S
C451 C453 1.408 . S
C451 C456 1.342 . S
C452 C453 1.310 . S
C452 C455 1.461 . S
C452 H472 0.932 . S
C453 C451 1.408 . S
C453 C452 1.310 . S
C453 H473 0.930 . S
C454 C455 1.474 . S
C454 C456 1.285 . S
C454 H474 0.929 . S
C455 C452 1.461 . S
C455 C454 1.474 . S
C456 C451 1.342 . S
C456 C454 1.285 . S
C456 H475 0.930 . S
C457 C460 1.424 . S
C457 C462 1.245 . S
C457 C463 1.428 . S
C458 C461 1.260 . S
C458 C462 1.477 . S
C458 H476 0.932 . S
C459 C460 1.384 . S
C459 C461 1.479 . S
C459 H477 0.929 . S
C460 C457 1.424 . S
C460 C459 1.384 . S
C460 H478 0.928 . S
C461 C458 1.260 . S
C461 C459 1.479 . S
C462 C457 1.245 . S
C462 C458 1.477 . S
C462 H479 0.932 . S
C463 U446 2.882 . S
C463 C457 1.428 . S
C463 O466 1.301 . S
C463 O467 1.282 . S
O464 U446 2.441 . S
O464 C450 1.249 . S
O465 U446 2.420 . S
O465 C450 1.202 . S
O466 U446 2.455 . S
O466 C463 1.301 . S
O467 U446 2.449 . S
O467 C463 1.282 . S
H468 C441 0.931 . S
H469 C443 0.929 . S
H470 C444 0.930 . S
H471 C445 0.931 . S
H472 C452 0.932 . S
H473 C453 0.930 . S
H474 C454 0.929 . S
H475 C456 0.930 . S
H476 C458 0.932 . S
H477 C459 0.929 . S
H478 C460 0.928 . S
H479 C462 0.932 . S
C480 C481 1.264 . S
C480 C485 1.479 . S
C480 C490 1.465 . S
C481 C480 1.264 . S
C481 C483 1.339 . S
C481 H508 0.931 . S
C482 C483 1.395 . S
C482 C484 1.320 . S
C483 C481 1.339 . S
C483 C482 1.395 . S
C483 H509 0.929 . S
C484 C482 1.320 . S
C484 C485 1.405 . S
C484 H510 0.930 . S
C485 C480 1.479 . S
C485 C484 1.405 . S
C485 H511 0.931 . S
U486 O487 2.454 . S
U486 O488 2.458 . S
U486 C489 2.984 . S
U486 C490 2.847 . S
U486 C503 2.882 . S
U486 O504 2.441 . S
U486 O505 2.420 . S
U486 O506 2.455 . S
U486 O507 2.449 . S
O487 U486 2.454 . S
O487 C489 1.353 . S
O488 U486 2.458 . S
O488 C489 1.286 . S
C489 U486 2.984 . S
C489 O487 1.353 . S
C489 O488 1.286 . S
C489 C491 1.363 . S
C490 C480 1.465 . S
C490 U486 2.847 . S
C490 O504 1.249 . S
C490 O505 1.202 . S
C491 C489 1.363 . S
C491 C493 1.408 . S
C491 C496 1.342 . S
C492 C493 1.310 . S
C492 C495 1.461 . S
C492 H512 0.932 . S
C493 C491 1.408 . S
C493 C492 1.310 . S
C493 H513 0.930 . S
C494 C495 1.474 . S
C494 C496 1.285 . S
C494 H514 0.929 . S
C495 C492 1.461 . S
C495 C494 1.474 . S
C496 C491 1.342 . S
C496 C494 1.285 . S
C496 H515 0.930 . S
C497 C500 1.424 . S
C497 C502 1.245 . S
C497 C503 1.428 . S
C498 C501 1.260 . S
C498 C502 1.477 . S
C498 H516 0.932 . S
C499 C500 1.384 . S
C499 C501 1.479 . S
C499 H517 0.929 . S
C500 C497 1.424 . S
C500 C499 1.384 . S
C500 H518 0.928 . S
C501 C498 1.260 . S
C501 C499 1.479 . S
C502 C497 1.245 . S
C502 C498 1.477 . S
C502 H519 0.932 . S
C503 U486 2.882 . S
C503 C497 1.428 . S
C503 O506 1.301 . S
C503 O507 1.282 . S
O504 U486 2.441 . S
O504 C490 1.249 . S
O505 U486 2.420 . S
O505 C490 1.202 . S
O506 U486 2.455 . S
O506 C503 1.301 . S
O507 U486 2.449 . S
O507 C503 1.282 . S
H508 C481 0.931 . S
H509 C483 0.929 . S
H510 C484 0.930 . S
H511 C485 0.931 . S
H512 C492 0.932 . S
H513 C493 0.930 . S
H514 C494 0.929 . S
H515 C496 0.930 . S
H516 C498 0.932 . S
H517 C499 0.929 . S
H518 C500 0.928 . S
H519 C502 0.932 . S
C520 C521 1.264 . S
C520 C525 1.479 . S
C520 C530 1.465 . S
C521 C520 1.264 . S
C521 C523 1.339 . S
C521 H548 0.931 . S
C522 C523 1.395 . S
C522 C524 1.320 . S
C523 C521 1.339 . S
C523 C522 1.395 . S
C523 H549 0.929 . S
C524 C522 1.320 . S
C524 C525 1.405 . S
C524 H550 0.930 . S
C525 C520 1.479 . S
C525 C524 1.405 . S
C525 H551 0.931 . S
U526 O527 2.454 . S
U526 O528 2.458 . S
U526 C529 2.984 . S
U526 C530 2.847 . S
U526 C543 2.882 . S
U526 O544 2.441 . S
U526 O545 2.420 . S
U526 O546 2.455 . S
U526 O547 2.449 . S
O527 U526 2.454 . S
O527 C529 1.353 . S
O528 U526 2.458 . S
O528 C529 1.286 . S
C529 U526 2.984 . S
C529 O527 1.353 . S
C529 O528 1.286 . S
C529 C531 1.363 . S
C530 C520 1.465 . S
C530 U526 2.847 . S
C530 O544 1.249 . S
C530 O545 1.202 . S
C531 C529 1.363 . S
C531 C533 1.408 . S
C531 C536 1.342 . S
C532 C533 1.310 . S
C532 C535 1.461 . S
C532 H552 0.932 . S
C533 C531 1.408 . S
C533 C532 1.310 . S
C533 H553 0.930 . S
C534 C535 1.474 . S
C534 C536 1.285 . S
C534 H554 0.929 . S
C535 C532 1.461 . S
C535 C534 1.474 . S
C536 C531 1.342 . S
C536 C534 1.285 . S
C536 H555 0.930 . S
C537 C540 1.424 . S
C537 C542 1.245 . S
C537 C543 1.428 . S
C538 C541 1.260 . S
C538 C542 1.477 . S
C538 H556 0.932 . S
C539 C540 1.384 . S
C539 C541 1.479 . S
C539 H557 0.929 . S
C540 C537 1.424 . S
C540 C539 1.384 . S
C540 H558 0.928 . S
C541 C538 1.260 . S
C541 C539 1.479 . S
C542 C537 1.245 . S
C542 C538 1.477 . S
C542 H559 0.932 . S
C543 U526 2.882 . S
C543 C537 1.428 . S
C543 O546 1.301 . S
C543 O547 1.282 . S
O544 U526 2.441 . S
O544 C530 1.249 . S
O545 U526 2.420 . S
O545 C530 1.202 . S
O546 U526 2.455 . S
O546 C543 1.301 . S
O547 U526 2.449 . S
O547 C543 1.282 . S
H548 C521 0.931 . S
H549 C523 0.929 . S
H550 C524 0.930 . S
H551 C525 0.931 . S
H552 C532 0.932 . S
H553 C533 0.930 . S
H554 C534 0.929 . S
H555 C536 0.930 . S
H556 C538 0.932 . S
H557 C539 0.929 . S
H558 C540 0.928 . S
H559 C542 0.932 . S
C560 C561 1.264 . S
C560 C565 1.479 . S
C560 C570 1.465 . S
C561 C560 1.264 . S
C561 C563 1.339 . S
C561 H588 0.931 . S
C562 C563 1.395 . S
C562 C564 1.320 . S
C563 C561 1.339 . S
C563 C562 1.395 . S
C563 H589 0.929 . S
C564 C562 1.320 . S
C564 C565 1.405 . S
C564 H590 0.930 . S
C565 C560 1.479 . S
C565 C564 1.405 . S
C565 H591 0.931 . S
U566 O567 2.454 . S
U566 O568 2.458 . S
U566 C569 2.984 . S
U566 C570 2.847 . S
U566 C583 2.882 . S
U566 O584 2.441 . S
U566 O585 2.420 . S
U566 O586 2.455 . S
U566 O587 2.449 . S
O567 U566 2.454 . S
O567 C569 1.353 . S
O568 U566 2.458 . S
O568 C569 1.286 . S
C569 U566 2.984 . S
C569 O567 1.353 . S
C569 O568 1.286 . S
C569 C571 1.363 . S
C570 C560 1.465 . S
C570 U566 2.847 . S
C570 O584 1.249 . S
C570 O585 1.202 . S
C571 C569 1.363 . S
C571 C573 1.408 . S
C571 C576 1.342 . S
C572 C573 1.310 . S
C572 C575 1.461 . S
C572 H592 0.932 . S
C573 C571 1.408 . S
C573 C572 1.310 . S
C573 H593 0.930 . S
C574 C575 1.474 . S
C574 C576 1.285 . S
C574 H594 0.929 . S
C575 C572 1.461 . S
C575 C574 1.474 . S
C576 C571 1.342 . S
C576 C574 1.285 . S
C576 H595 0.930 . S
C577 C580 1.424 . S
C577 C582 1.245 . S
C577 C583 1.428 . S
C578 C581 1.260 . S
C578 C582 1.477 . S
C578 H596 0.932 . S
C579 C580 1.384 . S
C579 C581 1.479 . S
C579 H597 0.929 . S
C580 C577 1.424 . S
C580 C579 1.384 . S
C580 H598 0.928 . S
C581 C578 1.260 . S
C581 C579 1.479 . S
C582 C577 1.245 . S
C582 C578 1.477 . S
C582 H599 0.932 . S
C583 U566 2.882 . S
C583 C577 1.428 . S
C583 O586 1.301 . S
C583 O587 1.282 . S
O584 U566 2.441 . S
O584 C570 1.249 . S
O585 U566 2.420 . S
O585 C570 1.202 . S
O586 U566 2.455 . S
O586 C583 1.301 . S
O587 U566 2.449 . S
O587 C583 1.282 . S
H588 C561 0.931 . S
H589 C563 0.929 . S
H590 C564 0.930 . S
H591 C565 0.931 . S
H592 C572 0.932 . S
H593 C573 0.930 . S
H594 C574 0.929 . S
H595 C576 0.930 . S
H596 C578 0.932 . S
H597 C579 0.929 . S
H598 C580 0.928 . S
H599 C582 0.932 . S
C600 C601 1.264 . S
C600 C605 1.479 . S
C600 C610 1.465 . S
C601 C600 1.264 . S
C601 C603 1.339 . S
C601 H628 0.931 . S
C602 C603 1.395 . S
C602 C604 1.320 . S
C603 C601 1.339 . S
C603 C602 1.395 . S
C603 H629 0.929 . S
C604 C602 1.320 . S
C604 C605 1.405 . S
C604 H630 0.930 . S
C605 C600 1.479 . S
C605 C604 1.405 . S
C605 H631 0.931 . S
U606 O607 2.454 . S
U606 O608 2.458 . S
U606 C609 2.984 . S
U606 C610 2.847 . S
U606 C623 2.882 . S
U606 O624 2.441 . S
U606 O625 2.420 . S
U606 O626 2.455 . S
U606 O627 2.449 . S
O607 U606 2.454 . S
O607 C609 1.353 . S
O608 U606 2.458 . S
O608 C609 1.286 . S
C609 U606 2.984 . S
C609 O607 1.353 . S
C609 O608 1.286 . S
C609 C611 1.363 . S
C610 C600 1.465 . S
C610 U606 2.847 . S
C610 O624 1.249 . S
C610 O625 1.202 . S
C611 C609 1.363 . S
C611 C613 1.408 . S
C611 C616 1.342 . S
C612 C613 1.310 . S
C612 C615 1.461 . S
C612 H632 0.932 . S
C613 C611 1.408 . S
C613 C612 1.310 . S
C613 H633 0.930 . S
C614 C615 1.474 . S
C614 C616 1.285 . S
C614 H634 0.929 . S
C615 C612 1.461 . S
C615 C614 1.474 . S
C616 C611 1.342 . S
C616 C614 1.285 . S
C616 H635 0.930 . S
C617 C620 1.424 . S
C617 C622 1.245 . S
C617 C623 1.428 . S
C618 C621 1.260 . S
C618 C622 1.477 . S
C618 H636 0.932 . S
C619 C620 1.384 . S
C619 C621 1.479 . S
C619 H637 0.929 . S
C620 C617 1.424 . S
C620 C619 1.384 . S
C620 H638 0.928 . S
C621 C618 1.260 . S
C621 C619 1.479 . S
C622 C617 1.245 . S
C622 C618 1.477 . S
C622 H639 0.932 . S
C623 U606 2.882 . S
C623 C617 1.428 . S
C623 O626 1.301 . S
C623 O627 1.282 . S
O624 U606 2.441 . S
O624 C610 1.249 . S
O625 U606 2.420 . S
O625 C610 1.202 . S
O626 U606 2.455 . S
O626 C623 1.301 . S
O627 U606 2.449 . S
O627 C623 1.282 . S
H628 C601 0.931 . S
H629 C603 0.929 . S
H630 C604 0.930 . S
H631 C605 0.931 . S
H632 C612 0.932 . S
H633 C613 0.930 . S
H634 C614 0.929 . S
H635 C616 0.930 . S
H636 C618 0.932 . S
H637 C619 0.929 . S
H638 C620 0.928 . S
H639 C622 0.932 . S
O640 Cd641 2.223 . S
O640 C648 1.315 . S
Cd641 O640 2.223 . S
Cd641 O644 2.297 . S
Cd641 O645 2.439 . S
Cd641 O651 2.240 . S
Cd642 O643 2.240 . S
Cd642 O650 2.223 . S
Cd642 O652 2.297 . S
Cd642 O653 2.439 . S
O643 Cd642 2.240 . S
O643 C648 1.279 . S
O644 Cd641 2.297 . S
O644 C646 1.247 . S
O645 Cd641 2.439 . S
O645 C646 1.208 . S
C646 O644 1.247 . S
C646 O645 1.208 . S
C647 O652 1.247 . S
C647 O653 1.208 . S
C648 O640 1.315 . S
C648 O643 1.279 . S
C649 O650 1.315 . S
C649 O651 1.279 . S
O650 Cd642 2.223 . S
O650 C649 1.315 . S
O651 Cd641 2.240 . S
O651 C649 1.279 . S
O652 Cd642 2.297 . S
O652 C647 1.247 . S
O653 Cd642 2.439 . S
O653 C647 1.208 . S
O654 Cd655 2.223 . S
O654 C662 1.315 . S
Cd655 O654 2.223 . S
Cd655 O658 2.297 . S
Cd655 O659 2.439 . S
Cd655 O665 2.240 . S
Cd656 O657 2.240 . S
Cd656 O664 2.223 . S
Cd656 O666 2.297 . S
Cd656 O667 2.439 . S
O657 Cd656 2.240 . S
O657 C662 1.279 . S
O658 Cd655 2.297 . S
O658 C660 1.247 . S
O659 Cd655 2.439 . S
O659 C660 1.208 . S
C660 O658 1.247 . S
C660 O659 1.208 . S
C661 O666 1.247 . S
C661 O667 1.208 . S
C662 O654 1.315 . S
C662 O657 1.279 . S
C663 O664 1.315 . S
C663 O665 1.279 . S
O664 Cd656 2.223 . S
O664 C663 1.315 . S
O665 Cd655 2.240 . S
O665 C663 1.279 . S
O666 Cd656 2.297 . S
O666 C661 1.247 . S
O667 Cd656 2.439 . S
O667 C661 1.208 . S
O668 Cd669 2.223 1_556 S
O668 C676 1.315 . S
Cd669 O668 2.223 1_554 S
Cd669 O672 2.297 . S
Cd669 O673 2.439 . S
Cd669 O679 2.240 . S
Cd670 O671 2.240 . S
Cd670 O678 2.223 . S
Cd670 O680 2.297 1_556 S
Cd670 O681 2.439 1_556 S
O671 Cd670 2.240 . S
O671 C676 1.279 . S
O672 Cd669 2.297 . S
O672 C674 1.247 . S
O673 Cd669 2.439 . S
O673 C674 1.208 . S
C674 O672 1.247 . S
C674 O673 1.208 . S
C675 O680 1.247 . S
C675 O681 1.208 . S
C676 O668 1.315 . S
C676 O671 1.279 . S
C677 O678 1.315 . S
C677 O679 1.279 1_556 S
O678 Cd670 2.223 . S
O678 C677 1.315 . S
O679 Cd669 2.240 . S
O679 C677 1.279 1_554 S
O680 Cd670 2.297 1_554 S
O680 C675 1.247 . S
O681 Cd670 2.439 1_554 S
O681 C675 1.208 . S
O682 Cd683 2.223 . S
O682 C690 1.315 . S
Cd683 O682 2.223 . S
Cd683 O686 2.297 . S
Cd683 O687 2.439 . S
Cd683 O693 2.240 . S
Cd684 O685 2.240 . S
Cd684 O692 2.223 . S
Cd684 O694 2.297 . S
Cd684 O695 2.439 . S
O685 Cd684 2.240 . S
O685 C690 1.279 . S
O686 Cd683 2.297 . S
O686 C688 1.247 . S
O687 Cd683 2.439 . S
O687 C688 1.208 . S
C688 O686 1.247 . S
C688 O687 1.208 . S
C689 O694 1.247 . S
C689 O695 1.208 . S
C690 O682 1.315 . S
C690 O685 1.279 . S
C691 O692 1.315 . S
C691 O693 1.279 . S
O692 Cd684 2.223 . S
O692 C691 1.315 . S
O693 Cd683 2.240 . S
O693 C691 1.279 . S
O694 Cd684 2.297 . S
O694 C689 1.247 . S
O695 Cd684 2.439 . S
O695 C689 1.208 . S
O696 Cd697 2.223 . S
O696 C704 1.315 . S
Cd697 O696 2.223 . S
Cd697 O700 2.297 . S
Cd697 O701 2.439 . S
Cd697 O707 2.240 . S
Cd698 O699 2.240 . S
Cd698 O706 2.223 . S
Cd698 O708 2.297 . S
Cd698 O709 2.439 . S
O699 Cd698 2.240 . S
O699 C704 1.279 . S
O700 Cd697 2.297 . S
O700 C702 1.247 . S
O701 Cd697 2.439 . S
O701 C702 1.208 . S
C702 O700 1.247 . S
C702 O701 1.208 . S
C703 O708 1.247 . S
C703 O709 1.208 . S
C704 O696 1.315 . S
C704 O699 1.279 . S
C705 O706 1.315 . S
C705 O707 1.279 . S
O706 Cd698 2.223 . S
O706 C705 1.315 . S
O707 Cd697 2.240 . S
O707 C705 1.279 . S
O708 Cd698 2.297 . S
O708 C703 1.247 . S
O709 Cd698 2.439 . S
O709 C703 1.208 . S
O710 Cd711 2.223 . S
O710 C718 1.315 . S
Cd711 O710 2.223 . S
Cd711 O714 2.297 . S
Cd711 O715 2.439 . S
Cd711 O721 2.240 . S
Cd712 O713 2.240 . S
Cd712 O720 2.223 . S
Cd712 O722 2.297 . S
Cd712 O723 2.439 . S
O713 Cd712 2.240 . S
O713 C718 1.279 . S
O714 Cd711 2.297 . S
O714 C716 1.247 . S
O715 Cd711 2.439 . S
O715 C716 1.208 . S
C716 O714 1.247 . S
C716 O715 1.208 . S
C717 O722 1.247 . S
C717 O723 1.208 . S
C718 O710 1.315 . S
C718 O713 1.279 . S
C719 O720 1.315 . S
C719 O721 1.279 . S
O720 Cd712 2.223 . S
O720 C719 1.315 . S
O721 Cd711 2.240 . S
O721 C719 1.279 . S
O722 Cd712 2.297 . S
O722 C717 1.247 . S
O723 Cd712 2.439 . S
O723 C717 1.208 . S
O724 Cd725 2.223 . S
O724 C732 1.315 . S
Cd725 O724 2.223 . S
Cd725 O728 2.297 . S
Cd725 O729 2.439 . S
Cd725 O735 2.240 . S
Cd726 O727 2.240 . S
Cd726 O734 2.223 . S
Cd726 O736 2.297 . S
Cd726 O737 2.439 . S
O727 Cd726 2.240 . S
O727 C732 1.279 . S
O728 Cd725 2.297 . S
O728 C730 1.247 . S
O729 Cd725 2.439 . S
O729 C730 1.208 . S
C730 O728 1.247 . S
C730 O729 1.208 . S
C731 O736 1.247 . S
C731 O737 1.208 . S
C732 O724 1.315 . S
C732 O727 1.279 . S
C733 O734 1.315 . S
C733 O735 1.279 . S
O734 Cd726 2.223 . S
O734 C733 1.315 . S
O735 Cd725 2.240 . S
O735 C733 1.279 . S
O736 Cd726 2.297 . S
O736 C731 1.247 . S
O737 Cd726 2.439 . S
O737 C731 1.208 . S
O738 Cd739 2.223 1_545 S
O738 C746 1.315 . S
Cd739 O738 2.223 1_565 S
Cd739 O742 2.297 . S
Cd739 O743 2.439 . S
Cd739 O749 2.240 1_565 S
Cd740 O741 2.240 . S
Cd740 O748 2.223 . S
Cd740 O750 2.297 . S
Cd740 O751 2.439 1_545 S
O741 Cd740 2.240 . S
O741 C746 1.279 . S
O742 Cd739 2.297 . S
O742 C744 1.247 . S
O743 Cd739 2.439 . S
O743 C744 1.208 . S
C744 O742 1.247 . S
C744 O743 1.208 . S
C745 O750 1.247 1_565 S
C745 O751 1.208 . S
C746 O738 1.315 . S
C746 O741 1.279 . S
C747 O748 1.315 . S
C747 O749 1.279 . S
O748 Cd740 2.223 . S
O748 C747 1.315 . S
O749 Cd739 2.240 1_545 S
O749 C747 1.279 . S
O750 Cd740 2.297 . S
O750 C745 1.247 1_545 S
O751 Cd740 2.439 1_565 S
O751 C745 1.208 . S
O752 Cd753 2.223 . S
O752 C760 1.315 . S
Cd753 O752 2.223 . S
Cd753 O756 2.297 1_655 S
Cd753 O757 2.439 1_655 S
Cd753 O763 2.240 . S
Cd754 O755 2.240 . S
Cd754 O762 2.223 1_455 S
Cd754 O764 2.297 . S
Cd754 O765 2.439 . S
O755 Cd754 2.240 . S
O755 C760 1.279 1_455 S
O756 Cd753 2.297 1_455 S
O756 C758 1.247 . S
O757 Cd753 2.439 1_455 S
O757 C758 1.208 . S
C758 O756 1.247 . S
C758 O757 1.208 . S
C759 O764 1.247 . S
C759 O765 1.208 . S
C760 O752 1.315 . S
C760 O755 1.279 1_655 S
C761 O762 1.315 . S
C761 O763 1.279 . S
O762 Cd754 2.223 1_655 S
O762 C761 1.315 . S
O763 Cd753 2.240 . S
O763 C761 1.279 . S
O764 Cd754 2.297 . S
O764 C759 1.247 . S
O765 Cd754 2.439 . S
O765 C759 1.208 . S
O766 Cd767 2.223 . S
O766 C774 1.315 . S
Cd767 O766 2.223 . S
Cd767 O770 2.297 . S
Cd767 O771 2.439 . S
Cd767 O777 2.240 . S
Cd768 O769 2.240 . S
Cd768 O776 2.223 . S
Cd768 O778 2.297 . S
Cd768 O779 2.439 . S
O769 Cd768 2.240 . S
O769 C774 1.279 . S
O770 Cd767 2.297 . S
O770 C772 1.247 . S
O771 Cd767 2.439 . S
O771 C772 1.208 . S
C772 O770 1.247 . S
C772 O771 1.208 . S
C773 O778 1.247 . S
C773 O779 1.208 . S
C774 O766 1.315 . S
C774 O769 1.279 . S
C775 O776 1.315 . S
C775 O777 1.279 . S
O776 Cd768 2.223 . S
O776 C775 1.315 . S
O777 Cd767 2.240 . S
O777 C775 1.279 . S
O778 Cd768 2.297 . S
O778 C773 1.247 . S
O779 Cd768 2.439 . S
O779 C773 1.208 . S
O780 Cd781 2.223 1_655 S
O780 C788 1.315 . S
Cd781 O780 2.223 1_455 S
Cd781 O784 2.297 . S
Cd781 O785 2.439 . S
Cd781 O791 2.240 . S
Cd782 O783 2.240 . S
Cd782 O790 2.223 . S
Cd782 O792 2.297 1_655 S
Cd782 O793 2.439 1_655 S
O783 Cd782 2.240 . S
O783 C788 1.279 . S
O784 Cd781 2.297 . S
O784 C786 1.247 . S
O785 Cd781 2.439 . S
O785 C786 1.208 . S
C786 O784 1.247 . S
C786 O785 1.208 . S
C787 O792 1.247 . S
C787 O793 1.208 . S
C788 O780 1.315 . S
C788 O783 1.279 . S
C789 O790 1.315 . S
C789 O791 1.279 1_655 S
O790 Cd782 2.223 . S
O790 C789 1.315 . S
O791 Cd781 2.240 . S
O791 C789 1.279 1_455 S
O792 Cd782 2.297 1_455 S
O792 C787 1.247 . S
O793 Cd782 2.439 1_455 S
O793 C787 1.208 . S
O794 Cd795 2.223 . S
O794 C802 1.315 . S
Cd795 O794 2.223 . S
Cd795 O798 2.297 . S
Cd795 O799 2.439 . S
Cd795 O805 2.240 . S
Cd796 O797 2.240 . S
Cd796 O804 2.223 . S
Cd796 O806 2.297 . S
Cd796 O807 2.439 . S
O797 Cd796 2.240 . S
O797 C802 1.279 . S
O798 Cd795 2.297 . S
O798 C800 1.247 . S
O799 Cd795 2.439 . S
O799 C800 1.208 . S
C800 O798 1.247 . S
C800 O799 1.208 . S
C801 O806 1.247 . S
C801 O807 1.208 . S
C802 O794 1.315 . S
C802 O797 1.279 . S
C803 O804 1.315 . S
C803 O805 1.279 . S
O804 Cd796 2.223 . S
O804 C803 1.315 . S
O805 Cd795 2.240 . S
O805 C803 1.279 . S
O806 Cd796 2.297 . S
O806 C801 1.247 . S
O807 Cd796 2.439 . S
O807 C801 1.208 . S
H808 C826 0.951 . S
H809 C828 0.951 . S
H810 C830 0.950 . S
H811 C831 0.950 . S
H812 C833 0.950 . S
H813 C836 0.950 . S
H814 C837 0.950 . S
H815 C839 0.950 . S
H816 C840 0.950 . S
H817 C841 0.951 . S
H818 C843 0.951 . S
H819 C845 0.950 . S
H820 C846 0.947 1_554 S
H821 C848 0.950 . S
H822 C851 0.950 . S
H823 C852 0.950 . S
H824 C854 0.968 . S
H825 C855 0.950 . S
C826 H808 0.951 . S
C826 C827 1.366 . S
C826 C828 1.388 . S
C827 C826 1.366 . S
C827 C831 1.385 . S
C828 H809 0.951 . S
C828 C826 1.388 . S
C828 C829 1.366 . S
C829 C828 1.366 . S
C829 C830 1.414 . S
C829 C832 1.499 . S
C830 H810 0.950 . S
C830 C829 1.414 . S
C830 C831 1.374 . S
C831 H811 0.950 . S
C831 C827 1.385 . S
C831 C830 1.374 . S
C832 C829 1.499 . S
C832 C833 1.373 . S
C832 C834 1.389 . S
C833 H812 0.950 . S
C833 C832 1.373 . S
C833 C849 1.377 . S
C834 C832 1.389 . S
C834 C835 1.524 . S
C834 C848 1.377 . S
C835 C834 1.524 . S
C835 C836 1.397 . S
C835 C840 1.363 . S
C836 H813 0.950 . S
C836 C835 1.397 . S
C836 C837 1.334 . S
C837 H814 0.950 . S
C837 C836 1.334 . S
C837 C838 1.287 . S
C838 C837 1.287 . S
C838 C839 1.524 . S
C838 H857 0.913 . S
C839 H815 0.950 . S
C839 C838 1.524 . S
C839 C840 1.415 . S
C840 H816 0.950 . S
C840 C835 1.363 . S
C840 C839 1.415 . S
C841 H817 0.951 . S
C841 C842 1.366 . S
C841 C843 1.388 1_554 S
C842 C841 1.366 . S
C842 C846 1.385 1_554 S
C843 H818 0.951 . S
C843 C841 1.388 1_556 S
C843 C844 1.366 . S
C844 C843 1.366 . S
C844 C845 1.414 . S
C844 C847 1.499 . S
C845 H819 0.950 . S
C845 C844 1.414 . S
C845 C846 1.374 . S
C846 H820 0.947 1_556 S
C846 C842 1.385 1_556 S
C846 C845 1.374 . S
C847 C844 1.499 . S
C847 C848 1.373 . S
C847 C849 1.389 . S
C848 H821 0.950 . S
C848 C834 1.377 . S
C848 C847 1.373 . S
C849 C833 1.377 . S
C849 C847 1.389 . S
C849 C850 1.524 . S
C850 C849 1.524 . S
C850 C851 1.397 . S
C850 C855 1.363 . S
C851 H822 0.950 . S
C851 C850 1.397 . S
C851 C852 1.334 1_556 S
C852 H823 0.950 . S
C852 C851 1.334 1_554 S
C852 C853 1.287 . S
C853 C852 1.287 . S
C853 C854 1.554 . S
C853 H856 0.999 . S
C854 H824 0.968 . S
C854 C853 1.554 . S
C854 C855 1.366 1_554 S
C855 H825 0.950 . S
C855 C850 1.363 . S
C855 C854 1.366 1_556 S
H856 C853 0.999 . S
H857 C838 0.913 . S
H858 C876 0.951 . S
H859 C878 0.951 . S
H860 C880 0.950 . S
H861 C881 0.950 . S
H862 C883 0.950 . S
H863 C886 0.950 . S
H864 C887 0.950 . S
H865 C889 0.950 . S
H866 C890 0.950 . S
H867 C891 0.951 . S
H868 C893 0.951 . S
H869 C895 0.950 . S
H870 C896 0.950 . S
H871 C898 0.950 . S
H872 C901 0.950 . S
H873 C902 0.950 . S
H874 C904 0.950 . S
H875 C905 0.950 . S
C876 H858 0.951 . S
C876 C877 1.366 . S
C876 C878 1.388 1_655 S
C877 C876 1.366 . S
C877 C881 1.385 . S
C878 H859 0.951 . S
C878 C876 1.388 1_455 S
C878 C879 1.366 . S
C879 C878 1.366 . S
C879 C880 1.414 1_455 S
C879 C882 1.499 . S
C880 H860 0.950 . S
C880 C879 1.414 1_655 S
C880 C881 1.374 . S
C881 H861 0.950 . S
C881 C877 1.385 . S
C881 C880 1.374 . S
C882 C879 1.499 . S
C882 C883 1.373 . S
C882 C884 1.389 . S
C883 H862 0.950 . S
C883 C882 1.373 . S
C883 C899 1.377 . S
C884 C882 1.389 . S
C884 C885 1.524 . S
C884 C898 1.377 . S
C885 C884 1.524 . S
C885 C886 1.397 . S
C885 C890 1.363 . S
C886 H863 0.950 . S
C886 C885 1.397 . S
C886 C887 1.334 . S
C887 H864 0.950 . S
C887 C886 1.334 . S
C887 C888 1.287 . S
C888 C887 1.287 . S
C888 C889 1.524 . S
C888 H907 0.913 . S
C889 H865 0.950 . S
C889 C888 1.524 . S
C889 C890 1.415 . S
C890 H866 0.950 . S
C890 C885 1.363 . S
C890 C889 1.415 . S
C891 H867 0.951 . S
C891 C892 1.366 . S
C891 C893 1.388 . S
C892 C891 1.366 . S
C892 C896 1.385 . S
C893 H868 0.951 . S
C893 C891 1.388 . S
C893 C894 1.366 . S
C894 C893 1.366 . S
C894 C895 1.414 . S
C894 C897 1.499 . S
C895 H869 0.950 . S
C895 C894 1.414 . S
C895 C896 1.374 . S
C896 H870 0.950 . S
C896 C892 1.385 . S
C896 C895 1.374 . S
C897 C894 1.499 . S
C897 C898 1.373 . S
C897 C899 1.389 . S
C898 H871 0.950 . S
C898 C884 1.377 . S
C898 C897 1.373 . S
C899 C883 1.377 . S
C899 C897 1.389 . S
C899 C900 1.524 . S
C900 C899 1.524 . S
C900 C901 1.397 . S
C900 C905 1.363 . S
C901 H872 0.950 . S
C901 C900 1.397 . S
C901 C902 1.334 . S
C902 H873 0.950 . S
C902 C901 1.334 . S
C902 C903 1.287 . S
C903 C902 1.287 . S
C903 C904 1.524 . S
C903 H906 0.999 . S
C904 H874 0.950 . S
C904 C903 1.524 . S
C904 C905 1.415 . S
C905 H875 0.950 . S
C905 C900 1.363 . S
C905 C904 1.415 . S
H906 C903 0.999 . S
H907 C888 0.913 . S
H908 C926 0.951 . S
H909 C928 0.951 . S
H910 C930 0.950 . S
H911 C931 0.950 . S
H912 C933 0.950 . S
H913 C936 0.950 . S
H914 C937 0.950 . S
H915 C939 0.950 . S
H916 C940 0.950 . S
H917 C941 0.951 . S
H918 C943 0.951 . S
H919 C945 0.950 . S
H920 C946 0.950 . S
H921 C948 0.950 . S
H922 C951 0.950 . S
H923 C952 0.950 . S
H924 C954 0.950 . S
H925 C955 0.950 . S
C926 H908 0.951 . S
C926 C927 1.366 . S
C926 C928 1.388 . S
C927 C926 1.366 . S
C927 C931 1.385 . S
C928 H909 0.951 . S
C928 C926 1.388 . S
C928 C929 1.366 . S
C929 C928 1.366 . S
C929 C930 1.414 . S
C929 C932 1.499 . S
C930 H910 0.950 . S
C930 C929 1.414 . S
C930 C931 1.374 . S
C931 H911 0.950 . S
C931 C927 1.385 . S
C931 C930 1.374 . S
C932 C929 1.499 . S
C932 C933 1.373 . S
C932 C934 1.389 . S
C933 H912 0.950 . S
C933 C932 1.373 . S
C933 C949 1.377 . S
C934 C932 1.389 . S
C934 C935 1.524 . S
C934 C948 1.377 . S
C935 C934 1.524 . S
C935 C936 1.397 . S
C935 C940 1.363 . S
C936 H913 0.950 . S
C936 C935 1.397 . S
C936 C937 1.334 . S
C937 H914 0.950 . S
C937 C936 1.334 . S
C937 C938 1.287 . S
C938 C937 1.287 . S
C938 C939 1.524 . S
C938 H957 0.913 . S
C939 H915 0.950 . S
C939 C938 1.524 . S
C939 C940 1.415 . S
C940 H916 0.950 . S
C940 C935 1.363 . S
C940 C939 1.415 . S
C941 H917 0.951 . S
C941 C942 1.366 . S
C941 C943 1.388 . S
C942 C941 1.366 . S
C942 C946 1.385 . S
C943 H918 0.951 . S
C943 C941 1.388 . S
C943 C944 1.366 . S
C944 C943 1.366 . S
C944 C945 1.414 . S
C944 C947 1.499 . S
C945 H919 0.950 . S
C945 C944 1.414 . S
C945 C946 1.374 . S
C946 H920 0.950 . S
C946 C942 1.385 . S
C946 C945 1.374 . S
C947 C944 1.499 . S
C947 C948 1.373 . S
C947 C949 1.389 . S
C948 H921 0.950 . S
C948 C934 1.377 . S
C948 C947 1.373 . S
C949 C933 1.377 . S
C949 C947 1.389 . S
C949 C950 1.524 . S
C950 C949 1.524 . S
C950 C951 1.397 . S
C950 C955 1.363 . S
C951 H922 0.950 . S
C951 C950 1.397 . S
C951 C952 1.334 . S
C952 H923 0.950 . S
C952 C951 1.334 . S
C952 C953 1.287 . S
C953 C952 1.287 . S
C953 C954 1.524 . S
C953 H956 0.999 . S
C954 H924 0.950 . S
C954 C953 1.524 . S
C954 C955 1.415 . S
C955 H925 0.950 . S
C955 C950 1.363 . S
C955 C954 1.415 . S
H956 C953 0.999 . S
H957 C938 0.913 . S
H958 C976 0.951 . S
H959 C978 0.951 . S
H960 C980 0.950 . S
H961 C981 0.950 . S
H962 C983 0.950 . S
H963 C986 0.950 . S
H964 C987 0.950 . S
H965 C989 0.950 . S
H966 C990 0.950 . S
H967 C991 0.951 . S
H968 C993 0.951 . S
H969 C995 0.950 . S
H970 C996 0.950 . S
H971 C998 0.950 . S
H972 C1001 0.950 . S
H973 C1002 0.950 . S
H974 C1004 0.950 . S
H975 C1005 0.950 . S
C976 H958 0.951 . S
C976 C977 1.366 . S
C976 C978 1.388 1_455 S
C977 C976 1.366 . S
C977 C981 1.385 . S
C978 H959 0.951 . S
C978 C976 1.388 1_655 S
C978 C979 1.366 . S
C979 C978 1.366 . S
C979 C980 1.414 1_655 S
C979 C982 1.499 . S
C980 H960 0.950 . S
C980 C979 1.414 1_455 S
C980 C981 1.374 . S
C981 H961 0.950 . S
C981 C977 1.385 . S
C981 C980 1.374 . S
C982 C979 1.499 . S
C982 C983 1.373 1_565 S
C982 C984 1.389 . S
C983 H962 0.950 . S
C983 C982 1.373 1_545 S
C983 C999 1.377 . S
C984 C982 1.389 . S
C984 C985 1.524 . S
C984 C998 1.377 . S
C985 C984 1.524 . S
C985 C986 1.397 . S
C985 C990 1.363 . S
C986 H963 0.950 . S
C986 C985 1.397 . S
C986 C987 1.334 . S
C987 H964 0.950 . S
C987 C986 1.334 . S
C987 C988 1.287 . S
C988 C987 1.287 . S
C988 C989 1.524 . S
C988 H1007 0.913 . S
C989 H965 0.950 . S
C989 C988 1.524 . S
C989 C990 1.415 . S
C990 H966 0.950 . S
C990 C985 1.363 . S
C990 C989 1.415 . S
C991 H967 0.951 . S
C991 C992 1.366 . S
C991 C993 1.388 . S
C992 C991 1.366 . S
C992 C996 1.385 . S
C993 H968 0.951 . S
C993 C991 1.388 . S
C993 C994 1.366 . S
C994 C993 1.366 . S
C994 C995 1.414 . S
C994 C997 1.499 . S
C995 H969 0.950 . S
C995 C994 1.414 . S
C995 C996 1.374 . S
C996 H970 0.950 . S
C996 C992 1.385 . S
C996 C995 1.374 . S
C997 C994 1.499 . S
C997 C998 1.373 1_545 S
C997 C999 1.389 . S
C998 H971 0.950 . S
C998 C984 1.377 . S
C998 C997 1.373 1_565 S
C999 C983 1.377 . S
C999 C997 1.389 . S
C999 C1000 1.524 . S
C1000 C999 1.524 . S
C1000 C1001 1.397 . S
C1000 C1005 1.363 . S
C1001 H972 0.950 . S
C1001 C1000 1.397 . S
C1001 C1002 1.334 . S
C1002 H973 0.950 . S
C1002 C1001 1.334 . S
C1002 C1003 1.287 . S
C1003 C1002 1.287 . S
C1003 C1004 1.524 . S
C1003 H1006 0.999 . S
C1004 H974 0.950 . S
C1004 C1003 1.524 . S
C1004 C1005 1.415 . S
C1005 H975 0.950 . S
C1005 C1000 1.363 . S
C1005 C1004 1.415 . S
H1006 C1003 0.999 . S
H1007 C988 0.913 . S
H1008 C1026 0.951 . S
H1009 C1028 0.951 . S
H1010 C1030 0.950 . S
H1011 C1031 0.950 . S
H1012 C1033 0.950 . S
H1013 C1036 0.950 . S
H1014 C1037 0.950 . S
H1015 C1039 0.950 . S
H1016 C1040 0.950 . S
H1017 C1041 0.951 . S
H1018 C1043 0.951 . S
H1019 C1045 0.950 . S
H1020 C1046 0.950 . S
H1021 C1048 0.950 . S
H1022 C1051 0.950 . S
H1023 C1052 0.950 . S
H1024 C1054 0.950 . S
H1025 C1055 0.950 . S
C1026 H1008 0.951 . S
C1026 C1027 1.366 . S
C1026 C1028 1.388 . S
C1027 C1026 1.366 . S
C1027 C1031 1.385 . S
C1028 H1009 0.951 . S
C1028 C1026 1.388 . S
C1028 C1029 1.366 . S
C1029 C1028 1.366 . S
C1029 C1030 1.414 . S
C1029 C1032 1.499 . S
C1030 H1010 0.950 . S
C1030 C1029 1.414 . S
C1030 C1031 1.374 . S
C1031 H1011 0.950 . S
C1031 C1027 1.385 . S
C1031 C1030 1.374 . S
C1032 C1029 1.499 . S
C1032 C1033 1.373 . S
C1032 C1034 1.389 . S
C1033 H1012 0.950 . S
C1033 C1032 1.373 . S
C1033 C1049 1.377 . S
C1034 C1032 1.389 . S
C1034 C1035 1.524 . S
C1034 C1048 1.377 . S
C1035 C1034 1.524 . S
C1035 C1036 1.397 . S
C1035 C1040 1.363 . S
C1036 H1013 0.950 . S
C1036 C1035 1.397 . S
C1036 C1037 1.334 . S
C1037 H1014 0.950 . S
C1037 C1036 1.334 . S
C1037 C1038 1.287 . S
C1038 C1037 1.287 . S
C1038 C1039 1.524 . S
C1038 H1057 0.913 . S
C1039 H1015 0.950 . S
C1039 C1038 1.524 . S
C1039 C1040 1.415 . S
C1040 H1016 0.950 . S
C1040 C1035 1.363 . S
C1040 C1039 1.415 . S
C1041 H1017 0.951 . S
C1041 C1042 1.366 . S
C1041 C1043 1.388 . S
C1042 C1041 1.366 . S
C1042 C1046 1.385 . S
C1043 H1018 0.951 . S
C1043 C1041 1.388 . S
C1043 C1044 1.366 . S
C1044 C1043 1.366 . S
C1044 C1045 1.414 . S
C1044 C1047 1.499 . S
C1045 H1019 0.950 . S
C1045 C1044 1.414 . S
C1045 C1046 1.374 . S
C1046 H1020 0.950 . S
C1046 C1042 1.385 . S
C1046 C1045 1.374 . S
C1047 C1044 1.499 . S
C1047 C1048 1.373 . S
C1047 C1049 1.389 . S
C1048 H1021 0.950 . S
C1048 C1034 1.377 . S
C1048 C1047 1.373 . S
C1049 C1033 1.377 . S
C1049 C1047 1.389 . S
C1049 C1050 1.524 . S
C1050 C1049 1.524 . S
C1050 C1051 1.397 . S
C1050 C1055 1.363 . S
C1051 H1022 0.950 . S
C1051 C1050 1.397 . S
C1051 C1052 1.334 . S
C1052 H1023 0.950 . S
C1052 C1051 1.334 . S
C1052 C1053 1.287 . S
C1053 C1052 1.287 . S
C1053 C1054 1.524 . S
C1053 H1056 0.999 . S
C1054 H1024 0.950 . S
C1054 C1053 1.524 . S
C1054 C1055 1.415 . S
C1055 H1025 0.950 . S
C1055 C1050 1.363 . S
C1055 C1054 1.415 . S
H1056 C1053 0.999 . S
H1057 C1038 0.913 . S
H1058 C1076 0.951 . S
H1059 C1078 0.951 . S
H1060 C1080 0.950 . S
H1061 C1081 0.950 . S
H1062 C1083 0.950 . S
H1063 C1086 0.950 . S
H1064 C1087 0.950 . S
H1065 C1089 0.950 . S
H1066 C1090 0.950 . S
H1067 C1091 0.951 . S
H1068 C1093 0.951 . S
H1069 C1095 0.950 . S
H1070 C1096 0.950 . S
H1071 C1098 0.950 . S
H1072 C1101 0.950 . S
H1073 C1102 0.950 . S
H1074 C1104 0.950 . S
H1075 C1105 0.950 . S
C1076 H1058 0.951 . S
C1076 C1077 1.366 . S
C1076 C1078 1.388 . S
C1077 C1076 1.366 . S
C1077 C1081 1.385 . S
C1078 H1059 0.951 . S
C1078 C1076 1.388 . S
C1078 C1079 1.366 . S
C1079 C1078 1.366 . S
C1079 C1080 1.414 . S
C1079 C1082 1.499 . S
C1080 H1060 0.950 . S
C1080 C1079 1.414 . S
C1080 C1081 1.374 . S
C1081 H1061 0.950 . S
C1081 C1077 1.385 . S
C1081 C1080 1.374 . S
C1082 C1079 1.499 . S
C1082 C1083 1.373 . S
C1082 C1084 1.389 . S
C1083 H1062 0.950 . S
C1083 C1082 1.373 . S
C1083 C1099 1.377 . S
C1084 C1082 1.389 . S
C1084 C1085 1.524 . S
C1084 C1098 1.377 . S
C1085 C1084 1.524 . S
C1085 C1086 1.397 . S
C1085 C1090 1.363 . S
C1086 H1063 0.950 . S
C1086 C1085 1.397 . S
C1086 C1087 1.334 . S
C1087 H1064 0.950 . S
C1087 C1086 1.334 . S
C1087 C1088 1.287 . S
C1088 C1087 1.287 . S
C1088 C1089 1.524 . S
C1088 H1107 0.913 . S
C1089 H1065 0.950 . S
C1089 C1088 1.524 . S
C1089 C1090 1.415 . S
C1090 H1066 0.950 . S
C1090 C1085 1.363 . S
C1090 C1089 1.415 . S
C1091 H1067 0.951 . S
C1091 C1092 1.366 . S
C1091 C1093 1.388 . S
C1092 C1091 1.366 . S
C1092 C1096 1.385 . S
C1093 H1068 0.951 . S
C1093 C1091 1.388 . S
C1093 C1094 1.366 . S
C1094 C1093 1.366 . S
C1094 C1095 1.414 . S
C1094 C1097 1.499 . S
C1095 H1069 0.950 . S
C1095 C1094 1.414 . S
C1095 C1096 1.374 . S
C1096 H1070 0.950 . S
C1096 C1092 1.385 . S
C1096 C1095 1.374 . S
C1097 C1094 1.499 . S
C1097 C1098 1.373 . S
C1097 C1099 1.389 . S
C1098 H1071 0.950 . S
C1098 C1084 1.377 . S
C1098 C1097 1.373 . S
C1099 C1083 1.377 . S
C1099 C1097 1.389 . S
C1099 C1100 1.524 . S
C1100 C1099 1.524 . S
C1100 C1101 1.397 . S
C1100 C1105 1.363 . S
C1101 H1072 0.950 . S
C1101 C1100 1.397 . S
C1101 C1102 1.334 . S
C1102 H1073 0.950 . S
C1102 C1101 1.334 . S
C1102 C1103 1.287 . S
C1103 C1102 1.287 . S
C1103 C1104 1.524 . S
C1103 H1106 0.999 . S
C1104 H1074 0.950 . S
C1104 C1103 1.524 . S
C1104 C1105 1.415 . S
C1105 H1075 0.950 . S
C1105 C1100 1.363 . S
C1105 C1104 1.415 . S
H1106 C1103 0.999 . S
H1107 C1088 0.913 . S
H1108 C1126 0.951 . S
H1109 C1128 0.951 . S
H1110 C1130 0.950 . S
H1111 C1131 0.950 . S
H1112 C1133 0.950 . S
H1113 C1136 0.950 . S
H1114 C1137 0.950 . S
H1115 C1139 0.950 . S
H1116 C1140 0.950 . S
H1117 C1141 0.951 . S
H1118 C1143 0.951 . S
H1119 C1145 0.950 . S
H1120 C1146 0.950 . S
H1121 C1148 0.950 . S
H1122 C1151 0.950 . S
H1123 C1152 0.950 . S
H1124 C1154 0.950 . S
H1125 C1155 0.950 . S
C1126 H1108 0.951 . S
C1126 C1127 1.366 . S
C1126 C1128 1.388 . S
C1127 C1126 1.366 . S
C1127 C1131 1.385 . S
C1128 H1109 0.951 . S
C1128 C1126 1.388 . S
C1128 C1129 1.366 . S
C1129 C1128 1.366 . S
C1129 C1130 1.414 . S
C1129 C1132 1.499 . S
C1130 H1110 0.950 . S
C1130 C1129 1.414 . S
C1130 C1131 1.374 . S
C1131 H1111 0.950 . S
C1131 C1127 1.385 . S
C1131 C1130 1.374 . S
C1132 C1129 1.499 . S
C1132 C1133 1.373 . S
C1132 C1134 1.389 . S
C1133 H1112 0.950 . S
C1133 C1132 1.373 . S
C1133 C1149 1.377 . S
C1134 C1132 1.389 . S
C1134 C1135 1.524 . S
C1134 C1148 1.377 . S
C1135 C1134 1.524 . S
C1135 C1136 1.397 . S
C1135 C1140 1.363 . S
C1136 H1113 0.950 . S
C1136 C1135 1.397 . S
C1136 C1137 1.334 . S
C1137 H1114 0.950 . S
C1137 C1136 1.334 . S
C1137 C1138 1.287 . S
C1138 C1137 1.287 . S
C1138 C1139 1.524 . S
C1138 H1157 0.913 . S
C1139 H1115 0.950 . S
C1139 C1138 1.524 . S
C1139 C1140 1.415 . S
C1140 H1116 0.950 . S
C1140 C1135 1.363 . S
C1140 C1139 1.415 . S
C1141 H1117 0.951 . S
C1141 C1142 1.366 . S
C1141 C1143 1.388 . S
C1142 C1141 1.366 . S
C1142 C1146 1.385 . S
C1143 H1118 0.951 . S
C1143 C1141 1.388 . S
C1143 C1144 1.366 . S
C1144 C1143 1.366 . S
C1144 C1145 1.414 . S
C1144 C1147 1.499 . S
C1145 H1119 0.950 . S
C1145 C1144 1.414 . S
C1145 C1146 1.374 . S
C1146 H1120 0.950 . S
C1146 C1142 1.385 . S
C1146 C1145 1.374 . S
C1147 C1144 1.499 . S
C1147 C1148 1.373 . S
C1147 C1149 1.389 . S
C1148 H1121 0.950 . S
C1148 C1134 1.377 . S
C1148 C1147 1.373 . S
C1149 C1133 1.377 . S
C1149 C1147 1.389 . S
C1149 C1150 1.524 . S
C1150 C1149 1.524 . S
C1150 C1151 1.397 . S
C1150 C1155 1.363 . S
C1151 H1122 0.950 . S
C1151 C1150 1.397 . S
C1151 C1152 1.334 . S
C1152 H1123 0.950 . S
C1152 C1151 1.334 . S
C1152 C1153 1.287 . S
C1153 C1152 1.287 . S
C1153 C1154 1.524 . S
C1153 H1156 0.999 . S
C1154 H1124 0.950 . S
C1154 C1153 1.524 . S
C1154 C1155 1.415 . S
C1155 H1125 0.950 . S
C1155 C1150 1.363 . S
C1155 C1154 1.415 . S
H1156 C1153 0.999 . S
H1157 C1138 0.913 . S
H1158 C1176 0.951 . S
H1159 C1178 0.951 . S
H1160 C1180 0.950 . S
H1161 C1181 0.950 . S
H1162 C1183 0.950 . S
H1163 C1186 0.950 . S
H1164 C1187 0.950 . S
H1165 C1189 0.950 . S
H1166 C1190 0.950 . S
H1167 C1191 0.951 . S
H1168 C1193 0.951 . S
H1169 C1195 0.950 . S
H1170 C1196 0.950 . S
H1171 C1198 0.950 . S
H1172 C1201 0.950 . S
H1173 C1202 0.950 . S
H1174 C1204 0.950 . S
H1175 C1205 0.950 . S
C1176 H1158 0.951 . S
C1176 C1177 1.366 . S
C1176 C1178 1.388 . S
C1177 C1176 1.366 . S
C1177 C1181 1.385 . S
C1178 H1159 0.951 . S
C1178 C1176 1.388 . S
C1178 C1179 1.366 . S
C1179 C1178 1.366 . S
C1179 C1180 1.414 . S
C1179 C1182 1.499 . S
C1180 H1160 0.950 . S
C1180 C1179 1.414 . S
C1180 C1181 1.374 . S
C1181 H1161 0.950 . S
C1181 C1177 1.385 . S
C1181 C1180 1.374 . S
C1182 C1179 1.499 . S
C1182 C1183 1.373 . S
C1182 C1184 1.389 . S
C1183 H1162 0.950 . S
C1183 C1182 1.373 . S
C1183 C1199 1.377 . S
C1184 C1182 1.389 . S
C1184 C1185 1.524 . S
C1184 C1198 1.377 . S
C1185 C1184 1.524 . S
C1185 C1186 1.397 . S
C1185 C1190 1.363 . S
C1186 H1163 0.950 . S
C1186 C1185 1.397 . S
C1186 C1187 1.334 . S
C1187 H1164 0.950 . S
C1187 C1186 1.334 . S
C1187 C1188 1.287 . S
C1188 C1187 1.287 . S
C1188 C1189 1.524 . S
C1188 H1207 0.913 . S
C1189 H1165 0.950 . S
C1189 C1188 1.524 . S
C1189 C1190 1.415 . S
C1190 H1166 0.950 . S
C1190 C1185 1.363 . S
C1190 C1189 1.415 . S
C1191 H1167 0.951 . S
C1191 C1192 1.366 . S
C1191 C1193 1.388 . S
C1192 C1191 1.366 . S
C1192 C1196 1.385 . S
C1193 H1168 0.951 . S
C1193 C1191 1.388 . S
C1193 C1194 1.366 . S
C1194 C1193 1.366 . S
C1194 C1195 1.414 . S
C1194 C1197 1.499 . S
C1195 H1169 0.950 . S
C1195 C1194 1.414 . S
C1195 C1196 1.374 . S
C1196 H1170 0.950 . S
C1196 C1192 1.385 . S
C1196 C1195 1.374 . S
C1197 C1194 1.499 . S
C1197 C1198 1.373 . S
C1197 C1199 1.389 . S
C1198 H1171 0.950 . S
C1198 C1184 1.377 . S
C1198 C1197 1.373 . S
C1199 C1183 1.377 . S
C1199 C1197 1.389 . S
C1199 C1200 1.524 . S
C1200 C1199 1.524 . S
C1200 C1201 1.397 . S
C1200 C1205 1.363 . S
C1201 H1172 0.950 . S
C1201 C1200 1.397 . S
C1201 C1202 1.334 . S
C1202 H1173 0.950 . S
C1202 C1201 1.334 . S
C1202 C1203 1.287 . S
C1203 C1202 1.287 . S
C1203 C1204 1.524 . S
C1203 H1206 0.999 . S
C1204 H1174 0.950 . S
C1204 C1203 1.524 . S
C1204 C1205 1.415 . S
C1205 H1175 0.950 . S
C1205 C1200 1.363 . S
C1205 C1204 1.415 . S
H1206 C1203 0.999 . S
H1207 C1188 0.913 . S
H1208 C1226 0.951 . S
H1209 C1228 0.951 . S
H1210 C1230 0.950 . S
H1211 C1231 0.950 . S
H1212 C1233 0.950 . S
H1213 C1236 0.950 . S
H1214 C1237 0.950 . S
H1215 C1239 0.950 . S
H1216 C1240 0.950 . S
H1217 C1241 0.951 . S
H1218 C1243 0.951 . S
H1219 C1245 0.950 . S
H1220 C1246 0.950 . S
H1221 C1248 0.950 . S
H1222 C1251 0.950 . S
H1223 C1252 0.950 . S
H1224 C1254 0.950 . S
H1225 C1255 0.950 . S
C1226 H1208 0.951 . S
C1226 C1227 1.366 . S
C1226 C1228 1.388 . S
C1227 C1226 1.366 . S
C1227 C1231 1.385 . S
C1228 H1209 0.951 . S
C1228 C1226 1.388 . S
C1228 C1229 1.366 . S
C1229 C1228 1.366 . S
C1229 C1230 1.414 . S
C1229 C1232 1.499 . S
C1230 H1210 0.950 . S
C1230 C1229 1.414 . S
C1230 C1231 1.374 . S
C1231 H1211 0.950 . S
C1231 C1227 1.385 . S
C1231 C1230 1.374 . S
C1232 C1229 1.499 . S
C1232 C1233 1.373 . S
C1232 C1234 1.389 . S
C1233 H1212 0.950 . S
C1233 C1232 1.373 . S
C1233 C1249 1.377 . S
C1234 C1232 1.389 . S
C1234 C1235 1.524 . S
C1234 C1248 1.377 . S
C1235 C1234 1.524 . S
C1235 C1236 1.397 . S
C1235 C1240 1.363 . S
C1236 H1213 0.950 . S
C1236 C1235 1.397 . S
C1236 C1237 1.334 . S
C1237 H1214 0.950 . S
C1237 C1236 1.334 . S
C1237 C1238 1.287 . S
C1238 C1237 1.287 . S
C1238 C1239 1.524 . S
C1238 H1257 0.913 . S
C1239 H1215 0.950 . S
C1239 C1238 1.524 . S
C1239 C1240 1.415 . S
C1240 H1216 0.950 . S
C1240 C1235 1.363 . S
C1240 C1239 1.415 . S
C1241 H1217 0.951 . S
C1241 C1242 1.366 . S
C1241 C1243 1.388 . S
C1242 C1241 1.366 . S
C1242 C1246 1.385 . S
C1243 H1218 0.951 . S
C1243 C1241 1.388 . S
C1243 C1244 1.366 . S
C1244 C1243 1.366 . S
C1244 C1245 1.414 . S
C1244 C1247 1.499 . S
C1245 H1219 0.950 . S
C1245 C1244 1.414 . S
C1245 C1246 1.374 . S
C1246 H1220 0.950 . S
C1246 C1242 1.385 . S
C1246 C1245 1.374 . S
C1247 C1244 1.499 . S
C1247 C1248 1.373 . S
C1247 C1249 1.389 . S
C1248 H1221 0.950 . S
C1248 C1234 1.377 . S
C1248 C1247 1.373 . S
C1249 C1233 1.377 . S
C1249 C1247 1.389 . S
C1249 C1250 1.524 . S
C1250 C1249 1.524 . S
C1250 C1251 1.397 . S
C1250 C1255 1.363 . S
C1251 H1222 0.950 . S
C1251 C1250 1.397 . S
C1251 C1252 1.334 . S
C1252 H1223 0.950 . S
C1252 C1251 1.334 . S
C1252 C1253 1.287 . S
C1253 C1252 1.287 . S
C1253 C1254 1.524 . S
C1253 H1256 0.999 . S
C1254 H1224 0.950 . S
C1254 C1253 1.524 . S
C1254 C1255 1.415 . S
C1255 H1225 0.950 . S
C1255 C1250 1.363 . S
C1255 C1254 1.415 . S
H1256 C1253 0.999 . S
H1257 C1238 0.913 . S
H1258 C1276 0.951 . S
H1259 C1278 0.951 . S
H1260 C1280 0.950 . S
H1261 C1281 0.950 . S
H1262 C1283 0.950 . S
H1263 C1286 0.950 . S
H1264 C1287 0.950 . S
H1265 C1289 0.950 . S
H1266 C1290 0.950 . S
H1267 C1291 0.951 . S
H1268 C1293 0.951 . S
H1269 C1295 0.950 . S
H1270 C1296 0.950 . S
H1271 C1298 0.950 . S
H1272 C1301 0.950 . S
H1273 C1302 0.950 . S
H1274 C1304 0.950 . S
H1275 C1305 0.950 . S
C1276 H1258 0.951 . S
C1276 C1277 1.366 . S
C1276 C1278 1.388 . S
C1277 C1276 1.366 . S
C1277 C1281 1.385 . S
C1278 H1259 0.951 . S
C1278 C1276 1.388 . S
C1278 C1279 1.366 . S
C1279 C1278 1.366 . S
C1279 C1280 1.414 . S
C1279 C1282 1.499 . S
C1280 H1260 0.950 . S
C1280 C1279 1.414 . S
C1280 C1281 1.374 . S
C1281 H1261 0.950 . S
C1281 C1277 1.385 . S
C1281 C1280 1.374 . S
C1282 C1279 1.499 . S
C1282 C1283 1.373 . S
C1282 C1284 1.389 . S
C1283 H1262 0.950 . S
C1283 C1282 1.373 . S
C1283 C1299 1.377 . S
C1284 C1282 1.389 . S
C1284 C1285 1.524 . S
C1284 C1298 1.377 . S
C1285 C1284 1.524 . S
C1285 C1286 1.397 . S
C1285 C1290 1.363 . S
C1286 H1263 0.950 . S
C1286 C1285 1.397 . S
C1286 C1287 1.334 . S
C1287 H1264 0.950 . S
C1287 C1286 1.334 . S
C1287 C1288 1.287 . S
C1288 C1287 1.287 . S
C1288 C1289 1.524 . S
C1288 H1307 0.913 . S
C1289 H1265 0.950 . S
C1289 C1288 1.524 . S
C1289 C1290 1.415 . S
C1290 H1266 0.950 . S
C1290 C1285 1.363 . S
C1290 C1289 1.415 . S
C1291 H1267 0.951 . S
C1291 C1292 1.366 . S
C1291 C1293 1.388 . S
C1292 C1291 1.366 . S
C1292 C1296 1.385 . S
C1293 H1268 0.951 . S
C1293 C1291 1.388 . S
C1293 C1294 1.366 . S
C1294 C1293 1.366 . S
C1294 C1295 1.414 . S
C1294 C1297 1.499 . S
C1295 H1269 0.950 . S
C1295 C1294 1.414 . S
C1295 C1296 1.374 . S
C1296 H1270 0.950 . S
C1296 C1292 1.385 . S
C1296 C1295 1.374 . S
C1297 C1294 1.499 . S
C1297 C1298 1.373 . S
C1297 C1299 1.389 . S
C1298 H1271 0.950 . S
C1298 C1284 1.377 . S
C1298 C1297 1.373 . S
C1299 C1283 1.377 . S
C1299 C1297 1.389 . S
C1299 C1300 1.524 . S
C1300 C1299 1.524 . S
C1300 C1301 1.397 . S
C1300 C1305 1.363 . S
C1301 H1272 0.950 . S
C1301 C1300 1.397 . S
C1301 C1302 1.334 . S
C1302 H1273 0.950 . S
C1302 C1301 1.334 . S
C1302 C1303 1.287 . S
C1303 C1302 1.287 . S
C1303 C1304 1.524 . S
C1303 H1306 0.999 . S
C1304 H1274 0.950 . S
C1304 C1303 1.524 . S
C1304 C1305 1.415 . S
C1305 H1275 0.950 . S
C1305 C1300 1.363 . S
C1305 C1304 1.415 . S
H1306 C1303 0.999 . S
H1307 C1288 0.913 . S
H1308 C1326 0.951 . S
H1309 C1328 0.951 . S
H1310 C1330 0.950 . S
H1311 C1331 0.950 . S
H1312 C1333 0.950 . S
H1313 C1336 0.950 . S
H1314 C1337 0.950 . S
H1315 C1339 0.950 . S
H1316 C1340 0.950 . S
H1317 C1341 0.951 . S
H1318 C1343 0.951 . S
H1319 C1345 0.950 . S
H1320 C1346 0.950 . S
H1321 C1348 0.950 . S
H1322 C1351 0.950 . S
H1323 C1352 0.950 . S
H1324 C1354 0.950 . S
H1325 C1355 0.950 . S
C1326 H1308 0.951 . S
C1326 C1327 1.366 . S
C1326 C1328 1.388 . S
C1327 C1326 1.366 . S
C1327 C1331 1.385 . S
C1328 H1309 0.951 . S
C1328 C1326 1.388 . S
C1328 C1329 1.366 . S
C1329 C1328 1.366 . S
C1329 C1330 1.414 . S
C1329 C1332 1.499 . S
C1330 H1310 0.950 . S
C1330 C1329 1.414 . S
C1330 C1331 1.374 . S
C1331 H1311 0.950 . S
C1331 C1327 1.385 . S
C1331 C1330 1.374 . S
C1332 C1329 1.499 . S
C1332 C1333 1.373 . S
C1332 C1334 1.389 . S
C1333 H1312 0.950 . S
C1333 C1332 1.373 . S
C1333 C1349 1.377 . S
C1334 C1332 1.389 . S
C1334 C1335 1.524 . S
C1334 C1348 1.377 . S
C1335 C1334 1.524 . S
C1335 C1336 1.397 . S
C1335 C1340 1.363 . S
C1336 H1313 0.950 . S
C1336 C1335 1.397 . S
C1336 C1337 1.334 . S
C1337 H1314 0.950 . S
C1337 C1336 1.334 . S
C1337 C1338 1.287 . S
C1338 C1337 1.287 . S
C1338 C1339 1.524 . S
C1338 H1357 0.913 . S
C1339 H1315 0.950 . S
C1339 C1338 1.524 . S
C1339 C1340 1.415 . S
C1340 H1316 0.950 . S
C1340 C1335 1.363 . S
C1340 C1339 1.415 . S
C1341 H1317 0.951 . S
C1341 C1342 1.366 . S
C1341 C1343 1.388 . S
C1342 C1341 1.366 . S
C1342 C1346 1.385 . S
C1343 H1318 0.951 . S
C1343 C1341 1.388 . S
C1343 C1344 1.366 . S
C1344 C1343 1.366 . S
C1344 C1345 1.414 . S
C1344 C1347 1.499 . S
C1345 H1319 0.950 . S
C1345 C1344 1.414 . S
C1345 C1346 1.374 . S
C1346 H1320 0.950 . S
C1346 C1342 1.385 . S
C1346 C1345 1.374 . S
C1347 C1344 1.499 . S
C1347 C1348 1.373 . S
C1347 C1349 1.389 . S
C1348 H1321 0.950 . S
C1348 C1334 1.377 . S
C1348 C1347 1.373 . S
C1349 C1333 1.377 . S
C1349 C1347 1.389 . S
C1349 C1350 1.524 . S
C1350 C1349 1.524 . S
C1350 C1351 1.397 . S
C1350 C1355 1.363 . S
C1351 H1322 0.950 . S
C1351 C1350 1.397 . S
C1351 C1352 1.334 . S
C1352 H1323 0.950 . S
C1352 C1351 1.334 . S
C1352 C1353 1.287 . S
C1353 C1352 1.287 . S
C1353 C1354 1.524 . S
C1353 H1356 0.999 . S
C1354 H1324 0.950 . S
C1354 C1353 1.524 . S
C1354 C1355 1.415 . S
C1355 H1325 0.950 . S
C1355 C1350 1.363 . S
C1355 C1354 1.415 . S
H1356 C1353 0.999 . S
H1357 C1338 0.913 . S
H1358 C1376 0.951 . S
H1359 C1378 0.951 . S
H1360 C1380 0.950 . S
H1361 C1381 0.950 . S
H1362 C1383 0.950 . S
H1363 C1386 0.950 . S
H1364 C1387 0.950 . S
H1365 C1389 0.950 . S
H1366 C1390 0.950 . S
H1367 C1391 0.951 . S
H1368 C1393 0.951 . S
H1369 C1395 0.950 . S
H1370 C1396 0.950 . S
H1371 C1398 0.950 . S
H1372 C1401 0.950 . S
H1373 C1402 0.950 . S
H1374 C1404 0.950 . S
H1375 C1405 0.950 . S
C1376 H1358 0.951 . S
C1376 C1377 1.366 . S
C1376 C1378 1.388 . S
C1377 C1376 1.366 . S
C1377 C1381 1.385 . S
C1378 H1359 0.951 . S
C1378 C1376 1.388 . S
C1378 C1379 1.366 . S
C1379 C1378 1.366 . S
C1379 C1380 1.414 . S
C1379 C1382 1.499 . S
C1380 H1360 0.950 . S
C1380 C1379 1.414 . S
C1380 C1381 1.374 . S
C1381 H1361 0.950 . S
C1381 C1377 1.385 . S
C1381 C1380 1.374 . S
C1382 C1379 1.499 . S
C1382 C1383 1.373 . S
C1382 C1384 1.389 . S
C1383 H1362 0.950 . S
C1383 C1382 1.373 . S
C1383 C1399 1.377 . S
C1384 C1382 1.389 . S
C1384 C1385 1.524 . S
C1384 C1398 1.377 . S
C1385 C1384 1.524 . S
C1385 C1386 1.397 . S
C1385 C1390 1.363 . S
C1386 H1363 0.950 . S
C1386 C1385 1.397 . S
C1386 C1387 1.334 . S
C1387 H1364 0.950 . S
C1387 C1386 1.334 . S
C1387 C1388 1.287 . S
C1388 C1387 1.287 . S
C1388 C1389 1.524 . S
C1388 H1407 0.913 . S
C1389 H1365 0.950 . S
C1389 C1388 1.524 . S
C1389 C1390 1.415 . S
C1390 H1366 0.950 . S
C1390 C1385 1.363 . S
C1390 C1389 1.415 . S
C1391 H1367 0.951 . S
C1391 C1392 1.366 . S
C1391 C1393 1.388 . S
C1392 C1391 1.366 . S
C1392 C1396 1.385 . S
C1393 H1368 0.951 . S
C1393 C1391 1.388 . S
C1393 C1394 1.366 . S
C1394 C1393 1.366 . S
C1394 C1395 1.414 . S
C1394 C1397 1.499 . S
C1395 H1369 0.950 . S
C1395 C1394 1.414 . S
C1395 C1396 1.374 . S
C1396 H1370 0.950 . S
C1396 C1392 1.385 . S
C1396 C1395 1.374 . S
C1397 C1394 1.499 . S
C1397 C1398 1.373 . S
C1397 C1399 1.389 . S
C1398 H1371 0.950 . S
C1398 C1384 1.377 . S
C1398 C1397 1.373 . S
C1399 C1383 1.377 . S
C1399 C1397 1.389 . S
C1399 C1400 1.524 . S
C1400 C1399 1.524 . S
C1400 C1401 1.397 . S
C1400 C1405 1.363 . S
C1401 H1372 0.950 . S
C1401 C1400 1.397 . S
C1401 C1402 1.334 . S
C1402 H1373 0.950 . S
C1402 C1401 1.334 . S
C1402 C1403 1.287 . S
C1403 C1402 1.287 . S
C1403 C1404 1.524 . S
C1403 H1406 0.999 . S
C1404 H1374 0.950 . S
C1404 C1403 1.524 . S
C1404 C1405 1.415 . S
C1405 H1375 0.950 . S
C1405 C1400 1.363 . S
C1405 C1404 1.415 . S
H1406 C1403 0.999 . S
H1407 C1388 0.913 . S
H1408 C1426 0.951 . S
H1409 C1428 0.951 . S
H1410 C1430 0.950 . S
H1411 C1431 0.950 . S
H1412 C1433 0.950 . S
H1413 C1436 0.950 . S
H1414 C1437 0.950 . S
H1415 C1439 0.950 . S
H1416 C1440 0.950 . S
H1417 C1441 0.951 . S
H1418 C1443 0.951 . S
H1419 C1445 0.950 . S
H1420 C1446 0.950 . S
H1421 C1448 0.950 . S
H1422 C1451 0.950 . S
H1423 C1452 0.950 . S
H1424 C1454 0.950 . S
H1425 C1455 0.950 . S
C1426 H1408 0.951 . S
C1426 C1427 1.366 . S
C1426 C1428 1.388 . S
C1427 C1426 1.366 . S
C1427 C1431 1.385 . S
C1428 H1409 0.951 . S
C1428 C1426 1.388 . S
C1428 C1429 1.366 . S
C1429 C1428 1.366 . S
C1429 C1430 1.414 . S
C1429 C1432 1.499 . S
C1430 H1410 0.950 . S
C1430 C1429 1.414 . S
C1430 C1431 1.374 . S
C1431 H1411 0.950 . S
C1431 C1427 1.385 . S
C1431 C1430 1.374 . S
C1432 C1429 1.499 . S
C1432 C1433 1.373 . S
C1432 C1434 1.389 . S
C1433 H1412 0.950 . S
C1433 C1432 1.373 . S
C1433 C1449 1.377 . S
C1434 C1432 1.389 . S
C1434 C1435 1.524 . S
C1434 C1448 1.377 . S
C1435 C1434 1.524 . S
C1435 C1436 1.397 . S
C1435 C1440 1.363 . S
C1436 H1413 0.950 . S
C1436 C1435 1.397 . S
C1436 C1437 1.334 . S
C1437 H1414 0.950 . S
C1437 C1436 1.334 . S
C1437 C1438 1.287 . S
C1438 C1437 1.287 . S
C1438 C1439 1.524 . S
C1438 H1457 0.913 . S
C1439 H1415 0.950 . S
C1439 C1438 1.524 . S
C1439 C1440 1.415 . S
C1440 H1416 0.950 . S
C1440 C1435 1.363 . S
C1440 C1439 1.415 . S
C1441 H1417 0.951 . S
C1441 C1442 1.366 . S
C1441 C1443 1.388 . S
C1442 C1441 1.366 . S
C1442 C1446 1.385 . S
C1443 H1418 0.951 . S
C1443 C1441 1.388 . S
C1443 C1444 1.366 . S
C1444 C1443 1.366 . S
C1444 C1445 1.414 . S
C1444 C1447 1.499 . S
C1445 H1419 0.950 . S
C1445 C1444 1.414 . S
C1445 C1446 1.374 . S
C1446 H1420 0.950 . S
C1446 C1442 1.385 . S
C1446 C1445 1.374 . S
C1447 C1444 1.499 . S
C1447 C1448 1.373 . S
C1447 C1449 1.389 . S
C1448 H1421 0.950 . S
C1448 C1434 1.377 . S
C1448 C1447 1.373 . S
C1449 C1433 1.377 . S
C1449 C1447 1.389 . S
C1449 C1450 1.524 . S
C1450 C1449 1.524 . S
C1450 C1451 1.397 . S
C1450 C1455 1.363 . S
C1451 H1422 0.950 . S
C1451 C1450 1.397 . S
C1451 C1452 1.334 . S
C1452 H1423 0.950 . S
C1452 C1451 1.334 . S
C1452 C1453 1.287 . S
C1453 C1452 1.287 . S
C1453 C1454 1.524 . S
C1453 H1456 0.999 . S
C1454 H1424 0.950 . S
C1454 C1453 1.524 . S
C1454 C1455 1.415 . S
C1455 H1425 0.950 . S
C1455 C1450 1.363 . S
C1455 C1454 1.415 . S
H1456 C1453 0.999 . S
H1457 C1438 0.913 . S
H1458 C1476 0.951 . S
H1459 C1478 0.951 . S
H1460 C1480 0.950 . S
H1461 C1481 0.950 . S
H1462 C1483 0.950 . S
H1463 C1486 0.950 . S
H1464 C1487 0.950 . S
H1465 C1489 0.950 . S
H1466 C1490 0.950 . S
H1467 C1491 0.951 . S
H1468 C1493 0.951 . S
H1469 C1495 0.950 . S
H1470 C1496 0.950 . S
H1471 C1498 0.950 . S
H1472 C1501 0.950 . S
H1473 C1502 0.950 . S
H1474 C1504 0.950 . S
H1475 C1505 0.950 . S
C1476 H1458 0.951 . S
C1476 C1477 1.366 . S
C1476 C1478 1.388 . S
C1477 C1476 1.366 . S
C1477 C1481 1.385 . S
C1478 H1459 0.951 . S
C1478 C1476 1.388 . S
C1478 C1479 1.366 . S
C1479 C1478 1.366 . S
C1479 C1480 1.414 . S
C1479 C1482 1.499 . S
C1480 H1460 0.950 . S
C1480 C1479 1.414 . S
C1480 C1481 1.374 . S
C1481 H1461 0.950 . S
C1481 C1477 1.385 . S
C1481 C1480 1.374 . S
C1482 C1479 1.499 . S
C1482 C1483 1.373 . S
C1482 C1484 1.389 . S
C1483 H1462 0.950 . S
C1483 C1482 1.373 . S
C1483 C1499 1.377 . S
C1484 C1482 1.389 . S
C1484 C1485 1.524 . S
C1484 C1498 1.377 . S
C1485 C1484 1.524 . S
C1485 C1486 1.397 . S
C1485 C1490 1.363 . S
C1486 H1463 0.950 . S
C1486 C1485 1.397 . S
C1486 C1487 1.334 . S
C1487 H1464 0.950 . S
C1487 C1486 1.334 . S
C1487 C1488 1.287 1_455 S
C1488 C1487 1.287 1_655 S
C1488 C1489 1.524 . S
C1488 H1507 0.913 . S
C1489 H1465 0.950 . S
C1489 C1488 1.524 . S
C1489 C1490 1.415 1_655 S
C1490 H1466 0.950 . S
C1490 C1485 1.363 . S
C1490 C1489 1.415 1_455 S
C1491 H1467 0.951 . S
C1491 C1492 1.366 . S
C1491 C1493 1.388 . S
C1492 C1491 1.366 . S
C1492 C1496 1.385 . S
C1493 H1468 0.951 . S
C1493 C1491 1.388 . S
C1493 C1494 1.366 . S
C1494 C1493 1.366 . S
C1494 C1495 1.414 . S
C1494 C1497 1.499 . S
C1495 H1469 0.950 . S
C1495 C1494 1.414 . S
C1495 C1496 1.374 . S
C1496 H1470 0.950 . S
C1496 C1492 1.385 . S
C1496 C1495 1.374 . S
C1497 C1494 1.499 . S
C1497 C1498 1.373 . S
C1497 C1499 1.389 . S
C1498 H1471 0.950 . S
C1498 C1484 1.377 . S
C1498 C1497 1.373 . S
C1499 C1483 1.377 . S
C1499 C1497 1.389 . S
C1499 C1500 1.524 . S
C1500 C1499 1.524 . S
C1500 C1501 1.397 . S
C1500 C1505 1.363 . S
C1501 H1472 0.950 . S
C1501 C1500 1.397 . S
C1501 C1502 1.334 . S
C1502 H1473 0.950 . S
C1502 C1501 1.334 . S
C1502 C1503 1.287 . S
C1503 C1502 1.287 . S
C1503 C1504 1.524 . S
C1503 H1506 0.999 . S
C1504 H1474 0.950 . S
C1504 C1503 1.524 . S
C1504 C1505 1.415 . S
C1505 H1475 0.950 . S
C1505 C1500 1.363 . S
C1505 C1504 1.415 . S
H1506 C1503 0.999 . S
H1507 C1488 0.913 . S
H1508 C1526 0.951 . S
H1509 C1528 0.951 . S
H1510 C1530 0.950 . S
H1511 C1531 0.950 . S
H1512 C1533 0.950 . S
H1513 C1536 0.950 . S
H1514 C1537 0.950 . S
H1515 C1539 0.950 . S
H1516 C1540 0.950 . S
H1517 C1541 0.951 . S
H1518 C1543 0.951 . S
H1519 C1545 0.950 . S
H1520 C1546 0.950 . S
H1521 C1548 0.950 . S
H1522 C1551 0.950 . S
H1523 C1552 0.950 . S
H1524 C1554 0.950 . S
H1525 C1555 0.950 . S
C1526 H1508 0.951 . S
C1526 C1527 1.366 . S
C1526 C1528 1.388 . S
C1527 C1526 1.366 . S
C1527 C1531 1.385 . S
C1528 H1509 0.951 . S
C1528 C1526 1.388 . S
C1528 C1529 1.366 . S
C1529 C1528 1.366 . S
C1529 C1530 1.414 . S
C1529 C1532 1.499 . S
C1530 H1510 0.950 . S
C1530 C1529 1.414 . S
C1530 C1531 1.374 . S
C1531 H1511 0.950 . S
C1531 C1527 1.385 . S
C1531 C1530 1.374 . S
C1532 C1529 1.499 . S
C1532 C1533 1.373 . S
C1532 C1534 1.389 . S
C1533 H1512 0.950 . S
C1533 C1532 1.373 . S
C1533 C1549 1.377 . S
C1534 C1532 1.389 . S
C1534 C1535 1.524 . S
C1534 C1548 1.377 . S
C1535 C1534 1.524 . S
C1535 C1536 1.397 . S
C1535 C1540 1.363 . S
C1536 H1513 0.950 . S
C1536 C1535 1.397 . S
C1536 C1537 1.334 . S
C1537 H1514 0.950 . S
C1537 C1536 1.334 . S
C1537 C1538 1.287 . S
C1538 C1537 1.287 . S
C1538 C1539 1.524 . S
C1538 H1557 0.913 . S
C1539 H1515 0.950 . S
C1539 C1538 1.524 . S
C1539 C1540 1.415 . S
C1540 H1516 0.950 . S
C1540 C1535 1.363 . S
C1540 C1539 1.415 . S
C1541 H1517 0.951 . S
C1541 C1542 1.366 . S
C1541 C1543 1.388 . S
C1542 C1541 1.366 . S
C1542 C1546 1.385 . S
C1543 H1518 0.951 . S
C1543 C1541 1.388 . S
C1543 C1544 1.366 . S
C1544 C1543 1.366 . S
C1544 C1545 1.414 . S
C1544 C1547 1.499 . S
C1545 H1519 0.950 . S
C1545 C1544 1.414 . S
C1545 C1546 1.374 . S
C1546 H1520 0.950 . S
C1546 C1542 1.385 . S
C1546 C1545 1.374 . S
C1547 C1544 1.499 . S
C1547 C1548 1.373 . S
C1547 C1549 1.389 . S
C1548 H1521 0.950 . S
C1548 C1534 1.377 . S
C1548 C1547 1.373 . S
C1549 C1533 1.377 . S
C1549 C1547 1.389 . S
C1549 C1550 1.524 . S
C1550 C1549 1.524 . S
C1550 C1551 1.397 . S
C1550 C1555 1.363 . S
C1551 H1522 0.950 . S
C1551 C1550 1.397 . S
C1551 C1552 1.334 . S
C1552 H1523 0.950 . S
C1552 C1551 1.334 . S
C1552 C1553 1.287 . S
C1553 C1552 1.287 . S
C1553 C1554 1.524 . S
C1553 H1556 0.999 . S
C1554 H1524 0.950 . S
C1554 C1553 1.524 . S
C1554 C1555 1.415 . S
C1555 H1525 0.950 . S
C1555 C1550 1.363 . S
C1555 C1554 1.415 . S
H1556 C1553 0.999 . S
H1557 C1538 0.913 . S
H1558 C1576 0.951 . S
H1559 C1578 0.951 . S
H1560 C1580 0.950 . S
H1561 C1581 0.950 . S
H1562 C1583 0.950 . S
H1563 C1586 0.950 . S
H1564 C1587 0.950 . S
H1565 C1589 0.950 . S
H1566 C1590 0.950 . S
H1567 C1591 0.951 1_455 S
H1568 C1593 0.980 . S
H1569 C1595 0.950 . S
H1570 C1596 0.950 . S
H1571 C1598 0.950 . S
H1572 C1601 0.950 . S
H1573 C1602 0.950 . S
H1574 C1604 0.950 . S
H1575 C1605 0.955 . S
C1576 H1558 0.951 . S
C1576 C1577 1.366 . S
C1576 C1578 1.388 . S
C1577 C1576 1.366 . S
C1577 C1581 1.385 . S
C1578 H1559 0.951 . S
C1578 C1576 1.388 . S
C1578 C1579 1.366 . S
C1579 C1578 1.366 . S
C1579 C1580 1.414 . S
C1579 C1582 1.499 . S
C1580 H1560 0.950 . S
C1580 C1579 1.414 . S
C1580 C1581 1.374 . S
C1581 H1561 0.950 . S
C1581 C1577 1.385 . S
C1581 C1580 1.374 . S
C1582 C1579 1.499 . S
C1582 C1583 1.373 . S
C1582 C1584 1.389 . S
C1583 H1562 0.950 . S
C1583 C1582 1.373 . S
C1583 C1599 1.377 . S
C1584 C1582 1.389 . S
C1584 C1585 1.524 . S
C1584 C1598 1.377 . S
C1585 C1584 1.524 . S
C1585 C1586 1.397 . S
C1585 C1590 1.363 . S
C1586 H1563 0.950 . S
C1586 C1585 1.397 . S
C1586 C1587 1.334 . S
C1587 H1564 0.950 . S
C1587 C1586 1.334 . S
C1587 C1588 1.287 . S
C1588 C1587 1.287 . S
C1588 C1589 1.524 . S
C1588 H1607 0.913 . S
C1589 H1565 0.950 . S
C1589 C1588 1.524 . S
C1589 C1590 1.415 . S
C1590 H1566 0.950 . S
C1590 C1585 1.363 . S
C1590 C1589 1.415 . S
C1591 H1567 0.951 1_655 S
C1591 C1592 1.366 . S
C1591 C1593 1.388 . S
C1592 C1591 1.366 . S
C1592 C1596 1.385 . S
C1593 H1568 0.980 . S
C1593 C1591 1.388 . S
C1593 C1594 1.366 . S
C1594 C1593 1.366 . S
C1594 C1595 1.414 . S
C1594 C1597 1.499 . S
C1595 H1569 0.950 . S
C1595 C1594 1.414 . S
C1595 C1596 1.374 . S
C1596 H1570 0.950 . S
C1596 C1592 1.385 . S
C1596 C1595 1.374 . S
C1597 C1594 1.499 . S
C1597 C1598 1.373 . S
C1597 C1599 1.389 . S
C1598 H1571 0.950 . S
C1598 C1584 1.377 . S
C1598 C1597 1.373 . S
C1599 C1583 1.377 . S
C1599 C1597 1.389 . S
C1599 C1600 1.524 . S
C1600 C1599 1.524 . S
C1600 C1601 1.397 . S
C1600 C1605 1.363 . S
C1601 H1572 0.950 . S
C1601 C1600 1.397 . S
C1601 C1602 1.334 . S
C1602 H1573 0.950 . S
C1602 C1601 1.334 . S
C1602 C1603 1.287 . S
C1603 C1602 1.287 . S
C1603 C1604 1.524 1_655 S
C1603 H1606 0.999 1_655 S
C1604 H1574 0.950 . S
C1604 C1603 1.524 1_455 S
C1604 C1605 1.415 1_455 S
C1605 H1575 0.955 . S
C1605 C1600 1.363 . S
C1605 C1604 1.415 1_655 S
H1606 C1603 0.999 1_455 S
H1607 C1588 0.913 . S
H1608 C1626 0.951 . S
H1609 C1628 0.951 . S
H1610 C1630 0.950 . S
H1611 C1631 0.950 . S
H1612 C1633 0.950 . S
H1613 C1636 0.950 . S
H1614 C1637 0.950 . S
H1615 C1639 0.950 . S
H1616 C1640 0.950 . S
H1617 C1641 0.951 . S
H1618 C1643 0.951 . S
H1619 C1645 0.950 . S
H1620 C1646 0.950 . S
H1621 C1648 0.950 . S
H1622 C1651 0.950 . S
H1623 C1652 0.950 . S
H1624 C1654 0.950 . S
H1625 C1655 0.950 . S
C1626 H1608 0.951 . S
C1626 C1627 1.366 . S
C1626 C1628 1.388 . S
C1627 C1626 1.366 . S
C1627 C1631 1.385 . S
C1628 H1609 0.951 . S
C1628 C1626 1.388 . S
C1628 C1629 1.366 . S
C1629 C1628 1.366 . S
C1629 C1630 1.414 . S
C1629 C1632 1.499 . S
C1630 H1610 0.950 . S
C1630 C1629 1.414 . S
C1630 C1631 1.374 . S
C1631 H1611 0.950 . S
C1631 C1627 1.385 . S
C1631 C1630 1.374 . S
C1632 C1629 1.499 . S
C1632 C1633 1.373 . S
C1632 C1634 1.389 . S
C1633 H1612 0.950 . S
C1633 C1632 1.373 . S
C1633 C1649 1.377 . S
C1634 C1632 1.389 . S
C1634 C1635 1.524 . S
C1634 C1648 1.377 . S
C1635 C1634 1.524 . S
C1635 C1636 1.397 . S
C1635 C1640 1.363 . S
C1636 H1613 0.950 . S
C1636 C1635 1.397 . S
C1636 C1637 1.334 . S
C1637 H1614 0.950 . S
C1637 C1636 1.334 . S
C1637 C1638 1.287 . S
C1638 C1637 1.287 . S
C1638 C1639 1.524 . S
C1638 H1657 0.913 . S
C1639 H1615 0.950 . S
C1639 C1638 1.524 . S
C1639 C1640 1.415 . S
C1640 H1616 0.950 . S
C1640 C1635 1.363 . S
C1640 C1639 1.415 . S
C1641 H1617 0.951 . S
C1641 C1642 1.366 . S
C1641 C1643 1.388 . S
C1642 C1641 1.366 . S
C1642 C1646 1.385 . S
C1643 H1618 0.951 . S
C1643 C1641 1.388 . S
C1643 C1644 1.366 1_545 S
C1644 C1643 1.366 1_565 S
C1644 C1645 1.414 . S
C1644 C1647 1.499 . S
C1645 H1619 0.950 . S
C1645 C1644 1.414 . S
C1645 C1646 1.374 1_565 S
C1646 H1620 0.950 . S
C1646 C1642 1.385 . S
C1646 C1645 1.374 1_545 S
C1647 C1644 1.499 . S
C1647 C1648 1.373 . S
C1647 C1649 1.389 . S
C1648 H1621 0.950 . S
C1648 C1634 1.377 . S
C1648 C1647 1.373 . S
C1649 C1633 1.377 . S
C1649 C1647 1.389 . S
C1649 C1650 1.524 . S
C1650 C1649 1.524 . S
C1650 C1651 1.397 . S
C1650 C1655 1.363 . S
C1651 H1622 0.950 . S
C1651 C1650 1.397 . S
C1651 C1652 1.334 . S
C1652 H1623 0.950 . S
C1652 C1651 1.334 . S
C1652 C1653 1.287 . S
C1653 C1652 1.287 . S
C1653 C1654 1.524 . S
C1653 H1656 0.999 . S
C1654 H1624 0.950 . S
C1654 C1653 1.524 . S
C1654 C1655 1.415 . S
C1655 H1625 0.950 . S
C1655 C1650 1.363 . S
C1655 C1654 1.415 . S
H1656 C1653 0.999 . S
H1657 C1638 0.913 . S
H1658 C1676 0.951 . S
H1659 C1678 0.951 . S
H1660 C1680 0.950 . S
H1661 C1681 0.950 . S
H1662 C1683 0.950 . S
H1663 C1686 0.950 . S
H1664 C1687 0.950 . S
H1665 C1689 0.950 . S
H1666 C1690 0.950 . S
H1667 C1691 0.951 . S
H1668 C1693 0.951 . S
H1669 C1695 0.950 . S
H1670 C1696 0.950 . S
H1671 C1698 0.950 . S
H1672 C1701 0.950 . S
H1673 C1702 0.950 . S
H1674 C1704 0.950 . S
H1675 C1705 0.950 . S
C1676 H1658 0.951 . S
C1676 C1677 1.366 . S
C1676 C1678 1.388 . S
C1677 C1676 1.366 . S
C1677 C1681 1.385 . S
C1678 H1659 0.951 . S
C1678 C1676 1.388 . S
C1678 C1679 1.366 . S
C1679 C1678 1.366 . S
C1679 C1680 1.414 . S
C1679 C1682 1.499 . S
C1680 H1660 0.950 . S
C1680 C1679 1.414 . S
C1680 C1681 1.374 . S
C1681 H1661 0.950 . S
C1681 C1677 1.385 . S
C1681 C1680 1.374 . S
C1682 C1679 1.499 . S
C1682 C1683 1.373 . S
C1682 C1684 1.389 . S
C1683 H1662 0.950 . S
C1683 C1682 1.373 . S
C1683 C1699 1.377 . S
C1684 C1682 1.389 . S
C1684 C1685 1.524 . S
C1684 C1698 1.377 . S
C1685 C1684 1.524 . S
C1685 C1686 1.397 . S
C1685 C1690 1.363 . S
C1686 H1663 0.950 . S
C1686 C1685 1.397 . S
C1686 C1687 1.334 . S
C1687 H1664 0.950 . S
C1687 C1686 1.334 . S
C1687 C1688 1.287 . S
C1688 C1687 1.287 . S
C1688 C1689 1.524 . S
C1688 H1707 0.913 . S
C1689 H1665 0.950 . S
C1689 C1688 1.524 . S
C1689 C1690 1.415 . S
C1690 H1666 0.950 . S
C1690 C1685 1.363 . S
C1690 C1689 1.415 . S
C1691 H1667 0.951 . S
C1691 C1692 1.366 . S
C1691 C1693 1.388 . S
C1692 C1691 1.366 . S
C1692 C1696 1.385 . S
C1693 H1668 0.951 . S
C1693 C1691 1.388 . S
C1693 C1694 1.366 . S
C1694 C1693 1.366 . S
C1694 C1695 1.414 . S
C1694 C1697 1.499 . S
C1695 H1669 0.950 . S
C1695 C1694 1.414 . S
C1695 C1696 1.374 . S
C1696 H1670 0.950 . S
C1696 C1692 1.385 . S
C1696 C1695 1.374 . S
C1697 C1694 1.499 . S
C1697 C1698 1.373 . S
C1697 C1699 1.389 . S
C1698 H1671 0.950 . S
C1698 C1684 1.377 . S
C1698 C1697 1.373 . S
C1699 C1683 1.377 . S
C1699 C1697 1.389 . S
C1699 C1700 1.524 . S
C1700 C1699 1.524 . S
C1700 C1701 1.397 . S
C1700 C1705 1.363 . S
C1701 H1672 0.950 . S
C1701 C1700 1.397 . S
C1701 C1702 1.334 . S
C1702 H1673 0.950 . S
C1702 C1701 1.334 . S
C1702 C1703 1.287 . S
C1703 C1702 1.287 . S
C1703 C1704 1.524 . S
C1703 H1706 0.999 . S
C1704 H1674 0.950 . S
C1704 C1703 1.524 . S
C1704 C1705 1.415 . S
C1705 H1675 0.950 . S
C1705 C1700 1.363 . S
C1705 C1704 1.415 . S
H1706 C1703 0.999 . S
H1707 C1688 0.913 . S
H1708 C1726 0.951 . S
H1709 C1728 0.951 . S
H1710 C1730 0.950 . S
H1711 C1731 0.950 . S
H1712 C1733 0.950 . S
H1713 C1736 0.950 . S
H1714 C1737 0.950 . S
H1715 C1739 0.950 . S
H1716 C1740 0.950 . S
H1717 C1741 0.951 . S
H1718 C1743 0.951 . S
H1719 C1745 0.950 . S
H1720 C1746 0.950 . S
H1721 C1748 0.950 . S
H1722 C1751 0.950 . S
H1723 C1752 0.950 1_565 S
H1724 C1754 0.950 . S
H1725 C1755 0.950 . S
C1726 H1708 0.951 . S
C1726 C1727 1.366 . S
C1726 C1728 1.388 . S
C1727 C1726 1.366 . S
C1727 C1731 1.385 . S
C1728 H1709 0.951 . S
C1728 C1726 1.388 . S
C1728 C1729 1.366 . S
C1729 C1728 1.366 . S
C1729 C1730 1.414 . S
C1729 C1732 1.499 . S
C1730 H1710 0.950 . S
C1730 C1729 1.414 . S
C1730 C1731 1.374 . S
C1731 H1711 0.950 . S
C1731 C1727 1.385 . S
C1731 C1730 1.374 . S
C1732 C1729 1.499 . S
C1732 C1733 1.373 . S
C1732 C1734 1.389 1_545 S
C1733 H1712 0.950 . S
C1733 C1732 1.373 . S
C1733 C1749 1.377 1_546 S
C1734 C1732 1.389 1_565 S
C1734 C1735 1.524 . S
C1734 C1748 1.377 . S
C1735 C1734 1.524 . S
C1735 C1736 1.397 . S
C1735 C1740 1.363 . S
C1736 H1713 0.950 . S
C1736 C1735 1.397 . S
C1736 C1737 1.334 . S
C1737 H1714 0.950 . S
C1737 C1736 1.334 . S
C1737 C1738 1.287 . S
C1738 C1737 1.287 . S
C1738 C1739 1.524 . S
C1738 H1757 0.913 . S
C1739 H1715 0.950 . S
C1739 C1738 1.524 . S
C1739 C1740 1.415 . S
C1740 H1716 0.950 . S
C1740 C1735 1.363 . S
C1740 C1739 1.415 . S
C1741 H1717 0.951 . S
C1741 C1742 1.366 . S
C1741 C1743 1.388 . S
C1742 C1741 1.366 . S
C1742 C1746 1.385 . S
C1743 H1718 0.951 . S
C1743 C1741 1.388 . S
C1743 C1744 1.366 . S
C1744 C1743 1.366 . S
C1744 C1745 1.414 . S
C1744 C1747 1.499 . S
C1745 H1719 0.950 . S
C1745 C1744 1.414 . S
C1745 C1746 1.374 . S
C1746 H1720 0.950 . S
C1746 C1742 1.385 . S
C1746 C1745 1.374 . S
C1747 C1744 1.499 . S
C1747 C1748 1.373 1_554 S
C1747 C1749 1.389 . S
C1748 H1721 0.950 . S
C1748 C1734 1.377 . S
C1748 C1747 1.373 1_556 S
C1749 C1733 1.377 1_564 S
C1749 C1747 1.389 . S
C1749 C1750 1.524 1_565 S
C1750 C1749 1.524 1_545 S
C1750 C1751 1.397 1_545 S
C1750 C1755 1.363 . S
C1751 H1722 0.950 . S
C1751 C1750 1.397 1_565 S
C1751 C1752 1.334 1_565 S
C1752 H1723 0.950 1_545 S
C1752 C1751 1.334 1_545 S
C1752 C1753 1.287 . S
C1753 C1752 1.287 . S
C1753 C1754 1.524 . S
C1753 H1756 0.999 . S
C1754 H1724 0.950 . S
C1754 C1753 1.524 . S
C1754 C1755 1.415 . S
C1755 H1725 0.950 . S
C1755 C1750 1.363 . S
C1755 C1754 1.415 . S
H1756 C1753 0.999 . S
H1757 C1738 0.913 . S
H1758 C1776 0.951 . S
H1759 C1778 0.951 . S
H1760 C1780 0.950 . S
H1761 C1781 0.950 . S
H1762 C1783 0.950 . S
H1763 C1786 0.950 . S
H1764 C1787 0.950 . S
H1765 C1789 0.950 . S
H1766 C1790 0.950 . S
H1767 C1791 0.951 . S
H1768 C1793 0.951 . S
H1769 C1795 0.950 . S
H1770 C1796 0.950 . S
H1771 C1798 0.950 . S
H1772 C1801 0.950 . S
H1773 C1802 0.950 . S
H1774 C1804 0.950 . S
H1775 C1805 0.950 . S
C1776 H1758 0.951 . S
C1776 C1777 1.366 . S
C1776 C1778 1.388 . S
C1777 C1776 1.366 . S
C1777 C1781 1.385 . S
C1778 H1759 0.951 . S
C1778 C1776 1.388 . S
C1778 C1779 1.366 . S
C1779 C1778 1.366 . S
C1779 C1780 1.414 . S
C1779 C1782 1.499 . S
C1780 H1760 0.950 . S
C1780 C1779 1.414 . S
C1780 C1781 1.374 . S
C1781 H1761 0.950 . S
C1781 C1777 1.385 . S
C1781 C1780 1.374 . S
C1782 C1779 1.499 . S
C1782 C1783 1.373 . S
C1782 C1784 1.389 . S
C1783 H1762 0.950 . S
C1783 C1782 1.373 . S
C1783 C1799 1.377 . S
C1784 C1782 1.389 . S
C1784 C1785 1.524 . S
C1784 C1798 1.377 . S
C1785 C1784 1.524 . S
C1785 C1786 1.397 . S
C1785 C1790 1.363 . S
C1786 H1763 0.950 . S
C1786 C1785 1.397 . S
C1786 C1787 1.334 . S
C1787 H1764 0.950 . S
C1787 C1786 1.334 . S
C1787 C1788 1.287 . S
C1788 C1787 1.287 . S
C1788 C1789 1.524 . S
C1788 H1807 0.913 . S
C1789 H1765 0.950 . S
C1789 C1788 1.524 . S
C1789 C1790 1.415 . S
C1790 H1766 0.950 . S
C1790 C1785 1.363 . S
C1790 C1789 1.415 . S
C1791 H1767 0.951 . S
C1791 C1792 1.366 . S
C1791 C1793 1.388 . S
C1792 C1791 1.366 . S
C1792 C1796 1.385 . S
C1793 H1768 0.951 . S
C1793 C1791 1.388 . S
C1793 C1794 1.366 . S
C1794 C1793 1.366 . S
C1794 C1795 1.414 . S
C1794 C1797 1.499 . S
C1795 H1769 0.950 . S
C1795 C1794 1.414 . S
C1795 C1796 1.374 . S
C1796 H1770 0.950 . S
C1796 C1792 1.385 . S
C1796 C1795 1.374 . S
C1797 C1794 1.499 . S
C1797 C1798 1.373 . S
C1797 C1799 1.389 . S
C1798 H1771 0.950 . S
C1798 C1784 1.377 . S
C1798 C1797 1.373 . S
C1799 C1783 1.377 . S
C1799 C1797 1.389 . S
C1799 C1800 1.524 . S
C1800 C1799 1.524 . S
C1800 C1801 1.397 . S
C1800 C1805 1.363 . S
C1801 H1772 0.950 . S
C1801 C1800 1.397 . S
C1801 C1802 1.334 . S
C1802 H1773 0.950 . S
C1802 C1801 1.334 . S
C1802 C1803 1.287 . S
C1803 C1802 1.287 . S
C1803 C1804 1.524 . S
C1803 H1806 0.999 . S
C1804 H1774 0.950 . S
C1804 C1803 1.524 . S
C1804 C1805 1.415 . S
C1805 H1775 0.950 . S
C1805 C1800 1.363 . S
C1805 C1804 1.415 . S
H1806 C1803 0.999 . S
H1807 C1788 0.913 . S
H1808 C1826 0.951 . S
H1809 C1828 0.951 . S
H1810 C1830 0.950 . S
H1811 C1831 0.950 . S
H1812 C1833 0.950 . S
H1813 C1836 0.950 . S
H1814 C1837 0.950 . S
H1815 C1839 0.950 . S
H1816 C1840 0.950 . S
H1817 C1841 0.951 . S
H1818 C1843 0.951 . S
H1819 C1845 0.950 . S
H1820 C1846 0.950 . S
H1821 C1848 0.950 . S
H1822 C1851 0.950 . S
H1823 C1852 0.950 . S
H1824 C1854 0.950 . S
H1825 C1855 0.950 . S
C1826 H1808 0.951 . S
C1826 C1827 1.366 . S
C1826 C1828 1.388 . S
C1827 C1826 1.366 . S
C1827 C1831 1.385 . S
C1828 H1809 0.951 . S
C1828 C1826 1.388 . S
C1828 C1829 1.366 . S
C1829 C1828 1.366 . S
C1829 C1830 1.414 . S
C1829 C1832 1.499 . S
C1830 H1810 0.950 . S
C1830 C1829 1.414 . S
C1830 C1831 1.374 . S
C1831 H1811 0.950 . S
C1831 C1827 1.385 . S
C1831 C1830 1.374 . S
C1832 C1829 1.499 . S
C1832 C1833 1.373 . S
C1832 C1834 1.389 . S
C1833 H1812 0.950 . S
C1833 C1832 1.373 . S
C1833 C1849 1.377 . S
C1834 C1832 1.389 . S
C1834 C1835 1.524 . S
C1834 C1848 1.377 . S
C1835 C1834 1.524 . S
C1835 C1836 1.397 . S
C1835 C1840 1.363 . S
C1836 H1813 0.950 . S
C1836 C1835 1.397 . S
C1836 C1837 1.334 . S
C1837 H1814 0.950 . S
C1837 C1836 1.334 . S
C1837 C1838 1.287 . S
C1838 C1837 1.287 . S
C1838 C1839 1.524 . S
C1838 H1857 0.913 . S
C1839 H1815 0.950 . S
C1839 C1838 1.524 . S
C1839 C1840 1.415 . S
C1840 H1816 0.950 . S
C1840 C1835 1.363 . S
C1840 C1839 1.415 . S
C1841 H1817 0.951 . S
C1841 C1842 1.366 . S
C1841 C1843 1.388 . S
C1842 C1841 1.366 . S
C1842 C1846 1.385 . S
C1843 H1818 0.951 . S
C1843 C1841 1.388 . S
C1843 C1844 1.366 . S
C1844 C1843 1.366 . S
C1844 C1845 1.414 . S
C1844 C1847 1.499 . S
C1845 H1819 0.950 . S
C1845 C1844 1.414 . S
C1845 C1846 1.374 . S
C1846 H1820 0.950 . S
C1846 C1842 1.385 . S
C1846 C1845 1.374 . S
C1847 C1844 1.499 . S
C1847 C1848 1.373 . S
C1847 C1849 1.389 . S
C1848 H1821 0.950 . S
C1848 C1834 1.377 . S
C1848 C1847 1.373 . S
C1849 C1833 1.377 . S
C1849 C1847 1.389 . S
C1849 C1850 1.524 . S
C1850 C1849 1.524 . S
C1850 C1851 1.397 . S
C1850 C1855 1.363 . S
C1851 H1822 0.950 . S
C1851 C1850 1.397 . S
C1851 C1852 1.334 . S
C1852 H1823 0.950 . S
C1852 C1851 1.334 . S
C1852 C1853 1.287 . S
C1853 C1852 1.287 . S
C1853 C1854 1.524 . S
C1853 H1856 0.999 . S
C1854 H1824 0.950 . S
C1854 C1853 1.524 . S
C1854 C1855 1.415 . S
C1855 H1825 0.950 . S
C1855 C1850 1.363 . S
C1855 C1854 1.415 . S
H1856 C1853 0.999 . S
H1857 C1838 0.913 . S
H1858 C1876 0.951 . S
H1859 C1878 0.951 . S
H1860 C1880 0.950 . S
H1861 C1881 0.950 . S
H1862 C1883 0.950 . S
H1863 C1886 0.950 . S
H1864 C1887 0.950 . S
H1865 C1889 0.950 . S
H1866 C1890 0.950 . S
H1867 C1891 0.951 . S
H1868 C1893 0.951 . S
H1869 C1895 0.950 . S
H1870 C1896 0.950 . S
H1871 C1898 0.950 . S
H1872 C1901 0.950 . S
H1873 C1902 0.950 . S
H1874 C1904 0.950 . S
H1875 C1905 0.950 . S
C1876 H1858 0.951 . S
C1876 C1877 1.366 . S
C1876 C1878 1.388 . S
C1877 C1876 1.366 . S
C1877 C1881 1.385 . S
C1878 H1859 0.951 . S
C1878 C1876 1.388 . S
C1878 C1879 1.366 . S
C1879 C1878 1.366 . S
C1879 C1880 1.414 . S
C1879 C1882 1.499 . S
C1880 H1860 0.950 . S
C1880 C1879 1.414 . S
C1880 C1881 1.374 . S
C1881 H1861 0.950 . S
C1881 C1877 1.385 . S
C1881 C1880 1.374 . S
C1882 C1879 1.499 . S
C1882 C1883 1.373 . S
C1882 C1884 1.389 . S
C1883 H1862 0.950 . S
C1883 C1882 1.373 . S
C1883 C1899 1.377 . S
C1884 C1882 1.389 . S
C1884 C1885 1.524 . S
C1884 C1898 1.377 . S
C1885 C1884 1.524 . S
C1885 C1886 1.397 . S
C1885 C1890 1.363 . S
C1886 H1863 0.950 . S
C1886 C1885 1.397 . S
C1886 C1887 1.334 . S
C1887 H1864 0.950 . S
C1887 C1886 1.334 . S
C1887 C1888 1.287 . S
C1888 C1887 1.287 . S
C1888 C1889 1.524 . S
C1888 H1907 0.913 . S
C1889 H1865 0.950 . S
C1889 C1888 1.524 . S
C1889 C1890 1.415 . S
C1890 H1866 0.950 . S
C1890 C1885 1.363 . S
C1890 C1889 1.415 . S
C1891 H1867 0.951 . S
C1891 C1892 1.366 . S
C1891 C1893 1.388 . S
C1892 C1891 1.366 . S
C1892 C1896 1.385 . S
C1893 H1868 0.951 . S
C1893 C1891 1.388 . S
C1893 C1894 1.366 . S
C1894 C1893 1.366 . S
C1894 C1895 1.414 . S
C1894 C1897 1.499 . S
C1895 H1869 0.950 . S
C1895 C1894 1.414 . S
C1895 C1896 1.374 . S
C1896 H1870 0.950 . S
C1896 C1892 1.385 . S
C1896 C1895 1.374 . S
C1897 C1894 1.499 . S
C1897 C1898 1.373 . S
C1897 C1899 1.389 . S
C1898 H1871 0.950 . S
C1898 C1884 1.377 . S
C1898 C1897 1.373 . S
C1899 C1883 1.377 . S
C1899 C1897 1.389 . S
C1899 C1900 1.524 . S
C1900 C1899 1.524 . S
C1900 C1901 1.397 . S
C1900 C1905 1.363 . S
C1901 H1872 0.950 . S
C1901 C1900 1.397 . S
C1901 C1902 1.334 . S
C1902 H1873 0.950 . S
C1902 C1901 1.334 . S
C1902 C1903 1.287 . S
C1903 C1902 1.287 . S
C1903 C1904 1.524 . S
C1903 H1906 0.999 . S
C1904 H1874 0.950 . S
C1904 C1903 1.524 . S
C1904 C1905 1.415 . S
C1905 H1875 0.950 . S
C1905 C1900 1.363 . S
C1905 C1904 1.415 . S
H1906 C1903 0.999 . S
H1907 C1888 0.913 . S
H1908 C1926 0.965 . S
H1909 C1928 0.951 . S
H1910 C1930 0.950 . S
H1911 C1931 0.950 . S
H1912 C1933 0.950 . S
H1913 C1936 0.950 . S
H1914 C1937 0.950 . S
H1915 C1939 0.950 . S
H1916 C1940 0.950 . S
H1917 C1941 0.951 . S
H1918 C1943 0.951 . S
H1919 C1945 0.950 . S
H1920 C1946 0.950 . S
H1921 C1948 0.950 . S
H1922 C1951 0.950 . S
H1923 C1952 0.950 . S
H1924 C1954 0.950 . S
H1925 C1955 0.950 . S
C1926 H1908 0.965 . S
C1926 C1927 1.366 1_545 S
C1926 C1928 1.388 . S
C1927 C1926 1.366 1_565 S
C1927 C1931 1.385 . S
C1928 H1909 0.951 . S
C1928 C1926 1.388 . S
C1928 C1929 1.366 . S
C1929 C1928 1.366 . S
C1929 C1930 1.414 . S
C1929 C1932 1.499 . S
C1930 H1910 0.950 . S
C1930 C1929 1.414 . S
C1930 C1931 1.374 1_545 S
C1931 H1911 0.950 . S
C1931 C1927 1.385 . S
C1931 C1930 1.374 1_565 S
C1932 C1929 1.499 . S
C1932 C1933 1.373 . S
C1932 C1934 1.389 . S
C1933 H1912 0.950 . S
C1933 C1932 1.373 . S
C1933 C1949 1.377 . S
C1934 C1932 1.389 . S
C1934 C1935 1.524 . S
C1934 C1948 1.377 . S
C1935 C1934 1.524 . S
C1935 C1936 1.397 . S
C1935 C1940 1.363 . S
C1936 H1913 0.950 . S
C1936 C1935 1.397 . S
C1936 C1937 1.334 . S
C1937 H1914 0.950 . S
C1937 C1936 1.334 . S
C1937 C1938 1.287 . S
C1938 C1937 1.287 . S
C1938 C1939 1.524 . S
C1938 H1957 0.913 . S
C1939 H1915 0.950 . S
C1939 C1938 1.524 . S
C1939 C1940 1.415 . S
C1940 H1916 0.950 . S
C1940 C1935 1.363 . S
C1940 C1939 1.415 . S
C1941 H1917 0.951 . S
C1941 C1942 1.366 . S
C1941 C1943 1.388 . S
C1942 C1941 1.366 . S
C1942 C1946 1.385 . S
C1943 H1918 0.951 . S
C1943 C1941 1.388 . S
C1943 C1944 1.366 . S
C1944 C1943 1.366 . S
C1944 C1945 1.414 . S
C1944 C1947 1.499 . S
C1945 H1919 0.950 . S
C1945 C1944 1.414 . S
C1945 C1946 1.374 . S
C1946 H1920 0.950 . S
C1946 C1942 1.385 . S
C1946 C1945 1.374 . S
C1947 C1944 1.499 . S
C1947 C1948 1.373 . S
C1947 C1949 1.389 . S
C1948 H1921 0.950 . S
C1948 C1934 1.377 . S
C1948 C1947 1.373 . S
C1949 C1933 1.377 . S
C1949 C1947 1.389 . S
C1949 C1950 1.524 . S
C1950 C1949 1.524 . S
C1950 C1951 1.397 . S
C1950 C1955 1.363 . S
C1951 H1922 0.950 . S
C1951 C1950 1.397 . S
C1951 C1952 1.334 . S
C1952 H1923 0.950 . S
C1952 C1951 1.334 . S
C1952 C1953 1.287 . S
C1953 C1952 1.287 . S
C1953 C1954 1.524 . S
C1953 H1956 0.999 . S
C1954 H1924 0.950 . S
C1954 C1953 1.524 . S
C1954 C1955 1.415 . S
C1955 H1925 0.950 . S
C1955 C1950 1.363 . S
C1955 C1954 1.415 . S
H1956 C1953 0.999 . S
H1957 C1938 0.913 . S
H1958 C1976 0.951 . S
H1959 C1978 0.951 . S
H1960 C1980 0.950 . S
H1961 C1981 0.950 . S
H1962 C1983 0.950 . S
H1963 C1986 0.950 . S
H1964 C1987 0.950 . S
H1965 C1989 0.950 . S
H1966 C1990 0.950 . S
H1967 C1991 0.951 . S
H1968 C1993 0.951 . S
H1969 C1995 0.950 . S
H1970 C1996 0.950 . S
H1971 C1998 0.950 . S
H1972 C2001 0.950 . S
H1973 C2002 0.950 . S
H1974 C2004 0.950 . S
H1975 C2005 0.950 . S
C1976 H1958 0.951 . S
C1976 C1977 1.366 . S
C1976 C1978 1.388 . S
C1977 C1976 1.366 . S
C1977 C1981 1.385 . S
C1978 H1959 0.951 . S
C1978 C1976 1.388 . S
C1978 C1979 1.366 . S
C1979 C1978 1.366 . S
C1979 C1980 1.414 . S
C1979 C1982 1.499 . S
C1980 H1960 0.950 . S
C1980 C1979 1.414 . S
C1980 C1981 1.374 . S
C1981 H1961 0.950 . S
C1981 C1977 1.385 . S
C1981 C1980 1.374 . S
C1982 C1979 1.499 . S
C1982 C1983 1.373 . S
C1982 C1984 1.389 . S
C1983 H1962 0.950 . S
C1983 C1982 1.373 . S
C1983 C1999 1.377 . S
C1984 C1982 1.389 . S
C1984 C1985 1.524 . S
C1984 C1998 1.377 . S
C1985 C1984 1.524 . S
C1985 C1986 1.397 . S
C1985 C1990 1.363 . S
C1986 H1963 0.950 . S
C1986 C1985 1.397 . S
C1986 C1987 1.334 . S
C1987 H1964 0.950 . S
C1987 C1986 1.334 . S
C1987 C1988 1.287 . S
C1988 C1987 1.287 . S
C1988 C1989 1.524 . S
C1988 H2007 0.913 . S
C1989 H1965 0.950 . S
C1989 C1988 1.524 . S
C1989 C1990 1.415 . S
C1990 H1966 0.950 . S
C1990 C1985 1.363 . S
C1990 C1989 1.415 . S
C1991 H1967 0.951 . S
C1991 C1992 1.366 . S
C1991 C1993 1.388 . S
C1992 C1991 1.366 . S
C1992 C1996 1.385 . S
C1993 H1968 0.951 . S
C1993 C1991 1.388 . S
C1993 C1994 1.366 . S
C1994 C1993 1.366 . S
C1994 C1995 1.414 . S
C1994 C1997 1.499 . S
C1995 H1969 0.950 . S
C1995 C1994 1.414 . S
C1995 C1996 1.374 . S
C1996 H1970 0.950 . S
C1996 C1992 1.385 . S
C1996 C1995 1.374 . S
C1997 C1994 1.499 . S
C1997 C1998 1.373 . S
C1997 C1999 1.389 . S
C1998 H1971 0.950 . S
C1998 C1984 1.377 . S
C1998 C1997 1.373 . S
C1999 C1983 1.377 . S
C1999 C1997 1.389 . S
C1999 C2000 1.524 . S
C2000 C1999 1.524 . S
C2000 C2001 1.397 . S
C2000 C2005 1.363 . S
C2001 H1972 0.950 . S
C2001 C2000 1.397 . S
C2001 C2002 1.334 . S
C2002 H1973 0.950 . S
C2002 C2001 1.334 . S
C2002 C2003 1.287 . S
C2003 C2002 1.287 . S
C2003 C2004 1.524 . S
C2003 H2006 0.999 . S
C2004 H1974 0.950 . S
C2004 C2003 1.524 . S
C2004 C2005 1.415 . S
C2005 H1975 0.950 . S
C2005 C2000 1.363 . S
C2005 C2004 1.415 . S
H2006 C2003 0.999 . S
H2007 C1988 0.913 . S
H2008 C2026 0.951 . S
H2009 C2028 0.951 . S
H2010 C2030 0.950 . S
H2011 C2031 0.950 . S
H2012 C2033 0.950 . S
H2013 C2036 0.950 . S
H2014 C2037 0.950 . S
H2015 C2039 0.950 . S
H2016 C2040 0.950 . S
H2017 C2041 0.951 . S
H2018 C2043 0.951 . S
H2019 C2045 0.950 . S
H2020 C2046 0.950 . S
H2021 C2048 0.950 . S
H2022 C2051 0.950 . S
H2023 C2052 0.950 . S
H2024 C2054 0.950 . S
H2025 C2055 0.950 . S
C2026 H2008 0.951 . S
C2026 C2027 1.366 . S
C2026 C2028 1.388 . S
C2027 C2026 1.366 . S
C2027 C2031 1.385 . S
C2028 H2009 0.951 . S
C2028 C2026 1.388 . S
C2028 C2029 1.366 . S
C2029 C2028 1.366 . S
C2029 C2030 1.414 . S
C2029 C2032 1.499 . S
C2030 H2010 0.950 . S
C2030 C2029 1.414 . S
C2030 C2031 1.374 . S
C2031 H2011 0.950 . S
C2031 C2027 1.385 . S
C2031 C2030 1.374 . S
C2032 C2029 1.499 . S
C2032 C2033 1.373 . S
C2032 C2034 1.389 . S
C2033 H2012 0.950 . S
C2033 C2032 1.373 . S
C2033 C2049 1.377 . S
C2034 C2032 1.389 . S
C2034 C2035 1.524 . S
C2034 C2048 1.377 . S
C2035 C2034 1.524 . S
C2035 C2036 1.397 . S
C2035 C2040 1.363 . S
C2036 H2013 0.950 . S
C2036 C2035 1.397 . S
C2036 C2037 1.334 . S
C2037 H2014 0.950 . S
C2037 C2036 1.334 . S
C2037 C2038 1.287 . S
C2038 C2037 1.287 . S
C2038 C2039 1.524 . S
C2038 H2057 0.913 . S
C2039 H2015 0.950 . S
C2039 C2038 1.524 . S
C2039 C2040 1.415 . S
C2040 H2016 0.950 . S
C2040 C2035 1.363 . S
C2040 C2039 1.415 . S
C2041 H2017 0.951 . S
C2041 C2042 1.366 . S
C2041 C2043 1.388 . S
C2042 C2041 1.366 . S
C2042 C2046 1.385 . S
C2043 H2018 0.951 . S
C2043 C2041 1.388 . S
C2043 C2044 1.366 . S
C2044 C2043 1.366 . S
C2044 C2045 1.414 . S
C2044 C2047 1.499 . S
C2045 H2019 0.950 . S
C2045 C2044 1.414 . S
C2045 C2046 1.374 . S
C2046 H2020 0.950 . S
C2046 C2042 1.385 . S
C2046 C2045 1.374 . S
C2047 C2044 1.499 . S
C2047 C2048 1.373 . S
C2047 C2049 1.389 . S
C2048 H2021 0.950 . S
C2048 C2034 1.377 . S
C2048 C2047 1.373 . S
C2049 C2033 1.377 . S
C2049 C2047 1.389 . S
C2049 C2050 1.524 . S
C2050 C2049 1.524 . S
C2050 C2051 1.397 . S
C2050 C2055 1.363 . S
C2051 H2022 0.950 . S
C2051 C2050 1.397 . S
C2051 C2052 1.334 . S
C2052 H2023 0.950 . S
C2052 C2051 1.334 . S
C2052 C2053 1.287 . S
C2053 C2052 1.287 . S
C2053 C2054 1.524 . S
C2053 H2056 0.999 . S
C2054 H2024 0.950 . S
C2054 C2053 1.524 . S
C2054 C2055 1.415 . S
C2055 H2025 0.950 . S
C2055 C2050 1.363 . S
C2055 C2054 1.415 . S
H2056 C2053 0.999 . S
H2057 C2038 0.913 . S
H2058 C2076 0.951 . S
H2059 C2078 0.951 . S
H2060 C2080 0.950 . S
H2061 C2081 0.950 . S
H2062 C2083 0.950 . S
H2063 C2086 0.950 . S
H2064 C2087 0.950 . S
H2065 C2089 0.950 . S
H2066 C2090 0.950 . S
H2067 C2091 0.951 . S
H2068 C2093 0.951 . S
H2069 C2095 0.950 . S
H2070 C2096 0.950 . S
H2071 C2098 0.950 . S
H2072 C2101 0.950 . S
H2073 C2102 0.950 . S
H2074 C2104 0.950 . S
H2075 C2105 0.950 . S
C2076 H2058 0.951 . S
C2076 C2077 1.366 . S
C2076 C2078 1.388 . S
C2077 C2076 1.366 . S
C2077 C2081 1.385 . S
C2078 H2059 0.951 . S
C2078 C2076 1.388 . S
C2078 C2079 1.366 . S
C2079 C2078 1.366 . S
C2079 C2080 1.414 . S
C2079 C2082 1.499 . S
C2080 H2060 0.950 . S
C2080 C2079 1.414 . S
C2080 C2081 1.374 . S
C2081 H2061 0.950 . S
C2081 C2077 1.385 . S
C2081 C2080 1.374 . S
C2082 C2079 1.499 . S
C2082 C2083 1.373 . S
C2082 C2084 1.389 . S
C2083 H2062 0.950 . S
C2083 C2082 1.373 . S
C2083 C2099 1.377 . S
C2084 C2082 1.389 . S
C2084 C2085 1.524 . S
C2084 C2098 1.377 . S
C2085 C2084 1.524 . S
C2085 C2086 1.397 . S
C2085 C2090 1.363 . S
C2086 H2063 0.950 . S
C2086 C2085 1.397 . S
C2086 C2087 1.334 . S
C2087 H2064 0.950 . S
C2087 C2086 1.334 . S
C2087 C2088 1.287 . S
C2088 C2087 1.287 . S
C2088 C2089 1.524 . S
C2088 H2107 0.913 . S
C2089 H2065 0.950 . S
C2089 C2088 1.524 . S
C2089 C2090 1.415 . S
C2090 H2066 0.950 . S
C2090 C2085 1.363 . S
C2090 C2089 1.415 . S
C2091 H2067 0.951 . S
C2091 C2092 1.366 . S
C2091 C2093 1.388 . S
C2092 C2091 1.366 . S
C2092 C2096 1.385 . S
C2093 H2068 0.951 . S
C2093 C2091 1.388 . S
C2093 C2094 1.366 . S
C2094 C2093 1.366 . S
C2094 C2095 1.414 . S
C2094 C2097 1.499 . S
C2095 H2069 0.950 . S
C2095 C2094 1.414 . S
C2095 C2096 1.374 . S
C2096 H2070 0.950 . S
C2096 C2092 1.385 . S
C2096 C2095 1.374 . S
C2097 C2094 1.499 . S
C2097 C2098 1.373 . S
C2097 C2099 1.389 . S
C2098 H2071 0.950 . S
C2098 C2084 1.377 . S
C2098 C2097 1.373 . S
C2099 C2083 1.377 . S
C2099 C2097 1.389 . S
C2099 C2100 1.524 . S
C2100 C2099 1.524 . S
C2100 C2101 1.397 . S
C2100 C2105 1.363 . S
C2101 H2072 0.950 . S
C2101 C2100 1.397 . S
C2101 C2102 1.334 1_545 S
C2102 H2073 0.950 . S
C2102 C2101 1.334 1_565 S
C2102 C2103 1.287 . S
C2103 C2102 1.287 . S
C2103 C2104 1.524 . S
C2103 H2106 0.999 . S
C2104 H2074 0.950 . S
C2104 C2103 1.524 . S
C2104 C2105 1.415 1_565 S
C2105 H2075 0.950 . S
C2105 C2100 1.363 . S
C2105 C2104 1.415 1_545 S
H2106 C2103 0.999 . S
H2107 C2088 0.913 . S
H2108 C2126 0.951 . S
H2109 C2128 0.951 . S
H2110 C2130 0.950 . S
H2111 C2131 0.950 . S
H2112 C2133 0.950 . S
H2113 C2136 0.950 . S
H2114 C2137 0.950 . S
H2115 C2139 0.950 . S
H2116 C2140 0.950 . S
H2117 C2141 0.951 . S
H2118 C2143 0.951 . S
H2119 C2145 0.950 . S
H2120 C2146 0.950 . S
H2121 C2148 0.950 . S
H2122 C2151 0.950 . S
H2123 C2152 0.950 . S
H2124 C2154 0.950 . S
H2125 C2155 0.950 . S
C2126 H2108 0.951 . S
C2126 C2127 1.366 . S
C2126 C2128 1.388 . S
C2127 C2126 1.366 . S
C2127 C2131 1.385 . S
C2128 H2109 0.951 . S
C2128 C2126 1.388 . S
C2128 C2129 1.366 . S
C2129 C2128 1.366 . S
C2129 C2130 1.414 . S
C2129 C2132 1.499 . S
C2130 H2110 0.950 . S
C2130 C2129 1.414 . S
C2130 C2131 1.374 . S
C2131 H2111 0.950 . S
C2131 C2127 1.385 . S
C2131 C2130 1.374 . S
C2132 C2129 1.499 . S
C2132 C2133 1.373 . S
C2132 C2134 1.389 . S
C2133 H2112 0.950 . S
C2133 C2132 1.373 . S
C2133 C2149 1.377 . S
C2134 C2132 1.389 . S
C2134 C2135 1.524 . S
C2134 C2148 1.377 . S
C2135 C2134 1.524 . S
C2135 C2136 1.397 . S
C2135 C2140 1.363 . S
C2136 H2113 0.950 . S
C2136 C2135 1.397 . S
C2136 C2137 1.334 . S
C2137 H2114 0.950 . S
C2137 C2136 1.334 . S
C2137 C2138 1.287 . S
C2138 C2137 1.287 . S
C2138 C2139 1.524 . S
C2138 H2157 0.913 . S
C2139 H2115 0.950 . S
C2139 C2138 1.524 . S
C2139 C2140 1.415 . S
C2140 H2116 0.950 . S
C2140 C2135 1.363 . S
C2140 C2139 1.415 . S
C2141 H2117 0.951 . S
C2141 C2142 1.366 . S
C2141 C2143 1.388 . S
C2142 C2141 1.366 . S
C2142 C2146 1.385 . S
C2143 H2118 0.951 . S
C2143 C2141 1.388 . S
C2143 C2144 1.366 . S
C2144 C2143 1.366 . S
C2144 C2145 1.414 . S
C2144 C2147 1.499 . S
C2145 H2119 0.950 . S
C2145 C2144 1.414 . S
C2145 C2146 1.374 . S
C2146 H2120 0.950 . S
C2146 C2142 1.385 . S
C2146 C2145 1.374 . S
C2147 C2144 1.499 . S
C2147 C2148 1.373 . S
C2147 C2149 1.389 . S
C2148 H2121 0.950 . S
C2148 C2134 1.377 . S
C2148 C2147 1.373 . S
C2149 C2133 1.377 . S
C2149 C2147 1.389 . S
C2149 C2150 1.524 . S
C2150 C2149 1.524 . S
C2150 C2151 1.397 . S
C2150 C2155 1.363 . S
C2151 H2122 0.950 . S
C2151 C2150 1.397 . S
C2151 C2152 1.334 . S
C2152 H2123 0.950 . S
C2152 C2151 1.334 . S
C2152 C2153 1.287 . S
C2153 C2152 1.287 . S
C2153 C2154 1.524 . S
C2153 H2156 0.999 . S
C2154 H2124 0.950 . S
C2154 C2153 1.524 . S
C2154 C2155 1.415 . S
C2155 H2125 0.950 . S
C2155 C2150 1.363 . S
C2155 C2154 1.415 . S
H2156 C2153 0.999 . S
H2157 C2138 0.913 . S
H2158 C2176 0.951 . S
H2159 C2178 0.951 . S
H2160 C2180 0.950 . S
H2161 C2181 0.950 . S
H2162 C2183 0.950 . S
H2163 C2186 0.950 . S
H2164 C2187 0.950 . S
H2165 C2189 0.950 . S
H2166 C2190 0.950 . S
H2167 C2191 0.951 . S
H2168 C2193 0.951 . S
H2169 C2195 0.950 . S
H2170 C2196 0.950 . S
H2171 C2198 0.950 . S
H2172 C2201 0.950 . S
H2173 C2202 0.950 . S
H2174 C2204 0.950 . S
H2175 C2205 0.950 . S
C2176 H2158 0.951 . S
C2176 C2177 1.366 . S
C2176 C2178 1.388 . S
C2177 C2176 1.366 . S
C2177 C2181 1.385 . S
C2178 H2159 0.951 . S
C2178 C2176 1.388 . S
C2178 C2179 1.366 . S
C2179 C2178 1.366 . S
C2179 C2180 1.414 . S
C2179 C2182 1.499 . S
C2180 H2160 0.950 . S
C2180 C2179 1.414 . S
C2180 C2181 1.374 . S
C2181 H2161 0.950 . S
C2181 C2177 1.385 . S
C2181 C2180 1.374 . S
C2182 C2179 1.499 . S
C2182 C2183 1.373 . S
C2182 C2184 1.389 . S
C2183 H2162 0.950 . S
C2183 C2182 1.373 . S
C2183 C2199 1.377 . S
C2184 C2182 1.389 . S
C2184 C2185 1.524 . S
C2184 C2198 1.377 . S
C2185 C2184 1.524 . S
C2185 C2186 1.397 . S
C2185 C2190 1.363 . S
C2186 H2163 0.950 . S
C2186 C2185 1.397 . S
C2186 C2187 1.334 . S
C2187 H2164 0.950 . S
C2187 C2186 1.334 . S
C2187 C2188 1.287 . S
C2188 C2187 1.287 . S
C2188 C2189 1.524 . S
C2188 H2207 0.913 . S
C2189 H2165 0.950 . S
C2189 C2188 1.524 . S
C2189 C2190 1.415 . S
C2190 H2166 0.950 . S
C2190 C2185 1.363 . S
C2190 C2189 1.415 . S
C2191 H2167 0.951 . S
C2191 C2192 1.366 . S
C2191 C2193 1.388 . S
C2192 C2191 1.366 . S
C2192 C2196 1.385 . S
C2193 H2168 0.951 . S
C2193 C2191 1.388 . S
C2193 C2194 1.366 . S
C2194 C2193 1.366 . S
C2194 C2195 1.414 . S
C2194 C2197 1.499 . S
C2195 H2169 0.950 . S
C2195 C2194 1.414 . S
C2195 C2196 1.374 . S
C2196 H2170 0.950 . S
C2196 C2192 1.385 . S
C2196 C2195 1.374 . S
C2197 C2194 1.499 . S
C2197 C2198 1.373 . S
C2197 C2199 1.389 . S
C2198 H2171 0.950 . S
C2198 C2184 1.377 . S
C2198 C2197 1.373 . S
C2199 C2183 1.377 . S
C2199 C2197 1.389 . S
C2199 C2200 1.524 . S
C2200 C2199 1.524 . S
C2200 C2201 1.397 . S
C2200 C2205 1.363 . S
C2201 H2172 0.950 . S
C2201 C2200 1.397 . S
C2201 C2202 1.334 . S
C2202 H2173 0.950 . S
C2202 C2201 1.334 . S
C2202 C2203 1.287 . S
C2203 C2202 1.287 . S
C2203 C2204 1.524 . S
C2203 H2206 0.999 . S
C2204 H2174 0.950 . S
C2204 C2203 1.524 . S
C2204 C2205 1.415 . S
C2205 H2175 0.950 . S
C2205 C2200 1.363 . S
C2205 C2204 1.415 . S
H2206 C2203 0.999 . S
H2207 C2188 0.913 . S
H2208 C2226 0.951 . S
H2209 C2228 0.951 . S
H2210 C2230 0.950 . S
H2211 C2231 0.950 . S
H2212 C2233 0.950 . S
H2213 C2236 0.950 . S
H2214 C2237 0.950 . S
H2215 C2239 0.950 . S
H2216 C2240 0.950 . S
H2217 C2241 0.951 . S
H2218 C2243 0.951 . S
H2219 C2245 0.950 . S
H2220 C2246 0.950 . S
H2221 C2248 0.950 . S
H2222 C2251 0.950 . S
H2223 C2252 0.950 . S
H2224 C2254 0.950 . S
H2225 C2255 0.950 . S
C2226 H2208 0.951 . S
C2226 C2227 1.366 . S
C2226 C2228 1.388 . S
C2227 C2226 1.366 . S
C2227 C2231 1.385 . S
C2228 H2209 0.951 . S
C2228 C2226 1.388 . S
C2228 C2229 1.366 . S
C2229 C2228 1.366 . S
C2229 C2230 1.414 . S
C2229 C2232 1.499 . S
C2230 H2210 0.950 . S
C2230 C2229 1.414 . S
C2230 C2231 1.374 . S
C2231 H2211 0.950 . S
C2231 C2227 1.385 . S
C2231 C2230 1.374 . S
C2232 C2229 1.499 . S
C2232 C2233 1.373 . S
C2232 C2234 1.389 . S
C2233 H2212 0.950 . S
C2233 C2232 1.373 . S
C2233 C2249 1.377 . S
C2234 C2232 1.389 . S
C2234 C2235 1.524 . S
C2234 C2248 1.377 . S
C2235 C2234 1.524 . S
C2235 C2236 1.397 . S
C2235 C2240 1.363 . S
C2236 H2213 0.950 . S
C2236 C2235 1.397 . S
C2236 C2237 1.334 . S
C2237 H2214 0.950 . S
C2237 C2236 1.334 . S
C2237 C2238 1.287 . S
C2238 C2237 1.287 . S
C2238 C2239 1.524 . S
C2238 H2257 0.913 . S
C2239 H2215 0.950 . S
C2239 C2238 1.524 . S
C2239 C2240 1.415 . S
C2240 H2216 0.950 . S
C2240 C2235 1.363 . S
C2240 C2239 1.415 . S
C2241 H2217 0.951 . S
C2241 C2242 1.366 . S
C2241 C2243 1.388 . S
C2242 C2241 1.366 . S
C2242 C2246 1.385 . S
C2243 H2218 0.951 . S
C2243 C2241 1.388 . S
C2243 C2244 1.366 . S
C2244 C2243 1.366 . S
C2244 C2245 1.414 . S
C2244 C2247 1.499 . S
C2245 H2219 0.950 . S
C2245 C2244 1.414 . S
C2245 C2246 1.374 . S
C2246 H2220 0.950 . S
C2246 C2242 1.385 . S
C2246 C2245 1.374 . S
C2247 C2244 1.499 . S
C2247 C2248 1.373 . S
C2247 C2249 1.389 . S
C2248 H2221 0.950 . S
C2248 C2234 1.377 . S
C2248 C2247 1.373 . S
C2249 C2233 1.377 . S
C2249 C2247 1.389 . S
C2249 C2250 1.524 . S
C2250 C2249 1.524 . S
C2250 C2251 1.397 . S
C2250 C2255 1.363 . S
C2251 H2222 0.950 . S
C2251 C2250 1.397 . S
C2251 C2252 1.334 . S
C2252 H2223 0.950 . S
C2252 C2251 1.334 . S
C2252 C2253 1.287 . S
C2253 C2252 1.287 . S
C2253 C2254 1.524 . S
C2253 H2256 0.999 . S
C2254 H2224 0.950 . S
C2254 C2253 1.524 . S
C2254 C2255 1.415 . S
C2255 H2225 0.950 . S
C2255 C2250 1.363 . S
C2255 C2254 1.415 . S
H2256 C2253 0.999 . S
H2257 C2238 0.913 . S
H2258 C2276 0.951 . S
H2259 C2278 0.951 . S
H2260 C2280 0.950 . S
H2261 C2281 0.950 . S
H2262 C2283 0.950 . S
H2263 C2286 0.950 . S
H2264 C2287 0.950 . S
H2265 C2289 0.950 . S
H2266 C2290 0.950 . S
H2267 C2291 0.951 . S
H2268 C2293 0.951 . S
H2269 C2295 0.950 . S
H2270 C2296 0.950 . S
H2271 C2298 0.950 . S
H2272 C2301 0.950 . S
H2273 C2302 0.950 . S
H2274 C2304 0.950 . S
H2275 C2305 0.950 . S
C2276 H2258 0.951 . S
C2276 C2277 1.366 . S
C2276 C2278 1.388 . S
C2277 C2276 1.366 . S
C2277 C2281 1.385 . S
C2278 H2259 0.951 . S
C2278 C2276 1.388 . S
C2278 C2279 1.366 . S
C2279 C2278 1.366 . S
C2279 C2280 1.414 . S
C2279 C2282 1.499 1_455 S
C2280 H2260 0.950 . S
C2280 C2279 1.414 . S
C2280 C2281 1.374 . S
C2281 H2261 0.950 . S
C2281 C2277 1.385 . S
C2281 C2280 1.374 . S
C2282 C2279 1.499 1_655 S
C2282 C2283 1.373 . S
C2282 C2284 1.389 . S
C2283 H2262 0.950 . S
C2283 C2282 1.373 . S
C2283 C2299 1.377 . S
C2284 C2282 1.389 . S
C2284 C2285 1.524 1_655 S
C2284 C2298 1.377 . S
C2285 C2284 1.524 1_455 S
C2285 C2286 1.397 . S
C2285 C2290 1.363 . S
C2286 H2263 0.950 . S
C2286 C2285 1.397 . S
C2286 C2287 1.334 . S
C2287 H2264 0.950 . S
C2287 C2286 1.334 . S
C2287 C2288 1.287 . S
C2288 C2287 1.287 . S
C2288 C2289 1.524 . S
C2288 H2307 0.913 . S
C2289 H2265 0.950 . S
C2289 C2288 1.524 . S
C2289 C2290 1.415 . S
C2290 H2266 0.950 . S
C2290 C2285 1.363 . S
C2290 C2289 1.415 . S
C2291 H2267 0.951 . S
C2291 C2292 1.366 . S
C2291 C2293 1.388 . S
C2292 C2291 1.366 . S
C2292 C2296 1.385 . S
C2293 H2268 0.951 . S
C2293 C2291 1.388 . S
C2293 C2294 1.366 . S
C2294 C2293 1.366 . S
C2294 C2295 1.414 . S
C2294 C2297 1.499 . S
C2295 H2269 0.950 . S
C2295 C2294 1.414 . S
C2295 C2296 1.374 . S
C2296 H2270 0.950 . S
C2296 C2292 1.385 . S
C2296 C2295 1.374 . S
C2297 C2294 1.499 . S
C2297 C2298 1.373 . S
C2297 C2299 1.389 . S
C2298 H2271 0.950 . S
C2298 C2284 1.377 . S
C2298 C2297 1.373 . S
C2299 C2283 1.377 . S
C2299 C2297 1.389 . S
C2299 C2300 1.524 . S
C2300 C2299 1.524 . S
C2300 C2301 1.397 . S
C2300 C2305 1.363 . S
C2301 H2272 0.950 . S
C2301 C2300 1.397 . S
C2301 C2302 1.334 . S
C2302 H2273 0.950 . S
C2302 C2301 1.334 . S
C2302 C2303 1.287 . S
C2303 C2302 1.287 . S
C2303 C2304 1.524 . S
C2303 H2306 0.999 . S
C2304 H2274 0.950 . S
C2304 C2303 1.524 . S
C2304 C2305 1.415 . S
C2305 H2275 0.950 . S
C2305 C2300 1.363 . S
C2305 C2304 1.415 . S
H2306 C2303 0.999 . S
H2307 C2288 0.913 . S
H2308 C2326 0.951 . S
H2309 C2328 0.951 . S
H2310 C2330 0.950 . S
H2311 C2331 0.950 . S
H2312 C2333 0.950 . S
H2313 C2336 0.950 . S
H2314 C2337 0.950 . S
H2315 C2339 0.950 . S
H2316 C2340 0.950 . S
H2317 C2341 0.951 . S
H2318 C2343 0.951 . S
H2319 C2345 0.950 . S
H2320 C2346 0.950 . S
H2321 C2348 0.950 . S
H2322 C2351 0.950 . S
H2323 C2352 0.950 . S
H2324 C2354 0.950 . S
H2325 C2355 0.950 . S
C2326 H2308 0.951 . S
C2326 C2327 1.366 . S
C2326 C2328 1.388 . S
C2327 C2326 1.366 . S
C2327 C2331 1.385 . S
C2328 H2309 0.951 . S
C2328 C2326 1.388 . S
C2328 C2329 1.366 . S
C2329 C2328 1.366 . S
C2329 C2330 1.414 . S
C2329 C2332 1.499 . S
C2330 H2310 0.950 . S
C2330 C2329 1.414 . S
C2330 C2331 1.374 . S
C2331 H2311 0.950 . S
C2331 C2327 1.385 . S
C2331 C2330 1.374 . S
C2332 C2329 1.499 . S
C2332 C2333 1.373 . S
C2332 C2334 1.389 . S
C2333 H2312 0.950 . S
C2333 C2332 1.373 . S
C2333 C2349 1.377 . S
C2334 C2332 1.389 . S
C2334 C2335 1.524 . S
C2334 C2348 1.377 . S
C2335 C2334 1.524 . S
C2335 C2336 1.397 . S
C2335 C2340 1.363 . S
C2336 H2313 0.950 . S
C2336 C2335 1.397 . S
C2336 C2337 1.334 . S
C2337 H2314 0.950 . S
C2337 C2336 1.334 . S
C2337 C2338 1.287 . S
C2338 C2337 1.287 . S
C2338 C2339 1.524 . S
C2338 H2357 0.913 . S
C2339 H2315 0.950 . S
C2339 C2338 1.524 . S
C2339 C2340 1.415 . S
C2340 H2316 0.950 . S
C2340 C2335 1.363 . S
C2340 C2339 1.415 . S
C2341 H2317 0.951 . S
C2341 C2342 1.366 . S
C2341 C2343 1.388 . S
C2342 C2341 1.366 . S
C2342 C2346 1.385 . S
C2343 H2318 0.951 . S
C2343 C2341 1.388 . S
C2343 C2344 1.366 . S
C2344 C2343 1.366 . S
C2344 C2345 1.414 . S
C2344 C2347 1.499 . S
C2345 H2319 0.950 . S
C2345 C2344 1.414 . S
C2345 C2346 1.374 . S
C2346 H2320 0.950 . S
C2346 C2342 1.385 . S
C2346 C2345 1.374 . S
C2347 C2344 1.499 . S
C2347 C2348 1.373 . S
C2347 C2349 1.389 . S
C2348 H2321 0.950 . S
C2348 C2334 1.377 . S
C2348 C2347 1.373 . S
C2349 C2333 1.377 . S
C2349 C2347 1.389 . S
C2349 C2350 1.524 . S
C2350 C2349 1.524 . S
C2350 C2351 1.397 . S
C2350 C2355 1.363 . S
C2351 H2322 0.950 . S
C2351 C2350 1.397 . S
C2351 C2352 1.334 . S
C2352 H2323 0.950 . S
C2352 C2351 1.334 . S
C2352 C2353 1.287 . S
C2353 C2352 1.287 . S
C2353 C2354 1.524 . S
C2353 H2356 0.999 . S
C2354 H2324 0.950 . S
C2354 C2353 1.524 . S
C2354 C2355 1.415 . S
C2355 H2325 0.950 . S
C2355 C2350 1.363 . S
C2355 C2354 1.415 . S
H2356 C2353 0.999 . S
H2357 C2338 0.913 . S
H2358 C2376 0.951 . S
H2359 C2378 0.951 . S
H2360 C2380 0.950 . S
H2361 C2381 0.950 . S
H2362 C2383 0.950 . S
H2363 C2386 0.950 . S
H2364 C2387 0.950 . S
H2365 C2389 0.950 . S
H2366 C2390 0.950 . S
H2367 C2391 0.951 . S
H2368 C2393 0.951 . S
H2369 C2395 0.950 . S
H2370 C2396 0.950 . S
H2371 C2398 0.950 . S
H2372 C2401 0.950 . S
H2373 C2402 0.950 . S
H2374 C2404 0.950 . S
H2375 C2405 0.950 . S
C2376 H2358 0.951 . S
C2376 C2377 1.366 . S
C2376 C2378 1.388 . S
C2377 C2376 1.366 . S
C2377 C2381 1.385 . S
C2378 H2359 0.951 . S
C2378 C2376 1.388 . S
C2378 C2379 1.366 . S
C2379 C2378 1.366 . S
C2379 C2380 1.414 . S
C2379 C2382 1.499 . S
C2380 H2360 0.950 . S
C2380 C2379 1.414 . S
C2380 C2381 1.374 . S
C2381 H2361 0.950 . S
C2381 C2377 1.385 . S
C2381 C2380 1.374 . S
C2382 C2379 1.499 . S
C2382 C2383 1.373 1_655 S
C2382 C2384 1.389 . S
C2383 H2362 0.950 . S
C2383 C2382 1.373 1_455 S
C2383 C2399 1.377 . S
C2384 C2382 1.389 . S
C2384 C2385 1.524 . S
C2384 C2398 1.377 1_655 S
C2385 C2384 1.524 . S
C2385 C2386 1.397 . S
C2385 C2390 1.363 . S
C2386 H2363 0.950 . S
C2386 C2385 1.397 . S
C2386 C2387 1.334 . S
C2387 H2364 0.950 . S
C2387 C2386 1.334 . S
C2387 C2388 1.287 . S
C2388 C2387 1.287 . S
C2388 C2389 1.524 . S
C2388 H2407 0.913 . S
C2389 H2365 0.950 . S
C2389 C2388 1.524 . S
C2389 C2390 1.415 . S
C2390 H2366 0.950 . S
C2390 C2385 1.363 . S
C2390 C2389 1.415 . S
C2391 H2367 0.951 . S
C2391 C2392 1.366 . S
C2391 C2393 1.388 . S
C2392 C2391 1.366 . S
C2392 C2396 1.385 . S
C2393 H2368 0.951 . S
C2393 C2391 1.388 . S
C2393 C2394 1.366 . S
C2394 C2393 1.366 . S
C2394 C2395 1.414 . S
C2394 C2397 1.499 . S
C2395 H2369 0.950 . S
C2395 C2394 1.414 . S
C2395 C2396 1.374 . S
C2396 H2370 0.950 . S
C2396 C2392 1.385 . S
C2396 C2395 1.374 . S
C2397 C2394 1.499 . S
C2397 C2398 1.373 . S
C2397 C2399 1.389 . S
C2398 H2371 0.950 . S
C2398 C2384 1.377 1_455 S
C2398 C2397 1.373 . S
C2399 C2383 1.377 . S
C2399 C2397 1.389 . S
C2399 C2400 1.524 . S
C2400 C2399 1.524 . S
C2400 C2401 1.397 . S
C2400 C2405 1.363 . S
C2401 H2372 0.950 . S
C2401 C2400 1.397 . S
C2401 C2402 1.334 . S
C2402 H2373 0.950 . S
C2402 C2401 1.334 . S
C2402 C2403 1.287 . S
C2403 C2402 1.287 . S
C2403 C2404 1.524 . S
C2403 H2406 0.999 . S
C2404 H2374 0.950 . S
C2404 C2403 1.524 . S
C2404 C2405 1.415 . S
C2405 H2375 0.950 . S
C2405 C2400 1.363 . S
C2405 C2404 1.415 . S
H2406 C2403 0.999 . S
H2407 C2388 0.913 . S
H2408 C2426 0.951 . S
H2409 C2428 0.951 . S
H2410 C2430 0.950 . S
H2411 C2431 0.950 . S
H2412 C2433 0.950 . S
H2413 C2436 0.950 . S
H2414 C2437 0.950 . S
H2415 C2439 0.950 . S
H2416 C2440 0.950 . S
H2417 C2441 0.951 . S
H2418 C2443 0.951 . S
H2419 C2445 0.950 . S
H2420 C2446 0.950 . S
H2421 C2448 0.950 . S
H2422 C2451 0.950 . S
H2423 C2452 0.950 . S
H2424 C2454 0.950 . S
H2425 C2455 0.950 . S
C2426 H2408 0.951 . S
C2426 C2427 1.366 . S
C2426 C2428 1.388 . S
C2427 C2426 1.366 . S
C2427 C2431 1.385 . S
C2428 H2409 0.951 . S
C2428 C2426 1.388 . S
C2428 C2429 1.366 . S
C2429 C2428 1.366 . S
C2429 C2430 1.414 . S
C2429 C2432 1.499 . S
C2430 H2410 0.950 . S
C2430 C2429 1.414 . S
C2430 C2431 1.374 . S
C2431 H2411 0.950 . S
C2431 C2427 1.385 . S
C2431 C2430 1.374 . S
C2432 C2429 1.499 . S
C2432 C2433 1.373 . S
C2432 C2434 1.389 . S
C2433 H2412 0.950 . S
C2433 C2432 1.373 . S
C2433 C2449 1.377 . S
C2434 C2432 1.389 . S
C2434 C2435 1.524 . S
C2434 C2448 1.377 . S
C2435 C2434 1.524 . S
C2435 C2436 1.397 . S
C2435 C2440 1.363 . S
C2436 H2413 0.950 . S
C2436 C2435 1.397 . S
C2436 C2437 1.334 . S
C2437 H2414 0.950 . S
C2437 C2436 1.334 . S
C2437 C2438 1.287 . S
C2438 C2437 1.287 . S
C2438 C2439 1.524 . S
C2438 H2457 0.913 . S
C2439 H2415 0.950 . S
C2439 C2438 1.524 . S
C2439 C2440 1.415 . S
C2440 H2416 0.950 . S
C2440 C2435 1.363 . S
C2440 C2439 1.415 . S
C2441 H2417 0.951 . S
C2441 C2442 1.366 . S
C2441 C2443 1.388 . S
C2442 C2441 1.366 . S
C2442 C2446 1.385 . S
C2443 H2418 0.951 . S
C2443 C2441 1.388 . S
C2443 C2444 1.366 . S
C2444 C2443 1.366 . S
C2444 C2445 1.414 . S
C2444 C2447 1.499 . S
C2445 H2419 0.950 . S
C2445 C2444 1.414 . S
C2445 C2446 1.374 . S
C2446 H2420 0.950 . S
C2446 C2442 1.385 . S
C2446 C2445 1.374 . S
C2447 C2444 1.499 . S
C2447 C2448 1.373 . S
C2447 C2449 1.389 . S
C2448 H2421 0.950 . S
C2448 C2434 1.377 . S
C2448 C2447 1.373 . S
C2449 C2433 1.377 . S
C2449 C2447 1.389 . S
C2449 C2450 1.524 . S
C2450 C2449 1.524 . S
C2450 C2451 1.397 . S
C2450 C2455 1.363 . S
C2451 H2422 0.950 . S
C2451 C2450 1.397 . S
C2451 C2452 1.334 . S
C2452 H2423 0.950 . S
C2452 C2451 1.334 . S
C2452 C2453 1.287 . S
C2453 C2452 1.287 . S
C2453 C2454 1.524 . S
C2453 H2456 0.999 . S
C2454 H2424 0.950 . S
C2454 C2453 1.524 . S
C2454 C2455 1.415 . S
C2455 H2425 0.950 . S
C2455 C2450 1.363 . S
C2455 C2454 1.415 . S
H2456 C2453 0.999 . S
H2457 C2438 0.913 . S
H2458 C2476 0.951 . S
H2459 C2478 0.951 . S
H2460 C2480 0.900 1_556 S
H2461 C2481 0.950 . S
H2462 C2483 0.950 . S
H2463 C2486 0.950 . S
H2464 C2487 0.950 . S
H2465 C2489 0.950 . S
H2466 C2490 0.950 . S
H2467 C2491 0.951 . S
H2468 C2493 0.951 . S
H2469 C2495 0.950 . S
H2470 C2496 0.950 . S
H2471 C2498 0.950 . S
H2472 C2501 0.950 . S
H2473 C2502 0.950 . S
H2474 C2504 0.950 . S
H2475 C2505 0.950 . S
C2476 H2458 0.951 . S
C2476 C2477 1.366 . S
C2476 C2478 1.388 . S
C2477 C2476 1.366 . S
C2477 C2481 1.385 . S
C2478 H2459 0.951 . S
C2478 C2476 1.388 . S
C2478 C2479 1.408 . S
C2479 C2478 1.408 . S
C2479 C2480 1.415 . S
C2479 C2482 1.459 1_554 S
C2480 H2460 0.900 1_554 S
C2480 C2479 1.415 . S
C2480 C2481 1.423 . S
C2481 H2461 0.950 . S
C2481 C2477 1.385 . S
C2481 C2480 1.423 . S
C2482 C2479 1.459 1_556 S
C2482 C2483 1.373 . S
C2482 C2484 1.389 . S
C2483 H2462 0.950 . S
C2483 C2482 1.373 . S
C2483 C2499 1.377 . S
C2484 C2482 1.389 . S
C2484 C2485 1.524 1_556 S
C2484 C2498 1.377 . S
C2485 C2484 1.524 1_554 S
C2485 C2486 1.397 . S
C2485 C2490 1.363 . S
C2486 H2463 0.950 . S
C2486 C2485 1.397 . S
C2486 C2487 1.334 . S
C2487 H2464 0.950 . S
C2487 C2486 1.334 . S
C2487 C2488 1.287 . S
C2488 C2487 1.287 . S
C2488 C2489 1.524 . S
C2488 H2507 0.913 . S
C2489 H2465 0.950 . S
C2489 C2488 1.524 . S
C2489 C2490 1.415 . S
C2490 H2466 0.950 . S
C2490 C2485 1.363 . S
C2490 C2489 1.415 . S
C2491 H2467 0.951 . S
C2491 C2492 1.366 . S
C2491 C2493 1.388 . S
C2492 C2491 1.366 . S
C2492 C2496 1.385 . S
C2493 H2468 0.951 . S
C2493 C2491 1.388 . S
C2493 C2494 1.366 . S
C2494 C2493 1.366 . S
C2494 C2495 1.414 . S
C2494 C2497 1.499 . S
C2495 H2469 0.950 . S
C2495 C2494 1.414 . S
C2495 C2496 1.374 . S
C2496 H2470 0.950 . S
C2496 C2492 1.385 . S
C2496 C2495 1.374 . S
C2497 C2494 1.499 . S
C2497 C2498 1.373 . S
C2497 C2499 1.389 . S
C2498 H2471 0.950 . S
C2498 C2484 1.377 . S
C2498 C2497 1.373 . S
C2499 C2483 1.377 . S
C2499 C2497 1.389 . S
C2499 C2500 1.524 . S
C2500 C2499 1.524 . S
C2500 C2501 1.397 . S
C2500 C2505 1.363 . S
C2501 H2472 0.950 . S
C2501 C2500 1.397 . S
C2501 C2502 1.334 . S
C2502 H2473 0.950 . S
C2502 C2501 1.334 . S
C2502 C2503 1.287 . S
C2503 C2502 1.287 . S
C2503 C2504 1.524 . S
C2503 H2506 0.999 . S
C2504 H2474 0.950 . S
C2504 C2503 1.524 . S
C2504 C2505 1.415 . S
C2505 H2475 0.950 . S
C2505 C2500 1.363 . S
C2505 C2504 1.415 . S
H2506 C2503 0.999 . S
H2507 C2488 0.913 . S
H2508 C2526 0.951 . S
H2509 C2528 0.951 . S
H2510 C2530 0.950 . S
H2511 C2531 0.950 . S
H2512 C2533 0.950 . S
H2513 C2536 0.950 . S
H2514 C2537 0.950 . S
H2515 C2539 0.950 . S
H2516 C2540 0.950 . S
H2517 C2541 0.951 . S
H2518 C2543 0.951 . S
H2519 C2545 0.950 . S
H2520 C2546 0.950 . S
H2521 C2548 0.950 . S
H2522 C2551 0.950 . S
H2523 C2552 0.950 . S
H2524 C2554 0.950 . S
H2525 C2555 0.950 . S
C2526 H2508 0.951 . S
C2526 C2527 1.366 . S
C2526 C2528 1.388 . S
C2527 C2526 1.366 . S
C2527 C2531 1.385 . S
C2528 H2509 0.951 . S
C2528 C2526 1.388 . S
C2528 C2529 1.366 . S
C2529 C2528 1.366 . S
C2529 C2530 1.414 . S
C2529 C2532 1.499 . S
C2530 H2510 0.950 . S
C2530 C2529 1.414 . S
C2530 C2531 1.374 . S
C2531 H2511 0.950 . S
C2531 C2527 1.385 . S
C2531 C2530 1.374 . S
C2532 C2529 1.499 . S
C2532 C2533 1.373 . S
C2532 C2534 1.389 . S
C2533 H2512 0.950 . S
C2533 C2532 1.373 . S
C2533 C2549 1.377 . S
C2534 C2532 1.389 . S
C2534 C2535 1.524 . S
C2534 C2548 1.377 . S
C2535 C2534 1.524 . S
C2535 C2536 1.397 . S
C2535 C2540 1.363 . S
C2536 H2513 0.950 . S
C2536 C2535 1.397 . S
C2536 C2537 1.334 . S
C2537 H2514 0.950 . S
C2537 C2536 1.334 . S
C2537 C2538 1.287 . S
C2538 C2537 1.287 . S
C2538 C2539 1.524 . S
C2538 H2557 0.913 . S
C2539 H2515 0.950 . S
C2539 C2538 1.524 . S
C2539 C2540 1.415 . S
C2540 H2516 0.950 . S
C2540 C2535 1.363 . S
C2540 C2539 1.415 . S
C2541 H2517 0.951 . S
C2541 C2542 1.366 . S
C2541 C2543 1.388 . S
C2542 C2541 1.366 . S
C2542 C2546 1.385 . S
C2543 H2518 0.951 . S
C2543 C2541 1.388 . S
C2543 C2544 1.366 . S
C2544 C2543 1.366 . S
C2544 C2545 1.414 . S
C2544 C2547 1.499 . S
C2545 H2519 0.950 . S
C2545 C2544 1.414 . S
C2545 C2546 1.374 . S
C2546 H2520 0.950 . S
C2546 C2542 1.385 . S
C2546 C2545 1.374 . S
C2547 C2544 1.499 . S
C2547 C2548 1.373 . S
C2547 C2549 1.389 . S
C2548 H2521 0.950 . S
C2548 C2534 1.377 . S
C2548 C2547 1.373 . S
C2549 C2533 1.377 . S
C2549 C2547 1.389 . S
C2549 C2550 1.524 . S
C2550 C2549 1.524 . S
C2550 C2551 1.397 . S
C2550 C2555 1.363 . S
C2551 H2522 0.950 . S
C2551 C2550 1.397 . S
C2551 C2552 1.334 . S
C2552 H2523 0.950 . S
C2552 C2551 1.334 . S
C2552 C2553 1.287 . S
C2553 C2552 1.287 . S
C2553 C2554 1.524 . S
C2553 H2556 0.999 . S
C2554 H2524 0.950 . S
C2554 C2553 1.524 . S
C2554 C2555 1.415 . S
C2555 H2525 0.950 . S
C2555 C2550 1.363 . S
C2555 C2554 1.415 . S
H2556 C2553 0.999 . S
H2557 C2538 0.913 . S
H2558 C2576 0.951 . S
H2559 C2578 0.951 . S
H2560 C2580 0.950 . S
H2561 C2581 0.950 . S
H2562 C2583 0.950 . S
H2563 C2586 0.950 . S
H2564 C2587 0.950 . S
H2565 C2589 0.950 . S
H2566 C2590 0.950 . S
H2567 C2591 0.951 . S
H2568 C2593 0.951 . S
H2569 C2595 0.950 . S
H2570 C2596 0.950 . S
H2571 C2598 0.950 . S
H2572 C2601 0.950 . S
H2573 C2602 0.950 . S
H2574 C2604 0.950 . S
H2575 C2605 0.950 . S
C2576 H2558 0.951 . S
C2576 C2577 1.366 . S
C2576 C2578 1.388 . S
C2577 C2576 1.366 . S
C2577 C2581 1.385 . S
C2578 H2559 0.951 . S
C2578 C2576 1.388 . S
C2578 C2579 1.366 . S
C2579 C2578 1.366 . S
C2579 C2580 1.414 . S
C2579 C2582 1.499 . S
C2580 H2560 0.950 . S
C2580 C2579 1.414 . S
C2580 C2581 1.374 . S
C2581 H2561 0.950 . S
C2581 C2577 1.385 . S
C2581 C2580 1.374 . S
C2582 C2579 1.499 . S
C2582 C2583 1.373 1_554 S
C2582 C2584 1.389 . S
C2583 H2562 0.950 . S
C2583 C2582 1.373 1_556 S
C2583 C2599 1.377 . S
C2584 C2582 1.389 . S
C2584 C2585 1.524 . S
C2584 C2598 1.377 1_554 S
C2585 C2584 1.524 . S
C2585 C2586 1.397 . S
C2585 C2590 1.363 . S
C2586 H2563 0.950 . S
C2586 C2585 1.397 . S
C2586 C2587 1.334 . S
C2587 H2564 0.950 . S
C2587 C2586 1.334 . S
C2587 C2588 1.287 . S
C2588 C2587 1.287 . S
C2588 C2589 1.524 . S
C2588 H2607 0.913 . S
C2589 H2565 0.950 . S
C2589 C2588 1.524 . S
C2589 C2590 1.415 . S
C2590 H2566 0.950 . S
C2590 C2585 1.363 . S
C2590 C2589 1.415 . S
C2591 H2567 0.951 . S
C2591 C2592 1.366 . S
C2591 C2593 1.388 . S
C2592 C2591 1.366 . S
C2592 C2596 1.385 . S
C2593 H2568 0.951 . S
C2593 C2591 1.388 . S
C2593 C2594 1.366 . S
C2594 C2593 1.366 . S
C2594 C2595 1.414 . S
C2594 C2597 1.499 . S
C2595 H2569 0.950 . S
C2595 C2594 1.414 . S
C2595 C2596 1.374 . S
C2596 H2570 0.950 . S
C2596 C2592 1.385 . S
C2596 C2595 1.374 . S
C2597 C2594 1.499 . S
C2597 C2598 1.373 . S
C2597 C2599 1.389 . S
C2598 H2571 0.950 . S
C2598 C2584 1.377 1_556 S
C2598 C2597 1.373 . S
C2599 C2583 1.377 . S
C2599 C2597 1.389 . S
C2599 C2600 1.524 . S
C2600 C2599 1.524 . S
C2600 C2601 1.397 . S
C2600 C2605 1.363 . S
C2601 H2572 0.950 . S
C2601 C2600 1.397 . S
C2601 C2602 1.334 . S
C2602 H2573 0.950 . S
C2602 C2601 1.334 . S
C2602 C2603 1.287 . S
C2603 C2602 1.287 . S
C2603 C2604 1.524 . S
C2603 H2606 0.999 . S
C2604 H2574 0.950 . S
C2604 C2603 1.524 . S
C2604 C2605 1.415 . S
C2605 H2575 0.950 . S
C2605 C2600 1.363 . S
C2605 C2604 1.415 . S
H2606 C2603 0.999 . S
H2607 C2588 0.913 . S
H2608 C2626 0.951 . S
H2609 C2628 0.951 . S
H2610 C2630 0.950 . S
H2611 C2631 0.950 . S
H2612 C2633 0.950 . S
H2613 C2636 0.950 . S
H2614 C2637 0.950 . S
H2615 C2639 0.950 . S
H2616 C2640 0.950 . S
H2617 C2641 0.951 . S
H2618 C2643 0.951 . S
H2619 C2645 0.950 . S
H2620 C2646 0.950 . S
H2621 C2648 0.950 . S
H2622 C2651 0.950 . S
H2623 C2652 0.950 . S
H2624 C2654 0.950 . S
H2625 C2655 0.950 . S
C2626 H2608 0.951 . S
C2626 C2627 1.366 . S
C2626 C2628 1.388 . S
C2627 C2626 1.366 . S
C2627 C2631 1.385 . S
C2628 H2609 0.951 . S
C2628 C2626 1.388 . S
C2628 C2629 1.366 . S
C2629 C2628 1.366 . S
C2629 C2630 1.414 . S
C2629 C2632 1.499 . S
C2630 H2610 0.950 . S
C2630 C2629 1.414 . S
C2630 C2631 1.374 . S
C2631 H2611 0.950 . S
C2631 C2627 1.385 . S
C2631 C2630 1.374 . S
C2632 C2629 1.499 . S
C2632 C2633 1.373 . S
C2632 C2634 1.389 . S
C2633 H2612 0.950 . S
C2633 C2632 1.373 . S
C2633 C2649 1.377 . S
C2634 C2632 1.389 . S
C2634 C2635 1.524 . S
C2634 C2648 1.377 . S
C2635 C2634 1.524 . S
C2635 C2636 1.397 . S
C2635 C2640 1.363 . S
C2636 H2613 0.950 . S
C2636 C2635 1.397 . S
C2636 C2637 1.334 . S
C2637 H2614 0.950 . S
C2637 C2636 1.334 . S
C2637 C2638 1.287 . S
C2638 C2637 1.287 . S
C2638 C2639 1.524 . S
C2638 H2657 0.913 . S
C2639 H2615 0.950 . S
C2639 C2638 1.524 . S
C2639 C2640 1.415 . S
C2640 H2616 0.950 . S
C2640 C2635 1.363 . S
C2640 C2639 1.415 . S
C2641 H2617 0.951 . S
C2641 C2642 1.366 . S
C2641 C2643 1.388 . S
C2642 C2641 1.366 . S
C2642 C2646 1.385 . S
C2643 H2618 0.951 . S
C2643 C2641 1.388 . S
C2643 C2644 1.366 . S
C2644 C2643 1.366 . S
C2644 C2645 1.414 . S
C2644 C2647 1.499 . S
C2645 H2619 0.950 . S
C2645 C2644 1.414 . S
C2645 C2646 1.374 . S
C2646 H2620 0.950 . S
C2646 C2642 1.385 . S
C2646 C2645 1.374 . S
C2647 C2644 1.499 . S
C2647 C2648 1.373 . S
C2647 C2649 1.389 . S
C2648 H2621 0.950 . S
C2648 C2634 1.377 . S
C2648 C2647 1.373 . S
C2649 C2633 1.377 . S
C2649 C2647 1.389 . S
C2649 C2650 1.524 . S
C2650 C2649 1.524 . S
C2650 C2651 1.397 . S
C2650 C2655 1.363 . S
C2651 H2622 0.950 . S
C2651 C2650 1.397 . S
C2651 C2652 1.334 . S
C2652 H2623 0.950 . S
C2652 C2651 1.334 . S
C2652 C2653 1.287 . S
C2653 C2652 1.287 . S
C2653 C2654 1.524 . S
C2653 H2656 0.999 . S
C2654 H2624 0.950 . S
C2654 C2653 1.524 . S
C2654 C2655 1.415 . S
C2655 H2625 0.950 . S
C2655 C2650 1.363 . S
C2655 C2654 1.415 . S
H2656 C2653 0.999 . S
H2657 C2638 0.913 . S
H2658 C2676 0.951 . S
H2659 C2678 0.966 . S
H2660 C2680 0.950 . S
H2661 C2681 0.950 . S
H2662 C2683 0.950 . S
H2663 C2686 0.950 1_556 S
H2664 C2687 0.950 . S
H2665 C2689 0.950 . S
H2666 C2690 0.950 . S
H2667 C2691 0.951 . S
H2668 C2693 0.951 . S
H2669 C2695 0.950 . S
H2670 C2696 0.950 . S
H2671 C2698 0.950 . S
H2672 C2701 0.950 . S
H2673 C2702 0.950 . S
H2674 C2704 0.950 . S
H2675 C2705 0.950 . S
C2676 H2658 0.951 . S
C2676 C2677 1.366 . S
C2676 C2678 1.372 1_556 S
C2677 C2676 1.366 . S
C2677 C2681 1.385 . S
C2678 H2659 0.966 . S
C2678 C2676 1.372 1_554 S
C2678 C2679 1.367 . S
C2679 C2678 1.367 . S
C2679 C2680 1.414 1_554 S
C2679 C2682 1.499 . S
C2680 H2660 0.950 . S
C2680 C2679 1.414 1_556 S
C2680 C2681 1.374 . S
C2681 H2661 0.950 . S
C2681 C2677 1.385 . S
C2681 C2680 1.374 . S
C2682 C2679 1.499 . S
C2682 C2683 1.373 . S
C2682 C2684 1.389 . S
C2683 H2662 0.950 . S
C2683 C2682 1.373 . S
C2683 C2699 1.377 . S
C2684 C2682 1.389 . S
C2684 C2685 1.524 . S
C2684 C2698 1.377 . S
C2685 C2684 1.524 . S
C2685 C2686 1.397 . S
C2685 C2690 1.363 . S
C2686 H2663 0.950 1_554 S
C2686 C2685 1.397 . S
C2686 C2687 1.334 1_554 S
C2687 H2664 0.950 . S
C2687 C2686 1.334 1_556 S
C2687 C2688 1.287 1_556 S
C2688 C2687 1.287 1_554 S
C2688 C2689 1.524 . S
C2688 H2707 0.913 1_554 S
C2689 H2665 0.950 . S
C2689 C2688 1.524 . S
C2689 C2690 1.415 . S
C2690 H2666 0.950 . S
C2690 C2685 1.363 . S
C2690 C2689 1.415 . S
C2691 H2667 0.951 . S
C2691 C2692 1.366 . S
C2691 C2693 1.388 . S
C2692 C2691 1.366 . S
C2692 C2696 1.385 . S
C2693 H2668 0.951 . S
C2693 C2691 1.388 . S
C2693 C2694 1.366 . S
C2694 C2693 1.366 . S
C2694 C2695 1.414 . S
C2694 C2697 1.499 . S
C2695 H2669 0.950 . S
C2695 C2694 1.414 . S
C2695 C2696 1.374 . S
C2696 H2670 0.950 . S
C2696 C2692 1.385 . S
C2696 C2695 1.374 . S
C2697 C2694 1.499 . S
C2697 C2698 1.373 . S
C2697 C2699 1.389 . S
C2698 H2671 0.950 . S
C2698 C2684 1.377 . S
C2698 C2697 1.373 . S
C2699 C2683 1.377 . S
C2699 C2697 1.389 . S
C2699 C2700 1.524 . S
C2700 C2699 1.524 . S
C2700 C2701 1.397 . S
C2700 C2705 1.363 . S
C2701 H2672 0.950 . S
C2701 C2700 1.397 . S
C2701 C2702 1.334 . S
C2702 H2673 0.950 . S
C2702 C2701 1.334 . S
C2702 C2703 1.287 . S
C2703 C2702 1.287 . S
C2703 C2704 1.524 . S
C2703 H2706 0.999 . S
C2704 H2674 0.950 . S
C2704 C2703 1.524 . S
C2704 C2705 1.415 . S
C2705 H2675 0.950 . S
C2705 C2700 1.363 . S
C2705 C2704 1.415 . S
H2706 C2703 0.999 . S
H2707 C2688 0.913 1_556 S
H2708 C2726 0.951 . S
H2709 C2728 0.951 . S
H2710 C2730 0.950 . S
H2711 C2731 0.950 . S
H2712 C2733 0.950 . S
H2713 C2736 0.950 . S
H2714 C2737 0.950 . S
H2715 C2739 0.950 . S
H2716 C2740 0.950 . S
H2717 C2741 0.951 . S
H2718 C2743 0.951 . S
H2719 C2745 0.950 . S
H2720 C2746 0.950 . S
H2721 C2748 0.950 . S
H2722 C2751 0.950 . S
H2723 C2752 0.950 . S
H2724 C2754 0.950 . S
H2725 C2755 0.950 . S
C2726 H2708 0.951 . S
C2726 C2727 1.366 . S
C2726 C2728 1.388 . S
C2727 C2726 1.366 . S
C2727 C2731 1.385 . S
C2728 H2709 0.951 . S
C2728 C2726 1.388 . S
C2728 C2729 1.366 . S
C2729 C2728 1.366 . S
C2729 C2730 1.414 . S
C2729 C2732 1.499 . S
C2730 H2710 0.950 . S
C2730 C2729 1.414 . S
C2730 C2731 1.374 . S
C2731 H2711 0.950 . S
C2731 C2727 1.385 . S
C2731 C2730 1.374 . S
C2732 C2729 1.499 . S
C2732 C2733 1.373 . S
C2732 C2734 1.389 . S
C2733 H2712 0.950 . S
C2733 C2732 1.373 . S
C2733 C2749 1.377 . S
C2734 C2732 1.389 . S
C2734 C2735 1.524 . S
C2734 C2748 1.377 . S
C2735 C2734 1.524 . S
C2735 C2736 1.397 . S
C2735 C2740 1.363 . S
C2736 H2713 0.950 . S
C2736 C2735 1.397 . S
C2736 C2737 1.334 . S
C2737 H2714 0.950 . S
C2737 C2736 1.334 . S
C2737 C2738 1.287 . S
C2738 C2737 1.287 . S
C2738 C2739 1.524 . S
C2738 H2757 0.913 . S
C2739 H2715 0.950 . S
C2739 C2738 1.524 . S
C2739 C2740 1.415 . S
C2740 H2716 0.950 . S
C2740 C2735 1.363 . S
C2740 C2739 1.415 . S
C2741 H2717 0.951 . S
C2741 C2742 1.366 . S
C2741 C2743 1.388 . S
C2742 C2741 1.366 . S
C2742 C2746 1.385 . S
C2743 H2718 0.951 . S
C2743 C2741 1.388 . S
C2743 C2744 1.366 . S
C2744 C2743 1.366 . S
C2744 C2745 1.414 . S
C2744 C2747 1.499 . S
C2745 H2719 0.950 . S
C2745 C2744 1.414 . S
C2745 C2746 1.374 . S
C2746 H2720 0.950 . S
C2746 C2742 1.385 . S
C2746 C2745 1.374 . S
C2747 C2744 1.499 . S
C2747 C2748 1.373 . S
C2747 C2749 1.389 . S
C2748 H2721 0.950 . S
C2748 C2734 1.377 . S
C2748 C2747 1.373 . S
C2749 C2733 1.377 . S
C2749 C2747 1.389 . S
C2749 C2750 1.524 . S
C2750 C2749 1.524 . S
C2750 C2751 1.397 . S
C2750 C2755 1.363 . S
C2751 H2722 0.950 . S
C2751 C2750 1.397 . S
C2751 C2752 1.334 . S
C2752 H2723 0.950 . S
C2752 C2751 1.334 . S
C2752 C2753 1.287 . S
C2753 C2752 1.287 . S
C2753 C2754 1.524 . S
C2753 H2756 0.999 . S
C2754 H2724 0.950 . S
C2754 C2753 1.524 . S
C2754 C2755 1.415 . S
C2755 H2725 0.950 . S
C2755 C2750 1.363 . S
C2755 C2754 1.415 . S
H2756 C2753 0.999 . S
H2757 C2738 0.913 . S
H2758 C2776 0.951 . S
H2759 C2778 0.951 . S
H2760 C2780 0.950 . S
H2761 C2781 0.950 . S
H2762 C2783 0.950 . S
H2763 C2786 0.950 . S
H2764 C2787 0.950 . S
H2765 C2789 0.950 . S
H2766 C2790 0.950 . S
H2767 C2791 0.951 . S
H2768 C2793 0.951 . S
H2769 C2795 0.950 . S
H2770 C2796 0.950 . S
H2771 C2798 0.950 . S
H2772 C2801 0.950 . S
H2773 C2802 0.950 . S
H2774 C2804 0.950 . S
H2775 C2805 0.950 . S
C2776 H2758 0.951 . S
C2776 C2777 1.366 . S
C2776 C2778 1.388 1_556 S
C2777 C2776 1.366 . S
C2777 C2781 1.385 1_556 S
C2778 H2759 0.951 . S
C2778 C2776 1.388 1_554 S
C2778 C2779 1.366 . S
C2779 C2778 1.366 . S
C2779 C2780 1.414 . S
C2779 C2782 1.499 . S
C2780 H2760 0.950 . S
C2780 C2779 1.414 . S
C2780 C2781 1.374 . S
C2781 H2761 0.950 . S
C2781 C2777 1.385 1_554 S
C2781 C2780 1.374 . S
C2782 C2779 1.499 . S
C2782 C2783 1.373 . S
C2782 C2784 1.389 . S
C2783 H2762 0.950 . S
C2783 C2782 1.373 . S
C2783 C2799 1.377 . S
C2784 C2782 1.389 . S
C2784 C2785 1.524 . S
C2784 C2798 1.377 . S
C2785 C2784 1.524 . S
C2785 C2786 1.397 . S
C2785 C2790 1.363 . S
C2786 H2763 0.950 . S
C2786 C2785 1.397 . S
C2786 C2787 1.334 . S
C2787 H2764 0.950 . S
C2787 C2786 1.334 . S
C2787 C2788 1.287 . S
C2788 C2787 1.287 . S
C2788 C2789 1.524 . S
C2788 H2807 0.913 . S
C2789 H2765 0.950 . S
C2789 C2788 1.524 . S
C2789 C2790 1.415 . S
C2790 H2766 0.950 . S
C2790 C2785 1.363 . S
C2790 C2789 1.415 . S
C2791 H2767 0.951 . S
C2791 C2792 1.366 . S
C2791 C2793 1.388 . S
C2792 C2791 1.366 . S
C2792 C2796 1.385 . S
C2793 H2768 0.951 . S
C2793 C2791 1.388 . S
C2793 C2794 1.366 . S
C2794 C2793 1.366 . S
C2794 C2795 1.414 . S
C2794 C2797 1.499 . S
C2795 H2769 0.950 . S
C2795 C2794 1.414 . S
C2795 C2796 1.374 . S
C2796 H2770 0.950 . S
C2796 C2792 1.385 . S
C2796 C2795 1.374 . S
C2797 C2794 1.499 . S
C2797 C2798 1.373 . S
C2797 C2799 1.389 . S
C2798 H2771 0.950 . S
C2798 C2784 1.377 . S
C2798 C2797 1.373 . S
C2799 C2783 1.377 . S
C2799 C2797 1.389 . S
C2799 C2800 1.524 . S
C2800 C2799 1.524 . S
C2800 C2801 1.397 . S
C2800 C2805 1.363 . S
C2801 H2772 0.950 . S
C2801 C2800 1.397 . S
C2801 C2802 1.334 . S
C2802 H2773 0.950 . S
C2802 C2801 1.334 . S
C2802 C2803 1.287 . S
C2803 C2802 1.287 . S
C2803 C2804 1.524 . S
C2803 H2806 0.999 . S
C2804 H2774 0.950 . S
C2804 C2803 1.524 . S
C2804 C2805 1.415 . S
C2805 H2775 0.950 . S
C2805 C2800 1.363 . S
C2805 C2804 1.415 . S
H2806 C2803 0.999 . S
H2807 C2788 0.913 . S
H2808 C2826 0.951 . S
H2809 C2828 0.951 . S
H2810 C2830 0.950 . S
H2811 C2831 0.950 . S
H2812 C2833 0.950 . S
H2813 C2836 0.950 . S
H2814 C2837 0.950 . S
H2815 C2839 0.950 . S
H2816 C2840 0.950 . S
H2817 C2841 0.951 . S
H2818 C2843 0.951 . S
H2819 C2845 0.950 . S
H2820 C2846 0.950 . S
H2821 C2848 0.950 . S
H2822 C2851 0.950 . S
H2823 C2852 0.950 . S
H2824 C2854 0.950 . S
H2825 C2855 0.950 . S
C2826 H2808 0.951 . S
C2826 C2827 1.366 . S
C2826 C2828 1.388 . S
C2827 C2826 1.366 . S
C2827 C2831 1.385 . S
C2828 H2809 0.951 . S
C2828 C2826 1.388 . S
C2828 C2829 1.366 . S
C2829 C2828 1.366 . S
C2829 C2830 1.414 . S
C2829 C2832 1.499 . S
C2830 H2810 0.950 . S
C2830 C2829 1.414 . S
C2830 C2831 1.374 . S
C2831 H2811 0.950 . S
C2831 C2827 1.385 . S
C2831 C2830 1.374 . S
C2832 C2829 1.499 . S
C2832 C2833 1.373 . S
C2832 C2834 1.389 . S
C2833 H2812 0.950 . S
C2833 C2832 1.373 . S
C2833 C2849 1.377 . S
C2834 C2832 1.389 . S
C2834 C2835 1.524 . S
C2834 C2848 1.377 . S
C2835 C2834 1.524 . S
C2835 C2836 1.397 . S
C2835 C2840 1.363 . S
C2836 H2813 0.950 . S
C2836 C2835 1.397 . S
C2836 C2837 1.334 . S
C2837 H2814 0.950 . S
C2837 C2836 1.334 . S
C2837 C2838 1.287 . S
C2838 C2837 1.287 . S
C2838 C2839 1.524 . S
C2838 H2857 0.913 . S
C2839 H2815 0.950 . S
C2839 C2838 1.524 . S
C2839 C2840 1.415 . S
C2840 H2816 0.950 . S
C2840 C2835 1.363 . S
C2840 C2839 1.415 . S
C2841 H2817 0.951 . S
C2841 C2842 1.366 . S
C2841 C2843 1.388 . S
C2842 C2841 1.366 . S
C2842 C2846 1.385 . S
C2843 H2818 0.951 . S
C2843 C2841 1.388 . S
C2843 C2844 1.366 . S
C2844 C2843 1.366 . S
C2844 C2845 1.414 . S
C2844 C2847 1.499 . S
C2845 H2819 0.950 . S
C2845 C2844 1.414 . S
C2845 C2846 1.374 . S
C2846 H2820 0.950 . S
C2846 C2842 1.385 . S
C2846 C2845 1.374 . S
C2847 C2844 1.499 . S
C2847 C2848 1.373 . S
C2847 C2849 1.389 . S
C2848 H2821 0.950 . S
C2848 C2834 1.377 . S
C2848 C2847 1.373 . S
C2849 C2833 1.377 . S
C2849 C2847 1.389 . S
C2849 C2850 1.524 . S
C2850 C2849 1.524 . S
C2850 C2851 1.397 . S
C2850 C2855 1.363 . S
C2851 H2822 0.950 . S
C2851 C2850 1.397 . S
C2851 C2852 1.334 . S
C2852 H2823 0.950 . S
C2852 C2851 1.334 . S
C2852 C2853 1.287 . S
C2853 C2852 1.287 . S
C2853 C2854 1.524 . S
C2853 H2856 0.999 . S
C2854 H2824 0.950 . S
C2854 C2853 1.524 . S
C2854 C2855 1.415 . S
C2855 H2825 0.950 . S
C2855 C2850 1.363 . S
C2855 C2854 1.415 . S
H2856 C2853 0.999 . S
H2857 C2838 0.913 . S
H2858 C2876 0.951 . S
H2859 C2878 0.951 . S
H2860 C2880 0.950 . S
H2861 C2881 0.950 . S
H2862 C2883 0.950 . S
H2863 C2886 0.950 . S
H2864 C2887 0.950 . S
H2865 C2889 0.950 . S
H2866 C2890 0.950 . S
H2867 C2891 0.951 . S
H2868 C2893 0.951 . S
H2869 C2895 0.950 . S
H2870 C2896 0.950 . S
H2871 C2898 0.950 . S
H2872 C2901 0.950 . S
H2873 C2902 0.950 . S
H2874 C2904 0.950 . S
H2875 C2905 0.950 . S
C2876 H2858 0.951 . S
C2876 C2877 1.366 . S
C2876 C2878 1.388 . S
C2877 C2876 1.366 . S
C2877 C2881 1.385 . S
C2878 H2859 0.951 . S
C2878 C2876 1.388 . S
C2878 C2879 1.366 . S
C2879 C2878 1.366 . S
C2879 C2880 1.414 . S
C2879 C2882 1.499 . S
C2880 H2860 0.950 . S
C2880 C2879 1.414 . S
C2880 C2881 1.374 . S
C2881 H2861 0.950 . S
C2881 C2877 1.385 . S
C2881 C2880 1.374 . S
C2882 C2879 1.499 . S
C2882 C2883 1.373 . S
C2882 C2884 1.389 . S
C2883 H2862 0.950 . S
C2883 C2882 1.373 . S
C2883 C2899 1.377 . S
C2884 C2882 1.389 . S
C2884 C2885 1.524 . S
C2884 C2898 1.377 . S
C2885 C2884 1.524 . S
C2885 C2886 1.397 . S
C2885 C2890 1.363 . S
C2886 H2863 0.950 . S
C2886 C2885 1.397 . S
C2886 C2887 1.334 . S
C2887 H2864 0.950 . S
C2887 C2886 1.334 . S
C2887 C2888 1.287 . S
C2888 C2887 1.287 . S
C2888 C2889 1.524 . S
C2888 H2907 0.913 . S
C2889 H2865 0.950 . S
C2889 C2888 1.524 . S
C2889 C2890 1.415 . S
C2890 H2866 0.950 . S
C2890 C2885 1.363 . S
C2890 C2889 1.415 . S
C2891 H2867 0.951 . S
C2891 C2892 1.366 . S
C2891 C2893 1.388 . S
C2892 C2891 1.366 . S
C2892 C2896 1.385 . S
C2893 H2868 0.951 . S
C2893 C2891 1.388 . S
C2893 C2894 1.366 . S
C2894 C2893 1.366 . S
C2894 C2895 1.414 . S
C2894 C2897 1.499 . S
C2895 H2869 0.950 . S
C2895 C2894 1.414 . S
C2895 C2896 1.374 . S
C2896 H2870 0.950 . S
C2896 C2892 1.385 . S
C2896 C2895 1.374 . S
C2897 C2894 1.499 . S
C2897 C2898 1.373 . S
C2897 C2899 1.389 . S
C2898 H2871 0.950 . S
C2898 C2884 1.377 . S
C2898 C2897 1.373 . S
C2899 C2883 1.377 . S
C2899 C2897 1.389 . S
C2899 C2900 1.524 . S
C2900 C2899 1.524 . S
C2900 C2901 1.397 . S
C2900 C2905 1.363 . S
C2901 H2872 0.950 . S
C2901 C2900 1.397 . S
C2901 C2902 1.334 . S
C2902 H2873 0.950 . S
C2902 C2901 1.334 . S
C2902 C2903 1.287 . S
C2903 C2902 1.287 . S
C2903 C2904 1.524 . S
C2903 H2906 0.999 . S
C2904 H2874 0.950 . S
C2904 C2903 1.524 . S
C2904 C2905 1.415 . S
C2905 H2875 0.950 . S
C2905 C2900 1.363 . S
C2905 C2904 1.415 . S
H2906 C2903 0.999 . S
H2907 C2888 0.913 . S
H2908 C2926 0.951 . S
H2909 C2928 0.951 . S
H2910 C2930 0.950 . S
H2911 C2931 0.950 . S
H2912 C2933 0.950 . S
H2913 C2936 0.950 . S
H2914 C2937 0.950 . S
H2915 C2939 0.950 . S
H2916 C2940 0.950 . S
H2917 C2941 0.951 . S
H2918 C2943 0.951 . S
H2919 C2945 0.950 . S
H2920 C2946 0.950 . S
H2921 C2948 0.950 . S
H2922 C2951 0.950 . S
H2923 C2952 0.950 . S
H2924 C2954 0.950 . S
H2925 C2955 0.950 . S
C2926 H2908 0.951 . S
C2926 C2927 1.366 . S
C2926 C2928 1.388 . S
C2927 C2926 1.366 . S
C2927 C2931 1.385 . S
C2928 H2909 0.951 . S
C2928 C2926 1.388 . S
C2928 C2929 1.366 . S
C2929 C2928 1.366 . S
C2929 C2930 1.414 . S
C2929 C2932 1.499 . S
C2930 H2910 0.950 . S
C2930 C2929 1.414 . S
C2930 C2931 1.374 . S
C2931 H2911 0.950 . S
C2931 C2927 1.385 . S
C2931 C2930 1.374 . S
C2932 C2929 1.499 . S
C2932 C2933 1.373 . S
C2932 C2934 1.389 . S
C2933 H2912 0.950 . S
C2933 C2932 1.373 . S
C2933 C2949 1.377 . S
C2934 C2932 1.389 . S
C2934 C2935 1.524 . S
C2934 C2948 1.377 . S
C2935 C2934 1.524 . S
C2935 C2936 1.397 . S
C2935 C2940 1.363 . S
C2936 H2913 0.950 . S
C2936 C2935 1.397 . S
C2936 C2937 1.334 . S
C2937 H2914 0.950 . S
C2937 C2936 1.334 . S
C2937 C2938 1.287 . S
C2938 C2937 1.287 . S
C2938 C2939 1.524 . S
C2938 H2957 0.913 . S
C2939 H2915 0.950 . S
C2939 C2938 1.524 . S
C2939 C2940 1.415 . S
C2940 H2916 0.950 . S
C2940 C2935 1.363 . S
C2940 C2939 1.415 . S
C2941 H2917 0.951 . S
C2941 C2942 1.366 . S
C2941 C2943 1.388 . S
C2942 C2941 1.366 . S
C2942 C2946 1.385 . S
C2943 H2918 0.951 . S
C2943 C2941 1.388 . S
C2943 C2944 1.366 . S
C2944 C2943 1.366 . S
C2944 C2945 1.414 . S
C2944 C2947 1.499 . S
C2945 H2919 0.950 . S
C2945 C2944 1.414 . S
C2945 C2946 1.374 . S
C2946 H2920 0.950 . S
C2946 C2942 1.385 . S
C2946 C2945 1.374 . S
C2947 C2944 1.499 . S
C2947 C2948 1.373 . S
C2947 C2949 1.389 . S
C2948 H2921 0.950 . S
C2948 C2934 1.377 . S
C2948 C2947 1.373 . S
C2949 C2933 1.377 . S
C2949 C2947 1.389 . S
C2949 C2950 1.524 . S
C2950 C2949 1.524 . S
C2950 C2951 1.397 . S
C2950 C2955 1.363 . S
C2951 H2922 0.950 . S
C2951 C2950 1.397 . S
C2951 C2952 1.334 . S
C2952 H2923 0.950 . S
C2952 C2951 1.334 . S
C2952 C2953 1.287 . S
C2953 C2952 1.287 . S
C2953 C2954 1.524 . S
C2953 H2956 0.999 . S
C2954 H2924 0.950 . S
C2954 C2953 1.524 . S
C2954 C2955 1.415 . S
C2955 H2925 0.950 . S
C2955 C2950 1.363 . S
C2955 C2954 1.415 . S
H2956 C2953 0.999 . S
H2957 C2938 0.913 . S
H2958 C2976 0.951 . S
H2959 C2978 0.951 . S
H2960 C2980 0.950 . S
H2961 C2981 0.950 . S
H2962 C2983 0.950 . S
H2963 C2986 0.950 . S
H2964 C2987 0.950 . S
H2965 C2989 0.950 . S
H2966 C2990 0.950 . S
H2967 C2991 0.951 . S
H2968 C2993 0.951 . S
H2969 C2995 0.950 . S
H2970 C2996 0.950 . S
H2971 C2998 0.950 . S
H2972 C3001 0.950 . S
H2973 C3002 0.950 . S
H2974 C3004 0.950 . S
H2975 C3005 0.950 . S
C2976 H2958 0.951 . S
C2976 C2977 1.366 . S
C2976 C2978 1.388 . S
C2977 C2976 1.366 . S
C2977 C2981 1.385 . S
C2978 H2959 0.951 . S
C2978 C2976 1.388 . S
C2978 C2979 1.366 . S
C2979 C2978 1.366 . S
C2979 C2980 1.414 . S
C2979 C2982 1.499 . S
C2980 H2960 0.950 . S
C2980 C2979 1.414 . S
C2980 C2981 1.374 . S
C2981 H2961 0.950 . S
C2981 C2977 1.385 . S
C2981 C2980 1.374 . S
C2982 C2979 1.499 . S
C2982 C2983 1.373 . S
C2982 C2984 1.389 . S
C2983 H2962 0.950 . S
C2983 C2982 1.373 . S
C2983 C2999 1.377 . S
C2984 C2982 1.389 . S
C2984 C2985 1.524 . S
C2984 C2998 1.377 . S
C2985 C2984 1.524 . S
C2985 C2986 1.397 . S
C2985 C2990 1.363 . S
C2986 H2963 0.950 . S
C2986 C2985 1.397 . S
C2986 C2987 1.334 . S
C2987 H2964 0.950 . S
C2987 C2986 1.334 . S
C2987 C2988 1.287 . S
C2988 C2987 1.287 . S
C2988 C2989 1.524 . S
C2988 H3007 0.913 . S
C2989 H2965 0.950 . S
C2989 C2988 1.524 . S
C2989 C2990 1.415 . S
C2990 H2966 0.950 . S
C2990 C2985 1.363 . S
C2990 C2989 1.415 . S
C2991 H2967 0.951 . S
C2991 C2992 1.366 . S
C2991 C2993 1.388 . S
C2992 C2991 1.366 . S
C2992 C2996 1.385 . S
C2993 H2968 0.951 . S
C2993 C2991 1.388 . S
C2993 C2994 1.366 . S
C2994 C2993 1.366 . S
C2994 C2995 1.414 . S
C2994 C2997 1.499 . S
C2995 H2969 0.950 . S
C2995 C2994 1.414 . S
C2995 C2996 1.374 . S
C2996 H2970 0.950 . S
C2996 C2992 1.385 . S
C2996 C2995 1.374 . S
C2997 C2994 1.499 . S
C2997 C2998 1.373 . S
C2997 C2999 1.389 . S
C2998 H2971 0.950 . S
C2998 C2984 1.377 . S
C2998 C2997 1.373 . S
C2999 C2983 1.377 . S
C2999 C2997 1.389 . S
C2999 C3000 1.524 . S
C3000 C2999 1.524 . S
C3000 C3001 1.397 . S
C3000 C3005 1.363 . S
C3001 H2972 0.950 . S
C3001 C3000 1.397 . S
C3001 C3002 1.334 . S
C3002 H2973 0.950 . S
C3002 C3001 1.334 . S
C3002 C3003 1.287 . S
C3003 C3002 1.287 . S
C3003 C3004 1.524 . S
C3003 H3006 0.999 . S
C3004 H2974 0.950 . S
C3004 C3003 1.524 . S
C3004 C3005 1.415 . S
C3005 H2975 0.950 . S
C3005 C3000 1.363 . S
C3005 C3004 1.415 . S
H3006 C3003 0.999 . S
H3007 C2988 0.913 . S
H3008 C3026 0.951 . S
H3009 C3028 0.951 . S
H3010 C3030 0.950 . S
H3011 C3031 0.950 . S
H3012 C3033 0.950 . S
H3013 C3036 0.950 . S
H3014 C3037 0.950 . S
H3015 C3039 0.950 . S
H3016 C3040 0.950 . S
H3017 C3041 0.951 . S
H3018 C3043 0.951 . S
H3019 C3045 0.950 . S
H3020 C3046 0.950 1_554 S
H3021 C3048 0.950 . S
H3022 C3051 0.950 . S
H3023 C3052 0.950 . S
H3024 C3054 0.950 . S
H3025 C3055 0.950 . S
C3026 H3008 0.951 . S
C3026 C3027 1.366 . S
C3026 C3028 1.388 . S
C3027 C3026 1.366 . S
C3027 C3031 1.385 . S
C3028 H3009 0.951 . S
C3028 C3026 1.388 . S
C3028 C3029 1.366 . S
C3029 C3028 1.366 . S
C3029 C3030 1.414 . S
C3029 C3032 1.499 . S
C3030 H3010 0.950 . S
C3030 C3029 1.414 . S
C3030 C3031 1.374 . S
C3031 H3011 0.950 . S
C3031 C3027 1.385 . S
C3031 C3030 1.374 . S
C3032 C3029 1.499 . S
C3032 C3033 1.373 . S
C3032 C3034 1.389 . S
C3033 H3012 0.950 . S
C3033 C3032 1.373 . S
C3033 C3049 1.377 . S
C3034 C3032 1.389 . S
C3034 C3035 1.524 . S
C3034 C3048 1.377 . S
C3035 C3034 1.524 . S
C3035 C3036 1.397 . S
C3035 C3040 1.363 . S
C3036 H3013 0.950 . S
C3036 C3035 1.397 . S
C3036 C3037 1.334 . S
C3037 H3014 0.950 . S
C3037 C3036 1.334 . S
C3037 C3038 1.287 . S
C3038 C3037 1.287 . S
C3038 C3039 1.524 . S
C3038 H3057 0.913 . S
C3039 H3015 0.950 . S
C3039 C3038 1.524 . S
C3039 C3040 1.415 . S
C3040 H3016 0.950 . S
C3040 C3035 1.363 . S
C3040 C3039 1.415 . S
C3041 H3017 0.951 . S
C3041 C3042 1.366 . S
C3041 C3043 1.388 . S
C3042 C3041 1.366 . S
C3042 C3046 1.385 . S
C3043 H3018 0.951 . S
C3043 C3041 1.388 . S
C3043 C3044 1.366 . S
C3044 C3043 1.366 . S
C3044 C3045 1.414 . S
C3044 C3047 1.499 . S
C3045 H3019 0.950 . S
C3045 C3044 1.414 . S
C3045 C3046 1.374 . S
C3046 H3020 0.950 1_556 S
C3046 C3042 1.385 . S
C3046 C3045 1.374 . S
C3047 C3044 1.499 . S
C3047 C3048 1.373 . S
C3047 C3049 1.389 . S
C3048 H3021 0.950 . S
C3048 C3034 1.377 . S
C3048 C3047 1.373 . S
C3049 C3033 1.377 . S
C3049 C3047 1.389 . S
C3049 C3050 1.524 . S
C3050 C3049 1.524 . S
C3050 C3051 1.397 . S
C3050 C3055 1.363 . S
C3051 H3022 0.950 . S
C3051 C3050 1.397 . S
C3051 C3052 1.334 . S
C3052 H3023 0.950 . S
C3052 C3051 1.334 . S
C3052 C3053 1.287 . S
C3053 C3052 1.287 . S
C3053 C3054 1.524 . S
C3053 H3056 0.999 . S
C3054 H3024 0.950 . S
C3054 C3053 1.524 . S
C3054 C3055 1.415 . S
C3055 H3025 0.950 . S
C3055 C3050 1.363 . S
C3055 C3054 1.415 . S
H3056 C3053 0.999 . S
H3057 C3038 0.913 . S
H3058 C3076 0.951 . S
H3059 C3078 0.951 . S
H3060 C3080 0.950 . S
H3061 C3081 0.950 . S
H3062 C3083 0.950 . S
H3063 C3086 0.950 . S
H3064 C3087 0.950 . S
H3065 C3089 0.950 . S
H3066 C3090 0.950 . S
H3067 C3091 0.951 . S
H3068 C3093 0.951 . S
H3069 C3095 0.950 . S
H3070 C3096 0.950 . S
H3071 C3098 0.950 . S
H3072 C3101 0.950 . S
H3073 C3102 0.950 . S
H3074 C3104 0.950 . S
H3075 C3105 0.950 . S
C3076 H3058 0.951 . S
C3076 C3077 1.366 . S
C3076 C3078 1.388 . S
C3077 C3076 1.366 . S
C3077 C3081 1.385 . S
C3078 H3059 0.951 . S
C3078 C3076 1.388 . S
C3078 C3079 1.366 . S
C3079 C3078 1.366 . S
C3079 C3080 1.414 . S
C3079 C3082 1.499 . S
C3080 H3060 0.950 . S
C3080 C3079 1.414 . S
C3080 C3081 1.374 . S
C3081 H3061 0.950 . S
C3081 C3077 1.385 . S
C3081 C3080 1.374 . S
C3082 C3079 1.499 . S
C3082 C3083 1.373 . S
C3082 C3084 1.389 . S
C3083 H3062 0.950 . S
C3083 C3082 1.373 . S
C3083 C3099 1.377 . S
C3084 C3082 1.389 . S
C3084 C3085 1.524 . S
C3084 C3098 1.377 . S
C3085 C3084 1.524 . S
C3085 C3086 1.397 . S
C3085 C3090 1.363 . S
C3086 H3063 0.950 . S
C3086 C3085 1.397 . S
C3086 C3087 1.334 . S
C3087 H3064 0.950 . S
C3087 C3086 1.334 . S
C3087 C3088 1.287 . S
C3088 C3087 1.287 . S
C3088 C3089 1.524 . S
C3088 H3107 0.913 . S
C3089 H3065 0.950 . S
C3089 C3088 1.524 . S
C3089 C3090 1.415 . S
C3090 H3066 0.950 . S
C3090 C3085 1.363 . S
C3090 C3089 1.415 . S
C3091 H3067 0.951 . S
C3091 C3092 1.366 . S
C3091 C3093 1.388 . S
C3092 C3091 1.366 . S
C3092 C3096 1.385 . S
C3093 H3068 0.951 . S
C3093 C3091 1.388 . S
C3093 C3094 1.366 . S
C3094 C3093 1.366 . S
C3094 C3095 1.414 . S
C3094 C3097 1.499 . S
C3095 H3069 0.950 . S
C3095 C3094 1.414 . S
C3095 C3096 1.374 . S
C3096 H3070 0.950 . S
C3096 C3092 1.385 . S
C3096 C3095 1.374 . S
C3097 C3094 1.499 . S
C3097 C3098 1.373 . S
C3097 C3099 1.389 . S
C3098 H3071 0.950 . S
C3098 C3084 1.377 . S
C3098 C3097 1.373 . S
C3099 C3083 1.377 . S
C3099 C3097 1.389 . S
C3099 C3100 1.524 . S
C3100 C3099 1.524 . S
C3100 C3101 1.397 . S
C3100 C3105 1.363 . S
C3101 H3072 0.950 . S
C3101 C3100 1.397 . S
C3101 C3102 1.334 . S
C3102 H3073 0.950 . S
C3102 C3101 1.334 . S
C3102 C3103 1.287 . S
C3103 C3102 1.287 . S
C3103 C3104 1.524 . S
C3103 H3106 0.999 . S
C3104 H3074 0.950 . S
C3104 C3103 1.524 . S
C3104 C3105 1.415 . S
C3105 H3075 0.950 . S
C3105 C3100 1.363 . S
C3105 C3104 1.415 . S
H3106 C3103 0.999 . S
H3107 C3088 0.913 . S
H3108 C3126 0.951 . S
H3109 C3128 0.951 . S
H3110 C3130 0.950 . S
H3111 C3131 0.950 . S
H3112 C3133 0.950 . S
H3113 C3136 0.950 . S
H3114 C3137 0.950 . S
H3115 C3139 0.950 . S
H3116 C3140 0.950 . S
H3117 C3141 0.951 . S
H3118 C3143 0.951 . S
H3119 C3145 0.950 . S
H3120 C3146 0.950 . S
H3121 C3148 0.950 . S
H3122 C3151 0.950 . S
H3123 C3152 0.950 . S
H3124 C3154 0.950 . S
H3125 C3155 0.950 . S
C3126 H3108 0.951 . S
C3126 C3127 1.366 . S
C3126 C3128 1.388 . S
C3127 C3126 1.366 . S
C3127 C3131 1.385 . S
C3128 H3109 0.951 . S
C3128 C3126 1.388 . S
C3128 C3129 1.366 . S
C3129 C3128 1.366 . S
C3129 C3130 1.414 . S
C3129 C3132 1.499 . S
C3130 H3110 0.950 . S
C3130 C3129 1.414 . S
C3130 C3131 1.374 . S
C3131 H3111 0.950 . S
C3131 C3127 1.385 . S
C3131 C3130 1.374 . S
C3132 C3129 1.499 . S
C3132 C3133 1.373 . S
C3132 C3134 1.389 . S
C3133 H3112 0.950 . S
C3133 C3132 1.373 . S
C3133 C3149 1.377 . S
C3134 C3132 1.389 . S
C3134 C3135 1.524 . S
C3134 C3148 1.377 . S
C3135 C3134 1.524 . S
C3135 C3136 1.397 . S
C3135 C3140 1.363 . S
C3136 H3113 0.950 . S
C3136 C3135 1.397 . S
C3136 C3137 1.334 . S
C3137 H3114 0.950 . S
C3137 C3136 1.334 . S
C3137 C3138 1.287 . S
C3138 C3137 1.287 . S
C3138 C3139 1.524 . S
C3138 H3157 0.913 . S
C3139 H3115 0.950 . S
C3139 C3138 1.524 . S
C3139 C3140 1.415 . S
C3140 H3116 0.950 . S
C3140 C3135 1.363 . S
C3140 C3139 1.415 . S
C3141 H3117 0.951 . S
C3141 C3142 1.366 . S
C3141 C3143 1.388 . S
C3142 C3141 1.366 . S
C3142 C3146 1.385 . S
C3143 H3118 0.951 . S
C3143 C3141 1.388 . S
C3143 C3144 1.366 . S
C3144 C3143 1.366 . S
C3144 C3145 1.414 . S
C3144 C3147 1.499 . S
C3145 H3119 0.950 . S
C3145 C3144 1.414 . S
C3145 C3146 1.374 . S
C3146 H3120 0.950 . S
C3146 C3142 1.385 . S
C3146 C3145 1.374 . S
C3147 C3144 1.499 . S
C3147 C3148 1.373 . S
C3147 C3149 1.389 . S
C3148 H3121 0.950 . S
C3148 C3134 1.377 . S
C3148 C3147 1.373 . S
C3149 C3133 1.377 . S
C3149 C3147 1.389 . S
C3149 C3150 1.524 . S
C3150 C3149 1.524 . S
C3150 C3151 1.397 . S
C3150 C3155 1.363 . S
C3151 H3122 0.950 . S
C3151 C3150 1.397 . S
C3151 C3152 1.334 . S
C3152 H3123 0.950 . S
C3152 C3151 1.334 . S
C3152 C3153 1.287 . S
C3153 C3152 1.287 . S
C3153 C3154 1.524 . S
C3153 H3156 0.999 . S
C3154 H3124 0.950 . S
C3154 C3153 1.524 . S
C3154 C3155 1.415 . S
C3155 H3125 0.950 . S
C3155 C3150 1.363 . S
C3155 C3154 1.415 . S
H3156 C3153 0.999 . S
H3157 C3138 0.913 . S
H3158 C3176 0.951 . S
H3159 C3178 0.951 . S
H3160 C3180 0.950 . S
H3161 C3181 0.950 . S
H3162 C3183 0.950 . S
H3163 C3186 0.950 . S
H3164 C3187 0.950 . S
H3165 C3189 0.950 . S
H3166 C3190 0.950 . S
H3167 C3191 0.951 . S
H3168 C3193 0.951 . S
H3169 C3195 0.950 . S
H3170 C3196 0.950 . S
H3171 C3198 0.950 . S
H3172 C3201 0.950 . S
H3173 C3202 0.950 . S
H3174 C3204 0.949 1_545 S
H3175 C3205 0.950 . S
C3176 H3158 0.951 . S
C3176 C3177 1.366 . S
C3176 C3178 1.388 . S
C3177 C3176 1.366 . S
C3177 C3181 1.385 . S
C3178 H3159 0.951 . S
C3178 C3176 1.388 . S
C3178 C3179 1.366 . S
C3179 C3178 1.366 . S
C3179 C3180 1.414 . S
C3179 C3182 1.499 . S
C3180 H3160 0.950 . S
C3180 C3179 1.414 . S
C3180 C3181 1.374 . S
C3181 H3161 0.950 . S
C3181 C3177 1.385 . S
C3181 C3180 1.374 . S
C3182 C3179 1.499 . S
C3182 C3183 1.373 . S
C3182 C3184 1.389 . S
C3183 H3162 0.950 . S
C3183 C3182 1.373 . S
C3183 C3199 1.377 . S
C3184 C3182 1.389 . S
C3184 C3185 1.524 . S
C3184 C3198 1.377 . S
C3185 C3184 1.524 . S
C3185 C3186 1.397 . S
C3185 C3190 1.363 . S
C3186 H3163 0.950 . S
C3186 C3185 1.397 . S
C3186 C3187 1.334 . S
C3187 H3164 0.950 . S
C3187 C3186 1.334 . S
C3187 C3188 1.287 . S
C3188 C3187 1.287 . S
C3188 C3189 1.524 . S
C3188 H3207 0.913 . S
C3189 H3165 0.950 . S
C3189 C3188 1.524 . S
C3189 C3190 1.415 . S
C3190 H3166 0.950 . S
C3190 C3185 1.363 . S
C3190 C3189 1.415 . S
C3191 H3167 0.951 . S
C3191 C3192 1.366 . S
C3191 C3193 1.388 . S
C3192 C3191 1.366 . S
C3192 C3196 1.385 . S
C3193 H3168 0.951 . S
C3193 C3191 1.388 . S
C3193 C3194 1.366 . S
C3194 C3193 1.366 . S
C3194 C3195 1.414 . S
C3194 C3197 1.499 1_565 S
C3195 H3169 0.950 . S
C3195 C3194 1.414 . S
C3195 C3196 1.374 . S
C3196 H3170 0.950 . S
C3196 C3192 1.385 . S
C3196 C3195 1.374 . S
C3197 C3194 1.499 1_545 S
C3197 C3198 1.373 . S
C3197 C3199 1.389 . S
C3198 H3171 0.950 . S
C3198 C3184 1.377 . S
C3198 C3197 1.373 . S
C3199 C3183 1.377 . S
C3199 C3197 1.389 . S
C3199 C3200 1.494 1_545 S
C3200 C3199 1.494 1_565 S
C3200 C3201 1.459 . S
C3200 C3205 1.332 1_565 S
C3201 H3172 0.950 . S
C3201 C3200 1.459 . S
C3201 C3202 1.334 . S
C3202 H3173 0.950 . S
C3202 C3201 1.334 . S
C3202 C3203 1.287 . S
C3203 C3202 1.287 . S
C3203 C3204 1.524 . S
C3203 H3206 0.999 . S
C3204 H3174 0.949 1_565 S
C3204 C3203 1.524 . S
C3204 C3205 1.415 1_565 S
C3205 H3175 0.950 . S
C3205 C3200 1.332 1_545 S
C3205 C3204 1.415 1_545 S
H3206 C3203 0.999 . S
H3207 C3188 0.913 . S
C842 C648 1.651 . S
C827 C202 1.651 . S
C892 C663 1.796 . S
C877 C261 1.774 . S
C927 C282 1.767 . S
C942 C676 1.762 . S
C992 C690 1.577 . S
C977 C162 1.558 . S
C1042 C702 1.696 . S
C1027 C402 1.748 . S
C1092 C716 1.332 . S
C1077 C482 1.274 . S
C1127 C442 1.844 . S
C1142 C730 1.813 . S
C1192 C745 1.530 . S
C1177 C381 1.476 . S
C1227 C461 1.779 . S
C1242 C761 1.770 . S
C1292 C774 1.526 . S
C1277 C362 1.488 . S
C1327 C415 1.600 . S
C1342 C759 1.553 . S
C1392 C772 1.581 . S
C1377 C495 1.556 . S
C1427 C301 1.985 . S
C1442 C788 1.975 . S
C1477 C175 1.640 . S
C1492 C787 1.634 . S
C1527 C215 1.774 . S
C1542 C786 1.715 . S
C1577 C242 1.594 . S
C1592 C789 1.630 . S
C1627 C141 1.783 . S
C1642 C691 1.775 . S
C1677 C581 1.549 . S
C1692 C689 1.530 . S
C1742 C649 1.532 . S
C1727 C615 1.552 . S
C1792 C660 1.802 . S
C1777 C335 1.827 . S
C1827 C181 1.658 . S
C1842 C705 1.698 . S
C1892 C746 1.966 . S
C1877 C455 1.974 . S
C1942 C703 1.517 . S
C1927 C375 1.504 . S
C1992 C731 1.583 . S
C1977 C501 1.524 . S
C2042 C732 1.651 . S
C2027 C562 1.651 . S
C2077 C621 1.774 . S
C2092 C747 1.796 . S
C2127 C322 1.768 . S
C2142 C704 1.762 . S
C2192 C718 1.578 . S
C2177 C522 1.559 . S
C2227 C122 1.748 . S
C2242 C674 1.696 . S
C2292 C688 1.331 . S
C2277 C2 1.274 . S
C2342 C646 1.812 . S
C2327 C42 1.844 . S
C2392 C661 1.530 . S
C2377 C101 1.477 . S
C2427 C61 1.779 . S
C2442 C775 1.770 . S
C2477 C82 1.487 . S
C2492 C760 1.525 . S
C2527 C135 1.600 . S
C2542 C773 1.553 . S
C2577 C15 1.555 . S
C2592 C758 1.581 . S
C2642 C802 1.974 . S
C2627 C341 1.986 . S
C2692 C801 1.635 . S
C2677 C535 1.640 . S
C2742 C800 1.715 . S
C2727 C575 1.773 . S
C2777 C602 1.595 . S
C2792 C803 1.631 . S
C2827 C421 1.783 . S
C2842 C719 1.776 . S
C2892 C717 1.529 . S
C2877 C221 1.549 . S
C2942 C733 1.531 . S
C2927 C255 1.552 . S
C2992 C744 1.802 . S
C2977 C295 1.828 . S
C3027 C541 1.658 . S
C3042 C677 1.698 . S
C3092 C662 1.966 . S
C3077 C55 1.974 . S
C3127 C95 1.504 . S
C3142 C675 1.517 . S
C3192 C647 1.584 . S
C3177 C21 1.523 . S
