# Generated by pormake.
# Topology nia, (6,6)-cn, num edge types: 1
# Building blocks:
#     Node 0, Type 0, BuildingBlock: BETDIP_clean_sbu_0, # of connection points: 6
#     Node 1, Type 0, BuildingBlock: BETDIP_clean_sbu_0, # of connection points: 6
#     Node 2, Type 1, BuildingBlock: MIDCAF_clean_sbu_0, # of connection points: 6
#     Node 3, Type 1, BuildingBlock: MIDCAF_clean_sbu_0, # of connection points: 6
#     Edge 4, Type (0, 1), BuildingBlock: AJUNOK_clean_linker_0, # of connection points: 2
#     Edge 5, Type (0, 1), BuildingBlock: AJUNOK_clean_linker_0, # of connection points: 2
#     Edge 6, Type (0, 1), BuildingBlock: AJUNOK_clean_linker_0, # of connection points: 2
#     Edge 7, Type (0, 1), BuildingBlock: AJUNOK_clean_linker_0, # of connection points: 2
#     Edge 8, Type (0, 1), BuildingBlock: AJUNOK_clean_linker_0, # of connection points: 2
#     Edge 9, Type (0, 1), BuildingBlock: AJUNOK_clean_linker_0, # of connection points: 2
#     Edge 10, Type (0, 1), BuildingBlock: AJUNOK_clean_linker_0, # of connection points: 2
#     Edge 11, Type (0, 1), BuildingBlock: AJUNOK_clean_linker_0, # of connection points: 2
#     Edge 12, Type (0, 1), BuildingBlock: AJUNOK_clean_linker_0, # of connection points: 2
#     Edge 13, Type (0, 1), BuildingBlock: AJUNOK_clean_linker_0, # of connection points: 2
#     Edge 14, Type (0, 1), BuildingBlock: AJUNOK_clean_linker_0, # of connection points: 2
#     Edge 15, Type (0, 1), BuildingBlock: AJUNOK_clean_linker_0, # of connection points: 2
# Relax obj value: 0.357
# Max RMSD: 0.285
# Mean RMSD: 0.258
data_MOF--net-nia--node1-BETDIP_clean_sbu_0--node2-MIDCAF_clean_sbu_0--edge1-AJUNOK_clean_linker_0
_symmetry_space_group_name_H-M    P1
_symmetry_Int_Tables_number       1
_symmetry_cell_setting            triclinic
loop_
_symmetry_equiv_pos_as_xyz
'x, y, z'
_cell_length_a     22.649269
_cell_length_b     19.066382
_cell_length_c     25.467391
_cell_angle_alpha  106.64619
_cell_angle_beta   59.840674
_cell_angle_gamma 129.72335
loop_
_atom_site_label
_atom_site_type_symbol
_atom_site_fract_x
_atom_site_fract_y
_atom_site_fract_z
_atom_type_partial_charge
Tb0 Tb 0.95451 0.08804 1.0652 0.0
Tb1 Tb 0.00939 0.98264 0.07039 0.0
C2 C 0.8753 0.13934 1.0667 0.0
C3 C 0.86494 0.16606 1.02482 0.0
C4 C 0.86523 0.2427 1.03761 0.0
C5 C 0.84983 0.26734 1.00194 0.0
C6 C 0.83345 0.2156 0.9527 0.0
C7 C 0.83549 0.14004 0.93864 0.0
C8 C 0.85133 0.11545 0.97445 0.0
C9 C 0.11657 0.15664 0.99368 0.0
C10 C 0.03223 0.14978 0.15529 0.0
C11 C 0.08888 0.93188 1.06928 0.0
C12 C 0.10225 0.91063 0.1121 0.0
C13 C 0.07672 0.82216 0.11504 0.0
C14 C 0.09478 0.80126 0.15082 0.0
C15 C 0.13886 0.86843 0.18461 0.0
C16 C 0.16297 0.95671 0.18277 0.0
C17 C 0.14465 0.97763 0.14695 0.0
C18 C 0.84752 0.91489 0.14356 0.0
C19 C 0.93412 0.92341 0.97853 0.0
O20 O 0.94969 0.19523 1.06768 0.0
O21 O 0.84365 0.05356 0.06967 0.0
O22 O 0.05438 0.07371 1.00529 0.0
O23 O 0.08756 0.20419 1.01724 0.0
O24 O -0.02599 0.14051 0.14749 0.0
O25 O 0.0596 0.09934 0.12589 0.0
O26 O 0.01239 0.87558 0.07179 0.0
O27 O 0.12278 0.01719 1.0612 0.0
O28 O 0.90988 0.99773 0.13087 0.0
O29 O 0.87626 0.86708 0.1199 0.0
O30 O -0.01016 0.9299 0.98798 0.0
O31 O 0.90599 0.97304 1.00838 0.0
H32 H 0.87545 0.2825 0.07627 0.0
H33 H 0.84768 0.32523 1.01433 0.0
H34 H 0.82389 0.09956 0.90056 0.0
H35 H 0.85145 0.05627 0.96343 0.0
H36 H 0.04494 0.7696 0.08807 0.0
H37 H 0.07761 0.7334 0.14975 0.0
H38 H 0.19761 1.00996 0.20799 0.0
H39 H 0.16552 0.04659 0.14542 0.0
Tb40 Tb 0.0228 0.09234 0.61994 0.0
Tb41 Tb 0.94587 0.99889 0.52531 0.0
C42 C 0.07035 0.13373 0.70093 0.0
C43 C 0.11609 0.12036 0.71717 0.0
C44 C 0.09614 0.11661 0.77856 0.0
C45 C 0.14896 0.12033 0.79426 0.0
C46 C 0.22186 0.12745 0.74852 0.0
C47 C 0.23798 0.12477 0.68732 0.0
C48 C 0.18544 0.12121 0.67182 0.0
C49 C 0.06896 0.2003 0.53956 0.0
C50 C 0.09083 0.99368 0.50754 0.0
C51 C 0.92435 0.98616 0.4348 0.0
C52 C 0.85261 0.95489 0.42566 0.0
C53 C 0.85875 0.94405 0.36675 0.0
C54 C 0.7885 0.91068 0.35842 0.0
C55 C 0.71199 0.88779 0.40912 0.0
C56 C 0.70735 0.90197 0.46787 0.0
C57 C 0.77714 0.93478 0.47611 0.0
C58 C 0.86965 0.87986 0.61309 0.0
C59 C 0.86133 0.07296 0.64734 0.0
O60 O -0.00536 0.06122 0.70582 0.0
O61 O 0.11583 0.18514 0.65135 0.0
O62 O 0.05729 0.12453 0.53013 0.0
O63 O 0.05795 0.21965 0.59533 0.0
O64 O 0.08713 0.02892 0.56151 0.0
O65 O 0.04963 0.98752 0.48174 0.0
O66 O 0.95117 0.0601 0.46549 0.0
O67 O 0.91748 0.92253 0.45304 0.0
O68 O 0.92728 0.96411 0.60574 0.0
O69 O 0.84723 0.85864 0.56957 0.0
O70 O 0.86953 0.04616 0.59121 0.0
O71 O 0.90675 0.08244 0.67051 0.0
H72 H 0.04254 0.11586 0.81414 0.0
H73 H 0.13565 0.12271 0.84173 0.0
H74 H 0.29501 0.13281 0.65111 0.0
H75 H 0.20228 0.12548 0.62435 0.0
H76 H 0.91718 0.95999 0.32748 0.0
H77 H 0.79302 0.90032 0.31279 0.0
H78 H 0.64921 0.8862 0.50744 0.0
H79 H 0.77198 0.94333 0.5218 0.0
Zn80 Zn 0.3586 0.67633 0.20688 0.0
Zn81 Zn 0.23424 0.66153 0.44223 0.0
Zn82 Zn 0.29241 0.6653 0.32796 0.0
C83 C 0.40417 0.73683 0.39658 0.0
C84 C 0.15622 0.48251 0.41805 0.0
O85 O 0.25437 0.73073 0.30544 0.0
O86 O 0.32169 0.74556 0.20467 0.0
C87 C 0.49536 0.76113 0.2294 0.0
O88 O 0.40097 0.73227 0.34665 0.0
O89 O 0.33792 0.70646 0.44621 0.0
O90 O 0.14471 0.53027 0.46245 0.0
O91 O 0.20856 0.52026 0.36382 0.0
O92 O 0.48038 0.74111 0.18377 0.0
O93 O 0.43427 0.73833 0.28368 0.0
O94 O 0.22234 0.52317 0.30202 0.0
O95 O 0.28442 0.54082 0.20153 0.0
C96 C 0.22918 0.48953 0.24946 0.0
O97 O 0.23833 0.74566 0.3679 0.0
O98 O 0.2061 0.74715 0.4656 0.0
C99 C 0.27345 0.75686 0.25426 0.0
C100 C 0.21311 0.77388 0.4216 0.0
Zn101 Zn 0.61384 0.40837 0.93413 0.0
Zn102 Zn 0.71333 0.39242 0.69478 0.0
Zn103 Zn 0.66567 0.40558 0.81423 0.0
C104 C 0.78227 0.5773 0.71759 0.0
C105 C 0.53482 0.29637 0.7563 0.0
O106 O 0.71037 0.34793 0.83581 0.0
O107 O 0.6563 0.34523 0.93652 0.0
C108 C 0.73875 0.59072 0.88285 0.0
O109 O 0.74376 0.54511 0.77239 0.0
O110 O 0.78421 0.52579 0.67354 0.0
O111 O 0.5944 0.31385 0.70362 0.0
O112 O 0.55002 0.32725 0.80332 0.0
O113 O 0.68847 0.54364 0.93243 0.0
O114 O 0.74017 0.55206 0.83209 0.0
O115 O 0.52402 0.33248 0.86611 0.0
O116 O 0.49044 0.34421 0.96461 0.0
C117 C 0.46808 0.31592 0.92206 0.0
O118 O 0.7179 0.32441 0.77589 0.0
O119 O 0.75852 0.32294 0.67659 0.0
C120 C 0.69962 0.32942 0.88609 0.0
C121 C 0.74722 0.29677 0.7232 0.0
C122 C 0.25522 0.90499 0.20163 0.0
C123 C 0.16812 0.84843 0.21531 0.0
C124 C 0.28823 0.87792 0.21876 0.0
C125 C 0.23513 0.79425 0.25105 0.0
H126 H 0.29921 0.96755 0.17379 0.0
H127 H 0.35644 0.92043 0.20385 0.0
S128 S 0.00174 0.62581 0.30335 0.0
N129 N 0.02833 0.7088 0.26801 0.0
N130 N 0.09118 0.65719 0.29879 0.0
C131 C 0.14744 0.73967 0.26819 0.0
C132 C 0.11369 0.76709 0.25081 0.0
C133 C 0.32271 0.23462 0.7949 0.0
C134 C 0.2898 0.15546 0.76251 0.0
C135 C 0.40093 0.278 0.795 0.0
C136 C 0.44803 0.24316 0.76302 0.0
H137 H 0.2909 0.26686 0.81673 0.0
H138 H 0.42666 0.34155 0.81761 0.0
S139 S 0.38337 0.03027 0.67978 0.0
N140 N 0.30502 0.03796 0.70422 0.0
N141 N 0.45302 0.12047 0.70402 0.0
C142 C 0.41337 0.161 0.73401 0.0
C143 C 0.33361 0.11655 0.73415 0.0
C144 C 0.04116 0.27436 0.22723 0.0
C145 C 0.07329 0.22402 0.19281 0.0
C146 C 0.08857 0.35677 0.25193 0.0
C147 C 0.16963 0.39162 0.24292 0.0
H148 H -0.01868 0.25305 0.23212 0.0
H149 H 0.06462 0.39694 0.27396 0.0
S150 S 0.27831 0.2818 0.1642 0.0
N151 N 0.18793 0.21121 0.15759 0.0
N152 N 0.27669 0.36671 0.20319 0.0
C153 C 0.19963 0.33906 0.21301 0.0
C154 C 0.15137 0.25484 0.1883 0.0
C155 C 0.84163 0.18593 0.71827 0.0
C156 C 0.81306 0.11212 0.68069 0.0
C157 C 0.81634 0.24307 0.73539 0.0
C158 C 0.76062 0.22752 0.71641 0.0
H159 H 0.88959 0.20478 0.73023 0.0
H160 H 0.84552 0.30342 0.75957 0.0
S161 S 0.65439 0.03402 0.62834 0.0
N162 N 0.71649 0.01984 0.63278 0.0
N163 N 0.66806 0.12606 0.66578 0.0
C164 C 0.72512 0.14905 0.68416 0.0
C165 C 0.7513 0.09142 0.66629 0.0
C166 C 0.73118 0.93342 0.1881 0.0
C167 C 0.75611 0.87675 0.17498 0.0
C168 C 0.64552 0.89613 0.20829 0.0
C169 C 0.58181 0.80141 0.21891 0.0
H170 H 0.77843 1.00671 0.1805 0.0
H171 H 0.62927 0.94129 0.21431 0.0
S172 S 0.61108 0.62486 0.20191 0.0
N173 N 0.70831 0.72167 0.18038 0.0
N174 N 0.54735 0.65273 0.22109 0.0
C175 C 0.60483 0.74485 0.21074 0.0
C176 C 0.69199 0.78227 0.18854 0.0
C177 C 0.90752 0.81795 0.65677 0.0
C178 C 0.84509 0.81298 0.65261 0.0
C179 C 0.88675 0.74388 0.68215 0.0
C180 C 0.80244 0.664 0.70606 0.0
H181 H -0.02634 0.8764 0.63641 0.0
H182 H 0.93739 0.74731 0.68029 0.0
S183 S 0.61488 0.62097 0.71167 0.0
N184 N 0.6953 0.72373 0.67777 0.0
N185 N 0.65588 0.58737 0.72765 0.0
C186 C 0.73908 0.66127 0.70581 0.0
C187 C 0.76045 0.73505 0.6786 0.0
C188 C 0.10773 0.87802 0.43806 0.0
C189 C 0.13445 0.94924 0.47755 0.0
C190 C 0.13695 0.82417 0.41694 0.0
C191 C 0.1946 0.84011 0.43377 0.0
H192 H 0.06005 0.86001 0.42612 0.0
H193 H 0.10984 0.76612 0.39085 0.0
S194 S 0.2937 0.02517 0.52859 0.0
N195 N 0.22902 0.03791 0.52703 0.0
N196 N 0.28361 0.93688 0.48735 0.0
C197 C 0.22562 0.91413 0.47013 0.0
C198 C 0.19575 0.96866 0.49182 0.0
C199 C 0.26115 0.28415 0.98715 0.0
C200 C 0.20642 0.19504 0.97228 0.0
C201 C 0.34565 0.3221 0.97049 0.0
C202 C 0.37912 0.27313 0.93737 0.0
H203 H 0.23817 0.3245 1.01296 0.0
H204 H 0.38535 0.39065 0.98348 0.0
S205 S 0.26303 0.03772 0.88683 0.0
N206 N 0.19185 0.05876 0.92227 0.0
N207 N 0.35162 0.13084 0.89072 0.0
C208 C 0.32563 0.1842 0.92182 0.0
C209 C 0.239 0.14502 0.93927 0.0
C210 C 0.15377 0.29473 0.44274 0.0
C211 C 0.08003 0.25325 0.49809 0.0
C212 C 0.17429 0.36249 0.41076 0.0
C213 C 0.12071 0.38927 0.43282 0.0
H214 H 0.19922 0.28047 0.42683 0.0
H215 H 0.23586 0.39985 0.37213 0.0
S216 S 0.91281 0.28824 0.56753 0.0
N217 N 0.94918 0.23644 0.56833 0.0
N218 N -0.01504 0.35806 0.50656 0.0
C219 C 0.04262 0.3403 0.48365 0.0
C220 C 0.02321 0.27421 0.517 0.0
C221 C 0.8555 0.3302 0.90228 0.0
C222 C 0.80841 0.23848 0.92 0.0
C223 C 0.82256 0.35812 0.88591 0.0
C224 C 0.74186 0.29517 0.8863 0.0
H225 H 0.9159 0.38165 0.90476 0.0
H226 H 0.85799 0.43024 0.8767 0.0
S227 S 0.59775 0.04618 0.92123 0.0
N228 N 0.68031 0.08356 0.93103 0.0
N229 N 0.61907 0.1368 0.8997 0.0
C230 C 0.69705 0.20255 0.89909 0.0
C231 C 0.73046 0.17386 0.91577 0.0
C232 C 0.63573 0.88927 0.36551 0.0
C233 C 0.63525 0.84527 0.4017 0.0
C234 C 0.56049 0.85312 0.36313 0.0
C235 C 0.48361 0.77182 0.39625 0.0
H236 H 0.69372 0.9534 0.34077 0.0
H237 H 0.56169 0.89046 0.33718 0.0
S238 S 0.45166 0.62591 0.49185 0.0
N239 N 0.55364 0.71308 0.46722 0.0
N240 N 0.41237 0.64504 0.46246 0.0
C241 C 0.48322 0.72569 0.43064 0.0
C242 C 0.55927 0.76234 0.43324 0.0
C243 C 0.81414 0.81883 0.94874 0.0
C244 C 0.89579 0.85314 0.93859 0.0
C245 C 0.76638 0.73785 0.92351 0.0
C246 C 0.79927 0.68962 0.88599 0.0
H247 H 0.78365 0.84998 0.98059 0.0
H248 H 0.70062 0.70872 0.93759 0.0
S249 S 0.01563 0.75991 0.83508 0.0
N250 N 0.01215 0.83973 0.88098 0.0
N251 N 0.9221 0.68787 0.83294 0.0
C252 C 0.88401 0.72836 0.8699 0.0
C253 C 0.9324 0.81015 0.89642 0.0
loop_
_geom_bond_atom_site_label_1
_geom_bond_atom_site_label_2
_geom_bond_distance
_geom_bond_site_symmetry_2
_ccdc_geom_bond_type
Tb0 C2 2.809 . S
Tb0 O20 2.484 . S
Tb0 O21 2.440 1_655 S
Tb0 O22 2.658 1_655 S
Tb0 O23 2.409 1_655 S
Tb0 O24 2.378 1_656 S
Tb0 O28 2.325 1_546 S
Tb0 O31 2.341 1_545 S
Tb1 C11 2.809 . S
Tb1 O22 2.325 1_564 S
Tb1 O25 2.341 1_565 S
Tb1 O26 2.484 . S
Tb1 O27 2.440 1_455 S
Tb1 O28 2.658 1_455 S
Tb1 O29 2.409 1_455 S
Tb1 O30 2.378 1_455 S
C2 Tb0 2.809 . S
C2 C3 1.514 . S
C2 O20 1.248 . S
C2 O21 1.266 1_655 S
C3 C2 1.514 . S
C3 C4 1.359 . S
C3 C8 1.348 1_655 S
C4 C3 1.359 . S
C4 C5 1.380 . S
C4 H32 0.929 1_556 S
C5 C4 1.380 . S
C5 C6 1.347 . S
C5 H33 0.931 . S
C6 C5 1.347 . S
C6 C7 1.369 1_655 S
C7 C6 1.369 1_455 S
C7 C8 1.408 . S
C7 H34 0.930 . S
C8 C3 1.348 1_455 S
C8 C7 1.408 . S
C8 H35 0.930 . S
C9 O22 1.281 . S
C9 O23 1.254 . S
C10 O24 1.236 . S
C10 O25 1.266 . S
C11 Tb1 2.809 . S
C11 C12 1.514 . S
C11 O26 1.248 . S
C11 O27 1.266 1_455 S
C12 C11 1.514 . S
C12 C13 1.359 . S
C12 C17 1.348 1_455 S
C13 C12 1.359 . S
C13 C14 1.380 . S
C13 H36 0.929 . S
C14 C13 1.380 . S
C14 C15 1.347 . S
C14 H37 0.931 . S
C15 C14 1.347 . S
C15 C16 1.369 . S
C16 C15 1.369 . S
C16 C17 1.408 1_455 S
C16 H38 0.930 1_455 S
C17 C12 1.348 1_655 S
C17 C16 1.408 1_655 S
C17 H39 0.930 . S
C18 O28 1.281 . S
C18 O29 1.254 . S
C19 O30 1.236 1_556 S
C19 O31 1.266 . S
O20 Tb0 2.484 . S
O20 C2 1.248 . S
O21 Tb0 2.440 1_455 S
O21 C2 1.266 1_455 S
O22 Tb0 2.658 1_455 S
O22 Tb1 2.325 1_546 S
O22 C9 1.281 . S
O23 Tb0 2.409 1_455 S
O23 C9 1.254 . S
O24 Tb0 2.378 1_454 S
O24 C10 1.236 . S
O25 Tb1 2.341 1_545 S
O25 C10 1.266 . S
O26 Tb1 2.484 . S
O26 C11 1.248 . S
O27 Tb1 2.440 1_655 S
O27 C11 1.266 1_655 S
O28 Tb0 2.325 1_564 S
O28 Tb1 2.658 1_655 S
O28 C18 1.281 . S
O29 Tb1 2.409 1_655 S
O29 C18 1.254 . S
O30 Tb1 2.378 1_655 S
O30 C19 1.236 1_554 S
O31 Tb0 2.341 1_565 S
O31 C19 1.266 . S
H32 C4 0.929 1_554 S
H33 C5 0.931 . S
H34 C7 0.930 . S
H35 C8 0.930 . S
H36 C13 0.929 . S
H37 C14 0.931 . S
H38 C16 0.930 1_655 S
H39 C17 0.930 . S
Tb40 C42 2.809 . S
Tb40 O60 2.484 . S
Tb40 O61 2.440 . S
Tb40 O62 2.658 . S
Tb40 O63 2.409 . S
Tb40 O64 2.378 . S
Tb40 O68 2.325 1_445 S
Tb40 O71 2.341 1_455 S
Tb41 C51 2.809 . S
Tb41 O62 2.325 1_665 S
Tb41 O65 2.341 1_655 S
Tb41 O66 2.484 . S
Tb41 O67 2.440 . S
Tb41 O68 2.658 . S
Tb41 O69 2.409 . S
Tb41 O70 2.378 . S
C42 Tb40 2.809 . S
C42 C43 1.514 . S
C42 O60 1.248 . S
C42 O61 1.266 . S
C43 C42 1.514 . S
C43 C44 1.359 . S
C43 C48 1.348 . S
C44 C43 1.359 . S
C44 C45 1.380 . S
C44 H72 0.929 . S
C45 C44 1.380 . S
C45 C46 1.347 . S
C45 H73 0.931 . S
C46 C45 1.347 . S
C46 C47 1.369 . S
C47 C46 1.369 . S
C47 C48 1.408 . S
C47 H74 0.930 . S
C48 C43 1.348 . S
C48 C47 1.408 . S
C48 H75 0.930 . S
C49 O62 1.281 . S
C49 O63 1.254 . S
C50 O64 1.236 1_565 S
C50 O65 1.266 . S
C51 Tb41 2.809 . S
C51 C52 1.514 . S
C51 O66 1.248 . S
C51 O67 1.266 . S
C52 C51 1.514 . S
C52 C53 1.359 . S
C52 C57 1.348 . S
C53 C52 1.359 . S
C53 C54 1.380 . S
C53 H76 0.931 . S
C54 C53 1.380 . S
C54 C55 1.347 . S
C54 H77 0.931 . S
C55 C54 1.347 . S
C55 C56 1.369 . S
C56 C55 1.369 . S
C56 C57 1.408 . S
C56 H78 0.930 . S
C57 C52 1.348 . S
C57 C56 1.408 . S
C57 H79 0.930 . S
C58 O68 1.281 . S
C58 O69 1.254 . S
C59 O70 1.236 1_545 S
C59 O71 1.266 . S
O60 Tb40 2.484 . S
O60 C42 1.248 . S
O61 Tb40 2.440 . S
O61 C42 1.266 . S
O62 Tb40 2.658 . S
O62 Tb41 2.325 1_445 S
O62 C49 1.281 . S
O63 Tb40 2.409 . S
O63 C49 1.254 . S
O64 Tb40 2.378 . S
O64 C50 1.236 1_545 S
O65 Tb41 2.341 1_455 S
O65 C50 1.266 . S
O66 Tb41 2.484 . S
O66 C51 1.248 . S
O67 Tb41 2.440 . S
O67 C51 1.266 . S
O68 Tb40 2.325 1_665 S
O68 Tb41 2.658 . S
O68 C58 1.281 . S
O69 Tb41 2.409 . S
O69 C58 1.254 . S
O70 Tb41 2.378 . S
O70 C59 1.236 1_565 S
O71 Tb40 2.341 1_655 S
O71 C59 1.266 . S
H72 C44 0.929 . S
H73 C45 0.931 . S
H74 C47 0.930 . S
H75 C48 0.930 . S
H76 C53 0.931 . S
H77 C54 0.931 . S
H78 C56 0.930 . S
H79 C57 0.930 . S
Zn80 O86 1.920 . S
Zn80 O92 1.898 . S
Zn80 O95 1.905 . S
Zn81 O89 1.905 . S
Zn81 O90 1.898 . S
Zn81 O98 1.920 . S
Zn82 O85 2.080 . S
Zn82 O88 2.114 . S
Zn82 O91 2.120 . S
Zn82 O93 2.120 . S
Zn82 O94 2.114 . S
Zn82 O97 2.080 . S
C83 O88 1.166 . S
C83 O89 1.182 . S
C84 O90 1.167 . S
C84 O91 1.299 . S
O85 Zn82 2.080 . S
O85 C99 1.305 . S
O86 Zn80 1.920 . S
O86 C99 1.234 . S
C87 O92 1.167 . S
C87 O93 1.299 . S
O88 Zn82 2.114 . S
O88 C83 1.166 . S
O89 Zn81 1.905 . S
O89 C83 1.182 . S
O90 Zn81 1.898 . S
O90 C84 1.167 . S
O91 Zn82 2.120 . S
O91 C84 1.299 . S
O92 Zn80 1.898 . S
O92 C87 1.167 . S
O93 Zn82 2.120 . S
O93 C87 1.299 . S
O94 Zn82 2.114 . S
O94 C96 1.166 . S
O95 Zn80 1.905 . S
O95 C96 1.182 . S
C96 O94 1.166 . S
C96 O95 1.182 . S
O97 Zn82 2.080 . S
O97 C100 1.305 . S
O98 Zn81 1.920 . S
O98 C100 1.234 . S
C99 O85 1.305 . S
C99 O86 1.234 . S
C100 O97 1.305 . S
C100 O98 1.234 . S
Zn101 O107 1.920 . S
Zn101 O113 1.898 . S
Zn101 O116 1.905 . S
Zn102 O110 1.905 . S
Zn102 O111 1.898 . S
Zn102 O119 1.920 . S
Zn103 O106 2.080 . S
Zn103 O109 2.114 . S
Zn103 O112 2.120 . S
Zn103 O114 2.120 . S
Zn103 O115 2.114 . S
Zn103 O118 2.080 . S
C104 O109 1.166 . S
C104 O110 1.182 . S
C105 O111 1.167 . S
C105 O112 1.299 . S
O106 Zn103 2.080 . S
O106 C120 1.305 . S
O107 Zn101 1.920 . S
O107 C120 1.234 . S
C108 O113 1.167 . S
C108 O114 1.299 . S
O109 Zn103 2.114 . S
O109 C104 1.166 . S
O110 Zn102 1.905 . S
O110 C104 1.182 . S
O111 Zn102 1.898 . S
O111 C105 1.167 . S
O112 Zn103 2.120 . S
O112 C105 1.299 . S
O113 Zn101 1.898 . S
O113 C108 1.167 . S
O114 Zn103 2.120 . S
O114 C108 1.299 . S
O115 Zn103 2.114 . S
O115 C117 1.166 . S
O116 Zn101 1.905 . S
O116 C117 1.182 . S
C117 O115 1.166 . S
C117 O116 1.182 . S
O118 Zn103 2.080 . S
O118 C121 1.305 . S
O119 Zn102 1.920 . S
O119 C121 1.234 . S
C120 O106 1.305 . S
C120 O107 1.234 . S
C121 O118 1.305 . S
C121 O119 1.234 . S
C122 C123 1.369 . S
C122 C124 1.419 . S
C122 H126 0.930 . S
C123 C122 1.369 . S
C123 C132 1.429 . S
C124 C122 1.419 . S
C124 C125 1.363 . S
C124 H127 0.929 . S
C125 C124 1.363 . S
C125 C131 1.428 . S
H126 C122 0.930 . S
H127 C124 0.929 . S
S128 N129 1.613 . S
S128 N130 1.610 . S
N129 S128 1.613 . S
N129 C132 1.350 . S
N130 S128 1.610 . S
N130 C131 1.351 . S
C131 C125 1.428 . S
C131 N130 1.351 . S
C131 C132 1.434 . S
C132 C123 1.429 . S
C132 N129 1.350 . S
C132 C131 1.434 . S
C133 C134 1.369 . S
C133 C135 1.419 . S
C133 H137 0.930 . S
C134 C133 1.369 . S
C134 C143 1.429 . S
C135 C133 1.419 . S
C135 C136 1.363 . S
C135 H138 0.929 . S
C136 C135 1.363 . S
C136 C142 1.428 . S
H137 C133 0.930 . S
H138 C135 0.929 . S
S139 N140 1.613 . S
S139 N141 1.610 . S
N140 S139 1.613 . S
N140 C143 1.350 . S
N141 S139 1.610 . S
N141 C142 1.351 . S
C142 C136 1.428 . S
C142 N141 1.351 . S
C142 C143 1.434 . S
C143 C134 1.429 . S
C143 N140 1.350 . S
C143 C142 1.434 . S
C144 C145 1.369 . S
C144 C146 1.419 . S
C144 H148 0.930 . S
C145 C144 1.369 . S
C145 C154 1.429 . S
C146 C144 1.419 . S
C146 C147 1.363 . S
C146 H149 0.929 . S
C147 C146 1.363 . S
C147 C153 1.428 . S
H148 C144 0.930 . S
H149 C146 0.929 . S
S150 N151 1.613 . S
S150 N152 1.610 . S
N151 S150 1.613 . S
N151 C154 1.350 . S
N152 S150 1.610 . S
N152 C153 1.351 . S
C153 C147 1.428 . S
C153 N152 1.351 . S
C153 C154 1.434 . S
C154 C145 1.429 . S
C154 N151 1.350 . S
C154 C153 1.434 . S
C155 C156 1.369 . S
C155 C157 1.419 . S
C155 H159 0.930 1_655 S
C156 C155 1.369 . S
C156 C165 1.429 . S
C157 C155 1.419 . S
C157 C158 1.363 . S
C157 H160 0.929 . S
C158 C157 1.363 . S
C158 C164 1.428 . S
H159 C155 0.930 1_455 S
H160 C157 0.929 . S
S161 N162 1.613 . S
S161 N163 1.610 . S
N162 S161 1.613 . S
N162 C165 1.350 . S
N163 S161 1.610 . S
N163 C164 1.351 . S
C164 C158 1.428 . S
C164 N163 1.351 . S
C164 C165 1.434 . S
C165 C156 1.429 . S
C165 N162 1.350 . S
C165 C164 1.434 . S
C166 C167 1.369 . S
C166 C168 1.419 . S
C166 H170 0.930 . S
C167 C166 1.369 . S
C167 C176 1.429 . S
C168 C166 1.419 . S
C168 C169 1.363 . S
C168 H171 0.929 . S
C169 C168 1.363 . S
C169 C175 1.428 . S
H170 C166 0.930 . S
H171 C168 0.929 . S
S172 N173 1.613 . S
S172 N174 1.610 . S
N173 S172 1.613 . S
N173 C176 1.350 . S
N174 S172 1.610 . S
N174 C175 1.351 . S
C175 C169 1.428 . S
C175 N174 1.351 . S
C175 C176 1.434 . S
C176 C167 1.429 . S
C176 N173 1.350 . S
C176 C175 1.434 . S
C177 C178 1.369 . S
C177 C179 1.419 . S
C177 H181 0.930 . S
C178 C177 1.369 . S
C178 C187 1.429 . S
C179 C177 1.419 . S
C179 C180 1.363 . S
C179 H182 0.929 . S
C180 C179 1.363 . S
C180 C186 1.428 . S
H181 C177 0.930 . S
H182 C179 0.929 . S
S183 N184 1.613 . S
S183 N185 1.610 . S
N184 S183 1.613 . S
N184 C187 1.350 . S
N185 S183 1.610 . S
N185 C186 1.351 . S
C186 C180 1.428 . S
C186 N185 1.351 . S
C186 C187 1.434 . S
C187 C178 1.429 . S
C187 N184 1.350 . S
C187 C186 1.434 . S
C188 C189 1.369 . S
C188 C190 1.419 . S
C188 H192 0.930 . S
C189 C188 1.369 . S
C189 C198 1.429 . S
C190 C188 1.419 . S
C190 C191 1.363 . S
C190 H193 0.929 . S
C191 C190 1.363 . S
C191 C197 1.428 . S
H192 C188 0.930 . S
H193 C190 0.929 . S
S194 N195 1.613 . S
S194 N196 1.610 . S
N195 S194 1.613 . S
N195 C198 1.350 . S
N196 S194 1.610 . S
N196 C197 1.351 . S
C197 C191 1.428 . S
C197 N196 1.351 . S
C197 C198 1.434 . S
C198 C189 1.429 . S
C198 N195 1.350 . S
C198 C197 1.434 . S
C199 C200 1.369 . S
C199 C201 1.419 . S
C199 H203 0.930 . S
C200 C199 1.369 . S
C200 C209 1.429 . S
C201 C199 1.419 . S
C201 C202 1.363 . S
C201 H204 0.929 . S
C202 C201 1.363 . S
C202 C208 1.428 . S
H203 C199 0.930 . S
H204 C201 0.929 . S
S205 N206 1.613 . S
S205 N207 1.610 . S
N206 S205 1.613 . S
N206 C209 1.350 . S
N207 S205 1.610 . S
N207 C208 1.351 . S
C208 C202 1.428 . S
C208 N207 1.351 . S
C208 C209 1.434 . S
C209 C200 1.429 . S
C209 N206 1.350 . S
C209 C208 1.434 . S
C210 C211 1.369 . S
C210 C212 1.419 . S
C210 H214 0.930 . S
C211 C210 1.369 . S
C211 C220 1.429 . S
C212 C210 1.419 . S
C212 C213 1.363 . S
C212 H215 0.929 . S
C213 C212 1.363 . S
C213 C219 1.428 . S
H214 C210 0.930 . S
H215 C212 0.929 . S
S216 N217 1.613 . S
S216 N218 1.610 . S
N217 S216 1.613 . S
N217 C220 1.350 . S
N218 S216 1.610 . S
N218 C219 1.351 . S
C219 C213 1.428 . S
C219 N218 1.351 . S
C219 C220 1.434 . S
C220 C211 1.429 . S
C220 N217 1.350 . S
C220 C219 1.434 . S
C221 C222 1.369 . S
C221 C223 1.419 . S
C221 H225 0.930 . S
C222 C221 1.369 . S
C222 C231 1.429 . S
C223 C221 1.419 . S
C223 C224 1.363 . S
C223 H226 0.929 . S
C224 C223 1.363 . S
C224 C230 1.428 . S
H225 C221 0.930 . S
H226 C223 0.929 . S
S227 N228 1.613 . S
S227 N229 1.610 . S
N228 S227 1.613 . S
N228 C231 1.350 . S
N229 S227 1.610 . S
N229 C230 1.351 . S
C230 C224 1.428 . S
C230 N229 1.351 . S
C230 C231 1.434 . S
C231 C222 1.429 . S
C231 N228 1.350 . S
C231 C230 1.434 . S
C232 C233 1.369 . S
C232 C234 1.419 . S
C232 H236 0.930 . S
C233 C232 1.369 . S
C233 C242 1.429 . S
C234 C232 1.419 . S
C234 C235 1.363 . S
C234 H237 0.929 . S
C235 C234 1.363 . S
C235 C241 1.428 . S
H236 C232 0.930 . S
H237 C234 0.929 . S
S238 N239 1.613 . S
S238 N240 1.610 . S
N239 S238 1.613 . S
N239 C242 1.350 . S
N240 S238 1.610 . S
N240 C241 1.351 . S
C241 C235 1.428 . S
C241 N240 1.351 . S
C241 C242 1.434 . S
C242 C233 1.429 . S
C242 N239 1.350 . S
C242 C241 1.434 . S
C243 C244 1.369 . S
C243 C245 1.419 . S
C243 H247 0.930 . S
C244 C243 1.369 . S
C244 C253 1.429 . S
C245 C243 1.419 . S
C245 C246 1.363 . S
C245 H248 0.929 . S
C246 C245 1.363 . S
C246 C252 1.428 . S
H247 C243 0.930 . S
H248 C245 0.929 . S
S249 N250 1.613 . S
S249 N251 1.610 . S
N250 S249 1.613 . S
N250 C253 1.350 . S
N251 S249 1.610 . S
N251 C252 1.351 . S
C252 C246 1.428 . S
C252 N251 1.351 . S
C252 C253 1.434 . S
C253 C244 1.429 . S
C253 N250 1.350 . S
C253 C252 1.434 . S
C123 C15 1.431 . S
C125 C99 1.323 . S
C134 C46 1.110 . S
C136 C105 0.976 . S
C145 C10 1.515 . S
C147 C96 1.434 . S
C156 C59 2.244 . S
C158 C121 2.125 . S
C167 C18 2.075 . S
C169 C87 1.997 . S
C180 C104 1.793 . S
C178 C58 1.877 . S
C189 C50 1.910 . S
C191 C100 1.845 . S
C202 C117 2.189 . S
C200 C9 2.247 . S
C213 C84 2.108 . S
C211 C49 2.312 . S
C224 C120 1.479 . S
C222 C6 1.634 . S
C235 C83 1.051 . S
C233 C55 1.168 . S
C246 C108 1.122 . S
C244 C19 1.208 . S
