# Generated by pormake.
# Topology gar, (4,6)-cn, num edge types: 1
# Building blocks:
#     Node 0, Type 0, BuildingBlock: TATPOV_clean_sbu_0, # of connection points: 4
#     Node 1, Type 0, BuildingBlock: TATPOV_clean_sbu_0, # of connection points: 4
#     Node 2, Type 0, BuildingBlock: TATPOV_clean_sbu_0, # of connection points: 4
#     Node 3, Type 0, BuildingBlock: TATPOV_clean_sbu_0, # of connection points: 4
#     Node 4, Type 0, BuildingBlock: TATPOV_clean_sbu_0, # of connection points: 4
#     Node 5, Type 0, BuildingBlock: TATPOV_clean_sbu_0, # of connection points: 4
#     Node 6, Type 0, BuildingBlock: TATPOV_clean_sbu_0, # of connection points: 4
#     Node 7, Type 0, BuildingBlock: TATPOV_clean_sbu_0, # of connection points: 4
#     Node 8, Type 0, BuildingBlock: TATPOV_clean_sbu_0, # of connection points: 4
#     Node 9, Type 0, BuildingBlock: TATPOV_clean_sbu_0, # of connection points: 4
#     Node 10, Type 0, BuildingBlock: TATPOV_clean_sbu_0, # of connection points: 4
#     Node 11, Type 0, BuildingBlock: TATPOV_clean_sbu_0, # of connection points: 4
#     Node 12, Type 0, BuildingBlock: TATPOV_clean_sbu_0, # of connection points: 4
#     Node 13, Type 0, BuildingBlock: TATPOV_clean_sbu_0, # of connection points: 4
#     Node 14, Type 0, BuildingBlock: TATPOV_clean_sbu_0, # of connection points: 4
#     Node 15, Type 0, BuildingBlock: TATPOV_clean_sbu_0, # of connection points: 4
#     Node 16, Type 0, BuildingBlock: TATPOV_clean_sbu_0, # of connection points: 4
#     Node 17, Type 0, BuildingBlock: TATPOV_clean_sbu_0, # of connection points: 4
#     Node 18, Type 0, BuildingBlock: TATPOV_clean_sbu_0, # of connection points: 4
#     Node 19, Type 0, BuildingBlock: TATPOV_clean_sbu_0, # of connection points: 4
#     Node 20, Type 0, BuildingBlock: TATPOV_clean_sbu_0, # of connection points: 4
#     Node 21, Type 0, BuildingBlock: TATPOV_clean_sbu_0, # of connection points: 4
#     Node 22, Type 0, BuildingBlock: TATPOV_clean_sbu_0, # of connection points: 4
#     Node 23, Type 0, BuildingBlock: TATPOV_clean_sbu_0, # of connection points: 4
#     Node 24, Type 1, BuildingBlock: KUMBUR_clean_sbu_1, # of connection points: 6
#     Node 25, Type 1, BuildingBlock: KUMBUR_clean_sbu_1, # of connection points: 6
#     Node 26, Type 1, BuildingBlock: KUMBUR_clean_sbu_1, # of connection points: 6
#     Node 27, Type 1, BuildingBlock: KUMBUR_clean_sbu_1, # of connection points: 6
#     Node 28, Type 1, BuildingBlock: KUMBUR_clean_sbu_1, # of connection points: 6
#     Node 29, Type 1, BuildingBlock: KUMBUR_clean_sbu_1, # of connection points: 6
#     Node 30, Type 1, BuildingBlock: KUMBUR_clean_sbu_1, # of connection points: 6
#     Node 31, Type 1, BuildingBlock: KUMBUR_clean_sbu_1, # of connection points: 6
#     Node 32, Type 1, BuildingBlock: KUMBUR_clean_sbu_1, # of connection points: 6
#     Node 33, Type 1, BuildingBlock: KUMBUR_clean_sbu_1, # of connection points: 6
#     Node 34, Type 1, BuildingBlock: KUMBUR_clean_sbu_1, # of connection points: 6
#     Node 35, Type 1, BuildingBlock: KUMBUR_clean_sbu_1, # of connection points: 6
#     Node 36, Type 1, BuildingBlock: KUMBUR_clean_sbu_1, # of connection points: 6
#     Node 37, Type 1, BuildingBlock: KUMBUR_clean_sbu_1, # of connection points: 6
#     Node 38, Type 1, BuildingBlock: KUMBUR_clean_sbu_1, # of connection points: 6
#     Node 39, Type 1, BuildingBlock: KUMBUR_clean_sbu_1, # of connection points: 6
#     Edge 40, Type (0, 1), BuildingBlock: ZUJKAS_clean_linker_0, # of connection points: 2
#     Edge 41, Type (0, 1), BuildingBlock: ZUJKAS_clean_linker_0, # of connection points: 2
#     Edge 42, Type (0, 1), BuildingBlock: ZUJKAS_clean_linker_0, # of connection points: 2
#     Edge 43, Type (0, 1), BuildingBlock: ZUJKAS_clean_linker_0, # of connection points: 2
#     Edge 44, Type (0, 1), BuildingBlock: ZUJKAS_clean_linker_0, # of connection points: 2
#     Edge 45, Type (0, 1), BuildingBlock: ZUJKAS_clean_linker_0, # of connection points: 2
#     Edge 46, Type (0, 1), BuildingBlock: ZUJKAS_clean_linker_0, # of connection points: 2
#     Edge 47, Type (0, 1), BuildingBlock: ZUJKAS_clean_linker_0, # of connection points: 2
#     Edge 48, Type (0, 1), BuildingBlock: ZUJKAS_clean_linker_0, # of connection points: 2
#     Edge 49, Type (0, 1), BuildingBlock: ZUJKAS_clean_linker_0, # of connection points: 2
#     Edge 50, Type (0, 1), BuildingBlock: ZUJKAS_clean_linker_0, # of connection points: 2
#     Edge 51, Type (0, 1), BuildingBlock: ZUJKAS_clean_linker_0, # of connection points: 2
#     Edge 52, Type (0, 1), BuildingBlock: ZUJKAS_clean_linker_0, # of connection points: 2
#     Edge 53, Type (0, 1), BuildingBlock: ZUJKAS_clean_linker_0, # of connection points: 2
#     Edge 54, Type (0, 1), BuildingBlock: ZUJKAS_clean_linker_0, # of connection points: 2
#     Edge 55, Type (0, 1), BuildingBlock: ZUJKAS_clean_linker_0, # of connection points: 2
#     Edge 56, Type (0, 1), BuildingBlock: ZUJKAS_clean_linker_0, # of connection points: 2
#     Edge 57, Type (0, 1), BuildingBlock: ZUJKAS_clean_linker_0, # of connection points: 2
#     Edge 58, Type (0, 1), BuildingBlock: ZUJKAS_clean_linker_0, # of connection points: 2
#     Edge 59, Type (0, 1), BuildingBlock: ZUJKAS_clean_linker_0, # of connection points: 2
#     Edge 60, Type (0, 1), BuildingBlock: ZUJKAS_clean_linker_0, # of connection points: 2
#     Edge 61, Type (0, 1), BuildingBlock: ZUJKAS_clean_linker_0, # of connection points: 2
#     Edge 62, Type (0, 1), BuildingBlock: ZUJKAS_clean_linker_0, # of connection points: 2
#     Edge 63, Type (0, 1), BuildingBlock: ZUJKAS_clean_linker_0, # of connection points: 2
#     Edge 64, Type (0, 1), BuildingBlock: ZUJKAS_clean_linker_0, # of connection points: 2
#     Edge 65, Type (0, 1), BuildingBlock: ZUJKAS_clean_linker_0, # of connection points: 2
#     Edge 66, Type (0, 1), BuildingBlock: ZUJKAS_clean_linker_0, # of connection points: 2
#     Edge 67, Type (0, 1), BuildingBlock: ZUJKAS_clean_linker_0, # of connection points: 2
#     Edge 68, Type (0, 1), BuildingBlock: ZUJKAS_clean_linker_0, # of connection points: 2
#     Edge 69, Type (0, 1), BuildingBlock: ZUJKAS_clean_linker_0, # of connection points: 2
#     Edge 70, Type (0, 1), BuildingBlock: ZUJKAS_clean_linker_0, # of connection points: 2
#     Edge 71, Type (0, 1), BuildingBlock: ZUJKAS_clean_linker_0, # of connection points: 2
#     Edge 72, Type (0, 1), BuildingBlock: ZUJKAS_clean_linker_0, # of connection points: 2
#     Edge 73, Type (0, 1), BuildingBlock: ZUJKAS_clean_linker_0, # of connection points: 2
#     Edge 74, Type (0, 1), BuildingBlock: ZUJKAS_clean_linker_0, # of connection points: 2
#     Edge 75, Type (0, 1), BuildingBlock: ZUJKAS_clean_linker_0, # of connection points: 2
#     Edge 76, Type (0, 1), BuildingBlock: ZUJKAS_clean_linker_0, # of connection points: 2
#     Edge 77, Type (0, 1), BuildingBlock: ZUJKAS_clean_linker_0, # of connection points: 2
#     Edge 78, Type (0, 1), BuildingBlock: ZUJKAS_clean_linker_0, # of connection points: 2
#     Edge 79, Type (0, 1), BuildingBlock: ZUJKAS_clean_linker_0, # of connection points: 2
#     Edge 80, Type (0, 1), BuildingBlock: ZUJKAS_clean_linker_0, # of connection points: 2
#     Edge 81, Type (0, 1), BuildingBlock: ZUJKAS_clean_linker_0, # of connection points: 2
#     Edge 82, Type (0, 1), BuildingBlock: ZUJKAS_clean_linker_0, # of connection points: 2
#     Edge 83, Type (0, 1), BuildingBlock: ZUJKAS_clean_linker_0, # of connection points: 2
#     Edge 84, Type (0, 1), BuildingBlock: ZUJKAS_clean_linker_0, # of connection points: 2
#     Edge 85, Type (0, 1), BuildingBlock: ZUJKAS_clean_linker_0, # of connection points: 2
#     Edge 86, Type (0, 1), BuildingBlock: ZUJKAS_clean_linker_0, # of connection points: 2
#     Edge 87, Type (0, 1), BuildingBlock: ZUJKAS_clean_linker_0, # of connection points: 2
#     Edge 88, Type (0, 1), BuildingBlock: ZUJKAS_clean_linker_0, # of connection points: 2
#     Edge 89, Type (0, 1), BuildingBlock: ZUJKAS_clean_linker_0, # of connection points: 2
#     Edge 90, Type (0, 1), BuildingBlock: ZUJKAS_clean_linker_0, # of connection points: 2
#     Edge 91, Type (0, 1), BuildingBlock: ZUJKAS_clean_linker_0, # of connection points: 2
#     Edge 92, Type (0, 1), BuildingBlock: ZUJKAS_clean_linker_0, # of connection points: 2
#     Edge 93, Type (0, 1), BuildingBlock: ZUJKAS_clean_linker_0, # of connection points: 2
#     Edge 94, Type (0, 1), BuildingBlock: ZUJKAS_clean_linker_0, # of connection points: 2
#     Edge 95, Type (0, 1), BuildingBlock: ZUJKAS_clean_linker_0, # of connection points: 2
#     Edge 96, Type (0, 1), BuildingBlock: ZUJKAS_clean_linker_0, # of connection points: 2
#     Edge 97, Type (0, 1), BuildingBlock: ZUJKAS_clean_linker_0, # of connection points: 2
#     Edge 98, Type (0, 1), BuildingBlock: ZUJKAS_clean_linker_0, # of connection points: 2
#     Edge 99, Type (0, 1), BuildingBlock: ZUJKAS_clean_linker_0, # of connection points: 2
#     Edge 100, Type (0, 1), BuildingBlock: ZUJKAS_clean_linker_0, # of connection points: 2
#     Edge 101, Type (0, 1), BuildingBlock: ZUJKAS_clean_linker_0, # of connection points: 2
#     Edge 102, Type (0, 1), BuildingBlock: ZUJKAS_clean_linker_0, # of connection points: 2
#     Edge 103, Type (0, 1), BuildingBlock: ZUJKAS_clean_linker_0, # of connection points: 2
#     Edge 104, Type (0, 1), BuildingBlock: ZUJKAS_clean_linker_0, # of connection points: 2
#     Edge 105, Type (0, 1), BuildingBlock: ZUJKAS_clean_linker_0, # of connection points: 2
#     Edge 106, Type (0, 1), BuildingBlock: ZUJKAS_clean_linker_0, # of connection points: 2
#     Edge 107, Type (0, 1), BuildingBlock: ZUJKAS_clean_linker_0, # of connection points: 2
#     Edge 108, Type (0, 1), BuildingBlock: ZUJKAS_clean_linker_0, # of connection points: 2
#     Edge 109, Type (0, 1), BuildingBlock: ZUJKAS_clean_linker_0, # of connection points: 2
#     Edge 110, Type (0, 1), BuildingBlock: ZUJKAS_clean_linker_0, # of connection points: 2
#     Edge 111, Type (0, 1), BuildingBlock: ZUJKAS_clean_linker_0, # of connection points: 2
#     Edge 112, Type (0, 1), BuildingBlock: ZUJKAS_clean_linker_0, # of connection points: 2
#     Edge 113, Type (0, 1), BuildingBlock: ZUJKAS_clean_linker_0, # of connection points: 2
#     Edge 114, Type (0, 1), BuildingBlock: ZUJKAS_clean_linker_0, # of connection points: 2
#     Edge 115, Type (0, 1), BuildingBlock: ZUJKAS_clean_linker_0, # of connection points: 2
#     Edge 116, Type (0, 1), BuildingBlock: ZUJKAS_clean_linker_0, # of connection points: 2
#     Edge 117, Type (0, 1), BuildingBlock: ZUJKAS_clean_linker_0, # of connection points: 2
#     Edge 118, Type (0, 1), BuildingBlock: ZUJKAS_clean_linker_0, # of connection points: 2
#     Edge 119, Type (0, 1), BuildingBlock: ZUJKAS_clean_linker_0, # of connection points: 2
#     Edge 120, Type (0, 1), BuildingBlock: ZUJKAS_clean_linker_0, # of connection points: 2
#     Edge 121, Type (0, 1), BuildingBlock: ZUJKAS_clean_linker_0, # of connection points: 2
#     Edge 122, Type (0, 1), BuildingBlock: ZUJKAS_clean_linker_0, # of connection points: 2
#     Edge 123, Type (0, 1), BuildingBlock: ZUJKAS_clean_linker_0, # of connection points: 2
#     Edge 124, Type (0, 1), BuildingBlock: ZUJKAS_clean_linker_0, # of connection points: 2
#     Edge 125, Type (0, 1), BuildingBlock: ZUJKAS_clean_linker_0, # of connection points: 2
#     Edge 126, Type (0, 1), BuildingBlock: ZUJKAS_clean_linker_0, # of connection points: 2
#     Edge 127, Type (0, 1), BuildingBlock: ZUJKAS_clean_linker_0, # of connection points: 2
#     Edge 128, Type (0, 1), BuildingBlock: ZUJKAS_clean_linker_0, # of connection points: 2
#     Edge 129, Type (0, 1), BuildingBlock: ZUJKAS_clean_linker_0, # of connection points: 2
#     Edge 130, Type (0, 1), BuildingBlock: ZUJKAS_clean_linker_0, # of connection points: 2
#     Edge 131, Type (0, 1), BuildingBlock: ZUJKAS_clean_linker_0, # of connection points: 2
#     Edge 132, Type (0, 1), BuildingBlock: ZUJKAS_clean_linker_0, # of connection points: 2
#     Edge 133, Type (0, 1), BuildingBlock: ZUJKAS_clean_linker_0, # of connection points: 2
#     Edge 134, Type (0, 1), BuildingBlock: ZUJKAS_clean_linker_0, # of connection points: 2
#     Edge 135, Type (0, 1), BuildingBlock: ZUJKAS_clean_linker_0, # of connection points: 2
# Relax obj value: 0.072
# Max RMSD: 0.176
# Mean RMSD: 0.127
data_MOF--net-gar--node1-TATPOV_clean_sbu_0--node2-KUMBUR_clean_sbu_1--edge1-ZUJKAS_clean_linker_0
_symmetry_space_group_name_H-M    P1
_symmetry_Int_Tables_number       1
_symmetry_cell_setting            triclinic
loop_
_symmetry_equiv_pos_as_xyz
'x, y, z'
_cell_length_a     76.170088
_cell_length_b     76.190659
_cell_length_c     72.140798
_cell_angle_alpha  95.871816
_cell_angle_beta   96.219077
_cell_angle_gamma 102.3211
loop_
_atom_site_label
_atom_site_type_symbol
_atom_site_fract_x
_atom_site_fract_y
_atom_site_fract_z
_atom_type_partial_charge
Zn0 Zn 0.02004 0.29884 0.3803 0.0
Zn1 Zn 0.04273 0.30054 0.35721 0.0
O2 O 0.04833 0.3277 0.37294 0.0
O3 O 0.02598 0.32481 0.39027 0.0
O4 O 0.06423 0.29887 0.34035 0.0
O5 O 0.02792 0.28139 0.39593 0.0
O6 O 0.04428 0.27825 0.37305 0.0
C7 C 0.03953 0.33468 0.38496 0.0
C8 C 1.00071 0.29128 0.34357 0.0
O9 O 0.01687 0.2959 0.33914 0.0
O10 O 0.99864 0.2901 0.36058 0.0
C11 C 0.0811 0.30578 0.34618 0.0
O12 O 0.08526 0.31572 0.36271 0.0
C13 C 0.03833 0.27309 0.38806 0.0
Zn14 Zn 0.01337 0.72715 0.70242 0.0
Zn15 Zn 0.01595 0.75221 0.68052 0.0
O16 O 0.99204 0.75358 0.69373 0.0
O17 O 0.99045 0.73251 0.71244 0.0
O18 O 0.01825 0.77408 0.66566 0.0
O19 O 0.03955 0.73615 0.71536 0.0
O20 O 0.04247 0.75704 0.69634 0.0
C21 C 0.98373 0.74473 0.70565 0.0
C22 C 0.01134 0.71261 0.6631 0.0
O23 O 0.01262 0.72916 0.66037 0.0
O24 O 0.01092 0.70841 0.67963 0.0
C25 C 0.01037 0.77387 0.64908 0.0
O26 O 1.00013 0.75857 0.64024 0.0
C27 C 0.04958 0.74909 0.70905 0.0
Zn28 Zn 0.52269 0.79952 0.88149 0.0
Zn29 Zn 0.54238 0.79962 0.85687 0.0
O30 O 0.54927 0.82669 0.87306 0.0
O31 O 0.53438 0.82233 0.89731 0.0
O32 O 0.56431 0.79667 0.841 0.0
O33 O 0.52291 0.77697 0.89184 0.0
O34 O 0.54247 0.77638 0.8717 0.0
C35 C 0.54505 0.83278 0.88894 0.0
C36 C 0.50125 0.79747 0.84591 0.0
O37 O 0.5162 0.79644 0.83941 0.0
O38 O 0.50125 0.79946 0.86351 0.0
C39 C 0.57698 0.8082 0.8355 0.0
O40 O 0.57665 0.82544 0.83817 0.0
C41 C 0.53386 0.76914 0.88437 0.0
Zn42 Zn 0.51283 0.2263 0.20058 0.0
Zn43 Zn 0.5156 0.25099 0.17837 0.0
O44 O 0.49149 0.25254 0.19141 0.0
O45 O 0.49007 0.23202 0.21073 0.0
O46 O 0.51858 0.27311 0.16372 0.0
O47 O 0.53885 0.23527 0.21395 0.0
O48 O 0.54201 0.25567 0.19445 0.0
C49 C 0.48329 0.24408 0.20368 0.0
C50 C 0.51109 0.21132 0.16114 0.0
O51 O 0.51244 0.22784 0.15819 0.0
O52 O 0.51043 0.20736 0.17775 0.0
C53 C 0.50906 0.27411 0.14836 0.0
O54 O 0.49638 0.25994 0.1406 0.0
C55 C 0.54902 0.24799 0.20748 0.0
Zn56 Zn 0.07467 0.78721 0.08456 0.0
Zn57 Zn 0.05057 0.7841 0.1077 0.0
O58 O 0.04805 0.8079 0.09403 0.0
O59 O 0.06861 0.81002 0.07481 0.0
O60 O 0.03007 0.78116 0.1248 0.0
O61 O 0.06513 0.76106 0.07149 0.0
O62 O 0.04571 0.75753 0.09192 0.0
C63 C 0.05638 0.81641 0.08185 0.0
C64 C 0.09122 0.78981 0.12344 0.0
O65 O 0.07475 0.78794 0.12671 0.0
O66 O 0.09466 0.7903 0.10666 0.0
C67 C 0.02085 0.793 0.1283 0.0
O68 O 0.02452 0.80822 0.12094 0.0
C69 C 0.05293 0.75069 0.07846 0.0
Zn70 Zn 0.47959 0.75532 0.45153 0.0
Zn71 Zn 0.50536 0.75895 0.42984 0.0
O72 O 0.51068 0.78521 0.44578 0.0
O73 O 0.48806 0.78217 0.46264 0.0
O74 O 0.52731 0.75998 0.41504 0.0
O75 O 0.487 0.73396 0.4636 0.0
O76 O 0.50641 0.7351 0.44318 0.0
C77 C 0.50173 0.79219 0.45746 0.0
C78 C 0.46525 0.75321 0.41209 0.0
O79 O 0.4821 0.7566 0.41004 0.0
O80 O 0.46054 0.75087 0.42816 0.0
C81 C 0.52928 0.76604 0.39938 0.0
O82 O 0.51633 0.77268 0.39119 0.0
C83 C 0.49884 0.72724 0.45613 0.0
Zn84 Zn 0.57503 0.28682 0.58461 0.0
Zn85 Zn 0.55075 0.28417 0.60773 0.0
O86 O 0.54863 0.30802 0.59432 0.0
O87 O 0.56825 0.30904 0.5741 0.0
O88 O 0.52956 0.28099 0.62361 0.0
O89 O 0.5655 0.26043 0.57194 0.0
O90 O 0.54594 0.2577 0.59224 0.0
C91 C 0.5565 0.31594 0.58153 0.0
C92 C 0.59096 0.29008 0.62415 0.0
O93 O 0.57439 0.28781 0.62711 0.0
O94 O 0.59471 0.29072 0.60747 0.0
C95 C 0.52429 0.29388 0.63245 0.0
O96 O 0.53303 0.31064 0.63199 0.0
C97 C 0.55305 0.25045 0.57899 0.0
Zn98 Zn 0.97923 0.25604 0.95299 0.0
Zn99 Zn 0.00365 0.25948 0.92983 0.0
O100 O 0.00888 0.2858 0.94525 0.0
O101 O 0.98942 0.28231 0.96572 0.0
O102 O 0.02437 0.26001 0.91353 0.0
O103 O 0.98562 0.23371 0.96321 0.0
O104 O 0.00587 0.23609 0.94365 0.0
C105 C 1.00175 0.29257 0.95878 0.0
C106 C 0.96329 0.25372 0.91385 0.0
O107 O 0.97986 0.25651 0.91085 0.0
O108 O 0.95947 0.25226 0.9304 0.0
C109 C 0.03442 0.27405 0.90886 0.0
O110 O 0.03128 0.29002 0.91402 0.0
C111 C 0.99793 0.2276 0.95602 0.0
Zn112 Zn 0.40427 0.98566 0.28518 0.0
Zn113 Zn 0.38764 0.015 0.28627 0.0
O114 O 0.39857 0.01546 0.31278 0.0
O115 O 0.41282 0.99309 0.31248 0.0
O116 O 0.37668 0.0364 0.28817 0.0
O117 O 0.41663 0.99593 0.26425 0.0
O118 O 0.4036 0.01917 0.26596 0.0
C119 C 0.40759 0.00583 0.32131 0.0
C120 C 0.3654 0.97695 0.27759 0.0
O121 O 0.36661 0.99385 0.27917 0.0
O122 O 0.37925 0.97032 0.27956 0.0
C123 C 0.35979 0.03481 0.28846 0.0
O124 O 0.34898 0.0187 0.28714 0.0
C125 C 0.4139 0.01033 0.25837 0.0
Zn126 Zn 0.24768 0.18948 0.50486 0.0
Zn127 Zn 0.27175 0.16993 0.50853 0.0
O128 O 0.27594 0.1828 0.48436 0.0
O129 O 0.25881 0.20264 0.48478 0.0
O130 O 0.29074 0.15472 0.51073 0.0
O131 O 0.25319 0.1993 0.53237 0.0
O132 O 0.27577 0.1855 0.535 0.0
C133 C 0.2703 0.19558 0.47718 0.0
C134 C 0.23158 0.15166 0.49957 0.0
O135 O 0.24775 0.15062 0.50507 0.0
O136 O 0.22808 0.1668 0.49698 0.0
C137 C 0.30099 0.15244 0.49829 0.0
O138 O 0.29974 0.16047 0.4831 0.0
C139 C 0.26635 0.19568 0.54236 0.0
Zn140 Zn 0.11109 0.05218 0.77905 0.0
Zn141 Zn 0.13391 0.03026 0.7778 0.0
O142 O 0.12085 0.02616 0.80185 0.0
O143 O 0.10041 0.04265 0.80114 0.0
O144 O 0.14984 0.01174 0.77698 0.0
O145 O 0.09896 0.04225 0.75276 0.0
O146 O 0.11871 0.02501 0.75096 0.0
C147 C 0.10799 0.03159 0.80898 0.0
C148 C 0.14916 0.07097 0.78298 0.0
O149 O 0.15195 0.05502 0.78065 0.0
O150 O 0.13317 0.07324 0.78331 0.0
C151 C 0.14922 0.99942 0.78775 0.0
O152 O 0.13794 0.9984 0.80033 0.0
C153 C 0.10542 0.03077 0.74339 0.0
Zn154 Zn 0.31351 0.8897 -0.00209 0.0
Zn155 Zn 0.28273 0.90837 -0.0007 0.0
O156 O 0.27863 0.9005 0.97207 0.0
O157 O 0.30627 0.8964 0.97149 0.0
O158 O 0.26474 0.92281 0.0027 0.0
O159 O 0.30452 0.88884 0.02387 0.0
O160 O 0.27614 0.88949 0.01555 0.0
C161 C 0.29174 0.8991 0.96315 0.0
C162 C 0.32054 0.92837 -0.00023 0.0
O163 O 0.30617 0.92705 0.00747 0.0
O164 O 0.32461 0.91455 0.99157 0.0
C165 C 0.26282 0.93443 0.99174 0.0
O166 O 0.27277 0.93653 0.978 0.0
C167 C 0.28835 0.88679 0.02745 0.0
Zn168 Zn 0.30631 0.35895 0.03269 0.0
Zn169 Zn 0.28368 0.37881 0.03013 0.0
O170 O 0.27916 0.36418 0.00295 0.0
O171 O 0.3009 0.34933 0.00565 0.0
O172 O 0.26437 0.39356 0.03067 0.0
O173 O 0.29579 0.34467 0.05189 0.0
O174 O 0.27881 0.36461 0.05324 0.0
C175 C 0.28824 0.35363 0.99559 0.0
C176 C 0.32429 0.39594 0.03846 0.0
O177 O 0.30819 0.39788 0.034 0.0
O178 O 0.32697 0.38035 0.04028 0.0
C179 C 0.25636 0.39826 0.01623 0.0
O180 O 0.26101 0.39396 -0.00035 0.0
C181 C 0.28411 0.35128 0.05957 0.0
Zn182 Zn 0.73021 0.14727 0.03194 0.0
Zn183 Zn 0.76998 0.12187 0.04098 0.0
O184 O 0.77746 0.13274 0.01733 0.0
O185 O 0.75304 0.14119 0.0223 0.0
O186 O 0.79032 0.11301 0.05228 0.0
O187 O 0.74097 0.15634 0.05926 0.0
O188 O 0.76327 0.14093 0.06034 0.0
C189 C 0.76596 0.14172 0.01249 0.0
C190 C 0.73595 0.10833 0.03155 0.0
O191 O 0.74857 0.10019 0.03436 0.0
O192 O 0.74059 0.12505 0.03029 0.0
C193 C 0.794 0.10158 0.04021 0.0
O194 O 0.78411 0.09735 0.02362 0.0
C195 C 0.75494 0.15224 0.06783 0.0
Zn196 Zn 0.15863 0.56234 0.2561 0.0
Zn197 Zn 0.17428 0.53471 0.25302 0.0
O198 O 0.16358 0.53201 0.27741 0.0
O199 O 0.15546 0.55797 0.28237 0.0
O200 O 0.18409 0.51271 0.24847 0.0
O201 O 0.13974 0.55203 0.23447 0.0
O202 O 0.15696 0.53273 0.22925 0.0
C203 C 0.15766 0.54326 0.28787 0.0
C204 C 0.19581 0.57159 0.2511 0.0
O205 O 0.19589 0.5557 0.25468 0.0
O206 O 0.18137 0.57728 0.25002 0.0
C207 C 0.20068 0.51356 0.24694 0.0
O208 O 0.21213 0.52936 0.24895 0.0
C209 C 0.14391 0.53977 0.22384 0.0
Zn210 Zn 0.80875 0.86137 0.53223 0.0
Zn211 Zn 0.78436 0.88081 0.52987 0.0
O212 O 0.77986 0.86523 0.50358 0.0
O213 O 0.80087 0.84942 0.50588 0.0
O214 O 0.76347 0.89369 0.52901 0.0
O215 O 0.79934 0.84884 0.553 0.0
O216 O 0.78041 0.86699 0.55334 0.0
C217 C 0.78777 0.85354 0.49633 0.0
C218 C 0.82468 0.89944 0.53647 0.0
O219 O 0.80826 0.90073 0.53284 0.0
O220 O 0.82832 0.88414 0.53783 0.0
C221 C 0.76457 0.91022 0.52677 0.0
O222 O 0.78031 0.92033 0.5246 0.0
C223 C 0.78692 0.85455 0.56024 0.0
Zn224 Zn 0.94221 0.9935 0.25155 0.0
Zn225 Zn 0.92093 0.01567 0.25317 0.0
O226 O 0.93587 0.02139 0.28009 0.0
O227 O 0.95097 0.99975 0.27907 0.0
O228 O 0.906 0.03474 0.25234 0.0
O229 O 0.95608 0.00505 0.23217 0.0
O230 O 0.93436 0.01997 0.22971 0.0
C231 C 0.94648 0.01277 0.28822 0.0
C232 C 0.90476 0.97503 0.24587 0.0
O233 O 0.90241 0.99094 0.25034 0.0
O234 O 0.92046 0.97277 0.24383 0.0
C235 C 0.89849 0.04006 0.26608 0.0
O236 O 0.89981 0.03251 0.2816 0.0
C237 C 0.94827 0.01566 0.22385 0.0
Zn238 Zn 0.23908 0.63623 0.53961 0.0
Zn239 Zn 0.26706 0.62337 0.53958 0.0
O240 O 0.26754 0.63532 0.51599 0.0
O241 O 0.23988 0.63991 0.51266 0.0
O242 O 0.28913 0.61417 0.54144 0.0
O243 O 0.25156 0.65683 0.55855 0.0
O244 O 0.27191 0.64068 0.56348 0.0
C245 C 0.2549 0.64037 0.50653 0.0
C246 C 0.23171 0.59938 0.54342 0.0
O247 O 0.24704 0.60103 0.53776 0.0
O248 O 0.22571 0.61327 0.54775 0.0
C249 C 0.28919 0.59801 0.53539 0.0
O250 O 0.27424 0.58705 0.52662 0.0
C251 C 0.2655 0.6543 0.56805 0.0
Zn252 Zn 0.44141 0.49124 0.75152 0.0
Zn253 Zn 0.42369 0.51677 0.75417 0.0
O254 O 0.43937 0.52096 0.78053 0.0
O255 O 0.45407 0.49911 0.77776 0.0
O256 O 0.4109 0.53755 0.75431 0.0
O257 O 0.45287 0.49889 0.72947 0.0
O258 O 0.43723 0.52005 0.73054 0.0
C259 C 0.45062 0.51238 0.7876 0.0
C260 C 0.40334 0.47699 0.74793 0.0
O261 O 0.4029 0.49365 0.75129 0.0
O262 O 0.41826 0.47248 0.74679 0.0
C263 C 0.39882 0.53926 0.76478 0.0
O264 O 0.39443 0.52718 0.77623 0.0
C265 C 0.44808 0.512 0.7226 0.0
Zn266 Zn 0.66028 0.06288 0.75284 0.0
Zn267 Zn 0.67523 0.03416 0.74842 0.0
O268 O 0.6629 0.02966 0.77164 0.0
O269 O 0.6526 0.05443 0.77676 0.0
O270 O 0.68507 0.0128 0.74368 0.0
O271 O 0.64508 0.05491 0.72767 0.0
O272 O 0.6595 0.03295 0.72402 0.0
C273 C 0.65507 0.03954 0.78158 0.0
C274 C 0.6991 0.07099 0.75324 0.0
O275 O 0.69783 0.05408 0.75214 0.0
O276 O 0.68527 0.07767 0.75338 0.0
C277 C 0.69758 0.01063 0.75564 0.0
O278 O 0.70312 0.02239 0.77088 0.0
C279 C 0.6483 0.04169 0.71758 0.0
Zn280 Zn 0.74394 0.68692 0.00297 0.0
Zn281 Zn 0.77021 0.66908 0.0057 0.0
O282 O 0.77295 0.68201 0.98158 0.0
O283 O 0.75242 0.69838 0.9808 0.0
O284 O 0.79147 0.65667 0.00671 0.0
O285 O 0.75209 0.69915 0.02947 0.0
O286 O 0.7745 0.6851 0.03174 0.0
C287 C 0.76524 0.6932 0.97374 0.0
C288 C 0.73024 0.64871 0.00064 0.0
O289 O 0.74701 0.64858 0.00373 0.0
O290 O 0.7253 0.66336 -0.00102 0.0
C291 C 0.78983 0.63958 0.00398 0.0
O292 O 0.77355 0.6289 0.00051 0.0
C293 C 0.76567 0.69588 0.03909 0.0
Zn294 Zn 0.90604 0.47814 0.78817 0.0
Zn295 Zn 0.88231 0.51971 0.78474 0.0
O296 O 0.89398 0.52576 0.81179 0.0
O297 O 0.9011 0.50083 0.80244 0.0
O298 O 0.87293 0.54071 0.77888 0.0
O299 O 0.91446 0.48952 0.7653 0.0
O300 O 0.89995 0.51258 0.76622 0.0
C301 C 0.90141 0.5131 0.81577 0.0
C302 C 0.86684 0.48571 0.78483 0.0
O303 O 0.86007 0.4993 0.78344 0.0
O304 O 0.88393 0.48874 0.78726 0.0
C305 C 0.86291 0.5443 0.79103 0.0
O306 O 0.86044 0.5342 0.80466 0.0
C307 C 0.91058 0.50358 0.75892 0.0
Zn308 Zn 0.81143 0.39474 0.49786 0.0
Zn309 Zn 0.78446 0.41328 0.49881 0.0
O310 O 0.78022 0.40177 0.47194 0.0
O311 O 0.80167 0.38637 0.47109 0.0
O312 O 0.76503 0.42632 0.50051 0.0
O313 O 0.80311 0.38284 0.51982 0.0
O314 O 0.78153 0.39801 0.51992 0.0
C315 C 0.78884 0.39206 0.46292 0.0
C316 C 0.82298 0.43351 0.50348 0.0
O317 O 0.80638 0.43365 0.50323 0.0
O318 O 0.82835 0.41891 0.50183 0.0
C319 C 0.76058 0.43521 0.48755 0.0
O320 O 0.76856 0.43519 0.47229 0.0
C321 C 0.78986 0.387 0.52696 0.0
Zn322 Zn 0.61339 0.55393 0.27835 0.0
Zn323 Zn 0.63142 0.52857 0.27756 0.0
O324 O 0.61816 0.52617 0.30169 0.0
O325 O 0.60294 0.54764 0.30169 0.0
O326 O 0.6442 0.5075 0.27698 0.0
O327 O 0.6002 0.54544 0.2525 0.0
O328 O 0.61587 0.52429 0.25068 0.0
C329 C 0.60764 0.53487 0.30937 0.0
C330 C 0.65136 0.56842 0.28065 0.0
O331 O 0.65219 0.55182 0.2801 0.0
O332 O 0.63626 0.57286 0.28015 0.0
C333 C 0.66027 0.50872 0.28493 0.0
O334 O 0.66946 0.52435 0.29408 0.0
C335 C 0.60449 0.53245 0.24305 0.0
Tb336 Tb 0.0578 0.03477 0.03297 0.0
C337 C 0.99367 0.97434 0.98948 0.0
N338 N 0.00421 0.98949 0.98455 0.0
C339 C 0.00577 0.97303 0.95475 0.0
C340 C 0.98927 0.95779 0.97744 0.0
C341 C 0.00958 0.98918 0.96705 0.0
C342 C 0.99577 0.95721 0.96005 0.0
C343 C 0.97479 0.96056 0.01155 0.0
C344 C 0.98639 0.97569 0.00621 0.0
C345 C 0.97085 0.94392 -0.00011 0.0
C346 C 0.97805 0.94254 0.98287 0.0
Tb347 Tb 0.00848 0.0151 0.00575 0.0
N348 N 0.9905 0.99198 0.01715 0.0
C349 C 0.96732 0.96274 0.0283 0.0
C350 C 0.98242 0.99445 0.0329 0.0
C351 C 0.97102 0.97981 0.03893 0.0
H352 H 0.0161 1.00141 0.96205 0.0
H353 H 0.96488 0.98177 0.05161 0.0
H354 H 0.04862 0.04714 0.07599 0.0
H355 H 0.09202 0.07306 0.98263 0.0
H356 H 0.98445 0.00774 0.04064 0.0
H357 H 0.95836 0.95145 0.03292 0.0
H358 H 0.07701 0.04548 0.99429 0.0
H359 H 0.0102 0.97291 0.94098 0.0
H360 H 0.962 0.93211 0.00376 0.0
H361 H 0.97457 0.9297 0.97382 0.0
H362 H 0.05401 0.07523 0.09778 0.0
H363 H 0.99263 0.94478 0.95036 0.0
H364 H 0.09798 0.10259 0.00264 0.0
N365 N 0.0604 0.05998 0.05393 0.0
C366 C 0.07018 0.07555 0.04906 0.0
C367 C 0.05838 0.07557 0.08401 0.0
C368 C 0.07381 0.09195 0.06129 0.0
C369 C 0.05499 0.05967 0.07138 0.0
C370 C 0.06773 0.0918 0.07891 0.0
N371 N 0.07225 0.05907 0.0199 0.0
C372 C 0.07838 0.05818 0.00281 0.0
C373 C 0.08542 0.09126 0.02558 0.0
C374 C 0.07606 0.07514 0.03142 0.0
C375 C 0.09086 0.09049 0.00768 0.0
C376 C 0.08742 0.07387 0.99631 0.0
H377 H 0.07034 0.1041 0.08874 0.0
H378 H 0.08619 0.12066 0.06475 0.0
H379 H 0.09618 0.1201 0.03346 0.0
O380 O 0.08599 0.0371 0.03597 0.0
O381 O 0.04025 0.0541 0.02657 0.0
O382 O 0.02401 0.0406 -0.00151 0.0
O383 O 0.07059 0.02981 0.05843 0.0
O384 O 0.05747 0.02026 0.00485 0.0
O385 O 0.03025 0.02251 0.98861 0.0
O386 O 0.9882 0.02928 0.01028 0.0
O387 O 0.0196 0.99642 0.02303 0.0
O388 O 0.05059 0.00508 0.02365 0.0
O389 O 0.98765 0.01286 0.98338 0.0
O390 O 0.01183 0.03054 0.03381 0.0
O391 O 0.03678 0.0234 0.04936 0.0
C392 C 0.03071 0.05525 0.01051 0.0
C393 C 0.09624 0.01752 0.05596 0.0
C394 C 0.12114 0.00331 0.0503 0.0
C395 C 0.11665 0.99203 0.06408 0.0
C396 C 0.09182 0.00609 0.06972 0.0
C397 C 0.10196 0.99336 0.07366 0.0
C398 C 0.11091 0.01598 0.04622 0.0
C399 C 0.04668 0.01953 0.98906 0.0
C400 C 0.08632 0.03172 0.05254 0.0
C401 C 0.08329 0.10794 0.05555 0.0
C402 C 0.08899 0.10761 0.03772 0.0
C403 C 0.03587 0.99285 0.02545 0.0
C404 C 0.9635 0.02873 0.98579 0.0
C405 C 0.93927 0.04389 0.99116 0.0
C406 C 0.93268 0.04021 0.97188 0.0
C407 C 0.95678 0.0249 0.96656 0.0
C408 C 0.95473 0.03823 -0.00203 0.0
C409 C 0.94143 0.0307 0.95966 0.0
C410 C 0.02077 0.02712 0.04912 0.0
C411 C 0.9801 0.02371 0.99318 0.0
H412 H 0.12442 0.9821 0.0673 0.0
H413 H 0.08066 0.00707 0.07758 0.0
H414 H 0.0985 0.98461 0.08425 0.0
H415 H 0.11464 0.02485 0.03576 0.0
H416 H 0.9206 0.04432 0.96637 0.0
H417 H 0.96348 0.01765 0.95688 0.0
H418 H 0.95996 0.04134 0.01282 0.0
H419 H 0.93628 0.02777 0.94483 0.0
Tb420 Tb 0.26183 0.77576 0.29912 0.0
C421 C 0.30441 0.74315 0.22755 0.0
N422 N 0.3101 0.75629 0.24249 0.0
C423 C 0.33884 0.7479 0.24673 0.0
C424 C 0.31553 0.73151 0.22192 0.0
C425 C 0.32732 0.75909 0.25179 0.0
C426 C 0.33287 0.73395 0.23184 0.0
C427 C 0.2809 0.72803 0.20211 0.0
C428 C 0.28745 0.74154 0.21766 0.0
C429 C 0.29177 0.71619 0.19665 0.0
C430 C 0.30908 0.71797 0.2065 0.0
Tb431 Tb 0.28998 0.77372 0.24951 0.0
N432 N 0.27724 0.75309 0.22353 0.0
C433 C 0.26362 0.72682 0.19253 0.0
C434 C 0.26057 0.75227 0.21382 0.0
C435 C 0.25346 0.73906 0.19837 0.0
H436 H 0.33246 0.77019 0.26295 0.0
H437 H 0.24013 0.73834 0.19097 0.0
H438 H 0.22085 0.78284 0.2896 0.0
H439 H 0.31388 0.80542 0.35848 0.0
H440 H 0.25249 0.76152 0.21798 0.0
H441 H 0.25807 0.71658 0.18056 0.0
H442 H 0.29718 0.78121 0.33416 0.0
H443 H 0.35238 0.75016 0.25425 0.0
H444 H 0.28697 0.7057 0.18477 0.0
H445 H 0.3174 0.70885 0.20203 0.0
H446 H 0.20425 0.8063 0.29793 0.0
H447 H 0.34185 0.72533 0.22792 0.0
H448 H 0.30216 0.83286 0.36565 0.0
N449 N 0.24494 0.79594 0.30761 0.0
C450 C 0.25294 0.80988 0.3211 0.0
C451 C 0.21805 0.80762 0.30442 0.0
C452 C 0.2441 0.82372 0.32635 0.0
C453 C 0.22754 0.79439 0.29957 0.0
C454 C 0.22645 0.82251 0.31769 0.0
N455 N 0.27713 0.79552 0.32516 0.0
C456 C 0.29227 0.79342 0.336 0.0
C457 C 0.27853 0.82372 0.34463 0.0
C458 C 0.2698 0.80981 0.33006 0.0
C459 C 0.29497 0.82244 0.35441 0.0
C460 C 0.30165 0.80701 0.35035 0.0
H461 H 0.2191 0.83278 0.32142 0.0
H462 H 0.24653 0.84893 0.34438 0.0
H463 H 0.27682 0.849 0.36037 0.0
O464 O 0.2611 0.75588 0.31684 0.0
O465 O 0.27043 0.80173 0.28951 0.0
O466 O 0.29187 0.79168 0.2755 0.0
O467 O 0.23646 0.75881 0.30115 0.0
O468 O 0.28922 0.76934 0.30317 0.0
O469 O 0.30544 0.77082 0.2767 0.0
O470 O 0.28813 0.79274 0.23075 0.0
O471 O 0.27345 0.74696 0.25102 0.0
O472 O 0.2703 0.76345 0.27558 0.0
O473 O 0.31406 0.79011 0.24377 0.0
O474 O 0.26278 0.78095 0.24679 0.0
O475 O 0.24492 0.77352 0.27135 0.0
C476 C 0.28235 0.80384 0.27778 0.0
C477 C 0.23507 0.74992 0.3317 0.0
C478 C 0.2364 0.74065 0.36298 0.0
C479 C 0.21933 0.74448 0.36461 0.0
C480 C 0.21797 0.7536 0.33331 0.0
C481 C 0.21027 0.7511 0.34987 0.0
C482 C 0.24429 0.74401 0.34674 0.0
C483 C 0.30378 0.76847 0.29457 0.0
C484 C 0.24349 0.75109 0.31439 0.0
C485 C 0.253 0.83804 0.34028 0.0
C486 C 0.27025 0.83808 0.34935 0.0
C487 C 0.26595 0.74757 0.26608 0.0
C488 C 0.31248 0.79835 0.21319 0.0
C489 C 0.31172 0.81049 0.1835 0.0
C490 C 0.32536 0.80181 0.17854 0.0
C491 C 0.32594 0.78939 0.20813 0.0
C492 C 0.3055 0.80884 0.20086 0.0
C493 C 0.33238 0.79122 0.19084 0.0
C494 C 0.24717 0.7783 0.25422 0.0
C495 C 0.30564 0.79757 0.23131 0.0
H496 H 0.21275 0.74186 0.37694 0.0
H497 H 0.21054 0.75821 0.32183 0.0
H498 H 0.19705 0.75385 0.35109 0.0
H499 H 0.25767 0.74157 0.34559 0.0
H500 H 0.33031 0.80298 0.16509 0.0
H501 H 0.33153 0.78112 0.21747 0.0
H502 H 0.29522 0.81587 0.20484 0.0
H503 H 0.34278 0.78438 0.18695 0.0
Tb504 Tb 0.50138 0.01714 0.5258 0.0
C505 C 0.56997 0.06379 0.50122 0.0
N506 N 0.55783 0.04878 0.49226 0.0
C507 C 0.55726 0.062 0.46349 0.0
C508 C 0.57578 0.0788 0.4917 0.0
C509 C 0.5518 0.04749 0.47352 0.0
C510 C 0.56924 0.07776 0.47262 0.0
C511 C 0.58774 0.08012 0.53023 0.0
C512 C 0.57597 0.06437 0.52029 0.0
C513 C 0.59362 0.09509 0.52075 0.0
C514 C 0.58771 0.0944 0.50155 0.0
Tb515 Tb 0.55172 0.02566 0.50986 0.0
N516 N 0.56974 0.04975 0.52917 0.0
C517 C 0.59316 0.08041 0.54944 0.0
C518 C 0.57536 0.04978 0.54778 0.0
C519 C 0.587 0.06516 0.55822 0.0
H520 H 0.5433 0.03509 0.46604 0.0
H521 H 0.59135 0.06519 0.57301 0.0
H522 H 0.507 0.01659 0.57234 0.0
H523 H 0.45421 0.97241 0.47141 0.0
H524 H 0.57129 0.03796 0.55462 0.0
H525 H 0.60219 0.09227 0.55759 0.0
H526 H 0.47626 1.00089 0.48527 0.0
H527 H 0.55241 0.06092 0.44865 0.0
H528 H 0.60269 0.1073 0.52818 0.0
H529 H 0.59232 0.10608 0.49447 0.0
H530 H 0.50066 0.9939 0.5942 0.0
H531 H 0.57342 0.08899 0.4648 0.0
H532 H 0.44749 0.94701 0.49032 0.0
N533 N 0.49587 0.99783 0.54781 0.0
C534 C 0.48532 0.98116 0.54105 0.0
C535 C 0.49654 0.99003 0.57924 0.0
C536 C 0.48051 0.96801 0.55312 0.0
C537 C 0.50051 0.00276 0.56676 0.0
C538 C 0.48676 0.97247 0.57236 0.0
N539 N 0.48241 0.99109 0.51117 0.0
C540 C 0.47348 0.9897 0.49341 0.0
C541 C 0.46555 0.96143 0.51501 0.0
C542 C 0.47798 0.97783 0.52222 0.0
C543 C 0.4572 0.95938 0.49638 0.0
C544 C 0.46097 0.97369 0.48563 0.0
H545 H 0.48339 0.96274 0.58211 0.0
H546 H 0.46523 0.94087 0.5548 0.0
H547 H 0.45207 0.93515 0.52144 0.0
O548 O 0.48363 0.03286 0.51535 0.0
O549 O 0.50852 0.99432 0.50843 0.0
O550 O 0.53963 0.99755 0.51407 0.0
O551 O 0.47919 0.01962 0.53981 0.0
O552 O 0.50755 0.02925 0.50074 0.0
O553 O 0.5287 0.01568 0.48821 0.0
O554 O 0.57823 0.02095 0.51435 0.0
O555 O 0.53878 0.0491 0.51554 0.0
O556 O 0.52048 0.04267 0.53868 0.0
O557 O 0.56337 0.01716 0.48666 0.0
O558 O 0.5482 0.01331 0.53542 0.0
O559 O 0.525 0.02407 0.54725 0.0
C560 C 0.52304 0.98736 0.50975 0.0
C561 C 0.46756 0.04561 0.53769 0.0
C562 C 0.4442 0.06296 0.5395 0.0
C563 C 0.45313 0.07185 0.55709 0.0
C564 C 0.47645 0.05481 0.55516 0.0
C565 C 0.46926 0.06791 0.56476 0.0
C566 C 0.45157 0.04995 0.52973 0.0
C567 C 0.51445 0.0227 0.48646 0.0
C568 C 0.4735 0.03011 0.52864 0.0
C569 C 0.46896 0.95119 0.54577 0.0
C570 C 0.46143 0.94794 0.52677 0.0
C571 C 0.5305 0.05447 0.52961 0.0
C572 C 0.58369 0.99809 0.49174 0.0
C573 C 0.60488 0.97833 0.49639 0.0
C574 C 0.59565 0.96677 0.48023 0.0
C575 C 0.57473 0.98614 0.47567 0.0
C576 C 0.59895 0.99415 0.50202 0.0
C577 C 0.58072 0.97067 0.47 0.0
C578 C 0.5379 0.01514 0.54864 0.0
C579 C 0.57792 0.01521 0.49665 0.0
H580 H 0.44765 0.08193 0.56482 0.0
H581 H 0.48866 0.05152 0.5616 0.0
H582 H 0.47606 0.07484 0.57831 0.0
H583 H 0.44453 0.04276 0.51633 0.0
H584 H 0.60022 0.95482 0.47525 0.0
H585 H 0.56321 0.98883 0.46719 0.0
H586 H 0.60617 0.00334 0.51425 0.0
H587 H 0.57387 0.96175 0.45747 0.0
Tb588 Tb 0.30466 0.2675 0.77015 0.0
C589 C 0.23594 0.28868 0.73078 0.0
N590 N 0.24768 0.29737 0.74614 0.0
C591 C 0.24979 0.32551 0.73323 0.0
C592 C 0.23129 0.2979 0.71567 0.0
C593 C 0.25372 0.3158 0.74798 0.0
C594 C 0.23878 0.31648 0.71685 0.0
C595 C 0.21481 0.26121 0.71563 0.0
C596 C 0.22772 0.27069 0.73075 0.0
C597 C 0.21063 0.27011 0.70018 0.0
C598 C 0.21887 0.28843 0.70019 0.0
Tb599 Tb 0.25377 0.27965 0.7689 0.0
N600 N 0.23239 0.26248 0.74576 0.0
C601 C 0.20636 0.24317 0.71665 0.0
C602 C 0.22358 0.2452 0.74731 0.0
C603 C 0.21062 0.2352 0.73267 0.0
H604 H 0.26118 0.32328 0.76095 0.0
H605 H 0.20393 0.22138 0.73376 0.0
H606 H 0.29725 0.2235 0.77491 0.0
H607 H 0.34911 0.32676 0.81165 0.0
H608 H 0.22676 0.23909 0.75974 0.0
H609 H 0.19634 0.2354 0.70533 0.0
H610 H 0.32734 0.31046 0.78466 0.0
H611 H 0.25498 0.34003 0.73468 0.0
H612 H 0.20084 0.26306 0.68832 0.0
H613 H 0.21524 0.29525 0.68837 0.0
H614 H 0.30636 0.20482 0.79841 0.0
H615 H 0.23558 0.32407 0.70554 0.0
H616 H 0.36004 0.31006 0.83647 0.0
N617 N 0.31235 0.24846 0.79041 0.0
C618 C 0.32477 0.25648 0.80551 0.0
C619 C 0.31149 0.21936 0.80068 0.0
C620 C 0.33063 0.24624 0.81914 0.0
C621 C 0.30609 0.23008 0.78752 0.0
C622 C 0.3237 0.22747 0.81664 0.0
N623 N 0.32506 0.28463 0.79424 0.0
C624 C 0.33151 0.30292 0.79546 0.0
C625 C 0.34404 0.28396 0.8231 0.0
C626 C 0.3314 0.27513 0.80744 0.0
C627 C 0.35033 0.30276 0.82465 0.0
C628 C 0.34411 0.31225 0.81071 0.0
H629 H 0.32786 0.21912 0.8268 0.0
H630 H 0.34779 0.24736 0.84544 0.0
H631 H 0.35952 0.28037 0.84892 0.0
O632 O 0.33006 0.27478 0.7606 0.0
O633 O 0.29432 0.27123 0.79756 0.0
O634 O 0.27684 0.29095 0.7904 0.0
O635 O 0.31255 0.24846 0.75136 0.0
O636 O 0.30266 0.29395 0.76137 0.0
O637 O 0.27763 0.30297 0.77237 0.0
O638 O 0.23468 0.26996 0.78698 0.0
O639 O 0.25882 0.26253 0.74435 0.0
O640 O 0.28864 0.27493 0.74658 0.0
O641 O 0.23831 0.29692 0.77981 0.0
O642 O 0.25911 0.25567 0.78092 0.0
O643 O 0.28048 0.24494 0.76493 0.0
C644 C 0.28397 0.28217 0.80269 0.0
C645 C 0.34427 0.25167 0.74966 0.0
C646 C 0.37245 0.25078 0.73648 0.0
C647 C 0.37417 0.23605 0.74618 0.0
C648 C 0.34641 0.2371 0.75941 0.0
C649 C 0.36132 0.22938 0.75768 0.0
C650 C 0.35749 0.25865 0.73837 0.0
C651 C 0.29332 0.30633 0.76544 0.0
C652 C 0.32805 0.25932 0.75024 0.0
C653 C 0.34317 0.255 0.83479 0.0
C654 C 0.34987 0.27381 0.83676 0.0
C655 C 0.27403 0.26441 0.73708 0.0
C656 C 0.20908 0.28337 0.78588 0.0
C657 C 0.1807 0.28135 0.79939 0.0
C658 C 0.17244 0.28512 0.78236 0.0
C659 C 0.20038 0.28679 0.76888 0.0
C660 C 0.19909 0.28041 0.80111 0.0
C661 C 0.18219 0.28768 0.76719 0.0
C662 C 0.26579 0.24238 0.77347 0.0
C663 C 0.22887 0.28481 0.78839 0.0
H664 H 0.38554 0.22976 0.74492 0.0
H665 H 0.33651 0.23154 0.76816 0.0
H666 H 0.36284 0.21807 0.76515 0.0
H667 H 0.3559 0.26987 0.73072 0.0
H668 H 0.15837 0.28606 0.78082 0.0
H669 H 0.20777 0.28928 0.75706 0.0
H670 H 0.20571 0.27796 0.81436 0.0
H671 H 0.17568 0.29062 0.75414 0.0
Tb672 Tb 0.03523 0.99827 0.51236 0.0
C673 C 0.01455 0.06418 0.55572 0.0
N674 N 0.00539 0.05321 0.54009 0.0
C675 C 0.9775 0.05107 0.55317 0.0
C676 C 0.00559 0.06845 0.57108 0.0
C677 C 0.98701 0.04715 0.53833 0.0
C678 C 0.98685 0.06162 0.5697 0.0
C679 C 0.04309 0.08216 0.5724 0.0
C680 C 0.03306 0.07097 0.55631 0.0
C681 C 0.03429 0.08625 0.58789 0.0
C682 C 0.01558 0.07944 0.58722 0.0
Tb683 Tb 0.02226 0.04766 0.51693 0.0
N684 N 0.04116 0.0666 0.54108 0.0
C685 C 0.06164 0.08905 0.57238 0.0
C686 C 0.05906 0.07406 0.54066 0.0
C687 C 0.0696 0.08513 0.55636 0.0
H688 H 0.97954 0.03949 0.52542 0.0
H689 H 0.08383 0.09083 0.55602 0.0
H690 H 0.07836 0.00847 0.50267 0.0
H691 H 0.9771 0.94868 0.47654 0.0
H692 H 0.06529 0.07201 0.5282 0.0
H693 H 0.06984 0.09768 0.58448 0.0
H694 H 0.995 0.97052 0.50318 0.0
H695 H 0.96295 0.04606 0.55179 0.0
H696 H 0.04179 0.09479 0.6004 0.0
H697 H 0.00895 0.08284 0.59921 0.0
H698 H 0.09411 0.00501 0.47513 0.0
H699 H 0.97944 0.06463 0.58117 0.0
H700 H 0.99031 0.94359 0.4471 0.0
N701 N 0.0522 0.99511 0.48827 0.0
C702 C 0.04322 0.98397 0.47261 0.0
C703 C 0.07969 0.99932 0.47408 0.0
C704 C 0.05195 0.98076 0.45674 0.0
C705 C 0.07052 1.00178 0.48957 0.0
C706 C 0.0703 0.98903 0.45746 0.0
N707 N 0.01761 0.9782 0.48854 0.0
C708 C 1.00071 0.96855 0.49027 0.0
C709 C 0.01586 0.96255 0.45742 0.0
C710 C 0.02546 0.97488 0.47291 0.0
C711 C 0.99816 0.95322 0.4587 0.0
C712 C 0.99063 0.9561 0.47528 0.0
H713 H 0.07751 0.98692 0.44557 0.0
H714 H 0.04872 0.96638 0.42861 0.0
H715 H 0.01709 0.95047 0.42918 0.0
O716 O 0.02806 0.97888 0.53175 0.0
O717 O 0.01749 0.00501 0.48912 0.0
O718 O 0.02953 0.03515 0.49122 0.0
O719 O 0.05087 0.97945 0.51604 0.0
O720 O 0.01071 1.00104 0.52464 0.0
O721 O 0.99986 0.02346 0.51042 0.0
O722 O 0.02661 0.07478 0.51048 0.0
O723 O 0.02536 0.0337 0.54214 0.0
O724 O 0.04772 0.01861 0.53644 0.0
O725 O 1.00119 0.05505 0.50039 0.0
O726 O 0.04801 0.04652 0.5063 0.0
O727 O 0.05807 0.02237 0.51791 0.0
C728 C 0.01994 0.02014 0.48154 0.0
C729 C 0.04818 0.95755 0.53777 0.0
C730 C 0.04399 0.93175 0.55584 0.0
C731 C 0.06213 0.93101 0.55499 0.0
C732 C 0.06634 0.95644 0.5373 0.0
C733 C 0.07319 0.94325 0.54578 0.0
C734 C 0.0369 0.94504 0.54711 0.0
C735 C 0.99738 0.00841 0.51841 0.0
C736 C 0.04148 0.9716 0.52805 0.0
C737 C 0.04227 0.96891 0.44097 0.0
C738 C 0.02427 0.95981 0.44132 0.0
C739 C 0.03916 0.02696 0.5481 0.0
C740 C 1.00322 0.08526 0.49114 0.0
C741 C 0.00653 0.11174 0.47397 0.0
C742 C 0.98764 0.10967 0.47191 0.0
C743 C 0.98437 0.08357 0.48876 0.0
C744 C 0.01441 0.09958 0.48383 0.0
C745 C 0.97669 0.09576 0.47933 0.0
C746 C 0.06089 0.03789 0.51076 0.0
C747 C 0.01064 0.07152 0.50064 0.0
H748 H 0.06777 0.92086 0.5615 0.0
H749 H 0.07536 0.96578 0.5303 0.0
H750 H 0.08716 0.94251 0.54521 0.0
H751 H 0.02287 0.94564 0.54762 0.0
H752 H 0.98134 0.11889 0.46452 0.0
H753 H 0.97552 0.07279 0.49425 0.0
H754 H 0.02897 0.10099 0.48539 0.0
H755 H 0.96214 0.09434 0.47766 0.0
Tb756 Tb 0.28003 0.79906 0.76229 0.0
C757 C 0.23905 0.73407 0.79525 0.0
N758 N 0.25581 0.74471 0.80159 0.0
C759 C 0.24826 0.74675 0.83309 0.0
C760 C 0.22596 0.73001 0.80752 0.0
C761 C 0.26089 0.75005 0.82046 0.0
C762 C 0.23061 0.73697 0.82655 0.0
C763 C 0.21876 0.71389 0.76983 0.0
C764 C 0.23541 0.72609 0.77665 0.0
C765 C 0.20539 0.71048 0.7818 0.0
C766 C 0.20897 0.71856 0.80058 0.0
Tb767 Tb 0.27482 0.74908 0.77914 0.0
N768 N 0.24848 0.72998 0.76532 0.0
C769 C 0.21625 0.70517 0.75135 0.0
C770 C 0.24662 0.7207 0.74771 0.0
C771 C 0.23036 0.70838 0.74035 0.0
H772 H 0.27476 0.75657 0.82599 0.0
H773 H 0.22872 0.70137 0.72622 0.0
H774 H 0.28683 0.79084 0.71758 0.0
H775 H 0.31951 0.8453 0.82136 0.0
H776 H 0.25762 0.72304 0.73934 0.0
H777 H 0.20366 0.69565 0.74561 0.0
H778 H 0.29241 0.82346 0.8047 0.0
H779 H 0.25226 0.75143 0.84794 0.0
H780 H 0.19242 0.70128 0.77679 0.0
H781 H 0.1987 0.71541 0.80977 0.0
H782 H 0.31099 0.80047 0.69839 0.0
H783 H 0.22094 0.73418 0.83644 0.0
H784 H 0.34573 0.85565 0.80457 0.0
N785 N 0.30152 0.80633 0.74296 0.0
C786 C 0.31643 0.81928 0.75076 0.0
C787 C 0.31281 0.80568 0.71317 0.0
C788 C 0.33054 0.82535 0.74019 0.0
C789 C 0.29923 0.79998 0.72424 0.0
C790 C 0.32861 0.81828 0.7212 0.0
N791 N 0.30378 0.81993 0.77934 0.0
C792 C 0.30405 0.82709 0.79751 0.0
C793 C 0.33326 0.83905 0.77836 0.0
C794 C 0.31771 0.82611 0.76961 0.0
C795 C 0.33401 0.84572 0.79731 0.0
C796 C 0.31927 0.83983 0.80686 0.0
H797 H 0.33912 0.82263 0.71258 0.0
H798 H 0.35711 0.84294 0.74104 0.0
H799 H 0.35954 0.85487 0.77446 0.0
O800 O 0.27461 0.82547 0.76526 0.0
O801 O 0.30511 0.78846 0.76693 0.0
O802 O 0.30123 0.76835 0.78921 0.0
O803 O 0.26478 0.80634 0.73965 0.0
O804 O 0.27125 0.79506 0.78976 0.0
O805 O 0.28409 0.7723 0.80069 0.0
O806 O 0.28773 0.72966 0.76714 0.0
O807 O 0.25129 0.75588 0.76233 0.0
O808 O 0.25441 0.78612 0.77164 0.0
O809 O 0.27972 0.72833 0.79462 0.0
O810 O 0.2866 0.75662 0.75458 0.0
O811 O 0.27126 0.77559 0.74075 0.0
C812 C 0.31175 0.7798 0.7801 0.0
C813 C 0.25749 0.83571 0.73917 0.0
C814 C 0.24433 0.86238 0.74037 0.0
C815 C 0.24221 0.86057 0.72059 0.0
C816 C 0.25523 0.83432 0.71947 0.0
C817 C 0.24766 0.84668 0.71028 0.0
C818 C 0.252 0.84979 0.74966 0.0
C819 C 0.277 0.78643 0.80328 0.0
C820 C 0.26574 0.82242 0.74836 0.0
C821 C 0.34608 0.83818 0.74891 0.0
C822 C 0.34746 0.84496 0.76795 0.0
C823 C 0.24419 0.7702 0.76452 0.0
C824 C 0.30525 0.71693 0.78871 0.0
C825 C 0.32566 0.69633 0.78766 0.0
C826 C 0.33782 0.70804 0.80195 0.0
C827 C 0.31741 0.72837 0.8032 0.0
C828 C 0.30938 0.70083 0.781 0.0
C829 C 0.33367 0.72398 0.80968 0.0
C830 C 0.27816 0.76121 0.73985 0.0
C831 C 0.28798 0.72131 0.78195 0.0
H832 H 0.23606 0.86977 0.71301 0.0
H833 H 0.25945 0.8237 0.71112 0.0
H834 H 0.24594 0.84546 0.69507 0.0
H835 H 0.25373 0.85099 0.76488 0.0
H836 H 0.35037 0.70468 0.80731 0.0
H837 H 0.31417 0.74053 0.80964 0.0
H838 H 0.29992 0.69177 0.77001 0.0
H839 H 0.343 0.73285 0.82087 0.0
Tb840 Tb 0.52604 0.04247 0.9883 0.0
C841 C 0.55603 1.00193 0.06025 0.0
N842 N 0.54434 0.99567 0.04415 0.0
C843 C 0.5575 0.96986 0.03946 0.0
C844 C 0.56936 0.99267 0.06623 0.0
C845 C 0.54463 0.97961 0.03399 0.0
C846 C 0.57002 0.97649 0.05555 0.0
C847 C 0.56698 0.0251 0.08708 0.0
C848 C 0.55482 0.01792 0.07055 0.0
C849 C 0.58043 0.01604 0.09297 0.0
C850 C 0.58159 0.99985 0.08259 0.0
Tb851 Tb 0.52416 0.01297 0.03641 0.0
N852 N 0.54195 0.02659 0.06409 0.0
C853 C 0.56524 0.04116 0.0972 0.0
C854 C 0.53956 0.04169 0.0746 0.0
C855 C 0.55133 0.04935 0.09106 0.0
H856 H 0.53474 0.97397 0.02188 0.0
H857 H 0.54954 0.06149 0.0991 0.0
H858 H 0.52022 0.08325 0.0017 0.0
H859 H 0.4905 0.99013 0.93167 0.0
H860 H 0.52847 0.04786 0.07078 0.0
H861 H 0.57434 0.04714 0.10995 0.0
H862 H 0.51483 0.00412 0.95695 0.0
H863 H 0.55768 0.95718 0.0313 0.0
H864 H 0.58995 0.02141 0.10558 0.0
H865 H 0.59199 0.99298 0.08735 0.0
H866 H 0.4987 0.10203 0.9932 0.0
H867 H 0.58002 0.96893 0.0597 0.0
H868 H 0.4669 0.00635 0.92192 0.0
N869 N 0.50732 0.06107 0.98086 0.0
C870 C 0.49383 0.0546 0.96637 0.0
C871 C 0.49712 0.08867 0.98558 0.0
C872 C 0.48113 0.06479 0.96111 0.0
C873 C 0.50926 0.07794 0.99041 0.0
C874 C 0.48294 0.08205 0.97091 0.0
N875 N 0.50501 0.02808 0.96298 0.0
C876 C 0.50459 0.01143 0.95359 0.0
C877 C 0.47841 0.02995 0.94238 0.0
C878 C 0.49254 0.03745 0.95719 0.0
C879 C 0.47756 0.01262 0.93333 0.0
C880 C 0.49081 0.00341 0.93885 0.0
H881 H 0.47348 0.09034 0.96729 0.0
H882 H 0.45704 0.06496 0.94221 0.0
H883 H 0.45463 0.0344 0.92581 0.0
O884 O 0.5449 0.04239 0.96933 0.0
O885 O 0.49931 0.03533 0.99666 0.0
O886 O 0.50621 0.01202 0.01031 0.0
O887 O 0.54425 0.06706 0.98648 0.0
O888 O 0.53357 0.01563 0.98494 0.0
O889 O 0.52334 0.99722 0.00814 0.0
O890 O 0.50327 0.01253 0.05304 0.0
O891 O 0.55231 0.02568 0.03444 0.0
O892 O 0.53609 0.03263 0.01192 0.0
O893 O 0.5106 0.98783 0.04299 0.0
O894 O 0.51784 0.04064 0.03885 0.0
O895 O 0.53054 0.0588 0.01648 0.0
C896 C 0.49526 0.02287 0.0076 0.0
C897 C 0.55125 0.06896 0.95537 0.0
C898 C 0.55952 0.06941 0.92384 0.0
C899 C 0.552 0.08447 0.92174 0.0
C900 C 0.54344 0.08389 0.95313 0.0
C901 C 0.5439 0.09162 0.93636 0.0
C902 C 0.55927 0.06188 0.94068 0.0
C903 C 0.53009 0.99982 0.99196 0.0
C904 C 0.55075 0.0599 0.97237 0.0
C905 C 0.46699 0.05738 0.94642 0.0
C906 C 0.46562 0.03997 0.9371 0.0
C907 C 0.55222 0.03406 0.02004 0.0
C908 C 0.49974 0.98952 0.07242 0.0
C909 C 0.48579 0.9908 0.10097 0.0
C910 C 0.49603 0.97913 0.10817 0.0
C911 C 0.51024 0.97808 0.07974 0.0
C912 C 0.48756 0.99574 0.08307 0.0
C913 C 0.50827 0.97285 0.09756 0.0
C914 C 0.52309 0.05648 0.03224 0.0
C915 C 0.50084 0.9952 0.05373 0.0
H916 H 0.55219 0.09049 0.90877 0.0
H917 H 0.53696 0.08951 0.96421 0.0
H918 H 0.53789 0.10311 0.93466 0.0
H919 H 0.56533 0.05037 0.94233 0.0
H920 H 0.49486 0.97525 0.1221 0.0
H921 H 0.51988 0.97319 0.07176 0.0
H922 H 0.47943 0.00454 0.07742 0.0
H923 H 0.51633 0.96404 0.10321 0.0
Tb924 Tb 0.26482 0.24256 0.2516 0.0
C925 C 0.32647 0.3043 0.2956 0.0
N926 N 0.31055 0.29513 0.30031 0.0
C927 C 0.32561 0.29346 0.33092 0.0
C928 C 0.34272 0.30784 0.30814 0.0
C929 C 0.30981 0.29051 0.31809 0.0
C930 C 0.34219 0.30192 0.32584 0.0
C931 C 0.34215 0.32172 0.27353 0.0
C932 C 0.32622 0.31127 0.27864 0.0
C933 C 0.35851 0.32467 0.28563 0.0
C934 C 0.3588 0.31777 0.30292 0.0
Tb935 Tb 0.28564 0.2918 0.27819 0.0
N936 N 0.31015 0.30821 0.26735 0.0
C937 C 0.34101 0.32922 0.25663 0.0
C938 C 0.30874 0.31635 0.25143 0.0
C939 C 0.32418 0.32668 0.24563 0.0
H940 H 0.29704 0.28525 0.32283 0.0
H941 H 0.32306 0.33283 0.2328 0.0
H942 H 0.24968 0.25152 0.20945 0.0
H943 H 0.23079 0.2064 0.30351 0.0
H944 H 0.29573 0.31498 0.24329 0.0
H945 H 0.35294 0.33734 0.25219 0.0
H946 H 0.25716 0.22138 0.28993 0.0
H947 H 0.3249 0.28959 0.34489 0.0
H948 H 0.37093 0.33261 0.28195 0.0
H949 H 0.37142 0.32056 0.31234 0.0
H950 H 0.22049 0.246 0.18921 0.0
H951 H 0.35436 0.30445 0.33592 0.0
H952 H 0.20007 0.2015 0.28596 0.0
N953 N 0.2384 0.24003 0.2324 0.0
C954 C 0.22335 0.23029 0.23826 0.0
C955 C 0.22104 0.24177 0.2031 0.0
C956 C 0.20634 0.2266 0.22699 0.0
C957 C 0.23758 0.24525 0.21482 0.0
C958 C 0.20531 0.23254 0.20926 0.0
N959 N 0.24175 0.22781 0.26617 0.0
C960 C 0.24395 0.2208 0.28273 0.0
C961 C 0.20952 0.21483 0.26263 0.0
C962 C 0.225 0.22437 0.25585 0.0
C963 C 0.21163 0.20881 0.28023 0.0
C964 C 0.22894 0.21166 0.29023 0.0
H965 H 0.19252 0.22985 0.20013 0.0
H966 H 0.17774 0.21419 0.22531 0.0
H967 H 0.18049 0.20403 0.25655 0.0
O968 O 0.2613 0.21431 0.24725 0.0
O969 O 0.24596 0.26069 0.25791 0.0
O970 O 0.26014 0.27669 0.28582 0.0
O971 O 0.26985 0.2306 0.22577 0.0
O972 O 0.28031 0.24302 0.2794 0.0
O973 O 0.27759 0.27001 0.29525 0.0
O974 O 0.27188 0.31252 0.27279 0.0
O975 O 0.3031 0.28005 0.26007 0.0
O976 O 0.29464 0.24924 0.2606 0.0
O977 O 0.28833 0.3131 0.29977 0.0
O978 O 0.27001 0.28912 0.25025 0.0
O979 O 0.27539 0.2634 0.23454 0.0
C980 C 0.24523 0.27028 0.27402 0.0
C981 C 0.27904 0.20295 0.22586 0.0
C982 C 0.29413 0.17877 0.23231 0.0
C983 C 0.29948 0.1783 0.21429 0.0
C984 C 0.28455 0.20241 0.20788 0.0
C985 C 0.29484 0.19022 0.20221 0.0
C986 C 0.28412 0.19122 0.23817 0.0
C987 C 0.28098 0.25377 0.29512 0.0
C988 C 0.2665 0.21439 0.23066 0.0
C989 C 0.19094 0.21712 0.23375 0.0
C990 C 0.19251 0.21135 0.25155 0.0
C991 C 0.30681 0.26386 0.25838 0.0
C992 C 0.27303 0.33743 0.29732 0.0
C993 C 0.26029 0.36326 0.29218 0.0
C994 C 0.26069 0.36743 0.31164 0.0
C995 C 0.27365 0.34177 0.31682 0.0
C996 C 0.26654 0.34835 0.28504 0.0
C997 C 0.2675 0.35675 0.32393 0.0
C998 C 0.27222 0.27969 0.23472 0.0
C999 C 0.27761 0.32072 0.28979 0.0
H1000 H 0.30724 0.16871 0.20961 0.0
H1001 H 0.28058 0.21116 0.19807 0.0
H1002 H 0.29894 0.1898 0.1883 0.0
H1003 H 0.27975 0.19122 0.25198 0.0
H1004 H 0.2559 0.37901 0.31728 0.0
H1005 H 0.27846 0.33334 0.32652 0.0
H1006 H 0.26597 0.34508 0.26996 0.0
H1007 H 0.26783 0.35998 0.33894 0.0
Tb1008 Tb 0.53367 0.4969 0.01401 0.0
C1009 C 0.51187 0.56559 0.05392 0.0
N1010 N 0.50304 0.55365 0.03879 0.0
C1011 C 0.47497 0.55211 0.05159 0.0
C1012 C 0.50275 0.57068 0.06886 0.0
C1013 C 0.4846 0.54767 0.03704 0.0
C1014 C 0.48412 0.56344 0.06772 0.0
C1015 C 0.53961 0.58647 0.06886 0.0
C1016 C 0.52994 0.57349 0.0539 0.0
C1017 C 0.53079 0.59111 0.08413 0.0
C1018 C 0.51238 0.58323 0.08413 0.0
Tb1019 Tb 0.52053 0.54696 0.01619 0.0
N1020 N 0.53802 0.56845 0.03901 0.0
C1021 C 0.55776 0.59451 0.06784 0.0
C1022 C 0.55541 0.57691 0.03745 0.0
C1023 C 0.56563 0.58985 0.05196 0.0
H1024 H 0.47706 0.53987 0.02426 0.0
H1025 H 0.57953 0.59627 0.05085 0.0
H1026 H 0.57743 0.5051 0.00866 0.0
H1027 H 0.47411 0.45341 0.9716 0.0
H1028 H 0.56143 0.57359 0.02508 0.0
H1029 H 0.56568 0.60454 0.07906 0.0
H1030 H 0.49075 0.47319 -0.00028 0.0
H1031 H 0.46043 0.54705 0.0502 0.0
H1032 H 0.53799 0.60098 0.09585 0.0
H1033 H 0.50563 0.58722 0.09581 0.0
H1034 H 0.5957 0.49863 0.98374 0.0
H1035 H 0.47659 0.56702 0.07889 0.0
H1036 H 0.4903 0.44524 0.94526 0.0
N1037 N 0.55238 0.49044 0.99295 0.0
C1038 C 0.54419 0.47903 0.9772 0.0
C1039 C 0.5812 0.49313 0.98167 0.0
C1040 C 0.55416 0.47475 0.96269 0.0
C1041 C 0.57073 0.49698 0.99568 0.0
C1042 C 0.57286 0.4821 0.96503 0.0
N1043 N 0.51633 0.47715 0.98943 0.0
C1044 C 0.49811 0.47022 0.98835 0.0
C1045 C 0.51652 0.46071 0.959 0.0
C1046 C 0.52558 0.47214 0.97538 0.0
C1047 C 0.49777 0.45407 0.95761 0.0
C1048 C 0.48857 0.45872 0.97242 0.0
H1049 H 0.581 0.47921 0.95417 0.0
H1050 H 0.55257 0.46005 0.93498 0.0
H1051 H 0.51964 0.44772 0.93176 0.0
O1052 O 0.52824 0.47047 0.02198 0.0
O1053 O 0.53054 0.5088 0.98737 0.0
O1054 O 0.50931 0.52406 0.99468 0.0
O1055 O 0.55306 0.49011 0.03324 0.0
O1056 O 0.50692 0.49759 0.02267 0.0
O1057 O 0.49735 0.5231 0.01341 0.0
O1058 O 0.52982 0.56607 -0.00206 0.0
O1059 O 0.53725 0.54155 0.04103 0.0
O1060 O 0.52569 0.51142 0.03818 0.0
O1061 O 0.50273 0.5617 0.00479 0.0
O1062 O 0.54491 0.5427 0.00441 0.0
O1063 O 0.55582 0.52129 0.02025 0.0
C1064 C 0.51836 0.51786 0.98222 0.0
C1065 C 0.55197 0.45927 0.03841 0.0
C1066 C 0.55179 0.43287 0.05521 0.0
C1067 C 0.57017 0.43437 0.05328 0.0
C1068 C 0.57028 0.46033 0.03642 0.0
C1069 C 0.57927 0.44788 0.04379 0.0
C1070 C 0.54267 0.44529 0.04759 0.0
C1071 C 0.49434 0.50695 0.01945 0.0
C1072 C 0.54311 0.47399 0.03374 0.0
C1073 C 0.54516 0.46343 0.94632 0.0
C1074 C 0.52639 0.45641 0.94449 0.0
C1075 C 0.53554 0.52618 0.04808 0.0
C1076 C 0.51552 0.59104 -0.00153 0.0
C1077 C 0.51801 0.61932 0.98463 0.0
C1078 C 0.51229 0.62718 0.0007 0.0
C1079 C 0.51026 0.59938 0.0146 0.0
C1080 C 0.51972 0.60119 0.9836 0.0
C1081 C 0.50862 0.61732 0.01563 0.0
C1082 C 0.55828 0.53601 0.01177 0.0
C1083 C 0.51468 0.57138 0.99625 0.0
H1084 H 0.57749 0.42506 0.05918 0.0
H1085 H 0.57777 0.47105 0.02966 0.0
H1086 H 0.59346 0.44893 0.04246 0.0
H1087 H 0.52864 0.44458 0.04956 0.0
H1088 H 0.51078 0.64106 0.00173 0.0
H1089 H 0.5069 0.59188 0.02619 0.0
H1090 H 0.52367 0.59486 0.97104 0.0
H1091 H 0.50425 0.62353 0.02797 0.0
Tb1092 Tb 0.78233 0.30053 0.25794 0.0
C1093 C 0.73998 0.23473 0.29058 0.0
N1094 N 0.75681 0.24529 0.29666 0.0
C1095 C 0.75014 0.24674 0.32848 0.0
C1096 C 0.72732 0.23029 0.30319 0.0
C1097 C 0.76238 0.2503 0.31549 0.0
C1098 C 0.73242 0.23695 0.32227 0.0
C1099 C 0.71947 0.21452 0.26539 0.0
C1100 C 0.73602 0.227 0.2719 0.0
C1101 C 0.70646 0.21075 0.27769 0.0
C1102 C 0.71034 0.21868 0.29653 0.0
Tb1103 Tb 0.77525 0.2501 0.27381 0.0
N1104 N 0.74882 0.23108 0.26033 0.0
C1105 C 0.71679 0.20578 0.2469 0.0
C1106 C 0.74682 0.22185 0.24269 0.0
C1107 C 0.73064 0.20926 0.2356 0.0
H1108 H 0.77634 0.25684 0.32062 0.0
H1109 H 0.72887 0.20224 0.22147 0.0
H1110 H 0.79024 0.29326 0.21363 0.0
H1111 H 0.82266 0.34154 0.32003 0.0
H1112 H 0.75765 0.22446 0.2341 0.0
H1113 H 0.70429 0.19603 0.24139 0.0
H1114 H 0.79526 0.32127 0.30222 0.0
H1115 H 0.7545 0.25119 0.34332 0.0
H1116 H 0.69355 0.20135 0.27291 0.0
H1117 H 0.70038 0.21523 0.30598 0.0
H1118 H 0.81518 0.30312 0.19538 0.0
H1119 H 0.72307 0.23389 0.33241 0.0
H1120 H 0.84922 0.35253 0.30397 0.0
N1121 N 0.80471 0.30745 0.23966 0.0
C1122 C 0.81976 0.31976 0.24827 0.0
C1123 C 0.81675 0.30771 0.21029 0.0
C1124 C 0.83425 0.32606 0.23825 0.0
C1125 C 0.80277 0.30181 0.22081 0.0
C1126 C 0.83261 0.3198 0.21907 0.0
N1127 N 0.80664 0.31909 0.27666 0.0
C1128 C 0.80697 0.32508 0.2952 0.0
C1129 C 0.83663 0.33772 0.27692 0.0
C1130 C 0.82087 0.32557 0.2674 0.0
C1131 C 0.83734 0.34323 0.29614 0.0
C1132 C 0.82241 0.33697 0.30528 0.0
H1133 H 0.84343 0.32435 0.21087 0.0
H1134 H 0.86119 0.3432 0.24026 0.0
H1135 H 0.86332 0.35335 0.27408 0.0
O1136 O 0.77783 0.32714 0.26224 0.0
O1137 O 0.80626 0.28797 0.26201 0.0
O1138 O 0.80102 0.26949 0.28527 0.0
O1139 O 0.77169 0.3113 0.23499 0.0
O1140 O 0.77152 0.29668 0.28437 0.0
O1141 O 0.78386 0.27377 0.29481 0.0
O1142 O 0.79062 0.2322 0.26325 0.0
O1143 O 0.75206 0.25726 0.25682 0.0
O1144 O 0.75488 0.28812 0.26379 0.0
O1145 O 0.77832 0.22824 0.28829 0.0
O1146 O 0.78619 0.25534 0.24802 0.0
O1147 O 0.77265 0.27718 0.23639 0.0
C1148 C 0.81227 0.2795 0.27566 0.0
C1149 C 0.75532 0.33423 0.23977 0.0
C1150 C 0.73649 0.35608 0.24569 0.0
C1151 C 0.72719 0.3506 0.2274 0.0
C1152 C 0.74566 0.32913 0.22156 0.0
C1153 C 0.73177 0.33727 0.21548 0.0
C1154 C 0.75081 0.34802 0.25182 0.0
C1155 C 0.775 0.28654 0.29737 0.0
C1156 C 0.77134 0.32656 0.24468 0.0
C1157 C 0.8499 0.33823 0.24771 0.0
C1158 C 0.85111 0.344 0.26698 0.0
C1159 C 0.74483 0.27157 0.25881 0.0
C1160 C 0.80502 0.21792 0.28619 0.0
C1161 C 0.82444 0.19642 0.28869 0.0
C1162 C 0.83381 0.20674 0.30549 0.0
C1163 C 0.81448 0.228 0.30304 0.0
C1164 C 0.81019 0.20223 0.2789 0.0
C1165 C 0.82894 0.22252 0.31251 0.0
C1166 C 0.78051 0.26349 0.23421 0.0
C1167 C 0.78871 0.22258 0.27707 0.0
H1168 H 0.71648 0.35689 0.22218 0.0
H1169 H 0.7491 0.31909 0.21172 0.0
H1170 H 0.72464 0.33338 0.20135 0.0
H1171 H 0.75836 0.35248 0.26573 0.0
H1172 H 0.84484 0.20249 0.31324 0.0
H1173 H 0.81038 0.23985 0.3091 0.0
H1174 H 0.80267 0.19416 0.26612 0.0
H1175 H 0.83614 0.23031 0.32554 0.0
Tb1176 Tb 0.02432 0.54403 0.48872 0.0
C1177 C 0.05597 0.50251 0.55863 0.0
N1178 N 0.04297 0.49613 0.54368 0.0
C1179 C 0.05599 0.47058 0.53678 0.0
C1180 C 0.06993 0.49349 0.56296 0.0
C1181 C 0.04251 0.48014 0.533 0.0
C1182 C 0.0699 0.4774 0.5517 0.0
C1183 C 0.06786 0.52496 0.58574 0.0
C1184 C 0.05499 0.51801 0.5697 0.0
C1185 C 0.08225 0.51649 0.58981 0.0
C1186 C 0.08327 0.50075 0.57844 0.0
Tb1187 Tb 0.02292 0.51376 0.53717 0.0
N1188 N 0.04088 0.52574 0.5652 0.0
C1189 C 0.06554 0.53986 0.59745 0.0
C1190 C 0.03765 0.53916 0.57755 0.0
C1191 C 0.05013 0.54673 0.59355 0.0
H1192 H 0.03177 0.47464 0.52155 0.0
H1193 H 0.04776 0.55773 0.60297 0.0
H1194 H 0.01435 0.58379 0.50187 0.0
H1195 H 0.99902 0.49467 0.42679 0.0
H1196 H 0.02541 0.54407 0.57537 0.0
H1197 H 0.07514 0.54568 0.60988 0.0
H1198 H 0.0204 0.5091 0.45472 0.0
H1199 H 0.05566 0.45799 0.52816 0.0
H1200 H 0.09241 0.52175 0.60194 0.0
H1201 H 0.09424 0.49415 0.58192 0.0
H1202 H 0.99098 0.60006 0.49241 0.0
H1203 H 0.08035 0.47 0.55456 0.0
H1204 H 0.9737 0.50837 0.41598 0.0
N1205 N 0.00422 0.56129 0.48046 0.0
C1206 C 0.99224 0.55458 0.46467 0.0
C1207 C 0.99104 0.58717 0.48459 0.0
C1208 C 0.97868 0.56356 0.45866 0.0
C1209 C 0.00414 0.57769 0.49009 0.0
C1210 C 0.97811 0.57997 0.46894 0.0
N1211 N 0.00666 0.53019 0.46108 0.0
C1212 C 0.00914 0.51501 0.45082 0.0
C1213 C 0.98114 0.53088 0.43835 0.0
C1214 C 0.99352 0.53853 0.45459 0.0
C1215 C 0.98297 0.51472 0.4285 0.0
C1216 C 0.99718 0.5069 0.43462 0.0
H1217 H 0.96793 0.58731 0.46477 0.0
H1218 H 0.95556 0.56252 0.43788 0.0
H1219 H 0.95765 0.53384 0.42014 0.0
O1220 O 0.04555 0.54542 0.47234 0.0
O1221 O 0.99662 0.5296 0.4898 0.0
O1222 O 0.01232 0.52369 0.51359 0.0
O1223 O 0.03804 0.56965 0.48345 0.0
O1224 O 0.032 0.51699 0.48658 0.0
O1225 O 0.01918 0.49834 0.5085 0.0
O1226 O 1.00125 0.51312 0.55265 0.0
O1227 O 0.04974 0.52231 0.52905 0.0
O1228 O 0.04128 0.54489 0.51533 0.0
O1229 O 0.00589 0.48843 0.53895 0.0
O1230 O 0.01926 0.54209 0.54251 0.0
O1231 O 0.02132 0.55889 0.51629 0.0
C1232 C 0.99637 0.52167 0.50457 0.0
C1233 C 0.04797 0.56952 0.45369 0.0
C1234 C 0.05279 0.56451 0.42093 0.0
C1235 C 0.05473 0.5832 0.41995 0.0
C1236 C 0.05 0.58809 0.45251 0.0
C1237 C 0.05292 0.5948 0.43556 0.0
C1238 C 0.04825 0.55775 0.43758 0.0
C1239 C 0.02725 0.50106 0.49316 0.0
C1240 C 0.04755 0.5628 0.47205 0.0
C1241 C 0.96617 0.5559 0.44261 0.0
C1242 C 0.96738 0.53957 0.43251 0.0
C1243 C 0.05322 0.53522 0.51845 0.0
C1244 C 0.99345 0.48743 0.56776 0.0
C1245 C 0.98001 0.48808 0.59678 0.0
C1246 C 0.98698 0.4732 0.60133 0.0
C1247 C 1.00059 0.47268 0.57249 0.0
C1248 C 0.98312 0.49497 0.57993 0.0
C1249 C 0.99726 0.46557 0.58922 0.0
C1250 C 0.01884 0.55692 0.53415 0.0
C1251 C 0.99657 0.49554 0.55047 0.0
H1252 H 0.05853 0.58909 0.40754 0.0
H1253 H 0.04978 0.59746 0.4648 0.0
H1254 H 0.05471 0.60917 0.43478 0.0
H1255 H 0.04599 0.54334 0.43836 0.0
H1256 H 0.98481 0.46776 0.61441 0.0
H1257 H 0.00874 0.4667 0.56338 0.0
H1258 H 0.97754 0.50635 0.57634 0.0
H1259 H 1.0028 0.45424 0.59289 0.0
Tb1260 Tb 0.80414 0.76639 0.27449 0.0
C1261 C 0.73623 0.78633 0.22758 0.0
N1262 N 0.74749 0.79529 0.24316 0.0
C1263 C 0.74813 0.82358 0.23106 0.0
C1264 C 0.73058 0.7957 0.21301 0.0
C1265 C 0.75301 0.81375 0.24535 0.0
C1266 C 0.73697 0.81451 0.21476 0.0
C1267 C 0.71739 0.75807 0.21113 0.0
C1268 C 0.72992 0.76771 0.22651 0.0
C1269 C 0.71182 0.76732 0.1965 0.0
C1270 C 0.7185 0.78606 0.19738 0.0
Tb1271 Tb 0.75408 0.77746 0.2653 0.0
N1272 N 0.73616 0.75904 0.24056 0.0
C1273 C 0.7109 0.7394 0.21092 0.0
C1274 C 0.72932 0.74103 0.24082 0.0
C1275 C 0.71679 0.73088 0.22591 0.0
H1276 H 0.76066 0.82107 0.25829 0.0
H1277 H 0.7115 0.71655 0.22611 0.0
H1278 H 0.79682 0.72303 0.28245 0.0
H1279 H 0.83978 0.82886 0.31712 0.0
H1280 H 0.73305 0.73453 0.25271 0.0
H1281 H 0.70121 0.7315 0.19939 0.0
H1282 H 0.82255 0.81012 0.28837 0.0
H1283 H 0.7527 0.83818 0.23279 0.0
H1284 H 0.70233 0.76012 0.18448 0.0
H1285 H 0.71402 0.79303 0.18603 0.0
H1286 H 0.80315 0.70646 0.30901 0.0
H1287 H 0.73301 0.8222 0.20383 0.0
H1288 H 0.8476 0.8144 0.34511 0.0
N1289 N 0.80909 0.74905 0.29764 0.0
C1290 C 0.81888 0.75839 0.31391 0.0
C1291 C 0.80752 0.72107 0.31061 0.0
C1292 C 0.82317 0.74937 0.3293 0.0
C1293 C 0.80367 0.73058 0.29567 0.0
C1294 C 0.81726 0.7305 0.32752 0.0
N1295 N 0.81944 0.78549 0.30028 0.0
C1296 C 0.82527 0.80373 0.30062 0.0
C1297 C 0.83447 0.78729 0.33186 0.0
C1298 C 0.82442 0.77716 0.3152 0.0
C1299 C 0.83982 0.80612 0.33258 0.0
C1300 C 0.83533 0.81435 0.31684 0.0
H1301 H 0.82027 0.72307 0.33904 0.0
H1302 H 0.83662 0.75273 0.35791 0.0
H1303 H 0.84655 0.78588 0.36013 0.0
O1304 O 0.82697 0.77737 0.26145 0.0
O1305 O 0.78972 0.77278 0.29857 0.0
O1306 O 0.77226 0.79259 0.28973 0.0
O1307 O 0.82448 0.75188 0.27213 0.0
O1308 O 0.80101 0.78964 0.2598 0.0
O1309 O 0.77742 0.80068 0.2708 0.0
O1310 O 0.73414 0.76673 0.28205 0.0
O1311 O 0.76543 0.76835 0.23994 0.0
O1312 O 0.78847 0.75334 0.24769 0.0
O1313 O 0.73295 0.79065 0.26914 0.0
O1314 O 0.75839 0.75396 0.27896 0.0
O1315 O 0.78136 0.74302 0.26661 0.0
C1316 C 0.78092 0.78551 0.3027 0.0
C1317 C 0.84061 0.75544 0.24609 0.0
C1318 C 0.86478 0.75455 0.22632 0.0
C1319 C 0.85424 0.73829 0.21624 0.0
C1320 C 0.83041 0.73917 0.23568 0.0
C1321 C 0.83714 0.73078 0.22079 0.0
C1322 C 0.85781 0.76324 0.24119 0.0
C1323 C 0.79271 0.80285 0.26334 0.0
C1324 C 0.83402 0.76335 0.26293 0.0
C1325 C 0.83318 0.75943 0.34594 0.0
C1326 C 0.83883 0.77832 0.3472 0.0
C1327 C 0.77744 0.75895 0.23544 0.0
C1328 C 0.71838 0.7874 0.29634 0.0
C1329 C 0.69439 0.78695 0.31656 0.0
C1330 C 0.70376 0.80408 0.32569 0.0
C1331 C 0.72741 0.80453 0.30575 0.0
C1332 C 0.70173 0.77865 0.30174 0.0
C1333 C 0.7201 0.81279 0.32028 0.0
C1334 C 0.76577 0.74056 0.27339 0.0
C1335 C 0.72529 0.7794 0.27981 0.0
H1336 H 0.85927 0.73142 0.20475 0.0
H1337 H 0.81723 0.73286 0.23914 0.0
H1338 H 0.82915 0.71827 0.21287 0.0
H1339 H 0.86593 0.77565 0.24924 0.0
H1340 H 0.69825 0.81084 0.33689 0.0
H1341 H 0.73993 0.81171 0.30157 0.0
H1342 H 0.69446 0.76556 0.29438 0.0
H1343 H 0.72705 0.8261 0.32728 0.0
Tb1344 Tb 0.76068 0.27345 0.79862 0.0
C1345 C 0.80311 0.24414 0.72855 0.0
N1346 N 0.8083 0.25617 0.74451 0.0
C1347 C 0.83523 0.24491 0.75074 0.0
C1348 C 0.81346 0.23156 0.72345 0.0
C1349 C 0.82453 0.25715 0.75517 0.0
C1350 C 0.82957 0.23192 0.73494 0.0
C1351 C 0.78149 0.23238 0.7005 0.0
C1352 C 0.78746 0.24463 0.71711 0.0
C1353 C 0.79158 0.21962 0.69553 0.0
C1354 C 0.80755 0.21923 0.70697 0.0
Tb1355 Tb 0.78968 0.27563 0.75002 0.0
N1356 N 0.77781 0.25688 0.72263 0.0
C1357 C 0.76555 0.23331 0.68941 0.0
C1358 C 0.76263 0.25829 0.71147 0.0
C1359 C 0.75616 0.24642 0.69486 0.0
H1360 H 0.82975 0.2677 0.76673 0.0
H1361 H 0.74399 0.24747 0.68622 0.0
H1362 H 0.71964 0.27991 0.78823 0.0
H1363 H 0.81539 0.30658 0.85414 0.0
H1364 H 0.75547 0.26858 0.71515 0.0
H1365 H 0.76048 0.22412 0.67654 0.0
H1366 H 0.79968 0.28266 0.82918 0.0
H1367 H 0.84799 0.24571 0.75937 0.0
H1368 H 0.7872 0.21005 0.68284 0.0
H1369 H 0.81529 0.20942 0.70288 0.0
H1370 H 0.70189 0.30192 0.79809 0.0
H1371 H 0.83795 0.22252 0.7315 0.0
H1372 H 0.80072 0.33112 0.86469 0.0
N1373 N 0.74304 0.29257 0.80762 0.0
C1374 C 0.7505 0.30597 0.82188 0.0
C1375 C 0.71559 0.30329 0.80485 0.0
C1376 C 0.74094 0.31894 0.82795 0.0
C1377 C 0.72573 0.29087 0.79922 0.0
C1378 C 0.72327 0.31747 0.8192 0.0
N1379 N 0.77653 0.29391 0.82375 0.0
C1380 C 0.79317 0.29346 0.8327 0.0
C1381 C 0.77632 0.32061 0.84491 0.0
C1382 C 0.76792 0.30677 0.83015 0.0
C1383 C 0.79376 0.32072 0.85332 0.0
C1384 C 0.80211 0.30695 0.84734 0.0
H1385 H 0.71544 0.32713 0.82346 0.0
H1386 H 0.74225 0.34306 0.84726 0.0
H1387 H 0.77328 0.34454 0.86215 0.0
O1388 O 0.76025 0.25541 0.81838 0.0
O1389 O 0.76733 0.30023 0.7901 0.0
O1390 O 0.7899 0.29222 0.77656 0.0
O1391 O 0.73591 0.25504 0.79994 0.0
O1392 O 0.78709 0.26464 0.80081 0.0
O1393 O 0.80522 0.27723 0.77862 0.0
O1394 O 0.78909 0.29655 0.73329 0.0
O1395 O 0.77351 0.24817 0.74939 0.0
O1396 O 0.77008 0.2625 0.77497 0.0
O1397 O 0.81424 0.28958 0.74278 0.0
O1398 O 0.76206 0.28183 0.74739 0.0
O1399 O 0.74388 0.27113 0.77074 0.0
C1400 C 0.77987 0.30388 0.77924 0.0
C1401 C 0.73295 0.24678 0.83076 0.0
C1402 C 0.73224 0.23706 0.86192 0.0
C1403 C 0.71411 0.23868 0.86125 0.0
C1404 C 0.71487 0.24827 0.83022 0.0
C1405 C 0.7056 0.24444 0.84556 0.0
C1406 C 0.74158 0.24169 0.8468 0.0
C1407 C 0.80291 0.26896 0.79398 0.0
C1408 C 0.74288 0.24879 0.81444 0.0
C1409 C 0.74932 0.3329 0.84245 0.0
C1410 C 0.767 0.33375 0.8509 0.0
C1411 C 0.76595 0.24723 0.76434 0.0
C1412 C 0.81114 0.29881 0.71276 0.0
C1413 C 0.80996 0.31202 0.6837 0.0
C1414 C 0.81973 0.29998 0.67609 0.0
C1415 C 0.82067 0.28655 0.70506 0.0
C1416 C 0.80591 0.31148 0.70206 0.0
C1417 C 0.82501 0.28724 0.68678 0.0
C1418 C 0.74625 0.27751 0.7543 0.0
C1419 C 0.80629 0.29881 0.73181 0.0
H1420 H 0.70633 0.23499 0.87252 0.0
H1421 H 0.70785 0.2521 0.81793 0.0
H1422 H 0.6916 0.24546 0.84508 0.0
H1423 H 0.75566 0.24091 0.84728 0.0
H1424 H 0.82289 0.30019 0.66182 0.0
H1425 H 0.82478 0.2765 0.71309 0.0
H1426 H 0.79857 0.32095 0.70803 0.0
H1427 H 0.83236 0.27782 0.68085 0.0
Tb1428 Tb 0.76408 0.74415 0.75073 0.0
C1429 C 0.82661 0.80419 0.79534 0.0
N1430 N 0.81053 0.79508 0.79979 0.0
C1431 C 0.8252 0.79275 0.83038 0.0
C1432 C 0.84274 0.8074 0.80804 0.0
C1433 C 0.80954 0.79019 0.81744 0.0
C1434 C 0.84192 0.80117 0.82557 0.0
C1435 C 0.84279 0.82194 0.77379 0.0
C1436 C 0.82668 0.8115 0.77853 0.0
C1437 C 0.859 0.82459 0.78608 0.0
C1438 C 0.85897 0.81736 0.80318 0.0
Tb1439 Tb 0.78584 0.79303 0.77777 0.0
N1440 N 0.81074 0.80877 0.76704 0.0
C1441 C 0.84202 0.82972 0.75704 0.0
C1442 C 0.80971 0.81713 0.75124 0.0
C1443 C 0.82535 0.82743 0.7458 0.0
H1444 H 0.79666 0.78513 0.82205 0.0
H1445 H 0.82452 0.83378 0.73308 0.0
H1446 H 0.74666 0.75495 0.71067 0.0
H1447 H 0.73375 0.70429 0.80217 0.0
H1448 H 0.79682 0.81602 0.74293 0.0
H1449 H 0.8541 0.83784 0.75289 0.0
H1450 H 0.75896 0.72007 0.78744 0.0
H1451 H 0.82427 0.78868 0.84425 0.0
H1452 H 0.87154 0.83254 0.78268 0.0
H1453 H 0.87148 0.81992 0.81275 0.0
H1454 H 0.71646 0.75058 0.6925 0.0
H1455 H 0.85398 0.80345 0.83577 0.0
H1456 H 0.70218 0.70098 0.78743 0.0
N1457 N 0.73671 0.74293 0.73394 0.0
C1458 C 0.72211 0.7332 0.74055 0.0
C1459 C 0.71781 0.74592 0.70615 0.0
C1460 C 0.70458 0.73016 0.73051 0.0
C1461 C 0.73492 0.74869 0.71667 0.0
C1462 C 0.70254 0.73677 0.71318 0.0
N1463 N 0.74217 0.72871 0.76625 0.0
C1464 C 0.74541 0.72027 0.78168 0.0
C1465 C 0.71 0.71612 0.76469 0.0
C1466 C 0.72488 0.7262 0.7574 0.0
C1467 C 0.71325 0.70871 0.78132 0.0
C1468 C 0.73104 0.71065 0.78975 0.0
H1469 H 0.68931 0.73455 0.70494 0.0
H1470 H 0.67615 0.71788 0.73038 0.0
H1471 H 0.68086 0.70575 0.76038 0.0
O1472 O 0.75909 0.71595 0.74433 0.0
O1473 O 0.74635 0.76334 0.75683 0.0
O1474 O 0.75951 0.77938 0.78521 0.0
O1475 O 0.76893 0.73334 0.72421 0.0
O1476 O 0.77978 0.74452 0.77833 0.0
O1477 O 0.77655 0.77121 0.79428 0.0
O1478 O 0.77356 0.8148 0.77313 0.0
O1479 O 0.80294 0.78068 0.75965 0.0
O1480 O 0.79386 0.7498 0.75966 0.0
O1481 O 0.79013 0.81439 0.79975 0.0
O1482 O 0.77062 0.79116 0.74975 0.0
O1483 O 0.77507 0.76499 0.73392 0.0
C1484 C 0.74493 0.77193 0.77322 0.0
C1485 C 0.77598 0.70464 0.7223 0.0
C1486 C 0.79434 0.68324 0.72995 0.0
C1487 C 0.79474 0.67857 0.71063 0.0
C1488 C 0.77653 0.69988 0.70312 0.0
C1489 C 0.78601 0.68699 0.69734 0.0
C1490 C 0.7852 0.69657 0.73569 0.0
C1491 C 0.77988 0.75499 0.79408 0.0
C1492 C 0.76438 0.71675 0.72785 0.0
C1493 C 0.68974 0.72035 0.73788 0.0
C1494 C 0.69243 0.71344 0.75497 0.0
C1495 C 0.80633 0.76435 0.75781 0.0
C1496 C 0.77711 0.84044 0.79739 0.0
C1497 C 0.76172 0.86489 0.79392 0.0
C1498 C 0.77027 0.87344 0.8118 0.0
C1499 C 0.78564 0.84909 0.81521 0.0
C1500 C 0.76516 0.84835 0.78684 0.0
C1501 C 0.78218 0.86553 0.82237 0.0
C1502 C 0.77236 0.78145 0.73418 0.0
C1503 C 0.78021 0.82294 0.78998 0.0
H1504 H 0.80134 0.66804 0.70576 0.0
H1505 H 0.76931 0.70588 0.6926 0.0
H1506 H 0.7862 0.68318 0.6825 0.0
H1507 H 0.78491 0.70035 0.75053 0.0
H1508 H 0.76806 0.88641 0.81743 0.0
H1509 H 0.79493 0.84315 0.82363 0.0
H1510 H 0.75839 0.8416 0.77317 0.0
H1511 H 0.78881 0.87221 0.83608 0.0
Tb1512 Tb 0.55678 0.53396 0.53259 0.0
C1513 C 0.49655 0.4718 0.48963 0.0
N1514 N 0.50462 0.48815 0.48489 0.0
C1515 C 0.50579 0.47405 0.45382 0.0
C1516 C 0.49329 0.45584 0.4768 0.0
C1517 C 0.50842 0.48954 0.46691 0.0
C1518 C 0.49841 0.45709 0.45886 0.0
C1519 C 0.48097 0.45482 0.5121 0.0
C1520 C 0.4904 0.47123 0.50699 0.0
C1521 C 0.47827 0.43879 0.49964 0.0
C1522 C 0.48442 0.4393 0.48203 0.0
Tb1523 Tb 0.50706 0.51242 0.50735 0.0
N1524 N 0.49326 0.48698 0.5187 0.0
C1525 C 0.47414 0.45512 0.52937 0.0
C1526 C 0.48577 0.48755 0.53507 0.0
C1527 C 0.47637 0.47161 0.54081 0.0
H1528 H 0.51284 0.50256 0.46223 0.0
H1529 H 0.47075 0.47206 0.55395 0.0
H1530 H 0.54855 0.54981 0.57457 0.0
H1531 H 0.59312 0.56674 0.48017 0.0
H1532 H 0.48709 0.50031 0.54371 0.0
H1533 H 0.46677 0.4428 0.53379 0.0
H1534 H 0.57861 0.54071 0.49473 0.0
H1535 H 0.50904 0.47525 0.4397 0.0
H1536 H 0.47111 0.42601 0.50331 0.0
H1537 H 0.48185 0.42689 0.47237 0.0
H1538 H 0.55355 0.57938 0.59387 0.0
H1539 H 0.49608 0.44515 0.44857 0.0
H1540 H 0.59708 0.59783 0.49633 0.0
N1541 N 0.55952 0.5607 0.55116 0.0
C1542 C 0.56883 0.57565 0.54477 0.0
C1543 C 0.55766 0.57857 0.57996 0.0
C1544 C 0.57219 0.59286 0.55545 0.0
C1545 C 0.55451 0.56182 0.56879 0.0
C1546 C 0.56639 0.5942 0.5732 0.0
N1547 N 0.57164 0.55667 0.51762 0.0
C1548 C 0.57889 0.55409 0.50132 0.0
C1549 C 0.58386 0.58894 0.51992 0.0
C1550 C 0.57467 0.57363 0.52725 0.0
C1551 C 0.59002 0.58641 0.50249 0.0
C1552 C 0.58772 0.56889 0.49327 0.0
H1553 H 0.5688 0.60717 0.58189 0.0
H1554 H 0.5838 0.6215 0.55604 0.0
H1555 H 0.59391 0.61809 0.52488 0.0
O1556 O 0.58504 0.53699 0.53706 0.0
O1557 O 0.53831 0.55264 0.52678 0.0
O1558 O 0.51971 0.53908 0.49966 0.0
O1559 O 0.56857 0.52872 0.55844 0.0
O1560 O 0.55497 0.51888 0.50445 0.0
O1561 O 0.52766 0.5222 0.48963 0.0
O1562 O 0.48432 0.52099 0.51496 0.0
O1563 O 0.52038 0.4958 0.52535 0.0
O1564 O 0.55067 0.50439 0.5229 0.0
O1565 O 0.48471 0.5095 0.48648 0.0
O1566 O 0.5106 0.52913 0.53453 0.0
O1567 O 0.5363 0.52344 0.55003 0.0
C1568 C 0.52818 0.55381 0.51106 0.0
C1569 C 0.59508 0.5176 0.55757 0.0
C1570 C 0.61904 0.50216 0.55132 0.0
C1571 C 0.61661 0.49351 0.56742 0.0
C1572 C 0.59279 0.50883 0.57366 0.0
C1573 C 0.60343 0.49676 0.57845 0.0
C1574 C 0.60818 0.51406 0.54633 0.0
C1575 C 0.54399 0.51928 0.48916 0.0
C1576 C 0.58474 0.53133 0.55347 0.0
C1577 C 0.58118 0.60813 0.54809 0.0
C1578 C 0.58691 0.60619 0.53033 0.0
C1579 C 0.53655 0.49214 0.52598 0.0
C1580 C 0.46873 0.53262 0.49153 0.0
C1581 C 0.44916 0.55324 0.49744 0.0
C1582 C 0.45416 0.56166 0.48174 0.0
C1583 C 0.4737 0.54098 0.47582 0.0
C1584 C 0.45676 0.53895 0.50231 0.0
C1585 C 0.46646 0.55556 0.47104 0.0
C1586 C 0.5202 0.52702 0.55001 0.0
C1587 C 0.47606 0.51772 0.49783 0.0
H1588 H 0.6249 0.48422 0.5714 0.0
H1589 H 0.58293 0.51148 0.5827 0.0
H1590 H 0.60162 0.49008 0.59088 0.0
H1591 H 0.61037 0.52093 0.53405 0.0
H1592 H 0.44832 0.57264 0.4775 0.0
H1593 H 0.48318 0.53638 0.4674 0.0
H1594 H 0.45341 0.53267 0.51471 0.0
H1595 H 0.47025 0.56204 0.45894 0.0
Tb1596 Tb 1.00024 0.51817 0.0295 0.0
C1597 C 0.06909 0.55443 0.99155 0.0
N1598 N 0.05571 0.5394 0.98549 0.0
C1599 C 0.05462 0.54695 0.95401 0.0
C1600 C 0.07568 0.56649 0.97903 0.0
C1601 C 0.04861 0.53533 0.96697 0.0
C1602 C 0.06817 0.56264 0.96007 0.0
C1603 C 0.09016 0.57306 0.01732 0.0
C1604 C 0.07622 0.55768 0.01042 0.0
C1605 C 0.09677 0.58518 0.00491 0.0
C1606 C 0.08954 0.58191 0.98583 0.0
Tb1607 Tb 0.04746 0.52144 0.00784 0.0
N1608 N 0.06909 0.54595 0.0221 0.0
C1609 C 0.09695 0.57581 0.03647 0.0
C1610 C 0.07616 0.54814 0.04059 0.0
C1611 C 0.09001 0.5632 0.04812 0.0
H1612 H 0.03867 0.5229 0.96208 0.0
H1613 H 0.09546 0.56497 0.06286 0.0
H1614 H 0.01004 0.51281 0.07444 0.0
H1615 H 0.95649 0.47499 0.97088 0.0
H1616 H 0.0715 0.53816 0.04948 0.0
H1617 H 0.10767 0.58747 0.04234 0.0
H1618 H 0.97832 0.50255 0.98632 0.0
H1619 H 0.04894 0.54371 0.93933 0.0
H1620 H 0.10746 0.59711 0.00994 0.0
H1621 H 0.09479 0.59136 0.97643 0.0
H1622 H 1.00045 0.48962 0.09501 0.0
H1623 H 0.07286 0.57158 0.94999 0.0
H1624 H 0.94513 0.45041 0.98944 0.0
N1625 N 0.99328 0.49771 0.04999 0.0
C1626 C 0.98045 0.48252 0.04274 0.0
C1627 C 0.99482 0.4874 0.08031 0.0
C1628 C 0.97449 0.46899 0.05404 0.0
C1629 C 1.00042 0.50041 0.06854 0.0
C1630 C 0.98182 0.47162 0.07304 0.0
N1631 N 0.98052 0.49327 0.01305 0.0
C1632 C 0.97409 0.49175 0.99444 0.0
C1633 C 0.96106 0.46435 0.01553 0.0
C1634 C 0.97383 0.48023 0.02369 0.0
C1635 C 0.95495 0.46241 0.99626 0.0
C1636 C 0.96142 0.47622 0.98571 0.0
H1637 H 0.97755 0.46156 0.0822 0.0
H1638 H 0.95682 0.4427 0.05445 0.0
H1639 H 0.94508 0.43863 0.02077 0.0
O1640 O 0.97708 0.52885 0.02191 0.0
O1641 O 0.01007 0.49267 0.02388 0.0
O1642 O 0.02528 0.49744 -0.00148 0.0
O1643 O 0.98665 0.52685 0.05104 0.0
O1644 O 1.0026 0.52972 0.0031 0.0
O1645 O 0.02199 0.51466 0.98977 0.0
O1646 O 0.06765 0.50806 0.01747 0.0
O1647 O 0.04041 0.54816 0.01549 0.0
O1648 O 0.01999 0.54429 0.03736 0.0
O1649 O 0.06043 0.50899 0.9879 0.0
O1650 O 0.04402 0.51126 0.03451 0.0
O1651 O 0.02517 0.52675 0.0488 0.0
C1652 C 0.01734 0.48637 0.00952 0.0
C1653 C 0.96 0.53914 0.04651 0.0
C1654 C 0.93421 0.55329 0.04193 0.0
C1655 C 0.93214 0.55283 0.06098 0.0
C1656 C 0.95764 0.53893 0.06557 0.0
C1657 C 0.94384 0.54576 0.07272 0.0
C1658 C 0.94826 0.54652 0.03466 0.0
C1659 C 0.01052 0.52513 0.98869 0.0
C1660 C 0.97471 0.53154 0.03952 0.0
C1661 C 0.9616 0.45324 0.04598 0.0
C1662 C 0.95492 0.45092 0.02679 0.0
C1663 C 0.03097 0.55472 0.02789 0.0
C1664 C 0.0903 0.50645 0.99749 0.0
C1665 C 0.1177 0.49466 -0.00146 0.0
C1666 C 0.12517 0.50792 0.98767 0.0
C1667 C 0.09812 0.51979 0.98687 0.0
C1668 C 0.1003 0.49408 0.00359 0.0
C1669 C 0.11548 0.52051 0.98205 0.0
C1670 C 0.03824 0.51805 0.04945 0.0
C1671 C 0.07116 0.50389 0.0005 0.0
H1672 H 0.92148 0.55808 0.06682 0.0
H1673 H 0.96644 0.5334 0.07503 0.0
H1674 H 0.94218 0.54553 0.08741 0.0
H1675 H 0.94989 0.54685 0.01996 0.0
H1676 H 0.13854 0.50854 0.98358 0.0
H1677 H 0.09066 0.52935 0.98185 0.0
H1678 H 0.09428 0.48358 0.01157 0.0
H1679 H 0.12133 0.53066 0.97365 0.0
H1680 H 0.02778 0.21306 0.95032 0.0
H1681 H 0.03413 0.18464 0.95969 0.0
H1682 H 0.98392 0.17391 0.98329 0.0
H1683 H 0.97775 0.20233 0.97443 0.0
H1684 H 0.01093 0.16661 0.00684 0.0
H1685 H 0.0122 0.13305 0.93527 0.0
H1686 H 0.02685 0.15524 0.94097 0.0
H1687 H 1.00271 0.15265 0.9394 0.0
C1688 C 0.01805 0.20464 0.95746 0.0
C1689 C 1.00223 0.21021 0.96157 0.0
C1690 C 0.02165 0.18823 0.96273 0.0
C1691 C 0.00941 0.17672 0.97204 0.0
C1692 C 0.99368 0.18234 0.97619 0.0
H1693 H 0.008 0.06185 0.98085 0.0
H1694 H 1.00284 0.09082 0.97252 0.0
C1695 C 0.99016 0.19874 0.97108 0.0
C1696 C 0.01296 0.15903 0.97776 0.0
H1697 H 0.02058 0.11798 0.96063 0.0
C1698 C 0.01306 0.156 0.9967 0.0
C1699 C 0.01538 0.14482 0.96464 0.0
C1700 C 0.01413 0.14643 0.9439 0.0
C1701 C 0.01561 0.13952 0.00286 0.0
C1702 C 0.01871 0.12548 0.98985 0.0
C1703 C 0.01843 0.12851 0.97084 0.0
C1704 C 0.02178 0.10749 0.99541 0.0
C1705 C 0.01425 0.13726 0.02323 0.0
C1706 C 0.03417 0.10659 0.01114 0.0
C1707 C 0.03665 0.08984 0.01634 0.0
C1708 C 0.02759 0.07329 0.00551 0.0
C1709 C 0.01545 0.07417 0.98957 0.0
C1710 C 0.01252 0.0909 0.9847 0.0
H1711 H 0.00592 0.14607 0.02943 0.0
H1712 H 0.00819 0.12303 0.02497 0.0
H1713 H 0.02802 0.14135 0.03138 0.0
H1714 H 0.04211 0.11889 0.01947 0.0
H1715 H 0.04579 0.08998 0.02886 0.0
H1716 H 0.09069 0.78935 0.16191 0.0
H1717 H 0.11619 0.78897 0.18591 0.0
H1718 H 0.15168 0.79035 0.1432 0.0
H1719 H 0.1267 0.79104 0.11948 0.0
H1720 H 0.13818 0.76356 0.18802 0.0
H1721 H 0.18088 0.83089 0.18252 0.0
H1722 H 0.15718 0.82427 0.17292 0.0
H1723 H 0.17395 0.81676 0.16036 0.0
C1724 C 0.10397 0.78979 0.15768 0.0
C1725 C 0.10653 0.79041 0.13867 0.0
C1726 C 0.11856 0.78952 0.17142 0.0
C1727 C 0.13607 0.78998 0.16652 0.0
C1728 C 0.13854 0.79049 0.14757 0.0
H1729 H 0.24478 0.79072 0.21946 0.0
H1730 H 0.21769 0.79253 0.1991 0.0
C1731 C 0.12409 0.7908 0.13392 0.0
C1732 C 0.15169 0.78921 0.18084 0.0
H1733 H 0.19521 0.81109 0.19882 0.0
C1734 C 0.15062 0.77402 0.19052 0.0
C1735 C 0.16805 0.80274 0.18406 0.0
C1736 C 0.17008 0.81967 0.17455 0.0
C1737 C 0.16557 0.77154 0.20258 0.0
C1738 C 0.18208 0.78508 0.20583 0.0
C1739 C 0.18286 0.80053 0.19645 0.0
C1740 C 0.19876 0.78348 0.21843 0.0
C1741 C 0.16357 0.7539 0.21082 0.0
C1742 C 0.19769 0.77783 0.23634 0.0
C1743 C 0.21316 0.77567 0.24756 0.0
C1744 C 0.23054 0.78031 0.24196 0.0
C1745 C 0.23175 0.78677 0.22439 0.0
C1746 C 0.21613 0.78803 0.21272 0.0
H1747 H 0.15304 0.74297 0.20205 0.0
H1748 H 0.17649 0.74934 0.21218 0.0
H1749 H 0.15915 0.75569 0.22492 0.0
H1750 H 0.18484 0.77498 0.24178 0.0
H1751 H 0.21132 0.77014 0.26057 0.0
H1752 H 0.53391 0.81724 0.47181 0.0
H1753 H 0.53787 0.84999 0.48158 0.0
H1754 H 0.48118 0.84553 0.46287 0.0
H1755 H 0.47705 0.81294 0.45463 0.0
H1756 H 0.53571 0.87816 0.46619 0.0
H1757 H 0.48146 0.87239 0.51157 0.0
H1758 H 0.48859 0.85277 0.50178 0.0
H1759 H 0.47238 0.86215 0.48811 0.0
C1760 C 0.5223 0.82328 0.47 0.0
C1761 C 0.50508 0.81234 0.46277 0.0
C1762 C 0.52453 0.84208 0.47557 0.0
C1763 C 0.50971 0.85053 0.47372 0.0
C1764 C 0.49276 0.83959 0.46553 0.0
H1765 H 0.49419 0.96201 0.48917 0.0
H1766 H 0.49125 0.9294 0.48119 0.0
C1767 C 0.49042 0.82083 0.46056 0.0
C1768 C 0.51191 0.87066 0.47982 0.0
H1769 H 0.4925 0.90179 0.50302 0.0
C1770 C 0.52632 0.8832 0.47442 0.0
C1771 C 0.4998 0.8777 0.49066 0.0
C1772 C 0.48483 0.86552 0.49852 0.0
C1773 C 0.52862 0.90217 0.47899 0.0
C1774 C 0.51626 0.90912 0.48942 0.0
C1775 C 0.50194 0.89666 0.49492 0.0
C1776 C 0.51795 0.92918 0.49479 0.0
C1777 C 0.54407 0.91463 0.47213 0.0
C1778 C 0.53373 0.94022 0.50549 0.0
C1779 C 0.5353 0.95894 0.51032 0.0
C1780 C 0.52106 0.96726 0.50477 0.0
C1781 C 0.50522 0.95617 0.49419 0.0
C1782 C 0.50362 0.93742 0.48942 0.0
H1783 H 0.54915 0.9077 0.46021 0.0
H1784 H 0.53992 0.92681 0.46759 0.0
H1785 H 0.55548 0.91919 0.48375 0.0
H1786 H 0.54489 0.93435 0.51029 0.0
H1787 H 0.54771 0.96688 0.51855 0.0
H1788 H 0.50223 0.26094 0.63574 0.0
H1789 H 0.47566 0.25514 0.65251 0.0
H1790 H 0.48348 0.31244 0.66972 0.0
H1791 H 0.50987 0.31838 0.65286 0.0
H1792 H 0.47314 0.26333 0.69047 0.0
H1793 H 0.43006 0.29845 0.64742 0.0
H1794 H 0.45016 0.29259 0.63989 0.0
H1795 H 0.45209 0.31212 0.65686 0.0
C1796 C 0.49829 0.27233 0.64304 0.0
C1797 C 0.50822 0.29015 0.64284 0.0
C1798 C 0.48307 0.26899 0.65264 0.0
C1799 C 0.47732 0.28336 0.66216 0.0
C1800 C 0.48733 0.30113 0.66216 0.0
H1801 H 0.39796 0.28276 0.74194 0.0
H1802 H 0.42315 0.29171 0.72356 0.0
C1803 C 0.50254 0.30449 0.65258 0.0
C1804 C 0.46118 0.27972 0.67248 0.0
H1805 H 0.4191 0.2884 0.67504 0.0
C1806 C 0.46134 0.26879 0.68704 0.0
C1807 C 0.44569 0.28682 0.66806 0.0
C1808 C 0.44433 0.29802 0.6521 0.0
C1809 C 0.44659 0.26495 0.69733 0.0
C1810 C 0.43121 0.27211 0.69296 0.0
C1811 C 0.43097 0.28303 0.67845 0.0
C1812 C 0.41507 0.26773 0.70303 0.0
C1813 C 0.44746 0.25327 0.71291 0.0
C1814 C 0.40207 0.25144 0.69744 0.0
C1815 C 0.38783 0.24629 0.70796 0.0
C1816 C 0.3862 0.25742 0.72416 0.0
C1817 C 0.39882 0.27406 0.72938 0.0
C1818 C 0.4132 0.27914 0.71893 0.0
H1819 H 0.46063 0.24922 0.71506 0.0
H1820 H 0.44534 0.26069 0.72625 0.0
H1821 H 0.43639 0.24085 0.70959 0.0
H1822 H 0.40325 0.24245 0.68523 0.0
H1823 H 0.37828 0.23339 0.70369 0.0
H1824 H 0.99728 0.77753 0.61308 0.0
H1825 H 1.00038 0.80519 0.59806 0.0
H1826 H 0.03037 0.83628 0.64935 0.0
H1827 H 0.02773 0.80861 0.66434 0.0
H1828 H 0.98891 0.83601 0.60593 0.0
H1829 H 0.06394 0.85262 0.61204 0.0
H1830 H 0.0512 0.83104 0.6166 0.0
H1831 H 0.05574 0.8505 0.63427 0.0
C1832 C 0.00464 0.79022 0.62117 0.0
C1833 C 0.01237 0.79076 0.63993 0.0
C1834 C 0.00635 0.80607 0.61255 0.0
C1835 C 0.01586 0.82286 0.62242 0.0
C1836 C 0.02335 0.82348 0.64124 0.0
H1837 H 0.04561 0.93221 0.59353 0.0
H1838 H 0.03609 0.9061 0.61027 0.0
C1839 C 0.02174 0.80762 0.64985 0.0
C1840 C 0.01779 0.83967 0.61304 0.0
H1841 H 0.04911 0.87503 0.60201 0.0
C1842 C 1.00209 0.84451 0.60503 0.0
C1843 C 0.03496 0.85079 0.61174 0.0
C1844 C 0.05242 0.84591 0.61894 0.0
C1845 C 1.0031 0.86025 0.5961 0.0
C1846 C 0.02027 0.87143 0.59501 0.0
C1847 C 0.03593 0.86658 0.60299 0.0
C1848 C 0.02255 0.88802 0.58535 0.0
C1849 C 0.98581 0.86498 0.58817 0.0
C1850 C 0.01752 0.88681 0.56582 0.0
C1851 C 0.02282 0.90183 0.55627 0.0
C1852 C 0.03322 0.91829 0.56608 0.0
C1853 C 0.03724 0.9198 0.58572 0.0
C1854 C 0.03196 0.90483 0.59526 0.0
H1855 H 0.97387 0.85763 0.59405 0.0
H1856 H 0.98674 0.87977 0.59108 0.0
H1857 H 0.98351 0.86115 0.5727 0.0
H1858 H 0.01059 0.87394 0.55778 0.0
H1859 H 0.02001 0.90018 0.54106 0.0
H1860 H 0.48959 0.78659 0.80702 0.0
H1861 H 0.45867 0.78383 0.79034 0.0
H1862 H 0.44144 0.80268 0.84219 0.0
H1863 H 0.47144 0.80576 0.85849 0.0
H1864 H 0.42344 0.76274 0.79862 0.0
H1865 H 0.42522 0.8361 0.80625 0.0
H1866 H 0.44558 0.82749 0.80854 0.0
H1867 H 0.43268 0.82865 0.82792 0.0
C1868 C 0.47926 0.79035 0.81475 0.0
C1869 C 0.48332 0.79647 0.83419 0.0
C1870 C 0.46152 0.78867 0.80524 0.0
C1871 C 0.44763 0.79328 0.81494 0.0
C1872 C 0.45181 0.79935 0.8342 0.0
H1873 H 0.3316 0.76921 0.80946 0.0
H1874 H 0.36432 0.77142 0.81495 0.0
C1875 C 0.4692 0.801 0.84357 0.0
C1876 C 0.42855 0.79167 0.8057 0.0
H1877 H 0.39562 0.81606 0.8014 0.0
C1878 C 0.41747 0.77446 0.79889 0.0
C1879 C 0.42053 0.80689 0.80596 0.0
C1880 C 0.43165 0.82585 0.8124 0.0
C1881 C 0.3986 0.77201 0.79335 0.0
C1882 C 0.39047 0.78712 0.79471 0.0
C1883 C 0.4017 0.80441 0.80054 0.0
C1884 C 0.37031 0.78517 0.79083 0.0
C1885 C 0.38736 0.75324 0.78627 0.0
C1886 C 0.36256 0.79228 0.77553 0.0
C1887 C 0.34367 0.79053 0.77204 0.0
C1888 C 0.33199 0.78204 0.78402 0.0
C1889 C 0.33991 0.77536 0.79959 0.0
C1890 C 0.35874 0.77674 0.80284 0.0
H1891 H 0.39592 0.74368 0.7824 0.0
H1892 H 0.37951 0.74802 0.79743 0.0
H1893 H 0.37753 0.75354 0.77382 0.0
H1894 H 0.37111 0.79896 0.76608 0.0
H1895 H 0.33825 0.79562 0.75975 0.0
H1896 H 0.50257 0.20918 0.12224 0.0
H1897 H 0.50322 0.18379 0.09832 0.0
H1898 H 0.5232 0.15552 0.14187 0.0
H1899 H 0.52184 0.18009 0.16553 0.0
H1900 H 0.52928 0.16759 0.08686 0.0
H1901 H 0.48137 0.1167 0.11707 0.0
H1902 H 0.48502 0.14064 0.12468 0.0
H1903 H 0.5004 0.12777 0.13413 0.0
C1904 C 0.50696 0.19747 0.12667 0.0
C1905 C 0.51175 0.19659 0.14592 0.0
C1906 C 0.50737 0.18294 0.11298 0.0
C1907 C 0.51273 0.16731 0.11822 0.0
C1908 C 0.51829 0.16693 0.13735 0.0
H1909 H 0.54966 0.08118 0.05553 0.0
H1910 H 0.54666 0.10861 0.075 0.0
C1911 C 0.51758 0.18115 0.15095 0.0
C1912 C 0.51271 0.15136 0.10401 0.0
H1913 H 0.49899 0.10504 0.09531 0.0
C1914 C 0.52252 0.15396 0.08866 0.0
C1915 C 0.5037 0.13342 0.106 0.0
C1916 C 0.49188 0.12948 0.12125 0.0
C1917 C 0.52413 0.13918 0.07588 0.0
C1918 C 0.51589 0.12126 0.07851 0.0
C1919 C 0.50555 0.11871 0.09339 0.0
C1920 C 0.5179 0.10494 0.06611 0.0
C1921 C 0.53451 0.14281 0.05951 0.0
C1922 C 0.50272 0.09345 0.05484 0.0
C1923 C 0.50443 0.07771 0.04385 0.0
C1924 C 0.52132 0.07308 0.04392 0.0
C1925 C 0.53651 0.08453 0.05513 0.0
C1926 C 0.53481 0.10024 0.06618 0.0
H1927 H 0.53743 0.15737 0.05754 0.0
H1928 H 0.54759 0.13866 0.06197 0.0
H1929 H 0.52677 0.1347 0.04635 0.0
H1930 H 0.48953 0.09669 0.05454 0.0
H1931 H 0.49255 0.06916 0.03522 0.0
H1932 H 0.11707 0.32286 0.35337 0.0
H1933 H 0.14269 0.31597 0.33892 0.0
H1934 H 0.10646 0.27307 0.30074 0.0
H1935 H 0.08045 0.28011 0.31516 0.0
H1936 H 0.15509 0.28514 0.33805 0.0
H1937 H 0.13814 0.29711 0.26433 0.0
H1938 H 0.12679 0.305 0.28315 0.0
H1939 H 0.12094 0.28154 0.27334 0.0
C1940 C 0.11435 0.31204 0.34176 0.0
C1941 C 0.0964 0.30211 0.33557 0.0
C1942 C 0.12919 0.30807 0.33345 0.0
C1943 C 0.12685 0.29403 0.3185 0.0
C1944 C 0.1089 0.28422 0.31196 0.0
H1945 H 0.20974 0.25627 0.25634 0.0
H1946 H 0.18136 0.26064 0.26698 0.0
C1947 C 0.09391 0.28824 0.32031 0.0
C1948 C 0.14336 0.28931 0.31084 0.0
H1949 H 0.16453 0.2862 0.27125 0.0
C1950 C 0.15707 0.2854 0.32341 0.0
C1951 C 0.14618 0.2893 0.29168 0.0
C1952 C 0.13234 0.29359 0.27731 0.0
C1953 C 0.17317 0.28153 0.31757 0.0
C1954 C 0.17639 0.28222 0.29855 0.0
C1955 C 0.16248 0.28576 0.28585 0.0
C1956 C 0.19402 0.2795 0.29173 0.0
C1957 C 0.18628 0.27618 0.33197 0.0
C1958 C 0.21106 0.28879 0.30154 0.0
C1959 C 0.22739 0.28574 0.29577 0.0
C1960 C 0.22747 0.27368 0.27957 0.0
C1961 C 0.21048 0.26515 0.26915 0.0
C1962 C 0.19407 0.26786 0.2752 0.0
H1963 H 0.17922 0.26998 0.34322 0.0
H1964 H 0.19344 0.26638 0.32548 0.0
H1965 H 0.19645 0.28845 0.33879 0.0
H1966 H 0.21184 0.29854 0.31377 0.0
H1967 H 0.24004 0.29302 0.30404 0.0
H1968 H 0.92942 0.00688 0.1889 0.0
H1969 H 0.94149 0.01071 0.15906 0.0
H1970 H 0.99261 0.04139 0.18944 0.0
H1971 H 0.98092 0.03624 0.21926 0.0
H1972 H 0.95383 0.03581 0.14015 0.0
H1973 H 0.01075 0.00417 0.16043 0.0
H1974 H 0.99294 0.00494 0.17476 0.0
H1975 H 0.01174 0.0242 0.17618 0.0
C1976 C 0.94315 0.01464 0.18911 0.0
C1977 C 0.95432 0.02125 0.20624 0.0
C1978 C 0.95007 0.0168 0.17208 0.0
C1979 C 0.96819 0.02587 0.17192 0.0
C1980 C 0.97886 0.0337 0.18913 0.0
H1981 H 0.00735 0.05396 0.06615 0.0
H1982 H 0.99502 0.05452 0.09617 0.0
C1983 C 0.97212 0.03102 0.20615 0.0
C1984 C 0.97603 0.02646 0.15385 0.0
H1985 H 0.01187 0.01816 0.13254 0.0
C1986 C 0.96648 0.03186 0.13847 0.0
C1987 C 0.99232 0.02087 0.1514 0.0
C1988 C 1.0024 0.01303 0.16651 0.0
C1989 C 0.97273 0.03187 0.12083 0.0
C1990 C 0.98956 0.02728 0.11871 0.0
C1991 C 0.99909 0.0219 0.13411 0.0
C1992 C 0.99731 0.02731 0.10057 0.0
C1993 C 0.96081 0.0361 0.10455 0.0
C1994 C 0.00363 0.01227 0.09341 0.0
C1995 C 0.01143 0.01233 0.07675 0.0
C1996 C 0.01257 0.02721 0.06665 0.0
C1997 C 0.00623 0.04222 0.07361 0.0
C1998 C 0.99904 0.04244 0.09066 0.0
H1999 H 0.94633 0.03315 0.10683 0.0
H2000 H 0.96489 0.05074 0.10322 0.0
H2001 H 0.96196 0.02818 0.09112 0.0
H2002 H 1.00253 1.00042 0.1007 0.0
H2003 H 0.01627 1.00061 0.07155 0.0
H2004 H 0.28012 0.63599 0.48326 0.0
H2005 H 0.2873 0.65293 0.4567 0.0
H2006 H 0.24586 0.6821 0.46689 0.0
H2007 H 0.23834 0.66517 0.49287 0.0
H2008 H 0.25054 0.65756 0.4261 0.0
H2009 H 0.30313 0.7169 0.46242 0.0
H2010 H 0.30113 0.6943 0.46894 0.0
H2011 H 0.28528 0.70742 0.47544 0.0
C2012 C 0.27253 0.64597 0.47968 0.0
C2013 C 0.25856 0.6492 0.48987 0.0
C2014 C 0.27675 0.65566 0.46473 0.0
C2015 C 0.26726 0.66882 0.46029 0.0
C2016 C 0.25338 0.67205 0.47043 0.0
H2017 H 0.23806 0.7463 0.40146 0.0
H2018 H 0.2512 0.72924 0.42416 0.0
C2019 C 0.24896 0.66222 0.48505 0.0
C2020 C 0.27031 0.67844 0.44407 0.0
H2021 H 0.28596 0.72123 0.43407 0.0
C2022 C 0.25875 0.67126 0.42741 0.0
C2023 C 0.28087 0.6963 0.44632 0.0
C2024 C 0.29343 0.70425 0.46421 0.0
C2025 C 0.2561 0.68215 0.41345 0.0
C2026 C 0.26588 0.70043 0.41611 0.0
C2027 C 0.27856 0.70719 0.43218 0.0
C2028 C 0.26142 0.71301 0.40327 0.0
C2029 C 0.24165 0.67443 0.39683 0.0
C2030 C 0.26328 0.7097 0.38429 0.0
C2031 C 0.25512 0.7187 0.37132 0.0
C2032 C 0.24565 0.73183 0.3772 0.0
C2033 C 0.24494 0.73604 0.39647 0.0
C2034 C 0.25272 0.72659 0.40945 0.0
H2035 H 0.23295 0.66129 0.39895 0.0
H2036 H 0.23281 0.68401 0.39418 0.0
H2037 H 0.2482 0.67211 0.38408 0.0
H2038 H 0.27006 0.69932 0.37938 0.0
H2039 H 0.25567 0.71475 0.35658 0.0
H2040 H 0.65119 0.01321 0.69282 0.0
H2041 H 0.63563 0.0043 0.66069 0.0
H2042 H 0.61058 0.04996 0.66623 0.0
H2043 H 0.62604 0.05905 0.69822 0.0
H2044 H 0.59741 0.99582 0.6537 0.0
H2045 H 0.62729 0.05044 0.61384 0.0
H2046 H 0.63889 0.04597 0.63547 0.0
H2047 H 0.62204 0.05931 0.63605 0.0
C2048 C 0.6425 0.02145 0.68712 0.0
C2049 C 0.63958 0.03668 0.69807 0.0
C2050 C 0.63378 0.0164 0.66878 0.0
C2051 C 0.62227 0.02665 0.66119 0.0
C2052 C 0.61978 0.04215 0.67185 0.0
H2053 H 0.5389 0.0344 0.5827 0.0
H2054 H 0.55823 0.03226 0.61131 0.0
C2055 C 0.6284 0.04717 0.69017 0.0
C2056 C 0.61076 0.02001 0.64324 0.0
H2057 H 0.59608 0.03488 0.60286 0.0
C2058 C 0.59731 0.00404 0.64228 0.0
C2059 C 0.61092 0.0308 0.62848 0.0
C2060 C 0.6257 0.04749 0.62841 0.0
C2061 C 0.58293 0.99946 0.62761 0.0
C2062 C 0.58229 0.01116 0.61381 0.0
C2063 C 0.59654 0.02626 0.61391 0.0
C2064 C 0.56671 0.00867 0.59938 0.0
C2065 C 0.56796 0.98291 0.62752 0.0
C2066 C 0.56446 0.99542 0.58389 0.0
C2067 C 0.55333 0.99651 0.56769 0.0
C2068 C 0.54464 0.01096 0.56693 0.0
C2069 C 0.54541 0.02309 0.5831 0.0
C2070 C 0.55645 0.02192 0.59934 0.0
H2071 H 0.56983 0.97604 0.64021 0.0
H2072 H 0.55464 0.98674 0.62674 0.0
H2073 H 0.56757 0.97315 0.61488 0.0
H2074 H 0.57245 0.98524 0.58376 0.0
H2075 H 0.55269 0.98696 0.55528 0.0
H2076 H 0.25765 0.34995 0.96946 0.0
H2077 H 0.25369 0.337 0.93603 0.0
H2078 H 0.30874 0.33035 0.94251 0.0
H2079 H 0.31268 0.3428 0.97539 0.0
H2080 H 0.27569 0.34794 0.90588 0.0
H2081 H 0.27815 0.27896 0.92238 0.0
H2082 H 0.27346 0.29604 0.93922 0.0
H2083 H 0.29638 0.29647 0.93499 0.0
C2084 C 0.26885 0.34572 0.96367 0.0
C2085 C 0.28533 0.34702 0.97518 0.0
C2086 C 0.26659 0.33835 0.94463 0.0
C2087 C 0.28081 0.3323 0.93696 0.0
C2088 C 0.29744 0.33444 0.94825 0.0
H2089 H 0.30746 0.28086 0.83433 0.0
H2090 H 0.3059 0.29312 0.86681 0.0
C2091 C 0.29964 0.34158 0.9671 0.0
C2092 C 0.27871 0.32359 0.91724 0.0
H2093 H 0.28263 0.28489 0.89121 0.0
C2094 C 0.27691 0.33408 0.90258 0.0
C2095 C 0.28056 0.30557 0.91304 0.0
C2096 C 0.28209 0.29353 0.92822 0.0
C2097 C 0.27767 0.32726 0.88387 0.0
C2098 C 0.27978 0.30926 0.87968 0.0
C2099 C 0.28113 0.29868 0.89437 0.0
C2100 C 0.28052 0.30113 0.86018 0.0
C2101 C 0.27701 0.33975 0.86898 0.0
C2102 C 0.26658 0.30097 0.84577 0.0
C2103 C 0.26773 0.29446 0.82728 0.0
C2104 C 0.2825 0.28729 0.82274 0.0
C2105 C 0.29596 0.28637 0.83731 0.0
C2106 C 0.29505 0.29338 0.85588 0.0
H2107 H 0.28118 0.35422 0.87518 0.0
H2108 H 0.28594 0.33734 0.85826 0.0
H2109 H 0.2629 0.33736 0.86185 0.0
H2110 H 0.25486 0.30614 0.84874 0.0
H2111 H 0.25708 0.29527 0.81647 0.0
H2112 H 0.96262 0.04496 0.31069 0.0
H2113 H 0.97517 0.0484 0.34425 0.0
H2114 H 0.95434 0.99127 0.34523 0.0
H2115 H 0.94269 0.98772 0.31189 0.0
H2116 H 0.96095 0.04124 0.37714 0.0
H2117 H 0.00735 0.99623 0.36249 0.0
H2118 H 0.99512 0.00493 0.34405 0.0
H2119 H 0.9842 0.98536 0.35397 0.0
C2120 C 0.96066 0.03325 0.31822 0.0
C2121 C 0.95197 0.01604 0.30875 0.0
C2122 C 0.96783 0.03519 0.33731 0.0
C2123 C 0.96618 0.01997 0.34711 0.0
C2124 C 0.95637 0.00307 0.33785 0.0
H2125 H 0.99653 0.99261 0.45764 0.0
H2126 H 0.98361 0.9935 0.42525 0.0
C2127 C 0.9496 1.00109 0.31884 0.0
C2128 C 0.97499 0.02133 0.36682 0.0
H2129 H 1.00307 0.00232 0.39465 0.0
C2130 C 0.97031 0.03289 0.38096 0.0
C2131 C 0.98731 0.01049 0.37182 0.0
C2132 C 0.99394 0.99871 0.35725 0.0
C2133 C 0.97704 0.03334 0.40001 0.0
C2134 C 0.98885 0.02203 0.40499 0.0
C2135 C 0.99383 0.0108 0.39083 0.0
C2136 C 0.99635 0.02168 0.42481 0.0
C2137 C 0.97107 0.04552 0.41471 0.0
C2138 C 0.00795 0.03715 0.43525 0.0
C2139 C 0.0155 0.03661 0.45367 0.0
C2140 C 0.0117 0.02054 0.46203 0.0
C2141 C 0.99999 0.00509 0.45156 0.0
C2142 C 0.9925 0.00562 0.43308 0.0
H2143 H 0.9588 0.05002 0.40915 0.0
H2144 H 0.96815 0.03855 0.42719 0.0
H2145 H 0.98212 0.05776 0.41939 0.0
H2146 H 0.01138 0.04959 0.42905 0.0
H2147 H 0.02446 0.04879 0.46129 0.0
H2148 H 0.2643 0.6894 0.57529 0.0
H2149 H 0.27171 0.70785 0.60598 0.0
H2150 H 0.29092 0.66475 0.63009 0.0
H2151 H 0.28377 0.64616 0.59925 0.0
H2152 H 0.25391 0.68453 0.63893 0.0
H2153 H 0.32649 0.72171 0.64889 0.0
H2154 H 0.31377 0.71701 0.62561 0.0
H2155 H 0.31914 0.69874 0.63717 0.0
C2156 C 0.27053 0.68406 0.58704 0.0
C2157 C 0.27327 0.66639 0.58519 0.0
C2158 C 0.27481 0.69458 0.6044 0.0
C2159 C 0.28174 0.68744 0.61994 0.0
C2160 C 0.28568 0.67031 0.61797 0.0
H2161 H 0.29966 0.73805 0.73315 0.0
H2162 H 0.29971 0.71934 0.70408 0.0
C2163 C 0.2816 0.6598 0.60049 0.0
C2164 C 0.28206 0.6969 0.63845 0.0
H2165 H 0.30797 0.73044 0.67071 0.0
C2166 C 0.26572 0.69445 0.64611 0.0
C2167 C 0.29759 0.70957 0.64742 0.0
C2168 C 0.31534 0.712 0.63948 0.0
C2169 C 0.26439 0.70494 0.66265 0.0
C2170 C 0.27971 0.71833 0.67115 0.0
C2171 C 0.29622 0.72032 0.66376 0.0
C2172 C 0.27926 0.7298 0.68837 0.0
C2173 C 0.24675 0.7016 0.67088 0.0
C2174 C 0.26776 0.74192 0.68886 0.0
C2175 C 0.26744 0.75256 0.70565 0.0
C2176 C 0.27877 0.75113 0.7218 0.0
C2177 C 0.29057 0.73928 0.72097 0.0
C2178 C 0.29073 0.72863 0.70439 0.0
H2179 H 0.23796 0.6881 0.66522 0.0
H2180 H 0.24923 0.70253 0.68645 0.0
H2181 H 0.23925 0.71205 0.66728 0.0
H2182 H 0.25906 0.74308 0.67635 0.0
H2183 H 0.25827 0.76163 0.70605 0.0
H2184 H 0.66131 0.05988 0.81527 0.0
H2185 H 0.64546 0.05357 0.84233 0.0
H2186 H 0.61772 1.00094 0.81342 0.0
H2187 H 0.63424 0.00698 0.7864 0.0
H2188 H 0.59747 0.03133 0.82197 0.0
H2189 H 0.63925 0.01639 0.88387 0.0
H2190 H 0.65101 0.03206 0.86981 0.0
H2191 H 0.64179 0.00891 0.85986 0.0
C2192 C 0.65237 0.04669 0.81504 0.0
C2193 C 0.64875 0.03394 0.7989 0.0
C2194 C 0.64348 0.04304 0.83051 0.0
C2195 C 0.6306 0.02675 0.82982 0.0
C2196 C 0.62788 0.01343 0.81422 0.0
H2197 H 0.54959 0.0349 0.90641 0.0
H2198 H 0.56532 0.02044 0.88331 0.0
C2199 C 0.6372 0.01692 0.79885 0.0
C2200 C 0.61728 0.02611 0.8431 0.0
H2201 H 0.61499 0.03092 0.89017 0.0
C2202 C 0.6009 0.03056 0.83682 0.0
C2203 C 0.62211 0.02541 0.86238 0.0
C2204 C 0.63945 0.0203 0.86946 0.0
C2205 C 0.5899 0.03585 0.8496 0.0
C2206 C 0.59534 0.03631 0.86898 0.0
C2207 C 0.611 0.03054 0.87521 0.0
C2208 C 0.58597 0.0447 0.88288 0.0
C2209 C 0.57332 0.04233 0.84254 0.0
C2210 C 0.59236 0.0631 0.88982 0.0
C2211 C 0.58328 0.07142 0.90265 0.0
C2212 C 0.56786 0.06131 0.90874 0.0
C2213 C 0.56144 0.04289 0.90171 0.0
C2214 C 0.57041 0.03463 0.88873 0.0
H2215 H 0.57076 0.04078 0.82693 0.0
H2216 H 0.56123 0.03465 0.84788 0.0
H2217 H 0.57508 0.05686 0.848 0.0
H2218 H 0.60438 0.07098 0.88531 0.0
H2219 H 0.58857 0.08555 0.90822 0.0
H2220 H 0.28281 0.31757 0.06898 0.0
H2221 H 0.27819 0.30717 0.09933 0.0
H2222 H 0.26824 0.35885 0.11986 0.0
H2223 H 0.27256 0.36931 0.08919 0.0
H2224 H 0.30063 0.32475 0.13265 0.0
H2225 H 0.22777 0.32189 0.13817 0.0
H2226 H 0.23666 0.32228 0.11595 0.0
H2227 H 0.24093 0.34261 0.13226 0.0
C2228 C 0.27926 0.32661 0.07982 0.0
C2229 C 0.27808 0.34426 0.07674 0.0
C2230 C 0.27666 0.32065 0.09716 0.0
C2231 C 0.27287 0.33221 0.11184 0.0
C2232 C 0.27089 0.34962 0.10862 0.0
H2233 H 0.26179 0.31097 0.22768 0.0
H2234 H 0.26257 0.32495 0.19862 0.0
C2235 C 0.27334 0.35557 0.09111 0.0
C2236 C 0.27264 0.32638 0.13082 0.0
H2237 H 0.24519 0.31443 0.16401 0.0
C2238 C 0.28852 0.32254 0.13955 0.0
C2239 C 0.25692 0.3238 0.1399 0.0
C2240 C 0.23953 0.32773 0.13111 0.0
C2241 C 0.28907 0.3159 0.15698 0.0
C2242 C 0.27311 0.31248 0.1657 0.0
C2243 C 0.25737 0.31688 0.15725 0.0
C2244 C 0.27238 0.30389 0.18328 0.0
C2245 C 0.30686 0.31284 0.1659 0.0
C2246 C 0.27727 0.28722 0.18424 0.0
C2247 C 0.27719 0.27939 0.20091 0.0
C2248 C 0.27177 0.28783 0.2169 0.0
C2249 C 0.2662 0.30419 0.21569 0.0
C2250 C 0.26658 0.31217 0.19907 0.0
H2251 H 0.31857 0.32171 0.16104 0.0
H2252 H 0.3083 0.31542 0.18148 0.0
H2253 H 0.30753 0.29859 0.16175 0.0
H2254 H 0.28122 0.28024 0.17208 0.0
H2255 H 0.28145 0.26673 0.20125 0.0
H2256 H 0.24577 0.93811 0.02246 0.0
H2257 H 0.22163 0.95404 0.02638 0.0
H2258 H 0.22469 0.97053 0.97116 0.0
H2259 H 0.24911 0.95458 0.96703 0.0
H2260 H 0.22312 0.99853 0.0054 0.0
H2261 H 0.16961 0.93463 0.9932 0.0
H2262 H 0.18965 0.93447 0.00878 0.0
H2263 H 0.19118 0.93647 0.98439 0.0
C2264 C 0.24138 0.94516 0.01114 0.0
C2265 C 0.24916 0.94503 0.99436 0.0
C2266 C 0.22764 0.95424 0.01343 0.0
C2267 C 0.22143 0.96318 -0.00105 0.0
C2268 C 0.22945 0.96359 0.98239 0.0
H2269 H 0.12062 0.9966 0.01253 0.0
H2270 H 0.14554 0.99027 0.99594 0.0
C2271 C 0.24331 0.95453 0.98009 0.0
C2272 C 0.20613 0.97158 0.00121 0.0
H2273 H 0.16175 0.96092 0.00768 0.0
C2274 C 0.20956 0.99045 0.00548 0.0
C2275 C 0.1886 0.96082 0.00124 0.0
C2276 C 0.18442 0.94046 0.99652 0.0
C2277 C 0.19593 0.99881 0.01095 0.0
C2278 C 0.1787 0.98792 0.01206 0.0
C2279 C 0.17502 0.96917 0.00666 0.0
C2280 C 0.16497 0.99514 0.02115 0.0
C2281 C 0.2002 0.01907 0.01621 0.0
C2282 C 0.16789 1.00004 0.04068 0.0
C2283 C 0.1537 0.0033 0.05014 0.0
C2284 C 0.13651 1.00179 0.04012 0.0
C2285 C 0.13385 0.99785 0.02045 0.0
C2286 C 0.148 0.99433 0.011 0.0
H2287 H 0.21229 0.02583 0.01016 0.0
H2288 H 0.18847 0.02472 0.01135 0.0
H2289 H 0.20307 0.02226 0.03175 0.0
H2290 H 0.18087 1.00038 0.0487 0.0
H2291 H 0.15598 0.00648 0.06532 0.0
H2292 H 0.7185 0.63646 0.03178 0.0
H2293 H 0.69039 0.61416 0.03334 0.0
H2294 H 0.68141 0.60321 0.97281 0.0
H2295 H 0.70945 0.6258 0.97124 0.0
H2296 H 0.65567 0.61918 0.013 0.0
H2297 H 0.67109 0.55191 0.99392 0.0
H2298 H 0.68852 0.57171 0.00386 0.0
H2299 H 0.67859 0.56956 0.97981 0.0
C2300 C 0.71082 0.62879 0.01887 0.0
C2301 C 0.71617 0.63245 0.00141 0.0
C2302 C 0.69476 0.6162 0.01977 0.0
C2303 C 0.68395 0.60699 0.0032 0.0
C2304 C 0.68973 0.61003 0.98574 0.0
H2305 H 0.56914 0.55712 0.98499 0.0
H2306 H 0.59986 0.57389 0.98269 0.0
C2307 C 0.70572 0.62281 0.98484 0.0
C2308 C 0.66575 0.59577 0.00417 0.0
H2309 H 0.64065 0.55224 -0.00235 0.0
C2310 C 0.65237 0.60455 0.00967 0.0
C2311 C 0.66158 0.57672 -0.00017 0.0
C2312 C 0.67567 0.5668 0.99411 0.0
C2313 C 0.6348 0.59473 0.01083 0.0
C2314 C 0.63058 0.57568 0.00637 0.0
C2315 C 0.644 0.56687 0.00102 0.0
C2316 C 0.61224 0.56477 0.00724 0.0
C2317 C 0.62087 0.60472 0.01698 0.0
C2318 C 0.60918 0.55385 0.0216 0.0
C2319 C 0.59165 0.54419 0.02293 0.0
C2320 C 0.57696 0.54536 0.0099 0.0
C2321 C 0.58017 0.55608 0.99533 0.0
C2322 C 0.59768 0.56564 0.99397 0.0
H2323 H 0.62702 0.61911 0.02259 0.0
H2324 H 0.61053 0.60439 0.00479 0.0
H2325 H 0.6138 0.59802 0.02794 0.0
H2326 H 0.62029 0.5531 0.03199 0.0
H2327 H 0.58953 0.53617 0.03439 0.0
H2328 H 0.69564 0.50795 0.29591 0.0
H2329 H 0.70976 0.48201 0.29276 0.0
H2330 H 0.65808 0.4474 0.26883 0.0
H2331 H 0.64398 0.47337 0.27136 0.0
H2332 H 0.70475 0.4502 0.30687 0.0
H2333 H 0.68883 0.4369 0.22926 0.0
H2334 H 0.68576 0.45714 0.24253 0.0
H2335 H 0.66892 0.43623 0.24058 0.0
C2336 C 0.68726 0.49483 0.28992 0.0
C2337 C 0.66869 0.49281 0.28366 0.0
C2338 C 0.69537 0.47998 0.28819 0.0
C2339 C 0.6851 0.46279 0.28019 0.0
C2340 C 0.66643 0.46061 0.27454 0.0
H2341 H 0.70275 0.3563 0.25403 0.0
H2342 H 0.69157 0.38261 0.26544 0.0
C2343 C 0.65834 0.47548 0.27609 0.0
C2344 C 0.69396 0.44721 0.27755 0.0
H2345 H 0.69984 0.41434 0.24441 0.0
C2346 C 0.70379 0.44244 0.29319 0.0
C2347 C 0.6929 0.43716 0.25966 0.0
C2348 C 0.6837 0.44222 0.24203 0.0
C2349 C 0.71205 0.42758 0.29148 0.0
C2350 C 0.71047 0.41729 0.27371 0.0
C2351 C 0.70092 0.42221 0.25807 0.0
C2352 C 0.718 0.40092 0.27084 0.0
C2353 C 0.72208 0.42268 0.30867 0.0
C2354 C 0.7367 0.40233 0.27079 0.0
C2355 C 0.74317 0.3872 0.26421 0.0
C2356 C 0.73095 0.37056 0.25754 0.0
C2357 C 0.71245 0.36896 0.25905 0.0
C2358 C 0.70603 0.38399 0.26553 0.0
H2359 H 0.72019 0.43061 0.32182 0.0
H2360 H 0.71742 0.40802 0.30969 0.0
H2361 H 0.73678 0.42535 0.30743 0.0
H2362 H 0.74614 0.41534 0.27467 0.0
H2363 H 0.75747 0.38886 0.26301 0.0
H2364 H 0.84337 0.44266 0.47669 0.0
H2365 H 0.87156 0.46586 0.48114 0.0
H2366 H 0.86084 0.48436 0.53648 0.0
H2367 H 0.8323 0.46116 0.53188 0.0
H2368 H 0.88595 0.50576 0.49656 0.0
H2369 H 0.90181 0.45297 0.53988 0.0
H2370 H 0.88184 0.44876 0.52274 0.0
H2371 H 0.88294 0.46271 0.54462 0.0
C2372 C 0.84671 0.45226 0.48942 0.0
C2373 C 0.83618 0.45028 0.50412 0.0
C2374 C 0.86263 0.46551 0.49189 0.0
C2375 C 0.86811 0.47651 0.50918 0.0
C2376 C 0.85655 0.47591 0.52306 0.0
H2377 H 0.98127 0.53303 0.53399 0.0
H2378 H 0.94985 0.52186 0.53936 0.0
C2379 C 0.84044 0.46273 0.52048 0.0
C2380 C 0.88734 0.48474 0.51407 0.0
H2381 H 0.92626 0.4749 0.53368 0.0
C2382 C 0.89481 0.49946 0.50514 0.0
C2383 C 0.89861 0.47581 0.52471 0.0
C2384 C 0.89101 0.45912 0.53349 0.0
C2385 C 0.91358 0.50531 0.50624 0.0
C2386 C 0.92476 0.49617 0.5166 0.0
C2387 C 0.91735 0.48186 0.52603 0.0
C2388 C 0.94418 0.50028 0.51613 0.0
C2389 C 0.92141 0.52045 0.49549 0.0
C2390 C 0.95113 0.49117 0.50179 0.0
C2391 C 0.96898 0.49736 0.49888 0.0
C2392 C 0.97981 0.51246 0.51047 0.0
C2393 C 0.97312 0.52094 0.52542 0.0
C2394 C 0.95529 0.51472 0.52838 0.0
H2395 H 0.91079 0.52652 0.48859 0.0
H2396 H 0.93131 0.53124 0.50511 0.0
H2397 H 0.92881 0.5152 0.48451 0.0
H2398 H 0.94243 0.48008 0.49219 0.0
H2399 H 0.97402 0.49108 0.48701 0.0
H2400 H 0.37703 0.06897 0.30391 0.0
H2401 H 0.36493 0.09624 0.30381 0.0
H2402 H 0.31418 0.06422 0.27384 0.0
H2403 H 0.32586 0.0369 0.27481 0.0
H2404 H 0.35572 0.11001 0.27403 0.0
H2405 H 0.29536 0.09528 0.3107 0.0
H2406 H 0.31231 0.08195 0.31189 0.0
H2407 H 0.29439 0.07728 0.29233 0.0
C2408 C 0.36317 0.06778 0.29765 0.0
C2409 C 0.35229 0.05094 0.28943 0.0
C2410 C 0.35627 0.08329 0.29767 0.0
C2411 C 0.33852 0.08217 0.28923 0.0
C2412 C 0.32764 0.06529 0.28111 0.0
H2413 H 0.28423 0.14227 0.22517 0.0
H2414 H 0.29435 0.12042 0.24404 0.0
C2415 C 0.33439 0.04973 0.28147 0.0
C2416 C 0.33213 0.0988 0.28668 0.0
H2417 H 0.29493 0.11687 0.28781 0.0
C2418 C 0.34268 0.1118 0.27757 0.0
C2419 C 0.31511 0.10106 0.29131 0.0
C2420 C 0.30377 0.08821 0.30228 0.0
C2421 C 0.3361 0.1264 0.27179 0.0
C2422 C 0.31857 0.12792 0.27525 0.0
C2423 C 0.30838 0.11552 0.28523 0.0
C2424 C 0.3099 0.14084 0.26625 0.0
C2425 C 0.3474 0.13948 0.26099 0.0
C2426 C 0.31499 0.15937 0.27292 0.0
C2427 C 0.30917 0.17182 0.26221 0.0
C2428 C 0.29848 0.16575 0.2447 0.0
C2429 C 0.29268 0.14714 0.23855 0.0
C2430 C 0.29828 0.13472 0.24934 0.0
H2431 H 0.36038 0.13576 0.2586 0.0
H2432 H 0.33969 0.13994 0.24714 0.0
H2433 H 0.35052 0.15331 0.26888 0.0
H2434 H 0.32406 0.16419 0.28592 0.0
H2435 H 0.31371 0.18617 0.26714 0.0
H2436 H 0.30413 0.12983 0.52517 0.0
H2437 H 0.32682 0.11158 0.52964 0.0
H2438 H 0.35063 0.13085 0.48187 0.0
H2439 H 0.32804 0.14902 0.47719 0.0
H2440 H 0.33662 0.08394 0.50076 0.0
H2441 H 0.39182 0.1443 0.52922 0.0
H2442 H 0.36812 0.14435 0.52925 0.0
H2443 H 0.37801 0.14584 0.50783 0.0
C2444 C 0.31416 0.13015 0.51558 0.0
C2445 C 0.31435 0.14099 0.5009 0.0
C2446 C 0.32705 0.11966 0.51811 0.0
C2447 C 0.34041 0.11998 0.50614 0.0
C2448 C 0.34045 0.13051 0.4913 0.0
H2449 H 0.4381 0.07817 0.50758 0.0
H2450 H 0.41152 0.09002 0.49738 0.0
C2451 C 0.32752 0.14088 0.48867 0.0
C2452 C 0.35484 0.10995 0.50957 0.0
H2453 H 0.40012 0.11628 0.52431 0.0
C2454 C 0.35051 0.09096 0.50593 0.0
C2455 C 0.37291 0.1192 0.5163 0.0
C2456 C 0.37809 0.13954 0.52104 0.0
C2457 C 0.36391 0.08097 0.5087 0.0
C2458 C 0.38197 0.09026 0.51542 0.0
C2459 C 0.38627 0.10923 0.519 0.0
C2460 C 0.39661 0.08067 0.51972 0.0
C2461 C 0.3588 0.06062 0.50425 0.0
C2462 C 0.39686 0.07132 0.53548 0.0
C2463 C 0.41209 0.06483 0.54145 0.0
C2464 C 0.42719 0.06742 0.53161 0.0
C2465 C 0.42654 0.07593 0.51527 0.0
C2466 C 0.41142 0.08269 0.50948 0.0
H2467 H 0.3452 0.05579 0.4958 0.0
H2468 H 0.36898 0.05571 0.49644 0.0
H2469 H 0.3586 0.05453 0.51758 0.0
H2470 H 0.38566 0.06982 0.54369 0.0
H2471 H 0.41234 0.05829 0.5541 0.0
H2472 H 0.65692 0.58825 0.25244 0.0
H2473 H 0.67972 0.61627 0.2529 0.0
H2474 H 0.70358 0.61008 0.30822 0.0
H2475 H 0.68089 0.58153 0.30746 0.0
H2476 H 0.68205 0.64566 0.2783 0.0
H2477 H 0.74822 0.62559 0.28189 0.0
H2478 H 0.72683 0.60943 0.27502 0.0
H2479 H 0.73432 0.61792 0.29938 0.0
C2480 C 0.66742 0.59259 0.26441 0.0
C2481 C 0.66741 0.58274 0.2798 0.0
C2482 C 0.68035 0.60862 0.26473 0.0
C2483 C 0.69339 0.61525 0.28056 0.0
C2484 C 0.69386 0.60504 0.29572 0.0
H2485 H 0.74484 0.73079 0.30056 0.0
H2486 H 0.72831 0.70033 0.30415 0.0
C2487 C 0.68096 0.58876 0.29529 0.0
C2488 C 0.70516 0.63363 0.28163 0.0
H2489 H 0.74913 0.65703 0.28462 0.0
C2490 C 0.69673 0.64816 0.27972 0.0
C2491 C 0.72428 0.63681 0.28341 0.0
C2492 C 0.73401 0.62162 0.28489 0.0
C2493 C 0.70683 0.66572 0.27916 0.0
C2494 C 0.72598 0.66896 0.28109 0.0
C2495 C 0.73446 0.6545 0.28326 0.0
C2496 C 0.73732 0.68714 0.28009 0.0
C2497 C 0.69684 0.68048 0.27583 0.0
C2498 C 0.74852 0.68971 0.26591 0.0
C2499 C 0.75825 0.70706 0.26405 0.0
C2500 C 0.75679 0.72209 0.27627 0.0
C2501 C 0.746 0.71943 0.2908 0.0
C2502 C 0.73652 0.70207 0.29282 0.0
H2503 H 0.68242 0.67484 0.26988 0.0
H2504 H 0.6971 0.68889 0.2894 0.0
H2505 H 0.70334 0.68943 0.26608 0.0
H2506 H 0.74933 0.67836 0.25594 0.0
H2507 H 0.76642 0.70879 0.25269 0.0
H2508 H 0.83125 0.47583 0.78902 0.0
H2509 H 0.81297 0.44483 0.78674 0.0
H2510 H 0.85909 0.42383 0.77344 0.0
H2511 H 0.87749 0.45458 0.77614 0.0
H2512 H 0.80545 0.41745 0.75593 0.0
H2513 H 0.84326 0.3984 0.81801 0.0
H2514 H 0.84549 0.42163 0.8136 0.0
H2515 H 0.85775 0.40729 0.80155 0.0
C2516 C 0.83741 0.46454 0.78561 0.0
C2517 C 0.85571 0.46741 0.78289 0.0
C2518 C 0.82702 0.44697 0.78434 0.0
C2519 C 0.8349 0.43228 0.78026 0.0
C2520 C 0.85302 0.43514 0.77705 0.0
H2521 H 0.81127 0.31901 0.76704 0.0
H2522 H 0.82186 0.35068 0.76326 0.0
C2523 C 0.86345 0.45264 0.77854 0.0
C2524 C 0.8242 0.4138 0.77906 0.0
H2525 H 0.82413 0.37412 0.79661 0.0
C2526 C 0.80932 0.40794 0.76491 0.0
C2527 C 0.82937 0.40171 0.79099 0.0
C2528 C 0.84473 0.40762 0.80701 0.0
C2529 C 0.79995 0.38979 0.76171 0.0
C2530 C 0.8057 0.37759 0.77308 0.0
C2531 C 0.82007 0.38364 0.78774 0.0
C2532 C 0.79731 0.35829 0.77015 0.0
C2533 C 0.78445 0.38366 0.74591 0.0
C2534 C 0.77973 0.3522 0.77443 0.0
C2535 C 0.77344 0.33398 0.77605 0.0
C2536 C 0.78486 0.32193 0.77373 0.0
C2537 C 0.80204 0.32793 0.76837 0.0
C2538 C 0.80816 0.34601 0.76637 0.0
H2539 H 0.78401 0.39405 0.73624 0.0
H2540 H 0.7855 0.37086 0.73771 0.0
H2541 H 0.77147 0.38102 0.75191 0.0
H2542 H 0.77139 0.36166 0.77775 0.0
H2543 H 0.76013 0.32957 0.78025 0.0
H2544 H 0.07874 0.84229 0.06611 0.0
H2545 H 0.07438 0.87139 0.0578 0.0
H2546 H 0.02134 0.86035 0.07564 0.0
H2547 H 0.02625 0.83154 0.08519 0.0
H2548 H 0.05511 0.88237 0.03396 0.0
H2549 H 0.0352 0.90981 0.10045 0.0
H2550 H 0.04322 0.8892 0.09843 0.0
H2551 H 0.01992 0.88898 0.09022 0.0
C2552 C 0.06613 0.84602 0.06845 0.0
C2553 C 0.05292 0.8343 0.0765 0.0
C2554 C 0.0636 0.86287 0.06359 0.0
C2555 C 0.04763 0.8688 0.06627 0.0
C2556 C 0.03416 0.85688 0.07394 0.0
H2557 H 0.00941 0.96545 0.03491 0.0
H2558 H 0.01208 0.93604 0.04418 0.0
C2559 C 0.03688 0.84011 0.07925 0.0
C2560 C 0.0452 0.88704 0.06048 0.0
H2561 H 0.03208 0.92637 0.07462 0.0
C2562 C 0.0502 0.89193 0.04307 0.0
C2563 C 0.03872 0.89999 0.07199 0.0
C2564 C 0.03413 0.89683 0.09138 0.0
C2565 C 0.04887 0.9088 0.03696 0.0
C2566 C 0.04235 0.92163 0.04842 0.0
C2567 C 0.03709 0.91675 0.06568 0.0
C2568 C 0.04084 0.94003 0.0427 0.0
C2569 C 0.05415 0.91256 0.01795 0.0
C2570 C 0.05606 0.95266 0.03885 0.0
C2571 C 0.05451 0.96962 0.03328 0.0
C2572 C 0.03766 0.97465 0.03136 0.0
C2573 C 0.02254 0.96214 0.03564 0.0
C2574 C 0.0241 0.94521 0.04119 0.0
H2575 H 0.05436 0.89993 0.00889 0.0
H2576 H 0.04467 0.91959 0.01054 0.0
H2577 H 0.06796 0.92147 0.01984 0.0
H2578 H 0.0693 0.9495 0.0403 0.0
H2579 H 0.0666 0.97882 0.0305 0.0
H2580 H 0.92888 0.23306 0.90931 0.0
H2581 H 0.90291 0.23505 0.88724 0.0
H2582 H 0.93706 0.2772 0.86328 0.0
H2583 H 0.96335 0.27439 0.8847 0.0
H2584 H 0.8869 0.26106 0.88522 0.0
H2585 H 0.91025 0.2499 0.81576 0.0
H2586 H 0.92265 0.24589 0.83706 0.0
H2587 H 0.9249 0.26855 0.83098 0.0
C2588 C 0.93095 0.24243 0.899 0.0
C2589 C 0.94825 0.25339 0.89863 0.0
C2590 C 0.91603 0.24366 0.88641 0.0
C2591 C 0.91781 0.25615 0.87327 0.0
C2592 C 0.9352 0.26702 0.87274 0.0
H2593 H 0.83746 0.28962 0.79644 0.0
H2594 H 0.86487 0.28662 0.81564 0.0
C2595 C 0.95029 0.26546 0.88508 0.0
C2596 C 0.90121 0.25846 0.86126 0.0
H2597 H 0.88281 0.25991 0.81607 0.0
C2598 C 0.88604 0.26065 0.87007 0.0
C2599 C 0.89992 0.25822 0.84145 0.0
C2600 C 0.91524 0.25535 0.83073 0.0
C2601 C 0.86987 0.26257 0.85984 0.0
C2602 C 0.86851 0.26207 0.84004 0.0
C2603 C 0.88372 0.26019 0.83121 0.0
C2604 C 0.85155 0.26369 0.82827 0.0
C2605 C 0.85454 0.26558 0.87049 0.0
C2606 C 0.83475 0.25173 0.8287 0.0
C2607 C 0.81895 0.25346 0.81771 0.0
C2608 C 0.81961 0.26698 0.80574 0.0
C2609 C 0.83644 0.27885 0.80525 0.0
C2610 C 0.85218 0.27719 0.8163 0.0
H2611 H 0.85948 0.27097 0.88548 0.0
H2612 H 0.84728 0.27514 0.86413 0.0
H2613 H 0.84473 0.25245 0.87013 0.0
H2614 H 0.83386 0.24091 0.83742 0.0
H2615 H 0.80625 0.24406 0.8184 0.0
H2616 H 0.56506 0.2312 0.55045 0.0
H2617 H 0.5599 0.19841 0.54237 0.0
H2618 H 0.52614 0.19039 0.58639 0.0
H2619 H 0.53094 0.22331 0.59428 0.0
H2620 H 0.56896 0.17327 0.56118 0.0
H2621 H 0.49414 0.15519 0.54549 0.0
H2622 H 0.50693 0.17835 0.54844 0.0
H2623 H 0.5019 0.16712 0.56866 0.0
C2624 C 0.55626 0.22254 0.55828 0.0
C2625 C 0.5483 0.23019 0.57297 0.0
C2626 C 0.55338 0.20362 0.55366 0.0
C2627 C 0.54238 0.19154 0.56349 0.0
C2628 C 0.5343 0.19913 0.57812 0.0
H2629 H 0.51875 0.07202 0.55988 0.0
H2630 H 0.52143 0.10466 0.56817 0.0
C2631 C 0.53713 0.21811 0.58271 0.0
C2632 C 0.54015 0.1712 0.5589 0.0
H2633 H 0.5087 0.13067 0.54788 0.0
C2634 C 0.55573 0.16405 0.55819 0.0
C2635 C 0.52296 0.1588 0.55495 0.0
C2636 C 0.50553 0.16524 0.55422 0.0
C2637 C 0.55465 0.14524 0.55398 0.0
C2638 C 0.53749 0.13289 0.5501 0.0
C2639 C 0.5219 0.13995 0.55091 0.0
C2640 C 0.53549 0.11274 0.54484 0.0
C2641 C 0.57202 0.13871 0.55406 0.0
C2642 C 0.54204 0.10603 0.52868 0.0
C2643 C 0.54021 0.0873 0.52372 0.0
C2644 C 0.53204 0.07453 0.53487 0.0
C2645 C 0.52523 0.08126 0.55092 0.0
C2646 C 0.5268 0.10003 0.55573 0.0
H2647 H 0.58375 0.1489 0.56206 0.0
H2648 H 0.57087 0.12583 0.56027 0.0
H2649 H 0.57487 0.13621 0.53938 0.0
H2650 H 0.54839 0.11531 0.51966 0.0
H2651 H 0.54502 0.08287 0.51091 0.0
H2652 H 0.55911 0.75332 0.41215 0.0
H2653 H 0.58682 0.75371 0.39753 0.0
H2654 H 0.565 0.77801 0.35154 0.0
H2655 H 0.53751 0.77792 0.3661 0.0
H2656 H 0.59322 0.73838 0.36281 0.0
H2657 H 0.61346 0.81318 0.36903 0.0
H2658 H 0.59592 0.80155 0.38122 0.0
H2659 H 0.59097 0.80437 0.35687 0.0
C2660 C 0.56021 0.75879 0.39894 0.0
C2661 C 0.54607 0.76577 0.39044 0.0
C2662 C 0.57608 0.75894 0.39055 0.0
C2663 C 0.57821 0.76618 0.37355 0.0
C2664 C 0.56392 0.77272 0.36484 0.0
H2665 H 0.66019 0.78194 0.29765 0.0
H2666 H 0.63139 0.77431 0.31079 0.0
C2667 C 0.54812 0.77259 0.37319 0.0
C2668 C 0.59538 0.76719 0.36495 0.0
H2669 H 0.6292 0.79689 0.34919 0.0
C2670 C 0.60114 0.75119 0.35994 0.0
C2671 C 0.6059 0.78391 0.36132 0.0
C2672 C 0.60138 0.80175 0.36756 0.0
C2673 C 0.61677 0.75146 0.35097 0.0
C2674 C 0.62685 0.76811 0.34682 0.0
C2675 C 0.62127 0.78408 0.35207 0.0
C2676 C 0.64369 0.76954 0.33772 0.0
C2677 C 0.62232 0.73397 0.34568 0.0
C2678 C 0.66012 0.76906 0.34834 0.0
C2679 C 0.67653 0.77357 0.34092 0.0
C2680 C 0.67684 0.77843 0.32265 0.0
C2681 C 0.66031 0.77795 0.31164 0.0
C2682 C 0.64388 0.77368 0.31917 0.0
H2683 H 0.6122 0.72197 0.34834 0.0
H2684 H 0.62414 0.73256 0.33057 0.0
H2685 H 0.63555 0.73421 0.35395 0.0
H2686 H 0.66035 0.76614 0.36273 0.0
H2687 H 0.68911 0.77407 0.34976 0.0
H2688 H 0.04295 0.26866 0.42485 0.0
H2689 H 0.04289 0.24066 0.43845 0.0
H2690 H 0.0403 0.21204 0.38309 0.0
H2691 H 0.04107 0.24045 0.36944 0.0
H2692 H 0.01568 0.21242 0.43273 0.0
H2693 H 0.07587 0.18945 0.41176 0.0
H2694 H 0.07278 0.21203 0.40961 0.0
H2695 H 0.06095 0.19333 0.39237 0.0
C2696 C 0.04291 0.25651 0.41559 0.0
C2697 C 0.04213 0.25683 0.39607 0.0
C2698 C 0.04277 0.24044 0.4234 0.0
C2699 C 0.04163 0.22408 0.41192 0.0
C2700 C 0.04159 0.22445 0.3924 0.0
H2701 H 0.01011 0.11279 0.43699 0.0
H2702 H 0.02073 0.13981 0.42178 0.0
C2703 C 0.04203 0.24073 0.38456 0.0
C2704 C 0.03871 0.20668 0.42042 0.0
H2705 H 0.05497 0.16861 0.42584 0.0
C2706 C 0.02441 0.20296 0.43129 0.0
C2707 C 0.0499 0.1941 0.41848 0.0
C2708 C 0.06584 0.19746 0.40757 0.0
C2709 C 0.02103 0.18724 0.44022 0.0
C2710 C 0.03232 0.17479 0.43848 0.0
C2711 C 0.04642 0.17824 0.42735 0.0
C2712 C 0.02914 0.15795 0.4478 0.0
C2713 C 0.00514 0.18392 0.45124 0.0
C2714 C 0.03103 0.15896 0.46754 0.0
C2715 C 0.02515 0.14347 0.47624 0.0
C2716 C 0.01732 0.1267 0.46537 0.0
C2717 C 0.01641 0.1255 0.44569 0.0
C2718 C 0.02239 0.14095 0.437 0.0
H2719 H 0.9956 0.1927 0.44798 0.0
H2720 H 0.99759 0.16954 0.44827 0.0
H2721 H 0.01021 0.18686 0.4665 0.0
H2722 H 0.03626 0.1719 0.47619 0.0
H2723 H 0.02566 0.14484 0.4914 0.0
H2724 H 0.56874 0.22649 0.2244 0.0
H2725 H 0.60156 0.23171 0.23298 0.0
H2726 H 0.60863 0.28376 0.21298 0.0
H2727 H 0.57554 0.27854 0.20408 0.0
H2728 H 0.63234 0.2539 0.20043 0.0
H2729 H 0.63437 0.2748 0.277 0.0
H2730 H 0.61566 0.25736 0.26475 0.0
H2731 H 0.61798 0.28022 0.25973 0.0
C2732 C 0.57715 0.23921 0.22199 0.0
C2733 C 0.56924 0.25216 0.21365 0.0
C2734 C 0.59604 0.24213 0.22688 0.0
C2735 C 0.60774 0.25817 0.22376 0.0
C2736 C 0.59998 0.27124 0.21554 0.0
H2737 H 0.72403 0.29614 0.267 0.0
H2738 H 0.69146 0.2931 0.2582 0.0
C2739 C 0.581 0.26825 0.21048 0.0
C2740 C 0.62797 0.26096 0.2289 0.0
H2741 H 0.66176 0.27142 0.26645 0.0
C2742 C 0.63878 0.2578 0.21486 0.0
C2743 C 0.63652 0.26607 0.24769 0.0
C2744 C 0.62567 0.26989 0.26328 0.0
C2745 C 0.65772 0.25949 0.21908 0.0
C2746 C 0.66629 0.26423 0.238 0.0
C2747 C 0.65544 0.26766 0.25198 0.0
C2748 C 0.68641 0.2659 0.24355 0.0
C2749 C 0.66839 0.2565 0.20307 0.0
C2750 C 0.69482 0.25162 0.23862 0.0
C2751 C 0.71362 0.25345 0.24346 0.0
C2752 C 0.72464 0.26942 0.25381 0.0
C2753 C 0.71615 0.28359 0.25903 0.0
C2754 C 0.69738 0.28184 0.25404 0.0
H2755 H 0.66122 0.2585 0.18947 0.0
H2756 H 0.68202 0.26581 0.2055 0.0
H2757 H 0.67014 0.24235 0.20178 0.0
H2758 H 0.68686 0.23897 0.23096 0.0
H2759 H 0.71953 0.24243 0.23874 0.0
H2760 H 0.55476 0.84583 0.92576 0.0
H2761 H 0.55417 0.87573 0.94107 0.0
H2762 H 0.54469 0.89364 0.88685 0.0
H2763 H 0.54507 0.86337 0.87137 0.0
H2764 H 0.57278 0.91039 0.94142 0.0
H2765 H 0.50099 0.90288 0.91099 0.0
H2766 H 0.51229 0.88435 0.90935 0.0
H2767 H 0.51639 0.90151 0.89399 0.0
C2768 C 0.55312 0.85629 0.91704 0.0
C2769 C 0.5502 0.85221 0.8973 0.0
C2770 C 0.55264 0.87341 0.92585 0.0
C2771 C 0.54899 0.88697 0.91523 0.0
C2772 C 0.54718 0.88335 0.89545 0.0
H2773 H 0.55251 0.99862 0.96469 0.0
H2774 H 0.55721 0.97187 0.94562 0.0
C2775 C 0.54777 0.86614 0.88656 0.0
C2776 C 0.54634 0.90439 0.9251 0.0
H2777 H 0.51489 0.93007 0.93073 0.0
C2778 C 0.56017 0.91475 0.9389 0.0
C2779 C 0.52973 0.91 0.92225 0.0
C2780 C 0.51391 0.89906 0.90848 0.0
C2781 C 0.55794 0.93045 0.94971 0.0
C2782 C 0.54148 0.93616 0.94665 0.0
C2783 C 0.52759 0.92582 0.93295 0.0
C2784 C 0.53832 0.95253 0.95796 0.0
C2785 C 0.573 0.94059 0.96478 0.0
C2786 C 0.52594 0.95068 0.97113 0.0
C2787 C 0.52329 0.96597 0.98214 0.0
C2788 C 0.53284 0.98353 0.98017 0.0
C2789 C 0.54497 0.98535 0.96669 0.0
C2790 C 0.54772 0.97004 0.95579 0.0
H2791 H 0.58378 0.933 0.96734 0.0
H2792 H 0.57922 0.95383 0.96047 0.0
H2793 H 0.56753 0.94334 0.97817 0.0
H2794 H 0.51846 0.93736 0.97304 0.0
H2795 H 0.51361 0.964 0.99211 0.0
H2796 H 0.96694 0.77336 0.70018 0.0
H2797 H 0.93771 0.77746 0.70933 0.0
H2798 H 0.92976 0.72613 0.73106 0.0
H2799 H 0.95909 0.7225 0.72293 0.0
H2800 H 0.90405 0.76176 0.7002 0.0
H2801 H 0.91778 0.75324 0.77493 0.0
H2802 H 0.93527 0.75512 0.75985 0.0
H2803 H 0.91994 0.73358 0.76033 0.0
C2804 C 0.95908 0.76305 0.70714 0.0
C2805 C 0.96578 0.74773 0.71105 0.0
C2806 C 0.94221 0.76537 0.71236 0.0
C2807 C 0.93136 0.7524 0.72155 0.0
C2808 C 0.93787 0.73686 0.72484 0.0
H2809 H 0.82196 0.73447 0.75729 0.0
H2810 H 0.85163 0.73187 0.74826 0.0
C2811 C 0.95478 0.7347 0.71996 0.0
C2812 C 0.91315 0.75473 0.72717 0.0
H2813 H 0.8867 0.75079 0.76301 0.0
C2814 C 0.90043 0.7595 0.71403 0.0
C2815 C 0.90799 0.75195 0.74525 0.0
C2816 C 0.92105 0.74839 0.76094 0.0
C2817 C 0.88294 0.76099 0.71814 0.0
C2818 C 0.87767 0.75771 0.73602 0.0
C2819 C 0.89039 0.7531 0.74921 0.0
C2820 C 0.85924 0.75925 0.74144 0.0
C2821 C 0.87008 0.76567 0.70301 0.0
C2822 C 0.85331 0.77551 0.74093 0.0
C2823 C 0.83629 0.77699 0.74607 0.0
C2824 C 0.82453 0.76238 0.7522 0.0
C2825 C 0.83047 0.74609 0.75276 0.0
C2826 C 0.84757 0.7446 0.74759 0.0
H2827 H 0.87398 0.76279 0.68881 0.0
H2828 H 0.85596 0.75802 0.70314 0.0
H2829 H 0.87041 0.78035 0.70554 0.0
H2830 H 0.86193 0.78722 0.73667 0.0
H2831 H 0.83229 0.78965 0.74501 0.0
H2832 H 0.07507 0.02991 0.8208 0.0
H2833 H 0.06681 0.02535 0.85207 0.0
H2834 H 0.12006 0.01727 0.86972 0.0
H2835 H 0.12846 0.02165 0.83821 0.0
H2836 H 0.0797 0.99127 0.87863 0.0
H2837 H 0.09858 0.06585 0.90094 0.0
H2838 H 0.08824 0.0572 0.87715 0.0
H2839 H 0.11078 0.05506 0.88475 0.0
C2840 C 0.08496 0.0269 0.83123 0.0
C2841 C 0.10244 0.02618 0.82704 0.0
C2842 C 0.08021 0.02429 0.84908 0.0
C2843 C 0.09285 0.02107 0.86318 0.0
C2844 C 0.11011 0.01967 0.85895 0.0
H2845 H 0.0754 0.00523 0.97998 0.0
H2846 H 0.08791 0.00487 0.94991 0.0
C2847 C 0.11485 0.02211 0.84095 0.0
C2848 C 0.08818 0.02033 0.88256 0.0
H2849 H 0.08442 0.04755 0.92191 0.0
C2850 C 0.08097 0.00351 0.88824 0.0
C2851 C 0.08963 0.03637 0.89489 0.0
C2852 C 0.09725 0.05472 0.88929 0.0
C2853 C 0.07479 0.00237 0.90589 0.0
C2854 C 0.0761 0.01845 0.91818 0.0
C2855 C 0.08356 0.03524 0.91254 0.0
C2856 C 0.06864 0.01827 0.93638 0.0
C2857 C 0.06617 0.98407 0.91097 0.0
C2858 C 0.05386 0.02611 0.9388 0.0
C2859 C 0.04675 0.02633 0.95583 0.0
C2860 C 0.05428 0.01875 0.97093 0.0
C2861 C 0.06923 0.01104 0.96858 0.0
C2862 C 0.07632 0.01076 0.9514 0.0
H2863 H 0.0636 0.97327 0.89878 0.0
H2864 H 0.0753 0.98044 0.92228 0.0
H2865 H 0.05314 0.98447 0.91639 0.0
H2866 H 0.04778 0.03207 0.92745 0.0
H2867 H 0.03542 0.03266 0.9572 0.0
H2868 H 0.81324 0.37827 0.55345 0.0
H2869 H 0.80803 0.37215 0.58514 0.0
H2870 H 0.7529 0.37788 0.57375 0.0
H2871 H 0.75808 0.38435 0.54183 0.0
H2872 H 0.79203 0.39548 0.61464 0.0
H2873 H 0.75457 0.32433 0.58857 0.0
H2874 H 0.76991 0.33684 0.57468 0.0
H2875 H 0.74884 0.34299 0.5776 0.0
C2876 C 0.79994 0.37803 0.55759 0.0
C2877 C 0.78595 0.38148 0.54518 0.0
C2878 C 0.7971 0.37486 0.57574 0.0
C2879 C 0.78019 0.37483 0.58164 0.0
C2880 C 0.76609 0.37811 0.56933 0.0
H2881 H 0.77558 0.31666 0.67844 0.0
H2882 H 0.76383 0.33666 0.65828 0.0
C2883 C 0.769 0.38158 0.55116 0.0
C2884 C 0.77724 0.36952 0.60015 0.0
H2885 H 0.76722 0.33083 0.62022 0.0
C2886 C 0.78602 0.38153 0.6161 0.0
C2887 C 0.76934 0.35135 0.60179 0.0
C2888 C 0.7601 0.33802 0.58481 0.0
C2889 C 0.78862 0.37526 0.63353 0.0
C2890 C 0.78243 0.35664 0.63466 0.0
C2891 C 0.7719 0.34514 0.61919 0.0
C2892 C 0.78988 0.34797 0.64994 0.0
C2893 C 0.79906 0.38822 0.65022 0.0
C2894 C 0.80838 0.34783 0.65178 0.0
C2895 C 0.81505 0.33625 0.66297 0.0
C2896 C 0.80326 0.32479 0.67247 0.0
C2897 C 0.78489 0.32549 0.67123 0.0
C2898 C 0.7782 0.33696 0.65992 0.0
H2899 H 0.79742 0.40224 0.6491 0.0
H2900 H 0.79459 0.38405 0.66358 0.0
H2901 H 0.81371 0.38837 0.65072 0.0
H2902 H 0.81747 0.35592 0.64373 0.0
H2903 H 0.82929 0.33601 0.66395 0.0
H2904 H 0.41266 0.98107 0.34441 0.0
H2905 H 0.42414 0.98727 0.37776 0.0
H2906 H 0.4211 0.04318 0.37766 0.0
H2907 H 0.40938 0.03703 0.34416 0.0
H2908 H 0.45634 0.0339 0.37785 0.0
H2909 H 0.41824 0.00445 0.4332 0.0
H2910 H 0.41467 0.99033 0.41096 0.0
H2911 H 0.40721 0.01119 0.41246 0.0
C2912 C 0.41401 0.99458 0.35163 0.0
C2913 C 0.4111 0.00884 0.34175 0.0
C2914 C 0.42006 0.99797 0.37074 0.0
C2915 C 0.4235 0.01568 0.37993 0.0
C2916 C 0.41834 0.02942 0.37064 0.0
H2917 H 0.50147 0.05117 0.47723 0.0
H2918 H 0.48163 0.05187 0.44856 0.0
C2919 C 0.41204 0.02597 0.35152 0.0
C2920 C 0.438 0.02065 0.39565 0.0
H2921 H 0.45068 0.01091 0.43929 0.0
C2922 C 0.45506 0.02935 0.39152 0.0
C2923 C 0.43617 0.01406 0.41302 0.0
C2924 C 0.41806 0.00458 0.41779 0.0
C2925 C 0.47061 0.03111 0.40424 0.0
C2926 C 0.46878 0.02421 0.42138 0.0
C2927 C 0.45174 0.016 0.42584 0.0
C2928 C 0.48432 0.02595 0.43543 0.0
C2929 C 0.48891 0.0397 0.39919 0.0
C2930 C 0.49283 0.01146 0.43671 0.0
C2931 C 0.50417 0.01102 0.45301 0.0
C2932 C 0.50659 0.02493 0.46795 0.0
C2933 C 0.49939 0.04018 0.46585 0.0
C2934 C 0.48825 0.04069 0.44956 0.0
H2935 H 0.48796 0.04416 0.385 0.0
H2936 H 0.49551 0.05157 0.40974 0.0
H2937 H 0.49777 0.02985 0.39958 0.0
H2938 H 0.48967 1.00001 0.42573 0.0
H2939 H 0.50976 0.99922 0.45454 0.0
H2940 H 0.74492 0.71277 0.05995 0.0
H2941 H 0.75012 0.72306 0.09359 0.0
H2942 H 0.80082 0.70633 0.0982 0.0
H2943 H 0.79565 0.69562 0.06424 0.0
H2944 H 0.76044 0.69652 0.12375 0.0
H2945 H 0.80629 0.76417 0.12367 0.0
H2946 H 0.78956 0.75385 0.10367 0.0
H2947 H 0.80902 0.74463 0.10879 0.0
C2948 C 0.75732 0.71141 0.06797 0.0
C2949 C 0.76991 0.70339 0.05931 0.0
C2950 C 0.7602 0.71726 0.08725 0.0
C2951 C 0.77582 0.71546 0.09831 0.0
C2952 C 0.78867 0.70783 0.08981 0.0
H2953 H 0.8068 0.7564 0.21805 0.0
H2954 H 0.80749 0.74462 0.18527 0.0
C2955 C 0.78571 0.70176 0.07044 0.0
C2956 C 0.77815 0.72116 0.11885 0.0
H2957 H 0.79653 0.75723 0.15248 0.0
C2958 C 0.76848 0.7097 0.13012 0.0
C2959 C 0.78862 0.73835 0.12701 0.0
C2960 C 0.79901 0.75109 0.11527 0.0
C2961 C 0.76882 0.71511 0.14939 0.0
C2962 C 0.77877 0.73261 0.15748 0.0
C2963 C 0.78885 0.74386 0.14626 0.0
C2964 C 0.77844 0.73966 0.17739 0.0
C2965 C 0.75853 0.702 0.16091 0.0
C2966 C 0.76199 0.74108 0.18384 0.0
C2967 C 0.76164 0.74746 0.20263 0.0
C2968 C 0.77767 0.75276 0.21533 0.0
C2969 C 0.79418 0.75184 0.20872 0.0
C2970 C 0.79459 0.74534 0.18995 0.0
H2971 H 0.75626 0.68777 0.1542 0.0
H2972 H 0.76586 0.70319 0.17531 0.0
H2973 H 0.74506 0.70506 0.16208 0.0
H2974 H 0.74939 0.73719 0.17435 0.0
H2975 H 0.74878 0.74777 0.20725 0.0
H2976 H 0.12493 0.03137 0.71379 0.0
H2977 H 0.11315 0.02983 0.68045 0.0
H2978 H 0.05845 0.01727 0.69407 0.0
H2979 H 0.07025 0.01994 0.72744 0.0
H2980 H 0.09202 0.00562 0.65379 0.0
H2981 H 0.0564 0.06071 0.66871 0.0
H2982 H 0.07177 0.05465 0.68644 0.0
H2983 H 0.04878 0.04158 0.68064 0.0
C2984 C 0.1104 0.02795 0.70956 0.0
C2985 C 0.09848 0.02581 0.72315 0.0
C2986 C 0.10365 0.02719 0.69053 0.0
C2987 C 0.08487 0.02403 0.68473 0.0
C2988 C 0.07298 0.02046 0.69819 0.0
H2989 H 0.01891 0.0234 0.5772 0.0
H2990 H 0.02998 0.02246 0.61032 0.0
C2991 C 0.07972 0.02171 0.71724 0.0
C2992 C 0.07778 0.02506 0.6648 0.0
H2993 H 0.05092 0.04585 0.63749 0.0
C2994 C 0.08308 0.01446 0.65024 0.0
C2995 C 0.06609 0.03661 0.66004 0.0
C2996 C 0.06057 0.04916 0.67477 0.0
C2997 C 0.07679 0.01481 0.63122 0.0
C2998 C 0.06512 0.02639 0.62648 0.0
C2999 C 0.05979 0.03694 0.64103 0.0
C3000 C 0.0584 0.02785 0.60657 0.0
C3001 C 0.08243 0.00239 0.61647 0.0
C3002 C 0.07062 0.03188 0.59351 0.0
C3003 C 0.06428 0.032 0.5746 0.0
C3004 C 0.04561 0.02873 0.56843 0.0
C3005 C 0.03337 0.02592 0.58163 0.0
C3006 C 0.03971 0.02535 0.60052 0.0
H3007 H 0.08633 0.99067 0.62242 0.0
H3008 H 0.0714 0.99717 0.60456 0.0
H3009 H 0.09444 0.00999 0.61093 0.0
H3010 H 0.0851 0.03469 0.59787 0.0
H3011 H 0.07401 0.03456 0.56474 0.0
H3012 H 0.81444 0.3958 0.44003 0.0
H3013 H 0.81023 0.38383 0.40682 0.0
H3014 H 0.75227 0.3706 0.40687 0.0
H3015 H 0.75642 0.38293 0.44024 0.0
H3016 H 0.78593 0.34435 0.41094 0.0
H3017 H 0.76924 0.37871 0.34882 0.0
H3018 H 0.78444 0.39082 0.36931 0.0
H3019 H 0.76066 0.38395 0.37063 0.0
C3020 C 0.80078 0.3909 0.43273 0.0
C3021 C 0.78571 0.3893 0.44254 0.0
C3022 C 0.7984 0.38451 0.41375 0.0
C3023 C 0.781 0.37624 0.40473 0.0
C3024 C 0.76578 0.37712 0.4138 0.0
H3025 H 0.74591 0.29606 0.3096 0.0
H3026 H 0.74601 0.31502 0.33912 0.0
C3027 C 0.76814 0.38379 0.43282 0.0
C3028 C 0.77942 0.36119 0.3901 0.0
H3029 H 0.76963 0.34775 0.34322 0.0
C3030 C 0.7823 0.34496 0.39608 0.0
C3031 C 0.77484 0.36242 0.37101 0.0
C3032 C 0.77212 0.37989 0.36439 0.0
C3033 C 0.78029 0.3295 0.38325 0.0
C3034 C 0.77551 0.3306 0.36407 0.0
C3035 C 0.77295 0.34699 0.35809 0.0
C3036 C 0.77379 0.31523 0.34965 0.0
C3037 C 0.78309 0.31222 0.39039 0.0
C3038 C 0.78902 0.3083 0.34666 0.0
C3039 C 0.78879 0.29715 0.33012 0.0
C3040 C 0.77353 0.29346 0.31642 0.0
C3041 C 0.7578 0.29905 0.32012 0.0
C3042 C 0.75786 0.30978 0.33684 0.0
H3043 H 0.78118 0.31222 0.40545 0.0
H3044 H 0.77365 0.30015 0.38209 0.0
H3045 H 0.79718 0.31098 0.38915 0.0
H3046 H 0.80151 0.31267 0.35628 0.0
H3047 H 0.80106 0.29294 0.32727 0.0
H3048 H 0.4198 0.98733 0.22999 0.0
H3049 H 0.42692 0.99423 0.19907 0.0
H3050 H 0.42834 0.05065 0.21532 0.0
H3051 H 0.42076 0.04377 0.24651 0.0
H3052 H 0.40671 0.01685 0.17198 0.0
H3053 H 0.48032 0.04163 0.1992 0.0
H3054 H 0.46586 0.02599 0.21126 0.0
H3055 H 0.46325 0.04885 0.21168 0.0
C3056 C 0.42181 1.00125 0.2271 0.0
C3057 C 0.42005 0.01511 0.24066 0.0
C3058 C 0.42555 0.00509 0.20937 0.0
C3059 C 0.42787 0.02286 0.20505 0.0
C3060 C 0.4263 0.03683 0.21852 0.0
H3061 H 0.48586 0.02636 0.10861 0.0
H3062 H 0.46777 0.03985 0.12964 0.0
C3063 C 0.42222 0.03293 0.23626 0.0
C3064 C 0.43371 0.02655 0.18693 0.0
H3065 H 0.47249 0.03194 0.16688 0.0
C3066 C 0.42103 0.02082 0.17069 0.0
C3067 C 0.45237 0.03169 0.18552 0.0
C3068 C 0.46635 0.03743 0.20279 0.0
C3069 C 0.4268 0.01851 0.15301 0.0
C3070 C 0.44556 0.02188 0.15189 0.0
C3071 C 0.45808 0.02946 0.16788 0.0
C3072 C 0.45276 0.0141 0.13572 0.0
C3073 C 0.41295 0.01126 0.1359 0.0
C3074 C 0.4501 0.99519 0.13222 0.0
C3075 C 0.46064 0.98749 0.12059 0.0
C3076 C 0.4738 0.99865 0.11227 0.0
C3077 C 0.47573 0.01753 0.11495 0.0
C3078 C 0.46534 0.02523 0.12674 0.0
H3079 H 0.39982 0.0149 0.13777 0.0
H3080 H 0.41781 0.01654 0.12313 0.0
H3081 H 0.41051 0.99626 0.13366 0.0
H3082 H 0.44073 0.98644 0.13944 0.0
H3083 H 0.45884 0.9729 0.11846 0.0
H3084 H 0.75412 0.71981 0.95634 0.0
H3085 H 0.76037 0.72898 0.92589 0.0
H3086 H 0.7941 0.69049 0.91991 0.0
H3087 H 0.7878 0.68105 0.95054 0.0
H3088 H 0.7941 0.74289 0.91328 0.0
H3089 H 0.75663 0.67763 0.87141 0.0
H3090 H 0.75377 0.68367 0.89558 0.0
H3091 H 0.7737 0.6763 0.89017 0.0
C3092 C 0.76294 0.71329 0.94865 0.0
C3093 C 0.77038 0.6996 0.95588 0.0
C3094 C 0.76651 0.71859 0.93122 0.0
C3095 C 0.77749 0.71026 0.92052 0.0
C3096 C 0.78535 0.6969 0.92783 0.0
H3097 H 0.79707 0.72856 0.80472 0.0
H3098 H 0.79862 0.71724 0.83552 0.0
C3099 C 0.78185 0.69161 0.94539 0.0
C3100 C 0.78042 0.71562 0.90167 0.0
H3101 H 0.76974 0.7008 0.85461 0.0
C3102 C 0.78895 0.73363 0.90045 0.0
C3103 C 0.77365 0.70354 0.88495 0.0
C3104 C 0.7638 0.68422 0.88545 0.0
C3105 C 0.79065 0.73997 0.88298 0.0
C3106 C 0.78337 0.72804 0.86626 0.0
C3107 C 0.77537 0.70988 0.86744 0.0
C3108 C 0.78254 0.73458 0.84756 0.0
C3109 C 0.80006 0.75946 0.88259 0.0
C3110 C 0.77265 0.74769 0.844 0.0
C3111 C 0.77171 0.75406 0.82658 0.0
C3112 C 0.78063 0.74744 0.81221 0.0
C3113 C 0.79016 0.73395 0.81556 0.0
C3114 C 0.79108 0.72753 0.83312 0.0
H3115 H 0.80952 0.76504 0.8957 0.0
H3116 H 0.80775 0.76089 0.87039 0.0
H3117 H 0.78975 0.76775 0.88137 0.0
H3118 H 0.76554 0.75297 0.85473 0.0
H3119 H 0.76395 0.76421 0.82435 0.0
H3120 H 0.82015 0.10943 0.01868 0.0
H3121 H 0.84962 0.10138 0.02192 0.0
H3122 H 0.83638 0.07535 0.07064 0.0
H3123 H 0.80682 0.08392 0.06768 0.0
H3124 H 0.87852 0.1075 0.0572 0.0
H3125 H 0.84464 0.0368 0.02528 0.0
H3126 H 0.83397 0.05546 0.0222 0.0
H3127 H 0.83581 0.04737 0.04463 0.0
C3128 C 0.82365 0.10209 0.03012 0.0
C3129 C 0.81147 0.09698 0.04281 0.0
C3130 C 0.84043 0.09771 0.03208 0.0
C3131 C 0.84497 0.08792 0.04656 0.0
C3132 C 0.83296 0.08309 0.05954 0.0
H3133 H 0.93038 0.03341 0.02442 0.0
H3134 H 0.91135 0.04605 0.04482 0.0
C3135 C 0.81622 0.08783 0.05779 0.0
C3136 C 0.86152 0.08126 0.04641 0.0
H3137 H 0.8761 0.04561 0.02639 0.0
C3138 C 0.87818 0.09381 0.05106 0.0
C3139 C 0.86071 0.06348 0.03811 0.0
C3140 C 0.84287 0.04992 0.03217 0.0
C3141 C 0.89417 0.08926 0.04653 0.0
C3142 C 0.89319 0.07184 0.03719 0.0
C3143 C 0.87669 0.05891 0.03378 0.0
C3144 C 0.9082 0.06741 0.02806 0.0
C3145 C 0.91179 0.10331 0.05082 0.0
C3146 C 0.91282 0.07554 0.01215 0.0
C3147 C 0.92352 0.06829 0.00038 0.0
C3148 C 0.92963 0.05284 0.00447 0.0
C3149 C 0.92586 0.0454 0.02103 0.0
C3150 C 0.91512 0.05261 0.03273 0.0
H3151 H 0.91124 0.114 0.06229 0.0
H3152 H 0.92325 0.09698 0.05488 0.0
H3153 H 0.91449 0.10988 0.03806 0.0
H3154 H 0.90721 0.08676 0.00819 0.0
H3155 H 0.92652 0.07436 0.98782 0.0
H3156 H 0.3254 0.43032 0.02916 0.0
H3157 H 0.35272 0.45326 0.02613 0.0
H3158 H 0.38635 0.41846 0.0462 0.0
H3159 H 0.3595 0.39571 0.04946 0.0
H3160 H 0.39047 0.4665 0.05871 0.0
H3161 H 0.39339 0.43208 0.98747 0.0
H3162 H 0.37222 0.43133 0.99687 0.0
H3163 H 0.38745 0.41819 0.00563 0.0
C3164 C 0.33862 0.42774 0.0333 0.0
C3165 C 0.34025 0.41114 0.03943 0.0
C3166 C 0.35415 0.4408 0.0315 0.0
C3167 C 0.3714 0.43736 0.03581 0.0
C3168 C 0.37309 0.42125 0.04277 0.0
H3169 H 0.48398 0.48185 0.04264 0.0
H3170 H 0.45305 0.4667 0.04627 0.0
C3171 C 0.35769 0.40829 0.04462 0.0
C3172 C 0.38783 0.44992 0.03212 0.0
H3173 H 0.41914 0.45465 0.00149 0.0
C3174 C 0.39662 0.46417 0.04608 0.0
C3175 C 0.39577 0.44662 0.01567 0.0
C3176 C 0.38676 0.43128 0.00044 0.0
C3177 C 0.41357 0.47496 0.04423 0.0
C3178 C 0.42176 0.47126 0.02806 0.0
C3179 C 0.41268 0.45741 0.01381 0.0
C3180 C 0.44026 0.48092 0.02623 0.0
C3181 C 0.42289 0.48996 0.05967 0.0
C3182 C 0.44314 0.49372 0.01361 0.0
C3183 C 0.46077 0.50243 0.01153 0.0
C3184 C 0.4757 0.49829 0.02195 0.0
C3185 C 0.47271 0.48533 0.03448 0.0
C3186 C 0.45511 0.47674 0.03663 0.0
H3187 H 0.4136 0.49293 0.06982 0.0
H3188 H 0.4345 0.48595 0.06743 0.0
H3189 H 0.42836 0.50252 0.05362 0.0
H3190 H 0.43175 0.4969 0.00535 0.0
H3191 H 0.46272 0.51212 0.00153 0.0
H3192 H 0.37442 0.54817 0.78707 0.0
H3193 H 0.36056 0.57427 0.78695 0.0
H3194 H 0.38944 0.59192 0.74153 0.0
H3195 H 0.40332 0.56571 0.74142 0.0
H3196 H 0.37965 0.61064 0.79327 0.0
H3197 H 0.33685 0.59466 0.72347 0.0
H3198 H 0.34587 0.57776 0.73478 0.0
H3199 H 0.36031 0.59399 0.72348 0.0
C3200 C 0.37774 0.55749 0.77693 0.0
C3201 C 0.39001 0.55484 0.76427 0.0
C3202 C 0.36978 0.57241 0.77688 0.0
C3203 C 0.37379 0.58491 0.76409 0.0
C3204 C 0.3859 0.58225 0.75129 0.0
H3205 H 0.34826 0.69116 0.76198 0.0
H3206 H 0.35916 0.66349 0.75405 0.0
C3207 C 0.39392 0.56734 0.75136 0.0
C3208 C 0.36613 0.60127 0.7651 0.0
H3209 H 0.33777 0.62295 0.74106 0.0
C3210 C 0.37049 0.61331 0.78185 0.0
C3211 C 0.3543 0.60479 0.75012 0.0
C3212 C 0.3489 0.59209 0.73197 0.0
C3213 C 0.36324 0.6287 0.7841 0.0
C3214 C 0.35111 0.63202 0.76932 0.0
C3215 C 0.347 0.62024 0.75239 0.0
C3216 C 0.3425 0.64762 0.77159 0.0
C3217 C 0.36858 0.64138 0.80229 0.0
C3218 C 0.32916 0.64757 0.78358 0.0
C3219 C 0.32286 0.66323 0.78796 0.0
C3220 C 0.32989 0.67913 0.78045 0.0
C3221 C 0.34263 0.67895 0.7678 0.0
C3222 C 0.34882 0.66322 0.76328 0.0
H3223 H 0.38045 0.63867 0.81095 0.0
H3224 H 0.37188 0.65569 0.79945 0.0
H3225 H 0.35702 0.63971 0.81059 0.0
H3226 H 0.32417 0.63563 0.79012 0.0
H3227 H 0.31315 0.6632 0.79788 0.0
H3228 H 0.22289 0.58028 0.50936 0.0
H3229 H 0.19151 0.56599 0.49743 0.0
H3230 H 0.17887 0.56529 0.55432 0.0
H3231 H 0.21001 0.58151 0.56621 0.0
H3232 H 0.1635 0.54128 0.49682 0.0
H3233 H 0.15347 0.60269 0.53803 0.0
H3234 H 0.17566 0.59846 0.5364 0.0
H3235 H 0.16222 0.5888 0.55355 0.0
C3236 C 0.21363 0.57619 0.51934 0.0
C3237 C 0.21847 0.58234 0.53859 0.0
C3238 C 0.19564 0.56818 0.51249 0.0
C3239 C 0.18279 0.56564 0.52503 0.0
C3240 C 0.18856 0.56809 0.54447 0.0
H3241 H 0.07736 0.51411 0.51648 0.0
H3242 H 0.10869 0.52344 0.51117 0.0
C3243 C 0.20637 0.57693 0.55129 0.0
C3244 C 0.16353 0.56347 0.51798 0.0
H3245 H 0.12654 0.57966 0.52656 0.0
C3246 C 0.15544 0.5498 0.50315 0.0
C3247 C 0.15332 0.57547 0.52527 0.0
C3248 C 0.1617 0.59232 0.53898 0.0
C3249 C 0.13694 0.54666 0.49674 0.0
C3250 C 0.12631 0.5568 0.50613 0.0
C3251 C 0.13468 0.5716 0.51964 0.0
C3252 C 0.10664 0.55027 0.50498 0.0
C3253 C 0.12887 0.53223 0.48036 0.0
C3254 C 0.09516 0.56233 0.50347 0.0
C3255 C 0.07738 0.55719 0.50717 0.0
C3256 C 0.07089 0.53986 0.51206 0.0
C3257 C 0.08207 0.5275 0.51255 0.0
C3258 C 0.09988 0.53272 0.50919 0.0
H3259 H 0.13854 0.53199 0.46991 0.0
H3260 H 0.12622 0.51877 0.48543 0.0
H3261 H 0.11597 0.53441 0.47325 0.0
H3262 H 0.10027 0.57605 0.50059 0.0
H3263 H 0.06909 0.56711 0.50726 0.0
H3264 H 0.71865 0.9976 0.78132 0.0
H3265 H 0.72783 0.96874 0.77736 0.0
H3266 H 0.70182 0.95816 0.71991 0.0
H3267 H 0.69262 0.98701 0.72363 0.0
H3268 H 0.6912 0.93088 0.7479 0.0
H3269 H 0.76469 0.95178 0.74178 0.0
H3270 H 0.75625 0.96581 0.75869 0.0
H3271 H 0.74845 0.96463 0.73411 0.0
C3272 C 0.71518 0.9893 0.76776 0.0
C3273 C 0.70482 0.9944 0.75284 0.0
C3274 C 0.72043 0.97291 0.76551 0.0
C3275 C 0.71548 0.96159 0.74833 0.0
C3276 C 0.70571 0.96688 0.73321 0.0
H3277 H 0.76159 0.86824 0.75667 0.0
H3278 H 0.7457 0.88705 0.73878 0.0
C3279 C 0.70046 0.98328 0.73542 0.0
C3280 C 0.71918 0.94354 0.74696 0.0
H3281 H 0.75434 0.92283 0.75166 0.0
C3282 C 0.7049 0.92887 0.74816 0.0
C3283 C 0.737 0.94117 0.74707 0.0
C3284 C 0.75252 0.95664 0.7452 0.0
C3285 C 0.70832 0.91201 0.7512 0.0
C3286 C 0.72642 0.91009 0.75313 0.0
C3287 C 0.74045 0.92437 0.75015 0.0
C3288 C 0.73171 0.89501 0.76165 0.0
C3289 C 0.69271 0.89679 0.75338 0.0
C3290 C 0.72857 0.89291 0.78018 0.0
C3291 C 0.73756 0.8822 0.7904 0.0
C3292 C 0.74994 0.87363 0.78226 0.0
C3293 C 0.75206 0.87469 0.76326 0.0
C3294 C 0.743 0.88536 0.75301 0.0
H3295 H 0.68004 0.89787 0.74482 0.0
H3296 H 0.69557 0.88335 0.74918 0.0
H3297 H 0.69033 0.89765 0.76832 0.0
H3298 H 0.72022 0.9006 0.78722 0.0
H3299 H 0.73549 0.88131 0.80493 0.0
H3300 H 0.76249 0.94515 0.52326 0.0
H3301 H 0.7357 0.95798 0.52266 0.0
H3302 H 0.7028 0.90584 0.52871 0.0
H3303 H 0.72964 0.89295 0.52973 0.0
H3304 H 0.70551 0.94888 0.49745 0.0
H3305 H 0.68672 0.9382 0.56828 0.0
H3306 H 0.70833 0.93576 0.56162 0.0
H3307 H 0.6884 0.91786 0.55438 0.0
C3308 C 0.7496 0.93641 0.52463 0.0
C3309 C 0.74827 0.91802 0.5266 0.0
C3310 C 0.73428 0.94379 0.52429 0.0
C3311 C 0.71726 0.93298 0.52598 0.0
C3312 C 0.71584 0.91458 0.52788 0.0
H3313 H 0.60773 0.94582 0.50736 0.0
H3314 H 0.63559 0.93621 0.51704 0.0
C3315 C 0.73119 0.90719 0.52829 0.0
C3316 C 0.70094 0.94081 0.52458 0.0
H3317 H 0.66521 0.94756 0.54715 0.0
C3318 C 0.69683 0.94877 0.50842 0.0
C3319 C 0.68952 0.94055 0.53885 0.0
C3320 C 0.69352 0.93278 0.55684 0.0
C3321 C 0.6815 0.95617 0.50596 0.0
C3322 C 0.67008 0.9559 0.5202 0.0
C3323 C 0.67412 0.94794 0.53637 0.0
C3324 C 0.65319 0.96266 0.51773 0.0
C3325 C 0.67731 0.96368 0.48783 0.0
C3326 C 0.65376 0.98095 0.51581 0.0
C3327 C 0.6378 0.9865 0.51022 0.0
C3328 C 0.62109 0.9738 0.50645 0.0
C3329 C 0.62046 0.95584 0.50991 0.0
C3330 C 0.63635 0.95034 0.5155 0.0
H3331 H 0.68535 0.9596 0.47686 0.0
H3332 H 0.66268 0.95903 0.48228 0.0
H3333 H 0.68057 0.97869 0.49052 0.0
H3334 H 0.66663 0.99074 0.51778 0.0
H3335 H 0.6387 1.00041 0.50769 0.0
H3336 H 0.37546 0.47526 0.76913 0.0
H3337 H 0.35311 0.44759 0.77246 0.0
H3338 H 0.37253 0.41825 0.72766 0.0
H3339 H 0.39499 0.44555 0.7246 0.0
H3340 H 0.32531 0.42044 0.74661 0.0
H3341 H 0.38368 0.39392 0.77521 0.0
H3342 H 0.38557 0.41754 0.77262 0.0
H3343 H 0.3857 0.40146 0.7526 0.0
C3344 C 0.37451 0.46303 0.75964 0.0
C3345 C 0.38699 0.4624 0.74674 0.0
C3346 C 0.36186 0.44726 0.76161 0.0
C3347 C 0.36153 0.43087 0.75058 0.0
C3348 C 0.37285 0.43072 0.73653 0.0
H3349 H 0.31727 0.31757 0.74153 0.0
H3350 H 0.3327 0.3486 0.73897 0.0
C3351 C 0.38558 0.44631 0.73473 0.0
C3352 C 0.35075 0.41354 0.75474 0.0
H3353 H 0.35528 0.37274 0.76767 0.0
C3354 C 0.33178 0.41004 0.75141 0.0
C3355 C 0.35934 0.40013 0.76114 0.0
C3356 C 0.37969 0.40346 0.76579 0.0
C3357 C 0.32113 0.39303 0.75343 0.0
C3358 C 0.32978 0.37943 0.75919 0.0
C3359 C 0.34873 0.3832 0.76313 0.0
C3360 C 0.3196 0.36086 0.76035 0.0
C3361 C 0.3008 0.38949 0.74869 0.0
C3362 C 0.30715 0.35753 0.77327 0.0
C3363 C 0.29824 0.33977 0.77471 0.0
C3364 C 0.30179 0.32516 0.76335 0.0
C3365 C 0.31426 0.32859 0.75045 0.0
C3366 C 0.32307 0.34628 0.74896 0.0
H3367 H 0.29659 0.39997 0.74071 0.0
H3368 H 0.29534 0.37599 0.74029 0.0
H3369 H 0.29458 0.38959 0.7619 0.0
H3370 H 0.30463 0.3686 0.78248 0.0
H3371 H 0.28896 0.33746 0.78504 0.0
H3372 H 0.20407 0.58894 0.22168 0.0
H3373 H 0.2207 0.62051 0.22597 0.0
H3374 H 0.24001 0.61579 0.28329 0.0
H3375 H 0.2234 0.58414 0.27899 0.0
H3376 H 0.20486 0.63664 0.26136 0.0
H3377 H 0.27943 0.65623 0.25934 0.0
H3378 H 0.26502 0.63689 0.24435 0.0
H3379 H 0.27007 0.63584 0.26898 0.0
C3380 C 0.21297 0.59432 0.23472 0.0
C3381 C 0.21248 0.58451 0.25012 0.0
C3382 C 0.22234 0.6123 0.23717 0.0
C3383 C 0.23123 0.62026 0.25498 0.0
C3384 C 0.23323 0.60962 0.26944 0.0
H3385 H 0.27138 0.73098 0.29644 0.0
H3386 H 0.25732 0.6996 0.29906 0.0
C3387 C 0.22389 0.59157 0.26695 0.0
C3388 C 0.2335 0.63969 0.25992 0.0
H3389 H 0.26486 0.67939 0.26854 0.0
C3390 C 0.21795 0.6461 0.26305 0.0
C3391 C 0.25058 0.65159 0.2621 0.0
C3392 C 0.26731 0.64493 0.25849 0.0
C3393 C 0.21914 0.66449 0.26835 0.0
C3394 C 0.23626 0.67649 0.27042 0.0
C3395 C 0.25179 0.66997 0.26736 0.0
C3396 C 0.23848 0.69613 0.27355 0.0
C3397 C 0.20216 0.67093 0.27155 0.0
C3398 C 0.23144 0.70471 0.25912 0.0
C3399 C 0.23916 0.72272 0.25791 0.0
C3400 C 0.25384 0.73206 0.27112 0.0
C3401 C 0.25955 0.7241 0.2866 0.0
C3402 C 0.25165 0.70619 0.288 0.0
H3403 H 0.19151 0.65989 0.27517 0.0
H3404 H 0.20504 0.68252 0.28295 0.0
H3405 H 0.19668 0.67549 0.25845 0.0
H3406 H 0.22155 0.69702 0.24764 0.0
H3407 H 0.23493 0.72877 0.24571 0.0
H3408 H 0.49322 0.71266 0.48903 0.0
H3409 H 0.49932 0.68437 0.49854 0.0
H3410 H 0.51892 0.67322 0.44572 0.0
H3411 H 0.51382 0.70205 0.43669 0.0
H3412 H 0.48694 0.65096 0.488 0.0
H3413 H 0.5589 0.66166 0.47691 0.0
H3414 H 0.5467 0.6794 0.47554 0.0
H3415 H 0.54471 0.66234 0.45566 0.0
C3416 C 0.49909 0.70434 0.4795 0.0
C3417 C 0.50322 0.70999 0.46212 0.0
C3418 C 0.50253 0.68797 0.48495 0.0
C3419 C 0.51005 0.67641 0.47318 0.0
C3420 C 0.51384 0.6819 0.45561 0.0
H3421 H 0.5126 0.56178 0.47755 0.0
H3422 H 0.50816 0.59104 0.46913 0.0
C3423 C 0.51075 0.69848 0.45032 0.0
C3424 C 0.51335 0.65857 0.47912 0.0
H3425 H 0.54448 0.63177 0.4818 0.0
C3426 C 0.49962 0.64697 0.48667 0.0
C3427 C 0.52991 0.65294 0.47776 0.0
C3428 C 0.54595 0.66482 0.47122 0.0
C3429 C 0.50181 0.63018 0.49237 0.0
C3430 C 0.51808 0.62443 0.49045 0.0
C3431 C 0.5319 0.63598 0.48316 0.0
C3432 C 0.52085 0.60642 0.49582 0.0
C3433 C 0.48668 0.61855 0.5005 0.0
C3434 C 0.52937 0.60498 0.51376 0.0
C3435 C 0.53168 0.58807 0.51878 0.0
C3436 C 0.5258 0.57205 0.50594 0.0
C3437 C 0.51732 0.57362 0.48796 0.0
C3438 C 0.51482 0.59047 0.48303 0.0
H3439 H 0.47507 0.62507 0.50181 0.0
H3440 H 0.48178 0.60534 0.49142 0.0
H3441 H 0.49184 0.6157 0.51461 0.0
H3442 H 0.53409 0.61696 0.52401 0.0
H3443 H 0.53782 0.58755 0.53286 0.0
H3444 H 0.62753 0.29984 0.62309 0.0
H3445 H 0.65229 0.29858 0.64707 0.0
H3446 H 0.61376 0.28056 0.68453 0.0
H3447 H 0.58872 0.28176 0.66046 0.0
H3448 H 0.66231 0.31626 0.68492 0.0
H3449 H 0.64402 0.24132 0.68235 0.0
H3450 H 0.63489 0.25288 0.66426 0.0
H3451 H 0.62642 0.25306 0.68653 0.0
C3452 C 0.62422 0.2957 0.63645 0.0
C3453 C 0.60599 0.29084 0.63971 0.0
C3454 C 0.63848 0.295 0.6502 0.0
C3455 C 0.63501 0.28921 0.66758 0.0
C3456 C 0.61686 0.28479 0.67114 0.0
H3457 H 0.71016 0.26386 0.7574 0.0
H3458 H 0.68331 0.26778 0.73789 0.0
C3459 C 0.60253 0.28563 0.65739 0.0
C3460 C 0.65046 0.28768 0.68169 0.0
H3461 H 0.6696 0.25705 0.7034 0.0
C3462 C 0.66386 0.30332 0.68902 0.0
C3463 C 0.65253 0.27084 0.68721 0.0
C3464 C 0.63881 0.2535 0.67963 0.0
C3465 C 0.67912 0.30262 0.70167 0.0
C3466 C 0.68158 0.28566 0.70672 0.0
C3467 C 0.66796 0.27007 0.6996 0.0
C3468 C 0.69818 0.28374 0.71907 0.0
C3469 C 0.69219 0.32022 0.70981 0.0
C3470 C 0.71574 0.2912 0.71515 0.0
C3471 C 0.73119 0.28943 0.72668 0.0
C3472 C 0.72965 0.27964 0.74222 0.0
C3473 C 0.71206 0.2718 0.74587 0.0
C3474 C 0.69659 0.27389 0.73453 0.0
H3475 H 0.68537 0.33174 0.71007 0.0
H3476 H 0.69836 0.31967 0.72435 0.0
H3477 H 0.70317 0.32307 0.70087 0.0
H3478 H 0.71758 0.29832 0.70302 0.0
H3479 H 0.74439 0.29574 0.7233 0.0
H3480 H 0.99533 0.31031 0.99162 0.0
H3481 H 0.9989 0.34294 0.00044 0.0
H3482 H 0.02081 0.35333 0.94903 0.0
H3483 H 0.0175 0.32064 0.9402 0.0
H3484 H 0.03086 0.37343 0.00446 0.0
H3485 H 0.97663 0.37833 0.94848 0.0
H3486 H 0.97887 0.35702 0.95626 0.0
H3487 H 0.99392 0.36746 0.941 0.0
C3488 C 1.00115 0.31951 0.98226 0.0
C3489 C 0.00616 0.31266 0.96517 0.0
C3490 C 1.00316 0.33825 0.98734 0.0
C3491 C 0.00991 0.35076 0.97536 0.0
C3492 C 0.01537 0.34405 0.9585 0.0
H3493 H 0.02478 0.46826 0.97743 0.0
H3494 H 0.02287 0.43582 0.96973 0.0
C3495 C 0.01362 0.32529 0.95352 0.0
C3496 C 0.01079 0.37069 0.98032 0.0
H3497 H 0.99269 0.40568 0.96673 0.0
C3498 C 0.02246 0.38044 0.99622 0.0
C3499 C 0.99986 0.38001 0.96969 0.0
C3500 C 0.98648 0.37023 0.95297 0.0
C3501 C 0.02374 0.39915 0.00149 0.0
C3502 C 0.01278 0.40846 0.99086 0.0
C3503 C 1.0011 0.39869 0.97497 0.0
C3504 C 0.01356 0.42838 0.99572 0.0
C3505 C 0.03721 0.40896 0.01812 0.0
C3506 C 0.00869 0.43528 0.01284 0.0
C3507 C 0.00964 0.45396 0.01727 0.0
C3508 C 0.01557 0.46632 0.00474 0.0
C3509 C 0.02023 0.45931 0.98754 0.0
C3510 C 0.01911 0.44066 0.98306 0.0
H3511 H 0.04729 0.401 0.02231 0.0
H3512 H 0.04455 0.42231 0.01493 0.0
H3513 H 0.02989 0.4114 0.03027 0.0
H3514 H 0.00408 0.42618 0.0228 0.0
H3515 H 0.00594 0.45874 0.03063 0.0
H3516 H 0.01059 0.76447 0.14859 0.0
H3517 H 0.98542 0.75948 0.16755 0.0
H3518 H 0.97198 0.80917 0.15385 0.0
H3519 H 0.99696 0.8143 0.13505 0.0
H3520 H 0.97796 0.78432 0.19948 0.0
H3521 H 0.9241 0.76894 0.13785 0.0
H3522 H 0.94715 0.76728 0.13592 0.0
H3523 H 0.94159 0.78906 0.1383 0.0
C3524 C 1.0023 0.77435 0.14963 0.0
C3525 C 0.00583 0.78976 0.14017 0.0
C3526 C 0.98794 0.7715 0.16053 0.0
C3527 C 0.97668 0.78387 0.16201 0.0
C3528 C 0.98033 0.79933 0.15278 0.0
H3529 H 0.87646 0.78557 0.2108 0.0
H3530 H 0.90463 0.79416 0.19677 0.0
C3531 C 0.9947 0.80225 0.14204 0.0
C3532 C 0.96094 0.78061 0.17291 0.0
H3533 H 0.91459 0.77178 0.16786 0.0
C3534 C 0.9641 0.7815 0.19258 0.0
C3535 C 0.94284 0.77706 0.16394 0.0
C3536 C 0.93859 0.77537 0.14283 0.0
C3537 C 0.94966 0.77916 0.20348 0.0
C3538 C 0.93155 0.77551 0.19448 0.0
C3539 C 0.92844 0.77469 0.17482 0.0
C3540 C 0.91556 0.77168 0.20499 0.0
C3541 C 0.95391 0.78095 0.22459 0.0
C3542 C 0.91237 0.75636 0.21452 0.0
C3543 C 0.89628 0.75142 0.2224 0.0
C3544 C 0.88307 0.76178 0.2211 0.0
C3545 C 0.88655 0.77753 0.21227 0.0
C3546 C 0.90258 0.78235 0.20415 0.0
H3547 H 0.96808 0.78852 0.22957 0.0
H3548 H 0.94454 0.78797 0.23154 0.0
H3549 H 0.95223 0.76724 0.22905 0.0
H3550 H 0.92196 0.74771 0.21512 0.0
H3551 H 0.89383 0.7391 0.22894 0.0
H3552 H 0.53208 0.30708 0.16185 0.0
H3553 H 0.53638 0.33502 0.14715 0.0
H3554 H 0.49735 0.30767 0.09971 0.0
H3555 H 0.49267 0.27987 0.11447 0.0
H3556 H 0.54871 0.3421 0.11472 0.0
H3557 H 0.47877 0.35265 0.11093 0.0
H3558 H 0.48635 0.33655 0.12472 0.0
H3559 H 0.47969 0.33079 0.09975 0.0
C3560 C 0.52431 0.30701 0.14834 0.0
C3561 C 0.51194 0.29117 0.13943 0.0
C3562 C 0.52678 0.32304 0.13994 0.0
C3563 C 0.51692 0.32366 0.12245 0.0
C3564 C 0.50475 0.30779 0.11343 0.0
H3565 H 0.52656 0.40169 0.04146 0.0
H3566 H 0.51632 0.37571 0.05844 0.0
C3567 C 0.5022 0.2918 0.12185 0.0
C3568 C 0.52005 0.34062 0.11326 0.0
H3569 H 0.49875 0.37084 0.09336 0.0
C3570 C 0.53778 0.34843 0.11023 0.0
C3571 C 0.50581 0.34897 0.10728 0.0
C3572 C 0.48662 0.34193 0.11099 0.0
C3573 C 0.54161 0.36401 0.10112 0.0
C3574 C 0.52739 0.37225 0.095 0.0
C3575 C 0.50964 0.36452 0.09801 0.0
C3576 C 0.53098 0.38885 0.08539 0.0
C3577 C 0.56086 0.37135 0.09773 0.0
C3578 C 0.54201 0.4051 0.09501 0.0
C3579 C 0.54793 0.41982 0.08533 0.0
C3580 C 0.54271 0.41868 0.06588 0.0
C3581 C 0.53067 0.40291 0.05647 0.0
C3582 C 0.52485 0.38809 0.06616 0.0
H3583 H 0.56947 0.36145 0.09974 0.0
H3584 H 0.5612 0.37509 0.08327 0.0
H3585 H 0.56688 0.38375 0.10778 0.0
H3586 H 0.54669 0.40611 0.10989 0.0
H3587 H 0.55717 0.43186 0.09288 0.0
H3588 H 0.99137 0.31188 0.31603 0.0
H3589 H 0.9603 0.31076 0.30109 0.0
H3590 H 0.94017 0.26325 0.32689 0.0
H3591 H 0.97082 0.26435 0.34172 0.0
H3592 H 0.92994 0.28024 0.27763 0.0
H3593 H 0.91444 0.30344 0.34822 0.0
H3594 H 0.93736 0.30624 0.34267 0.0
H3595 H 0.92506 0.28451 0.34705 0.0
C3596 C 0.98042 0.30082 0.3179 0.0
C3597 C 0.98368 0.28811 0.32997 0.0
C3598 C 0.96259 0.30028 0.30952 0.0
C3599 C 0.94772 0.28707 0.31309 0.0
C3600 C 0.95125 0.27371 0.32405 0.0
H3601 H 0.83025 0.26671 0.3047 0.0
H3602 H 0.86263 0.26847 0.31199 0.0
C3603 C 0.96889 0.27427 0.33241 0.0
C3604 C 0.92841 0.28777 0.30682 0.0
H3605 H 0.88963 0.29363 0.32414 0.0
C3606 C 0.92113 0.28332 0.28775 0.0
C3607 C 0.91678 0.29166 0.31997 0.0
C3608 C 0.92376 0.29688 0.34062 0.0
C3609 C 0.90251 0.28195 0.28161 0.0
C3610 C 0.89076 0.2857 0.29483 0.0
C3611 C 0.8983 0.2906 0.31386 0.0
C3612 C 0.87062 0.28412 0.2896 0.0
C3613 C 0.89558 0.27565 0.26109 0.0
C3614 C 0.86376 0.29224 0.27454 0.0
C3615 C 0.84497 0.29047 0.26981 0.0
C3616 C 0.83238 0.28126 0.28048 0.0
C3617 C 0.8393 0.27362 0.29587 0.0
C3618 C 0.85801 0.27485 0.30022 0.0
H3619 H 0.90454 0.26791 0.25435 0.0
H3620 H 0.88167 0.26694 0.25919 0.0
H3621 H 0.89536 0.28763 0.2536 0.0
H3622 H 0.8729 0.30007 0.26639 0.0
H3623 H 0.84039 0.29628 0.25769 0.0
H3624 H 0.02485 0.68286 0.66659 0.0
H3625 H 0.02578 0.65841 0.6426 0.0
H3626 H 0.99936 0.68417 0.60071 0.0
H3627 H 0.99936 0.7095 0.62484 0.0
H3628 H 1.00044 0.63439 0.62345 0.0
H3629 H 0.03713 0.67159 0.57182 0.0
H3630 H 0.03534 0.68248 0.5947 0.0
H3631 H 0.01677 0.67869 0.57596 0.0
C3632 C 0.01932 0.68346 0.65225 0.0
C3633 C 0.01193 0.69816 0.6477 0.0
C3634 C 0.01986 0.66938 0.63846 0.0
C3635 C 0.01277 0.66928 0.61963 0.0
C3636 C 0.00537 0.68399 0.61496 0.0
H3637 H 0.99422 0.57784 0.5286 0.0
H3638 H 0.99223 0.60555 0.54828 0.0
C3639 C 0.00521 0.69843 0.62881 0.0
C3640 C 0.01251 0.65323 0.60552 0.0
H3641 H 0.02512 0.64005 0.56297 0.0
C3642 C 0.0059 0.63576 0.61027 0.0
C3643 C 0.01956 0.65475 0.58816 0.0
C3644 C 0.02777 0.67287 0.58241 0.0
C3645 C 0.00639 0.62001 0.59849 0.0
C3646 C 0.01344 0.62157 0.58127 0.0
C3647 C 0.01965 0.6389 0.57617 0.0
C3648 C 0.01502 0.60525 0.56884 0.0
C3649 C 0.99948 0.60171 0.60457 0.0
C3650 C 0.02855 0.59595 0.57376 0.0
C3651 C 0.02973 0.58023 0.5625 0.0
C3652 C 0.01734 0.57339 0.54618 0.0
C3653 C 0.00395 0.58283 0.5411 0.0
C3654 C 1.0028 0.59863 0.55233 0.0
H3655 H 0.9923 0.60265 0.61712 0.0
H3656 H 0.99013 0.59261 0.59293 0.0
H3657 H 0.01108 0.59541 0.60805 0.0
H3658 H 0.03823 0.6009 0.58632 0.0
H3659 H 0.0406 0.57365 0.56636 0.0
H3660 H 0.6024 0.82849 0.81722 0.0
H3661 H 0.62928 0.82106 0.80574 0.0
H3662 H 0.61578 0.76855 0.82457 0.0
H3663 H 0.5884 0.77576 0.83555 0.0
H3664 H 0.65875 0.81512 0.82243 0.0
H3665 H 0.62747 0.75217 0.77451 0.0
H3666 H 0.61408 0.7666 0.78458 0.0
H3667 H 0.6224 0.75072 0.79807 0.0
C3668 C 0.60493 0.81522 0.81875 0.0
C3669 C 0.59289 0.80274 0.8273 0.0
C3670 C 0.62051 0.81097 0.81217 0.0
C3671 C 0.62483 0.79406 0.81387 0.0
C3672 C 0.6128 0.78151 0.82241 0.0
H3673 H 0.72002 0.74985 0.79043 0.0
H3674 H 0.69115 0.75491 0.79959 0.0
C3675 C 0.59705 0.78571 0.82885 0.0
C3676 C 0.64223 0.79014 0.80746 0.0
H3677 H 0.65964 0.75937 0.78099 0.0
C3678 C 0.65879 0.80294 0.81326 0.0
C3679 C 0.64277 0.77426 0.79549 0.0
C3680 C 0.62572 0.76023 0.78763 0.0
C3681 C 0.67549 0.80028 0.80783 0.0
C3682 C 0.67601 0.78443 0.79586 0.0
C3683 C 0.65951 0.77156 0.79013 0.0
C3684 C 0.69344 0.78092 0.78932 0.0
C3685 C 0.69255 0.81439 0.81549 0.0
C3686 C 0.70454 0.79349 0.77997 0.0
C3687 C 0.721 0.79042 0.77447 0.0
C3688 C 0.72685 0.7746 0.77795 0.0
C3689 C 0.71574 0.76194 0.78708 0.0
C3690 C 0.69922 0.76494 0.79248 0.0
H3691 H 0.69084 0.82264 0.82851 0.0
H3692 H 0.7042 0.80806 0.81865 0.0
H3693 H 0.69587 0.82371 0.80488 0.0
H3694 H 0.70048 0.80577 0.77688 0.0
H3695 H 0.72928 0.80054 0.76762 0.0
H3696 H 0.44963 0.5441 0.70763 0.0
H3697 H 0.46083 0.55159 0.67793 0.0
H3698 H 0.47148 0.49836 0.66772 0.0
H3699 H 0.4607 0.49087 0.69713 0.0
H3700 H 0.50047 0.54283 0.66749 0.0
H3701 H 0.43646 0.51245 0.6195 0.0
H3702 H 0.43661 0.52213 0.6435 0.0
H3703 H 0.44219 0.50055 0.63882 0.0
C3704 C 0.45434 0.53404 0.69901 0.0
C3705 C 0.45442 0.51697 0.70478 0.0
C3706 C 0.46072 0.53832 0.68212 0.0
C3707 C 0.4669 0.52547 0.67075 0.0
C3708 C 0.46675 0.50841 0.67637 0.0
H3709 H 0.52965 0.51316 0.582 0.0
H3710 H 0.51679 0.51536 0.61153 0.0
C3711 C 0.46065 0.50422 0.69323 0.0
C3712 C 0.47399 0.5296 0.65309 0.0
H3713 H 0.46347 0.51917 0.60553 0.0
C3714 C 0.49235 0.53802 0.65389 0.0
C3715 C 0.46331 0.52321 0.6355 0.0
C3716 C 0.44349 0.51414 0.63411 0.0
C3717 C 0.50054 0.5396 0.63744 0.0
C3718 C 0.49006 0.53233 0.61983 0.0
C3719 C 0.47148 0.52467 0.61904 0.0
C3720 C 0.49828 0.53162 0.60217 0.0
C3721 C 0.52036 0.54875 0.63909 0.0
C3722 C 0.49175 0.53956 0.58692 0.0
C3723 C 0.49888 0.53808 0.56993 0.0
C3724 C 0.51269 0.52867 0.56795 0.0
C3725 C 0.51918 0.52071 0.58322 0.0
C3726 C 0.51194 0.52205 0.60013 0.0
H3727 H 0.52487 0.55818 0.65237 0.0
H3728 H 0.52853 0.53831 0.63918 0.0
H3729 H 0.52323 0.55641 0.62705 0.0
H3730 H 0.48111 0.54687 0.58817 0.0
H3731 H 0.49366 0.54439 0.5584 0.0
H3732 H 0.78951 0.14219 0.98644 0.0
H3733 H 0.79165 0.16047 0.96026 0.0
H3734 H 0.74855 0.18423 0.97769 0.0
H3735 H 0.74616 0.16603 0.00361 0.0
H3736 H 0.75898 0.1598 0.93202 0.0
H3737 H 0.79195 0.22764 0.97064 0.0
H3738 H 0.79446 0.20674 0.97933 0.0
H3739 H 0.77415 0.21475 0.9815 0.0
C3740 C 0.78061 0.15143 0.98473 0.0
C3741 C 0.7677 0.15278 0.99701 0.0
C3742 C 0.78188 0.16183 0.96987 0.0
C3743 C 0.77048 0.17384 0.96741 0.0
C3744 C 0.75768 0.17524 0.97969 0.0
H3745 H 0.72807 0.24116 0.89945 0.0
H3746 H 0.74115 0.22645 0.92433 0.0
C3747 C 0.75626 0.16476 0.99437 0.0
C3748 C 0.77067 0.184 0.95121 0.0
H3749 H 0.77532 0.22703 0.94027 0.0
C3750 C 0.76292 0.17448 0.93359 0.0
C3751 C 0.77583 0.20308 0.95357 0.0
C3752 C 0.78472 0.2137 0.97225 0.0
C3753 C 0.75879 0.18367 0.91845 0.0
C3754 C 0.76308 0.20288 0.92104 0.0
C3755 C 0.77196 0.21234 0.9384 0.0
C3756 C 0.75688 0.21326 0.90648 0.0
C3757 C 0.74873 0.17269 0.90032 0.0
C3758 C 0.76175 0.21102 0.88839 0.0
C3759 C 0.75371 0.2187 0.87401 0.0
C3760 C 0.74122 0.2295 0.87758 0.0
C3761 C 0.73726 0.23262 0.89605 0.0
C3762 C 0.74495 0.22446 0.91035 0.0
H3763 H 0.74282 0.15845 0.90221 0.0
H3764 H 0.73761 0.17875 0.89456 0.0
H3765 H 0.75827 0.17241 0.88977 0.0
H3766 H 0.77126 0.20278 0.88523 0.0
H3767 H 0.75694 0.21562 0.85997 0.0
H3768 H 0.12256 0.55834 0.20515 0.0
H3769 H 0.10955 0.55204 0.17215 0.0
H3770 H 0.13373 0.5059 0.16508 0.0
H3771 H 0.14691 0.51204 0.19823 0.0
H3772 H 0.12717 0.54563 0.13657 0.0
H3773 H 0.07601 0.48821 0.15532 0.0
H3774 H 0.0894 0.50589 0.17295 0.0
H3775 H 0.09973 0.48923 0.16196 0.0
C3776 C 0.12505 0.54679 0.19664 0.0
C3777 C 0.13537 0.53541 0.2043 0.0
C3778 C 0.1179 0.54344 0.17778 0.0
C3779 C 0.12086 0.52861 0.16645 0.0
C3780 C 0.1315 0.51745 0.17381 0.0
H3781 H 0.05467 0.49138 0.05804 0.0
H3782 H 0.07654 0.49241 0.08577 0.0
C3783 C 0.13877 0.52085 0.1927 0.0
C3784 C 0.11063 0.52361 0.14774 0.0
H3785 H 0.07067 0.49714 0.12555 0.0
C3786 C 0.11502 0.5348 0.1339 0.0
C3787 C 0.09484 0.50951 0.14463 0.0
C3788 C 0.08956 0.4975 0.15946 0.0
C3789 C 0.10336 0.5327 0.1171 0.0
C3790 C 0.08705 0.51931 0.11457 0.0
C3791 C 0.08324 0.50744 0.12788 0.0
C3792 C 0.07318 0.51815 0.09873 0.0
C3793 C 0.10816 0.5451 0.10247 0.0
C3794 C 0.06363 0.5319 0.09767 0.0
C3795 C 0.05102 0.53126 0.08206 0.0
C3796 C 0.04814 0.51693 0.06747 0.0
C3797 C 0.05693 0.50264 0.06915 0.0
C3798 C 0.0694 0.50322 0.08481 0.0
H3799 H 0.12284 0.55172 0.10458 0.0
H3800 H 0.1045 0.5375 0.08809 0.0
H3801 H 0.10038 0.55585 0.10341 0.0
H3802 H 0.0663 0.5433 0.10867 0.0
H3803 H 0.04438 0.54242 0.08089 0.0
H3804 H 0.77085 0.86688 0.46709 0.0
H3805 H 0.76688 0.85496 0.43353 0.0
H3806 H 0.78978 0.8101 0.44741 0.0
H3807 H 0.79381 0.82183 0.48068 0.0
H3808 H 0.79741 0.84908 0.4143 0.0
H3809 H 0.74362 0.78625 0.40975 0.0
H3810 H 0.74699 0.80471 0.42857 0.0
H3811 H 0.76165 0.78911 0.42883 0.0
C3812 C 0.77465 0.85427 0.46297 0.0
C3813 C 0.78268 0.84531 0.47649 0.0
C3814 C 0.77246 0.84753 0.44384 0.0
C3815 C 0.77793 0.83159 0.43804 0.0
C3816 C 0.78524 0.82228 0.45159 0.0
H3817 H 0.79122 0.77092 0.33428 0.0
H3818 H 0.79117 0.78284 0.36711 0.0
C3819 C 0.78761 0.82907 0.4706 0.0
C3820 C 0.77755 0.82536 0.41786 0.0
H3821 H 0.76046 0.78932 0.38386 0.0
C3822 C 0.78916 0.83613 0.40753 0.0
C3823 C 0.76698 0.80834 0.40923 0.0
C3824 C 0.75398 0.79646 0.41959 0.0
C3825 C 0.79081 0.83012 0.38888 0.0
C3826 C 0.78029 0.81306 0.38026 0.0
C3827 C 0.76855 0.80236 0.39054 0.0
C3828 C 0.78102 0.80622 0.36046 0.0
C3829 C 0.80421 0.84181 0.37873 0.0
C3830 C 0.77537 0.81543 0.34589 0.0
C3831 C 0.77562 0.80881 0.32719 0.0
C3832 C 0.78131 0.79269 0.32264 0.0
C3833 C 0.78696 0.78346 0.33728 0.0
C3834 C 0.78682 0.79018 0.35604 0.0
H3835 H 0.81428 0.85223 0.38863 0.0
H3836 H 0.81157 0.83343 0.37036 0.0
H3837 H 0.79681 0.84889 0.36892 0.0
H3838 H 0.77057 0.82767 0.34899 0.0
H3839 H 0.77132 0.81634 0.31629 0.0
H3840 H 0.47628 0.4976 0.80518 0.0
H3841 H 0.48808 0.50203 0.83839 0.0
H3842 H 0.45608 0.54143 0.84897 0.0
H3843 H 0.44378 0.53681 0.81542 0.0
H3844 H 0.50731 0.53274 0.86199 0.0
H3845 H 0.44098 0.50498 0.88571 0.0
H3846 H 0.44441 0.5023 0.86131 0.0
H3847 H 0.44179 0.52366 0.87227 0.0
C3848 C 0.47175 0.50731 0.81446 0.0
C3849 C 0.45896 0.51677 0.80759 0.0
C3850 C 0.47857 0.50983 0.8335 0.0
C3851 C 0.47279 0.52184 0.84623 0.0
C3852 C 0.46048 0.53183 0.83943 0.0
H3853 H 0.49552 0.53779 0.96841 0.0
H3854 H 0.48545 0.54001 0.93575 0.0
C3855 C 0.45358 0.52929 0.82024 0.0
C3856 C 0.47959 0.5234 0.86657 0.0
H3857 H 0.46645 0.51385 0.90891 0.0
C3858 C 0.49838 0.52872 0.8723 0.0
C3859 C 0.46791 0.51813 0.87998 0.0
C3860 C 0.44766 0.51181 0.87458 0.0
C3861 C 0.50583 0.52882 0.89101 0.0
C3862 C 0.49421 0.52305 0.90432 0.0
C3863 C 0.47537 0.51814 0.89869 0.0
C3864 C 0.50122 0.52213 0.9242 0.0
C3865 C 0.52606 0.53531 0.89637 0.0
C3866 C 0.51355 0.51133 0.92871 0.0
C3867 C 0.51957 0.51018 0.94754 0.0
C3868 C 0.5131 0.51954 0.96217 0.0
C3869 C 0.5008 0.53035 0.95754 0.0
C3870 C 0.49496 0.53163 0.93882 0.0
H3871 H 0.53222 0.5441 0.8863 0.0
H3872 H 0.52944 0.54297 0.91071 0.0
H3873 H 0.53233 0.52342 0.89615 0.0
H3874 H 0.51829 0.50355 0.91768 0.0
H3875 H 0.529 0.50173 0.95058 0.0
H3876 H 0.78984 0.1597 0.08467 0.0
H3877 H 0.80195 0.17728 0.11551 0.0
H3878 H 0.74793 0.18161 0.12474 0.0
H3879 H 0.73576 0.16443 0.09388 0.0
H3880 H 0.79329 0.21435 0.12239 0.0
H3881 H 0.77386 0.16854 0.17554 0.0
H3882 H 0.77764 0.16041 0.15217 0.0
H3883 H 0.75667 0.16661 0.15579 0.0
C3884 C 0.78054 0.16414 0.09346 0.0
C3885 C 0.76192 0.16098 0.08696 0.0
C3886 C 0.78747 0.17406 0.11099 0.0
C3887 C 0.77574 0.18043 0.12225 0.0
C3888 C 0.75706 0.17649 0.11619 0.0
H3889 H 0.75632 0.2551 0.20248 0.0
H3890 H 0.75971 0.2364 0.17381 0.0
C3891 C 0.75018 0.1669 0.09857 0.0
C3892 C 0.7829 0.19348 0.139 0.0
H3893 H 0.77809 0.20053 0.18526 0.0
C3894 C 0.79054 0.21133 0.1363 0.0
C3895 C 0.77918 0.18928 0.15694 0.0
C3896 C 0.77152 0.17013 0.16039 0.0
C3897 C 0.79311 0.22547 0.15097 0.0
C3898 C 0.788 0.2214 0.16845 0.0
C3899 C 0.78176 0.20341 0.17158 0.0
C3900 C 0.78747 0.23563 0.1833 0.0
C3901 C 0.8001 0.24474 0.14752 0.0
C3902 C 0.80221 0.24164 0.19743 0.0
C3903 C 0.80028 0.25215 0.21361 0.0
C3904 C 0.7836 0.25664 0.21566 0.0
C3905 C 0.7693 0.25185 0.2009 0.0
C3906 C 0.77121 0.2412 0.18471 0.0
H3907 H 0.80482 0.24552 0.13352 0.0
H3908 H 0.78915 0.25223 0.14838 0.0
H3909 H 0.81148 0.25161 0.15859 0.0
H3910 H 0.81476 0.2373 0.1964 0.0
H3911 H 0.81145 0.25592 0.22499 0.0
H3912 H 0.15533 0.56678 0.3176 0.0
H3913 H 0.1381 0.5599 0.34338 0.0
H3914 H 0.12848 0.50272 0.32406 0.0
H3915 H 0.14577 0.50958 0.29788 0.0
H3916 H 0.09711 0.51661 0.32488 0.0
H3917 H 0.14235 0.53828 0.39235 0.0
H3918 H 0.14641 0.55469 0.37628 0.0
H3919 H 0.15071 0.53256 0.37053 0.0
C3920 C 0.15004 0.55271 0.31917 0.0
C3921 C 0.15155 0.5387 0.30567 0.0
C3922 C 0.14036 0.54879 0.33401 0.0
C3923 C 0.13216 0.53081 0.3356 0.0
C3924 C 0.13488 0.51666 0.32303 0.0
H3925 H 0.06871 0.53583 0.42549 0.0
H3926 H 0.08316 0.52042 0.40301 0.0
C3927 C 0.14474 0.52059 0.30817 0.0
C3928 C 0.11823 0.52752 0.34814 0.0
H3929 H 0.11122 0.54106 0.39246 0.0
C3930 C 0.10011 0.52131 0.33983 0.0
C3931 C 0.12228 0.53377 0.36752 0.0
C3932 C 0.14153 0.54004 0.37721 0.0
C3933 C 0.08583 0.52255 0.3502 0.0
C3934 C 0.08994 0.53024 0.36923 0.0
C3935 C 0.10806 0.53515 0.37782 0.0
C3936 C 0.07615 0.53511 0.38029 0.0
C3937 C 0.0666 0.51636 0.34049 0.0
C3938 C 0.06639 0.54775 0.37457 0.0
C3939 C 0.0573 0.55625 0.38731 0.0
C3940 C 0.05837 0.55263 0.40608 0.0
C3941 C 0.06708 0.53891 0.41119 0.0
C3942 C 0.07561 0.53008 0.39834 0.0
H3943 H 0.06547 0.50534 0.32877 0.0
H3944 H 0.05706 0.5115 0.35044 0.0
H3945 H 0.06245 0.52787 0.33438 0.0
H3946 H 0.06689 0.55206 0.36076 0.0
H3947 H 0.05039 0.56638 0.3827 0.0
H3948 H 0.78758 0.82119 0.56954 0.0
H3949 H 0.78215 0.80986 0.59927 0.0
H3950 H 0.76798 0.85963 0.61936 0.0
H3951 H 0.77309 0.871 0.58924 0.0
H3952 H 0.80213 0.82694 0.63322 0.0
H3953 H 0.72823 0.82049 0.63514 0.0
H3954 H 0.7383 0.8223 0.61366 0.0
H3955 H 0.7407 0.84205 0.63043 0.0
C3956 C 0.78299 0.82963 0.58015 0.0
C3957 C 0.78083 0.84702 0.57713 0.0
C3958 C 0.7799 0.82312 0.59713 0.0
C3959 C 0.77465 0.83388 0.61151 0.0
C3960 C 0.77176 0.851 0.60832 0.0
H3961 H 0.76266 0.81304 0.72706 0.0
H3962 H 0.76337 0.82663 0.69772 0.0
C3963 C 0.77469 0.85749 0.59115 0.0
C3964 C 0.77384 0.8276 0.63023 0.0
H3965 H 0.74529 0.81437 0.66211 0.0
C3966 C 0.7897 0.82422 0.63956 0.0
C3967 C 0.75766 0.82422 0.63852 0.0
C3968 C 0.74019 0.8273 0.62891 0.0
C3969 C 0.78982 0.81741 0.65688 0.0
C3970 C 0.77352 0.8135 0.66493 0.0
C3971 C 0.75774 0.8173 0.65585 0.0
C3972 C 0.77253 0.80505 0.68251 0.0
C3973 C 0.80748 0.8146 0.66643 0.0
C3974 C 0.77705 0.78823 0.68353 0.0
C3975 C 0.77688 0.78056 0.70028 0.0
C3976 C 0.7719 0.78943 0.7163 0.0
C3977 C 0.76674 0.80597 0.71504 0.0
C3978 C 0.76708 0.81372 0.69829 0.0
H3979 H 0.81934 0.8233 0.66164 0.0
H3980 H 0.80854 0.81756 0.68196 0.0
H3981 H 0.80821 0.80028 0.66284 0.0
H3982 H 0.78084 0.78107 0.67138 0.0
H3983 H 0.78079 0.76773 0.70066 0.0
H3984 H 0.74041 0.44765 0.46029 0.0
H3985 H 0.7153 0.46262 0.46464 0.0
H3986 H 0.72427 0.46054 0.52436 0.0
H3987 H 0.7491 0.44559 0.52024 0.0
H3988 H 0.68612 0.44336 0.49918 0.0
H3989 H 0.71856 0.51613 0.49827 0.0
H3990 H 0.72374 0.49845 0.48254 0.0
H3991 H 0.73172 0.50094 0.50715 0.0
C3992 C 0.73713 0.45061 0.47433 0.0
C3993 C 0.74651 0.44536 0.48991 0.0
C3994 C 0.72288 0.45913 0.47677 0.0
C3995 C 0.71815 0.46259 0.49478 0.0
C3996 C 0.72787 0.4579 0.51037 0.0
H3997 H 0.65482 0.50716 0.56345 0.0
H3998 H 0.67817 0.49932 0.54545 0.0
C3999 C 0.74195 0.44932 0.50797 0.0
C4000 C 0.70225 0.46988 0.49758 0.0
H4001 H 0.68965 0.50953 0.5085 0.0
C4002 C 0.68659 0.45777 0.50074 0.0
C4003 C 0.70332 0.48867 0.4998 0.0
C4004 C 0.7202 0.50193 0.49678 0.0
C4005 C 0.67209 0.46411 0.50702 0.0
C4006 C 0.67336 0.48298 0.50991 0.0
C4007 C 0.68875 0.49507 0.50598 0.0
C4008 C 0.65993 0.49027 0.51946 0.0
C4009 C 0.65606 0.45069 0.51175 0.0
C4010 C 0.64219 0.48813 0.51053 0.0
C4011 C 0.62889 0.49262 0.52076 0.0
C4012 C 0.63326 0.49907 0.54001 0.0
C4013 C 0.6512 0.50194 0.54867 0.0
C4014 C 0.66449 0.49765 0.53841 0.0
H4015 H 0.65822 0.43668 0.51074 0.0
H4016 H 0.65331 0.45463 0.52622 0.0
H4017 H 0.64383 0.45072 0.50189 0.0
H4018 H 0.63855 0.48241 0.49588 0.0
H4019 H 0.61509 0.49037 0.51388 0.0
H4020 H 0.20134 0.14364 0.47397 0.0
H4021 H 0.17363 0.12055 0.47445 0.0
H4022 H 0.19939 0.10139 0.5221 0.0
H4023 H 0.22738 0.12431 0.52148 0.0
H4024 H 0.17344 0.07365 0.48801 0.0
H4025 H 0.14636 0.12873 0.52366 0.0
H4026 H 0.15858 0.13355 0.50407 0.0
H4027 H 0.17036 0.12949 0.52553 0.0
C4028 C 0.20122 0.13422 0.48426 0.0
C4029 C 0.21641 0.13572 0.49772 0.0
C4030 C 0.18544 0.12107 0.4845 0.0
C4031 C 0.18454 0.10944 0.49837 0.0
C4032 C 0.19997 0.11022 0.51122 0.0
H4033 H 0.09264 0.03525 0.53066 0.0
H4034 H 0.12341 0.05139 0.52717 0.0
C4035 C 0.2159 0.12325 0.51083 0.0
C4036 C 0.16693 0.09791 0.50058 0.0
H4037 H 0.12641 0.10013 0.51555 0.0
C4038 C 0.16317 0.07933 0.49416 0.0
C4039 C 0.15366 0.10553 0.50854 0.0
C4040 C 0.15734 0.1254 0.51596 0.0
C4041 C 0.14617 0.06815 0.49522 0.0
C4042 C 0.13288 0.07584 0.50302 0.0
C4043 C 0.13673 0.09438 0.50958 0.0
C4044 C 0.11467 0.06499 0.50417 0.0
C4045 C 0.14223 0.04834 0.48756 0.0
C4046 C 0.09975 0.06745 0.49241 0.0
C4047 C 0.08228 0.05831 0.49435 0.0
C4048 C 0.07948 0.04663 0.50814 0.0
C4049 C 0.09448 0.04401 0.51977 0.0
C4050 C 0.112 0.05318 0.5178 0.0
H4051 H 0.15342 0.04481 0.48037 0.0
H4052 H 0.14013 0.04004 0.49924 0.0
H4053 H 0.12952 0.04471 0.47748 0.0
H4054 H 0.10163 0.07661 0.48188 0.0
H4055 H 0.07093 0.0605 0.48516 0.0
H4056 H 0.14983 0.97081 0.80763 0.0
H4057 H 0.16791 0.94805 0.804 0.0
H4058 H 0.19246 0.9745 0.76008 0.0
H4059 H 0.17444 0.99741 0.76359 0.0
H4060 H 0.16771 0.92477 0.76982 0.0
H4061 H 0.23607 0.96775 0.79671 0.0
H4062 H 0.21542 0.97408 0.80197 0.0
H4063 H 0.22288 0.97677 0.77944 0.0
C4064 C 0.15915 0.9719 0.79726 0.0
C4065 C 0.16068 0.98598 0.7859 0.0
C4066 C 0.16947 0.95885 0.79522 0.0
C4067 C 0.18166 0.95971 0.78194 0.0
C4068 C 0.18334 0.97378 0.77064 0.0
H4069 H 0.24998 0.89771 0.73422 0.0
H4070 H 0.23518 0.92078 0.74694 0.0
C4071 C 0.17296 0.98681 0.77261 0.0
C4072 C 0.192 0.9454 0.77927 0.0
H4073 H 0.23492 0.93838 0.78124 0.0
C4074 C 0.1824 0.92765 0.7725 0.0
C4075 C 0.21113 0.94925 0.78283 0.0
C4076 C 0.22204 0.96795 0.79079 0.0
C4077 C 0.19146 0.91378 0.76835 0.0
C4078 C 0.21066 0.91768 0.77155 0.0
C4079 C 0.22022 0.93536 0.77886 0.0
C4080 C 0.22109 0.90411 0.76571 0.0
C4081 C 0.18038 0.89531 0.75972 0.0
C4082 C 0.21873 0.88725 0.77258 0.0
C4083 C 0.22708 0.87388 0.76514 0.0
C4084 C 0.23799 0.87723 0.75078 0.0
C4085 C 0.24134 0.89458 0.74497 0.0
C4086 C 0.23296 0.90783 0.75232 0.0
H4087 H 0.16628 0.89572 0.75425 0.0
H4088 H 0.18669 0.88966 0.74801 0.0
H4089 H 0.17967 0.88595 0.77057 0.0
H4090 H 0.21001 0.88424 0.78329 0.0
H4091 H 0.22428 0.86068 0.76995 0.0
H4092 H 0.33857 0.94248 0.97274 0.0
H4093 H 0.36612 0.96667 0.97788 0.0
H4094 H 0.35997 0.97622 0.03657 0.0
H4095 H 0.33207 0.95225 0.03138 0.0
H4096 H 0.37878 0.00683 0.00164 0.0
H4097 H 0.40397 0.94809 0.02565 0.0
H4098 H 0.38313 0.94496 0.00997 0.0
H4099 H 0.38412 0.95339 0.03427 0.0
C4100 C 0.34275 0.95029 0.98654 0.0
C4101 C 0.33359 0.94559 0.00176 0.0
C4102 C 0.35831 0.96411 0.98942 0.0
C4103 C 0.36488 0.97299 0.00758 0.0
C4104 C 0.3548 0.96951 0.02245 0.0
H4105 H 0.47906 0.02734 0.03874 0.0
H4106 H 0.44669 0.01666 0.04124 0.0
C4107 C 0.33901 0.95587 0.0195 0.0
C4108 C 0.38391 0.98243 0.01148 0.0
H4109 H 0.42569 0.97416 0.02281 0.0
C4110 C 0.38909 0.99995 0.00668 0.0
C4111 C 0.3971 0.97302 0.01767 0.0
C4112 C 0.39194 0.95379 0.02215 0.0
C4113 C 0.40745 0.00824 0.00753 0.0
C4114 C 0.42054 0.99865 0.01329 0.0
C4115 C 0.41538 0.98139 0.01865 0.0
C4116 C 0.43965 0.00547 0.01192 0.0
C4117 C 0.41286 0.02684 0.00163 0.0
C4118 C 0.446 0.00231 0.99467 0.0
C4119 C 0.46434 0.00791 0.99338 0.0
C4120 C 0.47632 0.01662 0.00934 0.0
C4121 C 0.46996 0.02003 0.02652 0.0
C4122 C 0.4516 0.01425 0.02788 0.0
H4123 H 0.40114 0.03327 -0.00059 0.0
H4124 H 0.42339 0.03572 0.01244 0.0
H4125 H 0.41887 0.0258 0.98831 0.0
H4126 H 0.43678 0.99542 0.98232 0.0
H4127 H 0.4692 0.00547 0.97998 0.0
H4128 H 0.84763 0.56014 0.81867 0.0
H4129 H 0.83398 0.58642 0.81727 0.0
H4130 H 0.84513 0.58905 0.76014 0.0
H4131 H 0.85891 0.56295 0.76137 0.0
H4132 H 0.85714 0.62335 0.79788 0.0
H4133 H 0.7857 0.58705 0.7721 0.0
H4134 H 0.80051 0.57802 0.78799 0.0
H4135 H 0.80364 0.57766 0.7637 0.0
C4136 C 0.84707 0.56628 0.80579 0.0
C4137 C 0.85434 0.55965 0.79012 0.0
C4138 C 0.83933 0.58121 0.80506 0.0
C4139 C 0.83867 0.58942 0.78863 0.0
C4140 C 0.84565 0.58271 0.77291 0.0
H4141 H 0.82632 0.67252 0.73056 0.0
H4142 H 0.83705 0.65223 0.75078 0.0
C4143 C 0.85351 0.56791 0.77365 0.0
C4144 C 0.83121 0.60543 0.78771 0.0
H4145 H 0.79413 0.61811 0.76796 0.0
C4146 C 0.84323 0.6224 0.79186 0.0
C4147 C 0.81307 0.60387 0.78005 0.0
C4148 C 0.79986 0.58569 0.77574 0.0
C4149 C 0.83784 0.63796 0.78711 0.0
C4150 C 0.82016 0.63621 0.77775 0.0
C4151 C 0.8077 0.61938 0.77513 0.0
C4152 C 0.81519 0.65073 0.76786 0.0
C4153 C 0.85139 0.65591 0.7913 0.0
C4154 C 0.79927 0.65642 0.77069 0.0
C4155 C 0.79285 0.66764 0.75882 0.0
C4156 C 0.80229 0.67328 0.74394 0.0
C4157 C 0.81868 0.66821 0.74175 0.0
C4158 C 0.82499 0.65689 0.75351 0.0
H4159 H 0.8611 0.65626 0.80406 0.0
H4160 H 0.85934 0.65785 0.77935 0.0
H4161 H 0.84458 0.66734 0.79336 0.0
H4162 H 0.79143 0.65155 0.78155 0.0
H4163 H 0.78004 0.67111 0.76072 0.0
H4164 H 0.79104 0.60409 0.00459 0.0
H4165 H 0.81771 0.59108 0.00657 0.0
H4166 H 0.85204 0.64395 0.0062 0.0
H4167 H 0.82541 0.65721 0.0049 0.0
H4168 H 0.84258 0.58928 0.98355 0.0
H4169 H 0.87653 0.62875 0.0518 0.0
H4170 H 0.85352 0.62866 0.04267 0.0
H4171 H 0.87221 0.64249 0.03382 0.0
C4172 C 0.80426 0.613 0.00501 0.0
C4173 C 0.80609 0.63173 0.00479 0.0
C4174 C 0.81952 0.60552 0.00609 0.0
C4175 C 0.83695 0.61656 0.00687 0.0
C4176 C 0.8388 0.63521 0.00614 0.0
H4177 H 0.94117 0.58497 0.02671 0.0
H4178 H 0.91849 0.60103 0.01439 0.0
C4179 C 0.82354 0.64276 0.00529 0.0
C4180 C 0.85304 0.60837 0.00848 0.0
H4181 H 0.89226 0.60916 0.03682 0.0
C4182 C 0.85348 0.59371 0.99515 0.0
C4183 C 0.86735 0.61416 0.02359 0.0
C4184 C 0.86736 0.62926 0.03888 0.0
C4185 C 0.86759 0.58448 0.99672 0.0
C4186 C 0.88161 0.59001 0.01204 0.0
C4187 C 0.88155 0.60505 0.02499 0.0
C4188 C 0.89542 0.57933 0.0161 0.0
C4189 C 0.86726 0.56875 0.98208 0.0
C4190 C 0.88997 0.56171 0.02072 0.0
C4191 C 0.90284 0.55263 0.02774 0.0
C4192 C 0.92138 0.56097 0.03018 0.0
C4193 C 0.92695 0.57818 0.02459 0.0
C4194 C 0.91403 0.58737 0.0177 0.0
H4195 H 0.859 0.56958 0.96867 0.0
H4196 H 0.88119 0.56816 0.97927 0.0
H4197 H 0.86112 0.55593 0.9873 0.0
H4198 H 0.87571 0.5554 0.02 0.0
H4199 H 0.89827 0.53949 0.03227 0.0
H4200 H 0.18097 0.07372 0.76784 0.0
H4201 H 0.20395 0.1016 0.76683 0.0
H4202 H 0.17423 0.13231 0.79987 0.0
H4203 H 0.15114 0.1047 0.80072 0.0
H4204 H 0.18791 0.13893 0.75546 0.0
H4205 H 0.23569 0.14183 0.82053 0.0
H4206 H 0.22387 0.1205 0.80696 0.0
H4207 H 0.21165 0.13353 0.82056 0.0
C4208 C 0.17953 0.08637 0.77516 0.0
C4209 C 0.16425 0.08708 0.7843 0.0
C4210 C 0.1926 0.10225 0.77451 0.0
C4211 C 0.19069 0.11892 0.78327 0.0
C4212 C 0.17587 0.11953 0.79303 0.0
H4213 H 0.24323 0.23138 0.79897 0.0
H4214 H 0.22609 0.20071 0.80072 0.0
C4215 C 0.16271 0.10377 0.79348 0.0
C4216 C 0.20341 0.13597 0.78125 0.0
H4217 H 0.24058 0.16716 0.8038 0.0
C4218 C 0.19959 0.14503 0.76585 0.0
C4219 C 0.2184 0.14388 0.795 0.0
C4220 C 0.22282 0.13452 0.81175 0.0
C4221 C 0.21028 0.16206 0.76403 0.0
C4222 C 0.22525 0.17004 0.77785 0.0
C4223 C 0.22916 0.16088 0.79316 0.0
C4224 C 0.23637 0.18835 0.77713 0.0
C4225 C 0.20516 0.17174 0.74775 0.0
C4226 C 0.24798 0.19147 0.76338 0.0
C4227 C 0.25789 0.20899 0.76238 0.0
C4228 C 0.25624 0.22365 0.77506 0.0
C4229 C 0.24476 0.22039 0.78896 0.0
C4230 C 0.23499 0.20288 0.79003 0.0
H4231 H 0.19174 0.16485 0.73974 0.0
H4232 H 0.2048 0.1859 0.75286 0.0
H4233 H 0.21553 0.17229 0.73801 0.0
H4234 H 0.24924 0.18036 0.75335 0.0
H4235 H 0.26651 0.21111 0.75144 0.0
H4236 H 0.34016 0.96603 0.24694 0.0
H4237 H 0.31579 0.93853 0.24317 0.0
H4238 H 0.32825 0.93326 0.30192 0.0
H4239 H 0.35229 0.96061 0.30562 0.0
H4240 H 0.33227 0.91032 0.25099 0.0
H4241 H 0.27438 0.90987 0.2915 0.0
H4242 H 0.28721 0.93041 0.28451 0.0
H4243 H 0.29573 0.92132 0.30482 0.0
C4244 C 0.3369 0.95943 0.25914 0.0
C4245 C 0.34785 0.96492 0.27646 0.0
C4246 C 0.32302 0.9439 0.25705 0.0
C4247 C 0.32026 0.93406 0.2723 0.0
C4248 C 0.3299 0.94093 0.29013 0.0
H4249 H 0.30568 0.82956 0.30148 0.0
H4250 H 0.31486 0.86165 0.29731 0.0
C4251 C 0.34374 0.95636 0.29219 0.0
C4252 C 0.31209 0.9147 0.26873 0.0
H4253 H 0.28369 0.88141 0.28595 0.0
C4254 C 0.32117 0.90394 0.25804 0.0
C4255 C 0.29816 0.90663 0.27859 0.0
C4256 C 0.28823 0.9177 0.29039 0.0
C4257 C 0.3172 0.88519 0.25768 0.0
C4258 C 0.30364 0.87726 0.26795 0.0
C4259 C 0.29404 0.88784 0.27803 0.0
C4260 C 0.29992 0.85803 0.26937 0.0
C4261 C 0.32821 0.87405 0.24743 0.0
C4262 C 0.28883 0.8458 0.25483 0.0
C4263 C 0.28351 0.82768 0.25725 0.0
C4264 C 0.28959 0.82191 0.27406 0.0
C4265 C 0.3012 0.83402 0.28833 0.0
C4266 C 0.30635 0.85214 0.286 0.0
H4267 H 0.33907 0.88254 0.241 0.0
H4268 H 0.33454 0.8662 0.25733 0.0
H4269 H 0.31917 0.86416 0.23619 0.0
H4270 H 0.28375 0.85042 0.24202 0.0
H4271 H 0.27414 0.81841 0.24639 0.0
H4272 H 0.57078 0.33507 0.55418 0.0
H4273 H 0.56688 0.3643 0.54562 0.0
H4274 H 0.53002 0.36672 0.58659 0.0
H4275 H 0.53425 0.33748 0.59559 0.0
H4276 H 0.53997 0.37682 0.53064 0.0
H4277 H 0.56204 0.41588 0.6014 0.0
H4278 H 0.56455 0.39296 0.59619 0.0
H4279 H 0.543 0.39726 0.6009 0.0
C4280 C 0.56182 0.34173 0.56148 0.0
C4281 C 0.55294 0.33364 0.57575 0.0
C4282 C 0.55956 0.35862 0.55649 0.0
C4283 C 0.54841 0.3683 0.56559 0.0
C4284 C 0.53915 0.36007 0.57956 0.0
H4285 H 0.51414 0.46897 0.54477 0.0
H4286 H 0.51692 0.43951 0.55378 0.0
C4287 C 0.54142 0.3431 0.58461 0.0
C4288 C 0.54653 0.38673 0.56018 0.0
H4289 H 0.55001 0.43127 0.57781 0.0
C4290 C 0.54229 0.38867 0.54105 0.0
C4291 C 0.54952 0.40256 0.57351 0.0
C4292 C 0.55521 0.40217 0.59411 0.0
C4293 C 0.54079 0.40553 0.53506 0.0
C4294 C 0.54369 0.42123 0.54838 0.0
C4295 C 0.54779 0.41937 0.56748 0.0
C4296 C 0.54218 0.43954 0.54273 0.0
C4297 C 0.53575 0.40647 0.51445 0.0
C4298 C 0.55547 0.44983 0.53352 0.0
C4299 C 0.55389 0.46691 0.52829 0.0
C4300 C 0.53884 0.47415 0.53188 0.0
C4301 C 0.5257 0.46385 0.54127 0.0
C4302 C 0.52736 0.44692 0.54664 0.0
H4303 H 0.53194 0.39284 0.50604 0.0
H4304 H 0.52424 0.41321 0.51245 0.0
H4305 H 0.54742 0.41473 0.50897 0.0
H4306 H 0.56716 0.44466 0.53042 0.0
H4307 H 0.56438 0.47434 0.52122 0.0
H4308 H 0.45496 0.7836 0.40327 0.0
H4309 H 0.4282 0.78577 0.38218 0.0
H4310 H 0.41636 0.72803 0.36552 0.0
H4311 H 0.44277 0.72584 0.38725 0.0
H4312 H 0.41652 0.77896 0.34579 0.0
H4313 H 0.36894 0.73259 0.3814 0.0
H4314 H 0.39253 0.7408 0.39074 0.0
H4315 H 0.38561 0.72198 0.37225 0.0
C4316 C 0.44679 0.77142 0.39485 0.0
C4317 C 0.45107 0.75457 0.39675 0.0
C4318 C 0.4314 0.77265 0.38283 0.0
C4319 C 0.41982 0.75703 0.37244 0.0
C4320 C 0.42463 0.74026 0.37371 0.0
H4321 H 0.31916 0.73917 0.29363 0.0
H4322 H 0.34746 0.73647 0.31202 0.0
C4323 C 0.43992 0.73902 0.38592 0.0
C4324 C 0.40261 0.75831 0.36072 0.0
H4325 H 0.35655 0.74138 0.35313 0.0
C4326 C 0.40344 0.77074 0.34748 0.0
C4327 C 0.38532 0.74779 0.36288 0.0
C4328 C 0.38297 0.73519 0.37772 0.0
C4329 C 0.38772 0.77265 0.33627 0.0
C4330 C 0.37056 0.76192 0.33827 0.0
C4331 C 0.36968 0.74951 0.35143 0.0
C4332 C 0.35333 0.76357 0.32708 0.0
C4333 C 0.38961 0.786 0.32214 0.0
C4334 C 0.347 0.7796 0.32948 0.0
C4335 C 0.33075 0.78104 0.31913 0.0
C4336 C 0.32039 0.76647 0.30624 0.0
C4337 C 0.32674 0.75049 0.3037 0.0
C4338 C 0.34293 0.74898 0.31417 0.0
H4339 H 0.40386 0.79029 0.31935 0.0
H4340 H 0.38089 0.78011 0.30865 0.0
H4341 H 0.38517 0.79825 0.32767 0.0
H4342 H 0.35462 0.79101 0.3394 0.0
H4343 H 0.32644 0.79369 0.32099 0.0
H4344 H 0.07039 0.73206 0.05462 0.0
H4345 H 0.06596 0.69943 0.04607 0.0
H4346 H 0.02215 0.69006 0.07949 0.0
H4347 H 0.02662 0.72295 0.08831 0.0
H4348 H 0.06885 0.67261 0.06904 0.0
H4349 H 0.99957 0.65794 0.02965 0.0
H4350 H 0.01349 0.68063 0.03523 0.0
H4351 H 1.00187 0.66989 0.05291 0.0
C4352 C 0.05961 0.72318 0.06005 0.0
C4353 C 0.04878 0.73046 0.07212 0.0
C4354 C 0.05715 0.70435 0.05516 0.0
C4355 C 0.04359 0.69197 0.06188 0.0
C4356 C 0.03255 0.69913 0.07377 0.0
H4357 H 0.01203 0.57299 0.05046 0.0
H4358 H 0.01537 0.60557 0.05832 0.0
C4359 C 0.03515 0.71806 0.07887 0.0
C4360 C 0.04156 0.67173 0.05686 0.0
H4361 H 0.01196 0.63266 0.03515 0.0
C4362 C 0.0564 0.66394 0.06156 0.0
C4363 C 0.02538 0.66014 0.04707 0.0
C4364 C 0.00919 0.66752 0.04074 0.0
C4365 C 0.05542 0.64516 0.05711 0.0
C4366 C 0.03926 0.63359 0.04728 0.0
C4367 C 0.0244 0.64135 0.04262 0.0
C4368 C 0.03738 0.61341 0.04214 0.0
C4369 C 0.07159 0.63775 0.06346 0.0
C4370 C 0.04842 0.60651 0.03009 0.0
C4371 C 0.0464 0.58765 0.02533 0.0
C4372 C 0.03345 0.57502 0.03267 0.0
C4373 C 0.02236 0.58204 0.04462 0.0
C4374 C 0.0242 0.60083 0.04914 0.0
H4375 H 0.08126 0.64735 0.07449 0.0
H4376 H 0.06725 0.62468 0.06906 0.0
H4377 H 0.07885 0.63524 0.05128 0.0
H4378 H 0.05848 0.61575 0.02411 0.0
H4379 H 0.05495 0.58303 0.01579 0.0
H4380 H 0.05872 0.30149 0.89747 0.0
H4381 H 0.08492 0.29941 0.8813 0.0
H4382 H 0.07228 0.24145 0.88069 0.0
H4383 H 0.04586 0.24336 0.89681 0.0
H4384 H 0.11523 0.28498 0.89349 0.0
H4385 H 0.07778 0.2479 0.8253 0.0
H4386 H 0.06688 0.25942 0.84221 0.0
H4387 H 0.07218 0.23814 0.84616 0.0
C4388 C 0.06139 0.28825 0.89384 0.0
C4389 C 0.05006 0.27259 0.89844 0.0
C4390 C 0.07645 0.28711 0.88462 0.0
C4391 C 0.08054 0.27028 0.87962 0.0
C4392 C 0.06928 0.25457 0.88414 0.0
H4393 H 0.16525 0.24967 0.81158 0.0
H4394 H 0.14241 0.24531 0.83337 0.0
C4395 C 0.05419 0.2557 0.89342 0.0
C4396 C 0.09674 0.26942 0.86992 0.0
H4397 H 0.10957 0.25551 0.82789 0.0
C4398 C 0.11399 0.27844 0.87918 0.0
C4399 C 0.09521 0.26071 0.85132 0.0
C4400 C 0.07704 0.25107 0.84053 0.0
C4401 C 0.12964 0.27931 0.87024 0.0
C4402 C 0.128 0.2713 0.85136 0.0
C4403 C 0.11085 0.26169 0.84234 0.0
C4404 C 0.14355 0.2739 0.8402 0.0
C4405 C 0.1478 0.28881 0.88111 0.0
C4406 C 0.15201 0.2914 0.83697 0.0
C4407 C 0.16497 0.29385 0.82452 0.0
C4408 C 0.16983 0.27888 0.81516 0.0
C4409 C 0.16194 0.26142 0.81891 0.0
C4410 C 0.14883 0.25894 0.83124 0.0
H4411 H 0.14763 0.28895 0.89651 0.0
H4412 H 0.15871 0.28224 0.87694 0.0
H4413 H 0.15112 0.30308 0.87818 0.0
H4414 H 0.14796 0.30314 0.84336 0.0
H4415 H 0.17065 0.30742 0.8216 0.0
H4416 H 0.5083 0.74549 0.89796 0.0
H4417 H 0.51063 0.71741 0.91023 0.0
H4418 H 0.56525 0.72401 0.89683 0.0
H4419 H 0.56295 0.75251 0.88412 0.0
H4420 H 0.52232 0.68453 0.88992 0.0
H4421 H 0.56424 0.71959 0.95698 0.0
H4422 H 0.5495 0.73074 0.94356 0.0
H4423 H 0.56964 0.72683 0.9348 0.0
C4424 C 0.52084 0.74101 0.89746 0.0
C4425 C 0.53551 0.75134 0.89016 0.0
C4426 C 0.52209 0.72488 0.90445 0.0
C4427 C 0.53811 0.71868 0.90453 0.0
C4428 C 0.55276 0.72863 0.8969 0.0
H4429 H 0.55047 0.63051 0.97179 0.0
H4430 H 0.55761 0.65288 0.94977 0.0
C4431 C 0.55143 0.74483 0.8896 0.0
C4432 C 0.53918 0.70209 0.91335 0.0
H4433 H 0.55133 0.68853 0.95564 0.0
C4434 C 0.52901 0.68529 0.90413 0.0
C4435 C 0.54778 0.70316 0.93194 0.0
C4436 C 0.55843 0.721 0.94255 0.0
C4437 C 0.52669 0.66966 0.91327 0.0
C4438 C 0.53448 0.67093 0.93221 0.0
C4439 C 0.5454 0.68754 0.94111 0.0
C4440 C 0.53 0.65579 0.94366 0.0
C4441 C 0.51555 0.65201 0.9027 0.0
C4442 C 0.51212 0.64988 0.9474 0.0
C4443 C 0.5081 0.63732 0.96006 0.0
C4444 C 0.52185 0.63028 0.96909 0.0
C4445 C 0.53962 0.63559 0.96479 0.0
C4446 C 0.5437 0.64839 0.95231 0.0
H4447 H 0.51525 0.65192 0.88726 0.0
H4448 H 0.52095 0.64037 0.90695 0.0
H4449 H 0.5014 0.65013 0.9059 0.0
H4450 H 0.50138 0.6556 0.94116 0.0
H4451 H 0.49434 0.63353 0.96327 0.0
H4452 H 0.06995 0.72466 0.71639 0.0
H4453 H 0.1028 0.72965 0.72487 0.0
H4454 H 0.1084 0.78687 0.72314 0.0
H4455 H 0.07529 0.78186 0.71401 0.0
H4456 H 0.13365 0.75599 0.70192 0.0
H4457 H 0.13292 0.77045 0.77903 0.0
H4458 H 0.11384 0.75556 0.76412 0.0
H4459 H 0.11845 0.77942 0.76277 0.0
C4460 C 0.07809 0.73837 0.71791 0.0
C4461 C 0.0698 0.75288 0.71468 0.0
C4462 C 0.09697 0.74118 0.72268 0.0
C4463 C 0.10822 0.75864 0.72476 0.0
C4464 C 0.10008 0.77324 0.7216 0.0
H4465 H 0.22348 0.79483 0.7726 0.0
H4466 H 0.19123 0.79245 0.76242 0.0
C4467 C 0.08112 0.77038 0.7164 0.0
C4468 C 0.12837 0.76138 0.73037 0.0
H4469 H 0.16107 0.76983 0.76882 0.0
C4470 C 0.13965 0.7591 0.71654 0.0
C4471 C 0.13635 0.76542 0.74942 0.0
C4472 C 0.12489 0.76787 0.76483 0.0
C4473 C 0.15855 0.76079 0.72122 0.0
C4474 C 0.16653 0.76446 0.74038 0.0
C4475 C 0.15519 0.76695 0.75415 0.0
C4476 C 0.1865 0.76586 0.74644 0.0
C4477 C 0.16983 0.759 0.70548 0.0
C4478 C 0.19495 0.75172 0.74115 0.0
C4479 C 0.21354 0.75313 0.74689 0.0
C4480 C 0.22428 0.76858 0.75839 0.0
C4481 C 0.21579 0.78267 0.76379 0.0
C4482 C 0.19721 0.7813 0.75798 0.0
H4483 H 0.16305 0.76179 0.69202 0.0
H4484 H 0.18339 0.7684 0.7088 0.0
H4485 H 0.17173 0.74494 0.70336 0.0
H4486 H 0.18716 0.73944 0.73262 0.0
H4487 H 0.21953 0.74216 0.74208 0.0
H4488 H 0.01743 0.35712 0.37813 0.0
H4489 H 0.0178 0.38622 0.39612 0.0
H4490 H 0.06885 0.38523 0.42774 0.0
H4491 H 0.06847 0.35588 0.40954 0.0
H4492 H 0.01756 0.39065 0.4353 0.0
H4493 H 0.07687 0.4383 0.41617 0.0
H4494 H 0.06637 0.41698 0.40188 0.0
H4495 H 0.08087 0.41741 0.42334 0.0
C4496 C 0.02913 0.36345 0.38839 0.0
C4497 C 0.0432 0.3544 0.39196 0.0
C4498 C 0.02921 0.38003 0.39887 0.0
C4499 C 0.04337 0.38815 0.41333 0.0
C4500 C 0.0579 0.37953 0.41646 0.0
H4501 H 0.05782 0.48776 0.49317 0.0
H4502 H 0.06178 0.46016 0.47489 0.0
C4503 C 0.05779 0.3628 0.40592 0.0
C4504 C 0.04193 0.4047 0.42589 0.0
H4505 H 0.06136 0.44971 0.43953 0.0
C4506 C 0.02716 0.40357 0.43621 0.0
C4507 C 0.0545 0.42158 0.42737 0.0
C4508 C 0.07051 0.42381 0.41654 0.0
C4509 C 0.02464 0.41864 0.44789 0.0
C4510 C 0.03687 0.43575 0.4489 0.0
C4511 C 0.05183 0.43678 0.4388 0.0
C4512 C 0.03437 0.45267 0.46021 0.0
C4513 C 0.00911 0.41579 0.45941 0.0
C4514 C 0.01774 0.45808 0.45813 0.0
C4515 C 0.01541 0.47371 0.46887 0.0
C4516 C 0.0298 0.48467 0.48158 0.0
C4517 C 0.04653 0.4796 0.48342 0.0
C4518 C 0.04878 0.46379 0.47292 0.0
H4519 H 0.00526 0.40149 0.46218 0.0
H4520 H 0.01253 0.42466 0.4731 0.0
H4521 H 0.99707 0.4189 0.45147 0.0
H4522 H 0.00652 0.45029 0.44807 0.0
H4523 H 1.00239 0.47734 0.46711 0.0
H4524 H 0.46331 0.26889 0.19234 0.0
H4525 H 0.43425 0.27332 0.20171 0.0
H4526 H 0.43325 0.23061 0.23663 0.0
H4527 H 0.46225 0.22656 0.22787 0.0
H4528 H 0.4008 0.25355 0.19761 0.0
H4529 H 0.42236 0.26682 0.27415 0.0
H4530 H 0.43836 0.26593 0.25761 0.0
H4531 H 0.42595 0.24538 0.26478 0.0
C4532 C 0.45704 0.26058 0.2022 0.0
C4533 C 0.46554 0.24748 0.20943 0.0
C4534 C 0.44025 0.26308 0.20755 0.0
C4535 C 0.43138 0.25265 0.22038 0.0
C4536 C 0.43977 0.23939 0.22729 0.0
H4537 H 0.32373 0.23503 0.26002 0.0
H4538 H 0.35341 0.23266 0.25078 0.0
C4539 C 0.4565 0.23697 0.22207 0.0
C4540 C 0.41326 0.25512 0.22616 0.0
H4541 H 0.39029 0.25942 0.26438 0.0
C4542 C 0.39867 0.255 0.21225 0.0
C4543 C 0.41004 0.25716 0.24528 0.0
C4544 C 0.42506 0.25904 0.2613 0.0
C4545 C 0.38125 0.25628 0.21681 0.0
C4546 C 0.37796 0.25771 0.23584 0.0
C4547 C 0.39252 0.25806 0.24976 0.0
C4548 C 0.35964 0.25915 0.24154 0.0
C4549 C 0.36626 0.25572 0.20115 0.0
C4550 C 0.35298 0.27485 0.23969 0.0
C4551 C 0.33604 0.2763 0.24515 0.0
C4552 C 0.32502 0.26209 0.25264 0.0
C4553 C 0.33167 0.24632 0.25439 0.0
C4554 C 0.34875 0.24495 0.2491 0.0
H4555 H 0.37003 0.25183 0.18711 0.0
H4556 H 0.35373 0.24598 0.20319 0.0
H4557 H 0.36313 0.26931 0.20138 0.0
H4558 H 0.36096 0.28612 0.23406 0.0
H4559 H 0.33148 0.28857 0.24324 0.0
H4560 H 0.58966 0.55454 0.33097 0.0
H4561 H 0.57982 0.54922 0.36126 0.0
H4562 H 0.60131 0.50121 0.36007 0.0
H4563 H 0.61164 0.50666 0.32958 0.0
H4564 H 0.55565 0.51968 0.36986 0.0
H4565 H 0.62312 0.52841 0.41225 0.0
H4566 H 0.62055 0.53544 0.38915 0.0
H4567 H 0.61834 0.51189 0.39165 0.0
C4568 C 0.59234 0.5428 0.33704 0.0
C4569 C 0.60143 0.53099 0.32772 0.0
C4570 C 0.5867 0.53981 0.35445 0.0
C4571 C 0.58996 0.52494 0.36309 0.0
C4572 C 0.59893 0.51299 0.35385 0.0
H4573 H 0.56495 0.4977 0.47447 0.0
H4574 H 0.57551 0.49749 0.44341 0.0
C4575 C 0.60471 0.51603 0.33636 0.0
C4576 C 0.5834 0.52195 0.38148 0.0
H4577 H 0.59751 0.52146 0.42801 0.0
C4578 C 0.56479 0.51996 0.38256 0.0
C4579 C 0.59531 0.52224 0.39805 0.0
C4580 C 0.61547 0.52474 0.39787 0.0
C4581 C 0.55777 0.51837 0.39969 0.0
C4582 C 0.56975 0.51928 0.41642 0.0
C4583 C 0.58831 0.52081 0.41526 0.0
C4584 C 0.56339 0.51931 0.43528 0.0
C4585 C 0.53751 0.51553 0.39952 0.0
C4586 C 0.55339 0.53183 0.44127 0.0
C4587 C 0.54703 0.53163 0.45871 0.0
C4588 C 0.55105 0.51933 0.47086 0.0
C4589 C 0.56166 0.50727 0.4653 0.0
C4590 C 0.56767 0.50717 0.44759 0.0
H4591 H 0.53009 0.50891 0.38559 0.0
H4592 H 0.53267 0.5071 0.41042 0.0
H4593 H 0.53401 0.52888 0.40226 0.0
H4594 H 0.55051 0.54184 0.43248 0.0
H4595 H 0.53918 0.54133 0.46285 0.0
H4596 H 0.25529 0.87185 0.03691 0.0
H4597 H 0.24861 0.86365 0.0678 0.0
H4598 H 0.30477 0.88514 0.09056 0.0
H4599 H 0.31161 0.8931 0.05984 0.0
H4600 H 0.26879 0.83912 0.08257 0.0
H4601 H 0.27589 0.90079 0.13313 0.0
H4602 H 0.26913 0.89986 0.10814 0.0
H4603 H 0.29266 0.90294 0.11729 0.0
C4604 C 0.26611 0.87505 0.04861 0.0
C4605 C 0.28401 0.88273 0.04602 0.0
C4606 C 0.26223 0.8706 0.0662 0.0
C4607 C 0.27613 0.8742 0.08139 0.0
C4608 C 0.29381 0.88271 0.07903 0.0
H4609 H 0.32904 0.838 0.16634 0.0
H4610 H 0.31505 0.85499 0.14416 0.0
C4611 C 0.29776 0.88689 0.06143 0.0
C4612 C 0.27347 0.86559 0.0984 0.0
H4613 H 0.28417 0.87487 0.14594 0.0
C4614 C 0.27139 0.84677 0.09651 0.0
C4615 C 0.27706 0.87579 0.11639 0.0
C4616 C 0.27865 0.89597 0.11891 0.0
C4617 C 0.27481 0.83804 0.11212 0.0
C4618 C 0.27986 0.84846 0.12999 0.0
C4619 C 0.28028 0.86704 0.13212 0.0
C4620 C 0.28757 0.84068 0.14577 0.0
C4621 C 0.27483 0.81812 0.10918 0.0
C4622 C 0.27659 0.82734 0.15401 0.0
C4623 C 0.28453 0.81756 0.16642 0.0
C4624 C 0.3035 0.82107 0.17064 0.0
C4625 C 0.31442 0.83492 0.16294 0.0
C4626 C 0.30646 0.84475 0.15059 0.0
H4627 H 0.2723 0.81246 0.09407 0.0
H4628 H 0.28807 0.81589 0.11533 0.0
H4629 H 0.26414 0.81045 0.11644 0.0
H4630 H 0.262 0.82402 0.15024 0.0
H4631 H 0.2759 0.80692 0.17232 0.0
H4632 H 0.91675 0.48665 0.8282 0.0
H4633 H 0.93362 0.48745 0.85922 0.0
H4634 H 0.9226 0.53947 0.87668 0.0
H4635 H 0.90559 0.53875 0.84587 0.0
H4636 H 0.96425 0.51642 0.87094 0.0
H4637 H 0.9147 0.51151 0.92237 0.0
H4638 H 0.90814 0.50376 0.89756 0.0
H4639 H 0.91244 0.52749 0.9061 0.0
C4640 C 0.91773 0.49813 0.83876 0.0
C4641 C 0.91021 0.5128 0.83467 0.0
C4642 C 0.92719 0.49847 0.85642 0.0
C4643 C 0.92908 0.51343 0.87008 0.0
C4644 C 0.92089 0.52769 0.86631 0.0
H4645 H 0.99367 0.55123 0.97809 0.0
H4646 H 0.97549 0.55046 0.94761 0.0
C4647 C 0.91141 0.52735 0.84869 0.0
C4648 C 0.94194 0.51559 0.8871 0.0
H4649 H 0.94587 0.5222 0.93479 0.0
C4650 C 0.96028 0.51755 0.88494 0.0
C4651 C 0.93653 0.51726 0.90514 0.0
C4652 C 0.91686 0.51474 0.90799 0.0
C4653 C 0.97359 0.5215 0.90055 0.0
C4654 C 0.9682 0.52321 0.91862 0.0
C4655 C 0.94984 0.52116 0.92079 0.0
C4656 C 0.98117 0.52537 0.93556 0.0
C4657 C 0.99324 0.52398 0.89755 0.0
C4658 C 0.99037 0.51166 0.93845 0.0
C4659 C 1.00072 0.51215 0.95554 0.0
C4660 C 1.00174 0.52624 0.97005 0.0
C4661 C 0.99298 0.54029 0.967 0.0
C4662 C 0.98272 0.53987 0.94973 0.0
H4663 H 0.9954 0.52809 0.88348 0.0
H4664 H 1.00221 0.5343 0.90847 0.0
H4665 H 0.99736 0.51092 0.89832 0.0
H4666 H 0.98884 0.50011 0.92781 0.0
H4667 H 0.00709 0.50095 0.9577 0.0
H4668 H 0.24136 0.20351 0.56396 0.0
H4669 H 0.24545 0.21392 0.59761 0.0
H4670 H 0.30205 0.21293 0.6012 0.0
H4671 H 0.298 0.20208 0.56723 0.0
H4672 H 0.26851 0.19431 0.63012 0.0
H4673 H 0.28851 0.26767 0.62227 0.0
H4674 H 0.27311 0.25199 0.60415 0.0
H4675 H 0.29649 0.251 0.60781 0.0
C4676 C 0.25474 0.20556 0.57182 0.0
C4677 C 0.26941 0.20212 0.56286 0.0
C4678 C 0.257 0.21142 0.59109 0.0
C4679 C 0.27402 0.21421 0.60186 0.0
C4680 C 0.28877 0.21078 0.59309 0.0
H4681 H 0.3029 0.26836 0.71724 0.0
H4682 H 0.30378 0.25525 0.68511 0.0
C4683 C 0.28646 0.20462 0.57372 0.0
C4684 C 0.27613 0.22106 0.62218 0.0
H4685 H 0.28384 0.26022 0.65248 0.0
C4686 C 0.27204 0.2087 0.63509 0.0
C4687 C 0.28065 0.23982 0.62855 0.0
C4688 C 0.28497 0.25352 0.61508 0.0
C4689 C 0.27219 0.21466 0.65426 0.0
C4690 C 0.27619 0.23349 0.66057 0.0
C4691 C 0.28068 0.24581 0.64766 0.0
C4692 C 0.27566 0.24074 0.68044 0.0
C4693 C 0.26819 0.20077 0.6676 0.0
C4694 C 0.25953 0.23701 0.6886 0.0
C4695 C 0.25899 0.24448 0.70707 0.0
C4696 C 0.27453 0.25595 0.7177 0.0
C4697 C 0.29066 0.25958 0.70951 0.0
C4698 C 0.2912 0.25211 0.69109 0.0
H4699 H 0.27028 0.18741 0.66177 0.0
H4700 H 0.27689 0.20525 0.68137 0.0
H4701 H 0.25382 0.19893 0.67007 0.0
H4702 H 0.24727 0.22856 0.68058 0.0
H4703 H 0.24637 0.24136 0.71293 0.0
H4704 H 0.59325 0.49987 0.2195 0.0
H4705 H 0.58194 0.49582 0.18551 0.0
H4706 H 0.59122 0.55376 0.18661 0.0
H4707 H 0.60193 0.55783 0.22022 0.0
H4708 H 0.55091 0.51635 0.16871 0.0
H4709 H 0.61761 0.53003 0.14184 0.0
H4710 H 0.61443 0.52043 0.16348 0.0
H4711 H 0.61534 0.54406 0.16273 0.0
C4712 C 0.5929 0.51167 0.2124 0.0
C4713 C 0.59828 0.52915 0.22252 0.0
C4714 C 0.58644 0.50937 0.19305 0.0
C4715 C 0.5858 0.52453 0.18357 0.0
C4716 C 0.59159 0.5419 0.19363 0.0
H4717 H 0.55729 0.5539 0.0733 0.0
H4718 H 0.56915 0.55266 0.10604 0.0
C4719 C 0.59762 0.54418 0.21287 0.0
C4720 C 0.57861 0.52262 0.16329 0.0
H4721 H 0.59173 0.52995 0.12035 0.0
C4722 C 0.55979 0.51899 0.15804 0.0
C4723 C 0.59025 0.52647 0.14952 0.0
C4724 C 0.61056 0.53039 0.15453 0.0
C4725 C 0.5523 0.51952 0.13944 0.0
C4726 C 0.56395 0.5235 0.12564 0.0
C4727 C 0.5828 0.52691 0.13089 0.0
C4728 C 0.55682 0.52425 0.10573 0.0
C4729 C 0.532 0.51653 0.13484 0.0
C4730 C 0.54613 0.50868 0.09456 0.0
C4731 C 0.53934 0.50936 0.07589 0.0
C4732 C 0.54307 0.52565 0.06789 0.0
C4733 C 0.55399 0.54119 0.07902 0.0
C4734 C 0.56084 0.54048 0.09773 0.0
H4735 H 0.52532 0.5178 0.1477 0.0
H4736 H 0.52842 0.52638 0.12558 0.0
H4737 H 0.52645 0.5027 0.12725 0.0
H4738 H 0.54311 0.49594 0.10028 0.0
H4739 H 0.53108 0.49707 0.06775 0.0
H4740 H 0.31832 0.90543 0.94086 0.0
H4741 H 0.31532 0.89179 0.90828 0.0
H4742 H 0.25726 0.87639 0.90688 0.0
H4743 H 0.2601 0.8902 0.93932 0.0
H4744 H 0.29903 0.85443 0.91216 0.0
H4745 H 0.265 0.87846 0.85063 0.0
H4746 H 0.27747 0.89377 0.87088 0.0
H4747 H 0.25522 0.88051 0.87213 0.0
C4748 C 0.30486 0.8999 0.93329 0.0
C4749 C 0.28948 0.89795 0.94267 0.0
C4750 C 0.30316 0.89236 0.91465 0.0
C4751 C 0.28613 0.88283 0.9055 0.0
C4752 C 0.2705 0.88377 0.9138 0.0
H4753 H 0.24847 0.79334 0.81907 0.0
H4754 H 0.25013 0.81416 0.84772 0.0
C4755 C 0.27217 0.89147 0.93241 0.0
C4756 C 0.28529 0.86728 0.89154 0.0
H4757 H 0.2672 0.84772 0.84732 0.0
C4758 C 0.29228 0.85299 0.89786 0.0
C4759 C 0.27598 0.86541 0.87329 0.0
C4760 C 0.26806 0.88038 0.86622 0.0
C4761 C 0.29 0.8366 0.88635 0.0
C4762 C 0.28092 0.83479 0.86792 0.0
C4763 C 0.27402 0.84916 0.86158 0.0
C4764 C 0.27929 0.81862 0.85443 0.0
C4765 C 0.2969 0.82135 0.89423 0.0
C4766 C 0.29499 0.81343 0.84963 0.0
C4767 C 0.29391 0.80107 0.83377 0.0
C4768 C 0.27727 0.79452 0.82233 0.0
C4769 C 0.26139 0.79852 0.82787 0.0
C4770 C 0.26236 0.81036 0.84408 0.0
H4771 H 0.29727 0.8225 0.90976 0.0
H4772 H 0.28839 0.8079 0.88798 0.0
H4773 H 0.31097 0.82207 0.89113 0.0
H4774 H 0.30822 0.81998 0.85719 0.0
H4775 H 0.30627 0.79815 0.82939 0.0
H4776 H 0.92138 0.48217 0.73212 0.0
H4777 H 0.93219 0.49055 0.70294 0.0
H4778 H 0.92637 0.54517 0.71732 0.0
H4779 H 0.91533 0.53688 0.74674 0.0
H4780 H 0.91018 0.52064 0.67605 0.0
H4781 H 0.98335 0.53108 0.70317 0.0
H4782 H 0.96823 0.51245 0.71076 0.0
H4783 H 0.96663 0.53523 0.71807 0.0
C4784 C 0.92252 0.496 0.72919 0.0
C4785 C 0.91764 0.50892 0.7417 0.0
C4786 C 0.92858 0.50072 0.71251 0.0
C4787 C 0.93002 0.51843 0.70819 0.0
C4788 C 0.92521 0.53143 0.72055 0.0
H4789 H 0.9875 0.52376 0.61062 0.0
H4790 H 0.97337 0.53809 0.63522 0.0
C4791 C 0.91898 0.52668 0.73727 0.0
C4792 C 0.93693 0.52296 0.69071 0.0
H4793 H 0.97497 0.52355 0.66997 0.0
C4794 C 0.92443 0.52193 0.67466 0.0
C4795 C 0.95549 0.52477 0.68917 0.0
C4796 C 0.96929 0.52609 0.70622 0.0
C4797 C 0.9299 0.52083 0.65674 0.0
C4798 C 0.94817 0.52066 0.65512 0.0
C4799 C 0.96094 0.52368 0.6713 0.0
C4800 C 0.95369 0.5136 0.63749 0.0
C4801 C 0.91598 0.51863 0.63966 0.0
C4802 C 0.94713 0.49517 0.63064 0.0
C4803 C 0.95539 0.48691 0.61699 0.0
C4804 C 0.97019 0.49704 0.6099 0.0
C4805 C 0.97606 0.51573 0.61594 0.0
C4806 C 0.96796 0.52393 0.62982 0.0
H4807 H 0.90449 0.52475 0.64294 0.0
H4808 H 0.92211 0.52495 0.62796 0.0
H4809 H 0.91047 0.50398 0.63485 0.0
H4810 H 0.93637 0.48691 0.63673 0.0
H4811 H 0.95058 0.47253 0.61234 0.0
H4812 H 0.28395 0.17656 0.44982 0.0
H4813 H 0.28799 0.18415 0.41798 0.0
H4814 H 0.27157 0.23418 0.43126 0.0
H4815 H 0.2675 0.22678 0.46293 0.0
H4816 H 0.25206 0.20501 0.39517 0.0
H4817 H 0.32695 0.23129 0.40259 0.0
H4818 H 0.3174 0.21216 0.41407 0.0
H4819 H 0.31451 0.23424 0.4222 0.0
C4820 C 0.28159 0.18936 0.44609 0.0
C4821 C 0.27543 0.20108 0.45895 0.0
C4822 C 0.2838 0.19361 0.42787 0.0
C4823 C 0.28004 0.2097 0.42229 0.0
C4824 C 0.2745 0.22168 0.43528 0.0
H4825 H 0.26649 0.26421 0.32616 0.0
H4826 H 0.26678 0.25189 0.356 0.0
C4827 C 0.27222 0.21743 0.4534 0.0
C4828 C 0.28097 0.2138 0.40269 0.0
H4829 H 0.3101 0.23296 0.37367 0.0
C4830 C 0.26476 0.21093 0.39038 0.0
C4831 C 0.29754 0.2215 0.3965 0.0
C4832 C 0.31518 0.22506 0.40943 0.0
C4833 C 0.26466 0.21587 0.37212 0.0
C4834 C 0.28118 0.22416 0.36612 0.0
C4835 C 0.29746 0.22654 0.37826 0.0
C4836 C 0.28155 0.23168 0.3479 0.0
C4837 C 0.24684 0.21233 0.35942 0.0
C4838 C 0.29014 0.22469 0.33348 0.0
C4839 C 0.29009 0.23181 0.31626 0.0
C4840 C 0.28167 0.24621 0.31333 0.0
C4841 C 0.27329 0.25326 0.32795 0.0
C4842 C 0.27328 0.24612 0.34501 0.0
H4843 H 0.23638 0.20172 0.364 0.0
H4844 H 0.2418 0.22498 0.3598 0.0
H4845 H 0.24851 0.20808 0.34464 0.0
H4846 H 0.29666 0.21358 0.33546 0.0
H4847 H 0.29662 0.2261 0.30527 0.0
H4848 H 0.32262 0.61867 0.54926 0.0
H4849 H 0.35133 0.60938 0.55025 0.0
H4850 H 0.32293 0.55458 0.52874 0.0
H4851 H 0.29399 0.56376 0.52734 0.0
H4852 H 0.36599 0.58042 0.56601 0.0
H4853 H 0.35375 0.57441 0.48774 0.0
H4854 H 0.34072 0.58557 0.50254 0.0
H4855 H 0.33628 0.56127 0.49876 0.0
C4856 C 0.32242 0.60457 0.54498 0.0
C4857 C 0.30615 0.59196 0.53784 0.0
C4858 C 0.3388 0.5993 0.54575 0.0
C4859 C 0.33905 0.5814 0.53947 0.0
C4860 C 0.3228 0.56849 0.53355 0.0
H4861 H 0.42245 0.53067 0.5114 0.0
H4862 H 0.39832 0.53874 0.52743 0.0
C4863 C 0.30638 0.57377 0.53263 0.0
C4864 C 0.35632 0.57705 0.53637 0.0
H4865 H 0.38074 0.56802 0.50129 0.0
C4866 C 0.36928 0.57761 0.55192 0.0
C4867 C 0.36042 0.57376 0.51789 0.0
C4868 C 0.34715 0.57384 0.50074 0.0
C4869 C 0.38642 0.57465 0.54934 0.0
C4870 C 0.39037 0.5713 0.53088 0.0
C4871 C 0.37744 0.57076 0.51541 0.0
C4872 C 0.40757 0.56749 0.5268 0.0
C4873 C 0.40021 0.57511 0.56611 0.0
C4874 C 0.42075 0.58117 0.52148 0.0
C4875 C 0.43473 0.57668 0.5124 0.0
C4876 C 0.43541 0.55844 0.50838 0.0
C4877 C 0.42251 0.54489 0.51455 0.0
C4878 C 0.40876 0.54942 0.52381 0.0
H4879 H 0.39518 0.57855 0.57961 0.0
H4880 H 0.40369 0.56168 0.56604 0.0
H4881 H 0.41285 0.58522 0.56518 0.0
H4882 H 0.41962 0.59516 0.52343 0.0
H4883 H 0.44465 0.58738 0.50808 0.0
H4884 H 0.85644 0.90634 0.55949 0.0
H4885 H 0.88433 0.92809 0.5567 0.0
H4886 H 0.85601 0.94876 0.51178 0.0
H4887 H 0.82779 0.92731 0.51502 0.0
H4888 H 0.90009 0.92667 0.52492 0.0
H4889 H 0.88699 0.99519 0.54143 0.0
H4890 H 0.87266 0.97505 0.54747 0.0
H4891 H 0.87065 0.9803 0.52371 0.0
C4892 C 0.85604 0.91592 0.54943 0.0
C4893 C 0.84 0.91521 0.5375 0.0
C4894 C 0.87199 0.92829 0.54779 0.0
C4895 C 0.87229 0.94007 0.53405 0.0
C4896 C 0.85604 0.94005 0.52272 0.0
H4897 H 0.9657 0.01041 0.49775 0.0
H4898 H 0.93493 0.99381 0.50049 0.0
C4899 C 0.83993 0.92781 0.52458 0.0
C4900 C 0.88999 0.95078 0.5304 0.0
H4901 H 0.91471 0.99374 0.52995 0.0
C4902 C 0.90328 0.94134 0.52606 0.0
C4903 C 0.89404 0.96989 0.53158 0.0
C4904 C 0.8804 0.98075 0.53645 0.0
C4905 C 0.92058 0.95047 0.52313 0.0
C4906 C 0.92484 0.96961 0.52492 0.0
C4907 C 0.91142 0.97906 0.52871 0.0
C4908 C 0.94335 0.98003 0.52351 0.0
C4909 C 0.93405 0.93945 0.51799 0.0
C4910 C 0.95821 0.97804 0.53576 0.0
C4911 C 0.97573 0.98735 0.53413 0.0
C4912 C 0.97871 0.9991 0.52042 0.0
C4913 C 0.96378 1.00149 0.50849 0.0
C4914 C 0.94623 0.99202 0.51002 0.0
H4915 H 0.92715 0.92547 0.51153 0.0
H4916 H 0.94278 0.94589 0.50804 0.0
H4917 H 0.94289 0.9384 0.53091 0.0
H4918 H 0.95625 0.96924 0.5466 0.0
H4919 H 0.98694 0.98539 0.54367 0.0
H4920 H 0.88172 0.05506 0.29316 0.0
H4921 H 0.86798 0.08117 0.29218 0.0
H4922 H 0.88096 0.08614 0.23597 0.0
H4923 H 0.8946 0.05981 0.23671 0.0
H4924 H 0.88641 0.116 0.28706 0.0
H4925 H 0.82729 0.08925 0.23147 0.0
H4926 H 0.83936 0.07457 0.24309 0.0
H4927 H 0.84912 0.08709 0.22551 0.0
C4928 C 0.8815 0.06154 0.28049 0.0
C4929 C 0.88926 0.0553 0.26501 0.0
C4930 C 0.87364 0.07648 0.27996 0.0
C4931 C 0.87327 0.08548 0.26393 0.0
C4932 C 0.88079 0.0792 0.24834 0.0
H4933 H 0.83534 0.18647 0.25499 0.0
H4934 H 0.847 0.15934 0.24641 0.0
C4935 C 0.88868 0.06421 0.24885 0.0
C4936 C 0.866 0.10207 0.26425 0.0
H4937 H 0.83121 0.11948 0.24552 0.0
C4938 C 0.8744 0.11678 0.2779 0.0
C4939 C 0.85049 0.10315 0.25209 0.0
C4940 C 0.8409 0.08767 0.23726 0.0
C4941 C 0.86742 0.13234 0.28012 0.0
C4942 C 0.85141 0.13309 0.26862 0.0
C4943 C 0.84341 0.11875 0.25439 0.0
C4944 C 0.84229 0.14817 0.2723 0.0
C4945 C 0.8771 0.14781 0.29496 0.0
C4946 C 0.83527 0.15045 0.28935 0.0
C4947 C 0.82886 0.16588 0.29429 0.0
C4948 C 0.82912 0.17917 0.28216 0.0
C4949 C 0.83505 0.17636 0.26455 0.0
C4950 C 0.84168 0.16094 0.25966 0.0
H4951 H 0.89137 0.1471 0.29924 0.0
H4952 H 0.87704 0.16106 0.28985 0.0
H4953 H 0.87001 0.14719 0.30761 0.0
H4954 H 0.83535 0.14058 0.29913 0.0
H4955 H 0.82409 0.16765 0.30783 0.0
H4956 H 0.71971 0.07307 0.01991 0.0
H4957 H 0.68697 0.05991 0.01549 0.0
H4958 H 0.67756 0.11065 0.03996 0.0
H4959 H 0.71007 0.12389 0.04415 0.0
H4960 H 0.6598 0.05734 0.04018 0.0
H4961 H 0.65109 0.10239 0.98552 0.0
H4962 H 0.67299 0.09904 0.99466 0.0
H4963 H 0.66224 0.11391 0.00805 0.0
C4964 C 0.7106 0.08126 0.02453 0.0
C4965 C 0.71709 0.09957 0.0317 0.0
C4966 C 0.69205 0.07379 0.02203 0.0
C4967 C 0.68009 0.08461 0.02687 0.0
C4968 C 0.68672 0.10239 0.03564 0.0
H4969 H 0.56855 0.06907 0.03 0.0
H4970 H 0.59994 0.08275 0.02632 0.0
C4971 C 0.70518 0.1099 0.03793 0.0
C4972 C 0.66064 0.07777 0.02159 0.0
H4973 H 0.62411 0.08511 0.9944 0.0
C4974 C 0.65197 0.06322 0.03005 0.0
C4975 C 0.65073 0.08565 0.00833 0.0
C4976 C 0.65974 0.10102 -0.00153 0.0
C4977 C 0.63328 0.05657 0.02596 0.0
C4978 C 0.62336 0.06459 0.01286 0.0
C4979 C 0.63202 0.079 0.00423 0.0
C4980 C 0.6037 0.05899 0.00943 0.0
C4981 C 0.62418 0.04144 0.03609 0.0
C4982 C 0.5955 0.04166 0.00014 0.0
C4983 C 0.57777 0.03388 0.00237 0.0
C4984 C 0.56835 0.0436 0.01362 0.0
C4985 C 0.57586 0.06159 0.02122 0.0
C4986 C 0.5936 0.06936 0.01904 0.0
H4987 H 0.6335 0.03868 0.04782 0.0
H4988 H 0.61216 0.04477 0.04183 0.0
H4989 H 0.61941 0.02885 0.02601 0.0
H4990 H 0.60332 0.0336 0.99275 0.0
H4991 H 0.57196 0.0199 0.99656 0.0
H4992 H 0.23573 0.51051 0.24898 0.0
H4993 H 0.24664 0.48262 0.24794 0.0
H4994 H 0.19149 0.45112 0.23782 0.0
H4995 H 0.18038 0.47894 0.23866 0.0
H4996 H 0.23648 0.45973 0.27471 0.0
H4997 H 0.21839 0.42328 0.20213 0.0
H4998 H 0.21979 0.44729 0.20748 0.0
H4999 H 0.20021 0.43114 0.21174 0.0
C5000 C 0.22592 0.49765 0.24609 0.0
C5001 C 0.20722 0.49685 0.2441 0.0
C5002 C 0.23218 0.48178 0.24541 0.0
C5003 C 0.21984 0.46494 0.24257 0.0
C5004 C 0.20118 0.46404 0.23964 0.0
H5005 H 0.22579 0.36692 0.28512 0.0
H5006 H 0.21555 0.39004 0.26818 0.0
C5007 C 0.19488 0.47993 0.24036 0.0
C5008 C 0.22635 0.44864 0.24591 0.0
H5009 H 0.2269 0.40611 0.22634 0.0
C5010 C 0.23465 0.44811 0.26407 0.0
C5011 C 0.22369 0.43355 0.23197 0.0
C5012 C 0.21516 0.43383 0.21217 0.0
C5013 C 0.24007 0.43264 0.26884 0.0
C5014 C 0.23713 0.41743 0.25504 0.0
C5015 C 0.22909 0.41795 0.23676 0.0
C5016 C 0.24186 0.40078 0.26005 0.0
C5017 C 0.24857 0.43243 0.28872 0.0
C5018 C 0.2598 0.399 0.26032 0.0
C5019 C 0.2656 0.38587 0.2699 0.0
C5020 C 0.2535 0.37468 0.27938 0.0
C5021 C 0.23525 0.37563 0.27795 0.0
C5022 C 0.22941 0.3886 0.26818 0.0
H5023 H 0.24962 0.44539 0.29783 0.0
H5024 H 0.24042 0.42127 0.29505 0.0
H5025 H 0.26238 0.42988 0.28858 0.0
H5026 H 0.26955 0.40856 0.2543 0.0
H5027 H 0.27974 0.38522 0.27096 0.0
H5028 H 0.23471 0.40759 0.98793 0.0
H5029 H 0.20922 0.42203 0.99057 0.0
H5030 H 0.2181 0.42453 0.0509 0.0
H5031 H 0.24374 0.41004 0.04846 0.0
H5032 H 0.1771 0.40828 0.00966 0.0
H5033 H 0.21657 0.47762 0.03973 0.0
H5034 H 0.22679 0.46167 0.02693 0.0
H5035 H 0.22161 0.45847 0.05018 0.0
C5036 C 0.23135 0.41126 0.00179 0.0
C5037 C 0.24131 0.40765 0.01798 0.0
C5038 C 0.21673 0.41948 0.00326 0.0
C5039 C 0.21184 0.42439 0.02092 0.0
C5040 C 0.22178 0.42096 0.03715 0.0
H5041 H 0.12924 0.48849 0.03396 0.0
H5042 H 0.15023 0.46926 0.04264 0.0
C5043 C 0.23639 0.41265 0.0357 0.0
C5044 C 0.19616 0.43289 0.02204 0.0
H5045 H 0.18521 0.47376 0.03142 0.0
C5046 C 0.17881 0.42254 0.01465 0.0
C5047 C 0.19842 0.45142 0.02881 0.0
C5048 C 0.21682 0.46307 0.03682 0.0
C5049 C 0.16375 0.43043 0.01311 0.0
C5050 C 0.16622 0.44922 0.01871 0.0
C5051 C 0.18338 0.45935 0.02709 0.0
C5052 C 0.15184 0.45901 0.01391 0.0
C5053 C 0.14539 0.41867 0.00514 0.0
C5054 C 0.1457 0.45947 0.99494 0.0
C5055 C 0.13397 0.47052 0.99002 0.0
C5056 C 0.12809 0.48124 0.00398 0.0
C5057 C 0.13355 0.48022 0.02299 0.0
C5058 C 0.14553 0.46932 0.02793 0.0
H5059 H 0.14455 0.40432 0.00739 0.0
H5060 H 0.1344 0.42349 0.01159 0.0
H5061 H 0.14309 0.41915 0.98976 0.0
H5062 H 0.15062 0.45186 0.98389 0.0
H5063 H 0.12989 0.47109 0.97527 0.0
H5064 H 0.87301 0.97195 0.26146 0.0
H5065 H 0.85165 0.94365 0.26478 0.0
H5066 H 0.88183 0.91321 0.23199 0.0
H5067 H 0.90319 0.94117 0.22879 0.0
H5068 H 0.82977 0.91421 0.23815 0.0
H5069 H 0.88326 0.89262 0.28272 0.0
H5070 H 0.88546 0.91562 0.27755 0.0
H5071 H 0.88981 0.89858 0.26061 0.0
C5072 C 0.87486 0.95925 0.25466 0.0
C5073 C 0.88989 0.95877 0.24504 0.0
C5074 C 0.86271 0.94311 0.25664 0.0
C5075 C 0.86546 0.92634 0.24902 0.0
C5076 C 0.87973 0.92598 0.23836 0.0
H5077 H 0.81971 0.81254 0.24184 0.0
H5078 H 0.83657 0.84314 0.23917 0.0
C5079 C 0.89187 0.942 0.23646 0.0
C5080 C 0.85399 0.90908 0.2527 0.0
H5081 H 0.8564 0.86995 0.27109 0.0
C5082 C 0.8355 0.9046 0.24554 0.0
C5083 C 0.86153 0.89664 0.26247 0.0
C5084 C 0.88106 0.90114 0.27145 0.0
C5085 C 0.82451 0.88764 0.24717 0.0
C5086 C 0.83224 0.87498 0.25631 0.0
C5087 C 0.85059 0.87966 0.26394 0.0
C5088 C 0.82163 0.8566 0.25769 0.0
C5089 C 0.80487 0.88307 0.23859 0.0
C5090 C 0.80777 0.85409 0.26912 0.0
C5091 C 0.79816 0.83663 0.27074 0.0
C5092 C 0.80219 0.82139 0.26088 0.0
C5093 C 0.81615 0.82399 0.24949 0.0
C5094 C 0.82581 0.84145 0.24796 0.0
H5095 H 0.80171 0.89317 0.22945 0.0
H5096 H 0.80135 0.86946 0.23016 0.0
H5097 H 0.79615 0.8827 0.24997 0.0
H5098 H 0.80462 0.86563 0.27703 0.0
H5099 H 0.78786 0.83509 0.28007 0.0
H5100 H 0.71297 0.08611 0.72466 0.0
H5101 H 0.72953 0.11772 0.72894 0.0
H5102 H 0.739 0.11651 0.78877 0.0
H5103 H 0.72234 0.0849 0.7845 0.0
H5104 H 0.7074 0.13477 0.75901 0.0
H5105 H 0.78292 0.15646 0.76922 0.0
H5106 H 0.77101 0.13655 0.75332 0.0
H5107 H 0.77196 0.13624 0.77819 0.0
C5108 C 0.71984 0.09221 0.73851 0.0
C5109 C 0.71648 0.08342 0.75431 0.0
C5110 C 0.72916 0.11024 0.74094 0.0
C5111 C 0.73517 0.11923 0.75915 0.0
C5112 C 0.7345 0.10955 0.77463 0.0
H5113 H 0.76827 0.23142 0.79577 0.0
H5114 H 0.75428 0.20024 0.79873 0.0
C5115 C 0.72512 0.09152 0.77219 0.0
C5116 C 0.73654 0.13867 0.76243 0.0
H5117 H 0.7665 0.17922 0.77252 0.0
C5118 C 0.72028 0.14461 0.76204 0.0
C5119 C 0.75335 0.15106 0.7665 0.0
C5120 C 0.7709 0.14491 0.76684 0.0
C5121 C 0.72047 0.163 0.76559 0.0
C5122 C 0.73734 0.17549 0.76941 0.0
C5123 C 0.75357 0.16945 0.76994 0.0
C5124 C 0.73888 0.19503 0.77095 0.0
C5125 C 0.70275 0.16892 0.76516 0.0
C5126 C 0.73367 0.20258 0.75489 0.0
C5127 C 0.74121 0.2206 0.75348 0.0
C5128 C 0.75393 0.23098 0.7681 0.0
C5129 C 0.75779 0.22389 0.78479 0.0
C5130 C 0.74997 0.20603 0.78639 0.0
H5131 H 0.69159 0.15784 0.76781 0.0
H5132 H 0.70388 0.18091 0.77572 0.0
H5133 H 0.69905 0.17268 0.75103 0.0
H5134 H 0.72544 0.19415 0.74269 0.0
H5135 H 0.73838 0.22595 0.7404 0.0
loop_
_geom_bond_atom_site_label_1
_geom_bond_atom_site_label_2
_geom_bond_distance
_geom_bond_site_symmetry_2
_ccdc_geom_bond_type
Zn0 O3 2.031 . S
Zn0 O5 2.049 . S
Zn0 O10 2.055 1_455 S
Zn1 O2 1.962 . S
Zn1 O4 1.986 . S
Zn1 O6 1.996 . S
Zn1 O9 1.943 . S
O2 Zn1 1.962 . S
O2 C7 1.254 . S
O3 Zn0 2.031 . S
O3 C7 1.269 . S
O4 Zn1 1.986 . S
O4 C11 1.262 . S
O5 Zn0 2.049 . S
O5 C13 1.260 . S
O6 Zn1 1.996 . S
O6 C13 1.257 . S
C7 O2 1.254 . S
C7 O3 1.269 . S
C8 O9 1.249 . S
C8 O10 1.251 1_455 S
O9 Zn1 1.943 . S
O9 C8 1.249 . S
O10 Zn0 2.055 1_655 S
O10 C8 1.251 1_655 S
C11 O4 1.262 . S
C11 O12 1.232 . S
O12 C11 1.232 . S
C13 O5 1.260 . S
C13 O6 1.257 . S
Zn14 O17 2.031 1_455 S
Zn14 O19 2.049 . S
Zn14 O24 2.067 . S
Zn15 O16 1.962 1_455 S
Zn15 O18 1.986 . S
Zn15 O20 1.996 . S
Zn15 O23 1.943 . S
O16 Zn15 1.962 1_655 S
O16 C21 1.254 . S
O17 Zn14 2.031 1_655 S
O17 C21 1.269 . S
O18 Zn15 1.986 . S
O18 C25 1.262 . S
O19 Zn14 2.049 . S
O19 C27 1.260 . S
O20 Zn15 1.996 . S
O20 C27 1.257 . S
C21 O16 1.254 . S
C21 O17 1.269 . S
C22 O23 1.249 . S
C22 O24 1.270 . S
O23 Zn15 1.943 . S
O23 C22 1.249 . S
O24 Zn14 2.067 . S
O24 C22 1.270 . S
C25 O18 1.262 . S
C25 O26 1.235 . S
O26 C25 1.235 . S
C27 O19 1.260 . S
C27 O20 1.257 . S
Zn28 O31 2.031 . S
Zn28 O33 2.049 . S
Zn28 O38 2.067 . S
Zn29 O30 1.962 . S
Zn29 O32 1.986 . S
Zn29 O34 1.996 . S
Zn29 O37 1.943 . S
O30 Zn29 1.962 . S
O30 C35 1.254 . S
O31 Zn28 2.031 . S
O31 C35 1.269 . S
O32 Zn29 1.986 . S
O32 C39 1.262 . S
O33 Zn28 2.049 . S
O33 C41 1.260 . S
O34 Zn29 1.996 . S
O34 C41 1.257 . S
C35 O30 1.254 . S
C35 O31 1.269 . S
C36 O37 1.249 . S
C36 O38 1.270 . S
O37 Zn29 1.943 . S
O37 C36 1.249 . S
O38 Zn28 2.067 . S
O38 C36 1.270 . S
C39 O32 1.262 . S
C39 O40 1.232 . S
O40 C39 1.232 . S
C41 O33 1.260 . S
C41 O34 1.257 . S
Zn42 O45 2.031 . S
Zn42 O47 2.049 . S
Zn42 O52 2.067 . S
Zn43 O44 1.962 . S
Zn43 O46 1.986 . S
Zn43 O48 1.996 . S
Zn43 O51 1.943 . S
O44 Zn43 1.962 . S
O44 C49 1.254 . S
O45 Zn42 2.031 . S
O45 C49 1.269 . S
O46 Zn43 1.986 . S
O46 C53 1.262 . S
O47 Zn42 2.049 . S
O47 C55 1.260 . S
O48 Zn43 1.996 . S
O48 C55 1.257 . S
C49 O44 1.254 . S
C49 O45 1.269 . S
C50 O51 1.249 . S
C50 O52 1.270 . S
O51 Zn43 1.943 . S
O51 C50 1.249 . S
O52 Zn42 2.067 . S
O52 C50 1.270 . S
C53 O46 1.262 . S
C53 O54 1.232 . S
O54 C53 1.232 . S
C55 O47 1.260 . S
C55 O48 1.257 . S
Zn56 O59 2.031 . S
Zn56 O61 2.049 . S
Zn56 O66 2.067 . S
Zn57 O58 1.962 . S
Zn57 O60 1.986 . S
Zn57 O62 1.996 . S
Zn57 O65 1.943 . S
O58 Zn57 1.962 . S
O58 C63 1.254 . S
O59 Zn56 2.031 . S
O59 C63 1.269 . S
O60 Zn57 1.986 . S
O60 C67 1.262 . S
O61 Zn56 2.049 . S
O61 C69 1.260 . S
O62 Zn57 1.996 . S
O62 C69 1.257 . S
C63 O58 1.254 . S
C63 O59 1.269 . S
C64 O65 1.249 . S
C64 O66 1.270 . S
O65 Zn57 1.943 . S
O65 C64 1.249 . S
O66 Zn56 2.067 . S
O66 C64 1.270 . S
C67 O60 1.262 . S
C67 O68 1.232 . S
O68 C67 1.232 . S
C69 O61 1.260 . S
C69 O62 1.257 . S
Zn70 O73 2.031 . S
Zn70 O75 2.049 . S
Zn70 O80 2.067 . S
Zn71 O72 1.962 . S
Zn71 O74 1.986 . S
Zn71 O76 1.996 . S
Zn71 O79 1.943 . S
O72 Zn71 1.962 . S
O72 C77 1.254 . S
O73 Zn70 2.031 . S
O73 C77 1.269 . S
O74 Zn71 1.986 . S
O74 C81 1.262 . S
O75 Zn70 2.049 . S
O75 C83 1.260 . S
O76 Zn71 1.996 . S
O76 C83 1.257 . S
C77 O72 1.254 . S
C77 O73 1.269 . S
C78 O79 1.249 . S
C78 O80 1.270 . S
O79 Zn71 1.943 . S
O79 C78 1.249 . S
O80 Zn70 2.067 . S
O80 C78 1.270 . S
C81 O74 1.262 . S
C81 O82 1.232 . S
O82 C81 1.232 . S
C83 O75 1.260 . S
C83 O76 1.257 . S
Zn84 O87 2.031 . S
Zn84 O89 2.049 . S
Zn84 O94 2.067 . S
Zn85 O86 1.962 . S
Zn85 O88 1.986 . S
Zn85 O90 1.996 . S
Zn85 O93 1.943 . S
O86 Zn85 1.962 . S
O86 C91 1.254 . S
O87 Zn84 2.031 . S
O87 C91 1.269 . S
O88 Zn85 1.986 . S
O88 C95 1.262 . S
O89 Zn84 2.049 . S
O89 C97 1.260 . S
O90 Zn85 1.996 . S
O90 C97 1.257 . S
C91 O86 1.254 . S
C91 O87 1.269 . S
C92 O93 1.249 . S
C92 O94 1.270 . S
O93 Zn85 1.943 . S
O93 C92 1.249 . S
O94 Zn84 2.067 . S
O94 C92 1.270 . S
C95 O88 1.262 . S
C95 O96 1.232 . S
O96 C95 1.232 . S
C97 O89 1.260 . S
C97 O90 1.257 . S
Zn98 O101 2.031 . S
Zn98 O103 2.049 . S
Zn98 O108 2.067 . S
Zn99 O100 1.962 . S
Zn99 O102 1.986 . S
Zn99 O104 1.996 . S
Zn99 O107 1.943 1_455 S
O100 Zn99 1.962 . S
O100 C105 1.279 . S
O101 Zn98 2.031 . S
O101 C105 1.247 1_655 S
O102 Zn99 1.986 . S
O102 C109 1.262 . S
O103 Zn98 2.049 . S
O103 C111 1.260 . S
O104 Zn99 1.996 . S
O104 C111 1.257 1_455 S
C105 O100 1.279 . S
C105 O101 1.247 1_455 S
C106 O107 1.249 . S
C106 O108 1.270 . S
O107 Zn99 1.943 1_655 S
O107 C106 1.249 . S
O108 Zn98 2.067 . S
O108 C106 1.270 . S
C109 O102 1.262 . S
C109 O110 1.232 . S
O110 C109 1.232 . S
C111 O103 1.260 . S
C111 O104 1.257 1_655 S
Zn112 O115 2.031 . S
Zn112 O117 2.049 . S
Zn112 O122 2.067 . S
Zn113 O114 1.962 . S
Zn113 O116 1.986 . S
Zn113 O118 1.996 . S
Zn113 O121 1.943 1_545 S
O114 Zn113 1.962 . S
O114 C119 1.254 . S
O115 Zn112 2.031 . S
O115 C119 1.269 1_565 S
O116 Zn113 1.986 . S
O116 C123 1.262 . S
O117 Zn112 2.049 . S
O117 C125 1.260 1_565 S
O118 Zn113 1.996 . S
O118 C125 1.257 . S
C119 O114 1.254 . S
C119 O115 1.269 1_545 S
C120 O121 1.249 . S
C120 O122 1.270 . S
O121 Zn113 1.943 1_565 S
O121 C120 1.249 . S
O122 Zn112 2.067 . S
O122 C120 1.270 . S
C123 O116 1.262 . S
C123 O124 1.232 . S
O124 C123 1.232 . S
C125 O117 1.260 1_545 S
C125 O118 1.257 . S
Zn126 O129 2.031 . S
Zn126 O131 2.049 . S
Zn126 O136 2.067 . S
Zn127 O128 1.962 . S
Zn127 O130 1.986 . S
Zn127 O132 1.996 . S
Zn127 O135 1.943 . S
O128 Zn127 1.962 . S
O128 C133 1.254 . S
O129 Zn126 2.031 . S
O129 C133 1.269 . S
O130 Zn127 1.986 . S
O130 C137 1.262 . S
O131 Zn126 2.049 . S
O131 C139 1.260 . S
O132 Zn127 1.996 . S
O132 C139 1.257 . S
C133 O128 1.254 . S
C133 O129 1.269 . S
C134 O135 1.249 . S
C134 O136 1.270 . S
O135 Zn127 1.943 . S
O135 C134 1.249 . S
O136 Zn126 2.067 . S
O136 C134 1.270 . S
C137 O130 1.262 . S
C137 O138 1.232 . S
O138 C137 1.232 . S
C139 O131 1.260 . S
C139 O132 1.257 . S
Zn140 O143 2.031 . S
Zn140 O145 2.049 . S
Zn140 O150 2.067 . S
Zn141 O142 1.962 . S
Zn141 O144 1.999 . S
Zn141 O146 1.996 . S
Zn141 O149 1.943 . S
O142 Zn141 1.962 . S
O142 C147 1.254 . S
O143 Zn140 2.031 . S
O143 C147 1.269 . S
O144 Zn141 1.999 . S
O144 C151 1.257 1_545 S
O145 Zn140 2.049 . S
O145 C153 1.260 . S
O146 Zn141 1.996 . S
O146 C153 1.257 . S
C147 O142 1.254 . S
C147 O143 1.269 . S
C148 O149 1.249 . S
C148 O150 1.270 . S
O149 Zn141 1.943 . S
O149 C148 1.249 . S
O150 Zn140 2.067 . S
O150 C148 1.270 . S
C151 O144 1.257 1_565 S
C151 O152 1.232 1_565 S
O152 C151 1.232 1_545 S
C153 O145 1.260 . S
C153 O146 1.257 . S
Zn154 O157 2.031 1_554 S
Zn154 O159 2.049 . S
Zn154 O164 2.067 . S
Zn155 O156 1.962 . S
Zn155 O158 1.986 1_556 S
Zn155 O160 1.996 1_556 S
Zn155 O163 1.943 1_556 S
O156 Zn155 1.962 . S
O156 C161 1.254 . S
O157 Zn154 2.031 1_556 S
O157 C161 1.269 . S
O158 Zn155 1.986 1_554 S
O158 C165 1.262 1_554 S
O159 Zn154 2.049 . S
O159 C167 1.260 . S
O160 Zn155 1.996 1_554 S
O160 C167 1.257 . S
C161 O156 1.254 . S
C161 O157 1.269 . S
C162 O163 1.249 . S
C162 O164 1.270 . S
O163 Zn155 1.943 1_554 S
O163 C162 1.249 . S
O164 Zn154 2.067 . S
O164 C162 1.270 . S
C165 O158 1.262 1_556 S
C165 O166 1.232 . S
O166 C165 1.232 . S
C167 O159 1.260 . S
C167 O160 1.257 . S
Zn168 O171 2.031 . S
Zn168 O173 2.049 . S
Zn168 O178 2.067 . S
Zn169 O170 1.962 . S
Zn169 O172 1.986 . S
Zn169 O174 1.996 . S
Zn169 O177 1.943 . S
O170 Zn169 1.962 . S
O170 C175 1.254 . S
O171 Zn168 2.031 . S
O171 C175 1.269 . S
O172 Zn169 1.986 . S
O172 C179 1.262 . S
O173 Zn168 2.049 . S
O173 C181 1.260 . S
O174 Zn169 1.996 . S
O174 C181 1.257 . S
C175 O170 1.254 . S
C175 O171 1.269 . S
C176 O177 1.249 . S
C176 O178 1.270 . S
O177 Zn169 1.943 . S
O177 C176 1.249 . S
O178 Zn168 2.067 . S
O178 C176 1.270 . S
C179 O172 1.262 . S
C179 O180 1.232 . S
O180 C179 1.232 . S
C181 O173 1.260 . S
C181 O174 1.257 . S
Zn182 O185 2.031 . S
Zn182 O187 2.049 . S
Zn182 O192 2.067 . S
Zn183 O184 1.962 . S
Zn183 O186 1.986 . S
Zn183 O188 1.996 . S
Zn183 O191 1.943 . S
O184 Zn183 1.962 . S
O184 C189 1.254 . S
O185 Zn182 2.031 . S
O185 C189 1.269 . S
O186 Zn183 1.986 . S
O186 C193 1.262 . S
O187 Zn182 2.049 . S
O187 C195 1.260 . S
O188 Zn183 1.996 . S
O188 C195 1.257 . S
C189 O184 1.254 . S
C189 O185 1.269 . S
C190 O191 1.249 . S
C190 O192 1.270 . S
O191 Zn183 1.943 . S
O191 C190 1.249 . S
O192 Zn182 2.067 . S
O192 C190 1.270 . S
C193 O186 1.262 . S
C193 O194 1.232 . S
O194 C193 1.232 . S
C195 O187 1.260 . S
C195 O188 1.257 . S
Zn196 O199 2.031 . S
Zn196 O201 2.049 . S
Zn196 O206 2.067 . S
Zn197 O198 1.962 . S
Zn197 O200 1.986 . S
Zn197 O202 1.996 . S
Zn197 O205 1.943 . S
O198 Zn197 1.962 . S
O198 C203 1.254 . S
O199 Zn196 2.031 . S
O199 C203 1.269 . S
O200 Zn197 1.986 . S
O200 C207 1.262 . S
O201 Zn196 2.049 . S
O201 C209 1.260 . S
O202 Zn197 1.996 . S
O202 C209 1.257 . S
C203 O198 1.254 . S
C203 O199 1.269 . S
C204 O205 1.249 . S
C204 O206 1.270 . S
O205 Zn197 1.943 . S
O205 C204 1.249 . S
O206 Zn196 2.067 . S
O206 C204 1.270 . S
C207 O200 1.262 . S
C207 O208 1.232 . S
O208 C207 1.232 . S
C209 O201 1.260 . S
C209 O202 1.257 . S
Zn210 O213 2.031 . S
Zn210 O215 2.049 . S
Zn210 O220 2.067 . S
Zn211 O212 1.962 . S
Zn211 O214 1.986 . S
Zn211 O216 1.996 . S
Zn211 O219 1.943 . S
O212 Zn211 1.962 . S
O212 C217 1.254 . S
O213 Zn210 2.031 . S
O213 C217 1.269 . S
O214 Zn211 1.986 . S
O214 C221 1.262 . S
O215 Zn210 2.049 . S
O215 C223 1.260 . S
O216 Zn211 1.996 . S
O216 C223 1.257 . S
C217 O212 1.254 . S
C217 O213 1.269 . S
C218 O219 1.249 . S
C218 O220 1.270 . S
O219 Zn211 1.943 . S
O219 C218 1.249 . S
O220 Zn210 2.067 . S
O220 C218 1.270 . S
C221 O214 1.262 . S
C221 O222 1.232 . S
O222 C221 1.232 . S
C223 O215 1.260 . S
C223 O216 1.257 . S
Zn224 O227 2.031 . S
Zn224 O229 2.049 . S
Zn224 O234 2.067 . S
Zn225 O226 1.962 . S
Zn225 O228 1.986 . S
Zn225 O230 1.996 . S
Zn225 O233 1.943 1_545 S
O226 Zn225 1.962 . S
O226 C231 1.254 . S
O227 Zn224 2.031 . S
O227 C231 1.269 1_565 S
O228 Zn225 1.986 . S
O228 C235 1.262 . S
O229 Zn224 2.049 . S
O229 C237 1.260 1_565 S
O230 Zn225 1.996 . S
O230 C237 1.257 . S
C231 O226 1.254 . S
C231 O227 1.269 1_545 S
C232 O233 1.249 . S
C232 O234 1.270 . S
O233 Zn225 1.943 1_565 S
O233 C232 1.249 . S
O234 Zn224 2.067 . S
O234 C232 1.270 . S
C235 O228 1.262 . S
C235 O236 1.232 . S
O236 C235 1.232 . S
C237 O229 1.260 1_545 S
C237 O230 1.257 . S
Zn238 O241 2.031 . S
Zn238 O243 2.049 . S
Zn238 O248 2.067 . S
Zn239 O240 1.962 . S
Zn239 O242 1.986 . S
Zn239 O244 1.996 . S
Zn239 O247 1.943 . S
O240 Zn239 1.962 . S
O240 C245 1.254 . S
O241 Zn238 2.031 . S
O241 C245 1.269 . S
O242 Zn239 1.986 . S
O242 C249 1.262 . S
O243 Zn238 2.049 . S
O243 C251 1.260 . S
O244 Zn239 1.996 . S
O244 C251 1.257 . S
C245 O240 1.254 . S
C245 O241 1.269 . S
C246 O247 1.249 . S
C246 O248 1.270 . S
O247 Zn239 1.943 . S
O247 C246 1.249 . S
O248 Zn238 2.067 . S
O248 C246 1.270 . S
C249 O242 1.262 . S
C249 O250 1.232 . S
O250 C249 1.232 . S
C251 O243 1.260 . S
C251 O244 1.257 . S
Zn252 O255 2.031 . S
Zn252 O257 2.049 . S
Zn252 O262 2.067 . S
Zn253 O254 1.962 . S
Zn253 O256 1.986 . S
Zn253 O258 1.996 . S
Zn253 O261 1.943 . S
O254 Zn253 1.962 . S
O254 C259 1.254 . S
O255 Zn252 2.031 . S
O255 C259 1.269 . S
O256 Zn253 1.986 . S
O256 C263 1.262 . S
O257 Zn252 2.049 . S
O257 C265 1.260 . S
O258 Zn253 1.996 . S
O258 C265 1.257 . S
C259 O254 1.254 . S
C259 O255 1.269 . S
C260 O261 1.249 . S
C260 O262 1.270 . S
O261 Zn253 1.943 . S
O261 C260 1.249 . S
O262 Zn252 2.067 . S
O262 C260 1.270 . S
C263 O256 1.262 . S
C263 O264 1.232 . S
O264 C263 1.232 . S
C265 O257 1.260 . S
C265 O258 1.257 . S
Zn266 O269 2.031 . S
Zn266 O271 2.049 . S
Zn266 O276 2.067 . S
Zn267 O268 1.962 . S
Zn267 O270 1.986 . S
Zn267 O272 1.996 . S
Zn267 O275 1.943 . S
O268 Zn267 1.962 . S
O268 C273 1.254 . S
O269 Zn266 2.031 . S
O269 C273 1.269 . S
O270 Zn267 1.986 . S
O270 C277 1.262 . S
O271 Zn266 2.049 . S
O271 C279 1.260 . S
O272 Zn267 1.996 . S
O272 C279 1.257 . S
C273 O268 1.254 . S
C273 O269 1.269 . S
C274 O275 1.249 . S
C274 O276 1.270 . S
O275 Zn267 1.943 . S
O275 C274 1.249 . S
O276 Zn266 2.067 . S
O276 C274 1.270 . S
C277 O270 1.262 . S
C277 O278 1.232 . S
O278 C277 1.232 . S
C279 O271 1.260 . S
C279 O272 1.257 . S
Zn280 O283 2.031 1_554 S
Zn280 O285 2.049 . S
Zn280 O290 2.067 . S
Zn281 O282 1.962 1_554 S
Zn281 O284 1.986 . S
Zn281 O286 1.996 . S
Zn281 O289 1.943 . S
O282 Zn281 1.962 1_556 S
O282 C287 1.254 . S
O283 Zn280 2.031 1_556 S
O283 C287 1.269 . S
O284 Zn281 1.986 . S
O284 C291 1.262 . S
O285 Zn280 2.049 . S
O285 C293 1.260 . S
O286 Zn281 1.996 . S
O286 C293 1.257 . S
C287 O282 1.254 . S
C287 O283 1.269 . S
C288 O289 1.249 . S
C288 O290 1.270 . S
O289 Zn281 1.943 . S
O289 C288 1.249 . S
O290 Zn280 2.067 . S
O290 C288 1.270 . S
C291 O284 1.262 . S
C291 O292 1.232 1_554 S
O292 C291 1.232 1_556 S
C293 O285 1.260 . S
C293 O286 1.257 . S
Zn294 O297 2.031 . S
Zn294 O299 2.049 . S
Zn294 O304 2.067 . S
Zn295 O296 1.962 . S
Zn295 O298 1.986 . S
Zn295 O300 1.996 . S
Zn295 O303 1.943 . S
O296 Zn295 1.962 . S
O296 C301 1.254 . S
O297 Zn294 2.031 . S
O297 C301 1.269 . S
O298 Zn295 1.986 . S
O298 C305 1.262 . S
O299 Zn294 2.049 . S
O299 C307 1.260 . S
O300 Zn295 1.996 . S
O300 C307 1.257 . S
C301 O296 1.254 . S
C301 O297 1.269 . S
C302 O303 1.249 . S
C302 O304 1.270 . S
O303 Zn295 1.943 . S
O303 C302 1.249 . S
O304 Zn294 2.067 . S
O304 C302 1.270 . S
C305 O298 1.262 . S
C305 O306 1.232 . S
O306 C305 1.232 . S
C307 O299 1.260 . S
C307 O300 1.257 . S
Zn308 O311 2.031 . S
Zn308 O313 2.049 . S
Zn308 O318 2.067 . S
Zn309 O310 1.962 . S
Zn309 O312 1.986 . S
Zn309 O314 1.996 . S
Zn309 O317 1.943 . S
O310 Zn309 1.962 . S
O310 C315 1.254 . S
O311 Zn308 2.031 . S
O311 C315 1.269 . S
O312 Zn309 1.986 . S
O312 C319 1.262 . S
O313 Zn308 2.049 . S
O313 C321 1.260 . S
O314 Zn309 1.996 . S
O314 C321 1.257 . S
C315 O310 1.254 . S
C315 O311 1.269 . S
C316 O317 1.249 . S
C316 O318 1.270 . S
O317 Zn309 1.943 . S
O317 C316 1.249 . S
O318 Zn308 2.067 . S
O318 C316 1.270 . S
C319 O312 1.262 . S
C319 O320 1.232 . S
O320 C319 1.232 . S
C321 O313 1.260 . S
C321 O314 1.257 . S
Zn322 O325 2.031 . S
Zn322 O327 2.049 . S
Zn322 O332 2.067 . S
Zn323 O324 1.962 . S
Zn323 O326 1.986 . S
Zn323 O328 1.996 . S
Zn323 O331 1.943 . S
O324 Zn323 1.962 . S
O324 C329 1.254 . S
O325 Zn322 2.031 . S
O325 C329 1.269 . S
O326 Zn323 1.986 . S
O326 C333 1.262 . S
O327 Zn322 2.049 . S
O327 C335 1.260 . S
O328 Zn323 1.996 . S
O328 C335 1.257 . S
C329 O324 1.254 . S
C329 O325 1.269 . S
C330 O331 1.249 . S
C330 O332 1.270 . S
O331 Zn323 1.943 . S
O331 C330 1.249 . S
O332 Zn322 2.067 . S
O332 C330 1.270 . S
C333 O326 1.262 . S
C333 O334 1.232 . S
O334 C333 1.232 . S
C335 O327 1.260 . S
C335 O328 1.257 . S
Tb336 N365 2.617 . S
Tb336 N371 2.572 . S
Tb336 O380 2.465 . S
Tb336 O381 2.387 . S
Tb336 O383 2.428 . S
Tb336 O384 2.308 . S
Tb336 O388 2.349 . S
Tb336 O391 2.393 . S
Tb336 C400 2.802 . S
C337 N338 1.379 . S
C337 C340 1.416 . S
C337 C344 1.424 1_556 S
N338 C337 1.379 . S
N338 C341 1.334 . S
N338 Tb347 2.614 1_666 S
C339 C341 1.390 . S
C339 C342 1.339 . S
C339 H359 0.930 . S
C340 C337 1.416 . S
C340 C342 1.416 . S
C340 C346 1.448 . S
C341 N338 1.334 . S
C341 C339 1.390 . S
C341 H352 0.930 . S
C342 C339 1.339 . S
C342 C340 1.416 . S
C342 H363 0.930 . S
C343 C344 1.413 . S
C343 C345 1.427 1_554 S
C343 C349 1.416 . S
C344 C337 1.424 1_554 S
C344 C343 1.413 . S
C344 N348 1.361 . S
C345 C343 1.427 1_556 S
C345 C346 1.328 . S
C345 H360 0.929 1_556 S
C346 C340 1.448 . S
C346 C345 1.328 . S
C346 H361 0.930 . S
Tb347 N338 2.614 1_444 S
Tb347 N348 2.559 1_445 S
Tb347 O382 2.353 . S
Tb347 O385 2.409 1_554 S
Tb347 O386 2.443 1_455 S
Tb347 O387 2.403 1_545 S
Tb347 O389 2.409 1_454 S
Tb347 O390 2.312 . S
Tb347 C411 2.779 1_455 S
N348 C344 1.361 . S
N348 Tb347 2.559 1_665 S
N348 C350 1.340 . S
C349 C343 1.416 . S
C349 C351 1.332 . S
C349 H357 0.931 . S
C350 N348 1.340 . S
C350 C351 1.407 . S
C350 H356 0.930 . S
C351 C349 1.332 . S
C351 C350 1.407 . S
C351 H353 0.929 . S
H352 C341 0.930 . S
H353 C351 0.929 . S
H354 C369 0.930 . S
H355 C376 0.929 1_556 S
H356 C350 0.930 . S
H357 C349 0.931 . S
H358 C372 0.930 . S
H359 C339 0.930 . S
H360 C345 0.929 1_554 S
H361 C346 0.930 . S
H362 C367 0.930 . S
H363 C342 0.930 . S
H364 C375 0.931 . S
N365 Tb336 2.617 . S
N365 C366 1.379 . S
N365 C369 1.334 . S
C366 N365 1.379 . S
C366 C368 1.416 . S
C366 C374 1.424 . S
C367 H362 0.930 . S
C367 C369 1.390 . S
C367 C370 1.339 . S
C368 C366 1.416 . S
C368 C370 1.416 . S
C368 C401 1.448 . S
C369 H354 0.930 . S
C369 N365 1.334 . S
C369 C367 1.390 . S
C370 C367 1.339 . S
C370 C368 1.416 . S
C370 H377 0.930 . S
N371 Tb336 2.572 . S
N371 C372 1.340 . S
N371 C374 1.361 . S
C372 H358 0.930 . S
C372 N371 1.340 . S
C372 C376 1.407 . S
C373 C374 1.413 . S
C373 C375 1.416 . S
C373 C402 1.427 . S
C374 C366 1.424 . S
C374 N371 1.361 . S
C374 C373 1.413 . S
C375 H364 0.931 . S
C375 C373 1.416 . S
C375 C376 1.332 . S
C376 H355 0.929 1_554 S
C376 C372 1.407 . S
C376 C375 1.332 . S
H377 C370 0.930 . S
H378 C401 0.930 . S
H379 C402 0.929 . S
O380 Tb336 2.465 . S
O380 C400 1.264 . S
O381 Tb336 2.387 . S
O381 C392 1.264 . S
O382 Tb347 2.353 . S
O382 C392 1.243 . S
O383 Tb336 2.428 . S
O383 C400 1.256 . S
O384 Tb336 2.308 . S
O384 C399 1.266 1_554 S
O385 Tb347 2.409 1_556 S
O385 C399 1.248 . S
O386 Tb347 2.443 1_655 S
O386 C411 1.264 . S
O387 Tb347 2.403 1_565 S
O387 C403 1.264 . S
O388 Tb336 2.349 . S
O388 C403 1.243 1_545 S
O389 Tb347 2.409 1_656 S
O389 C411 1.256 1_556 S
O390 Tb347 2.312 . S
O390 C410 1.266 . S
O391 Tb336 2.393 . S
O391 C410 1.248 . S
C392 O381 1.264 . S
C392 O382 1.243 . S
C393 C396 1.399 . S
C393 C398 1.383 . S
C393 C400 1.496 . S
C394 C395 1.399 . S
C394 C398 1.389 . S
C395 C394 1.399 . S
C395 C397 1.380 . S
C395 H412 0.922 1_545 S
C396 C393 1.399 . S
C396 C397 1.392 . S
C396 H413 0.929 . S
C397 C395 1.380 . S
C397 C396 1.392 . S
C397 H414 0.929 . S
C398 C393 1.383 . S
C398 C394 1.389 . S
C398 H415 0.931 . S
C399 O384 1.266 1_556 S
C399 O385 1.248 . S
C400 Tb336 2.802 . S
C400 O380 1.264 . S
C400 O383 1.256 . S
C400 C393 1.496 . S
C401 C368 1.448 . S
C401 H378 0.930 . S
C401 C402 1.328 . S
C402 C373 1.427 . S
C402 H379 0.929 . S
C402 C401 1.328 . S
C403 O387 1.264 . S
C403 O388 1.243 1_565 S
C404 C407 1.404 . S
C404 C408 1.379 1_556 S
C404 C411 1.495 1_556 S
C405 C406 1.399 1_554 S
C405 C408 1.389 . S
C406 C405 1.399 1_556 S
C406 C409 1.380 . S
C406 H416 0.929 . S
C407 C404 1.404 . S
C407 C409 1.392 . S
C407 H417 0.929 . S
C408 C404 1.379 1_554 S
C408 C405 1.389 . S
C408 H418 0.931 . S
C409 C406 1.380 . S
C409 C407 1.392 . S
C409 H419 0.929 . S
C410 O390 1.266 . S
C410 O391 1.248 . S
C411 Tb347 2.779 1_655 S
C411 O386 1.264 . S
C411 O389 1.256 1_554 S
C411 C404 1.495 1_554 S
H412 C395 0.922 1_565 S
H413 C396 0.929 . S
H414 C397 0.929 . S
H415 C398 0.931 . S
H416 C406 0.929 . S
H417 C407 0.929 . S
H418 C408 0.931 . S
H419 C409 0.929 . S
Tb420 N449 2.617 . S
Tb420 N455 2.572 . S
Tb420 O464 2.465 . S
Tb420 O465 2.387 . S
Tb420 O467 2.428 . S
Tb420 O468 2.308 . S
Tb420 O472 2.349 . S
Tb420 O475 2.393 . S
Tb420 C484 2.802 . S
C421 N422 1.379 . S
C421 C424 1.416 . S
C421 C428 1.424 . S
N422 C421 1.379 . S
N422 C425 1.334 . S
N422 Tb431 2.617 . S
C423 C425 1.390 . S
C423 C426 1.339 . S
C423 H443 0.930 . S
C424 C421 1.416 . S
C424 C426 1.416 . S
C424 C430 1.448 . S
C425 N422 1.334 . S
C425 C423 1.390 . S
C425 H436 0.930 . S
C426 C423 1.339 . S
C426 C424 1.416 . S
C426 H447 0.930 . S
C427 C428 1.413 . S
C427 C429 1.427 . S
C427 C433 1.416 . S
C428 C421 1.424 . S
C428 C427 1.413 . S
C428 N432 1.361 . S
C429 C427 1.427 . S
C429 C430 1.328 . S
C429 H444 0.929 . S
C430 C424 1.448 . S
C430 C429 1.328 . S
C430 H445 0.930 . S
Tb431 N422 2.617 . S
Tb431 N432 2.572 . S
Tb431 O466 2.349 . S
Tb431 O469 2.393 . S
Tb431 O470 2.465 . S
Tb431 O471 2.387 . S
Tb431 O473 2.428 . S
Tb431 O474 2.308 . S
Tb431 C495 2.802 . S
N432 C428 1.361 . S
N432 Tb431 2.572 . S
N432 C434 1.340 . S
C433 C427 1.416 . S
C433 C435 1.332 . S
C433 H441 0.931 . S
C434 N432 1.340 . S
C434 C435 1.407 . S
C434 H440 0.930 . S
C435 C433 1.332 . S
C435 C434 1.407 . S
C435 H437 0.929 . S
H436 C425 0.930 . S
H437 C435 0.929 . S
H438 C453 0.930 . S
H439 C460 0.929 . S
H440 C434 0.930 . S
H441 C433 0.931 . S
H442 C456 0.930 . S
H443 C423 0.930 . S
H444 C429 0.929 . S
H445 C430 0.930 . S
H446 C451 0.930 . S
H447 C426 0.930 . S
H448 C459 0.931 . S
N449 Tb420 2.617 . S
N449 C450 1.379 . S
N449 C453 1.334 . S
C450 N449 1.379 . S
C450 C452 1.416 . S
C450 C458 1.424 . S
C451 H446 0.930 . S
C451 C453 1.390 . S
C451 C454 1.339 . S
C452 C450 1.416 . S
C452 C454 1.416 . S
C452 C485 1.448 . S
C453 H438 0.930 . S
C453 N449 1.334 . S
C453 C451 1.390 . S
C454 C451 1.339 . S
C454 C452 1.416 . S
C454 H461 0.930 . S
N455 Tb420 2.572 . S
N455 C456 1.340 . S
N455 C458 1.361 . S
C456 H442 0.930 . S
C456 N455 1.340 . S
C456 C460 1.407 . S
C457 C458 1.413 . S
C457 C459 1.416 . S
C457 C486 1.427 . S
C458 C450 1.424 . S
C458 N455 1.361 . S
C458 C457 1.413 . S
C459 H448 0.931 . S
C459 C457 1.416 . S
C459 C460 1.332 . S
C460 H439 0.929 . S
C460 C456 1.407 . S
C460 C459 1.332 . S
H461 C454 0.930 . S
H462 C485 0.930 . S
H463 C486 0.929 . S
O464 Tb420 2.465 . S
O464 C484 1.264 . S
O465 Tb420 2.387 . S
O465 C476 1.264 . S
O466 Tb431 2.349 . S
O466 C476 1.243 . S
O467 Tb420 2.428 . S
O467 C484 1.256 . S
O468 Tb420 2.308 . S
O468 C483 1.266 . S
O469 Tb431 2.393 . S
O469 C483 1.248 . S
O470 Tb431 2.465 . S
O470 C495 1.264 . S
O471 Tb431 2.387 . S
O471 C487 1.264 . S
O472 Tb420 2.349 . S
O472 C487 1.243 . S
O473 Tb431 2.428 . S
O473 C495 1.256 . S
O474 Tb431 2.308 . S
O474 C494 1.266 . S
O475 Tb420 2.393 . S
O475 C494 1.248 . S
C476 O465 1.264 . S
C476 O466 1.243 . S
C477 C480 1.399 . S
C477 C482 1.383 . S
C477 C484 1.496 . S
C478 C479 1.399 . S
C478 C482 1.389 . S
C479 C478 1.399 . S
C479 C481 1.380 . S
C479 H496 0.929 . S
C480 C477 1.399 . S
C480 C481 1.392 . S
C480 H497 0.929 . S
C481 C479 1.380 . S
C481 C480 1.392 . S
C481 H498 0.929 . S
C482 C477 1.383 . S
C482 C478 1.389 . S
C482 H499 0.931 . S
C483 O468 1.266 . S
C483 O469 1.248 . S
C484 Tb420 2.802 . S
C484 O464 1.264 . S
C484 O467 1.256 . S
C484 C477 1.496 . S
C485 C452 1.448 . S
C485 H462 0.930 . S
C485 C486 1.328 . S
C486 C457 1.427 . S
C486 H463 0.929 . S
C486 C485 1.328 . S
C487 O471 1.264 . S
C487 O472 1.243 . S
C488 C491 1.399 . S
C488 C492 1.383 . S
C488 C495 1.496 . S
C489 C490 1.399 . S
C489 C492 1.389 . S
C490 C489 1.399 . S
C490 C493 1.380 . S
C490 H500 0.929 . S
C491 C488 1.399 . S
C491 C493 1.392 . S
C491 H501 0.929 . S
C492 C488 1.383 . S
C492 C489 1.389 . S
C492 H502 0.931 . S
C493 C490 1.380 . S
C493 C491 1.392 . S
C493 H503 0.929 . S
C494 O474 1.266 . S
C494 O475 1.248 . S
C495 Tb431 2.802 . S
C495 O470 1.264 . S
C495 O473 1.256 . S
C495 C488 1.496 . S
H496 C479 0.929 . S
H497 C480 0.929 . S
H498 C481 0.929 . S
H499 C482 0.931 . S
H500 C490 0.929 . S
H501 C491 0.929 . S
H502 C492 0.931 . S
H503 C493 0.929 . S
Tb504 N533 2.617 1_545 S
Tb504 N539 2.572 1_545 S
Tb504 O548 2.465 . S
Tb504 O549 2.387 1_545 S
Tb504 O551 2.428 . S
Tb504 O552 2.308 . S
Tb504 O556 2.349 . S
Tb504 O559 2.393 . S
Tb504 C568 2.802 . S
C505 N506 1.379 . S
C505 C508 1.416 . S
C505 C512 1.424 . S
N506 C505 1.379 . S
N506 C509 1.334 . S
N506 Tb515 2.617 . S
C507 C509 1.390 . S
C507 C510 1.339 . S
C507 H527 0.930 . S
C508 C505 1.416 . S
C508 C510 1.416 . S
C508 C514 1.448 . S
C509 N506 1.334 . S
C509 C507 1.390 . S
C509 H520 0.930 . S
C510 C507 1.339 . S
C510 C508 1.416 . S
C510 H531 0.930 . S
C511 C512 1.413 . S
C511 C513 1.427 . S
C511 C517 1.416 . S
C512 C505 1.424 . S
C512 C511 1.413 . S
C512 N516 1.361 . S
C513 C511 1.427 . S
C513 C514 1.328 . S
C513 H528 0.929 . S
C514 C508 1.448 . S
C514 C513 1.328 . S
C514 H529 0.930 . S
Tb515 N506 2.617 . S
Tb515 N516 2.572 . S
Tb515 O550 2.349 1_545 S
Tb515 O553 2.393 . S
Tb515 O554 2.465 . S
Tb515 O555 2.387 . S
Tb515 O557 2.428 . S
Tb515 O558 2.308 . S
Tb515 C579 2.802 . S
N516 C512 1.361 . S
N516 Tb515 2.572 . S
N516 C518 1.340 . S
C517 C511 1.416 . S
C517 C519 1.332 . S
C517 H525 0.931 . S
C518 N516 1.340 . S
C518 C519 1.407 . S
C518 H524 0.930 . S
C519 C517 1.332 . S
C519 C518 1.407 . S
C519 H521 0.929 . S
H520 C509 0.930 . S
H521 C519 0.929 . S
H522 C537 0.930 1_545 S
H523 C544 0.929 . S
H524 C518 0.930 . S
H525 C517 0.931 . S
H526 C540 0.930 . S
H527 C507 0.930 . S
H528 C513 0.929 . S
H529 C514 0.930 . S
H530 C535 0.930 . S
H531 C510 0.930 . S
H532 C543 0.931 . S
N533 Tb504 2.617 1_565 S
N533 C534 1.379 . S
N533 C537 1.334 . S
C534 N533 1.379 . S
C534 C536 1.416 . S
C534 C542 1.424 . S
C535 H530 0.930 . S
C535 C537 1.390 . S
C535 C538 1.339 . S
C536 C534 1.416 . S
C536 C538 1.416 . S
C536 C569 1.448 . S
C537 H522 0.930 1_565 S
C537 N533 1.334 . S
C537 C535 1.390 . S
C538 C535 1.339 . S
C538 C536 1.416 . S
C538 H545 0.930 . S
N539 Tb504 2.572 1_565 S
N539 C540 1.340 . S
N539 C542 1.361 . S
C540 H526 0.930 . S
C540 N539 1.340 . S
C540 C544 1.407 . S
C541 C542 1.413 . S
C541 C543 1.416 . S
C541 C570 1.427 . S
C542 C534 1.424 . S
C542 N539 1.361 . S
C542 C541 1.413 . S
C543 H532 0.931 . S
C543 C541 1.416 . S
C543 C544 1.332 . S
C544 H523 0.929 . S
C544 C540 1.407 . S
C544 C543 1.332 . S
H545 C538 0.930 . S
H546 C569 0.930 . S
H547 C570 0.929 . S
O548 Tb504 2.465 . S
O548 C568 1.264 . S
O549 Tb504 2.387 1_565 S
O549 C560 1.264 . S
O550 Tb515 2.349 1_565 S
O550 C560 1.243 . S
O551 Tb504 2.428 . S
O551 C568 1.256 . S
O552 Tb504 2.308 . S
O552 C567 1.266 . S
O553 Tb515 2.393 . S
O553 C567 1.248 . S
O554 Tb515 2.465 . S
O554 C579 1.264 . S
O555 Tb515 2.387 . S
O555 C571 1.264 . S
O556 Tb504 2.349 . S
O556 C571 1.243 . S
O557 Tb515 2.428 . S
O557 C579 1.256 . S
O558 Tb515 2.308 . S
O558 C578 1.266 . S
O559 Tb504 2.393 . S
O559 C578 1.248 . S
C560 O549 1.264 . S
C560 O550 1.243 . S
C561 C564 1.399 . S
C561 C566 1.383 . S
C561 C568 1.496 . S
C562 C563 1.399 . S
C562 C566 1.389 . S
C563 C562 1.399 . S
C563 C565 1.380 . S
C563 H580 0.929 . S
C564 C561 1.399 . S
C564 C565 1.392 . S
C564 H581 0.929 . S
C565 C563 1.380 . S
C565 C564 1.392 . S
C565 H582 0.929 . S
C566 C561 1.383 . S
C566 C562 1.389 . S
C566 H583 0.931 . S
C567 O552 1.266 . S
C567 O553 1.248 . S
C568 Tb504 2.802 . S
C568 O548 1.264 . S
C568 O551 1.256 . S
C568 C561 1.496 . S
C569 C536 1.448 . S
C569 H546 0.930 . S
C569 C570 1.328 . S
C570 C541 1.427 . S
C570 H547 0.929 . S
C570 C569 1.328 . S
C571 O555 1.264 . S
C571 O556 1.243 . S
C572 C575 1.399 . S
C572 C576 1.383 . S
C572 C579 1.496 1_565 S
C573 C574 1.399 . S
C573 C576 1.389 . S
C574 C573 1.399 . S
C574 C577 1.380 . S
C574 H584 0.929 . S
C575 C572 1.399 . S
C575 C577 1.392 . S
C575 H585 0.929 . S
C576 C572 1.383 . S
C576 C573 1.389 . S
C576 H586 0.931 . S
C577 C574 1.380 . S
C577 C575 1.392 . S
C577 H587 0.929 . S
C578 O558 1.266 . S
C578 O559 1.248 . S
C579 Tb515 2.802 . S
C579 O554 1.264 . S
C579 O557 1.256 . S
C579 C572 1.496 1_545 S
H580 C563 0.929 . S
H581 C564 0.929 . S
H582 C565 0.929 . S
H583 C566 0.931 . S
H584 C574 0.929 . S
H585 C575 0.929 . S
H586 C576 0.931 . S
H587 C577 0.929 . S
Tb588 N617 2.617 . S
Tb588 N623 2.572 . S
Tb588 O632 2.465 . S
Tb588 O633 2.387 . S
Tb588 O635 2.428 . S
Tb588 O636 2.308 . S
Tb588 O640 2.349 . S
Tb588 O643 2.393 . S
Tb588 C652 2.802 . S
C589 N590 1.379 . S
C589 C592 1.416 . S
C589 C596 1.424 . S
N590 C589 1.379 . S
N590 C593 1.334 . S
N590 Tb599 2.617 . S
C591 C593 1.390 . S
C591 C594 1.339 . S
C591 H611 0.930 . S
C592 C589 1.416 . S
C592 C594 1.416 . S
C592 C598 1.448 . S
C593 N590 1.334 . S
C593 C591 1.390 . S
C593 H604 0.930 . S
C594 C591 1.339 . S
C594 C592 1.416 . S
C594 H615 0.930 . S
C595 C596 1.413 . S
C595 C597 1.427 . S
C595 C601 1.416 . S
C596 C589 1.424 . S
C596 C595 1.413 . S
C596 N600 1.361 . S
C597 C595 1.427 . S
C597 C598 1.328 . S
C597 H612 0.929 . S
C598 C592 1.448 . S
C598 C597 1.328 . S
C598 H613 0.930 . S
Tb599 N590 2.617 . S
Tb599 N600 2.572 . S
Tb599 O634 2.349 . S
Tb599 O637 2.393 . S
Tb599 O638 2.465 . S
Tb599 O639 2.387 . S
Tb599 O641 2.428 . S
Tb599 O642 2.308 . S
Tb599 C663 2.802 . S
N600 C596 1.361 . S
N600 Tb599 2.572 . S
N600 C602 1.340 . S
C601 C595 1.416 . S
C601 C603 1.332 . S
C601 H609 0.931 . S
C602 N600 1.340 . S
C602 C603 1.407 . S
C602 H608 0.930 . S
C603 C601 1.332 . S
C603 C602 1.407 . S
C603 H605 0.929 . S
H604 C593 0.930 . S
H605 C603 0.929 . S
H606 C621 0.930 . S
H607 C628 0.929 . S
H608 C602 0.930 . S
H609 C601 0.931 . S
H610 C624 0.930 . S
H611 C591 0.930 . S
H612 C597 0.929 . S
H613 C598 0.930 . S
H614 C619 0.930 . S
H615 C594 0.930 . S
H616 C627 0.931 . S
N617 Tb588 2.617 . S
N617 C618 1.379 . S
N617 C621 1.334 . S
C618 N617 1.379 . S
C618 C620 1.416 . S
C618 C626 1.424 . S
C619 H614 0.930 . S
C619 C621 1.390 . S
C619 C622 1.339 . S
C620 C618 1.416 . S
C620 C622 1.416 . S
C620 C653 1.448 . S
C621 H606 0.930 . S
C621 N617 1.334 . S
C621 C619 1.390 . S
C622 C619 1.339 . S
C622 C620 1.416 . S
C622 H629 0.930 . S
N623 Tb588 2.572 . S
N623 C624 1.340 . S
N623 C626 1.361 . S
C624 H610 0.930 . S
C624 N623 1.340 . S
C624 C628 1.407 . S
C625 C626 1.413 . S
C625 C627 1.416 . S
C625 C654 1.427 . S
C626 C618 1.424 . S
C626 N623 1.361 . S
C626 C625 1.413 . S
C627 H616 0.931 . S
C627 C625 1.416 . S
C627 C628 1.332 . S
C628 H607 0.929 . S
C628 C624 1.407 . S
C628 C627 1.332 . S
H629 C622 0.930 . S
H630 C653 0.930 . S
H631 C654 0.929 . S
O632 Tb588 2.465 . S
O632 C652 1.264 . S
O633 Tb588 2.387 . S
O633 C644 1.264 . S
O634 Tb599 2.349 . S
O634 C644 1.243 . S
O635 Tb588 2.428 . S
O635 C652 1.256 . S
O636 Tb588 2.308 . S
O636 C651 1.266 . S
O637 Tb599 2.393 . S
O637 C651 1.248 . S
O638 Tb599 2.465 . S
O638 C663 1.264 . S
O639 Tb599 2.387 . S
O639 C655 1.264 . S
O640 Tb588 2.349 . S
O640 C655 1.243 . S
O641 Tb599 2.428 . S
O641 C663 1.256 . S
O642 Tb599 2.308 . S
O642 C662 1.266 . S
O643 Tb588 2.393 . S
O643 C662 1.248 . S
C644 O633 1.264 . S
C644 O634 1.243 . S
C645 C648 1.399 . S
C645 C650 1.383 . S
C645 C652 1.496 . S
C646 C647 1.399 . S
C646 C650 1.389 . S
C647 C646 1.399 . S
C647 C649 1.380 . S
C647 H664 0.929 . S
C648 C645 1.399 . S
C648 C649 1.392 . S
C648 H665 0.929 . S
C649 C647 1.380 . S
C649 C648 1.392 . S
C649 H666 0.929 . S
C650 C645 1.383 . S
C650 C646 1.389 . S
C650 H667 0.931 . S
C651 O636 1.266 . S
C651 O637 1.248 . S
C652 Tb588 2.802 . S
C652 O632 1.264 . S
C652 O635 1.256 . S
C652 C645 1.496 . S
C653 C620 1.448 . S
C653 H630 0.930 . S
C653 C654 1.328 . S
C654 C625 1.427 . S
C654 H631 0.929 . S
C654 C653 1.328 . S
C655 O639 1.264 . S
C655 O640 1.243 . S
C656 C659 1.399 . S
C656 C660 1.383 . S
C656 C663 1.496 . S
C657 C658 1.399 . S
C657 C660 1.389 . S
C658 C657 1.399 . S
C658 C661 1.380 . S
C658 H668 0.929 . S
C659 C656 1.399 . S
C659 C661 1.392 . S
C659 H669 0.929 . S
C660 C656 1.383 . S
C660 C657 1.389 . S
C660 H670 0.931 . S
C661 C658 1.380 . S
C661 C659 1.392 . S
C661 H671 0.929 . S
C662 O642 1.266 . S
C662 O643 1.248 . S
C663 Tb599 2.802 . S
C663 O638 1.264 . S
C663 O641 1.256 . S
C663 C656 1.496 . S
H664 C647 0.929 . S
H665 C648 0.929 . S
H666 C649 0.929 . S
H667 C650 0.931 . S
H668 C658 0.929 . S
H669 C659 0.929 . S
H670 C660 0.931 . S
H671 C661 0.929 . S
Tb672 N701 2.617 . S
Tb672 N707 2.572 . S
Tb672 O716 2.465 . S
Tb672 O717 2.387 1_565 S
Tb672 O719 2.428 . S
Tb672 O720 2.317 . S
Tb672 O724 2.349 1_565 S
Tb672 O727 2.393 1_565 S
Tb672 C736 2.802 . S
C673 N674 1.379 1_455 S
C673 C676 1.416 1_455 S
C673 C680 1.424 . S
N674 C673 1.379 1_655 S
N674 C677 1.334 . S
N674 Tb683 2.617 1_655 S
C675 C677 1.390 . S
C675 C678 1.339 . S
C675 H695 0.930 . S
C676 C673 1.416 1_655 S
C676 C678 1.416 . S
C676 C682 1.448 1_655 S
C677 N674 1.334 . S
C677 C675 1.390 . S
C677 H688 0.930 . S
C678 C675 1.339 . S
C678 C676 1.416 . S
C678 H699 0.930 . S
C679 C680 1.413 . S
C679 C681 1.427 . S
C679 C685 1.416 . S
C680 C673 1.424 . S
C680 C679 1.413 . S
C680 N684 1.361 . S
C681 C679 1.427 . S
C681 C682 1.328 . S
C681 H696 0.929 . S
C682 C676 1.448 1_455 S
C682 C681 1.328 . S
C682 H697 0.947 . S
Tb683 N674 2.617 1_455 S
Tb683 N684 2.572 . S
Tb683 O718 2.349 . S
Tb683 O721 2.393 1_455 S
Tb683 O722 2.465 . S
Tb683 O723 2.387 . S
Tb683 O725 2.428 1_455 S
Tb683 O726 2.308 . S
Tb683 C747 2.802 . S
N684 C680 1.361 . S
N684 Tb683 2.572 . S
N684 C686 1.340 . S
C685 C679 1.416 . S
C685 C687 1.332 . S
C685 H693 0.931 . S
C686 N684 1.340 . S
C686 C687 1.407 . S
C686 H692 0.930 . S
C687 C685 1.332 . S
C687 C686 1.407 . S
C687 H689 0.929 . S
H688 C677 0.930 . S
H689 C687 0.929 . S
H690 C705 0.930 1_545 S
H691 C712 0.929 . S
H692 C686 0.930 . S
H693 C685 0.931 . S
H694 C708 0.952 . S
H695 C675 0.930 . S
H696 C681 0.929 . S
H697 C682 0.947 . S
H698 C703 0.930 . S
H699 C678 0.930 . S
H700 C711 0.931 . S
N701 Tb672 2.617 . S
N701 C702 1.379 . S
N701 C705 1.334 . S
C702 N701 1.379 . S
C702 C704 1.416 . S
C702 C710 1.424 . S
C703 H698 0.930 . S
C703 C705 1.390 . S
C703 C706 1.339 . S
C704 C702 1.416 . S
C704 C706 1.416 . S
C704 C737 1.448 . S
C705 H690 0.930 1_565 S
C705 N701 1.334 . S
C705 C703 1.390 . S
C706 C703 1.339 . S
C706 C704 1.416 . S
C706 H713 0.930 . S
N707 Tb672 2.572 . S
N707 C708 1.308 1_455 S
N707 C710 1.361 . S
C708 H694 0.952 . S
C708 N707 1.308 1_655 S
C708 C712 1.419 . S
C709 C710 1.413 . S
C709 C711 1.416 1_455 S
C709 C738 1.427 . S
C710 C702 1.424 . S
C710 N707 1.361 . S
C710 C709 1.413 . S
C711 H700 0.931 . S
C711 C709 1.416 1_655 S
C711 C712 1.332 . S
C712 H691 0.929 . S
C712 C708 1.419 . S
C712 C711 1.332 . S
H713 C706 0.930 . S
H714 C737 0.930 . S
H715 C738 0.929 . S
O716 Tb672 2.465 . S
O716 C736 1.264 . S
O717 Tb672 2.387 1_545 S
O717 C728 1.264 . S
O718 Tb683 2.349 . S
O718 C728 1.243 . S
O719 Tb672 2.428 . S
O719 C736 1.256 . S
O720 Tb672 2.317 . S
O720 C735 1.252 1_465 S
O721 Tb683 2.393 1_655 S
O721 C735 1.248 . S
O722 Tb683 2.465 . S
O722 C747 1.264 . S
O723 Tb683 2.387 . S
O723 C739 1.264 . S
O724 Tb672 2.349 1_545 S
O724 C739 1.243 . S
O725 Tb683 2.428 1_655 S
O725 C747 1.256 1_655 S
O726 Tb683 2.308 . S
O726 C746 1.266 . S
O727 Tb672 2.393 1_545 S
O727 C746 1.248 . S
C728 O717 1.264 . S
C728 O718 1.243 . S
C729 C732 1.399 . S
C729 C734 1.383 . S
C729 C736 1.496 . S
C730 C731 1.399 . S
C730 C734 1.389 . S
C731 C730 1.399 . S
C731 C733 1.380 . S
C731 H748 0.929 . S
C732 C729 1.399 . S
C732 C733 1.392 . S
C732 H749 0.929 . S
C733 C731 1.380 . S
C733 C732 1.392 . S
C733 H750 0.929 . S
C734 C729 1.383 . S
C734 C730 1.389 . S
C734 H751 0.931 . S
C735 O720 1.252 1_645 S
C735 O721 1.248 . S
C736 Tb672 2.802 . S
C736 O716 1.264 . S
C736 O719 1.256 . S
C736 C729 1.496 . S
C737 C704 1.448 . S
C737 H714 0.930 . S
C737 C738 1.328 . S
C738 C709 1.427 . S
C738 H715 0.929 . S
C738 C737 1.328 . S
C739 O723 1.264 . S
C739 O724 1.243 . S
C740 C743 1.399 1_455 S
C740 C744 1.383 . S
C740 C747 1.496 . S
C741 C742 1.399 . S
C741 C744 1.389 . S
C742 C741 1.399 . S
C742 C745 1.380 1_455 S
C742 H752 0.928 1_455 S
C743 C740 1.399 1_655 S
C743 C745 1.392 . S
C743 H753 0.929 . S
C744 C740 1.383 . S
C744 C741 1.389 . S
C744 H754 0.931 . S
C745 C742 1.380 1_655 S
C745 C743 1.392 . S
C745 H755 0.929 . S
C746 O726 1.266 . S
C746 O727 1.248 . S
C747 Tb683 2.802 . S
C747 O722 1.264 . S
C747 O725 1.256 1_455 S
C747 C740 1.496 . S
H748 C731 0.929 . S
H749 C732 0.929 . S
H750 C733 0.929 . S
H751 C734 0.931 . S
H752 C742 0.928 1_655 S
H753 C743 0.929 . S
H754 C744 0.931 . S
H755 C745 0.929 . S
Tb756 N785 2.617 . S
Tb756 N791 2.572 . S
Tb756 O800 2.465 . S
Tb756 O801 2.387 . S
Tb756 O803 2.428 . S
Tb756 O804 2.308 . S
Tb756 O808 2.349 . S
Tb756 O811 2.393 . S
Tb756 C820 2.802 . S
C757 N758 1.379 . S
C757 C760 1.416 . S
C757 C764 1.424 . S
N758 C757 1.379 . S
N758 C761 1.334 . S
N758 Tb767 2.617 . S
C759 C761 1.390 . S
C759 C762 1.339 . S
C759 H779 0.930 . S
C760 C757 1.416 . S
C760 C762 1.416 . S
C760 C766 1.448 . S
C761 N758 1.334 . S
C761 C759 1.390 . S
C761 H772 0.930 . S
C762 C759 1.339 . S
C762 C760 1.416 . S
C762 H783 0.930 . S
C763 C764 1.413 . S
C763 C765 1.427 . S
C763 C769 1.416 . S
C764 C757 1.424 . S
C764 C763 1.413 . S
C764 N768 1.361 . S
C765 C763 1.427 . S
C765 C766 1.328 . S
C765 H780 0.929 . S
C766 C760 1.448 . S
C766 C765 1.328 . S
C766 H781 0.930 . S
Tb767 N758 2.617 . S
Tb767 N768 2.572 . S
Tb767 O802 2.349 . S
Tb767 O805 2.393 . S
Tb767 O806 2.465 . S
Tb767 O807 2.387 . S
Tb767 O809 2.428 . S
Tb767 O810 2.308 . S
Tb767 C831 2.802 . S
N768 C764 1.361 . S
N768 Tb767 2.572 . S
N768 C770 1.340 . S
C769 C763 1.416 . S
C769 C771 1.332 . S
C769 H777 0.931 . S
C770 N768 1.340 . S
C770 C771 1.407 . S
C770 H776 0.930 . S
C771 C769 1.332 . S
C771 C770 1.407 . S
C771 H773 0.929 . S
H772 C761 0.930 . S
H773 C771 0.929 . S
H774 C789 0.930 . S
H775 C796 0.929 . S
H776 C770 0.930 . S
H777 C769 0.931 . S
H778 C792 0.930 . S
H779 C759 0.930 . S
H780 C765 0.929 . S
H781 C766 0.930 . S
H782 C787 0.930 . S
H783 C762 0.930 . S
H784 C795 0.931 . S
N785 Tb756 2.617 . S
N785 C786 1.379 . S
N785 C789 1.334 . S
C786 N785 1.379 . S
C786 C788 1.416 . S
C786 C794 1.424 . S
C787 H782 0.930 . S
C787 C789 1.390 . S
C787 C790 1.339 . S
C788 C786 1.416 . S
C788 C790 1.416 . S
C788 C821 1.448 . S
C789 H774 0.930 . S
C789 N785 1.334 . S
C789 C787 1.390 . S
C790 C787 1.339 . S
C790 C788 1.416 . S
C790 H797 0.930 . S
N791 Tb756 2.572 . S
N791 C792 1.340 . S
N791 C794 1.361 . S
C792 H778 0.930 . S
C792 N791 1.340 . S
C792 C796 1.407 . S
C793 C794 1.413 . S
C793 C795 1.416 . S
C793 C822 1.427 . S
C794 C786 1.424 . S
C794 N791 1.361 . S
C794 C793 1.413 . S
C795 H784 0.931 . S
C795 C793 1.416 . S
C795 C796 1.332 . S
C796 H775 0.929 . S
C796 C792 1.407 . S
C796 C795 1.332 . S
H797 C790 0.930 . S
H798 C821 0.930 . S
H799 C822 0.929 . S
O800 Tb756 2.465 . S
O800 C820 1.264 . S
O801 Tb756 2.387 . S
O801 C812 1.264 . S
O802 Tb767 2.349 . S
O802 C812 1.243 . S
O803 Tb756 2.428 . S
O803 C820 1.256 . S
O804 Tb756 2.308 . S
O804 C819 1.266 . S
O805 Tb767 2.393 . S
O805 C819 1.248 . S
O806 Tb767 2.465 . S
O806 C831 1.264 . S
O807 Tb767 2.387 . S
O807 C823 1.264 . S
O808 Tb756 2.349 . S
O808 C823 1.243 . S
O809 Tb767 2.428 . S
O809 C831 1.256 . S
O810 Tb767 2.308 . S
O810 C830 1.266 . S
O811 Tb756 2.393 . S
O811 C830 1.248 . S
C812 O801 1.264 . S
C812 O802 1.243 . S
C813 C816 1.399 . S
C813 C818 1.383 . S
C813 C820 1.496 . S
C814 C815 1.399 . S
C814 C818 1.389 . S
C815 C814 1.399 . S
C815 C817 1.380 . S
C815 H832 0.929 . S
C816 C813 1.399 . S
C816 C817 1.392 . S
C816 H833 0.929 . S
C817 C815 1.380 . S
C817 C816 1.392 . S
C817 H834 0.929 . S
C818 C813 1.383 . S
C818 C814 1.389 . S
C818 H835 0.931 . S
C819 O804 1.266 . S
C819 O805 1.248 . S
C820 Tb756 2.802 . S
C820 O800 1.264 . S
C820 O803 1.256 . S
C820 C813 1.496 . S
C821 C788 1.448 . S
C821 H798 0.930 . S
C821 C822 1.328 . S
C822 C793 1.427 . S
C822 H799 0.929 . S
C822 C821 1.328 . S
C823 O807 1.264 . S
C823 O808 1.243 . S
C824 C827 1.399 . S
C824 C828 1.383 . S
C824 C831 1.496 . S
C825 C826 1.399 . S
C825 C828 1.389 . S
C826 C825 1.399 . S
C826 C829 1.380 . S
C826 H836 0.929 . S
C827 C824 1.399 . S
C827 C829 1.392 . S
C827 H837 0.929 . S
C828 C824 1.383 . S
C828 C825 1.389 . S
C828 H838 0.931 . S
C829 C826 1.380 . S
C829 C827 1.392 . S
C829 H839 0.929 . S
C830 O810 1.266 . S
C830 O811 1.248 . S
C831 Tb767 2.802 . S
C831 O806 1.264 . S
C831 O809 1.256 . S
C831 C824 1.496 . S
H832 C815 0.929 . S
H833 C816 0.929 . S
H834 C817 0.929 . S
H835 C818 0.931 . S
H836 C826 0.929 . S
H837 C827 0.929 . S
H838 C828 0.931 . S
H839 C829 0.929 . S
Tb840 N869 2.617 . S
Tb840 N875 2.572 . S
Tb840 O884 2.465 . S
Tb840 O885 2.387 1_556 S
Tb840 O887 2.428 . S
Tb840 O888 2.308 . S
Tb840 O892 2.349 1_556 S
Tb840 O895 2.393 1_556 S
Tb840 C904 2.802 . S
C841 N842 1.379 1_545 S
C841 C844 1.416 1_545 S
C841 C848 1.424 . S
N842 C841 1.379 1_565 S
N842 C845 1.334 . S
N842 Tb851 2.617 1_565 S
C843 C845 1.390 . S
C843 C846 1.339 . S
C843 H863 0.930 . S
C844 C841 1.416 1_565 S
C844 C846 1.416 . S
C844 C850 1.448 1_565 S
C845 N842 1.334 . S
C845 C843 1.390 . S
C845 H856 0.930 . S
C846 C843 1.339 . S
C846 C844 1.416 . S
C846 H867 0.930 . S
C847 C848 1.413 . S
C847 C849 1.427 . S
C847 C853 1.416 . S
C848 C841 1.424 . S
C848 C847 1.413 . S
C848 N852 1.361 . S
C849 C847 1.427 . S
C849 C850 1.328 . S
C849 H864 0.929 . S
C850 C844 1.448 1_545 S
C850 C849 1.328 . S
C850 H865 0.930 1_545 S
Tb851 N842 2.617 1_545 S
Tb851 N852 2.572 . S
Tb851 O886 2.349 . S
Tb851 O889 2.393 1_545 S
Tb851 O890 2.465 . S
Tb851 O891 2.387 . S
Tb851 O893 2.428 1_545 S
Tb851 O894 2.308 . S
Tb851 C915 2.802 . S
N852 C848 1.361 . S
N852 Tb851 2.572 . S
N852 C854 1.340 . S
C853 C847 1.416 . S
C853 C855 1.332 . S
C853 H861 0.931 . S
C854 N852 1.340 . S
C854 C855 1.407 . S
C854 H860 0.930 . S
C855 C853 1.332 . S
C855 C854 1.407 . S
C855 H857 0.929 . S
H856 C845 0.930 . S
H857 C855 0.929 . S
H858 C873 0.930 . S
H859 C880 0.929 . S
H860 C854 0.930 . S
H861 C853 0.931 . S
H862 C876 0.976 . S
H863 C843 0.930 . S
H864 C849 0.929 . S
H865 C850 0.930 1_565 S
H866 C871 0.930 . S
H867 C846 0.930 . S
H868 C879 0.916 1_565 S
N869 Tb840 2.617 . S
N869 C870 1.379 . S
N869 C873 1.334 . S
C870 N869 1.379 . S
C870 C872 1.416 . S
C870 C878 1.424 . S
C871 H866 0.930 . S
C871 C873 1.390 . S
C871 C874 1.339 . S
C872 C870 1.416 . S
C872 C874 1.416 . S
C872 C905 1.448 . S
C873 H858 0.930 . S
C873 N869 1.334 . S
C873 C871 1.390 . S
C874 C871 1.339 . S
C874 C872 1.416 . S
C874 H881 0.930 . S
N875 Tb840 2.572 . S
N875 C876 1.340 . S
N875 C878 1.361 . S
C876 H862 0.976 . S
C876 N875 1.340 . S
C876 C880 1.407 1_545 S
C877 C878 1.413 . S
C877 C879 1.416 . S
C877 C906 1.427 . S
C878 C870 1.424 . S
C878 N875 1.361 . S
C878 C877 1.413 . S
C879 H868 0.916 1_545 S
C879 C877 1.416 . S
C879 C880 1.332 1_545 S
C880 H859 0.929 . S
C880 C876 1.407 1_565 S
C880 C879 1.332 1_565 S
H881 C874 0.930 . S
H882 C905 0.930 . S
H883 C906 0.929 . S
O884 Tb840 2.465 . S
O884 C904 1.264 . S
O885 Tb840 2.387 1_554 S
O885 C896 1.264 . S
O886 Tb851 2.349 . S
O886 C896 1.243 . S
O887 Tb840 2.428 . S
O887 C904 1.256 . S
O888 Tb840 2.308 . S
O888 C903 1.278 1_545 S
O889 Tb851 2.393 1_565 S
O889 C903 1.220 1_554 S
O890 Tb851 2.465 . S
O890 C915 1.264 . S
O891 Tb851 2.387 . S
O891 C907 1.264 . S
O892 Tb840 2.349 1_554 S
O892 C907 1.243 . S
O893 Tb851 2.428 1_565 S
O893 C915 1.256 1_565 S
O894 Tb851 2.308 . S
O894 C914 1.266 . S
O895 Tb840 2.393 1_554 S
O895 C914 1.248 . S
C896 O885 1.264 . S
C896 O886 1.243 . S
C897 C900 1.399 . S
C897 C902 1.383 . S
C897 C904 1.496 . S
C898 C899 1.399 . S
C898 C902 1.389 . S
C899 C898 1.399 . S
C899 C901 1.380 . S
C899 H916 0.929 . S
C900 C897 1.399 . S
C900 C901 1.392 . S
C900 H917 0.929 . S
C901 C899 1.380 . S
C901 C900 1.392 . S
C901 H918 0.929 . S
C902 C897 1.383 . S
C902 C898 1.389 . S
C902 H919 0.931 . S
C903 O888 1.278 1_565 S
C903 O889 1.220 1_556 S
C904 Tb840 2.802 . S
C904 O884 1.264 . S
C904 O887 1.256 . S
C904 C897 1.496 . S
C905 C872 1.448 . S
C905 H882 0.930 . S
C905 C906 1.328 . S
C906 C877 1.427 . S
C906 H883 0.929 . S
C906 C905 1.328 . S
C907 O891 1.264 . S
C907 O892 1.243 . S
C908 C911 1.428 . S
C908 C912 1.362 1_565 S
C908 C915 1.489 1_565 S
C909 C910 1.399 1_545 S
C909 C912 1.389 . S
C910 C909 1.399 1_565 S
C910 C913 1.380 . S
C910 H920 0.929 . S
C911 C908 1.428 . S
C911 C913 1.392 . S
C911 H921 0.929 . S
C912 C908 1.362 1_545 S
C912 C909 1.389 . S
C912 H922 0.931 . S
C913 C910 1.380 . S
C913 C911 1.392 . S
C913 H923 0.929 . S
C914 O894 1.266 . S
C914 O895 1.248 . S
C915 Tb851 2.802 . S
C915 O890 1.264 . S
C915 O893 1.256 1_545 S
C915 C908 1.489 1_545 S
H916 C899 0.929 . S
H917 C900 0.929 . S
H918 C901 0.929 . S
H919 C902 0.931 . S
H920 C910 0.929 . S
H921 C911 0.929 . S
H922 C912 0.931 . S
H923 C913 0.929 . S
Tb924 N953 2.617 . S
Tb924 N959 2.572 . S
Tb924 O968 2.465 . S
Tb924 O969 2.387 . S
Tb924 O971 2.428 . S
Tb924 O972 2.308 . S
Tb924 O976 2.349 . S
Tb924 O979 2.393 . S
Tb924 C988 2.802 . S
C925 N926 1.379 . S
C925 C928 1.416 . S
C925 C932 1.424 . S
N926 C925 1.379 . S
N926 C929 1.334 . S
N926 Tb935 2.617 . S
C927 C929 1.390 . S
C927 C930 1.339 . S
C927 H947 0.930 . S
C928 C925 1.416 . S
C928 C930 1.416 . S
C928 C934 1.448 . S
C929 N926 1.334 . S
C929 C927 1.390 . S
C929 H940 0.930 . S
C930 C927 1.339 . S
C930 C928 1.416 . S
C930 H951 0.930 . S
C931 C932 1.413 . S
C931 C933 1.427 . S
C931 C937 1.416 . S
C932 C925 1.424 . S
C932 C931 1.413 . S
C932 N936 1.361 . S
C933 C931 1.427 . S
C933 C934 1.328 . S
C933 H948 0.929 . S
C934 C928 1.448 . S
C934 C933 1.328 . S
C934 H949 0.930 . S
Tb935 N926 2.617 . S
Tb935 N936 2.572 . S
Tb935 O970 2.349 . S
Tb935 O973 2.393 . S
Tb935 O974 2.465 . S
Tb935 O975 2.387 . S
Tb935 O977 2.428 . S
Tb935 O978 2.308 . S
Tb935 C999 2.802 . S
N936 C932 1.361 . S
N936 Tb935 2.572 . S
N936 C938 1.340 . S
C937 C931 1.416 . S
C937 C939 1.332 . S
C937 H945 0.931 . S
C938 N936 1.340 . S
C938 C939 1.407 . S
C938 H944 0.930 . S
C939 C937 1.332 . S
C939 C938 1.407 . S
C939 H941 0.929 . S
H940 C929 0.930 . S
H941 C939 0.929 . S
H942 C957 0.930 . S
H943 C964 0.929 . S
H944 C938 0.930 . S
H945 C937 0.931 . S
H946 C960 0.930 . S
H947 C927 0.930 . S
H948 C933 0.929 . S
H949 C934 0.930 . S
H950 C955 0.930 . S
H951 C930 0.930 . S
H952 C963 0.931 . S
N953 Tb924 2.617 . S
N953 C954 1.379 . S
N953 C957 1.334 . S
C954 N953 1.379 . S
C954 C956 1.416 . S
C954 C962 1.424 . S
C955 H950 0.930 . S
C955 C957 1.390 . S
C955 C958 1.339 . S
C956 C954 1.416 . S
C956 C958 1.416 . S
C956 C989 1.448 . S
C957 H942 0.930 . S
C957 N953 1.334 . S
C957 C955 1.390 . S
C958 C955 1.339 . S
C958 C956 1.416 . S
C958 H965 0.930 . S
N959 Tb924 2.572 . S
N959 C960 1.340 . S
N959 C962 1.361 . S
C960 H946 0.930 . S
C960 N959 1.340 . S
C960 C964 1.407 . S
C961 C962 1.413 . S
C961 C963 1.416 . S
C961 C990 1.427 . S
C962 C954 1.424 . S
C962 N959 1.361 . S
C962 C961 1.413 . S
C963 H952 0.931 . S
C963 C961 1.416 . S
C963 C964 1.332 . S
C964 H943 0.929 . S
C964 C960 1.407 . S
C964 C963 1.332 . S
H965 C958 0.930 . S
H966 C989 0.930 . S
H967 C990 0.929 . S
O968 Tb924 2.465 . S
O968 C988 1.264 . S
O969 Tb924 2.387 . S
O969 C980 1.264 . S
O970 Tb935 2.349 . S
O970 C980 1.243 . S
O971 Tb924 2.428 . S
O971 C988 1.256 . S
O972 Tb924 2.308 . S
O972 C987 1.266 . S
O973 Tb935 2.393 . S
O973 C987 1.248 . S
O974 Tb935 2.465 . S
O974 C999 1.264 . S
O975 Tb935 2.387 . S
O975 C991 1.264 . S
O976 Tb924 2.349 . S
O976 C991 1.243 . S
O977 Tb935 2.428 . S
O977 C999 1.256 . S
O978 Tb935 2.308 . S
O978 C998 1.266 . S
O979 Tb924 2.393 . S
O979 C998 1.248 . S
C980 O969 1.264 . S
C980 O970 1.243 . S
C981 C984 1.399 . S
C981 C986 1.383 . S
C981 C988 1.496 . S
C982 C983 1.399 . S
C982 C986 1.389 . S
C983 C982 1.399 . S
C983 C985 1.380 . S
C983 H1000 0.929 . S
C984 C981 1.399 . S
C984 C985 1.392 . S
C984 H1001 0.929 . S
C985 C983 1.380 . S
C985 C984 1.392 . S
C985 H1002 0.929 . S
C986 C981 1.383 . S
C986 C982 1.389 . S
C986 H1003 0.931 . S
C987 O972 1.266 . S
C987 O973 1.248 . S
C988 Tb924 2.802 . S
C988 O968 1.264 . S
C988 O971 1.256 . S
C988 C981 1.496 . S
C989 C956 1.448 . S
C989 H966 0.930 . S
C989 C990 1.328 . S
C990 C961 1.427 . S
C990 H967 0.929 . S
C990 C989 1.328 . S
C991 O975 1.264 . S
C991 O976 1.243 . S
C992 C995 1.399 . S
C992 C996 1.383 . S
C992 C999 1.496 . S
C993 C994 1.399 . S
C993 C996 1.389 . S
C994 C993 1.399 . S
C994 C997 1.380 . S
C994 H1004 0.929 . S
C995 C992 1.399 . S
C995 C997 1.392 . S
C995 H1005 0.929 . S
C996 C992 1.383 . S
C996 C993 1.389 . S
C996 H1006 0.931 . S
C997 C994 1.380 . S
C997 C995 1.392 . S
C997 H1007 0.929 . S
C998 O978 1.266 . S
C998 O979 1.248 . S
C999 Tb935 2.802 . S
C999 O974 1.264 . S
C999 O977 1.256 . S
C999 C992 1.496 . S
H1000 C983 0.929 . S
H1001 C984 0.929 . S
H1002 C985 0.929 . S
H1003 C986 0.931 . S
H1004 C994 0.929 . S
H1005 C995 0.929 . S
H1006 C996 0.931 . S
H1007 C997 0.929 . S
Tb1008 N1037 2.617 1_554 S
Tb1008 N1043 2.572 1_554 S
Tb1008 O1052 2.465 . S
Tb1008 O1053 2.387 1_554 S
Tb1008 O1055 2.428 . S
Tb1008 O1056 2.308 . S
Tb1008 O1060 2.349 . S
Tb1008 O1063 2.393 . S
Tb1008 C1072 2.802 . S
C1009 N1010 1.379 . S
C1009 C1012 1.416 . S
C1009 C1016 1.424 . S
N1010 C1009 1.379 . S
N1010 C1013 1.334 . S
N1010 Tb1019 2.617 . S
C1011 C1013 1.390 . S
C1011 C1014 1.339 . S
C1011 H1031 0.930 . S
C1012 C1009 1.416 . S
C1012 C1014 1.416 . S
C1012 C1018 1.448 . S
C1013 N1010 1.334 . S
C1013 C1011 1.390 . S
C1013 H1024 0.930 . S
C1014 C1011 1.339 . S
C1014 C1012 1.416 . S
C1014 H1035 0.930 . S
C1015 C1016 1.413 . S
C1015 C1017 1.427 . S
C1015 C1021 1.416 . S
C1016 C1009 1.424 . S
C1016 C1015 1.413 . S
C1016 N1020 1.361 . S
C1017 C1015 1.427 . S
C1017 C1018 1.328 . S
C1017 H1032 0.929 . S
C1018 C1012 1.448 . S
C1018 C1017 1.328 . S
C1018 H1033 0.930 . S
Tb1019 N1010 2.617 . S
Tb1019 N1020 2.572 . S
Tb1019 O1054 2.349 1_554 S
Tb1019 O1057 2.393 . S
Tb1019 O1058 2.465 . S
Tb1019 O1059 2.387 . S
Tb1019 O1061 2.428 . S
Tb1019 O1062 2.308 . S
Tb1019 C1083 2.802 . S
N1020 C1016 1.361 . S
N1020 Tb1019 2.572 . S
N1020 C1022 1.340 . S
C1021 C1015 1.416 . S
C1021 C1023 1.332 . S
C1021 H1029 0.931 . S
C1022 N1020 1.340 . S
C1022 C1023 1.407 . S
C1022 H1028 0.930 . S
C1023 C1021 1.332 . S
C1023 C1022 1.407 . S
C1023 H1025 0.929 . S
H1024 C1013 0.930 . S
H1025 C1023 0.929 . S
H1026 C1041 0.930 . S
H1027 C1048 0.929 . S
H1028 C1022 0.930 . S
H1029 C1021 0.931 . S
H1030 C1044 0.930 . S
H1031 C1011 0.930 . S
H1032 C1017 0.929 . S
H1033 C1018 0.930 . S
H1034 C1039 0.930 . S
H1035 C1014 0.930 . S
H1036 C1047 0.931 . S
N1037 Tb1008 2.617 1_556 S
N1037 C1038 1.379 . S
N1037 C1041 1.334 . S
C1038 N1037 1.379 . S
C1038 C1040 1.416 . S
C1038 C1046 1.424 . S
C1039 H1034 0.930 . S
C1039 C1041 1.390 . S
C1039 C1042 1.339 . S
C1040 C1038 1.416 . S
C1040 C1042 1.416 . S
C1040 C1073 1.448 . S
C1041 H1026 0.930 . S
C1041 N1037 1.334 . S
C1041 C1039 1.390 . S
C1042 C1039 1.339 . S
C1042 C1040 1.416 . S
C1042 H1049 0.930 . S
N1043 Tb1008 2.572 1_556 S
N1043 C1044 1.340 . S
N1043 C1046 1.361 . S
C1044 H1030 0.930 . S
C1044 N1043 1.340 . S
C1044 C1048 1.407 . S
C1045 C1046 1.413 . S
C1045 C1047 1.416 . S
C1045 C1074 1.427 . S
C1046 C1038 1.424 . S
C1046 N1043 1.361 . S
C1046 C1045 1.413 . S
C1047 H1036 0.931 . S
C1047 C1045 1.416 . S
C1047 C1048 1.332 . S
C1048 H1027 0.929 . S
C1048 C1044 1.407 . S
C1048 C1047 1.332 . S
H1049 C1042 0.930 . S
H1050 C1073 0.930 . S
H1051 C1074 0.929 . S
O1052 Tb1008 2.465 . S
O1052 C1072 1.264 . S
O1053 Tb1008 2.387 1_556 S
O1053 C1064 1.264 . S
O1054 Tb1019 2.349 1_556 S
O1054 C1064 1.243 . S
O1055 Tb1008 2.428 . S
O1055 C1072 1.256 . S
O1056 Tb1008 2.308 . S
O1056 C1071 1.266 . S
O1057 Tb1019 2.393 . S
O1057 C1071 1.248 . S
O1058 Tb1019 2.465 . S
O1058 C1083 1.264 . S
O1059 Tb1019 2.387 . S
O1059 C1075 1.264 . S
O1060 Tb1008 2.349 . S
O1060 C1075 1.243 . S
O1061 Tb1019 2.428 . S
O1061 C1083 1.256 . S
O1062 Tb1019 2.308 . S
O1062 C1082 1.266 . S
O1063 Tb1008 2.393 . S
O1063 C1082 1.248 . S
C1064 O1053 1.264 . S
C1064 O1054 1.243 . S
C1065 C1068 1.399 . S
C1065 C1070 1.383 . S
C1065 C1072 1.496 . S
C1066 C1067 1.399 . S
C1066 C1070 1.389 . S
C1067 C1066 1.399 . S
C1067 C1069 1.380 . S
C1067 H1084 0.929 . S
C1068 C1065 1.399 . S
C1068 C1069 1.392 . S
C1068 H1085 0.929 . S
C1069 C1067 1.380 . S
C1069 C1068 1.392 . S
C1069 H1086 0.929 . S
C1070 C1065 1.383 . S
C1070 C1066 1.389 . S
C1070 H1087 0.931 . S
C1071 O1056 1.266 . S
C1071 O1057 1.248 . S
C1072 Tb1008 2.802 . S
C1072 O1052 1.264 . S
C1072 O1055 1.256 . S
C1072 C1065 1.496 . S
C1073 C1040 1.448 . S
C1073 H1050 0.930 . S
C1073 C1074 1.328 . S
C1074 C1045 1.427 . S
C1074 H1051 0.929 . S
C1074 C1073 1.328 . S
C1075 O1059 1.264 . S
C1075 O1060 1.243 . S
C1076 C1079 1.399 . S
C1076 C1080 1.383 . S
C1076 C1083 1.496 1_556 S
C1077 C1078 1.399 . S
C1077 C1080 1.389 . S
C1078 C1077 1.399 . S
C1078 C1081 1.380 . S
C1078 H1088 0.929 . S
C1079 C1076 1.399 . S
C1079 C1081 1.392 . S
C1079 H1089 0.929 . S
C1080 C1076 1.383 . S
C1080 C1077 1.389 . S
C1080 H1090 0.931 . S
C1081 C1078 1.380 . S
C1081 C1079 1.392 . S
C1081 H1091 0.929 . S
C1082 O1062 1.266 . S
C1082 O1063 1.248 . S
C1083 Tb1019 2.802 . S
C1083 O1058 1.264 . S
C1083 O1061 1.256 . S
C1083 C1076 1.496 1_554 S
H1084 C1067 0.929 . S
H1085 C1068 0.929 . S
H1086 C1069 0.929 . S
H1087 C1070 0.931 . S
H1088 C1078 0.929 . S
H1089 C1079 0.929 . S
H1090 C1080 0.931 . S
H1091 C1081 0.929 . S
Tb1092 N1121 2.617 . S
Tb1092 N1127 2.572 . S
Tb1092 O1136 2.465 . S
Tb1092 O1137 2.387 . S
Tb1092 O1139 2.428 . S
Tb1092 O1140 2.308 . S
Tb1092 O1144 2.349 . S
Tb1092 O1147 2.393 . S
Tb1092 C1156 2.802 . S
C1093 N1094 1.379 . S
C1093 C1096 1.416 . S
C1093 C1100 1.424 . S
N1094 C1093 1.379 . S
N1094 C1097 1.334 . S
N1094 Tb1103 2.617 . S
C1095 C1097 1.390 . S
C1095 C1098 1.339 . S
C1095 H1115 0.930 . S
C1096 C1093 1.416 . S
C1096 C1098 1.416 . S
C1096 C1102 1.448 . S
C1097 N1094 1.334 . S
C1097 C1095 1.390 . S
C1097 H1108 0.930 . S
C1098 C1095 1.339 . S
C1098 C1096 1.416 . S
C1098 H1119 0.930 . S
C1099 C1100 1.413 . S
C1099 C1101 1.427 . S
C1099 C1105 1.416 . S
C1100 C1093 1.424 . S
C1100 C1099 1.413 . S
C1100 N1104 1.361 . S
C1101 C1099 1.427 . S
C1101 C1102 1.328 . S
C1101 H1116 0.929 . S
C1102 C1096 1.448 . S
C1102 C1101 1.328 . S
C1102 H1117 0.930 . S
Tb1103 N1094 2.617 . S
Tb1103 N1104 2.572 . S
Tb1103 O1138 2.349 . S
Tb1103 O1141 2.393 . S
Tb1103 O1142 2.465 . S
Tb1103 O1143 2.387 . S
Tb1103 O1145 2.428 . S
Tb1103 O1146 2.308 . S
Tb1103 C1167 2.802 . S
N1104 C1100 1.361 . S
N1104 Tb1103 2.572 . S
N1104 C1106 1.340 . S
C1105 C1099 1.416 . S
C1105 C1107 1.332 . S
C1105 H1113 0.931 . S
C1106 N1104 1.340 . S
C1106 C1107 1.407 . S
C1106 H1112 0.930 . S
C1107 C1105 1.332 . S
C1107 C1106 1.407 . S
C1107 H1109 0.929 . S
H1108 C1097 0.930 . S
H1109 C1107 0.929 . S
H1110 C1125 0.930 . S
H1111 C1132 0.929 . S
H1112 C1106 0.930 . S
H1113 C1105 0.931 . S
H1114 C1128 0.930 . S
H1115 C1095 0.930 . S
H1116 C1101 0.929 . S
H1117 C1102 0.930 . S
H1118 C1123 0.930 . S
H1119 C1098 0.930 . S
H1120 C1131 0.931 . S
N1121 Tb1092 2.617 . S
N1121 C1122 1.379 . S
N1121 C1125 1.334 . S
C1122 N1121 1.379 . S
C1122 C1124 1.416 . S
C1122 C1130 1.424 . S
C1123 H1118 0.930 . S
C1123 C1125 1.390 . S
C1123 C1126 1.339 . S
C1124 C1122 1.416 . S
C1124 C1126 1.416 . S
C1124 C1157 1.448 . S
C1125 H1110 0.930 . S
C1125 N1121 1.334 . S
C1125 C1123 1.390 . S
C1126 C1123 1.339 . S
C1126 C1124 1.416 . S
C1126 H1133 0.930 . S
N1127 Tb1092 2.572 . S
N1127 C1128 1.340 . S
N1127 C1130 1.361 . S
C1128 H1114 0.930 . S
C1128 N1127 1.340 . S
C1128 C1132 1.407 . S
C1129 C1130 1.413 . S
C1129 C1131 1.416 . S
C1129 C1158 1.427 . S
C1130 C1122 1.424 . S
C1130 N1127 1.361 . S
C1130 C1129 1.413 . S
C1131 H1120 0.931 . S
C1131 C1129 1.416 . S
C1131 C1132 1.332 . S
C1132 H1111 0.929 . S
C1132 C1128 1.407 . S
C1132 C1131 1.332 . S
H1133 C1126 0.930 . S
H1134 C1157 0.930 . S
H1135 C1158 0.929 . S
O1136 Tb1092 2.465 . S
O1136 C1156 1.264 . S
O1137 Tb1092 2.387 . S
O1137 C1148 1.264 . S
O1138 Tb1103 2.349 . S
O1138 C1148 1.243 . S
O1139 Tb1092 2.428 . S
O1139 C1156 1.256 . S
O1140 Tb1092 2.308 . S
O1140 C1155 1.266 . S
O1141 Tb1103 2.393 . S
O1141 C1155 1.248 . S
O1142 Tb1103 2.465 . S
O1142 C1167 1.264 . S
O1143 Tb1103 2.387 . S
O1143 C1159 1.264 . S
O1144 Tb1092 2.349 . S
O1144 C1159 1.243 . S
O1145 Tb1103 2.428 . S
O1145 C1167 1.256 . S
O1146 Tb1103 2.308 . S
O1146 C1166 1.266 . S
O1147 Tb1092 2.393 . S
O1147 C1166 1.248 . S
C1148 O1137 1.264 . S
C1148 O1138 1.243 . S
C1149 C1152 1.399 . S
C1149 C1154 1.383 . S
C1149 C1156 1.496 . S
C1150 C1151 1.399 . S
C1150 C1154 1.389 . S
C1151 C1150 1.399 . S
C1151 C1153 1.380 . S
C1151 H1168 0.929 . S
C1152 C1149 1.399 . S
C1152 C1153 1.392 . S
C1152 H1169 0.929 . S
C1153 C1151 1.380 . S
C1153 C1152 1.392 . S
C1153 H1170 0.929 . S
C1154 C1149 1.383 . S
C1154 C1150 1.389 . S
C1154 H1171 0.931 . S
C1155 O1140 1.266 . S
C1155 O1141 1.248 . S
C1156 Tb1092 2.802 . S
C1156 O1136 1.264 . S
C1156 O1139 1.256 . S
C1156 C1149 1.496 . S
C1157 C1124 1.448 . S
C1157 H1134 0.930 . S
C1157 C1158 1.328 . S
C1158 C1129 1.427 . S
C1158 H1135 0.929 . S
C1158 C1157 1.328 . S
C1159 O1143 1.264 . S
C1159 O1144 1.243 . S
C1160 C1163 1.399 . S
C1160 C1164 1.383 . S
C1160 C1167 1.496 . S
C1161 C1162 1.399 . S
C1161 C1164 1.389 . S
C1162 C1161 1.399 . S
C1162 C1165 1.380 . S
C1162 H1172 0.929 . S
C1163 C1160 1.399 . S
C1163 C1165 1.392 . S
C1163 H1173 0.929 . S
C1164 C1160 1.383 . S
C1164 C1161 1.389 . S
C1164 H1174 0.931 . S
C1165 C1162 1.380 . S
C1165 C1163 1.392 . S
C1165 H1175 0.929 . S
C1166 O1146 1.266 . S
C1166 O1147 1.248 . S
C1167 Tb1103 2.802 . S
C1167 O1142 1.264 . S
C1167 O1145 1.256 . S
C1167 C1160 1.496 . S
H1168 C1151 0.929 . S
H1169 C1152 0.929 . S
H1170 C1153 0.929 . S
H1171 C1154 0.931 . S
H1172 C1162 0.929 . S
H1173 C1163 0.929 . S
H1174 C1164 0.931 . S
H1175 C1165 0.929 . S
Tb1176 N1205 2.617 1_455 S
Tb1176 N1211 2.572 1_455 S
Tb1176 O1220 2.465 . S
Tb1176 O1221 2.387 1_455 S
Tb1176 O1223 2.428 . S
Tb1176 O1224 2.308 . S
Tb1176 O1228 2.349 . S
Tb1176 O1231 2.393 . S
Tb1176 C1240 2.802 . S
C1177 N1178 1.379 . S
C1177 C1180 1.416 . S
C1177 C1184 1.424 . S
N1178 C1177 1.379 . S
N1178 C1181 1.334 . S
N1178 Tb1187 2.617 . S
C1179 C1181 1.390 . S
C1179 C1182 1.339 . S
C1179 H1199 0.930 . S
C1180 C1177 1.416 . S
C1180 C1182 1.416 . S
C1180 C1186 1.448 . S
C1181 N1178 1.334 . S
C1181 C1179 1.390 . S
C1181 H1192 0.930 . S
C1182 C1179 1.339 . S
C1182 C1180 1.416 . S
C1182 H1203 0.930 . S
C1183 C1184 1.413 . S
C1183 C1185 1.427 . S
C1183 C1189 1.416 . S
C1184 C1177 1.424 . S
C1184 C1183 1.413 . S
C1184 N1188 1.361 . S
C1185 C1183 1.427 . S
C1185 C1186 1.328 . S
C1185 H1200 0.929 . S
C1186 C1180 1.448 . S
C1186 C1185 1.328 . S
C1186 H1201 0.930 . S
Tb1187 N1178 2.617 . S
Tb1187 N1188 2.572 . S
Tb1187 O1222 2.349 1_455 S
Tb1187 O1225 2.393 . S
Tb1187 O1226 2.465 . S
Tb1187 O1227 2.387 . S
Tb1187 O1229 2.428 . S
Tb1187 O1230 2.308 . S
Tb1187 C1251 2.802 . S
N1188 C1184 1.361 . S
N1188 Tb1187 2.572 . S
N1188 C1190 1.340 . S
C1189 C1183 1.416 . S
C1189 C1191 1.332 . S
C1189 H1197 0.931 . S
C1190 N1188 1.340 . S
C1190 C1191 1.407 . S
C1190 H1196 0.930 . S
C1191 C1189 1.332 . S
C1191 C1190 1.407 . S
C1191 H1193 0.929 . S
H1192 C1181 0.930 . S
H1193 C1191 0.929 . S
H1194 C1209 0.930 1_455 S
H1195 C1216 0.929 . S
H1196 C1190 0.930 . S
H1197 C1189 0.931 . S
H1198 C1212 0.881 1_455 S
H1199 C1179 0.930 . S
H1200 C1185 0.929 . S
H1201 C1186 0.930 . S
H1202 C1207 0.930 . S
H1203 C1182 0.930 . S
H1204 C1215 0.931 . S
N1205 Tb1176 2.617 1_655 S
N1205 C1206 1.379 . S
N1205 C1209 1.334 . S
C1206 N1205 1.379 . S
C1206 C1208 1.416 . S
C1206 C1214 1.424 . S
C1207 H1202 0.930 . S
C1207 C1209 1.390 . S
C1207 C1210 1.339 . S
C1208 C1206 1.416 . S
C1208 C1210 1.416 . S
C1208 C1241 1.448 . S
C1209 H1194 0.930 1_655 S
C1209 N1205 1.334 . S
C1209 C1207 1.390 . S
C1210 C1207 1.339 . S
C1210 C1208 1.416 . S
C1210 H1217 0.930 . S
N1211 Tb1176 2.572 1_655 S
N1211 C1212 1.340 . S
N1211 C1214 1.361 . S
C1212 H1198 0.881 1_655 S
C1212 N1211 1.340 . S
C1212 C1216 1.407 . S
C1213 C1214 1.413 . S
C1213 C1215 1.416 . S
C1213 C1242 1.427 . S
C1214 C1206 1.424 . S
C1214 N1211 1.361 . S
C1214 C1213 1.413 . S
C1215 H1204 0.931 . S
C1215 C1213 1.416 . S
C1215 C1216 1.332 . S
C1216 H1195 0.929 . S
C1216 C1212 1.407 . S
C1216 C1215 1.332 . S
H1217 C1210 0.930 . S
H1218 C1241 0.930 . S
H1219 C1242 0.929 . S
O1220 Tb1176 2.465 . S
O1220 C1240 1.264 . S
O1221 Tb1176 2.387 1_655 S
O1221 C1232 1.264 . S
O1222 Tb1187 2.349 1_655 S
O1222 C1232 1.243 . S
O1223 Tb1176 2.428 . S
O1223 C1240 1.256 . S
O1224 Tb1176 2.308 . S
O1224 C1239 1.266 . S
O1225 Tb1187 2.393 . S
O1225 C1239 1.248 . S
O1226 Tb1187 2.465 . S
O1226 C1251 1.264 . S
O1227 Tb1187 2.387 . S
O1227 C1243 1.264 . S
O1228 Tb1176 2.349 . S
O1228 C1243 1.243 . S
O1229 Tb1187 2.428 . S
O1229 C1251 1.256 . S
O1230 Tb1187 2.308 . S
O1230 C1250 1.266 . S
O1231 Tb1176 2.393 . S
O1231 C1250 1.248 . S
C1232 O1221 1.264 . S
C1232 O1222 1.243 . S
C1233 C1236 1.399 . S
C1233 C1238 1.383 . S
C1233 C1240 1.496 . S
C1234 C1235 1.399 . S
C1234 C1238 1.389 . S
C1235 C1234 1.399 . S
C1235 C1237 1.380 . S
C1235 H1252 0.929 . S
C1236 C1233 1.399 . S
C1236 C1237 1.392 . S
C1236 H1253 0.929 . S
C1237 C1235 1.380 . S
C1237 C1236 1.392 . S
C1237 H1254 0.929 . S
C1238 C1233 1.383 . S
C1238 C1234 1.389 . S
C1238 H1255 0.931 . S
C1239 O1224 1.266 . S
C1239 O1225 1.248 . S
C1240 Tb1176 2.802 . S
C1240 O1220 1.264 . S
C1240 O1223 1.256 . S
C1240 C1233 1.496 . S
C1241 C1208 1.448 . S
C1241 H1218 0.930 . S
C1241 C1242 1.328 . S
C1242 C1213 1.427 . S
C1242 H1219 0.929 . S
C1242 C1241 1.328 . S
C1243 O1227 1.264 . S
C1243 O1228 1.243 . S
C1244 C1247 1.399 . S
C1244 C1248 1.383 . S
C1244 C1251 1.496 1_655 S
C1245 C1246 1.399 . S
C1245 C1248 1.389 . S
C1246 C1245 1.399 . S
C1246 C1249 1.380 . S
C1246 H1256 0.929 . S
C1247 C1244 1.399 . S
C1247 C1249 1.392 . S
C1247 H1257 0.929 . S
C1248 C1244 1.383 . S
C1248 C1245 1.389 . S
C1248 H1258 0.931 . S
C1249 C1246 1.380 . S
C1249 C1247 1.392 . S
C1249 H1259 0.929 . S
C1250 O1230 1.266 . S
C1250 O1231 1.248 . S
C1251 Tb1187 2.802 . S
C1251 O1226 1.264 . S
C1251 O1229 1.256 . S
C1251 C1244 1.496 1_455 S
H1252 C1235 0.929 . S
H1253 C1236 0.929 . S
H1254 C1237 0.929 . S
H1255 C1238 0.931 . S
H1256 C1246 0.929 . S
H1257 C1247 0.929 . S
H1258 C1248 0.931 . S
H1259 C1249 0.929 . S
Tb1260 N1289 2.617 . S
Tb1260 N1295 2.572 . S
Tb1260 O1304 2.465 . S
Tb1260 O1305 2.387 . S
Tb1260 O1307 2.428 . S
Tb1260 O1308 2.308 . S
Tb1260 O1312 2.349 . S
Tb1260 O1315 2.393 . S
Tb1260 C1324 2.802 . S
C1261 N1262 1.379 . S
C1261 C1264 1.416 . S
C1261 C1268 1.424 . S
N1262 C1261 1.379 . S
N1262 C1265 1.334 . S
N1262 Tb1271 2.617 . S
C1263 C1265 1.390 . S
C1263 C1266 1.339 . S
C1263 H1283 0.930 . S
C1264 C1261 1.416 . S
C1264 C1266 1.416 . S
C1264 C1270 1.448 . S
C1265 N1262 1.334 . S
C1265 C1263 1.390 . S
C1265 H1276 0.930 . S
C1266 C1263 1.339 . S
C1266 C1264 1.416 . S
C1266 H1287 0.930 . S
C1267 C1268 1.413 . S
C1267 C1269 1.427 . S
C1267 C1273 1.416 . S
C1268 C1261 1.424 . S
C1268 C1267 1.413 . S
C1268 N1272 1.361 . S
C1269 C1267 1.427 . S
C1269 C1270 1.328 . S
C1269 H1284 0.929 . S
C1270 C1264 1.448 . S
C1270 C1269 1.328 . S
C1270 H1285 0.930 . S
Tb1271 N1262 2.617 . S
Tb1271 N1272 2.572 . S
Tb1271 O1306 2.349 . S
Tb1271 O1309 2.393 . S
Tb1271 O1310 2.465 . S
Tb1271 O1311 2.387 . S
Tb1271 O1313 2.428 . S
Tb1271 O1314 2.308 . S
Tb1271 C1335 2.802 . S
N1272 C1268 1.361 . S
N1272 Tb1271 2.572 . S
N1272 C1274 1.340 . S
C1273 C1267 1.416 . S
C1273 C1275 1.332 . S
C1273 H1281 0.931 . S
C1274 N1272 1.340 . S
C1274 C1275 1.407 . S
C1274 H1280 0.930 . S
C1275 C1273 1.332 . S
C1275 C1274 1.407 . S
C1275 H1277 0.929 . S
H1276 C1265 0.930 . S
H1277 C1275 0.929 . S
H1278 C1293 0.930 . S
H1279 C1300 0.929 . S
H1280 C1274 0.930 . S
H1281 C1273 0.931 . S
H1282 C1296 0.930 . S
H1283 C1263 0.930 . S
H1284 C1269 0.929 . S
H1285 C1270 0.930 . S
H1286 C1291 0.930 . S
H1287 C1266 0.930 . S
H1288 C1299 0.931 . S
N1289 Tb1260 2.617 . S
N1289 C1290 1.379 . S
N1289 C1293 1.334 . S
C1290 N1289 1.379 . S
C1290 C1292 1.416 . S
C1290 C1298 1.424 . S
C1291 H1286 0.930 . S
C1291 C1293 1.390 . S
C1291 C1294 1.339 . S
C1292 C1290 1.416 . S
C1292 C1294 1.416 . S
C1292 C1325 1.448 . S
C1293 H1278 0.930 . S
C1293 N1289 1.334 . S
C1293 C1291 1.390 . S
C1294 C1291 1.339 . S
C1294 C1292 1.416 . S
C1294 H1301 0.930 . S
N1295 Tb1260 2.572 . S
N1295 C1296 1.340 . S
N1295 C1298 1.361 . S
C1296 H1282 0.930 . S
C1296 N1295 1.340 . S
C1296 C1300 1.407 . S
C1297 C1298 1.413 . S
C1297 C1299 1.416 . S
C1297 C1326 1.427 . S
C1298 C1290 1.424 . S
C1298 N1295 1.361 . S
C1298 C1297 1.413 . S
C1299 H1288 0.931 . S
C1299 C1297 1.416 . S
C1299 C1300 1.332 . S
C1300 H1279 0.929 . S
C1300 C1296 1.407 . S
C1300 C1299 1.332 . S
H1301 C1294 0.930 . S
H1302 C1325 0.930 . S
H1303 C1326 0.929 . S
O1304 Tb1260 2.465 . S
O1304 C1324 1.264 . S
O1305 Tb1260 2.387 . S
O1305 C1316 1.264 . S
O1306 Tb1271 2.349 . S
O1306 C1316 1.243 . S
O1307 Tb1260 2.428 . S
O1307 C1324 1.256 . S
O1308 Tb1260 2.308 . S
O1308 C1323 1.266 . S
O1309 Tb1271 2.393 . S
O1309 C1323 1.248 . S
O1310 Tb1271 2.465 . S
O1310 C1335 1.264 . S
O1311 Tb1271 2.387 . S
O1311 C1327 1.264 . S
O1312 Tb1260 2.349 . S
O1312 C1327 1.243 . S
O1313 Tb1271 2.428 . S
O1313 C1335 1.256 . S
O1314 Tb1271 2.308 . S
O1314 C1334 1.266 . S
O1315 Tb1260 2.393 . S
O1315 C1334 1.248 . S
C1316 O1305 1.264 . S
C1316 O1306 1.243 . S
C1317 C1320 1.399 . S
C1317 C1322 1.383 . S
C1317 C1324 1.496 . S
C1318 C1319 1.399 . S
C1318 C1322 1.389 . S
C1319 C1318 1.399 . S
C1319 C1321 1.380 . S
C1319 H1336 0.929 . S
C1320 C1317 1.399 . S
C1320 C1321 1.392 . S
C1320 H1337 0.929 . S
C1321 C1319 1.380 . S
C1321 C1320 1.392 . S
C1321 H1338 0.929 . S
C1322 C1317 1.383 . S
C1322 C1318 1.389 . S
C1322 H1339 0.931 . S
C1323 O1308 1.266 . S
C1323 O1309 1.248 . S
C1324 Tb1260 2.802 . S
C1324 O1304 1.264 . S
C1324 O1307 1.256 . S
C1324 C1317 1.496 . S
C1325 C1292 1.448 . S
C1325 H1302 0.930 . S
C1325 C1326 1.328 . S
C1326 C1297 1.427 . S
C1326 H1303 0.929 . S
C1326 C1325 1.328 . S
C1327 O1311 1.264 . S
C1327 O1312 1.243 . S
C1328 C1331 1.399 . S
C1328 C1332 1.383 . S
C1328 C1335 1.496 . S
C1329 C1330 1.399 . S
C1329 C1332 1.389 . S
C1330 C1329 1.399 . S
C1330 C1333 1.380 . S
C1330 H1340 0.929 . S
C1331 C1328 1.399 . S
C1331 C1333 1.392 . S
C1331 H1341 0.929 . S
C1332 C1328 1.383 . S
C1332 C1329 1.389 . S
C1332 H1342 0.931 . S
C1333 C1330 1.380 . S
C1333 C1331 1.392 . S
C1333 H1343 0.929 . S
C1334 O1314 1.266 . S
C1334 O1315 1.248 . S
C1335 Tb1271 2.802 . S
C1335 O1310 1.264 . S
C1335 O1313 1.256 . S
C1335 C1328 1.496 . S
H1336 C1319 0.929 . S
H1337 C1320 0.929 . S
H1338 C1321 0.929 . S
H1339 C1322 0.931 . S
H1340 C1330 0.929 . S
H1341 C1331 0.929 . S
H1342 C1332 0.931 . S
H1343 C1333 0.929 . S
Tb1344 N1373 2.617 . S
Tb1344 N1379 2.572 . S
Tb1344 O1388 2.465 . S
Tb1344 O1389 2.387 . S
Tb1344 O1391 2.428 . S
Tb1344 O1392 2.308 . S
Tb1344 O1396 2.349 . S
Tb1344 O1399 2.393 . S
Tb1344 C1408 2.802 . S
C1345 N1346 1.379 . S
C1345 C1348 1.416 . S
C1345 C1352 1.424 . S
N1346 C1345 1.379 . S
N1346 C1349 1.334 . S
N1346 Tb1355 2.617 . S
C1347 C1349 1.390 . S
C1347 C1350 1.339 . S
C1347 H1367 0.930 . S
C1348 C1345 1.416 . S
C1348 C1350 1.416 . S
C1348 C1354 1.448 . S
C1349 N1346 1.334 . S
C1349 C1347 1.390 . S
C1349 H1360 0.930 . S
C1350 C1347 1.339 . S
C1350 C1348 1.416 . S
C1350 H1371 0.930 . S
C1351 C1352 1.413 . S
C1351 C1353 1.427 . S
C1351 C1357 1.416 . S
C1352 C1345 1.424 . S
C1352 C1351 1.413 . S
C1352 N1356 1.361 . S
C1353 C1351 1.427 . S
C1353 C1354 1.328 . S
C1353 H1368 0.929 . S
C1354 C1348 1.448 . S
C1354 C1353 1.328 . S
C1354 H1369 0.930 . S
Tb1355 N1346 2.617 . S
Tb1355 N1356 2.572 . S
Tb1355 O1390 2.349 . S
Tb1355 O1393 2.393 . S
Tb1355 O1394 2.465 . S
Tb1355 O1395 2.387 . S
Tb1355 O1397 2.428 . S
Tb1355 O1398 2.308 . S
Tb1355 C1419 2.802 . S
N1356 C1352 1.361 . S
N1356 Tb1355 2.572 . S
N1356 C1358 1.340 . S
C1357 C1351 1.416 . S
C1357 C1359 1.332 . S
C1357 H1365 0.931 . S
C1358 N1356 1.340 . S
C1358 C1359 1.407 . S
C1358 H1364 0.930 . S
C1359 C1357 1.332 . S
C1359 C1358 1.407 . S
C1359 H1361 0.929 . S
H1360 C1349 0.930 . S
H1361 C1359 0.929 . S
H1362 C1377 0.930 . S
H1363 C1384 0.929 . S
H1364 C1358 0.930 . S
H1365 C1357 0.931 . S
H1366 C1380 0.930 . S
H1367 C1347 0.930 . S
H1368 C1353 0.929 . S
H1369 C1354 0.930 . S
H1370 C1375 0.930 . S
H1371 C1350 0.930 . S
H1372 C1383 0.931 . S
N1373 Tb1344 2.617 . S
N1373 C1374 1.379 . S
N1373 C1377 1.334 . S
C1374 N1373 1.379 . S
C1374 C1376 1.416 . S
C1374 C1382 1.424 . S
C1375 H1370 0.930 . S
C1375 C1377 1.390 . S
C1375 C1378 1.339 . S
C1376 C1374 1.416 . S
C1376 C1378 1.416 . S
C1376 C1409 1.448 . S
C1377 H1362 0.930 . S
C1377 N1373 1.334 . S
C1377 C1375 1.390 . S
C1378 C1375 1.339 . S
C1378 C1376 1.416 . S
C1378 H1385 0.930 . S
N1379 Tb1344 2.572 . S
N1379 C1380 1.340 . S
N1379 C1382 1.361 . S
C1380 H1366 0.930 . S
C1380 N1379 1.340 . S
C1380 C1384 1.407 . S
C1381 C1382 1.413 . S
C1381 C1383 1.416 . S
C1381 C1410 1.427 . S
C1382 C1374 1.424 . S
C1382 N1379 1.361 . S
C1382 C1381 1.413 . S
C1383 H1372 0.931 . S
C1383 C1381 1.416 . S
C1383 C1384 1.332 . S
C1384 H1363 0.929 . S
C1384 C1380 1.407 . S
C1384 C1383 1.332 . S
H1385 C1378 0.930 . S
H1386 C1409 0.930 . S
H1387 C1410 0.929 . S
O1388 Tb1344 2.465 . S
O1388 C1408 1.264 . S
O1389 Tb1344 2.387 . S
O1389 C1400 1.264 . S
O1390 Tb1355 2.349 . S
O1390 C1400 1.243 . S
O1391 Tb1344 2.428 . S
O1391 C1408 1.256 . S
O1392 Tb1344 2.308 . S
O1392 C1407 1.266 . S
O1393 Tb1355 2.393 . S
O1393 C1407 1.248 . S
O1394 Tb1355 2.465 . S
O1394 C1419 1.264 . S
O1395 Tb1355 2.387 . S
O1395 C1411 1.264 . S
O1396 Tb1344 2.349 . S
O1396 C1411 1.243 . S
O1397 Tb1355 2.428 . S
O1397 C1419 1.256 . S
O1398 Tb1355 2.308 . S
O1398 C1418 1.266 . S
O1399 Tb1344 2.393 . S
O1399 C1418 1.248 . S
C1400 O1389 1.264 . S
C1400 O1390 1.243 . S
C1401 C1404 1.399 . S
C1401 C1406 1.383 . S
C1401 C1408 1.496 . S
C1402 C1403 1.399 . S
C1402 C1406 1.389 . S
C1403 C1402 1.399 . S
C1403 C1405 1.380 . S
C1403 H1420 0.929 . S
C1404 C1401 1.399 . S
C1404 C1405 1.392 . S
C1404 H1421 0.929 . S
C1405 C1403 1.380 . S
C1405 C1404 1.392 . S
C1405 H1422 0.929 . S
C1406 C1401 1.383 . S
C1406 C1402 1.389 . S
C1406 H1423 0.931 . S
C1407 O1392 1.266 . S
C1407 O1393 1.248 . S
C1408 Tb1344 2.802 . S
C1408 O1388 1.264 . S
C1408 O1391 1.256 . S
C1408 C1401 1.496 . S
C1409 C1376 1.448 . S
C1409 H1386 0.930 . S
C1409 C1410 1.328 . S
C1410 C1381 1.427 . S
C1410 H1387 0.929 . S
C1410 C1409 1.328 . S
C1411 O1395 1.264 . S
C1411 O1396 1.243 . S
C1412 C1415 1.399 . S
C1412 C1416 1.383 . S
C1412 C1419 1.496 . S
C1413 C1414 1.399 . S
C1413 C1416 1.389 . S
C1414 C1413 1.399 . S
C1414 C1417 1.380 . S
C1414 H1424 0.929 . S
C1415 C1412 1.399 . S
C1415 C1417 1.392 . S
C1415 H1425 0.929 . S
C1416 C1412 1.383 . S
C1416 C1413 1.389 . S
C1416 H1426 0.931 . S
C1417 C1414 1.380 . S
C1417 C1415 1.392 . S
C1417 H1427 0.929 . S
C1418 O1398 1.266 . S
C1418 O1399 1.248 . S
C1419 Tb1355 2.802 . S
C1419 O1394 1.264 . S
C1419 O1397 1.256 . S
C1419 C1412 1.496 . S
H1420 C1403 0.929 . S
H1421 C1404 0.929 . S
H1422 C1405 0.929 . S
H1423 C1406 0.931 . S
H1424 C1414 0.929 . S
H1425 C1415 0.929 . S
H1426 C1416 0.931 . S
H1427 C1417 0.929 . S
Tb1428 N1457 2.617 . S
Tb1428 N1463 2.572 . S
Tb1428 O1472 2.465 . S
Tb1428 O1473 2.387 . S
Tb1428 O1475 2.428 . S
Tb1428 O1476 2.308 . S
Tb1428 O1480 2.349 . S
Tb1428 O1483 2.393 . S
Tb1428 C1492 2.802 . S
C1429 N1430 1.379 . S
C1429 C1432 1.416 . S
C1429 C1436 1.424 . S
N1430 C1429 1.379 . S
N1430 C1433 1.334 . S
N1430 Tb1439 2.617 . S
C1431 C1433 1.390 . S
C1431 C1434 1.339 . S
C1431 H1451 0.930 . S
C1432 C1429 1.416 . S
C1432 C1434 1.416 . S
C1432 C1438 1.448 . S
C1433 N1430 1.334 . S
C1433 C1431 1.390 . S
C1433 H1444 0.930 . S
C1434 C1431 1.339 . S
C1434 C1432 1.416 . S
C1434 H1455 0.930 . S
C1435 C1436 1.413 . S
C1435 C1437 1.427 . S
C1435 C1441 1.416 . S
C1436 C1429 1.424 . S
C1436 C1435 1.413 . S
C1436 N1440 1.361 . S
C1437 C1435 1.427 . S
C1437 C1438 1.328 . S
C1437 H1452 0.929 . S
C1438 C1432 1.448 . S
C1438 C1437 1.328 . S
C1438 H1453 0.930 . S
Tb1439 N1430 2.617 . S
Tb1439 N1440 2.572 . S
Tb1439 O1474 2.349 . S
Tb1439 O1477 2.393 . S
Tb1439 O1478 2.465 . S
Tb1439 O1479 2.387 . S
Tb1439 O1481 2.428 . S
Tb1439 O1482 2.308 . S
Tb1439 C1503 2.802 . S
N1440 C1436 1.361 . S
N1440 Tb1439 2.572 . S
N1440 C1442 1.340 . S
C1441 C1435 1.416 . S
C1441 C1443 1.332 . S
C1441 H1449 0.931 . S
C1442 N1440 1.340 . S
C1442 C1443 1.407 . S
C1442 H1448 0.930 . S
C1443 C1441 1.332 . S
C1443 C1442 1.407 . S
C1443 H1445 0.929 . S
H1444 C1433 0.930 . S
H1445 C1443 0.929 . S
H1446 C1461 0.930 . S
H1447 C1468 0.929 . S
H1448 C1442 0.930 . S
H1449 C1441 0.931 . S
H1450 C1464 0.930 . S
H1451 C1431 0.930 . S
H1452 C1437 0.929 . S
H1453 C1438 0.930 . S
H1454 C1459 0.930 . S
H1455 C1434 0.930 . S
H1456 C1467 0.931 . S
N1457 Tb1428 2.617 . S
N1457 C1458 1.379 . S
N1457 C1461 1.334 . S
C1458 N1457 1.379 . S
C1458 C1460 1.416 . S
C1458 C1466 1.424 . S
C1459 H1454 0.930 . S
C1459 C1461 1.390 . S
C1459 C1462 1.339 . S
C1460 C1458 1.416 . S
C1460 C1462 1.416 . S
C1460 C1493 1.448 . S
C1461 H1446 0.930 . S
C1461 N1457 1.334 . S
C1461 C1459 1.390 . S
C1462 C1459 1.339 . S
C1462 C1460 1.416 . S
C1462 H1469 0.930 . S
N1463 Tb1428 2.572 . S
N1463 C1464 1.340 . S
N1463 C1466 1.361 . S
C1464 H1450 0.930 . S
C1464 N1463 1.340 . S
C1464 C1468 1.407 . S
C1465 C1466 1.413 . S
C1465 C1467 1.416 . S
C1465 C1494 1.427 . S
C1466 C1458 1.424 . S
C1466 N1463 1.361 . S
C1466 C1465 1.413 . S
C1467 H1456 0.931 . S
C1467 C1465 1.416 . S
C1467 C1468 1.332 . S
C1468 H1447 0.929 . S
C1468 C1464 1.407 . S
C1468 C1467 1.332 . S
H1469 C1462 0.930 . S
H1470 C1493 0.930 . S
H1471 C1494 0.929 . S
O1472 Tb1428 2.465 . S
O1472 C1492 1.264 . S
O1473 Tb1428 2.387 . S
O1473 C1484 1.264 . S
O1474 Tb1439 2.349 . S
O1474 C1484 1.243 . S
O1475 Tb1428 2.428 . S
O1475 C1492 1.256 . S
O1476 Tb1428 2.308 . S
O1476 C1491 1.266 . S
O1477 Tb1439 2.393 . S
O1477 C1491 1.248 . S
O1478 Tb1439 2.465 . S
O1478 C1503 1.264 . S
O1479 Tb1439 2.387 . S
O1479 C1495 1.264 . S
O1480 Tb1428 2.349 . S
O1480 C1495 1.243 . S
O1481 Tb1439 2.428 . S
O1481 C1503 1.256 . S
O1482 Tb1439 2.308 . S
O1482 C1502 1.266 . S
O1483 Tb1428 2.393 . S
O1483 C1502 1.248 . S
C1484 O1473 1.264 . S
C1484 O1474 1.243 . S
C1485 C1488 1.399 . S
C1485 C1490 1.383 . S
C1485 C1492 1.496 . S
C1486 C1487 1.399 . S
C1486 C1490 1.389 . S
C1487 C1486 1.399 . S
C1487 C1489 1.380 . S
C1487 H1504 0.929 . S
C1488 C1485 1.399 . S
C1488 C1489 1.392 . S
C1488 H1505 0.929 . S
C1489 C1487 1.380 . S
C1489 C1488 1.392 . S
C1489 H1506 0.929 . S
C1490 C1485 1.383 . S
C1490 C1486 1.389 . S
C1490 H1507 0.931 . S
C1491 O1476 1.266 . S
C1491 O1477 1.248 . S
C1492 Tb1428 2.802 . S
C1492 O1472 1.264 . S
C1492 O1475 1.256 . S
C1492 C1485 1.496 . S
C1493 C1460 1.448 . S
C1493 H1470 0.930 . S
C1493 C1494 1.328 . S
C1494 C1465 1.427 . S
C1494 H1471 0.929 . S
C1494 C1493 1.328 . S
C1495 O1479 1.264 . S
C1495 O1480 1.243 . S
C1496 C1499 1.399 . S
C1496 C1500 1.383 . S
C1496 C1503 1.496 . S
C1497 C1498 1.399 . S
C1497 C1500 1.389 . S
C1498 C1497 1.399 . S
C1498 C1501 1.380 . S
C1498 H1508 0.929 . S
C1499 C1496 1.399 . S
C1499 C1501 1.392 . S
C1499 H1509 0.929 . S
C1500 C1496 1.383 . S
C1500 C1497 1.389 . S
C1500 H1510 0.931 . S
C1501 C1498 1.380 . S
C1501 C1499 1.392 . S
C1501 H1511 0.929 . S
C1502 O1482 1.266 . S
C1502 O1483 1.248 . S
C1503 Tb1439 2.802 . S
C1503 O1478 1.264 . S
C1503 O1481 1.256 . S
C1503 C1496 1.496 . S
H1504 C1487 0.929 . S
H1505 C1488 0.929 . S
H1506 C1489 0.929 . S
H1507 C1490 0.931 . S
H1508 C1498 0.929 . S
H1509 C1499 0.929 . S
H1510 C1500 0.931 . S
H1511 C1501 0.929 . S
Tb1512 N1541 2.617 . S
Tb1512 N1547 2.572 . S
Tb1512 O1556 2.465 . S
Tb1512 O1557 2.387 . S
Tb1512 O1559 2.428 . S
Tb1512 O1560 2.308 . S
Tb1512 O1564 2.349 . S
Tb1512 O1567 2.393 . S
Tb1512 C1576 2.802 . S
C1513 N1514 1.379 . S
C1513 C1516 1.416 . S
C1513 C1520 1.424 . S
N1514 C1513 1.379 . S
N1514 C1517 1.334 . S
N1514 Tb1523 2.617 . S
C1515 C1517 1.390 . S
C1515 C1518 1.339 . S
C1515 H1535 0.930 . S
C1516 C1513 1.416 . S
C1516 C1518 1.416 . S
C1516 C1522 1.448 . S
C1517 N1514 1.334 . S
C1517 C1515 1.390 . S
C1517 H1528 0.930 . S
C1518 C1515 1.339 . S
C1518 C1516 1.416 . S
C1518 H1539 0.930 . S
C1519 C1520 1.413 . S
C1519 C1521 1.427 . S
C1519 C1525 1.416 . S
C1520 C1513 1.424 . S
C1520 C1519 1.413 . S
C1520 N1524 1.361 . S
C1521 C1519 1.427 . S
C1521 C1522 1.328 . S
C1521 H1536 0.929 . S
C1522 C1516 1.448 . S
C1522 C1521 1.328 . S
C1522 H1537 0.930 . S
Tb1523 N1514 2.617 . S
Tb1523 N1524 2.572 . S
Tb1523 O1558 2.349 . S
Tb1523 O1561 2.393 . S
Tb1523 O1562 2.465 . S
Tb1523 O1563 2.387 . S
Tb1523 O1565 2.428 . S
Tb1523 O1566 2.308 . S
Tb1523 C1587 2.802 . S
N1524 C1520 1.361 . S
N1524 Tb1523 2.572 . S
N1524 C1526 1.340 . S
C1525 C1519 1.416 . S
C1525 C1527 1.332 . S
C1525 H1533 0.931 . S
C1526 N1524 1.340 . S
C1526 C1527 1.407 . S
C1526 H1532 0.930 . S
C1527 C1525 1.332 . S
C1527 C1526 1.407 . S
C1527 H1529 0.929 . S
H1528 C1517 0.930 . S
H1529 C1527 0.929 . S
H1530 C1545 0.930 . S
H1531 C1552 0.929 . S
H1532 C1526 0.930 . S
H1533 C1525 0.931 . S
H1534 C1548 0.930 . S
H1535 C1515 0.930 . S
H1536 C1521 0.929 . S
H1537 C1522 0.930 . S
H1538 C1543 0.930 . S
H1539 C1518 0.930 . S
H1540 C1551 0.931 . S
N1541 Tb1512 2.617 . S
N1541 C1542 1.379 . S
N1541 C1545 1.334 . S
C1542 N1541 1.379 . S
C1542 C1544 1.416 . S
C1542 C1550 1.424 . S
C1543 H1538 0.930 . S
C1543 C1545 1.390 . S
C1543 C1546 1.339 . S
C1544 C1542 1.416 . S
C1544 C1546 1.416 . S
C1544 C1577 1.448 . S
C1545 H1530 0.930 . S
C1545 N1541 1.334 . S
C1545 C1543 1.390 . S
C1546 C1543 1.339 . S
C1546 C1544 1.416 . S
C1546 H1553 0.930 . S
N1547 Tb1512 2.572 . S
N1547 C1548 1.340 . S
N1547 C1550 1.361 . S
C1548 H1534 0.930 . S
C1548 N1547 1.340 . S
C1548 C1552 1.407 . S
C1549 C1550 1.413 . S
C1549 C1551 1.416 . S
C1549 C1578 1.427 . S
C1550 C1542 1.424 . S
C1550 N1547 1.361 . S
C1550 C1549 1.413 . S
C1551 H1540 0.931 . S
C1551 C1549 1.416 . S
C1551 C1552 1.332 . S
C1552 H1531 0.929 . S
C1552 C1548 1.407 . S
C1552 C1551 1.332 . S
H1553 C1546 0.930 . S
H1554 C1577 0.930 . S
H1555 C1578 0.929 . S
O1556 Tb1512 2.465 . S
O1556 C1576 1.264 . S
O1557 Tb1512 2.387 . S
O1557 C1568 1.264 . S
O1558 Tb1523 2.349 . S
O1558 C1568 1.243 . S
O1559 Tb1512 2.428 . S
O1559 C1576 1.256 . S
O1560 Tb1512 2.308 . S
O1560 C1575 1.266 . S
O1561 Tb1523 2.393 . S
O1561 C1575 1.248 . S
O1562 Tb1523 2.465 . S
O1562 C1587 1.264 . S
O1563 Tb1523 2.387 . S
O1563 C1579 1.264 . S
O1564 Tb1512 2.349 . S
O1564 C1579 1.243 . S
O1565 Tb1523 2.428 . S
O1565 C1587 1.256 . S
O1566 Tb1523 2.308 . S
O1566 C1586 1.266 . S
O1567 Tb1512 2.393 . S
O1567 C1586 1.248 . S
C1568 O1557 1.264 . S
C1568 O1558 1.243 . S
C1569 C1572 1.399 . S
C1569 C1574 1.383 . S
C1569 C1576 1.496 . S
C1570 C1571 1.399 . S
C1570 C1574 1.389 . S
C1571 C1570 1.399 . S
C1571 C1573 1.380 . S
C1571 H1588 0.929 . S
C1572 C1569 1.399 . S
C1572 C1573 1.392 . S
C1572 H1589 0.929 . S
C1573 C1571 1.380 . S
C1573 C1572 1.392 . S
C1573 H1590 0.929 . S
C1574 C1569 1.383 . S
C1574 C1570 1.389 . S
C1574 H1591 0.931 . S
C1575 O1560 1.266 . S
C1575 O1561 1.248 . S
C1576 Tb1512 2.802 . S
C1576 O1556 1.264 . S
C1576 O1559 1.256 . S
C1576 C1569 1.496 . S
C1577 C1544 1.448 . S
C1577 H1554 0.930 . S
C1577 C1578 1.328 . S
C1578 C1549 1.427 . S
C1578 H1555 0.929 . S
C1578 C1577 1.328 . S
C1579 O1563 1.264 . S
C1579 O1564 1.243 . S
C1580 C1583 1.399 . S
C1580 C1584 1.383 . S
C1580 C1587 1.496 . S
C1581 C1582 1.399 . S
C1581 C1584 1.389 . S
C1582 C1581 1.399 . S
C1582 C1585 1.380 . S
C1582 H1592 0.929 . S
C1583 C1580 1.399 . S
C1583 C1585 1.392 . S
C1583 H1593 0.929 . S
C1584 C1580 1.383 . S
C1584 C1581 1.389 . S
C1584 H1594 0.931 . S
C1585 C1582 1.380 . S
C1585 C1583 1.392 . S
C1585 H1595 0.929 . S
C1586 O1566 1.266 . S
C1586 O1567 1.248 . S
C1587 Tb1523 2.802 . S
C1587 O1562 1.264 . S
C1587 O1565 1.256 . S
C1587 C1580 1.496 . S
H1588 C1571 0.929 . S
H1589 C1572 0.929 . S
H1590 C1573 0.929 . S
H1591 C1574 0.931 . S
H1592 C1582 0.929 . S
H1593 C1583 0.929 . S
H1594 C1584 0.931 . S
H1595 C1585 0.929 . S
Tb1596 N1625 2.617 . S
Tb1596 N1631 2.572 . S
Tb1596 O1640 2.465 . S
Tb1596 O1641 2.387 1_655 S
Tb1596 O1643 2.428 . S
Tb1596 O1644 2.307 . S
Tb1596 O1648 2.349 1_655 S
Tb1596 O1651 2.393 1_655 S
Tb1596 C1660 2.802 . S
C1597 N1598 1.379 . S
C1597 C1600 1.416 . S
C1597 C1604 1.424 1_556 S
N1598 C1597 1.379 . S
N1598 C1601 1.334 . S
N1598 Tb1607 2.617 1_556 S
C1599 C1601 1.390 . S
C1599 C1602 1.339 . S
C1599 H1619 0.930 . S
C1600 C1597 1.416 . S
C1600 C1602 1.416 . S
C1600 C1606 1.448 . S
C1601 N1598 1.334 . S
C1601 C1599 1.390 . S
C1601 H1612 0.930 . S
C1602 C1599 1.339 . S
C1602 C1600 1.416 . S
C1602 H1623 0.930 . S
C1603 C1604 1.413 . S
C1603 C1605 1.427 . S
C1603 C1609 1.416 . S
C1604 C1597 1.424 1_554 S
C1604 C1603 1.413 . S
C1604 N1608 1.361 . S
C1605 C1603 1.427 . S
C1605 C1606 1.328 1_554 S
C1605 H1620 0.929 . S
C1606 C1600 1.448 . S
C1606 C1605 1.328 1_556 S
C1606 H1621 0.930 . S
Tb1607 N1598 2.617 1_554 S
Tb1607 N1608 2.572 . S
Tb1607 O1642 2.349 . S
Tb1607 O1645 2.393 1_554 S
Tb1607 O1646 2.465 . S
Tb1607 O1647 2.387 . S
Tb1607 O1649 2.428 1_554 S
Tb1607 O1650 2.308 . S
Tb1607 C1671 2.802 . S
N1608 C1604 1.361 . S
N1608 Tb1607 2.572 . S
N1608 C1610 1.340 . S
C1609 C1603 1.416 . S
C1609 C1611 1.332 . S
C1609 H1617 0.931 . S
C1610 N1608 1.340 . S
C1610 C1611 1.407 . S
C1610 H1616 0.930 . S
C1611 C1609 1.332 . S
C1611 C1610 1.407 . S
C1611 H1613 0.929 . S
H1612 C1601 0.930 . S
H1613 C1611 0.929 . S
H1614 C1629 0.930 1_455 S
H1615 C1636 0.929 . S
H1616 C1610 0.930 . S
H1617 C1609 0.931 . S
H1618 C1632 0.930 1_556 S
H1619 C1599 0.930 . S
H1620 C1605 0.929 . S
H1621 C1606 0.930 . S
H1622 C1627 0.930 . S
H1623 C1602 0.930 . S
H1624 C1635 0.931 . S
N1625 Tb1596 2.617 . S
N1625 C1626 1.379 . S
N1625 C1629 1.334 . S
C1626 N1625 1.379 . S
C1626 C1628 1.416 . S
C1626 C1634 1.424 . S
C1627 H1622 0.930 . S
C1627 C1629 1.390 . S
C1627 C1630 1.339 . S
C1628 C1626 1.416 . S
C1628 C1630 1.416 . S
C1628 C1661 1.448 . S
C1629 H1614 0.930 1_655 S
C1629 N1625 1.334 . S
C1629 C1627 1.390 . S
C1630 C1627 1.339 . S
C1630 C1628 1.416 . S
C1630 H1637 0.930 . S
N1631 Tb1596 2.572 . S
N1631 C1632 1.340 . S
N1631 C1634 1.361 . S
C1632 H1618 0.930 1_554 S
C1632 N1631 1.340 . S
C1632 C1636 1.407 1_554 S
C1633 C1634 1.413 . S
C1633 C1635 1.416 . S
C1633 C1662 1.427 . S
C1634 C1626 1.424 . S
C1634 N1631 1.361 . S
C1634 C1633 1.413 . S
C1635 H1624 0.931 . S
C1635 C1633 1.416 . S
C1635 C1636 1.332 1_554 S
C1636 H1615 0.929 . S
C1636 C1632 1.407 1_556 S
C1636 C1635 1.332 1_556 S
H1637 C1630 0.930 . S
H1638 C1661 0.930 . S
H1639 C1662 0.929 . S
O1640 Tb1596 2.465 . S
O1640 C1660 1.264 . S
O1641 Tb1596 2.387 1_455 S
O1641 C1652 1.264 . S
O1642 Tb1607 2.349 . S
O1642 C1652 1.243 . S
O1643 Tb1596 2.428 . S
O1643 C1660 1.256 . S
O1644 Tb1596 2.307 . S
O1644 C1659 1.267 1_654 S
O1645 Tb1607 2.393 1_556 S
O1645 C1659 1.248 . S
O1646 Tb1607 2.465 . S
O1646 C1671 1.264 . S
O1647 Tb1607 2.387 . S
O1647 C1663 1.264 . S
O1648 Tb1596 2.349 1_455 S
O1648 C1663 1.243 . S
O1649 Tb1607 2.428 1_556 S
O1649 C1671 1.256 1_556 S
O1650 Tb1607 2.308 . S
O1650 C1670 1.266 . S
O1651 Tb1596 2.393 1_455 S
O1651 C1670 1.248 . S
C1652 O1641 1.264 . S
C1652 O1642 1.243 . S
C1653 C1656 1.399 . S
C1653 C1658 1.383 . S
C1653 C1660 1.496 . S
C1654 C1655 1.399 . S
C1654 C1658 1.389 . S
C1655 C1654 1.399 . S
C1655 C1657 1.380 . S
C1655 H1672 0.929 . S
C1656 C1653 1.399 . S
C1656 C1657 1.392 . S
C1656 H1673 0.929 . S
C1657 C1655 1.380 . S
C1657 C1656 1.392 . S
C1657 H1674 0.929 . S
C1658 C1653 1.383 . S
C1658 C1654 1.389 . S
C1658 H1675 0.931 . S
C1659 O1644 1.267 1_456 S
C1659 O1645 1.248 . S
C1660 Tb1596 2.802 . S
C1660 O1640 1.264 . S
C1660 O1643 1.256 . S
C1660 C1653 1.496 . S
C1661 C1628 1.448 . S
C1661 H1638 0.930 . S
C1661 C1662 1.328 . S
C1662 C1633 1.427 . S
C1662 H1639 0.929 . S
C1662 C1661 1.328 . S
C1663 O1647 1.264 . S
C1663 O1648 1.243 . S
C1664 C1667 1.399 . S
C1664 C1668 1.383 1_556 S
C1664 C1671 1.496 1_556 S
C1665 C1666 1.399 1_554 S
C1665 C1668 1.389 . S
C1666 C1665 1.399 1_556 S
C1666 C1669 1.380 . S
C1666 H1676 0.929 . S
C1667 C1664 1.399 . S
C1667 C1669 1.392 . S
C1667 H1677 0.929 . S
C1668 C1664 1.383 1_554 S
C1668 C1665 1.389 . S
C1668 H1678 0.931 . S
C1669 C1666 1.380 . S
C1669 C1667 1.392 . S
C1669 H1679 0.929 . S
C1670 O1650 1.266 . S
C1670 O1651 1.248 . S
C1671 Tb1607 2.802 . S
C1671 O1646 1.264 . S
C1671 O1649 1.256 1_554 S
C1671 C1664 1.496 1_554 S
H1672 C1655 0.929 . S
H1673 C1656 0.929 . S
H1674 C1657 0.929 . S
H1675 C1658 0.931 . S
H1676 C1666 0.929 . S
H1677 C1667 0.929 . S
H1678 C1668 0.931 . S
H1679 C1669 0.929 . S
H1680 C1688 0.929 . S
H1681 C1690 0.930 . S
H1682 C1692 0.930 . S
H1683 C1695 0.929 . S
H1684 C1698 0.944 . S
H1685 C1700 0.960 . S
H1686 C1700 0.960 . S
H1687 C1700 0.960 1_655 S
C1688 H1680 0.929 . S
C1688 C1689 1.377 1_455 S
C1688 C1690 1.384 . S
C1689 C1688 1.377 1_655 S
C1689 C1695 1.390 . S
C1690 H1681 0.930 . S
C1690 C1688 1.384 . S
C1690 C1691 1.372 . S
C1691 C1690 1.372 . S
C1691 C1692 1.400 1_455 S
C1691 C1696 1.490 . S
C1692 H1682 0.930 . S
C1692 C1691 1.400 1_655 S
C1692 C1695 1.386 . S
H1693 C1709 0.934 1_655 S
H1694 C1710 0.931 1_655 S
C1695 H1683 0.929 . S
C1695 C1689 1.390 . S
C1695 C1692 1.386 . S
C1696 C1691 1.490 . S
C1696 C1698 1.370 1_556 S
C1696 C1699 1.403 . S
H1697 C1703 0.930 . S
C1698 H1684 0.944 . S
C1698 C1696 1.370 1_554 S
C1698 C1701 1.415 . S
C1699 C1696 1.403 . S
C1699 C1700 1.524 . S
C1699 C1703 1.400 . S
C1700 H1685 0.960 . S
C1700 H1686 0.960 . S
C1700 H1687 0.960 1_455 S
C1700 C1699 1.524 . S
C1701 C1698 1.415 . S
C1701 C1702 1.392 1_554 S
C1701 C1705 1.495 . S
C1702 C1701 1.392 1_556 S
C1702 C1703 1.385 . S
C1702 C1704 1.478 1_556 S
C1703 H1697 0.930 . S
C1703 C1699 1.400 . S
C1703 C1702 1.385 . S
C1704 C1702 1.478 1_554 S
C1704 C1706 1.381 . S
C1704 C1710 1.383 1_554 S
C1705 C1701 1.495 . S
C1705 H1711 0.959 . S
C1705 H1712 0.961 . S
C1705 H1713 0.960 . S
C1706 C1704 1.381 . S
C1706 C1707 1.394 . S
C1706 H1714 0.930 . S
C1707 C1706 1.394 . S
C1707 C1708 1.383 . S
C1707 H1715 0.929 . S
C1708 C1707 1.383 . S
C1708 C1709 1.377 . S
C1709 H1693 0.934 1_455 S
C1709 C1708 1.377 . S
C1709 C1710 1.379 1_554 S
C1710 H1694 0.931 1_455 S
C1710 C1704 1.383 1_556 S
C1710 C1709 1.379 1_556 S
H1711 C1705 0.959 . S
H1712 C1705 0.961 . S
H1713 C1705 0.960 . S
H1714 C1706 0.930 . S
H1715 C1707 0.929 . S
H1716 C1724 0.929 . S
H1717 C1726 0.930 . S
H1718 C1728 0.930 . S
H1719 C1731 0.929 . S
H1720 C1734 0.930 . S
H1721 C1736 0.960 . S
H1722 C1736 0.960 . S
H1723 C1736 0.960 . S
C1724 H1716 0.929 . S
C1724 C1725 1.377 . S
C1724 C1726 1.384 . S
C1725 C1724 1.377 . S
C1725 C1731 1.390 . S
C1726 H1717 0.930 . S
C1726 C1724 1.384 . S
C1726 C1727 1.372 . S
C1727 C1726 1.372 . S
C1727 C1728 1.400 . S
C1727 C1732 1.490 . S
C1728 H1718 0.930 . S
C1728 C1727 1.400 . S
C1728 C1731 1.386 . S
H1729 C1745 0.930 . S
H1730 C1746 0.931 . S
C1731 H1719 0.929 . S
C1731 C1725 1.390 . S
C1731 C1728 1.386 . S
C1732 C1727 1.490 . S
C1732 C1734 1.395 . S
C1732 C1735 1.403 . S
H1733 C1739 0.930 . S
C1734 H1720 0.930 . S
C1734 C1732 1.395 . S
C1734 C1737 1.403 . S
C1735 C1732 1.403 . S
C1735 C1736 1.524 . S
C1735 C1739 1.400 . S
C1736 H1721 0.960 . S
C1736 H1722 0.960 . S
C1736 H1723 0.960 . S
C1736 C1735 1.524 . S
C1737 C1734 1.403 . S
C1737 C1738 1.392 . S
C1737 C1741 1.495 . S
C1738 C1737 1.392 . S
C1738 C1739 1.385 . S
C1738 C1740 1.478 . S
C1739 H1733 0.930 . S
C1739 C1735 1.400 . S
C1739 C1738 1.385 . S
C1740 C1738 1.478 . S
C1740 C1742 1.381 . S
C1740 C1746 1.383 . S
C1741 C1737 1.495 . S
C1741 H1747 0.959 . S
C1741 H1748 0.961 . S
C1741 H1749 0.960 . S
C1742 C1740 1.381 . S
C1742 C1743 1.394 . S
C1742 H1750 0.930 . S
C1743 C1742 1.394 . S
C1743 C1744 1.383 . S
C1743 H1751 0.929 . S
C1744 C1743 1.383 . S
C1744 C1745 1.377 . S
C1745 H1729 0.930 . S
C1745 C1744 1.377 . S
C1745 C1746 1.379 . S
C1746 H1730 0.931 . S
C1746 C1740 1.383 . S
C1746 C1745 1.379 . S
H1747 C1741 0.959 . S
H1748 C1741 0.961 . S
H1749 C1741 0.960 . S
H1750 C1742 0.930 . S
H1751 C1743 0.929 . S
H1752 C1760 0.929 . S
H1753 C1762 0.930 . S
H1754 C1764 0.930 . S
H1755 C1767 0.929 . S
H1756 C1770 0.930 . S
H1757 C1772 0.960 . S
H1758 C1772 0.960 . S
H1759 C1772 0.960 . S
C1760 H1752 0.929 . S
C1760 C1761 1.377 . S
C1760 C1762 1.384 . S
C1761 C1760 1.377 . S
C1761 C1767 1.390 . S
C1762 H1753 0.930 . S
C1762 C1760 1.384 . S
C1762 C1763 1.372 . S
C1763 C1762 1.372 . S
C1763 C1764 1.400 . S
C1763 C1768 1.490 . S
C1764 H1754 0.930 . S
C1764 C1763 1.400 . S
C1764 C1767 1.386 . S
H1765 C1781 0.930 . S
H1766 C1782 0.931 . S
C1767 H1755 0.929 . S
C1767 C1761 1.390 . S
C1767 C1764 1.386 . S
C1768 C1763 1.490 . S
C1768 C1770 1.395 . S
C1768 C1771 1.403 . S
H1769 C1775 0.930 . S
C1770 H1756 0.930 . S
C1770 C1768 1.395 . S
C1770 C1773 1.403 . S
C1771 C1768 1.403 . S
C1771 C1772 1.524 . S
C1771 C1775 1.400 . S
C1772 H1757 0.960 . S
C1772 H1758 0.960 . S
C1772 H1759 0.960 . S
C1772 C1771 1.524 . S
C1773 C1770 1.403 . S
C1773 C1774 1.392 . S
C1773 C1777 1.495 . S
C1774 C1773 1.392 . S
C1774 C1775 1.385 . S
C1774 C1776 1.478 . S
C1775 H1769 0.930 . S
C1775 C1771 1.400 . S
C1775 C1774 1.385 . S
C1776 C1774 1.478 . S
C1776 C1778 1.381 . S
C1776 C1782 1.383 . S
C1777 C1773 1.495 . S
C1777 H1783 0.959 . S
C1777 H1784 0.961 . S
C1777 H1785 0.960 . S
C1778 C1776 1.381 . S
C1778 C1779 1.394 . S
C1778 H1786 0.930 . S
C1779 C1778 1.394 . S
C1779 C1780 1.383 . S
C1779 H1787 0.929 . S
C1780 C1779 1.383 . S
C1780 C1781 1.377 . S
C1781 H1765 0.930 . S
C1781 C1780 1.377 . S
C1781 C1782 1.379 . S
C1782 H1766 0.931 . S
C1782 C1776 1.383 . S
C1782 C1781 1.379 . S
H1783 C1777 0.959 . S
H1784 C1777 0.961 . S
H1785 C1777 0.960 . S
H1786 C1778 0.930 . S
H1787 C1779 0.929 . S
H1788 C1796 0.929 . S
H1789 C1798 0.930 . S
H1790 C1800 0.930 . S
H1791 C1803 0.929 . S
H1792 C1806 0.930 . S
H1793 C1808 0.960 . S
H1794 C1808 0.960 . S
H1795 C1808 0.960 . S
C1796 H1788 0.929 . S
C1796 C1797 1.377 . S
C1796 C1798 1.384 . S
C1797 C1796 1.377 . S
C1797 C1803 1.390 . S
C1798 H1789 0.930 . S
C1798 C1796 1.384 . S
C1798 C1799 1.372 . S
C1799 C1798 1.372 . S
C1799 C1800 1.400 . S
C1799 C1804 1.490 . S
C1800 H1790 0.930 . S
C1800 C1799 1.400 . S
C1800 C1803 1.386 . S
H1801 C1817 0.930 . S
H1802 C1818 0.931 . S
C1803 H1791 0.929 . S
C1803 C1797 1.390 . S
C1803 C1800 1.386 . S
C1804 C1799 1.490 . S
C1804 C1806 1.395 . S
C1804 C1807 1.403 . S
H1805 C1811 0.930 . S
C1806 H1792 0.930 . S
C1806 C1804 1.395 . S
C1806 C1809 1.403 . S
C1807 C1804 1.403 . S
C1807 C1808 1.524 . S
C1807 C1811 1.400 . S
C1808 H1793 0.960 . S
C1808 H1794 0.960 . S
C1808 H1795 0.960 . S
C1808 C1807 1.524 . S
C1809 C1806 1.403 . S
C1809 C1810 1.392 . S
C1809 C1813 1.495 . S
C1810 C1809 1.392 . S
C1810 C1811 1.385 . S
C1810 C1812 1.478 . S
C1811 H1805 0.930 . S
C1811 C1807 1.400 . S
C1811 C1810 1.385 . S
C1812 C1810 1.478 . S
C1812 C1814 1.381 . S
C1812 C1818 1.383 . S
C1813 C1809 1.495 . S
C1813 H1819 0.959 . S
C1813 H1820 0.961 . S
C1813 H1821 0.960 . S
C1814 C1812 1.381 . S
C1814 C1815 1.394 . S
C1814 H1822 0.930 . S
C1815 C1814 1.394 . S
C1815 C1816 1.383 . S
C1815 H1823 0.929 . S
C1816 C1815 1.383 . S
C1816 C1817 1.377 . S
C1817 H1801 0.930 . S
C1817 C1816 1.377 . S
C1817 C1818 1.379 . S
C1818 H1802 0.931 . S
C1818 C1812 1.383 . S
C1818 C1817 1.379 . S
H1819 C1813 0.959 . S
H1820 C1813 0.961 . S
H1821 C1813 0.960 . S
H1822 C1814 0.930 . S
H1823 C1815 0.929 . S
H1824 C1832 0.929 . S
H1825 C1834 0.930 . S
H1826 C1836 0.930 . S
H1827 C1839 0.929 . S
H1828 C1842 0.930 1_655 S
H1829 C1844 0.960 . S
H1830 C1844 0.960 . S
H1831 C1844 0.960 . S
C1832 H1824 0.929 . S
C1832 C1833 1.377 . S
C1832 C1834 1.384 . S
C1833 C1832 1.377 . S
C1833 C1839 1.390 . S
C1834 H1825 0.930 . S
C1834 C1832 1.384 . S
C1834 C1835 1.372 . S
C1835 C1834 1.372 . S
C1835 C1836 1.400 . S
C1835 C1840 1.490 . S
C1836 H1826 0.930 . S
C1836 C1835 1.400 . S
C1836 C1839 1.386 . S
H1837 C1853 0.930 . S
H1838 C1854 0.931 . S
C1839 H1827 0.929 . S
C1839 C1833 1.390 . S
C1839 C1836 1.386 . S
C1840 C1835 1.490 . S
C1840 C1842 1.395 . S
C1840 C1843 1.403 . S
H1841 C1847 0.930 . S
C1842 H1828 0.930 1_455 S
C1842 C1840 1.395 . S
C1842 C1845 1.403 . S
C1843 C1840 1.403 . S
C1843 C1844 1.524 . S
C1843 C1847 1.400 . S
C1844 H1829 0.960 . S
C1844 H1830 0.960 . S
C1844 H1831 0.960 . S
C1844 C1843 1.524 . S
C1845 C1842 1.403 . S
C1845 C1846 1.392 . S
C1845 C1849 1.495 1_455 S
C1846 C1845 1.392 . S
C1846 C1847 1.385 . S
C1846 C1848 1.478 . S
C1847 H1841 0.930 . S
C1847 C1843 1.400 . S
C1847 C1846 1.385 . S
C1848 C1846 1.478 . S
C1848 C1850 1.381 . S
C1848 C1854 1.383 . S
C1849 C1845 1.495 1_655 S
C1849 H1855 0.959 . S
C1849 H1856 0.961 . S
C1849 H1857 0.960 . S
C1850 C1848 1.381 . S
C1850 C1851 1.394 . S
C1850 H1858 0.930 . S
C1851 C1850 1.394 . S
C1851 C1852 1.383 . S
C1851 H1859 0.929 . S
C1852 C1851 1.383 . S
C1852 C1853 1.377 . S
C1853 H1837 0.930 . S
C1853 C1852 1.377 . S
C1853 C1854 1.379 . S
C1854 H1838 0.931 . S
C1854 C1848 1.383 . S
C1854 C1853 1.379 . S
H1855 C1849 0.959 . S
H1856 C1849 0.961 . S
H1857 C1849 0.960 . S
H1858 C1850 0.930 . S
H1859 C1851 0.929 . S
H1860 C1868 0.929 . S
H1861 C1870 0.930 . S
H1862 C1872 0.930 . S
H1863 C1875 0.929 . S
H1864 C1878 0.930 . S
H1865 C1880 0.960 . S
H1866 C1880 0.960 . S
H1867 C1880 0.960 . S
C1868 H1860 0.929 . S
C1868 C1869 1.377 . S
C1868 C1870 1.384 . S
C1869 C1868 1.377 . S
C1869 C1875 1.390 . S
C1870 H1861 0.930 . S
C1870 C1868 1.384 . S
C1870 C1871 1.372 . S
C1871 C1870 1.372 . S
C1871 C1872 1.400 . S
C1871 C1876 1.490 . S
C1872 H1862 0.930 . S
C1872 C1871 1.400 . S
C1872 C1875 1.386 . S
H1873 C1889 0.930 . S
H1874 C1890 0.931 . S
C1875 H1863 0.929 . S
C1875 C1869 1.390 . S
C1875 C1872 1.386 . S
C1876 C1871 1.490 . S
C1876 C1878 1.395 . S
C1876 C1879 1.403 . S
H1877 C1883 0.930 . S
C1878 H1864 0.930 . S
C1878 C1876 1.395 . S
C1878 C1881 1.403 . S
C1879 C1876 1.403 . S
C1879 C1880 1.524 . S
C1879 C1883 1.400 . S
C1880 H1865 0.960 . S
C1880 H1866 0.960 . S
C1880 H1867 0.960 . S
C1880 C1879 1.524 . S
C1881 C1878 1.403 . S
C1881 C1882 1.392 . S
C1881 C1885 1.495 . S
C1882 C1881 1.392 . S
C1882 C1883 1.385 . S
C1882 C1884 1.478 . S
C1883 H1877 0.930 . S
C1883 C1879 1.400 . S
C1883 C1882 1.385 . S
C1884 C1882 1.478 . S
C1884 C1886 1.381 . S
C1884 C1890 1.383 . S
C1885 C1881 1.495 . S
C1885 H1891 0.959 . S
C1885 H1892 0.961 . S
C1885 H1893 0.960 . S
C1886 C1884 1.381 . S
C1886 C1887 1.394 . S
C1886 H1894 0.930 . S
C1887 C1886 1.394 . S
C1887 C1888 1.383 . S
C1887 H1895 0.929 . S
C1888 C1887 1.383 . S
C1888 C1889 1.377 . S
C1889 H1873 0.930 . S
C1889 C1888 1.377 . S
C1889 C1890 1.379 . S
C1890 H1874 0.931 . S
C1890 C1884 1.383 . S
C1890 C1889 1.379 . S
H1891 C1885 0.959 . S
H1892 C1885 0.961 . S
H1893 C1885 0.960 . S
H1894 C1886 0.930 . S
H1895 C1887 0.929 . S
H1896 C1904 0.929 . S
H1897 C1906 0.930 . S
H1898 C1908 0.930 . S
H1899 C1911 0.929 . S
H1900 C1914 0.930 . S
H1901 C1916 0.960 . S
H1902 C1916 0.960 . S
H1903 C1916 0.960 . S
C1904 H1896 0.929 . S
C1904 C1905 1.377 . S
C1904 C1906 1.384 . S
C1905 C1904 1.377 . S
C1905 C1911 1.390 . S
C1906 H1897 0.930 . S
C1906 C1904 1.384 . S
C1906 C1907 1.372 . S
C1907 C1906 1.372 . S
C1907 C1908 1.400 . S
C1907 C1912 1.490 . S
C1908 H1898 0.930 . S
C1908 C1907 1.400 . S
C1908 C1911 1.386 . S
H1909 C1925 0.930 . S
H1910 C1926 0.931 . S
C1911 H1899 0.929 . S
C1911 C1905 1.390 . S
C1911 C1908 1.386 . S
C1912 C1907 1.490 . S
C1912 C1914 1.395 . S
C1912 C1915 1.403 . S
H1913 C1919 0.930 . S
C1914 H1900 0.930 . S
C1914 C1912 1.395 . S
C1914 C1917 1.403 . S
C1915 C1912 1.403 . S
C1915 C1916 1.524 . S
C1915 C1919 1.400 . S
C1916 H1901 0.960 . S
C1916 H1902 0.960 . S
C1916 H1903 0.960 . S
C1916 C1915 1.524 . S
C1917 C1914 1.403 . S
C1917 C1918 1.392 . S
C1917 C1921 1.495 . S
C1918 C1917 1.392 . S
C1918 C1919 1.385 . S
C1918 C1920 1.478 . S
C1919 H1913 0.930 . S
C1919 C1915 1.400 . S
C1919 C1918 1.385 . S
C1920 C1918 1.478 . S
C1920 C1922 1.381 . S
C1920 C1926 1.383 . S
C1921 C1917 1.495 . S
C1921 H1927 0.959 . S
C1921 H1928 0.961 . S
C1921 H1929 0.960 . S
C1922 C1920 1.381 . S
C1922 C1923 1.394 . S
C1922 H1930 0.930 . S
C1923 C1922 1.394 . S
C1923 C1924 1.383 . S
C1923 H1931 0.929 . S
C1924 C1923 1.383 . S
C1924 C1925 1.377 . S
C1925 H1909 0.930 . S
C1925 C1924 1.377 . S
C1925 C1926 1.379 . S
C1926 H1910 0.931 . S
C1926 C1920 1.383 . S
C1926 C1925 1.379 . S
H1927 C1921 0.959 . S
H1928 C1921 0.961 . S
H1929 C1921 0.960 . S
H1930 C1922 0.930 . S
H1931 C1923 0.929 . S
H1932 C1940 0.929 . S
H1933 C1942 0.930 . S
H1934 C1944 0.930 . S
H1935 C1947 0.929 . S
H1936 C1950 0.930 . S
H1937 C1952 0.960 . S
H1938 C1952 0.960 . S
H1939 C1952 0.960 . S
C1940 H1932 0.929 . S
C1940 C1941 1.377 . S
C1940 C1942 1.384 . S
C1941 C1940 1.377 . S
C1941 C1947 1.390 . S
C1942 H1933 0.930 . S
C1942 C1940 1.384 . S
C1942 C1943 1.372 . S
C1943 C1942 1.372 . S
C1943 C1944 1.400 . S
C1943 C1948 1.490 . S
C1944 H1934 0.930 . S
C1944 C1943 1.400 . S
C1944 C1947 1.386 . S
H1945 C1961 0.930 . S
H1946 C1962 0.931 . S
C1947 H1935 0.929 . S
C1947 C1941 1.390 . S
C1947 C1944 1.386 . S
C1948 C1943 1.490 . S
C1948 C1950 1.395 . S
C1948 C1951 1.403 . S
H1949 C1955 0.930 . S
C1950 H1936 0.930 . S
C1950 C1948 1.395 . S
C1950 C1953 1.403 . S
C1951 C1948 1.403 . S
C1951 C1952 1.524 . S
C1951 C1955 1.400 . S
C1952 H1937 0.960 . S
C1952 H1938 0.960 . S
C1952 H1939 0.960 . S
C1952 C1951 1.524 . S
C1953 C1950 1.403 . S
C1953 C1954 1.392 . S
C1953 C1957 1.495 . S
C1954 C1953 1.392 . S
C1954 C1955 1.385 . S
C1954 C1956 1.478 . S
C1955 H1949 0.930 . S
C1955 C1951 1.400 . S
C1955 C1954 1.385 . S
C1956 C1954 1.478 . S
C1956 C1958 1.381 . S
C1956 C1962 1.383 . S
C1957 C1953 1.495 . S
C1957 H1963 0.959 . S
C1957 H1964 0.961 . S
C1957 H1965 0.960 . S
C1958 C1956 1.381 . S
C1958 C1959 1.394 . S
C1958 H1966 0.930 . S
C1959 C1958 1.394 . S
C1959 C1960 1.383 . S
C1959 H1967 0.929 . S
C1960 C1959 1.383 . S
C1960 C1961 1.377 . S
C1961 H1945 0.930 . S
C1961 C1960 1.377 . S
C1961 C1962 1.379 . S
C1962 H1946 0.931 . S
C1962 C1956 1.383 . S
C1962 C1961 1.379 . S
H1963 C1957 0.959 . S
H1964 C1957 0.961 . S
H1965 C1957 0.960 . S
H1966 C1958 0.930 . S
H1967 C1959 0.929 . S
H1968 C1976 0.929 1_565 S
H1969 C1978 0.923 1_565 S
H1970 C1980 0.930 . S
H1971 C1983 0.929 . S
H1972 C1986 0.930 . S
H1973 C1988 0.960 1_455 S
H1974 C1988 0.960 1_565 S
H1975 C1988 0.960 . S
C1976 H1968 0.929 1_545 S
C1976 C1977 1.377 . S
C1976 C1978 1.384 . S
C1977 C1976 1.377 . S
C1977 C1983 1.390 . S
C1978 H1969 0.923 1_545 S
C1978 C1976 1.384 . S
C1978 C1979 1.372 . S
C1979 C1978 1.372 . S
C1979 C1980 1.400 . S
C1979 C1984 1.490 . S
C1980 H1970 0.930 . S
C1980 C1979 1.400 . S
C1980 C1983 1.386 . S
H1981 C1997 0.930 . S
H1982 C1998 0.931 . S
C1983 H1971 0.929 . S
C1983 C1977 1.390 . S
C1983 C1980 1.386 . S
C1984 C1979 1.490 . S
C1984 C1986 1.395 . S
C1984 C1987 1.403 . S
H1985 C1991 0.930 1_455 S
C1986 H1972 0.930 . S
C1986 C1984 1.395 . S
C1986 C1989 1.403 . S
C1987 C1984 1.403 . S
C1987 C1988 1.524 . S
C1987 C1991 1.400 . S
C1988 H1973 0.960 1_655 S
C1988 H1974 0.960 1_545 S
C1988 H1975 0.960 . S
C1988 C1987 1.524 . S
C1989 C1986 1.403 . S
C1989 C1990 1.392 . S
C1989 C1993 1.495 . S
C1990 C1989 1.392 . S
C1990 C1991 1.385 . S
C1990 C1992 1.478 . S
C1991 H1985 0.930 1_655 S
C1991 C1987 1.400 . S
C1991 C1990 1.385 . S
C1992 C1990 1.478 . S
C1992 C1994 1.381 . S
C1992 C1998 1.383 1_655 S
C1993 C1989 1.495 . S
C1993 H1999 0.959 . S
C1993 H2000 0.961 . S
C1993 H2001 0.960 . S
C1994 C1992 1.381 . S
C1994 C1995 1.394 . S
C1994 H2002 0.930 . S
C1995 C1994 1.394 . S
C1995 C1996 1.383 1_655 S
C1995 H2003 0.929 . S
C1996 C1995 1.383 1_455 S
C1996 C1997 1.377 . S
C1997 H1981 0.930 . S
C1997 C1996 1.377 . S
C1997 C1998 1.379 . S
C1998 H1982 0.931 . S
C1998 C1992 1.383 1_455 S
C1998 C1997 1.379 . S
H1999 C1993 0.959 . S
H2000 C1993 0.961 . S
H2001 C1993 0.960 . S
H2002 C1994 0.930 . S
H2003 C1995 0.929 . S
H2004 C2012 0.929 . S
H2005 C2014 0.930 . S
H2006 C2016 0.930 . S
H2007 C2019 0.929 . S
H2008 C2022 0.930 . S
H2009 C2024 0.960 . S
H2010 C2024 0.960 . S
H2011 C2024 0.960 . S
C2012 H2004 0.929 . S
C2012 C2013 1.377 . S
C2012 C2014 1.384 . S
C2013 C2012 1.377 . S
C2013 C2019 1.390 . S
C2014 H2005 0.930 . S
C2014 C2012 1.384 . S
C2014 C2015 1.372 . S
C2015 C2014 1.372 . S
C2015 C2016 1.400 . S
C2015 C2020 1.490 . S
C2016 H2006 0.930 . S
C2016 C2015 1.400 . S
C2016 C2019 1.386 . S
H2017 C2033 0.930 . S
H2018 C2034 0.931 . S
C2019 H2007 0.929 . S
C2019 C2013 1.390 . S
C2019 C2016 1.386 . S
C2020 C2015 1.490 . S
C2020 C2022 1.395 . S
C2020 C2023 1.403 . S
H2021 C2027 0.930 . S
C2022 H2008 0.930 . S
C2022 C2020 1.395 . S
C2022 C2025 1.403 . S
C2023 C2020 1.403 . S
C2023 C2024 1.524 . S
C2023 C2027 1.400 . S
C2024 H2009 0.960 . S
C2024 H2010 0.960 . S
C2024 H2011 0.960 . S
C2024 C2023 1.524 . S
C2025 C2022 1.403 . S
C2025 C2026 1.392 . S
C2025 C2029 1.495 . S
C2026 C2025 1.392 . S
C2026 C2027 1.385 . S
C2026 C2028 1.478 . S
C2027 H2021 0.930 . S
C2027 C2023 1.400 . S
C2027 C2026 1.385 . S
C2028 C2026 1.478 . S
C2028 C2030 1.381 . S
C2028 C2034 1.383 . S
C2029 C2025 1.495 . S
C2029 H2035 0.959 . S
C2029 H2036 0.961 . S
C2029 H2037 0.960 . S
C2030 C2028 1.381 . S
C2030 C2031 1.394 . S
C2030 H2038 0.930 . S
C2031 C2030 1.394 . S
C2031 C2032 1.383 . S
C2031 H2039 0.929 . S
C2032 C2031 1.383 . S
C2032 C2033 1.377 . S
C2033 H2017 0.930 . S
C2033 C2032 1.377 . S
C2033 C2034 1.379 . S
C2034 H2018 0.931 . S
C2034 C2028 1.383 . S
C2034 C2033 1.379 . S
H2035 C2029 0.959 . S
H2036 C2029 0.961 . S
H2037 C2029 0.960 . S
H2038 C2030 0.930 . S
H2039 C2031 0.929 . S
H2040 C2048 0.929 . S
H2041 C2050 0.930 . S
H2042 C2052 0.930 . S
H2043 C2055 0.929 . S
H2044 C2058 0.930 1_565 S
H2045 C2060 0.960 . S
H2046 C2060 0.960 . S
H2047 C2060 0.960 . S
C2048 H2040 0.929 . S
C2048 C2049 1.377 . S
C2048 C2050 1.384 . S
C2049 C2048 1.377 . S
C2049 C2055 1.390 . S
C2050 H2041 0.930 . S
C2050 C2048 1.384 . S
C2050 C2051 1.372 . S
C2051 C2050 1.372 . S
C2051 C2052 1.400 . S
C2051 C2056 1.490 . S
C2052 H2042 0.930 . S
C2052 C2051 1.400 . S
C2052 C2055 1.386 . S
H2053 C2069 0.930 . S
H2054 C2070 0.931 . S
C2055 H2043 0.929 . S
C2055 C2049 1.390 . S
C2055 C2052 1.386 . S
C2056 C2051 1.490 . S
C2056 C2058 1.395 . S
C2056 C2059 1.403 . S
H2057 C2063 0.930 . S
C2058 H2044 0.930 1_545 S
C2058 C2056 1.395 . S
C2058 C2061 1.403 . S
C2059 C2056 1.403 . S
C2059 C2060 1.524 . S
C2059 C2063 1.400 . S
C2060 H2045 0.960 . S
C2060 H2046 0.960 . S
C2060 H2047 0.960 . S
C2060 C2059 1.524 . S
C2061 C2058 1.403 . S
C2061 C2062 1.392 . S
C2061 C2065 1.495 1_545 S
C2062 C2061 1.392 . S
C2062 C2063 1.385 . S
C2062 C2064 1.478 . S
C2063 H2057 0.930 . S
C2063 C2059 1.400 . S
C2063 C2062 1.385 . S
C2064 C2062 1.478 . S
C2064 C2066 1.381 . S
C2064 C2070 1.383 . S
C2065 C2061 1.495 1_565 S
C2065 H2071 0.959 . S
C2065 H2072 0.961 . S
C2065 H2073 0.960 . S
C2066 C2064 1.381 . S
C2066 C2067 1.394 . S
C2066 H2074 0.930 1_545 S
C2067 C2066 1.394 . S
C2067 C2068 1.383 . S
C2067 H2075 0.929 1_545 S
C2068 C2067 1.383 . S
C2068 C2069 1.377 . S
C2069 H2053 0.930 . S
C2069 C2068 1.377 . S
C2069 C2070 1.379 . S
C2070 H2054 0.931 . S
C2070 C2064 1.383 . S
C2070 C2069 1.379 . S
H2071 C2065 0.959 . S
H2072 C2065 0.961 . S
H2073 C2065 0.960 . S
H2074 C2066 0.930 1_565 S
H2075 C2067 0.929 1_565 S
H2076 C2084 0.929 . S
H2077 C2086 0.930 . S
H2078 C2088 0.930 . S
H2079 C2091 0.929 . S
H2080 C2094 0.930 . S
H2081 C2096 0.960 . S
H2082 C2096 0.960 . S
H2083 C2096 0.960 . S
C2084 H2076 0.929 . S
C2084 C2085 1.377 . S
C2084 C2086 1.384 . S
C2085 C2084 1.377 . S
C2085 C2091 1.390 . S
C2086 H2077 0.930 . S
C2086 C2084 1.384 . S
C2086 C2087 1.372 . S
C2087 C2086 1.372 . S
C2087 C2088 1.400 . S
C2087 C2092 1.490 . S
C2088 H2078 0.930 . S
C2088 C2087 1.400 . S
C2088 C2091 1.386 . S
H2089 C2105 0.930 . S
H2090 C2106 0.931 . S
C2091 H2079 0.929 . S
C2091 C2085 1.390 . S
C2091 C2088 1.386 . S
C2092 C2087 1.490 . S
C2092 C2094 1.395 . S
C2092 C2095 1.403 . S
H2093 C2099 0.930 . S
C2094 H2080 0.930 . S
C2094 C2092 1.395 . S
C2094 C2097 1.403 . S
C2095 C2092 1.403 . S
C2095 C2096 1.524 . S
C2095 C2099 1.400 . S
C2096 H2081 0.960 . S
C2096 H2082 0.960 . S
C2096 H2083 0.960 . S
C2096 C2095 1.524 . S
C2097 C2094 1.403 . S
C2097 C2098 1.392 . S
C2097 C2101 1.495 . S
C2098 C2097 1.392 . S
C2098 C2099 1.385 . S
C2098 C2100 1.478 . S
C2099 H2093 0.930 . S
C2099 C2095 1.400 . S
C2099 C2098 1.385 . S
C2100 C2098 1.478 . S
C2100 C2102 1.381 . S
C2100 C2106 1.383 . S
C2101 C2097 1.495 . S
C2101 H2107 0.959 . S
C2101 H2108 0.961 . S
C2101 H2109 0.960 . S
C2102 C2100 1.381 . S
C2102 C2103 1.394 . S
C2102 H2110 0.930 . S
C2103 C2102 1.394 . S
C2103 C2104 1.383 . S
C2103 H2111 0.929 . S
C2104 C2103 1.383 . S
C2104 C2105 1.377 . S
C2105 H2089 0.930 . S
C2105 C2104 1.377 . S
C2105 C2106 1.379 . S
C2106 H2090 0.931 . S
C2106 C2100 1.383 . S
C2106 C2105 1.379 . S
H2107 C2101 0.959 . S
H2108 C2101 0.961 . S
H2109 C2101 0.960 . S
H2110 C2102 0.930 . S
H2111 C2103 0.929 . S
H2112 C2120 0.929 . S
H2113 C2122 0.930 . S
H2114 C2124 0.930 1_565 S
H2115 C2127 0.899 1_565 S
H2116 C2130 0.930 . S
H2117 C2132 0.960 . S
H2118 C2132 0.969 . S
H2119 C2132 0.960 . S
C2120 H2112 0.929 . S
C2120 C2121 1.377 . S
C2120 C2122 1.384 . S
C2121 C2120 1.377 . S
C2121 C2127 1.428 . S
C2122 H2113 0.930 . S
C2122 C2120 1.384 . S
C2122 C2123 1.372 . S
C2123 C2122 1.372 . S
C2123 C2124 1.400 . S
C2123 C2128 1.490 . S
C2124 H2114 0.930 1_545 S
C2124 C2123 1.400 . S
C2124 C2127 1.379 . S
H2125 C2141 0.930 1_565 S
H2126 C2142 0.931 1_565 S
C2127 H2115 0.899 1_545 S
C2127 C2121 1.428 . S
C2127 C2124 1.379 . S
C2128 C2123 1.490 . S
C2128 C2130 1.395 . S
C2128 C2131 1.403 . S
H2129 C2135 0.927 . S
C2130 H2116 0.930 . S
C2130 C2128 1.395 . S
C2130 C2133 1.403 . S
C2131 C2128 1.403 . S
C2131 C2132 1.524 1_545 S
C2131 C2135 1.400 . S
C2132 H2117 0.960 . S
C2132 H2118 0.969 . S
C2132 H2119 0.960 . S
C2132 C2131 1.524 1_565 S
C2133 C2130 1.403 . S
C2133 C2134 1.392 . S
C2133 C2137 1.495 . S
C2134 C2133 1.392 . S
C2134 C2135 1.385 . S
C2134 C2136 1.478 . S
C2135 H2129 0.927 . S
C2135 C2131 1.400 . S
C2135 C2134 1.385 . S
C2136 C2134 1.478 . S
C2136 C2138 1.381 1_655 S
C2136 C2142 1.383 . S
C2137 C2133 1.495 . S
C2137 H2143 0.959 . S
C2137 H2144 0.961 . S
C2137 H2145 0.960 . S
C2138 C2136 1.381 1_455 S
C2138 C2139 1.394 . S
C2138 H2146 0.930 . S
C2139 C2138 1.394 . S
C2139 C2140 1.383 . S
C2139 H2147 0.929 . S
C2140 C2139 1.383 . S
C2140 C2141 1.377 1_455 S
C2141 H2125 0.930 1_545 S
C2141 C2140 1.377 1_655 S
C2141 C2142 1.379 . S
C2142 H2126 0.931 1_545 S
C2142 C2136 1.383 . S
C2142 C2141 1.379 . S
H2143 C2137 0.959 . S
H2144 C2137 0.961 . S
H2145 C2137 0.960 . S
H2146 C2138 0.930 . S
H2147 C2139 0.929 . S
H2148 C2156 0.929 . S
H2149 C2158 0.930 . S
H2150 C2160 0.930 . S
H2151 C2163 0.929 . S
H2152 C2166 0.930 . S
H2153 C2168 0.960 . S
H2154 C2168 0.960 . S
H2155 C2168 0.960 . S
C2156 H2148 0.929 . S
C2156 C2157 1.377 . S
C2156 C2158 1.384 . S
C2157 C2156 1.377 . S
C2157 C2163 1.390 . S
C2158 H2149 0.930 . S
C2158 C2156 1.384 . S
C2158 C2159 1.372 . S
C2159 C2158 1.372 . S
C2159 C2160 1.400 . S
C2159 C2164 1.490 . S
C2160 H2150 0.930 . S
C2160 C2159 1.400 . S
C2160 C2163 1.386 . S
H2161 C2177 0.930 . S
H2162 C2178 0.931 . S
C2163 H2151 0.929 . S
C2163 C2157 1.390 . S
C2163 C2160 1.386 . S
C2164 C2159 1.490 . S
C2164 C2166 1.395 . S
C2164 C2167 1.403 . S
H2165 C2171 0.930 . S
C2166 H2152 0.930 . S
C2166 C2164 1.395 . S
C2166 C2169 1.403 . S
C2167 C2164 1.403 . S
C2167 C2168 1.524 . S
C2167 C2171 1.400 . S
C2168 H2153 0.960 . S
C2168 H2154 0.960 . S
C2168 H2155 0.960 . S
C2168 C2167 1.524 . S
C2169 C2166 1.403 . S
C2169 C2170 1.392 . S
C2169 C2173 1.495 . S
C2170 C2169 1.392 . S
C2170 C2171 1.385 . S
C2170 C2172 1.478 . S
C2171 H2165 0.930 . S
C2171 C2167 1.400 . S
C2171 C2170 1.385 . S
C2172 C2170 1.478 . S
C2172 C2174 1.381 . S
C2172 C2178 1.383 . S
C2173 C2169 1.495 . S
C2173 H2179 0.959 . S
C2173 H2180 0.961 . S
C2173 H2181 0.960 . S
C2174 C2172 1.381 . S
C2174 C2175 1.394 . S
C2174 H2182 0.930 . S
C2175 C2174 1.394 . S
C2175 C2176 1.383 . S
C2175 H2183 0.929 . S
C2176 C2175 1.383 . S
C2176 C2177 1.377 . S
C2177 H2161 0.930 . S
C2177 C2176 1.377 . S
C2177 C2178 1.379 . S
C2178 H2162 0.931 . S
C2178 C2172 1.383 . S
C2178 C2177 1.379 . S
H2179 C2173 0.959 . S
H2180 C2173 0.961 . S
H2181 C2173 0.960 . S
H2182 C2174 0.930 . S
H2183 C2175 0.929 . S
H2184 C2192 0.929 . S
H2185 C2194 0.930 . S
H2186 C2196 0.930 . S
H2187 C2199 0.929 . S
H2188 C2202 0.930 . S
H2189 C2204 0.960 . S
H2190 C2204 0.960 . S
H2191 C2204 0.960 . S
C2192 H2184 0.929 . S
C2192 C2193 1.377 . S
C2192 C2194 1.384 . S
C2193 C2192 1.377 . S
C2193 C2199 1.390 . S
C2194 H2185 0.930 . S
C2194 C2192 1.384 . S
C2194 C2195 1.372 . S
C2195 C2194 1.372 . S
C2195 C2196 1.400 . S
C2195 C2200 1.490 . S
C2196 H2186 0.930 . S
C2196 C2195 1.400 . S
C2196 C2199 1.386 . S
H2197 C2213 0.930 . S
H2198 C2214 0.931 . S
C2199 H2187 0.929 . S
C2199 C2193 1.390 . S
C2199 C2196 1.386 . S
C2200 C2195 1.490 . S
C2200 C2202 1.395 . S
C2200 C2203 1.403 . S
H2201 C2207 0.930 . S
C2202 H2188 0.930 . S
C2202 C2200 1.395 . S
C2202 C2205 1.403 . S
C2203 C2200 1.403 . S
C2203 C2204 1.524 . S
C2203 C2207 1.400 . S
C2204 H2189 0.960 . S
C2204 H2190 0.960 . S
C2204 H2191 0.960 . S
C2204 C2203 1.524 . S
C2205 C2202 1.403 . S
C2205 C2206 1.392 . S
C2205 C2209 1.495 . S
C2206 C2205 1.392 . S
C2206 C2207 1.385 . S
C2206 C2208 1.478 . S
C2207 H2201 0.930 . S
C2207 C2203 1.400 . S
C2207 C2206 1.385 . S
C2208 C2206 1.478 . S
C2208 C2210 1.381 . S
C2208 C2214 1.383 . S
C2209 C2205 1.495 . S
C2209 H2215 0.959 . S
C2209 H2216 0.961 . S
C2209 H2217 0.960 . S
C2210 C2208 1.381 . S
C2210 C2211 1.394 . S
C2210 H2218 0.930 . S
C2211 C2210 1.394 . S
C2211 C2212 1.383 . S
C2211 H2219 0.929 . S
C2212 C2211 1.383 . S
C2212 C2213 1.377 . S
C2213 H2197 0.930 . S
C2213 C2212 1.377 . S
C2213 C2214 1.379 . S
C2214 H2198 0.931 . S
C2214 C2208 1.383 . S
C2214 C2213 1.379 . S
H2215 C2209 0.959 . S
H2216 C2209 0.961 . S
H2217 C2209 0.960 . S
H2218 C2210 0.930 . S
H2219 C2211 0.929 . S
H2220 C2228 0.929 . S
H2221 C2230 0.930 . S
H2222 C2232 0.930 . S
H2223 C2235 0.929 . S
H2224 C2238 0.930 . S
H2225 C2240 0.960 . S
H2226 C2240 0.960 . S
H2227 C2240 0.960 . S
C2228 H2220 0.929 . S
C2228 C2229 1.377 . S
C2228 C2230 1.384 . S
C2229 C2228 1.377 . S
C2229 C2235 1.390 . S
C2230 H2221 0.930 . S
C2230 C2228 1.384 . S
C2230 C2231 1.372 . S
C2231 C2230 1.372 . S
C2231 C2232 1.400 . S
C2231 C2236 1.490 . S
C2232 H2222 0.930 . S
C2232 C2231 1.400 . S
C2232 C2235 1.386 . S
H2233 C2249 0.930 . S
H2234 C2250 0.931 . S
C2235 H2223 0.929 . S
C2235 C2229 1.390 . S
C2235 C2232 1.386 . S
C2236 C2231 1.490 . S
C2236 C2238 1.395 . S
C2236 C2239 1.403 . S
H2237 C2243 0.930 . S
C2238 H2224 0.930 . S
C2238 C2236 1.395 . S
C2238 C2241 1.403 . S
C2239 C2236 1.403 . S
C2239 C2240 1.524 . S
C2239 C2243 1.400 . S
C2240 H2225 0.960 . S
C2240 H2226 0.960 . S
C2240 H2227 0.960 . S
C2240 C2239 1.524 . S
C2241 C2238 1.403 . S
C2241 C2242 1.392 . S
C2241 C2245 1.495 . S
C2242 C2241 1.392 . S
C2242 C2243 1.385 . S
C2242 C2244 1.478 . S
C2243 H2237 0.930 . S
C2243 C2239 1.400 . S
C2243 C2242 1.385 . S
C2244 C2242 1.478 . S
C2244 C2246 1.381 . S
C2244 C2250 1.383 . S
C2245 C2241 1.495 . S
C2245 H2251 0.959 . S
C2245 H2252 0.961 . S
C2245 H2253 0.960 . S
C2246 C2244 1.381 . S
C2246 C2247 1.394 . S
C2246 H2254 0.930 . S
C2247 C2246 1.394 . S
C2247 C2248 1.383 . S
C2247 H2255 0.929 . S
C2248 C2247 1.383 . S
C2248 C2249 1.377 . S
C2249 H2233 0.930 . S
C2249 C2248 1.377 . S
C2249 C2250 1.379 . S
C2250 H2234 0.931 . S
C2250 C2244 1.383 . S
C2250 C2249 1.379 . S
H2251 C2245 0.959 . S
H2252 C2245 0.961 . S
H2253 C2245 0.960 . S
H2254 C2246 0.930 . S
H2255 C2247 0.929 . S
H2256 C2264 0.929 . S
H2257 C2266 0.930 . S
H2258 C2268 0.930 . S
H2259 C2271 0.929 . S
H2260 C2274 0.930 . S
H2261 C2276 0.960 . S
H2262 C2276 0.960 . S
H2263 C2276 0.960 1_556 S
C2264 H2256 0.929 . S
C2264 C2265 1.399 . S
C2264 C2266 1.384 . S
C2265 C2264 1.399 . S
C2265 C2271 1.374 1_554 S
C2266 H2257 0.930 . S
C2266 C2264 1.384 . S
C2266 C2267 1.372 . S
C2267 C2266 1.372 . S
C2267 C2268 1.400 1_554 S
C2267 C2272 1.490 . S
C2268 H2258 0.930 . S
C2268 C2267 1.400 1_556 S
C2268 C2271 1.386 . S
H2269 C2285 0.936 . S
H2270 C2286 0.931 1_556 S
C2271 H2259 0.929 . S
C2271 C2265 1.374 1_556 S
C2271 C2268 1.386 . S
C2272 C2267 1.490 . S
C2272 C2274 1.395 . S
C2272 C2275 1.403 . S
H2273 C2279 0.930 . S
C2274 H2260 0.930 . S
C2274 C2272 1.395 . S
C2274 C2277 1.403 . S
C2275 C2272 1.403 . S
C2275 C2276 1.524 . S
C2275 C2279 1.400 . S
C2276 H2261 0.960 . S
C2276 H2262 0.960 . S
C2276 H2263 0.960 1_554 S
C2276 C2275 1.524 . S
C2277 C2274 1.403 . S
C2277 C2278 1.392 . S
C2277 C2281 1.495 1_565 S
C2278 C2277 1.392 . S
C2278 C2279 1.385 . S
C2278 C2280 1.478 . S
C2279 H2273 0.930 . S
C2279 C2275 1.400 . S
C2279 C2278 1.385 . S
C2280 C2278 1.478 . S
C2280 C2282 1.381 . S
C2280 C2286 1.383 . S
C2281 C2277 1.495 1_545 S
C2281 H2287 0.959 . S
C2281 H2288 0.961 . S
C2281 H2289 0.960 . S
C2282 C2280 1.381 . S
C2282 C2283 1.394 1_565 S
C2282 H2290 0.930 . S
C2283 C2282 1.394 1_545 S
C2283 C2284 1.380 . S
C2283 H2291 0.929 . S
C2284 C2283 1.380 . S
C2284 C2285 1.370 1_545 S
C2285 H2269 0.936 . S
C2285 C2284 1.370 1_565 S
C2285 C2286 1.379 . S
C2286 H2270 0.931 1_554 S
C2286 C2280 1.383 . S
C2286 C2285 1.379 . S
H2287 C2281 0.959 . S
H2288 C2281 0.961 . S
H2289 C2281 0.960 . S
H2290 C2282 0.930 . S
H2291 C2283 0.929 . S
H2292 C2300 0.929 . S
H2293 C2302 0.930 . S
H2294 C2304 0.930 . S
H2295 C2307 0.929 . S
H2296 C2310 0.930 . S
H2297 C2312 0.960 . S
H2298 C2312 0.960 1_554 S
H2299 C2312 0.960 . S
C2300 H2292 0.929 . S
C2300 C2301 1.377 . S
C2300 C2302 1.384 . S
C2301 C2300 1.377 . S
C2301 C2307 1.390 1_554 S
C2302 H2293 0.930 . S
C2302 C2300 1.384 . S
C2302 C2303 1.372 . S
C2303 C2302 1.372 . S
C2303 C2304 1.400 1_554 S
C2303 C2308 1.490 . S
C2304 H2294 0.930 . S
C2304 C2303 1.400 1_556 S
C2304 C2307 1.386 . S
H2305 C2321 0.930 . S
H2306 C2322 0.931 . S
C2307 H2295 0.929 . S
C2307 C2301 1.390 1_556 S
C2307 C2304 1.386 . S
C2308 C2303 1.490 . S
C2308 C2310 1.395 . S
C2308 C2311 1.403 . S
H2309 C2315 0.932 . S
C2310 H2296 0.930 . S
C2310 C2308 1.395 . S
C2310 C2313 1.403 . S
C2311 C2308 1.403 . S
C2311 C2312 1.524 1_554 S
C2311 C2315 1.400 . S
C2312 H2297 0.960 . S
C2312 H2298 0.960 1_556 S
C2312 H2299 0.960 . S
C2312 C2311 1.524 1_556 S
C2313 C2310 1.403 . S
C2313 C2314 1.392 . S
C2313 C2317 1.495 . S
C2314 C2313 1.392 . S
C2314 C2315 1.385 . S
C2314 C2316 1.478 . S
C2315 H2309 0.932 . S
C2315 C2311 1.400 . S
C2315 C2314 1.385 . S
C2316 C2314 1.478 . S
C2316 C2318 1.381 . S
C2316 C2322 1.383 1_554 S
C2317 C2313 1.495 . S
C2317 H2323 0.959 . S
C2317 H2324 0.961 . S
C2317 H2325 0.960 . S
C2318 C2316 1.381 . S
C2318 C2319 1.394 . S
C2318 H2326 0.930 . S
C2319 C2318 1.394 . S
C2319 C2320 1.383 . S
C2319 H2327 0.929 . S
C2320 C2319 1.383 . S
C2320 C2321 1.377 1_554 S
C2321 H2305 0.930 . S
C2321 C2320 1.377 1_556 S
C2321 C2322 1.379 . S
C2322 H2306 0.931 . S
C2322 C2316 1.383 1_556 S
C2322 C2321 1.379 . S
H2323 C2317 0.959 . S
H2324 C2317 0.961 . S
H2325 C2317 0.960 . S
H2326 C2318 0.930 . S
H2327 C2319 0.929 . S
H2328 C2336 0.929 . S
H2329 C2338 0.930 . S
H2330 C2340 0.930 . S
H2331 C2343 0.929 . S
H2332 C2346 0.930 . S
H2333 C2348 0.960 . S
H2334 C2348 0.960 . S
H2335 C2348 0.960 . S
C2336 H2328 0.929 . S
C2336 C2337 1.377 . S
C2336 C2338 1.384 . S
C2337 C2336 1.377 . S
C2337 C2343 1.390 . S
C2338 H2329 0.930 . S
C2338 C2336 1.384 . S
C2338 C2339 1.372 . S
C2339 C2338 1.372 . S
C2339 C2340 1.400 . S
C2339 C2344 1.490 . S
C2340 H2330 0.930 . S
C2340 C2339 1.400 . S
C2340 C2343 1.386 . S
H2341 C2357 0.930 . S
H2342 C2358 0.931 . S
C2343 H2331 0.929 . S
C2343 C2337 1.390 . S
C2343 C2340 1.386 . S
C2344 C2339 1.490 . S
C2344 C2346 1.395 . S
C2344 C2347 1.403 . S
H2345 C2351 0.930 . S
C2346 H2332 0.930 . S
C2346 C2344 1.395 . S
C2346 C2349 1.403 . S
C2347 C2344 1.403 . S
C2347 C2348 1.524 . S
C2347 C2351 1.400 . S
C2348 H2333 0.960 . S
C2348 H2334 0.960 . S
C2348 H2335 0.960 . S
C2348 C2347 1.524 . S
C2349 C2346 1.403 . S
C2349 C2350 1.392 . S
C2349 C2353 1.495 . S
C2350 C2349 1.392 . S
C2350 C2351 1.385 . S
C2350 C2352 1.478 . S
C2351 H2345 0.930 . S
C2351 C2347 1.400 . S
C2351 C2350 1.385 . S
C2352 C2350 1.478 . S
C2352 C2354 1.381 . S
C2352 C2358 1.383 . S
C2353 C2349 1.495 . S
C2353 H2359 0.959 . S
C2353 H2360 0.961 . S
C2353 H2361 0.960 . S
C2354 C2352 1.381 . S
C2354 C2355 1.394 . S
C2354 H2362 0.930 . S
C2355 C2354 1.394 . S
C2355 C2356 1.383 . S
C2355 H2363 0.929 . S
C2356 C2355 1.383 . S
C2356 C2357 1.377 . S
C2357 H2341 0.930 . S
C2357 C2356 1.377 . S
C2357 C2358 1.379 . S
C2358 H2342 0.931 . S
C2358 C2352 1.383 . S
C2358 C2357 1.379 . S
H2359 C2353 0.959 . S
H2360 C2353 0.961 . S
H2361 C2353 0.960 . S
H2362 C2354 0.930 . S
H2363 C2355 0.929 . S
H2364 C2372 0.929 . S
H2365 C2374 0.930 . S
H2366 C2376 0.930 . S
H2367 C2379 0.929 . S
H2368 C2382 0.930 . S
H2369 C2384 0.960 . S
H2370 C2384 0.960 . S
H2371 C2384 0.960 . S
C2372 H2364 0.929 . S
C2372 C2373 1.377 . S
C2372 C2374 1.384 . S
C2373 C2372 1.377 . S
C2373 C2379 1.390 . S
C2374 H2365 0.930 . S
C2374 C2372 1.384 . S
C2374 C2375 1.372 . S
C2375 C2374 1.372 . S
C2375 C2376 1.400 . S
C2375 C2380 1.490 . S
C2376 H2366 0.930 . S
C2376 C2375 1.400 . S
C2376 C2379 1.386 . S
H2377 C2393 0.930 . S
H2378 C2394 0.931 . S
C2379 H2367 0.929 . S
C2379 C2373 1.390 . S
C2379 C2376 1.386 . S
C2380 C2375 1.490 . S
C2380 C2382 1.395 . S
C2380 C2383 1.403 . S
H2381 C2387 0.930 . S
C2382 H2368 0.930 . S
C2382 C2380 1.395 . S
C2382 C2385 1.403 . S
C2383 C2380 1.403 . S
C2383 C2384 1.524 . S
C2383 C2387 1.400 . S
C2384 H2369 0.960 . S
C2384 H2370 0.960 . S
C2384 H2371 0.960 . S
C2384 C2383 1.524 . S
C2385 C2382 1.403 . S
C2385 C2386 1.392 . S
C2385 C2389 1.495 . S
C2386 C2385 1.392 . S
C2386 C2387 1.385 . S
C2386 C2388 1.478 . S
C2387 H2381 0.930 . S
C2387 C2383 1.400 . S
C2387 C2386 1.385 . S
C2388 C2386 1.478 . S
C2388 C2390 1.381 . S
C2388 C2394 1.383 . S
C2389 C2385 1.495 . S
C2389 H2395 0.959 . S
C2389 H2396 0.961 . S
C2389 H2397 0.960 . S
C2390 C2388 1.381 . S
C2390 C2391 1.394 . S
C2390 H2398 0.930 . S
C2391 C2390 1.394 . S
C2391 C2392 1.383 . S
C2391 H2399 0.929 . S
C2392 C2391 1.383 . S
C2392 C2393 1.377 . S
C2393 H2377 0.930 . S
C2393 C2392 1.377 . S
C2393 C2394 1.379 . S
C2394 H2378 0.931 . S
C2394 C2388 1.383 . S
C2394 C2393 1.379 . S
H2395 C2389 0.959 . S
H2396 C2389 0.961 . S
H2397 C2389 0.960 . S
H2398 C2390 0.930 . S
H2399 C2391 0.929 . S
H2400 C2408 0.929 . S
H2401 C2410 0.930 . S
H2402 C2412 0.930 . S
H2403 C2415 0.929 . S
H2404 C2418 0.930 . S
H2405 C2420 0.960 . S
H2406 C2420 0.960 . S
H2407 C2420 0.960 . S
C2408 H2400 0.929 . S
C2408 C2409 1.377 . S
C2408 C2410 1.384 . S
C2409 C2408 1.377 . S
C2409 C2415 1.390 . S
C2410 H2401 0.930 . S
C2410 C2408 1.384 . S
C2410 C2411 1.372 . S
C2411 C2410 1.372 . S
C2411 C2412 1.400 . S
C2411 C2416 1.490 . S
C2412 H2402 0.930 . S
C2412 C2411 1.400 . S
C2412 C2415 1.386 . S
H2413 C2429 0.930 . S
H2414 C2430 0.931 . S
C2415 H2403 0.929 . S
C2415 C2409 1.390 . S
C2415 C2412 1.386 . S
C2416 C2411 1.490 . S
C2416 C2418 1.395 . S
C2416 C2419 1.403 . S
H2417 C2423 0.930 . S
C2418 H2404 0.930 . S
C2418 C2416 1.395 . S
C2418 C2421 1.403 . S
C2419 C2416 1.403 . S
C2419 C2420 1.524 . S
C2419 C2423 1.400 . S
C2420 H2405 0.960 . S
C2420 H2406 0.960 . S
C2420 H2407 0.960 . S
C2420 C2419 1.524 . S
C2421 C2418 1.403 . S
C2421 C2422 1.392 . S
C2421 C2425 1.495 . S
C2422 C2421 1.392 . S
C2422 C2423 1.385 . S
C2422 C2424 1.478 . S
C2423 H2417 0.930 . S
C2423 C2419 1.400 . S
C2423 C2422 1.385 . S
C2424 C2422 1.478 . S
C2424 C2426 1.381 . S
C2424 C2430 1.383 . S
C2425 C2421 1.495 . S
C2425 H2431 0.959 . S
C2425 H2432 0.961 . S
C2425 H2433 0.960 . S
C2426 C2424 1.381 . S
C2426 C2427 1.394 . S
C2426 H2434 0.930 . S
C2427 C2426 1.394 . S
C2427 C2428 1.383 . S
C2427 H2435 0.929 . S
C2428 C2427 1.383 . S
C2428 C2429 1.377 . S
C2429 H2413 0.930 . S
C2429 C2428 1.377 . S
C2429 C2430 1.379 . S
C2430 H2414 0.931 . S
C2430 C2424 1.383 . S
C2430 C2429 1.379 . S
H2431 C2425 0.959 . S
H2432 C2425 0.961 . S
H2433 C2425 0.960 . S
H2434 C2426 0.930 . S
H2435 C2427 0.929 . S
H2436 C2444 0.929 . S
H2437 C2446 0.930 . S
H2438 C2448 0.930 . S
H2439 C2451 0.929 . S
H2440 C2454 0.930 . S
H2441 C2456 0.960 . S
H2442 C2456 0.960 . S
H2443 C2456 0.960 . S
C2444 H2436 0.929 . S
C2444 C2445 1.377 . S
C2444 C2446 1.384 . S
C2445 C2444 1.377 . S
C2445 C2451 1.390 . S
C2446 H2437 0.930 . S
C2446 C2444 1.384 . S
C2446 C2447 1.372 . S
C2447 C2446 1.372 . S
C2447 C2448 1.400 . S
C2447 C2452 1.490 . S
C2448 H2438 0.930 . S
C2448 C2447 1.400 . S
C2448 C2451 1.386 . S
H2449 C2465 0.930 . S
H2450 C2466 0.931 . S
C2451 H2439 0.929 . S
C2451 C2445 1.390 . S
C2451 C2448 1.386 . S
C2452 C2447 1.490 . S
C2452 C2454 1.395 . S
C2452 C2455 1.403 . S
H2453 C2459 0.930 . S
C2454 H2440 0.930 . S
C2454 C2452 1.395 . S
C2454 C2457 1.403 . S
C2455 C2452 1.403 . S
C2455 C2456 1.524 . S
C2455 C2459 1.400 . S
C2456 H2441 0.960 . S
C2456 H2442 0.960 . S
C2456 H2443 0.960 . S
C2456 C2455 1.524 . S
C2457 C2454 1.403 . S
C2457 C2458 1.392 . S
C2457 C2461 1.495 . S
C2458 C2457 1.392 . S
C2458 C2459 1.385 . S
C2458 C2460 1.478 . S
C2459 H2453 0.930 . S
C2459 C2455 1.400 . S
C2459 C2458 1.385 . S
C2460 C2458 1.478 . S
C2460 C2462 1.381 . S
C2460 C2466 1.383 . S
C2461 C2457 1.495 . S
C2461 H2467 0.959 . S
C2461 H2468 0.961 . S
C2461 H2469 0.960 . S
C2462 C2460 1.381 . S
C2462 C2463 1.394 . S
C2462 H2470 0.930 . S
C2463 C2462 1.394 . S
C2463 C2464 1.383 . S
C2463 H2471 0.929 . S
C2464 C2463 1.383 . S
C2464 C2465 1.377 . S
C2465 H2449 0.930 . S
C2465 C2464 1.377 . S
C2465 C2466 1.379 . S
C2466 H2450 0.931 . S
C2466 C2460 1.383 . S
C2466 C2465 1.379 . S
H2467 C2461 0.959 . S
H2468 C2461 0.961 . S
H2469 C2461 0.960 . S
H2470 C2462 0.930 . S
H2471 C2463 0.929 . S
H2472 C2480 0.929 . S
H2473 C2482 0.930 . S
H2474 C2484 0.930 . S
H2475 C2487 0.929 . S
H2476 C2490 0.930 . S
H2477 C2492 0.960 . S
H2478 C2492 0.960 . S
H2479 C2492 0.960 . S
C2480 H2472 0.929 . S
C2480 C2481 1.377 . S
C2480 C2482 1.384 . S
C2481 C2480 1.377 . S
C2481 C2487 1.390 . S
C2482 H2473 0.930 . S
C2482 C2480 1.384 . S
C2482 C2483 1.372 . S
C2483 C2482 1.372 . S
C2483 C2484 1.400 . S
C2483 C2488 1.490 . S
C2484 H2474 0.930 . S
C2484 C2483 1.400 . S
C2484 C2487 1.386 . S
H2485 C2501 0.930 . S
H2486 C2502 0.931 . S
C2487 H2475 0.929 . S
C2487 C2481 1.390 . S
C2487 C2484 1.386 . S
C2488 C2483 1.490 . S
C2488 C2490 1.395 . S
C2488 C2491 1.403 . S
H2489 C2495 0.930 . S
C2490 H2476 0.930 . S
C2490 C2488 1.395 . S
C2490 C2493 1.403 . S
C2491 C2488 1.403 . S
C2491 C2492 1.524 . S
C2491 C2495 1.400 . S
C2492 H2477 0.960 . S
C2492 H2478 0.960 . S
C2492 H2479 0.960 . S
C2492 C2491 1.524 . S
C2493 C2490 1.403 . S
C2493 C2494 1.392 . S
C2493 C2497 1.495 . S
C2494 C2493 1.392 . S
C2494 C2495 1.385 . S
C2494 C2496 1.478 . S
C2495 H2489 0.930 . S
C2495 C2491 1.400 . S
C2495 C2494 1.385 . S
C2496 C2494 1.478 . S
C2496 C2498 1.381 . S
C2496 C2502 1.383 . S
C2497 C2493 1.495 . S
C2497 H2503 0.959 . S
C2497 H2504 0.961 . S
C2497 H2505 0.960 . S
C2498 C2496 1.381 . S
C2498 C2499 1.394 . S
C2498 H2506 0.930 . S
C2499 C2498 1.394 . S
C2499 C2500 1.383 . S
C2499 H2507 0.929 . S
C2500 C2499 1.383 . S
C2500 C2501 1.377 . S
C2501 H2485 0.930 . S
C2501 C2500 1.377 . S
C2501 C2502 1.379 . S
C2502 H2486 0.931 . S
C2502 C2496 1.383 . S
C2502 C2501 1.379 . S
H2503 C2497 0.959 . S
H2504 C2497 0.961 . S
H2505 C2497 0.960 . S
H2506 C2498 0.930 . S
H2507 C2499 0.929 . S
H2508 C2516 0.929 . S
H2509 C2518 0.930 . S
H2510 C2520 0.930 . S
H2511 C2523 0.929 . S
H2512 C2526 0.930 . S
H2513 C2528 0.960 . S
H2514 C2528 0.960 . S
H2515 C2528 0.960 . S
C2516 H2508 0.929 . S
C2516 C2517 1.377 . S
C2516 C2518 1.384 . S
C2517 C2516 1.377 . S
C2517 C2523 1.390 . S
C2518 H2509 0.930 . S
C2518 C2516 1.384 . S
C2518 C2519 1.372 . S
C2519 C2518 1.372 . S
C2519 C2520 1.400 . S
C2519 C2524 1.490 . S
C2520 H2510 0.930 . S
C2520 C2519 1.400 . S
C2520 C2523 1.386 . S
H2521 C2537 0.930 . S
H2522 C2538 0.931 . S
C2523 H2511 0.929 . S
C2523 C2517 1.390 . S
C2523 C2520 1.386 . S
C2524 C2519 1.490 . S
C2524 C2526 1.395 . S
C2524 C2527 1.403 . S
H2525 C2531 0.930 . S
C2526 H2512 0.930 . S
C2526 C2524 1.395 . S
C2526 C2529 1.403 . S
C2527 C2524 1.403 . S
C2527 C2528 1.524 . S
C2527 C2531 1.400 . S
C2528 H2513 0.960 . S
C2528 H2514 0.960 . S
C2528 H2515 0.960 . S
C2528 C2527 1.524 . S
C2529 C2526 1.403 . S
C2529 C2530 1.392 . S
C2529 C2533 1.495 . S
C2530 C2529 1.392 . S
C2530 C2531 1.385 . S
C2530 C2532 1.478 . S
C2531 H2525 0.930 . S
C2531 C2527 1.400 . S
C2531 C2530 1.385 . S
C2532 C2530 1.478 . S
C2532 C2534 1.381 . S
C2532 C2538 1.383 . S
C2533 C2529 1.495 . S
C2533 H2539 0.959 . S
C2533 H2540 0.961 . S
C2533 H2541 0.960 . S
C2534 C2532 1.381 . S
C2534 C2535 1.394 . S
C2534 H2542 0.930 . S
C2535 C2534 1.394 . S
C2535 C2536 1.383 . S
C2535 H2543 0.929 . S
C2536 C2535 1.383 . S
C2536 C2537 1.377 . S
C2537 H2521 0.930 . S
C2537 C2536 1.377 . S
C2537 C2538 1.379 . S
C2538 H2522 0.931 . S
C2538 C2532 1.383 . S
C2538 C2537 1.379 . S
H2539 C2533 0.959 . S
H2540 C2533 0.961 . S
H2541 C2533 0.960 . S
H2542 C2534 0.930 . S
H2543 C2535 0.929 . S
H2544 C2552 0.929 . S
H2545 C2554 0.930 . S
H2546 C2556 0.930 . S
H2547 C2559 0.929 . S
H2548 C2562 0.930 . S
H2549 C2564 0.960 . S
H2550 C2564 0.960 . S
H2551 C2564 0.960 . S
C2552 H2544 0.929 . S
C2552 C2553 1.377 . S
C2552 C2554 1.384 . S
C2553 C2552 1.377 . S
C2553 C2559 1.390 . S
C2554 H2545 0.930 . S
C2554 C2552 1.384 . S
C2554 C2555 1.372 . S
C2555 C2554 1.372 . S
C2555 C2556 1.400 . S
C2555 C2560 1.490 . S
C2556 H2546 0.930 . S
C2556 C2555 1.400 . S
C2556 C2559 1.386 . S
H2557 C2573 0.930 . S
H2558 C2574 0.931 . S
C2559 H2547 0.929 . S
C2559 C2553 1.390 . S
C2559 C2556 1.386 . S
C2560 C2555 1.490 . S
C2560 C2562 1.395 . S
C2560 C2563 1.403 . S
H2561 C2567 0.930 . S
C2562 H2548 0.930 . S
C2562 C2560 1.395 . S
C2562 C2565 1.403 . S
C2563 C2560 1.403 . S
C2563 C2564 1.524 . S
C2563 C2567 1.400 . S
C2564 H2549 0.960 . S
C2564 H2550 0.960 . S
C2564 H2551 0.960 . S
C2564 C2563 1.524 . S
C2565 C2562 1.403 . S
C2565 C2566 1.392 . S
C2565 C2569 1.495 . S
C2566 C2565 1.392 . S
C2566 C2567 1.385 . S
C2566 C2568 1.478 . S
C2567 H2561 0.930 . S
C2567 C2563 1.400 . S
C2567 C2566 1.385 . S
C2568 C2566 1.478 . S
C2568 C2570 1.381 . S
C2568 C2574 1.383 . S
C2569 C2565 1.495 . S
C2569 H2575 0.959 . S
C2569 H2576 0.961 . S
C2569 H2577 0.960 . S
C2570 C2568 1.381 . S
C2570 C2571 1.394 . S
C2570 H2578 0.930 . S
C2571 C2570 1.394 . S
C2571 C2572 1.383 . S
C2571 H2579 0.929 . S
C2572 C2571 1.383 . S
C2572 C2573 1.377 . S
C2573 H2557 0.930 . S
C2573 C2572 1.377 . S
C2573 C2574 1.379 . S
C2574 H2558 0.931 . S
C2574 C2568 1.383 . S
C2574 C2573 1.379 . S
H2575 C2569 0.959 . S
H2576 C2569 0.961 . S
H2577 C2569 0.960 . S
H2578 C2570 0.930 . S
H2579 C2571 0.929 . S
H2580 C2588 0.929 . S
H2581 C2590 0.930 . S
H2582 C2592 0.930 . S
H2583 C2595 0.929 . S
H2584 C2598 0.930 . S
H2585 C2600 0.960 . S
H2586 C2600 0.960 . S
H2587 C2600 0.960 . S
C2588 H2580 0.929 . S
C2588 C2589 1.377 . S
C2588 C2590 1.384 . S
C2589 C2588 1.377 . S
C2589 C2595 1.390 . S
C2590 H2581 0.930 . S
C2590 C2588 1.384 . S
C2590 C2591 1.372 . S
C2591 C2590 1.372 . S
C2591 C2592 1.400 . S
C2591 C2596 1.490 . S
C2592 H2582 0.930 . S
C2592 C2591 1.400 . S
C2592 C2595 1.386 . S
H2593 C2609 0.930 . S
H2594 C2610 0.931 . S
C2595 H2583 0.929 . S
C2595 C2589 1.390 . S
C2595 C2592 1.386 . S
C2596 C2591 1.490 . S
C2596 C2598 1.395 . S
C2596 C2599 1.403 . S
H2597 C2603 0.930 . S
C2598 H2584 0.930 . S
C2598 C2596 1.395 . S
C2598 C2601 1.403 . S
C2599 C2596 1.403 . S
C2599 C2600 1.524 . S
C2599 C2603 1.400 . S
C2600 H2585 0.960 . S
C2600 H2586 0.960 . S
C2600 H2587 0.960 . S
C2600 C2599 1.524 . S
C2601 C2598 1.403 . S
C2601 C2602 1.392 . S
C2601 C2605 1.495 . S
C2602 C2601 1.392 . S
C2602 C2603 1.385 . S
C2602 C2604 1.478 . S
C2603 H2597 0.930 . S
C2603 C2599 1.400 . S
C2603 C2602 1.385 . S
C2604 C2602 1.478 . S
C2604 C2606 1.381 . S
C2604 C2610 1.383 . S
C2605 C2601 1.495 . S
C2605 H2611 0.959 . S
C2605 H2612 0.961 . S
C2605 H2613 0.960 . S
C2606 C2604 1.381 . S
C2606 C2607 1.394 . S
C2606 H2614 0.930 . S
C2607 C2606 1.394 . S
C2607 C2608 1.383 . S
C2607 H2615 0.929 . S
C2608 C2607 1.383 . S
C2608 C2609 1.377 . S
C2609 H2593 0.930 . S
C2609 C2608 1.377 . S
C2609 C2610 1.379 . S
C2610 H2594 0.931 . S
C2610 C2604 1.383 . S
C2610 C2609 1.379 . S
H2611 C2605 0.959 . S
H2612 C2605 0.961 . S
H2613 C2605 0.960 . S
H2614 C2606 0.930 . S
H2615 C2607 0.929 . S
H2616 C2624 0.929 . S
H2617 C2626 0.930 . S
H2618 C2628 0.930 . S
H2619 C2631 0.929 . S
H2620 C2634 0.930 . S
H2621 C2636 0.960 . S
H2622 C2636 0.960 . S
H2623 C2636 0.960 . S
C2624 H2616 0.929 . S
C2624 C2625 1.377 . S
C2624 C2626 1.384 . S
C2625 C2624 1.377 . S
C2625 C2631 1.390 . S
C2626 H2617 0.930 . S
C2626 C2624 1.384 . S
C2626 C2627 1.372 . S
C2627 C2626 1.372 . S
C2627 C2628 1.400 . S
C2627 C2632 1.490 . S
C2628 H2618 0.930 . S
C2628 C2627 1.400 . S
C2628 C2631 1.386 . S
H2629 C2645 0.930 . S
H2630 C2646 0.931 . S
C2631 H2619 0.929 . S
C2631 C2625 1.390 . S
C2631 C2628 1.386 . S
C2632 C2627 1.490 . S
C2632 C2634 1.395 . S
C2632 C2635 1.403 . S
H2633 C2639 0.930 . S
C2634 H2620 0.930 . S
C2634 C2632 1.395 . S
C2634 C2637 1.403 . S
C2635 C2632 1.403 . S
C2635 C2636 1.524 . S
C2635 C2639 1.400 . S
C2636 H2621 0.960 . S
C2636 H2622 0.960 . S
C2636 H2623 0.960 . S
C2636 C2635 1.524 . S
C2637 C2634 1.403 . S
C2637 C2638 1.392 . S
C2637 C2641 1.495 . S
C2638 C2637 1.392 . S
C2638 C2639 1.385 . S
C2638 C2640 1.478 . S
C2639 H2633 0.930 . S
C2639 C2635 1.400 . S
C2639 C2638 1.385 . S
C2640 C2638 1.478 . S
C2640 C2642 1.381 . S
C2640 C2646 1.383 . S
C2641 C2637 1.495 . S
C2641 H2647 0.959 . S
C2641 H2648 0.961 . S
C2641 H2649 0.960 . S
C2642 C2640 1.381 . S
C2642 C2643 1.394 . S
C2642 H2650 0.930 . S
C2643 C2642 1.394 . S
C2643 C2644 1.383 . S
C2643 H2651 0.929 . S
C2644 C2643 1.383 . S
C2644 C2645 1.377 . S
C2645 H2629 0.930 . S
C2645 C2644 1.377 . S
C2645 C2646 1.379 . S
C2646 H2630 0.931 . S
C2646 C2640 1.383 . S
C2646 C2645 1.379 . S
H2647 C2641 0.959 . S
H2648 C2641 0.961 . S
H2649 C2641 0.960 . S
H2650 C2642 0.930 . S
H2651 C2643 0.929 . S
H2652 C2660 0.929 . S
H2653 C2662 0.930 . S
H2654 C2664 0.930 . S
H2655 C2667 0.929 . S
H2656 C2670 0.930 . S
H2657 C2672 0.960 . S
H2658 C2672 0.960 . S
H2659 C2672 0.960 . S
C2660 H2652 0.929 . S
C2660 C2661 1.377 . S
C2660 C2662 1.384 . S
C2661 C2660 1.377 . S
C2661 C2667 1.390 . S
C2662 H2653 0.930 . S
C2662 C2660 1.384 . S
C2662 C2663 1.372 . S
C2663 C2662 1.372 . S
C2663 C2664 1.400 . S
C2663 C2668 1.490 . S
C2664 H2654 0.930 . S
C2664 C2663 1.400 . S
C2664 C2667 1.386 . S
H2665 C2681 0.930 . S
H2666 C2682 0.931 . S
C2667 H2655 0.929 . S
C2667 C2661 1.390 . S
C2667 C2664 1.386 . S
C2668 C2663 1.490 . S
C2668 C2670 1.395 . S
C2668 C2671 1.403 . S
H2669 C2675 0.930 . S
C2670 H2656 0.930 . S
C2670 C2668 1.395 . S
C2670 C2673 1.403 . S
C2671 C2668 1.403 . S
C2671 C2672 1.524 . S
C2671 C2675 1.400 . S
C2672 H2657 0.960 . S
C2672 H2658 0.960 . S
C2672 H2659 0.960 . S
C2672 C2671 1.524 . S
C2673 C2670 1.403 . S
C2673 C2674 1.392 . S
C2673 C2677 1.495 . S
C2674 C2673 1.392 . S
C2674 C2675 1.385 . S
C2674 C2676 1.478 . S
C2675 H2669 0.930 . S
C2675 C2671 1.400 . S
C2675 C2674 1.385 . S
C2676 C2674 1.478 . S
C2676 C2678 1.381 . S
C2676 C2682 1.383 . S
C2677 C2673 1.495 . S
C2677 H2683 0.959 . S
C2677 H2684 0.961 . S
C2677 H2685 0.960 . S
C2678 C2676 1.381 . S
C2678 C2679 1.394 . S
C2678 H2686 0.930 . S
C2679 C2678 1.394 . S
C2679 C2680 1.383 . S
C2679 H2687 0.929 . S
C2680 C2679 1.383 . S
C2680 C2681 1.377 . S
C2681 H2665 0.930 . S
C2681 C2680 1.377 . S
C2681 C2682 1.379 . S
C2682 H2666 0.931 . S
C2682 C2676 1.383 . S
C2682 C2681 1.379 . S
H2683 C2677 0.959 . S
H2684 C2677 0.961 . S
H2685 C2677 0.960 . S
H2686 C2678 0.930 . S
H2687 C2679 0.929 . S
H2688 C2696 0.929 . S
H2689 C2698 0.930 . S
H2690 C2700 0.930 . S
H2691 C2703 0.929 . S
H2692 C2706 0.930 . S
H2693 C2708 0.960 . S
H2694 C2708 0.960 . S
H2695 C2708 0.960 . S
C2696 H2688 0.929 . S
C2696 C2697 1.377 . S
C2696 C2698 1.384 . S
C2697 C2696 1.377 . S
C2697 C2703 1.390 . S
C2698 H2689 0.930 . S
C2698 C2696 1.384 . S
C2698 C2699 1.372 . S
C2699 C2698 1.372 . S
C2699 C2700 1.400 . S
C2699 C2704 1.490 . S
C2700 H2690 0.930 . S
C2700 C2699 1.400 . S
C2700 C2703 1.386 . S
H2701 C2717 0.930 . S
H2702 C2718 0.931 . S
C2703 H2691 0.929 . S
C2703 C2697 1.390 . S
C2703 C2700 1.386 . S
C2704 C2699 1.490 . S
C2704 C2706 1.395 . S
C2704 C2707 1.403 . S
H2705 C2711 0.930 . S
C2706 H2692 0.930 . S
C2706 C2704 1.395 . S
C2706 C2709 1.403 . S
C2707 C2704 1.403 . S
C2707 C2708 1.524 . S
C2707 C2711 1.400 . S
C2708 H2693 0.960 . S
C2708 H2694 0.960 . S
C2708 H2695 0.960 . S
C2708 C2707 1.524 . S
C2709 C2706 1.403 . S
C2709 C2710 1.392 . S
C2709 C2713 1.471 1_455 S
C2710 C2709 1.392 . S
C2710 C2711 1.385 . S
C2710 C2712 1.478 . S
C2711 H2705 0.930 . S
C2711 C2707 1.400 . S
C2711 C2710 1.385 . S
C2712 C2710 1.478 . S
C2712 C2714 1.381 . S
C2712 C2718 1.383 . S
C2713 C2709 1.471 1_655 S
C2713 H2719 0.980 . S
C2713 H2720 0.974 . S
C2713 H2721 0.951 1_655 S
C2714 C2712 1.381 . S
C2714 C2715 1.394 . S
C2714 H2722 0.930 . S
C2715 C2714 1.394 . S
C2715 C2716 1.383 . S
C2715 H2723 0.929 . S
C2716 C2715 1.383 . S
C2716 C2717 1.377 . S
C2717 H2701 0.930 . S
C2717 C2716 1.377 . S
C2717 C2718 1.379 . S
C2718 H2702 0.931 . S
C2718 C2712 1.383 . S
C2718 C2717 1.379 . S
H2719 C2713 0.980 . S
H2720 C2713 0.974 . S
H2721 C2713 0.951 1_455 S
H2722 C2714 0.930 . S
H2723 C2715 0.929 . S
H2724 C2732 0.929 . S
H2725 C2734 0.930 . S
H2726 C2736 0.930 . S
H2727 C2739 0.929 . S
H2728 C2742 0.930 . S
H2729 C2744 0.960 . S
H2730 C2744 0.960 . S
H2731 C2744 0.960 . S
C2732 H2724 0.929 . S
C2732 C2733 1.377 . S
C2732 C2734 1.384 . S
C2733 C2732 1.377 . S
C2733 C2739 1.390 . S
C2734 H2725 0.930 . S
C2734 C2732 1.384 . S
C2734 C2735 1.372 . S
C2735 C2734 1.372 . S
C2735 C2736 1.400 . S
C2735 C2740 1.490 . S
C2736 H2726 0.930 . S
C2736 C2735 1.400 . S
C2736 C2739 1.386 . S
H2737 C2753 0.930 . S
H2738 C2754 0.931 . S
C2739 H2727 0.929 . S
C2739 C2733 1.390 . S
C2739 C2736 1.386 . S
C2740 C2735 1.490 . S
C2740 C2742 1.395 . S
C2740 C2743 1.403 . S
H2741 C2747 0.930 . S
C2742 H2728 0.930 . S
C2742 C2740 1.395 . S
C2742 C2745 1.403 . S
C2743 C2740 1.403 . S
C2743 C2744 1.524 . S
C2743 C2747 1.400 . S
C2744 H2729 0.960 . S
C2744 H2730 0.960 . S
C2744 H2731 0.960 . S
C2744 C2743 1.524 . S
C2745 C2742 1.403 . S
C2745 C2746 1.392 . S
C2745 C2749 1.495 . S
C2746 C2745 1.392 . S
C2746 C2747 1.385 . S
C2746 C2748 1.478 . S
C2747 H2741 0.930 . S
C2747 C2743 1.400 . S
C2747 C2746 1.385 . S
C2748 C2746 1.478 . S
C2748 C2750 1.381 . S
C2748 C2754 1.383 . S
C2749 C2745 1.495 . S
C2749 H2755 0.959 . S
C2749 H2756 0.961 . S
C2749 H2757 0.960 . S
C2750 C2748 1.381 . S
C2750 C2751 1.394 . S
C2750 H2758 0.930 . S
C2751 C2750 1.394 . S
C2751 C2752 1.383 . S
C2751 H2759 0.929 . S
C2752 C2751 1.383 . S
C2752 C2753 1.377 . S
C2753 H2737 0.930 . S
C2753 C2752 1.377 . S
C2753 C2754 1.379 . S
C2754 H2738 0.931 . S
C2754 C2748 1.383 . S
C2754 C2753 1.379 . S
H2755 C2749 0.959 . S
H2756 C2749 0.961 . S
H2757 C2749 0.960 . S
H2758 C2750 0.930 . S
H2759 C2751 0.929 . S
H2760 C2768 0.929 . S
H2761 C2770 0.930 . S
H2762 C2772 0.930 . S
H2763 C2775 0.929 . S
H2764 C2778 0.930 . S
H2765 C2780 0.960 . S
H2766 C2780 0.960 . S
H2767 C2780 0.960 . S
C2768 H2760 0.929 . S
C2768 C2769 1.377 . S
C2768 C2770 1.384 . S
C2769 C2768 1.377 . S
C2769 C2775 1.390 . S
C2770 H2761 0.930 . S
C2770 C2768 1.384 . S
C2770 C2771 1.372 . S
C2771 C2770 1.372 . S
C2771 C2772 1.400 . S
C2771 C2776 1.490 . S
C2772 H2762 0.930 . S
C2772 C2771 1.400 . S
C2772 C2775 1.386 . S
H2773 C2789 0.930 . S
H2774 C2790 0.931 . S
C2775 H2763 0.929 . S
C2775 C2769 1.390 . S
C2775 C2772 1.386 . S
C2776 C2771 1.490 . S
C2776 C2778 1.395 . S
C2776 C2779 1.403 . S
H2777 C2783 0.930 . S
C2778 H2764 0.930 . S
C2778 C2776 1.395 . S
C2778 C2781 1.403 . S
C2779 C2776 1.403 . S
C2779 C2780 1.524 . S
C2779 C2783 1.400 . S
C2780 H2765 0.960 . S
C2780 H2766 0.960 . S
C2780 H2767 0.960 . S
C2780 C2779 1.524 . S
C2781 C2778 1.403 . S
C2781 C2782 1.392 . S
C2781 C2785 1.495 . S
C2782 C2781 1.392 . S
C2782 C2783 1.385 . S
C2782 C2784 1.478 . S
C2783 H2777 0.930 . S
C2783 C2779 1.400 . S
C2783 C2782 1.385 . S
C2784 C2782 1.478 . S
C2784 C2786 1.381 . S
C2784 C2790 1.383 . S
C2785 C2781 1.495 . S
C2785 H2791 0.959 . S
C2785 H2792 0.961 . S
C2785 H2793 0.960 . S
C2786 C2784 1.381 . S
C2786 C2787 1.394 . S
C2786 H2794 0.930 . S
C2787 C2786 1.394 . S
C2787 C2788 1.383 . S
C2787 H2795 0.929 1_556 S
C2788 C2787 1.383 . S
C2788 C2789 1.377 . S
C2789 H2773 0.930 . S
C2789 C2788 1.377 . S
C2789 C2790 1.379 . S
C2790 H2774 0.931 . S
C2790 C2784 1.383 . S
C2790 C2789 1.379 . S
H2791 C2785 0.959 . S
H2792 C2785 0.961 . S
H2793 C2785 0.960 . S
H2794 C2786 0.930 . S
H2795 C2787 0.929 1_554 S
H2796 C2804 0.929 . S
H2797 C2806 0.930 . S
H2798 C2808 0.930 . S
H2799 C2811 0.929 . S
H2800 C2814 0.930 . S
H2801 C2816 0.960 . S
H2802 C2816 0.960 . S
H2803 C2816 0.960 . S
C2804 H2796 0.929 . S
C2804 C2805 1.377 . S
C2804 C2806 1.384 . S
C2805 C2804 1.377 . S
C2805 C2811 1.390 . S
C2806 H2797 0.930 . S
C2806 C2804 1.384 . S
C2806 C2807 1.372 . S
C2807 C2806 1.372 . S
C2807 C2808 1.400 . S
C2807 C2812 1.490 . S
C2808 H2798 0.930 . S
C2808 C2807 1.400 . S
C2808 C2811 1.386 . S
H2809 C2825 0.930 . S
H2810 C2826 0.931 . S
C2811 H2799 0.929 . S
C2811 C2805 1.390 . S
C2811 C2808 1.386 . S
C2812 C2807 1.490 . S
C2812 C2814 1.395 . S
C2812 C2815 1.403 . S
H2813 C2819 0.930 . S
C2814 H2800 0.930 . S
C2814 C2812 1.395 . S
C2814 C2817 1.403 . S
C2815 C2812 1.403 . S
C2815 C2816 1.524 . S
C2815 C2819 1.400 . S
C2816 H2801 0.960 . S
C2816 H2802 0.960 . S
C2816 H2803 0.960 . S
C2816 C2815 1.524 . S
C2817 C2814 1.403 . S
C2817 C2818 1.392 . S
C2817 C2821 1.495 . S
C2818 C2817 1.392 . S
C2818 C2819 1.385 . S
C2818 C2820 1.478 . S
C2819 H2813 0.930 . S
C2819 C2815 1.400 . S
C2819 C2818 1.385 . S
C2820 C2818 1.478 . S
C2820 C2822 1.381 . S
C2820 C2826 1.383 . S
C2821 C2817 1.495 . S
C2821 H2827 0.959 . S
C2821 H2828 0.961 . S
C2821 H2829 0.960 . S
C2822 C2820 1.381 . S
C2822 C2823 1.394 . S
C2822 H2830 0.930 . S
C2823 C2822 1.394 . S
C2823 C2824 1.383 . S
C2823 H2831 0.929 . S
C2824 C2823 1.383 . S
C2824 C2825 1.377 . S
C2825 H2809 0.930 . S
C2825 C2824 1.377 . S
C2825 C2826 1.379 . S
C2826 H2810 0.931 . S
C2826 C2820 1.383 . S
C2826 C2825 1.379 . S
H2827 C2821 0.959 . S
H2828 C2821 0.961 . S
H2829 C2821 0.960 . S
H2830 C2822 0.930 . S
H2831 C2823 0.929 . S
H2832 C2840 0.929 . S
H2833 C2842 0.930 . S
H2834 C2844 0.930 . S
H2835 C2847 0.929 . S
H2836 C2850 0.930 1_565 S
H2837 C2852 0.960 . S
H2838 C2852 0.960 . S
H2839 C2852 0.960 . S
C2840 H2832 0.929 . S
C2840 C2841 1.377 . S
C2840 C2842 1.384 . S
C2841 C2840 1.377 . S
C2841 C2847 1.390 . S
C2842 H2833 0.930 . S
C2842 C2840 1.384 . S
C2842 C2843 1.372 . S
C2843 C2842 1.372 . S
C2843 C2844 1.400 . S
C2843 C2848 1.490 . S
C2844 H2834 0.930 . S
C2844 C2843 1.400 . S
C2844 C2847 1.386 . S
H2845 C2861 0.930 . S
H2846 C2862 0.931 . S
C2847 H2835 0.929 . S
C2847 C2841 1.390 . S
C2847 C2844 1.386 . S
C2848 C2843 1.490 . S
C2848 C2850 1.395 . S
C2848 C2851 1.403 . S
H2849 C2855 0.930 . S
C2850 H2836 0.930 1_545 S
C2850 C2848 1.395 . S
C2850 C2853 1.403 . S
C2851 C2848 1.403 . S
C2851 C2852 1.524 . S
C2851 C2855 1.400 . S
C2852 H2837 0.960 . S
C2852 H2838 0.960 . S
C2852 H2839 0.960 . S
C2852 C2851 1.524 . S
C2853 C2850 1.403 . S
C2853 C2854 1.392 . S
C2853 C2857 1.495 1_545 S
C2854 C2853 1.392 . S
C2854 C2855 1.385 . S
C2854 C2856 1.478 . S
C2855 H2849 0.930 . S
C2855 C2851 1.400 . S
C2855 C2854 1.385 . S
C2856 C2854 1.478 . S
C2856 C2858 1.381 . S
C2856 C2862 1.383 . S
C2857 C2853 1.495 1_565 S
C2857 H2863 0.959 . S
C2857 H2864 0.961 . S
C2857 H2865 0.960 . S
C2858 C2856 1.381 . S
C2858 C2859 1.394 . S
C2858 H2866 0.930 . S
C2859 C2858 1.394 . S
C2859 C2860 1.383 . S
C2859 H2867 0.929 . S
C2860 C2859 1.383 . S
C2860 C2861 1.377 . S
C2861 H2845 0.930 . S
C2861 C2860 1.377 . S
C2861 C2862 1.379 . S
C2862 H2846 0.931 . S
C2862 C2856 1.383 . S
C2862 C2861 1.379 . S
H2863 C2857 0.959 . S
H2864 C2857 0.961 . S
H2865 C2857 0.960 . S
H2866 C2858 0.930 . S
H2867 C2859 0.929 . S
H2868 C2876 0.929 . S
H2869 C2878 0.930 . S
H2870 C2880 0.930 . S
H2871 C2883 0.929 . S
H2872 C2886 0.930 . S
H2873 C2888 0.960 . S
H2874 C2888 0.960 . S
H2875 C2888 0.960 . S
C2876 H2868 0.929 . S
C2876 C2877 1.377 . S
C2876 C2878 1.384 . S
C2877 C2876 1.377 . S
C2877 C2883 1.390 . S
C2878 H2869 0.930 . S
C2878 C2876 1.384 . S
C2878 C2879 1.372 . S
C2879 C2878 1.372 . S
C2879 C2880 1.400 . S
C2879 C2884 1.490 . S
C2880 H2870 0.930 . S
C2880 C2879 1.400 . S
C2880 C2883 1.386 . S
H2881 C2897 0.930 . S
H2882 C2898 0.931 . S
C2883 H2871 0.929 . S
C2883 C2877 1.390 . S
C2883 C2880 1.386 . S
C2884 C2879 1.490 . S
C2884 C2886 1.395 . S
C2884 C2887 1.403 . S
H2885 C2891 0.930 . S
C2886 H2872 0.930 . S
C2886 C2884 1.395 . S
C2886 C2889 1.403 . S
C2887 C2884 1.403 . S
C2887 C2888 1.524 . S
C2887 C2891 1.400 . S
C2888 H2873 0.960 . S
C2888 H2874 0.960 . S
C2888 H2875 0.960 . S
C2888 C2887 1.524 . S
C2889 C2886 1.403 . S
C2889 C2890 1.392 . S
C2889 C2893 1.495 . S
C2890 C2889 1.392 . S
C2890 C2891 1.385 . S
C2890 C2892 1.478 . S
C2891 H2885 0.930 . S
C2891 C2887 1.400 . S
C2891 C2890 1.385 . S
C2892 C2890 1.478 . S
C2892 C2894 1.381 . S
C2892 C2898 1.383 . S
C2893 C2889 1.495 . S
C2893 H2899 0.959 . S
C2893 H2900 0.961 . S
C2893 H2901 0.960 . S
C2894 C2892 1.381 . S
C2894 C2895 1.394 . S
C2894 H2902 0.930 . S
C2895 C2894 1.394 . S
C2895 C2896 1.383 . S
C2895 H2903 0.929 . S
C2896 C2895 1.383 . S
C2896 C2897 1.377 . S
C2897 H2881 0.930 . S
C2897 C2896 1.377 . S
C2897 C2898 1.379 . S
C2898 H2882 0.931 . S
C2898 C2892 1.383 . S
C2898 C2897 1.379 . S
H2899 C2893 0.959 . S
H2900 C2893 0.961 . S
H2901 C2893 0.960 . S
H2902 C2894 0.930 . S
H2903 C2895 0.929 . S
H2904 C2912 0.951 . S
H2905 C2914 0.902 1_565 S
H2906 C2916 0.930 . S
H2907 C2919 0.929 . S
H2908 C2922 0.930 . S
H2909 C2924 0.960 . S
H2910 C2924 0.960 . S
H2911 C2924 0.960 1_545 S
C2912 H2904 0.951 . S
C2912 C2913 1.351 1_565 S
C2912 C2914 1.399 1_565 S
C2913 C2912 1.351 1_545 S
C2913 C2919 1.390 . S
C2914 H2905 0.902 1_545 S
C2914 C2912 1.399 1_545 S
C2914 C2915 1.394 . S
C2915 C2914 1.394 . S
C2915 C2916 1.400 . S
C2915 C2920 1.490 . S
C2916 H2906 0.930 . S
C2916 C2915 1.400 . S
C2916 C2919 1.386 . S
H2917 C2933 0.930 . S
H2918 C2934 0.931 . S
C2919 H2907 0.929 . S
C2919 C2913 1.390 . S
C2919 C2916 1.386 . S
C2920 C2915 1.490 . S
C2920 C2922 1.395 . S
C2920 C2923 1.403 . S
H2921 C2927 0.930 . S
C2922 H2908 0.930 . S
C2922 C2920 1.395 . S
C2922 C2925 1.403 . S
C2923 C2920 1.403 . S
C2923 C2924 1.524 1_545 S
C2923 C2927 1.400 . S
C2924 H2909 0.960 . S
C2924 H2910 0.960 . S
C2924 H2911 0.960 1_565 S
C2924 C2923 1.524 1_565 S
C2925 C2922 1.403 . S
C2925 C2926 1.392 . S
C2925 C2929 1.495 . S
C2926 C2925 1.392 . S
C2926 C2927 1.385 . S
C2926 C2928 1.478 . S
C2927 H2921 0.930 . S
C2927 C2923 1.400 . S
C2927 C2926 1.385 . S
C2928 C2926 1.478 . S
C2928 C2930 1.381 . S
C2928 C2934 1.383 . S
C2929 C2925 1.495 . S
C2929 H2935 0.959 . S
C2929 H2936 0.961 . S
C2929 H2937 0.960 . S
C2930 C2928 1.381 . S
C2930 C2931 1.394 . S
C2930 H2938 0.966 . S
C2931 C2930 1.394 . S
C2931 C2932 1.383 . S
C2931 H2939 0.929 . S
C2932 C2931 1.383 . S
C2932 C2933 1.377 . S
C2933 H2917 0.930 . S
C2933 C2932 1.377 . S
C2933 C2934 1.379 . S
C2934 H2918 0.931 . S
C2934 C2928 1.383 . S
C2934 C2933 1.379 . S
H2935 C2929 0.959 . S
H2936 C2929 0.961 . S
H2937 C2929 0.960 . S
H2938 C2930 0.966 . S
H2939 C2931 0.929 . S
H2940 C2948 0.929 . S
H2941 C2950 0.930 . S
H2942 C2952 0.930 . S
H2943 C2955 0.929 . S
H2944 C2958 0.930 . S
H2945 C2960 0.960 . S
H2946 C2960 0.960 . S
H2947 C2960 0.960 . S
C2948 H2940 0.929 . S
C2948 C2949 1.377 . S
C2948 C2950 1.384 . S
C2949 C2948 1.377 . S
C2949 C2955 1.390 . S
C2950 H2941 0.930 . S
C2950 C2948 1.384 . S
C2950 C2951 1.372 . S
C2951 C2950 1.372 . S
C2951 C2952 1.400 . S
C2951 C2956 1.490 . S
C2952 H2942 0.930 . S
C2952 C2951 1.400 . S
C2952 C2955 1.386 . S
H2953 C2969 0.930 . S
H2954 C2970 0.931 . S
C2955 H2943 0.929 . S
C2955 C2949 1.390 . S
C2955 C2952 1.386 . S
C2956 C2951 1.490 . S
C2956 C2958 1.395 . S
C2956 C2959 1.403 . S
H2957 C2963 0.930 . S
C2958 H2944 0.930 . S
C2958 C2956 1.395 . S
C2958 C2961 1.403 . S
C2959 C2956 1.403 . S
C2959 C2960 1.524 . S
C2959 C2963 1.400 . S
C2960 H2945 0.960 . S
C2960 H2946 0.960 . S
C2960 H2947 0.960 . S
C2960 C2959 1.524 . S
C2961 C2958 1.403 . S
C2961 C2962 1.392 . S
C2961 C2965 1.495 . S
C2962 C2961 1.392 . S
C2962 C2963 1.385 . S
C2962 C2964 1.478 . S
C2963 H2957 0.930 . S
C2963 C2959 1.400 . S
C2963 C2962 1.385 . S
C2964 C2962 1.478 . S
C2964 C2966 1.381 . S
C2964 C2970 1.383 . S
C2965 C2961 1.495 . S
C2965 H2971 0.959 . S
C2965 H2972 0.961 . S
C2965 H2973 0.960 . S
C2966 C2964 1.381 . S
C2966 C2967 1.394 . S
C2966 H2974 0.930 . S
C2967 C2966 1.394 . S
C2967 C2968 1.383 . S
C2967 H2975 0.929 . S
C2968 C2967 1.383 . S
C2968 C2969 1.377 . S
C2969 H2953 0.930 . S
C2969 C2968 1.377 . S
C2969 C2970 1.379 . S
C2970 H2954 0.931 . S
C2970 C2964 1.383 . S
C2970 C2969 1.379 . S
H2971 C2965 0.959 . S
H2972 C2965 0.961 . S
H2973 C2965 0.960 . S
H2974 C2966 0.930 . S
H2975 C2967 0.929 . S
H2976 C2984 0.929 . S
H2977 C2986 0.930 . S
H2978 C2988 0.930 . S
H2979 C2991 0.929 . S
H2980 C2994 0.930 . S
H2981 C2996 0.960 . S
H2982 C2996 0.960 . S
H2983 C2996 0.960 . S
C2984 H2976 0.929 . S
C2984 C2985 1.377 . S
C2984 C2986 1.384 . S
C2985 C2984 1.377 . S
C2985 C2991 1.390 . S
C2986 H2977 0.930 . S
C2986 C2984 1.384 . S
C2986 C2987 1.372 . S
C2987 C2986 1.372 . S
C2987 C2988 1.400 . S
C2987 C2992 1.490 . S
C2988 H2978 0.930 . S
C2988 C2987 1.400 . S
C2988 C2991 1.386 . S
H2989 C3005 0.930 . S
H2990 C3006 0.931 . S
C2991 H2979 0.929 . S
C2991 C2985 1.390 . S
C2991 C2988 1.386 . S
C2992 C2987 1.490 . S
C2992 C2994 1.395 . S
C2992 C2995 1.403 . S
H2993 C2999 0.930 . S
C2994 H2980 0.930 . S
C2994 C2992 1.395 . S
C2994 C2997 1.403 . S
C2995 C2992 1.403 . S
C2995 C2996 1.524 . S
C2995 C2999 1.400 . S
C2996 H2981 0.960 . S
C2996 H2982 0.960 . S
C2996 H2983 0.960 . S
C2996 C2995 1.524 . S
C2997 C2994 1.403 . S
C2997 C2998 1.392 . S
C2997 C3001 1.495 . S
C2998 C2997 1.392 . S
C2998 C2999 1.385 . S
C2998 C3000 1.478 . S
C2999 H2993 0.930 . S
C2999 C2995 1.400 . S
C2999 C2998 1.385 . S
C3000 C2998 1.478 . S
C3000 C3002 1.381 . S
C3000 C3006 1.383 . S
C3001 C2997 1.495 . S
C3001 H3007 0.959 . S
C3001 H3008 0.961 1_545 S
C3001 H3009 0.960 . S
C3002 C3000 1.381 . S
C3002 C3003 1.394 . S
C3002 H3010 0.930 . S
C3003 C3002 1.394 . S
C3003 C3004 1.383 . S
C3003 H3011 0.929 . S
C3004 C3003 1.383 . S
C3004 C3005 1.377 . S
C3005 H2989 0.930 . S
C3005 C3004 1.377 . S
C3005 C3006 1.379 . S
C3006 H2990 0.931 . S
C3006 C3000 1.383 . S
C3006 C3005 1.379 . S
H3007 C3001 0.959 . S
H3008 C3001 0.961 1_565 S
H3009 C3001 0.960 . S
H3010 C3002 0.930 . S
H3011 C3003 0.929 . S
H3012 C3020 0.929 . S
H3013 C3022 0.930 . S
H3014 C3024 0.930 . S
H3015 C3027 0.929 . S
H3016 C3030 0.930 . S
H3017 C3032 0.960 . S
H3018 C3032 0.960 . S
H3019 C3032 0.960 . S
C3020 H3012 0.929 . S
C3020 C3021 1.377 . S
C3020 C3022 1.384 . S
C3021 C3020 1.377 . S
C3021 C3027 1.390 . S
C3022 H3013 0.930 . S
C3022 C3020 1.384 . S
C3022 C3023 1.372 . S
C3023 C3022 1.372 . S
C3023 C3024 1.400 . S
C3023 C3028 1.490 . S
C3024 H3014 0.930 . S
C3024 C3023 1.400 . S
C3024 C3027 1.386 . S
H3025 C3041 0.930 . S
H3026 C3042 0.931 . S
C3027 H3015 0.929 . S
C3027 C3021 1.390 . S
C3027 C3024 1.386 . S
C3028 C3023 1.490 . S
C3028 C3030 1.395 . S
C3028 C3031 1.403 . S
H3029 C3035 0.930 . S
C3030 H3016 0.930 . S
C3030 C3028 1.395 . S
C3030 C3033 1.403 . S
C3031 C3028 1.403 . S
C3031 C3032 1.524 . S
C3031 C3035 1.400 . S
C3032 H3017 0.960 . S
C3032 H3018 0.960 . S
C3032 H3019 0.960 . S
C3032 C3031 1.524 . S
C3033 C3030 1.403 . S
C3033 C3034 1.392 . S
C3033 C3037 1.495 . S
C3034 C3033 1.392 . S
C3034 C3035 1.385 . S
C3034 C3036 1.478 . S
C3035 H3029 0.930 . S
C3035 C3031 1.400 . S
C3035 C3034 1.385 . S
C3036 C3034 1.478 . S
C3036 C3038 1.381 . S
C3036 C3042 1.383 . S
C3037 C3033 1.495 . S
C3037 H3043 0.959 . S
C3037 H3044 0.961 . S
C3037 H3045 0.960 . S
C3038 C3036 1.381 . S
C3038 C3039 1.394 . S
C3038 H3046 0.930 . S
C3039 C3038 1.394 . S
C3039 C3040 1.383 . S
C3039 H3047 0.929 . S
C3040 C3039 1.383 . S
C3040 C3041 1.377 . S
C3041 H3025 0.930 . S
C3041 C3040 1.377 . S
C3041 C3042 1.379 . S
C3042 H3026 0.931 . S
C3042 C3036 1.383 . S
C3042 C3041 1.379 . S
H3043 C3037 0.959 . S
H3044 C3037 0.961 . S
H3045 C3037 0.960 . S
H3046 C3038 0.930 . S
H3047 C3039 0.929 . S
H3048 C3056 0.929 . S
H3049 C3058 0.930 . S
H3050 C3060 0.930 . S
H3051 C3063 0.929 . S
H3052 C3066 0.931 . S
H3053 C3068 0.960 . S
H3054 C3068 0.960 . S
H3055 C3068 0.960 . S
C3056 H3048 0.929 . S
C3056 C3057 1.377 1_565 S
C3056 C3058 1.384 . S
C3057 C3056 1.377 1_545 S
C3057 C3063 1.390 . S
C3058 H3049 0.930 . S
C3058 C3056 1.384 . S
C3058 C3059 1.372 1_565 S
C3059 C3058 1.372 1_545 S
C3059 C3060 1.400 . S
C3059 C3064 1.490 . S
C3060 H3050 0.930 . S
C3060 C3059 1.400 . S
C3060 C3063 1.386 . S
H3061 C3077 0.930 . S
H3062 C3078 0.931 . S
C3063 H3051 0.929 . S
C3063 C3057 1.390 . S
C3063 C3060 1.386 . S
C3064 C3059 1.490 . S
C3064 C3066 1.395 . S
C3064 C3067 1.403 . S
H3065 C3071 0.930 . S
C3066 H3052 0.931 . S
C3066 C3064 1.395 . S
C3066 C3069 1.403 . S
C3067 C3064 1.403 . S
C3067 C3068 1.524 . S
C3067 C3071 1.400 . S
C3068 H3053 0.960 . S
C3068 H3054 0.960 . S
C3068 H3055 0.960 . S
C3068 C3067 1.524 . S
C3069 C3066 1.403 . S
C3069 C3070 1.392 . S
C3069 C3073 1.495 . S
C3070 C3069 1.392 . S
C3070 C3071 1.385 . S
C3070 C3072 1.478 . S
C3071 H3065 0.930 . S
C3071 C3067 1.400 . S
C3071 C3070 1.385 . S
C3072 C3070 1.478 . S
C3072 C3074 1.381 1_545 S
C3072 C3078 1.383 . S
C3073 C3069 1.495 . S
C3073 H3079 0.959 1_545 S
C3073 H3080 0.963 . S
C3073 H3081 0.958 1_545 S
C3074 C3072 1.381 1_565 S
C3074 C3075 1.394 . S
C3074 H3082 0.930 . S
C3075 C3074 1.394 . S
C3075 C3076 1.383 1_565 S
C3075 H3083 0.929 . S
C3076 C3075 1.383 1_545 S
C3076 C3077 1.377 . S
C3077 H3061 0.930 . S
C3077 C3076 1.377 . S
C3077 C3078 1.379 . S
C3078 H3062 0.931 . S
C3078 C3072 1.383 . S
C3078 C3077 1.379 . S
H3079 C3073 0.959 1_565 S
H3080 C3073 0.963 . S
H3081 C3073 0.958 1_565 S
H3082 C3074 0.930 . S
H3083 C3075 0.929 . S
H3084 C3092 0.929 . S
H3085 C3094 0.930 . S
H3086 C3096 0.930 . S
H3087 C3099 0.929 . S
H3088 C3102 0.930 . S
H3089 C3104 0.960 . S
H3090 C3104 0.960 . S
H3091 C3104 0.960 . S
C3092 H3084 0.929 . S
C3092 C3093 1.377 . S
C3092 C3094 1.384 . S
C3093 C3092 1.377 . S
C3093 C3099 1.390 . S
C3094 H3085 0.930 . S
C3094 C3092 1.384 . S
C3094 C3095 1.372 . S
C3095 C3094 1.372 . S
C3095 C3096 1.400 . S
C3095 C3100 1.490 . S
C3096 H3086 0.930 . S
C3096 C3095 1.400 . S
C3096 C3099 1.386 . S
H3097 C3113 0.930 . S
H3098 C3114 0.931 . S
C3099 H3087 0.929 . S
C3099 C3093 1.390 . S
C3099 C3096 1.386 . S
C3100 C3095 1.490 . S
C3100 C3102 1.395 . S
C3100 C3103 1.403 . S
H3101 C3107 0.930 . S
C3102 H3088 0.930 . S
C3102 C3100 1.395 . S
C3102 C3105 1.403 . S
C3103 C3100 1.403 . S
C3103 C3104 1.524 . S
C3103 C3107 1.400 . S
C3104 H3089 0.960 . S
C3104 H3090 0.960 . S
C3104 H3091 0.960 . S
C3104 C3103 1.524 . S
C3105 C3102 1.403 . S
C3105 C3106 1.392 . S
C3105 C3109 1.495 . S
C3106 C3105 1.392 . S
C3106 C3107 1.385 . S
C3106 C3108 1.478 . S
C3107 H3101 0.930 . S
C3107 C3103 1.400 . S
C3107 C3106 1.385 . S
C3108 C3106 1.478 . S
C3108 C3110 1.381 . S
C3108 C3114 1.383 . S
C3109 C3105 1.495 . S
C3109 H3115 0.959 . S
C3109 H3116 0.961 . S
C3109 H3117 0.960 . S
C3110 C3108 1.381 . S
C3110 C3111 1.394 . S
C3110 H3118 0.930 . S
C3111 C3110 1.394 . S
C3111 C3112 1.383 . S
C3111 H3119 0.929 . S
C3112 C3111 1.383 . S
C3112 C3113 1.377 . S
C3113 H3097 0.930 . S
C3113 C3112 1.377 . S
C3113 C3114 1.379 . S
C3114 H3098 0.931 . S
C3114 C3108 1.383 . S
C3114 C3113 1.379 . S
H3115 C3109 0.959 . S
H3116 C3109 0.961 . S
H3117 C3109 0.960 . S
H3118 C3110 0.930 . S
H3119 C3111 0.929 . S
H3120 C3128 0.929 . S
H3121 C3130 0.930 . S
H3122 C3132 0.930 . S
H3123 C3135 0.929 . S
H3124 C3138 0.930 . S
H3125 C3140 0.960 . S
H3126 C3140 0.960 . S
H3127 C3140 0.960 . S
C3128 H3120 0.929 . S
C3128 C3129 1.377 . S
C3128 C3130 1.384 . S
C3129 C3128 1.377 . S
C3129 C3135 1.390 . S
C3130 H3121 0.930 . S
C3130 C3128 1.384 . S
C3130 C3131 1.372 . S
C3131 C3130 1.372 . S
C3131 C3132 1.400 . S
C3131 C3136 1.490 . S
C3132 H3122 0.930 . S
C3132 C3131 1.400 . S
C3132 C3135 1.386 . S
H3133 C3149 0.930 . S
H3134 C3150 0.931 . S
C3135 H3123 0.929 . S
C3135 C3129 1.390 . S
C3135 C3132 1.386 . S
C3136 C3131 1.490 . S
C3136 C3138 1.395 . S
C3136 C3139 1.403 . S
H3137 C3143 0.930 . S
C3138 H3124 0.930 . S
C3138 C3136 1.395 . S
C3138 C3141 1.403 . S
C3139 C3136 1.403 . S
C3139 C3140 1.524 . S
C3139 C3143 1.400 . S
C3140 H3125 0.960 . S
C3140 H3126 0.960 . S
C3140 H3127 0.960 . S
C3140 C3139 1.524 . S
C3141 C3138 1.403 . S
C3141 C3142 1.392 . S
C3141 C3145 1.495 . S
C3142 C3141 1.392 . S
C3142 C3143 1.385 . S
C3142 C3144 1.478 . S
C3143 H3137 0.930 . S
C3143 C3139 1.400 . S
C3143 C3142 1.385 . S
C3144 C3142 1.478 . S
C3144 C3146 1.381 . S
C3144 C3150 1.383 . S
C3145 C3141 1.495 . S
C3145 H3151 0.959 . S
C3145 H3152 0.961 . S
C3145 H3153 0.960 . S
C3146 C3144 1.381 . S
C3146 C3147 1.394 . S
C3146 H3154 0.930 . S
C3147 C3146 1.394 . S
C3147 C3148 1.383 . S
C3147 H3155 0.976 . S
C3148 C3147 1.383 . S
C3148 C3149 1.377 . S
C3149 H3133 0.930 . S
C3149 C3148 1.377 . S
C3149 C3150 1.379 . S
C3150 H3134 0.931 . S
C3150 C3144 1.383 . S
C3150 C3149 1.379 . S
H3151 C3145 0.959 . S
H3152 C3145 0.961 . S
H3153 C3145 0.960 . S
H3154 C3146 0.930 . S
H3155 C3147 0.976 . S
H3156 C3164 0.929 . S
H3157 C3166 0.930 . S
H3158 C3168 0.930 . S
H3159 C3171 0.929 . S
H3160 C3174 0.930 . S
H3161 C3176 0.979 . S
H3162 C3176 0.971 . S
H3163 C3176 0.949 1_554 S
C3164 H3156 0.929 . S
C3164 C3165 1.377 . S
C3164 C3166 1.384 . S
C3165 C3164 1.377 . S
C3165 C3171 1.390 . S
C3166 H3157 0.930 . S
C3166 C3164 1.384 . S
C3166 C3167 1.372 . S
C3167 C3166 1.372 . S
C3167 C3168 1.400 . S
C3167 C3172 1.490 . S
C3168 H3158 0.930 . S
C3168 C3167 1.400 . S
C3168 C3171 1.386 . S
H3169 C3185 0.930 . S
H3170 C3186 0.931 . S
C3171 H3159 0.929 . S
C3171 C3165 1.390 . S
C3171 C3168 1.386 . S
C3172 C3167 1.490 . S
C3172 C3174 1.395 . S
C3172 C3175 1.403 . S
H3173 C3179 0.930 . S
C3174 H3160 0.930 . S
C3174 C3172 1.395 . S
C3174 C3177 1.403 . S
C3175 C3172 1.403 . S
C3175 C3176 1.506 1_554 S
C3175 C3179 1.400 . S
C3176 H3161 0.979 . S
C3176 H3162 0.971 . S
C3176 H3163 0.949 1_556 S
C3176 C3175 1.506 1_556 S
C3177 C3174 1.403 . S
C3177 C3178 1.392 . S
C3177 C3181 1.495 . S
C3178 C3177 1.392 . S
C3178 C3179 1.385 . S
C3178 C3180 1.478 . S
C3179 H3173 0.930 . S
C3179 C3175 1.400 . S
C3179 C3178 1.385 . S
C3180 C3178 1.478 . S
C3180 C3182 1.381 . S
C3180 C3186 1.383 . S
C3181 C3177 1.495 . S
C3181 H3187 0.959 . S
C3181 H3188 0.961 . S
C3181 H3189 0.960 . S
C3182 C3180 1.381 . S
C3182 C3183 1.394 . S
C3182 H3190 0.930 . S
C3183 C3182 1.394 . S
C3183 C3184 1.383 . S
C3183 H3191 0.929 . S
C3184 C3183 1.383 . S
C3184 C3185 1.377 . S
C3185 H3169 0.930 . S
C3185 C3184 1.377 . S
C3185 C3186 1.379 . S
C3186 H3170 0.931 . S
C3186 C3180 1.383 . S
C3186 C3185 1.379 . S
H3187 C3181 0.959 . S
H3188 C3181 0.961 . S
H3189 C3181 0.960 . S
H3190 C3182 0.930 . S
H3191 C3183 0.929 . S
H3192 C3200 0.929 . S
H3193 C3202 0.930 . S
H3194 C3204 0.930 . S
H3195 C3207 0.929 . S
H3196 C3210 0.930 . S
H3197 C3212 0.960 . S
H3198 C3212 0.960 . S
H3199 C3212 0.960 . S
C3200 H3192 0.929 . S
C3200 C3201 1.377 . S
C3200 C3202 1.384 . S
C3201 C3200 1.377 . S
C3201 C3207 1.390 . S
C3202 H3193 0.930 . S
C3202 C3200 1.384 . S
C3202 C3203 1.372 . S
C3203 C3202 1.372 . S
C3203 C3204 1.400 . S
C3203 C3208 1.490 . S
C3204 H3194 0.930 . S
C3204 C3203 1.400 . S
C3204 C3207 1.386 . S
H3205 C3221 0.930 . S
H3206 C3222 0.931 . S
C3207 H3195 0.929 . S
C3207 C3201 1.390 . S
C3207 C3204 1.386 . S
C3208 C3203 1.490 . S
C3208 C3210 1.395 . S
C3208 C3211 1.403 . S
H3209 C3215 0.930 . S
C3210 H3196 0.930 . S
C3210 C3208 1.395 . S
C3210 C3213 1.403 . S
C3211 C3208 1.403 . S
C3211 C3212 1.524 . S
C3211 C3215 1.400 . S
C3212 H3197 0.960 . S
C3212 H3198 0.960 . S
C3212 H3199 0.960 . S
C3212 C3211 1.524 . S
C3213 C3210 1.403 . S
C3213 C3214 1.392 . S
C3213 C3217 1.495 . S
C3214 C3213 1.392 . S
C3214 C3215 1.385 . S
C3214 C3216 1.478 . S
C3215 H3209 0.930 . S
C3215 C3211 1.400 . S
C3215 C3214 1.385 . S
C3216 C3214 1.478 . S
C3216 C3218 1.381 . S
C3216 C3222 1.383 . S
C3217 C3213 1.495 . S
C3217 H3223 0.959 . S
C3217 H3224 0.961 . S
C3217 H3225 0.960 . S
C3218 C3216 1.381 . S
C3218 C3219 1.394 . S
C3218 H3226 0.930 . S
C3219 C3218 1.394 . S
C3219 C3220 1.383 . S
C3219 H3227 0.929 . S
C3220 C3219 1.383 . S
C3220 C3221 1.377 . S
C3221 H3205 0.930 . S
C3221 C3220 1.377 . S
C3221 C3222 1.379 . S
C3222 H3206 0.931 . S
C3222 C3216 1.383 . S
C3222 C3221 1.379 . S
H3223 C3217 0.959 . S
H3224 C3217 0.961 . S
H3225 C3217 0.960 . S
H3226 C3218 0.930 . S
H3227 C3219 0.929 . S
H3228 C3236 0.929 . S
H3229 C3238 0.930 . S
H3230 C3240 0.930 . S
H3231 C3243 0.929 . S
H3232 C3246 0.930 . S
H3233 C3248 0.960 . S
H3234 C3248 0.960 . S
H3235 C3248 0.960 . S
C3236 H3228 0.929 . S
C3236 C3237 1.377 . S
C3236 C3238 1.384 . S
C3237 C3236 1.377 . S
C3237 C3243 1.390 . S
C3238 H3229 0.930 . S
C3238 C3236 1.384 . S
C3238 C3239 1.372 . S
C3239 C3238 1.372 . S
C3239 C3240 1.400 . S
C3239 C3244 1.490 . S
C3240 H3230 0.930 . S
C3240 C3239 1.400 . S
C3240 C3243 1.386 . S
H3241 C3257 0.930 . S
H3242 C3258 0.931 . S
C3243 H3231 0.929 . S
C3243 C3237 1.390 . S
C3243 C3240 1.386 . S
C3244 C3239 1.490 . S
C3244 C3246 1.395 . S
C3244 C3247 1.403 . S
H3245 C3251 0.930 . S
C3246 H3232 0.930 . S
C3246 C3244 1.395 . S
C3246 C3249 1.403 . S
C3247 C3244 1.403 . S
C3247 C3248 1.524 . S
C3247 C3251 1.400 . S
C3248 H3233 0.960 . S
C3248 H3234 0.960 . S
C3248 H3235 0.960 . S
C3248 C3247 1.524 . S
C3249 C3246 1.403 . S
C3249 C3250 1.392 . S
C3249 C3253 1.495 . S
C3250 C3249 1.392 . S
C3250 C3251 1.385 . S
C3250 C3252 1.478 . S
C3251 H3245 0.930 . S
C3251 C3247 1.400 . S
C3251 C3250 1.385 . S
C3252 C3250 1.478 . S
C3252 C3254 1.381 . S
C3252 C3258 1.383 . S
C3253 C3249 1.495 . S
C3253 H3259 0.959 . S
C3253 H3260 0.961 . S
C3253 H3261 0.960 . S
C3254 C3252 1.381 . S
C3254 C3255 1.394 . S
C3254 H3262 0.930 . S
C3255 C3254 1.394 . S
C3255 C3256 1.383 . S
C3255 H3263 0.929 . S
C3256 C3255 1.383 . S
C3256 C3257 1.377 . S
C3257 H3241 0.930 . S
C3257 C3256 1.377 . S
C3257 C3258 1.379 . S
C3258 H3242 0.931 . S
C3258 C3252 1.383 . S
C3258 C3257 1.379 . S
H3259 C3253 0.959 . S
H3260 C3253 0.961 . S
H3261 C3253 0.960 . S
H3262 C3254 0.930 . S
H3263 C3255 0.929 . S
H3264 C3272 0.929 . S
H3265 C3274 0.930 . S
H3266 C3276 0.930 . S
H3267 C3279 0.929 . S
H3268 C3282 0.930 . S
H3269 C3284 0.960 . S
H3270 C3284 0.960 . S
H3271 C3284 0.960 . S
C3272 H3264 0.929 . S
C3272 C3273 1.377 . S
C3272 C3274 1.384 . S
C3273 C3272 1.377 . S
C3273 C3279 1.390 . S
C3274 H3265 0.930 . S
C3274 C3272 1.384 . S
C3274 C3275 1.372 . S
C3275 C3274 1.372 . S
C3275 C3276 1.400 . S
C3275 C3280 1.490 . S
C3276 H3266 0.930 . S
C3276 C3275 1.400 . S
C3276 C3279 1.386 . S
H3277 C3293 0.930 . S
H3278 C3294 0.931 . S
C3279 H3267 0.929 . S
C3279 C3273 1.390 . S
C3279 C3276 1.386 . S
C3280 C3275 1.490 . S
C3280 C3282 1.395 . S
C3280 C3283 1.403 . S
H3281 C3287 0.930 . S
C3282 H3268 0.930 . S
C3282 C3280 1.395 . S
C3282 C3285 1.403 . S
C3283 C3280 1.403 . S
C3283 C3284 1.524 . S
C3283 C3287 1.400 . S
C3284 H3269 0.960 . S
C3284 H3270 0.960 . S
C3284 H3271 0.960 . S
C3284 C3283 1.524 . S
C3285 C3282 1.403 . S
C3285 C3286 1.392 . S
C3285 C3289 1.495 . S
C3286 C3285 1.392 . S
C3286 C3287 1.385 . S
C3286 C3288 1.478 . S
C3287 H3281 0.930 . S
C3287 C3283 1.400 . S
C3287 C3286 1.385 . S
C3288 C3286 1.478 . S
C3288 C3290 1.381 . S
C3288 C3294 1.383 . S
C3289 C3285 1.495 . S
C3289 H3295 0.959 . S
C3289 H3296 0.961 . S
C3289 H3297 0.960 . S
C3290 C3288 1.381 . S
C3290 C3291 1.394 . S
C3290 H3298 0.930 . S
C3291 C3290 1.394 . S
C3291 C3292 1.383 . S
C3291 H3299 0.929 . S
C3292 C3291 1.383 . S
C3292 C3293 1.377 . S
C3293 H3277 0.930 . S
C3293 C3292 1.377 . S
C3293 C3294 1.379 . S
C3294 H3278 0.931 . S
C3294 C3288 1.383 . S
C3294 C3293 1.379 . S
H3295 C3289 0.959 . S
H3296 C3289 0.961 . S
H3297 C3289 0.960 . S
H3298 C3290 0.930 . S
H3299 C3291 0.929 . S
H3300 C3308 0.929 . S
H3301 C3310 0.930 . S
H3302 C3312 0.930 . S
H3303 C3315 0.929 . S
H3304 C3318 0.930 . S
H3305 C3320 0.960 . S
H3306 C3320 0.960 . S
H3307 C3320 0.960 . S
C3308 H3300 0.929 . S
C3308 C3309 1.377 . S
C3308 C3310 1.384 . S
C3309 C3308 1.377 . S
C3309 C3315 1.390 . S
C3310 H3301 0.930 . S
C3310 C3308 1.384 . S
C3310 C3311 1.372 . S
C3311 C3310 1.372 . S
C3311 C3312 1.400 . S
C3311 C3316 1.490 . S
C3312 H3302 0.930 . S
C3312 C3311 1.400 . S
C3312 C3315 1.386 . S
H3313 C3329 0.930 . S
H3314 C3330 0.931 . S
C3315 H3303 0.929 . S
C3315 C3309 1.390 . S
C3315 C3312 1.386 . S
C3316 C3311 1.490 . S
C3316 C3318 1.395 . S
C3316 C3319 1.403 . S
H3317 C3323 0.930 . S
C3318 H3304 0.930 . S
C3318 C3316 1.395 . S
C3318 C3321 1.403 . S
C3319 C3316 1.403 . S
C3319 C3320 1.524 . S
C3319 C3323 1.400 . S
C3320 H3305 0.960 . S
C3320 H3306 0.960 . S
C3320 H3307 0.960 . S
C3320 C3319 1.524 . S
C3321 C3318 1.403 . S
C3321 C3322 1.392 . S
C3321 C3325 1.495 . S
C3322 C3321 1.392 . S
C3322 C3323 1.385 . S
C3322 C3324 1.478 . S
C3323 H3317 0.930 . S
C3323 C3319 1.400 . S
C3323 C3322 1.385 . S
C3324 C3322 1.478 . S
C3324 C3326 1.381 . S
C3324 C3330 1.383 . S
C3325 C3321 1.495 . S
C3325 H3331 0.959 . S
C3325 H3332 0.961 . S
C3325 H3333 0.960 . S
C3326 C3324 1.381 . S
C3326 C3327 1.394 . S
C3326 H3334 0.930 . S
C3327 C3326 1.394 . S
C3327 C3328 1.383 . S
C3327 H3335 0.929 . S
C3328 C3327 1.383 . S
C3328 C3329 1.377 . S
C3329 H3313 0.930 . S
C3329 C3328 1.377 . S
C3329 C3330 1.379 . S
C3330 H3314 0.931 . S
C3330 C3324 1.383 . S
C3330 C3329 1.379 . S
H3331 C3325 0.959 . S
H3332 C3325 0.961 . S
H3333 C3325 0.960 . S
H3334 C3326 0.930 . S
H3335 C3327 0.929 . S
H3336 C3344 0.929 . S
H3337 C3346 0.930 . S
H3338 C3348 0.930 . S
H3339 C3351 0.929 . S
H3340 C3354 0.930 . S
H3341 C3356 0.960 . S
H3342 C3356 0.960 . S
H3343 C3356 0.960 . S
C3344 H3336 0.929 . S
C3344 C3345 1.377 . S
C3344 C3346 1.384 . S
C3345 C3344 1.377 . S
C3345 C3351 1.390 . S
C3346 H3337 0.930 . S
C3346 C3344 1.384 . S
C3346 C3347 1.372 . S
C3347 C3346 1.372 . S
C3347 C3348 1.400 . S
C3347 C3352 1.490 . S
C3348 H3338 0.930 . S
C3348 C3347 1.400 . S
C3348 C3351 1.386 . S
H3349 C3365 0.930 . S
H3350 C3366 0.931 . S
C3351 H3339 0.929 . S
C3351 C3345 1.390 . S
C3351 C3348 1.386 . S
C3352 C3347 1.490 . S
C3352 C3354 1.395 . S
C3352 C3355 1.403 . S
H3353 C3359 0.930 . S
C3354 H3340 0.930 . S
C3354 C3352 1.395 . S
C3354 C3357 1.403 . S
C3355 C3352 1.403 . S
C3355 C3356 1.524 . S
C3355 C3359 1.400 . S
C3356 H3341 0.960 . S
C3356 H3342 0.960 . S
C3356 H3343 0.960 . S
C3356 C3355 1.524 . S
C3357 C3354 1.403 . S
C3357 C3358 1.392 . S
C3357 C3361 1.495 . S
C3358 C3357 1.392 . S
C3358 C3359 1.385 . S
C3358 C3360 1.478 . S
C3359 H3353 0.930 . S
C3359 C3355 1.400 . S
C3359 C3358 1.385 . S
C3360 C3358 1.478 . S
C3360 C3362 1.381 . S
C3360 C3366 1.383 . S
C3361 C3357 1.495 . S
C3361 H3367 0.959 . S
C3361 H3368 0.961 . S
C3361 H3369 0.960 . S
C3362 C3360 1.381 . S
C3362 C3363 1.394 . S
C3362 H3370 0.930 . S
C3363 C3362 1.394 . S
C3363 C3364 1.383 . S
C3363 H3371 0.929 . S
C3364 C3363 1.383 . S
C3364 C3365 1.377 . S
C3365 H3349 0.930 . S
C3365 C3364 1.377 . S
C3365 C3366 1.379 . S
C3366 H3350 0.931 . S
C3366 C3360 1.383 . S
C3366 C3365 1.379 . S
H3367 C3361 0.959 . S
H3368 C3361 0.961 . S
H3369 C3361 0.960 . S
H3370 C3362 0.930 . S
H3371 C3363 0.929 . S
H3372 C3380 0.929 . S
H3373 C3382 0.930 . S
H3374 C3384 0.930 . S
H3375 C3387 0.929 . S
H3376 C3390 0.930 . S
H3377 C3392 0.960 . S
H3378 C3392 0.960 . S
H3379 C3392 0.960 . S
C3380 H3372 0.929 . S
C3380 C3381 1.377 . S
C3380 C3382 1.384 . S
C3381 C3380 1.377 . S
C3381 C3387 1.390 . S
C3382 H3373 0.930 . S
C3382 C3380 1.384 . S
C3382 C3383 1.372 . S
C3383 C3382 1.372 . S
C3383 C3384 1.400 . S
C3383 C3388 1.490 . S
C3384 H3374 0.930 . S
C3384 C3383 1.400 . S
C3384 C3387 1.386 . S
H3385 C3401 0.930 . S
H3386 C3402 0.931 . S
C3387 H3375 0.929 . S
C3387 C3381 1.390 . S
C3387 C3384 1.386 . S
C3388 C3383 1.490 . S
C3388 C3390 1.395 . S
C3388 C3391 1.403 . S
H3389 C3395 0.930 . S
C3390 H3376 0.930 . S
C3390 C3388 1.395 . S
C3390 C3393 1.403 . S
C3391 C3388 1.403 . S
C3391 C3392 1.524 . S
C3391 C3395 1.400 . S
C3392 H3377 0.960 . S
C3392 H3378 0.960 . S
C3392 H3379 0.960 . S
C3392 C3391 1.524 . S
C3393 C3390 1.403 . S
C3393 C3394 1.392 . S
C3393 C3397 1.495 . S
C3394 C3393 1.392 . S
C3394 C3395 1.385 . S
C3394 C3396 1.478 . S
C3395 H3389 0.930 . S
C3395 C3391 1.400 . S
C3395 C3394 1.385 . S
C3396 C3394 1.478 . S
C3396 C3398 1.381 . S
C3396 C3402 1.383 . S
C3397 C3393 1.495 . S
C3397 H3403 0.959 . S
C3397 H3404 0.961 . S
C3397 H3405 0.960 . S
C3398 C3396 1.381 . S
C3398 C3399 1.394 . S
C3398 H3406 0.930 . S
C3399 C3398 1.394 . S
C3399 C3400 1.383 . S
C3399 H3407 0.929 . S
C3400 C3399 1.383 . S
C3400 C3401 1.377 . S
C3401 H3385 0.930 . S
C3401 C3400 1.377 . S
C3401 C3402 1.379 . S
C3402 H3386 0.931 . S
C3402 C3396 1.383 . S
C3402 C3401 1.379 . S
H3403 C3397 0.959 . S
H3404 C3397 0.961 . S
H3405 C3397 0.960 . S
H3406 C3398 0.930 . S
H3407 C3399 0.929 . S
H3408 C3416 0.929 . S
H3409 C3418 0.930 . S
H3410 C3420 0.930 . S
H3411 C3423 0.929 . S
H3412 C3426 0.930 . S
H3413 C3428 0.960 . S
H3414 C3428 0.960 . S
H3415 C3428 0.960 . S
C3416 H3408 0.929 . S
C3416 C3417 1.377 . S
C3416 C3418 1.384 . S
C3417 C3416 1.377 . S
C3417 C3423 1.390 . S
C3418 H3409 0.930 . S
C3418 C3416 1.384 . S
C3418 C3419 1.372 . S
C3419 C3418 1.372 . S
C3419 C3420 1.400 . S
C3419 C3424 1.490 . S
C3420 H3410 0.930 . S
C3420 C3419 1.400 . S
C3420 C3423 1.386 . S
H3421 C3437 0.930 . S
H3422 C3438 0.931 . S
C3423 H3411 0.929 . S
C3423 C3417 1.390 . S
C3423 C3420 1.386 . S
C3424 C3419 1.490 . S
C3424 C3426 1.395 . S
C3424 C3427 1.403 . S
H3425 C3431 0.930 . S
C3426 H3412 0.930 . S
C3426 C3424 1.395 . S
C3426 C3429 1.403 . S
C3427 C3424 1.403 . S
C3427 C3428 1.524 . S
C3427 C3431 1.400 . S
C3428 H3413 0.960 . S
C3428 H3414 0.960 . S
C3428 H3415 0.960 . S
C3428 C3427 1.524 . S
C3429 C3426 1.403 . S
C3429 C3430 1.392 . S
C3429 C3433 1.495 . S
C3430 C3429 1.392 . S
C3430 C3431 1.385 . S
C3430 C3432 1.478 . S
C3431 H3425 0.930 . S
C3431 C3427 1.400 . S
C3431 C3430 1.385 . S
C3432 C3430 1.478 . S
C3432 C3434 1.381 . S
C3432 C3438 1.383 . S
C3433 C3429 1.495 . S
C3433 H3439 0.959 . S
C3433 H3440 0.961 . S
C3433 H3441 0.960 . S
C3434 C3432 1.381 . S
C3434 C3435 1.394 . S
C3434 H3442 0.930 . S
C3435 C3434 1.394 . S
C3435 C3436 1.383 . S
C3435 H3443 0.929 . S
C3436 C3435 1.383 . S
C3436 C3437 1.377 . S
C3437 H3421 0.930 . S
C3437 C3436 1.377 . S
C3437 C3438 1.379 . S
C3438 H3422 0.931 . S
C3438 C3432 1.383 . S
C3438 C3437 1.379 . S
H3439 C3433 0.959 . S
H3440 C3433 0.961 . S
H3441 C3433 0.960 . S
H3442 C3434 0.930 . S
H3443 C3435 0.929 . S
H3444 C3452 0.929 . S
H3445 C3454 0.930 . S
H3446 C3456 0.930 . S
H3447 C3459 0.929 . S
H3448 C3462 0.930 . S
H3449 C3464 0.960 . S
H3450 C3464 0.960 . S
H3451 C3464 0.960 . S
C3452 H3444 0.929 . S
C3452 C3453 1.377 . S
C3452 C3454 1.384 . S
C3453 C3452 1.377 . S
C3453 C3459 1.390 . S
C3454 H3445 0.930 . S
C3454 C3452 1.384 . S
C3454 C3455 1.372 . S
C3455 C3454 1.372 . S
C3455 C3456 1.400 . S
C3455 C3460 1.490 . S
C3456 H3446 0.930 . S
C3456 C3455 1.400 . S
C3456 C3459 1.386 . S
H3457 C3473 0.930 . S
H3458 C3474 0.931 . S
C3459 H3447 0.929 . S
C3459 C3453 1.390 . S
C3459 C3456 1.386 . S
C3460 C3455 1.490 . S
C3460 C3462 1.395 . S
C3460 C3463 1.403 . S
H3461 C3467 0.930 . S
C3462 H3448 0.930 . S
C3462 C3460 1.395 . S
C3462 C3465 1.403 . S
C3463 C3460 1.403 . S
C3463 C3464 1.524 . S
C3463 C3467 1.400 . S
C3464 H3449 0.960 . S
C3464 H3450 0.960 . S
C3464 H3451 0.960 . S
C3464 C3463 1.524 . S
C3465 C3462 1.403 . S
C3465 C3466 1.392 . S
C3465 C3469 1.495 . S
C3466 C3465 1.392 . S
C3466 C3467 1.385 . S
C3466 C3468 1.478 . S
C3467 H3461 0.930 . S
C3467 C3463 1.400 . S
C3467 C3466 1.385 . S
C3468 C3466 1.478 . S
C3468 C3470 1.381 . S
C3468 C3474 1.383 . S
C3469 C3465 1.495 . S
C3469 H3475 0.959 . S
C3469 H3476 0.961 . S
C3469 H3477 0.960 . S
C3470 C3468 1.381 . S
C3470 C3471 1.394 . S
C3470 H3478 0.930 . S
C3471 C3470 1.394 . S
C3471 C3472 1.383 . S
C3471 H3479 0.929 . S
C3472 C3471 1.383 . S
C3472 C3473 1.377 . S
C3473 H3457 0.930 . S
C3473 C3472 1.377 . S
C3473 C3474 1.379 . S
C3474 H3458 0.931 . S
C3474 C3468 1.383 . S
C3474 C3473 1.379 . S
H3475 C3469 0.959 . S
H3476 C3469 0.961 . S
H3477 C3469 0.960 . S
H3478 C3470 0.930 . S
H3479 C3471 0.929 . S
H3480 C3488 0.929 . S
H3481 C3490 0.930 . S
H3482 C3492 0.930 . S
H3483 C3495 0.929 . S
H3484 C3498 0.930 . S
H3485 C3500 0.960 . S
H3486 C3500 0.960 . S
H3487 C3500 0.960 . S
C3488 H3480 0.929 . S
C3488 C3489 1.377 . S
C3488 C3490 1.384 . S
C3489 C3488 1.377 . S
C3489 C3495 1.390 . S
C3490 H3481 0.930 . S
C3490 C3488 1.384 . S
C3490 C3491 1.372 . S
C3491 C3490 1.372 . S
C3491 C3492 1.400 . S
C3491 C3496 1.490 . S
C3492 H3482 0.930 . S
C3492 C3491 1.400 . S
C3492 C3495 1.386 . S
H3493 C3509 0.930 . S
H3494 C3510 0.931 . S
C3495 H3483 0.929 . S
C3495 C3489 1.390 . S
C3495 C3492 1.386 . S
C3496 C3491 1.490 . S
C3496 C3498 1.395 . S
C3496 C3499 1.403 1_455 S
H3497 C3503 0.930 . S
C3498 H3484 0.930 . S
C3498 C3496 1.395 . S
C3498 C3501 1.405 1_556 S
C3499 C3496 1.403 1_655 S
C3499 C3500 1.524 . S
C3499 C3503 1.400 . S
C3500 H3485 0.960 . S
C3500 H3486 0.960 . S
C3500 H3487 0.960 . S
C3500 C3499 1.524 . S
C3501 C3498 1.405 1_554 S
C3501 C3502 1.394 1_554 S
C3501 C3505 1.493 . S
C3502 C3501 1.394 1_556 S
C3502 C3503 1.385 1_455 S
C3502 C3504 1.478 . S
C3503 H3497 0.930 . S
C3503 C3499 1.400 . S
C3503 C3502 1.385 1_655 S
C3504 C3502 1.478 . S
C3504 C3506 1.381 1_556 S
C3504 C3510 1.383 . S
C3505 C3501 1.493 . S
C3505 H3511 0.959 . S
C3505 H3512 0.961 . S
C3505 H3513 0.960 . S
C3506 C3504 1.381 1_554 S
C3506 C3507 1.394 . S
C3506 H3514 0.930 . S
C3507 C3506 1.394 . S
C3507 C3508 1.383 . S
C3507 H3515 0.929 . S
C3508 C3507 1.383 . S
C3508 C3509 1.377 1_554 S
C3509 H3493 0.930 . S
C3509 C3508 1.377 1_556 S
C3509 C3510 1.379 . S
C3510 H3494 0.931 . S
C3510 C3504 1.383 . S
C3510 C3509 1.379 . S
H3511 C3505 0.959 . S
H3512 C3505 0.961 . S
H3513 C3505 0.960 . S
H3514 C3506 0.930 . S
H3515 C3507 0.929 . S
H3516 C3524 0.929 1_455 S
H3517 C3526 0.930 . S
H3518 C3528 0.930 . S
H3519 C3531 0.929 . S
H3520 C3534 0.930 . S
H3521 C3536 0.960 . S
H3522 C3536 0.960 . S
H3523 C3536 0.960 . S
C3524 H3516 0.929 1_655 S
C3524 C3525 1.377 1_655 S
C3524 C3526 1.384 . S
C3525 C3524 1.377 1_455 S
C3525 C3531 1.390 1_455 S
C3526 H3517 0.930 . S
C3526 C3524 1.384 . S
C3526 C3527 1.372 . S
C3527 C3526 1.372 . S
C3527 C3528 1.400 . S
C3527 C3532 1.490 . S
C3528 H3518 0.930 . S
C3528 C3527 1.400 . S
C3528 C3531 1.386 . S
H3529 C3545 0.930 . S
H3530 C3546 0.931 . S
C3531 H3519 0.929 . S
C3531 C3525 1.390 1_655 S
C3531 C3528 1.386 . S
C3532 C3527 1.490 . S
C3532 C3534 1.395 . S
C3532 C3535 1.403 . S
H3533 C3539 0.930 . S
C3534 H3520 0.930 . S
C3534 C3532 1.395 . S
C3534 C3537 1.403 . S
C3535 C3532 1.403 . S
C3535 C3536 1.524 . S
C3535 C3539 1.400 . S
C3536 H3521 0.960 . S
C3536 H3522 0.960 . S
C3536 H3523 0.960 . S
C3536 C3535 1.524 . S
C3537 C3534 1.403 . S
C3537 C3538 1.392 . S
C3537 C3541 1.495 . S
C3538 C3537 1.392 . S
C3538 C3539 1.385 . S
C3538 C3540 1.478 . S
C3539 H3533 0.930 . S
C3539 C3535 1.400 . S
C3539 C3538 1.385 . S
C3540 C3538 1.478 . S
C3540 C3542 1.381 . S
C3540 C3546 1.383 . S
C3541 C3537 1.495 . S
C3541 H3547 0.959 . S
C3541 H3548 0.961 . S
C3541 H3549 0.960 . S
C3542 C3540 1.381 . S
C3542 C3543 1.394 . S
C3542 H3550 0.930 . S
C3543 C3542 1.394 . S
C3543 C3544 1.383 . S
C3543 H3551 0.929 . S
C3544 C3543 1.383 . S
C3544 C3545 1.377 . S
C3545 H3529 0.930 . S
C3545 C3544 1.377 . S
C3545 C3546 1.379 . S
C3546 H3530 0.931 . S
C3546 C3540 1.383 . S
C3546 C3545 1.379 . S
H3547 C3541 0.959 . S
H3548 C3541 0.961 . S
H3549 C3541 0.960 . S
H3550 C3542 0.930 . S
H3551 C3543 0.929 . S
H3552 C3560 0.929 . S
H3553 C3562 0.930 . S
H3554 C3564 0.930 . S
H3555 C3567 0.929 . S
H3556 C3570 0.930 . S
H3557 C3572 0.960 . S
H3558 C3572 0.960 . S
H3559 C3572 0.960 . S
C3560 H3552 0.929 . S
C3560 C3561 1.377 . S
C3560 C3562 1.384 . S
C3561 C3560 1.377 . S
C3561 C3567 1.390 . S
C3562 H3553 0.930 . S
C3562 C3560 1.384 . S
C3562 C3563 1.372 . S
C3563 C3562 1.372 . S
C3563 C3564 1.400 . S
C3563 C3568 1.490 . S
C3564 H3554 0.930 . S
C3564 C3563 1.400 . S
C3564 C3567 1.386 . S
H3565 C3581 0.930 . S
H3566 C3582 0.931 . S
C3567 H3555 0.929 . S
C3567 C3561 1.390 . S
C3567 C3564 1.386 . S
C3568 C3563 1.490 . S
C3568 C3570 1.395 . S
C3568 C3571 1.403 . S
H3569 C3575 0.930 . S
C3570 H3556 0.930 . S
C3570 C3568 1.395 . S
C3570 C3573 1.403 . S
C3571 C3568 1.403 . S
C3571 C3572 1.524 . S
C3571 C3575 1.400 . S
C3572 H3557 0.960 . S
C3572 H3558 0.960 . S
C3572 H3559 0.960 . S
C3572 C3571 1.524 . S
C3573 C3570 1.403 . S
C3573 C3574 1.392 . S
C3573 C3577 1.495 . S
C3574 C3573 1.392 . S
C3574 C3575 1.385 . S
C3574 C3576 1.478 . S
C3575 H3569 0.930 . S
C3575 C3571 1.400 . S
C3575 C3574 1.385 . S
C3576 C3574 1.478 . S
C3576 C3578 1.381 . S
C3576 C3582 1.383 . S
C3577 C3573 1.495 . S
C3577 H3583 0.959 . S
C3577 H3584 0.961 . S
C3577 H3585 0.960 . S
C3578 C3576 1.381 . S
C3578 C3579 1.394 . S
C3578 H3586 0.930 . S
C3579 C3578 1.394 . S
C3579 C3580 1.383 . S
C3579 H3587 0.929 . S
C3580 C3579 1.383 . S
C3580 C3581 1.377 . S
C3581 H3565 0.930 . S
C3581 C3580 1.377 . S
C3581 C3582 1.379 . S
C3582 H3566 0.931 . S
C3582 C3576 1.383 . S
C3582 C3581 1.379 . S
H3583 C3577 0.959 . S
H3584 C3577 0.961 . S
H3585 C3577 0.960 . S
H3586 C3578 0.930 . S
H3587 C3579 0.929 . S
H3588 C3596 0.929 . S
H3589 C3598 0.930 . S
H3590 C3600 0.930 . S
H3591 C3603 0.929 . S
H3592 C3606 0.930 . S
H3593 C3608 0.960 . S
H3594 C3608 0.960 . S
H3595 C3608 0.960 . S
C3596 H3588 0.929 . S
C3596 C3597 1.377 . S
C3596 C3598 1.384 . S
C3597 C3596 1.377 . S
C3597 C3603 1.390 . S
C3598 H3589 0.930 . S
C3598 C3596 1.384 . S
C3598 C3599 1.372 . S
C3599 C3598 1.372 . S
C3599 C3600 1.400 . S
C3599 C3604 1.490 . S
C3600 H3590 0.930 . S
C3600 C3599 1.400 . S
C3600 C3603 1.386 . S
H3601 C3617 0.930 . S
H3602 C3618 0.931 . S
C3603 H3591 0.929 . S
C3603 C3597 1.390 . S
C3603 C3600 1.386 . S
C3604 C3599 1.490 . S
C3604 C3606 1.395 . S
C3604 C3607 1.403 . S
H3605 C3611 0.930 . S
C3606 H3592 0.930 . S
C3606 C3604 1.395 . S
C3606 C3609 1.403 . S
C3607 C3604 1.403 . S
C3607 C3608 1.524 . S
C3607 C3611 1.400 . S
C3608 H3593 0.960 . S
C3608 H3594 0.960 . S
C3608 H3595 0.960 . S
C3608 C3607 1.524 . S
C3609 C3606 1.403 . S
C3609 C3610 1.392 . S
C3609 C3613 1.495 . S
C3610 C3609 1.392 . S
C3610 C3611 1.385 . S
C3610 C3612 1.478 . S
C3611 H3605 0.930 . S
C3611 C3607 1.400 . S
C3611 C3610 1.385 . S
C3612 C3610 1.478 . S
C3612 C3614 1.381 . S
C3612 C3618 1.383 . S
C3613 C3609 1.495 . S
C3613 H3619 0.959 . S
C3613 H3620 0.961 . S
C3613 H3621 0.960 . S
C3614 C3612 1.381 . S
C3614 C3615 1.394 . S
C3614 H3622 0.930 . S
C3615 C3614 1.394 . S
C3615 C3616 1.383 . S
C3615 H3623 0.929 . S
C3616 C3615 1.383 . S
C3616 C3617 1.377 . S
C3617 H3601 0.930 . S
C3617 C3616 1.377 . S
C3617 C3618 1.379 . S
C3618 H3602 0.931 . S
C3618 C3612 1.383 . S
C3618 C3617 1.379 . S
H3619 C3613 0.959 . S
H3620 C3613 0.961 . S
H3621 C3613 0.960 . S
H3622 C3614 0.930 . S
H3623 C3615 0.929 . S
H3624 C3632 0.929 . S
H3625 C3634 0.930 . S
H3626 C3636 0.957 . S
H3627 C3639 0.929 . S
H3628 C3642 0.930 . S
H3629 C3644 0.960 . S
H3630 C3644 0.960 . S
H3631 C3644 0.960 . S
C3632 H3624 0.929 . S
C3632 C3633 1.377 . S
C3632 C3634 1.384 . S
C3633 C3632 1.377 . S
C3633 C3639 1.390 1_455 S
C3634 H3625 0.930 . S
C3634 C3632 1.384 . S
C3634 C3635 1.372 . S
C3635 C3634 1.372 . S
C3635 C3636 1.355 1_455 S
C3635 C3640 1.490 . S
C3636 H3626 0.957 . S
C3636 C3635 1.355 1_655 S
C3636 C3639 1.408 . S
H3637 C3653 0.930 1_655 S
H3638 C3654 0.896 1_655 S
C3639 H3627 0.929 . S
C3639 C3633 1.390 1_655 S
C3639 C3636 1.408 . S
C3640 C3635 1.490 . S
C3640 C3642 1.395 . S
C3640 C3643 1.403 . S
H3641 C3647 0.930 . S
C3642 H3628 0.930 . S
C3642 C3640 1.395 . S
C3642 C3645 1.403 . S
C3643 C3640 1.403 . S
C3643 C3644 1.524 . S
C3643 C3647 1.400 . S
C3644 H3629 0.960 . S
C3644 H3630 0.960 . S
C3644 H3631 0.960 . S
C3644 C3643 1.524 . S
C3645 C3642 1.403 . S
C3645 C3646 1.392 . S
C3645 C3649 1.491 1_455 S
C3646 C3645 1.392 . S
C3646 C3647 1.385 . S
C3646 C3648 1.478 . S
C3647 H3641 0.930 . S
C3647 C3643 1.400 . S
C3647 C3646 1.385 . S
C3648 C3646 1.478 . S
C3648 C3650 1.381 . S
C3648 C3654 1.404 . S
C3649 C3645 1.491 1_655 S
C3649 H3655 0.971 . S
C3649 H3656 0.979 . S
C3649 H3657 0.935 1_655 S
C3650 C3648 1.381 . S
C3650 C3651 1.394 . S
C3650 H3658 0.930 . S
C3651 C3650 1.394 . S
C3651 C3652 1.383 . S
C3651 H3659 0.929 . S
C3652 C3651 1.383 . S
C3652 C3653 1.377 . S
C3653 H3637 0.930 1_455 S
C3653 C3652 1.377 . S
C3653 C3654 1.394 . S
C3654 H3638 0.896 1_455 S
C3654 C3648 1.404 . S
C3654 C3653 1.394 . S
H3655 C3649 0.971 . S
H3656 C3649 0.979 . S
H3657 C3649 0.935 1_455 S
H3658 C3650 0.930 . S
H3659 C3651 0.929 . S
H3660 C3668 0.929 . S
H3661 C3670 0.930 . S
H3662 C3672 0.930 . S
H3663 C3675 0.929 . S
H3664 C3678 0.930 . S
H3665 C3680 0.960 . S
H3666 C3680 0.960 . S
H3667 C3680 0.960 . S
C3668 H3660 0.929 . S
C3668 C3669 1.377 . S
C3668 C3670 1.384 . S
C3669 C3668 1.377 . S
C3669 C3675 1.390 . S
C3670 H3661 0.930 . S
C3670 C3668 1.384 . S
C3670 C3671 1.372 . S
C3671 C3670 1.372 . S
C3671 C3672 1.400 . S
C3671 C3676 1.490 . S
C3672 H3662 0.930 . S
C3672 C3671 1.400 . S
C3672 C3675 1.386 . S
H3673 C3689 0.930 . S
H3674 C3690 0.931 . S
C3675 H3663 0.929 . S
C3675 C3669 1.390 . S
C3675 C3672 1.386 . S
C3676 C3671 1.490 . S
C3676 C3678 1.395 . S
C3676 C3679 1.403 . S
H3677 C3683 0.930 . S
C3678 H3664 0.930 . S
C3678 C3676 1.395 . S
C3678 C3681 1.403 . S
C3679 C3676 1.403 . S
C3679 C3680 1.524 . S
C3679 C3683 1.400 . S
C3680 H3665 0.960 . S
C3680 H3666 0.960 . S
C3680 H3667 0.960 . S
C3680 C3679 1.524 . S
C3681 C3678 1.403 . S
C3681 C3682 1.392 . S
C3681 C3685 1.495 . S
C3682 C3681 1.392 . S
C3682 C3683 1.385 . S
C3682 C3684 1.478 . S
C3683 H3677 0.930 . S
C3683 C3679 1.400 . S
C3683 C3682 1.385 . S
C3684 C3682 1.478 . S
C3684 C3686 1.381 . S
C3684 C3690 1.383 . S
C3685 C3681 1.495 . S
C3685 H3691 0.959 . S
C3685 H3692 0.961 . S
C3685 H3693 0.960 . S
C3686 C3684 1.381 . S
C3686 C3687 1.394 . S
C3686 H3694 0.930 . S
C3687 C3686 1.394 . S
C3687 C3688 1.383 . S
C3687 H3695 0.929 . S
C3688 C3687 1.383 . S
C3688 C3689 1.377 . S
C3689 H3673 0.930 . S
C3689 C3688 1.377 . S
C3689 C3690 1.379 . S
C3690 H3674 0.931 . S
C3690 C3684 1.383 . S
C3690 C3689 1.379 . S
H3691 C3685 0.959 . S
H3692 C3685 0.961 . S
H3693 C3685 0.960 . S
H3694 C3686 0.930 . S
H3695 C3687 0.929 . S
H3696 C3704 0.929 . S
H3697 C3706 0.930 . S
H3698 C3708 0.930 . S
H3699 C3711 0.929 . S
H3700 C3714 0.930 . S
H3701 C3716 0.960 . S
H3702 C3716 0.960 . S
H3703 C3716 0.960 . S
C3704 H3696 0.929 . S
C3704 C3705 1.377 . S
C3704 C3706 1.384 . S
C3705 C3704 1.377 . S
C3705 C3711 1.390 . S
C3706 H3697 0.930 . S
C3706 C3704 1.384 . S
C3706 C3707 1.372 . S
C3707 C3706 1.372 . S
C3707 C3708 1.400 . S
C3707 C3712 1.490 . S
C3708 H3698 0.930 . S
C3708 C3707 1.400 . S
C3708 C3711 1.386 . S
H3709 C3725 0.930 . S
H3710 C3726 0.931 . S
C3711 H3699 0.929 . S
C3711 C3705 1.390 . S
C3711 C3708 1.386 . S
C3712 C3707 1.490 . S
C3712 C3714 1.395 . S
C3712 C3715 1.403 . S
H3713 C3719 0.930 . S
C3714 H3700 0.930 . S
C3714 C3712 1.395 . S
C3714 C3717 1.403 . S
C3715 C3712 1.403 . S
C3715 C3716 1.524 . S
C3715 C3719 1.400 . S
C3716 H3701 0.960 . S
C3716 H3702 0.960 . S
C3716 H3703 0.960 . S
C3716 C3715 1.524 . S
C3717 C3714 1.403 . S
C3717 C3718 1.392 . S
C3717 C3721 1.495 . S
C3718 C3717 1.392 . S
C3718 C3719 1.385 . S
C3718 C3720 1.478 . S
C3719 H3713 0.930 . S
C3719 C3715 1.400 . S
C3719 C3718 1.385 . S
C3720 C3718 1.478 . S
C3720 C3722 1.381 . S
C3720 C3726 1.383 . S
C3721 C3717 1.495 . S
C3721 H3727 0.959 . S
C3721 H3728 0.961 . S
C3721 H3729 0.960 . S
C3722 C3720 1.381 . S
C3722 C3723 1.394 . S
C3722 H3730 0.930 . S
C3723 C3722 1.394 . S
C3723 C3724 1.383 . S
C3723 H3731 0.929 . S
C3724 C3723 1.383 . S
C3724 C3725 1.377 . S
C3725 H3709 0.930 . S
C3725 C3724 1.377 . S
C3725 C3726 1.379 . S
C3726 H3710 0.931 . S
C3726 C3720 1.383 . S
C3726 C3725 1.379 . S
H3727 C3721 0.959 . S
H3728 C3721 0.961 . S
H3729 C3721 0.960 . S
H3730 C3722 0.930 . S
H3731 C3723 0.929 . S
H3732 C3740 0.929 . S
H3733 C3742 0.930 . S
H3734 C3744 0.930 . S
H3735 C3747 0.929 . S
H3736 C3750 0.930 . S
H3737 C3752 0.960 . S
H3738 C3752 0.960 . S
H3739 C3752 0.960 . S
C3740 H3732 0.929 . S
C3740 C3741 1.377 1_556 S
C3740 C3742 1.384 . S
C3741 C3740 1.377 1_554 S
C3741 C3747 1.390 . S
C3742 H3733 0.930 . S
C3742 C3740 1.384 . S
C3742 C3743 1.372 . S
C3743 C3742 1.372 . S
C3743 C3744 1.400 . S
C3743 C3748 1.490 . S
C3744 H3734 0.930 . S
C3744 C3743 1.400 . S
C3744 C3747 1.386 1_556 S
H3745 C3761 0.930 . S
H3746 C3762 0.931 . S
C3747 H3735 0.929 . S
C3747 C3741 1.390 . S
C3747 C3744 1.386 1_554 S
C3748 C3743 1.490 . S
C3748 C3750 1.395 . S
C3748 C3751 1.403 . S
H3749 C3755 0.930 . S
C3750 H3736 0.930 . S
C3750 C3748 1.395 . S
C3750 C3753 1.403 . S
C3751 C3748 1.403 . S
C3751 C3752 1.524 . S
C3751 C3755 1.400 . S
C3752 H3737 0.960 . S
C3752 H3738 0.960 . S
C3752 H3739 0.960 . S
C3752 C3751 1.524 . S
C3753 C3750 1.403 . S
C3753 C3754 1.392 . S
C3753 C3757 1.495 . S
C3754 C3753 1.392 . S
C3754 C3755 1.385 . S
C3754 C3756 1.478 . S
C3755 H3749 0.930 . S
C3755 C3751 1.400 . S
C3755 C3754 1.385 . S
C3756 C3754 1.478 . S
C3756 C3758 1.381 . S
C3756 C3762 1.383 . S
C3757 C3753 1.495 . S
C3757 H3763 0.959 . S
C3757 H3764 0.961 . S
C3757 H3765 0.960 . S
C3758 C3756 1.381 . S
C3758 C3759 1.394 . S
C3758 H3766 0.930 . S
C3759 C3758 1.394 . S
C3759 C3760 1.383 . S
C3759 H3767 0.929 . S
C3760 C3759 1.383 . S
C3760 C3761 1.377 . S
C3761 H3745 0.930 . S
C3761 C3760 1.377 . S
C3761 C3762 1.379 . S
C3762 H3746 0.931 . S
C3762 C3756 1.383 . S
C3762 C3761 1.379 . S
H3763 C3757 0.959 . S
H3764 C3757 0.961 . S
H3765 C3757 0.960 . S
H3766 C3758 0.930 . S
H3767 C3759 0.929 . S
H3768 C3776 0.929 . S
H3769 C3778 0.930 . S
H3770 C3780 0.930 . S
H3771 C3783 0.929 . S
H3772 C3786 0.930 . S
H3773 C3788 0.960 . S
H3774 C3788 0.960 . S
H3775 C3788 0.960 . S
C3776 H3768 0.929 . S
C3776 C3777 1.377 . S
C3776 C3778 1.384 . S
C3777 C3776 1.377 . S
C3777 C3783 1.390 . S
C3778 H3769 0.930 . S
C3778 C3776 1.384 . S
C3778 C3779 1.372 . S
C3779 C3778 1.372 . S
C3779 C3780 1.400 . S
C3779 C3784 1.490 . S
C3780 H3770 0.930 . S
C3780 C3779 1.400 . S
C3780 C3783 1.386 . S
H3781 C3797 0.930 . S
H3782 C3798 0.931 . S
C3783 H3771 0.929 . S
C3783 C3777 1.390 . S
C3783 C3780 1.386 . S
C3784 C3779 1.490 . S
C3784 C3786 1.395 . S
C3784 C3787 1.403 . S
H3785 C3791 0.930 . S
C3786 H3772 0.930 . S
C3786 C3784 1.395 . S
C3786 C3789 1.403 . S
C3787 C3784 1.403 . S
C3787 C3788 1.524 . S
C3787 C3791 1.400 . S
C3788 H3773 0.960 . S
C3788 H3774 0.960 . S
C3788 H3775 0.960 . S
C3788 C3787 1.524 . S
C3789 C3786 1.403 . S
C3789 C3790 1.392 . S
C3789 C3793 1.495 . S
C3790 C3789 1.392 . S
C3790 C3791 1.385 . S
C3790 C3792 1.478 . S
C3791 H3785 0.930 . S
C3791 C3787 1.400 . S
C3791 C3790 1.385 . S
C3792 C3790 1.478 . S
C3792 C3794 1.381 . S
C3792 C3798 1.383 . S
C3793 C3789 1.495 . S
C3793 H3799 0.959 . S
C3793 H3800 0.961 . S
C3793 H3801 0.960 . S
C3794 C3792 1.381 . S
C3794 C3795 1.394 . S
C3794 H3802 0.930 . S
C3795 C3794 1.394 . S
C3795 C3796 1.383 . S
C3795 H3803 0.929 . S
C3796 C3795 1.383 . S
C3796 C3797 1.377 . S
C3797 H3781 0.930 . S
C3797 C3796 1.377 . S
C3797 C3798 1.379 . S
C3798 H3782 0.931 . S
C3798 C3792 1.383 . S
C3798 C3797 1.379 . S
H3799 C3793 0.959 . S
H3800 C3793 0.961 . S
H3801 C3793 0.960 . S
H3802 C3794 0.930 . S
H3803 C3795 0.929 . S
H3804 C3812 0.929 . S
H3805 C3814 0.930 . S
H3806 C3816 0.930 . S
H3807 C3819 0.929 . S
H3808 C3822 0.930 . S
H3809 C3824 0.960 . S
H3810 C3824 0.960 . S
H3811 C3824 0.960 . S
C3812 H3804 0.929 . S
C3812 C3813 1.377 . S
C3812 C3814 1.384 . S
C3813 C3812 1.377 . S
C3813 C3819 1.390 . S
C3814 H3805 0.930 . S
C3814 C3812 1.384 . S
C3814 C3815 1.372 . S
C3815 C3814 1.372 . S
C3815 C3816 1.400 . S
C3815 C3820 1.490 . S
C3816 H3806 0.930 . S
C3816 C3815 1.400 . S
C3816 C3819 1.386 . S
H3817 C3833 0.930 . S
H3818 C3834 0.931 . S
C3819 H3807 0.929 . S
C3819 C3813 1.390 . S
C3819 C3816 1.386 . S
C3820 C3815 1.490 . S
C3820 C3822 1.395 . S
C3820 C3823 1.403 . S
H3821 C3827 0.930 . S
C3822 H3808 0.930 . S
C3822 C3820 1.395 . S
C3822 C3825 1.403 . S
C3823 C3820 1.403 . S
C3823 C3824 1.524 . S
C3823 C3827 1.400 . S
C3824 H3809 0.960 . S
C3824 H3810 0.960 . S
C3824 H3811 0.960 . S
C3824 C3823 1.524 . S
C3825 C3822 1.403 . S
C3825 C3826 1.392 . S
C3825 C3829 1.495 . S
C3826 C3825 1.392 . S
C3826 C3827 1.385 . S
C3826 C3828 1.478 . S
C3827 H3821 0.930 . S
C3827 C3823 1.400 . S
C3827 C3826 1.385 . S
C3828 C3826 1.478 . S
C3828 C3830 1.381 . S
C3828 C3834 1.383 . S
C3829 C3825 1.495 . S
C3829 H3835 0.959 . S
C3829 H3836 0.961 . S
C3829 H3837 0.960 . S
C3830 C3828 1.381 . S
C3830 C3831 1.394 . S
C3830 H3838 0.930 . S
C3831 C3830 1.394 . S
C3831 C3832 1.383 . S
C3831 H3839 0.929 . S
C3832 C3831 1.383 . S
C3832 C3833 1.377 . S
C3833 H3817 0.930 . S
C3833 C3832 1.377 . S
C3833 C3834 1.379 . S
C3834 H3818 0.931 . S
C3834 C3828 1.383 . S
C3834 C3833 1.379 . S
H3835 C3829 0.959 . S
H3836 C3829 0.961 . S
H3837 C3829 0.960 . S
H3838 C3830 0.930 . S
H3839 C3831 0.929 . S
H3840 C3848 0.929 . S
H3841 C3850 0.930 . S
H3842 C3852 0.930 . S
H3843 C3855 0.929 . S
H3844 C3858 0.930 . S
H3845 C3860 0.960 . S
H3846 C3860 0.960 . S
H3847 C3860 0.960 . S
C3848 H3840 0.929 . S
C3848 C3849 1.377 . S
C3848 C3850 1.384 . S
C3849 C3848 1.377 . S
C3849 C3855 1.390 . S
C3850 H3841 0.930 . S
C3850 C3848 1.384 . S
C3850 C3851 1.372 . S
C3851 C3850 1.372 . S
C3851 C3852 1.400 . S
C3851 C3856 1.490 . S
C3852 H3842 0.930 . S
C3852 C3851 1.400 . S
C3852 C3855 1.386 . S
H3853 C3869 0.930 . S
H3854 C3870 0.931 . S
C3855 H3843 0.929 . S
C3855 C3849 1.390 . S
C3855 C3852 1.386 . S
C3856 C3851 1.490 . S
C3856 C3858 1.395 . S
C3856 C3859 1.403 . S
H3857 C3863 0.930 . S
C3858 H3844 0.930 . S
C3858 C3856 1.395 . S
C3858 C3861 1.403 . S
C3859 C3856 1.403 . S
C3859 C3860 1.524 . S
C3859 C3863 1.400 . S
C3860 H3845 0.960 . S
C3860 H3846 0.960 . S
C3860 H3847 0.960 . S
C3860 C3859 1.524 . S
C3861 C3858 1.403 . S
C3861 C3862 1.392 . S
C3861 C3865 1.495 . S
C3862 C3861 1.392 . S
C3862 C3863 1.385 . S
C3862 C3864 1.478 . S
C3863 H3857 0.930 . S
C3863 C3859 1.400 . S
C3863 C3862 1.385 . S
C3864 C3862 1.478 . S
C3864 C3866 1.381 . S
C3864 C3870 1.383 . S
C3865 C3861 1.495 . S
C3865 H3871 0.959 . S
C3865 H3872 0.961 . S
C3865 H3873 0.960 . S
C3866 C3864 1.381 . S
C3866 C3867 1.394 . S
C3866 H3874 0.930 . S
C3867 C3866 1.394 . S
C3867 C3868 1.383 . S
C3867 H3875 0.929 . S
C3868 C3867 1.383 . S
C3868 C3869 1.377 . S
C3869 H3853 0.930 . S
C3869 C3868 1.377 . S
C3869 C3870 1.379 . S
C3870 H3854 0.931 . S
C3870 C3864 1.383 . S
C3870 C3869 1.379 . S
H3871 C3865 0.959 . S
H3872 C3865 0.961 . S
H3873 C3865 0.960 . S
H3874 C3866 0.930 . S
H3875 C3867 0.929 . S
H3876 C3884 0.929 . S
H3877 C3886 0.930 . S
H3878 C3888 0.930 . S
H3879 C3891 0.929 . S
H3880 C3894 0.930 . S
H3881 C3896 0.960 . S
H3882 C3896 0.960 . S
H3883 C3896 0.960 . S
C3884 H3876 0.929 . S
C3884 C3885 1.377 . S
C3884 C3886 1.384 . S
C3885 C3884 1.377 . S
C3885 C3891 1.390 . S
C3886 H3877 0.930 . S
C3886 C3884 1.384 . S
C3886 C3887 1.372 . S
C3887 C3886 1.372 . S
C3887 C3888 1.400 . S
C3887 C3892 1.490 . S
C3888 H3878 0.930 . S
C3888 C3887 1.400 . S
C3888 C3891 1.386 . S
H3889 C3905 0.930 . S
H3890 C3906 0.931 . S
C3891 H3879 0.929 . S
C3891 C3885 1.390 . S
C3891 C3888 1.386 . S
C3892 C3887 1.490 . S
C3892 C3894 1.395 . S
C3892 C3895 1.403 . S
H3893 C3899 0.930 . S
C3894 H3880 0.930 . S
C3894 C3892 1.395 . S
C3894 C3897 1.403 . S
C3895 C3892 1.403 . S
C3895 C3896 1.524 . S
C3895 C3899 1.400 . S
C3896 H3881 0.960 . S
C3896 H3882 0.960 . S
C3896 H3883 0.960 . S
C3896 C3895 1.524 . S
C3897 C3894 1.403 . S
C3897 C3898 1.392 . S
C3897 C3901 1.495 . S
C3898 C3897 1.392 . S
C3898 C3899 1.385 . S
C3898 C3900 1.478 . S
C3899 H3893 0.930 . S
C3899 C3895 1.400 . S
C3899 C3898 1.385 . S
C3900 C3898 1.478 . S
C3900 C3902 1.381 . S
C3900 C3906 1.383 . S
C3901 C3897 1.495 . S
C3901 H3907 0.959 . S
C3901 H3908 0.961 . S
C3901 H3909 0.960 . S
C3902 C3900 1.381 . S
C3902 C3903 1.394 . S
C3902 H3910 0.930 . S
C3903 C3902 1.394 . S
C3903 C3904 1.383 . S
C3903 H3911 0.929 . S
C3904 C3903 1.383 . S
C3904 C3905 1.377 . S
C3905 H3889 0.930 . S
C3905 C3904 1.377 . S
C3905 C3906 1.379 . S
C3906 H3890 0.931 . S
C3906 C3900 1.383 . S
C3906 C3905 1.379 . S
H3907 C3901 0.959 . S
H3908 C3901 0.961 . S
H3909 C3901 0.960 . S
H3910 C3902 0.930 . S
H3911 C3903 0.929 . S
H3912 C3920 0.929 . S
H3913 C3922 0.930 . S
H3914 C3924 0.930 . S
H3915 C3927 0.929 . S
H3916 C3930 0.930 . S
H3917 C3932 0.960 . S
H3918 C3932 0.960 . S
H3919 C3932 0.960 . S
C3920 H3912 0.929 . S
C3920 C3921 1.377 . S
C3920 C3922 1.384 . S
C3921 C3920 1.377 . S
C3921 C3927 1.390 . S
C3922 H3913 0.930 . S
C3922 C3920 1.384 . S
C3922 C3923 1.372 . S
C3923 C3922 1.372 . S
C3923 C3924 1.400 . S
C3923 C3928 1.490 . S
C3924 H3914 0.930 . S
C3924 C3923 1.400 . S
C3924 C3927 1.386 . S
H3925 C3941 0.930 . S
H3926 C3942 0.931 . S
C3927 H3915 0.929 . S
C3927 C3921 1.390 . S
C3927 C3924 1.386 . S
C3928 C3923 1.490 . S
C3928 C3930 1.395 . S
C3928 C3931 1.403 . S
H3929 C3935 0.930 . S
C3930 H3916 0.930 . S
C3930 C3928 1.395 . S
C3930 C3933 1.403 . S
C3931 C3928 1.403 . S
C3931 C3932 1.524 . S
C3931 C3935 1.400 . S
C3932 H3917 0.960 . S
C3932 H3918 0.960 . S
C3932 H3919 0.960 . S
C3932 C3931 1.524 . S
C3933 C3930 1.403 . S
C3933 C3934 1.392 . S
C3933 C3937 1.495 . S
C3934 C3933 1.392 . S
C3934 C3935 1.385 . S
C3934 C3936 1.478 . S
C3935 H3929 0.930 . S
C3935 C3931 1.400 . S
C3935 C3934 1.385 . S
C3936 C3934 1.478 . S
C3936 C3938 1.381 . S
C3936 C3942 1.383 . S
C3937 C3933 1.495 . S
C3937 H3943 0.959 . S
C3937 H3944 0.961 . S
C3937 H3945 0.960 . S
C3938 C3936 1.381 . S
C3938 C3939 1.394 . S
C3938 H3946 0.930 . S
C3939 C3938 1.394 . S
C3939 C3940 1.383 . S
C3939 H3947 0.929 . S
C3940 C3939 1.383 . S
C3940 C3941 1.377 . S
C3941 H3925 0.930 . S
C3941 C3940 1.377 . S
C3941 C3942 1.379 . S
C3942 H3926 0.931 . S
C3942 C3936 1.383 . S
C3942 C3941 1.379 . S
H3943 C3937 0.959 . S
H3944 C3937 0.961 . S
H3945 C3937 0.960 . S
H3946 C3938 0.930 . S
H3947 C3939 0.929 . S
H3948 C3956 0.929 . S
H3949 C3958 0.930 . S
H3950 C3960 0.930 . S
H3951 C3963 0.929 . S
H3952 C3966 0.930 . S
H3953 C3968 0.960 . S
H3954 C3968 0.960 . S
H3955 C3968 0.960 . S
C3956 H3948 0.929 . S
C3956 C3957 1.377 . S
C3956 C3958 1.384 . S
C3957 C3956 1.377 . S
C3957 C3963 1.390 . S
C3958 H3949 0.930 . S
C3958 C3956 1.384 . S
C3958 C3959 1.372 . S
C3959 C3958 1.372 . S
C3959 C3960 1.400 . S
C3959 C3964 1.490 . S
C3960 H3950 0.930 . S
C3960 C3959 1.400 . S
C3960 C3963 1.386 . S
H3961 C3977 0.930 . S
H3962 C3978 0.931 . S
C3963 H3951 0.929 . S
C3963 C3957 1.390 . S
C3963 C3960 1.386 . S
C3964 C3959 1.490 . S
C3964 C3966 1.395 . S
C3964 C3967 1.403 . S
H3965 C3971 0.930 . S
C3966 H3952 0.930 . S
C3966 C3964 1.395 . S
C3966 C3969 1.403 . S
C3967 C3964 1.403 . S
C3967 C3968 1.524 . S
C3967 C3971 1.400 . S
C3968 H3953 0.960 . S
C3968 H3954 0.960 . S
C3968 H3955 0.960 . S
C3968 C3967 1.524 . S
C3969 C3966 1.403 . S
C3969 C3970 1.392 . S
C3969 C3973 1.495 . S
C3970 C3969 1.392 . S
C3970 C3971 1.385 . S
C3970 C3972 1.478 . S
C3971 H3965 0.930 . S
C3971 C3967 1.400 . S
C3971 C3970 1.385 . S
C3972 C3970 1.478 . S
C3972 C3974 1.381 . S
C3972 C3978 1.383 . S
C3973 C3969 1.495 . S
C3973 H3979 0.959 . S
C3973 H3980 0.961 . S
C3973 H3981 0.960 . S
C3974 C3972 1.381 . S
C3974 C3975 1.394 . S
C3974 H3982 0.930 . S
C3975 C3974 1.394 . S
C3975 C3976 1.383 . S
C3975 H3983 0.929 . S
C3976 C3975 1.383 . S
C3976 C3977 1.377 . S
C3977 H3961 0.930 . S
C3977 C3976 1.377 . S
C3977 C3978 1.379 . S
C3978 H3962 0.931 . S
C3978 C3972 1.383 . S
C3978 C3977 1.379 . S
H3979 C3973 0.959 . S
H3980 C3973 0.961 . S
H3981 C3973 0.960 . S
H3982 C3974 0.930 . S
H3983 C3975 0.929 . S
H3984 C3992 0.929 . S
H3985 C3994 0.930 . S
H3986 C3996 0.930 . S
H3987 C3999 0.929 . S
H3988 C4002 0.930 . S
H3989 C4004 0.960 . S
H3990 C4004 0.960 . S
H3991 C4004 0.960 . S
C3992 H3984 0.929 . S
C3992 C3993 1.377 . S
C3992 C3994 1.384 . S
C3993 C3992 1.377 . S
C3993 C3999 1.390 . S
C3994 H3985 0.930 . S
C3994 C3992 1.384 . S
C3994 C3995 1.372 . S
C3995 C3994 1.372 . S
C3995 C3996 1.400 . S
C3995 C4000 1.490 . S
C3996 H3986 0.930 . S
C3996 C3995 1.400 . S
C3996 C3999 1.386 . S
H3997 C4013 0.930 . S
H3998 C4014 0.931 . S
C3999 H3987 0.929 . S
C3999 C3993 1.390 . S
C3999 C3996 1.386 . S
C4000 C3995 1.490 . S
C4000 C4002 1.395 . S
C4000 C4003 1.403 . S
H4001 C4007 0.930 . S
C4002 H3988 0.930 . S
C4002 C4000 1.395 . S
C4002 C4005 1.403 . S
C4003 C4000 1.403 . S
C4003 C4004 1.524 . S
C4003 C4007 1.400 . S
C4004 H3989 0.960 . S
C4004 H3990 0.960 . S
C4004 H3991 0.960 . S
C4004 C4003 1.524 . S
C4005 C4002 1.403 . S
C4005 C4006 1.392 . S
C4005 C4009 1.495 . S
C4006 C4005 1.392 . S
C4006 C4007 1.385 . S
C4006 C4008 1.478 . S
C4007 H4001 0.930 . S
C4007 C4003 1.400 . S
C4007 C4006 1.385 . S
C4008 C4006 1.478 . S
C4008 C4010 1.381 . S
C4008 C4014 1.383 . S
C4009 C4005 1.495 . S
C4009 H4015 0.959 . S
C4009 H4016 0.961 . S
C4009 H4017 0.960 . S
C4010 C4008 1.381 . S
C4010 C4011 1.394 . S
C4010 H4018 0.930 . S
C4011 C4010 1.394 . S
C4011 C4012 1.383 . S
C4011 H4019 0.929 . S
C4012 C4011 1.383 . S
C4012 C4013 1.377 . S
C4013 H3997 0.930 . S
C4013 C4012 1.377 . S
C4013 C4014 1.379 . S
C4014 H3998 0.931 . S
C4014 C4008 1.383 . S
C4014 C4013 1.379 . S
H4015 C4009 0.959 . S
H4016 C4009 0.961 . S
H4017 C4009 0.960 . S
H4018 C4010 0.930 . S
H4019 C4011 0.929 . S
H4020 C4028 0.929 . S
H4021 C4030 0.930 . S
H4022 C4032 0.930 . S
H4023 C4035 0.929 . S
H4024 C4038 0.930 . S
H4025 C4040 0.960 . S
H4026 C4040 0.960 . S
H4027 C4040 0.960 . S
C4028 H4020 0.929 . S
C4028 C4029 1.377 . S
C4028 C4030 1.384 . S
C4029 C4028 1.377 . S
C4029 C4035 1.390 . S
C4030 H4021 0.930 . S
C4030 C4028 1.384 . S
C4030 C4031 1.372 . S
C4031 C4030 1.372 . S
C4031 C4032 1.400 . S
C4031 C4036 1.490 . S
C4032 H4022 0.930 . S
C4032 C4031 1.400 . S
C4032 C4035 1.386 . S
H4033 C4049 0.930 . S
H4034 C4050 0.931 . S
C4035 H4023 0.929 . S
C4035 C4029 1.390 . S
C4035 C4032 1.386 . S
C4036 C4031 1.490 . S
C4036 C4038 1.395 . S
C4036 C4039 1.403 . S
H4037 C4043 0.930 . S
C4038 H4024 0.930 . S
C4038 C4036 1.395 . S
C4038 C4041 1.403 . S
C4039 C4036 1.403 . S
C4039 C4040 1.524 . S
C4039 C4043 1.400 . S
C4040 H4025 0.960 . S
C4040 H4026 0.960 . S
C4040 H4027 0.960 . S
C4040 C4039 1.524 . S
C4041 C4038 1.403 . S
C4041 C4042 1.392 . S
C4041 C4045 1.495 . S
C4042 C4041 1.392 . S
C4042 C4043 1.385 . S
C4042 C4044 1.478 . S
C4043 H4037 0.930 . S
C4043 C4039 1.400 . S
C4043 C4042 1.385 . S
C4044 C4042 1.478 . S
C4044 C4046 1.381 . S
C4044 C4050 1.383 . S
C4045 C4041 1.495 . S
C4045 H4051 0.959 . S
C4045 H4052 0.961 . S
C4045 H4053 0.960 . S
C4046 C4044 1.381 . S
C4046 C4047 1.394 . S
C4046 H4054 0.930 . S
C4047 C4046 1.394 . S
C4047 C4048 1.383 . S
C4047 H4055 0.929 . S
C4048 C4047 1.383 . S
C4048 C4049 1.377 . S
C4049 H4033 0.930 . S
C4049 C4048 1.377 . S
C4049 C4050 1.379 . S
C4050 H4034 0.931 . S
C4050 C4044 1.383 . S
C4050 C4049 1.379 . S
H4051 C4045 0.959 . S
H4052 C4045 0.961 . S
H4053 C4045 0.960 . S
H4054 C4046 0.930 . S
H4055 C4047 0.929 . S
H4056 C4064 0.929 . S
H4057 C4066 0.930 . S
H4058 C4068 0.930 . S
H4059 C4071 0.929 . S
H4060 C4074 0.930 . S
H4061 C4076 0.960 . S
H4062 C4076 0.960 . S
H4063 C4076 0.960 . S
C4064 H4056 0.929 . S
C4064 C4065 1.377 . S
C4064 C4066 1.384 . S
C4065 C4064 1.377 . S
C4065 C4071 1.390 . S
C4066 H4057 0.930 . S
C4066 C4064 1.384 . S
C4066 C4067 1.372 . S
C4067 C4066 1.372 . S
C4067 C4068 1.400 . S
C4067 C4072 1.490 . S
C4068 H4058 0.930 . S
C4068 C4067 1.400 . S
C4068 C4071 1.386 . S
H4069 C4085 0.930 . S
H4070 C4086 0.931 . S
C4071 H4059 0.929 . S
C4071 C4065 1.390 . S
C4071 C4068 1.386 . S
C4072 C4067 1.490 . S
C4072 C4074 1.395 . S
C4072 C4075 1.403 . S
H4073 C4079 0.930 . S
C4074 H4060 0.930 . S
C4074 C4072 1.395 . S
C4074 C4077 1.403 . S
C4075 C4072 1.403 . S
C4075 C4076 1.524 . S
C4075 C4079 1.400 . S
C4076 H4061 0.960 . S
C4076 H4062 0.960 . S
C4076 H4063 0.960 . S
C4076 C4075 1.524 . S
C4077 C4074 1.403 . S
C4077 C4078 1.392 . S
C4077 C4081 1.495 . S
C4078 C4077 1.392 . S
C4078 C4079 1.385 . S
C4078 C4080 1.478 . S
C4079 H4073 0.930 . S
C4079 C4075 1.400 . S
C4079 C4078 1.385 . S
C4080 C4078 1.478 . S
C4080 C4082 1.381 . S
C4080 C4086 1.383 . S
C4081 C4077 1.495 . S
C4081 H4087 0.959 . S
C4081 H4088 0.961 . S
C4081 H4089 0.960 . S
C4082 C4080 1.381 . S
C4082 C4083 1.394 . S
C4082 H4090 0.930 . S
C4083 C4082 1.394 . S
C4083 C4084 1.383 . S
C4083 H4091 0.929 . S
C4084 C4083 1.383 . S
C4084 C4085 1.377 . S
C4085 H4069 0.930 . S
C4085 C4084 1.377 . S
C4085 C4086 1.379 . S
C4086 H4070 0.931 . S
C4086 C4080 1.383 . S
C4086 C4085 1.379 . S
H4087 C4081 0.959 . S
H4088 C4081 0.961 . S
H4089 C4081 0.960 . S
H4090 C4082 0.930 . S
H4091 C4083 0.929 . S
H4092 C4100 0.929 . S
H4093 C4102 0.930 . S
H4094 C4104 0.930 . S
H4095 C4107 0.929 . S
H4096 C4110 0.933 . S
H4097 C4112 0.960 . S
H4098 C4112 0.960 . S
H4099 C4112 0.960 . S
C4100 H4092 0.929 . S
C4100 C4101 1.377 1_556 S
C4100 C4102 1.384 . S
C4101 C4100 1.377 1_554 S
C4101 C4107 1.390 . S
C4102 H4093 0.930 . S
C4102 C4100 1.384 . S
C4102 C4103 1.372 1_556 S
C4103 C4102 1.372 1_554 S
C4103 C4104 1.400 . S
C4103 C4108 1.490 . S
C4104 H4094 0.930 . S
C4104 C4103 1.400 . S
C4104 C4107 1.386 . S
H4105 C4121 0.930 . S
H4106 C4122 0.931 . S
C4107 H4095 0.929 . S
C4107 C4101 1.390 . S
C4107 C4104 1.386 . S
C4108 C4103 1.490 . S
C4108 C4110 1.390 1_554 S
C4108 C4111 1.403 . S
H4109 C4115 0.930 . S
C4110 H4096 0.933 . S
C4110 C4108 1.390 1_556 S
C4110 C4113 1.410 1_556 S
C4111 C4108 1.403 . S
C4111 C4112 1.524 . S
C4111 C4115 1.400 . S
C4112 H4097 0.960 . S
C4112 H4098 0.960 . S
C4112 H4099 0.960 . S
C4112 C4111 1.524 . S
C4113 C4110 1.410 1_554 S
C4113 C4114 1.401 . S
C4113 C4117 1.483 1_564 S
C4114 C4113 1.401 . S
C4114 C4115 1.385 . S
C4114 C4116 1.478 . S
C4115 H4109 0.930 . S
C4115 C4111 1.400 . S
C4115 C4114 1.385 . S
C4116 C4114 1.478 . S
C4116 C4118 1.376 1_564 S
C4116 C4122 1.383 . S
C4117 C4113 1.483 1_546 S
C4117 H4123 0.959 . S
C4117 H4124 0.961 1_556 S
C4117 H4125 0.960 . S
C4118 C4116 1.376 1_546 S
C4118 C4119 1.399 . S
C4118 H4126 0.931 1_545 S
C4119 C4118 1.399 . S
C4119 C4120 1.383 1_556 S
C4119 H4127 0.929 . S
C4120 C4119 1.383 1_554 S
C4120 C4121 1.377 . S
C4121 H4105 0.930 . S
C4121 C4120 1.377 . S
C4121 C4122 1.379 1_545 S
C4122 H4106 0.931 . S
C4122 C4116 1.383 . S
C4122 C4121 1.379 1_565 S
H4123 C4117 0.959 . S
H4124 C4117 0.961 1_554 S
H4125 C4117 0.960 . S
H4126 C4118 0.931 1_565 S
H4127 C4119 0.929 . S
H4128 C4136 0.929 . S
H4129 C4138 0.930 . S
H4130 C4140 0.930 . S
H4131 C4143 0.929 . S
H4132 C4146 0.930 . S
H4133 C4148 0.960 . S
H4134 C4148 0.960 . S
H4135 C4148 0.960 . S
C4136 H4128 0.929 . S
C4136 C4137 1.377 . S
C4136 C4138 1.384 . S
C4137 C4136 1.377 . S
C4137 C4143 1.390 . S
C4138 H4129 0.930 . S
C4138 C4136 1.384 . S
C4138 C4139 1.372 . S
C4139 C4138 1.372 . S
C4139 C4140 1.400 . S
C4139 C4144 1.490 . S
C4140 H4130 0.930 . S
C4140 C4139 1.400 . S
C4140 C4143 1.386 . S
H4141 C4157 0.930 . S
H4142 C4158 0.931 . S
C4143 H4131 0.929 . S
C4143 C4137 1.390 . S
C4143 C4140 1.386 . S
C4144 C4139 1.490 . S
C4144 C4146 1.395 . S
C4144 C4147 1.403 . S
H4145 C4151 0.930 . S
C4146 H4132 0.930 . S
C4146 C4144 1.395 . S
C4146 C4149 1.403 . S
C4147 C4144 1.403 . S
C4147 C4148 1.524 . S
C4147 C4151 1.400 . S
C4148 H4133 0.960 . S
C4148 H4134 0.960 . S
C4148 H4135 0.960 . S
C4148 C4147 1.524 . S
C4149 C4146 1.403 . S
C4149 C4150 1.392 . S
C4149 C4153 1.495 . S
C4150 C4149 1.392 . S
C4150 C4151 1.385 . S
C4150 C4152 1.478 . S
C4151 H4145 0.930 . S
C4151 C4147 1.400 . S
C4151 C4150 1.385 . S
C4152 C4150 1.478 . S
C4152 C4154 1.381 . S
C4152 C4158 1.383 . S
C4153 C4149 1.495 . S
C4153 H4159 0.959 . S
C4153 H4160 0.961 . S
C4153 H4161 0.960 . S
C4154 C4152 1.381 . S
C4154 C4155 1.394 . S
C4154 H4162 0.930 . S
C4155 C4154 1.394 . S
C4155 C4156 1.383 . S
C4155 H4163 0.929 . S
C4156 C4155 1.383 . S
C4156 C4157 1.377 . S
C4157 H4141 0.930 . S
C4157 C4156 1.377 . S
C4157 C4158 1.379 . S
C4158 H4142 0.931 . S
C4158 C4152 1.383 . S
C4158 C4157 1.379 . S
H4159 C4153 0.959 . S
H4160 C4153 0.961 . S
H4161 C4153 0.960 . S
H4162 C4154 0.930 . S
H4163 C4155 0.929 . S
H4164 C4172 0.929 . S
H4165 C4174 0.930 . S
H4166 C4176 0.930 . S
H4167 C4179 0.929 . S
H4168 C4182 0.930 1_556 S
H4169 C4184 0.960 . S
H4170 C4184 0.960 . S
H4171 C4184 0.960 . S
C4172 H4164 0.929 . S
C4172 C4173 1.377 . S
C4172 C4174 1.384 . S
C4173 C4172 1.377 . S
C4173 C4179 1.390 . S
C4174 H4165 0.930 . S
C4174 C4172 1.384 . S
C4174 C4175 1.372 . S
C4175 C4174 1.372 . S
C4175 C4176 1.400 . S
C4175 C4180 1.490 . S
C4176 H4166 0.930 . S
C4176 C4175 1.400 . S
C4176 C4179 1.386 . S
H4177 C4193 0.930 . S
H4178 C4194 0.931 . S
C4179 H4167 0.929 . S
C4179 C4173 1.390 . S
C4179 C4176 1.386 . S
C4180 C4175 1.490 . S
C4180 C4182 1.395 . S
C4180 C4183 1.403 . S
H4181 C4187 0.930 . S
C4182 H4168 0.930 1_554 S
C4182 C4180 1.395 . S
C4182 C4185 1.403 . S
C4183 C4180 1.403 . S
C4183 C4184 1.524 . S
C4183 C4187 1.400 . S
C4184 H4169 0.960 . S
C4184 H4170 0.960 . S
C4184 H4171 0.960 . S
C4184 C4183 1.524 . S
C4185 C4182 1.403 . S
C4185 C4186 1.392 . S
C4185 C4189 1.495 1_554 S
C4186 C4185 1.392 . S
C4186 C4187 1.385 . S
C4186 C4188 1.478 . S
C4187 H4181 0.930 . S
C4187 C4183 1.400 . S
C4187 C4186 1.385 . S
C4188 C4186 1.478 . S
C4188 C4190 1.381 . S
C4188 C4194 1.383 . S
C4189 C4185 1.495 1_556 S
C4189 H4195 0.959 . S
C4189 H4196 0.961 . S
C4189 H4197 0.960 . S
C4190 C4188 1.381 . S
C4190 C4191 1.394 . S
C4190 H4198 0.930 . S
C4191 C4190 1.394 . S
C4191 C4192 1.383 . S
C4191 H4199 0.929 . S
C4192 C4191 1.383 . S
C4192 C4193 1.377 . S
C4193 H4177 0.930 . S
C4193 C4192 1.377 . S
C4193 C4194 1.379 . S
C4194 H4178 0.931 . S
C4194 C4188 1.383 . S
C4194 C4193 1.379 . S
H4195 C4189 0.959 . S
H4196 C4189 0.961 . S
H4197 C4189 0.960 . S
H4198 C4190 0.930 . S
H4199 C4191 0.929 . S
H4200 C4208 0.929 . S
H4201 C4210 0.930 . S
H4202 C4212 0.930 . S
H4203 C4215 0.929 . S
H4204 C4218 0.930 . S
H4205 C4220 0.960 . S
H4206 C4220 0.960 . S
H4207 C4220 0.960 . S
C4208 H4200 0.929 . S
C4208 C4209 1.377 . S
C4208 C4210 1.384 . S
C4209 C4208 1.377 . S
C4209 C4215 1.390 . S
C4210 H4201 0.930 . S
C4210 C4208 1.384 . S
C4210 C4211 1.372 . S
C4211 C4210 1.372 . S
C4211 C4212 1.400 . S
C4211 C4216 1.490 . S
C4212 H4202 0.930 . S
C4212 C4211 1.400 . S
C4212 C4215 1.386 . S
H4213 C4229 0.930 . S
H4214 C4230 0.931 . S
C4215 H4203 0.929 . S
C4215 C4209 1.390 . S
C4215 C4212 1.386 . S
C4216 C4211 1.490 . S
C4216 C4218 1.395 . S
C4216 C4219 1.403 . S
H4217 C4223 0.930 . S
C4218 H4204 0.930 . S
C4218 C4216 1.395 . S
C4218 C4221 1.403 . S
C4219 C4216 1.403 . S
C4219 C4220 1.524 . S
C4219 C4223 1.400 . S
C4220 H4205 0.960 . S
C4220 H4206 0.960 . S
C4220 H4207 0.960 . S
C4220 C4219 1.524 . S
C4221 C4218 1.403 . S
C4221 C4222 1.392 . S
C4221 C4225 1.495 . S
C4222 C4221 1.392 . S
C4222 C4223 1.385 . S
C4222 C4224 1.478 . S
C4223 H4217 0.930 . S
C4223 C4219 1.400 . S
C4223 C4222 1.385 . S
C4224 C4222 1.478 . S
C4224 C4226 1.381 . S
C4224 C4230 1.383 . S
C4225 C4221 1.495 . S
C4225 H4231 0.959 . S
C4225 H4232 0.961 . S
C4225 H4233 0.960 . S
C4226 C4224 1.381 . S
C4226 C4227 1.394 . S
C4226 H4234 0.930 . S
C4227 C4226 1.394 . S
C4227 C4228 1.383 . S
C4227 H4235 0.929 . S
C4228 C4227 1.383 . S
C4228 C4229 1.377 . S
C4229 H4213 0.930 . S
C4229 C4228 1.377 . S
C4229 C4230 1.379 . S
C4230 H4214 0.931 . S
C4230 C4224 1.383 . S
C4230 C4229 1.379 . S
H4231 C4225 0.959 . S
H4232 C4225 0.961 . S
H4233 C4225 0.960 . S
H4234 C4226 0.930 . S
H4235 C4227 0.929 . S
H4236 C4244 0.929 . S
H4237 C4246 0.930 . S
H4238 C4248 0.930 . S
H4239 C4251 0.929 . S
H4240 C4254 0.930 . S
H4241 C4256 0.960 . S
H4242 C4256 0.960 . S
H4243 C4256 0.960 . S
C4244 H4236 0.929 . S
C4244 C4245 1.377 . S
C4244 C4246 1.384 . S
C4245 C4244 1.377 . S
C4245 C4251 1.390 . S
C4246 H4237 0.930 . S
C4246 C4244 1.384 . S
C4246 C4247 1.372 . S
C4247 C4246 1.372 . S
C4247 C4248 1.400 . S
C4247 C4252 1.490 . S
C4248 H4238 0.930 . S
C4248 C4247 1.400 . S
C4248 C4251 1.386 . S
H4249 C4265 0.930 . S
H4250 C4266 0.931 . S
C4251 H4239 0.929 . S
C4251 C4245 1.390 . S
C4251 C4248 1.386 . S
C4252 C4247 1.490 . S
C4252 C4254 1.395 . S
C4252 C4255 1.403 . S
H4253 C4259 0.930 . S
C4254 H4240 0.930 . S
C4254 C4252 1.395 . S
C4254 C4257 1.403 . S
C4255 C4252 1.403 . S
C4255 C4256 1.524 . S
C4255 C4259 1.400 . S
C4256 H4241 0.960 . S
C4256 H4242 0.960 . S
C4256 H4243 0.960 . S
C4256 C4255 1.524 . S
C4257 C4254 1.403 . S
C4257 C4258 1.392 . S
C4257 C4261 1.495 . S
C4258 C4257 1.392 . S
C4258 C4259 1.385 . S
C4258 C4260 1.478 . S
C4259 H4253 0.930 . S
C4259 C4255 1.400 . S
C4259 C4258 1.385 . S
C4260 C4258 1.478 . S
C4260 C4262 1.381 . S
C4260 C4266 1.383 . S
C4261 C4257 1.495 . S
C4261 H4267 0.959 . S
C4261 H4268 0.961 . S
C4261 H4269 0.960 . S
C4262 C4260 1.381 . S
C4262 C4263 1.394 . S
C4262 H4270 0.930 . S
C4263 C4262 1.394 . S
C4263 C4264 1.383 . S
C4263 H4271 0.929 . S
C4264 C4263 1.383 . S
C4264 C4265 1.377 . S
C4265 H4249 0.930 . S
C4265 C4264 1.377 . S
C4265 C4266 1.379 . S
C4266 H4250 0.931 . S
C4266 C4260 1.383 . S
C4266 C4265 1.379 . S
H4267 C4261 0.959 . S
H4268 C4261 0.961 . S
H4269 C4261 0.960 . S
H4270 C4262 0.930 . S
H4271 C4263 0.929 . S
H4272 C4280 0.929 . S
H4273 C4282 0.930 . S
H4274 C4284 0.930 . S
H4275 C4287 0.929 . S
H4276 C4290 0.930 . S
H4277 C4292 0.960 . S
H4278 C4292 0.960 . S
H4279 C4292 0.960 . S
C4280 H4272 0.929 . S
C4280 C4281 1.377 . S
C4280 C4282 1.384 . S
C4281 C4280 1.377 . S
C4281 C4287 1.390 . S
C4282 H4273 0.930 . S
C4282 C4280 1.384 . S
C4282 C4283 1.372 . S
C4283 C4282 1.372 . S
C4283 C4284 1.400 . S
C4283 C4288 1.490 . S
C4284 H4274 0.930 . S
C4284 C4283 1.400 . S
C4284 C4287 1.386 . S
H4285 C4301 0.930 . S
H4286 C4302 0.931 . S
C4287 H4275 0.929 . S
C4287 C4281 1.390 . S
C4287 C4284 1.386 . S
C4288 C4283 1.490 . S
C4288 C4290 1.395 . S
C4288 C4291 1.403 . S
H4289 C4295 0.930 . S
C4290 H4276 0.930 . S
C4290 C4288 1.395 . S
C4290 C4293 1.403 . S
C4291 C4288 1.403 . S
C4291 C4292 1.524 . S
C4291 C4295 1.400 . S
C4292 H4277 0.960 . S
C4292 H4278 0.960 . S
C4292 H4279 0.960 . S
C4292 C4291 1.524 . S
C4293 C4290 1.403 . S
C4293 C4294 1.392 . S
C4293 C4297 1.495 . S
C4294 C4293 1.392 . S
C4294 C4295 1.385 . S
C4294 C4296 1.478 . S
C4295 H4289 0.930 . S
C4295 C4291 1.400 . S
C4295 C4294 1.385 . S
C4296 C4294 1.478 . S
C4296 C4298 1.381 . S
C4296 C4302 1.383 . S
C4297 C4293 1.495 . S
C4297 H4303 0.959 . S
C4297 H4304 0.961 . S
C4297 H4305 0.960 . S
C4298 C4296 1.381 . S
C4298 C4299 1.394 . S
C4298 H4306 0.930 . S
C4299 C4298 1.394 . S
C4299 C4300 1.383 . S
C4299 H4307 0.929 . S
C4300 C4299 1.383 . S
C4300 C4301 1.377 . S
C4301 H4285 0.930 . S
C4301 C4300 1.377 . S
C4301 C4302 1.379 . S
C4302 H4286 0.931 . S
C4302 C4296 1.383 . S
C4302 C4301 1.379 . S
H4303 C4297 0.959 . S
H4304 C4297 0.961 . S
H4305 C4297 0.960 . S
H4306 C4298 0.930 . S
H4307 C4299 0.929 . S
H4308 C4316 0.929 . S
H4309 C4318 0.930 . S
H4310 C4320 0.930 . S
H4311 C4323 0.929 . S
H4312 C4326 0.930 . S
H4313 C4328 0.960 . S
H4314 C4328 0.960 . S
H4315 C4328 0.960 . S
C4316 H4308 0.929 . S
C4316 C4317 1.377 . S
C4316 C4318 1.384 . S
C4317 C4316 1.377 . S
C4317 C4323 1.390 . S
C4318 H4309 0.930 . S
C4318 C4316 1.384 . S
C4318 C4319 1.372 . S
C4319 C4318 1.372 . S
C4319 C4320 1.400 . S
C4319 C4324 1.490 . S
C4320 H4310 0.930 . S
C4320 C4319 1.400 . S
C4320 C4323 1.386 . S
H4321 C4337 0.930 . S
H4322 C4338 0.931 . S
C4323 H4311 0.929 . S
C4323 C4317 1.390 . S
C4323 C4320 1.386 . S
C4324 C4319 1.490 . S
C4324 C4326 1.395 . S
C4324 C4327 1.403 . S
H4325 C4331 0.930 . S
C4326 H4312 0.930 . S
C4326 C4324 1.395 . S
C4326 C4329 1.403 . S
C4327 C4324 1.403 . S
C4327 C4328 1.524 . S
C4327 C4331 1.400 . S
C4328 H4313 0.960 . S
C4328 H4314 0.960 . S
C4328 H4315 0.960 . S
C4328 C4327 1.524 . S
C4329 C4326 1.403 . S
C4329 C4330 1.392 . S
C4329 C4333 1.495 . S
C4330 C4329 1.392 . S
C4330 C4331 1.385 . S
C4330 C4332 1.478 . S
C4331 H4325 0.930 . S
C4331 C4327 1.400 . S
C4331 C4330 1.385 . S
C4332 C4330 1.478 . S
C4332 C4334 1.381 . S
C4332 C4338 1.383 . S
C4333 C4329 1.495 . S
C4333 H4339 0.959 . S
C4333 H4340 0.961 . S
C4333 H4341 0.960 . S
C4334 C4332 1.381 . S
C4334 C4335 1.394 . S
C4334 H4342 0.930 . S
C4335 C4334 1.394 . S
C4335 C4336 1.383 . S
C4335 H4343 0.929 . S
C4336 C4335 1.383 . S
C4336 C4337 1.377 . S
C4337 H4321 0.930 . S
C4337 C4336 1.377 . S
C4337 C4338 1.379 . S
C4338 H4322 0.931 . S
C4338 C4332 1.383 . S
C4338 C4337 1.379 . S
H4339 C4333 0.959 . S
H4340 C4333 0.961 . S
H4341 C4333 0.960 . S
H4342 C4334 0.930 . S
H4343 C4335 0.929 . S
H4344 C4352 0.929 . S
H4345 C4354 0.930 . S
H4346 C4356 0.930 . S
H4347 C4359 0.929 . S
H4348 C4362 0.930 . S
H4349 C4364 0.960 . S
H4350 C4364 0.960 . S
H4351 C4364 0.960 . S
C4352 H4344 0.929 . S
C4352 C4353 1.377 . S
C4352 C4354 1.384 . S
C4353 C4352 1.377 . S
C4353 C4359 1.390 . S
C4354 H4345 0.930 . S
C4354 C4352 1.384 . S
C4354 C4355 1.372 . S
C4355 C4354 1.372 . S
C4355 C4356 1.400 . S
C4355 C4360 1.490 . S
C4356 H4346 0.930 . S
C4356 C4355 1.400 . S
C4356 C4359 1.386 . S
H4357 C4373 0.930 . S
H4358 C4374 0.931 . S
C4359 H4347 0.929 . S
C4359 C4353 1.390 . S
C4359 C4356 1.386 . S
C4360 C4355 1.490 . S
C4360 C4362 1.395 . S
C4360 C4363 1.403 . S
H4361 C4367 0.930 . S
C4362 H4348 0.930 . S
C4362 C4360 1.395 . S
C4362 C4365 1.403 . S
C4363 C4360 1.403 . S
C4363 C4364 1.524 . S
C4363 C4367 1.400 . S
C4364 H4349 0.960 . S
C4364 H4350 0.960 . S
C4364 H4351 0.960 . S
C4364 C4363 1.524 . S
C4365 C4362 1.403 . S
C4365 C4366 1.392 . S
C4365 C4369 1.495 . S
C4366 C4365 1.392 . S
C4366 C4367 1.385 . S
C4366 C4368 1.478 . S
C4367 H4361 0.930 . S
C4367 C4363 1.400 . S
C4367 C4366 1.385 . S
C4368 C4366 1.478 . S
C4368 C4370 1.381 . S
C4368 C4374 1.383 . S
C4369 C4365 1.495 . S
C4369 H4375 0.959 . S
C4369 H4376 0.961 . S
C4369 H4377 0.960 . S
C4370 C4368 1.381 . S
C4370 C4371 1.394 . S
C4370 H4378 0.930 . S
C4371 C4370 1.394 . S
C4371 C4372 1.383 . S
C4371 H4379 0.929 . S
C4372 C4371 1.383 . S
C4372 C4373 1.377 . S
C4373 H4357 0.930 . S
C4373 C4372 1.377 . S
C4373 C4374 1.379 . S
C4374 H4358 0.931 . S
C4374 C4368 1.383 . S
C4374 C4373 1.379 . S
H4375 C4369 0.959 . S
H4376 C4369 0.961 . S
H4377 C4369 0.960 . S
H4378 C4370 0.930 . S
H4379 C4371 0.929 . S
H4380 C4388 0.929 . S
H4381 C4390 0.930 . S
H4382 C4392 0.930 . S
H4383 C4395 0.929 . S
H4384 C4398 0.930 . S
H4385 C4400 0.960 . S
H4386 C4400 0.960 . S
H4387 C4400 0.960 . S
C4388 H4380 0.929 . S
C4388 C4389 1.377 . S
C4388 C4390 1.384 . S
C4389 C4388 1.377 . S
C4389 C4395 1.390 . S
C4390 H4381 0.930 . S
C4390 C4388 1.384 . S
C4390 C4391 1.372 . S
C4391 C4390 1.372 . S
C4391 C4392 1.400 . S
C4391 C4396 1.490 . S
C4392 H4382 0.930 . S
C4392 C4391 1.400 . S
C4392 C4395 1.386 . S
H4393 C4409 0.930 . S
H4394 C4410 0.931 . S
C4395 H4383 0.929 . S
C4395 C4389 1.390 . S
C4395 C4392 1.386 . S
C4396 C4391 1.490 . S
C4396 C4398 1.395 . S
C4396 C4399 1.403 . S
H4397 C4403 0.930 . S
C4398 H4384 0.930 . S
C4398 C4396 1.395 . S
C4398 C4401 1.403 . S
C4399 C4396 1.403 . S
C4399 C4400 1.524 . S
C4399 C4403 1.400 . S
C4400 H4385 0.960 . S
C4400 H4386 0.960 . S
C4400 H4387 0.960 . S
C4400 C4399 1.524 . S
C4401 C4398 1.403 . S
C4401 C4402 1.392 . S
C4401 C4405 1.495 . S
C4402 C4401 1.392 . S
C4402 C4403 1.385 . S
C4402 C4404 1.478 . S
C4403 H4397 0.930 . S
C4403 C4399 1.400 . S
C4403 C4402 1.385 . S
C4404 C4402 1.478 . S
C4404 C4406 1.381 . S
C4404 C4410 1.383 . S
C4405 C4401 1.495 . S
C4405 H4411 0.959 . S
C4405 H4412 0.961 . S
C4405 H4413 0.960 . S
C4406 C4404 1.381 . S
C4406 C4407 1.394 . S
C4406 H4414 0.930 . S
C4407 C4406 1.394 . S
C4407 C4408 1.383 . S
C4407 H4415 0.929 . S
C4408 C4407 1.383 . S
C4408 C4409 1.377 . S
C4409 H4393 0.930 . S
C4409 C4408 1.377 . S
C4409 C4410 1.379 . S
C4410 H4394 0.931 . S
C4410 C4404 1.383 . S
C4410 C4409 1.379 . S
H4411 C4405 0.959 . S
H4412 C4405 0.961 . S
H4413 C4405 0.960 . S
H4414 C4406 0.930 . S
H4415 C4407 0.929 . S
H4416 C4424 0.929 . S
H4417 C4426 0.930 . S
H4418 C4428 0.930 . S
H4419 C4431 0.929 . S
H4420 C4434 0.930 . S
H4421 C4436 0.960 . S
H4422 C4436 0.960 . S
H4423 C4436 0.960 . S
C4424 H4416 0.929 . S
C4424 C4425 1.377 . S
C4424 C4426 1.384 . S
C4425 C4424 1.377 . S
C4425 C4431 1.390 . S
C4426 H4417 0.930 . S
C4426 C4424 1.384 . S
C4426 C4427 1.372 . S
C4427 C4426 1.372 . S
C4427 C4428 1.400 . S
C4427 C4432 1.490 . S
C4428 H4418 0.930 . S
C4428 C4427 1.400 . S
C4428 C4431 1.386 . S
H4429 C4445 0.930 . S
H4430 C4446 0.931 . S
C4431 H4419 0.929 . S
C4431 C4425 1.390 . S
C4431 C4428 1.386 . S
C4432 C4427 1.490 . S
C4432 C4434 1.395 . S
C4432 C4435 1.403 . S
H4433 C4439 0.930 . S
C4434 H4420 0.930 . S
C4434 C4432 1.395 . S
C4434 C4437 1.403 . S
C4435 C4432 1.403 . S
C4435 C4436 1.524 . S
C4435 C4439 1.400 . S
C4436 H4421 0.960 . S
C4436 H4422 0.960 . S
C4436 H4423 0.960 . S
C4436 C4435 1.524 . S
C4437 C4434 1.403 . S
C4437 C4438 1.392 . S
C4437 C4441 1.495 . S
C4438 C4437 1.392 . S
C4438 C4439 1.385 . S
C4438 C4440 1.478 . S
C4439 H4433 0.930 . S
C4439 C4435 1.400 . S
C4439 C4438 1.385 . S
C4440 C4438 1.478 . S
C4440 C4442 1.381 . S
C4440 C4446 1.383 . S
C4441 C4437 1.495 . S
C4441 H4447 0.959 . S
C4441 H4448 0.961 . S
C4441 H4449 0.960 . S
C4442 C4440 1.381 . S
C4442 C4443 1.394 . S
C4442 H4450 0.930 . S
C4443 C4442 1.394 . S
C4443 C4444 1.383 . S
C4443 H4451 0.929 . S
C4444 C4443 1.383 . S
C4444 C4445 1.377 . S
C4445 H4429 0.930 . S
C4445 C4444 1.377 . S
C4445 C4446 1.379 . S
C4446 H4430 0.931 . S
C4446 C4440 1.383 . S
C4446 C4445 1.379 . S
H4447 C4441 0.959 . S
H4448 C4441 0.961 . S
H4449 C4441 0.960 . S
H4450 C4442 0.930 . S
H4451 C4443 0.929 . S
H4452 C4460 0.929 . S
H4453 C4462 0.930 . S
H4454 C4464 0.930 . S
H4455 C4467 0.929 . S
H4456 C4470 0.930 . S
H4457 C4472 0.960 . S
H4458 C4472 0.960 . S
H4459 C4472 0.960 . S
C4460 H4452 0.929 . S
C4460 C4461 1.377 . S
C4460 C4462 1.384 . S
C4461 C4460 1.377 . S
C4461 C4467 1.390 . S
C4462 H4453 0.930 . S
C4462 C4460 1.384 . S
C4462 C4463 1.372 . S
C4463 C4462 1.372 . S
C4463 C4464 1.400 . S
C4463 C4468 1.490 . S
C4464 H4454 0.930 . S
C4464 C4463 1.400 . S
C4464 C4467 1.386 . S
H4465 C4481 0.930 . S
H4466 C4482 0.931 . S
C4467 H4455 0.929 . S
C4467 C4461 1.390 . S
C4467 C4464 1.386 . S
C4468 C4463 1.490 . S
C4468 C4470 1.395 . S
C4468 C4471 1.403 . S
H4469 C4475 0.930 . S
C4470 H4456 0.930 . S
C4470 C4468 1.395 . S
C4470 C4473 1.403 . S
C4471 C4468 1.403 . S
C4471 C4472 1.524 . S
C4471 C4475 1.400 . S
C4472 H4457 0.960 . S
C4472 H4458 0.960 . S
C4472 H4459 0.960 . S
C4472 C4471 1.524 . S
C4473 C4470 1.403 . S
C4473 C4474 1.392 . S
C4473 C4477 1.495 . S
C4474 C4473 1.392 . S
C4474 C4475 1.385 . S
C4474 C4476 1.478 . S
C4475 H4469 0.930 . S
C4475 C4471 1.400 . S
C4475 C4474 1.385 . S
C4476 C4474 1.478 . S
C4476 C4478 1.381 . S
C4476 C4482 1.383 . S
C4477 C4473 1.495 . S
C4477 H4483 0.959 . S
C4477 H4484 0.961 . S
C4477 H4485 0.960 . S
C4478 C4476 1.381 . S
C4478 C4479 1.394 . S
C4478 H4486 0.930 . S
C4479 C4478 1.394 . S
C4479 C4480 1.383 . S
C4479 H4487 0.929 . S
C4480 C4479 1.383 . S
C4480 C4481 1.377 . S
C4481 H4465 0.930 . S
C4481 C4480 1.377 . S
C4481 C4482 1.379 . S
C4482 H4466 0.931 . S
C4482 C4476 1.383 . S
C4482 C4481 1.379 . S
H4483 C4477 0.959 . S
H4484 C4477 0.961 . S
H4485 C4477 0.960 . S
H4486 C4478 0.930 . S
H4487 C4479 0.929 . S
H4488 C4496 0.929 . S
H4489 C4498 0.930 . S
H4490 C4500 0.930 . S
H4491 C4503 0.929 . S
H4492 C4506 0.930 . S
H4493 C4508 0.960 . S
H4494 C4508 0.960 . S
H4495 C4508 0.960 . S
C4496 H4488 0.929 . S
C4496 C4497 1.377 . S
C4496 C4498 1.384 . S
C4497 C4496 1.377 . S
C4497 C4503 1.390 . S
C4498 H4489 0.930 . S
C4498 C4496 1.384 . S
C4498 C4499 1.372 . S
C4499 C4498 1.372 . S
C4499 C4500 1.400 . S
C4499 C4504 1.490 . S
C4500 H4490 0.930 . S
C4500 C4499 1.400 . S
C4500 C4503 1.386 . S
H4501 C4517 0.930 . S
H4502 C4518 0.931 . S
C4503 H4491 0.929 . S
C4503 C4497 1.390 . S
C4503 C4500 1.386 . S
C4504 C4499 1.490 . S
C4504 C4506 1.395 . S
C4504 C4507 1.403 . S
H4505 C4511 0.930 . S
C4506 H4492 0.930 . S
C4506 C4504 1.395 . S
C4506 C4509 1.403 . S
C4507 C4504 1.403 . S
C4507 C4508 1.524 . S
C4507 C4511 1.400 . S
C4508 H4493 0.960 . S
C4508 H4494 0.960 . S
C4508 H4495 0.960 . S
C4508 C4507 1.524 . S
C4509 C4506 1.403 . S
C4509 C4510 1.392 . S
C4509 C4513 1.495 1_455 S
C4510 C4509 1.392 . S
C4510 C4511 1.385 . S
C4510 C4512 1.478 . S
C4511 H4505 0.930 . S
C4511 C4507 1.400 . S
C4511 C4510 1.385 . S
C4512 C4510 1.478 . S
C4512 C4514 1.381 . S
C4512 C4518 1.383 . S
C4513 C4509 1.495 1_655 S
C4513 H4519 0.959 . S
C4513 H4520 0.961 1_655 S
C4513 H4521 0.960 . S
C4514 C4512 1.381 . S
C4514 C4515 1.394 . S
C4514 H4522 0.930 . S
C4515 C4514 1.394 . S
C4515 C4516 1.383 . S
C4515 H4523 0.929 . S
C4516 C4515 1.383 . S
C4516 C4517 1.377 . S
C4517 H4501 0.930 . S
C4517 C4516 1.377 . S
C4517 C4518 1.379 . S
C4518 H4502 0.931 . S
C4518 C4512 1.383 . S
C4518 C4517 1.379 . S
H4519 C4513 0.959 . S
H4520 C4513 0.961 1_455 S
H4521 C4513 0.960 . S
H4522 C4514 0.930 . S
H4523 C4515 0.929 . S
H4524 C4532 0.929 . S
H4525 C4534 0.930 . S
H4526 C4536 0.930 . S
H4527 C4539 0.929 . S
H4528 C4542 0.930 . S
H4529 C4544 0.960 . S
H4530 C4544 0.960 . S
H4531 C4544 0.960 . S
C4532 H4524 0.929 . S
C4532 C4533 1.377 . S
C4532 C4534 1.384 . S
C4533 C4532 1.377 . S
C4533 C4539 1.390 . S
C4534 H4525 0.930 . S
C4534 C4532 1.384 . S
C4534 C4535 1.372 . S
C4535 C4534 1.372 . S
C4535 C4536 1.400 . S
C4535 C4540 1.490 . S
C4536 H4526 0.930 . S
C4536 C4535 1.400 . S
C4536 C4539 1.386 . S
H4537 C4553 0.930 . S
H4538 C4554 0.931 . S
C4539 H4527 0.929 . S
C4539 C4533 1.390 . S
C4539 C4536 1.386 . S
C4540 C4535 1.490 . S
C4540 C4542 1.395 . S
C4540 C4543 1.403 . S
H4541 C4547 0.930 . S
C4542 H4528 0.930 . S
C4542 C4540 1.395 . S
C4542 C4545 1.403 . S
C4543 C4540 1.403 . S
C4543 C4544 1.524 . S
C4543 C4547 1.400 . S
C4544 H4529 0.960 . S
C4544 H4530 0.960 . S
C4544 H4531 0.960 . S
C4544 C4543 1.524 . S
C4545 C4542 1.403 . S
C4545 C4546 1.392 . S
C4545 C4549 1.495 . S
C4546 C4545 1.392 . S
C4546 C4547 1.385 . S
C4546 C4548 1.478 . S
C4547 H4541 0.930 . S
C4547 C4543 1.400 . S
C4547 C4546 1.385 . S
C4548 C4546 1.478 . S
C4548 C4550 1.381 . S
C4548 C4554 1.383 . S
C4549 C4545 1.495 . S
C4549 H4555 0.959 . S
C4549 H4556 0.961 . S
C4549 H4557 0.960 . S
C4550 C4548 1.381 . S
C4550 C4551 1.394 . S
C4550 H4558 0.930 . S
C4551 C4550 1.394 . S
C4551 C4552 1.383 . S
C4551 H4559 0.929 . S
C4552 C4551 1.383 . S
C4552 C4553 1.377 . S
C4553 H4537 0.930 . S
C4553 C4552 1.377 . S
C4553 C4554 1.379 . S
C4554 H4538 0.931 . S
C4554 C4548 1.383 . S
C4554 C4553 1.379 . S
H4555 C4549 0.959 . S
H4556 C4549 0.961 . S
H4557 C4549 0.960 . S
H4558 C4550 0.930 . S
H4559 C4551 0.929 . S
H4560 C4568 0.929 . S
H4561 C4570 0.930 . S
H4562 C4572 0.930 . S
H4563 C4575 0.929 . S
H4564 C4578 0.930 . S
H4565 C4580 0.960 . S
H4566 C4580 0.960 . S
H4567 C4580 0.960 . S
C4568 H4560 0.929 . S
C4568 C4569 1.377 . S
C4568 C4570 1.384 . S
C4569 C4568 1.377 . S
C4569 C4575 1.390 . S
C4570 H4561 0.930 . S
C4570 C4568 1.384 . S
C4570 C4571 1.372 . S
C4571 C4570 1.372 . S
C4571 C4572 1.400 . S
C4571 C4576 1.490 . S
C4572 H4562 0.930 . S
C4572 C4571 1.400 . S
C4572 C4575 1.386 . S
H4573 C4589 0.930 . S
H4574 C4590 0.931 . S
C4575 H4563 0.929 . S
C4575 C4569 1.390 . S
C4575 C4572 1.386 . S
C4576 C4571 1.490 . S
C4576 C4578 1.395 . S
C4576 C4579 1.403 . S
H4577 C4583 0.930 . S
C4578 H4564 0.930 . S
C4578 C4576 1.395 . S
C4578 C4581 1.403 . S
C4579 C4576 1.403 . S
C4579 C4580 1.524 . S
C4579 C4583 1.400 . S
C4580 H4565 0.960 . S
C4580 H4566 0.960 . S
C4580 H4567 0.960 . S
C4580 C4579 1.524 . S
C4581 C4578 1.403 . S
C4581 C4582 1.392 . S
C4581 C4585 1.495 . S
C4582 C4581 1.392 . S
C4582 C4583 1.385 . S
C4582 C4584 1.478 . S
C4583 H4577 0.930 . S
C4583 C4579 1.400 . S
C4583 C4582 1.385 . S
C4584 C4582 1.478 . S
C4584 C4586 1.381 . S
C4584 C4590 1.383 . S
C4585 C4581 1.495 . S
C4585 H4591 0.959 . S
C4585 H4592 0.961 . S
C4585 H4593 0.960 . S
C4586 C4584 1.381 . S
C4586 C4587 1.394 . S
C4586 H4594 0.930 . S
C4587 C4586 1.394 . S
C4587 C4588 1.383 . S
C4587 H4595 0.929 . S
C4588 C4587 1.383 . S
C4588 C4589 1.377 . S
C4589 H4573 0.930 . S
C4589 C4588 1.377 . S
C4589 C4590 1.379 . S
C4590 H4574 0.931 . S
C4590 C4584 1.383 . S
C4590 C4589 1.379 . S
H4591 C4585 0.959 . S
H4592 C4585 0.961 . S
H4593 C4585 0.960 . S
H4594 C4586 0.930 . S
H4595 C4587 0.929 . S
H4596 C4604 0.929 . S
H4597 C4606 0.930 . S
H4598 C4608 0.930 . S
H4599 C4611 0.929 . S
H4600 C4614 0.930 . S
H4601 C4616 0.960 . S
H4602 C4616 0.960 . S
H4603 C4616 0.960 . S
C4604 H4596 0.929 . S
C4604 C4605 1.377 . S
C4604 C4606 1.384 . S
C4605 C4604 1.377 . S
C4605 C4611 1.390 . S
C4606 H4597 0.930 . S
C4606 C4604 1.384 . S
C4606 C4607 1.372 . S
C4607 C4606 1.372 . S
C4607 C4608 1.400 . S
C4607 C4612 1.490 . S
C4608 H4598 0.930 . S
C4608 C4607 1.400 . S
C4608 C4611 1.386 . S
H4609 C4625 0.930 . S
H4610 C4626 0.931 . S
C4611 H4599 0.929 . S
C4611 C4605 1.390 . S
C4611 C4608 1.386 . S
C4612 C4607 1.490 . S
C4612 C4614 1.395 . S
C4612 C4615 1.403 . S
H4613 C4619 0.930 . S
C4614 H4600 0.930 . S
C4614 C4612 1.395 . S
C4614 C4617 1.403 . S
C4615 C4612 1.403 . S
C4615 C4616 1.524 . S
C4615 C4619 1.400 . S
C4616 H4601 0.960 . S
C4616 H4602 0.960 . S
C4616 H4603 0.960 . S
C4616 C4615 1.524 . S
C4617 C4614 1.403 . S
C4617 C4618 1.392 . S
C4617 C4621 1.495 . S
C4618 C4617 1.392 . S
C4618 C4619 1.385 . S
C4618 C4620 1.478 . S
C4619 H4613 0.930 . S
C4619 C4615 1.400 . S
C4619 C4618 1.385 . S
C4620 C4618 1.478 . S
C4620 C4622 1.381 . S
C4620 C4626 1.383 . S
C4621 C4617 1.495 . S
C4621 H4627 0.959 . S
C4621 H4628 0.961 . S
C4621 H4629 0.960 . S
C4622 C4620 1.381 . S
C4622 C4623 1.394 . S
C4622 H4630 0.930 . S
C4623 C4622 1.394 . S
C4623 C4624 1.383 . S
C4623 H4631 0.929 . S
C4624 C4623 1.383 . S
C4624 C4625 1.377 . S
C4625 H4609 0.930 . S
C4625 C4624 1.377 . S
C4625 C4626 1.379 . S
C4626 H4610 0.931 . S
C4626 C4620 1.383 . S
C4626 C4625 1.379 . S
H4627 C4621 0.959 . S
H4628 C4621 0.961 . S
H4629 C4621 0.960 . S
H4630 C4622 0.930 . S
H4631 C4623 0.929 . S
H4632 C4640 0.929 . S
H4633 C4642 0.930 . S
H4634 C4644 0.930 . S
H4635 C4647 0.929 . S
H4636 C4650 0.930 . S
H4637 C4652 0.960 . S
H4638 C4652 0.960 . S
H4639 C4652 0.960 . S
C4640 H4632 0.929 . S
C4640 C4641 1.377 . S
C4640 C4642 1.384 . S
C4641 C4640 1.377 . S
C4641 C4647 1.390 . S
C4642 H4633 0.930 . S
C4642 C4640 1.384 . S
C4642 C4643 1.372 . S
C4643 C4642 1.372 . S
C4643 C4644 1.400 . S
C4643 C4648 1.490 . S
C4644 H4634 0.930 . S
C4644 C4643 1.400 . S
C4644 C4647 1.386 . S
H4645 C4661 0.930 . S
H4646 C4662 0.931 . S
C4647 H4635 0.929 . S
C4647 C4641 1.390 . S
C4647 C4644 1.386 . S
C4648 C4643 1.490 . S
C4648 C4650 1.395 . S
C4648 C4651 1.403 . S
H4649 C4655 0.930 . S
C4650 H4636 0.930 . S
C4650 C4648 1.395 . S
C4650 C4653 1.403 . S
C4651 C4648 1.403 . S
C4651 C4652 1.524 . S
C4651 C4655 1.400 . S
C4652 H4637 0.960 . S
C4652 H4638 0.960 . S
C4652 H4639 0.960 . S
C4652 C4651 1.524 . S
C4653 C4650 1.403 . S
C4653 C4654 1.392 . S
C4653 C4657 1.495 . S
C4654 C4653 1.392 . S
C4654 C4655 1.385 . S
C4654 C4656 1.478 . S
C4655 H4649 0.930 . S
C4655 C4651 1.400 . S
C4655 C4654 1.385 . S
C4656 C4654 1.478 . S
C4656 C4658 1.381 . S
C4656 C4662 1.383 . S
C4657 C4653 1.495 . S
C4657 H4663 0.959 . S
C4657 H4664 0.961 . S
C4657 H4665 0.960 . S
C4658 C4656 1.381 . S
C4658 C4659 1.394 . S
C4658 H4666 0.930 . S
C4659 C4658 1.394 . S
C4659 C4660 1.383 . S
C4659 H4667 0.929 . S
C4660 C4659 1.383 . S
C4660 C4661 1.377 . S
C4661 H4645 0.930 . S
C4661 C4660 1.377 . S
C4661 C4662 1.379 . S
C4662 H4646 0.931 . S
C4662 C4656 1.383 . S
C4662 C4661 1.379 . S
H4663 C4657 0.959 . S
H4664 C4657 0.961 . S
H4665 C4657 0.960 . S
H4666 C4658 0.930 . S
H4667 C4659 0.929 . S
H4668 C4676 0.929 . S
H4669 C4678 0.930 . S
H4670 C4680 0.930 . S
H4671 C4683 0.929 . S
H4672 C4686 0.930 . S
H4673 C4688 0.960 . S
H4674 C4688 0.960 . S
H4675 C4688 0.960 . S
C4676 H4668 0.929 . S
C4676 C4677 1.377 . S
C4676 C4678 1.384 . S
C4677 C4676 1.377 . S
C4677 C4683 1.390 . S
C4678 H4669 0.930 . S
C4678 C4676 1.384 . S
C4678 C4679 1.372 . S
C4679 C4678 1.372 . S
C4679 C4680 1.400 . S
C4679 C4684 1.490 . S
C4680 H4670 0.930 . S
C4680 C4679 1.400 . S
C4680 C4683 1.386 . S
H4681 C4697 0.930 . S
H4682 C4698 0.931 . S
C4683 H4671 0.929 . S
C4683 C4677 1.390 . S
C4683 C4680 1.386 . S
C4684 C4679 1.490 . S
C4684 C4686 1.395 . S
C4684 C4687 1.403 . S
H4685 C4691 0.930 . S
C4686 H4672 0.930 . S
C4686 C4684 1.395 . S
C4686 C4689 1.403 . S
C4687 C4684 1.403 . S
C4687 C4688 1.524 . S
C4687 C4691 1.400 . S
C4688 H4673 0.960 . S
C4688 H4674 0.960 . S
C4688 H4675 0.960 . S
C4688 C4687 1.524 . S
C4689 C4686 1.403 . S
C4689 C4690 1.392 . S
C4689 C4693 1.495 . S
C4690 C4689 1.392 . S
C4690 C4691 1.385 . S
C4690 C4692 1.478 . S
C4691 H4685 0.930 . S
C4691 C4687 1.400 . S
C4691 C4690 1.385 . S
C4692 C4690 1.478 . S
C4692 C4694 1.381 . S
C4692 C4698 1.383 . S
C4693 C4689 1.495 . S
C4693 H4699 0.959 . S
C4693 H4700 0.961 . S
C4693 H4701 0.960 . S
C4694 C4692 1.381 . S
C4694 C4695 1.394 . S
C4694 H4702 0.930 . S
C4695 C4694 1.394 . S
C4695 C4696 1.383 . S
C4695 H4703 0.929 . S
C4696 C4695 1.383 . S
C4696 C4697 1.377 . S
C4697 H4681 0.930 . S
C4697 C4696 1.377 . S
C4697 C4698 1.379 . S
C4698 H4682 0.931 . S
C4698 C4692 1.383 . S
C4698 C4697 1.379 . S
H4699 C4693 0.959 . S
H4700 C4693 0.961 . S
H4701 C4693 0.960 . S
H4702 C4694 0.930 . S
H4703 C4695 0.929 . S
H4704 C4712 0.929 . S
H4705 C4714 0.930 . S
H4706 C4716 0.930 . S
H4707 C4719 0.929 . S
H4708 C4722 0.930 . S
H4709 C4724 0.960 . S
H4710 C4724 0.960 . S
H4711 C4724 0.960 . S
C4712 H4704 0.929 . S
C4712 C4713 1.377 . S
C4712 C4714 1.384 . S
C4713 C4712 1.377 . S
C4713 C4719 1.390 . S
C4714 H4705 0.930 . S
C4714 C4712 1.384 . S
C4714 C4715 1.372 . S
C4715 C4714 1.372 . S
C4715 C4716 1.400 . S
C4715 C4720 1.490 . S
C4716 H4706 0.930 . S
C4716 C4715 1.400 . S
C4716 C4719 1.386 . S
H4717 C4733 0.930 . S
H4718 C4734 0.931 . S
C4719 H4707 0.929 . S
C4719 C4713 1.390 . S
C4719 C4716 1.386 . S
C4720 C4715 1.490 . S
C4720 C4722 1.395 . S
C4720 C4723 1.403 . S
H4721 C4727 0.930 . S
C4722 H4708 0.930 . S
C4722 C4720 1.395 . S
C4722 C4725 1.403 . S
C4723 C4720 1.403 . S
C4723 C4724 1.524 . S
C4723 C4727 1.400 . S
C4724 H4709 0.960 . S
C4724 H4710 0.960 . S
C4724 H4711 0.960 . S
C4724 C4723 1.524 . S
C4725 C4722 1.403 . S
C4725 C4726 1.392 . S
C4725 C4729 1.495 . S
C4726 C4725 1.392 . S
C4726 C4727 1.385 . S
C4726 C4728 1.478 . S
C4727 H4721 0.930 . S
C4727 C4723 1.400 . S
C4727 C4726 1.385 . S
C4728 C4726 1.478 . S
C4728 C4730 1.381 . S
C4728 C4734 1.383 . S
C4729 C4725 1.495 . S
C4729 H4735 0.959 . S
C4729 H4736 0.961 . S
C4729 H4737 0.960 . S
C4730 C4728 1.381 . S
C4730 C4731 1.394 . S
C4730 H4738 0.930 . S
C4731 C4730 1.394 . S
C4731 C4732 1.383 . S
C4731 H4739 0.929 . S
C4732 C4731 1.383 . S
C4732 C4733 1.377 . S
C4733 H4717 0.930 . S
C4733 C4732 1.377 . S
C4733 C4734 1.379 . S
C4734 H4718 0.931 . S
C4734 C4728 1.383 . S
C4734 C4733 1.379 . S
H4735 C4729 0.959 . S
H4736 C4729 0.961 . S
H4737 C4729 0.960 . S
H4738 C4730 0.930 . S
H4739 C4731 0.929 . S
H4740 C4748 0.929 . S
H4741 C4750 0.930 . S
H4742 C4752 0.930 . S
H4743 C4755 0.929 . S
H4744 C4758 0.930 . S
H4745 C4760 0.960 . S
H4746 C4760 0.960 . S
H4747 C4760 0.960 . S
C4748 H4740 0.929 . S
C4748 C4749 1.377 . S
C4748 C4750 1.384 . S
C4749 C4748 1.377 . S
C4749 C4755 1.390 . S
C4750 H4741 0.930 . S
C4750 C4748 1.384 . S
C4750 C4751 1.372 . S
C4751 C4750 1.372 . S
C4751 C4752 1.400 . S
C4751 C4756 1.490 . S
C4752 H4742 0.930 . S
C4752 C4751 1.400 . S
C4752 C4755 1.386 . S
H4753 C4769 0.930 . S
H4754 C4770 0.931 . S
C4755 H4743 0.929 . S
C4755 C4749 1.390 . S
C4755 C4752 1.386 . S
C4756 C4751 1.490 . S
C4756 C4758 1.395 . S
C4756 C4759 1.403 . S
H4757 C4763 0.930 . S
C4758 H4744 0.930 . S
C4758 C4756 1.395 . S
C4758 C4761 1.403 . S
C4759 C4756 1.403 . S
C4759 C4760 1.524 . S
C4759 C4763 1.400 . S
C4760 H4745 0.960 . S
C4760 H4746 0.960 . S
C4760 H4747 0.960 . S
C4760 C4759 1.524 . S
C4761 C4758 1.403 . S
C4761 C4762 1.392 . S
C4761 C4765 1.495 . S
C4762 C4761 1.392 . S
C4762 C4763 1.385 . S
C4762 C4764 1.478 . S
C4763 H4757 0.930 . S
C4763 C4759 1.400 . S
C4763 C4762 1.385 . S
C4764 C4762 1.478 . S
C4764 C4766 1.381 . S
C4764 C4770 1.383 . S
C4765 C4761 1.495 . S
C4765 H4771 0.959 . S
C4765 H4772 0.961 . S
C4765 H4773 0.960 . S
C4766 C4764 1.381 . S
C4766 C4767 1.394 . S
C4766 H4774 0.930 . S
C4767 C4766 1.394 . S
C4767 C4768 1.383 . S
C4767 H4775 0.929 . S
C4768 C4767 1.383 . S
C4768 C4769 1.377 . S
C4769 H4753 0.930 . S
C4769 C4768 1.377 . S
C4769 C4770 1.379 . S
C4770 H4754 0.931 . S
C4770 C4764 1.383 . S
C4770 C4769 1.379 . S
H4771 C4765 0.959 . S
H4772 C4765 0.961 . S
H4773 C4765 0.960 . S
H4774 C4766 0.930 . S
H4775 C4767 0.929 . S
H4776 C4784 0.929 . S
H4777 C4786 0.930 . S
H4778 C4788 0.930 . S
H4779 C4791 0.929 . S
H4780 C4794 0.930 . S
H4781 C4796 0.960 . S
H4782 C4796 0.960 . S
H4783 C4796 0.960 . S
C4784 H4776 0.929 . S
C4784 C4785 1.377 . S
C4784 C4786 1.384 . S
C4785 C4784 1.377 . S
C4785 C4791 1.390 . S
C4786 H4777 0.930 . S
C4786 C4784 1.384 . S
C4786 C4787 1.372 . S
C4787 C4786 1.372 . S
C4787 C4788 1.400 . S
C4787 C4792 1.490 . S
C4788 H4778 0.930 . S
C4788 C4787 1.400 . S
C4788 C4791 1.386 . S
H4789 C4805 0.930 . S
H4790 C4806 0.931 . S
C4791 H4779 0.929 . S
C4791 C4785 1.390 . S
C4791 C4788 1.386 . S
C4792 C4787 1.490 . S
C4792 C4794 1.395 . S
C4792 C4795 1.403 . S
H4793 C4799 0.930 . S
C4794 H4780 0.930 . S
C4794 C4792 1.395 . S
C4794 C4797 1.403 . S
C4795 C4792 1.403 . S
C4795 C4796 1.524 . S
C4795 C4799 1.400 . S
C4796 H4781 0.960 . S
C4796 H4782 0.960 . S
C4796 H4783 0.960 . S
C4796 C4795 1.524 . S
C4797 C4794 1.403 . S
C4797 C4798 1.392 . S
C4797 C4801 1.495 . S
C4798 C4797 1.392 . S
C4798 C4799 1.385 . S
C4798 C4800 1.478 . S
C4799 H4793 0.930 . S
C4799 C4795 1.400 . S
C4799 C4798 1.385 . S
C4800 C4798 1.478 . S
C4800 C4802 1.381 . S
C4800 C4806 1.383 . S
C4801 C4797 1.495 . S
C4801 H4807 0.959 . S
C4801 H4808 0.961 . S
C4801 H4809 0.960 . S
C4802 C4800 1.381 . S
C4802 C4803 1.394 . S
C4802 H4810 0.930 . S
C4803 C4802 1.394 . S
C4803 C4804 1.383 . S
C4803 H4811 0.929 . S
C4804 C4803 1.383 . S
C4804 C4805 1.377 . S
C4805 H4789 0.930 . S
C4805 C4804 1.377 . S
C4805 C4806 1.379 . S
C4806 H4790 0.931 . S
C4806 C4800 1.383 . S
C4806 C4805 1.379 . S
H4807 C4801 0.959 . S
H4808 C4801 0.961 . S
H4809 C4801 0.960 . S
H4810 C4802 0.930 . S
H4811 C4803 0.929 . S
H4812 C4820 0.929 . S
H4813 C4822 0.930 . S
H4814 C4824 0.930 . S
H4815 C4827 0.929 . S
H4816 C4830 0.930 . S
H4817 C4832 0.960 . S
H4818 C4832 0.960 . S
H4819 C4832 0.960 . S
C4820 H4812 0.929 . S
C4820 C4821 1.377 . S
C4820 C4822 1.384 . S
C4821 C4820 1.377 . S
C4821 C4827 1.390 . S
C4822 H4813 0.930 . S
C4822 C4820 1.384 . S
C4822 C4823 1.372 . S
C4823 C4822 1.372 . S
C4823 C4824 1.400 . S
C4823 C4828 1.490 . S
C4824 H4814 0.930 . S
C4824 C4823 1.400 . S
C4824 C4827 1.386 . S
H4825 C4841 0.930 . S
H4826 C4842 0.931 . S
C4827 H4815 0.929 . S
C4827 C4821 1.390 . S
C4827 C4824 1.386 . S
C4828 C4823 1.490 . S
C4828 C4830 1.395 . S
C4828 C4831 1.403 . S
H4829 C4835 0.930 . S
C4830 H4816 0.930 . S
C4830 C4828 1.395 . S
C4830 C4833 1.403 . S
C4831 C4828 1.403 . S
C4831 C4832 1.524 . S
C4831 C4835 1.400 . S
C4832 H4817 0.960 . S
C4832 H4818 0.960 . S
C4832 H4819 0.960 . S
C4832 C4831 1.524 . S
C4833 C4830 1.403 . S
C4833 C4834 1.392 . S
C4833 C4837 1.495 . S
C4834 C4833 1.392 . S
C4834 C4835 1.385 . S
C4834 C4836 1.478 . S
C4835 H4829 0.930 . S
C4835 C4831 1.400 . S
C4835 C4834 1.385 . S
C4836 C4834 1.478 . S
C4836 C4838 1.381 . S
C4836 C4842 1.383 . S
C4837 C4833 1.495 . S
C4837 H4843 0.959 . S
C4837 H4844 0.961 . S
C4837 H4845 0.960 . S
C4838 C4836 1.381 . S
C4838 C4839 1.394 . S
C4838 H4846 0.930 . S
C4839 C4838 1.394 . S
C4839 C4840 1.383 . S
C4839 H4847 0.929 . S
C4840 C4839 1.383 . S
C4840 C4841 1.377 . S
C4841 H4825 0.930 . S
C4841 C4840 1.377 . S
C4841 C4842 1.379 . S
C4842 H4826 0.931 . S
C4842 C4836 1.383 . S
C4842 C4841 1.379 . S
H4843 C4837 0.959 . S
H4844 C4837 0.961 . S
H4845 C4837 0.960 . S
H4846 C4838 0.930 . S
H4847 C4839 0.929 . S
H4848 C4856 0.929 . S
H4849 C4858 0.930 . S
H4850 C4860 0.930 . S
H4851 C4863 0.929 . S
H4852 C4866 0.930 . S
H4853 C4868 0.960 . S
H4854 C4868 0.960 . S
H4855 C4868 0.960 . S
C4856 H4848 0.929 . S
C4856 C4857 1.377 . S
C4856 C4858 1.384 . S
C4857 C4856 1.377 . S
C4857 C4863 1.390 . S
C4858 H4849 0.930 . S
C4858 C4856 1.384 . S
C4858 C4859 1.372 . S
C4859 C4858 1.372 . S
C4859 C4860 1.400 . S
C4859 C4864 1.490 . S
C4860 H4850 0.930 . S
C4860 C4859 1.400 . S
C4860 C4863 1.386 . S
H4861 C4877 0.930 . S
H4862 C4878 0.931 . S
C4863 H4851 0.929 . S
C4863 C4857 1.390 . S
C4863 C4860 1.386 . S
C4864 C4859 1.490 . S
C4864 C4866 1.395 . S
C4864 C4867 1.403 . S
H4865 C4871 0.930 . S
C4866 H4852 0.930 . S
C4866 C4864 1.395 . S
C4866 C4869 1.403 . S
C4867 C4864 1.403 . S
C4867 C4868 1.524 . S
C4867 C4871 1.400 . S
C4868 H4853 0.960 . S
C4868 H4854 0.960 . S
C4868 H4855 0.960 . S
C4868 C4867 1.524 . S
C4869 C4866 1.403 . S
C4869 C4870 1.392 . S
C4869 C4873 1.495 . S
C4870 C4869 1.392 . S
C4870 C4871 1.385 . S
C4870 C4872 1.478 . S
C4871 H4865 0.930 . S
C4871 C4867 1.400 . S
C4871 C4870 1.385 . S
C4872 C4870 1.478 . S
C4872 C4874 1.381 . S
C4872 C4878 1.383 . S
C4873 C4869 1.495 . S
C4873 H4879 0.959 . S
C4873 H4880 0.961 . S
C4873 H4881 0.960 . S
C4874 C4872 1.381 . S
C4874 C4875 1.394 . S
C4874 H4882 0.930 . S
C4875 C4874 1.394 . S
C4875 C4876 1.383 . S
C4875 H4883 0.929 . S
C4876 C4875 1.383 . S
C4876 C4877 1.377 . S
C4877 H4861 0.930 . S
C4877 C4876 1.377 . S
C4877 C4878 1.379 . S
C4878 H4862 0.931 . S
C4878 C4872 1.383 . S
C4878 C4877 1.379 . S
H4879 C4873 0.959 . S
H4880 C4873 0.961 . S
H4881 C4873 0.960 . S
H4882 C4874 0.930 . S
H4883 C4875 0.929 . S
H4884 C4892 0.929 . S
H4885 C4894 0.930 . S
H4886 C4896 0.930 . S
H4887 C4899 0.929 . S
H4888 C4902 0.930 . S
H4889 C4904 0.960 . S
H4890 C4904 0.960 . S
H4891 C4904 0.960 . S
C4892 H4884 0.929 . S
C4892 C4893 1.377 . S
C4892 C4894 1.384 . S
C4893 C4892 1.377 . S
C4893 C4899 1.390 . S
C4894 H4885 0.930 . S
C4894 C4892 1.384 . S
C4894 C4895 1.372 . S
C4895 C4894 1.372 . S
C4895 C4896 1.400 . S
C4895 C4900 1.490 . S
C4896 H4886 0.930 . S
C4896 C4895 1.400 . S
C4896 C4899 1.386 . S
H4897 C4913 0.930 . S
H4898 C4914 0.931 . S
C4899 H4887 0.929 . S
C4899 C4893 1.390 . S
C4899 C4896 1.386 . S
C4900 C4895 1.490 . S
C4900 C4902 1.395 . S
C4900 C4903 1.403 . S
H4901 C4907 0.930 . S
C4902 H4888 0.930 . S
C4902 C4900 1.395 . S
C4902 C4905 1.403 . S
C4903 C4900 1.403 . S
C4903 C4904 1.524 . S
C4903 C4907 1.400 . S
C4904 H4889 0.960 . S
C4904 H4890 0.960 . S
C4904 H4891 0.960 . S
C4904 C4903 1.524 . S
C4905 C4902 1.403 . S
C4905 C4906 1.392 . S
C4905 C4909 1.495 . S
C4906 C4905 1.392 . S
C4906 C4907 1.385 . S
C4906 C4908 1.478 . S
C4907 H4901 0.930 . S
C4907 C4903 1.400 . S
C4907 C4906 1.385 . S
C4908 C4906 1.478 . S
C4908 C4910 1.381 . S
C4908 C4914 1.383 . S
C4909 C4905 1.495 . S
C4909 H4915 0.959 . S
C4909 H4916 0.961 . S
C4909 H4917 0.960 . S
C4910 C4908 1.381 . S
C4910 C4911 1.394 . S
C4910 H4918 0.930 . S
C4911 C4910 1.394 . S
C4911 C4912 1.383 . S
C4911 H4919 0.929 . S
C4912 C4911 1.383 . S
C4912 C4913 1.377 . S
C4913 H4897 0.930 . S
C4913 C4912 1.377 . S
C4913 C4914 1.379 . S
C4914 H4898 0.931 . S
C4914 C4908 1.383 . S
C4914 C4913 1.379 . S
H4915 C4909 0.959 . S
H4916 C4909 0.961 . S
H4917 C4909 0.960 . S
H4918 C4910 0.930 . S
H4919 C4911 0.929 . S
H4920 C4928 0.929 . S
H4921 C4930 0.930 . S
H4922 C4932 0.930 . S
H4923 C4935 0.929 . S
H4924 C4938 0.930 . S
H4925 C4940 0.960 . S
H4926 C4940 0.960 . S
H4927 C4940 0.960 . S
C4928 H4920 0.929 . S
C4928 C4929 1.377 . S
C4928 C4930 1.384 . S
C4929 C4928 1.377 . S
C4929 C4935 1.390 . S
C4930 H4921 0.930 . S
C4930 C4928 1.384 . S
C4930 C4931 1.372 . S
C4931 C4930 1.372 . S
C4931 C4932 1.400 . S
C4931 C4936 1.490 . S
C4932 H4922 0.930 . S
C4932 C4931 1.400 . S
C4932 C4935 1.386 . S
H4933 C4949 0.930 . S
H4934 C4950 0.931 . S
C4935 H4923 0.929 . S
C4935 C4929 1.390 . S
C4935 C4932 1.386 . S
C4936 C4931 1.490 . S
C4936 C4938 1.395 . S
C4936 C4939 1.403 . S
H4937 C4943 0.930 . S
C4938 H4924 0.930 . S
C4938 C4936 1.395 . S
C4938 C4941 1.403 . S
C4939 C4936 1.403 . S
C4939 C4940 1.524 . S
C4939 C4943 1.400 . S
C4940 H4925 0.960 . S
C4940 H4926 0.960 . S
C4940 H4927 0.960 . S
C4940 C4939 1.524 . S
C4941 C4938 1.403 . S
C4941 C4942 1.392 . S
C4941 C4945 1.495 . S
C4942 C4941 1.392 . S
C4942 C4943 1.385 . S
C4942 C4944 1.478 . S
C4943 H4937 0.930 . S
C4943 C4939 1.400 . S
C4943 C4942 1.385 . S
C4944 C4942 1.478 . S
C4944 C4946 1.381 . S
C4944 C4950 1.383 . S
C4945 C4941 1.495 . S
C4945 H4951 0.959 . S
C4945 H4952 0.961 . S
C4945 H4953 0.960 . S
C4946 C4944 1.381 . S
C4946 C4947 1.394 . S
C4946 H4954 0.930 . S
C4947 C4946 1.394 . S
C4947 C4948 1.383 . S
C4947 H4955 0.929 . S
C4948 C4947 1.383 . S
C4948 C4949 1.377 . S
C4949 H4933 0.930 . S
C4949 C4948 1.377 . S
C4949 C4950 1.379 . S
C4950 H4934 0.931 . S
C4950 C4944 1.383 . S
C4950 C4949 1.379 . S
H4951 C4945 0.959 . S
H4952 C4945 0.961 . S
H4953 C4945 0.960 . S
H4954 C4946 0.930 . S
H4955 C4947 0.929 . S
H4956 C4964 0.929 . S
H4957 C4966 0.930 . S
H4958 C4968 0.930 . S
H4959 C4971 0.929 . S
H4960 C4974 0.930 . S
H4961 C4976 0.960 . S
H4962 C4976 0.960 . S
H4963 C4976 0.960 . S
C4964 H4956 0.929 . S
C4964 C4965 1.377 . S
C4964 C4966 1.384 . S
C4965 C4964 1.377 . S
C4965 C4971 1.390 . S
C4966 H4957 0.930 . S
C4966 C4964 1.384 . S
C4966 C4967 1.372 . S
C4967 C4966 1.372 . S
C4967 C4968 1.400 . S
C4967 C4972 1.490 . S
C4968 H4958 0.930 . S
C4968 C4967 1.400 . S
C4968 C4971 1.386 . S
H4969 C4985 0.930 . S
H4970 C4986 0.931 . S
C4971 H4959 0.929 . S
C4971 C4965 1.390 . S
C4971 C4968 1.386 . S
C4972 C4967 1.490 . S
C4972 C4974 1.395 . S
C4972 C4975 1.403 . S
H4973 C4979 0.930 . S
C4974 H4960 0.930 . S
C4974 C4972 1.395 . S
C4974 C4977 1.403 . S
C4975 C4972 1.403 . S
C4975 C4976 1.524 . S
C4975 C4979 1.400 . S
C4976 H4961 0.960 . S
C4976 H4962 0.960 . S
C4976 H4963 0.960 . S
C4976 C4975 1.524 . S
C4977 C4974 1.403 . S
C4977 C4978 1.392 . S
C4977 C4981 1.495 . S
C4978 C4977 1.392 . S
C4978 C4979 1.385 . S
C4978 C4980 1.478 . S
C4979 H4973 0.930 . S
C4979 C4975 1.400 . S
C4979 C4978 1.385 . S
C4980 C4978 1.478 . S
C4980 C4982 1.381 . S
C4980 C4986 1.383 . S
C4981 C4977 1.495 . S
C4981 H4987 0.959 . S
C4981 H4988 0.961 . S
C4981 H4989 0.960 . S
C4982 C4980 1.381 . S
C4982 C4983 1.394 . S
C4982 H4990 0.930 . S
C4983 C4982 1.394 . S
C4983 C4984 1.383 . S
C4983 H4991 0.929 . S
C4984 C4983 1.383 . S
C4984 C4985 1.377 . S
C4985 H4969 0.930 . S
C4985 C4984 1.377 . S
C4985 C4986 1.379 . S
C4986 H4970 0.931 . S
C4986 C4980 1.383 . S
C4986 C4985 1.379 . S
H4987 C4981 0.959 . S
H4988 C4981 0.961 . S
H4989 C4981 0.960 . S
H4990 C4982 0.930 . S
H4991 C4983 0.929 . S
H4992 C5000 0.929 . S
H4993 C5002 0.930 . S
H4994 C5004 0.930 . S
H4995 C5007 0.929 . S
H4996 C5010 0.930 . S
H4997 C5012 0.960 . S
H4998 C5012 0.960 . S
H4999 C5012 0.960 . S
C5000 H4992 0.929 . S
C5000 C5001 1.377 . S
C5000 C5002 1.384 . S
C5001 C5000 1.377 . S
C5001 C5007 1.390 . S
C5002 H4993 0.930 . S
C5002 C5000 1.384 . S
C5002 C5003 1.372 . S
C5003 C5002 1.372 . S
C5003 C5004 1.400 . S
C5003 C5008 1.490 . S
C5004 H4994 0.930 . S
C5004 C5003 1.400 . S
C5004 C5007 1.386 . S
H5005 C5021 0.930 . S
H5006 C5022 0.931 . S
C5007 H4995 0.929 . S
C5007 C5001 1.390 . S
C5007 C5004 1.386 . S
C5008 C5003 1.490 . S
C5008 C5010 1.395 . S
C5008 C5011 1.403 . S
H5009 C5015 0.930 . S
C5010 H4996 0.930 . S
C5010 C5008 1.395 . S
C5010 C5013 1.403 . S
C5011 C5008 1.403 . S
C5011 C5012 1.524 . S
C5011 C5015 1.400 . S
C5012 H4997 0.960 . S
C5012 H4998 0.960 . S
C5012 H4999 0.960 . S
C5012 C5011 1.524 . S
C5013 C5010 1.403 . S
C5013 C5014 1.392 . S
C5013 C5017 1.495 . S
C5014 C5013 1.392 . S
C5014 C5015 1.385 . S
C5014 C5016 1.478 . S
C5015 H5009 0.930 . S
C5015 C5011 1.400 . S
C5015 C5014 1.385 . S
C5016 C5014 1.478 . S
C5016 C5018 1.381 . S
C5016 C5022 1.383 . S
C5017 C5013 1.495 . S
C5017 H5023 0.959 . S
C5017 H5024 0.961 . S
C5017 H5025 0.960 . S
C5018 C5016 1.381 . S
C5018 C5019 1.394 . S
C5018 H5026 0.930 . S
C5019 C5018 1.394 . S
C5019 C5020 1.383 . S
C5019 H5027 0.929 . S
C5020 C5019 1.383 . S
C5020 C5021 1.377 . S
C5021 H5005 0.930 . S
C5021 C5020 1.377 . S
C5021 C5022 1.379 . S
C5022 H5006 0.931 . S
C5022 C5016 1.383 . S
C5022 C5021 1.379 . S
H5023 C5017 0.959 . S
H5024 C5017 0.961 . S
H5025 C5017 0.960 . S
H5026 C5018 0.930 . S
H5027 C5019 0.929 . S
H5028 C5036 0.929 . S
H5029 C5038 0.981 . S
H5030 C5040 0.930 . S
H5031 C5043 0.929 . S
H5032 C5046 0.930 . S
H5033 C5048 0.960 . S
H5034 C5048 0.960 . S
H5035 C5048 0.960 . S
C5036 H5028 0.929 . S
C5036 C5037 1.377 . S
C5036 C5038 1.384 . S
C5037 C5036 1.377 . S
C5037 C5043 1.390 . S
C5038 H5029 0.981 . S
C5038 C5036 1.384 . S
C5038 C5039 1.372 . S
C5039 C5038 1.372 . S
C5039 C5040 1.400 . S
C5039 C5044 1.490 . S
C5040 H5030 0.930 . S
C5040 C5039 1.400 . S
C5040 C5043 1.386 . S
H5041 C5057 0.930 . S
H5042 C5058 0.931 . S
C5043 H5031 0.929 . S
C5043 C5037 1.390 . S
C5043 C5040 1.386 . S
C5044 C5039 1.490 . S
C5044 C5046 1.395 . S
C5044 C5047 1.403 . S
H5045 C5051 0.930 . S
C5046 H5032 0.930 . S
C5046 C5044 1.395 . S
C5046 C5049 1.403 . S
C5047 C5044 1.403 . S
C5047 C5048 1.524 . S
C5047 C5051 1.400 . S
C5048 H5033 0.960 . S
C5048 H5034 0.960 . S
C5048 H5035 0.960 . S
C5048 C5047 1.524 . S
C5049 C5046 1.403 . S
C5049 C5050 1.392 . S
C5049 C5053 1.495 . S
C5050 C5049 1.392 . S
C5050 C5051 1.385 . S
C5050 C5052 1.478 . S
C5051 H5045 0.930 . S
C5051 C5047 1.400 . S
C5051 C5050 1.385 . S
C5052 C5050 1.478 . S
C5052 C5054 1.381 . S
C5052 C5058 1.383 . S
C5053 C5049 1.495 . S
C5053 H5059 0.971 . S
C5053 H5060 0.961 . S
C5053 H5061 0.960 1_554 S
C5054 C5052 1.381 . S
C5054 C5055 1.394 . S
C5054 H5062 0.930 1_554 S
C5055 C5054 1.394 . S
C5055 C5056 1.383 . S
C5055 H5063 0.929 1_554 S
C5056 C5055 1.383 . S
C5056 C5057 1.377 . S
C5057 H5041 0.930 . S
C5057 C5056 1.377 . S
C5057 C5058 1.379 . S
C5058 H5042 0.931 . S
C5058 C5052 1.383 . S
C5058 C5057 1.379 . S
H5059 C5053 0.971 . S
H5060 C5053 0.961 . S
H5061 C5053 0.960 1_556 S
H5062 C5054 0.930 1_556 S
H5063 C5055 0.929 1_556 S
H5064 C5072 0.929 . S
H5065 C5074 0.930 . S
H5066 C5076 0.930 . S
H5067 C5079 0.929 . S
H5068 C5082 0.930 . S
H5069 C5084 0.960 . S
H5070 C5084 0.960 . S
H5071 C5084 0.960 . S
C5072 H5064 0.929 . S
C5072 C5073 1.377 . S
C5072 C5074 1.384 . S
C5073 C5072 1.377 . S
C5073 C5079 1.390 . S
C5074 H5065 0.930 . S
C5074 C5072 1.384 . S
C5074 C5075 1.372 . S
C5075 C5074 1.372 . S
C5075 C5076 1.400 . S
C5075 C5080 1.490 . S
C5076 H5066 0.930 . S
C5076 C5075 1.400 . S
C5076 C5079 1.386 . S
H5077 C5093 0.930 . S
H5078 C5094 0.931 . S
C5079 H5067 0.929 . S
C5079 C5073 1.390 . S
C5079 C5076 1.386 . S
C5080 C5075 1.490 . S
C5080 C5082 1.395 . S
C5080 C5083 1.403 . S
H5081 C5087 0.930 . S
C5082 H5068 0.930 . S
C5082 C5080 1.395 . S
C5082 C5085 1.403 . S
C5083 C5080 1.403 . S
C5083 C5084 1.524 . S
C5083 C5087 1.400 . S
C5084 H5069 0.960 . S
C5084 H5070 0.960 . S
C5084 H5071 0.960 . S
C5084 C5083 1.524 . S
C5085 C5082 1.403 . S
C5085 C5086 1.392 . S
C5085 C5089 1.495 . S
C5086 C5085 1.392 . S
C5086 C5087 1.385 . S
C5086 C5088 1.478 . S
C5087 H5081 0.930 . S
C5087 C5083 1.400 . S
C5087 C5086 1.385 . S
C5088 C5086 1.478 . S
C5088 C5090 1.381 . S
C5088 C5094 1.383 . S
C5089 C5085 1.495 . S
C5089 H5095 0.959 . S
C5089 H5096 0.961 . S
C5089 H5097 0.960 . S
C5090 C5088 1.381 . S
C5090 C5091 1.394 . S
C5090 H5098 0.930 . S
C5091 C5090 1.394 . S
C5091 C5092 1.383 . S
C5091 H5099 0.929 . S
C5092 C5091 1.383 . S
C5092 C5093 1.377 . S
C5093 H5077 0.930 . S
C5093 C5092 1.377 . S
C5093 C5094 1.379 . S
C5094 H5078 0.931 . S
C5094 C5088 1.383 . S
C5094 C5093 1.379 . S
H5095 C5089 0.959 . S
H5096 C5089 0.961 . S
H5097 C5089 0.960 . S
H5098 C5090 0.930 . S
H5099 C5091 0.929 . S
H5100 C5108 0.929 . S
H5101 C5110 0.930 . S
H5102 C5112 0.930 . S
H5103 C5115 0.929 . S
H5104 C5118 0.930 . S
H5105 C5120 0.960 . S
H5106 C5120 0.960 . S
H5107 C5120 0.960 . S
C5108 H5100 0.929 . S
C5108 C5109 1.377 . S
C5108 C5110 1.384 . S
C5109 C5108 1.377 . S
C5109 C5115 1.390 . S
C5110 H5101 0.930 . S
C5110 C5108 1.384 . S
C5110 C5111 1.372 . S
C5111 C5110 1.372 . S
C5111 C5112 1.400 . S
C5111 C5116 1.490 . S
C5112 H5102 0.930 . S
C5112 C5111 1.400 . S
C5112 C5115 1.386 . S
H5113 C5129 0.930 . S
H5114 C5130 0.931 . S
C5115 H5103 0.929 . S
C5115 C5109 1.390 . S
C5115 C5112 1.386 . S
C5116 C5111 1.490 . S
C5116 C5118 1.395 . S
C5116 C5119 1.403 . S
H5117 C5123 0.930 . S
C5118 H5104 0.930 . S
C5118 C5116 1.395 . S
C5118 C5121 1.403 . S
C5119 C5116 1.403 . S
C5119 C5120 1.524 . S
C5119 C5123 1.400 . S
C5120 H5105 0.960 . S
C5120 H5106 0.960 . S
C5120 H5107 0.960 . S
C5120 C5119 1.524 . S
C5121 C5118 1.403 . S
C5121 C5122 1.392 . S
C5121 C5125 1.495 . S
C5122 C5121 1.392 . S
C5122 C5123 1.385 . S
C5122 C5124 1.478 . S
C5123 H5117 0.930 . S
C5123 C5119 1.400 . S
C5123 C5122 1.385 . S
C5124 C5122 1.478 . S
C5124 C5126 1.381 . S
C5124 C5130 1.383 . S
C5125 C5121 1.495 . S
C5125 H5131 0.959 . S
C5125 H5132 0.961 . S
C5125 H5133 0.960 . S
C5126 C5124 1.381 . S
C5126 C5127 1.394 . S
C5126 H5134 0.930 . S
C5127 C5126 1.394 . S
C5127 C5128 1.383 . S
C5127 H5135 0.929 . S
C5128 C5127 1.383 . S
C5128 C5129 1.377 . S
C5129 H5113 0.930 . S
C5129 C5128 1.377 . S
C5129 C5130 1.379 . S
C5130 H5114 0.931 . S
C5130 C5124 1.383 . S
C5130 C5129 1.379 . S
H5131 C5125 0.959 . S
H5132 C5125 0.961 . S
H5133 C5125 0.960 . S
H5134 C5126 0.930 . S
H5135 C5127 0.929 . S
C1689 C111 1.886 . S
C1708 C392 1.906 . S
C1725 C64 1.792 . S
C1744 C494 1.824 . S
C1761 C77 1.682 . S
C1780 C560 1.673 . S
C1816 C646 1.237 . S
C1797 C95 1.373 . S
C1833 C25 1.386 . S
C1852 C730 1.318 . S
C1888 C812 1.767 . S
C1869 C36 1.691 . S
C1924 C914 1.804 . S
C1905 C50 1.771 . S
C1941 C11 1.827 . S
C1960 C980 1.833 . S
C1996 C410 1.451 . S
C1977 C237 1.407 . S
C2013 C245 0.808 . S
C2032 C478 0.748 . S
C2068 C578 0.969 . S
C2049 C279 0.922 . S
C2104 C644 1.492 . S
C2085 C175 1.497 1_556 S
C2121 C231 1.454 . S
C2140 C728 1.446 . S
C2176 C830 0.927 . S
C2157 C251 0.908 . S
C2212 C898 0.791 . S
C2193 C273 0.844 . S
C2248 C998 1.411 . S
C2229 C181 1.415 . S
C2284 C394 0.774 . S
C2265 C165 0.768 1_554 S
C2301 C288 1.618 . S
C2320 C1082 1.665 . S
C2356 C1150 1.254 . S
C2337 C333 1.298 . S
C2392 C1232 0.745 . S
C2373 C316 0.734 . S
C2409 C123 0.745 . S
C2428 C982 0.718 . S
C2445 C137 1.256 . S
C2464 C562 1.197 . S
C2481 C330 1.619 . S
C2500 C1334 1.669 . S
C2536 C1400 0.736 . S
C2517 C302 0.754 . S
C2572 C403 2.071 . S
C2553 C63 2.076 . S
C2608 C1407 1.906 . S
C2589 C106 1.906 . S
C2625 C97 1.719 . S
C2644 C571 1.786 . S
C2661 C81 1.444 . S
C2680 C1329 1.370 . S
C2716 C741 1.361 . S
C2697 C13 1.445 . S
C2733 C55 1.715 . S
C2752 C1159 1.786 . S
C2788 C903 1.828 . S
C2769 C35 1.803 . S
C2824 C1495 2.071 . S
C2805 C21 2.072 . S
C2860 C399 1.611 . S
C2841 C147 1.639 . S
C2896 C1413 0.808 . S
C2877 C321 0.814 . S
C2913 C119 1.032 . S
C2932 C567 1.024 . S
C2949 C293 1.537 . S
C2968 C1327 1.627 . S
C2985 C153 1.538 . S
C3004 C739 1.622 . S
C3040 C1155 1.018 . S
C3021 C315 1.043 . S
C3057 C125 0.824 . S
C3076 C909 0.832 . S
C3093 C287 1.631 . S
C3112 C1491 1.581 . S
C3129 C193 0.843 . S
C3148 C405 0.863 . S
C3165 C176 1.697 . S
C3184 C1071 1.703 . S
C3201 C263 1.271 . S
C3220 C825 1.170 . S
C3237 C246 0.895 . S
C3256 C1243 0.918 . S
C3292 C1497 0.831 . S
C3273 C277 0.855 1_565 S
C3309 C221 1.288 . S
C3328 C573 1.172 . S
C3364 C651 1.713 . S
C3345 C260 1.718 . S
C3400 C487 0.918 . S
C3381 C204 0.885 . S
C3417 C83 1.883 . S
C3436 C1568 1.900 . S
C3472 C1418 1.847 . S
C3453 C92 1.783 . S
C3489 C105 1.676 . S
C3508 C1652 1.671 . S
C3525 C67 1.374 . S
C3544 C1318 1.267 . S
C3561 C53 1.384 . S
C3580 C1066 1.232 . S
C3616 C1148 1.770 . S
C3597 C8 1.687 1_655 S
C3652 C1250 1.824 . S
C3633 C22 1.763 . S
C3688 C1484 1.825 . S
C3669 C39 1.829 . S
C3724 C1586 1.428 . S
C3705 C265 1.417 . S
C3741 C189 0.806 . S
C3760 C1402 0.781 . S
C3796 C1670 0.941 . S
C3777 C209 0.902 . S
C3832 C1316 1.499 . S
C3813 C217 1.498 . S
C3868 C1064 1.445 . S
C3849 C259 1.451 . S
C3885 C195 0.925 . S
C3904 C1166 0.946 . S
C3940 C1234 0.831 . S
C3921 C203 0.841 . S
C3957 C223 1.414 . S
C3976 C1502 1.412 . S
C4012 C1570 0.763 . S
C3993 C319 0.779 . S
C4029 C134 1.620 . S
C4048 C746 1.652 . S
C4084 C814 1.198 . S
C4065 C151 1.295 . S
C4120 C896 0.739 . S
C4101 C162 0.740 . S
C4156 C1486 0.759 . S
C4137 C305 0.747 . S
C4173 C291 1.257 . S
C4192 C1654 1.214 . S
C4228 C662 1.656 . S
C4209 C148 1.623 . S
C4264 C476 0.741 . S
C4245 C120 0.753 . S
C4281 C91 2.077 . S
C4300 C1579 2.076 . S
C4336 C483 1.886 . S
C4317 C78 1.899 . S
C4353 C69 1.717 . S
C4372 C1663 1.787 . S
C4389 C109 1.446 . S
C4408 C657 1.312 . S
C4425 C41 1.436 . S
C4444 C1077 1.384 . S
C4480 C823 1.785 . S
C4461 C27 1.716 . S
C4497 C7 1.807 . S
C4516 C1239 1.793 . S
C4533 C49 2.071 . S
C4552 C991 2.069 . S
C4588 C1575 1.581 . S
C4569 C329 1.640 . S
C4605 C167 0.836 . S
C4624 C489 0.791 . S
C4660 C1659 1.011 1_655 S
C4641 C301 1.035 . S
C4677 C139 1.537 . S
C4696 C655 1.625 . S
C4713 C335 1.550 . S
C4732 C1075 1.622 . S
C4768 C819 1.014 . S
C4749 C161 1.053 . S
C4785 C307 0.825 . S
C4804 C1245 0.848 . S
C4840 C987 1.568 . S
C4821 C133 1.631 . S
C4876 C1581 0.891 . S
C4857 C249 0.842 . S
C4912 C735 1.705 1_565 S
C4893 C218 1.693 . S
C4929 C235 1.269 . S
C4948 C1161 1.177 . S
C4984 C907 0.925 . S
C4965 C190 0.908 . S
C5001 C207 0.864 . S
C5020 C993 0.783 . S
C5037 C179 1.283 . S
C5056 C1665 1.197 . S
C5092 C1323 1.718 . S
C5073 C232 1.720 . S
C5128 C1411 0.919 . S
C5109 C274 0.887 . S
