# Generated by pormake.
# Topology nia, (6,6)-cn, num edge types: 1
# Building blocks:
#     Node 0, Type 0, BuildingBlock: NUHQIS_clean_sbu_0, # of connection points: 6
#     Node 1, Type 0, BuildingBlock: NUHQIS_clean_sbu_0, # of connection points: 6
#     Node 2, Type 1, BuildingBlock: MIDCAF_clean_sbu_0, # of connection points: 6
#     Node 3, Type 1, BuildingBlock: MIDCAF_clean_sbu_0, # of connection points: 6
#     Edge 4, Type (0, 1), BuildingBlock: TEMPAE_clean_linker_10, # of connection points: 2
#     Edge 5, Type (0, 1), BuildingBlock: TEMPAE_clean_linker_10, # of connection points: 2
#     Edge 6, Type (0, 1), BuildingBlock: TEMPAE_clean_linker_10, # of connection points: 2
#     Edge 7, Type (0, 1), BuildingBlock: TEMPAE_clean_linker_10, # of connection points: 2
#     Edge 8, Type (0, 1), BuildingBlock: TEMPAE_clean_linker_10, # of connection points: 2
#     Edge 9, Type (0, 1), BuildingBlock: TEMPAE_clean_linker_10, # of connection points: 2
#     Edge 10, Type (0, 1), BuildingBlock: TEMPAE_clean_linker_10, # of connection points: 2
#     Edge 11, Type (0, 1), BuildingBlock: TEMPAE_clean_linker_10, # of connection points: 2
#     Edge 12, Type (0, 1), BuildingBlock: TEMPAE_clean_linker_10, # of connection points: 2
#     Edge 13, Type (0, 1), BuildingBlock: TEMPAE_clean_linker_10, # of connection points: 2
#     Edge 14, Type (0, 1), BuildingBlock: TEMPAE_clean_linker_10, # of connection points: 2
#     Edge 15, Type (0, 1), BuildingBlock: TEMPAE_clean_linker_10, # of connection points: 2
# Relax obj value: 0.211
# Max RMSD: 0.279
# Mean RMSD: 0.215
data_MOF--net-nia--node1-NUHQIS_clean_sbu_0--node2-MIDCAF_clean_sbu_0--edge1-TEMPAE_clean_linker_10
_symmetry_space_group_name_H-M    P1
_symmetry_Int_Tables_number       1
_symmetry_cell_setting            triclinic
loop_
_symmetry_equiv_pos_as_xyz
'x, y, z'
_cell_length_a     29.028491
_cell_length_b     29.094546
_cell_length_c     33.159395
_cell_angle_alpha  91.111374
_cell_angle_beta   91.145077
_cell_angle_gamma 135.53995
loop_
_atom_site_label
_atom_site_type_symbol
_atom_site_fract_x
_atom_site_fract_y
_atom_site_fract_z
_atom_type_partial_charge
Tb0 Tb 0.98024 0.02404 0.97379 0.0
Eu1 Eu 0.038 0.99081 0.04104 0.0
C2 C 0.11708 0.07461 0.96543 0.0
C3 C 0.95661 0.90085 0.96152 0.0
C4 C 0.92118 0.08336 0.91101 0.0
C5 C 0.92791 0.15326 0.86676 0.0
C6 C 0.94884 0.12457 0.87839 0.0
C7 C 0.8737 0.07304 0.93291 0.0
C8 C 0.85252 0.10175 0.92117 0.0
C9 C 0.87838 0.14093 0.88736 0.0
C10 C 0.93956 0.04843 0.91896 0.0
O11 O 0.9226 -0.00396 0.02625 0.0
O12 O 0.9317 0.9304 0.05243 0.0
O13 O 0.05577 0.07218 0.07031 0.0
O14 O 0.04374 0.11086 0.01504 0.0
C15 C 0.90297 0.95034 0.0506 0.0
O16 O 0.01998 0.93305 0.09113 0.0
O17 O 0.11866 0.00974 0.07025 0.0
O18 O 0.12225 0.07337 1.00463 0.0
O19 O 0.05992 0.04263 0.94727 0.0
O20 O 0.92988 0.92297 0.96136 0.0
O21 O 0.007 0.92691 0.98598 0.0
C22 C 0.06205 0.11642 0.05302 0.0
O23 O 0.00162 0.08473 0.92787 0.0
O24 O 0.90081 -0.00374 0.94026 0.0
C25 C 0.091 0.91914 0.10021 0.0
C26 C 0.11603 0.84461 0.12071 0.0
C27 C 0.05299 0.81867 0.12443 0.0
C28 C 0.04062 0.85558 0.11435 0.0
C29 C 0.15357 0.94438 0.09557 0.0
C30 C 0.16586 0.90742 0.10555 0.0
C31 C 0.0805 0.96144 0.09438 0.0
H32 H 0.94969 0.18418 0.84108 0.0
H33 H 0.98559 0.13323 0.86114 0.0
H34 H 0.85168 0.04148 0.95828 0.0
H35 H 0.8141 0.09115 0.93753 0.0
H36 H 0.01348 0.7702 0.13574 0.0
H37 H -0.00798 0.83492 0.11868 0.0
H38 H 0.19371 -0.00643 0.08539 0.0
H39 H 0.21522 0.92918 0.10293 0.0
Tb40 Tb 0.97678 0.0221 0.54025 0.0
Eu41 Eu 0.0557 0.00024 0.48838 0.0
C42 C 0.95169 0.8982 0.55148 0.0
C43 C 0.10535 0.06824 0.57615 0.0
C44 C 0.89642 0.06865 0.59175 0.0
C45 C 0.86521 0.10515 0.64006 0.0
C46 C 0.89036 0.07957 0.6317 0.0
C47 C 0.87874 0.08546 0.55995 0.0
C48 C 0.85368 0.11156 0.56834 0.0
C49 C 0.84565 0.12052 0.60854 0.0
C50 C 0.91887 0.03726 0.58519 0.0
O51 O 0.05212 0.11421 0.51009 0.0
O52 O 0.06417 0.07298 0.45665 0.0
O53 O 0.95506 0.93699 0.45816 0.0
O54 O 0.93507 -0.00288 0.4787 0.0
C55 C 0.07186 0.11929 0.47353 0.0
O56 O 0.14251 0.04495 0.45489 0.0
O57 O 0.06208 0.93841 0.45725 0.0
O58 O 0.01 0.92961 0.53839 0.0
O59 O 0.92516 0.92007 0.54566 0.0
O60 O 0.04401 0.03503 0.5824 0.0
O61 O 0.12433 0.07291 0.53961 0.0
C62 C 0.9243 0.9544 0.45359 0.0
O63 O 0.88876 0.99081 0.55689 0.0
O64 O 0.98217 0.0752 0.58737 0.0
C65 C 0.16737 0.9844 0.4398 0.0
C66 C 0.24033 0.95908 0.41655 0.0
C67 C 0.25026 0.00877 0.3987 0.0
C68 C 0.21417 0.02141 0.41034 0.0
C69 C 0.16108 0.93831 0.46004 0.0
C70 C 0.19773 0.92598 0.44857 0.0
C71 C 0.12 0.98844 0.44378 0.0
H72 H 0.86064 0.11254 0.67129 0.0
H73 H 0.90412 0.06718 0.65661 0.0
H74 H 0.88329 0.07747 0.52887 0.0
H75 H 0.83886 0.12294 0.5435 0.0
H76 H 0.28292 0.03496 0.374 0.0
H77 H 0.21969 0.05716 0.39437 0.0
H78 H 0.12526 0.90922 0.48293 0.0
H79 H 0.18896 0.88708 0.46254 0.0
Zn80 Zn 0.35563 0.64039 0.15667 0.0
Zn81 Zn 0.38156 0.66358 0.33733 0.0
Zn82 Zn 0.37568 0.64767 0.26408 0.0
C83 C 0.51048 0.73698 0.31126 0.0
C84 C 0.31124 0.53671 0.3333 0.0
O85 O 0.32746 0.67649 0.23742 0.0
O86 O 0.31871 0.67512 0.16955 0.0
C87 C 0.48979 0.71783 0.19448 0.0
O88 O 0.48189 0.71157 0.27599 0.0
O89 O 0.47721 0.72594 0.34063 0.0
O90 O 0.33692 0.58042 0.36085 0.0
O91 O 0.31829 0.55135 0.29581 0.0
O92 O 0.45212 0.70085 0.16415 0.0
O93 O 0.46931 0.70119 0.23097 0.0
O94 O 0.30754 0.5409 0.2555 0.0
O95 O 0.32547 0.58219 0.19882 0.0
C96 C 0.29759 0.5318 0.21746 0.0
O97 O 0.34608 0.69835 0.28011 0.0
O98 O 0.34491 0.69842 0.34669 0.0
C99 C 0.3092 0.68455 0.2046 0.0
C100 C 0.33627 0.71264 0.31375 0.0
Zn101 Zn 0.66401 0.37116 0.85693 0.0
Zn102 Zn 0.59092 0.32677 0.68066 0.0
Zn103 Zn 0.63928 0.36561 0.7538 0.0
C104 C 0.68378 0.46447 0.683 0.0
C105 C 0.48516 0.2678 0.72611 0.0
O106 O 0.68297 0.32929 0.77246 0.0
O107 O 0.6878 0.32518 0.84003 0.0
C108 C 0.72651 0.48736 0.79825 0.0
O109 O 0.69073 0.45701 0.72016 0.0
O110 O 0.64192 0.41464 0.65935 0.0
O111 O 0.49677 0.26798 0.68968 0.0
O112 O 0.53236 0.30243 0.75332 0.0
O113 O 0.70193 0.44168 0.82119 0.0
O114 O 0.71087 0.47216 0.76073 0.0
O115 O 0.55553 0.3203 0.79446 0.0
O116 O 0.56969 0.31825 0.86104 0.0
C117 C 0.5342 0.30521 0.8307 0.0
O118 O 0.66688 0.31686 0.72907 0.0
O119 O 0.62032 0.28524 0.6675 0.0
C120 C 0.69617 0.31536 0.80477 0.0
C121 C 0.65438 0.28869 0.69418 0.0
C122 C 0.17059 0.80691 0.11245 0.0
C123 C 0.13145 0.80857 0.135 0.0
C124 C 0.19126 0.77907 0.12758 0.0
C125 C 0.17376 0.75373 0.16664 0.0
C126 C 0.13061 0.75129 0.1884 0.0
C127 C 0.10999 0.77879 0.17228 0.0
C128 C 0.23232 0.77725 0.10182 0.0
C129 C 0.10518 0.71924 0.22836 0.0
C130 C 0.20458 0.65114 0.19308 0.0
C131 C 0.27097 0.69993 0.20626 0.0
C132 C 0.17077 0.6672 0.18194 0.0
C133 C 0.20416 0.73371 0.18497 0.0
C134 C 0.2701 0.78255 0.20121 0.0
C135 C 0.30303 0.76505 0.21114 0.0
C136 C 0.10101 0.61348 0.1644 0.0
C137 C 0.30842 0.85431 0.20473 0.0
H138 H 0.18555 0.82796 0.08304 0.0
H139 H 0.07891 0.77903 0.18963 0.0
H140 H 0.28394 0.81381 0.11421 0.0
H141 H 0.21369 0.72812 0.10213 0.0
H142 H 0.23226 0.78855 0.07003 0.0
H143 H 0.09235 0.74066 0.24696 0.0
H144 H 0.0592 0.66643 0.22269 0.0
H145 H 0.14084 0.723 0.24582 0.0
H146 H 0.18047 0.60085 0.18878 0.0
H147 H 0.35503 0.80292 0.22007 0.0
H148 H 0.09371 0.62944 0.13706 0.0
H149 H 0.06655 0.60151 0.18702 0.0
H150 H 0.08757 0.56777 0.15628 0.0
H151 H 0.33496 0.87811 0.17668 0.0
H152 H 0.34594 0.88 0.23014 0.0
H153 H 0.27605 0.86146 0.20908 0.0
C154 C 0.21947 0.13736 0.6048 0.0
C155 C 0.15256 0.09633 0.61109 0.0
C156 C 0.26459 0.16188 0.6372 0.0
C157 C 0.24224 0.14455 0.67708 0.0
C158 C 0.17495 0.10438 0.68382 0.0
C159 C 0.13093 0.08114 0.65071 0.0
C160 C 0.3361 0.20498 0.6284 0.0
C161 C 0.14923 0.08563 0.72572 0.0
C162 C 0.36928 0.16206 0.72675 0.0
C163 C 0.41714 0.22978 0.73564 0.0
C164 C 0.30504 0.1289 0.71448 0.0
C165 C 0.28992 0.16535 0.71027 0.0
C166 C 0.33434 0.23043 0.72716 0.0
C167 C 0.39828 0.26236 0.73963 0.0
C168 C 0.25787 0.05828 0.69899 0.0
C169 C 0.31874 0.26989 0.72555 0.0
H170 H 0.23671 0.14991 0.57438 0.0
H171 H 0.07926 0.04987 0.65587 0.0
H172 H 0.36795 0.25231 0.64625 0.0
H173 H 0.35111 0.18046 0.63721 0.0
H174 H 0.34559 0.21577 0.59595 0.0
H175 H 0.09462 0.04476 0.72508 0.0
H176 H 0.1698 0.07095 0.74306 0.0
H177 H 0.16471 0.12871 0.74215 0.0
H178 H 0.38405 0.13683 0.7244 0.0
H179 H 0.43543 0.31475 0.74718 0.0
H180 H 0.26198 0.05678 0.66587 0.0
H181 H 0.20623 0.0309 0.70468 0.0
H182 H 0.26942 0.03303 0.71327 0.0
H183 H 0.33113 0.29183 0.69563 0.0
H184 H 0.34809 0.31046 0.74918 0.0
H185 H 0.26566 0.23845 0.72951 0.0
C186 C 0.15194 0.20878 0.09972 0.0
C187 C 0.09311 0.17568 0.0776 0.0
C188 C 0.18233 0.26466 0.12429 0.0
C189 C 0.15172 0.28635 0.12782 0.0
C190 C 0.09112 0.2518 0.10634 0.0
C191 C 0.06302 0.19731 0.08076 0.0
C192 C 0.24805 0.30147 0.14553 0.0
C193 C 0.05628 0.27256 0.1103 0.0
C194 C 0.21668 0.40889 0.21524 0.0
C195 C 0.2585 0.46804 0.19546 0.0
C196 C 0.17966 0.34871 0.19346 0.0
C197 C 0.18619 0.34839 0.15123 0.0
C198 C 0.22862 0.40814 0.13128 0.0
C199 C 0.26366 0.46705 0.15357 0.0
C200 C 0.13388 0.28564 0.21552 0.0
C201 C 0.23839 0.41014 0.08651 0.0
H202 H 0.1749 0.19163 0.09706 0.0
H203 H 0.01687 0.17069 0.064 0.0
H204 H 0.28593 0.35227 0.13497 0.0
H205 H 0.24522 0.30529 0.17854 0.0
H206 H 0.26463 0.27741 0.14 0.0
H207 H 0.00702 0.23729 0.09426 0.0
H208 H 0.05022 0.27697 0.14264 0.0
H209 H 0.08634 0.3216 0.09778 0.0
H210 H 0.21262 0.4096 0.24754 0.0
H211 H 0.2963 0.51274 0.13811 0.0
H212 H 0.14988 0.26069 0.213 0.0
H213 H 0.08334 0.25167 0.20145 0.0
H214 H 0.13223 0.29411 0.24804 0.0
H215 H 0.25745 0.38887 0.07952 0.0
H216 H 0.27339 0.46088 0.0757 0.0
H217 H 0.19066 0.37996 0.06928 0.0
C218 C 0.83601 0.19913 0.6005 0.0
C219 C 0.81515 0.14377 0.61821 0.0
C220 C 0.80956 0.22313 0.61153 0.0
C221 C 0.76155 0.19118 0.64112 0.0
C222 C 0.73877 0.13391 0.65802 0.0
C223 C 0.76588 0.11103 0.64635 0.0
C224 C 0.83335 0.28287 0.59171 0.0
C225 C 0.68483 0.09567 0.68785 0.0
C226 C 0.74118 0.28931 0.69964 0.0
C227 C 0.68063 0.26166 0.68326 0.0
C228 C 0.7688 0.26757 0.68588 0.0
C229 C 0.73514 0.21743 0.65474 0.0
C230 C 0.6748 0.19065 0.63746 0.0
C231 C 0.64793 0.2124 0.65231 0.0
C232 C 0.83557 0.30107 0.70332 0.0
C233 C 0.63966 0.14066 0.60231 0.0
H234 H 0.874 0.22447 0.57868 0.0
H235 H 0.74834 0.06713 0.65928 0.0
H236 H 0.79135 0.27564 0.58296 0.0
H237 H 0.86633 0.32595 0.61338 0.0
H238 H 0.86111 0.29442 0.56444 0.0
H239 H 0.68448 0.06323 0.70529 0.0
H240 H 0.68936 0.12865 0.70922 0.0
H241 H 0.63638 0.06383 0.67127 0.0
H242 H 0.76826 0.32974 0.72196 0.0
H243 H 0.60158 0.19161 0.63897 0.0
H244 H 0.87413 0.34321 0.68485 0.0
H245 H 0.84199 0.26782 0.70336 0.0
H246 H 0.84426 0.32097 0.7345 0.0
H247 H 0.67426 0.15851 0.578 0.0
H248 H 0.59709 0.13015 0.58955 0.0
H249 H 0.62143 0.09397 0.61203 0.0
C250 C 0.80643 0.92951 0.07015 0.0
C251 C 0.8475 0.92066 0.07691 0.0
C252 C 0.75266 0.89982 0.09432 0.0
C253 C 0.74013 0.86104 0.12637 0.0
C254 C 0.78272 0.85369 0.13406 0.0
C255 C 0.83571 0.88347 0.10924 0.0
C256 C 0.70757 0.9076 0.0844 0.0
C257 C 0.77287 0.81476 0.16859 0.0
C258 C 0.61325 0.81461 0.1992 0.0
C259 C 0.55667 0.75104 0.18421 0.0
C260 C 0.67467 0.84995 0.18238 0.0
C261 C 0.67834 0.82218 0.14852 0.0
C262 C 0.62131 0.75753 0.13394 0.0
C263 C 0.56172 0.72261 0.15237 0.0
C264 C 0.73485 0.91776 0.19979 0.0
C265 C 0.62233 0.7262 0.09755 0.0
H266 H 0.81528 0.95834 0.04532 0.0
H267 H 0.868 0.8775 0.11524 0.0
H268 H 0.65783 0.85904 0.07494 0.0
H269 H 0.70218 0.92608 0.11153 0.0
H270 H 0.72585 0.94188 0.05982 0.0
H271 H 0.80251 0.80395 0.16604 0.0
H272 H 0.78844 0.84383 0.19726 0.0
H273 H 0.72036 0.76767 0.17041 0.0
H274 H 0.60916 0.83728 0.22316 0.0
H275 H 0.51769 0.67373 0.14036 0.0
H276 H 0.74651 0.95504 0.18009 0.0
H277 H 0.77817 0.92538 0.20117 0.0
H278 H 0.72711 0.9263 0.2306 0.0
H279 H 0.63781 0.75635 0.07095 0.0
H280 H 0.57347 0.67556 0.08994 0.0
H281 H 0.65867 0.72421 0.10314 0.0
C282 C 0.84776 0.79665 0.58056 0.0
C283 C 0.91434 0.83667 0.57308 0.0
C284 C 0.81126 0.73802 0.60068 0.0
C285 C 0.84211 0.71902 0.61404 0.0
C286 C 0.90967 0.75985 0.60739 0.0
C287 C 0.94488 0.81799 0.58677 0.0
C288 C 0.73921 0.69567 0.60682 0.0
C289 C 0.94448 0.74162 0.62158 0.0
C290 C 0.75557 0.58619 0.69117 0.0
C291 C 0.72541 0.53044 0.66642 0.0
C292 C 0.79426 0.64821 0.6747 0.0
C293 C 0.80252 0.65431 0.63248 0.0
C294 C 0.7716 0.598 0.60739 0.0
C295 C 0.73367 0.53702 0.62463 0.0
C296 C 0.82618 0.70712 0.70238 0.0
C297 C 0.77805 0.60193 0.56218 0.0
H298 H 0.82365 0.81059 0.57015 0.0
H299 H -0.00356 0.84888 0.58149 0.0
H300 H 0.70881 0.64761 0.59008 0.0
H301 H 0.72889 0.68566 0.63923 0.0
H302 H 0.72339 0.71888 0.5963 0.0
H303 H -0.00205 0.78037 0.61611 0.0
H304 H 0.93825 0.73281 0.65434 0.0
H305 H 0.92223 0.69526 0.60564 0.0
H306 H 0.74761 0.58104 0.72318 0.0
H307 H 0.71049 0.49421 0.60518 0.0
H308 H 0.81503 0.73408 0.69105 0.0
H309 H 0.88045 0.74153 0.70295 0.0
H310 H 0.80958 0.69315 0.73371 0.0
H311 H 0.75926 0.62125 0.54938 0.0
H312 H 0.75058 0.55341 0.54691 0.0
H313 H 0.83066 0.63652 0.55506 0.0
C314 C 0.24688 0.91308 0.35607 0.0
C315 C 0.26426 0.9337 0.39691 0.0
C316 C 0.26011 0.88024 0.33738 0.0
C317 C 0.29271 0.86871 0.35987 0.0
C318 C 0.31368 0.89269 0.40069 0.0
C319 C 0.29824 0.9241 0.41899 0.0
C320 C 0.23354 0.85357 0.29466 0.0
C321 C 0.34992 0.88267 0.42544 0.0
C322 C 0.26058 0.72006 0.33439 0.0
C323 C 0.31824 0.74855 0.31567 0.0
C324 C 0.25039 0.75828 0.34729 0.0
C325 C 0.29984 0.82682 0.34208 0.0
C326 C 0.35645 0.8551 0.32096 0.0
C327 C 0.36512 0.81548 0.30804 0.0
C328 C 0.18805 0.72583 0.36809 0.0
C329 C 0.40912 0.92763 0.31384 0.0
H330 H 0.21938 0.91928 0.33912 0.0
H331 H 0.31169 0.94017 0.45063 0.0
H332 H 0.25322 0.83633 0.28007 0.0
H333 H 0.17937 0.81167 0.29535 0.0
H334 H 0.24389 0.89118 0.27602 0.0
H335 H 0.36808 0.90939 0.45542 0.0
H336 H 0.31664 0.82953 0.43016 0.0
H337 H 0.39245 0.89955 0.40907 0.0
H338 H 0.22489 0.66833 0.34066 0.0
H339 H 0.4103 0.83752 0.29423 0.0
H340 H 0.16312 0.73743 0.35292 0.0
H341 H 0.20026 0.74531 0.39986 0.0
H342 H 0.15315 0.67159 0.36804 0.0
H343 H 0.38678 0.94281 0.29995 0.0
H344 H 0.44718 0.941 0.29392 0.0
H345 H 0.43341 0.95581 0.34317 0.0
C346 C 0.17026 0.10953 0.89876 0.0
C347 C 0.17553 0.10919 0.94095 0.0
C348 C 0.22481 0.14079 0.87508 0.0
C349 C 0.28605 0.17248 0.89403 0.0
C350 C 0.2919 0.17287 0.93659 0.0
C351 C 0.23661 0.14126 0.95952 0.0
C352 C 0.21685 0.13956 0.82982 0.0
C353 C 0.35654 0.2062 0.95791 0.0
C354 C 0.41916 0.20169 0.84159 0.0
C355 C 0.46606 0.26956 0.83763 0.0
C356 C 0.35798 0.16836 0.85732 0.0
C357 C 0.3442 0.2043 0.86969 0.0
C358 C 0.39001 0.27236 0.86302 0.0
C359 C 0.45081 0.30437 0.84713 0.0
C360 C 0.31033 0.0957 0.86351 0.0
C361 C 0.37692 0.31227 0.87542 0.0
H362 H 0.12332 0.08503 0.8841 0.0
H363 H 0.24127 0.14138 0.99204 0.0
H364 H 0.25038 0.19045 0.81955 0.0
H365 H 0.23074 0.11677 0.81469 0.0
H366 H 0.16558 0.11188 0.81975 0.0
H367 H 0.35304 0.20259 0.99121 0.0
H368 H 0.37293 0.18369 0.9469 0.0
H369 H 0.39511 0.2589 0.95097 0.0
H370 H 0.43174 0.17532 0.83434 0.0
H371 H 0.48782 0.35715 0.84423 0.0
H372 H 0.25985 0.06937 0.85264 0.0
H373 H 0.3088 0.08766 0.89624 0.0
H374 H 0.32466 0.07373 0.84763 0.0
H375 H 0.32674 0.2871 0.86472 0.0
H376 H 0.41326 0.36223 0.86342 0.0
H377 H 0.37949 0.31732 0.90886 0.0
C378 C 0.12824 0.18413 0.41237 0.0
C379 C 0.102 0.17709 0.44965 0.0
C380 C 0.1586 0.23874 0.38932 0.0
C381 C 0.16276 0.28768 0.4037 0.0
C382 C 0.13474 0.28018 0.44069 0.0
C383 C 0.10487 0.22502 0.46337 0.0
C384 C 0.1883 0.24511 0.35025 0.0
C385 C 0.13792 0.33134 0.45679 0.0
C386 C 0.30521 0.46313 0.37447 0.0
C387 C 0.27517 0.47021 0.34548 0.0
C388 C 0.26952 0.40335 0.39269 0.0
C389 C 0.20173 0.34949 0.38198 0.0
C390 C 0.17154 0.35567 0.3516 0.0
C391 C 0.20882 0.41634 0.33365 0.0
C392 C 0.30391 0.39871 0.4245 0.0
C393 C 0.09935 0.29929 0.33949 0.0
H394 H 0.12625 0.14742 0.40133 0.0
H395 H 0.08424 0.21974 0.49191 0.0
H396 H 0.1704 0.25468 0.32529 0.0
H397 H 0.24263 0.28757 0.35324 0.0
H398 H 0.17648 0.20038 0.34179 0.0
H399 H 0.1093 0.31584 0.48425 0.0
H400 H 0.18992 0.37802 0.46435 0.0
H401 H 0.11877 0.34166 0.43338 0.0
H402 H 0.35653 0.50526 0.38376 0.0
H403 H 0.18532 0.42264 0.31208 0.0
H404 H 0.29651 0.35642 0.417 0.0
H405 H 0.28241 0.39017 0.45416 0.0
H406 H 0.35765 0.444 0.4276 0.0
H407 H 0.08736 0.25436 0.33169 0.0
H408 H 0.08463 0.3104 0.31329 0.0
H409 H 0.06943 0.28817 0.3653 0.0
C410 C 0.83777 0.19281 0.8981 0.0
C411 C 0.85138 0.16574 0.87185 0.0
C412 C 0.81209 0.21605 0.88314 0.0
C413 C 0.79986 0.21216 0.84097 0.0
C414 C 0.81317 0.18445 0.81448 0.0
C415 C 0.83854 0.16154 0.83024 0.0
C416 C 0.79783 0.24459 0.91245 0.0
C417 C 0.80141 0.17836 0.76937 0.0
C418 C 0.67936 0.21978 0.80853 0.0
C419 C 0.72194 0.28684 0.80263 0.0
C420 C 0.70414 0.19422 0.81959 0.0
C421 C 0.77306 0.23704 0.82497 0.0
C422 C 0.81624 0.3042 0.81666 0.0
C423 C 0.79006 0.32854 0.80604 0.0
C424 C 0.65667 0.12212 0.82742 0.0
C425 C 0.89 0.35065 0.82024 0.0
H426 H 0.84788 0.19648 0.93029 0.0
H427 H 0.84762 0.13947 0.80972 0.0
H428 H 0.82772 0.29649 0.90587 0.0
H429 H 0.74526 0.21726 0.90882 0.0
H430 H 0.80868 0.24277 0.94436 0.0
H431 H 0.84919 0.20906 0.75474 0.0
H432 H 0.77064 0.12676 0.75861 0.0
H433 H 0.77719 0.19323 0.7593 0.0
H434 H 0.62663 0.18812 0.80689 0.0
H435 H 0.82275 0.38072 0.80232 0.0
H436 H 0.6633 0.11603 0.85928 0.0
H437 H 0.6672 0.09934 0.80791 0.0
H438 H 0.60453 0.09531 0.82154 0.0
H439 H 0.90595 0.35635 0.85222 0.0
H440 H 0.91662 0.39996 0.80936 0.0
H441 H 0.90447 0.33012 0.80251 0.0
C442 C 0.87405 0.96506 0.39804 0.0
C443 C 0.8771 0.92596 0.419 0.0
C444 C 0.82398 0.93694 0.36836 0.0
C445 C 0.77408 0.86784 0.36129 0.0
C446 C 0.78091 0.82919 0.37957 0.0
C447 C 0.83318 0.85911 0.40791 0.0
C448 C 0.82055 0.98033 0.34783 0.0
C449 C 0.72871 0.75529 0.37365 0.0
C450 C 0.60597 0.80226 0.3603 0.0
C451 C 0.58042 0.77486 0.32084 0.0
C452 C 0.66763 0.83024 0.37367 0.0
C453 C 0.70789 0.83598 0.34614 0.0
C454 C 0.68413 0.81109 0.3057 0.0
C455 C 0.61944 0.77848 0.29393 0.0
C456 C 0.68883 0.85245 0.41777 0.0
C457 C 0.7269 0.81933 0.27499 0.0
H458 H 0.90959 0.01733 0.40574 0.0
H459 H 0.83642 0.82918 0.42377 0.0
H460 H 0.80152 0.96268 0.31602 0.0
H461 H 0.78638 0.97903 0.36373 0.0
H462 H 0.86957 0.03218 0.3484 0.0
H463 H 0.74877 0.73498 0.38079 0.0
H464 H 0.68848 0.73413 0.39426 0.0
H465 H 0.70694 0.73895 0.34238 0.0
H466 H 0.5766 0.79969 0.38176 0.0
H467 H 0.59903 0.75456 0.26426 0.0
H468 H 0.73045 0.90673 0.4207 0.0
H469 H 0.70586 0.83167 0.43105 0.0
H470 H 0.64844 0.83731 0.43597 0.0
H471 H 0.76785 0.87217 0.26886 0.0
H472 H 0.69888 0.79138 0.24612 0.0
H473 H 0.74953 0.80338 0.28668 0.0
C474 C 0.95546 0.81955 0.93327 0.0
C475 C 0.92935 0.84562 0.93317 0.0
C476 C 0.92892 0.76627 0.90707 0.0
C477 C 0.87511 0.73859 0.8802 0.0
C478 C 0.85023 0.76624 0.87887 0.0
C479 C 0.87758 0.81936 0.90541 0.0
C480 C 0.95625 0.73753 0.90961 0.0
C481 C 0.79256 0.73763 0.85076 0.0
C482 C 0.81678 0.611 0.79808 0.0
C483 C 0.76471 0.55301 0.81687 0.0
C484 C 0.854 0.67248 0.81837 0.0
C485 C 0.83845 0.67508 0.85807 0.0
C486 C 0.78619 0.61642 0.87703 0.0
C487 C 0.74996 0.55637 0.85615 0.0
C488 C 0.91005 0.73448 0.79767 0.0
C489 C 0.76842 0.61683 0.91951 0.0
H490 H -0.00416 0.83987 0.95436 0.0
H491 H 0.85753 0.83959 0.90476 0.0
H492 H 0.9198 0.6888 0.92308 0.0
H493 H 0.96517 0.72982 0.87903 0.0
H494 H 0.00296 0.76941 0.92836 0.0
H495 H 0.78339 0.76874 0.85048 0.0
H496 H 0.80111 0.73158 0.81952 0.0
H497 H 0.74744 0.68816 0.86036 0.0
H498 H 0.82938 0.6083 0.76822 0.0
H499 H 0.70959 0.51153 0.87083 0.0
H500 H 0.95613 0.76518 0.81686 0.0
H501 H 0.89941 0.76393 0.7933 0.0
H502 H 0.91845 0.72405 0.76784 0.0
H503 H 0.81173 0.64331 0.94073 0.0
H504 H 0.72727 0.56651 0.93011 0.0
H505 H 0.7539 0.64322 0.92095 0.0
loop_
_geom_bond_atom_site_label_1
_geom_bond_atom_site_label_2
_geom_bond_distance
_geom_bond_site_symmetry_2
_ccdc_geom_bond_type
Tb0 C10 2.825 . S
Tb0 O11 2.347 1_546 S
Tb0 O14 2.366 1_656 S
Tb0 O19 2.418 1_655 S
Tb0 O20 2.384 1_545 S
Tb0 O23 2.479 . S
Tb0 O24 2.471 . S
Eu1 O12 2.418 1_455 S
Eu1 O13 2.384 1_565 S
Eu1 O16 2.479 . S
Eu1 O17 2.471 . S
Eu1 O18 2.347 1_564 S
Eu1 O21 2.366 1_455 S
Eu1 C31 2.825 . S
C2 O18 1.259 . S
C2 O19 1.265 . S
C3 O20 1.255 . S
C3 O21 1.265 1_556 S
C4 C6 1.380 . S
C4 C7 1.374 . S
C4 C10 1.507 . S
C5 C6 1.384 . S
C5 C9 1.387 . S
C5 H32 0.930 . S
C6 C4 1.380 . S
C6 C5 1.384 . S
C6 H33 0.931 . S
C7 C4 1.374 . S
C7 C8 1.390 . S
C7 H34 0.930 . S
C8 C7 1.390 . S
C8 C9 1.391 . S
C8 H35 0.930 . S
C9 C5 1.387 . S
C9 C8 1.391 . S
C10 Tb0 2.825 . S
C10 C4 1.507 . S
C10 O23 1.238 . S
C10 O24 1.247 . S
O11 Tb0 2.347 1_564 S
O11 C15 1.259 . S
O12 Eu1 2.418 1_655 S
O12 C15 1.265 . S
O13 Eu1 2.384 1_545 S
O13 C22 1.255 . S
O14 Tb0 2.366 1_454 S
O14 C22 1.264 . S
C15 O11 1.259 . S
C15 O12 1.265 . S
O16 Eu1 2.479 . S
O16 C31 1.238 . S
O17 Eu1 2.471 . S
O17 C31 1.247 . S
O18 Eu1 2.347 1_546 S
O18 C2 1.259 . S
O19 Tb0 2.418 1_455 S
O19 C2 1.265 . S
O20 Tb0 2.384 1_565 S
O20 C3 1.255 . S
O21 Eu1 2.366 1_655 S
O21 C3 1.265 1_554 S
C22 O13 1.255 . S
C22 O14 1.264 . S
O23 Tb0 2.479 . S
O23 C10 1.238 . S
O24 Tb0 2.471 . S
O24 C10 1.247 . S
C25 C28 1.380 . S
C25 C29 1.374 . S
C25 C31 1.507 . S
C26 C27 1.387 . S
C26 C30 1.391 . S
C27 C26 1.387 . S
C27 C28 1.384 . S
C27 H36 0.930 . S
C28 C25 1.380 . S
C28 C27 1.384 . S
C28 H37 0.931 . S
C29 C25 1.374 . S
C29 C30 1.390 . S
C29 H38 0.930 . S
C30 C26 1.391 . S
C30 C29 1.390 . S
C30 H39 0.930 . S
C31 Eu1 2.825 . S
C31 O16 1.238 . S
C31 O17 1.247 . S
C31 C25 1.507 . S
H32 C5 0.930 . S
H33 C6 0.931 . S
H34 C7 0.930 . S
H35 C8 0.930 . S
H36 C27 0.930 . S
H37 C28 0.931 . S
H38 C29 0.930 . S
H39 C30 0.930 . S
Tb40 C50 2.825 1_455 S
Tb40 O51 2.347 . S
Tb40 O54 2.366 1_445 S
Tb40 O59 2.418 1_445 S
Tb40 O60 2.384 . S
Tb40 O63 2.479 1_455 S
Tb40 O64 2.471 1_455 S
Eu41 O52 2.418 1_565 S
Eu41 O53 2.384 1_455 S
Eu41 O56 2.479 . S
Eu41 O57 2.471 . S
Eu41 O58 2.347 1_455 S
Eu41 O61 2.366 1_565 S
Eu41 C71 2.825 . S
C42 O58 1.259 . S
C42 O59 1.265 . S
C43 O60 1.255 . S
C43 O61 1.265 . S
C44 C46 1.380 . S
C44 C47 1.374 . S
C44 C50 1.507 . S
C45 C46 1.384 . S
C45 C49 1.387 . S
C45 H72 0.930 . S
C46 C44 1.380 . S
C46 C45 1.384 . S
C46 H73 0.931 . S
C47 C44 1.374 . S
C47 C48 1.390 . S
C47 H74 0.930 . S
C48 C47 1.390 . S
C48 C49 1.391 . S
C48 H75 0.930 . S
C49 C45 1.387 . S
C49 C48 1.391 . S
C50 Tb40 2.825 1_655 S
C50 C44 1.507 . S
C50 O63 1.238 . S
C50 O64 1.247 . S
O51 Tb40 2.347 . S
O51 C55 1.259 . S
O52 Eu41 2.418 1_545 S
O52 C55 1.265 . S
O53 Eu41 2.384 1_655 S
O53 C62 1.255 . S
O54 Tb40 2.366 1_665 S
O54 C62 1.265 . S
C55 O51 1.259 . S
C55 O52 1.265 . S
O56 Eu41 2.479 . S
O56 C71 1.238 . S
O57 Eu41 2.471 . S
O57 C71 1.247 . S
O58 Eu41 2.347 1_655 S
O58 C42 1.259 . S
O59 Tb40 2.418 1_665 S
O59 C42 1.265 . S
O60 Tb40 2.384 . S
O60 C43 1.255 . S
O61 Eu41 2.366 1_545 S
O61 C43 1.265 . S
C62 O53 1.255 . S
C62 O54 1.265 . S
O63 Tb40 2.479 1_655 S
O63 C50 1.238 . S
O64 Tb40 2.471 1_655 S
O64 C50 1.247 . S
C65 C68 1.380 . S
C65 C69 1.374 . S
C65 C71 1.507 . S
C66 C67 1.387 . S
C66 C70 1.391 . S
C67 C66 1.387 . S
C67 C68 1.384 . S
C67 H76 0.930 . S
C68 C65 1.380 . S
C68 C67 1.384 . S
C68 H77 0.931 . S
C69 C65 1.374 . S
C69 C70 1.390 . S
C69 H78 0.930 . S
C70 C66 1.391 . S
C70 C69 1.390 . S
C70 H79 0.930 . S
C71 Eu41 2.825 . S
C71 O56 1.238 . S
C71 O57 1.247 . S
C71 C65 1.507 . S
H72 C45 0.930 . S
H73 C46 0.931 . S
H74 C47 0.930 . S
H75 C48 0.930 . S
H76 C67 0.930 . S
H77 C68 0.931 . S
H78 C69 0.930 . S
H79 C70 0.930 . S
Zn80 O86 1.920 . S
Zn80 O92 1.898 . S
Zn80 O95 1.905 . S
Zn81 O89 1.905 . S
Zn81 O90 1.898 . S
Zn81 O98 1.920 . S
Zn82 O85 2.080 . S
Zn82 O88 2.114 . S
Zn82 O91 2.120 . S
Zn82 O93 2.120 . S
Zn82 O94 2.114 . S
Zn82 O97 2.080 . S
C83 O88 1.166 . S
C83 O89 1.182 . S
C84 O90 1.167 . S
C84 O91 1.299 . S
O85 Zn82 2.080 . S
O85 C99 1.305 . S
O86 Zn80 1.920 . S
O86 C99 1.234 . S
C87 O92 1.167 . S
C87 O93 1.299 . S
O88 Zn82 2.114 . S
O88 C83 1.166 . S
O89 Zn81 1.905 . S
O89 C83 1.182 . S
O90 Zn81 1.898 . S
O90 C84 1.167 . S
O91 Zn82 2.120 . S
O91 C84 1.299 . S
O92 Zn80 1.898 . S
O92 C87 1.167 . S
O93 Zn82 2.120 . S
O93 C87 1.299 . S
O94 Zn82 2.114 . S
O94 C96 1.166 . S
O95 Zn80 1.905 . S
O95 C96 1.182 . S
C96 O94 1.166 . S
C96 O95 1.182 . S
O97 Zn82 2.080 . S
O97 C100 1.305 . S
O98 Zn81 1.920 . S
O98 C100 1.234 . S
C99 O85 1.305 . S
C99 O86 1.234 . S
C100 O97 1.305 . S
C100 O98 1.234 . S
Zn101 O107 1.920 . S
Zn101 O113 1.898 . S
Zn101 O116 1.905 . S
Zn102 O110 1.905 . S
Zn102 O111 1.898 . S
Zn102 O119 1.920 . S
Zn103 O106 2.080 . S
Zn103 O109 2.114 . S
Zn103 O112 2.120 . S
Zn103 O114 2.120 . S
Zn103 O115 2.114 . S
Zn103 O118 2.080 . S
C104 O109 1.166 . S
C104 O110 1.182 . S
C105 O111 1.167 . S
C105 O112 1.299 . S
O106 Zn103 2.080 . S
O106 C120 1.305 . S
O107 Zn101 1.920 . S
O107 C120 1.234 . S
C108 O113 1.167 . S
C108 O114 1.299 . S
O109 Zn103 2.114 . S
O109 C104 1.166 . S
O110 Zn102 1.905 . S
O110 C104 1.182 . S
O111 Zn102 1.898 . S
O111 C105 1.167 . S
O112 Zn103 2.120 . S
O112 C105 1.299 . S
O113 Zn101 1.898 . S
O113 C108 1.167 . S
O114 Zn103 2.120 . S
O114 C108 1.299 . S
O115 Zn103 2.114 . S
O115 C117 1.166 . S
O116 Zn101 1.905 . S
O116 C117 1.182 . S
C117 O115 1.166 . S
C117 O116 1.182 . S
O118 Zn103 2.080 . S
O118 C121 1.305 . S
O119 Zn102 1.920 . S
O119 C121 1.234 . S
C120 O106 1.305 . S
C120 O107 1.234 . S
C121 O118 1.305 . S
C121 O119 1.234 . S
C122 C123 1.391 . S
C122 C124 1.394 . S
C122 H138 0.931 . S
C123 C122 1.391 . S
C123 C127 1.376 . S
C124 C122 1.394 . S
C124 C125 1.369 . S
C124 C128 1.531 . S
C125 C124 1.369 . S
C125 C126 1.410 . S
C125 C133 1.503 . S
C126 C125 1.410 . S
C126 C127 1.392 . S
C126 C129 1.511 . S
C127 C123 1.376 . S
C127 C126 1.392 . S
C127 H139 0.929 . S
C128 C124 1.531 . S
C128 H140 0.960 . S
C128 H141 0.962 . S
C128 H142 0.960 . S
C129 C126 1.511 . S
C129 H143 0.961 . S
C129 H144 0.961 . S
C129 H145 0.961 . S
C130 C131 1.370 . S
C130 C132 1.363 . S
C130 H146 0.931 . S
C131 C130 1.370 . S
C131 C135 1.408 . S
C132 C130 1.363 . S
C132 C133 1.370 . S
C132 C136 1.524 . S
C133 C125 1.503 . S
C133 C132 1.370 . S
C133 C134 1.403 . S
C134 C133 1.403 . S
C134 C135 1.404 . S
C134 C137 1.539 . S
C135 C131 1.408 . S
C135 C134 1.404 . S
C135 H147 0.930 . S
C136 C132 1.524 . S
C136 H148 0.956 . S
C136 H149 0.961 . S
C136 H150 0.961 . S
C137 C134 1.539 . S
C137 H151 0.958 . S
C137 H152 0.961 . S
C137 H153 0.960 . S
H138 C122 0.931 . S
H139 C127 0.929 . S
H140 C128 0.960 . S
H141 C128 0.962 . S
H142 C128 0.960 . S
H143 C129 0.961 . S
H144 C129 0.961 . S
H145 C129 0.961 . S
H146 C130 0.931 . S
H147 C135 0.930 . S
H148 C136 0.956 . S
H149 C136 0.961 . S
H150 C136 0.961 . S
H151 C137 0.958 . S
H152 C137 0.961 . S
H153 C137 0.960 . S
C154 C155 1.391 . S
C154 C156 1.394 . S
C154 H170 0.931 . S
C155 C154 1.391 . S
C155 C159 1.376 . S
C156 C154 1.394 . S
C156 C157 1.369 . S
C156 C160 1.531 . S
C157 C156 1.369 . S
C157 C158 1.410 . S
C157 C165 1.503 . S
C158 C157 1.410 . S
C158 C159 1.392 . S
C158 C161 1.511 . S
C159 C155 1.376 . S
C159 C158 1.392 . S
C159 H171 0.929 . S
C160 C156 1.531 . S
C160 H172 0.960 . S
C160 H173 0.962 . S
C160 H174 0.960 . S
C161 C158 1.511 . S
C161 H175 0.961 . S
C161 H176 0.961 . S
C161 H177 0.961 . S
C162 C163 1.370 . S
C162 C164 1.363 . S
C162 H178 0.931 . S
C163 C162 1.370 . S
C163 C167 1.408 . S
C164 C162 1.363 . S
C164 C165 1.370 . S
C164 C168 1.524 . S
C165 C157 1.503 . S
C165 C164 1.370 . S
C165 C166 1.403 . S
C166 C165 1.403 . S
C166 C167 1.404 . S
C166 C169 1.539 . S
C167 C163 1.408 . S
C167 C166 1.404 . S
C167 H179 0.930 . S
C168 C164 1.524 . S
C168 H180 0.956 . S
C168 H181 0.961 . S
C168 H182 0.961 . S
C169 C166 1.539 . S
C169 H183 0.958 . S
C169 H184 0.961 . S
C169 H185 0.960 . S
H170 C154 0.931 . S
H171 C159 0.929 . S
H172 C160 0.960 . S
H173 C160 0.962 . S
H174 C160 0.960 . S
H175 C161 0.961 . S
H176 C161 0.961 . S
H177 C161 0.961 . S
H178 C162 0.931 . S
H179 C167 0.930 . S
H180 C168 0.956 . S
H181 C168 0.961 . S
H182 C168 0.961 . S
H183 C169 0.958 . S
H184 C169 0.961 . S
H185 C169 0.960 . S
C186 C187 1.391 . S
C186 C188 1.394 . S
C186 H202 0.931 . S
C187 C186 1.391 . S
C187 C191 1.376 . S
C188 C186 1.394 . S
C188 C189 1.369 . S
C188 C192 1.531 . S
C189 C188 1.369 . S
C189 C190 1.410 . S
C189 C197 1.503 . S
C190 C189 1.410 . S
C190 C191 1.392 . S
C190 C193 1.511 . S
C191 C187 1.376 . S
C191 C190 1.392 . S
C191 H203 0.929 . S
C192 C188 1.531 . S
C192 H204 0.960 . S
C192 H205 0.962 . S
C192 H206 0.960 . S
C193 C190 1.511 . S
C193 H207 0.961 . S
C193 H208 0.961 . S
C193 H209 0.961 . S
C194 C195 1.370 . S
C194 C196 1.363 . S
C194 H210 0.931 . S
C195 C194 1.370 . S
C195 C199 1.408 . S
C196 C194 1.363 . S
C196 C197 1.370 . S
C196 C200 1.524 . S
C197 C189 1.503 . S
C197 C196 1.370 . S
C197 C198 1.403 . S
C198 C197 1.403 . S
C198 C199 1.404 . S
C198 C201 1.539 . S
C199 C195 1.408 . S
C199 C198 1.404 . S
C199 H211 0.930 . S
C200 C196 1.524 . S
C200 H212 0.956 . S
C200 H213 0.961 . S
C200 H214 0.961 . S
C201 C198 1.539 . S
C201 H215 0.958 . S
C201 H216 0.961 . S
C201 H217 0.960 . S
H202 C186 0.931 . S
H203 C191 0.929 . S
H204 C192 0.960 . S
H205 C192 0.962 . S
H206 C192 0.960 . S
H207 C193 0.961 . S
H208 C193 0.961 . S
H209 C193 0.961 . S
H210 C194 0.931 . S
H211 C199 0.930 . S
H212 C200 0.956 . S
H213 C200 0.961 . S
H214 C200 0.961 . S
H215 C201 0.958 . S
H216 C201 0.961 . S
H217 C201 0.960 . S
C218 C219 1.391 . S
C218 C220 1.394 . S
C218 H234 0.931 . S
C219 C218 1.391 . S
C219 C223 1.376 . S
C220 C218 1.394 . S
C220 C221 1.369 . S
C220 C224 1.531 . S
C221 C220 1.369 . S
C221 C222 1.410 . S
C221 C229 1.503 . S
C222 C221 1.410 . S
C222 C223 1.392 . S
C222 C225 1.511 . S
C223 C219 1.376 . S
C223 C222 1.392 . S
C223 H235 0.929 . S
C224 C220 1.531 . S
C224 H236 0.960 . S
C224 H237 0.962 . S
C224 H238 0.960 . S
C225 C222 1.511 . S
C225 H239 0.961 . S
C225 H240 0.961 . S
C225 H241 0.961 . S
C226 C227 1.370 . S
C226 C228 1.363 . S
C226 H242 0.931 . S
C227 C226 1.370 . S
C227 C231 1.408 . S
C228 C226 1.363 . S
C228 C229 1.370 . S
C228 C232 1.524 . S
C229 C221 1.503 . S
C229 C228 1.370 . S
C229 C230 1.403 . S
C230 C229 1.403 . S
C230 C231 1.404 . S
C230 C233 1.539 . S
C231 C227 1.408 . S
C231 C230 1.404 . S
C231 H243 0.930 . S
C232 C228 1.524 . S
C232 H244 0.956 . S
C232 H245 0.961 . S
C232 H246 0.961 . S
C233 C230 1.539 . S
C233 H247 0.958 . S
C233 H248 0.961 . S
C233 H249 0.960 . S
H234 C218 0.931 . S
H235 C223 0.929 . S
H236 C224 0.960 . S
H237 C224 0.962 . S
H238 C224 0.960 . S
H239 C225 0.961 . S
H240 C225 0.961 . S
H241 C225 0.961 . S
H242 C226 0.931 . S
H243 C231 0.930 . S
H244 C232 0.956 . S
H245 C232 0.961 . S
H246 C232 0.961 . S
H247 C233 0.958 . S
H248 C233 0.961 . S
H249 C233 0.960 . S
C250 C251 1.391 . S
C250 C252 1.394 . S
C250 H266 0.931 . S
C251 C250 1.391 . S
C251 C255 1.376 . S
C252 C250 1.394 . S
C252 C253 1.369 . S
C252 C256 1.531 . S
C253 C252 1.369 . S
C253 C254 1.410 . S
C253 C261 1.503 . S
C254 C253 1.410 . S
C254 C255 1.392 . S
C254 C257 1.511 . S
C255 C251 1.376 . S
C255 C254 1.392 . S
C255 H267 0.929 . S
C256 C252 1.531 . S
C256 H268 0.960 . S
C256 H269 0.962 . S
C256 H270 0.960 . S
C257 C254 1.511 . S
C257 H271 0.961 . S
C257 H272 0.961 . S
C257 H273 0.961 . S
C258 C259 1.370 . S
C258 C260 1.363 . S
C258 H274 0.931 . S
C259 C258 1.370 . S
C259 C263 1.408 . S
C260 C258 1.363 . S
C260 C261 1.370 . S
C260 C264 1.524 . S
C261 C253 1.503 . S
C261 C260 1.370 . S
C261 C262 1.403 . S
C262 C261 1.403 . S
C262 C263 1.404 . S
C262 C265 1.539 . S
C263 C259 1.408 . S
C263 C262 1.404 . S
C263 H275 0.930 . S
C264 C260 1.524 . S
C264 H276 0.956 . S
C264 H277 0.961 . S
C264 H278 0.961 . S
C265 C262 1.539 . S
C265 H279 0.958 . S
C265 H280 0.961 . S
C265 H281 0.960 . S
H266 C250 0.931 . S
H267 C255 0.929 . S
H268 C256 0.960 . S
H269 C256 0.962 . S
H270 C256 0.960 . S
H271 C257 0.961 . S
H272 C257 0.961 . S
H273 C257 0.961 . S
H274 C258 0.931 . S
H275 C263 0.930 . S
H276 C264 0.956 . S
H277 C264 0.961 . S
H278 C264 0.961 . S
H279 C265 0.958 . S
H280 C265 0.961 . S
H281 C265 0.960 . S
C282 C283 1.391 . S
C282 C284 1.394 . S
C282 H298 0.931 . S
C283 C282 1.391 . S
C283 C287 1.376 . S
C284 C282 1.394 . S
C284 C285 1.369 . S
C284 C288 1.531 . S
C285 C284 1.369 . S
C285 C286 1.410 . S
C285 C293 1.503 . S
C286 C285 1.410 . S
C286 C287 1.392 . S
C286 C289 1.511 . S
C287 C283 1.376 . S
C287 C286 1.392 . S
C287 H299 0.929 . S
C288 C284 1.531 . S
C288 H300 0.960 . S
C288 H301 0.962 . S
C288 H302 0.960 . S
C289 C286 1.511 . S
C289 H303 0.961 . S
C289 H304 0.961 . S
C289 H305 0.961 . S
C290 C291 1.370 . S
C290 C292 1.363 . S
C290 H306 0.931 . S
C291 C290 1.370 . S
C291 C295 1.408 . S
C292 C290 1.363 . S
C292 C293 1.370 . S
C292 C296 1.524 . S
C293 C285 1.503 . S
C293 C292 1.370 . S
C293 C294 1.403 . S
C294 C293 1.403 . S
C294 C295 1.404 . S
C294 C297 1.539 . S
C295 C291 1.408 . S
C295 C294 1.404 . S
C295 H307 0.930 . S
C296 C292 1.524 . S
C296 H308 0.956 . S
C296 H309 0.961 . S
C296 H310 0.961 . S
C297 C294 1.539 . S
C297 H311 0.958 . S
C297 H312 0.961 . S
C297 H313 0.960 . S
H298 C282 0.931 . S
H299 C287 0.929 . S
H300 C288 0.960 . S
H301 C288 0.962 . S
H302 C288 0.960 . S
H303 C289 0.961 . S
H304 C289 0.961 . S
H305 C289 0.961 . S
H306 C290 0.931 . S
H307 C295 0.930 . S
H308 C296 0.956 . S
H309 C296 0.961 . S
H310 C296 0.961 . S
H311 C297 0.958 . S
H312 C297 0.961 . S
H313 C297 0.960 . S
C314 C315 1.391 . S
C314 C316 1.394 . S
C314 H330 0.931 . S
C315 C314 1.391 . S
C315 C319 1.376 . S
C316 C314 1.394 . S
C316 C317 1.369 . S
C316 C320 1.531 . S
C317 C316 1.369 . S
C317 C318 1.410 . S
C317 C325 1.503 . S
C318 C317 1.410 . S
C318 C319 1.392 . S
C318 C321 1.511 . S
C319 C315 1.376 . S
C319 C318 1.392 . S
C319 H331 0.929 . S
C320 C316 1.531 . S
C320 H332 0.960 . S
C320 H333 0.962 . S
C320 H334 0.960 . S
C321 C318 1.511 . S
C321 H335 0.961 . S
C321 H336 0.961 . S
C321 H337 0.961 . S
C322 C323 1.370 . S
C322 C324 1.363 . S
C322 H338 0.931 . S
C323 C322 1.370 . S
C323 C327 1.408 . S
C324 C322 1.363 . S
C324 C325 1.370 . S
C324 C328 1.524 . S
C325 C317 1.503 . S
C325 C324 1.370 . S
C325 C326 1.403 . S
C326 C325 1.403 . S
C326 C327 1.404 . S
C326 C329 1.539 . S
C327 C323 1.408 . S
C327 C326 1.404 . S
C327 H339 0.930 . S
C328 C324 1.524 . S
C328 H340 0.956 . S
C328 H341 0.961 . S
C328 H342 0.961 . S
C329 C326 1.539 . S
C329 H343 0.958 . S
C329 H344 0.961 . S
C329 H345 0.960 . S
H330 C314 0.931 . S
H331 C319 0.929 . S
H332 C320 0.960 . S
H333 C320 0.962 . S
H334 C320 0.960 . S
H335 C321 0.961 . S
H336 C321 0.961 . S
H337 C321 0.961 . S
H338 C322 0.931 . S
H339 C327 0.930 . S
H340 C328 0.956 . S
H341 C328 0.961 . S
H342 C328 0.961 . S
H343 C329 0.958 . S
H344 C329 0.961 . S
H345 C329 0.960 . S
C346 C347 1.391 . S
C346 C348 1.394 . S
C346 H362 0.931 . S
C347 C346 1.391 . S
C347 C351 1.376 . S
C348 C346 1.394 . S
C348 C349 1.369 . S
C348 C352 1.531 . S
C349 C348 1.369 . S
C349 C350 1.410 . S
C349 C357 1.503 . S
C350 C349 1.410 . S
C350 C351 1.392 . S
C350 C353 1.511 . S
C351 C347 1.376 . S
C351 C350 1.392 . S
C351 H363 0.929 . S
C352 C348 1.531 . S
C352 H364 0.960 . S
C352 H365 0.962 . S
C352 H366 0.960 . S
C353 C350 1.511 . S
C353 H367 0.961 . S
C353 H368 0.961 . S
C353 H369 0.961 . S
C354 C355 1.370 . S
C354 C356 1.363 . S
C354 H370 0.931 . S
C355 C354 1.370 . S
C355 C359 1.408 . S
C356 C354 1.363 . S
C356 C357 1.370 . S
C356 C360 1.524 . S
C357 C349 1.503 . S
C357 C356 1.370 . S
C357 C358 1.403 . S
C358 C357 1.403 . S
C358 C359 1.404 . S
C358 C361 1.539 . S
C359 C355 1.408 . S
C359 C358 1.404 . S
C359 H371 0.930 . S
C360 C356 1.524 . S
C360 H372 0.956 . S
C360 H373 0.961 . S
C360 H374 0.961 . S
C361 C358 1.539 . S
C361 H375 0.958 . S
C361 H376 0.961 . S
C361 H377 0.960 . S
H362 C346 0.931 . S
H363 C351 0.929 . S
H364 C352 0.960 . S
H365 C352 0.962 . S
H366 C352 0.960 . S
H367 C353 0.961 . S
H368 C353 0.961 . S
H369 C353 0.961 . S
H370 C354 0.931 . S
H371 C359 0.930 . S
H372 C360 0.956 . S
H373 C360 0.961 . S
H374 C360 0.961 . S
H375 C361 0.958 . S
H376 C361 0.961 . S
H377 C361 0.960 . S
C378 C379 1.391 . S
C378 C380 1.394 . S
C378 H394 0.931 . S
C379 C378 1.391 . S
C379 C383 1.376 . S
C380 C378 1.394 . S
C380 C381 1.369 . S
C380 C384 1.531 . S
C381 C380 1.369 . S
C381 C382 1.410 . S
C381 C389 1.503 . S
C382 C381 1.410 . S
C382 C383 1.392 . S
C382 C385 1.511 . S
C383 C379 1.376 . S
C383 C382 1.392 . S
C383 H395 0.929 . S
C384 C380 1.531 . S
C384 H396 0.960 . S
C384 H397 0.962 . S
C384 H398 0.960 . S
C385 C382 1.511 . S
C385 H399 0.961 . S
C385 H400 0.961 . S
C385 H401 0.961 . S
C386 C387 1.370 . S
C386 C388 1.363 . S
C386 H402 0.931 . S
C387 C386 1.370 . S
C387 C391 1.408 . S
C388 C386 1.363 . S
C388 C389 1.370 . S
C388 C392 1.524 . S
C389 C381 1.503 . S
C389 C388 1.370 . S
C389 C390 1.403 . S
C390 C389 1.403 . S
C390 C391 1.404 . S
C390 C393 1.539 . S
C391 C387 1.408 . S
C391 C390 1.404 . S
C391 H403 0.930 . S
C392 C388 1.524 . S
C392 H404 0.956 . S
C392 H405 0.961 . S
C392 H406 0.961 . S
C393 C390 1.539 . S
C393 H407 0.958 . S
C393 H408 0.961 . S
C393 H409 0.960 . S
H394 C378 0.931 . S
H395 C383 0.929 . S
H396 C384 0.960 . S
H397 C384 0.962 . S
H398 C384 0.960 . S
H399 C385 0.961 . S
H400 C385 0.961 . S
H401 C385 0.961 . S
H402 C386 0.931 . S
H403 C391 0.930 . S
H404 C392 0.956 . S
H405 C392 0.961 . S
H406 C392 0.961 . S
H407 C393 0.958 . S
H408 C393 0.961 . S
H409 C393 0.960 . S
C410 C411 1.391 . S
C410 C412 1.394 . S
C410 H426 0.931 . S
C411 C410 1.391 . S
C411 C415 1.376 . S
C412 C410 1.394 . S
C412 C413 1.369 . S
C412 C416 1.531 . S
C413 C412 1.369 . S
C413 C414 1.410 . S
C413 C421 1.503 . S
C414 C413 1.410 . S
C414 C415 1.392 . S
C414 C417 1.511 . S
C415 C411 1.376 . S
C415 C414 1.392 . S
C415 H427 0.929 . S
C416 C412 1.531 . S
C416 H428 0.960 . S
C416 H429 0.962 . S
C416 H430 0.960 . S
C417 C414 1.511 . S
C417 H431 0.961 . S
C417 H432 0.961 . S
C417 H433 0.961 . S
C418 C419 1.370 . S
C418 C420 1.363 . S
C418 H434 0.931 . S
C419 C418 1.370 . S
C419 C423 1.408 . S
C420 C418 1.363 . S
C420 C421 1.370 . S
C420 C424 1.524 . S
C421 C413 1.503 . S
C421 C420 1.370 . S
C421 C422 1.403 . S
C422 C421 1.403 . S
C422 C423 1.404 . S
C422 C425 1.539 . S
C423 C419 1.408 . S
C423 C422 1.404 . S
C423 H435 0.930 . S
C424 C420 1.524 . S
C424 H436 0.956 . S
C424 H437 0.961 . S
C424 H438 0.961 . S
C425 C422 1.539 . S
C425 H439 0.958 . S
C425 H440 0.961 . S
C425 H441 0.960 . S
H426 C410 0.931 . S
H427 C415 0.929 . S
H428 C416 0.960 . S
H429 C416 0.962 . S
H430 C416 0.960 . S
H431 C417 0.961 . S
H432 C417 0.961 . S
H433 C417 0.961 . S
H434 C418 0.931 . S
H435 C423 0.930 . S
H436 C424 0.956 . S
H437 C424 0.961 . S
H438 C424 0.961 . S
H439 C425 0.958 . S
H440 C425 0.961 . S
H441 C425 0.960 . S
C442 C443 1.391 . S
C442 C444 1.394 . S
C442 H458 0.931 1_565 S
C443 C442 1.391 . S
C443 C447 1.376 . S
C444 C442 1.394 . S
C444 C445 1.369 . S
C444 C448 1.531 . S
C445 C444 1.369 . S
C445 C446 1.410 . S
C445 C453 1.503 . S
C446 C445 1.410 . S
C446 C447 1.392 . S
C446 C449 1.511 . S
C447 C443 1.376 . S
C447 C446 1.392 . S
C447 H459 0.929 . S
C448 C444 1.531 . S
C448 H460 0.960 . S
C448 H461 0.962 . S
C448 H462 0.960 . S
C449 C446 1.511 . S
C449 H463 0.961 . S
C449 H464 0.961 . S
C449 H465 0.961 . S
C450 C451 1.370 . S
C450 C452 1.363 . S
C450 H466 0.931 . S
C451 C450 1.370 . S
C451 C455 1.408 . S
C452 C450 1.363 . S
C452 C453 1.370 . S
C452 C456 1.524 . S
C453 C445 1.503 . S
C453 C452 1.370 . S
C453 C454 1.403 . S
C454 C453 1.403 . S
C454 C455 1.404 . S
C454 C457 1.539 . S
C455 C451 1.408 . S
C455 C454 1.404 . S
C455 H467 0.930 . S
C456 C452 1.524 . S
C456 H468 0.956 . S
C456 H469 0.961 . S
C456 H470 0.961 . S
C457 C454 1.539 . S
C457 H471 0.958 . S
C457 H472 0.961 . S
C457 H473 0.960 . S
H458 C442 0.931 1_545 S
H459 C447 0.929 . S
H460 C448 0.960 . S
H461 C448 0.962 . S
H462 C448 0.960 . S
H463 C449 0.961 . S
H464 C449 0.961 . S
H465 C449 0.961 . S
H466 C450 0.931 . S
H467 C455 0.930 . S
H468 C456 0.956 . S
H469 C456 0.961 . S
H470 C456 0.961 . S
H471 C457 0.958 . S
H472 C457 0.961 . S
H473 C457 0.960 . S
C474 C475 1.391 . S
C474 C476 1.394 . S
C474 H490 0.931 . S
C475 C474 1.391 . S
C475 C479 1.376 . S
C476 C474 1.394 . S
C476 C477 1.369 . S
C476 C480 1.531 . S
C477 C476 1.369 . S
C477 C478 1.410 . S
C477 C485 1.503 . S
C478 C477 1.410 . S
C478 C479 1.392 . S
C478 C481 1.511 . S
C479 C475 1.376 . S
C479 C478 1.392 . S
C479 H491 0.929 . S
C480 C476 1.531 . S
C480 H492 0.960 . S
C480 H493 0.962 . S
C480 H494 0.960 . S
C481 C478 1.511 . S
C481 H495 0.961 . S
C481 H496 0.961 . S
C481 H497 0.961 . S
C482 C483 1.370 . S
C482 C484 1.363 . S
C482 H498 0.931 . S
C483 C482 1.370 . S
C483 C487 1.408 . S
C484 C482 1.363 . S
C484 C485 1.370 . S
C484 C488 1.524 . S
C485 C477 1.503 . S
C485 C484 1.370 . S
C485 C486 1.403 . S
C486 C485 1.403 . S
C486 C487 1.404 . S
C486 C489 1.539 . S
C487 C483 1.408 . S
C487 C486 1.404 . S
C487 H499 0.930 . S
C488 C484 1.524 . S
C488 H500 0.956 . S
C488 H501 0.961 . S
C488 H502 0.961 . S
C489 C486 1.539 . S
C489 H503 0.958 . S
C489 H504 0.961 . S
C489 H505 0.960 . S
H490 C474 0.931 . S
H491 C479 0.929 . S
H492 C480 0.960 . S
H493 C480 0.962 . S
H494 C480 0.960 . S
H495 C481 0.961 . S
H496 C481 0.961 . S
H497 C481 0.961 . S
H498 C482 0.931 . S
H499 C487 0.930 . S
H500 C488 0.956 . S
H501 C488 0.961 . S
H502 C488 0.961 . S
H503 C489 0.958 . S
H504 C489 0.961 . S
H505 C489 0.960 . S
C123 C26 1.320 . S
C131 C99 1.292 . S
C155 C43 1.281 . S
C163 C105 1.143 . S
C187 C22 1.402 . S
C195 C96 1.250 . S
C219 C49 1.446 . S
C227 C121 1.321 . S
C251 C15 1.870 . S
C259 C87 1.683 . S
C291 C104 1.789 . S
C283 C42 1.947 . S
C315 C66 1.349 . S
C323 C100 1.298 . S
C355 C117 1.807 . S
C347 C2 1.917 . S
C387 C84 1.717 . S
C379 C55 1.842 . S
C419 C120 1.340 . S
C411 C9 1.432 . S
C451 C83 1.295 . S
C443 C62 1.375 . S
C483 C108 1.131 . S
C475 C3 1.292 . S
