# Generated by pormake.
# Topology scu, (8,4)-cn, num edge types: 1
# Building blocks:
#     Node 0, Type 0, BuildingBlock: GIZVER_clean_sbu_0, # of connection points: 8
#     Node 1, Type 1, BuildingBlock: NAWXER_clean_sbu_0, # of connection points: 4
#     Node 2, Type 1, BuildingBlock: NAWXER_clean_sbu_0, # of connection points: 4
#     Edge 3, Type (0, 1), BuildingBlock: MIFKUJ_clean_linker_0, # of connection points: 2
#     Edge 4, Type (0, 1), BuildingBlock: MIFKUJ_clean_linker_0, # of connection points: 2
#     Edge 5, Type (0, 1), BuildingBlock: MIFKUJ_clean_linker_0, # of connection points: 2
#     Edge 6, Type (0, 1), BuildingBlock: MIFKUJ_clean_linker_0, # of connection points: 2
#     Edge 7, Type (0, 1), BuildingBlock: MIFKUJ_clean_linker_0, # of connection points: 2
#     Edge 8, Type (0, 1), BuildingBlock: MIFKUJ_clean_linker_0, # of connection points: 2
#     Edge 9, Type (0, 1), BuildingBlock: MIFKUJ_clean_linker_0, # of connection points: 2
#     Edge 10, Type (0, 1), BuildingBlock: MIFKUJ_clean_linker_0, # of connection points: 2
# Relax obj value: 0.018
# Max RMSD: 0.085
# Mean RMSD: 0.061
data_MOF--net-scu--node1-GIZVER_clean_sbu_0--node2-NAWXER_clean_sbu_0--edge1-MIFKUJ_clean_linker_0
_symmetry_space_group_name_H-M    P1
_symmetry_Int_Tables_number       1
_symmetry_cell_setting            triclinic
loop_
_symmetry_equiv_pos_as_xyz
'x, y, z'
_cell_length_a     29.851909
_cell_length_b     30.493488
_cell_length_c     28.096471
_cell_angle_alpha  97.908968
_cell_angle_beta   83.509305
_cell_angle_gamma 113.89695
loop_
_atom_site_label
_atom_site_type_symbol
_atom_site_fract_x
_atom_site_fract_y
_atom_site_fract_z
_atom_type_partial_charge
Co0 Co 0.02472 0.96759 0.11454 0.0
Co1 Co 0.10568 0.03439 0.08598 0.0
Co2 Co 0.01731 0.02348 1.022 0.0
O3 O 0.05213 0.99238 0.0536 0.0
H4 H 0.0613 0.96981 0.03138 0.0
O5 O 0.98072 0.05318 0.99106 0.0
Co6 Co 0.99673 0.07444 0.92791 0.0
Co7 Co 0.92394 1.0048 0.96658 0.0
H8 H 0.9719 0.07567 1.01372 0.0
O9 O 0.15496 0.01564 0.0968 0.0
O10 O 0.08707 1.00846 0.14477 0.0
O11 O 0.11295 0.1001 0.09555 0.0
O12 O 0.04201 0.08694 0.06503 0.0
O13 O 0.07553 0.04835 0.97527 0.0
O14 O 0.00912 0.09806 0.87113 0.0
O15 O 0.96626 0.11621 0.93631 0.0
O16 O 0.03251 0.03489 0.91127 0.0
O17 O 0.99433 0.96056 0.97924 0.0
O18 O 0.91741 0.93886 0.96077 0.0
O19 O 0.9354 0.02172 0.90445 0.0
O20 O 0.87076 0.0177 0.95644 0.0
C21 C 0.01763 0.90927 0.14807 0.0
C22 C 0.96302 1.01268 0.11288 0.0
C23 C 0.07952 0.11387 0.08882 0.0
C24 C 0.12857 1.00319 0.13658 0.0
C25 C 0.9837 0.12227 0.89177 0.0
C26 C 0.07298 0.04457 0.92966 0.0
C27 C 0.95485 0.92941 0.96176 0.0
C28 C 0.89176 0.02223 0.91327 0.0
O29 O 0.99994 0.9403 0.16828 0.0
O30 O 0.04204 0.91603 0.10613 0.0
O31 O 0.95856 0.99949 0.06807 0.0
O32 O 1.00138 0.01692 0.13181 0.0
C33 C 0.02301 0.5855 0.59427 0.0
C34 C 0.03919 0.46928 0.46105 0.0
O35 O 0.06258 0.581 0.5778 0.0
Zn36 Zn 0.03386 0.52797 0.52786 0.0
O37 O 0.98239 0.55717 0.57643 0.0
Zn38 Zn 0.95533 0.49813 0.52302 0.0
O39 O 0.91457 0.44519 0.56214 0.0
O40 O 0.99406 0.46858 0.56886 0.0
O41 O 0.9949 0.46512 0.47254 0.0
O42 O 0.07419 0.50174 0.48394 0.0
O43 O 0.00826 0.55947 0.47891 0.0
O44 O 0.92738 0.52462 0.48017 0.0
C45 C 0.94973 0.44033 0.57946 0.0
C46 C 0.96772 0.55546 0.46372 0.0
C47 C 0.55885 0.99771 0.57224 0.0
C48 C 0.43001 0.97854 0.46845 0.0
O49 O 0.52443 0.95853 0.55755 0.0
Zn50 Zn 0.49414 0.98655 0.52031 0.0
O51 O 0.56197 0.03775 0.55959 0.0
Zn52 Zn 0.52413 0.06265 0.5161 0.0
O53 O 0.50115 0.10375 0.56214 0.0
O54 O 0.46643 0.0269 0.57522 0.0
O55 O 0.46034 0.02237 0.47686 0.0
O56 O 0.43596 0.94535 0.48639 0.0
O57 O 0.54943 1.0116 0.46344 0.0
O58 O 0.57452 0.09056 0.46615 0.0
C59 C 0.4716 0.07073 0.58709 0.0
C60 C 0.57738 0.05149 0.4467 0.0
H61 H 0.15869 0.19022 0.12491 0.0
H62 H 0.15757 0.25743 0.18275 0.0
H63 H 1.00059 0.20555 0.17558 0.0
H64 H 1.00166 0.13905 0.11668 0.0
H65 H 0.03833 0.29984 0.1847 0.0
H66 H 0.0518 0.17831 0.26511 0.0
H67 H 0.08698 0.12181 0.28153 0.0
H68 H 0.22262 0.24054 0.31513 0.0
H69 H 0.18847 0.29777 0.29815 0.0
H70 H 0.97082 0.39381 0.41082 0.0
H71 H 0.98406 0.33989 0.34381 0.0
H72 H 0.14071 0.41478 0.35246 0.0
H73 H 0.12776 0.46911 0.42066 0.0
H74 H 0.10931 0.31439 0.34047 0.0
H75 H 0.08285 0.43568 0.26656 0.0
H76 H 0.0363 0.48428 0.25648 0.0
H77 H 0.91166 0.35539 0.21641 0.0
H78 H 0.95705 0.30596 0.22725 0.0
C79 C 0.12408 0.1937 0.13489 0.0
C80 C 0.08025 0.15916 0.11636 0.0
C81 C 0.12343 0.23196 0.16822 0.0
C82 C 0.07885 0.23593 0.18443 0.0
C83 C 0.03544 0.20318 0.16379 0.0
C84 C 0.03614 0.16522 0.12995 0.0
C85 C 0.07697 0.27238 0.22477 0.0
C86 C 0.05368 0.30284 0.21879 0.0
C87 C 0.09717 0.27654 0.26932 0.0
C88 C 0.11779 0.2423 0.2798 0.0
C89 C 0.08927 0.19236 0.27563 0.0
C90 C 0.109 0.1602 0.28509 0.0
C91 C 0.15706 0.17756 0.29923 0.0
C92 C 0.18544 0.22714 0.30407 0.0
C93 C 0.16592 0.25946 0.29454 0.0
C94 C 0.00822 0.39905 0.39866 0.0
C95 C 0.04829 0.43614 0.42099 0.0
C96 C 0.01567 0.36816 0.36014 0.0
C97 C 0.06335 0.37382 0.34254 0.0
C98 C 0.10359 0.41002 0.36531 0.0
C99 C 0.09614 0.44106 0.40418 0.0
C100 C 0.07063 0.34172 0.30033 0.0
C101 C 0.09478 0.31193 0.30605 0.0
C102 C 0.04992 0.33718 0.25603 0.0
C103 C 0.0233 0.36711 0.24799 0.0
C104 C 0.04546 0.4177 0.25578 0.0
C105 C 0.01924 0.44539 0.24996 0.0
C106 C 0.97103 0.42289 0.23587 0.0
C107 C 0.949 0.37273 0.22734 0.0
C108 C 0.97496 0.34487 0.2333 0.0
H109 H 0.95063 0.44421 0.23154 0.0
H110 H 0.17227 0.15261 0.30655 0.0
H111 H 0.96896 0.05702 0.20445 0.0
H112 H 0.90357 0.06977 0.25703 0.0
H113 H 0.80404 1.00615 0.1431 0.0
H114 H 0.86976 0.99398 0.08971 0.0
H115 H 0.78994 0.08298 0.19413 0.0
H116 H 0.80464 0.93902 0.22798 0.0
H117 H 0.84932 0.8921 0.24807 0.0
H118 H 0.88642 0.98116 0.38189 0.0
H119 H 0.84263 0.02917 0.36222 0.0
H120 H 0.58731 0.97317 0.39528 0.0
H121 H 0.65177 0.97148 0.33466 0.0
H122 H 0.7168 0.12696 0.34755 0.0
H123 H 0.65171 0.12905 0.40839 0.0
H124 H 0.74746 1.00405 0.34556 0.0
H125 H 0.77615 0.16203 0.23687 0.0
H126 H 0.72846 0.20447 0.21315 0.0
H127 H 0.59612 0.07684 0.2238 0.0
H128 H 0.6431 0.03349 0.24695 0.0
C129 C 0.93327 0.04595 0.1904 0.0
C130 C 0.92427 0.02369 0.14316 0.0
C131 C 0.89594 0.05335 0.2205 0.0
C132 C 0.84872 0.03813 0.20424 0.0
C133 C 0.84019 0.018 0.15639 0.0
C134 C 0.8777 1.01088 0.12605 0.0
C135 C 0.80764 0.04036 0.2381 0.0
C136 C 0.78069 0.06587 0.22732 0.0
C137 C 0.79517 0.01741 0.28106 0.0
C138 C 0.82073 0.98798 0.2934 0.0
C139 C 0.82257 0.94879 0.26156 0.0
C140 C 0.84772 0.92199 0.27288 0.0
C141 C 0.87079 0.93371 0.31618 0.0
C142 C 0.86859 0.97217 0.34833 0.0
C143 C 0.84359 0.99918 0.33713 0.0
C144 C 0.61499 1.00714 0.38505 0.0
C145 C 0.6144 0.0513 0.40687 0.0
C146 C 0.65196 1.00605 0.35042 0.0
C147 C 0.68916 0.04902 0.3366 0.0
C148 C 0.68819 0.09331 0.35739 0.0
C149 C 0.65102 0.09446 0.39217 0.0
C150 C 0.72977 0.04695 0.30185 0.0
C151 C 0.75679 0.02145 0.31254 0.0
C152 C 0.74166 0.06919 0.25851 0.0
C153 C 0.7131 0.09473 0.24417 0.0
C154 C 0.7369 0.14301 0.23401 0.0
C155 C 0.70999 0.16722 0.22068 0.0
C156 C 0.65927 0.14342 0.21714 0.0
C157 C 0.63538 0.0953 0.22676 0.0
C158 C 0.66212 0.07092 0.24006 0.0
H159 H 0.63851 0.16223 0.20684 0.0
H160 H 0.89029 0.91295 0.32486 0.0
H161 H 0.94128 0.86498 0.20999 0.0
H162 H 0.93119 0.80173 0.25956 0.0
H163 H 0.06895 0.79837 0.19805 0.0
H164 H 0.07838 0.86095 0.14647 0.0
H165 H 0.00886 0.71172 0.20982 0.0
H166 H 0.05589 0.85799 0.31514 0.0
H167 H 0.05116 0.93436 0.35223 0.0
H168 H 0.90435 0.85675 0.40922 0.0
H169 H 0.90806 0.77992 0.37236 0.0
H170 H 0.04524 0.60212 0.40299 0.0
H171 H 0.05069 0.65762 0.34563 0.0
H172 H 0.90016 0.63724 0.38446 0.0
H173 H 0.89414 0.58071 0.4419 0.0
H174 H 0.96753 0.73588 0.38488 0.0
H175 H 0.924 0.58901 0.27788 0.0
H176 H 0.93056 0.51495 0.23673 0.0
H177 H 0.07762 0.59737 0.18334 0.0
H178 H 0.07188 0.67205 0.22429 0.0
C179 C 0.96938 0.85058 0.20674 0.0
C180 C 0.01073 0.86801 0.17448 0.0
C181 C 0.96378 0.81466 0.23549 0.0
C182 C 1.00015 0.79627 0.23389 0.0
C183 C 0.04076 0.81244 0.20041 0.0
C184 C 0.04599 0.84795 0.17079 0.0
C185 C 0.99555 0.76035 0.26727 0.0
C186 C 1.00062 0.71747 0.2482 0.0
C187 C 0.98399 0.76721 0.31741 0.0
C188 C 0.98213 0.81323 0.34072 0.0
C189 C 0.02255 0.85723 0.33549 0.0
C190 C 0.02006 0.90058 0.35646 0.0
C191 C 0.97744 0.90039 0.38289 0.0
C192 C 0.93733 0.85682 0.38872 0.0
C193 C 0.93965 0.81335 0.36793 0.0
C194 C 0.01308 0.60911 0.39922 0.0
C195 C 0.96922 0.58702 0.42716 0.0
C196 C 0.01626 0.64075 0.36618 0.0
C197 C 0.97583 0.65149 0.36057 0.0
C198 C 0.93181 0.62937 0.38816 0.0
C199 C 0.92833 0.59697 0.42082 0.0
C200 C 0.98054 0.6873 0.32724 0.0
C201 C 0.97581 0.7303 0.34648 0.0
C202 C 0.99336 0.68098 0.27746 0.0
C203 C 0.99765 0.636 0.25451 0.0
C204 C 0.95794 0.59126 0.25786 0.0
C205 C 0.96147 0.54919 0.2344 0.0
C206 C 0.00455 0.55141 0.20749 0.0
C207 C 0.04428 0.5957 0.20418 0.0
C208 C 0.04087 0.63792 0.22742 0.0
H209 H 0.00711 0.51889 0.18896 0.0
H210 H 0.97551 0.934 0.39893 0.0
H211 H 0.21628 0.99449 0.13319 0.0
H212 H 0.24928 0.96984 0.19505 0.0
H213 H 0.11559 0.94472 0.2845 0.0
H214 H 0.08321 0.97202 0.22358 0.0
H215 H 0.18677 0.99151 0.33649 0.0
H216 H 0.15001 0.84901 0.23235 0.0
H217 H 0.14478 0.79686 0.15589 0.0
H218 H 0.30199 0.85196 0.13807 0.0
H219 H 0.30827 0.90486 0.21389 0.0
H220 H 0.35705 0.8904 0.44134 0.0
H221 H 0.28766 0.87515 0.39281 0.0
H222 H 0.33981 0.02751 0.38008 0.0
H223 H 0.40811 0.043 0.42831 0.0
H224 H 0.28517 0.8917 0.30175 0.0
H225 H 0.24894 0.06284 0.38326 0.0
H226 H 0.24804 0.10822 0.46282 0.0
H227 H 0.22343 0.98271 0.53215 0.0
H228 H 0.22344 0.93631 0.45303 0.0
C229 C 0.19362 0.98342 0.16584 0.0
C230 C 0.14706 0.9853 0.17334 0.0
C231 C 0.21236 0.96869 0.20107 0.0
C232 C 0.18462 0.95444 0.24426 0.0
C233 C 0.13762 0.95528 0.25145 0.0
C234 C 0.11912 0.97083 0.21648 0.0
C235 C 0.20709 0.94355 0.28336 0.0
C236 C 0.20771 0.96915 0.329 0.0
C237 C 0.23297 0.9129 0.27447 0.0
C238 C 0.22955 0.88103 0.2288 0.0
C239 C 0.18344 0.8502 0.21195 0.0
C240 C 0.18029 0.8205 0.16877 0.0
C241 C 0.22299 0.82116 0.14218 0.0
C242 C 0.26894 0.85146 0.15874 0.0
C243 C 0.27232 0.88124 0.20188 0.0
C244 C 0.35352 0.92058 0.42828 0.0
C245 C 0.38808 0.96792 0.43884 0.0
C246 C 0.3139 0.91181 0.40062 0.0
C247 C 0.30806 0.95029 0.38359 0.0
C248 C 0.34285 0.99735 0.39375 0.0
C249 C 0.38221 1.00609 0.42113 0.0
C250 C 0.26726 0.94219 0.35327 0.0
C251 C 0.26314 0.913 0.30947 0.0
C252 C 0.23706 0.96845 0.3643 0.0
C253 C 0.23639 0.99611 0.41208 0.0
C254 C 0.24297 0.04478 0.41543 0.0
C255 C 0.24272 0.07072 0.46049 0.0
C256 C 0.23576 0.04839 0.50251 0.0
C257 C 0.22895 1.00001 0.49957 0.0
C258 C 0.22915 0.97389 0.45462 0.0
H259 H 0.2356 0.06855 0.53735 0.0
H260 H 0.22046 0.79815 0.10876 0.0
H261 H 0.01517 0.88455 0.97364 0.0
H262 H 0.02667 0.81865 0.92069 0.0
H263 H 0.91121 0.80887 0.83494 0.0
H264 H 0.89813 0.87314 0.88887 0.0
H265 H 0.90908 0.72208 0.83891 0.0
H266 H 0.03792 0.87997 0.81328 0.0
H267 H 0.10593 0.95492 0.84115 0.0
H268 H 0.18655 0.87342 0.86967 0.0
H269 H 0.11813 0.79775 0.8437 0.0
H270 H 0.95906 0.62905 0.60961 0.0
H271 H 0.95016 0.68303 0.67887 0.0
H272 H 0.07399 0.67779 0.73996 0.0
H273 H 0.08431 0.62477 0.66899 0.0
H274 H 0.07558 0.76551 0.75733 0.0
H275 H 0.9535 0.60935 0.77941 0.0
H276 H 0.88582 0.53186 0.75675 0.0
H277 H 0.79475 0.60628 0.73852 0.0
H278 H 0.86213 0.68431 0.76039 0.0
C279 C 0.99155 0.86762 0.94408 0.0
C280 C 0.95604 0.88437 0.93519 0.0
C281 C 0.99833 0.83012 0.91367 0.0
C282 C 0.97077 0.80965 0.87296 0.0
C283 C 0.93319 0.82424 0.86588 0.0
C284 C 0.92571 0.86104 0.89682 0.0
C285 C 0.98304 0.77579 0.83565 0.0
C286 C 0.94541 0.73172 0.82091 0.0
C287 C 0.03094 0.78746 0.81319 0.0
C288 C 0.07265 0.83316 0.82707 0.0
C289 C 0.06998 0.87799 0.82584 0.0
C290 C 0.10852 0.92059 0.84154 0.0
C291 C 0.15052 0.91891 0.85726 0.0
C292 C 0.15397 0.87463 0.85753 0.0
C293 C 0.11523 0.83187 0.84253 0.0
C294 C 0.98472 0.63967 0.63758 0.0
C295 C 0.02208 0.6223 0.63416 0.0
C296 C 0.97937 0.67031 0.67739 0.0
C297 C 0.01036 0.6833 0.7155 0.0
C298 C 0.04925 0.66783 0.71126 0.0
C299 C 0.05521 0.63767 0.67073 0.0
C300 C 1.00122 0.71246 0.75965 0.0
C301 C 0.03938 0.75556 0.77568 0.0
C302 C 0.95396 0.69965 0.78375 0.0
C303 C 0.91301 0.65272 0.77129 0.0
C304 C 0.91912 0.60922 0.77035 0.0
C305 C 0.88081 0.56519 0.75764 0.0
C306 C 0.83604 0.56416 0.74614 0.0
C307 C 0.82945 0.60715 0.74744 0.0
C308 C 0.86767 0.65128 0.76006 0.0
H309 H 0.80643 0.53004 0.73628 0.0
H310 H 0.18051 0.95183 0.86909 0.0
H311 H 0.09226 0.08091 0.84323 0.0
H312 H 0.16552 0.09695 0.78937 0.0
H313 H 0.22745 0.04238 0.88728 0.0
H314 H 0.15515 0.0297 0.94321 0.0
H315 H 0.29682 0.10844 0.85353 0.0
H316 H 0.17264 0.97391 0.76873 0.0
H317 H 0.09214 0.92826 0.73393 0.0
H318 H 0.12065 0.04109 0.64425 0.0
H319 H 0.2009 0.08743 0.67908 0.0
H320 H 0.43978 0.02463 0.66795 0.0
H321 H 0.37946 0.03349 0.73095 0.0
H322 H 0.37133 0.14702 0.66088 0.0
H323 H 0.43305 0.13932 0.59822 0.0
H324 H 0.27857 0.05864 0.67874 0.0
H325 H 0.4151 0.1828 0.75865 0.0
H326 H 0.49649 0.21601 0.79219 0.0
H327 H 0.44549 0.10659 0.88983 0.0
H328 H 0.36397 0.07225 0.85638 0.0
C329 C 0.12144 0.07218 0.85326 0.0
C330 C 0.11769 0.05344 0.89718 0.0
C331 C 0.16329 0.08093 0.82208 0.0
C332 C 0.20165 0.06917 0.83296 0.0
C333 C 0.19838 0.05143 0.87751 0.0
C334 C 0.15698 0.04399 0.9095 0.0
C335 C 0.24512 0.07576 0.79817 0.0
C336 C 0.2925 0.09692 0.81545 0.0
C337 C 0.24032 0.06176 0.74802 0.0
C338 C 0.19208 0.03439 0.72723 0.0
C339 C 0.16122 0.98912 0.74214 0.0
C340 C 0.11583 0.96311 0.7223 0.0
C341 C 0.10114 0.98194 0.68718 0.0
C342 C 0.13196 0.02666 0.67163 0.0
C343 C 0.1774 0.05277 0.69137 0.0
C344 C 0.42593 0.05222 0.66655 0.0
C345 C 0.44094 0.08129 0.62826 0.0
C346 C 0.39166 0.0573 0.70259 0.0
C347 C 0.37116 0.09094 0.7005 0.0
C348 C 0.38711 0.12109 0.66314 0.0
C349 C 0.42237 0.11678 0.62757 0.0
C350 C 0.32938 0.09056 0.73444 0.0
C351 C 0.28247 0.07045 0.71687 0.0
C352 C 0.33461 0.1039 0.78431 0.0
C353 C 0.38352 0.12472 0.80471 0.0
C354 C 0.42135 0.16555 0.78698 0.0
C355 C 0.46749 0.18464 0.80604 0.0
C356 C 0.47619 0.16337 0.84304 0.0
C357 C 0.43871 0.12302 0.86115 0.0
C358 C 0.39251 0.10377 0.84219 0.0
H359 H 0.51194 0.1782 0.85775 0.0
H360 H 0.066 0.96175 0.67183 0.0
H361 H 0.02511 0.15075 0.8039 0.0
H362 H 0.00894 0.20321 0.75639 0.0
H363 H 0.90205 0.21886 0.86654 0.0
H364 H 0.91806 0.16583 0.91481 0.0
H365 H 0.87215 0.20385 0.76852 0.0
H366 H 0.0074 0.30818 0.86285 0.0
H367 H 0.088 0.33276 0.89618 0.0
H368 H 0.15703 0.33795 0.75325 0.0
H369 H 0.07674 0.31274 0.71904 0.0
H370 H 0.8751 0.40385 0.64923 0.0
H371 H 0.87056 0.34838 0.70743 0.0
H372 H 1.00121 0.33487 0.63692 0.0
H373 H 0.00678 0.39113 0.5808 0.0
H374 H 0.01237 0.35339 0.72685 0.0
H375 H 0.87926 0.24691 0.63093 0.0
H376 H 0.79919 0.21564 0.59513 0.0
H377 H 0.72598 0.20916 0.73617 0.0
H378 H 0.80573 0.24136 0.7729 0.0
C379 C 0.9981 0.16522 0.81824 0.0
C380 C 0.97332 0.1545 0.86353 0.0
C381 C 0.98888 0.19525 0.79091 0.0
C382 C 0.9546 0.21532 0.80804 0.0
C383 C 0.92874 0.20383 0.85269 0.0
C384 C 0.93823 0.17387 0.88037 0.0
C385 C 0.94773 0.24962 0.77959 0.0
C386 C 0.90239 0.23712 0.76001 0.0
C387 C 0.98752 0.29244 0.76786 0.0
C388 C 0.03598 0.3083 0.7884 0.0
C389 C 0.03972 0.31429 0.83852 0.0
C390 C 0.08536 0.32837 0.85757 0.0
C391 C 0.12759 0.33684 0.82685 0.0
C392 C 0.12429 0.33138 0.77701 0.0
C393 C 0.07873 0.31726 0.75778 0.0
C394 C 0.90229 0.38835 0.64596 0.0
C395 C 0.94149 0.40204 0.61075 0.0
C396 C 0.89971 0.35664 0.67917 0.0
C397 C 0.93571 0.3374 0.6769 0.0
C398 C 0.97332 0.34952 0.64009 0.0
C399 C 0.9764 0.38163 0.60781 0.0
C400 C 0.93704 0.30713 0.71389 0.0
C401 C 0.98159 0.32056 0.73552 0.0
C402 C 0.89653 0.265 0.7269 0.0
C403 C 0.84867 0.24729 0.7047 0.0
C404 C 0.8462 0.23963 0.65437 0.0
C405 C 0.80081 0.22157 0.63388 0.0
C406 C 0.75752 0.21056 0.66334 0.0
C407 C 0.75955 0.21778 0.71337 0.0
C408 C 0.80485 0.23599 0.73403 0.0
H409 H 0.72241 0.1963 0.6474 0.0
H410 H 0.16289 0.34771 0.84167 0.0
H411 H 0.8116 0.04468 0.9213 0.0
H412 H 0.7608 0.04025 0.8572 0.0
H413 H 0.8585 1.00049 0.75214 0.0
H414 H 0.91058 1.00647 0.8162 0.0
H415 H 0.82657 0.05556 0.71502 0.0
H416 H 0.75216 0.91421 0.79487 0.0
H417 H 0.72008 0.86513 0.8634 0.0
H418 H 0.61208 0.92564 0.90138 0.0
H419 H 0.644 0.97565 0.83346 0.0
H420 H 0.56974 0.92016 0.60064 0.0
H421 H 0.63221 0.92178 0.65114 0.0
H422 H 0.69345 0.07736 0.66481 0.0
H423 H 0.63207 0.07606 0.61387 0.0
H424 H 0.64914 0.95356 0.73994 0.0
H425 H 0.8198 0.12173 0.67479 0.0
H426 H 0.85651 0.15745 0.59884 0.0
H427 H 0.77514 0.02367 0.5178 0.0
H428 H 0.73988 0.98619 0.59297 0.0
C429 C 0.82257 0.03544 0.8845 0.0
C430 C 0.86455 0.02502 0.87383 0.0
C431 C 0.79341 0.03277 0.84791 0.0
C432 C 0.80507 0.01868 0.80005 0.0
C433 C 0.84855 1.01099 0.78889 0.0
C434 C 0.8782 1.01432 0.82552 0.0
C435 C 0.7705 1.00985 0.76236 0.0
C436 C 0.78776 0.03339 0.72038 0.0
C437 C 0.72025 0.97907 0.76842 0.0
C438 C 0.70075 0.94898 0.80929 0.0
C439 C 0.72179 0.91731 0.81804 0.0
C440 C 0.70361 0.88929 0.85674 0.0
C441 C 0.66414 0.89234 0.88678 0.0
C442 C 0.64269 0.92335 0.8781 0.0
C443 C 0.66078 0.95152 0.83948 0.0
C444 C 0.5966 0.95467 0.6143 0.0
C445 C 0.59592 0.99793 0.60318 0.0
C446 C 0.63228 0.95556 0.64314 0.0
C447 C 0.6679 0.99968 0.66129 0.0
C448 C 0.66701 0.04287 0.65046 0.0
C449 C 0.6316 0.04202 0.62154 0.0
C450 C 0.70473 1.0009 0.69333 0.0
C451 C 0.68792 0.97577 0.73433 0.0
C452 C 0.75566 0.02865 0.68525 0.0
C453 C 0.77651 0.05128 0.63975 0.0
C454 C 0.80981 0.09979 0.64083 0.0
C455 C 0.83043 0.12037 0.59788 0.0
C456 C 0.81766 0.09309 0.55362 0.0
C457 C 0.78471 0.04491 0.55213 0.0
C458 C 0.7645 0.02391 0.59491 0.0
H459 H 0.83356 0.1092 0.52046 0.0
H460 H 0.6501 0.87061 0.91673 0.0
loop_
_geom_bond_atom_site_label_1
_geom_bond_atom_site_label_2
_geom_bond_distance
_geom_bond_site_symmetry_2
_ccdc_geom_bond_type
Co0 O3 2.042 . S
Co0 O10 2.264 1_565 S
Co0 O29 2.286 1_455 S
Co0 O30 2.069 . S
Co0 O32 2.015 1_455 S
Co1 O3 2.122 1_545 S
Co1 O9 2.073 . S
Co1 O10 2.327 . S
Co1 O11 1.976 . S
Co2 O3 2.094 1_545 S
Co2 O5 2.080 1_454 S
Co2 O12 2.134 . S
Co2 O13 2.142 1_554 S
Co2 O17 2.088 1_444 S
Co2 O31 2.145 1_445 S
O3 Co0 2.042 . S
O3 Co1 2.122 1_565 S
O3 Co2 2.094 1_565 S
O3 H4 0.980 . S
H4 O3 0.980 . S
O5 Co2 2.080 1_656 S
O5 Co6 2.042 . S
O5 Co7 2.122 1_545 S
O5 H8 0.980 . S
Co6 O5 2.042 . S
Co6 O14 2.286 1_655 S
Co6 O15 2.069 . S
Co6 O16 2.015 1_655 S
Co6 O19 2.266 . S
Co7 O5 2.122 1_565 S
Co7 O18 1.976 . S
Co7 O19 2.322 1_565 S
Co7 O20 2.073 . S
H8 O5 0.980 . S
O9 Co1 2.073 . S
O9 C24 1.245 1_545 S
O10 Co0 2.264 1_545 S
O10 Co1 2.327 . S
O10 C24 1.257 1_545 S
O11 Co1 1.976 . S
O11 C23 1.251 . S
O12 Co2 2.134 . S
O12 C23 1.274 . S
O13 Co2 2.142 1_556 S
O13 C26 1.246 . S
O14 Co6 2.286 1_455 S
O14 C25 1.259 1_455 S
O15 Co6 2.069 . S
O15 C25 1.289 . S
O16 Co6 2.015 1_455 S
O16 C26 1.257 . S
O17 Co2 2.088 1_666 S
O17 C27 1.274 . S
O18 Co7 1.976 . S
O18 C27 1.251 . S
O19 Co6 2.266 . S
O19 Co7 2.322 1_545 S
O19 C28 1.261 . S
O20 Co7 2.073 . S
O20 C28 1.245 1_565 S
C21 O29 1.259 1_455 S
C21 O30 1.289 . S
C22 O31 1.246 . S
C22 O32 1.257 . S
C23 O11 1.251 . S
C23 O12 1.274 . S
C24 O9 1.245 1_565 S
C24 O10 1.257 1_565 S
C25 O14 1.259 1_655 S
C25 O15 1.289 . S
C26 O13 1.246 . S
C26 O16 1.257 . S
C27 O17 1.274 . S
C27 O18 1.251 . S
C28 O19 1.261 . S
C28 O20 1.245 1_545 S
O29 Co0 2.286 1_655 S
O29 C21 1.259 1_655 S
O30 Co0 2.069 . S
O30 C21 1.289 . S
O31 Co2 2.145 1_665 S
O31 C22 1.246 . S
O32 Co0 2.015 1_655 S
O32 C22 1.257 . S
C33 O35 1.262 . S
C33 O37 1.248 1_455 S
C34 O41 1.242 1_455 S
C34 O42 1.262 . S
O35 C33 1.262 . S
O35 Zn36 2.028 . S
Zn36 O35 2.028 . S
Zn36 O40 2.035 . S
Zn36 O42 2.035 . S
Zn36 O43 2.028 . S
O37 C33 1.248 1_655 S
O37 Zn38 2.035 . S
Zn38 O37 2.035 . S
Zn38 O39 2.028 . S
Zn38 O41 2.028 . S
Zn38 O44 2.035 . S
O39 Zn38 2.028 . S
O39 C45 1.242 1_655 S
O40 Zn36 2.035 . S
O40 C45 1.261 . S
O41 C34 1.242 1_655 S
O41 Zn38 2.028 . S
O42 C34 1.262 . S
O42 Zn36 2.035 . S
O43 Zn36 2.028 . S
O43 C46 1.262 . S
O44 Zn38 2.035 . S
O44 C46 1.248 1_655 S
C45 O39 1.242 1_455 S
C45 O40 1.261 . S
C46 O43 1.262 . S
C46 O44 1.248 1_455 S
C47 O49 1.236 1_545 S
C47 O51 1.275 . S
C48 O55 1.247 . S
C48 O56 1.258 1_545 S
O49 C47 1.236 1_565 S
O49 Zn50 2.028 . S
Zn50 O49 2.028 . S
Zn50 O54 2.035 . S
Zn50 O56 2.035 . S
Zn50 O57 2.028 . S
O51 C47 1.275 . S
O51 Zn52 2.035 . S
Zn52 O51 2.035 . S
Zn52 O53 2.028 . S
Zn52 O55 2.028 . S
Zn52 O58 2.035 . S
O53 Zn52 2.028 . S
O53 C59 1.247 . S
O54 Zn50 2.035 . S
O54 C59 1.258 1_565 S
O55 C48 1.247 . S
O55 Zn52 2.028 . S
O56 C48 1.258 1_565 S
O56 Zn50 2.035 . S
O57 Zn50 2.028 . S
O57 C60 1.235 1_565 S
O58 Zn52 2.035 . S
O58 C60 1.274 . S
C59 O53 1.247 . S
C59 O54 1.258 1_545 S
C60 O57 1.235 1_545 S
C60 O58 1.274 . S
H61 C79 0.951 . S
H62 C81 0.951 . S
H63 C83 0.950 . S
H64 C84 0.950 . S
H65 C86 0.950 . S
H66 C89 0.950 1_655 S
H67 C90 0.950 . S
H68 C92 0.950 . S
H69 C93 0.950 . S
H70 C94 0.951 . S
H71 C96 0.951 . S
H72 C98 0.950 . S
H73 C99 0.950 . S
H74 C101 0.950 . S
H75 C104 0.950 1_455 S
H76 C105 0.950 . S
H77 C107 0.950 . S
H78 C108 0.950 . S
C79 H61 0.951 . S
C79 C80 1.366 . S
C79 C81 1.388 . S
C80 C79 1.366 . S
C80 C84 1.385 1_455 S
C81 H62 0.951 . S
C81 C79 1.388 . S
C81 C82 1.366 . S
C82 C81 1.366 . S
C82 C83 1.414 1_455 S
C82 C85 1.505 . S
C83 H63 0.950 . S
C83 C82 1.414 1_655 S
C83 C84 1.374 . S
C84 H64 0.950 . S
C84 C80 1.385 1_655 S
C84 C83 1.374 . S
C85 C82 1.505 . S
C85 C86 1.355 1_455 S
C85 C87 1.402 . S
C86 H65 0.950 . S
C86 C85 1.355 1_655 S
C86 C102 1.377 . S
C87 C85 1.402 . S
C87 C88 1.524 . S
C87 C101 1.377 . S
C88 C87 1.524 . S
C88 C89 1.397 . S
C88 C93 1.363 . S
C89 H66 0.950 1_455 S
C89 C88 1.397 . S
C89 C90 1.334 . S
C90 H67 0.950 . S
C90 C89 1.334 . S
C90 C91 1.287 . S
C91 C90 1.287 . S
C91 C92 1.524 . S
C91 H110 0.913 . S
C92 H68 0.950 . S
C92 C91 1.524 . S
C92 C93 1.415 . S
C93 H69 0.950 . S
C93 C88 1.363 . S
C93 C92 1.415 . S
C94 H70 0.951 . S
C94 C95 1.354 1_655 S
C94 C96 1.388 . S
C95 C94 1.354 1_455 S
C95 C99 1.400 . S
C96 H71 0.951 . S
C96 C94 1.388 . S
C96 C97 1.366 1_655 S
C97 C96 1.366 1_455 S
C97 C98 1.414 . S
C97 C100 1.499 . S
C98 H72 0.950 . S
C98 C97 1.414 . S
C98 C99 1.374 . S
C99 H73 0.950 . S
C99 C95 1.400 . S
C99 C98 1.374 . S
C100 C97 1.499 . S
C100 C101 1.373 . S
C100 C102 1.389 1_455 S
C101 H74 0.950 . S
C101 C87 1.377 . S
C101 C100 1.373 . S
C102 C86 1.377 . S
C102 C100 1.389 1_655 S
C102 C103 1.524 . S
C103 C102 1.524 . S
C103 C104 1.397 . S
C103 C108 1.363 . S
C104 H75 0.950 1_655 S
C104 C103 1.397 . S
C104 C105 1.334 . S
C105 H76 0.950 . S
C105 C104 1.334 . S
C105 C106 1.287 . S
C106 C105 1.287 . S
C106 C107 1.524 . S
C106 H109 0.999 . S
C107 H77 0.950 . S
C107 C106 1.524 . S
C107 C108 1.415 . S
C108 H78 0.950 . S
C108 C103 1.363 . S
C108 C107 1.415 . S
H109 C106 0.999 . S
H110 C91 0.913 . S
H111 C129 0.951 . S
H112 C131 0.951 . S
H113 C133 0.950 . S
H114 C134 0.950 . S
H115 C136 0.950 . S
H116 C139 0.950 . S
H117 C140 0.950 . S
H118 C142 0.950 . S
H119 C143 0.950 . S
H120 C144 0.951 . S
H121 C146 0.951 . S
H122 C148 0.950 . S
H123 C149 0.950 . S
H124 C151 0.950 . S
H125 C154 0.950 . S
H126 C155 0.950 . S
H127 C157 0.950 . S
H128 C158 0.950 . S
C129 H111 0.951 . S
C129 C130 1.366 1_545 S
C129 C131 1.388 . S
C130 C129 1.366 1_565 S
C130 C134 1.385 . S
C131 H112 0.951 . S
C131 C129 1.388 . S
C131 C132 1.366 1_545 S
C132 C131 1.366 1_565 S
C132 C133 1.414 . S
C132 C135 1.499 . S
C133 H113 0.950 . S
C133 C132 1.414 . S
C133 C134 1.374 . S
C134 H114 0.950 . S
C134 C130 1.385 . S
C134 C133 1.374 . S
C135 C132 1.499 . S
C135 C136 1.373 1_565 S
C135 C137 1.389 . S
C136 H115 0.950 . S
C136 C135 1.373 1_545 S
C136 C152 1.377 . S
C137 C135 1.389 . S
C137 C138 1.524 . S
C137 C151 1.377 . S
C138 C137 1.524 . S
C138 C139 1.397 . S
C138 C143 1.363 . S
C139 H116 0.950 . S
C139 C138 1.397 . S
C139 C140 1.334 . S
C140 H117 0.950 . S
C140 C139 1.334 . S
C140 C141 1.287 . S
C141 C140 1.287 . S
C141 C142 1.524 . S
C141 H160 0.913 . S
C142 H118 0.950 . S
C142 C141 1.524 . S
C142 C143 1.415 . S
C143 H119 0.950 . S
C143 C138 1.363 . S
C143 C142 1.415 . S
C144 H120 0.951 . S
C144 C145 1.366 1_565 S
C144 C146 1.388 . S
C145 C144 1.366 1_545 S
C145 C149 1.383 . S
C146 H121 0.951 . S
C146 C144 1.388 . S
C146 C147 1.371 1_565 S
C147 C146 1.371 1_545 S
C147 C148 1.413 . S
C147 C150 1.496 . S
C148 H122 0.950 . S
C148 C147 1.413 . S
C148 C149 1.374 . S
C149 H123 0.950 . S
C149 C145 1.383 . S
C149 C148 1.374 . S
C150 C147 1.496 . S
C150 C151 1.366 1_545 S
C150 C152 1.394 . S
C151 H124 0.950 . S
C151 C137 1.377 . S
C151 C150 1.366 1_565 S
C152 C136 1.377 . S
C152 C150 1.394 . S
C152 C153 1.524 . S
C153 C152 1.524 . S
C153 C154 1.397 . S
C153 C158 1.363 . S
C154 H125 0.950 . S
C154 C153 1.397 . S
C154 C155 1.334 . S
C155 H126 0.950 . S
C155 C154 1.334 . S
C155 C156 1.287 . S
C156 C155 1.287 . S
C156 C157 1.524 . S
C156 H159 0.999 . S
C157 H127 0.950 . S
C157 C156 1.524 . S
C157 C158 1.415 . S
C158 H128 0.950 . S
C158 C153 1.363 . S
C158 C157 1.415 . S
H159 C156 0.999 . S
H160 C141 0.913 . S
H161 C179 0.951 . S
H162 C181 0.951 . S
H163 C183 0.950 . S
H164 C184 0.950 . S
H165 C186 0.950 . S
H166 C189 0.950 . S
H167 C190 0.950 . S
H168 C192 0.950 . S
H169 C193 0.950 . S
H170 C194 0.951 . S
H171 C196 0.951 . S
H172 C198 0.950 . S
H173 C199 0.950 . S
H174 C201 0.950 . S
H175 C204 0.950 . S
H176 C205 0.950 . S
H177 C207 0.950 . S
H178 C208 0.950 . S
C179 H161 0.951 . S
C179 C180 1.366 1_655 S
C179 C181 1.388 . S
C180 C179 1.366 1_455 S
C180 C184 1.385 . S
C181 H162 0.951 . S
C181 C179 1.388 . S
C181 C182 1.366 1_655 S
C182 C181 1.366 1_455 S
C182 C183 1.414 . S
C182 C185 1.499 . S
C183 H163 0.950 . S
C183 C182 1.414 . S
C183 C184 1.374 . S
C184 H164 0.950 . S
C184 C180 1.385 . S
C184 C183 1.374 . S
C185 C182 1.499 . S
C185 C186 1.373 . S
C185 C187 1.389 1_455 S
C186 H165 0.950 . S
C186 C185 1.373 . S
C186 C202 1.377 . S
C187 C185 1.389 1_655 S
C187 C188 1.524 . S
C187 C201 1.377 . S
C188 C187 1.524 . S
C188 C189 1.397 1_655 S
C188 C193 1.363 . S
C189 H166 0.950 . S
C189 C188 1.397 1_455 S
C189 C190 1.334 . S
C190 H167 0.950 . S
C190 C189 1.334 . S
C190 C191 1.287 1_455 S
C191 C190 1.287 1_655 S
C191 C192 1.524 . S
C191 H210 0.913 . S
C192 H168 0.950 . S
C192 C191 1.524 . S
C192 C193 1.415 . S
C193 H169 0.950 . S
C193 C188 1.363 . S
C193 C192 1.415 . S
C194 H170 0.951 . S
C194 C195 1.366 . S
C194 C196 1.388 . S
C195 C194 1.366 . S
C195 C199 1.385 1_455 S
C196 H171 0.951 . S
C196 C194 1.388 . S
C196 C197 1.366 . S
C197 C196 1.366 . S
C197 C198 1.414 1_455 S
C197 C200 1.499 . S
C198 H172 0.950 . S
C198 C197 1.414 1_655 S
C198 C199 1.374 . S
C199 H173 0.950 . S
C199 C195 1.385 1_655 S
C199 C198 1.374 . S
C200 C197 1.499 . S
C200 C201 1.373 1_455 S
C200 C202 1.389 . S
C201 H174 0.950 . S
C201 C187 1.377 . S
C201 C200 1.373 1_655 S
C202 C186 1.377 . S
C202 C200 1.389 . S
C202 C203 1.524 . S
C203 C202 1.524 . S
C203 C204 1.397 1_455 S
C203 C208 1.363 . S
C204 H175 0.950 . S
C204 C203 1.397 1_655 S
C204 C205 1.334 . S
C205 H176 0.950 . S
C205 C204 1.334 . S
C205 C206 1.287 1_655 S
C206 C205 1.287 1_455 S
C206 C207 1.524 . S
C206 H209 0.999 . S
C207 H177 0.950 . S
C207 C206 1.524 . S
C207 C208 1.415 . S
C208 H178 0.950 . S
C208 C203 1.363 . S
C208 C207 1.415 . S
H209 C206 0.999 . S
H210 C191 0.913 . S
H211 C229 0.951 . S
H212 C231 0.951 . S
H213 C233 0.950 . S
H214 C234 0.950 . S
H215 C236 0.950 . S
H216 C239 0.950 . S
H217 C240 0.950 . S
H218 C242 0.950 . S
H219 C243 0.950 . S
H220 C244 0.951 . S
H221 C246 0.951 . S
H222 C248 0.950 . S
H223 C249 0.950 . S
H224 C251 0.950 . S
H225 C254 0.950 . S
H226 C255 0.950 . S
H227 C257 0.950 . S
H228 C258 0.950 . S
C229 H211 0.951 . S
C229 C230 1.366 . S
C229 C231 1.388 . S
C230 C229 1.366 . S
C230 C234 1.385 . S
C231 H212 0.951 . S
C231 C229 1.388 . S
C231 C232 1.366 . S
C232 C231 1.366 . S
C232 C233 1.414 . S
C232 C235 1.499 . S
C233 H213 0.950 . S
C233 C232 1.414 . S
C233 C234 1.374 . S
C234 H214 0.950 . S
C234 C230 1.385 . S
C234 C233 1.374 . S
C235 C232 1.499 . S
C235 C236 1.373 1_565 S
C235 C237 1.389 . S
C236 H215 0.950 . S
C236 C235 1.373 1_545 S
C236 C252 1.377 . S
C237 C235 1.389 . S
C237 C238 1.524 . S
C237 C251 1.377 . S
C238 C237 1.524 . S
C238 C239 1.397 . S
C238 C243 1.363 . S
C239 H216 0.950 . S
C239 C238 1.397 . S
C239 C240 1.334 . S
C240 H217 0.950 . S
C240 C239 1.334 . S
C240 C241 1.287 . S
C241 C240 1.287 . S
C241 C242 1.524 . S
C241 H260 0.913 . S
C242 H218 0.950 . S
C242 C241 1.524 . S
C242 C243 1.415 . S
C243 H219 0.950 . S
C243 C238 1.363 . S
C243 C242 1.415 . S
C244 H220 0.951 . S
C244 C245 1.364 . S
C244 C246 1.388 . S
C245 C244 1.364 . S
C245 C249 1.383 1_565 S
C246 H221 0.951 . S
C246 C244 1.388 . S
C246 C247 1.366 . S
C247 C246 1.366 . S
C247 C248 1.414 1_565 S
C247 C250 1.499 . S
C248 H222 0.950 . S
C248 C247 1.414 1_545 S
C248 C249 1.374 . S
C249 H223 0.950 . S
C249 C245 1.383 1_545 S
C249 C248 1.374 . S
C250 C247 1.499 . S
C250 C251 1.373 . S
C250 C252 1.389 1_565 S
C251 H224 0.950 . S
C251 C237 1.377 . S
C251 C250 1.373 . S
C252 C236 1.377 . S
C252 C250 1.389 1_545 S
C252 C253 1.524 . S
C253 C252 1.524 . S
C253 C254 1.397 . S
C253 C258 1.363 . S
C254 H225 0.950 . S
C254 C253 1.397 . S
C254 C255 1.334 . S
C255 H226 0.950 . S
C255 C254 1.334 . S
C255 C256 1.287 . S
C256 C255 1.287 . S
C256 C257 1.524 . S
C256 H259 0.999 . S
C257 H227 0.950 . S
C257 C256 1.524 . S
C257 C258 1.415 . S
C258 H228 0.950 . S
C258 C253 1.363 . S
C258 C257 1.415 . S
H259 C256 0.999 . S
H260 C241 0.913 . S
H261 C279 0.951 . S
H262 C281 0.951 . S
H263 C283 0.950 . S
H264 C284 0.950 . S
H265 C286 0.950 . S
H266 C289 0.950 . S
H267 C290 0.950 . S
H268 C292 0.950 . S
H269 C293 0.950 . S
H270 C294 0.951 . S
H271 C296 0.951 . S
H272 C298 0.950 . S
H273 C299 0.950 . S
H274 C301 0.950 . S
H275 C304 0.950 . S
H276 C305 0.950 . S
H277 C307 0.950 . S
H278 C308 0.950 . S
C279 H261 0.951 . S
C279 C280 1.366 1_455 S
C279 C281 1.388 . S
C280 C279 1.366 1_655 S
C280 C284 1.385 . S
C281 H262 0.951 . S
C281 C279 1.388 . S
C281 C282 1.366 1_455 S
C282 C281 1.366 1_655 S
C282 C283 1.412 . S
C282 C285 1.498 1_655 S
C283 H263 0.950 . S
C283 C282 1.412 . S
C283 C284 1.374 . S
C284 H264 0.950 . S
C284 C280 1.385 . S
C284 C283 1.374 . S
C285 C282 1.498 1_455 S
C285 C286 1.371 1_455 S
C285 C287 1.392 . S
C286 H265 0.950 . S
C286 C285 1.371 1_655 S
C286 C302 1.377 . S
C287 C285 1.392 . S
C287 C288 1.524 . S
C287 C301 1.377 . S
C288 C287 1.524 . S
C288 C289 1.397 . S
C288 C293 1.363 . S
C289 H266 0.950 . S
C289 C288 1.397 . S
C289 C290 1.334 . S
C290 H267 0.950 . S
C290 C289 1.334 . S
C290 C291 1.287 . S
C291 C290 1.287 . S
C291 C292 1.524 . S
C291 H310 0.913 . S
C292 H268 0.950 . S
C292 C291 1.524 . S
C292 C293 1.415 . S
C293 H269 0.950 . S
C293 C288 1.363 . S
C293 C292 1.415 . S
C294 H270 0.951 . S
C294 C295 1.361 1_655 S
C294 C296 1.388 . S
C295 C294 1.361 1_455 S
C295 C299 1.387 . S
C296 H271 0.951 . S
C296 C294 1.388 . S
C296 C297 1.366 . S
C297 C296 1.366 . S
C297 C298 1.414 1_655 S
C297 C300 1.499 . S
C298 H272 0.950 . S
C298 C297 1.414 1_455 S
C298 C299 1.374 . S
C299 H273 0.950 . S
C299 C295 1.387 . S
C299 C298 1.374 . S
C300 C297 1.499 . S
C300 C301 1.373 1_655 S
C300 C302 1.389 . S
C301 H274 0.950 . S
C301 C287 1.377 . S
C301 C300 1.373 1_455 S
C302 C286 1.377 . S
C302 C300 1.389 . S
C302 C303 1.524 . S
C303 C302 1.524 . S
C303 C304 1.397 . S
C303 C308 1.363 . S
C304 H275 0.950 . S
C304 C303 1.397 . S
C304 C305 1.334 . S
C305 H276 0.950 . S
C305 C304 1.334 . S
C305 C306 1.287 . S
C306 C305 1.287 . S
C306 C307 1.524 . S
C306 H309 0.999 . S
C307 H277 0.950 . S
C307 C306 1.524 . S
C307 C308 1.415 . S
C308 H278 0.950 . S
C308 C303 1.363 . S
C308 C307 1.415 . S
H309 C306 0.999 . S
H310 C291 0.913 . S
H311 C329 0.951 . S
H312 C331 0.951 . S
H313 C333 0.950 . S
H314 C334 0.950 . S
H315 C336 0.950 . S
H316 C339 0.950 . S
H317 C340 0.950 . S
H318 C342 0.950 . S
H319 C343 0.950 . S
H320 C344 0.951 . S
H321 C346 0.951 . S
H322 C348 0.950 . S
H323 C349 0.950 . S
H324 C351 0.945 . S
H325 C354 0.950 . S
H326 C355 0.950 . S
H327 C357 0.950 1_565 S
H328 C358 0.950 . S
C329 H311 0.951 . S
C329 C330 1.366 . S
C329 C331 1.388 . S
C330 C329 1.366 . S
C330 C334 1.385 1_545 S
C331 H312 0.951 . S
C331 C329 1.388 . S
C331 C332 1.366 . S
C332 C331 1.366 . S
C332 C333 1.414 1_545 S
C332 C335 1.499 . S
C333 H313 0.950 . S
C333 C332 1.414 1_565 S
C333 C334 1.374 . S
C334 H314 0.950 . S
C334 C330 1.385 1_565 S
C334 C333 1.374 . S
C335 C332 1.499 . S
C335 C336 1.373 . S
C335 C337 1.388 . S
C336 H315 0.950 . S
C336 C335 1.373 . S
C336 C352 1.377 . S
C337 C335 1.388 . S
C337 C338 1.526 1_545 S
C337 C351 1.376 . S
C338 C337 1.526 1_565 S
C338 C339 1.397 . S
C338 C343 1.363 1_565 S
C339 H316 0.950 . S
C339 C338 1.397 . S
C339 C340 1.334 . S
C340 H317 0.950 . S
C340 C339 1.334 . S
C340 C341 1.287 . S
C341 C340 1.287 . S
C341 C342 1.524 1_565 S
C341 H360 0.913 . S
C342 H318 0.950 . S
C342 C341 1.524 1_545 S
C342 C343 1.415 . S
C343 H319 0.950 . S
C343 C338 1.363 1_545 S
C343 C342 1.415 . S
C344 H320 0.951 . S
C344 C345 1.366 1_565 S
C344 C346 1.388 . S
C345 C344 1.366 1_545 S
C345 C349 1.385 . S
C346 H321 0.951 . S
C346 C344 1.388 . S
C346 C347 1.366 1_565 S
C347 C346 1.366 1_545 S
C347 C348 1.414 . S
C347 C350 1.499 . S
C348 H322 0.950 . S
C348 C347 1.414 . S
C348 C349 1.374 . S
C349 H323 0.950 . S
C349 C345 1.385 . S
C349 C348 1.374 . S
C350 C347 1.499 . S
C350 C351 1.373 . S
C350 C352 1.389 . S
C351 H324 0.945 . S
C351 C337 1.376 . S
C351 C350 1.373 . S
C352 C336 1.377 . S
C352 C350 1.389 . S
C352 C353 1.524 . S
C353 C352 1.524 . S
C353 C354 1.397 . S
C353 C358 1.363 1_545 S
C354 H325 0.950 . S
C354 C353 1.397 . S
C354 C355 1.334 . S
C355 H326 0.950 . S
C355 C354 1.334 . S
C355 C356 1.287 . S
C356 C355 1.287 . S
C356 C357 1.524 . S
C356 H359 0.999 . S
C357 H327 0.950 1_545 S
C357 C356 1.524 . S
C357 C358 1.415 1_545 S
C358 H328 0.950 . S
C358 C353 1.363 1_565 S
C358 C357 1.415 1_565 S
H359 C356 0.999 . S
H360 C341 0.913 . S
H361 C379 0.956 . S
H362 C381 0.951 1_455 S
H363 C383 0.950 . S
H364 C384 0.950 . S
H365 C386 0.950 . S
H366 C389 0.950 . S
H367 C390 0.950 . S
H368 C392 0.950 . S
H369 C393 0.950 . S
H370 C394 0.951 . S
H371 C396 0.951 . S
H372 C398 0.950 . S
H373 C399 0.950 . S
H374 C401 0.950 . S
H375 C404 0.950 . S
H376 C405 0.950 . S
H377 C407 0.950 . S
H378 C408 0.950 . S
C379 H361 0.956 . S
C379 C380 1.366 . S
C379 C381 1.388 . S
C380 C379 1.366 . S
C380 C384 1.385 . S
C381 H362 0.951 1_655 S
C381 C379 1.388 . S
C381 C382 1.366 . S
C382 C381 1.366 . S
C382 C383 1.414 . S
C382 C385 1.499 . S
C383 H363 0.950 . S
C383 C382 1.414 . S
C383 C384 1.374 . S
C384 H364 0.950 . S
C384 C380 1.385 . S
C384 C383 1.374 . S
C385 C382 1.499 . S
C385 C386 1.373 . S
C385 C387 1.389 1_655 S
C386 H365 0.950 . S
C386 C385 1.373 . S
C386 C402 1.377 . S
C387 C385 1.389 1_455 S
C387 C388 1.524 . S
C387 C401 1.377 . S
C388 C387 1.524 . S
C388 C389 1.397 . S
C388 C393 1.363 . S
C389 H366 0.950 . S
C389 C388 1.397 . S
C389 C390 1.334 . S
C390 H367 0.950 . S
C390 C389 1.334 . S
C390 C391 1.287 . S
C391 C390 1.287 . S
C391 C392 1.524 . S
C391 H410 0.913 . S
C392 H368 0.950 . S
C392 C391 1.524 . S
C392 C393 1.415 . S
C393 H369 0.950 . S
C393 C388 1.363 . S
C393 C392 1.415 . S
C394 H370 0.951 . S
C394 C395 1.367 . S
C394 C396 1.388 . S
C395 C394 1.367 . S
C395 C399 1.380 1_655 S
C396 H371 0.951 . S
C396 C394 1.388 . S
C396 C397 1.366 . S
C397 C396 1.366 . S
C397 C398 1.414 1_655 S
C397 C400 1.499 . S
C398 H372 0.950 . S
C398 C397 1.414 1_455 S
C398 C399 1.374 . S
C399 H373 0.950 . S
C399 C395 1.380 1_455 S
C399 C398 1.374 . S
C400 C397 1.499 . S
C400 C401 1.373 1_655 S
C400 C402 1.389 . S
C401 H374 0.950 . S
C401 C387 1.377 . S
C401 C400 1.373 1_455 S
C402 C386 1.377 . S
C402 C400 1.389 . S
C402 C403 1.524 . S
C403 C402 1.524 . S
C403 C404 1.397 . S
C403 C408 1.363 . S
C404 H375 0.950 . S
C404 C403 1.397 . S
C404 C405 1.334 . S
C405 H376 0.950 . S
C405 C404 1.334 . S
C405 C406 1.287 . S
C406 C405 1.287 . S
C406 C407 1.524 . S
C406 H409 0.999 . S
C407 H377 0.950 . S
C407 C406 1.524 . S
C407 C408 1.415 . S
C408 H378 0.950 . S
C408 C403 1.363 . S
C408 C407 1.415 . S
H409 C406 0.999 . S
H410 C391 0.913 . S
H411 C429 0.951 . S
H412 C431 0.951 . S
H413 C433 0.950 1_565 S
H414 C434 0.950 1_565 S
H415 C436 0.950 . S
H416 C439 0.950 . S
H417 C440 0.950 . S
H418 C442 0.950 . S
H419 C443 0.950 . S
H420 C444 0.951 . S
H421 C446 0.951 . S
H422 C448 0.950 . S
H423 C449 0.950 . S
H424 C451 0.950 . S
H425 C454 0.950 . S
H426 C455 0.950 . S
H427 C457 0.950 . S
H428 C458 0.950 . S
C429 H411 0.951 . S
C429 C430 1.366 . S
C429 C431 1.388 . S
C430 C429 1.366 . S
C430 C434 1.385 . S
C431 H412 0.951 . S
C431 C429 1.388 . S
C431 C432 1.366 . S
C432 C431 1.366 . S
C432 C433 1.414 . S
C432 C435 1.499 . S
C433 H413 0.950 1_545 S
C433 C432 1.414 . S
C433 C434 1.374 . S
C434 H414 0.950 1_545 S
C434 C430 1.385 . S
C434 C433 1.374 . S
C435 C432 1.499 . S
C435 C436 1.373 . S
C435 C437 1.389 1_545 S
C436 H415 0.950 . S
C436 C435 1.373 . S
C436 C452 1.377 . S
C437 C435 1.389 1_565 S
C437 C438 1.524 . S
C437 C451 1.377 . S
C438 C437 1.524 . S
C438 C439 1.397 . S
C438 C443 1.363 . S
C439 H416 0.950 . S
C439 C438 1.397 . S
C439 C440 1.334 . S
C440 H417 0.950 . S
C440 C439 1.334 . S
C440 C441 1.287 . S
C441 C440 1.287 . S
C441 C442 1.524 . S
C441 H460 0.913 . S
C442 H418 0.950 . S
C442 C441 1.524 . S
C442 C443 1.415 . S
C443 H419 0.950 . S
C443 C438 1.363 . S
C443 C442 1.415 . S
C444 H420 0.951 . S
C444 C445 1.366 1_565 S
C444 C446 1.388 . S
C445 C444 1.366 1_545 S
C445 C449 1.385 . S
C446 H421 0.951 . S
C446 C444 1.388 . S
C446 C447 1.366 1_565 S
C447 C446 1.366 1_545 S
C447 C448 1.414 . S
C447 C450 1.499 . S
C448 H422 0.950 . S
C448 C447 1.414 . S
C448 C449 1.374 . S
C449 H423 0.950 . S
C449 C445 1.385 . S
C449 C448 1.374 . S
C450 C447 1.499 . S
C450 C451 1.373 1_545 S
C450 C452 1.389 . S
C451 H424 0.950 . S
C451 C437 1.377 . S
C451 C450 1.373 1_565 S
C452 C436 1.377 . S
C452 C450 1.389 . S
C452 C453 1.524 . S
C453 C452 1.524 . S
C453 C454 1.397 . S
C453 C458 1.363 . S
C454 H425 0.950 . S
C454 C453 1.397 . S
C454 C455 1.334 . S
C455 H426 0.950 . S
C455 C454 1.334 . S
C455 C456 1.287 . S
C456 C455 1.287 . S
C456 C457 1.524 . S
C456 H459 0.999 . S
C457 H427 0.950 . S
C457 C456 1.524 . S
C457 C458 1.415 . S
C458 H428 0.950 . S
C458 C453 1.363 . S
C458 C457 1.415 . S
H459 C456 0.999 . S
H460 C441 0.913 . S
C80 C23 1.276 . S
C95 C34 1.348 . S
C130 C22 1.402 . S
C145 C60 1.445 . S
C180 C21 1.800 . S
C195 C46 1.809 . S
C230 C24 1.480 . S
C245 C48 1.546 1_565 S
C280 C27 1.275 . S
C295 C33 1.349 . S
C330 C26 1.402 . S
C345 C59 1.448 . S
C395 C45 1.820 1_655 S
C380 C25 1.800 . S
C430 C28 1.481 . S
C445 C47 1.535 . S
