# Generated by pormake.
# Topology myd, (4,6)-cn, num edge types: 1
# Building blocks:
#     Node 0, Type 0, BuildingBlock: KOZSID_clean_sbu_0, # of connection points: 4
#     Node 1, Type 0, BuildingBlock: KOZSID_clean_sbu_0, # of connection points: 4
#     Node 2, Type 0, BuildingBlock: KOZSID_clean_sbu_0, # of connection points: 4
#     Node 3, Type 0, BuildingBlock: KOZSID_clean_sbu_0, # of connection points: 4
#     Node 4, Type 0, BuildingBlock: KOZSID_clean_sbu_0, # of connection points: 4
#     Node 5, Type 0, BuildingBlock: KOZSID_clean_sbu_0, # of connection points: 4
#     Node 6, Type 0, BuildingBlock: KOZSID_clean_sbu_0, # of connection points: 4
#     Node 7, Type 0, BuildingBlock: KOZSID_clean_sbu_0, # of connection points: 4
#     Node 8, Type 0, BuildingBlock: KOZSID_clean_sbu_0, # of connection points: 4
#     Node 9, Type 0, BuildingBlock: KOZSID_clean_sbu_0, # of connection points: 4
#     Node 10, Type 0, BuildingBlock: KOZSID_clean_sbu_0, # of connection points: 4
#     Node 11, Type 0, BuildingBlock: KOZSID_clean_sbu_0, # of connection points: 4
#     Node 12, Type 1, BuildingBlock: FUNLAD_clean_sbu_0, # of connection points: 6
#     Node 13, Type 1, BuildingBlock: FUNLAD_clean_sbu_0, # of connection points: 6
#     Node 14, Type 1, BuildingBlock: FUNLAD_clean_sbu_0, # of connection points: 6
#     Node 15, Type 1, BuildingBlock: FUNLAD_clean_sbu_0, # of connection points: 6
#     Node 16, Type 1, BuildingBlock: FUNLAD_clean_sbu_0, # of connection points: 6
#     Node 17, Type 1, BuildingBlock: FUNLAD_clean_sbu_0, # of connection points: 6
#     Node 18, Type 1, BuildingBlock: FUNLAD_clean_sbu_0, # of connection points: 6
#     Node 19, Type 1, BuildingBlock: FUNLAD_clean_sbu_0, # of connection points: 6
#     Edge 20, Type (0, 1), BuildingBlock: KIFKEQ_clean_linker_1, # of connection points: 2
#     Edge 21, Type (0, 1), BuildingBlock: KIFKEQ_clean_linker_1, # of connection points: 2
#     Edge 22, Type (0, 1), BuildingBlock: KIFKEQ_clean_linker_1, # of connection points: 2
#     Edge 23, Type (0, 1), BuildingBlock: KIFKEQ_clean_linker_1, # of connection points: 2
#     Edge 24, Type (0, 1), BuildingBlock: KIFKEQ_clean_linker_1, # of connection points: 2
#     Edge 25, Type (0, 1), BuildingBlock: KIFKEQ_clean_linker_1, # of connection points: 2
#     Edge 26, Type (0, 1), BuildingBlock: KIFKEQ_clean_linker_1, # of connection points: 2
#     Edge 27, Type (0, 1), BuildingBlock: KIFKEQ_clean_linker_1, # of connection points: 2
#     Edge 28, Type (0, 1), BuildingBlock: KIFKEQ_clean_linker_1, # of connection points: 2
#     Edge 29, Type (0, 1), BuildingBlock: KIFKEQ_clean_linker_1, # of connection points: 2
#     Edge 30, Type (0, 1), BuildingBlock: KIFKEQ_clean_linker_1, # of connection points: 2
#     Edge 31, Type (0, 1), BuildingBlock: KIFKEQ_clean_linker_1, # of connection points: 2
#     Edge 32, Type (0, 1), BuildingBlock: KIFKEQ_clean_linker_1, # of connection points: 2
#     Edge 33, Type (0, 1), BuildingBlock: KIFKEQ_clean_linker_1, # of connection points: 2
#     Edge 34, Type (0, 1), BuildingBlock: KIFKEQ_clean_linker_1, # of connection points: 2
#     Edge 35, Type (0, 1), BuildingBlock: KIFKEQ_clean_linker_1, # of connection points: 2
#     Edge 36, Type (0, 1), BuildingBlock: KIFKEQ_clean_linker_1, # of connection points: 2
#     Edge 37, Type (0, 1), BuildingBlock: KIFKEQ_clean_linker_1, # of connection points: 2
#     Edge 38, Type (0, 1), BuildingBlock: KIFKEQ_clean_linker_1, # of connection points: 2
#     Edge 39, Type (0, 1), BuildingBlock: KIFKEQ_clean_linker_1, # of connection points: 2
#     Edge 40, Type (0, 1), BuildingBlock: KIFKEQ_clean_linker_1, # of connection points: 2
#     Edge 41, Type (0, 1), BuildingBlock: KIFKEQ_clean_linker_1, # of connection points: 2
#     Edge 42, Type (0, 1), BuildingBlock: KIFKEQ_clean_linker_1, # of connection points: 2
#     Edge 43, Type (0, 1), BuildingBlock: KIFKEQ_clean_linker_1, # of connection points: 2
#     Edge 44, Type (0, 1), BuildingBlock: KIFKEQ_clean_linker_1, # of connection points: 2
#     Edge 45, Type (0, 1), BuildingBlock: KIFKEQ_clean_linker_1, # of connection points: 2
#     Edge 46, Type (0, 1), BuildingBlock: KIFKEQ_clean_linker_1, # of connection points: 2
#     Edge 47, Type (0, 1), BuildingBlock: KIFKEQ_clean_linker_1, # of connection points: 2
#     Edge 48, Type (0, 1), BuildingBlock: KIFKEQ_clean_linker_1, # of connection points: 2
#     Edge 49, Type (0, 1), BuildingBlock: KIFKEQ_clean_linker_1, # of connection points: 2
#     Edge 50, Type (0, 1), BuildingBlock: KIFKEQ_clean_linker_1, # of connection points: 2
#     Edge 51, Type (0, 1), BuildingBlock: KIFKEQ_clean_linker_1, # of connection points: 2
#     Edge 52, Type (0, 1), BuildingBlock: KIFKEQ_clean_linker_1, # of connection points: 2
#     Edge 53, Type (0, 1), BuildingBlock: KIFKEQ_clean_linker_1, # of connection points: 2
#     Edge 54, Type (0, 1), BuildingBlock: KIFKEQ_clean_linker_1, # of connection points: 2
#     Edge 55, Type (0, 1), BuildingBlock: KIFKEQ_clean_linker_1, # of connection points: 2
#     Edge 56, Type (0, 1), BuildingBlock: KIFKEQ_clean_linker_1, # of connection points: 2
#     Edge 57, Type (0, 1), BuildingBlock: KIFKEQ_clean_linker_1, # of connection points: 2
#     Edge 58, Type (0, 1), BuildingBlock: KIFKEQ_clean_linker_1, # of connection points: 2
#     Edge 59, Type (0, 1), BuildingBlock: KIFKEQ_clean_linker_1, # of connection points: 2
#     Edge 60, Type (0, 1), BuildingBlock: KIFKEQ_clean_linker_1, # of connection points: 2
#     Edge 61, Type (0, 1), BuildingBlock: KIFKEQ_clean_linker_1, # of connection points: 2
#     Edge 62, Type (0, 1), BuildingBlock: KIFKEQ_clean_linker_1, # of connection points: 2
#     Edge 63, Type (0, 1), BuildingBlock: KIFKEQ_clean_linker_1, # of connection points: 2
#     Edge 64, Type (0, 1), BuildingBlock: KIFKEQ_clean_linker_1, # of connection points: 2
#     Edge 65, Type (0, 1), BuildingBlock: KIFKEQ_clean_linker_1, # of connection points: 2
#     Edge 66, Type (0, 1), BuildingBlock: KIFKEQ_clean_linker_1, # of connection points: 2
#     Edge 67, Type (0, 1), BuildingBlock: KIFKEQ_clean_linker_1, # of connection points: 2
# Relax obj value: 0.244
# Max RMSD: 0.227
# Mean RMSD: 0.151
data_MOF--net-myd--node1-KOZSID_clean_sbu_0--node2-FUNLAD_clean_sbu_0--edge1-KIFKEQ_clean_linker_1
_symmetry_space_group_name_H-M    P1
_symmetry_Int_Tables_number       1
_symmetry_cell_setting            triclinic
loop_
_symmetry_equiv_pos_as_xyz
'x, y, z'
_cell_length_a     51.694953
_cell_length_b     51.651883
_cell_length_c     56.378529
_cell_angle_alpha  86.667559
_cell_angle_beta   84.372842
_cell_angle_gamma 90.638247
loop_
_atom_site_label
_atom_site_type_symbol
_atom_site_fract_x
_atom_site_fract_y
_atom_site_fract_z
_atom_type_partial_charge
C0 C 0.98669 0.29846 0.37832 0.0
C1 C 0.96214 0.30565 0.3875 0.0
C2 C 0.94489 0.28883 0.37936 0.0
C3 C 0.95984 0.27235 0.36576 0.0
N4 N 0.98566 0.27711 0.36542 0.0
Co5 Co 0.01438 0.26025 0.34565 0.0
N6 N 0.98915 0.2416 0.32753 0.0
C7 C 0.96291 0.24165 0.33152 0.0
C8 C 0.9507 0.2272 0.31613 0.0
C9 C 0.9703 0.21739 0.30141 0.0
C10 C 0.99344 0.22641 0.30872 0.0
N11 N 0.04329 0.2438 0.3258 0.0
C12 C 0.04255 0.2284 0.30719 0.0
C13 C 0.06731 0.22114 0.2985 0.0
C14 C 0.08427 0.23238 0.31209 0.0
C15 C 0.069 0.24581 0.32823 0.0
N16 N 0.03941 0.27953 0.36356 0.0
C17 C 0.06552 0.27707 0.36196 0.0
C18 C 0.07775 0.29497 0.37423 0.0
C19 C 0.05842 0.31031 0.38359 0.0
C20 C 0.03536 0.30077 0.37657 0.0
N21 N 0.01355 0.22935 0.36912 0.0
C22 C 0.0132 0.17698 0.38733 0.0
C23 C 0.03637 0.19158 0.38339 0.0
C24 C 0.03603 0.21762 0.37475 0.0
C25 C 0.99005 0.19014 0.3849 0.0
C26 C 0.99066 0.21618 0.37636 0.0
N27 N 0.01515 0.28984 0.3218 0.0
C28 C 0.03898 0.31787 0.29127 0.0
C29 C 0.01578 0.32611 0.28264 0.0
C30 C 0.99234 0.31745 0.29522 0.0
C31 C 0.99246 0.2994 0.31453 0.0
C32 C 0.03821 0.29997 0.31093 0.0
H33 H 0.97396 0.29277 0.32285 0.0
H34 H 0.05644 0.29384 0.31658 0.0
H35 H 0.05434 0.22745 0.37188 0.0
H36 H 0.97232 0.22482 0.37498 0.0
C37 C 0.95034 0.25603 0.34946 0.0
C38 C 0.0103 0.31355 0.38083 0.0
C39 C 0.01898 0.22001 0.29727 0.0
C40 C 0.07819 0.26138 0.34521 0.0
H41 H 0.95722 0.32214 0.39796 0.0
H42 H 0.92389 0.28983 0.38153 0.0
H43 H 0.93 0.22433 0.31554 0.0
H44 H 0.96786 0.20503 0.2869 0.0
H45 H 0.07257 0.20899 0.28384 0.0
H46 H 0.10525 0.23115 0.31023 0.0
H47 H 0.09846 0.29786 0.37472 0.0
H48 H 0.06126 0.32735 0.39335 0.0
H49 H 0.05489 0.18271 0.38579 0.0
H50 H 0.97143 0.18025 0.38908 0.0
H51 H 0.05765 0.32418 0.28227 0.0
H52 H 0.97386 0.32395 0.28975 0.0
C53 C 0.98932 0.70654 0.12648 0.0
C54 C 0.96664 0.70044 0.1166 0.0
C55 C 0.94742 0.71458 0.1277 0.0
C56 C 0.95946 0.7285 0.14357 0.0
N57 N 0.9853 0.72446 0.14303 0.0
Co58 Co 0.01025 0.74035 0.16332 0.0
N59 N 0.98129 0.75788 0.18212 0.0
C60 C 0.9556 0.75638 0.17943 0.0
C61 C 0.94047 0.7709 0.19474 0.0
C62 C 0.95752 0.78258 0.20787 0.0
C63 C 0.98216 0.7744 0.19975 0.0
N64 N 0.03537 0.75656 0.18314 0.0
C65 C 0.03112 0.77375 0.20023 0.0
C66 C 0.05407 0.78109 0.20908 0.0
C67 C 0.07361 0.76839 0.19678 0.0
C68 C 0.06151 0.75407 0.18125 0.0
N69 N 0.039 0.72203 0.14473 0.0
C70 C 0.06469 0.72325 0.14743 0.0
C71 C 0.07947 0.7073 0.13317 0.0
C72 C 0.06214 0.69471 0.12093 0.0
C73 C 0.03774 0.70384 0.12841 0.0
N74 N 0.0149 0.77186 0.14063 0.0
C75 C 0.02249 0.82361 0.1207 0.0
C76 C 0.04348 0.80707 0.12319 0.0
C77 C 0.03928 0.78153 0.13283 0.0
C78 C 0.9975 0.81279 0.12635 0.0
C79 C 0.99418 0.78703 0.13582 0.0
N80 N 0.00573 0.70986 0.18699 0.0
C81 C 0.02349 0.68287 0.21792 0.0
C82 C 0.99868 0.67426 0.2275 0.0
C83 C 0.9776 0.6823 0.21518 0.0
C84 C 0.98154 0.69987 0.19507 0.0
C85 C 0.02656 0.70021 0.19774 0.0
H86 H 0.96467 0.70578 0.18676 0.0
H87 H 0.04598 0.70614 0.19157 0.0
H88 H 0.05622 0.77037 0.13475 0.0
H89 H 0.97464 0.78012 0.13992 0.0
C90 C 0.94659 0.743 0.16102 0.0
C91 C 0.0138 0.69363 0.12057 0.0
C92 C 0.00588 0.78411 0.20819 0.0
C93 C 0.07413 0.73843 0.1645 0.0
H94 H 0.96415 0.68657 0.10329 0.0
H95 H 0.92692 0.71391 0.12525 0.0
H96 H 0.91964 0.7734 0.19566 0.0
H97 H 0.95243 0.79617 0.2214 0.0
H98 H 0.05647 0.79451 0.22278 0.0
H99 H 0.0942 0.76972 0.1987 0.0
H100 H 0.10025 0.70452 0.13236 0.0
H101 H 0.06686 0.67999 0.10838 0.0
H102 H 0.06329 0.81407 0.11881 0.0
H103 H 0.98046 0.82425 0.12382 0.0
H104 H 0.04059 0.67654 0.22615 0.0
H105 H 0.95798 0.67596 0.22156 0.0
C106 C 0.35908 0.98411 0.26442 0.0
C107 C 0.36964 0.96048 0.27087 0.0
C108 C 0.36125 0.94297 0.25595 0.0
C109 C 0.34613 0.95687 0.24129 0.0
N110 N 0.34485 0.98235 0.24551 0.0
Co111 Co 0.32292 0.009 0.22999 0.0
N112 N 0.30691 0.98246 0.21096 0.0
C113 C 0.31303 0.95708 0.21043 0.0
C114 C 0.3001 0.94385 0.19471 0.0
C115 C 0.28498 0.96186 0.18435 0.0
C116 C 0.28941 0.98516 0.19451 0.0
N117 N 0.30045 0.0356 0.2151 0.0
C118 C 0.28295 0.03324 0.19884 0.0
C119 C 0.27114 0.05671 0.19389 0.0
C120 C 0.28197 0.07459 0.20698 0.0
C121 C 0.29951 0.0611 0.21934 0.0
N122 N 0.33932 0.03557 0.24873 0.0
C123 C 0.33544 0.06142 0.24739 0.0
C124 C 0.3483 0.0746 0.26323 0.0
C125 C 0.36074 0.056 0.2758 0.0
C126 C 0.35476 0.03244 0.26684 0.0
N127 N 0.35058 0.0158 0.20266 0.0
C128 C 0.38219 0.02432 0.15864 0.0
C129 C 0.37022 0.04488 0.17029 0.0
C130 C 0.35496 0.0403 0.19214 0.0
C131 C 0.37956 0.99968 0.17039 0.0
C132 C 0.36393 0.99592 0.19218 0.0
N133 N 0.29515 1.00218 0.25686 0.0
C134 C 0.26427 0.01743 0.28802 0.0
C135 C 0.25543 0.9921 0.29481 0.0
C136 C 0.26728 0.97194 0.28243 0.0
C137 C 0.28685 0.97733 0.26376 0.0
C138 C 0.28392 0.02199 0.26917 0.0
H139 H 0.295 0.96107 0.25508 0.0
H140 H 0.28963 0.04174 0.26474 0.0
H141 H 0.34634 0.05687 0.19982 0.0
H142 H 0.3624 0.97657 0.19977 0.0
C143 C 0.33112 0.94627 0.22484 0.0
C144 C 0.36237 0.00746 0.27734 0.0
C145 C 0.27719 0.00944 0.18731 0.0
C146 C 0.31644 0.07207 0.23397 0.0
H147 H 0.3816 0.95623 0.28529 0.0
H148 H 0.36488 0.92236 0.25638 0.0
H149 H 0.30175 0.92358 0.19098 0.0
H150 H 0.27243 0.9583 0.17057 0.0
H151 H 0.2564 0.06065 0.18187 0.0
H152 H 0.27785 0.09508 0.20716 0.0
H153 H 0.34741 0.09507 0.26631 0.0
H154 H 0.37196 0.05933 0.29058 0.0
H155 H 0.37228 0.06452 0.16241 0.0
H156 H 0.38859 0.98306 0.16234 0.0
H157 H 0.25563 0.0338 0.29679 0.0
H158 H 0.26154 0.95192 0.28714 0.0
C159 C 0.65759 0.48136 0.21175 0.0
C160 C 0.64385 0.45924 0.20728 0.0
C161 C 0.65548 0.43883 0.21821 0.0
C162 C 0.6755 0.44968 0.2287 0.0
N163 N 0.67701 0.47584 0.22553 0.0
Co164 Co 0.7032 0.49965 0.23715 0.0
N165 N 0.72237 0.46954 0.25053 0.0
C166 C 0.71729 0.44401 0.24876 0.0
C167 C 0.7334 0.42803 0.26059 0.0
C168 C 0.74937 0.44431 0.27091 0.0
C169 C 0.74199 0.46935 0.26472 0.0
N170 N 0.72898 0.52349 0.24937 0.0
C171 C 0.74751 0.51795 0.26414 0.0
C172 C 0.76028 0.54017 0.26987 0.0
C173 C 0.7489 0.56062 0.25875 0.0
C174 C 0.72993 0.54971 0.24696 0.0
N175 N 0.6843 0.5297 0.22322 0.0
C176 C 0.69018 0.55522 0.22384 0.0
C177 C 0.67468 0.57108 0.21119 0.0
C178 C 0.65832 0.55468 0.20143 0.0
C179 C 0.66482 0.52973 0.20882 0.0
N180 N 0.68139 0.50096 0.26824 0.0
C181 C 0.65768 0.50246 0.31558 0.0
C182 C 0.66464 0.52529 0.30173 0.0
C183 C 0.67621 0.52411 0.27831 0.0
C184 C 0.66155 0.47892 0.30476 0.0
C185 C 0.67319 0.47863 0.28128 0.0
N186 N 0.72552 0.49833 0.20627 0.0
C187 C 0.75681 0.51885 0.17586 0.0
C188 C 0.7616 0.49529 0.16531 0.0
C189 C 0.74673 0.47363 0.17487 0.0
C190 C 0.729 0.47556 0.19511 0.0
C191 C 0.73873 0.51995 0.19596 0.0
H192 H 0.71866 0.45823 0.20164 0.0
H193 H 0.73621 0.53847 0.20312 0.0
H194 H 0.68151 0.54219 0.26896 0.0
H195 H 0.67595 0.46003 0.27428 0.0
C196 C 0.69501 0.43577 0.23899 0.0
C197 C 0.65354 0.50664 0.20016 0.0
C198 C 0.75227 0.49224 0.27454 0.0
C199 C 0.71151 0.56353 0.23501 0.0
H200 H 0.62791 0.45797 0.19628 0.0
H201 H 0.65078 0.41843 0.21749 0.0
H202 H 0.73262 0.40706 0.26264 0.0
H203 H 0.76396 0.43843 0.28255 0.0
H204 H 0.77561 0.54145 0.28155 0.0
H205 H 0.75321 0.58103 0.25994 0.0
H206 H 0.67583 0.59201 0.20858 0.0
H207 H 0.64386 0.56033 0.18957 0.0
H208 H 0.66211 0.54407 0.30915 0.0
H209 H 0.65587 0.46069 0.31441 0.0
H210 H 0.76765 0.53629 0.16929 0.0
H211 H 0.74896 0.45505 0.16702 0.0
C212 C 0.31459 0.35886 0.97406 0.0
C213 C 0.3212 0.36965 0.95116 0.0
C214 C 0.30213 0.36192 0.93756 0.0
C215 C 0.28492 0.34694 0.95289 0.0
N216 N 0.29203 0.34496 0.97521 0.0
Co217 Co 0.27391 0.32412 1.00263 0.0
N218 N 0.25552 0.30226 0.98156 0.0
C219 C 0.25269 0.30835 0.9584 0.0
C220 C 0.23936 0.28954 0.94812 0.0
C221 C 0.23304 0.27072 0.96602 0.0
C222 C 0.24259 0.27922 0.98647 0.0
N223 N 0.2561 0.30341 0.03037 0.0
C224 C 0.24274 0.28052 0.03141 0.0
C225 C 0.23196 0.27408 0.05461 0.0
C226 C 0.23874 0.29358 0.06837 0.0
C227 C 0.25312 0.31093 0.05295 0.0
N228 N 0.29227 0.34619 0.0235 0.0
C229 C 0.28539 0.34923 0.04677 0.0
C230 C 0.30269 0.36463 0.05678 0.0
C231 C 0.32163 0.37161 0.03866 0.0
C232 C 0.3147 0.36019 0.01847 0.0
N233 N 0.24448 0.34818 1.00338 0.0
C234 C 0.20163 0.38098 0.99911 0.0
C235 C 0.19817 0.35422 0.0041 0.0
C236 C 0.2196 0.33833 0.00616 0.0
C237 C 0.22719 0.39111 0.99725 0.0
C238 C 0.24829 0.37442 0.99945 0.0
N239 N 0.30295 0.30004 1.0013 0.0
C240 C 0.33583 0.2755 0.01979 0.0
C241 C 0.34596 0.26728 0.99748 0.0
C242 C 0.33368 0.27546 0.97736 0.0
C243 C 0.3124 0.29168 0.97963 0.0
C244 C 0.31432 0.29195 0.0213 0.0
H245 H 0.30372 0.29761 0.96366 0.0
H246 H 0.30702 0.29832 0.03855 0.0
H247 H 0.21586 0.31786 0.00947 0.0
H248 H 0.26775 0.38263 0.9974 0.0
C249 C 0.26601 0.32982 0.94621 0.0
C250 C 0.32922 0.36315 0.99465 0.0
C251 C 0.23697 0.26626 0.01056 0.0
C252 C 0.2665 0.33277 0.05941 0.0
H253 H 0.33813 0.38159 0.94495 0.0
H254 H 0.30177 0.3655 0.91849 0.0
H255 H 0.23537 0.28914 0.92966 0.0
H256 H 0.22235 0.25295 0.96418 0.0
H257 H 0.21974 0.25747 0.06092 0.0
H258 H 0.23397 0.2948 0.0874 0.0
H259 H 0.30255 0.36885 0.07537 0.0
H260 H 0.33874 0.3833 0.04039 0.0
H261 H 0.17891 0.3454 0.00644 0.0
H262 H 0.23097 0.41168 0.9935 0.0
H263 H 0.34464 0.26962 0.03585 0.0
H264 H 0.34024 0.26913 0.95983 0.0
C265 C 0.25881 0.66923 0.4734 0.0
C266 C 0.26133 0.65672 0.45223 0.0
C267 C 0.2843 0.6656 0.43996 0.0
C268 C 0.29445 0.68293 0.45434 0.0
N269 N 0.27934 0.68532 0.47486 0.0
Co270 Co 0.28559 0.70881 0.5003 0.0
N271 N 0.30992 0.73102 0.47825 0.0
C272 C 0.32146 0.72423 0.45707 0.0
C273 C 0.33811 0.74307 0.44601 0.0
C274 C 0.33735 0.76274 0.46134 0.0
C275 C 0.32023 0.75477 0.48102 0.0
N276 N 0.2917 0.73209 0.52606 0.0
C277 C 0.30345 0.75578 0.52484 0.0
C278 C 0.30408 0.7649 0.54748 0.0
C279 C 0.29296 0.74596 0.56338 0.0
C280 C 0.28605 0.72643 0.54965 0.0
N281 N 0.26128 0.68637 0.5221 0.0
C282 C 0.25932 0.68517 0.54609 0.0
C283 C 0.23973 0.66861 0.55613 0.0
C284 C 0.22869 0.65893 0.53723 0.0
C285 C 0.24232 0.67008 0.51668 0.0
N286 N 0.31527 0.68746 0.50912 0.0
C287 C 0.35804 0.65808 0.52277 0.0
C288 C 0.33486 0.64592 0.51767 0.0
C289 C 0.31377 0.6609 0.51097 0.0
C290 C 0.35921 0.68526 0.5204 0.0
C291 C 0.3379 0.6994 0.51366 0.0
N292 N 0.25615 0.73029 0.49153 0.0
C293 C 0.21722 0.75395 0.50301 0.0
C294 C 0.21392 0.76102 0.47904 0.0
C295 C 0.23231 0.75206 0.46151 0.0
C296 C 0.25322 0.73694 0.46808 0.0
C297 C 0.23825 0.73863 0.50882 0.0
H298 H 0.26707 0.73067 0.45411 0.0
H299 H 0.23996 0.73349 0.5274 0.0
H300 H 0.29616 0.65099 0.50744 0.0
H301 H 0.33993 0.72016 0.51222 0.0
C302 C 0.31425 0.70125 0.44716 0.0
C303 C 0.23737 0.66485 0.49223 0.0
C304 C 0.31726 0.76856 0.50319 0.0
C305 C 0.27178 0.70396 0.55802 0.0
H306 H 0.24786 0.64291 0.44623 0.0
H307 H 0.29184 0.66113 0.42209 0.0
H308 H 0.34933 0.74265 0.42879 0.0
H309 H 0.34877 0.78055 0.45869 0.0
H310 H 0.31243 0.78303 0.55208 0.0
H311 H 0.29001 0.74651 0.58262 0.0
H312 H 0.23312 0.66528 0.57489 0.0
H313 H 0.21224 0.64564 0.53853 0.0
H314 H 0.33277 0.625 0.5193 0.0
H315 H 0.37667 0.69578 0.52354 0.0
H316 H 0.20346 0.75996 0.51729 0.0
H317 H 0.23092 0.75711 0.44277 0.0
C318 C 0.79392 0.83611 0.46997 0.0
C319 C 0.79877 0.84392 0.44596 0.0
C320 C 0.77816 0.83508 0.43484 0.0
C321 C 0.76193 0.82214 0.4525 0.0
N322 N 0.77108 0.82241 0.47399 0.0
Co323 Co 0.75533 0.80361 0.50378 0.0
N324 N 0.73452 0.77994 0.48622 0.0
C325 C 0.72973 0.78396 0.46325 0.0
C326 C 0.71502 0.76442 0.45558 0.0
C327 C 0.70982 0.7473 0.47505 0.0
C328 C 0.72139 0.7575 0.49376 0.0
N329 N 0.73993 0.78517 0.5339 0.0
C330 C 0.72602 0.76255 0.53769 0.0
C331 C 0.71747 0.75822 0.56179 0.0
C332 C 0.72614 0.77878 0.57327 0.0
C333 C 0.73938 0.79463 0.55572 0.0
N334 N 0.77618 0.82724 0.52115 0.0
C335 C 0.77145 0.83245 0.54423 0.0
C336 C 0.78961 0.84918 0.55143 0.0
C337 C 0.80688 0.85467 0.53162 0.0
C338 C 0.79833 0.84085 0.51344 0.0
N339 N 0.72588 0.82795 0.50535 0.0
C340 C 0.68226 0.86026 0.50236 0.0
C341 C 0.67935 0.83382 0.50924 0.0
C342 C 0.70111 0.81822 0.51068 0.0
C343 C 0.70777 0.87048 0.49807 0.0
C344 C 0.72929 0.854 0.49957 0.0
N345 N 0.78419 0.77917 0.50166 0.0
C346 C 0.81757 0.75442 0.51925 0.0
C347 C 0.82595 0.7448 0.49703 0.0
C348 C 0.81284 0.75267 0.47737 0.0
C349 C 0.79204 0.76955 0.48008 0.0
C350 C 0.79679 0.77178 0.52114 0.0
H351 H 0.78231 0.77478 0.46453 0.0
H352 H 0.79091 0.77923 0.5383 0.0
H353 H 0.69759 0.79798 0.51554 0.0
H354 H 0.74864 0.86218 0.49548 0.0
C355 C 0.74226 0.80432 0.44876 0.0
C356 C 0.81079 0.84211 0.48878 0.0
C357 C 0.71739 0.74676 0.51882 0.0
C358 C 0.75361 0.81708 0.55934 0.0
H359 H 0.81566 0.8542 0.43711 0.0
H360 H 0.7763 0.83626 0.41586 0.0
H361 H 0.70931 0.76246 0.4378 0.0
H362 H 0.69847 0.72954 0.47541 0.0
H363 H 0.70537 0.74239 0.5702 0.0
H364 H 0.72322 0.78174 0.59219 0.0
H365 H 0.791 0.85547 0.56924 0.0
H366 H 0.8239 0.86723 0.5307 0.0
H367 H 0.66021 0.825 0.51337 0.0
H368 H 0.71111 0.89083 0.49282 0.0
H369 H 0.82713 0.74879 0.53496 0.0
H370 H 0.81822 0.74536 0.45997 0.0
C371 C 0.48559 0.81675 0.88584 0.0
C372 C 0.46084 0.82475 0.89374 0.0
C373 C 0.4437 0.80738 0.88625 0.0
C374 C 0.45872 0.78987 0.87403 0.0
N375 N 0.48448 0.7947 0.87384 0.0
Co376 Co 0.51306 0.77559 0.85615 0.0
N377 N 0.48818 0.75747 0.83725 0.0
C378 C 0.46205 0.75972 0.83935 0.0
C379 C 0.45 0.74565 0.82358 0.0
C380 C 0.46967 0.73383 0.81051 0.0
C381 C 0.49266 0.74128 0.81921 0.0
N382 N 0.54171 0.75586 0.83932 0.0
C383 C 0.54113 0.73875 0.82196 0.0
C384 C 0.56545 0.72836 0.81633 0.0
C385 C 0.58187 0.73916 0.83073 0.0
C386 C 0.56674 0.75546 0.84432 0.0
N387 N 0.53793 0.79547 0.87365 0.0
C388 C 0.56381 0.79196 0.87326 0.0
C389 C 0.5763 0.81042 0.88472 0.0
C390 C 0.55735 0.82723 0.89216 0.0
C391 C 0.53433 0.81801 0.88479 0.0
N392 N 0.50956 0.74639 0.88147 0.0
C393 C 0.51206 0.69619 0.90445 0.0
C394 C 0.53127 0.71519 0.90626 0.0
C395 C 0.52953 0.73999 0.89496 0.0
C396 C 0.49006 0.70413 0.89354 0.0
C397 C 0.48895 0.72919 0.88293 0.0
N398 N 0.51672 0.8035 0.83073 0.0
C399 C 0.54328 0.82747 0.79915 0.0
C400 C 0.52117 0.83859 0.79071 0.0
C401 C 0.497 0.83297 0.8034 0.0
C402 C 0.4952 0.81541 0.82321 0.0
C403 C 0.54065 0.81025 0.81931 0.0
H404 H 0.47614 0.81103 0.83176 0.0
H405 H 0.55807 0.802 0.82507 0.0
H406 H 0.54496 0.75329 0.89693 0.0
H407 H 0.47147 0.73359 0.8752 0.0
C408 C 0.4495 0.77394 0.85735 0.0
C409 C 0.50958 0.83156 0.88827 0.0
C410 C 0.5181 0.73163 0.81048 0.0
C411 C 0.57592 0.77263 0.85999 0.0
H412 H 0.45543 0.84209 0.9027 0.0
H413 H 0.42274 0.80891 0.88752 0.0
H414 H 0.42936 0.74387 0.82201 0.0
H415 H 0.46735 0.72084 0.79645 0.0
H416 H 0.57078 0.71448 0.80311 0.0
H417 H 0.60252 0.73596 0.83087 0.0
H418 H 0.59691 0.81215 0.88644 0.0
H419 H 0.56022 0.84469 0.90138 0.0
H420 H 0.54799 0.7109 0.91586 0.0
H421 H 0.47407 0.69086 0.89199 0.0
H422 H 0.56241 0.83162 0.78997 0.0
H423 H 0.47936 0.84105 0.79738 0.0
C424 C 0.53884 0.28702 0.65018 0.0
C425 C 0.56351 0.29217 0.63872 0.0
C426 C 0.57803 0.27048 0.64288 0.0
C427 C 0.56166 0.25332 0.6568 0.0
N428 N 0.53776 0.26292 0.66139 0.0
Co429 Co 0.50916 0.2463 0.68319 0.0
N430 N 0.53328 0.22424 0.70038 0.0
C431 C 0.55768 0.21872 0.69178 0.0
C432 C 0.5697 0.20222 0.70707 0.0
C433 C 0.5516 0.19683 0.7263 0.0
C434 C 0.52942 0.21043 0.72175 0.0
N435 N 0.48022 0.22991 0.70479 0.0
C436 C 0.48053 0.2156 0.72578 0.0
C437 C 0.45544 0.20796 0.73472 0.0
C438 C 0.43916 0.21721 0.71845 0.0
C439 C 0.45502 0.23017 0.70056 0.0
N440 N 0.48547 0.2688 0.66611 0.0
C441 C 0.45982 0.26482 0.66566 0.0
C442 C 0.44838 0.28502 0.6538 0.0
C443 C 0.46811 0.30276 0.64665 0.0
C444 C 0.49054 0.29244 0.65464 0.0
N445 N 0.50572 0.21886 0.66086 0.0
C446 C 0.50378 0.17848 0.62968 0.0
C447 C 0.50499 0.2045 0.62087 0.0
C448 C 0.50617 0.22442 0.63677 0.0
C449 C 0.50283 0.17326 0.65437 0.0
C450 C 0.50357 0.19355 0.66954 0.0
N451 N 0.51269 0.27331 0.7052 0.0
C452 C 0.49384 0.3086 0.72626 0.0
C453 C 0.51869 0.31862 0.72871 0.0
C454 C 0.5404 0.30454 0.72036 0.0
C455 C 0.53694 0.2817 0.70913 0.0
C456 C 0.49127 0.28595 0.71438 0.0
H457 H 0.55399 0.27158 0.70245 0.0
H458 H 0.472 0.27927 0.71176 0.0
H459 H 0.5078 0.2443 0.6296 0.0
H460 H 0.50273 0.18856 0.6884 0.0
C461 C 0.56958 0.23218 0.67106 0.0
C462 C 0.51657 0.30486 0.65042 0.0
C463 C 0.50426 0.20724 0.73659 0.0
C464 C 0.44676 0.24603 0.68166 0.0
H465 H 0.57072 0.30988 0.62908 0.0
H466 H 0.59866 0.26846 0.63803 0.0
H467 H 0.58943 0.19533 0.70478 0.0
H468 H 0.55421 0.18388 0.74164 0.0
H469 H 0.44945 0.19669 0.75115 0.0
H470 H 0.41818 0.2154 0.71992 0.0
H471 H 0.42787 0.28751 0.65208 0.0
H472 H 0.46618 0.32133 0.63711 0.0
H473 H 0.5057 0.20937 0.60187 0.0
H474 H 0.50143 0.15348 0.66199 0.0
H475 H 0.47647 0.31829 0.73315 0.0
H476 H 0.56002 0.31142 0.72171 0.0
C477 C 0.86264 0.48969 0.76592 0.0
C478 C 0.87107 0.46558 0.77394 0.0
C479 C 0.86016 0.44762 0.76096 0.0
C480 C 0.84545 0.4616 0.74603 0.0
N481 N 0.84679 0.4875 0.7482 0.0
Co482 Co 0.82491 0.51437 0.73284 0.0
N483 N 0.80504 0.48751 0.71737 0.0
C484 C 0.81001 0.46187 0.71742 0.0
C485 C 0.79376 0.44818 0.70477 0.0
C486 C 0.77758 0.46619 0.69587 0.0
C487 C 0.78498 0.48999 0.70355 0.0
N488 N 0.8021 0.54125 0.71885 0.0
C489 C 0.78168 0.53869 0.70568 0.0
C490 C 0.7713 0.56263 0.69974 0.0
C491 C 0.78549 0.58086 0.70963 0.0
C492 C 0.80369 0.56716 0.72098 0.0
N493 N 0.84549 0.54125 0.74746 0.0
C494 C 0.84411 0.56723 0.74365 0.0
C495 C 0.86061 0.5808 0.75619 0.0
C496 C 0.87285 0.56236 0.76916 0.0
C497 C 0.86288 0.53854 0.76393 0.0
N498 N 0.84986 0.51743 0.70314 0.0
C499 C 0.87753 0.51945 0.65699 0.0
C500 C 0.86572 0.54144 0.66616 0.0
C501 C 0.85246 0.54012 0.68909 0.0
C502 C 0.87683 0.49691 0.67202 0.0
C503 C 0.8631 0.49634 0.6948 0.0
N504 N 0.79994 0.51119 0.76202 0.0
C505 C 0.77512 0.53039 0.79506 0.0
C506 C 0.76371 0.50635 0.80298 0.0
C507 C 0.77122 0.48475 0.7903 0.0
C508 C 0.78928 0.48754 0.77016 0.0
C509 C 0.79293 0.53241 0.77457 0.0
H510 H 0.79427 0.4703 0.76133 0.0
H511 H 0.80065 0.55135 0.76902 0.0
H512 H 0.84401 0.55768 0.69473 0.0
H513 H 0.863 0.47835 0.705 0.0
C514 C 0.82859 0.45094 0.73117 0.0
C515 C 0.86906 0.51406 0.77632 0.0
C516 C 0.77215 0.51428 0.69749 0.0
C517 C 0.82394 0.57815 0.73192 0.0
H518 H 0.88311 0.46113 0.7882 0.0
H519 H 0.86177 0.42675 0.76298 0.0
H520 H 0.79337 0.42749 0.70268 0.0
H521 H 0.76196 0.46216 0.68511 0.0
H522 H 0.75549 0.56663 0.68891 0.0
H523 H 0.78325 0.60169 0.70817 0.0
H524 H 0.86231 0.60163 0.75701 0.0
H525 H 0.88668 0.56605 0.78184 0.0
H526 H 0.86644 0.55966 0.65556 0.0
H527 H 0.88593 0.47938 0.66592 0.0
H528 H 0.76974 0.54772 0.80418 0.0
H529 H 0.76314 0.46567 0.79589 0.0
C530 C 0.17572 0.03073 0.77095 0.0
C531 C 0.16846 0.05528 0.7775 0.0
C532 C 0.17965 0.07241 0.76001 0.0
C533 C 0.19302 0.05737 0.74386 0.0
N534 N 0.19034 0.03162 0.74955 0.0
Co535 Co 0.20901 1.00291 0.73287 0.0
N536 N 0.23024 0.02817 0.7102 0.0
C537 C 0.22806 0.05429 0.70887 0.0
C538 C 0.24474 0.06658 0.69127 0.0
C539 C 0.25829 0.04719 0.68056 0.0
C540 C 0.24902 0.02404 0.69223 0.0
N541 N 0.22829 0.97417 0.71674 0.0
C542 C 0.24765 0.97508 0.69853 0.0
C543 C 0.25535 0.95036 0.69278 0.0
C544 C 0.24046 0.93328 0.70787 0.0
C545 C 0.22451 0.94841 0.72194 0.0
N546 N 0.18747 0.97777 0.7554 0.0
C547 C 0.18726 0.95161 0.75508 0.0
C548 C 0.17226 0.93954 0.77403 0.0
C549 C 0.16294 0.95909 0.78761 0.0
C550 C 0.17277 0.98209 0.77609 0.0
N551 N 0.18244 1.00196 0.70971 0.0
C552 C 0.1504 1.00043 0.67238 0.0
C553 C 0.15865 0.97761 0.68344 0.0
C554 C 0.17427 0.97881 0.70207 0.0
C555 C 0.15677 0.02399 0.6813 0.0
C556 C 0.17272 0.0243 0.69989 0.0
N557 N 0.23498 1.00384 0.75605 0.0
C558 C 0.25037 0.98324 0.79127 0.0
C559 C 0.25648 0.00743 0.79921 0.0
C560 C 0.25495 0.02937 0.78371 0.0
C561 C 0.24443 0.02709 0.76214 0.0
C562 C 0.24013 0.98187 0.76942 0.0
H563 H 0.24263 0.04454 0.75136 0.0
H564 H 0.23492 0.96305 0.76446 0.0
H565 H 0.17997 0.96071 0.70948 0.0
H566 H 0.17741 0.0429 0.70544 0.0
C567 C 0.21073 0.06679 0.72489 0.0
C568 C 0.1699 0.00733 0.78643 0.0
C569 C 0.25881 0.9987 0.68565 0.0
C570 C 0.20513 0.93904 0.73957 0.0
H571 H 0.15719 0.06027 0.79375 0.0
H572 H 0.17934 0.09337 0.75982 0.0
H573 H 0.2469 0.08722 0.68685 0.0
H574 H 0.27333 0.04982 0.66583 0.0
H575 H 0.26999 0.94518 0.67887 0.0
H576 H 0.24096 0.91232 0.70831 0.0
H577 H 0.17 0.91891 0.77844 0.0
H578 H 0.15141 0.95657 0.80468 0.0
H579 H 0.1536 0.95888 0.6773 0.0
H580 H 0.15056 0.04213 0.67324 0.0
H581 H 0.25206 0.9656 0.80233 0.0
H582 H 0.26093 0.04836 0.78857 0.0
C583 C 0.77675 0.18514 0.96049 0.0
C584 C 0.77802 0.17365 0.9388 0.0
C585 C 0.79981 0.18386 0.92545 0.0
C586 C 0.81054 0.20088 0.93976 0.0
N587 N 0.79687 0.2019 0.96122 0.0
Co588 Co 0.80452 0.22423 0.98715 0.0
N589 N 0.82697 0.24786 0.96467 0.0
C590 C 0.83708 0.24239 0.94259 0.0
C591 C 0.85269 0.26199 0.93141 0.0
C592 C 0.8528 0.28077 0.94758 0.0
C593 C 0.8372 0.27153 0.96785 0.0
N594 N 0.81205 0.24636 0.01336 0.0
C595 C 0.82319 0.27029 0.0124 0.0
C596 C 0.82485 0.27862 0.03522 0.0
C597 C 0.81513 0.25887 0.05093 0.0
C598 C 0.80793 0.23972 0.03693 0.0
N599 N 0.78218 0.20038 0.00944 0.0
C600 C 0.78192 0.19813 0.03334 0.0
C601 C 0.76361 0.18048 0.04385 0.0
C602 C 0.7516 0.17112 0.02538 0.0
C603 C 0.76344 0.18357 0.00459 0.0
N604 N 0.83519 0.20318 0.99306 0.0
C605 C 0.87954 0.17407 1.00208 0.0
C606 C 0.85611 0.16177 0.99797 0.0
C607 C 0.8342 0.17663 0.99358 0.0
C608 C 0.88018 0.20124 1.00112 0.0
C609 C 0.85805 0.21527 0.99666 0.0
N610 N 0.77404 0.24547 0.98117 0.0
C611 C 0.73565 0.26826 0.99581 0.0
C612 C 0.73097 0.27682 0.9725 0.0
C613 C 0.7484 0.26894 0.95367 0.0
C614 C 0.76966 0.25343 0.95835 0.0
C615 C 0.7571 0.25266 0.99973 0.0
H616 H 0.78261 0.24791 0.9434 0.0
H617 H 0.76005 0.24657 0.01786 0.0
H618 H 0.81641 0.16664 0.99075 0.0
H619 H 0.85961 0.23603 0.99622 0.0
C620 C 0.82952 0.21988 0.93217 0.0
C621 C 0.75701 0.17903 0.98046 0.0
C622 C 0.83587 0.28395 0.99071 0.0
C623 C 0.79473 0.21667 0.04522 0.0
H624 H 0.76453 0.15959 0.93323 0.0
H625 H 0.8062 0.18034 0.90708 0.0
H626 H 0.8627 0.26263 0.91359 0.0
H627 H 0.86387 0.2988 0.94505 0.0
H628 H 0.83305 0.29674 0.04001 0.0
H629 H 0.81329 0.25865 0.07023 0.0
H630 H 0.75845 0.17612 0.06275 0.0
H631 H 0.73571 0.15713 0.02715 0.0
H632 H 0.8545 0.14081 0.99865 0.0
H633 H 0.89781 0.21181 0.00366 0.0
H634 H 0.72316 0.27393 0.01111 0.0
H635 H 0.74561 0.27449 0.93529 0.0
C636 C 0.13345 0.04401 0.08171 0.0
N637 N 0.10854 0.04446 0.01062 0.0
C638 C 0.13348 0.04921 1.00101 0.0
C639 C 0.1413 0.04355 0.97737 0.0
C640 C 0.12334 0.0329 0.96324 0.0
C641 C 0.0979 0.02761 0.97388 0.0
C642 C 0.09091 0.03355 0.99759 0.0
Zn643 Zn 0.09646 0.05676 0.04441 0.0
C644 C 0.06514 0.01473 0.07502 0.0
N645 N 0.07075 0.084 0.11369 0.0
C646 C 0.08939 0.09597 0.12482 0.0
C647 C 0.04536 0.08399 0.12286 0.0
C648 C 0.03787 0.09713 0.14348 0.0
C649 C 0.05667 0.11047 0.15479 0.0
C650 C 0.0828 0.10917 0.14542 0.0
Zn651 Zn 0.08221 0.0697 0.08074 0.0
O652 O 0.13208 0.04222 0.05931 0.0
C653 C 0.11573 0.11035 0.04998 0.0
O654 O 0.11504 0.05453 0.09396 0.0
H655 H 0.03075 0.07456 0.11373 0.0
H656 H 0.14725 0.05795 0.01154 0.0
H657 H 0.10945 0.09603 0.11729 0.0
O658 O 0.11539 0.09314 0.0348 0.0
O659 O 0.10337 0.10595 0.07054 0.0
H660 H 0.07114 0.03004 0.00539 0.0
O661 O 0.04869 0.08479 0.06728 0.0
O662 O 0.06034 0.07203 0.03144 0.0
O663 O 0.06265 0.03237 0.09006 0.0
O664 O 0.07773 0.02011 0.05469 0.0
C665 C 0.04385 0.08307 0.04578 0.0
H666 H 0.16123 0.04762 0.97024 0.0
H667 H 0.08321 0.01972 0.96378 0.0
H668 H 0.01746 0.09768 0.14991 0.0
H669 H 0.0981 0.11864 0.1537 0.0
C670 C 0.92756 0.48313 0.0556 0.0
N671 N 0.96016 0.49798 0.9832 0.0
C672 C 0.93628 0.48907 0.97887 0.0
C673 C 0.92691 0.49389 0.9567 0.0
C674 C 0.94186 0.50853 0.93837 0.0
C675 C 0.96629 0.51813 0.94344 0.0
C676 C 0.97515 0.5125 0.96601 0.0
Zn677 Zn 0.97201 0.48406 0.01589 0.0
C678 C 0.99274 0.52286 0.0458 0.0
N679 N 0.99133 0.44894 0.0824 0.0
C680 C 0.97483 0.43051 0.09382 0.0
C681 C 0.01351 0.45602 0.09173 0.0
C682 C 0.01992 0.44411 0.11327 0.0
C683 C 1.0035 0.42456 0.12498 0.0
C684 C 0.98063 0.41795 0.11511 0.0
Zn685 Zn 0.98185 0.46503 0.0505 0.0
O686 O 0.93276 0.49101 0.03374 0.0
C687 C 0.95968 0.42679 0.02098 0.0
O688 O 0.94503 0.47173 0.06625 0.0
H689 H 0.02635 0.47072 0.08236 0.0
H690 H 0.92463 0.4772 0.9924 0.0
H691 H 0.95714 0.42537 0.08632 0.0
O692 O 0.95964 0.44715 0.00735 0.0
O693 O 0.96889 0.42795 0.04097 0.0
H694 H 0.99419 0.51925 0.96957 0.0
O695 O 0.01901 0.45845 0.03525 0.0
O696 O 0.012 0.47604 1.00005 0.0
O697 O 0.99386 0.50234 0.05933 0.0
O698 O 0.98438 0.52137 0.02536 0.0
C699 C 0.02738 0.46495 0.01383 0.0
H700 H 0.90836 0.48531 0.95384 0.0
H701 H 0.97856 0.52972 0.93011 0.0
H702 H 0.03775 0.44967 0.1204 0.0
H703 H 0.96728 0.40326 0.12385 0.0
C704 C 0.02595 0.98248 0.42159 0.0
N705 N 0.03342 0.91745 0.38032 0.0
C706 C 0.00983 0.92345 0.37294 0.0
C707 C 1.00351 0.91638 0.35074 0.0
C708 C 0.0217 0.90307 0.33611 0.0
C709 C 0.04608 0.89757 0.34401 0.0
C710 C 0.05157 0.90499 0.36632 0.0
Zn711 Zn 0.04186 0.92781 0.41256 0.0
C712 C 0.09384 0.95257 0.40841 0.0
N713 N 0.05899 0.95014 0.48003 0.0
C714 C 0.04129 0.96314 0.49412 0.0
C715 C 0.08344 0.94599 0.48616 0.0
C716 C 0.09115 0.95561 0.50693 0.0
C717 C 0.07357 0.96973 0.5215 0.0
C718 C 0.04821 0.97313 0.51515 0.0
Zn719 Zn 0.05039 0.93866 0.44801 0.0
O720 O 0.02505 0.96587 0.40583 0.0
C721 C 0.99665 0.91359 0.4493 0.0
O722 O 0.035 0.97563 0.44104 0.0
H723 H 0.09715 0.93557 0.47469 0.0
H724 H 0.9958 0.93353 0.38439 0.0
H725 H 0.022 0.96628 0.48876 0.0
O726 O 0.00532 0.91255 0.42754 0.0
O727 O 0.01132 0.92357 0.46348 0.0
H728 H 0.07022 0.90054 0.37258 0.0
O729 O 0.06683 0.90227 0.45543 0.0
O730 O 0.06123 0.89039 0.41963 0.0
O731 O 0.08913 0.95339 0.43104 0.0
O732 O 0.07679 0.94281 0.39689 0.0
C733 C 0.07029 0.88571 0.43972 0.0
H734 H 0.98454 0.92101 0.34518 0.0
H735 H 0.06046 0.88688 0.33344 0.0
H736 H 0.11072 0.95207 0.5115 0.0
H737 H 0.03414 0.98393 0.52595 0.0
C738 C 0.93966 0.59628 0.44989 0.0
N739 N 0.0169 0.56806 0.44687 0.0
C740 C 0.02476 0.59252 0.43882 0.0
C741 C 0.04903 0.60224 0.44327 0.0
C742 C 0.06563 0.58673 0.45615 0.0
C743 C 0.057 0.56152 0.46431 0.0
C744 C 0.03248 0.55254 0.45943 0.0
Zn745 Zn 0.98055 0.55569 0.43953 0.0
C746 C 0.94907 0.5306 0.4826 0.0
N747 N 0.90546 0.53231 0.42351 0.0
C748 C 0.89156 0.54942 0.41087 0.0
C749 C 0.89687 0.5075 0.42904 0.0
C750 C 0.8741 0.49862 0.42055 0.0
C751 C 0.86013 0.51553 0.40634 0.0
C752 C 0.86872 0.54142 0.40212 0.0
Zn753 Zn 0.94117 0.54372 0.43133 0.0
O754 O 0.96411 0.59303 0.44976 0.0
C755 C 0.97129 0.57113 0.38847 0.0
O756 O 0.9258 0.57852 0.44269 0.0
H757 H 0.90823 0.49428 0.43921 0.0
H758 H 0.0121 0.60465 0.42897 0.0
H759 H 0.89881 0.56902 0.40661 0.0
O760 O 0.98878 0.57108 0.40291 0.0
O761 O 0.94929 0.56071 0.39563 0.0
H762 H 0.0259 0.53315 0.46567 0.0
O763 O 0.95626 0.50821 0.42028 0.0
O764 O 0.99539 0.51723 0.42953 0.0
O765 O 0.9331 0.52796 0.46707 0.0
O766 O 0.97128 0.54106 0.47604 0.0
C767 C 0.97956 0.50132 0.42169 0.0
H768 H 0.05454 0.62192 0.43696 0.0
H769 H 0.06917 0.54874 0.47411 0.0
H770 H 0.868 0.47855 0.42433 0.0
H771 H 0.85881 0.55501 0.39093 0.0
C772 C 0.4127 0.9745 0.56304 0.0
N773 N 0.44277 0.98622 0.48886 0.0
C774 C 0.41788 0.98004 0.48508 0.0
C775 C 0.40917 0.98399 0.46244 0.0
C776 C 0.42615 0.99433 0.44313 0.0
C777 C 0.45147 1.00158 0.4477 0.0
C778 C 0.45944 0.99725 0.47075 0.0
Zn779 Zn 0.45495 0.97293 0.52164 0.0
C780 C 0.47922 0.01169 0.54891 0.0
N781 N 0.47728 0.93882 0.58722 0.0
C782 C 0.46159 0.92131 0.60092 0.0
C783 C 0.50028 0.94693 0.59434 0.0
C784 C 0.50823 0.93751 0.61611 0.0
C785 C 0.49251 0.9193 0.63047 0.0
C786 C 0.46896 0.91113 0.62266 0.0
Zn787 Zn 0.46614 0.95352 0.55556 0.0
O788 O 0.41693 0.98251 0.54107 0.0
C789 C 0.43965 0.91575 0.5291 0.0
O790 O 0.4304 0.96232 0.57273 0.0
H791 H 0.51253 0.96074 0.58311 0.0
H792 H 0.4049 0.97094 0.49944 0.0
H793 H 0.44329 0.9153 0.59503 0.0
O794 O 0.43961 0.93598 0.51519 0.0
O795 O 0.4506 0.91673 0.54826 0.0
H796 H 0.47926 1.00174 0.47388 0.0
O797 O 0.50214 0.94373 0.53886 0.0
O798 O 0.49382 0.96208 0.50438 0.0
O799 O 0.48045 0.99117 0.56242 0.0
O800 O 0.46978 0.0102 0.52896 0.0
C801 C 0.50924 0.94941 0.51704 0.0
H802 H 0.38936 0.9785 0.46005 0.0
H803 H 0.46536 0.00948 0.43342 0.0
H804 H 0.52662 0.94409 0.6215 0.0
H805 H 0.45621 0.8973 0.63342 0.0
C806 C 0.61348 0.53183 0.60703 0.0
N807 N 0.58427 0.52921 0.53871 0.0
C808 C 0.60894 0.53465 0.52876 0.0
C809 C 0.61658 0.52901 0.50517 0.0
C810 C 0.59872 0.51763 0.49146 0.0
C811 C 0.57355 0.51159 0.50239 0.0
C812 C 0.56671 0.51756 0.52611 0.0
Zn813 Zn 0.57335 0.54228 0.57215 0.0
C814 C 0.54521 0.49981 0.60562 0.0
N815 N 0.55223 0.57229 0.64135 0.0
C816 C 0.57232 0.58416 0.65062 0.0
C817 C 0.52737 0.57459 0.65147 0.0
C818 C 0.522 0.59007 0.67104 0.0
C819 C 0.54238 0.60342 0.68022 0.0
C820 C 0.56785 0.5996 0.67008 0.0
Zn821 Zn 0.56145 0.55602 0.60864 0.0
O822 O 0.61029 0.52985 0.58503 0.0
C823 C 0.59263 0.59646 0.57476 0.0
O824 O 0.59568 0.5416 0.62061 0.0
H825 H 0.51154 0.56539 0.64375 0.0
H826 H 0.62257 0.54417 0.5389 0.0
H827 H 0.59193 0.58269 0.64227 0.0
O828 O 0.59082 0.5788 0.56026 0.0
O829 O 0.58206 0.59252 0.5961 0.0
H830 H 0.54717 0.51344 0.53427 0.0
O831 O 0.52619 0.57038 0.59601 0.0
O832 O 0.53628 0.55581 0.56058 0.0
O833 O 0.54303 0.51798 0.62024 0.0
O834 O 0.55617 0.50508 0.58458 0.0
C835 C 0.52036 0.56757 0.57486 0.0
H836 H 0.63605 0.53443 0.49753 0.0
H837 H 0.55919 0.50251 0.49268 0.0
H838 H 0.502 0.59248 0.67815 0.0
H839 H 0.58429 0.60899 0.67673 0.0
C840 C 0.54227 0.50505 0.94121 0.0
N841 N 0.55076 0.44608 0.89374 0.0
C842 C 0.52724 0.45325 0.88687 0.0
C843 C 0.52165 0.45066 0.86345 0.0
C844 C 0.54038 0.44037 0.84704 0.0
C845 C 0.56453 0.4332 0.85468 0.0
C846 C 0.56936 0.43634 0.87818 0.0
Zn847 Zn 0.55908 0.45217 0.92719 0.0
C848 C 0.61062 0.47802 0.92512 0.0
N849 N 0.57701 0.46725 0.99662 0.0
C850 C 0.55895 0.47806 0.01207 0.0
C851 C 0.60147 0.46252 1.0025 0.0
C852 C 0.60879 0.46927 0.02448 0.0
C853 C 0.59073 0.48091 0.04062 0.0
C854 C 0.56541 0.48499 0.03436 0.0
Zn855 Zn 0.5684 0.45967 0.96328 0.0
O856 O 0.53998 0.48929 0.92498 0.0
C857 C 0.51536 0.43334 0.96261 0.0
O858 O 0.55337 0.49747 0.9594 0.0
H859 H 0.61548 0.45381 0.98997 0.0
H860 H 0.51279 0.46108 0.89958 0.0
H861 H 0.53966 0.48177 0.00692 0.0
O862 O 0.52415 0.43345 0.94081 0.0
O863 O 0.52922 0.44378 0.97719 0.0
H864 H 0.58798 0.43097 0.88402 0.0
O865 O 0.58465 0.4224 0.96722 0.0
O866 O 0.58012 0.41549 0.92988 0.0
O867 O 0.60691 0.47513 0.94784 0.0
O868 O 0.59304 0.47062 0.91287 0.0
C869 C 0.5888 0.40824 0.94962 0.0
H870 H 0.50283 0.45648 0.85829 0.0
H871 H 0.57932 0.42454 0.84285 0.0
H872 H 0.62838 0.46539 0.02882 0.0
H873 H 0.55098 0.49403 0.0463 0.0
C874 C 0.45897 0.11983 0.95371 0.0
N875 N 0.53192 0.08496 0.94974 0.0
C876 C 0.54026 0.10932 0.94185 0.0
C877 C 0.56494 0.11815 0.94568 0.0
C878 C 0.58148 0.10183 0.95773 0.0
C879 C 0.5727 0.07654 0.9653 0.0
C880 C 0.54761 0.06848 0.96119 0.0
Zn881 Zn 0.49455 0.07553 0.94379 0.0
C882 C 0.46217 0.05229 0.98668 0.0
N883 N 0.41711 0.05974 0.92914 0.0
C884 C 0.40229 0.07975 0.92199 0.0
C885 C 0.40718 0.03516 0.93256 0.0
C886 C 0.38201 0.02973 0.92718 0.0
C887 C 0.36648 0.04998 0.91911 0.0
C888 C 0.37666 0.07543 0.91771 0.0
Zn889 Zn 0.45454 0.06729 0.93503 0.0
O890 O 0.48223 0.11313 0.95589 0.0
C891 C 0.48472 0.09332 0.89232 0.0
O892 O 0.44377 0.10431 0.94517 0.0
H893 H 0.41899 0.01955 0.93882 0.0
H894 H 0.52763 0.12212 0.93266 0.0
H895 H 0.41033 0.09919 0.91913 0.0
O896 O 0.502 0.09257 0.90703 0.0
O897 O 0.46266 0.08273 0.89896 0.0
H898 H 0.54059 0.0492 0.96733 0.0
O899 O 0.46571 0.02972 0.92514 0.0
O900 O 0.50607 0.03673 0.93216 0.0
O901 O 0.446 0.05301 0.97106 0.0
O902 O 0.48561 0.0597 0.98038 0.0
C903 C 0.4887 0.02147 0.92579 0.0
H904 H 0.57107 0.13762 0.93915 0.0
H905 H 0.58486 0.06338 0.97473 0.0
H906 H 0.37542 0.00971 0.9284 0.0
H907 H 0.36536 0.09195 0.91251 0.0
H908 H 0.98286 0.13952 0.37056 0.0
H909 H 0.04367 0.14914 0.4168 0.0
H910 H 0.98328 0.09263 0.37899 0.0
H911 H 0.04456 0.10224 0.42471 0.0
H912 H 0.0232 0.02053 0.45327 0.0
H913 H 0.01862 0.0669 0.44532 0.0
H914 H 0.01038 0.05463 0.37132 0.0
H915 H 0.01474 0.00781 0.37936 0.0
C916 C 0.99621 0.13169 0.38268 0.0
C917 C 0.01313 0.14828 0.3931 0.0
C918 C 0.99665 0.10471 0.38728 0.0
C919 C 0.0139 0.09351 0.40258 0.0
C920 C 0.03076 0.11011 0.41307 0.0
C921 C 0.03043 0.13707 0.40835 0.0
C922 C 0.02012 0.02757 0.4353 0.0
C923 C 0.01945 0.01029 0.41693 0.0
C924 C 0.01771 0.05431 0.43071 0.0
C925 C 0.01452 0.0647 0.4076 0.0
C926 C 0.01272 0.04736 0.38937 0.0
C927 C 0.0152 0.02048 0.39397 0.0
H928 H 0.02217 0.33698 0.4213 0.0
H929 H 0.99375 0.35343 0.35282 0.0
H930 H 0.01741 0.38277 0.43025 0.0
H931 H 0.98899 0.39908 0.36152 0.0
H932 H 0.95193 0.4687 0.39715 0.0
H933 H 0.9611 0.42452 0.38726 0.0
H934 H 0.03305 0.42818 0.41993 0.0
H935 H 0.02362 0.47302 0.4302 0.0
C936 C 0.01527 0.35051 0.40803 0.0
C937 C 0.00857 0.34168 0.38625 0.0
C938 C 0.01258 0.37678 0.41311 0.0
C939 C 1.00277 0.39485 0.39667 0.0
C940 C 0.9963 0.38585 0.3748 0.0
C941 C 0.99911 0.35968 0.36972 0.0
C942 C 0.96987 0.46032 0.40218 0.0
C943 C 0.98704 0.47469 0.41451 0.0
C944 C 0.97522 0.43484 0.39631 0.0
C945 C 0.99791 0.42255 0.40263 0.0
C946 C 0.01529 0.43687 0.41488 0.0
C947 C 0.01 0.46268 0.42062 0.0
H948 H 0.06005 0.84613 0.08746 0.0
H949 H 0.9949 0.86566 0.13671 0.0
H950 H 0.06862 0.89198 0.07693 0.0
H951 H 1.00286 0.91163 0.12544 0.0
H952 H 0.04372 0.993 0.11864 0.0
H953 H 0.03227 0.94739 0.12923 0.0
H954 H 0.05315 0.92906 0.05614 0.0
H955 H 0.06502 0.97427 0.04575 0.0
C956 C 0.04744 0.86015 0.09603 0.0
C957 C 0.02675 0.85189 0.11302 0.0
C958 C 0.05219 0.88661 0.08975 0.0
C959 C 0.03644 0.90583 0.10022 0.0
C960 C 0.01562 0.89759 0.11709 0.0
C961 C 0.01082 0.87107 0.12334 0.0
C962 C 0.04561 0.97928 0.10478 0.0
C963 C 0.05544 0.9875 0.08133 0.0
C964 C 0.03898 0.95303 0.11084 0.0
C965 C 0.04198 0.9342 0.09364 0.0
C966 C 0.05105 0.94268 0.07007 0.0
C967 C 0.05769 0.96881 0.06404 0.0
H968 H 0.02939 0.68465 0.07404 0.0
H969 H 0.99703 0.64689 0.14067 0.0
H970 H 0.02693 0.64348 0.05453 0.0
H971 H 0.99411 0.6059 0.12142 0.0
H972 H 0.01408 0.53151 0.08704 0.0
H973 H 0.02162 0.57279 0.10403 0.0
H974 H 0.99402 0.61325 0.04245 0.0
H975 H 0.98682 0.57174 0.02513 0.0
C976 C 0.02193 0.66741 0.08445 0.0
C977 C 0.01363 0.66864 0.10881 0.0
C978 C 0.02032 0.64395 0.07333 0.0
C979 C 0.01044 0.62134 0.08642 0.0
C980 C 1.00225 0.62278 0.11087 0.0
C981 C 1.00379 0.6462 0.12191 0.0
C982 C 0.0098 0.54918 0.07696 0.0
C983 C 0.99963 0.54826 0.05477 0.0
C984 C 0.014 0.57288 0.0868 0.0
C985 C 0.00812 0.59635 0.07477 0.0
C986 C 0.9989 0.59554 0.05214 0.0
C987 C 0.99469 0.57174 0.04224 0.0
H988 H 0.42814 1.00303 0.14002 0.0
H989 H 0.36728 0.05456 0.12107 0.0
H990 H 0.449 0.00841 0.09896 0.0
H991 H 0.38814 0.06006 0.0804 0.0
H992 H 0.48952 0.05003 0.02669 0.0
H993 H 0.47169 0.04271 0.06865 0.0
H994 H 0.39512 0.03184 0.04614 0.0
H995 H 0.41264 0.03889 0.00469 0.0
C996 C 0.41923 0.01555 0.12717 0.0
C997 C 0.39597 0.02837 0.13397 0.0
C998 C 0.43131 0.01877 0.10367 0.0
C999 C 0.4202 0.03454 0.08628 0.0
C1000 C 0.39713 0.04754 0.09321 0.0
C1001 C 0.38528 0.04459 0.11666 0.0
C1002 C 0.46895 0.04575 0.03071 0.0
C1003 C 0.45258 0.04519 0.01217 0.0
C1004 C 0.45872 0.04155 0.05477 0.0
C1005 C 0.43187 0.03704 0.06082 0.0
C1006 C 0.41578 0.03572 0.04222 0.0
C1007 C 0.42595 0.03962 0.01834 0.0
H1008 H 0.6804 0.49454 0.1591 0.0
H1009 H 0.60543 0.52013 0.18815 0.0
H1010 H 0.66426 0.49147 0.12009 0.0
H1011 H 0.58907 0.5177 0.14885 0.0
H1012 H 0.56387 0.4733 0.08478 0.0
H1013 H 0.57848 0.48335 0.12316 0.0
H1014 H 0.64959 0.51687 0.08682 0.0
H1015 H 0.63511 0.5065 0.04857 0.0
C1016 C 0.66055 0.49995 0.15685 0.0
C1017 C 0.64407 0.50767 0.17628 0.0
C1018 C 0.65131 0.49835 0.13458 0.0
C1019 C 0.62538 0.50441 0.13136 0.0
C1020 C 0.60906 0.5127 0.15084 0.0
C1021 C 0.61837 0.51429 0.17319 0.0
C1022 C 0.58245 0.48313 0.08503 0.0
C1023 C 0.59851 0.48882 0.06375 0.0
C1024 C 0.59079 0.48897 0.10698 0.0
C1025 C 0.61529 0.50072 0.10803 0.0
C1026 C 0.63084 0.50735 0.08663 0.0
C1027 C 0.62257 0.50141 0.06475 0.0
H1028 H 0.4102 0.02234 0.28945 0.0
H1029 H 0.33696 0.98816 0.31928 0.0
H1030 H 0.42628 0.01917 0.32901 0.0
H1031 H 0.35251 0.98539 0.35895 0.0
H1032 H 0.39634 0.95968 0.42211 0.0
H1033 H 0.3817 0.96278 0.38239 0.0
H1034 H 0.42199 0.03654 0.3678 0.0
H1035 H 0.43686 0.03329 0.4077 0.0
C1036 C 0.39754 0.01427 0.30458 0.0
C1037 C 0.37234 1.00559 0.30141 0.0
C1038 C 0.40664 0.01257 0.32729 0.0
C1039 C 0.39076 1.00204 0.34739 0.0
C1040 C 0.36552 0.99327 0.34399 0.0
C1041 C 0.35648 0.99496 0.32129 0.0
C1042 C 0.40191 0.97673 0.41058 0.0
C1043 C 0.41763 0.99636 0.41838 0.0
C1044 C 0.39347 0.97852 0.38768 0.0
C1045 C 0.4004 1.00002 0.37173 0.0
C1046 C 0.41643 0.01953 0.37938 0.0
C1047 C 0.42496 0.0177 0.40234 0.0
H1048 H 0.62382 0.5372 0.33643 0.0
H1049 H 0.6684 0.46946 0.35314 0.0
H1050 H 0.60916 0.53967 0.37865 0.0
H1051 H 0.65279 0.47122 0.39518 0.0
H1052 H 0.64536 0.50087 0.47065 0.0
H1053 H 0.65856 0.49668 0.42843 0.0
H1054 H 0.58191 0.51911 0.41156 0.0
H1055 H 0.56906 0.52444 0.45375 0.0
C1056 C 0.63042 0.52275 0.34907 0.0
C1057 C 0.64738 0.50316 0.34126 0.0
C1058 C 0.62174 0.52397 0.37331 0.0
C1059 C 0.62976 0.50565 0.39046 0.0
C1060 C 0.64642 0.48586 0.38259 0.0
C1061 C 0.65511 0.48464 0.35837 0.0
C1062 C 0.63132 0.50504 0.45796 0.0
C1063 C 0.60615 0.51313 0.46573 0.0
C1064 C 0.63882 0.50234 0.43369 0.0
C1065 C 0.62135 0.50758 0.41645 0.0
C1066 C 0.59602 0.51521 0.42424 0.0
C1067 C 0.58852 0.51793 0.44853 0.0
H1068 H 0.19258 0.43014 0.0144 0.0
H1069 H 0.15801 0.37008 0.97699 0.0
H1070 H 0.15303 0.45532 0.01304 0.0
H1071 H 0.11814 0.39467 0.97656 0.0
H1072 H 0.05019 0.44883 0.97059 0.0
H1073 H 0.09457 0.43232 0.96287 0.0
H1074 H 0.11065 0.45125 0.03367 0.0
H1075 H 0.06715 0.46778 0.041 0.0
C1076 C 0.17672 0.42239 0.00564 0.0
C1077 C 0.1785 0.39779 0.99619 0.0
C1078 C 0.15385 0.43676 0.00503 0.0
C1079 C 0.13207 0.42698 0.99495 0.0
C1080 C 0.1344 0.40301 0.98437 0.0
C1081 C 0.15724 0.38867 0.98496 0.0
C1082 C 0.06354 0.45006 0.98414 0.0
C1083 C 0.05513 0.45955 0.0064 0.0
C1084 C 0.08888 0.44035 0.97988 0.0
C1085 C 0.10634 0.44026 0.9977 0.0
C1086 C 0.09813 0.45119 0.01936 0.0
C1087 C 0.07299 0.46057 0.02364 0.0
H1088 H 0.21947 0.61527 0.50405 0.0
H1089 H 0.19999 0.68709 0.46778 0.0
H1090 H 0.17845 0.59561 0.49507 0.0
H1091 H 0.15882 0.66774 0.45887 0.0
H1092 H 0.10019 0.61717 0.42632 0.0
H1093 H 0.14169 0.63544 0.43481 0.0
H1094 H 0.1317 0.59789 0.50564 0.0
H1095 H 0.09006 0.57965 0.49719 0.0
C1096 C 0.20619 0.62686 0.49433 0.0
C1097 C 0.21253 0.65274 0.4869 0.0
C1098 C 0.18271 0.61567 0.48921 0.0
C1099 C 0.1652 0.63009 0.47632 0.0
C1100 C 0.17189 0.65596 0.46861 0.0
C1101 C 0.19535 0.66712 0.4738 0.0
C1102 C 0.1067 0.61293 0.44379 0.0
C1103 C 0.0916 0.597 0.4611 0.0
C1104 C 0.13056 0.62344 0.44866 0.0
C1105 C 0.14005 0.61829 0.47096 0.0
C1106 C 0.12517 0.60203 0.48816 0.0
C1107 C 0.10126 0.59154 0.4833 0.0
H1108 H 0.85553 0.82326 0.50501 0.0
H1109 H 0.82771 0.88683 0.46214 0.0
H1110 H 0.90002 0.84125 0.49754 0.0
H1111 H 0.8721 0.90428 0.45391 0.0
H1112 H 0.95781 0.90736 0.42081 0.0
H1113 H 0.91367 0.89096 0.43124 0.0
H1114 H 0.92848 0.88091 0.50514 0.0
H1115 H 0.97317 0.89794 0.49465 0.0
C1116 C 0.85897 0.84093 0.49376 0.0
C1117 C 0.83812 0.85302 0.48343 0.0
C1118 C 0.88445 0.85136 0.48962 0.0
C1119 C 0.88987 0.87414 0.47489 0.0
C1120 C 0.86887 0.88647 0.46497 0.0
C1121 C 0.84338 0.87628 0.46944 0.0
C1122 C 0.95181 0.90178 0.43937 0.0
C1123 C 0.96932 0.90404 0.45686 0.0
C1124 C 0.92628 0.89245 0.44537 0.0
C1125 C 0.91728 0.88457 0.46905 0.0
C1126 C 0.93472 0.88667 0.48667 0.0
C1127 C 0.96033 0.89657 0.4807 0.0
H1128 H 0.37751 0.61127 0.50771 0.0
H1129 H 0.3907 0.67065 0.55616 0.0
H1130 H 0.41551 0.5881 0.52013 0.0
H1131 H 0.42891 0.64825 0.56779 0.0
H1132 H 0.4821 0.59178 0.602 0.0
H1133 H 0.44267 0.61153 0.58982 0.0
H1134 H 0.46266 0.58922 0.51777 0.0
H1135 H 0.50214 0.56882 0.53021 0.0
C1136 C 0.38837 0.61939 0.52106 0.0
C1137 C 0.38085 0.64304 0.53077 0.0
C1138 C 0.41044 0.60622 0.528 0.0
C1139 C 0.42557 0.61614 0.54505 0.0
C1140 C 0.41779 0.63963 0.55488 0.0
C1141 C 0.39588 0.65276 0.54792 0.0
C1142 C 0.47815 0.59093 0.58354 0.0
C1143 C 0.49558 0.5787 0.56712 0.0
C1144 C 0.45547 0.6025 0.57646 0.0
C1145 C 0.44931 0.60238 0.55266 0.0
C1146 C 0.46646 0.58964 0.53629 0.0
C1147 C 0.48926 0.578 0.54341 0.0
H1148 H 0.55759 0.6691 0.90643 0.0
H1149 H 0.47416 0.65904 0.92085 0.0
H1150 H 0.56293 0.62327 0.91711 0.0
H1151 H 0.47984 0.61283 0.92984 0.0
H1152 H 0.50964 0.52716 0.91017 0.0
H1153 H 0.50096 0.57354 0.90313 0.0
H1154 H 0.55081 0.59186 0.95705 0.0
H1155 H 0.55891 0.5458 0.96463 0.0
C1156 C 0.54034 0.65742 0.9121 0.0
C1157 C 0.51538 0.66827 0.91264 0.0
C1158 C 0.54348 0.63099 0.91799 0.0
C1159 C 0.52179 0.61447 0.92408 0.0
C1160 C 0.49688 0.62508 0.92487 0.0
C1161 C 0.49371 0.65166 0.91955 0.0
C1162 C 0.51843 0.54106 0.92075 0.0
C1163 C 0.5349 0.53271 0.93801 0.0
C1164 C 0.51344 0.56757 0.91674 0.0
C1165 C 0.52533 0.58626 0.92949 0.0
C1166 C 0.5415 0.57789 0.9469 0.0
C1167 C 0.54599 0.55146 0.9513 0.0
H1168 H 0.48776 0.85201 0.9295 0.0
H1169 H 0.53115 0.87414 0.86205 0.0
H1170 H 0.4844 0.89774 0.93864 0.0
H1171 H 0.52873 0.92001 0.87159 0.0
H1172 H 0.53571 0.99824 0.91218 0.0
H1173 H 0.54282 0.95249 0.90339 0.0
H1174 H 0.46074 0.9364 0.91939 0.0
H1175 H 0.45355 0.98166 0.92751 0.0
C1176 C 0.49651 0.86668 0.91658 0.0
C1177 C 0.509 0.85948 0.89471 0.0
C1178 C 0.49474 0.89289 0.92187 0.0
C1179 C 0.5061 0.91265 0.90577 0.0
C1180 C 0.51978 0.90535 0.88441 0.0
C1181 C 0.52109 0.8791 0.87891 0.0
C1182 C 0.51922 0.98492 0.91377 0.0
C1183 C 0.49404 0.9938 0.92049 0.0
C1184 C 0.52327 0.95873 0.90866 0.0
C1185 C 0.50235 0.94068 0.91079 0.0
C1186 C 0.47733 0.94961 0.91776 0.0
C1187 C 0.47322 0.97572 0.92229 0.0
H1188 H 0.5008 0.34518 0.67767 0.0
H1189 H 0.5381 0.32999 0.60835 0.0
H1190 H 0.50507 0.3919 0.66767 0.0
H1191 H 0.54416 0.37632 0.59873 0.0
H1192 H 0.53546 0.46055 0.57691 0.0
H1193 H 0.52694 0.41486 0.5877 0.0
H1194 H 0.53044 0.4294 0.66205 0.0
H1195 H 0.53768 0.47563 0.65107 0.0
C1196 C 0.51025 0.35186 0.66036 0.0
C1197 C 0.51969 0.33369 0.64408 0.0
C1198 C 0.51294 0.37881 0.6546 0.0
C1199 C 0.52514 0.38861 0.63227 0.0
C1200 C 0.53432 0.37015 0.61598 0.0
C1201 C 0.53135 0.34329 0.62167 0.0
C1202 C 0.53411 0.45412 0.59563 0.0
C1203 C 0.53725 0.47209 0.61305 0.0
C1204 C 0.52951 0.42757 0.6019 0.0
C1205 C 0.52835 0.41764 0.62588 0.0
C1206 C 0.53087 0.43582 0.64341 0.0
C1207 C 0.53509 0.46256 0.63711 0.0
H1208 H 0.47198 0.17018 0.59443 0.0
H1209 H 0.53556 0.13691 0.62915 0.0
H1210 H 0.46842 0.13085 0.57256 0.0
H1211 H 0.53288 0.0982 0.60683 0.0
H1212 H 0.49766 0.0207 0.59141 0.0
H1213 H 0.50537 0.06189 0.60808 0.0
H1214 H 0.48562 0.10227 0.54317 0.0
H1215 H 0.47694 0.06057 0.52667 0.0
C1216 C 0.48556 0.15468 0.59696 0.0
C1217 C 0.50383 0.15648 0.6137 0.0
C1218 C 0.4836 0.13211 0.5844 0.0
C1219 C 0.50007 0.11097 0.58814 0.0
C1220 C 0.51932 0.11361 0.60391 0.0
C1221 C 0.52102 0.13592 0.61663 0.0
C1222 C 0.49518 0.03829 0.58049 0.0
C1223 C 0.48665 0.03718 0.55763 0.0
C1224 C 0.4998 0.06208 0.59005 0.0
C1225 C 0.49626 0.08567 0.57703 0.0
C1226 C 0.48829 0.0846 0.55389 0.0
C1227 C 0.48353 0.06066 0.54431 0.0
H1228 H 0.85792 0.54116 0.61734 0.0
H1229 H 0.92372 0.49837 0.63914 0.0
H1230 H 0.87631 0.54144 0.57583 0.0
H1231 H 0.94212 0.49849 0.59732 0.0
H1232 H 0.97726 0.53436 0.52136 0.0
H1233 H 0.9609 0.53018 0.56372 0.0
H1234 H 0.88482 0.50973 0.54458 0.0
H1235 H 0.901 0.51382 0.50248 0.0
C1236 C 0.87643 0.53194 0.6133 0.0
C1237 C 0.88936 0.51983 0.63166 0.0
C1238 C 0.88684 0.53186 0.58943 0.0
C1239 C 0.91064 0.51986 0.58317 0.0
C1240 C 0.92381 0.50798 0.60152 0.0
C1241 C 0.91318 0.50777 0.62546 0.0
C1242 C 0.95715 0.52856 0.5262 0.0
C1243 C 0.94047 0.52454 0.5084 0.0
C1244 C 0.94778 0.52615 0.5505 0.0
C1245 C 0.92145 0.51994 0.55756 0.0
C1246 C 0.90509 0.51496 0.53979 0.0
C1247 C 0.91446 0.51712 0.51559 0.0
H1248 H 0.10492 0.02327 0.66196 0.0
H1249 H 0.16721 0.97575 0.63313 0.0
H1250 H 0.08397 0.02081 0.62473 0.0
H1251 H 0.14661 0.97346 0.59628 0.0
H1252 H 0.11909 0.99507 0.5258 0.0
H1253 H 0.13619 0.00687 0.56255 0.0
H1254 H 0.06422 0.9814 0.60292 0.0
H1255 H 0.04709 0.96913 0.56607 0.0
C1256 C 0.11409 0.01245 0.64763 0.0
C1257 C 0.13748 0.99952 0.65031 0.0
C1258 C 0.10215 0.011 0.6265 0.0
C1259 C 0.11387 0.99713 0.60772 0.0
C1260 C 0.13739 0.98454 0.61041 0.0
C1261 C 0.14902 0.98563 0.63153 0.0
C1262 C 0.10683 0.99217 0.54249 0.0
C1263 C 0.08201 0.98064 0.5432 0.0
C1264 C 0.11655 0.99906 0.56343 0.0
C1265 C 0.10158 0.99471 0.58545 0.0
C1266 C 0.07603 0.98502 0.58607 0.0
C1267 C 0.0663 0.97797 0.56504 0.0
H1268 H 0.84846 0.53501 0.81698 0.0
H1269 H 0.91612 0.49523 0.78806 0.0
H1270 H 0.86693 0.53721 0.8549 0.0
H1271 H 0.93386 0.4951 0.82661 0.0
H1272 H 0.96989 0.51271 0.89377 0.0
H1273 H 0.95337 0.51646 0.85481 0.0
H1274 H 0.87472 0.51487 0.88907 0.0
H1275 H 0.89125 0.51383 0.92762 0.0
C1276 C 0.86718 0.52634 0.81895 0.0
C1277 C 0.88054 0.51441 0.79973 0.0
C1278 C 0.87777 0.52732 0.84083 0.0
C1279 C 0.90192 0.51596 0.84437 0.0
C1280 C 0.91541 0.50433 0.82485 0.0
C1281 C 0.90503 0.50392 0.80277 0.0
C1282 C 0.94909 0.5138 0.89304 0.0
C1283 C 0.93205 0.51265 0.91418 0.0
C1284 C 0.93949 0.51547 0.87051 0.0
C1285 C 0.91251 0.51569 0.86836 0.0
C1286 C 0.89559 0.51511 0.88956 0.0
C1287 C 0.90517 0.51397 0.91197 0.0
H1288 H 0.20169 0.02281 0.81855 0.0
H1289 H 0.12307 0.99745 0.81299 0.0
H1290 H 0.19131 0.02803 0.86132 0.0
H1291 H 0.11221 1.00295 0.8557 0.0
H1292 H 0.10798 0.99265 0.93742 0.0
H1293 H 0.11933 0.98569 0.89528 0.0
H1294 H 0.16704 0.05538 0.88822 0.0
H1295 H 0.15562 0.06243 0.93024 0.0
C1296 C 0.18219 0.01829 0.82664 0.0
C1297 C 0.16329 0.00946 0.81265 0.0
C1298 C 0.17612 0.02143 0.85108 0.0
C1299 C 0.15085 0.01594 0.86215 0.0
C1300 C 0.13195 0.007 0.84799 0.0
C1301 C 0.13809 1.00389 0.82352 0.0
C1302 C 0.12076 1.00662 0.92689 0.0
C1303 C 0.13084 0.02812 0.93746 0.0
C1304 C 0.12729 1.00261 0.90263 0.0
C1305 C 0.14415 0.01994 0.88817 0.0
C1306 C 0.15436 0.04134 0.89877 0.0
C1307 C 0.1478 0.04537 0.923 0.0
H1308 H 0.67147 0.90985 0.5166 0.0
H1309 H 0.63898 0.84711 0.48117 0.0
H1310 H 0.63042 0.93314 0.51552 0.0
H1311 H 0.59843 0.87026 0.47979 0.0
H1312 H 0.52054 0.89898 0.51461 0.0
H1313 H 0.56306 0.87957 0.50799 0.0
H1314 H 0.5982 0.95574 0.49274 0.0
H1315 H 0.55498 0.97519 0.49972 0.0
C1316 C 0.65578 0.9012 0.50823 0.0
C1317 C 0.65851 0.8763 0.49939 0.0
C1318 C 0.63218 0.91459 0.50754 0.0
C1319 C 0.61072 0.90351 0.4979 0.0
C1320 C 0.6141 0.87925 0.48795 0.0
C1321 C 0.63749 0.8659 0.48872 0.0
C1322 C 0.53724 0.91155 0.50907 0.0
C1323 C 0.53428 0.93856 0.50708 0.0
C1324 C 0.56177 0.90042 0.50532 0.0
C1325 C 0.58438 0.91594 0.49974 0.0
C1326 C 0.58135 0.94309 0.49712 0.0
C1327 C 0.55655 0.95428 0.5007 0.0
H1328 H 0.71683 0.20146 0.96041 0.0
H1329 H 0.74159 0.12857 0.99094 0.0
H1330 H 0.67476 0.18182 0.95476 0.0
H1331 H 0.69922 0.10886 0.98613 0.0
H1332 H 0.62826 0.07718 0.95209 0.0
H1333 H 0.67134 0.09506 0.95694 0.0
H1334 H 0.63623 0.16643 0.97904 0.0
H1335 H 0.59349 0.14872 0.97391 0.0
C1336 C 0.7131 0.18121 0.96594 0.0
C1337 C 0.73203 0.16654 0.97642 0.0
C1338 C 0.68902 0.16998 0.96291 0.0
C1339 C 0.68344 0.14382 0.97029 0.0
C1340 C 0.70286 0.12899 0.98017 0.0
C1341 C 0.72699 0.14025 0.98311 0.0
C1342 C 0.62981 0.09658 0.95822 0.0
C1343 C 0.60753 0.11163 0.96239 0.0
C1344 C 0.65446 0.10684 0.96098 0.0
C1345 C 0.6573 0.13233 0.96808 0.0
C1346 C 0.63487 0.147 0.97294 0.0
C1347 C 0.61034 0.13681 0.9701 0.0
H1348 H 0.3723 0.33758 0.97773 0.0
H1349 H 0.34822 0.41143 1.00318 0.0
H1350 H 0.41756 0.35316 0.9722 0.0
H1351 H 0.39349 0.42718 0.99782 0.0
H1352 H 0.48184 0.43955 0.00354 0.0
H1353 H 0.43716 0.42224 0.01248 0.0
H1354 H 0.44449 0.38364 0.94633 0.0
H1355 H 0.48854 0.40055 0.9376 0.0
C1356 C 0.37676 0.35716 0.98217 0.0
C1357 C 0.35679 0.37314 0.99119 0.0
C1358 C 0.4027 0.36616 0.97899 0.0
C1359 C 0.40941 0.39148 0.98468 0.0
C1360 C 0.38927 0.40746 0.99366 0.0
C1361 C 0.36329 0.39848 0.99668 0.0
C1362 C 0.47397 0.42712 0.9911 0.0
C1363 C 0.48895 0.42151 0.96985 0.0
C1364 C 0.44826 0.41736 0.99609 0.0
C1365 C 0.43704 0.40145 0.98014 0.0
C1366 C 0.45236 0.39547 0.95924 0.0
C1367 C 0.47774 0.40537 0.95417 0.0
H1368 H 0.89933 0.12938 0.98281 0.0
H1369 H 0.9134 0.18484 0.03471 0.0
H1370 H 0.9385 0.10606 0.99231 0.0
H1371 H 0.95257 0.16232 0.04349 0.0
H1372 H 1.0043 0.10292 0.07423 0.0
H1373 H 0.96472 0.12282 0.06318 0.0
H1374 H 0.98691 0.10915 0.98919 0.0
H1375 H 0.02694 0.08847 1.00045 0.0
C1376 C 0.91067 0.13659 0.99626 0.0
C1377 C 0.90309 0.15911 0.00792 0.0
C1378 C 0.93332 0.12337 1.00151 0.0
C1379 C 0.9488 0.13218 0.01875 0.0
C1380 C 0.94109 0.15465 0.03035 0.0
C1381 C 0.91865 0.16782 0.02509 0.0
C1382 C 1.00092 0.10403 0.05554 0.0
C1383 C 0.01914 0.09422 0.03822 0.0
C1384 C 0.97811 0.11565 0.04917 0.0
C1385 C 0.97261 0.11804 0.02521 0.0
C1386 C 0.99041 0.10761 0.00783 0.0
C1387 C 0.01344 0.09585 0.01426 0.0
H1388 H 0.02655 0.23669 0.25047 0.0
H1389 H 0.01707 0.1673 0.29684 0.0
H1390 H 0.03344 0.2104 0.2157 0.0
H1391 H 0.02461 0.14069 0.26228 0.0
H1392 H 0.01941 0.10001 0.19274 0.0
H1393 H 0.00781 0.1266 0.22656 0.0
H1394 H 0.06621 0.18353 0.19795 0.0
H1395 H 0.07691 0.1577 0.16384 0.0
C1396 C 0.02581 0.21573 0.25309 0.0
C1397 C 0.02123 0.2039 0.27614 0.0
C1398 C 0.02995 0.20063 0.23327 0.0
C1399 C 0.02978 0.17333 0.23611 0.0
C1400 C 0.0246 0.16159 0.25931 0.0
C1401 C 0.02038 0.17675 0.27912 0.0
C1402 C 0.02956 0.11834 0.19355 0.0
C1403 C 0.04924 0.12655 0.17555 0.0
C1404 C 0.02309 0.13349 0.21309 0.0
C1405 C 0.03605 0.15729 0.21509 0.0
C1406 C 0.05553 0.16553 0.19696 0.0
C1407 C 0.06197 0.15045 0.17749 0.0
H1408 H 0.98353 0.32028 0.24793 0.0
H1409 H 0.04826 0.367 0.26512 0.0
H1410 H 0.98325 0.34483 0.21008 0.0
H1411 H 0.04875 0.39101 0.22629 0.0
H1412 H 0.01782 0.44528 0.16547 0.0
H1413 H 0.02298 0.42201 0.20383 0.0
H1414 H 0.0094 0.34929 0.17248 0.0
H1415 H 1.00365 0.37254 0.13461 0.0
C1416 C 0.99764 0.33594 0.24371 0.0
C1417 C 0.01578 0.3418 0.2597 0.0
C1418 C 0.99776 0.34976 0.22176 0.0
C1419 C 0.01619 0.36969 0.21501 0.0
C1420 C 0.03426 0.3758 0.23101 0.0
C1421 C 0.03411 0.36192 0.25314 0.0
C1422 C 0.01632 0.4243 0.16682 0.0
C1423 C 0.00994 0.41068 0.14728 0.0
C1424 C 0.01932 0.41098 0.18871 0.0
C1425 C 0.01614 0.38384 0.19131 0.0
C1426 C 0.01126 0.37024 0.17127 0.0
C1427 C 0.00806 0.38352 0.14956 0.0
H1428 H 0.0183 0.83489 0.19807 0.0
H1429 H 0.99013 0.77967 0.25531 0.0
H1430 H 0.01738 0.86942 0.22629 0.0
H1431 H 0.98939 0.81377 0.28362 0.0
H1432 H 0.97627 0.8792 0.32858 0.0
H1433 H 0.96804 0.85452 0.2945 0.0
H1434 H 0.04361 0.87773 0.25966 0.0
H1435 H 0.05145 0.90325 0.29335 0.0
C1436 C 0.01177 0.83037 0.21672 0.0
C1437 C 1.00435 0.80499 0.22486 0.0
C1438 C 0.0112 0.84996 0.23276 0.0
C1439 C 1.00313 0.84426 0.25705 0.0
C1440 C 0.99517 0.81882 0.26492 0.0
C1441 C 0.99583 0.7993 0.24891 0.0
C1442 C 0.99074 0.87978 0.31329 0.0
C1443 C 0.01469 0.89275 0.31371 0.0
C1444 C 0.98612 0.86547 0.29391 0.0
C1445 C 0.00538 0.86388 0.27472 0.0
C1446 C 0.02841 0.87866 0.27423 0.0
C1447 C 0.03301 0.89301 0.29359 0.0
H1448 H 0.96552 0.63224 0.23963 0.0
H1449 H 0.02321 0.67944 0.26795 0.0
H1450 H 0.95965 0.60613 0.27736 0.0
H1451 H 0.01697 0.65396 0.30575 0.0
H1452 H 0.01709 0.59149 0.36552 0.0
H1453 H 0.02408 0.61464 0.32642 0.0
H1454 H 0.94251 0.60516 0.31743 0.0
H1455 H 0.93587 0.58115 0.35605 0.0
C1456 C 0.97684 0.63718 0.25395 0.0
C1457 C 0.99496 0.65793 0.25056 0.0
C1458 C 0.97343 0.62221 0.27572 0.0
C1459 C 0.98784 0.62769 0.29491 0.0
C1460 C 0.00587 0.64856 0.29144 0.0
C1461 C 0.00943 0.66333 0.26965 0.0
C1462 C 1.00068 0.59416 0.35511 0.0
C1463 C 0.97592 0.58434 0.36406 0.0
C1464 C 1.00462 0.6077 0.33267 0.0
C1465 C 0.98387 0.61212 0.3185 0.0
C1466 C 0.95915 0.60197 0.32741 0.0
C1467 C 0.95528 0.58823 0.34976 0.0
H1468 H 0.28144 0.03463 0.1429 0.0
H1469 H 0.22971 0.98535 0.19081 0.0
H1470 H 0.24792 0.03923 0.11506 0.0
H1471 H 0.19659 0.98889 0.16279 0.0
H1472 H 0.13323 0.03413 0.12927 0.0
H1473 H 0.1688 0.02281 0.15218 0.0
H1474 H 0.22018 0.02002 0.08719 0.0
H1475 H 0.18386 0.03222 0.06374 0.0
C1476 C 0.26301 0.02443 0.14721 0.0
C1477 C 0.25799 0.00986 0.16908 0.0
C1478 C 0.24388 0.02686 0.1312 0.0
C1479 C 0.21934 0.01469 0.13671 0.0
C1480 C 0.215 0.999 0.1581 0.0
C1481 C 0.234 0.99678 0.17413 0.0
C1482 C 0.152 0.03096 0.11963 0.0
C1483 C 0.15561 0.03426 0.09455 0.0
C1484 C 0.17249 0.02416 0.1329 0.0
C1485 C 0.19748 0.02027 0.12167 0.0
C1486 C 0.2012 0.023 0.09647 0.0
C1487 C 0.18039 0.02978 0.08301 0.0
H1488 H 0.79425 0.45446 0.15822 0.0
H1489 H 0.77831 0.5308 0.12805 0.0
H1490 H 0.83171 0.45172 0.12912 0.0
H1491 H 0.81692 0.52841 0.09943 0.0
H1492 H 0.8817 0.50294 0.0402 0.0
H1493 H 0.83941 0.50571 0.06425 0.0
H1494 H 0.87368 0.4737 0.1261 0.0
H1495 H 0.91495 0.47071 0.10265 0.0
C1496 C 0.79841 0.47057 0.14518 0.0
C1497 C 0.78314 0.49294 0.14575 0.0
C1498 C 0.8202 0.4691 0.12861 0.0
C1499 C 0.82764 0.49002 0.11215 0.0
C1500 C 0.81177 0.51195 0.11185 0.0
C1501 C 0.7898 0.51341 0.12848 0.0
C1502 C 0.88009 0.49657 0.05893 0.0
C1503 C 0.90176 0.48639 0.06933 0.0
C1504 C 0.85591 0.49818 0.07271 0.0
C1505 C 0.85302 0.48947 0.09703 0.0
C1506 C 0.87491 0.47994 0.10733 0.0
C1507 C 0.89877 0.4784 0.09377 0.0
H1508 H 0.21559 0.95682 0.2949 0.0
H1509 H 0.24474 0.01524 0.3377 0.0
H1510 H 0.17856 0.94879 0.3245 0.0
H1511 H 0.20692 0.00746 0.36734 0.0
H1512 H 0.14283 0.96147 0.42366 0.0
H1513 H 0.18351 0.97187 0.39786 0.0
H1514 H 0.14035 0.97581 0.33605 0.0
H1515 H 0.10055 0.96566 0.36118 0.0
C1516 C 0.21431 0.9678 0.31075 0.0
C1517 C 0.23328 0.98674 0.31376 0.0
C1518 C 0.19287 0.96334 0.32768 0.0
C1519 C 0.18961 0.97763 0.34824 0.0
C1520 C 0.20889 0.99607 0.35175 0.0
C1521 C 0.2304 1.00069 0.33462 0.0
C1522 C 0.14211 0.96496 0.40461 0.0
C1523 C 0.11843 0.96231 0.39453 0.0
C1524 C 0.16536 0.97087 0.38984 0.0
C1525 C 0.16524 0.97408 0.36481 0.0
C1526 C 0.14132 0.97279 0.35512 0.0
C1527 C 0.1184 0.96703 0.36967 0.0
H1528 H 0.80232 0.47974 0.27931 0.0
H1529 H 0.73063 0.49968 0.31922 0.0
H1530 H 0.82459 0.47989 0.3156 0.0
H1531 H 0.75259 0.49942 0.35587 0.0
H1532 H 0.81414 0.53894 0.39904 0.0
H1533 H 0.78485 0.52825 0.36964 0.0
H1534 H 0.8285 0.45914 0.35498 0.0
H1535 H 0.85844 0.47042 0.38365 0.0
C1536 C 0.79135 0.48363 0.29607 0.0
C1537 C 0.76501 0.48973 0.29679 0.0
C1538 C 0.80392 0.48353 0.31685 0.0
C1539 C 0.79029 0.48959 0.33863 0.0
C1540 C 0.76361 0.49485 0.33934 0.0
C1541 C 0.75106 0.49496 0.31852 0.0
C1542 C 0.81719 0.52124 0.38983 0.0
C1543 C 0.83884 0.50578 0.39334 0.0
C1544 C 0.80027 0.51496 0.37315 0.0
C1545 C 0.80465 0.49306 0.35972 0.0
C1546 C 0.82494 0.47639 0.36477 0.0
C1547 C 0.8419 0.4827 0.38142 0.0
H1548 H 0.24648 0.21956 0.03323 0.0
H1549 H 0.1871 0.2606 0.99849 0.0
H1550 H 0.21626 0.18255 0.04331 0.0
H1551 H 0.15744 0.22315 0.00744 0.0
H1552 H 0.12991 0.13404 0.00589 0.0
H1553 H 0.15895 0.17178 0.99585 0.0
H1554 H 0.16848 0.17782 0.07045 0.0
H1555 H 0.1387 0.14058 0.08067 0.0
C1556 C 0.22715 0.22043 0.02736 0.0
C1557 C 0.21939 0.24274 0.01458 0.0
C1558 C 0.20984 0.19937 0.03325 0.0
C1559 C 0.18453 0.19995 0.02608 0.0
C1560 C 0.17689 0.22207 0.01299 0.0
C1561 C 0.19396 0.24339 0.00767 0.0
C1562 C 0.13795 0.14359 0.02019 0.0
C1563 C 0.13186 0.13437 0.0441 0.0
C1564 C 0.15457 0.16518 0.01442 0.0
C1565 C 0.16609 0.17763 0.03235 0.0
C1566 C 0.15999 0.1685 0.05626 0.0
C1567 C 0.14279 0.14732 0.0621 0.0
H1568 H 0.19384 0.8031 0.50174 0.0
H1569 H 0.18367 0.75765 0.4414 0.0
H1570 H 0.15823 0.83058 0.49163 0.0
H1571 H 0.14749 0.78498 0.43139 0.0
H1572 H 0.10015 0.85715 0.40753 0.0
H1573 H 0.13411 0.82628 0.41635 0.0
H1574 H 0.11325 0.83269 0.49185 0.0
H1575 H 0.08029 0.86395 0.48297 0.0
C1576 C 0.18379 0.79869 0.48646 0.0
C1577 C 0.19175 0.7779 0.47255 0.0
C1578 C 0.16314 0.81451 0.48062 0.0
C1579 C 0.14944 0.81007 0.46074 0.0
C1580 C 0.15753 0.78936 0.44669 0.0
C1581 C 0.17837 0.77358 0.45247 0.0
C1582 C 0.10252 0.85154 0.42599 0.0
C1583 C 0.08742 0.86317 0.4445 0.0
C1584 C 0.12211 0.83382 0.43111 0.0
C1585 C 0.12705 0.82713 0.45491 0.0
C1586 C 0.11084 0.83777 0.4733 0.0
C1587 C 0.09156 0.85556 0.4682 0.0
H1588 H 0.83312 0.70077 0.52492 0.0
H1589 H 0.86681 0.74543 0.46218 0.0
H1590 H 0.864 0.66614 0.51638 0.0
H1591 H 0.89763 0.71078 0.4536 0.0
H1592 H 0.95956 0.64578 0.45378 0.0
H1593 H 0.93544 0.68363 0.46825 0.0
H1594 H 0.86586 0.63607 0.48262 0.0
H1595 H 0.88945 0.59891 0.46809 0.0
C1596 C 0.8475 0.70345 0.50963 0.0
C1597 C 0.84734 0.72573 0.49412 0.0
C1598 C 0.86508 0.68356 0.50464 0.0
C1599 C 0.88315 0.68562 0.48419 0.0
C1600 C 0.88409 0.70863 0.46953 0.0
C1601 C 0.86629 0.72838 0.47436 0.0
C1602 C 0.93917 0.64349 0.46019 0.0
C1603 C 0.92641 0.61938 0.45959 0.0
C1604 C 0.92536 0.66511 0.46842 0.0
C1605 C 0.89875 0.6628 0.47674 0.0
C1606 C 0.88636 0.6385 0.47668 0.0
C1607 C 0.89991 0.61721 0.4681 0.0
H1608 H 0.31285 0.82035 0.49193 0.0
H1609 H 0.36402 0.76407 0.5208 0.0
H1610 H 0.34397 0.85517 0.4975 0.0
H1611 H 0.39544 0.79855 0.52607 0.0
H1612 H 0.41535 0.90792 0.4892 0.0
H1613 H 0.3868 0.87197 0.48223 0.0
H1614 H 0.4005 0.83513 0.55053 0.0
H1615 H 0.42952 0.871 0.55737 0.0
C1616 C 0.33086 0.81555 0.49936 0.0
C1617 C 0.33613 0.78978 0.50608 0.0
C1618 C 0.34875 0.83535 0.50244 0.0
C1619 C 0.37224 0.82966 0.51226 0.0
C1620 C 0.37744 0.80368 0.51878 0.0
C1621 C 0.35958 0.78395 0.51567 0.0
C1622 C 0.41255 0.89202 0.50265 0.0
C1623 C 0.42474 0.89238 0.52389 0.0
C1624 C 0.39596 0.8715 0.49872 0.0
C1625 C 0.39109 0.85077 0.51591 0.0
C1626 C 0.40395 0.85069 0.53682 0.0
C1627 C 0.42058 0.87127 0.54077 0.0
H1628 H 0.51545 0.67882 0.81567 0.0
H1629 H 0.52548 0.74229 0.76242 0.0
H1630 H 0.52008 0.64776 0.78427 0.0
H1631 H 0.52962 0.71153 0.73084 0.0
H1632 H 0.5663 0.6505 0.68332 0.0
H1633 H 0.55974 0.68077 0.71466 0.0
H1634 H 0.49961 0.63044 0.75144 0.0
H1635 H 0.50694 0.59945 0.72033 0.0
C1636 C 0.5185 0.68602 0.79715 0.0
C1637 C 0.52024 0.71281 0.79133 0.0
C1638 C 0.52098 0.66831 0.77915 0.0
C1639 C 0.52531 0.67704 0.75492 0.0
C1640 C 0.52671 0.70401 0.74925 0.0
C1641 C 0.52421 0.72167 0.76726 0.0
C1642 C 0.55184 0.64565 0.69819 0.0
C1643 C 0.53736 0.62227 0.69932 0.0
C1644 C 0.54781 0.66327 0.71607 0.0
C1645 C 0.5291 0.6582 0.73568 0.0
C1646 C 0.51439 0.63493 0.73676 0.0
C1647 C 0.51841 0.61724 0.71878 0.0
H1648 H 0.49797 0.88466 0.78063 0.0
H1649 H 0.54716 0.82649 0.74863 0.0
H1650 H 0.49471 0.9059 0.74113 0.0
H1651 H 0.54402 0.84779 0.70919 0.0
H1652 H 0.50991 0.94638 0.66607 0.0
H1653 H 0.52136 0.92901 0.705 0.0
H1654 H 0.50451 0.85141 0.68551 0.0
H1655 H 0.49312 0.86873 0.64672 0.0
C1656 C 0.50845 0.87674 0.76518 0.0
C1657 C 0.52271 0.85391 0.76762 0.0
C1658 C 0.50671 0.88894 0.74264 0.0
C1659 C 0.51896 0.87832 0.72216 0.0
C1660 C 0.53423 0.85621 0.72472 0.0
C1661 C 0.53621 0.84419 0.74727 0.0
C1662 C 0.50895 0.92561 0.67009 0.0
C1663 C 0.50056 0.90886 0.65352 0.0
C1664 C 0.51537 0.91572 0.69232 0.0
C1665 C 0.5139 0.8889 0.69816 0.0
C1666 C 0.50611 0.87215 0.68134 0.0
C1667 C 0.49935 0.88204 0.65928 0.0
H1668 H 0.4887 0.36221 0.72635 0.0
H1669 H 0.55626 0.33123 0.75711 0.0
H1670 H 0.49224 0.4012 0.74862 0.0
H1671 H 0.56059 0.37064 0.77765 0.0
H1672 H 0.49449 0.42147 0.83429 0.0
H1673 H 0.48845 0.40017 0.7979 0.0
H1674 H 0.56629 0.42298 0.76909 0.0
H1675 H 0.57217 0.44543 0.80516 0.0
C1676 C 0.50443 0.36376 0.73756 0.0
C1677 C 0.52203 0.34339 0.74014 0.0
C1678 C 0.50664 0.38624 0.7499 0.0
C1679 C 0.5269 0.38892 0.7644 0.0
C1680 C 0.54518 0.36922 0.76604 0.0
C1681 C 0.54264 0.34659 0.75426 0.0
C1682 C 0.50989 0.42316 0.81979 0.0
C1683 C 0.53413 0.43444 0.82287 0.0
C1684 C 0.50636 0.41098 0.79891 0.0
C1685 C 0.52707 0.40973 0.78103 0.0
C1686 C 0.55016 0.42365 0.78283 0.0
C1687 C 0.55358 0.43616 0.80356 0.0
H1688 H 0.52145 0.21694 0.7798 0.0
H1689 H 0.48358 0.15796 0.74404 0.0
H1690 H 0.51795 0.18887 0.81667 0.0
H1691 H 0.48019 0.12968 0.7806 0.0
H1692 H 0.45202 0.09776 0.85678 0.0
H1693 H 0.45743 0.12462 0.81961 0.0
H1694 H 0.53303 0.15 0.83637 0.0
H1695 H 0.52738 0.12333 0.8739 0.0
C1696 C 0.51236 0.19793 0.77987 0.0
C1697 C 0.50232 0.18989 0.75916 0.0
C1698 C 0.51049 0.1817 0.80096 0.0
C1699 C 0.49858 0.15687 0.80192 0.0
C1700 C 0.48901 0.14875 0.78091 0.0
C1701 C 0.49098 0.16495 0.75986 0.0
C1702 C 0.46995 0.10885 0.85252 0.0
C1703 C 0.48928 0.10815 0.8685 0.0
C1704 C 0.47311 0.12429 0.83102 0.0
C1705 C 0.4957 0.13971 0.82471 0.0
C1706 C 0.5152 0.13876 0.84058 0.0
C1707 C 0.51207 0.1232 0.86209 0.0
H1708 H 0.72218 0.5259 0.7121 0.0
H1709 H 0.77088 0.50315 0.65064 0.0
H1710 H 0.68489 0.52779 0.6888 0.0
H1711 H 0.73327 0.50373 0.62725 0.0
H1712 H 0.66434 0.53681 0.58722 0.0
H1713 H 0.70339 0.53095 0.60833 0.0
H1714 H 0.6553 0.50219 0.67166 0.0
H1715 H 0.61673 0.50927 0.65097 0.0
C1716 C 0.72473 0.521 0.69359 0.0
C1717 C 0.74929 0.51429 0.68318 0.0
C1718 C 0.70333 0.52183 0.6802 0.0
C1719 C 0.70581 0.51562 0.65605 0.0
C1720 C 0.73053 0.50884 0.64567 0.0
C1721 C 0.75205 0.50827 0.65908 0.0
C1722 C 0.66231 0.5288 0.60551 0.0
C1723 C 0.63752 0.52367 0.61751 0.0
C1724 C 0.68467 0.52545 0.61768 0.0
C1725 C 0.68261 0.51661 0.64199 0.0
C1726 C 0.65777 0.50987 0.65328 0.0
C1727 C 0.63559 0.51363 0.64132 0.0
H1728 H 0.25793 0.0071 0.63718 0.0
H1729 H 0.30897 0.98639 0.69094 0.0
H1730 H 0.29377 1.00222 0.60574 0.0
H1731 H 0.34484 0.98199 0.65994 0.0
H1732 H 0.39412 0.94513 0.60227 0.0
H1733 H 0.35671 0.952 0.63023 0.0
H1734 H 0.33681 0.01928 0.58705 0.0
H1735 H 0.37475 0.01196 0.55826 0.0
C1736 C 0.27692 1.00169 0.6422 0.0
C1737 C 0.28074 0.9969 0.66642 0.0
C1738 C 0.29747 0.99904 0.62425 0.0
C1739 C 0.32224 0.99143 0.63018 0.0
C1740 C 0.32598 0.98733 0.65456 0.0
C1741 C 0.30551 0.98997 0.6724 0.0
C1742 C 0.38183 0.96143 0.59852 0.0
C1743 C 0.38776 0.97821 0.57807 0.0
C1744 C 0.36034 0.96547 0.61477 0.0
C1745 C 0.34396 0.98658 0.61135 0.0
C1746 C 0.34905 1.00284 0.59033 0.0
C1747 C 0.37076 0.99868 0.57381 0.0
H1748 H 0.76308 0.52672 0.84721 0.0
H1749 H 0.71744 0.48042 0.80482 0.0
H1750 H 0.72787 0.52303 0.8801 0.0
H1751 H 0.68262 0.47695 0.83731 0.0
H1752 H 0.61464 0.50572 0.88303 0.0
H1753 H 0.65344 0.51432 0.85565 0.0
H1754 H 0.7009 0.48269 0.90872 0.0
H1755 H 0.66145 0.47369 0.93656 0.0
C1756 C 0.7456 0.51576 0.84494 0.0
C1757 C 0.74303 0.50386 0.82341 0.0
C1758 C 0.72561 0.51351 0.86379 0.0
C1759 C 0.70253 0.49978 0.86119 0.0
C1760 C 0.70016 0.48775 0.83977 0.0
C1761 C 0.72016 0.48963 0.8212 0.0
C1762 C 0.63336 0.50107 0.88917 0.0
C1763 C 0.63496 0.48877 0.91189 0.0
C1764 C 0.65557 0.50594 0.87341 0.0
C1765 C 0.68009 0.49877 0.8799 0.0
C1766 C 0.68216 0.48838 0.9033 0.0
C1767 C 0.65966 0.48336 0.91924 0.0
H1768 H 0.28828 0.97623 0.82401 0.0
H1769 H 0.24085 0.04447 0.8297 0.0
H1770 H 0.30537 0.98493 0.86163 0.0
H1771 H 0.25826 0.05318 0.8671 0.0
H1772 H 0.34466 0.07763 0.88339 0.0
H1773 H 0.30865 0.06525 0.86265 0.0
H1774 H 0.29627 0.99578 0.90882 0.0
H1775 H 0.33142 0.00924 0.93168 0.0
C1776 C 0.28091 0.99259 0.83362 0.0
C1777 C 0.26382 0.01009 0.82361 0.0
C1778 C 0.29048 0.99739 0.85527 0.0
C1779 C 0.28311 0.01975 0.86704 0.0
C1780 C 0.26416 0.03584 0.85822 0.0
C1781 C 0.25458 0.03104 0.83667 0.0
C1782 C 0.3337 0.06041 0.89029 0.0
C1783 C 0.34143 0.0444 0.90932 0.0
C1784 C 0.31297 0.05325 0.87814 0.0
C1785 C 0.29982 0.02961 0.8842 0.0
C1786 C 0.30627 0.01414 0.90394 0.0
C1787 C 0.32664 0.02173 0.91672 0.0
H1788 H 0.66596 0.74204 0.51073 0.0
H1789 H 0.72638 0.7014 0.54427 0.0
H1790 H 0.63519 0.70646 0.52411 0.0
H1791 H 0.69519 0.66634 0.55874 0.0
H1792 H 0.62009 0.62706 0.60217 0.0
H1793 H 0.6504 0.66307 0.58841 0.0
H1794 H 0.63203 0.65559 0.51613 0.0
H1795 H 0.60248 0.61914 0.52968 0.0
C1796 C 0.67278 0.72532 0.52066 0.0
C1797 C 0.69884 0.72427 0.5259 0.0
C1798 C 0.65508 0.70505 0.52852 0.0
C1799 C 0.6627 0.68357 0.54253 0.0
C1800 C 0.68866 0.68266 0.54807 0.0
C1801 C 0.70656 0.70262 0.53967 0.0
C1802 C 0.6223 0.63329 0.58339 0.0
C1803 C 0.60872 0.62025 0.56706 0.0
C1804 C 0.63983 0.65376 0.57548 0.0
C1805 C 0.6437 0.66215 0.55115 0.0
C1806 C 0.62947 0.64966 0.53497 0.0
C1807 C 0.61251 0.62878 0.54276 0.0
H1808 H 0.68188 0.27664 0.99686 0.0
H1809 H 0.72841 0.31641 0.93766 0.0
H1810 H 0.64603 0.30563 0.99044 0.0
H1811 H 0.69235 0.34508 0.93106 0.0
H1812 H 0.61527 0.38154 0.91398 0.0
H1813 H 0.64817 0.34821 0.91847 0.0
H1814 H 0.63516 0.35072 0.99511 0.0
H1815 H 0.60241 0.38364 0.99064 0.0
C1816 C 0.68463 0.29158 0.98252 0.0
C1817 C 0.70839 0.29405 0.96793 0.0
C1818 C 0.66391 0.30823 0.97877 0.0
C1819 C 0.66613 0.32786 0.96022 0.0
C1820 C 0.68966 0.33002 0.94531 0.0
C1821 C 0.71044 0.31346 0.94913 0.0
C1822 C 0.61908 0.3746 0.93178 0.0
C1823 C 0.60604 0.38532 0.95192 0.0
C1824 C 0.63819 0.35567 0.93437 0.0
C1825 C 0.64456 0.34673 0.95718 0.0
C1826 C 0.63074 0.3568 0.97727 0.0
C1827 C 0.61191 0.37583 0.97468 0.0
H1828 H 0.38634 0.27011 0.96227 0.0
H1829 H 0.35703 0.22463 0.02619 0.0
H1830 H 0.41855 0.23714 0.95301 0.0
H1831 H 0.39001 0.1919 0.01712 0.0
H1832 H 0.4654 0.14487 0.99451 0.0
H1833 H 0.44217 0.18369 0.00801 0.0
H1834 H 0.4064 0.18996 0.94192 0.0
H1835 H 0.42876 0.15119 0.92893 0.0
C1836 C 0.38699 0.25326 0.97455 0.0
C1837 C 0.36865 0.24973 0.99468 0.0
C1838 C 0.40558 0.23448 0.9693 0.0
C1839 C 0.4066 0.21189 0.98422 0.0
C1840 C 0.38972 0.20924 0.00539 0.0
C1841 C 0.37085 0.22798 0.01056 0.0
C1842 C 0.45296 0.15496 0.98278 0.0
C1843 C 0.44892 0.14522 0.96065 0.0
C1844 C 0.43956 0.17695 0.99055 0.0
C1845 C 0.42258 0.18983 0.97596 0.0
C1846 C 0.41956 0.18061 0.95343 0.0
C1847 C 0.43233 0.15842 0.946 0.0
H1848 H 0.83373 0.33598 0.97975 0.0
H1849 H 0.88242 0.27699 0.00816 0.0
H1850 H 0.86628 0.36926 0.98586 0.0
H1851 H 0.9151 0.30998 0.01415 0.0
H1852 H 0.94832 0.38182 0.04857 0.0
H1853 H 0.91951 0.34641 0.0401 0.0
H1854 H 0.91086 0.38349 0.97072 0.0
H1855 H 0.93933 0.41887 0.97918 0.0
C1856 C 0.8515 0.33026 0.98718 0.0
C1857 C 0.85568 0.30419 0.99366 0.0
C1858 C 0.87016 0.34915 0.99057 0.0
C1859 C 0.89326 0.3422 1.00053 0.0
C1860 C 0.89742 0.31596 0.00673 0.0
C1861 C 0.87883 0.29712 1.00323 0.0
C1862 C 0.94067 0.38215 0.03135 0.0
C1863 C 0.94601 0.40323 0.01463 0.0
C1864 C 0.92414 0.36189 0.02649 0.0
C1865 C 0.91264 0.36237 0.00486 0.0
C1866 C 0.91901 0.38283 0.98773 0.0
C1867 C 0.93553 0.403 0.99253 0.0
loop_
_geom_bond_atom_site_label_1
_geom_bond_atom_site_label_2
_geom_bond_distance
_geom_bond_site_symmetry_2
_ccdc_geom_bond_type
C0 C1 1.443 . S
C0 N4 1.376 . S
C0 C38 1.389 . S
C1 C0 1.443 . S
C1 C2 1.340 . S
C1 H41 0.951 . S
C2 C1 1.340 . S
C2 C3 1.439 . S
C2 H42 0.950 . S
C3 C2 1.439 . S
C3 N4 1.374 . S
C3 C37 1.395 . S
N4 C0 1.376 . S
N4 C3 1.374 . S
N4 Co5 2.008 1_655 S
Co5 N4 2.008 1_455 S
Co5 N6 1.995 1_455 S
Co5 N11 2.008 . S
Co5 N16 1.995 . S
Co5 N21 2.282 . S
Co5 N27 2.282 . S
N6 Co5 1.995 1_655 S
N6 C7 1.376 . S
N6 C10 1.383 . S
C7 N6 1.376 . S
C7 C8 1.446 . S
C7 C37 1.391 . S
C8 C7 1.446 . S
C8 C9 1.339 . S
C8 H43 0.949 . S
C9 C8 1.339 . S
C9 C10 1.439 . S
C9 H44 0.950 . S
C10 N6 1.383 . S
C10 C9 1.439 . S
C10 C39 1.392 1_655 S
N11 Co5 2.008 . S
N11 C12 1.376 . S
N11 C15 1.374 . S
C12 N11 1.376 . S
C12 C13 1.443 . S
C12 C39 1.389 . S
C13 C12 1.443 . S
C13 C14 1.340 . S
C13 H45 0.951 . S
C14 C13 1.340 . S
C14 C15 1.439 . S
C14 H46 0.950 . S
C15 N11 1.374 . S
C15 C14 1.439 . S
C15 C40 1.395 . S
N16 Co5 1.995 . S
N16 C17 1.376 . S
N16 C20 1.383 . S
C17 N16 1.376 . S
C17 C18 1.446 . S
C17 C40 1.391 . S
C18 C17 1.446 . S
C18 C19 1.339 . S
C18 H47 0.949 . S
C19 C18 1.339 . S
C19 C20 1.439 . S
C19 H48 0.950 . S
C20 N16 1.383 . S
C20 C19 1.439 . S
C20 C38 1.392 1_455 S
N21 Co5 2.282 . S
N21 C24 1.332 . S
N21 C26 1.332 1_455 S
C22 C23 1.386 . S
C22 C25 1.388 1_455 S
C23 C22 1.386 . S
C23 C24 1.382 . S
C23 H49 0.950 . S
C24 N21 1.332 . S
C24 C23 1.382 . S
C24 H35 0.952 . S
C25 C22 1.388 1_655 S
C25 C26 1.382 . S
C25 H50 0.950 . S
C26 N21 1.332 1_655 S
C26 C25 1.382 . S
C26 H36 0.948 . S
N27 Co5 2.282 . S
N27 C31 1.332 1_455 S
N27 C32 1.332 . S
C28 C29 1.388 1_455 S
C28 C32 1.382 . S
C28 H51 0.950 . S
C29 C28 1.388 1_655 S
C29 C30 1.386 . S
C30 C29 1.386 . S
C30 C31 1.382 . S
C30 H52 0.950 . S
C31 N27 1.332 1_655 S
C31 C30 1.382 . S
C31 H33 0.952 . S
C32 N27 1.332 . S
C32 C28 1.382 . S
C32 H34 0.948 . S
H33 C31 0.952 . S
H34 C32 0.948 . S
H35 C24 0.952 . S
H36 C26 0.948 . S
C37 C3 1.395 . S
C37 C7 1.391 . S
C38 C0 1.389 . S
C38 C20 1.392 1_655 S
C39 C10 1.392 1_455 S
C39 C12 1.389 . S
C40 C15 1.395 . S
C40 C17 1.391 . S
H41 C1 0.951 . S
H42 C2 0.950 . S
H43 C8 0.949 . S
H44 C9 0.950 . S
H45 C13 0.951 . S
H46 C14 0.950 . S
H47 C18 0.949 . S
H48 C19 0.950 . S
H49 C23 0.950 . S
H50 C25 0.950 . S
H51 C28 0.950 . S
H52 C30 0.950 . S
C53 C54 1.443 . S
C53 N57 1.376 . S
C53 C91 1.396 . S
C54 C53 1.443 . S
C54 C55 1.340 . S
C54 H94 0.951 . S
C55 C54 1.340 . S
C55 C56 1.439 . S
C55 H95 0.950 . S
C56 C55 1.439 . S
C56 N57 1.374 . S
C56 C90 1.395 . S
N57 C53 1.376 . S
N57 C56 1.374 . S
N57 Co58 2.008 1_655 S
Co58 N57 2.008 1_455 S
Co58 N59 1.995 1_455 S
Co58 N64 2.008 . S
Co58 N69 1.995 . S
Co58 N74 2.282 . S
Co58 N80 2.282 . S
N59 Co58 1.995 1_655 S
N59 C60 1.376 . S
N59 C63 1.383 . S
C60 N59 1.376 . S
C60 C61 1.446 . S
C60 C90 1.391 . S
C61 C60 1.446 . S
C61 C62 1.339 . S
C61 H96 0.949 . S
C62 C61 1.339 . S
C62 C63 1.439 . S
C62 H97 0.950 . S
C63 N59 1.383 . S
C63 C62 1.439 . S
C63 C92 1.392 1_655 S
N64 Co58 2.008 . S
N64 C65 1.376 . S
N64 C68 1.374 . S
C65 N64 1.376 . S
C65 C66 1.443 . S
C65 C92 1.389 . S
C66 C65 1.443 . S
C66 C67 1.340 . S
C66 H98 0.951 . S
C67 C66 1.340 . S
C67 C68 1.439 . S
C67 H99 0.950 . S
C68 N64 1.374 . S
C68 C67 1.439 . S
C68 C93 1.395 . S
N69 Co58 1.995 . S
N69 C70 1.376 . S
N69 C73 1.383 . S
C70 N69 1.376 . S
C70 C71 1.446 . S
C70 C93 1.391 . S
C71 C70 1.446 . S
C71 C72 1.339 . S
C71 H100 0.949 . S
C72 C71 1.339 . S
C72 C73 1.439 . S
C72 H101 0.950 . S
C73 N69 1.383 . S
C73 C72 1.439 . S
C73 C91 1.383 1_455 S
N74 Co58 2.282 . S
N74 C77 1.332 . S
N74 C79 1.302 1_455 S
C75 C76 1.386 . S
C75 C78 1.388 . S
C76 C75 1.386 . S
C76 C77 1.382 . S
C76 H102 0.950 . S
C77 N74 1.332 . S
C77 C76 1.382 . S
C77 H88 0.952 . S
C78 C75 1.388 . S
C78 C79 1.377 1_455 S
C78 H103 0.950 1_455 S
C79 N74 1.302 1_655 S
C79 C78 1.377 1_655 S
C79 H89 0.987 . S
N80 Co58 2.282 . S
N80 C84 1.332 1_455 S
N80 C85 1.332 . S
C81 C82 1.388 1_455 S
C81 C85 1.382 . S
C81 H104 0.950 . S
C82 C81 1.388 1_655 S
C82 C83 1.386 . S
C83 C82 1.386 . S
C83 C84 1.382 . S
C83 H105 0.950 . S
C84 N80 1.332 1_655 S
C84 C83 1.382 . S
C84 H86 0.952 . S
C85 N80 1.332 . S
C85 C81 1.382 . S
C85 H87 0.948 . S
H86 C84 0.952 . S
H87 C85 0.948 . S
H88 C77 0.952 . S
H89 C79 0.987 . S
C90 C56 1.395 . S
C90 C60 1.391 . S
C91 C53 1.396 . S
C91 C73 1.383 1_655 S
C92 C63 1.392 1_455 S
C92 C65 1.389 . S
C93 C68 1.395 . S
C93 C70 1.391 . S
H94 C54 0.951 . S
H95 C55 0.950 . S
H96 C61 0.949 . S
H97 C62 0.950 . S
H98 C66 0.951 . S
H99 C67 0.950 . S
H100 C71 0.949 . S
H101 C72 0.950 . S
H102 C76 0.950 . S
H103 C78 0.950 1_655 S
H104 C81 0.950 . S
H105 C83 0.950 . S
C106 C107 1.443 . S
C106 N110 1.376 . S
C106 C144 1.403 . S
C107 C106 1.443 . S
C107 C108 1.340 . S
C107 H147 0.951 . S
C108 C107 1.340 . S
C108 C109 1.439 . S
C108 H148 0.950 . S
C109 C108 1.439 . S
C109 N110 1.374 . S
C109 C143 1.395 . S
N110 C106 1.376 . S
N110 C109 1.374 . S
N110 Co111 2.008 1_565 S
Co111 N110 2.008 1_545 S
Co111 N112 1.995 1_545 S
Co111 N117 2.008 . S
Co111 N122 1.995 . S
Co111 N127 2.282 . S
Co111 N133 2.282 . S
N112 Co111 1.995 1_565 S
N112 C113 1.376 . S
N112 C116 1.383 . S
C113 N112 1.376 . S
C113 C114 1.446 . S
C113 C143 1.391 . S
C114 C113 1.446 . S
C114 C115 1.339 . S
C114 H149 0.949 . S
C115 C114 1.339 . S
C115 C116 1.439 . S
C115 H150 0.950 . S
C116 N112 1.383 . S
C116 C115 1.439 . S
C116 C145 1.392 1_565 S
N117 Co111 2.008 . S
N117 C118 1.376 . S
N117 C121 1.374 . S
C118 N117 1.376 . S
C118 C119 1.443 . S
C118 C145 1.389 . S
C119 C118 1.443 . S
C119 C120 1.340 . S
C119 H151 0.951 . S
C120 C119 1.340 . S
C120 C121 1.439 . S
C120 H152 0.950 . S
C121 N117 1.374 . S
C121 C120 1.439 . S
C121 C146 1.395 . S
N122 Co111 1.995 . S
N122 C123 1.376 . S
N122 C126 1.383 . S
C123 N122 1.376 . S
C123 C124 1.446 . S
C123 C146 1.391 . S
C124 C123 1.446 . S
C124 C125 1.339 . S
C124 H153 0.949 . S
C125 C124 1.339 . S
C125 C126 1.439 . S
C125 H154 0.950 . S
C126 N122 1.383 . S
C126 C125 1.439 . S
C126 C144 1.375 1_545 S
N127 Co111 2.282 . S
N127 C130 1.332 . S
N127 C132 1.364 . S
C128 C129 1.386 . S
C128 C131 1.388 . S
C129 C128 1.386 . S
C129 C130 1.382 . S
C129 H155 0.950 . S
C130 N127 1.332 . S
C130 C129 1.382 . S
C130 H141 0.952 . S
C131 C128 1.388 . S
C131 C132 1.390 . S
C131 H156 0.950 1_545 S
C132 N127 1.364 . S
C132 C131 1.390 . S
C132 H142 0.907 1_545 S
N133 Co111 2.282 . S
N133 C137 1.332 1_545 S
N133 C138 1.332 . S
C134 C135 1.388 1_545 S
C134 C138 1.382 . S
C134 H157 0.950 . S
C135 C134 1.388 1_565 S
C135 C136 1.386 . S
C136 C135 1.386 . S
C136 C137 1.382 . S
C136 H158 0.950 . S
C137 N133 1.332 1_565 S
C137 C136 1.382 . S
C137 H139 0.952 . S
C138 N133 1.332 . S
C138 C134 1.382 . S
C138 H140 0.948 . S
H139 C137 0.952 . S
H140 C138 0.948 . S
H141 C130 0.952 . S
H142 C132 0.907 1_565 S
C143 C109 1.395 . S
C143 C113 1.391 . S
C144 C106 1.403 . S
C144 C126 1.375 1_565 S
C145 C116 1.392 1_545 S
C145 C118 1.389 . S
C146 C121 1.395 . S
C146 C123 1.391 . S
H147 C107 0.951 . S
H148 C108 0.950 . S
H149 C114 0.949 . S
H150 C115 0.950 . S
H151 C119 0.951 . S
H152 C120 0.950 . S
H153 C124 0.949 . S
H154 C125 0.950 . S
H155 C129 0.950 . S
H156 C131 0.950 1_565 S
H157 C134 0.950 . S
H158 C136 0.950 . S
C159 C160 1.443 . S
C159 N163 1.376 . S
C159 C197 1.389 . S
C160 C159 1.443 . S
C160 C161 1.340 . S
C160 H200 0.951 . S
C161 C160 1.340 . S
C161 C162 1.439 . S
C161 H201 0.950 . S
C162 C161 1.439 . S
C162 N163 1.374 . S
C162 C196 1.395 . S
N163 C159 1.376 . S
N163 C162 1.374 . S
N163 Co164 2.008 . S
Co164 N163 2.008 . S
Co164 N165 1.995 . S
Co164 N170 2.008 . S
Co164 N175 1.995 . S
Co164 N180 2.282 . S
Co164 N186 2.282 . S
N165 Co164 1.995 . S
N165 C166 1.376 . S
N165 C169 1.383 . S
C166 N165 1.376 . S
C166 C167 1.446 . S
C166 C196 1.391 . S
C167 C166 1.446 . S
C167 C168 1.339 . S
C167 H202 0.949 . S
C168 C167 1.339 . S
C168 C169 1.439 . S
C168 H203 0.950 . S
C169 N165 1.383 . S
C169 C168 1.439 . S
C169 C198 1.392 . S
N170 Co164 2.008 . S
N170 C171 1.376 . S
N170 C174 1.374 . S
C171 N170 1.376 . S
C171 C172 1.443 . S
C171 C198 1.389 . S
C172 C171 1.443 . S
C172 C173 1.340 . S
C172 H204 0.951 . S
C173 C172 1.340 . S
C173 C174 1.439 . S
C173 H205 0.950 . S
C174 N170 1.374 . S
C174 C173 1.439 . S
C174 C199 1.395 . S
N175 Co164 1.995 . S
N175 C176 1.376 . S
N175 C179 1.383 . S
C176 N175 1.376 . S
C176 C177 1.446 . S
C176 C199 1.391 . S
C177 C176 1.446 . S
C177 C178 1.339 . S
C177 H206 0.949 . S
C178 C177 1.339 . S
C178 C179 1.439 . S
C178 H207 0.950 . S
C179 N175 1.383 . S
C179 C178 1.439 . S
C179 C197 1.392 . S
N180 Co164 2.282 . S
N180 C183 1.332 . S
N180 C185 1.332 . S
C181 C182 1.386 . S
C181 C184 1.388 . S
C182 C181 1.386 . S
C182 C183 1.382 . S
C182 H208 0.950 . S
C183 N180 1.332 . S
C183 C182 1.382 . S
C183 H194 0.952 . S
C184 C181 1.388 . S
C184 C185 1.382 . S
C184 H209 0.950 . S
C185 N180 1.332 . S
C185 C184 1.382 . S
C185 H195 0.948 . S
N186 Co164 2.282 . S
N186 C190 1.332 . S
N186 C191 1.332 . S
C187 C188 1.388 . S
C187 C191 1.382 . S
C187 H210 0.950 . S
C188 C187 1.388 . S
C188 C189 1.386 . S
C189 C188 1.386 . S
C189 C190 1.382 . S
C189 H211 0.950 . S
C190 N186 1.332 . S
C190 C189 1.382 . S
C190 H192 0.952 . S
C191 N186 1.332 . S
C191 C187 1.382 . S
C191 H193 0.948 . S
H192 C190 0.952 . S
H193 C191 0.948 . S
H194 C183 0.952 . S
H195 C185 0.948 . S
C196 C162 1.395 . S
C196 C166 1.391 . S
C197 C159 1.389 . S
C197 C179 1.392 . S
C198 C169 1.392 . S
C198 C171 1.389 . S
C199 C174 1.395 . S
C199 C176 1.391 . S
H200 C160 0.951 . S
H201 C161 0.950 . S
H202 C167 0.949 . S
H203 C168 0.950 . S
H204 C172 0.951 . S
H205 C173 0.950 . S
H206 C177 0.949 . S
H207 C178 0.950 . S
H208 C182 0.950 . S
H209 C184 0.950 . S
H210 C187 0.950 . S
H211 C189 0.950 . S
C212 C213 1.443 . S
C212 N216 1.376 . S
C212 C250 1.389 . S
C213 C212 1.443 . S
C213 C214 1.340 . S
C213 H253 0.951 . S
C214 C213 1.340 . S
C214 C215 1.439 . S
C214 H254 0.950 . S
C215 C214 1.439 . S
C215 N216 1.374 . S
C215 C249 1.395 . S
N216 C212 1.376 . S
N216 C215 1.374 . S
N216 Co217 2.008 1_556 S
Co217 N216 2.008 1_554 S
Co217 N218 1.995 1_554 S
Co217 N223 2.008 . S
Co217 N228 1.995 . S
Co217 N233 2.282 . S
Co217 N239 2.282 1_554 S
N218 Co217 1.995 1_556 S
N218 C219 1.376 . S
N218 C222 1.383 . S
C219 N218 1.376 . S
C219 C220 1.446 . S
C219 C249 1.391 . S
C220 C219 1.446 . S
C220 C221 1.339 . S
C220 H255 0.949 . S
C221 C220 1.339 . S
C221 C222 1.439 . S
C221 H256 0.950 . S
C222 N218 1.383 . S
C222 C221 1.439 . S
C222 C251 1.392 1_556 S
N223 Co217 2.008 . S
N223 C224 1.376 . S
N223 C227 1.374 . S
C224 N223 1.376 . S
C224 C225 1.443 . S
C224 C251 1.389 . S
C225 C224 1.443 . S
C225 C226 1.340 . S
C225 H257 0.951 . S
C226 C225 1.340 . S
C226 C227 1.439 . S
C226 H258 0.950 . S
C227 N223 1.374 . S
C227 C226 1.439 . S
C227 C252 1.395 . S
N228 Co217 1.995 . S
N228 C229 1.376 . S
N228 C232 1.383 . S
C229 N228 1.376 . S
C229 C230 1.446 . S
C229 C252 1.391 . S
C230 C229 1.446 . S
C230 C231 1.339 . S
C230 H259 0.949 . S
C231 C230 1.339 . S
C231 C232 1.439 . S
C231 H260 0.950 . S
C232 N228 1.383 . S
C232 C231 1.439 . S
C232 C250 1.392 1_554 S
N233 Co217 2.282 . S
N233 C236 1.332 . S
N233 C238 1.332 1_554 S
C234 C235 1.386 . S
C234 C237 1.388 1_554 S
C235 C234 1.386 . S
C235 C236 1.382 . S
C235 H261 0.950 . S
C236 N233 1.332 . S
C236 C235 1.382 . S
C236 H247 0.952 . S
C237 C234 1.388 1_556 S
C237 C238 1.382 . S
C237 H262 0.950 . S
C238 N233 1.332 1_556 S
C238 C237 1.382 . S
C238 H248 0.948 . S
N239 Co217 2.282 1_556 S
N239 C243 1.332 . S
N239 C244 1.332 1_556 S
C240 C241 1.388 1_554 S
C240 C244 1.382 . S
C240 H263 0.950 . S
C241 C240 1.388 1_556 S
C241 C242 1.386 . S
C242 C241 1.386 . S
C242 C243 1.382 . S
C242 H264 0.950 . S
C243 N239 1.332 . S
C243 C242 1.382 . S
C243 H245 0.952 . S
C244 N239 1.332 1_554 S
C244 C240 1.382 . S
C244 H246 0.948 . S
H245 C243 0.952 . S
H246 C244 0.948 . S
H247 C236 0.952 . S
H248 C238 0.948 . S
C249 C215 1.395 . S
C249 C219 1.391 . S
C250 C212 1.389 . S
C250 C232 1.392 1_556 S
C251 C222 1.392 1_554 S
C251 C224 1.389 . S
C252 C227 1.395 . S
C252 C229 1.391 . S
H253 C213 0.951 . S
H254 C214 0.950 . S
H255 C220 0.949 . S
H256 C221 0.950 . S
H257 C225 0.951 . S
H258 C226 0.950 . S
H259 C230 0.949 . S
H260 C231 0.950 . S
H261 C235 0.950 . S
H262 C237 0.950 . S
H263 C240 0.950 . S
H264 C242 0.950 . S
C265 C266 1.443 . S
C265 N269 1.376 . S
C265 C303 1.389 . S
C266 C265 1.443 . S
C266 C267 1.340 . S
C266 H306 0.951 . S
C267 C266 1.340 . S
C267 C268 1.439 . S
C267 H307 0.950 . S
C268 C267 1.439 . S
C268 N269 1.374 . S
C268 C302 1.395 . S
N269 C265 1.376 . S
N269 C268 1.374 . S
N269 Co270 2.008 . S
Co270 N269 2.008 . S
Co270 N271 1.995 . S
Co270 N276 2.008 . S
Co270 N281 1.995 . S
Co270 N286 2.282 . S
Co270 N292 2.282 . S
N271 Co270 1.995 . S
N271 C272 1.376 . S
N271 C275 1.383 . S
C272 N271 1.376 . S
C272 C273 1.446 . S
C272 C302 1.391 . S
C273 C272 1.446 . S
C273 C274 1.339 . S
C273 H308 0.949 . S
C274 C273 1.339 . S
C274 C275 1.439 . S
C274 H309 0.950 . S
C275 N271 1.383 . S
C275 C274 1.439 . S
C275 C304 1.392 . S
N276 Co270 2.008 . S
N276 C277 1.376 . S
N276 C280 1.374 . S
C277 N276 1.376 . S
C277 C278 1.443 . S
C277 C304 1.389 . S
C278 C277 1.443 . S
C278 C279 1.340 . S
C278 H310 0.951 . S
C279 C278 1.340 . S
C279 C280 1.439 . S
C279 H311 0.950 . S
C280 N276 1.374 . S
C280 C279 1.439 . S
C280 C305 1.395 . S
N281 Co270 1.995 . S
N281 C282 1.376 . S
N281 C285 1.383 . S
C282 N281 1.376 . S
C282 C283 1.446 . S
C282 C305 1.391 . S
C283 C282 1.446 . S
C283 C284 1.339 . S
C283 H312 0.949 . S
C284 C283 1.339 . S
C284 C285 1.439 . S
C284 H313 0.950 . S
C285 N281 1.383 . S
C285 C284 1.439 . S
C285 C303 1.392 . S
N286 Co270 2.282 . S
N286 C289 1.332 . S
N286 C291 1.332 . S
C287 C288 1.386 . S
C287 C290 1.388 . S
C288 C287 1.386 . S
C288 C289 1.382 . S
C288 H314 0.950 . S
C289 N286 1.332 . S
C289 C288 1.382 . S
C289 H300 0.952 . S
C290 C287 1.388 . S
C290 C291 1.382 . S
C290 H315 0.950 . S
C291 N286 1.332 . S
C291 C290 1.382 . S
C291 H301 0.948 . S
N292 Co270 2.282 . S
N292 C296 1.332 . S
N292 C297 1.332 . S
C293 C294 1.388 . S
C293 C297 1.382 . S
C293 H316 0.950 . S
C294 C293 1.388 . S
C294 C295 1.386 . S
C295 C294 1.386 . S
C295 C296 1.382 . S
C295 H317 0.950 . S
C296 N292 1.332 . S
C296 C295 1.382 . S
C296 H298 0.952 . S
C297 N292 1.332 . S
C297 C293 1.382 . S
C297 H299 0.948 . S
H298 C296 0.952 . S
H299 C297 0.948 . S
H300 C289 0.952 . S
H301 C291 0.948 . S
C302 C268 1.395 . S
C302 C272 1.391 . S
C303 C265 1.389 . S
C303 C285 1.392 . S
C304 C275 1.392 . S
C304 C277 1.389 . S
C305 C280 1.395 . S
C305 C282 1.391 . S
H306 C266 0.951 . S
H307 C267 0.950 . S
H308 C273 0.949 . S
H309 C274 0.950 . S
H310 C278 0.951 . S
H311 C279 0.950 . S
H312 C283 0.949 . S
H313 C284 0.950 . S
H314 C288 0.950 . S
H315 C290 0.950 . S
H316 C293 0.950 . S
H317 C295 0.950 . S
C318 C319 1.443 . S
C318 N322 1.376 . S
C318 C356 1.389 . S
C319 C318 1.443 . S
C319 C320 1.340 . S
C319 H359 0.951 . S
C320 C319 1.340 . S
C320 C321 1.439 . S
C320 H360 0.950 . S
C321 C320 1.439 . S
C321 N322 1.374 . S
C321 C355 1.395 . S
N322 C318 1.376 . S
N322 C321 1.374 . S
N322 Co323 2.008 . S
Co323 N322 2.008 . S
Co323 N324 1.995 . S
Co323 N329 2.008 . S
Co323 N334 1.995 . S
Co323 N339 2.282 . S
Co323 N345 2.282 . S
N324 Co323 1.995 . S
N324 C325 1.376 . S
N324 C328 1.383 . S
C325 N324 1.376 . S
C325 C326 1.446 . S
C325 C355 1.391 . S
C326 C325 1.446 . S
C326 C327 1.339 . S
C326 H361 0.949 . S
C327 C326 1.339 . S
C327 C328 1.439 . S
C327 H362 0.950 . S
C328 N324 1.383 . S
C328 C327 1.439 . S
C328 C357 1.392 . S
N329 Co323 2.008 . S
N329 C330 1.376 . S
N329 C333 1.374 . S
C330 N329 1.376 . S
C330 C331 1.443 . S
C330 C357 1.389 . S
C331 C330 1.443 . S
C331 C332 1.340 . S
C331 H363 0.951 . S
C332 C331 1.340 . S
C332 C333 1.439 . S
C332 H364 0.950 . S
C333 N329 1.374 . S
C333 C332 1.439 . S
C333 C358 1.395 . S
N334 Co323 1.995 . S
N334 C335 1.376 . S
N334 C338 1.383 . S
C335 N334 1.376 . S
C335 C336 1.446 . S
C335 C358 1.391 . S
C336 C335 1.446 . S
C336 C337 1.339 . S
C336 H365 0.949 . S
C337 C336 1.339 . S
C337 C338 1.439 . S
C337 H366 0.950 . S
C338 N334 1.383 . S
C338 C337 1.439 . S
C338 C356 1.392 . S
N339 Co323 2.282 . S
N339 C342 1.332 . S
N339 C344 1.332 . S
C340 C341 1.386 . S
C340 C343 1.388 . S
C341 C340 1.386 . S
C341 C342 1.382 . S
C341 H367 0.950 . S
C342 N339 1.332 . S
C342 C341 1.382 . S
C342 H353 0.952 . S
C343 C340 1.388 . S
C343 C344 1.382 . S
C343 H368 0.950 . S
C344 N339 1.332 . S
C344 C343 1.382 . S
C344 H354 0.948 . S
N345 Co323 2.282 . S
N345 C349 1.332 . S
N345 C350 1.332 . S
C346 C347 1.388 . S
C346 C350 1.382 . S
C346 H369 0.950 . S
C347 C346 1.388 . S
C347 C348 1.386 . S
C348 C347 1.386 . S
C348 C349 1.382 . S
C348 H370 0.950 . S
C349 N345 1.332 . S
C349 C348 1.382 . S
C349 H351 0.952 . S
C350 N345 1.332 . S
C350 C346 1.382 . S
C350 H352 0.948 . S
H351 C349 0.952 . S
H352 C350 0.948 . S
H353 C342 0.952 . S
H354 C344 0.948 . S
C355 C321 1.395 . S
C355 C325 1.391 . S
C356 C318 1.389 . S
C356 C338 1.392 . S
C357 C328 1.392 . S
C357 C330 1.389 . S
C358 C333 1.395 . S
C358 C335 1.391 . S
H359 C319 0.951 . S
H360 C320 0.950 . S
H361 C326 0.949 . S
H362 C327 0.950 . S
H363 C331 0.951 . S
H364 C332 0.950 . S
H365 C336 0.949 . S
H366 C337 0.950 . S
H367 C341 0.950 . S
H368 C343 0.950 . S
H369 C346 0.950 . S
H370 C348 0.950 . S
C371 C372 1.443 . S
C371 N375 1.376 . S
C371 C409 1.389 . S
C372 C371 1.443 . S
C372 C373 1.340 . S
C372 H412 0.951 . S
C373 C372 1.340 . S
C373 C374 1.439 . S
C373 H413 0.950 . S
C374 C373 1.439 . S
C374 N375 1.374 . S
C374 C408 1.395 . S
N375 C371 1.376 . S
N375 C374 1.374 . S
N375 Co376 2.008 . S
Co376 N375 2.008 . S
Co376 N377 1.995 . S
Co376 N382 2.008 . S
Co376 N387 1.995 . S
Co376 N392 2.282 . S
Co376 N398 2.282 . S
N377 Co376 1.995 . S
N377 C378 1.376 . S
N377 C381 1.383 . S
C378 N377 1.376 . S
C378 C379 1.446 . S
C378 C408 1.391 . S
C379 C378 1.446 . S
C379 C380 1.339 . S
C379 H414 0.949 . S
C380 C379 1.339 . S
C380 C381 1.439 . S
C380 H415 0.950 . S
C381 N377 1.383 . S
C381 C380 1.439 . S
C381 C410 1.392 . S
N382 Co376 2.008 . S
N382 C383 1.376 . S
N382 C386 1.374 . S
C383 N382 1.376 . S
C383 C384 1.443 . S
C383 C410 1.389 . S
C384 C383 1.443 . S
C384 C385 1.340 . S
C384 H416 0.951 . S
C385 C384 1.340 . S
C385 C386 1.439 . S
C385 H417 0.950 . S
C386 N382 1.374 . S
C386 C385 1.439 . S
C386 C411 1.395 . S
N387 Co376 1.995 . S
N387 C388 1.376 . S
N387 C391 1.383 . S
C388 N387 1.376 . S
C388 C389 1.446 . S
C388 C411 1.391 . S
C389 C388 1.446 . S
C389 C390 1.339 . S
C389 H418 0.949 . S
C390 C389 1.339 . S
C390 C391 1.439 . S
C390 H419 0.950 . S
C391 N387 1.383 . S
C391 C390 1.439 . S
C391 C409 1.392 . S
N392 Co376 2.282 . S
N392 C395 1.332 . S
N392 C397 1.332 . S
C393 C394 1.386 . S
C393 C396 1.388 . S
C394 C393 1.386 . S
C394 C395 1.382 . S
C394 H420 0.950 . S
C395 N392 1.332 . S
C395 C394 1.382 . S
C395 H406 0.952 . S
C396 C393 1.388 . S
C396 C397 1.382 . S
C396 H421 0.950 . S
C397 N392 1.332 . S
C397 C396 1.382 . S
C397 H407 0.948 . S
N398 Co376 2.282 . S
N398 C402 1.332 . S
N398 C403 1.332 . S
C399 C400 1.388 . S
C399 C403 1.382 . S
C399 H422 0.950 . S
C400 C399 1.388 . S
C400 C401 1.386 . S
C401 C400 1.386 . S
C401 C402 1.382 . S
C401 H423 0.950 . S
C402 N398 1.332 . S
C402 C401 1.382 . S
C402 H404 0.952 . S
C403 N398 1.332 . S
C403 C399 1.382 . S
C403 H405 0.948 . S
H404 C402 0.952 . S
H405 C403 0.948 . S
H406 C395 0.952 . S
H407 C397 0.948 . S
C408 C374 1.395 . S
C408 C378 1.391 . S
C409 C371 1.389 . S
C409 C391 1.392 . S
C410 C381 1.392 . S
C410 C383 1.389 . S
C411 C386 1.395 . S
C411 C388 1.391 . S
H412 C372 0.951 . S
H413 C373 0.950 . S
H414 C379 0.949 . S
H415 C380 0.950 . S
H416 C384 0.951 . S
H417 C385 0.950 . S
H418 C389 0.949 . S
H419 C390 0.950 . S
H420 C394 0.950 . S
H421 C396 0.950 . S
H422 C399 0.950 . S
H423 C401 0.950 . S
C424 C425 1.443 . S
C424 N428 1.376 . S
C424 C462 1.389 . S
C425 C424 1.443 . S
C425 C426 1.340 . S
C425 H465 0.951 . S
C426 C425 1.340 . S
C426 C427 1.439 . S
C426 H466 0.950 . S
C427 C426 1.439 . S
C427 N428 1.374 . S
C427 C461 1.395 . S
N428 C424 1.376 . S
N428 C427 1.374 . S
N428 Co429 2.008 . S
Co429 N428 2.008 . S
Co429 N430 1.995 . S
Co429 N435 2.008 . S
Co429 N440 1.995 . S
Co429 N445 2.282 . S
Co429 N451 2.282 . S
N430 Co429 1.995 . S
N430 C431 1.376 . S
N430 C434 1.383 . S
C431 N430 1.376 . S
C431 C432 1.446 . S
C431 C461 1.391 . S
C432 C431 1.446 . S
C432 C433 1.339 . S
C432 H467 0.949 . S
C433 C432 1.339 . S
C433 C434 1.439 . S
C433 H468 0.950 . S
C434 N430 1.383 . S
C434 C433 1.439 . S
C434 C463 1.392 . S
N435 Co429 2.008 . S
N435 C436 1.376 . S
N435 C439 1.374 . S
C436 N435 1.376 . S
C436 C437 1.443 . S
C436 C463 1.389 . S
C437 C436 1.443 . S
C437 C438 1.340 . S
C437 H469 0.951 . S
C438 C437 1.340 . S
C438 C439 1.439 . S
C438 H470 0.950 . S
C439 N435 1.374 . S
C439 C438 1.439 . S
C439 C464 1.395 . S
N440 Co429 1.995 . S
N440 C441 1.376 . S
N440 C444 1.383 . S
C441 N440 1.376 . S
C441 C442 1.446 . S
C441 C464 1.391 . S
C442 C441 1.446 . S
C442 C443 1.339 . S
C442 H471 0.949 . S
C443 C442 1.339 . S
C443 C444 1.439 . S
C443 H472 0.950 . S
C444 N440 1.383 . S
C444 C443 1.439 . S
C444 C462 1.392 . S
N445 Co429 2.282 . S
N445 C448 1.332 . S
N445 C450 1.332 . S
C446 C447 1.386 . S
C446 C449 1.388 . S
C447 C446 1.386 . S
C447 C448 1.382 . S
C447 H473 0.950 . S
C448 N445 1.332 . S
C448 C447 1.382 . S
C448 H459 0.952 . S
C449 C446 1.388 . S
C449 C450 1.382 . S
C449 H474 0.950 . S
C450 N445 1.332 . S
C450 C449 1.382 . S
C450 H460 0.948 . S
N451 Co429 2.282 . S
N451 C455 1.332 . S
N451 C456 1.332 . S
C452 C453 1.388 . S
C452 C456 1.382 . S
C452 H475 0.950 . S
C453 C452 1.388 . S
C453 C454 1.386 . S
C454 C453 1.386 . S
C454 C455 1.382 . S
C454 H476 0.950 . S
C455 N451 1.332 . S
C455 C454 1.382 . S
C455 H457 0.952 . S
C456 N451 1.332 . S
C456 C452 1.382 . S
C456 H458 0.948 . S
H457 C455 0.952 . S
H458 C456 0.948 . S
H459 C448 0.952 . S
H460 C450 0.948 . S
C461 C427 1.395 . S
C461 C431 1.391 . S
C462 C424 1.389 . S
C462 C444 1.392 . S
C463 C434 1.392 . S
C463 C436 1.389 . S
C464 C439 1.395 . S
C464 C441 1.391 . S
H465 C425 0.951 . S
H466 C426 0.950 . S
H467 C432 0.949 . S
H468 C433 0.950 . S
H469 C437 0.951 . S
H470 C438 0.950 . S
H471 C442 0.949 . S
H472 C443 0.950 . S
H473 C447 0.950 . S
H474 C449 0.950 . S
H475 C452 0.950 . S
H476 C454 0.950 . S
C477 C478 1.443 . S
C477 N481 1.376 . S
C477 C515 1.389 . S
C478 C477 1.443 . S
C478 C479 1.340 . S
C478 H518 0.951 . S
C479 C478 1.340 . S
C479 C480 1.439 . S
C479 H519 0.950 . S
C480 C479 1.439 . S
C480 N481 1.374 . S
C480 C514 1.395 . S
N481 C477 1.376 . S
N481 C480 1.374 . S
N481 Co482 2.008 . S
Co482 N481 2.008 . S
Co482 N483 1.995 . S
Co482 N488 2.008 . S
Co482 N493 1.995 . S
Co482 N498 2.282 . S
Co482 N504 2.282 . S
N483 Co482 1.995 . S
N483 C484 1.376 . S
N483 C487 1.383 . S
C484 N483 1.376 . S
C484 C485 1.446 . S
C484 C514 1.391 . S
C485 C484 1.446 . S
C485 C486 1.339 . S
C485 H520 0.949 . S
C486 C485 1.339 . S
C486 C487 1.439 . S
C486 H521 0.950 . S
C487 N483 1.383 . S
C487 C486 1.439 . S
C487 C516 1.392 . S
N488 Co482 2.008 . S
N488 C489 1.376 . S
N488 C492 1.374 . S
C489 N488 1.376 . S
C489 C490 1.443 . S
C489 C516 1.389 . S
C490 C489 1.443 . S
C490 C491 1.340 . S
C490 H522 0.951 . S
C491 C490 1.340 . S
C491 C492 1.439 . S
C491 H523 0.950 . S
C492 N488 1.374 . S
C492 C491 1.439 . S
C492 C517 1.395 . S
N493 Co482 1.995 . S
N493 C494 1.376 . S
N493 C497 1.383 . S
C494 N493 1.376 . S
C494 C495 1.446 . S
C494 C517 1.391 . S
C495 C494 1.446 . S
C495 C496 1.339 . S
C495 H524 0.949 . S
C496 C495 1.339 . S
C496 C497 1.439 . S
C496 H525 0.950 . S
C497 N493 1.383 . S
C497 C496 1.439 . S
C497 C515 1.392 . S
N498 Co482 2.282 . S
N498 C501 1.332 . S
N498 C503 1.332 . S
C499 C500 1.386 . S
C499 C502 1.388 . S
C500 C499 1.386 . S
C500 C501 1.382 . S
C500 H526 0.950 . S
C501 N498 1.332 . S
C501 C500 1.382 . S
C501 H512 0.952 . S
C502 C499 1.388 . S
C502 C503 1.382 . S
C502 H527 0.950 . S
C503 N498 1.332 . S
C503 C502 1.382 . S
C503 H513 0.948 . S
N504 Co482 2.282 . S
N504 C508 1.332 . S
N504 C509 1.332 . S
C505 C506 1.388 . S
C505 C509 1.382 . S
C505 H528 0.950 . S
C506 C505 1.388 . S
C506 C507 1.386 . S
C507 C506 1.386 . S
C507 C508 1.382 . S
C507 H529 0.950 . S
C508 N504 1.332 . S
C508 C507 1.382 . S
C508 H510 0.952 . S
C509 N504 1.332 . S
C509 C505 1.382 . S
C509 H511 0.948 . S
H510 C508 0.952 . S
H511 C509 0.948 . S
H512 C501 0.952 . S
H513 C503 0.948 . S
C514 C480 1.395 . S
C514 C484 1.391 . S
C515 C477 1.389 . S
C515 C497 1.392 . S
C516 C487 1.392 . S
C516 C489 1.389 . S
C517 C492 1.395 . S
C517 C494 1.391 . S
H518 C478 0.951 . S
H519 C479 0.950 . S
H520 C485 0.949 . S
H521 C486 0.950 . S
H522 C490 0.951 . S
H523 C491 0.950 . S
H524 C495 0.949 . S
H525 C496 0.950 . S
H526 C500 0.950 . S
H527 C502 0.950 . S
H528 C505 0.950 . S
H529 C507 0.950 . S
C530 C531 1.443 . S
C530 N534 1.376 . S
C530 C568 1.389 . S
C531 C530 1.443 . S
C531 C532 1.340 . S
C531 H571 0.951 . S
C532 C531 1.340 . S
C532 C533 1.439 . S
C532 H572 0.950 . S
C533 C532 1.439 . S
C533 N534 1.374 . S
C533 C567 1.395 . S
N534 C530 1.376 . S
N534 C533 1.374 . S
N534 Co535 2.008 . S
Co535 N534 2.008 . S
Co535 N536 1.995 . S
Co535 N541 2.008 1_545 S
Co535 N546 1.995 1_545 S
Co535 N551 2.282 1_545 S
Co535 N557 2.282 . S
N536 Co535 1.995 . S
N536 C537 1.376 . S
N536 C540 1.383 . S
C537 N536 1.376 . S
C537 C538 1.446 . S
C537 C567 1.391 . S
C538 C537 1.446 . S
C538 C539 1.339 . S
C538 H573 0.949 . S
C539 C538 1.339 . S
C539 C540 1.439 . S
C539 H574 0.950 . S
C540 N536 1.383 . S
C540 C539 1.439 . S
C540 C569 1.392 1_545 S
N541 Co535 2.008 1_565 S
N541 C542 1.376 . S
N541 C545 1.374 . S
C542 N541 1.376 . S
C542 C543 1.443 . S
C542 C569 1.389 . S
C543 C542 1.443 . S
C543 C544 1.340 . S
C543 H575 0.951 . S
C544 C543 1.340 . S
C544 C545 1.439 . S
C544 H576 0.950 . S
C545 N541 1.374 . S
C545 C544 1.439 . S
C545 C570 1.395 . S
N546 Co535 1.995 1_565 S
N546 C547 1.376 . S
N546 C550 1.383 . S
C547 N546 1.376 . S
C547 C548 1.446 . S
C547 C570 1.391 . S
C548 C547 1.446 . S
C548 C549 1.339 . S
C548 H577 0.949 . S
C549 C548 1.339 . S
C549 C550 1.439 . S
C549 H578 0.950 . S
C550 N546 1.383 . S
C550 C549 1.439 . S
C550 C568 1.392 1_565 S
N551 Co535 2.282 1_565 S
N551 C554 1.332 . S
N551 C556 1.332 1_565 S
C552 C553 1.386 . S
C552 C555 1.388 1_565 S
C553 C552 1.386 . S
C553 C554 1.382 . S
C553 H579 0.950 . S
C554 N551 1.332 . S
C554 C553 1.382 . S
C554 H565 0.952 . S
C555 C552 1.388 1_545 S
C555 C556 1.382 . S
C555 H580 0.950 . S
C556 N551 1.332 1_545 S
C556 C555 1.382 . S
C556 H566 0.948 . S
N557 Co535 2.282 . S
N557 C561 1.332 . S
N557 C562 1.332 1_545 S
C558 C559 1.388 1_565 S
C558 C562 1.382 . S
C558 H581 0.950 . S
C559 C558 1.388 1_545 S
C559 C560 1.386 . S
C560 C559 1.386 . S
C560 C561 1.382 . S
C560 H582 0.950 . S
C561 N557 1.332 . S
C561 C560 1.382 . S
C561 H563 0.952 . S
C562 N557 1.332 1_565 S
C562 C558 1.382 . S
C562 H564 0.948 . S
H563 C561 0.952 . S
H564 C562 0.948 . S
H565 C554 0.952 . S
H566 C556 0.948 . S
C567 C533 1.395 . S
C567 C537 1.391 . S
C568 C530 1.389 . S
C568 C550 1.392 1_545 S
C569 C540 1.392 1_565 S
C569 C542 1.389 . S
C570 C545 1.395 . S
C570 C547 1.391 . S
H571 C531 0.951 . S
H572 C532 0.950 . S
H573 C538 0.949 . S
H574 C539 0.950 . S
H575 C543 0.951 . S
H576 C544 0.950 . S
H577 C548 0.949 . S
H578 C549 0.950 . S
H579 C553 0.950 . S
H580 C555 0.950 . S
H581 C558 0.950 . S
H582 C560 0.950 . S
C583 C584 1.443 . S
C583 N587 1.376 . S
C583 C621 1.389 . S
C584 C583 1.443 . S
C584 C585 1.340 . S
C584 H624 0.951 . S
C585 C584 1.340 . S
C585 C586 1.439 . S
C585 H625 0.950 . S
C586 C585 1.439 . S
C586 N587 1.374 . S
C586 C620 1.395 . S
N587 C583 1.376 . S
N587 C586 1.374 . S
N587 Co588 2.008 1_556 S
Co588 N587 2.008 1_554 S
Co588 N589 1.995 1_554 S
Co588 N594 2.008 . S
Co588 N599 1.995 . S
Co588 N604 2.282 . S
Co588 N610 2.282 . S
N589 Co588 1.995 1_556 S
N589 C590 1.376 . S
N589 C593 1.383 . S
C590 N589 1.376 . S
C590 C591 1.446 . S
C590 C620 1.391 . S
C591 C590 1.446 . S
C591 C592 1.339 . S
C591 H626 0.949 . S
C592 C591 1.339 . S
C592 C593 1.439 . S
C592 H627 0.950 . S
C593 N589 1.383 . S
C593 C592 1.439 . S
C593 C622 1.392 1_556 S
N594 Co588 2.008 . S
N594 C595 1.376 . S
N594 C598 1.374 . S
C595 N594 1.376 . S
C595 C596 1.443 . S
C595 C622 1.389 . S
C596 C595 1.443 . S
C596 C597 1.340 . S
C596 H628 0.951 . S
C597 C596 1.340 . S
C597 C598 1.439 . S
C597 H629 0.950 . S
C598 N594 1.374 . S
C598 C597 1.439 . S
C598 C623 1.395 . S
N599 Co588 1.995 . S
N599 C600 1.376 . S
N599 C603 1.383 . S
C600 N599 1.376 . S
C600 C601 1.446 . S
C600 C623 1.391 . S
C601 C600 1.446 . S
C601 C602 1.339 . S
C601 H630 0.949 . S
C602 C601 1.339 . S
C602 C603 1.439 . S
C602 H631 0.950 . S
C603 N599 1.383 . S
C603 C602 1.439 . S
C603 C621 1.392 1_554 S
N604 Co588 2.282 . S
N604 C607 1.332 . S
N604 C609 1.332 1_554 S
C605 C606 1.386 . S
C605 C608 1.388 . S
C606 C605 1.386 . S
C606 C607 1.382 . S
C606 H632 0.950 . S
C607 N604 1.332 . S
C607 C606 1.382 . S
C607 H618 0.952 . S
C608 C605 1.388 . S
C608 C609 1.382 1_554 S
C608 H633 0.950 1_554 S
C609 N604 1.332 1_556 S
C609 C608 1.382 1_556 S
C609 H619 0.948 . S
N610 Co588 2.282 . S
N610 C614 1.332 1_554 S
N610 C615 1.332 . S
C611 C612 1.388 1_554 S
C611 C615 1.382 . S
C611 H634 0.950 . S
C612 C611 1.388 1_556 S
C612 C613 1.386 . S
C613 C612 1.386 . S
C613 C614 1.382 . S
C613 H635 0.950 . S
C614 N610 1.332 1_556 S
C614 C613 1.382 . S
C614 H616 0.952 . S
C615 N610 1.332 . S
C615 C611 1.382 . S
C615 H617 0.948 . S
H616 C614 0.952 . S
H617 C615 0.948 . S
H618 C607 0.952 . S
H619 C609 0.948 . S
C620 C586 1.395 . S
C620 C590 1.391 . S
C621 C583 1.389 . S
C621 C603 1.392 1_556 S
C622 C593 1.392 1_554 S
C622 C595 1.389 . S
C623 C598 1.395 . S
C623 C600 1.391 . S
H624 C584 0.951 . S
H625 C585 0.950 . S
H626 C591 0.949 . S
H627 C592 0.950 . S
H628 C596 0.951 . S
H629 C597 0.950 . S
H630 C601 0.949 . S
H631 C602 0.950 . S
H632 C606 0.950 . S
H633 C608 0.950 1_556 S
H634 C611 0.950 . S
H635 C613 0.950 . S
C636 O652 1.251 . S
C636 O654 1.254 . S
N637 C638 1.330 1_554 S
N637 C642 1.288 1_554 S
N637 Zn643 2.043 . S
C638 N637 1.330 1_556 S
C638 C639 1.379 . S
C638 H656 0.952 1_556 S
C639 C638 1.379 . S
C639 C640 1.390 . S
C639 H666 0.949 . S
C640 C639 1.390 . S
C640 C641 1.357 . S
C641 C640 1.357 . S
C641 C642 1.370 . S
C641 H667 0.950 . S
C642 N637 1.288 1_556 S
C642 C641 1.370 . S
C642 H660 0.948 . S
Zn643 N637 2.043 . S
Zn643 O652 2.039 . S
Zn643 O658 2.034 . S
Zn643 O662 2.025 . S
Zn643 O664 2.024 . S
C644 O663 1.246 . S
C644 O664 1.249 . S
N645 C646 1.307 . S
N645 C647 1.333 . S
N645 Zn651 2.020 . S
C646 N645 1.307 . S
C646 C650 1.370 . S
C646 H657 0.948 . S
C647 N645 1.333 . S
C647 C648 1.379 . S
C647 H655 0.952 . S
C648 C647 1.379 . S
C648 C649 1.390 . S
C648 H668 0.949 . S
C649 C648 1.390 . S
C649 C650 1.357 . S
C650 C646 1.370 . S
C650 C649 1.357 . S
C650 H669 0.950 . S
Zn651 N645 2.020 . S
Zn651 O654 2.025 . S
Zn651 O659 2.024 . S
Zn651 O661 2.039 . S
Zn651 O663 2.034 . S
O652 C636 1.251 . S
O652 Zn643 2.039 . S
C653 O658 1.246 . S
C653 O659 1.249 . S
O654 C636 1.254 . S
O654 Zn651 2.025 . S
H655 C647 0.952 . S
H656 C638 0.952 1_554 S
H657 C646 0.948 . S
O658 Zn643 2.034 . S
O658 C653 1.246 . S
O659 Zn651 2.024 . S
O659 C653 1.249 . S
H660 C642 0.948 . S
O661 Zn651 2.039 . S
O661 C665 1.251 . S
O662 Zn643 2.025 . S
O662 C665 1.254 . S
O663 C644 1.246 . S
O663 Zn651 2.034 . S
O664 Zn643 2.024 . S
O664 C644 1.249 . S
C665 O661 1.251 . S
C665 O662 1.254 . S
H666 C639 0.949 . S
H667 C641 0.950 . S
H668 C648 0.949 . S
H669 C650 0.950 . S
C670 O686 1.251 . S
C670 O688 1.254 . S
N671 C672 1.333 . S
N671 C676 1.307 . S
N671 Zn677 2.020 1_556 S
C672 N671 1.333 . S
C672 C673 1.379 . S
C672 H690 0.952 . S
C673 C672 1.379 . S
C673 C674 1.390 . S
C673 H700 0.949 . S
C674 C673 1.390 . S
C674 C675 1.357 . S
C675 C674 1.357 . S
C675 C676 1.370 . S
C675 H701 0.950 . S
C676 N671 1.307 . S
C676 C675 1.370 . S
C676 H694 0.948 . S
Zn677 N671 2.020 1_554 S
Zn677 O686 2.039 . S
Zn677 O692 2.034 . S
Zn677 O696 2.025 . S
Zn677 O698 2.024 . S
C678 O697 1.246 . S
C678 O698 1.249 . S
N679 C680 1.307 . S
N679 C681 1.333 1_655 S
N679 Zn685 2.020 . S
C680 N679 1.307 . S
C680 C684 1.370 . S
C680 H691 0.948 . S
C681 N679 1.333 1_455 S
C681 C682 1.379 . S
C681 H689 0.952 . S
C682 C681 1.379 . S
C682 C683 1.390 1_455 S
C682 H702 0.949 . S
C683 C682 1.390 1_655 S
C683 C684 1.357 . S
C684 C680 1.370 . S
C684 C683 1.357 . S
C684 H703 0.950 . S
Zn685 N679 2.020 . S
Zn685 O688 2.025 . S
Zn685 O693 2.024 . S
Zn685 O695 2.039 1_655 S
Zn685 O697 2.034 . S
O686 C670 1.251 . S
O686 Zn677 2.039 . S
C687 O692 1.246 . S
C687 O693 1.249 . S
O688 C670 1.254 . S
O688 Zn685 2.025 . S
H689 C681 0.952 . S
H690 C672 0.952 . S
H691 C680 0.948 . S
O692 Zn677 2.034 . S
O692 C687 1.246 . S
O693 Zn685 2.024 . S
O693 C687 1.249 . S
H694 C676 0.948 . S
O695 Zn685 2.039 1_455 S
O695 C699 1.251 . S
O696 Zn677 2.025 . S
O696 C699 1.254 1_655 S
O697 C678 1.246 . S
O697 Zn685 2.034 . S
O698 Zn677 2.024 . S
O698 C678 1.249 . S
C699 O695 1.251 . S
C699 O696 1.254 1_455 S
H700 C673 0.949 . S
H701 C675 0.950 . S
H702 C682 0.949 . S
H703 C684 0.950 . S
C704 O720 1.251 . S
C704 O722 1.254 . S
N705 C706 1.333 . S
N705 C710 1.307 . S
N705 Zn711 2.020 . S
C706 N705 1.333 . S
C706 C707 1.379 . S
C706 H724 0.952 . S
C707 C706 1.379 . S
C707 C708 1.390 . S
C707 H734 0.949 1_455 S
C708 C707 1.390 . S
C708 C709 1.357 . S
C709 C708 1.357 . S
C709 C710 1.370 . S
C709 H735 0.950 . S
C710 N705 1.307 . S
C710 C709 1.370 . S
C710 H728 0.948 . S
Zn711 N705 2.020 . S
Zn711 O720 2.039 . S
Zn711 O726 2.034 . S
Zn711 O730 2.025 . S
Zn711 O732 2.024 . S
C712 O731 1.246 . S
C712 O732 1.249 . S
N713 C714 1.307 . S
N713 C715 1.333 . S
N713 Zn719 2.020 . S
C714 N713 1.307 . S
C714 C718 1.370 . S
C714 H725 0.948 . S
C715 N713 1.333 . S
C715 C716 1.379 . S
C715 H723 0.952 . S
C716 C715 1.379 . S
C716 C717 1.390 . S
C716 H736 0.949 . S
C717 C716 1.390 . S
C717 C718 1.357 . S
C718 C714 1.370 . S
C718 C717 1.357 . S
C718 H737 0.970 . S
Zn719 N713 2.020 . S
Zn719 O722 2.025 . S
Zn719 O727 2.024 . S
Zn719 O729 2.039 . S
Zn719 O731 2.034 . S
O720 C704 1.251 . S
O720 Zn711 2.039 . S
C721 O726 1.246 . S
C721 O727 1.249 . S
O722 C704 1.254 . S
O722 Zn719 2.025 . S
H723 C715 0.952 . S
H724 C706 0.952 . S
H725 C714 0.948 . S
O726 Zn711 2.034 . S
O726 C721 1.246 . S
O727 Zn719 2.024 . S
O727 C721 1.249 . S
H728 C710 0.948 . S
O729 Zn719 2.039 . S
O729 C733 1.251 . S
O730 Zn711 2.025 . S
O730 C733 1.254 . S
O731 C712 1.246 . S
O731 Zn719 2.034 . S
O732 Zn711 2.024 . S
O732 C712 1.249 . S
C733 O729 1.251 . S
C733 O730 1.254 . S
H734 C707 0.949 1_655 S
H735 C709 0.950 . S
H736 C716 0.949 . S
H737 C718 0.970 . S
C738 O754 1.251 . S
C738 O756 1.254 . S
N739 C740 1.333 . S
N739 C744 1.307 . S
N739 Zn745 2.020 1_455 S
C740 N739 1.333 . S
C740 C741 1.379 . S
C740 H758 0.952 . S
C741 C740 1.379 . S
C741 C742 1.390 . S
C741 H768 0.949 . S
C742 C741 1.390 . S
C742 C743 1.357 . S
C743 C742 1.357 . S
C743 C744 1.370 . S
C743 H769 0.950 . S
C744 N739 1.307 . S
C744 C743 1.370 . S
C744 H762 0.948 . S
Zn745 N739 2.020 1_655 S
Zn745 O754 2.039 . S
Zn745 O760 2.034 . S
Zn745 O764 2.025 . S
Zn745 O766 2.024 . S
C746 O765 1.246 . S
C746 O766 1.249 . S
N747 C748 1.307 . S
N747 C749 1.333 . S
N747 Zn753 2.020 . S
C748 N747 1.307 . S
C748 C752 1.370 . S
C748 H759 0.948 . S
C749 N747 1.333 . S
C749 C750 1.379 . S
C749 H757 0.952 . S
C750 C749 1.379 . S
C750 C751 1.390 . S
C750 H770 0.949 . S
C751 C750 1.390 . S
C751 C752 1.357 . S
C752 C748 1.370 . S
C752 C751 1.357 . S
C752 H771 0.950 . S
Zn753 N747 2.020 . S
Zn753 O756 2.025 . S
Zn753 O761 2.024 . S
Zn753 O763 2.039 . S
Zn753 O765 2.034 . S
O754 C738 1.251 . S
O754 Zn745 2.039 . S
C755 O760 1.246 . S
C755 O761 1.249 . S
O756 C738 1.254 . S
O756 Zn753 2.025 . S
H757 C749 0.952 . S
H758 C740 0.952 . S
H759 C748 0.948 . S
O760 Zn745 2.034 . S
O760 C755 1.246 . S
O761 Zn753 2.024 . S
O761 C755 1.249 . S
H762 C744 0.948 . S
O763 Zn753 2.039 . S
O763 C767 1.251 . S
O764 Zn745 2.025 . S
O764 C767 1.254 . S
O765 C746 1.246 . S
O765 Zn753 2.034 . S
O766 Zn745 2.024 . S
O766 C746 1.249 . S
C767 O763 1.251 . S
C767 O764 1.254 . S
H768 C741 0.949 . S
H769 C743 0.950 . S
H770 C750 0.949 . S
H771 C752 0.950 . S
C772 O788 1.251 . S
C772 O790 1.254 . S
N773 C774 1.333 . S
N773 C778 1.307 . S
N773 Zn779 2.020 . S
C774 N773 1.333 . S
C774 C775 1.379 . S
C774 H792 0.952 . S
C775 C774 1.379 . S
C775 C776 1.390 1_565 S
C775 H802 0.949 . S
C776 C775 1.390 1_545 S
C776 C777 1.357 . S
C777 C776 1.357 . S
C777 C778 1.370 1_545 S
C777 H803 0.950 . S
C778 N773 1.307 . S
C778 C777 1.370 1_565 S
C778 H796 0.948 . S
Zn779 N773 2.020 . S
Zn779 O788 2.039 . S
Zn779 O794 2.034 . S
Zn779 O798 2.025 . S
Zn779 O800 2.024 . S
C780 O799 1.246 . S
C780 O800 1.249 . S
N781 C782 1.307 . S
N781 C783 1.333 . S
N781 Zn787 2.020 . S
C782 N781 1.307 . S
C782 C786 1.370 . S
C782 H793 0.948 . S
C783 N781 1.333 . S
C783 C784 1.379 . S
C783 H791 0.952 . S
C784 C783 1.379 . S
C784 C785 1.390 . S
C784 H804 0.949 . S
C785 C784 1.390 . S
C785 C786 1.357 . S
C786 C782 1.370 . S
C786 C785 1.357 . S
C786 H805 0.950 . S
Zn787 N781 2.020 . S
Zn787 O790 2.025 . S
Zn787 O795 2.024 . S
Zn787 O797 2.039 . S
Zn787 O799 2.034 . S
O788 C772 1.251 . S
O788 Zn779 2.039 . S
C789 O794 1.246 . S
C789 O795 1.249 . S
O790 C772 1.254 . S
O790 Zn787 2.025 . S
H791 C783 0.952 . S
H792 C774 0.952 . S
H793 C782 0.948 . S
O794 Zn779 2.034 . S
O794 C789 1.246 . S
O795 Zn787 2.024 . S
O795 C789 1.249 . S
H796 C778 0.948 . S
O797 Zn787 2.039 . S
O797 C801 1.251 . S
O798 Zn779 2.025 . S
O798 C801 1.254 . S
O799 C780 1.246 . S
O799 Zn787 2.034 . S
O800 Zn779 2.024 . S
O800 C780 1.249 . S
C801 O797 1.251 . S
C801 O798 1.254 . S
H802 C775 0.949 . S
H803 C777 0.950 . S
H804 C784 0.949 . S
H805 C786 0.950 . S
C806 O822 1.251 . S
C806 O824 1.254 . S
N807 C808 1.333 . S
N807 C812 1.307 . S
N807 Zn813 2.020 . S
C808 N807 1.333 . S
C808 C809 1.379 . S
C808 H826 0.952 . S
C809 C808 1.379 . S
C809 C810 1.390 . S
C809 H836 0.949 . S
C810 C809 1.390 . S
C810 C811 1.357 . S
C811 C810 1.357 . S
C811 C812 1.370 . S
C811 H837 0.950 . S
C812 N807 1.307 . S
C812 C811 1.370 . S
C812 H830 0.948 . S
Zn813 N807 2.020 . S
Zn813 O822 2.039 . S
Zn813 O828 2.034 . S
Zn813 O832 2.025 . S
Zn813 O834 2.024 . S
C814 O833 1.246 . S
C814 O834 1.249 . S
N815 C816 1.307 . S
N815 C817 1.333 . S
N815 Zn821 2.020 . S
C816 N815 1.307 . S
C816 C820 1.370 . S
C816 H827 0.948 . S
C817 N815 1.333 . S
C817 C818 1.379 . S
C817 H825 0.952 . S
C818 C817 1.379 . S
C818 C819 1.390 . S
C818 H838 0.949 . S
C819 C818 1.390 . S
C819 C820 1.357 . S
C820 C816 1.370 . S
C820 C819 1.357 . S
C820 H839 0.950 . S
Zn821 N815 2.020 . S
Zn821 O824 2.025 . S
Zn821 O829 2.024 . S
Zn821 O831 2.039 . S
Zn821 O833 2.034 . S
O822 C806 1.251 . S
O822 Zn813 2.039 . S
C823 O828 1.246 . S
C823 O829 1.249 . S
O824 C806 1.254 . S
O824 Zn821 2.025 . S
H825 C817 0.952 . S
H826 C808 0.952 . S
H827 C816 0.948 . S
O828 Zn813 2.034 . S
O828 C823 1.246 . S
O829 Zn821 2.024 . S
O829 C823 1.249 . S
H830 C812 0.948 . S
O831 Zn821 2.039 . S
O831 C835 1.251 . S
O832 Zn813 2.025 . S
O832 C835 1.254 . S
O833 C814 1.246 . S
O833 Zn821 2.034 . S
O834 Zn813 2.024 . S
O834 C814 1.249 . S
C835 O831 1.251 . S
C835 O832 1.254 . S
H836 C809 0.949 . S
H837 C811 0.950 . S
H838 C818 0.949 . S
H839 C820 0.950 . S
C840 O856 1.251 . S
C840 O858 1.254 . S
N841 C842 1.333 . S
N841 C846 1.307 . S
N841 Zn847 2.020 . S
C842 N841 1.333 . S
C842 C843 1.379 . S
C842 H860 0.952 . S
C843 C842 1.379 . S
C843 C844 1.390 . S
C843 H870 0.949 . S
C844 C843 1.390 . S
C844 C845 1.357 . S
C845 C844 1.357 . S
C845 C846 1.370 . S
C845 H871 0.950 . S
C846 N841 1.307 . S
C846 C845 1.370 . S
C846 H864 0.948 . S
Zn847 N841 2.020 . S
Zn847 O856 2.039 . S
Zn847 O862 2.034 . S
Zn847 O866 2.025 . S
Zn847 O868 2.024 . S
C848 O867 1.246 . S
C848 O868 1.249 . S
N849 C850 1.307 1_556 S
N849 C851 1.333 1_556 S
N849 Zn855 2.020 . S
C850 N849 1.307 1_554 S
C850 C854 1.370 . S
C850 H861 0.948 . S
C851 N849 1.333 1_554 S
C851 C852 1.379 . S
C851 H859 0.955 . S
C852 C851 1.379 . S
C852 C853 1.390 . S
C852 H872 0.949 . S
C853 C852 1.390 . S
C853 C854 1.357 . S
C854 C850 1.370 . S
C854 C853 1.357 . S
C854 H873 0.950 . S
Zn855 N849 2.020 . S
Zn855 O858 2.025 . S
Zn855 O863 2.024 . S
Zn855 O865 2.039 . S
Zn855 O867 2.034 . S
O856 C840 1.251 . S
O856 Zn847 2.039 . S
C857 O862 1.246 . S
C857 O863 1.249 . S
O858 C840 1.254 . S
O858 Zn855 2.025 . S
H859 C851 0.955 . S
H860 C842 0.952 . S
H861 C850 0.948 . S
O862 Zn847 2.034 . S
O862 C857 1.246 . S
O863 Zn855 2.024 . S
O863 C857 1.249 . S
H864 C846 0.948 . S
O865 Zn855 2.039 . S
O865 C869 1.251 . S
O866 Zn847 2.025 . S
O866 C869 1.254 . S
O867 C848 1.246 . S
O867 Zn855 2.034 . S
O868 Zn847 2.024 . S
O868 C848 1.249 . S
C869 O865 1.251 . S
C869 O866 1.254 . S
H870 C843 0.949 . S
H871 C845 0.950 . S
H872 C852 0.949 . S
H873 C854 0.950 . S
C874 O890 1.251 . S
C874 O892 1.254 . S
N875 C876 1.333 . S
N875 C880 1.307 . S
N875 Zn881 2.020 . S
C876 N875 1.333 . S
C876 C877 1.379 . S
C876 H894 0.952 . S
C877 C876 1.379 . S
C877 C878 1.390 . S
C877 H904 0.949 . S
C878 C877 1.390 . S
C878 C879 1.357 . S
C879 C878 1.357 . S
C879 C880 1.370 . S
C879 H905 0.950 . S
C880 N875 1.307 . S
C880 C879 1.370 . S
C880 H898 0.948 . S
Zn881 N875 2.020 . S
Zn881 O890 2.039 . S
Zn881 O896 2.034 . S
Zn881 O900 2.025 . S
Zn881 O902 2.024 . S
C882 O901 1.246 . S
C882 O902 1.249 . S
N883 C884 1.307 . S
N883 C885 1.333 . S
N883 Zn889 2.020 . S
C884 N883 1.307 . S
C884 C888 1.370 . S
C884 H895 0.948 . S
C885 N883 1.333 . S
C885 C886 1.379 . S
C885 H893 0.952 . S
C886 C885 1.379 . S
C886 C887 1.390 . S
C886 H906 0.949 1_545 S
C887 C886 1.390 . S
C887 C888 1.357 . S
C888 C884 1.370 . S
C888 C887 1.357 . S
C888 H907 0.950 . S
Zn889 N883 2.020 . S
Zn889 O892 2.025 . S
Zn889 O897 2.024 . S
Zn889 O899 2.039 . S
Zn889 O901 2.034 . S
O890 C874 1.251 . S
O890 Zn881 2.039 . S
C891 O896 1.246 . S
C891 O897 1.249 . S
O892 C874 1.254 . S
O892 Zn889 2.025 . S
H893 C885 0.952 . S
H894 C876 0.952 . S
H895 C884 0.948 . S
O896 Zn881 2.034 . S
O896 C891 1.246 . S
O897 Zn889 2.024 . S
O897 C891 1.249 . S
H898 C880 0.948 . S
O899 Zn889 2.039 . S
O899 C903 1.251 . S
O900 Zn881 2.025 . S
O900 C903 1.254 . S
O901 C882 1.246 . S
O901 Zn889 2.034 . S
O902 Zn881 2.024 . S
O902 C882 1.249 . S
C903 O899 1.251 . S
C903 O900 1.254 . S
H904 C877 0.949 . S
H905 C879 0.950 . S
H906 C886 0.949 1_565 S
H907 C888 0.950 . S
H908 C916 0.950 . S
H909 C921 0.950 . S
H910 C918 0.950 . S
H911 C920 0.950 . S
H912 C922 0.950 . S
H913 C924 0.950 . S
H914 C926 0.950 . S
H915 C927 0.950 . S
C916 H908 0.950 . S
C916 C917 1.386 . S
C916 C918 1.391 . S
C917 C916 1.386 . S
C917 C921 1.393 . S
C918 H910 0.950 . S
C918 C916 1.391 . S
C918 C919 1.400 . S
C919 C918 1.400 . S
C919 C920 1.398 . S
C919 C925 1.491 . S
C920 H911 0.950 . S
C920 C919 1.398 . S
C920 C921 1.391 . S
C921 H909 0.950 . S
C921 C917 1.393 . S
C921 C920 1.391 . S
C922 H912 0.950 . S
C922 C923 1.386 . S
C922 C924 1.391 . S
C923 C922 1.386 . S
C923 C927 1.393 . S
C924 H913 0.950 . S
C924 C922 1.391 . S
C924 C925 1.400 . S
C925 C919 1.491 . S
C925 C924 1.400 . S
C925 C926 1.398 . S
C926 H914 0.950 . S
C926 C925 1.398 . S
C926 C927 1.391 . S
C927 H915 0.950 . S
C927 C923 1.393 . S
C927 C926 1.391 . S
H928 C936 0.950 1_455 S
H929 C941 0.950 . S
H930 C938 0.945 1_455 S
H931 C940 0.950 . S
H932 C942 0.950 . S
H933 C944 0.950 . S
H934 C946 0.950 . S
H935 C947 0.950 . S
C936 H928 0.950 1_655 S
C936 C937 1.386 . S
C936 C938 1.391 . S
C937 C936 1.386 . S
C937 C941 1.393 . S
C938 H930 0.945 1_655 S
C938 C936 1.391 . S
C938 C939 1.400 . S
C939 C938 1.400 . S
C939 C940 1.398 . S
C939 C945 1.491 . S
C940 H931 0.950 . S
C940 C939 1.398 . S
C940 C941 1.391 . S
C941 H929 0.950 . S
C941 C937 1.393 . S
C941 C940 1.391 . S
C942 H932 0.950 . S
C942 C943 1.386 . S
C942 C944 1.391 . S
C943 C942 1.386 . S
C943 C947 1.393 . S
C944 H933 0.950 . S
C944 C942 1.391 . S
C944 C945 1.400 . S
C945 C939 1.491 . S
C945 C944 1.400 . S
C945 C946 1.398 . S
C946 H934 0.950 . S
C946 C945 1.398 . S
C946 C947 1.391 . S
C947 H935 0.950 . S
C947 C943 1.393 . S
C947 C946 1.391 . S
H948 C956 0.950 . S
H949 C961 0.950 . S
H950 C958 0.950 . S
H951 C960 0.950 . S
H952 C962 0.950 . S
H953 C964 0.950 . S
H954 C966 0.950 . S
H955 C967 0.950 . S
C956 H948 0.950 . S
C956 C957 1.386 . S
C956 C958 1.391 . S
C957 C956 1.386 . S
C957 C961 1.393 . S
C958 H950 0.950 . S
C958 C956 1.391 . S
C958 C959 1.400 . S
C959 C958 1.400 . S
C959 C960 1.398 . S
C959 C965 1.491 . S
C960 H951 0.950 . S
C960 C959 1.398 . S
C960 C961 1.391 . S
C961 H949 0.950 . S
C961 C957 1.393 . S
C961 C960 1.391 . S
C962 H952 0.950 . S
C962 C963 1.386 . S
C962 C964 1.391 . S
C963 C962 1.386 . S
C963 C967 1.393 . S
C964 H953 0.950 . S
C964 C962 1.391 . S
C964 C965 1.400 . S
C965 C959 1.491 . S
C965 C964 1.400 . S
C965 C966 1.398 . S
C966 H954 0.950 . S
C966 C965 1.398 . S
C966 C967 1.391 . S
C967 H955 0.950 . S
C967 C963 1.393 . S
C967 C966 1.391 . S
H968 C976 0.950 . S
H969 C981 0.950 . S
H970 C978 0.951 . S
H971 C980 0.950 . S
H972 C982 0.950 . S
H973 C984 0.950 . S
H974 C986 0.950 . S
H975 C987 0.950 . S
C976 H968 0.950 . S
C976 C977 1.386 1_455 S
C976 C978 1.392 . S
C977 C976 1.386 1_655 S
C977 C981 1.393 . S
C978 H970 0.951 . S
C978 C976 1.392 . S
C978 C979 1.398 1_455 S
C979 C978 1.398 1_655 S
C979 C980 1.398 . S
C979 C985 1.491 . S
C980 H971 0.950 . S
C980 C979 1.398 . S
C980 C981 1.391 . S
C981 H969 0.950 . S
C981 C977 1.393 . S
C981 C980 1.391 . S
C982 H972 0.950 . S
C982 C983 1.386 . S
C982 C984 1.391 . S
C983 C982 1.386 . S
C983 C987 1.393 . S
C984 H973 0.950 . S
C984 C982 1.391 . S
C984 C985 1.400 . S
C985 C979 1.491 . S
C985 C984 1.400 . S
C985 C986 1.398 . S
C986 H974 0.950 . S
C986 C985 1.398 . S
C986 C987 1.391 . S
C987 H975 0.950 . S
C987 C983 1.393 . S
C987 C986 1.391 . S
H988 C996 0.950 1_565 S
H989 C1001 0.950 . S
H990 C998 0.950 1_565 S
H991 C1000 0.950 . S
H992 C1002 0.950 1_556 S
H993 C1004 0.950 . S
H994 C1006 0.950 1_565 S
H995 C1007 0.950 1_565 S
C996 H988 0.950 1_545 S
C996 C997 1.386 . S
C996 C998 1.391 . S
C997 C996 1.386 . S
C997 C1001 1.393 . S
C998 H990 0.950 1_545 S
C998 C996 1.391 . S
C998 C999 1.400 . S
C999 C998 1.400 . S
C999 C1000 1.398 . S
C999 C1005 1.491 . S
C1000 H991 0.950 . S
C1000 C999 1.398 . S
C1000 C1001 1.391 . S
C1001 H989 0.950 . S
C1001 C997 1.393 . S
C1001 C1000 1.391 . S
C1002 H992 0.950 1_554 S
C1002 C1003 1.386 1_554 S
C1002 C1004 1.391 . S
C1003 C1002 1.386 1_556 S
C1003 C1007 1.393 1_556 S
C1004 H993 0.950 . S
C1004 C1002 1.391 . S
C1004 C1005 1.400 . S
C1005 C999 1.491 . S
C1005 C1004 1.400 . S
C1005 C1006 1.398 . S
C1006 H994 0.950 1_545 S
C1006 C1005 1.398 . S
C1006 C1007 1.391 . S
C1007 H995 0.950 1_545 S
C1007 C1003 1.393 1_554 S
C1007 C1006 1.391 . S
H1008 C1016 0.950 . S
H1009 C1021 0.950 . S
H1010 C1018 0.950 . S
H1011 C1020 0.950 . S
H1012 C1022 0.950 . S
H1013 C1024 0.950 . S
H1014 C1026 0.950 . S
H1015 C1027 0.950 . S
C1016 H1008 0.950 . S
C1016 C1017 1.386 . S
C1016 C1018 1.391 . S
C1017 C1016 1.386 . S
C1017 C1021 1.393 . S
C1018 H1010 0.950 . S
C1018 C1016 1.391 . S
C1018 C1019 1.400 . S
C1019 C1018 1.400 . S
C1019 C1020 1.398 . S
C1019 C1025 1.491 . S
C1020 H1011 0.950 . S
C1020 C1019 1.398 . S
C1020 C1021 1.391 . S
C1021 H1009 0.950 . S
C1021 C1017 1.393 . S
C1021 C1020 1.391 . S
C1022 H1012 0.950 . S
C1022 C1023 1.386 . S
C1022 C1024 1.391 . S
C1023 C1022 1.386 . S
C1023 C1027 1.393 . S
C1024 H1013 0.950 . S
C1024 C1022 1.391 . S
C1024 C1025 1.400 . S
C1025 C1019 1.491 . S
C1025 C1024 1.400 . S
C1025 C1026 1.398 . S
C1026 H1014 0.950 . S
C1026 C1025 1.398 . S
C1026 C1027 1.391 . S
C1027 H1015 0.950 . S
C1027 C1023 1.393 . S
C1027 C1026 1.391 . S
H1028 C1036 0.950 . S
H1029 C1041 0.950 . S
H1030 C1038 0.950 . S
H1031 C1040 0.950 . S
H1032 C1042 0.950 . S
H1033 C1044 0.950 . S
H1034 C1046 0.950 . S
H1035 C1047 0.950 . S
C1036 H1028 0.950 . S
C1036 C1037 1.349 1_545 S
C1036 C1038 1.391 . S
C1037 C1036 1.349 1_565 S
C1037 C1041 1.425 . S
C1038 H1030 0.950 . S
C1038 C1036 1.391 . S
C1038 C1039 1.400 . S
C1039 C1038 1.400 . S
C1039 C1040 1.398 1_545 S
C1039 C1045 1.491 . S
C1040 H1031 0.950 . S
C1040 C1039 1.398 1_565 S
C1040 C1041 1.391 . S
C1041 H1029 0.950 . S
C1041 C1037 1.425 . S
C1041 C1040 1.391 . S
C1042 H1032 0.950 . S
C1042 C1043 1.386 1_565 S
C1042 C1044 1.391 . S
C1043 C1042 1.386 1_545 S
C1043 C1047 1.393 . S
C1044 H1033 0.950 . S
C1044 C1042 1.391 . S
C1044 C1045 1.400 1_565 S
C1045 C1039 1.491 . S
C1045 C1044 1.400 1_545 S
C1045 C1046 1.398 . S
C1046 H1034 0.950 . S
C1046 C1045 1.398 . S
C1046 C1047 1.391 . S
C1047 H1035 0.950 . S
C1047 C1043 1.393 . S
C1047 C1046 1.391 . S
H1048 C1056 0.950 . S
H1049 C1061 0.950 . S
H1050 C1058 0.950 . S
H1051 C1060 0.950 . S
H1052 C1062 0.950 . S
H1053 C1064 0.950 . S
H1054 C1066 0.950 . S
H1055 C1067 0.950 . S
C1056 H1048 0.950 . S
C1056 C1057 1.386 . S
C1056 C1058 1.391 . S
C1057 C1056 1.386 . S
C1057 C1061 1.393 . S
C1058 H1050 0.950 . S
C1058 C1056 1.391 . S
C1058 C1059 1.400 . S
C1059 C1058 1.400 . S
C1059 C1060 1.398 . S
C1059 C1065 1.491 . S
C1060 H1051 0.950 . S
C1060 C1059 1.398 . S
C1060 C1061 1.391 . S
C1061 H1049 0.950 . S
C1061 C1057 1.393 . S
C1061 C1060 1.391 . S
C1062 H1052 0.950 . S
C1062 C1063 1.386 . S
C1062 C1064 1.391 . S
C1063 C1062 1.386 . S
C1063 C1067 1.393 . S
C1064 H1053 0.950 . S
C1064 C1062 1.391 . S
C1064 C1065 1.400 . S
C1065 C1059 1.491 . S
C1065 C1064 1.400 . S
C1065 C1066 1.398 . S
C1066 H1054 0.950 . S
C1066 C1065 1.398 . S
C1066 C1067 1.391 . S
C1067 H1055 0.950 . S
C1067 C1063 1.393 . S
C1067 C1066 1.391 . S
H1068 C1076 0.950 1_556 S
H1069 C1081 0.950 . S
H1070 C1078 0.950 1_556 S
H1071 C1080 0.950 . S
H1072 C1082 0.950 . S
H1073 C1084 0.950 . S
H1074 C1086 0.932 1_556 S
H1075 C1087 0.964 . S
C1076 H1068 0.950 1_554 S
C1076 C1077 1.386 . S
C1076 C1078 1.391 . S
C1077 C1076 1.386 . S
C1077 C1081 1.393 . S
C1078 H1070 0.950 1_554 S
C1078 C1076 1.391 . S
C1078 C1079 1.400 . S
C1079 C1078 1.400 . S
C1079 C1080 1.398 . S
C1079 C1085 1.491 . S
C1080 H1071 0.950 . S
C1080 C1079 1.398 . S
C1080 C1081 1.391 . S
C1081 H1069 0.950 . S
C1081 C1077 1.393 . S
C1081 C1080 1.391 . S
C1082 H1072 0.950 . S
C1082 C1083 1.386 . S
C1082 C1084 1.391 . S
C1083 C1082 1.386 . S
C1083 C1087 1.382 1_554 S
C1084 H1073 0.950 . S
C1084 C1082 1.391 . S
C1084 C1085 1.400 . S
C1085 C1079 1.491 . S
C1085 C1084 1.400 . S
C1085 C1086 1.420 . S
C1086 H1074 0.932 1_554 S
C1086 C1085 1.420 . S
C1086 C1087 1.385 1_554 S
C1087 H1075 0.964 . S
C1087 C1083 1.382 1_556 S
C1087 C1086 1.385 1_556 S
H1088 C1096 0.950 . S
H1089 C1101 0.950 . S
H1090 C1098 0.950 . S
H1091 C1100 0.950 . S
H1092 C1102 0.950 . S
H1093 C1104 0.950 . S
H1094 C1106 0.950 . S
H1095 C1107 0.950 . S
C1096 H1088 0.950 . S
C1096 C1097 1.386 . S
C1096 C1098 1.391 . S
C1097 C1096 1.386 . S
C1097 C1101 1.393 . S
C1098 H1090 0.950 . S
C1098 C1096 1.391 . S
C1098 C1099 1.400 . S
C1099 C1098 1.400 . S
C1099 C1100 1.398 . S
C1099 C1105 1.491 . S
C1100 H1091 0.950 . S
C1100 C1099 1.398 . S
C1100 C1101 1.391 . S
C1101 H1089 0.950 . S
C1101 C1097 1.393 . S
C1101 C1100 1.391 . S
C1102 H1092 0.950 . S
C1102 C1103 1.386 . S
C1102 C1104 1.391 . S
C1103 C1102 1.386 . S
C1103 C1107 1.393 . S
C1104 H1093 0.950 . S
C1104 C1102 1.391 . S
C1104 C1105 1.400 . S
C1105 C1099 1.491 . S
C1105 C1104 1.400 . S
C1105 C1106 1.398 . S
C1106 H1094 0.950 . S
C1106 C1105 1.398 . S
C1106 C1107 1.391 . S
C1107 H1095 0.950 . S
C1107 C1103 1.393 . S
C1107 C1106 1.391 . S
H1108 C1116 0.950 . S
H1109 C1121 0.950 . S
H1110 C1118 0.950 . S
H1111 C1120 0.950 . S
H1112 C1122 0.950 . S
H1113 C1124 0.950 . S
H1114 C1126 0.950 . S
H1115 C1127 0.950 . S
C1116 H1108 0.950 . S
C1116 C1117 1.386 . S
C1116 C1118 1.391 . S
C1117 C1116 1.386 . S
C1117 C1121 1.393 . S
C1118 H1110 0.950 . S
C1118 C1116 1.391 . S
C1118 C1119 1.400 . S
C1119 C1118 1.400 . S
C1119 C1120 1.398 . S
C1119 C1125 1.491 . S
C1120 H1111 0.950 . S
C1120 C1119 1.398 . S
C1120 C1121 1.391 . S
C1121 H1109 0.950 . S
C1121 C1117 1.393 . S
C1121 C1120 1.391 . S
C1122 H1112 0.950 . S
C1122 C1123 1.386 . S
C1122 C1124 1.391 . S
C1123 C1122 1.386 . S
C1123 C1127 1.393 . S
C1124 H1113 0.950 . S
C1124 C1122 1.391 . S
C1124 C1125 1.400 . S
C1125 C1119 1.491 . S
C1125 C1124 1.400 . S
C1125 C1126 1.398 . S
C1126 H1114 0.950 . S
C1126 C1125 1.398 . S
C1126 C1127 1.391 . S
C1127 H1115 0.950 . S
C1127 C1123 1.393 . S
C1127 C1126 1.391 . S
H1128 C1136 0.950 . S
H1129 C1141 0.950 . S
H1130 C1138 0.950 . S
H1131 C1140 0.950 . S
H1132 C1142 0.950 . S
H1133 C1144 0.950 . S
H1134 C1146 0.950 . S
H1135 C1147 0.950 . S
C1136 H1128 0.950 . S
C1136 C1137 1.386 . S
C1136 C1138 1.391 . S
C1137 C1136 1.386 . S
C1137 C1141 1.393 . S
C1138 H1130 0.950 . S
C1138 C1136 1.391 . S
C1138 C1139 1.400 . S
C1139 C1138 1.400 . S
C1139 C1140 1.398 . S
C1139 C1145 1.491 . S
C1140 H1131 0.950 . S
C1140 C1139 1.398 . S
C1140 C1141 1.391 . S
C1141 H1129 0.950 . S
C1141 C1137 1.393 . S
C1141 C1140 1.391 . S
C1142 H1132 0.950 . S
C1142 C1143 1.386 . S
C1142 C1144 1.391 . S
C1143 C1142 1.386 . S
C1143 C1147 1.393 . S
C1144 H1133 0.950 . S
C1144 C1142 1.391 . S
C1144 C1145 1.400 . S
C1145 C1139 1.491 . S
C1145 C1144 1.400 . S
C1145 C1146 1.398 . S
C1146 H1134 0.950 . S
C1146 C1145 1.398 . S
C1146 C1147 1.391 . S
C1147 H1135 0.950 . S
C1147 C1143 1.393 . S
C1147 C1146 1.391 . S
H1148 C1156 0.950 . S
H1149 C1161 0.950 . S
H1150 C1158 0.950 . S
H1151 C1160 0.950 . S
H1152 C1162 0.950 . S
H1153 C1164 0.950 . S
H1154 C1166 0.950 . S
H1155 C1167 0.950 . S
C1156 H1148 0.950 . S
C1156 C1157 1.386 . S
C1156 C1158 1.391 . S
C1157 C1156 1.386 . S
C1157 C1161 1.393 . S
C1158 H1150 0.950 . S
C1158 C1156 1.391 . S
C1158 C1159 1.400 . S
C1159 C1158 1.400 . S
C1159 C1160 1.398 . S
C1159 C1165 1.491 . S
C1160 H1151 0.950 . S
C1160 C1159 1.398 . S
C1160 C1161 1.391 . S
C1161 H1149 0.950 . S
C1161 C1157 1.393 . S
C1161 C1160 1.391 . S
C1162 H1152 0.950 . S
C1162 C1163 1.386 . S
C1162 C1164 1.391 . S
C1163 C1162 1.386 . S
C1163 C1167 1.393 . S
C1164 H1153 0.950 . S
C1164 C1162 1.391 . S
C1164 C1165 1.400 . S
C1165 C1159 1.491 . S
C1165 C1164 1.400 . S
C1165 C1166 1.398 . S
C1166 H1154 0.950 . S
C1166 C1165 1.398 . S
C1166 C1167 1.391 . S
C1167 H1155 0.950 . S
C1167 C1163 1.393 . S
C1167 C1166 1.391 . S
H1168 C1176 0.950 . S
H1169 C1181 0.950 . S
H1170 C1178 0.950 . S
H1171 C1180 0.950 . S
H1172 C1182 0.950 . S
H1173 C1184 0.950 . S
H1174 C1186 0.950 . S
H1175 C1187 0.950 . S
C1176 H1168 0.950 . S
C1176 C1177 1.386 . S
C1176 C1178 1.391 . S
C1177 C1176 1.386 . S
C1177 C1181 1.393 . S
C1178 H1170 0.950 . S
C1178 C1176 1.391 . S
C1178 C1179 1.400 . S
C1179 C1178 1.400 . S
C1179 C1180 1.398 . S
C1179 C1185 1.491 . S
C1180 H1171 0.950 . S
C1180 C1179 1.398 . S
C1180 C1181 1.391 . S
C1181 H1169 0.950 . S
C1181 C1177 1.393 . S
C1181 C1180 1.391 . S
C1182 H1172 0.950 . S
C1182 C1183 1.386 . S
C1182 C1184 1.391 . S
C1183 C1182 1.386 . S
C1183 C1187 1.393 . S
C1184 H1173 0.950 . S
C1184 C1182 1.391 . S
C1184 C1185 1.400 . S
C1185 C1179 1.491 . S
C1185 C1184 1.400 . S
C1185 C1186 1.398 . S
C1186 H1174 0.950 . S
C1186 C1185 1.398 . S
C1186 C1187 1.391 . S
C1187 H1175 0.950 . S
C1187 C1183 1.393 . S
C1187 C1186 1.391 . S
H1188 C1196 0.950 . S
H1189 C1201 0.950 . S
H1190 C1198 0.950 . S
H1191 C1200 0.950 . S
H1192 C1202 0.950 . S
H1193 C1204 0.950 . S
H1194 C1206 0.950 . S
H1195 C1207 0.950 . S
C1196 H1188 0.950 . S
C1196 C1197 1.386 . S
C1196 C1198 1.391 . S
C1197 C1196 1.386 . S
C1197 C1201 1.393 . S
C1198 H1190 0.950 . S
C1198 C1196 1.391 . S
C1198 C1199 1.400 . S
C1199 C1198 1.400 . S
C1199 C1200 1.398 . S
C1199 C1205 1.491 . S
C1200 H1191 0.950 . S
C1200 C1199 1.398 . S
C1200 C1201 1.391 . S
C1201 H1189 0.950 . S
C1201 C1197 1.393 . S
C1201 C1200 1.391 . S
C1202 H1192 0.950 . S
C1202 C1203 1.386 . S
C1202 C1204 1.391 . S
C1203 C1202 1.386 . S
C1203 C1207 1.393 . S
C1204 H1193 0.950 . S
C1204 C1202 1.391 . S
C1204 C1205 1.400 . S
C1205 C1199 1.491 . S
C1205 C1204 1.400 . S
C1205 C1206 1.398 . S
C1206 H1194 0.950 . S
C1206 C1205 1.398 . S
C1206 C1207 1.391 . S
C1207 H1195 0.950 . S
C1207 C1203 1.393 . S
C1207 C1206 1.391 . S
H1208 C1216 0.950 . S
H1209 C1221 0.950 . S
H1210 C1218 0.950 . S
H1211 C1220 0.950 . S
H1212 C1222 0.950 . S
H1213 C1224 0.950 . S
H1214 C1226 0.950 . S
H1215 C1227 0.950 . S
C1216 H1208 0.950 . S
C1216 C1217 1.386 . S
C1216 C1218 1.391 . S
C1217 C1216 1.386 . S
C1217 C1221 1.393 . S
C1218 H1210 0.950 . S
C1218 C1216 1.391 . S
C1218 C1219 1.400 . S
C1219 C1218 1.400 . S
C1219 C1220 1.398 . S
C1219 C1225 1.491 . S
C1220 H1211 0.950 . S
C1220 C1219 1.398 . S
C1220 C1221 1.391 . S
C1221 H1209 0.950 . S
C1221 C1217 1.393 . S
C1221 C1220 1.391 . S
C1222 H1212 0.950 . S
C1222 C1223 1.386 . S
C1222 C1224 1.391 . S
C1223 C1222 1.386 . S
C1223 C1227 1.393 . S
C1224 H1213 0.950 . S
C1224 C1222 1.391 . S
C1224 C1225 1.400 . S
C1225 C1219 1.491 . S
C1225 C1224 1.400 . S
C1225 C1226 1.398 . S
C1226 H1214 0.950 . S
C1226 C1225 1.398 . S
C1226 C1227 1.391 . S
C1227 H1215 0.950 . S
C1227 C1223 1.393 . S
C1227 C1226 1.391 . S
H1228 C1236 0.950 . S
H1229 C1241 0.950 . S
H1230 C1238 0.950 . S
H1231 C1240 0.950 . S
H1232 C1242 0.950 . S
H1233 C1244 0.950 . S
H1234 C1246 0.950 . S
H1235 C1247 0.950 . S
C1236 H1228 0.950 . S
C1236 C1237 1.386 . S
C1236 C1238 1.391 . S
C1237 C1236 1.386 . S
C1237 C1241 1.393 . S
C1238 H1230 0.950 . S
C1238 C1236 1.391 . S
C1238 C1239 1.400 . S
C1239 C1238 1.400 . S
C1239 C1240 1.398 . S
C1239 C1245 1.491 . S
C1240 H1231 0.950 . S
C1240 C1239 1.398 . S
C1240 C1241 1.391 . S
C1241 H1229 0.950 . S
C1241 C1237 1.393 . S
C1241 C1240 1.391 . S
C1242 H1232 0.950 . S
C1242 C1243 1.386 . S
C1242 C1244 1.391 . S
C1243 C1242 1.386 . S
C1243 C1247 1.393 . S
C1244 H1233 0.950 . S
C1244 C1242 1.391 . S
C1244 C1245 1.400 . S
C1245 C1239 1.491 . S
C1245 C1244 1.400 . S
C1245 C1246 1.398 . S
C1246 H1234 0.950 . S
C1246 C1245 1.398 . S
C1246 C1247 1.391 . S
C1247 H1235 0.950 . S
C1247 C1243 1.393 . S
C1247 C1246 1.391 . S
H1248 C1256 0.950 . S
H1249 C1261 0.950 . S
H1250 C1258 0.950 . S
H1251 C1260 0.950 . S
H1252 C1262 0.950 . S
H1253 C1264 0.950 . S
H1254 C1266 0.950 . S
H1255 C1267 0.950 . S
C1256 H1248 0.950 . S
C1256 C1257 1.386 . S
C1256 C1258 1.391 . S
C1257 C1256 1.386 . S
C1257 C1261 1.393 . S
C1258 H1250 0.950 . S
C1258 C1256 1.391 . S
C1258 C1259 1.400 . S
C1259 C1258 1.400 . S
C1259 C1260 1.398 . S
C1259 C1265 1.491 . S
C1260 H1251 0.950 . S
C1260 C1259 1.398 . S
C1260 C1261 1.391 . S
C1261 H1249 0.950 . S
C1261 C1257 1.393 . S
C1261 C1260 1.391 . S
C1262 H1252 0.950 . S
C1262 C1263 1.386 . S
C1262 C1264 1.391 . S
C1263 C1262 1.386 . S
C1263 C1267 1.393 . S
C1264 H1253 0.950 . S
C1264 C1262 1.391 . S
C1264 C1265 1.400 . S
C1265 C1259 1.491 . S
C1265 C1264 1.400 . S
C1265 C1266 1.398 . S
C1266 H1254 0.950 . S
C1266 C1265 1.398 . S
C1266 C1267 1.391 . S
C1267 H1255 0.950 . S
C1267 C1263 1.393 . S
C1267 C1266 1.391 . S
H1268 C1276 0.950 . S
H1269 C1281 0.950 . S
H1270 C1278 0.950 . S
H1271 C1280 0.950 . S
H1272 C1282 0.950 . S
H1273 C1284 0.950 . S
H1274 C1286 0.950 . S
H1275 C1287 0.950 . S
C1276 H1268 0.950 . S
C1276 C1277 1.386 . S
C1276 C1278 1.391 . S
C1277 C1276 1.386 . S
C1277 C1281 1.393 . S
C1278 H1270 0.950 . S
C1278 C1276 1.391 . S
C1278 C1279 1.400 . S
C1279 C1278 1.400 . S
C1279 C1280 1.398 . S
C1279 C1285 1.491 . S
C1280 H1271 0.950 . S
C1280 C1279 1.398 . S
C1280 C1281 1.391 . S
C1281 H1269 0.950 . S
C1281 C1277 1.393 . S
C1281 C1280 1.391 . S
C1282 H1272 0.950 . S
C1282 C1283 1.386 . S
C1282 C1284 1.391 . S
C1283 C1282 1.386 . S
C1283 C1287 1.393 . S
C1284 H1273 0.950 . S
C1284 C1282 1.391 . S
C1284 C1285 1.400 . S
C1285 C1279 1.491 . S
C1285 C1284 1.400 . S
C1285 C1286 1.398 . S
C1286 H1274 0.950 . S
C1286 C1285 1.398 . S
C1286 C1287 1.391 . S
C1287 H1275 0.950 . S
C1287 C1283 1.393 . S
C1287 C1286 1.391 . S
H1288 C1296 0.950 . S
H1289 C1301 0.950 1_565 S
H1290 C1298 0.950 . S
H1291 C1300 0.950 1_565 S
H1292 C1302 0.950 1_565 S
H1293 C1304 0.950 1_565 S
H1294 C1306 0.950 . S
H1295 C1307 0.950 . S
C1296 H1288 0.950 . S
C1296 C1297 1.386 . S
C1296 C1298 1.391 . S
C1297 C1296 1.386 . S
C1297 C1301 1.393 . S
C1298 H1290 0.950 . S
C1298 C1296 1.391 . S
C1298 C1299 1.400 . S
C1299 C1298 1.400 . S
C1299 C1300 1.398 . S
C1299 C1305 1.491 . S
C1300 H1291 0.950 1_545 S
C1300 C1299 1.398 . S
C1300 C1301 1.391 . S
C1301 H1289 0.950 1_545 S
C1301 C1297 1.393 . S
C1301 C1300 1.391 . S
C1302 H1292 0.950 1_545 S
C1302 C1303 1.386 . S
C1302 C1304 1.391 . S
C1303 C1302 1.386 . S
C1303 C1307 1.393 . S
C1304 H1293 0.950 1_545 S
C1304 C1302 1.391 . S
C1304 C1305 1.400 . S
C1305 C1299 1.491 . S
C1305 C1304 1.400 . S
C1305 C1306 1.398 . S
C1306 H1294 0.950 . S
C1306 C1305 1.398 . S
C1306 C1307 1.391 . S
C1307 H1295 0.950 . S
C1307 C1303 1.393 . S
C1307 C1306 1.391 . S
H1308 C1316 0.950 . S
H1309 C1321 0.950 . S
H1310 C1318 0.950 . S
H1311 C1320 0.950 . S
H1312 C1322 0.950 . S
H1313 C1324 0.950 . S
H1314 C1326 0.950 . S
H1315 C1327 0.950 . S
C1316 H1308 0.950 . S
C1316 C1317 1.386 . S
C1316 C1318 1.391 . S
C1317 C1316 1.386 . S
C1317 C1321 1.393 . S
C1318 H1310 0.950 . S
C1318 C1316 1.391 . S
C1318 C1319 1.400 . S
C1319 C1318 1.400 . S
C1319 C1320 1.398 . S
C1319 C1325 1.491 . S
C1320 H1311 0.950 . S
C1320 C1319 1.398 . S
C1320 C1321 1.391 . S
C1321 H1309 0.950 . S
C1321 C1317 1.393 . S
C1321 C1320 1.391 . S
C1322 H1312 0.950 . S
C1322 C1323 1.386 . S
C1322 C1324 1.391 . S
C1323 C1322 1.386 . S
C1323 C1327 1.393 . S
C1324 H1313 0.950 . S
C1324 C1322 1.391 . S
C1324 C1325 1.400 . S
C1325 C1319 1.491 . S
C1325 C1324 1.400 . S
C1325 C1326 1.398 . S
C1326 H1314 0.950 . S
C1326 C1325 1.398 . S
C1326 C1327 1.391 . S
C1327 H1315 0.950 . S
C1327 C1323 1.393 . S
C1327 C1326 1.391 . S
H1328 C1336 0.950 . S
H1329 C1341 0.950 1_554 S
H1330 C1338 0.950 . S
H1331 C1340 0.950 . S
H1332 C1342 0.950 . S
H1333 C1344 0.950 . S
H1334 C1346 0.950 . S
H1335 C1347 0.950 . S
C1336 H1328 0.950 . S
C1336 C1337 1.386 . S
C1336 C1338 1.391 . S
C1337 C1336 1.386 . S
C1337 C1341 1.393 . S
C1338 H1330 0.950 . S
C1338 C1336 1.391 . S
C1338 C1339 1.400 . S
C1339 C1338 1.400 . S
C1339 C1340 1.398 . S
C1339 C1345 1.491 . S
C1340 H1331 0.950 . S
C1340 C1339 1.398 . S
C1340 C1341 1.391 . S
C1341 H1329 0.950 1_556 S
C1341 C1337 1.393 . S
C1341 C1340 1.391 . S
C1342 H1332 0.950 . S
C1342 C1343 1.386 . S
C1342 C1344 1.391 . S
C1343 C1342 1.386 . S
C1343 C1347 1.393 . S
C1344 H1333 0.950 . S
C1344 C1342 1.391 . S
C1344 C1345 1.400 . S
C1345 C1339 1.491 . S
C1345 C1344 1.400 . S
C1345 C1346 1.398 . S
C1346 H1334 0.950 . S
C1346 C1345 1.398 . S
C1346 C1347 1.391 . S
C1347 H1335 0.950 . S
C1347 C1343 1.393 . S
C1347 C1346 1.391 . S
H1348 C1356 0.950 . S
H1349 C1361 0.950 . S
H1350 C1358 0.950 . S
H1351 C1360 0.950 . S
H1352 C1362 0.950 . S
H1353 C1364 0.950 . S
H1354 C1366 0.950 . S
H1355 C1367 0.950 . S
C1356 H1348 0.950 . S
C1356 C1357 1.386 . S
C1356 C1358 1.391 . S
C1357 C1356 1.386 . S
C1357 C1361 1.393 . S
C1358 H1350 0.950 . S
C1358 C1356 1.391 . S
C1358 C1359 1.400 . S
C1359 C1358 1.400 . S
C1359 C1360 1.398 . S
C1359 C1365 1.491 . S
C1360 H1351 0.950 . S
C1360 C1359 1.398 . S
C1360 C1361 1.391 . S
C1361 H1349 0.950 . S
C1361 C1357 1.393 . S
C1361 C1360 1.391 . S
C1362 H1352 0.950 . S
C1362 C1363 1.386 . S
C1362 C1364 1.391 . S
C1363 C1362 1.386 . S
C1363 C1367 1.393 . S
C1364 H1353 0.950 . S
C1364 C1362 1.391 . S
C1364 C1365 1.400 . S
C1365 C1359 1.491 . S
C1365 C1364 1.400 . S
C1365 C1366 1.398 . S
C1366 H1354 0.950 . S
C1366 C1365 1.398 . S
C1366 C1367 1.391 . S
C1367 H1355 0.950 . S
C1367 C1363 1.393 . S
C1367 C1366 1.391 . S
H1368 C1376 0.950 . S
H1369 C1381 0.950 . S
H1370 C1378 0.950 . S
H1371 C1380 0.950 . S
H1372 C1382 0.950 . S
H1373 C1384 0.950 . S
H1374 C1386 0.950 . S
H1375 C1387 0.950 . S
C1376 H1368 0.950 . S
C1376 C1377 1.386 . S
C1376 C1378 1.391 . S
C1377 C1376 1.386 . S
C1377 C1381 1.393 . S
C1378 H1370 0.950 . S
C1378 C1376 1.391 . S
C1378 C1379 1.400 . S
C1379 C1378 1.400 . S
C1379 C1380 1.398 . S
C1379 C1385 1.491 . S
C1380 H1371 0.950 . S
C1380 C1379 1.398 . S
C1380 C1381 1.391 . S
C1381 H1369 0.950 . S
C1381 C1377 1.393 . S
C1381 C1380 1.391 . S
C1382 H1372 0.950 . S
C1382 C1383 1.386 . S
C1382 C1384 1.391 1_455 S
C1383 C1382 1.386 . S
C1383 C1387 1.393 1_455 S
C1384 H1373 0.950 . S
C1384 C1382 1.391 1_655 S
C1384 C1385 1.400 . S
C1385 C1379 1.491 . S
C1385 C1384 1.400 . S
C1385 C1386 1.398 . S
C1386 H1374 0.950 . S
C1386 C1385 1.398 . S
C1386 C1387 1.391 . S
C1387 H1375 0.950 . S
C1387 C1383 1.393 1_655 S
C1387 C1386 1.391 . S
H1388 C1396 0.950 . S
H1389 C1401 0.950 . S
H1390 C1398 0.950 . S
H1391 C1400 0.950 . S
H1392 C1402 0.950 . S
H1393 C1404 0.950 . S
H1394 C1406 0.950 . S
H1395 C1407 0.950 . S
C1396 H1388 0.950 . S
C1396 C1397 1.386 . S
C1396 C1398 1.391 . S
C1397 C1396 1.386 . S
C1397 C1401 1.393 . S
C1398 H1390 0.950 . S
C1398 C1396 1.391 . S
C1398 C1399 1.400 . S
C1399 C1398 1.400 . S
C1399 C1400 1.398 . S
C1399 C1405 1.491 . S
C1400 H1391 0.950 . S
C1400 C1399 1.398 . S
C1400 C1401 1.391 . S
C1401 H1389 0.950 . S
C1401 C1397 1.393 . S
C1401 C1400 1.391 . S
C1402 H1392 0.950 . S
C1402 C1403 1.386 . S
C1402 C1404 1.391 . S
C1403 C1402 1.386 . S
C1403 C1407 1.393 . S
C1404 H1393 0.950 . S
C1404 C1402 1.391 . S
C1404 C1405 1.400 . S
C1405 C1399 1.491 . S
C1405 C1404 1.400 . S
C1405 C1406 1.398 . S
C1406 H1394 0.950 . S
C1406 C1405 1.398 . S
C1406 C1407 1.391 . S
C1407 H1395 0.950 . S
C1407 C1403 1.393 . S
C1407 C1406 1.391 . S
H1408 C1416 0.950 . S
H1409 C1421 0.950 . S
H1410 C1418 0.950 . S
H1411 C1420 0.950 . S
H1412 C1422 0.950 . S
H1413 C1424 0.950 . S
H1414 C1426 0.950 . S
H1415 C1427 0.950 . S
C1416 H1408 0.950 . S
C1416 C1417 1.386 . S
C1416 C1418 1.391 . S
C1417 C1416 1.386 . S
C1417 C1421 1.393 . S
C1418 H1410 0.950 . S
C1418 C1416 1.391 . S
C1418 C1419 1.400 . S
C1419 C1418 1.400 . S
C1419 C1420 1.398 . S
C1419 C1425 1.491 . S
C1420 H1411 0.950 . S
C1420 C1419 1.398 . S
C1420 C1421 1.391 . S
C1421 H1409 0.950 . S
C1421 C1417 1.393 . S
C1421 C1420 1.391 . S
C1422 H1412 0.950 . S
C1422 C1423 1.386 . S
C1422 C1424 1.391 . S
C1423 C1422 1.386 . S
C1423 C1427 1.393 1_455 S
C1424 H1413 0.950 . S
C1424 C1422 1.391 . S
C1424 C1425 1.400 1_455 S
C1425 C1419 1.491 . S
C1425 C1424 1.400 1_655 S
C1425 C1426 1.398 . S
C1426 H1414 0.950 . S
C1426 C1425 1.398 . S
C1426 C1427 1.391 . S
C1427 H1415 0.950 . S
C1427 C1423 1.393 1_655 S
C1427 C1426 1.391 . S
H1428 C1436 0.950 . S
H1429 C1441 0.922 1_655 S
H1430 C1438 0.950 . S
H1431 C1440 0.955 . S
H1432 C1442 0.950 . S
H1433 C1444 0.950 . S
H1434 C1446 0.950 . S
H1435 C1447 0.950 . S
C1436 H1428 0.950 . S
C1436 C1437 1.386 . S
C1436 C1438 1.391 . S
C1437 C1436 1.386 . S
C1437 C1441 1.421 . S
C1438 H1430 0.950 . S
C1438 C1436 1.391 . S
C1438 C1439 1.400 . S
C1439 C1438 1.400 . S
C1439 C1440 1.393 1_455 S
C1439 C1445 1.491 . S
C1440 H1431 0.955 . S
C1440 C1439 1.393 1_655 S
C1440 C1441 1.393 1_655 S
C1441 H1429 0.922 1_455 S
C1441 C1437 1.421 . S
C1441 C1440 1.393 1_455 S
C1442 H1432 0.950 . S
C1442 C1443 1.386 1_655 S
C1442 C1444 1.391 . S
C1443 C1442 1.386 1_455 S
C1443 C1447 1.393 . S
C1444 H1433 0.950 . S
C1444 C1442 1.391 . S
C1444 C1445 1.400 1_655 S
C1445 C1439 1.491 . S
C1445 C1444 1.400 1_455 S
C1445 C1446 1.398 . S
C1446 H1434 0.950 . S
C1446 C1445 1.398 . S
C1446 C1447 1.391 . S
C1447 H1435 0.950 . S
C1447 C1443 1.393 . S
C1447 C1446 1.391 . S
H1448 C1456 0.950 . S
H1449 C1461 0.950 . S
H1450 C1458 0.950 . S
H1451 C1460 0.950 . S
H1452 C1462 0.950 . S
H1453 C1464 0.950 . S
H1454 C1466 0.950 . S
H1455 C1467 0.950 . S
C1456 H1448 0.950 . S
C1456 C1457 1.386 . S
C1456 C1458 1.391 . S
C1457 C1456 1.386 . S
C1457 C1461 1.393 1_655 S
C1458 H1450 0.950 . S
C1458 C1456 1.391 . S
C1458 C1459 1.400 . S
C1459 C1458 1.400 . S
C1459 C1460 1.398 1_655 S
C1459 C1465 1.491 . S
C1460 H1451 0.950 . S
C1460 C1459 1.398 1_455 S
C1460 C1461 1.391 . S
C1461 H1449 0.950 . S
C1461 C1457 1.393 1_455 S
C1461 C1460 1.391 . S
C1462 H1452 0.950 . S
C1462 C1463 1.386 1_455 S
C1462 C1464 1.391 . S
C1463 C1462 1.386 1_655 S
C1463 C1467 1.393 . S
C1464 H1453 0.950 . S
C1464 C1462 1.391 . S
C1464 C1465 1.400 1_455 S
C1465 C1459 1.491 . S
C1465 C1464 1.400 1_655 S
C1465 C1466 1.398 . S
C1466 H1454 0.950 . S
C1466 C1465 1.398 . S
C1466 C1467 1.391 . S
C1467 H1455 0.950 . S
C1467 C1463 1.393 . S
C1467 C1466 1.391 . S
H1468 C1476 0.950 . S
H1469 C1481 0.950 . S
H1470 C1478 0.950 . S
H1471 C1480 0.950 . S
H1472 C1482 0.950 . S
H1473 C1484 0.950 . S
H1474 C1486 0.950 . S
H1475 C1487 0.950 . S
C1476 H1468 0.950 . S
C1476 C1477 1.386 . S
C1476 C1478 1.391 . S
C1477 C1476 1.386 . S
C1477 C1481 1.393 . S
C1478 H1470 0.950 . S
C1478 C1476 1.391 . S
C1478 C1479 1.400 . S
C1479 C1478 1.400 . S
C1479 C1480 1.398 . S
C1479 C1485 1.491 . S
C1480 H1471 0.950 . S
C1480 C1479 1.398 . S
C1480 C1481 1.391 . S
C1481 H1469 0.950 . S
C1481 C1477 1.393 . S
C1481 C1480 1.391 . S
C1482 H1472 0.950 . S
C1482 C1483 1.386 . S
C1482 C1484 1.391 . S
C1483 C1482 1.386 . S
C1483 C1487 1.393 . S
C1484 H1473 0.950 . S
C1484 C1482 1.391 . S
C1484 C1485 1.400 . S
C1485 C1479 1.491 . S
C1485 C1484 1.400 . S
C1485 C1486 1.398 . S
C1486 H1474 0.950 . S
C1486 C1485 1.398 . S
C1486 C1487 1.391 . S
C1487 H1475 0.950 . S
C1487 C1483 1.393 . S
C1487 C1486 1.391 . S
H1488 C1496 0.950 . S
H1489 C1501 0.950 . S
H1490 C1498 0.950 . S
H1491 C1500 0.950 . S
H1492 C1502 0.950 . S
H1493 C1504 0.950 . S
H1494 C1506 0.950 . S
H1495 C1507 0.950 . S
C1496 H1488 0.950 . S
C1496 C1497 1.386 . S
C1496 C1498 1.391 . S
C1497 C1496 1.386 . S
C1497 C1501 1.393 . S
C1498 H1490 0.950 . S
C1498 C1496 1.391 . S
C1498 C1499 1.400 . S
C1499 C1498 1.400 . S
C1499 C1500 1.398 . S
C1499 C1505 1.491 . S
C1500 H1491 0.950 . S
C1500 C1499 1.398 . S
C1500 C1501 1.391 . S
C1501 H1489 0.950 . S
C1501 C1497 1.393 . S
C1501 C1500 1.391 . S
C1502 H1492 0.950 . S
C1502 C1503 1.386 . S
C1502 C1504 1.391 . S
C1503 C1502 1.386 . S
C1503 C1507 1.393 . S
C1504 H1493 0.950 . S
C1504 C1502 1.391 . S
C1504 C1505 1.400 . S
C1505 C1499 1.491 . S
C1505 C1504 1.400 . S
C1505 C1506 1.398 . S
C1506 H1494 0.950 . S
C1506 C1505 1.398 . S
C1506 C1507 1.391 . S
C1507 H1495 0.950 . S
C1507 C1503 1.393 . S
C1507 C1506 1.391 . S
H1508 C1516 0.950 . S
H1509 C1521 0.950 1_545 S
H1510 C1518 0.950 . S
H1511 C1520 0.950 . S
H1512 C1522 0.950 . S
H1513 C1524 0.950 . S
H1514 C1526 0.950 . S
H1515 C1527 0.950 . S
C1516 H1508 0.950 . S
C1516 C1517 1.386 . S
C1516 C1518 1.391 . S
C1517 C1516 1.386 . S
C1517 C1521 1.393 . S
C1518 H1510 0.950 . S
C1518 C1516 1.391 . S
C1518 C1519 1.400 . S
C1519 C1518 1.400 . S
C1519 C1520 1.398 . S
C1519 C1525 1.491 . S
C1520 H1511 0.950 . S
C1520 C1519 1.398 . S
C1520 C1521 1.391 . S
C1521 H1509 0.950 1_565 S
C1521 C1517 1.393 . S
C1521 C1520 1.391 . S
C1522 H1512 0.950 . S
C1522 C1523 1.386 . S
C1522 C1524 1.391 . S
C1523 C1522 1.386 . S
C1523 C1527 1.393 . S
C1524 H1513 0.950 . S
C1524 C1522 1.391 . S
C1524 C1525 1.400 . S
C1525 C1519 1.491 . S
C1525 C1524 1.400 . S
C1525 C1526 1.398 . S
C1526 H1514 0.950 . S
C1526 C1525 1.398 . S
C1526 C1527 1.391 . S
C1527 H1515 0.950 . S
C1527 C1523 1.393 . S
C1527 C1526 1.391 . S
H1528 C1536 0.950 . S
H1529 C1541 0.950 . S
H1530 C1538 0.950 . S
H1531 C1540 0.950 . S
H1532 C1542 0.950 . S
H1533 C1544 0.950 . S
H1534 C1546 0.950 . S
H1535 C1547 0.950 . S
C1536 H1528 0.950 . S
C1536 C1537 1.386 . S
C1536 C1538 1.391 . S
C1537 C1536 1.386 . S
C1537 C1541 1.393 . S
C1538 H1530 0.950 . S
C1538 C1536 1.391 . S
C1538 C1539 1.400 . S
C1539 C1538 1.400 . S
C1539 C1540 1.398 . S
C1539 C1545 1.491 . S
C1540 H1531 0.950 . S
C1540 C1539 1.398 . S
C1540 C1541 1.391 . S
C1541 H1529 0.950 . S
C1541 C1537 1.393 . S
C1541 C1540 1.391 . S
C1542 H1532 0.950 . S
C1542 C1543 1.386 . S
C1542 C1544 1.391 . S
C1543 C1542 1.386 . S
C1543 C1547 1.393 . S
C1544 H1533 0.950 . S
C1544 C1542 1.391 . S
C1544 C1545 1.400 . S
C1545 C1539 1.491 . S
C1545 C1544 1.400 . S
C1545 C1546 1.398 . S
C1546 H1534 0.950 . S
C1546 C1545 1.398 . S
C1546 C1547 1.391 . S
C1547 H1535 0.950 . S
C1547 C1543 1.393 . S
C1547 C1546 1.391 . S
H1548 C1556 0.950 . S
H1549 C1561 0.950 1_556 S
H1550 C1558 0.950 . S
H1551 C1560 0.950 1_556 S
H1552 C1562 0.950 . S
H1553 C1564 0.950 . S
H1554 C1566 0.950 . S
H1555 C1567 0.950 . S
C1556 H1548 0.950 . S
C1556 C1557 1.386 . S
C1556 C1558 1.391 . S
C1557 C1556 1.386 . S
C1557 C1561 1.393 . S
C1558 H1550 0.950 . S
C1558 C1556 1.391 . S
C1558 C1559 1.400 . S
C1559 C1558 1.400 . S
C1559 C1560 1.398 . S
C1559 C1565 1.491 . S
C1560 H1551 0.950 1_554 S
C1560 C1559 1.398 . S
C1560 C1561 1.391 . S
C1561 H1549 0.950 1_554 S
C1561 C1557 1.393 . S
C1561 C1560 1.391 . S
C1562 H1552 0.950 . S
C1562 C1563 1.386 . S
C1562 C1564 1.391 . S
C1563 C1562 1.386 . S
C1563 C1567 1.393 . S
C1564 H1553 0.950 . S
C1564 C1562 1.391 . S
C1564 C1565 1.400 . S
C1565 C1559 1.491 . S
C1565 C1564 1.400 . S
C1565 C1566 1.398 . S
C1566 H1554 0.950 . S
C1566 C1565 1.398 . S
C1566 C1567 1.391 . S
C1567 H1555 0.950 . S
C1567 C1563 1.393 . S
C1567 C1566 1.391 . S
H1568 C1576 0.950 . S
H1569 C1581 0.950 . S
H1570 C1578 0.950 . S
H1571 C1580 0.950 . S
H1572 C1582 0.950 . S
H1573 C1584 0.950 . S
H1574 C1586 0.950 . S
H1575 C1587 0.950 . S
C1576 H1568 0.950 . S
C1576 C1577 1.386 . S
C1576 C1578 1.391 . S
C1577 C1576 1.386 . S
C1577 C1581 1.393 . S
C1578 H1570 0.950 . S
C1578 C1576 1.391 . S
C1578 C1579 1.400 . S
C1579 C1578 1.400 . S
C1579 C1580 1.398 . S
C1579 C1585 1.491 . S
C1580 H1571 0.950 . S
C1580 C1579 1.398 . S
C1580 C1581 1.391 . S
C1581 H1569 0.950 . S
C1581 C1577 1.393 . S
C1581 C1580 1.391 . S
C1582 H1572 0.950 . S
C1582 C1583 1.386 . S
C1582 C1584 1.391 . S
C1583 C1582 1.386 . S
C1583 C1587 1.393 . S
C1584 H1573 0.950 . S
C1584 C1582 1.391 . S
C1584 C1585 1.400 . S
C1585 C1579 1.491 . S
C1585 C1584 1.400 . S
C1585 C1586 1.398 . S
C1586 H1574 0.950 . S
C1586 C1585 1.398 . S
C1586 C1587 1.391 . S
C1587 H1575 0.950 . S
C1587 C1583 1.393 . S
C1587 C1586 1.391 . S
H1588 C1596 0.950 . S
H1589 C1601 0.950 . S
H1590 C1598 0.950 . S
H1591 C1600 0.950 . S
H1592 C1602 0.950 . S
H1593 C1604 0.950 . S
H1594 C1606 0.950 . S
H1595 C1607 0.950 . S
C1596 H1588 0.950 . S
C1596 C1597 1.386 . S
C1596 C1598 1.391 . S
C1597 C1596 1.386 . S
C1597 C1601 1.393 . S
C1598 H1590 0.950 . S
C1598 C1596 1.391 . S
C1598 C1599 1.400 . S
C1599 C1598 1.400 . S
C1599 C1600 1.398 . S
C1599 C1605 1.491 . S
C1600 H1591 0.950 . S
C1600 C1599 1.398 . S
C1600 C1601 1.391 . S
C1601 H1589 0.950 . S
C1601 C1597 1.393 . S
C1601 C1600 1.391 . S
C1602 H1592 0.950 . S
C1602 C1603 1.386 . S
C1602 C1604 1.391 . S
C1603 C1602 1.386 . S
C1603 C1607 1.393 . S
C1604 H1593 0.950 . S
C1604 C1602 1.391 . S
C1604 C1605 1.400 . S
C1605 C1599 1.491 . S
C1605 C1604 1.400 . S
C1605 C1606 1.398 . S
C1606 H1594 0.950 . S
C1606 C1605 1.398 . S
C1606 C1607 1.391 . S
C1607 H1595 0.950 . S
C1607 C1603 1.393 . S
C1607 C1606 1.391 . S
H1608 C1616 0.950 . S
H1609 C1621 0.950 . S
H1610 C1618 0.950 . S
H1611 C1620 0.950 . S
H1612 C1622 0.950 . S
H1613 C1624 0.950 . S
H1614 C1626 0.950 . S
H1615 C1627 0.950 . S
C1616 H1608 0.950 . S
C1616 C1617 1.386 . S
C1616 C1618 1.391 . S
C1617 C1616 1.386 . S
C1617 C1621 1.393 . S
C1618 H1610 0.950 . S
C1618 C1616 1.391 . S
C1618 C1619 1.400 . S
C1619 C1618 1.400 . S
C1619 C1620 1.398 . S
C1619 C1625 1.491 . S
C1620 H1611 0.950 . S
C1620 C1619 1.398 . S
C1620 C1621 1.391 . S
C1621 H1609 0.950 . S
C1621 C1617 1.393 . S
C1621 C1620 1.391 . S
C1622 H1612 0.950 . S
C1622 C1623 1.386 . S
C1622 C1624 1.391 . S
C1623 C1622 1.386 . S
C1623 C1627 1.393 . S
C1624 H1613 0.950 . S
C1624 C1622 1.391 . S
C1624 C1625 1.400 . S
C1625 C1619 1.491 . S
C1625 C1624 1.400 . S
C1625 C1626 1.398 . S
C1626 H1614 0.950 . S
C1626 C1625 1.398 . S
C1626 C1627 1.391 . S
C1627 H1615 0.950 . S
C1627 C1623 1.393 . S
C1627 C1626 1.391 . S
H1628 C1636 0.950 . S
H1629 C1641 0.950 . S
H1630 C1638 0.950 . S
H1631 C1640 0.950 . S
H1632 C1642 0.950 . S
H1633 C1644 0.950 . S
H1634 C1646 0.950 . S
H1635 C1647 0.950 . S
C1636 H1628 0.950 . S
C1636 C1637 1.386 . S
C1636 C1638 1.391 . S
C1637 C1636 1.386 . S
C1637 C1641 1.393 . S
C1638 H1630 0.950 . S
C1638 C1636 1.391 . S
C1638 C1639 1.400 . S
C1639 C1638 1.400 . S
C1639 C1640 1.398 . S
C1639 C1645 1.491 . S
C1640 H1631 0.950 . S
C1640 C1639 1.398 . S
C1640 C1641 1.391 . S
C1641 H1629 0.950 . S
C1641 C1637 1.393 . S
C1641 C1640 1.391 . S
C1642 H1632 0.950 . S
C1642 C1643 1.386 . S
C1642 C1644 1.391 . S
C1643 C1642 1.386 . S
C1643 C1647 1.393 . S
C1644 H1633 0.950 . S
C1644 C1642 1.391 . S
C1644 C1645 1.400 . S
C1645 C1639 1.491 . S
C1645 C1644 1.400 . S
C1645 C1646 1.398 . S
C1646 H1634 0.950 . S
C1646 C1645 1.398 . S
C1646 C1647 1.391 . S
C1647 H1635 0.950 . S
C1647 C1643 1.393 . S
C1647 C1646 1.391 . S
H1648 C1656 0.950 . S
H1649 C1661 0.950 . S
H1650 C1658 0.950 . S
H1651 C1660 0.950 . S
H1652 C1662 0.950 . S
H1653 C1664 0.950 . S
H1654 C1666 0.950 . S
H1655 C1667 0.950 . S
C1656 H1648 0.950 . S
C1656 C1657 1.386 . S
C1656 C1658 1.391 . S
C1657 C1656 1.386 . S
C1657 C1661 1.393 . S
C1658 H1650 0.950 . S
C1658 C1656 1.391 . S
C1658 C1659 1.400 . S
C1659 C1658 1.400 . S
C1659 C1660 1.398 . S
C1659 C1665 1.491 . S
C1660 H1651 0.950 . S
C1660 C1659 1.398 . S
C1660 C1661 1.391 . S
C1661 H1649 0.950 . S
C1661 C1657 1.393 . S
C1661 C1660 1.391 . S
C1662 H1652 0.950 . S
C1662 C1663 1.386 . S
C1662 C1664 1.391 . S
C1663 C1662 1.386 . S
C1663 C1667 1.393 . S
C1664 H1653 0.950 . S
C1664 C1662 1.391 . S
C1664 C1665 1.400 . S
C1665 C1659 1.491 . S
C1665 C1664 1.400 . S
C1665 C1666 1.398 . S
C1666 H1654 0.950 . S
C1666 C1665 1.398 . S
C1666 C1667 1.391 . S
C1667 H1655 0.950 . S
C1667 C1663 1.393 . S
C1667 C1666 1.391 . S
H1668 C1676 0.950 . S
H1669 C1681 0.950 . S
H1670 C1678 0.950 . S
H1671 C1680 0.950 . S
H1672 C1682 0.950 . S
H1673 C1684 0.950 . S
H1674 C1686 0.950 . S
H1675 C1687 0.950 . S
C1676 H1668 0.950 . S
C1676 C1677 1.386 . S
C1676 C1678 1.391 . S
C1677 C1676 1.386 . S
C1677 C1681 1.393 . S
C1678 H1670 0.950 . S
C1678 C1676 1.391 . S
C1678 C1679 1.400 . S
C1679 C1678 1.400 . S
C1679 C1680 1.398 . S
C1679 C1685 1.491 . S
C1680 H1671 0.950 . S
C1680 C1679 1.398 . S
C1680 C1681 1.391 . S
C1681 H1669 0.950 . S
C1681 C1677 1.393 . S
C1681 C1680 1.391 . S
C1682 H1672 0.950 . S
C1682 C1683 1.386 . S
C1682 C1684 1.391 . S
C1683 C1682 1.386 . S
C1683 C1687 1.393 . S
C1684 H1673 0.950 . S
C1684 C1682 1.391 . S
C1684 C1685 1.400 . S
C1685 C1679 1.491 . S
C1685 C1684 1.400 . S
C1685 C1686 1.398 . S
C1686 H1674 0.950 . S
C1686 C1685 1.398 . S
C1686 C1687 1.391 . S
C1687 H1675 0.950 . S
C1687 C1683 1.393 . S
C1687 C1686 1.391 . S
H1688 C1696 0.950 . S
H1689 C1701 0.950 . S
H1690 C1698 0.950 . S
H1691 C1700 0.950 . S
H1692 C1702 0.950 . S
H1693 C1704 0.950 . S
H1694 C1706 0.950 . S
H1695 C1707 0.950 . S
C1696 H1688 0.950 . S
C1696 C1697 1.386 . S
C1696 C1698 1.391 . S
C1697 C1696 1.386 . S
C1697 C1701 1.393 . S
C1698 H1690 0.950 . S
C1698 C1696 1.391 . S
C1698 C1699 1.400 . S
C1699 C1698 1.400 . S
C1699 C1700 1.398 . S
C1699 C1705 1.491 . S
C1700 H1691 0.950 . S
C1700 C1699 1.398 . S
C1700 C1701 1.391 . S
C1701 H1689 0.950 . S
C1701 C1697 1.393 . S
C1701 C1700 1.391 . S
C1702 H1692 0.950 . S
C1702 C1703 1.386 . S
C1702 C1704 1.391 . S
C1703 C1702 1.386 . S
C1703 C1707 1.393 . S
C1704 H1693 0.950 . S
C1704 C1702 1.391 . S
C1704 C1705 1.400 . S
C1705 C1699 1.491 . S
C1705 C1704 1.400 . S
C1705 C1706 1.398 . S
C1706 H1694 0.950 . S
C1706 C1705 1.398 . S
C1706 C1707 1.391 . S
C1707 H1695 0.950 . S
C1707 C1703 1.393 . S
C1707 C1706 1.391 . S
H1708 C1716 0.950 . S
H1709 C1721 0.950 . S
H1710 C1718 0.950 . S
H1711 C1720 0.950 . S
H1712 C1722 0.950 . S
H1713 C1724 0.950 . S
H1714 C1726 0.950 . S
H1715 C1727 0.950 . S
C1716 H1708 0.950 . S
C1716 C1717 1.386 . S
C1716 C1718 1.391 . S
C1717 C1716 1.386 . S
C1717 C1721 1.393 . S
C1718 H1710 0.950 . S
C1718 C1716 1.391 . S
C1718 C1719 1.400 . S
C1719 C1718 1.400 . S
C1719 C1720 1.398 . S
C1719 C1725 1.491 . S
C1720 H1711 0.950 . S
C1720 C1719 1.398 . S
C1720 C1721 1.391 . S
C1721 H1709 0.950 . S
C1721 C1717 1.393 . S
C1721 C1720 1.391 . S
C1722 H1712 0.950 . S
C1722 C1723 1.386 . S
C1722 C1724 1.391 . S
C1723 C1722 1.386 . S
C1723 C1727 1.393 . S
C1724 H1713 0.950 . S
C1724 C1722 1.391 . S
C1724 C1725 1.400 . S
C1725 C1719 1.491 . S
C1725 C1724 1.400 . S
C1725 C1726 1.398 . S
C1726 H1714 0.950 . S
C1726 C1725 1.398 . S
C1726 C1727 1.391 . S
C1727 H1715 0.950 . S
C1727 C1723 1.393 . S
C1727 C1726 1.391 . S
H1728 C1736 0.950 . S
H1729 C1741 0.950 . S
H1730 C1738 0.950 . S
H1731 C1740 0.950 . S
H1732 C1742 0.950 . S
H1733 C1744 0.950 . S
H1734 C1746 0.950 . S
H1735 C1747 0.919 1_545 S
C1736 H1728 0.950 . S
C1736 C1737 1.386 1_545 S
C1736 C1738 1.391 . S
C1737 C1736 1.386 1_565 S
C1737 C1741 1.393 . S
C1738 H1730 0.950 . S
C1738 C1736 1.391 . S
C1738 C1739 1.400 1_545 S
C1739 C1738 1.400 1_565 S
C1739 C1740 1.398 . S
C1739 C1745 1.491 . S
C1740 H1731 0.950 . S
C1740 C1739 1.398 . S
C1740 C1741 1.391 . S
C1741 H1729 0.950 . S
C1741 C1737 1.393 . S
C1741 C1740 1.391 . S
C1742 H1732 0.950 . S
C1742 C1743 1.386 . S
C1742 C1744 1.391 . S
C1743 C1742 1.386 . S
C1743 C1747 1.430 . S
C1744 H1733 0.950 . S
C1744 C1742 1.391 . S
C1744 C1745 1.400 . S
C1745 C1739 1.491 . S
C1745 C1744 1.400 . S
C1745 C1746 1.398 1_565 S
C1746 H1734 0.950 . S
C1746 C1745 1.398 1_545 S
C1746 C1747 1.386 1_545 S
C1747 H1735 0.919 1_565 S
C1747 C1743 1.430 . S
C1747 C1746 1.386 1_565 S
H1748 C1756 0.950 . S
H1749 C1761 0.950 . S
H1750 C1758 0.950 . S
H1751 C1760 0.950 . S
H1752 C1762 0.950 . S
H1753 C1764 0.950 . S
H1754 C1766 0.950 . S
H1755 C1767 0.950 . S
C1756 H1748 0.950 . S
C1756 C1757 1.386 . S
C1756 C1758 1.391 . S
C1757 C1756 1.386 . S
C1757 C1761 1.393 . S
C1758 H1750 0.950 . S
C1758 C1756 1.391 . S
C1758 C1759 1.400 . S
C1759 C1758 1.400 . S
C1759 C1760 1.398 . S
C1759 C1765 1.491 . S
C1760 H1751 0.950 . S
C1760 C1759 1.398 . S
C1760 C1761 1.391 . S
C1761 H1749 0.950 . S
C1761 C1757 1.393 . S
C1761 C1760 1.391 . S
C1762 H1752 0.950 . S
C1762 C1763 1.386 . S
C1762 C1764 1.391 . S
C1763 C1762 1.386 . S
C1763 C1767 1.393 . S
C1764 H1753 0.950 . S
C1764 C1762 1.391 . S
C1764 C1765 1.400 . S
C1765 C1759 1.491 . S
C1765 C1764 1.400 . S
C1765 C1766 1.398 . S
C1766 H1754 0.950 . S
C1766 C1765 1.398 . S
C1766 C1767 1.391 . S
C1767 H1755 0.950 . S
C1767 C1763 1.393 . S
C1767 C1766 1.391 . S
H1768 C1776 0.922 1_565 S
H1769 C1781 0.950 . S
H1770 C1778 0.969 . S
H1771 C1780 0.950 . S
H1772 C1782 0.950 . S
H1773 C1784 0.950 . S
H1774 C1786 0.950 . S
H1775 C1787 0.950 . S
C1776 H1768 0.922 1_545 S
C1776 C1777 1.414 . S
C1776 C1778 1.391 1_545 S
C1777 C1776 1.414 . S
C1777 C1781 1.393 . S
C1778 H1770 0.969 . S
C1778 C1776 1.391 1_565 S
C1778 C1779 1.383 1_565 S
C1779 C1778 1.383 1_545 S
C1779 C1780 1.398 . S
C1779 C1785 1.491 . S
C1780 H1771 0.950 . S
C1780 C1779 1.398 . S
C1780 C1781 1.391 . S
C1781 H1769 0.950 . S
C1781 C1777 1.393 . S
C1781 C1780 1.391 . S
C1782 H1772 0.950 . S
C1782 C1783 1.386 . S
C1782 C1784 1.391 . S
C1783 C1782 1.386 . S
C1783 C1787 1.393 1_545 S
C1784 H1773 0.950 . S
C1784 C1782 1.391 . S
C1784 C1785 1.400 . S
C1785 C1779 1.491 . S
C1785 C1784 1.400 . S
C1785 C1786 1.398 1_545 S
C1786 H1774 0.950 . S
C1786 C1785 1.398 1_565 S
C1786 C1787 1.391 . S
C1787 H1775 0.950 . S
C1787 C1783 1.393 1_565 S
C1787 C1786 1.391 . S
H1788 C1796 0.950 . S
H1789 C1801 0.950 . S
H1790 C1798 0.950 . S
H1791 C1800 0.950 . S
H1792 C1802 0.950 . S
H1793 C1804 0.950 . S
H1794 C1806 0.950 . S
H1795 C1807 0.950 . S
C1796 H1788 0.950 . S
C1796 C1797 1.386 . S
C1796 C1798 1.391 . S
C1797 C1796 1.386 . S
C1797 C1801 1.393 . S
C1798 H1790 0.950 . S
C1798 C1796 1.391 . S
C1798 C1799 1.400 . S
C1799 C1798 1.400 . S
C1799 C1800 1.398 . S
C1799 C1805 1.491 . S
C1800 H1791 0.950 . S
C1800 C1799 1.398 . S
C1800 C1801 1.391 . S
C1801 H1789 0.950 . S
C1801 C1797 1.393 . S
C1801 C1800 1.391 . S
C1802 H1792 0.950 . S
C1802 C1803 1.386 . S
C1802 C1804 1.391 . S
C1803 C1802 1.386 . S
C1803 C1807 1.393 . S
C1804 H1793 0.950 . S
C1804 C1802 1.391 . S
C1804 C1805 1.400 . S
C1805 C1799 1.491 . S
C1805 C1804 1.400 . S
C1805 C1806 1.398 . S
C1806 H1794 0.950 . S
C1806 C1805 1.398 . S
C1806 C1807 1.391 . S
C1807 H1795 0.950 . S
C1807 C1803 1.393 . S
C1807 C1806 1.391 . S
H1808 C1816 0.950 1_554 S
H1809 C1821 0.950 . S
H1810 C1818 0.950 1_554 S
H1811 C1820 0.950 . S
H1812 C1822 0.950 . S
H1813 C1824 0.950 . S
H1814 C1826 0.950 . S
H1815 C1827 0.950 . S
C1816 H1808 0.950 1_556 S
C1816 C1817 1.386 . S
C1816 C1818 1.391 . S
C1817 C1816 1.386 . S
C1817 C1821 1.393 . S
C1818 H1810 0.950 1_556 S
C1818 C1816 1.391 . S
C1818 C1819 1.400 . S
C1819 C1818 1.400 . S
C1819 C1820 1.398 . S
C1819 C1825 1.491 . S
C1820 H1811 0.950 . S
C1820 C1819 1.398 . S
C1820 C1821 1.391 . S
C1821 H1809 0.950 . S
C1821 C1817 1.393 . S
C1821 C1820 1.391 . S
C1822 H1812 0.950 . S
C1822 C1823 1.386 . S
C1822 C1824 1.391 . S
C1823 C1822 1.386 . S
C1823 C1827 1.393 . S
C1824 H1813 0.950 . S
C1824 C1822 1.391 . S
C1824 C1825 1.400 . S
C1825 C1819 1.491 . S
C1825 C1824 1.400 . S
C1825 C1826 1.398 . S
C1826 H1814 0.950 . S
C1826 C1825 1.398 . S
C1826 C1827 1.391 . S
C1827 H1815 0.950 . S
C1827 C1823 1.393 . S
C1827 C1826 1.391 . S
H1828 C1836 0.950 . S
H1829 C1841 0.950 1_554 S
H1830 C1838 0.950 . S
H1831 C1840 0.950 . S
H1832 C1842 0.950 . S
H1833 C1844 0.950 . S
H1834 C1846 0.950 . S
H1835 C1847 0.950 . S
C1836 H1828 0.950 . S
C1836 C1837 1.386 . S
C1836 C1838 1.391 . S
C1837 C1836 1.386 . S
C1837 C1841 1.393 . S
C1838 H1830 0.950 . S
C1838 C1836 1.391 . S
C1838 C1839 1.400 . S
C1839 C1838 1.400 . S
C1839 C1840 1.398 . S
C1839 C1845 1.491 . S
C1840 H1831 0.950 . S
C1840 C1839 1.398 . S
C1840 C1841 1.391 . S
C1841 H1829 0.950 1_556 S
C1841 C1837 1.393 . S
C1841 C1840 1.391 . S
C1842 H1832 0.950 . S
C1842 C1843 1.386 . S
C1842 C1844 1.391 . S
C1843 C1842 1.386 . S
C1843 C1847 1.393 . S
C1844 H1833 0.950 . S
C1844 C1842 1.391 . S
C1844 C1845 1.400 . S
C1845 C1839 1.491 . S
C1845 C1844 1.400 . S
C1845 C1846 1.398 . S
C1846 H1834 0.950 . S
C1846 C1845 1.398 . S
C1846 C1847 1.391 . S
C1847 H1835 0.950 . S
C1847 C1843 1.393 . S
C1847 C1846 1.391 . S
H1848 C1856 0.950 . S
H1849 C1861 0.950 . S
H1850 C1858 0.950 . S
H1851 C1860 0.950 . S
H1852 C1862 0.950 . S
H1853 C1864 0.950 . S
H1854 C1866 0.950 . S
H1855 C1867 0.950 . S
C1856 H1848 0.950 . S
C1856 C1857 1.386 . S
C1856 C1858 1.391 . S
C1857 C1856 1.386 . S
C1857 C1861 1.393 . S
C1858 H1850 0.950 . S
C1858 C1856 1.391 . S
C1858 C1859 1.400 . S
C1859 C1858 1.400 . S
C1859 C1860 1.398 . S
C1859 C1865 1.491 . S
C1860 H1851 0.950 . S
C1860 C1859 1.398 . S
C1860 C1861 1.391 . S
C1861 H1849 0.950 . S
C1861 C1857 1.393 . S
C1861 C1860 1.391 . S
C1862 H1852 0.950 . S
C1862 C1863 1.386 . S
C1862 C1864 1.391 . S
C1863 C1862 1.386 . S
C1863 C1867 1.393 . S
C1864 H1853 0.950 . S
C1864 C1862 1.391 . S
C1864 C1865 1.400 . S
C1865 C1859 1.491 . S
C1865 C1864 1.400 . S
C1865 C1866 1.398 . S
C1866 H1854 0.950 . S
C1866 C1865 1.398 . S
C1866 C1867 1.391 . S
C1867 H1855 0.950 . S
C1867 C1863 1.393 . S
C1867 C1866 1.391 . S
C917 C22 1.707 . S
C923 C704 1.719 1_545 S
C943 C767 2.007 . S
C937 C38 2.013 . S
C963 C644 1.929 1_565 S
C957 C75 1.915 . S
C977 C91 1.804 . S
C983 C678 1.799 . S
C997 C128 1.829 . S
C1003 C882 1.840 . S
C1017 C197 1.187 . S
C1023 C853 1.181 . S
C1043 C776 1.998 . S
C1037 C144 2.041 . S
C1057 C181 1.508 . S
C1063 C810 1.485 . S
C1083 C699 2.010 . S
C1077 C234 2.032 . S
C1103 C742 1.458 . S
C1097 C303 1.470 . S
C1117 C356 2.036 . S
C1123 C721 2.020 1_655 S
C1137 C287 1.721 . S
C1143 C835 1.720 . S
C1163 C840 1.636 . S
C1157 C393 1.622 . S
C1183 C903 2.057 1_565 S
C1177 C409 2.082 . S
C1197 C462 2.071 . S
C1203 C814 2.076 . S
C1223 C780 1.665 1_545 S
C1217 C446 1.664 . S
C1237 C499 1.829 . S
C1243 C746 1.820 . S
C1257 C552 1.101 . S
C1263 C717 1.105 . S
C1283 C674 1.986 . S
C1277 C515 2.036 . S
C1297 C568 1.656 . S
C1303 C640 1.646 . S
C1323 C801 2.067 . S
C1317 C340 2.084 . S
C1343 C878 1.455 . S
C1337 C621 1.460 . S
C1357 C250 1.953 . S
C1363 C857 1.919 . S
C1377 C605 1.610 . S
C1383 C665 1.600 . S
C1403 C649 1.063 . S
C1397 C39 1.061 . S
C1417 C29 0.883 . S
C1423 C683 0.891 1_455 S
C1443 C708 1.033 . S
C1437 C92 1.061 . S
C1463 C755 1.765 . S
C1457 C82 1.743 . S
C1477 C145 1.527 . S
C1483 C636 1.524 . S
C1497 C188 1.264 . S
C1503 C670 1.280 . S
C1523 C712 1.352 . S
C1517 C135 1.355 . S
C1537 C198 0.939 . S
C1543 C751 0.918 . S
C1557 C251 1.691 . S
C1563 C653 1.676 . S
C1583 C733 1.453 . S
C1577 C294 1.460 . S
C1597 C347 1.427 . S
C1603 C738 1.461 . S
C1617 C304 1.668 . S
C1623 C789 1.663 . S
C1643 C819 1.136 . S
C1637 C410 1.128 . S
C1657 C400 0.889 . S
C1663 C785 0.884 . S
C1677 C453 0.768 . S
C1683 C844 0.774 . S
C1697 C463 2.034 . S
C1703 C891 2.054 . S
C1717 C516 1.576 . S
C1723 C806 1.584 . S
C1743 C772 1.574 . S
C1737 C569 1.560 . S
C1757 C506 1.265 . S
C1763 C848 1.243 . S
C1783 C887 0.653 . S
C1777 C559 0.624 . S
C1803 C823 1.648 . S
C1797 C357 1.648 . S
C1823 C869 1.389 . S
C1817 C612 1.396 . S
C1843 C874 1.407 . S
C1837 C241 1.397 . S
C1857 C622 1.554 . S
C1863 C687 1.558 . S
