# Generated by pormake.
# Topology gar, (4,6)-cn, num edge types: 1
# Building blocks:
#     Node 0, Type 0, BuildingBlock: QUQFOY_clean_sbu_1, # of connection points: 4
#     Node 1, Type 0, BuildingBlock: QUQFOY_clean_sbu_1, # of connection points: 4
#     Node 2, Type 0, BuildingBlock: QUQFOY_clean_sbu_1, # of connection points: 4
#     Node 3, Type 0, BuildingBlock: QUQFOY_clean_sbu_1, # of connection points: 4
#     Node 4, Type 0, BuildingBlock: QUQFOY_clean_sbu_1, # of connection points: 4
#     Node 5, Type 0, BuildingBlock: QUQFOY_clean_sbu_1, # of connection points: 4
#     Node 6, Type 0, BuildingBlock: QUQFOY_clean_sbu_1, # of connection points: 4
#     Node 7, Type 0, BuildingBlock: QUQFOY_clean_sbu_1, # of connection points: 4
#     Node 8, Type 0, BuildingBlock: QUQFOY_clean_sbu_1, # of connection points: 4
#     Node 9, Type 0, BuildingBlock: QUQFOY_clean_sbu_1, # of connection points: 4
#     Node 10, Type 0, BuildingBlock: QUQFOY_clean_sbu_1, # of connection points: 4
#     Node 11, Type 0, BuildingBlock: QUQFOY_clean_sbu_1, # of connection points: 4
#     Node 12, Type 0, BuildingBlock: QUQFOY_clean_sbu_1, # of connection points: 4
#     Node 13, Type 0, BuildingBlock: QUQFOY_clean_sbu_1, # of connection points: 4
#     Node 14, Type 0, BuildingBlock: QUQFOY_clean_sbu_1, # of connection points: 4
#     Node 15, Type 0, BuildingBlock: QUQFOY_clean_sbu_1, # of connection points: 4
#     Node 16, Type 0, BuildingBlock: QUQFOY_clean_sbu_1, # of connection points: 4
#     Node 17, Type 0, BuildingBlock: QUQFOY_clean_sbu_1, # of connection points: 4
#     Node 18, Type 0, BuildingBlock: QUQFOY_clean_sbu_1, # of connection points: 4
#     Node 19, Type 0, BuildingBlock: QUQFOY_clean_sbu_1, # of connection points: 4
#     Node 20, Type 0, BuildingBlock: QUQFOY_clean_sbu_1, # of connection points: 4
#     Node 21, Type 0, BuildingBlock: QUQFOY_clean_sbu_1, # of connection points: 4
#     Node 22, Type 0, BuildingBlock: QUQFOY_clean_sbu_1, # of connection points: 4
#     Node 23, Type 0, BuildingBlock: QUQFOY_clean_sbu_1, # of connection points: 4
#     Node 24, Type 1, BuildingBlock: PAMTOO_clean_sbu_0, # of connection points: 6
#     Node 25, Type 1, BuildingBlock: PAMTOO_clean_sbu_0, # of connection points: 6
#     Node 26, Type 1, BuildingBlock: PAMTOO_clean_sbu_0, # of connection points: 6
#     Node 27, Type 1, BuildingBlock: PAMTOO_clean_sbu_0, # of connection points: 6
#     Node 28, Type 1, BuildingBlock: PAMTOO_clean_sbu_0, # of connection points: 6
#     Node 29, Type 1, BuildingBlock: PAMTOO_clean_sbu_0, # of connection points: 6
#     Node 30, Type 1, BuildingBlock: PAMTOO_clean_sbu_0, # of connection points: 6
#     Node 31, Type 1, BuildingBlock: PAMTOO_clean_sbu_0, # of connection points: 6
#     Node 32, Type 1, BuildingBlock: PAMTOO_clean_sbu_0, # of connection points: 6
#     Node 33, Type 1, BuildingBlock: PAMTOO_clean_sbu_0, # of connection points: 6
#     Node 34, Type 1, BuildingBlock: PAMTOO_clean_sbu_0, # of connection points: 6
#     Node 35, Type 1, BuildingBlock: PAMTOO_clean_sbu_0, # of connection points: 6
#     Node 36, Type 1, BuildingBlock: PAMTOO_clean_sbu_0, # of connection points: 6
#     Node 37, Type 1, BuildingBlock: PAMTOO_clean_sbu_0, # of connection points: 6
#     Node 38, Type 1, BuildingBlock: PAMTOO_clean_sbu_0, # of connection points: 6
#     Node 39, Type 1, BuildingBlock: PAMTOO_clean_sbu_0, # of connection points: 6
#     Edge 40, Type (0, 1), BuildingBlock: CIFDUS_clean_linker_0, # of connection points: 2
#     Edge 41, Type (0, 1), BuildingBlock: CIFDUS_clean_linker_0, # of connection points: 2
#     Edge 42, Type (0, 1), BuildingBlock: CIFDUS_clean_linker_0, # of connection points: 2
#     Edge 43, Type (0, 1), BuildingBlock: CIFDUS_clean_linker_0, # of connection points: 2
#     Edge 44, Type (0, 1), BuildingBlock: CIFDUS_clean_linker_0, # of connection points: 2
#     Edge 45, Type (0, 1), BuildingBlock: CIFDUS_clean_linker_0, # of connection points: 2
#     Edge 46, Type (0, 1), BuildingBlock: CIFDUS_clean_linker_0, # of connection points: 2
#     Edge 47, Type (0, 1), BuildingBlock: CIFDUS_clean_linker_0, # of connection points: 2
#     Edge 48, Type (0, 1), BuildingBlock: CIFDUS_clean_linker_0, # of connection points: 2
#     Edge 49, Type (0, 1), BuildingBlock: CIFDUS_clean_linker_0, # of connection points: 2
#     Edge 50, Type (0, 1), BuildingBlock: CIFDUS_clean_linker_0, # of connection points: 2
#     Edge 51, Type (0, 1), BuildingBlock: CIFDUS_clean_linker_0, # of connection points: 2
#     Edge 52, Type (0, 1), BuildingBlock: CIFDUS_clean_linker_0, # of connection points: 2
#     Edge 53, Type (0, 1), BuildingBlock: CIFDUS_clean_linker_0, # of connection points: 2
#     Edge 54, Type (0, 1), BuildingBlock: CIFDUS_clean_linker_0, # of connection points: 2
#     Edge 55, Type (0, 1), BuildingBlock: CIFDUS_clean_linker_0, # of connection points: 2
#     Edge 56, Type (0, 1), BuildingBlock: CIFDUS_clean_linker_0, # of connection points: 2
#     Edge 57, Type (0, 1), BuildingBlock: CIFDUS_clean_linker_0, # of connection points: 2
#     Edge 58, Type (0, 1), BuildingBlock: CIFDUS_clean_linker_0, # of connection points: 2
#     Edge 59, Type (0, 1), BuildingBlock: CIFDUS_clean_linker_0, # of connection points: 2
#     Edge 60, Type (0, 1), BuildingBlock: CIFDUS_clean_linker_0, # of connection points: 2
#     Edge 61, Type (0, 1), BuildingBlock: CIFDUS_clean_linker_0, # of connection points: 2
#     Edge 62, Type (0, 1), BuildingBlock: CIFDUS_clean_linker_0, # of connection points: 2
#     Edge 63, Type (0, 1), BuildingBlock: CIFDUS_clean_linker_0, # of connection points: 2
#     Edge 64, Type (0, 1), BuildingBlock: CIFDUS_clean_linker_0, # of connection points: 2
#     Edge 65, Type (0, 1), BuildingBlock: CIFDUS_clean_linker_0, # of connection points: 2
#     Edge 66, Type (0, 1), BuildingBlock: CIFDUS_clean_linker_0, # of connection points: 2
#     Edge 67, Type (0, 1), BuildingBlock: CIFDUS_clean_linker_0, # of connection points: 2
#     Edge 68, Type (0, 1), BuildingBlock: CIFDUS_clean_linker_0, # of connection points: 2
#     Edge 69, Type (0, 1), BuildingBlock: CIFDUS_clean_linker_0, # of connection points: 2
#     Edge 70, Type (0, 1), BuildingBlock: CIFDUS_clean_linker_0, # of connection points: 2
#     Edge 71, Type (0, 1), BuildingBlock: CIFDUS_clean_linker_0, # of connection points: 2
#     Edge 72, Type (0, 1), BuildingBlock: CIFDUS_clean_linker_0, # of connection points: 2
#     Edge 73, Type (0, 1), BuildingBlock: CIFDUS_clean_linker_0, # of connection points: 2
#     Edge 74, Type (0, 1), BuildingBlock: CIFDUS_clean_linker_0, # of connection points: 2
#     Edge 75, Type (0, 1), BuildingBlock: CIFDUS_clean_linker_0, # of connection points: 2
#     Edge 76, Type (0, 1), BuildingBlock: CIFDUS_clean_linker_0, # of connection points: 2
#     Edge 77, Type (0, 1), BuildingBlock: CIFDUS_clean_linker_0, # of connection points: 2
#     Edge 78, Type (0, 1), BuildingBlock: CIFDUS_clean_linker_0, # of connection points: 2
#     Edge 79, Type (0, 1), BuildingBlock: CIFDUS_clean_linker_0, # of connection points: 2
#     Edge 80, Type (0, 1), BuildingBlock: CIFDUS_clean_linker_0, # of connection points: 2
#     Edge 81, Type (0, 1), BuildingBlock: CIFDUS_clean_linker_0, # of connection points: 2
#     Edge 82, Type (0, 1), BuildingBlock: CIFDUS_clean_linker_0, # of connection points: 2
#     Edge 83, Type (0, 1), BuildingBlock: CIFDUS_clean_linker_0, # of connection points: 2
#     Edge 84, Type (0, 1), BuildingBlock: CIFDUS_clean_linker_0, # of connection points: 2
#     Edge 85, Type (0, 1), BuildingBlock: CIFDUS_clean_linker_0, # of connection points: 2
#     Edge 86, Type (0, 1), BuildingBlock: CIFDUS_clean_linker_0, # of connection points: 2
#     Edge 87, Type (0, 1), BuildingBlock: CIFDUS_clean_linker_0, # of connection points: 2
#     Edge 88, Type (0, 1), BuildingBlock: CIFDUS_clean_linker_0, # of connection points: 2
#     Edge 89, Type (0, 1), BuildingBlock: CIFDUS_clean_linker_0, # of connection points: 2
#     Edge 90, Type (0, 1), BuildingBlock: CIFDUS_clean_linker_0, # of connection points: 2
#     Edge 91, Type (0, 1), BuildingBlock: CIFDUS_clean_linker_0, # of connection points: 2
#     Edge 92, Type (0, 1), BuildingBlock: CIFDUS_clean_linker_0, # of connection points: 2
#     Edge 93, Type (0, 1), BuildingBlock: CIFDUS_clean_linker_0, # of connection points: 2
#     Edge 94, Type (0, 1), BuildingBlock: CIFDUS_clean_linker_0, # of connection points: 2
#     Edge 95, Type (0, 1), BuildingBlock: CIFDUS_clean_linker_0, # of connection points: 2
#     Edge 96, Type (0, 1), BuildingBlock: CIFDUS_clean_linker_0, # of connection points: 2
#     Edge 97, Type (0, 1), BuildingBlock: CIFDUS_clean_linker_0, # of connection points: 2
#     Edge 98, Type (0, 1), BuildingBlock: CIFDUS_clean_linker_0, # of connection points: 2
#     Edge 99, Type (0, 1), BuildingBlock: CIFDUS_clean_linker_0, # of connection points: 2
#     Edge 100, Type (0, 1), BuildingBlock: CIFDUS_clean_linker_0, # of connection points: 2
#     Edge 101, Type (0, 1), BuildingBlock: CIFDUS_clean_linker_0, # of connection points: 2
#     Edge 102, Type (0, 1), BuildingBlock: CIFDUS_clean_linker_0, # of connection points: 2
#     Edge 103, Type (0, 1), BuildingBlock: CIFDUS_clean_linker_0, # of connection points: 2
#     Edge 104, Type (0, 1), BuildingBlock: CIFDUS_clean_linker_0, # of connection points: 2
#     Edge 105, Type (0, 1), BuildingBlock: CIFDUS_clean_linker_0, # of connection points: 2
#     Edge 106, Type (0, 1), BuildingBlock: CIFDUS_clean_linker_0, # of connection points: 2
#     Edge 107, Type (0, 1), BuildingBlock: CIFDUS_clean_linker_0, # of connection points: 2
#     Edge 108, Type (0, 1), BuildingBlock: CIFDUS_clean_linker_0, # of connection points: 2
#     Edge 109, Type (0, 1), BuildingBlock: CIFDUS_clean_linker_0, # of connection points: 2
#     Edge 110, Type (0, 1), BuildingBlock: CIFDUS_clean_linker_0, # of connection points: 2
#     Edge 111, Type (0, 1), BuildingBlock: CIFDUS_clean_linker_0, # of connection points: 2
#     Edge 112, Type (0, 1), BuildingBlock: CIFDUS_clean_linker_0, # of connection points: 2
#     Edge 113, Type (0, 1), BuildingBlock: CIFDUS_clean_linker_0, # of connection points: 2
#     Edge 114, Type (0, 1), BuildingBlock: CIFDUS_clean_linker_0, # of connection points: 2
#     Edge 115, Type (0, 1), BuildingBlock: CIFDUS_clean_linker_0, # of connection points: 2
#     Edge 116, Type (0, 1), BuildingBlock: CIFDUS_clean_linker_0, # of connection points: 2
#     Edge 117, Type (0, 1), BuildingBlock: CIFDUS_clean_linker_0, # of connection points: 2
#     Edge 118, Type (0, 1), BuildingBlock: CIFDUS_clean_linker_0, # of connection points: 2
#     Edge 119, Type (0, 1), BuildingBlock: CIFDUS_clean_linker_0, # of connection points: 2
#     Edge 120, Type (0, 1), BuildingBlock: CIFDUS_clean_linker_0, # of connection points: 2
#     Edge 121, Type (0, 1), BuildingBlock: CIFDUS_clean_linker_0, # of connection points: 2
#     Edge 122, Type (0, 1), BuildingBlock: CIFDUS_clean_linker_0, # of connection points: 2
#     Edge 123, Type (0, 1), BuildingBlock: CIFDUS_clean_linker_0, # of connection points: 2
#     Edge 124, Type (0, 1), BuildingBlock: CIFDUS_clean_linker_0, # of connection points: 2
#     Edge 125, Type (0, 1), BuildingBlock: CIFDUS_clean_linker_0, # of connection points: 2
#     Edge 126, Type (0, 1), BuildingBlock: CIFDUS_clean_linker_0, # of connection points: 2
#     Edge 127, Type (0, 1), BuildingBlock: CIFDUS_clean_linker_0, # of connection points: 2
#     Edge 128, Type (0, 1), BuildingBlock: CIFDUS_clean_linker_0, # of connection points: 2
#     Edge 129, Type (0, 1), BuildingBlock: CIFDUS_clean_linker_0, # of connection points: 2
#     Edge 130, Type (0, 1), BuildingBlock: CIFDUS_clean_linker_0, # of connection points: 2
#     Edge 131, Type (0, 1), BuildingBlock: CIFDUS_clean_linker_0, # of connection points: 2
#     Edge 132, Type (0, 1), BuildingBlock: CIFDUS_clean_linker_0, # of connection points: 2
#     Edge 133, Type (0, 1), BuildingBlock: CIFDUS_clean_linker_0, # of connection points: 2
#     Edge 134, Type (0, 1), BuildingBlock: CIFDUS_clean_linker_0, # of connection points: 2
#     Edge 135, Type (0, 1), BuildingBlock: CIFDUS_clean_linker_0, # of connection points: 2
# Relax obj value: 0.182
# Max RMSD: 0.286
# Mean RMSD: 0.183
data_MOF--net-gar--node1-QUQFOY_clean_sbu_1--node2-PAMTOO_clean_sbu_0--edge1-CIFDUS_clean_linker_0
_symmetry_space_group_name_H-M    P1
_symmetry_Int_Tables_number       1
_symmetry_cell_setting            triclinic
loop_
_symmetry_equiv_pos_as_xyz
'x, y, z'
_cell_length_a     53.283824
_cell_length_b     53.537182
_cell_length_c     51.435033
_cell_angle_alpha  97.078355
_cell_angle_beta   96.497589
_cell_angle_gamma 106.68535
loop_
_atom_site_label
_atom_site_type_symbol
_atom_site_fract_x
_atom_site_fract_y
_atom_site_fract_z
_atom_type_partial_charge
O0 O 0.08442 0.30708 0.39493 0.0
Cd1 Cd 0.08585 0.32752 0.36329 0.0
Cd2 Cd 0.06658 0.36207 0.41073 0.0
O3 O 0.07532 0.33194 0.4283 0.0
O4 O 0.10732 0.31032 0.33906 0.0
O5 O 0.12385 0.35074 0.36059 0.0
C6 C 0.12781 0.33107 0.34613 0.0
C7 C 0.06914 0.40148 0.44005 0.0
C8 C 0.08075 0.31124 0.41891 0.0
C9 C 0.02888 0.33642 0.35663 0.0
O10 O 0.03478 0.34993 0.37991 0.0
O11 O 0.046 0.32706 0.34617 0.0
O12 O 0.05142 0.37932 0.43989 0.0
O13 O 0.08582 0.40157 0.42369 0.0
O14 O 1.02671 0.72947 0.73277 0.0
Cd15 Cd 0.0346 0.76563 0.7594 0.0
Cd16 Cd 0.05972 0.78363 0.71527 0.0
O17 O 0.04019 0.74542 0.69732 0.0
O18 O 1.00434 0.76179 0.78298 0.0
O19 O 1.00991 0.78931 0.75458 0.0
C20 C 0.99596 0.77886 0.77176 0.0
C21 C 0.0635 0.81666 0.688 0.0
C22 C 0.03003 0.72582 0.70847 0.0
C23 C 0.09674 0.78551 0.76591 0.0
O24 O 0.09346 0.78713 0.74139 0.0
O25 O 0.07647 0.78 0.77822 0.0
O26 O 0.07599 0.79944 0.68551 0.0
O27 O 0.04839 0.81522 0.70602 0.0
O28 O 0.62277 0.84217 0.88901 0.0
Cd29 Cd 0.59038 0.83923 0.90862 0.0
Cd30 Cd 0.57153 0.86021 0.86588 0.0
O31 O 0.60664 0.85196 0.85142 0.0
O32 O 0.59669 0.81916 0.93774 0.0
O33 O 0.56189 0.80409 0.90617 0.0
C34 C 0.575 0.80086 0.92754 0.0
C35 C 0.52462 0.84596 0.84666 0.0
C36 C 0.62544 0.84651 0.86555 0.0
C37 C 0.58341 0.89372 0.92071 0.0
O38 O 0.57888 0.89358 0.89578 0.0
O39 O 0.5871 0.87353 0.92921 0.0
O40 O 0.54231 0.8635 0.83779 0.0
O41 O 0.53365 0.8344 0.86457 0.0
O42 O 0.53586 0.21566 0.21247 0.0
Cd43 Cd 0.54101 0.24723 0.2446 0.0
Cd44 Cd 0.5673 0.27775 0.2086 0.0
O45 O 0.55478 0.24113 0.18501 0.0
O46 O 0.51037 0.23708 0.26699 0.0
O47 O 0.51454 0.26994 0.2449 0.0
C48 C 0.50096 0.25538 0.25988 0.0
C49 C 0.56634 0.31364 0.18642 0.0
C50 C 0.54348 0.21822 0.18994 0.0
C51 C 0.60268 0.27458 0.25793 0.0
O52 O 0.60034 0.28393 0.23657 0.0
O53 O 0.58186 0.26046 0.26586 0.0
O54 O 0.58293 0.30069 0.18297 0.0
O55 O 0.54995 0.30632 0.20269 0.0
O56 O 0.08191 0.77625 0.12661 0.0
Cd57 Cd 0.08355 0.80882 0.15381 0.0
Cd58 Cd 0.11144 0.83554 0.11344 0.0
O59 O 0.10011 0.79399 0.09388 0.0
O60 O 0.06649 0.79042 0.18191 0.0
O61 O 0.05039 0.81807 0.16259 0.0
C62 C 0.04887 0.80242 0.1799 0.0
C63 C 0.09898 0.87385 0.09953 0.0
C64 C 0.08955 0.77333 0.10416 0.0
C65 C 0.14252 0.83881 0.16887 0.0
O66 O 0.14357 0.84332 0.14508 0.0
O67 O 0.12044 0.82768 0.17586 0.0
O68 O 0.11833 0.86676 0.09121 0.0
O69 O 0.086 0.85884 0.11458 0.0
O70 O 0.56904 0.78968 0.46925 0.0
Cd71 Cd 0.55328 0.78941 0.50451 0.0
Cd72 Cd 0.50985 0.80335 0.46046 0.0
O73 O 0.53742 0.79353 0.43923 0.0
O74 O 0.57664 0.77321 0.52838 0.0
O75 O 0.53549 0.75106 0.51238 0.0
C76 C 0.55782 0.75106 0.52522 0.0
C77 C 0.46898 0.80022 0.43323 0.0
C78 C 0.5601 0.79054 0.44541 0.0
C79 C 0.54128 0.84513 0.51078 0.0
O80 O 0.52486 0.83699 0.48921 0.0
O81 O 0.55309 0.82957 0.52072 0.0
O82 O 0.49105 0.81742 0.43189 0.0
O83 O 0.46961 0.78461 0.45032 0.0
O84 O 0.5986 0.27487 0.63307 0.0
Cd85 Cd 0.60365 0.30697 0.66177 0.0
Cd86 Cd 0.63036 0.33472 0.62241 0.0
O87 O 0.61772 0.29348 0.60131 0.0
O88 O 0.58472 0.28791 0.68841 0.0
O89 O 0.57254 0.31925 0.67177 0.0
C90 C 0.56867 0.30176 0.68724 0.0
C91 C 0.61738 0.37349 0.6098 0.0
C92 C 0.60596 0.27247 0.6105 0.0
C93 C 0.66331 0.33342 0.676 0.0
O94 O 0.66345 0.34104 0.65328 0.0
O95 O 0.64145 0.32137 0.6829 0.0
O96 O 0.63639 0.36645 0.60061 0.0
O97 O 0.60519 0.35839 0.62523 0.0
O98 O 0.03183 0.24223 0.97835 0.0
Cd99 Cd 0.03232 0.27145 0.95508 0.0
Cd100 Cd 1.02014 0.29877 0.99968 0.0
O101 O 0.03013 0.2656 0.01631 0.0
O102 O 0.0532 0.26527 0.92646 0.0
O103 O 0.06571 0.30153 0.95653 0.0
C104 C 0.07009 0.28813 0.9358 0.0
C105 C 0.03722 0.3467 0.01433 0.0
C106 C 0.03229 0.24416 1.00333 0.0
C107 C 0.98015 0.28221 0.94723 0.0
O108 O 0.9847 0.29035 0.97224 0.0
O109 O 0.99721 0.27433 0.93608 0.0
O110 O 1.01941 0.33164 0.02541 0.0
O111 O 0.04729 0.33459 0.99695 0.0
O112 O 0.42513 0.03576 0.2825 0.0
Cd113 Cd 0.40485 0.05245 0.30743 0.0
Cd114 Cd 0.44875 0.06293 0.33693 0.0
O115 O 0.46225 0.06561 0.30136 0.0
O116 O 0.3767 0.05852 0.28342 0.0
O117 O 0.40965 0.09076 0.30881 0.0
C118 C 0.38898 0.08343 0.29056 0.0
C119 C 0.47835 0.0857 0.37477 0.0
C120 C 0.4493 0.04772 0.28212 0.0
C121 C 0.40271 0.0176 0.3431 0.0
O122 O 0.42743 0.02551 0.34232 0.0
O123 O 0.38823 0.03075 0.33445 0.0
O124 O 0.48251 0.06702 0.35935 0.0
O125 O 0.45751 0.09258 0.3681 0.0
O126 O 0.31982 0.23712 0.59696 0.0
Cd127 Cd 0.31033 0.20984 0.56264 0.0
Cd128 Cd 0.29396 0.25095 0.54488 0.0
O129 O 0.30941 0.27119 0.58399 0.0
O130 O 0.3198 0.18052 0.57762 0.0
O131 O 0.33926 0.19864 0.54612 0.0
C132 C 0.33709 0.18154 0.56201 0.0
C133 C 0.30843 0.25931 0.50417 0.0
C134 C 0.3181 0.26033 0.60231 0.0
C135 C 0.25165 0.20024 0.543 0.0
O136 O 0.25639 0.22455 0.54101 0.0
O137 O 0.27053 0.19102 0.54948 0.0
O138 O 0.29572 0.27348 0.51591 0.0
O139 O 0.31473 0.2418 0.51655 0.0
O140 O 0.13429 0.05841 0.7642 0.0
Cd141 Cd 0.16399 0.06406 0.79599 0.0
Cd142 Cd 0.12928 0.08857 0.81872 0.0
O143 O 0.10713 0.07843 0.78059 0.0
O144 O 0.18898 0.05073 0.77663 0.0
O145 O 0.1727 0.03304 0.80989 0.0
C146 C 0.188 0.03355 0.79211 0.0
C147 C 0.11496 0.07336 0.85725 0.0
C148 C 0.11371 0.06589 0.76112 0.0
C149 C 0.18469 0.12269 0.81946 0.0
O150 O 0.16162 0.12217 0.82403 0.0
O151 O 0.1892 0.10174 0.80975 0.0
O152 O 0.10853 0.09264 0.84844 0.0
O153 O 0.12853 0.06177 0.84348 0.0
O154 O 0.30017 0.9761 0.07363 0.0
Cd155 Cd 0.30886 0.99848 0.04394 0.0
Cd156 Cd 0.29734 0.94953 0.01498 0.0
O157 O 0.27983 0.93873 0.04674 0.0
O158 O 0.28353 0.01414 0.02522 0.0
O159 O 0.31328 0.0351 0.06058 0.0
C160 C 0.29482 0.03542 0.04228 0.0
C161 C 0.27901 0.92171 0.97474 0.0
C162 C 0.28698 0.95174 0.07003 0.0
C163 C 0.35356 0.98377 0.02496 0.0
O164 O 0.33818 0.96023 0.01967 0.0
O165 O 0.34475 1.00262 0.03231 0.0
O166 O 0.28946 0.91379 0.9946 0.0
O167 O 0.27776 0.94559 0.97793 0.0
O168 O 0.30877 0.39326 0.11528 0.0
Cd169 Cd 0.31328 0.41533 0.08481 0.0
Cd170 Cd 0.33364 0.37532 0.06574 0.0
O171 O 0.322 0.35958 0.09981 0.0
O172 O 0.29567 0.44282 0.09398 0.0
O173 O 0.28244 0.41373 0.05706 0.0
C174 C 0.27988 0.43394 0.07178 0.0
C175 C 0.31991 0.35552 0.02083 0.0
C176 C 0.31315 0.37149 0.11807 0.0
C177 C 0.37074 0.43098 0.07702 0.0
O178 O 0.36836 0.40654 0.07123 0.0
O179 O 0.35095 0.4383 0.08219 0.0
O180 O 0.33732 0.34904 0.0359 0.0
O181 O 0.30864 0.37159 0.03185 0.0
O182 O 0.84569 0.15799 0.15823 0.0
Cd183 Cd 0.82656 0.1234 0.13323 0.0
Cd184 Cd 0.81444 0.15463 0.09631 0.0
O185 O 0.83163 0.1812 0.13054 0.0
O186 O 0.84477 0.09608 0.13321 0.0
O187 O 0.83915 0.11685 0.09908 0.0
C188 C 0.84752 0.09911 0.109 0.0
C189 C 0.80825 0.17647 0.06055 0.0
C190 C 0.84365 0.1799 0.15285 0.0
C191 C 0.77185 0.1084 0.11117 0.0
O192 O 0.78104 0.12323 0.09483 0.0
O193 O 0.78661 0.10753 0.13193 0.0
O194 O 0.79498 0.17656 0.07982 0.0
O195 O 0.82585 0.1642 0.06153 0.0
O196 O 0.1815 0.53454 0.23249 0.0
Cd197 Cd 0.21121 0.55411 0.26345 0.0
Cd198 Cd 0.17251 0.5624 0.28666 0.0
O199 O 0.14877 0.53745 0.25402 0.0
O200 O 0.24089 0.5392 0.26299 0.0
O201 O 0.21655 0.53779 0.2955 0.0
C202 C 0.23609 0.53252 0.28565 0.0
C203 C 0.15626 0.56301 0.3266 0.0
C204 C 0.15681 0.52962 0.23314 0.0
C205 C 0.21378 0.60941 0.27359 0.0
O206 O 0.19196 0.60026 0.28183 0.0
O207 O 0.22647 0.59403 0.26561 0.0
O208 O 0.14611 0.57129 0.30681 0.0
O209 O 0.17498 0.55262 0.3234 0.0
O210 O 0.82278 0.89617 0.62234 0.0
Cd211 Cd 0.82794 0.91793 0.59186 0.0
Cd212 Cd 0.84062 0.87489 0.56886 0.0
O213 O 0.828 0.85949 0.60231 0.0
O214 O 0.81112 0.94583 0.60081 0.0
O215 O 0.79784 0.91661 0.56377 0.0
C216 C 0.79541 0.93687 0.57854 0.0
C217 C 0.82798 0.85239 0.52493 0.0
C218 C 0.82299 0.87252 0.62253 0.0
C219 C 0.88311 0.92789 0.58006 0.0
O220 O 0.87737 0.90299 0.57364 0.0
O221 O 0.86576 0.93813 0.58724 0.0
O222 O 0.84393 0.84612 0.5419 0.0
O223 O 0.81737 0.87009 0.5335 0.0
O224 O 0.97777 0.04458 0.24246 0.0
Cd225 Cd 0.95532 0.04111 0.27274 0.0
Cd226 Cd 0.99853 0.02989 0.29713 0.0
O227 O 1.0151 0.04208 0.26375 0.0
O228 O 0.92575 0.05406 0.25915 0.0
O229 O 0.95327 0.07325 0.29637 0.0
C230 C 0.93304 0.0725 0.27954 0.0
C231 C 1.01541 0.04762 0.34211 0.0
C232 C 1.00189 0.04543 0.24284 0.0
C233 C 0.9466 0.98678 0.28685 0.0
O234 O 0.97166 0.99236 0.2923 0.0
O235 O 0.93624 1.00408 0.28012 0.0
O236 O 1.02565 0.03209 0.32869 0.0
O237 O 0.99695 0.05477 0.32939 0.0
O238 O 0.32184 0.66754 0.63012 0.0
Cd239 Cd 0.30671 0.64156 0.59532 0.0
Cd240 Cd 0.2999 0.68353 0.57425 0.0
O241 O 0.31681 0.70154 0.61238 0.0
O242 O 0.32186 0.61193 0.59515 0.0
O243 O 0.32898 0.64038 0.56677 0.0
C244 C 0.33293 0.61986 0.57532 0.0
C245 C 0.30853 0.71092 0.54208 0.0
C246 C 0.32381 0.69193 0.63235 0.0
C247 C 0.25129 0.63753 0.57571 0.0
O248 O 0.26111 0.65973 0.56862 0.0
O249 O 0.26624 0.62618 0.58712 0.0
O250 O 0.29435 0.7146 0.5599 0.0
O251 O 0.31846 0.69162 0.54257 0.0
O252 O 0.48239 0.56186 0.75245 0.0
Cd253 Cd 0.46081 0.55895 0.78355 0.0
Cd254 Cd 0.50191 0.53924 0.80168 0.0
O255 O 0.5179 0.55173 0.76811 0.0
O256 O 0.43063 0.57066 0.76905 0.0
O257 O 0.45734 0.59127 0.80618 0.0
C258 C 0.43676 0.5892 0.78922 0.0
C259 C 0.51933 0.5542 0.84687 0.0
C260 C 0.50484 0.55892 0.74961 0.0
C261 C 0.44724 0.5022 0.79357 0.0
O262 O 0.47168 0.50381 0.79582 0.0
O263 O 0.43988 0.5223 0.79043 0.0
O264 O 0.52822 0.53806 0.83251 0.0
O265 O 0.50228 0.5637 0.83493 0.0
O266 O 0.69122 0.02414 0.72109 0.0
Cd267 Cd 0.71709 0.04622 0.75441 0.0
Cd268 Cd 0.67745 0.06341 0.76312 0.0
O269 O 0.65647 0.03077 0.73642 0.0
O270 O 0.74588 0.03073 0.76209 0.0
O271 O 0.71699 0.03368 0.78939 0.0
C272 C 0.73786 0.02734 0.78454 0.0
C273 C 0.6596 0.07296 0.8006 0.0
C274 C 0.66623 0.01947 0.71887 0.0
C275 C 0.72388 0.10208 0.74992 0.0
O276 O 0.69905 0.09627 0.74962 0.0
O277 O 0.73582 0.08526 0.75402 0.0
O278 O 0.64929 0.07544 0.77756 0.0
O279 O 0.67993 0.06435 0.80231 0.0
O280 O 0.81466 0.74246 0.10234 0.0
Cd281 Cd 0.81233 0.71271 0.07163 0.0
Cd282 Cd 0.78571 0.74279 0.04571 0.0
O283 O 0.79298 0.76645 0.08296 0.0
O284 O 0.83191 0.69166 0.0902 0.0
O285 O 0.8439 0.70825 0.05483 0.0
C286 C 0.84764 0.69437 0.07286 0.0
C287 C 0.79872 0.75795 1.00673 0.0
C288 C 0.8051 0.76174 0.10375 0.0
C289 C 0.75438 0.68698 0.04892 0.0
O290 O 0.75409 0.70856 0.04116 0.0
O291 O 0.77573 0.68467 0.06054 0.0
O292 O 0.77812 0.76157 0.01566 0.0
O293 O 0.81275 0.74666 0.02055 0.0
O294 O 0.87588 0.54916 0.79957 0.0
Cd295 Cd 0.85555 0.54862 0.83164 0.0
Cd296 Cd 0.9052 0.56364 0.85687 0.0
O297 O 0.9124 0.57754 0.82223 0.0
O298 O 0.81933 0.54755 0.81736 0.0
O299 O 0.84632 0.57949 0.84849 0.0
C300 C 0.82341 0.5691 0.83372 0.0
C301 C 0.9373 0.58415 0.89378 0.0
C302 C 0.89898 0.56485 0.80022 0.0
C303 C 0.86977 0.509 0.85722 0.0
O304 O 0.89326 0.5232 0.85681 0.0
O305 O 0.85044 0.51738 0.85094 0.0
O306 O 0.94234 0.57117 0.87337 0.0
O307 O 0.91396 0.58691 0.89281 0.0
O308 O 0.77858 0.44582 0.58097 0.0
Cd309 Cd 0.78855 0.45971 0.5463 0.0
Cd310 Cd 0.78883 0.41303 0.53564 0.0
O311 O 0.76321 0.40443 0.56193 0.0
O312 O 0.76231 0.4665 0.51884 0.0
O313 O 0.78834 0.49664 0.55179 0.0
C314 C 0.77096 0.49075 0.53069 0.0
C315 C 0.77933 0.3934 0.49206 0.0
C316 C 0.76683 0.42179 0.58224 0.0
C317 C 0.84044 0.45111 0.54699 0.0
O318 O 0.82868 0.42797 0.55071 0.0
O319 O 0.82697 0.46594 0.54034 0.0
O320 O 0.78458 0.38076 0.51075 0.0
O321 O 0.77797 0.41706 0.49844 0.0
O322 O 0.63552 0.55107 0.26968 0.0
Cd323 Cd 0.662 0.55736 0.30431 0.0
Cd324 Cd 0.6254 0.57995 0.32313 0.0
O325 O 0.60522 0.56783 0.28383 0.0
O326 O 0.68839 0.54174 0.29027 0.0
O327 O 0.66679 0.52672 0.32198 0.0
C328 C 0.684 0.52522 0.30658 0.0
C329 C 0.61013 0.56617 0.36202 0.0
C330 C 0.61409 0.55685 0.26502 0.0
C331 C 0.68027 0.61612 0.32642 0.0
O332 O 0.6564 0.61474 0.32874 0.0
O333 O 0.68625 0.59545 0.3185 0.0
O334 O 0.60082 0.58211 0.34986 0.0
O335 O 0.62715 0.55687 0.35139 0.0
Dy336 Dy 0.09256 0.0784 0.06899 0.0
Dy337 Dy 0.03774 0.04005 0.03559 0.0
C338 C 0.0863 0.06168 1.0062 0.0
O339 O 0.06885 0.10716 0.06218 0.0
O340 O 0.03817 0.08107 0.02752 0.0
O341 O 0.11788 0.1176 0.08696 0.0
O342 O 0.13158 0.08378 0.09 0.0
O343 O 0.02768 0.05502 0.07493 0.0
O344 O 0.06851 0.06461 0.0999 0.0
O345 O 0.05464 1.01118 0.05467 0.0
O346 O 0.09796 0.03694 0.0638 0.0
O347 O 1.0005 1.00928 0.03259 0.0
O348 O 1.01168 0.02617 0.99799 0.0
C349 C 0.05046 0.1047 0.0417 0.0
O350 O 0.09593 0.08084 0.02647 0.0
O351 O 0.06823 0.03991 1.00869 0.0
C352 C 0.16241 0.12177 0.08292 0.0
C353 C 0.20655 0.12498 0.05715 0.0
C354 C 0.18319 0.12749 0.04357 0.0
C355 C 0.1611 0.12557 0.05633 0.0
C356 C 0.18676 0.12349 0.09752 0.0
C357 C 0.20874 0.12513 0.08477 0.0
C358 C 0.13814 0.10943 0.09321 0.0
C359 C 0.04279 0.05923 0.09817 0.0
C360 C 0.0798 1.01359 0.0621 0.0
C361 C 0.96693 0.01658 1.0041 0.0
C362 C 0.92109 0.03087 0.0107 0.0
C363 C 0.94293 0.04879 1.00326 0.0
C364 C 0.96576 0.04176 1.00014 0.0
C365 C 0.94416 0.99777 1.0087 0.0
C366 C 0.92134 1.00488 0.01201 0.0
C367 C 0.99261 1.01152 1.00831 0.0
H368 H 0.18106 0.12811 0.02249 0.0
H369 H 0.1424 0.12445 0.04473 0.0
H370 H 0.18806 0.12058 0.11806 0.0
H371 H 0.22629 0.12317 0.09607 0.0
H372 H 0.94336 0.06902 1.00238 0.0
H373 H 0.98311 0.05671 0.99669 0.0
H374 H 0.94471 0.97826 0.0118 0.0
H375 H 0.90464 0.9907 0.0176 0.0
Dy376 Dy 0.32731 0.81297 0.26404 0.0
Dy377 Dy 0.29317 0.81288 0.31299 0.0
C378 C 0.33461 0.86472 0.30443 0.0
O379 O 0.35709 0.81515 0.29903 0.0
O380 O 0.32934 0.80217 0.32946 0.0
O381 O 0.36052 0.8306 0.24478 0.0
O382 O 0.32935 0.79567 0.2244 0.0
O383 O 0.2767 0.77544 0.28415 0.0
O384 O 0.31557 0.77202 0.27277 0.0
O385 O 0.27156 0.82914 0.28208 0.0
O386 O 0.28643 0.81146 0.24632 0.0
O387 O 0.2675 0.78879 0.33577 0.0
O388 O 0.27752 0.83145 0.34443 0.0
C389 C 0.3531 0.80803 0.3222 0.0
O390 O 0.33007 0.8545 0.27927 0.0
O391 O 0.3258 0.85068 0.32238 0.0
C392 C 0.34126 0.83124 0.20185 0.0
C393 C 0.32046 0.85639 0.16372 0.0
C394 C 0.31689 0.86124 0.19022 0.0
C395 C 0.32722 0.84887 0.20902 0.0
C396 C 0.34501 0.82621 0.17544 0.0
C397 C 0.33472 0.83883 0.15643 0.0
C398 C 0.3486 0.81629 0.22188 0.0
C399 C 0.29129 0.76085 0.27643 0.0
C400 C 0.27015 0.82302 0.25621 0.0
C401 C 0.27483 0.80775 0.38019 0.0
C402 C 0.28853 0.79626 0.43072 0.0
C403 C 0.30806 0.80408 0.41464 0.0
C404 C 0.30126 0.80988 0.38958 0.0
C405 C 0.25552 0.80115 0.39659 0.0
C406 C 0.26234 0.79556 0.42177 0.0
C407 C 0.26695 0.80906 0.35231 0.0
H408 H 0.30551 0.87411 0.1964 0.0
H409 H 0.32347 0.85254 0.22913 0.0
H410 H 0.35538 0.81229 0.16949 0.0
H411 H 0.33791 0.83487 0.1361 0.0
H412 H 0.32841 0.80497 0.42115 0.0
H413 H 0.31642 0.81496 0.37711 0.0
H414 H 0.235 0.7992 0.38949 0.0
H415 H 0.24683 0.78931 0.43364 0.0
Dy416 Dy 0.53819 0.05352 0.55996 0.0
Dy417 Dy 0.59888 0.06351 0.54778 0.0
C418 C 0.55514 0.07209 0.50687 0.0
O419 O 0.53897 0.014 0.53851 0.0
O420 O 0.58347 0.01887 0.54629 0.0
O421 O 0.49645 0.03946 0.54408 0.0
O422 O 0.5095 0.0567 0.58564 0.0
O423 O 0.60001 0.05688 0.58967 0.0
O424 O 0.55611 0.03562 0.59099 0.0
O425 O 0.5947 0.10512 0.55594 0.0
O426 O 0.56076 0.09519 0.58025 0.0
O427 O 0.6411 0.08265 0.55835 0.0
O428 O 0.62535 0.05585 0.5212 0.0
C429 C 0.55867 1.0035 0.53965 0.0
O430 O 0.54244 0.07616 0.52645 0.0
O431 O 0.57355 0.06049 0.5095 0.0
C432 C 0.4728 0.0657 0.5633 0.0
C433 C 0.44012 0.09835 0.55676 0.0
C434 C 0.46762 0.10825 0.55677 0.0
C435 C 0.4838 0.09205 0.55997 0.0
C436 C 0.44546 0.05566 0.56315 0.0
C437 C 0.42924 0.07181 0.5599 0.0
C438 C 0.48964 0.04845 0.56609 0.0
C439 C 0.58138 0.04159 0.60035 0.0
C440 C 0.57961 0.11294 0.57189 0.0
C441 C 0.66475 0.05391 0.54463 0.0
C442 C 0.69892 0.02448 0.55773 0.0
C443 C 0.67437 0.01947 0.56675 0.0
C444 C 0.65729 0.03386 0.55993 0.0
C445 C 0.68917 0.05887 0.53537 0.0
C446 C 0.70614 0.04405 0.54174 0.0
C447 C 0.64656 0.06902 0.5381 0.0
H448 H 0.4767 0.12863 0.55471 0.0
H449 H 0.50492 0.10008 0.55988 0.0
H450 H 0.43663 0.03528 0.56542 0.0
H451 H 0.40811 0.06342 0.55956 0.0
H452 H 0.66834 1.00426 0.57886 0.0
H453 H 0.63816 0.02936 0.56649 0.0
H454 H 0.69508 0.07412 0.52329 0.0
H455 H 0.72505 0.04816 0.53463 0.0
Dy456 Dy 0.34226 0.29766 0.8119 0.0
Dy457 Dy 0.29501 0.32673 0.80899 0.0
C458 C 0.35521 0.35871 0.80643 0.0
O459 O 0.34311 0.31614 0.8538 0.0
O460 O 0.30055 0.31816 0.85048 0.0
O461 O 0.38235 0.29966 0.82727 0.0
O462 O 0.35733 0.26536 0.79965 0.0
O463 O 0.27496 0.28327 0.80168 0.0
O464 O 0.30706 0.26823 0.82206 0.0
O465 O 0.305 0.32397 0.76757 0.0
O466 O 0.32451 0.29086 0.76896 0.0
O467 O 0.25728 0.32918 0.79108 0.0
O468 O 0.27872 0.35615 0.82672 0.0
C469 C 0.32281 0.31895 0.86491 0.0
O470 O 0.35983 0.33631 0.79935 0.0
O471 O 0.33315 0.35965 0.81502 0.0
C472 C 0.40244 0.28151 0.79478 0.0
C473 C 0.44423 0.29148 0.76436 0.0
C474 C 0.41986 0.29532 0.75536 0.0
C475 C 0.39928 0.29056 0.7705 0.0
C476 C 0.42652 0.27743 0.8038 0.0
C477 C 0.44724 0.2824 0.78878 0.0
C478 C 0.38141 0.27827 0.81152 0.0
C479 C 0.28213 0.26512 0.81285 0.0
C480 C 0.31426 0.30603 0.75562 0.0
C481 C 0.23279 0.33793 0.82438 0.0
C482 C 0.18863 0.3212 0.85055 0.0
C483 C 0.20583 0.30584 0.84749 0.0
C484 C 0.22778 0.31423 0.83473 0.0
C485 C 0.21591 0.35353 0.82759 0.0
C486 C 0.19401 0.34529 0.84073 0.0
C487 C 0.25607 0.34625 0.81096 0.0
H488 H 0.41661 0.30195 0.73657 0.0
H489 H 0.38097 0.29426 0.76342 0.0
H490 H 0.42949 0.27088 0.8227 0.0
H491 H 0.46583 0.27967 0.79663 0.0
H492 H 0.20242 0.2874 0.8552 0.0
H493 H 0.24093 0.30221 0.83296 0.0
H494 H 0.21963 0.37201 0.81994 0.0
H495 H 0.18102 0.35746 0.84277 0.0
Dy496 Dy 0.07227 0.03823 0.55328 0.0
Dy497 Dy 0.0544 0.093 0.55571 0.0
C498 C 1.01332 0.03769 0.55946 0.0
O499 O 0.07154 0.04718 0.51182 0.0
O500 O 0.04386 0.07322 0.51296 0.0
O501 O 0.06504 0.99675 0.53813 0.0
O502 O 0.09923 0.01791 0.56769 0.0
O503 O 0.09357 0.10287 0.54182 0.0
O504 O 0.10969 0.07203 0.55912 0.0
O505 O 0.07262 0.09233 0.59726 0.0
O506 O 0.06528 0.04777 0.59481 0.0
O507 O 0.06292 0.13427 0.57135 0.0
O508 O 1.02663 0.11381 0.54408 0.0
C509 C 0.05598 0.05877 0.49965 0.0
O510 O 0.02818 0.0261 0.54704 0.0
O511 O 1.02136 0.06318 0.56842 0.0
C512 C 0.07775 0.97357 0.57096 0.0
C513 C 0.06689 0.93324 0.60267 0.0
C514 C 0.06388 0.9581 0.61118 0.0
C515 C 0.06912 0.97798 0.59543 0.0
C516 C 0.08036 0.94876 0.56213 0.0
C517 C 0.07491 0.92876 0.57776 0.0
C518 C 0.08445 0.99487 0.55487 0.0
C519 C 0.11338 0.09415 0.54938 0.0
C520 C 0.07086 0.0714 0.60883 0.0
C521 C 0.04703 0.15892 0.54212 0.0
C522 C 0.05667 0.20313 0.51555 0.0
C523 C 0.07439 0.18803 0.51655 0.0
C524 C 0.06957 0.1661 0.52964 0.0
C525 C 0.02922 0.17371 0.541 0.0
C526 C 0.03393 0.19556 0.52781 0.0
C527 C 0.04219 0.13655 0.5569 0.0
H528 H 0.05805 0.96249 0.6303 0.0
H529 H 0.06677 0.99693 0.60252 0.0
H530 H 0.08678 0.94489 0.5432 0.0
H531 H 0.07694 0.90976 0.57024 0.0
H532 H 0.09222 0.1934 0.5076 0.0
H533 H 0.08358 0.15491 0.53024 0.0
H534 H 1.01167 0.1684 0.55042 0.0
H535 H 1.0196 0.20637 0.52704 0.0
Dy536 Dy 0.31311 0.83343 0.79932 0.0
Dy537 Dy 0.3031 0.77663 0.81959 0.0
C538 C 0.29609 0.82581 0.85583 0.0
O539 O 0.35438 0.82838 0.8058 0.0
O540 O 0.34622 0.79931 0.83517 0.0
O541 O 0.3331 0.87542 0.80472 0.0
O542 O 0.30426 0.85609 0.76958 0.0
O543 O 0.32212 0.7737 0.78349 0.0
O544 O 0.30738 0.80351 0.76337 0.0
O545 O 0.26296 0.77543 0.79786 0.0
O546 O 0.26883 0.8199 0.80125 0.0
O547 O 0.28936 0.73395 0.81034 0.0
O548 O 0.30627 0.75356 0.85065 0.0
C549 C 0.3632 0.81574 0.82354 0.0
O550 O 0.31142 0.84128 0.84235 0.0
O551 O 0.28763 0.80009 0.84889 0.0
C552 C 0.30397 0.89817 0.78844 0.0
C553 C 0.27192 0.93154 0.79532 0.0
C554 C 0.28442 0.9242 0.81741 0.0
C555 C 0.30024 0.90763 0.81401 0.0
C556 C 0.29191 0.90583 0.76644 0.0
C557 C 0.27597 0.92224 0.76981 0.0
C558 C 0.31826 0.87854 0.78413 0.0
C559 C 0.31705 0.78362 0.76225 0.0
C560 C 0.25295 0.79533 0.79698 0.0
C561 C 0.31751 0.71558 0.8347 0.0
C562 C 0.35302 0.68557 0.83118 0.0
C563 C 0.36265 0.71318 0.8384 0.0
C564 C 0.34506 0.72807 0.83996 0.0
C565 C 0.30784 0.68799 0.82807 0.0
C566 C 0.32544 0.67309 0.82627 0.0
C567 C 0.29898 0.73135 0.834 0.0
H568 H 0.28202 0.93129 0.83734 0.0
H569 H 0.30923 0.90196 0.83136 0.0
H570 H 0.29426 0.89853 0.74654 0.0
H571 H 0.26632 0.92712 0.75231 0.0
H572 H 0.38377 0.72335 0.84195 0.0
H573 H 0.353 0.74939 0.84469 0.0
H574 H 0.28667 0.67803 0.82374 0.0
H575 H 0.31749 0.65181 0.82083 0.0
Dy576 Dy 0.56602 0.07727 0.03571 0.0
Dy577 Dy 0.56117 0.03372 0.07547 0.0
C578 C 0.56829 0.01889 0.01534 0.0
O579 O 0.5241 0.06642 0.04171 0.0
O580 O 0.52104 0.02531 0.05183 0.0
O581 O 0.5533 0.08979 0.99951 0.0
O582 O 0.5869 0.11567 0.02758 0.0
O583 O 0.54834 0.06585 0.09775 0.0
O584 O 0.56744 0.09979 0.07603 0.0
O585 O 0.60325 0.05901 0.08409 0.0
O586 O 0.60541 0.07098 0.04323 0.0
O587 O 0.57067 0.02209 0.11311 0.0
O588 O 0.54682 0.99273 0.07996 0.0
C589 C 0.50999 0.04263 0.04402 0.0
O590 O 0.55868 0.03797 0.00951 0.0
O591 O 0.5761 0.01754 0.04014 0.0
C592 C 0.59048 0.1126 0.98266 0.0
C593 C 0.61952 0.11149 0.94057 0.0
C594 C 0.62194 0.09643 0.96064 0.0
C595 C 0.60746 0.09691 0.98142 0.0
C596 C 0.58848 0.12829 0.96316 0.0
C597 C 0.60295 0.12774 0.94215 0.0
C598 C 0.5739 0.11092 1.00352 0.0
C599 C 0.55589 0.09123 0.09597 0.0
C600 C 0.61701 0.06776 0.0658 0.0
C601 C 0.53595 0.98839 0.12252 0.0
C602 C 0.50273 0.9841 0.16116 0.0
C603 C 0.49325 0.98683 0.13543 0.0
C604 C 0.50987 0.98918 0.11623 0.0
C605 C 0.54448 0.98299 0.14737 0.0
C606 C 0.52794 0.98089 0.16666 0.0
C607 C 0.55551 0.99778 0.10537 0.0
H608 H 0.6341 0.08333 0.95968 0.0
H609 H 0.60893 0.08437 0.99613 0.0
H610 H 0.57534 0.14042 0.96385 0.0
H611 H 0.60081 0.13958 0.92691 0.0
H612 H 0.47399 0.98965 0.13089 0.0
H613 H 0.503 0.99358 0.09718 0.0
H614 H 0.56458 0.98244 0.1525 0.0
H615 H 0.53554 0.97876 0.18644 0.0
Dy616 Dy 0.30261 0.26874 0.29311 0.0
Dy617 Dy 0.33149 0.33009 0.31524 0.0
C618 C 0.32101 0.28908 0.35564 0.0
O619 O 0.2684 0.28527 0.29755 0.0
O620 O 0.28889 0.32642 0.32185 0.0
O621 O 0.293 0.22698 0.29396 0.0
O622 O 0.27334 0.24133 0.26233 0.0
O623 O 0.31113 0.32809 0.27406 0.0
O624 O 0.31582 0.28848 0.25875 0.0
O625 O 0.36406 0.31503 0.29989 0.0
O626 O 0.346 0.27004 0.29536 0.0
O627 O 0.35589 0.36805 0.30892 0.0
O628 O 0.34412 0.36307 0.34734 0.0
C629 C 0.26696 0.30713 0.31139 0.0
O630 O 0.30289 0.27213 0.33728 0.0
O631 O 0.33816 0.30959 0.34947 0.0
C632 C 0.28385 0.20219 0.25169 0.0
C633 C 0.30617 0.16558 0.22835 0.0
C634 C 0.31716 0.19257 0.22736 0.0
C635 C 0.30613 0.21087 0.2392 0.0
C636 C 0.2707 0.17518 0.24932 0.0
C637 C 0.28172 0.15687 0.23749 0.0
C638 C 0.2775 0.22078 0.27104 0.0
C639 C 0.31264 0.31101 0.25418 0.0
C640 C 0.3665 0.29097 0.29524 0.0
C641 C 0.34563 0.40299 0.33254 0.0
C642 C 0.32708 0.44647 0.32765 0.0
C643 C 0.3092 0.42144 0.32779 0.0
C644 C 0.3184 0.39988 0.33014 0.0
C645 C 0.36367 0.42801 0.33324 0.0
C646 C 0.35445 0.44968 0.33078 0.0
C647 C 0.35486 0.37978 0.33235 0.0
H648 H 0.33591 0.19969 0.22028 0.0
H649 H 0.3164 0.23178 0.24081 0.0
H650 H 0.25341 0.1683 0.25881 0.0
H651 H 0.27287 0.13618 0.2386 0.0
H652 H 0.28799 0.41822 0.32486 0.0
H653 H 0.30416 0.38061 0.32926 0.0
H654 H 0.38476 0.43062 0.33498 0.0
H655 H 0.36862 0.46879 0.33078 0.0
Dy656 Dy 0.57551 0.53388 0.05587 0.0
Dy657 Dy 0.5478 0.58206 0.05957 0.0
C658 C 0.51372 0.52252 0.05973 0.0
O659 O 0.57272 0.54378 0.01473 0.0
O660 O 0.54026 0.56426 0.01639 0.0
O661 O 0.57543 0.49474 0.03887 0.0
O662 O 0.60658 0.51845 0.07054 0.0
O663 O 0.58622 0.59833 0.04556 0.0
O664 O 0.60902 0.57157 0.06134 0.0
O665 O 0.56672 0.58264 0.10128 0.0
O666 O 0.56724 0.53974 0.09749 0.0
O667 O 0.55052 0.62213 0.07571 0.0
O668 O 0.51583 0.59781 0.04809 0.0
C669 C 0.55501 0.55323 1.0029 0.0
O670 O 0.53172 0.51475 0.04848 0.0
O671 O 0.51772 0.54742 0.06962 0.0
C672 C 0.59203 0.4724 0.0703 0.0
C673 C 0.58741 0.42919 0.09796 0.0
C674 C 0.58188 0.452 0.10918 0.0
C675 C 0.58408 0.47334 0.09543 0.0
C676 C 0.59697 0.44954 0.05878 0.0
C677 C 0.59461 0.42812 0.0724 0.0
C678 C 0.59555 0.49518 0.0561 0.0
C679 C 0.60851 0.59324 0.05203 0.0
C680 C 0.56891 0.56219 0.11218 0.0
C681 C 0.53195 0.64339 0.04491 0.0
C682 C 0.54343 0.68682 0.01731 0.0
C683 C 0.54003 0.69032 0.0441 0.0
C684 C 0.5343 0.66881 0.05773 0.0
C685 C 0.53473 0.63967 0.01797 0.0
C686 C 0.54022 0.66117 1.00423 0.0
C687 C 0.529 0.6216 0.06048 0.0
H688 H 0.57652 0.45367 0.12887 0.0
H689 H 0.57994 0.49075 0.10461 0.0
H690 H 0.60286 0.44833 0.03929 0.0
H691 H 0.59849 0.41071 0.06288 0.0
H692 H 0.54217 0.7098 0.05465 0.0
H693 H 0.53239 0.67214 0.07853 0.0
H694 H 0.53339 0.62029 1.00772 0.0
H695 H 0.54299 0.6579 0.98369 0.0
Dy696 Dy 0.81705 0.33087 0.30015 0.0
Dy697 Dy 0.81149 0.27263 0.31866 0.0
C698 C 0.80353 0.32027 0.35835 0.0
O699 O 0.85985 0.3318 0.31144 0.0
O700 O 0.85586 0.2933 0.32885 0.0
O701 O 0.8338 0.37343 0.30609 0.0
O702 O 0.80676 0.35257 0.2702 0.0
O703 O 0.83285 0.27393 0.28446 0.0
O704 O 0.81662 0.30269 0.26395 0.0
O705 O 0.77041 0.27021 0.29805 0.0
O706 O 0.77322 0.31405 0.30133 0.0
O707 O 0.79592 0.23032 0.30758 0.0
O708 O 0.81763 0.24761 0.34715 0.0
C709 C 0.87059 0.31562 0.3228 0.0
O710 O 0.81118 0.33728 0.34232 0.0
O711 O 0.80123 0.29512 0.35262 0.0
C712 C 0.80468 0.39458 0.28748 0.0
C713 C 0.77565 0.43105 0.29071 0.0
C714 C 0.76435 0.40502 0.29505 0.0
C715 C 0.77878 0.38694 0.2935 0.0
C716 C 0.81627 0.42062 0.28383 0.0
C717 C 0.80193 0.43873 0.2855 0.0
C718 C 0.81964 0.37551 0.28454 0.0
C719 C 0.82868 0.28452 0.26356 0.0
C720 C 0.75883 0.289 0.29725 0.0
C721 C 0.82453 0.20889 0.32669 0.0
C722 C 0.85759 0.17647 0.32162 0.0
C723 C 0.85591 0.19364 0.30336 0.0
C724 C 0.83965 0.20981 0.30596 0.0
C725 C 0.82631 0.19198 0.34508 0.0
C726 C 0.84279 0.17593 0.34263 0.0
C727 C 0.80758 0.2261 0.32964 0.0
H728 H 0.74412 0.39838 0.29888 0.0
H729 H 0.76957 0.36689 0.29655 0.0
H730 H 0.83633 0.42689 0.27943 0.0
H731 H 0.81142 0.45875 0.28258 0.0
H732 H 0.86734 0.1947 0.28717 0.0
H733 H 0.83889 0.22303 0.29175 0.0
H734 H 0.81494 0.19118 0.36131 0.0
H735 H 0.84359 0.16274 0.35686 0.0
Dy736 Dy 0.04462 0.57371 0.55319 0.0
Dy737 Dy 0.04573 0.54368 0.60485 0.0
C738 C 0.05209 0.51643 0.54709 0.0
O739 O 1.00478 0.54442 0.54869 0.0
O740 O 1.00328 0.53958 0.59222 0.0
O741 O 0.03132 0.57403 0.51214 0.0
O742 O 0.05668 0.60999 0.53723 0.0
O743 O 0.04692 0.58539 0.62047 0.0
O744 O 1.0271 0.59495 0.58281 0.0
O745 O 0.08731 0.55424 0.59665 0.0
O746 O 0.08552 0.58917 0.5758 0.0
O747 O 0.05811 0.54465 0.64663 0.0
O748 O 0.03372 0.50811 0.62194 0.0
C749 C 0.99168 0.53643 0.56768 0.0
O750 O 0.05967 0.53986 0.53991 0.0
O751 O 0.04205 0.51322 0.56916 0.0
C752 C 0.06324 0.60222 0.49303 0.0
C753 C 0.09351 0.60321 0.45175 0.0
C754 C 0.10272 0.59761 0.47639 0.0
C755 C 0.08761 0.59699 0.49687 0.0
C756 C 0.05439 0.60869 0.46889 0.0
C757 C 0.06939 0.60917 0.44835 0.0
C758 C 0.04585 0.59838 0.51312 0.0
C759 C 0.03479 0.60008 0.60858 0.0
C760 C 0.09906 0.5754 0.58709 0.0
C761 C 1.02199 0.51894 0.66383 0.0
C762 C 0.98302 0.52375 0.69521 0.0
C763 C 0.97559 0.50989 0.66917 0.0
C764 C 0.99485 0.50752 0.65363 0.0
C765 C 0.02945 0.53163 0.6903 0.0
C766 C 1.01013 0.53406 0.70585 0.0
C767 C 0.04215 0.5209 0.64608 0.0
H768 H 0.12134 0.59322 0.47967 0.0
H769 H 0.09455 0.59169 0.51542 0.0
H770 H 0.03544 0.61245 0.46561 0.0
H771 H 0.06153 0.61313 0.42947 0.0
H772 H 0.95488 0.50184 0.66038 0.0
H773 H 0.98835 0.4977 0.63326 0.0
H774 H 0.0502 0.54062 0.6986 0.0
H775 H 1.01642 0.54443 0.72606 0.0
Dy776 Dy 0.82949 0.7975 0.31681 0.0
Dy777 Dy 0.77684 0.81877 0.30614 0.0
C778 C 0.83503 0.85694 0.30571 0.0
O779 O 0.8265 0.81562 0.35749 0.0
O780 O 0.78379 0.81787 0.34975 0.0
O781 O 0.87055 0.80367 0.33242 0.0
O782 O 0.84792 0.76722 0.30646 0.0
O783 O 0.7631 0.77501 0.30333 0.0
O784 O 0.79676 0.7673 0.32981 0.0
O785 O 0.79123 0.81595 0.26662 0.0
O786 O 0.8093 0.78339 0.27498 0.0
O787 O 0.73643 0.81119 0.28704 0.0
O788 O 0.7554 0.84641 0.316 0.0
C789 C 0.80537 0.81963 0.366 0.0
O790 O 0.8437 0.8363 0.30279 0.0
O791 O 0.81115 0.85525 0.31106 0.0
C792 C 0.892 0.78649 0.29993 0.0
C793 C 0.92952 0.7932 0.26441 0.0
C794 C 0.91828 0.81331 0.27177 0.0
C795 C 0.89965 0.80991 0.28915 0.0
C796 C 0.90313 0.76638 0.29274 0.0
C797 C 0.92166 0.76966 0.27514 0.0
C798 C 0.87149 0.7825 0.31745 0.0
C799 C 0.77176 0.76059 0.31884 0.0
C800 C 0.80208 0.79779 0.25848 0.0
C801 C 0.71181 0.8228 0.31917 0.0
C802 C 0.67436 0.81078 0.35414 0.0
C803 C 0.69528 0.79966 0.35454 0.0
C804 C 0.7138 0.80568 0.33733 0.0
C805 C 0.69067 0.83351 0.31814 0.0
C806 C 0.67202 0.82749 0.33545 0.0
C807 C 0.73297 0.83051 0.3029 0.0
H808 H 0.92402 0.83184 0.2643 0.0
H809 H 0.89114 0.82563 0.29409 0.0
H810 H 0.89725 0.74799 0.30049 0.0
H811 H 0.92947 0.75353 0.26963 0.0
H812 H 0.6975 0.78643 0.36836 0.0
H813 H 0.73006 0.79732 0.33856 0.0
H814 H 0.68893 0.84694 0.30441 0.0
H815 H 0.65628 0.83657 0.33479 0.0
Dy816 Dy 0.83745 0.3077 0.78497 0.0
Dy817 Dy 0.80524 0.30095 0.83467 0.0
C818 C 0.84209 0.35595 0.82864 0.0
O819 O 0.86206 0.29112 0.81266 0.0
O820 O 0.84688 0.30302 0.85099 0.0
O821 O 0.86888 0.33043 0.76641 0.0
O822 O 0.84158 0.29373 0.74484 0.0
O823 O 0.80907 0.26163 0.82005 0.0
O824 O 0.80837 0.26736 0.77697 0.0
O825 O 0.77499 0.30021 0.80003 0.0
O826 O 0.80312 0.32352 0.77502 0.0
O827 O 0.77194 0.27998 0.85191 0.0
O828 O 0.8016 0.31484 0.87483 0.0
C829 C 0.86431 0.29492 0.83883 0.0
O830 O 0.85568 0.34339 0.8156 0.0
O831 O 0.81799 0.34365 0.8321 0.0
C832 C 0.84871 0.33046 0.72338 0.0
C833 C 0.81833 0.34989 0.68717 0.0
C834 C 0.8242 0.36109 0.71412 0.0
C835 C 0.83922 0.35151 0.73199 0.0
C836 C 0.84397 0.31998 0.69633 0.0
C837 C 0.82901 0.32972 0.67831 0.0
C838 C 0.85834 0.31636 0.74313 0.0
C839 C 0.805 0.25189 0.79486 0.0
C840 C 0.779 0.31388 0.78043 0.0
C841 C 0.78626 0.27898 0.89647 0.0
C842 C 0.79859 0.25252 0.93774 0.0
C843 C 0.80514 0.2465 0.91252 0.0
C844 C 0.79915 0.25972 0.89211 0.0
C845 C 0.77967 0.28512 0.92152 0.0
C846 C 0.78581 0.272 0.94205 0.0
C847 C 0.78178 0.29399 0.87542 0.0
H848 H 0.81608 0.37637 0.72174 0.0
H849 H 0.84207 0.35965 0.75285 0.0
H850 H 0.85076 0.30349 0.68934 0.0
H851 H 0.82535 0.32107 0.65755 0.0
H852 H 0.81469 0.23142 0.90845 0.0
H853 H 0.80478 0.25504 0.87295 0.0
H854 H 0.77017 0.30031 0.9253 0.0
H855 H 0.7809 0.2774 0.96139 0.0
Dy856 Dy 0.78991 0.78352 0.79576 0.0
Dy857 Dy 0.82476 0.83884 0.82991 0.0
C858 C 0.80559 0.78997 0.85865 0.0
O859 O 0.76191 0.80834 0.79641 0.0
O860 O 0.78181 0.83547 0.83528 0.0
O861 O 0.75141 0.75421 0.78584 0.0
O862 O 0.78394 0.74873 0.76677 0.0
O863 O 0.81154 0.84826 0.79002 0.0
O864 O 0.80461 0.80771 0.76543 0.0
O865 O 0.85554 0.82286 0.81222 0.0
O866 O 0.83143 0.77907 0.80421 0.0
O867 O 0.85368 0.87738 0.8339 0.0
O868 O 0.83602 0.86471 0.86774 0.0
C869 C 0.76034 0.82428 0.8174 0.0
O870 O 0.78669 0.77998 0.83823 0.0
O871 O 0.82669 0.80912 0.85667 0.0
C872 C 0.75525 0.71202 0.77944 0.0
C873 C 0.7476 0.66285 0.79623 0.0
C874 C 0.76889 0.68497 0.80887 0.0
C875 C 0.77251 0.70929 0.8007 0.0
C876 C 0.73344 0.6905 0.76718 0.0
C877 C 0.7296 0.66595 0.77555 0.0
C878 C 0.75993 0.73781 0.7712 0.0
C879 C 0.80882 0.83318 0.76699 0.0
C880 C 0.8544 0.79783 0.806 0.0
C881 C 0.84204 0.90864 0.86174 0.0
C882 C 0.82564 0.95352 0.85714 0.0
C883 C 0.80688 0.9288 0.85661 0.0
C884 C 0.81501 0.90659 0.85884 0.0
C885 C 0.86097 0.9335 0.86436 0.0
C886 C 0.85282 0.95588 0.86221 0.0
C887 C 0.84994 0.88455 0.85794 0.0
H888 H 0.7837 0.68341 0.82429 0.0
H889 H 0.78924 0.7259 0.81062 0.0
H890 H 0.71969 0.69259 0.75102 0.0
H891 H 0.71299 0.64935 0.76549 0.0
H892 H 0.7858 0.92604 0.85231 0.0
H893 H 0.80003 0.88755 0.85657 0.0
H894 H 0.88192 0.93538 0.86655 0.0
H895 H 0.86774 0.97472 0.86301 0.0
Dy896 Dy 0.61245 0.57763 0.57657 0.0
Dy897 Dy 0.55203 0.54225 0.55381 0.0
C898 C 0.59527 0.55412 0.51385 0.0
O899 O 0.59102 0.60847 0.57154 0.0
O900 O 0.55254 0.58305 0.54503 0.0
O901 O 0.64099 0.61665 0.58586 0.0
O902 O 0.65238 0.583 0.59555 0.0
O903 O 0.55144 0.5628 0.59455 0.0
O904 O 0.59405 0.56802 0.61243 0.0
O905 O 0.57071 0.51217 0.56892 0.0
O906 O 0.61474 0.53526 0.57222 0.0
O907 O 0.51522 0.51598 0.56107 0.0
O908 O 0.51857 0.52691 0.52229 0.0
C909 C 0.56904 0.6066 0.55569 0.0
O910 O 0.61227 0.57149 0.53273 0.0
O911 O 0.57271 0.53857 0.51842 0.0
C912 C 0.6831 0.61479 0.57861 0.0
C913 C 0.72285 0.61035 0.54875 0.0
C914 C 0.69848 0.61136 0.53608 0.0
C915 C 0.67863 0.6134 0.55094 0.0
C916 C 0.70852 0.6176 0.59151 0.0
C917 C 0.72839 0.61557 0.57668 0.0
C918 C 0.66057 0.6078 0.59301 0.0
C919 C 0.5695 0.56606 0.61536 0.0
C920 C 0.59591 0.51295 0.57282 0.0
C921 C 0.47862 0.5241 0.53827 0.0
C922 C 0.43333 0.54036 0.54247 0.0
C923 C 0.45851 0.55913 0.54538 0.0
C924 C 0.48093 0.55106 0.54339 0.0
C925 C 0.45357 0.50524 0.53486 0.0
C926 C 0.43102 0.51331 0.53699 0.0
C927 C 0.50258 0.51594 0.53786 0.0
H928 H 0.69379 0.60764 0.51463 0.0
H929 H 0.65912 0.61144 0.54059 0.0
H930 H 0.71228 0.61875 0.61285 0.0
H931 H 0.74692 0.6148 0.5871 0.0
H932 H 0.46103 0.58007 0.55015 0.0
H933 H 0.50017 0.56589 0.54642 0.0
H934 H 0.45152 0.48433 0.53101 0.0
H935 H 0.41184 0.49845 0.53459 0.0
Dy936 Dy 0.03402 0.5551 0.06912 0.0
Dy937 Dy 0.08889 0.56507 0.04338 0.0
C938 C 0.03729 0.57084 0.01117 0.0
O939 O 0.03114 0.51436 0.04814 0.0
O940 O 0.07465 0.52042 0.04304 0.0
O941 O 0.99127 0.5408 0.06395 0.0
O942 O 1.01385 0.56073 0.10246 0.0
O943 O 0.09881 0.56496 0.08639 0.0
O944 O 0.05958 0.53887 0.0951 0.0
O945 O 0.08373 0.60637 0.05139 0.0
O946 O 0.05844 0.59758 0.08418 0.0
O947 O 0.13121 0.58434 0.04771 0.0
O948 O 0.11073 0.55619 0.01244 0.0
C949 C 0.05049 0.50451 0.043 0.0
O950 O 0.02784 0.57346 0.0334 0.0
O951 O 0.05797 0.5625 0.00957 0.0
C952 C 0.97382 0.56937 0.08929 0.0
C953 C 0.94133 0.60274 0.09087 0.0
C954 C 0.96641 0.61112 0.0829 0.0
C955 C 0.9825 0.59456 0.08211 0.0
C956 C 0.94887 0.56087 0.09714 0.0
C957 C 0.93275 0.57739 0.09793 0.0
C958 C 0.99043 0.55172 0.08785 0.0
C959 C 0.08548 0.54811 0.10002 0.0
C960 C 0.07253 0.61482 0.071 0.0
C961 C 0.15276 0.55445 0.03107 0.0
C962 C 0.18919 0.52682 0.04391 0.0
C963 C 0.19809 0.55416 0.04335 0.0
C964 C 0.18003 0.56783 0.03695 0.0
C965 C 0.14385 0.52708 0.03133 0.0
C966 C 0.16189 0.51339 0.03752 0.0
C967 C 0.13365 0.56936 0.02674 0.0
H968 H 0.97375 0.63058 0.0776 0.0
H969 H 1.00173 0.6014 0.07587 0.0
H970 H 0.94177 0.5414 0.1025 0.0
H971 H 0.91339 0.57013 0.10373 0.0
H972 H 0.21903 0.56502 0.048 0.0
H973 H 0.18732 0.58894 0.03708 0.0
H974 H 0.12288 0.5163 0.02726 0.0
H975 H 0.15437 0.49244 0.03813 0.0
H976 H 1.01997 0.19204 0.9804 0.0
H977 H 0.053 0.24274 0.05556 0.0
H978 H 0.06188 0.2053 0.07419 0.0
H979 H 0.06157 0.15736 0.06868 0.0
H980 H 1.02556 0.10751 0.99336 0.0
H981 H 1.01683 0.14483 0.97581 0.0
C982 C 0.029 0.1951 1.00097 0.0
C983 C 0.0358 0.22079 0.01631 0.0
C984 C 0.03373 0.17322 0.01171 0.0
C985 C 0.0473 0.2236 0.04303 0.0
C986 C 0.05254 0.202 0.05371 0.0
C987 C 0.05169 0.15456 0.04846 0.0
C988 C 0.04442 0.12894 0.03257 0.0
C989 C 0.04607 0.17658 0.03822 0.0
C990 C 0.03147 0.12638 1.00642 0.0
C991 C 1.02645 0.14797 0.99618 0.0
H992 H 0.19068 0.83395 0.1593 0.0
H993 H 0.14879 0.85154 0.22261 0.0
H994 H 0.18489 0.84975 0.25544 0.0
H995 H 0.22681 0.83922 0.26631 0.0
H996 H 0.26736 0.81934 0.20251 0.0
H997 H 0.23383 0.82603 0.17029 0.0
C998 C 0.18978 0.83808 0.18029 0.0
C999 C 0.16703 0.8431 0.18836 0.0
C1000 C 0.21033 0.83611 0.1992 0.0
C1001 C 0.16605 0.84777 0.21574 0.0
C1002 C 0.18666 0.84656 0.2346 0.0
C1003 C 0.22842 0.83652 0.24539 0.0
C1004 C 0.2497 0.82853 0.2371 0.0
C1005 C 0.20864 0.84005 0.2266 0.0
C1006 C 0.25126 0.82523 0.20975 0.0
C1007 C 0.23201 0.82911 0.19113 0.0
H1008 H 0.51185 0.87848 0.50134 0.0
H1009 H 0.58594 0.87886 0.54503 0.0
H1010 H 0.59835 0.92724 0.55729 0.0
H1011 H 0.5888 0.97049 0.55404 0.0
H1012 H 0.51356 0.96813 0.51095 0.0
H1013 H 0.50143 0.92018 0.50005 0.0
C1014 C 0.53069 0.88893 0.51382 0.0
C1015 C 0.5478 0.87439 0.52218 0.0
C1016 C 0.53776 0.91689 0.52071 0.0
C1017 C 0.57205 0.88893 0.5384 0.0
C1018 C 0.57929 0.91685 0.54523 0.0
C1019 C 0.56977 0.95952 0.54218 0.0
C1020 C 0.55229 0.97356 0.5332 0.0
C1021 C 0.56247 0.93124 0.53621 0.0
C1022 C 0.52759 0.95846 0.51821 0.0
C1023 C 0.52055 0.93078 0.51193 0.0
H1024 H 0.53322 0.3297 0.693 0.0
H1025 H 0.55414 0.26273 0.71668 0.0
H1026 H 0.51767 0.25358 0.74211 0.0
H1027 H 0.47949 0.26397 0.75734 0.0
H1028 H 0.4591 0.33184 0.73558 0.0
H1029 H 0.49524 0.34084 0.70943 0.0
C1030 C 0.52979 0.31314 0.70375 0.0
C1031 C 0.54647 0.29696 0.70287 0.0
C1032 C 0.50871 0.30797 0.71859 0.0
C1033 C 0.54173 0.27559 0.71699 0.0
C1034 C 0.5208 0.27027 0.73156 0.0
C1035 C 0.48309 0.28095 0.74719 0.0
C1036 C 0.46644 0.29712 0.7485 0.0
C1037 C 0.50417 0.2863 0.73251 0.0
C1038 C 0.47124 0.31873 0.73466 0.0
C1039 C 0.49207 0.32405 0.71982 0.0
H1040 H 0.03515 0.85167 0.68229 0.0
H1041 H 0.0999 0.82818 0.65481 0.0
H1042 H 0.10657 0.86184 0.62634 0.0
H1043 H 0.0947 0.89832 0.60952 0.0
H1044 H 0.0288 0.92106 0.63501 0.0
H1045 H 1.02227 0.88774 0.66412 0.0
C1046 C 0.05071 0.85395 0.67008 0.0
C1047 C 0.06699 0.83737 0.67079 0.0
C1048 C 0.05437 0.87333 0.65341 0.0
C1049 C 0.087 0.84055 0.6547 0.0
C1050 C 0.09089 0.85986 0.63837 0.0
C1051 C 0.07862 0.89581 0.6211 0.0
C1052 C 0.06232 0.91234 0.61994 0.0
C1053 C 0.0747 0.87634 0.63753 0.0
C1054 C 0.04197 0.90898 0.63567 0.0
C1055 C 0.03809 0.88977 0.65226 0.0
H1056 H 0.48142 0.81618 0.86688 0.0
H1057 H 0.50053 0.86551 0.80724 0.0
H1058 H 0.45358 0.86114 0.79498 0.0
H1059 H 0.40627 0.84397 0.80146 0.0
H1060 H 0.38756 0.7949 0.86148 0.0
H1061 H 0.43425 0.79857 0.87293 0.0
C1062 C 0.47539 0.8258 0.851 0.0
C1063 C 0.49506 0.84109 0.83801 0.0
C1064 C 0.44797 0.82341 0.84408 0.0
C1065 C 0.4863 0.85351 0.81768 0.0
C1066 C 0.45923 0.85108 0.81064 0.0
C1067 C 0.41232 0.83411 0.81712 0.0
C1068 C 0.39274 0.81918 0.8305 0.0
C1069 C 0.43975 0.83625 0.82379 0.0
C1070 C 0.40159 0.80656 0.85063 0.0
C1071 C 0.42857 0.80863 0.85728 0.0
H1072 H 0.53853 0.16575 0.19523 0.0
H1073 H 0.54471 0.21846 0.13748 0.0
H1074 H 0.54889 0.18439 0.10401 0.0
H1075 H 0.5536 0.14067 0.09112 0.0
H1076 H 0.54633 0.08636 0.14711 0.0
H1077 H 0.53981 0.11964 0.18082 0.0
C1078 C 0.54029 0.1696 0.17521 0.0
C1079 C 0.54144 0.19499 0.1692 0.0
C1080 C 0.54291 0.14964 0.15562 0.0
C1081 C 0.54393 0.1994 0.14302 0.0
C1082 C 0.54643 0.17986 0.12371 0.0
C1083 C 0.5506 0.136 0.11068 0.0
C1084 C 0.55087 0.111 0.11651 0.0
C1085 C 0.54652 0.15512 0.12986 0.0
C1086 C 0.54641 0.10538 0.14195 0.0
C1087 C 0.54266 0.12449 0.1613 0.0
H1088 H 0.1437 0.29155 0.3186 0.0
H1089 H 0.17499 0.37166 0.36009 0.0
H1090 H 0.21987 0.37204 0.35337 0.0
H1091 H 0.25143 0.34913 0.33659 0.0
H1092 H 0.2191 0.26898 0.29487 0.0
H1093 H 0.17461 0.26937 0.3008 0.0
C1094 C 0.16023 0.30925 0.32601 0.0
C1095 C 0.15533 0.33161 0.33984 0.0
C1096 C 0.18641 0.30935 0.32215 0.0
C1097 C 0.17756 0.35411 0.34929 0.0
C1098 C 0.20351 0.35432 0.3455 0.0
C1099 C 0.23472 0.33173 0.3287 0.0
C1100 C 0.23939 0.30899 0.31522 0.0
C1101 C 0.2084 0.33198 0.33212 0.0
C1102 C 0.21687 0.28687 0.30529 0.0
C1103 C 0.19106 0.28701 0.30869 0.0
H1104 H 0.97697 0.04658 0.19374 0.0
H1105 H 0.05389 0.05317 0.23619 0.0
H1106 H 0.07313 0.0587 0.19549 0.0
H1107 H 0.06805 0.06084 0.14782 0.0
H1108 H 0.99096 0.05303 0.10496 0.0
H1109 H 0.97191 0.04885 0.14595 0.0
C1110 C 0.998 0.04934 0.19422 0.0
C1111 C 1.01394 0.04949 0.21822 0.0
C1112 C 1.0089 0.05225 0.17063 0.0
C1113 C 0.0411 0.05295 0.21818 0.0
C1114 C 0.05213 0.05612 0.19485 0.0
C1115 C 0.04707 0.05836 0.14734 0.0
C1116 C 0.03101 0.05735 0.12315 0.0
C1117 C 0.0362 0.05569 0.17095 0.0
C1118 C 1.00385 0.05392 0.12314 0.0
C1119 C 0.99293 0.05151 0.14663 0.0
H1120 H 0.29151 0.75348 0.53882 0.0
H1121 H 0.3323 0.70553 0.49799 0.0
H1122 H 0.33219 0.72999 0.46078 0.0
H1123 H 0.31629 0.7618 0.43818 0.0
H1124 H 0.27406 0.80833 0.47874 0.0
H1125 H 0.27895 0.78752 0.51792 0.0
C1126 C 0.30063 0.74849 0.52192 0.0
C1127 C 0.31163 0.72751 0.52102 0.0
C1128 C 0.30004 0.76224 0.50053 0.0
C1129 C 0.32359 0.72151 0.49909 0.0
C1130 C 0.32345 0.73543 0.4778 0.0
C1131 C 0.30868 0.76778 0.45582 0.0
C1132 C 0.29471 0.78645 0.45559 0.0
C1133 C 0.31115 0.75539 0.47806 0.0
C1134 C 0.28463 0.79379 0.47841 0.0
C1135 C 0.28744 0.78193 0.50077 0.0
H1136 H 0.61276 1.00758 0.70774 0.0
H1137 H 0.68173 1.00667 0.67134 0.0
H1138 H 0.65872 1.0101 0.62887 0.0
H1139 H 0.6242 0.02495 0.60609 0.0
H1140 H 0.55643 0.02911 0.64279 0.0
H1141 H 0.57403 1.0134 0.68163 0.0
C1142 C 0.62246 1.00723 0.69031 0.0
C1143 C 0.64933 1.00815 0.69292 0.0
C1144 C 0.60976 1.01096 0.66644 0.0
C1145 C 0.66128 1.00661 0.67003 0.0
C1146 C 0.64828 1.00901 0.64581 0.0
C1147 C 0.61318 0.02216 0.62246 0.0
C1148 C 0.5897 0.0291 0.62222 0.0
C1149 C 0.62343 1.01329 0.64446 0.0
C1150 C 0.57494 0.02446 0.64299 0.0
C1151 C 0.58493 0.0154 0.66506 0.0
H1152 H 0.35035 0.33493 0.99046 0.0
H1153 H 0.27868 0.35746 0.98491 0.0
H1154 H 0.27266 0.3472 0.93648 0.0
H1155 H 0.28883 0.33375 0.89546 0.0
H1156 H 0.36181 0.31344 0.90123 0.0
H1157 H 0.36618 0.32095 0.94955 0.0
C1158 C 0.3332 0.33727 0.9787 0.0
C1159 C 0.31489 0.34681 0.99147 0.0
C1160 C 0.33022 0.33197 0.95075 0.0
C1161 C 0.29305 0.35008 0.97574 0.0
C1162 C 0.28964 0.34429 0.94798 0.0
C1163 C 0.30565 0.33082 0.90724 0.0
C1164 C 0.32498 0.32303 0.89449 0.0
C1165 C 0.30828 0.33554 0.93521 0.0
C1166 C 0.34666 0.31952 0.9103 0.0
C1167 C 0.34917 0.32377 0.93803 0.0
H1168 H 0.04834 0.03009 0.37491 0.0
H1169 H 0.99858 0.08101 0.37586 0.0
H1170 H 1.00702 0.08938 0.42436 0.0
H1171 H 1.02701 0.08074 0.46676 0.0
H1172 H 0.0762 0.02916 0.46542 0.0
H1173 H 0.06943 0.02263 0.4171 0.0
C1174 C 0.03956 0.04328 0.38567 0.0
C1175 C 1.02285 0.05492 0.37156 0.0
C1176 C 0.0442 0.04773 0.41366 0.0
C1177 C 1.01156 0.0718 0.38604 0.0
C1178 C 1.0163 0.07652 0.41386 0.0
C1179 C 0.03631 0.06809 0.45596 0.0
C1180 C 0.05201 0.05538 0.47 0.0
C1181 C 0.0323 0.06432 0.42793 0.0
C1182 C 0.06394 0.03918 0.45541 0.0
C1183 C 0.0601 0.03542 0.42764 0.0
H1184 H 0.32224 0.74207 0.64414 0.0
H1185 H 0.33918 0.67879 0.6802 0.0
H1186 H 0.34088 0.70302 0.72419 0.0
H1187 H 0.33229 0.73958 0.75175 0.0
H1188 H 0.31273 0.80133 0.71495 0.0
H1189 H 0.31722 0.78009 0.67178 0.0
C1190 C 0.32676 0.73369 0.66159 0.0
C1191 C 0.33025 0.70849 0.65885 0.0
C1192 C 0.32678 0.74724 0.68665 0.0
C1193 C 0.33624 0.69808 0.68173 0.0
C1194 C 0.33705 0.71185 0.70688 0.0
C1195 C 0.32924 0.74853 0.73433 0.0
C1196 C 0.32181 0.7718 0.73652 0.0
C1197 C 0.33145 0.73601 0.70948 0.0
C1198 C 0.31813 0.78324 0.71379 0.0
C1199 C 0.32076 0.77116 0.68909 0.0
H1200 H 0.68383 0.084 0.85173 0.0
H1201 H 0.61108 0.07946 0.80225 0.0
H1202 H 0.593 0.09296 0.84122 0.0
H1203 H 0.59722 0.10439 0.88934 0.0
H1204 H 0.67012 0.10989 0.93899 0.0
H1205 H 0.68893 0.09785 0.89987 0.0
C1206 C 0.66399 0.08588 0.84954 0.0
C1207 C 0.64871 0.08055 0.82428 0.0
C1208 C 0.65385 0.09398 0.87197 0.0
C1209 C 0.62319 0.08341 0.82158 0.0
C1210 C 0.61285 0.09117 0.84381 0.0
C1211 C 0.61743 0.10353 0.89154 0.0
C1212 C 0.63227 0.10799 0.91692 0.0
C1213 C 0.62798 0.09644 0.86908 0.0
C1214 C 0.65827 0.10633 0.91957 0.0
C1215 C 0.669 0.09941 0.89727 0.0
H1216 H 0.32263 0.32724 0.13473 0.0
H1217 H 0.29554 0.39366 0.16009 0.0
H1218 H 0.29276 0.38093 0.20362 0.0
H1219 H 0.29947 0.35211 0.23565 0.0
H1220 H 0.32538 0.28492 0.21078 0.0
H1221 H 0.32704 0.29671 0.16644 0.0
C1222 C 0.31589 0.3388 0.14968 0.0
C1223 C 0.30945 0.36153 0.14382 0.0
C1224 C 0.31423 0.33132 0.17508 0.0
C1225 C 0.30074 0.37613 0.1637 0.0
C1226 C 0.29917 0.3689 0.18881 0.0
C1227 C 0.3054 0.33996 0.22053 0.0
C1228 C 0.31242 0.31771 0.22678 0.0
C1229 C 0.30613 0.34674 0.19489 0.0
C1230 C 0.31986 0.30217 0.20671 0.0
C1231 C 0.32086 0.30893 0.18125 0.0
H1232 H 0.25365 0.0411 0.00979 0.0
H1233 H 0.31711 0.08338 0.07378 0.0
H1234 H 0.29866 0.12007 0.07866 0.0
H1235 H 0.26011 0.13575 0.07076 0.0
H1236 H 0.19421 0.09044 0.01032 0.0
H1237 H 0.21881 0.0607 0.99686 0.0
C1238 C 0.26369 0.05855 0.02447 0.0
C1239 C 0.28619 0.05919 0.04192 0.0
C1240 C 0.25262 0.07931 0.02767 0.0
C1241 C 0.29933 0.08213 0.0605 0.0
C1242 C 0.28887 0.10319 0.06327 0.0
C1243 C 0.25137 0.1197 0.05426 0.0
C1244 C 0.22499 0.11489 0.04235 0.0
C1245 C 0.26481 0.10137 0.04787 0.0
C1246 C 0.21438 0.09469 0.02019 0.0
C1247 C 0.22827 0.07723 0.01271 0.0
H1248 H 0.70402 0.68824 0.03472 0.0
H1249 H 0.74833 0.63694 0.05947 0.0
H1250 H 0.70714 0.60309 0.06193 0.0
H1251 H 0.65866 0.58905 0.05969 0.0
H1252 H 0.61466 0.64092 0.03566 0.0
H1253 H 0.65556 0.67339 0.03039 0.0
C1254 C 0.70469 0.66953 0.04031 0.0
C1255 C 0.72929 0.66525 0.047 0.0
C1256 C 0.68096 0.65028 0.04213 0.0
C1257 C 0.72971 0.64086 0.05429 0.0
C1258 C 0.70615 0.62148 0.0558 0.0
C1259 C 0.65799 0.60742 0.05325 0.0
C1260 C 0.63357 0.61252 0.04831 0.0
C1261 C 0.68168 0.62617 0.05027 0.0
C1262 C 0.63313 0.63641 0.03976 0.0
C1263 C 0.65655 0.65506 0.03669 0.0
H1264 H 0.71794 0.51672 0.27388 0.0
H1265 H 0.68291 0.48952 0.3409 0.0
H1266 H 0.70819 0.45784 0.34201 0.0
H1267 H 0.74092 0.4385 0.32415 0.0
H1268 H 0.77458 0.46573 0.25638 0.0
H1269 H 0.74936 0.49706 0.25565 0.0
C1270 C 0.71576 0.50388 0.28878 0.0
C1271 C 0.6986 0.50553 0.30733 0.0
C1272 C 0.73026 0.48584 0.28926 0.0
C1273 C 0.69598 0.48864 0.32638 0.0
C1274 C 0.71046 0.47056 0.32704 0.0
C1275 C 0.74257 0.45115 0.3091 0.0
C1276 C 0.75986 0.44989 0.29051 0.0
C1277 C 0.72773 0.46904 0.30858 0.0
C1278 C 0.7619 0.46661 0.27129 0.0
C1279 C 0.74732 0.48442 0.2707 0.0
H1280 H 0.86994 0.49008 0.52508 0.0
H1281 H 0.87576 0.43655 0.58003 0.0
H1282 H 0.92354 0.45902 0.59208 0.0
H1283 H 0.96311 0.49518 0.58804 0.0
H1284 H 0.95696 0.54708 0.53144 0.0
H1285 H 0.9095 0.52408 0.51906 0.0
C1286 C 0.88171 0.48321 0.53956 0.0
C1287 C 0.86949 0.4619 0.55183 0.0
C1288 C 0.9089 0.49612 0.54626 0.0
C1289 C 0.8849 0.45289 0.57028 0.0
C1290 C 0.91209 0.46585 0.5773 0.0
C1291 C 0.95124 0.50148 0.57317 0.0
C1292 C 0.96316 0.52292 0.5609 0.0
C1293 C 0.92419 0.48774 0.5657 0.0
C1294 C 0.94797 0.53065 0.54117 0.0
C1295 C 0.92095 0.51751 0.53408 0.0
H1296 H 0.34953 0.0732 0.24908 0.0
H1297 H 0.40821 0.13723 0.30255 0.0
H1298 H 0.39085 0.16921 0.28268 0.0
H1299 H 0.35538 0.17816 0.25502 0.0
H1300 H 0.29456 0.1142 0.20394 0.0
H1301 H 0.31705 0.08279 0.2174 0.0
C1302 C 0.35863 0.09416 0.25631 0.0
C1303 C 0.3797 0.10287 0.27765 0.0
C1304 C 0.34837 0.11233 0.24504 0.0
C1305 C 0.39166 0.13006 0.28644 0.0
C1306 C 0.38184 0.14833 0.27502 0.0
C1307 C 0.34758 0.15751 0.24597 0.0
C1308 C 0.32336 0.14839 0.22853 0.0
C1309 C 0.35975 0.1396 0.25487 0.0
C1310 C 0.31322 0.12154 0.21737 0.0
C1311 C 0.32588 0.10362 0.22532 0.0
H1312 H 0.37719 0.17944 0.53356 0.0
H1313 H 0.33486 0.14378 0.59313 0.0
H1314 H 0.36274 0.11514 0.59659 0.0
H1315 H 0.39962 0.10067 0.58366 0.0
H1316 H 0.44203 0.13521 0.52372 0.0
H1317 H 0.41397 0.164 0.51978 0.0
C1318 C 0.37404 0.16534 0.5472 0.0
C1319 C 0.35394 0.16384 0.56304 0.0
C1320 C 0.39028 0.1488 0.54921 0.0
C1321 C 0.35016 0.14545 0.58068 0.0
C1322 C 0.36612 0.12901 0.58272 0.0
C1323 C 0.40255 0.11423 0.56946 0.0
C1324 C 0.42289 0.11569 0.554 0.0
C1325 C 0.38627 0.13056 0.56717 0.0
C1326 C 0.42671 0.13385 0.53612 0.0
C1327 C 0.41057 0.15023 0.53373 0.0
H1328 H 0.6731 0.66403 0.32469 0.0
H1329 H 0.73405 0.62635 0.3365 0.0
H1330 H 0.76827 0.66838 0.33759 0.0
H1331 H 0.78069 0.71527 0.33146 0.0
H1332 H 0.7188 0.75117 0.31599 0.0
H1333 H 0.68539 0.71071 0.32027 0.0
C1334 C 0.69389 0.66509 0.32795 0.0
C1335 C 0.70099 0.64211 0.33049 0.0
C1336 C 0.71339 0.68907 0.32767 0.0
C1337 C 0.72803 0.64377 0.33439 0.0
C1338 C 0.74763 0.66779 0.33496 0.0
C1339 C 0.75992 0.71424 0.32933 0.0
C1340 C 0.75229 0.73618 0.32333 0.0
C1341 C 0.74053 0.69048 0.33102 0.0
C1342 C 0.72525 0.73454 0.32045 0.0
C1343 C 0.70606 0.71138 0.3229 0.0
H1344 H 0.90045 0.47757 0.84819 0.0
H1345 H 0.8264 0.4786 0.87396 0.0
H1346 H 0.81256 0.43058 0.87054 0.0
H1347 H 0.81879 0.38845 0.85394 0.0
H1348 H 0.89154 0.3873 0.82502 0.0
H1349 H 0.90868 0.4353 0.8361 0.0
C1350 C 0.88159 0.4673 0.8537 0.0
C1351 C 0.86429 0.48137 0.86096 0.0
C1352 C 0.87334 0.43971 0.85064 0.0
C1353 C 0.83987 0.46798 0.868 0.0
C1354 C 0.83191 0.44058 0.86595 0.0
C1355 C 0.83852 0.39866 0.85034 0.0
C1356 C 0.85364 0.38445 0.83822 0.0
C1357 C 0.84802 0.42622 0.85621 0.0
C1358 C 0.87932 0.39788 0.83399 0.0
C1359 C 0.88918 0.42531 0.84034 0.0
H1360 H 0.13019 0.91996 0.08386 0.0
H1361 H 0.05121 0.88371 0.09943 0.0
H1362 H 0.0383 0.92204 0.08886 0.0
H1363 H 0.04894 0.96663 0.07536 0.0
H1364 H 0.12868 1.0048 0.06309 0.0
H1365 H 0.1414 0.96577 0.0721 0.0
C1366 C 0.11009 0.9203 0.08485 0.0
C1367 C 0.09173 0.89821 0.09235 0.0
C1368 C 0.10278 0.94319 0.07932 0.0
C1369 C 0.06594 0.89986 0.09377 0.0
C1370 C 0.05846 0.92201 0.08767 0.0
C1371 C 0.06915 0.96655 0.07456 0.0
C1372 C 0.08765 0.98919 0.0682 0.0
C1373 C 0.07663 0.94392 0.08044 0.0
C1374 C 0.11379 0.98815 0.06779 0.0
C1375 C 0.12113 0.96559 0.07296 0.0
H1376 H 0.96777 0.27323 0.89295 0.0
H1377 H 0.93741 0.29484 0.96387 0.0
H1378 H 0.89899 0.30001 0.9368 0.0
H1379 H 0.8746 0.29989 0.89305 0.0
H1380 H 0.90537 0.27906 0.82213 0.0
H1381 H 0.94285 0.27216 0.84914 0.0
C1382 C 0.95269 0.27887 0.90258 0.0
C1383 C 0.95569 0.28359 0.9306 0.0
C1384 C 0.93069 0.28216 0.88683 0.0
C1385 C 0.93582 0.29104 0.94247 0.0
C1386 C 0.91379 0.29408 0.92695 0.0
C1387 C 0.88945 0.29382 0.88339 0.0
C1388 C 0.88702 0.29017 0.85539 0.0
C1389 C 0.91113 0.28996 0.89912 0.0
C1390 C 0.90657 0.28215 0.8435 0.0
C1391 C 0.92809 0.27817 0.859 0.0
H1392 H 0.57594 0.22639 0.62346 0.0
H1393 H 0.6282 0.25393 0.56792 0.0
H1394 H 0.62547 0.20786 0.55125 0.0
H1395 H 0.60899 0.1588 0.55359 0.0
H1396 H 0.55691 0.13382 0.61032 0.0
H1397 H 0.55922 0.17929 0.62518 0.0
C1398 C 0.58672 0.22261 0.60752 0.0
C1399 C 0.60226 0.24427 0.59709 0.0
C1400 C 0.58533 0.19606 0.59831 0.0
C1401 C 0.61585 0.23815 0.57638 0.0
C1402 C 0.61443 0.2116 0.56695 0.0
C1403 C 0.59825 0.16328 0.5693 0.0
C1404 C 0.58286 0.14216 0.58077 0.0
C1405 C 0.59945 0.19022 0.57797 0.0
C1406 C 0.56898 0.14897 0.60092 0.0
C1407 C 0.57022 0.17525 0.60953 0.0
H1408 H 0.61285 0.79498 0.45209 0.0
H1409 H 0.54642 0.787 0.39182 0.0
H1410 H 0.57564 0.79205 0.35828 0.0
H1411 H 0.62046 0.80064 0.34622 0.0
H1412 H 0.68688 0.80986 0.4069 0.0
H1413 H 0.65727 0.80227 0.43989 0.0
C1414 C 0.60465 0.79402 0.4316 0.0
C1415 C 0.57741 0.79065 0.42463 0.0
C1416 C 0.62163 0.79733 0.41238 0.0
C1417 C 0.56729 0.78962 0.39788 0.0
C1418 C 0.58401 0.79259 0.37863 0.0
C1419 C 0.62846 0.80109 0.36668 0.0
C1420 C 0.65589 0.80578 0.37398 0.0
C1421 C 0.6113 0.79688 0.38571 0.0
C1422 C 0.66583 0.80595 0.40057 0.0
C1423 C 0.64891 0.80174 0.41954 0.0
H1424 H 0.06641 0.30866 0.46818 0.0
H1425 H 0.0948 0.26647 0.40676 0.0
H1426 H 0.09063 0.22988 0.43147 0.0
H1427 H 0.07636 0.20855 0.4691 0.0
H1428 H 0.04842 0.25067 0.53088 0.0
H1429 H 0.05463 0.28828 0.50724 0.0
C1430 C 0.07199 0.29159 0.4603 0.0
C1431 C 0.08079 0.29038 0.4355 0.0
C1432 C 0.06928 0.27038 0.47452 0.0
C1433 C 0.08786 0.26802 0.42567 0.0
C1434 C 0.08542 0.24698 0.4398 0.0
C1435 C 0.072 0.22608 0.47764 0.0
C1436 C 0.06173 0.22657 0.50168 0.0
C1437 C 0.07577 0.24776 0.46403 0.0
C1438 C 0.05586 0.24944 0.51217 0.0
C1439 C 0.05959 0.27108 0.49875 0.0
H1440 H 0.63205 0.24011 0.26549 0.0
H1441 H 0.63742 0.32256 0.27956 0.0
H1442 H 0.68544 0.33442 0.29312 0.0
H1443 H 0.7269 0.32191 0.29818 0.0
H1444 H 0.72203 0.23948 0.2831 0.0
H1445 H 0.67368 0.22737 0.27284 0.0
C1446 C 0.6436 0.2606 0.27238 0.0
C1447 C 0.63062 0.28033 0.27226 0.0
C1448 C 0.67175 0.26745 0.27948 0.0
C1449 C 0.64645 0.30686 0.28014 0.0
C1450 C 0.67412 0.3137 0.28761 0.0
C1451 C 0.71537 0.30124 0.29274 0.0
C1452 C 0.72872 0.28175 0.29137 0.0
C1453 C 0.68718 0.29426 0.28687 0.0
C1454 C 0.71285 0.25511 0.28434 0.0
C1455 C 0.68495 0.24809 0.27847 0.0
H1456 H 0.5668 0.93733 0.91304 0.0
H1457 H 0.60099 0.90241 0.97371 0.0
H1458 H 0.5998 0.93775 1.00754 0.0
H1459 H 0.58798 0.97776 0.02073 0.0
H1460 H 0.55348 1.01354 0.96124 0.0
H1461 H 0.55595 0.97898 0.92652 0.0
C1462 C 0.57418 0.93757 0.93362 0.0
C1463 C 0.5839 0.91693 0.94058 0.0
C1464 C 0.57328 0.95814 0.95341 0.0
C1465 C 0.59325 0.91773 0.96752 0.0
C1466 C 0.5926 0.93803 0.98704 0.0
C1467 C 0.58102 0.97816 1.00019 0.0
C1468 C 0.57044 0.99835 0.99382 0.0
C1469 C 0.58243 0.95819 0.98031 0.0
C1470 C 0.56166 0.99833 0.96692 0.0
C1471 C 0.56307 0.97849 0.94698 0.0
H1472 H 0.95105 0.74961 0.79074 0.0
H1473 H 0.98424 0.82486 0.76646 0.0
H1474 H 0.94516 0.83769 0.77556 0.0
H1475 H 0.9006 0.82782 0.7901 0.0
H1476 H 0.86553 0.75115 0.81062 0.0
H1477 H 0.90545 0.73896 0.80341 0.0
C1478 C 0.94988 0.7689 0.78754 0.0
C1479 C 0.97129 0.78625 0.77805 0.0
C1480 C 0.92655 0.77603 0.79215 0.0
C1481 C 0.96859 0.81095 0.77374 0.0
C1482 C 0.94602 0.81837 0.77899 0.0
C1483 C 0.90161 0.80843 0.79311 0.0
C1484 C 0.87957 0.79062 0.80125 0.0
C1485 C 0.92473 0.80114 0.78817 0.0
C1486 C 0.88171 0.76548 0.80449 0.0
C1487 C 0.90478 0.75844 0.80035 0.0
H1488 H 0.11231 0.10602 0.90063 0.0
H1489 H 0.10366 0.02439 0.87246 0.0
H1490 H 0.09334 1.01294 0.91568 0.0
H1491 H 0.0868 0.02652 0.96208 0.0
H1492 H 0.10016 0.10933 0.99032 0.0
H1493 H 0.10868 0.11984 0.94688 0.0
C1494 C 0.10801 0.08568 0.9039 0.0
C1495 C 0.10837 0.06604 0.88322 0.0
C1496 C 0.10308 0.07946 0.92903 0.0
C1497 C 0.10336 0.03987 0.88799 0.0
C1498 C 0.09747 0.03334 0.91274 0.0
C1499 C 0.09169 0.04684 0.95868 0.0
C1500 C 0.09283 0.06706 0.97959 0.0
C1501 C 0.0973 0.05299 0.93352 0.0
C1502 C 0.09937 0.09333 0.97482 0.0
C1503 C 0.10412 0.09941 0.94985 0.0
H1504 H 0.74791 0.37163 0.59187 0.0
H1505 H 0.78552 0.45199 0.63146 0.0
H1506 H 0.80291 0.436 0.66981 0.0
H1507 H 0.81612 0.40009 0.68673 0.0
H1508 H 0.78008 0.31977 0.64627 0.0
H1509 H 0.7542 0.33504 0.61307 0.0
C1510 C 0.7592 0.38568 0.60922 0.0
C1511 C 0.76631 0.41296 0.60836 0.0
C1512 C 0.77045 0.37641 0.6305 0.0
C1513 C 0.78021 0.43086 0.63132 0.0
C1514 C 0.79053 0.42173 0.65313 0.0
C1515 C 0.80218 0.38579 0.67103 0.0
C1516 C 0.80071 0.35891 0.66854 0.0
C1517 C 0.7873 0.39467 0.65206 0.0
C1518 C 0.78244 0.34072 0.64805 0.0
C1519 C 0.76733 0.34937 0.62926 0.0
H1520 H 0.52749 0.08307 0.38851 0.0
H1521 H 0.46571 0.10883 0.41986 0.0
H1522 H 0.48674 0.11022 0.46509 0.0
H1523 H 0.5176 0.0958 0.49448 0.0
H1524 H 0.57719 0.06673 0.46204 0.0
H1525 H 0.56195 0.07479 0.41833 0.0
C1526 C 0.519 0.08964 0.40528 0.0
C1527 C 0.49485 0.09527 0.40099 0.0
C1528 C 0.5304 0.0891 0.43093 0.0
C1529 C 0.48426 0.10428 0.42276 0.0
C1530 C 0.49608 0.10472 0.44857 0.0
C1531 C 0.52746 0.09151 0.47792 0.0
C1532 C 0.54802 0.08001 0.48132 0.0
C1533 C 0.51831 0.09576 0.45273 0.0
C1534 C 0.56096 0.07508 0.45982 0.0
C1535 C 0.55233 0.07977 0.43484 0.0
H1536 H 0.83433 0.76042 0.14979 0.0
H1537 H 0.77549 0.79441 0.11845 0.0
H1538 H 0.77012 0.81027 0.16371 0.0
H1539 H 0.7793 0.81061 0.21263 0.0
H1540 H 0.83745 0.7746 0.24192 0.0
H1541 H 0.84565 0.76344 0.19728 0.0
C1542 C 0.82053 0.7716 0.15272 0.0
C1543 C 0.80523 0.77599 0.13061 0.0
C1544 C 0.81705 0.77999 0.17865 0.0
C1545 C 0.78764 0.79076 0.13502 0.0
C1546 C 0.78438 0.79963 0.16096 0.0
C1547 C 0.79384 0.80047 0.20918 0.0
C1548 C 0.80727 0.79301 0.23072 0.0
C1549 C 0.79847 0.79374 0.183 0.0
C1550 C 0.82628 0.78009 0.22583 0.0
C1551 C 0.83118 0.77378 0.20023 0.0
H1552 H 0.10061 0.10236 0.73426 0.0
H1553 H 0.09654 0.02017 0.72621 0.0
H1554 H 0.08111 0.01423 0.67858 0.0
H1555 H 0.07284 0.03319 0.63879 0.0
H1556 H 0.07993 0.11616 0.64567 0.0
H1557 H 0.09015 0.12105 0.69399 0.0
C1558 C 0.0956 0.08303 0.72213 0.0
C1559 C 0.09925 0.06159 0.73378 0.0
C1560 C 0.08781 0.08004 0.69444 0.0
C1561 C 0.09353 0.03684 0.71773 0.0
C1562 C 0.08493 0.0335 0.69047 0.0
C1563 C 0.07641 0.05236 0.65075 0.0
C1564 C 0.07573 0.0743 0.63838 0.0
C1565 C 0.08268 0.05511 0.6785 0.0
C1566 C 0.08044 0.09892 0.65448 0.0
C1567 C 0.08626 0.10173 0.68219 0.0
H1568 H 0.77913 0.34401 0.47368 0.0
H1569 H 0.77754 0.41749 0.44819 0.0
H1570 H 0.78407 0.40085 0.40379 0.0
H1571 H 0.7942 0.36689 0.37366 0.0
H1572 H 0.79685 0.2941 0.40038 0.0
H1573 H 0.78616 0.30925 0.44305 0.0
C1574 C 0.77986 0.35631 0.45834 0.0
C1575 C 0.77814 0.38201 0.46424 0.0
C1576 C 0.78425 0.34694 0.43325 0.0
C1577 C 0.77885 0.3976 0.44411 0.0
C1578 C 0.7828 0.3882 0.41881 0.0
C1579 C 0.79247 0.35437 0.38884 0.0
C1580 C 0.79667 0.32957 0.38396 0.0
C1581 C 0.78629 0.36318 0.41341 0.0
C1582 C 0.79388 0.31336 0.40364 0.0
C1583 C 0.78772 0.32196 0.42806 0.0
H1584 H 0.42797 1.00791 0.24047 0.0
H1585 H 0.50107 0.06815 0.27645 0.0
H1586 H 0.52425 0.0521 0.24307 0.0
H1587 H 0.52369 0.02144 0.20369 0.0
H1588 H 0.45081 0.9621 0.16643 0.0
H1589 H 0.42745 0.97712 0.20071 0.0
C1590 C 0.44895 0.01761 0.24095 0.0
C1591 C 0.46279 0.03919 0.26088 0.0
C1592 C 0.46217 1.00824 0.22178 0.0
C1593 C 0.48996 0.05154 0.26127 0.0
C1594 C 0.50326 0.04231 0.24229 0.0
C1595 C 0.50281 1.01146 0.20344 0.0
C1596 C 0.48897 0.99042 0.18308 0.0
C1597 C 0.48958 0.02063 0.22261 0.0
C1598 C 0.46177 0.97814 0.18227 0.0
C1599 C 0.44848 0.98682 0.20169 0.0
H1600 H 0.76402 0.75683 0.96364 0.0
H1601 H 0.84762 0.77474 0.99121 0.0
H1602 H 0.85759 0.78671 0.94808 0.0
H1603 H 0.84219 0.79231 0.90215 0.0
H1604 H 0.75804 0.77007 0.87433 0.0
H1605 H 0.74871 0.75946 0.91758 0.0
C1606 C 0.78444 0.76347 0.96024 0.0
C1607 C 0.80507 0.76526 0.98072 0.0
C1608 C 0.78993 0.76941 0.93517 0.0
C1609 C 0.83139 0.77333 0.97581 0.0
C1610 C 0.83708 0.78016 0.95113 0.0
C1611 C 0.82185 0.78502 0.90557 0.0
C1612 C 0.80088 0.78206 0.8849 0.0
C1613 C 0.81649 0.7783 0.93059 0.0
C1614 C 0.77461 0.77239 0.88968 0.0
C1615 C 0.7692 0.76642 0.91453 0.0
H1616 H 0.8537 0.09905 0.0573 0.0
H1617 H 0.86787 0.06114 0.12453 0.0
H1618 H 0.88859 0.03391 0.09833 0.0
H1619 H 0.90582 0.02353 0.05783 0.0
H1620 H 0.89362 0.06234 0.99097 0.0
H1621 H 0.86847 0.08636 0.01546 0.0
C1622 C 0.86125 0.08477 0.06619 0.0
C1623 C 0.85953 0.08233 0.09289 0.0
C1624 C 0.87327 0.06926 0.05106 0.0
C1625 C 0.86916 0.06357 0.10408 0.0
C1626 C 0.88093 0.04793 0.0891 0.0
C1627 C 0.89695 0.03663 0.0483 0.0
C1628 C 0.9013 0.04106 0.02261 0.0
C1629 C 0.88339 0.05087 0.06273 0.0
C1630 C 0.89037 0.05862 0.01074 0.0
C1631 C 0.8762 0.07244 0.02478 0.0
H1632 H 0.41474 0.42334 0.05947 0.0
H1633 H 0.38435 0.48428 0.09379 0.0
H1634 H 0.42578 0.51792 0.09163 0.0
H1635 H 0.47044 0.53022 0.07928 0.0
H1636 H 0.50035 0.46913 0.04433 0.0
H1637 H 0.45936 0.43556 0.04744 0.0
C1638 C 0.4172 0.44395 0.06663 0.0
C1639 C 0.39641 0.45119 0.07678 0.0
C1640 C 0.441 0.46328 0.0651 0.0
C1641 C 0.39997 0.47807 0.08583 0.0
C1642 C 0.42368 0.49738 0.08459 0.0
C1643 C 0.46801 0.50958 0.07233 0.0
C1644 C 0.48851 0.50233 0.06151 0.0
C1645 C 0.44428 0.49024 0.0741 0.0
C1646 C 0.48494 0.47541 0.05265 0.0
C1647 C 0.46148 0.45611 0.05445 0.0
H1648 H 0.442 0.62864 0.83065 0.0
H1649 H 0.3929 0.58827 0.7561 0.0
H1650 H 0.36279 0.61424 0.7627 0.0
H1651 H 0.34975 0.64784 0.78974 0.0
H1652 H 0.39841 0.68889 0.86407 0.0
H1653 H 0.42935 0.66339 0.85742 0.0
C1654 C 0.42481 0.62567 0.8158 0.0
C1655 C 0.41974 0.60647 0.79297 0.0
C1656 C 0.40739 0.64071 0.81971 0.0
C1657 C 0.39733 0.60286 0.7739 0.0
C1658 C 0.38001 0.61767 0.77765 0.0
C1659 C 0.36701 0.65102 0.80459 0.0
C1660 C 0.37167 0.66999 0.82746 0.0
C1661 C 0.3847 0.63646 0.80056 0.0
C1662 C 0.39443 0.67437 0.84627 0.0
C1663 C 0.41208 0.65978 0.84249 0.0
H1664 H 0.22313 0.59831 0.59955 0.0
H1665 H 0.21413 0.65192 0.54546 0.0
H1666 H 0.16624 0.63721 0.54432 0.0
H1667 H 0.12743 0.61099 0.56021 0.0
H1668 H 0.13568 0.55732 0.61443 0.0
H1669 H 0.18358 0.57044 0.61414 0.0
C1670 C 0.21066 0.60653 0.58726 0.0
C1671 C 0.2222 0.62626 0.5727 0.0
C1672 C 0.18313 0.5983 0.58701 0.0
C1673 C 0.20578 0.6368 0.55697 0.0
C1674 C 0.1784 0.62848 0.55636 0.0
C1675 C 0.13964 0.60218 0.57209 0.0
C1676 C 0.12804 0.58343 0.58758 0.0
C1677 C 0.16697 0.60962 0.57167 0.0
C1678 C 0.14416 0.57195 0.60249 0.0
C1679 C 0.17152 0.57938 0.60227 0.0
H1680 H 0.78799 0.02574 0.78569 0.0
H1681 H 0.72102 1.00589 0.82753 0.0
H1682 H 0.74474 0.98505 0.85744 0.0
H1683 H 0.78247 0.96831 0.86814 0.0
H1684 H 0.84797 0.98645 0.82401 0.0
H1685 H 0.82738 1.01326 0.79944 0.0
C1686 C 0.7786 0.01696 0.80143 0.0
C1687 C 0.75261 0.01675 0.80407 0.0
C1688 C 0.79224 1.00503 0.81835 0.0
C1689 C 0.74093 1.00595 0.82494 0.0
C1690 C 0.75448 0.99409 0.84203 0.0
C1691 C 0.79239 0.97842 0.85338 0.0
C1692 C 0.81655 0.97501 0.84771 0.0
C1693 C 0.77987 0.9929 0.83843 0.0
C1694 C 0.82949 0.9888 0.82901 0.0
C1695 C 0.81752 1.00385 0.8146 0.0
H1696 H 0.77612 0.96875 0.60997 0.0
H1697 H 0.77103 0.93487 0.52826 0.0
H1698 H 0.74116 0.9597 0.51436 0.0
H1699 H 0.71722 0.99194 0.52559 0.0
H1700 H 0.72055 0.02347 0.60758 0.0
H1701 H 0.75056 0.99879 0.62134 0.0
C1702 C 0.76841 0.96674 0.58911 0.0
C1703 C 0.77586 0.95017 0.57013 0.0
C1704 C 0.7511 0.98079 0.58137 0.0
C1705 C 0.7655 0.94748 0.54323 0.0
C1706 C 0.74854 0.96176 0.53528 0.0
C1707 C 0.72468 0.99337 0.54641 0.0
C1708 C 0.7171 1.00959 0.56561 0.0
C1709 C 0.74139 0.97864 0.55417 0.0
C1710 C 0.72636 1.01112 0.59257 0.0
C1711 C 0.74343 0.99703 0.6004 0.0
H1712 H 0.45355 0.45338 0.79388 0.0
H1713 H 0.39529 0.49499 0.79813 0.0
H1714 H 0.36195 0.45461 0.80302 0.0
H1715 H 0.34914 0.40747 0.80633 0.0
H1716 H 0.40686 0.36538 0.8007 0.0
H1717 H 0.44043 0.40587 0.79617 0.0
C1718 C 0.43356 0.4536 0.79584 0.0
C1719 C 0.42703 0.47723 0.79566 0.0
C1720 C 0.41431 0.43021 0.79847 0.0
C1721 C 0.40094 0.4771 0.79811 0.0
C1722 C 0.3818 0.45401 0.80099 0.0
C1723 C 0.36909 0.40718 0.80422 0.0
C1724 C 0.37546 0.38346 0.80397 0.0
C1725 C 0.38827 0.43047 0.80128 0.0
C1726 C 0.40136 0.38337 0.80092 0.0
C1727 C 0.42062 0.40653 0.79834 0.0
H1728 H 0.26135 0.63667 0.26126 0.0
H1729 H 0.18954 0.64654 0.28628 0.0
H1730 H 0.20692 0.69407 0.28813 0.0
H1731 H 0.2427 0.73277 0.28418 0.0
H1732 H 0.31513 0.7239 0.2601 0.0
H1733 H 0.29713 0.67587 0.25618 0.0
C1734 C 0.24948 0.64922 0.267 0.0
C1735 C 0.22426 0.63807 0.27372 0.0
C1736 C 0.25964 0.67664 0.26821 0.0
C1737 C 0.20909 0.65459 0.28111 0.0
C1738 C 0.21897 0.68179 0.28217 0.0
C1739 C 0.25456 0.72039 0.27792 0.0
C1740 C 0.28021 0.73186 0.2725 0.0
C1741 C 0.24426 0.69301 0.27598 0.0
C1742 C 0.2953 0.71551 0.26441 0.0
C1743 C 0.28505 0.68808 0.26221 0.0
H1744 H 0.52524 0.69815 0.51502 0.0
H1745 H 0.60169 0.74752 0.55641 0.0
H1746 H 0.61171 0.70875 0.56978 0.0
H1747 H 0.59974 0.65996 0.56914 0.0
H1748 H 0.5236 0.61039 0.52711 0.0
H1749 H 0.51293 0.64931 0.51501 0.0
C1750 C 0.54403 0.70059 0.52717 0.0
C1751 C 0.56253 0.72641 0.53464 0.0
C1752 C 0.54998 0.67772 0.53476 0.0
C1753 C 0.58683 0.72841 0.55023 0.0
C1754 C 0.59268 0.706 0.55793 0.0
C1755 C 0.5807 0.65753 0.55744 0.0
C1756 C 0.56261 0.63158 0.54925 0.0
C1757 C 0.57456 0.68041 0.55023 0.0
C1758 C 0.53816 0.62958 0.53392 0.0
C1759 C 0.53195 0.65209 0.52689 0.0
H1760 H 0.66805 0.31773 0.72431 0.0
H1761 H 0.71576 0.35294 0.66814 0.0
H1762 H 0.75573 0.35109 0.69575 0.0
H1763 H 0.77697 0.33665 0.73473 0.0
H1764 H 0.72773 0.30059 0.78947 0.0
H1765 H 0.68888 0.30531 0.76335 0.0
C1766 C 0.68715 0.32527 0.718 0.0
C1767 C 0.68854 0.3355 0.69391 0.0
C1768 C 0.70999 0.3236 0.73364 0.0
C1769 C 0.71377 0.34505 0.68646 0.0
C1770 C 0.73672 0.34379 0.70221 0.0
C1771 C 0.7578 0.32999 0.74106 0.0
C1772 C 0.75562 0.31814 0.76425 0.0
C1773 C 0.73508 0.33267 0.72567 0.0
C1774 C 0.73036 0.30963 0.77186 0.0
C1775 C 0.70796 0.31236 0.75687 0.0
H1776 H 1.00861 0.37814 0.03512 0.0
H1777 H 0.0819 0.38367 1.005 0.0
H1778 H 0.09289 0.43196 0.01129 0.0
H1779 H 0.08145 0.47349 0.02474 0.0
H1780 H 1.00662 0.46701 0.05222 0.0
H1781 H 0.99678 0.41918 0.04748 0.0
C1782 C 0.02714 0.38985 0.03013 0.0
C1783 C 0.04448 0.37676 0.01983 0.0
C1784 C 0.03309 0.41791 0.03314 0.0
C1785 C 0.06812 0.39274 0.0131 0.0
C1786 C 0.07442 0.42057 0.01665 0.0
C1787 C 0.06294 0.46169 0.02966 0.0
C1788 C 0.04488 0.47455 0.03886 0.0
C1789 C 0.05702 0.43354 0.02652 0.0
C1790 C 1.02103 0.4583 0.04498 0.0
C1791 C 1.01532 0.43066 0.04234 0.0
H1792 H 1.00486 0.81952 0.17752 0.0
H1793 H 0.04656 0.7763 0.22203 0.0
H1794 H 1.0137 0.76973 0.25179 0.0
H1795 H 0.97359 0.7767 0.2659 0.0
H1796 H 0.9303 0.81808 0.22066 0.0
H1797 H 0.9634 0.82519 0.19095 0.0
C1798 C 1.00671 0.80866 0.19372 0.0
C1799 C 0.02823 0.79847 0.19747 0.0
C1800 C 0.98751 0.8047 0.21083 0.0
C1801 C 0.03024 0.78435 0.21855 0.0
C1802 C 1.01144 0.78058 0.23568 0.0
C1803 C 0.9711 0.78696 0.24935 0.0
C1804 C 0.9494 0.79688 0.24574 0.0
C1805 C 0.99 0.79066 0.23204 0.0
C1806 C 0.94697 0.81058 0.22434 0.0
C1807 C 0.96584 0.81452 0.20716 0.0
H1808 H 0.60085 0.33424 0.15414 0.0
H1809 H 0.53195 0.34334 0.18613 0.0
H1810 H 0.53221 0.37979 0.16154 0.0
H1811 H 0.55186 0.40873 0.13043 0.0
H1812 H 0.62163 0.3998 0.09996 0.0
H1813 H 0.62084 0.36339 0.12419 0.0
C1814 C 0.58584 0.34415 0.1558 0.0
C1815 C 0.56638 0.336 0.17195 0.0
C1816 C 0.58615 0.36505 0.1417 0.0
C1817 C 0.54717 0.34919 0.17386 0.0
C1818 C 0.5473 0.37003 0.15977 0.0
C1819 C 0.56703 0.39898 0.12925 0.0
C1820 C 0.58664 0.40698 0.11311 0.0
C1821 C 0.5667 0.37812 0.14359 0.0
C1822 C 0.60595 0.39383 0.11169 0.0
C1823 C 0.60567 0.37308 0.12574 0.0
H1824 H 0.99551 0.36687 0.36032 0.0
H1825 H 0.99658 0.28992 0.32528 0.0
H1826 H 0.9481 0.27615 0.3126 0.0
H1827 H 0.90437 0.28527 0.31372 0.0
H1828 H 0.90474 0.36367 0.34579 0.0
H1829 H 0.95307 0.37731 0.3574 0.0
C1830 C 0.98529 0.34719 0.34943 0.0
C1831 C 1.00016 0.32959 0.34372 0.0
C1832 C 0.95727 0.33946 0.34202 0.0
C1833 C 0.98613 0.30416 0.32966 0.0
C1834 C 0.95818 0.29616 0.32267 0.0
C1835 C 0.91504 0.30533 0.32328 0.0
C1836 C 0.90054 0.32328 0.32924 0.0
C1837 C 0.94337 0.31346 0.32916 0.0
C1838 C 0.91504 0.34934 0.34109 0.0
C1839 C 0.94283 0.3572 0.34772 0.0
H1840 H 1.02329 0.71072 0.65503 0.0
H1841 H 0.02838 0.68 0.72843 0.0
H1842 H 0.03001 0.63816 0.70431 0.0
H1843 H 0.0335 0.61137 0.66231 0.0
H1844 H 1.02696 0.64269 0.58927 0.0
H1845 H 1.02259 0.68295 0.61324 0.0
C1846 C 1.02435 0.69476 0.66579 0.0
C1847 C 1.02579 0.6987 0.69362 0.0
C1848 C 1.02544 0.67082 0.65181 0.0
C1849 C 1.02702 0.6776 0.70705 0.0
C1850 C 0.02824 0.65369 0.69325 0.0
C1851 C 0.03101 0.62698 0.65166 0.0
C1852 C 0.03082 0.62391 0.62393 0.0
C1853 C 0.02808 0.65026 0.66564 0.0
C1854 C 0.02721 0.6443 0.6105 0.0
C1855 C 1.02473 0.66747 0.62424 0.0
H1856 H 0.63881 0.82376 0.81816 0.0
H1857 H 0.67357 0.87075 0.89494 0.0
H1858 H 0.71741 0.86928 0.88718 0.0
H1859 H 0.74671 0.85281 0.85994 0.0
H1860 H 0.71259 0.80469 0.78357 0.0
H1861 H 0.66894 0.8085 0.78981 0.0
C1862 C 0.656 0.83412 0.83298 0.0
C1863 C 0.65233 0.84764 0.85717 0.0
C1864 C 0.68181 0.83275 0.82862 0.0
C1865 C 0.67528 0.86029 0.87613 0.0
C1866 C 0.70063 0.85939 0.87175 0.0
C1867 C 0.72985 0.84328 0.84448 0.0
C1868 C 0.73361 0.82842 0.8212 0.0
C1869 C 0.70427 0.84536 0.84828 0.0
C1870 C 0.71093 0.81629 0.80173 0.0
C1871 C 0.68565 0.81844 0.8053 0.0
H1872 H 0.55338 0.55902 0.73523 0.0
H1873 H 0.47741 0.56655 0.70485 0.0
H1874 H 0.49053 0.56981 0.66139 0.0
H1875 H 0.52286 0.56923 0.63102 0.0
H1876 H 0.59943 0.56308 0.6611 0.0
H1877 H 0.58684 0.56075 0.70512 0.0
C1878 C 0.53976 0.56152 0.71916 0.0
C1879 C 0.51437 0.56243 0.7236 0.0
C1880 C 0.54749 0.5636 0.69387 0.0
C1881 C 0.4971 0.56579 0.70234 0.0
C1882 C 0.50454 0.56761 0.67727 0.0
C1883 C 0.53687 0.56751 0.64721 0.0
C1884 C 0.56205 0.56627 0.64252 0.0
C1885 C 0.52959 0.56634 0.67269 0.0
C1886 C 0.57991 0.56416 0.66394 0.0
C1887 C 0.5727 0.56274 0.68923 0.0
H1888 H 0.83959 0.19209 0.02339 0.0
H1889 H 0.76437 0.19088 0.04774 0.0
H1890 H 0.75473 0.21394 0.01183 0.0
H1891 H 0.76743 0.23451 0.97371 0.0
H1892 H 0.84343 0.23822 0.9501 0.0
H1893 H 0.85281 0.21383 0.98524 0.0
C1894 C 0.82109 0.19681 0.0207 0.0
C1895 C 0.80277 0.18983 0.03817 0.0
C1896 C 0.81576 0.21048 1.00015 0.0
C1897 C 0.7789 0.19618 0.03463 0.0
C1898 C 0.77331 0.20934 0.01408 0.0
C1899 C 0.78621 0.23031 0.97644 0.0
C1900 C 0.80468 0.2382 0.95934 0.0
C1901 C 0.79164 0.21671 0.99685 0.0
C1902 C 0.8287 0.23208 0.96281 0.0
C1903 C 0.83415 0.21826 0.98298 0.0
H1904 H 0.16886 0.5281 0.18357 0.0
H1905 H 0.10248 0.51297 0.22657 0.0
H1906 H 0.07302 0.51405 0.18698 0.0
H1907 H 0.06819 0.52782 0.14311 0.0
H1908 H 0.13622 0.54741 0.10261 0.0
H1909 H 0.16298 0.53634 0.13831 0.0
C1910 C 0.14781 0.52425 0.18413 0.0
C1911 C 0.13797 0.52102 0.20809 0.0
C1912 C 0.13142 0.52655 0.16193 0.0
C1913 C 0.1106 0.51583 0.20839 0.0
C1914 C 0.09379 0.51674 0.18586 0.0
C1915 C 0.08878 0.52934 0.14205 0.0
C1916 C 0.10045 0.5391 0.12073 0.0
C1917 C 0.10431 0.52357 0.16301 0.0
C1918 C 0.12703 0.54069 0.11928 0.0
C1919 C 0.14231 0.53416 0.13956 0.0
H1920 H 0.7938 0.85893 0.48417 0.0
H1921 H 0.85473 0.82209 0.50081 0.0
H1922 H 0.85335 0.80885 0.45346 0.0
H1923 H 0.83638 0.8094 0.40699 0.0
H1924 H 0.77409 0.84448 0.39025 0.0
H1925 H 0.77452 0.85664 0.43766 0.0
C1926 C 0.80656 0.84774 0.47746 0.0
C1927 C 0.8244 0.84164 0.49617 0.0
C1928 C 0.80563 0.84004 0.45003 0.0
C1929 C 0.84073 0.82705 0.48699 0.0
C1930 C 0.84008 0.81956 0.45982 0.0
C1931 C 0.82291 0.81971 0.41371 0.0
C1932 C 0.80545 0.82624 0.39499 0.0
C1933 C 0.82291 0.82628 0.44113 0.0
C1934 C 0.78782 0.83924 0.40414 0.0
C1935 C 0.78805 0.84623 0.43131 0.0
H1936 H 0.55058 0.53325 0.87793 0.0
H1937 H 0.50311 0.58632 0.88254 0.0
H1938 H 0.51002 0.59085 0.9309 0.0
H1939 H 0.5278 0.57817 0.97196 0.0
H1940 H 0.57537 0.52517 0.96725 0.0
H1941 H 0.57003 0.52218 0.9191 0.0
C1942 C 0.54199 0.54608 0.88948 0.0
C1943 C 0.52632 0.55943 0.87641 0.0
C1944 C 0.5458 0.54839 0.9174 0.0
C1945 C 0.5153 0.57584 0.8919 0.0
C1946 C 0.51913 0.57835 0.91963 0.0
C1947 C 0.53701 0.56594 0.96045 0.0
C1948 C 0.55182 0.55176 0.97343 0.0
C1949 C 0.53401 0.56441 0.93261 0.0
C1950 C 0.5638 0.53627 0.958 0.0
C1951 C 0.56077 0.53454 0.93036 0.0
H1952 H 0.82913 0.22432 0.15218 0.0
H1953 H 0.87477 0.18753 0.20095 0.0
H1954 H 0.87833 0.22105 0.23909 0.0
H1955 H 0.86205 0.2554 0.25971 0.0
H1956 H 0.81198 0.28893 0.21228 0.0
H1957 H 0.81721 0.26243 0.17209 0.0
C1958 C 0.84041 0.22395 0.17099 0.0
C1959 C 0.85127 0.20319 0.17391 0.0
C1960 C 0.84132 0.24251 0.19302 0.0
C1961 C 0.86595 0.20311 0.19833 0.0
C1962 C 0.86791 0.2222 0.22013 0.0
C1963 C 0.85245 0.25716 0.24055 0.0
C1964 C 0.83599 0.27347 0.23894 0.0
C1965 C 0.85459 0.24113 0.21791 0.0
C1966 C 0.82444 0.27622 0.21399 0.0
C1967 C 0.82732 0.26098 0.19108 0.0
H1968 H 0.13847 0.60271 0.34424 0.0
H1969 H 0.15573 0.53378 0.3669 0.0
H1970 H 0.13911 0.54114 0.40895 0.0
H1971 H 0.11701 0.56577 0.43746 0.0
H1972 H 0.1021 0.63593 0.41489 0.0
H1973 H 0.12059 0.62945 0.37428 0.0
C1974 C 0.13856 0.58926 0.35839 0.0
C1975 C 0.14773 0.56746 0.35246 0.0
C1976 C 0.12944 0.59385 0.38236 0.0
C1977 C 0.14849 0.55056 0.37111 0.0
C1978 C 0.13901 0.55478 0.39504 0.0
C1979 C 0.11833 0.57996 0.42394 0.0
C1980 C 0.10789 0.60113 0.429 0.0
C1981 C 0.12914 0.57621 0.40069 0.0
C1982 C 0.10951 0.61919 0.41116 0.0
C1983 C 0.12013 0.61555 0.388 0.0
H1984 H 0.81994 0.89748 0.67115 0.0
H1985 H 0.81653 0.82119 0.6294 0.0
H1986 H 0.81124 0.80246 0.67016 0.0
H1987 H 0.80865 0.80787 0.71769 0.0
H1988 H 0.81325 0.8843 0.75999 0.0
H1989 H 0.81702 0.90282 0.71887 0.0
C1990 C 0.81788 0.8767 0.67085 0.0
C1991 C 0.8186 0.86078 0.64707 0.0
C1992 C 0.81516 0.8661 0.6945 0.0
C1993 C 0.81607 0.83394 0.64729 0.0
C1994 C 0.81306 0.82321 0.67064 0.0
C1995 C 0.81037 0.82859 0.71802 0.0
C1996 C 0.81062 0.84464 0.74205 0.0
C1997 C 0.81275 0.83914 0.69437 0.0
C1998 C 0.813 0.87145 0.7419 0.0
C1999 C 0.81515 0.88206 0.71835 0.0
H2000 H 0.79676 0.54279 0.53849 0.0
H2001 H 0.72252 0.48486 0.50226 0.0
H2002 H 0.70245 0.52012 0.49721 0.0
H2003 H 0.70355 0.56528 0.51338 0.0
H2004 H 0.77697 0.62265 0.55287 0.0
H2005 H 0.80027 0.58983 0.54543 0.0
C2006 C 0.77634 0.53797 0.52896 0.0
C2007 C 0.76077 0.51141 0.52154 0.0
C2008 C 0.76489 0.55821 0.52679 0.0
C2009 C 0.73466 0.50525 0.50849 0.0
C2010 C 0.72321 0.52538 0.5057 0.0
C2011 C 0.72489 0.57107 0.51925 0.0
C2012 C 0.73846 0.59614 0.5343 0.0
C2013 C 0.73775 0.55174 0.5162 0.0
C2014 C 0.76609 0.6033 0.54167 0.0
C2015 C 0.77931 0.58446 0.53769 0.0
H2016 H 0.23527 0.14945 0.55146 0.0
H2017 H 0.20568 0.21171 0.52784 0.0
H2018 H 0.16016 0.18382 0.52661 0.0
H2019 H 0.12905 0.14273 0.53455 0.0
H2020 H 0.15913 0.08121 0.55948 0.0
H2021 H 0.20427 0.108 0.55786 0.0
C2022 C 0.21891 0.15692 0.54579 0.0
C2023 C 0.22396 0.18272 0.53984 0.0
C2024 C 0.19289 0.141 0.54555 0.0
C2025 C 0.20242 0.19198 0.53258 0.0
C2026 C 0.17638 0.17606 0.53193 0.0
C2027 C 0.14543 0.13508 0.5395 0.0
C2028 C 0.14065 0.11 0.54728 0.0
C2029 C 0.17142 0.15069 0.53877 0.0
C2030 C 0.16218 0.10046 0.55359 0.0
C2031 C 0.18804 0.11577 0.55264 0.0
H2032 H 0.19091 0.99434 0.82084 0.0
H2033 H 0.223 0.03329 0.75779 0.0
H2034 H 0.25194 1.00576 0.7538 0.0
H2035 H 0.26875 0.97123 0.7683 0.0
H2036 H 0.23618 0.93054 0.83004 0.0
H2037 H 0.20734 0.95851 0.83481 0.0
C2038 C 0.20418 0.9967 0.8062 0.0
C2039 C 0.20472 0.01586 0.78966 0.0
C2040 C 0.2209 0.98068 0.80389 0.0
C2041 C 0.22207 0.0187 0.77078 0.0
C2042 C 0.23873 1.00299 0.76848 0.0
C2043 C 0.25513 0.9682 0.7826 0.0
C2044 C 0.25463 0.94874 0.7987 0.0
C2045 C 0.23834 0.98397 0.78492 0.0
C2046 C 0.23725 0.94559 0.81757 0.0
C2047 C 0.22058 0.96144 0.82018 0.0
H2048 H 0.38866 0.03122 0.02463 0.0
H2049 H 0.38254 0.94902 0.02448 0.0
H2050 H 0.43088 0.95997 0.0295 0.0
H2051 H 0.47473 0.99343 0.03705 0.0
H2052 H 0.48014 0.07555 0.03716 0.0
H2053 H 0.43198 0.06399 0.0291 0.0
C2054 C 0.39787 0.01564 0.02551 0.0
C2055 C 0.38218 0.98944 0.02452 0.0
C2056 C 0.42545 0.02207 0.02862 0.0
C2057 C 0.39429 0.96939 0.02525 0.0
C2058 C 0.42188 0.97564 0.02827 0.0
C2059 C 0.46536 1.00877 0.03524 0.0
C2060 C 0.48093 0.03531 0.03796 0.0
C2061 C 0.43765 1.00201 0.03053 0.0
C2062 C 0.46857 0.05496 0.03522 0.0
C2063 C 0.44105 0.0484 0.03063 0.0
H2064 H 0.78379 0.56424 0.79421 0.0
H2065 H 0.81721 0.60351 0.8743 0.0
H2066 H 0.78776 0.63104 0.87206 0.0
H2067 H 0.75998 0.64968 0.84436 0.0
H2068 H 0.73485 0.61636 0.7614 0.0
H2069 H 0.7515 0.5795 0.7682 0.0
C2070 C 0.78418 0.57843 0.81136 0.0
C2071 C 0.8029 0.58237 0.83417 0.0
C2072 C 0.76835 0.59509 0.80938 0.0
C2073 C 0.80325 0.60064 0.85634 0.0
C2074 C 0.78638 0.61626 0.85509 0.0
C2075 C 0.75781 0.63412 0.82784 0.0
C2076 C 0.74729 0.63641 0.80223 0.0
C2077 C 0.76995 0.61459 0.83123 0.0
C2078 C 0.74322 0.61541 0.78131 0.0
C2079 C 0.75321 0.59451 0.78506 0.0
H2080 H 0.86042 0.66657 0.11003 0.0
H2081 H 0.8811 0.69136 0.0365 0.0
H2082 H 0.91262 0.66586 0.03595 0.0
H2083 H 0.93254 0.63463 0.05535 0.0
H2084 H 0.91153 0.61049 0.12909 0.0
H2085 H 0.88164 0.63742 0.13034 0.0
C2086 C 0.87191 0.66657 0.09391 0.0
C2087 C 0.8683 0.68078 0.07327 0.0
C2088 C 0.88975 0.65175 0.09363 0.0
C2089 C 0.88348 0.68061 0.05264 0.0
C2090 C 0.90144 0.66595 0.05228 0.0
C2091 C 0.92168 0.63552 0.07186 0.0
C2092 C 0.92413 0.6203 0.09197 0.0
C2093 C 0.90452 0.65119 0.07254 0.0
C2094 C 0.90967 0.62154 0.11308 0.0
C2095 C 0.89268 0.63708 0.11391 0.0
H2096 H 0.17952 0.17115 0.81613 0.0
H2097 H 0.23798 0.13082 0.82977 0.0
H2098 H 0.27359 0.17172 0.83034 0.0
H2099 H 0.28797 0.21834 0.82417 0.0
H2100 H 0.22886 0.25732 0.80706 0.0
H2101 H 0.19385 0.21772 0.81064 0.0
C2102 C 0.20008 0.17145 0.81968 0.0
C2103 C 0.20613 0.14808 0.82304 0.0
C2104 C 0.22038 0.19477 0.81904 0.0
C2105 C 0.23284 0.14861 0.82714 0.0
C2106 C 0.2532 0.17195 0.82738 0.0
C2107 C 0.26744 0.21819 0.82135 0.0
C2108 C 0.26115 0.24082 0.81533 0.0
C2109 C 0.2472 0.19505 0.82285 0.0
C2110 C 0.23438 0.24022 0.81161 0.0
C2111 C 0.21426 0.21755 0.8137 0.0
H2112 H 0.41727 0.97705 0.32226 0.0
H2113 H 0.35919 0.99634 0.3661 0.0
H2114 H 0.3339 0.94922 0.36042 0.0
H2115 H 0.32614 0.9032 0.33841 0.0
H2116 H 0.38118 0.88644 0.28868 0.0
H2117 H 0.41 0.93203 0.301 0.0
C2118 C 0.39945 0.97086 0.33121 0.0
C2119 C 0.3902 0.98983 0.34494 0.0
C2120 C 0.3843 0.94429 0.32624 0.0
C2121 C 0.3667 0.98182 0.35573 0.0
C2122 C 0.35221 0.95501 0.35227 0.0
C2123 C 0.34457 0.90968 0.33054 0.0
C2124 C 0.3517 0.89191 0.31266 0.0
C2125 C 0.36042 0.93618 0.33683 0.0
C2126 C 0.37537 0.90014 0.30227 0.0
C2127 C 0.39184 0.92605 0.3094 0.0
H2128 H 0.64615 0.41811 0.58982 0.0
H2129 H 0.5709 0.38492 0.61505 0.0
H2130 H 0.55736 0.42319 0.6054 0.0
H2131 H 0.56648 0.46712 0.59008 0.0
H2132 H 0.64282 0.50185 0.56769 0.0
H2133 H 0.65583 0.46285 0.5758 0.0
C2134 C 0.62671 0.41909 0.59315 0.0
C2135 C 0.60963 0.39786 0.60315 0.0
C2136 C 0.61904 0.44192 0.58802 0.0
C2137 C 0.58469 0.40037 0.60744 0.0
C2138 C 0.57683 0.42251 0.60187 0.0
C2139 C 0.58598 0.46626 0.58683 0.0
C2140 C 0.60342 0.48804 0.57794 0.0
C2141 C 0.59376 0.44357 0.59217 0.0
C2142 C 0.6287 0.48595 0.57439 0.0
C2143 C 0.63624 0.46337 0.57906 0.0
H2144 H 0.46519 0.82148 0.38833 0.0
H2145 H 0.41695 0.77513 0.43769 0.0
H2146 H 0.37666 0.77359 0.40828 0.0
H2147 H 0.35506 0.78576 0.36809 0.0
H2148 H 0.4049 0.83057 0.31857 0.0
H2149 H 0.44426 0.83223 0.34833 0.0
C2150 C 0.44589 0.81102 0.39275 0.0
C2151 C 0.44421 0.79856 0.41534 0.0
C2152 C 0.42291 0.80987 0.37556 0.0
C2153 C 0.41892 0.78489 0.42047 0.0
C2154 C 0.39584 0.78405 0.40363 0.0
C2155 C 0.37453 0.79582 0.36379 0.0
C2156 C 0.37675 0.80793 0.34087 0.0
C2157 C 0.39755 0.79649 0.38104 0.0
C2158 C 0.4023 0.82084 0.33577 0.0
C2159 C 0.42499 0.82192 0.35289 0.0
H2160 H 0.06643 0.72744 0.12212 0.0
H2161 H 0.10857 0.75458 0.05916 0.0
H2162 H 0.10771 0.70891 0.04326 0.0
H2163 H 0.09548 0.66024 0.048 0.0
H2164 H 0.05383 0.63605 0.11251 0.0
H2165 H 0.05435 0.68097 0.12664 0.0
C2166 C 0.07541 0.72368 0.10475 0.0
C2167 C 0.08749 0.74511 0.09198 0.0
C2168 C 0.07515 0.69739 0.09594 0.0
C2169 C 0.09891 0.73897 0.06952 0.0
C2170 C 0.09854 0.71264 0.06047 0.0
C2171 C 0.08664 0.66477 0.06523 0.0
C2172 C 0.07474 0.64396 0.07906 0.0
C2173 C 0.08687 0.69151 0.07364 0.0
C2174 C 0.06328 0.6509 0.10123 0.0
C2175 C 0.06347 0.6769 0.10946 0.0
H2176 H 0.08661 0.26209 0.89585 0.0
H2177 H 0.10606 0.33777 0.94634 0.0
H2178 H 0.14399 0.35507 0.92388 0.0
H2179 H 0.17188 0.34848 0.8899 0.0
H2180 H 0.15251 0.27228 0.84046 0.0
H2181 H 0.1143 0.25543 0.86247 0.0
C2182 C 0.09912 0.28239 0.90198 0.0
C2183 C 0.09346 0.29861 0.92274 0.0
C2184 C 0.12092 0.29213 0.88912 0.0
C2185 C 0.10999 0.32482 0.93047 0.0
C2186 C 0.13165 0.33475 0.91759 0.0
C2187 C 0.15913 0.32827 0.88386 0.0
C2188 C 0.16499 0.31164 0.86359 0.0
C2189 C 0.1373 0.31859 0.89685 0.0
C2190 C 0.14852 0.28539 0.85615 0.0
C2191 C 0.12665 0.27576 0.86868 0.0
H2192 H 0.59418 0.79359 0.97615 0.0
H2193 H 0.53457 0.75504 0.90786 0.0
H2194 H 0.51963 0.71614 0.92934 0.0
H2195 H 0.52359 0.69308 0.96785 0.0
H2196 H 0.58272 0.73281 0.03621 0.0
H2197 H 0.59765 0.77123 0.01444 0.0
C2198 C 0.57794 0.77668 0.96589 0.0
C2199 C 0.5656 0.77721 0.94037 0.0
C2200 C 0.5693 0.75458 0.97845 0.0
C2201 C 0.54443 0.75517 0.92751 0.0
C2202 C 0.53589 0.73291 0.93978 0.0
C2203 C 0.53978 0.71015 0.97789 0.0
C2204 C 0.55195 0.71011 1.00368 0.0
C2205 C 0.5482 0.73237 0.96527 0.0
C2206 C 0.57278 0.73245 0.01653 0.0
C2207 C 0.58143 0.75439 1.00404 0.0
H2208 H 0.12858 0.75604 0.75186 0.0
H2209 H 0.12913 0.82352 0.80708 0.0
H2210 H 0.17719 0.83325 0.82104 0.0
H2211 H 0.22019 0.82367 0.81586 0.0
H2212 H 0.21785 0.75382 0.7628 0.0
H2213 H 0.17003 0.74409 0.74985 0.0
C2214 C 0.13907 0.77257 0.76742 0.0
C2215 C 0.12482 0.78874 0.77863 0.0
C2216 C 0.16679 0.77787 0.77551 0.0
C2217 C 0.13912 0.81031 0.79845 0.0
C2218 C 0.16682 0.81605 0.80622 0.0
C2219 C 0.20922 0.80629 0.80148 0.0
C2220 C 0.22313 0.78968 0.79013 0.0
C2221 C 0.18107 0.80021 0.79462 0.0
C2222 C 0.20812 0.76705 0.77189 0.0
C2223 C 0.18058 0.76144 0.76443 0.0
H2224 H 0.04329 0.40462 0.4825 0.0
H2225 H 0.09647 0.45324 0.43851 0.0
H2226 H 0.09598 0.49307 0.46737 0.0
H2227 H 0.07974 0.51427 0.50501 0.0
H2228 H 0.02784 0.4647 0.54952 0.0
H2229 H 0.02864 0.42538 0.52072 0.0
C2230 C 0.05484 0.42391 0.47919 0.0
C2231 C 0.0698 0.42581 0.45819 0.0
C2232 C 0.05469 0.44671 0.49606 0.0
C2233 C 0.08478 0.45107 0.45448 0.0
C2234 C 0.08446 0.47391 0.47098 0.0
C2235 C 0.06864 0.49487 0.50844 0.0
C2236 C 0.05369 0.49266 0.52953 0.0
C2237 C 0.06938 0.47202 0.49182 0.0
C2238 C 0.03961 0.46722 0.53364 0.0
C2239 C 0.03998 0.4446 0.51708 0.0
H2240 H 0.48057 0.2983 0.25959 0.0
H2241 H 0.46169 0.21933 0.27814 0.0
H2242 H 0.41929 0.22241 0.28979 0.0
H2243 H 0.38646 0.24749 0.29495 0.0
H2244 H 0.40692 0.32755 0.27917 0.0
H2245 H 0.44873 0.32399 0.26662 0.0
C2246 C 0.46728 0.28172 0.26623 0.0
C2247 C 0.47493 0.25849 0.26777 0.0
C2248 C 0.44268 0.28381 0.2736 0.0
C2249 C 0.45696 0.23753 0.27669 0.0
C2250 C 0.43241 0.23926 0.28338 0.0
C2251 C 0.40002 0.26425 0.28885 0.0
C2252 C 0.39285 0.28788 0.2882 0.0
C2253 C 0.42487 0.26229 0.28197 0.0
C2254 C 0.41131 0.30913 0.28019 0.0
C2255 C 0.43551 0.3071 0.27286 0.0
H2256 H 0.64184 0.56192 0.40577 0.0
H2257 H 0.56138 0.55787 0.37708 0.0
H2258 H 0.54902 0.55104 0.4207 0.0
H2259 H 0.56161 0.54878 0.46798 0.0
H2260 H 0.64329 0.55858 0.49801 0.0
H2261 H 0.65464 0.56048 0.4533 0.0
C2262 C 0.62153 0.55916 0.40903 0.0
C2263 C 0.60246 0.56005 0.38806 0.0
C2264 C 0.61483 0.55641 0.43459 0.0
C2265 C 0.57638 0.55712 0.39279 0.0
C2266 C 0.56932 0.55326 0.41778 0.0
C2267 C 0.5818 0.55092 0.46461 0.0
C2268 C 0.6015 0.55312 0.48627 0.0
C2269 C 0.58842 0.55318 0.43896 0.0
C2270 C 0.62772 0.55663 0.48169 0.0
C2271 C 0.63423 0.55778 0.4561 0.0
H2272 H 0.27265 0.89859 0.06717 0.0
H2273 H 0.30092 0.97149 0.12315 0.0
H2274 H 0.31242 0.94755 0.15784 0.0
H2275 H 0.32064 0.90749 0.17008 0.0
H2276 H 0.29455 0.83518 0.11336 0.0
H2277 H 0.27686 0.85772 0.08064 0.0
C2278 C 0.28073 0.90924 0.0871 0.0
C2279 C 0.28627 0.93689 0.09245 0.0
C2280 C 0.28854 0.89564 0.10649 0.0
C2281 C 0.29659 0.95025 0.11845 0.0
C2282 C 0.30346 0.93663 0.1382 0.0
C2283 C 0.31069 0.89652 0.1507 0.0
C2284 C 0.30916 0.86977 0.14402 0.0
C2285 C 0.30059 0.90958 0.13208 0.0
C2286 C 0.29649 0.85592 0.11875 0.0
C2287 C 0.28612 0.86872 0.10017 0.0
H2288 H 0.98786 0.58334 0.89903 0.0
H2289 H 0.92956 0.60079 0.94398 0.0
H2290 H 0.95739 0.60089 0.98527 0.0
H2291 H 0.99464 0.58914 1.0075 0.0
H2292 H 0.05106 0.56857 0.96161 0.0
H2293 H 0.02733 0.57635 0.92159 0.0
C2294 C 0.98143 0.58767 0.91788 0.0
C2295 C 0.9565 0.59155 0.91849 0.0
C2296 C 0.99688 0.58652 0.94126 0.0
C2297 C 0.94863 0.5976 0.94303 0.0
C2298 C 0.9644 0.59738 0.96659 0.0
C2299 C 1.0019 0.58654 0.9888 0.0
C2300 C 1.02427 0.57772 0.98744 0.0
C2301 C 0.98795 0.59066 0.96579 0.0
C2302 C 0.03365 0.57491 0.96314 0.0
C2303 C 1.02015 0.57944 0.94025 0.0
H2304 H 0.29428 0.29283 0.6294 0.0
H2305 H 0.35499 0.25461 0.63972 0.0
H2306 H 0.35959 0.26598 0.68769 0.0
H2307 H 0.34378 0.28294 0.72682 0.0
H2308 H 0.28348 0.32175 0.71803 0.0
H2309 H 0.28122 0.31392 0.66967 0.0
C2310 C 0.30898 0.28763 0.64215 0.0
C2311 C 0.32428 0.27284 0.63081 0.0
C2312 C 0.31121 0.29383 0.67011 0.0
C2313 C 0.34294 0.26594 0.64778 0.0
C2314 C 0.34548 0.27229 0.6753 0.0
C2315 C 0.3302 0.28986 0.71443 0.0
C2316 C 0.31359 0.30265 0.72621 0.0
C2317 C 0.32921 0.28552 0.68671 0.0
C2318 C 0.29641 0.31173 0.70963 0.0
C2319 C 0.29513 0.30724 0.6819 0.0
H2320 H 0.59383 0.58995 0.2384 0.0
H2321 H 0.60679 0.51373 0.22807 0.0
H2322 H 0.59258 0.50805 0.18029 0.0
H2323 H 0.57977 0.52595 0.14105 0.0
H2324 H 0.56939 0.60339 0.15027 0.0
H2325 H 0.57931 0.6074 0.19854 0.0
C2326 C 0.59291 0.57187 0.22571 0.0
C2327 C 0.60103 0.55211 0.23689 0.0
C2328 C 0.58562 0.56914 0.19791 0.0
C2329 C 0.60043 0.52911 0.22005 0.0
C2330 C 0.59246 0.52592 0.19267 0.0
C2331 C 0.57947 0.54368 0.15351 0.0
C2332 C 0.57387 0.56436 0.14176 0.0
C2333 C 0.58557 0.54602 0.18129 0.0
C2334 C 0.57371 0.58716 0.15854 0.0
C2335 C 0.57936 0.58946 0.18625 0.0
H2336 H 0.27024 0.86912 0.96483 0.0
H2337 H 0.2748 0.93701 0.92609 0.0
H2338 H 0.27819 0.91175 0.88435 0.0
H2339 H 0.28713 0.87297 0.86139 0.0
H2340 H 0.28391 0.8056 0.90053 0.0
H2341 H 0.2728 0.82817 0.93993 0.0
C2342 C 0.27137 0.8782 0.94708 0.0
C2343 C 0.27282 0.90498 0.94854 0.0
C2344 C 0.27421 0.8639 0.92356 0.0
C2345 C 0.27375 0.91643 0.92541 0.0
C2346 C 0.27603 0.90211 0.90167 0.0
C2347 C 0.28396 0.86327 0.87857 0.0
C2348 C 0.28713 0.83812 0.87859 0.0
C2349 C 0.27759 0.87631 0.90095 0.0
C2350 C 0.28198 0.82519 0.9004 0.0
C2351 C 0.27561 0.83805 0.92283 0.0
H2352 H 0.88997 0.52357 0.76074 0.0
H2353 H 0.93999 0.60363 0.78889 0.0
H2354 H 0.96978 0.59836 0.75725 0.0
H2355 H 0.98412 0.56944 0.72534 0.0
H2356 H 0.9358 0.48835 0.69965 0.0
H2357 H 0.90275 0.49556 0.72652 0.0
C2358 C 0.90698 0.54009 0.7594 0.0
C2359 C 0.91281 0.56396 0.77705 0.0
C2360 C 0.9246 0.53653 0.74203 0.0
C2361 C 0.93513 0.58508 0.77543 0.0
C2362 C 0.95227 0.582 0.75754 0.0
C2363 C 0.9664 0.55332 0.72573 0.0
C2364 C 0.96258 0.5283 0.71086 0.0
C2365 C 0.94771 0.55751 0.74147 0.0
C2366 C 0.9392 0.50779 0.71096 0.0
C2367 C 0.92032 0.51189 0.72633 0.0
H2368 H 0.31473 0.30229 0.4788 0.0
H2369 H 0.31236 0.2205 0.46659 0.0
H2370 H 0.31518 0.22176 0.41957 0.0
H2371 H 0.31675 0.24589 0.38104 0.0
H2372 H 0.32362 0.3288 0.39465 0.0
H2373 H 0.32058 0.32735 0.44152 0.0
C2374 C 0.3151 0.28482 0.4659 0.0
C2375 C 0.31325 0.26132 0.47631 0.0
C2376 C 0.31734 0.28584 0.43889 0.0
C2377 C 0.31393 0.23892 0.45925 0.0
C2378 C 0.31538 0.23957 0.43224 0.0
C2379 C 0.31767 0.2636 0.39434 0.0
C2380 C 0.32023 0.28739 0.38428 0.0
C2381 C 0.31681 0.26285 0.42169 0.0
C2382 C 0.32172 0.31026 0.40186 0.0
C2383 C 0.31993 0.30944 0.42871 0.0
H2384 H 0.33972 0.57351 0.58513 0.0
H2385 H 0.36525 0.63556 0.53885 0.0
H2386 H 0.39706 0.61486 0.52252 0.0
H2387 H 0.41986 0.58102 0.52417 0.0
H2388 H 0.39495 0.51982 0.5715 0.0
H2389 H 0.36018 0.538 0.58417 0.0
C2390 C 0.35211 0.58244 0.57133 0.0
C2391 C 0.35039 0.60621 0.56348 0.0
C2392 C 0.3704 0.57055 0.56217 0.0
C2393 C 0.36632 0.61734 0.54532 0.0
C2394 C 0.38453 0.60554 0.536 0.0
C2395 C 0.40669 0.5716 0.53714 0.0
C2396 C 0.41009 0.54925 0.54706 0.0
C2397 C 0.38709 0.58245 0.54474 0.0
C2398 C 0.39262 0.53693 0.56344 0.0
C2399 C 0.37289 0.54745 0.57089 0.0
H2400 H 0.90045 0.98171 0.58718 0.0
H2401 H 0.92517 0.91274 0.56617 0.0
H2402 H 0.9674 0.94075 0.5578 0.0
H2403 H 0.99668 0.98442 0.55516 0.0
H2404 H 0.97256 0.05368 0.57629 0.0
H2405 H 0.93054 0.02581 0.58579 0.0
C2406 C 0.91513 0.97279 0.58097 0.0
C2407 C 0.90956 0.94512 0.57724 0.0
C2408 C 0.93934 0.989 0.57596 0.0
C2409 C 0.92886 0.93395 0.56917 0.0
C2410 C 0.953 0.94994 0.56428 0.0
C2411 C 0.9822 0.99348 0.56167 0.0
C2412 C 0.98762 0.02108 0.56472 0.0
C2413 C 0.95829 0.97742 0.56731 0.0
C2414 C 0.96881 0.03247 0.57365 0.0
C2415 C 0.94481 0.01656 0.57912 0.0
H2416 H 0.93381 0.10515 0.32494 0.0
H2417 H 0.89888 0.083 0.24231 0.0
H2418 H 0.87305 0.11363 0.24797 0.0
H2419 H 0.85944 0.14582 0.27645 0.0
H2420 H 0.89281 0.16727 0.3594 0.0
H2421 H 0.92001 0.13766 0.35366 0.0
C2422 C 0.92066 0.10718 0.30818 0.0
C2423 C 0.91829 0.09186 0.28325 0.0
C2424 C 0.90546 0.12456 0.31166 0.0
C2425 C 0.901 0.0945 0.26174 0.0
C2426 C 0.88621 0.11202 0.26493 0.0
C2427 C 0.87285 0.14418 0.29321 0.0
C2428 C 0.87423 0.15873 0.31827 0.0
C2429 C 0.88817 0.12701 0.2898 0.0
C2430 C 0.89132 0.15609 0.33994 0.0
C2431 C 0.90693 0.13927 0.33664 0.0
H2432 H 0.73935 0.09846 0.0649 0.0
H2433 H 0.74003 0.08747 0.14666 0.0
H2434 H 0.69137 0.0721 0.13937 0.0
H2435 H 0.64898 0.06641 0.11067 0.0
H2436 H 0.64996 0.08012 0.02961 0.0
H2437 H 0.69785 0.09023 0.03594 0.0
C2438 C 0.72892 0.09249 0.08114 0.0
C2439 C 0.74317 0.09445 0.10637 0.0
C2440 C 0.70129 0.08461 0.07703 0.0
C2441 C 0.72942 0.08616 0.12705 0.0
C2442 C 0.70165 0.07762 0.12294 0.0
C2443 C 0.65969 0.07149 0.09439 0.0
C2444 C 0.64594 0.07286 0.06984 0.0
C2445 C 0.68741 0.07756 0.09819 0.0
C2446 C 0.66004 0.07925 0.04884 0.0
C2447 C 0.68744 0.08493 0.05236 0.0
H2448 H 0.28294 0.52755 0.2747 0.0
H2449 H 0.22598 0.507 0.32797 0.0
H2450 H 0.25135 0.48095 0.34821 0.0
H2451 H 0.28739 0.46085 0.34778 0.0
H2452 H 0.34317 0.48035 0.29321 0.0
H2453 H 0.32098 0.5107 0.27697 0.0
C2454 C 0.27613 0.5175 0.29084 0.0
C2455 C 0.25242 0.51878 0.29954 0.0
C2456 C 0.29068 0.50253 0.30223 0.0
C2457 C 0.24409 0.50609 0.32079 0.0
C2458 C 0.25856 0.4912 0.33235 0.0
C2459 C 0.2948 0.47197 0.33252 0.0
C2460 C 0.31668 0.46822 0.32152 0.0
C2461 C 0.28154 0.48881 0.32278 0.0
C2462 C 0.32646 0.48306 0.30212 0.0
C2463 C 0.31362 0.50018 0.29262 0.0
H2464 H 0.27657 0.48102 0.09468 0.0
H2465 H 0.23936 0.41714 0.02958 0.0
H2466 H 0.20788 0.44012 0.01526 0.0
H2467 H 0.19133 0.47879 0.02099 0.0
H2468 H 0.22953 0.54279 0.08572 0.0
H2469 H 0.26039 0.51944 0.10024 0.0
C2470 C 0.2615 0.47201 0.07741 0.0
C2471 C 0.26026 0.44731 0.0633 0.0
C2472 C 0.24376 0.48547 0.06911 0.0
C2473 C 0.24074 0.4361 0.04083 0.0
C2474 C 0.22275 0.44925 0.03262 0.0
C2475 C 0.20635 0.48754 0.03834 0.0
C2476 C 0.20817 0.51256 0.05219 0.0
C2477 C 0.22413 0.474 0.04657 0.0
C2478 C 0.22792 0.52376 0.07448 0.0
C2479 C 0.24547 0.51034 0.0829 0.0
H2480 H 0.89361 0.97241 0.28774 0.0
H2481 H 0.96051 0.94203 0.29233 0.0
H2482 H 0.93177 0.89907 0.29822 0.0
H2483 H 0.88787 0.87054 0.30292 0.0
H2484 H 0.82139 0.90156 0.29958 0.0
H2485 H 0.8499 0.94401 0.29253 0.0
C2486 C 0.90193 0.95637 0.28986 0.0
C2487 C 0.92918 0.96043 0.28949 0.0
C2488 C 0.88542 0.93191 0.29364 0.0
C2489 C 0.93962 0.93947 0.29254 0.0
C2490 C 0.92321 0.9149 0.29594 0.0
C2491 C 0.87956 0.88651 0.30054 0.0
C2492 C 0.85248 0.88278 0.30173 0.0
C2493 C 0.89611 0.91096 0.29665 0.0
C2494 C 0.84215 0.90386 0.29886 0.0
C2495 C 0.85843 0.92814 0.29475 0.0
H2496 H 0.76962 0.12848 0.78146 0.0
H2497 H 0.71158 0.13729 0.72066 0.0
H2498 H 0.73414 0.185 0.72709 0.0
H2499 H 0.7676 0.22448 0.75344 0.0
H2500 H 0.82117 0.21564 0.81855 0.0
H2501 H 0.80326 0.16751 0.80711 0.0
C2502 C 0.76232 0.14082 0.76922 0.0
C2503 C 0.73929 0.12964 0.75045 0.0
C2504 C 0.7744 0.16816 0.77412 0.0
C2505 C 0.72945 0.1457 0.73512 0.0
C2506 C 0.74224 0.17287 0.73889 0.0
C2507 C 0.77551 0.21188 0.76479 0.0
C2508 C 0.79558 0.22323 0.78668 0.0
C2509 C 0.7643 0.18438 0.75884 0.0
C2510 C 0.80558 0.20705 0.80167 0.0
C2511 C 0.7954 0.17965 0.79512 0.0
loop_
_geom_bond_atom_site_label_1
_geom_bond_atom_site_label_2
_geom_bond_distance
_geom_bond_site_symmetry_2
_ccdc_geom_bond_type
O0 Cd1 2.223 . S
O0 C8 1.315 . S
Cd1 O0 2.223 . S
Cd1 O4 2.297 . S
Cd1 O5 2.439 . S
Cd1 O11 2.240 . S
Cd2 O3 2.240 . S
Cd2 O10 2.223 1_455 S
Cd2 O12 2.297 . S
Cd2 O13 2.439 . S
O3 Cd2 2.240 . S
O3 C8 1.279 . S
O4 Cd1 2.297 . S
O4 C6 1.247 . S
O5 Cd1 2.439 . S
O5 C6 1.208 . S
C6 O4 1.247 . S
C6 O5 1.208 . S
C7 O12 1.247 . S
C7 O13 1.208 . S
C8 O0 1.315 . S
C8 O3 1.279 . S
C9 O10 1.315 . S
C9 O11 1.279 1_655 S
O10 Cd2 2.223 1_655 S
O10 C9 1.315 . S
O11 Cd1 2.240 . S
O11 C9 1.279 1_455 S
O12 Cd2 2.297 . S
O12 C7 1.247 . S
O13 Cd2 2.439 . S
O13 C7 1.208 . S
O14 Cd15 2.223 . S
O14 C22 1.315 . S
Cd15 O14 2.223 . S
Cd15 O18 2.297 1_455 S
Cd15 O19 2.439 1_455 S
Cd15 O25 2.240 . S
Cd16 O17 2.240 . S
Cd16 O24 2.223 . S
Cd16 O26 2.297 . S
Cd16 O27 2.439 . S
O17 Cd16 2.240 . S
O17 C22 1.279 . S
O18 Cd15 2.297 1_655 S
O18 C20 1.247 . S
O19 Cd15 2.439 1_655 S
O19 C20 1.208 . S
C20 O18 1.247 . S
C20 O19 1.208 . S
C21 O26 1.247 . S
C21 O27 1.208 . S
C22 O14 1.315 . S
C22 O17 1.279 . S
C23 O24 1.315 . S
C23 O25 1.279 . S
O24 Cd16 2.223 . S
O24 C23 1.315 . S
O25 Cd15 2.240 . S
O25 C23 1.279 . S
O26 Cd16 2.297 . S
O26 C21 1.247 . S
O27 Cd16 2.439 . S
O27 C21 1.208 . S
O28 Cd29 2.223 . S
O28 C36 1.315 . S
Cd29 O28 2.223 . S
Cd29 O32 2.297 . S
Cd29 O33 2.439 . S
Cd29 O39 2.240 . S
Cd30 O31 2.240 . S
Cd30 O38 2.223 . S
Cd30 O40 2.297 . S
Cd30 O41 2.439 . S
O31 Cd30 2.240 . S
O31 C36 1.279 . S
O32 Cd29 2.297 . S
O32 C34 1.247 . S
O33 Cd29 2.439 . S
O33 C34 1.208 . S
C34 O32 1.247 . S
C34 O33 1.208 . S
C35 O40 1.247 . S
C35 O41 1.208 . S
C36 O28 1.315 . S
C36 O31 1.279 . S
C37 O38 1.315 . S
C37 O39 1.279 . S
O38 Cd30 2.223 . S
O38 C37 1.315 . S
O39 Cd29 2.240 . S
O39 C37 1.279 . S
O40 Cd30 2.297 . S
O40 C35 1.247 . S
O41 Cd30 2.439 . S
O41 C35 1.208 . S
O42 Cd43 2.223 . S
O42 C50 1.315 . S
Cd43 O42 2.223 . S
Cd43 O46 2.297 . S
Cd43 O47 2.439 . S
Cd43 O53 2.240 . S
Cd44 O45 2.240 . S
Cd44 O52 2.223 . S
Cd44 O54 2.297 . S
Cd44 O55 2.439 . S
O45 Cd44 2.240 . S
O45 C50 1.279 . S
O46 Cd43 2.297 . S
O46 C48 1.247 . S
O47 Cd43 2.439 . S
O47 C48 1.208 . S
C48 O46 1.247 . S
C48 O47 1.208 . S
C49 O54 1.247 . S
C49 O55 1.208 . S
C50 O42 1.315 . S
C50 O45 1.279 . S
C51 O52 1.315 . S
C51 O53 1.279 . S
O52 Cd44 2.223 . S
O52 C51 1.315 . S
O53 Cd43 2.240 . S
O53 C51 1.279 . S
O54 Cd44 2.297 . S
O54 C49 1.247 . S
O55 Cd44 2.439 . S
O55 C49 1.208 . S
O56 Cd57 2.223 . S
O56 C64 1.315 . S
Cd57 O56 2.223 . S
Cd57 O60 2.297 . S
Cd57 O61 2.439 . S
Cd57 O67 2.240 . S
Cd58 O59 2.240 . S
Cd58 O66 2.223 . S
Cd58 O68 2.297 . S
Cd58 O69 2.439 . S
O59 Cd58 2.240 . S
O59 C64 1.279 . S
O60 Cd57 2.297 . S
O60 C62 1.247 . S
O61 Cd57 2.439 . S
O61 C62 1.208 . S
C62 O60 1.247 . S
C62 O61 1.208 . S
C63 O68 1.247 . S
C63 O69 1.208 . S
C64 O56 1.315 . S
C64 O59 1.279 . S
C65 O66 1.315 . S
C65 O67 1.279 . S
O66 Cd58 2.223 . S
O66 C65 1.315 . S
O67 Cd57 2.240 . S
O67 C65 1.279 . S
O68 Cd58 2.297 . S
O68 C63 1.247 . S
O69 Cd58 2.439 . S
O69 C63 1.208 . S
O70 Cd71 2.223 . S
O70 C78 1.315 . S
Cd71 O70 2.223 . S
Cd71 O74 2.297 . S
Cd71 O75 2.439 . S
Cd71 O81 2.240 . S
Cd72 O73 2.240 . S
Cd72 O80 2.223 . S
Cd72 O82 2.297 . S
Cd72 O83 2.439 . S
O73 Cd72 2.240 . S
O73 C78 1.279 . S
O74 Cd71 2.297 . S
O74 C76 1.247 . S
O75 Cd71 2.439 . S
O75 C76 1.208 . S
C76 O74 1.247 . S
C76 O75 1.208 . S
C77 O82 1.247 . S
C77 O83 1.208 . S
C78 O70 1.315 . S
C78 O73 1.279 . S
C79 O80 1.315 . S
C79 O81 1.279 . S
O80 Cd72 2.223 . S
O80 C79 1.315 . S
O81 Cd71 2.240 . S
O81 C79 1.279 . S
O82 Cd72 2.297 . S
O82 C77 1.247 . S
O83 Cd72 2.439 . S
O83 C77 1.208 . S
O84 Cd85 2.223 . S
O84 C92 1.315 . S
Cd85 O84 2.223 . S
Cd85 O88 2.297 . S
Cd85 O89 2.439 . S
Cd85 O95 2.240 . S
Cd86 O87 2.240 . S
Cd86 O94 2.223 . S
Cd86 O96 2.297 . S
Cd86 O97 2.439 . S
O87 Cd86 2.240 . S
O87 C92 1.279 . S
O88 Cd85 2.297 . S
O88 C90 1.247 . S
O89 Cd85 2.439 . S
O89 C90 1.208 . S
C90 O88 1.247 . S
C90 O89 1.208 . S
C91 O96 1.247 . S
C91 O97 1.208 . S
C92 O84 1.315 . S
C92 O87 1.279 . S
C93 O94 1.315 . S
C93 O95 1.279 . S
O94 Cd86 2.223 . S
O94 C93 1.315 . S
O95 Cd85 2.240 . S
O95 C93 1.279 . S
O96 Cd86 2.297 . S
O96 C91 1.247 . S
O97 Cd86 2.439 . S
O97 C91 1.208 . S
O98 Cd99 2.223 1_655 S
O98 C106 1.315 . S
Cd99 O98 2.223 1_455 S
Cd99 O102 2.297 . S
Cd99 O103 2.439 . S
Cd99 O109 2.240 1_455 S
Cd100 O101 2.240 1_654 S
Cd100 O108 2.223 1_554 S
Cd100 O110 2.297 . S
Cd100 O111 2.439 1_654 S
O101 Cd100 2.240 1_456 S
O101 C106 1.279 1_455 S
O102 Cd99 2.297 . S
O102 C104 1.247 . S
O103 Cd99 2.439 . S
O103 C104 1.208 . S
C104 O102 1.247 . S
C104 O103 1.208 . S
C105 O110 1.247 1_455 S
C105 O111 1.208 1_554 S
C106 O98 1.315 . S
C106 O101 1.279 1_655 S
C107 O108 1.315 . S
C107 O109 1.279 . S
O108 Cd100 2.223 1_556 S
O108 C107 1.315 . S
O109 Cd99 2.240 1_655 S
O109 C107 1.279 . S
O110 Cd100 2.297 . S
O110 C105 1.247 1_655 S
O111 Cd100 2.439 1_456 S
O111 C105 1.208 1_556 S
O112 Cd113 2.223 1_565 S
O112 C120 1.315 . S
Cd113 O112 2.223 1_545 S
Cd113 O116 2.297 . S
Cd113 O117 2.439 . S
Cd113 O123 2.240 1_545 S
Cd114 O115 2.240 1_565 S
Cd114 O122 2.223 . S
Cd114 O124 2.297 . S
Cd114 O125 2.439 1_565 S
O115 Cd114 2.240 1_545 S
O115 C120 1.278 1_545 S
O116 Cd113 2.297 . S
O116 C118 1.247 . S
O117 Cd113 2.439 . S
O117 C118 1.208 . S
C118 O116 1.247 . S
C118 O117 1.208 . S
C119 O124 1.247 1_545 S
C119 O125 1.208 . S
C120 O112 1.315 . S
C120 O115 1.278 1_565 S
C121 O122 1.315 . S
C121 O123 1.279 . S
O122 Cd114 2.223 . S
O122 C121 1.315 . S
O123 Cd113 2.240 1_565 S
O123 C121 1.279 . S
O124 Cd114 2.297 . S
O124 C119 1.247 1_565 S
O125 Cd114 2.439 1_545 S
O125 C119 1.208 . S
O126 Cd127 2.223 . S
O126 C134 1.315 . S
Cd127 O126 2.223 . S
Cd127 O130 2.297 . S
Cd127 O131 2.439 . S
Cd127 O137 2.240 . S
Cd128 O129 2.240 . S
Cd128 O136 2.223 . S
Cd128 O138 2.297 . S
Cd128 O139 2.439 . S
O129 Cd128 2.240 . S
O129 C134 1.279 . S
O130 Cd127 2.297 . S
O130 C132 1.247 . S
O131 Cd127 2.439 . S
O131 C132 1.208 . S
C132 O130 1.247 . S
C132 O131 1.208 . S
C133 O138 1.247 . S
C133 O139 1.208 . S
C134 O126 1.315 . S
C134 O129 1.279 . S
C135 O136 1.315 . S
C135 O137 1.279 . S
O136 Cd128 2.223 . S
O136 C135 1.315 . S
O137 Cd127 2.240 . S
O137 C135 1.279 . S
O138 Cd128 2.297 . S
O138 C133 1.247 . S
O139 Cd128 2.439 . S
O139 C133 1.208 . S
O140 Cd141 2.223 . S
O140 C148 1.315 . S
Cd141 O140 2.223 . S
Cd141 O144 2.297 . S
Cd141 O145 2.439 . S
Cd141 O151 2.240 . S
Cd142 O143 2.240 . S
Cd142 O150 2.223 . S
Cd142 O152 2.297 . S
Cd142 O153 2.439 . S
O143 Cd142 2.240 . S
O143 C148 1.279 . S
O144 Cd141 2.297 . S
O144 C146 1.247 . S
O145 Cd141 2.439 . S
O145 C146 1.208 . S
C146 O144 1.247 . S
C146 O145 1.208 . S
C147 O152 1.247 . S
C147 O153 1.208 . S
C148 O140 1.315 . S
C148 O143 1.279 . S
C149 O150 1.315 . S
C149 O151 1.279 . S
O150 Cd142 2.223 . S
O150 C149 1.315 . S
O151 Cd141 2.240 . S
O151 C149 1.279 . S
O152 Cd142 2.297 . S
O152 C147 1.247 . S
O153 Cd142 2.439 . S
O153 C147 1.208 . S
O154 Cd155 2.223 . S
O154 C162 1.315 . S
Cd155 O154 2.223 . S
Cd155 O158 2.297 . S
Cd155 O159 2.439 1_554 S
Cd155 O165 2.240 1_554 S
Cd156 O157 2.240 1_556 S
Cd156 O164 2.223 1_556 S
Cd156 O166 2.297 . S
Cd156 O167 2.439 . S
O157 Cd156 2.240 1_554 S
O157 C162 1.279 . S
O158 Cd155 2.297 . S
O158 C160 1.247 . S
O159 Cd155 2.439 1_556 S
O159 C160 1.208 1_556 S
C160 O158 1.247 . S
C160 O159 1.208 1_554 S
C161 O166 1.247 . S
C161 O167 1.208 . S
C162 O154 1.315 . S
C162 O157 1.279 . S
C163 O164 1.315 . S
C163 O165 1.279 1_554 S
O164 Cd156 2.223 1_554 S
O164 C163 1.315 . S
O165 Cd155 2.240 1_556 S
O165 C163 1.279 1_556 S
O166 Cd156 2.297 . S
O166 C161 1.247 . S
O167 Cd156 2.439 . S
O167 C161 1.208 . S
O168 Cd169 2.223 . S
O168 C176 1.315 . S
Cd169 O168 2.223 . S
Cd169 O172 2.297 . S
Cd169 O173 2.439 . S
Cd169 O179 2.240 . S
Cd170 O171 2.240 . S
Cd170 O178 2.223 . S
Cd170 O180 2.336 . S
Cd170 O181 2.439 . S
O171 Cd170 2.240 . S
O171 C176 1.279 . S
O172 Cd169 2.297 . S
O172 C174 1.247 . S
O173 Cd169 2.439 . S
O173 C174 1.208 . S
C174 O172 1.247 . S
C174 O173 1.208 . S
C175 O180 1.233 1_556 S
C175 O181 1.208 1_556 S
C176 O168 1.315 . S
C176 O171 1.279 . S
C177 O178 1.315 . S
C177 O179 1.279 . S
O178 Cd170 2.223 . S
O178 C177 1.315 . S
O179 Cd169 2.240 . S
O179 C177 1.279 . S
O180 Cd170 2.336 . S
O180 C175 1.233 1_554 S
O181 Cd170 2.439 . S
O181 C175 1.208 1_554 S
O182 Cd183 2.223 . S
O182 C190 1.315 . S
Cd183 O182 2.223 . S
Cd183 O186 2.297 . S
Cd183 O187 2.439 . S
Cd183 O193 2.240 . S
Cd184 O185 2.240 . S
Cd184 O192 2.223 . S
Cd184 O194 2.297 . S
Cd184 O195 2.439 . S
O185 Cd184 2.240 . S
O185 C190 1.279 . S
O186 Cd183 2.297 . S
O186 C188 1.247 . S
O187 Cd183 2.439 . S
O187 C188 1.208 . S
C188 O186 1.247 . S
C188 O187 1.208 . S
C189 O194 1.247 . S
C189 O195 1.208 . S
C190 O182 1.315 . S
C190 O185 1.279 . S
C191 O192 1.315 . S
C191 O193 1.279 . S
O192 Cd184 2.223 . S
O192 C191 1.315 . S
O193 Cd183 2.240 . S
O193 C191 1.279 . S
O194 Cd184 2.297 . S
O194 C189 1.247 . S
O195 Cd184 2.439 . S
O195 C189 1.208 . S
O196 Cd197 2.223 . S
O196 C204 1.315 . S
Cd197 O196 2.223 . S
Cd197 O200 2.297 . S
Cd197 O201 2.439 . S
Cd197 O207 2.240 . S
Cd198 O199 2.240 . S
Cd198 O206 2.223 . S
Cd198 O208 2.297 . S
Cd198 O209 2.439 . S
O199 Cd198 2.240 . S
O199 C204 1.279 . S
O200 Cd197 2.297 . S
O200 C202 1.247 . S
O201 Cd197 2.439 . S
O201 C202 1.208 . S
C202 O200 1.247 . S
C202 O201 1.208 . S
C203 O208 1.247 . S
C203 O209 1.208 . S
C204 O196 1.315 . S
C204 O199 1.279 . S
C205 O206 1.315 . S
C205 O207 1.279 . S
O206 Cd198 2.223 . S
O206 C205 1.315 . S
O207 Cd197 2.240 . S
O207 C205 1.279 . S
O208 Cd198 2.297 . S
O208 C203 1.247 . S
O209 Cd198 2.439 . S
O209 C203 1.208 . S
O210 Cd211 2.223 . S
O210 C218 1.315 . S
Cd211 O210 2.223 . S
Cd211 O214 2.297 . S
Cd211 O215 2.439 . S
Cd211 O221 2.240 . S
Cd212 O213 2.240 . S
Cd212 O220 2.223 . S
Cd212 O222 2.297 . S
Cd212 O223 2.439 . S
O213 Cd212 2.240 . S
O213 C218 1.279 . S
O214 Cd211 2.297 . S
O214 C216 1.247 . S
O215 Cd211 2.439 . S
O215 C216 1.208 . S
C216 O214 1.247 . S
C216 O215 1.208 . S
C217 O222 1.247 . S
C217 O223 1.208 . S
C218 O210 1.315 . S
C218 O213 1.279 . S
C219 O220 1.315 . S
C219 O221 1.279 . S
O220 Cd212 2.223 . S
O220 C219 1.315 . S
O221 Cd211 2.240 . S
O221 C219 1.279 . S
O222 Cd212 2.297 . S
O222 C217 1.247 . S
O223 Cd212 2.439 . S
O223 C217 1.208 . S
O224 Cd225 2.223 . S
O224 C232 1.315 . S
Cd225 O224 2.223 . S
Cd225 O228 2.297 . S
Cd225 O229 2.439 . S
Cd225 O235 2.240 1_545 S
Cd226 O227 2.240 . S
Cd226 O234 2.223 1_545 S
Cd226 O236 2.297 . S
Cd226 O237 2.439 . S
O227 Cd226 2.240 . S
O227 C232 1.279 . S
O228 Cd225 2.297 . S
O228 C230 1.247 . S
O229 Cd225 2.439 . S
O229 C230 1.208 . S
C230 O228 1.247 . S
C230 O229 1.208 . S
C231 O236 1.247 . S
C231 O237 1.208 . S
C232 O224 1.315 . S
C232 O227 1.279 . S
C233 O234 1.315 . S
C233 O235 1.279 . S
O234 Cd226 2.223 1_565 S
O234 C233 1.315 . S
O235 Cd225 2.240 1_565 S
O235 C233 1.279 . S
O236 Cd226 2.297 . S
O236 C231 1.247 . S
O237 Cd226 2.439 . S
O237 C231 1.208 . S
O238 Cd239 2.223 . S
O238 C246 1.315 . S
Cd239 O238 2.223 . S
Cd239 O242 2.297 . S
Cd239 O243 2.439 . S
Cd239 O249 2.240 . S
Cd240 O241 2.240 . S
Cd240 O248 2.223 . S
Cd240 O250 2.297 . S
Cd240 O251 2.439 . S
O241 Cd240 2.240 . S
O241 C246 1.279 . S
O242 Cd239 2.297 . S
O242 C244 1.247 . S
O243 Cd239 2.439 . S
O243 C244 1.208 . S
C244 O242 1.247 . S
C244 O243 1.208 . S
C245 O250 1.247 . S
C245 O251 1.208 . S
C246 O238 1.315 . S
C246 O241 1.279 . S
C247 O248 1.315 . S
C247 O249 1.279 . S
O248 Cd240 2.223 . S
O248 C247 1.315 . S
O249 Cd239 2.240 . S
O249 C247 1.279 . S
O250 Cd240 2.297 . S
O250 C245 1.247 . S
O251 Cd240 2.439 . S
O251 C245 1.208 . S
O252 Cd253 2.223 . S
O252 C260 1.315 . S
Cd253 O252 2.223 . S
Cd253 O256 2.297 . S
Cd253 O257 2.439 . S
Cd253 O263 2.240 . S
Cd254 O255 2.240 . S
Cd254 O262 2.223 . S
Cd254 O264 2.297 . S
Cd254 O265 2.439 . S
O255 Cd254 2.240 . S
O255 C260 1.279 . S
O256 Cd253 2.297 . S
O256 C258 1.247 . S
O257 Cd253 2.439 . S
O257 C258 1.208 . S
C258 O256 1.247 . S
C258 O257 1.208 . S
C259 O264 1.247 . S
C259 O265 1.208 . S
C260 O252 1.315 . S
C260 O255 1.279 . S
C261 O262 1.315 . S
C261 O263 1.279 . S
O262 Cd254 2.223 . S
O262 C261 1.315 . S
O263 Cd253 2.240 . S
O263 C261 1.279 . S
O264 Cd254 2.297 . S
O264 C259 1.247 . S
O265 Cd254 2.439 . S
O265 C259 1.208 . S
O266 Cd267 2.223 . S
O266 C274 1.315 . S
Cd267 O266 2.223 . S
Cd267 O270 2.297 . S
Cd267 O271 2.439 . S
Cd267 O277 2.240 . S
Cd268 O269 2.240 . S
Cd268 O276 2.223 . S
Cd268 O278 2.297 . S
Cd268 O279 2.439 . S
O269 Cd268 2.240 . S
O269 C274 1.279 . S
O270 Cd267 2.297 . S
O270 C272 1.247 . S
O271 Cd267 2.439 . S
O271 C272 1.208 . S
C272 O270 1.247 . S
C272 O271 1.208 . S
C273 O278 1.247 . S
C273 O279 1.208 . S
C274 O266 1.315 . S
C274 O269 1.279 . S
C275 O276 1.315 . S
C275 O277 1.279 . S
O276 Cd268 2.223 . S
O276 C275 1.315 . S
O277 Cd267 2.240 . S
O277 C275 1.279 . S
O278 Cd268 2.297 . S
O278 C273 1.247 . S
O279 Cd268 2.439 . S
O279 C273 1.208 . S
O280 Cd281 2.223 . S
O280 C288 1.315 . S
Cd281 O280 2.223 . S
Cd281 O284 2.297 . S
Cd281 O285 2.439 . S
Cd281 O291 2.240 . S
Cd282 O283 2.240 . S
Cd282 O290 2.223 . S
Cd282 O292 2.281 1_554 S
Cd282 O293 2.439 . S
O283 Cd282 2.240 . S
O283 C288 1.279 . S
O284 Cd281 2.297 . S
O284 C286 1.247 . S
O285 Cd281 2.439 . S
O285 C286 1.208 . S
C286 O284 1.247 . S
C286 O285 1.208 . S
C287 O292 1.255 . S
C287 O293 1.208 1_556 S
C288 O280 1.315 . S
C288 O283 1.279 . S
C289 O290 1.315 . S
C289 O291 1.279 . S
O290 Cd282 2.223 . S
O290 C289 1.315 . S
O291 Cd281 2.240 . S
O291 C289 1.279 . S
O292 Cd282 2.281 1_556 S
O292 C287 1.255 . S
O293 Cd282 2.439 . S
O293 C287 1.208 1_554 S
O294 Cd295 2.223 . S
O294 C302 1.315 . S
Cd295 O294 2.223 . S
Cd295 O298 2.297 . S
Cd295 O299 2.439 . S
Cd295 O305 2.240 . S
Cd296 O297 2.240 . S
Cd296 O304 2.223 . S
Cd296 O306 2.297 . S
Cd296 O307 2.439 . S
O297 Cd296 2.240 . S
O297 C302 1.279 . S
O298 Cd295 2.297 . S
O298 C300 1.247 . S
O299 Cd295 2.439 . S
O299 C300 1.208 . S
C300 O298 1.247 . S
C300 O299 1.208 . S
C301 O306 1.247 . S
C301 O307 1.208 . S
C302 O294 1.315 . S
C302 O297 1.279 . S
C303 O304 1.315 . S
C303 O305 1.279 . S
O304 Cd296 2.223 . S
O304 C303 1.315 . S
O305 Cd295 2.240 . S
O305 C303 1.279 . S
O306 Cd296 2.297 . S
O306 C301 1.247 . S
O307 Cd296 2.439 . S
O307 C301 1.208 . S
O308 Cd309 2.223 . S
O308 C316 1.315 . S
Cd309 O308 2.223 . S
Cd309 O312 2.297 . S
Cd309 O313 2.439 . S
Cd309 O319 2.240 . S
Cd310 O311 2.240 . S
Cd310 O318 2.223 . S
Cd310 O320 2.297 . S
Cd310 O321 2.439 . S
O311 Cd310 2.240 . S
O311 C316 1.279 . S
O312 Cd309 2.297 . S
O312 C314 1.247 . S
O313 Cd309 2.439 . S
O313 C314 1.208 . S
C314 O312 1.247 . S
C314 O313 1.208 . S
C315 O320 1.247 . S
C315 O321 1.208 . S
C316 O308 1.315 . S
C316 O311 1.279 . S
C317 O318 1.315 . S
C317 O319 1.279 . S
O318 Cd310 2.223 . S
O318 C317 1.315 . S
O319 Cd309 2.240 . S
O319 C317 1.279 . S
O320 Cd310 2.297 . S
O320 C315 1.247 . S
O321 Cd310 2.439 . S
O321 C315 1.208 . S
O322 Cd323 2.223 . S
O322 C330 1.315 . S
Cd323 O322 2.223 . S
Cd323 O326 2.297 . S
Cd323 O327 2.439 . S
Cd323 O333 2.240 . S
Cd324 O325 2.240 . S
Cd324 O332 2.223 . S
Cd324 O334 2.297 . S
Cd324 O335 2.439 . S
O325 Cd324 2.240 . S
O325 C330 1.279 . S
O326 Cd323 2.297 . S
O326 C328 1.247 . S
O327 Cd323 2.439 . S
O327 C328 1.208 . S
C328 O326 1.247 . S
C328 O327 1.208 . S
C329 O334 1.247 . S
C329 O335 1.208 . S
C330 O322 1.315 . S
C330 O325 1.279 . S
C331 O332 1.315 . S
C331 O333 1.279 . S
O332 Cd324 2.223 . S
O332 C331 1.315 . S
O333 Cd323 2.240 . S
O333 C331 1.279 . S
O334 Cd324 2.297 . S
O334 C329 1.247 . S
O335 Cd324 2.439 . S
O335 C329 1.208 . S
Dy336 O339 2.307 . S
Dy336 O341 2.395 . S
Dy336 O342 2.379 . S
Dy336 O344 2.339 . S
Dy336 O346 2.298 . S
Dy336 O350 2.275 . S
Dy336 C358 2.738 . S
Dy337 O340 2.293 1_655 S
Dy337 O343 2.257 1_655 S
Dy337 O345 2.276 1_655 S
Dy337 O347 2.436 . S
Dy337 O348 2.417 . S
Dy337 O351 2.317 1_655 S
Dy337 C367 2.783 . S
C338 O350 1.254 . S
C338 O351 1.257 . S
O339 Dy336 2.307 . S
O339 C349 1.266 . S
O340 Dy337 2.293 1_455 S
O340 C349 1.236 . S
O341 Dy336 2.395 . S
O341 C358 1.255 . S
O342 Dy336 2.379 . S
O342 C358 1.249 . S
O343 Dy337 2.257 1_455 S
O343 C359 1.254 . S
O344 Dy336 2.339 . S
O344 C359 1.257 . S
O345 Dy337 2.276 1_455 S
O345 C360 1.266 . S
O346 Dy336 2.298 . S
O346 C360 1.236 . S
O347 Dy337 2.436 . S
O347 C367 1.255 . S
O348 Dy337 2.417 . S
O348 C367 1.249 . S
C349 O339 1.266 . S
C349 O340 1.236 . S
O350 Dy336 2.275 . S
O350 C338 1.254 . S
O351 Dy337 2.317 1_455 S
O351 C338 1.257 . S
C352 C355 1.344 . S
C352 C356 1.328 . S
C352 C358 1.516 . S
C353 C354 1.304 . S
C353 C357 1.323 . S
C354 C353 1.304 . S
C354 C355 1.371 . S
C354 H368 0.930 . S
C355 C352 1.344 . S
C355 C354 1.371 . S
C355 H369 0.931 . S
C356 C352 1.328 . S
C356 C357 1.433 . S
C356 H370 0.931 . S
C357 C353 1.323 . S
C357 C356 1.433 . S
C357 H371 0.933 . S
C358 Dy336 2.738 . S
C358 O341 1.255 . S
C358 O342 1.249 . S
C358 C352 1.516 . S
C359 O343 1.254 . S
C359 O344 1.257 . S
C360 O345 1.266 . S
C360 O346 1.236 . S
C361 C364 1.344 . S
C361 C365 1.328 . S
C361 C367 1.516 . S
C362 C363 1.304 . S
C362 C366 1.323 . S
C363 C362 1.304 . S
C363 C364 1.371 . S
C363 H372 0.930 . S
C364 C361 1.344 . S
C364 C363 1.371 . S
C364 H373 0.931 . S
C365 C361 1.328 . S
C365 C366 1.433 . S
C365 H374 0.931 1_554 S
C366 C362 1.323 . S
C366 C365 1.433 . S
C366 H375 0.933 1_554 S
C367 Dy337 2.783 . S
C367 O347 1.255 . S
C367 O348 1.249 . S
C367 C361 1.516 . S
H368 C354 0.930 . S
H369 C355 0.931 . S
H370 C356 0.931 . S
H371 C357 0.933 . S
H372 C363 0.930 . S
H373 C364 0.931 . S
H374 C365 0.931 1_556 S
H375 C366 0.933 1_556 S
Dy376 O379 2.307 . S
Dy376 O381 2.395 . S
Dy376 O382 2.379 . S
Dy376 O384 2.339 . S
Dy376 O386 2.298 . S
Dy376 O390 2.275 . S
Dy376 C398 2.738 . S
Dy377 O380 2.298 . S
Dy377 O383 2.275 . S
Dy377 O385 2.307 . S
Dy377 O387 2.395 . S
Dy377 O388 2.379 . S
Dy377 O391 2.339 . S
Dy377 C407 2.738 . S
C378 O390 1.254 . S
C378 O391 1.257 . S
O379 Dy376 2.307 . S
O379 C389 1.266 . S
O380 Dy377 2.298 . S
O380 C389 1.236 . S
O381 Dy376 2.395 . S
O381 C398 1.255 . S
O382 Dy376 2.379 . S
O382 C398 1.249 . S
O383 Dy377 2.275 . S
O383 C399 1.254 . S
O384 Dy376 2.339 . S
O384 C399 1.257 . S
O385 Dy377 2.307 . S
O385 C400 1.266 . S
O386 Dy376 2.298 . S
O386 C400 1.236 . S
O387 Dy377 2.395 . S
O387 C407 1.255 . S
O388 Dy377 2.379 . S
O388 C407 1.249 . S
C389 O379 1.266 . S
C389 O380 1.236 . S
O390 Dy376 2.275 . S
O390 C378 1.254 . S
O391 Dy377 2.339 . S
O391 C378 1.257 . S
C392 C395 1.344 . S
C392 C396 1.328 . S
C392 C398 1.516 . S
C393 C394 1.304 . S
C393 C397 1.323 . S
C394 C393 1.304 . S
C394 C395 1.371 . S
C394 H408 0.930 . S
C395 C392 1.344 . S
C395 C394 1.371 . S
C395 H409 0.931 . S
C396 C392 1.328 . S
C396 C397 1.433 . S
C396 H410 0.931 . S
C397 C393 1.323 . S
C397 C396 1.433 . S
C397 H411 0.933 . S
C398 Dy376 2.738 . S
C398 O381 1.255 . S
C398 O382 1.249 . S
C398 C392 1.516 . S
C399 O383 1.254 . S
C399 O384 1.257 . S
C400 O385 1.266 . S
C400 O386 1.236 . S
C401 C404 1.344 . S
C401 C405 1.328 . S
C401 C407 1.516 . S
C402 C403 1.304 . S
C402 C406 1.323 . S
C403 C402 1.304 . S
C403 C404 1.371 . S
C403 H412 0.930 . S
C404 C401 1.344 . S
C404 C403 1.371 . S
C404 H413 0.931 . S
C405 C401 1.328 . S
C405 C406 1.433 . S
C405 H414 0.931 . S
C406 C402 1.323 . S
C406 C405 1.433 . S
C406 H415 0.933 . S
C407 Dy377 2.738 . S
C407 O387 1.255 . S
C407 O388 1.249 . S
C407 C401 1.516 . S
H408 C394 0.930 . S
H409 C395 0.931 . S
H410 C396 0.931 . S
H411 C397 0.933 . S
H412 C403 0.930 . S
H413 C404 0.931 . S
H414 C405 0.931 . S
H415 C406 0.933 . S
Dy416 O419 2.307 . S
Dy416 O421 2.395 . S
Dy416 O422 2.379 . S
Dy416 O424 2.339 . S
Dy416 O426 2.298 . S
Dy416 O430 2.275 . S
Dy416 C438 2.738 . S
Dy417 O420 2.298 . S
Dy417 O423 2.275 . S
Dy417 O425 2.307 . S
Dy417 O427 2.395 . S
Dy417 O428 2.379 . S
Dy417 O431 2.339 . S
Dy417 C447 2.738 . S
C418 O430 1.254 . S
C418 O431 1.257 . S
O419 Dy416 2.307 . S
O419 C429 1.266 1_545 S
O420 Dy417 2.298 . S
O420 C429 1.236 1_545 S
O421 Dy416 2.395 . S
O421 C438 1.255 . S
O422 Dy416 2.379 . S
O422 C438 1.249 . S
O423 Dy417 2.275 . S
O423 C439 1.254 . S
O424 Dy416 2.339 . S
O424 C439 1.257 . S
O425 Dy417 2.307 . S
O425 C440 1.266 . S
O426 Dy416 2.298 . S
O426 C440 1.236 . S
O427 Dy417 2.395 . S
O427 C447 1.255 . S
O428 Dy417 2.379 . S
O428 C447 1.249 . S
C429 O419 1.266 1_565 S
C429 O420 1.236 1_565 S
O430 Dy416 2.275 . S
O430 C418 1.254 . S
O431 Dy417 2.339 . S
O431 C418 1.257 . S
C432 C435 1.344 . S
C432 C436 1.328 . S
C432 C438 1.516 . S
C433 C434 1.304 . S
C433 C437 1.323 . S
C434 C433 1.304 . S
C434 C435 1.371 . S
C434 H448 0.930 . S
C435 C432 1.344 . S
C435 C434 1.371 . S
C435 H449 0.931 . S
C436 C432 1.328 . S
C436 C437 1.433 . S
C436 H450 0.931 . S
C437 C433 1.323 . S
C437 C436 1.433 . S
C437 H451 0.933 . S
C438 Dy416 2.738 . S
C438 O421 1.255 . S
C438 O422 1.249 . S
C438 C432 1.516 . S
C439 O423 1.254 . S
C439 O424 1.257 . S
C440 O425 1.266 . S
C440 O426 1.236 . S
C441 C444 1.344 1_545 S
C441 C445 1.328 . S
C441 C447 1.516 . S
C442 C443 1.304 . S
C442 C446 1.323 . S
C443 C442 1.304 . S
C443 C444 1.371 . S
C443 H452 0.930 . S
C444 C441 1.344 1_565 S
C444 C443 1.371 . S
C444 H453 0.931 . S
C445 C441 1.328 . S
C445 C446 1.433 1_545 S
C445 H454 0.931 . S
C446 C442 1.323 . S
C446 C445 1.433 1_565 S
C446 H455 0.933 . S
C447 Dy417 2.738 . S
C447 O427 1.255 . S
C447 O428 1.249 . S
C447 C441 1.516 . S
H448 C434 0.930 . S
H449 C435 0.931 . S
H450 C436 0.931 . S
H451 C437 0.933 . S
H452 C443 0.930 . S
H453 C444 0.931 . S
H454 C445 0.931 . S
H455 C446 0.933 . S
Dy456 O459 2.307 . S
Dy456 O461 2.395 . S
Dy456 O462 2.379 . S
Dy456 O464 2.339 . S
Dy456 O466 2.298 . S
Dy456 O470 2.275 . S
Dy456 C478 2.738 . S
Dy457 O460 2.298 . S
Dy457 O463 2.275 . S
Dy457 O465 2.307 . S
Dy457 O467 2.395 . S
Dy457 O468 2.379 . S
Dy457 O471 2.339 . S
Dy457 C487 2.738 . S
C458 O470 1.254 . S
C458 O471 1.257 . S
O459 Dy456 2.307 . S
O459 C469 1.266 . S
O460 Dy457 2.298 . S
O460 C469 1.236 . S
O461 Dy456 2.395 . S
O461 C478 1.255 . S
O462 Dy456 2.379 . S
O462 C478 1.249 . S
O463 Dy457 2.275 . S
O463 C479 1.254 . S
O464 Dy456 2.339 . S
O464 C479 1.257 . S
O465 Dy457 2.307 . S
O465 C480 1.266 . S
O466 Dy456 2.298 . S
O466 C480 1.236 . S
O467 Dy457 2.395 . S
O467 C487 1.255 . S
O468 Dy457 2.379 . S
O468 C487 1.249 . S
C469 O459 1.266 . S
C469 O460 1.236 . S
O470 Dy456 2.275 . S
O470 C458 1.254 . S
O471 Dy457 2.339 . S
O471 C458 1.257 . S
C472 C475 1.344 . S
C472 C476 1.328 . S
C472 C478 1.516 . S
C473 C474 1.304 . S
C473 C477 1.323 . S
C474 C473 1.304 . S
C474 C475 1.371 . S
C474 H488 0.930 . S
C475 C472 1.344 . S
C475 C474 1.371 . S
C475 H489 0.931 . S
C476 C472 1.328 . S
C476 C477 1.433 . S
C476 H490 0.931 . S
C477 C473 1.323 . S
C477 C476 1.433 . S
C477 H491 0.933 . S
C478 Dy456 2.738 . S
C478 O461 1.255 . S
C478 O462 1.249 . S
C478 C472 1.516 . S
C479 O463 1.254 . S
C479 O464 1.257 . S
C480 O465 1.266 . S
C480 O466 1.236 . S
C481 C484 1.344 . S
C481 C485 1.328 . S
C481 C487 1.516 . S
C482 C483 1.304 . S
C482 C486 1.323 . S
C483 C482 1.304 . S
C483 C484 1.371 . S
C483 H492 0.930 . S
C484 C481 1.344 . S
C484 C483 1.371 . S
C484 H493 0.931 . S
C485 C481 1.328 . S
C485 C486 1.433 . S
C485 H494 0.931 . S
C486 C482 1.323 . S
C486 C485 1.433 . S
C486 H495 0.933 . S
C487 Dy457 2.738 . S
C487 O467 1.255 . S
C487 O468 1.249 . S
C487 C481 1.516 . S
H488 C474 0.930 . S
H489 C475 0.931 . S
H490 C476 0.931 . S
H491 C477 0.933 . S
H492 C483 0.930 . S
H493 C484 0.931 . S
H494 C485 0.931 . S
H495 C486 0.933 . S
Dy496 O499 2.307 . S
Dy496 O501 2.395 1_545 S
Dy496 O502 2.379 1_545 S
Dy496 O504 2.339 . S
Dy496 O506 2.298 . S
Dy496 O510 2.275 . S
Dy496 C518 2.738 1_545 S
Dy497 O500 2.298 . S
Dy497 O503 2.275 . S
Dy497 O505 2.307 . S
Dy497 O507 2.395 . S
Dy497 O508 2.379 . S
Dy497 O511 2.339 1_455 S
Dy497 C527 2.738 . S
C498 O510 1.254 1_655 S
C498 O511 1.257 . S
O499 Dy496 2.307 . S
O499 C509 1.266 . S
O500 Dy497 2.298 . S
O500 C509 1.236 . S
O501 Dy496 2.395 1_565 S
O501 C518 1.255 . S
O502 Dy496 2.379 1_565 S
O502 C518 1.249 . S
O503 Dy497 2.275 . S
O503 C519 1.254 . S
O504 Dy496 2.339 . S
O504 C519 1.257 . S
O505 Dy497 2.307 . S
O505 C520 1.266 . S
O506 Dy496 2.298 . S
O506 C520 1.236 . S
O507 Dy497 2.395 . S
O507 C527 1.255 . S
O508 Dy497 2.379 . S
O508 C527 1.249 . S
C509 O499 1.266 . S
C509 O500 1.236 . S
O510 Dy496 2.275 . S
O510 C498 1.254 1_455 S
O511 Dy497 2.339 1_655 S
O511 C498 1.257 . S
C512 C515 1.344 . S
C512 C516 1.328 . S
C512 C518 1.516 . S
C513 C514 1.304 . S
C513 C517 1.323 . S
C514 C513 1.304 . S
C514 C515 1.371 . S
C514 H528 0.930 . S
C515 C512 1.344 . S
C515 C514 1.371 . S
C515 H529 0.931 . S
C516 C512 1.328 . S
C516 C517 1.433 . S
C516 H530 0.931 . S
C517 C513 1.323 . S
C517 C516 1.433 . S
C517 H531 0.933 . S
C518 Dy496 2.738 1_565 S
C518 O501 1.255 . S
C518 O502 1.249 . S
C518 C512 1.516 . S
C519 O503 1.254 . S
C519 O504 1.257 . S
C520 O505 1.266 . S
C520 O506 1.236 . S
C521 C524 1.344 . S
C521 C525 1.328 . S
C521 C527 1.516 . S
C522 C523 1.304 . S
C522 C526 1.323 . S
C523 C522 1.304 . S
C523 C524 1.371 . S
C523 H532 0.930 . S
C524 C521 1.344 . S
C524 C523 1.371 . S
C524 H533 0.931 . S
C525 C521 1.328 . S
C525 C526 1.433 . S
C525 H534 0.931 1_455 S
C526 C522 1.323 . S
C526 C525 1.433 . S
C526 H535 0.933 1_455 S
C527 Dy497 2.738 . S
C527 O507 1.255 . S
C527 O508 1.249 . S
C527 C521 1.516 . S
H528 C514 0.930 . S
H529 C515 0.931 . S
H530 C516 0.931 . S
H531 C517 0.933 . S
H532 C523 0.930 . S
H533 C524 0.931 . S
H534 C525 0.931 1_655 S
H535 C526 0.933 1_655 S
Dy536 O539 2.307 . S
Dy536 O541 2.395 . S
Dy536 O542 2.379 . S
Dy536 O544 2.339 . S
Dy536 O546 2.298 . S
Dy536 O550 2.275 . S
Dy536 C558 2.738 . S
Dy537 O540 2.298 . S
Dy537 O543 2.275 . S
Dy537 O545 2.307 . S
Dy537 O547 2.395 . S
Dy537 O548 2.379 . S
Dy537 O551 2.339 . S
Dy537 C567 2.738 . S
C538 O550 1.254 . S
C538 O551 1.257 . S
O539 Dy536 2.307 . S
O539 C549 1.266 . S
O540 Dy537 2.298 . S
O540 C549 1.236 . S
O541 Dy536 2.395 . S
O541 C558 1.255 . S
O542 Dy536 2.379 . S
O542 C558 1.249 . S
O543 Dy537 2.275 . S
O543 C559 1.254 . S
O544 Dy536 2.339 . S
O544 C559 1.257 . S
O545 Dy537 2.307 . S
O545 C560 1.266 . S
O546 Dy536 2.298 . S
O546 C560 1.236 . S
O547 Dy537 2.395 . S
O547 C567 1.255 . S
O548 Dy537 2.379 . S
O548 C567 1.249 . S
C549 O539 1.266 . S
C549 O540 1.236 . S
O550 Dy536 2.275 . S
O550 C538 1.254 . S
O551 Dy537 2.339 . S
O551 C538 1.257 . S
C552 C555 1.344 . S
C552 C556 1.328 . S
C552 C558 1.516 . S
C553 C554 1.304 . S
C553 C557 1.323 . S
C554 C553 1.304 . S
C554 C555 1.371 . S
C554 H568 0.930 . S
C555 C552 1.344 . S
C555 C554 1.371 . S
C555 H569 0.931 . S
C556 C552 1.328 . S
C556 C557 1.433 . S
C556 H570 0.931 . S
C557 C553 1.323 . S
C557 C556 1.433 . S
C557 H571 0.933 . S
C558 Dy536 2.738 . S
C558 O541 1.255 . S
C558 O542 1.249 . S
C558 C552 1.516 . S
C559 O543 1.254 . S
C559 O544 1.257 . S
C560 O545 1.266 . S
C560 O546 1.236 . S
C561 C564 1.344 . S
C561 C565 1.328 . S
C561 C567 1.516 . S
C562 C563 1.304 . S
C562 C566 1.323 . S
C563 C562 1.304 . S
C563 C564 1.371 . S
C563 H572 0.930 . S
C564 C561 1.344 . S
C564 C563 1.371 . S
C564 H573 0.931 . S
C565 C561 1.328 . S
C565 C566 1.433 . S
C565 H574 0.931 . S
C566 C562 1.323 . S
C566 C565 1.433 . S
C566 H575 0.933 . S
C567 Dy537 2.738 . S
C567 O547 1.255 . S
C567 O548 1.249 . S
C567 C561 1.516 . S
H568 C554 0.930 . S
H569 C555 0.931 . S
H570 C556 0.931 . S
H571 C557 0.933 . S
H572 C563 0.930 . S
H573 C564 0.931 . S
H574 C565 0.931 . S
H575 C566 0.933 . S
Dy576 O579 2.307 . S
Dy576 O581 2.395 1_554 S
Dy576 O582 2.379 1_554 S
Dy576 O584 2.339 . S
Dy576 O586 2.298 . S
Dy576 O590 2.275 . S
Dy576 C598 2.738 1_554 S
Dy577 O580 2.298 . S
Dy577 O583 2.275 . S
Dy577 O585 2.307 . S
Dy577 O587 2.395 . S
Dy577 O588 2.382 1_545 S
Dy577 O591 2.339 1_545 S
Dy577 C607 2.738 . S
C578 O590 1.254 . S
C578 O591 1.257 1_545 S
O579 Dy576 2.307 . S
O579 C589 1.266 . S
O580 Dy577 2.298 . S
O580 C589 1.236 . S
O581 Dy576 2.395 1_556 S
O581 C598 1.255 . S
O582 Dy576 2.379 1_556 S
O582 C598 1.249 . S
O583 Dy577 2.275 . S
O583 C599 1.254 . S
O584 Dy576 2.339 . S
O584 C599 1.257 . S
O585 Dy577 2.307 . S
O585 C600 1.266 . S
O586 Dy576 2.298 . S
O586 C600 1.236 . S
O587 Dy577 2.395 . S
O587 C607 1.255 . S
O588 Dy577 2.382 1_565 S
O588 C607 1.253 1_565 S
C589 O579 1.266 . S
C589 O580 1.236 . S
O590 Dy576 2.275 . S
O590 C578 1.254 . S
O591 Dy577 2.339 1_565 S
O591 C578 1.257 1_565 S
C592 C595 1.344 . S
C592 C596 1.328 . S
C592 C598 1.516 . S
C593 C594 1.304 . S
C593 C597 1.323 . S
C594 C593 1.304 . S
C594 C595 1.371 . S
C594 H608 0.930 . S
C595 C592 1.344 . S
C595 C594 1.371 . S
C595 H609 0.931 . S
C596 C592 1.328 . S
C596 C597 1.433 . S
C596 H610 0.931 . S
C597 C593 1.323 . S
C597 C596 1.433 . S
C597 H611 0.933 . S
C598 Dy576 2.738 1_556 S
C598 O581 1.255 . S
C598 O582 1.249 . S
C598 C592 1.516 . S
C599 O583 1.254 . S
C599 O584 1.257 . S
C600 O585 1.266 . S
C600 O586 1.236 . S
C601 C604 1.344 . S
C601 C605 1.328 1_545 S
C601 C607 1.516 . S
C602 C603 1.304 1_565 S
C602 C606 1.323 . S
C603 C602 1.304 1_545 S
C603 C604 1.371 . S
C603 H612 0.930 . S
C604 C601 1.344 . S
C604 C603 1.371 . S
C604 H613 0.931 . S
C605 C601 1.328 1_565 S
C605 C606 1.433 . S
C605 H614 0.931 . S
C606 C602 1.323 . S
C606 C605 1.433 . S
C606 H615 0.933 . S
C607 Dy577 2.738 . S
C607 O587 1.255 . S
C607 O588 1.253 1_545 S
C607 C601 1.516 . S
H608 C594 0.930 . S
H609 C595 0.931 . S
H610 C596 0.931 . S
H611 C597 0.933 . S
H612 C603 0.930 . S
H613 C604 0.931 . S
H614 C605 0.931 . S
H615 C606 0.933 . S
Dy616 O619 2.307 . S
Dy616 O621 2.395 . S
Dy616 O622 2.379 . S
Dy616 O624 2.339 . S
Dy616 O626 2.298 . S
Dy616 O630 2.275 . S
Dy616 C638 2.738 . S
Dy617 O620 2.298 . S
Dy617 O623 2.275 . S
Dy617 O625 2.307 . S
Dy617 O627 2.395 . S
Dy617 O628 2.379 . S
Dy617 O631 2.339 . S
Dy617 C647 2.738 . S
C618 O630 1.254 . S
C618 O631 1.257 . S
O619 Dy616 2.307 . S
O619 C629 1.266 . S
O620 Dy617 2.298 . S
O620 C629 1.236 . S
O621 Dy616 2.395 . S
O621 C638 1.255 . S
O622 Dy616 2.379 . S
O622 C638 1.249 . S
O623 Dy617 2.275 . S
O623 C639 1.254 . S
O624 Dy616 2.339 . S
O624 C639 1.257 . S
O625 Dy617 2.307 . S
O625 C640 1.266 . S
O626 Dy616 2.298 . S
O626 C640 1.236 . S
O627 Dy617 2.395 . S
O627 C647 1.255 . S
O628 Dy617 2.379 . S
O628 C647 1.249 . S
C629 O619 1.266 . S
C629 O620 1.236 . S
O630 Dy616 2.275 . S
O630 C618 1.254 . S
O631 Dy617 2.339 . S
O631 C618 1.257 . S
C632 C635 1.344 . S
C632 C636 1.328 . S
C632 C638 1.516 . S
C633 C634 1.304 . S
C633 C637 1.323 . S
C634 C633 1.304 . S
C634 C635 1.371 . S
C634 H648 0.930 . S
C635 C632 1.344 . S
C635 C634 1.371 . S
C635 H649 0.931 . S
C636 C632 1.328 . S
C636 C637 1.433 . S
C636 H650 0.931 . S
C637 C633 1.323 . S
C637 C636 1.433 . S
C637 H651 0.933 . S
C638 Dy616 2.738 . S
C638 O621 1.255 . S
C638 O622 1.249 . S
C638 C632 1.516 . S
C639 O623 1.254 . S
C639 O624 1.257 . S
C640 O625 1.266 . S
C640 O626 1.236 . S
C641 C644 1.344 . S
C641 C645 1.328 . S
C641 C647 1.516 . S
C642 C643 1.304 . S
C642 C646 1.323 . S
C643 C642 1.304 . S
C643 C644 1.371 . S
C643 H652 0.930 . S
C644 C641 1.344 . S
C644 C643 1.371 . S
C644 H653 0.931 . S
C645 C641 1.328 . S
C645 C646 1.433 . S
C645 H654 0.931 . S
C646 C642 1.323 . S
C646 C645 1.433 . S
C646 H655 0.933 . S
C647 Dy617 2.738 . S
C647 O627 1.255 . S
C647 O628 1.249 . S
C647 C641 1.516 . S
H648 C634 0.930 . S
H649 C635 0.931 . S
H650 C636 0.931 . S
H651 C637 0.933 . S
H652 C643 0.930 . S
H653 C644 0.931 . S
H654 C645 0.931 . S
H655 C646 0.933 . S
Dy656 O659 2.307 . S
Dy656 O661 2.395 . S
Dy656 O662 2.379 . S
Dy656 O664 2.339 . S
Dy656 O666 2.298 . S
Dy656 O670 2.275 . S
Dy656 C678 2.738 . S
Dy657 O660 2.298 . S
Dy657 O663 2.275 . S
Dy657 O665 2.307 . S
Dy657 O667 2.395 . S
Dy657 O668 2.379 . S
Dy657 O671 2.339 . S
Dy657 C687 2.738 . S
C658 O670 1.254 . S
C658 O671 1.257 . S
O659 Dy656 2.307 . S
O659 C669 1.266 . S
O660 Dy657 2.298 . S
O660 C669 1.236 . S
O661 Dy656 2.395 . S
O661 C678 1.255 . S
O662 Dy656 2.379 . S
O662 C678 1.249 . S
O663 Dy657 2.275 . S
O663 C679 1.254 . S
O664 Dy656 2.339 . S
O664 C679 1.257 . S
O665 Dy657 2.307 . S
O665 C680 1.266 . S
O666 Dy656 2.298 . S
O666 C680 1.236 . S
O667 Dy657 2.395 . S
O667 C687 1.255 . S
O668 Dy657 2.379 . S
O668 C687 1.249 . S
C669 O659 1.266 . S
C669 O660 1.236 . S
O670 Dy656 2.275 . S
O670 C658 1.254 . S
O671 Dy657 2.339 . S
O671 C658 1.257 . S
C672 C675 1.344 . S
C672 C676 1.328 . S
C672 C678 1.516 . S
C673 C674 1.304 . S
C673 C677 1.323 . S
C674 C673 1.304 . S
C674 C675 1.371 . S
C674 H688 0.930 . S
C675 C672 1.344 . S
C675 C674 1.371 . S
C675 H689 0.931 . S
C676 C672 1.328 . S
C676 C677 1.433 . S
C676 H690 0.931 . S
C677 C673 1.323 . S
C677 C676 1.433 . S
C677 H691 0.933 . S
C678 Dy656 2.738 . S
C678 O661 1.255 . S
C678 O662 1.249 . S
C678 C672 1.516 . S
C679 O663 1.254 . S
C679 O664 1.257 . S
C680 O665 1.266 . S
C680 O666 1.236 . S
C681 C684 1.344 . S
C681 C685 1.328 . S
C681 C687 1.516 . S
C682 C683 1.304 . S
C682 C686 1.323 1_556 S
C683 C682 1.304 . S
C683 C684 1.371 1_556 S
C683 H692 0.930 . S
C684 C681 1.344 . S
C684 C683 1.371 1_554 S
C684 H693 0.931 . S
C685 C681 1.328 . S
C685 C686 1.433 . S
C685 H694 0.931 . S
C686 C682 1.323 1_554 S
C686 C685 1.433 . S
C686 H695 0.933 . S
C687 Dy657 2.738 . S
C687 O667 1.255 . S
C687 O668 1.249 . S
C687 C681 1.516 . S
H688 C674 0.930 . S
H689 C675 0.931 . S
H690 C676 0.931 . S
H691 C677 0.933 . S
H692 C683 0.930 . S
H693 C684 0.931 . S
H694 C685 0.931 . S
H695 C686 0.933 . S
Dy696 O699 2.307 . S
Dy696 O701 2.395 . S
Dy696 O702 2.379 . S
Dy696 O704 2.339 . S
Dy696 O706 2.298 . S
Dy696 O710 2.275 . S
Dy696 C718 2.738 . S
Dy697 O700 2.298 . S
Dy697 O703 2.275 . S
Dy697 O705 2.307 . S
Dy697 O707 2.395 . S
Dy697 O708 2.379 . S
Dy697 O711 2.339 . S
Dy697 C727 2.738 . S
C698 O710 1.254 . S
C698 O711 1.257 . S
O699 Dy696 2.307 . S
O699 C709 1.266 . S
O700 Dy697 2.298 . S
O700 C709 1.236 . S
O701 Dy696 2.395 . S
O701 C718 1.255 . S
O702 Dy696 2.379 . S
O702 C718 1.249 . S
O703 Dy697 2.275 . S
O703 C719 1.254 . S
O704 Dy696 2.339 . S
O704 C719 1.257 . S
O705 Dy697 2.307 . S
O705 C720 1.266 . S
O706 Dy696 2.298 . S
O706 C720 1.236 . S
O707 Dy697 2.395 . S
O707 C727 1.255 . S
O708 Dy697 2.379 . S
O708 C727 1.249 . S
C709 O699 1.266 . S
C709 O700 1.236 . S
O710 Dy696 2.275 . S
O710 C698 1.254 . S
O711 Dy697 2.339 . S
O711 C698 1.257 . S
C712 C715 1.344 . S
C712 C716 1.328 . S
C712 C718 1.516 . S
C713 C714 1.304 . S
C713 C717 1.323 . S
C714 C713 1.304 . S
C714 C715 1.371 . S
C714 H728 0.930 . S
C715 C712 1.344 . S
C715 C714 1.371 . S
C715 H729 0.931 . S
C716 C712 1.328 . S
C716 C717 1.433 . S
C716 H730 0.931 . S
C717 C713 1.323 . S
C717 C716 1.433 . S
C717 H731 0.933 . S
C718 Dy696 2.738 . S
C718 O701 1.255 . S
C718 O702 1.249 . S
C718 C712 1.516 . S
C719 O703 1.254 . S
C719 O704 1.257 . S
C720 O705 1.266 . S
C720 O706 1.236 . S
C721 C724 1.344 . S
C721 C725 1.328 . S
C721 C727 1.516 . S
C722 C723 1.304 . S
C722 C726 1.323 . S
C723 C722 1.304 . S
C723 C724 1.371 . S
C723 H732 0.930 . S
C724 C721 1.344 . S
C724 C723 1.371 . S
C724 H733 0.931 . S
C725 C721 1.328 . S
C725 C726 1.433 . S
C725 H734 0.931 . S
C726 C722 1.323 . S
C726 C725 1.433 . S
C726 H735 0.933 . S
C727 Dy697 2.738 . S
C727 O707 1.255 . S
C727 O708 1.249 . S
C727 C721 1.516 . S
H728 C714 0.930 . S
H729 C715 0.931 . S
H730 C716 0.931 . S
H731 C717 0.933 . S
H732 C723 0.930 . S
H733 C724 0.931 . S
H734 C725 0.931 . S
H735 C726 0.933 . S
Dy736 O739 2.307 1_455 S
Dy736 O741 2.395 . S
Dy736 O742 2.379 . S
Dy736 O744 2.339 . S
Dy736 O746 2.298 . S
Dy736 O750 2.275 . S
Dy736 C758 2.738 . S
Dy737 O740 2.298 1_455 S
Dy737 O743 2.275 . S
Dy737 O745 2.307 . S
Dy737 O747 2.395 . S
Dy737 O748 2.379 . S
Dy737 O751 2.339 . S
Dy737 C767 2.762 . S
C738 O750 1.254 . S
C738 O751 1.257 . S
O739 Dy736 2.307 1_655 S
O739 C749 1.266 . S
O740 Dy737 2.298 1_655 S
O740 C749 1.236 . S
O741 Dy736 2.395 . S
O741 C758 1.255 . S
O742 Dy736 2.379 . S
O742 C758 1.249 . S
O743 Dy737 2.275 . S
O743 C759 1.254 . S
O744 Dy736 2.339 . S
O744 C759 1.257 . S
O745 Dy737 2.307 . S
O745 C760 1.266 . S
O746 Dy736 2.298 . S
O746 C760 1.236 . S
O747 Dy737 2.395 . S
O747 C767 1.250 . S
O748 Dy737 2.379 . S
O748 C767 1.279 . S
C749 O739 1.266 . S
C749 O740 1.236 . S
O750 Dy736 2.275 . S
O750 C738 1.254 . S
O751 Dy737 2.339 . S
O751 C738 1.257 . S
C752 C755 1.344 . S
C752 C756 1.328 . S
C752 C758 1.516 . S
C753 C754 1.304 . S
C753 C757 1.323 . S
C754 C753 1.304 . S
C754 C755 1.371 . S
C754 H768 0.930 . S
C755 C752 1.344 . S
C755 C754 1.371 . S
C755 H769 0.931 . S
C756 C752 1.328 . S
C756 C757 1.433 . S
C756 H770 0.931 . S
C757 C753 1.323 . S
C757 C756 1.433 . S
C757 H771 0.933 . S
C758 Dy736 2.738 . S
C758 O741 1.255 . S
C758 O742 1.249 . S
C758 C752 1.516 . S
C759 O743 1.254 . S
C759 O744 1.257 . S
C760 O745 1.266 . S
C760 O746 1.236 . S
C761 C764 1.344 . S
C761 C765 1.328 . S
C761 C767 1.492 1_655 S
C762 C763 1.304 . S
C762 C766 1.323 . S
C763 C762 1.304 . S
C763 C764 1.371 . S
C763 H772 0.930 . S
C764 C761 1.344 . S
C764 C763 1.371 . S
C764 H773 0.931 . S
C765 C761 1.328 . S
C765 C766 1.433 . S
C765 H774 0.931 . S
C766 C762 1.323 . S
C766 C765 1.433 . S
C766 H775 0.933 . S
C767 Dy737 2.762 . S
C767 O747 1.250 . S
C767 O748 1.279 . S
C767 C761 1.492 1_455 S
H768 C754 0.930 . S
H769 C755 0.931 . S
H770 C756 0.931 . S
H771 C757 0.933 . S
H772 C763 0.930 . S
H773 C764 0.931 . S
H774 C765 0.931 . S
H775 C766 0.933 . S
Dy776 O779 2.307 . S
Dy776 O781 2.395 . S
Dy776 O782 2.379 . S
Dy776 O784 2.339 . S
Dy776 O786 2.298 . S
Dy776 O790 2.275 . S
Dy776 C798 2.738 . S
Dy777 O780 2.298 . S
Dy777 O783 2.275 . S
Dy777 O785 2.307 . S
Dy777 O787 2.395 . S
Dy777 O788 2.379 . S
Dy777 O791 2.339 . S
Dy777 C807 2.738 . S
C778 O790 1.254 . S
C778 O791 1.257 . S
O779 Dy776 2.307 . S
O779 C789 1.266 . S
O780 Dy777 2.298 . S
O780 C789 1.236 . S
O781 Dy776 2.395 . S
O781 C798 1.255 . S
O782 Dy776 2.379 . S
O782 C798 1.249 . S
O783 Dy777 2.275 . S
O783 C799 1.254 . S
O784 Dy776 2.339 . S
O784 C799 1.257 . S
O785 Dy777 2.307 . S
O785 C800 1.266 . S
O786 Dy776 2.298 . S
O786 C800 1.236 . S
O787 Dy777 2.395 . S
O787 C807 1.255 . S
O788 Dy777 2.379 . S
O788 C807 1.249 . S
C789 O779 1.266 . S
C789 O780 1.236 . S
O790 Dy776 2.275 . S
O790 C778 1.254 . S
O791 Dy777 2.339 . S
O791 C778 1.257 . S
C792 C795 1.344 . S
C792 C796 1.328 . S
C792 C798 1.516 . S
C793 C794 1.304 . S
C793 C797 1.323 . S
C794 C793 1.304 . S
C794 C795 1.371 . S
C794 H808 0.930 . S
C795 C792 1.344 . S
C795 C794 1.371 . S
C795 H809 0.931 . S
C796 C792 1.328 . S
C796 C797 1.433 . S
C796 H810 0.931 . S
C797 C793 1.323 . S
C797 C796 1.433 . S
C797 H811 0.933 . S
C798 Dy776 2.738 . S
C798 O781 1.255 . S
C798 O782 1.249 . S
C798 C792 1.516 . S
C799 O783 1.254 . S
C799 O784 1.257 . S
C800 O785 1.266 . S
C800 O786 1.236 . S
C801 C804 1.344 . S
C801 C805 1.328 . S
C801 C807 1.516 . S
C802 C803 1.304 . S
C802 C806 1.323 . S
C803 C802 1.304 . S
C803 C804 1.371 . S
C803 H812 0.930 . S
C804 C801 1.344 . S
C804 C803 1.371 . S
C804 H813 0.931 . S
C805 C801 1.328 . S
C805 C806 1.433 . S
C805 H814 0.931 . S
C806 C802 1.323 . S
C806 C805 1.433 . S
C806 H815 0.933 . S
C807 Dy777 2.738 . S
C807 O787 1.255 . S
C807 O788 1.249 . S
C807 C801 1.516 . S
H808 C794 0.930 . S
H809 C795 0.931 . S
H810 C796 0.931 . S
H811 C797 0.933 . S
H812 C803 0.930 . S
H813 C804 0.931 . S
H814 C805 0.931 . S
H815 C806 0.933 . S
Dy816 O819 2.307 . S
Dy816 O821 2.395 . S
Dy816 O822 2.379 . S
Dy816 O824 2.339 . S
Dy816 O826 2.298 . S
Dy816 O830 2.275 . S
Dy816 C838 2.738 . S
Dy817 O820 2.298 . S
Dy817 O823 2.275 . S
Dy817 O825 2.307 . S
Dy817 O827 2.395 . S
Dy817 O828 2.379 . S
Dy817 O831 2.339 . S
Dy817 C847 2.738 . S
C818 O830 1.254 . S
C818 O831 1.257 . S
O819 Dy816 2.307 . S
O819 C829 1.266 . S
O820 Dy817 2.298 . S
O820 C829 1.236 . S
O821 Dy816 2.395 . S
O821 C838 1.255 . S
O822 Dy816 2.379 . S
O822 C838 1.249 . S
O823 Dy817 2.275 . S
O823 C839 1.254 . S
O824 Dy816 2.339 . S
O824 C839 1.257 . S
O825 Dy817 2.307 . S
O825 C840 1.266 . S
O826 Dy816 2.298 . S
O826 C840 1.236 . S
O827 Dy817 2.395 . S
O827 C847 1.255 . S
O828 Dy817 2.379 . S
O828 C847 1.249 . S
C829 O819 1.266 . S
C829 O820 1.236 . S
O830 Dy816 2.275 . S
O830 C818 1.254 . S
O831 Dy817 2.339 . S
O831 C818 1.257 . S
C832 C835 1.344 . S
C832 C836 1.328 . S
C832 C838 1.516 . S
C833 C834 1.304 . S
C833 C837 1.323 . S
C834 C833 1.304 . S
C834 C835 1.371 . S
C834 H848 0.930 . S
C835 C832 1.344 . S
C835 C834 1.371 . S
C835 H849 0.931 . S
C836 C832 1.328 . S
C836 C837 1.433 . S
C836 H850 0.931 . S
C837 C833 1.323 . S
C837 C836 1.433 . S
C837 H851 0.933 . S
C838 Dy816 2.738 . S
C838 O821 1.255 . S
C838 O822 1.249 . S
C838 C832 1.516 . S
C839 O823 1.254 . S
C839 O824 1.257 . S
C840 O825 1.266 . S
C840 O826 1.236 . S
C841 C844 1.344 . S
C841 C845 1.328 . S
C841 C847 1.516 . S
C842 C843 1.304 . S
C842 C846 1.323 . S
C843 C842 1.304 . S
C843 C844 1.371 . S
C843 H852 0.930 . S
C844 C841 1.344 . S
C844 C843 1.371 . S
C844 H853 0.931 . S
C845 C841 1.328 . S
C845 C846 1.433 . S
C845 H854 0.931 . S
C846 C842 1.323 . S
C846 C845 1.433 . S
C846 H855 0.933 . S
C847 Dy817 2.738 . S
C847 O827 1.255 . S
C847 O828 1.249 . S
C847 C841 1.516 . S
H848 C834 0.930 . S
H849 C835 0.931 . S
H850 C836 0.931 . S
H851 C837 0.933 . S
H852 C843 0.930 . S
H853 C844 0.931 . S
H854 C845 0.931 . S
H855 C846 0.933 . S
Dy856 O859 2.307 . S
Dy856 O861 2.395 . S
Dy856 O862 2.379 . S
Dy856 O864 2.339 . S
Dy856 O866 2.298 . S
Dy856 O870 2.275 . S
Dy856 C878 2.738 . S
Dy857 O860 2.298 . S
Dy857 O863 2.275 . S
Dy857 O865 2.307 . S
Dy857 O867 2.395 . S
Dy857 O868 2.379 . S
Dy857 O871 2.339 . S
Dy857 C887 2.738 . S
C858 O870 1.254 . S
C858 O871 1.257 . S
O859 Dy856 2.307 . S
O859 C869 1.266 . S
O860 Dy857 2.298 . S
O860 C869 1.236 . S
O861 Dy856 2.395 . S
O861 C878 1.255 . S
O862 Dy856 2.379 . S
O862 C878 1.249 . S
O863 Dy857 2.275 . S
O863 C879 1.254 . S
O864 Dy856 2.339 . S
O864 C879 1.257 . S
O865 Dy857 2.307 . S
O865 C880 1.266 . S
O866 Dy856 2.298 . S
O866 C880 1.236 . S
O867 Dy857 2.395 . S
O867 C887 1.255 . S
O868 Dy857 2.379 . S
O868 C887 1.249 . S
C869 O859 1.266 . S
C869 O860 1.236 . S
O870 Dy856 2.275 . S
O870 C858 1.254 . S
O871 Dy857 2.339 . S
O871 C858 1.257 . S
C872 C875 1.344 . S
C872 C876 1.328 . S
C872 C878 1.516 . S
C873 C874 1.304 . S
C873 C877 1.323 . S
C874 C873 1.304 . S
C874 C875 1.371 . S
C874 H888 0.930 . S
C875 C872 1.344 . S
C875 C874 1.371 . S
C875 H889 0.931 . S
C876 C872 1.328 . S
C876 C877 1.433 . S
C876 H890 0.931 . S
C877 C873 1.323 . S
C877 C876 1.433 . S
C877 H891 0.933 . S
C878 Dy856 2.738 . S
C878 O861 1.255 . S
C878 O862 1.249 . S
C878 C872 1.516 . S
C879 O863 1.254 . S
C879 O864 1.257 . S
C880 O865 1.266 . S
C880 O866 1.236 . S
C881 C884 1.344 . S
C881 C885 1.328 . S
C881 C887 1.516 . S
C882 C883 1.304 . S
C882 C886 1.323 . S
C883 C882 1.304 . S
C883 C884 1.371 . S
C883 H892 0.930 . S
C884 C881 1.344 . S
C884 C883 1.371 . S
C884 H893 0.931 . S
C885 C881 1.328 . S
C885 C886 1.433 . S
C885 H894 0.931 . S
C886 C882 1.323 . S
C886 C885 1.433 . S
C886 H895 0.933 . S
C887 Dy857 2.738 . S
C887 O867 1.255 . S
C887 O868 1.249 . S
C887 C881 1.516 . S
H888 C874 0.930 . S
H889 C875 0.931 . S
H890 C876 0.931 . S
H891 C877 0.933 . S
H892 C883 0.930 . S
H893 C884 0.931 . S
H894 C885 0.931 . S
H895 C886 0.933 . S
Dy896 O899 2.307 . S
Dy896 O901 2.395 . S
Dy896 O902 2.379 . S
Dy896 O904 2.339 . S
Dy896 O906 2.298 . S
Dy896 O910 2.275 . S
Dy896 C918 2.738 . S
Dy897 O900 2.298 . S
Dy897 O903 2.275 . S
Dy897 O905 2.307 . S
Dy897 O907 2.395 . S
Dy897 O908 2.379 . S
Dy897 O911 2.339 . S
Dy897 C927 2.738 . S
C898 O910 1.254 . S
C898 O911 1.257 . S
O899 Dy896 2.307 . S
O899 C909 1.266 . S
O900 Dy897 2.298 . S
O900 C909 1.236 . S
O901 Dy896 2.395 . S
O901 C918 1.255 . S
O902 Dy896 2.379 . S
O902 C918 1.249 . S
O903 Dy897 2.275 . S
O903 C919 1.254 . S
O904 Dy896 2.339 . S
O904 C919 1.257 . S
O905 Dy897 2.307 . S
O905 C920 1.266 . S
O906 Dy896 2.298 . S
O906 C920 1.236 . S
O907 Dy897 2.395 . S
O907 C927 1.255 . S
O908 Dy897 2.379 . S
O908 C927 1.249 . S
C909 O899 1.266 . S
C909 O900 1.236 . S
O910 Dy896 2.275 . S
O910 C898 1.254 . S
O911 Dy897 2.339 . S
O911 C898 1.257 . S
C912 C915 1.344 . S
C912 C916 1.328 . S
C912 C918 1.516 . S
C913 C914 1.304 . S
C913 C917 1.323 . S
C914 C913 1.304 . S
C914 C915 1.371 . S
C914 H928 0.930 . S
C915 C912 1.344 . S
C915 C914 1.371 . S
C915 H929 0.931 . S
C916 C912 1.328 . S
C916 C917 1.433 . S
C916 H930 0.931 . S
C917 C913 1.323 . S
C917 C916 1.433 . S
C917 H931 0.933 . S
C918 Dy896 2.738 . S
C918 O901 1.255 . S
C918 O902 1.249 . S
C918 C912 1.516 . S
C919 O903 1.254 . S
C919 O904 1.257 . S
C920 O905 1.266 . S
C920 O906 1.236 . S
C921 C924 1.344 . S
C921 C925 1.328 . S
C921 C927 1.516 . S
C922 C923 1.304 . S
C922 C926 1.323 . S
C923 C922 1.304 . S
C923 C924 1.371 . S
C923 H932 0.930 . S
C924 C921 1.344 . S
C924 C923 1.371 . S
C924 H933 0.931 . S
C925 C921 1.328 . S
C925 C926 1.433 . S
C925 H934 0.931 . S
C926 C922 1.323 . S
C926 C925 1.433 . S
C926 H935 0.933 . S
C927 Dy897 2.738 . S
C927 O907 1.255 . S
C927 O908 1.249 . S
C927 C921 1.516 . S
H928 C914 0.930 . S
H929 C915 0.931 . S
H930 C916 0.931 . S
H931 C917 0.933 . S
H932 C923 0.930 . S
H933 C924 0.931 . S
H934 C925 0.931 . S
H935 C926 0.933 . S
Dy936 O939 2.307 . S
Dy936 O941 2.395 1_455 S
Dy936 O942 2.379 1_455 S
Dy936 O944 2.339 . S
Dy936 O946 2.298 . S
Dy936 O950 2.275 . S
Dy936 C958 2.738 1_455 S
Dy937 O940 2.298 . S
Dy937 O943 2.275 . S
Dy937 O945 2.307 . S
Dy937 O947 2.395 . S
Dy937 O948 2.379 . S
Dy937 O951 2.339 . S
Dy937 C967 2.738 . S
C938 O950 1.254 . S
C938 O951 1.257 . S
O939 Dy936 2.307 . S
O939 C949 1.266 . S
O940 Dy937 2.298 . S
O940 C949 1.236 . S
O941 Dy936 2.395 1_655 S
O941 C958 1.255 . S
O942 Dy936 2.379 1_655 S
O942 C958 1.249 . S
O943 Dy937 2.275 . S
O943 C959 1.254 . S
O944 Dy936 2.339 . S
O944 C959 1.257 . S
O945 Dy937 2.307 . S
O945 C960 1.266 . S
O946 Dy936 2.298 . S
O946 C960 1.236 . S
O947 Dy937 2.395 . S
O947 C967 1.255 . S
O948 Dy937 2.379 . S
O948 C967 1.249 . S
C949 O939 1.266 . S
C949 O940 1.236 . S
O950 Dy936 2.275 . S
O950 C938 1.254 . S
O951 Dy937 2.339 . S
O951 C938 1.257 . S
C952 C955 1.344 . S
C952 C956 1.328 . S
C952 C958 1.516 . S
C953 C954 1.304 . S
C953 C957 1.323 . S
C954 C953 1.304 . S
C954 C955 1.371 . S
C954 H968 0.930 . S
C955 C952 1.344 . S
C955 C954 1.371 . S
C955 H969 0.931 . S
C956 C952 1.328 . S
C956 C957 1.433 . S
C956 H970 0.931 . S
C957 C953 1.323 . S
C957 C956 1.433 . S
C957 H971 0.933 . S
C958 Dy936 2.738 1_655 S
C958 O941 1.255 . S
C958 O942 1.249 . S
C958 C952 1.516 . S
C959 O943 1.254 . S
C959 O944 1.257 . S
C960 O945 1.266 . S
C960 O946 1.236 . S
C961 C964 1.344 . S
C961 C965 1.328 . S
C961 C967 1.516 . S
C962 C963 1.304 . S
C962 C966 1.323 . S
C963 C962 1.304 . S
C963 C964 1.371 . S
C963 H972 0.930 . S
C964 C961 1.344 . S
C964 C963 1.371 . S
C964 H973 0.931 . S
C965 C961 1.328 . S
C965 C966 1.433 . S
C965 H974 0.931 . S
C966 C962 1.323 . S
C966 C965 1.433 . S
C966 H975 0.933 . S
C967 Dy937 2.738 . S
C967 O947 1.255 . S
C967 O948 1.249 . S
C967 C961 1.516 . S
H968 C954 0.930 . S
H969 C955 0.931 . S
H970 C956 0.931 . S
H971 C957 0.933 . S
H972 C963 0.930 . S
H973 C964 0.931 . S
H974 C965 0.931 . S
H975 C966 0.933 . S
H976 C982 0.930 . S
H977 C985 0.930 . S
H978 C986 0.930 . S
H979 C987 0.930 . S
H980 C990 0.930 . S
H981 C991 0.930 . S
C982 H976 0.930 . S
C982 C983 1.360 . S
C982 C984 1.415 1_655 S
C983 C982 1.360 . S
C983 C985 1.398 1_654 S
C984 C982 1.415 1_455 S
C984 C989 1.425 . S
C984 C991 1.409 1_455 S
C985 H977 0.930 . S
C985 C983 1.398 1_456 S
C985 C986 1.362 . S
C986 H978 0.930 . S
C986 C985 1.362 . S
C986 C989 1.409 1_556 S
C987 H979 0.930 . S
C987 C988 1.355 . S
C987 C989 1.415 . S
C988 C987 1.355 . S
C988 C990 1.419 . S
C989 C984 1.425 . S
C989 C986 1.409 1_554 S
C989 C987 1.415 . S
C990 H980 0.930 . S
C990 C988 1.419 . S
C990 C991 1.362 1_455 S
C991 H981 0.930 . S
C991 C984 1.409 1_655 S
C991 C990 1.362 1_655 S
H992 C998 0.930 . S
H993 C1001 0.930 . S
H994 C1002 0.930 . S
H995 C1003 0.930 . S
H996 C1006 0.930 . S
H997 C1007 0.930 . S
C998 H992 0.930 . S
C998 C999 1.355 . S
C998 C1000 1.415 . S
C999 C998 1.355 . S
C999 C1001 1.419 . S
C1000 C998 1.415 . S
C1000 C1005 1.425 . S
C1000 C1007 1.409 . S
C1001 H993 0.930 . S
C1001 C999 1.419 . S
C1001 C1002 1.362 . S
C1002 H994 0.930 . S
C1002 C1001 1.362 . S
C1002 C1005 1.409 . S
C1003 H995 0.930 . S
C1003 C1004 1.355 . S
C1003 C1005 1.415 . S
C1004 C1003 1.355 . S
C1004 C1006 1.419 . S
C1005 C1000 1.425 . S
C1005 C1002 1.409 . S
C1005 C1003 1.415 . S
C1006 H996 0.930 . S
C1006 C1004 1.419 . S
C1006 C1007 1.362 . S
C1007 H997 0.930 . S
C1007 C1000 1.409 . S
C1007 C1006 1.362 . S
H1008 C1014 0.930 . S
H1009 C1017 0.930 . S
H1010 C1018 0.930 . S
H1011 C1019 0.930 . S
H1012 C1022 0.930 . S
H1013 C1023 0.930 . S
C1014 H1008 0.930 . S
C1014 C1015 1.355 . S
C1014 C1016 1.415 . S
C1015 C1014 1.355 . S
C1015 C1017 1.419 . S
C1016 C1014 1.415 . S
C1016 C1021 1.425 . S
C1016 C1023 1.409 . S
C1017 H1009 0.930 . S
C1017 C1015 1.419 . S
C1017 C1018 1.362 . S
C1018 H1010 0.930 . S
C1018 C1017 1.362 . S
C1018 C1021 1.409 . S
C1019 H1011 0.930 . S
C1019 C1020 1.355 . S
C1019 C1021 1.415 . S
C1020 C1019 1.355 . S
C1020 C1022 1.419 . S
C1021 C1016 1.425 . S
C1021 C1018 1.409 . S
C1021 C1019 1.415 . S
C1022 H1012 0.930 . S
C1022 C1020 1.419 . S
C1022 C1023 1.362 . S
C1023 H1013 0.930 . S
C1023 C1016 1.409 . S
C1023 C1022 1.362 . S
H1024 C1030 0.930 . S
H1025 C1033 0.930 . S
H1026 C1034 0.930 . S
H1027 C1035 0.930 . S
H1028 C1038 0.930 . S
H1029 C1039 0.930 . S
C1030 H1024 0.930 . S
C1030 C1031 1.355 . S
C1030 C1032 1.415 . S
C1031 C1030 1.355 . S
C1031 C1033 1.419 . S
C1032 C1030 1.415 . S
C1032 C1037 1.425 . S
C1032 C1039 1.409 . S
C1033 H1025 0.930 . S
C1033 C1031 1.419 . S
C1033 C1034 1.362 . S
C1034 H1026 0.930 . S
C1034 C1033 1.362 . S
C1034 C1037 1.409 . S
C1035 H1027 0.930 . S
C1035 C1036 1.355 . S
C1035 C1037 1.415 . S
C1036 C1035 1.355 . S
C1036 C1038 1.419 . S
C1037 C1032 1.425 . S
C1037 C1034 1.409 . S
C1037 C1035 1.415 . S
C1038 H1028 0.930 . S
C1038 C1036 1.419 . S
C1038 C1039 1.362 . S
C1039 H1029 0.930 . S
C1039 C1032 1.409 . S
C1039 C1038 1.362 . S
H1040 C1046 0.930 . S
H1041 C1049 0.930 . S
H1042 C1050 0.930 . S
H1043 C1051 0.930 . S
H1044 C1054 0.930 . S
H1045 C1055 0.930 . S
C1046 H1040 0.930 . S
C1046 C1047 1.355 . S
C1046 C1048 1.415 . S
C1047 C1046 1.355 . S
C1047 C1049 1.419 . S
C1048 C1046 1.415 . S
C1048 C1053 1.425 . S
C1048 C1055 1.409 . S
C1049 H1041 0.930 . S
C1049 C1047 1.419 . S
C1049 C1050 1.362 . S
C1050 H1042 0.930 . S
C1050 C1049 1.362 . S
C1050 C1053 1.409 . S
C1051 H1043 0.930 . S
C1051 C1052 1.355 . S
C1051 C1053 1.415 . S
C1052 C1051 1.355 . S
C1052 C1054 1.419 . S
C1053 C1048 1.425 . S
C1053 C1050 1.409 . S
C1053 C1051 1.415 . S
C1054 H1044 0.930 . S
C1054 C1052 1.419 . S
C1054 C1055 1.362 . S
C1055 H1045 0.930 . S
C1055 C1048 1.409 . S
C1055 C1054 1.362 . S
H1056 C1062 0.930 . S
H1057 C1065 0.930 . S
H1058 C1066 0.930 . S
H1059 C1067 0.930 . S
H1060 C1070 0.930 . S
H1061 C1071 0.930 . S
C1062 H1056 0.930 . S
C1062 C1063 1.355 . S
C1062 C1064 1.415 . S
C1063 C1062 1.355 . S
C1063 C1065 1.419 . S
C1064 C1062 1.415 . S
C1064 C1069 1.425 . S
C1064 C1071 1.409 . S
C1065 H1057 0.930 . S
C1065 C1063 1.419 . S
C1065 C1066 1.362 . S
C1066 H1058 0.930 . S
C1066 C1065 1.362 . S
C1066 C1069 1.409 . S
C1067 H1059 0.930 . S
C1067 C1068 1.355 . S
C1067 C1069 1.415 . S
C1068 C1067 1.355 . S
C1068 C1070 1.419 . S
C1069 C1064 1.425 . S
C1069 C1066 1.409 . S
C1069 C1067 1.415 . S
C1070 H1060 0.930 . S
C1070 C1068 1.419 . S
C1070 C1071 1.362 . S
C1071 H1061 0.930 . S
C1071 C1064 1.409 . S
C1071 C1070 1.362 . S
H1072 C1078 0.930 . S
H1073 C1081 0.930 . S
H1074 C1082 0.930 . S
H1075 C1083 0.930 . S
H1076 C1086 0.930 . S
H1077 C1087 0.930 . S
C1078 H1072 0.930 . S
C1078 C1079 1.355 . S
C1078 C1080 1.415 . S
C1079 C1078 1.355 . S
C1079 C1081 1.419 . S
C1080 C1078 1.415 . S
C1080 C1085 1.425 . S
C1080 C1087 1.409 . S
C1081 H1073 0.930 . S
C1081 C1079 1.419 . S
C1081 C1082 1.362 . S
C1082 H1074 0.930 . S
C1082 C1081 1.362 . S
C1082 C1085 1.409 . S
C1083 H1075 0.930 . S
C1083 C1084 1.355 . S
C1083 C1085 1.415 . S
C1084 C1083 1.355 . S
C1084 C1086 1.419 . S
C1085 C1080 1.425 . S
C1085 C1082 1.409 . S
C1085 C1083 1.415 . S
C1086 H1076 0.930 . S
C1086 C1084 1.419 . S
C1086 C1087 1.362 . S
C1087 H1077 0.930 . S
C1087 C1080 1.409 . S
C1087 C1086 1.362 . S
H1088 C1094 0.930 . S
H1089 C1097 0.930 . S
H1090 C1098 0.930 . S
H1091 C1099 0.930 . S
H1092 C1102 0.930 . S
H1093 C1103 0.930 . S
C1094 H1088 0.930 . S
C1094 C1095 1.355 . S
C1094 C1096 1.415 . S
C1095 C1094 1.355 . S
C1095 C1097 1.419 . S
C1096 C1094 1.415 . S
C1096 C1101 1.425 . S
C1096 C1103 1.409 . S
C1097 H1089 0.930 . S
C1097 C1095 1.419 . S
C1097 C1098 1.362 . S
C1098 H1090 0.930 . S
C1098 C1097 1.362 . S
C1098 C1101 1.409 . S
C1099 H1091 0.930 . S
C1099 C1100 1.355 . S
C1099 C1101 1.415 . S
C1100 C1099 1.355 . S
C1100 C1102 1.419 . S
C1101 C1096 1.425 . S
C1101 C1098 1.409 . S
C1101 C1099 1.415 . S
C1102 H1092 0.930 . S
C1102 C1100 1.419 . S
C1102 C1103 1.362 . S
C1103 H1093 0.930 . S
C1103 C1096 1.409 . S
C1103 C1102 1.362 . S
H1104 C1110 0.930 . S
H1105 C1113 0.930 . S
H1106 C1114 0.930 . S
H1107 C1115 0.930 . S
H1108 C1118 0.930 . S
H1109 C1119 0.935 . S
C1110 H1104 0.930 . S
C1110 C1111 1.355 . S
C1110 C1112 1.415 . S
C1111 C1110 1.355 . S
C1111 C1113 1.419 . S
C1112 C1110 1.415 . S
C1112 C1117 1.425 . S
C1112 C1119 1.409 1_655 S
C1113 H1105 0.930 . S
C1113 C1111 1.419 . S
C1113 C1114 1.362 . S
C1114 H1106 0.930 . S
C1114 C1113 1.362 . S
C1114 C1117 1.409 . S
C1115 H1107 0.930 . S
C1115 C1116 1.355 . S
C1115 C1117 1.415 1_455 S
C1116 C1115 1.355 . S
C1116 C1118 1.419 . S
C1117 C1112 1.425 . S
C1117 C1114 1.409 . S
C1117 C1115 1.415 1_655 S
C1118 H1108 0.930 . S
C1118 C1116 1.419 . S
C1118 C1119 1.362 . S
C1119 H1109 0.935 . S
C1119 C1112 1.409 1_455 S
C1119 C1118 1.362 . S
H1120 C1126 0.930 . S
H1121 C1129 0.930 . S
H1122 C1130 0.930 . S
H1123 C1131 0.930 . S
H1124 C1134 0.930 . S
H1125 C1135 0.930 . S
C1126 H1120 0.930 . S
C1126 C1127 1.355 . S
C1126 C1128 1.415 . S
C1127 C1126 1.355 . S
C1127 C1129 1.419 . S
C1128 C1126 1.415 . S
C1128 C1133 1.425 . S
C1128 C1135 1.409 . S
C1129 H1121 0.930 . S
C1129 C1127 1.419 . S
C1129 C1130 1.362 . S
C1130 H1122 0.930 . S
C1130 C1129 1.362 . S
C1130 C1133 1.409 . S
C1131 H1123 0.930 . S
C1131 C1132 1.355 . S
C1131 C1133 1.415 . S
C1132 C1131 1.355 . S
C1132 C1134 1.419 . S
C1133 C1128 1.425 . S
C1133 C1130 1.409 . S
C1133 C1131 1.415 . S
C1134 H1124 0.930 . S
C1134 C1132 1.419 . S
C1134 C1135 1.362 . S
C1135 H1125 0.930 . S
C1135 C1128 1.409 . S
C1135 C1134 1.362 . S
H1136 C1142 0.930 . S
H1137 C1145 0.930 . S
H1138 C1146 0.930 . S
H1139 C1147 0.930 . S
H1140 C1150 0.930 . S
H1141 C1151 0.930 . S
C1142 H1136 0.930 . S
C1142 C1143 1.355 . S
C1142 C1144 1.415 . S
C1143 C1142 1.355 . S
C1143 C1145 1.419 . S
C1144 C1142 1.415 . S
C1144 C1149 1.425 . S
C1144 C1151 1.409 . S
C1145 H1137 0.930 . S
C1145 C1143 1.419 . S
C1145 C1146 1.362 . S
C1146 H1138 0.930 . S
C1146 C1145 1.362 . S
C1146 C1149 1.409 . S
C1147 H1139 0.930 . S
C1147 C1148 1.355 . S
C1147 C1149 1.415 . S
C1148 C1147 1.355 . S
C1148 C1150 1.419 . S
C1149 C1144 1.425 . S
C1149 C1146 1.409 . S
C1149 C1147 1.415 . S
C1150 H1140 0.930 . S
C1150 C1148 1.419 . S
C1150 C1151 1.362 . S
C1151 H1141 0.930 . S
C1151 C1144 1.409 . S
C1151 C1150 1.362 . S
H1152 C1158 0.930 . S
H1153 C1161 0.930 . S
H1154 C1162 0.930 . S
H1155 C1163 0.930 . S
H1156 C1166 0.930 . S
H1157 C1167 0.930 . S
C1158 H1152 0.930 . S
C1158 C1159 1.355 . S
C1158 C1160 1.415 . S
C1159 C1158 1.355 . S
C1159 C1161 1.419 . S
C1160 C1158 1.415 . S
C1160 C1165 1.425 . S
C1160 C1167 1.409 . S
C1161 H1153 0.930 . S
C1161 C1159 1.419 . S
C1161 C1162 1.362 . S
C1162 H1154 0.930 . S
C1162 C1161 1.362 . S
C1162 C1165 1.409 . S
C1163 H1155 0.930 . S
C1163 C1164 1.355 . S
C1163 C1165 1.415 . S
C1164 C1163 1.355 . S
C1164 C1166 1.419 . S
C1165 C1160 1.425 . S
C1165 C1162 1.409 . S
C1165 C1163 1.415 . S
C1166 H1156 0.930 . S
C1166 C1164 1.419 . S
C1166 C1167 1.362 . S
C1167 H1157 0.930 . S
C1167 C1160 1.409 . S
C1167 C1166 1.362 . S
H1168 C1174 0.930 . S
H1169 C1177 0.930 . S
H1170 C1178 0.930 . S
H1171 C1179 0.930 . S
H1172 C1182 0.938 . S
H1173 C1183 0.930 1_565 S
C1174 H1168 0.930 . S
C1174 C1175 1.355 . S
C1174 C1176 1.415 . S
C1175 C1174 1.355 . S
C1175 C1177 1.419 1_655 S
C1176 C1174 1.415 . S
C1176 C1181 1.425 1_655 S
C1176 C1183 1.409 . S
C1177 H1169 0.930 . S
C1177 C1175 1.419 1_455 S
C1177 C1178 1.362 . S
C1178 H1170 0.930 . S
C1178 C1177 1.362 . S
C1178 C1181 1.409 . S
C1179 H1171 0.930 . S
C1179 C1180 1.355 . S
C1179 C1181 1.415 . S
C1180 C1179 1.355 . S
C1180 C1182 1.396 1_455 S
C1181 C1176 1.425 1_455 S
C1181 C1178 1.409 . S
C1181 C1179 1.415 . S
C1182 H1172 0.938 . S
C1182 C1180 1.396 1_655 S
C1182 C1183 1.379 . S
C1183 H1173 0.930 1_545 S
C1183 C1176 1.409 . S
C1183 C1182 1.379 . S
H1184 C1190 0.930 . S
H1185 C1193 0.930 . S
H1186 C1194 0.930 . S
H1187 C1195 0.930 . S
H1188 C1198 0.930 . S
H1189 C1199 0.930 . S
C1190 H1184 0.930 . S
C1190 C1191 1.355 . S
C1190 C1192 1.415 . S
C1191 C1190 1.355 . S
C1191 C1193 1.419 . S
C1192 C1190 1.415 . S
C1192 C1197 1.425 . S
C1192 C1199 1.409 . S
C1193 H1185 0.930 . S
C1193 C1191 1.419 . S
C1193 C1194 1.362 . S
C1194 H1186 0.930 . S
C1194 C1193 1.362 . S
C1194 C1197 1.409 . S
C1195 H1187 0.930 . S
C1195 C1196 1.355 . S
C1195 C1197 1.415 . S
C1196 C1195 1.355 . S
C1196 C1198 1.419 . S
C1197 C1192 1.425 . S
C1197 C1194 1.409 . S
C1197 C1195 1.415 . S
C1198 H1188 0.930 . S
C1198 C1196 1.419 . S
C1198 C1199 1.362 . S
C1199 H1189 0.930 . S
C1199 C1192 1.409 . S
C1199 C1198 1.362 . S
H1200 C1206 0.930 . S
H1201 C1209 0.930 . S
H1202 C1210 0.930 . S
H1203 C1211 0.930 . S
H1204 C1214 0.930 . S
H1205 C1215 0.930 . S
C1206 H1200 0.930 . S
C1206 C1207 1.355 . S
C1206 C1208 1.415 . S
C1207 C1206 1.355 . S
C1207 C1209 1.419 . S
C1208 C1206 1.415 . S
C1208 C1213 1.425 . S
C1208 C1215 1.409 . S
C1209 H1201 0.930 . S
C1209 C1207 1.419 . S
C1209 C1210 1.362 . S
C1210 H1202 0.930 . S
C1210 C1209 1.362 . S
C1210 C1213 1.409 . S
C1211 H1203 0.930 . S
C1211 C1212 1.355 . S
C1211 C1213 1.415 . S
C1212 C1211 1.355 . S
C1212 C1214 1.419 . S
C1213 C1208 1.425 . S
C1213 C1210 1.409 . S
C1213 C1211 1.415 . S
C1214 H1204 0.930 . S
C1214 C1212 1.419 . S
C1214 C1215 1.362 . S
C1215 H1205 0.930 . S
C1215 C1208 1.409 . S
C1215 C1214 1.362 . S
H1216 C1222 0.930 . S
H1217 C1225 0.930 . S
H1218 C1226 0.930 . S
H1219 C1227 0.930 . S
H1220 C1230 0.930 . S
H1221 C1231 0.930 . S
C1222 H1216 0.930 . S
C1222 C1223 1.355 . S
C1222 C1224 1.415 . S
C1223 C1222 1.355 . S
C1223 C1225 1.419 . S
C1224 C1222 1.415 . S
C1224 C1229 1.425 . S
C1224 C1231 1.409 . S
C1225 H1217 0.930 . S
C1225 C1223 1.419 . S
C1225 C1226 1.362 . S
C1226 H1218 0.930 . S
C1226 C1225 1.362 . S
C1226 C1229 1.409 . S
C1227 H1219 0.930 . S
C1227 C1228 1.355 . S
C1227 C1229 1.415 . S
C1228 C1227 1.355 . S
C1228 C1230 1.419 . S
C1229 C1224 1.425 . S
C1229 C1226 1.409 . S
C1229 C1227 1.415 . S
C1230 H1220 0.930 . S
C1230 C1228 1.419 . S
C1230 C1231 1.362 . S
C1231 H1221 0.930 . S
C1231 C1224 1.409 . S
C1231 C1230 1.362 . S
H1232 C1238 0.930 . S
H1233 C1241 0.930 . S
H1234 C1242 0.930 1_545 S
H1235 C1243 0.930 . S
H1236 C1246 0.930 . S
H1237 C1247 0.930 . S
C1238 H1232 0.930 . S
C1238 C1239 1.355 . S
C1238 C1240 1.415 . S
C1239 C1238 1.355 . S
C1239 C1241 1.419 . S
C1240 C1238 1.415 . S
C1240 C1245 1.425 . S
C1240 C1247 1.409 . S
C1241 H1233 0.930 . S
C1241 C1239 1.419 . S
C1241 C1242 1.362 . S
C1242 H1234 0.930 1_565 S
C1242 C1241 1.362 . S
C1242 C1245 1.409 . S
C1243 H1235 0.930 . S
C1243 C1244 1.355 . S
C1243 C1245 1.415 1_545 S
C1244 C1243 1.355 . S
C1244 C1246 1.419 1_545 S
C1245 C1240 1.425 . S
C1245 C1242 1.409 . S
C1245 C1243 1.415 1_565 S
C1246 H1236 0.930 . S
C1246 C1244 1.419 1_565 S
C1246 C1247 1.362 . S
C1247 H1237 0.930 . S
C1247 C1240 1.409 . S
C1247 C1246 1.362 . S
H1248 C1254 0.930 . S
H1249 C1257 0.930 . S
H1250 C1258 0.930 . S
H1251 C1259 0.930 . S
H1252 C1262 0.930 . S
H1253 C1263 0.930 . S
C1254 H1248 0.930 . S
C1254 C1255 1.355 . S
C1254 C1256 1.415 . S
C1255 C1254 1.355 . S
C1255 C1257 1.419 . S
C1256 C1254 1.415 . S
C1256 C1261 1.425 . S
C1256 C1263 1.409 . S
C1257 H1249 0.930 . S
C1257 C1255 1.419 . S
C1257 C1258 1.362 . S
C1258 H1250 0.930 . S
C1258 C1257 1.362 . S
C1258 C1261 1.409 . S
C1259 H1251 0.930 . S
C1259 C1260 1.355 . S
C1259 C1261 1.415 . S
C1260 C1259 1.355 . S
C1260 C1262 1.419 . S
C1261 C1256 1.425 . S
C1261 C1258 1.409 . S
C1261 C1259 1.415 . S
C1262 H1252 0.930 . S
C1262 C1260 1.419 . S
C1262 C1263 1.362 . S
C1263 H1253 0.930 . S
C1263 C1256 1.409 . S
C1263 C1262 1.362 . S
H1264 C1270 0.930 . S
H1265 C1273 0.930 . S
H1266 C1274 0.930 . S
H1267 C1275 0.930 . S
H1268 C1278 0.930 . S
H1269 C1279 0.930 . S
C1270 H1264 0.930 . S
C1270 C1271 1.355 . S
C1270 C1272 1.415 . S
C1271 C1270 1.355 . S
C1271 C1273 1.419 . S
C1272 C1270 1.415 . S
C1272 C1277 1.425 . S
C1272 C1279 1.409 . S
C1273 H1265 0.930 . S
C1273 C1271 1.419 . S
C1273 C1274 1.362 . S
C1274 H1266 0.930 . S
C1274 C1273 1.362 . S
C1274 C1277 1.409 . S
C1275 H1267 0.930 . S
C1275 C1276 1.355 . S
C1275 C1277 1.415 . S
C1276 C1275 1.355 . S
C1276 C1278 1.419 . S
C1277 C1272 1.425 . S
C1277 C1274 1.409 . S
C1277 C1275 1.415 . S
C1278 H1268 0.930 . S
C1278 C1276 1.419 . S
C1278 C1279 1.362 . S
C1279 H1269 0.930 . S
C1279 C1272 1.409 . S
C1279 C1278 1.362 . S
H1280 C1286 0.930 . S
H1281 C1289 0.930 . S
H1282 C1290 0.930 . S
H1283 C1291 0.930 . S
H1284 C1294 0.930 . S
H1285 C1295 0.930 . S
C1286 H1280 0.930 . S
C1286 C1287 1.355 . S
C1286 C1288 1.415 . S
C1287 C1286 1.355 . S
C1287 C1289 1.419 . S
C1288 C1286 1.415 . S
C1288 C1293 1.425 . S
C1288 C1295 1.409 . S
C1289 H1281 0.930 . S
C1289 C1287 1.419 . S
C1289 C1290 1.362 . S
C1290 H1282 0.930 . S
C1290 C1289 1.362 . S
C1290 C1293 1.409 . S
C1291 H1283 0.930 . S
C1291 C1292 1.355 . S
C1291 C1293 1.415 . S
C1292 C1291 1.355 . S
C1292 C1294 1.419 . S
C1293 C1288 1.425 . S
C1293 C1290 1.409 . S
C1293 C1291 1.415 . S
C1294 H1284 0.930 . S
C1294 C1292 1.419 . S
C1294 C1295 1.362 . S
C1295 H1285 0.930 . S
C1295 C1288 1.409 . S
C1295 C1294 1.362 . S
H1296 C1302 0.930 . S
H1297 C1305 0.930 . S
H1298 C1306 0.930 . S
H1299 C1307 0.930 . S
H1300 C1310 0.930 . S
H1301 C1311 0.930 . S
C1302 H1296 0.930 . S
C1302 C1303 1.355 . S
C1302 C1304 1.415 . S
C1303 C1302 1.355 . S
C1303 C1305 1.419 . S
C1304 C1302 1.415 . S
C1304 C1309 1.425 . S
C1304 C1311 1.409 . S
C1305 H1297 0.930 . S
C1305 C1303 1.419 . S
C1305 C1306 1.362 . S
C1306 H1298 0.930 . S
C1306 C1305 1.362 . S
C1306 C1309 1.409 . S
C1307 H1299 0.930 . S
C1307 C1308 1.355 . S
C1307 C1309 1.415 . S
C1308 C1307 1.355 . S
C1308 C1310 1.419 . S
C1309 C1304 1.425 . S
C1309 C1306 1.409 . S
C1309 C1307 1.415 . S
C1310 H1300 0.930 . S
C1310 C1308 1.419 . S
C1310 C1311 1.362 . S
C1311 H1301 0.930 . S
C1311 C1304 1.409 . S
C1311 C1310 1.362 . S
H1312 C1318 0.930 . S
H1313 C1321 0.930 . S
H1314 C1322 0.930 . S
H1315 C1323 0.930 . S
H1316 C1326 0.930 . S
H1317 C1327 0.930 . S
C1318 H1312 0.930 . S
C1318 C1319 1.355 . S
C1318 C1320 1.415 . S
C1319 C1318 1.355 . S
C1319 C1321 1.419 . S
C1320 C1318 1.415 . S
C1320 C1325 1.425 . S
C1320 C1327 1.409 . S
C1321 H1313 0.930 . S
C1321 C1319 1.419 . S
C1321 C1322 1.362 . S
C1322 H1314 0.930 . S
C1322 C1321 1.362 . S
C1322 C1325 1.409 . S
C1323 H1315 0.930 . S
C1323 C1324 1.355 . S
C1323 C1325 1.415 . S
C1324 C1323 1.355 . S
C1324 C1326 1.419 . S
C1325 C1320 1.425 . S
C1325 C1322 1.409 . S
C1325 C1323 1.415 . S
C1326 H1316 0.930 . S
C1326 C1324 1.419 . S
C1326 C1327 1.362 . S
C1327 H1317 0.930 . S
C1327 C1320 1.409 . S
C1327 C1326 1.362 . S
H1328 C1334 0.930 . S
H1329 C1337 0.930 . S
H1330 C1338 0.930 . S
H1331 C1339 0.930 . S
H1332 C1342 0.930 . S
H1333 C1343 0.930 . S
C1334 H1328 0.930 . S
C1334 C1335 1.355 . S
C1334 C1336 1.415 . S
C1335 C1334 1.355 . S
C1335 C1337 1.419 . S
C1336 C1334 1.415 . S
C1336 C1341 1.425 . S
C1336 C1343 1.409 . S
C1337 H1329 0.930 . S
C1337 C1335 1.419 . S
C1337 C1338 1.362 . S
C1338 H1330 0.930 . S
C1338 C1337 1.362 . S
C1338 C1341 1.409 . S
C1339 H1331 0.930 . S
C1339 C1340 1.355 . S
C1339 C1341 1.415 . S
C1340 C1339 1.355 . S
C1340 C1342 1.419 . S
C1341 C1336 1.425 . S
C1341 C1338 1.409 . S
C1341 C1339 1.415 . S
C1342 H1332 0.930 . S
C1342 C1340 1.419 . S
C1342 C1343 1.362 . S
C1343 H1333 0.930 . S
C1343 C1336 1.409 . S
C1343 C1342 1.362 . S
H1344 C1350 0.930 . S
H1345 C1353 0.930 . S
H1346 C1354 0.930 . S
H1347 C1355 0.930 . S
H1348 C1358 0.930 . S
H1349 C1359 0.930 . S
C1350 H1344 0.930 . S
C1350 C1351 1.355 . S
C1350 C1352 1.415 . S
C1351 C1350 1.355 . S
C1351 C1353 1.419 . S
C1352 C1350 1.415 . S
C1352 C1357 1.425 . S
C1352 C1359 1.409 . S
C1353 H1345 0.930 . S
C1353 C1351 1.419 . S
C1353 C1354 1.362 . S
C1354 H1346 0.930 . S
C1354 C1353 1.362 . S
C1354 C1357 1.409 . S
C1355 H1347 0.930 . S
C1355 C1356 1.355 . S
C1355 C1357 1.415 . S
C1356 C1355 1.355 . S
C1356 C1358 1.419 . S
C1357 C1352 1.425 . S
C1357 C1354 1.409 . S
C1357 C1355 1.415 . S
C1358 H1348 0.930 . S
C1358 C1356 1.419 . S
C1358 C1359 1.362 . S
C1359 H1349 0.930 . S
C1359 C1352 1.409 . S
C1359 C1358 1.362 . S
H1360 C1366 0.930 . S
H1361 C1369 0.930 . S
H1362 C1370 0.930 . S
H1363 C1371 0.930 . S
H1364 C1374 0.930 . S
H1365 C1375 0.930 . S
C1366 H1360 0.930 . S
C1366 C1367 1.355 . S
C1366 C1368 1.415 . S
C1367 C1366 1.355 . S
C1367 C1369 1.419 . S
C1368 C1366 1.415 . S
C1368 C1373 1.425 . S
C1368 C1375 1.409 . S
C1369 H1361 0.930 . S
C1369 C1367 1.419 . S
C1369 C1370 1.362 . S
C1370 H1362 0.930 . S
C1370 C1369 1.362 . S
C1370 C1373 1.409 . S
C1371 H1363 0.930 . S
C1371 C1372 1.355 . S
C1371 C1373 1.415 . S
C1372 C1371 1.355 . S
C1372 C1374 1.419 . S
C1373 C1368 1.425 . S
C1373 C1370 1.409 . S
C1373 C1371 1.415 . S
C1374 H1364 0.930 . S
C1374 C1372 1.419 . S
C1374 C1375 1.362 . S
C1375 H1365 0.930 . S
C1375 C1368 1.409 . S
C1375 C1374 1.362 . S
H1376 C1382 0.930 . S
H1377 C1385 0.930 . S
H1378 C1386 0.930 . S
H1379 C1387 0.930 . S
H1380 C1390 0.930 . S
H1381 C1391 0.930 . S
C1382 H1376 0.930 . S
C1382 C1383 1.355 . S
C1382 C1384 1.415 . S
C1383 C1382 1.355 . S
C1383 C1385 1.419 . S
C1384 C1382 1.415 . S
C1384 C1389 1.425 . S
C1384 C1391 1.409 . S
C1385 H1377 0.930 . S
C1385 C1383 1.419 . S
C1385 C1386 1.362 . S
C1386 H1378 0.930 . S
C1386 C1385 1.362 . S
C1386 C1389 1.409 . S
C1387 H1379 0.930 . S
C1387 C1388 1.355 . S
C1387 C1389 1.415 . S
C1388 C1387 1.355 . S
C1388 C1390 1.419 . S
C1389 C1384 1.425 . S
C1389 C1386 1.409 . S
C1389 C1387 1.415 . S
C1390 H1380 0.930 . S
C1390 C1388 1.419 . S
C1390 C1391 1.362 . S
C1391 H1381 0.930 . S
C1391 C1384 1.409 . S
C1391 C1390 1.362 . S
H1392 C1398 0.930 . S
H1393 C1401 0.930 . S
H1394 C1402 0.930 . S
H1395 C1403 0.930 . S
H1396 C1406 0.930 . S
H1397 C1407 0.930 . S
C1398 H1392 0.930 . S
C1398 C1399 1.355 . S
C1398 C1400 1.415 . S
C1399 C1398 1.355 . S
C1399 C1401 1.419 . S
C1400 C1398 1.415 . S
C1400 C1405 1.425 . S
C1400 C1407 1.409 . S
C1401 H1393 0.930 . S
C1401 C1399 1.419 . S
C1401 C1402 1.362 . S
C1402 H1394 0.930 . S
C1402 C1401 1.362 . S
C1402 C1405 1.409 . S
C1403 H1395 0.930 . S
C1403 C1404 1.355 . S
C1403 C1405 1.415 . S
C1404 C1403 1.355 . S
C1404 C1406 1.419 . S
C1405 C1400 1.425 . S
C1405 C1402 1.409 . S
C1405 C1403 1.415 . S
C1406 H1396 0.930 . S
C1406 C1404 1.419 . S
C1406 C1407 1.362 . S
C1407 H1397 0.930 . S
C1407 C1400 1.409 . S
C1407 C1406 1.362 . S
H1408 C1414 0.930 . S
H1409 C1417 0.930 . S
H1410 C1418 0.930 . S
H1411 C1419 0.930 . S
H1412 C1422 0.930 . S
H1413 C1423 0.930 . S
C1414 H1408 0.930 . S
C1414 C1415 1.355 . S
C1414 C1416 1.415 . S
C1415 C1414 1.355 . S
C1415 C1417 1.419 . S
C1416 C1414 1.415 . S
C1416 C1421 1.425 . S
C1416 C1423 1.409 . S
C1417 H1409 0.930 . S
C1417 C1415 1.419 . S
C1417 C1418 1.362 . S
C1418 H1410 0.930 . S
C1418 C1417 1.362 . S
C1418 C1421 1.409 . S
C1419 H1411 0.930 . S
C1419 C1420 1.355 . S
C1419 C1421 1.415 . S
C1420 C1419 1.355 . S
C1420 C1422 1.419 . S
C1421 C1416 1.425 . S
C1421 C1418 1.409 . S
C1421 C1419 1.415 . S
C1422 H1412 0.930 . S
C1422 C1420 1.419 . S
C1422 C1423 1.362 . S
C1423 H1413 0.930 . S
C1423 C1416 1.409 . S
C1423 C1422 1.362 . S
H1424 C1430 0.930 . S
H1425 C1433 0.930 . S
H1426 C1434 0.930 . S
H1427 C1435 0.930 . S
H1428 C1438 0.930 . S
H1429 C1439 0.930 . S
C1430 H1424 0.930 . S
C1430 C1431 1.355 . S
C1430 C1432 1.415 . S
C1431 C1430 1.355 . S
C1431 C1433 1.419 . S
C1432 C1430 1.415 . S
C1432 C1437 1.425 . S
C1432 C1439 1.409 . S
C1433 H1425 0.930 . S
C1433 C1431 1.419 . S
C1433 C1434 1.362 . S
C1434 H1426 0.930 . S
C1434 C1433 1.362 . S
C1434 C1437 1.409 . S
C1435 H1427 0.930 . S
C1435 C1436 1.355 . S
C1435 C1437 1.415 . S
C1436 C1435 1.355 . S
C1436 C1438 1.419 . S
C1437 C1432 1.425 . S
C1437 C1434 1.409 . S
C1437 C1435 1.415 . S
C1438 H1428 0.930 . S
C1438 C1436 1.419 . S
C1438 C1439 1.362 . S
C1439 H1429 0.930 . S
C1439 C1432 1.409 . S
C1439 C1438 1.362 . S
H1440 C1446 0.930 . S
H1441 C1449 0.930 . S
H1442 C1450 0.930 . S
H1443 C1451 0.930 . S
H1444 C1454 0.930 . S
H1445 C1455 0.930 . S
C1446 H1440 0.930 . S
C1446 C1447 1.355 . S
C1446 C1448 1.415 . S
C1447 C1446 1.355 . S
C1447 C1449 1.419 . S
C1448 C1446 1.415 . S
C1448 C1453 1.425 . S
C1448 C1455 1.409 . S
C1449 H1441 0.930 . S
C1449 C1447 1.419 . S
C1449 C1450 1.362 . S
C1450 H1442 0.930 . S
C1450 C1449 1.362 . S
C1450 C1453 1.409 . S
C1451 H1443 0.930 . S
C1451 C1452 1.355 . S
C1451 C1453 1.415 . S
C1452 C1451 1.355 . S
C1452 C1454 1.419 . S
C1453 C1448 1.425 . S
C1453 C1450 1.409 . S
C1453 C1451 1.415 . S
C1454 H1444 0.930 . S
C1454 C1452 1.419 . S
C1454 C1455 1.362 . S
C1455 H1445 0.930 . S
C1455 C1448 1.409 . S
C1455 C1454 1.362 . S
H1456 C1462 0.930 . S
H1457 C1465 0.930 . S
H1458 C1466 0.930 . S
H1459 C1467 0.930 . S
H1460 C1470 0.930 1_544 S
H1461 C1471 0.930 . S
C1462 H1456 0.930 . S
C1462 C1463 1.355 . S
C1462 C1464 1.415 . S
C1463 C1462 1.355 . S
C1463 C1465 1.419 . S
C1464 C1462 1.415 . S
C1464 C1469 1.425 . S
C1464 C1471 1.409 . S
C1465 H1457 0.930 . S
C1465 C1463 1.419 . S
C1465 C1466 1.362 . S
C1466 H1458 0.930 . S
C1466 C1465 1.362 . S
C1466 C1469 1.409 . S
C1467 H1459 0.930 . S
C1467 C1468 1.345 1_556 S
C1467 C1469 1.415 . S
C1468 C1467 1.345 1_554 S
C1468 C1470 1.404 1_554 S
C1469 C1464 1.425 . S
C1469 C1466 1.409 . S
C1469 C1467 1.415 . S
C1470 H1460 0.930 1_566 S
C1470 C1468 1.404 1_556 S
C1470 C1471 1.362 . S
C1471 H1461 0.930 . S
C1471 C1464 1.409 . S
C1471 C1470 1.362 . S
H1472 C1478 0.930 . S
H1473 C1481 0.930 . S
H1474 C1482 0.930 . S
H1475 C1483 0.930 . S
H1476 C1486 0.930 . S
H1477 C1487 0.930 . S
C1478 H1472 0.930 . S
C1478 C1479 1.355 . S
C1478 C1480 1.415 . S
C1479 C1478 1.355 . S
C1479 C1481 1.419 . S
C1480 C1478 1.415 . S
C1480 C1485 1.425 . S
C1480 C1487 1.409 . S
C1481 H1473 0.930 . S
C1481 C1479 1.419 . S
C1481 C1482 1.362 . S
C1482 H1474 0.930 . S
C1482 C1481 1.362 . S
C1482 C1485 1.409 . S
C1483 H1475 0.930 . S
C1483 C1484 1.355 . S
C1483 C1485 1.415 . S
C1484 C1483 1.355 . S
C1484 C1486 1.419 . S
C1485 C1480 1.425 . S
C1485 C1482 1.409 . S
C1485 C1483 1.415 . S
C1486 H1476 0.930 . S
C1486 C1484 1.419 . S
C1486 C1487 1.362 . S
C1487 H1477 0.930 . S
C1487 C1480 1.409 . S
C1487 C1486 1.362 . S
H1488 C1494 0.930 . S
H1489 C1497 0.930 . S
H1490 C1498 0.930 . S
H1491 C1499 0.930 . S
H1492 C1502 0.930 . S
H1493 C1503 0.930 . S
C1494 H1488 0.930 . S
C1494 C1495 1.355 . S
C1494 C1496 1.415 . S
C1495 C1494 1.355 . S
C1495 C1497 1.419 . S
C1496 C1494 1.415 . S
C1496 C1501 1.425 . S
C1496 C1503 1.409 . S
C1497 H1489 0.930 . S
C1497 C1495 1.419 . S
C1497 C1498 1.362 . S
C1498 H1490 0.930 . S
C1498 C1497 1.362 . S
C1498 C1501 1.409 . S
C1499 H1491 0.930 . S
C1499 C1500 1.355 . S
C1499 C1501 1.415 . S
C1500 C1499 1.355 . S
C1500 C1502 1.419 . S
C1501 C1496 1.425 . S
C1501 C1498 1.409 . S
C1501 C1499 1.415 . S
C1502 H1492 0.930 . S
C1502 C1500 1.419 . S
C1502 C1503 1.362 . S
C1503 H1493 0.930 . S
C1503 C1496 1.409 . S
C1503 C1502 1.362 . S
H1504 C1510 0.930 . S
H1505 C1513 0.930 . S
H1506 C1514 0.930 . S
H1507 C1515 0.930 . S
H1508 C1518 0.930 . S
H1509 C1519 0.930 . S
C1510 H1504 0.930 . S
C1510 C1511 1.355 . S
C1510 C1512 1.415 . S
C1511 C1510 1.355 . S
C1511 C1513 1.419 . S
C1512 C1510 1.415 . S
C1512 C1517 1.425 . S
C1512 C1519 1.409 . S
C1513 H1505 0.930 . S
C1513 C1511 1.419 . S
C1513 C1514 1.362 . S
C1514 H1506 0.930 . S
C1514 C1513 1.362 . S
C1514 C1517 1.409 . S
C1515 H1507 0.930 . S
C1515 C1516 1.355 . S
C1515 C1517 1.415 . S
C1516 C1515 1.355 . S
C1516 C1518 1.419 . S
C1517 C1512 1.425 . S
C1517 C1514 1.409 . S
C1517 C1515 1.415 . S
C1518 H1508 0.930 . S
C1518 C1516 1.419 . S
C1518 C1519 1.362 . S
C1519 H1509 0.930 . S
C1519 C1512 1.409 . S
C1519 C1518 1.362 . S
H1520 C1526 0.930 . S
H1521 C1529 0.930 . S
H1522 C1530 0.930 . S
H1523 C1531 0.930 . S
H1524 C1534 0.930 . S
H1525 C1535 0.930 . S
C1526 H1520 0.930 . S
C1526 C1527 1.355 . S
C1526 C1528 1.415 . S
C1527 C1526 1.355 . S
C1527 C1529 1.419 1_545 S
C1528 C1526 1.415 . S
C1528 C1533 1.425 . S
C1528 C1535 1.409 . S
C1529 H1521 0.930 . S
C1529 C1527 1.419 1_565 S
C1529 C1530 1.362 . S
C1530 H1522 0.930 . S
C1530 C1529 1.362 . S
C1530 C1533 1.409 1_565 S
C1531 H1523 0.930 . S
C1531 C1532 1.355 . S
C1531 C1533 1.415 . S
C1532 C1531 1.355 . S
C1532 C1534 1.419 . S
C1533 C1528 1.425 . S
C1533 C1530 1.409 1_545 S
C1533 C1531 1.415 . S
C1534 H1524 0.930 . S
C1534 C1532 1.419 . S
C1534 C1535 1.362 . S
C1535 H1525 0.930 . S
C1535 C1528 1.409 . S
C1535 C1534 1.362 . S
H1536 C1542 0.930 . S
H1537 C1545 0.930 . S
H1538 C1546 0.930 . S
H1539 C1547 0.930 . S
H1540 C1550 0.930 . S
H1541 C1551 0.930 . S
C1542 H1536 0.930 . S
C1542 C1543 1.355 . S
C1542 C1544 1.415 . S
C1543 C1542 1.355 . S
C1543 C1545 1.419 . S
C1544 C1542 1.415 . S
C1544 C1549 1.425 . S
C1544 C1551 1.409 . S
C1545 H1537 0.930 . S
C1545 C1543 1.419 . S
C1545 C1546 1.362 . S
C1546 H1538 0.930 . S
C1546 C1545 1.362 . S
C1546 C1549 1.409 . S
C1547 H1539 0.930 . S
C1547 C1548 1.355 . S
C1547 C1549 1.415 . S
C1548 C1547 1.355 . S
C1548 C1550 1.419 . S
C1549 C1544 1.425 . S
C1549 C1546 1.409 . S
C1549 C1547 1.415 . S
C1550 H1540 0.930 . S
C1550 C1548 1.419 . S
C1550 C1551 1.362 . S
C1551 H1541 0.930 . S
C1551 C1544 1.409 . S
C1551 C1550 1.362 . S
H1552 C1558 0.930 . S
H1553 C1561 0.930 . S
H1554 C1562 0.930 . S
H1555 C1563 0.930 . S
H1556 C1566 0.930 . S
H1557 C1567 0.930 . S
C1558 H1552 0.930 . S
C1558 C1559 1.355 . S
C1558 C1560 1.415 . S
C1559 C1558 1.355 . S
C1559 C1561 1.419 . S
C1560 C1558 1.415 . S
C1560 C1565 1.425 . S
C1560 C1567 1.409 . S
C1561 H1553 0.930 . S
C1561 C1559 1.419 . S
C1561 C1562 1.362 . S
C1562 H1554 0.930 . S
C1562 C1561 1.362 . S
C1562 C1565 1.409 . S
C1563 H1555 0.930 . S
C1563 C1564 1.355 . S
C1563 C1565 1.415 . S
C1564 C1563 1.355 . S
C1564 C1566 1.419 . S
C1565 C1560 1.425 . S
C1565 C1562 1.409 . S
C1565 C1563 1.415 . S
C1566 H1556 0.930 . S
C1566 C1564 1.419 . S
C1566 C1567 1.362 . S
C1567 H1557 0.930 . S
C1567 C1560 1.409 . S
C1567 C1566 1.362 . S
H1568 C1574 0.930 . S
H1569 C1577 0.930 . S
H1570 C1578 0.930 . S
H1571 C1579 0.930 . S
H1572 C1582 0.930 . S
H1573 C1583 0.930 . S
C1574 H1568 0.930 . S
C1574 C1575 1.355 . S
C1574 C1576 1.415 . S
C1575 C1574 1.355 . S
C1575 C1577 1.419 . S
C1576 C1574 1.415 . S
C1576 C1581 1.425 . S
C1576 C1583 1.409 . S
C1577 H1569 0.930 . S
C1577 C1575 1.419 . S
C1577 C1578 1.362 . S
C1578 H1570 0.930 . S
C1578 C1577 1.362 . S
C1578 C1581 1.409 . S
C1579 H1571 0.930 . S
C1579 C1580 1.355 . S
C1579 C1581 1.415 . S
C1580 C1579 1.355 . S
C1580 C1582 1.419 . S
C1581 C1576 1.425 . S
C1581 C1578 1.409 . S
C1581 C1579 1.415 . S
C1582 H1572 0.930 . S
C1582 C1580 1.419 . S
C1582 C1583 1.362 . S
C1583 H1573 0.930 . S
C1583 C1576 1.409 . S
C1583 C1582 1.362 . S
H1584 C1590 0.930 . S
H1585 C1593 0.930 . S
H1586 C1594 0.930 . S
H1587 C1595 0.930 . S
H1588 C1598 0.930 . S
H1589 C1599 0.930 . S
C1590 H1584 0.930 . S
C1590 C1591 1.355 . S
C1590 C1592 1.415 . S
C1591 C1590 1.355 . S
C1591 C1593 1.419 . S
C1592 C1590 1.415 . S
C1592 C1597 1.425 . S
C1592 C1599 1.409 . S
C1593 H1585 0.930 . S
C1593 C1591 1.419 . S
C1593 C1594 1.362 . S
C1594 H1586 0.930 . S
C1594 C1593 1.362 . S
C1594 C1597 1.409 . S
C1595 H1587 0.930 . S
C1595 C1596 1.355 . S
C1595 C1597 1.415 . S
C1596 C1595 1.355 . S
C1596 C1598 1.419 . S
C1597 C1592 1.425 . S
C1597 C1594 1.409 . S
C1597 C1595 1.415 . S
C1598 H1588 0.930 . S
C1598 C1596 1.419 . S
C1598 C1599 1.362 . S
C1599 H1589 0.930 . S
C1599 C1592 1.409 . S
C1599 C1598 1.362 . S
H1600 C1606 0.930 . S
H1601 C1609 0.930 . S
H1602 C1610 0.930 . S
H1603 C1611 0.930 . S
H1604 C1614 0.930 . S
H1605 C1615 0.930 . S
C1606 H1600 0.930 . S
C1606 C1607 1.355 . S
C1606 C1608 1.415 . S
C1607 C1606 1.355 . S
C1607 C1609 1.419 . S
C1608 C1606 1.415 . S
C1608 C1613 1.425 . S
C1608 C1615 1.409 . S
C1609 H1601 0.930 . S
C1609 C1607 1.419 . S
C1609 C1610 1.362 . S
C1610 H1602 0.930 . S
C1610 C1609 1.362 . S
C1610 C1613 1.409 . S
C1611 H1603 0.930 . S
C1611 C1612 1.355 . S
C1611 C1613 1.415 . S
C1612 C1611 1.355 . S
C1612 C1614 1.419 . S
C1613 C1608 1.425 . S
C1613 C1610 1.409 . S
C1613 C1611 1.415 . S
C1614 H1604 0.930 . S
C1614 C1612 1.419 . S
C1614 C1615 1.362 . S
C1615 H1605 0.930 . S
C1615 C1608 1.409 . S
C1615 C1614 1.362 . S
H1616 C1622 0.930 . S
H1617 C1625 0.930 . S
H1618 C1626 0.930 . S
H1619 C1627 0.930 . S
H1620 C1630 0.930 . S
H1621 C1631 0.930 . S
C1622 H1616 0.930 . S
C1622 C1623 1.355 . S
C1622 C1624 1.415 . S
C1623 C1622 1.355 . S
C1623 C1625 1.419 . S
C1624 C1622 1.415 . S
C1624 C1629 1.425 . S
C1624 C1631 1.409 . S
C1625 H1617 0.930 . S
C1625 C1623 1.419 . S
C1625 C1626 1.362 . S
C1626 H1618 0.930 . S
C1626 C1625 1.362 . S
C1626 C1629 1.409 . S
C1627 H1619 0.930 . S
C1627 C1628 1.355 . S
C1627 C1629 1.415 . S
C1628 C1627 1.355 . S
C1628 C1630 1.419 . S
C1629 C1624 1.425 . S
C1629 C1626 1.409 . S
C1629 C1627 1.415 . S
C1630 H1620 0.930 . S
C1630 C1628 1.419 . S
C1630 C1631 1.362 . S
C1631 H1621 0.930 . S
C1631 C1624 1.409 . S
C1631 C1630 1.362 . S
H1632 C1638 0.930 . S
H1633 C1641 0.930 . S
H1634 C1642 0.930 . S
H1635 C1643 0.930 . S
H1636 C1646 0.930 . S
H1637 C1647 0.930 . S
C1638 H1632 0.930 . S
C1638 C1639 1.355 . S
C1638 C1640 1.415 . S
C1639 C1638 1.355 . S
C1639 C1641 1.419 . S
C1640 C1638 1.415 . S
C1640 C1645 1.425 . S
C1640 C1647 1.409 . S
C1641 H1633 0.930 . S
C1641 C1639 1.419 . S
C1641 C1642 1.362 . S
C1642 H1634 0.930 . S
C1642 C1641 1.362 . S
C1642 C1645 1.409 . S
C1643 H1635 0.930 . S
C1643 C1644 1.355 . S
C1643 C1645 1.415 . S
C1644 C1643 1.355 . S
C1644 C1646 1.419 . S
C1645 C1640 1.425 . S
C1645 C1642 1.409 . S
C1645 C1643 1.415 . S
C1646 H1636 0.930 . S
C1646 C1644 1.419 . S
C1646 C1647 1.362 . S
C1647 H1637 0.930 . S
C1647 C1640 1.409 . S
C1647 C1646 1.362 . S
H1648 C1654 0.930 . S
H1649 C1657 0.930 . S
H1650 C1658 0.930 . S
H1651 C1659 0.930 . S
H1652 C1662 0.930 . S
H1653 C1663 0.930 . S
C1654 H1648 0.930 . S
C1654 C1655 1.355 . S
C1654 C1656 1.415 . S
C1655 C1654 1.355 . S
C1655 C1657 1.419 . S
C1656 C1654 1.415 . S
C1656 C1661 1.425 . S
C1656 C1663 1.409 . S
C1657 H1649 0.930 . S
C1657 C1655 1.419 . S
C1657 C1658 1.362 . S
C1658 H1650 0.930 . S
C1658 C1657 1.362 . S
C1658 C1661 1.409 . S
C1659 H1651 0.930 . S
C1659 C1660 1.355 . S
C1659 C1661 1.415 . S
C1660 C1659 1.355 . S
C1660 C1662 1.419 . S
C1661 C1656 1.425 . S
C1661 C1658 1.409 . S
C1661 C1659 1.415 . S
C1662 H1652 0.930 . S
C1662 C1660 1.419 . S
C1662 C1663 1.362 . S
C1663 H1653 0.930 . S
C1663 C1656 1.409 . S
C1663 C1662 1.362 . S
H1664 C1670 0.930 . S
H1665 C1673 0.930 . S
H1666 C1674 0.930 . S
H1667 C1675 0.930 . S
H1668 C1678 0.930 . S
H1669 C1679 0.930 . S
C1670 H1664 0.930 . S
C1670 C1671 1.355 . S
C1670 C1672 1.415 . S
C1671 C1670 1.355 . S
C1671 C1673 1.419 . S
C1672 C1670 1.415 . S
C1672 C1677 1.425 . S
C1672 C1679 1.409 . S
C1673 H1665 0.930 . S
C1673 C1671 1.419 . S
C1673 C1674 1.362 . S
C1674 H1666 0.930 . S
C1674 C1673 1.362 . S
C1674 C1677 1.409 . S
C1675 H1667 0.930 . S
C1675 C1676 1.355 . S
C1675 C1677 1.415 . S
C1676 C1675 1.355 . S
C1676 C1678 1.419 . S
C1677 C1672 1.425 . S
C1677 C1674 1.409 . S
C1677 C1675 1.415 . S
C1678 H1668 0.930 . S
C1678 C1676 1.419 . S
C1678 C1679 1.362 . S
C1679 H1669 0.930 . S
C1679 C1672 1.409 . S
C1679 C1678 1.362 . S
H1680 C1686 0.930 . S
H1681 C1689 0.930 . S
H1682 C1690 0.930 . S
H1683 C1691 0.930 . S
H1684 C1694 0.930 . S
H1685 C1695 0.930 . S
C1686 H1680 0.930 . S
C1686 C1687 1.355 . S
C1686 C1688 1.415 . S
C1687 C1686 1.355 . S
C1687 C1689 1.419 1_545 S
C1688 C1686 1.415 . S
C1688 C1693 1.425 1_545 S
C1688 C1695 1.409 . S
C1689 H1681 0.930 . S
C1689 C1687 1.419 1_565 S
C1689 C1690 1.362 . S
C1690 H1682 0.930 . S
C1690 C1689 1.362 . S
C1690 C1693 1.409 . S
C1691 H1683 0.930 . S
C1691 C1692 1.355 . S
C1691 C1693 1.415 . S
C1692 C1691 1.355 . S
C1692 C1694 1.419 . S
C1693 C1688 1.425 1_565 S
C1693 C1690 1.409 . S
C1693 C1691 1.415 . S
C1694 H1684 0.930 . S
C1694 C1692 1.419 . S
C1694 C1695 1.362 1_565 S
C1695 H1685 0.930 . S
C1695 C1688 1.409 . S
C1695 C1694 1.362 1_545 S
H1696 C1702 0.930 . S
H1697 C1705 0.930 . S
H1698 C1706 0.930 . S
H1699 C1707 0.930 . S
H1700 C1710 0.930 . S
H1701 C1711 0.930 . S
C1702 H1696 0.930 . S
C1702 C1703 1.355 . S
C1702 C1704 1.415 . S
C1703 C1702 1.355 . S
C1703 C1705 1.419 . S
C1704 C1702 1.415 . S
C1704 C1709 1.425 . S
C1704 C1711 1.409 . S
C1705 H1697 0.930 . S
C1705 C1703 1.419 . S
C1705 C1706 1.362 . S
C1706 H1698 0.930 . S
C1706 C1705 1.362 . S
C1706 C1709 1.409 . S
C1707 H1699 0.930 . S
C1707 C1708 1.355 . S
C1707 C1709 1.415 . S
C1708 C1707 1.355 . S
C1708 C1710 1.419 . S
C1709 C1704 1.425 . S
C1709 C1706 1.409 . S
C1709 C1707 1.415 . S
C1710 H1700 0.930 . S
C1710 C1708 1.419 . S
C1710 C1711 1.362 . S
C1711 H1701 0.930 . S
C1711 C1704 1.409 . S
C1711 C1710 1.362 . S
H1712 C1718 0.930 . S
H1713 C1721 0.930 . S
H1714 C1722 0.930 . S
H1715 C1723 0.930 . S
H1716 C1726 0.930 . S
H1717 C1727 0.930 . S
C1718 H1712 0.930 . S
C1718 C1719 1.355 . S
C1718 C1720 1.415 . S
C1719 C1718 1.355 . S
C1719 C1721 1.419 . S
C1720 C1718 1.415 . S
C1720 C1725 1.425 . S
C1720 C1727 1.409 . S
C1721 H1713 0.930 . S
C1721 C1719 1.419 . S
C1721 C1722 1.362 . S
C1722 H1714 0.930 . S
C1722 C1721 1.362 . S
C1722 C1725 1.409 . S
C1723 H1715 0.930 . S
C1723 C1724 1.355 . S
C1723 C1725 1.415 . S
C1724 C1723 1.355 . S
C1724 C1726 1.419 . S
C1725 C1720 1.425 . S
C1725 C1722 1.409 . S
C1725 C1723 1.415 . S
C1726 H1716 0.930 . S
C1726 C1724 1.419 . S
C1726 C1727 1.362 . S
C1727 H1717 0.930 . S
C1727 C1720 1.409 . S
C1727 C1726 1.362 . S
H1728 C1734 0.930 . S
H1729 C1737 0.930 . S
H1730 C1738 0.930 . S
H1731 C1739 0.930 . S
H1732 C1742 0.930 . S
H1733 C1743 0.930 . S
C1734 H1728 0.930 . S
C1734 C1735 1.355 . S
C1734 C1736 1.415 . S
C1735 C1734 1.355 . S
C1735 C1737 1.419 . S
C1736 C1734 1.415 . S
C1736 C1741 1.425 . S
C1736 C1743 1.409 . S
C1737 H1729 0.930 . S
C1737 C1735 1.419 . S
C1737 C1738 1.362 . S
C1738 H1730 0.930 . S
C1738 C1737 1.362 . S
C1738 C1741 1.409 . S
C1739 H1731 0.930 . S
C1739 C1740 1.355 . S
C1739 C1741 1.415 . S
C1740 C1739 1.355 . S
C1740 C1742 1.419 . S
C1741 C1736 1.425 . S
C1741 C1738 1.409 . S
C1741 C1739 1.415 . S
C1742 H1732 0.930 . S
C1742 C1740 1.419 . S
C1742 C1743 1.362 . S
C1743 H1733 0.930 . S
C1743 C1736 1.409 . S
C1743 C1742 1.362 . S
H1744 C1750 0.930 . S
H1745 C1753 0.930 . S
H1746 C1754 0.930 . S
H1747 C1755 0.930 . S
H1748 C1758 0.930 . S
H1749 C1759 0.930 . S
C1750 H1744 0.930 . S
C1750 C1751 1.355 . S
C1750 C1752 1.415 . S
C1751 C1750 1.355 . S
C1751 C1753 1.419 . S
C1752 C1750 1.415 . S
C1752 C1757 1.425 . S
C1752 C1759 1.409 . S
C1753 H1745 0.930 . S
C1753 C1751 1.419 . S
C1753 C1754 1.362 . S
C1754 H1746 0.930 . S
C1754 C1753 1.362 . S
C1754 C1757 1.409 . S
C1755 H1747 0.930 . S
C1755 C1756 1.355 . S
C1755 C1757 1.415 . S
C1756 C1755 1.355 . S
C1756 C1758 1.419 . S
C1757 C1752 1.425 . S
C1757 C1754 1.409 . S
C1757 C1755 1.415 . S
C1758 H1748 0.930 . S
C1758 C1756 1.419 . S
C1758 C1759 1.362 . S
C1759 H1749 0.930 . S
C1759 C1752 1.409 . S
C1759 C1758 1.362 . S
H1760 C1766 0.930 . S
H1761 C1769 0.930 . S
H1762 C1770 0.930 . S
H1763 C1771 0.930 . S
H1764 C1774 0.930 . S
H1765 C1775 0.930 . S
C1766 H1760 0.930 . S
C1766 C1767 1.355 . S
C1766 C1768 1.415 . S
C1767 C1766 1.355 . S
C1767 C1769 1.419 . S
C1768 C1766 1.415 . S
C1768 C1773 1.425 . S
C1768 C1775 1.409 . S
C1769 H1761 0.930 . S
C1769 C1767 1.419 . S
C1769 C1770 1.362 . S
C1770 H1762 0.930 . S
C1770 C1769 1.362 . S
C1770 C1773 1.409 . S
C1771 H1763 0.930 . S
C1771 C1772 1.355 . S
C1771 C1773 1.415 . S
C1772 C1771 1.355 . S
C1772 C1774 1.419 . S
C1773 C1768 1.425 . S
C1773 C1770 1.409 . S
C1773 C1771 1.415 . S
C1774 H1764 0.930 . S
C1774 C1772 1.419 . S
C1774 C1775 1.362 . S
C1775 H1765 0.930 . S
C1775 C1768 1.409 . S
C1775 C1774 1.362 . S
H1776 C1782 0.930 . S
H1777 C1785 0.930 . S
H1778 C1786 0.930 1_556 S
H1779 C1787 0.930 . S
H1780 C1790 0.930 . S
H1781 C1791 0.930 . S
C1782 H1776 0.930 . S
C1782 C1783 1.355 . S
C1782 C1784 1.415 . S
C1783 C1782 1.355 . S
C1783 C1785 1.419 1_554 S
C1784 C1782 1.415 . S
C1784 C1789 1.425 . S
C1784 C1791 1.409 . S
C1785 H1777 0.930 . S
C1785 C1783 1.419 1_556 S
C1785 C1786 1.362 1_556 S
C1786 H1778 0.930 1_554 S
C1786 C1785 1.362 1_554 S
C1786 C1789 1.409 . S
C1787 H1779 0.930 . S
C1787 C1788 1.355 . S
C1787 C1789 1.415 . S
C1788 C1787 1.355 . S
C1788 C1790 1.419 . S
C1789 C1784 1.425 . S
C1789 C1786 1.409 . S
C1789 C1787 1.415 . S
C1790 H1780 0.930 . S
C1790 C1788 1.419 . S
C1790 C1791 1.362 . S
C1791 H1781 0.930 . S
C1791 C1784 1.409 . S
C1791 C1790 1.362 . S
H1792 C1798 0.930 . S
H1793 C1801 0.930 . S
H1794 C1802 0.930 1_455 S
H1795 C1803 0.930 . S
H1796 C1806 0.930 . S
H1797 C1807 0.930 . S
C1798 H1792 0.930 . S
C1798 C1799 1.355 . S
C1798 C1800 1.415 . S
C1799 C1798 1.355 . S
C1799 C1801 1.419 1_655 S
C1800 C1798 1.415 . S
C1800 C1805 1.425 . S
C1800 C1807 1.409 . S
C1801 H1793 0.930 . S
C1801 C1799 1.419 1_455 S
C1801 C1802 1.362 1_455 S
C1802 H1794 0.930 1_655 S
C1802 C1801 1.362 1_655 S
C1802 C1805 1.409 . S
C1803 H1795 0.930 . S
C1803 C1804 1.355 . S
C1803 C1805 1.415 . S
C1804 C1803 1.355 . S
C1804 C1806 1.419 . S
C1805 C1800 1.425 . S
C1805 C1802 1.409 . S
C1805 C1803 1.415 . S
C1806 H1796 0.930 . S
C1806 C1804 1.419 . S
C1806 C1807 1.362 . S
C1807 H1797 0.930 . S
C1807 C1800 1.409 . S
C1807 C1806 1.362 . S
H1808 C1814 0.930 . S
H1809 C1817 0.930 . S
H1810 C1818 0.930 . S
H1811 C1819 0.930 . S
H1812 C1822 0.930 . S
H1813 C1823 0.930 . S
C1814 H1808 0.930 . S
C1814 C1815 1.355 . S
C1814 C1816 1.415 . S
C1815 C1814 1.355 . S
C1815 C1817 1.419 . S
C1816 C1814 1.415 . S
C1816 C1821 1.425 . S
C1816 C1823 1.409 . S
C1817 H1809 0.930 . S
C1817 C1815 1.419 . S
C1817 C1818 1.362 . S
C1818 H1810 0.930 . S
C1818 C1817 1.362 . S
C1818 C1821 1.409 . S
C1819 H1811 0.930 . S
C1819 C1820 1.355 . S
C1819 C1821 1.415 . S
C1820 C1819 1.355 . S
C1820 C1822 1.419 . S
C1821 C1816 1.425 . S
C1821 C1818 1.409 . S
C1821 C1819 1.415 . S
C1822 H1812 0.930 . S
C1822 C1820 1.419 . S
C1822 C1823 1.362 . S
C1823 H1813 0.930 . S
C1823 C1816 1.409 . S
C1823 C1822 1.362 . S
H1824 C1830 0.930 . S
H1825 C1833 0.930 . S
H1826 C1834 0.930 . S
H1827 C1835 0.930 . S
H1828 C1838 0.930 . S
H1829 C1839 0.930 . S
C1830 H1824 0.930 . S
C1830 C1831 1.355 . S
C1830 C1832 1.415 . S
C1831 C1830 1.355 . S
C1831 C1833 1.419 . S
C1832 C1830 1.415 . S
C1832 C1837 1.425 . S
C1832 C1839 1.409 . S
C1833 H1825 0.930 . S
C1833 C1831 1.419 . S
C1833 C1834 1.362 . S
C1834 H1826 0.930 . S
C1834 C1833 1.362 . S
C1834 C1837 1.409 . S
C1835 H1827 0.930 . S
C1835 C1836 1.355 . S
C1835 C1837 1.415 . S
C1836 C1835 1.355 . S
C1836 C1838 1.419 . S
C1837 C1832 1.425 . S
C1837 C1834 1.409 . S
C1837 C1835 1.415 . S
C1838 H1828 0.930 . S
C1838 C1836 1.419 . S
C1838 C1839 1.362 . S
C1839 H1829 0.930 . S
C1839 C1832 1.409 . S
C1839 C1838 1.362 . S
H1840 C1846 0.930 1_655 S
H1841 C1849 0.930 . S
H1842 C1850 0.930 . S
H1843 C1851 0.930 . S
H1844 C1854 0.930 1_655 S
H1845 C1855 0.930 1_655 S
C1846 H1840 0.930 1_455 S
C1846 C1847 1.355 . S
C1846 C1848 1.415 . S
C1847 C1846 1.355 . S
C1847 C1849 1.419 . S
C1848 C1846 1.415 . S
C1848 C1853 1.425 . S
C1848 C1855 1.409 . S
C1849 H1841 0.930 . S
C1849 C1847 1.419 . S
C1849 C1850 1.362 . S
C1850 H1842 0.930 . S
C1850 C1849 1.362 . S
C1850 C1853 1.409 . S
C1851 H1843 0.930 . S
C1851 C1852 1.355 . S
C1851 C1853 1.415 . S
C1852 C1851 1.355 . S
C1852 C1854 1.419 . S
C1853 C1848 1.425 . S
C1853 C1850 1.409 . S
C1853 C1851 1.415 . S
C1854 H1844 0.930 1_455 S
C1854 C1852 1.419 . S
C1854 C1855 1.362 . S
C1855 H1845 0.930 1_455 S
C1855 C1848 1.409 . S
C1855 C1854 1.362 . S
H1856 C1862 0.930 . S
H1857 C1865 0.930 . S
H1858 C1866 0.930 . S
H1859 C1867 0.930 . S
H1860 C1870 0.930 . S
H1861 C1871 0.930 . S
C1862 H1856 0.930 . S
C1862 C1863 1.355 . S
C1862 C1864 1.415 . S
C1863 C1862 1.355 . S
C1863 C1865 1.419 . S
C1864 C1862 1.415 . S
C1864 C1869 1.425 . S
C1864 C1871 1.409 . S
C1865 H1857 0.930 . S
C1865 C1863 1.419 . S
C1865 C1866 1.362 . S
C1866 H1858 0.930 . S
C1866 C1865 1.362 . S
C1866 C1869 1.409 . S
C1867 H1859 0.930 . S
C1867 C1868 1.355 . S
C1867 C1869 1.415 . S
C1868 C1867 1.355 . S
C1868 C1870 1.419 . S
C1869 C1864 1.425 . S
C1869 C1866 1.409 . S
C1869 C1867 1.415 . S
C1870 H1860 0.930 . S
C1870 C1868 1.419 . S
C1870 C1871 1.362 . S
C1871 H1861 0.930 . S
C1871 C1864 1.409 . S
C1871 C1870 1.362 . S
H1872 C1878 0.930 . S
H1873 C1881 0.930 . S
H1874 C1882 0.930 . S
H1875 C1883 0.930 . S
H1876 C1886 0.930 . S
H1877 C1887 0.930 . S
C1878 H1872 0.930 . S
C1878 C1879 1.355 . S
C1878 C1880 1.415 . S
C1879 C1878 1.355 . S
C1879 C1881 1.419 . S
C1880 C1878 1.415 . S
C1880 C1885 1.425 . S
C1880 C1887 1.409 . S
C1881 H1873 0.930 . S
C1881 C1879 1.419 . S
C1881 C1882 1.362 . S
C1882 H1874 0.930 . S
C1882 C1881 1.362 . S
C1882 C1885 1.409 . S
C1883 H1875 0.930 . S
C1883 C1884 1.355 . S
C1883 C1885 1.415 . S
C1884 C1883 1.355 . S
C1884 C1886 1.419 . S
C1885 C1880 1.425 . S
C1885 C1882 1.409 . S
C1885 C1883 1.415 . S
C1886 H1876 0.930 . S
C1886 C1884 1.419 . S
C1886 C1887 1.362 . S
C1887 H1877 0.930 . S
C1887 C1880 1.409 . S
C1887 C1886 1.362 . S
H1888 C1894 0.930 . S
H1889 C1897 0.930 . S
H1890 C1898 0.930 . S
H1891 C1899 0.930 . S
H1892 C1902 0.930 . S
H1893 C1903 0.930 . S
C1894 H1888 0.930 . S
C1894 C1895 1.355 1_556 S
C1894 C1896 1.415 . S
C1895 C1894 1.355 1_554 S
C1895 C1897 1.419 . S
C1896 C1894 1.415 . S
C1896 C1901 1.425 . S
C1896 C1903 1.409 . S
C1897 H1889 0.930 . S
C1897 C1895 1.419 . S
C1897 C1898 1.362 . S
C1898 H1890 0.930 . S
C1898 C1897 1.362 . S
C1898 C1901 1.409 1_554 S
C1899 H1891 0.930 . S
C1899 C1900 1.355 . S
C1899 C1901 1.415 . S
C1900 C1899 1.355 . S
C1900 C1902 1.419 . S
C1901 C1896 1.425 . S
C1901 C1898 1.409 1_556 S
C1901 C1899 1.415 . S
C1902 H1892 0.930 . S
C1902 C1900 1.419 . S
C1902 C1903 1.362 . S
C1903 H1893 0.930 . S
C1903 C1896 1.409 . S
C1903 C1902 1.362 . S
H1904 C1910 0.930 . S
H1905 C1913 0.930 . S
H1906 C1914 0.930 . S
H1907 C1915 0.930 . S
H1908 C1918 0.930 . S
H1909 C1919 0.930 . S
C1910 H1904 0.930 . S
C1910 C1911 1.355 . S
C1910 C1912 1.415 . S
C1911 C1910 1.355 . S
C1911 C1913 1.419 . S
C1912 C1910 1.415 . S
C1912 C1917 1.425 . S
C1912 C1919 1.409 . S
C1913 H1905 0.930 . S
C1913 C1911 1.419 . S
C1913 C1914 1.362 . S
C1914 H1906 0.930 . S
C1914 C1913 1.362 . S
C1914 C1917 1.409 . S
C1915 H1907 0.930 . S
C1915 C1916 1.355 . S
C1915 C1917 1.415 . S
C1916 C1915 1.355 . S
C1916 C1918 1.419 . S
C1917 C1912 1.425 . S
C1917 C1914 1.409 . S
C1917 C1915 1.415 . S
C1918 H1908 0.930 . S
C1918 C1916 1.419 . S
C1918 C1919 1.362 . S
C1919 H1909 0.930 . S
C1919 C1912 1.409 . S
C1919 C1918 1.362 . S
H1920 C1926 0.930 . S
H1921 C1929 0.930 . S
H1922 C1930 0.930 . S
H1923 C1931 0.930 . S
H1924 C1934 0.930 . S
H1925 C1935 0.930 . S
C1926 H1920 0.930 . S
C1926 C1927 1.355 . S
C1926 C1928 1.415 . S
C1927 C1926 1.355 . S
C1927 C1929 1.419 . S
C1928 C1926 1.415 . S
C1928 C1933 1.425 . S
C1928 C1935 1.409 . S
C1929 H1921 0.930 . S
C1929 C1927 1.419 . S
C1929 C1930 1.362 . S
C1930 H1922 0.930 . S
C1930 C1929 1.362 . S
C1930 C1933 1.409 . S
C1931 H1923 0.930 . S
C1931 C1932 1.355 . S
C1931 C1933 1.415 . S
C1932 C1931 1.355 . S
C1932 C1934 1.419 . S
C1933 C1928 1.425 . S
C1933 C1930 1.409 . S
C1933 C1931 1.415 . S
C1934 H1924 0.930 . S
C1934 C1932 1.419 . S
C1934 C1935 1.362 . S
C1935 H1925 0.930 . S
C1935 C1928 1.409 . S
C1935 C1934 1.362 . S
H1936 C1942 0.930 . S
H1937 C1945 0.930 . S
H1938 C1946 0.930 . S
H1939 C1947 0.930 . S
H1940 C1950 0.930 . S
H1941 C1951 0.930 . S
C1942 H1936 0.930 . S
C1942 C1943 1.355 . S
C1942 C1944 1.415 . S
C1943 C1942 1.355 . S
C1943 C1945 1.419 . S
C1944 C1942 1.415 . S
C1944 C1949 1.425 . S
C1944 C1951 1.409 . S
C1945 H1937 0.930 . S
C1945 C1943 1.419 . S
C1945 C1946 1.362 . S
C1946 H1938 0.930 . S
C1946 C1945 1.362 . S
C1946 C1949 1.409 . S
C1947 H1939 0.930 . S
C1947 C1948 1.355 . S
C1947 C1949 1.415 . S
C1948 C1947 1.355 . S
C1948 C1950 1.419 . S
C1949 C1944 1.425 . S
C1949 C1946 1.409 . S
C1949 C1947 1.415 . S
C1950 H1940 0.930 . S
C1950 C1948 1.419 . S
C1950 C1951 1.362 . S
C1951 H1941 0.930 . S
C1951 C1944 1.409 . S
C1951 C1950 1.362 . S
H1952 C1958 0.930 . S
H1953 C1961 0.930 . S
H1954 C1962 0.930 . S
H1955 C1963 0.930 . S
H1956 C1966 0.930 . S
H1957 C1967 0.930 . S
C1958 H1952 0.930 . S
C1958 C1959 1.355 . S
C1958 C1960 1.415 . S
C1959 C1958 1.355 . S
C1959 C1961 1.419 . S
C1960 C1958 1.415 . S
C1960 C1965 1.425 . S
C1960 C1967 1.409 . S
C1961 H1953 0.930 . S
C1961 C1959 1.419 . S
C1961 C1962 1.362 . S
C1962 H1954 0.930 . S
C1962 C1961 1.362 . S
C1962 C1965 1.409 . S
C1963 H1955 0.930 . S
C1963 C1964 1.355 . S
C1963 C1965 1.415 . S
C1964 C1963 1.355 . S
C1964 C1966 1.419 . S
C1965 C1960 1.425 . S
C1965 C1962 1.409 . S
C1965 C1963 1.415 . S
C1966 H1956 0.930 . S
C1966 C1964 1.419 . S
C1966 C1967 1.362 . S
C1967 H1957 0.930 . S
C1967 C1960 1.409 . S
C1967 C1966 1.362 . S
H1968 C1974 0.930 . S
H1969 C1977 0.930 . S
H1970 C1978 0.930 . S
H1971 C1979 0.930 . S
H1972 C1982 0.930 . S
H1973 C1983 0.930 . S
C1974 H1968 0.930 . S
C1974 C1975 1.355 . S
C1974 C1976 1.415 . S
C1975 C1974 1.355 . S
C1975 C1977 1.419 . S
C1976 C1974 1.415 . S
C1976 C1981 1.425 . S
C1976 C1983 1.409 . S
C1977 H1969 0.930 . S
C1977 C1975 1.419 . S
C1977 C1978 1.362 . S
C1978 H1970 0.930 . S
C1978 C1977 1.362 . S
C1978 C1981 1.409 . S
C1979 H1971 0.930 . S
C1979 C1980 1.355 . S
C1979 C1981 1.415 . S
C1980 C1979 1.355 . S
C1980 C1982 1.419 . S
C1981 C1976 1.425 . S
C1981 C1978 1.409 . S
C1981 C1979 1.415 . S
C1982 H1972 0.930 . S
C1982 C1980 1.419 . S
C1982 C1983 1.362 . S
C1983 H1973 0.930 . S
C1983 C1976 1.409 . S
C1983 C1982 1.362 . S
H1984 C1990 0.930 . S
H1985 C1993 0.930 . S
H1986 C1994 0.930 . S
H1987 C1995 0.930 . S
H1988 C1998 0.930 . S
H1989 C1999 0.930 . S
C1990 H1984 0.930 . S
C1990 C1991 1.355 . S
C1990 C1992 1.415 . S
C1991 C1990 1.355 . S
C1991 C1993 1.419 . S
C1992 C1990 1.415 . S
C1992 C1997 1.425 . S
C1992 C1999 1.409 . S
C1993 H1985 0.930 . S
C1993 C1991 1.419 . S
C1993 C1994 1.362 . S
C1994 H1986 0.930 . S
C1994 C1993 1.362 . S
C1994 C1997 1.409 . S
C1995 H1987 0.930 . S
C1995 C1996 1.355 . S
C1995 C1997 1.415 . S
C1996 C1995 1.355 . S
C1996 C1998 1.419 . S
C1997 C1992 1.425 . S
C1997 C1994 1.409 . S
C1997 C1995 1.415 . S
C1998 H1988 0.930 . S
C1998 C1996 1.419 . S
C1998 C1999 1.362 . S
C1999 H1989 0.930 . S
C1999 C1992 1.409 . S
C1999 C1998 1.362 . S
H2000 C2006 0.930 . S
H2001 C2009 0.930 . S
H2002 C2010 0.930 . S
H2003 C2011 0.930 . S
H2004 C2014 0.930 . S
H2005 C2015 0.930 . S
C2006 H2000 0.930 . S
C2006 C2007 1.355 . S
C2006 C2008 1.415 . S
C2007 C2006 1.355 . S
C2007 C2009 1.419 . S
C2008 C2006 1.415 . S
C2008 C2013 1.425 . S
C2008 C2015 1.409 . S
C2009 H2001 0.930 . S
C2009 C2007 1.419 . S
C2009 C2010 1.362 . S
C2010 H2002 0.930 . S
C2010 C2009 1.362 . S
C2010 C2013 1.409 . S
C2011 H2003 0.930 . S
C2011 C2012 1.355 . S
C2011 C2013 1.415 . S
C2012 C2011 1.355 . S
C2012 C2014 1.419 . S
C2013 C2008 1.425 . S
C2013 C2010 1.409 . S
C2013 C2011 1.415 . S
C2014 H2004 0.930 . S
C2014 C2012 1.419 . S
C2014 C2015 1.362 . S
C2015 H2005 0.930 . S
C2015 C2008 1.409 . S
C2015 C2014 1.362 . S
H2016 C2022 0.930 . S
H2017 C2025 0.930 . S
H2018 C2026 0.930 . S
H2019 C2027 0.930 . S
H2020 C2030 0.930 . S
H2021 C2031 0.930 . S
C2022 H2016 0.930 . S
C2022 C2023 1.355 . S
C2022 C2024 1.415 . S
C2023 C2022 1.355 . S
C2023 C2025 1.419 . S
C2024 C2022 1.415 . S
C2024 C2029 1.425 . S
C2024 C2031 1.409 . S
C2025 H2017 0.930 . S
C2025 C2023 1.419 . S
C2025 C2026 1.362 . S
C2026 H2018 0.930 . S
C2026 C2025 1.362 . S
C2026 C2029 1.409 . S
C2027 H2019 0.930 . S
C2027 C2028 1.355 . S
C2027 C2029 1.415 . S
C2028 C2027 1.355 . S
C2028 C2030 1.419 . S
C2029 C2024 1.425 . S
C2029 C2026 1.409 . S
C2029 C2027 1.415 . S
C2030 H2020 0.930 . S
C2030 C2028 1.419 . S
C2030 C2031 1.362 . S
C2031 H2021 0.930 . S
C2031 C2024 1.409 . S
C2031 C2030 1.362 . S
H2032 C2038 0.930 . S
H2033 C2041 0.930 . S
H2034 C2042 0.930 1_545 S
H2035 C2043 0.930 . S
H2036 C2046 0.930 . S
H2037 C2047 0.930 . S
C2038 H2032 0.930 . S
C2038 C2039 1.355 . S
C2038 C2040 1.415 . S
C2039 C2038 1.355 . S
C2039 C2041 1.419 1_565 S
C2040 C2038 1.415 . S
C2040 C2045 1.425 . S
C2040 C2047 1.409 . S
C2041 H2033 0.930 . S
C2041 C2039 1.419 1_545 S
C2041 C2042 1.362 1_545 S
C2042 H2034 0.930 1_565 S
C2042 C2041 1.362 1_565 S
C2042 C2045 1.409 . S
C2043 H2035 0.930 . S
C2043 C2044 1.355 . S
C2043 C2045 1.415 . S
C2044 C2043 1.355 . S
C2044 C2046 1.419 . S
C2045 C2040 1.425 . S
C2045 C2042 1.409 . S
C2045 C2043 1.415 . S
C2046 H2036 0.930 . S
C2046 C2044 1.419 . S
C2046 C2047 1.362 . S
C2047 H2037 0.930 . S
C2047 C2040 1.409 . S
C2047 C2046 1.362 . S
H2048 C2054 0.930 1_556 S
H2049 C2057 0.930 . S
H2050 C2058 0.930 . S
H2051 C2059 0.930 . S
H2052 C2062 0.930 . S
H2053 C2063 0.910 1_556 S
C2054 H2048 0.930 1_554 S
C2054 C2055 1.355 . S
C2054 C2056 1.415 . S
C2055 C2054 1.355 . S
C2055 C2057 1.419 . S
C2056 C2054 1.415 . S
C2056 C2061 1.425 . S
C2056 C2063 1.423 . S
C2057 H2049 0.930 . S
C2057 C2055 1.419 . S
C2057 C2058 1.362 . S
C2058 H2050 0.930 . S
C2058 C2057 1.362 . S
C2058 C2061 1.409 . S
C2059 H2051 0.930 . S
C2059 C2060 1.355 . S
C2059 C2061 1.415 1_545 S
C2060 C2059 1.355 . S
C2060 C2062 1.419 . S
C2061 C2056 1.425 . S
C2061 C2058 1.409 . S
C2061 C2059 1.415 1_565 S
C2062 H2052 0.930 . S
C2062 C2060 1.419 . S
C2062 C2063 1.368 1_545 S
C2063 H2053 0.910 1_554 S
C2063 C2056 1.423 . S
C2063 C2062 1.368 1_565 S
H2064 C2070 0.930 . S
H2065 C2073 0.930 . S
H2066 C2074 0.930 . S
H2067 C2075 0.930 . S
H2068 C2078 0.930 . S
H2069 C2079 0.930 . S
C2070 H2064 0.930 . S
C2070 C2071 1.355 . S
C2070 C2072 1.415 . S
C2071 C2070 1.355 . S
C2071 C2073 1.419 . S
C2072 C2070 1.415 . S
C2072 C2077 1.425 . S
C2072 C2079 1.409 . S
C2073 H2065 0.930 . S
C2073 C2071 1.419 . S
C2073 C2074 1.362 . S
C2074 H2066 0.930 . S
C2074 C2073 1.362 . S
C2074 C2077 1.409 . S
C2075 H2067 0.930 . S
C2075 C2076 1.355 . S
C2075 C2077 1.415 . S
C2076 C2075 1.355 . S
C2076 C2078 1.419 . S
C2077 C2072 1.425 . S
C2077 C2074 1.409 . S
C2077 C2075 1.415 . S
C2078 H2068 0.930 . S
C2078 C2076 1.419 . S
C2078 C2079 1.362 . S
C2079 H2069 0.930 . S
C2079 C2072 1.409 . S
C2079 C2078 1.362 . S
H2080 C2086 0.930 . S
H2081 C2089 0.930 . S
H2082 C2090 0.930 . S
H2083 C2091 0.930 . S
H2084 C2094 0.930 . S
H2085 C2095 0.930 . S
C2086 H2080 0.930 . S
C2086 C2087 1.355 . S
C2086 C2088 1.415 . S
C2087 C2086 1.355 . S
C2087 C2089 1.419 . S
C2088 C2086 1.415 . S
C2088 C2093 1.425 . S
C2088 C2095 1.409 . S
C2089 H2081 0.930 . S
C2089 C2087 1.419 . S
C2089 C2090 1.362 . S
C2090 H2082 0.930 . S
C2090 C2089 1.362 . S
C2090 C2093 1.409 . S
C2091 H2083 0.930 . S
C2091 C2092 1.355 . S
C2091 C2093 1.415 . S
C2092 C2091 1.355 . S
C2092 C2094 1.419 . S
C2093 C2088 1.425 . S
C2093 C2090 1.409 . S
C2093 C2091 1.415 . S
C2094 H2084 0.930 . S
C2094 C2092 1.419 . S
C2094 C2095 1.362 . S
C2095 H2085 0.930 . S
C2095 C2088 1.409 . S
C2095 C2094 1.362 . S
H2096 C2102 0.930 . S
H2097 C2105 0.930 . S
H2098 C2106 0.930 . S
H2099 C2107 0.930 . S
H2100 C2110 0.930 . S
H2101 C2111 0.930 . S
C2102 H2096 0.930 . S
C2102 C2103 1.355 . S
C2102 C2104 1.415 . S
C2103 C2102 1.355 . S
C2103 C2105 1.419 . S
C2104 C2102 1.415 . S
C2104 C2109 1.425 . S
C2104 C2111 1.409 . S
C2105 H2097 0.930 . S
C2105 C2103 1.419 . S
C2105 C2106 1.362 . S
C2106 H2098 0.930 . S
C2106 C2105 1.362 . S
C2106 C2109 1.409 . S
C2107 H2099 0.930 . S
C2107 C2108 1.355 . S
C2107 C2109 1.415 . S
C2108 C2107 1.355 . S
C2108 C2110 1.419 . S
C2109 C2104 1.425 . S
C2109 C2106 1.409 . S
C2109 C2107 1.415 . S
C2110 H2100 0.930 . S
C2110 C2108 1.419 . S
C2110 C2111 1.362 . S
C2111 H2101 0.930 . S
C2111 C2104 1.409 . S
C2111 C2110 1.362 . S
H2112 C2118 0.930 . S
H2113 C2121 0.930 . S
H2114 C2122 0.930 . S
H2115 C2123 0.930 . S
H2116 C2126 0.930 . S
H2117 C2127 0.930 . S
C2118 H2112 0.930 . S
C2118 C2119 1.355 . S
C2118 C2120 1.415 . S
C2119 C2118 1.355 . S
C2119 C2121 1.419 . S
C2120 C2118 1.415 . S
C2120 C2125 1.425 . S
C2120 C2127 1.409 . S
C2121 H2113 0.930 . S
C2121 C2119 1.419 . S
C2121 C2122 1.362 . S
C2122 H2114 0.930 . S
C2122 C2121 1.362 . S
C2122 C2125 1.409 . S
C2123 H2115 0.930 . S
C2123 C2124 1.355 . S
C2123 C2125 1.415 . S
C2124 C2123 1.355 . S
C2124 C2126 1.419 . S
C2125 C2120 1.425 . S
C2125 C2122 1.409 . S
C2125 C2123 1.415 . S
C2126 H2116 0.930 . S
C2126 C2124 1.419 . S
C2126 C2127 1.362 . S
C2127 H2117 0.930 . S
C2127 C2120 1.409 . S
C2127 C2126 1.362 . S
H2128 C2134 0.930 . S
H2129 C2137 0.930 . S
H2130 C2138 0.930 . S
H2131 C2139 0.930 . S
H2132 C2142 0.930 . S
H2133 C2143 0.930 . S
C2134 H2128 0.930 . S
C2134 C2135 1.355 . S
C2134 C2136 1.415 . S
C2135 C2134 1.355 . S
C2135 C2137 1.419 . S
C2136 C2134 1.415 . S
C2136 C2141 1.425 . S
C2136 C2143 1.409 . S
C2137 H2129 0.930 . S
C2137 C2135 1.419 . S
C2137 C2138 1.362 . S
C2138 H2130 0.930 . S
C2138 C2137 1.362 . S
C2138 C2141 1.409 . S
C2139 H2131 0.930 . S
C2139 C2140 1.355 . S
C2139 C2141 1.415 . S
C2140 C2139 1.355 . S
C2140 C2142 1.419 . S
C2141 C2136 1.425 . S
C2141 C2138 1.409 . S
C2141 C2139 1.415 . S
C2142 H2132 0.930 . S
C2142 C2140 1.419 . S
C2142 C2143 1.362 . S
C2143 H2133 0.930 . S
C2143 C2136 1.409 . S
C2143 C2142 1.362 . S
H2144 C2150 0.930 . S
H2145 C2153 0.930 . S
H2146 C2154 0.930 . S
H2147 C2155 0.930 . S
H2148 C2158 0.930 . S
H2149 C2159 0.930 . S
C2150 H2144 0.930 . S
C2150 C2151 1.355 . S
C2150 C2152 1.415 . S
C2151 C2150 1.355 . S
C2151 C2153 1.419 . S
C2152 C2150 1.415 . S
C2152 C2157 1.425 . S
C2152 C2159 1.409 . S
C2153 H2145 0.930 . S
C2153 C2151 1.419 . S
C2153 C2154 1.362 . S
C2154 H2146 0.930 . S
C2154 C2153 1.362 . S
C2154 C2157 1.409 . S
C2155 H2147 0.930 . S
C2155 C2156 1.355 . S
C2155 C2157 1.415 . S
C2156 C2155 1.355 . S
C2156 C2158 1.419 . S
C2157 C2152 1.425 . S
C2157 C2154 1.409 . S
C2157 C2155 1.415 . S
C2158 H2148 0.930 . S
C2158 C2156 1.419 . S
C2158 C2159 1.362 . S
C2159 H2149 0.930 . S
C2159 C2152 1.409 . S
C2159 C2158 1.362 . S
H2160 C2166 0.930 . S
H2161 C2169 0.930 . S
H2162 C2170 0.930 . S
H2163 C2171 0.930 . S
H2164 C2174 0.930 . S
H2165 C2175 0.930 . S
C2166 H2160 0.930 . S
C2166 C2167 1.355 . S
C2166 C2168 1.415 . S
C2167 C2166 1.355 . S
C2167 C2169 1.419 . S
C2168 C2166 1.415 . S
C2168 C2173 1.425 . S
C2168 C2175 1.409 . S
C2169 H2161 0.930 . S
C2169 C2167 1.419 . S
C2169 C2170 1.362 . S
C2170 H2162 0.930 . S
C2170 C2169 1.362 . S
C2170 C2173 1.409 . S
C2171 H2163 0.930 . S
C2171 C2172 1.355 . S
C2171 C2173 1.415 . S
C2172 C2171 1.355 . S
C2172 C2174 1.419 . S
C2173 C2168 1.425 . S
C2173 C2170 1.409 . S
C2173 C2171 1.415 . S
C2174 H2164 0.930 . S
C2174 C2172 1.419 . S
C2174 C2175 1.362 . S
C2175 H2165 0.930 . S
C2175 C2168 1.409 . S
C2175 C2174 1.362 . S
H2176 C2182 0.930 . S
H2177 C2185 0.930 . S
H2178 C2186 0.930 . S
H2179 C2187 0.930 . S
H2180 C2190 0.930 . S
H2181 C2191 0.930 . S
C2182 H2176 0.930 . S
C2182 C2183 1.355 . S
C2182 C2184 1.415 . S
C2183 C2182 1.355 . S
C2183 C2185 1.419 . S
C2184 C2182 1.415 . S
C2184 C2189 1.425 . S
C2184 C2191 1.409 . S
C2185 H2177 0.930 . S
C2185 C2183 1.419 . S
C2185 C2186 1.362 . S
C2186 H2178 0.930 . S
C2186 C2185 1.362 . S
C2186 C2189 1.409 . S
C2187 H2179 0.930 . S
C2187 C2188 1.355 . S
C2187 C2189 1.415 . S
C2188 C2187 1.355 . S
C2188 C2190 1.419 . S
C2189 C2184 1.425 . S
C2189 C2186 1.409 . S
C2189 C2187 1.415 . S
C2190 H2180 0.930 . S
C2190 C2188 1.419 . S
C2190 C2191 1.362 . S
C2191 H2181 0.930 . S
C2191 C2184 1.409 . S
C2191 C2190 1.362 . S
H2192 C2198 0.930 . S
H2193 C2201 0.930 . S
H2194 C2202 0.930 . S
H2195 C2203 0.930 . S
H2196 C2206 0.930 . S
H2197 C2207 0.930 . S
C2198 H2192 0.930 . S
C2198 C2199 1.355 . S
C2198 C2200 1.415 . S
C2199 C2198 1.355 . S
C2199 C2201 1.419 . S
C2200 C2198 1.415 . S
C2200 C2205 1.425 . S
C2200 C2207 1.409 . S
C2201 H2193 0.930 . S
C2201 C2199 1.419 . S
C2201 C2202 1.362 . S
C2202 H2194 0.930 . S
C2202 C2201 1.362 . S
C2202 C2205 1.409 . S
C2203 H2195 0.930 . S
C2203 C2204 1.355 . S
C2203 C2205 1.415 . S
C2204 C2203 1.355 . S
C2204 C2206 1.419 . S
C2205 C2200 1.425 . S
C2205 C2202 1.409 . S
C2205 C2203 1.415 . S
C2206 H2196 0.930 . S
C2206 C2204 1.419 . S
C2206 C2207 1.362 . S
C2207 H2197 0.930 . S
C2207 C2200 1.409 . S
C2207 C2206 1.362 . S
H2208 C2214 0.930 . S
H2209 C2217 0.930 . S
H2210 C2218 0.930 . S
H2211 C2219 0.930 . S
H2212 C2222 0.930 . S
H2213 C2223 0.930 . S
C2214 H2208 0.930 . S
C2214 C2215 1.355 . S
C2214 C2216 1.415 . S
C2215 C2214 1.355 . S
C2215 C2217 1.419 . S
C2216 C2214 1.415 . S
C2216 C2221 1.425 . S
C2216 C2223 1.409 . S
C2217 H2209 0.930 . S
C2217 C2215 1.419 . S
C2217 C2218 1.362 . S
C2218 H2210 0.930 . S
C2218 C2217 1.362 . S
C2218 C2221 1.409 . S
C2219 H2211 0.930 . S
C2219 C2220 1.355 . S
C2219 C2221 1.415 . S
C2220 C2219 1.355 . S
C2220 C2222 1.419 . S
C2221 C2216 1.425 . S
C2221 C2218 1.409 . S
C2221 C2219 1.415 . S
C2222 H2212 0.930 . S
C2222 C2220 1.419 . S
C2222 C2223 1.362 . S
C2223 H2213 0.930 . S
C2223 C2216 1.409 . S
C2223 C2222 1.362 . S
H2224 C2230 0.930 . S
H2225 C2233 0.930 . S
H2226 C2234 0.930 . S
H2227 C2235 0.930 . S
H2228 C2238 0.930 . S
H2229 C2239 0.930 . S
C2230 H2224 0.930 . S
C2230 C2231 1.355 . S
C2230 C2232 1.415 . S
C2231 C2230 1.355 . S
C2231 C2233 1.419 . S
C2232 C2230 1.415 . S
C2232 C2237 1.425 . S
C2232 C2239 1.409 . S
C2233 H2225 0.930 . S
C2233 C2231 1.419 . S
C2233 C2234 1.362 . S
C2234 H2226 0.930 . S
C2234 C2233 1.362 . S
C2234 C2237 1.409 . S
C2235 H2227 0.930 . S
C2235 C2236 1.355 . S
C2235 C2237 1.415 . S
C2236 C2235 1.355 . S
C2236 C2238 1.419 . S
C2237 C2232 1.425 . S
C2237 C2234 1.409 . S
C2237 C2235 1.415 . S
C2238 H2228 0.930 . S
C2238 C2236 1.419 . S
C2238 C2239 1.362 . S
C2239 H2229 0.930 . S
C2239 C2232 1.409 . S
C2239 C2238 1.362 . S
H2240 C2246 0.930 . S
H2241 C2249 0.930 . S
H2242 C2250 0.930 . S
H2243 C2251 0.930 . S
H2244 C2254 0.930 . S
H2245 C2255 0.930 . S
C2246 H2240 0.930 . S
C2246 C2247 1.355 . S
C2246 C2248 1.415 . S
C2247 C2246 1.355 . S
C2247 C2249 1.419 . S
C2248 C2246 1.415 . S
C2248 C2253 1.425 . S
C2248 C2255 1.409 . S
C2249 H2241 0.930 . S
C2249 C2247 1.419 . S
C2249 C2250 1.362 . S
C2250 H2242 0.930 . S
C2250 C2249 1.362 . S
C2250 C2253 1.409 . S
C2251 H2243 0.930 . S
C2251 C2252 1.355 . S
C2251 C2253 1.415 . S
C2252 C2251 1.355 . S
C2252 C2254 1.419 . S
C2253 C2248 1.425 . S
C2253 C2250 1.409 . S
C2253 C2251 1.415 . S
C2254 H2244 0.930 . S
C2254 C2252 1.419 . S
C2254 C2255 1.362 . S
C2255 H2245 0.930 . S
C2255 C2248 1.409 . S
C2255 C2254 1.362 . S
H2256 C2262 0.930 . S
H2257 C2265 0.930 . S
H2258 C2266 0.930 . S
H2259 C2267 0.930 . S
H2260 C2270 0.930 . S
H2261 C2271 0.930 . S
C2262 H2256 0.930 . S
C2262 C2263 1.355 . S
C2262 C2264 1.415 . S
C2263 C2262 1.355 . S
C2263 C2265 1.419 . S
C2264 C2262 1.415 . S
C2264 C2269 1.425 . S
C2264 C2271 1.409 . S
C2265 H2257 0.930 . S
C2265 C2263 1.419 . S
C2265 C2266 1.362 . S
C2266 H2258 0.930 . S
C2266 C2265 1.362 . S
C2266 C2269 1.409 . S
C2267 H2259 0.930 . S
C2267 C2268 1.355 . S
C2267 C2269 1.415 . S
C2268 C2267 1.355 . S
C2268 C2270 1.419 . S
C2269 C2264 1.425 . S
C2269 C2266 1.409 . S
C2269 C2267 1.415 . S
C2270 H2260 0.930 . S
C2270 C2268 1.419 . S
C2270 C2271 1.362 . S
C2271 H2261 0.930 . S
C2271 C2264 1.409 . S
C2271 C2270 1.362 . S
H2272 C2278 0.930 . S
H2273 C2281 0.930 . S
H2274 C2282 0.930 . S
H2275 C2283 0.930 . S
H2276 C2286 0.930 . S
H2277 C2287 0.930 . S
C2278 H2272 0.930 . S
C2278 C2279 1.355 . S
C2278 C2280 1.415 . S
C2279 C2278 1.355 . S
C2279 C2281 1.419 . S
C2280 C2278 1.415 . S
C2280 C2285 1.425 . S
C2280 C2287 1.409 . S
C2281 H2273 0.930 . S
C2281 C2279 1.419 . S
C2281 C2282 1.362 . S
C2282 H2274 0.930 . S
C2282 C2281 1.362 . S
C2282 C2285 1.409 . S
C2283 H2275 0.930 . S
C2283 C2284 1.355 . S
C2283 C2285 1.415 . S
C2284 C2283 1.355 . S
C2284 C2286 1.419 . S
C2285 C2280 1.425 . S
C2285 C2282 1.409 . S
C2285 C2283 1.415 . S
C2286 H2276 0.930 . S
C2286 C2284 1.419 . S
C2286 C2287 1.362 . S
C2287 H2277 0.930 . S
C2287 C2280 1.409 . S
C2287 C2286 1.362 . S
H2288 C2294 0.930 . S
H2289 C2297 0.930 . S
H2290 C2298 0.930 . S
H2291 C2299 0.930 1_554 S
H2292 C2302 0.930 . S
H2293 C2303 0.930 . S
C2294 H2288 0.930 . S
C2294 C2295 1.355 . S
C2294 C2296 1.415 . S
C2295 C2294 1.355 . S
C2295 C2297 1.419 . S
C2296 C2294 1.415 . S
C2296 C2301 1.425 . S
C2296 C2303 1.409 . S
C2297 H2289 0.930 . S
C2297 C2295 1.419 . S
C2297 C2298 1.362 . S
C2298 H2290 0.930 . S
C2298 C2297 1.362 . S
C2298 C2301 1.409 . S
C2299 H2291 0.930 1_556 S
C2299 C2300 1.352 1_556 S
C2299 C2301 1.415 . S
C2300 C2299 1.352 1_554 S
C2300 C2302 1.420 1_654 S
C2301 C2296 1.425 . S
C2301 C2298 1.409 . S
C2301 C2299 1.415 . S
C2302 H2292 0.930 . S
C2302 C2300 1.420 1_456 S
C2302 C2303 1.362 1_455 S
C2303 H2293 0.930 . S
C2303 C2296 1.409 . S
C2303 C2302 1.362 1_655 S
H2304 C2310 0.930 . S
H2305 C2313 0.930 . S
H2306 C2314 0.930 . S
H2307 C2315 0.930 . S
H2308 C2318 0.930 . S
H2309 C2319 0.930 . S
C2310 H2304 0.930 . S
C2310 C2311 1.355 . S
C2310 C2312 1.415 . S
C2311 C2310 1.355 . S
C2311 C2313 1.419 . S
C2312 C2310 1.415 . S
C2312 C2317 1.425 . S
C2312 C2319 1.409 . S
C2313 H2305 0.930 . S
C2313 C2311 1.419 . S
C2313 C2314 1.362 . S
C2314 H2306 0.930 . S
C2314 C2313 1.362 . S
C2314 C2317 1.409 . S
C2315 H2307 0.930 . S
C2315 C2316 1.355 . S
C2315 C2317 1.415 . S
C2316 C2315 1.355 . S
C2316 C2318 1.419 . S
C2317 C2312 1.425 . S
C2317 C2314 1.409 . S
C2317 C2315 1.415 . S
C2318 H2308 0.930 . S
C2318 C2316 1.419 . S
C2318 C2319 1.362 . S
C2319 H2309 0.930 . S
C2319 C2312 1.409 . S
C2319 C2318 1.362 . S
H2320 C2326 0.930 . S
H2321 C2329 0.930 . S
H2322 C2330 0.930 . S
H2323 C2331 0.930 . S
H2324 C2334 0.930 . S
H2325 C2335 0.930 . S
C2326 H2320 0.930 . S
C2326 C2327 1.355 . S
C2326 C2328 1.415 . S
C2327 C2326 1.355 . S
C2327 C2329 1.419 . S
C2328 C2326 1.415 . S
C2328 C2333 1.425 . S
C2328 C2335 1.409 . S
C2329 H2321 0.930 . S
C2329 C2327 1.419 . S
C2329 C2330 1.362 . S
C2330 H2322 0.930 . S
C2330 C2329 1.362 . S
C2330 C2333 1.409 . S
C2331 H2323 0.930 . S
C2331 C2332 1.355 . S
C2331 C2333 1.415 . S
C2332 C2331 1.355 . S
C2332 C2334 1.419 . S
C2333 C2328 1.425 . S
C2333 C2330 1.409 . S
C2333 C2331 1.415 . S
C2334 H2324 0.930 . S
C2334 C2332 1.419 . S
C2334 C2335 1.362 . S
C2335 H2325 0.930 . S
C2335 C2328 1.409 . S
C2335 C2334 1.362 . S
H2336 C2342 0.930 . S
H2337 C2345 0.930 . S
H2338 C2346 0.930 . S
H2339 C2347 0.930 . S
H2340 C2350 0.930 . S
H2341 C2351 0.930 . S
C2342 H2336 0.930 . S
C2342 C2343 1.355 . S
C2342 C2344 1.415 . S
C2343 C2342 1.355 . S
C2343 C2345 1.419 . S
C2344 C2342 1.415 . S
C2344 C2349 1.425 . S
C2344 C2351 1.409 . S
C2345 H2337 0.930 . S
C2345 C2343 1.419 . S
C2345 C2346 1.362 . S
C2346 H2338 0.930 . S
C2346 C2345 1.362 . S
C2346 C2349 1.409 . S
C2347 H2339 0.930 . S
C2347 C2348 1.355 . S
C2347 C2349 1.415 . S
C2348 C2347 1.355 . S
C2348 C2350 1.419 . S
C2349 C2344 1.425 . S
C2349 C2346 1.409 . S
C2349 C2347 1.415 . S
C2350 H2340 0.930 . S
C2350 C2348 1.419 . S
C2350 C2351 1.362 . S
C2351 H2341 0.930 . S
C2351 C2344 1.409 . S
C2351 C2350 1.362 . S
H2352 C2358 0.930 . S
H2353 C2361 0.930 . S
H2354 C2362 0.930 . S
H2355 C2363 0.930 . S
H2356 C2366 0.930 . S
H2357 C2367 0.930 . S
C2358 H2352 0.930 . S
C2358 C2359 1.355 . S
C2358 C2360 1.415 . S
C2359 C2358 1.355 . S
C2359 C2361 1.419 . S
C2360 C2358 1.415 . S
C2360 C2365 1.425 . S
C2360 C2367 1.409 . S
C2361 H2353 0.930 . S
C2361 C2359 1.419 . S
C2361 C2362 1.362 . S
C2362 H2354 0.930 . S
C2362 C2361 1.362 . S
C2362 C2365 1.409 . S
C2363 H2355 0.930 . S
C2363 C2364 1.355 . S
C2363 C2365 1.415 . S
C2364 C2363 1.355 . S
C2364 C2366 1.419 . S
C2365 C2360 1.425 . S
C2365 C2362 1.409 . S
C2365 C2363 1.415 . S
C2366 H2356 0.930 . S
C2366 C2364 1.419 . S
C2366 C2367 1.362 . S
C2367 H2357 0.930 . S
C2367 C2360 1.409 . S
C2367 C2366 1.362 . S
H2368 C2374 0.930 . S
H2369 C2377 0.930 . S
H2370 C2378 0.930 . S
H2371 C2379 0.930 . S
H2372 C2382 0.930 . S
H2373 C2383 0.930 . S
C2374 H2368 0.930 . S
C2374 C2375 1.355 . S
C2374 C2376 1.415 . S
C2375 C2374 1.355 . S
C2375 C2377 1.419 . S
C2376 C2374 1.415 . S
C2376 C2381 1.425 . S
C2376 C2383 1.409 . S
C2377 H2369 0.930 . S
C2377 C2375 1.419 . S
C2377 C2378 1.362 . S
C2378 H2370 0.930 . S
C2378 C2377 1.362 . S
C2378 C2381 1.409 . S
C2379 H2371 0.930 . S
C2379 C2380 1.355 . S
C2379 C2381 1.415 . S
C2380 C2379 1.355 . S
C2380 C2382 1.419 . S
C2381 C2376 1.425 . S
C2381 C2378 1.409 . S
C2381 C2379 1.415 . S
C2382 H2372 0.930 . S
C2382 C2380 1.419 . S
C2382 C2383 1.362 . S
C2383 H2373 0.930 . S
C2383 C2376 1.409 . S
C2383 C2382 1.362 . S
H2384 C2390 0.930 . S
H2385 C2393 0.930 . S
H2386 C2394 0.930 . S
H2387 C2395 0.930 . S
H2388 C2398 0.930 . S
H2389 C2399 0.930 . S
C2390 H2384 0.930 . S
C2390 C2391 1.355 . S
C2390 C2392 1.415 . S
C2391 C2390 1.355 . S
C2391 C2393 1.419 . S
C2392 C2390 1.415 . S
C2392 C2397 1.425 . S
C2392 C2399 1.409 . S
C2393 H2385 0.930 . S
C2393 C2391 1.419 . S
C2393 C2394 1.362 . S
C2394 H2386 0.930 . S
C2394 C2393 1.362 . S
C2394 C2397 1.409 . S
C2395 H2387 0.930 . S
C2395 C2396 1.355 . S
C2395 C2397 1.415 . S
C2396 C2395 1.355 . S
C2396 C2398 1.419 . S
C2397 C2392 1.425 . S
C2397 C2394 1.409 . S
C2397 C2395 1.415 . S
C2398 H2388 0.930 . S
C2398 C2396 1.419 . S
C2398 C2399 1.362 . S
C2399 H2389 0.930 . S
C2399 C2392 1.409 . S
C2399 C2398 1.362 . S
H2400 C2406 0.930 . S
H2401 C2409 0.930 . S
H2402 C2410 0.930 . S
H2403 C2411 0.930 . S
H2404 C2414 0.930 . S
H2405 C2415 0.930 . S
C2406 H2400 0.930 . S
C2406 C2407 1.355 . S
C2406 C2408 1.415 . S
C2407 C2406 1.355 . S
C2407 C2409 1.419 . S
C2408 C2406 1.415 . S
C2408 C2413 1.425 . S
C2408 C2415 1.409 . S
C2409 H2401 0.930 . S
C2409 C2407 1.419 . S
C2409 C2410 1.362 . S
C2410 H2402 0.930 . S
C2410 C2409 1.362 . S
C2410 C2413 1.409 . S
C2411 H2403 0.930 . S
C2411 C2412 1.355 1_565 S
C2411 C2413 1.415 . S
C2412 C2411 1.355 1_545 S
C2412 C2414 1.419 . S
C2413 C2408 1.425 . S
C2413 C2410 1.409 . S
C2413 C2411 1.415 . S
C2414 H2404 0.930 . S
C2414 C2412 1.419 . S
C2414 C2415 1.362 1_545 S
C2415 H2405 0.930 . S
C2415 C2408 1.409 . S
C2415 C2414 1.362 1_565 S
H2416 C2422 0.930 . S
H2417 C2425 0.930 . S
H2418 C2426 0.930 . S
H2419 C2427 0.930 . S
H2420 C2430 0.930 . S
H2421 C2431 0.930 . S
C2422 H2416 0.930 . S
C2422 C2423 1.355 . S
C2422 C2424 1.415 . S
C2423 C2422 1.355 . S
C2423 C2425 1.419 . S
C2424 C2422 1.415 . S
C2424 C2429 1.425 . S
C2424 C2431 1.409 . S
C2425 H2417 0.930 . S
C2425 C2423 1.419 . S
C2425 C2426 1.362 . S
C2426 H2418 0.930 . S
C2426 C2425 1.362 . S
C2426 C2429 1.409 . S
C2427 H2419 0.930 . S
C2427 C2428 1.355 . S
C2427 C2429 1.415 . S
C2428 C2427 1.355 . S
C2428 C2430 1.419 . S
C2429 C2424 1.425 . S
C2429 C2426 1.409 . S
C2429 C2427 1.415 . S
C2430 H2420 0.930 . S
C2430 C2428 1.419 . S
C2430 C2431 1.362 . S
C2431 H2421 0.930 . S
C2431 C2424 1.409 . S
C2431 C2430 1.362 . S
H2432 C2438 0.930 . S
H2433 C2441 0.930 . S
H2434 C2442 0.930 . S
H2435 C2443 0.930 . S
H2436 C2446 0.930 . S
H2437 C2447 0.930 . S
C2438 H2432 0.930 . S
C2438 C2439 1.355 . S
C2438 C2440 1.415 . S
C2439 C2438 1.355 . S
C2439 C2441 1.419 . S
C2440 C2438 1.415 . S
C2440 C2445 1.425 . S
C2440 C2447 1.409 . S
C2441 H2433 0.930 . S
C2441 C2439 1.419 . S
C2441 C2442 1.362 . S
C2442 H2434 0.930 . S
C2442 C2441 1.362 . S
C2442 C2445 1.409 . S
C2443 H2435 0.930 . S
C2443 C2444 1.355 . S
C2443 C2445 1.415 . S
C2444 C2443 1.355 . S
C2444 C2446 1.419 . S
C2445 C2440 1.425 . S
C2445 C2442 1.409 . S
C2445 C2443 1.415 . S
C2446 H2436 0.930 . S
C2446 C2444 1.419 . S
C2446 C2447 1.362 . S
C2447 H2437 0.930 . S
C2447 C2440 1.409 . S
C2447 C2446 1.362 . S
H2448 C2454 0.930 . S
H2449 C2457 0.930 . S
H2450 C2458 0.930 . S
H2451 C2459 0.930 . S
H2452 C2462 0.930 . S
H2453 C2463 0.930 . S
C2454 H2448 0.930 . S
C2454 C2455 1.355 . S
C2454 C2456 1.415 . S
C2455 C2454 1.355 . S
C2455 C2457 1.419 . S
C2456 C2454 1.415 . S
C2456 C2461 1.425 . S
C2456 C2463 1.409 . S
C2457 H2449 0.930 . S
C2457 C2455 1.419 . S
C2457 C2458 1.362 . S
C2458 H2450 0.930 . S
C2458 C2457 1.362 . S
C2458 C2461 1.409 . S
C2459 H2451 0.930 . S
C2459 C2460 1.355 . S
C2459 C2461 1.415 . S
C2460 C2459 1.355 . S
C2460 C2462 1.419 . S
C2461 C2456 1.425 . S
C2461 C2458 1.409 . S
C2461 C2459 1.415 . S
C2462 H2452 0.930 . S
C2462 C2460 1.419 . S
C2462 C2463 1.362 . S
C2463 H2453 0.930 . S
C2463 C2456 1.409 . S
C2463 C2462 1.362 . S
H2464 C2470 0.930 . S
H2465 C2473 0.930 . S
H2466 C2474 0.930 . S
H2467 C2475 0.930 . S
H2468 C2478 0.930 . S
H2469 C2479 0.930 . S
C2470 H2464 0.930 . S
C2470 C2471 1.355 . S
C2470 C2472 1.415 . S
C2471 C2470 1.355 . S
C2471 C2473 1.419 . S
C2472 C2470 1.415 . S
C2472 C2477 1.425 . S
C2472 C2479 1.409 . S
C2473 H2465 0.930 . S
C2473 C2471 1.419 . S
C2473 C2474 1.362 . S
C2474 H2466 0.930 . S
C2474 C2473 1.362 . S
C2474 C2477 1.409 . S
C2475 H2467 0.930 . S
C2475 C2476 1.355 . S
C2475 C2477 1.415 . S
C2476 C2475 1.355 . S
C2476 C2478 1.419 . S
C2477 C2472 1.425 . S
C2477 C2474 1.409 . S
C2477 C2475 1.415 . S
C2478 H2468 0.930 . S
C2478 C2476 1.419 . S
C2478 C2479 1.362 . S
C2479 H2469 0.930 . S
C2479 C2472 1.409 . S
C2479 C2478 1.362 . S
H2480 C2486 0.930 . S
H2481 C2489 0.930 . S
H2482 C2490 0.930 . S
H2483 C2491 0.930 . S
H2484 C2494 0.930 . S
H2485 C2495 0.930 . S
C2486 H2480 0.930 . S
C2486 C2487 1.355 . S
C2486 C2488 1.415 . S
C2487 C2486 1.355 . S
C2487 C2489 1.419 . S
C2488 C2486 1.415 . S
C2488 C2493 1.425 . S
C2488 C2495 1.409 . S
C2489 H2481 0.930 . S
C2489 C2487 1.419 . S
C2489 C2490 1.362 . S
C2490 H2482 0.930 . S
C2490 C2489 1.362 . S
C2490 C2493 1.409 . S
C2491 H2483 0.930 . S
C2491 C2492 1.355 . S
C2491 C2493 1.415 . S
C2492 C2491 1.355 . S
C2492 C2494 1.419 . S
C2493 C2488 1.425 . S
C2493 C2490 1.409 . S
C2493 C2491 1.415 . S
C2494 H2484 0.930 . S
C2494 C2492 1.419 . S
C2494 C2495 1.362 . S
C2495 H2485 0.930 . S
C2495 C2488 1.409 . S
C2495 C2494 1.362 . S
H2496 C2502 0.930 . S
H2497 C2505 0.930 . S
H2498 C2506 0.930 . S
H2499 C2507 0.930 . S
H2500 C2510 0.930 . S
H2501 C2511 0.930 . S
C2502 H2496 0.930 . S
C2502 C2503 1.355 . S
C2502 C2504 1.415 . S
C2503 C2502 1.355 . S
C2503 C2505 1.419 . S
C2504 C2502 1.415 . S
C2504 C2509 1.425 . S
C2504 C2511 1.409 . S
C2505 H2497 0.930 . S
C2505 C2503 1.419 . S
C2505 C2506 1.362 . S
C2506 H2498 0.930 . S
C2506 C2505 1.362 . S
C2506 C2509 1.409 . S
C2507 H2499 0.930 . S
C2507 C2508 1.355 . S
C2507 C2509 1.415 . S
C2508 C2507 1.355 . S
C2508 C2510 1.419 . S
C2509 C2504 1.425 . S
C2509 C2506 1.409 . S
C2509 C2507 1.415 . S
C2510 H2500 0.930 . S
C2510 C2508 1.419 . S
C2510 C2511 1.362 . S
C2511 H2501 0.930 . S
C2511 C2504 1.409 . S
C2511 C2510 1.362 . S
C983 C106 2.548 1_554 S
C988 C349 2.581 . S
C999 C65 2.082 . S
C1004 C400 2.054 . S
C1015 C79 1.944 . S
C1020 C429 1.915 . S
C1036 C473 1.222 . S
C1031 C90 1.219 . S
C1047 C21 1.150 . S
C1052 C513 1.140 . S
C1068 C549 1.588 . S
C1063 C35 1.617 . S
C1084 C599 1.981 . S
C1079 C50 1.967 . S
C1095 C6 2.332 . S
C1100 C629 2.339 . S
C1116 C359 2.165 . S
C1111 C232 2.161 . S
C1127 C245 0.763 . S
C1132 C402 0.762 . S
C1148 C439 1.330 . S
C1143 C274 1.334 . S
C1164 C469 1.470 . S
C1159 C175 1.466 . S
C1175 C231 1.335 . S
C1180 C509 1.320 . S
C1196 C559 0.882 . S
C1191 C246 0.898 . S
C1212 C593 0.813 . S
C1207 C273 0.755 . S
C1228 C639 2.093 . S
C1223 C176 2.087 . S
C1244 C353 1.327 . S
C1239 C160 1.319 . S
C1255 C289 1.727 . S
C1260 C679 1.741 . S
C1276 C713 1.533 . S
C1271 C328 1.489 . S
C1292 C749 1.064 . S
C1287 C317 1.115 . S
C1303 C118 1.551 . S
C1308 C633 1.543 . S
C1319 C132 1.521 . S
C1324 C433 1.532 . S
C1335 C331 1.699 . S
C1340 C799 1.707 . S
C1356 C818 0.477 . S
C1351 C303 0.534 . S
C1372 C360 2.256 1_565 S
C1367 C63 2.260 . S
C1388 C829 2.524 . S
C1383 C107 2.467 . S
C1399 C92 1.791 . S
C1404 C440 1.860 . S
C1415 C78 1.736 . S
C1420 C802 1.659 . S
C1436 C522 1.597 . S
C1431 C8 1.609 . S
C1447 C51 1.815 . S
C1452 C720 1.860 . S
C1468 C578 2.390 1_565 S
C1463 C37 2.268 . S
C1484 C880 2.376 . S
C1479 C20 2.387 . S
C1500 C338 1.982 1_556 S
C1495 C147 2.014 . S
C1516 C833 0.880 . S
C1511 C316 0.846 . S
C1527 C119 1.281 . S
C1532 C418 1.367 . S
C1543 C288 1.581 . S
C1548 C800 1.624 . S
C1559 C148 1.679 . S
C1564 C520 1.648 . S
C1580 C698 1.011 . S
C1575 C315 0.917 . S
C1591 C120 1.089 . S
C1596 C602 0.997 . S
C1607 C287 2.005 . S
C1612 C858 1.974 . S
C1623 C188 1.178 . S
C1628 C362 1.135 . S
C1639 C177 2.021 . S
C1644 C658 2.041 . S
C1655 C258 1.467 . S
C1660 C562 1.495 . S
C1671 C247 1.088 . S
C1676 C760 1.065 . S
C1692 C882 1.400 . S
C1687 C272 1.451 . S
C1703 C216 1.455 . S
C1708 C442 1.416 . S
C1724 C458 1.969 . S
C1719 C261 1.952 . S
C1740 C399 0.569 . S
C1735 C205 0.537 . S
C1751 C76 2.173 . S
C1756 C909 2.171 . S
C1772 C840 2.134 . S
C1767 C93 2.169 . S
C1783 C105 1.621 . S
C1788 C949 1.608 . S
C1799 C62 1.229 1_655 S
C1804 C793 1.280 . S
C1815 C49 1.192 . S
C1820 C673 1.206 . S
C1836 C709 1.996 . S
C1831 C9 2.008 . S
C1852 C759 1.898 . S
C1847 C22 1.903 . S
C1868 C869 2.731 . S
C1863 C36 2.691 . S
C1884 C919 2.123 . S
C1879 C260 2.116 . S
C1895 C189 0.606 . S
C1900 C842 0.604 . S
C1916 C959 1.305 . S
C1911 C204 1.291 . S
C1932 C789 1.264 . S
C1927 C217 1.263 . S
C1948 C669 1.499 1_556 S
C1943 C259 1.506 . S
C1959 C190 0.932 . S
C1964 C719 0.921 . S
C1980 C753 0.966 . S
C1975 C203 0.957 . S
C1991 C218 2.152 . S
C1996 C879 2.156 . S
C2012 C913 1.445 . S
C2007 C314 1.449 . S
C2023 C135 1.791 . S
C2028 C519 1.780 . S
C2044 C553 1.522 . S
C2039 C146 1.476 1_565 S
C2060 C589 1.108 . S
C2055 C163 1.147 . S
C2076 C873 1.518 . S
C2071 C300 1.523 . S
C2087 C286 1.606 . S
C2092 C953 1.636 . S
C2108 C479 1.652 . S
C2103 C149 1.638 . S
C2124 C378 0.436 . S
C2119 C121 0.465 . S
C2135 C91 2.267 . S
C2140 C920 2.271 . S
C2156 C389 2.144 . S
C2151 C77 2.033 . S
C2167 C64 1.815 . S
C2172 C960 1.840 . S
C2183 C104 1.450 . S
C2188 C482 1.458 . S
C2199 C34 1.279 . S
C2204 C682 1.273 . S
C2220 C560 1.846 . S
C2215 C23 1.788 . S
C2231 C7 1.812 . S
C2236 C738 1.965 . S
C2247 C48 2.374 . S
C2252 C640 2.365 . S
C2268 C898 1.977 . S
C2263 C329 1.961 . S
C2279 C162 0.869 . S
C2284 C393 0.904 . S
C2300 C938 1.335 1_655 S
C2295 C301 1.269 . S
C2311 C134 1.583 . S
C2316 C480 1.636 . S
C2327 C330 1.671 . S
C2332 C680 1.670 . S
C2348 C538 0.941 . S
C2343 C161 0.991 . S
C2359 C302 1.088 . S
C2364 C762 0.994 . S
C2380 C618 1.943 . S
C2375 C133 1.980 . S
C2396 C922 1.329 . S
C2391 C244 1.367 . S
C2412 C498 2.012 . S
C2407 C219 1.980 . S
C2423 C230 1.324 . S
C2428 C722 1.348 . S
C2444 C600 1.034 . S
C2439 C191 1.093 . S
C2455 C202 1.553 . S
C2460 C642 1.505 . S
C2471 C174 1.547 . S
C2476 C962 1.540 . S
C2492 C778 1.943 . S
C2487 C233 1.897 . S
C2508 C839 0.564 . S
C2503 C275 0.510 . S
