# Generated by pormake.
# Topology gar, (4,6)-cn, num edge types: 1
# Building blocks:
#     Node 0, Type 0, BuildingBlock: KUFVIS_clean_sbu_0, # of connection points: 4
#     Node 1, Type 0, BuildingBlock: KUFVIS_clean_sbu_0, # of connection points: 4
#     Node 2, Type 0, BuildingBlock: KUFVIS_clean_sbu_0, # of connection points: 4
#     Node 3, Type 0, BuildingBlock: KUFVIS_clean_sbu_0, # of connection points: 4
#     Node 4, Type 0, BuildingBlock: KUFVIS_clean_sbu_0, # of connection points: 4
#     Node 5, Type 0, BuildingBlock: KUFVIS_clean_sbu_0, # of connection points: 4
#     Node 6, Type 0, BuildingBlock: KUFVIS_clean_sbu_0, # of connection points: 4
#     Node 7, Type 0, BuildingBlock: KUFVIS_clean_sbu_0, # of connection points: 4
#     Node 8, Type 0, BuildingBlock: KUFVIS_clean_sbu_0, # of connection points: 4
#     Node 9, Type 0, BuildingBlock: KUFVIS_clean_sbu_0, # of connection points: 4
#     Node 10, Type 0, BuildingBlock: KUFVIS_clean_sbu_0, # of connection points: 4
#     Node 11, Type 0, BuildingBlock: KUFVIS_clean_sbu_0, # of connection points: 4
#     Node 12, Type 0, BuildingBlock: KUFVIS_clean_sbu_0, # of connection points: 4
#     Node 13, Type 0, BuildingBlock: KUFVIS_clean_sbu_0, # of connection points: 4
#     Node 14, Type 0, BuildingBlock: KUFVIS_clean_sbu_0, # of connection points: 4
#     Node 15, Type 0, BuildingBlock: KUFVIS_clean_sbu_0, # of connection points: 4
#     Node 16, Type 0, BuildingBlock: KUFVIS_clean_sbu_0, # of connection points: 4
#     Node 17, Type 0, BuildingBlock: KUFVIS_clean_sbu_0, # of connection points: 4
#     Node 18, Type 0, BuildingBlock: KUFVIS_clean_sbu_0, # of connection points: 4
#     Node 19, Type 0, BuildingBlock: KUFVIS_clean_sbu_0, # of connection points: 4
#     Node 20, Type 0, BuildingBlock: KUFVIS_clean_sbu_0, # of connection points: 4
#     Node 21, Type 0, BuildingBlock: KUFVIS_clean_sbu_0, # of connection points: 4
#     Node 22, Type 0, BuildingBlock: KUFVIS_clean_sbu_0, # of connection points: 4
#     Node 23, Type 0, BuildingBlock: KUFVIS_clean_sbu_0, # of connection points: 4
#     Node 24, Type 1, BuildingBlock: KUMBUR_clean_sbu_0, # of connection points: 6
#     Node 25, Type 1, BuildingBlock: KUMBUR_clean_sbu_0, # of connection points: 6
#     Node 26, Type 1, BuildingBlock: KUMBUR_clean_sbu_0, # of connection points: 6
#     Node 27, Type 1, BuildingBlock: KUMBUR_clean_sbu_0, # of connection points: 6
#     Node 28, Type 1, BuildingBlock: KUMBUR_clean_sbu_0, # of connection points: 6
#     Node 29, Type 1, BuildingBlock: KUMBUR_clean_sbu_0, # of connection points: 6
#     Node 30, Type 1, BuildingBlock: KUMBUR_clean_sbu_0, # of connection points: 6
#     Node 31, Type 1, BuildingBlock: KUMBUR_clean_sbu_0, # of connection points: 6
#     Node 32, Type 1, BuildingBlock: KUMBUR_clean_sbu_0, # of connection points: 6
#     Node 33, Type 1, BuildingBlock: KUMBUR_clean_sbu_0, # of connection points: 6
#     Node 34, Type 1, BuildingBlock: KUMBUR_clean_sbu_0, # of connection points: 6
#     Node 35, Type 1, BuildingBlock: KUMBUR_clean_sbu_0, # of connection points: 6
#     Node 36, Type 1, BuildingBlock: KUMBUR_clean_sbu_0, # of connection points: 6
#     Node 37, Type 1, BuildingBlock: KUMBUR_clean_sbu_0, # of connection points: 6
#     Node 38, Type 1, BuildingBlock: KUMBUR_clean_sbu_0, # of connection points: 6
#     Node 39, Type 1, BuildingBlock: KUMBUR_clean_sbu_0, # of connection points: 6
#     Edge 40, Type (0, 1), BuildingBlock: UVAHIK_clean_linker_0, # of connection points: 2
#     Edge 41, Type (0, 1), BuildingBlock: UVAHIK_clean_linker_0, # of connection points: 2
#     Edge 42, Type (0, 1), BuildingBlock: UVAHIK_clean_linker_0, # of connection points: 2
#     Edge 43, Type (0, 1), BuildingBlock: UVAHIK_clean_linker_0, # of connection points: 2
#     Edge 44, Type (0, 1), BuildingBlock: UVAHIK_clean_linker_0, # of connection points: 2
#     Edge 45, Type (0, 1), BuildingBlock: UVAHIK_clean_linker_0, # of connection points: 2
#     Edge 46, Type (0, 1), BuildingBlock: UVAHIK_clean_linker_0, # of connection points: 2
#     Edge 47, Type (0, 1), BuildingBlock: UVAHIK_clean_linker_0, # of connection points: 2
#     Edge 48, Type (0, 1), BuildingBlock: UVAHIK_clean_linker_0, # of connection points: 2
#     Edge 49, Type (0, 1), BuildingBlock: UVAHIK_clean_linker_0, # of connection points: 2
#     Edge 50, Type (0, 1), BuildingBlock: UVAHIK_clean_linker_0, # of connection points: 2
#     Edge 51, Type (0, 1), BuildingBlock: UVAHIK_clean_linker_0, # of connection points: 2
#     Edge 52, Type (0, 1), BuildingBlock: UVAHIK_clean_linker_0, # of connection points: 2
#     Edge 53, Type (0, 1), BuildingBlock: UVAHIK_clean_linker_0, # of connection points: 2
#     Edge 54, Type (0, 1), BuildingBlock: UVAHIK_clean_linker_0, # of connection points: 2
#     Edge 55, Type (0, 1), BuildingBlock: UVAHIK_clean_linker_0, # of connection points: 2
#     Edge 56, Type (0, 1), BuildingBlock: UVAHIK_clean_linker_0, # of connection points: 2
#     Edge 57, Type (0, 1), BuildingBlock: UVAHIK_clean_linker_0, # of connection points: 2
#     Edge 58, Type (0, 1), BuildingBlock: UVAHIK_clean_linker_0, # of connection points: 2
#     Edge 59, Type (0, 1), BuildingBlock: UVAHIK_clean_linker_0, # of connection points: 2
#     Edge 60, Type (0, 1), BuildingBlock: UVAHIK_clean_linker_0, # of connection points: 2
#     Edge 61, Type (0, 1), BuildingBlock: UVAHIK_clean_linker_0, # of connection points: 2
#     Edge 62, Type (0, 1), BuildingBlock: UVAHIK_clean_linker_0, # of connection points: 2
#     Edge 63, Type (0, 1), BuildingBlock: UVAHIK_clean_linker_0, # of connection points: 2
#     Edge 64, Type (0, 1), BuildingBlock: UVAHIK_clean_linker_0, # of connection points: 2
#     Edge 65, Type (0, 1), BuildingBlock: UVAHIK_clean_linker_0, # of connection points: 2
#     Edge 66, Type (0, 1), BuildingBlock: UVAHIK_clean_linker_0, # of connection points: 2
#     Edge 67, Type (0, 1), BuildingBlock: UVAHIK_clean_linker_0, # of connection points: 2
#     Edge 68, Type (0, 1), BuildingBlock: UVAHIK_clean_linker_0, # of connection points: 2
#     Edge 69, Type (0, 1), BuildingBlock: UVAHIK_clean_linker_0, # of connection points: 2
#     Edge 70, Type (0, 1), BuildingBlock: UVAHIK_clean_linker_0, # of connection points: 2
#     Edge 71, Type (0, 1), BuildingBlock: UVAHIK_clean_linker_0, # of connection points: 2
#     Edge 72, Type (0, 1), BuildingBlock: UVAHIK_clean_linker_0, # of connection points: 2
#     Edge 73, Type (0, 1), BuildingBlock: UVAHIK_clean_linker_0, # of connection points: 2
#     Edge 74, Type (0, 1), BuildingBlock: UVAHIK_clean_linker_0, # of connection points: 2
#     Edge 75, Type (0, 1), BuildingBlock: UVAHIK_clean_linker_0, # of connection points: 2
#     Edge 76, Type (0, 1), BuildingBlock: UVAHIK_clean_linker_0, # of connection points: 2
#     Edge 77, Type (0, 1), BuildingBlock: UVAHIK_clean_linker_0, # of connection points: 2
#     Edge 78, Type (0, 1), BuildingBlock: UVAHIK_clean_linker_0, # of connection points: 2
#     Edge 79, Type (0, 1), BuildingBlock: UVAHIK_clean_linker_0, # of connection points: 2
#     Edge 80, Type (0, 1), BuildingBlock: UVAHIK_clean_linker_0, # of connection points: 2
#     Edge 81, Type (0, 1), BuildingBlock: UVAHIK_clean_linker_0, # of connection points: 2
#     Edge 82, Type (0, 1), BuildingBlock: UVAHIK_clean_linker_0, # of connection points: 2
#     Edge 83, Type (0, 1), BuildingBlock: UVAHIK_clean_linker_0, # of connection points: 2
#     Edge 84, Type (0, 1), BuildingBlock: UVAHIK_clean_linker_0, # of connection points: 2
#     Edge 85, Type (0, 1), BuildingBlock: UVAHIK_clean_linker_0, # of connection points: 2
#     Edge 86, Type (0, 1), BuildingBlock: UVAHIK_clean_linker_0, # of connection points: 2
#     Edge 87, Type (0, 1), BuildingBlock: UVAHIK_clean_linker_0, # of connection points: 2
#     Edge 88, Type (0, 1), BuildingBlock: UVAHIK_clean_linker_0, # of connection points: 2
#     Edge 89, Type (0, 1), BuildingBlock: UVAHIK_clean_linker_0, # of connection points: 2
#     Edge 90, Type (0, 1), BuildingBlock: UVAHIK_clean_linker_0, # of connection points: 2
#     Edge 91, Type (0, 1), BuildingBlock: UVAHIK_clean_linker_0, # of connection points: 2
#     Edge 92, Type (0, 1), BuildingBlock: UVAHIK_clean_linker_0, # of connection points: 2
#     Edge 93, Type (0, 1), BuildingBlock: UVAHIK_clean_linker_0, # of connection points: 2
#     Edge 94, Type (0, 1), BuildingBlock: UVAHIK_clean_linker_0, # of connection points: 2
#     Edge 95, Type (0, 1), BuildingBlock: UVAHIK_clean_linker_0, # of connection points: 2
#     Edge 96, Type (0, 1), BuildingBlock: UVAHIK_clean_linker_0, # of connection points: 2
#     Edge 97, Type (0, 1), BuildingBlock: UVAHIK_clean_linker_0, # of connection points: 2
#     Edge 98, Type (0, 1), BuildingBlock: UVAHIK_clean_linker_0, # of connection points: 2
#     Edge 99, Type (0, 1), BuildingBlock: UVAHIK_clean_linker_0, # of connection points: 2
#     Edge 100, Type (0, 1), BuildingBlock: UVAHIK_clean_linker_0, # of connection points: 2
#     Edge 101, Type (0, 1), BuildingBlock: UVAHIK_clean_linker_0, # of connection points: 2
#     Edge 102, Type (0, 1), BuildingBlock: UVAHIK_clean_linker_0, # of connection points: 2
#     Edge 103, Type (0, 1), BuildingBlock: UVAHIK_clean_linker_0, # of connection points: 2
#     Edge 104, Type (0, 1), BuildingBlock: UVAHIK_clean_linker_0, # of connection points: 2
#     Edge 105, Type (0, 1), BuildingBlock: UVAHIK_clean_linker_0, # of connection points: 2
#     Edge 106, Type (0, 1), BuildingBlock: UVAHIK_clean_linker_0, # of connection points: 2
#     Edge 107, Type (0, 1), BuildingBlock: UVAHIK_clean_linker_0, # of connection points: 2
#     Edge 108, Type (0, 1), BuildingBlock: UVAHIK_clean_linker_0, # of connection points: 2
#     Edge 109, Type (0, 1), BuildingBlock: UVAHIK_clean_linker_0, # of connection points: 2
#     Edge 110, Type (0, 1), BuildingBlock: UVAHIK_clean_linker_0, # of connection points: 2
#     Edge 111, Type (0, 1), BuildingBlock: UVAHIK_clean_linker_0, # of connection points: 2
#     Edge 112, Type (0, 1), BuildingBlock: UVAHIK_clean_linker_0, # of connection points: 2
#     Edge 113, Type (0, 1), BuildingBlock: UVAHIK_clean_linker_0, # of connection points: 2
#     Edge 114, Type (0, 1), BuildingBlock: UVAHIK_clean_linker_0, # of connection points: 2
#     Edge 115, Type (0, 1), BuildingBlock: UVAHIK_clean_linker_0, # of connection points: 2
#     Edge 116, Type (0, 1), BuildingBlock: UVAHIK_clean_linker_0, # of connection points: 2
#     Edge 117, Type (0, 1), BuildingBlock: UVAHIK_clean_linker_0, # of connection points: 2
#     Edge 118, Type (0, 1), BuildingBlock: UVAHIK_clean_linker_0, # of connection points: 2
#     Edge 119, Type (0, 1), BuildingBlock: UVAHIK_clean_linker_0, # of connection points: 2
#     Edge 120, Type (0, 1), BuildingBlock: UVAHIK_clean_linker_0, # of connection points: 2
#     Edge 121, Type (0, 1), BuildingBlock: UVAHIK_clean_linker_0, # of connection points: 2
#     Edge 122, Type (0, 1), BuildingBlock: UVAHIK_clean_linker_0, # of connection points: 2
#     Edge 123, Type (0, 1), BuildingBlock: UVAHIK_clean_linker_0, # of connection points: 2
#     Edge 124, Type (0, 1), BuildingBlock: UVAHIK_clean_linker_0, # of connection points: 2
#     Edge 125, Type (0, 1), BuildingBlock: UVAHIK_clean_linker_0, # of connection points: 2
#     Edge 126, Type (0, 1), BuildingBlock: UVAHIK_clean_linker_0, # of connection points: 2
#     Edge 127, Type (0, 1), BuildingBlock: UVAHIK_clean_linker_0, # of connection points: 2
#     Edge 128, Type (0, 1), BuildingBlock: UVAHIK_clean_linker_0, # of connection points: 2
#     Edge 129, Type (0, 1), BuildingBlock: UVAHIK_clean_linker_0, # of connection points: 2
#     Edge 130, Type (0, 1), BuildingBlock: UVAHIK_clean_linker_0, # of connection points: 2
#     Edge 131, Type (0, 1), BuildingBlock: UVAHIK_clean_linker_0, # of connection points: 2
#     Edge 132, Type (0, 1), BuildingBlock: UVAHIK_clean_linker_0, # of connection points: 2
#     Edge 133, Type (0, 1), BuildingBlock: UVAHIK_clean_linker_0, # of connection points: 2
#     Edge 134, Type (0, 1), BuildingBlock: UVAHIK_clean_linker_0, # of connection points: 2
#     Edge 135, Type (0, 1), BuildingBlock: UVAHIK_clean_linker_0, # of connection points: 2
# Relax obj value: 0.113
# Max RMSD: 0.314
# Mean RMSD: 0.146
data_MOF--net-gar--node1-KUFVIS_clean_sbu_0--node2-KUMBUR_clean_sbu_0--edge1-UVAHIK_clean_linker_0
_symmetry_space_group_name_H-M    P1
_symmetry_Int_Tables_number       1
_symmetry_cell_setting            triclinic
loop_
_symmetry_equiv_pos_as_xyz
'x, y, z'
_cell_length_a     75.437222
_cell_length_b     71.128219
_cell_length_c     72.590455
_cell_angle_alpha  99.596109
_cell_angle_beta   93.14606
_cell_angle_gamma 102.04775
loop_
_atom_site_label
_atom_site_type_symbol
_atom_site_fract_x
_atom_site_fract_y
_atom_site_fract_z
_atom_type_partial_charge
Mn0 Mn 0.0887 0.31009 0.39069 0.0
Mn1 Mn 0.0843 0.32658 0.34988 0.0
C2 C 0.06113 0.31558 0.38028 0.0
C3 C 0.08834 0.28564 0.40842 0.0
C4 C 0.10037 0.35311 0.38641 0.0
O5 O 0.11119 0.30479 0.37847 0.0
O6 O 0.10697 0.31706 0.35242 0.0
C7 C 0.07956 0.28796 0.3251 0.0
N8 N 0.07358 0.30463 0.33072 0.0
C9 C 0.04876 0.29481 0.30644 0.0
C10 C 0.05469 0.27759 0.30033 0.0
C11 C 0.07008 0.27409 0.3098 0.0
C12 C 0.05852 0.30789 0.32202 0.0
H13 H 0.09149 0.28529 0.33221 0.0
C14 C 0.11607 0.30894 0.36284 0.0
O15 O 0.09759 0.30336 0.41441 0.0
O16 O 0.0798 0.28189 0.39172 0.0
N17 N 0.0631 0.33628 0.34458 0.0
C18 C 0.05938 0.3538 0.35195 0.0
C19 C 0.04455 0.35967 0.3439 0.0
C20 C 0.034 0.34774 0.32804 0.0
C21 C 0.03833 0.32999 0.32041 0.0
C22 C 0.05319 0.32484 0.32912 0.0
H23 H 0.06765 0.36323 0.3639 0.0
O24 O 0.06484 0.31516 0.39784 0.0
O25 O 0.07339 0.31219 0.36898 0.0
O26 O 0.09965 0.33944 0.39588 0.0
O27 O 0.09486 0.3501 0.369 0.0
C28 C 0.02861 0.3173 0.30438 0.0
C29 C 0.03366 0.2996 0.29756 0.0
H30 H 0.04754 0.26697 0.28839 0.0
H31 H 0.07474 0.26082 0.3052 0.0
H32 H 0.04136 0.37343 0.34981 0.0
H33 H 0.02264 0.35237 0.3218 0.0
H34 H 0.01716 0.32097 0.29723 0.0
H35 H 0.02594 0.28986 0.28536 0.0
Mn36 Mn 0.01794 0.77554 0.66448 0.0
Mn37 Mn 0.0341 0.80931 0.70324 0.0
C38 C 0.0483 0.78186 0.67528 0.0
C39 C 1.00494 0.74358 0.6501 0.0
C40 C 0.0245 0.81936 0.66539 0.0
O41 O 0.99511 0.7791 0.67687 0.0
O42 O 0.00753 0.79894 0.70419 0.0
C43 C 0.02932 0.78386 0.73185 0.0
N44 N 0.04031 0.79701 0.72346 0.0
C45 C 0.06655 0.79588 0.74331 0.0
C46 C 0.05541 0.78271 0.75246 0.0
C47 C 0.03673 0.77661 0.74664 0.0
C48 C 0.05835 0.80283 0.72883 0.0
H49 H 0.01506 0.77874 0.72711 0.0
C50 C 0.99389 0.78805 0.69338 0.0
O51 O 1.00363 0.75822 0.64194 0.0
O52 O 0.01308 0.74762 0.66695 0.0
N53 N 0.05974 0.81976 0.70394 0.0
C54 C 0.06888 0.83092 0.69245 0.0
C55 C 0.08789 0.83723 0.69559 0.0
C56 C 0.09731 0.83202 0.71049 0.0
C57 C 0.08762 0.82053 0.72214 0.0
C58 C 0.06865 0.81484 0.71845 0.0
H59 H 0.06177 0.83488 0.68088 0.0
O60 O 0.04306 0.774 0.65786 0.0
O61 O 0.03561 0.78587 0.68561 0.0
O62 O 0.02069 0.80186 0.65641 0.0
O63 O 0.02876 0.82376 0.68312 0.0
C64 C 0.09609 0.81412 0.73696 0.0
C65 C 0.08556 0.80182 0.74756 0.0
H66 H 0.06112 0.77687 0.76371 0.0
H67 H 0.02809 0.76618 0.7534 0.0
H68 H 0.09528 0.84601 0.68648 0.0
H69 H 0.11199 0.83674 0.71274 0.0
H70 H 0.11073 0.81825 0.74011 0.0
H71 H 0.09227 0.79666 0.75868 0.0
Mn72 Mn 0.59079 0.81557 0.88989 0.0
Mn73 Mn 0.58202 0.83122 0.84951 0.0
C74 C 0.56228 0.8205 0.88232 0.0
C75 C 0.59259 0.79133 0.90747 0.0
C76 C 0.60023 0.85858 0.88463 0.0
O77 O 0.61213 0.81047 0.8755 0.0
O78 O 0.60589 0.82372 0.85058 0.0
C79 C 0.57798 0.79235 0.82538 0.0
N80 N 0.57124 0.80845 0.83125 0.0
C81 C 0.54438 0.79582 0.80967 0.0
C82 C 0.55108 0.77915 0.80332 0.0
C83 C 0.56792 0.77738 0.81127 0.0
C84 C 0.55492 0.81014 0.82392 0.0
H85 H 0.59094 0.79093 0.8314 0.0
C86 C 0.61611 0.81587 0.8601 0.0
O87 O 0.60192 0.80913 0.91283 0.0
O88 O 0.58277 0.78741 0.89146 0.0
N89 N 0.55964 0.83923 0.84552 0.0
C90 C 0.55541 0.85653 0.85272 0.0
C91 C 0.53934 0.86097 0.84575 0.0
C92 C 0.52787 0.84769 0.83128 0.0
C93 C 0.53265 0.83015 0.82383 0.0
C94 C 0.54898 0.82666 0.83116 0.0
H95 H 0.56422 0.86686 0.86372 0.0
O96 O 0.56775 0.82041 0.89953 0.0
O97 O 0.5734 0.81706 0.86965 0.0
O98 O 0.60141 0.84514 0.89403 0.0
O99 O 0.59256 0.85523 0.8679 0.0
C100 C 0.52189 0.81602 0.80937 0.0
C101 C 0.52768 0.79879 0.8024 0.0
H102 H 0.54341 0.76763 0.79236 0.0
H103 H 0.57316 0.76454 0.80649 0.0
H104 H 0.53584 0.87462 0.85149 0.0
H105 H 0.51545 0.85113 0.82598 0.0
H106 H 0.50911 0.81824 0.80356 0.0
H107 H 0.51925 0.78799 0.79135 0.0
Mn108 Mn 0.51743 0.2702 0.14929 0.0
Mn109 Mn 0.48241 0.24956 0.11643 0.0
C110 C 0.5061 0.23681 0.14347 0.0
C111 C 0.54852 0.27978 0.15819 0.0
C112 C 0.4778 0.27119 0.15494 0.0
O113 O 0.51741 0.29144 0.13374 0.0
O114 O 0.49414 0.27603 0.11197 0.0
C115 C 0.50331 0.24519 0.08319 0.0
N116 N 0.49152 0.23701 0.09471 0.0
C117 C 0.4894 0.20477 0.07688 0.0
C118 C 0.50141 0.21287 0.06476 0.0
C119 C 0.50839 0.23317 0.06794 0.0
C120 C 0.48465 0.2175 0.09172 0.0
H121 H 0.50886 0.26075 0.08565 0.0
C122 C 0.50715 0.29071 0.11891 0.0
O123 O 0.53696 0.28719 0.1681 0.0
O124 O 0.54204 0.26786 0.14264 0.0
N125 N 0.47043 0.22372 0.11904 0.0
C126 C 0.45997 0.21805 0.13272 0.0
C127 C 0.45235 0.19812 0.1319 0.0
C128 C 0.4556 0.18421 0.11707 0.0
C129 C 0.4664 0.19037 0.10316 0.0
C130 C 0.47343 0.21046 0.10457 0.0
H131 H 0.45767 0.22862 0.14431 0.0
O132 O 0.51487 0.24543 0.15954 0.0
O133 O 0.50403 0.24807 0.13156 0.0
O134 O 0.49461 0.27572 0.16094 0.0
O135 O 0.47176 0.26156 0.13852 0.0
C136 C 0.47081 0.17733 0.08819 0.0
C137 C 0.48229 0.18452 0.07506 0.0
H138 H 0.50551 0.20364 0.05309 0.0
H139 H 0.51776 0.23952 0.05872 0.0
H140 H 0.44413 0.19347 0.14276 0.0
H141 H 0.4499 0.16883 0.11663 0.0
H142 H 0.46565 0.16171 0.0868 0.0
H143 H 0.48578 0.17432 0.06375 0.0
Mn144 Mn 0.09418 0.81804 0.12632 0.0
Mn145 Mn 0.06171 0.80188 0.08976 0.0
C146 C 0.08468 0.78449 0.11418 0.0
C147 C 0.12474 0.82738 0.1397 0.0
C148 C 0.05301 0.81406 0.12982 0.0
O149 O 0.09386 0.84341 0.11564 0.0
O150 O 0.07237 0.83041 0.09145 0.0
C151 C 0.0858 0.80671 0.05922 0.0
N152 N 0.07295 0.79517 0.06735 0.0
C153 C 0.07214 0.7674 0.04304 0.0
C154 C 0.08515 0.77908 0.03425 0.0
C155 C 0.09206 0.7988 0.04242 0.0
C156 C 0.06632 0.77613 0.05969 0.0
H157 H 0.09131 0.8218 0.06555 0.0
C158 C 0.08394 0.84499 0.10123 0.0
O159 O 0.11152 0.83219 0.14878 0.0
O160 O 0.12046 0.81891 0.1223 0.0
N161 N 0.05026 0.77467 0.08608 0.0
C162 C 0.03863 0.7651 0.09692 0.0
C163 C 0.03103 0.74505 0.0911 0.0
C164 C 0.0353 0.7351 0.07412 0.0
C165 C 0.04709 0.74531 0.06307 0.0
C166 C 0.05417 0.76532 0.06953 0.0
H167 H 0.03531 0.77265 0.11001 0.0
O168 O 0.09211 0.79075 0.13121 0.0
O169 O 0.08287 0.79805 0.10459 0.0
O170 O 0.06952 0.81894 0.13703 0.0
O171 O 0.04864 0.80776 0.11226 0.0
C172 C 0.05246 0.73633 0.04613 0.0
C173 C 0.065 0.74736 0.03614 0.0
H174 H 0.09011 0.77301 0.02136 0.0
H175 H 0.10224 0.80786 0.03582 0.0
H176 H 0.02195 0.73727 0.09972 0.0
H177 H 0.02957 0.71959 0.06978 0.0
H178 H 0.04727 0.72087 0.04082 0.0
H179 H 0.06924 0.74021 0.02329 0.0
Mn180 Mn 0.52137 0.76773 0.41952 0.0
Mn181 Mn 0.5153 0.78848 0.38138 0.0
C182 C 0.49166 0.76699 0.40669 0.0
C183 C 0.52666 0.74036 0.43255 0.0
C184 C 0.52629 0.8122 0.42096 0.0
O185 O 0.54668 0.77165 0.40917 0.0
O186 O 0.53934 0.78147 0.3824 0.0
C187 C 0.51376 0.75363 0.35211 0.0
N188 N 0.50643 0.76876 0.3597 0.0
C189 C 0.48199 0.76014 0.335 0.0
C190 C 0.48945 0.74465 0.32673 0.0
C191 C 0.50533 0.7413 0.3354 0.0
C192 C 0.49093 0.77184 0.35172 0.0
H193 H 0.52591 0.75097 0.35881 0.0
C194 C 0.55052 0.7761 0.39323 0.0
O195 O 0.5309 0.75811 0.44199 0.0
O196 O 0.51935 0.73844 0.41554 0.0
N197 N 0.49269 0.79622 0.37792 0.0
C198 C 0.4868 0.81125 0.38812 0.0
C199 C 0.47106 0.81652 0.38141 0.0
C200 C 0.46165 0.80647 0.36419 0.0
C201 C 0.46795 0.79109 0.35391 0.0
C202 C 0.48384 0.78664 0.36119 0.0
H203 H 0.49408 0.81922 0.40124 0.0
O204 O 0.49457 0.76397 0.42363 0.0
O205 O 0.50602 0.76974 0.39754 0.0
O206 O 0.52539 0.79768 0.42953 0.0
O207 O 0.52385 0.81005 0.40308 0.0
C208 C 0.45898 0.77985 0.33683 0.0
C209 C 0.46591 0.76428 0.32746 0.0
H210 H 0.483 0.73513 0.31383 0.0
H211 H 0.51107 0.72925 0.3292 0.0
H212 H 0.46624 0.82837 0.38946 0.0
H213 H 0.44955 0.81062 0.35903 0.0
H214 H 0.44657 0.78285 0.33095 0.0
H215 H 0.45872 0.75553 0.31452 0.0
Mn216 Mn 0.58616 0.31455 0.63009 0.0
Mn217 Mn 0.55579 0.2975 0.59177 0.0
C218 C 0.57871 0.28104 0.61707 0.0
C219 C 0.61586 0.32546 0.64572 0.0
C220 C 0.54447 0.30789 0.63105 0.0
O221 O 0.58524 0.34001 0.61968 0.0
O222 O 0.56523 0.32636 0.59434 0.0
C223 C 0.58164 0.3046 0.5631 0.0
N224 N 0.56857 0.2922 0.57014 0.0
C225 C 0.56995 0.26545 0.54554 0.0
C226 C 0.58316 0.27803 0.53781 0.0
C227 C 0.5891 0.29767 0.54669 0.0
C228 C 0.56292 0.27322 0.56185 0.0
H229 H 0.58646 0.3196 0.57004 0.0
C230 C 0.57581 0.34128 0.60478 0.0
O231 O 0.60161 0.32893 0.65367 0.0
O232 O 0.61309 0.31738 0.62809 0.0
N233 N 0.54558 0.26995 0.58713 0.0
C234 C 0.53373 0.2594 0.59711 0.0
C235 C 0.52707 0.23929 0.59057 0.0
C236 C 0.5325 0.23025 0.57377 0.0
C237 C 0.54451 0.24144 0.56361 0.0
C238 C 0.55061 0.26147 0.57075 0.0
H239 H 0.52955 0.26623 0.61007 0.0
O240 O 0.58504 0.28717 0.63447 0.0
O241 O 0.57675 0.29467 0.60764 0.0
O242 O 0.56062 0.31359 0.63913 0.0
O243 O 0.54112 0.30179 0.61336 0.0
C244 C 0.55106 0.23341 0.54696 0.0
C245 C 0.5638 0.2454 0.53795 0.0
H246 H 0.58904 0.27271 0.52523 0.0
H247 H 0.59946 0.30741 0.54095 0.0
H248 H 0.51784 0.23074 0.59852 0.0
H249 H 0.52751 0.21469 0.56889 0.0
H250 H 0.54665 0.21796 0.54115 0.0
H251 H 0.56898 0.23898 0.52534 0.0
Mn252 Mn 0.01928 0.2706 0.92368 0.0
Mn253 Mn 0.01585 0.29348 0.88659 0.0
C254 C 0.99035 0.27216 0.91049 0.0
C255 C 0.02262 0.24197 0.93551 0.0
C256 C 0.02696 0.31535 0.92683 0.0
O257 O 0.0449 0.27365 0.91399 0.0
O258 O 0.03898 0.28456 0.88744 0.0
C259 C 0.01275 0.25922 0.85623 0.0
N260 N 1.00629 0.2748 0.86437 0.0
C261 C 0.98229 0.2687 0.83947 0.0
C262 C 0.98885 0.25276 0.83065 0.0
C263 C 1.00405 0.2479 0.83915 0.0
C264 C 0.99136 0.27925 0.8566 0.0
H265 H 0.02441 0.25545 0.86276 0.0
C266 C 0.04941 0.27827 0.89829 0.0
O267 O 0.02744 0.25935 0.94567 0.0
O268 O 0.01581 0.24115 0.9185 0.0
N269 N 0.99423 0.30314 0.88341 0.0
C270 C 0.98943 0.31875 0.89388 0.0
C271 C 0.97434 0.32537 0.88746 0.0
C272 C 0.96461 0.31619 0.87013 0.0
C273 C 0.97007 0.30048 0.85938 0.0
C274 C 0.98515 0.29447 0.86654 0.0
H275 H 0.99704 0.32615 0.90703 0.0
O276 O 0.99241 0.26812 0.92716 0.0
O277 O 1.00503 0.27448 0.90182 0.0
O278 O 0.02453 0.30035 0.93482 0.0
O279 O 0.02525 0.31399 0.90899 0.0
C280 C 0.96113 0.29055 0.84182 0.0
C281 C 0.96709 0.27451 0.83199 0.0
H282 H 0.98224 0.24408 0.81742 0.0
H283 H 0.0091 0.23552 0.83252 0.0
H284 H 0.9703 0.3376 0.89579 0.0
H285 H 0.95296 0.32132 0.86523 0.0
H286 H 0.9495 0.29496 0.83587 0.0
H287 H 0.95987 0.26674 0.81868 0.0
Mn288 Mn 0.42938 0.04792 0.29579 0.0
Mn289 Mn 0.40022 0.03736 0.3281 0.0
C290 C 0.4221 0.01672 0.3023 0.0
C291 C 0.43673 0.05054 0.26564 0.0
C292 C 0.43912 0.06011 0.33802 0.0
O293 O 0.41592 0.06998 0.29782 0.0
O294 O 0.39613 0.0609 0.31865 0.0
C295 C 0.36523 0.02695 0.30422 0.0
N296 N 0.37737 0.022 0.3161 0.0
C297 C 0.35775 0.99042 0.31516 0.0
C298 C 0.34501 0.99521 0.30297 0.0
C299 C 0.34879 0.01353 0.29745 0.0
C300 C 0.37387 1.00439 0.32149 0.0
H301 H 0.36805 0.04101 0.29992 0.0
C302 C 0.40247 0.07213 0.30732 0.0
O303 O 0.44711 0.06072 0.28026 0.0
O304 O 0.42146 0.03947 0.26847 0.0
N305 N 0.4027 0.01446 0.33772 0.0
C306 C 0.41696 0.01157 0.34842 0.0
C307 C 0.41571 0.9936 0.35442 0.0
C308 C 0.3998 0.97885 0.34945 0.0
C309 C 0.38528 0.98218 0.33847 0.0
C310 C 0.3873 1.00038 0.33291 0.0
H311 H 0.42924 0.02284 0.35226 0.0
O312 O 0.4374 0.02276 0.29549 0.0
O313 O 0.41192 0.0293 0.30554 0.0
O314 O 0.44322 0.05925 0.32124 0.0
O315 O 0.4233 0.05277 0.34227 0.0
C316 C 0.369 0.96806 0.3326 0.0
C317 C 0.35522 0.97219 0.32099 0.0
H318 H 0.33235 0.98487 0.29766 0.0
H319 H 0.33906 0.01731 0.28799 0.0
H320 H 0.427 0.99112 0.36283 0.0
H321 H 0.39892 0.96497 0.35402 0.0
H322 H 0.36703 0.95386 0.33671 0.0
H323 H 0.34287 0.96111 0.31636 0.0
Mn324 Mn 0.29853 0.19356 0.5147 0.0
Mn325 Mn 0.29011 0.15347 0.48041 0.0
C326 C 0.26871 0.17693 0.50438 0.0
C327 C 0.3034 0.20793 0.54687 0.0
C328 C 0.30135 0.19481 0.47254 0.0
O329 O 0.32289 0.18508 0.51501 0.0
O330 O 0.31555 0.15827 0.49215 0.0
C331 C 0.29245 0.1234 0.50363 0.0
N332 N 0.28291 0.13039 0.49085 0.0
C333 C 0.25778 0.10261 0.48786 0.0
C334 C 0.26739 0.09506 0.5009 0.0
C335 C 0.28477 0.10553 0.50886 0.0
C336 C 0.26615 0.12045 0.48314 0.0
H337 H 0.30582 0.13138 0.50978 0.0
C338 C 0.32673 0.1701 0.50501 0.0
O339 O 0.30852 0.21796 0.53394 0.0
O340 O 0.29607 0.18956 0.54115 0.0
N341 N 0.2659 0.14693 0.46821 0.0
C342 C 0.25774 0.15713 0.4573 0.0
C343 C 0.23994 0.1491 0.44895 0.0
C344 C 0.23075 0.13066 0.45184 0.0
C345 C 0.2394 0.12047 0.46316 0.0
C346 C 0.25716 0.12919 0.4711 0.0
H347 H 0.26466 0.17137 0.45518 0.0
O348 O 0.27226 0.19521 0.51233 0.0
O349 O 0.28272 0.16907 0.50234 0.0
O350 O 0.30283 0.20374 0.48961 0.0
O351 O 0.29688 0.17621 0.46792 0.0
C352 C 0.23096 0.1022 0.46721 0.0
C353 C 0.24011 0.09331 0.47962 0.0
H354 H 0.26148 0.08132 0.50503 0.0
H355 H 0.29223 0.09984 0.519 0.0
H356 H 0.23329 0.15714 0.44036 0.0
H357 H 0.21697 0.12458 0.44548 0.0
H358 H 0.2173 0.09502 0.46112 0.0
H359 H 0.23331 0.07946 0.48293 0.0
Mn360 Mn 0.17362 0.01743 0.76293 0.0
Mn361 Mn 0.20942 0.02987 0.79658 0.0
C362 C 0.18987 0.05105 0.77272 0.0
C363 C 0.15963 0.01237 0.72978 0.0
C364 C 0.16982 0.02009 0.80706 0.0
O365 O 0.18298 0.99018 0.76196 0.0
O366 O 0.20571 1.00128 0.78523 0.0
C367 C 0.23907 0.02421 0.77248 0.0
N368 N 0.23177 0.03595 0.78532 0.0
C369 C 0.25741 0.06285 0.78641 0.0
C370 C 0.26524 0.051 0.77332 0.0
C371 C 0.25601 0.03161 0.76631 0.0
C372 C 0.24056 0.05463 0.79218 0.0
H373 H 0.23203 0.00932 0.76696 0.0
C374 C 0.19661 0.98735 0.77238 0.0
O375 O 0.1507 1.00707 0.74353 0.0
O376 O 0.17694 0.01847 0.73472 0.0
N377 N 0.21506 0.05688 0.80835 0.0
C378 C 0.20506 0.06686 0.81979 0.0
C379 C 0.21206 0.08669 0.82739 0.0
C380 C 0.22928 0.09605 0.82323 0.0
C381 C 0.23936 0.08548 0.8115 0.0
C382 C 0.23174 0.0657 0.80443 0.0
H383 H 0.19176 0.05982 0.82297 0.0
O384 O 0.17297 0.04642 0.76601 0.0
O385 O 0.19658 0.03591 0.77452 0.0
O386 O 0.16249 0.01605 0.78984 0.0
O387 O 0.18717 0.02472 0.81049 0.0
C388 C 0.25646 0.09393 0.80617 0.0
C389 C 0.26548 0.08263 0.79363 0.0
H390 H 0.27824 0.05669 0.76841 0.0
H391 H 0.26192 0.0224 0.75612 0.0
H392 H 0.20416 0.09478 0.83636 0.0
H393 H 0.23455 0.11141 0.82896 0.0
H394 H 0.26266 0.10921 0.81137 0.0
H395 H 0.27848 0.08939 0.7894 0.0
Mn396 Mn 0.31587 0.92287 0.02258 0.0
Mn397 Mn 0.32337 0.96064 0.99917 0.0
C398 C 0.34461 0.93474 0.01458 0.0
C399 C 0.31394 0.90935 0.04957 0.0
C400 C 0.30711 0.91909 0.98017 0.0
O401 O 0.29335 0.93384 0.02651 0.0
O402 O 0.2994 0.95799 0.00977 0.0
C403 C 0.32647 0.99232 0.0321 0.0
N404 N 0.33364 0.98406 0.01678 0.0
C405 C 0.36041 0.01021 0.02225 0.0
C406 C 0.35326 0.01906 0.03802 0.0
C407 C 0.33624 0.01004 0.04299 0.0
C408 C 0.35005 0.99256 0.01194 0.0
H409 H 0.3134 0.98544 0.03598 0.0
C410 C 0.28914 0.94795 0.01979 0.0
O411 O 0.30553 0.89984 0.0336 0.0
O412 O 0.32271 0.92725 0.05012 0.0
N413 N 0.34599 0.9653 0.98814 0.0
C414 C 0.35121 0.95457 0.97287 0.0
C415 C 0.36811 0.96138 0.96629 0.0
C416 C 0.37931 0.97927 0.97528 0.0
C417 C 0.37348 0.99024 0.99073 0.0
C418 C 0.35649 0.98274 0.99663 0.0
H419 H 0.34262 0.94085 0.96585 0.0
O420 O 0.34001 0.91711 0.01791 0.0
O421 O 0.33235 0.94525 0.01634 0.0
O422 O 0.30674 0.91194 0.99514 0.0
O423 O 0.3133 0.93717 0.97992 0.0
C424 C 0.38397 1.00818 1.00068 0.0
C425 C 0.37748 0.01812 0.01648 0.0
H426 H 0.36076 0.03271 0.04648 0.0
H427 H 0.33066 0.01673 0.05518 0.0
H428 H 0.3725 0.95284 0.95434 0.0
H429 H 0.3924 0.98439 0.97026 0.0
H430 H 0.39714 0.01438 0.99643 0.0
H431 H 0.38577 0.03178 0.02415 0.0
Mn432 Mn 0.31736 0.39592 0.04113 0.0
Mn433 Mn 0.3304 0.43407 0.01877 0.0
C434 C 0.34811 0.41015 0.04108 0.0
C435 C 0.30907 0.38391 0.06868 0.0
C436 C 0.31981 0.39202 0.99817 0.0
O437 O 0.29355 0.40523 0.03767 0.0
O438 O 0.30412 0.42964 0.02231 0.0
C439 C 0.32491 0.46473 0.04955 0.0
N440 N 0.33583 0.4576 0.03711 0.0
C441 C 0.36023 0.48583 0.04746 0.0
C442 C 0.34922 0.49354 0.06032 0.0
C443 C 0.33151 0.48289 0.06142 0.0
C444 C 0.35297 0.46759 0.03613 0.0
H445 H 0.31127 0.45663 0.05039 0.0
C446 C 0.29128 0.41911 0.0293 0.0
O447 O 0.3047 0.37298 0.05216 0.0
O448 O 0.3175 0.40182 0.06905 0.0
N449 N 0.35543 0.44071 0.01404 0.0
C450 C 0.36435 0.43119 1.00097 0.0
C451 C 0.38209 0.44007 0.9978 0.0
C452 C 0.39039 0.45874 0.00791 0.0
C453 C 0.38094 0.46829 0.02123 0.0
C454 C 0.36322 0.45883 0.02362 0.0
H455 H 0.35798 0.41693 0.99302 0.0
O456 O 0.34301 0.39249 0.04422 0.0
O457 O 0.33516 0.41914 0.03822 0.0
O458 O 0.31548 0.3842 0.0125 0.0
O459 O 0.32555 0.41043 0.99921 0.0
C460 C 0.38845 0.48681 0.03229 0.0
C461 C 0.37815 0.4955 0.0455 0.0
H462 H 0.35423 0.50757 0.06945 0.0
H463 H 0.32294 0.48871 0.07135 0.0
H464 H 0.38931 0.43258 0.98752 0.0
H465 H 0.40402 0.4656 1.00536 0.0
H466 H 0.40219 0.4944 0.03086 0.0
H467 H 0.38413 0.50965 0.05405 0.0
Mn468 Mn 0.79398 0.16252 0.01621 0.0
Mn469 Mn 0.77315 0.12075 0.98707 0.0
C470 C 0.76284 0.15138 0.01489 0.0
C471 C 0.80769 0.17863 0.04571 0.0
C472 C 0.7858 0.15926 0.97391 0.0
O473 O 0.81511 0.14959 0.0099 0.0
O474 O 0.79956 0.12157 0.99162 0.0
C475 C 0.77781 0.09309 0.01231 0.0
N476 N 0.7667 0.10063 1.00156 0.0
C477 C 0.74001 0.07947 0.00942 0.0
C478 C 0.75118 0.07138 0.02048 0.0
C479 C 0.77015 0.07825 0.02195 0.0
C480 C 0.74841 0.09418 1.00011 0.0
H481 H 0.7924 0.09839 0.01359 0.0
C482 C 0.81436 0.13273 1.00008 0.0
O483 O 0.81054 0.18669 0.03102 0.0
O484 O 0.79792 0.16095 0.04295 0.0
N485 N 0.74748 0.11796 0.98181 0.0
C486 C 0.73858 0.12767 0.97102 0.0
C487 C 0.71948 0.12268 0.96829 0.0
C488 C 0.70974 0.10771 0.97659 0.0
C489 C 0.7192 0.09776 0.98744 0.0
C490 C 0.73825 0.10323 0.98952 0.0
H491 H 0.74598 0.13922 0.96463 0.0
O492 O 0.77019 0.16967 0.02111 0.0
O493 O 0.77393 0.14024 0.00963 0.0
O494 O 0.79222 0.1694 0.99 0.0
O495 O 0.77876 0.14092 0.97122 0.0
C496 C 0.71047 0.08279 0.99647 0.0
C497 C 0.72086 0.0737 0.00751 0.0
H498 H 0.74532 0.06 0.028 0.0
H499 H 0.77886 0.07216 0.03053 0.0
H500 H 0.71228 0.13043 0.95989 0.0
H501 H 0.69501 0.10404 0.97461 0.0
H502 H 0.69575 0.07832 0.99521 0.0
H503 H 0.71397 0.06238 0.01457 0.0
Mn504 Mn 0.1782 0.55785 0.27218 0.0
Mn505 Mn 0.21553 0.58296 0.3006 0.0
C506 C 0.18365 0.5916 0.28017 0.0
C507 C 0.16443 0.54386 0.24209 0.0
C508 C 0.18169 0.56047 0.31465 0.0
O509 O 0.19402 0.53781 0.27203 0.0
O510 O 0.21931 0.55713 0.28871 0.0
C511 C 0.2407 0.5888 0.2711 0.0
N512 N 0.23274 0.59633 0.28616 0.0
C513 C 0.24938 0.62896 0.2855 0.0
C514 C 0.25797 0.62151 0.27016 0.0
C515 C 0.25351 0.60136 0.26285 0.0
C516 C 0.23661 0.61574 0.29302 0.0
H517 H 0.2372 0.57335 0.26537 0.0
C518 C 0.21057 0.5409 0.27881 0.0
O519 O 0.15766 0.53812 0.25682 0.0
O520 O 0.17946 0.55713 0.24489 0.0
N521 N 0.21411 0.60847 0.31304 0.0
C522 C 0.20411 0.61339 0.32742 0.0
C523 C 0.20703 0.63298 0.33645 0.0
C524 C 0.22029 0.64728 0.3307 0.0
C525 C 0.23029 0.64192 0.31575 0.0
C526 C 0.22695 0.62213 0.30745 0.0
H527 H 0.19407 0.60247 0.33208 0.0
O528 O 0.16743 0.58155 0.27393 0.0
O529 O 0.19616 0.58168 0.28115 0.0
O530 O 0.17225 0.55505 0.29879 0.0
O531 O 0.1982 0.57021 0.31675 0.0
C532 C 0.24347 0.65543 0.30877 0.0
C533 C 0.25286 0.64898 0.29351 0.0
H534 H 0.26789 0.63115 0.26378 0.0
H535 H 0.25995 0.59552 0.2509 0.0
H536 H 0.1992 0.63702 0.34793 0.0
H537 H 0.22268 0.66231 0.3379 0.0
H538 H 0.24635 0.67084 0.31489 0.0
H539 H 0.26272 0.65955 0.28804 0.0
Mn540 Mn 0.81597 0.89174 0.53842 0.0
Mn541 Mn 0.82829 0.93038 0.51658 0.0
C542 C 0.84661 0.90647 0.5383 0.0
C543 C 0.80773 0.87931 0.56571 0.0
C544 C 0.81746 0.88841 0.49555 0.0
O545 O 0.79193 0.90072 0.53511 0.0
O546 O 0.80229 0.92637 0.52121 0.0
C547 C 0.82424 0.96115 0.54795 0.0
N548 N 0.83463 0.95376 0.53506 0.0
C549 C 0.85957 0.98157 0.54478 0.0
C550 C 0.84912 0.98954 0.55812 0.0
C551 C 0.83141 0.97922 0.55977 0.0
C552 C 0.85179 0.96338 0.53359 0.0
H553 H 0.81058 0.95333 0.54918 0.0
C554 C 0.78955 0.91527 0.5278 0.0
O555 O 0.80369 0.86851 0.54911 0.0
O556 O 0.81594 0.89735 0.56634 0.0
N557 N 0.85309 0.93649 0.51094 0.0
C558 C 0.86134 0.92686 0.49728 0.0
C559 C 0.87912 0.93523 0.49379 0.0
C560 C 0.88809 0.95361 0.50406 0.0
C561 C 0.87915 0.96349 0.51767 0.0
C562 C 0.86146 0.95438 0.52061 0.0
H563 H 0.85441 0.91287 0.48913 0.0
O564 O 0.84182 0.88878 0.54144 0.0
O565 O 0.83343 0.91519 0.53561 0.0
O566 O 0.81418 0.88024 0.50987 0.0
O567 O 0.8225 0.90691 0.49678 0.0
C568 C 0.88705 0.98206 0.5284 0.0
C569 C 0.87736 0.99099 0.54211 0.0
H570 H 0.85455 1.00354 0.56716 0.0
H571 H 0.82327 0.98525 0.57006 0.0
H572 H 0.88587 0.92757 0.48316 0.0
H573 H 0.90181 0.96001 0.50135 0.0
H574 H 0.90065 0.98953 0.52634 0.0
H575 H 0.8837 1.00515 0.55045 0.0
Mn576 Mn 0.93858 0.06829 0.26619 0.0
Mn577 Mn 0.90386 0.06151 0.29443 0.0
C578 C 0.92281 0.03569 0.26899 0.0
C579 C 0.95157 0.0706 0.23533 0.0
C580 C 0.94403 0.07141 0.3108 0.0
O581 O 0.92967 0.09581 0.26935 0.0
O582 O 0.9073 0.08852 0.28791 0.0
C583 C 0.87377 0.06266 0.26684 0.0
N584 N 0.88109 0.0533 0.27924 0.0
C585 C 0.85473 0.02665 0.27355 0.0
C586 C 0.84685 0.03611 0.26088 0.0
C587 C 0.85645 0.05416 0.25746 0.0
C588 C 0.87203 0.03584 0.2825 0.0
H589 H 0.88106 0.0765 0.26407 0.0
C590 C 0.91612 0.10037 0.27826 0.0
O591 O 0.96088 0.07721 0.25151 0.0
O592 O 0.93445 0.06392 0.23694 0.0
N593 N 0.89796 0.03639 0.30171 0.0
C594 C 0.90769 0.02869 0.31376 0.0
C595 C 0.90009 0.0105 0.31837 0.0
C596 C 0.88251 1.00046 0.31072 0.0
C597 C 0.87263 0.00875 0.29859 0.0
C598 C 0.88086 0.027 0.29458 0.0
H599 H 0.92121 0.03626 0.31975 0.0
O600 O 0.93913 0.03931 0.26372 0.0
O601 O 0.91605 0.05124 0.27259 0.0
O602 O 0.95073 0.07277 0.29484 0.0
O603 O 0.9268 0.06887 0.3119 0.0
C604 C 0.85508 0.99945 0.29004 0.0
C605 C 0.84616 0.00834 0.27747 0.0
H606 H 0.83351 0.02958 0.25358 0.0
H607 H 0.85051 0.0615 0.24761 0.0
H608 H 0.90781 1.00419 0.32775 0.0
H609 H 0.87677 0.98633 0.31416 0.0
H610 H 0.84841 0.98531 0.29283 0.0
H611 H 0.83277 1.00091 0.27077 0.0
Mn612 Mn 0.29107 0.65618 0.51166 0.0
Mn613 Mn 0.2726 0.61669 0.47835 0.0
C614 C 0.26013 0.64847 0.50289 0.0
C615 C 0.30025 0.67068 0.54283 0.0
C616 C 0.29296 0.65512 0.46956 0.0
O617 O 0.31113 0.64084 0.50994 0.0
O618 O 0.29667 0.61428 0.48892 0.0
C619 C 0.26672 0.58733 0.50321 0.0
N620 N 0.26 0.59638 0.49017 0.0
C621 C 0.22985 0.57669 0.48988 0.0
C622 C 0.23649 0.56702 0.50317 0.0
C623 C 0.25499 0.57243 0.50992 0.0
C624 C 0.24218 0.59148 0.48377 0.0
H625 H 0.28091 0.59151 0.50851 0.0
C626 C 0.31038 0.6239 0.50027 0.0
O627 O 0.30711 0.67859 0.52918 0.0
O628 O 0.28877 0.65394 0.53834 0.0
N629 N 0.24914 0.6168 0.46696 0.0
C630 C 0.24482 0.62789 0.45451 0.0
C631 C 0.22682 0.62437 0.44644 0.0
C632 C 0.2135 0.60937 0.45109 0.0
C633 C 0.21828 0.59806 0.46383 0.0
C634 C 0.23647 0.60213 0.4713 0.0
H635 H 0.25502 0.63933 0.45074 0.0
O636 O 0.26813 0.66605 0.51112 0.0
O637 O 0.27039 0.63587 0.50035 0.0
O638 O 0.29629 0.66415 0.4865 0.0
O639 O 0.28475 0.63714 0.4649 0.0
C640 C 0.20571 0.58293 0.46946 0.0
C641 C 0.21146 0.57237 0.48259 0.0
H642 H 0.22748 0.55552 0.50838 0.0
H643 H 0.26019 0.56512 0.52027 0.0
H644 H 0.22324 0.63315 0.43661 0.0
H645 H 0.19966 0.60668 0.44476 0.0
H646 H 0.19156 0.5794 0.4639 0.0
H647 H 0.20162 0.56096 0.487 0.0
Mn648 Mn 0.44019 0.56752 0.7684 0.0
Mn649 Mn 0.40534 0.56137 0.79658 0.0
C650 C 0.42413 0.53513 0.77149 0.0
C651 C 0.45353 0.56952 0.73773 0.0
C652 C 0.44546 0.57128 0.81301 0.0
O653 O 0.43149 0.59508 0.77115 0.0
O654 O 0.40898 0.58816 0.78966 0.0
C655 C 0.37537 0.56228 0.76874 0.0
N656 N 0.3826 0.55308 0.78135 0.0
C657 C 0.35615 0.52653 0.77589 0.0
C658 C 0.34837 0.53582 0.76299 0.0
C659 C 0.35806 0.55374 0.75936 0.0
C660 C 0.37346 0.53574 0.78482 0.0
H661 H 0.38273 0.57602 0.76581 0.0
C662 C 0.41793 0.5998 0.77992 0.0
O663 O 0.46269 0.57616 0.75398 0.0
O664 O 0.43634 0.56293 0.73913 0.0
N665 N 0.39929 0.53645 0.80424 0.0
C666 C 0.40889 0.52897 0.8166 0.0
C667 C 0.40116 0.51096 0.82152 0.0
C668 C 0.38358 0.50089 0.81386 0.0
C669 C 0.37384 0.50898 0.80142 0.0
C670 C 0.38219 0.52707 0.79713 0.0
H671 H 0.42239 0.53656 0.8226 0.0
O672 O 0.44048 0.53848 0.76626 0.0
O673 O 0.41752 0.55079 0.77487 0.0
O674 O 0.45219 0.57227 0.79703 0.0
O675 O 0.42824 0.56887 0.81408 0.0
C676 C 0.3563 0.49964 0.79285 0.0
C677 C 0.34749 0.50837 0.78004 0.0
H678 H 0.33504 0.52927 0.7557 0.0
H679 H 0.35219 0.56095 0.74935 0.0
H680 H 0.40877 0.50481 0.83114 0.0
H681 H 0.37775 0.4869 0.81753 0.0
H682 H 0.34957 0.48559 0.79581 0.0
H683 H 0.33411 0.50092 0.77336 0.0
Mn684 Mn 0.68275 0.05306 0.75742 0.0
Mn685 Mn 0.72186 0.07316 0.78519 0.0
C686 C 0.69159 0.08654 0.76684 0.0
C687 C 0.66607 0.04122 0.72851 0.0
C688 C 0.68697 0.05487 0.79994 0.0
O689 O 0.69572 0.03057 0.75486 0.0
O690 O 0.72116 0.04572 0.77365 0.0
C691 C 0.7461 0.0731 0.75441 0.0
N692 N 0.73999 0.08291 0.76965 0.0
C693 C 0.76079 0.11292 0.76741 0.0
C694 C 0.76744 0.10309 0.75182 0.0
C695 C 0.75999 0.08311 0.74524 0.0
C696 C 0.74681 0.10221 0.77586 0.0
H697 H 0.74038 0.05777 0.74926 0.0
C698 C 0.71134 0.03081 0.76264 0.0
O699 O 0.66028 0.03576 0.7437 0.0
O700 O 0.68196 0.05304 0.73001 0.0
N701 N 0.72505 0.09982 0.79739 0.0
C702 C 0.71716 0.10715 0.8126 0.0
C703 C 0.7235 0.12677 0.82133 0.0
C704 C 0.73799 0.1386 0.81443 0.0
C705 C 0.74582 0.13081 0.79868 0.0
C706 C 0.73916 0.11106 0.79079 0.0
H707 H 0.70617 0.09809 0.81811 0.0
O708 O 0.67469 0.07832 0.76139 0.0
O709 O 0.70298 0.07507 0.76628 0.0
O710 O 0.67784 0.04965 0.78397 0.0
O711 O 0.70365 0.06404 0.80234 0.0
C712 C 0.76007 0.14184 0.7906 0.0
C713 C 0.76743 0.13294 0.77486 0.0
H714 H 0.7782 0.11075 0.74475 0.0
H715 H 0.76496 0.07545 0.73314 0.0
H716 H 0.71734 0.13272 0.83345 0.0
H717 H 0.74309 0.15362 0.8214 0.0
H718 H 0.76538 0.1572 0.7963 0.0
H719 H 0.77826 0.1416 0.76864 0.0
Mn720 Mn 0.79815 0.69379 0.01295 0.0
Mn721 Mn 0.78963 0.65222 0.98048 0.0
C722 C 0.76834 0.67739 1.00261 0.0
C723 C 0.80304 0.70914 0.0448 0.0
C724 C 0.80182 0.69265 0.9707 0.0
O725 O 0.82242 0.68515 0.01397 0.0
O726 O 0.81471 0.65691 0.99291 0.0
C727 C 0.79027 0.62365 1.00573 0.0
N728 N 0.78138 0.63016 0.99209 0.0
C729 C 0.75535 0.60353 0.99013 0.0
C730 C 0.76427 0.59647 1.00408 0.0
C731 C 0.78178 0.60661 0.01194 0.0
C732 C 0.7645 0.62056 0.98447 0.0
H733 H 0.80373 0.6314 0.01183 0.0
C734 C 0.82604 0.66948 1.00508 0.0
O735 O 0.8083 0.7187 0.03157 0.0
O736 O 0.79549 0.69077 0.03954 0.0
N737 N 0.76574 0.6458 0.96756 0.0
C738 C 0.75855 0.65525 0.95516 0.0
C739 C 0.74082 0.6474 0.94652 0.0
C740 C 0.73076 0.62985 0.95059 0.0
C741 C 0.73851 0.62031 0.96327 0.0
C742 C 0.75625 0.6288 0.97142 0.0
H743 H 0.76622 0.66872 0.95196 0.0
O744 O 0.77202 0.69582 0.01009 0.0
O745 O 0.7822 0.66922 1.0013 0.0
O746 O 0.80261 0.70255 0.98732 0.0
O747 O 0.79754 0.67399 0.96707 0.0
C748 C 0.72923 0.60289 0.96838 0.0
C749 C 0.73761 0.59454 0.98186 0.0
H750 H 0.75774 0.58337 0.00896 0.0
H751 H 0.78872 0.6013 0.02278 0.0
H752 H 0.73493 0.65487 0.93677 0.0
H753 H 0.71705 0.62392 0.94399 0.0
H754 H 0.71553 0.59595 0.96226 0.0
H755 H 0.7302 0.58133 0.98592 0.0
Mn756 Mn 0.93352 0.55963 0.80426 0.0
Mn757 Mn 0.89743 0.55322 0.82987 0.0
C758 C 0.92151 0.52921 0.811 0.0
C759 C 0.94601 0.56064 0.77578 0.0
C760 C 0.93588 0.57222 0.84686 0.0
O761 O 0.92341 0.58369 0.80279 0.0
O762 O 0.89895 0.57741 0.8191 0.0
C763 C 0.86806 0.54584 0.79904 0.0
N764 N 0.87608 0.53994 0.81368 0.0
C765 C 0.853 0.51019 0.80948 0.0
C766 C 0.84444 0.516 0.79443 0.0
C767 C 0.85203 0.53388 0.78916 0.0
C768 C 0.86894 0.52271 0.8188 0.0
H769 H 0.87386 0.55955 0.79492 0.0
C770 C 0.90907 0.58792 0.80932 0.0
O771 O 0.95509 0.56998 0.7915 0.0
O772 O 0.92947 0.55112 0.77654 0.0
N773 N 0.89414 0.53018 0.84083 0.0
C774 C 0.90452 0.52628 0.85508 0.0
C775 C 0.899 0.50874 0.86177 0.0
C776 C 0.88283 0.49547 0.85384 0.0
C777 C 0.8723 0.49987 0.8393 0.0
C778 C 0.87843 0.51761 0.83327 0.0
H779 H 0.91699 0.53638 0.86121 0.0
O780 O 0.93816 0.53343 0.80667 0.0
O781 O 0.91244 0.54287 0.8112 0.0
O782 O 0.9433 0.57055 0.83151 0.0
O783 O 0.91881 0.56645 0.84785 0.0
C784 C 0.85607 0.48723 0.83039 0.0
C785 C 0.84646 0.49235 0.81545 0.0
H786 H 0.83209 0.5068 0.78675 0.0
H787 H 0.84555 0.53842 0.77751 0.0
H788 H 0.90723 0.50544 0.87297 0.0
H789 H 0.87869 0.48189 0.85894 0.0
H790 H 0.851 0.47341 0.83475 0.0
H791 H 0.83415 0.48237 0.80853 0.0
Mn792 Mn 0.8186 0.42505 0.52524 0.0
Mn793 Mn 0.83419 0.4617 0.50209 0.0
C794 C 0.84872 0.43218 0.51935 0.0
C795 C 0.81255 0.41202 0.55205 0.0
C796 C 0.81276 0.42193 0.48265 0.0
O797 O 0.79892 0.44068 0.52782 0.0
O798 O 0.81038 0.46421 0.51162 0.0
C799 C 0.84087 0.49442 0.53455 0.0
N800 N 0.84715 0.48395 0.51985 0.0
C801 C 0.8772 0.50465 0.52678 0.0
C802 C 0.87102 0.51572 0.54193 0.0
C803 C 0.85279 0.51055 0.54584 0.0
C804 C 0.86468 0.48878 0.51598 0.0
H805 H 0.82689 0.49046 0.53766 0.0
C806 C 0.79816 0.45603 0.52114 0.0
O807 O 0.80404 0.40359 0.53581 0.0
O808 O 0.82376 0.42879 0.55294 0.0
N809 N 0.8572 0.46126 0.4923 0.0
C810 C 0.86117 0.44864 0.47764 0.0
C811 C 0.87896 0.45154 0.47214 0.0
C812 C 0.89242 0.46746 0.48165 0.0
C813 C 0.88795 0.4804 0.49653 0.0
C814 C 0.86996 0.47686 0.50128 0.0
H815 H 0.85089 0.43636 0.47028 0.0
O816 O 0.84117 0.41489 0.52216 0.0
O817 O 0.83842 0.4448 0.51997 0.0
O818 O 0.81025 0.41494 0.49756 0.0
O819 O 0.82158 0.43933 0.48262 0.0
C820 C 0.90072 0.49646 0.50704 0.0
C821 C 0.89536 0.50856 0.52218 0.0
H822 H 0.88019 0.52812 0.55073 0.0
H823 H 0.84795 0.51897 0.55756 0.0
H824 H 0.8823 0.44149 0.46064 0.0
H825 H 0.90616 0.46955 0.47748 0.0
H826 H 0.91476 0.49949 0.50377 0.0
H827 H 0.90535 0.52072 0.53031 0.0
Mn828 Mn 0.67372 0.52095 0.26551 0.0
Mn829 Mn 0.70958 0.53296 0.29906 0.0
C830 C 0.69003 0.5545 0.27574 0.0
C831 C 0.65976 0.51613 0.23248 0.0
C832 C 0.67 0.52307 0.30954 0.0
O833 O 0.68293 0.4936 0.2643 0.0
O834 O 0.70579 0.50446 0.28744 0.0
C835 C 0.73887 0.5276 0.27438 0.0
N836 N 0.7317 0.53924 0.28743 0.0
C837 C 0.7568 0.5665 0.2877 0.0
C838 C 0.76448 0.55476 0.27436 0.0
C839 C 0.75546 0.53523 0.26766 0.0
C840 C 0.74027 0.55806 0.29396 0.0
H841 H 0.73198 0.51262 0.26907 0.0
C842 C 0.69656 0.49062 0.27461 0.0
O843 O 0.6508 0.51074 0.24618 0.0
O844 O 0.67707 0.5222 0.2374 0.0
N845 N 0.71531 0.55988 0.31112 0.0
C846 C 0.70578 0.56953 0.32343 0.0
C847 C 0.71284 0.58931 0.33122 0.0
C848 C 0.72964 0.59897 0.32632 0.0
C849 C 0.73928 0.58871 0.31376 0.0
C850 C 0.73167 0.56895 0.30661 0.0
H851 H 0.69282 0.56226 0.32722 0.0
O852 O 0.67317 0.55003 0.26887 0.0
O853 O 0.69663 0.53925 0.27728 0.0
O854 O 0.66268 0.51935 0.29234 0.0
O855 O 0.68737 0.52758 0.31304 0.0
C856 C 0.75601 0.59743 0.30782 0.0
C857 C 0.76475 0.58634 0.29478 0.0
H858 H 0.77723 0.56062 0.26906 0.0
H859 H 0.76126 0.5261 0.2573 0.0
H860 H 0.7053 0.59713 0.34088 0.0
H861 H 0.73494 0.61429 0.33217 0.0
H862 H 0.76216 0.61272 0.31302 0.0
H863 H 0.7775 0.59326 0.29016 0.0
Tb864 Tb 0.03782 0.02742 0.00823 0.0
C865 C 0.07703 0.10428 0.05351 0.0
C866 C 0.07927 0.12689 0.03178 0.0
C867 C 0.07699 0.13848 0.06477 0.0
C868 C 0.07787 0.1077 0.03531 0.0
C869 C 0.07734 0.11982 0.06851 0.0
C870 C 0.07798 0.14202 0.04642 0.0
C871 C 0.08162 0.09834 0.09002 0.0
N872 N 0.07795 0.08622 0.05671 0.0
C873 C 0.08138 0.08343 0.07473 0.0
C874 C 0.07911 0.11647 0.0869 0.0
Tb875 Tb 0.07634 0.06271 0.03037 0.0
N876 N 0.07933 0.09276 0.02147 0.0
C877 C 0.08462 0.09683 1.00452 0.0
C878 C 0.08295 0.13057 0.0139 0.0
C879 C 0.08608 0.11558 1.00038 0.0
H880 H 0.08338 0.06953 0.07745 0.0
H881 H 0.08961 0.11842 0.9867 0.0
H882 H 0.07864 0.15672 0.04386 0.0
H883 H 0.08372 0.09582 0.10419 0.0
H884 H 0.08735 0.08584 0.99371 0.0
H885 H 0.02653 0.97009 0.04992 0.0
H886 H 0.08413 0.14507 0.01064 0.0
H887 H 0.02934 0.02206 0.96124 0.0
H888 H 0.02831 1.00315 0.04399 0.0
H889 H 0.02849 0.99658 0.93371 0.0
H890 H 0.07691 0.1505 0.07608 0.0
H891 H 0.03175 0.94421 0.02495 0.0
H892 H 0.03654 0.93369 0.99127 0.0
H893 H 0.07943 0.12804 0.09878 0.0
H894 H 0.0371 0.94098 0.95935 0.0
N895 N 0.03581 0.99706 0.01597 0.0
C896 C 0.0309 0.9924 0.03283 0.0
C897 C 0.03276 0.9589 0.02222 0.0
C898 C 0.03599 0.96322 1.00444 0.0
C899 C 0.02973 0.97344 0.03632 0.0
C900 C 0.03706 0.98258 1.00159 0.0
H901 H 0.03341 0.96417 0.93771 0.0
N902 N 0.03582 1.00481 0.98109 0.0
C903 C 0.03116 0.99365 0.94764 0.0
C904 C 0.03713 0.9866 0.98356 0.0
C905 C 0.03175 1.00814 0.96339 0.0
C906 C 0.03401 0.9754 0.94995 0.0
C907 C 0.03651 0.97149 0.96805 0.0
O908 O 0.01524 0.04075 0.01076 0.0
O909 O 0.05045 0.05844 0.01431 0.0
O910 O 0.0542 0.06426 0.04994 0.0
O911 O 0.03344 0.03489 0.03889 0.0
O912 O 0.03729 0.04714 0.98809 0.0
O913 O 0.01135 0.00972 1.00327 0.0
O914 O 0.09864 0.04937 0.02582 0.0
O915 O 0.06366 0.03173 0.02466 0.0
O916 O 0.05962 0.02587 0.98824 0.0
O917 O 0.08087 0.05488 0.99971 0.0
O918 O 0.07656 0.04338 0.0509 0.0
O919 O 0.10285 0.07939 0.03906 0.0
C920 C 0.04623 0.06302 0.99867 0.0
C921 C 0.98938 0.02423 0.99002 0.0
C922 C 0.96303 0.03605 0.9796 0.0
C923 C 0.97704 0.03647 0.99341 0.0
C924 C 0.96188 0.02362 0.96213 0.0
C925 C 0.98759 0.01152 0.97265 0.0
C926 C 0.97409 0.01146 0.95873 0.0
C927 C 0.03951 0.05085 0.05211 0.0
C928 C 1.0035 0.02441 1.005 0.0
C929 C 0.03726 0.95268 0.97107 0.0
C930 C 0.03696 0.94853 0.98925 0.0
C931 C 0.06787 0.02735 0.04042 0.0
C932 C 0.12254 0.06085 0.05006 0.0
C933 C 0.13237 0.04619 0.04592 0.0
C934 C 0.14415 0.04236 0.05986 0.0
C935 C 0.14572 0.0532 0.07816 0.0
C936 C 0.12466 0.07182 0.06837 0.0
C937 C 0.13604 0.06784 0.08233 0.0
C938 C 0.07454 0.03911 0.98626 0.0
C939 C 0.11028 0.06449 0.03512 0.0
H940 H 0.97801 0.04583 0.00701 0.0
H941 H 0.95144 0.0232 0.95112 0.0
H942 H 0.99642 1.00142 0.96985 0.0
H943 H 0.97291 1.00173 0.94534 0.0
H944 H 0.13085 0.03777 0.0318 0.0
H945 H 0.15484 0.05075 0.08913 0.0
H946 H 0.11766 0.08354 0.07193 0.0
H947 H 0.13756 0.07633 0.09639 0.0
Tb948 Tb 0.31077 0.77868 0.25635 0.0
C949 C 0.30987 0.86004 0.30336 0.0
C950 C 0.33972 0.87221 0.32006 0.0
C951 C 0.32054 0.89487 0.31593 0.0
C952 C 0.32582 0.85641 0.31052 0.0
C953 C 0.30707 0.87935 0.30591 0.0
C954 C 0.33683 0.89129 0.32306 0.0
C955 C 0.27739 0.86666 0.28931 0.0
N956 N 0.29709 0.84473 0.29379 0.0
C957 C 0.28064 0.84785 0.28747 0.0
C958 C 0.2907 0.88253 0.29851 0.0
Tb959 Tb 0.30186 0.81371 0.29396 0.0
N960 N 0.32815 0.83769 0.30717 0.0
C961 C 0.3453 0.83478 0.31151 0.0
C962 C 0.35639 0.86859 0.32581 0.0
C963 C 0.35929 0.84985 0.32117 0.0
H964 H 0.26962 0.83582 0.28118 0.0
H965 H 0.37255 0.84704 0.32449 0.0
H966 H 0.34731 0.90347 0.33042 0.0
H967 H 0.26443 0.86883 0.28396 0.0
H968 H 0.34933 0.8214 0.30666 0.0
H969 H 0.2513 0.7191 0.2463 0.0
H970 H 0.36738 0.8803 0.33303 0.0
H971 H 0.35362 0.77503 0.24987 0.0
H972 H 0.26808 0.75227 0.24535 0.0
H973 H 0.37236 0.75094 0.25202 0.0
H974 H 0.31858 0.90972 0.31809 0.0
H975 H 0.26733 0.69506 0.25645 0.0
H976 H 0.29718 0.68629 0.26395 0.0
H977 H 0.28809 0.8971 0.30013 0.0
H978 H 0.3306 0.6949 0.265 0.0
N979 N 0.29359 0.74787 0.25591 0.0
C980 C 0.27541 0.74224 0.25009 0.0
C981 C 0.27485 0.70976 0.25623 0.0
C982 C 0.29377 0.71496 0.26012 0.0
C983 C 0.26575 0.72328 0.25052 0.0
C984 C 0.30288 0.73428 0.25953 0.0
H985 H 0.35873 0.71874 0.2597 0.0
N986 N 0.32961 0.75726 0.25746 0.0
C987 C 0.35816 0.74752 0.25462 0.0
C988 C 0.32161 0.73907 0.2601 0.0
C989 C 0.34746 0.76126 0.25362 0.0
C990 C 0.35043 0.72937 0.25899 0.0
C991 C 0.33183 0.72476 0.26132 0.0
O992 O 0.31402 0.79241 0.23278 0.0
O993 O 0.3151 0.80896 0.26911 0.0
O994 O 0.29029 0.81718 0.26605 0.0
O995 O 0.28384 0.78517 0.25104 0.0
O996 O 0.33718 0.79954 0.25891 0.0
O997 O 0.30672 0.76132 0.22929 0.0
O998 O 0.27364 0.80883 0.29595 0.0
O999 O 0.29274 0.78433 0.27758 0.0
O1000 O 0.32849 0.77705 0.28134 0.0
O1001 O 0.32251 0.80018 0.30624 0.0
O1002 O 0.29678 0.78733 0.30611 0.0
O1003 O 0.29254 0.82232 0.32022 0.0
C1004 C 0.33171 0.81442 0.26722 0.0
C1005 C 0.32516 0.77505 0.2073 0.0
C1006 C 0.34033 0.78853 0.18208 0.0
C1007 C 0.32799 0.78918 0.19581 0.0
C1008 C 0.34999 0.77355 0.17994 0.0
C1009 C 0.335 0.76019 0.20514 0.0
C1010 C 0.3474 0.75955 0.19154 0.0
C1011 C 0.2807 0.80298 0.25278 0.0
C1012 C 0.3116 0.77612 0.22103 0.0
C1013 C 0.32296 0.706 0.26369 0.0
C1014 C 0.30393 0.70111 0.26313 0.0
C1015 C 0.2906 0.77499 0.29093 0.0
C1016 C 0.26399 0.80274 0.32496 0.0
C1017 C 0.27119 0.79074 0.33549 0.0
C1018 C 0.25973 0.77723 0.34418 0.0
C1019 C 0.24094 0.77687 0.34308 0.0
C1020 C 0.24524 0.80189 0.32385 0.0
C1021 C 0.23382 0.78917 0.33304 0.0
C1022 C 0.33134 0.78651 0.29912 0.0
C1023 C 0.27547 0.81526 0.31395 0.0
H1024 H 0.32018 0.80045 0.19724 0.0
H1025 H 0.35952 0.77273 0.16936 0.0
H1026 H 0.33304 0.74905 0.21379 0.0
H1027 H 0.35492 0.74806 0.18988 0.0
H1028 H 0.28565 0.79156 0.33645 0.0
H1029 H 0.23169 0.76723 0.35007 0.0
H1030 H 0.23942 0.81098 0.31575 0.0
H1031 H 0.21936 0.78867 0.33222 0.0
Tb1032 Tb 0.57615 0.04765 0.52374 0.0
C1033 C 0.5073 0.99801 0.51426 0.0
C1034 C 0.48663 1.00003 0.48837 0.0
C1035 C 0.48801 0.96831 0.4959 0.0
C1036 C 0.5005 0.009 0.50289 0.0
C1037 C 0.50073 0.97755 0.51127 0.0
C1038 C 0.48095 0.97955 0.48445 0.0
C1039 C 0.51833 0.97722 0.53992 0.0
N1040 N 0.5195 1.00754 0.52899 0.0
C1041 C 0.52454 0.9975 0.54217 0.0
C1042 C 0.50666 0.96713 0.52419 0.0
Tb1043 Tb 0.52909 0.04078 0.53113 0.0
N1044 N 0.50613 0.02869 0.50736 0.0
C1045 C 0.49636 0.04028 0.49988 0.0
C1046 C 0.47817 0.01196 0.47903 0.0
C1047 C 0.48272 0.03219 0.48517 0.0
H1048 H 0.53321 1.0049 0.55457 0.0
H1049 H 0.47558 0.04152 0.47877 0.0
H1050 H 0.47054 0.97234 0.47315 0.0
H1051 H 0.52262 0.96938 0.5503 0.0
H1052 H 0.49944 0.05585 0.50502 0.0
H1053 H 0.5998 0.10036 0.58745 0.0
H1054 H 0.46744 1.00566 0.46781 0.0
H1055 H 0.58939 0.04675 0.48091 0.0
H1056 H 0.58455 0.06835 0.56868 0.0
H1057 H 0.60604 0.0701 0.46272 0.0
H1058 H 0.48305 0.95258 0.49317 0.0
H1059 H 0.61444 0.12706 0.57169 0.0
H1060 H 0.62331 0.13822 0.54164 0.0
H1061 H 0.50193 0.95141 0.52244 0.0
H1062 H 0.6247 0.13007 0.50748 0.0
N1063 N 0.5901 0.07678 0.54245 0.0
C1064 C 0.59083 0.0798 0.5616 0.0
C1065 C 0.60777 0.113 0.56337 0.0
C1066 C 0.60768 0.10953 0.54382 0.0
C1067 C 0.59954 0.09795 0.57231 0.0
C1068 C 0.59874 0.09099 0.53368 0.0
H1069 H 0.6185 0.10456 0.4779 0.0
N1070 N 0.59151 0.06808 0.50574 0.0
C1071 C 0.6041 0.07498 0.47726 0.0
C1072 C 0.59929 0.08654 0.51456 0.0
C1073 C 0.59471 0.0618 0.48758 0.0
C1074 C 0.61106 0.09443 0.48586 0.0
C1075 C 0.6091 0.10031 0.50488 0.0
O1076 O 0.59304 0.02978 0.51137 0.0
O1077 O 0.55075 0.02616 0.52267 0.0
O1078 O 0.54414 0.04093 0.55796 0.0
O1079 O 0.57115 0.03383 0.5481 0.0
O1080 O 0.56559 0.02457 0.49965 0.0
O1081 O 0.59838 0.04353 0.54024 0.0
O1082 O 0.51171 0.03452 0.55217 0.0
O1083 O 0.55572 0.06074 0.53782 0.0
O1084 O 0.56301 0.05915 0.50165 0.0
O1085 O 0.53197 0.0453 0.50217 0.0
O1086 O 0.53398 0.07149 0.52886 0.0
O1087 O 0.51266 0.06036 0.54049 0.0
C1088 C 0.5513 0.01616 0.5065 0.0
C1089 C 0.62358 0.03674 0.52468 0.0
C1090 C 0.65279 0.02686 0.52644 0.0
C1091 C 0.63376 0.02274 0.52743 0.0
C1092 C 0.66131 0.04504 0.52227 0.0
C1093 C 0.63249 0.05479 0.52078 0.0
C1094 C 0.65122 0.05885 0.51946 0.0
C1095 C 0.55948 0.03523 0.56082 0.0
C1096 C 0.60385 0.03255 0.52658 0.0
C1097 C 0.61729 0.11917 0.51469 0.0
C1098 C 0.61655 0.12379 0.53415 0.0
C1099 C 0.55103 0.07619 0.53456 0.0
C1100 C 0.48396 0.04547 0.54885 0.0
C1101 C 0.47513 0.06058 0.54593 0.0
C1102 C 0.45599 0.05738 0.54472 0.0
C1103 C 0.44573 0.03896 0.54632 0.0
C1104 C 0.47331 0.02709 0.55022 0.0
C1105 C 0.45434 0.02391 0.54892 0.0
C1106 C 0.54581 0.05494 0.49451 0.0
C1107 C 0.50415 0.04921 0.55107 0.0
H1108 H 0.62695 0.00888 0.53075 0.0
H1109 H 0.67583 0.04858 0.52105 0.0
H1110 H 0.62506 0.06583 0.51888 0.0
H1111 H 0.65797 0.0728 0.51635 0.0
H1112 H 0.48309 0.07487 0.54492 0.0
H1113 H 0.431 0.03621 0.54545 0.0
H1114 H 0.4796 0.01517 0.55241 0.0
H1115 H 0.44628 0.00972 0.55005 0.0
Tb1116 Tb 0.28568 0.29949 0.77257 0.0
C1117 C 0.35015 0.29696 0.81616 0.0
C1118 C 0.37738 0.32187 0.81597 0.0
C1119 C 0.37101 0.30895 0.84444 0.0
C1120 C 0.3609 0.30983 0.80695 0.0
C1121 C 0.35523 0.29609 0.83494 0.0
C1122 C 0.38212 0.32178 0.83493 0.0
C1123 C 0.32961 0.26886 0.83301 0.0
N1124 N 0.33517 0.28463 0.80641 0.0
C1125 C 0.32512 0.27032 0.81442 0.0
C1126 C 0.34458 0.28198 0.84342 0.0
Tb1127 Tb 0.32923 0.28803 0.77598 0.0
N1128 N 0.35588 0.30941 0.78867 0.0
C1129 C 0.36792 0.31882 0.77791 0.0
C1130 C 0.38899 0.33291 0.8054 0.0
C1131 C 0.38441 0.33104 0.78618 0.0
H1132 H 0.31338 0.26021 0.80677 0.0
H1133 H 0.39358 0.33895 0.77772 0.0
H1134 H 0.3946 0.33111 0.8422 0.0
H1135 H 0.32141 0.25771 0.83935 0.0
H1136 H 0.36446 0.31734 0.763 0.0
H1137 H 0.25694 0.25149 0.70738 0.0
H1138 H 0.40181 0.34229 0.81178 0.0
H1139 H 0.28235 0.34502 0.78826 0.0
H1140 H 0.26943 0.25969 0.74053 0.0
H1141 H 0.27569 0.37293 0.77508 0.0
H1142 H 0.37503 0.30866 0.85893 0.0
H1143 H 0.25353 0.27785 0.69 0.0
H1144 H 0.25538 0.31378 0.69069 0.0
H1145 H 0.34799 0.28084 0.85783 0.0
H1146 H 0.26061 0.34712 0.70924 0.0
N1147 N 0.27342 0.29044 0.74196 0.0
C1148 C 0.26791 0.27135 0.73321 0.0
C1149 C 0.25901 0.28153 0.70458 0.0
C1150 C 0.26362 0.30098 0.71396 0.0
C1151 C 0.26084 0.26662 0.71437 0.0
C1152 C 0.27074 0.30493 0.73291 0.0
H1153 H 0.26785 0.3693 0.74091 0.0
N1154 N 0.27925 0.32609 0.76169 0.0
C1155 C 0.27527 0.35915 0.76591 0.0
C1156 C 0.27378 0.32353 0.74319 0.0
C1157 C 0.27902 0.34331 0.77332 0.0
C1158 C 0.2709 0.35707 0.74661 0.0
C1159 C 0.26966 0.33893 0.73504 0.0
O1160 O 0.26946 0.30667 0.79446 0.0
O1161 O 0.30678 0.29414 0.79137 0.0
O1162 O 0.30918 0.25943 0.77349 0.0
O1163 O 0.28095 0.26788 0.77397 0.0
O1164 O 0.29635 0.3187 0.79903 0.0
O1165 O 0.25844 0.2839 0.77125 0.0
O1166 O 0.341 0.2637 0.77653 0.0
O1167 O 0.30498 0.28572 0.75747 0.0
O1168 O 0.30635 0.32554 0.76752 0.0
O1169 O 0.33368 0.32058 0.78054 0.0
O1170 O 0.32968 0.2978 0.74914 0.0
O1171 O 0.34561 0.2802 0.75454 0.0
C1172 C 0.3077 0.30902 0.80418 0.0
C1173 C 0.23767 0.30041 0.78657 0.0
C1174 C 0.20797 0.30072 0.79879 0.0
C1175 C 0.22494 0.29524 0.79948 0.0
C1176 C 0.20425 0.31186 0.78534 0.0
C1177 C 0.23342 0.31132 0.77322 0.0
C1178 C 0.21689 0.31712 0.77273 0.0
C1179 C 0.29112 0.25468 0.77376 0.0
C1180 C 0.25503 0.29386 0.78679 0.0
C1181 C 0.26363 0.33543 0.71586 0.0
C1182 C 0.26064 0.31646 0.70531 0.0
C1183 C 0.31259 0.29217 0.74389 0.0
C1184 C 0.37083 0.26927 0.76611 0.0
C1185 C 0.38256 0.2741 0.75217 0.0
C1186 C 0.40168 0.27712 0.75579 0.0
C1187 C 0.40875 0.27482 0.77343 0.0
C1188 C 0.37849 0.26725 0.78357 0.0
C1189 C 0.39727 0.26997 0.78713 0.0
C1190 C 0.32394 0.33207 0.77393 0.0
C1191 C 0.3508 0.26718 0.76276 0.0
H1192 H 0.22803 0.28655 0.80964 0.0
H1193 H 0.1915 0.31656 0.78458 0.0
H1194 H 0.24279 0.31519 0.76303 0.0
H1195 H 0.21377 0.32561 0.7624 0.0
H1196 H 0.37683 0.27595 0.73874 0.0
H1197 H 0.42326 0.27658 0.77664 0.0
H1198 H 0.37001 0.26371 0.79463 0.0
H1199 H 0.40297 0.26833 0.80063 0.0
Tb1200 Tb 0.05031 0.06208 0.53066 0.0
C1201 C 0.0785 0.01531 0.46817 0.0
C1202 C 0.05466 0.01047 0.443 0.0
C1203 C 0.08601 0.01262 0.43581 0.0
C1204 C 0.06038 0.01375 0.46234 0.0
C1205 C 0.09138 0.01401 0.4549 0.0
C1206 C 0.06765 0.01082 0.42986 0.0
C1207 C 0.11307 0.01206 0.47985 0.0
N1208 N 0.08309 0.016 0.48666 0.0
C1209 C 0.09976 0.01306 0.49243 0.0
C1210 C 0.109 0.01301 0.46109 0.0
Tb1211 Tb 0.06059 0.01981 0.50609 0.0
N1212 N 0.04815 0.0131 0.47544 0.0
C1213 C 0.02995 1.00649 0.46981 0.0
C1214 C 0.036 1.00571 0.43738 0.0
C1215 C 0.02362 1.00317 0.45081 0.0
H1216 H 0.10307 0.01213 0.50685 0.0
H1217 H 0.00916 0.99868 0.44655 0.0
H1218 H 0.06353 0.00872 0.41499 0.0
H1219 H 0.12643 0.01047 0.48463 0.0
H1220 H 0.02 1.00419 0.47973 0.0
H1221 H 0.10433 0.08625 0.58725 0.0
H1222 H 0.03105 1.00307 0.42268 0.0
H1223 H 1.00594 0.06065 0.53071 0.0
H1224 H 0.09151 0.07722 0.5544 0.0
H1225 H 0.9836 0.06324 0.55396 0.0
H1226 H 0.09576 0.01193 0.42544 0.0
H1227 H 0.08397 0.08585 0.61281 0.0
H1228 H 0.05207 0.08155 0.62246 0.0
H1229 H 0.11928 0.01201 0.45133 0.0
H1230 H 0.01915 0.07547 0.61339 0.0
N1231 N 0.06387 0.07101 0.56088 0.0
C1232 C 0.0823 0.07695 0.56523 0.0
C1233 C 0.07819 0.08181 0.59833 0.0
C1234 C 0.05934 0.07694 0.59382 0.0
C1235 C 0.08972 0.08212 0.58395 0.0
C1236 C 0.05255 0.07172 0.57474 0.0
H1237 H 0.99351 0.06899 0.58787 0.0
N1238 N 0.02844 0.06456 0.55116 0.0
C1239 C 0.99778 0.06468 0.55859 0.0
C1240 C 0.03416 0.06845 0.5697 0.0
C1241 C 0.01054 0.06328 0.54544 0.0
C1242 C 1.00342 0.06786 0.57771 0.0
C1243 C 0.02185 0.07006 0.5835 0.0
O1244 O 0.03791 0.08423 0.52386 0.0
O1245 O 0.05054 0.0459 0.50179 0.0
O1246 O 0.08415 0.04259 0.50348 0.0
O1247 O 0.07816 0.06975 0.52268 0.0
O1248 O 0.0283 0.05674 0.5079 0.0
O1249 O 0.06648 0.09045 0.53357 0.0
O1250 O 0.05297 0.99826 0.5227 0.0
O1251 O 0.06157 0.03679 0.53433 0.0
O1252 O 0.0322 0.03694 0.53843 0.0
O1253 O 0.03161 0.01574 0.51064 0.0
O1254 O 0.08312 0.02466 0.52836 0.0
O1255 O 0.059 0.99028 0.49441 0.0
C1256 C 0.03533 0.04799 0.4942 0.0
C1257 C 0.05169 0.11683 0.53785 0.0
C1258 C 0.05241 0.15084 0.53591 0.0
C1259 C 0.05278 0.13174 0.52736 0.0
C1260 C 0.05093 0.15486 0.55532 0.0
C1261 C 0.05005 0.12087 0.55717 0.0
C1262 C 0.04965 0.13988 0.56584 0.0
C1263 C 0.08859 0.06111 0.5117 0.0
C1264 C 0.05295 0.09752 0.52801 0.0
C1265 C 0.0284 0.07432 0.60256 0.0
C1266 C 0.04713 0.07776 0.60772 0.0
C1267 C 0.07681 0.03479 0.54187 0.0
C1268 C 0.06634 0.97103 0.51625 0.0
C1269 C 0.06107 0.96177 0.53137 0.0
C1270 C 0.07035 0.94816 0.53691 0.0
C1271 C 0.08524 0.94412 0.52743 0.0
C1272 C 0.08128 0.96679 0.50691 0.0
C1273 C 0.09073 0.95351 0.51261 0.0
C1274 C 0.02453 0.02083 0.52645 0.0
C1275 C 0.05552 0.98424 0.50999 0.0
H1276 H 0.0544 0.12852 0.51248 0.0
H1277 H 0.05064 0.16948 0.56229 0.0
H1278 H 0.04925 0.10949 0.56549 0.0
H1279 H 0.04844 0.14303 0.58077 0.0
H1280 H 0.04935 0.96468 0.53842 0.0
H1281 H 0.09259 0.93366 0.53148 0.0
H1282 H 0.08554 0.97348 0.49508 0.0
H1283 H 0.1022 0.95029 0.50534 0.0
Tb1284 Tb 0.32666 0.80979 0.76328 0.0
C1285 C 0.27384 0.75287 0.80119 0.0
C1286 C 0.28334 0.72216 0.7972 0.0
C1287 C 0.26689 0.73144 0.82389 0.0
C1288 C 0.2826 0.73993 0.79133 0.0
C1289 C 0.26575 0.74881 0.81756 0.0
C1290 C 0.27566 0.7181 0.81369 0.0
C1291 C 0.25552 0.779 0.81973 0.0
N1292 N 0.27309 0.76943 0.79454 0.0
C1293 C 0.26372 0.78233 0.80339 0.0
C1294 C 0.25661 0.76222 0.82691 0.0
Tb1295 Tb 0.28669 0.7735 0.76739 0.0
N1296 N 0.28973 0.74441 0.77548 0.0
C1297 C 0.29663 0.73095 0.76404 0.0
C1298 C 0.29131 0.7088 0.78603 0.0
C1299 C 0.29775 0.71311 0.76922 0.0
H1300 H 0.26298 0.79558 0.79835 0.0
H1301 H 0.30357 0.70272 0.76023 0.0
H1302 H 0.27616 0.70459 0.81851 0.0
H1303 H 0.24845 0.78946 0.82683 0.0
H1304 H 0.30137 0.73394 0.75083 0.0
H1305 H 0.31021 0.88083 0.77217 0.0
H1306 H 0.29214 0.69497 0.79001 0.0
H1307 H 0.3498 0.78816 0.73161 0.0
H1308 H 0.31295 0.84958 0.78114 0.0
H1309 H 0.36281 0.79404 0.70223 0.0
H1310 H 0.26083 0.72807 0.83647 0.0
H1311 H 0.32004 0.88847 0.74177 0.0
H1312 H 0.33461 0.87872 0.71226 0.0
H1313 H 0.25025 0.75968 0.83957 0.0
H1314 H 0.34921 0.85518 0.69333 0.0
N1315 N 0.32338 0.83903 0.75575 0.0
C1316 C 0.31706 0.85255 0.76772 0.0
C1317 C 0.32114 0.87464 0.74559 0.0
C1318 C 0.32858 0.86123 0.73385 0.0
C1319 C 0.31561 0.87039 0.76275 0.0
C1320 C 0.32969 0.84346 0.73954 0.0
H1321 H 0.35994 0.82359 0.68956 0.0
N1322 N 0.33939 0.81408 0.73575 0.0
C1323 C 0.35591 0.80446 0.70968 0.0
C1324 C 0.33811 0.83053 0.72916 0.0
C1325 C 0.34859 0.80126 0.72648 0.0
C1326 C 0.35421 0.82112 0.70254 0.0
C1327 C 0.34538 0.83452 0.7124 0.0
O1328 O 0.35432 0.81303 0.77209 0.0
O1329 O 0.31627 0.77984 0.76783 0.0
O1330 O 0.29998 0.78552 0.79552 0.0
O1331 O 0.31345 0.81582 0.78913 0.0
O1332 O 0.34245 0.78655 0.76318 0.0
O1333 O 0.33845 0.83201 0.78614 0.0
O1334 O 0.25975 0.77141 0.75682 0.0
O1335 O 0.29718 0.8036 0.76318 0.0
O1336 O 0.31298 0.79744 0.73522 0.0
O1337 O 0.30023 0.76712 0.74188 0.0
O1338 O 0.27092 0.79678 0.76739 0.0
O1339 O 0.27461 0.75003 0.74564 0.0
C1340 C 0.33054 0.77239 0.76702 0.0
C1341 C 0.37019 0.84454 0.78688 0.0
C1342 C 0.40179 0.85822 0.79903 0.0
C1343 C 0.38642 0.84274 0.79593 0.0
C1344 C 0.40078 0.87574 0.79296 0.0
C1345 C 0.36933 0.86197 0.78058 0.0
C1346 C 0.38462 0.87751 0.78364 0.0
C1347 C 0.30741 0.80429 0.80107 0.0
C1348 C 0.35445 0.82808 0.78506 0.0
C1349 C 0.34378 0.85185 0.70621 0.0
C1350 C 0.33542 0.86522 0.71696 0.0
C1351 C 0.28295 0.81113 0.76404 0.0
C1352 C 0.24266 0.73945 0.74636 0.0
C1353 C 0.22562 0.74341 0.74229 0.0
C1354 C 0.20958 0.72937 0.74247 0.0
C1355 C 0.21069 0.71104 0.74659 0.0
C1356 C 0.24366 0.72116 0.75074 0.0
C1357 C 0.2277 0.70703 0.75081 0.0
C1358 C 0.30601 0.77855 0.72983 0.0
C1359 C 0.25891 0.75481 0.74577 0.0
H1360 H 0.38695 0.82932 0.80097 0.0
H1361 H 0.41248 0.88791 0.79524 0.0
H1362 H 0.35692 0.86366 0.7735 0.0
H1363 H 0.38392 0.89098 0.77886 0.0
H1364 H 0.22487 0.75746 0.73872 0.0
H1365 H 0.19846 0.69996 0.74675 0.0
H1366 H 0.25666 0.71774 0.75401 0.0
H1367 H 0.22851 0.69293 0.75413 0.0
Tb1368 Tb 0.56596 0.0289 0.04943 0.0
C1369 C 0.50887 0.05999 1.00628 0.0
C1370 C 0.4895 0.03153 0.98669 0.0
C1371 C 0.47723 0.05992 0.99785 0.0
C1372 C 0.50647 0.04124 0.99647 0.0
C1373 C 0.49444 0.06981 1.00675 0.0
C1374 C 0.47475 0.04078 0.98783 0.0
C1375 C 0.51559 0.09886 0.02322 0.0
N1376 N 0.52572 0.069 0.0145 0.0
C1377 C 0.52945 0.08847 0.02231 0.0
C1378 C 0.49793 0.08941 0.01563 0.0
Tb1379 Tb 0.54754 0.05078 0.01285 0.0
N1380 N 0.5211 0.03294 0.99569 0.0
C1381 C 0.51997 0.01544 0.984 0.0
C1382 C 0.48803 0.01311 0.97562 0.0
C1383 C 0.50343 1.00519 0.97401 0.0
H1384 H 0.543 0.09586 0.02838 0.0
H1385 H 0.50255 0.99112 0.96518 0.0
H1386 H 0.46154 0.03347 0.98061 0.0
H1387 H 0.51851 0.11411 0.02983 0.0
H1388 H 0.5316 0.00891 0.98264 0.0
H1389 H 0.61307 0.08923 0.09405 0.0
H1390 H 0.47522 1.00512 0.96792 0.0
H1391 H 0.56928 0.98323 0.03451 0.0
H1392 H 0.58333 0.07144 0.078 0.0
H1393 H 0.59321 0.96426 0.03302 0.0
H1394 H 0.46589 0.06711 0.9982 0.0
H1395 H 0.63983 0.07429 0.09114 0.0
H1396 H 0.65246 0.04491 0.07922 0.0
H1397 H 0.48722 0.09749 0.01631 0.0
H1398 H 0.647 0.0107 0.06279 0.0
N1399 N 0.59296 0.04658 0.06553 0.0
C1400 C 0.59474 0.06455 0.0766 0.0
C1401 C 0.62675 0.06634 0.08404 0.0
C1402 C 0.6246 0.04745 0.07369 0.0
C1403 C 0.61166 0.07478 0.08576 0.0
C1404 C 0.60728 0.03781 0.06467 0.0
H1405 H 0.62484 0.98035 0.0458 0.0
N1406 N 0.58719 0.00997 0.04777 0.0
C1407 C 0.59653 0.9796 0.03934 0.0
C1408 C 0.60426 0.01874 0.05552 0.0
C1409 C 0.58298 0.99041 0.04026 0.0
C1410 C 0.61437 0.98874 0.04652 0.0
C1411 C 0.61839 0.00851 0.05496 0.0
O1412 O 0.55386 1.00587 0.06251 0.0
O1413 O 0.54331 0.02922 0.03043 0.0
O1414 O 0.53329 0.05706 0.03773 0.0
O1415 O 0.55475 0.05423 0.06095 0.0
O1416 O 0.54561 1.00264 0.03556 0.0
O1417 O 0.56062 0.03579 0.07753 0.0
O1418 O 0.5587 0.07455 1.00018 0.0
O1419 O 0.57026 0.05051 0.0318 0.0
O1420 O 0.58015 0.02228 0.02472 0.0
O1421 O 0.55907 0.02556 1.00128 0.0
O1422 O 0.56751 0.07706 0.02717 0.0
O1423 O 0.55458 0.04476 0.98531 0.0
C1424 C 0.53572 0.01141 0.0266 0.0
C1425 C 0.56023 0.0111 0.09549 0.0
C1426 C 0.55557 0.00906 0.12799 0.0
C1427 C 0.55161 0.01587 0.11159 0.0
C1428 C 0.56847 0.99746 0.12831 0.0
C1429 C 0.57342 0.99983 0.0959 0.0
C1430 C 0.57752 0.99308 0.11233 0.0
C1431 C 0.54016 0.06031 0.05546 0.0
C1432 C 0.55433 0.01752 0.07849 0.0
C1433 C 0.6359 0.01822 0.06321 0.0
C1434 C 0.63901 0.0377 0.07254 0.0
C1435 C 0.57774 0.06837 0.0358 0.0
C1436 C 0.55356 0.06886 0.96714 0.0
C1437 C 0.56556 0.07024 0.95322 0.0
C1438 C 0.56013 0.07429 0.9358 0.0
C1439 C 0.54242 0.07707 0.93245 0.0
C1440 C 0.53596 0.07184 0.96384 0.0
C1441 C 0.53045 0.07601 0.94652 0.0
C1442 C 0.57356 0.01935 0.00694 0.0
C1443 C 0.55973 0.0632 0.98442 0.0
H1444 H 0.54132 0.02447 0.11119 0.0
H1445 H 0.57157 0.99193 0.14086 0.0
H1446 H 0.58031 0.99607 0.08357 0.0
H1447 H 0.58757 0.98425 0.11262 0.0
H1448 H 0.57902 0.0675 0.95575 0.0
H1449 H 0.5379 0.08008 0.91904 0.0
H1450 H 0.52649 0.07075 0.97447 0.0
H1451 H 0.51683 0.0782 0.94392 0.0
Tb1452 Tb 0.32194 0.31838 0.28533 0.0
C1453 C 0.25581 0.26404 0.23442 0.0
C1454 C 0.23007 0.25817 0.25265 0.0
C1455 C 0.22508 0.25738 0.21916 0.0
C1456 C 0.24904 0.26308 0.25149 0.0
C1457 C 0.24396 0.26067 0.21792 0.0
C1458 C 0.21813 0.25607 0.23653 0.0
C1459 C 0.27011 0.26139 0.20011 0.0
N1460 N 0.27405 0.26663 0.23384 0.0
C1461 C 0.28127 0.26455 0.21688 0.0
C1462 C 0.25139 0.25977 0.20065 0.0
Tb1463 Tb 0.2915 0.27181 0.26194 0.0
N1464 N 0.26107 0.26472 0.26656 0.0
C1465 C 0.25486 0.25946 0.28274 0.0
C1466 C 0.22372 0.25425 0.26965 0.0
C1467 C 0.23619 0.25441 0.28461 0.0
H1468 H 0.29573 0.266 0.21624 0.0
H1469 H 0.23144 0.25075 0.29765 0.0
H1470 H 0.20352 0.25259 0.23719 0.0
H1471 H 0.27598 0.26029 0.18681 0.0
H1472 H 0.26423 0.25941 0.29446 0.0
H1473 H 0.38165 0.33817 0.24867 0.0
H1474 H 0.20926 0.25027 0.2711 0.0
H1475 H 0.31814 0.32563 0.3312 0.0
H1476 H 0.34895 0.33003 0.25231 0.0
H1477 H 0.3381 0.33213 0.36052 0.0
H1478 H 0.21574 0.25497 0.20669 0.0
H1479 H 0.40407 0.33939 0.27525 0.0
H1480 H 0.41012 0.33842 0.30949 0.0
H1481 H 0.24276 0.2572 0.18764 0.0
H1482 H 0.39818 0.33703 0.34026 0.0
N1483 N 0.35235 0.32578 0.28056 0.0
C1484 C 0.35841 0.33037 0.26409 0.0
C1485 C 0.38965 0.3357 0.27693 0.0
C1486 C 0.38346 0.33257 0.2942 0.0
C1487 C 0.37704 0.33509 0.26194 0.0
C1488 C 0.36452 0.32788 0.2956 0.0
H1489 H 0.37131 0.3353 0.35953 0.0
N1490 N 0.33968 0.32473 0.31342 0.0
C1491 C 0.34387 0.33075 0.34717 0.0
C1492 C 0.3579 0.32735 0.31275 0.0
C1493 C 0.33259 0.32714 0.33043 0.0
C1494 C 0.36259 0.33242 0.34655 0.0
C1495 C 0.36988 0.33111 0.3292 0.0
O1496 O 0.31398 0.34357 0.29842 0.0
O1497 O 0.2949 0.30033 0.27873 0.0
O1498 O 0.28818 0.29512 0.24626 0.0
O1499 O 0.31672 0.31624 0.25463 0.0
O1500 O 0.29925 0.32143 0.3023 0.0
O1501 O 0.32547 0.34264 0.27179 0.0
O1502 O 0.29783 0.24616 0.24761 0.0
O1503 O 0.31859 0.28963 0.26898 0.0
O1504 O 0.32486 0.2955 0.30184 0.0
O1505 O 0.29686 0.27334 0.29253 0.0
O1506 O 0.31452 0.26867 0.24538 0.0
O1507 O 0.28778 0.24725 0.27497 0.0
C1508 C 0.28709 0.30801 0.29194 0.0
C1509 C 0.32828 0.37359 0.29092 0.0
C1510 C 0.32563 0.40756 0.29587 0.0
C1511 C 0.31794 0.38757 0.28993 0.0
C1512 C 0.34419 0.41341 0.30245 0.0
C1513 C 0.34672 0.37945 0.29766 0.0
C1514 C 0.35465 0.39938 0.30332 0.0
C1515 C 0.30141 0.3096 0.24326 0.0
C1516 C 0.31898 0.35309 0.2851 0.0
C1517 C 0.38874 0.33433 0.32782 0.0
C1518 C 0.39553 0.33508 0.3103 0.0
C1519 C 0.32661 0.28189 0.25603 0.0
C1520 C 0.2812 0.21673 0.25459 0.0
C1521 C 0.28959 0.20095 0.25395 0.0
C1522 C 0.27933 0.18171 0.24933 0.0
C1523 C 0.26042 0.17829 0.24517 0.0
C1524 C 0.26234 0.2133 0.25006 0.0
C1525 C 0.25201 0.1941 0.24534 0.0
C1526 C 0.31174 0.28066 0.30446 0.0
C1527 C 0.2926 0.23638 0.26072 0.0
H1528 H 0.30376 0.38278 0.28438 0.0
H1529 H 0.35052 0.42873 0.30715 0.0
H1530 H 0.35487 0.36872 0.29855 0.0
H1531 H 0.36889 0.40396 0.30852 0.0
H1532 H 0.30415 0.20367 0.25769 0.0
H1533 H 0.25226 0.1635 0.2418 0.0
H1534 H 0.25561 0.22533 0.25037 0.0
H1535 H 0.23744 0.19147 0.24202 0.0
Tb1536 Tb 0.55175 0.5666 0.03364 0.0
C1537 C 0.58 0.51763 0.97009 0.0
C1538 C 0.55552 0.50909 0.94521 0.0
C1539 C 0.58676 0.5114 0.93755 0.0
C1540 C 0.56175 0.51444 0.96444 0.0
C1541 C 0.59274 0.51578 0.95677 0.0
C1542 C 0.56816 0.50805 0.93178 0.0
C1543 C 0.61603 0.52116 0.98243 0.0
N1544 N 0.58515 0.52164 0.98876 0.0
C1545 C 0.60287 0.5228 0.99509 0.0
C1546 C 0.61099 0.51786 0.96317 0.0
Tb1547 Tb 0.56266 0.52454 0.00848 0.0
N1548 N 0.55001 0.51531 0.97789 0.0
C1549 C 0.53165 0.5094 0.97296 0.0
C1550 C 0.53676 0.50427 0.94011 0.0
C1551 C 0.52478 0.50412 0.95408 0.0
H1552 H 0.60706 0.52549 0.0099 0.0
H1553 H 0.51023 0.50001 0.95032 0.0
H1554 H 0.56365 0.50416 0.91694 0.0
H1555 H 0.63007 0.52249 0.98754 0.0
H1556 H 0.52207 0.50918 0.98344 0.0
H1557 H 0.60368 0.59023 0.09234 0.0
H1558 H 0.53141 0.50012 0.9255 0.0
H1559 H 0.50759 0.56723 0.03177 0.0
H1560 H 0.59215 0.58126 0.05916 0.0
H1561 H 0.48453 0.5711 0.0538 0.0
H1562 H 0.59634 0.51007 0.92708 0.0
H1563 H 0.58226 0.59075 0.1169 0.0
H1564 H 0.54996 0.58769 0.1251 0.0
H1565 H 0.62121 0.51655 0.9534 0.0
H1566 H 0.51745 0.58271 0.11459 0.0
N1567 N 0.5641 0.57584 0.06437 0.0
C1568 C 0.58245 0.58133 0.0695 0.0
C1569 C 0.57704 0.5867 0.10225 0.0
C1570 C 0.55833 0.58239 0.09695 0.0
C1571 C 0.58915 0.58648 0.08843 0.0
C1572 C 0.55227 0.57712 0.07767 0.0
H1573 H 0.49297 0.57691 0.08801 0.0
N1574 N 0.52922 0.57047 0.05311 0.0
C1575 C 0.49843 0.57199 0.05908 0.0
C1576 C 0.53415 0.57443 0.07183 0.0
C1577 C 0.51166 0.56982 0.04659 0.0
C1578 C 0.50323 0.57521 0.07837 0.0
C1579 C 0.52133 0.57674 0.08498 0.0
O1580 O 0.54129 0.58912 0.02462 0.0
O1581 O 0.55176 0.55002 1.0051 0.0
O1582 O 0.58087 0.54931 1.00037 0.0
O1583 O 0.58041 0.57165 0.02726 0.0
O1584 O 0.52969 0.56095 0.01079 0.0
O1585 O 0.5691 0.59436 0.03635 0.0
O1586 O 0.57393 0.50205 0.01641 0.0
O1587 O 0.56246 0.54097 0.03696 0.0
O1588 O 0.53297 0.54207 0.04163 0.0
O1589 O 0.53418 0.51908 0.01534 0.0
O1590 O 0.58453 0.52995 0.03156 0.0
O1591 O 0.54578 0.49657 1.00568 0.0
C1592 C 0.53653 0.55163 0.99732 0.0
C1593 C 0.5557 0.62168 0.03804 0.0
C1594 C 0.55824 0.65564 0.0346 0.0
C1595 C 0.55838 0.63619 0.02699 0.0
C1596 C 0.55543 0.6604 0.05366 0.0
C1597 C 0.55277 0.6265 0.05697 0.0
C1598 C 0.55264 0.64585 0.06472 0.0
C1599 C 0.58795 0.56594 0.01189 0.0
C1600 C 0.5566 0.60186 0.02925 0.0
C1601 C 0.5271 0.58104 0.10424 0.0
C1602 C 0.5456 0.58386 0.11023 0.0
C1603 C 0.57753 0.53922 0.04495 0.0
C1604 C 0.55985 0.46973 1.00192 0.0
C1605 C 0.55753 0.45439 0.01199 0.0
C1606 C 0.55754 0.43529 1.00313 0.0
C1607 C 0.55999 0.43172 0.9839 0.0
C1608 C 0.56244 0.46609 0.9828 0.0
C1609 C 0.56255 0.4471 0.97385 0.0
C1610 C 0.52639 0.52504 0.03048 0.0
C1611 C 0.55874 0.48908 0.01183 0.0
H1612 H 0.56095 0.63234 0.01243 0.0
H1613 H 0.55521 0.67526 0.05992 0.0
H1614 H 0.55072 0.61543 0.0657 0.0
H1615 H 0.5504 0.6496 0.07935 0.0
H1616 H 0.55521 0.45728 0.02672 0.0
H1617 H 0.56004 0.4171 0.97672 0.0
H1618 H 0.5642 0.47777 0.9748 0.0
H1619 H 0.56449 0.44428 0.95906 0.0
Tb1620 Tb 0.82522 0.3122 0.2651 0.0
C1621 C 0.77286 0.25217 0.30022 0.0
C1622 C 0.78252 0.22161 0.2937 0.0
C1623 C 0.76646 0.22881 0.32123 0.0
C1624 C 0.78159 0.23998 0.28928 0.0
C1625 C 0.76496 0.24671 0.31623 0.0
C1626 C 0.77521 0.21625 0.30995 0.0
C1627 C 0.75374 0.27639 0.32038 0.0
N1628 N 0.77163 0.2692 0.29476 0.0
C1629 C 0.76173 0.28108 0.30431 0.0
C1630 C 0.75549 0.2592 0.32647 0.0
Tb1631 Tb 0.78506 0.27569 0.26811 0.0
N1632 N 0.78828 0.24569 0.27368 0.0
C1633 C 0.79497 0.23297 0.2611 0.0
C1634 C 0.79021 0.20898 0.28134 0.0
C1635 C 0.79619 0.21457 0.2648 0.0
H1636 H 0.76042 0.29456 0.30001 0.0
H1637 H 0.80183 0.20478 0.25492 0.0
H1638 H 0.77591 0.20228 0.31368 0.0
H1639 H 0.74629 0.28607 0.32808 0.0
H1640 H 0.79957 0.23702 0.2482 0.0
H1641 H 0.80913 0.38346 0.27496 0.0
H1642 H 0.79118 0.19473 0.28419 0.0
H1643 H 0.84842 0.29083 0.23318 0.0
H1644 H 0.81141 0.35185 0.28336 0.0
H1645 H 0.86181 0.29727 0.20417 0.0
H1646 H 0.76057 0.22437 0.33354 0.0
H1647 H 0.81965 0.39178 0.24502 0.0
H1648 H 0.83464 0.38256 0.21569 0.0
H1649 H 0.74924 0.25557 0.33889 0.0
H1650 H 0.84926 0.35919 0.19654 0.0
N1651 N 0.82229 0.34176 0.25808 0.0
C1652 C 0.81581 0.35511 0.27012 0.0
C1653 C 0.82056 0.37779 0.24859 0.0
C1654 C 0.82811 0.36454 0.23678 0.0
C1655 C 0.81463 0.37317 0.26549 0.0
C1656 C 0.82896 0.34656 0.24214 0.0
H1657 H 0.85956 0.32737 0.1922 0.0
N1658 N 0.83838 0.31699 0.23787 0.0
C1659 C 0.85501 0.30769 0.21179 0.0
C1660 C 0.83741 0.33372 0.23166 0.0
C1661 C 0.84747 0.30417 0.2284 0.0
C1662 C 0.85367 0.32466 0.20504 0.0
C1663 C 0.84493 0.33804 0.21509 0.0
O1664 O 0.85262 0.31491 0.27448 0.0
O1665 O 0.81471 0.28197 0.26902 0.0
O1666 O 0.79763 0.28741 0.29665 0.0
O1667 O 0.81198 0.31776 0.29094 0.0
O1668 O 0.84085 0.28877 0.26436 0.0
O1669 O 0.83697 0.33448 0.28796 0.0
O1670 O 0.75827 0.27517 0.25811 0.0
O1671 O 0.79573 0.30596 0.2646 0.0
O1672 O 0.81144 0.30125 0.23697 0.0
O1673 O 0.79876 0.27046 0.24245 0.0
O1674 O 0.7697 0.29944 0.26986 0.0
O1675 O 0.77215 0.25346 0.24559 0.0
C1676 C 0.82895 0.27443 0.26793 0.0
C1677 C 0.8688 0.34648 0.28837 0.0
C1678 C 0.90121 0.35866 0.29766 0.0
C1679 C 0.88535 0.34391 0.29593 0.0
C1680 C 0.90027 0.3764 0.29201 0.0
C1681 C 0.86798 0.36414 0.28251 0.0
C1682 C 0.8837 0.37906 0.2844 0.0
C1683 C 0.80537 0.30608 0.30253 0.0
C1684 C 0.85289 0.3303 0.28709 0.0
C1685 C 0.84362 0.35561 0.20926 0.0
C1686 C 0.83526 0.36888 0.22013 0.0
C1687 C 0.78167 0.31372 0.26628 0.0
C1688 C 0.73997 0.24429 0.24555 0.0
C1689 C 0.72355 0.24908 0.24036 0.0
C1690 C 0.70701 0.23537 0.23884 0.0
C1691 C 0.70694 0.21664 0.24262 0.0
C1692 C 0.73978 0.22564 0.24966 0.0
C1693 C 0.72328 0.2119 0.24818 0.0
C1694 C 0.80452 0.28249 0.2309 0.0
C1695 C 0.75687 0.25912 0.2461 0.0
H1696 H 0.88582 0.33031 0.30066 0.0
H1697 H 0.91234 0.38803 0.29322 0.0
H1698 H 0.85532 0.36646 0.27659 0.0
H1699 H 0.88305 0.39269 0.27992 0.0
H1700 H 0.72369 0.26344 0.23706 0.0
H1701 H 0.6943 0.2058 0.24139 0.0
H1702 H 0.75229 0.22165 0.25384 0.0
H1703 H 0.72317 0.19749 0.25124 0.0
Tb1704 Tb 0.06822 0.54662 0.5414 0.0
C1705 C 0.99947 0.52326 0.49145 0.0
C1706 C 1.00158 0.50188 0.46245 0.0
C1707 C 0.97326 0.49775 0.47718 0.0
C1708 C 0.00956 0.51726 0.47737 0.0
C1709 C 0.98087 0.51422 0.491 0.0
C1710 C 0.98367 0.49148 0.46296 0.0
C1711 C 0.97778 0.54094 0.51484 0.0
N1712 N 0.00717 0.53978 0.5039 0.0
C1713 C 0.99618 0.54953 0.51436 0.0
C1714 C 0.9702 0.52288 0.50349 0.0
Tb1715 Tb 0.03808 0.55157 0.50329 0.0
N1716 N 0.02635 0.52842 0.47691 0.0
C1717 C 0.03479 0.52674 0.46062 0.0
C1718 C 0.01127 0.49851 0.4468 0.0
C1719 C 0.02774 0.51136 0.44566 0.0
H1720 H 1.00129 0.56414 0.52216 0.0
H1721 H 0.03494 0.50955 0.43322 0.0
H1722 H 0.97736 0.47943 0.45179 0.0
H1723 H 0.96938 0.54847 0.52367 0.0
H1724 H 0.04744 0.53673 0.45952 0.0
H1725 H 0.11729 0.61618 0.55652 0.0
H1726 H 1.00565 0.48683 0.43505 0.0
H1727 H 0.07568 0.50227 0.54404 0.0
H1728 H 0.08708 0.59493 0.55417 0.0
H1729 H 0.10125 0.48577 0.54091 0.0
H1730 H 0.95906 0.49052 0.4767 0.0
H1731 H 0.14395 0.60219 0.54908 0.0
H1732 H 0.15673 0.57257 0.53999 0.0
H1733 H 0.95588 0.5164 0.50364 0.0
H1734 H 0.15232 0.53679 0.53544 0.0
N1735 N 0.09578 0.56853 0.54426 0.0
C1736 C 0.09822 0.58827 0.55039 0.0
C1737 C 0.13053 0.59266 0.54764 0.0
C1738 C 0.1282 0.57242 0.5425 0.0
C1739 C 0.11554 0.60057 0.55197 0.0
C1740 C 0.11051 0.56058 0.54132 0.0
H1741 H 0.13175 0.50432 0.53626 0.0
N1742 N 0.09116 0.52979 0.54003 0.0
C1743 C 0.10334 0.50114 0.54015 0.0
C1744 C 0.10809 0.5405 0.53898 0.0
C1745 C 0.08886 0.51059 0.54192 0.0
C1746 C 0.12051 0.51163 0.53744 0.0
C1747 C 0.12319 0.53169 0.53742 0.0
O1748 O 0.05207 0.54624 0.5642 0.0
O1749 O 0.04115 0.53858 0.52738 0.0
O1750 O 0.03042 0.56153 0.53147 0.0
O1751 O 0.05913 0.57417 0.54566 0.0
O1752 O 0.05027 0.51724 0.53836 0.0
O1753 O 0.08085 0.55036 0.56887 0.0
O1754 O 0.04102 0.58216 0.50847 0.0
O1755 O 0.06484 0.56236 0.51885 0.0
O1756 O 0.07297 0.5263 0.51685 0.0
O1757 O 0.04958 0.52576 0.49376 0.0
O1758 O 0.06332 0.55654 0.48988 0.0
O1759 O 0.02885 0.56541 0.48218 0.0
C1760 C 0.03685 0.5209 0.52886 0.0
C1761 C 0.06275 0.53481 0.5901 0.0
C1762 C 0.0481 0.52611 0.61755 0.0
C1763 C 0.05204 0.53889 0.60479 0.0
C1764 C 0.055 0.50907 0.61545 0.0
C1765 C 0.06985 0.51793 0.58838 0.0
C1766 C 0.06592 0.50511 0.60099 0.0
C1767 C 0.04171 0.57447 0.54432 0.0
C1768 C 0.06561 0.54809 0.57651 0.0
C1769 C 0.1406 0.54332 0.53692 0.0
C1770 C 0.14311 0.56368 0.53952 0.0
C1771 C 0.07414 0.56274 0.5049 0.0
C1772 C 0.04854 0.59623 0.48247 0.0
C1773 C 0.05899 0.58892 0.46871 0.0
C1774 C 0.07356 0.60142 0.46258 0.0
C1775 C 0.0771 0.62158 0.46984 0.0
C1776 C 0.05221 0.61638 0.48946 0.0
C1777 C 0.06634 0.62899 0.48305 0.0
C1778 C 0.06362 0.51934 0.50024 0.0
C1779 C 0.03564 0.58287 0.49151 0.0
H1780 H 0.04648 0.5519 0.6061 0.0
H1781 H 0.0522 0.49902 0.62516 0.0
H1782 H 0.07834 0.51463 0.57735 0.0
H1783 H 0.07137 0.49207 0.59955 0.0
H1784 H 0.05629 0.57338 0.46332 0.0
H1785 H 0.08808 0.63161 0.46521 0.0
H1786 H 0.04446 0.62229 0.50025 0.0
H1787 H 0.06917 0.64452 0.48859 0.0
Tb1788 Tb 0.78673 0.79985 0.26762 0.0
C1789 C 0.84204 0.76517 0.30804 0.0
C1790 C 0.85375 0.78906 0.33605 0.0
C1791 C 0.85204 0.7546 0.33625 0.0
C1792 C 0.84602 0.78423 0.31727 0.0
C1793 C 0.84544 0.75012 0.31719 0.0
C1794 C 0.8562 0.77408 0.34568 0.0
C1795 C 0.8376 0.72789 0.28751 0.0
N1796 N 0.83608 0.76163 0.2896 0.0
C1797 C 0.83462 0.74339 0.27905 0.0
C1798 C 0.84277 0.7312 0.30674 0.0
Tb1799 Tb 0.83013 0.78757 0.27708 0.0
N1800 N 0.84365 0.79819 0.30733 0.0
C1801 C 0.85047 0.81749 0.31496 0.0
C1802 C 0.85947 0.80878 0.34431 0.0
C1803 C 0.85817 0.82305 0.33357 0.0
H1804 H 0.83051 0.74058 0.26419 0.0
H1805 H 0.86298 0.83838 0.33965 0.0
H1806 H 0.86189 0.77746 0.36018 0.0
H1807 H 0.8359 0.71341 0.27919 0.0
H1808 H 0.84952 0.82884 0.3071 0.0
H1809 H 0.75604 0.75123 0.20309 0.0
H1810 H 0.86544 0.81313 0.35871 0.0
H1811 H 0.78434 0.84599 0.28249 0.0
H1812 H 0.76846 0.75961 0.23607 0.0
H1813 H 0.77809 0.87364 0.26884 0.0
H1814 H 0.85455 0.74323 0.34362 0.0
H1815 H 0.75374 0.77741 0.18511 0.0
H1816 H 0.75647 0.81332 0.18523 0.0
H1817 H 0.84519 0.71921 0.31325 0.0
H1818 H 0.76231 0.84688 0.20331 0.0
N1819 N 0.77405 0.79042 0.23702 0.0
C1820 C 0.76759 0.7713 0.22862 0.0
C1821 C 0.7593 0.78121 0.19966 0.0
C1822 C 0.76446 0.80072 0.20875 0.0
C1823 C 0.7605 0.76642 0.20978 0.0
C1824 C 0.77168 0.80483 0.22769 0.0
H1825 H 0.76991 0.86946 0.2347 0.0
N1826 N 0.78031 0.82626 0.25627 0.0
C1827 C 0.77724 0.85964 0.25989 0.0
C1828 C 0.77489 0.82352 0.23774 0.0
C1829 C 0.78076 0.84386 0.26758 0.0
C1830 C 0.77271 0.85725 0.24061 0.0
C1831 C 0.7711 0.8389 0.22932 0.0
O1832 O 0.76923 0.80845 0.28754 0.0
O1833 O 0.8069 0.79649 0.28852 0.0
O1834 O 0.8088 0.76398 0.2847 0.0
O1835 O 0.7833 0.76765 0.26716 0.0
O1836 O 0.79492 0.8198 0.29444 0.0
O1837 O 0.7609 0.78153 0.26796 0.0
O1838 O 0.84775 0.77725 0.25817 0.0
O1839 O 0.81003 0.79085 0.25598 0.0
O1840 O 0.80764 0.82426 0.26086 0.0
O1841 O 0.8337 0.81971 0.27689 0.0
O1842 O 0.82171 0.76719 0.25067 0.0
O1843 O 0.85551 0.80593 0.27499 0.0
C1844 C 0.80642 0.81105 0.30096 0.0
C1845 C 0.73769 0.79708 0.27912 0.0
C1846 C 0.70722 0.79596 0.28987 0.0
C1847 C 0.72495 0.79254 0.29218 0.0
C1848 C 0.7027 0.80431 0.27446 0.0
C1849 C 0.7327 0.80524 0.26388 0.0
C1850 C 0.71533 0.80889 0.26163 0.0
C1851 C 0.79184 0.75702 0.27661 0.0
C1852 C 0.75611 0.79329 0.28154 0.0
C1853 C 0.76509 0.83522 0.21013 0.0
C1854 C 0.76178 0.81613 0.19984 0.0
C1855 C 0.81045 0.77599 0.2438 0.0
C1856 C 0.87926 0.7903 0.26586 0.0
C1857 C 0.89208 0.79466 0.25284 0.0
C1858 C 0.91012 0.7923 0.25587 0.0
C1859 C 0.91489 0.78526 0.27205 0.0
C1860 C 0.88449 0.78342 0.28185 0.0
C1861 C 0.90219 0.78088 0.28487 0.0
C1862 C 0.82489 0.83075 0.26823 0.0
C1863 C 0.86053 0.79303 0.26268 0.0
H1864 H 0.72874 0.78606 0.30388 0.0
H1865 H 0.68937 0.80748 0.27238 0.0
H1866 H 0.74222 0.80878 0.25371 0.0
H1867 H 0.71161 0.81529 0.24987 0.0
H1868 H 0.88807 0.80015 0.24056 0.0
H1869 H 0.92844 0.78287 0.27472 0.0
H1870 H 0.87491 0.78002 0.292 0.0
H1871 H 0.90609 0.77547 0.29722 0.0
Tb1872 Tb 0.80942 0.29262 0.76571 0.0
C1873 C 0.81073 0.36722 0.81576 0.0
C1874 C 0.82801 0.37443 0.84611 0.0
C1875 C 0.82454 0.40098 0.8301 0.0
C1876 C 0.81759 0.3609 0.83093 0.0
C1877 C 0.81398 0.38741 0.81521 0.0
C1878 C 0.83163 0.39448 0.8455 0.0
C1879 C 0.79668 0.37932 0.78501 0.0
N1880 N 0.801 0.35357 0.80146 0.0
C1881 C 0.79414 0.35948 0.78603 0.0
C1882 C 0.80657 0.39336 0.79969 0.0
Tb1883 Tb 0.79543 0.32139 0.80578 0.0
N1884 N 0.81373 0.34146 0.83099 0.0
C1885 C 0.81878 0.33475 0.84671 0.0
C1886 C 0.83415 0.36744 0.86162 0.0
C1887 C 0.82933 0.3475 0.862 0.0
H1888 H 0.78711 0.34925 0.77399 0.0
H1889 H 0.83358 0.34195 0.87412 0.0
H1890 H 0.83967 0.40509 0.85697 0.0
H1891 H 0.7912 0.38373 0.77273 0.0
H1892 H 0.81474 0.31937 0.84738 0.0
H1893 H 0.75235 0.23122 0.7452 0.0
H1894 H 0.84222 0.37734 0.87353 0.0
H1895 H 0.85374 0.29373 0.76498 0.0
H1896 H 0.76773 0.26585 0.75209 0.0
H1897 H 0.87394 0.2707 0.76515 0.0
H1898 H 0.82729 0.4165 0.82985 0.0
H1899 H 0.76946 0.20584 0.74943 0.0
H1900 H 0.79971 0.19746 0.75613 0.0
H1901 H 0.8086 0.4087 0.79879 0.0
H1902 H 0.83309 0.20831 0.76149 0.0
N1903 N 0.79365 0.26063 0.76005 0.0
C1904 C 0.77555 0.25511 0.75388 0.0
C1905 C 0.77639 0.22112 0.75236 0.0
C1906 C 0.79512 0.22675 0.7576 0.0
C1907 C 0.76669 0.23537 0.74999 0.0
C1908 C 0.80346 0.24684 0.76105 0.0
H1909 H 0.86097 0.23562 0.76447 0.0
N1910 N 0.82942 0.27221 0.76534 0.0
C1911 C 0.85937 0.2655 0.76494 0.0
C1912 C 0.82209 0.25286 0.76381 0.0
C1913 C 0.84783 0.27854 0.76489 0.0
C1914 C 0.85201 0.24572 0.7646 0.0
C1915 C 0.83311 0.23908 0.76357 0.0
O1916 O 0.82367 0.30576 0.74526 0.0
O1917 O 0.80985 0.32151 0.78136 0.0
O1918 O 0.77517 0.31974 0.78218 0.0
O1919 O 0.78342 0.29946 0.75693 0.0
O1920 O 0.83387 0.31616 0.77157 0.0
O1921 O 0.79982 0.28273 0.73728 0.0
O1922 O 0.76772 0.32275 0.8056 0.0
O1923 O 0.79087 0.29339 0.78729 0.0
O1924 O 0.82483 0.28767 0.7904 0.0
O1925 O 0.82179 0.31368 0.81375 0.0
O1926 O 0.79227 0.29367 0.81564 0.0
O1927 O 0.78296 0.32214 0.83101 0.0
C1928 C 0.82656 0.32891 0.78105 0.0
C1929 C 0.82176 0.28624 0.71545 0.0
C1930 C 0.83268 0.28985 0.68506 0.0
C1931 C 0.8254 0.29727 0.70134 0.0
C1932 C 0.83652 0.27117 0.68306 0.0
C1933 C 0.82585 0.26769 0.71355 0.0
C1934 C 0.83329 0.26024 0.69739 0.0
C1935 C 0.77256 0.31045 0.76447 0.0
C1936 C 0.813 0.29443 0.73144 0.0
C1937 C 0.82488 0.21912 0.7615 0.0
C1938 C 0.80588 0.21295 0.75848 0.0
C1939 C 0.78926 0.2825 0.79946 0.0
C1940 C 0.75271 0.30347 0.82606 0.0
C1941 C 0.75685 0.29094 0.83795 0.0
C1942 C 0.74393 0.2743 0.84014 0.0
C1943 C 0.7266 0.27031 0.83028 0.0
C1944 C 0.73526 0.29933 0.81651 0.0
C1945 C 0.72231 0.28282 0.81862 0.0
C1946 C 0.82975 0.29912 0.80711 0.0
C1947 C 0.76683 0.32015 0.82281 0.0
H1948 H 0.82194 0.31148 0.70276 0.0
H1949 H 0.84199 0.26509 0.6705 0.0
H1950 H 0.82309 0.25894 0.72434 0.0
H1951 H 0.83633 0.24588 0.69586 0.0
H1952 H 0.77036 0.29379 0.84515 0.0
H1953 H 0.7163 0.25767 0.83175 0.0
H1954 H 0.73173 0.30869 0.80722 0.0
H1955 H 0.70892 0.27965 0.81112 0.0
Tb1956 Tb 0.82209 0.81246 0.77892 0.0
C1957 C 0.74235 0.76046 0.75902 0.0
C1958 C 0.73231 0.75168 0.788 0.0
C1959 C 0.71006 0.74816 0.76161 0.0
C1960 C 0.74651 0.75818 0.77698 0.0
C1961 C 0.72402 0.75582 0.75118 0.0
C1962 C 0.71421 0.74604 0.78001 0.0
C1963 C 0.7344 0.76716 0.72346 0.0
N1964 N 0.75618 0.7683 0.74957 0.0
C1965 C 0.75227 0.77133 0.73173 0.0
C1966 C 0.72019 0.75928 0.73319 0.0
Tb1967 Tb 0.7857 0.7706 0.76208 0.0
N1968 N 0.76417 0.76446 0.78427 0.0
C1969 C 0.76754 0.767 0.80352 0.0
C1970 C 0.73649 0.75215 0.80701 0.0
C1971 C 0.75411 0.76041 0.81489 0.0
H1972 H 0.76283 0.77643 0.72327 0.0
H1973 H 0.7573 0.76234 0.82991 0.0
H1974 H 0.70326 0.74082 0.78821 0.0
H1975 H 0.73167 0.7697 0.70939 0.0
H1976 H 0.78015 0.77522 0.81094 0.0
H1977 H 0.87493 0.81097 0.73107 0.0
H1978 H 0.726 0.74744 0.81592 0.0
H1979 H 0.82802 0.82956 0.82521 0.0
H1980 H 0.84454 0.8122 0.73956 0.0
H1981 H 0.85124 0.83263 0.85123 0.0
H1982 H 0.69598 0.74435 0.75576 0.0
H1983 H 0.89893 0.80974 0.75494 0.0
H1984 H 0.90843 0.80939 0.78843 0.0
H1985 H 0.70633 0.75595 0.72673 0.0
H1986 H 0.90169 0.81444 0.82138 0.0
N1987 N 0.84993 0.8099 0.76839 0.0
C1988 C 0.85423 0.81086 0.75039 0.0
C1989 C 0.88525 0.80955 0.75885 0.0
C1990 C 0.88118 0.80954 0.77738 0.0
C1991 C 0.87177 0.81042 0.74536 0.0
C1992 C 0.8633 0.81016 0.78186 0.0
H1993 H 0.88051 0.82356 0.84499 0.0
N1994 N 0.84308 0.81688 0.8043 0.0
C1995 C 0.8537 0.82695 0.83705 0.0
C1996 C 0.85966 0.81348 0.80044 0.0
C1997 C 0.84049 0.82505 0.82218 0.0
C1998 C 0.87017 0.82175 0.83347 0.0
C1999 C 0.87361 0.81566 0.81494 0.0
O2000 O 0.81107 0.83612 0.77359 0.0
O2001 O 0.7931 0.80051 0.7757 0.0
O2002 O 0.78538 0.79514 0.74674 0.0
O2003 O 0.81603 0.80833 0.74852 0.0
O2004 O 0.80405 0.8185 0.80071 0.0
O2005 O 0.83942 0.84038 0.7817 0.0
O2006 O 0.78762 0.76169 0.73343 0.0
O2007 O 0.81418 0.78436 0.7609 0.0
O2008 O 0.82133 0.79281 0.79983 0.0
O2009 O 0.79782 0.76482 0.78839 0.0
O2010 O 0.80805 0.75566 0.76462 0.0
O2011 O 0.77674 0.74059 0.75028 0.0
C2012 C 0.78921 0.80816 0.79145 0.0
C2013 C 0.82501 0.86629 0.79223 0.0
C2014 C 0.81062 0.89383 0.80011 0.0
C2015 C 0.81225 0.87698 0.78785 0.0
C2016 C 0.82197 0.90003 0.81697 0.0
C2017 C 0.83623 0.87253 0.80919 0.0
C2018 C 0.83465 0.88933 0.8215 0.0
C2019 C 0.7996 0.80499 0.73979 0.0
C2020 C 0.82619 0.84883 0.77872 0.0
C2021 C 0.89089 0.81308 0.81044 0.0
C2022 C 0.89473 0.81019 0.79167 0.0
C2023 C 0.82099 0.76985 0.76239 0.0
C2024 C 0.79267 0.73044 0.72404 0.0
C2025 C 0.80286 0.72 0.73361 0.0
C2026 C 0.81476 0.70977 0.72415 0.0
C2027 C 0.81585 0.70956 0.70483 0.0
C2028 C 0.79388 0.72988 0.70475 0.0
C2029 C 0.80534 0.71943 0.6952 0.0
C2030 C 0.81116 0.77542 0.8012 0.0
C2031 C 0.78179 0.74328 0.73382 0.0
H2032 H 0.80378 0.87236 0.77462 0.0
H2033 H 0.82099 0.91307 0.82661 0.0
H2034 H 0.84623 0.86455 0.81292 0.0
H2035 H 0.84333 0.89412 0.83453 0.0
H2036 H 0.80168 0.71997 0.74841 0.0
H2037 H 0.82507 0.70207 0.69721 0.0
H2038 H 0.78618 0.73789 0.69712 0.0
H2039 H 0.80634 0.71927 0.68036 0.0
Tb2040 Tb 0.53748 0.53135 0.51085 0.0
C2041 C 0.58736 0.58689 0.57183 0.0
C2042 C 0.58988 0.61969 0.56576 0.0
C2043 C 0.59349 0.61429 0.59787 0.0
C2044 C 0.58658 0.59936 0.55931 0.0
C2045 C 0.59091 0.5941 0.59123 0.0
C2046 C 0.59299 0.62707 0.58515 0.0
C2047 C 0.58964 0.5609 0.59574 0.0
N2048 N 0.58455 0.56748 0.56479 0.0
C2049 C 0.58621 0.55449 0.57631 0.0
C2050 C 0.59187 0.58078 0.60325 0.0
Tb2051 Tb 0.57972 0.55825 0.53291 0.0
N2052 N 0.58383 0.59158 0.54071 0.0
C2053 C 0.58622 0.6036 0.5278 0.0
C2054 C 0.59065 0.63197 0.5525 0.0
C2055 C 0.58915 0.62389 0.53342 0.0
H2056 H 0.58467 0.53919 0.57046 0.0
H2057 H 0.59054 0.63329 0.52304 0.0
H2058 H 0.59542 0.64265 0.59042 0.0
H2059 H 0.59064 0.55054 0.60489 0.0
H2060 H 0.58616 0.59749 0.51314 0.0
H2061 H 0.52627 0.45611 0.52012 0.0
H2062 H 0.59315 0.6477 0.55684 0.0
H2063 H 0.53249 0.55083 0.4736 0.0
H2064 H 0.53098 0.4919 0.53031 0.0
H2065 H 0.52604 0.53975 0.43917 0.0
H2066 H 0.59615 0.62018 0.61276 0.0
H2067 H 0.5232 0.44193 0.48624 0.0
H2068 H 0.52056 0.44726 0.45279 0.0
H2069 H 0.59455 0.5857 0.61829 0.0
H2070 H 0.51974 0.46998 0.4307 0.0
N2071 N 0.53318 0.49803 0.5028 0.0
C2072 C 0.53082 0.48589 0.5156 0.0
C2073 C 0.52588 0.45765 0.49071 0.0
C2074 C 0.5266 0.47006 0.47757 0.0
C2075 C 0.52765 0.4656 0.50983 0.0
C2076 C 0.53014 0.49039 0.48418 0.0
H2077 H 0.5216 0.50459 0.4255 0.0
N2078 N 0.53236 0.52239 0.47899 0.0
C2079 C 0.52702 0.52927 0.4482 0.0
C2080 C 0.52929 0.503 0.47181 0.0
C2081 C 0.53074 0.53553 0.46762 0.0
C2082 C 0.52449 0.5094 0.44053 0.0
C2083 C 0.52546 0.49594 0.45241 0.0
O2084 O 0.51383 0.54144 0.5055 0.0
O2085 O 0.55769 0.55886 0.51317 0.0
O2086 O 0.55841 0.56177 0.55352 0.0
O2087 O 0.53658 0.53359 0.54215 0.0
O2088 O 0.53141 0.5604 0.51278 0.0
O2089 O 0.51277 0.51615 0.51864 0.0
O2090 O 0.60327 0.54791 0.53809 0.0
O2091 O 0.55954 0.5308 0.53054 0.0
O2092 O 0.55867 0.52787 0.49005 0.0
O2093 O 0.58075 0.55585 0.50159 0.0
O2094 O 0.58573 0.52917 0.53153 0.0
O2095 O 0.60466 0.57376 0.52582 0.0
C2096 C 0.54747 0.57098 0.51425 0.0
C2097 C 0.48619 0.51818 0.50046 0.0
C2098 C 0.45561 0.52095 0.49017 0.0
C2099 C 0.47223 0.52847 0.50131 0.0
C2100 C 0.45313 0.50268 0.47822 0.0
C2101 C 0.48346 0.49995 0.48858 0.0
C2102 C 0.46697 0.49227 0.4775 0.0
C2103 C 0.54317 0.54911 0.55576 0.0
C2104 C 0.50346 0.52738 0.51187 0.0
C2105 C 0.52263 0.47575 0.4456 0.0
C2106 C 0.52319 0.46283 0.45817 0.0
C2107 C 0.56964 0.5186 0.52978 0.0
C2108 C 0.63094 0.57104 0.54407 0.0
C2109 C 0.64523 0.56125 0.54228 0.0
C2110 C 0.66143 0.56805 0.55414 0.0
C2111 C 0.66326 0.58488 0.56794 0.0
C2112 C 0.63306 0.5881 0.55761 0.0
C2113 C 0.64917 0.59493 0.56952 0.0
C2114 C 0.574 0.54047 0.48786 0.0
C2115 C 0.61382 0.56223 0.53227 0.0
H2116 H 0.47436 0.54237 0.51085 0.0
H2117 H 0.44059 0.49652 0.46927 0.0
H2118 H 0.49397 0.49167 0.48784 0.0
H2119 H 0.46494 0.47823 0.46826 0.0
H2120 H 0.64355 0.54798 0.53189 0.0
H2121 H 0.67564 0.59036 0.57727 0.0
H2122 H 0.62235 0.59605 0.55908 0.0
H2123 H 0.6507 0.60802 0.58004 0.0
Tb2124 Tb 0.08 0.55356 0.02586 0.0
C2125 C 0.0172 0.50501 0.0601 0.0
C2126 C 1.0038 0.4779 0.03515 0.0
C2127 C 1.00208 0.47394 0.06767 0.0
C2128 C 0.01362 0.49734 0.04126 0.0
C2129 C 0.01106 0.49362 0.07358 0.0
C2130 C 0.99848 0.46607 0.04846 0.0
C2131 C 0.02144 0.5225 0.09747 0.0
N2132 N 0.02571 0.5241 0.06515 0.0
C2133 C 0.02728 0.53317 0.08354 0.0
C2134 C 0.01355 0.50256 0.09251 0.0
Tb2135 Tb 0.03505 0.54037 0.04142 0.0
N2136 N 0.01873 0.50937 0.02894 0.0
C2137 C 0.01297 0.50329 0.01027 0.0
C2138 C 0.99904 0.4712 0.01593 0.0
C2139 C 1.00337 0.48407 1.00347 0.0
H2140 H 0.03343 0.54855 0.0876 0.0
H2141 H 0.99937 0.4792 0.9886 0.0
H2142 H 0.99109 0.45104 0.04405 0.0
H2143 H 0.02309 0.52966 0.11203 0.0
H2144 H 0.01619 0.51297 1.00038 0.0
H2145 H 0.11532 0.61447 0.07922 0.0
H2146 H 0.99156 0.45635 0.01064 0.0
H2147 H 0.08061 0.54623 0.97947 0.0
H2148 H 0.09831 0.58093 0.06725 0.0
H2149 H 0.09075 0.56548 0.9553 0.0
H2150 H 0.99742 0.46487 0.07781 0.0
H2151 H 0.1239 0.63733 0.05735 0.0
H2152 H 0.12473 0.64288 0.02405 0.0
H2153 H 0.009 0.49433 0.10331 0.0
H2154 H 0.11812 0.6295 0.99023 0.0
N2155 N 0.09659 0.58442 0.0386 0.0
C2156 C 0.10192 0.5905 0.05736 0.0
C2157 C 0.11639 0.62252 0.05194 0.0
C2158 C 0.11185 0.61592 0.03268 0.0
C2159 C 0.11161 0.60965 0.06431 0.0
C2160 C 0.10196 0.59654 0.02641 0.0
H2161 H 0.10571 0.60053 0.96444 0.0
N2162 N 0.08938 0.57015 1.00231 0.0
C2163 C 0.09287 0.57235 0.96996 0.0
C2164 C 0.09823 0.58912 0.00754 0.0
C2165 C 0.08716 0.56146 0.98377 0.0
C2166 C 0.10127 0.59214 0.97516 0.0
C2167 C 0.10427 0.60071 0.99418 0.0
O2168 O 0.09574 0.53522 0.01215 0.0
O2169 O 0.05695 0.5301 0.02778 0.0
O2170 O 0.0531 0.52869 0.05898 0.0
O2171 O 0.08067 0.54902 0.05511 0.0
O2172 O 0.06928 0.52841 1.00347 0.0
O2173 O 0.10378 0.55045 0.04048 0.0
O2174 O 0.01972 0.55949 0.05449 0.0
O2175 O 0.05808 0.56355 0.03936 0.0
O2176 O 0.06197 0.56626 0.0094 0.0
O2177 O 0.03444 0.5453 0.0122 0.0
O2178 O 0.04549 0.56629 0.06332 0.0
O2179 O 0.01044 0.54208 0.02724 0.0
C2180 C 0.05665 0.51933 0.01196 0.0
C2181 C 0.1271 0.54285 0.02215 0.0
C2182 C 0.15576 0.5321 0.01901 0.0
C2183 C 0.13752 0.52874 0.02341 0.0
C2184 C 0.1634 0.54992 0.01355 0.0
C2185 C 0.13502 0.56046 0.0167 0.0
C2186 C 0.1531 0.56396 0.01245 0.0
C2187 C 0.07057 0.53654 0.06412 0.0
C2188 C 0.10797 0.53883 0.02638 0.0
C2189 C 0.1135 0.62028 1.00027 0.0
C2190 C 0.11726 0.62789 0.01951 0.0
C2191 C 0.05825 0.57502 0.0547 0.0
C2192 C 0.98807 0.55163 0.04611 0.0
C2193 C 0.97689 0.56413 0.04168 0.0
C2194 C 0.95915 0.56222 0.04756 0.0
C2195 C 0.95292 0.54742 0.0579 0.0
C2196 C 0.98141 0.53687 0.05615 0.0
C2197 C 0.96392 0.53481 0.062 0.0
C2198 C 0.04445 0.55878 1.00417 0.0
C2199 C 0.00687 0.55479 0.04078 0.0
H2200 H 0.13133 0.51505 0.02749 0.0
H2201 H 0.17743 0.5531 0.01031 0.0
H2202 H 0.12727 0.57148 0.01572 0.0
H2203 H 0.15916 0.57762 0.00828 0.0
H2204 H 0.98208 0.57526 0.03362 0.0
H2205 H 0.93963 0.54569 0.06315 0.0
H2206 H 0.98977 0.52712 0.05965 0.0
H2207 H 0.95892 0.52352 0.06995 0.0
C2208 C 0.02409 0.2062 0.9306 0.0
C2209 C 0.02497 0.224 0.94288 0.0
C2210 C 0.02669 0.18946 0.93744 0.0
C2211 C 0.02428 0.16592 0.97957 0.0
H2212 H 0.05612 0.13559 0.95485 0.0
C2213 C 0.04067 0.09753 0.00722 0.0
C2214 C 0.04485 0.08248 0.99414 0.0
C2215 C 0.03847 0.11519 1.00184 0.0
C2216 C 0.04685 0.14352 0.96182 0.0
H2217 H 0.02901 0.2378 0.97221 0.0
H2218 H 0.03305 0.20852 0.98414 0.0
H2219 H 0.05134 0.16466 0.94365 0.0
H2220 H 0.04856 0.0737 0.96489 0.0
H2221 H 0.04431 0.10371 0.95541 0.0
H2222 H 0.01927 0.14449 0.99739 0.0
C2223 C 0.0305 0.20756 0.96915 0.0
C2224 C 0.04422 0.16041 0.95538 0.0
C2225 C 0.02826 0.22442 0.96228 0.0
C2226 C 0.04592 0.08522 0.97547 0.0
C2227 C 0.04361 0.10267 0.97006 0.0
C2228 C 0.02665 0.14877 0.98584 0.0
C2229 C 0.0299 0.18983 0.95684 0.0
C2230 C 0.03284 0.17188 0.96406 0.0
C2231 C 0.04006 0.11819 0.98312 0.0
C2232 C 0.0379 0.13709 0.977 0.0
H2233 H 0.02161 0.20523 0.9156 0.0
H2234 H 0.02598 0.1761 0.92749 0.0
H2235 H 0.01533 0.17427 0.9866 0.0
H2236 H 0.03912 0.09564 0.02158 0.0
H2237 H 0.03582 0.12658 0.01249 0.0
C2238 C 0.14871 0.84026 0.16726 0.0
C2239 C 0.14289 0.82824 0.14959 0.0
C2240 C 0.1646 0.83895 0.17763 0.0
C2241 C 0.19049 0.80407 0.18753 0.0
H2242 H 0.23238 0.84682 0.20361 0.0
C2243 C 0.25446 0.79116 0.22751 0.0
C2244 C 0.2659 0.80669 0.24011 0.0
C2245 C 0.24021 0.79435 0.21597 0.0
C2246 C 0.22074 0.83471 0.19967 0.0
H2247 H 0.14946 0.80552 0.12901 0.0
H2248 H 0.17675 0.80283 0.14737 0.0
H2249 H 0.20634 0.8519 0.18516 0.0
H2250 H 0.27179 0.8381 0.24926 0.0
H2251 H 0.24628 0.8435 0.23065 0.0
H2252 H 0.204 0.78705 0.20269 0.0
C2253 C 0.16918 0.8135 0.15301 0.0
C2254 C 0.20582 0.83768 0.18888 0.0
C2255 C 0.1536 0.81517 0.14244 0.0
C2256 C 0.2629 0.82561 0.2404 0.0
C2257 C 0.24835 0.82876 0.22923 0.0
C2258 C 0.20514 0.80122 0.19872 0.0
C2259 C 0.17477 0.82522 0.17081 0.0
C2260 C 0.19059 0.82234 0.18255 0.0
C2261 C 0.23659 0.81317 0.21681 0.0
C2262 C 0.2207 0.81642 0.20492 0.0
H2263 H 0.14075 0.85037 0.17327 0.0
H2264 H 0.16854 0.84813 0.19133 0.0
H2265 H 0.17885 0.79202 0.18304 0.0
H2266 H 0.25645 0.7764 0.22653 0.0
H2267 H 0.23214 0.7819 0.20629 0.0
C2268 C 0.52722 0.84805 0.4224 0.0
C2269 C 0.5291 0.83268 0.43186 0.0
C2270 C 0.52853 0.86706 0.43218 0.0
C2271 C 0.54734 0.90163 0.47579 0.0
H2272 H 0.51133 0.92955 0.4615 0.0
C2273 C 0.55036 0.98201 0.51189 0.0
C2274 C 0.54502 0.99463 0.50079 0.0
C2275 C 0.54707 0.96177 0.50512 0.0
C2276 C 0.5217 0.92218 0.46557 0.0
H2277 H 0.53435 0.82585 0.45938 0.0
H2278 H 0.53713 0.85939 0.4765 0.0
H2279 H 0.50882 0.89563 0.44677 0.0
H2280 H 0.533 0.99611 0.47353 0.0
H2281 H 0.52743 0.96105 0.4615 0.0
H2282 H 0.56067 0.92833 0.49405 0.0
C2283 C 0.53443 0.85645 0.46137 0.0
C2284 C 0.52017 0.90258 0.45714 0.0
C2285 C 0.53282 0.83719 0.45154 0.0
C2286 C 0.53666 0.98663 0.48263 0.0
C2287 C 0.53345 0.96643 0.47578 0.0
C2288 C 0.54903 0.92136 0.48406 0.0
C2289 C 0.53203 0.87159 0.45181 0.0
C2290 C 0.53308 0.89206 0.46195 0.0
C2291 C 0.53876 0.9536 0.48682 0.0
C2292 C 0.53635 0.93209 0.47893 0.0
H2293 H 0.52442 0.84541 0.40728 0.0
H2294 H 0.5269 0.87834 0.42428 0.0
H2295 H 0.55761 0.89406 0.47975 0.0
H2296 H 0.55748 0.98788 0.52569 0.0
H2297 H 0.55122 0.95257 0.51423 0.0
C2298 C 0.51109 0.29709 0.63543 0.0
C2299 C 0.52882 0.30711 0.64292 0.0
C2300 C 0.4967 0.29489 0.64693 0.0
C2301 C 0.48803 0.29701 0.69739 0.0
H2302 H 0.4384 0.29545 0.67901 0.0
C2303 C 0.43121 0.29619 0.74732 0.0
C2304 C 0.41454 0.28267 0.74157 0.0
C2305 C 0.44432 0.29993 0.7347 0.0
C2306 C 0.45217 0.29569 0.68432 0.0
H2307 H 0.54496 0.32334 0.66846 0.0
H2308 H 0.51992 0.32006 0.68828 0.0
H2309 H 0.46281 0.30097 0.6584 0.0
H2310 H 0.39838 0.2632 0.71757 0.0
H2311 H 0.42127 0.26994 0.69539 0.0
H2312 H 0.47744 0.29193 0.72332 0.0
C2313 C 0.51717 0.31334 0.6736 0.0
C2314 C 0.46621 0.29883 0.67247 0.0
C2315 C 0.53158 0.31539 0.66215 0.0
C2316 C 0.41101 0.27374 0.72251 0.0
C2317 C 0.42416 0.27758 0.7098 0.0
C2318 C 0.47405 0.29404 0.70922 0.0
C2319 C 0.49954 0.30278 0.66627 0.0
C2320 C 0.48441 0.29959 0.67884 0.0
C2321 C 0.44117 0.2904 0.71585 0.0
C2322 C 0.45592 0.29339 0.70291 0.0
H2323 H 0.50837 0.29041 0.62073 0.0
H2324 H 0.48345 0.28648 0.6407 0.0
H2325 H 0.50169 0.29695 0.70277 0.0
H2326 H 0.43428 0.30377 0.76174 0.0
H2327 H 0.45704 0.31025 0.73979 0.0
C2328 C 0.02127 0.83053 0.63474 0.0
C2329 C 0.0252 0.83525 0.65434 0.0
C2330 C 0.02366 0.84509 0.62385 0.0
C2331 C 0.04938 0.89544 0.62455 0.0
H2332 H 0.02008 0.88816 0.57723 0.0
C2333 C 0.06152 0.94739 0.56965 0.0
C2334 C 0.06389 0.93738 0.55188 0.0
C2335 C 0.05529 0.93698 0.58367 0.0
C2336 C 0.0283 0.89042 0.59046 0.0
H2337 H 0.03404 0.85924 0.6779 0.0
H2338 H 0.03781 0.88482 0.65882 0.0
H2339 H 0.01075 0.86676 0.59956 0.0
H2340 H 0.06137 0.90885 0.53463 0.0
H2341 H 0.05008 0.89066 0.55895 0.0
H2342 H 0.06688 0.91922 0.61522 0.0
C2343 C 0.03321 0.86972 0.65189 0.0
C2344 C 0.02305 0.87811 0.60322 0.0
C2345 C 0.03092 0.85506 0.66284 0.0
C2346 C 0.05976 0.91687 0.54827 0.0
C2347 C 0.0532 0.9065 0.5621 0.0
C2348 C 0.05447 0.90797 0.61186 0.0
C2349 C 0.02987 0.86488 0.63221 0.0
C2350 C 0.03385 0.88 0.62015 0.0
C2351 C 0.05094 0.91644 0.57992 0.0
C2352 C 0.04426 0.90515 0.59448 0.0
H2353 H 0.01686 0.81547 0.62762 0.0
H2354 H 0.02127 0.84068 0.60875 0.0
H2355 H 0.05813 0.89726 0.63734 0.0
H2356 H 0.06465 0.96323 0.57273 0.0
H2357 H 0.05365 0.94493 0.59732 0.0
C2358 C 0.53186 0.80961 0.86422 0.0
C2359 C 0.54388 0.82316 0.87793 0.0
C2360 C 0.51469 0.81278 0.85942 0.0
C2361 C 0.49279 0.85415 0.85906 0.0
H2362 H 0.45033 0.81316 0.8394 0.0
C2363 C 0.42721 0.86947 0.82477 0.0
C2364 C 0.41857 0.8558 0.80896 0.0
C2365 C 0.44171 0.86579 0.83544 0.0
C2366 C 0.46215 0.82476 0.84468 0.0
H2367 H 0.54693 0.84919 0.89912 0.0
H2368 H 0.51691 0.85495 0.8907 0.0
H2369 H 0.47613 0.80516 0.85562 0.0
H2370 H 0.41877 0.82814 0.79126 0.0
H2371 H 0.44432 0.82194 0.80948 0.0
H2372 H 0.4791 0.87364 0.84755 0.0
C2373 C 0.52086 0.8422 0.88321 0.0
C2374 C 0.47689 0.82018 0.85406 0.0
C2375 C 0.53798 0.83892 0.88804 0.0
C2376 C 0.42509 0.8388 0.80355 0.0
C2377 C 0.4396 0.83518 0.81408 0.0
C2378 C 0.47811 0.85871 0.84955 0.0
C2379 C 0.50927 0.82953 0.86839 0.0
C2380 C 0.49257 0.83474 0.86094 0.0
C2381 C 0.44785 0.84843 0.83037 0.0
C2382 C 0.46279 0.84399 0.84188 0.0
H2383 H 0.536 0.79695 0.85676 0.0
H2384 H 0.50616 0.80274 0.84792 0.0
H2385 H 0.50469 0.86573 0.86405 0.0
H2386 H 0.4223 0.8826 0.82931 0.0
H2387 H 0.44773 0.87625 0.84794 0.0
C2388 C 0.49774 0.20178 0.14723 0.0
C2389 C 0.50549 0.21603 0.13702 0.0
C2390 C 0.49873 0.18225 0.14143 0.0
C2391 C 0.52866 0.15442 0.11906 0.0
H2392 H 0.48761 0.11078 0.10207 0.0
C2393 C 0.51613 0.07867 0.06477 0.0
C2394 C 0.5323 0.07298 0.06949 0.0
C2395 C 0.51041 0.0932 0.07686 0.0
C2396 C 0.49918 0.12281 0.10694 0.0
H2397 H 0.521 0.22159 0.11351 0.0
H2398 H 0.52291 0.18768 0.10354 0.0
H2399 H 0.48227 0.14297 0.11559 0.0
H2400 H 0.55388 0.07629 0.09164 0.0
H2401 H 0.54369 0.1013 0.11284 0.0
H2402 H 0.54564 0.13496 0.10974 0.0
C2403 C 0.51572 0.1914 0.11568 0.0
C2404 C 0.49611 0.1411 0.11476 0.0
C2405 C 0.51452 0.2107 0.12128 0.0
C2406 C 0.5416 0.08066 0.08734 0.0
C2407 C 0.5358 0.09504 0.0995 0.0
C2408 C 0.53173 0.13623 0.11142 0.0
C2409 C 0.50802 0.17707 0.12579 0.0
C2410 C 0.51087 0.15711 0.12036 0.0
C2411 C 0.52062 0.1021 0.09403 0.0
C2412 C 0.51704 0.12032 0.10483 0.0
H2413 H 0.49101 0.20577 0.15963 0.0
H2414 H 0.49282 0.17137 0.14947 0.0
H2415 H 0.54022 0.16662 0.12334 0.0
H2416 H 0.50828 0.07251 0.0514 0.0
H2417 H 0.49865 0.09828 0.07222 0.0
C2418 C 0.13629 0.30498 0.33713 0.0
C2419 C 0.1329 0.30403 0.35586 0.0
C2420 C 0.15239 0.30137 0.3304 0.0
C2421 C 0.19957 0.30401 0.34633 0.0
H2422 H 0.20106 0.27838 0.29505 0.0
C2423 C 0.26706 0.2977 0.31562 0.0
C2424 C 0.26885 0.30202 0.29757 0.0
C2425 C 0.25013 0.29498 0.32274 0.0
C2426 C 0.20084 0.28562 0.30937 0.0
H2427 H 0.14356 0.29787 0.38203 0.0
H2428 H 0.17194 0.29155 0.37015 0.0
H2429 H 0.17178 0.27771 0.30796 0.0
H2430 H 0.25498 0.30824 0.27318 0.0
H2431 H 0.2251 0.30369 0.28571 0.0
H2432 H 0.22858 0.31229 0.34762 0.0
C2433 C 0.16206 0.29526 0.3608 0.0
C2434 C 0.18411 0.28521 0.31678 0.0
C2435 C 0.14581 0.29881 0.36757 0.0
C2436 C 0.25363 0.30416 0.28685 0.0
C2437 C 0.23665 0.30163 0.29406 0.0
C2438 C 0.2163 0.30438 0.33894 0.0
C2439 C 0.16555 0.29671 0.34218 0.0
C2440 C 0.18329 0.29476 0.33521 0.0
C2441 C 0.23478 0.29712 0.31213 0.0
C2442 C 0.21708 0.29549 0.32028 0.0
H2443 H 0.1266 0.30878 0.32763 0.0
H2444 H 0.15476 0.3029 0.31609 0.0
H2445 H 0.19938 0.31175 0.36047 0.0
H2446 H 0.27883 0.2966 0.32429 0.0
H2447 H 0.2491 0.29142 0.33663 0.0
C2448 C 0.97922 0.07609 0.21529 0.0
C2449 C 0.96026 0.0695 0.2163 0.0
C2450 C 0.98742 0.07434 0.19793 0.0
C2451 C 0.97825 0.04957 0.14518 0.0
H2452 H 0.02461 0.08338 0.14098 0.0
C2453 C 0.01702 0.0378 0.07558 0.0
C2454 C 0.03008 0.05321 0.07069 0.0
C2455 C 0.00864 0.0398 0.09283 0.0
C2456 C 0.01158 0.07373 0.1415 0.0
H2457 H 0.93546 0.05566 0.19851 0.0
H2458 H 0.94935 0.05286 0.16875 0.0
H2459 H 0.01034 0.087 0.17023 0.0
H2460 H 0.04344 0.08342 0.08113 0.0
H2461 H 0.02927 0.08694 0.11059 0.0
H2462 H 0.97932 0.03655 0.11632 0.0
C2463 C 0.95821 0.05929 0.18144 0.0
C2464 C 1.00329 0.07569 0.1588 0.0
C2465 C 0.95002 0.06107 0.19882 0.0
C2466 C 0.03399 0.07085 0.08407 0.0
C2467 C 0.02563 0.07288 0.10133 0.0
C2468 C 0.98655 0.04758 0.12788 0.0
C2469 C 0.97725 0.06581 0.18034 0.0
C2470 C 0.98631 0.06369 0.16132 0.0
C2471 C 0.01267 0.0574 0.1064 0.0
C2472 C 1.00354 0.05959 0.12537 0.0
H2473 H 0.98794 0.08253 0.2281 0.0
H2474 H 1.00202 0.07945 0.19852 0.0
H2475 H 0.96541 0.03964 0.14583 0.0
H2476 H 0.01328 0.02388 0.06607 0.0
H2477 H 0.9991 0.02717 0.09555 0.0
C2478 C 0.29907 0.68714 0.45879 0.0
C2479 C 0.29681 0.66674 0.45455 0.0
C2480 C 0.29964 0.69807 0.44453 0.0
C2481 C 0.28517 0.69217 0.39384 0.0
H2482 H 0.30572 0.74787 0.40466 0.0
C2483 C 0.25675 0.74459 0.35433 0.0
C2484 C 0.26729 0.76331 0.35392 0.0
C2485 C 0.26354 0.73179 0.36398 0.0
C2486 C 0.30017 0.7323 0.40098 0.0
H2487 H 0.2947 0.64196 0.43201 0.0
H2488 H 0.29667 0.66122 0.40704 0.0
H2489 H 0.31399 0.72759 0.42562 0.0
H2490 H 0.29379 0.78271 0.363 0.0
H2491 H 0.30609 0.75992 0.37809 0.0
H2492 H 0.2722 0.69671 0.3686 0.0
C2493 C 0.29727 0.66871 0.4214 0.0
C2494 C 0.30466 0.72063 0.41336 0.0
C2495 C 0.29631 0.65766 0.43572 0.0
C2496 C 0.28517 0.76844 0.36272 0.0
C2497 C 0.29217 0.75539 0.37181 0.0
C2498 C 0.28114 0.70376 0.38111 0.0
C2499 C 0.29838 0.68901 0.42558 0.0
C2500 C 0.29655 0.70056 0.41046 0.0
C2501 C 0.28131 0.73706 0.37307 0.0
C2502 C 0.28794 0.72415 0.3849 0.0
H2503 H 0.29935 0.69464 0.47311 0.0
H2504 H 0.30009 0.71354 0.44847 0.0
H2505 H 0.2786 0.67679 0.391 0.0
H2506 H 0.24314 0.73975 0.3473 0.0
H2507 H 0.25452 0.718 0.36469 0.0
C2508 C 0.63654 0.02427 0.70996 0.0
C2509 C 0.65429 0.03566 0.7107 0.0
C2510 C 0.62458 0.02092 0.69379 0.0
C2511 C 0.62277 0.02266 0.64324 0.0
H2512 H 0.57387 0.0304 0.64952 0.0
C2513 C 0.5628 0.04224 0.59584 0.0
C2514 C 0.56441 0.03022 0.57892 0.0
C2515 C 0.57134 0.03981 0.61263 0.0
C2516 C 0.58747 0.02819 0.64756 0.0
H2517 H 0.67365 0.05188 0.69489 0.0
H2518 H 0.65278 0.04606 0.66668 0.0
H2519 H 0.59464 0.0322 0.67713 0.0
H2520 H 0.57447 1.00519 0.56622 0.0
H2521 H 0.58876 1.00047 0.59549 0.0
H2522 H 0.616 0.01948 0.61381 0.0
C2523 C 0.64813 0.03962 0.67855 0.0
C2524 C 0.5993 0.02902 0.66334 0.0
C2525 C 0.66007 0.043 0.69473 0.0
C2526 C 0.57328 0.01478 0.57915 0.0
C2527 C 0.58155 0.01218 0.59586 0.0
C2528 C 0.61098 0.02183 0.62752 0.0
C2529 C 0.63016 0.02882 0.67803 0.0
C2530 C 0.61715 0.02651 0.66133 0.0
C2531 C 0.5814 0.0252 0.61264 0.0
C2532 C 0.59325 0.02475 0.62948 0.0
H2533 H 0.6317 0.01837 0.72205 0.0
H2534 H 0.61091 0.0123 0.69369 0.0
H2535 H 0.63637 0.02049 0.64123 0.0
H2536 H 0.55612 0.05434 0.5959 0.0
H2537 H 0.57104 0.05013 0.62533 0.0
C2538 C 0.32735 0.38803 0.9647 0.0
C2539 C 0.31907 0.37957 0.97922 0.0
C2540 C 0.32735 0.37693 0.94693 0.0
C2541 C 0.30263 0.33421 0.91357 0.0
H2542 H 0.34716 0.34149 0.88875 0.0
C2543 C 0.30302 0.2995 0.83543 0.0
C2544 C 0.31328 0.31136 0.8244 0.0
C2545 C 0.30522 0.30454 0.85509 0.0
C2546 C 0.33455 0.33936 0.89535 0.0
H2547 H 0.30399 0.35252 0.98597 0.0
H2548 H 0.30357 0.33308 0.95443 0.0
H2549 H 0.34763 0.35635 0.92161 0.0
H2550 H 0.3333 0.33812 0.82515 0.0
H2551 H 0.3372 0.34707 0.85929 0.0
H2552 H 0.28931 0.31804 0.88712 0.0
C2553 C 0.31027 0.34843 0.95715 0.0
C2554 C 0.33485 0.34781 0.91427 0.0
C2555 C 0.31054 0.35955 0.97522 0.0
C2556 C 0.32576 0.32835 0.83338 0.0
C2557 C 0.32794 0.33344 0.853 0.0
C2558 C 0.30227 0.3259 0.89454 0.0
C2559 C 0.31886 0.35701 0.94285 0.0
C2560 C 0.31883 0.34572 0.92352 0.0
C2561 C 0.3174 0.32186 0.86419 0.0
C2562 C 0.31816 0.32871 0.88501 0.0
H2563 H 0.33401 0.40337 0.96698 0.0
H2564 H 0.33382 0.38411 0.93621 0.0
H2565 H 0.29003 0.33245 0.92022 0.0
H2566 H 0.29279 0.28672 0.8288 0.0
H2567 H 0.29698 0.29511 0.86311 0.0
C2568 C 0.94767 0.06973 0.34617 0.0
C2569 C 0.95585 0.07103 0.32911 0.0
C2570 C 0.95721 0.06747 0.36289 0.0
C2571 C 1.00218 0.05647 0.38339 0.0
H2572 H 0.98196 0.06947 0.43043 0.0
C2573 C 0.03937 0.05279 0.45899 0.0
C2574 C 0.0284 0.04876 0.47376 0.0
C2575 C 0.03171 0.05527 0.44112 0.0
C2576 C 0.98794 0.06537 0.41757 0.0
H2577 H 0.98165 0.07065 0.31757 0.0
H2578 H 0.99835 0.06725 0.34653 0.0
H2579 H 0.96744 0.07444 0.40167 0.0
H2580 H 1.00036 0.04455 0.48023 0.0
H2581 H 0.98742 0.04856 0.45014 0.0
H2582 H 0.02302 0.0478 0.39981 0.0
C2583 C 0.98416 0.06781 0.34697 0.0
C2584 C 0.97935 0.06827 0.40055 0.0
C2585 C 0.97449 0.07003 0.33005 0.0
C2586 C 0.00955 0.04747 0.46958 0.0
C2587 C 1.002 0.05002 0.452 0.0
C2588 C 0.0109 0.05368 0.40056 0.0
C2589 C 0.97582 0.06639 0.36404 0.0
C2590 C 0.98595 0.06373 0.38272 0.0
C2591 C 0.01273 0.05426 0.43715 0.0
C2592 C 1.00394 0.05783 0.41825 0.0
H2593 H 0.93342 0.07009 0.34664 0.0
H2594 H 0.9495 0.06609 0.37489 0.0
H2595 H 0.00817 0.05251 0.3705 0.0
H2596 H 0.05395 0.05441 0.4613 0.0
H2597 H 0.04088 0.05852 0.43056 0.0
C2598 C 0.31833 0.69745 0.56799 0.0
C2599 C 0.30377 0.68118 0.56247 0.0
C2600 C 0.32056 0.70824 0.58628 0.0
C2601 C 0.30418 0.70597 0.63379 0.0
H2602 H 0.32245 0.76212 0.6422 0.0
C2603 C 0.31195 0.75022 0.70808 0.0
C2604 C 0.3083 0.76897 0.71075 0.0
C2605 C 0.31369 0.7405 0.69021 0.0
C2606 C 0.31711 0.74649 0.6401 0.0
H2607 H 0.28006 0.66352 0.57169 0.0
H2608 H 0.28338 0.68261 0.60305 0.0
H2609 H 0.32062 0.74305 0.61077 0.0
H2610 H 0.30417 0.79264 0.69696 0.0
H2611 H 0.3059 0.77511 0.6653 0.0
H2612 H 0.29934 0.70936 0.66259 0.0
C2613 C 0.29358 0.68677 0.59369 0.0
C2614 C 0.31636 0.73545 0.62206 0.0
C2615 C 0.29159 0.67581 0.57559 0.0
C2616 C 0.30683 0.77809 0.6952 0.0
C2617 C 0.30802 0.76807 0.6771 0.0
C2618 C 0.30453 0.71699 0.65163 0.0
C2619 C 0.30807 0.70318 0.59934 0.0
C2620 C 0.30979 0.71502 0.61864 0.0
C2621 C 0.31117 0.74896 0.67434 0.0
C2622 C 0.31105 0.73742 0.65513 0.0
H2623 H 0.32794 0.70191 0.55814 0.0
H2624 H 0.33207 0.72054 0.59014 0.0
H2625 H 0.29939 0.69027 0.63193 0.0
H2626 H 0.31357 0.743 0.71988 0.0
H2627 H 0.31688 0.72622 0.6889 0.0
C2628 C 0.6827 0.06393 0.83409 0.0
C2629 C 0.67671 0.05209 0.81642 0.0
C2630 C 0.67078 0.06477 0.84816 0.0
C2631 C 0.62196 0.05945 0.85085 0.0
H2632 H 0.63307 0.06428 0.9044 0.0
C2633 C 0.56751 0.06237 0.9034 0.0
C2634 C 0.57287 0.07432 0.92107 0.0
C2635 C 0.5804 0.05982 0.89064 0.0
C2636 C 0.62985 0.06322 0.88949 0.0
H2637 H 0.65441 0.02993 0.80052 0.0
H2638 H 0.63387 0.03123 0.82508 0.0
H2639 H 0.65591 0.05763 0.88309 0.0
H2640 H 0.59549 0.0939 0.93892 0.0
H2641 H 0.61792 0.08987 0.91647 0.0
H2642 H 0.5961 0.06535 0.85712 0.0
C2643 C 0.6475 0.04037 0.82784 0.0
C2644 C 0.64289 0.05931 0.87732 0.0
C2645 C 0.65932 0.03958 0.81382 0.0
C2646 C 0.59109 0.08446 0.92541 0.0
C2647 C 0.60393 0.08202 0.91264 0.0
C2648 C 0.60899 0.06346 0.86298 0.0
C2649 C 0.65279 0.05367 0.84477 0.0
C2650 C 0.63902 0.0573 0.85788 0.0
C2651 C 0.59883 0.06928 0.89531 0.0
C2652 C 0.61276 0.06536 0.88243 0.0
H2653 H 0.6961 0.07352 0.83666 0.0
H2654 H 0.67525 0.07506 0.86118 0.0
H2655 H 0.61875 0.05842 0.83593 0.0
H2656 H 0.55358 0.05421 0.89984 0.0
H2657 H 0.57604 0.04978 0.87746 0.0
C2658 C 0.31567 0.38667 0.10339 0.0
C2659 C 0.30588 0.37625 0.08644 0.0
C2660 C 0.31362 0.37939 0.12011 0.0
C2661 C 0.29501 0.33359 0.13893 0.0
H2662 H 0.30477 0.37005 0.18628 0.0
C2663 C 0.28422 0.3117 0.21285 0.0
C2664 C 0.29995 0.31777 0.22563 0.0
C2665 C 0.28356 0.31851 0.19576 0.0
C2666 C 0.302 0.35968 0.17316 0.0
H2667 H 0.28594 0.35001 0.07394 0.0
H2668 H 0.28159 0.33768 0.10325 0.0
H2669 H 0.3054 0.38242 0.15698 0.0
H2670 H 0.32692 0.33687 0.23061 0.0
H2671 H 0.3254 0.34925 0.20139 0.0
H2672 H 0.291 0.3109 0.15552 0.0
C2673 C 0.29137 0.35126 0.10361 0.0
C2674 C 0.30253 0.36675 0.15623 0.0
C2675 C 0.29372 0.35841 0.08673 0.0
C2676 C 0.31462 0.33159 0.22118 0.0
C2677 C 0.31377 0.33876 0.20438 0.0
C2678 C 0.29408 0.32654 0.15592 0.0
C2679 C 0.30138 0.36159 0.12063 0.0
C2680 C 0.29943 0.35386 0.13875 0.0
C2681 C 0.29835 0.33213 0.19133 0.0
C2682 C 0.29788 0.33951 0.17324 0.0
H2683 H 0.32535 0.40034 0.10369 0.0
H2684 H 0.32203 0.38768 0.13256 0.0
H2685 H 0.29276 0.32305 0.12597 0.0
H2686 H 0.27239 0.30168 0.21601 0.0
H2687 H 0.27137 0.31334 0.18612 0.0
C2688 C 0.26174 0.94673 0.03818 0.0
C2689 C 0.27156 0.9532 0.02364 0.0
C2690 C 0.24547 0.95246 0.04206 0.0
C2691 C 0.2089 0.97182 0.02129 0.0
H2692 H 0.20462 0.99593 0.07236 0.0
C2693 C 0.16434 0.02722 0.03857 0.0
C2694 C 0.15548 0.02783 0.0551 0.0
C2695 C 0.17606 0.01459 0.03461 0.0
C2696 C 0.20537 0.98888 0.0581 0.0
H2697 H 0.27172 0.97033 1.0015 0.0
H2698 H 0.24346 0.98016 0.00822 0.0
H2699 H 0.2297 0.97979 0.06567 0.0
H2700 H 0.15139 0.01511 0.08011 0.0
H2701 H 0.17191 0.99293 0.07316 0.0
H2702 H 0.18485 0.98124 0.0136 0.0
C2703 C 0.24827 0.97064 0.01658 0.0
C2704 C 0.21975 0.97966 0.05428 0.0
C2705 C 0.26457 0.96514 0.01285 0.0
C2706 C 0.15823 0.01515 0.06738 0.0
C2707 C 0.16996 1.00246 0.0634 0.0
C2708 C 0.19448 0.98093 0.02511 0.0
C2709 C 0.23861 0.96449 0.03129 0.0
C2710 C 0.22194 0.97156 0.03576 0.0
C2711 C 0.17918 1.00221 0.04707 0.0
C2712 C 0.19286 0.99008 0.04347 0.0
H2713 H 0.26677 0.93755 0.04677 0.0
H2714 H 0.23825 0.94749 0.05346 0.0
H2715 H 0.2101 0.96539 0.00693 0.0
H2716 H 0.16275 0.03703 0.02898 0.0
H2717 H 0.1832 0.01507 0.0221 0.0
C2718 C 0.74537 0.64973 0.00991 0.0
C2719 C 0.74946 0.66589 1.0009 0.0
C2720 C 0.72748 0.63903 0.00905 0.0
C2721 C 0.69017 0.61268 0.99597 0.0
H2722 H 0.65153 0.64022 1.00631 0.0
C2723 C 0.61432 0.57276 0.9923 0.0
C2724 C 0.60554 0.57809 0.00833 0.0
C2725 C 0.63138 0.58375 0.98964 0.0
C2726 C 0.66218 0.63234 1.00331 0.0
H2727 H 0.73808 0.68443 0.98503 0.0
H2728 H 0.70658 0.66566 0.98344 0.0
H2729 H 0.6825 0.65876 1.00503 0.0
H2730 H 0.60756 0.5998 0.0337 0.0
H2731 H 0.63702 0.61906 0.02883 0.0
H2732 H 0.6699 0.58628 0.99452 0.0
C2733 C 0.71727 0.66106 0.9909 0.0
C2734 C 0.67988 0.64294 1.00244 0.0
C2735 C 0.73525 0.67174 0.99173 0.0
C2736 C 0.61391 0.59512 0.02123 0.0
C2737 C 0.63079 0.60626 0.01842 0.0
C2738 C 0.67244 0.60208 0.99656 0.0
C2739 C 0.71321 0.6445 0.99949 0.0
C2740 C 0.69414 0.63324 0.99903 0.0
C2741 C 0.63983 0.60057 1.00274 0.0
C2742 C 0.6583 0.6118 1.00053 0.0
H2743 H 0.75604 0.64544 0.01773 0.0
H2744 H 0.7248 0.62665 0.01618 0.0
H2745 H 0.70081 0.60475 0.9933 0.0
H2746 H 0.6081 0.56005 0.98183 0.0
H2747 H 0.63794 0.57914 0.9773 0.0
C2748 C 0.71685 0.46895 0.28622 0.0
C2749 C 0.70363 0.4711 0.2724 0.0
C2750 C 0.72513 0.45253 0.28483 0.0
C2751 C 0.73214 0.40614 0.25148 0.0
H2752 H 0.75385 0.39616 0.29735 0.0
C2753 C 0.77467 0.34236 0.2505 0.0
C2754 C 0.77719 0.33421 0.26679 0.0
C2755 C 0.76627 0.35882 0.25062 0.0
C2756 C 0.74789 0.39823 0.28417 0.0
H2757 H 0.68942 0.45578 0.24564 0.0
H2758 H 0.70353 0.42713 0.24327 0.0
H2759 H 0.73801 0.42248 0.29841 0.0
H2760 H 0.77112 0.33736 0.29573 0.0
H2761 H 0.75711 0.36529 0.29614 0.0
H2762 H 0.74179 0.38138 0.23735 0.0
C2763 C 0.70763 0.43859 0.25548 0.0
C2764 C 0.73874 0.41404 0.28475 0.0
C2765 C 0.69921 0.45525 0.25691 0.0
C2766 C 0.77045 0.34334 0.28299 0.0
C2767 C 0.76213 0.35971 0.28315 0.0
C2768 C 0.74136 0.39024 0.25088 0.0
C2769 C 0.72095 0.43664 0.26947 0.0
C2770 C 0.73054 0.41875 0.26846 0.0
C2771 C 0.75949 0.36804 0.26695 0.0
C2772 C 0.7496 0.38564 0.26725 0.0
H2773 H 0.72122 0.48033 0.29847 0.0
H2774 H 0.73531 0.45275 0.29598 0.0
H2775 H 0.72642 0.40863 0.23834 0.0
H2776 H 0.77875 0.33564 0.23738 0.0
H2777 H 0.76496 0.36416 0.23762 0.0
C2778 C 0.87759 0.45456 0.5337 0.0
C2779 C 0.86861 0.43815 0.52056 0.0
C2780 C 0.89649 0.46046 0.53514 0.0
C2781 C 0.93577 0.45661 0.508 0.0
H2782 H 0.96272 0.48103 0.55603 0.0
C2783 C 1.00563 0.51625 0.53841 0.0
C2784 C 0.01828 0.50924 0.52732 0.0
C2785 C 0.98815 0.50488 0.53808 0.0
C2786 C 0.95537 0.47428 0.54251 0.0
H2787 H 0.87204 0.41391 0.49978 0.0
H2788 H 0.90536 0.4242 0.50222 0.0
H2789 H 0.9306 0.46556 0.55483 0.0
H2790 H 0.02323 0.48493 0.50765 0.0
H2791 H 0.99223 0.46495 0.50662 0.0
H2792 H 0.96067 0.46521 0.49576 0.0
C2793 C 0.89777 0.43288 0.51102 0.0
C2794 C 0.93697 0.46546 0.54181 0.0
C2795 C 0.87879 0.42695 0.50965 0.0
C2796 C 0.01344 0.49061 0.51607 0.0
C2797 C 0.99579 0.47926 0.51551 0.0
C2798 C 0.95428 0.46526 0.50874 0.0
C2799 C 0.90681 0.44985 0.52365 0.0
C2800 C 0.92682 0.45702 0.52451 0.0
C2801 C 0.98299 0.48629 0.52659 0.0
C2802 C 0.96411 0.47475 0.52594 0.0
H2803 H 0.86996 0.463 0.5427 0.0
H2804 H 0.90295 0.4737 0.54488 0.0
H2805 H 0.92833 0.45032 0.49443 0.0
H2806 H 0.00931 0.5305 0.54743 0.0
H2807 H 0.97854 0.51086 0.54652 0.0
C2808 C 0.37629 0.0883 0.31246 0.0
C2809 C 0.3919 0.08651 0.30315 0.0
C2810 C 0.36411 0.09858 0.30607 0.0
C2811 C 0.35823 0.1343 0.27636 0.0
H2812 H 0.30755 0.10665 0.27059 0.0
C2813 C 0.30415 0.16481 0.24063 0.0
C2814 C 0.2887 0.16566 0.25036 0.0
C2815 C 0.31585 0.15309 0.24506 0.0
C2816 C 0.32161 0.1146 0.27222 0.0
H2817 H 0.40759 0.09545 0.28064 0.0
H2818 H 0.38633 0.11355 0.26961 0.0
H2819 H 0.33076 0.09228 0.28403 0.0
H2820 H 0.27259 0.15419 0.27139 0.0
H2821 H 0.29315 0.13379 0.27937 0.0
H2822 H 0.34915 0.15677 0.26489 0.0
C2823 C 0.38352 0.10685 0.28179 0.0
C2824 C 0.33489 0.10641 0.27996 0.0
C2825 C 0.39571 0.09648 0.28814 0.0
C2826 C 0.28435 0.15355 0.26359 0.0
C2827 C 0.29616 0.14193 0.26816 0.0
C2828 C 0.34496 0.14253 0.26871 0.0
C2829 C 0.36731 0.10741 0.29031 0.0
C2830 C 0.35331 0.11624 0.28219 0.0
C2831 C 0.31241 0.14222 0.25946 0.0
C2832 C 0.3265 0.13279 0.26658 0.0
H2833 H 0.37298 0.08099 0.32418 0.0
H2834 H 0.35192 0.09918 0.31315 0.0
H2835 H 0.3723 0.14225 0.27807 0.0
H2836 H 0.30769 0.17403 0.23032 0.0
H2837 H 0.32802 0.15323 0.23777 0.0
C2838 C 0.35164 0.16751 0.5283 0.0
C2839 C 0.34416 0.16451 0.50959 0.0
C2840 C 0.36597 0.15885 0.533 0.0
C2841 C 0.40301 0.13678 0.51469 0.0
H2842 H 0.3927 0.10325 0.55149 0.0
C2843 C 0.44519 0.07889 0.52452 0.0
C2844 C 0.44646 0.07311 0.542 0.0
C2845 C 0.43432 0.09205 0.52135 0.0
C2846 C 0.39615 0.11283 0.5415 0.0
H2847 H 0.34653 0.15098 0.48105 0.0
H2848 H 0.37195 0.13655 0.48918 0.0
H2849 H 0.37179 0.12359 0.54496 0.0
H2850 H 0.43801 0.07693 0.57009 0.0
H2851 H 0.41993 0.10065 0.56509 0.0
H2852 H 0.42754 0.12643 0.51141 0.0
C2853 C 0.3666 0.14537 0.50023 0.0
C2854 C 0.38402 0.12446 0.5377 0.0
C2855 C 0.35203 0.15362 0.49559 0.0
C2856 C 0.43721 0.08119 0.55647 0.0
C2857 C 0.42665 0.09462 0.55346 0.0
C2858 C 0.41537 0.12543 0.51875 0.0
C2859 C 0.3734 0.1474 0.51904 0.0
C2860 C 0.38718 0.13639 0.5241 0.0
C2861 C 0.42466 0.09997 0.53572 0.0
C2862 C 0.41204 0.11304 0.53206 0.0
H2863 H 0.34575 0.1756 0.53944 0.0
H2864 H 0.37099 0.16074 0.54761 0.0
H2865 H 0.40586 0.14591 0.5042 0.0
H2866 H 0.45205 0.07265 0.51308 0.0
H2867 H 0.43304 0.09541 0.50741 0.0
C2868 C 0.69619 0.59159 0.28708 0.0
C2869 C 0.70147 0.57513 0.27715 0.0
C2870 C 0.70653 0.61086 0.28778 0.0
C2871 C 0.73857 0.64165 0.26141 0.0
H2872 H 0.75096 0.67891 0.30814 0.0
C2873 C 0.76719 0.72606 0.26408 0.0
C2874 C 0.78204 0.73606 0.27728 0.0
C2875 C 0.75809 0.70655 0.26429 0.0
C2876 C 0.74769 0.66876 0.29491 0.0
H2877 H 0.72141 0.56668 0.25908 0.0
H2878 H 0.739 0.60008 0.25974 0.0
H2879 H 0.73388 0.6454 0.30805 0.0
H2880 H 0.79846 0.73258 0.30138 0.0
H2881 H 0.78224 0.69892 0.30215 0.0
H2882 H 0.75189 0.66508 0.24817 0.0
C2883 C 0.72713 0.59809 0.26754 0.0
C2884 C 0.73772 0.64944 0.29484 0.0
C2885 C 0.71707 0.5788 0.26727 0.0
C2886 C 0.78721 0.72563 0.29089 0.0
C2887 C 0.77778 0.70621 0.29139 0.0
C2888 C 0.74811 0.66109 0.26141 0.0
C2889 C 0.72217 0.61458 0.27791 0.0
C2890 C 0.73297 0.63542 0.27809 0.0
C2891 C 0.76307 0.69616 0.27799 0.0
C2892 C 0.75296 0.67511 0.27815 0.0
H2893 H 0.68411 0.58953 0.29458 0.0
H2894 H 0.70201 0.62296 0.29578 0.0
H2895 H 0.73523 0.63155 0.24816 0.0
H2896 H 0.76262 0.73326 0.25331 0.0
H2897 H 0.74685 0.69967 0.25378 0.0
C2898 C 0.89711 0.50056 0.79719 0.0
C2899 C 0.91232 0.50873 0.81013 0.0
C2900 C 0.88828 0.48105 0.79577 0.0
C2901 C 0.89397 0.43377 0.80777 0.0
H2902 H 0.84165 0.42038 0.79578 0.0
C2903 C 0.84887 0.35539 0.80238 0.0
C2904 C 0.83603 0.3494 0.78665 0.0
C2905 C 0.85864 0.37483 0.80691 0.0
C2906 C 0.85625 0.42388 0.79917 0.0
H2907 H 0.93106 0.50299 0.831 0.0
H2908 H 0.91514 0.46885 0.82922 0.0
H2909 H 0.85767 0.45434 0.80103 0.0
H2910 H 0.82476 0.35787 0.76209 0.0
H2911 H 0.84164 0.39189 0.77 0.0
H2912 H 0.89228 0.403 0.80586 0.0
C2913 C 0.91006 0.47742 0.82001 0.0
C2914 C 0.8655 0.44339 0.80211 0.0
C2915 C 0.9191 0.49695 0.82116 0.0
C2916 C 0.83397 0.36256 0.7748 0.0
C2917 C 0.84366 0.38193 0.77929 0.0
C2918 C 0.88463 0.41419 0.80503 0.0
C2919 C 0.89442 0.46928 0.80738 0.0
C2920 C 0.88454 0.4486 0.80602 0.0
C2921 C 0.85591 0.38832 0.79551 0.0
C2922 C 0.86573 0.40906 0.80029 0.0
H2923 H 0.89206 0.50929 0.78809 0.0
H2924 H 0.87669 0.47521 0.78544 0.0
H2925 H 0.90865 0.43717 0.81057 0.0
H2926 H 0.85114 0.34514 0.81125 0.0
H2927 H 0.8681 0.37936 0.81942 0.0
C2928 C 0.08139 0.86485 0.07587 0.0
C2929 C 0.0853 0.86437 0.09497 0.0
C2930 C 0.08089 0.88243 0.06966 0.0
C2931 C 0.09131 0.93775 0.08539 0.0
H2932 H 0.06045 0.93486 0.04002 0.0
C2933 C 0.06913 1.00558 0.06395 0.0
C2934 C 0.06981 1.00809 0.04515 0.0
C2935 C 0.07199 0.98837 0.06952 0.0
C2936 C 0.06927 0.93597 0.05262 0.0
H2937 H 0.09184 0.88254 0.12252 0.0
H2938 H 0.0902 0.91312 0.11198 0.0
H2939 H 0.06303 0.905 0.05104 0.0
H2940 H 0.07531 0.99475 0.01765 0.0
H2941 H 0.07967 0.96419 0.02722 0.0
H2942 H 0.09667 0.96897 0.08727 0.0
C2943 C 0.08806 0.89993 0.10151 0.0
C2944 C 0.07091 0.91869 0.05901 0.0
C2945 C 0.08898 0.88227 0.10768 0.0
C2946 C 0.07403 0.99303 0.0321 0.0
C2947 C 0.07666 0.97559 0.03764 0.0
C2948 C 0.08934 0.95504 0.07918 0.0
C2949 C 0.08379 0.90038 0.08233 0.0
C2950 C 0.08203 0.91913 0.07552 0.0
C2951 C 0.07568 0.973 0.05648 0.0
C2952 C 0.07831 0.95445 0.06268 0.0
H2953 H 0.07859 0.85147 0.06555 0.0
H2954 H 0.07818 0.88177 0.05475 0.0
H2955 H 0.10031 0.93912 0.09789 0.0
H2956 H 0.06629 0.01702 0.07446 0.0
H2957 H 0.07106 0.987 0.0841 0.0
C2958 C 0.96208 0.28565 0.90986 0.0
C2959 C 0.97212 0.27243 0.90173 0.0
C2960 C 0.9456 0.28702 0.90069 0.0
C2961 C 0.91838 0.27139 0.85293 0.0
H2962 H 0.88374 0.2966 0.87902 0.0
C2963 C 0.85043 0.2773 0.81496 0.0
C2964 C 0.84498 0.29521 0.819 0.0
C2965 C 0.86506 0.27368 0.82559 0.0
C2966 C 0.89337 0.2897 0.87147 0.0
H2967 H 0.97179 0.24865 0.87885 0.0
H2968 H 0.94268 0.24991 0.86347 0.0
H2969 H 0.9096 0.29059 0.8968 0.0
H2970 H 0.85103 0.32338 0.83758 0.0
H2971 H 0.87623 0.31694 0.85638 0.0
H2972 H 0.90182 0.27025 0.82764 0.0
C2973 C 0.94785 0.26034 0.87621 0.0
C2974 C 0.9084 0.28627 0.8817 0.0
C2975 C 0.96458 0.25941 0.88513 0.0
C2976 C 0.85451 0.30929 0.83421 0.0
C2977 C 0.86906 0.3056 0.84499 0.0
C2978 C 0.9033 0.27467 0.84276 0.0
C2979 C 0.93828 0.27465 0.88342 0.0
C2980 C 0.92142 0.27727 0.87264 0.0
C2981 C 0.87466 0.28778 0.84076 0.0
C2982 C 0.89061 0.28401 0.85182 0.0
H2983 H 0.96747 0.29569 0.92282 0.0
H2984 H 0.93912 0.29843 0.9069 0.0
H2985 H 0.92782 0.26458 0.84505 0.0
H2986 H 0.84333 0.26592 0.80359 0.0
H2987 H 0.86873 0.25968 0.82201 0.0
C2988 C 0.58482 0.25481 0.59187 0.0
C2989 C 0.57688 0.26012 0.60846 0.0
C2990 C 0.58344 0.23503 0.58407 0.0
C2991 C 0.5573 0.18441 0.58724 0.0
H2992 H 0.5942 0.16796 0.55725 0.0
C2993 C 0.55766 0.10254 0.56305 0.0
C2994 C 0.55898 0.09668 0.54381 0.0
C2995 C 0.56135 0.12245 0.57122 0.0
C2996 C 0.58376 0.17234 0.56556 0.0
H2997 H 0.56288 0.24893 0.63089 0.0
H2998 H 0.56082 0.2146 0.61778 0.0
H2999 H 0.59777 0.20245 0.57104 0.0
H3000 H 0.56454 0.10704 0.51791 0.0
H3001 H 0.5718 0.14188 0.53229 0.0
H3002 H 0.5436 0.15414 0.58211 0.0
C3003 C 0.56729 0.2255 0.61006 0.0
C3004 C 0.58571 0.19222 0.57341 0.0
C3005 C 0.56858 0.24526 0.61773 0.0
C3006 C 0.56409 0.11116 0.53291 0.0
C3007 C 0.56815 0.13109 0.54114 0.0
C3008 C 0.55554 0.16455 0.57968 0.0
C3009 C 0.57445 0.21995 0.59292 0.0
C3010 C 0.5725 0.19865 0.58442 0.0
C3011 C 0.56641 0.13701 0.56033 0.0
C3012 C 0.56871 0.15822 0.56871 0.0
H3013 H 0.59202 0.26599 0.58485 0.0
H3014 H 0.58912 0.23165 0.57088 0.0
H3015 H 0.5465 0.18857 0.59509 0.0
H3016 H 0.5531 0.0917 0.57163 0.0
H3017 H 0.5599 0.12648 0.58603 0.0
C3018 C 0.58463 0.77794 0.39772 0.0
C3019 C 0.5684 0.77462 0.38594 0.0
C3020 C 0.60143 0.77816 0.39 0.0
C3021 C 0.62095 0.76099 0.34608 0.0
H3022 H 0.66073 0.80638 0.36074 0.0
C3023 C 0.67505 0.78214 0.29608 0.0
C3024 C 0.69321 0.79073 0.3031 0.0
C3025 C 0.66149 0.77835 0.3082 0.0
C3026 C 0.64992 0.79341 0.35666 0.0
H3027 H 0.55721 0.76832 0.3568 0.0
H3028 H 0.58595 0.76821 0.34364 0.0
H3029 H 0.63414 0.80263 0.37888 0.0
H3030 H 0.71129 0.80172 0.32861 0.0
H3031 H 0.68753 0.79491 0.3499 0.0
H3032 H 0.63635 0.75184 0.32373 0.0
C3033 C 0.58589 0.77077 0.35877 0.0
C3034 C 0.63467 0.79127 0.3671 0.0
C3035 C 0.56934 0.77093 0.36639 0.0
C3036 C 0.69748 0.795 0.3227 0.0
C3037 C 0.68381 0.79128 0.3349 0.0
C3038 C 0.63615 0.76306 0.33575 0.0
C3039 C 0.60221 0.77457 0.37038 0.0
C3040 C 0.61975 0.77532 0.36156 0.0
C3041 C 0.66557 0.78298 0.32781 0.0
C3042 C 0.65062 0.7796 0.3405 0.0
H3043 H 0.58441 0.78096 0.41282 0.0
H3044 H 0.61378 0.78113 0.39933 0.0
H3045 H 0.60984 0.74836 0.3416 0.0
H3046 H 0.67125 0.77842 0.2811 0.0
H3047 H 0.64763 0.77221 0.30211 0.0
C3048 C 0.09575 0.27565 0.43883 0.0
C3049 C 0.08636 0.27097 0.42083 0.0
C3050 C 0.09245 0.26275 0.45143 0.0
C3051 C 0.07246 0.21138 0.4546 0.0
H3052 H 0.06762 0.23347 0.5062 0.0
C3053 C 0.04459 0.16259 0.50654 0.0
C3054 C 0.05424 0.16638 0.52436 0.0
C3055 C 0.04807 0.17597 0.49444 0.0
C3056 C 0.06909 0.2271 0.49189 0.0
H3057 H 0.06653 0.24885 0.40171 0.0
H3058 H 0.06066 0.22635 0.42375 0.0
H3059 H 0.07537 0.25508 0.48364 0.0
H3060 H 0.07453 0.18753 0.54382 0.0
H3061 H 0.08062 0.21105 0.52264 0.0
H3062 H 0.06611 0.18341 0.46282 0.0
C3063 C 0.07071 0.23993 0.42808 0.0
C3064 C 0.07358 0.23947 0.47896 0.0
C3065 C 0.07404 0.25283 0.41546 0.0
C3066 C 0.0668 0.1843 0.53022 0.0
C3067 C 0.0703 0.19772 0.51807 0.0
C3068 C 0.06794 0.19903 0.46751 0.0
C3069 C 0.07966 0.24488 0.44633 0.0
C3070 C 0.07528 0.23174 0.46015 0.0
C3071 C 0.06129 0.19346 0.49988 0.0
C3072 C 0.06613 0.20674 0.48628 0.0
H3073 H 0.10539 0.28949 0.44337 0.0
H3074 H 0.09983 0.26684 0.46524 0.0
H3075 H 0.07394 0.20497 0.44031 0.0
H3076 H 0.0346 0.14904 0.50178 0.0
H3077 H 0.04059 0.17247 0.4807 0.0
C3078 C 0.57416 0.29251 0.18363 0.0
C3079 C 0.56765 0.28203 0.16554 0.0
C3080 C 0.59091 0.29111 0.19195 0.0
C3081 C 0.63239 0.27121 0.18205 0.0
H3082 H 0.63159 0.26421 0.23389 0.0
C3083 C 0.67972 0.23015 0.216 0.0
C3084 C 0.69011 0.24073 0.23251 0.0
C3085 C 0.66527 0.23689 0.20852 0.0
C3086 C 0.63201 0.26626 0.21945 0.0
H3087 H 0.57414 0.263 0.14146 0.0
H3088 H 0.60282 0.26012 0.15597 0.0
H3089 H 0.60651 0.27483 0.21906 0.0
H3090 H 0.69327 0.26605 0.25462 0.0
H3091 H 0.6675 0.27748 0.24184 0.0
H3092 H 0.6575 0.26161 0.1823 0.0
C3093 C 0.59532 0.26969 0.16378 0.0
C3094 C 0.61776 0.27254 0.21097 0.0
C3095 C 0.57874 0.27125 0.15545 0.0
C3096 C 0.68537 0.25765 0.24188 0.0
C3097 C 0.67069 0.26418 0.2346 0.0
C3098 C 0.64645 0.2646 0.19043 0.0
C3099 C 0.60138 0.27908 0.18236 0.0
C3100 C 0.61761 0.2748 0.19205 0.0
C3101 C 0.6608 0.25409 0.21764 0.0
C3102 C 0.64624 0.26181 0.20911 0.0
H3103 H 0.56595 0.30103 0.19172 0.0
H3104 H 0.59535 0.29893 0.20611 0.0
H3105 H 0.633 0.2732 0.16761 0.0
H3106 H 0.68327 0.21717 0.20847 0.0
H3107 H 0.6577 0.22879 0.19549 0.0
C3108 C 0.59944 0.89397 0.88778 0.0
C3109 C 0.6062 0.87914 0.89444 0.0
C3110 C 0.60181 0.91245 0.89894 0.0
C3111 C 0.60965 0.95224 0.92377 0.0
H3112 H 0.60382 0.94892 0.97595 0.0
C3113 C 0.59857 1.00235 0.9981 0.0
C3114 C 0.58236 1.00775 0.99288 0.0
C3115 C 0.60593 0.98973 0.98547 0.0
C3116 C 0.60576 0.95019 0.96149 0.0
H3117 H 0.62276 0.87283 0.91703 0.0
H3118 H 0.62774 0.90536 0.93607 0.0
H3119 H 0.60944 0.92105 0.95484 0.0
H3120 H 0.56207 1.00542 0.96973 0.0
H3121 H 0.57513 0.98354 0.94758 0.0
H3122 H 0.60454 0.98107 0.93048 0.0
C3123 C 0.61973 0.90244 0.92266 0.0
C3124 C 0.60912 0.93423 0.94934 0.0
C3125 C 0.617 0.8838 0.91167 0.0
C3126 C 0.57442 1.00136 0.9743 0.0
C3127 C 0.58195 0.98894 0.96157 0.0
C3128 C 0.60595 0.96811 0.93591 0.0
C3129 C 0.61139 0.9167 0.91686 0.0
C3130 C 0.61071 0.93484 0.9302 0.0
C3131 C 0.59747 0.98259 0.96723 0.0
C3132 C 0.60364 0.96705 0.95478 0.0
H3133 H 0.59131 0.89102 0.87444 0.0
H3134 H 0.59509 0.92292 0.89393 0.0
H3135 H 0.61118 0.95344 0.90924 0.0
H3136 H 0.60541 1.00752 0.01208 0.0
H3137 H 0.61803 0.98521 0.99008 0.0
C3138 C 0.95983 0.77842 0.6892 0.0
C3139 C 0.97606 0.78404 0.7011 0.0
C3140 C 0.94311 0.77311 0.69648 0.0
C3141 C 0.92197 0.77517 0.7421 0.0
H3142 H 0.88088 0.74128 0.71018 0.0
C3143 C 0.85127 0.76252 0.76843 0.0
C3144 C 0.83825 0.76649 0.75601 0.0
C3145 C 0.86772 0.75916 0.76219 0.0
C3146 C 0.89228 0.75065 0.71931 0.0
H3147 H 0.98748 0.78842 0.72997 0.0
H3148 H 0.95881 0.77779 0.7424 0.0
H3149 H 0.91083 0.74684 0.69856 0.0
H3150 H 0.83082 0.76784 0.72716 0.0
H3151 H 0.85972 0.76251 0.7162 0.0
H3152 H 0.9036 0.77823 0.76308 0.0
C3153 C 0.95863 0.77828 0.72758 0.0
C3154 C 0.90945 0.75408 0.71257 0.0
C3155 C 0.97523 0.78426 0.7204 0.0
C3156 C 0.8411 0.76549 0.73702 0.0
C3157 C 0.85747 0.76205 0.73074 0.0
C3158 C 0.90498 0.77118 0.749 0.0
C3159 C 0.94226 0.77268 0.71577 0.0
C3160 C 0.92442 0.76705 0.72361 0.0
C3161 C 0.87121 0.75946 0.74337 0.0
C3162 C 0.88975 0.75971 0.73739 0.0
H3163 H 0.96006 0.77821 0.67426 0.0
H3164 H 0.93088 0.76951 0.68691 0.0
H3165 H 0.9329 0.78539 0.75113 0.0
H3166 H 0.8489 0.76254 0.78302 0.0
H3167 H 0.87788 0.75684 0.77218 0.0
C3168 C 0.16766 0.02609 0.84301 0.0
C3169 C 0.15856 0.02063 0.82459 0.0
C3170 C 0.15833 0.02776 0.85957 0.0
C3171 C 0.11122 0.01588 0.87914 0.0
H3172 H 0.13669 0.05077 0.92373 0.0
C3173 C 0.07926 0.01961 0.95359 0.0
C3174 C 0.08408 0.03672 0.96767 0.0
C3175 C 0.08769 0.01763 0.93634 0.0
C3176 C 0.12902 0.04095 0.91159 0.0
H3177 H 0.13132 0.01262 0.81045 0.0
H3178 H 0.11511 0.01535 0.83906 0.0
H3179 H 0.15128 0.04777 0.89469 0.0
H3180 H 0.10275 0.06505 0.97351 0.0
H3181 H 0.11712 0.06179 0.94415 0.0
H3182 H 0.08882 0.00929 0.89611 0.0
C3183 C 0.12982 0.01833 0.8407 0.0
C3184 C 0.13771 0.03898 0.89453 0.0
C3185 C 0.13926 0.01675 0.82395 0.0
C3186 C 0.09819 0.05158 0.96346 0.0
C3187 C 0.10669 0.04959 0.94627 0.0
C3188 C 0.10254 0.01776 0.89628 0.0
C3189 C 0.13908 0.02408 0.85913 0.0
C3190 C 0.12918 0.02634 0.87766 0.0
C3191 C 0.10173 0.03255 0.93201 0.0
C3192 C 0.11113 0.03038 0.91316 0.0
H3193 H 0.18239 0.02932 0.84481 0.0
H3194 H 0.16652 0.03182 0.87291 0.0
H3195 H 0.10374 1.00584 0.86702 0.0
H3196 H 0.06901 1.00741 0.95597 0.0
H3197 H 0.08327 1.004 0.9265 0.0
C3198 C 0.80164 0.38206 0.56542 0.0
C3199 C 0.81185 0.40138 0.56788 0.0
C3200 C 0.80391 0.37036 0.57862 0.0
C3201 C 0.82166 0.37048 0.62677 0.0
H3202 H 0.83039 0.31986 0.60528 0.0
C3203 C 0.84393 0.32117 0.67406 0.0
C3204 C 0.83485 0.30141 0.66992 0.0
C3205 C 0.84276 0.33334 0.66105 0.0
C3206 C 0.82782 0.33385 0.61151 0.0
H3207 H 0.83142 0.42406 0.58675 0.0
H3208 H 0.83519 0.40363 0.60996 0.0
H3209 H 0.82316 0.34154 0.58467 0.0
H3210 H 0.81825 0.27855 0.64875 0.0
H3211 H 0.81593 0.29983 0.626 0.0
H3212 H 0.82596 0.36274 0.65359 0.0
C3213 C 0.82554 0.39753 0.59775 0.0
C3214 C 0.82365 0.34625 0.59971 0.0
C3215 C 0.82336 0.40922 0.58447 0.0
C3216 C 0.82552 0.29371 0.65214 0.0
C3217 C 0.82419 0.30593 0.63916 0.0
C3218 C 0.82569 0.35803 0.63858 0.0
C3219 C 0.81632 0.3778 0.59459 0.0
C3220 C 0.82047 0.36465 0.60723 0.0
C3221 C 0.8323 0.32604 0.64372 0.0
C3222 C 0.82881 0.33955 0.63109 0.0
H3223 H 0.79258 0.37561 0.55284 0.0
H3224 H 0.79635 0.3553 0.57604 0.0
H3225 H 0.81915 0.38454 0.63292 0.0
H3226 H 0.8513 0.32737 0.68769 0.0
H3227 H 0.84957 0.34863 0.66482 0.0
C3228 C 0.45029 0.0717 0.37207 0.0
C3229 C 0.45398 0.06838 0.35318 0.0
C3230 C 0.46453 0.07699 0.38637 0.0
C3231 C 0.50784 0.0665 0.396 0.0
H3232 H 0.51205 0.10553 0.4411 0.0
C3233 C 0.55044 0.06101 0.46193 0.0
C3234 C 0.54123 0.06318 0.47813 0.0
C3235 C 0.54444 0.06731 0.44589 0.0
C3236 C 0.51106 0.09452 0.42861 0.0
H3237 H 0.47562 0.06906 0.33452 0.0
H3238 H 0.50031 0.07777 0.35955 0.0
H3239 H 0.49145 0.10616 0.41415 0.0
H3240 H 0.52021 0.0756 0.49123 0.0
H3241 H 0.50894 0.08534 0.4633 0.0
H3242 H 0.52607 0.05373 0.41073 0.0
C3243 C 0.48642 0.07642 0.3632 0.0
C3244 C 0.49935 0.09499 0.4132 0.0
C3245 C 0.47224 0.07144 0.34891 0.0
C3246 C 0.52691 0.07292 0.47858 0.0
C3247 C 0.5208 0.07901 0.46264 0.0
C3248 C 0.51925 0.06576 0.41152 0.0
C3249 C 0.48266 0.07879 0.38202 0.0
C3250 C 0.49725 0.08062 0.39701 0.0
C3251 C 0.52915 0.07583 0.4459 0.0
C3252 C 0.52046 0.07932 0.42828 0.0
H3253 H 0.4364 0.06955 0.37582 0.0
H3254 H 0.46132 0.07859 0.40084 0.0
H3255 H 0.50634 0.05518 0.38366 0.0
H3256 H 0.5617 0.05373 0.4614 0.0
H3257 H 0.55141 0.06496 0.43335 0.0
C3258 C 0.80105 0.70679 0.07868 0.0
C3259 C 0.80479 0.71852 0.06496 0.0
C3260 C 0.80187 0.71519 0.09763 0.0
C3261 C 0.79932 0.76007 0.13029 0.0
H3262 H 0.82131 0.73519 0.16632 0.0
C3263 C 0.80873 0.78733 0.21257 0.0
C3264 C 0.80599 0.77235 0.22323 0.0
C3265 C 0.80801 0.78269 0.19283 0.0
C3266 C 0.81493 0.74224 0.1565 0.0
H3267 H 0.81221 0.74844 0.06053 0.0
H3268 H 0.81359 0.76321 0.09386 0.0
H3269 H 0.82195 0.72372 0.13299 0.0
H3270 H 0.7997 0.74101 0.22175 0.0
H3271 H 0.79793 0.73296 0.18775 0.0
H3272 H 0.79211 0.77847 0.1541 0.0
C3273 C 0.81001 0.74744 0.08981 0.0
C3274 C 0.81535 0.73566 0.13733 0.0
C3275 C 0.80937 0.73897 0.07074 0.0
C3276 C 0.80182 0.75283 0.21386 0.0
C3277 C 0.801 0.74823 0.19436 0.0
C3278 C 0.79885 0.76667 0.14963 0.0
C3279 C 0.80635 0.73561 0.10351 0.0
C3280 C 0.80723 0.74417 0.12392 0.0
C3281 C 0.80474 0.76302 0.18356 0.0
C3282 C 0.80629 0.7575 0.16297 0.0
H3283 H 0.79739 0.691 0.07479 0.0
H3284 H 0.7987 0.70561 0.1077 0.0
H3285 H 0.79292 0.76695 0.12034 0.0
H3286 H 0.81228 0.80251 0.21949 0.0
H3287 H 0.81092 0.79445 0.18495 0.0
C3288 C 0.16073 0.02007 0.69589 0.0
C3289 C 0.15048 0.01357 0.71033 0.0
C3290 C 0.1524 0.02246 0.67847 0.0
C3291 C 0.10561 0.01304 0.6483 0.0
H3292 H 0.13391 0.04599 0.61824 0.0
C3293 C 0.07244 0.03104 0.57712 0.0
C3294 C 0.08365 0.03473 0.56247 0.0
C3295 C 0.0798 0.02885 0.59519 0.0
C3296 C 0.12557 0.03647 0.62609 0.0
H3297 H 0.12258 1.00471 0.7166 0.0
H3298 H 0.10824 0.00895 0.68696 0.0
H3299 H 0.1476 0.04138 0.6477 0.0
H3300 H 0.11176 0.03856 0.55635 0.0
H3301 H 0.12427 0.03506 0.58687 0.0
H3302 H 0.08348 0.00843 0.62656 0.0
C3303 C 0.12294 0.01199 0.68875 0.0
C3304 C 0.13365 0.03371 0.64347 0.0
C3305 C 0.13131 0.00953 0.70616 0.0
C3306 C 0.10245 0.03611 0.56699 0.0
C3307 C 0.10977 0.03412 0.5849 0.0
C3308 C 0.09748 0.01589 0.6309 0.0
C3309 C 0.13316 0.01868 0.67425 0.0
C3310 C 0.12406 0.02179 0.65522 0.0
C3311 C 0.09878 0.03027 0.59967 0.0
C3312 C 0.10723 0.0276 0.61909 0.0
H3313 H 0.17545 0.02351 0.69808 0.0
H3314 H 0.16134 0.02725 0.66823 0.0
H3315 H 0.09726 1.00354 0.65615 0.0
H3316 H 0.05788 0.0294 0.57454 0.0
H3317 H 0.07047 0.02606 0.60571 0.0
C3318 C 0.80881 0.41544 0.44746 0.0
C3319 C 0.80637 0.40865 0.46445 0.0
C3320 C 0.80464 0.40241 0.43036 0.0
C3321 C 0.8026 0.35139 0.41047 0.0
H3322 H 0.78151 0.36489 0.3659 0.0
C3323 C 0.79785 0.3044 0.33572 0.0
C3324 C 0.80352 0.31544 0.32189 0.0
C3325 C 0.79515 0.31375 0.3536 0.0
C3326 C 0.78742 0.36091 0.37824 0.0
H3327 H 0.79689 0.38286 0.47669 0.0
H3328 H 0.78971 0.36023 0.44681 0.0
H3329 H 0.78173 0.38546 0.3964 0.0
H3330 H 0.81124 0.345 0.31622 0.0
H3331 H 0.8069 0.36103 0.3471 0.0
H3332 H 0.80894 0.32725 0.39217 0.0
C3333 C 0.79497 0.37561 0.44679 0.0
C3334 C 0.78753 0.37268 0.39566 0.0
C3335 C 0.79901 0.38864 0.46389 0.0
C3336 C 0.8068 0.33594 0.32642 0.0
C3337 C 0.80409 0.3452 0.34412 0.0
C3338 C 0.80255 0.33962 0.39299 0.0
C3339 C 0.79803 0.38232 0.42989 0.0
C3340 C 0.79558 0.36836 0.41188 0.0
C3341 C 0.79806 0.33426 0.35786 0.0
C3342 C 0.79547 0.34464 0.37664 0.0
H3343 H 0.81444 0.43072 0.44735 0.0
H3344 H 0.80731 0.40798 0.41754 0.0
H3345 H 0.80901 0.34777 0.42273 0.0
H3346 H 0.79539 0.2886 0.33271 0.0
H3347 H 0.79057 0.30497 0.36397 0.0
C3348 C 0.45737 0.06442 0.24346 0.0
C3349 C 0.44384 0.04908 0.24714 0.0
C3350 C 0.46797 0.0613 0.22858 0.0
C3351 C 0.47445 0.02455 0.18768 0.0
H3352 H 0.52546 0.04805 0.20304 0.0
C3353 C 0.53284 0.99856 0.14994 0.0
C3354 C 0.54527 0.01355 0.14418 0.0
C3355 C 0.52036 1.00314 0.16256 0.0
C3356 C 0.51126 0.04146 0.19855 0.0
H3357 H 0.42971 0.01894 0.23741 0.0
H3358 H 0.44856 0.01321 0.2118 0.0
H3359 H 0.50241 0.05653 0.223 0.0
H3360 H 0.5551 0.04487 0.1474 0.0
H3361 H 0.53368 0.05291 0.16997 0.0
H3362 H 0.48362 0.00897 0.16347 0.0
C3363 C 0.45085 0.02778 0.22008 0.0
C3364 C 0.49799 0.04646 0.20986 0.0
C3365 C 0.43999 0.03105 0.23476 0.0
C3366 C 0.54572 0.03312 0.15187 0.0
C3367 C 0.53347 0.03768 0.16469 0.0
C3368 C 0.48779 0.01935 0.17648 0.0
C3369 C 0.46553 0.04262 0.21739 0.0
C3370 C 0.4794 0.0381 0.20457 0.0
C3371 C 0.52037 0.02275 0.16974 0.0
C3372 C 0.50629 0.02777 0.18185 0.0
H3373 H 0.46046 0.07852 0.25274 0.0
H3374 H 0.47872 0.07326 0.2265 0.0
H3375 H 0.46029 0.01798 0.18306 0.0
H3376 H 0.53214 0.9834 0.14392 0.0
H3377 H 0.51046 0.99139 0.16641 0.0
C3378 C 0.80389 0.69151 0.93614 0.0
C3379 C 0.80512 0.70277 0.95429 0.0
C3380 C 0.80571 0.70031 0.92032 0.0
C3381 C 0.82321 0.74642 0.90364 0.0
H3382 H 0.78908 0.72142 0.86026 0.0
C3383 C 0.81816 0.78039 0.83621 0.0
C3384 C 0.81375 0.76768 0.81877 0.0
C3385 C 0.81824 0.7731 0.85301 0.0
C3386 C 0.79894 0.72847 0.87209 0.0
H3387 H 0.80975 0.73246 0.96977 0.0
H3388 H 0.81304 0.74792 0.94191 0.0
H3389 H 0.78696 0.70823 0.88906 0.0
H3390 H 0.80619 0.73723 0.80536 0.0
H3391 H 0.80673 0.72442 0.83451 0.0
H3392 H 0.83528 0.76661 0.88653 0.0
C3393 C 0.81064 0.73215 0.94011 0.0
C3394 C 0.79767 0.72092 0.8887 0.0
C3395 C 0.80872 0.72328 0.95609 0.0
C3396 C 0.80973 0.74744 0.81854 0.0
C3397 C 0.80988 0.74011 0.83532 0.0
C3398 C 0.82456 0.75396 0.88692 0.0
C3399 C 0.80886 0.72071 0.92198 0.0
C3400 C 0.80987 0.72965 0.90468 0.0
C3401 C 0.81381 0.75283 0.85286 0.0
C3402 C 0.81252 0.74499 0.87082 0.0
H3403 H 0.80126 0.6757 0.934 0.0
H3404 H 0.80463 0.69102 0.90669 0.0
H3405 H 0.83293 0.75344 0.9156 0.0
H3406 H 0.82056 0.79602 0.837 0.0
H3407 H 0.82101 0.78341 0.86615 0.0
C3408 C 0.83011 0.10557 0.99013 0.0
C3409 C 0.83116 0.12498 0.99899 0.0
C3410 C 0.84549 0.09761 0.98991 0.0
C3411 C 0.89528 0.10937 0.99371 0.0
H3412 H 0.88899 0.05661 1.00377 0.0
C3413 C 0.95385 0.06724 0.99313 0.0
C3414 C 0.94904 0.04772 0.98362 0.0
C3415 C 0.94044 0.078 0.99683 0.0
C3416 C 0.89096 0.07131 1.00083 0.0
H3417 H 0.84948 0.15137 0.01423 0.0
H3418 H 0.87653 0.13734 0.01369 0.0
H3419 H 0.86388 0.07322 1.00674 0.0
H3420 H 0.92641 0.0241 0.97087 0.0
H3421 H 0.90321 0.04284 0.97701 0.0
H3422 H 0.92231 0.1072 0.98739 0.0
C3423 C 0.86366 0.12838 0.00695 0.0
C3424 C 0.87658 0.08083 1.00255 0.0
C3425 C 0.84816 0.13637 0.00729 0.0
C3426 C 0.9306 0.03918 0.97801 0.0
C3427 C 0.91726 0.04986 0.98175 0.0
C3428 C 0.90972 0.09979 0.99194 0.0
C3429 C 0.86239 0.10881 0.99849 0.0
C3430 C 0.87842 0.09977 0.99857 0.0
C3431 C 0.92199 0.06936 0.99125 0.0
C3432 C 0.90754 0.08047 0.99505 0.0
H3433 H 0.81732 0.09631 0.98354 0.0
H3434 H 0.84415 0.0826 0.98297 0.0
H3435 H 0.89706 0.12395 0.99051 0.0
H3436 H 0.96797 0.07425 0.99753 0.0
H3437 H 0.9445 0.09298 1.00424 0.0
C3438 C 0.37381 0.43789 0.05538 0.0
C3439 C 0.36757 0.41985 0.04326 0.0
C3440 C 0.39209 0.44768 0.05661 0.0
C3441 C 0.43044 0.451 0.02732 0.0
H3442 H 0.45819 0.48388 0.07191 0.0
C3443 C 0.50311 0.49346 0.02323 0.0
C3444 C 0.50926 0.51218 0.03428 0.0
C3445 C 0.48681 0.48134 0.0261 0.0
C3446 C 0.45054 0.47502 0.05925 0.0
H3447 H 0.37566 0.39671 0.02466 0.0
H3448 H 0.40763 0.41381 0.02658 0.0
H3449 H 0.42827 0.4637 0.07436 0.0
H3450 H 0.50327 0.53237 0.05768 0.0
H3451 H 0.47415 0.51177 0.06192 0.0
H3452 H 0.45198 0.46282 0.01196 0.0
C3453 C 0.39837 0.42074 0.03474 0.0
C3454 C 0.43341 0.46334 0.0607 0.0
C3455 C 0.38012 0.41091 0.03365 0.0
C3456 C 0.49879 0.51826 0.04862 0.0
C3457 C 0.48217 0.50626 0.05123 0.0
C3458 C 0.44731 0.46292 0.0258 0.0
C3459 C 0.40447 0.43953 0.04577 0.0
C3460 C 0.42313 0.4512 0.04472 0.0
C3461 C 0.47583 0.48767 0.03983 0.0
C3462 C 0.45771 0.47507 0.04173 0.0
H3463 H 0.36442 0.44471 0.06343 0.0
H3464 H 0.39626 0.46209 0.06525 0.0
H3465 H 0.42285 0.44208 0.01465 0.0
H3466 H 0.51086 0.48802 0.01223 0.0
H3467 H 0.48284 0.46694 0.01742 0.0
C3468 C 0.39545 0.62222 0.78872 0.0
C3469 C 0.41042 0.61864 0.77859 0.0
C3470 C 0.38698 0.63817 0.78738 0.0
C3471 C 0.38474 0.68053 0.75972 0.0
H3472 H 0.35325 0.69441 0.79759 0.0
C3473 C 0.34325 0.74289 0.75258 0.0
C3474 C 0.33536 0.75227 0.76782 0.0
C3475 C 0.3517 0.72683 0.75375 0.0
C3476 C 0.36198 0.69116 0.78673 0.0
H3477 H 0.42761 0.63077 0.75863 0.0
H3478 H 0.41334 0.65861 0.75653 0.0
H3479 H 0.36916 0.66856 0.8 0.0
H3480 H 0.332 0.75173 0.79711 0.0
H3481 H 0.34636 0.72412 0.79932 0.0
H3482 H 0.378 0.70363 0.7468 0.0
C3483 C 0.40786 0.6487 0.76564 0.0
C3484 C 0.37124 0.67565 0.788 0.0
C3485 C 0.4164 0.63249 0.76696 0.0
C3486 C 0.33692 0.74474 0.78461 0.0
C3487 C 0.34551 0.72864 0.78587 0.0
C3488 C 0.37552 0.69612 0.75848 0.0
C3489 C 0.39275 0.65213 0.77582 0.0
C3490 C 0.38294 0.66959 0.7745 0.0
C3491 C 0.35347 0.71918 0.77051 0.0
C3492 C 0.36368 0.70204 0.7719 0.0
H3493 H 0.38982 0.61231 0.7978 0.0
H3494 H 0.37544 0.63912 0.79538 0.0
H3495 H 0.39324 0.67702 0.74871 0.0
H3496 H 0.34332 0.7484 0.73954 0.0
H3497 H 0.35708 0.72062 0.74123 0.0
C3498 C 0.23183 0.62801 0.51074 0.0
C3499 C 0.24022 0.64253 0.50118 0.0
C3500 C 0.21291 0.62265 0.5099 0.0
C3501 C 0.17306 0.62953 0.5143 0.0
H3502 H 0.1473 0.5945 0.46973 0.0
C3503 C 0.0961 0.59465 0.509 0.0
C3504 C 0.09249 0.5742 0.50436 0.0
C3505 C 0.11319 0.60575 0.50677 0.0
C3506 C 0.15428 0.60447 0.48216 0.0
H3507 H 0.23583 0.6636 0.48406 0.0
H3508 H 0.20232 0.6536 0.48198 0.0
H3509 H 0.17947 0.61015 0.46965 0.0
H3510 H 0.10275 0.54923 0.49205 0.0
H3511 H 0.13288 0.56856 0.48843 0.0
H3512 H 0.1479 0.62414 0.52683 0.0
C3513 C 0.21049 0.64645 0.49006 0.0
C3514 C 0.17261 0.61338 0.48209 0.0
C3515 C 0.2295 0.6521 0.49122 0.0
C3516 C 0.10564 0.56499 0.49636 0.0
C3517 C 0.12269 0.57604 0.49405 0.0
C3518 C 0.1546 0.6211 0.51421 0.0
C3519 C 0.20215 0.63173 0.49946 0.0
C3520 C 0.18223 0.62541 0.49836 0.0
C3521 C 0.12668 0.5965 0.49944 0.0
C3522 C 0.14524 0.60791 0.49839 0.0
H3523 H 0.23992 0.62083 0.51889 0.0
H3524 H 0.20664 0.61125 0.51722 0.0
H3525 H 0.18032 0.6388 0.52699 0.0
H3526 H 0.08571 0.60199 0.51434 0.0
H3527 H 0.11587 0.62151 0.51077 0.0
C3528 C 0.70744 0.99429 0.75563 0.0
C3529 C 0.71881 0.0131 0.75928 0.0
C3530 C 0.71494 0.9778 0.7552 0.0
C3531 C 0.75881 0.96186 0.75317 0.0
H3532 H 0.73961 0.92855 0.78794 0.0
C3533 C 0.8037 0.92533 0.79465 0.0
C3534 C 0.79766 0.90529 0.7946 0.0
C3535 C 0.79209 0.93573 0.78738 0.0
C3536 C 0.74494 0.93753 0.77796 0.0
H3537 H 0.7469 0.02938 0.76404 0.0
H3538 H 0.75984 1.00094 0.76322 0.0
H3539 H 0.7222 0.95122 0.77821 0.0
H3540 H 0.77467 0.88052 0.78769 0.0
H3541 H 0.75413 0.89896 0.7753 0.0
H3542 H 0.78203 0.94901 0.7538 0.0
C3543 C 0.74521 0.99873 0.76068 0.0
C3544 C 0.73494 0.95039 0.77229 0.0
C3545 C 0.73776 0.01509 0.76133 0.0
C3546 C 0.77961 0.89598 0.78779 0.0
C3547 C 0.7679 0.90647 0.78075 0.0
C3548 C 0.76884 0.94917 0.75896 0.0
C3549 C 0.73391 0.97994 0.75807 0.0
C3550 C 0.74215 0.96323 0.76042 0.0
C3551 C 0.77419 0.92634 0.78014 0.0
C3552 C 0.76229 0.93744 0.77193 0.0
H3553 H 0.69277 0.99238 0.75403 0.0
H3554 H 0.70594 0.96345 0.7531 0.0
H3555 H 0.76453 0.97132 0.74372 0.0
H3556 H 0.81759 0.93278 0.79969 0.0
H3557 H 0.79714 0.95114 0.7873 0.0
C3558 C 0.76717 0.93066 0.51289 0.0
C3559 C 0.77155 0.92066 0.52706 0.0
C3560 C 0.75222 0.93932 0.51357 0.0
C3561 C 0.70931 0.94282 0.53411 0.0
H3562 H 0.72333 0.99659 0.52692 0.0
C3563 C 0.65846 0.99261 0.52165 0.0
C3564 C 0.664 0.01255 0.52979 0.0
C3565 C 0.67014 0.97981 0.52317 0.0
C3566 C 0.71916 0.98167 0.52913 0.0
H3567 H 0.76282 0.91076 0.55243 0.0
H3568 H 0.73635 0.92608 0.55363 0.0
H3569 H 0.74576 0.97651 0.52553 0.0
H3570 H 0.68557 0.03425 0.54719 0.0
H3571 H 0.7058 0.0121 0.5498 0.0
H3572 H 0.68254 0.94818 0.53759 0.0
C3573 C 0.74467 0.92713 0.54199 0.0
C3574 C 0.732 0.97008 0.52814 0.0
C3575 C 0.75977 0.91834 0.54129 0.0
C3576 C 0.68103 0.01911 0.54034 0.0
C3577 C 0.69264 1.00639 0.54186 0.0
C3578 C 0.69631 0.95446 0.53492 0.0
C3579 C 0.74118 0.93833 0.52848 0.0
C3580 C 0.72726 0.95048 0.53045 0.0
C3581 C 0.68759 0.9867 0.53287 0.0
C3582 C 0.70112 0.97406 0.53244 0.0
H3583 H 0.77578 0.93247 0.50155 0.0
H3584 H 0.74967 0.94744 0.50271 0.0
H3585 H 0.70526 0.92776 0.53592 0.0
H3586 H 0.64544 0.98708 0.5134 0.0
H3587 H 0.66584 0.96475 0.51602 0.0
C3588 C 0.42103 0.50143 0.78055 0.0
C3589 C 0.41354 0.51438 0.77139 0.0
C3590 C 0.4112 0.48213 0.78063 0.0
C3591 C 0.3708 0.44247 0.7562 0.0
H3592 H 0.3762 0.42021 0.80078 0.0
C3593 C 0.32625 0.365 0.76273 0.0
C3594 C 0.33344 0.35325 0.77374 0.0
C3595 C 0.33552 0.3845 0.76235 0.0
C3596 C 0.37458 0.42585 0.78799 0.0
H3597 H 0.39024 0.51601 0.75352 0.0
H3598 H 0.37316 0.48264 0.75352 0.0
H3599 H 0.39298 0.45316 0.7999 0.0
H3600 H 0.35624 0.35383 0.79346 0.0
H3601 H 0.37246 0.38691 0.79238 0.0
H3602 H 0.35246 0.41513 0.74423 0.0
C3603 C 0.38654 0.48741 0.76111 0.0
C3604 C 0.38435 0.44507 0.7875 0.0
C3605 C 0.3963 0.50682 0.76126 0.0
C3606 C 0.35021 0.36198 0.78449 0.0
C3607 C 0.35949 0.38137 0.78408 0.0
C3608 C 0.36106 0.42319 0.75665 0.0
C3609 C 0.3936 0.47466 0.77107 0.0
C3610 C 0.3828 0.45388 0.77157 0.0
C3611 C 0.35246 0.39322 0.77298 0.0
C3612 C 0.36273 0.41428 0.77254 0.0
H3613 H 0.43443 0.50641 0.78811 0.0
H3614 H 0.41757 0.47299 0.78813 0.0
H3615 H 0.36914 0.44827 0.7435 0.0
H3616 H 0.31347 0.35907 0.75415 0.0
H3617 H 0.32919 0.39277 0.75376 0.0
C3618 C 0.20087 0.62075 0.26969 0.0
C3619 C 0.18816 0.61281 0.28122 0.0
C3620 C 0.20601 0.6409 0.2709 0.0
C3621 C 0.20999 0.68394 0.27112 0.0
H3622 H 0.23004 0.71102 0.32116 0.0
C3623 C 0.25757 0.75997 0.28352 0.0
C3624 C 0.27472 0.75936 0.29166 0.0
C3625 C 0.24246 0.74505 0.28418 0.0
C3626 C 0.22424 0.70375 0.30717 0.0
H3627 H 0.16974 0.61915 0.30201 0.0
H3628 H 0.17926 0.65489 0.30469 0.0
H3629 H 0.20953 0.67878 0.31693 0.0
H3630 H 0.2893 0.74436 0.30878 0.0
H3631 H 0.26281 0.71801 0.30989 0.0
H3632 H 0.22463 0.70885 0.2613 0.0
C3633 C 0.18522 0.64547 0.29473 0.0
C3634 C 0.21253 0.68533 0.30473 0.0
C3635 C 0.17982 0.62516 0.29325 0.0
C3636 C 0.27628 0.74464 0.30187 0.0
C3637 C 0.26112 0.7298 0.3027 0.0
C3638 C 0.22121 0.70258 0.27358 0.0
C3639 C 0.19854 0.6535 0.2837 0.0
C3640 C 0.20623 0.67478 0.28661 0.0
C3641 C 0.24421 0.72961 0.29342 0.0
C3642 C 0.22918 0.71219 0.29152 0.0
H3643 H 0.20716 0.61135 0.26005 0.0
H3644 H 0.21651 0.64665 0.26244 0.0
H3645 H 0.20503 0.67624 0.25701 0.0
H3646 H 0.25598 0.77167 0.27619 0.0
H3647 H 0.22952 0.74529 0.27709 0.0
C3648 C 0.53293 0.72453 0.46035 0.0
C3649 C 0.53003 0.72321 0.44081 0.0
C3650 C 0.53591 0.70845 0.46814 0.0
C3651 C 0.53359 0.65362 0.45549 0.0
H3652 H 0.55915 0.66244 0.50501 0.0
C3653 C 0.55514 0.59077 0.48858 0.0
C3654 C 0.54993 0.58964 0.50677 0.0
C3655 C 0.554 0.60724 0.48044 0.0
C3656 C 0.55196 0.65968 0.49116 0.0
H3657 H 0.52839 0.70373 0.41419 0.0
H3658 H 0.53448 0.6762 0.42747 0.0
H3659 H 0.55494 0.69023 0.49107 0.0
H3660 H 0.53937 0.60491 0.53051 0.0
H3661 H 0.53827 0.63394 0.51678 0.0
H3662 H 0.5313 0.62295 0.45555 0.0
C3663 C 0.53379 0.68935 0.43706 0.0
C3664 C 0.54933 0.67573 0.48311 0.0
C3665 C 0.53041 0.70532 0.4293 0.0
C3666 C 0.54388 0.60552 0.51666 0.0
C3667 C 0.5432 0.62215 0.50875 0.0
C3668 C 0.53659 0.6376 0.4634 0.0
C3669 C 0.53652 0.69047 0.4567 0.0
C3670 C 0.53989 0.67311 0.46515 0.0
C3671 C 0.54788 0.62314 0.49035 0.0
C3672 C 0.54566 0.64035 0.48144 0.0
H3673 H 0.5326 0.73798 0.46972 0.0
H3674 H 0.53744 0.71019 0.48327 0.0
H3675 H 0.52593 0.65052 0.44189 0.0
H3676 H 0.55949 0.57865 0.4804 0.0
H3677 H 0.55778 0.60746 0.46628 0.0
C3678 C 0.6477 0.31957 0.64914 0.0
C3679 C 0.63365 0.32757 0.65699 0.0
C3680 C 0.66323 0.31882 0.6604 0.0
C3681 C 0.68961 0.33894 0.70733 0.0
H3682 H 0.70704 0.29098 0.69821 0.0
C3683 C 0.75421 0.30438 0.73297 0.0
C3684 C 0.75662 0.31251 0.75226 0.0
C3685 C 0.73957 0.30666 0.72135 0.0
C3686 C 0.70261 0.30463 0.70088 0.0
H3687 H 0.6254 0.34166 0.68293 0.0
H3688 H 0.65243 0.34053 0.70245 0.0
H3689 H 0.6818 0.2949 0.6779 0.0
H3690 H 0.74508 0.32936 0.7743 0.0
H3691 H 0.71946 0.33297 0.75423 0.0
H3692 H 0.71047 0.34873 0.73025 0.0
C3693 C 0.65152 0.33486 0.68755 0.0
C3694 C 0.68803 0.30688 0.68914 0.0
C3695 C 0.63595 0.3355 0.67631 0.0
C3696 C 0.74381 0.3229 0.75955 0.0
C3697 C 0.7291 0.32512 0.74793 0.0
C3698 C 0.70427 0.33674 0.71902 0.0
C3699 C 0.66527 0.32614 0.67987 0.0
C3700 C 0.68124 0.32405 0.69218 0.0
C3701 C 0.72673 0.31708 0.72859 0.0
C3702 C 0.71103 0.31952 0.71604 0.0
H3703 H 0.64644 0.31324 0.63435 0.0
H3704 H 0.67359 0.31228 0.65384 0.0
H3705 H 0.685 0.35248 0.71005 0.0
H3706 H 0.76377 0.29637 0.7267 0.0
H3707 H 0.73855 0.30049 0.70656 0.0
C3708 C 0.03055 0.33912 0.95802 0.0
C3709 C 0.03108 0.33561 0.93838 0.0
C3710 C 0.03334 0.35838 0.96825 0.0
C3711 C 0.05253 0.41032 0.96388 0.0
H3712 H 0.02294 0.42412 1.00386 0.0
C3713 C 0.04941 0.48493 0.01939 0.0
C3714 C 0.05039 0.49772 1.00644 0.0
C3715 C 0.04633 0.46453 0.01306 0.0
C3716 C 0.03144 0.42045 0.99286 0.0
H3717 H 0.03504 0.35003 0.91431 0.0
H3718 H 0.03966 0.38292 0.9318 0.0
H3719 H 0.01964 0.38964 0.98925 0.0
H3720 H 0.04857 0.49917 0.97688 0.0
H3721 H 0.04328 0.46404 0.96596 0.0
H3722 H 0.06402 0.44097 0.96707 0.0
C3723 C 0.03741 0.37098 0.93951 0.0
C3724 C 0.02959 0.40067 0.98448 0.0
C3725 C 0.03463 0.35192 0.92938 0.0
C3726 C 0.04782 0.4897 0.9872 0.0
C3727 C 0.0449 0.46954 0.98093 0.0
C3728 C 0.05427 0.42994 0.97209 0.0
C3729 C 0.03685 0.37462 0.95911 0.0
C3730 C 0.03985 0.39535 0.96956 0.0
C3731 C 0.04457 0.45665 0.9937 0.0
C3732 C 0.04351 0.43539 0.98642 0.0
H3733 H 0.02774 0.32701 0.96549 0.0
H3734 H 0.03288 0.36053 0.98332 0.0
H3735 H 0.06109 0.40692 0.95286 0.0
H3736 H 0.05169 0.4907 0.03431 0.0
H3737 H 0.04616 0.45502 0.02328 0.0
C3738 C 0.04193 0.82086 0.16202 0.0
C3739 C 0.03805 0.81449 0.1425 0.0
C3740 C 0.02792 0.81983 0.17402 0.0
C3741 C 0.97745 0.81369 0.17484 0.0
H3742 H 0.98626 0.79757 0.22231 0.0
C3743 C 0.91973 0.79182 0.22287 0.0
C3744 C 0.92409 0.79702 0.24242 0.0
C3745 C 0.9333 0.79494 0.21048 0.0
C3746 C 0.98358 0.80234 0.20923 0.0
H3747 H 0.01605 0.80232 0.12044 0.0
H3748 H 0.9918 0.80037 0.14128 0.0
H3749 H 0.01038 0.80139 0.20143 0.0
H3750 H 0.9461 0.81063 0.2641 0.0
H3751 H 0.96955 0.81609 0.24267 0.0
H3752 H 0.95053 0.81444 0.18265 0.0
C3753 C 1.00567 0.80641 0.14734 0.0
C3754 C 0.99749 0.80456 0.19721 0.0
C3755 C 0.01967 0.80746 0.13535 0.0
C3756 C 0.94225 0.80601 0.24917 0.0
C3757 C 0.95576 0.80912 0.23684 0.0
C3758 C 0.96349 0.81144 0.18688 0.0
C3759 C 0.00957 0.81237 0.1669 0.0
C3760 C 0.99468 0.8103 0.17982 0.0
C3761 C 0.95159 0.80337 0.21731 0.0
C3762 C 0.96636 0.80577 0.20429 0.0
H3763 H 0.05585 0.82641 0.16812 0.0
H3764 H 0.03151 0.82489 0.18893 0.0
H3765 H 0.97477 0.81836 0.16171 0.0
H3766 H 0.90595 0.78474 0.21713 0.0
H3767 H 0.92953 0.79019 0.19556 0.0
C3768 C 0.50182 0.30536 0.09056 0.0
C3769 C 0.51134 0.30686 0.10817 0.0
C3770 C 0.50699 0.31939 0.07939 0.0
C3771 C 0.53241 0.3697 0.08028 0.0
H3772 H 0.53614 0.35071 0.02765 0.0
C3773 C 0.56329 0.4218 0.03204 0.0
C3774 C 0.55429 0.41924 0.01403 0.0
C3775 C 0.55882 0.40769 0.04327 0.0
C3776 C 0.53499 0.35627 0.04226 0.0
H3777 H 0.53339 0.3248 0.12806 0.0
H3778 H 0.54231 0.34936 0.10852 0.0
H3779 H 0.52609 0.32747 0.04817 0.0
H3780 H 0.53391 0.39971 0.99346 0.0
H3781 H 0.52591 0.37506 0.01314 0.0
H3782 H 0.54106 0.39849 0.07438 0.0
C3783 C 0.53084 0.33727 0.10343 0.0
C3784 C 0.52923 0.34296 0.05401 0.0
C3785 C 0.52574 0.32316 0.1146 0.0
C3786 C 0.54118 0.40195 0.00721 0.0
C3787 C 0.53662 0.38786 0.0185 0.0
C3788 C 0.53807 0.38302 0.06851 0.0
C3789 C 0.52173 0.33532 0.08556 0.0
C3790 C 0.52785 0.34953 0.07314 0.0
C3791 C 0.54516 0.39073 0.0368 0.0
C3792 C 0.53943 0.37647 0.04935 0.0
H3793 H 0.49064 0.29307 0.08512 0.0
H3794 H 0.49952 0.31768 0.06582 0.0
H3795 H 0.53128 0.3752 0.09491 0.0
H3796 H 0.57363 0.43489 0.03754 0.0
H3797 H 0.56598 0.41016 0.0571 0.0
C3798 C 0.03665 0.33411 0.38243 0.0
C3799 C 0.04322 0.31813 0.37382 0.0
C3800 C 0.0201 0.33727 0.37548 0.0
C3801 C 0.98943 0.32379 0.33147 0.0
H3802 H 0.95945 0.35303 0.36086 0.0
C3803 C 0.92965 0.36882 0.31982 0.0
C3804 C 0.91847 0.35509 0.30547 0.0
C3805 C 0.94473 0.36419 0.32862 0.0
C3806 C 0.96789 0.34512 0.35245 0.0
H3807 H 0.03698 0.29149 0.35313 0.0
H3808 H 0.0076 0.29632 0.34148 0.0
H3809 H 0.98453 0.34327 0.37661 0.0
H3810 H 0.91472 0.32622 0.2884 0.0
H3811 H 0.94066 0.31802 0.30388 0.0
H3812 H 0.97303 0.32581 0.30731 0.0
C3813 C 0.01558 0.30716 0.35279 0.0
C3814 C 0.98224 0.33945 0.36147 0.0
C3815 C 0.03235 0.30431 0.35944 0.0
C3816 C 0.92301 0.33701 0.29958 0.0
C3817 C 0.93797 0.33238 0.30835 0.0
C3818 C 0.97526 0.32958 0.32247 0.0
C3819 C 0.00957 0.3241 0.36021 0.0
C3820 C 0.99333 0.32886 0.35106 0.0
C3821 C 0.94888 0.34579 0.32313 0.0
C3822 C 0.96433 0.34031 0.33282 0.0
H3823 H 0.04478 0.34472 0.39384 0.0
H3824 H 0.01608 0.35055 0.38152 0.0
H3825 H 0.99758 0.31575 0.3229 0.0
H3826 H 0.92637 0.38283 0.32467 0.0
H3827 H 0.95305 0.37494 0.33979 0.0
C3828 C 1.00346 0.70793 0.64821 0.0
C3829 C 0.99997 0.72329 0.63967 0.0
C3830 C 1.00293 0.68962 0.63739 0.0
C3831 C 0.9978 0.65027 0.61105 0.0
H3832 H 0.02648 0.65719 0.56893 0.0
C3833 C 0.01673 0.58665 0.5602 0.0
C3834 C 0.03497 0.58991 0.55606 0.0
C3835 C 0.01001 0.60173 0.5703 0.0
C3836 C 0.01844 0.65503 0.58063 0.0
H3837 H 0.99134 0.73098 0.61345 0.0
H3838 H 0.99031 0.69894 0.59457 0.0
H3839 H 0.01683 0.68502 0.58639 0.0
H3840 H 0.06064 0.61116 0.55959 0.0
H3841 H 0.04891 0.63754 0.57724 0.0
H3842 H 0.99999 0.6203 0.60552 0.0
C3843 C 0.99378 0.70118 0.60958 0.0
C3844 C 0.01269 0.67089 0.59047 0.0
C3845 C 0.99429 0.71949 0.62041 0.0
C3846 C 0.04652 0.60828 0.5626 0.0
C3847 C 0.03977 0.6234 0.57253 0.0
C3848 C 1.00345 0.63432 0.60107 0.0
C3849 C 0.9989 0.68636 0.61784 0.0
C3850 C 1.00259 0.66878 0.60599 0.0
C3851 C 0.0214 0.62033 0.57627 0.0
C3852 C 0.01417 0.63669 0.58604 0.0
H3853 H 0.00777 0.71039 0.66307 0.0
H3854 H 0.00699 0.67851 0.64416 0.0
H3855 H 0.98999 0.64823 0.62293 0.0
H3856 H 0.00766 0.57246 0.55564 0.0
H3857 H 0.99581 0.59898 0.57303 0.0
C3858 C 0.64253 0.79941 0.85732 0.0
C3859 C 0.63367 0.81384 0.85292 0.0
C3860 C 0.65916 0.79782 0.85023 0.0
C3861 C 0.69954 0.82665 0.83658 0.0
H3862 H 0.70633 0.77992 0.80428 0.0
C3863 C 0.7694 0.81333 0.81699 0.0
C3864 C 0.77112 0.80878 0.79769 0.0
C3865 C 0.75239 0.81357 0.82345 0.0
C3866 C 0.70453 0.79301 0.81326 0.0
H3867 H 0.63533 0.83804 0.83789 0.0
H3868 H 0.66452 0.83556 0.82609 0.0
H3869 H 0.67679 0.78033 0.81693 0.0
H3870 H 0.75692 0.80299 0.76996 0.0
H3871 H 0.72671 0.80237 0.78132 0.0
H3872 H 0.72729 0.83924 0.83324 0.0
C3873 C 0.65848 0.82535 0.83474 0.0
C3874 C 0.68779 0.7932 0.82058 0.0
C3875 C 0.64177 0.82668 0.84145 0.0
C3876 C 0.7557 0.80548 0.78489 0.0
C3877 C 0.73855 0.80532 0.79137 0.0
C3878 C 0.71634 0.82633 0.82959 0.0
C3879 C 0.66729 0.81093 0.83905 0.0
C3880 C 0.68517 0.81009 0.83217 0.0
C3881 C 0.73682 0.80931 0.81072 0.0
C3882 C 0.71892 0.80957 0.81779 0.0
H3883 H 0.63654 0.78929 0.86607 0.0
H3884 H 0.66584 0.78663 0.85375 0.0
H3885 H 0.69776 0.83982 0.84549 0.0
H3886 H 0.78118 0.81626 0.82712 0.0
H3887 H 0.75134 0.81678 0.83842 0.0
C3888 C 0.48159 0.57404 0.71827 0.0
C3889 C 0.4625 0.56832 0.71889 0.0
C3890 C 0.49006 0.57217 0.70109 0.0
C3891 C 0.48085 0.54926 0.64781 0.0
H3892 H 0.52931 0.57965 0.64558 0.0
C3893 C 0.51958 0.53684 0.57843 0.0
C3894 C 0.53416 0.55136 0.57455 0.0
C3895 C 0.51111 0.5389 0.5956 0.0
C3896 C 0.5157 0.57099 0.64552 0.0
H3897 H 0.43772 0.55598 0.70062 0.0
H3898 H 0.45205 0.55314 0.67115 0.0
H3899 H 0.51462 0.58354 0.67446 0.0
H3900 H 0.55062 0.57988 0.58686 0.0
H3901 H 0.53614 0.58359 0.61613 0.0
H3902 H 0.48173 0.53712 0.61872 0.0
C3903 C 0.46083 0.55887 0.684 0.0
C3904 C 0.50713 0.57308 0.66263 0.0
C3905 C 0.45238 0.56069 0.70122 0.0
C3906 C 0.53971 0.56809 0.58892 0.0
C3907 C 0.53123 0.57019 0.60609 0.0
C3908 C 0.4894 0.54721 0.63068 0.0
C3909 C 0.48002 0.56448 0.68329 0.0
C3910 C 0.48938 0.56227 0.66446 0.0
C3911 C 0.51657 0.55567 0.61008 0.0
C3912 C 0.50717 0.55797 0.62888 0.0
H3913 H 0.49021 0.57983 0.73125 0.0
H3914 H 0.50474 0.57654 0.70201 0.0
H3915 H 0.46741 0.54025 0.64788 0.0
H3916 H 0.51463 0.52362 0.56812 0.0
H3917 H 0.50029 0.52695 0.59747 0.0
C3918 C 0.77639 0.15931 0.94018 0.0
C3919 C 0.78501 0.16952 0.95776 0.0
C3920 C 0.77362 0.16931 0.92563 0.0
C3921 C 0.78752 0.21686 0.90995 0.0
H3922 H 0.73887 0.20297 0.88424 0.0
C3923 C 0.75942 0.26898 0.8697 0.0
C3924 C 0.74881 0.26114 0.85254 0.0
C3925 C 0.76469 0.25673 0.88107 0.0
C3926 C 0.7526 0.20685 0.89106 0.0
H3927 H 0.79821 0.19825 0.97345 0.0
H3928 H 0.79327 0.21564 0.94815 0.0
H3929 H 0.74732 0.18337 0.90638 0.0
H3930 H 0.73527 0.23427 0.83398 0.0
H3931 H 0.74443 0.21275 0.85394 0.0
H3932 H 0.79268 0.24056 0.89487 0.0
C3933 C 0.78875 0.19987 0.94557 0.0
C3934 C 0.75746 0.1956 0.90375 0.0
C3935 C 0.79151 0.18988 0.96013 0.0
C3936 C 0.74335 0.24072 0.84717 0.0
C3937 C 0.74861 0.22843 0.85858 0.0
C3938 C 0.78266 0.2281 0.89727 0.0
C3939 C 0.77944 0.18975 0.92829 0.0
C3940 C 0.77488 0.20066 0.91356 0.0
C3941 C 0.75946 0.23631 0.87561 0.0
C3942 C 0.76504 0.22343 0.88792 0.0
H3943 H 0.77127 0.14361 0.93777 0.0
H3944 H 0.76665 0.16106 0.91239 0.0
H3945 H 0.80114 0.22094 0.91704 0.0
H3946 H 0.76354 0.28465 0.87448 0.0
H3947 H 0.77268 0.2633 0.8943 0.0
C3948 C 0.16273 0.54405 0.20776 0.0
C3949 C 0.15468 0.5373 0.22311 0.0
C3950 C 0.15271 0.54075 0.19037 0.0
C3951 C 0.11211 0.51247 0.16025 0.0
H3952 H 0.11577 0.56065 0.14091 0.0
C3953 C 0.06967 0.52068 0.09288 0.0
C3954 C 0.07926 0.53285 0.08161 0.0
C3955 C 0.07781 0.51902 0.11023 0.0
C3956 C 0.11471 0.547 0.14598 0.0
H3957 H 0.13016 0.5206 0.23193 0.0
H3958 H 0.11258 0.51477 0.20126 0.0
H3959 H 0.13228 0.56105 0.17067 0.0
H3960 H 0.10554 0.55144 0.07916 0.0
H3961 H 0.11959 0.54816 0.10873 0.0
H3962 H 0.09467 0.49842 0.13518 0.0
C3963 C 0.12667 0.52266 0.20283 0.0
C3964 C 0.12416 0.54725 0.16306 0.0
C3965 C 0.13672 0.52603 0.22036 0.0
C3966 C 0.09747 0.54229 0.08754 0.0
C3967 C 0.10558 0.54051 0.10464 0.0
C3968 C 0.10267 0.51218 0.14295 0.0
C3969 C 0.13442 0.5306 0.18788 0.0
C3970 C 0.12329 0.52997 0.17021 0.0
C3971 C 0.09573 0.52936 0.11648 0.0
C3972 C 0.10422 0.52942 0.13546 0.0
H3973 H 0.17658 0.5526 0.20934 0.0
H3974 H 0.15913 0.54672 0.17897 0.0
H3975 H 0.11114 0.49896 0.16554 0.0
H3976 H 0.05584 0.51271 0.08848 0.0
H3977 H 0.06991 0.51015 0.11896 0.0
C3978 C 0.82064 0.88574 0.46109 0.0
C3979 C 0.81643 0.87631 0.47641 0.0
C3980 C 0.8211 0.87509 0.44324 0.0
C3981 C 0.80451 0.82796 0.41174 0.0
H3982 H 0.84386 0.84909 0.38365 0.0
C3983 C 0.80936 0.79915 0.3317 0.0
C3984 C 0.81154 0.81442 0.32138 0.0
C3985 C 0.81175 0.80338 0.35146 0.0
C3986 C 0.83283 0.84291 0.39131 0.0
H3987 H 0.80884 0.84789 0.48448 0.0
H3988 H 0.8094 0.82911 0.45285 0.0
H3989 H 0.84414 0.86249 0.41685 0.0
H3990 H 0.81759 0.84583 0.32343 0.0
H3991 H 0.82224 0.85317 0.35753 0.0
H3992 H 0.79294 0.8088 0.3858 0.0
C3993 C 0.81248 0.84493 0.45498 0.0
C3994 C 0.83295 0.85062 0.41034 0.0
C3995 C 0.81216 0.85569 0.47309 0.0
C3996 C 0.81621 0.83381 0.33106 0.0
C3997 C 0.8189 0.838 0.3506 0.0
C3998 C 0.8044 0.82018 0.39258 0.0
C3999 C 0.81729 0.85457 0.43992 0.0
C4000 C 0.81846 0.84379 0.42065 0.0
C4001 C 0.81652 0.8229 0.36111 0.0
C4002 C 0.81825 0.82809 0.38201 0.0
H4003 H 0.82389 0.90154 0.46284 0.0
H4004 H 0.82442 0.88303 0.43193 0.0
H4005 H 0.79315 0.82236 0.41927 0.0
H4006 H 0.80528 0.78407 0.32456 0.0
H4007 H 0.80978 0.79144 0.35919 0.0
C4008 C 0.44915 0.57049 0.84851 0.0
C4009 C 0.45725 0.57118 0.83136 0.0
C4010 C 0.45871 0.5685 0.86531 0.0
C4011 C 0.50309 0.55665 0.88583 0.0
H4012 H 0.48423 0.57279 0.93296 0.0
C4013 C 0.54045 0.55435 0.96166 0.0
C4014 C 0.52956 0.55159 0.97675 0.0
C4015 C 0.53282 0.55638 0.94364 0.0
C4016 C 0.48979 0.5678 0.92008 0.0
H4017 H 0.48288 0.57004 0.81968 0.0
H4018 H 0.49961 0.56706 0.84878 0.0
H4019 H 0.46972 0.57728 0.90397 0.0
H4020 H 0.5017 0.54888 0.98358 0.0
H4021 H 0.48879 0.55212 0.95322 0.0
H4022 H 0.5235 0.54754 0.90243 0.0
C4023 C 0.48549 0.5679 0.84923 0.0
C4024 C 0.48122 0.57042 0.90296 0.0
C4025 C 0.47581 0.56987 0.83225 0.0
C4026 C 0.51082 0.55089 0.9727 0.0
C4027 C 0.5033 0.55301 0.95497 0.0
C4028 C 0.51178 0.55412 0.9031 0.0
C4029 C 0.47723 0.5671 0.8664 0.0
C4030 C 0.48735 0.56475 0.88513 0.0
C4031 C 0.51398 0.55614 0.93984 0.0
C4032 C 0.50527 0.5594 0.92083 0.0
H4033 H 0.43496 0.57112 0.84901 0.0
H4034 H 0.45111 0.56758 0.87745 0.0
H4035 H 0.50866 0.55183 0.87292 0.0
H4036 H 0.55496 0.55538 0.96386 0.0
H4037 H 0.54191 0.55874 0.93282 0.0
C4038 C 0.80474 0.18201 0.07989 0.0
C4039 C 0.81288 0.1897 0.06503 0.0
C4040 C 0.80725 0.19307 0.0979 0.0
C4041 C 0.82149 0.24433 0.12393 0.0
H4042 H 0.81496 0.21687 0.16566 0.0
C4043 C 0.8051 0.28195 0.1963 0.0
C4044 C 0.80829 0.27377 0.2121 0.0
C4045 C 0.8085 0.27299 0.17853 0.0
C4046 C 0.81732 0.22512 0.15447 0.0
H4047 H 0.8307 0.2148 0.05755 0.0
H4048 H 0.83603 0.23392 0.08949 0.0
H4049 H 0.81801 0.19921 0.13538 0.0
H4050 H 0.81871 0.25088 0.22216 0.0
H4051 H 0.82652 0.23661 0.19204 0.0
H4052 H 0.82216 0.27057 0.14346 0.0
C4053 C 0.82714 0.21951 0.08703 0.0
C4054 C 0.8186 0.21472 0.13676 0.0
C4055 C 0.82427 0.20849 0.06877 0.0
C4056 C 0.81582 0.25724 0.2101 0.0
C4057 C 0.82005 0.24888 0.19264 0.0
C4058 C 0.82087 0.25494 0.1419 0.0
C4059 C 0.81841 0.21204 0.10181 0.0
C4060 C 0.82 0.22397 0.12107 0.0
C4061 C 0.81588 0.25613 0.17639 0.0
C4062 C 0.81828 0.24541 0.15741 0.0
H4063 H 0.79567 0.16768 0.0775 0.0
H4064 H 0.79978 0.18687 0.10858 0.0
H4065 H 0.82252 0.25205 0.11226 0.0
H4066 H 0.79945 0.29487 0.19762 0.0
H4067 H 0.80485 0.27905 0.16653 0.0
C4068 C 0.18037 0.56732 0.34955 0.0
C4069 C 0.17233 0.55734 0.33169 0.0
C4070 C 0.17014 0.56772 0.36504 0.0
C4071 C 0.12243 0.56454 0.37411 0.0
H4072 H 0.14076 0.56977 0.42609 0.0
C4073 C 0.07725 0.57859 0.43351 0.0
C4074 C 0.08516 0.5933 0.4489 0.0
C4075 C 0.08804 0.57118 0.42039 0.0
C4076 C 0.1355 0.5684 0.41163 0.0
H4077 H 0.14783 0.53809 0.31659 0.0
H4078 H 0.1302 0.53837 0.34366 0.0
H4079 H 0.15958 0.56086 0.40107 0.0
H4080 H 0.11073 0.61112 0.46303 0.0
H4081 H 0.12955 0.59862 0.43969 0.0
H4082 H 0.09861 0.57251 0.38451 0.0
C4083 C 0.14421 0.5465 0.34556 0.0
C4084 C 0.14625 0.56327 0.39731 0.0
C4085 C 0.15437 0.54626 0.33005 0.0
C4086 C 0.10419 0.60007 0.45112 0.0
C4087 C 0.115 0.59268 0.43792 0.0
C4088 C 0.11172 0.56961 0.38835 0.0
C4089 C 0.15172 0.55795 0.36303 0.0
C4090 C 0.13988 0.56147 0.37838 0.0
C4091 C 0.107 0.57835 0.42226 0.0
C4092 C 0.11817 0.57179 0.40728 0.0
H4093 H 0.19424 0.57585 0.35141 0.0
H4094 H 0.17637 0.57669 0.37828 0.0
H4095 H 0.11725 0.56379 0.35973 0.0
H4096 H 0.06264 0.57308 0.43136 0.0
H4097 H 0.08148 0.55995 0.40862 0.0
C4098 C 0.79636 0.85149 0.58271 0.0
C4099 C 0.80421 0.87136 0.58326 0.0
C4100 C 0.79419 0.84396 0.59937 0.0
C4101 C 0.79385 0.85916 0.65131 0.0
H4102 H 0.80384 0.80817 0.65306 0.0
C4103 C 0.80465 0.83212 0.72142 0.0
C4104 C 0.79755 0.81236 0.72201 0.0
C4105 C 0.80407 0.83904 0.70445 0.0
C4106 C 0.80076 0.82233 0.6528 0.0
H4107 H 0.81574 0.8989 0.60191 0.0
H4108 H 0.81216 0.88586 0.63073 0.0
H4109 H 0.80515 0.82057 0.6237 0.0
H4110 H 0.78543 0.7841 0.70499 0.0
H4111 H 0.78384 0.79616 0.67548 0.0
H4112 H 0.78971 0.86101 0.68048 0.0
C4113 C 0.8074 0.87604 0.61751 0.0
C4114 C 0.80149 0.82947 0.63589 0.0
C4115 C 0.80956 0.88354 0.60089 0.0
C4116 C 0.79015 0.79957 0.70519 0.0
C4117 C 0.78964 0.80645 0.68817 0.0
C4118 C 0.79316 0.85204 0.66822 0.0
C4119 C 0.7998 0.85611 0.61704 0.0
C4120 C 0.79819 0.84807 0.6349 0.0
C4121 C 0.79665 0.82629 0.68752 0.0
C4122 C 0.79673 0.83358 0.66927 0.0
H4123 H 0.79209 0.84167 0.56939 0.0
H4124 H 0.78806 0.8286 0.59837 0.0
H4125 H 0.79087 0.87337 0.65111 0.0
H4126 H 0.8108 0.84222 0.73412 0.0
H4127 H 0.80992 0.85431 0.70452 0.0
C4128 C 0.77735 0.47686 0.51245 0.0
C4129 C 0.78266 0.4654 0.52485 0.0
C4130 C 0.7634 0.48666 0.51629 0.0
C4131 C 0.74176 0.50954 0.55428 0.0
H4132 H 0.70245 0.50563 0.51616 0.0
C4133 C 0.68336 0.55054 0.56731 0.0
C4134 C 0.67617 0.55724 0.55203 0.0
C4135 C 0.69607 0.53876 0.56477 0.0
C4136 C 0.71347 0.50716 0.52689 0.0
H4137 H 0.77749 0.45522 0.55101 0.0
H4138 H 0.75324 0.47286 0.55795 0.0
H4139 H 0.72478 0.48562 0.51016 0.0
H4140 H 0.67714 0.55778 0.52238 0.0
H4141 H 0.69985 0.53803 0.51801 0.0
H4142 H 0.73099 0.53166 0.57075 0.0
C4143 C 0.75985 0.474 0.54517 0.0
C4144 C 0.72615 0.49555 0.52348 0.0
C4145 C 0.7736 0.46384 0.54114 0.0
C4146 C 0.68236 0.55258 0.53433 0.0
C4147 C 0.69525 0.54111 0.53184 0.0
C4148 C 0.72922 0.52142 0.55761 0.0
C4149 C 0.75467 0.48551 0.53278 0.0
C4150 C 0.7405 0.49675 0.53706 0.0
C4151 C 0.70202 0.53369 0.54692 0.0
C4152 C 0.71502 0.52055 0.54385 0.0
H4153 H 0.78404 0.4783 0.49977 0.0
H4154 H 0.75973 0.49554 0.50657 0.0
H4155 H 0.75283 0.51084 0.56491 0.0
H4156 H 0.67865 0.55383 0.58107 0.0
H4157 H 0.70082 0.5332 0.57668 0.0
C4158 C 0.23505 0.1716 0.49611 0.0
C4159 C 0.24994 0.16503 0.50307 0.0
C4160 C 0.21725 0.16061 0.49587 0.0
C4161 C 0.19108 0.11095 0.49566 0.0
H4162 H 0.15426 0.13575 0.51778 0.0
C4163 C 0.12207 0.06482 0.50927 0.0
C4164 C 0.10661 0.07286 0.50914 0.0
C4165 C 0.13926 0.07624 0.50774 0.0
C4166 C 0.16416 0.12855 0.51114 0.0
H4167 H 0.25786 0.14283 0.51673 0.0
H4168 H 0.22694 0.12322 0.51561 0.0
H4169 H 0.18447 0.15539 0.51586 0.0
H4170 H 0.09687 0.09902 0.50703 0.0
H4171 H 0.12657 0.1187 0.50326 0.0
H4172 H 0.17091 0.08427 0.49023 0.0
C4173 C 0.22899 0.13659 0.50994 0.0
C4174 C 0.18156 0.13988 0.51016 0.0
C4175 C 0.24669 0.14771 0.51043 0.0
C4176 C 0.10861 0.09248 0.50722 0.0
C4177 C 0.12573 0.10381 0.50524 0.0
C4178 C 0.1736 0.09969 0.49619 0.0
C4179 C 0.21407 0.14289 0.50266 0.0
C4180 C 0.19527 0.13115 0.50262 0.0
C4181 C 0.1414 0.09594 0.50564 0.0
C4182 C 0.15988 0.10822 0.5042 0.0
H4183 H 0.2372 0.18517 0.49078 0.0
H4184 H 0.20598 0.16586 0.49026 0.0
H4185 H 0.20135 0.10383 0.48973 0.0
H4186 H 0.12099 0.04988 0.51122 0.0
H4187 H 0.15089 0.06964 0.50866 0.0
C4188 C 0.19938 0.95193 0.75487 0.0
C4189 C 0.20386 0.96792 0.77023 0.0
C4190 C 0.20792 0.93536 0.75347 0.0
C4191 C 0.23978 0.91139 0.78259 0.0
H4192 H 0.24202 0.87812 0.73531 0.0
C4193 C 0.27214 0.84102 0.78088 0.0
C4194 C 0.27844 0.83161 0.76453 0.0
C4195 C 0.26371 0.85733 0.78108 0.0
C4196 C 0.24183 0.88716 0.74881 0.0
H4197 H 0.22173 0.9775 0.79609 0.0
H4198 H 0.23602 0.95005 0.79366 0.0
H4199 H 0.22648 0.90522 0.73632 0.0
H4200 H 0.27907 0.83249 0.73494 0.0
H4201 H 0.26512 0.86089 0.73522 0.0
H4202 H 0.2553 0.89382 0.79513 0.0
C4203 C 0.2257 0.94966 0.78259 0.0
C4204 C 0.23251 0.90298 0.74942 0.0
C4205 C 0.2173 0.96599 0.78395 0.0
C4206 C 0.27536 0.83943 0.74815 0.0
C4207 C 0.26685 0.85583 0.74831 0.0
C4208 C 0.24904 0.89566 0.78199 0.0
C4209 C 0.22145 0.93362 0.76736 0.0
C4210 C 0.23118 0.91581 0.76636 0.0
C4211 C 0.26051 0.86532 0.76478 0.0
C4212 C 0.25047 0.88284 0.76511 0.0
H4213 H 0.18943 0.95228 0.74368 0.0
H4214 H 0.20374 0.92379 0.74136 0.0
H4215 H 0.2393 0.92002 0.79622 0.0
H4216 H 0.27322 0.83529 0.79372 0.0
H4217 H 0.25906 0.86314 0.7942 0.0
C4218 C 0.37328 0.93191 1.00018 0.0
C4219 C 0.36372 0.94281 0.01228 0.0
C4220 C 0.39179 0.93895 0.99885 0.0
C4221 C 0.42761 0.98352 0.00695 0.0
H4222 H 0.46059 0.94987 0.01495 0.0
C4223 C 0.50352 0.01421 0.02863 0.0
C4224 C 0.51612 1.00342 0.02186 0.0
C4225 C 0.48491 1.00636 0.02482 0.0
C4226 C 0.45159 0.95935 0.01227 0.0
H4227 H 0.36602 0.96862 0.03357 0.0
H4228 H 0.39838 0.98129 0.03092 0.0
H4229 H 0.4278 0.93698 0.01281 0.0
H4230 H 0.51938 0.97566 1.00673 0.0
H4231 H 0.48665 0.96188 0.99961 0.0
H4232 H 0.45128 1.00589 1.00633 0.0
C4233 C 0.39147 0.9676 0.02209 0.0
C4234 C 0.43282 0.95197 0.01113 0.0
C4235 C 0.37301 0.96045 0.02354 0.0
C4236 C 0.50983 0.98434 0.01178 0.0
C4237 C 0.49114 0.97648 0.0078 0.0
C4238 C 0.44636 0.99084 0.00782 0.0
C4239 C 0.401 0.95691 0.00973 0.0
C4240 C 0.42071 0.96413 0.00891 0.0
C4241 C 0.47846 0.98744 0.01428 0.0
C4242 C 0.45859 0.97898 0.011 0.0
H4243 H 0.36639 0.918 0.99172 0.0
H4244 H 0.3989 0.93041 0.98931 0.0
H4245 H 0.4185 0.99307 1.00497 0.0
H4246 H 0.50795 0.02856 0.03722 0.0
H4247 H 0.47558 0.01499 0.03056 0.0
C4248 C 0.91312 0.61691 0.79309 0.0
C4249 C 0.90293 0.605 0.80418 0.0
C4250 C 0.90621 0.63157 0.78649 0.0
C4251 C 0.88204 0.6492 0.76282 0.0
H4252 H 0.85112 0.67848 0.79079 0.0
C4253 C 0.82922 0.6814 0.7262 0.0
C4254 C 0.82639 0.69973 0.73442 0.0
C4255 C 0.84047 0.67214 0.73564 0.0
C4256 C 0.85991 0.67064 0.78284 0.0
H4257 H 0.8778 0.59984 0.81768 0.0
H4258 H 0.86572 0.62504 0.80594 0.0
H4259 H 0.86832 0.65942 0.80666 0.0
H4260 H 0.83318 0.72269 0.75903 0.0
H4261 H 0.85302 0.70661 0.77548 0.0
H4262 H 0.87367 0.66042 0.73902 0.0
C4263 C 0.87915 0.62328 0.80254 0.0
C4264 C 0.86962 0.65955 0.7919 0.0
C4265 C 0.88606 0.6087 0.80918 0.0
C4266 C 0.83501 0.70854 0.75237 0.0
C4267 C 0.84635 0.69931 0.76179 0.0
C4268 C 0.87238 0.66033 0.75379 0.0
C4269 C 0.88896 0.63461 0.79078 0.0
C4270 C 0.88049 0.64836 0.78189 0.0
C4271 C 0.84923 0.681 0.75352 0.0
C4272 C 0.86088 0.67081 0.76359 0.0
H4273 H 0.92622 0.61459 0.78907 0.0
H4274 H 0.91423 0.64026 0.7777 0.0
H4275 H 0.89014 0.64063 0.75462 0.0
H4276 H 0.82252 0.67406 0.71254 0.0
H4277 H 0.84205 0.65783 0.72904 0.0
C4278 C 0.85156 0.66854 0.02844 0.0
C4279 C 0.84359 0.66434 0.00984 0.0
C4280 C 0.86622 0.66046 0.03338 0.0
C4281 C 0.90275 0.63738 0.01489 0.0
H4282 H 0.89449 0.6068 0.05438 0.0
C4283 C 0.95462 0.5954 0.04242 0.0
C4284 C 0.94722 0.57566 0.04323 0.0
C4285 C 0.9433 0.60798 0.03886 0.0
C4286 C 0.89702 0.61535 0.04339 0.0
H4287 H 0.84539 0.64938 0.98167 0.0
H4288 H 0.87127 0.63587 0.99017 0.0
H4289 H 0.87319 0.62695 0.04756 0.0
H4290 H 0.92186 0.55379 0.04018 0.0
H4291 H 0.90228 0.57589 0.03478 0.0
H4292 H 0.92652 0.62561 0.01064 0.0
C4293 C 0.86611 0.64519 1.00097 0.0
C4294 C 0.88493 0.62702 0.03959 0.0
C4295 C 0.85126 0.65289 0.99612 0.0
C4296 C 0.92816 0.56893 0.04021 0.0
C4297 C 0.91687 0.58158 0.037 0.0
C4298 C 0.91505 0.62599 0.01893 0.0
C4299 C 0.87343 0.64842 0.01973 0.0
C4300 C 0.88747 0.63789 0.02509 0.0
C4301 C 0.92429 0.60125 0.03634 0.0
C4302 C 0.91211 0.61456 0.03298 0.0
H4303 H 0.84584 0.67714 0.03935 0.0
H4304 H 0.87165 0.66325 0.04794 0.0
H4305 H 0.90505 0.64562 1.00365 0.0
H4306 H 0.96914 0.60133 0.04494 0.0
H4307 H 0.94938 0.62311 0.0385 0.0
C4308 C 0.19428 0.08824 0.78126 0.0
C4309 C 0.2011 0.07178 0.77396 0.0
C4310 C 0.20419 0.10757 0.78145 0.0
C4311 C 0.25113 0.13782 0.77713 0.0
H4312 H 0.22472 0.17687 0.76756 0.0
C4313 C 0.29017 0.21771 0.77042 0.0
C4314 C 0.28143 0.23353 0.77387 0.0
C4315 C 0.28078 0.19814 0.77037 0.0
C4316 C 0.23257 0.16649 0.77065 0.0
H4317 H 0.22342 0.06335 0.75967 0.0
H4318 H 0.24088 0.09675 0.76043 0.0
H4319 H 0.20824 0.14379 0.7681 0.0
H4320 H 0.25555 0.24036 0.78042 0.0
H4321 H 0.23967 0.20714 0.78103 0.0
H4322 H 0.27545 0.16051 0.78008 0.0
C4323 C 0.22801 0.09482 0.76656 0.0
C4324 C 0.22291 0.14717 0.77087 0.0
C4325 C 0.21799 0.07549 0.76623 0.0
C4326 C 0.26295 0.22886 0.77749 0.0
C4327 C 0.25366 0.20941 0.77767 0.0
C4328 C 0.26081 0.15725 0.77717 0.0
C4329 C 0.22135 0.11137 0.77415 0.0
C4330 C 0.23192 0.13231 0.77409 0.0
C4331 C 0.26221 0.1934 0.77398 0.0
C4332 C 0.25182 0.1722 0.77392 0.0
H4333 H 0.1812 0.08616 0.78698 0.0
H4334 H 0.19838 0.11961 0.78751 0.0
H4335 H 0.25879 0.12714 0.77988 0.0
H4336 H 0.30432 0.2204 0.7675 0.0
H4337 H 0.28819 0.1867 0.76717 0.0
C4338 C 0.42371 0.98253 0.30536 0.0
C4339 C 0.41408 0.99571 0.29957 0.0
C4340 C 0.41576 0.96248 0.30192 0.0
C4341 C 0.37103 0.92855 0.29204 0.0
H4342 H 0.39713 0.89016 0.27012 0.0
C4343 C 0.33294 0.84944 0.26612 0.0
C4344 C 0.34193 0.83466 0.26885 0.0
C4345 C 0.34258 0.86882 0.26881 0.0
C4346 C 0.38969 0.90061 0.27653 0.0
H4347 H 0.3895 0.99849 0.28441 0.0
H4348 H 0.37556 0.96376 0.27866 0.0
H4349 H 0.4128 0.92451 0.27849 0.0
H4350 H 0.36807 0.82792 0.27484 0.0
H4351 H 0.38486 0.86188 0.28075 0.0
H4352 H 0.348 0.90512 0.29028 0.0
C4353 C 0.38892 0.96876 0.28632 0.0
C4354 C 0.39871 0.92029 0.28131 0.0
C4355 C 0.39685 0.98862 0.28967 0.0
C4356 C 0.36087 0.83926 0.27301 0.0
C4357 C 0.37047 0.85871 0.27625 0.0
C4358 C 0.3621 0.90897 0.28748 0.0
C4359 C 0.3982 0.95548 0.29251 0.0
C4360 C 0.38937 0.93445 0.2889 0.0
C4361 C 0.36138 0.87382 0.27457 0.0
C4362 C 0.3712 0.8947 0.2795 0.0
H4363 H 0.4372 0.98775 0.31268 0.0
H4364 H 0.4232 0.95249 0.3068 0.0
H4365 H 0.36349 0.93911 0.29793 0.0
H4366 H 0.31845 0.84607 0.26208 0.0
H4367 H 0.33517 0.87987 0.26659 0.0
C4368 C 0.57447 0.36099 0.57915 0.0
C4369 C 0.57679 0.36061 0.59847 0.0
C4370 C 0.57353 0.37827 0.57259 0.0
C4371 C 0.57953 0.43336 0.58763 0.0
H4372 H 0.55346 0.42758 0.53876 0.0
C4373 C 0.56154 0.49907 0.55562 0.0
C4374 C 0.56685 0.5 0.53742 0.0
C4375 C 0.56202 0.48244 0.56375 0.0
C4376 C 0.56083 0.42951 0.55242 0.0
H4377 H 0.58002 0.37869 0.62604 0.0
H4378 H 0.57757 0.40878 0.61475 0.0
H4379 H 0.5556 0.39873 0.55175 0.0
H4380 H 0.57711 0.48425 0.51375 0.0
H4381 H 0.57701 0.45495 0.52742 0.0
H4382 H 0.58393 0.46443 0.58833 0.0
C4383 C 0.57701 0.39573 0.60447 0.0
C4384 C 0.56229 0.41282 0.55993 0.0
C4385 C 0.57842 0.37837 0.61106 0.0
C4386 C 0.57251 0.48383 0.52759 0.0
C4387 C 0.57252 0.46705 0.53548 0.0
C4388 C 0.57768 0.45011 0.58026 0.0
C4389 C 0.57428 0.39599 0.58503 0.0
C4390 C 0.57199 0.41427 0.57756 0.0
C4391 C 0.56757 0.46617 0.5538 0.0
C4392 C 0.56854 0.44843 0.5624 0.0
H4393 H 0.57326 0.34775 0.56891 0.0
H4394 H 0.57218 0.37752 0.55756 0.0
H4395 H 0.58727 0.4355 0.6011 0.0
H4396 H 0.5575 0.51142 0.56377 0.0
H4397 H 0.55808 0.48232 0.57786 0.0
C4398 C 0.46599 0.75305 0.38135 0.0
C4399 C 0.47294 0.76586 0.39827 0.0
C4400 C 0.44896 0.75315 0.37252 0.0
C4401 C 0.41655 0.78635 0.3711 0.0
H4402 H 0.38643 0.74148 0.33776 0.0
C4403 C 0.34981 0.79222 0.33062 0.0
C4404 C 0.34552 0.78192 0.31201 0.0
C4405 C 0.364 0.78901 0.34225 0.0
C4406 C 0.39476 0.75427 0.34681 0.0
H4407 H 0.46665 0.78719 0.42036 0.0
H4408 H 0.43694 0.78744 0.40513 0.0
H4409 H 0.41284 0.73757 0.35635 0.0
H4410 H 0.3525 0.75932 0.29178 0.0
H4411 H 0.37735 0.75407 0.31159 0.0
H4412 H 0.39874 0.80314 0.36132 0.0
C4413 C 0.44483 0.77776 0.39818 0.0
C4414 C 0.41 0.75201 0.35758 0.0
C4415 C 0.46183 0.77755 0.40704 0.0
C4416 C 0.35549 0.76782 0.30575 0.0
C4417 C 0.36972 0.76464 0.31733 0.0
C4418 C 0.4014 0.78864 0.36027 0.0
C4419 C 0.43835 0.76602 0.38046 0.0
C4420 C 0.42129 0.76805 0.3698 0.0
C4421 C 0.3744 0.77536 0.33573 0.0
C4422 C 0.39028 0.77268 0.34783 0.0
H4423 H 0.47404 0.74343 0.37457 0.0
H4424 H 0.44465 0.74384 0.35896 0.0
H4425 H 0.42489 0.7992 0.38006 0.0
H4426 H 0.34239 0.80304 0.33621 0.0
H4427 H 0.36677 0.7973 0.35642 0.0
C4428 C 0.08838 0.75682 0.08906 0.0
C4429 C 0.08155 0.7633 0.10603 0.0
C4430 C 0.08618 0.73674 0.082 0.0
C4431 C 0.06018 0.68735 0.08909 0.0
H4432 H 0.09592 0.66795 0.05931 0.0
C4433 C 0.06509 0.60648 0.07744 0.0
C4434 C 0.0639 0.59679 0.05873 0.0
C4435 C 0.06786 0.62686 0.08186 0.0
C4436 C 0.08577 0.67319 0.0675 0.0
H4437 H 0.06858 0.75386 0.12975 0.0
H4438 H 0.06519 0.71907 0.11797 0.0
H4439 H 0.09955 0.70319 0.06988 0.0
H4440 H 0.06443 0.60112 0.02991 0.0
H4441 H 0.07026 0.63702 0.03774 0.0
H4442 H 0.04694 0.65725 0.08739 0.0
C4443 C 0.07135 0.72925 0.10938 0.0
C4444 C 0.08776 0.69346 0.07352 0.0
C4445 C 0.07341 0.74929 0.1163 0.0
C4446 C 0.06584 0.60811 0.04449 0.0
C4447 C 0.06903 0.62866 0.04897 0.0
C4448 C 0.05843 0.66718 0.0834 0.0
C4449 C 0.07751 0.72254 0.09199 0.0
C4450 C 0.07509 0.70092 0.08464 0.0
C4451 C 0.06968 0.63822 0.06771 0.0
C4452 C 0.07126 0.65981 0.07268 0.0
H4453 H 0.09546 0.76732 0.08125 0.0
H4454 H 0.09111 0.73242 0.06857 0.0
H4455 H 0.04974 0.69225 0.09702 0.0
H4456 H 0.06342 0.59819 0.08871 0.0
H4457 H 0.06838 0.63377 0.09641 0.0
C4458 C 0.08326 0.279 0.9034 0.0
C4459 C 0.06727 0.27611 0.89135 0.0
C4460 C 0.10019 0.27903 0.896 0.0
C4461 C 0.12035 0.26295 0.8519 0.0
H4462 H 0.16076 0.30717 0.8692 0.0
C4463 C 0.1755 0.28728 0.80408 0.0
C4464 C 0.19374 0.29456 0.81148 0.0
C4465 C 0.16172 0.28279 0.81579 0.0
C4466 C 0.14975 0.29453 0.86438 0.0
H4467 H 0.05662 0.27028 0.86207 0.0
H4468 H 0.08555 0.26993 0.84944 0.0
H4469 H 0.13371 0.30292 0.88666 0.0
H4470 H 0.21175 0.30249 0.83716 0.0
H4471 H 0.18752 0.29464 0.85779 0.0
H4472 H 0.13599 0.25479 0.82939 0.0
C4473 C 0.08523 0.27225 0.86454 0.0
C4474 C 0.13424 0.29208 0.87442 0.0
C4475 C 0.06856 0.27254 0.87185 0.0
C4476 C 0.19786 0.29682 0.83099 0.0
C4477 C 0.18396 0.29249 0.84281 0.0
C4478 C 0.13578 0.26537 0.84192 0.0
C4479 C 0.10134 0.27572 0.87642 0.0
C4480 C 0.1191 0.27659 0.86795 0.0
C4481 C 0.16566 0.28549 0.83535 0.0
C4482 C 0.15048 0.28153 0.84765 0.0
H4483 H 0.08278 0.28193 0.91847 0.0
H4484 H 0.11235 0.28173 0.90555 0.0
H4485 H 0.10911 0.25064 0.8467 0.0
H4486 H 0.17183 0.28519 0.78912 0.0
H4487 H 0.14782 0.27769 0.80949 0.0
C4488 C 0.58042 0.758 0.9145 0.0
C4489 C 0.59181 0.7767 0.91987 0.0
C4490 C 0.57808 0.74495 0.92705 0.0
C4491 C 0.58121 0.74429 0.97778 0.0
H4492 H 0.57646 0.6886 0.96138 0.0
C4493 C 0.5735 0.68888 0.02888 0.0
C4494 C 0.56139 0.67074 0.02253 0.0
C4495 C 0.5777 0.70225 0.01676 0.0
C4496 C 0.57757 0.70409 0.96615 0.0
H4497 H 0.61024 0.79611 0.94238 0.0
H4498 H 0.60634 0.77324 0.9642 0.0
H4499 H 0.58379 0.71065 0.93919 0.0
H4500 H 0.54342 0.65285 0.99887 0.0
H4501 H 0.5506 0.67615 0.97785 0.0
H4502 H 0.57484 0.73768 1.00472 0.0
C4503 C 0.59897 0.76878 0.95039 0.0
C4504 C 0.5818 0.71673 0.95343 0.0
C4505 C 0.60132 0.78182 0.93783 0.0
C4506 C 0.55307 0.66656 1.00407 0.0
C4507 C 0.55724 0.67988 0.992 0.0
C4508 C 0.57697 0.73163 0.99052 0.0
C4509 C 0.58709 0.75031 0.94526 0.0
C4510 C 0.58353 0.73696 0.95904 0.0
C4511 C 0.56983 0.69774 0.99808 0.0
C4512 C 0.57492 0.71136 0.98479 0.0
H4513 H 0.57285 0.75363 0.90079 0.0
H4514 H 0.56871 0.73091 0.9227 0.0
H4515 H 0.58218 0.75977 0.9825 0.0
H4516 H 0.58024 0.69245 0.04298 0.0
H4517 H 0.58753 0.71584 0.02185 0.0
C4518 C 0.08198 0.78547 0.67587 0.0
C4519 C 0.06561 0.77948 0.68366 0.0
C4520 C 0.09806 0.78145 0.68315 0.0
C4521 C 0.11889 0.76785 0.72469 0.0
H4522 H 0.1484 0.74422 0.68954 0.0
C4523 C 0.18834 0.75203 0.7464 0.0
C4524 C 0.19188 0.73412 0.73791 0.0
C4525 C 0.1727 0.75778 0.74056 0.0
C4526 C 0.14021 0.7507 0.6995 0.0
H4527 H 0.05274 0.7636 0.70413 0.0
H4528 H 0.08076 0.75687 0.71707 0.0
H4529 H 0.12215 0.75533 0.67774 0.0
H4530 H 0.18169 0.70788 0.71711 0.0
H4531 H 0.15414 0.7179 0.70687 0.0
H4532 H 0.1368 0.763 0.74645 0.0
C4533 C 0.08139 0.76516 0.70579 0.0
C4534 C 0.12537 0.75731 0.69276 0.0
C4535 C 0.0654 0.76906 0.69845 0.0
C4536 C 0.17918 0.7217 0.72393 0.0
C4537 C 0.16358 0.72753 0.71795 0.0
C4538 C 0.13381 0.7614 0.73143 0.0
C4539 C 0.09786 0.7712 0.69816 0.0
C4540 C 0.11448 0.76576 0.70529 0.0
C4541 C 0.16035 0.74577 0.72602 0.0
C4542 C 0.14451 0.75259 0.7189 0.0
H4543 H 0.08228 0.79316 0.66416 0.0
H4544 H 0.11061 0.78623 0.67701 0.0
H4545 H 0.11074 0.77438 0.73465 0.0
H4546 H 0.19791 0.76181 0.7573 0.0
H4547 H 0.1706 0.77193 0.74697 0.0
C4548 C 0.1016 0.38898 0.38856 0.0
C4549 C 0.10506 0.37348 0.39696 0.0
C4550 C 0.10118 0.40694 0.39965 0.0
C4551 C 0.08789 0.42281 0.4455 0.0
H4552 H 0.10452 0.47574 0.43696 0.0
C4553 C 0.07158 0.50409 0.46915 0.0
C4554 C 0.06944 0.50347 0.48812 0.0
C4555 C 0.0777 0.48922 0.45789 0.0
C4556 C 0.0996 0.46101 0.43938 0.0
H4557 H 0.11321 0.36562 0.42333 0.0
H4558 H 0.11249 0.39687 0.44249 0.0
H4559 H 0.11395 0.44869 0.41734 0.0
H4560 H 0.07156 0.48679 0.51013 0.0
H4561 H 0.08321 0.46152 0.49103 0.0
H4562 H 0.07291 0.43463 0.46684 0.0
C4563 C 0.10967 0.39495 0.42742 0.0
C4564 C 0.10512 0.4456 0.42824 0.0
C4565 C 0.11012 0.37706 0.41639 0.0
C4566 C 0.07352 0.48785 0.49568 0.0
C4567 C 0.07987 0.47316 0.48458 0.0
C4568 C 0.0822 0.43809 0.45641 0.0
C4569 C 0.10428 0.40966 0.41926 0.0
C4570 C 0.09939 0.42638 0.43132 0.0
C4571 C 0.08193 0.47356 0.46549 0.0
C4572 C 0.08804 0.45741 0.4536 0.0
H4573 H 0.0979 0.38685 0.37362 0.0
H4574 H 0.09707 0.41811 0.39302 0.0
H4575 H 0.08287 0.40806 0.44785 0.0
H4576 H 0.0689 0.51623 0.4631 0.0
H4577 H 0.07893 0.48992 0.44322 0.0
C4578 C 0.47007 0.29045 0.1845 0.0
C4579 C 0.46449 0.27621 0.16811 0.0
C4580 C 0.45766 0.29414 0.19753 0.0
C4581 C 0.41817 0.27102 0.21691 0.0
H4582 H 0.40156 0.31958 0.22417 0.0
C4583 C 0.34818 0.2915 0.23335 0.0
C4584 C 0.3453 0.28734 0.2513 0.0
C4585 C 0.36547 0.29357 0.22709 0.0
C4586 C 0.40637 0.30612 0.22256 0.0
H4587 H 0.4414 0.25498 0.15246 0.0
H4588 H 0.41999 0.26106 0.17552 0.0
H4589 H 0.42717 0.31636 0.20526 0.0
H4590 H 0.35766 0.2809 0.27645 0.0
H4591 H 0.38817 0.28383 0.26511 0.0
H4592 H 0.39706 0.26054 0.23369 0.0
C4593 C 0.43395 0.26937 0.17813 0.0
C4594 C 0.42094 0.30429 0.21179 0.0
C4595 C 0.4462 0.26598 0.16492 0.0
C4596 C 0.35984 0.28479 0.26282 0.0
C4597 C 0.37714 0.28634 0.25632 0.0
C4598 C 0.40387 0.27298 0.22798 0.0
C4599 C 0.43962 0.28335 0.19456 0.0
C4600 C 0.42649 0.2865 0.20841 0.0
C4601 C 0.38001 0.2907 0.23838 0.0
C4602 C 0.39749 0.29031 0.23036 0.0
H4603 H 0.48405 0.29864 0.18731 0.0
H4604 H 0.46221 0.30508 0.21011 0.0
H4605 H 0.42231 0.25718 0.21442 0.0
H4606 H 0.33694 0.2929 0.22409 0.0
H4607 H 0.36731 0.29653 0.21307 0.0
C4608 C 0.63938 0.52066 0.32607 0.0
C4609 C 0.65862 0.52332 0.32692 0.0
C4610 C 0.62979 0.52211 0.34268 0.0
C4611 C 0.63765 0.53975 0.39697 0.0
H4612 H 0.58716 0.51388 0.39668 0.0
C4613 C 0.59831 0.55238 0.46573 0.0
C4614 C 0.58301 0.53836 0.46902 0.0
C4615 C 0.60684 0.55051 0.44859 0.0
C4616 C 0.60132 0.52123 0.39738 0.0
H4617 H 0.68218 0.52957 0.34731 0.0
H4618 H 0.66602 0.53172 0.37523 0.0
H4619 H 0.60242 0.51054 0.36784 0.0
H4620 H 0.56527 0.51095 0.45554 0.0
H4621 H 0.57978 0.50767 0.42616 0.0
H4622 H 0.63676 0.55019 0.42644 0.0
C4623 C 0.65802 0.52884 0.36184 0.0
C4624 C 0.61022 0.51944 0.38039 0.0
C4625 C 0.66751 0.52736 0.34538 0.0
C4626 C 0.57676 0.52234 0.45399 0.0
C4627 C 0.58526 0.52048 0.43679 0.0
C4628 C 0.62877 0.54159 0.41388 0.0
C4629 C 0.63883 0.52644 0.36119 0.0
C4630 C 0.62876 0.52857 0.37958 0.0
C4631 C 0.60069 0.53447 0.43347 0.0
C4632 C 0.61029 0.53239 0.41477 0.0
H4633 H 0.63164 0.51767 0.3125 0.0
H4634 H 0.61515 0.52019 0.34088 0.0
H4635 H 0.65169 0.5475 0.39767 0.0
H4636 H 0.60384 0.56505 0.47653 0.0
H4637 H 0.61829 0.56204 0.44723 0.0
C4638 C 0.30968 0.8788 0.06281 0.0
C4639 C 0.31551 0.89925 0.06556 0.0
C4640 C 0.31377 0.86861 0.07671 0.0
C4641 C 0.32438 0.87066 0.126 0.0
H4642 H 0.35062 0.8303 0.10968 0.0
C4643 C 0.34462 0.82297 0.1768 0.0
C4644 C 0.34212 0.80295 0.16944 0.0
C4645 C 0.34393 0.83637 0.16488 0.0
C4646 C 0.34315 0.84135 0.11445 0.0
H4647 H 0.32923 0.92517 0.08544 0.0
H4648 H 0.33591 0.90719 0.11011 0.0
H4649 H 0.34287 0.85052 0.08782 0.0
H4650 H 0.33739 0.78122 0.14396 0.0
H4651 H 0.33564 0.80439 0.12311 0.0
H4652 H 0.32375 0.86095 0.15232 0.0
C4653 C 0.32843 0.89918 0.09701 0.0
C4654 C 0.33881 0.85298 0.10195 0.0
C4655 C 0.32458 0.90941 0.08294 0.0
C4656 C 0.33958 0.79662 0.14994 0.0
C4657 C 0.33862 0.80996 0.13802 0.0
C4658 C 0.32844 0.8588 0.13846 0.0
C4659 C 0.32351 0.87867 0.09374 0.0
C4660 C 0.32917 0.86751 0.10754 0.0
C4661 C 0.34045 0.82997 0.14535 0.0
C4662 C 0.33764 0.84378 0.13274 0.0
H4663 H 0.30266 0.87053 0.0496 0.0
H4664 H 0.30965 0.8528 0.074 0.0
H4665 H 0.31688 0.88177 0.13055 0.0
H4666 H 0.34675 0.8282 0.19182 0.0
H4667 H 0.3458 0.85169 0.171 0.0
C4668 C 0.96642 0.5883 0.86409 0.0
C4669 C 0.94794 0.57958 0.86451 0.0
C4670 C 0.97843 0.59253 0.88033 0.0
C4671 C 0.98051 0.59373 0.93217 0.0
H4672 H 0.02553 0.57665 0.92414 0.0
C4673 C 0.01644 0.55903 0.98432 0.0
C4674 C 0.03533 0.56571 0.98887 0.0
C4675 C 0.0075 0.56574 0.97032 0.0
C4676 C 0.01319 0.58184 0.92659 0.0
H4677 H 0.9274 0.56966 0.88264 0.0
H4678 H 0.94832 0.57634 0.91068 0.0
H4679 H 1.00632 0.57999 0.89734 0.0
H4680 H 0.05954 0.58504 0.98235 0.0
H4681 H 0.04388 0.59604 0.95706 0.0
H4682 H 0.9869 0.59412 0.96139 0.0
C4683 C 0.95358 0.58029 0.89794 0.0
C4684 C 1.00217 0.58383 0.91125 0.0
C4685 C 0.94154 0.5763 0.88176 0.0
C4686 C 0.04506 0.57933 0.97901 0.0
C4687 C 0.03611 0.58575 0.96465 0.0
C4688 C 0.9914 0.59145 0.94746 0.0
C4689 C 0.97228 0.58795 0.89732 0.0
C4690 C 0.98539 0.5892 0.9138 0.0
C4691 C 0.01723 0.57906 0.9603 0.0
C4692 C 0.00755 0.58494 0.94472 0.0
H4693 H 0.97176 0.59131 0.85107 0.0
H4694 H 0.99264 0.59886 0.87942 0.0
H4695 H 0.96793 0.59836 0.93472 0.0
H4696 H 0.00843 0.54858 0.99157 0.0
H4697 H 0.99297 0.56015 0.96702 0.0
C4698 C 0.30959 0.2374 0.57307 0.0
C4699 C 0.30483 0.21698 0.56713 0.0
C4700 C 0.30974 0.24577 0.59207 0.0
C4701 C 0.31221 0.23429 0.64016 0.0
H4702 H 0.29167 0.27975 0.65374 0.0
C4703 C 0.30385 0.2633 0.71772 0.0
C4704 C 0.30746 0.28364 0.72378 0.0
C4705 C 0.30224 0.25524 0.69855 0.0
C4706 C 0.29766 0.26719 0.65025 0.0
H4707 H 0.29671 0.1894 0.57667 0.0
H4708 H 0.29713 0.20389 0.60961 0.0
H4709 H 0.29233 0.26604 0.62067 0.0
H4710 H 0.31281 0.31153 0.71467 0.0
H4711 H 0.31016 0.29762 0.68119 0.0
H4712 H 0.31785 0.23553 0.66959 0.0
C4713 C 0.30082 0.2135 0.59966 0.0
C4714 C 0.29803 0.25931 0.63123 0.0
C4715 C 0.30051 0.20517 0.5807 0.0
C4716 C 0.30949 0.29578 0.7103 0.0
C4717 C 0.30795 0.28775 0.6911 0.0
C4718 C 0.31195 0.24223 0.65914 0.0
C4719 C 0.30532 0.23392 0.60564 0.0
C4720 C 0.30526 0.24269 0.62591 0.0
C4721 C 0.30464 0.26734 0.68492 0.0
C4722 C 0.3046 0.25876 0.66453 0.0
H4723 H 0.31293 0.24695 0.56301 0.0
H4724 H 0.31346 0.26153 0.59615 0.0
H4725 H 0.31815 0.22169 0.63665 0.0
H4726 H 0.30273 0.25363 0.72787 0.0
H4727 H 0.2994 0.23949 0.69445 0.0
C4728 C 0.66086 0.52398 0.19869 0.0
C4729 C 0.65061 0.51743 0.21309 0.0
C4730 C 0.65252 0.52649 0.18133 0.0
C4731 C 0.60579 0.51722 0.15126 0.0
H4732 H 0.63402 0.55073 0.12162 0.0
C4733 C 0.57282 0.53556 0.08018 0.0
C4734 C 0.58414 0.53919 0.0656 0.0
C4735 C 0.58009 0.53339 0.09829 0.0
C4736 C 0.62571 0.54105 0.12935 0.0
H4737 H 0.62272 0.50862 0.21942 0.0
H4738 H 0.60836 0.51307 0.18988 0.0
H4739 H 0.64768 0.54593 0.151 0.0
H4740 H 0.61232 0.54311 0.05968 0.0
H4741 H 0.62463 0.5396 0.09023 0.0
H4742 H 0.58371 0.51266 0.12947 0.0
C4743 C 0.62306 0.51605 0.19164 0.0
C4744 C 0.63377 0.53819 0.14667 0.0
C4745 C 0.63144 0.51346 0.20899 0.0
C4746 C 0.60293 0.54064 0.07025 0.0
C4747 C 0.61014 0.53865 0.08817 0.0
C4748 C 0.59768 0.52019 0.13392 0.0
C4749 C 0.63329 0.52279 0.17718 0.0
C4750 C 0.6242 0.52604 0.15825 0.0
C4751 C 0.59905 0.5348 0.10285 0.0
C4752 C 0.60742 0.53209 0.12226 0.0
H4753 H 0.67558 0.52737 0.20085 0.0
H4754 H 0.66146 0.53131 0.17109 0.0
H4755 H 0.59747 0.50757 0.159 0.0
H4756 H 0.55828 0.53396 0.07751 0.0
H4757 H 0.5707 0.5306 0.10877 0.0
C4758 C 0.29599 0.88516 0.96165 0.0
C4759 C 0.30139 0.90543 0.96209 0.0
C4760 C 0.29273 0.87206 0.9446 0.0
C4761 C 0.28484 0.86854 0.89328 0.0
H4762 H 0.31073 0.82653 0.89048 0.0
C4763 C 0.30731 0.83408 0.82453 0.0
C4764 C 0.30537 0.8137 0.82032 0.0
C4765 C 0.30403 0.84313 0.84211 0.0
C4766 C 0.30313 0.83794 0.8911 0.0
H4767 H 0.30667 0.92779 0.94482 0.0
H4768 H 0.30106 0.90493 0.91514 0.0
H4769 H 0.30902 0.84648 0.92086 0.0
H4770 H 0.29905 0.7869 0.83153 0.0
H4771 H 0.29329 0.80288 0.86254 0.0
H4772 H 0.27946 0.86041 0.86346 0.0
C4773 C 0.29925 0.89919 0.928 0.0
C4774 C 0.30214 0.84936 0.90848 0.0
C4775 C 0.30257 0.9123 0.94504 0.0
C4776 C 0.30054 0.80261 0.83433 0.0
C4777 C 0.29728 0.81174 0.85205 0.0
C4778 C 0.28583 0.85714 0.87594 0.0
C4779 C 0.29469 0.87893 0.92762 0.0
C4780 C 0.29342 0.86512 0.90966 0.0
C4781 C 0.29879 0.83208 0.856 0.0
C4782 C 0.29546 0.84211 0.87461 0.0
H4783 H 0.29482 0.87932 0.9745 0.0
H4784 H 0.28902 0.85652 0.94471 0.0
H4785 H 0.27774 0.88036 0.89382 0.0
H4786 H 0.31105 0.84313 0.81413 0.0
H4787 H 0.30572 0.85888 0.84488 0.0
C4788 C 0.94747 0.54463 0.74272 0.0
C4789 C 0.95465 0.55972 0.758 0.0
C4790 C 0.9568 0.54238 0.72667 0.0
C4791 C 1.00327 0.55598 0.7116 0.0
H4792 H 0.97857 0.53404 0.66201 0.0
C4793 C 0.04095 0.54928 0.64451 0.0
C4794 C 0.03686 0.53067 0.63306 0.0
C4795 C 0.03046 0.55364 0.65924 0.0
C4796 C 0.98561 0.54011 0.67581 0.0
H4797 H 0.97659 0.58498 0.76812 0.0
H4798 H 0.99248 0.58164 0.73984 0.0
H4799 H 0.96076 0.54123 0.68834 0.0
H4800 H 0.01848 0.50215 0.62771 0.0
H4801 H 0.99991 0.50988 0.65341 0.0
H4802 H 0.02812 0.55517 0.69888 0.0
C4803 C 0.98002 0.57105 0.74045 0.0
C4804 C 0.97543 0.54418 0.69093 0.0
C4805 C 0.97085 0.57308 0.75661 0.0
C4806 C 0.02197 0.51656 0.63645 0.0
C4807 C 0.01129 0.52102 0.651 0.0
C4808 C 0.01342 0.5522 0.69645 0.0
C4809 C 0.97338 0.55537 0.72544 0.0
C4810 C 0.98413 0.55201 0.70907 0.0
C4811 C 0.01553 0.53956 0.6626 0.0
C4812 C 1.00469 0.54408 0.67846 0.0
H4813 H 0.93504 0.53404 0.74346 0.0
H4814 H 0.95134 0.52999 0.71556 0.0
H4815 H 0.01048 0.56157 0.72538 0.0
H4816 H 0.05242 0.56038 0.64222 0.0
H4817 H 0.03395 0.56806 0.66794 0.0
C4818 C 0.31376 0.2257 0.45957 0.0
C4819 C 0.304 0.2061 0.45682 0.0
C4820 C 0.31605 0.2357 0.44431 0.0
C4821 C 0.29393 0.23858 0.39973 0.0
H4822 H 0.3409 0.25511 0.38135 0.0
C4823 C 0.29794 0.25858 0.32615 0.0
C4824 C 0.31261 0.27279 0.32235 0.0
C4825 C 0.2979 0.25183 0.3432 0.0
C4826 C 0.32766 0.25098 0.38639 0.0
H4827 H 0.28897 0.18189 0.43564 0.0
H4828 H 0.29231 0.19949 0.40964 0.0
H4829 H 0.33907 0.24208 0.41055 0.0
H4830 H 0.33942 0.28991 0.33345 0.0
H4831 H 0.33895 0.27913 0.36368 0.0
H4832 H 0.28234 0.24773 0.37619 0.0
C4833 C 0.29843 0.20701 0.42347 0.0
C4834 C 0.32667 0.24345 0.40316 0.0
C4835 C 0.29653 0.19694 0.43848 0.0
C4836 C 0.32758 0.27952 0.33603 0.0
C4837 C 0.32741 0.27302 0.35335 0.0
C4838 C 0.29492 0.24643 0.38325 0.0
C4839 C 0.30822 0.22647 0.42614 0.0
C4840 C 0.30974 0.2368 0.40979 0.0
C4841 C 0.31243 0.2592 0.35734 0.0
C4842 C 0.31175 0.25232 0.37595 0.0
H4843 H 0.31977 0.23323 0.47342 0.0
H4844 H 0.32365 0.25073 0.44676 0.0
H4845 H 0.2807 0.23369 0.40456 0.0
H4846 H 0.28627 0.25259 0.31596 0.0
H4847 H 0.28636 0.24067 0.34516 0.0
C4848 C 0.34374 0.62568 0.50769 0.0
C4849 C 0.326 0.61453 0.50204 0.0
C4850 C 0.35848 0.61654 0.50795 0.0
C4851 C 0.37038 0.56941 0.5102 0.0
H4852 H 0.41103 0.58744 0.48238 0.0
C4853 C 0.42264 0.52261 0.49075 0.0
C4854 C 0.441 0.53219 0.49129 0.0
C4855 C 0.40906 0.53331 0.49273 0.0
C4856 C 0.39996 0.58237 0.49048 0.0
H4857 H 0.30975 0.58503 0.49291 0.0
H4858 H 0.33533 0.56922 0.49373 0.0
H4859 H 0.38695 0.60557 0.48616 0.0
H4860 H 0.45934 0.56059 0.49369 0.0
H4861 H 0.43583 0.57921 0.49792 0.0
H4862 H 0.38331 0.54634 0.51473 0.0
C4863 C 0.33788 0.58497 0.49783 0.0
C4864 C 0.38617 0.59279 0.49262 0.0
C4865 C 0.32325 0.59407 0.49725 0.0
C4866 C 0.44538 0.55271 0.49354 0.0
C4867 C 0.43184 0.56341 0.49571 0.0
C4868 C 0.38424 0.55913 0.50825 0.0
C4869 C 0.35566 0.5961 0.50294 0.0
C4870 C 0.37113 0.58623 0.50227 0.0
C4871 C 0.4135 0.55387 0.49546 0.0
C4872 C 0.39909 0.56529 0.49812 0.0
H4873 H 0.34627 0.64146 0.5114 0.0
H4874 H 0.37208 0.62543 0.51202 0.0
H4875 H 0.359 0.56417 0.51787 0.0
H4876 H 0.41875 0.50685 0.48918 0.0
H4877 H 0.39505 0.52541 0.4921 0.0
C4878 C 0.87201 0.93381 0.5539 0.0
C4879 C 0.86594 0.91661 0.5406 0.0
C4880 C 0.89025 0.94384 0.55575 0.0
C4881 C 0.93617 0.94029 0.53867 0.0
H4882 H 0.94463 0.99682 0.55033 0.0
C4883 C 0.99878 0.99137 0.51752 0.0
C4884 C 0.00737 1.00825 0.53049 0.0
C4885 C 0.98253 0.97955 0.52108 0.0
C4886 C 0.94256 0.98104 0.54725 0.0
H4887 H 0.87416 0.89545 0.5198 0.0
H4888 H 0.90562 0.91347 0.52183 0.0
H4889 H 0.91489 0.97727 0.55319 0.0
H4890 H 1.00589 0.02538 0.55781 0.0
H4891 H 0.97723 1.00501 0.56378 0.0
H4892 H 0.964 0.9444 0.53237 0.0
C4893 C 0.89669 0.91922 0.53134 0.0
C4894 C 0.92539 0.96969 0.54886 0.0
C4895 C 0.87855 0.90892 0.52994 0.0
C4896 C 0.99945 0.01279 0.54729 0.0
C4897 C 0.98305 1.00107 0.55076 0.0
C4898 C 0.95331 0.95168 0.53692 0.0
C4899 C 0.9028 0.93708 0.54404 0.0
C4900 C 0.92173 0.94911 0.54418 0.0
C4901 C 0.97438 0.98433 0.53766 0.0
C4902 C 0.95662 0.97219 0.5409 0.0
H4903 H 0.86257 0.93962 0.56274 0.0
H4904 H 0.89434 0.95706 0.5662 0.0
H4905 H 0.9343 0.92455 0.53558 0.0
H4906 H 1.00453 0.98727 0.5045 0.0
H4907 H 0.97612 0.96686 0.51063 0.0
C4908 C 0.89318 0.12238 0.28698 0.0
C4909 C 0.90849 0.11924 0.27721 0.0
C4910 C 0.88472 0.13843 0.28593 0.0
C4911 C 0.88403 0.18283 0.26033 0.0
H4912 H 0.84949 0.19366 0.29589 0.0
C4913 C 0.84382 0.24642 0.25394 0.0
C4914 C 0.83397 0.25423 0.26835 0.0
C4915 C 0.85215 0.23024 0.25491 0.0
C4916 C 0.85908 0.19129 0.28569 0.0
H4917 H 0.92628 0.13235 0.25821 0.0
H4918 H 0.91206 0.16029 0.25663 0.0
H4919 H 0.86509 0.1675 0.2979 0.0
H4920 H 0.82717 0.25072 0.29631 0.0
H4921 H 0.84133 0.22285 0.29816 0.0
H4922 H 0.87844 0.20705 0.24851 0.0
C4923 C 0.90627 0.14997 0.26523 0.0
C4924 C 0.86821 0.1756 0.28672 0.0
C4925 C 0.91478 0.13367 0.26623 0.0
C4926 C 0.83362 0.24502 0.2843 0.0
C4927 C 0.84211 0.22876 0.28538 0.0
C4928 C 0.87495 0.19859 0.25935 0.0
C4929 C 0.89081 0.15298 0.27505 0.0
C4930 C 0.88103 0.17059 0.27403 0.0
C4931 C 0.85192 0.22081 0.27075 0.0
C4932 C 0.862 0.20347 0.27194 0.0
H4933 H 0.88728 0.11204 0.29555 0.0
H4934 H 0.87295 0.13899 0.29366 0.0
H4935 H 0.89343 0.18026 0.24997 0.0
H4936 H 0.8456 0.25331 0.24175 0.0
H4937 H 0.85905 0.22539 0.24297 0.0
C4938 C 0.72957 0.15018 0.01254 0.0
C4939 C 0.74435 0.14336 0.01918 0.0
C4940 C 0.71205 0.1426 0.01706 0.0
C4941 C 0.67699 0.1312 0.03448 0.0
H4942 H 0.66488 0.07727 0.04129 0.0
C4943 C 0.60424 0.09573 0.04803 0.0
C4944 C 0.5975 0.07634 0.03892 0.0
C4945 C 0.62283 0.10418 0.04911 0.0
C4946 C 0.66794 0.09231 0.03927 0.0
H4947 H 0.75311 0.12489 0.03702 0.0
H4948 H 0.72281 0.11235 0.04578 0.0
H4949 H 0.69551 0.09145 0.03513 0.0
H4950 H 0.60474 0.05086 0.02313 0.0
H4951 H 0.63676 0.06549 0.02444 0.0
H4952 H 0.64904 0.13157 0.03716 0.0
C4953 C 0.72429 0.1226 0.03619 0.0
C4954 C 0.68569 0.10061 0.03603 0.0
C4955 C 0.74168 0.12981 0.03127 0.0
C4956 C 0.60959 0.06554 0.03087 0.0
C4957 C 0.62807 0.07403 0.03165 0.0
C4958 C 0.65914 0.12277 0.03731 0.0
C4959 C 0.70915 0.12864 0.02892 0.0
C4960 C 0.69043 0.12012 0.03335 0.0
C4961 C 0.63494 0.09357 0.04054 0.0
C4962 C 0.6543 0.10312 0.03948 0.0
H4963 H 0.7315 0.16093 1.00345 0.0
H4964 H 0.70079 0.14742 0.01089 0.0
H4965 H 0.68014 0.1464 0.03298 0.0
H4966 H 0.59509 0.10437 0.05419 0.0
H4967 H 0.62762 0.11914 0.05637 0.0
C4968 C 0.21191 0.50565 0.27614 0.0
C4969 C 0.2205 0.52505 0.27564 0.0
C4970 C 0.22225 0.49143 0.27621 0.0
C4971 C 0.2662 0.47963 0.2658 0.0
H4972 H 0.26237 0.45512 0.30971 0.0
C4973 C 0.32025 0.43922 0.28814 0.0
C4974 C 0.31399 0.42188 0.29493 0.0
C4975 C 0.30845 0.45148 0.28536 0.0
C4976 C 0.26345 0.46154 0.29719 0.0
H4977 H 0.24628 0.54457 0.27359 0.0
H4978 H 0.26412 0.51971 0.27312 0.0
H4979 H 0.24114 0.4752 0.30314 0.0
H4980 H 0.29075 0.40443 0.30519 0.0
H4981 H 0.27011 0.42522 0.29965 0.0
H4982 H 0.28837 0.46589 0.25966 0.0
C4983 C 0.24953 0.5155 0.27368 0.0
C4984 C 0.25125 0.47301 0.29344 0.0
C4985 C 0.23932 0.52973 0.27402 0.0
C4986 C 0.29592 0.41749 0.29959 0.0
C4987 C 0.28411 0.42958 0.29663 0.0
C4988 C 0.27826 0.46792 0.26939 0.0
C4989 C 0.2412 0.49637 0.27532 0.0
C4990 C 0.25266 0.48234 0.27785 0.0
C4991 C 0.29012 0.4466 0.28923 0.0
C4992 C 0.27718 0.45891 0.28527 0.0
H4993 H 0.19744 0.50173 0.27749 0.0
H4994 H 0.21555 0.47672 0.27744 0.0
H4995 H 0.26752 0.48669 0.25367 0.0
H4996 H 0.33408 0.44298 0.28438 0.0
H4997 H 0.31366 0.4647 0.28002 0.0
C4998 C 0.26842 0.43136 0.01153 0.0
C4999 C 0.27331 0.42434 0.02762 0.0
C5000 C 0.2537 0.44033 0.01088 0.0
C5001 C 0.21256 0.44974 0.03276 0.0
H5002 H 0.22562 0.49819 0.01382 0.0
C5003 C 0.16703 0.50745 0.03527 0.0
C5004 C 0.16692 0.5172 0.01993 0.0
C5005 C 0.1787 0.49462 0.03664 0.0
C5006 C 0.22158 0.48459 0.01891 0.0
H5007 H 0.26587 0.42012 0.05526 0.0
H5008 H 0.23989 0.43604 0.05419 0.0
H5009 H 0.24764 0.47795 0.01536 0.0
H5010 H 0.17812 0.52012 0.99343 0.0
H5011 H 0.19815 0.49771 0.99563 0.0
H5012 H 0.18635 0.45655 0.03622 0.0
C5013 C 0.24752 0.43446 0.04203 0.0
C5014 C 0.23427 0.47297 0.01983 0.0
C5015 C 0.26233 0.42529 0.04264 0.0
C5016 C 0.17816 0.51321 1.00564 0.0
C5017 C 0.18969 0.50036 0.00695 0.0
C5018 C 0.19974 0.46143 0.03177 0.0
C5019 C 0.24351 0.44274 0.02639 0.0
C5020 C 0.22988 0.45524 0.02647 0.0
C5021 C 0.19045 0.49121 0.02264 0.0
C5022 C 0.20403 0.47888 0.02455 0.0
H5023 H 0.27649 0.43064 0.99964 0.0
H5024 H 0.2507 0.44605 0.99842 0.0
H5025 H 0.20878 0.43619 0.03797 0.0
H5026 H 0.15858 0.51027 0.04655 0.0
H5027 H 0.17895 0.48791 0.04896 0.0
C5028 C 0.92043 1.00172 0.27726 0.0
C5029 C 0.91249 0.01477 0.2687 0.0
C5030 C 0.91104 0.98215 0.27687 0.0
C5031 C 0.86388 0.94771 0.26583 0.0
H5032 H 0.89113 0.90771 0.26903 0.0
C5033 C 0.82713 0.86401 0.25762 0.0
C5034 C 0.83484 0.85171 0.26755 0.0
C5035 C 0.83631 0.88359 0.25748 0.0
C5036 C 0.8831 0.91857 0.26836 0.0
H5037 H 0.88878 0.01632 0.2514 0.0
H5038 H 0.87253 0.98246 0.25044 0.0
H5039 H 0.90717 0.94114 0.26913 0.0
H5040 H 0.85897 0.85124 0.28495 0.0
H5041 H 0.87469 0.88479 0.28484 0.0
H5042 H 0.83979 0.92502 0.26497 0.0
C5043 C 0.88578 0.98745 0.25827 0.0
C5044 C 0.89246 0.93809 0.26844 0.0
C5045 C 0.89516 1.00709 0.25881 0.0
C5046 C 0.8523 0.85989 0.27711 0.0
C5047 C 0.86151 0.8794 0.27693 0.0
C5048 C 0.8545 0.92815 0.26573 0.0
C5049 C 0.89338 0.97447 0.26747 0.0
C5050 C 0.88314 0.95325 0.26722 0.0
C5051 C 0.85377 0.89184 0.26715 0.0
C5052 C 0.86386 0.91304 0.26705 0.0
H5053 H 0.93387 1.00682 0.28472 0.0
H5054 H 0.91764 0.97316 0.28434 0.0
H5055 H 0.85587 0.95858 0.26515 0.0
H5056 H 0.81396 0.85847 0.24972 0.0
H5057 H 0.82973 0.89215 0.24945 0.0
C5058 C 0.71088 0.11655 0.75953 0.0
C5059 C 0.69757 0.10786 0.77008 0.0
C5060 C 0.71699 0.13681 0.76274 0.0
C5061 C 0.72125 0.18091 0.76715 0.0
H5062 H 0.74078 0.20356 0.81843 0.0
C5063 C 0.75817 0.26193 0.79065 0.0
C5064 C 0.77639 0.26362 0.79719 0.0
C5065 C 0.74572 0.24405 0.7887 0.0
C5066 C 0.7351 0.19754 0.80415 0.0
H5067 H 0.6791 0.1131 0.79114 0.0
H5068 H 0.69029 0.14881 0.79734 0.0
H5069 H 0.72176 0.17046 0.81129 0.0
H5070 H 0.79564 0.24905 0.80876 0.0
H5071 H 0.77374 0.2175 0.80537 0.0
H5072 H 0.73379 0.20833 0.76015 0.0
C5073 C 0.69602 0.13994 0.78665 0.0
C5074 C 0.72438 0.17856 0.80002 0.0
C5075 C 0.68966 0.11964 0.78315 0.0
C5076 C 0.78174 0.24773 0.80314 0.0
C5077 C 0.76923 0.22987 0.80137 0.0
C5078 C 0.73125 0.20019 0.77141 0.0
C5079 C 0.70989 0.14865 0.77661 0.0
C5080 C 0.71806 0.16981 0.78138 0.0
C5081 C 0.75126 0.22781 0.79375 0.0
C5082 C 0.73874 0.20842 0.78983 0.0
H5083 H 0.71679 0.10764 0.74904 0.0
H5084 H 0.7278 0.14316 0.75492 0.0
H5085 H 0.71634 0.17453 0.75268 0.0
H5086 H 0.75371 0.27433 0.78665 0.0
H5087 H 0.73186 0.2428 0.78301 0.0
loop_
_geom_bond_atom_site_label_1
_geom_bond_atom_site_label_2
_geom_bond_distance
_geom_bond_site_symmetry_2
_ccdc_geom_bond_type
Mn0 O5 2.095 . S
Mn0 O15 2.162 . S
Mn0 O16 2.297 . S
Mn0 O24 2.385 . S
Mn0 O25 2.209 . S
Mn0 O26 2.094 . S
Mn1 O6 2.121 . S
Mn1 N8 2.257 . S
Mn1 N17 2.282 . S
Mn1 O25 2.215 . S
Mn1 O27 2.117 . S
C2 O24 1.234 . S
C2 O25 1.283 . S
C3 O15 1.281 . S
C3 O16 1.236 . S
C4 O26 1.240 . S
C4 O27 1.264 . S
O5 Mn0 2.095 . S
O5 C14 1.250 . S
O6 Mn1 2.121 . S
O6 C14 1.258 . S
C7 N8 1.326 . S
C7 C11 1.460 . S
C7 H13 0.929 . S
N8 Mn1 2.257 . S
N8 C7 1.326 . S
N8 C12 1.362 . S
C9 C10 1.258 . S
C9 C12 1.431 . S
C9 C29 1.449 . S
C10 C9 1.258 . S
C10 C11 1.477 . S
C10 H30 0.931 . S
C11 C7 1.460 . S
C11 C10 1.477 . S
C11 H31 0.930 . S
C12 N8 1.362 . S
C12 C9 1.431 . S
C12 C22 1.476 . S
H13 C7 0.929 . S
C14 O5 1.250 . S
C14 O6 1.258 . S
O15 Mn0 2.162 . S
O15 C3 1.281 . S
O16 Mn0 2.297 . S
O16 C3 1.236 . S
N17 Mn1 2.282 . S
N17 C18 1.328 . S
N17 C22 1.318 . S
C18 N17 1.328 . S
C18 C19 1.457 . S
C18 H23 0.929 . S
C19 C18 1.457 . S
C19 C20 1.291 . S
C19 H32 0.931 . S
C20 C19 1.291 . S
C20 C21 1.373 . S
C20 H33 0.929 . S
C21 C20 1.373 . S
C21 C22 1.396 . S
C21 C28 1.403 . S
C22 C12 1.476 . S
C22 N17 1.318 . S
C22 C21 1.396 . S
H23 C18 0.929 . S
O24 Mn0 2.385 . S
O24 C2 1.234 . S
O25 Mn0 2.209 . S
O25 Mn1 2.215 . S
O25 C2 1.283 . S
O26 Mn0 2.094 . S
O26 C4 1.240 . S
O27 Mn1 2.117 . S
O27 C4 1.264 . S
C28 C21 1.403 . S
C28 C29 1.399 . S
C28 H34 0.929 . S
C29 C9 1.449 . S
C29 C28 1.399 . S
C29 H35 0.930 . S
H30 C10 0.931 . S
H31 C11 0.930 . S
H32 C19 0.931 . S
H33 C20 0.929 . S
H34 C28 0.929 . S
H35 C29 0.930 . S
Mn36 O41 2.067 1_455 S
Mn36 O51 2.163 1_455 S
Mn36 O52 2.301 1_455 S
Mn36 O60 2.415 . S
Mn36 O61 2.221 . S
Mn36 O62 2.092 . S
Mn37 O42 2.121 1_455 S
Mn37 N44 2.257 . S
Mn37 N53 2.282 . S
Mn37 O61 2.215 . S
Mn37 O63 2.117 . S
C38 O60 1.234 . S
C38 O61 1.283 . S
C39 O51 1.281 . S
C39 O52 1.236 . S
C40 O62 1.240 . S
C40 O63 1.264 . S
O41 Mn36 2.067 1_655 S
O41 C50 1.250 . S
O42 Mn37 2.121 1_655 S
O42 C50 1.258 . S
C43 N44 1.326 . S
C43 C47 1.460 . S
C43 H49 0.929 1_455 S
N44 Mn37 2.257 . S
N44 C43 1.326 . S
N44 C48 1.362 . S
C45 C46 1.258 . S
C45 C48 1.431 . S
C45 C65 1.449 . S
C46 C45 1.258 . S
C46 C47 1.477 . S
C46 H66 0.931 . S
C47 C43 1.460 . S
C47 C46 1.477 . S
C47 H67 0.930 . S
C48 N44 1.362 . S
C48 C45 1.431 . S
C48 C58 1.476 . S
H49 C43 0.929 1_655 S
C50 O41 1.250 . S
C50 O42 1.258 . S
O51 Mn36 2.163 1_655 S
O51 C39 1.281 . S
O52 Mn36 2.301 1_655 S
O52 C39 1.236 . S
N53 Mn37 2.282 . S
N53 C54 1.328 . S
N53 C58 1.318 . S
C54 N53 1.328 . S
C54 C55 1.457 . S
C54 H59 0.929 . S
C55 C54 1.457 . S
C55 C56 1.291 . S
C55 H68 0.931 . S
C56 C55 1.291 . S
C56 C57 1.373 . S
C56 H69 0.929 . S
C57 C56 1.373 . S
C57 C58 1.396 . S
C57 C64 1.403 . S
C58 C48 1.476 . S
C58 N53 1.318 . S
C58 C57 1.396 . S
H59 C54 0.929 . S
O60 Mn36 2.415 . S
O60 C38 1.234 . S
O61 Mn36 2.221 . S
O61 Mn37 2.215 . S
O61 C38 1.283 . S
O62 Mn36 2.092 . S
O62 C40 1.240 . S
O63 Mn37 2.117 . S
O63 C40 1.264 . S
C64 C57 1.403 . S
C64 C65 1.399 . S
C64 H70 0.929 . S
C65 C45 1.449 . S
C65 C64 1.399 . S
C65 H71 0.930 . S
H66 C46 0.931 . S
H67 C47 0.930 . S
H68 C55 0.931 . S
H69 C56 0.929 . S
H70 C64 0.929 . S
H71 C65 0.930 . S
Mn72 O77 2.095 . S
Mn72 O87 2.162 . S
Mn72 O88 2.297 . S
Mn72 O96 2.385 . S
Mn72 O97 2.209 . S
Mn72 O98 2.094 . S
Mn73 O78 2.121 . S
Mn73 N80 2.257 . S
Mn73 N89 2.282 . S
Mn73 O97 2.215 . S
Mn73 O99 2.117 . S
C74 O96 1.234 . S
C74 O97 1.283 . S
C75 O87 1.281 . S
C75 O88 1.236 . S
C76 O98 1.240 . S
C76 O99 1.264 . S
O77 Mn72 2.095 . S
O77 C86 1.250 . S
O78 Mn73 2.121 . S
O78 C86 1.258 . S
C79 N80 1.326 . S
C79 C83 1.460 . S
C79 H85 0.929 . S
N80 Mn73 2.257 . S
N80 C79 1.326 . S
N80 C84 1.362 . S
C81 C82 1.258 . S
C81 C84 1.431 . S
C81 C101 1.449 . S
C82 C81 1.258 . S
C82 C83 1.477 . S
C82 H102 0.931 . S
C83 C79 1.460 . S
C83 C82 1.477 . S
C83 H103 0.930 . S
C84 N80 1.362 . S
C84 C81 1.431 . S
C84 C94 1.476 . S
H85 C79 0.929 . S
C86 O77 1.250 . S
C86 O78 1.258 . S
O87 Mn72 2.162 . S
O87 C75 1.281 . S
O88 Mn72 2.297 . S
O88 C75 1.236 . S
N89 Mn73 2.282 . S
N89 C90 1.328 . S
N89 C94 1.318 . S
C90 N89 1.328 . S
C90 C91 1.457 . S
C90 H95 0.929 . S
C91 C90 1.457 . S
C91 C92 1.291 . S
C91 H104 0.931 . S
C92 C91 1.291 . S
C92 C93 1.373 . S
C92 H105 0.929 . S
C93 C92 1.373 . S
C93 C94 1.396 . S
C93 C100 1.403 . S
C94 C84 1.476 . S
C94 N89 1.318 . S
C94 C93 1.396 . S
H95 C90 0.929 . S
O96 Mn72 2.385 . S
O96 C74 1.234 . S
O97 Mn72 2.209 . S
O97 Mn73 2.215 . S
O97 C74 1.283 . S
O98 Mn72 2.094 . S
O98 C76 1.240 . S
O99 Mn73 2.117 . S
O99 C76 1.264 . S
C100 C93 1.403 . S
C100 C101 1.399 . S
C100 H106 0.929 . S
C101 C81 1.449 . S
C101 C100 1.399 . S
C101 H107 0.930 . S
H102 C82 0.931 . S
H103 C83 0.930 . S
H104 C91 0.931 . S
H105 C92 0.929 . S
H106 C100 0.929 . S
H107 C101 0.930 . S
Mn108 O113 2.095 . S
Mn108 O123 2.162 . S
Mn108 O124 2.297 . S
Mn108 O132 2.385 . S
Mn108 O133 2.209 . S
Mn108 O134 2.094 . S
Mn109 O114 2.121 . S
Mn109 N116 2.257 . S
Mn109 N125 2.282 . S
Mn109 O133 2.215 . S
Mn109 O135 2.117 . S
C110 O132 1.234 . S
C110 O133 1.283 . S
C111 O123 1.281 . S
C111 O124 1.236 . S
C112 O134 1.240 . S
C112 O135 1.264 . S
O113 Mn108 2.095 . S
O113 C122 1.250 . S
O114 Mn109 2.121 . S
O114 C122 1.258 . S
C115 N116 1.326 . S
C115 C119 1.460 . S
C115 H121 0.929 . S
N116 Mn109 2.257 . S
N116 C115 1.326 . S
N116 C120 1.362 . S
C117 C118 1.258 . S
C117 C120 1.431 . S
C117 C137 1.449 . S
C118 C117 1.258 . S
C118 C119 1.477 . S
C118 H138 0.931 . S
C119 C115 1.460 . S
C119 C118 1.477 . S
C119 H139 0.930 . S
C120 N116 1.362 . S
C120 C117 1.431 . S
C120 C130 1.476 . S
H121 C115 0.929 . S
C122 O113 1.250 . S
C122 O114 1.258 . S
O123 Mn108 2.162 . S
O123 C111 1.281 . S
O124 Mn108 2.297 . S
O124 C111 1.236 . S
N125 Mn109 2.282 . S
N125 C126 1.328 . S
N125 C130 1.318 . S
C126 N125 1.328 . S
C126 C127 1.457 . S
C126 H131 0.929 . S
C127 C126 1.457 . S
C127 C128 1.291 . S
C127 H140 0.931 . S
C128 C127 1.291 . S
C128 C129 1.373 . S
C128 H141 0.929 . S
C129 C128 1.373 . S
C129 C130 1.396 . S
C129 C136 1.403 . S
C130 C120 1.476 . S
C130 N125 1.318 . S
C130 C129 1.396 . S
H131 C126 0.929 . S
O132 Mn108 2.385 . S
O132 C110 1.234 . S
O133 Mn108 2.209 . S
O133 Mn109 2.215 . S
O133 C110 1.283 . S
O134 Mn108 2.094 . S
O134 C112 1.240 . S
O135 Mn109 2.117 . S
O135 C112 1.264 . S
C136 C129 1.403 . S
C136 C137 1.399 . S
C136 H142 0.929 . S
C137 C117 1.449 . S
C137 C136 1.399 . S
C137 H143 0.930 . S
H138 C118 0.931 . S
H139 C119 0.930 . S
H140 C127 0.931 . S
H141 C128 0.929 . S
H142 C136 0.929 . S
H143 C137 0.930 . S
Mn144 O149 2.095 . S
Mn144 O159 2.162 . S
Mn144 O160 2.297 . S
Mn144 O168 2.385 . S
Mn144 O169 2.209 . S
Mn144 O170 2.094 . S
Mn145 O150 2.121 . S
Mn145 N152 2.257 . S
Mn145 N161 2.282 . S
Mn145 O169 2.215 . S
Mn145 O171 2.117 . S
C146 O168 1.234 . S
C146 O169 1.283 . S
C147 O159 1.281 . S
C147 O160 1.236 . S
C148 O170 1.240 . S
C148 O171 1.264 . S
O149 Mn144 2.095 . S
O149 C158 1.250 . S
O150 Mn145 2.121 . S
O150 C158 1.258 . S
C151 N152 1.326 . S
C151 C155 1.460 . S
C151 H157 0.929 . S
N152 Mn145 2.257 . S
N152 C151 1.326 . S
N152 C156 1.362 . S
C153 C154 1.258 . S
C153 C156 1.431 . S
C153 C173 1.449 . S
C154 C153 1.258 . S
C154 C155 1.477 . S
C154 H174 0.931 1_554 S
C155 C151 1.460 . S
C155 C154 1.477 . S
C155 H175 0.930 . S
C156 N152 1.362 . S
C156 C153 1.431 . S
C156 C166 1.476 . S
H157 C151 0.929 . S
C158 O149 1.250 . S
C158 O150 1.258 . S
O159 Mn144 2.162 . S
O159 C147 1.281 . S
O160 Mn144 2.297 . S
O160 C147 1.236 . S
N161 Mn145 2.282 . S
N161 C162 1.328 . S
N161 C166 1.318 . S
C162 N161 1.328 . S
C162 C163 1.457 . S
C162 H167 0.929 . S
C163 C162 1.457 . S
C163 C164 1.291 . S
C163 H176 0.931 . S
C164 C163 1.291 . S
C164 C165 1.373 . S
C164 H177 0.929 . S
C165 C164 1.373 . S
C165 C166 1.396 . S
C165 C172 1.403 . S
C166 C156 1.476 . S
C166 N161 1.318 . S
C166 C165 1.396 . S
H167 C162 0.929 . S
O168 Mn144 2.385 . S
O168 C146 1.234 . S
O169 Mn144 2.209 . S
O169 Mn145 2.215 . S
O169 C146 1.283 . S
O170 Mn144 2.094 . S
O170 C148 1.240 . S
O171 Mn145 2.117 . S
O171 C148 1.264 . S
C172 C165 1.403 . S
C172 C173 1.399 . S
C172 H178 0.929 . S
C173 C153 1.449 . S
C173 C172 1.399 . S
C173 H179 0.930 1_554 S
H174 C154 0.931 1_556 S
H175 C155 0.930 . S
H176 C163 0.931 . S
H177 C164 0.929 . S
H178 C172 0.929 . S
H179 C173 0.930 1_556 S
Mn180 O185 2.095 . S
Mn180 O195 2.162 . S
Mn180 O196 2.297 . S
Mn180 O204 2.385 . S
Mn180 O205 2.209 . S
Mn180 O206 2.094 . S
Mn181 O186 2.121 . S
Mn181 N188 2.257 . S
Mn181 N197 2.282 . S
Mn181 O205 2.215 . S
Mn181 O207 2.117 . S
C182 O204 1.234 . S
C182 O205 1.283 . S
C183 O195 1.281 . S
C183 O196 1.236 . S
C184 O206 1.240 . S
C184 O207 1.264 . S
O185 Mn180 2.095 . S
O185 C194 1.250 . S
O186 Mn181 2.121 . S
O186 C194 1.258 . S
C187 N188 1.326 . S
C187 C191 1.460 . S
C187 H193 0.929 . S
N188 Mn181 2.257 . S
N188 C187 1.326 . S
N188 C192 1.362 . S
C189 C190 1.258 . S
C189 C192 1.431 . S
C189 C209 1.449 . S
C190 C189 1.258 . S
C190 C191 1.477 . S
C190 H210 0.931 . S
C191 C187 1.460 . S
C191 C190 1.477 . S
C191 H211 0.930 . S
C192 N188 1.362 . S
C192 C189 1.431 . S
C192 C202 1.476 . S
H193 C187 0.929 . S
C194 O185 1.250 . S
C194 O186 1.258 . S
O195 Mn180 2.162 . S
O195 C183 1.281 . S
O196 Mn180 2.297 . S
O196 C183 1.236 . S
N197 Mn181 2.282 . S
N197 C198 1.328 . S
N197 C202 1.318 . S
C198 N197 1.328 . S
C198 C199 1.457 . S
C198 H203 0.929 . S
C199 C198 1.457 . S
C199 C200 1.291 . S
C199 H212 0.931 . S
C200 C199 1.291 . S
C200 C201 1.373 . S
C200 H213 0.929 . S
C201 C200 1.373 . S
C201 C202 1.396 . S
C201 C208 1.403 . S
C202 C192 1.476 . S
C202 N197 1.318 . S
C202 C201 1.396 . S
H203 C198 0.929 . S
O204 Mn180 2.385 . S
O204 C182 1.234 . S
O205 Mn180 2.209 . S
O205 Mn181 2.215 . S
O205 C182 1.283 . S
O206 Mn180 2.094 . S
O206 C184 1.240 . S
O207 Mn181 2.117 . S
O207 C184 1.264 . S
C208 C201 1.403 . S
C208 C209 1.399 . S
C208 H214 0.929 . S
C209 C189 1.449 . S
C209 C208 1.399 . S
C209 H215 0.930 . S
H210 C190 0.931 . S
H211 C191 0.930 . S
H212 C199 0.931 . S
H213 C200 0.929 . S
H214 C208 0.929 . S
H215 C209 0.930 . S
Mn216 O221 2.095 . S
Mn216 O231 2.162 . S
Mn216 O232 2.297 . S
Mn216 O240 2.385 . S
Mn216 O241 2.209 . S
Mn216 O242 2.094 . S
Mn217 O222 2.121 . S
Mn217 N224 2.257 . S
Mn217 N233 2.282 . S
Mn217 O241 2.215 . S
Mn217 O243 2.117 . S
C218 O240 1.234 . S
C218 O241 1.283 . S
C219 O231 1.281 . S
C219 O232 1.236 . S
C220 O242 1.240 . S
C220 O243 1.264 . S
O221 Mn216 2.095 . S
O221 C230 1.250 . S
O222 Mn217 2.121 . S
O222 C230 1.258 . S
C223 N224 1.326 . S
C223 C227 1.460 . S
C223 H229 0.929 . S
N224 Mn217 2.257 . S
N224 C223 1.326 . S
N224 C228 1.362 . S
C225 C226 1.258 . S
C225 C228 1.431 . S
C225 C245 1.449 . S
C226 C225 1.258 . S
C226 C227 1.477 . S
C226 H246 0.931 . S
C227 C223 1.460 . S
C227 C226 1.477 . S
C227 H247 0.930 . S
C228 N224 1.362 . S
C228 C225 1.431 . S
C228 C238 1.476 . S
H229 C223 0.929 . S
C230 O221 1.250 . S
C230 O222 1.258 . S
O231 Mn216 2.162 . S
O231 C219 1.281 . S
O232 Mn216 2.297 . S
O232 C219 1.236 . S
N233 Mn217 2.282 . S
N233 C234 1.328 . S
N233 C238 1.318 . S
C234 N233 1.328 . S
C234 C235 1.457 . S
C234 H239 0.929 . S
C235 C234 1.457 . S
C235 C236 1.291 . S
C235 H248 0.931 . S
C236 C235 1.291 . S
C236 C237 1.373 . S
C236 H249 0.929 . S
C237 C236 1.373 . S
C237 C238 1.396 . S
C237 C244 1.403 . S
C238 C228 1.476 . S
C238 N233 1.318 . S
C238 C237 1.396 . S
H239 C234 0.929 . S
O240 Mn216 2.385 . S
O240 C218 1.234 . S
O241 Mn216 2.209 . S
O241 Mn217 2.215 . S
O241 C218 1.283 . S
O242 Mn216 2.094 . S
O242 C220 1.240 . S
O243 Mn217 2.117 . S
O243 C220 1.264 . S
C244 C237 1.403 . S
C244 C245 1.399 . S
C244 H250 0.929 . S
C245 C225 1.449 . S
C245 C244 1.399 . S
C245 H251 0.930 . S
H246 C226 0.931 . S
H247 C227 0.930 . S
H248 C235 0.931 . S
H249 C236 0.929 . S
H250 C244 0.929 . S
H251 C245 0.930 . S
Mn252 O257 2.095 . S
Mn252 O267 2.162 . S
Mn252 O268 2.297 . S
Mn252 O276 2.385 1_455 S
Mn252 O277 2.209 . S
Mn252 O278 2.094 . S
Mn253 O258 2.121 . S
Mn253 N260 2.257 . S
Mn253 N269 2.282 1_455 S
Mn253 O277 2.215 . S
Mn253 O279 2.117 . S
C254 O276 1.234 . S
C254 O277 1.283 1_655 S
C255 O267 1.281 . S
C255 O268 1.236 . S
C256 O278 1.240 . S
C256 O279 1.264 . S
O257 Mn252 2.095 . S
O257 C266 1.250 . S
O258 Mn253 2.121 . S
O258 C266 1.258 . S
C259 N260 1.326 . S
C259 C263 1.460 . S
C259 H265 0.929 . S
N260 Mn253 2.257 . S
N260 C259 1.326 . S
N260 C264 1.362 1_455 S
C261 C262 1.258 . S
C261 C264 1.431 . S
C261 C281 1.449 . S
C262 C261 1.258 . S
C262 C263 1.477 1_655 S
C262 H282 0.931 . S
C263 C259 1.460 . S
C263 C262 1.477 1_455 S
C263 H283 0.930 . S
C264 N260 1.362 1_655 S
C264 C261 1.431 . S
C264 C274 1.476 . S
H265 C259 0.929 . S
C266 O257 1.250 . S
C266 O258 1.258 . S
O267 Mn252 2.162 . S
O267 C255 1.281 . S
O268 Mn252 2.297 . S
O268 C255 1.236 . S
N269 Mn253 2.282 1_655 S
N269 C270 1.328 . S
N269 C274 1.318 . S
C270 N269 1.328 . S
C270 C271 1.457 . S
C270 H275 0.929 . S
C271 C270 1.457 . S
C271 C272 1.291 . S
C271 H284 0.931 . S
C272 C271 1.291 . S
C272 C273 1.373 . S
C272 H285 0.929 . S
C273 C272 1.373 . S
C273 C274 1.396 . S
C273 C280 1.403 . S
C274 C264 1.476 . S
C274 N269 1.318 . S
C274 C273 1.396 . S
H275 C270 0.929 . S
O276 Mn252 2.385 1_655 S
O276 C254 1.234 . S
O277 Mn252 2.209 . S
O277 Mn253 2.215 . S
O277 C254 1.283 1_455 S
O278 Mn252 2.094 . S
O278 C256 1.240 . S
O279 Mn253 2.117 . S
O279 C256 1.264 . S
C280 C273 1.403 . S
C280 C281 1.399 . S
C280 H286 0.929 . S
C281 C261 1.449 . S
C281 C280 1.399 . S
C281 H287 0.930 . S
H282 C262 0.931 . S
H283 C263 0.930 . S
H284 C271 0.931 . S
H285 C272 0.929 . S
H286 C280 0.929 . S
H287 C281 0.930 . S
Mn288 O293 2.095 . S
Mn288 O303 2.162 . S
Mn288 O304 2.297 . S
Mn288 O312 2.385 1_545 S
Mn288 O313 2.209 . S
Mn288 O314 2.094 . S
Mn289 O294 2.121 . S
Mn289 N296 2.257 . S
Mn289 N305 2.282 1_545 S
Mn289 O313 2.215 . S
Mn289 O315 2.117 . S
C290 O312 1.234 . S
C290 O313 1.283 1_565 S
C291 O303 1.281 . S
C291 O304 1.236 . S
C292 O314 1.240 . S
C292 O315 1.264 . S
O293 Mn288 2.095 . S
O293 C302 1.250 . S
O294 Mn289 2.121 . S
O294 C302 1.258 . S
C295 N296 1.326 . S
C295 C299 1.460 . S
C295 H301 0.929 . S
N296 Mn289 2.257 . S
N296 C295 1.326 . S
N296 C300 1.362 1_545 S
C297 C298 1.258 . S
C297 C300 1.431 . S
C297 C317 1.449 . S
C298 C297 1.258 . S
C298 C299 1.477 1_565 S
C298 H318 0.931 . S
C299 C295 1.460 . S
C299 C298 1.477 1_545 S
C299 H319 0.930 . S
C300 N296 1.362 1_565 S
C300 C297 1.431 . S
C300 C310 1.476 . S
H301 C295 0.929 . S
C302 O293 1.250 . S
C302 O294 1.258 . S
O303 Mn288 2.162 . S
O303 C291 1.281 . S
O304 Mn288 2.297 . S
O304 C291 1.236 . S
N305 Mn289 2.282 1_565 S
N305 C306 1.328 . S
N305 C310 1.318 . S
C306 N305 1.328 . S
C306 C307 1.457 . S
C306 H311 0.929 . S
C307 C306 1.457 . S
C307 C308 1.291 . S
C307 H320 0.931 . S
C308 C307 1.291 . S
C308 C309 1.373 . S
C308 H321 0.929 . S
C309 C308 1.373 . S
C309 C310 1.396 . S
C309 C316 1.403 . S
C310 C300 1.476 . S
C310 N305 1.318 . S
C310 C309 1.396 . S
H311 C306 0.929 . S
O312 Mn288 2.385 1_565 S
O312 C290 1.234 . S
O313 Mn288 2.209 . S
O313 Mn289 2.215 . S
O313 C290 1.283 1_545 S
O314 Mn288 2.094 . S
O314 C292 1.240 . S
O315 Mn289 2.117 . S
O315 C292 1.264 . S
C316 C309 1.403 . S
C316 C317 1.399 . S
C316 H322 0.929 . S
C317 C297 1.449 . S
C317 C316 1.399 . S
C317 H323 0.930 . S
H318 C298 0.931 . S
H319 C299 0.930 . S
H320 C307 0.931 . S
H321 C308 0.929 . S
H322 C316 0.929 . S
H323 C317 0.930 . S
Mn324 O329 2.095 . S
Mn324 O339 2.162 . S
Mn324 O340 2.297 . S
Mn324 O348 2.385 . S
Mn324 O349 2.209 . S
Mn324 O350 2.094 . S
Mn325 O330 2.121 . S
Mn325 N332 2.257 . S
Mn325 N341 2.282 . S
Mn325 O349 2.215 . S
Mn325 O351 2.117 . S
C326 O348 1.234 . S
C326 O349 1.283 . S
C327 O339 1.281 . S
C327 O340 1.236 . S
C328 O350 1.240 . S
C328 O351 1.264 . S
O329 Mn324 2.095 . S
O329 C338 1.250 . S
O330 Mn325 2.121 . S
O330 C338 1.258 . S
C331 N332 1.326 . S
C331 C335 1.460 . S
C331 H337 0.929 . S
N332 Mn325 2.257 . S
N332 C331 1.326 . S
N332 C336 1.362 . S
C333 C334 1.258 . S
C333 C336 1.431 . S
C333 C353 1.449 . S
C334 C333 1.258 . S
C334 C335 1.477 . S
C334 H354 0.931 . S
C335 C331 1.460 . S
C335 C334 1.477 . S
C335 H355 0.930 . S
C336 N332 1.362 . S
C336 C333 1.431 . S
C336 C346 1.476 . S
H337 C331 0.929 . S
C338 O329 1.250 . S
C338 O330 1.258 . S
O339 Mn324 2.162 . S
O339 C327 1.281 . S
O340 Mn324 2.297 . S
O340 C327 1.236 . S
N341 Mn325 2.282 . S
N341 C342 1.328 . S
N341 C346 1.318 . S
C342 N341 1.328 . S
C342 C343 1.457 . S
C342 H347 0.929 . S
C343 C342 1.457 . S
C343 C344 1.291 . S
C343 H356 0.931 . S
C344 C343 1.291 . S
C344 C345 1.373 . S
C344 H357 0.929 . S
C345 C344 1.373 . S
C345 C346 1.396 . S
C345 C352 1.403 . S
C346 C336 1.476 . S
C346 N341 1.318 . S
C346 C345 1.396 . S
H347 C342 0.929 . S
O348 Mn324 2.385 . S
O348 C326 1.234 . S
O349 Mn324 2.209 . S
O349 Mn325 2.215 . S
O349 C326 1.283 . S
O350 Mn324 2.094 . S
O350 C328 1.240 . S
O351 Mn325 2.117 . S
O351 C328 1.264 . S
C352 C345 1.403 . S
C352 C353 1.399 . S
C352 H358 0.929 . S
C353 C333 1.449 . S
C353 C352 1.399 . S
C353 H359 0.930 . S
H354 C334 0.931 . S
H355 C335 0.930 . S
H356 C343 0.931 . S
H357 C344 0.929 . S
H358 C352 0.929 . S
H359 C353 0.930 . S
Mn360 O365 2.104 . S
Mn360 O375 2.161 . S
Mn360 O376 2.296 . S
Mn360 O384 2.376 1_565 S
Mn360 O385 2.205 1_565 S
Mn360 O386 2.093 . S
Mn361 O366 2.121 1_545 S
Mn361 N368 2.257 . S
Mn361 N377 2.282 . S
Mn361 O385 2.215 . S
Mn361 O387 2.117 . S
C362 O384 1.234 . S
C362 O385 1.283 . S
C363 O375 1.281 . S
C363 O376 1.236 . S
C364 O386 1.245 1_545 S
C364 O387 1.264 . S
O365 Mn360 2.104 . S
O365 C374 1.250 . S
O366 Mn361 2.121 1_565 S
O366 C374 1.258 . S
C367 N368 1.326 . S
C367 C371 1.460 . S
C367 H373 0.923 1_545 S
N368 Mn361 2.257 . S
N368 C367 1.326 . S
N368 C372 1.362 . S
C369 C370 1.258 . S
C369 C372 1.431 . S
C369 C389 1.449 . S
C370 C369 1.258 . S
C370 C371 1.477 . S
C370 H390 0.931 . S
C371 C367 1.460 . S
C371 C370 1.477 . S
C371 H391 0.930 . S
C372 N368 1.362 . S
C372 C369 1.431 . S
C372 C382 1.476 . S
H373 C367 0.923 1_565 S
C374 O365 1.250 . S
C374 O366 1.258 . S
O375 Mn360 2.161 . S
O375 C363 1.281 . S
O376 Mn360 2.296 . S
O376 C363 1.236 . S
N377 Mn361 2.282 . S
N377 C378 1.328 . S
N377 C382 1.318 . S
C378 N377 1.328 . S
C378 C379 1.457 . S
C378 H383 0.929 . S
C379 C378 1.457 . S
C379 C380 1.291 . S
C379 H392 0.931 . S
C380 C379 1.291 . S
C380 C381 1.373 . S
C380 H393 0.929 . S
C381 C380 1.373 . S
C381 C382 1.396 . S
C381 C388 1.403 . S
C382 C372 1.476 . S
C382 N377 1.318 . S
C382 C381 1.396 . S
H383 C378 0.929 . S
O384 Mn360 2.376 1_545 S
O384 C362 1.234 . S
O385 Mn360 2.205 1_545 S
O385 Mn361 2.215 . S
O385 C362 1.283 . S
O386 Mn360 2.093 . S
O386 C364 1.245 1_565 S
O387 Mn361 2.117 . S
O387 C364 1.264 . S
C388 C381 1.403 . S
C388 C389 1.399 . S
C388 H394 0.929 . S
C389 C369 1.449 . S
C389 C388 1.399 . S
C389 H395 0.930 . S
H390 C370 0.931 . S
H391 C371 0.930 . S
H392 C379 0.931 . S
H393 C380 0.929 . S
H394 C388 0.929 . S
H395 C389 0.930 . S
Mn396 O401 2.095 . S
Mn396 O411 2.162 . S
Mn396 O412 2.297 . S
Mn396 O420 2.385 . S
Mn396 O421 2.209 . S
Mn396 O422 2.094 1_554 S
Mn397 O402 2.121 1_556 S
Mn397 N404 2.257 . S
Mn397 N413 2.282 . S
Mn397 O421 2.215 1_556 S
Mn397 O423 2.117 . S
C398 O420 1.234 . S
C398 O421 1.283 . S
C399 O411 1.281 . S
C399 O412 1.236 . S
C400 O422 1.240 . S
C400 O423 1.264 . S
O401 Mn396 2.095 . S
O401 C410 1.250 . S
O402 Mn397 2.121 1_554 S
O402 C410 1.258 . S
C403 N404 1.326 1_554 S
C403 C407 1.460 1_565 S
C403 H409 0.929 . S
N404 Mn397 2.257 . S
N404 C403 1.326 1_556 S
N404 C408 1.362 . S
C405 C406 1.239 1_556 S
C405 C408 1.431 1_545 S
C405 C425 1.449 . S
C406 C405 1.239 1_554 S
C406 C407 1.501 . S
C406 H426 0.927 . S
C407 C403 1.460 1_545 S
C407 C406 1.501 . S
C407 H427 0.930 . S
C408 N404 1.362 . S
C408 C405 1.431 1_565 S
C408 C418 1.476 . S
H409 C403 0.929 . S
C410 O401 1.250 . S
C410 O402 1.258 . S
O411 Mn396 2.162 . S
O411 C399 1.281 . S
O412 Mn396 2.297 . S
O412 C399 1.236 . S
N413 Mn397 2.282 . S
N413 C414 1.328 . S
N413 C418 1.318 . S
C414 N413 1.328 . S
C414 C415 1.457 . S
C414 H419 0.929 . S
C415 C414 1.457 . S
C415 C416 1.291 . S
C415 H428 0.931 . S
C416 C415 1.291 . S
C416 C417 1.373 . S
C416 H429 0.929 . S
C417 C416 1.373 . S
C417 C418 1.396 . S
C417 C424 1.403 1_565 S
C418 C408 1.476 . S
C418 N413 1.318 . S
C418 C417 1.396 . S
H419 C414 0.929 . S
O420 Mn396 2.385 . S
O420 C398 1.234 . S
O421 Mn396 2.209 . S
O421 Mn397 2.215 1_554 S
O421 C398 1.283 . S
O422 Mn396 2.094 1_556 S
O422 C400 1.240 . S
O423 Mn397 2.117 . S
O423 C400 1.264 . S
C424 C417 1.403 1_545 S
C424 C425 1.399 . S
C424 H430 0.929 . S
C425 C405 1.449 . S
C425 C424 1.399 . S
C425 H431 0.930 . S
H426 C406 0.927 . S
H427 C407 0.930 . S
H428 C415 0.931 . S
H429 C416 0.929 . S
H430 C424 0.929 . S
H431 C425 0.930 . S
Mn432 O437 2.095 . S
Mn432 O447 2.162 . S
Mn432 O448 2.297 . S
Mn432 O456 2.385 . S
Mn432 O457 2.209 . S
Mn432 O458 2.094 . S
Mn433 O438 2.121 . S
Mn433 N440 2.257 . S
Mn433 N449 2.282 1_554 S
Mn433 O457 2.215 . S
Mn433 O459 2.117 1_554 S
C434 O456 1.234 . S
C434 O457 1.283 . S
C435 O447 1.281 . S
C435 O448 1.236 . S
C436 O458 1.240 1_556 S
C436 O459 1.264 . S
O437 Mn432 2.095 . S
O437 C446 1.250 . S
O438 Mn433 2.121 . S
O438 C446 1.258 . S
C439 N440 1.326 . S
C439 C443 1.460 . S
C439 H445 0.929 . S
N440 Mn433 2.257 . S
N440 C439 1.326 . S
N440 C444 1.362 . S
C441 C442 1.258 . S
C441 C444 1.431 . S
C441 C461 1.449 . S
C442 C441 1.258 . S
C442 C443 1.477 . S
C442 H462 0.931 . S
C443 C439 1.460 . S
C443 C442 1.477 . S
C443 H463 0.930 . S
C444 N440 1.362 . S
C444 C441 1.431 . S
C444 C454 1.503 . S
H445 C439 0.929 . S
C446 O437 1.250 . S
C446 O438 1.258 . S
O447 Mn432 2.162 . S
O447 C435 1.281 . S
O448 Mn432 2.297 . S
O448 C435 1.236 . S
N449 Mn433 2.282 1_556 S
N449 C450 1.328 . S
N449 C454 1.321 1_556 S
C450 N449 1.328 . S
C450 C451 1.457 . S
C450 H455 0.929 . S
C451 C450 1.457 . S
C451 C452 1.291 . S
C451 H464 0.931 . S
C452 C451 1.291 . S
C452 C453 1.373 . S
C452 H465 0.929 . S
C453 C452 1.373 . S
C453 C454 1.371 1_556 S
C453 C460 1.403 . S
C454 C444 1.503 . S
C454 N449 1.321 1_554 S
C454 C453 1.371 1_554 S
H455 C450 0.929 . S
O456 Mn432 2.385 . S
O456 C434 1.234 . S
O457 Mn432 2.209 . S
O457 Mn433 2.215 . S
O457 C434 1.283 . S
O458 Mn432 2.094 . S
O458 C436 1.240 1_554 S
O459 Mn433 2.117 1_556 S
O459 C436 1.264 . S
C460 C453 1.403 . S
C460 C461 1.399 1_556 S
C460 H466 0.929 . S
C461 C441 1.449 . S
C461 C460 1.399 1_554 S
C461 H467 0.930 . S
H462 C442 0.931 . S
H463 C443 0.930 . S
H464 C451 0.931 . S
H465 C452 0.929 . S
H466 C460 0.929 . S
H467 C461 0.930 . S
Mn468 O473 2.095 . S
Mn468 O483 2.162 . S
Mn468 O484 2.297 . S
Mn468 O492 2.385 . S
Mn468 O493 2.209 . S
Mn468 O494 2.094 . S
Mn469 O474 2.121 1_556 S
Mn469 N476 2.257 . S
Mn469 N485 2.282 . S
Mn469 O493 2.215 1_556 S
Mn469 O495 2.117 . S
C470 O492 1.234 . S
C470 O493 1.283 . S
C471 O483 1.281 . S
C471 O484 1.236 . S
C472 O494 1.240 1_556 S
C472 O495 1.264 . S
O473 Mn468 2.095 . S
O473 C482 1.250 . S
O474 Mn469 2.121 1_554 S
O474 C482 1.258 . S
C475 N476 1.326 . S
C475 C479 1.460 . S
C475 H481 0.929 1_556 S
N476 Mn469 2.257 . S
N476 C475 1.326 . S
N476 C480 1.362 . S
C477 C478 1.258 . S
C477 C480 1.431 . S
C477 C497 1.449 . S
C478 C477 1.258 . S
C478 C479 1.477 . S
C478 H498 0.931 . S
C479 C475 1.460 . S
C479 C478 1.477 . S
C479 H499 0.949 . S
C480 N476 1.362 . S
C480 C477 1.431 . S
C480 C490 1.476 . S
H481 C475 0.929 1_554 S
C482 O473 1.250 . S
C482 O474 1.258 . S
O483 Mn468 2.162 . S
O483 C471 1.281 . S
O484 Mn468 2.297 . S
O484 C471 1.236 . S
N485 Mn469 2.282 . S
N485 C486 1.328 . S
N485 C490 1.318 . S
C486 N485 1.328 . S
C486 C487 1.457 . S
C486 H491 0.929 . S
C487 C486 1.457 . S
C487 C488 1.291 . S
C487 H500 0.931 . S
C488 C487 1.291 . S
C488 C489 1.373 . S
C488 H501 0.929 . S
C489 C488 1.373 . S
C489 C490 1.396 . S
C489 C496 1.403 . S
C490 C480 1.476 . S
C490 N485 1.318 . S
C490 C489 1.396 . S
H491 C486 0.929 . S
O492 Mn468 2.385 . S
O492 C470 1.234 . S
O493 Mn468 2.209 . S
O493 Mn469 2.215 1_554 S
O493 C470 1.283 . S
O494 Mn468 2.094 . S
O494 C472 1.240 1_554 S
O495 Mn469 2.117 . S
O495 C472 1.264 . S
C496 C489 1.403 . S
C496 C497 1.399 . S
C496 H502 0.929 . S
C497 C477 1.449 . S
C497 C496 1.399 . S
C497 H503 0.930 . S
H498 C478 0.931 . S
H499 C479 0.949 . S
H500 C487 0.931 . S
H501 C488 0.929 . S
H502 C496 0.929 . S
H503 C497 0.930 . S
Mn504 O509 2.095 . S
Mn504 O519 2.162 . S
Mn504 O520 2.297 . S
Mn504 O528 2.385 . S
Mn504 O529 2.209 . S
Mn504 O530 2.094 . S
Mn505 O510 2.121 . S
Mn505 N512 2.257 . S
Mn505 N521 2.282 . S
Mn505 O529 2.215 . S
Mn505 O531 2.117 . S
C506 O528 1.234 . S
C506 O529 1.283 . S
C507 O519 1.281 . S
C507 O520 1.236 . S
C508 O530 1.240 . S
C508 O531 1.264 . S
O509 Mn504 2.095 . S
O509 C518 1.250 . S
O510 Mn505 2.121 . S
O510 C518 1.258 . S
C511 N512 1.326 . S
C511 C515 1.460 . S
C511 H517 0.929 . S
N512 Mn505 2.257 . S
N512 C511 1.326 . S
N512 C516 1.362 . S
C513 C514 1.258 . S
C513 C516 1.431 . S
C513 C533 1.449 . S
C514 C513 1.258 . S
C514 C515 1.477 . S
C514 H534 0.931 . S
C515 C511 1.460 . S
C515 C514 1.477 . S
C515 H535 0.930 . S
C516 N512 1.362 . S
C516 C513 1.431 . S
C516 C526 1.476 . S
H517 C511 0.929 . S
C518 O509 1.250 . S
C518 O510 1.258 . S
O519 Mn504 2.162 . S
O519 C507 1.281 . S
O520 Mn504 2.297 . S
O520 C507 1.236 . S
N521 Mn505 2.282 . S
N521 C522 1.328 . S
N521 C526 1.318 . S
C522 N521 1.328 . S
C522 C523 1.457 . S
C522 H527 0.929 . S
C523 C522 1.457 . S
C523 C524 1.291 . S
C523 H536 0.931 . S
C524 C523 1.291 . S
C524 C525 1.373 . S
C524 H537 0.929 . S
C525 C524 1.373 . S
C525 C526 1.396 . S
C525 C532 1.403 . S
C526 C516 1.476 . S
C526 N521 1.318 . S
C526 C525 1.396 . S
H527 C522 0.929 . S
O528 Mn504 2.385 . S
O528 C506 1.234 . S
O529 Mn504 2.209 . S
O529 Mn505 2.215 . S
O529 C506 1.283 . S
O530 Mn504 2.094 . S
O530 C508 1.240 . S
O531 Mn505 2.117 . S
O531 C508 1.264 . S
C532 C525 1.403 . S
C532 C533 1.399 . S
C532 H538 0.929 . S
C533 C513 1.449 . S
C533 C532 1.399 . S
C533 H539 0.930 . S
H534 C514 0.931 . S
H535 C515 0.930 . S
H536 C523 0.931 . S
H537 C524 0.929 . S
H538 C532 0.929 . S
H539 C533 0.930 . S
Mn540 O545 2.095 . S
Mn540 O555 2.162 . S
Mn540 O556 2.297 . S
Mn540 O564 2.385 . S
Mn540 O565 2.209 . S
Mn540 O566 2.094 . S
Mn541 O546 2.121 . S
Mn541 N548 2.257 . S
Mn541 N557 2.282 . S
Mn541 O565 2.215 . S
Mn541 O567 2.117 . S
C542 O564 1.234 . S
C542 O565 1.283 . S
C543 O555 1.281 . S
C543 O556 1.236 . S
C544 O566 1.240 . S
C544 O567 1.264 . S
O545 Mn540 2.095 . S
O545 C554 1.250 . S
O546 Mn541 2.121 . S
O546 C554 1.258 . S
C547 N548 1.326 . S
C547 C551 1.460 . S
C547 H553 0.929 . S
N548 Mn541 2.257 . S
N548 C547 1.326 . S
N548 C552 1.362 . S
C549 C550 1.258 . S
C549 C552 1.431 . S
C549 C569 1.449 . S
C550 C549 1.258 . S
C550 C551 1.477 . S
C550 H570 0.931 . S
C551 C547 1.460 . S
C551 C550 1.477 . S
C551 H571 0.930 . S
C552 N548 1.362 . S
C552 C549 1.431 . S
C552 C562 1.476 . S
H553 C547 0.929 . S
C554 O545 1.250 . S
C554 O546 1.258 . S
O555 Mn540 2.162 . S
O555 C543 1.281 . S
O556 Mn540 2.297 . S
O556 C543 1.236 . S
N557 Mn541 2.282 . S
N557 C558 1.328 . S
N557 C562 1.318 . S
C558 N557 1.328 . S
C558 C559 1.457 . S
C558 H563 0.929 . S
C559 C558 1.457 . S
C559 C560 1.291 . S
C559 H572 0.931 . S
C560 C559 1.291 . S
C560 C561 1.373 . S
C560 H573 0.929 . S
C561 C560 1.373 . S
C561 C562 1.396 . S
C561 C568 1.403 . S
C562 C552 1.476 . S
C562 N557 1.318 . S
C562 C561 1.396 . S
H563 C558 0.929 . S
O564 Mn540 2.385 . S
O564 C542 1.234 . S
O565 Mn540 2.209 . S
O565 Mn541 2.215 . S
O565 C542 1.283 . S
O566 Mn540 2.094 . S
O566 C544 1.240 . S
O567 Mn541 2.117 . S
O567 C544 1.264 . S
C568 C561 1.403 . S
C568 C569 1.399 . S
C568 H574 0.929 . S
C569 C549 1.449 . S
C569 C568 1.399 . S
C569 H575 0.930 . S
H570 C550 0.931 . S
H571 C551 0.930 . S
H572 C559 0.931 . S
H573 C560 0.929 . S
H574 C568 0.929 . S
H575 C569 0.930 . S
Mn576 O581 2.095 . S
Mn576 O591 2.162 . S
Mn576 O592 2.297 . S
Mn576 O600 2.385 . S
Mn576 O601 2.209 . S
Mn576 O602 2.094 . S
Mn577 O582 2.121 . S
Mn577 N584 2.257 . S
Mn577 N593 2.282 . S
Mn577 O601 2.215 . S
Mn577 O603 2.117 . S
C578 O600 1.234 . S
C578 O601 1.283 . S
C579 O591 1.281 . S
C579 O592 1.236 . S
C580 O602 1.240 . S
C580 O603 1.264 . S
O581 Mn576 2.095 . S
O581 C590 1.250 . S
O582 Mn577 2.121 . S
O582 C590 1.258 . S
C583 N584 1.326 . S
C583 C587 1.460 . S
C583 H589 0.929 . S
N584 Mn577 2.257 . S
N584 C583 1.326 . S
N584 C588 1.362 . S
C585 C586 1.258 . S
C585 C588 1.431 . S
C585 C605 1.449 . S
C586 C585 1.258 . S
C586 C587 1.477 . S
C586 H606 0.931 . S
C587 C583 1.460 . S
C587 C586 1.477 . S
C587 H607 0.930 . S
C588 N584 1.362 . S
C588 C585 1.431 . S
C588 C598 1.476 . S
H589 C583 0.929 . S
C590 O581 1.250 . S
C590 O582 1.258 . S
O591 Mn576 2.162 . S
O591 C579 1.281 . S
O592 Mn576 2.297 . S
O592 C579 1.236 . S
N593 Mn577 2.282 . S
N593 C594 1.328 . S
N593 C598 1.318 . S
C594 N593 1.328 . S
C594 C595 1.457 . S
C594 H599 0.929 . S
C595 C594 1.457 . S
C595 C596 1.291 . S
C595 H608 0.931 . S
C596 C595 1.291 . S
C596 C597 1.373 . S
C596 H609 0.929 1_545 S
C597 C596 1.373 . S
C597 C598 1.396 . S
C597 C604 1.403 . S
C598 C588 1.476 . S
C598 N593 1.318 . S
C598 C597 1.396 . S
H599 C594 0.929 . S
O600 Mn576 2.385 . S
O600 C578 1.234 . S
O601 Mn576 2.209 . S
O601 Mn577 2.215 . S
O601 C578 1.283 . S
O602 Mn576 2.094 . S
O602 C580 1.240 . S
O603 Mn577 2.117 . S
O603 C580 1.264 . S
C604 C597 1.403 . S
C604 C605 1.399 . S
C604 H610 0.929 1_545 S
C605 C585 1.449 . S
C605 C604 1.399 . S
C605 H611 0.930 . S
H606 C586 0.931 . S
H607 C587 0.930 . S
H608 C595 0.931 . S
H609 C596 0.929 1_565 S
H610 C604 0.929 1_565 S
H611 C605 0.930 . S
Mn612 O617 2.095 . S
Mn612 O627 2.162 . S
Mn612 O628 2.297 . S
Mn612 O636 2.385 . S
Mn612 O637 2.209 . S
Mn612 O638 2.094 . S
Mn613 O618 2.121 . S
Mn613 N620 2.257 . S
Mn613 N629 2.282 . S
Mn613 O637 2.215 . S
Mn613 O639 2.117 . S
C614 O636 1.234 . S
C614 O637 1.283 . S
C615 O627 1.281 . S
C615 O628 1.236 . S
C616 O638 1.240 . S
C616 O639 1.264 . S
O617 Mn612 2.095 . S
O617 C626 1.250 . S
O618 Mn613 2.121 . S
O618 C626 1.258 . S
C619 N620 1.326 . S
C619 C623 1.460 . S
C619 H625 0.929 . S
N620 Mn613 2.257 . S
N620 C619 1.326 . S
N620 C624 1.362 . S
C621 C622 1.258 . S
C621 C624 1.431 . S
C621 C641 1.449 . S
C622 C621 1.258 . S
C622 C623 1.477 . S
C622 H642 0.931 . S
C623 C619 1.460 . S
C623 C622 1.477 . S
C623 H643 0.930 . S
C624 N620 1.362 . S
C624 C621 1.431 . S
C624 C634 1.476 . S
H625 C619 0.929 . S
C626 O617 1.250 . S
C626 O618 1.258 . S
O627 Mn612 2.162 . S
O627 C615 1.281 . S
O628 Mn612 2.297 . S
O628 C615 1.236 . S
N629 Mn613 2.282 . S
N629 C630 1.328 . S
N629 C634 1.318 . S
C630 N629 1.328 . S
C630 C631 1.457 . S
C630 H635 0.929 . S
C631 C630 1.457 . S
C631 C632 1.291 . S
C631 H644 0.931 . S
C632 C631 1.291 . S
C632 C633 1.373 . S
C632 H645 0.929 . S
C633 C632 1.373 . S
C633 C634 1.396 . S
C633 C640 1.403 . S
C634 C624 1.476 . S
C634 N629 1.318 . S
C634 C633 1.396 . S
H635 C630 0.929 . S
O636 Mn612 2.385 . S
O636 C614 1.234 . S
O637 Mn612 2.209 . S
O637 Mn613 2.215 . S
O637 C614 1.283 . S
O638 Mn612 2.094 . S
O638 C616 1.240 . S
O639 Mn613 2.117 . S
O639 C616 1.264 . S
C640 C633 1.403 . S
C640 C641 1.399 . S
C640 H646 0.929 . S
C641 C621 1.449 . S
C641 C640 1.399 . S
C641 H647 0.930 . S
H642 C622 0.931 . S
H643 C623 0.930 . S
H644 C631 0.931 . S
H645 C632 0.929 . S
H646 C640 0.929 . S
H647 C641 0.930 . S
Mn648 O653 2.095 . S
Mn648 O663 2.162 . S
Mn648 O664 2.297 . S
Mn648 O672 2.385 . S
Mn648 O673 2.209 . S
Mn648 O674 2.094 . S
Mn649 O654 2.121 . S
Mn649 N656 2.257 . S
Mn649 N665 2.282 . S
Mn649 O673 2.215 . S
Mn649 O675 2.117 . S
C650 O672 1.234 . S
C650 O673 1.283 . S
C651 O663 1.281 . S
C651 O664 1.236 . S
C652 O674 1.240 . S
C652 O675 1.264 . S
O653 Mn648 2.095 . S
O653 C662 1.250 . S
O654 Mn649 2.121 . S
O654 C662 1.258 . S
C655 N656 1.326 . S
C655 C659 1.460 . S
C655 H661 0.929 . S
N656 Mn649 2.257 . S
N656 C655 1.326 . S
N656 C660 1.362 . S
C657 C658 1.258 . S
C657 C660 1.431 . S
C657 C677 1.449 . S
C658 C657 1.258 . S
C658 C659 1.477 . S
C658 H678 0.931 . S
C659 C655 1.460 . S
C659 C658 1.477 . S
C659 H679 0.930 . S
C660 N656 1.362 . S
C660 C657 1.431 . S
C660 C670 1.476 . S
H661 C655 0.929 . S
C662 O653 1.250 . S
C662 O654 1.258 . S
O663 Mn648 2.162 . S
O663 C651 1.281 . S
O664 Mn648 2.297 . S
O664 C651 1.236 . S
N665 Mn649 2.282 . S
N665 C666 1.328 . S
N665 C670 1.318 . S
C666 N665 1.328 . S
C666 C667 1.457 . S
C666 H671 0.929 . S
C667 C666 1.457 . S
C667 C668 1.291 . S
C667 H680 0.931 . S
C668 C667 1.291 . S
C668 C669 1.373 . S
C668 H681 0.929 . S
C669 C668 1.373 . S
C669 C670 1.396 . S
C669 C676 1.403 . S
C670 C660 1.476 . S
C670 N665 1.318 . S
C670 C669 1.396 . S
H671 C666 0.929 . S
O672 Mn648 2.385 . S
O672 C650 1.234 . S
O673 Mn648 2.209 . S
O673 Mn649 2.215 . S
O673 C650 1.283 . S
O674 Mn648 2.094 . S
O674 C652 1.240 . S
O675 Mn649 2.117 . S
O675 C652 1.264 . S
C676 C669 1.403 . S
C676 C677 1.399 . S
C676 H682 0.929 . S
C677 C657 1.449 . S
C677 C676 1.399 . S
C677 H683 0.930 . S
H678 C658 0.931 . S
H679 C659 0.930 . S
H680 C667 0.931 . S
H681 C668 0.929 . S
H682 C676 0.929 . S
H683 C677 0.930 . S
Mn684 O689 2.095 . S
Mn684 O699 2.162 . S
Mn684 O700 2.297 . S
Mn684 O708 2.385 . S
Mn684 O709 2.209 . S
Mn684 O710 2.094 . S
Mn685 O690 2.121 . S
Mn685 N692 2.257 . S
Mn685 N701 2.282 . S
Mn685 O709 2.215 . S
Mn685 O711 2.117 . S
C686 O708 1.234 . S
C686 O709 1.283 . S
C687 O699 1.281 . S
C687 O700 1.236 . S
C688 O710 1.240 . S
C688 O711 1.264 . S
O689 Mn684 2.095 . S
O689 C698 1.250 . S
O690 Mn685 2.121 . S
O690 C698 1.258 . S
C691 N692 1.326 . S
C691 C695 1.460 . S
C691 H697 0.929 . S
N692 Mn685 2.257 . S
N692 C691 1.326 . S
N692 C696 1.362 . S
C693 C694 1.258 . S
C693 C696 1.431 . S
C693 C713 1.449 . S
C694 C693 1.258 . S
C694 C695 1.477 . S
C694 H714 0.931 . S
C695 C691 1.460 . S
C695 C694 1.477 . S
C695 H715 0.930 . S
C696 N692 1.362 . S
C696 C693 1.431 . S
C696 C706 1.476 . S
H697 C691 0.929 . S
C698 O689 1.250 . S
C698 O690 1.258 . S
O699 Mn684 2.162 . S
O699 C687 1.281 . S
O700 Mn684 2.297 . S
O700 C687 1.236 . S
N701 Mn685 2.282 . S
N701 C702 1.328 . S
N701 C706 1.318 . S
C702 N701 1.328 . S
C702 C703 1.457 . S
C702 H707 0.929 . S
C703 C702 1.457 . S
C703 C704 1.291 . S
C703 H716 0.931 . S
C704 C703 1.291 . S
C704 C705 1.373 . S
C704 H717 0.929 . S
C705 C704 1.373 . S
C705 C706 1.396 . S
C705 C712 1.403 . S
C706 C696 1.476 . S
C706 N701 1.318 . S
C706 C705 1.396 . S
H707 C702 0.929 . S
O708 Mn684 2.385 . S
O708 C686 1.234 . S
O709 Mn684 2.209 . S
O709 Mn685 2.215 . S
O709 C686 1.283 . S
O710 Mn684 2.094 . S
O710 C688 1.240 . S
O711 Mn685 2.117 . S
O711 C688 1.264 . S
C712 C705 1.403 . S
C712 C713 1.399 . S
C712 H718 0.929 . S
C713 C693 1.449 . S
C713 C712 1.399 . S
C713 H719 0.930 . S
H714 C694 0.931 . S
H715 C695 0.930 . S
H716 C703 0.931 . S
H717 C704 0.929 . S
H718 C712 0.929 . S
H719 C713 0.930 . S
Mn720 O725 2.095 1_554 S
Mn720 O735 2.162 . S
Mn720 O736 2.297 . S
Mn720 O744 2.385 . S
Mn720 O745 2.209 1_554 S
Mn720 O746 2.094 1_554 S
Mn721 O726 2.121 . S
Mn721 N728 2.257 . S
Mn721 N737 2.282 . S
Mn721 O745 2.215 . S
Mn721 O747 2.117 . S
C722 O744 1.234 1_556 S
C722 O745 1.283 . S
C723 O735 1.281 . S
C723 O736 1.236 . S
C724 O746 1.240 . S
C724 O747 1.264 . S
O725 Mn720 2.095 1_556 S
O725 C734 1.250 . S
O726 Mn721 2.121 . S
O726 C734 1.258 . S
C727 N728 1.326 . S
C727 C731 1.460 . S
C727 H733 0.929 . S
N728 Mn721 2.257 . S
N728 C727 1.326 . S
N728 C732 1.362 . S
C729 C730 1.258 . S
C729 C732 1.431 . S
C729 C749 1.449 . S
C730 C729 1.258 . S
C730 C731 1.477 . S
C730 H750 0.931 . S
C731 C727 1.460 . S
C731 C730 1.477 . S
C731 H751 0.930 . S
C732 N728 1.362 . S
C732 C729 1.431 . S
C732 C742 1.476 . S
H733 C727 0.929 . S
C734 O725 1.250 . S
C734 O726 1.258 . S
O735 Mn720 2.162 . S
O735 C723 1.281 . S
O736 Mn720 2.297 . S
O736 C723 1.236 . S
N737 Mn721 2.282 . S
N737 C738 1.328 . S
N737 C742 1.318 . S
C738 N737 1.328 . S
C738 C739 1.457 . S
C738 H743 0.929 . S
C739 C738 1.457 . S
C739 C740 1.291 . S
C739 H752 0.931 . S
C740 C739 1.291 . S
C740 C741 1.373 . S
C740 H753 0.929 . S
C741 C740 1.373 . S
C741 C742 1.396 . S
C741 C748 1.403 . S
C742 C732 1.476 . S
C742 N737 1.318 . S
C742 C741 1.396 . S
H743 C738 0.929 . S
O744 Mn720 2.385 . S
O744 C722 1.234 1_554 S
O745 Mn720 2.209 1_556 S
O745 Mn721 2.215 . S
O745 C722 1.283 . S
O746 Mn720 2.094 1_556 S
O746 C724 1.240 . S
O747 Mn721 2.117 . S
O747 C724 1.264 . S
C748 C741 1.403 . S
C748 C749 1.399 . S
C748 H754 0.929 . S
C749 C729 1.449 . S
C749 C748 1.399 . S
C749 H755 0.930 . S
H750 C730 0.931 . S
H751 C731 0.930 . S
H752 C739 0.931 . S
H753 C740 0.929 . S
H754 C748 0.929 . S
H755 C749 0.930 . S
Mn756 O761 2.095 . S
Mn756 O771 2.162 . S
Mn756 O772 2.297 . S
Mn756 O780 2.385 . S
Mn756 O781 2.209 . S
Mn756 O782 2.094 . S
Mn757 O762 2.121 . S
Mn757 N764 2.257 . S
Mn757 N773 2.282 . S
Mn757 O781 2.215 . S
Mn757 O783 2.117 . S
C758 O780 1.234 . S
C758 O781 1.283 . S
C759 O771 1.281 . S
C759 O772 1.236 . S
C760 O782 1.240 . S
C760 O783 1.264 . S
O761 Mn756 2.095 . S
O761 C770 1.250 . S
O762 Mn757 2.121 . S
O762 C770 1.258 . S
C763 N764 1.326 . S
C763 C767 1.460 . S
C763 H769 0.929 . S
N764 Mn757 2.257 . S
N764 C763 1.326 . S
N764 C768 1.362 . S
C765 C766 1.258 . S
C765 C768 1.431 . S
C765 C785 1.449 . S
C766 C765 1.258 . S
C766 C767 1.477 . S
C766 H786 0.931 . S
C767 C763 1.460 . S
C767 C766 1.477 . S
C767 H787 0.930 . S
C768 N764 1.362 . S
C768 C765 1.431 . S
C768 C778 1.476 . S
H769 C763 0.929 . S
C770 O761 1.250 . S
C770 O762 1.258 . S
O771 Mn756 2.162 . S
O771 C759 1.281 . S
O772 Mn756 2.297 . S
O772 C759 1.236 . S
N773 Mn757 2.282 . S
N773 C774 1.328 . S
N773 C778 1.318 . S
C774 N773 1.328 . S
C774 C775 1.457 . S
C774 H779 0.929 . S
C775 C774 1.457 . S
C775 C776 1.291 . S
C775 H788 0.931 . S
C776 C775 1.291 . S
C776 C777 1.373 . S
C776 H789 0.929 . S
C777 C776 1.373 . S
C777 C778 1.396 . S
C777 C784 1.403 . S
C778 C768 1.476 . S
C778 N773 1.318 . S
C778 C777 1.396 . S
H779 C774 0.929 . S
O780 Mn756 2.385 . S
O780 C758 1.234 . S
O781 Mn756 2.209 . S
O781 Mn757 2.215 . S
O781 C758 1.283 . S
O782 Mn756 2.094 . S
O782 C760 1.240 . S
O783 Mn757 2.117 . S
O783 C760 1.264 . S
C784 C777 1.403 . S
C784 C785 1.399 . S
C784 H790 0.929 . S
C785 C765 1.449 . S
C785 C784 1.399 . S
C785 H791 0.930 . S
H786 C766 0.931 . S
H787 C767 0.930 . S
H788 C775 0.931 . S
H789 C776 0.929 . S
H790 C784 0.929 . S
H791 C785 0.930 . S
Mn792 O797 2.095 . S
Mn792 O807 2.162 . S
Mn792 O808 2.297 . S
Mn792 O816 2.385 . S
Mn792 O817 2.209 . S
Mn792 O818 2.094 . S
Mn793 O798 2.121 . S
Mn793 N800 2.257 . S
Mn793 N809 2.282 . S
Mn793 O817 2.215 . S
Mn793 O819 2.117 . S
C794 O816 1.234 . S
C794 O817 1.283 . S
C795 O807 1.281 . S
C795 O808 1.236 . S
C796 O818 1.240 . S
C796 O819 1.264 . S
O797 Mn792 2.095 . S
O797 C806 1.250 . S
O798 Mn793 2.121 . S
O798 C806 1.258 . S
C799 N800 1.326 . S
C799 C803 1.460 . S
C799 H805 0.929 . S
N800 Mn793 2.257 . S
N800 C799 1.326 . S
N800 C804 1.362 . S
C801 C802 1.258 . S
C801 C804 1.431 . S
C801 C821 1.449 . S
C802 C801 1.258 . S
C802 C803 1.477 . S
C802 H822 0.931 . S
C803 C799 1.460 . S
C803 C802 1.477 . S
C803 H823 0.930 . S
C804 N800 1.362 . S
C804 C801 1.431 . S
C804 C814 1.476 . S
H805 C799 0.929 . S
C806 O797 1.250 . S
C806 O798 1.258 . S
O807 Mn792 2.162 . S
O807 C795 1.281 . S
O808 Mn792 2.297 . S
O808 C795 1.236 . S
N809 Mn793 2.282 . S
N809 C810 1.328 . S
N809 C814 1.318 . S
C810 N809 1.328 . S
C810 C811 1.457 . S
C810 H815 0.929 . S
C811 C810 1.457 . S
C811 C812 1.291 . S
C811 H824 0.931 . S
C812 C811 1.291 . S
C812 C813 1.373 . S
C812 H825 0.929 . S
C813 C812 1.373 . S
C813 C814 1.396 . S
C813 C820 1.403 . S
C814 C804 1.476 . S
C814 N809 1.318 . S
C814 C813 1.396 . S
H815 C810 0.929 . S
O816 Mn792 2.385 . S
O816 C794 1.234 . S
O817 Mn792 2.209 . S
O817 Mn793 2.215 . S
O817 C794 1.283 . S
O818 Mn792 2.094 . S
O818 C796 1.240 . S
O819 Mn793 2.117 . S
O819 C796 1.264 . S
C820 C813 1.403 . S
C820 C821 1.399 . S
C820 H826 0.929 . S
C821 C801 1.449 . S
C821 C820 1.399 . S
C821 H827 0.930 . S
H822 C802 0.931 . S
H823 C803 0.930 . S
H824 C811 0.931 . S
H825 C812 0.929 . S
H826 C820 0.929 . S
H827 C821 0.930 . S
Mn828 O833 2.095 . S
Mn828 O843 2.162 . S
Mn828 O844 2.297 . S
Mn828 O852 2.385 . S
Mn828 O853 2.209 . S
Mn828 O854 2.094 . S
Mn829 O834 2.121 . S
Mn829 N836 2.257 . S
Mn829 N845 2.282 . S
Mn829 O853 2.215 . S
Mn829 O855 2.117 . S
C830 O852 1.234 . S
C830 O853 1.283 . S
C831 O843 1.281 . S
C831 O844 1.236 . S
C832 O854 1.240 . S
C832 O855 1.264 . S
O833 Mn828 2.095 . S
O833 C842 1.250 . S
O834 Mn829 2.121 . S
O834 C842 1.258 . S
C835 N836 1.326 . S
C835 C839 1.460 . S
C835 H841 0.929 . S
N836 Mn829 2.257 . S
N836 C835 1.326 . S
N836 C840 1.362 . S
C837 C838 1.258 . S
C837 C840 1.431 . S
C837 C857 1.449 . S
C838 C837 1.258 . S
C838 C839 1.477 . S
C838 H858 0.931 . S
C839 C835 1.460 . S
C839 C838 1.477 . S
C839 H859 0.930 . S
C840 N836 1.362 . S
C840 C837 1.431 . S
C840 C850 1.476 . S
H841 C835 0.929 . S
C842 O833 1.250 . S
C842 O834 1.258 . S
O843 Mn828 2.162 . S
O843 C831 1.281 . S
O844 Mn828 2.297 . S
O844 C831 1.236 . S
N845 Mn829 2.282 . S
N845 C846 1.328 . S
N845 C850 1.318 . S
C846 N845 1.328 . S
C846 C847 1.457 . S
C846 H851 0.929 . S
C847 C846 1.457 . S
C847 C848 1.291 . S
C847 H860 0.931 . S
C848 C847 1.291 . S
C848 C849 1.373 . S
C848 H861 0.929 . S
C849 C848 1.373 . S
C849 C850 1.396 . S
C849 C856 1.403 . S
C850 C840 1.476 . S
C850 N845 1.318 . S
C850 C849 1.396 . S
H851 C846 0.929 . S
O852 Mn828 2.385 . S
O852 C830 1.234 . S
O853 Mn828 2.209 . S
O853 Mn829 2.215 . S
O853 C830 1.283 . S
O854 Mn828 2.094 . S
O854 C832 1.240 . S
O855 Mn829 2.117 . S
O855 C832 1.264 . S
C856 C849 1.403 . S
C856 C857 1.399 . S
C856 H862 0.929 . S
C857 C837 1.449 . S
C857 C856 1.399 . S
C857 H863 0.930 . S
H858 C838 0.931 . S
H859 C839 0.930 . S
H860 C847 0.931 . S
H861 C848 0.929 . S
H862 C856 0.929 . S
H863 C857 0.930 . S
Tb864 N895 2.660 1_545 S
Tb864 N902 2.600 1_544 S
Tb864 O908 2.546 1_454 S
Tb864 O909 2.610 . S
Tb864 O911 2.320 . S
Tb864 O912 2.565 . S
Tb864 O913 2.413 1_455 S
Tb864 O915 2.362 . S
Tb864 O916 2.421 1_554 S
Tb864 C928 2.833 1_454 S
C865 C868 1.432 . S
C865 C869 1.414 . S
C865 N872 1.359 . S
C866 C868 1.417 . S
C866 C870 1.432 . S
C866 C878 1.410 1_554 S
C867 C869 1.444 . S
C867 C870 1.317 . S
C867 H890 0.929 . S
C868 C865 1.432 . S
C868 C866 1.417 . S
C868 N876 1.360 . S
C869 C865 1.414 . S
C869 C867 1.444 . S
C869 C874 1.385 . S
C870 C866 1.432 . S
C870 C867 1.317 . S
C870 H882 0.930 . S
C871 C873 1.392 . S
C871 C874 1.370 . S
C871 H883 0.931 . S
N872 C865 1.359 . S
N872 C873 1.327 . S
N872 Tb875 2.600 . S
C873 C871 1.392 . S
C873 N872 1.327 . S
C873 H880 0.930 . S
C874 C869 1.385 . S
C874 C871 1.370 . S
C874 H893 0.930 . S
Tb875 N872 2.600 . S
Tb875 N876 2.660 . S
Tb875 O909 2.362 . S
Tb875 O910 2.421 . S
Tb875 O914 2.546 . S
Tb875 O915 2.610 . S
Tb875 O917 2.320 1_554 S
Tb875 O918 2.552 . S
Tb875 O919 2.413 . S
Tb875 C939 2.833 . S
N876 C868 1.360 . S
N876 Tb875 2.660 . S
N876 C877 1.305 1_554 S
C877 N876 1.305 1_556 S
C877 C879 1.407 . S
C877 H884 0.930 . S
C878 C866 1.410 1_556 S
C878 C879 1.345 . S
C878 H886 0.930 . S
C879 C877 1.407 . S
C879 C878 1.345 . S
C879 H881 0.930 . S
H880 C873 0.930 . S
H881 C879 0.930 . S
H882 C870 0.930 . S
H883 C871 0.931 . S
H884 C877 0.930 . S
H885 C899 0.931 . S
H886 C878 0.930 . S
H887 C905 0.969 . S
H888 C896 0.930 1_545 S
H889 C903 0.931 . S
H890 C867 0.929 . S
H891 C897 0.930 . S
H892 C930 0.928 1_554 S
H893 C874 0.930 . S
H894 C929 0.929 . S
N895 Tb864 2.660 1_565 S
N895 C896 1.305 . S
N895 C900 1.355 1_455 S
C896 H888 0.930 1_565 S
C896 N895 1.305 . S
C896 C899 1.422 . S
C897 H891 0.930 . S
C897 C898 1.410 . S
C897 C899 1.333 1_655 S
C898 C897 1.410 . S
C898 C900 1.423 . S
C898 C930 1.430 1_554 S
C899 H885 0.931 . S
C899 C896 1.422 . S
C899 C897 1.333 1_455 S
C900 N895 1.355 1_655 S
C900 C898 1.423 . S
C900 C904 1.433 1_554 S
H901 C906 0.930 . S
N902 Tb864 2.600 1_566 S
N902 C904 1.343 1_455 S
N902 C905 1.327 . S
C903 H889 0.931 . S
C903 C905 1.392 1_655 S
C903 C906 1.370 . S
C904 C900 1.433 1_556 S
C904 N902 1.343 1_655 S
C904 C907 1.428 . S
C905 H887 0.969 . S
C905 N902 1.327 . S
C905 C903 1.392 1_455 S
C906 H901 0.930 . S
C906 C903 1.370 . S
C906 C907 1.385 . S
C907 C904 1.428 . S
C907 C906 1.385 . S
C907 C929 1.444 . S
O908 Tb864 2.546 1_656 S
O908 C928 1.251 . S
O909 Tb864 2.610 . S
O909 Tb875 2.362 . S
O909 C920 1.283 . S
O910 Tb875 2.421 . S
O910 C927 1.262 . S
O911 Tb864 2.320 . S
O911 C927 1.260 . S
O912 Tb864 2.565 . S
O912 C920 1.264 . S
O913 Tb864 2.413 1_655 S
O913 C928 1.256 1_554 S
O914 Tb875 2.546 . S
O914 C939 1.251 . S
O915 Tb864 2.362 . S
O915 Tb875 2.610 . S
O915 C931 1.267 1_545 S
O916 Tb864 2.421 1_556 S
O916 C938 1.262 . S
O917 Tb875 2.320 1_556 S
O917 C938 1.260 . S
O918 Tb875 2.552 . S
O918 C931 1.241 1_545 S
O919 Tb875 2.413 . S
O919 C939 1.256 . S
C920 O909 1.283 . S
C920 O912 1.264 . S
C921 C923 1.382 1_556 S
C921 C925 1.393 . S
C921 C928 1.500 . S
C922 C923 1.396 1_556 S
C922 C924 1.402 . S
C923 C921 1.382 1_554 S
C923 C922 1.396 1_554 S
C923 H940 0.930 . S
C924 C922 1.402 . S
C924 C926 1.392 . S
C924 H941 0.931 . S
C925 C921 1.393 . S
C925 C926 1.401 . S
C925 H942 0.930 . S
C926 C924 1.392 . S
C926 C925 1.401 . S
C926 H943 0.930 . S
C927 O910 1.262 . S
C927 O911 1.260 . S
C928 Tb864 2.833 1_656 S
C928 O908 1.251 . S
C928 O913 1.256 1_556 S
C928 C921 1.500 . S
C929 H894 0.929 . S
C929 C907 1.444 . S
C929 C930 1.321 . S
C930 H892 0.928 1_556 S
C930 C898 1.430 1_556 S
C930 C929 1.321 . S
C931 O915 1.267 1_565 S
C931 O918 1.241 1_565 S
C932 C933 1.382 . S
C932 C936 1.393 . S
C932 C939 1.500 . S
C933 C932 1.382 . S
C933 C934 1.400 . S
C933 H944 0.930 . S
C934 C933 1.400 . S
C934 C935 1.384 . S
C935 C934 1.384 . S
C935 C937 1.392 . S
C935 H945 0.931 . S
C936 C932 1.393 . S
C936 C937 1.401 . S
C936 H946 0.930 . S
C937 C935 1.392 . S
C937 C936 1.401 . S
C937 H947 0.930 . S
C938 O916 1.262 . S
C938 O917 1.260 . S
C939 Tb875 2.833 . S
C939 O914 1.251 . S
C939 O919 1.256 . S
C939 C932 1.500 . S
H940 C923 0.930 . S
H941 C924 0.931 . S
H942 C925 0.930 . S
H943 C926 0.930 . S
H944 C933 0.930 . S
H945 C935 0.931 . S
H946 C936 0.930 . S
H947 C937 0.930 . S
Tb948 N979 2.660 . S
Tb948 N986 2.600 . S
Tb948 O992 2.546 . S
Tb948 O993 2.610 . S
Tb948 O995 2.320 . S
Tb948 O996 2.552 . S
Tb948 O997 2.413 . S
Tb948 O999 2.362 . S
Tb948 O1000 2.421 . S
Tb948 C1012 2.833 . S
C949 C952 1.432 . S
C949 C953 1.414 . S
C949 N956 1.359 . S
C950 C952 1.417 . S
C950 C954 1.432 . S
C950 C962 1.410 . S
C951 C953 1.444 . S
C951 C954 1.317 . S
C951 H974 0.929 . S
C952 C949 1.432 . S
C952 C950 1.417 . S
C952 N960 1.360 . S
C953 C949 1.414 . S
C953 C951 1.444 . S
C953 C958 1.385 . S
C954 C950 1.432 . S
C954 C951 1.317 . S
C954 H966 0.930 . S
C955 C957 1.392 . S
C955 C958 1.370 . S
C955 H967 0.931 . S
N956 C949 1.359 . S
N956 C957 1.327 . S
N956 Tb959 2.600 . S
C957 C955 1.392 . S
C957 N956 1.327 . S
C957 H964 0.930 . S
C958 C953 1.385 . S
C958 C955 1.370 . S
C958 H977 0.930 . S
Tb959 N956 2.600 . S
Tb959 N960 2.660 . S
Tb959 O993 2.362 . S
Tb959 O994 2.421 . S
Tb959 O998 2.546 . S
Tb959 O999 2.610 . S
Tb959 O1001 2.320 . S
Tb959 O1002 2.552 . S
Tb959 O1003 2.413 . S
Tb959 C1023 2.833 . S
N960 C952 1.360 . S
N960 Tb959 2.660 . S
N960 C961 1.305 . S
C961 N960 1.305 . S
C961 C963 1.407 . S
C961 H968 0.930 . S
C962 C950 1.410 . S
C962 C963 1.345 . S
C962 H970 0.930 . S
C963 C961 1.407 . S
C963 C962 1.345 . S
C963 H965 0.930 . S
H964 C957 0.930 . S
H965 C963 0.930 . S
H966 C954 0.930 . S
H967 C955 0.931 . S
H968 C961 0.930 . S
H969 C983 0.930 . S
H970 C962 0.930 . S
H971 C989 0.930 . S
H972 C980 0.930 . S
H973 C987 0.931 . S
H974 C951 0.929 . S
H975 C981 0.930 . S
H976 C1014 0.930 . S
H977 C958 0.930 . S
H978 C1013 0.929 . S
N979 Tb948 2.660 . S
N979 C980 1.305 . S
N979 C984 1.360 . S
C980 H972 0.930 . S
C980 N979 1.305 . S
C980 C983 1.407 . S
C981 H975 0.930 . S
C981 C982 1.410 . S
C981 C983 1.345 . S
C982 C981 1.410 . S
C982 C984 1.417 . S
C982 C1014 1.432 . S
C983 H969 0.930 . S
C983 C980 1.407 . S
C983 C981 1.345 . S
C984 N979 1.360 . S
C984 C982 1.417 . S
C984 C988 1.432 . S
H985 C990 0.930 . S
N986 Tb948 2.600 . S
N986 C988 1.359 . S
N986 C989 1.327 . S
C987 H973 0.931 . S
C987 C989 1.392 . S
C987 C990 1.370 . S
C988 C984 1.432 . S
C988 N986 1.359 . S
C988 C991 1.414 . S
C989 H971 0.930 . S
C989 N986 1.327 . S
C989 C987 1.392 . S
C990 H985 0.930 . S
C990 C987 1.370 . S
C990 C991 1.385 . S
C991 C988 1.414 . S
C991 C990 1.385 . S
C991 C1013 1.444 . S
O992 Tb948 2.546 . S
O992 C1012 1.251 . S
O993 Tb948 2.610 . S
O993 Tb959 2.362 . S
O993 C1004 1.283 . S
O994 Tb959 2.421 . S
O994 C1011 1.262 . S
O995 Tb948 2.320 . S
O995 C1011 1.260 . S
O996 Tb948 2.552 . S
O996 C1004 1.243 . S
O997 Tb948 2.413 . S
O997 C1012 1.256 . S
O998 Tb959 2.546 . S
O998 C1023 1.251 . S
O999 Tb948 2.362 . S
O999 Tb959 2.610 . S
O999 C1015 1.283 . S
O1000 Tb948 2.421 . S
O1000 C1022 1.262 . S
O1001 Tb959 2.320 . S
O1001 C1022 1.260 . S
O1002 Tb959 2.552 . S
O1002 C1015 1.243 . S
O1003 Tb959 2.413 . S
O1003 C1023 1.256 . S
C1004 O993 1.283 . S
C1004 O996 1.243 . S
C1005 C1007 1.382 . S
C1005 C1009 1.393 . S
C1005 C1012 1.500 . S
C1006 C1007 1.400 . S
C1006 C1008 1.384 . S
C1007 C1005 1.382 . S
C1007 C1006 1.400 . S
C1007 H1024 0.930 . S
C1008 C1006 1.384 . S
C1008 C1010 1.392 . S
C1008 H1025 0.931 . S
C1009 C1005 1.393 . S
C1009 C1010 1.401 . S
C1009 H1026 0.930 . S
C1010 C1008 1.392 . S
C1010 C1009 1.401 . S
C1010 H1027 0.930 . S
C1011 O994 1.262 . S
C1011 O995 1.260 . S
C1012 Tb948 2.833 . S
C1012 O992 1.251 . S
C1012 O997 1.256 . S
C1012 C1005 1.500 . S
C1013 H978 0.929 . S
C1013 C991 1.444 . S
C1013 C1014 1.317 . S
C1014 H976 0.930 . S
C1014 C982 1.432 . S
C1014 C1013 1.317 . S
C1015 O999 1.283 . S
C1015 O1002 1.243 . S
C1016 C1017 1.382 . S
C1016 C1020 1.393 . S
C1016 C1023 1.500 . S
C1017 C1016 1.382 . S
C1017 C1018 1.400 . S
C1017 H1028 0.930 . S
C1018 C1017 1.400 . S
C1018 C1019 1.384 . S
C1019 C1018 1.384 . S
C1019 C1021 1.392 . S
C1019 H1029 0.931 . S
C1020 C1016 1.393 . S
C1020 C1021 1.401 . S
C1020 H1030 0.930 . S
C1021 C1019 1.392 . S
C1021 C1020 1.401 . S
C1021 H1031 0.930 . S
C1022 O1000 1.262 . S
C1022 O1001 1.260 . S
C1023 Tb959 2.833 . S
C1023 O998 1.251 . S
C1023 O1003 1.256 . S
C1023 C1016 1.500 . S
H1024 C1007 0.930 . S
H1025 C1008 0.931 . S
H1026 C1009 0.930 . S
H1027 C1010 0.930 . S
H1028 C1017 0.930 . S
H1029 C1019 0.931 . S
H1030 C1020 0.930 . S
H1031 C1021 0.930 . S
Tb1032 N1063 2.660 . S
Tb1032 N1070 2.600 . S
Tb1032 O1076 2.546 . S
Tb1032 O1077 2.610 . S
Tb1032 O1079 2.320 . S
Tb1032 O1080 2.552 . S
Tb1032 O1081 2.413 . S
Tb1032 O1083 2.362 . S
Tb1032 O1084 2.421 . S
Tb1032 C1096 2.833 . S
C1033 C1036 1.431 1_545 S
C1033 C1037 1.410 1_545 S
C1033 N1040 1.363 . S
C1034 C1036 1.417 . S
C1034 C1038 1.432 . S
C1034 C1046 1.410 . S
C1035 C1037 1.444 . S
C1035 C1038 1.317 . S
C1035 H1058 0.929 . S
C1036 C1033 1.431 1_565 S
C1036 C1034 1.417 . S
C1036 N1044 1.360 1_565 S
C1037 C1033 1.410 1_565 S
C1037 C1035 1.444 . S
C1037 C1042 1.385 . S
C1038 C1034 1.432 . S
C1038 C1035 1.317 . S
C1038 H1050 0.930 . S
C1039 C1041 1.392 . S
C1039 C1042 1.370 1_545 S
C1039 H1051 0.931 . S
N1040 C1033 1.363 . S
N1040 C1041 1.327 . S
N1040 Tb1043 2.600 . S
C1041 C1039 1.392 . S
C1041 N1040 1.327 . S
C1041 H1048 0.930 . S
C1042 C1037 1.385 . S
C1042 C1039 1.370 1_565 S
C1042 H1061 0.930 . S
Tb1043 N1040 2.600 . S
Tb1043 N1044 2.660 . S
Tb1043 O1077 2.362 . S
Tb1043 O1078 2.421 . S
Tb1043 O1082 2.546 . S
Tb1043 O1083 2.610 . S
Tb1043 O1085 2.320 . S
Tb1043 O1086 2.552 . S
Tb1043 O1087 2.413 . S
Tb1043 C1107 2.833 . S
N1044 C1036 1.360 1_545 S
N1044 Tb1043 2.660 . S
N1044 C1045 1.310 . S
C1045 N1044 1.310 . S
C1045 C1047 1.376 1_545 S
C1045 H1052 0.960 . S
C1046 C1034 1.410 . S
C1046 C1047 1.345 . S
C1046 H1054 0.930 . S
C1047 C1045 1.376 1_565 S
C1047 C1046 1.345 . S
C1047 H1049 0.930 . S
H1048 C1041 0.930 . S
H1049 C1047 0.930 . S
H1050 C1038 0.930 . S
H1051 C1039 0.931 . S
H1052 C1045 0.960 . S
H1053 C1067 0.930 . S
H1054 C1046 0.930 . S
H1055 C1073 0.930 . S
H1056 C1064 0.930 . S
H1057 C1071 0.931 . S
H1058 C1035 0.929 . S
H1059 C1065 0.930 . S
H1060 C1098 0.930 . S
H1061 C1042 0.930 . S
H1062 C1097 0.929 . S
N1063 Tb1032 2.660 . S
N1063 C1064 1.305 . S
N1063 C1068 1.360 . S
C1064 H1056 0.930 . S
C1064 N1063 1.305 . S
C1064 C1067 1.407 . S
C1065 H1059 0.930 . S
C1065 C1066 1.410 . S
C1065 C1067 1.345 . S
C1066 C1065 1.410 . S
C1066 C1068 1.417 . S
C1066 C1098 1.432 . S
C1067 H1053 0.930 . S
C1067 C1064 1.407 . S
C1067 C1065 1.345 . S
C1068 N1063 1.360 . S
C1068 C1066 1.417 . S
C1068 C1072 1.432 . S
H1069 C1074 0.930 . S
N1070 Tb1032 2.600 . S
N1070 C1072 1.359 . S
N1070 C1073 1.327 . S
C1071 H1057 0.931 . S
C1071 C1073 1.392 . S
C1071 C1074 1.370 . S
C1072 C1068 1.432 . S
C1072 N1070 1.359 . S
C1072 C1075 1.414 . S
C1073 H1055 0.930 . S
C1073 N1070 1.327 . S
C1073 C1071 1.392 . S
C1074 H1069 0.930 . S
C1074 C1071 1.370 . S
C1074 C1075 1.385 . S
C1075 C1072 1.414 . S
C1075 C1074 1.385 . S
C1075 C1097 1.444 . S
O1076 Tb1032 2.546 . S
O1076 C1096 1.251 . S
O1077 Tb1032 2.610 . S
O1077 Tb1043 2.362 . S
O1077 C1088 1.283 . S
O1078 Tb1043 2.421 . S
O1078 C1095 1.262 . S
O1079 Tb1032 2.320 . S
O1079 C1095 1.260 . S
O1080 Tb1032 2.552 . S
O1080 C1088 1.243 . S
O1081 Tb1032 2.413 . S
O1081 C1096 1.256 . S
O1082 Tb1043 2.546 . S
O1082 C1107 1.251 . S
O1083 Tb1032 2.362 . S
O1083 Tb1043 2.610 . S
O1083 C1099 1.283 . S
O1084 Tb1032 2.421 . S
O1084 C1106 1.262 . S
O1085 Tb1043 2.320 . S
O1085 C1106 1.260 . S
O1086 Tb1043 2.552 . S
O1086 C1099 1.243 . S
O1087 Tb1043 2.413 . S
O1087 C1107 1.256 . S
C1088 O1077 1.283 . S
C1088 O1080 1.243 . S
C1089 C1091 1.382 . S
C1089 C1093 1.393 . S
C1089 C1096 1.500 . S
C1090 C1091 1.408 . S
C1090 C1092 1.381 . S
C1091 C1089 1.382 . S
C1091 C1090 1.408 . S
C1091 H1108 0.930 . S
C1092 C1090 1.381 . S
C1092 C1094 1.429 . S
C1092 H1109 0.901 1_545 S
C1093 C1089 1.393 . S
C1093 C1094 1.401 . S
C1093 H1110 0.930 . S
C1094 C1092 1.429 . S
C1094 C1093 1.401 . S
C1094 H1111 0.930 . S
C1095 O1078 1.262 . S
C1095 O1079 1.260 . S
C1096 Tb1032 2.833 . S
C1096 O1076 1.251 . S
C1096 O1081 1.256 . S
C1096 C1089 1.500 . S
C1097 H1062 0.929 . S
C1097 C1075 1.444 . S
C1097 C1098 1.317 . S
C1098 H1060 0.930 . S
C1098 C1066 1.432 . S
C1098 C1097 1.317 . S
C1099 O1083 1.283 . S
C1099 O1086 1.243 . S
C1100 C1101 1.382 . S
C1100 C1104 1.393 . S
C1100 C1107 1.500 . S
C1101 C1100 1.382 . S
C1101 C1102 1.400 . S
C1101 H1112 0.930 . S
C1102 C1101 1.400 . S
C1102 C1103 1.384 . S
C1103 C1102 1.384 . S
C1103 C1105 1.392 . S
C1103 H1113 0.931 . S
C1104 C1100 1.393 . S
C1104 C1105 1.401 . S
C1104 H1114 0.930 . S
C1105 C1103 1.392 . S
C1105 C1104 1.401 . S
C1105 H1115 0.930 . S
C1106 O1084 1.262 . S
C1106 O1085 1.260 . S
C1107 Tb1043 2.833 . S
C1107 O1082 1.251 . S
C1107 O1087 1.256 . S
C1107 C1100 1.500 . S
H1108 C1091 0.930 . S
H1109 C1092 0.901 1_565 S
H1110 C1093 0.930 . S
H1111 C1094 0.930 . S
H1112 C1101 0.930 . S
H1113 C1103 0.931 . S
H1114 C1104 0.930 . S
H1115 C1105 0.930 . S
Tb1116 N1147 2.660 . S
Tb1116 N1154 2.600 . S
Tb1116 O1160 2.546 . S
Tb1116 O1161 2.610 . S
Tb1116 O1163 2.320 . S
Tb1116 O1164 2.552 . S
Tb1116 O1165 2.413 . S
Tb1116 O1167 2.362 . S
Tb1116 O1168 2.421 . S
Tb1116 C1180 2.833 . S
C1117 C1120 1.432 . S
C1117 C1121 1.414 . S
C1117 N1124 1.359 . S
C1118 C1120 1.417 . S
C1118 C1122 1.432 . S
C1118 C1130 1.410 . S
C1119 C1121 1.444 . S
C1119 C1122 1.317 . S
C1119 H1142 0.929 . S
C1120 C1117 1.432 . S
C1120 C1118 1.417 . S
C1120 N1128 1.360 . S
C1121 C1117 1.414 . S
C1121 C1119 1.444 . S
C1121 C1126 1.385 . S
C1122 C1118 1.432 . S
C1122 C1119 1.317 . S
C1122 H1134 0.930 . S
C1123 C1125 1.392 . S
C1123 C1126 1.370 . S
C1123 H1135 0.931 . S
N1124 C1117 1.359 . S
N1124 C1125 1.327 . S
N1124 Tb1127 2.600 . S
C1125 C1123 1.392 . S
C1125 N1124 1.327 . S
C1125 H1132 0.930 . S
C1126 C1121 1.385 . S
C1126 C1123 1.370 . S
C1126 H1145 0.930 . S
Tb1127 N1124 2.600 . S
Tb1127 N1128 2.660 . S
Tb1127 O1161 2.362 . S
Tb1127 O1162 2.421 . S
Tb1127 O1166 2.546 . S
Tb1127 O1167 2.610 . S
Tb1127 O1169 2.320 . S
Tb1127 O1170 2.552 . S
Tb1127 O1171 2.413 . S
Tb1127 C1191 2.833 . S
N1128 C1120 1.360 . S
N1128 Tb1127 2.660 . S
N1128 C1129 1.305 . S
C1129 N1128 1.305 . S
C1129 C1131 1.407 . S
C1129 H1136 0.930 . S
C1130 C1118 1.410 . S
C1130 C1131 1.345 . S
C1130 H1138 0.930 . S
C1131 C1129 1.407 . S
C1131 C1130 1.345 . S
C1131 H1133 0.930 . S
H1132 C1125 0.930 . S
H1133 C1131 0.930 . S
H1134 C1122 0.930 . S
H1135 C1123 0.931 . S
H1136 C1129 0.930 . S
H1137 C1151 0.930 . S
H1138 C1130 0.930 . S
H1139 C1157 0.930 . S
H1140 C1148 0.930 . S
H1141 C1155 0.931 . S
H1142 C1119 0.929 . S
H1143 C1149 0.930 . S
H1144 C1182 0.930 . S
H1145 C1126 0.930 . S
H1146 C1181 0.929 . S
N1147 Tb1116 2.660 . S
N1147 C1148 1.305 . S
N1147 C1152 1.360 . S
C1148 H1140 0.930 . S
C1148 N1147 1.305 . S
C1148 C1151 1.407 . S
C1149 H1143 0.930 . S
C1149 C1150 1.410 . S
C1149 C1151 1.345 . S
C1150 C1149 1.410 . S
C1150 C1152 1.417 . S
C1150 C1182 1.432 . S
C1151 H1137 0.930 . S
C1151 C1148 1.407 . S
C1151 C1149 1.345 . S
C1152 N1147 1.360 . S
C1152 C1150 1.417 . S
C1152 C1156 1.432 . S
H1153 C1158 0.930 . S
N1154 Tb1116 2.600 . S
N1154 C1156 1.359 . S
N1154 C1157 1.327 . S
C1155 H1141 0.931 . S
C1155 C1157 1.392 . S
C1155 C1158 1.370 . S
C1156 C1152 1.432 . S
C1156 N1154 1.359 . S
C1156 C1159 1.414 . S
C1157 H1139 0.930 . S
C1157 N1154 1.327 . S
C1157 C1155 1.392 . S
C1158 H1153 0.930 . S
C1158 C1155 1.370 . S
C1158 C1159 1.385 . S
C1159 C1156 1.414 . S
C1159 C1158 1.385 . S
C1159 C1181 1.444 . S
O1160 Tb1116 2.546 . S
O1160 C1180 1.251 . S
O1161 Tb1116 2.610 . S
O1161 Tb1127 2.362 . S
O1161 C1172 1.283 . S
O1162 Tb1127 2.421 . S
O1162 C1179 1.262 . S
O1163 Tb1116 2.320 . S
O1163 C1179 1.260 . S
O1164 Tb1116 2.552 . S
O1164 C1172 1.243 . S
O1165 Tb1116 2.413 . S
O1165 C1180 1.256 . S
O1166 Tb1127 2.546 . S
O1166 C1191 1.251 . S
O1167 Tb1116 2.362 . S
O1167 Tb1127 2.610 . S
O1167 C1183 1.283 . S
O1168 Tb1116 2.421 . S
O1168 C1190 1.262 . S
O1169 Tb1127 2.320 . S
O1169 C1190 1.260 . S
O1170 Tb1127 2.552 . S
O1170 C1183 1.243 . S
O1171 Tb1127 2.413 . S
O1171 C1191 1.256 . S
C1172 O1161 1.283 . S
C1172 O1164 1.243 . S
C1173 C1175 1.382 . S
C1173 C1177 1.393 . S
C1173 C1180 1.500 . S
C1174 C1175 1.400 . S
C1174 C1176 1.384 . S
C1175 C1173 1.382 . S
C1175 C1174 1.400 . S
C1175 H1192 0.930 . S
C1176 C1174 1.384 . S
C1176 C1178 1.392 . S
C1176 H1193 0.931 . S
C1177 C1173 1.393 . S
C1177 C1178 1.401 . S
C1177 H1194 0.930 . S
C1178 C1176 1.392 . S
C1178 C1177 1.401 . S
C1178 H1195 0.930 . S
C1179 O1162 1.262 . S
C1179 O1163 1.260 . S
C1180 Tb1116 2.833 . S
C1180 O1160 1.251 . S
C1180 O1165 1.256 . S
C1180 C1173 1.500 . S
C1181 H1146 0.929 . S
C1181 C1159 1.444 . S
C1181 C1182 1.317 . S
C1182 H1144 0.930 . S
C1182 C1150 1.432 . S
C1182 C1181 1.317 . S
C1183 O1167 1.283 . S
C1183 O1170 1.243 . S
C1184 C1185 1.382 . S
C1184 C1188 1.393 . S
C1184 C1191 1.500 . S
C1185 C1184 1.382 . S
C1185 C1186 1.400 . S
C1185 H1196 0.930 . S
C1186 C1185 1.400 . S
C1186 C1187 1.384 . S
C1187 C1186 1.384 . S
C1187 C1189 1.392 . S
C1187 H1197 0.931 . S
C1188 C1184 1.393 . S
C1188 C1189 1.401 . S
C1188 H1198 0.930 . S
C1189 C1187 1.392 . S
C1189 C1188 1.401 . S
C1189 H1199 0.930 . S
C1190 O1168 1.262 . S
C1190 O1169 1.260 . S
C1191 Tb1127 2.833 . S
C1191 O1166 1.251 . S
C1191 O1171 1.256 . S
C1191 C1184 1.500 . S
H1192 C1175 0.930 . S
H1193 C1176 0.931 . S
H1194 C1177 0.930 . S
H1195 C1178 0.930 . S
H1196 C1185 0.930 . S
H1197 C1187 0.931 . S
H1198 C1188 0.930 . S
H1199 C1189 0.930 . S
Tb1200 N1231 2.660 . S
Tb1200 N1238 2.600 . S
Tb1200 O1244 2.546 . S
Tb1200 O1245 2.610 . S
Tb1200 O1247 2.320 . S
Tb1200 O1248 2.552 . S
Tb1200 O1249 2.413 . S
Tb1200 O1251 2.362 . S
Tb1200 O1252 2.421 . S
Tb1200 C1264 2.833 . S
C1201 C1204 1.432 . S
C1201 C1205 1.414 . S
C1201 N1208 1.373 . S
C1202 C1204 1.417 . S
C1202 C1206 1.432 . S
C1202 C1214 1.410 . S
C1203 C1205 1.444 . S
C1203 C1206 1.317 . S
C1203 H1226 0.929 . S
C1204 C1201 1.432 . S
C1204 C1202 1.417 . S
C1204 N1212 1.360 . S
C1205 C1201 1.414 . S
C1205 C1203 1.444 . S
C1205 C1210 1.385 . S
C1206 C1202 1.432 . S
C1206 C1203 1.317 . S
C1206 H1218 0.930 . S
C1207 C1209 1.392 1_565 S
C1207 C1210 1.370 . S
C1207 H1219 0.931 . S
N1208 C1201 1.373 . S
N1208 C1209 1.335 1_565 S
N1208 Tb1211 2.587 1_565 S
C1209 C1207 1.392 1_545 S
C1209 N1208 1.335 1_545 S
C1209 H1216 0.930 . S
C1210 C1205 1.385 . S
C1210 C1207 1.370 . S
C1210 H1229 0.930 . S
Tb1211 N1208 2.587 1_545 S
Tb1211 N1212 2.660 1_545 S
Tb1211 O1245 2.362 . S
Tb1211 O1246 2.421 . S
Tb1211 O1250 2.546 1_545 S
Tb1211 O1251 2.610 . S
Tb1211 O1253 2.320 . S
Tb1211 O1254 2.552 . S
Tb1211 O1255 2.413 1_545 S
Tb1211 C1275 2.833 1_545 S
N1212 C1204 1.360 . S
N1212 Tb1211 2.660 1_565 S
N1212 C1213 1.305 . S
C1213 N1212 1.305 . S
C1213 C1215 1.407 . S
C1213 H1220 0.930 . S
C1214 C1202 1.410 . S
C1214 C1215 1.345 . S
C1214 H1222 0.930 . S
C1215 C1213 1.407 . S
C1215 C1214 1.345 . S
C1215 H1217 0.930 1_455 S
H1216 C1209 0.930 . S
H1217 C1215 0.930 1_655 S
H1218 C1206 0.930 . S
H1219 C1207 0.931 . S
H1220 C1213 0.930 . S
H1221 C1235 0.930 . S
H1222 C1214 0.930 . S
H1223 C1241 0.930 . S
H1224 C1232 0.930 . S
H1225 C1239 0.929 . S
H1226 C1203 0.929 . S
H1227 C1233 0.930 . S
H1228 C1266 0.930 . S
H1229 C1210 0.930 . S
H1230 C1265 0.929 . S
N1231 Tb1200 2.660 . S
N1231 C1232 1.305 . S
N1231 C1236 1.360 . S
C1232 H1224 0.930 . S
C1232 N1231 1.305 . S
C1232 C1235 1.407 . S
C1233 H1227 0.930 . S
C1233 C1234 1.410 . S
C1233 C1235 1.345 . S
C1234 C1233 1.410 . S
C1234 C1236 1.417 . S
C1234 C1266 1.432 . S
C1235 H1221 0.930 . S
C1235 C1232 1.407 . S
C1235 C1233 1.345 . S
C1236 N1231 1.360 . S
C1236 C1234 1.417 . S
C1236 C1240 1.432 . S
H1237 C1242 0.930 . S
N1238 Tb1200 2.600 . S
N1238 C1240 1.359 . S
N1238 C1241 1.327 . S
C1239 H1225 0.929 . S
C1239 C1241 1.393 1_655 S
C1239 C1242 1.370 1_655 S
C1240 C1236 1.432 . S
C1240 N1238 1.359 . S
C1240 C1243 1.414 . S
C1241 H1223 0.930 . S
C1241 N1238 1.327 . S
C1241 C1239 1.393 1_455 S
C1242 H1237 0.930 . S
C1242 C1239 1.370 1_455 S
C1242 C1243 1.385 . S
C1243 C1240 1.414 . S
C1243 C1242 1.385 . S
C1243 C1265 1.444 . S
O1244 Tb1200 2.546 . S
O1244 C1264 1.251 . S
O1245 Tb1200 2.610 . S
O1245 Tb1211 2.362 . S
O1245 C1256 1.283 . S
O1246 Tb1211 2.421 . S
O1246 C1263 1.262 . S
O1247 Tb1200 2.320 . S
O1247 C1263 1.260 . S
O1248 Tb1200 2.552 . S
O1248 C1256 1.243 . S
O1249 Tb1200 2.413 . S
O1249 C1264 1.256 . S
O1250 Tb1211 2.546 1_565 S
O1250 C1275 1.251 . S
O1251 Tb1200 2.362 . S
O1251 Tb1211 2.610 . S
O1251 C1267 1.283 . S
O1252 Tb1200 2.421 . S
O1252 C1274 1.262 . S
O1253 Tb1211 2.320 . S
O1253 C1274 1.260 . S
O1254 Tb1211 2.552 . S
O1254 C1267 1.243 . S
O1255 Tb1211 2.413 1_565 S
O1255 C1275 1.256 . S
C1256 O1245 1.283 . S
C1256 O1248 1.243 . S
C1257 C1259 1.382 . S
C1257 C1261 1.393 . S
C1257 C1264 1.500 . S
C1258 C1259 1.400 . S
C1258 C1260 1.384 . S
C1259 C1257 1.382 . S
C1259 C1258 1.400 . S
C1259 H1276 0.930 . S
C1260 C1258 1.384 . S
C1260 C1262 1.392 . S
C1260 H1277 0.931 . S
C1261 C1257 1.393 . S
C1261 C1262 1.401 . S
C1261 H1278 0.930 . S
C1262 C1260 1.392 . S
C1262 C1261 1.401 . S
C1262 H1279 0.930 . S
C1263 O1246 1.262 . S
C1263 O1247 1.260 . S
C1264 Tb1200 2.833 . S
C1264 O1244 1.251 . S
C1264 O1249 1.256 . S
C1264 C1257 1.500 . S
C1265 H1230 0.929 . S
C1265 C1243 1.444 . S
C1265 C1266 1.317 . S
C1266 H1228 0.930 . S
C1266 C1234 1.432 . S
C1266 C1265 1.317 . S
C1267 O1251 1.283 . S
C1267 O1254 1.243 . S
C1268 C1269 1.382 . S
C1268 C1272 1.393 . S
C1268 C1275 1.500 . S
C1269 C1268 1.382 . S
C1269 C1270 1.400 . S
C1269 H1280 0.930 . S
C1270 C1269 1.400 . S
C1270 C1271 1.384 . S
C1271 C1270 1.384 . S
C1271 C1273 1.392 . S
C1271 H1281 0.931 . S
C1272 C1268 1.393 . S
C1272 C1273 1.401 . S
C1272 H1282 0.930 . S
C1273 C1271 1.392 . S
C1273 C1272 1.401 . S
C1273 H1283 0.930 . S
C1274 O1252 1.262 . S
C1274 O1253 1.260 . S
C1275 Tb1211 2.833 1_565 S
C1275 O1250 1.251 . S
C1275 O1255 1.256 . S
C1275 C1268 1.500 . S
H1276 C1259 0.930 . S
H1277 C1260 0.931 . S
H1278 C1261 0.930 . S
H1279 C1262 0.930 . S
H1280 C1269 0.930 . S
H1281 C1271 0.931 . S
H1282 C1272 0.930 . S
H1283 C1273 0.930 . S
Tb1284 N1315 2.660 . S
Tb1284 N1322 2.600 . S
Tb1284 O1328 2.546 . S
Tb1284 O1329 2.610 . S
Tb1284 O1331 2.320 . S
Tb1284 O1332 2.552 . S
Tb1284 O1333 2.413 . S
Tb1284 O1335 2.362 . S
Tb1284 O1336 2.421 . S
Tb1284 C1348 2.833 . S
C1285 C1288 1.432 . S
C1285 C1289 1.414 . S
C1285 N1292 1.359 . S
C1286 C1288 1.417 . S
C1286 C1290 1.432 . S
C1286 C1298 1.410 . S
C1287 C1289 1.444 . S
C1287 C1290 1.317 . S
C1287 H1310 0.929 . S
C1288 C1285 1.432 . S
C1288 C1286 1.417 . S
C1288 N1296 1.360 . S
C1289 C1285 1.414 . S
C1289 C1287 1.444 . S
C1289 C1294 1.385 . S
C1290 C1286 1.432 . S
C1290 C1287 1.317 . S
C1290 H1302 0.930 . S
C1291 C1293 1.392 . S
C1291 C1294 1.370 . S
C1291 H1303 0.931 . S
N1292 C1285 1.359 . S
N1292 C1293 1.327 . S
N1292 Tb1295 2.600 . S
C1293 C1291 1.392 . S
C1293 N1292 1.327 . S
C1293 H1300 0.930 . S
C1294 C1289 1.385 . S
C1294 C1291 1.370 . S
C1294 H1313 0.930 . S
Tb1295 N1292 2.600 . S
Tb1295 N1296 2.660 . S
Tb1295 O1329 2.362 . S
Tb1295 O1330 2.421 . S
Tb1295 O1334 2.546 . S
Tb1295 O1335 2.610 . S
Tb1295 O1337 2.320 . S
Tb1295 O1338 2.552 . S
Tb1295 O1339 2.413 . S
Tb1295 C1359 2.833 . S
N1296 C1288 1.360 . S
N1296 Tb1295 2.660 . S
N1296 C1297 1.305 . S
C1297 N1296 1.305 . S
C1297 C1299 1.407 . S
C1297 H1304 0.930 . S
C1298 C1286 1.410 . S
C1298 C1299 1.345 . S
C1298 H1306 0.930 . S
C1299 C1297 1.407 . S
C1299 C1298 1.345 . S
C1299 H1301 0.930 . S
H1300 C1293 0.930 . S
H1301 C1299 0.930 . S
H1302 C1290 0.930 . S
H1303 C1291 0.931 . S
H1304 C1297 0.930 . S
H1305 C1319 0.930 . S
H1306 C1298 0.930 . S
H1307 C1325 0.930 . S
H1308 C1316 0.930 . S
H1309 C1323 0.931 . S
H1310 C1287 0.929 . S
H1311 C1317 0.930 . S
H1312 C1350 0.930 . S
H1313 C1294 0.930 . S
H1314 C1349 0.929 . S
N1315 Tb1284 2.660 . S
N1315 C1316 1.305 . S
N1315 C1320 1.360 . S
C1316 H1308 0.930 . S
C1316 N1315 1.305 . S
C1316 C1319 1.407 . S
C1317 H1311 0.930 . S
C1317 C1318 1.410 . S
C1317 C1319 1.345 . S
C1318 C1317 1.410 . S
C1318 C1320 1.417 . S
C1318 C1350 1.432 . S
C1319 H1305 0.930 . S
C1319 C1316 1.407 . S
C1319 C1317 1.345 . S
C1320 N1315 1.360 . S
C1320 C1318 1.417 . S
C1320 C1324 1.432 . S
H1321 C1326 0.930 . S
N1322 Tb1284 2.600 . S
N1322 C1324 1.359 . S
N1322 C1325 1.327 . S
C1323 H1309 0.931 . S
C1323 C1325 1.392 . S
C1323 C1326 1.370 . S
C1324 C1320 1.432 . S
C1324 N1322 1.359 . S
C1324 C1327 1.414 . S
C1325 H1307 0.930 . S
C1325 N1322 1.327 . S
C1325 C1323 1.392 . S
C1326 H1321 0.930 . S
C1326 C1323 1.370 . S
C1326 C1327 1.385 . S
C1327 C1324 1.414 . S
C1327 C1326 1.385 . S
C1327 C1349 1.444 . S
O1328 Tb1284 2.546 . S
O1328 C1348 1.251 . S
O1329 Tb1284 2.610 . S
O1329 Tb1295 2.362 . S
O1329 C1340 1.283 . S
O1330 Tb1295 2.421 . S
O1330 C1347 1.262 . S
O1331 Tb1284 2.320 . S
O1331 C1347 1.260 . S
O1332 Tb1284 2.552 . S
O1332 C1340 1.243 . S
O1333 Tb1284 2.413 . S
O1333 C1348 1.256 . S
O1334 Tb1295 2.546 . S
O1334 C1359 1.251 . S
O1335 Tb1284 2.362 . S
O1335 Tb1295 2.610 . S
O1335 C1351 1.283 . S
O1336 Tb1284 2.421 . S
O1336 C1358 1.262 . S
O1337 Tb1295 2.320 . S
O1337 C1358 1.260 . S
O1338 Tb1295 2.552 . S
O1338 C1351 1.243 . S
O1339 Tb1295 2.413 . S
O1339 C1359 1.256 . S
C1340 O1329 1.283 . S
C1340 O1332 1.243 . S
C1341 C1343 1.382 . S
C1341 C1345 1.393 . S
C1341 C1348 1.500 . S
C1342 C1343 1.400 . S
C1342 C1344 1.384 . S
C1343 C1341 1.382 . S
C1343 C1342 1.400 . S
C1343 H1360 0.930 . S
C1344 C1342 1.384 . S
C1344 C1346 1.392 . S
C1344 H1361 0.931 . S
C1345 C1341 1.393 . S
C1345 C1346 1.401 . S
C1345 H1362 0.930 . S
C1346 C1344 1.392 . S
C1346 C1345 1.401 . S
C1346 H1363 0.930 . S
C1347 O1330 1.262 . S
C1347 O1331 1.260 . S
C1348 Tb1284 2.833 . S
C1348 O1328 1.251 . S
C1348 O1333 1.256 . S
C1348 C1341 1.500 . S
C1349 H1314 0.929 . S
C1349 C1327 1.444 . S
C1349 C1350 1.317 . S
C1350 H1312 0.930 . S
C1350 C1318 1.432 . S
C1350 C1349 1.317 . S
C1351 O1335 1.283 . S
C1351 O1338 1.243 . S
C1352 C1353 1.382 . S
C1352 C1356 1.393 . S
C1352 C1359 1.500 . S
C1353 C1352 1.382 . S
C1353 C1354 1.400 . S
C1353 H1364 0.930 . S
C1354 C1353 1.400 . S
C1354 C1355 1.384 . S
C1355 C1354 1.384 . S
C1355 C1357 1.392 . S
C1355 H1365 0.931 . S
C1356 C1352 1.393 . S
C1356 C1357 1.401 . S
C1356 H1366 0.930 . S
C1357 C1355 1.392 . S
C1357 C1356 1.401 . S
C1357 H1367 0.930 . S
C1358 O1336 1.262 . S
C1358 O1337 1.260 . S
C1359 Tb1295 2.833 . S
C1359 O1334 1.251 . S
C1359 O1339 1.256 . S
C1359 C1352 1.500 . S
H1360 C1343 0.930 . S
H1361 C1344 0.931 . S
H1362 C1345 0.930 . S
H1363 C1346 0.930 . S
H1364 C1353 0.930 . S
H1365 C1355 0.931 . S
H1366 C1356 0.930 . S
H1367 C1357 0.930 . S
Tb1368 N1399 2.660 . S
Tb1368 N1406 2.600 . S
Tb1368 O1412 2.546 . S
Tb1368 O1413 2.610 . S
Tb1368 O1415 2.320 . S
Tb1368 O1416 2.552 . S
Tb1368 O1417 2.413 . S
Tb1368 O1419 2.362 . S
Tb1368 O1420 2.421 . S
Tb1368 C1432 2.833 . S
C1369 C1372 1.432 . S
C1369 C1373 1.414 . S
C1369 N1376 1.359 . S
C1370 C1372 1.417 . S
C1370 C1374 1.432 . S
C1370 C1382 1.378 1_545 S
C1371 C1373 1.444 . S
C1371 C1374 1.317 . S
C1371 H1394 0.929 . S
C1372 C1369 1.432 . S
C1372 C1370 1.417 . S
C1372 N1380 1.360 . S
C1373 C1369 1.414 . S
C1373 C1371 1.444 . S
C1373 C1378 1.385 . S
C1374 C1370 1.432 . S
C1374 C1371 1.317 . S
C1374 H1386 0.930 . S
C1375 C1377 1.392 . S
C1375 C1378 1.370 . S
C1375 H1387 0.931 . S
N1376 C1369 1.359 . S
N1376 C1377 1.327 . S
N1376 Tb1379 2.600 . S
C1377 C1375 1.392 . S
C1377 N1376 1.327 . S
C1377 H1384 0.930 . S
C1378 C1373 1.385 . S
C1378 C1375 1.370 . S
C1378 H1397 0.930 . S
Tb1379 N1376 2.600 . S
Tb1379 N1380 2.660 . S
Tb1379 O1413 2.362 1_556 S
Tb1379 O1414 2.421 1_556 S
Tb1379 O1418 2.546 . S
Tb1379 O1419 2.610 1_556 S
Tb1379 O1421 2.320 . S
Tb1379 O1422 2.554 . S
Tb1379 O1423 2.413 . S
Tb1379 C1443 2.833 . S
N1380 C1372 1.360 . S
N1380 Tb1379 2.660 . S
N1380 C1381 1.305 . S
C1381 N1380 1.305 . S
C1381 C1383 1.407 1_545 S
C1381 H1388 0.930 . S
C1382 C1370 1.378 1_565 S
C1382 C1383 1.365 . S
C1382 H1390 0.943 . S
C1383 C1381 1.407 1_565 S
C1383 C1382 1.365 . S
C1383 H1385 0.930 . S
H1384 C1377 0.930 . S
H1385 C1383 0.930 . S
H1386 C1374 0.930 . S
H1387 C1375 0.931 . S
H1388 C1381 0.930 . S
H1389 C1403 0.930 . S
H1390 C1382 0.943 . S
H1391 C1409 0.946 . S
H1392 C1400 0.930 . S
H1393 C1407 0.931 . S
H1394 C1371 0.929 . S
H1395 C1401 0.930 . S
H1396 C1434 0.930 . S
H1397 C1378 0.930 . S
H1398 C1433 0.929 . S
N1399 Tb1368 2.660 . S
N1399 C1400 1.305 . S
N1399 C1404 1.360 . S
C1400 H1392 0.930 . S
C1400 N1399 1.305 . S
C1400 C1403 1.407 . S
C1401 H1395 0.930 . S
C1401 C1402 1.410 . S
C1401 C1403 1.345 . S
C1402 C1401 1.410 . S
C1402 C1404 1.417 . S
C1402 C1434 1.432 . S
C1403 H1389 0.930 . S
C1403 C1400 1.407 . S
C1403 C1401 1.345 . S
C1404 N1399 1.360 . S
C1404 C1402 1.417 . S
C1404 C1408 1.432 . S
H1405 C1410 0.930 1_565 S
N1406 Tb1368 2.600 . S
N1406 C1408 1.359 . S
N1406 C1409 1.279 1_545 S
C1407 H1393 0.931 . S
C1407 C1409 1.427 . S
C1407 C1410 1.370 1_565 S
C1408 C1404 1.432 . S
C1408 N1406 1.359 . S
C1408 C1411 1.414 . S
C1409 H1391 0.946 . S
C1409 N1406 1.279 1_565 S
C1409 C1407 1.427 . S
C1410 H1405 0.930 1_545 S
C1410 C1407 1.370 1_545 S
C1410 C1411 1.385 . S
C1411 C1408 1.414 . S
C1411 C1410 1.385 . S
C1411 C1433 1.444 . S
O1412 Tb1368 2.546 . S
O1412 C1432 1.251 . S
O1413 Tb1368 2.610 . S
O1413 Tb1379 2.362 1_554 S
O1413 C1424 1.283 . S
O1414 Tb1379 2.421 1_554 S
O1414 C1431 1.262 . S
O1415 Tb1368 2.320 . S
O1415 C1431 1.260 . S
O1416 Tb1368 2.552 . S
O1416 C1424 1.243 . S
O1417 Tb1368 2.413 . S
O1417 C1432 1.256 . S
O1418 Tb1379 2.546 . S
O1418 C1443 1.251 . S
O1419 Tb1368 2.362 . S
O1419 Tb1379 2.610 1_554 S
O1419 C1435 1.283 . S
O1420 Tb1368 2.421 . S
O1420 C1442 1.327 . S
O1421 Tb1379 2.320 . S
O1421 C1442 1.218 1_556 S
O1422 Tb1379 2.554 . S
O1422 C1435 1.202 1_556 S
O1423 Tb1379 2.413 . S
O1423 C1443 1.256 . S
C1424 O1413 1.283 . S
C1424 O1416 1.243 . S
C1425 C1427 1.382 . S
C1425 C1429 1.393 . S
C1425 C1432 1.500 . S
C1426 C1427 1.400 . S
C1426 C1428 1.384 . S
C1427 C1425 1.382 . S
C1427 C1426 1.400 . S
C1427 H1444 0.930 . S
C1428 C1426 1.384 . S
C1428 C1430 1.392 1_545 S
C1428 H1445 0.931 . S
C1429 C1425 1.393 . S
C1429 C1430 1.401 1_545 S
C1429 H1446 0.930 1_545 S
C1430 C1428 1.392 1_565 S
C1430 C1429 1.401 1_565 S
C1430 H1447 0.930 . S
C1431 O1414 1.262 . S
C1431 O1415 1.260 . S
C1432 Tb1368 2.833 . S
C1432 O1412 1.251 . S
C1432 O1417 1.256 . S
C1432 C1425 1.500 . S
C1433 H1398 0.929 . S
C1433 C1411 1.444 . S
C1433 C1434 1.317 . S
C1434 H1396 0.930 . S
C1434 C1402 1.432 . S
C1434 C1433 1.317 . S
C1435 O1419 1.283 . S
C1435 O1422 1.202 1_554 S
C1436 C1437 1.382 . S
C1436 C1440 1.393 . S
C1436 C1443 1.500 . S
C1437 C1436 1.382 . S
C1437 C1438 1.400 . S
C1437 H1448 0.930 . S
C1438 C1437 1.400 . S
C1438 C1439 1.384 . S
C1439 C1438 1.384 . S
C1439 C1441 1.392 . S
C1439 H1449 0.931 . S
C1440 C1436 1.393 . S
C1440 C1441 1.401 . S
C1440 H1450 0.930 . S
C1441 C1439 1.392 . S
C1441 C1440 1.401 . S
C1441 H1451 0.930 . S
C1442 O1420 1.327 . S
C1442 O1421 1.218 1_554 S
C1443 Tb1379 2.833 . S
C1443 O1418 1.251 . S
C1443 O1423 1.256 . S
C1443 C1436 1.500 . S
H1444 C1427 0.930 . S
H1445 C1428 0.931 . S
H1446 C1429 0.930 1_565 S
H1447 C1430 0.930 . S
H1448 C1437 0.930 . S
H1449 C1439 0.931 . S
H1450 C1440 0.930 . S
H1451 C1441 0.930 . S
Tb1452 N1483 2.660 . S
Tb1452 N1490 2.600 . S
Tb1452 O1496 2.546 . S
Tb1452 O1497 2.610 . S
Tb1452 O1499 2.320 . S
Tb1452 O1500 2.552 . S
Tb1452 O1501 2.413 . S
Tb1452 O1503 2.362 . S
Tb1452 O1504 2.421 . S
Tb1452 C1516 2.833 . S
C1453 C1456 1.432 . S
C1453 C1457 1.414 . S
C1453 N1460 1.359 . S
C1454 C1456 1.417 . S
C1454 C1458 1.432 . S
C1454 C1466 1.410 . S
C1455 C1457 1.444 . S
C1455 C1458 1.317 . S
C1455 H1478 0.929 . S
C1456 C1453 1.432 . S
C1456 C1454 1.417 . S
C1456 N1464 1.360 . S
C1457 C1453 1.414 . S
C1457 C1455 1.444 . S
C1457 C1462 1.385 . S
C1458 C1454 1.432 . S
C1458 C1455 1.317 . S
C1458 H1470 0.930 . S
C1459 C1461 1.392 . S
C1459 C1462 1.370 . S
C1459 H1471 0.931 . S
N1460 C1453 1.359 . S
N1460 C1461 1.327 . S
N1460 Tb1463 2.600 . S
C1461 C1459 1.392 . S
C1461 N1460 1.327 . S
C1461 H1468 0.930 . S
C1462 C1457 1.385 . S
C1462 C1459 1.370 . S
C1462 H1481 0.930 . S
Tb1463 N1460 2.600 . S
Tb1463 N1464 2.660 . S
Tb1463 O1497 2.362 . S
Tb1463 O1498 2.421 . S
Tb1463 O1502 2.546 . S
Tb1463 O1503 2.610 . S
Tb1463 O1505 2.320 . S
Tb1463 O1506 2.552 . S
Tb1463 O1507 2.413 . S
Tb1463 C1527 2.833 . S
N1464 C1456 1.360 . S
N1464 Tb1463 2.660 . S
N1464 C1465 1.305 . S
C1465 N1464 1.305 . S
C1465 C1467 1.407 . S
C1465 H1472 0.930 . S
C1466 C1454 1.410 . S
C1466 C1467 1.345 . S
C1466 H1474 0.930 . S
C1467 C1465 1.407 . S
C1467 C1466 1.345 . S
C1467 H1469 0.930 . S
H1468 C1461 0.930 . S
H1469 C1467 0.930 . S
H1470 C1458 0.930 . S
H1471 C1459 0.931 . S
H1472 C1465 0.930 . S
H1473 C1487 0.930 . S
H1474 C1466 0.930 . S
H1475 C1493 0.930 . S
H1476 C1484 0.930 . S
H1477 C1491 0.931 . S
H1478 C1455 0.929 . S
H1479 C1485 0.930 . S
H1480 C1518 0.930 . S
H1481 C1462 0.930 . S
H1482 C1517 0.929 . S
N1483 Tb1452 2.660 . S
N1483 C1484 1.305 . S
N1483 C1488 1.360 . S
C1484 H1476 0.930 . S
C1484 N1483 1.305 . S
C1484 C1487 1.407 . S
C1485 H1479 0.930 . S
C1485 C1486 1.410 . S
C1485 C1487 1.345 . S
C1486 C1485 1.410 . S
C1486 C1488 1.417 . S
C1486 C1518 1.432 . S
C1487 H1473 0.930 . S
C1487 C1484 1.407 . S
C1487 C1485 1.345 . S
C1488 N1483 1.360 . S
C1488 C1486 1.417 . S
C1488 C1492 1.432 . S
H1489 C1494 0.930 . S
N1490 Tb1452 2.600 . S
N1490 C1492 1.359 . S
N1490 C1493 1.327 . S
C1491 H1477 0.931 . S
C1491 C1493 1.392 . S
C1491 C1494 1.370 . S
C1492 C1488 1.432 . S
C1492 N1490 1.359 . S
C1492 C1495 1.414 . S
C1493 H1475 0.930 . S
C1493 N1490 1.327 . S
C1493 C1491 1.392 . S
C1494 H1489 0.930 . S
C1494 C1491 1.370 . S
C1494 C1495 1.385 . S
C1495 C1492 1.414 . S
C1495 C1494 1.385 . S
C1495 C1517 1.444 . S
O1496 Tb1452 2.546 . S
O1496 C1516 1.251 . S
O1497 Tb1452 2.610 . S
O1497 Tb1463 2.362 . S
O1497 C1508 1.283 . S
O1498 Tb1463 2.421 . S
O1498 C1515 1.262 . S
O1499 Tb1452 2.320 . S
O1499 C1515 1.260 . S
O1500 Tb1452 2.552 . S
O1500 C1508 1.243 . S
O1501 Tb1452 2.413 . S
O1501 C1516 1.256 . S
O1502 Tb1463 2.546 . S
O1502 C1527 1.251 . S
O1503 Tb1452 2.362 . S
O1503 Tb1463 2.610 . S
O1503 C1519 1.283 . S
O1504 Tb1452 2.421 . S
O1504 C1526 1.262 . S
O1505 Tb1463 2.320 . S
O1505 C1526 1.260 . S
O1506 Tb1463 2.552 . S
O1506 C1519 1.243 . S
O1507 Tb1463 2.413 . S
O1507 C1527 1.256 . S
C1508 O1497 1.283 . S
C1508 O1500 1.243 . S
C1509 C1511 1.382 . S
C1509 C1513 1.393 . S
C1509 C1516 1.500 . S
C1510 C1511 1.400 . S
C1510 C1512 1.384 . S
C1511 C1509 1.382 . S
C1511 C1510 1.400 . S
C1511 H1528 0.930 . S
C1512 C1510 1.384 . S
C1512 C1514 1.392 . S
C1512 H1529 0.931 . S
C1513 C1509 1.393 . S
C1513 C1514 1.401 . S
C1513 H1530 0.930 . S
C1514 C1512 1.392 . S
C1514 C1513 1.401 . S
C1514 H1531 0.930 . S
C1515 O1498 1.262 . S
C1515 O1499 1.260 . S
C1516 Tb1452 2.833 . S
C1516 O1496 1.251 . S
C1516 O1501 1.256 . S
C1516 C1509 1.500 . S
C1517 H1482 0.929 . S
C1517 C1495 1.444 . S
C1517 C1518 1.317 . S
C1518 H1480 0.930 . S
C1518 C1486 1.432 . S
C1518 C1517 1.317 . S
C1519 O1503 1.283 . S
C1519 O1506 1.243 . S
C1520 C1521 1.382 . S
C1520 C1524 1.393 . S
C1520 C1527 1.500 . S
C1521 C1520 1.382 . S
C1521 C1522 1.400 . S
C1521 H1532 0.930 . S
C1522 C1521 1.400 . S
C1522 C1523 1.384 . S
C1523 C1522 1.384 . S
C1523 C1525 1.392 . S
C1523 H1533 0.931 . S
C1524 C1520 1.393 . S
C1524 C1525 1.401 . S
C1524 H1534 0.930 . S
C1525 C1523 1.392 . S
C1525 C1524 1.401 . S
C1525 H1535 0.930 . S
C1526 O1504 1.262 . S
C1526 O1505 1.260 . S
C1527 Tb1463 2.833 . S
C1527 O1502 1.251 . S
C1527 O1507 1.256 . S
C1527 C1520 1.500 . S
H1528 C1511 0.930 . S
H1529 C1512 0.931 . S
H1530 C1513 0.930 . S
H1531 C1514 0.930 . S
H1532 C1521 0.930 . S
H1533 C1523 0.931 . S
H1534 C1524 0.930 . S
H1535 C1525 0.930 . S
Tb1536 N1567 2.660 . S
Tb1536 N1574 2.600 . S
Tb1536 O1580 2.546 . S
Tb1536 O1581 2.610 1_554 S
Tb1536 O1583 2.320 . S
Tb1536 O1584 2.552 1_554 S
Tb1536 O1585 2.413 . S
Tb1536 O1587 2.362 . S
Tb1536 O1588 2.421 . S
Tb1536 C1600 2.833 . S
C1537 C1540 1.432 . S
C1537 C1541 1.414 . S
C1537 N1544 1.359 . S
C1538 C1540 1.417 . S
C1538 C1542 1.432 . S
C1538 C1550 1.410 . S
C1539 C1541 1.444 . S
C1539 C1542 1.317 . S
C1539 H1562 0.929 . S
C1540 C1537 1.432 . S
C1540 C1538 1.417 . S
C1540 N1548 1.360 . S
C1541 C1537 1.414 . S
C1541 C1539 1.444 . S
C1541 C1546 1.385 . S
C1542 C1538 1.432 . S
C1542 C1539 1.317 . S
C1542 H1554 0.930 . S
C1543 C1545 1.392 . S
C1543 C1546 1.370 . S
C1543 H1555 0.931 . S
N1544 C1537 1.359 . S
N1544 C1545 1.327 . S
N1544 Tb1547 2.600 1_556 S
C1545 C1543 1.392 . S
C1545 N1544 1.327 . S
C1545 H1552 0.930 . S
C1546 C1541 1.385 . S
C1546 C1543 1.370 . S
C1546 H1565 0.930 . S
Tb1547 N1544 2.600 1_554 S
Tb1547 N1548 2.660 1_554 S
Tb1547 O1581 2.362 1_554 S
Tb1547 O1582 2.421 . S
Tb1547 O1586 2.546 . S
Tb1547 O1587 2.610 . S
Tb1547 O1589 2.320 . S
Tb1547 O1590 2.552 . S
Tb1547 O1591 2.413 . S
Tb1547 C1611 2.833 . S
N1548 C1540 1.360 . S
N1548 Tb1547 2.660 1_556 S
N1548 C1549 1.305 . S
C1549 N1548 1.305 . S
C1549 C1551 1.407 . S
C1549 H1556 0.930 . S
C1550 C1538 1.410 . S
C1550 C1551 1.345 . S
C1550 H1558 0.930 . S
C1551 C1549 1.407 . S
C1551 C1550 1.345 . S
C1551 H1553 0.930 . S
H1552 C1545 0.930 . S
H1553 C1551 0.930 . S
H1554 C1542 0.930 . S
H1555 C1543 0.931 . S
H1556 C1549 0.930 . S
H1557 C1571 0.930 . S
H1558 C1550 0.930 . S
H1559 C1577 0.930 . S
H1560 C1568 0.930 . S
H1561 C1575 0.931 . S
H1562 C1539 0.929 . S
H1563 C1569 0.930 . S
H1564 C1602 0.930 . S
H1565 C1546 0.930 . S
H1566 C1601 0.929 . S
N1567 Tb1536 2.660 . S
N1567 C1568 1.305 . S
N1567 C1572 1.360 . S
C1568 H1560 0.930 . S
C1568 N1567 1.305 . S
C1568 C1571 1.407 . S
C1569 H1563 0.930 . S
C1569 C1570 1.410 . S
C1569 C1571 1.345 . S
C1570 C1569 1.410 . S
C1570 C1572 1.417 . S
C1570 C1602 1.432 . S
C1571 H1557 0.930 . S
C1571 C1568 1.407 . S
C1571 C1569 1.345 . S
C1572 N1567 1.360 . S
C1572 C1570 1.417 . S
C1572 C1576 1.432 . S
H1573 C1578 0.930 . S
N1574 Tb1536 2.600 . S
N1574 C1576 1.359 . S
N1574 C1577 1.327 . S
C1575 H1561 0.931 . S
C1575 C1577 1.392 . S
C1575 C1578 1.370 . S
C1576 C1572 1.432 . S
C1576 N1574 1.359 . S
C1576 C1579 1.414 . S
C1577 H1559 0.930 . S
C1577 N1574 1.327 . S
C1577 C1575 1.392 . S
C1578 H1573 0.930 . S
C1578 C1575 1.370 . S
C1578 C1579 1.385 . S
C1579 C1576 1.414 . S
C1579 C1578 1.385 . S
C1579 C1601 1.444 . S
O1580 Tb1536 2.546 . S
O1580 C1600 1.251 . S
O1581 Tb1536 2.610 1_556 S
O1581 Tb1547 2.362 1_556 S
O1581 C1592 1.283 . S
O1582 Tb1547 2.421 . S
O1582 C1599 1.262 . S
O1583 Tb1536 2.320 . S
O1583 C1599 1.260 . S
O1584 Tb1536 2.552 1_556 S
O1584 C1592 1.243 . S
O1585 Tb1536 2.413 . S
O1585 C1600 1.256 . S
O1586 Tb1547 2.546 . S
O1586 C1611 1.251 . S
O1587 Tb1536 2.362 . S
O1587 Tb1547 2.610 . S
O1587 C1603 1.283 . S
O1588 Tb1536 2.421 . S
O1588 C1610 1.262 . S
O1589 Tb1547 2.320 . S
O1589 C1610 1.260 . S
O1590 Tb1547 2.552 . S
O1590 C1603 1.243 . S
O1591 Tb1547 2.413 . S
O1591 C1611 1.256 . S
C1592 O1581 1.283 . S
C1592 O1584 1.243 . S
C1593 C1595 1.382 . S
C1593 C1597 1.393 . S
C1593 C1600 1.500 . S
C1594 C1595 1.400 1_556 S
C1594 C1596 1.384 1_556 S
C1595 C1593 1.382 . S
C1595 C1594 1.400 1_554 S
C1595 H1612 0.930 1_554 S
C1596 C1594 1.384 1_554 S
C1596 C1598 1.392 . S
C1596 H1613 0.911 1_554 S
C1597 C1593 1.393 . S
C1597 C1598 1.401 . S
C1597 H1614 0.930 . S
C1598 C1596 1.392 . S
C1598 C1597 1.401 . S
C1598 H1615 0.930 . S
C1599 O1582 1.262 . S
C1599 O1583 1.260 . S
C1600 Tb1536 2.833 . S
C1600 O1580 1.251 . S
C1600 O1585 1.256 . S
C1600 C1593 1.500 . S
C1601 H1566 0.929 . S
C1601 C1579 1.444 . S
C1601 C1602 1.317 . S
C1602 H1564 0.930 . S
C1602 C1570 1.432 . S
C1602 C1601 1.317 . S
C1603 O1587 1.283 . S
C1603 O1590 1.243 . S
C1604 C1605 1.382 . S
C1604 C1608 1.393 . S
C1604 C1611 1.500 . S
C1605 C1604 1.382 . S
C1605 C1606 1.400 . S
C1605 H1616 0.930 . S
C1606 C1605 1.400 . S
C1606 C1607 1.384 . S
C1607 C1606 1.384 . S
C1607 C1609 1.392 . S
C1607 H1617 0.931 . S
C1608 C1604 1.393 . S
C1608 C1609 1.401 . S
C1608 H1618 0.930 . S
C1609 C1607 1.392 . S
C1609 C1608 1.401 . S
C1609 H1619 0.930 . S
C1610 O1588 1.262 . S
C1610 O1589 1.260 . S
C1611 Tb1547 2.833 . S
C1611 O1586 1.251 . S
C1611 O1591 1.256 . S
C1611 C1604 1.500 . S
H1612 C1595 0.930 1_556 S
H1613 C1596 0.911 1_556 S
H1614 C1597 0.930 . S
H1615 C1598 0.930 . S
H1616 C1605 0.930 . S
H1617 C1607 0.931 . S
H1618 C1608 0.930 . S
H1619 C1609 0.930 . S
Tb1620 N1651 2.660 . S
Tb1620 N1658 2.600 . S
Tb1620 O1664 2.546 . S
Tb1620 O1665 2.610 . S
Tb1620 O1667 2.320 . S
Tb1620 O1668 2.552 . S
Tb1620 O1669 2.413 . S
Tb1620 O1671 2.362 . S
Tb1620 O1672 2.421 . S
Tb1620 C1684 2.833 . S
C1621 C1624 1.432 . S
C1621 C1625 1.414 . S
C1621 N1628 1.359 . S
C1622 C1624 1.417 . S
C1622 C1626 1.432 . S
C1622 C1634 1.410 . S
C1623 C1625 1.444 . S
C1623 C1626 1.317 . S
C1623 H1646 0.929 . S
C1624 C1621 1.432 . S
C1624 C1622 1.417 . S
C1624 N1632 1.360 . S
C1625 C1621 1.414 . S
C1625 C1623 1.444 . S
C1625 C1630 1.385 . S
C1626 C1622 1.432 . S
C1626 C1623 1.317 . S
C1626 H1638 0.930 . S
C1627 C1629 1.392 . S
C1627 C1630 1.370 . S
C1627 H1639 0.931 . S
N1628 C1621 1.359 . S
N1628 C1629 1.327 . S
N1628 Tb1631 2.600 . S
C1629 C1627 1.392 . S
C1629 N1628 1.327 . S
C1629 H1636 0.930 . S
C1630 C1625 1.385 . S
C1630 C1627 1.370 . S
C1630 H1649 0.930 . S
Tb1631 N1628 2.600 . S
Tb1631 N1632 2.660 . S
Tb1631 O1665 2.362 . S
Tb1631 O1666 2.421 . S
Tb1631 O1670 2.546 . S
Tb1631 O1671 2.610 . S
Tb1631 O1673 2.320 . S
Tb1631 O1674 2.552 . S
Tb1631 O1675 2.413 . S
Tb1631 C1695 2.833 . S
N1632 C1624 1.360 . S
N1632 Tb1631 2.660 . S
N1632 C1633 1.305 . S
C1633 N1632 1.305 . S
C1633 C1635 1.407 . S
C1633 H1640 0.930 . S
C1634 C1622 1.410 . S
C1634 C1635 1.345 . S
C1634 H1642 0.930 . S
C1635 C1633 1.407 . S
C1635 C1634 1.345 . S
C1635 H1637 0.930 . S
H1636 C1629 0.930 . S
H1637 C1635 0.930 . S
H1638 C1626 0.930 . S
H1639 C1627 0.931 . S
H1640 C1633 0.930 . S
H1641 C1655 0.930 . S
H1642 C1634 0.930 . S
H1643 C1661 0.930 . S
H1644 C1652 0.930 . S
H1645 C1659 0.931 . S
H1646 C1623 0.929 . S
H1647 C1653 0.930 . S
H1648 C1686 0.930 . S
H1649 C1630 0.930 . S
H1650 C1685 0.929 . S
N1651 Tb1620 2.660 . S
N1651 C1652 1.305 . S
N1651 C1656 1.360 . S
C1652 H1644 0.930 . S
C1652 N1651 1.305 . S
C1652 C1655 1.407 . S
C1653 H1647 0.930 . S
C1653 C1654 1.410 . S
C1653 C1655 1.345 . S
C1654 C1653 1.410 . S
C1654 C1656 1.417 . S
C1654 C1686 1.432 . S
C1655 H1641 0.930 . S
C1655 C1652 1.407 . S
C1655 C1653 1.345 . S
C1656 N1651 1.360 . S
C1656 C1654 1.417 . S
C1656 C1660 1.432 . S
H1657 C1662 0.930 . S
N1658 Tb1620 2.600 . S
N1658 C1660 1.359 . S
N1658 C1661 1.327 . S
C1659 H1645 0.931 . S
C1659 C1661 1.392 . S
C1659 C1662 1.370 . S
C1660 C1656 1.432 . S
C1660 N1658 1.359 . S
C1660 C1663 1.414 . S
C1661 H1643 0.930 . S
C1661 N1658 1.327 . S
C1661 C1659 1.392 . S
C1662 H1657 0.930 . S
C1662 C1659 1.370 . S
C1662 C1663 1.385 . S
C1663 C1660 1.414 . S
C1663 C1662 1.385 . S
C1663 C1685 1.444 . S
O1664 Tb1620 2.546 . S
O1664 C1684 1.251 . S
O1665 Tb1620 2.610 . S
O1665 Tb1631 2.362 . S
O1665 C1676 1.283 . S
O1666 Tb1631 2.421 . S
O1666 C1683 1.262 . S
O1667 Tb1620 2.320 . S
O1667 C1683 1.260 . S
O1668 Tb1620 2.552 . S
O1668 C1676 1.243 . S
O1669 Tb1620 2.413 . S
O1669 C1684 1.256 . S
O1670 Tb1631 2.546 . S
O1670 C1695 1.251 . S
O1671 Tb1620 2.362 . S
O1671 Tb1631 2.610 . S
O1671 C1687 1.283 . S
O1672 Tb1620 2.421 . S
O1672 C1694 1.262 . S
O1673 Tb1631 2.320 . S
O1673 C1694 1.260 . S
O1674 Tb1631 2.552 . S
O1674 C1687 1.243 . S
O1675 Tb1631 2.413 . S
O1675 C1695 1.256 . S
C1676 O1665 1.283 . S
C1676 O1668 1.243 . S
C1677 C1679 1.382 . S
C1677 C1681 1.393 . S
C1677 C1684 1.500 . S
C1678 C1679 1.400 . S
C1678 C1680 1.384 . S
C1679 C1677 1.382 . S
C1679 C1678 1.400 . S
C1679 H1696 0.930 . S
C1680 C1678 1.384 . S
C1680 C1682 1.392 . S
C1680 H1697 0.931 . S
C1681 C1677 1.393 . S
C1681 C1682 1.401 . S
C1681 H1698 0.930 . S
C1682 C1680 1.392 . S
C1682 C1681 1.401 . S
C1682 H1699 0.930 . S
C1683 O1666 1.262 . S
C1683 O1667 1.260 . S
C1684 Tb1620 2.833 . S
C1684 O1664 1.251 . S
C1684 O1669 1.256 . S
C1684 C1677 1.500 . S
C1685 H1650 0.929 . S
C1685 C1663 1.444 . S
C1685 C1686 1.317 . S
C1686 H1648 0.930 . S
C1686 C1654 1.432 . S
C1686 C1685 1.317 . S
C1687 O1671 1.283 . S
C1687 O1674 1.243 . S
C1688 C1689 1.382 . S
C1688 C1692 1.393 . S
C1688 C1695 1.500 . S
C1689 C1688 1.382 . S
C1689 C1690 1.400 . S
C1689 H1700 0.930 . S
C1690 C1689 1.400 . S
C1690 C1691 1.384 . S
C1691 C1690 1.384 . S
C1691 C1693 1.392 . S
C1691 H1701 0.931 . S
C1692 C1688 1.393 . S
C1692 C1693 1.401 . S
C1692 H1702 0.930 . S
C1693 C1691 1.392 . S
C1693 C1692 1.401 . S
C1693 H1703 0.930 . S
C1694 O1672 1.262 . S
C1694 O1673 1.260 . S
C1695 Tb1631 2.833 . S
C1695 O1670 1.251 . S
C1695 O1675 1.256 . S
C1695 C1688 1.500 . S
H1696 C1679 0.930 . S
H1697 C1680 0.931 . S
H1698 C1681 0.930 . S
H1699 C1682 0.930 . S
H1700 C1689 0.930 . S
H1701 C1691 0.931 . S
H1702 C1692 0.930 . S
H1703 C1693 0.930 . S
Tb1704 N1735 2.660 . S
Tb1704 N1742 2.600 . S
Tb1704 O1748 2.546 . S
Tb1704 O1749 2.610 . S
Tb1704 O1751 2.320 . S
Tb1704 O1752 2.552 . S
Tb1704 O1753 2.413 . S
Tb1704 O1755 2.362 . S
Tb1704 O1756 2.421 . S
Tb1704 C1768 2.833 . S
C1705 C1708 1.432 . S
C1705 C1709 1.414 1_455 S
C1705 N1712 1.359 . S
C1706 C1708 1.417 1_655 S
C1706 C1710 1.432 . S
C1706 C1718 1.410 . S
C1707 C1709 1.444 . S
C1707 C1710 1.317 . S
C1707 H1730 0.929 . S
C1708 C1705 1.432 . S
C1708 C1706 1.417 1_455 S
C1708 N1716 1.360 . S
C1709 C1705 1.414 1_655 S
C1709 C1707 1.444 . S
C1709 C1714 1.385 . S
C1710 C1706 1.432 . S
C1710 C1707 1.317 . S
C1710 H1722 0.930 . S
C1711 C1713 1.392 . S
C1711 C1714 1.370 1_455 S
C1711 H1723 0.931 . S
N1712 C1705 1.359 . S
N1712 C1713 1.327 . S
N1712 Tb1715 2.600 . S
C1713 C1711 1.392 . S
C1713 N1712 1.327 . S
C1713 H1720 0.930 . S
C1714 C1709 1.385 . S
C1714 C1711 1.370 1_655 S
C1714 H1733 0.930 . S
Tb1715 N1712 2.600 . S
Tb1715 N1716 2.660 . S
Tb1715 O1749 2.362 . S
Tb1715 O1750 2.421 . S
Tb1715 O1754 2.546 . S
Tb1715 O1755 2.610 . S
Tb1715 O1757 2.320 . S
Tb1715 O1758 2.552 . S
Tb1715 O1759 2.413 . S
Tb1715 C1779 2.833 . S
N1716 C1708 1.360 . S
N1716 Tb1715 2.660 . S
N1716 C1717 1.305 . S
C1717 N1716 1.305 . S
C1717 C1719 1.407 . S
C1717 H1724 0.930 . S
C1718 C1706 1.410 . S
C1718 C1719 1.345 1_655 S
C1718 H1726 0.930 . S
C1719 C1717 1.407 . S
C1719 C1718 1.345 1_455 S
C1719 H1721 0.930 . S
H1720 C1713 0.930 . S
H1721 C1719 0.930 . S
H1722 C1710 0.930 . S
H1723 C1711 0.931 . S
H1724 C1717 0.930 . S
H1725 C1739 0.930 . S
H1726 C1718 0.930 . S
H1727 C1745 0.930 . S
H1728 C1736 0.930 . S
H1729 C1743 0.931 . S
H1730 C1707 0.929 . S
H1731 C1737 0.930 . S
H1732 C1770 0.930 . S
H1733 C1714 0.930 . S
H1734 C1769 0.929 . S
N1735 Tb1704 2.660 . S
N1735 C1736 1.305 . S
N1735 C1740 1.360 . S
C1736 H1728 0.930 . S
C1736 N1735 1.305 . S
C1736 C1739 1.407 . S
C1737 H1731 0.930 . S
C1737 C1738 1.410 . S
C1737 C1739 1.345 . S
C1738 C1737 1.410 . S
C1738 C1740 1.417 . S
C1738 C1770 1.432 . S
C1739 H1725 0.930 . S
C1739 C1736 1.407 . S
C1739 C1737 1.345 . S
C1740 N1735 1.360 . S
C1740 C1738 1.417 . S
C1740 C1744 1.432 . S
H1741 C1746 0.930 . S
N1742 Tb1704 2.600 . S
N1742 C1744 1.359 . S
N1742 C1745 1.327 . S
C1743 H1729 0.931 . S
C1743 C1745 1.392 . S
C1743 C1746 1.370 . S
C1744 C1740 1.432 . S
C1744 N1742 1.359 . S
C1744 C1747 1.414 . S
C1745 H1727 0.930 . S
C1745 N1742 1.327 . S
C1745 C1743 1.392 . S
C1746 H1741 0.930 . S
C1746 C1743 1.370 . S
C1746 C1747 1.385 . S
C1747 C1744 1.414 . S
C1747 C1746 1.385 . S
C1747 C1769 1.444 . S
O1748 Tb1704 2.546 . S
O1748 C1768 1.251 . S
O1749 Tb1704 2.610 . S
O1749 Tb1715 2.362 . S
O1749 C1760 1.283 . S
O1750 Tb1715 2.421 . S
O1750 C1767 1.262 . S
O1751 Tb1704 2.320 . S
O1751 C1767 1.260 . S
O1752 Tb1704 2.552 . S
O1752 C1760 1.243 . S
O1753 Tb1704 2.413 . S
O1753 C1768 1.256 . S
O1754 Tb1715 2.546 . S
O1754 C1779 1.251 . S
O1755 Tb1704 2.362 . S
O1755 Tb1715 2.610 . S
O1755 C1771 1.283 . S
O1756 Tb1704 2.421 . S
O1756 C1778 1.262 . S
O1757 Tb1715 2.320 . S
O1757 C1778 1.260 . S
O1758 Tb1715 2.552 . S
O1758 C1771 1.243 . S
O1759 Tb1715 2.413 . S
O1759 C1779 1.256 . S
C1760 O1749 1.283 . S
C1760 O1752 1.243 . S
C1761 C1763 1.382 . S
C1761 C1765 1.393 . S
C1761 C1768 1.500 . S
C1762 C1763 1.400 . S
C1762 C1764 1.384 . S
C1763 C1761 1.382 . S
C1763 C1762 1.400 . S
C1763 H1780 0.930 . S
C1764 C1762 1.384 . S
C1764 C1766 1.392 . S
C1764 H1781 0.931 . S
C1765 C1761 1.393 . S
C1765 C1766 1.401 . S
C1765 H1782 0.930 . S
C1766 C1764 1.392 . S
C1766 C1765 1.401 . S
C1766 H1783 0.930 . S
C1767 O1750 1.262 . S
C1767 O1751 1.260 . S
C1768 Tb1704 2.833 . S
C1768 O1748 1.251 . S
C1768 O1753 1.256 . S
C1768 C1761 1.500 . S
C1769 H1734 0.929 . S
C1769 C1747 1.444 . S
C1769 C1770 1.317 . S
C1770 H1732 0.930 . S
C1770 C1738 1.432 . S
C1770 C1769 1.317 . S
C1771 O1755 1.283 . S
C1771 O1758 1.243 . S
C1772 C1773 1.382 . S
C1772 C1776 1.393 . S
C1772 C1779 1.500 . S
C1773 C1772 1.382 . S
C1773 C1774 1.400 . S
C1773 H1784 0.930 . S
C1774 C1773 1.400 . S
C1774 C1775 1.384 . S
C1775 C1774 1.384 . S
C1775 C1777 1.392 . S
C1775 H1785 0.931 . S
C1776 C1772 1.393 . S
C1776 C1777 1.401 . S
C1776 H1786 0.930 . S
C1777 C1775 1.392 . S
C1777 C1776 1.401 . S
C1777 H1787 0.930 . S
C1778 O1756 1.262 . S
C1778 O1757 1.260 . S
C1779 Tb1715 2.833 . S
C1779 O1754 1.251 . S
C1779 O1759 1.256 . S
C1779 C1772 1.500 . S
H1780 C1763 0.930 . S
H1781 C1764 0.931 . S
H1782 C1765 0.930 . S
H1783 C1766 0.930 . S
H1784 C1773 0.930 . S
H1785 C1775 0.931 . S
H1786 C1776 0.930 . S
H1787 C1777 0.930 . S
Tb1788 N1819 2.660 . S
Tb1788 N1826 2.600 . S
Tb1788 O1832 2.546 . S
Tb1788 O1833 2.610 . S
Tb1788 O1835 2.320 . S
Tb1788 O1836 2.552 . S
Tb1788 O1837 2.413 . S
Tb1788 O1839 2.362 . S
Tb1788 O1840 2.421 . S
Tb1788 C1852 2.833 . S
C1789 C1792 1.432 . S
C1789 C1793 1.414 . S
C1789 N1796 1.359 . S
C1790 C1792 1.417 . S
C1790 C1794 1.432 . S
C1790 C1802 1.410 . S
C1791 C1793 1.444 . S
C1791 C1794 1.317 . S
C1791 H1814 0.929 . S
C1792 C1789 1.432 . S
C1792 C1790 1.417 . S
C1792 N1800 1.360 . S
C1793 C1789 1.414 . S
C1793 C1791 1.444 . S
C1793 C1798 1.385 . S
C1794 C1790 1.432 . S
C1794 C1791 1.317 . S
C1794 H1806 0.930 . S
C1795 C1797 1.392 . S
C1795 C1798 1.370 . S
C1795 H1807 0.931 . S
N1796 C1789 1.359 . S
N1796 C1797 1.327 . S
N1796 Tb1799 2.600 . S
C1797 C1795 1.392 . S
C1797 N1796 1.327 . S
C1797 H1804 0.930 . S
C1798 C1793 1.385 . S
C1798 C1795 1.370 . S
C1798 H1817 0.930 . S
Tb1799 N1796 2.600 . S
Tb1799 N1800 2.660 . S
Tb1799 O1833 2.362 . S
Tb1799 O1834 2.421 . S
Tb1799 O1838 2.546 . S
Tb1799 O1839 2.610 . S
Tb1799 O1841 2.320 . S
Tb1799 O1842 2.552 . S
Tb1799 O1843 2.413 . S
Tb1799 C1863 2.833 . S
N1800 C1792 1.360 . S
N1800 Tb1799 2.660 . S
N1800 C1801 1.305 . S
C1801 N1800 1.305 . S
C1801 C1803 1.407 . S
C1801 H1808 0.930 . S
C1802 C1790 1.410 . S
C1802 C1803 1.345 . S
C1802 H1810 0.930 . S
C1803 C1801 1.407 . S
C1803 C1802 1.345 . S
C1803 H1805 0.930 . S
H1804 C1797 0.930 . S
H1805 C1803 0.930 . S
H1806 C1794 0.930 . S
H1807 C1795 0.931 . S
H1808 C1801 0.930 . S
H1809 C1823 0.930 . S
H1810 C1802 0.930 . S
H1811 C1829 0.930 . S
H1812 C1820 0.930 . S
H1813 C1827 0.931 . S
H1814 C1791 0.929 . S
H1815 C1821 0.930 . S
H1816 C1854 0.930 . S
H1817 C1798 0.930 . S
H1818 C1853 0.929 . S
N1819 Tb1788 2.660 . S
N1819 C1820 1.305 . S
N1819 C1824 1.360 . S
C1820 H1812 0.930 . S
C1820 N1819 1.305 . S
C1820 C1823 1.407 . S
C1821 H1815 0.930 . S
C1821 C1822 1.410 . S
C1821 C1823 1.345 . S
C1822 C1821 1.410 . S
C1822 C1824 1.417 . S
C1822 C1854 1.432 . S
C1823 H1809 0.930 . S
C1823 C1820 1.407 . S
C1823 C1821 1.345 . S
C1824 N1819 1.360 . S
C1824 C1822 1.417 . S
C1824 C1828 1.432 . S
H1825 C1830 0.930 . S
N1826 Tb1788 2.600 . S
N1826 C1828 1.359 . S
N1826 C1829 1.327 . S
C1827 H1813 0.931 . S
C1827 C1829 1.392 . S
C1827 C1830 1.370 . S
C1828 C1824 1.432 . S
C1828 N1826 1.359 . S
C1828 C1831 1.414 . S
C1829 H1811 0.930 . S
C1829 N1826 1.327 . S
C1829 C1827 1.392 . S
C1830 H1825 0.930 . S
C1830 C1827 1.370 . S
C1830 C1831 1.385 . S
C1831 C1828 1.414 . S
C1831 C1830 1.385 . S
C1831 C1853 1.444 . S
O1832 Tb1788 2.546 . S
O1832 C1852 1.251 . S
O1833 Tb1788 2.610 . S
O1833 Tb1799 2.362 . S
O1833 C1844 1.283 . S
O1834 Tb1799 2.421 . S
O1834 C1851 1.262 . S
O1835 Tb1788 2.320 . S
O1835 C1851 1.260 . S
O1836 Tb1788 2.552 . S
O1836 C1844 1.243 . S
O1837 Tb1788 2.413 . S
O1837 C1852 1.256 . S
O1838 Tb1799 2.546 . S
O1838 C1863 1.251 . S
O1839 Tb1788 2.362 . S
O1839 Tb1799 2.610 . S
O1839 C1855 1.283 . S
O1840 Tb1788 2.421 . S
O1840 C1862 1.262 . S
O1841 Tb1799 2.320 . S
O1841 C1862 1.260 . S
O1842 Tb1799 2.552 . S
O1842 C1855 1.243 . S
O1843 Tb1799 2.413 . S
O1843 C1863 1.256 . S
C1844 O1833 1.283 . S
C1844 O1836 1.243 . S
C1845 C1847 1.382 . S
C1845 C1849 1.393 . S
C1845 C1852 1.500 . S
C1846 C1847 1.400 . S
C1846 C1848 1.384 . S
C1847 C1845 1.382 . S
C1847 C1846 1.400 . S
C1847 H1864 0.930 . S
C1848 C1846 1.384 . S
C1848 C1850 1.392 . S
C1848 H1865 0.931 . S
C1849 C1845 1.393 . S
C1849 C1850 1.401 . S
C1849 H1866 0.930 . S
C1850 C1848 1.392 . S
C1850 C1849 1.401 . S
C1850 H1867 0.930 . S
C1851 O1834 1.262 . S
C1851 O1835 1.260 . S
C1852 Tb1788 2.833 . S
C1852 O1832 1.251 . S
C1852 O1837 1.256 . S
C1852 C1845 1.500 . S
C1853 H1818 0.929 . S
C1853 C1831 1.444 . S
C1853 C1854 1.317 . S
C1854 H1816 0.930 . S
C1854 C1822 1.432 . S
C1854 C1853 1.317 . S
C1855 O1839 1.283 . S
C1855 O1842 1.243 . S
C1856 C1857 1.382 . S
C1856 C1860 1.393 . S
C1856 C1863 1.500 . S
C1857 C1856 1.382 . S
C1857 C1858 1.400 . S
C1857 H1868 0.930 . S
C1858 C1857 1.400 . S
C1858 C1859 1.384 . S
C1859 C1858 1.384 . S
C1859 C1861 1.392 . S
C1859 H1869 0.931 . S
C1860 C1856 1.393 . S
C1860 C1861 1.401 . S
C1860 H1870 0.930 . S
C1861 C1859 1.392 . S
C1861 C1860 1.401 . S
C1861 H1871 0.930 . S
C1862 O1840 1.262 . S
C1862 O1841 1.260 . S
C1863 Tb1799 2.833 . S
C1863 O1838 1.251 . S
C1863 O1843 1.256 . S
C1863 C1856 1.500 . S
H1864 C1847 0.930 . S
H1865 C1848 0.931 . S
H1866 C1849 0.930 . S
H1867 C1850 0.930 . S
H1868 C1857 0.930 . S
H1869 C1859 0.931 . S
H1870 C1860 0.930 . S
H1871 C1861 0.930 . S
Tb1872 N1903 2.660 . S
Tb1872 N1910 2.600 . S
Tb1872 O1916 2.546 . S
Tb1872 O1917 2.610 . S
Tb1872 O1919 2.320 . S
Tb1872 O1920 2.552 . S
Tb1872 O1921 2.413 . S
Tb1872 O1923 2.362 . S
Tb1872 O1924 2.421 . S
Tb1872 C1936 2.833 . S
C1873 C1876 1.432 . S
C1873 C1877 1.414 . S
C1873 N1880 1.359 . S
C1874 C1876 1.417 . S
C1874 C1878 1.432 . S
C1874 C1886 1.410 . S
C1875 C1877 1.444 . S
C1875 C1878 1.317 . S
C1875 H1898 0.929 . S
C1876 C1873 1.432 . S
C1876 C1874 1.417 . S
C1876 N1884 1.360 . S
C1877 C1873 1.414 . S
C1877 C1875 1.444 . S
C1877 C1882 1.385 . S
C1878 C1874 1.432 . S
C1878 C1875 1.317 . S
C1878 H1890 0.930 . S
C1879 C1881 1.392 . S
C1879 C1882 1.370 . S
C1879 H1891 0.931 . S
N1880 C1873 1.359 . S
N1880 C1881 1.327 . S
N1880 Tb1883 2.600 . S
C1881 C1879 1.392 . S
C1881 N1880 1.327 . S
C1881 H1888 0.930 . S
C1882 C1877 1.385 . S
C1882 C1879 1.370 . S
C1882 H1901 0.930 . S
Tb1883 N1880 2.600 . S
Tb1883 N1884 2.660 . S
Tb1883 O1917 2.362 . S
Tb1883 O1918 2.421 . S
Tb1883 O1922 2.546 . S
Tb1883 O1923 2.610 . S
Tb1883 O1925 2.320 . S
Tb1883 O1926 2.552 . S
Tb1883 O1927 2.413 . S
Tb1883 C1947 2.833 . S
N1884 C1876 1.360 . S
N1884 Tb1883 2.660 . S
N1884 C1885 1.305 . S
C1885 N1884 1.305 . S
C1885 C1887 1.407 . S
C1885 H1892 0.930 . S
C1886 C1874 1.410 . S
C1886 C1887 1.345 . S
C1886 H1894 0.930 . S
C1887 C1885 1.407 . S
C1887 C1886 1.345 . S
C1887 H1889 0.930 . S
H1888 C1881 0.930 . S
H1889 C1887 0.930 . S
H1890 C1878 0.930 . S
H1891 C1879 0.931 . S
H1892 C1885 0.930 . S
H1893 C1907 0.930 . S
H1894 C1886 0.930 . S
H1895 C1913 0.930 . S
H1896 C1904 0.930 . S
H1897 C1911 0.931 . S
H1898 C1875 0.929 . S
H1899 C1905 0.930 . S
H1900 C1938 0.930 . S
H1901 C1882 0.930 . S
H1902 C1937 0.929 . S
N1903 Tb1872 2.660 . S
N1903 C1904 1.305 . S
N1903 C1908 1.360 . S
C1904 H1896 0.930 . S
C1904 N1903 1.305 . S
C1904 C1907 1.407 . S
C1905 H1899 0.930 . S
C1905 C1906 1.410 . S
C1905 C1907 1.345 . S
C1906 C1905 1.410 . S
C1906 C1908 1.417 . S
C1906 C1938 1.432 . S
C1907 H1893 0.930 . S
C1907 C1904 1.407 . S
C1907 C1905 1.345 . S
C1908 N1903 1.360 . S
C1908 C1906 1.417 . S
C1908 C1912 1.432 . S
H1909 C1914 0.930 . S
N1910 Tb1872 2.600 . S
N1910 C1912 1.359 . S
N1910 C1913 1.327 . S
C1911 H1897 0.931 . S
C1911 C1913 1.392 . S
C1911 C1914 1.370 . S
C1912 C1908 1.432 . S
C1912 N1910 1.359 . S
C1912 C1915 1.414 . S
C1913 H1895 0.930 . S
C1913 N1910 1.327 . S
C1913 C1911 1.392 . S
C1914 H1909 0.930 . S
C1914 C1911 1.370 . S
C1914 C1915 1.385 . S
C1915 C1912 1.414 . S
C1915 C1914 1.385 . S
C1915 C1937 1.444 . S
O1916 Tb1872 2.546 . S
O1916 C1936 1.251 . S
O1917 Tb1872 2.610 . S
O1917 Tb1883 2.362 . S
O1917 C1928 1.283 . S
O1918 Tb1883 2.421 . S
O1918 C1935 1.262 . S
O1919 Tb1872 2.320 . S
O1919 C1935 1.260 . S
O1920 Tb1872 2.552 . S
O1920 C1928 1.243 . S
O1921 Tb1872 2.413 . S
O1921 C1936 1.256 . S
O1922 Tb1883 2.546 . S
O1922 C1947 1.251 . S
O1923 Tb1872 2.362 . S
O1923 Tb1883 2.610 . S
O1923 C1939 1.283 . S
O1924 Tb1872 2.421 . S
O1924 C1946 1.262 . S
O1925 Tb1883 2.320 . S
O1925 C1946 1.260 . S
O1926 Tb1883 2.552 . S
O1926 C1939 1.243 . S
O1927 Tb1883 2.413 . S
O1927 C1947 1.256 . S
C1928 O1917 1.283 . S
C1928 O1920 1.243 . S
C1929 C1931 1.382 . S
C1929 C1933 1.393 . S
C1929 C1936 1.500 . S
C1930 C1931 1.400 . S
C1930 C1932 1.384 . S
C1931 C1929 1.382 . S
C1931 C1930 1.400 . S
C1931 H1948 0.930 . S
C1932 C1930 1.384 . S
C1932 C1934 1.392 . S
C1932 H1949 0.931 . S
C1933 C1929 1.393 . S
C1933 C1934 1.401 . S
C1933 H1950 0.930 . S
C1934 C1932 1.392 . S
C1934 C1933 1.401 . S
C1934 H1951 0.930 . S
C1935 O1918 1.262 . S
C1935 O1919 1.260 . S
C1936 Tb1872 2.833 . S
C1936 O1916 1.251 . S
C1936 O1921 1.256 . S
C1936 C1929 1.500 . S
C1937 H1902 0.929 . S
C1937 C1915 1.444 . S
C1937 C1938 1.317 . S
C1938 H1900 0.930 . S
C1938 C1906 1.432 . S
C1938 C1937 1.317 . S
C1939 O1923 1.283 . S
C1939 O1926 1.243 . S
C1940 C1941 1.382 . S
C1940 C1944 1.393 . S
C1940 C1947 1.500 . S
C1941 C1940 1.382 . S
C1941 C1942 1.400 . S
C1941 H1952 0.930 . S
C1942 C1941 1.400 . S
C1942 C1943 1.384 . S
C1943 C1942 1.384 . S
C1943 C1945 1.392 . S
C1943 H1953 0.931 . S
C1944 C1940 1.393 . S
C1944 C1945 1.401 . S
C1944 H1954 0.930 . S
C1945 C1943 1.392 . S
C1945 C1944 1.401 . S
C1945 H1955 0.930 . S
C1946 O1924 1.262 . S
C1946 O1925 1.260 . S
C1947 Tb1883 2.833 . S
C1947 O1922 1.251 . S
C1947 O1927 1.256 . S
C1947 C1940 1.500 . S
H1948 C1931 0.930 . S
H1949 C1932 0.931 . S
H1950 C1933 0.930 . S
H1951 C1934 0.930 . S
H1952 C1941 0.930 . S
H1953 C1943 0.931 . S
H1954 C1944 0.930 . S
H1955 C1945 0.930 . S
Tb1956 N1987 2.660 . S
Tb1956 N1994 2.600 . S
Tb1956 O2000 2.546 . S
Tb1956 O2001 2.610 . S
Tb1956 O2003 2.320 . S
Tb1956 O2004 2.552 . S
Tb1956 O2005 2.413 . S
Tb1956 O2007 2.362 . S
Tb1956 O2008 2.421 . S
Tb1956 C2020 2.833 . S
C1957 C1960 1.432 . S
C1957 C1961 1.414 . S
C1957 N1964 1.359 . S
C1958 C1960 1.417 . S
C1958 C1962 1.432 . S
C1958 C1970 1.410 . S
C1959 C1961 1.444 . S
C1959 C1962 1.317 . S
C1959 H1982 0.929 . S
C1960 C1957 1.432 . S
C1960 C1958 1.417 . S
C1960 N1968 1.360 . S
C1961 C1957 1.414 . S
C1961 C1959 1.444 . S
C1961 C1966 1.385 . S
C1962 C1958 1.432 . S
C1962 C1959 1.317 . S
C1962 H1974 0.930 . S
C1963 C1965 1.392 . S
C1963 C1966 1.370 . S
C1963 H1975 0.931 . S
N1964 C1957 1.359 . S
N1964 C1965 1.327 . S
N1964 Tb1967 2.600 . S
C1965 C1963 1.392 . S
C1965 N1964 1.327 . S
C1965 H1972 0.930 . S
C1966 C1961 1.385 . S
C1966 C1963 1.370 . S
C1966 H1985 0.930 . S
Tb1967 N1964 2.600 . S
Tb1967 N1968 2.660 . S
Tb1967 O2001 2.362 . S
Tb1967 O2002 2.421 . S
Tb1967 O2006 2.546 . S
Tb1967 O2007 2.610 . S
Tb1967 O2009 2.320 . S
Tb1967 O2010 2.552 . S
Tb1967 O2011 2.413 . S
Tb1967 C2031 2.833 . S
N1968 C1960 1.360 . S
N1968 Tb1967 2.660 . S
N1968 C1969 1.305 . S
C1969 N1968 1.305 . S
C1969 C1971 1.407 . S
C1969 H1976 0.930 . S
C1970 C1958 1.410 . S
C1970 C1971 1.345 . S
C1970 H1978 0.930 . S
C1971 C1969 1.407 . S
C1971 C1970 1.345 . S
C1971 H1973 0.930 . S
H1972 C1965 0.930 . S
H1973 C1971 0.930 . S
H1974 C1962 0.930 . S
H1975 C1963 0.931 . S
H1976 C1969 0.930 . S
H1977 C1991 0.930 . S
H1978 C1970 0.930 . S
H1979 C1997 0.930 . S
H1980 C1988 0.930 . S
H1981 C1995 0.931 . S
H1982 C1959 0.929 . S
H1983 C1989 0.930 . S
H1984 C2022 0.930 . S
H1985 C1966 0.930 . S
H1986 C2021 0.929 . S
N1987 Tb1956 2.660 . S
N1987 C1988 1.305 . S
N1987 C1992 1.360 . S
C1988 H1980 0.930 . S
C1988 N1987 1.305 . S
C1988 C1991 1.407 . S
C1989 H1983 0.930 . S
C1989 C1990 1.410 . S
C1989 C1991 1.345 . S
C1990 C1989 1.410 . S
C1990 C1992 1.417 . S
C1990 C2022 1.432 . S
C1991 H1977 0.930 . S
C1991 C1988 1.407 . S
C1991 C1989 1.345 . S
C1992 N1987 1.360 . S
C1992 C1990 1.417 . S
C1992 C1996 1.432 . S
H1993 C1998 0.930 . S
N1994 Tb1956 2.600 . S
N1994 C1996 1.359 . S
N1994 C1997 1.327 . S
C1995 H1981 0.931 . S
C1995 C1997 1.392 . S
C1995 C1998 1.370 . S
C1996 C1992 1.432 . S
C1996 N1994 1.359 . S
C1996 C1999 1.414 . S
C1997 H1979 0.930 . S
C1997 N1994 1.327 . S
C1997 C1995 1.392 . S
C1998 H1993 0.930 . S
C1998 C1995 1.370 . S
C1998 C1999 1.385 . S
C1999 C1996 1.414 . S
C1999 C1998 1.385 . S
C1999 C2021 1.444 . S
O2000 Tb1956 2.546 . S
O2000 C2020 1.251 . S
O2001 Tb1956 2.610 . S
O2001 Tb1967 2.362 . S
O2001 C2012 1.283 . S
O2002 Tb1967 2.421 . S
O2002 C2019 1.262 . S
O2003 Tb1956 2.320 . S
O2003 C2019 1.260 . S
O2004 Tb1956 2.552 . S
O2004 C2012 1.243 . S
O2005 Tb1956 2.413 . S
O2005 C2020 1.256 . S
O2006 Tb1967 2.546 . S
O2006 C2031 1.251 . S
O2007 Tb1956 2.362 . S
O2007 Tb1967 2.610 . S
O2007 C2023 1.283 . S
O2008 Tb1956 2.421 . S
O2008 C2030 1.262 . S
O2009 Tb1967 2.320 . S
O2009 C2030 1.260 . S
O2010 Tb1967 2.552 . S
O2010 C2023 1.243 . S
O2011 Tb1967 2.413 . S
O2011 C2031 1.256 . S
C2012 O2001 1.283 . S
C2012 O2004 1.243 . S
C2013 C2015 1.382 . S
C2013 C2017 1.393 . S
C2013 C2020 1.500 . S
C2014 C2015 1.400 . S
C2014 C2016 1.384 . S
C2015 C2013 1.382 . S
C2015 C2014 1.400 . S
C2015 H2032 0.930 . S
C2016 C2014 1.384 . S
C2016 C2018 1.392 . S
C2016 H2033 0.931 . S
C2017 C2013 1.393 . S
C2017 C2018 1.401 . S
C2017 H2034 0.930 . S
C2018 C2016 1.392 . S
C2018 C2017 1.401 . S
C2018 H2035 0.930 . S
C2019 O2002 1.262 . S
C2019 O2003 1.260 . S
C2020 Tb1956 2.833 . S
C2020 O2000 1.251 . S
C2020 O2005 1.256 . S
C2020 C2013 1.500 . S
C2021 H1986 0.929 . S
C2021 C1999 1.444 . S
C2021 C2022 1.317 . S
C2022 H1984 0.930 . S
C2022 C1990 1.432 . S
C2022 C2021 1.317 . S
C2023 O2007 1.283 . S
C2023 O2010 1.243 . S
C2024 C2025 1.382 . S
C2024 C2028 1.393 . S
C2024 C2031 1.500 . S
C2025 C2024 1.382 . S
C2025 C2026 1.400 . S
C2025 H2036 0.930 . S
C2026 C2025 1.400 . S
C2026 C2027 1.384 . S
C2027 C2026 1.384 . S
C2027 C2029 1.392 . S
C2027 H2037 0.931 . S
C2028 C2024 1.393 . S
C2028 C2029 1.401 . S
C2028 H2038 0.930 . S
C2029 C2027 1.392 . S
C2029 C2028 1.401 . S
C2029 H2039 0.930 . S
C2030 O2008 1.262 . S
C2030 O2009 1.260 . S
C2031 Tb1967 2.833 . S
C2031 O2006 1.251 . S
C2031 O2011 1.256 . S
C2031 C2024 1.500 . S
H2032 C2015 0.930 . S
H2033 C2016 0.931 . S
H2034 C2017 0.930 . S
H2035 C2018 0.930 . S
H2036 C2025 0.930 . S
H2037 C2027 0.931 . S
H2038 C2028 0.930 . S
H2039 C2029 0.930 . S
Tb2040 N2071 2.660 . S
Tb2040 N2078 2.600 . S
Tb2040 O2084 2.546 . S
Tb2040 O2085 2.610 . S
Tb2040 O2087 2.320 . S
Tb2040 O2088 2.552 . S
Tb2040 O2089 2.413 . S
Tb2040 O2091 2.362 . S
Tb2040 O2092 2.421 . S
Tb2040 C2104 2.833 . S
C2041 C2044 1.432 . S
C2041 C2045 1.414 . S
C2041 N2048 1.359 . S
C2042 C2044 1.417 . S
C2042 C2046 1.432 . S
C2042 C2054 1.410 . S
C2043 C2045 1.444 . S
C2043 C2046 1.317 . S
C2043 H2066 0.929 . S
C2044 C2041 1.432 . S
C2044 C2042 1.417 . S
C2044 N2052 1.360 . S
C2045 C2041 1.414 . S
C2045 C2043 1.444 . S
C2045 C2050 1.385 . S
C2046 C2042 1.432 . S
C2046 C2043 1.317 . S
C2046 H2058 0.930 . S
C2047 C2049 1.392 . S
C2047 C2050 1.370 . S
C2047 H2059 0.931 . S
N2048 C2041 1.359 . S
N2048 C2049 1.327 . S
N2048 Tb2051 2.600 . S
C2049 C2047 1.392 . S
C2049 N2048 1.327 . S
C2049 H2056 0.930 . S
C2050 C2045 1.385 . S
C2050 C2047 1.370 . S
C2050 H2069 0.930 . S
Tb2051 N2048 2.600 . S
Tb2051 N2052 2.660 . S
Tb2051 O2085 2.362 . S
Tb2051 O2086 2.421 . S
Tb2051 O2090 2.546 . S
Tb2051 O2091 2.610 . S
Tb2051 O2093 2.320 . S
Tb2051 O2094 2.552 . S
Tb2051 O2095 2.413 . S
Tb2051 C2115 2.833 . S
N2052 C2044 1.360 . S
N2052 Tb2051 2.660 . S
N2052 C2053 1.305 . S
C2053 N2052 1.305 . S
C2053 C2055 1.407 . S
C2053 H2060 0.930 . S
C2054 C2042 1.410 . S
C2054 C2055 1.345 . S
C2054 H2062 0.930 . S
C2055 C2053 1.407 . S
C2055 C2054 1.345 . S
C2055 H2057 0.930 . S
H2056 C2049 0.930 . S
H2057 C2055 0.930 . S
H2058 C2046 0.930 . S
H2059 C2047 0.931 . S
H2060 C2053 0.930 . S
H2061 C2075 0.930 . S
H2062 C2054 0.930 . S
H2063 C2081 0.930 . S
H2064 C2072 0.930 . S
H2065 C2079 0.931 . S
H2066 C2043 0.929 . S
H2067 C2073 0.930 . S
H2068 C2106 0.930 . S
H2069 C2050 0.930 . S
H2070 C2105 0.929 . S
N2071 Tb2040 2.660 . S
N2071 C2072 1.305 . S
N2071 C2076 1.360 . S
C2072 H2064 0.930 . S
C2072 N2071 1.305 . S
C2072 C2075 1.407 . S
C2073 H2067 0.930 . S
C2073 C2074 1.410 . S
C2073 C2075 1.345 . S
C2074 C2073 1.410 . S
C2074 C2076 1.417 . S
C2074 C2106 1.432 . S
C2075 H2061 0.930 . S
C2075 C2072 1.407 . S
C2075 C2073 1.345 . S
C2076 N2071 1.360 . S
C2076 C2074 1.417 . S
C2076 C2080 1.432 . S
H2077 C2082 0.930 . S
N2078 Tb2040 2.600 . S
N2078 C2080 1.359 . S
N2078 C2081 1.327 . S
C2079 H2065 0.931 . S
C2079 C2081 1.392 . S
C2079 C2082 1.370 . S
C2080 C2076 1.432 . S
C2080 N2078 1.359 . S
C2080 C2083 1.414 . S
C2081 H2063 0.930 . S
C2081 N2078 1.327 . S
C2081 C2079 1.392 . S
C2082 H2077 0.930 . S
C2082 C2079 1.370 . S
C2082 C2083 1.385 . S
C2083 C2080 1.414 . S
C2083 C2082 1.385 . S
C2083 C2105 1.444 . S
O2084 Tb2040 2.546 . S
O2084 C2104 1.251 . S
O2085 Tb2040 2.610 . S
O2085 Tb2051 2.362 . S
O2085 C2096 1.283 . S
O2086 Tb2051 2.421 . S
O2086 C2103 1.262 . S
O2087 Tb2040 2.320 . S
O2087 C2103 1.260 . S
O2088 Tb2040 2.552 . S
O2088 C2096 1.243 . S
O2089 Tb2040 2.413 . S
O2089 C2104 1.256 . S
O2090 Tb2051 2.546 . S
O2090 C2115 1.251 . S
O2091 Tb2040 2.362 . S
O2091 Tb2051 2.610 . S
O2091 C2107 1.283 . S
O2092 Tb2040 2.421 . S
O2092 C2114 1.262 . S
O2093 Tb2051 2.320 . S
O2093 C2114 1.260 . S
O2094 Tb2051 2.552 . S
O2094 C2107 1.243 . S
O2095 Tb2051 2.413 . S
O2095 C2115 1.256 . S
C2096 O2085 1.283 . S
C2096 O2088 1.243 . S
C2097 C2099 1.382 . S
C2097 C2101 1.393 . S
C2097 C2104 1.500 . S
C2098 C2099 1.400 . S
C2098 C2100 1.384 . S
C2099 C2097 1.382 . S
C2099 C2098 1.400 . S
C2099 H2116 0.930 . S
C2100 C2098 1.384 . S
C2100 C2102 1.392 . S
C2100 H2117 0.931 . S
C2101 C2097 1.393 . S
C2101 C2102 1.401 . S
C2101 H2118 0.930 . S
C2102 C2100 1.392 . S
C2102 C2101 1.401 . S
C2102 H2119 0.930 . S
C2103 O2086 1.262 . S
C2103 O2087 1.260 . S
C2104 Tb2040 2.833 . S
C2104 O2084 1.251 . S
C2104 O2089 1.256 . S
C2104 C2097 1.500 . S
C2105 H2070 0.929 . S
C2105 C2083 1.444 . S
C2105 C2106 1.317 . S
C2106 H2068 0.930 . S
C2106 C2074 1.432 . S
C2106 C2105 1.317 . S
C2107 O2091 1.283 . S
C2107 O2094 1.243 . S
C2108 C2109 1.382 . S
C2108 C2112 1.393 . S
C2108 C2115 1.500 . S
C2109 C2108 1.382 . S
C2109 C2110 1.400 . S
C2109 H2120 0.930 . S
C2110 C2109 1.400 . S
C2110 C2111 1.384 . S
C2111 C2110 1.384 . S
C2111 C2113 1.392 . S
C2111 H2121 0.931 . S
C2112 C2108 1.393 . S
C2112 C2113 1.401 . S
C2112 H2122 0.930 . S
C2113 C2111 1.392 . S
C2113 C2112 1.401 . S
C2113 H2123 0.930 . S
C2114 O2092 1.262 . S
C2114 O2093 1.260 . S
C2115 Tb2051 2.833 . S
C2115 O2090 1.251 . S
C2115 O2095 1.256 . S
C2115 C2108 1.500 . S
H2116 C2099 0.930 . S
H2117 C2100 0.931 . S
H2118 C2101 0.930 . S
H2119 C2102 0.930 . S
H2120 C2109 0.930 . S
H2121 C2111 0.931 . S
H2122 C2112 0.930 . S
H2123 C2113 0.930 . S
Tb2124 N2155 2.660 . S
Tb2124 N2162 2.600 1_554 S
Tb2124 O2168 2.546 1_554 S
Tb2124 O2169 2.610 . S
Tb2124 O2171 2.320 . S
Tb2124 O2172 2.552 . S
Tb2124 O2173 2.413 . S
Tb2124 O2175 2.362 . S
Tb2124 O2176 2.421 1_554 S
Tb2124 C2188 2.833 1_554 S
C2125 C2128 1.431 1_455 S
C2125 C2129 1.409 1_455 S
C2125 N2132 1.365 . S
C2126 C2128 1.417 . S
C2126 C2130 1.432 . S
C2126 C2138 1.410 1_554 S
C2127 C2129 1.444 . S
C2127 C2130 1.317 . S
C2127 H2150 0.929 . S
C2128 C2125 1.431 1_655 S
C2128 C2126 1.417 . S
C2128 N2136 1.360 1_655 S
C2129 C2125 1.409 1_655 S
C2129 C2127 1.444 . S
C2129 C2134 1.385 . S
C2130 C2126 1.432 . S
C2130 C2127 1.317 . S
C2130 H2142 0.930 . S
C2131 C2133 1.392 . S
C2131 C2134 1.370 1_455 S
C2131 H2143 0.931 . S
N2132 C2125 1.365 . S
N2132 C2133 1.327 . S
N2132 Tb2135 2.600 . S
C2133 C2131 1.392 . S
C2133 N2132 1.327 . S
C2133 H2140 0.930 . S
C2134 C2129 1.385 . S
C2134 C2131 1.370 1_655 S
C2134 H2153 0.930 . S
Tb2135 N2132 2.600 . S
Tb2135 N2136 2.660 . S
Tb2135 O2169 2.362 . S
Tb2135 O2170 2.421 . S
Tb2135 O2174 2.546 . S
Tb2135 O2175 2.610 . S
Tb2135 O2177 2.320 1_554 S
Tb2135 O2178 2.552 . S
Tb2135 O2179 2.413 1_455 S
Tb2135 C2199 2.833 1_455 S
N2136 C2128 1.360 1_455 S
N2136 Tb2135 2.660 . S
N2136 C2137 1.305 1_554 S
C2137 N2136 1.305 1_556 S
C2137 C2139 1.407 1_455 S
C2137 H2144 0.930 . S
C2138 C2126 1.410 1_556 S
C2138 C2139 1.345 . S
C2138 H2146 0.930 . S
C2139 C2137 1.407 1_655 S
C2139 C2138 1.345 . S
C2139 H2141 0.930 . S
H2140 C2133 0.930 . S
H2141 C2139 0.930 . S
H2142 C2130 0.930 . S
H2143 C2131 0.931 . S
H2144 C2137 0.930 . S
H2145 C2159 0.930 . S
H2146 C2138 0.930 . S
H2147 C2165 0.930 . S
H2148 C2156 0.930 . S
H2149 C2163 0.931 . S
H2150 C2127 0.929 . S
H2151 C2157 0.930 . S
H2152 C2190 0.930 . S
H2153 C2134 0.930 . S
H2154 C2189 0.929 . S
N2155 Tb2124 2.660 . S
N2155 C2156 1.305 . S
N2155 C2160 1.360 . S
C2156 H2148 0.930 . S
C2156 N2155 1.305 . S
C2156 C2159 1.407 . S
C2157 H2151 0.930 . S
C2157 C2158 1.410 . S
C2157 C2159 1.345 . S
C2158 C2157 1.410 . S
C2158 C2160 1.417 . S
C2158 C2190 1.432 . S
C2159 H2145 0.930 . S
C2159 C2156 1.407 . S
C2159 C2157 1.345 . S
C2160 N2155 1.360 . S
C2160 C2158 1.417 . S
C2160 C2164 1.432 1_554 S
H2161 C2166 0.930 . S
N2162 Tb2124 2.600 1_556 S
N2162 C2164 1.359 . S
N2162 C2165 1.327 . S
C2163 H2149 0.931 . S
C2163 C2165 1.392 . S
C2163 C2166 1.370 . S
C2164 C2160 1.432 1_556 S
C2164 N2162 1.359 . S
C2164 C2167 1.414 . S
C2165 H2147 0.930 . S
C2165 N2162 1.327 . S
C2165 C2163 1.392 . S
C2166 H2161 0.930 . S
C2166 C2163 1.370 . S
C2166 C2167 1.385 . S
C2167 C2164 1.414 . S
C2167 C2166 1.385 . S
C2167 C2189 1.444 . S
O2168 Tb2124 2.546 1_556 S
O2168 C2188 1.251 . S
O2169 Tb2124 2.610 . S
O2169 Tb2135 2.362 . S
O2169 C2180 1.283 . S
O2170 Tb2135 2.421 . S
O2170 C2187 1.262 . S
O2171 Tb2124 2.320 . S
O2171 C2187 1.260 . S
O2172 Tb2124 2.552 . S
O2172 C2180 1.243 . S
O2173 Tb2124 2.413 . S
O2173 C2188 1.256 1_554 S
O2174 Tb2135 2.546 . S
O2174 C2199 1.251 1_455 S
O2175 Tb2124 2.362 . S
O2175 Tb2135 2.610 . S
O2175 C2191 1.283 . S
O2176 Tb2124 2.421 1_556 S
O2176 C2198 1.262 . S
O2177 Tb2135 2.320 1_556 S
O2177 C2198 1.260 . S
O2178 Tb2135 2.552 . S
O2178 C2191 1.243 . S
O2179 Tb2135 2.413 1_655 S
O2179 C2199 1.256 . S
C2180 O2169 1.283 . S
C2180 O2172 1.243 . S
C2181 C2183 1.382 1_556 S
C2181 C2185 1.393 . S
C2181 C2188 1.500 . S
C2182 C2183 1.400 . S
C2182 C2184 1.384 1_554 S
C2183 C2181 1.382 1_554 S
C2183 C2182 1.400 . S
C2183 H2200 0.930 . S
C2184 C2182 1.384 1_556 S
C2184 C2186 1.392 . S
C2184 H2201 0.931 . S
C2185 C2181 1.393 . S
C2185 C2186 1.401 . S
C2185 H2202 0.930 . S
C2186 C2184 1.392 . S
C2186 C2185 1.401 . S
C2186 H2203 0.930 . S
C2187 O2170 1.262 . S
C2187 O2171 1.260 . S
C2188 Tb2124 2.833 1_556 S
C2188 O2168 1.251 . S
C2188 O2173 1.256 1_556 S
C2188 C2181 1.500 . S
C2189 H2154 0.929 . S
C2189 C2167 1.444 . S
C2189 C2190 1.317 1_556 S
C2190 H2152 0.930 . S
C2190 C2158 1.432 . S
C2190 C2189 1.317 1_554 S
C2191 O2175 1.283 . S
C2191 O2178 1.243 . S
C2192 C2193 1.382 . S
C2192 C2196 1.393 . S
C2192 C2199 1.500 . S
C2193 C2192 1.382 . S
C2193 C2194 1.400 . S
C2193 H2204 0.930 . S
C2194 C2193 1.400 . S
C2194 C2195 1.384 . S
C2195 C2194 1.384 . S
C2195 C2197 1.392 . S
C2195 H2205 0.931 . S
C2196 C2192 1.393 . S
C2196 C2197 1.401 . S
C2196 H2206 0.930 . S
C2197 C2195 1.392 . S
C2197 C2196 1.401 . S
C2197 H2207 0.930 . S
C2198 O2176 1.262 . S
C2198 O2177 1.260 . S
C2199 Tb2135 2.833 1_655 S
C2199 O2174 1.251 1_655 S
C2199 O2179 1.256 . S
C2199 C2192 1.500 . S
H2200 C2183 0.930 . S
H2201 C2184 0.931 . S
H2202 C2185 0.930 . S
H2203 C2186 0.930 . S
H2204 C2193 0.930 . S
H2205 C2195 0.931 . S
H2206 C2196 0.930 . S
H2207 C2197 0.930 . S
C2208 C2209 1.349 . S
C2208 C2210 1.327 . S
C2208 H2233 0.950 . S
C2209 C2208 1.349 . S
C2209 C2225 1.349 . S
C2210 C2208 1.327 . S
C2210 C2229 1.429 . S
C2210 H2234 0.950 . S
C2211 C2228 1.596 . S
C2211 C2230 1.368 . S
C2211 H2235 0.949 . S
H2212 C2216 0.949 . S
C2213 C2214 1.349 . S
C2213 C2215 1.327 . S
C2213 H2236 0.950 . S
C2214 C2213 1.349 . S
C2214 C2226 1.349 1_554 S
C2215 C2213 1.327 . S
C2215 C2231 1.429 1_554 S
C2215 H2237 0.950 . S
C2216 H2212 0.949 . S
C2216 C2224 1.574 . S
C2216 C2232 1.368 . S
H2217 C2225 0.950 . S
H2218 C2223 0.950 . S
H2219 C2224 0.949 . S
H2220 C2226 0.950 . S
H2221 C2227 0.950 . S
H2222 C2228 0.908 1_554 S
C2223 H2218 0.950 . S
C2223 C2225 1.327 . S
C2223 C2229 1.429 . S
C2224 C2216 1.574 . S
C2224 H2219 0.949 . S
C2224 C2230 1.368 . S
C2225 C2209 1.349 . S
C2225 H2217 0.950 . S
C2225 C2223 1.327 . S
C2226 C2214 1.349 1_556 S
C2226 H2220 0.950 . S
C2226 C2227 1.327 . S
C2227 H2221 0.950 . S
C2227 C2226 1.327 . S
C2227 C2231 1.429 . S
C2228 C2211 1.596 . S
C2228 H2222 0.908 1_556 S
C2228 C2232 1.393 . S
C2229 C2210 1.429 . S
C2229 C2223 1.429 . S
C2229 C2230 1.523 . S
C2230 C2211 1.368 . S
C2230 C2224 1.368 . S
C2230 C2229 1.523 . S
C2231 C2215 1.429 1_556 S
C2231 C2227 1.429 . S
C2231 C2232 1.523 . S
C2232 C2216 1.368 . S
C2232 C2228 1.393 . S
C2232 C2231 1.523 . S
H2233 C2208 0.950 . S
H2234 C2210 0.950 . S
H2235 C2211 0.949 . S
H2236 C2213 0.950 . S
H2237 C2215 0.950 . S
C2238 C2239 1.349 . S
C2238 C2240 1.327 . S
C2238 H2263 0.950 . S
C2239 C2238 1.349 . S
C2239 C2255 1.349 . S
C2240 C2238 1.327 . S
C2240 C2259 1.429 . S
C2240 H2264 0.950 . S
C2241 C2258 1.574 . S
C2241 C2260 1.368 . S
C2241 H2265 0.949 . S
H2242 C2246 0.949 . S
C2243 C2244 1.349 . S
C2243 C2245 1.327 . S
C2243 H2266 0.950 . S
C2244 C2243 1.349 . S
C2244 C2256 1.349 . S
C2245 C2243 1.327 . S
C2245 C2261 1.429 . S
C2245 H2267 0.950 . S
C2246 H2242 0.949 . S
C2246 C2254 1.574 . S
C2246 C2262 1.368 . S
H2247 C2255 0.950 . S
H2248 C2253 0.950 . S
H2249 C2254 0.949 . S
H2250 C2256 0.950 . S
H2251 C2257 0.950 . S
H2252 C2258 0.949 . S
C2253 H2248 0.950 . S
C2253 C2255 1.327 . S
C2253 C2259 1.429 . S
C2254 C2246 1.574 . S
C2254 H2249 0.949 . S
C2254 C2260 1.368 . S
C2255 C2239 1.349 . S
C2255 H2247 0.950 . S
C2255 C2253 1.327 . S
C2256 C2244 1.349 . S
C2256 H2250 0.950 . S
C2256 C2257 1.327 . S
C2257 H2251 0.950 . S
C2257 C2256 1.327 . S
C2257 C2261 1.429 . S
C2258 C2241 1.574 . S
C2258 H2252 0.949 . S
C2258 C2262 1.368 . S
C2259 C2240 1.429 . S
C2259 C2253 1.429 . S
C2259 C2260 1.523 . S
C2260 C2241 1.368 . S
C2260 C2254 1.368 . S
C2260 C2259 1.523 . S
C2261 C2245 1.429 . S
C2261 C2257 1.429 . S
C2261 C2262 1.523 . S
C2262 C2246 1.368 . S
C2262 C2258 1.368 . S
C2262 C2261 1.523 . S
H2263 C2238 0.950 . S
H2264 C2240 0.950 . S
H2265 C2241 0.949 . S
H2266 C2243 0.950 . S
H2267 C2245 0.950 . S
C2268 C2269 1.349 . S
C2268 C2270 1.327 . S
C2268 H2293 0.950 . S
C2269 C2268 1.349 . S
C2269 C2285 1.349 . S
C2270 C2268 1.327 . S
C2270 C2289 1.429 . S
C2270 H2294 0.950 . S
C2271 C2288 1.574 . S
C2271 C2290 1.368 . S
C2271 H2295 0.949 . S
H2272 C2276 0.949 . S
C2273 C2274 1.349 . S
C2273 C2275 1.327 . S
C2273 H2296 0.950 . S
C2274 C2273 1.349 . S
C2274 C2286 1.349 . S
C2275 C2273 1.327 . S
C2275 C2291 1.429 . S
C2275 H2297 0.950 . S
C2276 H2272 0.949 . S
C2276 C2284 1.574 . S
C2276 C2292 1.368 . S
H2277 C2285 0.950 . S
H2278 C2283 0.950 . S
H2279 C2284 0.949 . S
H2280 C2286 0.950 . S
H2281 C2287 0.950 . S
H2282 C2288 0.949 . S
C2283 H2278 0.950 . S
C2283 C2285 1.327 . S
C2283 C2289 1.429 . S
C2284 C2276 1.574 . S
C2284 H2279 0.949 . S
C2284 C2290 1.368 . S
C2285 C2269 1.349 . S
C2285 H2277 0.950 . S
C2285 C2283 1.327 . S
C2286 C2274 1.349 . S
C2286 H2280 0.950 . S
C2286 C2287 1.327 . S
C2287 H2281 0.950 . S
C2287 C2286 1.327 . S
C2287 C2291 1.429 . S
C2288 C2271 1.574 . S
C2288 H2282 0.949 . S
C2288 C2292 1.368 . S
C2289 C2270 1.429 . S
C2289 C2283 1.429 . S
C2289 C2290 1.523 . S
C2290 C2271 1.368 . S
C2290 C2284 1.368 . S
C2290 C2289 1.523 . S
C2291 C2275 1.429 . S
C2291 C2287 1.429 . S
C2291 C2292 1.523 . S
C2292 C2276 1.368 . S
C2292 C2288 1.368 . S
C2292 C2291 1.523 . S
H2293 C2268 0.950 . S
H2294 C2270 0.950 . S
H2295 C2271 0.949 . S
H2296 C2273 0.950 . S
H2297 C2275 0.950 . S
C2298 C2299 1.349 . S
C2298 C2300 1.327 . S
C2298 H2323 0.950 . S
C2299 C2298 1.349 . S
C2299 C2315 1.349 . S
C2300 C2298 1.327 . S
C2300 C2319 1.429 . S
C2300 H2324 0.950 . S
C2301 C2318 1.574 . S
C2301 C2320 1.368 . S
C2301 H2325 0.949 . S
H2302 C2306 0.949 . S
C2303 C2304 1.349 . S
C2303 C2305 1.327 . S
C2303 H2326 0.950 . S
C2304 C2303 1.349 . S
C2304 C2316 1.349 . S
C2305 C2303 1.327 . S
C2305 C2321 1.429 . S
C2305 H2327 0.950 . S
C2306 H2302 0.949 . S
C2306 C2314 1.574 . S
C2306 C2322 1.368 . S
H2307 C2315 0.950 . S
H2308 C2313 0.950 . S
H2309 C2314 0.949 . S
H2310 C2316 0.950 . S
H2311 C2317 0.950 . S
H2312 C2318 0.949 . S
C2313 H2308 0.950 . S
C2313 C2315 1.327 . S
C2313 C2319 1.429 . S
C2314 C2306 1.574 . S
C2314 H2309 0.949 . S
C2314 C2320 1.368 . S
C2315 C2299 1.349 . S
C2315 H2307 0.950 . S
C2315 C2313 1.327 . S
C2316 C2304 1.349 . S
C2316 H2310 0.950 . S
C2316 C2317 1.327 . S
C2317 H2311 0.950 . S
C2317 C2316 1.327 . S
C2317 C2321 1.429 . S
C2318 C2301 1.574 . S
C2318 H2312 0.949 . S
C2318 C2322 1.368 . S
C2319 C2300 1.429 . S
C2319 C2313 1.429 . S
C2319 C2320 1.523 . S
C2320 C2301 1.368 . S
C2320 C2314 1.368 . S
C2320 C2319 1.523 . S
C2321 C2305 1.429 . S
C2321 C2317 1.429 . S
C2321 C2322 1.523 . S
C2322 C2306 1.368 . S
C2322 C2318 1.368 . S
C2322 C2321 1.523 . S
H2323 C2298 0.950 . S
H2324 C2300 0.950 . S
H2325 C2301 0.949 . S
H2326 C2303 0.950 . S
H2327 C2305 0.950 . S
C2328 C2329 1.349 1_655 S
C2328 C2330 1.327 . S
C2328 H2353 0.950 . S
C2329 C2328 1.349 1_455 S
C2329 C2345 1.349 . S
C2330 C2328 1.327 . S
C2330 C2349 1.429 1_655 S
C2330 H2354 0.950 . S
C2331 C2348 1.574 . S
C2331 C2350 1.368 . S
C2331 H2355 0.949 . S
H2332 C2336 0.949 . S
C2333 C2334 1.349 . S
C2333 C2335 1.327 . S
C2333 H2356 0.950 . S
C2334 C2333 1.349 . S
C2334 C2346 1.349 . S
C2335 C2333 1.327 . S
C2335 C2351 1.429 . S
C2335 H2357 0.950 . S
C2336 H2332 0.949 . S
C2336 C2344 1.574 . S
C2336 C2352 1.368 . S
H2337 C2345 0.950 . S
H2338 C2343 0.950 . S
H2339 C2344 0.949 1_655 S
H2340 C2346 0.950 . S
H2341 C2347 0.950 . S
H2342 C2348 0.949 . S
C2343 H2338 0.950 . S
C2343 C2345 1.327 . S
C2343 C2349 1.429 . S
C2344 C2336 1.574 . S
C2344 H2339 0.949 1_455 S
C2344 C2350 1.368 . S
C2345 C2329 1.349 . S
C2345 H2337 0.950 . S
C2345 C2343 1.327 . S
C2346 C2334 1.349 . S
C2346 H2340 0.950 . S
C2346 C2347 1.327 . S
C2347 H2341 0.950 . S
C2347 C2346 1.327 . S
C2347 C2351 1.429 . S
C2348 C2331 1.574 . S
C2348 H2342 0.949 . S
C2348 C2352 1.368 . S
C2349 C2330 1.429 1_455 S
C2349 C2343 1.429 . S
C2349 C2350 1.523 . S
C2350 C2331 1.368 . S
C2350 C2344 1.368 . S
C2350 C2349 1.523 . S
C2351 C2335 1.429 . S
C2351 C2347 1.429 . S
C2351 C2352 1.523 . S
C2352 C2336 1.368 . S
C2352 C2348 1.368 . S
C2352 C2351 1.523 . S
H2353 C2328 0.950 . S
H2354 C2330 0.950 . S
H2355 C2331 0.949 . S
H2356 C2333 0.950 . S
H2357 C2335 0.950 . S
C2358 C2359 1.349 . S
C2358 C2360 1.327 . S
C2358 H2383 0.950 . S
C2359 C2358 1.349 . S
C2359 C2375 1.349 . S
C2360 C2358 1.327 . S
C2360 C2379 1.429 . S
C2360 H2384 0.950 . S
C2361 C2378 1.574 . S
C2361 C2380 1.368 . S
C2361 H2385 0.949 . S
H2362 C2366 0.949 . S
C2363 C2364 1.349 . S
C2363 C2365 1.327 . S
C2363 H2386 0.950 . S
C2364 C2363 1.349 . S
C2364 C2376 1.349 . S
C2365 C2363 1.327 . S
C2365 C2381 1.429 . S
C2365 H2387 0.950 . S
C2366 H2362 0.949 . S
C2366 C2374 1.574 . S
C2366 C2382 1.368 . S
H2367 C2375 0.950 . S
H2368 C2373 0.950 . S
H2369 C2374 0.949 . S
H2370 C2376 0.950 . S
H2371 C2377 0.950 . S
H2372 C2378 0.949 . S
C2373 H2368 0.950 . S
C2373 C2375 1.327 . S
C2373 C2379 1.429 . S
C2374 C2366 1.574 . S
C2374 H2369 0.949 . S
C2374 C2380 1.368 . S
C2375 C2359 1.349 . S
C2375 H2367 0.950 . S
C2375 C2373 1.327 . S
C2376 C2364 1.349 . S
C2376 H2370 0.950 . S
C2376 C2377 1.327 . S
C2377 H2371 0.950 . S
C2377 C2376 1.327 . S
C2377 C2381 1.429 . S
C2378 C2361 1.574 . S
C2378 H2372 0.949 . S
C2378 C2382 1.368 . S
C2379 C2360 1.429 . S
C2379 C2373 1.429 . S
C2379 C2380 1.523 . S
C2380 C2361 1.368 . S
C2380 C2374 1.368 . S
C2380 C2379 1.523 . S
C2381 C2365 1.429 . S
C2381 C2377 1.429 . S
C2381 C2382 1.523 . S
C2382 C2366 1.368 . S
C2382 C2378 1.368 . S
C2382 C2381 1.523 . S
H2383 C2358 0.950 . S
H2384 C2360 0.950 . S
H2385 C2361 0.949 . S
H2386 C2363 0.950 . S
H2387 C2365 0.950 . S
C2388 C2389 1.349 . S
C2388 C2390 1.327 . S
C2388 H2413 0.950 . S
C2389 C2388 1.349 . S
C2389 C2405 1.349 . S
C2390 C2388 1.327 . S
C2390 C2409 1.429 . S
C2390 H2414 0.950 . S
C2391 C2408 1.574 . S
C2391 C2410 1.368 . S
C2391 H2415 0.949 . S
H2392 C2396 0.949 . S
C2393 C2394 1.349 . S
C2393 C2395 1.327 . S
C2393 H2416 0.950 . S
C2394 C2393 1.349 . S
C2394 C2406 1.349 . S
C2395 C2393 1.327 . S
C2395 C2411 1.429 . S
C2395 H2417 0.950 . S
C2396 H2392 0.949 . S
C2396 C2404 1.574 . S
C2396 C2412 1.368 . S
H2397 C2405 0.950 . S
H2398 C2403 0.950 . S
H2399 C2404 0.949 . S
H2400 C2406 0.950 . S
H2401 C2407 0.950 . S
H2402 C2408 0.949 . S
C2403 H2398 0.950 . S
C2403 C2405 1.327 . S
C2403 C2409 1.429 . S
C2404 C2396 1.574 . S
C2404 H2399 0.949 . S
C2404 C2410 1.368 . S
C2405 C2389 1.349 . S
C2405 H2397 0.950 . S
C2405 C2403 1.327 . S
C2406 C2394 1.349 . S
C2406 H2400 0.950 . S
C2406 C2407 1.327 . S
C2407 H2401 0.950 . S
C2407 C2406 1.327 . S
C2407 C2411 1.429 . S
C2408 C2391 1.574 . S
C2408 H2402 0.949 . S
C2408 C2412 1.368 . S
C2409 C2390 1.429 . S
C2409 C2403 1.429 . S
C2409 C2410 1.523 . S
C2410 C2391 1.368 . S
C2410 C2404 1.368 . S
C2410 C2409 1.523 . S
C2411 C2395 1.429 . S
C2411 C2407 1.429 . S
C2411 C2412 1.523 . S
C2412 C2396 1.368 . S
C2412 C2408 1.368 . S
C2412 C2411 1.523 . S
H2413 C2388 0.950 . S
H2414 C2390 0.950 . S
H2415 C2391 0.949 . S
H2416 C2393 0.950 . S
H2417 C2395 0.950 . S
C2418 C2419 1.349 . S
C2418 C2420 1.327 . S
C2418 H2443 0.950 . S
C2419 C2418 1.349 . S
C2419 C2435 1.349 . S
C2420 C2418 1.327 . S
C2420 C2439 1.429 . S
C2420 H2444 0.950 . S
C2421 C2438 1.574 . S
C2421 C2440 1.368 . S
C2421 H2445 0.949 . S
H2422 C2426 0.949 . S
C2423 C2424 1.349 . S
C2423 C2425 1.327 . S
C2423 H2446 0.950 . S
C2424 C2423 1.349 . S
C2424 C2436 1.349 . S
C2425 C2423 1.327 . S
C2425 C2441 1.429 . S
C2425 H2447 0.950 . S
C2426 H2422 0.949 . S
C2426 C2434 1.574 . S
C2426 C2442 1.368 . S
H2427 C2435 0.950 . S
H2428 C2433 0.950 . S
H2429 C2434 0.949 . S
H2430 C2436 0.950 . S
H2431 C2437 0.950 . S
H2432 C2438 0.949 . S
C2433 H2428 0.950 . S
C2433 C2435 1.327 . S
C2433 C2439 1.429 . S
C2434 C2426 1.574 . S
C2434 H2429 0.949 . S
C2434 C2440 1.368 . S
C2435 C2419 1.349 . S
C2435 H2427 0.950 . S
C2435 C2433 1.327 . S
C2436 C2424 1.349 . S
C2436 H2430 0.950 . S
C2436 C2437 1.327 . S
C2437 H2431 0.950 . S
C2437 C2436 1.327 . S
C2437 C2441 1.429 . S
C2438 C2421 1.574 . S
C2438 H2432 0.949 . S
C2438 C2442 1.368 . S
C2439 C2420 1.429 . S
C2439 C2433 1.429 . S
C2439 C2440 1.523 . S
C2440 C2421 1.368 . S
C2440 C2434 1.368 . S
C2440 C2439 1.523 . S
C2441 C2425 1.429 . S
C2441 C2437 1.429 . S
C2441 C2442 1.523 . S
C2442 C2426 1.368 . S
C2442 C2438 1.368 . S
C2442 C2441 1.523 . S
H2443 C2418 0.950 . S
H2444 C2420 0.950 . S
H2445 C2421 0.949 . S
H2446 C2423 0.950 . S
H2447 C2425 0.950 . S
C2448 C2449 1.349 . S
C2448 C2450 1.327 . S
C2448 H2473 0.950 . S
C2449 C2448 1.349 . S
C2449 C2465 1.349 . S
C2450 C2448 1.327 . S
C2450 C2469 1.429 . S
C2450 H2474 0.950 . S
C2451 C2468 1.574 . S
C2451 C2470 1.368 . S
C2451 H2475 0.949 . S
H2452 C2456 0.949 . S
C2453 C2454 1.349 . S
C2453 C2455 1.327 . S
C2453 H2476 0.950 . S
C2454 C2453 1.349 . S
C2454 C2466 1.349 . S
C2455 C2453 1.327 . S
C2455 C2471 1.429 . S
C2455 H2477 0.950 1_455 S
C2456 H2452 0.949 . S
C2456 C2464 1.574 . S
C2456 C2472 1.368 . S
H2457 C2465 0.950 . S
H2458 C2463 0.950 . S
H2459 C2464 0.949 . S
H2460 C2466 0.950 . S
H2461 C2467 0.950 . S
H2462 C2468 0.949 . S
C2463 H2458 0.950 . S
C2463 C2465 1.327 . S
C2463 C2469 1.429 . S
C2464 C2456 1.574 . S
C2464 H2459 0.949 . S
C2464 C2470 1.368 1_455 S
C2465 C2449 1.349 . S
C2465 H2457 0.950 . S
C2465 C2463 1.327 . S
C2466 C2454 1.349 . S
C2466 H2460 0.950 . S
C2466 C2467 1.327 . S
C2467 H2461 0.950 . S
C2467 C2466 1.327 . S
C2467 C2471 1.429 . S
C2468 C2451 1.574 . S
C2468 H2462 0.949 . S
C2468 C2472 1.368 1_655 S
C2469 C2450 1.429 . S
C2469 C2463 1.429 . S
C2469 C2470 1.523 . S
C2470 C2451 1.368 . S
C2470 C2464 1.368 1_655 S
C2470 C2469 1.523 . S
C2471 C2455 1.429 . S
C2471 C2467 1.429 . S
C2471 C2472 1.523 . S
C2472 C2456 1.368 . S
C2472 C2468 1.368 1_455 S
C2472 C2471 1.523 . S
H2473 C2448 0.950 . S
H2474 C2450 0.950 . S
H2475 C2451 0.949 . S
H2476 C2453 0.950 . S
H2477 C2455 0.950 1_655 S
C2478 C2479 1.349 . S
C2478 C2480 1.327 . S
C2478 H2503 0.950 . S
C2479 C2478 1.349 . S
C2479 C2495 1.349 . S
C2480 C2478 1.327 . S
C2480 C2499 1.429 . S
C2480 H2504 0.950 . S
C2481 C2498 1.574 . S
C2481 C2500 1.368 . S
C2481 H2505 0.949 . S
H2482 C2486 0.949 . S
C2483 C2484 1.349 . S
C2483 C2485 1.327 . S
C2483 H2506 0.950 . S
C2484 C2483 1.349 . S
C2484 C2496 1.349 . S
C2485 C2483 1.327 . S
C2485 C2501 1.429 . S
C2485 H2507 0.950 . S
C2486 H2482 0.949 . S
C2486 C2494 1.574 . S
C2486 C2502 1.368 . S
H2487 C2495 0.950 . S
H2488 C2493 0.950 . S
H2489 C2494 0.949 . S
H2490 C2496 0.950 . S
H2491 C2497 0.950 . S
H2492 C2498 0.949 . S
C2493 H2488 0.950 . S
C2493 C2495 1.327 . S
C2493 C2499 1.429 . S
C2494 C2486 1.574 . S
C2494 H2489 0.949 . S
C2494 C2500 1.368 . S
C2495 C2479 1.349 . S
C2495 H2487 0.950 . S
C2495 C2493 1.327 . S
C2496 C2484 1.349 . S
C2496 H2490 0.950 . S
C2496 C2497 1.327 . S
C2497 H2491 0.950 . S
C2497 C2496 1.327 . S
C2497 C2501 1.429 . S
C2498 C2481 1.574 . S
C2498 H2492 0.949 . S
C2498 C2502 1.368 . S
C2499 C2480 1.429 . S
C2499 C2493 1.429 . S
C2499 C2500 1.523 . S
C2500 C2481 1.368 . S
C2500 C2494 1.368 . S
C2500 C2499 1.523 . S
C2501 C2485 1.429 . S
C2501 C2497 1.429 . S
C2501 C2502 1.523 . S
C2502 C2486 1.368 . S
C2502 C2498 1.368 . S
C2502 C2501 1.523 . S
H2503 C2478 0.950 . S
H2504 C2480 0.950 . S
H2505 C2481 0.949 . S
H2506 C2483 0.950 . S
H2507 C2485 0.950 . S
C2508 C2509 1.349 . S
C2508 C2510 1.327 . S
C2508 H2533 0.950 . S
C2509 C2508 1.349 . S
C2509 C2525 1.349 . S
C2510 C2508 1.327 . S
C2510 C2529 1.429 . S
C2510 H2534 0.950 . S
C2511 C2528 1.574 . S
C2511 C2530 1.368 . S
C2511 H2535 0.949 . S
H2512 C2516 0.949 . S
C2513 C2514 1.349 . S
C2513 C2515 1.327 . S
C2513 H2536 0.950 . S
C2514 C2513 1.349 . S
C2514 C2526 1.349 . S
C2515 C2513 1.327 . S
C2515 C2531 1.429 . S
C2515 H2537 0.950 . S
C2516 H2512 0.949 . S
C2516 C2524 1.574 . S
C2516 C2532 1.368 . S
H2517 C2525 0.950 . S
H2518 C2523 0.950 . S
H2519 C2524 0.949 . S
H2520 C2526 0.950 . S
H2521 C2527 0.950 . S
H2522 C2528 0.949 . S
C2523 H2518 0.950 . S
C2523 C2525 1.327 . S
C2523 C2529 1.429 . S
C2524 C2516 1.574 . S
C2524 H2519 0.949 . S
C2524 C2530 1.368 . S
C2525 C2509 1.349 . S
C2525 H2517 0.950 . S
C2525 C2523 1.327 . S
C2526 C2514 1.349 . S
C2526 H2520 0.950 . S
C2526 C2527 1.327 . S
C2527 H2521 0.950 . S
C2527 C2526 1.327 . S
C2527 C2531 1.429 . S
C2528 C2511 1.574 . S
C2528 H2522 0.949 . S
C2528 C2532 1.368 . S
C2529 C2510 1.429 . S
C2529 C2523 1.429 . S
C2529 C2530 1.523 . S
C2530 C2511 1.368 . S
C2530 C2524 1.368 . S
C2530 C2529 1.523 . S
C2531 C2515 1.429 . S
C2531 C2527 1.429 . S
C2531 C2532 1.523 . S
C2532 C2516 1.368 . S
C2532 C2528 1.368 . S
C2532 C2531 1.523 . S
H2533 C2508 0.950 . S
H2534 C2510 0.950 . S
H2535 C2511 0.949 . S
H2536 C2513 0.950 . S
H2537 C2515 0.950 . S
C2538 C2539 1.349 . S
C2538 C2540 1.327 . S
C2538 H2563 0.950 . S
C2539 C2538 1.349 . S
C2539 C2555 1.349 . S
C2540 C2538 1.327 . S
C2540 C2559 1.429 . S
C2540 H2564 0.950 . S
C2541 C2558 1.574 . S
C2541 C2560 1.368 . S
C2541 H2565 0.949 . S
H2542 C2546 0.949 . S
C2543 C2544 1.349 . S
C2543 C2545 1.327 . S
C2543 H2566 0.950 . S
C2544 C2543 1.349 . S
C2544 C2556 1.349 . S
C2545 C2543 1.327 . S
C2545 C2561 1.429 . S
C2545 H2567 0.950 . S
C2546 H2542 0.949 . S
C2546 C2554 1.574 . S
C2546 C2562 1.368 . S
H2547 C2555 0.950 . S
H2548 C2553 0.950 . S
H2549 C2554 0.949 . S
H2550 C2556 0.950 . S
H2551 C2557 0.950 . S
H2552 C2558 0.949 . S
C2553 H2548 0.950 . S
C2553 C2555 1.327 . S
C2553 C2559 1.429 . S
C2554 C2546 1.574 . S
C2554 H2549 0.949 . S
C2554 C2560 1.368 . S
C2555 C2539 1.349 . S
C2555 H2547 0.950 . S
C2555 C2553 1.327 . S
C2556 C2544 1.349 . S
C2556 H2550 0.950 . S
C2556 C2557 1.327 . S
C2557 H2551 0.950 . S
C2557 C2556 1.327 . S
C2557 C2561 1.429 . S
C2558 C2541 1.574 . S
C2558 H2552 0.949 . S
C2558 C2562 1.368 . S
C2559 C2540 1.429 . S
C2559 C2553 1.429 . S
C2559 C2560 1.523 . S
C2560 C2541 1.368 . S
C2560 C2554 1.368 . S
C2560 C2559 1.523 . S
C2561 C2545 1.429 . S
C2561 C2557 1.429 . S
C2561 C2562 1.523 . S
C2562 C2546 1.368 . S
C2562 C2558 1.368 . S
C2562 C2561 1.523 . S
H2563 C2538 0.950 . S
H2564 C2540 0.950 . S
H2565 C2541 0.949 . S
H2566 C2543 0.950 . S
H2567 C2545 0.950 . S
C2568 C2569 1.349 . S
C2568 C2570 1.327 . S
C2568 H2593 0.950 . S
C2569 C2568 1.349 . S
C2569 C2585 1.349 . S
C2570 C2568 1.327 . S
C2570 C2589 1.429 . S
C2570 H2594 0.950 . S
C2571 C2588 1.574 1_655 S
C2571 C2590 1.368 . S
C2571 H2595 0.949 . S
H2572 C2576 0.949 . S
C2573 C2574 1.349 . S
C2573 C2575 1.327 . S
C2573 H2596 0.950 . S
C2574 C2573 1.349 . S
C2574 C2586 1.349 . S
C2575 C2573 1.327 . S
C2575 C2591 1.429 . S
C2575 H2597 0.950 . S
C2576 H2572 0.949 . S
C2576 C2584 1.574 1_455 S
C2576 C2592 1.368 . S
H2577 C2585 0.950 . S
H2578 C2583 0.950 . S
H2579 C2584 0.949 . S
H2580 C2586 0.950 . S
H2581 C2587 0.950 . S
H2582 C2588 0.949 . S
C2583 H2578 0.950 . S
C2583 C2585 1.327 . S
C2583 C2589 1.429 . S
C2584 C2576 1.574 1_655 S
C2584 H2579 0.949 . S
C2584 C2590 1.368 . S
C2585 C2569 1.349 . S
C2585 H2577 0.950 . S
C2585 C2583 1.327 . S
C2586 C2574 1.349 . S
C2586 H2580 0.950 . S
C2586 C2587 1.327 . S
C2587 H2581 0.950 . S
C2587 C2586 1.327 . S
C2587 C2591 1.429 . S
C2588 C2571 1.574 1_455 S
C2588 H2582 0.949 . S
C2588 C2592 1.368 . S
C2589 C2570 1.429 . S
C2589 C2583 1.429 . S
C2589 C2590 1.523 . S
C2590 C2571 1.368 . S
C2590 C2584 1.368 . S
C2590 C2589 1.523 . S
C2591 C2575 1.429 . S
C2591 C2587 1.429 . S
C2591 C2592 1.523 . S
C2592 C2576 1.368 . S
C2592 C2588 1.368 . S
C2592 C2591 1.523 . S
H2593 C2568 0.950 . S
H2594 C2570 0.950 . S
H2595 C2571 0.949 . S
H2596 C2573 0.950 . S
H2597 C2575 0.950 . S
C2598 C2599 1.349 . S
C2598 C2600 1.327 . S
C2598 H2623 0.950 . S
C2599 C2598 1.349 . S
C2599 C2615 1.349 . S
C2600 C2598 1.327 . S
C2600 C2619 1.429 . S
C2600 H2624 0.950 . S
C2601 C2618 1.574 . S
C2601 C2620 1.368 . S
C2601 H2625 0.949 . S
H2602 C2606 0.949 . S
C2603 C2604 1.349 . S
C2603 C2605 1.327 . S
C2603 H2626 0.950 . S
C2604 C2603 1.349 . S
C2604 C2616 1.349 . S
C2605 C2603 1.327 . S
C2605 C2621 1.429 . S
C2605 H2627 0.950 . S
C2606 H2602 0.949 . S
C2606 C2614 1.574 . S
C2606 C2622 1.368 . S
H2607 C2615 0.950 . S
H2608 C2613 0.950 . S
H2609 C2614 0.949 . S
H2610 C2616 0.950 . S
H2611 C2617 0.950 . S
H2612 C2618 0.949 . S
C2613 H2608 0.950 . S
C2613 C2615 1.327 . S
C2613 C2619 1.429 . S
C2614 C2606 1.574 . S
C2614 H2609 0.949 . S
C2614 C2620 1.368 . S
C2615 C2599 1.349 . S
C2615 H2607 0.950 . S
C2615 C2613 1.327 . S
C2616 C2604 1.349 . S
C2616 H2610 0.950 . S
C2616 C2617 1.327 . S
C2617 H2611 0.950 . S
C2617 C2616 1.327 . S
C2617 C2621 1.429 . S
C2618 C2601 1.574 . S
C2618 H2612 0.949 . S
C2618 C2622 1.368 . S
C2619 C2600 1.429 . S
C2619 C2613 1.429 . S
C2619 C2620 1.523 . S
C2620 C2601 1.368 . S
C2620 C2614 1.368 . S
C2620 C2619 1.523 . S
C2621 C2605 1.429 . S
C2621 C2617 1.429 . S
C2621 C2622 1.523 . S
C2622 C2606 1.368 . S
C2622 C2618 1.368 . S
C2622 C2621 1.523 . S
H2623 C2598 0.950 . S
H2624 C2600 0.950 . S
H2625 C2601 0.949 . S
H2626 C2603 0.950 . S
H2627 C2605 0.950 . S
C2628 C2629 1.349 . S
C2628 C2630 1.327 . S
C2628 H2653 0.950 . S
C2629 C2628 1.349 . S
C2629 C2645 1.349 . S
C2630 C2628 1.327 . S
C2630 C2649 1.429 . S
C2630 H2654 0.950 . S
C2631 C2648 1.574 . S
C2631 C2650 1.368 . S
C2631 H2655 0.949 . S
H2632 C2636 0.949 . S
C2633 C2634 1.349 . S
C2633 C2635 1.327 . S
C2633 H2656 0.950 . S
C2634 C2633 1.349 . S
C2634 C2646 1.349 . S
C2635 C2633 1.327 . S
C2635 C2651 1.429 . S
C2635 H2657 0.950 . S
C2636 H2632 0.949 . S
C2636 C2644 1.574 . S
C2636 C2652 1.368 . S
H2637 C2645 0.950 . S
H2638 C2643 0.950 . S
H2639 C2644 0.949 . S
H2640 C2646 0.950 . S
H2641 C2647 0.950 . S
H2642 C2648 0.949 . S
C2643 H2638 0.950 . S
C2643 C2645 1.327 . S
C2643 C2649 1.429 . S
C2644 C2636 1.574 . S
C2644 H2639 0.949 . S
C2644 C2650 1.368 . S
C2645 C2629 1.349 . S
C2645 H2637 0.950 . S
C2645 C2643 1.327 . S
C2646 C2634 1.349 . S
C2646 H2640 0.950 . S
C2646 C2647 1.327 . S
C2647 H2641 0.950 . S
C2647 C2646 1.327 . S
C2647 C2651 1.429 . S
C2648 C2631 1.574 . S
C2648 H2642 0.949 . S
C2648 C2652 1.368 . S
C2649 C2630 1.429 . S
C2649 C2643 1.429 . S
C2649 C2650 1.523 . S
C2650 C2631 1.368 . S
C2650 C2644 1.368 . S
C2650 C2649 1.523 . S
C2651 C2635 1.429 . S
C2651 C2647 1.429 . S
C2651 C2652 1.523 . S
C2652 C2636 1.368 . S
C2652 C2648 1.368 . S
C2652 C2651 1.523 . S
H2653 C2628 0.950 . S
H2654 C2630 0.950 . S
H2655 C2631 0.949 . S
H2656 C2633 0.950 . S
H2657 C2635 0.950 . S
C2658 C2659 1.349 . S
C2658 C2660 1.327 . S
C2658 H2683 0.950 . S
C2659 C2658 1.349 . S
C2659 C2675 1.349 . S
C2660 C2658 1.327 . S
C2660 C2679 1.429 . S
C2660 H2684 0.950 . S
C2661 C2678 1.574 . S
C2661 C2680 1.368 . S
C2661 H2685 0.949 . S
H2662 C2666 0.949 . S
C2663 C2664 1.349 . S
C2663 C2665 1.327 . S
C2663 H2686 0.950 . S
C2664 C2663 1.349 . S
C2664 C2676 1.349 . S
C2665 C2663 1.327 . S
C2665 C2681 1.429 . S
C2665 H2687 0.950 . S
C2666 H2662 0.949 . S
C2666 C2674 1.574 . S
C2666 C2682 1.368 . S
H2667 C2675 0.950 . S
H2668 C2673 0.950 . S
H2669 C2674 0.949 . S
H2670 C2676 0.950 . S
H2671 C2677 0.950 . S
H2672 C2678 0.949 . S
C2673 H2668 0.950 . S
C2673 C2675 1.327 . S
C2673 C2679 1.429 . S
C2674 C2666 1.574 . S
C2674 H2669 0.949 . S
C2674 C2680 1.368 . S
C2675 C2659 1.349 . S
C2675 H2667 0.950 . S
C2675 C2673 1.327 . S
C2676 C2664 1.349 . S
C2676 H2670 0.950 . S
C2676 C2677 1.327 . S
C2677 H2671 0.950 . S
C2677 C2676 1.327 . S
C2677 C2681 1.429 . S
C2678 C2661 1.574 . S
C2678 H2672 0.949 . S
C2678 C2682 1.368 . S
C2679 C2660 1.429 . S
C2679 C2673 1.429 . S
C2679 C2680 1.523 . S
C2680 C2661 1.368 . S
C2680 C2674 1.368 . S
C2680 C2679 1.523 . S
C2681 C2665 1.429 . S
C2681 C2677 1.429 . S
C2681 C2682 1.523 . S
C2682 C2666 1.368 . S
C2682 C2678 1.368 . S
C2682 C2681 1.523 . S
H2683 C2658 0.950 . S
H2684 C2660 0.950 . S
H2685 C2661 0.949 . S
H2686 C2663 0.950 . S
H2687 C2665 0.950 . S
C2688 C2689 1.349 . S
C2688 C2690 1.327 . S
C2688 H2713 0.950 . S
C2689 C2688 1.349 . S
C2689 C2705 1.314 1_554 S
C2690 C2688 1.327 . S
C2690 C2709 1.429 . S
C2690 H2714 0.950 . S
C2691 C2708 1.574 . S
C2691 C2710 1.368 . S
C2691 H2715 0.949 1_554 S
H2692 C2696 0.972 . S
C2693 C2694 1.349 1_565 S
C2693 C2695 1.327 . S
C2693 H2716 0.950 1_554 S
C2694 C2693 1.349 1_545 S
C2694 C2706 1.349 . S
C2695 C2693 1.327 . S
C2695 C2711 1.429 . S
C2695 H2717 0.950 1_554 S
C2696 H2692 0.972 . S
C2696 C2704 1.574 . S
C2696 C2712 1.368 . S
H2697 C2705 0.987 . S
H2698 C2703 0.950 . S
H2699 C2704 0.949 . S
H2700 C2706 0.950 . S
H2701 C2707 0.950 . S
H2702 C2708 0.949 1_556 S
C2703 H2698 0.950 . S
C2703 C2705 1.327 . S
C2703 C2709 1.428 1_556 S
C2704 C2696 1.574 . S
C2704 H2699 0.949 . S
C2704 C2710 1.368 . S
C2705 C2689 1.314 1_556 S
C2705 H2697 0.987 . S
C2705 C2703 1.327 . S
C2706 C2694 1.349 . S
C2706 H2700 0.950 . S
C2706 C2707 1.327 . S
C2707 H2701 0.950 . S
C2707 C2706 1.327 . S
C2707 C2711 1.429 1_545 S
C2708 C2691 1.574 . S
C2708 H2702 0.949 1_554 S
C2708 C2712 1.368 . S
C2709 C2690 1.429 . S
C2709 C2703 1.428 1_554 S
C2709 C2710 1.523 . S
C2710 C2691 1.368 . S
C2710 C2704 1.368 . S
C2710 C2709 1.523 . S
C2711 C2695 1.429 . S
C2711 C2707 1.429 1_565 S
C2711 C2712 1.523 . S
C2712 C2696 1.368 . S
C2712 C2708 1.368 . S
C2712 C2711 1.523 . S
H2713 C2688 0.950 . S
H2714 C2690 0.950 . S
H2715 C2691 0.949 1_556 S
H2716 C2693 0.950 1_556 S
H2717 C2695 0.950 1_556 S
C2718 C2719 1.349 1_554 S
C2718 C2720 1.327 . S
C2718 H2743 0.950 . S
C2719 C2718 1.349 1_556 S
C2719 C2735 1.349 . S
C2720 C2718 1.327 . S
C2720 C2739 1.429 1_554 S
C2720 H2744 0.950 . S
C2721 C2738 1.574 . S
C2721 C2740 1.415 . S
C2721 H2745 0.949 . S
H2722 C2726 0.949 . S
C2723 C2724 1.349 1_556 S
C2723 C2725 1.327 . S
C2723 H2746 0.950 . S
C2724 C2723 1.349 1_554 S
C2724 C2736 1.349 . S
C2725 C2723 1.327 . S
C2725 C2741 1.429 1_556 S
C2725 H2747 0.950 . S
C2726 H2722 0.949 . S
C2726 C2734 1.574 . S
C2726 C2742 1.393 . S
H2727 C2735 0.950 . S
H2728 C2733 0.950 . S
H2729 C2734 0.949 . S
H2730 C2736 0.950 . S
H2731 C2737 0.950 . S
H2732 C2738 0.949 . S
C2733 H2728 0.950 . S
C2733 C2735 1.327 . S
C2733 C2739 1.429 . S
C2734 C2726 1.574 . S
C2734 H2729 0.949 . S
C2734 C2740 1.314 1_554 S
C2735 C2719 1.349 . S
C2735 H2727 0.950 . S
C2735 C2733 1.327 . S
C2736 C2724 1.349 . S
C2736 H2730 0.950 . S
C2736 C2737 1.327 . S
C2737 H2731 0.950 . S
C2737 C2736 1.327 . S
C2737 C2741 1.429 . S
C2738 C2721 1.574 . S
C2738 H2732 0.949 . S
C2738 C2742 1.340 1_556 S
C2739 C2720 1.429 1_556 S
C2739 C2733 1.429 . S
C2739 C2740 1.535 . S
C2740 C2721 1.415 . S
C2740 C2734 1.314 1_556 S
C2740 C2739 1.535 . S
C2741 C2725 1.429 1_554 S
C2741 C2737 1.429 . S
C2741 C2742 1.529 . S
C2742 C2726 1.393 . S
C2742 C2738 1.340 1_554 S
C2742 C2741 1.529 . S
H2743 C2718 0.950 . S
H2744 C2720 0.950 . S
H2745 C2721 0.949 . S
H2746 C2723 0.950 . S
H2747 C2725 0.950 . S
C2748 C2749 1.349 . S
C2748 C2750 1.327 . S
C2748 H2773 0.950 . S
C2749 C2748 1.349 . S
C2749 C2765 1.349 . S
C2750 C2748 1.327 . S
C2750 C2769 1.429 . S
C2750 H2774 0.950 . S
C2751 C2768 1.574 . S
C2751 C2770 1.368 . S
C2751 H2775 0.949 . S
H2752 C2756 0.949 . S
C2753 C2754 1.349 . S
C2753 C2755 1.327 . S
C2753 H2776 0.950 . S
C2754 C2753 1.349 . S
C2754 C2766 1.349 . S
C2755 C2753 1.327 . S
C2755 C2771 1.429 . S
C2755 H2777 0.950 . S
C2756 H2752 0.949 . S
C2756 C2764 1.574 . S
C2756 C2772 1.368 . S
H2757 C2765 0.950 . S
H2758 C2763 0.950 . S
H2759 C2764 0.949 . S
H2760 C2766 0.950 . S
H2761 C2767 0.950 . S
H2762 C2768 0.949 . S
C2763 H2758 0.950 . S
C2763 C2765 1.327 . S
C2763 C2769 1.429 . S
C2764 C2756 1.574 . S
C2764 H2759 0.949 . S
C2764 C2770 1.368 . S
C2765 C2749 1.349 . S
C2765 H2757 0.950 . S
C2765 C2763 1.327 . S
C2766 C2754 1.349 . S
C2766 H2760 0.950 . S
C2766 C2767 1.327 . S
C2767 H2761 0.950 . S
C2767 C2766 1.327 . S
C2767 C2771 1.429 . S
C2768 C2751 1.574 . S
C2768 H2762 0.949 . S
C2768 C2772 1.368 . S
C2769 C2750 1.429 . S
C2769 C2763 1.429 . S
C2769 C2770 1.523 . S
C2770 C2751 1.368 . S
C2770 C2764 1.368 . S
C2770 C2769 1.523 . S
C2771 C2755 1.429 . S
C2771 C2767 1.429 . S
C2771 C2772 1.523 . S
C2772 C2756 1.368 . S
C2772 C2768 1.368 . S
C2772 C2771 1.523 . S
H2773 C2748 0.950 . S
H2774 C2750 0.950 . S
H2775 C2751 0.949 . S
H2776 C2753 0.950 . S
H2777 C2755 0.950 . S
C2778 C2779 1.349 . S
C2778 C2780 1.327 . S
C2778 H2803 0.950 . S
C2779 C2778 1.349 . S
C2779 C2795 1.349 . S
C2780 C2778 1.327 . S
C2780 C2799 1.429 . S
C2780 H2804 0.950 . S
C2781 C2798 1.574 . S
C2781 C2800 1.368 . S
C2781 H2805 0.949 . S
H2782 C2786 0.949 . S
C2783 C2784 1.349 . S
C2783 C2785 1.327 1_455 S
C2783 H2806 0.950 . S
C2784 C2783 1.349 . S
C2784 C2796 1.349 . S
C2785 C2783 1.327 1_655 S
C2785 C2801 1.429 . S
C2785 H2807 0.950 . S
C2786 H2782 0.949 . S
C2786 C2794 1.574 . S
C2786 C2802 1.368 . S
H2787 C2795 0.950 . S
H2788 C2793 0.950 . S
H2789 C2794 0.949 . S
H2790 C2796 0.950 . S
H2791 C2797 0.950 . S
H2792 C2798 0.949 . S
C2793 H2788 0.950 . S
C2793 C2795 1.327 . S
C2793 C2799 1.429 . S
C2794 C2786 1.574 . S
C2794 H2789 0.949 . S
C2794 C2800 1.368 . S
C2795 C2779 1.349 . S
C2795 H2787 0.950 . S
C2795 C2793 1.327 . S
C2796 C2784 1.349 . S
C2796 H2790 0.950 . S
C2796 C2797 1.327 1_455 S
C2797 H2791 0.950 . S
C2797 C2796 1.327 1_655 S
C2797 C2801 1.429 . S
C2798 C2781 1.574 . S
C2798 H2792 0.949 . S
C2798 C2802 1.368 . S
C2799 C2780 1.429 . S
C2799 C2793 1.429 . S
C2799 C2800 1.523 . S
C2800 C2781 1.368 . S
C2800 C2794 1.368 . S
C2800 C2799 1.523 . S
C2801 C2785 1.429 . S
C2801 C2797 1.429 . S
C2801 C2802 1.523 . S
C2802 C2786 1.368 . S
C2802 C2798 1.368 . S
C2802 C2801 1.523 . S
H2803 C2778 0.950 . S
H2804 C2780 0.950 . S
H2805 C2781 0.949 . S
H2806 C2783 0.950 . S
H2807 C2785 0.950 . S
C2808 C2809 1.349 . S
C2808 C2810 1.327 . S
C2808 H2833 0.950 . S
C2809 C2808 1.349 . S
C2809 C2825 1.349 . S
C2810 C2808 1.327 . S
C2810 C2829 1.429 . S
C2810 H2834 0.950 . S
C2811 C2828 1.574 . S
C2811 C2830 1.368 . S
C2811 H2835 0.949 . S
H2812 C2816 0.949 . S
C2813 C2814 1.349 . S
C2813 C2815 1.327 . S
C2813 H2836 0.950 . S
C2814 C2813 1.349 . S
C2814 C2826 1.349 . S
C2815 C2813 1.327 . S
C2815 C2831 1.429 . S
C2815 H2837 0.950 . S
C2816 H2812 0.949 . S
C2816 C2824 1.574 . S
C2816 C2832 1.368 . S
H2817 C2825 0.950 . S
H2818 C2823 0.950 . S
H2819 C2824 0.949 . S
H2820 C2826 0.950 . S
H2821 C2827 0.950 . S
H2822 C2828 0.949 . S
C2823 H2818 0.950 . S
C2823 C2825 1.327 . S
C2823 C2829 1.429 . S
C2824 C2816 1.574 . S
C2824 H2819 0.949 . S
C2824 C2830 1.368 . S
C2825 C2809 1.349 . S
C2825 H2817 0.950 . S
C2825 C2823 1.327 . S
C2826 C2814 1.349 . S
C2826 H2820 0.950 . S
C2826 C2827 1.327 . S
C2827 H2821 0.950 . S
C2827 C2826 1.327 . S
C2827 C2831 1.429 . S
C2828 C2811 1.574 . S
C2828 H2822 0.949 . S
C2828 C2832 1.368 . S
C2829 C2810 1.429 . S
C2829 C2823 1.429 . S
C2829 C2830 1.523 . S
C2830 C2811 1.368 . S
C2830 C2824 1.368 . S
C2830 C2829 1.523 . S
C2831 C2815 1.429 . S
C2831 C2827 1.429 . S
C2831 C2832 1.523 . S
C2832 C2816 1.368 . S
C2832 C2828 1.368 . S
C2832 C2831 1.523 . S
H2833 C2808 0.950 . S
H2834 C2810 0.950 . S
H2835 C2811 0.949 . S
H2836 C2813 0.950 . S
H2837 C2815 0.950 . S
C2838 C2839 1.349 . S
C2838 C2840 1.327 . S
C2838 H2863 0.950 . S
C2839 C2838 1.349 . S
C2839 C2855 1.349 . S
C2840 C2838 1.327 . S
C2840 C2859 1.429 . S
C2840 H2864 0.950 . S
C2841 C2858 1.574 . S
C2841 C2860 1.368 . S
C2841 H2865 0.949 . S
H2842 C2846 0.949 . S
C2843 C2844 1.349 . S
C2843 C2845 1.327 . S
C2843 H2866 0.950 . S
C2844 C2843 1.349 . S
C2844 C2856 1.349 . S
C2845 C2843 1.327 . S
C2845 C2861 1.429 . S
C2845 H2867 0.950 . S
C2846 H2842 0.949 . S
C2846 C2854 1.574 . S
C2846 C2862 1.368 . S
H2847 C2855 0.950 . S
H2848 C2853 0.950 . S
H2849 C2854 0.949 . S
H2850 C2856 0.950 . S
H2851 C2857 0.950 . S
H2852 C2858 0.949 . S
C2853 H2848 0.950 . S
C2853 C2855 1.327 . S
C2853 C2859 1.429 . S
C2854 C2846 1.574 . S
C2854 H2849 0.949 . S
C2854 C2860 1.368 . S
C2855 C2839 1.349 . S
C2855 H2847 0.950 . S
C2855 C2853 1.327 . S
C2856 C2844 1.349 . S
C2856 H2850 0.950 . S
C2856 C2857 1.327 . S
C2857 H2851 0.950 . S
C2857 C2856 1.327 . S
C2857 C2861 1.429 . S
C2858 C2841 1.574 . S
C2858 H2852 0.949 . S
C2858 C2862 1.368 . S
C2859 C2840 1.429 . S
C2859 C2853 1.429 . S
C2859 C2860 1.523 . S
C2860 C2841 1.368 . S
C2860 C2854 1.368 . S
C2860 C2859 1.523 . S
C2861 C2845 1.429 . S
C2861 C2857 1.429 . S
C2861 C2862 1.523 . S
C2862 C2846 1.368 . S
C2862 C2858 1.368 . S
C2862 C2861 1.523 . S
H2863 C2838 0.950 . S
H2864 C2840 0.950 . S
H2865 C2841 0.949 . S
H2866 C2843 0.950 . S
H2867 C2845 0.950 . S
C2868 C2869 1.349 . S
C2868 C2870 1.327 . S
C2868 H2893 0.950 . S
C2869 C2868 1.349 . S
C2869 C2885 1.349 . S
C2870 C2868 1.327 . S
C2870 C2889 1.429 . S
C2870 H2894 0.950 . S
C2871 C2888 1.574 . S
C2871 C2890 1.368 . S
C2871 H2895 0.949 . S
H2872 C2876 0.949 . S
C2873 C2874 1.349 . S
C2873 C2875 1.327 . S
C2873 H2896 0.950 . S
C2874 C2873 1.349 . S
C2874 C2886 1.349 . S
C2875 C2873 1.327 . S
C2875 C2891 1.429 . S
C2875 H2897 0.950 . S
C2876 H2872 0.949 . S
C2876 C2884 1.574 . S
C2876 C2892 1.368 . S
H2877 C2885 0.950 . S
H2878 C2883 0.950 . S
H2879 C2884 0.949 . S
H2880 C2886 0.950 . S
H2881 C2887 0.950 . S
H2882 C2888 0.949 . S
C2883 H2878 0.950 . S
C2883 C2885 1.327 . S
C2883 C2889 1.429 . S
C2884 C2876 1.574 . S
C2884 H2879 0.949 . S
C2884 C2890 1.368 . S
C2885 C2869 1.349 . S
C2885 H2877 0.950 . S
C2885 C2883 1.327 . S
C2886 C2874 1.349 . S
C2886 H2880 0.950 . S
C2886 C2887 1.327 . S
C2887 H2881 0.950 . S
C2887 C2886 1.327 . S
C2887 C2891 1.429 . S
C2888 C2871 1.574 . S
C2888 H2882 0.949 . S
C2888 C2892 1.368 . S
C2889 C2870 1.429 . S
C2889 C2883 1.429 . S
C2889 C2890 1.523 . S
C2890 C2871 1.368 . S
C2890 C2884 1.368 . S
C2890 C2889 1.523 . S
C2891 C2875 1.429 . S
C2891 C2887 1.429 . S
C2891 C2892 1.523 . S
C2892 C2876 1.368 . S
C2892 C2888 1.368 . S
C2892 C2891 1.523 . S
H2893 C2868 0.950 . S
H2894 C2870 0.950 . S
H2895 C2871 0.949 . S
H2896 C2873 0.950 . S
H2897 C2875 0.950 . S
C2898 C2899 1.349 . S
C2898 C2900 1.327 . S
C2898 H2923 0.950 . S
C2899 C2898 1.349 . S
C2899 C2915 1.349 . S
C2900 C2898 1.327 . S
C2900 C2919 1.429 . S
C2900 H2924 0.950 . S
C2901 C2918 1.574 . S
C2901 C2920 1.368 . S
C2901 H2925 0.949 . S
H2902 C2906 0.949 . S
C2903 C2904 1.349 . S
C2903 C2905 1.327 . S
C2903 H2926 0.950 . S
C2904 C2903 1.349 . S
C2904 C2916 1.349 . S
C2905 C2903 1.327 . S
C2905 C2921 1.429 . S
C2905 H2927 0.950 . S
C2906 H2902 0.949 . S
C2906 C2914 1.574 . S
C2906 C2922 1.368 . S
H2907 C2915 0.950 . S
H2908 C2913 0.950 . S
H2909 C2914 0.949 . S
H2910 C2916 0.950 . S
H2911 C2917 0.950 . S
H2912 C2918 0.949 . S
C2913 H2908 0.950 . S
C2913 C2915 1.327 . S
C2913 C2919 1.429 . S
C2914 C2906 1.574 . S
C2914 H2909 0.949 . S
C2914 C2920 1.368 . S
C2915 C2899 1.349 . S
C2915 H2907 0.950 . S
C2915 C2913 1.327 . S
C2916 C2904 1.349 . S
C2916 H2910 0.950 . S
C2916 C2917 1.327 . S
C2917 H2911 0.950 . S
C2917 C2916 1.327 . S
C2917 C2921 1.429 . S
C2918 C2901 1.574 . S
C2918 H2912 0.949 . S
C2918 C2922 1.368 . S
C2919 C2900 1.429 . S
C2919 C2913 1.429 . S
C2919 C2920 1.523 . S
C2920 C2901 1.368 . S
C2920 C2914 1.368 . S
C2920 C2919 1.523 . S
C2921 C2905 1.429 . S
C2921 C2917 1.429 . S
C2921 C2922 1.523 . S
C2922 C2906 1.368 . S
C2922 C2918 1.368 . S
C2922 C2921 1.523 . S
H2923 C2898 0.950 . S
H2924 C2900 0.950 . S
H2925 C2901 0.949 . S
H2926 C2903 0.950 . S
H2927 C2905 0.950 . S
C2928 C2929 1.349 . S
C2928 C2930 1.327 . S
C2928 H2953 0.950 . S
C2929 C2928 1.349 . S
C2929 C2945 1.349 . S
C2930 C2928 1.327 . S
C2930 C2949 1.429 . S
C2930 H2954 0.950 . S
C2931 C2948 1.574 . S
C2931 C2950 1.368 . S
C2931 H2955 0.949 . S
H2932 C2936 0.949 . S
C2933 C2934 1.349 . S
C2933 C2935 1.327 . S
C2933 H2956 0.950 . S
C2934 C2933 1.349 . S
C2934 C2946 1.349 . S
C2935 C2933 1.327 . S
C2935 C2951 1.429 . S
C2935 H2957 0.950 . S
C2936 H2932 0.949 . S
C2936 C2944 1.574 . S
C2936 C2952 1.368 . S
H2937 C2945 0.950 . S
H2938 C2943 0.950 . S
H2939 C2944 0.949 . S
H2940 C2946 0.950 1_556 S
H2941 C2947 0.950 . S
H2942 C2948 0.949 . S
C2943 H2938 0.950 . S
C2943 C2945 1.327 . S
C2943 C2949 1.429 . S
C2944 C2936 1.574 . S
C2944 H2939 0.949 . S
C2944 C2950 1.368 . S
C2945 C2929 1.349 . S
C2945 H2937 0.950 . S
C2945 C2943 1.327 . S
C2946 C2934 1.349 . S
C2946 H2940 0.950 1_554 S
C2946 C2947 1.327 . S
C2947 H2941 0.950 . S
C2947 C2946 1.327 . S
C2947 C2951 1.429 . S
C2948 C2931 1.574 . S
C2948 H2942 0.949 . S
C2948 C2952 1.368 . S
C2949 C2930 1.429 . S
C2949 C2943 1.429 . S
C2949 C2950 1.523 . S
C2950 C2931 1.368 . S
C2950 C2944 1.368 . S
C2950 C2949 1.523 . S
C2951 C2935 1.429 . S
C2951 C2947 1.429 . S
C2951 C2952 1.523 . S
C2952 C2936 1.368 . S
C2952 C2948 1.368 . S
C2952 C2951 1.523 . S
H2953 C2928 0.950 . S
H2954 C2930 0.950 . S
H2955 C2931 0.949 . S
H2956 C2933 0.950 . S
H2957 C2935 0.950 . S
C2958 C2959 1.349 . S
C2958 C2960 1.327 . S
C2958 H2983 0.950 . S
C2959 C2958 1.349 . S
C2959 C2975 1.349 . S
C2960 C2958 1.327 . S
C2960 C2979 1.429 . S
C2960 H2984 0.950 . S
C2961 C2978 1.574 . S
C2961 C2980 1.368 . S
C2961 H2985 0.949 . S
H2962 C2966 0.949 . S
C2963 C2964 1.349 . S
C2963 C2965 1.327 . S
C2963 H2986 0.950 . S
C2964 C2963 1.349 . S
C2964 C2976 1.349 . S
C2965 C2963 1.327 . S
C2965 C2981 1.429 . S
C2965 H2987 0.950 . S
C2966 H2962 0.949 . S
C2966 C2974 1.574 . S
C2966 C2982 1.368 . S
H2967 C2975 0.950 . S
H2968 C2973 0.950 . S
H2969 C2974 0.949 . S
H2970 C2976 0.950 . S
H2971 C2977 0.950 . S
H2972 C2978 0.949 . S
C2973 H2968 0.950 . S
C2973 C2975 1.327 . S
C2973 C2979 1.429 . S
C2974 C2966 1.574 . S
C2974 H2969 0.949 . S
C2974 C2980 1.368 . S
C2975 C2959 1.349 . S
C2975 H2967 0.950 . S
C2975 C2973 1.327 . S
C2976 C2964 1.349 . S
C2976 H2970 0.950 . S
C2976 C2977 1.327 . S
C2977 H2971 0.950 . S
C2977 C2976 1.327 . S
C2977 C2981 1.429 . S
C2978 C2961 1.574 . S
C2978 H2972 0.949 . S
C2978 C2982 1.368 . S
C2979 C2960 1.429 . S
C2979 C2973 1.429 . S
C2979 C2980 1.523 . S
C2980 C2961 1.368 . S
C2980 C2974 1.368 . S
C2980 C2979 1.523 . S
C2981 C2965 1.429 . S
C2981 C2977 1.429 . S
C2981 C2982 1.523 . S
C2982 C2966 1.368 . S
C2982 C2978 1.368 . S
C2982 C2981 1.523 . S
H2983 C2958 0.950 . S
H2984 C2960 0.950 . S
H2985 C2961 0.949 . S
H2986 C2963 0.950 . S
H2987 C2965 0.950 . S
C2988 C2989 1.349 . S
C2988 C2990 1.327 . S
C2988 H3013 0.950 . S
C2989 C2988 1.349 . S
C2989 C3005 1.349 . S
C2990 C2988 1.327 . S
C2990 C3009 1.429 . S
C2990 H3014 0.950 . S
C2991 C3008 1.574 . S
C2991 C3010 1.368 . S
C2991 H3015 0.949 . S
H2992 C2996 0.949 . S
C2993 C2994 1.349 . S
C2993 C2995 1.327 . S
C2993 H3016 0.950 . S
C2994 C2993 1.349 . S
C2994 C3006 1.349 . S
C2995 C2993 1.327 . S
C2995 C3011 1.429 . S
C2995 H3017 0.950 . S
C2996 H2992 0.949 . S
C2996 C3004 1.574 . S
C2996 C3012 1.368 . S
H2997 C3005 0.950 . S
H2998 C3003 0.950 . S
H2999 C3004 0.949 . S
H3000 C3006 0.950 . S
H3001 C3007 0.950 . S
H3002 C3008 0.949 . S
C3003 H2998 0.950 . S
C3003 C3005 1.327 . S
C3003 C3009 1.429 . S
C3004 C2996 1.574 . S
C3004 H2999 0.949 . S
C3004 C3010 1.368 . S
C3005 C2989 1.349 . S
C3005 H2997 0.950 . S
C3005 C3003 1.327 . S
C3006 C2994 1.349 . S
C3006 H3000 0.950 . S
C3006 C3007 1.327 . S
C3007 H3001 0.950 . S
C3007 C3006 1.327 . S
C3007 C3011 1.429 . S
C3008 C2991 1.574 . S
C3008 H3002 0.949 . S
C3008 C3012 1.368 . S
C3009 C2990 1.429 . S
C3009 C3003 1.429 . S
C3009 C3010 1.523 . S
C3010 C2991 1.368 . S
C3010 C3004 1.368 . S
C3010 C3009 1.523 . S
C3011 C2995 1.429 . S
C3011 C3007 1.429 . S
C3011 C3012 1.523 . S
C3012 C2996 1.368 . S
C3012 C3008 1.368 . S
C3012 C3011 1.523 . S
H3013 C2988 0.950 . S
H3014 C2990 0.950 . S
H3015 C2991 0.949 . S
H3016 C2993 0.950 . S
H3017 C2995 0.950 . S
C3018 C3019 1.349 . S
C3018 C3020 1.327 . S
C3018 H3043 0.950 . S
C3019 C3018 1.349 . S
C3019 C3035 1.349 . S
C3020 C3018 1.327 . S
C3020 C3039 1.429 . S
C3020 H3044 0.950 . S
C3021 C3038 1.574 . S
C3021 C3040 1.368 . S
C3021 H3045 0.949 . S
H3022 C3026 0.949 . S
C3023 C3024 1.349 . S
C3023 C3025 1.327 . S
C3023 H3046 0.950 . S
C3024 C3023 1.349 . S
C3024 C3036 1.349 . S
C3025 C3023 1.327 . S
C3025 C3041 1.429 . S
C3025 H3047 0.950 . S
C3026 H3022 0.949 . S
C3026 C3034 1.574 . S
C3026 C3042 1.368 . S
H3027 C3035 0.950 . S
H3028 C3033 0.950 . S
H3029 C3034 0.949 . S
H3030 C3036 0.950 . S
H3031 C3037 0.950 . S
H3032 C3038 0.949 . S
C3033 H3028 0.950 . S
C3033 C3035 1.327 . S
C3033 C3039 1.429 . S
C3034 C3026 1.574 . S
C3034 H3029 0.949 . S
C3034 C3040 1.368 . S
C3035 C3019 1.349 . S
C3035 H3027 0.950 . S
C3035 C3033 1.327 . S
C3036 C3024 1.349 . S
C3036 H3030 0.950 . S
C3036 C3037 1.327 . S
C3037 H3031 0.950 . S
C3037 C3036 1.327 . S
C3037 C3041 1.429 . S
C3038 C3021 1.574 . S
C3038 H3032 0.949 . S
C3038 C3042 1.368 . S
C3039 C3020 1.429 . S
C3039 C3033 1.429 . S
C3039 C3040 1.523 . S
C3040 C3021 1.368 . S
C3040 C3034 1.368 . S
C3040 C3039 1.523 . S
C3041 C3025 1.429 . S
C3041 C3037 1.429 . S
C3041 C3042 1.523 . S
C3042 C3026 1.368 . S
C3042 C3038 1.368 . S
C3042 C3041 1.523 . S
H3043 C3018 0.950 . S
H3044 C3020 0.950 . S
H3045 C3021 0.949 . S
H3046 C3023 0.950 . S
H3047 C3025 0.950 . S
C3048 C3049 1.349 . S
C3048 C3050 1.327 . S
C3048 H3073 0.950 . S
C3049 C3048 1.349 . S
C3049 C3065 1.349 . S
C3050 C3048 1.327 . S
C3050 C3069 1.429 . S
C3050 H3074 0.950 . S
C3051 C3068 1.574 . S
C3051 C3070 1.368 . S
C3051 H3075 0.949 . S
H3052 C3056 0.949 . S
C3053 C3054 1.349 . S
C3053 C3055 1.327 . S
C3053 H3076 0.950 . S
C3054 C3053 1.349 . S
C3054 C3066 1.349 . S
C3055 C3053 1.327 . S
C3055 C3071 1.429 . S
C3055 H3077 0.950 . S
C3056 H3052 0.949 . S
C3056 C3064 1.574 . S
C3056 C3072 1.368 . S
H3057 C3065 0.950 . S
H3058 C3063 0.950 . S
H3059 C3064 0.949 . S
H3060 C3066 0.950 . S
H3061 C3067 0.950 . S
H3062 C3068 0.949 . S
C3063 H3058 0.950 . S
C3063 C3065 1.327 . S
C3063 C3069 1.429 . S
C3064 C3056 1.574 . S
C3064 H3059 0.949 . S
C3064 C3070 1.368 . S
C3065 C3049 1.349 . S
C3065 H3057 0.950 . S
C3065 C3063 1.327 . S
C3066 C3054 1.349 . S
C3066 H3060 0.950 . S
C3066 C3067 1.327 . S
C3067 H3061 0.950 . S
C3067 C3066 1.327 . S
C3067 C3071 1.429 . S
C3068 C3051 1.574 . S
C3068 H3062 0.949 . S
C3068 C3072 1.368 . S
C3069 C3050 1.429 . S
C3069 C3063 1.429 . S
C3069 C3070 1.523 . S
C3070 C3051 1.368 . S
C3070 C3064 1.368 . S
C3070 C3069 1.523 . S
C3071 C3055 1.429 . S
C3071 C3067 1.429 . S
C3071 C3072 1.523 . S
C3072 C3056 1.368 . S
C3072 C3068 1.368 . S
C3072 C3071 1.523 . S
H3073 C3048 0.950 . S
H3074 C3050 0.950 . S
H3075 C3051 0.949 . S
H3076 C3053 0.950 . S
H3077 C3055 0.950 . S
C3078 C3079 1.349 . S
C3078 C3080 1.327 . S
C3078 H3103 0.950 . S
C3079 C3078 1.349 . S
C3079 C3095 1.349 . S
C3080 C3078 1.327 . S
C3080 C3099 1.429 . S
C3080 H3104 0.950 . S
C3081 C3098 1.574 . S
C3081 C3100 1.368 . S
C3081 H3105 0.949 . S
H3082 C3086 0.949 . S
C3083 C3084 1.349 . S
C3083 C3085 1.327 . S
C3083 H3106 0.950 . S
C3084 C3083 1.349 . S
C3084 C3096 1.349 . S
C3085 C3083 1.327 . S
C3085 C3101 1.429 . S
C3085 H3107 0.950 . S
C3086 H3082 0.949 . S
C3086 C3094 1.574 . S
C3086 C3102 1.368 . S
H3087 C3095 0.950 . S
H3088 C3093 0.950 . S
H3089 C3094 0.949 . S
H3090 C3096 0.950 . S
H3091 C3097 0.950 . S
H3092 C3098 0.949 . S
C3093 H3088 0.950 . S
C3093 C3095 1.327 . S
C3093 C3099 1.429 . S
C3094 C3086 1.574 . S
C3094 H3089 0.949 . S
C3094 C3100 1.368 . S
C3095 C3079 1.349 . S
C3095 H3087 0.950 . S
C3095 C3093 1.327 . S
C3096 C3084 1.349 . S
C3096 H3090 0.950 . S
C3096 C3097 1.327 . S
C3097 H3091 0.950 . S
C3097 C3096 1.327 . S
C3097 C3101 1.429 . S
C3098 C3081 1.574 . S
C3098 H3092 0.949 . S
C3098 C3102 1.368 . S
C3099 C3080 1.429 . S
C3099 C3093 1.429 . S
C3099 C3100 1.523 . S
C3100 C3081 1.368 . S
C3100 C3094 1.368 . S
C3100 C3099 1.523 . S
C3101 C3085 1.429 . S
C3101 C3097 1.429 . S
C3101 C3102 1.523 . S
C3102 C3086 1.368 . S
C3102 C3098 1.368 . S
C3102 C3101 1.523 . S
H3103 C3078 0.950 . S
H3104 C3080 0.950 . S
H3105 C3081 0.949 . S
H3106 C3083 0.950 . S
H3107 C3085 0.950 . S
C3108 C3109 1.349 . S
C3108 C3110 1.327 . S
C3108 H3133 0.950 . S
C3109 C3108 1.349 . S
C3109 C3125 1.349 . S
C3110 C3108 1.327 . S
C3110 C3129 1.429 . S
C3110 H3134 0.950 . S
C3111 C3128 1.574 . S
C3111 C3130 1.368 . S
C3111 H3135 0.949 . S
H3112 C3116 0.949 . S
C3113 C3114 1.349 1_564 S
C3113 C3115 1.327 1_554 S
C3113 H3136 0.950 . S
C3114 C3113 1.349 1_546 S
C3114 C3126 1.349 1_545 S
C3115 C3113 1.327 1_556 S
C3115 C3131 1.429 . S
C3115 H3137 0.947 1_556 S
C3116 H3112 0.949 . S
C3116 C3124 1.574 . S
C3116 C3132 1.368 . S
H3117 C3125 0.950 . S
H3118 C3123 0.950 . S
H3119 C3124 0.949 . S
H3120 C3126 0.950 1_545 S
H3121 C3127 0.950 . S
H3122 C3128 0.949 . S
C3123 H3118 0.950 . S
C3123 C3125 1.327 . S
C3123 C3129 1.429 . S
C3124 C3116 1.574 . S
C3124 H3119 0.949 . S
C3124 C3130 1.368 . S
C3125 C3109 1.349 . S
C3125 H3117 0.950 . S
C3125 C3123 1.327 . S
C3126 C3114 1.349 1_565 S
C3126 H3120 0.950 1_565 S
C3126 C3127 1.327 . S
C3127 H3121 0.950 . S
C3127 C3126 1.327 . S
C3127 C3131 1.429 . S
C3128 C3111 1.574 . S
C3128 H3122 0.949 . S
C3128 C3132 1.368 . S
C3129 C3110 1.429 . S
C3129 C3123 1.429 . S
C3129 C3130 1.523 . S
C3130 C3111 1.368 . S
C3130 C3124 1.368 . S
C3130 C3129 1.523 . S
C3131 C3115 1.429 . S
C3131 C3127 1.429 . S
C3131 C3132 1.523 . S
C3132 C3116 1.368 . S
C3132 C3128 1.368 . S
C3132 C3131 1.523 . S
H3133 C3108 0.950 . S
H3134 C3110 0.950 . S
H3135 C3111 0.949 . S
H3136 C3113 0.950 . S
H3137 C3115 0.947 1_554 S
C3138 C3139 1.349 . S
C3138 C3140 1.327 . S
C3138 H3163 0.950 . S
C3139 C3138 1.349 . S
C3139 C3155 1.349 . S
C3140 C3138 1.327 . S
C3140 C3159 1.429 . S
C3140 H3164 0.950 . S
C3141 C3158 1.574 . S
C3141 C3160 1.368 . S
C3141 H3165 0.949 . S
H3142 C3146 0.949 . S
C3143 C3144 1.349 . S
C3143 C3145 1.327 . S
C3143 H3166 0.950 . S
C3144 C3143 1.349 . S
C3144 C3156 1.349 . S
C3145 C3143 1.327 . S
C3145 C3161 1.429 . S
C3145 H3167 0.950 . S
C3146 H3142 0.949 . S
C3146 C3154 1.574 . S
C3146 C3162 1.368 . S
H3147 C3155 0.950 . S
H3148 C3153 0.950 . S
H3149 C3154 0.949 . S
H3150 C3156 0.950 . S
H3151 C3157 0.950 . S
H3152 C3158 0.949 . S
C3153 H3148 0.950 . S
C3153 C3155 1.327 . S
C3153 C3159 1.429 . S
C3154 C3146 1.574 . S
C3154 H3149 0.949 . S
C3154 C3160 1.368 . S
C3155 C3139 1.349 . S
C3155 H3147 0.950 . S
C3155 C3153 1.327 . S
C3156 C3144 1.349 . S
C3156 H3150 0.950 . S
C3156 C3157 1.327 . S
C3157 H3151 0.950 . S
C3157 C3156 1.327 . S
C3157 C3161 1.429 . S
C3158 C3141 1.574 . S
C3158 H3152 0.949 . S
C3158 C3162 1.368 . S
C3159 C3140 1.429 . S
C3159 C3153 1.429 . S
C3159 C3160 1.523 . S
C3160 C3141 1.368 . S
C3160 C3154 1.368 . S
C3160 C3159 1.523 . S
C3161 C3145 1.429 . S
C3161 C3157 1.429 . S
C3161 C3162 1.523 . S
C3162 C3146 1.368 . S
C3162 C3158 1.368 . S
C3162 C3161 1.523 . S
H3163 C3138 0.950 . S
H3164 C3140 0.950 . S
H3165 C3141 0.949 . S
H3166 C3143 0.950 . S
H3167 C3145 0.950 . S
C3168 C3169 1.349 1_565 S
C3168 C3170 1.327 . S
C3168 H3193 0.950 . S
C3169 C3168 1.349 1_545 S
C3169 C3185 1.349 . S
C3170 C3168 1.327 . S
C3170 C3189 1.429 1_565 S
C3170 H3194 0.950 . S
C3171 C3188 1.574 . S
C3171 C3190 1.368 . S
C3171 H3195 0.949 . S
H3172 C3176 0.949 . S
C3173 C3174 1.349 . S
C3173 C3175 1.327 . S
C3173 H3196 0.950 . S
C3174 C3173 1.349 . S
C3174 C3186 1.322 1_545 S
C3175 C3173 1.327 . S
C3175 C3191 1.429 . S
C3175 H3197 0.950 . S
C3176 H3172 0.949 . S
C3176 C3184 1.574 . S
C3176 C3192 1.368 1_565 S
H3177 C3185 0.950 . S
H3178 C3183 0.950 . S
H3179 C3184 0.949 . S
H3180 C3186 0.977 . S
H3181 C3187 0.950 . S
H3182 C3188 0.949 . S
C3183 H3178 0.950 . S
C3183 C3185 1.327 . S
C3183 C3189 1.429 . S
C3184 C3176 1.574 . S
C3184 H3179 0.949 . S
C3184 C3190 1.368 1_565 S
C3185 C3169 1.349 . S
C3185 H3177 0.950 . S
C3185 C3183 1.327 . S
C3186 C3174 1.322 1_565 S
C3186 H3180 0.977 . S
C3186 C3187 1.328 . S
C3187 H3181 0.950 . S
C3187 C3186 1.328 . S
C3187 C3191 1.429 1_565 S
C3188 C3171 1.574 . S
C3188 H3182 0.949 . S
C3188 C3192 1.368 . S
C3189 C3170 1.429 1_545 S
C3189 C3183 1.429 . S
C3189 C3190 1.523 . S
C3190 C3171 1.368 . S
C3190 C3184 1.368 1_545 S
C3190 C3189 1.523 . S
C3191 C3175 1.429 . S
C3191 C3187 1.429 1_545 S
C3191 C3192 1.523 . S
C3192 C3176 1.368 1_545 S
C3192 C3188 1.368 . S
C3192 C3191 1.523 . S
H3193 C3168 0.950 . S
H3194 C3170 0.950 . S
H3195 C3171 0.949 . S
H3196 C3173 0.950 . S
H3197 C3175 0.950 . S
C3198 C3199 1.349 . S
C3198 C3200 1.327 . S
C3198 H3223 0.950 . S
C3199 C3198 1.349 . S
C3199 C3215 1.349 . S
C3200 C3198 1.327 . S
C3200 C3219 1.429 . S
C3200 H3224 0.950 . S
C3201 C3218 1.574 . S
C3201 C3220 1.368 . S
C3201 H3225 0.949 . S
H3202 C3206 0.949 . S
C3203 C3204 1.349 . S
C3203 C3205 1.327 . S
C3203 H3226 0.950 . S
C3204 C3203 1.349 . S
C3204 C3216 1.349 . S
C3205 C3203 1.327 . S
C3205 C3221 1.429 . S
C3205 H3227 0.950 . S
C3206 H3202 0.949 . S
C3206 C3214 1.574 . S
C3206 C3222 1.368 . S
H3207 C3215 0.950 . S
H3208 C3213 0.950 . S
H3209 C3214 0.949 . S
H3210 C3216 0.950 . S
H3211 C3217 0.950 . S
H3212 C3218 0.949 . S
C3213 H3208 0.950 . S
C3213 C3215 1.327 . S
C3213 C3219 1.429 . S
C3214 C3206 1.574 . S
C3214 H3209 0.949 . S
C3214 C3220 1.368 . S
C3215 C3199 1.349 . S
C3215 H3207 0.950 . S
C3215 C3213 1.327 . S
C3216 C3204 1.349 . S
C3216 H3210 0.950 . S
C3216 C3217 1.327 . S
C3217 H3211 0.950 . S
C3217 C3216 1.327 . S
C3217 C3221 1.429 . S
C3218 C3201 1.574 . S
C3218 H3212 0.949 . S
C3218 C3222 1.368 . S
C3219 C3200 1.429 . S
C3219 C3213 1.429 . S
C3219 C3220 1.523 . S
C3220 C3201 1.368 . S
C3220 C3214 1.368 . S
C3220 C3219 1.523 . S
C3221 C3205 1.429 . S
C3221 C3217 1.429 . S
C3221 C3222 1.523 . S
C3222 C3206 1.368 . S
C3222 C3218 1.368 . S
C3222 C3221 1.523 . S
H3223 C3198 0.950 . S
H3224 C3200 0.950 . S
H3225 C3201 0.949 . S
H3226 C3203 0.950 . S
H3227 C3205 0.950 . S
C3228 C3229 1.349 . S
C3228 C3230 1.327 . S
C3228 H3253 0.950 . S
C3229 C3228 1.349 . S
C3229 C3245 1.349 . S
C3230 C3228 1.327 . S
C3230 C3249 1.429 . S
C3230 H3254 0.950 . S
C3231 C3248 1.574 . S
C3231 C3250 1.368 . S
C3231 H3255 0.949 . S
H3232 C3236 0.949 . S
C3233 C3234 1.349 . S
C3233 C3235 1.327 . S
C3233 H3256 0.950 . S
C3234 C3233 1.349 . S
C3234 C3246 1.349 . S
C3235 C3233 1.327 . S
C3235 C3251 1.429 . S
C3235 H3257 0.950 . S
C3236 H3232 0.949 . S
C3236 C3244 1.574 . S
C3236 C3252 1.368 . S
H3237 C3245 0.950 . S
H3238 C3243 0.950 . S
H3239 C3244 0.949 . S
H3240 C3246 0.950 . S
H3241 C3247 0.950 . S
H3242 C3248 0.949 . S
C3243 H3238 0.950 . S
C3243 C3245 1.327 . S
C3243 C3249 1.429 . S
C3244 C3236 1.574 . S
C3244 H3239 0.949 . S
C3244 C3250 1.368 . S
C3245 C3229 1.349 . S
C3245 H3237 0.950 . S
C3245 C3243 1.327 . S
C3246 C3234 1.349 . S
C3246 H3240 0.950 . S
C3246 C3247 1.327 . S
C3247 H3241 0.950 . S
C3247 C3246 1.327 . S
C3247 C3251 1.429 . S
C3248 C3231 1.574 . S
C3248 H3242 0.949 . S
C3248 C3252 1.368 . S
C3249 C3230 1.429 . S
C3249 C3243 1.429 . S
C3249 C3250 1.523 . S
C3250 C3231 1.368 . S
C3250 C3244 1.368 . S
C3250 C3249 1.523 . S
C3251 C3235 1.429 . S
C3251 C3247 1.429 . S
C3251 C3252 1.523 . S
C3252 C3236 1.368 . S
C3252 C3248 1.368 . S
C3252 C3251 1.523 . S
H3253 C3228 0.950 . S
H3254 C3230 0.950 . S
H3255 C3231 0.949 . S
H3256 C3233 0.950 . S
H3257 C3235 0.950 . S
C3258 C3259 1.349 . S
C3258 C3260 1.327 . S
C3258 H3283 0.950 . S
C3259 C3258 1.349 . S
C3259 C3275 1.349 . S
C3260 C3258 1.327 . S
C3260 C3279 1.429 . S
C3260 H3284 0.950 . S
C3261 C3278 1.574 . S
C3261 C3280 1.368 . S
C3261 H3285 0.949 . S
H3262 C3266 0.949 . S
C3263 C3264 1.349 . S
C3263 C3265 1.327 . S
C3263 H3286 0.950 . S
C3264 C3263 1.349 . S
C3264 C3276 1.349 . S
C3265 C3263 1.327 . S
C3265 C3281 1.429 . S
C3265 H3287 0.950 . S
C3266 H3262 0.949 . S
C3266 C3274 1.574 . S
C3266 C3282 1.368 . S
H3267 C3275 0.950 . S
H3268 C3273 0.950 . S
H3269 C3274 0.949 . S
H3270 C3276 0.950 . S
H3271 C3277 0.950 . S
H3272 C3278 0.949 . S
C3273 H3268 0.950 . S
C3273 C3275 1.327 . S
C3273 C3279 1.429 . S
C3274 C3266 1.574 . S
C3274 H3269 0.949 . S
C3274 C3280 1.368 . S
C3275 C3259 1.349 . S
C3275 H3267 0.950 . S
C3275 C3273 1.327 . S
C3276 C3264 1.349 . S
C3276 H3270 0.950 . S
C3276 C3277 1.327 . S
C3277 H3271 0.950 . S
C3277 C3276 1.327 . S
C3277 C3281 1.429 . S
C3278 C3261 1.574 . S
C3278 H3272 0.949 . S
C3278 C3282 1.368 . S
C3279 C3260 1.429 . S
C3279 C3273 1.429 . S
C3279 C3280 1.523 . S
C3280 C3261 1.368 . S
C3280 C3274 1.368 . S
C3280 C3279 1.523 . S
C3281 C3265 1.429 . S
C3281 C3277 1.429 . S
C3281 C3282 1.523 . S
C3282 C3266 1.368 . S
C3282 C3278 1.368 . S
C3282 C3281 1.523 . S
H3283 C3258 0.950 . S
H3284 C3260 0.950 . S
H3285 C3261 0.949 . S
H3286 C3263 0.950 . S
H3287 C3265 0.950 . S
C3288 C3289 1.349 1_545 S
C3288 C3290 1.327 . S
C3288 H3313 0.950 . S
C3289 C3288 1.349 1_565 S
C3289 C3305 1.349 . S
C3290 C3288 1.327 . S
C3290 C3309 1.429 . S
C3290 H3314 0.950 . S
C3291 C3308 1.591 . S
C3291 C3310 1.368 1_565 S
C3291 H3315 0.949 . S
H3292 C3296 0.949 . S
C3293 C3294 1.349 . S
C3293 C3295 1.327 . S
C3293 H3316 0.950 . S
C3294 C3293 1.349 . S
C3294 C3306 1.349 . S
C3295 C3293 1.327 . S
C3295 C3311 1.429 . S
C3295 H3317 0.950 1_545 S
C3296 H3292 0.949 . S
C3296 C3304 1.574 . S
C3296 C3312 1.368 . S
H3297 C3305 0.950 . S
H3298 C3303 0.950 . S
H3299 C3304 0.949 . S
H3300 C3306 0.950 . S
H3301 C3307 0.950 . S
H3302 C3308 0.964 . S
C3303 H3298 0.950 . S
C3303 C3305 1.327 . S
C3303 C3309 1.429 1_565 S
C3304 C3296 1.574 . S
C3304 H3299 0.949 . S
C3304 C3310 1.368 . S
C3305 C3289 1.349 . S
C3305 H3297 0.950 . S
C3305 C3303 1.327 . S
C3306 C3294 1.349 . S
C3306 H3300 0.950 . S
C3306 C3307 1.327 . S
C3307 H3301 0.950 . S
C3307 C3306 1.327 . S
C3307 C3311 1.429 . S
C3308 C3291 1.591 . S
C3308 H3302 0.964 . S
C3308 C3312 1.336 1_565 S
C3309 C3290 1.429 . S
C3309 C3303 1.429 1_545 S
C3309 C3310 1.523 . S
C3310 C3291 1.368 1_545 S
C3310 C3304 1.368 . S
C3310 C3309 1.523 . S
C3311 C3295 1.429 . S
C3311 C3307 1.429 . S
C3311 C3312 1.523 . S
C3312 C3296 1.368 . S
C3312 C3308 1.336 1_545 S
C3312 C3311 1.523 . S
H3313 C3288 0.950 . S
H3314 C3290 0.950 . S
H3315 C3291 0.949 . S
H3316 C3293 0.950 . S
H3317 C3295 0.950 1_565 S
C3318 C3319 1.349 . S
C3318 C3320 1.327 . S
C3318 H3343 0.950 . S
C3319 C3318 1.349 . S
C3319 C3335 1.349 . S
C3320 C3318 1.327 . S
C3320 C3339 1.429 . S
C3320 H3344 0.950 . S
C3321 C3338 1.574 . S
C3321 C3340 1.368 . S
C3321 H3345 0.949 . S
H3322 C3326 0.949 . S
C3323 C3324 1.349 . S
C3323 C3325 1.327 . S
C3323 H3346 0.950 . S
C3324 C3323 1.349 . S
C3324 C3336 1.349 . S
C3325 C3323 1.327 . S
C3325 C3341 1.429 . S
C3325 H3347 0.950 . S
C3326 H3322 0.949 . S
C3326 C3334 1.574 . S
C3326 C3342 1.368 . S
H3327 C3335 0.950 . S
H3328 C3333 0.950 . S
H3329 C3334 0.949 . S
H3330 C3336 0.950 . S
H3331 C3337 0.950 . S
H3332 C3338 0.949 . S
C3333 H3328 0.950 . S
C3333 C3335 1.327 . S
C3333 C3339 1.429 . S
C3334 C3326 1.574 . S
C3334 H3329 0.949 . S
C3334 C3340 1.368 . S
C3335 C3319 1.349 . S
C3335 H3327 0.950 . S
C3335 C3333 1.327 . S
C3336 C3324 1.349 . S
C3336 H3330 0.950 . S
C3336 C3337 1.327 . S
C3337 H3331 0.950 . S
C3337 C3336 1.327 . S
C3337 C3341 1.429 . S
C3338 C3321 1.574 . S
C3338 H3332 0.949 . S
C3338 C3342 1.368 . S
C3339 C3320 1.429 . S
C3339 C3333 1.429 . S
C3339 C3340 1.523 . S
C3340 C3321 1.368 . S
C3340 C3334 1.368 . S
C3340 C3339 1.523 . S
C3341 C3325 1.429 . S
C3341 C3337 1.429 . S
C3341 C3342 1.523 . S
C3342 C3326 1.368 . S
C3342 C3338 1.368 . S
C3342 C3341 1.523 . S
H3343 C3318 0.950 . S
H3344 C3320 0.950 . S
H3345 C3321 0.949 . S
H3346 C3323 0.950 . S
H3347 C3325 0.950 . S
C3348 C3349 1.349 . S
C3348 C3350 1.327 . S
C3348 H3373 0.950 . S
C3349 C3348 1.349 . S
C3349 C3365 1.349 . S
C3350 C3348 1.327 . S
C3350 C3369 1.429 . S
C3350 H3374 0.950 . S
C3351 C3368 1.574 . S
C3351 C3370 1.368 . S
C3351 H3375 0.949 . S
H3352 C3356 0.949 . S
C3353 C3354 1.349 . S
C3353 C3355 1.327 . S
C3353 H3376 0.950 . S
C3354 C3353 1.349 . S
C3354 C3366 1.349 . S
C3355 C3353 1.327 . S
C3355 C3371 1.429 . S
C3355 H3377 0.950 . S
C3356 H3352 0.949 . S
C3356 C3364 1.574 . S
C3356 C3372 1.368 . S
H3357 C3365 0.950 . S
H3358 C3363 0.950 . S
H3359 C3364 0.949 . S
H3360 C3366 0.950 . S
H3361 C3367 0.950 . S
H3362 C3368 0.949 . S
C3363 H3358 0.950 . S
C3363 C3365 1.327 . S
C3363 C3369 1.429 . S
C3364 C3356 1.574 . S
C3364 H3359 0.949 . S
C3364 C3370 1.368 . S
C3365 C3349 1.349 . S
C3365 H3357 0.950 . S
C3365 C3363 1.327 . S
C3366 C3354 1.349 . S
C3366 H3360 0.950 . S
C3366 C3367 1.327 . S
C3367 H3361 0.950 . S
C3367 C3366 1.327 . S
C3367 C3371 1.429 . S
C3368 C3351 1.574 . S
C3368 H3362 0.949 . S
C3368 C3372 1.368 . S
C3369 C3350 1.429 . S
C3369 C3363 1.429 . S
C3369 C3370 1.523 . S
C3370 C3351 1.368 . S
C3370 C3364 1.368 . S
C3370 C3369 1.523 . S
C3371 C3355 1.429 . S
C3371 C3367 1.429 . S
C3371 C3372 1.523 . S
C3372 C3356 1.368 . S
C3372 C3368 1.368 . S
C3372 C3371 1.523 . S
H3373 C3348 0.950 . S
H3374 C3350 0.950 . S
H3375 C3351 0.949 . S
H3376 C3353 0.950 . S
H3377 C3355 0.950 . S
C3378 C3379 1.349 . S
C3378 C3380 1.327 . S
C3378 H3403 0.950 . S
C3379 C3378 1.349 . S
C3379 C3395 1.349 . S
C3380 C3378 1.327 . S
C3380 C3399 1.429 . S
C3380 H3404 0.950 . S
C3381 C3398 1.574 . S
C3381 C3400 1.368 . S
C3381 H3405 0.949 . S
H3382 C3386 0.949 . S
C3383 C3384 1.349 . S
C3383 C3385 1.327 . S
C3383 H3406 0.950 . S
C3384 C3383 1.349 . S
C3384 C3396 1.349 . S
C3385 C3383 1.327 . S
C3385 C3401 1.429 . S
C3385 H3407 0.950 . S
C3386 H3382 0.949 . S
C3386 C3394 1.574 . S
C3386 C3402 1.368 . S
H3387 C3395 0.950 . S
H3388 C3393 0.950 . S
H3389 C3394 0.949 . S
H3390 C3396 0.950 . S
H3391 C3397 0.950 . S
H3392 C3398 0.949 . S
C3393 H3388 0.950 . S
C3393 C3395 1.327 . S
C3393 C3399 1.429 . S
C3394 C3386 1.574 . S
C3394 H3389 0.949 . S
C3394 C3400 1.368 . S
C3395 C3379 1.349 . S
C3395 H3387 0.950 . S
C3395 C3393 1.327 . S
C3396 C3384 1.349 . S
C3396 H3390 0.950 . S
C3396 C3397 1.327 . S
C3397 H3391 0.950 . S
C3397 C3396 1.327 . S
C3397 C3401 1.429 . S
C3398 C3381 1.574 . S
C3398 H3392 0.949 . S
C3398 C3402 1.368 . S
C3399 C3380 1.429 . S
C3399 C3393 1.429 . S
C3399 C3400 1.523 . S
C3400 C3381 1.368 . S
C3400 C3394 1.368 . S
C3400 C3399 1.523 . S
C3401 C3385 1.429 . S
C3401 C3397 1.429 . S
C3401 C3402 1.523 . S
C3402 C3386 1.368 . S
C3402 C3398 1.368 . S
C3402 C3401 1.523 . S
H3403 C3378 0.950 . S
H3404 C3380 0.950 . S
H3405 C3381 0.949 . S
H3406 C3383 0.950 . S
H3407 C3385 0.950 . S
C3408 C3409 1.349 . S
C3408 C3410 1.327 . S
C3408 H3433 0.950 . S
C3409 C3408 1.349 . S
C3409 C3425 1.349 . S
C3410 C3408 1.327 . S
C3410 C3429 1.429 . S
C3410 H3434 0.950 . S
C3411 C3428 1.574 . S
C3411 C3430 1.368 . S
C3411 H3435 0.949 1_554 S
H3412 C3416 0.949 . S
C3413 C3414 1.349 1_556 S
C3413 C3415 1.327 . S
C3413 H3436 0.950 . S
C3414 C3413 1.349 1_554 S
C3414 C3426 1.349 . S
C3415 C3413 1.327 . S
C3415 C3431 1.433 1_556 S
C3415 H3437 0.945 . S
C3416 H3412 0.949 . S
C3416 C3424 1.574 . S
C3416 C3432 1.368 . S
H3417 C3425 0.950 . S
H3418 C3423 0.972 . S
H3419 C3424 0.949 . S
H3420 C3426 0.950 . S
H3421 C3427 0.950 . S
H3422 C3428 0.949 1_556 S
C3423 H3418 0.972 . S
C3423 C3425 1.327 . S
C3423 C3429 1.429 . S
C3424 C3416 1.574 . S
C3424 H3419 0.949 . S
C3424 C3430 1.368 . S
C3425 C3409 1.349 . S
C3425 H3417 0.950 . S
C3425 C3423 1.327 . S
C3426 C3414 1.349 . S
C3426 H3420 0.950 . S
C3426 C3427 1.327 . S
C3427 H3421 0.950 . S
C3427 C3426 1.327 . S
C3427 C3431 1.429 . S
C3428 C3411 1.574 . S
C3428 H3422 0.949 1_554 S
C3428 C3432 1.368 . S
C3429 C3410 1.429 . S
C3429 C3423 1.429 . S
C3429 C3430 1.523 . S
C3430 C3411 1.368 . S
C3430 C3424 1.368 . S
C3430 C3429 1.523 . S
C3431 C3415 1.433 1_554 S
C3431 C3427 1.429 . S
C3431 C3432 1.523 . S
C3432 C3416 1.368 . S
C3432 C3428 1.368 . S
C3432 C3431 1.523 . S
H3433 C3408 0.950 . S
H3434 C3410 0.950 . S
H3435 C3411 0.949 1_556 S
H3436 C3413 0.950 . S
H3437 C3415 0.945 . S
C3438 C3439 1.349 . S
C3438 C3440 1.327 . S
C3438 H3463 0.950 . S
C3439 C3438 1.349 . S
C3439 C3455 1.349 . S
C3440 C3438 1.327 . S
C3440 C3459 1.429 . S
C3440 H3464 0.950 . S
C3441 C3458 1.574 . S
C3441 C3460 1.368 . S
C3441 H3465 0.949 . S
H3442 C3446 0.949 . S
C3443 C3444 1.349 . S
C3443 C3445 1.327 . S
C3443 H3466 0.950 . S
C3444 C3443 1.349 . S
C3444 C3456 1.349 . S
C3445 C3443 1.327 . S
C3445 C3461 1.429 . S
C3445 H3467 0.950 . S
C3446 H3442 0.949 . S
C3446 C3454 1.574 . S
C3446 C3462 1.368 . S
H3447 C3455 0.950 . S
H3448 C3453 0.950 . S
H3449 C3454 0.949 . S
H3450 C3456 0.950 . S
H3451 C3457 0.950 . S
H3452 C3458 0.949 . S
C3453 H3448 0.950 . S
C3453 C3455 1.327 . S
C3453 C3459 1.429 . S
C3454 C3446 1.574 . S
C3454 H3449 0.949 . S
C3454 C3460 1.368 . S
C3455 C3439 1.349 . S
C3455 H3447 0.950 . S
C3455 C3453 1.327 . S
C3456 C3444 1.349 . S
C3456 H3450 0.950 . S
C3456 C3457 1.327 . S
C3457 H3451 0.950 . S
C3457 C3456 1.327 . S
C3457 C3461 1.429 . S
C3458 C3441 1.574 . S
C3458 H3452 0.949 . S
C3458 C3462 1.368 . S
C3459 C3440 1.429 . S
C3459 C3453 1.429 . S
C3459 C3460 1.523 . S
C3460 C3441 1.368 . S
C3460 C3454 1.368 . S
C3460 C3459 1.523 . S
C3461 C3445 1.429 . S
C3461 C3457 1.429 . S
C3461 C3462 1.523 . S
C3462 C3446 1.368 . S
C3462 C3458 1.368 . S
C3462 C3461 1.523 . S
H3463 C3438 0.950 . S
H3464 C3440 0.950 . S
H3465 C3441 0.949 . S
H3466 C3443 0.950 . S
H3467 C3445 0.950 . S
C3468 C3469 1.349 . S
C3468 C3470 1.327 . S
C3468 H3493 0.950 . S
C3469 C3468 1.349 . S
C3469 C3485 1.349 . S
C3470 C3468 1.327 . S
C3470 C3489 1.429 . S
C3470 H3494 0.950 . S
C3471 C3488 1.574 . S
C3471 C3490 1.368 . S
C3471 H3495 0.949 . S
H3472 C3476 0.949 . S
C3473 C3474 1.349 . S
C3473 C3475 1.327 . S
C3473 H3496 0.950 . S
C3474 C3473 1.349 . S
C3474 C3486 1.349 . S
C3475 C3473 1.327 . S
C3475 C3491 1.429 . S
C3475 H3497 0.950 . S
C3476 H3472 0.949 . S
C3476 C3484 1.574 . S
C3476 C3492 1.368 . S
H3477 C3485 0.950 . S
H3478 C3483 0.950 . S
H3479 C3484 0.949 . S
H3480 C3486 0.950 . S
H3481 C3487 0.950 . S
H3482 C3488 0.949 . S
C3483 H3478 0.950 . S
C3483 C3485 1.327 . S
C3483 C3489 1.429 . S
C3484 C3476 1.574 . S
C3484 H3479 0.949 . S
C3484 C3490 1.368 . S
C3485 C3469 1.349 . S
C3485 H3477 0.950 . S
C3485 C3483 1.327 . S
C3486 C3474 1.349 . S
C3486 H3480 0.950 . S
C3486 C3487 1.327 . S
C3487 H3481 0.950 . S
C3487 C3486 1.327 . S
C3487 C3491 1.429 . S
C3488 C3471 1.574 . S
C3488 H3482 0.949 . S
C3488 C3492 1.368 . S
C3489 C3470 1.429 . S
C3489 C3483 1.429 . S
C3489 C3490 1.523 . S
C3490 C3471 1.368 . S
C3490 C3484 1.368 . S
C3490 C3489 1.523 . S
C3491 C3475 1.429 . S
C3491 C3487 1.429 . S
C3491 C3492 1.523 . S
C3492 C3476 1.368 . S
C3492 C3488 1.368 . S
C3492 C3491 1.523 . S
H3493 C3468 0.950 . S
H3494 C3470 0.950 . S
H3495 C3471 0.949 . S
H3496 C3473 0.950 . S
H3497 C3475 0.950 . S
C3498 C3499 1.349 . S
C3498 C3500 1.327 . S
C3498 H3523 0.950 . S
C3499 C3498 1.349 . S
C3499 C3515 1.349 . S
C3500 C3498 1.327 . S
C3500 C3519 1.429 . S
C3500 H3524 0.950 . S
C3501 C3518 1.574 . S
C3501 C3520 1.368 . S
C3501 H3525 0.949 . S
H3502 C3506 0.949 . S
C3503 C3504 1.349 . S
C3503 C3505 1.327 . S
C3503 H3526 0.950 . S
C3504 C3503 1.349 . S
C3504 C3516 1.349 . S
C3505 C3503 1.327 . S
C3505 C3521 1.429 . S
C3505 H3527 0.950 . S
C3506 H3502 0.949 . S
C3506 C3514 1.574 . S
C3506 C3522 1.368 . S
H3507 C3515 0.950 . S
H3508 C3513 0.950 . S
H3509 C3514 0.949 . S
H3510 C3516 0.950 . S
H3511 C3517 0.950 . S
H3512 C3518 0.949 . S
C3513 H3508 0.950 . S
C3513 C3515 1.327 . S
C3513 C3519 1.429 . S
C3514 C3506 1.574 . S
C3514 H3509 0.949 . S
C3514 C3520 1.368 . S
C3515 C3499 1.349 . S
C3515 H3507 0.950 . S
C3515 C3513 1.327 . S
C3516 C3504 1.349 . S
C3516 H3510 0.950 . S
C3516 C3517 1.327 . S
C3517 H3511 0.950 . S
C3517 C3516 1.327 . S
C3517 C3521 1.429 . S
C3518 C3501 1.574 . S
C3518 H3512 0.949 . S
C3518 C3522 1.368 . S
C3519 C3500 1.429 . S
C3519 C3513 1.429 . S
C3519 C3520 1.523 . S
C3520 C3501 1.368 . S
C3520 C3514 1.368 . S
C3520 C3519 1.523 . S
C3521 C3505 1.429 . S
C3521 C3517 1.429 . S
C3521 C3522 1.523 . S
C3522 C3506 1.368 . S
C3522 C3518 1.368 . S
C3522 C3521 1.523 . S
H3523 C3498 0.950 . S
H3524 C3500 0.950 . S
H3525 C3501 0.949 . S
H3526 C3503 0.950 . S
H3527 C3505 0.950 . S
C3528 C3529 1.376 . S
C3528 C3530 1.283 1_545 S
C3528 H3553 0.969 . S
C3529 C3528 1.376 . S
C3529 C3545 1.349 . S
C3530 C3528 1.283 1_565 S
C3530 C3549 1.429 . S
C3530 H3554 0.950 . S
C3531 C3548 1.574 . S
C3531 C3550 1.368 . S
C3531 H3555 0.949 . S
H3532 C3536 0.949 . S
C3533 C3534 1.349 . S
C3533 C3535 1.327 . S
C3533 H3556 0.950 . S
C3534 C3533 1.349 . S
C3534 C3546 1.349 . S
C3535 C3533 1.327 . S
C3535 C3551 1.429 . S
C3535 H3557 0.950 . S
C3536 H3532 0.949 . S
C3536 C3544 1.574 . S
C3536 C3552 1.368 . S
H3537 C3545 0.950 . S
H3538 C3543 0.950 . S
H3539 C3544 0.949 . S
H3540 C3546 0.950 . S
H3541 C3547 0.950 . S
H3542 C3548 0.949 . S
C3543 H3538 0.950 . S
C3543 C3545 1.327 1_565 S
C3543 C3549 1.429 . S
C3544 C3536 1.574 . S
C3544 H3539 0.949 . S
C3544 C3550 1.368 . S
C3545 C3529 1.349 . S
C3545 H3537 0.950 . S
C3545 C3543 1.327 1_545 S
C3546 C3534 1.349 . S
C3546 H3540 0.950 . S
C3546 C3547 1.327 . S
C3547 H3541 0.950 . S
C3547 C3546 1.327 . S
C3547 C3551 1.429 . S
C3548 C3531 1.574 . S
C3548 H3542 0.949 . S
C3548 C3552 1.368 . S
C3549 C3530 1.429 . S
C3549 C3543 1.429 . S
C3549 C3550 1.523 . S
C3550 C3531 1.368 . S
C3550 C3544 1.368 . S
C3550 C3549 1.523 . S
C3551 C3535 1.429 . S
C3551 C3547 1.429 . S
C3551 C3552 1.523 . S
C3552 C3536 1.368 . S
C3552 C3548 1.368 . S
C3552 C3551 1.523 . S
H3553 C3528 0.969 . S
H3554 C3530 0.950 . S
H3555 C3531 0.949 . S
H3556 C3533 0.950 . S
H3557 C3535 0.950 . S
C3558 C3559 1.349 . S
C3558 C3560 1.327 . S
C3558 H3583 0.950 . S
C3559 C3558 1.349 . S
C3559 C3575 1.349 . S
C3560 C3558 1.327 . S
C3560 C3579 1.429 . S
C3560 H3584 0.950 . S
C3561 C3578 1.574 . S
C3561 C3580 1.368 . S
C3561 H3585 0.949 . S
H3562 C3566 0.949 . S
C3563 C3564 1.349 . S
C3563 C3565 1.327 . S
C3563 H3586 0.950 . S
C3564 C3563 1.349 . S
C3564 C3576 1.349 . S
C3565 C3563 1.327 . S
C3565 C3581 1.429 . S
C3565 H3587 0.950 . S
C3566 H3562 0.949 . S
C3566 C3574 1.574 . S
C3566 C3582 1.368 . S
H3567 C3575 0.950 . S
H3568 C3573 0.950 . S
H3569 C3574 0.949 . S
H3570 C3576 0.954 . S
H3571 C3577 0.950 . S
H3572 C3578 0.949 . S
C3573 H3568 0.950 . S
C3573 C3575 1.327 . S
C3573 C3579 1.429 . S
C3574 C3566 1.574 . S
C3574 H3569 0.949 . S
C3574 C3580 1.368 . S
C3575 C3559 1.349 . S
C3575 H3567 0.950 . S
C3575 C3573 1.327 . S
C3576 C3564 1.349 . S
C3576 H3570 0.954 . S
C3576 C3577 1.327 . S
C3577 H3571 0.950 . S
C3577 C3576 1.327 . S
C3577 C3581 1.429 . S
C3578 C3561 1.574 . S
C3578 H3572 0.949 . S
C3578 C3582 1.368 . S
C3579 C3560 1.429 . S
C3579 C3573 1.429 . S
C3579 C3580 1.523 . S
C3580 C3561 1.368 . S
C3580 C3574 1.368 . S
C3580 C3579 1.523 . S
C3581 C3565 1.429 . S
C3581 C3577 1.429 . S
C3581 C3582 1.523 . S
C3582 C3566 1.368 . S
C3582 C3578 1.368 . S
C3582 C3581 1.523 . S
H3583 C3558 0.950 . S
H3584 C3560 0.950 . S
H3585 C3561 0.949 . S
H3586 C3563 0.950 . S
H3587 C3565 0.950 . S
C3588 C3589 1.349 . S
C3588 C3590 1.327 . S
C3588 H3613 0.950 . S
C3589 C3588 1.349 . S
C3589 C3605 1.349 . S
C3590 C3588 1.327 . S
C3590 C3609 1.429 . S
C3590 H3614 0.950 . S
C3591 C3608 1.574 . S
C3591 C3610 1.368 . S
C3591 H3615 0.949 . S
H3592 C3596 0.949 . S
C3593 C3594 1.349 . S
C3593 C3595 1.327 . S
C3593 H3616 0.950 . S
C3594 C3593 1.349 . S
C3594 C3606 1.349 . S
C3595 C3593 1.327 . S
C3595 C3611 1.429 . S
C3595 H3617 0.950 . S
C3596 H3592 0.949 . S
C3596 C3604 1.574 . S
C3596 C3612 1.368 . S
H3597 C3605 0.950 . S
H3598 C3603 0.950 . S
H3599 C3604 0.949 . S
H3600 C3606 0.950 . S
H3601 C3607 0.950 . S
H3602 C3608 0.949 . S
C3603 H3598 0.950 . S
C3603 C3605 1.327 . S
C3603 C3609 1.429 . S
C3604 C3596 1.574 . S
C3604 H3599 0.949 . S
C3604 C3610 1.368 . S
C3605 C3589 1.349 . S
C3605 H3597 0.950 . S
C3605 C3603 1.327 . S
C3606 C3594 1.349 . S
C3606 H3600 0.950 . S
C3606 C3607 1.327 . S
C3607 H3601 0.950 . S
C3607 C3606 1.327 . S
C3607 C3611 1.429 . S
C3608 C3591 1.574 . S
C3608 H3602 0.949 . S
C3608 C3612 1.368 . S
C3609 C3590 1.429 . S
C3609 C3603 1.429 . S
C3609 C3610 1.523 . S
C3610 C3591 1.368 . S
C3610 C3604 1.368 . S
C3610 C3609 1.523 . S
C3611 C3595 1.429 . S
C3611 C3607 1.429 . S
C3611 C3612 1.523 . S
C3612 C3596 1.368 . S
C3612 C3608 1.368 . S
C3612 C3611 1.523 . S
H3613 C3588 0.950 . S
H3614 C3590 0.950 . S
H3615 C3591 0.949 . S
H3616 C3593 0.950 . S
H3617 C3595 0.950 . S
C3618 C3619 1.349 . S
C3618 C3620 1.327 . S
C3618 H3643 0.950 . S
C3619 C3618 1.349 . S
C3619 C3635 1.349 . S
C3620 C3618 1.327 . S
C3620 C3639 1.429 . S
C3620 H3644 0.950 . S
C3621 C3638 1.574 . S
C3621 C3640 1.368 . S
C3621 H3645 0.949 . S
H3622 C3626 0.949 . S
C3623 C3624 1.349 . S
C3623 C3625 1.327 . S
C3623 H3646 0.950 . S
C3624 C3623 1.349 . S
C3624 C3636 1.349 . S
C3625 C3623 1.327 . S
C3625 C3641 1.429 . S
C3625 H3647 0.950 . S
C3626 H3622 0.949 . S
C3626 C3634 1.574 . S
C3626 C3642 1.368 . S
H3627 C3635 0.950 . S
H3628 C3633 0.950 . S
H3629 C3634 0.949 . S
H3630 C3636 0.950 . S
H3631 C3637 0.950 . S
H3632 C3638 0.949 . S
C3633 H3628 0.950 . S
C3633 C3635 1.327 . S
C3633 C3639 1.429 . S
C3634 C3626 1.574 . S
C3634 H3629 0.949 . S
C3634 C3640 1.368 . S
C3635 C3619 1.349 . S
C3635 H3627 0.950 . S
C3635 C3633 1.327 . S
C3636 C3624 1.349 . S
C3636 H3630 0.950 . S
C3636 C3637 1.327 . S
C3637 H3631 0.950 . S
C3637 C3636 1.327 . S
C3637 C3641 1.429 . S
C3638 C3621 1.574 . S
C3638 H3632 0.949 . S
C3638 C3642 1.368 . S
C3639 C3620 1.429 . S
C3639 C3633 1.429 . S
C3639 C3640 1.523 . S
C3640 C3621 1.368 . S
C3640 C3634 1.368 . S
C3640 C3639 1.523 . S
C3641 C3625 1.429 . S
C3641 C3637 1.429 . S
C3641 C3642 1.523 . S
C3642 C3626 1.368 . S
C3642 C3638 1.368 . S
C3642 C3641 1.523 . S
H3643 C3618 0.950 . S
H3644 C3620 0.950 . S
H3645 C3621 0.949 . S
H3646 C3623 0.950 . S
H3647 C3625 0.950 . S
C3648 C3649 1.349 . S
C3648 C3650 1.327 . S
C3648 H3673 0.950 . S
C3649 C3648 1.349 . S
C3649 C3665 1.349 . S
C3650 C3648 1.327 . S
C3650 C3669 1.429 . S
C3650 H3674 0.950 . S
C3651 C3668 1.574 . S
C3651 C3670 1.368 . S
C3651 H3675 0.949 . S
H3652 C3656 0.949 . S
C3653 C3654 1.349 . S
C3653 C3655 1.327 . S
C3653 H3676 0.950 . S
C3654 C3653 1.349 . S
C3654 C3666 1.349 . S
C3655 C3653 1.327 . S
C3655 C3671 1.429 . S
C3655 H3677 0.950 . S
C3656 H3652 0.949 . S
C3656 C3664 1.574 . S
C3656 C3672 1.368 . S
H3657 C3665 0.950 . S
H3658 C3663 0.950 . S
H3659 C3664 0.949 . S
H3660 C3666 0.950 . S
H3661 C3667 0.950 . S
H3662 C3668 0.949 . S
C3663 H3658 0.950 . S
C3663 C3665 1.327 . S
C3663 C3669 1.429 . S
C3664 C3656 1.574 . S
C3664 H3659 0.949 . S
C3664 C3670 1.368 . S
C3665 C3649 1.349 . S
C3665 H3657 0.950 . S
C3665 C3663 1.327 . S
C3666 C3654 1.349 . S
C3666 H3660 0.950 . S
C3666 C3667 1.327 . S
C3667 H3661 0.950 . S
C3667 C3666 1.327 . S
C3667 C3671 1.429 . S
C3668 C3651 1.574 . S
C3668 H3662 0.949 . S
C3668 C3672 1.368 . S
C3669 C3650 1.429 . S
C3669 C3663 1.429 . S
C3669 C3670 1.523 . S
C3670 C3651 1.368 . S
C3670 C3664 1.368 . S
C3670 C3669 1.523 . S
C3671 C3655 1.429 . S
C3671 C3667 1.429 . S
C3671 C3672 1.523 . S
C3672 C3656 1.368 . S
C3672 C3668 1.368 . S
C3672 C3671 1.523 . S
H3673 C3648 0.950 . S
H3674 C3650 0.950 . S
H3675 C3651 0.949 . S
H3676 C3653 0.950 . S
H3677 C3655 0.950 . S
C3678 C3679 1.349 . S
C3678 C3680 1.327 . S
C3678 H3703 0.950 . S
C3679 C3678 1.349 . S
C3679 C3695 1.349 . S
C3680 C3678 1.327 . S
C3680 C3699 1.429 . S
C3680 H3704 0.950 . S
C3681 C3698 1.574 . S
C3681 C3700 1.368 . S
C3681 H3705 0.949 . S
H3682 C3686 0.949 . S
C3683 C3684 1.349 . S
C3683 C3685 1.327 . S
C3683 H3706 0.950 . S
C3684 C3683 1.349 . S
C3684 C3696 1.349 . S
C3685 C3683 1.327 . S
C3685 C3701 1.429 . S
C3685 H3707 0.950 . S
C3686 H3682 0.949 . S
C3686 C3694 1.574 . S
C3686 C3702 1.368 . S
H3687 C3695 0.950 . S
H3688 C3693 0.950 . S
H3689 C3694 0.949 . S
H3690 C3696 0.950 . S
H3691 C3697 0.950 . S
H3692 C3698 0.949 . S
C3693 H3688 0.950 . S
C3693 C3695 1.327 . S
C3693 C3699 1.429 . S
C3694 C3686 1.574 . S
C3694 H3689 0.949 . S
C3694 C3700 1.368 . S
C3695 C3679 1.349 . S
C3695 H3687 0.950 . S
C3695 C3693 1.327 . S
C3696 C3684 1.349 . S
C3696 H3690 0.950 . S
C3696 C3697 1.327 . S
C3697 H3691 0.950 . S
C3697 C3696 1.327 . S
C3697 C3701 1.429 . S
C3698 C3681 1.574 . S
C3698 H3692 0.949 . S
C3698 C3702 1.368 . S
C3699 C3680 1.429 . S
C3699 C3693 1.429 . S
C3699 C3700 1.523 . S
C3700 C3681 1.368 . S
C3700 C3694 1.368 . S
C3700 C3699 1.523 . S
C3701 C3685 1.429 . S
C3701 C3697 1.429 . S
C3701 C3702 1.523 . S
C3702 C3686 1.368 . S
C3702 C3698 1.368 . S
C3702 C3701 1.523 . S
H3703 C3678 0.950 . S
H3704 C3680 0.950 . S
H3705 C3681 0.949 . S
H3706 C3683 0.950 . S
H3707 C3685 0.950 . S
C3708 C3709 1.349 . S
C3708 C3710 1.327 . S
C3708 H3733 0.950 . S
C3709 C3708 1.349 . S
C3709 C3725 1.349 . S
C3710 C3708 1.327 . S
C3710 C3729 1.429 . S
C3710 H3734 0.950 . S
C3711 C3728 1.574 1_556 S
C3711 C3730 1.368 . S
C3711 H3735 0.949 1_556 S
H3712 C3716 0.949 . S
C3713 C3714 1.349 . S
C3713 C3715 1.327 . S
C3713 H3736 0.950 . S
C3714 C3713 1.349 . S
C3714 C3726 1.349 1_554 S
C3715 C3713 1.327 . S
C3715 C3731 1.429 1_554 S
C3715 H3737 0.950 . S
C3716 H3712 0.949 . S
C3716 C3724 1.574 . S
C3716 C3732 1.368 . S
H3717 C3725 0.950 . S
H3718 C3723 0.950 . S
H3719 C3724 0.949 . S
H3720 C3726 0.950 . S
H3721 C3727 0.950 . S
H3722 C3728 0.949 . S
C3723 H3718 0.950 . S
C3723 C3725 1.327 . S
C3723 C3729 1.429 . S
C3724 C3716 1.574 . S
C3724 H3719 0.949 . S
C3724 C3730 1.368 . S
C3725 C3709 1.349 . S
C3725 H3717 0.950 . S
C3725 C3723 1.327 . S
C3726 C3714 1.349 1_556 S
C3726 H3720 0.950 . S
C3726 C3727 1.327 . S
C3727 H3721 0.950 . S
C3727 C3726 1.327 . S
C3727 C3731 1.429 . S
C3728 C3711 1.574 1_554 S
C3728 H3722 0.949 . S
C3728 C3732 1.368 1_554 S
C3729 C3710 1.429 . S
C3729 C3723 1.429 . S
C3729 C3730 1.523 . S
C3730 C3711 1.368 . S
C3730 C3724 1.368 . S
C3730 C3729 1.523 . S
C3731 C3715 1.429 1_556 S
C3731 C3727 1.429 . S
C3731 C3732 1.523 . S
C3732 C3716 1.368 . S
C3732 C3728 1.368 1_556 S
C3732 C3731 1.523 . S
H3733 C3708 0.950 . S
H3734 C3710 0.950 . S
H3735 C3711 0.949 1_554 S
H3736 C3713 0.950 . S
H3737 C3715 0.950 . S
C3738 C3739 1.349 . S
C3738 C3740 1.327 . S
C3738 H3763 0.950 . S
C3739 C3738 1.349 . S
C3739 C3755 1.349 . S
C3740 C3738 1.327 . S
C3740 C3759 1.429 1_455 S
C3740 H3764 0.950 . S
C3741 C3758 1.574 . S
C3741 C3760 1.368 . S
C3741 H3765 0.949 . S
H3742 C3746 0.949 . S
C3743 C3744 1.349 . S
C3743 C3745 1.327 . S
C3743 H3766 0.950 . S
C3744 C3743 1.349 . S
C3744 C3756 1.349 . S
C3745 C3743 1.327 . S
C3745 C3761 1.429 . S
C3745 H3767 0.950 . S
C3746 H3742 0.949 . S
C3746 C3754 1.574 . S
C3746 C3762 1.368 . S
H3747 C3755 0.950 . S
H3748 C3753 0.950 1_655 S
H3749 C3754 0.949 . S
H3750 C3756 0.950 . S
H3751 C3757 0.950 . S
H3752 C3758 0.949 . S
C3753 H3748 0.950 1_455 S
C3753 C3755 1.327 . S
C3753 C3759 1.429 1_455 S
C3754 C3746 1.574 . S
C3754 H3749 0.949 . S
C3754 C3760 1.368 . S
C3755 C3739 1.349 . S
C3755 H3747 0.950 . S
C3755 C3753 1.327 . S
C3756 C3744 1.349 . S
C3756 H3750 0.950 . S
C3756 C3757 1.327 . S
C3757 H3751 0.950 . S
C3757 C3756 1.327 . S
C3757 C3761 1.429 . S
C3758 C3741 1.574 . S
C3758 H3752 0.949 . S
C3758 C3762 1.368 . S
C3759 C3740 1.429 1_655 S
C3759 C3753 1.429 1_655 S
C3759 C3760 1.523 . S
C3760 C3741 1.368 . S
C3760 C3754 1.368 . S
C3760 C3759 1.523 . S
C3761 C3745 1.429 . S
C3761 C3757 1.429 . S
C3761 C3762 1.523 . S
C3762 C3746 1.368 . S
C3762 C3758 1.368 . S
C3762 C3761 1.523 . S
H3763 C3738 0.950 . S
H3764 C3740 0.950 . S
H3765 C3741 0.949 . S
H3766 C3743 0.950 . S
H3767 C3745 0.950 . S
C3768 C3769 1.349 . S
C3768 C3770 1.327 . S
C3768 H3793 0.950 . S
C3769 C3768 1.349 . S
C3769 C3785 1.349 . S
C3770 C3768 1.327 . S
C3770 C3789 1.429 . S
C3770 H3794 0.950 . S
C3771 C3788 1.574 . S
C3771 C3790 1.368 . S
C3771 H3795 0.949 . S
H3772 C3776 0.949 . S
C3773 C3774 1.349 . S
C3773 C3775 1.327 . S
C3773 H3796 0.950 . S
C3774 C3773 1.349 . S
C3774 C3786 1.349 . S
C3775 C3773 1.327 . S
C3775 C3791 1.429 . S
C3775 H3797 0.950 . S
C3776 H3772 0.949 . S
C3776 C3784 1.574 . S
C3776 C3792 1.368 . S
H3777 C3785 0.950 . S
H3778 C3783 0.950 . S
H3779 C3784 0.949 . S
H3780 C3786 0.950 . S
H3781 C3787 0.950 . S
H3782 C3788 0.949 . S
C3783 H3778 0.950 . S
C3783 C3785 1.327 . S
C3783 C3789 1.429 . S
C3784 C3776 1.574 . S
C3784 H3779 0.949 . S
C3784 C3790 1.368 . S
C3785 C3769 1.349 . S
C3785 H3777 0.950 . S
C3785 C3783 1.327 . S
C3786 C3774 1.349 . S
C3786 H3780 0.950 . S
C3786 C3787 1.327 . S
C3787 H3781 0.950 . S
C3787 C3786 1.327 . S
C3787 C3791 1.429 . S
C3788 C3771 1.574 . S
C3788 H3782 0.949 . S
C3788 C3792 1.368 . S
C3789 C3770 1.429 . S
C3789 C3783 1.429 . S
C3789 C3790 1.523 . S
C3790 C3771 1.368 . S
C3790 C3784 1.368 . S
C3790 C3789 1.523 . S
C3791 C3775 1.429 . S
C3791 C3787 1.429 . S
C3791 C3792 1.523 . S
C3792 C3776 1.368 . S
C3792 C3788 1.368 . S
C3792 C3791 1.523 . S
H3793 C3768 0.950 . S
H3794 C3770 0.950 . S
H3795 C3771 0.949 . S
H3796 C3773 0.950 . S
H3797 C3775 0.950 . S
C3798 C3799 1.349 . S
C3798 C3800 1.327 . S
C3798 H3823 0.950 . S
C3799 C3798 1.349 . S
C3799 C3815 1.349 . S
C3800 C3798 1.327 . S
C3800 C3819 1.429 . S
C3800 H3824 0.950 . S
C3801 C3818 1.574 1_455 S
C3801 C3820 1.368 . S
C3801 H3825 0.949 . S
H3802 C3806 0.949 . S
C3803 C3804 1.349 . S
C3803 C3805 1.327 . S
C3803 H3826 0.950 . S
C3804 C3803 1.349 . S
C3804 C3816 1.349 . S
C3805 C3803 1.327 . S
C3805 C3821 1.429 . S
C3805 H3827 0.950 . S
C3806 H3802 0.949 . S
C3806 C3814 1.574 . S
C3806 C3822 1.368 . S
H3807 C3815 0.950 . S
H3808 C3813 0.950 . S
H3809 C3814 0.949 . S
H3810 C3816 0.950 . S
H3811 C3817 0.950 . S
H3812 C3818 0.949 . S
C3813 H3808 0.950 . S
C3813 C3815 1.327 . S
C3813 C3819 1.429 . S
C3814 C3806 1.574 . S
C3814 H3809 0.949 . S
C3814 C3820 1.368 1_655 S
C3815 C3799 1.349 . S
C3815 H3807 0.950 . S
C3815 C3813 1.327 . S
C3816 C3804 1.349 . S
C3816 H3810 0.950 . S
C3816 C3817 1.327 . S
C3817 H3811 0.950 . S
C3817 C3816 1.327 . S
C3817 C3821 1.429 . S
C3818 C3801 1.574 1_655 S
C3818 H3812 0.949 . S
C3818 C3822 1.368 . S
C3819 C3800 1.429 . S
C3819 C3813 1.429 . S
C3819 C3820 1.523 . S
C3820 C3801 1.368 . S
C3820 C3814 1.368 1_455 S
C3820 C3819 1.523 . S
C3821 C3805 1.429 . S
C3821 C3817 1.429 . S
C3821 C3822 1.523 . S
C3822 C3806 1.368 . S
C3822 C3818 1.368 . S
C3822 C3821 1.523 . S
H3823 C3798 0.950 . S
H3824 C3800 0.950 . S
H3825 C3801 0.949 . S
H3826 C3803 0.950 . S
H3827 C3805 0.950 . S
C3828 C3829 1.349 1_455 S
C3828 C3830 1.327 . S
C3828 H3853 0.950 . S
C3829 C3828 1.349 1_655 S
C3829 C3845 1.349 . S
C3830 C3828 1.327 . S
C3830 C3849 1.429 . S
C3830 H3854 0.950 . S
C3831 C3848 1.565 1_655 S
C3831 C3850 1.361 1_655 S
C3831 H3855 0.963 . S
H3832 C3836 0.949 . S
C3833 C3834 1.349 . S
C3833 C3835 1.327 . S
C3833 H3856 0.950 . S
C3834 C3833 1.349 . S
C3834 C3846 1.349 . S
C3835 C3833 1.327 . S
C3835 C3851 1.429 . S
C3835 H3857 0.950 . S
C3836 H3832 0.949 . S
C3836 C3844 1.574 . S
C3836 C3852 1.368 . S
H3837 C3845 0.950 . S
H3838 C3843 0.950 . S
H3839 C3844 0.949 . S
H3840 C3846 0.950 . S
H3841 C3847 0.950 . S
H3842 C3848 0.937 1_655 S
C3843 H3838 0.950 . S
C3843 C3845 1.327 . S
C3843 C3849 1.429 1_655 S
C3844 C3836 1.574 . S
C3844 H3839 0.949 . S
C3844 C3850 1.368 . S
C3845 C3829 1.349 . S
C3845 H3837 0.950 . S
C3845 C3843 1.327 . S
C3846 C3834 1.349 . S
C3846 H3840 0.950 . S
C3846 C3847 1.327 . S
C3847 H3841 0.950 . S
C3847 C3846 1.327 . S
C3847 C3851 1.429 . S
C3848 C3831 1.565 1_455 S
C3848 H3842 0.937 1_455 S
C3848 C3852 1.368 . S
C3849 C3830 1.429 . S
C3849 C3843 1.429 1_455 S
C3849 C3850 1.523 . S
C3850 C3831 1.361 1_455 S
C3850 C3844 1.368 . S
C3850 C3849 1.523 . S
C3851 C3835 1.429 . S
C3851 C3847 1.429 . S
C3851 C3852 1.523 . S
C3852 C3836 1.368 . S
C3852 C3848 1.368 . S
C3852 C3851 1.523 . S
H3853 C3828 0.950 . S
H3854 C3830 0.950 . S
H3855 C3831 0.963 . S
H3856 C3833 0.950 . S
H3857 C3835 0.950 . S
C3858 C3859 1.349 . S
C3858 C3860 1.327 . S
C3858 H3883 0.950 . S
C3859 C3858 1.349 . S
C3859 C3875 1.349 . S
C3860 C3858 1.327 . S
C3860 C3879 1.429 . S
C3860 H3884 0.950 . S
C3861 C3878 1.574 . S
C3861 C3880 1.368 . S
C3861 H3885 0.949 . S
H3862 C3866 0.949 . S
C3863 C3864 1.349 . S
C3863 C3865 1.327 . S
C3863 H3886 0.950 . S
C3864 C3863 1.349 . S
C3864 C3876 1.349 . S
C3865 C3863 1.327 . S
C3865 C3881 1.429 . S
C3865 H3887 0.950 . S
C3866 H3862 0.949 . S
C3866 C3874 1.574 . S
C3866 C3882 1.368 . S
H3867 C3875 0.950 . S
H3868 C3873 0.950 . S
H3869 C3874 0.949 . S
H3870 C3876 0.950 . S
H3871 C3877 0.950 . S
H3872 C3878 0.949 . S
C3873 H3868 0.950 . S
C3873 C3875 1.327 . S
C3873 C3879 1.429 . S
C3874 C3866 1.574 . S
C3874 H3869 0.949 . S
C3874 C3880 1.368 . S
C3875 C3859 1.349 . S
C3875 H3867 0.950 . S
C3875 C3873 1.327 . S
C3876 C3864 1.349 . S
C3876 H3870 0.950 . S
C3876 C3877 1.327 . S
C3877 H3871 0.950 . S
C3877 C3876 1.327 . S
C3877 C3881 1.429 . S
C3878 C3861 1.574 . S
C3878 H3872 0.949 . S
C3878 C3882 1.368 . S
C3879 C3860 1.429 . S
C3879 C3873 1.429 . S
C3879 C3880 1.523 . S
C3880 C3861 1.368 . S
C3880 C3874 1.368 . S
C3880 C3879 1.523 . S
C3881 C3865 1.429 . S
C3881 C3877 1.429 . S
C3881 C3882 1.523 . S
C3882 C3866 1.368 . S
C3882 C3878 1.368 . S
C3882 C3881 1.523 . S
H3883 C3858 0.950 . S
H3884 C3860 0.950 . S
H3885 C3861 0.949 . S
H3886 C3863 0.950 . S
H3887 C3865 0.950 . S
C3888 C3889 1.349 . S
C3888 C3890 1.327 . S
C3888 H3913 0.950 . S
C3889 C3888 1.349 . S
C3889 C3905 1.349 . S
C3890 C3888 1.327 . S
C3890 C3909 1.429 . S
C3890 H3914 0.950 . S
C3891 C3908 1.574 . S
C3891 C3910 1.368 . S
C3891 H3915 0.949 . S
H3892 C3896 0.949 . S
C3893 C3894 1.349 . S
C3893 C3895 1.327 . S
C3893 H3916 0.950 . S
C3894 C3893 1.349 . S
C3894 C3906 1.349 . S
C3895 C3893 1.327 . S
C3895 C3911 1.429 . S
C3895 H3917 0.950 . S
C3896 H3892 0.949 . S
C3896 C3904 1.574 . S
C3896 C3912 1.368 . S
H3897 C3905 0.950 . S
H3898 C3903 0.950 . S
H3899 C3904 0.949 . S
H3900 C3906 0.950 . S
H3901 C3907 0.950 . S
H3902 C3908 0.949 . S
C3903 H3898 0.950 . S
C3903 C3905 1.327 . S
C3903 C3909 1.429 . S
C3904 C3896 1.574 . S
C3904 H3899 0.949 . S
C3904 C3910 1.368 . S
C3905 C3889 1.349 . S
C3905 H3897 0.950 . S
C3905 C3903 1.327 . S
C3906 C3894 1.349 . S
C3906 H3900 0.950 . S
C3906 C3907 1.327 . S
C3907 H3901 0.950 . S
C3907 C3906 1.327 . S
C3907 C3911 1.429 . S
C3908 C3891 1.574 . S
C3908 H3902 0.949 . S
C3908 C3912 1.368 . S
C3909 C3890 1.429 . S
C3909 C3903 1.429 . S
C3909 C3910 1.523 . S
C3910 C3891 1.368 . S
C3910 C3904 1.368 . S
C3910 C3909 1.523 . S
C3911 C3895 1.429 . S
C3911 C3907 1.429 . S
C3911 C3912 1.523 . S
C3912 C3896 1.368 . S
C3912 C3908 1.368 . S
C3912 C3911 1.523 . S
H3913 C3888 0.950 . S
H3914 C3890 0.950 . S
H3915 C3891 0.949 . S
H3916 C3893 0.950 . S
H3917 C3895 0.950 . S
C3918 C3919 1.349 . S
C3918 C3920 1.327 . S
C3918 H3943 0.950 . S
C3919 C3918 1.349 . S
C3919 C3935 1.349 . S
C3920 C3918 1.327 . S
C3920 C3939 1.429 . S
C3920 H3944 0.950 . S
C3921 C3938 1.574 . S
C3921 C3940 1.368 . S
C3921 H3945 0.949 . S
H3922 C3926 0.949 . S
C3923 C3924 1.349 . S
C3923 C3925 1.327 . S
C3923 H3946 0.950 . S
C3924 C3923 1.349 . S
C3924 C3936 1.349 . S
C3925 C3923 1.327 . S
C3925 C3941 1.429 . S
C3925 H3947 0.950 . S
C3926 H3922 0.949 . S
C3926 C3934 1.574 . S
C3926 C3942 1.368 . S
H3927 C3935 0.950 . S
H3928 C3933 0.950 . S
H3929 C3934 0.949 . S
H3930 C3936 0.950 . S
H3931 C3937 0.950 . S
H3932 C3938 0.949 . S
C3933 H3928 0.950 . S
C3933 C3935 1.327 . S
C3933 C3939 1.429 . S
C3934 C3926 1.574 . S
C3934 H3929 0.949 . S
C3934 C3940 1.368 . S
C3935 C3919 1.349 . S
C3935 H3927 0.950 . S
C3935 C3933 1.327 . S
C3936 C3924 1.349 . S
C3936 H3930 0.950 . S
C3936 C3937 1.327 . S
C3937 H3931 0.950 . S
C3937 C3936 1.327 . S
C3937 C3941 1.429 . S
C3938 C3921 1.574 . S
C3938 H3932 0.949 . S
C3938 C3942 1.368 . S
C3939 C3920 1.429 . S
C3939 C3933 1.429 . S
C3939 C3940 1.523 . S
C3940 C3921 1.368 . S
C3940 C3934 1.368 . S
C3940 C3939 1.523 . S
C3941 C3925 1.429 . S
C3941 C3937 1.429 . S
C3941 C3942 1.523 . S
C3942 C3926 1.368 . S
C3942 C3938 1.368 . S
C3942 C3941 1.523 . S
H3943 C3918 0.950 . S
H3944 C3920 0.950 . S
H3945 C3921 0.949 . S
H3946 C3923 0.950 . S
H3947 C3925 0.950 . S
C3948 C3949 1.349 . S
C3948 C3950 1.327 . S
C3948 H3973 0.950 . S
C3949 C3948 1.349 . S
C3949 C3965 1.349 . S
C3950 C3948 1.327 . S
C3950 C3969 1.429 . S
C3950 H3974 0.950 . S
C3951 C3968 1.574 . S
C3951 C3970 1.368 . S
C3951 H3975 0.949 . S
H3952 C3956 0.949 . S
C3953 C3954 1.349 . S
C3953 C3955 1.327 . S
C3953 H3976 0.950 . S
C3954 C3953 1.349 . S
C3954 C3966 1.349 . S
C3955 C3953 1.327 . S
C3955 C3971 1.429 . S
C3955 H3977 0.950 . S
C3956 H3952 0.949 . S
C3956 C3964 1.574 . S
C3956 C3972 1.368 . S
H3957 C3965 0.950 . S
H3958 C3963 0.950 . S
H3959 C3964 0.949 . S
H3960 C3966 0.950 . S
H3961 C3967 0.950 . S
H3962 C3968 0.949 . S
C3963 H3958 0.950 . S
C3963 C3965 1.327 . S
C3963 C3969 1.429 . S
C3964 C3956 1.574 . S
C3964 H3959 0.949 . S
C3964 C3970 1.368 . S
C3965 C3949 1.349 . S
C3965 H3957 0.950 . S
C3965 C3963 1.327 . S
C3966 C3954 1.349 . S
C3966 H3960 0.950 . S
C3966 C3967 1.327 . S
C3967 H3961 0.950 . S
C3967 C3966 1.327 . S
C3967 C3971 1.429 . S
C3968 C3951 1.574 . S
C3968 H3962 0.949 . S
C3968 C3972 1.368 . S
C3969 C3950 1.429 . S
C3969 C3963 1.429 . S
C3969 C3970 1.523 . S
C3970 C3951 1.368 . S
C3970 C3964 1.368 . S
C3970 C3969 1.523 . S
C3971 C3955 1.429 . S
C3971 C3967 1.429 . S
C3971 C3972 1.523 . S
C3972 C3956 1.368 . S
C3972 C3968 1.368 . S
C3972 C3971 1.523 . S
H3973 C3948 0.950 . S
H3974 C3950 0.950 . S
H3975 C3951 0.949 . S
H3976 C3953 0.950 . S
H3977 C3955 0.950 . S
C3978 C3979 1.349 . S
C3978 C3980 1.327 . S
C3978 H4003 0.950 . S
C3979 C3978 1.349 . S
C3979 C3995 1.349 . S
C3980 C3978 1.327 . S
C3980 C3999 1.429 . S
C3980 H4004 0.950 . S
C3981 C3998 1.574 . S
C3981 C4000 1.368 . S
C3981 H4005 0.949 . S
H3982 C3986 0.949 . S
C3983 C3984 1.349 . S
C3983 C3985 1.327 . S
C3983 H4006 0.950 . S
C3984 C3983 1.349 . S
C3984 C3996 1.349 . S
C3985 C3983 1.327 . S
C3985 C4001 1.429 . S
C3985 H4007 0.950 . S
C3986 H3982 0.949 . S
C3986 C3994 1.574 . S
C3986 C4002 1.368 . S
H3987 C3995 0.950 . S
H3988 C3993 0.950 . S
H3989 C3994 0.949 . S
H3990 C3996 0.950 . S
H3991 C3997 0.950 . S
H3992 C3998 0.949 . S
C3993 H3988 0.950 . S
C3993 C3995 1.327 . S
C3993 C3999 1.429 . S
C3994 C3986 1.574 . S
C3994 H3989 0.949 . S
C3994 C4000 1.368 . S
C3995 C3979 1.349 . S
C3995 H3987 0.950 . S
C3995 C3993 1.327 . S
C3996 C3984 1.349 . S
C3996 H3990 0.950 . S
C3996 C3997 1.327 . S
C3997 H3991 0.950 . S
C3997 C3996 1.327 . S
C3997 C4001 1.429 . S
C3998 C3981 1.574 . S
C3998 H3992 0.949 . S
C3998 C4002 1.368 . S
C3999 C3980 1.429 . S
C3999 C3993 1.429 . S
C3999 C4000 1.523 . S
C4000 C3981 1.368 . S
C4000 C3994 1.368 . S
C4000 C3999 1.523 . S
C4001 C3985 1.429 . S
C4001 C3997 1.429 . S
C4001 C4002 1.523 . S
C4002 C3986 1.368 . S
C4002 C3998 1.368 . S
C4002 C4001 1.523 . S
H4003 C3978 0.950 . S
H4004 C3980 0.950 . S
H4005 C3981 0.949 . S
H4006 C3983 0.950 . S
H4007 C3985 0.950 . S
C4008 C4009 1.349 . S
C4008 C4010 1.327 . S
C4008 H4033 0.950 . S
C4009 C4008 1.349 . S
C4009 C4025 1.349 . S
C4010 C4008 1.327 . S
C4010 C4029 1.429 . S
C4010 H4034 0.950 . S
C4011 C4028 1.574 . S
C4011 C4030 1.368 . S
C4011 H4035 0.949 . S
H4012 C4016 0.949 . S
C4013 C4014 1.349 . S
C4013 C4015 1.327 . S
C4013 H4036 0.950 . S
C4014 C4013 1.349 . S
C4014 C4026 1.349 . S
C4015 C4013 1.327 . S
C4015 C4031 1.429 . S
C4015 H4037 0.950 . S
C4016 H4012 0.949 . S
C4016 C4024 1.574 . S
C4016 C4032 1.368 . S
H4017 C4025 0.950 . S
H4018 C4023 0.950 . S
H4019 C4024 0.949 . S
H4020 C4026 0.950 . S
H4021 C4027 0.950 . S
H4022 C4028 0.949 . S
C4023 H4018 0.950 . S
C4023 C4025 1.327 . S
C4023 C4029 1.429 . S
C4024 C4016 1.574 . S
C4024 H4019 0.949 . S
C4024 C4030 1.368 . S
C4025 C4009 1.349 . S
C4025 H4017 0.950 . S
C4025 C4023 1.327 . S
C4026 C4014 1.349 . S
C4026 H4020 0.950 . S
C4026 C4027 1.327 . S
C4027 H4021 0.950 . S
C4027 C4026 1.327 . S
C4027 C4031 1.429 . S
C4028 C4011 1.574 . S
C4028 H4022 0.949 . S
C4028 C4032 1.368 . S
C4029 C4010 1.429 . S
C4029 C4023 1.429 . S
C4029 C4030 1.523 . S
C4030 C4011 1.368 . S
C4030 C4024 1.368 . S
C4030 C4029 1.523 . S
C4031 C4015 1.429 . S
C4031 C4027 1.429 . S
C4031 C4032 1.523 . S
C4032 C4016 1.368 . S
C4032 C4028 1.368 . S
C4032 C4031 1.523 . S
H4033 C4008 0.950 . S
H4034 C4010 0.950 . S
H4035 C4011 0.949 . S
H4036 C4013 0.950 . S
H4037 C4015 0.950 . S
C4038 C4039 1.349 . S
C4038 C4040 1.327 . S
C4038 H4063 0.950 . S
C4039 C4038 1.349 . S
C4039 C4055 1.349 . S
C4040 C4038 1.327 . S
C4040 C4059 1.429 . S
C4040 H4064 0.950 . S
C4041 C4058 1.574 . S
C4041 C4060 1.368 . S
C4041 H4065 0.949 . S
H4042 C4046 0.949 . S
C4043 C4044 1.349 . S
C4043 C4045 1.327 . S
C4043 H4066 0.950 . S
C4044 C4043 1.349 . S
C4044 C4056 1.349 . S
C4045 C4043 1.327 . S
C4045 C4061 1.429 . S
C4045 H4067 0.950 . S
C4046 H4042 0.949 . S
C4046 C4054 1.574 . S
C4046 C4062 1.368 . S
H4047 C4055 0.950 . S
H4048 C4053 0.950 . S
H4049 C4054 0.949 . S
H4050 C4056 0.950 . S
H4051 C4057 0.950 . S
H4052 C4058 0.949 . S
C4053 H4048 0.950 . S
C4053 C4055 1.327 . S
C4053 C4059 1.429 . S
C4054 C4046 1.574 . S
C4054 H4049 0.949 . S
C4054 C4060 1.368 . S
C4055 C4039 1.349 . S
C4055 H4047 0.950 . S
C4055 C4053 1.327 . S
C4056 C4044 1.349 . S
C4056 H4050 0.950 . S
C4056 C4057 1.327 . S
C4057 H4051 0.950 . S
C4057 C4056 1.327 . S
C4057 C4061 1.429 . S
C4058 C4041 1.574 . S
C4058 H4052 0.949 . S
C4058 C4062 1.368 . S
C4059 C4040 1.429 . S
C4059 C4053 1.429 . S
C4059 C4060 1.523 . S
C4060 C4041 1.368 . S
C4060 C4054 1.368 . S
C4060 C4059 1.523 . S
C4061 C4045 1.429 . S
C4061 C4057 1.429 . S
C4061 C4062 1.523 . S
C4062 C4046 1.368 . S
C4062 C4058 1.368 . S
C4062 C4061 1.523 . S
H4063 C4038 0.950 . S
H4064 C4040 0.950 . S
H4065 C4041 0.949 . S
H4066 C4043 0.950 . S
H4067 C4045 0.950 . S
C4068 C4069 1.349 . S
C4068 C4070 1.327 . S
C4068 H4093 0.950 . S
C4069 C4068 1.349 . S
C4069 C4085 1.349 . S
C4070 C4068 1.327 . S
C4070 C4089 1.429 . S
C4070 H4094 0.950 . S
C4071 C4088 1.574 . S
C4071 C4090 1.368 . S
C4071 H4095 0.949 . S
H4072 C4076 0.949 . S
C4073 C4074 1.349 . S
C4073 C4075 1.327 . S
C4073 H4096 0.950 . S
C4074 C4073 1.349 . S
C4074 C4086 1.349 . S
C4075 C4073 1.327 . S
C4075 C4091 1.429 . S
C4075 H4097 0.950 . S
C4076 H4072 0.949 . S
C4076 C4084 1.574 . S
C4076 C4092 1.368 . S
H4077 C4085 0.950 . S
H4078 C4083 0.950 . S
H4079 C4084 0.949 . S
H4080 C4086 0.950 . S
H4081 C4087 0.950 . S
H4082 C4088 0.949 . S
C4083 H4078 0.950 . S
C4083 C4085 1.327 . S
C4083 C4089 1.429 . S
C4084 C4076 1.574 . S
C4084 H4079 0.949 . S
C4084 C4090 1.368 . S
C4085 C4069 1.349 . S
C4085 H4077 0.950 . S
C4085 C4083 1.327 . S
C4086 C4074 1.349 . S
C4086 H4080 0.950 . S
C4086 C4087 1.327 . S
C4087 H4081 0.950 . S
C4087 C4086 1.327 . S
C4087 C4091 1.429 . S
C4088 C4071 1.574 . S
C4088 H4082 0.949 . S
C4088 C4092 1.368 . S
C4089 C4070 1.429 . S
C4089 C4083 1.429 . S
C4089 C4090 1.523 . S
C4090 C4071 1.368 . S
C4090 C4084 1.368 . S
C4090 C4089 1.523 . S
C4091 C4075 1.429 . S
C4091 C4087 1.429 . S
C4091 C4092 1.523 . S
C4092 C4076 1.368 . S
C4092 C4088 1.368 . S
C4092 C4091 1.523 . S
H4093 C4068 0.950 . S
H4094 C4070 0.950 . S
H4095 C4071 0.949 . S
H4096 C4073 0.950 . S
H4097 C4075 0.950 . S
C4098 C4099 1.349 . S
C4098 C4100 1.327 . S
C4098 H4123 0.950 . S
C4099 C4098 1.349 . S
C4099 C4115 1.349 . S
C4100 C4098 1.327 . S
C4100 C4119 1.429 . S
C4100 H4124 0.950 . S
C4101 C4118 1.574 . S
C4101 C4120 1.368 . S
C4101 H4125 0.949 . S
H4102 C4106 0.949 . S
C4103 C4104 1.349 . S
C4103 C4105 1.327 . S
C4103 H4126 0.950 . S
C4104 C4103 1.349 . S
C4104 C4116 1.349 . S
C4105 C4103 1.327 . S
C4105 C4121 1.429 . S
C4105 H4127 0.950 . S
C4106 H4102 0.949 . S
C4106 C4114 1.574 . S
C4106 C4122 1.368 . S
H4107 C4115 0.950 . S
H4108 C4113 0.950 . S
H4109 C4114 0.949 . S
H4110 C4116 0.950 . S
H4111 C4117 0.950 . S
H4112 C4118 0.949 . S
C4113 H4108 0.950 . S
C4113 C4115 1.327 . S
C4113 C4119 1.429 . S
C4114 C4106 1.574 . S
C4114 H4109 0.949 . S
C4114 C4120 1.368 . S
C4115 C4099 1.349 . S
C4115 H4107 0.950 . S
C4115 C4113 1.327 . S
C4116 C4104 1.349 . S
C4116 H4110 0.950 . S
C4116 C4117 1.327 . S
C4117 H4111 0.950 . S
C4117 C4116 1.327 . S
C4117 C4121 1.429 . S
C4118 C4101 1.574 . S
C4118 H4112 0.949 . S
C4118 C4122 1.368 . S
C4119 C4100 1.429 . S
C4119 C4113 1.429 . S
C4119 C4120 1.523 . S
C4120 C4101 1.368 . S
C4120 C4114 1.368 . S
C4120 C4119 1.523 . S
C4121 C4105 1.429 . S
C4121 C4117 1.429 . S
C4121 C4122 1.523 . S
C4122 C4106 1.368 . S
C4122 C4118 1.368 . S
C4122 C4121 1.523 . S
H4123 C4098 0.950 . S
H4124 C4100 0.950 . S
H4125 C4101 0.949 . S
H4126 C4103 0.950 . S
H4127 C4105 0.950 . S
C4128 C4129 1.349 . S
C4128 C4130 1.327 . S
C4128 H4153 0.950 . S
C4129 C4128 1.349 . S
C4129 C4145 1.349 . S
C4130 C4128 1.327 . S
C4130 C4149 1.429 . S
C4130 H4154 0.950 . S
C4131 C4148 1.574 . S
C4131 C4150 1.368 . S
C4131 H4155 0.949 . S
H4132 C4136 0.949 . S
C4133 C4134 1.349 . S
C4133 C4135 1.327 . S
C4133 H4156 0.950 . S
C4134 C4133 1.349 . S
C4134 C4146 1.349 . S
C4135 C4133 1.327 . S
C4135 C4151 1.429 . S
C4135 H4157 0.950 . S
C4136 H4132 0.949 . S
C4136 C4144 1.574 . S
C4136 C4152 1.368 . S
H4137 C4145 0.950 . S
H4138 C4143 0.950 . S
H4139 C4144 0.949 . S
H4140 C4146 0.950 . S
H4141 C4147 0.950 . S
H4142 C4148 0.949 . S
C4143 H4138 0.950 . S
C4143 C4145 1.327 . S
C4143 C4149 1.429 . S
C4144 C4136 1.574 . S
C4144 H4139 0.949 . S
C4144 C4150 1.368 . S
C4145 C4129 1.349 . S
C4145 H4137 0.950 . S
C4145 C4143 1.327 . S
C4146 C4134 1.349 . S
C4146 H4140 0.950 . S
C4146 C4147 1.327 . S
C4147 H4141 0.950 . S
C4147 C4146 1.327 . S
C4147 C4151 1.429 . S
C4148 C4131 1.574 . S
C4148 H4142 0.949 . S
C4148 C4152 1.368 . S
C4149 C4130 1.429 . S
C4149 C4143 1.429 . S
C4149 C4150 1.523 . S
C4150 C4131 1.368 . S
C4150 C4144 1.368 . S
C4150 C4149 1.523 . S
C4151 C4135 1.429 . S
C4151 C4147 1.429 . S
C4151 C4152 1.523 . S
C4152 C4136 1.368 . S
C4152 C4148 1.368 . S
C4152 C4151 1.523 . S
H4153 C4128 0.950 . S
H4154 C4130 0.950 . S
H4155 C4131 0.949 . S
H4156 C4133 0.950 . S
H4157 C4135 0.950 . S
C4158 C4159 1.349 . S
C4158 C4160 1.327 . S
C4158 H4183 0.950 . S
C4159 C4158 1.349 . S
C4159 C4175 1.349 . S
C4160 C4158 1.327 . S
C4160 C4179 1.429 . S
C4160 H4184 0.950 . S
C4161 C4178 1.574 . S
C4161 C4180 1.368 . S
C4161 H4185 0.949 . S
H4162 C4166 0.949 . S
C4163 C4164 1.349 . S
C4163 C4165 1.327 . S
C4163 H4186 0.950 . S
C4164 C4163 1.349 . S
C4164 C4176 1.349 . S
C4165 C4163 1.327 . S
C4165 C4181 1.429 . S
C4165 H4187 0.950 . S
C4166 H4162 0.949 . S
C4166 C4174 1.574 . S
C4166 C4182 1.368 . S
H4167 C4175 0.950 . S
H4168 C4173 0.950 . S
H4169 C4174 0.949 . S
H4170 C4176 0.950 . S
H4171 C4177 0.950 . S
H4172 C4178 0.949 . S
C4173 H4168 0.950 . S
C4173 C4175 1.327 . S
C4173 C4179 1.429 . S
C4174 C4166 1.574 . S
C4174 H4169 0.949 . S
C4174 C4180 1.368 . S
C4175 C4159 1.349 . S
C4175 H4167 0.950 . S
C4175 C4173 1.327 . S
C4176 C4164 1.349 . S
C4176 H4170 0.950 . S
C4176 C4177 1.327 . S
C4177 H4171 0.950 . S
C4177 C4176 1.327 . S
C4177 C4181 1.429 . S
C4178 C4161 1.574 . S
C4178 H4172 0.949 . S
C4178 C4182 1.368 . S
C4179 C4160 1.429 . S
C4179 C4173 1.429 . S
C4179 C4180 1.523 . S
C4180 C4161 1.368 . S
C4180 C4174 1.368 . S
C4180 C4179 1.523 . S
C4181 C4165 1.429 . S
C4181 C4177 1.429 . S
C4181 C4182 1.523 . S
C4182 C4166 1.368 . S
C4182 C4178 1.368 . S
C4182 C4181 1.523 . S
H4183 C4158 0.950 . S
H4184 C4160 0.950 . S
H4185 C4161 0.949 . S
H4186 C4163 0.950 . S
H4187 C4165 0.950 . S
C4188 C4189 1.349 . S
C4188 C4190 1.327 . S
C4188 H4213 0.950 . S
C4189 C4188 1.349 . S
C4189 C4205 1.349 . S
C4190 C4188 1.327 . S
C4190 C4209 1.429 . S
C4190 H4214 0.950 . S
C4191 C4208 1.574 . S
C4191 C4210 1.368 . S
C4191 H4215 0.949 . S
H4192 C4196 0.949 . S
C4193 C4194 1.349 . S
C4193 C4195 1.327 . S
C4193 H4216 0.950 . S
C4194 C4193 1.349 . S
C4194 C4206 1.349 . S
C4195 C4193 1.327 . S
C4195 C4211 1.429 . S
C4195 H4217 0.950 . S
C4196 H4192 0.949 . S
C4196 C4204 1.574 . S
C4196 C4212 1.368 . S
H4197 C4205 0.950 . S
H4198 C4203 0.950 . S
H4199 C4204 0.949 . S
H4200 C4206 0.950 . S
H4201 C4207 0.950 . S
H4202 C4208 0.949 . S
C4203 H4198 0.950 . S
C4203 C4205 1.327 . S
C4203 C4209 1.429 . S
C4204 C4196 1.574 . S
C4204 H4199 0.949 . S
C4204 C4210 1.368 . S
C4205 C4189 1.349 . S
C4205 H4197 0.950 . S
C4205 C4203 1.327 . S
C4206 C4194 1.349 . S
C4206 H4200 0.950 . S
C4206 C4207 1.327 . S
C4207 H4201 0.950 . S
C4207 C4206 1.327 . S
C4207 C4211 1.429 . S
C4208 C4191 1.574 . S
C4208 H4202 0.949 . S
C4208 C4212 1.368 . S
C4209 C4190 1.429 . S
C4209 C4203 1.429 . S
C4209 C4210 1.523 . S
C4210 C4191 1.368 . S
C4210 C4204 1.368 . S
C4210 C4209 1.523 . S
C4211 C4195 1.429 . S
C4211 C4207 1.429 . S
C4211 C4212 1.523 . S
C4212 C4196 1.368 . S
C4212 C4208 1.368 . S
C4212 C4211 1.523 . S
H4213 C4188 0.950 . S
H4214 C4190 0.950 . S
H4215 C4191 0.949 . S
H4216 C4193 0.950 . S
H4217 C4195 0.950 . S
C4218 C4219 1.349 . S
C4218 C4220 1.327 . S
C4218 H4243 0.950 . S
C4219 C4218 1.349 . S
C4219 C4235 1.349 . S
C4220 C4218 1.327 . S
C4220 C4239 1.429 . S
C4220 H4244 0.950 . S
C4221 C4238 1.593 . S
C4221 C4240 1.368 . S
C4221 H4245 0.949 1_554 S
H4222 C4226 0.949 . S
C4223 C4224 1.349 . S
C4223 C4225 1.327 . S
C4223 H4246 0.950 1_554 S
C4224 C4223 1.349 . S
C4224 C4236 1.349 . S
C4225 C4223 1.327 . S
C4225 C4241 1.429 . S
C4225 H4247 0.950 1_554 S
C4226 H4222 0.949 . S
C4226 C4234 1.574 . S
C4226 C4242 1.368 . S
H4227 C4235 0.950 1_556 S
H4228 C4233 0.950 1_556 S
H4229 C4234 0.949 . S
H4230 C4236 0.950 . S
H4231 C4237 0.950 . S
H4232 C4238 0.916 1_546 S
C4233 H4228 0.950 1_554 S
C4233 C4235 1.327 . S
C4233 C4239 1.429 . S
C4234 C4226 1.574 . S
C4234 H4229 0.949 . S
C4234 C4240 1.368 . S
C4235 C4219 1.349 . S
C4235 H4227 0.950 1_554 S
C4235 C4233 1.327 . S
C4236 C4224 1.349 . S
C4236 H4230 0.950 . S
C4236 C4237 1.327 . S
C4237 H4231 0.950 . S
C4237 C4236 1.327 . S
C4237 C4241 1.429 . S
C4238 C4221 1.593 . S
C4238 H4232 0.916 1_564 S
C4238 C4242 1.390 . S
C4239 C4220 1.429 . S
C4239 C4233 1.429 . S
C4239 C4240 1.523 . S
C4240 C4221 1.368 . S
C4240 C4234 1.368 . S
C4240 C4239 1.523 . S
C4241 C4225 1.429 . S
C4241 C4237 1.429 . S
C4241 C4242 1.523 1_545 S
C4242 C4226 1.368 . S
C4242 C4238 1.390 . S
C4242 C4241 1.523 1_565 S
H4243 C4218 0.950 . S
H4244 C4220 0.950 . S
H4245 C4221 0.949 1_556 S
H4246 C4223 0.950 1_556 S
H4247 C4225 0.950 1_556 S
C4248 C4249 1.349 . S
C4248 C4250 1.327 . S
C4248 H4273 0.950 . S
C4249 C4248 1.349 . S
C4249 C4265 1.349 . S
C4250 C4248 1.327 . S
C4250 C4269 1.429 . S
C4250 H4274 0.950 . S
C4251 C4268 1.574 . S
C4251 C4270 1.368 . S
C4251 H4275 0.949 . S
H4252 C4256 0.949 . S
C4253 C4254 1.349 . S
C4253 C4255 1.327 . S
C4253 H4276 0.950 . S
C4254 C4253 1.349 . S
C4254 C4266 1.349 . S
C4255 C4253 1.327 . S
C4255 C4271 1.429 . S
C4255 H4277 0.950 . S
C4256 H4252 0.949 . S
C4256 C4264 1.574 . S
C4256 C4272 1.368 . S
H4257 C4265 0.950 . S
H4258 C4263 0.950 . S
H4259 C4264 0.949 . S
H4260 C4266 0.950 . S
H4261 C4267 0.950 . S
H4262 C4268 0.949 . S
C4263 H4258 0.950 . S
C4263 C4265 1.327 . S
C4263 C4269 1.429 . S
C4264 C4256 1.574 . S
C4264 H4259 0.949 . S
C4264 C4270 1.368 . S
C4265 C4249 1.349 . S
C4265 H4257 0.950 . S
C4265 C4263 1.327 . S
C4266 C4254 1.349 . S
C4266 H4260 0.950 . S
C4266 C4267 1.327 . S
C4267 H4261 0.950 . S
C4267 C4266 1.327 . S
C4267 C4271 1.429 . S
C4268 C4251 1.574 . S
C4268 H4262 0.949 . S
C4268 C4272 1.368 . S
C4269 C4250 1.429 . S
C4269 C4263 1.429 . S
C4269 C4270 1.523 . S
C4270 C4251 1.368 . S
C4270 C4264 1.368 . S
C4270 C4269 1.523 . S
C4271 C4255 1.429 . S
C4271 C4267 1.429 . S
C4271 C4272 1.523 . S
C4272 C4256 1.368 . S
C4272 C4268 1.368 . S
C4272 C4271 1.523 . S
H4273 C4248 0.950 . S
H4274 C4250 0.950 . S
H4275 C4251 0.949 . S
H4276 C4253 0.950 . S
H4277 C4255 0.950 . S
C4278 C4279 1.341 1_554 S
C4278 C4280 1.327 . S
C4278 H4303 0.950 . S
C4279 C4278 1.341 1_556 S
C4279 C4295 1.355 . S
C4280 C4278 1.327 . S
C4280 C4299 1.429 . S
C4280 H4304 0.950 . S
C4281 C4298 1.574 . S
C4281 C4300 1.368 1_556 S
C4281 H4305 0.949 . S
H4282 C4286 0.949 . S
C4283 C4284 1.349 . S
C4283 C4285 1.327 . S
C4283 H4306 0.927 1_554 S
C4284 C4283 1.349 . S
C4284 C4296 1.349 . S
C4285 C4283 1.327 . S
C4285 C4301 1.429 . S
C4285 H4307 0.950 1_554 S
C4286 H4282 0.949 . S
C4286 C4294 1.574 . S
C4286 C4302 1.368 . S
H4287 C4295 0.950 . S
H4288 C4293 0.950 . S
H4289 C4294 0.949 . S
H4290 C4296 0.950 . S
H4291 C4297 0.950 . S
H4292 C4298 0.949 . S
C4293 H4288 0.950 . S
C4293 C4295 1.327 . S
C4293 C4299 1.429 1_556 S
C4294 C4286 1.574 . S
C4294 H4289 0.949 . S
C4294 C4300 1.368 . S
C4295 C4279 1.355 . S
C4295 H4287 0.950 . S
C4295 C4293 1.327 . S
C4296 C4284 1.349 . S
C4296 H4290 0.950 . S
C4296 C4297 1.327 . S
C4297 H4291 0.950 . S
C4297 C4296 1.327 . S
C4297 C4301 1.429 . S
C4298 C4281 1.574 . S
C4298 H4292 0.949 . S
C4298 C4302 1.368 1_556 S
C4299 C4280 1.429 . S
C4299 C4293 1.429 1_554 S
C4299 C4300 1.523 . S
C4300 C4281 1.368 1_554 S
C4300 C4294 1.368 . S
C4300 C4299 1.523 . S
C4301 C4285 1.429 . S
C4301 C4297 1.429 . S
C4301 C4302 1.523 . S
C4302 C4286 1.368 . S
C4302 C4298 1.368 1_554 S
C4302 C4301 1.523 . S
H4303 C4278 0.950 . S
H4304 C4280 0.950 . S
H4305 C4281 0.949 . S
H4306 C4283 0.927 1_556 S
H4307 C4285 0.950 1_556 S
C4308 C4309 1.349 . S
C4308 C4310 1.327 . S
C4308 H4333 0.950 . S
C4309 C4308 1.349 . S
C4309 C4325 1.349 . S
C4310 C4308 1.327 . S
C4310 C4329 1.429 . S
C4310 H4334 0.950 . S
C4311 C4328 1.574 . S
C4311 C4330 1.368 . S
C4311 H4335 0.949 . S
H4312 C4316 0.949 . S
C4313 C4314 1.349 . S
C4313 C4315 1.327 . S
C4313 H4336 0.950 . S
C4314 C4313 1.349 . S
C4314 C4326 1.349 . S
C4315 C4313 1.327 . S
C4315 C4331 1.429 . S
C4315 H4337 0.950 . S
C4316 H4312 0.949 . S
C4316 C4324 1.574 . S
C4316 C4332 1.368 . S
H4317 C4325 0.950 . S
H4318 C4323 0.950 . S
H4319 C4324 0.949 . S
H4320 C4326 0.950 . S
H4321 C4327 0.950 . S
H4322 C4328 0.949 . S
C4323 H4318 0.950 . S
C4323 C4325 1.327 . S
C4323 C4329 1.429 . S
C4324 C4316 1.574 . S
C4324 H4319 0.949 . S
C4324 C4330 1.368 . S
C4325 C4309 1.349 . S
C4325 H4317 0.950 . S
C4325 C4323 1.327 . S
C4326 C4314 1.349 . S
C4326 H4320 0.950 . S
C4326 C4327 1.327 . S
C4327 H4321 0.950 . S
C4327 C4326 1.327 . S
C4327 C4331 1.429 . S
C4328 C4311 1.574 . S
C4328 H4322 0.949 . S
C4328 C4332 1.368 . S
C4329 C4310 1.429 . S
C4329 C4323 1.429 . S
C4329 C4330 1.523 . S
C4330 C4311 1.368 . S
C4330 C4324 1.368 . S
C4330 C4329 1.523 . S
C4331 C4315 1.429 . S
C4331 C4327 1.429 . S
C4331 C4332 1.523 . S
C4332 C4316 1.368 . S
C4332 C4328 1.368 . S
C4332 C4331 1.523 . S
H4333 C4308 0.950 . S
H4334 C4310 0.950 . S
H4335 C4311 0.949 . S
H4336 C4313 0.950 . S
H4337 C4315 0.950 . S
C4338 C4339 1.349 . S
C4338 C4340 1.327 . S
C4338 H4363 0.950 . S
C4339 C4338 1.349 . S
C4339 C4355 1.349 . S
C4340 C4338 1.327 . S
C4340 C4359 1.429 . S
C4340 H4364 0.950 . S
C4341 C4358 1.574 . S
C4341 C4360 1.368 . S
C4341 H4365 0.949 . S
H4342 C4346 0.949 . S
C4343 C4344 1.349 . S
C4343 C4345 1.327 . S
C4343 H4366 0.950 . S
C4344 C4343 1.349 . S
C4344 C4356 1.349 . S
C4345 C4343 1.327 . S
C4345 C4361 1.429 . S
C4345 H4367 0.950 . S
C4346 H4342 0.949 . S
C4346 C4354 1.574 . S
C4346 C4362 1.368 . S
H4347 C4355 0.950 . S
H4348 C4353 0.950 . S
H4349 C4354 0.949 . S
H4350 C4356 0.950 . S
H4351 C4357 0.950 . S
H4352 C4358 0.949 . S
C4353 H4348 0.950 . S
C4353 C4355 1.327 . S
C4353 C4359 1.429 . S
C4354 C4346 1.574 . S
C4354 H4349 0.949 . S
C4354 C4360 1.368 . S
C4355 C4339 1.349 . S
C4355 H4347 0.950 . S
C4355 C4353 1.327 . S
C4356 C4344 1.349 . S
C4356 H4350 0.950 . S
C4356 C4357 1.327 . S
C4357 H4351 0.950 . S
C4357 C4356 1.327 . S
C4357 C4361 1.429 . S
C4358 C4341 1.574 . S
C4358 H4352 0.949 . S
C4358 C4362 1.368 . S
C4359 C4340 1.429 . S
C4359 C4353 1.429 . S
C4359 C4360 1.523 . S
C4360 C4341 1.368 . S
C4360 C4354 1.368 . S
C4360 C4359 1.523 . S
C4361 C4345 1.429 . S
C4361 C4357 1.429 . S
C4361 C4362 1.523 . S
C4362 C4346 1.368 . S
C4362 C4358 1.368 . S
C4362 C4361 1.523 . S
H4363 C4338 0.950 . S
H4364 C4340 0.950 . S
H4365 C4341 0.949 . S
H4366 C4343 0.950 . S
H4367 C4345 0.950 . S
C4368 C4369 1.349 . S
C4368 C4370 1.327 . S
C4368 H4393 0.950 . S
C4369 C4368 1.349 . S
C4369 C4385 1.349 . S
C4370 C4368 1.327 . S
C4370 C4389 1.429 . S
C4370 H4394 0.950 . S
C4371 C4388 1.574 . S
C4371 C4390 1.368 . S
C4371 H4395 0.949 . S
H4372 C4376 0.949 . S
C4373 C4374 1.349 . S
C4373 C4375 1.327 . S
C4373 H4396 0.950 . S
C4374 C4373 1.349 . S
C4374 C4386 1.349 . S
C4375 C4373 1.327 . S
C4375 C4391 1.429 . S
C4375 H4397 0.950 . S
C4376 H4372 0.949 . S
C4376 C4384 1.574 . S
C4376 C4392 1.368 . S
H4377 C4385 0.950 . S
H4378 C4383 0.950 . S
H4379 C4384 0.949 . S
H4380 C4386 0.950 . S
H4381 C4387 0.950 . S
H4382 C4388 0.949 . S
C4383 H4378 0.950 . S
C4383 C4385 1.327 . S
C4383 C4389 1.429 . S
C4384 C4376 1.574 . S
C4384 H4379 0.949 . S
C4384 C4390 1.368 . S
C4385 C4369 1.349 . S
C4385 H4377 0.950 . S
C4385 C4383 1.327 . S
C4386 C4374 1.349 . S
C4386 H4380 0.950 . S
C4386 C4387 1.327 . S
C4387 H4381 0.950 . S
C4387 C4386 1.327 . S
C4387 C4391 1.429 . S
C4388 C4371 1.574 . S
C4388 H4382 0.949 . S
C4388 C4392 1.368 . S
C4389 C4370 1.429 . S
C4389 C4383 1.429 . S
C4389 C4390 1.523 . S
C4390 C4371 1.368 . S
C4390 C4384 1.368 . S
C4390 C4389 1.523 . S
C4391 C4375 1.429 . S
C4391 C4387 1.429 . S
C4391 C4392 1.523 . S
C4392 C4376 1.368 . S
C4392 C4388 1.368 . S
C4392 C4391 1.523 . S
H4393 C4368 0.950 . S
H4394 C4370 0.950 . S
H4395 C4371 0.949 . S
H4396 C4373 0.950 . S
H4397 C4375 0.950 . S
C4398 C4399 1.349 . S
C4398 C4400 1.327 . S
C4398 H4423 0.950 . S
C4399 C4398 1.349 . S
C4399 C4415 1.349 . S
C4400 C4398 1.327 . S
C4400 C4419 1.429 . S
C4400 H4424 0.950 . S
C4401 C4418 1.574 . S
C4401 C4420 1.368 . S
C4401 H4425 0.949 . S
H4402 C4406 0.949 . S
C4403 C4404 1.349 . S
C4403 C4405 1.327 . S
C4403 H4426 0.950 . S
C4404 C4403 1.349 . S
C4404 C4416 1.349 . S
C4405 C4403 1.327 . S
C4405 C4421 1.429 . S
C4405 H4427 0.950 . S
C4406 H4402 0.949 . S
C4406 C4414 1.574 . S
C4406 C4422 1.368 . S
H4407 C4415 0.950 . S
H4408 C4413 0.950 . S
H4409 C4414 0.949 . S
H4410 C4416 0.950 . S
H4411 C4417 0.950 . S
H4412 C4418 0.949 . S
C4413 H4408 0.950 . S
C4413 C4415 1.327 . S
C4413 C4419 1.429 . S
C4414 C4406 1.574 . S
C4414 H4409 0.949 . S
C4414 C4420 1.368 . S
C4415 C4399 1.349 . S
C4415 H4407 0.950 . S
C4415 C4413 1.327 . S
C4416 C4404 1.349 . S
C4416 H4410 0.950 . S
C4416 C4417 1.327 . S
C4417 H4411 0.950 . S
C4417 C4416 1.327 . S
C4417 C4421 1.429 . S
C4418 C4401 1.574 . S
C4418 H4412 0.949 . S
C4418 C4422 1.368 . S
C4419 C4400 1.429 . S
C4419 C4413 1.429 . S
C4419 C4420 1.523 . S
C4420 C4401 1.368 . S
C4420 C4414 1.368 . S
C4420 C4419 1.523 . S
C4421 C4405 1.429 . S
C4421 C4417 1.429 . S
C4421 C4422 1.523 . S
C4422 C4406 1.368 . S
C4422 C4418 1.368 . S
C4422 C4421 1.523 . S
H4423 C4398 0.950 . S
H4424 C4400 0.950 . S
H4425 C4401 0.949 . S
H4426 C4403 0.950 . S
H4427 C4405 0.950 . S
C4428 C4429 1.349 . S
C4428 C4430 1.327 . S
C4428 H4453 0.950 . S
C4429 C4428 1.349 . S
C4429 C4445 1.349 . S
C4430 C4428 1.327 . S
C4430 C4449 1.429 . S
C4430 H4454 0.950 . S
C4431 C4448 1.574 . S
C4431 C4450 1.368 . S
C4431 H4455 0.949 . S
H4432 C4436 0.949 . S
C4433 C4434 1.349 . S
C4433 C4435 1.327 . S
C4433 H4456 0.950 . S
C4434 C4433 1.349 . S
C4434 C4446 1.349 . S
C4435 C4433 1.327 . S
C4435 C4451 1.429 . S
C4435 H4457 0.950 . S
C4436 H4432 0.949 . S
C4436 C4444 1.574 . S
C4436 C4452 1.368 . S
H4437 C4445 0.950 . S
H4438 C4443 0.950 . S
H4439 C4444 0.949 . S
H4440 C4446 0.950 . S
H4441 C4447 0.950 . S
H4442 C4448 0.949 . S
C4443 H4438 0.950 . S
C4443 C4445 1.327 . S
C4443 C4449 1.429 . S
C4444 C4436 1.574 . S
C4444 H4439 0.949 . S
C4444 C4450 1.368 . S
C4445 C4429 1.349 . S
C4445 H4437 0.950 . S
C4445 C4443 1.327 . S
C4446 C4434 1.349 . S
C4446 H4440 0.950 . S
C4446 C4447 1.327 . S
C4447 H4441 0.950 . S
C4447 C4446 1.327 . S
C4447 C4451 1.429 . S
C4448 C4431 1.574 . S
C4448 H4442 0.949 . S
C4448 C4452 1.368 . S
C4449 C4430 1.429 . S
C4449 C4443 1.429 . S
C4449 C4450 1.523 . S
C4450 C4431 1.368 . S
C4450 C4444 1.368 . S
C4450 C4449 1.523 . S
C4451 C4435 1.429 . S
C4451 C4447 1.429 . S
C4451 C4452 1.523 . S
C4452 C4436 1.368 . S
C4452 C4448 1.368 . S
C4452 C4451 1.523 . S
H4453 C4428 0.950 . S
H4454 C4430 0.950 . S
H4455 C4431 0.949 . S
H4456 C4433 0.950 . S
H4457 C4435 0.950 . S
C4458 C4459 1.349 . S
C4458 C4460 1.327 . S
C4458 H4483 0.950 . S
C4459 C4458 1.349 . S
C4459 C4475 1.349 . S
C4460 C4458 1.327 . S
C4460 C4479 1.429 . S
C4460 H4484 0.950 . S
C4461 C4478 1.574 . S
C4461 C4480 1.368 . S
C4461 H4485 0.949 . S
H4462 C4466 0.949 . S
C4463 C4464 1.349 . S
C4463 C4465 1.327 . S
C4463 H4486 0.950 . S
C4464 C4463 1.349 . S
C4464 C4476 1.349 . S
C4465 C4463 1.327 . S
C4465 C4481 1.429 . S
C4465 H4487 0.950 . S
C4466 H4462 0.949 . S
C4466 C4474 1.574 . S
C4466 C4482 1.368 . S
H4467 C4475 0.950 . S
H4468 C4473 0.950 . S
H4469 C4474 0.949 . S
H4470 C4476 0.950 . S
H4471 C4477 0.950 . S
H4472 C4478 0.949 . S
C4473 H4468 0.950 . S
C4473 C4475 1.327 . S
C4473 C4479 1.429 . S
C4474 C4466 1.574 . S
C4474 H4469 0.949 . S
C4474 C4480 1.368 . S
C4475 C4459 1.349 . S
C4475 H4467 0.950 . S
C4475 C4473 1.327 . S
C4476 C4464 1.349 . S
C4476 H4470 0.950 . S
C4476 C4477 1.327 . S
C4477 H4471 0.950 . S
C4477 C4476 1.327 . S
C4477 C4481 1.429 . S
C4478 C4461 1.574 . S
C4478 H4472 0.949 . S
C4478 C4482 1.368 . S
C4479 C4460 1.429 . S
C4479 C4473 1.429 . S
C4479 C4480 1.523 . S
C4480 C4461 1.368 . S
C4480 C4474 1.368 . S
C4480 C4479 1.523 . S
C4481 C4465 1.429 . S
C4481 C4477 1.429 . S
C4481 C4482 1.523 . S
C4482 C4466 1.368 . S
C4482 C4478 1.368 . S
C4482 C4481 1.523 . S
H4483 C4458 0.950 . S
H4484 C4460 0.950 . S
H4485 C4461 0.949 . S
H4486 C4463 0.950 . S
H4487 C4465 0.950 . S
C4488 C4489 1.349 . S
C4488 C4490 1.327 . S
C4488 H4513 0.950 . S
C4489 C4488 1.349 . S
C4489 C4505 1.349 . S
C4490 C4488 1.327 . S
C4490 C4509 1.429 . S
C4490 H4514 0.950 . S
C4491 C4508 1.574 . S
C4491 C4510 1.368 . S
C4491 H4515 0.949 . S
H4492 C4496 0.949 . S
C4493 C4494 1.349 . S
C4493 C4495 1.327 . S
C4493 H4516 0.950 1_556 S
C4494 C4493 1.349 . S
C4494 C4506 1.349 . S
C4495 C4493 1.327 . S
C4495 C4511 1.429 . S
C4495 H4517 0.950 . S
C4496 H4492 0.949 . S
C4496 C4504 1.574 . S
C4496 C4512 1.368 . S
H4497 C4505 0.950 . S
H4498 C4503 0.950 . S
H4499 C4504 0.949 . S
H4500 C4506 0.950 . S
H4501 C4507 0.950 . S
H4502 C4508 0.949 . S
C4503 H4498 0.950 . S
C4503 C4505 1.327 . S
C4503 C4509 1.429 . S
C4504 C4496 1.574 . S
C4504 H4499 0.949 . S
C4504 C4510 1.368 . S
C4505 C4489 1.349 . S
C4505 H4497 0.950 . S
C4505 C4503 1.327 . S
C4506 C4494 1.349 . S
C4506 H4500 0.950 . S
C4506 C4507 1.327 . S
C4507 H4501 0.950 . S
C4507 C4506 1.327 . S
C4507 C4511 1.429 . S
C4508 C4491 1.574 . S
C4508 H4502 0.949 . S
C4508 C4512 1.368 . S
C4509 C4490 1.429 . S
C4509 C4503 1.429 . S
C4509 C4510 1.523 . S
C4510 C4491 1.368 . S
C4510 C4504 1.368 . S
C4510 C4509 1.523 . S
C4511 C4495 1.429 . S
C4511 C4507 1.429 . S
C4511 C4512 1.523 . S
C4512 C4496 1.368 . S
C4512 C4508 1.368 . S
C4512 C4511 1.523 . S
H4513 C4488 0.950 . S
H4514 C4490 0.950 . S
H4515 C4491 0.949 . S
H4516 C4493 0.950 1_554 S
H4517 C4495 0.950 . S
C4518 C4519 1.349 . S
C4518 C4520 1.327 . S
C4518 H4543 0.950 . S
C4519 C4518 1.349 . S
C4519 C4535 1.349 . S
C4520 C4518 1.327 . S
C4520 C4539 1.429 . S
C4520 H4544 0.950 . S
C4521 C4538 1.574 . S
C4521 C4540 1.368 . S
C4521 H4545 0.949 . S
H4522 C4526 0.949 . S
C4523 C4524 1.349 . S
C4523 C4525 1.327 . S
C4523 H4546 0.950 . S
C4524 C4523 1.349 . S
C4524 C4536 1.349 . S
C4525 C4523 1.327 . S
C4525 C4541 1.429 . S
C4525 H4547 0.950 . S
C4526 H4522 0.949 . S
C4526 C4534 1.574 . S
C4526 C4542 1.368 . S
H4527 C4535 0.950 . S
H4528 C4533 0.950 . S
H4529 C4534 0.949 . S
H4530 C4536 0.950 . S
H4531 C4537 0.950 . S
H4532 C4538 0.949 . S
C4533 H4528 0.950 . S
C4533 C4535 1.327 . S
C4533 C4539 1.429 . S
C4534 C4526 1.574 . S
C4534 H4529 0.949 . S
C4534 C4540 1.368 . S
C4535 C4519 1.349 . S
C4535 H4527 0.950 . S
C4535 C4533 1.327 . S
C4536 C4524 1.349 . S
C4536 H4530 0.950 . S
C4536 C4537 1.327 . S
C4537 H4531 0.950 . S
C4537 C4536 1.327 . S
C4537 C4541 1.429 . S
C4538 C4521 1.574 . S
C4538 H4532 0.949 . S
C4538 C4542 1.368 . S
C4539 C4520 1.429 . S
C4539 C4533 1.429 . S
C4539 C4540 1.523 . S
C4540 C4521 1.368 . S
C4540 C4534 1.368 . S
C4540 C4539 1.523 . S
C4541 C4525 1.429 . S
C4541 C4537 1.429 . S
C4541 C4542 1.523 . S
C4542 C4526 1.368 . S
C4542 C4538 1.368 . S
C4542 C4541 1.523 . S
H4543 C4518 0.950 . S
H4544 C4520 0.950 . S
H4545 C4521 0.949 . S
H4546 C4523 0.950 . S
H4547 C4525 0.950 . S
C4548 C4549 1.349 . S
C4548 C4550 1.327 . S
C4548 H4573 0.950 . S
C4549 C4548 1.349 . S
C4549 C4565 1.349 . S
C4550 C4548 1.327 . S
C4550 C4569 1.429 . S
C4550 H4574 0.950 . S
C4551 C4568 1.574 . S
C4551 C4570 1.368 . S
C4551 H4575 0.949 . S
H4552 C4556 0.949 . S
C4553 C4554 1.349 . S
C4553 C4555 1.327 . S
C4553 H4576 0.950 . S
C4554 C4553 1.349 . S
C4554 C4566 1.349 . S
C4555 C4553 1.327 . S
C4555 C4571 1.429 . S
C4555 H4577 0.950 . S
C4556 H4552 0.949 . S
C4556 C4564 1.574 . S
C4556 C4572 1.368 . S
H4557 C4565 0.950 . S
H4558 C4563 0.950 . S
H4559 C4564 0.949 . S
H4560 C4566 0.950 . S
H4561 C4567 0.950 . S
H4562 C4568 0.949 . S
C4563 H4558 0.950 . S
C4563 C4565 1.327 . S
C4563 C4569 1.429 . S
C4564 C4556 1.574 . S
C4564 H4559 0.949 . S
C4564 C4570 1.368 . S
C4565 C4549 1.349 . S
C4565 H4557 0.950 . S
C4565 C4563 1.327 . S
C4566 C4554 1.349 . S
C4566 H4560 0.950 . S
C4566 C4567 1.327 . S
C4567 H4561 0.950 . S
C4567 C4566 1.327 . S
C4567 C4571 1.429 . S
C4568 C4551 1.574 . S
C4568 H4562 0.949 . S
C4568 C4572 1.368 . S
C4569 C4550 1.429 . S
C4569 C4563 1.429 . S
C4569 C4570 1.523 . S
C4570 C4551 1.368 . S
C4570 C4564 1.368 . S
C4570 C4569 1.523 . S
C4571 C4555 1.429 . S
C4571 C4567 1.429 . S
C4571 C4572 1.523 . S
C4572 C4556 1.368 . S
C4572 C4568 1.368 . S
C4572 C4571 1.523 . S
H4573 C4548 0.950 . S
H4574 C4550 0.950 . S
H4575 C4551 0.949 . S
H4576 C4553 0.950 . S
H4577 C4555 0.950 . S
C4578 C4579 1.349 . S
C4578 C4580 1.327 . S
C4578 H4603 0.950 . S
C4579 C4578 1.349 . S
C4579 C4595 1.349 . S
C4580 C4578 1.327 . S
C4580 C4599 1.429 . S
C4580 H4604 0.950 . S
C4581 C4598 1.574 . S
C4581 C4600 1.368 . S
C4581 H4605 0.949 . S
H4582 C4586 0.949 . S
C4583 C4584 1.349 . S
C4583 C4585 1.327 . S
C4583 H4606 0.950 . S
C4584 C4583 1.349 . S
C4584 C4596 1.349 . S
C4585 C4583 1.327 . S
C4585 C4601 1.429 . S
C4585 H4607 0.950 . S
C4586 H4582 0.949 . S
C4586 C4594 1.574 . S
C4586 C4602 1.368 . S
H4587 C4595 0.950 . S
H4588 C4593 0.950 . S
H4589 C4594 0.949 . S
H4590 C4596 0.950 . S
H4591 C4597 0.950 . S
H4592 C4598 0.949 . S
C4593 H4588 0.950 . S
C4593 C4595 1.327 . S
C4593 C4599 1.429 . S
C4594 C4586 1.574 . S
C4594 H4589 0.949 . S
C4594 C4600 1.368 . S
C4595 C4579 1.349 . S
C4595 H4587 0.950 . S
C4595 C4593 1.327 . S
C4596 C4584 1.349 . S
C4596 H4590 0.950 . S
C4596 C4597 1.327 . S
C4597 H4591 0.950 . S
C4597 C4596 1.327 . S
C4597 C4601 1.429 . S
C4598 C4581 1.574 . S
C4598 H4592 0.949 . S
C4598 C4602 1.368 . S
C4599 C4580 1.429 . S
C4599 C4593 1.429 . S
C4599 C4600 1.523 . S
C4600 C4581 1.368 . S
C4600 C4594 1.368 . S
C4600 C4599 1.523 . S
C4601 C4585 1.429 . S
C4601 C4597 1.429 . S
C4601 C4602 1.523 . S
C4602 C4586 1.368 . S
C4602 C4598 1.368 . S
C4602 C4601 1.523 . S
H4603 C4578 0.950 . S
H4604 C4580 0.950 . S
H4605 C4581 0.949 . S
H4606 C4583 0.950 . S
H4607 C4585 0.950 . S
C4608 C4609 1.349 . S
C4608 C4610 1.327 . S
C4608 H4633 0.950 . S
C4609 C4608 1.349 . S
C4609 C4625 1.349 . S
C4610 C4608 1.327 . S
C4610 C4629 1.429 . S
C4610 H4634 0.950 . S
C4611 C4628 1.574 . S
C4611 C4630 1.368 . S
C4611 H4635 0.949 . S
H4612 C4616 0.949 . S
C4613 C4614 1.349 . S
C4613 C4615 1.327 . S
C4613 H4636 0.950 . S
C4614 C4613 1.349 . S
C4614 C4626 1.349 . S
C4615 C4613 1.327 . S
C4615 C4631 1.429 . S
C4615 H4637 0.950 . S
C4616 H4612 0.949 . S
C4616 C4624 1.574 . S
C4616 C4632 1.368 . S
H4617 C4625 0.950 . S
H4618 C4623 0.950 . S
H4619 C4624 0.949 . S
H4620 C4626 0.950 . S
H4621 C4627 0.950 . S
H4622 C4628 0.949 . S
C4623 H4618 0.950 . S
C4623 C4625 1.327 . S
C4623 C4629 1.429 . S
C4624 C4616 1.574 . S
C4624 H4619 0.949 . S
C4624 C4630 1.368 . S
C4625 C4609 1.349 . S
C4625 H4617 0.950 . S
C4625 C4623 1.327 . S
C4626 C4614 1.349 . S
C4626 H4620 0.950 . S
C4626 C4627 1.327 . S
C4627 H4621 0.950 . S
C4627 C4626 1.327 . S
C4627 C4631 1.429 . S
C4628 C4611 1.574 . S
C4628 H4622 0.949 . S
C4628 C4632 1.368 . S
C4629 C4610 1.429 . S
C4629 C4623 1.429 . S
C4629 C4630 1.523 . S
C4630 C4611 1.368 . S
C4630 C4624 1.368 . S
C4630 C4629 1.523 . S
C4631 C4615 1.429 . S
C4631 C4627 1.429 . S
C4631 C4632 1.523 . S
C4632 C4616 1.368 . S
C4632 C4628 1.368 . S
C4632 C4631 1.523 . S
H4633 C4608 0.950 . S
H4634 C4610 0.950 . S
H4635 C4611 0.949 . S
H4636 C4613 0.950 . S
H4637 C4615 0.950 . S
C4638 C4639 1.349 . S
C4638 C4640 1.327 . S
C4638 H4663 0.950 . S
C4639 C4638 1.349 . S
C4639 C4655 1.349 . S
C4640 C4638 1.327 . S
C4640 C4659 1.429 . S
C4640 H4664 0.950 . S
C4641 C4658 1.574 . S
C4641 C4660 1.368 . S
C4641 H4665 0.949 . S
H4642 C4646 0.949 . S
C4643 C4644 1.349 . S
C4643 C4645 1.327 . S
C4643 H4666 0.950 . S
C4644 C4643 1.349 . S
C4644 C4656 1.349 . S
C4645 C4643 1.327 . S
C4645 C4661 1.429 . S
C4645 H4667 0.950 . S
C4646 H4642 0.949 . S
C4646 C4654 1.574 . S
C4646 C4662 1.368 . S
H4647 C4655 0.950 . S
H4648 C4653 0.950 . S
H4649 C4654 0.949 . S
H4650 C4656 0.950 . S
H4651 C4657 0.950 . S
H4652 C4658 0.949 . S
C4653 H4648 0.950 . S
C4653 C4655 1.327 . S
C4653 C4659 1.429 . S
C4654 C4646 1.574 . S
C4654 H4649 0.949 . S
C4654 C4660 1.368 . S
C4655 C4639 1.349 . S
C4655 H4647 0.950 . S
C4655 C4653 1.327 . S
C4656 C4644 1.349 . S
C4656 H4650 0.950 . S
C4656 C4657 1.327 . S
C4657 H4651 0.950 . S
C4657 C4656 1.327 . S
C4657 C4661 1.429 . S
C4658 C4641 1.574 . S
C4658 H4652 0.949 . S
C4658 C4662 1.368 . S
C4659 C4640 1.429 . S
C4659 C4653 1.429 . S
C4659 C4660 1.523 . S
C4660 C4641 1.368 . S
C4660 C4654 1.368 . S
C4660 C4659 1.523 . S
C4661 C4645 1.429 . S
C4661 C4657 1.429 . S
C4661 C4662 1.523 . S
C4662 C4646 1.368 . S
C4662 C4658 1.368 . S
C4662 C4661 1.523 . S
H4663 C4638 0.950 . S
H4664 C4640 0.950 . S
H4665 C4641 0.949 . S
H4666 C4643 0.950 . S
H4667 C4645 0.950 . S
C4668 C4669 1.349 . S
C4668 C4670 1.327 . S
C4668 H4693 0.950 . S
C4669 C4668 1.349 . S
C4669 C4685 1.349 . S
C4670 C4668 1.327 . S
C4670 C4689 1.429 . S
C4670 H4694 0.950 . S
C4671 C4688 1.574 . S
C4671 C4690 1.368 . S
C4671 H4695 0.949 . S
H4672 C4676 0.949 1_455 S
C4673 C4674 1.349 . S
C4673 C4675 1.327 . S
C4673 H4696 0.950 . S
C4674 C4673 1.349 . S
C4674 C4686 1.349 . S
C4675 C4673 1.327 . S
C4675 C4691 1.429 . S
C4675 H4697 0.950 1_455 S
C4676 H4672 0.949 1_655 S
C4676 C4684 1.574 . S
C4676 C4692 1.368 . S
H4677 C4685 0.950 . S
H4678 C4683 0.950 . S
H4679 C4684 0.949 . S
H4680 C4686 0.950 . S
H4681 C4687 0.950 . S
H4682 C4688 0.949 . S
C4683 H4678 0.950 . S
C4683 C4685 1.327 . S
C4683 C4689 1.429 . S
C4684 C4676 1.574 . S
C4684 H4679 0.949 . S
C4684 C4690 1.368 . S
C4685 C4669 1.349 . S
C4685 H4677 0.950 . S
C4685 C4683 1.327 . S
C4686 C4674 1.349 . S
C4686 H4680 0.950 . S
C4686 C4687 1.327 . S
C4687 H4681 0.950 . S
C4687 C4686 1.327 . S
C4687 C4691 1.429 . S
C4688 C4671 1.574 . S
C4688 H4682 0.949 . S
C4688 C4692 1.368 . S
C4689 C4670 1.429 . S
C4689 C4683 1.429 . S
C4689 C4690 1.523 . S
C4690 C4671 1.368 . S
C4690 C4684 1.368 . S
C4690 C4689 1.523 . S
C4691 C4675 1.429 . S
C4691 C4687 1.429 . S
C4691 C4692 1.523 1_455 S
C4692 C4676 1.368 . S
C4692 C4688 1.368 . S
C4692 C4691 1.523 1_655 S
H4693 C4668 0.950 . S
H4694 C4670 0.950 . S
H4695 C4671 0.949 . S
H4696 C4673 0.950 . S
H4697 C4675 0.950 1_655 S
C4698 C4699 1.349 . S
C4698 C4700 1.327 . S
C4698 H4723 0.950 . S
C4699 C4698 1.349 . S
C4699 C4715 1.349 . S
C4700 C4698 1.327 . S
C4700 C4719 1.429 . S
C4700 H4724 0.950 . S
C4701 C4718 1.574 . S
C4701 C4720 1.368 . S
C4701 H4725 0.949 . S
H4702 C4706 0.949 . S
C4703 C4704 1.349 . S
C4703 C4705 1.327 . S
C4703 H4726 0.950 . S
C4704 C4703 1.349 . S
C4704 C4716 1.349 . S
C4705 C4703 1.327 . S
C4705 C4721 1.429 . S
C4705 H4727 0.950 . S
C4706 H4702 0.949 . S
C4706 C4714 1.574 . S
C4706 C4722 1.368 . S
H4707 C4715 0.950 . S
H4708 C4713 0.950 . S
H4709 C4714 0.949 . S
H4710 C4716 0.950 . S
H4711 C4717 0.950 . S
H4712 C4718 0.949 . S
C4713 H4708 0.950 . S
C4713 C4715 1.327 . S
C4713 C4719 1.429 . S
C4714 C4706 1.574 . S
C4714 H4709 0.949 . S
C4714 C4720 1.368 . S
C4715 C4699 1.349 . S
C4715 H4707 0.950 . S
C4715 C4713 1.327 . S
C4716 C4704 1.349 . S
C4716 H4710 0.950 . S
C4716 C4717 1.327 . S
C4717 H4711 0.950 . S
C4717 C4716 1.327 . S
C4717 C4721 1.429 . S
C4718 C4701 1.574 . S
C4718 H4712 0.949 . S
C4718 C4722 1.368 . S
C4719 C4700 1.429 . S
C4719 C4713 1.429 . S
C4719 C4720 1.523 . S
C4720 C4701 1.368 . S
C4720 C4714 1.368 . S
C4720 C4719 1.523 . S
C4721 C4705 1.429 . S
C4721 C4717 1.429 . S
C4721 C4722 1.523 . S
C4722 C4706 1.368 . S
C4722 C4718 1.368 . S
C4722 C4721 1.523 . S
H4723 C4698 0.950 . S
H4724 C4700 0.950 . S
H4725 C4701 0.949 . S
H4726 C4703 0.950 . S
H4727 C4705 0.950 . S
C4728 C4729 1.349 . S
C4728 C4730 1.327 . S
C4728 H4753 0.950 . S
C4729 C4728 1.349 . S
C4729 C4745 1.349 . S
C4730 C4728 1.327 . S
C4730 C4749 1.429 . S
C4730 H4754 0.950 . S
C4731 C4748 1.574 . S
C4731 C4750 1.368 . S
C4731 H4755 0.949 . S
H4732 C4736 0.949 . S
C4733 C4734 1.349 . S
C4733 C4735 1.327 . S
C4733 H4756 0.950 . S
C4734 C4733 1.349 . S
C4734 C4746 1.349 . S
C4735 C4733 1.327 . S
C4735 C4751 1.429 . S
C4735 H4757 0.950 . S
C4736 H4732 0.949 . S
C4736 C4744 1.574 . S
C4736 C4752 1.368 . S
H4737 C4745 0.950 . S
H4738 C4743 0.950 . S
H4739 C4744 0.949 . S
H4740 C4746 0.950 . S
H4741 C4747 0.950 . S
H4742 C4748 0.949 . S
C4743 H4738 0.950 . S
C4743 C4745 1.327 . S
C4743 C4749 1.429 . S
C4744 C4736 1.574 . S
C4744 H4739 0.949 . S
C4744 C4750 1.368 . S
C4745 C4729 1.349 . S
C4745 H4737 0.950 . S
C4745 C4743 1.327 . S
C4746 C4734 1.349 . S
C4746 H4740 0.950 . S
C4746 C4747 1.327 . S
C4747 H4741 0.950 . S
C4747 C4746 1.327 . S
C4747 C4751 1.429 . S
C4748 C4731 1.574 . S
C4748 H4742 0.949 . S
C4748 C4752 1.368 . S
C4749 C4730 1.429 . S
C4749 C4743 1.429 . S
C4749 C4750 1.523 . S
C4750 C4731 1.368 . S
C4750 C4744 1.368 . S
C4750 C4749 1.523 . S
C4751 C4735 1.429 . S
C4751 C4747 1.429 . S
C4751 C4752 1.523 . S
C4752 C4736 1.368 . S
C4752 C4748 1.368 . S
C4752 C4751 1.523 . S
H4753 C4728 0.950 . S
H4754 C4730 0.950 . S
H4755 C4731 0.949 . S
H4756 C4733 0.950 . S
H4757 C4735 0.950 . S
C4758 C4759 1.349 . S
C4758 C4760 1.327 . S
C4758 H4783 0.950 . S
C4759 C4758 1.349 . S
C4759 C4775 1.349 . S
C4760 C4758 1.327 . S
C4760 C4779 1.429 . S
C4760 H4784 0.950 . S
C4761 C4778 1.574 . S
C4761 C4780 1.368 . S
C4761 H4785 0.949 . S
H4762 C4766 0.949 . S
C4763 C4764 1.349 . S
C4763 C4765 1.327 . S
C4763 H4786 0.950 . S
C4764 C4763 1.349 . S
C4764 C4776 1.349 . S
C4765 C4763 1.327 . S
C4765 C4781 1.429 . S
C4765 H4787 0.950 . S
C4766 H4762 0.949 . S
C4766 C4774 1.574 . S
C4766 C4782 1.368 . S
H4767 C4775 0.950 . S
H4768 C4773 0.950 . S
H4769 C4774 0.949 . S
H4770 C4776 0.950 . S
H4771 C4777 0.950 . S
H4772 C4778 0.949 . S
C4773 H4768 0.950 . S
C4773 C4775 1.327 . S
C4773 C4779 1.429 . S
C4774 C4766 1.574 . S
C4774 H4769 0.949 . S
C4774 C4780 1.368 . S
C4775 C4759 1.349 . S
C4775 H4767 0.950 . S
C4775 C4773 1.327 . S
C4776 C4764 1.349 . S
C4776 H4770 0.950 . S
C4776 C4777 1.327 . S
C4777 H4771 0.950 . S
C4777 C4776 1.327 . S
C4777 C4781 1.429 . S
C4778 C4761 1.574 . S
C4778 H4772 0.949 . S
C4778 C4782 1.368 . S
C4779 C4760 1.429 . S
C4779 C4773 1.429 . S
C4779 C4780 1.523 . S
C4780 C4761 1.368 . S
C4780 C4774 1.368 . S
C4780 C4779 1.523 . S
C4781 C4765 1.429 . S
C4781 C4777 1.429 . S
C4781 C4782 1.523 . S
C4782 C4766 1.368 . S
C4782 C4778 1.368 . S
C4782 C4781 1.523 . S
H4783 C4758 0.950 . S
H4784 C4760 0.950 . S
H4785 C4761 0.949 . S
H4786 C4763 0.950 . S
H4787 C4765 0.950 . S
C4788 C4789 1.349 . S
C4788 C4790 1.327 . S
C4788 H4813 0.950 . S
C4789 C4788 1.349 . S
C4789 C4805 1.349 . S
C4790 C4788 1.327 . S
C4790 C4809 1.429 . S
C4790 H4814 0.950 . S
C4791 C4808 1.574 . S
C4791 C4810 1.368 . S
C4791 H4815 0.949 . S
H4792 C4796 0.949 . S
C4793 C4794 1.349 . S
C4793 C4795 1.327 . S
C4793 H4816 0.950 . S
C4794 C4793 1.349 . S
C4794 C4806 1.349 1_455 S
C4795 C4793 1.327 . S
C4795 C4811 1.429 1_455 S
C4795 H4817 0.950 . S
C4796 H4792 0.949 . S
C4796 C4804 1.574 . S
C4796 C4812 1.368 . S
H4797 C4805 0.950 . S
H4798 C4803 0.950 . S
H4799 C4804 0.949 . S
H4800 C4806 0.950 . S
H4801 C4807 0.950 . S
H4802 C4808 0.949 . S
C4803 H4798 0.950 . S
C4803 C4805 1.327 . S
C4803 C4809 1.429 . S
C4804 C4796 1.574 . S
C4804 H4799 0.949 . S
C4804 C4810 1.368 . S
C4805 C4789 1.349 . S
C4805 H4797 0.950 . S
C4805 C4803 1.327 . S
C4806 C4794 1.349 1_655 S
C4806 H4800 0.950 . S
C4806 C4807 1.327 . S
C4807 H4801 0.950 . S
C4807 C4806 1.327 . S
C4807 C4811 1.429 . S
C4808 C4791 1.574 . S
C4808 H4802 0.949 . S
C4808 C4812 1.368 . S
C4809 C4790 1.429 . S
C4809 C4803 1.429 . S
C4809 C4810 1.523 . S
C4810 C4791 1.368 . S
C4810 C4804 1.368 . S
C4810 C4809 1.523 . S
C4811 C4795 1.429 1_655 S
C4811 C4807 1.429 . S
C4811 C4812 1.523 . S
C4812 C4796 1.368 . S
C4812 C4808 1.368 . S
C4812 C4811 1.523 . S
H4813 C4788 0.950 . S
H4814 C4790 0.950 . S
H4815 C4791 0.949 . S
H4816 C4793 0.950 . S
H4817 C4795 0.950 . S
C4818 C4819 1.349 . S
C4818 C4820 1.327 . S
C4818 H4843 0.950 . S
C4819 C4818 1.349 . S
C4819 C4835 1.349 . S
C4820 C4818 1.327 . S
C4820 C4839 1.429 . S
C4820 H4844 0.950 . S
C4821 C4838 1.574 . S
C4821 C4840 1.368 . S
C4821 H4845 0.949 . S
H4822 C4826 0.949 . S
C4823 C4824 1.349 . S
C4823 C4825 1.327 . S
C4823 H4846 0.950 . S
C4824 C4823 1.349 . S
C4824 C4836 1.349 . S
C4825 C4823 1.327 . S
C4825 C4841 1.429 . S
C4825 H4847 0.950 . S
C4826 H4822 0.949 . S
C4826 C4834 1.574 . S
C4826 C4842 1.368 . S
H4827 C4835 0.950 . S
H4828 C4833 0.950 . S
H4829 C4834 0.949 . S
H4830 C4836 0.950 . S
H4831 C4837 0.950 . S
H4832 C4838 0.949 . S
C4833 H4828 0.950 . S
C4833 C4835 1.327 . S
C4833 C4839 1.429 . S
C4834 C4826 1.574 . S
C4834 H4829 0.949 . S
C4834 C4840 1.368 . S
C4835 C4819 1.349 . S
C4835 H4827 0.950 . S
C4835 C4833 1.327 . S
C4836 C4824 1.349 . S
C4836 H4830 0.950 . S
C4836 C4837 1.327 . S
C4837 H4831 0.950 . S
C4837 C4836 1.327 . S
C4837 C4841 1.429 . S
C4838 C4821 1.574 . S
C4838 H4832 0.949 . S
C4838 C4842 1.368 . S
C4839 C4820 1.429 . S
C4839 C4833 1.429 . S
C4839 C4840 1.523 . S
C4840 C4821 1.368 . S
C4840 C4834 1.368 . S
C4840 C4839 1.523 . S
C4841 C4825 1.429 . S
C4841 C4837 1.429 . S
C4841 C4842 1.523 . S
C4842 C4826 1.368 . S
C4842 C4838 1.368 . S
C4842 C4841 1.523 . S
H4843 C4818 0.950 . S
H4844 C4820 0.950 . S
H4845 C4821 0.949 . S
H4846 C4823 0.950 . S
H4847 C4825 0.950 . S
C4848 C4849 1.349 . S
C4848 C4850 1.327 . S
C4848 H4873 0.950 . S
C4849 C4848 1.349 . S
C4849 C4865 1.349 . S
C4850 C4848 1.327 . S
C4850 C4869 1.429 . S
C4850 H4874 0.950 . S
C4851 C4868 1.574 . S
C4851 C4870 1.368 . S
C4851 H4875 0.949 . S
H4852 C4856 0.949 . S
C4853 C4854 1.349 . S
C4853 C4855 1.327 . S
C4853 H4876 0.950 . S
C4854 C4853 1.349 . S
C4854 C4866 1.349 . S
C4855 C4853 1.327 . S
C4855 C4871 1.429 . S
C4855 H4877 0.950 . S
C4856 H4852 0.949 . S
C4856 C4864 1.574 . S
C4856 C4872 1.368 . S
H4857 C4865 0.950 . S
H4858 C4863 0.950 . S
H4859 C4864 0.949 . S
H4860 C4866 0.950 . S
H4861 C4867 0.950 . S
H4862 C4868 0.949 . S
C4863 H4858 0.950 . S
C4863 C4865 1.327 . S
C4863 C4869 1.429 . S
C4864 C4856 1.574 . S
C4864 H4859 0.949 . S
C4864 C4870 1.368 . S
C4865 C4849 1.349 . S
C4865 H4857 0.950 . S
C4865 C4863 1.327 . S
C4866 C4854 1.349 . S
C4866 H4860 0.950 . S
C4866 C4867 1.327 . S
C4867 H4861 0.950 . S
C4867 C4866 1.327 . S
C4867 C4871 1.429 . S
C4868 C4851 1.574 . S
C4868 H4862 0.949 . S
C4868 C4872 1.368 . S
C4869 C4850 1.429 . S
C4869 C4863 1.429 . S
C4869 C4870 1.523 . S
C4870 C4851 1.368 . S
C4870 C4864 1.368 . S
C4870 C4869 1.523 . S
C4871 C4855 1.429 . S
C4871 C4867 1.429 . S
C4871 C4872 1.523 . S
C4872 C4856 1.368 . S
C4872 C4868 1.368 . S
C4872 C4871 1.523 . S
H4873 C4848 0.950 . S
H4874 C4850 0.950 . S
H4875 C4851 0.949 . S
H4876 C4853 0.950 . S
H4877 C4855 0.950 . S
C4878 C4879 1.349 . S
C4878 C4880 1.327 . S
C4878 H4903 0.950 . S
C4879 C4878 1.349 . S
C4879 C4895 1.349 . S
C4880 C4878 1.327 . S
C4880 C4899 1.429 . S
C4880 H4904 0.950 . S
C4881 C4898 1.574 . S
C4881 C4900 1.368 . S
C4881 H4905 0.949 . S
H4882 C4886 0.949 . S
C4883 C4884 1.349 1_565 S
C4883 C4885 1.327 . S
C4883 H4906 0.966 . S
C4884 C4883 1.349 1_545 S
C4884 C4896 1.349 . S
C4885 C4883 1.327 . S
C4885 C4901 1.429 . S
C4885 H4907 0.950 . S
C4886 H4882 0.949 . S
C4886 C4894 1.574 . S
C4886 C4902 1.368 . S
H4887 C4895 0.950 . S
H4888 C4893 0.950 . S
H4889 C4894 0.949 . S
H4890 C4896 0.950 . S
H4891 C4897 0.978 . S
H4892 C4898 0.949 . S
C4893 H4888 0.950 . S
C4893 C4895 1.327 . S
C4893 C4899 1.429 . S
C4894 C4886 1.574 . S
C4894 H4889 0.949 . S
C4894 C4900 1.368 . S
C4895 C4879 1.349 . S
C4895 H4887 0.950 . S
C4895 C4893 1.327 . S
C4896 C4884 1.349 . S
C4896 H4890 0.950 . S
C4896 C4897 1.327 1_545 S
C4897 H4891 0.978 . S
C4897 C4896 1.327 1_565 S
C4897 C4901 1.429 . S
C4898 C4881 1.574 . S
C4898 H4892 0.949 . S
C4898 C4902 1.368 . S
C4899 C4880 1.429 . S
C4899 C4893 1.429 . S
C4899 C4900 1.523 . S
C4900 C4881 1.368 . S
C4900 C4894 1.368 . S
C4900 C4899 1.523 . S
C4901 C4885 1.429 . S
C4901 C4897 1.429 . S
C4901 C4902 1.523 . S
C4902 C4886 1.368 . S
C4902 C4898 1.368 . S
C4902 C4901 1.523 . S
H4903 C4878 0.950 . S
H4904 C4880 0.950 . S
H4905 C4881 0.949 . S
H4906 C4883 0.966 . S
H4907 C4885 0.950 . S
C4908 C4909 1.349 . S
C4908 C4910 1.327 . S
C4908 H4933 0.950 . S
C4909 C4908 1.349 . S
C4909 C4925 1.349 . S
C4910 C4908 1.327 . S
C4910 C4929 1.429 . S
C4910 H4934 0.950 . S
C4911 C4928 1.574 . S
C4911 C4930 1.368 . S
C4911 H4935 0.949 . S
H4912 C4916 0.949 . S
C4913 C4914 1.349 . S
C4913 C4915 1.327 . S
C4913 H4936 0.950 . S
C4914 C4913 1.349 . S
C4914 C4926 1.349 . S
C4915 C4913 1.327 . S
C4915 C4931 1.429 . S
C4915 H4937 0.950 . S
C4916 H4912 0.949 . S
C4916 C4924 1.574 . S
C4916 C4932 1.368 . S
H4917 C4925 0.950 . S
H4918 C4923 0.950 . S
H4919 C4924 0.949 . S
H4920 C4926 0.950 . S
H4921 C4927 0.950 . S
H4922 C4928 0.949 . S
C4923 H4918 0.950 . S
C4923 C4925 1.327 . S
C4923 C4929 1.429 . S
C4924 C4916 1.574 . S
C4924 H4919 0.949 . S
C4924 C4930 1.368 . S
C4925 C4909 1.349 . S
C4925 H4917 0.950 . S
C4925 C4923 1.327 . S
C4926 C4914 1.349 . S
C4926 H4920 0.950 . S
C4926 C4927 1.327 . S
C4927 H4921 0.950 . S
C4927 C4926 1.327 . S
C4927 C4931 1.429 . S
C4928 C4911 1.574 . S
C4928 H4922 0.949 . S
C4928 C4932 1.368 . S
C4929 C4910 1.429 . S
C4929 C4923 1.429 . S
C4929 C4930 1.523 . S
C4930 C4911 1.368 . S
C4930 C4924 1.368 . S
C4930 C4929 1.523 . S
C4931 C4915 1.429 . S
C4931 C4927 1.429 . S
C4931 C4932 1.523 . S
C4932 C4916 1.368 . S
C4932 C4928 1.368 . S
C4932 C4931 1.523 . S
H4933 C4908 0.950 . S
H4934 C4910 0.950 . S
H4935 C4911 0.949 . S
H4936 C4913 0.950 . S
H4937 C4915 0.950 . S
C4938 C4939 1.349 . S
C4938 C4940 1.327 . S
C4938 H4963 0.950 1_554 S
C4939 C4938 1.349 . S
C4939 C4955 1.349 . S
C4940 C4938 1.327 . S
C4940 C4959 1.429 . S
C4940 H4964 0.950 1_554 S
C4941 C4958 1.574 . S
C4941 C4960 1.368 . S
C4941 H4965 0.949 . S
H4942 C4946 0.926 1_556 S
C4943 C4944 1.349 . S
C4943 C4945 1.327 . S
C4943 H4966 0.950 . S
C4944 C4943 1.349 . S
C4944 C4956 1.349 . S
C4945 C4943 1.327 . S
C4945 C4961 1.429 . S
C4945 H4967 0.950 . S
C4946 H4942 0.926 1_554 S
C4946 C4954 1.576 . S
C4946 C4962 1.399 . S
H4947 C4955 0.950 . S
H4948 C4953 0.950 . S
H4949 C4954 0.908 1_556 S
H4950 C4956 0.950 1_556 S
H4951 C4957 0.950 1_556 S
H4952 C4958 0.949 . S
C4953 H4948 0.950 . S
C4953 C4955 1.327 . S
C4953 C4959 1.429 . S
C4954 C4946 1.576 . S
C4954 H4949 0.908 1_554 S
C4954 C4960 1.409 . S
C4955 C4939 1.349 . S
C4955 H4947 0.950 . S
C4955 C4953 1.327 . S
C4956 C4944 1.349 . S
C4956 H4950 0.950 1_554 S
C4956 C4957 1.327 . S
C4957 H4951 0.950 1_554 S
C4957 C4956 1.327 . S
C4957 C4961 1.429 . S
C4958 C4941 1.574 . S
C4958 H4952 0.949 . S
C4958 C4962 1.368 . S
C4959 C4940 1.429 . S
C4959 C4953 1.429 . S
C4959 C4960 1.523 . S
C4960 C4941 1.368 . S
C4960 C4954 1.409 . S
C4960 C4959 1.523 . S
C4961 C4945 1.429 . S
C4961 C4957 1.429 . S
C4961 C4962 1.523 . S
C4962 C4946 1.399 . S
C4962 C4958 1.368 . S
C4962 C4961 1.523 . S
H4963 C4938 0.950 1_556 S
H4964 C4940 0.950 1_556 S
H4965 C4941 0.949 . S
H4966 C4943 0.950 . S
H4967 C4945 0.950 . S
C4968 C4969 1.349 . S
C4968 C4970 1.327 . S
C4968 H4993 0.950 . S
C4969 C4968 1.349 . S
C4969 C4985 1.349 . S
C4970 C4968 1.327 . S
C4970 C4989 1.429 . S
C4970 H4994 0.950 . S
C4971 C4988 1.574 . S
C4971 C4990 1.368 . S
C4971 H4995 0.949 . S
H4972 C4976 0.949 . S
C4973 C4974 1.349 . S
C4973 C4975 1.327 . S
C4973 H4996 0.950 . S
C4974 C4973 1.349 . S
C4974 C4986 1.349 . S
C4975 C4973 1.327 . S
C4975 C4991 1.429 . S
C4975 H4997 0.950 . S
C4976 H4972 0.949 . S
C4976 C4984 1.574 . S
C4976 C4992 1.368 . S
H4977 C4985 0.950 . S
H4978 C4983 0.950 . S
H4979 C4984 0.949 . S
H4980 C4986 0.950 . S
H4981 C4987 0.950 . S
H4982 C4988 0.949 . S
C4983 H4978 0.950 . S
C4983 C4985 1.327 . S
C4983 C4989 1.429 . S
C4984 C4976 1.574 . S
C4984 H4979 0.949 . S
C4984 C4990 1.368 . S
C4985 C4969 1.349 . S
C4985 H4977 0.950 . S
C4985 C4983 1.327 . S
C4986 C4974 1.349 . S
C4986 H4980 0.950 . S
C4986 C4987 1.327 . S
C4987 H4981 0.950 . S
C4987 C4986 1.327 . S
C4987 C4991 1.429 . S
C4988 C4971 1.574 . S
C4988 H4982 0.949 . S
C4988 C4992 1.368 . S
C4989 C4970 1.429 . S
C4989 C4983 1.429 . S
C4989 C4990 1.523 . S
C4990 C4971 1.368 . S
C4990 C4984 1.368 . S
C4990 C4989 1.523 . S
C4991 C4975 1.429 . S
C4991 C4987 1.429 . S
C4991 C4992 1.523 . S
C4992 C4976 1.368 . S
C4992 C4988 1.368 . S
C4992 C4991 1.523 . S
H4993 C4968 0.950 . S
H4994 C4970 0.950 . S
H4995 C4971 0.949 . S
H4996 C4973 0.950 . S
H4997 C4975 0.950 . S
C4998 C4999 1.349 . S
C4998 C5000 1.327 . S
C4998 H5023 0.950 . S
C4999 C4998 1.349 . S
C4999 C5015 1.349 . S
C5000 C4998 1.327 . S
C5000 C5019 1.429 . S
C5000 H5024 0.964 . S
C5001 C5018 1.574 . S
C5001 C5020 1.368 . S
C5001 H5025 0.949 . S
H5002 C5006 0.949 1_556 S
C5003 C5004 1.349 . S
C5003 C5005 1.327 . S
C5003 H5026 0.950 . S
C5004 C5003 1.349 . S
C5004 C5016 1.349 1_554 S
C5005 C5003 1.327 . S
C5005 C5021 1.429 . S
C5005 H5027 0.950 . S
C5006 H5002 0.949 1_554 S
C5006 C5014 1.574 . S
C5006 C5022 1.368 . S
H5007 C5015 0.950 . S
H5008 C5013 0.950 . S
H5009 C5014 0.949 1_556 S
H5010 C5016 0.950 . S
H5011 C5017 0.950 . S
H5012 C5018 0.949 . S
C5013 H5008 0.950 . S
C5013 C5015 1.327 . S
C5013 C5019 1.429 . S
C5014 C5006 1.574 . S
C5014 H5009 0.949 1_554 S
C5014 C5020 1.368 . S
C5015 C4999 1.349 . S
C5015 H5007 0.950 . S
C5015 C5013 1.327 . S
C5016 C5004 1.349 1_556 S
C5016 H5010 0.950 . S
C5016 C5017 1.327 . S
C5017 H5011 0.950 . S
C5017 C5016 1.327 . S
C5017 C5021 1.429 1_556 S
C5018 C5001 1.574 . S
C5018 H5012 0.949 . S
C5018 C5022 1.368 . S
C5019 C5000 1.429 . S
C5019 C5013 1.429 . S
C5019 C5020 1.523 . S
C5020 C5001 1.368 . S
C5020 C5014 1.368 . S
C5020 C5019 1.523 . S
C5021 C5005 1.429 . S
C5021 C5017 1.429 1_554 S
C5021 C5022 1.523 . S
C5022 C5006 1.368 . S
C5022 C5018 1.368 . S
C5022 C5021 1.523 . S
H5023 C4998 0.950 . S
H5024 C5000 0.964 . S
H5025 C5001 0.949 . S
H5026 C5003 0.950 . S
H5027 C5005 0.950 . S
C5028 C5029 1.349 1_565 S
C5028 C5030 1.327 . S
C5028 H5053 0.950 . S
C5029 C5028 1.349 1_545 S
C5029 C5045 1.349 . S
C5030 C5028 1.327 . S
C5030 C5049 1.429 . S
C5030 H5054 0.950 . S
C5031 C5048 1.574 . S
C5031 C5050 1.368 . S
C5031 H5055 0.949 . S
H5032 C5036 0.949 . S
C5033 C5034 1.349 . S
C5033 C5035 1.327 . S
C5033 H5056 0.950 . S
C5034 C5033 1.349 . S
C5034 C5046 1.349 . S
C5035 C5033 1.327 . S
C5035 C5051 1.429 . S
C5035 H5057 0.950 . S
C5036 H5032 0.949 . S
C5036 C5044 1.574 . S
C5036 C5052 1.368 . S
H5037 C5045 0.950 . S
H5038 C5043 0.950 . S
H5039 C5044 0.949 . S
H5040 C5046 0.950 . S
H5041 C5047 0.950 . S
H5042 C5048 0.949 . S
C5043 H5038 0.950 . S
C5043 C5045 1.327 1_565 S
C5043 C5049 1.429 . S
C5044 C5036 1.574 . S
C5044 H5039 0.949 . S
C5044 C5050 1.368 . S
C5045 C5029 1.349 . S
C5045 H5037 0.950 . S
C5045 C5043 1.327 1_545 S
C5046 C5034 1.349 . S
C5046 H5040 0.950 . S
C5046 C5047 1.327 . S
C5047 H5041 0.950 . S
C5047 C5046 1.327 . S
C5047 C5051 1.429 . S
C5048 C5031 1.574 . S
C5048 H5042 0.949 . S
C5048 C5052 1.368 . S
C5049 C5030 1.429 . S
C5049 C5043 1.429 . S
C5049 C5050 1.523 . S
C5050 C5031 1.368 . S
C5050 C5044 1.368 . S
C5050 C5049 1.523 . S
C5051 C5035 1.429 . S
C5051 C5047 1.429 . S
C5051 C5052 1.523 . S
C5052 C5036 1.368 . S
C5052 C5048 1.368 . S
C5052 C5051 1.523 . S
H5053 C5028 0.950 . S
H5054 C5030 0.950 . S
H5055 C5031 0.949 . S
H5056 C5033 0.950 . S
H5057 C5035 0.950 . S
C5058 C5059 1.349 . S
C5058 C5060 1.327 . S
C5058 H5083 0.950 . S
C5059 C5058 1.349 . S
C5059 C5075 1.349 . S
C5060 C5058 1.327 . S
C5060 C5079 1.429 . S
C5060 H5084 0.950 . S
C5061 C5078 1.574 . S
C5061 C5080 1.368 . S
C5061 H5085 0.949 . S
H5062 C5066 0.949 . S
C5063 C5064 1.349 . S
C5063 C5065 1.327 . S
C5063 H5086 0.950 . S
C5064 C5063 1.349 . S
C5064 C5076 1.349 . S
C5065 C5063 1.327 . S
C5065 C5081 1.429 . S
C5065 H5087 0.950 . S
C5066 H5062 0.949 . S
C5066 C5074 1.574 . S
C5066 C5082 1.368 . S
H5067 C5075 0.950 . S
H5068 C5073 0.950 . S
H5069 C5074 0.949 . S
H5070 C5076 0.950 . S
H5071 C5077 0.950 . S
H5072 C5078 0.949 . S
C5073 H5068 0.950 . S
C5073 C5075 1.327 . S
C5073 C5079 1.429 . S
C5074 C5066 1.574 . S
C5074 H5069 0.949 . S
C5074 C5080 1.368 . S
C5075 C5059 1.349 . S
C5075 H5067 0.950 . S
C5075 C5073 1.327 . S
C5076 C5064 1.349 . S
C5076 H5070 0.950 . S
C5076 C5077 1.327 . S
C5077 H5071 0.950 . S
C5077 C5076 1.327 . S
C5077 C5081 1.429 . S
C5078 C5061 1.574 . S
C5078 H5072 0.949 . S
C5078 C5082 1.368 . S
C5079 C5060 1.429 . S
C5079 C5073 1.429 . S
C5079 C5080 1.523 . S
C5080 C5061 1.368 . S
C5080 C5074 1.368 . S
C5080 C5079 1.523 . S
C5081 C5065 1.429 . S
C5081 C5077 1.429 . S
C5081 C5082 1.523 . S
C5082 C5066 1.368 . S
C5082 C5078 1.368 . S
C5082 C5081 1.523 . S
H5083 C5058 0.950 . S
H5084 C5060 0.950 . S
H5085 C5061 0.949 . S
H5086 C5063 0.950 . S
H5087 C5065 0.950 . S
C2209 C255 1.580 . S
C2214 C920 1.472 . S
C2239 C147 2.184 . S
C2244 C1011 2.139 . S
C2269 C184 1.379 . S
C2274 C1088 1.318 1_565 S
C2304 C1186 1.573 . S
C2299 C220 1.724 . S
C2329 C40 1.545 . S
C2334 C1270 1.472 . S
C2364 C1342 0.926 . S
C2359 C74 0.980 . S
C2394 C1431 0.679 . S
C2389 C110 0.677 . S
C2419 C14 1.205 . S
C2424 C1508 1.093 . S
C2454 C927 1.993 . S
C2449 C579 2.094 . S
C2479 C616 0.589 . S
C2484 C1018 0.646 . S
C2514 C1095 1.220 . S
C2509 C687 1.261 . S
C2544 C1172 1.543 . S
C2539 C436 1.624 . S
C2569 C580 2.038 . S
C2574 C1256 1.906 . S
C2604 C1358 1.067 . S
C2599 C615 1.137 . S
C2634 C1438 0.743 . S
C2629 C688 0.740 . S
C2664 C1515 1.380 . S
C2659 C435 1.491 . S
C2694 C934 1.433 . S
C2689 C410 1.519 . S
C2719 C722 2.064 . S
C2724 C1599 1.988 . S
C2754 C1687 2.230 . S
C2749 C842 2.327 . S
C2784 C1760 0.504 . S
C2779 C794 0.388 . S
C2809 C302 0.715 . S
C2814 C1522 0.719 . S
C2839 C338 1.434 . S
C2844 C1102 1.374 . S
C2869 C830 2.423 . S
C2874 C1851 2.348 . S
C2904 C1928 0.781 . S
C2899 C758 0.788 . S
C2934 C931 1.427 . S
C2929 C158 1.443 . S
C2964 C1946 2.116 . S
C2959 C254 2.177 . S
C2989 C218 1.374 . S
C2994 C1099 1.314 . S
C3019 C194 1.615 . S
C3024 C1846 1.544 . S
C3054 C1258 1.473 . S
C3049 C3 1.542 . S
C3079 C111 0.842 . S
C3084 C1690 0.813 . S
C3114 C1442 0.651 1_556 S
C3109 C76 0.673 . S
C3144 C2023 1.168 . S
C3139 C50 1.211 . S
C3174 C938 1.932 . S
C3169 C364 2.029 . S
C3204 C1930 0.605 . S
C3199 C795 0.543 . S
C3229 C292 1.201 . S
C3234 C1106 1.156 . S
C3259 C723 1.572 . S
C3264 C1855 1.461 . S
C3289 C363 2.039 . S
C3294 C1267 1.872 . S
C3324 C1683 1.044 . S
C3319 C796 1.116 . S
C3349 C291 0.706 . S
C3354 C1426 0.720 . S
C3379 C724 1.472 . S
C3384 C2030 1.371 . S
C3409 C482 1.482 . S
C3414 C922 1.418 1_554 S
C3439 C434 2.026 . S
C3444 C1610 1.955 . S
C3469 C662 2.281 . S
C3474 C1340 2.181 . S
C3499 C614 0.340 . S
C3504 C1771 0.498 . S
C3534 C2014 0.698 . S
C3529 C698 0.708 . S
C3559 C554 1.367 . S
C3564 C1090 1.377 1_565 S
C3594 C1190 2.273 . S
C3589 C650 2.347 . S
C3624 C1015 0.721 . S
C3619 C506 0.710 . S
C3649 C183 1.578 . S
C3654 C2096 1.469 . S
C3684 C1935 2.138 . S
C3679 C219 2.184 . S
C3709 C256 1.374 . S
C3714 C2180 1.313 . S
C3739 C148 1.721 . S
C3744 C1858 1.570 . S
C3769 C122 1.577 . S
C3774 C1606 1.528 . S
C3804 C1678 0.886 . S
C3799 C2 0.931 . S
C3834 C1767 0.620 . S
C3829 C39 0.619 . S
C3864 C2012 1.182 . S
C3859 C86 1.295 . S
C3894 C2103 2.004 . S
C3889 C651 2.106 . S
C3919 C472 0.590 . S
C3924 C1942 0.646 . S
C3954 C2187 1.205 . S
C3949 C507 1.246 . S
C3984 C1844 1.549 . S
C3979 C544 1.629 . S
C4014 C1592 1.910 . S
C4009 C652 2.045 . S
C4039 C471 1.124 . S
C4044 C1694 1.058 . S
C4074 C1774 0.742 . S
C4069 C508 0.738 . S
C4099 C543 1.516 . S
C4104 C2019 1.410 . S
C4134 C2110 1.453 . S
C4129 C806 1.540 . S
C4159 C326 2.036 . S
C4164 C1263 1.964 . S
C4194 C1351 2.204 . S
C4189 C374 2.305 . S
C4224 C1424 0.527 . S
C4219 C398 0.414 . S
C4254 C2026 0.700 . S
C4249 C770 0.692 . S
C4279 C734 1.425 . S
C4284 C2194 1.360 . S
C4314 C1179 2.337 . S
C4309 C362 2.404 . S
C4344 C1004 0.799 . S
C4339 C290 0.810 . S
C4369 C230 1.438 . S
C4374 C2107 1.403 . S
C4404 C1022 2.121 . S
C4399 C182 2.184 . S
C4429 C146 1.374 . S
C4434 C2191 1.315 . S
C4459 C266 1.618 . S
C4464 C1174 1.548 . S
C4489 C75 1.584 . S
C4494 C1594 1.510 . S
C4524 C1354 0.913 . S
C4519 C38 0.964 . S
C4549 C4 0.587 . S
C4554 C1778 0.584 . S
C4579 C112 1.242 . S
C4584 C1519 1.120 . S
C4614 C2114 1.933 . S
C4609 C832 2.028 . S
C4639 C399 0.562 . S
C4644 C1006 0.616 . S
C4674 C2198 1.148 . S
C4669 C760 1.192 . S
C4699 C327 1.569 . S
C4704 C1183 1.462 . S
C4729 C831 2.076 . S
C4734 C1603 1.912 . S
C4764 C1347 1.044 . S
C4759 C400 1.115 . S
C4789 C759 0.718 . S
C4794 C1762 0.727 . S
C4824 C1526 1.384 . S
C4819 C328 1.482 . S
C4854 C2098 1.430 . S
C4849 C626 1.487 . S
C4884 C1274 1.958 1_655 S
C4879 C542 2.030 . S
C4909 C590 2.243 . S
C4914 C1676 2.146 . S
C4944 C1435 0.487 . S
C4939 C470 0.344 . S
C4969 C518 0.678 . S
C4974 C1510 0.663 . S
C4999 C446 1.356 . S
C5004 C2182 1.374 . S
C5034 C1862 2.285 . S
C5029 C578 2.360 . S
C5064 C1939 0.704 . S
C5059 C686 0.686 . S
