# Generated by pormake.
# Topology ssa, (4,4)-cn, num edge types: 1
# Building blocks:
#     Node 0, Type 0, BuildingBlock: KOZSID_clean_sbu_0, # of connection points: 4
#     Node 1, Type 0, BuildingBlock: KOZSID_clean_sbu_0, # of connection points: 4
#     Node 2, Type 0, BuildingBlock: KOZSID_clean_sbu_0, # of connection points: 4
#     Node 3, Type 0, BuildingBlock: KOZSID_clean_sbu_0, # of connection points: 4
#     Node 4, Type 0, BuildingBlock: KOZSID_clean_sbu_0, # of connection points: 4
#     Node 5, Type 0, BuildingBlock: KOZSID_clean_sbu_0, # of connection points: 4
#     Node 6, Type 1, BuildingBlock: MUDLON_clean_sbu_0, # of connection points: 4
#     Node 7, Type 1, BuildingBlock: MUDLON_clean_sbu_0, # of connection points: 4
#     Node 8, Type 1, BuildingBlock: MUDLON_clean_sbu_0, # of connection points: 4
#     Node 9, Type 1, BuildingBlock: MUDLON_clean_sbu_0, # of connection points: 4
#     Node 10, Type 1, BuildingBlock: MUDLON_clean_sbu_0, # of connection points: 4
#     Node 11, Type 1, BuildingBlock: MUDLON_clean_sbu_0, # of connection points: 4
#     Edge 12, Type (0, 1), BuildingBlock: TEMPAE_clean_linker_10, # of connection points: 2
#     Edge 13, Type (0, 1), BuildingBlock: TEMPAE_clean_linker_10, # of connection points: 2
#     Edge 14, Type (0, 1), BuildingBlock: TEMPAE_clean_linker_10, # of connection points: 2
#     Edge 15, Type (0, 1), BuildingBlock: TEMPAE_clean_linker_10, # of connection points: 2
#     Edge 16, Type (0, 1), BuildingBlock: TEMPAE_clean_linker_10, # of connection points: 2
#     Edge 17, Type (0, 1), BuildingBlock: TEMPAE_clean_linker_10, # of connection points: 2
#     Edge 18, Type (0, 1), BuildingBlock: TEMPAE_clean_linker_10, # of connection points: 2
#     Edge 19, Type (0, 1), BuildingBlock: TEMPAE_clean_linker_10, # of connection points: 2
#     Edge 20, Type (0, 1), BuildingBlock: TEMPAE_clean_linker_10, # of connection points: 2
#     Edge 21, Type (0, 1), BuildingBlock: TEMPAE_clean_linker_10, # of connection points: 2
#     Edge 22, Type (0, 1), BuildingBlock: TEMPAE_clean_linker_10, # of connection points: 2
#     Edge 23, Type (0, 1), BuildingBlock: TEMPAE_clean_linker_10, # of connection points: 2
#     Edge 24, Type (0, 1), BuildingBlock: TEMPAE_clean_linker_10, # of connection points: 2
#     Edge 25, Type (0, 1), BuildingBlock: TEMPAE_clean_linker_10, # of connection points: 2
#     Edge 26, Type (0, 1), BuildingBlock: TEMPAE_clean_linker_10, # of connection points: 2
#     Edge 27, Type (0, 1), BuildingBlock: TEMPAE_clean_linker_10, # of connection points: 2
#     Edge 28, Type (0, 1), BuildingBlock: TEMPAE_clean_linker_10, # of connection points: 2
#     Edge 29, Type (0, 1), BuildingBlock: TEMPAE_clean_linker_10, # of connection points: 2
#     Edge 30, Type (0, 1), BuildingBlock: TEMPAE_clean_linker_10, # of connection points: 2
#     Edge 31, Type (0, 1), BuildingBlock: TEMPAE_clean_linker_10, # of connection points: 2
#     Edge 32, Type (0, 1), BuildingBlock: TEMPAE_clean_linker_10, # of connection points: 2
#     Edge 33, Type (0, 1), BuildingBlock: TEMPAE_clean_linker_10, # of connection points: 2
#     Edge 34, Type (0, 1), BuildingBlock: TEMPAE_clean_linker_10, # of connection points: 2
#     Edge 35, Type (0, 1), BuildingBlock: TEMPAE_clean_linker_10, # of connection points: 2
# Relax obj value: 0.015
# Max RMSD: 0.035
# Mean RMSD: 0.022
data_MOF--net-ssa--node1-KOZSID_clean_sbu_0--node2-MUDLON_clean_sbu_0--edge1-TEMPAE_clean_linker_10
_symmetry_space_group_name_H-M    P1
_symmetry_Int_Tables_number       1
_symmetry_cell_setting            triclinic
loop_
_symmetry_equiv_pos_as_xyz
'x, y, z'
_cell_length_a     48.113688
_cell_length_b     49.49601
_cell_length_c     45.757157
_cell_angle_alpha  87.373879
_cell_angle_beta   89.896254
_cell_angle_gamma 122.87591
loop_
_atom_site_label
_atom_site_type_symbol
_atom_site_fract_x
_atom_site_fract_y
_atom_site_fract_z
_atom_type_partial_charge
C0 C 0.97117 0.51761 1.00007 0.0
C1 C 0.94038 0.50893 0.01126 0.0
C2 C 0.93375 0.4889 0.03542 0.0
C3 C 0.96071 0.48644 0.03759 0.0
N4 N 0.98449 0.50419 0.01659 0.0
Co5 Co 0.02669 0.50586 0.01042 0.0
N6 N 0.01642 0.47544 0.04531 0.0
C7 C 0.98864 0.4604 0.06262 0.0
C8 C 0.99051 0.44424 0.08688 0.0
C9 C 0.02177 0.4503 0.0856 0.0
C10 C 0.03716 0.46974 0.06039 0.0
N11 N 0.06876 0.50739 0.00431 0.0
C12 C 0.0841 0.49816 0.02321 0.0
C13 C 0.11451 0.50591 0.01204 0.0
C14 C 0.11911 0.52176 0.98544 0.0
C15 C 0.0913 0.52269 0.98198 0.0
N16 N 0.03748 0.5368 0.97589 0.0
C17 C 0.06486 0.55079 0.95809 0.0
C18 C 0.06479 0.57004 0.9356 0.0
C19 C 0.0354 0.56782 0.93894 0.0
C20 C 0.01916 0.54719 0.96332 0.0
N21 N 0.05029 0.54222 0.03658 0.0
C22 C 0.0893 0.58463 0.07973 0.0
C23 C 0.10208 0.58845 0.05126 0.0
C24 C 0.0822 0.56723 0.03011 0.0
C25 C 0.05574 0.56119 0.08526 0.0
C26 C 0.03676 0.54068 0.06345 0.0
N27 N 0.00298 0.46902 0.98426 0.0
C28 C 0.9973 0.44659 0.93691 0.0
C29 C 0.96579 0.41993 0.9449 0.0
C30 C 0.95396 0.41763 0.97341 0.0
C31 C 0.97276 0.44207 0.99251 0.0
C32 C 0.01532 0.47051 0.95675 0.0
H33 H 0.96191 0.43875 0.01365 0.0
H34 H 0.03884 0.49029 0.94899 0.0
H35 H 0.09361 0.57046 0.0091 0.0
H36 H 0.01155 0.5228 0.06923 0.0
C37 C 0.96375 0.46653 0.05823 0.0
C38 C 0.98561 0.53675 0.97262 0.0
C39 C 0.07242 0.48541 0.05312 0.0
C40 C 0.08869 0.54304 0.96152 0.0
H41 H 0.92397 0.51563 1.00238 0.0
H42 H 0.9115 0.4768 0.04923 0.0
H43 H 0.97229 0.4317 0.1046 0.0
H44 H 0.03239 0.44273 0.10228 0.0
H45 H 0.13228 0.50223 0.02286 0.0
H46 H 0.14127 0.53355 0.97151 0.0
H47 H 0.08333 0.58314 0.91821 0.0
H48 H 0.02643 0.57928 0.92458 0.0
H49 H 0.1278 0.6065 0.04568 0.0
H50 H 0.04427 0.55815 0.10658 0.0
H51 H 0.00769 0.44967 0.91507 0.0
H52 H 0.93004 0.39712 0.981 0.0
C53 C 0.544 0.99316 0.58024 0.0
C54 C 0.54386 0.97793 0.60651 0.0
C55 C 0.51446 0.94877 0.60857 0.0
C56 C 0.4984 0.94784 0.58355 0.0
N57 N 0.51604 0.9744 0.5653 0.0
Co58 Co 0.50117 0.98395 0.52742 0.0
N59 N 0.45657 0.94276 0.53207 0.0
C60 C 0.4449 0.92101 0.55516 0.0
C61 C 0.41427 0.89397 0.551 0.0
C62 C 0.40634 0.89833 0.52328 0.0
C63 C 0.43275 0.92782 0.51213 0.0
N64 N 0.48646 0.99325 0.48931 0.0
C65 C 0.4598 0.97331 0.47344 0.0
C66 C 0.46046 0.98796 0.44659 0.0
C67 C 0.48887 0.01791 0.44519 0.0
C68 C 0.504 0.01981 0.47104 0.0
N69 N 0.54576 0.02531 0.52288 0.0
C70 C 0.55674 0.0478 0.50041 0.0
C71 C 0.58765 0.07455 0.50423 0.0
C72 C 0.59671 0.06918 0.53103 0.0
C73 C 0.57066 0.03936 0.54205 0.0
N74 N 0.51722 0.96087 0.50569 0.0
C75 C 0.52212 0.92127 0.46674 0.0
C76 C 0.53514 0.95366 0.45899 0.0
C77 C 0.53318 0.97312 0.47895 0.0
C78 C 0.50981 0.90989 0.49534 0.0
C79 C 0.50771 0.93006 0.51444 0.0
N80 N 0.4845 0.00685 0.54885 0.0
C81 C 0.48002 0.05298 0.55276 0.0
C82 C 0.46478 0.04174 0.58049 0.0
C83 C 0.45886 0.01234 0.59189 0.0
C84 C 0.46856 0.99529 0.57572 0.0
C85 C 0.48967 0.03542 0.53755 0.0
H86 H 0.46327 0.97305 0.58563 0.0
H87 H 0.50185 0.04588 0.51692 0.0
H88 H 0.5432 0.99755 0.47172 0.0
H89 H 0.49673 0.91974 0.5356 0.0
C90 C 0.46546 0.9242 0.5781 0.0
C91 C 0.57 0.02632 0.5715 0.0
C92 C 0.43538 0.93947 0.48178 0.0
C93 C 0.53644 0.0442 0.4771 0.0
H94 H 0.56252 0.98745 0.62297 0.0
H95 H 0.50522 0.93104 0.6268 0.0
H96 H 0.40037 0.87269 0.56558 0.0
H97 H 0.38441 0.88113 0.51199 0.0
H98 H 0.44319 0.97763 0.42913 0.0
H99 H 0.49839 0.03536 0.42673 0.0
H100 H 0.60143 0.09594 0.48974 0.0
H101 H 0.61945 0.08573 0.5417 0.0
H102 H 0.54603 0.96373 0.43734 0.0
H103 H 0.50013 0.88506 0.50243 0.0
H104 H 0.48554 0.07587 0.54315 0.0
H105 H 0.44686 0.00254 0.61324 0.0
C106 C 0.52985 0.51016 0.96953 0.0
C107 C 0.53683 0.52898 0.94382 0.0
C108 C 0.51266 0.53544 0.94157 0.0
C109 C 0.49242 0.52022 0.96593 0.0
N110 N 0.50281 0.50537 0.98416 0.0
Co111 Co 0.47836 0.47634 0.01966 0.0
N112 N 0.4396 0.48058 0.01354 0.0
C113 C 0.4371 0.49935 0.99265 0.0
C114 C 0.40857 0.49911 0.99513 0.0
C115 C 0.39221 0.47963 0.01946 0.0
C116 C 0.41182 0.46911 0.03046 0.0
N117 N 0.45337 0.44588 0.05421 0.0
C118 C 0.42361 0.43659 0.06657 0.0
C119 C 0.41578 0.41555 0.09087 0.0
C120 C 0.44167 0.41176 0.09416 0.0
C121 C 0.46376 0.43059 0.07183 0.0
N122 N 0.51775 0.47322 0.02634 0.0
C123 C 0.5222 0.45798 0.04935 0.0
C124 C 0.55082 0.45835 0.04705 0.0
C125 C 0.56507 0.47402 0.02067 0.0
C126 C 0.54426 0.48243 0.00835 0.0
N127 N 0.497 0.51358 0.04527 0.0
C128 C 0.50906 0.56119 0.0843 0.0
C129 C 0.50848 0.53369 0.09401 0.0
C130 C 0.50273 0.5105 0.07423 0.0
C131 C 0.50623 0.56562 0.05436 0.0
C132 C 0.50063 0.54194 0.03539 0.0
N133 N 0.45946 0.43939 0.99419 0.0
C134 C 0.45628 0.39163 0.97918 0.0
C135 C 0.44295 0.39328 0.95252 0.0
C136 C 0.4357 0.41688 0.94814 0.0
C137 C 0.44398 0.43944 0.96911 0.0
C138 C 0.46403 0.41463 0.99971 0.0
H139 H 0.43869 0.45737 0.96402 0.0
H140 H 0.47488 0.4127 0.0194 0.0
H141 H 0.502 0.48985 0.08313 0.0
H142 H 0.4984 0.54684 0.01298 0.0
C143 C 0.46203 0.51693 0.97105 0.0
C144 C 0.54855 0.49594 0.97839 0.0
C145 C 0.40363 0.44941 0.05773 0.0
C146 C 0.49609 0.43787 0.06919 0.0
H147 H 0.55665 0.53625 0.92788 0.0
H148 H 0.50933 0.54831 0.92359 0.0
H149 H 0.40086 0.51201 0.9812 0.0
H150 H 0.3688 0.47426 0.02846 0.0
H151 H 0.39428 0.40507 0.10549 0.0
H152 H 0.44477 0.39823 0.11167 0.0
H153 H 0.55897 0.44633 0.06165 0.0
H154 H 0.5872 0.47713 0.01098 0.0
H155 H 0.51116 0.52939 0.11694 0.0
H156 H 0.5079 0.58716 0.04553 0.0
H157 H 0.46221 0.37367 0.98368 0.0
H158 H 0.42449 0.41856 0.9282 0.0
C159 C 0.92787 0.44668 0.51742 0.0
C160 C 0.89814 0.42353 0.50572 0.0
C161 C 0.89831 0.43444 0.47756 0.0
C162 C 0.92786 0.46367 0.47373 0.0
N163 N 0.94631 0.47159 0.49766 0.0
Co164 Co 0.98901 0.51278 0.50314 0.0
N165 N 0.98113 0.53525 0.47011 0.0
C166 C 0.95815 0.52066 0.44965 0.0
C167 C 0.95916 0.54179 0.42856 0.0
C168 C 0.98486 0.57153 0.4357 0.0
C169 C 0.99824 0.56691 0.46087 0.0
N170 N 0.03214 0.55374 0.50864 0.0
C171 C 0.04487 0.58379 0.49622 0.0
C172 C 0.07655 0.60511 0.50586 0.0
C173 C 0.0844 0.58758 0.52395 0.0
C174 C 0.05711 0.55667 0.52462 0.0
N175 N 0.99648 0.4903 0.53609 0.0
C176 C 0.02552 0.4995 0.54826 0.0
C177 C 0.02213 0.47938 0.57167 0.0
C178 C 0.98882 0.4563 0.57441 0.0
C179 C 0.97385 0.46382 0.55251 0.0
N180 N 0.01107 0.49999 0.47597 0.0
C181 C 0.04545 0.48274 0.43929 0.0
C182 C 0.02281 0.46089 0.46113 0.0
C183 C 0.00574 0.46986 0.47898 0.0
C184 C 0.04959 0.51304 0.43582 0.0
C185 C 0.0325 0.52119 0.45437 0.0
N186 N 0.96662 0.52467 0.53083 0.0
C187 C 0.96101 0.53531 0.58067 0.0
C188 C 0.92751 0.52374 0.57695 0.0
C189 C 0.91484 0.51534 0.54894 0.0
C190 C 0.93498 0.51659 0.52606 0.0
C191 C 0.98009 0.53557 0.5574 0.0
H192 H 0.92419 0.50888 0.50504 0.0
H193 H 0.00506 0.54244 0.5616 0.0
H194 H 0.98859 0.45251 0.49558 0.0
H195 H 0.03698 0.54484 0.45125 0.0
C196 C 0.93493 0.48736 0.45184 0.0
C197 C 0.93833 0.44514 0.54721 0.0
C198 C 0.03039 0.59208 0.47188 0.0
C199 C 0.05316 0.53049 0.54169 0.0
H200 H 0.87794 0.40163 0.51648 0.0
H201 H 0.87812 0.42358 0.46258 0.0
H202 H 0.94335 0.53622 0.41001 0.0
H203 H 0.99372 0.59385 0.42298 0.0
H204 H 0.09287 0.63044 0.4994 0.0
H205 H 0.10732 0.59633 0.53519 0.0
H206 H 0.04119 0.4823 0.5862 0.0
H207 H 0.97684 0.4366 0.59088 0.0
H208 H 0.01875 0.43725 0.46497 0.0
H209 H 0.06599 0.53059 0.41884 0.0
H210 H 0.97191 0.5422 0.6019 0.0
H211 H 0.88927 0.50695 0.54493 0.0
C212 C 0.46767 0.02515 0.08181 0.0
C213 C 0.46727 0.04093 0.10593 0.0
C214 C 0.49667 0.07008 0.10498 0.0
C215 C 0.51324 0.07049 0.08039 0.0
N216 N 0.4959 0.04362 0.06518 0.0
Co217 Co 0.51158 0.03317 0.02933 0.0
N218 N 0.55603 0.07463 0.02958 0.0
C219 C 0.56696 0.09739 0.0495 0.0
C220 C 0.5975 0.12445 0.04233 0.0
C221 C 0.60606 0.1191 0.01576 0.0
C222 C 0.58008 0.08903 0.00828 0.0
N223 N 0.5274 0.02271 0.99356 0.0
C224 C 0.55424 0.04232 0.97568 0.0
C225 C 0.55462 0.02675 0.95138 0.0
C226 C 0.52666 0.99646 0.95367 0.0
C227 C 0.51075 0.99529 0.97904 0.0
N228 N 0.46689 0.99185 0.02885 0.0
C229 C 0.45646 0.96896 0.00908 0.0
C230 C 0.4253 0.94247 0.01526 0.0
C231 C 0.41543 0.94846 0.04079 0.0
C232 C 0.44122 0.97847 0.04874 0.0
N233 N 0.49619 0.05551 0.00347 0.0
C234 C 0.49552 0.09492 0.95755 0.0
C235 C 0.48142 0.06202 0.95444 0.0
C236 C 0.48156 0.04278 0.97767 0.0
C237 C 0.50601 0.10671 0.9853 0.0
C238 C 0.50566 0.08654 0.00796 0.0
N239 N 0.52779 0.01109 0.05483 0.0
C240 C 0.52962 0.96413 0.06801 0.0
C241 C 0.5495 0.97923 0.09165 0.0
C242 C 0.55863 0.01062 0.09645 0.0
C243 C 0.54737 0.02586 0.0781 0.0
C244 C 0.51939 0.98044 0.0499 0.0
H245 H 0.55456 0.04942 0.08344 0.0
H246 H 0.50452 0.96758 0.0322 0.0
H247 H 0.47152 0.01815 0.97366 0.0
H248 H 0.51512 0.09708 0.02836 0.0
C249 C 0.54603 0.09448 0.07238 0.0
C250 C 0.44137 0.99203 0.07651 0.0
C251 C 0.57766 0.0766 0.97951 0.0
C252 C 0.47785 0.9715 0.98681 0.0
H253 H 0.44809 0.03185 0.1229 0.0
H254 H 0.50544 0.08829 0.12094 0.0
H255 H 0.61092 0.1463 0.05407 0.0
H256 H 0.62801 0.13604 1.00258 0.0
H257 H 0.5722 0.03665 0.93305 0.0
H258 H 0.51773 0.97837 0.93759 0.0
H259 H 0.412 0.9207 1.00339 0.0
H260 H 0.39237 0.93196 0.05273 0.0
H261 H 0.4714 0.05133 0.93381 0.0
H262 H 0.51642 0.13184 0.98913 0.0
H263 H 0.52212 0.93983 0.06337 0.0
H264 H 0.57373 0.0231 0.11476 0.0
C265 C 0.56584 0.61309 0.49381 0.0
C266 C 0.55867 0.63523 0.50243 0.0
C267 C 0.5382 0.62162 0.5267 0.0
C268 C 0.53407 0.59208 0.53146 0.0
N269 N 0.55131 0.58631 0.51211 0.0
Co270 Co 0.54986 0.54529 0.50911 0.0
N271 N 0.51876 0.52461 0.54409 0.0
C272 C 0.506 0.53775 0.56035 0.0
C273 C 0.48845 0.5191 0.5849 0.0
C274 C 0.49109 0.49298 0.58484 0.0
C275 C 0.51013 0.49728 0.56016 0.0
N276 N 0.54744 0.50383 0.50556 0.0
C277 C 0.53469 0.47783 0.52469 0.0
C278 C 0.53966 0.45468 0.51466 0.0
C279 C 0.55688 0.46688 0.48857 0.0
C280 C 0.56145 0.49664 0.4842 0.0
N281 N 0.58222 0.56628 0.47506 0.0
C282 C 0.59539 0.5531 0.45941 0.0
C283 C 0.61642 0.57311 0.43695 0.0
C284 C 0.61629 0.60054 0.43801 0.0
C285 C 0.59507 0.59563 0.46119 0.0
N286 N 0.58721 0.56036 0.53595 0.0
C287 C 0.63436 0.57371 0.57875 0.0
C288 C 0.6341 0.55926 0.55312 0.0
C289 C 0.61057 0.55299 0.53206 0.0
C290 C 0.61197 0.58315 0.58168 0.0
C291 C 0.58892 0.57644 0.56015 0.0
N292 N 0.51227 0.53048 0.48211 0.0
C293 C 0.49093 0.51781 0.43328 0.0
C294 C 0.46425 0.52031 0.4408 0.0
C295 C 0.4611 0.52619 0.46979 0.0
C296 C 0.485 0.53095 0.4899 0.0
C297 C 0.51424 0.52263 0.45414 0.0
H298 H 0.48119 0.53579 0.5114 0.0
H299 H 0.53399 0.52051 0.4469 0.0
H300 H 0.611 0.54119 0.51327 0.0
H301 H 0.57208 0.58362 0.56404 0.0
C302 C 0.51364 0.56895 0.55345 0.0
C303 C 0.58509 0.61791 0.46721 0.0
C304 C 0.52109 0.47584 0.55376 0.0
C305 C 0.58417 0.52057 0.46392 0.0
H306 H 0.56681 0.65847 0.4918 0.0
H307 H 0.52702 0.63172 0.53898 0.0
H308 H 0.4766 0.52462 0.60161 0.0
H309 H 0.48123 0.47357 0.60159 0.0
H310 H 0.53322 0.43216 0.52577 0.0
H311 H 0.5671 0.45637 0.47556 0.0
H312 H 0.62896 0.56777 0.42077 0.0
H313 H 0.62922 0.62117 0.42261 0.0
H314 H 0.65098 0.55149 0.54985 0.0
H315 H 0.61172 0.59508 0.60086 0.0
H316 H 0.49394 0.51227 0.41133 0.0
H317 H 0.44081 0.52819 0.47685 0.0
Mg318 Mg 0.24081 0.47828 0.2557 0.0
C319 C 0.21083 0.51233 0.22639 0.0
O320 O 0.19337 0.50238 0.25111 0.0
C321 C 0.29298 0.48123 0.29161 0.0
O322 O 0.27656 0.452 0.28207 0.0
C323 C 0.19643 0.45297 0.31129 0.0
O324 O 0.22435 0.46078 0.32351 0.0
O325 O 0.19564 0.45477 0.28348 0.0
O326 O 0.23567 0.50976 0.2241 0.0
O327 O 0.24898 0.44852 0.22751 0.0
C328 C 0.24328 0.448 0.20031 0.0
O329 O 0.2265 0.46025 0.19061 0.0
O330 O 0.2838 0.50022 0.28385 0.0
Mg331 Mg 0.75639 0.23672 0.75611 0.0
C332 C 0.73121 0.19633 0.70339 0.0
O333 O 0.73849 0.22452 0.69253 0.0
C334 C 0.81438 0.28364 0.78881 0.0
O335 O 0.80341 0.30022 0.77596 0.0
C336 C 0.7195 0.23133 0.81257 0.0
O337 O 0.74945 0.25414 0.81952 0.0
O338 O 0.71456 0.22234 0.78639 0.0
O339 O 0.73789 0.19384 0.73001 0.0
O340 O 0.77405 0.27737 0.72382 0.0
C341 C 0.80196 0.28532 0.71262 0.0
O342 O 0.8148 0.2688 0.72129 0.0
O343 O 0.79933 0.25356 0.78462 0.0
Mg344 Mg 0.56002 0.78057 0.26081 0.0
C345 C 0.5915 0.84932 0.23803 0.0
O346 O 0.58729 0.8522 0.2658 0.0
C347 C 0.59347 0.75053 0.29128 0.0
O348 O 0.58542 0.73455 0.26733 0.0
C349 C 0.52033 0.78003 0.31378 0.0
O350 O 0.52138 0.75522 0.32346 0.0
O351 O 0.53056 0.79172 0.28778 0.0
O352 O 0.58587 0.82253 0.23012 0.0
O353 O 0.5349 0.73788 0.23485 0.0
C354 C 0.55082 0.74044 0.21149 0.0
O355 O 0.57864 0.76802 0.20477 0.0
O356 O 0.58905 0.77352 0.29288 0.0
Mg357 Mg 0.77247 0.52873 0.79722 0.0
C358 C 0.74556 0.54069 0.74771 0.0
O359 O 0.72817 0.50974 0.75539 0.0
C360 C 0.81168 0.53489 0.84961 0.0
O361 O 0.78171 0.51086 0.85756 0.0
C362 C 0.7084 0.4875 0.84038 0.0
O363 O 0.71448 0.46465 0.84309 0.0
O364 O 0.72715 0.51249 0.82376 0.0
O365 O 0.76952 0.55957 0.76357 0.0
O366 O 0.77698 0.49782 0.7672 0.0
C367 C 0.80426 0.49949 0.76467 0.0
O368 O 0.82613 0.51295 0.7851 0.0
O369 O 0.81591 0.54964 0.82483 0.0
Mg370 Mg 0.24387 0.78167 0.2801 0.0
C371 C 0.23084 0.72359 0.24139 0.0
O372 O 0.26035 0.72953 0.24714 0.0
C373 C 0.30983 0.81505 0.30983 0.0
O374 O 0.31776 0.83479 0.28664 0.0
C375 C 0.2034 0.77093 0.33579 0.0
O376 O 0.23313 0.78641 0.34659 0.0
O377 O 0.20082 0.76923 0.3081 0.0
O378 O 0.22115 0.7403 0.25256 0.0
O379 O 0.26656 0.8245 0.24919 0.0
C380 C 0.28072 0.82212 0.22673 0.0
O381 O 0.27927 0.7951 0.22401 0.0
O382 O 0.28159 0.78864 0.31122 0.0
Mg383 Mg 0.47284 0.24983 0.73987 0.0
C384 C 0.46906 0.21351 0.69139 0.0
O385 O 0.49957 0.23875 0.69178 0.0
C386 C 0.46661 0.27882 0.78911 0.0
O387 O 0.49812 0.29108 0.78315 0.0
C388 C 0.52029 0.24052 0.78339 0.0
O389 O 0.54447 0.27103 0.78037 0.0
O390 O 0.49429 0.23012 0.76873 0.0
O391 O 0.44788 0.21139 0.70967 0.0
O392 O 0.50174 0.29551 0.71344 0.0
C393 C 0.48612 0.30948 0.70961 0.0
O394 O 0.45669 0.29623 0.72227 0.0
O395 O 0.44538 0.25798 0.77241 0.0
C396 C 0.09755 0.46842 0.092 0.0
C397 C 0.09673 0.49299 0.07651 0.0
C398 C 0.119 0.47533 0.11531 0.0
C399 C 0.14071 0.50771 0.12282 0.0
C400 C 0.14099 0.53277 0.1063 0.0
C401 C 0.11894 0.52506 0.08334 0.0
C402 C 0.11781 0.44787 0.13239 0.0
C403 C 0.16413 0.56759 0.11323 0.0
C404 C 0.1666 0.51631 0.20191 0.0
C405 C 0.19665 0.51804 0.19973 0.0
C406 C 0.149 0.51468 0.17689 0.0
C407 C 0.16175 0.5149 0.14891 0.0
C408 C 0.19324 0.51911 0.14637 0.0
C409 C 0.21032 0.52061 0.1718 0.0
C410 C 0.11559 0.51035 0.18066 0.0
C411 C 0.20802 0.52006 0.11692 0.0
H412 H 0.08099 0.44372 0.08614 0.0
H413 H 0.11869 0.54407 0.07094 0.0
H414 H 0.14274 0.45164 0.13237 0.0
H415 H 0.11033 0.44711 0.15552 0.0
H416 H 0.10012 0.42417 0.12333 0.0
H417 H 0.15918 0.57112 0.13596 0.0
H418 H 0.19014 0.5742 0.11194 0.0
H419 H 0.16159 0.58426 0.09807 0.0
H420 H 0.15585 0.51452 0.22332 0.0
H421 H 0.23358 0.52213 0.16979 0.0
H422 H 0.09587 0.48496 0.17707 0.0
H423 H 0.11269 0.5258 0.16429 0.0
H424 H 0.11171 0.51606 0.20291 0.0
H425 H 0.19394 0.4957 0.10818 0.0
H426 H 0.2344 0.52786 0.11826 0.0
H427 H 0.20621 0.53662 0.10104 0.0
C428 C 0.58819 0.06888 0.60754 0.0
C429 C 0.59387 0.04783 0.59329 0.0
C430 C 0.61114 0.0906 0.62707 0.0
C431 C 0.64065 0.09143 0.63232 0.0
C432 C 0.64608 0.06962 0.61833 0.0
C433 C 0.62258 0.04805 0.59895 0.0
C434 C 0.60423 0.11331 0.64144 0.0
C435 C 0.67716 0.06975 0.62314 0.0
C436 C 0.71247 0.17255 0.65488 0.0
C437 C 0.71169 0.16787 0.68544 0.0
C438 C 0.69052 0.14748 0.63733 0.0
C439 C 0.66678 0.11684 0.65058 0.0
C440 C 0.66683 0.11148 0.68131 0.0
C441 C 0.68943 0.13703 0.69839 0.0
C442 C 0.69178 0.15428 0.60466 0.0
C443 C 0.6419 0.07923 0.69631 0.0
H444 H 0.5659 0.06859 0.60303 0.0
H445 H 0.62686 0.03171 0.58778 0.0
H446 H 0.60633 0.11168 0.66551 0.0
H447 H 0.6229 0.13849 0.63361 0.0
H448 H 0.57919 0.10811 0.63666 0.0
H449 H 0.67656 0.04976 0.6124 0.0
H450 H 0.69896 0.09293 0.61425 0.0
H451 H 0.68075 0.06774 0.6469 0.0
H452 H 0.72974 0.19625 0.64465 0.0
H453 H 0.68847 0.13327 0.72199 0.0
H454 H 0.66883 0.15283 0.59813 0.0
H455 H 0.69305 0.13591 0.59279 0.0
H456 H 0.71336 0.17851 0.59751 0.0
H457 H 0.61675 0.0748 0.69474 0.0
H458 H 0.64712 0.07794 0.7198 0.0
H459 H 0.64164 0.0596 0.68529 0.0
C460 C 0.49244 0.59792 0.10179 0.0
C461 C 0.51198 0.58489 0.10507 0.0
C462 C 0.49575 0.62135 0.12025 0.0
C463 C 0.51921 0.63212 0.14259 0.0
C464 C 0.53825 0.61831 0.14665 0.0
C465 C 0.53439 0.59485 0.12787 0.0
C466 C 0.47484 0.63528 0.11525 0.0
C467 C 0.56356 0.62915 0.17018 0.0
C468 C 0.55717 0.71747 0.16643 0.0
C469 C 0.54057 0.71253 0.19334 0.0
C470 C 0.55012 0.69155 0.14967 0.0
C471 C 0.52584 0.65971 0.16 0.0
C472 C 0.50845 0.6545 0.18687 0.0
C473 C 0.51597 0.681 0.20322 0.0
C474 C 0.5691 0.69828 0.12107 0.0
C475 C 0.48238 0.6209 0.19859 0.0
H476 H 0.47454 0.58985 0.08464 0.0
H477 H 0.54966 0.58501 0.1305 0.0
H478 H 0.46198 0.63388 0.13595 0.0
H479 H 0.49095 0.66112 0.10799 0.0
H480 H 0.45602 0.62263 0.09844 0.0
H481 H 0.5745 0.61435 0.17198 0.0
H482 H 0.58381 0.65466 0.16528 0.0
H483 H 0.55212 0.62788 0.19169 0.0
H484 H 0.57612 0.74172 0.1585 0.0
H485 H 0.50313 0.67695 0.22403 0.0
H486 H 0.55167 0.68802 0.10291 0.0
H487 H 0.58318 0.68647 0.12201 0.0
H488 H 0.58674 0.72447 0.11584 0.0
H489 H 0.46316 0.60831 0.18213 0.0
H490 H 0.47022 0.62094 0.21923 0.0
H491 H 0.49379 0.60677 0.20277 0.0
C492 C 0.87549 0.48882 0.60787 0.0
C493 C 0.90561 0.51851 0.60259 0.0
C494 C 0.85584 0.48252 0.63327 0.0
C495 C 0.86623 0.50667 0.6537 0.0
C496 C 0.89612 0.53703 0.64797 0.0
C497 C 0.91559 0.54244 0.62271 0.0
C498 C 0.82437 0.44977 0.63857 0.0
C499 C 0.90782 0.56375 0.66876 0.0
C500 C 0.80546 0.5033 0.70985 0.0
C501 C 0.81533 0.49522 0.73591 0.0
C502 C 0.8211 0.50622 0.68277 0.0
C503 C 0.84663 0.50008 0.68157 0.0
C504 C 0.85511 0.48987 0.7076 0.0
C505 C 0.83973 0.48803 0.73446 0.0
C506 C 0.81179 0.51798 0.65582 0.0
C507 C 0.88127 0.48191 0.70722 0.0
H508 H 0.86787 0.47004 0.59261 0.0
H509 H 0.93871 0.56549 0.61866 0.0
H510 H 0.82558 0.43827 0.6595 0.0
H511 H 0.80289 0.45223 0.64064 0.0
H512 H 0.81984 0.43359 0.62064 0.0
H513 H 0.9304 0.58658 0.66024 0.0
H514 H 0.88801 0.56832 0.67284 0.0
H515 H 0.91336 0.55646 0.69013 0.0
H516 H 0.78701 0.50943 0.71083 0.0
H517 H 0.84744 0.48179 0.75452 0.0
H518 H 0.80707 0.50229 0.63747 0.0
H519 H 0.8327 0.54258 0.64877 0.0
H520 H 0.78949 0.51882 0.65981 0.0
H521 H 0.87458 0.46291 0.69166 0.0
H522 H 0.8843 0.47337 0.72914 0.0
H523 H 0.90544 0.50344 0.69953 0.0
C524 C 0.42711 0.96037 0.12452 0.0
C525 C 0.41695 0.97108 0.10049 0.0
C526 C 0.40414 0.93865 0.1463 0.0
C527 C 0.37014 0.92733 0.14394 0.0
C528 C 0.36005 0.93918 0.12022 0.0
C529 C 0.38363 0.961 0.0988 0.0
C530 C 0.41608 0.92676 0.17116 0.0
C531 C 0.32415 0.92776 0.11676 0.0
C532 C 0.31014 0.8432 0.17807 0.0
C533 C 0.30085 0.84938 0.20482 0.0
C534 C 0.33184 0.86828 0.15788 0.0
C535 C 0.34494 0.90063 0.16449 0.0
C536 C 0.33493 0.90713 0.19106 0.0
C537 C 0.31289 0.8814 0.2109 0.0
C538 C 0.34152 0.86009 0.12979 0.0
C539 C 0.34833 0.94128 0.19892 0.0
H540 H 0.45297 0.96835 0.12581 0.0
H541 H 0.37592 0.96955 0.08025 0.0
H542 H 0.40689 0.92928 0.19246 0.0
H543 H 0.40606 0.90078 0.16924 0.0
H544 H 0.44353 0.94001 0.1713 0.0
H545 H 0.32079 0.94156 0.09884 0.0
H546 H 0.30976 0.90192 0.11186 0.0
H547 H 0.3136 0.92991 0.13744 0.0
H548 H 0.30081 0.81855 0.173 0.0
H549 H 0.30599 0.88642 0.23155 0.0
H550 H 0.36845 0.8699 0.1293 0.0
H551 H 0.33664 0.87137 0.11067 0.0
H552 H 0.3279 0.83369 0.12727 0.0
H553 H 0.37541 0.954 0.20195 0.0
H554 H 0.33647 0.9423 0.21933 0.0
H555 H 0.3445 0.95455 0.18086 0.0
C556 C 0.54266 0.46474 0.59939 0.0
C557 C 0.51974 0.45317 0.57705 0.0
C558 C 0.54162 0.44364 0.6217 0.0
C559 C 0.51694 0.41025 0.6216 0.0
C560 C 0.49398 0.39857 0.59876 0.0
C561 C 0.49559 0.42022 0.57683 0.0
C562 C 0.56648 0.45716 0.64562 0.0
C563 C 0.46724 0.36323 0.5978 0.0
C564 C 0.52143 0.34588 0.66654 0.0
C565 C 0.49849 0.33836 0.68941 0.0
C566 C 0.52893 0.37029 0.64486 0.0
C567 C 0.51332 0.38766 0.64632 0.0
C568 C 0.4917 0.38137 0.67035 0.0
C569 C 0.48449 0.35679 0.69147 0.0
C570 C 0.55218 0.37633 0.61962 0.0
C571 C 0.47477 0.39947 0.67302 0.0
H572 H 0.56132 0.49034 0.5994 0.0
H573 H 0.47787 0.41147 0.55951 0.0
H574 H 0.55349 0.45352 0.6669 0.0
H575 H 0.57934 0.44419 0.64768 0.0
H576 H 0.58531 0.48332 0.64153 0.0
H577 H 0.45251 0.35783 0.57775 0.0
H578 H 0.47837 0.34861 0.59868 0.0
H579 H 0.45021 0.35553 0.61719 0.0
H580 H 0.53229 0.3317 0.66477 0.0
H581 H 0.46701 0.35139 0.70927 0.0
H582 H 0.57109 0.40248 0.6161 0.0
H583 H 0.53805 0.36821 0.59926 0.0
H584 H 0.56495 0.36337 0.6232 0.0
H585 H 0.49317 0.42583 0.67066 0.0
H586 H 0.46104 0.39375 0.69431 0.0
H587 H 0.45701 0.39319 0.65517 0.0
C588 C 0.5331 0.88038 0.44975 0.0
C589 C 0.51987 0.89926 0.44461 0.0
C590 C 0.53161 0.86004 0.42849 0.0
C591 C 0.51567 0.85789 0.40186 0.0
C592 C 0.50159 0.8764 0.39693 0.0
C593 C 0.50416 0.89711 0.41824 0.0
C594 C 0.54799 0.84161 0.43416 0.0
C595 C 0.48389 0.87437 0.36909 0.0
C596 C 0.54079 0.83289 0.33463 0.0
C597 C 0.51685 0.79975 0.33497 0.0
C598 C 0.54077 0.85195 0.35635 0.0
C599 C 0.51545 0.83776 0.37846 0.0
C600 C 0.49046 0.80445 0.37836 0.0
C601 C 0.49191 0.78563 0.35696 0.0
C602 C 0.56851 0.88708 0.35613 0.0
C603 C 0.46237 0.78873 0.40092 0.0
H604 H 0.54535 0.88219 0.4701 0.0
H605 H 0.49345 0.91137 0.41449 0.0
H606 H 0.52966 0.81541 0.43281 0.0
H607 H 0.56758 0.84881 0.41709 0.0
H608 H 0.55933 0.84589 0.45597 0.0
H609 H 0.47416 0.89022 0.3687 0.0
H610 H 0.50088 0.88133 0.34981 0.0
H611 H 0.46299 0.84915 0.36669 0.0
H612 H 0.56055 0.84371 0.31808 0.0
H613 H 0.47351 0.75996 0.3573 0.0
H614 H 0.58195 0.89198 0.37688 0.0
H615 H 0.55835 0.90253 0.35471 0.0
H616 H 0.58652 0.89429 0.33755 0.0
H617 H 0.47215 0.78956 0.42301 0.0
H618 H 0.44369 0.7632 0.3966 0.0
H619 H 0.44992 0.80215 0.40126 0.0
C620 C 0.55704 0.47297 0.93401 0.0
C621 C 0.57065 0.49406 0.95678 0.0
C622 C 0.57746 0.4703 0.91383 0.0
C623 C 0.61234 0.48915 0.91658 0.0
C624 C 0.62608 0.51071 0.93949 0.0
C625 C 0.60508 0.51308 0.95914 0.0
C626 C 0.5617 0.44726 0.88965 0.0
C627 C 0.66302 0.53113 0.9434 0.0
C628 C 0.6671 0.46397 0.88286 0.0
C629 C 0.68164 0.48586 0.85848 0.0
C630 C 0.64393 0.46423 0.90155 0.0
C631 C 0.63467 0.48663 0.89557 0.0
C632 C 0.64831 0.50792 0.87037 0.0
C633 C 0.67172 0.50744 0.85229 0.0
C634 C 0.63024 0.44128 0.92829 0.0
C635 C 0.6388 0.53184 0.86286 0.0
H636 H 0.53035 0.45838 0.93219 0.0
H637 H 0.61552 0.52959 0.97662 0.0
H638 H 0.5714 0.4605 0.86805 0.0
H639 H 0.56823 0.42893 0.89137 0.0
H640 H 0.53428 0.43465 0.89032 0.0
H641 H 0.66972 0.5463 0.96256 0.0
H642 H 0.67285 0.51548 0.94634 0.0
H643 H 0.67547 0.54711 0.92351 0.0
H644 H 0.67459 0.44726 0.88792 0.0
H645 H 0.68256 0.5243 0.83341 0.0
H646 H 0.60279 0.42708 0.92863 0.0
H647 H 0.63816 0.45514 0.94833 0.0
H648 H 0.63869 0.42437 0.92918 0.0
H649 H 0.61146 0.51933 0.86231 0.0
H650 H 0.64966 0.54506 0.8414 0.0
H651 H 0.64738 0.54962 0.88001 0.0
C652 C 0.05018 0.64689 0.4479 0.0
C653 C 0.05333 0.62043 0.45166 0.0
C654 C 0.07207 0.67351 0.42883 0.0
C655 C 0.09769 0.6736 0.41331 0.0
C656 C 0.1006 0.64666 0.41695 0.0
C657 C 0.07838 0.62046 0.43596 0.0
C658 C 0.06798 0.70161 0.42546 0.0
C659 C 0.12749 0.6456 0.40101 0.0
C660 C 0.14328 0.72685 0.34475 0.0
C661 C 0.17408 0.74992 0.3558 0.0
C662 C 0.11737 0.70296 0.36344 0.0
C663 C 0.12231 0.70204 0.39392 0.0
C664 C 0.15255 0.72651 0.40536 0.0
C665 C 0.17796 0.75011 0.38623 0.0
C666 C 0.08547 0.67752 0.35031 0.0
C667 C 0.15895 0.72659 0.43766 0.0
H668 H 0.03068 0.64674 0.45995 0.0
H669 H 0.08076 0.59995 0.43876 0.0
H670 H 0.09045 0.72366 0.43293 0.0
H671 H 0.06525 0.70636 0.40205 0.0
H672 H 0.04614 0.69736 0.43818 0.0
H673 H 0.12598 0.62262 0.40583 0.0
H674 H 0.12579 0.64863 0.37704 0.0
H675 H 0.15215 0.6658 0.40733 0.0
H676 H 0.13989 0.72643 0.32133 0.0
H677 H 0.20151 0.76788 0.39511 0.0
H678 H 0.06385 0.67377 0.36297 0.0
H679 H 0.08386 0.65426 0.35134 0.0
H680 H 0.08373 0.68391 0.32709 0.0
H681 H 0.13805 0.72385 0.45073 0.0
H682 H 0.18216 0.74903 0.44351 0.0
H683 H 0.16092 0.70579 0.44403 0.0
C684 C 0.49634 0.14236 0.93401 0.0
C685 C 0.50099 0.1169 0.93169 0.0
C686 C 0.50203 0.16344 0.90977 0.0
C687 C 0.51268 0.15903 0.88252 0.0
C688 C 0.51791 0.13371 0.88014 0.0
C689 C 0.51206 0.11301 0.90471 0.0
C690 C 0.49615 0.19016 0.91317 0.0
C691 C 0.52971 0.1285 0.85161 0.0
C692 C 0.49065 0.18895 0.81418 0.0
C693 C 0.52 0.21893 0.80728 0.0
C694 C 0.4882 0.16929 0.83837 0.0
C695 C 0.51592 0.17945 0.85608 0.0
C696 C 0.546 0.20921 0.84882 0.0
C697 C 0.54765 0.22864 0.82452 0.0
C698 C 0.45556 0.13795 0.84544 0.0
C699 C 0.57658 0.22054 0.86641 0.0
H700 H 0.4877 0.14551 0.95468 0.0
H701 H 0.51672 0.09403 0.9029 0.0
H702 H 0.51894 0.21375 0.90665 0.0
H703 H 0.47636 0.18687 0.89844 0.0
H704 H 0.48878 0.19095 0.93598 0.0
H705 H 0.53214 0.10742 0.85326 0.0
H706 H 0.5122 0.1247 0.83412 0.0
H707 H 0.55407 0.1503 0.84476 0.0
H708 H 0.46903 0.18108 0.80112 0.0
H709 H 0.57049 0.25159 0.81925 0.0
H710 H 0.44613 0.13837 0.86745 0.0
H711 H 0.45902 0.11752 0.84603 0.0
H712 H 0.43646 0.13332 0.82926 0.0
H713 H 0.57041 0.2148 0.89018 0.0
H714 H 0.59473 0.24689 0.8628 0.0
H715 H 0.58867 0.20803 0.85948 0.0
C716 C 0.45106 0.5314 0.3902 0.0
C717 C 0.44011 0.51714 0.41858 0.0
C718 C 0.42858 0.5284 0.36897 0.0
C719 C 0.39425 0.51073 0.37625 0.0
C720 C 0.38311 0.49683 0.40501 0.0
C721 C 0.40612 0.50016 0.42577 0.0
C722 C 0.44152 0.54362 0.33859 0.0
C723 C 0.34674 0.47772 0.41368 0.0
C724 C 0.33409 0.51845 0.32771 0.0
C725 C 0.32042 0.4905 0.31199 0.0
C726 C 0.35858 0.52573 0.34839 0.0
C727 C 0.36974 0.50467 0.35331 0.0
C728 C 0.35661 0.47692 0.33693 0.0
C729 C 0.33216 0.47018 0.3166 0.0
C730 C 0.37196 0.55553 0.36547 0.0
C731 C 0.3679 0.45391 0.34127 0.0
H732 H 0.47733 0.5451 0.38458 0.0
H733 H 0.39735 0.48882 0.44754 0.0
H734 H 0.43217 0.52454 0.32262 0.0
H735 H 0.43233 0.55924 0.33213 0.0
H736 H 0.46901 0.55827 0.33695 0.0
H737 H 0.34227 0.47023 0.43737 0.0
H738 H 0.33588 0.49216 0.40847 0.0
H739 H 0.33341 0.4558 0.40096 0.0
H740 H 0.32515 0.53425 0.32433 0.0
H741 H 0.32198 0.44863 0.30444 0.0
H742 H 0.39937 0.57064 0.36326 0.0
H743 H 0.36546 0.54851 0.38907 0.0
H744 H 0.36198 0.57027 0.3581 0.0
H745 H 0.39517 0.46705 0.33801 0.0
H746 H 0.35614 0.43406 0.32601 0.0
H747 H 0.36181 0.44322 0.36403 0.0
C748 C 0.91087 0.38362 0.9222 0.0
C749 C 0.94481 0.3956 0.92333 0.0
C750 C 0.89105 0.36243 0.90087 0.0
C751 C 0.90538 0.35288 0.87994 0.0
C752 C 0.93936 0.364 0.88151 0.0
C753 C 0.95866 0.38526 0.90311 0.0
C754 C 0.85501 0.3514 0.89994 0.0
C755 C 0.95559 0.35435 0.85973 0.0
C756 C 0.84383 0.28323 0.83427 0.0
C757 C 0.84124 0.29998 0.80998 0.0
C758 C 0.86575 0.3 0.85677 0.0
C759 C 0.88552 0.33419 0.85477 0.0
C760 C 0.88429 0.35096 0.82942 0.0
C761 C 0.86222 0.33369 0.80747 0.0
C762 C 0.86643 0.28123 0.88337 0.0
C763 C 0.905 0.38733 0.82614 0.0
H764 H 0.89995 0.39174 0.93739 0.0
H765 H 0.98472 0.39399 0.90402 0.0
H766 H 0.85077 0.36183 0.87976 0.0
H767 H 0.83914 0.3248 0.89919 0.0
H768 H 0.84699 0.35875 0.91914 0.0
H769 H 0.98124 0.36232 0.86564 0.0
H770 H 0.94088 0.32781 0.85817 0.0
H771 H 0.95646 0.36518 0.8377 0.0
H772 H 0.82758 0.2572 0.83642 0.0
H773 H 0.86061 0.34681 0.78861 0.0
H774 H 0.85485 0.28499 0.90241 0.0
H775 H 0.89233 0.28996 0.88892 0.0
H776 H 0.85288 0.25498 0.88008 0.0
H777 H 0.8968 0.39734 0.84285 0.0
H778 H 0.90307 0.39657 0.80415 0.0
H779 H 0.93141 0.39654 0.82987 0.0
C780 C 0.95864 0.56605 0.95641 0.0
C781 C 0.96442 0.54163 0.95235 0.0
C782 C 0.93642 0.56904 0.93878 0.0
C783 C 0.91956 0.54692 0.91677 0.0
C784 C 0.92633 0.52288 0.91206 0.0
C785 C 0.94874 0.52057 0.92993 0.0
C786 C 0.93004 0.59503 0.94445 0.0
C787 C 0.90887 0.49873 0.88897 0.0
C788 C 0.83388 0.52537 0.8955 0.0
C789 C 0.84003 0.54138 0.86783 0.0
C790 C 0.85967 0.5278 0.91193 0.0
C791 C 0.89262 0.54683 0.90053 0.0
C792 C 0.89925 0.56414 0.87314 0.0
C793 C 0.87286 0.56121 0.85708 0.0
C794 C 0.85143 0.509 0.94105 0.0
C795 C 0.93407 0.58483 0.86036 0.0
H796 H 0.97093 0.58228 0.97383 0.0
H797 H 0.95336 0.5017 0.92697 0.0
H798 H 0.93225 0.60869 0.92372 0.0
H799 H 0.90438 0.58388 0.95332 0.0
H800 H 0.94744 0.61217 0.96031 0.0
H801 H 0.91862 0.48307 0.88671 0.0
H802 H 0.88202 0.48321 0.89472 0.0
H803 H 0.91151 0.51132 0.86746 0.0
H804 H 0.80865 0.51013 0.90413 0.0
H805 H 0.87787 0.57364 0.83572 0.0
H806 H 0.86635 0.52525 0.95845 0.0
H807 H 0.85778 0.4906 0.93994 0.0
H808 H 0.82479 0.49662 0.9475 0.0
H809 H 0.95086 0.60182 0.87656 0.0
H810 H 0.93549 0.59884 0.8401 0.0
H811 H 0.94335 0.56936 0.85509 0.0
C812 C 0.39031 0.91818 0.44536 0.0
C813 C 0.41528 0.91649 0.45916 0.0
C814 C 0.3729 0.89826 0.42246 0.0
C815 C 0.3803 0.87572 0.41351 0.0
C816 C 0.40445 0.87288 0.42846 0.0
C817 C 0.42176 0.89341 0.45109 0.0
C818 C 0.34733 0.90208 0.40722 0.0
C819 C 0.41234 0.84853 0.42022 0.0
C820 C 0.31696 0.81232 0.36413 0.0
C821 C 0.33027 0.82692 0.33622 0.0
C822 C 0.33365 0.82711 0.38961 0.0
C823 C 0.36447 0.85707 0.38712 0.0
C824 C 0.37903 0.87073 0.359 0.0
C825 C 0.36174 0.85558 0.33396 0.0
C826 C 0.31729 0.81164 0.41913 0.0
C827 C 0.412 0.90245 0.35527 0.0
H828 H 0.38504 0.93574 0.45203 0.0
H829 H 0.44087 0.89194 0.46212 0.0
H830 H 0.35551 0.91081 0.38411 0.0
H831 H 0.32343 0.87848 0.40697 0.0
H832 H 0.34316 0.91937 0.41788 0.0
H833 H 0.43304 0.85055 0.43281 0.0
H834 H 0.39016 0.82384 0.42433 0.0
H835 H 0.41877 0.85152 0.39651 0.0
H836 H 0.29267 0.79019 0.36617 0.0
H837 H 0.37239 0.86697 0.31253 0.0
H838 H 0.30847 0.82585 0.429 0.0
H839 H 0.33524 0.81153 0.43422 0.0
H840 H 0.29579 0.78651 0.41753 0.0
H841 H 0.40901 0.92224 0.3612 0.0
H842 H 0.42209 0.90751 0.33242 0.0
H843 H 0.43034 0.9027 0.3701 0.0
C844 C 0.42752 0.33978 0.93428 0.0
C845 C 0.43921 0.37241 0.92852 0.0
C846 C 0.42696 0.32089 0.912 0.0
C847 C 0.43843 0.33503 0.88336 0.0
C848 C 0.44896 0.36757 0.87719 0.0
C849 C 0.44932 0.38586 0.89984 0.0
C850 C 0.41567 0.2863 0.91942 0.0
C851 C 0.46173 0.38371 0.84704 0.0
C852 C 0.48117 0.3072 0.83538 0.0
C853 C 0.45734 0.29013 0.81448 0.0
C854 C 0.47475 0.32081 0.85846 0.0
C855 C 0.44367 0.31741 0.86078 0.0
C856 C 0.41898 0.29924 0.84039 0.0
C857 C 0.42608 0.28566 0.81744 0.0
C858 C 0.50176 0.33988 0.87977 0.0
C859 C 0.38563 0.29527 0.84218 0.0
H860 H 0.41936 0.32917 0.95634 0.0
H861 H 0.45895 0.41119 0.89527 0.0
H862 H 0.39786 0.2703 0.90322 0.0
H863 H 0.43726 0.28388 0.91845 0.0
H864 H 0.40383 0.27784 0.94166 0.0
H865 H 0.46514 0.4078 0.84501 0.0
H866 H 0.48594 0.38678 0.84231 0.0
H867 H 0.44446 0.36852 0.83014 0.0
H868 H 0.50527 0.31043 0.83348 0.0
H869 H 0.4076 0.27249 0.80135 0.0
H870 H 0.49231 0.33094 0.90259 0.0
H871 H 0.50979 0.36558 0.87769 0.0
H872 H 0.52376 0.3385 0.87598 0.0
H873 H 0.37452 0.28662 0.8646 0.0
H874 H 0.36817 0.27812 0.82637 0.0
H875 H 0.3887 0.31896 0.83752 0.0
C876 C 0.05165 0.44297 0.41175 0.0
C877 C 0.06517 0.47448 0.42063 0.0
C878 C 0.07019 0.43525 0.39418 0.0
C879 C 0.10288 0.45967 0.38478 0.0
C880 C 0.11665 0.49146 0.39359 0.0
C881 C 0.09786 0.49836 0.4116 0.0
C882 C 0.05479 0.40097 0.38563 0.0
C883 C 0.15132 0.51834 0.38393 0.0
C884 C 0.1681 0.44387 0.36012 0.0
C885 C 0.16867 0.44878 0.32962 0.0
C886 C 0.14535 0.44529 0.37826 0.0
C887 C 0.12299 0.45239 0.36567 0.0
C888 C 0.12228 0.45569 0.33481 0.0
C889 C 0.14488 0.45352 0.31715 0.0
C890 C 0.14645 0.44086 0.41101 0.0
C891 C 0.09914 0.46363 0.32045 0.0
H892 H 0.02637 0.42433 0.4182 0.0
H893 H 0.10905 0.52259 0.41882 0.0
H894 H 0.05319 0.39998 0.36148 0.0
H895 H 0.07061 0.39198 0.39252 0.0
H896 H 0.02957 0.38452 0.39559 0.0
H897 H 0.15805 0.54195 0.39195 0.0
H898 H 0.16945 0.51276 0.39213 0.0
H899 H 0.15371 0.52056 0.35968 0.0
H900 H 0.18619 0.43994 0.36995 0.0
H901 H 0.14507 0.45735 0.29363 0.0
H902 H 0.12113 0.42409 0.42055 0.0
H903 H 0.15666 0.46433 0.42103 0.0
H904 H 0.16209 0.43141 0.41711 0.0
H905 H 0.07341 0.44681 0.32904 0.0
H906 H 0.09949 0.46253 0.29626 0.0
H907 H 0.10649 0.48829 0.32571 0.0
C908 C 0.62169 0.09945 0.93959 0.0
C909 C 0.59604 0.09947 0.954 0.0
C910 C 0.63963 0.12158 0.91597 0.0
C911 C 0.63207 0.14462 0.90694 0.0
C912 C 0.60632 0.14486 0.9217 0.0
C913 C 0.58856 0.12222 0.94503 0.0
C914 C 0.66696 0.12056 0.90091 0.0
C915 C 0.59768 0.16912 0.9129 0.0
C916 C 0.70195 0.21949 0.86556 0.0
C917 C 0.69421 0.21183 0.83628 0.0
C918 C 0.68127 0.19842 0.88874 0.0
C919 C 0.65188 0.16899 0.8826 0.0
C920 C 0.64277 0.16206 0.85314 0.0
C921 C 0.6641 0.18348 0.83032 0.0
C922 C 0.69185 0.20689 0.91982 0.0
C923 C 0.61153 0.13112 0.84554 0.0
H924 H 0.62785 0.08225 0.94699 0.0
H925 H 0.56893 0.12238 0.95647 0.0
H926 H 0.66215 0.11717 0.87723 0.0
H927 H 0.69092 0.14381 0.90286 0.0
H928 H 0.66936 0.10083 0.91026 0.0
H929 H 0.57715 0.16631 0.92669 0.0
H930 H 0.61962 0.19394 0.91452 0.0
H931 H 0.59047 0.16647 0.88972 0.0
H932 H 0.72503 0.24138 0.8705 0.0
H933 H 0.65778 0.17728 0.80782 0.0
H934 H 0.69798 0.18991 0.92968 0.0
H935 H 0.67134 0.20441 0.93333 0.0
H936 H 0.71384 0.23182 0.92101 0.0
H937 H 0.61602 0.11135 0.84676 0.0
H938 H 0.60379 0.13289 0.82305 0.0
H939 H 0.59091 0.12446 0.86123 0.0
C940 C 0.56165 0.6349 0.42745 0.0
C941 C 0.58902 0.6415 0.44374 0.0
C942 C 0.5651 0.65543 0.40361 0.0
C943 C 0.59677 0.68311 0.39588 0.0
C944 C 0.62435 0.69024 0.41283 0.0
C945 C 0.62008 0.66933 0.43673 0.0
C946 C 0.53501 0.64704 0.38625 0.0
C947 C 0.65847 0.71935 0.40518 0.0
C948 C 0.60607 0.71255 0.31628 0.0
C949 C 0.6002 0.73727 0.31808 0.0
C950 C 0.60668 0.69579 0.3416 0.0
C951 C 0.60099 0.70373 0.36937 0.0
C952 C 0.5968 0.72977 0.37144 0.0
C953 C 0.59666 0.74637 0.34577 0.0
C954 C 0.61172 0.66846 0.33851 0.0
C955 C 0.59051 0.73887 0.40062 0.0
H956 H 0.53768 0.61322 0.43304 0.0
H957 H 0.64113 0.67422 0.44952 0.0
H958 H 0.53179 0.66762 0.38505 0.0
H959 H 0.53848 0.64231 0.36349 0.0
H960 H 0.51198 0.62544 0.39592 0.0
H961 H 0.67697 0.72234 0.42141 0.0
H962 H 0.66676 0.71705 0.38332 0.0
H963 H 0.65792 0.74149 0.40388 0.0
H964 H 0.609 0.70549 0.29499 0.0
H965 H 0.592 0.76537 0.3474 0.0
H966 H 0.58842 0.64523 0.3448 0.0
H967 H 0.63103 0.67097 0.35345 0.0
H968 H 0.61906 0.6674 0.31577 0.0
H969 H 0.56596 0.71924 0.40983 0.0
H970 H 0.59086 0.76151 0.39878 0.0
H971 H 0.60932 0.74185 0.41642 0.0
C972 C 0.44256 0.0771 0.58461 0.0
C973 C 0.45703 0.06168 0.59783 0.0
C974 C 0.43895 0.09919 0.59966 0.0
C975 C 0.45047 0.10632 0.62849 0.0
C976 C 0.46353 0.08957 0.64245 0.0
C977 C 0.46652 0.06736 0.62699 0.0
C978 C 0.42449 0.11616 0.58412 0.0
C979 C 0.47635 0.09662 0.67307 0.0
C980 C 0.48608 0.19094 0.65283 0.0
C981 C 0.46169 0.18665 0.67287 0.0
C982 C 0.48221 0.16516 0.63777 0.0
C983 C 0.45305 0.13416 0.64257 0.0
C984 C 0.42757 0.12985 0.6617 0.0
C985 C 0.43222 0.15618 0.67672 0.0
C986 C 0.51003 0.17092 0.61756 0.0
C987 C 0.39597 0.09723 0.66708 0.0
H988 H 0.43476 0.07244 0.56219 0.0
H989 H 0.47795 0.05571 0.63724 0.0
H990 H 0.40593 0.11619 0.59852 0.0
H991 H 0.44441 0.14167 0.57867 0.0
H992 H 0.41255 0.10479 0.56352 0.0
H993 H 0.48251 0.07926 0.68191 0.0
H994 H 0.49902 0.12125 0.67297 0.0
H995 H 0.4578 0.09592 0.68806 0.0
H996 H 0.50886 0.21441 0.6495 0.0
H997 H 0.41326 0.15263 0.69216 0.0
H998 H 0.50064 0.16283 0.59545 0.0
H999 H 0.5201 0.15661 0.62594 0.0
H1000 H 0.5306 0.1967 0.61545 0.0
H1001 H 0.38512 0.08658 0.64599 0.0
H1002 H 0.37728 0.0985 0.68018 0.0
H1003 H 0.40143 0.08068 0.67898 0.0
C1004 C 0.38375 0.47291 0.09287 0.0
C1005 C 0.37786 0.44612 0.0783 0.0
C1006 C 0.36003 0.47044 0.11265 0.0
C1007 C 0.32973 0.44035 0.11802 0.0
C1008 C 0.32372 0.4132 0.10325 0.0
C1009 C 0.34785 0.41647 0.0834 0.0
C1010 C 0.36741 0.50004 0.12776 0.0
C1011 C 0.29186 0.38074 0.10845 0.0
C1012 C 0.28389 0.43262 0.18895 0.0
C1013 C 0.26144 0.44059 0.17916 0.0
C1014 C 0.3053 0.43104 0.16915 0.0
C1015 C 0.30432 0.43766 0.13885 0.0
C1016 C 0.28052 0.44401 0.12871 0.0
C1017 C 0.25933 0.44529 0.14895 0.0
C1018 C 0.33009 0.42385 0.18082 0.0
C1019 C 0.27861 0.45116 0.0966 0.0
H1020 H 0.40707 0.49581 0.0888 0.0
H1021 H 0.34343 0.39585 0.07195 0.0
H1022 H 0.3483 0.5054 0.12259 0.0
H1023 H 0.36649 0.49562 0.15184 0.0
H1024 H 0.39213 0.52157 0.12115 0.0
H1025 H 0.29121 0.36195 0.09554 0.0
H1026 H 0.28864 0.37298 0.13202 0.0
H1027 H 0.27049 0.38245 0.10257 0.0
H1028 H 0.28571 0.42887 0.21221 0.0
H1029 H 0.24205 0.45138 0.14108 0.0
H1030 H 0.35545 0.4457 0.17774 0.0
H1031 H 0.32928 0.40465 0.16852 0.0
H1032 H 0.32558 0.41617 0.20447 0.0
H1033 H 0.30156 0.47421 0.08918 0.0
H1034 H 0.25707 0.45311 0.092 0.0
H1035 H 0.27684 0.43207 0.0834 0.0
C1036 C 0.9112 0.43553 0.59643 0.0
C1037 C 0.91457 0.42297 0.57083 0.0
C1038 C 0.89105 0.41504 0.62014 0.0
C1039 C 0.87379 0.38121 0.61805 0.0
C1040 C 0.87663 0.3685 0.59189 0.0
C1041 C 0.89742 0.38956 0.56877 0.0
C1042 C 0.88943 0.42957 0.64785 0.0
C1043 C 0.85871 0.33262 0.58874 0.0
C1044 C 0.85434 0.32608 0.68573 0.0
C1045 C 0.82023 0.31217 0.69021 0.0
C1046 C 0.8722 0.34949 0.66306 0.0
C1047 C 0.85552 0.35906 0.64407 0.0
C1048 C 0.82129 0.34598 0.64907 0.0
C1049 C 0.80401 0.32274 0.67224 0.0
C1050 C 0.90876 0.36316 0.65888 0.0
C1051 C 0.80264 0.35548 0.6292 0.0
H1052 H 0.92498 0.46143 0.59811 0.0
H1053 H 0.90095 0.37989 0.54934 0.0
H1054 H 0.86334 0.41837 0.65542 0.0
H1055 H 0.90218 0.42461 0.66543 0.0
H1056 H 0.90135 0.45606 0.64491 0.0
H1057 H 0.86102 0.32666 0.56611 0.0
H1058 H 0.86899 0.32231 0.60394 0.0
H1059 H 0.83205 0.32075 0.59472 0.0
H1060 H 0.86713 0.31833 0.69979 0.0
H1061 H 0.77765 0.312 0.67558 0.0
H1062 H 0.923 0.38987 0.65765 0.0
H1063 H 0.91335 0.35561 0.63791 0.0
H1064 H 0.91849 0.35502 0.67687 0.0
H1065 H 0.81658 0.38202 0.62531 0.0
H1066 H 0.77757 0.34686 0.63832 0.0
H1067 H 0.79996 0.34503 0.60764 0.0
C1068 C 0.53605 0.93103 0.12352 0.0
C1069 C 0.55973 0.96196 0.11171 0.0
C1070 C 0.54492 0.91468 0.14334 0.0
C1071 C 0.57842 0.9294 0.15118 0.0
C1072 C 0.60259 0.96038 0.13881 0.0
C1073 C 0.59288 0.97646 0.11943 0.0
C1074 C 0.51827 0.88191 0.15638 0.0
C1075 C 0.6386 0.9766 0.14621 0.0
C1076 C 0.59008 0.89798 0.22424 0.0
C1077 C 0.59458 0.87366 0.21578 0.0
C1078 C 0.58629 0.91733 0.20336 0.0
C1079 C 0.58761 0.91266 0.17322 0.0
C1080 C 0.59459 0.88981 0.16447 0.0
C1081 C 0.59776 0.8704 0.18586 0.0
C1082 C 0.57864 0.94124 0.21366 0.0
C1083 C 0.59691 0.88461 0.13255 0.0
H1084 H 0.51036 0.91993 0.11779 0.0
H1085 H 0.61126 1.00028 0.1101 0.0
H1086 H 0.52425 0.86382 0.15156 0.0
H1087 H 0.51712 0.88258 0.18055 0.0
H1088 H 0.49345 0.87375 0.14786 0.0
H1089 H 0.65455 0.99994 0.13354 0.0
H1090 H 0.64158 0.98103 0.16988 0.0
H1091 H 0.64748 0.96062 0.14173 0.0
H1092 H 0.58763 0.90078 0.24728 0.0
H1093 H 0.60146 0.85183 0.17911 0.0
H1094 H 0.55287 0.93315 0.20818 0.0
H1095 H 0.59525 0.96521 0.20229 0.0
H1096 H 0.58123 0.9439 0.23765 0.0
H1097 H 0.57196 0.87281 0.12315 0.0
H1098 H 0.6068 0.86919 0.12931 0.0
H1099 H 0.61302 0.90802 0.12009 0.0
C1100 C 0.68885 0.58619 0.59796 0.0
C1101 C 0.65589 0.57657 0.60324 0.0
C1102 C 0.70817 0.58587 0.62081 0.0
C1103 C 0.69408 0.57544 0.64951 0.0
C1104 C 0.6613 0.56708 0.65515 0.0
C1105 C 0.64263 0.56771 0.63197 0.0
C1106 C 0.74303 0.59501 0.61395 0.0
C1107 C 0.64513 0.55545 0.68534 0.0
C1108 C 0.71828 0.5295 0.69998 0.0
C1109 C 0.73658 0.55187 0.72099 0.0
C1110 C 0.70571 0.53748 0.67594 0.0
C1111 C 0.71145 0.56869 0.67275 0.0
C1112 C 0.7313 0.59199 0.69307 0.0
C1113 C 0.74381 0.58332 0.71701 0.0
C1114 C 0.6849 0.51191 0.65473 0.0
C1115 C 0.73794 0.6255 0.69028 0.0
H1116 H 0.69934 0.5934 0.57585 0.0
H1117 H 0.61703 0.55977 0.63617 0.0
H1118 H 0.76031 0.61157 0.63015 0.0
H1119 H 0.74397 0.57308 0.61539 0.0
H1120 H 0.75186 0.60673 0.59165 0.0
H1121 H 0.6211 0.5536 0.68679 0.0
H1122 H 0.64061 0.5313 0.69098 0.0
H1123 H 0.66167 0.57192 0.70195 0.0
H1124 H 0.71308 0.50528 0.70266 0.0
H1125 H 0.75798 0.60066 0.7332 0.0
H1126 H 0.69419 0.52114 0.63192 0.0
H1127 H 0.65896 0.50554 0.65621 0.0
H1128 H 0.68481 0.48961 0.65915 0.0
H1129 H 0.74642 0.63601 0.66762 0.0
H1130 H 0.75684 0.64181 0.70571 0.0
H1131 H 0.71467 0.62437 0.69489 0.0
C1132 C 0.13554 0.63665 0.09889 0.0
C1133 C 0.11092 0.60384 0.10379 0.0
C1134 C 0.15596 0.65483 0.12152 0.0
C1135 C 0.15169 0.63992 0.14981 0.0
C1136 C 0.12721 0.60671 0.1548 0.0
C1137 C 0.10729 0.58908 0.13174 0.0
C1138 C 0.1817 0.69021 0.11531 0.0
C1139 C 0.12206 0.58971 0.18447 0.0
C1140 C 0.22129 0.68429 0.20335 0.0
C1141 C 0.20987 0.70008 0.21944 0.0
C1142 C 0.20239 0.6641 0.18095 0.0
C1143 C 0.17139 0.65962 0.17451 0.0
C1144 C 0.15937 0.67476 0.19124 0.0
C1145 C 0.17867 0.6947 0.21343 0.0
C1146 C 0.21575 0.64791 0.1639 0.0
C1147 C 0.12627 0.6703 0.18538 0.0
H1148 H 0.13845 0.64832 0.07747 0.0
H1149 H 0.08904 0.56352 0.13554 0.0
H1150 H 0.17588 0.70478 0.12868 0.0
H1151 H 0.20645 0.69573 0.1216 0.0
H1152 H 0.18301 0.69784 0.09187 0.0
H1153 H 0.09931 0.56505 0.18574 0.0
H1154 H 0.14361 0.58785 0.18907 0.0
H1155 H 0.12028 0.60358 0.20193 0.0
H1156 H 0.24526 0.68816 0.20786 0.0
H1157 H 0.16941 0.70654 0.22579 0.0
H1158 H 0.21706 0.65435 0.14016 0.0
H1159 H 0.19874 0.62137 0.16692 0.0
H1160 H 0.24076 0.65473 0.17085 0.0
H1161 H 0.12638 0.6794 0.16274 0.0
H1162 H 0.12009 0.6831 0.20082 0.0
H1163 H 0.1064 0.6443 0.18716 0.0
loop_
_geom_bond_atom_site_label_1
_geom_bond_atom_site_label_2
_geom_bond_distance
_geom_bond_site_symmetry_2
_ccdc_geom_bond_type
C0 C1 1.443 . S
C0 N4 1.376 1_556 S
C0 C38 1.389 . S
C1 C0 1.443 . S
C1 C2 1.340 1_556 S
C1 H41 0.951 . S
C2 C1 1.340 1_554 S
C2 C3 1.439 . S
C2 H42 0.950 . S
C3 C2 1.439 . S
C3 N4 1.374 . S
C3 C37 1.395 . S
N4 C0 1.376 1_554 S
N4 C3 1.374 . S
N4 Co5 2.008 1_655 S
Co5 N4 2.008 1_455 S
Co5 N6 1.994 . S
Co5 N11 2.008 . S
Co5 N16 1.995 1_554 S
Co5 N21 2.282 . S
Co5 N27 2.282 1_454 S
N6 Co5 1.994 . S
N6 C7 1.360 1_455 S
N6 C10 1.401 . S
C7 N6 1.360 1_655 S
C7 C8 1.446 . S
C7 C37 1.391 . S
C8 C7 1.446 . S
C8 C9 1.339 1_655 S
C8 H43 0.949 . S
C9 C8 1.339 1_455 S
C9 C10 1.439 . S
C9 H44 0.950 . S
C10 N6 1.401 . S
C10 C9 1.439 . S
C10 C39 1.392 . S
N11 Co5 2.008 . S
N11 C12 1.376 . S
N11 C15 1.374 1_554 S
C12 N11 1.376 . S
C12 C13 1.443 . S
C12 C39 1.389 . S
C13 C12 1.443 . S
C13 C14 1.340 . S
C13 H45 0.951 . S
C14 C13 1.340 . S
C14 C15 1.439 1_554 S
C14 H46 0.950 1_554 S
C15 N11 1.374 1_556 S
C15 C14 1.439 1_556 S
C15 C40 1.395 . S
N16 Co5 1.995 1_556 S
N16 C17 1.376 . S
N16 C20 1.383 . S
C17 N16 1.376 . S
C17 C18 1.446 . S
C17 C40 1.391 . S
C18 C17 1.446 . S
C18 C19 1.339 . S
C18 H47 0.949 . S
C19 C18 1.339 . S
C19 C20 1.439 . S
C19 H48 0.950 . S
C20 N16 1.383 . S
C20 C19 1.439 . S
C20 C38 1.392 1_455 S
N21 Co5 2.282 . S
N21 C24 1.332 . S
N21 C26 1.332 . S
C22 C23 1.386 . S
C22 C25 1.388 . S
C23 C22 1.386 . S
C23 C24 1.382 . S
C23 H49 0.950 . S
C24 N21 1.332 . S
C24 C23 1.382 . S
C24 H35 0.952 . S
C25 C22 1.388 . S
C25 C26 1.382 . S
C25 H50 0.950 . S
C26 N21 1.332 . S
C26 C25 1.382 . S
C26 H36 0.948 . S
N27 Co5 2.282 1_656 S
N27 C31 1.332 . S
N27 C32 1.332 1_655 S
C28 C29 1.388 . S
C28 C32 1.382 1_655 S
C28 H51 0.950 . S
C29 C28 1.388 . S
C29 C30 1.386 . S
C30 C29 1.386 . S
C30 C31 1.382 . S
C30 H52 0.950 . S
C31 N27 1.332 . S
C31 C30 1.382 . S
C31 H33 0.952 1_556 S
C32 N27 1.332 1_455 S
C32 C28 1.382 1_455 S
C32 H34 0.948 . S
H33 C31 0.952 1_554 S
H34 C32 0.948 . S
H35 C24 0.952 . S
H36 C26 0.948 . S
C37 C3 1.395 . S
C37 C7 1.391 . S
C38 C0 1.389 . S
C38 C20 1.392 1_655 S
C39 C10 1.392 . S
C39 C12 1.389 . S
C40 C15 1.395 . S
C40 C17 1.391 . S
H41 C1 0.951 . S
H42 C2 0.950 . S
H43 C8 0.949 . S
H44 C9 0.950 . S
H45 C13 0.951 . S
H46 C14 0.950 1_556 S
H47 C18 0.949 . S
H48 C19 0.950 . S
H49 C23 0.950 . S
H50 C25 0.950 . S
H51 C28 0.950 . S
H52 C30 0.950 . S
C53 C54 1.443 . S
C53 N57 1.376 . S
C53 C91 1.389 . S
C54 C53 1.443 . S
C54 C55 1.340 1_545 S
C54 H94 0.951 . S
C55 C54 1.340 1_565 S
C55 C56 1.439 . S
C55 H95 0.950 . S
C56 C55 1.439 . S
C56 N57 1.374 1_565 S
C56 C90 1.395 . S
N57 C53 1.376 . S
N57 C56 1.374 1_545 S
N57 Co58 2.008 . S
Co58 N57 2.008 . S
Co58 N59 1.995 1_545 S
Co58 N64 2.008 . S
Co58 N69 1.995 . S
Co58 N74 2.282 1_545 S
Co58 N80 2.282 . S
N59 Co58 1.995 1_565 S
N59 C60 1.376 . S
N59 C63 1.383 . S
C60 N59 1.376 . S
C60 C61 1.446 . S
C60 C90 1.391 . S
C61 C60 1.446 . S
C61 C62 1.339 . S
C61 H96 0.949 . S
C62 C61 1.339 . S
C62 C63 1.439 . S
C62 H97 0.950 . S
C63 N59 1.383 . S
C63 C62 1.439 . S
C63 C92 1.392 . S
N64 Co58 2.008 . S
N64 C65 1.376 . S
N64 C68 1.374 . S
C65 N64 1.376 . S
C65 C66 1.443 . S
C65 C92 1.389 1_545 S
C66 C65 1.443 . S
C66 C67 1.340 . S
C66 H98 0.951 . S
C67 C66 1.340 . S
C67 C68 1.439 . S
C67 H99 0.950 . S
C68 N64 1.374 . S
C68 C67 1.439 . S
C68 C93 1.395 . S
N69 Co58 1.995 . S
N69 C70 1.376 . S
N69 C73 1.383 . S
C70 N69 1.376 . S
C70 C71 1.446 . S
C70 C93 1.391 . S
C71 C70 1.446 . S
C71 C72 1.339 . S
C71 H100 0.949 . S
C72 C71 1.339 . S
C72 C73 1.439 . S
C72 H101 0.950 . S
C73 N69 1.383 . S
C73 C72 1.439 . S
C73 C91 1.392 . S
N74 Co58 2.282 1_565 S
N74 C77 1.332 1_565 S
N74 C79 1.332 . S
C75 C76 1.386 . S
C75 C78 1.388 . S
C76 C75 1.386 . S
C76 C77 1.382 1_565 S
C76 H102 0.950 1_565 S
C77 N74 1.332 1_545 S
C77 C76 1.382 1_545 S
C77 H88 0.952 . S
C78 C75 1.388 . S
C78 C79 1.382 . S
C78 H103 0.950 . S
C79 N74 1.332 . S
C79 C78 1.382 . S
C79 H89 0.948 . S
N80 Co58 2.282 . S
N80 C84 1.332 . S
N80 C85 1.332 . S
C81 C82 1.388 . S
C81 C85 1.382 . S
C81 H104 0.950 . S
C82 C81 1.388 . S
C82 C83 1.386 . S
C83 C82 1.386 . S
C83 C84 1.382 . S
C83 H105 0.950 . S
C84 N80 1.332 . S
C84 C83 1.382 . S
C84 H86 0.937 1_545 S
C85 N80 1.332 . S
C85 C81 1.382 . S
C85 H87 0.948 . S
H86 C84 0.937 1_565 S
H87 C85 0.948 . S
H88 C77 0.952 . S
H89 C79 0.948 . S
C90 C56 1.395 . S
C90 C60 1.391 . S
C91 C53 1.389 . S
C91 C73 1.392 . S
C92 C63 1.392 . S
C92 C65 1.389 1_565 S
C93 C68 1.395 . S
C93 C70 1.391 . S
H94 C54 0.951 . S
H95 C55 0.950 . S
H96 C61 0.949 . S
H97 C62 0.950 . S
H98 C66 0.951 . S
H99 C67 0.950 . S
H100 C71 0.949 . S
H101 C72 0.950 . S
H102 C76 0.950 1_545 S
H103 C78 0.950 . S
H104 C81 0.950 . S
H105 C83 0.950 . S
C106 C107 1.443 . S
C106 N110 1.376 . S
C106 C144 1.389 . S
C107 C106 1.443 . S
C107 C108 1.340 . S
C107 H147 0.951 . S
C108 C107 1.340 . S
C108 C109 1.439 . S
C108 H148 0.950 . S
C109 C108 1.439 . S
C109 N110 1.374 . S
C109 C143 1.395 . S
N110 C106 1.376 . S
N110 C109 1.374 . S
N110 Co111 2.008 1_556 S
Co111 N110 2.008 1_554 S
Co111 N112 1.995 . S
Co111 N117 2.008 . S
Co111 N122 1.995 . S
Co111 N127 2.282 . S
Co111 N133 2.282 1_554 S
N112 Co111 1.995 . S
N112 C113 1.376 1_554 S
N112 C116 1.383 . S
C113 N112 1.376 1_556 S
C113 C114 1.446 . S
C113 C143 1.391 . S
C114 C113 1.446 . S
C114 C115 1.339 1_556 S
C114 H149 0.949 . S
C115 C114 1.339 1_554 S
C115 C116 1.439 . S
C115 H150 0.950 . S
C116 N112 1.383 . S
C116 C115 1.439 . S
C116 C145 1.392 . S
N117 Co111 2.008 . S
N117 C118 1.376 . S
N117 C121 1.374 . S
C118 N117 1.376 . S
C118 C119 1.443 . S
C118 C145 1.389 . S
C119 C118 1.443 . S
C119 C120 1.340 . S
C119 H151 0.951 . S
C120 C119 1.340 . S
C120 C121 1.439 . S
C120 H152 0.950 . S
C121 N117 1.374 . S
C121 C120 1.439 . S
C121 C146 1.395 . S
N122 Co111 1.995 . S
N122 C123 1.376 . S
N122 C126 1.383 1_554 S
C123 N122 1.376 . S
C123 C124 1.446 . S
C123 C146 1.391 . S
C124 C123 1.446 . S
C124 C125 1.324 1_554 S
C124 H153 0.949 . S
C125 C124 1.324 1_556 S
C125 C126 1.443 . S
C125 H154 0.958 . S
C126 N122 1.383 1_556 S
C126 C125 1.443 . S
C126 C144 1.392 . S
N127 Co111 2.282 . S
N127 C130 1.332 . S
N127 C132 1.332 . S
C128 C129 1.386 . S
C128 C131 1.388 . S
C129 C128 1.386 . S
C129 C130 1.382 . S
C129 H155 0.950 . S
C130 N127 1.332 . S
C130 C129 1.382 . S
C130 H141 0.952 . S
C131 C128 1.388 . S
C131 C132 1.382 . S
C131 H156 0.950 . S
C132 N127 1.332 . S
C132 C131 1.382 . S
C132 H142 0.948 . S
N133 Co111 2.282 1_556 S
N133 C137 1.332 . S
N133 C138 1.332 . S
C134 C135 1.388 . S
C134 C138 1.382 . S
C134 H157 0.950 . S
C135 C134 1.388 . S
C135 C136 1.386 . S
C136 C135 1.386 . S
C136 C137 1.382 . S
C136 H158 0.950 . S
C137 N133 1.332 . S
C137 C136 1.382 . S
C137 H139 0.952 . S
C138 N133 1.332 . S
C138 C134 1.382 . S
C138 H140 0.975 . S
H139 C137 0.952 . S
H140 C138 0.975 . S
H141 C130 0.952 . S
H142 C132 0.948 . S
C143 C109 1.395 . S
C143 C113 1.391 . S
C144 C106 1.389 . S
C144 C126 1.392 . S
C145 C116 1.392 . S
C145 C118 1.389 . S
C146 C121 1.395 . S
C146 C123 1.391 . S
H147 C107 0.951 . S
H148 C108 0.950 . S
H149 C114 0.949 . S
H150 C115 0.950 . S
H151 C119 0.951 . S
H152 C120 0.950 . S
H153 C124 0.949 . S
H154 C125 0.958 . S
H155 C129 0.950 . S
H156 C131 0.950 . S
H157 C134 0.950 . S
H158 C136 0.950 . S
C159 C160 1.443 . S
C159 N163 1.376 . S
C159 C197 1.389 . S
C160 C159 1.443 . S
C160 C161 1.340 . S
C160 H200 0.951 . S
C161 C160 1.340 . S
C161 C162 1.439 . S
C161 H201 0.950 . S
C162 C161 1.439 . S
C162 N163 1.374 . S
C162 C196 1.395 . S
N163 C159 1.376 . S
N163 C162 1.374 . S
N163 Co164 2.008 1_655 S
Co164 N163 2.008 1_455 S
Co164 N165 1.995 1_455 S
Co164 N170 2.008 . S
Co164 N175 1.995 . S
Co164 N180 2.282 . S
Co164 N186 2.282 1_455 S
N165 Co164 1.995 1_655 S
N165 C166 1.376 . S
N165 C169 1.383 1_655 S
C166 N165 1.376 . S
C166 C167 1.446 . S
C166 C196 1.391 . S
C167 C166 1.446 . S
C167 C168 1.339 . S
C167 H202 0.949 . S
C168 C167 1.339 . S
C168 C169 1.439 1_655 S
C168 H203 0.950 1_655 S
C169 N165 1.383 1_455 S
C169 C168 1.439 1_455 S
C169 C198 1.392 . S
N170 Co164 2.008 . S
N170 C171 1.376 . S
N170 C174 1.374 . S
C171 N170 1.376 . S
C171 C172 1.443 . S
C171 C198 1.389 . S
C172 C171 1.443 . S
C172 C173 1.340 . S
C172 H204 0.951 . S
C173 C172 1.340 . S
C173 C174 1.439 . S
C173 H205 0.950 . S
C174 N170 1.374 . S
C174 C173 1.439 . S
C174 C199 1.395 . S
N175 Co164 1.995 . S
N175 C176 1.376 . S
N175 C179 1.383 1_455 S
C176 N175 1.376 . S
C176 C177 1.446 . S
C176 C199 1.391 . S
C177 C176 1.446 . S
C177 C178 1.339 . S
C177 H206 0.949 . S
C178 C177 1.339 . S
C178 C179 1.439 1_455 S
C178 H207 0.950 . S
C179 N175 1.383 1_655 S
C179 C178 1.439 1_655 S
C179 C197 1.392 . S
N180 Co164 2.282 . S
N180 C183 1.332 . S
N180 C185 1.332 . S
C181 C182 1.386 . S
C181 C184 1.388 . S
C182 C181 1.386 . S
C182 C183 1.382 . S
C182 H208 0.950 . S
C183 N180 1.332 . S
C183 C182 1.382 . S
C183 H194 0.952 . S
C184 C181 1.388 . S
C184 C185 1.382 . S
C184 H209 0.950 . S
C185 N180 1.332 . S
C185 C184 1.382 . S
C185 H195 0.948 1_455 S
N186 Co164 2.282 1_655 S
N186 C190 1.332 . S
N186 C191 1.332 . S
C187 C188 1.388 . S
C187 C191 1.382 . S
C187 H210 0.950 . S
C188 C187 1.388 . S
C188 C189 1.386 . S
C189 C188 1.386 . S
C189 C190 1.382 . S
C189 H211 0.950 . S
C190 N186 1.332 . S
C190 C189 1.382 . S
C190 H192 0.952 . S
C191 N186 1.332 . S
C191 C187 1.382 . S
C191 H193 0.948 1_655 S
H192 C190 0.952 . S
H193 C191 0.948 1_455 S
H194 C183 0.952 . S
H195 C185 0.948 1_655 S
C196 C162 1.395 . S
C196 C166 1.391 . S
C197 C159 1.389 . S
C197 C179 1.392 . S
C198 C169 1.392 . S
C198 C171 1.389 . S
C199 C174 1.395 . S
C199 C176 1.391 . S
H200 C160 0.951 . S
H201 C161 0.950 . S
H202 C167 0.949 . S
H203 C168 0.950 1_455 S
H204 C172 0.951 . S
H205 C173 0.950 . S
H206 C177 0.949 . S
H207 C178 0.950 . S
H208 C182 0.950 . S
H209 C184 0.950 . S
H210 C187 0.950 . S
H211 C189 0.950 . S
C212 C213 1.443 1_565 S
C212 N216 1.376 1_565 S
C212 C250 1.389 . S
C213 C212 1.443 1_545 S
C213 C214 1.340 . S
C213 H253 0.951 1_545 S
C214 C213 1.340 . S
C214 C215 1.439 . S
C214 H254 0.950 . S
C215 C214 1.439 . S
C215 N216 1.374 . S
C215 C249 1.395 . S
N216 C212 1.376 1_545 S
N216 C215 1.374 . S
N216 Co217 2.026 . S
Co217 N216 2.026 . S
Co217 N218 2.013 . S
Co217 N223 1.991 1_544 S
Co217 N228 1.977 1_545 S
Co217 N233 2.310 1_554 S
Co217 N239 2.255 1_545 S
N218 Co217 2.013 . S
N218 C219 1.376 . S
N218 C222 1.383 1_554 S
C219 N218 1.376 . S
C219 C220 1.446 . S
C219 C249 1.391 . S
C220 C219 1.446 . S
C220 C221 1.339 1_554 S
C220 H255 0.949 . S
C221 C220 1.339 1_556 S
C221 C222 1.439 . S
C221 H256 0.950 . S
C222 N218 1.383 1_556 S
C222 C221 1.439 . S
C222 C251 1.392 . S
N223 Co217 1.991 1_566 S
N223 C224 1.376 1_565 S
N223 C227 1.374 . S
C224 N223 1.376 1_545 S
C224 C225 1.443 1_545 S
C224 C251 1.389 . S
C225 C224 1.443 1_565 S
C225 C226 1.340 . S
C225 H257 0.951 1_565 S
C226 C225 1.340 . S
C226 C227 1.439 . S
C226 H258 0.950 . S
C227 N223 1.374 . S
C227 C226 1.439 . S
C227 C252 1.395 . S
N228 Co217 1.977 1_565 S
N228 C229 1.376 1_554 S
N228 C232 1.383 . S
C229 N228 1.376 1_556 S
C229 C230 1.446 1_556 S
C229 C252 1.391 . S
C230 C229 1.446 1_554 S
C230 C231 1.339 . S
C230 H259 0.949 1_554 S
C231 C230 1.339 . S
C231 C232 1.439 . S
C231 H260 0.950 . S
C232 N228 1.383 . S
C232 C231 1.439 . S
C232 C250 1.392 . S
N233 Co217 2.310 1_556 S
N233 C236 1.332 . S
N233 C238 1.332 . S
C234 C235 1.386 . S
C234 C237 1.388 . S
C235 C234 1.386 . S
C235 C236 1.382 . S
C235 H261 0.950 . S
C236 N233 1.332 . S
C236 C235 1.382 . S
C236 H247 0.952 1_545 S
C237 C234 1.388 . S
C237 C238 1.382 . S
C237 H262 0.950 . S
C238 N233 1.332 . S
C238 C237 1.382 . S
C238 H248 0.948 . S
N239 Co217 2.255 1_565 S
N239 C243 1.332 . S
N239 C244 1.332 . S
C240 C241 1.388 . S
C240 C244 1.382 . S
C240 H263 0.950 . S
C241 C240 1.388 . S
C241 C242 1.386 . S
C242 C241 1.386 . S
C242 C243 1.382 . S
C242 H264 0.950 . S
C243 N239 1.332 . S
C243 C242 1.382 . S
C243 H245 0.952 1_565 S
C244 N239 1.332 . S
C244 C240 1.382 . S
C244 H246 0.948 . S
H245 C243 0.952 1_545 S
H246 C244 0.948 . S
H247 C236 0.952 1_565 S
H248 C238 0.948 . S
C249 C215 1.395 . S
C249 C219 1.391 . S
C250 C212 1.389 . S
C250 C232 1.392 . S
C251 C222 1.392 . S
C251 C224 1.389 . S
C252 C227 1.395 . S
C252 C229 1.391 . S
H253 C213 0.951 1_565 S
H254 C214 0.950 . S
H255 C220 0.949 . S
H256 C221 0.950 . S
H257 C225 0.951 1_545 S
H258 C226 0.950 . S
H259 C230 0.949 1_556 S
H260 C231 0.950 . S
H261 C235 0.950 . S
H262 C237 0.950 . S
H263 C240 0.950 . S
H264 C242 0.950 . S
C265 C266 1.443 . S
C265 N269 1.376 . S
C265 C303 1.389 . S
C266 C265 1.443 . S
C266 C267 1.340 . S
C266 H306 0.951 . S
C267 C266 1.340 . S
C267 C268 1.439 . S
C267 H307 0.950 . S
C268 C267 1.439 . S
C268 N269 1.374 . S
C268 C302 1.395 . S
N269 C265 1.376 . S
N269 C268 1.374 . S
N269 Co270 2.008 . S
Co270 N269 2.008 . S
Co270 N271 1.995 . S
Co270 N276 2.008 . S
Co270 N281 1.995 . S
Co270 N286 2.282 . S
Co270 N292 2.282 . S
N271 Co270 1.995 . S
N271 C272 1.376 . S
N271 C275 1.383 . S
C272 N271 1.376 . S
C272 C273 1.446 . S
C272 C302 1.391 . S
C273 C272 1.446 . S
C273 C274 1.339 . S
C273 H308 0.949 . S
C274 C273 1.339 . S
C274 C275 1.439 . S
C274 H309 0.950 . S
C275 N271 1.383 . S
C275 C274 1.439 . S
C275 C304 1.392 . S
N276 Co270 2.008 . S
N276 C277 1.376 . S
N276 C280 1.374 . S
C277 N276 1.376 . S
C277 C278 1.443 . S
C277 C304 1.389 . S
C278 C277 1.443 . S
C278 C279 1.340 . S
C278 H310 0.951 . S
C279 C278 1.340 . S
C279 C280 1.439 . S
C279 H311 0.950 . S
C280 N276 1.374 . S
C280 C279 1.439 . S
C280 C305 1.395 . S
N281 Co270 1.995 . S
N281 C282 1.376 . S
N281 C285 1.383 . S
C282 N281 1.376 . S
C282 C283 1.446 . S
C282 C305 1.391 . S
C283 C282 1.446 . S
C283 C284 1.339 . S
C283 H312 0.949 . S
C284 C283 1.339 . S
C284 C285 1.439 . S
C284 H313 0.950 . S
C285 N281 1.383 . S
C285 C284 1.439 . S
C285 C303 1.392 . S
N286 Co270 2.282 . S
N286 C289 1.332 . S
N286 C291 1.332 . S
C287 C288 1.386 . S
C287 C290 1.388 . S
C288 C287 1.386 . S
C288 C289 1.382 . S
C288 H314 0.950 . S
C289 N286 1.332 . S
C289 C288 1.382 . S
C289 H300 0.952 . S
C290 C287 1.388 . S
C290 C291 1.382 . S
C290 H315 0.950 . S
C291 N286 1.332 . S
C291 C290 1.382 . S
C291 H301 0.948 . S
N292 Co270 2.282 . S
N292 C296 1.332 . S
N292 C297 1.332 . S
C293 C294 1.388 . S
C293 C297 1.382 . S
C293 H316 0.950 . S
C294 C293 1.388 . S
C294 C295 1.386 . S
C295 C294 1.386 . S
C295 C296 1.382 . S
C295 H317 0.950 . S
C296 N292 1.332 . S
C296 C295 1.382 . S
C296 H298 0.952 . S
C297 N292 1.332 . S
C297 C293 1.382 . S
C297 H299 0.948 . S
H298 C296 0.952 . S
H299 C297 0.948 . S
H300 C289 0.952 . S
H301 C291 0.948 . S
C302 C268 1.395 . S
C302 C272 1.391 . S
C303 C265 1.389 . S
C303 C285 1.392 . S
C304 C275 1.392 . S
C304 C277 1.389 . S
C305 C280 1.395 . S
C305 C282 1.391 . S
H306 C266 0.951 . S
H307 C267 0.950 . S
H308 C273 0.949 . S
H309 C274 0.950 . S
H310 C278 0.951 . S
H311 C279 0.950 . S
H312 C283 0.949 . S
H313 C284 0.950 . S
H314 C288 0.950 . S
H315 C290 0.950 . S
H316 C293 0.950 . S
H317 C295 0.950 . S
Mg318 O325 2.141 . S
Mg318 O326 2.048 . S
Mg318 O327 2.048 . S
Mg318 O330 2.141 . S
C319 O320 1.313 . S
C319 O326 1.195 . S
O320 C319 1.313 . S
C321 O322 1.245 . S
C321 O330 1.289 . S
O322 C321 1.245 . S
C323 O324 1.245 . S
C323 O325 1.289 . S
O324 C323 1.245 . S
O325 Mg318 2.141 . S
O325 C323 1.289 . S
O326 Mg318 2.048 . S
O326 C319 1.195 . S
O327 Mg318 2.048 . S
O327 C328 1.195 . S
C328 O327 1.195 . S
C328 O329 1.313 . S
O329 C328 1.313 . S
O330 Mg318 2.141 . S
O330 C321 1.289 . S
Mg331 O338 2.141 . S
Mg331 O339 2.048 . S
Mg331 O340 2.048 . S
Mg331 O343 2.141 . S
C332 O333 1.313 . S
C332 O339 1.195 . S
O333 C332 1.313 . S
C334 O335 1.245 . S
C334 O343 1.289 . S
O335 C334 1.245 . S
C336 O337 1.245 . S
C336 O338 1.289 . S
O337 C336 1.245 . S
O338 Mg331 2.141 . S
O338 C336 1.289 . S
O339 Mg331 2.048 . S
O339 C332 1.195 . S
O340 Mg331 2.048 . S
O340 C341 1.195 . S
C341 O340 1.195 . S
C341 O342 1.313 . S
O342 C341 1.313 . S
O343 Mg331 2.141 . S
O343 C334 1.289 . S
Mg344 O351 2.141 . S
Mg344 O352 2.048 . S
Mg344 O353 2.048 . S
Mg344 O356 2.141 . S
C345 O346 1.313 . S
C345 O352 1.195 . S
O346 C345 1.313 . S
C347 O348 1.245 . S
C347 O356 1.289 . S
O348 C347 1.245 . S
C349 O350 1.245 . S
C349 O351 1.289 . S
O350 C349 1.245 . S
O351 Mg344 2.141 . S
O351 C349 1.289 . S
O352 Mg344 2.048 . S
O352 C345 1.195 . S
O353 Mg344 2.048 . S
O353 C354 1.195 . S
C354 O353 1.195 . S
C354 O355 1.313 . S
O355 C354 1.313 . S
O356 Mg344 2.141 . S
O356 C347 1.289 . S
Mg357 O364 2.141 . S
Mg357 O365 2.048 . S
Mg357 O366 2.048 . S
Mg357 O369 2.141 . S
C358 O359 1.313 . S
C358 O365 1.195 . S
O359 C358 1.313 . S
C360 O361 1.245 . S
C360 O369 1.289 . S
O361 C360 1.245 . S
C362 O363 1.245 . S
C362 O364 1.289 . S
O363 C362 1.245 . S
O364 Mg357 2.141 . S
O364 C362 1.289 . S
O365 Mg357 2.048 . S
O365 C358 1.195 . S
O366 Mg357 2.048 . S
O366 C367 1.195 . S
C367 O366 1.195 . S
C367 O368 1.313 . S
O368 C367 1.313 . S
O369 Mg357 2.141 . S
O369 C360 1.289 . S
Mg370 O377 2.141 . S
Mg370 O378 2.048 . S
Mg370 O379 2.048 . S
Mg370 O382 2.141 . S
C371 O372 1.313 . S
C371 O378 1.195 . S
O372 C371 1.313 . S
C373 O374 1.245 . S
C373 O382 1.289 . S
O374 C373 1.245 . S
C375 O376 1.245 . S
C375 O377 1.289 . S
O376 C375 1.245 . S
O377 Mg370 2.141 . S
O377 C375 1.289 . S
O378 Mg370 2.048 . S
O378 C371 1.195 . S
O379 Mg370 2.048 . S
O379 C380 1.195 . S
C380 O379 1.195 . S
C380 O381 1.313 . S
O381 C380 1.313 . S
O382 Mg370 2.141 . S
O382 C373 1.289 . S
Mg383 O390 2.141 . S
Mg383 O391 2.048 . S
Mg383 O392 2.048 . S
Mg383 O395 2.141 . S
C384 O385 1.313 . S
C384 O391 1.195 . S
O385 C384 1.313 . S
C386 O387 1.245 . S
C386 O395 1.289 . S
O387 C386 1.245 . S
C388 O389 1.245 . S
C388 O390 1.289 . S
O389 C388 1.245 . S
O390 Mg383 2.141 . S
O390 C388 1.289 . S
O391 Mg383 2.048 . S
O391 C384 1.195 . S
O392 Mg383 2.048 . S
O392 C393 1.195 . S
C393 O392 1.195 . S
C393 O394 1.313 . S
O394 C393 1.313 . S
O395 Mg383 2.141 . S
O395 C386 1.289 . S
C396 C397 1.391 . S
C396 C398 1.394 . S
C396 H412 0.931 . S
C397 C396 1.391 . S
C397 C401 1.376 . S
C398 C396 1.394 . S
C398 C399 1.369 . S
C398 C402 1.531 . S
C399 C398 1.369 . S
C399 C400 1.410 . S
C399 C407 1.503 . S
C400 C399 1.410 . S
C400 C401 1.392 . S
C400 C403 1.511 . S
C401 C397 1.376 . S
C401 C400 1.392 . S
C401 H413 0.929 . S
C402 C398 1.531 . S
C402 H414 0.960 . S
C402 H415 0.962 . S
C402 H416 0.960 . S
C403 C400 1.511 . S
C403 H417 0.961 . S
C403 H418 0.961 . S
C403 H419 0.961 . S
C404 C405 1.370 . S
C404 C406 1.363 . S
C404 H420 0.931 . S
C405 C404 1.370 . S
C405 C409 1.408 . S
C406 C404 1.363 . S
C406 C407 1.370 . S
C406 C410 1.524 . S
C407 C399 1.503 . S
C407 C406 1.370 . S
C407 C408 1.403 . S
C408 C407 1.403 . S
C408 C409 1.404 . S
C408 C411 1.539 . S
C409 C405 1.408 . S
C409 C408 1.404 . S
C409 H421 0.930 . S
C410 C406 1.524 . S
C410 H422 0.956 . S
C410 H423 0.961 . S
C410 H424 0.961 . S
C411 C408 1.539 . S
C411 H425 0.958 . S
C411 H426 0.961 . S
C411 H427 0.960 . S
H412 C396 0.931 . S
H413 C401 0.929 . S
H414 C402 0.960 . S
H415 C402 0.962 . S
H416 C402 0.960 . S
H417 C403 0.961 . S
H418 C403 0.961 . S
H419 C403 0.961 . S
H420 C404 0.931 . S
H421 C409 0.930 . S
H422 C410 0.956 . S
H423 C410 0.961 . S
H424 C410 0.961 . S
H425 C411 0.958 . S
H426 C411 0.961 . S
H427 C411 0.960 . S
C428 C429 1.391 . S
C428 C430 1.394 . S
C428 H444 0.931 . S
C429 C428 1.391 . S
C429 C433 1.376 . S
C430 C428 1.394 . S
C430 C431 1.369 . S
C430 C434 1.531 . S
C431 C430 1.369 . S
C431 C432 1.410 . S
C431 C439 1.503 . S
C432 C431 1.410 . S
C432 C433 1.392 . S
C432 C435 1.511 . S
C433 C429 1.376 . S
C433 C432 1.392 . S
C433 H445 0.929 . S
C434 C430 1.531 . S
C434 H446 0.960 . S
C434 H447 0.962 . S
C434 H448 0.960 . S
C435 C432 1.511 . S
C435 H449 0.961 . S
C435 H450 0.961 . S
C435 H451 0.961 . S
C436 C437 1.370 . S
C436 C438 1.363 . S
C436 H452 0.931 . S
C437 C436 1.370 . S
C437 C441 1.408 . S
C438 C436 1.363 . S
C438 C439 1.370 . S
C438 C442 1.524 . S
C439 C431 1.503 . S
C439 C438 1.370 . S
C439 C440 1.403 . S
C440 C439 1.403 . S
C440 C441 1.404 . S
C440 C443 1.539 . S
C441 C437 1.408 . S
C441 C440 1.404 . S
C441 H453 0.930 . S
C442 C438 1.524 . S
C442 H454 0.956 . S
C442 H455 0.961 . S
C442 H456 0.961 . S
C443 C440 1.539 . S
C443 H457 0.958 . S
C443 H458 0.961 . S
C443 H459 0.960 . S
H444 C428 0.931 . S
H445 C433 0.929 . S
H446 C434 0.960 . S
H447 C434 0.962 . S
H448 C434 0.960 . S
H449 C435 0.961 . S
H450 C435 0.961 . S
H451 C435 0.961 . S
H452 C436 0.931 . S
H453 C441 0.930 . S
H454 C442 0.956 . S
H455 C442 0.961 . S
H456 C442 0.961 . S
H457 C443 0.958 . S
H458 C443 0.961 . S
H459 C443 0.960 . S
C460 C461 1.391 . S
C460 C462 1.394 . S
C460 H476 0.931 . S
C461 C460 1.391 . S
C461 C465 1.376 . S
C462 C460 1.394 . S
C462 C463 1.369 . S
C462 C466 1.531 . S
C463 C462 1.369 . S
C463 C464 1.410 . S
C463 C471 1.503 . S
C464 C463 1.410 . S
C464 C465 1.392 . S
C464 C467 1.511 . S
C465 C461 1.376 . S
C465 C464 1.392 . S
C465 H477 0.929 . S
C466 C462 1.531 . S
C466 H478 0.960 . S
C466 H479 0.962 . S
C466 H480 0.960 . S
C467 C464 1.511 . S
C467 H481 0.961 . S
C467 H482 0.961 . S
C467 H483 0.961 . S
C468 C469 1.370 . S
C468 C470 1.363 . S
C468 H484 0.931 . S
C469 C468 1.370 . S
C469 C473 1.408 . S
C470 C468 1.363 . S
C470 C471 1.370 . S
C470 C474 1.524 . S
C471 C463 1.503 . S
C471 C470 1.370 . S
C471 C472 1.403 . S
C472 C471 1.403 . S
C472 C473 1.404 . S
C472 C475 1.539 . S
C473 C469 1.408 . S
C473 C472 1.404 . S
C473 H485 0.930 . S
C474 C470 1.524 . S
C474 H486 0.956 . S
C474 H487 0.961 . S
C474 H488 0.961 . S
C475 C472 1.539 . S
C475 H489 0.958 . S
C475 H490 0.961 . S
C475 H491 0.960 . S
H476 C460 0.931 . S
H477 C465 0.929 . S
H478 C466 0.960 . S
H479 C466 0.962 . S
H480 C466 0.960 . S
H481 C467 0.961 . S
H482 C467 0.961 . S
H483 C467 0.961 . S
H484 C468 0.931 . S
H485 C473 0.930 . S
H486 C474 0.956 . S
H487 C474 0.961 . S
H488 C474 0.961 . S
H489 C475 0.958 . S
H490 C475 0.961 . S
H491 C475 0.960 . S
C492 C493 1.391 . S
C492 C494 1.394 . S
C492 H508 0.931 . S
C493 C492 1.391 . S
C493 C497 1.376 . S
C494 C492 1.394 . S
C494 C495 1.369 . S
C494 C498 1.531 . S
C495 C494 1.369 . S
C495 C496 1.410 . S
C495 C503 1.503 . S
C496 C495 1.410 . S
C496 C497 1.392 . S
C496 C499 1.511 . S
C497 C493 1.376 . S
C497 C496 1.392 . S
C497 H509 0.929 . S
C498 C494 1.531 . S
C498 H510 0.960 . S
C498 H511 0.962 . S
C498 H512 0.960 . S
C499 C496 1.511 . S
C499 H513 0.961 . S
C499 H514 0.961 . S
C499 H515 0.961 . S
C500 C501 1.370 . S
C500 C502 1.363 . S
C500 H516 0.931 . S
C501 C500 1.370 . S
C501 C505 1.408 . S
C502 C500 1.363 . S
C502 C503 1.370 . S
C502 C506 1.524 . S
C503 C495 1.503 . S
C503 C502 1.370 . S
C503 C504 1.403 . S
C504 C503 1.403 . S
C504 C505 1.404 . S
C504 C507 1.539 . S
C505 C501 1.408 . S
C505 C504 1.404 . S
C505 H517 0.930 . S
C506 C502 1.524 . S
C506 H518 0.956 . S
C506 H519 0.961 . S
C506 H520 0.961 . S
C507 C504 1.539 . S
C507 H521 0.958 . S
C507 H522 0.961 . S
C507 H523 0.960 . S
H508 C492 0.931 . S
H509 C497 0.929 . S
H510 C498 0.960 . S
H511 C498 0.962 . S
H512 C498 0.960 . S
H513 C499 0.961 . S
H514 C499 0.961 . S
H515 C499 0.961 . S
H516 C500 0.931 . S
H517 C505 0.930 . S
H518 C506 0.956 . S
H519 C506 0.961 . S
H520 C506 0.961 . S
H521 C507 0.958 . S
H522 C507 0.961 . S
H523 C507 0.960 . S
C524 C525 1.391 . S
C524 C526 1.394 . S
C524 H540 0.931 . S
C525 C524 1.391 . S
C525 C529 1.376 . S
C526 C524 1.394 . S
C526 C527 1.369 . S
C526 C530 1.531 . S
C527 C526 1.369 . S
C527 C528 1.410 . S
C527 C535 1.503 . S
C528 C527 1.410 . S
C528 C529 1.392 . S
C528 C531 1.511 . S
C529 C525 1.376 . S
C529 C528 1.392 . S
C529 H541 0.929 . S
C530 C526 1.531 . S
C530 H542 0.960 . S
C530 H543 0.962 . S
C530 H544 0.960 . S
C531 C528 1.511 . S
C531 H545 0.961 . S
C531 H546 0.961 . S
C531 H547 0.961 . S
C532 C533 1.370 . S
C532 C534 1.363 . S
C532 H548 0.931 . S
C533 C532 1.370 . S
C533 C537 1.408 . S
C534 C532 1.363 . S
C534 C535 1.370 . S
C534 C538 1.524 . S
C535 C527 1.503 . S
C535 C534 1.370 . S
C535 C536 1.403 . S
C536 C535 1.403 . S
C536 C537 1.404 . S
C536 C539 1.539 . S
C537 C533 1.408 . S
C537 C536 1.404 . S
C537 H549 0.930 . S
C538 C534 1.524 . S
C538 H550 0.956 . S
C538 H551 0.961 . S
C538 H552 0.961 . S
C539 C536 1.539 . S
C539 H553 0.958 . S
C539 H554 0.961 . S
C539 H555 0.960 . S
H540 C524 0.931 . S
H541 C529 0.929 . S
H542 C530 0.960 . S
H543 C530 0.962 . S
H544 C530 0.960 . S
H545 C531 0.961 . S
H546 C531 0.961 . S
H547 C531 0.961 . S
H548 C532 0.931 . S
H549 C537 0.930 . S
H550 C538 0.956 . S
H551 C538 0.961 . S
H552 C538 0.961 . S
H553 C539 0.958 . S
H554 C539 0.961 . S
H555 C539 0.960 . S
C556 C557 1.391 . S
C556 C558 1.394 . S
C556 H572 0.931 . S
C557 C556 1.391 . S
C557 C561 1.376 . S
C558 C556 1.394 . S
C558 C559 1.369 . S
C558 C562 1.531 . S
C559 C558 1.369 . S
C559 C560 1.410 . S
C559 C567 1.503 . S
C560 C559 1.410 . S
C560 C561 1.392 . S
C560 C563 1.511 . S
C561 C557 1.376 . S
C561 C560 1.392 . S
C561 H573 0.929 . S
C562 C558 1.531 . S
C562 H574 0.960 . S
C562 H575 0.962 . S
C562 H576 0.960 . S
C563 C560 1.511 . S
C563 H577 0.961 . S
C563 H578 0.961 . S
C563 H579 0.961 . S
C564 C565 1.370 . S
C564 C566 1.363 . S
C564 H580 0.931 . S
C565 C564 1.370 . S
C565 C569 1.408 . S
C566 C564 1.363 . S
C566 C567 1.370 . S
C566 C570 1.524 . S
C567 C559 1.503 . S
C567 C566 1.370 . S
C567 C568 1.403 . S
C568 C567 1.403 . S
C568 C569 1.404 . S
C568 C571 1.539 . S
C569 C565 1.408 . S
C569 C568 1.404 . S
C569 H581 0.930 . S
C570 C566 1.524 . S
C570 H582 0.956 . S
C570 H583 0.961 . S
C570 H584 0.961 . S
C571 C568 1.539 . S
C571 H585 0.958 . S
C571 H586 0.961 . S
C571 H587 0.960 . S
H572 C556 0.931 . S
H573 C561 0.929 . S
H574 C562 0.960 . S
H575 C562 0.962 . S
H576 C562 0.960 . S
H577 C563 0.961 . S
H578 C563 0.961 . S
H579 C563 0.961 . S
H580 C564 0.931 . S
H581 C569 0.930 . S
H582 C570 0.956 . S
H583 C570 0.961 . S
H584 C570 0.961 . S
H585 C571 0.958 . S
H586 C571 0.961 . S
H587 C571 0.960 . S
C588 C589 1.391 . S
C588 C590 1.394 . S
C588 H604 0.931 . S
C589 C588 1.391 . S
C589 C593 1.376 . S
C590 C588 1.394 . S
C590 C591 1.369 . S
C590 C594 1.531 . S
C591 C590 1.369 . S
C591 C592 1.410 . S
C591 C599 1.503 . S
C592 C591 1.410 . S
C592 C593 1.392 . S
C592 C595 1.511 . S
C593 C589 1.376 . S
C593 C592 1.392 . S
C593 H605 0.929 . S
C594 C590 1.531 . S
C594 H606 0.960 . S
C594 H607 0.962 . S
C594 H608 0.960 . S
C595 C592 1.511 . S
C595 H609 0.961 . S
C595 H610 0.961 . S
C595 H611 0.961 . S
C596 C597 1.370 . S
C596 C598 1.363 . S
C596 H612 0.931 . S
C597 C596 1.370 . S
C597 C601 1.408 . S
C598 C596 1.363 . S
C598 C599 1.370 . S
C598 C602 1.524 . S
C599 C591 1.503 . S
C599 C598 1.370 . S
C599 C600 1.403 . S
C600 C599 1.403 . S
C600 C601 1.404 . S
C600 C603 1.539 . S
C601 C597 1.408 . S
C601 C600 1.404 . S
C601 H613 0.930 . S
C602 C598 1.524 . S
C602 H614 0.956 . S
C602 H615 0.961 . S
C602 H616 0.961 . S
C603 C600 1.539 . S
C603 H617 0.958 . S
C603 H618 0.961 . S
C603 H619 0.960 . S
H604 C588 0.931 . S
H605 C593 0.929 . S
H606 C594 0.960 . S
H607 C594 0.962 . S
H608 C594 0.960 . S
H609 C595 0.961 . S
H610 C595 0.961 . S
H611 C595 0.961 . S
H612 C596 0.931 . S
H613 C601 0.930 . S
H614 C602 0.956 . S
H615 C602 0.961 . S
H616 C602 0.961 . S
H617 C603 0.958 . S
H618 C603 0.961 . S
H619 C603 0.960 . S
C620 C621 1.391 . S
C620 C622 1.394 . S
C620 H636 0.931 . S
C621 C620 1.391 . S
C621 C625 1.376 . S
C622 C620 1.394 . S
C622 C623 1.369 . S
C622 C626 1.531 . S
C623 C622 1.369 . S
C623 C624 1.410 . S
C623 C631 1.503 . S
C624 C623 1.410 . S
C624 C625 1.392 . S
C624 C627 1.511 . S
C625 C621 1.376 . S
C625 C624 1.392 . S
C625 H637 0.929 . S
C626 C622 1.531 . S
C626 H638 0.960 . S
C626 H639 0.962 . S
C626 H640 0.960 . S
C627 C624 1.511 . S
C627 H641 0.961 . S
C627 H642 0.961 . S
C627 H643 0.961 . S
C628 C629 1.370 . S
C628 C630 1.363 . S
C628 H644 0.931 . S
C629 C628 1.370 . S
C629 C633 1.408 . S
C630 C628 1.363 . S
C630 C631 1.370 . S
C630 C634 1.524 . S
C631 C623 1.503 . S
C631 C630 1.370 . S
C631 C632 1.403 . S
C632 C631 1.403 . S
C632 C633 1.404 . S
C632 C635 1.539 . S
C633 C629 1.408 . S
C633 C632 1.404 . S
C633 H645 0.930 . S
C634 C630 1.524 . S
C634 H646 0.956 . S
C634 H647 0.961 . S
C634 H648 0.961 . S
C635 C632 1.539 . S
C635 H649 0.958 . S
C635 H650 0.961 . S
C635 H651 0.960 . S
H636 C620 0.931 . S
H637 C625 0.929 . S
H638 C626 0.960 . S
H639 C626 0.962 . S
H640 C626 0.960 . S
H641 C627 0.961 . S
H642 C627 0.961 . S
H643 C627 0.961 . S
H644 C628 0.931 . S
H645 C633 0.930 . S
H646 C634 0.956 . S
H647 C634 0.961 . S
H648 C634 0.961 . S
H649 C635 0.958 . S
H650 C635 0.961 . S
H651 C635 0.960 . S
C652 C653 1.391 . S
C652 C654 1.394 . S
C652 H668 0.931 . S
C653 C652 1.391 . S
C653 C657 1.376 . S
C654 C652 1.394 . S
C654 C655 1.369 . S
C654 C658 1.531 . S
C655 C654 1.369 . S
C655 C656 1.410 . S
C655 C663 1.503 . S
C656 C655 1.410 . S
C656 C657 1.392 . S
C656 C659 1.511 . S
C657 C653 1.376 . S
C657 C656 1.392 . S
C657 H669 0.929 . S
C658 C654 1.531 . S
C658 H670 0.960 . S
C658 H671 0.962 . S
C658 H672 0.960 . S
C659 C656 1.511 . S
C659 H673 0.961 . S
C659 H674 0.961 . S
C659 H675 0.961 . S
C660 C661 1.370 . S
C660 C662 1.363 . S
C660 H676 0.931 . S
C661 C660 1.370 . S
C661 C665 1.408 . S
C662 C660 1.363 . S
C662 C663 1.370 . S
C662 C666 1.524 . S
C663 C655 1.503 . S
C663 C662 1.370 . S
C663 C664 1.403 . S
C664 C663 1.403 . S
C664 C665 1.404 . S
C664 C667 1.539 . S
C665 C661 1.408 . S
C665 C664 1.404 . S
C665 H677 0.930 . S
C666 C662 1.524 . S
C666 H678 0.956 . S
C666 H679 0.961 . S
C666 H680 0.961 . S
C667 C664 1.539 . S
C667 H681 0.958 . S
C667 H682 0.961 . S
C667 H683 0.960 . S
H668 C652 0.931 . S
H669 C657 0.929 . S
H670 C658 0.960 . S
H671 C658 0.962 . S
H672 C658 0.960 . S
H673 C659 0.961 . S
H674 C659 0.961 . S
H675 C659 0.961 . S
H676 C660 0.931 . S
H677 C665 0.930 . S
H678 C666 0.956 . S
H679 C666 0.961 . S
H680 C666 0.961 . S
H681 C667 0.958 . S
H682 C667 0.961 . S
H683 C667 0.960 . S
C684 C685 1.391 . S
C684 C686 1.394 . S
C684 H700 0.931 . S
C685 C684 1.391 . S
C685 C689 1.376 . S
C686 C684 1.394 . S
C686 C687 1.369 . S
C686 C690 1.531 . S
C687 C686 1.369 . S
C687 C688 1.410 . S
C687 C695 1.503 . S
C688 C687 1.410 . S
C688 C689 1.392 . S
C688 C691 1.511 . S
C689 C685 1.376 . S
C689 C688 1.392 . S
C689 H701 0.929 . S
C690 C686 1.531 . S
C690 H702 0.960 . S
C690 H703 0.962 . S
C690 H704 0.960 . S
C691 C688 1.511 . S
C691 H705 0.961 . S
C691 H706 0.961 . S
C691 H707 0.961 . S
C692 C693 1.370 . S
C692 C694 1.363 . S
C692 H708 0.931 . S
C693 C692 1.370 . S
C693 C697 1.408 . S
C694 C692 1.363 . S
C694 C695 1.370 . S
C694 C698 1.524 . S
C695 C687 1.503 . S
C695 C694 1.370 . S
C695 C696 1.403 . S
C696 C695 1.403 . S
C696 C697 1.404 . S
C696 C699 1.539 . S
C697 C693 1.408 . S
C697 C696 1.404 . S
C697 H709 0.930 . S
C698 C694 1.524 . S
C698 H710 0.956 . S
C698 H711 0.961 . S
C698 H712 0.961 . S
C699 C696 1.539 . S
C699 H713 0.958 . S
C699 H714 0.961 . S
C699 H715 0.960 . S
H700 C684 0.931 . S
H701 C689 0.929 . S
H702 C690 0.960 . S
H703 C690 0.962 . S
H704 C690 0.960 . S
H705 C691 0.961 . S
H706 C691 0.961 . S
H707 C691 0.961 . S
H708 C692 0.931 . S
H709 C697 0.930 . S
H710 C698 0.956 . S
H711 C698 0.961 . S
H712 C698 0.961 . S
H713 C699 0.958 . S
H714 C699 0.961 . S
H715 C699 0.960 . S
C716 C717 1.391 . S
C716 C718 1.394 . S
C716 H732 0.931 . S
C717 C716 1.391 . S
C717 C721 1.376 . S
C718 C716 1.394 . S
C718 C719 1.369 . S
C718 C722 1.531 . S
C719 C718 1.369 . S
C719 C720 1.410 . S
C719 C727 1.503 . S
C720 C719 1.410 . S
C720 C721 1.392 . S
C720 C723 1.511 . S
C721 C717 1.376 . S
C721 C720 1.392 . S
C721 H733 0.929 . S
C722 C718 1.531 . S
C722 H734 0.960 . S
C722 H735 0.962 . S
C722 H736 0.960 . S
C723 C720 1.511 . S
C723 H737 0.961 . S
C723 H738 0.961 . S
C723 H739 0.961 . S
C724 C725 1.370 . S
C724 C726 1.363 . S
C724 H740 0.931 . S
C725 C724 1.370 . S
C725 C729 1.408 . S
C726 C724 1.363 . S
C726 C727 1.370 . S
C726 C730 1.524 . S
C727 C719 1.503 . S
C727 C726 1.370 . S
C727 C728 1.403 . S
C728 C727 1.403 . S
C728 C729 1.404 . S
C728 C731 1.539 . S
C729 C725 1.408 . S
C729 C728 1.404 . S
C729 H741 0.930 . S
C730 C726 1.524 . S
C730 H742 0.956 . S
C730 H743 0.961 . S
C730 H744 0.961 . S
C731 C728 1.539 . S
C731 H745 0.958 . S
C731 H746 0.961 . S
C731 H747 0.960 . S
H732 C716 0.931 . S
H733 C721 0.929 . S
H734 C722 0.960 . S
H735 C722 0.962 . S
H736 C722 0.960 . S
H737 C723 0.961 . S
H738 C723 0.961 . S
H739 C723 0.961 . S
H740 C724 0.931 . S
H741 C729 0.930 . S
H742 C730 0.956 . S
H743 C730 0.961 . S
H744 C730 0.961 . S
H745 C731 0.958 . S
H746 C731 0.961 . S
H747 C731 0.960 . S
C748 C749 1.391 . S
C748 C750 1.394 . S
C748 H764 0.931 . S
C749 C748 1.391 . S
C749 C753 1.376 . S
C750 C748 1.394 . S
C750 C751 1.369 . S
C750 C754 1.531 . S
C751 C750 1.369 . S
C751 C752 1.410 . S
C751 C759 1.503 . S
C752 C751 1.410 . S
C752 C753 1.392 . S
C752 C755 1.511 . S
C753 C749 1.376 . S
C753 C752 1.392 . S
C753 H765 0.929 . S
C754 C750 1.531 . S
C754 H766 0.960 . S
C754 H767 0.962 . S
C754 H768 0.960 . S
C755 C752 1.511 . S
C755 H769 0.961 . S
C755 H770 0.961 . S
C755 H771 0.961 . S
C756 C757 1.370 . S
C756 C758 1.363 . S
C756 H772 0.931 . S
C757 C756 1.370 . S
C757 C761 1.408 . S
C758 C756 1.363 . S
C758 C759 1.370 . S
C758 C762 1.524 . S
C759 C751 1.503 . S
C759 C758 1.370 . S
C759 C760 1.403 . S
C760 C759 1.403 . S
C760 C761 1.404 . S
C760 C763 1.539 . S
C761 C757 1.408 . S
C761 C760 1.404 . S
C761 H773 0.930 . S
C762 C758 1.524 . S
C762 H774 0.956 . S
C762 H775 0.961 . S
C762 H776 0.961 . S
C763 C760 1.539 . S
C763 H777 0.958 . S
C763 H778 0.961 . S
C763 H779 0.960 . S
H764 C748 0.931 . S
H765 C753 0.929 . S
H766 C754 0.960 . S
H767 C754 0.962 . S
H768 C754 0.960 . S
H769 C755 0.961 . S
H770 C755 0.961 . S
H771 C755 0.961 . S
H772 C756 0.931 . S
H773 C761 0.930 . S
H774 C762 0.956 . S
H775 C762 0.961 . S
H776 C762 0.961 . S
H777 C763 0.958 . S
H778 C763 0.961 . S
H779 C763 0.960 . S
C780 C781 1.391 . S
C780 C782 1.394 . S
C780 H796 0.931 . S
C781 C780 1.391 . S
C781 C785 1.376 . S
C782 C780 1.394 . S
C782 C783 1.369 . S
C782 C786 1.531 . S
C783 C782 1.369 . S
C783 C784 1.410 . S
C783 C791 1.503 . S
C784 C783 1.410 . S
C784 C785 1.392 . S
C784 C787 1.511 . S
C785 C781 1.376 . S
C785 C784 1.392 . S
C785 H797 0.929 . S
C786 C782 1.531 . S
C786 H798 0.960 . S
C786 H799 0.962 . S
C786 H800 0.960 . S
C787 C784 1.511 . S
C787 H801 0.961 . S
C787 H802 0.961 . S
C787 H803 0.961 . S
C788 C789 1.370 . S
C788 C790 1.363 . S
C788 H804 0.931 . S
C789 C788 1.370 . S
C789 C793 1.408 . S
C790 C788 1.363 . S
C790 C791 1.370 . S
C790 C794 1.524 . S
C791 C783 1.503 . S
C791 C790 1.370 . S
C791 C792 1.403 . S
C792 C791 1.403 . S
C792 C793 1.404 . S
C792 C795 1.539 . S
C793 C789 1.408 . S
C793 C792 1.404 . S
C793 H805 0.930 . S
C794 C790 1.524 . S
C794 H806 0.956 . S
C794 H807 0.961 . S
C794 H808 0.961 . S
C795 C792 1.539 . S
C795 H809 0.958 . S
C795 H810 0.961 . S
C795 H811 0.960 . S
H796 C780 0.931 . S
H797 C785 0.929 . S
H798 C786 0.960 . S
H799 C786 0.962 . S
H800 C786 0.960 . S
H801 C787 0.961 . S
H802 C787 0.961 . S
H803 C787 0.961 . S
H804 C788 0.931 . S
H805 C793 0.930 . S
H806 C794 0.956 . S
H807 C794 0.961 . S
H808 C794 0.961 . S
H809 C795 0.958 . S
H810 C795 0.961 . S
H811 C795 0.960 . S
C812 C813 1.391 . S
C812 C814 1.394 . S
C812 H828 0.931 . S
C813 C812 1.391 . S
C813 C817 1.376 . S
C814 C812 1.394 . S
C814 C815 1.369 . S
C814 C818 1.531 . S
C815 C814 1.369 . S
C815 C816 1.410 . S
C815 C823 1.503 . S
C816 C815 1.410 . S
C816 C817 1.392 . S
C816 C819 1.511 . S
C817 C813 1.376 . S
C817 C816 1.392 . S
C817 H829 0.929 . S
C818 C814 1.531 . S
C818 H830 0.960 . S
C818 H831 0.962 . S
C818 H832 0.960 . S
C819 C816 1.511 . S
C819 H833 0.961 . S
C819 H834 0.961 . S
C819 H835 0.961 . S
C820 C821 1.370 . S
C820 C822 1.363 . S
C820 H836 0.931 . S
C821 C820 1.370 . S
C821 C825 1.408 . S
C822 C820 1.363 . S
C822 C823 1.370 . S
C822 C826 1.524 . S
C823 C815 1.503 . S
C823 C822 1.370 . S
C823 C824 1.403 . S
C824 C823 1.403 . S
C824 C825 1.404 . S
C824 C827 1.539 . S
C825 C821 1.408 . S
C825 C824 1.404 . S
C825 H837 0.930 . S
C826 C822 1.524 . S
C826 H838 0.956 . S
C826 H839 0.961 . S
C826 H840 0.961 . S
C827 C824 1.539 . S
C827 H841 0.958 . S
C827 H842 0.961 . S
C827 H843 0.960 . S
H828 C812 0.931 . S
H829 C817 0.929 . S
H830 C818 0.960 . S
H831 C818 0.962 . S
H832 C818 0.960 . S
H833 C819 0.961 . S
H834 C819 0.961 . S
H835 C819 0.961 . S
H836 C820 0.931 . S
H837 C825 0.930 . S
H838 C826 0.956 . S
H839 C826 0.961 . S
H840 C826 0.961 . S
H841 C827 0.958 . S
H842 C827 0.961 . S
H843 C827 0.960 . S
C844 C845 1.391 . S
C844 C846 1.394 . S
C844 H860 0.931 . S
C845 C844 1.391 . S
C845 C849 1.376 . S
C846 C844 1.394 . S
C846 C847 1.369 . S
C846 C850 1.531 . S
C847 C846 1.369 . S
C847 C848 1.410 . S
C847 C855 1.503 . S
C848 C847 1.410 . S
C848 C849 1.392 . S
C848 C851 1.511 . S
C849 C845 1.376 . S
C849 C848 1.392 . S
C849 H861 0.929 . S
C850 C846 1.531 . S
C850 H862 0.960 . S
C850 H863 0.962 . S
C850 H864 0.960 . S
C851 C848 1.511 . S
C851 H865 0.961 . S
C851 H866 0.961 . S
C851 H867 0.961 . S
C852 C853 1.370 . S
C852 C854 1.363 . S
C852 H868 0.931 . S
C853 C852 1.370 . S
C853 C857 1.408 . S
C854 C852 1.363 . S
C854 C855 1.370 . S
C854 C858 1.524 . S
C855 C847 1.503 . S
C855 C854 1.370 . S
C855 C856 1.403 . S
C856 C855 1.403 . S
C856 C857 1.404 . S
C856 C859 1.539 . S
C857 C853 1.408 . S
C857 C856 1.404 . S
C857 H869 0.930 . S
C858 C854 1.524 . S
C858 H870 0.956 . S
C858 H871 0.961 . S
C858 H872 0.961 . S
C859 C856 1.539 . S
C859 H873 0.958 . S
C859 H874 0.961 . S
C859 H875 0.960 . S
H860 C844 0.931 . S
H861 C849 0.929 . S
H862 C850 0.960 . S
H863 C850 0.962 . S
H864 C850 0.960 . S
H865 C851 0.961 . S
H866 C851 0.961 . S
H867 C851 0.961 . S
H868 C852 0.931 . S
H869 C857 0.930 . S
H870 C858 0.956 . S
H871 C858 0.961 . S
H872 C858 0.961 . S
H873 C859 0.958 . S
H874 C859 0.961 . S
H875 C859 0.960 . S
C876 C877 1.391 . S
C876 C878 1.394 . S
C876 H892 0.931 . S
C877 C876 1.391 . S
C877 C881 1.376 . S
C878 C876 1.394 . S
C878 C879 1.369 . S
C878 C882 1.531 . S
C879 C878 1.369 . S
C879 C880 1.410 . S
C879 C887 1.503 . S
C880 C879 1.410 . S
C880 C881 1.392 . S
C880 C883 1.511 . S
C881 C877 1.376 . S
C881 C880 1.392 . S
C881 H893 0.929 . S
C882 C878 1.531 . S
C882 H894 0.960 . S
C882 H895 0.962 . S
C882 H896 0.960 . S
C883 C880 1.511 . S
C883 H897 0.961 . S
C883 H898 0.961 . S
C883 H899 0.961 . S
C884 C885 1.370 . S
C884 C886 1.363 . S
C884 H900 0.931 . S
C885 C884 1.370 . S
C885 C889 1.408 . S
C886 C884 1.363 . S
C886 C887 1.370 . S
C886 C890 1.524 . S
C887 C879 1.503 . S
C887 C886 1.370 . S
C887 C888 1.403 . S
C888 C887 1.403 . S
C888 C889 1.404 . S
C888 C891 1.539 . S
C889 C885 1.408 . S
C889 C888 1.404 . S
C889 H901 0.930 . S
C890 C886 1.524 . S
C890 H902 0.956 . S
C890 H903 0.961 . S
C890 H904 0.961 . S
C891 C888 1.539 . S
C891 H905 0.958 . S
C891 H906 0.961 . S
C891 H907 0.960 . S
H892 C876 0.931 . S
H893 C881 0.929 . S
H894 C882 0.960 . S
H895 C882 0.962 . S
H896 C882 0.960 . S
H897 C883 0.961 . S
H898 C883 0.961 . S
H899 C883 0.961 . S
H900 C884 0.931 . S
H901 C889 0.930 . S
H902 C890 0.956 . S
H903 C890 0.961 . S
H904 C890 0.961 . S
H905 C891 0.958 . S
H906 C891 0.961 . S
H907 C891 0.960 . S
C908 C909 1.391 . S
C908 C910 1.394 . S
C908 H924 0.931 . S
C909 C908 1.391 . S
C909 C913 1.376 . S
C910 C908 1.394 . S
C910 C911 1.369 . S
C910 C914 1.531 . S
C911 C910 1.369 . S
C911 C912 1.410 . S
C911 C919 1.503 . S
C912 C911 1.410 . S
C912 C913 1.392 . S
C912 C915 1.511 . S
C913 C909 1.376 . S
C913 C912 1.392 . S
C913 H925 0.929 . S
C914 C910 1.531 . S
C914 H926 0.960 . S
C914 H927 0.962 . S
C914 H928 0.960 . S
C915 C912 1.511 . S
C915 H929 0.961 . S
C915 H930 0.961 . S
C915 H931 0.961 . S
C916 C917 1.370 . S
C916 C918 1.363 . S
C916 H932 0.931 . S
C917 C916 1.370 . S
C917 C921 1.408 . S
C918 C916 1.363 . S
C918 C919 1.370 . S
C918 C922 1.524 . S
C919 C911 1.503 . S
C919 C918 1.370 . S
C919 C920 1.403 . S
C920 C919 1.403 . S
C920 C921 1.404 . S
C920 C923 1.539 . S
C921 C917 1.408 . S
C921 C920 1.404 . S
C921 H933 0.930 . S
C922 C918 1.524 . S
C922 H934 0.956 . S
C922 H935 0.961 . S
C922 H936 0.961 . S
C923 C920 1.539 . S
C923 H937 0.958 . S
C923 H938 0.961 . S
C923 H939 0.960 . S
H924 C908 0.931 . S
H925 C913 0.929 . S
H926 C914 0.960 . S
H927 C914 0.962 . S
H928 C914 0.960 . S
H929 C915 0.961 . S
H930 C915 0.961 . S
H931 C915 0.961 . S
H932 C916 0.931 . S
H933 C921 0.930 . S
H934 C922 0.956 . S
H935 C922 0.961 . S
H936 C922 0.961 . S
H937 C923 0.958 . S
H938 C923 0.961 . S
H939 C923 0.960 . S
C940 C941 1.391 . S
C940 C942 1.394 . S
C940 H956 0.931 . S
C941 C940 1.391 . S
C941 C945 1.376 . S
C942 C940 1.394 . S
C942 C943 1.369 . S
C942 C946 1.531 . S
C943 C942 1.369 . S
C943 C944 1.410 . S
C943 C951 1.503 . S
C944 C943 1.410 . S
C944 C945 1.392 . S
C944 C947 1.511 . S
C945 C941 1.376 . S
C945 C944 1.392 . S
C945 H957 0.929 . S
C946 C942 1.531 . S
C946 H958 0.960 . S
C946 H959 0.962 . S
C946 H960 0.960 . S
C947 C944 1.511 . S
C947 H961 0.961 . S
C947 H962 0.961 . S
C947 H963 0.961 . S
C948 C949 1.370 . S
C948 C950 1.363 . S
C948 H964 0.931 . S
C949 C948 1.370 . S
C949 C953 1.408 . S
C950 C948 1.363 . S
C950 C951 1.370 . S
C950 C954 1.524 . S
C951 C943 1.503 . S
C951 C950 1.370 . S
C951 C952 1.403 . S
C952 C951 1.403 . S
C952 C953 1.404 . S
C952 C955 1.539 . S
C953 C949 1.408 . S
C953 C952 1.404 . S
C953 H965 0.930 . S
C954 C950 1.524 . S
C954 H966 0.956 . S
C954 H967 0.961 . S
C954 H968 0.961 . S
C955 C952 1.539 . S
C955 H969 0.958 . S
C955 H970 0.961 . S
C955 H971 0.960 . S
H956 C940 0.931 . S
H957 C945 0.929 . S
H958 C946 0.960 . S
H959 C946 0.962 . S
H960 C946 0.960 . S
H961 C947 0.961 . S
H962 C947 0.961 . S
H963 C947 0.961 . S
H964 C948 0.931 . S
H965 C953 0.930 . S
H966 C954 0.956 . S
H967 C954 0.961 . S
H968 C954 0.961 . S
H969 C955 0.958 . S
H970 C955 0.961 . S
H971 C955 0.960 . S
C972 C973 1.391 . S
C972 C974 1.394 . S
C972 H988 0.931 . S
C973 C972 1.391 . S
C973 C977 1.376 . S
C974 C972 1.394 . S
C974 C975 1.369 . S
C974 C978 1.531 . S
C975 C974 1.369 . S
C975 C976 1.410 . S
C975 C983 1.503 . S
C976 C975 1.410 . S
C976 C977 1.392 . S
C976 C979 1.511 . S
C977 C973 1.376 . S
C977 C976 1.392 . S
C977 H989 0.929 . S
C978 C974 1.531 . S
C978 H990 0.960 . S
C978 H991 0.962 . S
C978 H992 0.960 . S
C979 C976 1.511 . S
C979 H993 0.961 . S
C979 H994 0.961 . S
C979 H995 0.961 . S
C980 C981 1.370 . S
C980 C982 1.363 . S
C980 H996 0.931 . S
C981 C980 1.370 . S
C981 C985 1.408 . S
C982 C980 1.363 . S
C982 C983 1.370 . S
C982 C986 1.524 . S
C983 C975 1.503 . S
C983 C982 1.370 . S
C983 C984 1.403 . S
C984 C983 1.403 . S
C984 C985 1.404 . S
C984 C987 1.539 . S
C985 C981 1.408 . S
C985 C984 1.404 . S
C985 H997 0.930 . S
C986 C982 1.524 . S
C986 H998 0.956 . S
C986 H999 0.961 . S
C986 H1000 0.961 . S
C987 C984 1.539 . S
C987 H1001 0.958 . S
C987 H1002 0.961 . S
C987 H1003 0.960 . S
H988 C972 0.931 . S
H989 C977 0.929 . S
H990 C978 0.960 . S
H991 C978 0.962 . S
H992 C978 0.960 . S
H993 C979 0.961 . S
H994 C979 0.961 . S
H995 C979 0.961 . S
H996 C980 0.931 . S
H997 C985 0.930 . S
H998 C986 0.956 . S
H999 C986 0.961 . S
H1000 C986 0.961 . S
H1001 C987 0.958 . S
H1002 C987 0.961 . S
H1003 C987 0.960 . S
C1004 C1005 1.391 . S
C1004 C1006 1.394 . S
C1004 H1020 0.931 . S
C1005 C1004 1.391 . S
C1005 C1009 1.376 . S
C1006 C1004 1.394 . S
C1006 C1007 1.369 . S
C1006 C1010 1.531 . S
C1007 C1006 1.369 . S
C1007 C1008 1.410 . S
C1007 C1015 1.503 . S
C1008 C1007 1.410 . S
C1008 C1009 1.392 . S
C1008 C1011 1.511 . S
C1009 C1005 1.376 . S
C1009 C1008 1.392 . S
C1009 H1021 0.929 . S
C1010 C1006 1.531 . S
C1010 H1022 0.960 . S
C1010 H1023 0.962 . S
C1010 H1024 0.960 . S
C1011 C1008 1.511 . S
C1011 H1025 0.961 . S
C1011 H1026 0.961 . S
C1011 H1027 0.961 . S
C1012 C1013 1.370 . S
C1012 C1014 1.363 . S
C1012 H1028 0.931 . S
C1013 C1012 1.370 . S
C1013 C1017 1.408 . S
C1014 C1012 1.363 . S
C1014 C1015 1.370 . S
C1014 C1018 1.524 . S
C1015 C1007 1.503 . S
C1015 C1014 1.370 . S
C1015 C1016 1.403 . S
C1016 C1015 1.403 . S
C1016 C1017 1.404 . S
C1016 C1019 1.539 . S
C1017 C1013 1.408 . S
C1017 C1016 1.404 . S
C1017 H1029 0.930 . S
C1018 C1014 1.524 . S
C1018 H1030 0.956 . S
C1018 H1031 0.961 . S
C1018 H1032 0.961 . S
C1019 C1016 1.539 . S
C1019 H1033 0.958 . S
C1019 H1034 0.961 . S
C1019 H1035 0.960 . S
H1020 C1004 0.931 . S
H1021 C1009 0.929 . S
H1022 C1010 0.960 . S
H1023 C1010 0.962 . S
H1024 C1010 0.960 . S
H1025 C1011 0.961 . S
H1026 C1011 0.961 . S
H1027 C1011 0.961 . S
H1028 C1012 0.931 . S
H1029 C1017 0.930 . S
H1030 C1018 0.956 . S
H1031 C1018 0.961 . S
H1032 C1018 0.961 . S
H1033 C1019 0.958 . S
H1034 C1019 0.961 . S
H1035 C1019 0.960 . S
C1036 C1037 1.391 . S
C1036 C1038 1.394 . S
C1036 H1052 0.931 . S
C1037 C1036 1.391 . S
C1037 C1041 1.376 . S
C1038 C1036 1.394 . S
C1038 C1039 1.369 . S
C1038 C1042 1.531 . S
C1039 C1038 1.369 . S
C1039 C1040 1.410 . S
C1039 C1047 1.503 . S
C1040 C1039 1.410 . S
C1040 C1041 1.392 . S
C1040 C1043 1.511 . S
C1041 C1037 1.376 . S
C1041 C1040 1.392 . S
C1041 H1053 0.929 . S
C1042 C1038 1.531 . S
C1042 H1054 0.960 . S
C1042 H1055 0.962 . S
C1042 H1056 0.960 . S
C1043 C1040 1.511 . S
C1043 H1057 0.961 . S
C1043 H1058 0.961 . S
C1043 H1059 0.961 . S
C1044 C1045 1.370 . S
C1044 C1046 1.363 . S
C1044 H1060 0.931 . S
C1045 C1044 1.370 . S
C1045 C1049 1.408 . S
C1046 C1044 1.363 . S
C1046 C1047 1.370 . S
C1046 C1050 1.524 . S
C1047 C1039 1.503 . S
C1047 C1046 1.370 . S
C1047 C1048 1.403 . S
C1048 C1047 1.403 . S
C1048 C1049 1.404 . S
C1048 C1051 1.539 . S
C1049 C1045 1.408 . S
C1049 C1048 1.404 . S
C1049 H1061 0.930 . S
C1050 C1046 1.524 . S
C1050 H1062 0.956 . S
C1050 H1063 0.961 . S
C1050 H1064 0.961 . S
C1051 C1048 1.539 . S
C1051 H1065 0.958 . S
C1051 H1066 0.961 . S
C1051 H1067 0.960 . S
H1052 C1036 0.931 . S
H1053 C1041 0.929 . S
H1054 C1042 0.960 . S
H1055 C1042 0.962 . S
H1056 C1042 0.960 . S
H1057 C1043 0.961 . S
H1058 C1043 0.961 . S
H1059 C1043 0.961 . S
H1060 C1044 0.931 . S
H1061 C1049 0.930 . S
H1062 C1050 0.956 . S
H1063 C1050 0.961 . S
H1064 C1050 0.961 . S
H1065 C1051 0.958 . S
H1066 C1051 0.961 . S
H1067 C1051 0.960 . S
C1068 C1069 1.391 . S
C1068 C1070 1.394 . S
C1068 H1084 0.931 . S
C1069 C1068 1.391 . S
C1069 C1073 1.376 . S
C1070 C1068 1.394 . S
C1070 C1071 1.369 . S
C1070 C1074 1.531 . S
C1071 C1070 1.369 . S
C1071 C1072 1.410 . S
C1071 C1079 1.503 . S
C1072 C1071 1.410 . S
C1072 C1073 1.392 . S
C1072 C1075 1.511 . S
C1073 C1069 1.376 . S
C1073 C1072 1.392 . S
C1073 H1085 0.929 . S
C1074 C1070 1.531 . S
C1074 H1086 0.960 . S
C1074 H1087 0.962 . S
C1074 H1088 0.960 . S
C1075 C1072 1.511 . S
C1075 H1089 0.961 . S
C1075 H1090 0.961 . S
C1075 H1091 0.961 . S
C1076 C1077 1.370 . S
C1076 C1078 1.363 . S
C1076 H1092 0.931 . S
C1077 C1076 1.370 . S
C1077 C1081 1.408 . S
C1078 C1076 1.363 . S
C1078 C1079 1.370 . S
C1078 C1082 1.524 . S
C1079 C1071 1.503 . S
C1079 C1078 1.370 . S
C1079 C1080 1.403 . S
C1080 C1079 1.403 . S
C1080 C1081 1.404 . S
C1080 C1083 1.539 . S
C1081 C1077 1.408 . S
C1081 C1080 1.404 . S
C1081 H1093 0.930 . S
C1082 C1078 1.524 . S
C1082 H1094 0.956 . S
C1082 H1095 0.961 . S
C1082 H1096 0.961 . S
C1083 C1080 1.539 . S
C1083 H1097 0.958 . S
C1083 H1098 0.961 . S
C1083 H1099 0.960 . S
H1084 C1068 0.931 . S
H1085 C1073 0.929 . S
H1086 C1074 0.960 . S
H1087 C1074 0.962 . S
H1088 C1074 0.960 . S
H1089 C1075 0.961 . S
H1090 C1075 0.961 . S
H1091 C1075 0.961 . S
H1092 C1076 0.931 . S
H1093 C1081 0.930 . S
H1094 C1082 0.956 . S
H1095 C1082 0.961 . S
H1096 C1082 0.961 . S
H1097 C1083 0.958 . S
H1098 C1083 0.961 . S
H1099 C1083 0.960 . S
C1100 C1101 1.391 . S
C1100 C1102 1.394 . S
C1100 H1116 0.931 . S
C1101 C1100 1.391 . S
C1101 C1105 1.376 . S
C1102 C1100 1.394 . S
C1102 C1103 1.369 . S
C1102 C1106 1.531 . S
C1103 C1102 1.369 . S
C1103 C1104 1.410 . S
C1103 C1111 1.503 . S
C1104 C1103 1.410 . S
C1104 C1105 1.392 . S
C1104 C1107 1.511 . S
C1105 C1101 1.376 . S
C1105 C1104 1.392 . S
C1105 H1117 0.929 . S
C1106 C1102 1.531 . S
C1106 H1118 0.960 . S
C1106 H1119 0.962 . S
C1106 H1120 0.960 . S
C1107 C1104 1.511 . S
C1107 H1121 0.961 . S
C1107 H1122 0.961 . S
C1107 H1123 0.961 . S
C1108 C1109 1.370 . S
C1108 C1110 1.363 . S
C1108 H1124 0.931 . S
C1109 C1108 1.370 . S
C1109 C1113 1.408 . S
C1110 C1108 1.363 . S
C1110 C1111 1.370 . S
C1110 C1114 1.524 . S
C1111 C1103 1.503 . S
C1111 C1110 1.370 . S
C1111 C1112 1.403 . S
C1112 C1111 1.403 . S
C1112 C1113 1.404 . S
C1112 C1115 1.539 . S
C1113 C1109 1.408 . S
C1113 C1112 1.404 . S
C1113 H1125 0.930 . S
C1114 C1110 1.524 . S
C1114 H1126 0.956 . S
C1114 H1127 0.961 . S
C1114 H1128 0.961 . S
C1115 C1112 1.539 . S
C1115 H1129 0.958 . S
C1115 H1130 0.961 . S
C1115 H1131 0.960 . S
H1116 C1100 0.931 . S
H1117 C1105 0.929 . S
H1118 C1106 0.960 . S
H1119 C1106 0.962 . S
H1120 C1106 0.960 . S
H1121 C1107 0.961 . S
H1122 C1107 0.961 . S
H1123 C1107 0.961 . S
H1124 C1108 0.931 . S
H1125 C1113 0.930 . S
H1126 C1114 0.956 . S
H1127 C1114 0.961 . S
H1128 C1114 0.961 . S
H1129 C1115 0.958 . S
H1130 C1115 0.961 . S
H1131 C1115 0.960 . S
C1132 C1133 1.391 . S
C1132 C1134 1.394 . S
C1132 H1148 0.931 . S
C1133 C1132 1.391 . S
C1133 C1137 1.376 . S
C1134 C1132 1.394 . S
C1134 C1135 1.369 . S
C1134 C1138 1.531 . S
C1135 C1134 1.369 . S
C1135 C1136 1.410 . S
C1135 C1143 1.503 . S
C1136 C1135 1.410 . S
C1136 C1137 1.392 . S
C1136 C1139 1.511 . S
C1137 C1133 1.376 . S
C1137 C1136 1.392 . S
C1137 H1149 0.929 . S
C1138 C1134 1.531 . S
C1138 H1150 0.960 . S
C1138 H1151 0.962 . S
C1138 H1152 0.960 . S
C1139 C1136 1.511 . S
C1139 H1153 0.961 . S
C1139 H1154 0.961 . S
C1139 H1155 0.961 . S
C1140 C1141 1.370 . S
C1140 C1142 1.363 . S
C1140 H1156 0.931 . S
C1141 C1140 1.370 . S
C1141 C1145 1.408 . S
C1142 C1140 1.363 . S
C1142 C1143 1.370 . S
C1142 C1146 1.524 . S
C1143 C1135 1.503 . S
C1143 C1142 1.370 . S
C1143 C1144 1.403 . S
C1144 C1143 1.403 . S
C1144 C1145 1.404 . S
C1144 C1147 1.539 . S
C1145 C1141 1.408 . S
C1145 C1144 1.404 . S
C1145 H1157 0.930 . S
C1146 C1142 1.524 . S
C1146 H1158 0.956 . S
C1146 H1159 0.961 . S
C1146 H1160 0.961 . S
C1147 C1144 1.539 . S
C1147 H1161 0.958 . S
C1147 H1162 0.961 . S
C1147 H1163 0.960 . S
H1148 C1132 0.931 . S
H1149 C1137 0.929 . S
H1150 C1138 0.960 . S
H1151 C1138 0.962 . S
H1152 C1138 0.960 . S
H1153 C1139 0.961 . S
H1154 C1139 0.961 . S
H1155 C1139 0.961 . S
H1156 C1140 0.931 . S
H1157 C1145 0.930 . S
H1158 C1146 0.956 . S
H1159 C1146 0.961 . S
H1160 C1146 0.961 . S
H1161 C1147 0.958 . S
H1162 C1147 0.961 . S
H1163 C1147 0.960 . S
C397 C39 1.730 . S
C405 C319 1.720 . S
C429 C91 1.746 . S
C437 C332 1.742 . S
C469 C354 1.534 . S
C461 C128 1.580 . S
C501 C367 1.501 . S
C493 C188 1.550 . S
C533 C380 1.637 . S
C525 C250 1.669 . S
C565 C393 1.637 . S
C557 C304 1.689 . S
C589 C75 1.582 . S
C597 C349 1.506 . S
C621 C144 1.700 . S
C629 C362 1.652 . S
C661 C375 1.603 . S
C653 C198 1.667 . S
C693 C388 1.438 . S
C685 C234 1.516 . S
C717 C294 1.529 . S
C725 C321 1.538 . S
C757 C334 1.571 . S
C749 C29 1.566 . S
C789 C360 1.660 . S
C781 C38 1.709 . S
C813 C92 1.738 . S
C821 C373 1.675 . S
C853 C386 1.527 . S
C845 C135 1.573 . S
C877 C181 1.551 . S
C885 C323 1.546 . S
C909 C251 1.677 . S
C917 C336 1.673 . S
C941 C303 1.675 . S
C949 C347 1.616 . S
C973 C82 1.582 . S
C981 C384 1.544 . S
C1013 C328 1.717 . S
C1005 C145 1.712 . S
C1037 C197 1.685 . S
C1045 C341 1.676 . S
C1069 C241 1.523 . S
C1077 C345 1.469 . S
C1101 C287 1.532 . S
C1109 C358 1.501 . S
C1133 C22 1.562 . S
C1141 C371 1.533 . S
