# Generated by pormake.
# Topology ctn, (3,4)-cn, num edge types: 1
# Building blocks:
#     Node 0, Type 0, BuildingBlock: WUSLED_clean_sbu_0, # of connection points: 3
#     Node 1, Type 0, BuildingBlock: WUSLED_clean_sbu_0, # of connection points: 3
#     Node 2, Type 0, BuildingBlock: WUSLED_clean_sbu_0, # of connection points: 3
#     Node 3, Type 0, BuildingBlock: WUSLED_clean_sbu_0, # of connection points: 3
#     Node 4, Type 0, BuildingBlock: WUSLED_clean_sbu_0, # of connection points: 3
#     Node 5, Type 0, BuildingBlock: WUSLED_clean_sbu_0, # of connection points: 3
#     Node 6, Type 0, BuildingBlock: WUSLED_clean_sbu_0, # of connection points: 3
#     Node 7, Type 0, BuildingBlock: WUSLED_clean_sbu_0, # of connection points: 3
#     Node 8, Type 0, BuildingBlock: WUSLED_clean_sbu_0, # of connection points: 3
#     Node 9, Type 0, BuildingBlock: WUSLED_clean_sbu_0, # of connection points: 3
#     Node 10, Type 0, BuildingBlock: WUSLED_clean_sbu_0, # of connection points: 3
#     Node 11, Type 0, BuildingBlock: WUSLED_clean_sbu_0, # of connection points: 3
#     Node 12, Type 0, BuildingBlock: WUSLED_clean_sbu_0, # of connection points: 3
#     Node 13, Type 0, BuildingBlock: WUSLED_clean_sbu_0, # of connection points: 3
#     Node 14, Type 0, BuildingBlock: WUSLED_clean_sbu_0, # of connection points: 3
#     Node 15, Type 0, BuildingBlock: WUSLED_clean_sbu_0, # of connection points: 3
#     Node 16, Type 1, BuildingBlock: AZAVOO_clean_sbu_0, # of connection points: 4
#     Node 17, Type 1, BuildingBlock: AZAVOO_clean_sbu_0, # of connection points: 4
#     Node 18, Type 1, BuildingBlock: AZAVOO_clean_sbu_0, # of connection points: 4
#     Node 19, Type 1, BuildingBlock: AZAVOO_clean_sbu_0, # of connection points: 4
#     Node 20, Type 1, BuildingBlock: AZAVOO_clean_sbu_0, # of connection points: 4
#     Node 21, Type 1, BuildingBlock: AZAVOO_clean_sbu_0, # of connection points: 4
#     Node 22, Type 1, BuildingBlock: AZAVOO_clean_sbu_0, # of connection points: 4
#     Node 23, Type 1, BuildingBlock: AZAVOO_clean_sbu_0, # of connection points: 4
#     Node 24, Type 1, BuildingBlock: AZAVOO_clean_sbu_0, # of connection points: 4
#     Node 25, Type 1, BuildingBlock: AZAVOO_clean_sbu_0, # of connection points: 4
#     Node 26, Type 1, BuildingBlock: AZAVOO_clean_sbu_0, # of connection points: 4
#     Node 27, Type 1, BuildingBlock: AZAVOO_clean_sbu_0, # of connection points: 4
#     Edge 28, Type (0, 1), BuildingBlock: OJICUG_clean_linker_0, # of connection points: 2
#     Edge 29, Type (0, 1), BuildingBlock: OJICUG_clean_linker_0, # of connection points: 2
#     Edge 30, Type (0, 1), BuildingBlock: OJICUG_clean_linker_0, # of connection points: 2
#     Edge 31, Type (0, 1), BuildingBlock: OJICUG_clean_linker_0, # of connection points: 2
#     Edge 32, Type (0, 1), BuildingBlock: OJICUG_clean_linker_0, # of connection points: 2
#     Edge 33, Type (0, 1), BuildingBlock: OJICUG_clean_linker_0, # of connection points: 2
#     Edge 34, Type (0, 1), BuildingBlock: OJICUG_clean_linker_0, # of connection points: 2
#     Edge 35, Type (0, 1), BuildingBlock: OJICUG_clean_linker_0, # of connection points: 2
#     Edge 36, Type (0, 1), BuildingBlock: OJICUG_clean_linker_0, # of connection points: 2
#     Edge 37, Type (0, 1), BuildingBlock: OJICUG_clean_linker_0, # of connection points: 2
#     Edge 38, Type (0, 1), BuildingBlock: OJICUG_clean_linker_0, # of connection points: 2
#     Edge 39, Type (0, 1), BuildingBlock: OJICUG_clean_linker_0, # of connection points: 2
#     Edge 40, Type (0, 1), BuildingBlock: OJICUG_clean_linker_0, # of connection points: 2
#     Edge 41, Type (0, 1), BuildingBlock: OJICUG_clean_linker_0, # of connection points: 2
#     Edge 42, Type (0, 1), BuildingBlock: OJICUG_clean_linker_0, # of connection points: 2
#     Edge 43, Type (0, 1), BuildingBlock: OJICUG_clean_linker_0, # of connection points: 2
#     Edge 44, Type (0, 1), BuildingBlock: OJICUG_clean_linker_0, # of connection points: 2
#     Edge 45, Type (0, 1), BuildingBlock: OJICUG_clean_linker_0, # of connection points: 2
#     Edge 46, Type (0, 1), BuildingBlock: OJICUG_clean_linker_0, # of connection points: 2
#     Edge 47, Type (0, 1), BuildingBlock: OJICUG_clean_linker_0, # of connection points: 2
#     Edge 48, Type (0, 1), BuildingBlock: OJICUG_clean_linker_0, # of connection points: 2
#     Edge 49, Type (0, 1), BuildingBlock: OJICUG_clean_linker_0, # of connection points: 2
#     Edge 50, Type (0, 1), BuildingBlock: OJICUG_clean_linker_0, # of connection points: 2
#     Edge 51, Type (0, 1), BuildingBlock: OJICUG_clean_linker_0, # of connection points: 2
#     Edge 52, Type (0, 1), BuildingBlock: OJICUG_clean_linker_0, # of connection points: 2
#     Edge 53, Type (0, 1), BuildingBlock: OJICUG_clean_linker_0, # of connection points: 2
#     Edge 54, Type (0, 1), BuildingBlock: OJICUG_clean_linker_0, # of connection points: 2
#     Edge 55, Type (0, 1), BuildingBlock: OJICUG_clean_linker_0, # of connection points: 2
#     Edge 56, Type (0, 1), BuildingBlock: OJICUG_clean_linker_0, # of connection points: 2
#     Edge 57, Type (0, 1), BuildingBlock: OJICUG_clean_linker_0, # of connection points: 2
#     Edge 58, Type (0, 1), BuildingBlock: OJICUG_clean_linker_0, # of connection points: 2
#     Edge 59, Type (0, 1), BuildingBlock: OJICUG_clean_linker_0, # of connection points: 2
#     Edge 60, Type (0, 1), BuildingBlock: OJICUG_clean_linker_0, # of connection points: 2
#     Edge 61, Type (0, 1), BuildingBlock: OJICUG_clean_linker_0, # of connection points: 2
#     Edge 62, Type (0, 1), BuildingBlock: OJICUG_clean_linker_0, # of connection points: 2
#     Edge 63, Type (0, 1), BuildingBlock: OJICUG_clean_linker_0, # of connection points: 2
#     Edge 64, Type (0, 1), BuildingBlock: OJICUG_clean_linker_0, # of connection points: 2
#     Edge 65, Type (0, 1), BuildingBlock: OJICUG_clean_linker_0, # of connection points: 2
#     Edge 66, Type (0, 1), BuildingBlock: OJICUG_clean_linker_0, # of connection points: 2
#     Edge 67, Type (0, 1), BuildingBlock: OJICUG_clean_linker_0, # of connection points: 2
#     Edge 68, Type (0, 1), BuildingBlock: OJICUG_clean_linker_0, # of connection points: 2
#     Edge 69, Type (0, 1), BuildingBlock: OJICUG_clean_linker_0, # of connection points: 2
#     Edge 70, Type (0, 1), BuildingBlock: OJICUG_clean_linker_0, # of connection points: 2
#     Edge 71, Type (0, 1), BuildingBlock: OJICUG_clean_linker_0, # of connection points: 2
#     Edge 72, Type (0, 1), BuildingBlock: OJICUG_clean_linker_0, # of connection points: 2
#     Edge 73, Type (0, 1), BuildingBlock: OJICUG_clean_linker_0, # of connection points: 2
#     Edge 74, Type (0, 1), BuildingBlock: OJICUG_clean_linker_0, # of connection points: 2
#     Edge 75, Type (0, 1), BuildingBlock: OJICUG_clean_linker_0, # of connection points: 2
# Relax obj value: 0.003
# Max RMSD: 0.043
# Mean RMSD: 0.026
data_MOF--net-ctn--node1-WUSLED_clean_sbu_0--node2-AZAVOO_clean_sbu_0--edge1-OJICUG_clean_linker_0
_symmetry_space_group_name_H-M    P1
_symmetry_Int_Tables_number       1
_symmetry_cell_setting            triclinic
loop_
_symmetry_equiv_pos_as_xyz
'x, y, z'
_cell_length_a     55.194411
_cell_length_b     56.520341
_cell_length_c     56.444059
_cell_angle_alpha  90.909756
_cell_angle_beta   92.755089
_cell_angle_gamma 92.909183
loop_
_atom_site_label
_atom_site_type_symbol
_atom_site_fract_x
_atom_site_fract_y
_atom_site_fract_z
_atom_type_partial_charge
C0 C 1.00698 0.0477 0.0866 0.0
C1 C 0.01917 0.04766 0.10907 0.0
C2 C 0.98106 0.03772 0.12784 0.0
C3 C 1.00637 0.04271 0.12942 0.0
C4 C 0.96909 0.03702 0.10523 0.0
C5 C 0.98187 0.04203 0.08492 0.0
U6 U 0.05451 0.0443 0.03789 0.0
O7 O 0.04927 0.05166 0.99972 0.0
O8 O 0.07586 0.07327 0.02199 0.0
C9 C 0.06442 0.0704 1.00108 0.0
C10 C 0.01935 0.05572 0.06513 0.0
C11 C 0.05605 0.09207 0.98952 0.0
C12 C 0.04725 0.13387 0.9909 0.0
C13 C 0.05283 0.11298 1.00256 0.0
C14 C 0.04702 0.11308 0.95307 0.0
C15 C 0.04464 0.13432 0.96595 0.0
C16 C 0.05272 0.09226 0.96473 0.0
C17 C 0.10034 0.99452 0.03745 0.0
C18 C 0.14059 0.97908 0.04373 0.0
C19 C 0.11669 0.96881 1.00765 0.0
C20 C 0.09807 0.98263 0.01529 0.0
C21 C 0.13804 0.96655 0.02194 0.0
C22 C 0.12193 0.99279 0.05141 0.0
C23 C 0.0799 1.00711 0.04718 0.0
O24 O 0.04181 0.0646 0.06806 0.0
O25 O 0.01575 0.04223 0.04596 0.0
O26 O 0.05914 1.00597 0.03465 0.0
O27 O 0.08527 0.02818 0.05681 0.0
H28 H 0.03849 0.0521 0.11106 0.0
H29 H 0.0162 0.0437 0.14651 0.0
H30 H 0.94972 0.0329 0.10322 0.0
H31 H 0.97197 0.04205 0.06788 0.0
H32 H 0.04585 0.14986 1.00145 0.0
H33 H 0.05524 0.11339 0.02172 0.0
H34 H 0.04472 0.11258 0.93391 0.0
H35 H 0.05505 0.07635 0.9543 0.0
H36 H 0.1566 0.97752 0.05535 0.0
H37 H 0.11421 0.95961 0.99066 0.0
H38 H 0.0817 0.98353 1.00403 0.0
H39 H 0.12412 1.00155 0.06865 0.0
C40 C 0.29643 0.76555 0.17541 0.0
C41 C 0.31516 0.76699 0.15935 0.0
C42 C 0.2951 0.79836 0.13798 0.0
C43 C 0.31448 0.78322 0.14083 0.0
C44 C 0.27686 0.79738 0.15456 0.0
C45 C 0.27749 0.78114 0.17297 0.0
U46 U 0.31836 0.73228 0.23165 0.0
O47 O 0.296 0.71735 0.25971 0.0
O48 O 0.3171 0.69401 0.23815 0.0
C49 C 0.30068 0.69542 0.25417 0.0
C50 C 0.2949 0.74673 0.19336 0.0
C51 C 0.27955 0.67817 0.25183 0.0
C52 C 0.25497 0.64748 0.22969 0.0
C53 C 0.27365 0.66526 0.23064 0.0
C54 C 0.24711 0.65586 0.27072 0.0
C55 C 0.2417 0.64233 0.24982 0.0
C56 C 0.26587 0.67351 0.27171 0.0
C57 C 0.37692 0.75251 0.26797 0.0
C58 C 0.38746 0.75241 0.31038 0.0
C59 C 0.41909 0.75018 0.28232 0.0
C60 C 0.40162 0.75099 0.26355 0.0
C61 C 0.41228 0.75104 0.30603 0.0
C62 C 0.37 0.75306 0.29161 0.0
C63 C 0.35897 0.7545 0.24778 0.0
O64 O 0.31098 0.73034 0.19298 0.0
O65 O 0.29011 0.75354 0.21494 0.0
O66 O 0.33729 0.76114 0.25287 0.0
O67 O 0.35826 0.73746 0.23158 0.0
H68 H 0.33003 0.75522 0.1607 0.0
H69 H 0.32893 0.78366 0.12851 0.0
H70 H 0.26146 0.80846 0.15273 0.0
H71 H 0.26268 0.78024 0.1849 0.0
H72 H 0.2511 0.63754 0.21326 0.0
H73 H 0.28376 0.66854 0.21495 0.0
H74 H 0.2375 0.65219 0.28664 0.0
H75 H 0.27013 0.68314 0.28826 0.0
H76 H 0.38149 0.75349 0.32834 0.0
H77 H 0.43792 0.74878 0.27821 0.0
H78 H 0.40745 0.75058 0.24549 0.0
H79 H 0.35112 0.75429 0.29568 0.0
C80 C 0.97572 0.43891 1.00266 0.0
C81 C 0.98218 0.41962 0.01658 0.0
C82 C 0.9881 0.39592 0.98095 0.0
C83 C 0.98822 0.39834 1.00584 0.0
C84 C 0.98243 0.41555 0.96711 0.0
C85 C 0.97622 0.43678 0.97787 0.0
U86 U 0.97865 0.48832 0.05089 0.0
O87 O 0.97397 0.52658 0.04731 0.0
O88 O 0.94878 0.50518 0.06815 0.0
C89 C 0.95386 0.52597 0.05896 0.0
C90 C 0.96735 0.46092 0.01345 0.0
C91 C 0.93301 0.53877 0.04871 0.0
C92 C 0.89265 0.5535 0.05335 0.0
C93 C 0.91146 0.53927 0.06098 0.0
C94 C 0.91624 0.56676 0.02061 0.0
C95 C 0.89497 0.56782 0.03333 0.0
C96 C 0.93504 0.55245 0.02821 0.0
C97 C 0.02859 0.48669 0.10211 0.0
C98 C 0.05666 0.51562 0.1228 0.0
C99 C 0.04693 0.47809 0.14103 0.0
C100 C 0.03138 0.47149 0.1214 0.0
C101 C 0.06026 0.5 0.1417 0.0
C102 C 0.04101 0.50907 0.10325 0.0
C103 C 0.01496 0.47777 0.08015 0.0
O104 O 0.95672 0.45872 0.03372 0.0
O105 O 0.98231 0.47974 0.01297 0.0
O106 O 0.01768 0.49016 0.06085 0.0
O107 O 0.99252 0.46939 0.0823 0.0
H108 H 0.98218 0.42082 0.03576 0.0
H109 H 0.99285 0.38369 0.01703 0.0
H110 H 0.98201 0.41425 0.94793 0.0
H111 H 0.9713 0.45142 0.96677 0.0
H112 H 0.87674 0.55407 0.0638 0.0
H113 H 0.90945 0.52921 0.07701 0.0
H114 H 0.91856 0.57732 1.00497 0.0
H115 H 0.95139 0.55263 0.01833 0.0
H116 H 0.06639 0.53275 0.12289 0.0
H117 H 0.04941 0.46554 0.15513 0.0
H118 H 0.02221 0.45406 0.12091 0.0
H119 H 0.03926 0.52126 0.08874 0.0
C120 C 0.71858 0.76857 0.18187 0.0
C121 C 0.70194 0.76364 0.16261 0.0
C122 C 0.73112 0.73986 0.14312 0.0
C123 C 0.70815 0.74955 0.14342 0.0
C124 C 0.74779 0.74479 0.16245 0.0
C125 C 0.74163 0.75903 0.18158 0.0
U126 U 0.72633 0.82118 0.22667 0.0
O127 O 0.69866 0.84313 0.24142 0.0
O128 O 0.72104 0.82179 0.26512 0.0
C129 C 0.70261 0.83559 0.26312 0.0
C130 C 0.71106 0.78275 0.20237 0.0
C131 C 0.68097 0.82804 0.27601 0.0
C132 C 0.64148 0.80709 0.27788 0.0
C133 C 0.66174 0.81402 0.26507 0.0
C134 C 0.65949 0.82803 0.31265 0.0
C135 C 0.64011 0.81393 0.3019 0.0
C136 C 0.67964 0.835 0.29983 0.0
C137 C 0.78202 0.86595 0.22254 0.0
C138 C 0.8193 0.88224 0.24289 0.0
C139 C 0.79566 0.90728 0.2174 0.0
C140 C 0.77872 0.88827 0.21249 0.0
C141 C 0.81645 0.90434 0.23225 0.0
C142 C 0.80238 0.8633 0.23804 0.0
C143 C 0.76608 0.84491 0.21482 0.0
O144 O 0.7249 0.78243 0.22197 0.0
O145 O 0.70336 0.80388 0.19763 0.0
O146 O 0.74435 0.84879 0.20553 0.0
O147 O 0.76613 0.82649 0.22876 0.0
H148 H 0.68399 0.77057 0.16248 0.0
H149 H 0.6948 0.74594 0.12895 0.0
H150 H 0.76574 0.73787 0.16266 0.0
H151 H 0.75491 0.76248 0.19613 0.0
H152 H 0.62685 0.79645 0.26889 0.0
H153 H 0.6624 0.80843 0.24668 0.0
H154 H 0.65939 0.83328 0.33118 0.0
H155 H 0.69434 0.84574 0.30862 0.0
H156 H 0.83492 0.87942 0.25467 0.0
H157 H 0.79301 0.92397 0.20872 0.0
H158 H 0.76346 0.89089 0.20018 0.0
H159 H 0.80571 0.84635 0.24593 0.0
C160 C 1.00753 0.97553 0.4352 0.0
C161 C 1.00976 0.99851 0.42613 0.0
C162 C 0.98257 0.98655 0.39208 0.0
C163 C 0.99729 1.004 0.40478 0.0
C164 C 0.9801 0.96374 0.40161 0.0
C165 C 0.99243 0.95833 0.4229 0.0
U166 U 0.05878 0.98342 0.48457 0.0
O167 O 0.05693 0.976 0.5227 0.0
O168 O 0.08111 0.95626 0.50086 0.0
C169 C 0.07193 0.95869 0.52175 0.0
C170 C 0.02086 0.96874 0.45717 0.0
C171 C 0.0649 0.93639 0.53358 0.0
C172 C 0.03533 0.90486 0.5431 0.0
C173 C 0.04097 0.92651 0.5322 0.0
C174 C 0.07737 0.90291 0.55695 0.0
C175 C 0.05357 0.89264 0.55534 0.0
C176 C 0.08292 0.92451 0.54622 0.0
C177 C 0.10624 0.03664 0.48376 0.0
C178 C 0.12586 0.0653 0.51222 0.0
C179 C 0.14618 0.05506 0.47674 0.0
C180 C 0.12656 0.03936 0.46975 0.0
C181 C 0.14583 0.06864 0.49781 0.0
C182 C 0.10631 0.04951 0.50531 0.0
C183 C 0.08445 0.02217 0.47451 0.0
O184 O 0.04283 0.96145 0.45462 0.0
O185 O 0.01941 0.98268 0.47587 0.0
O186 O 0.06499 0.02216 0.4871 0.0
O187 O 0.08826 1.00121 0.4654 0.0
H188 H 0.02137 0.01206 0.43535 0.0
H189 H 0.99976 0.02167 0.39783 0.0
H190 H 0.96871 0.94996 0.39249 0.0
H191 H 0.99035 0.94054 0.42965 0.0
H192 H 0.01688 0.89733 0.54134 0.0
H193 H 0.02676 0.93533 0.52245 0.0
H194 H 0.09179 0.89416 0.56645 0.0
H195 H 0.10147 0.93185 0.54759 0.0
H196 H 0.12512 0.07525 0.52871 0.0
H197 H 0.16112 0.05735 0.46509 0.0
H198 H 0.12694 0.02988 0.45295 0.0
H199 H 0.091 0.0479 0.51658 0.0
C200 C 0.2184 0.76932 0.83543 0.0
C201 C 0.23279 0.75853 0.85288 0.0
C202 C 0.23474 0.79477 0.87728 0.0
C203 C 0.24081 0.77108 0.87362 0.0
C204 C 0.22044 0.80551 0.85958 0.0
C205 C 0.21236 0.79289 0.83889 0.0
U206 U 0.22043 0.7182 0.78989 0.0
O207 O 0.19017 0.69726 0.77148 0.0
O208 O 0.21559 0.71873 0.75099 0.0
C209 C 0.1951 0.70575 0.75058 0.0
C210 C 0.20937 0.75628 0.81366 0.0
C211 C 0.17438 0.71428 0.73572 0.0
C212 C 0.13152 0.71081 0.72247 0.0
C213 C 0.15063 0.70455 0.73802 0.0
C214 C 0.15934 0.73691 0.70212 0.0
C215 C 0.13571 0.72676 0.70405 0.0
C216 C 0.17841 0.73072 0.71768 0.0
C217 C 0.27059 0.67285 0.799 0.0
C218 C 0.27415 0.6357 0.77728 0.0
C219 C 0.30762 0.65134 0.80314 0.0
C220 C 0.29411 0.67071 0.80897 0.0
C221 C 0.29791 0.63354 0.78717 0.0
C222 C 0.26064 0.65519 0.78312 0.0
C223 C 0.25712 0.69375 0.8055 0.0
O224 O 0.22402 0.75687 0.79598 0.0
O225 O 0.19907 0.73514 0.81672 0.0
O226 O 0.23472 0.68973 0.81193 0.0
O227 O 0.2596 0.71216 0.79174 0.0
H228 H 0.23766 0.74033 0.85056 0.0
H229 H 0.25144 0.76205 0.88696 0.0
H230 H 0.21566 0.82375 0.86158 0.0
H231 H 0.20135 0.80156 0.82555 0.0
H232 H 0.11364 0.70244 0.72432 0.0
H233 H 0.1469 0.69159 0.75147 0.0
H234 H 0.16319 0.74948 0.68834 0.0
H235 H 0.19644 0.73845 0.71518 0.0
H236 H 0.26593 0.62228 0.7651 0.0
H237 H 0.32594 0.65065 0.81078 0.0
H238 H 0.30216 0.6842 0.8212 0.0
H239 H 0.24248 0.65649 0.77521 0.0
C240 C 0.97181 0.58504 0.51721 0.0
C241 C 0.99445 0.59693 0.51454 0.0
C242 C 0.98507 0.62679 0.54413 0.0
C243 C 1.00101 0.61769 0.52786 0.0
C244 C 0.96234 0.61482 0.54641 0.0
C245 C 0.95584 0.59421 0.53313 0.0
U246 U 0.97603 0.53585 0.46856 0.0
O247 O 0.9698 0.49739 0.47228 0.0
O248 O 0.94547 0.51675 0.44862 0.0
C249 C 0.94953 0.49657 0.45899 0.0
C250 C 0.96429 0.56282 0.50423 0.0
C251 C 0.92813 0.48348 0.46846 0.0
C252 C 0.88676 0.46643 0.46205 0.0
C253 C 0.9064 0.48054 0.45442 0.0
C254 C 0.90998 0.45819 0.49815 0.0
C255 C 0.88848 0.4547 0.48381 0.0
C256 C 0.92954 0.4724 0.4906 0.0
C257 C 0.02655 0.53776 0.42293 0.0
C258 C 0.04286 0.54384 0.38393 0.0
C259 C 0.05369 0.50962 0.40654 0.0
C260 C 0.03908 0.51673 0.42473 0.0
C261 C 0.05611 0.52329 0.38608 0.0
C262 C 0.02836 0.55102 0.40218 0.0
C263 C 0.01346 0.5473 0.44314 0.0
O264 O 0.95524 0.56487 0.48244 0.0
O265 O 0.97886 0.54524 0.50661 0.0
O266 O 0.01523 0.53596 0.46327 0.0
O267 O 0.99155 0.55462 0.43831 0.0
H268 H 1.00705 0.59009 0.50232 0.0
H269 H 0.01868 0.6264 0.52571 0.0
H270 H 0.94937 0.62151 0.55831 0.0
H271 H 0.93824 0.58535 0.53538 0.0
H272 H 0.87058 0.46394 0.45046 0.0
H273 H 0.90483 0.48867 0.43719 0.0
H274 H 0.9118 0.44963 0.51513 0.0
H275 H 0.94595 0.47425 0.50193 0.0
H276 H 0.0445 0.55497 0.36859 0.0
H277 H 0.06341 0.49356 0.40868 0.0
H278 H 0.03813 0.50604 0.44044 0.0
H279 H 0.01913 0.56741 0.40037 0.0
C280 C 0.78398 0.77368 0.85209 0.0
C281 C 0.79653 0.75264 0.85265 0.0
C282 C 0.77807 0.74173 0.88974 0.0
C283 C 0.79368 0.73681 0.87145 0.0
C284 C 0.7661 0.76312 0.88919 0.0
C285 C 0.76902 0.77884 0.87061 0.0
U286 U 0.80901 0.80172 0.79458 0.0
O287 O 0.78722 0.81454 0.76416 0.0
O288 O 0.81107 0.83956 0.78569 0.0
C289 C 0.79458 0.83678 0.76816 0.0
C290 C 0.78495 0.79028 0.83221 0.0
C291 C 0.77573 0.85438 0.76695 0.0
C292 C 0.73835 0.87074 0.77975 0.0
C293 C 0.75595 0.85363 0.78175 0.0
C294 C 0.76033 0.88939 0.74834 0.0
C295 C 0.74025 0.88877 0.76284 0.0
C296 C 0.77777 0.8724 0.75036 0.0
C297 C 0.86417 0.78027 0.76238 0.0
C298 C 0.90368 0.79238 0.74743 0.0
C299 C 0.87448 0.76908 0.72232 0.0
C300 C 0.85811 0.76868 0.7405 0.0
C301 C 0.89748 0.78098 0.72546 0.0
C302 C 0.88725 0.79199 0.76566 0.0
C303 C 0.84706 0.77914 0.78205 0.0
O304 O 0.80321 0.80618 0.83276 0.0
O305 O 0.77934 0.78138 0.81088 0.0
O306 O 0.82451 0.77173 0.77637 0.0
O307 O 0.84849 0.79703 0.79734 0.0
H308 H 0.80818 0.74834 0.83846 0.0
H309 H 0.80319 0.72051 0.87138 0.0
H310 H 0.75438 0.76779 0.90321 0.0
H311 H 0.75925 0.795 0.87057 0.0
H312 H 0.72316 0.8697 0.79119 0.0
H313 H 0.7541 0.83983 0.79474 0.0
H314 H 0.76283 0.90328 0.73555 0.0
H315 H 0.79298 0.87339 0.7389 0.0
H316 H 0.92115 0.8018 0.75047 0.0
H317 H 0.86922 0.75964 0.70588 0.0
H318 H 0.84074 0.75907 0.7374 0.0
H319 H 0.89267 0.80083 0.78239 0.0
C320 C 0.28343 0.27462 0.35133 0.0
C321 C 0.29624 0.25375 0.35189 0.0
C322 C 0.27768 0.24247 0.38882 0.0
C323 C 0.29348 0.23781 0.37061 0.0
C324 C 0.26543 0.26371 0.38827 0.0
C325 C 0.26826 0.27952 0.36976 0.0
U326 U 0.30869 0.30317 0.29419 0.0
O327 O 0.28703 0.31604 0.26369 0.0
O328 O 0.31056 0.34106 0.28554 0.0
C329 C 0.29418 0.3383 0.26791 0.0
C330 C 0.28439 0.29134 0.33155 0.0
C331 C 0.27515 0.35571 0.26682 0.0
C332 C 0.23802 0.37204 0.28028 0.0
C333 C 0.25571 0.355 0.28204 0.0
C334 C 0.25919 0.39051 0.24826 0.0
C335 C 0.23947 0.38995 0.26322 0.0
C336 C 0.27672 0.37359 0.25002 0.0
C337 C 0.36446 0.28241 0.26255 0.0
C338 C 0.40546 0.29132 0.2495 0.0
C339 C 0.37426 0.27503 0.22148 0.0
C340 C 0.3575 0.27451 0.23933 0.0
C341 C 0.39849 0.28345 0.22626 0.0
C342 C 0.38867 0.29075 0.26741 0.0
C343 C 0.34708 0.28099 0.28194 0.0
O344 O 0.30252 0.30739 0.33231 0.0
O345 O 0.27902 0.28251 0.31015 0.0
O346 O 0.32464 0.27343 0.276 0.0
O347 O 0.34823 0.29882 0.29729 0.0
H348 H 0.30806 0.24966 0.33778 0.0
H349 H 0.3032 0.22165 0.37054 0.0
H350 H 0.25357 0.26817 0.40223 0.0
H351 H 0.2583 0.29556 0.36972 0.0
H352 H 0.22311 0.37104 0.29208 0.0
H353 H 0.25423 0.34132 0.29519 0.0
H354 H 0.26136 0.40431 0.23532 0.0
H355 H 0.29167 0.37455 0.23824 0.0
H356 H 0.42386 0.29809 0.25385 0.0
H357 H 0.36827 0.26834 0.20397 0.0
H358 H 0.33913 0.26766 0.23491 0.0
H359 H 0.39468 0.29675 0.28515 0.0
C360 C 0.46756 0.93741 0.50392 0.0
C361 C 0.49171 0.93058 0.50512 0.0
C362 C 0.48032 0.8957 0.48011 0.0
C363 C 0.49806 0.90995 0.49322 0.0
C364 C 0.45624 0.90286 0.47882 0.0
C365 C 0.44998 0.92347 0.49057 0.0
U366 U 0.4742 0.9857 0.55349 0.0
O367 O 0.46704 0.02362 0.55137 0.0
O368 O 0.4457 1.00059 0.57441 0.0
C369 C 0.44862 0.02174 0.5653 0.0
C370 C 0.46003 0.95879 0.51641 0.0
C371 C 0.42608 0.0333 0.55771 0.0
C372 C 0.39948 0.05086 0.52777 0.0
C373 C 0.42044 0.03876 0.5339 0.0
C374 C 0.38938 0.05183 0.569 0.0
C375 C 0.38369 0.05761 0.54528 0.0
C376 C 0.41028 0.03987 0.5751 0.0
C377 C 0.52803 0.98485 0.60074 0.0
C378 C 0.55799 0.01294 0.62009 0.0
C379 C 0.54623 0.97681 0.6399 0.0
C380 C 0.53018 0.97029 0.62063 0.0
C381 C 0.56074 0.99799 0.63965 0.0
C382 C 0.54185 1.00647 0.60087 0.0
C383 C 0.51334 0.97603 0.57932 0.0
O384 O 0.45193 0.95548 0.53768 0.0
O385 O 0.47429 0.97804 0.51513 0.0
O386 O 0.51382 0.98918 0.56031 0.0
O387 O 0.49167 0.96634 0.58278 0.0
H388 H 0.50558 0.94106 0.5154 0.0
H389 H 0.5167 0.90482 0.49477 0.0
H390 H 0.44219 0.89251 0.46866 0.0
H391 H 0.43127 0.92847 0.48933 0.0
H392 H 0.39559 0.05485 0.50932 0.0
H393 H 0.43229 0.03386 0.52008 0.0
H394 H 0.37797 0.05708 0.58306 0.0
H395 H 0.41431 0.03604 0.59358 0.0
H396 H 0.56865 0.02952 0.61943 0.0
H397 H 0.54804 0.96474 0.65451 0.0
H398 H 0.52 0.9534 0.62094 0.0
H399 H 0.54074 0.01815 0.58588 0.0
C400 C 0.21898 0.26845 0.68071 0.0
C401 C 0.24221 0.25932 0.68022 0.0
C402 C 0.23155 0.23966 0.64204 0.0
C403 C 0.24838 0.24503 0.66113 0.0
C404 C 0.2084 0.24894 0.64253 0.0
C405 C 0.20218 0.26307 0.66168 0.0
U406 U 0.22638 0.32122 0.72541 0.0
O407 O 0.19849 0.34285 0.74019 0.0
O408 O 0.22115 0.32177 0.76387 0.0
C409 C 0.20255 0.33535 0.76189 0.0
C410 C 0.21144 0.28262 0.7012 0.0
C411 C 0.18099 0.32751 0.77475 0.0
C412 C 0.1419 0.30582 0.77664 0.0
C413 C 0.16208 0.31304 0.76387 0.0
C414 C 0.15933 0.32739 0.81129 0.0
C415 C 0.14028 0.31283 0.80059 0.0
C416 C 0.17941 0.33465 0.7985 0.0
C417 C 0.28156 0.36657 0.72118 0.0
C418 C 0.31851 0.3833 0.74181 0.0
C419 C 0.29501 0.40791 0.71574 0.0
C420 C 0.27824 0.38876 0.71084 0.0
C421 C 0.31565 0.40525 0.73087 0.0
C422 C 0.30176 0.36422 0.73698 0.0
C423 C 0.26585 0.34537 0.71348 0.0
O424 O 0.22538 0.28248 0.72075 0.0
O425 O 0.20352 0.30366 0.69644 0.0
O426 O 0.24405 0.34901 0.70422 0.0
O427 O 0.26614 0.32694 0.72741 0.0
H428 H 0.25562 0.26312 0.6946 0.0
H429 H 0.26647 0.23844 0.66117 0.0
H430 H 0.19492 0.24498 0.62825 0.0
H431 H 0.18409 0.26968 0.66171 0.0
H432 H 0.12752 0.29483 0.7677 0.0
H433 H 0.16294 0.30731 0.74554 0.0
H434 H 0.15904 0.3328 0.82976 0.0
H435 H 0.19386 0.34573 0.80725 0.0
H436 H 0.33402 0.3807 0.7538 0.0
H437 H 0.29236 0.42448 0.70683 0.0
H438 H 0.26312 0.39114 0.69831 0.0
H439 H 0.30511 0.34739 0.74511 0.0
C440 C 0.79622 0.26514 0.67436 0.0
C441 C 0.8147 0.26643 0.65803 0.0
C442 C 0.7946 0.29794 0.63691 0.0
C443 C 0.81389 0.28265 0.63951 0.0
C444 C 0.77662 0.29712 0.65375 0.0
C445 C 0.77739 0.28088 0.67217 0.0
U446 U 0.81799 0.23175 0.73064 0.0
O447 O 0.79548 0.21651 0.75844 0.0
O448 O 0.81692 0.19344 0.73693 0.0
C449 C 0.80035 0.19466 0.75283 0.0
C450 C 0.79473 0.24625 0.69225 0.0
C451 C 0.77934 0.17727 0.75028 0.0
C452 C 0.75524 0.14634 0.72799 0.0
C453 C 0.77382 0.16423 0.7291 0.0
C454 C 0.74673 0.15488 0.76883 0.0
C455 C 0.74169 0.14122 0.74795 0.0
C456 C 0.76539 0.17263 0.76998 0.0
C457 C 0.87618 0.25219 0.76755 0.0
C458 C 0.88677 0.25344 0.81 0.0
C459 C 0.91817 0.24879 0.78208 0.0
C460 C 0.90075 0.24952 0.76324 0.0
C461 C 0.91146 0.2509 0.80574 0.0
C462 C 0.86935 0.25402 0.79117 0.0
C463 C 0.85833 0.25415 0.74724 0.0
O464 O 0.81097 0.22999 0.69193 0.0
O465 O 0.78972 0.25291 0.71381 0.0
O466 O 0.83654 0.2606 0.75218 0.0
O467 O 0.85788 0.23722 0.73095 0.0
H468 H 0.82947 0.25453 0.65915 0.0
H469 H 0.82816 0.28296 0.62699 0.0
H470 H 0.7613 0.30832 0.65213 0.0
H471 H 0.76275 0.2801 0.6843 0.0
H472 H 0.75166 0.13632 0.71157 0.0
H473 H 0.78415 0.16748 0.71355 0.0
H474 H 0.7369 0.15123 0.78462 0.0
H475 H 0.76935 0.18235 0.78653 0.0
H476 H 0.88088 0.2555 0.8279 0.0
H477 H 0.93689 0.24647 0.77805 0.0
H478 H 0.90654 0.24815 0.74522 0.0
H479 H 0.85059 0.25622 0.79517 0.0
C480 C 0.50643 0.54915 0.58611 0.0
C481 C 0.51856 0.54858 0.60857 0.0
C482 C 0.48016 0.53961 0.62722 0.0
C483 C 0.50558 0.54385 0.62887 0.0
C484 C 0.46823 0.53947 0.60461 0.0
C485 C 0.4812 0.54425 0.58436 0.0
U486 U 0.55422 0.54518 0.53764 0.0
O487 O 0.54923 0.55272 0.49949 0.0
O488 O 0.57595 0.57399 0.52193 0.0
C489 C 0.56454 0.57133 0.50099 0.0
C490 C 0.51906 0.55696 0.56472 0.0
C491 C 0.55635 0.59316 0.4896 0.0
C492 C 0.54736 0.63489 0.49142 0.0
C493 C 0.55286 0.61386 0.50286 0.0
C494 C 0.54776 0.61464 0.45335 0.0
C495 C 0.54511 0.63567 0.46647 0.0
C496 C 0.55339 0.59368 0.4648 0.0
C497 C 0.59954 0.49495 0.53715 0.0
C498 C 0.63967 0.47925 0.54342 0.0
C499 C 0.61572 0.46915 0.50733 0.0
C500 C 0.59719 0.48309 0.51498 0.0
C501 C 0.63705 0.46675 0.52161 0.0
C502 C 0.62111 0.49308 0.55111 0.0
C503 C 0.57918 0.5077 0.54688 0.0
O504 O 0.54162 0.56556 0.56779 0.0
O505 O 0.51542 0.54349 0.54555 0.0
O506 O 0.55846 0.5068 0.53428 0.0
O507 O 0.58472 0.52869 0.55662 0.0
H508 H 0.53798 0.55241 0.61061 0.0
H509 H 0.5154 0.54441 0.64596 0.0
H510 H 0.44877 0.53593 0.60254 0.0
H511 H 0.47135 0.5447 0.56731 0.0
H512 H 0.54574 0.65072 0.50215 0.0
H513 H 0.55498 0.614 0.52204 0.0
H514 H 0.54574 0.61439 0.43417 0.0
H515 H 0.55592 0.57792 0.45419 0.0
H516 H 0.65566 0.47759 0.55503 0.0
H517 H 0.61319 0.45998 0.49033 0.0
H518 H 0.58084 0.4841 0.50372 0.0
H519 H 0.62335 0.50181 0.56836 0.0
C520 C 0.50627 0.47709 0.93451 0.0
C521 C 0.50739 0.50031 0.92592 0.0
C522 C 0.48197 0.48758 0.89089 0.0
C523 C 0.49525 0.50553 0.90431 0.0
C524 C 0.48068 0.46449 0.89987 0.0
C525 C 0.49267 0.45935 0.9214 0.0
U526 U 0.55594 0.48519 0.98559 0.0
O527 O 0.5521 0.47793 0.02365 0.0
O528 O 0.57725 0.4581 1.00307 0.0
C529 C 0.56669 0.46026 0.02332 0.0
C530 C 0.51889 0.47065 0.95699 0.0
C531 C 0.55782 0.43781 0.03384 0.0
C532 C 0.54182 0.39698 0.02939 0.0
C533 C 0.54758 0.41901 0.01951 0.0
C534 C 0.55518 0.41251 0.06832 0.0
C535 C 0.54601 0.3933 0.05384 0.0
C536 C 0.56113 0.43452 0.05837 0.0
C537 C 0.60423 0.53799 0.98552 0.0
C538 C 0.62319 0.5677 0.01328 0.0
C539 C 0.64471 0.55551 0.97919 0.0
C540 C 0.62513 0.53977 0.97223 0.0
C541 C 0.64377 0.57008 0.99953 0.0
C542 C 0.60366 0.55187 1.00638 0.0
C543 C 0.58253 0.52353 0.97604 0.0
O544 O 0.54089 0.46311 0.95531 0.0
O545 O 0.51691 0.48489 0.97536 0.0
O546 O 0.5627 0.52389 0.98807 0.0
O547 O 0.58638 0.50241 0.96733 0.0
H548 H 0.5178 0.51429 0.93577 0.0
H549 H 0.4968 0.52344 0.8978 0.0
H550 H 0.47039 0.45032 0.89019 0.0
H551 H 0.49143 0.44136 0.92778 0.0
H552 H 0.53445 0.38266 0.0178 0.0
H553 H 0.54465 0.42114 1.00056 0.0
H554 H 0.55873 0.41024 0.08717 0.0
H555 H 0.56902 0.44879 0.06976 0.0
H556 H 0.62197 0.57842 0.02921 0.0
H557 H 0.66012 0.55704 0.96803 0.0
H558 H 0.62601 0.52952 0.95593 0.0
H559 H 0.58787 0.55104 0.01706 0.0
C560 C 0.71575 0.26784 0.33513 0.0
C561 C 0.73045 0.25733 0.35253 0.0
C562 C 0.73192 0.29359 0.37685 0.0
C563 C 0.73837 0.27003 0.3732 0.0
C564 C 0.71721 0.30403 0.35926 0.0
C565 C 0.70923 0.29126 0.33862 0.0
U566 U 0.71967 0.21678 0.29012 0.0
O567 O 0.69045 0.19511 0.27107 0.0
O568 O 0.71597 0.21705 0.25109 0.0
C569 C 0.69623 0.20298 0.25018 0.0
C570 C 0.7072 0.25471 0.31326 0.0
C571 C 0.67599 0.21024 0.23434 0.0
C572 C 0.64165 0.23453 0.22508 0.0
C573 C 0.66061 0.22807 0.24081 0.0
C574 C 0.65329 0.20535 0.19647 0.0
C575 C 0.63788 0.22335 0.2026 0.0
C576 C 0.6721 0.19892 0.21214 0.0
C577 C 0.7702 0.17237 0.30013 0.0
C578 C 0.78583 0.14645 0.27024 0.0
C579 C 0.79967 0.14337 0.31137 0.0
C580 C 0.78451 0.1614 0.31755 0.0
C581 C 0.80093 0.13598 0.28755 0.0
C582 C 0.77061 0.16445 0.27646 0.0
C583 C 0.7564 0.19299 0.30682 0.0
O584 O 0.72221 0.2555 0.29588 0.0
O585 O 0.69717 0.23342 0.3162 0.0
O586 O 0.73389 0.18855 0.31271 0.0
O587 O 0.75888 0.21164 0.29337 0.0
H588 H 0.73571 0.23927 0.35017 0.0
H589 H 0.7493 0.26122 0.38647 0.0
H590 H 0.71211 0.32217 0.36127 0.0
H591 H 0.69798 0.29972 0.32532 0.0
H592 H 0.63024 0.24855 0.23033 0.0
H593 H 0.66335 0.23704 0.2579 0.0
H594 H 0.65071 0.19603 0.17956 0.0
H595 H 0.68367 0.18503 0.20688 0.0
H596 H 0.78604 0.14098 0.25178 0.0
H597 H 0.81116 0.13592 0.32513 0.0
H598 H 0.7845 0.16729 0.33591 0.0
H599 H 0.75963 0.17257 0.26273 0.0
C600 C 0.47954 0.08432 0.0182 0.0
C601 C 0.47977 0.10654 1.0073 0.0
C602 C 0.49192 0.12642 0.04511 0.0
C603 C 0.48591 0.12733 0.0206 0.0
C604 C 0.49245 0.10409 0.05574 0.0
C605 C 0.48626 0.08334 0.04246 0.0
U606 U 0.47911 0.03491 0.96909 0.0
O607 O 0.47156 0.99659 0.97254 0.0
O608 O 0.44732 0.01711 0.94986 0.0
C609 C 0.45098 0.99661 0.95977 0.0
C610 C 0.47016 0.06231 1.00544 0.0
C611 C 0.4295 0.98397 0.96952 0.0
C612 C 0.4111 0.95956 0.99975 0.0
C613 C 0.43072 0.97359 0.99201 0.0
C614 C 0.38821 0.96674 0.96317 0.0
C615 C 0.38976 0.95561 0.98526 0.0
C616 C 0.4079 0.98065 0.95535 0.0
C617 C 0.52842 0.03564 0.92206 0.0
C618 C 0.54443 0.04203 0.88299 0.0
C619 C 0.55453 1.00708 0.90477 0.0
C620 C 0.54033 0.01422 0.92327 0.0
C621 C 0.55715 0.02111 0.88458 0.0
C622 C 0.53034 0.04924 0.90155 0.0
C623 C 0.51612 0.04528 0.94273 0.0
O624 O 0.46001 0.06448 0.98407 0.0
O625 O 0.48359 0.04381 1.0073 0.0
O626 O 0.51797 0.0336 0.96264 0.0
O627 O 0.49443 0.0534 0.93856 0.0
H628 H 0.47455 0.10798 0.98866 0.0
H629 H 0.48501 0.14417 0.01181 0.0
H630 H 0.49735 0.10261 0.07444 0.0
H631 H 0.48612 0.06649 0.05136 0.0
H632 H 0.41279 0.95147 0.01698 0.0
H633 H 0.44702 0.97579 1.00345 0.0
H634 H 0.37216 0.96388 0.95147 0.0
H635 H 0.4065 0.98827 0.93788 0.0
H636 H 0.54623 0.05344 0.86787 0.0
H637 H 0.56383 0.99073 0.90647 0.0
H638 H 0.53929 1.00326 0.93879 0.0
H639 H 0.52159 0.06593 0.9002 0.0
Mg640 Mg 0.25544 0.86983 0.0162 0.0
O641 O 0.29171 0.89113 1.0098 0.0
O642 O 0.32027 0.86443 1.00972 0.0
Mg643 Mg 0.30349 0.8273 0.01549 0.0
C644 C 0.31384 0.88576 1.00804 0.0
C645 C 0.20955 0.89721 1.00504 0.0
O646 O 0.20161 0.8749 1.00367 0.0
O647 O 0.25324 0.85559 0.97756 0.0
O648 O 0.28172 0.82879 0.97974 0.0
O649 O 0.26204 0.87228 0.05583 0.0
O650 O 0.27399 0.84316 0.03364 0.0
C651 C 0.26495 0.83915 0.96815 0.0
C652 C 0.27298 0.85263 0.05441 0.0
O653 O 0.23231 0.90184 1.00826 0.0
Mg654 Mg 0.15733 0.51997 0.27222 0.0
O655 O 0.13339 0.51657 0.23699 0.0
O656 O 0.15897 0.51914 0.20753 0.0
Mg657 Mg 0.1981 0.52349 0.22266 0.0
C658 C 0.13746 0.51679 0.21483 0.0
C659 C 0.12897 0.50944 0.31704 0.0
O660 O 0.15175 0.51084 0.32509 0.0
O661 O 0.16931 0.48141 0.26817 0.0
O662 O 0.19477 0.48643 0.23869 0.0
O663 O 0.15812 0.55989 0.27188 0.0
O664 O 0.18531 0.53872 0.2554 0.0
C665 C 0.18458 0.47338 0.25403 0.0
C666 C 0.17766 0.55928 0.26015 0.0
O667 O 0.12452 0.51058 0.29474 0.0
Mg668 Mg 0.77667 0.66547 0.02546 0.0
O669 O 0.74076 0.64195 0.01956 0.0
O670 O 0.71064 0.66695 0.01813 0.0
Mg671 Mg 0.72593 0.70516 0.02223 0.0
C672 C 0.71811 0.64594 0.01746 0.0
C673 C 0.82315 0.6384 0.01772 0.0
O674 O 0.83104 0.66074 0.01777 0.0
O675 O 0.77522 0.67691 0.98614 0.0
O676 O 0.74489 0.70169 0.9871 0.0
O677 O 0.77328 0.66616 0.0652 0.0
O678 O 0.75804 0.69261 0.04144 0.0
C679 C 0.76141 0.6917 0.97604 0.0
C680 C 0.76111 0.685 0.06265 0.0
O681 O 0.80044 0.63371 0.01905 0.0
Mg682 Mg 0.91254 0.03465 0.25668 0.0
O683 O 0.88923 0.99961 0.24911 0.0
O684 O 0.91529 0.97233 0.2398 0.0
Mg685 Mg 0.95403 0.98881 0.24058 0.0
C686 C 0.89372 0.97835 0.24325 0.0
C687 C 0.87601 0.07296 0.26167 0.0
O688 O 0.8904 0.07998 0.24498 0.0
O689 O 0.92656 0.02082 0.29314 0.0
O690 O 0.95244 0.99452 0.28086 0.0
O691 O 0.91045 0.04387 0.21794 0.0
O692 O 0.93958 0.02364 0.2343 0.0
C693 C 0.94251 1.00554 0.2975 0.0
C694 C 0.93011 0.03276 0.21553 0.0
O695 O 0.87999 0.05339 0.27175 0.0
Mg696 Mg 0.27751 0.16579 0.52424 0.0
O697 O 0.2421 0.14148 0.51829 0.0
O698 O 0.21149 0.16593 0.51702 0.0
Mg699 Mg 0.22585 0.20442 0.52122 0.0
C700 C 0.21936 0.14509 0.51625 0.0
C701 C 0.30183 0.11733 0.53133 0.0
O702 O 0.2851 0.11611 0.54713 0.0
O703 O 0.27568 0.17739 0.485 0.0
O704 O 0.24485 0.20156 0.48604 0.0
O705 O 0.27428 0.16638 0.56406 0.0
O706 O 0.25823 0.19238 0.54033 0.0
C707 C 0.26156 0.19194 0.47495 0.0
C708 C 0.26163 0.1849 0.56154 0.0
O709 O 0.30245 0.13495 0.51752 0.0
Mg710 Mg 0.41137 0.53575 0.75597 0.0
O711 O 0.38799 0.50084 0.74788 0.0
O712 O 0.41415 0.47368 0.73847 0.0
Mg713 Mg 0.45287 0.49019 0.7391 0.0
C714 C 0.39256 0.47962 0.74192 0.0
C715 C 0.36244 0.56138 0.75787 0.0
O716 O 0.36298 0.55602 0.73518 0.0
O717 O 0.42555 0.52131 0.79208 0.0
O718 O 0.45173 0.49547 0.77948 0.0
O719 O 0.40949 0.54596 0.71743 0.0
O720 O 0.43826 0.52502 0.73339 0.0
C721 C 0.44174 0.50622 0.79624 0.0
C722 C 0.42899 0.53465 0.71481 0.0
O723 O 0.37914 0.55415 0.77196 0.0
Mg724 Mg 0.75397 0.36942 0.51536 0.0
O725 O 0.79029 0.39051 0.50859 0.0
O726 O 0.81866 0.36364 0.50827 0.0
Mg727 Mg 0.80175 0.32661 0.51426 0.0
C728 C 0.81235 0.38501 0.50662 0.0
C729 C 0.70815 0.39704 0.50446 0.0
O730 O 0.70008 0.37476 0.50307 0.0
O731 O 0.75129 0.35508 0.47673 0.0
O732 O 0.77966 0.32816 0.47872 0.0
O733 O 0.76098 0.37189 0.55495 0.0
O734 O 0.77254 0.34267 0.53267 0.0
C735 C 0.76284 0.33856 0.46725 0.0
C736 C 0.77179 0.35217 0.55345 0.0
O737 O 0.73093 0.40155 0.50759 0.0
Mg738 Mg 0.65769 0.01863 0.77016 0.0
O739 O 0.63391 0.01495 0.73484 0.0
O740 O 0.65965 0.01732 0.70551 0.0
Mg741 Mg 0.6987 0.02203 0.7208 0.0
C742 C 0.63809 0.01497 0.71271 0.0
C743 C 0.62935 1.00738 0.81487 0.0
O744 O 0.65215 1.00818 0.82284 0.0
O745 O 0.66988 0.98012 0.76642 0.0
O746 O 0.69552 0.98508 0.73709 0.0
O747 O 0.65828 0.05854 0.7696 0.0
O748 O 0.68566 0.03742 0.75336 0.0
C749 C 0.6853 0.97208 0.75245 0.0
C750 C 0.67788 0.05796 0.75797 0.0
O751 O 0.62486 1.00918 0.79264 0.0
Mg752 Mg 0.03853 0.26877 0.9078 0.0
O753 O 1.00417 0.26128 0.88317 0.0
O754 O 0.97483 0.24749 0.90597 0.0
Mg755 Mg 0.98999 0.24537 0.94441 0.0
C756 C 0.98228 0.25357 0.88576 0.0
C757 C 0.06465 0.27674 0.86066 0.0
O758 O 0.05761 0.2542 0.85885 0.0
O759 O 0.0223 0.30241 0.92294 0.0
O760 O 0.99514 0.28612 0.94681 0.0
O761 O 0.04995 0.23136 0.90364 0.0
O762 O 0.02673 0.24289 0.93174 0.0
C763 C 1.00637 0.30432 0.93855 0.0
C764 C 0.03749 0.22597 0.9218 0.0
O765 O 0.05828 0.28875 0.8784 0.0
Mg766 Mg 0.53837 0.77052 0.40926 0.0
O767 O 0.50439 0.7624 0.38417 0.0
O768 O 0.47504 0.74756 0.40641 0.0
Mg769 Mg 0.48956 0.74618 0.44504 0.0
C770 C 0.48266 0.75399 0.38637 0.0
C771 C 0.5642 0.77868 0.36207 0.0
O772 O 0.55678 0.75625 0.36012 0.0
O773 O 0.52127 0.80384 0.42405 0.0
O774 O 0.49326 0.78703 0.44669 0.0
O775 O 0.55049 0.7334 0.40527 0.0
O776 O 0.52668 0.74447 0.43308 0.0
C777 C 0.50444 0.80542 0.43876 0.0
C778 C 0.53785 0.72777 0.42323 0.0
O779 O 0.55815 0.79065 0.37998 0.0
Mg780 Mg 1.00192 0.75628 0.61716 0.0
O781 O 0.03806 0.74874 0.63803 0.0
O782 O 0.06426 0.73981 0.61067 0.0
Mg783 Mg 0.04586 0.74077 0.57351 0.0
C784 C 0.05919 0.74299 0.6323 0.0
C785 C 0.96214 0.77357 0.64763 0.0
O786 O 0.95197 0.76991 0.62626 0.0
O787 O 0.01766 0.79279 0.60536 0.0
O788 O 0.04257 0.78106 0.57785 0.0
O789 O 0.98989 0.71781 0.61737 0.0
O790 O 1.01049 0.73395 0.58881 0.0
C791 C 0.03271 0.79746 0.58926 0.0
C792 C 1.00036 0.71523 0.59754 0.0
O793 O 0.98488 0.77094 0.65058 0.0
Mg794 Mg 0.50314 0.25619 0.11886 0.0
O795 O 0.53971 0.2492 0.13925 0.0
O796 O 0.56551 0.24113 0.11125 0.0
Mg797 Mg 0.54645 0.24131 0.07431 0.0
C798 C 0.56085 0.24403 0.13303 0.0
C799 C 0.46421 0.27599 0.1493 0.0
O800 O 0.4544 0.27494 0.1276 0.0
O801 O 0.51811 0.29298 0.10671 0.0
O802 O 0.5415 0.28132 0.07791 0.0
O803 O 0.49157 0.21742 0.11904 0.0
O804 O 0.5117 0.23398 0.09045 0.0
C805 C 0.53187 0.2977 0.08955 0.0
C806 C 0.5019 0.21509 0.0991 0.0
O807 O 0.4863 0.27072 0.15243 0.0
C808 C 0.26629 0.80465 0.9101 0.0
C809 C 0.24314 0.80799 0.89956 0.0
H810 H 0.29136 0.81203 0.93962 0.0
C811 C 0.22794 0.82347 0.91091 0.0
H812 H 0.27876 0.79339 0.90166 0.0
C813 C 0.23536 0.83453 0.93268 0.0
C814 C 0.25808 0.83026 0.94367 0.0
H815 H 0.20993 0.82638 0.90344 0.0
H816 H 0.22289 0.84566 0.94133 0.0
C817 C 0.2736 0.81554 0.93185 0.0
C818 C 0.09701 0.51014 0.37505 0.0
C819 C 0.07374 0.5172 0.36791 0.0
H820 H 0.13247 0.50201 0.36467 0.0
C821 C 0.06814 0.51974 0.3435 0.0
H822 H 0.10209 0.50824 0.39367 0.0
C823 C 0.08564 0.51606 0.32676 0.0
C824 C 0.10923 0.51001 0.33407 0.0
H825 H 0.05032 0.52492 0.33737 0.0
H826 H 0.08095 0.51882 0.30819 0.0
C827 C 0.11451 0.50667 0.35838 0.0
C828 C 0.79299 0.7143 0.9218 0.0
C829 C 0.77373 0.72494 0.90944 0.0
H830 H 0.80422 0.69502 0.95268 0.0
C831 C 0.75011 0.7211 0.91734 0.0
H832 H 0.81139 0.71688 0.91615 0.0
C833 C 0.74605 0.70877 0.93811 0.0
C834 C 0.76546 0.69968 0.95153 0.0
H835 H 0.73476 0.72847 0.90791 0.0
H836 H 0.72774 0.70724 0.94424 0.0
C837 C 0.78887 0.70173 0.94268 0.0
C838 C 0.9592 0.01253 0.36378 0.0
C839 C 0.97102 0.99143 0.36831 0.0
H840 H 0.94035 0.03345 0.33797 0.0
C841 C 0.97219 0.97481 0.34967 0.0
H842 H 0.95785 0.02563 0.37781 0.0
C843 C 0.9623 0.97928 0.32706 0.0
C844 C 0.95076 1.00044 0.32232 0.0
H845 H 0.98136 0.95851 0.35239 0.0
H846 H 0.96401 0.96614 0.31313 0.0
C847 C 0.94898 0.01691 0.34104 0.0
C848 C 0.25141 0.20435 0.62496 0.0
C849 C 0.23822 0.22479 0.6215 0.0
H850 H 0.26875 0.17547 0.60883 0.0
C851 C 0.2318 0.23122 0.59816 0.0
H852 H 0.25642 0.19874 0.64271 0.0
C853 C 0.23885 0.21791 0.57878 0.0
C854 C 0.25234 0.19768 0.58219 0.0
H855 H 0.2219 0.24698 0.59482 0.0
H856 H 0.23416 0.22388 0.56112 0.0
C857 C 0.25831 0.1909 0.60554 0.0
C858 C 0.44354 0.54693 0.65092 0.0
C859 C 0.46607 0.53657 0.64906 0.0
H860 H 0.41415 0.5543 0.67291 0.0
C861 C 0.47542 0.52419 0.66862 0.0
H862 H 0.43587 0.55688 0.6364 0.0
C863 C 0.46298 0.52286 0.68967 0.0
C864 C 0.44083 0.53381 0.69171 0.0
H865 H 0.4925 0.51568 0.66778 0.0
H866 H 0.47108 0.51372 0.70453 0.0
C867 C 0.43109 0.54555 0.67194 0.0
C868 C 0.7833 0.3362 0.6179 0.0
C869 C 0.79205 0.31334 0.6158 0.0
H870 H 0.7704 0.36657 0.59992 0.0
C871 C 0.79643 0.30451 0.59306 0.0
H872 H 0.78004 0.34369 0.63517 0.0
C873 C 0.79099 0.31765 0.57286 0.0
C874 C 0.7811 0.34 0.5749 0.0
H875 H 0.80292 0.2869 0.59072 0.0
H876 H 0.79359 0.3098 0.55562 0.0
C877 C 0.77792 0.34939 0.59769 0.0
C878 C 0.60317 0.01212 0.65296 0.0
C879 C 0.5799 1.00359 0.65882 0.0
H880 H 0.6395 0.02233 0.66511 0.0
C881 C 0.5756 0.99956 0.68287 0.0
H882 H 0.6073 0.01511 0.63464 0.0
C883 C 0.59421 1.00375 0.70053 0.0
C884 C 0.61764 0.01179 0.69451 0.0
H885 H 0.55783 0.99314 0.68803 0.0
H886 H 0.59037 1.00024 0.71882 0.0
C887 C 0.62175 0.01609 0.6705 0.0
C888 C 0.92457 0.24 0.84741 0.0
C889 C 0.93007 0.25081 0.8259 0.0
H890 H 0.93653 0.23232 0.88292 0.0
C891 C 0.95332 0.26191 0.82403 0.0
H892 H 0.90709 0.23087 0.84944 0.0
C893 C 0.97043 0.26246 0.84324 0.0
C894 C 0.96468 0.25208 0.86488 0.0
H895 H 0.95818 0.27069 0.80789 0.0
H896 H 0.988 0.27145 0.84124 0.0
C897 C 0.94157 0.24071 0.86663 0.0
C898 C 0.50774 0.87111 0.45607 0.0
C899 C 0.48646 0.87293 0.46865 0.0
H900 H 0.52998 0.84853 0.43635 0.0
C901 C 0.47094 0.85262 0.47048 0.0
H902 H 0.51998 0.88647 0.45417 0.0
C903 C 0.47663 0.83101 0.46035 0.0
C904 C 0.49797 0.82902 0.44794 0.0
H905 H 0.45456 0.85326 0.48025 0.0
H906 H 0.4643 0.81575 0.46249 0.0
C907 C 0.51336 0.84942 0.44569 0.0
C908 C 0.10989 0.31908 0.83198 0.0
C909 C 0.11937 0.30435 0.81467 0.0
H910 H 0.08513 0.3221 0.8599 0.0
C911 C 0.10937 0.28105 0.81166 0.0
H912 H 0.11679 0.33726 0.83454 0.0
C913 C 0.09102 0.27248 0.82601 0.0
C914 C 0.08219 0.28691 0.84387 0.0
H915 H 0.1163 0.26906 0.79877 0.0
H916 H 0.08428 0.25423 0.82352 0.0
C917 C 0.09157 0.31045 0.84642 0.0
C918 C 0.55341 0.664 0.43341 0.0
C919 C 0.54133 0.65856 0.4542 0.0
H920 H 0.56159 0.68985 0.40726 0.0
C921 C 0.52662 0.67563 0.4637 0.0
H922 H 0.56517 0.65151 0.4257 0.0
C923 C 0.52475 0.6978 0.45318 0.0
C924 C 0.53746 0.70343 0.43284 0.0
H925 H 0.51673 0.67199 0.47945 0.0
H926 H 0.51382 0.71072 0.46137 0.0
C927 C 0.55145 0.6861 0.42285 0.0
C928 C 0.93981 0.77837 0.71035 0.0
C929 C 0.91478 0.78119 0.70584 0.0
H930 H 0.9745 0.77383 0.69561 0.0
C931 C 0.90614 0.78336 0.68217 0.0
H932 H 0.94712 0.77652 0.72834 0.0
C933 C 0.92176 0.78175 0.66351 0.0
C934 C 0.94656 0.77798 0.6679 0.0
H935 H 0.88714 0.78609 0.67799 0.0
H936 H 0.9142 0.78299 0.64554 0.0
C937 C 0.95552 0.77678 0.69159 0.0
C938 C 0.06436 0.85055 0.56154 0.0
C939 C 0.04836 0.86867 0.56523 0.0
H940 H 0.07208 0.81424 0.56631 0.0
C941 C 0.02751 0.86348 0.57803 0.0
H942 H 0.08044 0.8538 0.55157 0.0
C943 C 0.02274 0.84062 0.58674 0.0
C944 C 0.03853 0.8224 0.58248 0.0
H945 H 0.01491 0.8771 0.58131 0.0
H946 H 1.00637 0.83706 0.5962 0.0
C947 C 0.05948 0.82777 0.56994 0.0
C948 C 0.12096 0.73254 0.66185 0.0
C949 C 0.11598 0.73172 0.68602 0.0
H950 H 0.10724 0.73667 0.62623 0.0
C951 C 0.09206 0.73504 0.69254 0.0
H952 H 0.13904 0.72969 0.65609 0.0
C953 C 0.07361 0.73906 0.67526 0.0
C954 C 0.07861 0.7396 0.65105 0.0
H955 H 0.08762 0.73467 0.71101 0.0
H956 H 0.05539 0.74147 0.68087 0.0
C957 C 0.10258 0.73637 0.64465 0.0
C958 C 1.00334 0.66865 0.54853 0.0
C959 C 0.99165 0.64878 0.55856 0.0
H960 H 0.01536 0.70522 0.55295 0.0
C961 C 0.98499 0.65048 0.58227 0.0
H962 H 1.00861 0.66805 0.5303 0.0
C963 C 0.98876 0.67178 0.59519 0.0
C964 C 0.9994 0.69195 0.58482 0.0
H965 H 0.97644 0.63541 0.59078 0.0
H966 H 0.98272 0.67257 0.61315 0.0
C967 C 1.00716 0.69001 0.56151 0.0
C968 C 0.86045 0.91811 0.23463 0.0
C969 C 0.83594 0.92359 0.23543 0.0
H970 H 0.89757 0.9308 0.23634 0.0
C971 C 0.83045 0.94743 0.23877 0.0
H972 H 0.86538 0.90003 0.23167 0.0
C973 C 0.84907 0.9653 0.24145 0.0
C974 C 0.8736 0.95974 0.2406 0.0
H975 H 0.81176 0.95225 0.23956 0.0
H976 H 0.84424 0.98346 0.24408 0.0
C977 C 0.87896 0.93588 0.23713 0.0
C978 C 0.83257 0.12288 0.26038 0.0
C979 C 0.81915 0.11878 0.28058 0.0
H980 H 0.86073 0.11185 0.23875 0.0
C981 C 0.82416 0.09887 0.29439 0.0
H982 H 0.82956 0.13818 0.24952 0.0
C983 C 0.84227 0.0836 0.2882 0.0
C984 C 0.85593 0.08807 0.26819 0.0
H985 H 0.81407 0.09509 0.31 0.0
H986 H 0.84582 0.06855 0.29925 0.0
C987 C 0.85067 0.10781 0.25432 0.0
C988 C 0.34534 0.94348 0.98889 0.0
C989 C 0.37001 0.93857 0.99239 0.0
H990 H 0.30818 0.93087 0.99141 0.0
C991 C 0.37585 0.91664 1.0019 0.0
H992 H 0.34025 0.96028 0.98172 0.0
C993 C 0.35759 0.89983 1.00727 0.0
C994 C 0.33291 0.9045 1.0035 0.0
H995 H 0.39461 0.91213 1.00455 0.0
H996 H 0.3629 0.88299 0.01421 0.0
C997 C 0.32698 0.92669 0.99457 0.0
C998 C 0.21418 0.41697 0.23855 0.0
C999 C 0.22114 0.40851 0.26105 0.0
H1000 H 0.19686 0.4439 0.21877 0.0
C1001 C 0.21213 0.41944 0.28122 0.0
H1002 H 0.2201 0.40862 0.22257 0.0
C1003 C 0.19819 0.4395 0.27895 0.0
C1004 C 0.1932 0.44907 0.2565 0.0
H1005 H 0.21711 0.41343 0.29883 0.0
H1006 H 0.19291 0.44851 0.29483 0.0
C1007 C 0.20061 0.43707 0.23633 0.0
C1008 C 0.18993 0.0838 0.5008 0.0
C1009 C 0.16519 0.08752 0.50379 0.0
H1010 H 0.22657 0.09886 0.50272 0.0
C1011 C 0.15877 0.10996 0.51162 0.0
H1012 H 0.19551 0.06668 0.4949 0.0
C1013 C 0.17642 0.12832 0.51593 0.0
C1014 C 0.20113 0.12481 0.5127 0.0
H1015 H 0.13992 0.11361 0.51381 0.0
H1016 H 0.17058 0.14542 0.52163 0.0
C1017 C 0.20773 0.1022 0.50539 0.0
C1018 C 0.70153 0.12221 0.75896 0.0
C1019 C 0.72361 0.12068 0.74769 0.0
H1020 H 0.6695 0.10373 0.77063 0.0
C1021 C 0.72916 0.09878 0.7377 0.0
H1022 H 0.69655 0.13888 0.76659 0.0
C1023 C 0.71368 0.07866 0.74001 0.0
C1024 C 0.69215 0.07994 0.75222 0.0
H1025 H 0.7461 0.09689 0.7291 0.0
H1026 H 0.71916 0.06192 0.73303 0.0
C1027 C 0.68593 0.10209 0.76112 0.0
C1028 C 0.36259 0.08992 0.52308 0.0
C1029 C 0.36172 0.07122 0.53928 0.0
H1030 H 0.34439 0.11908 0.50769 0.0
C1031 C 0.34005 0.06656 0.5509 0.0
H1032 H 0.37899 0.09413 0.51388 0.0
C1033 C 0.3203 0.08089 0.54744 0.0
C1034 C 0.32158 0.1003 0.53218 0.0
H1035 H 0.33848 0.05202 0.5631 0.0
H1036 H 0.30424 0.07711 0.55729 0.0
C1037 C 0.34275 0.10429 0.51957 0.0
C1038 C 0.64847 0.42744 0.50518 0.0
C1039 C 0.65569 0.44999 0.51468 0.0
H1040 H 0.65927 0.39326 0.49436 0.0
C1041 C 0.68069 0.4557 0.51883 0.0
H1042 H 0.62941 0.4223 0.50197 0.0
C1043 C 0.69794 0.43896 0.51439 0.0
C1044 C 0.69055 0.41605 0.50591 0.0
H1045 H 0.68692 0.47299 0.52588 0.0
H1046 H 0.71696 0.44369 0.51845 0.0
C1047 C 0.66564 0.4107 0.50091 0.0
C1048 C 0.7252 0.32233 0.41051 0.0
C1049 C 0.74045 0.30703 0.39898 0.0
H1050 H 0.7203 0.34451 0.44098 0.0
C1051 C 0.76381 0.30407 0.40919 0.0
H1052 H 0.70703 0.32496 0.40327 0.0
C1053 C 0.7713 0.31511 0.43082 0.0
C1054 C 0.75574 0.32961 0.44284 0.0
H1055 H 0.77632 0.29297 0.40058 0.0
H1056 H 0.78923 0.31187 0.43834 0.0
C1057 C 0.73279 0.33355 0.43216 0.0
C1058 C 0.5689 0.01822 0.84187 0.0
C1059 C 0.57452 0.01501 0.86617 0.0
H1060 H 0.58157 0.01788 0.80648 0.0
C1061 C 0.59762 1.00731 0.87301 0.0
H1062 H 0.55121 0.02391 0.83595 0.0
C1063 C 0.61497 1.00388 0.85618 0.0
C1064 C 0.60969 1.00791 0.83199 0.0
H1065 H 0.60272 1.00489 0.89155 0.0
H1066 H 0.63282 0.99873 0.86227 0.0
C1067 C 0.58625 0.01458 0.82495 0.0
C1068 C 0.29288 0.21511 0.4208 0.0
C1069 C 0.27351 0.2256 0.40848 0.0
H1070 H 0.30433 0.19583 0.4516 0.0
C1071 C 0.24991 0.2215 0.41637 0.0
H1072 H 0.31127 0.21789 0.41516 0.0
C1073 C 0.24599 0.20905 0.43711 0.0
C1074 C 0.26551 0.20011 0.45048 0.0
H1075 H 0.23448 0.22873 0.40697 0.0
H1076 H 0.22769 0.20731 0.44324 0.0
C1077 C 0.28891 0.20242 0.44163 0.0
C1078 C 0.47296 0.47631 0.84813 0.0
C1079 C 0.47057 0.49237 0.86702 0.0
H1080 H 0.46565 0.46795 0.81141 0.0
C1081 C 0.45755 0.5128 0.86272 0.0
H1082 H 0.48308 0.46054 0.85067 0.0
C1083 C 0.44732 0.51707 0.83997 0.0
C1084 C 0.45023 0.50116 0.82101 0.0
H1085 H 0.45523 0.52545 0.87695 0.0
H1086 H 0.4377 0.53309 0.83712 0.0
C1087 C 0.46302 0.48065 0.82551 0.0
C1088 C 0.73183 0.73174 0.09922 0.0
C1089 C 0.7378 0.72502 0.12256 0.0
H1090 H 0.73454 0.7246 0.06217 0.0
C1091 C 0.75052 0.70429 0.12603 0.0
H1092 H 0.72229 0.74773 0.09587 0.0
C1093 C 0.75741 0.69084 0.10661 0.0
C1094 C 0.75189 0.69789 0.08327 0.0
H1095 H 0.75517 0.69846 0.14378 0.0
H1096 H 0.76748 0.67518 0.10992 0.0
C1097 C 0.73888 0.71843 0.07984 0.0
C1098 C 0.94424 0.04435 0.15144 0.0
C1099 C 0.96706 0.03454 0.14973 0.0
H1100 H 0.91467 0.05131 0.17332 0.0
C1101 C 0.97677 0.02267 0.16947 0.0
H1102 H 0.93628 0.05391 0.13678 0.0
C1103 C 0.96437 0.02132 0.19055 0.0
C1104 C 0.94193 0.03176 0.19243 0.0
H1105 H 0.9941 0.0146 0.16874 0.0
H1106 H 0.97273 0.01259 0.20555 0.0
C1107 C 0.93185 0.04296 0.17249 0.0
C1108 C 0.28383 0.83659 0.11891 0.0
C1109 C 0.29274 0.81379 0.11688 0.0
H1110 H 0.27097 0.86692 0.10083 0.0
C1111 C 0.29746 0.80504 0.09419 0.0
H1112 H 0.28031 0.84402 0.13614 0.0
C1113 C 0.29219 0.81819 0.07397 0.0
C1114 C 0.28213 0.84047 0.07592 0.0
H1115 H 0.30408 0.78747 0.09191 0.0
H1116 H 0.29504 0.8104 0.05675 0.0
C1117 C 0.27862 0.84979 0.09867 0.0
C1118 C 0.10216 0.51537 0.15533 0.0
C1119 C 0.07924 0.5057 0.16099 0.0
H1120 H 0.13823 0.52638 0.16766 0.0
C1121 C 0.07523 0.50054 0.18487 0.0
H1122 H 0.10605 0.51926 0.13714 0.0
C1123 C 0.09381 0.50471 0.20257 0.0
C1124 C 0.11693 0.51381 0.19672 0.0
H1125 H 0.05773 0.49319 0.18985 0.0
H1126 H 0.09024 0.50028 0.22071 0.0
C1127 C 0.12073 0.51927 0.17289 0.0
C1128 C 0.45377 0.76294 0.32474 0.0
C1129 C 0.43092 0.75088 0.32616 0.0
H1130 H 0.48801 0.77333 0.34242 0.0
C1131 C 0.42579 0.73909 0.34725 0.0
H1132 H 0.45832 0.77248 0.30894 0.0
C1133 C 0.4427 0.73984 0.36654 0.0
C1134 C 0.46535 0.75224 0.36529 0.0
H1135 H 0.40866 0.72919 0.3489 0.0
H1136 H 0.43792 0.73072 0.38253 0.0
C1137 C 0.4708 0.76354 0.34402 0.0
C1138 C 1.00749 0.37119 0.94998 0.0
C1139 C 0.99274 0.37267 0.96958 0.0
H1140 H 0.02355 0.34855 0.92481 0.0
C1141 C 0.9821 0.35165 0.97826 0.0
H1142 H 0.01602 0.38706 0.9429 0.0
C1143 C 0.98624 0.32972 0.96787 0.0
C1144 C 1.0013 0.32806 0.94852 0.0
H1145 H 0.97031 0.35214 0.99304 0.0
H1146 H 0.97774 0.31399 0.97527 0.0
C1147 C 1.01184 0.34911 0.93964 0.0
C1148 C 0.60863 0.78262 0.31281 0.0
C1149 C 0.61911 0.80572 0.31601 0.0
H1150 H 0.5831 0.75615 0.32454 0.0
C1151 C 0.61005 0.82048 0.33353 0.0
H1152 H 0.61524 0.77061 0.29975 0.0
C1153 C 0.59165 0.81206 0.34799 0.0
C1154 C 0.5818 0.7887 0.34526 0.0
H1155 H 0.61733 0.83852 0.33624 0.0
H1156 H 0.58554 0.82372 0.36165 0.0
C1157 C 0.59021 0.77426 0.32719 0.0
C1158 C 0.02635 0.17434 0.9629 0.0
C1159 C 0.04081 0.15705 0.95342 0.0
H1160 H 0.01377 0.2095 0.96035 0.0
C1161 C 0.05263 0.16215 0.9324 0.0
H1162 H 0.01665 0.17096 0.97883 0.0
C1163 C 0.05069 0.18415 0.92161 0.0
C1164 C 0.03697 0.20171 0.93159 0.0
H1165 H 0.06419 0.14949 0.92469 0.0
H1166 H 0.06064 0.18765 0.90586 0.0
C1167 C 0.02449 0.1964 0.95215 0.0
C1168 C 0.44047 0.27738 0.2116 0.0
C1169 C 0.41629 0.28361 0.20706 0.0
H1170 H 0.47468 0.27022 0.19706 0.0
C1171 C 0.40891 0.28915 0.18368 0.0
H1172 H 0.44681 0.27285 0.22932 0.0
C1173 C 0.42481 0.28751 0.16524 0.0
C1174 C 0.44865 0.2804 0.16958 0.0
H1175 H 0.39067 0.29456 0.17952 0.0
H1176 H 0.41818 0.29139 0.14742 0.0
C1177 C 0.45647 0.27582 0.19308 0.0
C1178 C 0.55104 0.34959 0.05158 0.0
C1179 C 0.54245 0.3691 0.06371 0.0
H1180 H 0.5548 0.31228 0.05024 0.0
C1181 C 0.53091 0.36516 0.08513 0.0
H1182 H 0.56041 0.35199 0.03529 0.0
C1183 C 0.52755 0.34209 0.09386 0.0
C1184 C 0.536 0.32255 0.0815 0.0
H1185 H 0.52409 0.37986 0.0949 0.0
H1186 H 0.51824 0.33957 0.11016 0.0
C1187 C 0.54797 0.32674 0.06036 0.0
C1188 C 0.59487 0.23493 0.19251 0.0
C1189 C 0.61829 0.23037 0.18529 0.0
H1190 H 0.55829 0.24277 0.1818 0.0
C1191 C 0.62279 0.23172 0.16103 0.0
H1192 H 0.59073 0.23395 0.21103 0.0
C1193 C 0.60429 0.23663 0.14435 0.0
C1194 C 0.58065 0.24044 0.15136 0.0
H1195 H 0.6407 0.22885 0.15484 0.0
H1196 H 0.60857 0.23717 0.12584 0.0
C1197 C 0.57624 0.2399 0.17572 0.0
C1198 C 0.5087 0.1687 0.05068 0.0
C1199 C 0.49632 0.14868 0.05971 0.0
H1200 H 0.52035 0.20521 0.05598 0.0
C1201 C 0.48719 0.15041 0.08252 0.0
H1202 H 0.51628 0.16798 0.03335 0.0
C1203 C 0.48976 0.17171 0.09562 0.0
C1204 C 0.5015 0.19189 0.08627 0.0
H1205 H 0.47726 0.13553 0.08998 0.0
H1206 H 0.48193 0.17251 0.11282 0.0
C1207 C 0.51124 0.19003 0.06378 0.0
C1208 C 0.35958 0.41923 0.73348 0.0
C1209 C 0.33503 0.42461 0.73403 0.0
H1210 H 0.39665 0.43207 0.7354 0.0
C1211 C 0.32939 0.44845 0.73712 0.0
H1212 H 0.36461 0.40116 0.73071 0.0
C1213 C 0.34794 0.46642 0.73982 0.0
C1214 C 0.37251 0.46094 0.73922 0.0
H1215 H 0.31066 0.4532 0.7377 0.0
H1216 H 0.34301 0.48457 0.74226 0.0
C1217 C 0.378 0.43708 0.73598 0.0
C1218 C 0.32913 0.60337 0.79686 0.0
C1219 C 0.31294 0.61344 0.78026 0.0
H1220 H 0.35726 0.579 0.80301 0.0
C1221 C 0.3121 0.60488 0.75668 0.0
H1222 H 0.33002 0.60915 0.81528 0.0
C1223 C 0.32754 0.58741 0.74973 0.0
C1224 C 0.34435 0.57799 0.76612 0.0
H1225 H 0.30014 0.6123 0.7433 0.0
H1226 H 0.32675 0.5818 0.73126 0.0
C1227 C 0.34466 0.5859 0.78988 0.0
C1228 C 0.87446 0.41545 0.49979 0.0
C1229 C 0.86869 0.43761 0.49078 0.0
H1230 H 0.86143 0.38171 0.51177 0.0
C1231 C 0.84404 0.44276 0.48774 0.0
H1232 H 0.8932 0.41075 0.50207 0.0
C1233 C 0.82564 0.42602 0.49343 0.0
C1234 C 0.83149 0.40364 0.50193 0.0
H1235 H 0.839 0.45974 0.48097 0.0
H1236 H 0.80685 0.43042 0.49067 0.0
C1237 C 0.85616 0.3987 0.50519 0.0
C1238 C 0.71251 0.91823 0.78026 0.0
C1239 C 0.72196 0.90732 0.7603 0.0
H1240 H 0.69293 0.94726 0.79343 0.0
C1241 C 0.71545 0.91577 0.73768 0.0
H1242 H 0.71712 0.91222 0.79795 0.0
C1243 C 0.70187 0.93583 0.73516 0.0
C1244 C 0.69402 0.94782 0.75515 0.0
H1245 H 0.72173 0.90743 0.72185 0.0
H1246 H 0.69846 0.94263 0.71754 0.0
C1247 C 0.69857 0.93827 0.77769 0.0
C1248 C 0.65698 0.61173 0.01213 0.0
C1249 C 0.66325 0.58889 1.00535 0.0
H1250 H 0.6691 0.64733 0.02119 0.0
C1251 C 0.68801 0.58468 1.00325 0.0
H1252 H 0.63813 0.61576 0.0136 0.0
C1253 C 0.70599 0.60294 1.00765 0.0
C1254 C 0.69957 0.62591 0.01395 0.0
H1255 H 0.69348 0.56725 0.99819 0.0
H1256 H 0.72483 0.59917 1.00567 0.0
C1257 C 0.67483 0.62995 0.0163 0.0
C1258 C 0.22888 0.59998 0.23954 0.0
C1259 C 0.22354 0.62186 0.2497 0.0
H1260 H 0.21865 0.56317 0.23479 0.0
C1261 C 0.20163 0.62344 0.26125 0.0
H1262 H 0.24569 0.59804 0.23073 0.0
C1263 C 0.18597 0.60337 0.26348 0.0
C1264 C 0.19197 0.58123 0.25439 0.0
H1265 H 0.19683 0.6401 0.26903 0.0
H1266 H 0.16967 0.60504 0.27319 0.0
C1267 C 0.21334 0.57991 0.24193 0.0
C1268 C 0.85117 0.57906 0.02864 0.0
C1269 C 0.87611 0.58503 0.0269 0.0
H1270 H 0.81482 0.591 0.02677 0.0
C1271 C 0.88309 0.6082 0.02033 0.0
H1272 H 0.8451 0.56132 0.03339 0.0
C1273 C 0.86577 0.62515 0.0165 0.0
C1274 C 0.84093 0.61944 0.01904 0.0
H1275 H 0.90209 0.61358 0.01907 0.0
H1276 H 0.87199 0.64297 0.01217 0.0
C1277 C 0.83378 0.59604 0.02468 0.0
C1278 C 0.18176 0.95574 0.01919 0.0
C1279 C 0.15678 0.94989 0.01504 0.0
H1280 H 0.2181 0.94393 0.01889 0.0
C1281 C 0.14969 0.92729 1.00559 0.0
H1282 H 0.18788 0.97308 0.0262 0.0
C1283 C 0.16697 0.91064 1.00139 0.0
C1284 C 0.19185 0.91613 1.0064 0.0
H1285 H 0.13066 0.92204 1.00238 0.0
H1286 H 0.1607 0.89315 0.99488 0.0
C1287 C 0.1991 0.93909 0.01482 0.0
loop_
_geom_bond_atom_site_label_1
_geom_bond_atom_site_label_2
_geom_bond_distance
_geom_bond_site_symmetry_2
_ccdc_geom_bond_type
C0 C1 1.264 . S
C0 C5 1.479 . S
C0 C10 1.465 . S
C1 C0 1.264 . S
C1 C3 1.339 . S
C1 H28 0.931 1_545 S
C2 C3 1.395 . S
C2 C4 1.320 . S
C3 C1 1.339 . S
C3 C2 1.395 . S
C3 H29 0.929 1_545 S
C4 C2 1.320 . S
C4 C5 1.405 . S
C4 H30 0.930 . S
C5 C0 1.479 . S
C5 C4 1.405 . S
C5 H31 0.931 . S
U6 O7 2.454 . S
U6 O8 2.458 1_554 S
U6 C9 2.984 1_554 S
U6 C10 2.847 1_455 S
U6 C23 2.882 1_545 S
U6 O24 2.441 1_455 S
U6 O25 2.420 . S
U6 O26 2.455 1_554 S
U6 O27 2.449 1_545 S
O7 U6 2.454 . S
O7 C9 1.353 1_554 S
O8 U6 2.458 1_556 S
O8 C9 1.286 . S
C9 U6 2.984 1_556 S
C9 O7 1.353 1_556 S
C9 O8 1.286 . S
C9 C11 1.363 . S
C10 C0 1.465 . S
C10 U6 2.847 1_655 S
C10 O24 1.249 . S
C10 O25 1.202 1_655 S
C11 C9 1.363 . S
C11 C13 1.408 . S
C11 C16 1.342 . S
C12 C13 1.310 . S
C12 C15 1.461 . S
C12 H32 0.932 1_455 S
C13 C11 1.408 . S
C13 C12 1.310 . S
C13 H33 0.930 1_455 S
C14 C15 1.474 . S
C14 C16 1.285 . S
C14 H34 0.929 . S
C15 C12 1.461 . S
C15 C14 1.474 . S
C16 C11 1.342 . S
C16 C14 1.285 . S
C16 H35 0.930 . S
C17 C20 1.424 . S
C17 C22 1.245 1_554 S
C17 C23 1.428 . S
C18 C21 1.260 1_556 S
C18 C22 1.477 . S
C18 H36 0.932 . S
C19 C20 1.384 . S
C19 C21 1.479 . S
C19 H37 0.929 . S
C20 C17 1.424 . S
C20 C19 1.384 . S
C20 H38 0.928 . S
C21 C18 1.260 1_554 S
C21 C19 1.479 . S
C22 C17 1.245 1_556 S
C22 C18 1.477 . S
C22 H39 0.895 1_565 S
C23 U6 2.882 1_565 S
C23 C17 1.428 . S
C23 O26 1.301 1_564 S
C23 O27 1.282 . S
O24 U6 2.441 1_655 S
O24 C10 1.249 . S
O25 U6 2.420 . S
O25 C10 1.202 1_455 S
O26 U6 2.455 1_556 S
O26 C23 1.301 1_546 S
O27 U6 2.449 1_565 S
O27 C23 1.282 . S
H28 C1 0.931 1_565 S
H29 C3 0.929 1_565 S
H30 C4 0.930 . S
H31 C5 0.931 . S
H32 C12 0.932 1_655 S
H33 C13 0.930 1_655 S
H34 C14 0.929 . S
H35 C16 0.930 . S
H36 C18 0.932 . S
H37 C19 0.929 . S
H38 C20 0.928 . S
H39 C22 0.895 1_545 S
C40 C41 1.264 . S
C40 C45 1.479 . S
C40 C50 1.465 . S
C41 C40 1.264 . S
C41 C43 1.339 . S
C41 H68 0.931 . S
C42 C43 1.395 . S
C42 C44 1.320 . S
C43 C41 1.339 . S
C43 C42 1.395 . S
C43 H69 0.929 . S
C44 C42 1.320 . S
C44 C45 1.405 . S
C44 H70 0.930 . S
C45 C40 1.479 . S
C45 C44 1.405 . S
C45 H71 0.931 . S
U46 O47 2.454 . S
U46 O48 2.458 . S
U46 C49 2.984 . S
U46 C50 2.847 . S
U46 C63 2.882 . S
U46 O64 2.441 . S
U46 O65 2.420 . S
U46 O66 2.455 . S
U46 O67 2.449 . S
O47 U46 2.454 . S
O47 C49 1.353 . S
O48 U46 2.458 . S
O48 C49 1.286 . S
C49 U46 2.984 . S
C49 O47 1.353 . S
C49 O48 1.286 . S
C49 C51 1.363 . S
C50 C40 1.465 . S
C50 U46 2.847 . S
C50 O64 1.249 . S
C50 O65 1.202 . S
C51 C49 1.363 . S
C51 C53 1.408 . S
C51 C56 1.342 . S
C52 C53 1.310 . S
C52 C55 1.461 . S
C52 H72 0.932 . S
C53 C51 1.408 . S
C53 C52 1.310 . S
C53 H73 0.930 . S
C54 C55 1.474 . S
C54 C56 1.285 . S
C54 H74 0.929 . S
C55 C52 1.461 . S
C55 C54 1.474 . S
C56 C51 1.342 . S
C56 C54 1.285 . S
C56 H75 0.930 . S
C57 C60 1.424 . S
C57 C62 1.245 . S
C57 C63 1.428 . S
C58 C61 1.260 . S
C58 C62 1.477 . S
C58 H76 0.932 . S
C59 C60 1.384 . S
C59 C61 1.479 . S
C59 H77 0.929 . S
C60 C57 1.424 . S
C60 C59 1.384 . S
C60 H78 0.928 . S
C61 C58 1.260 . S
C61 C59 1.479 . S
C62 C57 1.245 . S
C62 C58 1.477 . S
C62 H79 0.932 . S
C63 U46 2.882 . S
C63 C57 1.428 . S
C63 O66 1.301 . S
C63 O67 1.282 . S
O64 U46 2.441 . S
O64 C50 1.249 . S
O65 U46 2.420 . S
O65 C50 1.202 . S
O66 U46 2.455 . S
O66 C63 1.301 . S
O67 U46 2.449 . S
O67 C63 1.282 . S
H68 C41 0.931 . S
H69 C43 0.929 . S
H70 C44 0.930 . S
H71 C45 0.931 . S
H72 C52 0.932 . S
H73 C53 0.930 . S
H74 C54 0.929 . S
H75 C56 0.930 . S
H76 C58 0.932 . S
H77 C59 0.929 . S
H78 C60 0.928 . S
H79 C62 0.932 . S
C80 C81 1.264 1_655 S
C80 C85 1.479 . S
C80 C90 1.465 1_556 S
C81 C80 1.264 1_455 S
C81 C83 1.339 . S
C81 H108 0.931 1_556 S
C82 C83 1.383 1_655 S
C82 C84 1.336 . S
C83 C81 1.339 . S
C83 C82 1.383 1_455 S
C83 H109 0.929 . S
C84 C82 1.336 . S
C84 C85 1.405 . S
C84 H110 0.930 . S
C85 C80 1.479 . S
C85 C84 1.405 . S
C85 H111 0.931 . S
U86 O87 2.454 . S
U86 O88 2.458 . S
U86 C89 2.984 . S
U86 C90 2.847 . S
U86 C103 2.882 1_655 S
U86 O104 2.441 . S
U86 O105 2.420 1_655 S
U86 O106 2.457 . S
U86 O107 2.449 1_655 S
O87 U86 2.454 . S
O87 C89 1.353 . S
O88 U86 2.458 . S
O88 C89 1.286 . S
C89 U86 2.984 . S
C89 O87 1.353 . S
C89 O88 1.286 . S
C89 C91 1.363 . S
C90 C80 1.465 1_554 S
C90 U86 2.847 . S
C90 O104 1.249 . S
C90 O105 1.202 1_655 S
C91 C89 1.363 . S
C91 C93 1.408 . S
C91 C96 1.342 . S
C92 C93 1.310 . S
C92 C95 1.461 . S
C92 H112 0.932 1_554 S
C93 C91 1.408 . S
C93 C92 1.310 . S
C93 H113 0.900 1_554 S
C94 C95 1.474 . S
C94 C96 1.285 . S
C94 H114 0.929 . S
C95 C92 1.461 . S
C95 C94 1.474 . S
C96 C91 1.342 . S
C96 C94 1.285 . S
C96 H115 0.930 . S
C97 C100 1.424 . S
C97 C102 1.245 . S
C97 C103 1.428 . S
C98 C101 1.260 . S
C98 C102 1.477 . S
C98 H116 0.932 . S
C99 C100 1.384 . S
C99 C101 1.479 . S
C99 H117 0.929 . S
C100 C97 1.424 . S
C100 C99 1.384 . S
C100 H118 0.928 . S
C101 C98 1.260 . S
C101 C99 1.479 . S
C102 C97 1.245 . S
C102 C98 1.477 . S
C102 H119 0.932 . S
C103 U86 2.882 1_455 S
C103 C97 1.428 . S
C103 O106 1.295 1_455 S
C103 O107 1.282 . S
O104 U86 2.441 . S
O104 C90 1.249 . S
O105 U86 2.420 1_455 S
O105 C90 1.202 1_455 S
O106 U86 2.457 . S
O106 C103 1.295 1_655 S
O107 U86 2.449 1_455 S
O107 C103 1.282 . S
H108 C81 0.931 1_554 S
H109 C83 0.929 . S
H110 C84 0.930 . S
H111 C85 0.931 . S
H112 C92 0.932 1_556 S
H113 C93 0.900 1_556 S
H114 C94 0.929 . S
H115 C96 0.930 . S
H116 C98 0.932 . S
H117 C99 0.929 . S
H118 C100 0.928 . S
H119 C102 0.932 . S
C120 C121 1.264 . S
C120 C125 1.479 . S
C120 C130 1.465 . S
C121 C120 1.264 . S
C121 C123 1.339 . S
C121 H148 0.931 . S
C122 C123 1.395 . S
C122 C124 1.320 . S
C123 C121 1.339 . S
C123 C122 1.395 . S
C123 H149 0.929 . S
C124 C122 1.320 . S
C124 C125 1.405 . S
C124 H150 0.930 . S
C125 C120 1.479 . S
C125 C124 1.405 . S
C125 H151 0.931 . S
U126 O127 2.454 . S
U126 O128 2.458 . S
U126 C129 2.984 . S
U126 C130 2.847 . S
U126 C143 2.882 . S
U126 O144 2.441 . S
U126 O145 2.420 . S
U126 O146 2.455 . S
U126 O147 2.449 . S
O127 U126 2.454 . S
O127 C129 1.353 . S
O128 U126 2.458 . S
O128 C129 1.286 . S
C129 U126 2.984 . S
C129 O127 1.353 . S
C129 O128 1.286 . S
C129 C131 1.363 . S
C130 C120 1.465 . S
C130 U126 2.847 . S
C130 O144 1.249 . S
C130 O145 1.202 . S
C131 C129 1.363 . S
C131 C133 1.408 . S
C131 C136 1.342 . S
C132 C133 1.310 . S
C132 C135 1.461 . S
C132 H152 0.932 . S
C133 C131 1.408 . S
C133 C132 1.310 . S
C133 H153 0.930 . S
C134 C135 1.474 . S
C134 C136 1.285 . S
C134 H154 0.929 . S
C135 C132 1.461 . S
C135 C134 1.474 . S
C136 C131 1.342 . S
C136 C134 1.285 . S
C136 H155 0.930 . S
C137 C140 1.424 . S
C137 C142 1.245 . S
C137 C143 1.428 . S
C138 C141 1.260 . S
C138 C142 1.477 . S
C138 H156 0.932 . S
C139 C140 1.384 . S
C139 C141 1.479 . S
C139 H157 0.929 . S
C140 C137 1.424 . S
C140 C139 1.384 . S
C140 H158 0.928 . S
C141 C138 1.260 . S
C141 C139 1.479 . S
C142 C137 1.245 . S
C142 C138 1.477 . S
C142 H159 0.932 . S
C143 U126 2.882 . S
C143 C137 1.428 . S
C143 O146 1.301 . S
C143 O147 1.282 . S
O144 U126 2.441 . S
O144 C130 1.249 . S
O145 U126 2.420 . S
O145 C130 1.202 . S
O146 U126 2.455 . S
O146 C143 1.301 . S
O147 U126 2.449 . S
O147 C143 1.282 . S
H148 C121 0.931 . S
H149 C123 0.929 . S
H150 C124 0.930 . S
H151 C125 0.931 . S
H152 C132 0.932 . S
H153 C133 0.930 . S
H154 C134 0.929 . S
H155 C136 0.930 . S
H156 C138 0.932 . S
H157 C139 0.929 . S
H158 C140 0.928 . S
H159 C142 0.932 . S
C160 C161 1.264 1_665 S
C160 C165 1.479 . S
C160 C170 1.465 1_655 S
C161 C160 1.264 1_445 S
C161 C163 1.339 1_455 S
C161 H188 0.931 . S
C162 C163 1.395 1_565 S
C162 C164 1.320 . S
C163 C161 1.339 1_655 S
C163 C162 1.395 1_545 S
C163 H189 0.929 . S
C164 C162 1.320 . S
C164 C165 1.405 . S
C164 H190 0.930 . S
C165 C160 1.479 . S
C165 C164 1.405 . S
C165 H191 0.931 . S
U166 O167 2.454 . S
U166 O168 2.458 . S
U166 C169 2.984 . S
U166 C170 2.847 . S
U166 C183 2.882 1_565 S
U166 O184 2.441 . S
U166 O185 2.391 1_565 S
U166 O186 2.455 . S
U166 O187 2.449 1_565 S
O167 U166 2.454 . S
O167 C169 1.353 . S
O168 U166 2.458 . S
O168 C169 1.286 . S
C169 U166 2.984 . S
C169 O167 1.353 . S
C169 O168 1.286 . S
C169 C171 1.363 . S
C170 C160 1.465 1_455 S
C170 U166 2.847 . S
C170 O184 1.249 . S
C170 O185 1.169 1_565 S
C171 C169 1.363 . S
C171 C173 1.408 . S
C171 C176 1.342 . S
C172 C173 1.310 . S
C172 C175 1.461 . S
C172 H192 0.926 1_455 S
C173 C171 1.408 . S
C173 C172 1.310 . S
C173 H193 0.930 . S
C174 C175 1.474 . S
C174 C176 1.285 . S
C174 H194 0.929 . S
C175 C172 1.461 . S
C175 C174 1.474 . S
C176 C171 1.342 . S
C176 C174 1.285 . S
C176 H195 0.930 . S
C177 C180 1.424 . S
C177 C182 1.245 . S
C177 C183 1.428 . S
C178 C181 1.260 . S
C178 C182 1.477 . S
C178 H196 0.932 . S
C179 C180 1.384 . S
C179 C181 1.479 . S
C179 H197 0.929 . S
C180 C177 1.424 . S
C180 C179 1.384 . S
C180 H198 0.928 . S
C181 C178 1.260 . S
C181 C179 1.479 . S
C182 C177 1.245 . S
C182 C178 1.477 . S
C182 H199 0.932 . S
C183 U166 2.882 1_545 S
C183 C177 1.428 . S
C183 O186 1.301 1_545 S
C183 O187 1.282 . S
O184 U166 2.441 . S
O184 C170 1.249 . S
O185 U166 2.391 1_545 S
O185 C170 1.169 1_545 S
O186 U166 2.455 . S
O186 C183 1.301 1_565 S
O187 U166 2.449 1_545 S
O187 C183 1.282 . S
H188 C161 0.931 . S
H189 C163 0.929 . S
H190 C164 0.930 . S
H191 C165 0.931 . S
H192 C172 0.926 1_655 S
H193 C173 0.930 . S
H194 C174 0.929 . S
H195 C176 0.930 . S
H196 C178 0.932 . S
H197 C179 0.929 . S
H198 C180 0.928 . S
H199 C182 0.932 . S
C200 C201 1.264 . S
C200 C205 1.479 . S
C200 C210 1.465 . S
C201 C200 1.264 . S
C201 C203 1.339 . S
C201 H228 0.931 . S
C202 C203 1.395 . S
C202 C204 1.320 . S
C203 C201 1.339 . S
C203 C202 1.395 . S
C203 H229 0.929 . S
C204 C202 1.320 . S
C204 C205 1.405 . S
C204 H230 0.930 . S
C205 C200 1.479 . S
C205 C204 1.405 . S
C205 H231 0.931 . S
U206 O207 2.454 . S
U206 O208 2.458 . S
U206 C209 2.984 . S
U206 C210 2.847 . S
U206 C223 2.882 . S
U206 O224 2.441 . S
U206 O225 2.420 . S
U206 O226 2.455 . S
U206 O227 2.449 . S
O207 U206 2.454 . S
O207 C209 1.353 . S
O208 U206 2.458 . S
O208 C209 1.286 . S
C209 U206 2.984 . S
C209 O207 1.353 . S
C209 O208 1.286 . S
C209 C211 1.363 . S
C210 C200 1.465 . S
C210 U206 2.847 . S
C210 O224 1.249 . S
C210 O225 1.202 . S
C211 C209 1.363 . S
C211 C213 1.408 . S
C211 C216 1.342 . S
C212 C213 1.310 . S
C212 C215 1.461 . S
C212 H232 0.932 . S
C213 C211 1.408 . S
C213 C212 1.310 . S
C213 H233 0.930 . S
C214 C215 1.474 . S
C214 C216 1.285 . S
C214 H234 0.929 . S
C215 C212 1.461 . S
C215 C214 1.474 . S
C216 C211 1.342 . S
C216 C214 1.285 . S
C216 H235 0.930 . S
C217 C220 1.424 . S
C217 C222 1.245 . S
C217 C223 1.428 . S
C218 C221 1.260 . S
C218 C222 1.477 . S
C218 H236 0.932 . S
C219 C220 1.384 . S
C219 C221 1.479 . S
C219 H237 0.929 . S
C220 C217 1.424 . S
C220 C219 1.384 . S
C220 H238 0.928 . S
C221 C218 1.260 . S
C221 C219 1.479 . S
C222 C217 1.245 . S
C222 C218 1.477 . S
C222 H239 0.932 . S
C223 U206 2.882 . S
C223 C217 1.428 . S
C223 O226 1.301 . S
C223 O227 1.282 . S
O224 U206 2.441 . S
O224 C210 1.249 . S
O225 U206 2.420 . S
O225 C210 1.202 . S
O226 U206 2.455 . S
O226 C223 1.301 . S
O227 U206 2.449 . S
O227 C223 1.282 . S
H228 C201 0.931 . S
H229 C203 0.929 . S
H230 C204 0.930 . S
H231 C205 0.931 . S
H232 C212 0.932 . S
H233 C213 0.930 . S
H234 C214 0.929 . S
H235 C216 0.930 . S
H236 C218 0.932 . S
H237 C219 0.929 . S
H238 C220 0.928 . S
H239 C222 0.932 . S
C240 C241 1.264 1_655 S
C240 C245 1.479 . S
C240 C250 1.465 . S
C241 C240 1.264 1_455 S
C241 C243 1.339 . S
C241 H268 0.931 . S
C242 C243 1.395 1_655 S
C242 C244 1.320 . S
C243 C241 1.339 . S
C243 C242 1.395 1_455 S
C243 H269 0.929 . S
C244 C242 1.320 . S
C244 C245 1.405 . S
C244 H270 0.930 . S
C245 C240 1.479 . S
C245 C244 1.405 . S
C245 H271 0.931 . S
U246 O247 2.454 . S
U246 O248 2.458 . S
U246 C249 2.984 . S
U246 C250 2.847 . S
U246 C263 2.882 1_655 S
U246 O264 2.441 . S
U246 O265 2.420 . S
U246 O266 2.455 . S
U246 O267 2.449 1_655 S
O247 U246 2.454 . S
O247 C249 1.353 . S
O248 U246 2.458 . S
O248 C249 1.286 . S
C249 U246 2.984 . S
C249 O247 1.353 . S
C249 O248 1.286 . S
C249 C251 1.363 . S
C250 C240 1.465 . S
C250 U246 2.847 . S
C250 O264 1.249 . S
C250 O265 1.202 . S
C251 C249 1.363 . S
C251 C253 1.408 . S
C251 C256 1.342 . S
C252 C253 1.310 . S
C252 C255 1.461 . S
C252 H272 0.932 . S
C253 C251 1.408 . S
C253 C252 1.310 . S
C253 H273 0.930 . S
C254 C255 1.474 . S
C254 C256 1.285 . S
C254 H274 0.929 . S
C255 C252 1.461 . S
C255 C254 1.474 . S
C256 C251 1.342 . S
C256 C254 1.285 . S
C256 H275 0.930 . S
C257 C260 1.424 . S
C257 C262 1.245 . S
C257 C263 1.428 . S
C258 C261 1.260 . S
C258 C262 1.477 . S
C258 H276 0.932 . S
C259 C260 1.384 . S
C259 C261 1.479 . S
C259 H277 0.929 . S
C260 C257 1.424 . S
C260 C259 1.384 . S
C260 H278 0.928 . S
C261 C258 1.260 . S
C261 C259 1.479 . S
C262 C257 1.245 . S
C262 C258 1.477 . S
C262 H279 0.932 . S
C263 U246 2.882 1_455 S
C263 C257 1.428 . S
C263 O266 1.301 1_455 S
C263 O267 1.282 . S
O264 U246 2.441 . S
O264 C250 1.249 . S
O265 U246 2.420 . S
O265 C250 1.202 . S
O266 U246 2.455 . S
O266 C263 1.301 1_655 S
O267 U246 2.449 1_455 S
O267 C263 1.282 . S
H268 C241 0.931 . S
H269 C243 0.929 . S
H270 C244 0.930 . S
H271 C245 0.931 . S
H272 C252 0.932 . S
H273 C253 0.930 . S
H274 C254 0.929 . S
H275 C256 0.930 . S
H276 C258 0.932 . S
H277 C259 0.929 . S
H278 C260 0.928 . S
H279 C262 0.932 . S
C280 C281 1.264 . S
C280 C285 1.479 . S
C280 C290 1.465 . S
C281 C280 1.264 . S
C281 C283 1.339 . S
C281 H308 0.931 . S
C282 C283 1.395 . S
C282 C284 1.320 . S
C283 C281 1.339 . S
C283 C282 1.395 . S
C283 H309 0.929 . S
C284 C282 1.320 . S
C284 C285 1.405 . S
C284 H310 0.930 . S
C285 C280 1.479 . S
C285 C284 1.405 . S
C285 H311 0.931 . S
U286 O287 2.454 . S
U286 O288 2.458 . S
U286 C289 2.984 . S
U286 C290 2.847 . S
U286 C303 2.882 . S
U286 O304 2.441 . S
U286 O305 2.420 . S
U286 O306 2.455 . S
U286 O307 2.449 . S
O287 U286 2.454 . S
O287 C289 1.353 . S
O288 U286 2.458 . S
O288 C289 1.286 . S
C289 U286 2.984 . S
C289 O287 1.353 . S
C289 O288 1.286 . S
C289 C291 1.363 . S
C290 C280 1.465 . S
C290 U286 2.847 . S
C290 O304 1.249 . S
C290 O305 1.202 . S
C291 C289 1.363 . S
C291 C293 1.408 . S
C291 C296 1.342 . S
C292 C293 1.310 . S
C292 C295 1.461 . S
C292 H312 0.932 . S
C293 C291 1.408 . S
C293 C292 1.310 . S
C293 H313 0.930 . S
C294 C295 1.474 . S
C294 C296 1.285 . S
C294 H314 0.929 . S
C295 C292 1.461 . S
C295 C294 1.474 . S
C296 C291 1.342 . S
C296 C294 1.285 . S
C296 H315 0.930 . S
C297 C300 1.424 . S
C297 C302 1.245 . S
C297 C303 1.428 . S
C298 C301 1.260 . S
C298 C302 1.477 . S
C298 H316 0.932 . S
C299 C300 1.384 . S
C299 C301 1.479 . S
C299 H317 0.929 . S
C300 C297 1.424 . S
C300 C299 1.384 . S
C300 H318 0.928 . S
C301 C298 1.260 . S
C301 C299 1.479 . S
C302 C297 1.245 . S
C302 C298 1.477 . S
C302 H319 0.932 . S
C303 U286 2.882 . S
C303 C297 1.428 . S
C303 O306 1.301 . S
C303 O307 1.282 . S
O304 U286 2.441 . S
O304 C290 1.249 . S
O305 U286 2.420 . S
O305 C290 1.202 . S
O306 U286 2.455 . S
O306 C303 1.301 . S
O307 U286 2.449 . S
O307 C303 1.282 . S
H308 C281 0.931 . S
H309 C283 0.929 . S
H310 C284 0.930 . S
H311 C285 0.931 . S
H312 C292 0.932 . S
H313 C293 0.930 . S
H314 C294 0.929 . S
H315 C296 0.930 . S
H316 C298 0.932 . S
H317 C299 0.929 . S
H318 C300 0.928 . S
H319 C302 0.932 . S
C320 C321 1.264 . S
C320 C325 1.479 . S
C320 C330 1.465 . S
C321 C320 1.264 . S
C321 C323 1.339 . S
C321 H348 0.931 . S
C322 C323 1.395 . S
C322 C324 1.320 . S
C323 C321 1.339 . S
C323 C322 1.395 . S
C323 H349 0.929 . S
C324 C322 1.320 . S
C324 C325 1.405 . S
C324 H350 0.930 . S
C325 C320 1.479 . S
C325 C324 1.405 . S
C325 H351 0.931 . S
U326 O327 2.454 . S
U326 O328 2.458 . S
U326 C329 2.984 . S
U326 C330 2.847 . S
U326 C343 2.882 . S
U326 O344 2.441 . S
U326 O345 2.420 . S
U326 O346 2.455 . S
U326 O347 2.449 . S
O327 U326 2.454 . S
O327 C329 1.353 . S
O328 U326 2.458 . S
O328 C329 1.286 . S
C329 U326 2.984 . S
C329 O327 1.353 . S
C329 O328 1.286 . S
C329 C331 1.363 . S
C330 C320 1.465 . S
C330 U326 2.847 . S
C330 O344 1.249 . S
C330 O345 1.202 . S
C331 C329 1.363 . S
C331 C333 1.408 . S
C331 C336 1.342 . S
C332 C333 1.310 . S
C332 C335 1.461 . S
C332 H352 0.932 . S
C333 C331 1.408 . S
C333 C332 1.310 . S
C333 H353 0.930 . S
C334 C335 1.474 . S
C334 C336 1.285 . S
C334 H354 0.929 . S
C335 C332 1.461 . S
C335 C334 1.474 . S
C336 C331 1.342 . S
C336 C334 1.285 . S
C336 H355 0.930 . S
C337 C340 1.424 . S
C337 C342 1.245 . S
C337 C343 1.428 . S
C338 C341 1.260 . S
C338 C342 1.477 . S
C338 H356 0.932 . S
C339 C340 1.384 . S
C339 C341 1.479 . S
C339 H357 0.929 . S
C340 C337 1.424 . S
C340 C339 1.384 . S
C340 H358 0.928 . S
C341 C338 1.260 . S
C341 C339 1.479 . S
C342 C337 1.245 . S
C342 C338 1.477 . S
C342 H359 0.932 . S
C343 U326 2.882 . S
C343 C337 1.428 . S
C343 O346 1.301 . S
C343 O347 1.282 . S
O344 U326 2.441 . S
O344 C330 1.249 . S
O345 U326 2.420 . S
O345 C330 1.202 . S
O346 U326 2.455 . S
O346 C343 1.301 . S
O347 U326 2.449 . S
O347 C343 1.282 . S
H348 C321 0.931 . S
H349 C323 0.929 . S
H350 C324 0.930 . S
H351 C325 0.931 . S
H352 C332 0.932 . S
H353 C333 0.930 . S
H354 C334 0.929 . S
H355 C336 0.930 . S
H356 C338 0.932 . S
H357 C339 0.929 . S
H358 C340 0.928 . S
H359 C342 0.932 . S
C360 C361 1.264 . S
C360 C365 1.479 . S
C360 C370 1.465 . S
C361 C360 1.264 . S
C361 C363 1.339 . S
C361 H388 0.931 . S
C362 C363 1.395 . S
C362 C364 1.320 . S
C363 C361 1.339 . S
C363 C362 1.395 . S
C363 H389 0.929 . S
C364 C362 1.320 . S
C364 C365 1.405 . S
C364 H390 0.930 . S
C365 C360 1.479 . S
C365 C364 1.405 . S
C365 H391 0.931 . S
U366 O367 2.454 . S
U366 O368 2.458 1_565 S
U366 C369 2.984 1_565 S
U366 C370 2.847 . S
U366 C383 2.882 . S
U366 O384 2.441 . S
U366 O385 2.420 . S
U366 O386 2.455 . S
U366 O387 2.449 . S
O367 U366 2.454 . S
O367 C369 1.353 1_565 S
O368 U366 2.458 1_545 S
O368 C369 1.286 . S
C369 U366 2.984 1_545 S
C369 O367 1.353 1_545 S
C369 O368 1.286 . S
C369 C371 1.363 . S
C370 C360 1.465 . S
C370 U366 2.847 . S
C370 O384 1.249 . S
C370 O385 1.202 . S
C371 C369 1.363 . S
C371 C373 1.408 . S
C371 C376 1.342 . S
C372 C373 1.310 . S
C372 C375 1.461 . S
C372 H392 0.932 . S
C373 C371 1.408 . S
C373 C372 1.310 . S
C373 H393 0.930 . S
C374 C375 1.474 . S
C374 C376 1.285 . S
C374 H394 0.929 . S
C375 C372 1.461 . S
C375 C374 1.474 . S
C376 C371 1.342 . S
C376 C374 1.285 . S
C376 H395 0.930 . S
C377 C380 1.424 . S
C377 C382 1.245 . S
C377 C383 1.428 . S
C378 C381 1.260 . S
C378 C382 1.477 . S
C378 H396 0.932 1_565 S
C379 C380 1.384 . S
C379 C381 1.479 . S
C379 H397 0.929 . S
C380 C377 1.424 . S
C380 C379 1.384 . S
C380 H398 0.928 . S
C381 C378 1.260 . S
C381 C379 1.479 . S
C382 C377 1.245 . S
C382 C378 1.477 . S
C382 H399 0.932 1_565 S
C383 U366 2.882 . S
C383 C377 1.428 . S
C383 O386 1.301 . S
C383 O387 1.282 . S
O384 U366 2.441 . S
O384 C370 1.249 . S
O385 U366 2.420 . S
O385 C370 1.202 . S
O386 U366 2.455 . S
O386 C383 1.301 . S
O387 U366 2.449 . S
O387 C383 1.282 . S
H388 C361 0.931 . S
H389 C363 0.929 . S
H390 C364 0.930 . S
H391 C365 0.931 . S
H392 C372 0.932 . S
H393 C373 0.930 . S
H394 C374 0.929 . S
H395 C376 0.930 . S
H396 C378 0.932 1_545 S
H397 C379 0.929 . S
H398 C380 0.928 . S
H399 C382 0.932 1_545 S
C400 C401 1.264 . S
C400 C405 1.479 . S
C400 C410 1.465 . S
C401 C400 1.264 . S
C401 C403 1.339 . S
C401 H428 0.931 . S
C402 C403 1.395 . S
C402 C404 1.320 . S
C403 C401 1.339 . S
C403 C402 1.395 . S
C403 H429 0.929 . S
C404 C402 1.320 . S
C404 C405 1.405 . S
C404 H430 0.930 . S
C405 C400 1.479 . S
C405 C404 1.405 . S
C405 H431 0.931 . S
U406 O407 2.454 . S
U406 O408 2.458 . S
U406 C409 2.984 . S
U406 C410 2.847 . S
U406 C423 2.882 . S
U406 O424 2.441 . S
U406 O425 2.420 . S
U406 O426 2.455 . S
U406 O427 2.449 . S
O407 U406 2.454 . S
O407 C409 1.353 . S
O408 U406 2.458 . S
O408 C409 1.286 . S
C409 U406 2.984 . S
C409 O407 1.353 . S
C409 O408 1.286 . S
C409 C411 1.363 . S
C410 C400 1.465 . S
C410 U406 2.847 . S
C410 O424 1.249 . S
C410 O425 1.202 . S
C411 C409 1.363 . S
C411 C413 1.408 . S
C411 C416 1.342 . S
C412 C413 1.310 . S
C412 C415 1.461 . S
C412 H432 0.932 . S
C413 C411 1.408 . S
C413 C412 1.310 . S
C413 H433 0.930 . S
C414 C415 1.474 . S
C414 C416 1.285 . S
C414 H434 0.929 . S
C415 C412 1.461 . S
C415 C414 1.474 . S
C416 C411 1.342 . S
C416 C414 1.285 . S
C416 H435 0.930 . S
C417 C420 1.424 . S
C417 C422 1.245 . S
C417 C423 1.428 . S
C418 C421 1.260 . S
C418 C422 1.477 . S
C418 H436 0.932 . S
C419 C420 1.384 . S
C419 C421 1.479 . S
C419 H437 0.929 . S
C420 C417 1.424 . S
C420 C419 1.384 . S
C420 H438 0.928 . S
C421 C418 1.260 . S
C421 C419 1.479 . S
C422 C417 1.245 . S
C422 C418 1.477 . S
C422 H439 0.932 . S
C423 U406 2.882 . S
C423 C417 1.428 . S
C423 O426 1.301 . S
C423 O427 1.282 . S
O424 U406 2.441 . S
O424 C410 1.249 . S
O425 U406 2.420 . S
O425 C410 1.202 . S
O426 U406 2.455 . S
O426 C423 1.301 . S
O427 U406 2.449 . S
O427 C423 1.282 . S
H428 C401 0.931 . S
H429 C403 0.929 . S
H430 C404 0.930 . S
H431 C405 0.931 . S
H432 C412 0.932 . S
H433 C413 0.930 . S
H434 C414 0.929 . S
H435 C416 0.930 . S
H436 C418 0.932 . S
H437 C419 0.929 . S
H438 C420 0.928 . S
H439 C422 0.932 . S
C440 C441 1.264 . S
C440 C445 1.479 . S
C440 C450 1.465 . S
C441 C440 1.264 . S
C441 C443 1.339 . S
C441 H468 0.931 . S
C442 C443 1.395 . S
C442 C444 1.320 . S
C443 C441 1.339 . S
C443 C442 1.395 . S
C443 H469 0.929 . S
C444 C442 1.320 . S
C444 C445 1.405 . S
C444 H470 0.930 . S
C445 C440 1.479 . S
C445 C444 1.405 . S
C445 H471 0.931 . S
U446 O447 2.454 . S
U446 O448 2.458 . S
U446 C449 2.984 . S
U446 C450 2.847 . S
U446 C463 2.882 . S
U446 O464 2.441 . S
U446 O465 2.420 . S
U446 O466 2.455 . S
U446 O467 2.449 . S
O447 U446 2.454 . S
O447 C449 1.353 . S
O448 U446 2.458 . S
O448 C449 1.286 . S
C449 U446 2.984 . S
C449 O447 1.353 . S
C449 O448 1.286 . S
C449 C451 1.363 . S
C450 C440 1.465 . S
C450 U446 2.847 . S
C450 O464 1.249 . S
C450 O465 1.202 . S
C451 C449 1.363 . S
C451 C453 1.408 . S
C451 C456 1.342 . S
C452 C453 1.310 . S
C452 C455 1.461 . S
C452 H472 0.932 . S
C453 C451 1.408 . S
C453 C452 1.310 . S
C453 H473 0.930 . S
C454 C455 1.474 . S
C454 C456 1.285 . S
C454 H474 0.929 . S
C455 C452 1.461 . S
C455 C454 1.474 . S
C456 C451 1.342 . S
C456 C454 1.285 . S
C456 H475 0.930 . S
C457 C460 1.424 . S
C457 C462 1.245 . S
C457 C463 1.428 . S
C458 C461 1.260 . S
C458 C462 1.477 . S
C458 H476 0.932 . S
C459 C460 1.384 . S
C459 C461 1.479 . S
C459 H477 0.929 . S
C460 C457 1.424 . S
C460 C459 1.384 . S
C460 H478 0.928 . S
C461 C458 1.260 . S
C461 C459 1.479 . S
C462 C457 1.245 . S
C462 C458 1.477 . S
C462 H479 0.932 . S
C463 U446 2.882 . S
C463 C457 1.428 . S
C463 O466 1.301 . S
C463 O467 1.282 . S
O464 U446 2.441 . S
O464 C450 1.249 . S
O465 U446 2.420 . S
O465 C450 1.202 . S
O466 U446 2.455 . S
O466 C463 1.301 . S
O467 U446 2.449 . S
O467 C463 1.282 . S
H468 C441 0.931 . S
H469 C443 0.929 . S
H470 C444 0.930 . S
H471 C445 0.931 . S
H472 C452 0.932 . S
H473 C453 0.930 . S
H474 C454 0.929 . S
H475 C456 0.930 . S
H476 C458 0.932 . S
H477 C459 0.929 . S
H478 C460 0.928 . S
H479 C462 0.932 . S
C480 C481 1.264 . S
C480 C485 1.479 . S
C480 C490 1.465 . S
C481 C480 1.264 . S
C481 C483 1.339 . S
C481 H508 0.931 . S
C482 C483 1.395 . S
C482 C484 1.320 . S
C483 C481 1.339 . S
C483 C482 1.395 . S
C483 H509 0.929 . S
C484 C482 1.320 . S
C484 C485 1.405 . S
C484 H510 0.930 . S
C485 C480 1.479 . S
C485 C484 1.405 . S
C485 H511 0.931 . S
U486 O487 2.454 . S
U486 O488 2.458 . S
U486 C489 2.984 . S
U486 C490 2.847 . S
U486 C503 2.882 . S
U486 O504 2.441 . S
U486 O505 2.420 . S
U486 O506 2.455 . S
U486 O507 2.449 . S
O487 U486 2.454 . S
O487 C489 1.353 . S
O488 U486 2.458 . S
O488 C489 1.286 . S
C489 U486 2.984 . S
C489 O487 1.353 . S
C489 O488 1.286 . S
C489 C491 1.363 . S
C490 C480 1.465 . S
C490 U486 2.847 . S
C490 O504 1.249 . S
C490 O505 1.202 . S
C491 C489 1.363 . S
C491 C493 1.408 . S
C491 C496 1.342 . S
C492 C493 1.310 . S
C492 C495 1.461 . S
C492 H512 0.932 . S
C493 C491 1.408 . S
C493 C492 1.310 . S
C493 H513 0.930 . S
C494 C495 1.474 . S
C494 C496 1.285 . S
C494 H514 0.929 . S
C495 C492 1.461 . S
C495 C494 1.474 . S
C496 C491 1.342 . S
C496 C494 1.285 . S
C496 H515 0.930 . S
C497 C500 1.424 . S
C497 C502 1.245 . S
C497 C503 1.428 . S
C498 C501 1.260 . S
C498 C502 1.477 . S
C498 H516 0.932 . S
C499 C500 1.384 . S
C499 C501 1.479 . S
C499 H517 0.929 . S
C500 C497 1.424 . S
C500 C499 1.384 . S
C500 H518 0.928 . S
C501 C498 1.260 . S
C501 C499 1.479 . S
C502 C497 1.245 . S
C502 C498 1.477 . S
C502 H519 0.932 . S
C503 U486 2.882 . S
C503 C497 1.428 . S
C503 O506 1.301 . S
C503 O507 1.282 . S
O504 U486 2.441 . S
O504 C490 1.249 . S
O505 U486 2.420 . S
O505 C490 1.202 . S
O506 U486 2.455 . S
O506 C503 1.301 . S
O507 U486 2.449 . S
O507 C503 1.282 . S
H508 C481 0.931 . S
H509 C483 0.929 . S
H510 C484 0.930 . S
H511 C485 0.931 . S
H512 C492 0.932 . S
H513 C493 0.930 . S
H514 C494 0.929 . S
H515 C496 0.930 . S
H516 C498 0.932 . S
H517 C499 0.929 . S
H518 C500 0.928 . S
H519 C502 0.932 . S
C520 C521 1.264 . S
C520 C525 1.479 . S
C520 C530 1.465 . S
C521 C520 1.264 . S
C521 C523 1.339 . S
C521 H548 0.931 . S
C522 C523 1.395 . S
C522 C524 1.320 . S
C523 C521 1.339 . S
C523 C522 1.395 . S
C523 H549 0.929 . S
C524 C522 1.320 . S
C524 C525 1.405 . S
C524 H550 0.930 . S
C525 C520 1.479 . S
C525 C524 1.405 . S
C525 H551 0.931 . S
U526 O527 2.454 . S
U526 O528 2.429 1_556 S
U526 C529 2.984 . S
U526 C530 2.847 . S
U526 C543 2.882 . S
U526 O544 2.441 . S
U526 O545 2.420 . S
U526 O546 2.455 . S
U526 O547 2.449 . S
O527 U526 2.454 . S
O527 C529 1.353 . S
O528 U526 2.429 1_554 S
O528 C529 1.284 1_554 S
C529 U526 2.984 . S
C529 O527 1.353 . S
C529 O528 1.284 1_556 S
C529 C531 1.363 1_556 S
C530 C520 1.465 . S
C530 U526 2.847 . S
C530 O544 1.249 . S
C530 O545 1.202 . S
C531 C529 1.363 1_554 S
C531 C533 1.408 . S
C531 C536 1.342 . S
C532 C533 1.310 . S
C532 C535 1.461 . S
C532 H552 0.932 . S
C533 C531 1.408 . S
C533 C532 1.310 . S
C533 H553 0.930 1_554 S
C534 C535 1.474 . S
C534 C536 1.285 . S
C534 H554 0.929 . S
C535 C532 1.461 . S
C535 C534 1.474 . S
C536 C531 1.342 . S
C536 C534 1.285 . S
C536 H555 0.930 . S
C537 C540 1.424 . S
C537 C542 1.248 1_556 S
C537 C543 1.428 . S
C538 C541 1.225 1_554 S
C538 C542 1.479 . S
C538 H556 0.973 . S
C539 C540 1.384 . S
C539 C541 1.479 . S
C539 H557 0.929 . S
C540 C537 1.424 . S
C540 C539 1.384 . S
C540 H558 0.928 . S
C541 C538 1.225 1_556 S
C541 C539 1.479 . S
C542 C537 1.248 1_554 S
C542 C538 1.479 . S
C542 H559 0.929 . S
C543 U526 2.882 . S
C543 C537 1.428 . S
C543 O546 1.301 . S
C543 O547 1.282 . S
O544 U526 2.441 . S
O544 C530 1.249 . S
O545 U526 2.420 . S
O545 C530 1.202 . S
O546 U526 2.455 . S
O546 C543 1.301 . S
O547 U526 2.449 . S
O547 C543 1.282 . S
H548 C521 0.931 . S
H549 C523 0.929 . S
H550 C524 0.930 . S
H551 C525 0.931 . S
H552 C532 0.932 . S
H553 C533 0.930 1_556 S
H554 C534 0.929 . S
H555 C536 0.930 . S
H556 C538 0.973 . S
H557 C539 0.929 . S
H558 C540 0.928 . S
H559 C542 0.929 . S
C560 C561 1.264 . S
C560 C565 1.479 . S
C560 C570 1.465 . S
C561 C560 1.264 . S
C561 C563 1.339 . S
C561 H588 0.931 . S
C562 C563 1.395 . S
C562 C564 1.320 . S
C563 C561 1.339 . S
C563 C562 1.395 . S
C563 H589 0.929 . S
C564 C562 1.320 . S
C564 C565 1.405 . S
C564 H590 0.930 . S
C565 C560 1.479 . S
C565 C564 1.405 . S
C565 H591 0.931 . S
U566 O567 2.454 . S
U566 O568 2.458 . S
U566 C569 2.984 . S
U566 C570 2.847 . S
U566 C583 2.882 . S
U566 O584 2.441 . S
U566 O585 2.420 . S
U566 O586 2.455 . S
U566 O587 2.449 . S
O567 U566 2.454 . S
O567 C569 1.353 . S
O568 U566 2.458 . S
O568 C569 1.286 . S
C569 U566 2.984 . S
C569 O567 1.353 . S
C569 O568 1.286 . S
C569 C571 1.363 . S
C570 C560 1.465 . S
C570 U566 2.847 . S
C570 O584 1.249 . S
C570 O585 1.202 . S
C571 C569 1.363 . S
C571 C573 1.408 . S
C571 C576 1.342 . S
C572 C573 1.310 . S
C572 C575 1.461 . S
C572 H592 0.932 . S
C573 C571 1.408 . S
C573 C572 1.310 . S
C573 H593 0.930 . S
C574 C575 1.474 . S
C574 C576 1.285 . S
C574 H594 0.929 . S
C575 C572 1.461 . S
C575 C574 1.474 . S
C576 C571 1.342 . S
C576 C574 1.285 . S
C576 H595 0.930 . S
C577 C580 1.424 . S
C577 C582 1.245 . S
C577 C583 1.428 . S
C578 C581 1.260 . S
C578 C582 1.477 . S
C578 H596 0.932 . S
C579 C580 1.384 . S
C579 C581 1.479 . S
C579 H597 0.929 . S
C580 C577 1.424 . S
C580 C579 1.384 . S
C580 H598 0.928 . S
C581 C578 1.260 . S
C581 C579 1.479 . S
C582 C577 1.245 . S
C582 C578 1.477 . S
C582 H599 0.932 . S
C583 U566 2.882 . S
C583 C577 1.428 . S
C583 O586 1.301 . S
C583 O587 1.282 . S
O584 U566 2.441 . S
O584 C570 1.249 . S
O585 U566 2.420 . S
O585 C570 1.202 . S
O586 U566 2.455 . S
O586 C583 1.301 . S
O587 U566 2.449 . S
O587 C583 1.282 . S
H588 C561 0.931 . S
H589 C563 0.929 . S
H590 C564 0.930 . S
H591 C565 0.931 . S
H592 C572 0.932 . S
H593 C573 0.930 . S
H594 C574 0.929 . S
H595 C576 0.930 . S
H596 C578 0.932 . S
H597 C579 0.929 . S
H598 C580 0.928 . S
H599 C582 0.932 . S
C600 C601 1.264 . S
C600 C605 1.479 . S
C600 C610 1.465 . S
C601 C600 1.264 . S
C601 C603 1.339 . S
C601 H628 0.931 . S
C602 C603 1.395 . S
C602 C604 1.320 . S
C603 C601 1.339 . S
C603 C602 1.395 . S
C603 H629 0.929 . S
C604 C602 1.320 . S
C604 C605 1.405 . S
C604 H630 0.930 . S
C605 C600 1.479 . S
C605 C604 1.405 . S
C605 H631 0.931 . S
U606 O607 2.454 . S
U606 O608 2.458 1_545 S
U606 C609 2.984 1_545 S
U606 C610 2.847 1_556 S
U606 C623 2.882 . S
U606 O624 2.441 1_556 S
U606 O625 2.433 . S
U606 O626 2.455 . S
U606 O627 2.449 . S
O607 U606 2.454 . S
O607 C609 1.353 1_545 S
O608 U606 2.458 1_565 S
O608 C609 1.286 . S
C609 U606 2.984 1_565 S
C609 O607 1.353 1_565 S
C609 O608 1.286 . S
C609 C611 1.363 . S
C610 C600 1.465 . S
C610 U606 2.847 1_554 S
C610 O624 1.249 . S
C610 O625 1.182 1_554 S
C611 C609 1.363 . S
C611 C613 1.408 1_556 S
C611 C616 1.342 . S
C612 C613 1.310 . S
C612 C615 1.461 1_554 S
C612 H632 0.932 . S
C613 C611 1.408 1_554 S
C613 C612 1.310 . S
C613 H633 0.930 . S
C614 C615 1.474 . S
C614 C616 1.285 . S
C614 H634 0.929 . S
C615 C612 1.461 1_556 S
C615 C614 1.474 . S
C616 C611 1.342 . S
C616 C614 1.285 . S
C616 H635 0.930 . S
C617 C620 1.424 . S
C617 C622 1.245 1_545 S
C617 C623 1.428 . S
C618 C621 1.260 1_565 S
C618 C622 1.477 . S
C618 H636 0.932 . S
C619 C620 1.384 . S
C619 C621 1.479 . S
C619 H637 0.929 . S
C620 C617 1.424 . S
C620 C619 1.384 . S
C620 H638 0.928 . S
C621 C618 1.260 1_545 S
C621 C619 1.479 . S
C622 C617 1.245 1_565 S
C622 C618 1.477 . S
C622 H639 0.932 . S
C623 U606 2.882 . S
C623 C617 1.428 . S
C623 O626 1.301 . S
C623 O627 1.282 . S
O624 U606 2.441 1_554 S
O624 C610 1.249 . S
O625 U606 2.433 . S
O625 C610 1.182 1_556 S
O626 U606 2.455 . S
O626 C623 1.301 . S
O627 U606 2.449 . S
O627 C623 1.282 . S
H628 C601 0.931 . S
H629 C603 0.929 . S
H630 C604 0.930 . S
H631 C605 0.931 . S
H632 C612 0.932 . S
H633 C613 0.930 . S
H634 C614 0.929 . S
H635 C616 0.930 . S
H636 C618 0.932 . S
H637 C619 0.929 . S
H638 C620 0.928 . S
H639 C622 0.932 . S
Mg640 O641 2.028 . S
Mg640 O647 1.986 1_554 S
Mg640 O649 2.114 . S
Mg640 O650 2.251 . S
Mg640 O653 2.010 . S
O641 Mg640 2.028 . S
O641 C644 1.249 1_554 S
O642 Mg643 2.028 . S
O642 C644 1.248 . S
Mg643 O642 2.028 . S
Mg643 O648 2.032 . S
Mg643 O650 2.079 1_556 S
C644 O641 1.249 1_556 S
C644 O642 1.248 . S
C645 O646 1.264 . S
C645 O653 1.249 . S
O646 C645 1.264 . S
O647 Mg640 1.986 1_556 S
O647 C651 1.246 . S
O648 Mg643 2.032 . S
O648 C651 1.259 . S
O649 Mg640 2.114 . S
O649 C652 1.252 . S
O650 Mg640 2.251 . S
O650 Mg643 2.079 1_554 S
O650 C652 1.273 . S
C651 O647 1.246 . S
C651 O648 1.259 . S
C652 O649 1.252 . S
C652 O650 1.273 . S
O653 Mg640 2.010 . S
O653 C645 1.249 . S
Mg654 O655 2.028 . S
Mg654 O661 1.986 . S
Mg654 O663 2.114 . S
Mg654 O664 2.251 . S
Mg654 O667 2.010 . S
O655 Mg654 2.028 . S
O655 C658 1.250 . S
O656 Mg657 2.028 . S
O656 C658 1.248 . S
Mg657 O656 2.028 . S
Mg657 O662 2.032 . S
Mg657 O664 2.079 . S
C658 O655 1.250 . S
C658 O656 1.248 . S
C659 O660 1.264 . S
C659 O667 1.249 . S
O660 C659 1.264 . S
O661 Mg654 1.986 . S
O661 C665 1.246 . S
O662 Mg657 2.032 . S
O662 C665 1.259 . S
O663 Mg654 2.114 . S
O663 C666 1.252 . S
O664 Mg654 2.251 . S
O664 Mg657 2.079 . S
O664 C666 1.273 . S
C665 O661 1.246 . S
C665 O662 1.259 . S
C666 O663 1.252 . S
C666 O664 1.273 . S
O667 Mg654 2.010 . S
O667 C659 1.249 . S
Mg668 O669 2.033 . S
Mg668 O675 1.986 1_554 S
Mg668 O677 2.114 . S
Mg668 O678 2.251 . S
Mg668 O681 2.010 . S
O669 Mg668 2.033 . S
O669 C672 1.246 1_554 S
O670 Mg671 2.028 . S
O670 C672 1.248 . S
Mg671 O670 2.028 . S
Mg671 O676 2.032 . S
Mg671 O678 2.079 1_556 S
C672 O669 1.246 1_556 S
C672 O670 1.248 . S
C673 O674 1.264 . S
C673 O681 1.249 . S
O674 C673 1.264 . S
O675 Mg668 1.986 1_556 S
O675 C679 1.246 . S
O676 Mg671 2.032 . S
O676 C679 1.259 . S
O677 Mg668 2.114 . S
O677 C680 1.252 . S
O678 Mg668 2.251 . S
O678 Mg671 2.079 1_554 S
O678 C680 1.273 . S
C679 O675 1.246 . S
C679 O676 1.259 . S
C680 O677 1.252 . S
C680 O678 1.273 . S
O681 Mg668 2.010 . S
O681 C673 1.249 . S
Mg682 O683 2.053 . S
Mg682 O689 1.986 . S
Mg682 O691 2.114 . S
Mg682 O692 2.251 . S
Mg682 O695 2.010 . S
O683 Mg682 2.053 . S
O683 C686 1.215 1_545 S
O684 Mg685 2.028 . S
O684 C686 1.248 . S
Mg685 O684 2.028 . S
Mg685 O690 2.032 . S
Mg685 O692 2.079 1_565 S
C686 O683 1.215 1_565 S
C686 O684 1.248 . S
C687 O688 1.264 . S
C687 O695 1.249 . S
O688 C687 1.264 . S
O689 Mg682 1.986 . S
O689 C693 1.246 . S
O690 Mg685 2.032 . S
O690 C693 1.259 1_565 S
O691 Mg682 2.114 . S
O691 C694 1.252 . S
O692 Mg682 2.251 . S
O692 Mg685 2.079 1_545 S
O692 C694 1.273 . S
C693 O689 1.246 . S
C693 O690 1.259 1_545 S
C694 O691 1.252 . S
C694 O692 1.273 . S
O695 Mg682 2.010 . S
O695 C687 1.249 . S
Mg696 O697 2.028 . S
Mg696 O703 1.986 . S
Mg696 O705 2.114 . S
Mg696 O706 2.251 . S
Mg696 O709 2.010 . S
O697 Mg696 2.028 . S
O697 C700 1.250 . S
O698 Mg699 2.028 . S
O698 C700 1.248 . S
Mg699 O698 2.028 . S
Mg699 O704 2.032 . S
Mg699 O706 2.079 . S
C700 O697 1.250 . S
C700 O698 1.248 . S
C701 O702 1.264 . S
C701 O709 1.249 . S
O702 C701 1.264 . S
O703 Mg696 1.986 . S
O703 C707 1.246 . S
O704 Mg699 2.032 . S
O704 C707 1.259 . S
O705 Mg696 2.114 . S
O705 C708 1.252 . S
O706 Mg696 2.251 . S
O706 Mg699 2.079 . S
O706 C708 1.273 . S
C707 O703 1.246 . S
C707 O704 1.259 . S
C708 O705 1.252 . S
C708 O706 1.273 . S
O709 Mg696 2.010 . S
O709 C701 1.249 . S
Mg710 O711 2.028 . S
Mg710 O717 1.986 . S
Mg710 O719 2.114 . S
Mg710 O720 2.251 . S
Mg710 O723 2.010 . S
O711 Mg710 2.028 . S
O711 C714 1.250 . S
O712 Mg713 2.028 . S
O712 C714 1.248 . S
Mg713 O712 2.028 . S
Mg713 O718 2.032 . S
Mg713 O720 2.079 . S
C714 O711 1.250 . S
C714 O712 1.248 . S
C715 O716 1.264 . S
C715 O723 1.249 . S
O716 C715 1.264 . S
O717 Mg710 1.986 . S
O717 C721 1.246 . S
O718 Mg713 2.032 . S
O718 C721 1.259 . S
O719 Mg710 2.114 . S
O719 C722 1.252 . S
O720 Mg710 2.251 . S
O720 Mg713 2.079 . S
O720 C722 1.273 . S
C721 O717 1.246 . S
C721 O718 1.259 . S
C722 O719 1.252 . S
C722 O720 1.273 . S
O723 Mg710 2.010 . S
O723 C715 1.249 . S
Mg724 O725 2.028 . S
Mg724 O731 1.986 . S
Mg724 O733 2.114 . S
Mg724 O734 2.251 . S
Mg724 O737 2.010 . S
O725 Mg724 2.028 . S
O725 C728 1.250 . S
O726 Mg727 2.028 . S
O726 C728 1.248 . S
Mg727 O726 2.028 . S
Mg727 O732 2.032 . S
Mg727 O734 2.079 . S
C728 O725 1.250 . S
C728 O726 1.248 . S
C729 O730 1.264 . S
C729 O737 1.249 . S
O730 C729 1.264 . S
O731 Mg724 1.986 . S
O731 C735 1.246 . S
O732 Mg727 2.032 . S
O732 C735 1.259 . S
O733 Mg724 2.114 . S
O733 C736 1.252 . S
O734 Mg724 2.251 . S
O734 Mg727 2.079 . S
O734 C736 1.273 . S
C735 O731 1.246 . S
C735 O732 1.259 . S
C736 O733 1.252 . S
C736 O734 1.273 . S
O737 Mg724 2.010 . S
O737 C729 1.249 . S
Mg738 O739 2.028 1_545 S
Mg738 O745 1.986 1_545 S
Mg738 O747 2.114 . S
Mg738 O748 2.251 . S
Mg738 O751 2.010 . S
O739 Mg738 2.028 1_565 S
O739 C742 1.250 . S
O740 Mg741 2.028 . S
O740 C742 1.248 . S
Mg741 O740 2.028 . S
Mg741 O746 2.032 . S
Mg741 O748 2.079 1_565 S
C742 O739 1.250 . S
C742 O740 1.248 . S
C743 O744 1.264 . S
C743 O751 1.249 . S
O744 C743 1.264 . S
O745 Mg738 1.986 1_565 S
O745 C749 1.246 . S
O746 Mg741 2.032 . S
O746 C749 1.259 . S
O747 Mg738 2.114 . S
O747 C750 1.252 . S
O748 Mg738 2.251 . S
O748 Mg741 2.079 1_545 S
O748 C750 1.273 . S
C749 O745 1.246 . S
C749 O746 1.259 . S
C750 O747 1.252 . S
C750 O748 1.273 . S
O751 Mg738 2.010 . S
O751 C743 1.249 . S
Mg752 O753 2.028 . S
Mg752 O759 1.986 . S
Mg752 O761 2.114 . S
Mg752 O762 2.251 . S
Mg752 O765 2.010 . S
O753 Mg752 2.028 . S
O753 C756 1.250 1_455 S
O754 Mg755 2.028 . S
O754 C756 1.248 . S
Mg755 O754 2.028 . S
Mg755 O760 2.032 . S
Mg755 O762 2.079 1_655 S
C756 O753 1.250 1_655 S
C756 O754 1.248 . S
C757 O758 1.264 . S
C757 O765 1.249 . S
O758 C757 1.264 . S
O759 Mg752 1.986 . S
O759 C763 1.246 . S
O760 Mg755 2.032 . S
O760 C763 1.259 1_655 S
O761 Mg752 2.114 . S
O761 C764 1.252 . S
O762 Mg752 2.251 . S
O762 Mg755 2.079 1_455 S
O762 C764 1.273 . S
C763 O759 1.246 . S
C763 O760 1.259 1_455 S
C764 O761 1.252 . S
C764 O762 1.273 . S
O765 Mg752 2.010 . S
O765 C757 1.249 . S
Mg766 O767 2.028 . S
Mg766 O773 1.986 . S
Mg766 O775 2.114 . S
Mg766 O776 2.251 . S
Mg766 O779 2.010 . S
O767 Mg766 2.028 . S
O767 C770 1.250 . S
O768 Mg769 2.028 . S
O768 C770 1.248 . S
Mg769 O768 2.028 . S
Mg769 O774 2.032 . S
Mg769 O776 2.079 . S
C770 O767 1.250 . S
C770 O768 1.248 . S
C771 O772 1.264 . S
C771 O779 1.249 . S
O772 C771 1.264 . S
O773 Mg766 1.986 . S
O773 C777 1.246 . S
O774 Mg769 2.032 . S
O774 C777 1.259 . S
O775 Mg766 2.114 . S
O775 C778 1.252 . S
O776 Mg766 2.251 . S
O776 Mg769 2.079 . S
O776 C778 1.273 . S
C777 O773 1.246 . S
C777 O774 1.259 . S
C778 O775 1.252 . S
C778 O776 1.273 . S
O779 Mg766 2.010 . S
O779 C771 1.249 . S
Mg780 O781 2.028 1_655 S
Mg780 O787 1.998 . S
Mg780 O789 2.114 . S
Mg780 O790 2.251 1_655 S
Mg780 O793 2.010 . S
O781 Mg780 2.028 1_455 S
O781 C784 1.250 . S
O782 Mg783 2.028 . S
O782 C784 1.248 . S
Mg783 O782 2.028 . S
Mg783 O788 2.032 . S
Mg783 O790 2.079 . S
C784 O781 1.250 . S
C784 O782 1.248 . S
C785 O786 1.264 . S
C785 O793 1.249 . S
O786 C785 1.264 . S
O787 Mg780 1.998 . S
O787 C791 1.213 1_655 S
O788 Mg783 2.032 . S
O788 C791 1.259 . S
O789 Mg780 2.114 . S
O789 C792 1.252 . S
O790 Mg780 2.251 1_455 S
O790 Mg783 2.079 . S
O790 C792 1.273 1_455 S
C791 O787 1.213 1_455 S
C791 O788 1.259 . S
C792 O789 1.252 . S
C792 O790 1.273 1_655 S
O793 Mg780 2.010 . S
O793 C785 1.249 . S
Mg794 O795 2.028 . S
Mg794 O801 1.986 . S
Mg794 O803 2.114 . S
Mg794 O804 2.251 . S
Mg794 O807 2.010 . S
O795 Mg794 2.028 . S
O795 C798 1.250 . S
O796 Mg797 2.028 . S
O796 C798 1.248 . S
Mg797 O796 2.028 . S
Mg797 O802 2.032 . S
Mg797 O804 2.079 . S
C798 O795 1.250 . S
C798 O796 1.248 . S
C799 O800 1.264 . S
C799 O807 1.249 . S
O800 C799 1.264 . S
O801 Mg794 1.986 . S
O801 C805 1.246 . S
O802 Mg797 2.032 . S
O802 C805 1.259 . S
O803 Mg794 2.114 . S
O803 C806 1.252 . S
O804 Mg794 2.251 . S
O804 Mg797 2.079 . S
O804 C806 1.273 . S
C805 O801 1.246 . S
C805 O802 1.259 . S
C806 O803 1.252 . S
C806 O804 1.273 . S
O807 Mg794 2.010 . S
O807 C799 1.249 . S
C808 C809 1.387 . S
C808 H812 0.950 . S
C808 C817 1.390 . S
C809 C808 1.387 . S
C809 C811 1.387 . S
H810 C817 0.950 . S
C811 C809 1.387 . S
C811 C813 1.390 . S
C811 H815 0.950 . S
H812 C808 0.950 . S
C813 C811 1.390 . S
C813 C814 1.387 . S
C813 H816 0.950 . S
C814 C813 1.387 . S
C814 C817 1.387 . S
H815 C811 0.950 . S
H816 C813 0.950 . S
C817 C808 1.390 . S
C817 H810 0.950 . S
C817 C814 1.387 . S
C818 C819 1.387 . S
C818 H822 0.950 . S
C818 C827 1.390 . S
C819 C818 1.387 . S
C819 C821 1.387 . S
H820 C827 0.950 . S
C821 C819 1.387 . S
C821 C823 1.390 . S
C821 H825 0.950 . S
H822 C818 0.950 . S
C823 C821 1.390 . S
C823 C824 1.387 . S
C823 H826 0.950 . S
C824 C823 1.387 . S
C824 C827 1.387 . S
H825 C821 0.950 . S
H826 C823 0.950 . S
C827 C818 1.390 . S
C827 H820 0.950 . S
C827 C824 1.387 . S
C828 C829 1.387 . S
C828 H832 0.950 . S
C828 C837 1.390 . S
C829 C828 1.387 . S
C829 C831 1.387 . S
H830 C837 0.950 . S
C831 C829 1.387 . S
C831 C833 1.390 . S
C831 H835 0.950 . S
H832 C828 0.950 . S
C833 C831 1.390 . S
C833 C834 1.387 . S
C833 H836 0.950 . S
C834 C833 1.387 . S
C834 C837 1.387 . S
H835 C831 0.950 . S
H836 C833 0.950 . S
C837 C828 1.390 . S
C837 H830 0.950 . S
C837 C834 1.387 . S
C838 C839 1.387 1_545 S
C838 H842 0.950 . S
C838 C847 1.390 . S
C839 C838 1.387 1_565 S
C839 C841 1.387 . S
H840 C847 0.950 . S
C841 C839 1.387 . S
C841 C843 1.390 . S
C841 H845 0.950 . S
H842 C838 0.950 . S
C843 C841 1.390 . S
C843 C844 1.387 1_565 S
C843 H846 0.950 . S
C844 C843 1.387 1_545 S
C844 C847 1.387 . S
H845 C841 0.950 . S
H846 C843 0.950 . S
C847 C838 1.390 . S
C847 H840 0.950 . S
C847 C844 1.387 . S
C848 C849 1.387 . S
C848 H852 0.950 . S
C848 C857 1.390 . S
C849 C848 1.387 . S
C849 C851 1.387 . S
H850 C857 0.950 . S
C851 C849 1.387 . S
C851 C853 1.390 . S
C851 H855 0.950 . S
H852 C848 0.950 . S
C853 C851 1.390 . S
C853 C854 1.387 . S
C853 H856 0.950 . S
C854 C853 1.387 . S
C854 C857 1.387 . S
H855 C851 0.950 . S
H856 C853 0.950 . S
C857 C848 1.390 . S
C857 H850 0.950 . S
C857 C854 1.387 . S
C858 C859 1.387 . S
C858 H862 0.950 . S
C858 C867 1.390 . S
C859 C858 1.387 . S
C859 C861 1.387 . S
H860 C867 0.950 . S
C861 C859 1.387 . S
C861 C863 1.390 . S
C861 H865 0.950 . S
H862 C858 0.950 . S
C863 C861 1.390 . S
C863 C864 1.387 . S
C863 H866 0.950 . S
C864 C863 1.387 . S
C864 C867 1.387 . S
H865 C861 0.950 . S
H866 C863 0.950 . S
C867 C858 1.390 . S
C867 H860 0.950 . S
C867 C864 1.387 . S
C868 C869 1.387 . S
C868 H872 0.950 . S
C868 C877 1.390 . S
C869 C868 1.387 . S
C869 C871 1.387 . S
H870 C877 0.950 . S
C871 C869 1.387 . S
C871 C873 1.390 . S
C871 H875 0.950 . S
H872 C868 0.950 . S
C873 C871 1.390 . S
C873 C874 1.387 . S
C873 H876 0.950 . S
C874 C873 1.387 . S
C874 C877 1.387 . S
H875 C871 0.950 . S
H876 C873 0.950 . S
C877 C868 1.390 . S
C877 H870 0.950 . S
C877 C874 1.387 . S
C878 C879 1.387 1_545 S
C878 H882 0.950 . S
C878 C887 1.390 . S
C879 C878 1.387 1_565 S
C879 C881 1.387 . S
H880 C887 0.950 . S
C881 C879 1.387 . S
C881 C883 1.390 . S
C881 H885 0.950 . S
H882 C878 0.950 . S
C883 C881 1.390 . S
C883 C884 1.387 . S
C883 H886 0.950 . S
C884 C883 1.387 . S
C884 C887 1.387 1_565 S
H885 C881 0.950 . S
H886 C883 0.950 . S
C887 C878 1.390 . S
C887 H880 0.950 . S
C887 C884 1.387 1_545 S
C888 C889 1.387 . S
C888 H892 0.950 . S
C888 C897 1.390 . S
C889 C888 1.387 . S
C889 C891 1.387 . S
H890 C897 0.950 . S
C891 C889 1.387 . S
C891 C893 1.390 . S
C891 H895 0.950 . S
H892 C888 0.950 . S
C893 C891 1.390 . S
C893 C894 1.387 . S
C893 H896 0.950 . S
C894 C893 1.387 . S
C894 C897 1.387 . S
H895 C891 0.950 . S
H896 C893 0.950 . S
C897 C888 1.390 . S
C897 H890 0.950 . S
C897 C894 1.387 . S
C898 C899 1.387 . S
C898 H902 0.950 . S
C898 C907 1.390 . S
C899 C898 1.387 . S
C899 C901 1.387 . S
H900 C907 0.950 . S
C901 C899 1.387 . S
C901 C903 1.390 . S
C901 H905 0.950 . S
H902 C898 0.950 . S
C903 C901 1.390 . S
C903 C904 1.387 . S
C903 H906 0.950 . S
C904 C903 1.387 . S
C904 C907 1.387 . S
H905 C901 0.950 . S
H906 C903 0.950 . S
C907 C898 1.390 . S
C907 H900 0.950 . S
C907 C904 1.387 . S
C908 C909 1.387 . S
C908 H912 0.950 . S
C908 C917 1.390 . S
C909 C908 1.387 . S
C909 C911 1.387 . S
H910 C917 0.950 . S
C911 C909 1.387 . S
C911 C913 1.390 . S
C911 H915 0.950 . S
H912 C908 0.950 . S
C913 C911 1.390 . S
C913 C914 1.387 . S
C913 H916 0.950 . S
C914 C913 1.387 . S
C914 C917 1.387 . S
H915 C911 0.950 . S
H916 C913 0.950 . S
C917 C908 1.390 . S
C917 H910 0.950 . S
C917 C914 1.387 . S
C918 C919 1.387 . S
C918 H922 0.950 . S
C918 C927 1.390 . S
C919 C918 1.387 . S
C919 C921 1.387 . S
H920 C927 0.950 . S
C921 C919 1.387 . S
C921 C923 1.390 . S
C921 H925 0.950 . S
H922 C918 0.950 . S
C923 C921 1.390 . S
C923 C924 1.387 . S
C923 H926 0.950 . S
C924 C923 1.387 . S
C924 C927 1.387 . S
H925 C921 0.950 . S
H926 C923 0.950 . S
C927 C918 1.390 . S
C927 H920 0.950 . S
C927 C924 1.387 . S
C928 C929 1.387 . S
C928 H932 0.950 . S
C928 C937 1.390 . S
C929 C928 1.387 . S
C929 C931 1.387 . S
H930 C937 0.950 . S
C931 C929 1.387 . S
C931 C933 1.390 . S
C931 H935 0.950 . S
H932 C928 0.950 . S
C933 C931 1.390 . S
C933 C934 1.387 . S
C933 H936 0.950 . S
C934 C933 1.387 . S
C934 C937 1.387 . S
H935 C931 0.950 . S
H936 C933 0.950 . S
C937 C928 1.390 . S
C937 H930 0.950 . S
C937 C934 1.387 . S
C938 C939 1.387 . S
C938 H942 0.950 . S
C938 C947 1.390 . S
C939 C938 1.387 . S
C939 C941 1.387 . S
H940 C947 0.950 . S
C941 C939 1.387 . S
C941 C943 1.389 . S
C941 H945 0.950 1_455 S
H942 C938 0.950 . S
C943 C941 1.389 . S
C943 C944 1.384 . S
C943 H946 0.954 1_455 S
C944 C943 1.384 . S
C944 C947 1.387 . S
H945 C941 0.950 1_655 S
H946 C943 0.954 1_655 S
C947 C938 1.390 . S
C947 H940 0.950 . S
C947 C944 1.387 . S
C948 C949 1.387 . S
C948 H952 0.950 . S
C948 C957 1.390 . S
C949 C948 1.387 . S
C949 C951 1.387 . S
H950 C957 0.950 . S
C951 C949 1.387 . S
C951 C953 1.390 . S
C951 H955 0.950 . S
H952 C948 0.950 . S
C953 C951 1.390 . S
C953 C954 1.387 . S
C953 H956 0.950 . S
C954 C953 1.387 . S
C954 C957 1.387 . S
H955 C951 0.950 . S
H956 C953 0.950 . S
C957 C948 1.390 . S
C957 H950 0.950 . S
C957 C954 1.387 . S
C958 C959 1.387 1_455 S
C958 H962 0.950 . S
C958 C967 1.390 . S
C959 C958 1.387 1_655 S
C959 C961 1.387 . S
H960 C967 0.950 . S
C961 C959 1.387 . S
C961 C963 1.390 . S
C961 H965 0.950 . S
H962 C958 0.950 . S
C963 C961 1.390 . S
C963 C964 1.387 . S
C963 H966 0.950 . S
C964 C963 1.387 . S
C964 C967 1.387 1_655 S
H965 C961 0.950 . S
H966 C963 0.950 . S
C967 C958 1.390 . S
C967 H960 0.950 . S
C967 C964 1.387 1_455 S
C968 C969 1.387 . S
C968 H972 0.950 . S
C968 C977 1.390 . S
C969 C968 1.387 . S
C969 C971 1.387 . S
H970 C977 0.950 . S
C971 C969 1.387 . S
C971 C973 1.390 . S
C971 H975 0.950 . S
H972 C968 0.950 . S
C973 C971 1.390 . S
C973 C974 1.387 . S
C973 H976 0.950 . S
C974 C973 1.387 . S
C974 C977 1.387 . S
H975 C971 0.950 . S
H976 C973 0.950 . S
C977 C968 1.390 . S
C977 H970 0.950 . S
C977 C974 1.387 . S
C978 C979 1.387 . S
C978 H982 0.950 . S
C978 C987 1.390 . S
C979 C978 1.387 . S
C979 C981 1.387 . S
H980 C987 0.950 . S
C981 C979 1.387 . S
C981 C983 1.390 . S
C981 H985 0.950 . S
H982 C978 0.950 . S
C983 C981 1.390 . S
C983 C984 1.387 . S
C983 H986 0.950 . S
C984 C983 1.387 . S
C984 C987 1.387 . S
H985 C981 0.950 . S
H986 C983 0.950 . S
C987 C978 1.390 . S
C987 H980 0.950 . S
C987 C984 1.387 . S
C988 C989 1.387 . S
C988 H992 0.950 . S
C988 C997 1.390 . S
C989 C988 1.387 . S
C989 C991 1.387 1_556 S
H990 C997 0.950 . S
C991 C989 1.387 1_554 S
C991 C993 1.390 . S
C991 H995 0.950 . S
H992 C988 0.950 . S
C993 C991 1.390 . S
C993 C994 1.387 1_554 S
C993 H996 0.950 . S
C994 C993 1.387 1_556 S
C994 C997 1.387 . S
H995 C991 0.950 . S
H996 C993 0.950 . S
C997 C988 1.390 . S
C997 H990 0.950 . S
C997 C994 1.387 . S
C998 C999 1.387 . S
C998 H1002 0.950 . S
C998 C1007 1.390 . S
C999 C998 1.387 . S
C999 C1001 1.387 . S
H1000 C1007 0.950 . S
C1001 C999 1.387 . S
C1001 C1003 1.390 . S
C1001 H1005 0.950 . S
H1002 C998 0.950 . S
C1003 C1001 1.390 . S
C1003 C1004 1.387 . S
C1003 H1006 0.950 . S
C1004 C1003 1.387 . S
C1004 C1007 1.387 . S
H1005 C1001 0.950 . S
H1006 C1003 0.950 . S
C1007 C998 1.390 . S
C1007 H1000 0.950 . S
C1007 C1004 1.387 . S
C1008 C1009 1.387 . S
C1008 H1012 0.950 . S
C1008 C1017 1.390 . S
C1009 C1008 1.387 . S
C1009 C1011 1.387 . S
H1010 C1017 0.950 . S
C1011 C1009 1.387 . S
C1011 C1013 1.390 . S
C1011 H1015 0.950 . S
H1012 C1008 0.950 . S
C1013 C1011 1.390 . S
C1013 C1014 1.387 . S
C1013 H1016 0.950 . S
C1014 C1013 1.387 . S
C1014 C1017 1.387 . S
H1015 C1011 0.950 . S
H1016 C1013 0.950 . S
C1017 C1008 1.390 . S
C1017 H1010 0.950 . S
C1017 C1014 1.387 . S
C1018 C1019 1.387 . S
C1018 H1022 0.950 . S
C1018 C1027 1.390 . S
C1019 C1018 1.387 . S
C1019 C1021 1.387 . S
H1020 C1027 0.950 . S
C1021 C1019 1.387 . S
C1021 C1023 1.390 . S
C1021 H1025 0.950 . S
H1022 C1018 0.950 . S
C1023 C1021 1.390 . S
C1023 C1024 1.387 . S
C1023 H1026 0.950 . S
C1024 C1023 1.387 . S
C1024 C1027 1.387 . S
H1025 C1021 0.950 . S
H1026 C1023 0.950 . S
C1027 C1018 1.390 . S
C1027 H1020 0.950 . S
C1027 C1024 1.387 . S
C1028 C1029 1.387 . S
C1028 H1032 0.950 . S
C1028 C1037 1.390 . S
C1029 C1028 1.387 . S
C1029 C1031 1.387 . S
H1030 C1037 0.950 . S
C1031 C1029 1.387 . S
C1031 C1033 1.390 . S
C1031 H1035 0.950 . S
H1032 C1028 0.950 . S
C1033 C1031 1.390 . S
C1033 C1034 1.387 . S
C1033 H1036 0.950 . S
C1034 C1033 1.387 . S
C1034 C1037 1.387 . S
H1035 C1031 0.950 . S
H1036 C1033 0.950 . S
C1037 C1028 1.390 . S
C1037 H1030 0.950 . S
C1037 C1034 1.387 . S
C1038 C1039 1.387 . S
C1038 H1042 0.950 . S
C1038 C1047 1.390 . S
C1039 C1038 1.387 . S
C1039 C1041 1.387 . S
H1040 C1047 0.950 . S
C1041 C1039 1.387 . S
C1041 C1043 1.390 . S
C1041 H1045 0.950 . S
H1042 C1038 0.950 . S
C1043 C1041 1.390 . S
C1043 C1044 1.387 . S
C1043 H1046 0.950 . S
C1044 C1043 1.387 . S
C1044 C1047 1.387 . S
H1045 C1041 0.950 . S
H1046 C1043 0.950 . S
C1047 C1038 1.390 . S
C1047 H1040 0.950 . S
C1047 C1044 1.387 . S
C1048 C1049 1.387 . S
C1048 H1052 0.950 . S
C1048 C1057 1.390 . S
C1049 C1048 1.387 . S
C1049 C1051 1.387 . S
H1050 C1057 0.950 . S
C1051 C1049 1.387 . S
C1051 C1053 1.390 . S
C1051 H1055 0.950 . S
H1052 C1048 0.950 . S
C1053 C1051 1.390 . S
C1053 C1054 1.387 . S
C1053 H1056 0.950 . S
C1054 C1053 1.387 . S
C1054 C1057 1.387 . S
H1055 C1051 0.950 . S
H1056 C1053 0.950 . S
C1057 C1048 1.390 . S
C1057 H1050 0.950 . S
C1057 C1054 1.387 . S
C1058 C1059 1.387 1_565 S
C1058 H1062 0.950 . S
C1058 C1067 1.390 . S
C1059 C1058 1.387 1_545 S
C1059 C1061 1.387 . S
H1060 C1067 0.950 . S
C1061 C1059 1.387 . S
C1061 C1063 1.390 . S
C1061 H1065 0.950 . S
H1062 C1058 0.950 . S
C1063 C1061 1.390 . S
C1063 C1064 1.387 . S
C1063 H1066 0.950 . S
C1064 C1063 1.387 . S
C1064 C1067 1.387 1_545 S
H1065 C1061 0.950 . S
H1066 C1063 0.950 . S
C1067 C1058 1.390 . S
C1067 H1060 0.950 . S
C1067 C1064 1.387 1_565 S
C1068 C1069 1.387 . S
C1068 H1072 0.950 . S
C1068 C1077 1.390 . S
C1069 C1068 1.387 . S
C1069 C1071 1.387 . S
H1070 C1077 0.950 . S
C1071 C1069 1.387 . S
C1071 C1073 1.390 . S
C1071 H1075 0.950 . S
H1072 C1068 0.950 . S
C1073 C1071 1.390 . S
C1073 C1074 1.387 . S
C1073 H1076 0.950 . S
C1074 C1073 1.387 . S
C1074 C1077 1.387 . S
H1075 C1071 0.950 . S
H1076 C1073 0.950 . S
C1077 C1068 1.390 . S
C1077 H1070 0.950 . S
C1077 C1074 1.387 . S
C1078 C1079 1.387 . S
C1078 H1082 0.950 . S
C1078 C1087 1.390 . S
C1079 C1078 1.387 . S
C1079 C1081 1.387 . S
H1080 C1087 0.950 . S
C1081 C1079 1.387 . S
C1081 C1083 1.390 . S
C1081 H1085 0.950 . S
H1082 C1078 0.950 . S
C1083 C1081 1.390 . S
C1083 C1084 1.387 . S
C1083 H1086 0.950 . S
C1084 C1083 1.387 . S
C1084 C1087 1.387 . S
H1085 C1081 0.950 . S
H1086 C1083 0.950 . S
C1087 C1078 1.390 . S
C1087 H1080 0.950 . S
C1087 C1084 1.387 . S
C1088 C1089 1.387 . S
C1088 H1092 0.950 . S
C1088 C1097 1.390 . S
C1089 C1088 1.387 . S
C1089 C1091 1.387 . S
H1090 C1097 0.950 . S
C1091 C1089 1.387 . S
C1091 C1093 1.390 . S
C1091 H1095 0.950 . S
H1092 C1088 0.950 . S
C1093 C1091 1.390 . S
C1093 C1094 1.387 . S
C1093 H1096 0.950 . S
C1094 C1093 1.387 . S
C1094 C1097 1.387 . S
H1095 C1091 0.950 . S
H1096 C1093 0.950 . S
C1097 C1088 1.390 . S
C1097 H1090 0.950 . S
C1097 C1094 1.387 . S
C1098 C1099 1.387 . S
C1098 H1102 0.950 . S
C1098 C1107 1.390 . S
C1099 C1098 1.387 . S
C1099 C1101 1.387 1_545 S
H1100 C1107 0.950 . S
C1101 C1099 1.387 1_565 S
C1101 C1103 1.390 . S
C1101 H1105 0.950 . S
H1102 C1098 0.950 . S
C1103 C1101 1.390 . S
C1103 C1104 1.387 1_565 S
C1103 H1106 0.950 . S
C1104 C1103 1.387 1_545 S
C1104 C1107 1.387 . S
H1105 C1101 0.950 . S
H1106 C1103 0.950 . S
C1107 C1098 1.390 . S
C1107 H1100 0.950 . S
C1107 C1104 1.387 . S
C1108 C1109 1.387 . S
C1108 H1112 0.950 . S
C1108 C1117 1.390 . S
C1109 C1108 1.387 . S
C1109 C1111 1.387 . S
H1110 C1117 0.950 . S
C1111 C1109 1.387 . S
C1111 C1113 1.390 . S
C1111 H1115 0.950 . S
H1112 C1108 0.950 . S
C1113 C1111 1.390 . S
C1113 C1114 1.387 . S
C1113 H1116 0.950 . S
C1114 C1113 1.387 . S
C1114 C1117 1.387 . S
H1115 C1111 0.950 . S
H1116 C1113 0.950 . S
C1117 C1108 1.390 . S
C1117 H1110 0.950 . S
C1117 C1114 1.387 . S
C1118 C1119 1.387 . S
C1118 H1122 0.950 . S
C1118 C1127 1.390 . S
C1119 C1118 1.387 . S
C1119 C1121 1.387 . S
H1120 C1127 0.950 . S
C1121 C1119 1.387 . S
C1121 C1123 1.390 . S
C1121 H1125 0.950 . S
H1122 C1118 0.950 . S
C1123 C1121 1.390 . S
C1123 C1124 1.387 . S
C1123 H1126 0.950 . S
C1124 C1123 1.387 . S
C1124 C1127 1.387 . S
H1125 C1121 0.950 . S
H1126 C1123 0.950 . S
C1127 C1118 1.390 . S
C1127 H1120 0.950 . S
C1127 C1124 1.387 . S
C1128 C1129 1.387 . S
C1128 H1132 0.950 . S
C1128 C1137 1.390 . S
C1129 C1128 1.387 . S
C1129 C1131 1.387 . S
H1130 C1137 0.950 . S
C1131 C1129 1.387 . S
C1131 C1133 1.390 . S
C1131 H1135 0.950 . S
H1132 C1128 0.950 . S
C1133 C1131 1.390 . S
C1133 C1134 1.387 . S
C1133 H1136 0.950 . S
C1134 C1133 1.387 . S
C1134 C1137 1.387 . S
H1135 C1131 0.950 . S
H1136 C1133 0.950 . S
C1137 C1128 1.390 . S
C1137 H1130 0.950 . S
C1137 C1134 1.387 . S
C1138 C1139 1.387 . S
C1138 H1142 0.950 . S
C1138 C1147 1.390 . S
C1139 C1138 1.387 . S
C1139 C1141 1.387 . S
H1140 C1147 0.950 . S
C1141 C1139 1.387 . S
C1141 C1143 1.390 . S
C1141 H1145 0.950 . S
H1142 C1138 0.950 . S
C1143 C1141 1.390 . S
C1143 C1144 1.387 . S
C1143 H1146 0.950 . S
C1144 C1143 1.387 . S
C1144 C1147 1.387 . S
H1145 C1141 0.950 . S
H1146 C1143 0.950 . S
C1147 C1138 1.390 . S
C1147 H1140 0.950 . S
C1147 C1144 1.387 . S
C1148 C1149 1.387 . S
C1148 H1152 0.950 . S
C1148 C1157 1.390 . S
C1149 C1148 1.387 . S
C1149 C1151 1.387 . S
H1150 C1157 0.950 . S
C1151 C1149 1.387 . S
C1151 C1153 1.390 . S
C1151 H1155 0.950 . S
H1152 C1148 0.950 . S
C1153 C1151 1.390 . S
C1153 C1154 1.387 . S
C1153 H1156 0.950 . S
C1154 C1153 1.387 . S
C1154 C1157 1.387 . S
H1155 C1151 0.950 . S
H1156 C1153 0.950 . S
C1157 C1148 1.390 . S
C1157 H1150 0.950 . S
C1157 C1154 1.387 . S
C1158 C1159 1.387 1_655 S
C1158 H1162 0.950 . S
C1158 C1167 1.390 . S
C1159 C1158 1.387 1_455 S
C1159 C1161 1.387 . S
H1160 C1167 0.950 . S
C1161 C1159 1.387 . S
C1161 C1163 1.390 . S
C1161 H1165 0.950 . S
H1162 C1158 0.950 . S
C1163 C1161 1.390 . S
C1163 C1164 1.387 . S
C1163 H1166 0.950 . S
C1164 C1163 1.387 . S
C1164 C1167 1.387 1_455 S
H1165 C1161 0.950 . S
H1166 C1163 0.950 . S
C1167 C1158 1.390 . S
C1167 H1160 0.950 . S
C1167 C1164 1.387 1_655 S
C1168 C1169 1.387 . S
C1168 H1172 0.950 . S
C1168 C1177 1.390 . S
C1169 C1168 1.387 . S
C1169 C1171 1.387 . S
H1170 C1177 0.950 . S
C1171 C1169 1.387 . S
C1171 C1173 1.390 . S
C1171 H1175 0.950 . S
H1172 C1168 0.950 . S
C1173 C1171 1.390 . S
C1173 C1174 1.387 . S
C1173 H1176 0.950 . S
C1174 C1173 1.387 . S
C1174 C1177 1.387 . S
H1175 C1171 0.950 . S
H1176 C1173 0.950 . S
C1177 C1168 1.390 . S
C1177 H1170 0.950 . S
C1177 C1174 1.387 . S
C1178 C1179 1.387 . S
C1178 H1182 0.950 . S
C1178 C1187 1.390 . S
C1179 C1178 1.387 . S
C1179 C1181 1.387 . S
H1180 C1187 0.950 . S
C1181 C1179 1.387 . S
C1181 C1183 1.390 . S
C1181 H1185 0.950 . S
H1182 C1178 0.950 . S
C1183 C1181 1.390 . S
C1183 C1184 1.387 . S
C1183 H1186 0.950 . S
C1184 C1183 1.387 . S
C1184 C1187 1.387 . S
H1185 C1181 0.950 . S
H1186 C1183 0.950 . S
C1187 C1178 1.390 . S
C1187 H1180 0.950 . S
C1187 C1184 1.387 . S
C1188 C1189 1.387 . S
C1188 H1192 0.950 . S
C1188 C1197 1.390 . S
C1189 C1188 1.387 . S
C1189 C1191 1.387 . S
H1190 C1197 0.950 . S
C1191 C1189 1.387 . S
C1191 C1193 1.390 . S
C1191 H1195 0.950 . S
H1192 C1188 0.950 . S
C1193 C1191 1.390 . S
C1193 C1194 1.387 . S
C1193 H1196 0.950 . S
C1194 C1193 1.387 . S
C1194 C1197 1.387 . S
H1195 C1191 0.950 . S
H1196 C1193 0.950 . S
C1197 C1188 1.390 . S
C1197 H1190 0.950 . S
C1197 C1194 1.387 . S
C1198 C1199 1.387 . S
C1198 H1202 0.950 . S
C1198 C1207 1.390 . S
C1199 C1198 1.387 . S
C1199 C1201 1.387 . S
H1200 C1207 0.950 . S
C1201 C1199 1.387 . S
C1201 C1203 1.390 . S
C1201 H1205 0.950 . S
H1202 C1198 0.950 . S
C1203 C1201 1.390 . S
C1203 C1204 1.387 . S
C1203 H1206 0.950 . S
C1204 C1203 1.387 . S
C1204 C1207 1.387 . S
H1205 C1201 0.950 . S
H1206 C1203 0.950 . S
C1207 C1198 1.390 . S
C1207 H1200 0.950 . S
C1207 C1204 1.387 . S
C1208 C1209 1.387 . S
C1208 H1212 0.950 . S
C1208 C1217 1.390 . S
C1209 C1208 1.387 . S
C1209 C1211 1.387 . S
H1210 C1217 0.950 . S
C1211 C1209 1.387 . S
C1211 C1213 1.390 . S
C1211 H1215 0.950 . S
H1212 C1208 0.950 . S
C1213 C1211 1.390 . S
C1213 C1214 1.387 . S
C1213 H1216 0.950 . S
C1214 C1213 1.387 . S
C1214 C1217 1.387 . S
H1215 C1211 0.950 . S
H1216 C1213 0.950 . S
C1217 C1208 1.390 . S
C1217 H1210 0.950 . S
C1217 C1214 1.387 . S
C1218 C1219 1.387 . S
C1218 H1222 0.950 . S
C1218 C1227 1.390 . S
C1219 C1218 1.387 . S
C1219 C1221 1.387 . S
H1220 C1227 0.950 . S
C1221 C1219 1.387 . S
C1221 C1223 1.390 . S
C1221 H1225 0.950 . S
H1222 C1218 0.950 . S
C1223 C1221 1.390 . S
C1223 C1224 1.387 . S
C1223 H1226 0.950 . S
C1224 C1223 1.387 . S
C1224 C1227 1.387 . S
H1225 C1221 0.950 . S
H1226 C1223 0.950 . S
C1227 C1218 1.390 . S
C1227 H1220 0.950 . S
C1227 C1224 1.387 . S
C1228 C1229 1.387 . S
C1228 H1232 0.950 . S
C1228 C1237 1.390 . S
C1229 C1228 1.387 . S
C1229 C1231 1.387 . S
H1230 C1237 0.950 . S
C1231 C1229 1.387 . S
C1231 C1233 1.390 . S
C1231 H1235 0.950 . S
H1232 C1228 0.950 . S
C1233 C1231 1.390 . S
C1233 C1234 1.387 . S
C1233 H1236 0.950 . S
C1234 C1233 1.387 . S
C1234 C1237 1.387 . S
H1235 C1231 0.950 . S
H1236 C1233 0.950 . S
C1237 C1228 1.390 . S
C1237 H1230 0.950 . S
C1237 C1234 1.387 . S
C1238 C1239 1.387 . S
C1238 H1242 0.950 . S
C1238 C1247 1.390 . S
C1239 C1238 1.387 . S
C1239 C1241 1.387 . S
H1240 C1247 0.950 . S
C1241 C1239 1.387 . S
C1241 C1243 1.390 . S
C1241 H1245 0.950 . S
H1242 C1238 0.950 . S
C1243 C1241 1.390 . S
C1243 C1244 1.387 . S
C1243 H1246 0.950 . S
C1244 C1243 1.387 . S
C1244 C1247 1.387 . S
H1245 C1241 0.950 . S
H1246 C1243 0.950 . S
C1247 C1238 1.390 . S
C1247 H1240 0.950 . S
C1247 C1244 1.387 . S
C1248 C1249 1.387 1_554 S
C1248 H1252 0.950 . S
C1248 C1257 1.390 . S
C1249 C1248 1.387 1_556 S
C1249 C1251 1.387 . S
H1250 C1257 0.950 . S
C1251 C1249 1.387 . S
C1251 C1253 1.390 . S
C1251 H1255 0.950 . S
H1252 C1248 0.950 . S
C1253 C1251 1.390 . S
C1253 C1254 1.387 . S
C1253 H1256 0.950 . S
C1254 C1253 1.387 . S
C1254 C1257 1.387 1_556 S
H1255 C1251 0.950 . S
H1256 C1253 0.950 . S
C1257 C1248 1.390 . S
C1257 H1250 0.950 . S
C1257 C1254 1.387 1_554 S
C1258 C1259 1.387 . S
C1258 H1262 0.950 . S
C1258 C1267 1.390 . S
C1259 C1258 1.387 . S
C1259 C1261 1.387 . S
H1260 C1267 0.950 . S
C1261 C1259 1.387 . S
C1261 C1263 1.390 . S
C1261 H1265 0.950 . S
H1262 C1258 0.950 . S
C1263 C1261 1.390 . S
C1263 C1264 1.387 . S
C1263 H1266 0.950 . S
C1264 C1263 1.387 . S
C1264 C1267 1.387 . S
H1265 C1261 0.950 . S
H1266 C1263 0.950 . S
C1267 C1258 1.390 . S
C1267 H1260 0.950 . S
C1267 C1264 1.387 . S
C1268 C1269 1.368 1_556 S
C1268 H1272 0.967 . S
C1268 C1277 1.393 . S
C1269 C1268 1.368 1_554 S
C1269 C1271 1.387 . S
H1270 C1277 0.950 . S
C1271 C1269 1.387 . S
C1271 C1273 1.390 . S
C1271 H1275 0.950 . S
H1272 C1268 0.967 . S
C1273 C1271 1.390 . S
C1273 C1274 1.387 . S
C1273 H1276 0.950 . S
C1274 C1273 1.387 . S
C1274 C1277 1.387 1_554 S
H1275 C1271 0.950 . S
H1276 C1273 0.950 . S
C1277 C1268 1.393 . S
C1277 H1270 0.950 . S
C1277 C1274 1.387 1_556 S
C1278 C1279 1.387 1_556 S
C1278 H1282 0.950 . S
C1278 C1287 1.390 . S
C1279 C1278 1.387 1_554 S
C1279 C1281 1.387 . S
H1280 C1287 0.950 . S
C1281 C1279 1.387 . S
C1281 C1283 1.390 . S
C1281 H1285 0.950 . S
H1282 C1278 0.950 . S
C1283 C1281 1.390 . S
C1283 C1284 1.387 . S
C1283 H1286 0.950 . S
C1284 C1283 1.387 . S
C1284 C1287 1.387 1_554 S
H1285 C1281 0.950 . S
H1286 C1283 0.950 . S
C1287 C1278 1.390 . S
C1287 H1280 0.950 . S
C1287 C1284 1.387 1_556 S
C814 C651 1.436 . S
C809 C202 1.437 . S
C824 C659 1.269 . S
C819 C261 1.563 . S
C829 C282 1.460 . S
C834 C679 1.443 . S
C844 C693 1.505 . S
C839 C162 1.512 . S
C854 C708 1.509 . S
C849 C402 1.493 . S
C864 C722 1.536 . S
C859 C482 1.533 . S
C869 C442 1.561 . S
C874 C736 1.572 . S
C884 C742 1.448 . S
C879 C381 1.493 . S
C889 C461 1.560 . S
C894 C756 1.532 . S
C904 C777 1.504 . S
C899 C362 1.511 . S
C909 C415 1.432 . S
C914 C757 1.209 . S
C924 C778 1.564 . S
C919 C495 1.559 . S
C929 C301 1.538 . S
C934 C785 1.246 . S
C939 C175 1.530 . S
C944 C791 1.515 . S
C949 C215 1.475 . S
C954 C784 1.426 . S
C959 C242 1.464 . S
C964 C792 1.469 . S
C969 C141 1.519 . S
C974 C686 1.485 . S
C979 C581 1.509 . S
C984 C687 1.267 . S
C994 C644 1.460 . S
C989 C615 1.517 . S
C1004 C665 1.442 . S
C999 C335 1.471 . S
C1009 C181 1.534 . S
C1014 C700 1.502 . S
C1024 C750 1.514 . S
C1019 C455 1.515 . S
C1034 C701 1.178 . S
C1029 C375 1.412 . S
C1044 C729 1.302 . S
C1039 C501 1.624 . S
C1054 C735 1.435 . S
C1049 C562 1.437 . S
C1059 C621 1.562 . S
C1064 C743 1.275 . S
C1069 C322 1.460 . S
C1074 C707 1.443 . S
C1084 C721 1.506 . S
C1079 C522 1.514 . S
C1089 C122 1.492 . S
C1094 C680 1.509 . S
C1104 C694 1.536 . S
C1099 C2 1.533 . S
C1114 C652 1.572 . S
C1109 C42 1.560 . S
C1124 C658 1.447 . S
C1119 C101 1.493 . S
C1129 C61 1.562 . S
C1134 C770 1.530 . S
C1139 C82 1.509 1_455 S
C1144 C763 1.505 . S
C1149 C135 1.432 . S
C1154 C771 1.202 . S
C1159 C15 1.560 . S
C1164 C764 1.565 . S
C1174 C799 1.246 . S
C1169 C341 1.538 . S
C1184 C805 1.514 . S
C1179 C535 1.530 . S
C1194 C798 1.425 . S
C1189 C575 1.475 . S
C1199 C602 1.464 . S
C1204 C806 1.469 . S
C1209 C421 1.518 . S
C1214 C714 1.485 . S
C1224 C715 1.273 . S
C1219 C221 1.510 . S
C1234 C728 1.459 . S
C1229 C255 1.517 . S
C1244 C749 1.441 . S
C1239 C295 1.471 . S
C1249 C541 1.533 . S
C1254 C672 1.505 . S
C1264 C666 1.514 . S
C1259 C55 1.515 . S
C1269 C95 1.412 . S
C1274 C673 1.178 . S
C1284 C645 1.309 . S
C1279 C21 1.624 . S
