# Generated by pormake.
# Topology iac, (4,6)-cn, num edge types: 1
# Building blocks:
#     Node 0, Type 0, BuildingBlock: AZAVOO_clean_sbu_0, # of connection points: 4
#     Node 1, Type 0, BuildingBlock: AZAVOO_clean_sbu_0, # of connection points: 4
#     Node 2, Type 0, BuildingBlock: AZAVOO_clean_sbu_0, # of connection points: 4
#     Node 3, Type 0, BuildingBlock: AZAVOO_clean_sbu_0, # of connection points: 4
#     Node 4, Type 0, BuildingBlock: AZAVOO_clean_sbu_0, # of connection points: 4
#     Node 5, Type 0, BuildingBlock: AZAVOO_clean_sbu_0, # of connection points: 4
#     Node 6, Type 0, BuildingBlock: AZAVOO_clean_sbu_0, # of connection points: 4
#     Node 7, Type 0, BuildingBlock: AZAVOO_clean_sbu_0, # of connection points: 4
#     Node 8, Type 0, BuildingBlock: AZAVOO_clean_sbu_0, # of connection points: 4
#     Node 9, Type 0, BuildingBlock: AZAVOO_clean_sbu_0, # of connection points: 4
#     Node 10, Type 0, BuildingBlock: AZAVOO_clean_sbu_0, # of connection points: 4
#     Node 11, Type 0, BuildingBlock: AZAVOO_clean_sbu_0, # of connection points: 4
#     Node 12, Type 0, BuildingBlock: AZAVOO_clean_sbu_0, # of connection points: 4
#     Node 13, Type 0, BuildingBlock: AZAVOO_clean_sbu_0, # of connection points: 4
#     Node 14, Type 0, BuildingBlock: AZAVOO_clean_sbu_0, # of connection points: 4
#     Node 15, Type 0, BuildingBlock: AZAVOO_clean_sbu_0, # of connection points: 4
#     Node 16, Type 0, BuildingBlock: AZAVOO_clean_sbu_0, # of connection points: 4
#     Node 17, Type 0, BuildingBlock: AZAVOO_clean_sbu_0, # of connection points: 4
#     Node 18, Type 0, BuildingBlock: AZAVOO_clean_sbu_0, # of connection points: 4
#     Node 19, Type 0, BuildingBlock: AZAVOO_clean_sbu_0, # of connection points: 4
#     Node 20, Type 0, BuildingBlock: AZAVOO_clean_sbu_0, # of connection points: 4
#     Node 21, Type 0, BuildingBlock: AZAVOO_clean_sbu_0, # of connection points: 4
#     Node 22, Type 0, BuildingBlock: AZAVOO_clean_sbu_0, # of connection points: 4
#     Node 23, Type 0, BuildingBlock: AZAVOO_clean_sbu_0, # of connection points: 4
#     Node 24, Type 1, BuildingBlock: LEVNOQ01_clean_sbu_1, # of connection points: 6
#     Node 25, Type 1, BuildingBlock: LEVNOQ01_clean_sbu_1, # of connection points: 6
#     Node 26, Type 1, BuildingBlock: LEVNOQ01_clean_sbu_1, # of connection points: 6
#     Node 27, Type 1, BuildingBlock: LEVNOQ01_clean_sbu_1, # of connection points: 6
#     Node 28, Type 1, BuildingBlock: LEVNOQ01_clean_sbu_1, # of connection points: 6
#     Node 29, Type 1, BuildingBlock: LEVNOQ01_clean_sbu_1, # of connection points: 6
#     Node 30, Type 1, BuildingBlock: LEVNOQ01_clean_sbu_1, # of connection points: 6
#     Node 31, Type 1, BuildingBlock: LEVNOQ01_clean_sbu_1, # of connection points: 6
#     Node 32, Type 1, BuildingBlock: LEVNOQ01_clean_sbu_1, # of connection points: 6
#     Node 33, Type 1, BuildingBlock: LEVNOQ01_clean_sbu_1, # of connection points: 6
#     Node 34, Type 1, BuildingBlock: LEVNOQ01_clean_sbu_1, # of connection points: 6
#     Node 35, Type 1, BuildingBlock: LEVNOQ01_clean_sbu_1, # of connection points: 6
#     Node 36, Type 1, BuildingBlock: LEVNOQ01_clean_sbu_1, # of connection points: 6
#     Node 37, Type 1, BuildingBlock: LEVNOQ01_clean_sbu_1, # of connection points: 6
#     Node 38, Type 1, BuildingBlock: LEVNOQ01_clean_sbu_1, # of connection points: 6
#     Node 39, Type 1, BuildingBlock: LEVNOQ01_clean_sbu_1, # of connection points: 6
#     Edge 40, Type (0, 1), BuildingBlock: XUDNAN_clean_linker_2, # of connection points: 2
#     Edge 41, Type (0, 1), BuildingBlock: XUDNAN_clean_linker_2, # of connection points: 2
#     Edge 42, Type (0, 1), BuildingBlock: XUDNAN_clean_linker_2, # of connection points: 2
#     Edge 43, Type (0, 1), BuildingBlock: XUDNAN_clean_linker_2, # of connection points: 2
#     Edge 44, Type (0, 1), BuildingBlock: XUDNAN_clean_linker_2, # of connection points: 2
#     Edge 45, Type (0, 1), BuildingBlock: XUDNAN_clean_linker_2, # of connection points: 2
#     Edge 46, Type (0, 1), BuildingBlock: XUDNAN_clean_linker_2, # of connection points: 2
#     Edge 47, Type (0, 1), BuildingBlock: XUDNAN_clean_linker_2, # of connection points: 2
#     Edge 48, Type (0, 1), BuildingBlock: XUDNAN_clean_linker_2, # of connection points: 2
#     Edge 49, Type (0, 1), BuildingBlock: XUDNAN_clean_linker_2, # of connection points: 2
#     Edge 50, Type (0, 1), BuildingBlock: XUDNAN_clean_linker_2, # of connection points: 2
#     Edge 51, Type (0, 1), BuildingBlock: XUDNAN_clean_linker_2, # of connection points: 2
#     Edge 52, Type (0, 1), BuildingBlock: XUDNAN_clean_linker_2, # of connection points: 2
#     Edge 53, Type (0, 1), BuildingBlock: XUDNAN_clean_linker_2, # of connection points: 2
#     Edge 54, Type (0, 1), BuildingBlock: XUDNAN_clean_linker_2, # of connection points: 2
#     Edge 55, Type (0, 1), BuildingBlock: XUDNAN_clean_linker_2, # of connection points: 2
#     Edge 56, Type (0, 1), BuildingBlock: XUDNAN_clean_linker_2, # of connection points: 2
#     Edge 57, Type (0, 1), BuildingBlock: XUDNAN_clean_linker_2, # of connection points: 2
#     Edge 58, Type (0, 1), BuildingBlock: XUDNAN_clean_linker_2, # of connection points: 2
#     Edge 59, Type (0, 1), BuildingBlock: XUDNAN_clean_linker_2, # of connection points: 2
#     Edge 60, Type (0, 1), BuildingBlock: XUDNAN_clean_linker_2, # of connection points: 2
#     Edge 61, Type (0, 1), BuildingBlock: XUDNAN_clean_linker_2, # of connection points: 2
#     Edge 62, Type (0, 1), BuildingBlock: XUDNAN_clean_linker_2, # of connection points: 2
#     Edge 63, Type (0, 1), BuildingBlock: XUDNAN_clean_linker_2, # of connection points: 2
#     Edge 64, Type (0, 1), BuildingBlock: XUDNAN_clean_linker_2, # of connection points: 2
#     Edge 65, Type (0, 1), BuildingBlock: XUDNAN_clean_linker_2, # of connection points: 2
#     Edge 66, Type (0, 1), BuildingBlock: XUDNAN_clean_linker_2, # of connection points: 2
#     Edge 67, Type (0, 1), BuildingBlock: XUDNAN_clean_linker_2, # of connection points: 2
#     Edge 68, Type (0, 1), BuildingBlock: XUDNAN_clean_linker_2, # of connection points: 2
#     Edge 69, Type (0, 1), BuildingBlock: XUDNAN_clean_linker_2, # of connection points: 2
#     Edge 70, Type (0, 1), BuildingBlock: XUDNAN_clean_linker_2, # of connection points: 2
#     Edge 71, Type (0, 1), BuildingBlock: XUDNAN_clean_linker_2, # of connection points: 2
#     Edge 72, Type (0, 1), BuildingBlock: XUDNAN_clean_linker_2, # of connection points: 2
#     Edge 73, Type (0, 1), BuildingBlock: XUDNAN_clean_linker_2, # of connection points: 2
#     Edge 74, Type (0, 1), BuildingBlock: XUDNAN_clean_linker_2, # of connection points: 2
#     Edge 75, Type (0, 1), BuildingBlock: XUDNAN_clean_linker_2, # of connection points: 2
#     Edge 76, Type (0, 1), BuildingBlock: XUDNAN_clean_linker_2, # of connection points: 2
#     Edge 77, Type (0, 1), BuildingBlock: XUDNAN_clean_linker_2, # of connection points: 2
#     Edge 78, Type (0, 1), BuildingBlock: XUDNAN_clean_linker_2, # of connection points: 2
#     Edge 79, Type (0, 1), BuildingBlock: XUDNAN_clean_linker_2, # of connection points: 2
#     Edge 80, Type (0, 1), BuildingBlock: XUDNAN_clean_linker_2, # of connection points: 2
#     Edge 81, Type (0, 1), BuildingBlock: XUDNAN_clean_linker_2, # of connection points: 2
#     Edge 82, Type (0, 1), BuildingBlock: XUDNAN_clean_linker_2, # of connection points: 2
#     Edge 83, Type (0, 1), BuildingBlock: XUDNAN_clean_linker_2, # of connection points: 2
#     Edge 84, Type (0, 1), BuildingBlock: XUDNAN_clean_linker_2, # of connection points: 2
#     Edge 85, Type (0, 1), BuildingBlock: XUDNAN_clean_linker_2, # of connection points: 2
#     Edge 86, Type (0, 1), BuildingBlock: XUDNAN_clean_linker_2, # of connection points: 2
#     Edge 87, Type (0, 1), BuildingBlock: XUDNAN_clean_linker_2, # of connection points: 2
#     Edge 88, Type (0, 1), BuildingBlock: XUDNAN_clean_linker_2, # of connection points: 2
#     Edge 89, Type (0, 1), BuildingBlock: XUDNAN_clean_linker_2, # of connection points: 2
#     Edge 90, Type (0, 1), BuildingBlock: XUDNAN_clean_linker_2, # of connection points: 2
#     Edge 91, Type (0, 1), BuildingBlock: XUDNAN_clean_linker_2, # of connection points: 2
#     Edge 92, Type (0, 1), BuildingBlock: XUDNAN_clean_linker_2, # of connection points: 2
#     Edge 93, Type (0, 1), BuildingBlock: XUDNAN_clean_linker_2, # of connection points: 2
#     Edge 94, Type (0, 1), BuildingBlock: XUDNAN_clean_linker_2, # of connection points: 2
#     Edge 95, Type (0, 1), BuildingBlock: XUDNAN_clean_linker_2, # of connection points: 2
#     Edge 96, Type (0, 1), BuildingBlock: XUDNAN_clean_linker_2, # of connection points: 2
#     Edge 97, Type (0, 1), BuildingBlock: XUDNAN_clean_linker_2, # of connection points: 2
#     Edge 98, Type (0, 1), BuildingBlock: XUDNAN_clean_linker_2, # of connection points: 2
#     Edge 99, Type (0, 1), BuildingBlock: XUDNAN_clean_linker_2, # of connection points: 2
#     Edge 100, Type (0, 1), BuildingBlock: XUDNAN_clean_linker_2, # of connection points: 2
#     Edge 101, Type (0, 1), BuildingBlock: XUDNAN_clean_linker_2, # of connection points: 2
#     Edge 102, Type (0, 1), BuildingBlock: XUDNAN_clean_linker_2, # of connection points: 2
#     Edge 103, Type (0, 1), BuildingBlock: XUDNAN_clean_linker_2, # of connection points: 2
#     Edge 104, Type (0, 1), BuildingBlock: XUDNAN_clean_linker_2, # of connection points: 2
#     Edge 105, Type (0, 1), BuildingBlock: XUDNAN_clean_linker_2, # of connection points: 2
#     Edge 106, Type (0, 1), BuildingBlock: XUDNAN_clean_linker_2, # of connection points: 2
#     Edge 107, Type (0, 1), BuildingBlock: XUDNAN_clean_linker_2, # of connection points: 2
#     Edge 108, Type (0, 1), BuildingBlock: XUDNAN_clean_linker_2, # of connection points: 2
#     Edge 109, Type (0, 1), BuildingBlock: XUDNAN_clean_linker_2, # of connection points: 2
#     Edge 110, Type (0, 1), BuildingBlock: XUDNAN_clean_linker_2, # of connection points: 2
#     Edge 111, Type (0, 1), BuildingBlock: XUDNAN_clean_linker_2, # of connection points: 2
#     Edge 112, Type (0, 1), BuildingBlock: XUDNAN_clean_linker_2, # of connection points: 2
#     Edge 113, Type (0, 1), BuildingBlock: XUDNAN_clean_linker_2, # of connection points: 2
#     Edge 114, Type (0, 1), BuildingBlock: XUDNAN_clean_linker_2, # of connection points: 2
#     Edge 115, Type (0, 1), BuildingBlock: XUDNAN_clean_linker_2, # of connection points: 2
#     Edge 116, Type (0, 1), BuildingBlock: XUDNAN_clean_linker_2, # of connection points: 2
#     Edge 117, Type (0, 1), BuildingBlock: XUDNAN_clean_linker_2, # of connection points: 2
#     Edge 118, Type (0, 1), BuildingBlock: XUDNAN_clean_linker_2, # of connection points: 2
#     Edge 119, Type (0, 1), BuildingBlock: XUDNAN_clean_linker_2, # of connection points: 2
#     Edge 120, Type (0, 1), BuildingBlock: XUDNAN_clean_linker_2, # of connection points: 2
#     Edge 121, Type (0, 1), BuildingBlock: XUDNAN_clean_linker_2, # of connection points: 2
#     Edge 122, Type (0, 1), BuildingBlock: XUDNAN_clean_linker_2, # of connection points: 2
#     Edge 123, Type (0, 1), BuildingBlock: XUDNAN_clean_linker_2, # of connection points: 2
#     Edge 124, Type (0, 1), BuildingBlock: XUDNAN_clean_linker_2, # of connection points: 2
#     Edge 125, Type (0, 1), BuildingBlock: XUDNAN_clean_linker_2, # of connection points: 2
#     Edge 126, Type (0, 1), BuildingBlock: XUDNAN_clean_linker_2, # of connection points: 2
#     Edge 127, Type (0, 1), BuildingBlock: XUDNAN_clean_linker_2, # of connection points: 2
#     Edge 128, Type (0, 1), BuildingBlock: XUDNAN_clean_linker_2, # of connection points: 2
#     Edge 129, Type (0, 1), BuildingBlock: XUDNAN_clean_linker_2, # of connection points: 2
#     Edge 130, Type (0, 1), BuildingBlock: XUDNAN_clean_linker_2, # of connection points: 2
#     Edge 131, Type (0, 1), BuildingBlock: XUDNAN_clean_linker_2, # of connection points: 2
#     Edge 132, Type (0, 1), BuildingBlock: XUDNAN_clean_linker_2, # of connection points: 2
#     Edge 133, Type (0, 1), BuildingBlock: XUDNAN_clean_linker_2, # of connection points: 2
#     Edge 134, Type (0, 1), BuildingBlock: XUDNAN_clean_linker_2, # of connection points: 2
#     Edge 135, Type (0, 1), BuildingBlock: XUDNAN_clean_linker_2, # of connection points: 2
# Relax obj value: 0.124
# Max RMSD: 0.174
# Mean RMSD: 0.149
data_MOF--net-iac--node1-AZAVOO_clean_sbu_0--node2-LEVNOQ01_clean_sbu_1--edge1-XUDNAN_clean_linker_2
_symmetry_space_group_name_H-M    P1
_symmetry_Int_Tables_number       1
_symmetry_cell_setting            triclinic
loop_
_symmetry_equiv_pos_as_xyz
'x, y, z'
_cell_length_a     55.234997
_cell_length_b     52.380207
_cell_length_c     53.904421
_cell_angle_alpha  92.431212
_cell_angle_beta   89.947867
_cell_angle_gamma 91.276103
loop_
_atom_site_label
_atom_site_type_symbol
_atom_site_fract_x
_atom_site_fract_y
_atom_site_fract_z
_atom_type_partial_charge
Mg0 Mg 0.99105 0.2678 0.1342 0.0
O1 O -0.00681 0.22953 0.1128 0.0
O2 O 0.95926 0.22519 0.09041 0.0
Mg3 Mg 0.93224 0.25517 0.10447 0.0
C4 C 0.98036 0.21788 0.09612 0.0
C5 C 0.03795 0.27686 0.16181 0.0
O6 O 0.02276 0.29215 0.17344 0.0
O7 O -0.00662 0.28919 0.09779 0.0
O8 O 0.95443 0.28592 0.08565 0.0
O9 O 0.97604 0.25083 0.1683 0.0
O10 O 0.95382 0.26462 0.13783 0.0
C11 C 0.97582 0.29542 0.08387 0.0
C12 C 0.95485 0.25496 0.1593 0.0
O13 O 0.03133 0.2654 0.14163 0.0
Mg14 Mg 0.98975 0.75135 0.35015 0.0
O15 O 0.98406 0.78183 0.3812 0.0
O16 O 0.94899 0.77182 0.39974 0.0
Mg17 Mg 0.93308 0.73531 0.38194 0.0
C18 C 0.96764 0.78633 0.39739 0.0
C19 C 0.03822 0.74999 0.32771 0.0
O20 O 0.02668 0.72858 0.32102 0.0
O21 O 0.00078 0.72247 0.37815 0.0
O22 O 0.96523 0.71373 0.39645 0.0
O23 O 0.96817 0.77501 0.32569 0.0
O24 O 0.95335 0.74385 0.34841 0.0
C25 C 0.98801 0.71085 0.39413 0.0
C26 C 0.9497 0.76259 0.33437 0.0
O27 O 0.02816 0.76519 0.3433 0.0
Mg28 Mg 0.49494 0.77244 0.62923 0.0
O29 O 0.49085 0.73055 0.6172 0.0
O30 O 0.45562 0.72317 0.59773 0.0
Mg31 Mg 0.43596 0.76131 0.5983 0.0
C32 C 0.47575 0.71562 0.60593 0.0
C33 C 0.53655 0.74532 0.65306 0.0
O34 O 0.51741 0.7315 0.65888 0.0
O35 O 0.50231 0.78313 0.58929 0.0
O36 O 0.46446 0.78089 0.5742 0.0
O37 O 0.47599 0.76666 0.66495 0.0
O38 O 0.4576 0.77628 0.63016 0.0
C39 C 0.48689 0.78696 0.57221 0.0
C40 C 0.45625 0.77104 0.65315 0.0
O41 O 0.53394 0.76439 0.63941 0.0
Mg42 Mg 0.4904 0.24169 0.84913 0.0
O43 O 0.48265 0.27487 0.87628 0.0
O44 O 0.44386 0.27134 0.88792 0.0
Mg45 Mg 0.42858 0.23348 0.8722 0.0
C46 C 0.46413 0.28347 0.88776 0.0
C47 C 0.54199 0.25924 0.83301 0.0
O48 O 0.53007 0.27023 0.81545 0.0
O49 O 0.49405 0.21443 0.88005 0.0
O50 O 0.45579 0.21002 0.89297 0.0
O51 O 0.4751 0.26542 0.81985 0.0
O52 O 0.45441 0.23718 0.84154 0.0
C53 C 0.47821 0.20498 0.89439 0.0
C54 C 0.4545 0.25536 0.82632 0.0
O55 O 0.53038 0.2501 0.85101 0.0
Mg56 Mg 0.12511 0.98061 0.26055 0.0
O57 O 0.13498 0.02327 0.26299 0.0
O58 O 0.15257 0.03256 0.29958 0.0
Mg59 Mg 0.1535 0.99602 0.32139 0.0
C60 C 0.14481 0.03915 0.2786 0.0
C61 C 0.09839 0.00148 0.2175 0.0
O62 O 0.0917 0.01547 0.237 0.0
O63 O 0.1646 0.9704 0.254 0.0
O64 O 0.17715 0.97386 0.29352 0.0
O65 O 0.08982 0.98627 0.27964 0.0
O66 O 0.12408 0.97834 0.29888 0.0
C67 C 0.18002 0.96604 0.27095 0.0
C68 C 0.10135 0.98245 0.29994 0.0
O69 O 0.11458 0.98484 0.22012 0.0
Mg70 Mg 0.26072 0.8958 0.50392 0.0
O71 O 0.26793 0.86576 0.47264 0.0
O72 O 0.30462 0.85049 0.48026 0.0
Mg73 Mg 0.31904 0.86714 0.51695 0.0
C74 C 0.28591 0.85182 0.46655 0.0
C75 C 0.21369 0.91254 0.47612 0.0
O76 O 0.22881 0.91757 0.45809 0.0
O77 O 0.2517 0.86573 0.53159 0.0
O78 O 0.2879 0.84928 0.53902 0.0
O79 O 0.28059 0.92342 0.48084 0.0
O80 O 0.2974 0.90055 0.5097 0.0
C81 C 0.26508 0.85018 0.54253 0.0
C82 C 0.29987 0.91553 0.49154 0.0
O83 O 0.22094 0.89954 0.49395 0.0
Mg84 Mg 0.38695 0.00882 0.75672 0.0
O85 O 0.3664 0.97222 0.76629 0.0
O86 O 0.35394 0.9768 0.80576 0.0
Mg87 Mg 0.36274 0.01797 0.8193 0.0
C88 C 0.35639 0.96342 0.7856 0.0
C89 C 0.40612 0.98865 0.70505 0.0
O90 O 0.42452 0.98126 0.71816 0.0
O91 O 0.35194 0.02914 0.75161 0.0
O92 O 0.33804 0.03558 0.79024 0.0
O93 O 0.4195 0.99219 0.77323 0.0
O94 O 0.39335 0.01733 0.7933 0.0
C95 C 0.33624 0.03802 0.76682 0.0
C96 C 0.41156 0.00252 0.79386 0.0
O97 O 0.38757 -0.00261 0.71609 0.0
Mg98 Mg 0.26474 0.12163 0.97681 0.0
O99 O 0.26559 0.13756 0.01692 0.0
O100 O 0.3001 0.16034 0.02223 0.0
Mg101 Mg 0.32277 0.15626 0.98672 0.0
C102 C 0.27997 0.15161 0.03027 0.0
C103 C 0.21356 0.10742 -0.00124 0.0
O104 O 0.22689 0.10001 0.01719 0.0
O105 O 0.25956 0.16077 0.9624 0.0
O106 O 0.29666 0.17881 0.96379 0.0
O107 O 0.28312 0.08583 0.98792 0.0
O108 O 0.30186 0.12111 0.97626 0.0
C109 C 0.27455 0.17857 0.95697 0.0
C110 C 0.30311 0.09865 0.98459 0.0
O111 O 0.22385 0.11591 0.97962 0.0
Mg112 Mg 0.76174 0.39101 0.01659 0.0
O113 O 0.76317 0.37296 0.97749 0.0
O114 O 0.79714 0.3507 0.97303 0.0
Mg115 Mg 0.81475 0.34992 0.01123 0.0
C116 C 0.77787 0.35984 0.96433 0.0
C117 C 0.71983 0.41672 0.98801 0.0
O118 O 0.73668 0.41758 0.97084 0.0
O119 O 0.74791 0.35315 0.03168 0.0
O120 O 0.78135 0.32995 0.02768 0.0
O121 O 0.78596 0.4219 0.00354 0.0
O122 O 0.79889 0.38695 0.02073 0.0
C123 C 0.75921 0.33231 0.03412 0.0
C124 C 0.80366 0.40749 0.00934 0.0
O125 O 0.72415 0.40588 0.00823 0.0
Mg126 Mg 0.87906 0.51925 0.25919 0.0
O127 O 0.86537 0.478 0.26276 0.0
O128 O 0.84185 0.47729 0.29656 0.0
Mg129 Mg 0.83759 0.51805 0.31235 0.0
C130 C 0.85254 0.46601 0.27835 0.0
C131 C 0.91056 0.49106 0.21902 0.0
O132 O 0.91504 0.4767 0.2378 0.0
O133 O 0.84332 0.53107 0.24293 0.0
O134 O 0.82037 0.53289 0.2771 0.0
O135 O 0.90851 0.51162 0.28536 0.0
O136 O 0.87297 0.52725 0.29653 0.0
C137 C 0.82353 0.53658 0.25401 0.0
C138 C 0.89346 0.51834 0.30276 0.0
O139 O 0.89545 0.50896 0.22167 0.0
Mg140 Mg 0.7603 0.61298 0.47869 0.0
O141 O 0.76248 0.63241 0.51716 0.0
O142 O 0.79852 0.65217 0.52187 0.0
Mg143 Mg 0.82249 0.63736 0.48961 0.0
C144 C 0.77725 0.64683 0.52964 0.0
C145 C 0.70829 0.60833 0.50119 0.0
O146 O 0.72148 0.60306 0.5205 0.0
O147 O 0.76259 0.65118 0.46011 0.0
O148 O 0.80262 0.65896 0.46005 0.0
O149 O 0.77121 0.57528 0.49275 0.0
O150 O 0.79672 0.60548 0.48069 0.0
C151 C 0.78134 0.663 0.45212 0.0
C152 C 0.79327 0.58331 0.48943 0.0
O153 O 0.7188 0.61306 0.4808 0.0
Mg154 Mg 0.62397 0.47735 0.76576 0.0
O155 O 0.63782 0.5179 0.76062 0.0
O156 O 0.6632 0.52783 0.79202 0.0
Mg157 Mg 0.66542 0.4933 0.81691 0.0
C158 C 0.65214 0.53351 0.77227 0.0
C159 C 0.59662 0.49179 0.71658 0.0
O160 O 0.59092 0.51286 0.7291 0.0
O161 O 0.65966 0.46238 0.75305 0.0
O162 O 0.68383 0.46806 0.78627 0.0
O163 O 0.59398 0.49144 0.78915 0.0
O164 O 0.62958 0.47978 0.80356 0.0
C165 C 0.67973 0.45941 0.76408 0.0
C166 C 0.60841 0.48867 0.80775 0.0
O167 O 0.60962 0.47543 0.72665 0.0
Mg168 Mg 0.00405 0.74745 0.856 0.0
O169 O 0.99157 0.78028 0.88186 0.0
O170 O 0.95392 0.77119 0.89455 0.0
Mg171 Mg 0.94245 0.73238 0.87567 0.0
C172 C 0.97262 0.78592 0.89425 0.0
C173 C 0.05949 0.74581 0.85432 0.0
O174 O 0.05324 0.72177 0.84939 0.0
O175 O 0.0095 0.72072 0.88793 0.0
O176 O 0.97109 0.70907 0.89557 0.0
O177 O 0.98841 0.76785 0.82421 0.0
O178 O 0.96847 0.73886 0.84542 0.0
C179 C -0.00615 0.70696 0.89895 0.0
C180 C 0.9685 0.75521 0.82826 0.0
O181 O 0.04299 0.76186 0.85895 0.0
Mg182 Mg 0.00373 0.26939 0.6533 0.0
O183 O -0.00198 0.22719 0.64433 0.0
O184 O 0.96459 0.22297 0.6212 0.0
Mg185 Mg 0.94371 0.26003 0.62576 0.0
C186 C 0.98346 0.21381 0.63073 0.0
C187 C 0.04998 0.24189 0.66617 0.0
O188 O 0.03358 0.22815 0.67758 0.0
O189 O 0.0082 0.27556 0.61246 0.0
O190 O 0.97029 0.27857 0.59849 0.0
O191 O 0.98815 0.26624 0.69112 0.0
O192 O 0.96719 0.27352 0.65711 0.0
C193 C -0.00681 0.28116 0.5957 0.0
C194 C 0.9675 0.26949 0.68045 0.0
O195 O 0.0438 0.26224 0.65615 0.0
Mg196 Mg 0.50412 0.2495 0.35523 0.0
O197 O 0.49178 0.28137 0.38238 0.0
O198 O 0.45595 0.27107 0.39882 0.0
Mg199 Mg 0.44522 0.23216 0.38036 0.0
C200 C 0.47397 0.28648 0.39672 0.0
C201 C 0.56025 0.25164 0.35317 0.0
O202 O 0.55643 0.22682 0.3507 0.0
O203 O 0.51311 0.22353 0.3862 0.0
O204 O 0.47652 0.21215 0.40018 0.0
O205 O 0.48656 0.26836 0.32437 0.0
O206 O 0.46807 0.23949 0.34715 0.0
C207 C 0.49962 0.21088 0.40061 0.0
C208 C 0.46709 0.2555 0.3296 0.0
O209 O 0.54226 0.26617 0.35602 0.0
Mg210 Mg 0.49879 0.76507 0.14231 0.0
O211 O 0.49538 0.72232 0.14084 0.0
O212 O 0.46478 0.71889 0.1138 0.0
Mg213 Mg 0.43919 0.75253 0.12114 0.0
C214 C 0.48327 0.70975 0.12427 0.0
C215 C 0.55391 0.76973 0.1539 0.0
O216 O 0.54749 0.7865 0.17134 0.0
O217 O 0.49747 0.76206 0.1006 0.0
O218 O 0.46126 0.77742 0.09421 0.0
O219 O 0.48985 0.76569 0.18249 0.0
O220 O 0.46321 0.7669 0.15182 0.0
C221 C 0.4836 0.77579 0.08842 0.0
C222 C 0.46758 0.76391 0.17501 0.0
O223 O 0.53819 0.75966 0.13942 0.0
Mg224 Mg 0.8956 0.00414 0.7404 0.0
O225 O 0.87332 0.96908 0.75104 0.0
O226 O 0.86069 0.97659 0.79011 0.0
Mg227 Mg 0.87758 0.01471 0.80514 0.0
C228 C 0.86164 0.96239 0.77027 0.0
C229 C 0.8852 0.01194 0.68487 0.0
O230 O 0.88077 0.03482 0.69445 0.0
O231 O 0.86185 0.02692 0.7389 0.0
O232 O 0.85727 0.04042 0.77835 0.0
O233 O 0.93012 0.98663 0.7527 0.0
O234 O 0.90592 0.00971 0.77695 0.0
C235 C 0.85235 0.0416 0.75527 0.0
C236 C 0.92481 0.99598 0.7746 0.0
O237 O 0.89145 0.99448 0.69918 0.0
Mg238 Mg 0.75011 0.1038 0.48469 0.0
O239 O 0.75317 0.12316 0.52298 0.0
O240 O 0.78737 0.14584 0.52794 0.0
Mg241 Mg 0.80688 0.13961 0.49018 0.0
C242 C 0.76722 0.13752 0.53633 0.0
C243 C 0.70293 0.09044 0.51272 0.0
O244 O 0.71921 0.08358 0.52874 0.0
O245 O 0.74284 0.14119 0.46725 0.0
O246 O 0.77851 0.16197 0.4679 0.0
O247 O 0.76778 0.06975 0.49854 0.0
O248 O 0.78791 0.10181 0.48167 0.0
C249 C 0.75616 0.16024 0.46159 0.0
C250 C 0.78825 0.08016 0.4923 0.0
O251 O 0.7098 0.09814 0.49178 0.0
Mg252 Mg 0.6231 0.98276 0.25255 0.0
O253 O 0.63327 0.02485 0.25459 0.0
O254 O 0.64285 0.03966 0.29262 0.0
Mg255 Mg 0.63939 0.00421 0.31609 0.0
C256 C 0.63961 0.0431 0.2696 0.0
C257 C 0.61217 0.003 0.20343 0.0
O258 O 0.59962 0.0164 0.21985 0.0
O259 O 0.66262 0.97312 0.25551 0.0
O260 O 0.67059 0.98439 0.29517 0.0
O261 O 0.58487 0.99208 0.26195 0.0
O262 O 0.61367 0.98513 0.28946 0.0
C263 C 0.67698 0.97455 0.27411 0.0
C264 C 0.59194 0.99175 0.28478 0.0
O265 O 0.62469 0.98471 0.21073 0.0
Mg266 Mg 0.74524 0.88173 0.02104 0.0
O267 O 0.7428 0.85786 0.98521 0.0
O268 O 0.77104 0.82809 0.9855 0.0
Mg269 Mg 0.79302 0.83493 0.02112 0.0
C270 C 0.75337 0.83877 0.97515 0.0
C271 C 0.69851 0.91495 0.01736 0.0
O272 O 0.71254 0.93385 0.02603 0.0
O273 O 0.72994 0.85005 0.04328 0.0
O274 O 0.76025 0.82264 0.0448 0.0
O275 O 0.77013 0.9089 0.00295 0.0
O276 O 0.78212 0.87546 0.02322 0.0
C277 C 0.73887 0.82955 0.05061 0.0
C278 C 0.78753 0.89459 0.00987 0.0
O279 O 0.7072 0.89303 0.01344 0.0
Mg280 Mg 0.26234 0.62257 0.97986 0.0
O281 O 0.26323 0.62773 0.02141 0.0
O282 O 0.28834 0.66179 0.02548 0.0
Mg283 Mg 0.31463 0.6619 0.9923 0.0
C284 C 0.27235 0.64651 0.03412 0.0
C285 C 0.2144 0.60032 -0.00125 0.0
O286 O 0.22981 0.58912 0.01307 0.0
O287 O 0.25275 0.66403 0.98051 0.0
O288 O 0.28691 0.68089 0.96688 0.0
O289 O 0.28096 0.58597 0.98224 0.0
O290 O 0.29957 0.62374 0.98058 0.0
C291 C 0.26379 0.6799 0.96728 0.0
C292 C 0.30067 0.59972 0.98478 0.0
O293 O 0.22238 0.61365 0.98134 0.0
Mg294 Mg 0.1068 0.48441 0.75155 0.0
O295 O 0.12142 0.5249 0.74923 0.0
O296 O 0.13431 0.53942 0.78657 0.0
Mg297 Mg 0.12696 0.50712 0.81322 0.0
C298 C 0.13079 0.54244 0.76347 0.0
C299 C 0.08941 0.48207 0.69856 0.0
O300 O 0.0692 0.47893 0.71101 0.0
O301 O 0.14491 0.47096 0.7548 0.0
O302 O 0.15592 0.48236 0.79369 0.0
O303 O 0.07016 0.49973 0.75936 0.0
O304 O 0.09775 0.49243 0.78798 0.0
C305 C 0.16021 0.47159 0.77249 0.0
C306 C 0.07725 0.50194 0.78221 0.0
O307 O 0.10932 0.48144 0.71001 0.0
Mg308 Mg 0.24392 0.38245 0.51781 0.0
O309 O 0.24789 0.35464 0.48416 0.0
O310 O 0.27471 0.32556 0.49421 0.0
Mg311 Mg 0.29049 0.33691 0.53241 0.0
C312 C 0.25977 0.33456 0.47901 0.0
C313 C 0.18942 0.39656 0.51378 0.0
O314 O 0.19025 0.39329 0.53779 0.0
O315 O 0.22371 0.35274 0.5401 0.0
O316 O 0.25393 0.32741 0.55023 0.0
O317 O 0.27402 0.40734 0.50341 0.0
O318 O 0.27907 0.37671 0.52972 0.0
C319 C 0.23172 0.33367 0.55122 0.0
C320 C 0.28842 0.39443 0.51683 0.0
O321 O 0.20866 0.39458 0.50095 0.0
Mg322 Mg 0.39309 0.50448 0.24331 0.0
O323 O 0.37045 0.47155 0.25848 0.0
O324 O 0.35954 0.48075 0.29761 0.0
Mg325 Mg 0.37473 0.52124 0.30687 0.0
C326 C 0.35988 0.4655 0.27853 0.0
C327 C 0.39125 0.5009 0.1866 0.0
O328 O 0.39219 0.52572 0.19131 0.0
O329 O 0.35988 0.52872 0.23799 0.0
O330 O 0.35059 0.53886 0.27758 0.0
O331 O 0.42642 0.48808 0.25928 0.0
O332 O 0.40337 0.51666 0.27865 0.0
C333 C 0.34691 0.54039 0.25427 0.0
C334 C 0.42186 0.50221 0.27895 0.0
O335 O 0.39005 0.48617 0.20467 0.0
O336 O 0.955 0.00962 0.95676 0.0
Mg337 Mg 0.95448 0.02689 0.99331 0.0
O338 O -0.0054 0.00592 0.95693 0.0
Mg339 Mg 0.00192 0.00122 -0.00164 0.0
O340 O 0.98585 0.03948 0.01074 0.0
O341 O 0.96107 0.06553 0.99248 0.0
O342 O 0.01186 0.99574 0.04004 0.0
O343 O 0.03754 0.02534 0.99425 0.0
Mg344 Mg 0.05144 0.96707 0.00204 0.0
O345 O 0.01858 0.96402 0.98604 0.0
O346 O 0.04367 0.9702 0.04033 0.0
O347 O 0.06928 0.0002 0.98949 0.0
O348 O 0.04469 0.93298 0.98125 0.0
C349 C 0.94506 0.98143 0.01446 0.0
C350 C 0.97462 0.00555 0.94531 0.0
C351 C 0.9814 0.06209 0.00342 0.0
C352 C 0.02776 0.98342 0.05172 0.0
C353 C 0.06012 0.02225 0.99055 0.0
C354 C 0.02345 0.94154 0.97709 0.0
O355 O 0.93966 0.00429 0.02017 0.0
O356 O 0.96528 0.97674 0.00362 0.0
O357 O 0.24315 0.75214 0.31333 0.0
Mg358 Mg 0.22556 0.72318 0.29087 0.0
O359 O 0.26285 0.77114 0.28287 0.0
Mg360 Mg 0.25342 0.74997 0.24556 0.0
O361 O 0.24858 0.71156 0.26365 0.0
O362 O 0.23446 0.68512 0.29141 0.0
O363 O 0.24386 0.72865 0.20787 0.0
O364 O 0.29404 0.74009 0.24224 0.0
Mg365 Mg 0.27813 0.77786 0.19666 0.0
O366 O 0.26078 0.78783 0.22813 0.0
O367 O 0.2524 0.75467 0.17732 0.0
O368 O 0.30899 0.75863 0.20876 0.0
O369 O 0.27366 0.81733 0.20307 0.0
C370 C 0.19285 0.75046 0.25773 0.0
C371 C 0.25733 0.76951 0.30571 0.0
C372 C 0.24757 0.68877 0.272 0.0
C373 C 0.24273 0.73426 0.18507 0.0
C374 C 0.31139 0.74473 0.22734 0.0
C375 C 0.26253 0.81164 0.22318 0.0
O376 O 0.1939 0.73298 0.27319 0.0
O377 O 0.21196 0.7604 0.24835 0.0
O378 O 0.56154 0.002 0.47189 0.0
Mg379 Mg 0.55361 0.99046 0.50926 0.0
O380 O 0.52332 0.00329 0.45857 0.0
Mg381 Mg 0.50099 0.00477 0.49323 0.0
O382 O 0.5216 0.97089 0.50643 0.0
O383 O 0.55505 0.95239 0.5185 0.0
O384 O 0.47761 0.007 0.52866 0.0
O385 O 0.47384 0.97403 0.47633 0.0
Mg386 Mg 0.44692 0.02682 0.47787 0.0
O387 O 0.48173 0.03713 0.47791 0.0
O388 O 0.44182 0.02161 0.51665 0.0
O389 O 0.44639 0.99345 0.45423 0.0
O390 O 0.45483 0.06362 0.46496 0.0
C391 C 0.54144 0.03884 0.52823 0.0
C392 C 0.54601 0.00426 0.45469 0.0
C393 C 0.53221 0.95087 0.51371 0.0
C394 C 0.45596 0.01396 0.53336 0.0
C395 C 0.45636 0.9732 0.46078 0.0
C396 C 0.47715 0.05898 0.46948 0.0
O397 O 0.54867 0.01878 0.53778 0.0
O398 O 0.52727 0.03685 0.50959 0.0
O399 O 0.31454 0.27988 0.75005 0.0
Mg400 Mg 0.30718 0.25703 0.71709 0.0
O401 O 0.28153 0.27121 0.77259 0.0
Mg402 Mg 0.25177 0.25523 0.74597 0.0
O403 O 0.27273 0.26534 0.7137 0.0
O404 O 0.29644 0.27289 0.68257 0.0
O405 O 0.22271 0.23949 0.71843 0.0
O406 O 0.23634 0.29536 0.74695 0.0
Mg407 Mg 0.19622 0.25609 0.77098 0.0
O408 O 0.22989 0.24507 0.77891 0.0
O409 O 0.1875 0.23445 0.73806 0.0
O410 O 0.20159 0.29637 0.7681 0.0
O411 O 0.20013 0.23898 0.80526 0.0
C412 C 0.28637 0.2044 0.73422 0.0
C413 C 0.30254 0.28148 0.77025 0.0
C414 C 0.27494 0.27276 0.69168 0.0
C415 C 0.2008 0.23147 0.71896 0.0
C416 C 0.21877 0.30749 0.75671 0.0
C417 C 0.22285 0.23765 0.80012 0.0
O418 O 0.30255 0.21659 0.72224 0.0
O419 O 0.26831 0.2153 0.74461 0.0
O420 O 0.02173 0.93891 0.51322 0.0
Mg421 Mg 0.0328 0.96328 0.544 0.0
O422 O 0.00287 0.96498 0.48779 0.0
Mg423 Mg 0.00738 0.00526 0.5067 0.0
O424 O 0.00585 0.98761 0.54304 0.0
O425 O 0.00975 0.96454 0.57556 0.0
O426 O 0.01327 0.04421 0.52843 0.0
O427 O 0.9646 0.00765 0.50796 0.0
Mg428 Mg 0.98837 0.05458 0.47663 0.0
O429 O 0.009 0.02372 0.46978 0.0
O430 O 0.00609 0.07673 0.50463 0.0
O431 O 0.95379 0.03996 0.48492 0.0
O432 O 0.00244 0.0517 0.44107 0.0
C433 C 0.06734 -0.00288 0.5181 0.0
C434 C 0.00976 0.9428 0.49355 0.0
C435 C -0.00279 0.98048 0.56369 0.0
C436 C 0.0134 0.06814 0.52489 0.0
C437 C 0.94842 0.02132 0.49831 0.0
C438 C 0.01264 0.03111 0.44759 0.0
O439 O 0.06387 0.98665 0.53865 0.0
O440 O 0.04974 0.002 0.50376 0.0
O441 O 0.2699 0.68474 0.78588 0.0
Mg442 Mg 0.27826 0.68174 0.74694 0.0
O443 O 0.25767 0.72509 0.78801 0.0
Mg444 Mg 0.25721 0.7406 0.74933 0.0
O445 O 0.2892 0.71721 0.73747 0.0
O446 O 0.31286 0.6843 0.73087 0.0
O447 O 0.25897 0.7548 0.70818 0.0
O448 O 0.28335 0.77348 0.76215 0.0
Mg449 Mg 0.23287 0.78048 0.73556 0.0
O450 O 0.2239 0.76263 0.76669 0.0
O451 O 0.22062 0.75905 0.7036 0.0
O452 O 0.26688 0.80102 0.73776 0.0
O453 O 0.20674 0.79881 0.75507 0.0
C454 C 0.22878 0.68601 0.72683 0.0
C455 C 0.2619 0.70414 0.79809 0.0
C456 C 0.30928 0.70837 0.72905 0.0
C457 C 0.24114 0.75749 0.69367 0.0
C458 C 0.28378 0.79516 0.75227 0.0
C459 C 0.20812 0.78048 0.77021 0.0
O460 O 0.24764 0.67271 0.72459 0.0
O461 O 0.22947 0.70849 0.73695 0.0
O462 O 0.47715 0.95452 0.0617 0.0
Mg463 Mg 0.47031 0.99406 0.06894 0.0
O464 O 0.49351 0.95608 0.02376 0.0
Mg465 Mg 0.4921 0.99656 0.00991 0.0
O466 O 0.46199 0.00565 0.03511 0.0
O467 O 0.43682 0.01305 0.06569 0.0
O468 O 0.48949 0.03798 -0.00381 0.0
O469 O 0.46478 0.9839 0.97947 0.0
Mg470 Mg 0.51937 0.01026 0.95869 0.0
O471 O 0.52329 0.98548 0.98521 0.0
O472 O 0.52513 0.04487 0.98 0.0
O473 O 0.48362 -0.0001 0.94654 0.0
O474 O 0.54824 0.98549 0.95327 0.0
C475 C 0.52119 0.01669 0.06239 0.0
C476 C 0.48725 0.94393 0.04279 0.0
C477 C 0.44245 0.0158 0.04278 0.0
C478 C 0.50519 0.05349 0.98768 0.0
C479 C 0.46536 0.98921 0.95659 0.0
C480 C 0.54219 0.97661 0.97434 0.0
O481 O 0.50308 0.01505 0.07693 0.0
O482 O 0.51998 0.00962 0.03949 0.0
O483 O 0.2454 0.2625 0.18481 0.0
Mg484 Mg 0.23548 0.28913 0.21372 0.0
O485 O 0.25413 0.2334 0.21173 0.0
Mg486 Mg 0.25053 0.24862 0.25261 0.0
O487 O 0.2588 0.2903 0.24314 0.0
O488 O 0.25359 0.32351 0.21939 0.0
O489 O 0.24754 0.26087 0.29493 0.0
O490 O 0.29277 0.24775 0.25616 0.0
Mg491 Mg 0.27215 0.20252 0.28315 0.0
O492 O 0.2437 0.20699 0.26049 0.0
O493 O 0.26352 0.22787 0.31371 0.0
O494 O 0.30515 0.20914 0.2644 0.0
O495 O 0.25099 0.16958 0.27615 0.0
C496 C 0.19294 0.2663 0.23945 0.0
C497 C 0.25177 0.24007 0.18941 0.0
C498 C 0.26383 0.31385 0.23823 0.0
C499 C 0.25362 0.24965 0.31462 0.0
C500 C 0.30967 0.23177 0.25814 0.0
C501 C 0.23713 0.18354 0.26341 0.0
O502 O 0.20022 0.28507 0.22715 0.0
O503 O 0.2079 0.25075 0.24838 0.0
O504 O 0.44453 0.51853 0.97921 0.0
Mg505 Mg 0.47393 0.54449 0.97394 0.0
O506 O 0.46197 0.50651 0.01327 0.0
Mg507 Mg 0.50237 0.49954 0.00316 0.0
O508 O 0.50082 0.52055 0.96787 0.0
O509 O 0.49097 0.54697 0.93916 0.0
O510 O 0.54467 0.49461 -0.00553 0.0
O511 O 0.4916 0.46392 0.98032 0.0
Mg512 Mg 0.52891 0.45361 0.02492 0.0
O513 O 0.50316 0.47763 0.0387 0.0
O514 O 0.55823 0.4789 0.02898 0.0
O515 O 0.52171 0.43832 0.98796 0.0
O516 O 0.50488 0.43757 0.04959 0.0
C517 C 0.50397 0.5596 0.02258 0.0
C518 C 0.44286 0.51113 0.00119 0.0
C519 C 0.50477 0.52921 0.94631 0.0
C520 C 0.56236 0.48988 0.00889 0.0
C521 C 0.50339 0.44387 0.97521 0.0
C522 C 0.49286 0.4583 0.04889 0.0
O523 O 0.48911 0.56518 0.00558 0.0
O524 O 0.51161 0.53696 0.02487 0.0
O525 O 0.76017 0.19564 0.28607 0.0
Mg526 Mg 0.76846 0.18878 0.24712 0.0
O527 O 0.75382 0.23777 0.28855 0.0
Mg528 Mg 0.75108 0.24955 0.2479 0.0
O529 O 0.78028 0.22316 0.23733 0.0
O530 O 0.80415 0.19063 0.23219 0.0
O531 O 0.74784 0.25717 0.20435 0.0
O532 O 0.78203 0.28008 0.2547 0.0
Mg533 Mg 0.73206 0.29663 0.23464 0.0
O534 O 0.72145 0.27653 0.26421 0.0
O535 O 0.71665 0.28204 0.20209 0.0
O536 O 0.76777 0.31185 0.23397 0.0
O537 O 0.70868 0.31593 0.25697 0.0
C538 C 0.71872 0.19649 0.23004 0.0
C539 C 0.75577 0.21626 0.29862 0.0
C540 C 0.80089 0.21473 0.23055 0.0
C541 C 0.7314 0.26725 0.19144 0.0
C542 C 0.78493 0.30192 0.24544 0.0
C543 C 0.70746 0.2956 0.26968 0.0
O544 O 0.73731 0.1836 0.22455 0.0
O545 O 0.72046 0.21832 0.24155 0.0
O546 O 0.99104 0.46136 0.55949 0.0
Mg547 Mg 0.9805 0.50047 0.56392 0.0
O548 O 0.0011 0.46101 0.51951 0.0
Mg549 Mg -0.0014 0.50163 0.50646 0.0
O550 O 0.96603 0.50907 0.53105 0.0
O551 O 0.9445 0.51168 0.56566 0.0
O552 O -0.00617 0.5437 0.49332 0.0
O553 O 0.97169 0.48823 0.47668 0.0
Mg554 Mg 0.02279 0.51928 0.46426 0.0
O555 O 0.0316 0.48827 0.48224 0.0
O556 O 0.03168 0.55176 0.48765 0.0
O557 O 0.988 0.51197 0.44755 0.0
O558 O 0.05065 0.50055 0.4478 0.0
C559 C 0.02694 0.52825 0.55698 0.0
C560 C -0.00164 0.4497 0.53975 0.0
C561 C 0.94583 0.51403 0.542 0.0
C562 C 0.01062 0.56016 0.4898 0.0
C563 C 0.97112 0.49743 0.45526 0.0
C564 C 0.04844 0.48502 0.46566 0.0
O565 O 0.00818 0.52801 0.57051 0.0
O566 O 0.02718 0.51678 0.53563 0.0
O567 O 0.69547 0.79345 0.28593 0.0
Mg568 Mg 0.68937 0.75266 0.28474 0.0
O569 O 0.72803 0.79372 0.26139 0.0
Mg570 Mg 0.74383 0.75446 0.25483 0.0
O571 O 0.72334 0.74029 0.28657 0.0
O572 O 0.69813 0.73134 0.31634 0.0
O573 O 0.76148 0.71561 0.24753 0.0
O574 O 0.77368 0.76724 0.28255 0.0
Mg575 Mg 0.7985 0.7637 0.22726 0.0
O576 O 0.7635 0.76968 0.22339 0.0
O577 O 0.7965 0.7225 0.22748 0.0
O578 O 0.80487 0.78372 0.26185 0.0
O579 O 0.78805 0.78212 0.19442 0.0
C580 C 0.69155 0.73372 0.2294 0.0
C581 C 0.71168 0.80524 0.27377 0.0
C582 C 0.71965 0.73008 0.30731 0.0
C583 C 0.78049 0.70751 0.23647 0.0
C584 C 0.79347 0.78015 0.28196 0.0
C585 C 0.7662 0.77913 0.20217 0.0
O586 O 0.67944 0.73514 0.24955 0.0
O587 O 0.7135 0.74154 0.22789 0.0
O588 O 0.75351 0.24541 0.82243 0.0
Mg589 Mg 0.74923 0.20778 0.80691 0.0
O590 O 0.75012 0.26828 0.78847 0.0
Mg591 Mg 0.75041 0.24064 0.75341 0.0
O592 O 0.76604 0.21024 0.77444 0.0
O593 O 0.77629 0.18034 0.79908 0.0
O594 O 0.7533 0.20817 0.72054 0.0
O595 O 0.78833 0.25476 0.7458 0.0
Mg596 Mg 0.74627 0.25035 0.70889 0.0
O597 O 0.7344 0.27702 0.73414 0.0
O598 O 0.72209 0.21947 0.69992 0.0
O599 O 0.78529 0.24798 0.70538 0.0
O600 O 0.73498 0.28163 0.69279 0.0
C601 C 0.70148 0.21111 0.77788 0.0
C602 C 0.75183 0.26668 0.81202 0.0
C603 C 0.77831 0.19035 0.77778 0.0
C604 C 0.73721 0.20267 0.7042 0.0
C605 C 0.79807 0.25338 0.72454 0.0
C606 C 0.7305 0.29064 0.71491 0.0
O607 O 0.71326 0.20048 0.79476 0.0
O608 O 0.71157 0.22634 0.76281 0.0
O609 O 0.7344 0.76003 0.68496 0.0
Mg610 Mg 0.72815 0.78835 0.71384 0.0
O611 O 0.75212 0.73216 0.70875 0.0
Mg612 Mg 0.74878 0.74816 0.74905 0.0
O613 O 0.75622 0.78956 0.73772 0.0
O614 O 0.74708 0.82229 0.71459 0.0
O615 O 0.74395 0.76341 0.78988 0.0
O616 O 0.79124 0.74873 0.75367 0.0
Mg617 Mg 0.76867 0.7065 0.7867 0.0
O618 O 0.74327 0.70714 0.75986 0.0
O619 O 0.75684 0.73326 0.81431 0.0
O620 O 0.80303 0.7137 0.7714 0.0
O621 O 0.74985 0.6722 0.7804 0.0
C622 C 0.69041 0.76384 0.74052 0.0
C623 C 0.74481 0.73892 0.68761 0.0
C624 C 0.76044 0.81284 0.73139 0.0
C625 C 0.74761 0.75497 0.81146 0.0
C626 C 0.80804 0.73432 0.7608 0.0
C627 C 0.73762 0.68368 0.76402 0.0
O628 O 0.69701 0.78634 0.73575 0.0
O629 O 0.70636 0.74702 0.74364 0.0
O630 O 0.56245 0.5144 0.47615 0.0
Mg631 Mg 0.55304 0.47846 0.49095 0.0
O632 O 0.53231 0.53181 0.4973 0.0
Mg633 Mg 0.50006 0.50304 0.50225 0.0
O634 O 0.5182 0.46952 0.48326 0.0
O635 O 0.54724 0.44483 0.46893 0.0
O636 O 0.46669 0.47593 0.50883 0.0
O637 O 0.48726 0.51033 0.46294 0.0
Mg638 Mg 0.451 0.53505 0.49712 0.0
O639 O 0.48101 0.53711 0.51957 0.0
O640 O 0.43391 0.4995 0.50407 0.0
O641 O 0.45981 0.53982 0.45905 0.0
O642 O 0.45147 0.56486 0.52386 0.0
C643 C 0.53627 0.48423 0.54642 0.0
C644 C 0.55251 0.53391 0.48603 0.0
C645 C 0.52442 0.44883 0.47143 0.0
C646 C 0.4437 0.4784 0.50834 0.0
C647 C 0.47437 0.52387 0.44938 0.0
C648 C 0.47211 0.55685 0.53103 0.0
O649 O 0.55222 0.47756 0.53045 0.0
O650 O 0.51608 0.49383 0.54043 0.0
O651 O 0.05614 0.49204 0.95225 0.0
Mg652 Mg 0.06441 0.47876 0.98848 0.0
O653 O 0.01886 0.50581 0.95995 0.0
Mg654 Mg 0.00895 0.50169 0.00027 0.0
O655 O 0.03209 0.4674 0.00195 0.0
O656 O 0.06124 0.4399 -0.00182 0.0
O657 O -0.00242 0.49837 0.04175 0.0
O658 O 0.97784 0.4736 0.98809 0.0
Mg659 Mg 0.95392 0.52707 0.0086 0.0
O660 O 0.98667 0.53603 -0.00423 0.0
O661 O 0.96247 0.51872 0.04568 0.0
O662 O 0.94327 0.49459 0.98609 0.0
O663 O 0.95782 0.56395 0.99424 0.0
C664 C 0.0627 0.52866 0.01831 0.0
C665 C 0.0366 0.50215 0.94534 0.0
C666 C 0.03922 0.44451 0.00447 0.0
C667 C 0.97989 0.5067 0.05492 0.0
C668 C 0.95554 0.47457 0.98224 0.0
C669 C 0.97993 0.55816 0.98964 0.0
O670 O 0.07491 0.50861 0.01417 0.0
O671 O 0.04037 0.5297 0.01237 0.0
H672 H 0.9715 0.20242 0.04815 0.0
H673 H 0.01209 0.18327 0.11328 0.0
H674 H 0.02589 0.14381 0.09127 0.0
H675 H 0.94832 0.14521 0.03297 0.0
H676 H 0.95102 0.14666 -0.00029 0.0
H677 H 0.9493 0.17562 0.01844 0.0
H678 H 0.98973 0.19172 -0.0006 0.0
H679 H 0.99159 0.16242 0.98074 0.0
H680 H 0.01629 0.17247 0.00095 0.0
H681 H 0.02738 0.10272 0.06607 0.0
H682 H 0.01532 0.0641 0.04084 0.0
H683 H 0.9763 0.11114 0.99082 0.0
C684 C 0.98374 0.19017 0.05753 0.0
C685 C 0.99053 0.19561 0.08242 0.0
C686 C 0.00668 0.17934 0.09416 0.0
C687 C 0.01477 0.15704 0.08173 0.0
C688 C 0.00719 0.15179 0.05733 0.0
C689 C -0.00762 0.16821 0.0452 0.0
C690 C 0.98449 0.15697 0.02013 0.0
C691 C 0.95665 0.15604 0.01772 0.0
C692 C -0.00377 0.17178 -0.00093 0.0
C693 C -0.00513 0.13059 0.02126 0.0
C694 C 0.0087 0.12819 0.04239 0.0
C695 C 0.01718 0.10454 0.04913 0.0
C696 C 0.01021 0.08266 0.0347 0.0
C697 C -0.00536 0.08471 0.01409 0.0
C698 C 0.98825 0.10909 0.0065 0.0
H699 H 0.06339 0.72084 0.29417 0.0
H700 H 0.06386 0.7957 0.33186 0.0
H701 H 0.10022 0.80809 0.30791 0.0
H702 H 0.12538 0.71268 0.29588 0.0
H703 H 0.12642 0.69556 0.26618 0.0
H704 H 0.09915 0.69491 0.28424 0.0
H705 H 0.07593 0.71146 0.24645 0.0
H706 H 0.10359 0.71322 0.22875 0.0
H707 H 0.08537 0.74116 0.23333 0.0
H708 H 0.13891 0.81041 0.28336 0.0
H709 H 0.17943 0.7995 0.26727 0.0
H710 H 0.15257 0.72405 0.24438 0.0
C711 C 0.0709 0.73999 0.2972 0.0
C712 C 0.06068 0.75739 0.3147 0.0
C713 C 0.07136 0.78208 0.31844 0.0
C714 C 0.09181 0.78939 0.30469 0.0
C715 C 0.10116 0.77187 0.28716 0.0
C716 C 0.09116 0.74756 0.28367 0.0
C717 C 0.1061 0.73115 0.26609 0.0
C718 C 0.11478 0.7072 0.27887 0.0
C719 C 0.09189 0.72383 0.24224 0.0
C720 C 0.12679 0.74962 0.26104 0.0
C721 C 0.12333 0.77329 0.27277 0.0
C722 C 0.14158 0.79221 0.27361 0.0
C723 C 0.16449 0.78603 0.26407 0.0
C724 C 0.16883 0.7611 0.25433 0.0
C725 C 0.14934 0.74347 0.25109 0.0
H726 H 0.4782 0.83543 0.58328 0.0
H727 H 0.50728 0.78551 0.52508 0.0
H728 H 0.5157 0.82335 0.49956 0.0
H729 H 0.45076 0.88209 0.54311 0.0
H730 H 0.45887 0.90877 0.56387 0.0
H731 H 0.45243 0.87783 0.57607 0.0
H732 H 0.49425 0.87799 0.59774 0.0
H733 H 0.50057 0.90925 0.58656 0.0
H734 H 0.52124 0.8837 0.57978 0.0
H735 H 0.52546 0.86715 0.48359 0.0
H736 H 0.53792 0.91248 0.4794 0.0
H737 H 0.50119 0.93302 0.54803 0.0
C738 C 0.48606 0.83251 0.56496 0.0
C739 C 0.49225 0.80794 0.55594 0.0
C740 C 0.5026 0.80443 0.53213 0.0
C741 C 0.50717 0.82571 0.51757 0.0
C742 C 0.50096 0.84995 0.52719 0.0
C743 C 0.49061 0.85333 0.5504 0.0
C744 C 0.48772 0.88123 0.55782 0.0
C745 C 0.46084 0.88787 0.56036 0.0
C746 C 0.5018 0.88846 0.58188 0.0
C747 C 0.49905 0.89334 0.5356 0.0
C748 C 0.50618 0.87503 0.51788 0.0
C749 C 0.51946 0.8816 0.49702 0.0
C750 C 0.52642 0.90729 0.49477 0.0
C751 C 0.51995 0.9259 0.51318 0.0
C752 C 0.50553 0.91906 0.53338 0.0
H753 H 0.411 0.23171 0.82685 0.0
H754 H 0.44587 0.30507 0.81468 0.0
H755 H 0.40548 0.32451 0.81141 0.0
H756 H 0.36571 0.23567 0.78443 0.0
H757 H 0.34362 0.21898 0.80274 0.0
H758 H 0.37517 0.21336 0.80686 0.0
H759 H 0.37005 0.22521 0.85387 0.0
H760 H 0.33858 0.23225 0.84934 0.0
H761 H 0.35881 0.25612 0.86349 0.0
H762 H 0.36268 0.33313 0.80182 0.0
H763 H 0.3232 0.3283 0.78069 0.0
H764 H 0.31503 0.25158 0.80619 0.0
C765 C 0.41015 0.252 0.82385 0.0
C766 C 0.43134 0.26699 0.82104 0.0
C767 C 0.42968 0.29327 0.81659 0.0
C768 C 0.40689 0.30451 0.81529 0.0
C769 C 0.38624 0.28921 0.81897 0.0
C770 C 0.38779 0.26345 0.82303 0.0
C771 C 0.36329 0.25023 0.82322 0.0
C772 C 0.36187 0.22832 0.80312 0.0
C773 C 0.35733 0.24039 0.84903 0.0
C774 C 0.34752 0.27227 0.81707 0.0
C775 C 0.36103 0.29481 0.8152 0.0
C776 C 0.35168 0.31603 0.80408 0.0
C777 C 0.32913 0.31328 0.79233 0.0
C778 C 0.3163 0.28968 0.79232 0.0
C779 C 0.32433 0.27004 0.80694 0.0
H780 H 0.99126 0.83186 0.38883 0.0
H781 H 0.94936 0.79185 0.44393 0.0
H782 H 0.95344 0.82927 0.4729 0.0
H783 H 0.03326 0.86315 0.42948 0.0
H784 H 0.0342 0.89296 0.41393 0.0
H785 H 0.02698 0.8636 0.39668 0.0
H786 H 0.98688 0.88269 0.38186 0.0
H787 H -0.00597 0.91213 0.3991 0.0
H788 H 0.96579 0.89537 0.40449 0.0
H789 H 0.96458 0.86815 0.49686 0.0
H790 H 0.98127 0.90866 0.51503 0.0
H791 H 0.01441 0.92586 0.4445 0.0
C792 C 0.98294 0.83109 0.40699 0.0
C793 C 0.97011 0.80899 0.41428 0.0
C794 C 0.95919 0.80865 0.43802 0.0
C795 C 0.96138 0.82979 0.45456 0.0
C796 C 0.97414 0.85123 0.44688 0.0
C797 C 0.98456 0.85229 0.42365 0.0
C798 C -0.00243 0.87778 0.42046 0.0
C799 C 0.02461 0.87414 0.41482 0.0
C800 C 0.98533 0.89288 0.40028 0.0
C801 C -0.00625 0.89031 0.44599 0.0
C802 C 0.97996 0.87458 0.46073 0.0
C803 C 0.97503 0.88086 0.48547 0.0
C804 C 0.98463 0.90379 0.4956 0.0
C805 C -0.00118 0.92017 0.481 0.0
C806 C 0.00321 0.91368 0.45578 0.0
H807 H 0.42484 0.73142 0.64598 0.0
H808 H 0.43553 0.80388 0.68656 0.0
H809 H 0.39543 0.79843 0.70675 0.0
H810 H 0.35844 0.73424 0.63803 0.0
H811 H 0.35427 0.7006 0.64298 0.0
H812 H 0.38189 0.71226 0.62917 0.0
H813 H 0.4069 0.69138 0.66323 0.0
H814 H 0.37946 0.67965 0.67713 0.0
H815 H 0.4006 0.6992 0.69545 0.0
H816 H 0.3559 0.78327 0.72467 0.0
H817 H 0.32201 0.75789 0.74183 0.0
H818 H 0.33845 0.69466 0.6907 0.0
C819 C 0.41843 0.7462 0.65888 0.0
C820 C 0.43276 0.76802 0.66491 0.0
C821 C 0.42443 0.78701 0.68199 0.0
C822 C 0.40173 0.78417 0.69328 0.0
C823 C 0.38793 0.76218 0.68721 0.0
C824 C 0.39606 0.74345 0.67054 0.0
C825 C 0.37919 0.72039 0.66925 0.0
C826 C 0.36776 0.71667 0.64332 0.0
C827 C 0.39232 0.69624 0.67672 0.0
C828 C 0.36067 0.72867 0.68842 0.0
C829 C 0.36563 0.75309 0.69811 0.0
C830 C 0.35162 0.76428 0.71697 0.0
C831 C 0.33232 0.74988 0.7265 0.0
C832 C 0.32758 0.7246 0.71734 0.0
C833 C 0.34172 0.71406 0.69789 0.0
H834 H 0.49035 0.19645 0.9433 0.0
H835 H 0.47778 0.16008 0.87048 0.0
H836 H 0.48051 0.11774 0.88812 0.0
H837 H 0.53509 0.14975 0.96163 0.0
H838 H 0.5258 0.14965 0.99368 0.0
H839 H 0.52249 0.17802 0.97633 0.0
H840 H 0.47691 0.17893 0.98648 0.0
H841 H 0.4796 0.15069 0.00417 0.0
H842 H 0.45801 0.15112 0.97915 0.0
H843 H 0.48075 0.08071 0.91252 0.0
H844 H 0.48736 0.04754 0.94225 0.0
H845 H 0.50438 0.10547 -0.00011 0.0
C846 C 0.48861 0.17945 0.93123 0.0
C847 C 0.48386 0.1811 0.90563 0.0
C848 C 0.48154 0.15882 0.89012 0.0
C849 C 0.48286 0.13481 0.89997 0.0
C850 C 0.48686 0.13357 0.9253 0.0
C851 C 0.49047 0.15505 0.94075 0.0
C852 C 0.49576 0.14758 0.96711 0.0
C853 C 0.52131 0.15679 0.97516 0.0
C854 C 0.47641 0.15769 0.9853 0.0
C855 C 0.4941 0.11864 0.96388 0.0
C856 C 0.4884 0.11133 0.93962 0.0
C857 C 0.48523 0.086 0.93161 0.0
C858 C 0.48882 0.06734 0.94867 0.0
C859 C 0.49607 0.07409 0.97324 0.0
C860 C 0.49847 0.10003 0.98122 0.0
H861 H 0.06912 0.30804 0.18842 0.0
H862 H 0.05605 0.22892 0.16462 0.0
H863 H 0.09075 0.21608 0.19009 0.0
H864 H 0.13325 0.30415 0.18351 0.0
H865 H 0.13874 0.32693 0.20899 0.0
H866 H 0.11154 0.32851 0.19091 0.0
H867 H 0.08631 0.32585 0.23144 0.0
H868 H 0.11354 0.32331 0.24948 0.0
H869 H 0.08993 0.29909 0.25097 0.0
H870 H 0.12854 0.2125 0.21671 0.0
H871 H 0.16963 0.2195 0.23448 0.0
H872 H 0.15757 0.30096 0.24027 0.0
C873 C 0.07356 0.28801 0.18869 0.0
C874 C 0.06004 0.26945 0.17469 0.0
C875 C 0.06646 0.24345 0.1751 0.0
C876 C 0.08588 0.23596 0.18978 0.0
C877 C 0.09875 0.25477 0.20371 0.0
C878 C 0.09313 0.28033 0.20277 0.0
C879 C 0.11144 0.29721 0.21675 0.0
C880 C 0.12451 0.31525 0.19899 0.0
C881 C 0.09958 0.31224 0.23846 0.0
C882 C 0.12825 0.27724 0.22588 0.0
C883 C 0.12054 0.25279 0.21854 0.0
C884 C 0.1346 0.23153 0.2228 0.0
C885 C 0.1578 0.23561 0.23321 0.0
C886 C 0.16664 0.26076 0.23883 0.0
C887 C 0.15107 0.28151 0.23649 0.0
H888 H 0.10207 0.97041 0.17547 0.0
H889 H 0.06368 0.03571 0.20665 0.0
H890 H 0.03836 0.03602 0.16898 0.0
H891 H 0.10305 0.99058 0.11271 0.0
H892 H 0.09909 0.95855 0.09956 0.0
H893 H 0.11382 0.9638 0.12915 0.0
H894 H 0.08275 0.93265 0.14868 0.0
H895 H 0.0676 0.92774 0.11922 0.0
H896 H 0.05083 0.93859 0.14622 0.0
H897 H 0.01762 0.02953 0.12707 0.0
H898 H 0.00592 0.01877 0.08343 0.0
H899 H 0.05695 0.95682 0.08139 0.0
C900 C 0.08845 0.98488 0.17434 0.0
C901 C 0.08485 0.00299 0.19401 0.0
C902 C 0.06677 0.02159 0.1918 0.0
C903 C 0.05219 0.02186 0.17053 0.0
C904 C 0.05585 0.00335 0.15169 0.0
C905 C 0.07368 0.98535 0.15335 0.0
C906 C 0.07441 0.96795 0.13034 0.0
C907 C 0.09905 0.97038 0.11717 0.0
C908 C 0.06854 0.94008 0.1365 0.0
C909 C 0.05435 0.97905 0.11541 0.0
C910 C 0.04373 -0.0006 0.12797 0.0
C911 C 0.02568 0.01347 0.11711 0.0
C912 C 0.01901 0.00713 0.09239 0.0
C913 C 0.03046 0.98693 0.07896 0.0
C914 C 0.04771 0.9723 0.09108 0.0
H915 H 0.25148 0.85263 0.4298 0.0
H916 H 0.32241 0.82325 0.44622 0.0
H917 H 0.32546 0.80564 0.40334 0.0
H918 H 0.23034 0.8001 0.39406 0.0
H919 H 0.2143 0.81838 0.372 0.0
H920 H 0.21918 0.83124 0.40307 0.0
H921 H 0.2397 0.87152 0.38518 0.0
H922 H 0.23534 0.85837 0.35399 0.0
H923 H 0.26524 0.86798 0.36459 0.0
H924 H 0.32022 0.78918 0.35976 0.0
H925 H 0.30382 0.76878 0.32087 0.0
H926 H 0.23599 0.80715 0.3332 0.0
C927 C 0.26768 0.84254 0.4244 0.0
C928 C 0.28668 0.83938 0.44144 0.0
C929 C 0.30755 0.82596 0.43357 0.0
C930 C 0.30963 0.81614 0.40914 0.0
C931 C 0.29077 0.81998 0.39272 0.0
C932 C 0.27006 0.83257 0.40008 0.0
C933 C 0.25151 0.83206 0.37942 0.0
C934 C 0.22742 0.81968 0.38763 0.0
C935 C 0.24773 0.85909 0.37026 0.0
C936 C 0.26433 0.8156 0.36 0.0
C937 C 0.2874 0.80982 0.36762 0.0
C938 C 0.30232 0.7938 0.35342 0.0
C939 C 0.29297 0.78241 0.33138 0.0
C940 C 0.26888 0.78677 0.32428 0.0
C941 C 0.25464 0.80406 0.33827 0.0
H942 H 0.43806 0.96648 0.67159 0.0
H943 H 0.38199 0.02324 0.67907 0.0
H944 H 0.39048 0.03672 0.63691 0.0
H945 H 0.47998 0.00269 0.63616 0.0
H946 H 0.4888 0.97642 0.61568 0.0
H947 H 0.47858 0.97047 0.64669 0.0
H948 H 0.44539 0.93888 0.62916 0.0
H949 H 0.45597 0.94445 0.59819 0.0
H950 H 0.42465 0.94932 0.60606 0.0
H951 H 0.40506 0.0453 0.59535 0.0
H952 H 0.42258 0.04567 0.55343 0.0
H953 H 0.46891 0.98296 0.57098 0.0
C954 C 0.42743 0.98151 0.66416 0.0
C955 C 0.40935 0.99376 0.67859 0.0
C956 C 0.39574 0.01335 0.66831 0.0
C957 C 0.40056 0.02134 0.64443 0.0
C958 C 0.41872 0.00928 0.63088 0.0
C959 C 0.43168 0.98947 0.64002 0.0
C960 C 0.44963 0.97934 0.62088 0.0
C961 C 0.4758 0.98243 0.63043 0.0
C962 C 0.44354 0.95133 0.61312 0.0
C963 C 0.44489 -0.00308 0.59986 0.0
C964 C 0.42702 0.01403 0.60622 0.0
C965 C 0.41895 0.03191 0.58999 0.0
C966 C 0.42896 0.03191 0.56623 0.0
C967 C 0.44692 0.01422 0.559 0.0
C968 C 0.45529 0.99677 0.57616 0.0
H969 H 0.24292 0.16546 0.92048 0.0
H970 H 0.29389 0.2255 0.9451 0.0
H971 H 0.2903 0.24519 0.90418 0.0
H972 H 0.26798 0.15892 0.8594 0.0
H973 H 0.23914 0.15104 0.84514 0.0
H974 H 0.24473 0.14281 0.87671 0.0
H975 H 0.20706 0.1679 0.89201 0.0
H976 H 0.20086 0.1751 0.8604 0.0
H977 H 0.20401 0.20067 0.88372 0.0
H978 H 0.28087 0.25747 0.85983 0.0
H979 H 0.26165 0.26472 0.81923 0.0
H980 H 0.21987 0.19429 0.82447 0.0
C981 C 0.25282 0.1832 0.9177 0.0
C982 C 0.26833 0.19428 0.93608 0.0
C983 C 0.2816 0.21699 0.93129 0.0
C984 C 0.27996 0.22801 0.90804 0.0
C985 C 0.2655 0.21561 0.88984 0.0
C986 C 0.25207 0.1938 0.8946 0.0
C987 C 0.23832 0.18351 0.87209 0.0
C988 C 0.24813 0.15754 0.8628 0.0
C989 C 0.21095 0.18173 0.87738 0.0
C990 C 0.24461 0.20399 0.85428 0.0
C991 C 0.26092 0.22197 0.86444 0.0
C992 C 0.26831 0.24338 0.85163 0.0
C993 C 0.25758 0.2472 0.82852 0.0
C994 C 0.23964 0.22979 0.81897 0.0
C995 C 0.23387 0.20753 0.83144 0.0
H996 H 0.09073 0.02546 0.32613 0.0
H997 H 0.08619 0.94292 0.32711 0.0
H998 H 0.06659 0.94579 0.36861 0.0
H999 H 0.10291 0.03612 0.39316 0.0
H1000 H 0.08538 0.06476 0.3949 0.0
H1001 H 0.10089 0.05568 0.36655 0.0
H1002 H 0.06041 0.05682 0.34222 0.0
H1003 H 0.04486 0.06601 0.37037 0.0
H1004 H 0.03478 0.03802 0.35231 0.0
H1005 H 0.04493 0.95837 0.40864 0.0
H1006 H 0.02101 0.97965 0.44231 0.0
H1007 H 0.0408 0.0535 0.41403 0.0
C1008 C 0.0856 0.00811 0.33525 0.0
C1009 C 0.08941 0.98406 0.32384 0.0
C1010 C 0.08297 0.96151 0.33595 0.0
C1011 C 0.07212 0.96297 0.35945 0.0
C1012 C 0.06843 0.98713 0.37041 0.0
C1013 C 0.07507 0.00926 0.35869 0.0
C1014 C 0.06807 0.03286 0.37359 0.0
C1015 C 0.09066 0.04826 0.38258 0.0
C1016 C 0.051 0.04937 0.35874 0.0
C1017 C 0.05524 0.02063 0.39486 0.0
C1018 C 0.0561 0.99426 0.39319 0.0
C1019 C 0.04438 0.97901 0.41033 0.0
C1020 C 0.03092 0.99116 0.42934 0.0
C1021 C 0.02912 0.01805 0.43041 0.0
C1022 C 0.04188 0.03285 0.4134 0.0
H1023 H 0.26051 0.79911 0.55326 0.0
H1024 H 0.25052 0.87648 0.5828 0.0
H1025 H 0.24352 0.86028 0.62443 0.0
H1026 H 0.21184 0.7711 0.5951 0.0
H1027 H 0.22792 0.7418 0.59792 0.0
H1028 H 0.23028 0.75911 0.56977 0.0
H1029 H 0.27695 0.76036 0.57428 0.0
H1030 H 0.27473 0.7436 0.60269 0.0
H1031 H 0.29052 0.77409 0.60236 0.0
H1032 H 0.24352 0.83775 0.66257 0.0
H1033 H 0.24192 0.80811 0.69655 0.0
H1034 H 0.24804 0.74364 0.64381 0.0
C1035 C 0.25605 0.81237 0.56845 0.0
C1036 C 0.25573 0.83896 0.56506 0.0
C1037 C 0.2503 0.85603 0.58516 0.0
C1038 C 0.24651 0.84704 0.60883 0.0
C1039 C 0.24754 0.82087 0.61184 0.0
C1040 C 0.25127 0.80357 0.59223 0.0
C1041 C 0.25096 0.77637 0.60109 0.0
C1042 C 0.22894 0.7612 0.59033 0.0
C1043 C 0.27472 0.76283 0.59473 0.0
C1044 C 0.24822 0.78146 0.62889 0.0
C1045 C 0.24627 0.80736 0.6344 0.0
C1046 C 0.24454 0.81739 0.65855 0.0
C1047 C 0.24393 0.80045 0.67771 0.0
C1048 C 0.245 0.7738 0.67266 0.0
C1049 C 0.24735 0.76402 0.64799 0.0
H1050 H 0.4176 0.03274 0.83468 0.0
H1051 H 0.42156 0.95403 0.80722 0.0
H1052 H 0.42619 0.9402 0.85046 0.0
H1053 H 0.4625 0.02887 0.88163 0.0
H1054 H 0.44699 0.05113 0.90214 0.0
H1055 H 0.44353 0.05281 0.86916 0.0
H1056 H 0.39657 0.04868 0.87512 0.0
H1057 H 0.4011 0.04672 0.908 0.0
H1058 H 0.38413 0.02183 0.89112 0.0
H1059 H 0.43292 0.93597 0.8963 0.0
H1060 H 0.44983 0.94249 0.93861 0.0
H1061 H 0.43833 0.02364 0.93577 0.0
C1062 C 0.41969 0.01261 0.83783 0.0
C1063 C 0.41943 0.99438 0.81799 0.0
C1064 C 0.42221 0.96822 0.82244 0.0
C1065 C 0.4243 0.96023 0.84686 0.0
C1066 C 0.42346 0.97872 0.86627 0.0
C1067 C 0.42178 0.00442 0.86186 0.0
C1068 C 0.42345 0.02087 0.88538 0.0
C1069 C 0.44544 0.03948 0.88451 0.0
C1070 C 0.39989 0.03534 0.89019 0.0
C1071 C 0.42695 0.00049 0.90396 0.0
C1072 C 0.42643 0.9762 0.89269 0.0
C1073 C 0.43283 0.95475 0.90548 0.0
C1074 C 0.44206 0.95851 0.92962 0.0
C1075 C 0.4448 0.98348 0.94028 0.0
C1076 C 0.43547 0.00433 0.92812 0.0
H1077 H 0.25306 0.19097 0.04785 0.0
H1078 H 0.29335 0.126 0.07053 0.0
H1079 H 0.28659 0.13895 0.11477 0.0
H1080 H 0.27679 0.23443 0.09039 0.0
H1081 H 0.24947 0.25183 0.09647 0.0
H1082 H 0.25341 0.2349 0.0671 0.0
H1083 H 0.2133 0.20939 0.07345 0.0
H1084 H 0.20897 0.22653 0.10277 0.0
H1085 H 0.20894 0.19209 0.10137 0.0
H1086 H 0.27947 0.16204 0.15612 0.0
H1087 H 0.27289 0.19318 0.1911 0.0
H1088 H 0.23841 0.24381 0.14082 0.0
C1089 C 0.25983 0.1792 0.06224 0.0
C1090 C 0.27351 0.15751 0.05617 0.0
C1091 C 0.28266 0.14263 0.07515 0.0
C1092 C 0.27883 0.1498 0.10021 0.0
C1093 C 0.26579 0.17182 0.10576 0.0
C1094 C 0.25624 0.18617 0.08728 0.0
C1095 C 0.24493 0.21024 0.09798 0.0
C1096 C 0.25688 0.23426 0.08736 0.0
C1097 C 0.2174 0.20951 0.09364 0.0
C1098 C 0.25085 0.20802 0.12519 0.0
C1099 C 0.2623 0.18543 0.12943 0.0
C1100 C 0.2703 0.17967 0.15303 0.0
C1101 C 0.26661 0.19754 0.17276 0.0
C1102 C 0.25538 0.22108 0.16866 0.0
C1103 C 0.24723 0.22612 0.14456 0.0
H1104 H 0.18692 0.07735 0.02892 0.0
H1105 H 0.18021 0.13038 0.96988 0.0
H1106 H 0.1362 0.12099 0.96774 0.0
H1107 H 0.15282 0.03106 0.00229 0.0
H1108 H 0.13883 0.01968 0.03009 0.0
H1109 H 0.16774 0.03586 0.03193 0.0
H1110 H 0.15059 0.06868 0.06436 0.0
H1111 H 0.12143 0.05255 0.06251 0.0
H1112 H 0.12399 0.08621 0.05706 0.0
H1113 H 0.09471 0.09968 0.96648 0.0
H1114 H 0.06152 0.06672 0.96464 0.0
H1115 H 0.0965 0.02687 0.02298 0.0
C1116 C 0.17604 0.08766 0.01616 0.0
C1117 C 0.1869 0.10455 -0.0004 0.0
C1118 C 0.1722 0.11726 0.98271 0.0
C1119 C 0.14714 0.11225 0.98154 0.0
C1120 C 0.13708 0.09454 -0.00258 0.0
C1121 C 0.15114 0.08257 0.01454 0.0
C1122 C 0.13719 0.06122 0.02648 0.0
C1123 C 0.1499 0.03546 0.02242 0.0
C1124 C 0.13305 0.06756 0.05425 0.0
C1125 C 0.11378 0.06175 0.01209 0.0
C1126 C 0.11352 0.08167 -0.00392 0.0
C1127 C 0.09456 0.08427 0.97923 0.0
C1128 C 0.07589 0.06549 0.97816 0.0
C1129 C 0.07695 0.04426 0.99338 0.0
C1130 C 0.09556 0.04296 0.01105 0.0
H1131 H 0.68928 0.43272 0.02469 0.0
H1132 H 0.69965 0.4333 0.94497 0.0
H1133 H 0.66238 0.45848 0.94115 0.0
H1134 H 0.62561 0.42553 0.02375 0.0
H1135 H 0.62173 0.44542 0.05151 0.0
H1136 H 0.64923 0.42816 0.04684 0.0
H1137 H 0.67379 0.47091 0.05268 0.0
H1138 H 0.64621 0.48836 0.05657 0.0
H1139 H 0.66762 0.49691 0.03289 0.0
H1140 H 0.62077 0.48028 0.94669 0.0
H1141 H 0.58034 0.49449 0.96108 0.0
H1142 H 0.60182 0.48369 0.03714 0.0
C1143 C 0.68379 0.43811 0.00638 0.0
C1144 C 0.69724 0.43093 0.98514 0.0
C1145 C 0.68951 0.43858 0.96154 0.0
C1146 C 0.66846 0.45299 0.95921 0.0
C1147 C 0.65572 0.46 0.98072 0.0
C1148 C 0.6633 0.45282 0.00382 0.0
C1149 C 0.6464 0.4618 0.02412 0.0
C1150 C 0.63508 0.43888 0.03731 0.0
C1151 C 0.65928 0.48062 0.04265 0.0
C1152 C 0.62787 0.47499 0.00899 0.0
C1153 C 0.6332 0.47371 0.98392 0.0
C1154 C 0.61671 0.48178 0.96634 0.0
C1155 C 0.59381 0.48996 0.97464 0.0
C1156 C 0.58781 0.48995 0.00019 0.0
C1157 C 0.60577 0.48399 0.01746 0.0
H1158 H 0.84319 0.43668 0.23647 0.0
H1159 H 0.85724 0.43266 0.31519 0.0
H1160 H 0.85166 0.38566 0.312 0.0
H1161 H 0.79477 0.39592 0.23642 0.0
H1162 H 0.79979 0.38137 0.20599 0.0
H1163 H 0.81124 0.41309 0.21326 0.0
H1164 H 0.85439 0.39872 0.20079 0.0
H1165 H 0.84298 0.36668 0.19389 0.0
H1166 H 0.86753 0.37211 0.21562 0.0
H1167 H 0.83855 0.34064 0.30183 0.0
H1168 H 0.81252 0.30391 0.28763 0.0
H1169 H 0.80474 0.33743 0.21607 0.0
C1170 C 0.84584 0.42569 0.25279 0.0
C1171 C 0.85087 0.43799 0.27598 0.0
C1172 C 0.85341 0.42336 0.29724 0.0
C1173 C 0.85059 0.39668 0.29552 0.0
C1174 C 0.84503 0.385 0.27244 0.0
C1175 C 0.84242 0.39911 0.25148 0.0
C1176 C 0.83188 0.38288 0.23009 0.0
C1177 C 0.80801 0.39397 0.22094 0.0
C1178 C 0.8503 0.37992 0.20884 0.0
C1179 C 0.82766 0.35787 0.24268 0.0
C1180 C 0.8363 0.3591 0.26678 0.0
C1181 C 0.83209 0.33926 0.28286 0.0
C1182 C 0.81739 0.31838 0.27463 0.0
C1183 C 0.80665 0.31803 0.25083 0.0
C1184 C 0.81298 0.33725 0.23429 0.0
H1185 H 0.82843 0.59487 0.52306 0.0
H1186 H 0.80506 0.53794 0.46705 0.0
H1187 H 0.84336 0.51477 0.47225 0.0
H1188 H 0.89119 0.59673 0.50833 0.0
H1189 H 0.90104 0.59964 0.54021 0.0
H1190 H 0.8721 0.61173 0.53159 0.0
H1191 H 0.85076 0.58387 0.56413 0.0
H1192 H 0.87965 0.57192 0.57307 0.0
H1193 H 0.85561 0.54992 0.56333 0.0
H1194 H 0.8851 0.49897 0.48303 0.0
H1195 H 0.92462 0.48902 0.50195 0.0
H1196 H 0.91852 0.55496 0.55263 0.0
C1197 C 0.83134 0.57731 0.51221 0.0
C1198 C 0.81402 0.5678 0.49494 0.0
C1199 C 0.81818 0.54502 0.48074 0.0
C1200 C 0.83989 0.53198 0.48339 0.0
C1201 C 0.85685 0.54195 0.50055 0.0
C1202 C 0.85257 0.56383 0.51504 0.0
C1203 C 0.87306 0.57 0.53294 0.0
C1204 C 0.88505 0.59607 0.52795 0.0
C1205 C 0.86424 0.56885 0.55996 0.0
C1206 C 0.8897 0.54833 0.52617 0.0
C1207 C 0.88027 0.53249 0.50723 0.0
C1208 C 0.89262 0.51121 0.4979 0.0
C1209 C 0.91505 0.50582 0.50854 0.0
C1210 C 0.92442 0.52147 0.52841 0.0
C1211 C 0.91167 0.54294 0.53723 0.0
H1212 H 0.17141 0.05632 0.24039 0.0
H1213 H 0.12742 0.08159 0.3027 0.0
H1214 H 0.13787 0.12662 0.29443 0.0
H1215 H 0.2186 0.09286 0.25505 0.0
H1216 H 0.22833 0.1001 0.22413 0.0
H1217 H 0.21067 0.07169 0.2289 0.0
H1218 H 0.17915 0.0861 0.19702 0.0
H1219 H 0.19678 0.11496 0.19255 0.0
H1220 H 0.16539 0.11684 0.20141 0.0
H1221 H 0.15887 0.16717 0.28523 0.0
H1222 H 0.19404 0.1968 0.28284 0.0
H1223 H 0.228 0.14505 0.22961 0.0
C1224 C 0.16323 0.07154 0.2515 0.0
C1225 C 0.14829 0.06583 0.27178 0.0
C1226 C 0.13865 0.08584 0.28683 0.0
C1227 C 0.14428 0.11142 0.28206 0.0
C1228 C 0.15981 0.1166 0.26234 0.0
C1229 C 0.16936 0.09711 0.24742 0.0
C1230 C 0.18983 0.10698 0.23146 0.0
C1231 C 0.21322 0.09205 0.23516 0.0
C1232 C 0.18233 0.10618 0.20398 0.0
C1233 C 0.19207 0.13433 0.24168 0.0
C1234 C 0.17349 0.14001 0.25815 0.0
C1235 C 0.17316 0.16315 0.27198 0.0
C1236 C 0.19313 0.18 0.27041 0.0
C1237 C 0.21335 0.17315 0.25576 0.0
C1238 C 0.21228 0.15083 0.24028 0.0
H1239 H 0.34189 0.92052 0.51696 0.0
H1240 H 0.312 0.91899 0.4426 0.0
H1241 H 0.35348 0.92174 0.42522 0.0
H1242 H 0.38579 0.9678 0.50598 0.0
H1243 H 0.40766 0.95504 0.52664 0.0
H1244 H 0.37595 0.94934 0.53175 0.0
H1245 H 0.38387 0.90058 0.53065 0.0
H1246 H 0.41552 0.90645 0.52441 0.0
H1247 H 0.39779 0.88562 0.50365 0.0
H1248 H 0.39694 0.93041 0.41662 0.0
H1249 H 0.43699 0.9522 0.41795 0.0
H1250 H 0.43946 0.94533 0.49757 0.0
C1251 C 0.34418 0.92049 0.49699 0.0
C1252 C 0.32402 0.91953 0.48102 0.0
C1253 C 0.3274 0.92 0.45506 0.0
C1254 C 0.35084 0.92106 0.44508 0.0
C1255 C 0.37051 0.92164 0.46137 0.0
C1256 C 0.36734 0.92184 0.48681 0.0
C1257 C 0.39098 0.92644 0.5005 0.0
C1258 C 0.39004 0.95111 0.51717 0.0
C1259 C 0.39742 0.90337 0.51569 0.0
C1260 C 0.40804 0.92941 0.47877 0.0
C1261 C 0.39595 0.9261 0.45631 0.0
C1262 C 0.40681 0.93236 0.43395 0.0
C1263 C 0.4297 0.94444 0.43478 0.0
C1264 C 0.44134 0.94989 0.4578 0.0
C1265 C 0.43132 0.94034 0.47968 0.0
H1266 H 0.78905 0.56579 0.27659 0.0
H1267 H 0.82229 0.54888 0.20498 0.0
H1268 H 0.80793 0.58968 0.19013 0.0
H1269 H 0.73732 0.60794 0.25456 0.0
H1270 H 0.74184 0.62886 0.28168 0.0
H1271 H 0.74663 0.59504 0.28345 0.0
H1272 H 0.78945 0.6056 0.30064 0.0
H1273 H 0.78586 0.63925 0.2974 0.0
H1274 H 0.81069 0.62333 0.28221 0.0
H1275 H 0.80208 0.63618 0.18767 0.0
H1276 H 0.79815 0.68277 0.19518 0.0
H1277 H 0.76909 0.67014 0.26844 0.0
C1278 C 0.7921 0.56988 0.2573 0.0
C1279 C 0.80701 0.55421 0.24202 0.0
C1280 C 0.81097 0.56058 0.21706 0.0
C1281 C 0.80291 0.58381 0.20848 0.0
C1282 C 0.79067 0.60019 0.22498 0.0
C1283 C 0.78459 0.5932 0.2487 0.0
C1284 C 0.7754 0.61576 0.26427 0.0
C1285 C 0.7487 0.61165 0.27139 0.0
C1286 C 0.79129 0.62128 0.28748 0.0
C1287 C 0.77833 0.6367 0.24603 0.0
C1288 C 0.78702 0.62734 0.22343 0.0
C1289 C 0.79442 0.6436 0.20492 0.0
C1290 C 0.79246 0.67 0.20947 0.0
C1291 C 0.78306 0.67982 0.23227 0.0
C1292 C 0.77573 0.66295 0.25063 0.0
H1293 H 0.70558 0.42334 0.78671 0.0
H1294 H 0.68874 0.45262 0.71484 0.0
H1295 H 0.70319 0.41292 0.69432 0.0
H1296 H 0.75989 0.38287 0.76455 0.0
H1297 H 0.75131 0.35827 0.78546 0.0
H1298 H 0.74598 0.39133 0.79394 0.0
H1299 H 0.70083 0.37964 0.80111 0.0
H1300 H 0.70574 0.34686 0.79161 0.0
H1301 H 0.68329 0.3648 0.776 0.0
H1302 H 0.7098 0.36797 0.68249 0.0
H1303 H 0.71639 0.32174 0.67868 0.0
H1304 H 0.72903 0.32051 0.75819 0.0
C1305 C 0.70633 0.42195 0.76662 0.0
C1306 C 0.69626 0.44099 0.75226 0.0
C1307 C 0.6966 0.43825 0.72605 0.0
C1308 C 0.70465 0.41574 0.71427 0.0
C1309 C 0.71253 0.39638 0.72901 0.0
C1310 C 0.71421 0.39943 0.75457 0.0
C1311 C 0.72082 0.37457 0.7661 0.0
C1312 C 0.746 0.3769 0.77822 0.0
C1313 C 0.7015 0.36598 0.78479 0.0
C1314 C 0.7211 0.35687 0.74316 0.0
C1315 C 0.7165 0.36996 0.72201 0.0
C1316 C 0.71417 0.3576 0.69877 0.0
C1317 C 0.71772 0.33128 0.69687 0.0
C1318 C 0.72347 0.31755 0.7181 0.0
C1319 C 0.72476 0.33049 0.74161 0.0
H1320 H 0.97984 0.80212 0.94269 0.0
H1321 H 0.96377 0.82838 0.86962 0.0
H1322 H 0.96675 0.8733 0.88573 0.0
H1323 H 0.94984 0.85717 0.97938 0.0
H1324 H 0.97339 0.85782 0.00251 0.0
H1325 H 0.96439 0.828 0.98687 0.0
H1326 H 0.00889 0.82073 0.97321 0.0
H1327 H 0.01788 0.85027 0.98898 0.0
H1328 H 0.02469 0.84511 0.95646 0.0
H1329 H 0.97767 0.91508 0.90811 0.0
H1330 H -0.0009 0.94896 0.93379 0.0
H1331 H 0.00902 0.89546 0.99171 0.0
C1332 C 0.97608 0.81741 0.93044 0.0
C1333 C 0.97113 0.81206 0.90512 0.0
C1334 C 0.96718 0.83234 0.88921 0.0
C1335 C 0.96871 0.85784 0.89823 0.0
C1336 C 0.97412 0.86271 0.92326 0.0
C1337 C 0.97767 0.84301 0.93919 0.0
C1338 C 0.98656 0.85328 0.96431 0.0
C1339 C 0.9674 0.84879 0.98445 0.0
C1340 C 0.01095 0.84167 0.9711 0.0
C1341 C 0.98923 0.88143 0.9594 0.0
C1342 C 0.98108 0.88676 0.93598 0.0
C1343 C 0.98364 0.91122 0.92667 0.0
C1344 C -0.0043 0.93038 0.94134 0.0
C1345 C 0.00534 0.92462 0.96465 0.0
C1346 C 0.00135 0.90022 0.97404 0.0
H1347 H 0.93198 0.23343 0.67537 0.0
H1348 H 0.95204 0.30443 0.71487 0.0
H1349 H 0.91074 0.30688 0.73276 0.0
H1350 H 0.87513 0.24791 0.65782 0.0
H1351 H 0.86079 0.21739 0.66325 0.0
H1352 H 0.89264 0.21922 0.65649 0.0
H1353 H 0.90235 0.19696 0.69729 0.0
H1354 H 0.87038 0.1946 0.70391 0.0
H1355 H 0.89074 0.20988 0.72634 0.0
H1356 H 0.86662 0.30346 0.74286 0.0
H1357 H 0.82267 0.29378 0.74579 0.0
H1358 H 0.83145 0.22521 0.69906 0.0
C1359 C 0.92773 0.24899 0.68841 0.0
C1360 C 0.94487 0.26855 0.69424 0.0
C1361 C 0.939 0.28906 0.71081 0.0
C1362 C 0.91568 0.29061 0.72093 0.0
C1363 C 0.89887 0.2712 0.7145 0.0
C1364 C 0.90473 0.25052 0.699 0.0
C1365 C 0.8831 0.23281 0.6942 0.0
C1366 C 0.8776 0.22915 0.66628 0.0
C1367 C 0.88687 0.20704 0.70614 0.0
C1368 C 0.86372 0.24779 0.70772 0.0
C1369 C 0.87332 0.26949 0.71992 0.0
C1370 C 0.85894 0.28642 0.73362 0.0
C1371 C 0.8341 0.28085 0.7351 0.0
C1372 C 0.82399 0.25895 0.72242 0.0
C1373 C 0.8389 0.24225 0.70857 0.0
H1374 H 0.48828 0.19858 0.44777 0.0
H1375 H 0.53457 0.17791 0.38574 0.0
H1376 H 0.54459 0.13779 0.40537 0.0
H1377 H 0.52745 0.16117 0.49677 0.0
H1378 H 0.49991 0.15356 0.51307 0.0
H1379 H 0.50361 0.18409 0.49906 0.0
H1380 H 0.46369 0.17557 0.47449 0.0
H1381 H 0.45996 0.14544 0.48844 0.0
H1382 H 0.46042 0.14678 0.45505 0.0
H1383 H 0.53834 0.09553 0.42375 0.0
H1384 H 0.51683 0.0574 0.43922 0.0
H1385 H 0.47712 0.10553 0.49111 0.0
C1386 C 0.5015 0.18612 0.4391 0.0
C1387 C 0.51067 0.19117 0.41541 0.0
C1388 C 0.52761 0.17447 0.40412 0.0
C1389 C 0.5335 0.15166 0.41521 0.0
C1390 C 0.52302 0.14636 0.43804 0.0
C1391 C 0.50803 0.16365 0.45033 0.0
C1392 C 0.49618 0.15201 0.47262 0.0
C1393 C 0.50746 0.16339 0.4968 0.0
C1394 C 0.46845 0.1551 0.47257 0.0
C1395 C 0.50337 0.12449 0.46838 0.0
C1396 C 0.52002 0.12173 0.44926 0.0
C1397 C 0.52611 0.09756 0.43937 0.0
C1398 C 0.51389 0.07595 0.44823 0.0
C1399 C 0.49571 0.07893 0.46644 0.0
C1400 C 0.49144 0.10314 0.47752 0.0
H1401 H 0.60023 0.78747 0.14832 0.0
H1402 H 0.55672 0.7207 0.16516 0.0
H1403 H 0.59355 0.69674 0.17291 0.0
H1404 H 0.65366 0.74481 0.12138 0.0
H1405 H 0.67567 0.76825 0.13247 0.0
H1406 H 0.64707 0.77834 0.12081 0.0
H1407 H 0.63841 0.804 0.16157 0.0
H1408 H 0.66731 0.79544 0.17305 0.0
H1409 H 0.64036 0.78846 0.19074 0.0
H1410 H 0.6309 0.68591 0.19154 0.0
H1411 H 0.66463 0.69046 0.22116 0.0
H1412 H 0.68727 0.76122 0.18901 0.0
C1413 C 0.59881 0.76758 0.15297 0.0
C1414 C 0.57611 0.75575 0.15639 0.0
C1415 C 0.57428 0.72984 0.16247 0.0
C1416 C 0.59506 0.71602 0.16652 0.0
C1417 C 0.61747 0.72821 0.16364 0.0
C1418 C 0.61952 0.75329 0.15651 0.0
C1419 C 0.64547 0.76283 0.15789 0.0
C1420 C 0.65608 0.76361 0.13158 0.0
C1421 C 0.64799 0.7892 0.17168 0.0
C1422 C 0.65649 0.74151 0.17203 0.0
C1423 C 0.64045 0.72083 0.17344 0.0
C1424 C 0.64406 0.70134 0.18981 0.0
C1425 C 0.66318 0.70408 0.20668 0.0
C1426 C 0.67845 0.72597 0.20675 0.0
C1427 C 0.67622 0.74387 0.18824 0.0
H1428 H -0.00618 0.20309 0.58329 0.0
H1429 H -0.00566 0.171 0.65594 0.0
H1430 H 0.01052 0.13049 0.63736 0.0
H1431 H 0.97428 0.15071 0.54924 0.0
H1432 H -0.00667 0.15618 0.52273 0.0
H1433 H 0.98472 0.18261 0.54279 0.0
H1434 H 0.03012 0.19497 0.54952 0.0
H1435 H 0.03882 0.16813 0.5297 0.0
H1436 H 0.05051 0.17176 0.5609 0.0
H1437 H 0.01947 0.09171 0.60902 0.0
H1438 H 0.02022 0.05911 0.57445 0.0
H1439 H 0.01865 0.11933 0.52168 0.0
C1440 C -0.0026 0.18746 0.59522 0.0
C1441 C -0.00777 0.18944 0.62069 0.0
C1442 C -0.00225 0.16925 0.63616 0.0
C1443 C 0.0072 0.14647 0.62583 0.0
C1444 C 0.01186 0.14494 0.60033 0.0
C1445 C 0.0075 0.16518 0.5854 0.0
C1446 C 0.01254 0.15862 0.55846 0.0
C1447 C 0.98987 0.16222 0.54239 0.0
C1448 C 0.0343 0.1743 0.54911 0.0
C1449 C 0.01861 0.13084 0.56016 0.0
C1450 C 0.01859 0.12324 0.58443 0.0
C1451 C 0.0202 0.09755 0.59002 0.0
C1452 C 0.02062 0.07916 0.57027 0.0
C1453 C 0.01933 0.08674 0.5454 0.0
C1454 C 0.01975 0.11293 0.54048 0.0
H1455 H 0.60174 0.22653 0.3401 0.0
H1456 H 0.57367 0.30216 0.35656 0.0
H1457 H 0.61239 0.32145 0.34356 0.0
H1458 H 0.66759 0.24376 0.35727 0.0
H1459 H 0.67844 0.22321 0.33222 0.0
H1460 H 0.65081 0.21497 0.34809 0.0
H1461 H 0.62827 0.21219 0.30587 0.0
H1462 H 0.65588 0.22041 0.29021 0.0
H1463 H 0.62936 0.23931 0.28633 0.0
H1464 H 0.6499 0.33269 0.32173 0.0
H1465 H 0.68442 0.33522 0.29301 0.0
H1466 H 0.68939 0.25257 0.29101 0.0
C1467 C 0.60404 0.24712 0.34176 0.0
C1468 C 0.58468 0.26284 0.34936 0.0
C1469 C 0.58824 0.28972 0.35087 0.0
C1470 C 0.61024 0.30087 0.34365 0.0
C1471 C 0.62864 0.28489 0.33534 0.0
C1472 C 0.62596 0.25857 0.33466 0.0
C1473 C 0.64754 0.2459 0.32231 0.0
C1474 C 0.66193 0.23109 0.34113 0.0
C1475 C 0.63978 0.22845 0.29985 0.0
C1476 C 0.66175 0.26925 0.3144 0.0
C1477 C 0.65083 0.29152 0.32272 0.0
C1478 C 0.65901 0.31545 0.31564 0.0
C1479 C 0.67854 0.31667 0.29919 0.0
C1480 C 0.68958 0.29409 0.28989 0.0
C1481 C 0.68155 0.27015 0.29821 0.0
H1482 H 0.46924 0.79795 0.04557 0.0
H1483 H 0.52363 0.80176 0.10364 0.0
H1484 H 0.53781 0.84336 0.09011 0.0
H1485 H 0.51244 0.83978 0.00033 0.0
H1486 H 0.4858 0.85331 0.98738 0.0
H1487 H 0.48547 0.82023 -0.00447 0.0
H1488 H 0.44781 0.82842 0.02304 0.0
H1489 H 0.44824 0.86137 0.01543 0.0
H1490 H 0.44929 0.85301 0.04754 0.0
H1491 H 0.53548 0.8877 0.08211 0.0
H1492 H 0.52172 0.93098 0.07424 0.0
H1493 H 0.4727 0.90008 0.0174 0.0
C1494 C 0.48494 0.80711 0.0544 0.0
C1495 C 0.49534 0.7968 0.07552 0.0
C1496 C 0.51561 0.8092 0.08716 0.0
C1497 C 0.52393 0.83285 0.07953 0.0
C1498 C 0.51249 0.84336 0.05956 0.0
C1499 C 0.49421 0.83046 0.04625 0.0
C1500 C 0.48341 0.84755 0.02732 0.0
C1501 C 0.49231 0.83975 0.00109 0.0
C1502 C 0.45555 0.8476 0.02847 0.0
C1503 C 0.49477 0.87301 0.03581 0.0
C1504 C 0.51244 0.86986 0.05357 0.0
C1505 C 0.52265 0.89046 0.06736 0.0
C1506 C 0.51449 0.91486 0.06308 0.0
C1507 C 0.49643 0.91837 0.04517 0.0
C1508 C 0.48693 0.89748 0.03081 0.0
H1509 H 0.93891 0.7175 0.81015 0.0
H1510 H 0.94915 0.79974 0.81256 0.0
H1511 H 0.9108 0.80379 0.78896 0.0
H1512 H 0.91282 0.7125 0.74668 0.0
H1513 H 0.89268 0.68657 0.75466 0.0
H1514 H 0.92174 0.69057 0.7697 0.0
H1515 H 0.90088 0.69209 0.81291 0.0
H1516 H 0.87195 0.68763 0.79804 0.0
H1517 H 0.87734 0.7148 0.81913 0.0
H1518 H 0.86811 0.79812 0.7699 0.0
H1519 H 0.8265 0.78359 0.7582 0.0
H1520 H 0.84737 0.70492 0.76528 0.0
C1521 C 0.93319 0.73634 0.80542 0.0
C1522 C 0.94668 0.75832 0.81316 0.0
C1523 C 0.93892 0.78269 0.80661 0.0
C1524 C 0.91727 0.78511 0.79318 0.0
C1525 C 0.90421 0.76289 0.78586 0.0
C1526 C 0.91219 0.73897 0.79153 0.0
C1527 C 0.8947 0.71802 0.78269 0.0
C1528 C 0.90617 0.70091 0.76221 0.0
C1529 C 0.88569 0.70224 0.80449 0.0
C1530 C 0.87483 0.73381 0.77239 0.0
C1531 C 0.8806 0.75966 0.774 0.0
C1532 C 0.86369 0.77789 0.76802 0.0
C1533 C 0.8401 0.76947 0.76125 0.0
C1534 C 0.83372 0.74309 0.76076 0.0
C1535 C 0.85172 0.72518 0.76527 0.0
H1536 H 0.91013 0.9742 0.81679 0.0
H1537 H 0.97204 0.00946 0.7815 0.0
H1538 H -0.00576 0.01085 0.82147 0.0
H1539 H 0.90987 0.00829 0.8698 0.0
H1540 H 0.90279 0.98314 0.89064 0.0
H1541 H 0.89386 0.97969 0.85865 0.0
H1542 H 0.91691 0.93725 0.85356 0.0
H1543 H 0.92556 0.94027 0.88584 0.0
H1544 H 0.9484 0.9365 0.86218 0.0
H1545 H 0.00664 0.01485 0.86617 0.0
H1546 H 0.00907 0.01954 0.91198 0.0
H1547 H 0.93895 0.98144 0.91787 0.0
C1548 C 0.92872 0.98124 0.81742 0.0
C1549 C 0.93967 0.99144 0.79633 0.0
C1550 C 0.96373 0.00108 0.79754 0.0
C1551 C 0.97639 0.00196 0.82012 0.0
C1552 C 0.96484 0.99247 0.84094 0.0
C1553 C 0.94174 0.98167 0.83964 0.0
C1554 C 0.93267 0.97465 0.86501 0.0
C1555 C 0.90838 0.98723 0.87138 0.0
C1556 C 0.93077 0.94544 0.86674 0.0
C1557 C 0.95315 0.98563 0.88102 0.0
C1558 C 0.97192 0.99497 0.86678 0.0
C1559 C -0.00769 0.00709 0.87751 0.0
C1560 C -0.00648 0.00973 0.90347 0.0
C1561 C 0.97418 0.00087 0.91825 0.0
C1562 C 0.95393 0.98842 0.90688 0.0
H1563 H 0.79299 0.16434 0.57373 0.0
H1564 H 0.72466 0.12406 0.55845 0.0
H1565 H 0.71284 0.1304 0.60201 0.0
H1566 H 0.80222 0.14263 0.63656 0.0
H1567 H 0.81345 0.17329 0.64858 0.0
H1568 H 0.81797 0.16399 0.61636 0.0
H1569 H 0.79697 0.205 0.60295 0.0
H1570 H 0.79295 0.21455 0.63512 0.0
H1571 H 0.76715 0.212 0.61465 0.0
H1572 H 0.70661 0.14334 0.64606 0.0
H1573 H 0.70493 0.16647 0.68696 0.0
H1574 H 0.77707 0.19773 0.67524 0.0
C1575 C 0.77563 0.1567 0.57959 0.0
C1576 C 0.76004 0.14317 0.56256 0.0
C1577 C 0.73725 0.13397 0.57103 0.0
C1578 C 0.73032 0.13742 0.59587 0.0
C1579 C 0.74625 0.15029 0.61223 0.0
C1580 C 0.76828 0.16014 0.60447 0.0
C1581 C 0.78096 0.17515 0.62559 0.0
C1582 C 0.80508 0.16303 0.63215 0.0
C1583 C 0.78472 0.20334 0.6192 0.0
C1584 C 0.7625 0.17227 0.64624 0.0
C1585 C 0.7427 0.15765 0.63812 0.0
C1586 C 0.7222 0.15438 0.65288 0.0
C1587 C 0.72144 0.16735 0.67613 0.0
C1588 C 0.74116 0.18305 0.68445 0.0
C1589 C 0.76224 0.18485 0.6697 0.0
H1590 H 0.56257 0.96422 0.31351 0.0
H1591 H 0.59142 0.04042 0.30295 0.0
H1592 H 0.57955 0.05349 0.34579 0.0
H1593 H 0.51139 0.9838 0.35871 0.0
H1594 H 0.51613 0.95562 0.37598 0.0
H1595 H 0.52089 0.95471 0.34287 0.0
H1596 H 0.56414 0.93846 0.35001 0.0
H1597 H 0.5601 0.94046 0.38309 0.0
H1598 H 0.58499 0.9575 0.36919 0.0
H1599 H 0.57335 0.05507 0.39167 0.0
H1600 H 0.56632 0.04714 0.4362 0.0
H1601 H 0.54139 0.96997 0.4165 0.0
C1602 C 0.56491 0.98404 0.31984 0.0
C1603 C 0.5772 0.00162 0.30515 0.0
C1604 C 0.58132 0.02707 0.31402 0.0
C1605 C 0.57481 0.03454 0.3383 0.0
C1606 C 0.56408 0.01626 0.35308 0.0
C1607 C 0.55843 0.99172 0.34397 0.0
C1608 C 0.54958 0.97488 0.36434 0.0
C1609 C 0.52291 0.96679 0.36023 0.0
C1610 C 0.56568 0.95147 0.36678 0.0
C1611 C 0.55243 0.99333 0.38644 0.0
C1612 C 0.56068 0.01714 0.37963 0.0
C1613 C 0.56643 0.03667 0.39719 0.0
C1614 C 0.56288 0.03191 0.42233 0.0
C1615 C 0.5538 0.00788 0.42933 0.0
C1616 C 0.54856 0.98841 0.4113 0.0
H1617 H 0.72643 0.8529 0.09333 0.0
H1618 H 0.7276 0.77879 0.05505 0.0
H1619 H 0.71879 0.75811 0.0945 0.0
H1620 H 0.76318 0.8385 0.13526 0.0
H1621 H 0.75115 0.8567 0.16145 0.0
H1622 H 0.74514 0.8662 0.13068 0.0
H1623 H 0.69913 0.86377 0.13947 0.0
H1624 H 0.70497 0.85388 0.17051 0.0
H1625 H 0.68546 0.83465 0.15009 0.0
H1626 H 0.72208 0.7452 0.13698 0.0
H1627 H 0.74339 0.74084 0.17664 0.0
H1628 H 0.74623 0.82295 0.18834 0.0
C1629 C 0.72327 0.83241 0.09322 0.0
C1630 C 0.72694 0.81731 0.07138 0.0
C1631 C 0.72423 0.79053 0.07167 0.0
C1632 C 0.71911 0.77874 0.09398 0.0
C1633 C 0.71747 0.79404 0.1158 0.0
C1634 C 0.71948 0.82045 0.11558 0.0
C1635 C 0.72418 0.83214 0.14139 0.0
C1636 C 0.74729 0.84933 0.14221 0.0
C1637 C 0.70211 0.84697 0.15093 0.0
C1638 C 0.72725 0.80815 0.15559 0.0
C1639 C 0.72164 0.78647 0.14091 0.0
C1640 C 0.72605 0.76199 0.14879 0.0
C1641 C 0.73808 0.75965 0.17133 0.0
C1642 C 0.74599 0.78165 0.18523 0.0
C1643 C 0.73955 0.80603 0.17805 0.0
H1644 H 0.89565 0.96784 0.6593 0.0
H1645 H 0.88337 0.04822 0.64979 0.0
H1646 H 0.90257 0.04507 0.60865 0.0
H1647 H 0.95012 0.96778 0.64438 0.0
H1648 H 0.95214 0.93759 0.62723 0.0
H1649 H 0.9285 0.9422 0.6495 0.0
H1650 H 0.89591 0.93088 0.61614 0.0
H1651 H 0.9196 0.92545 0.5936 0.0
H1652 H 0.89592 0.94747 0.58752 0.0
H1653 H 0.93505 0.03788 0.57806 0.0
H1654 H 0.97392 0.02565 0.55847 0.0
H1655 H 0.96627 0.95043 0.58821 0.0
C1656 C 0.89592 0.98441 0.64797 0.0
C1657 C 0.88855 0.0083 0.65783 0.0
C1658 C 0.88912 0.02969 0.64264 0.0
C1659 C 0.89992 0.02805 0.61913 0.0
C1660 C 0.90958 0.0048 0.611 0.0
C1661 C 0.90694 0.98305 0.62466 0.0
C1662 C 0.92296 0.96193 0.61475 0.0
C1663 C 0.93939 0.95186 0.63517 0.0
C1664 C 0.90768 0.94015 0.60225 0.0
C1665 C 0.9373 0.97628 0.59575 0.0
C1666 C 0.92866 0.00058 0.59294 0.0
C1667 C 0.94136 0.01856 0.57924 0.0
C1668 C 0.9635 0.01161 0.56841 0.0
C1669 C 0.97287 0.98721 0.5721 0.0
C1670 C 0.95928 0.9692 0.58521 0.0
H1671 H 0.77944 0.20093 0.43995 0.0
H1672 H 0.71115 0.15829 0.4405 0.0
H1673 H 0.70001 0.17625 0.40104 0.0
H1674 H 0.75123 0.25836 0.40323 0.0
H1675 H 0.77986 0.26297 0.38783 0.0
H1676 H 0.77906 0.25382 0.41972 0.0
H1677 H 0.80559 0.21516 0.40773 0.0
H1678 H 0.80588 0.22355 0.37584 0.0
H1679 H 0.7952 0.1922 0.38395 0.0
H1680 H 0.70259 0.18539 0.35709 0.0
H1681 H 0.71507 0.19314 0.31407 0.0
H1682 H 0.77971 0.23344 0.34104 0.0
C1683 C 0.76163 0.19644 0.4324 0.0
C1684 C 0.74648 0.17775 0.44316 0.0
C1685 C 0.72331 0.1723 0.43263 0.0
C1686 C 0.71669 0.18252 0.41014 0.0
C1687 C 0.73296 0.19903 0.39883 0.0
C1688 C 0.75447 0.20704 0.4101 0.0
C1689 C 0.76971 0.22284 0.39264 0.0
C1690 C 0.76998 0.25117 0.40137 0.0
C1691 C 0.7956 0.21279 0.38987 0.0
C1692 C 0.75526 0.21886 0.36881 0.0
C1693 C 0.73366 0.20584 0.37309 0.0
C1694 C 0.71887 0.19657 0.35365 0.0
C1695 C 0.72621 0.20076 0.32929 0.0
C1696 C 0.74809 0.21411 0.32453 0.0
C1697 C 0.76259 0.22374 0.34446 0.0
H1698 H 0.58887 0.04246 0.18424 0.0
H1699 H 0.62962 0.97512 0.1632 0.0
H1700 H 0.61874 0.98034 0.11935 0.0
H1701 H 0.54076 0.02702 0.15186 0.0
H1702 H 0.53293 0.05849 0.14267 0.0
H1703 H 0.55044 0.05502 0.17017 0.0
H1704 H 0.58413 0.08472 0.15307 0.0
H1705 H 0.56654 0.08831 0.12529 0.0
H1706 H 0.59722 0.07739 0.12303 0.0
H1707 H 0.59464 0.98482 0.08237 0.0
H1708 H 0.56077 0.9887 0.0533 0.0
H1709 H 0.53365 0.05186 0.09878 0.0
C1710 C 0.59622 0.02933 0.17029 0.0
C1711 C 0.60993 0.00832 0.177 0.0
C1712 C 0.61911 0.99139 0.15836 0.0
C1713 C 0.61316 0.99435 0.13341 0.0
C1714 C 0.59831 0.01448 0.12754 0.0
C1715 C 0.5902 0.03189 0.14547 0.0
C1716 C 0.57087 0.04869 0.13547 0.0
C1717 C 0.54739 0.04716 0.15094 0.0
C1718 C 0.58026 0.07642 0.13413 0.0
C1719 C 0.56766 0.03639 0.1098 0.0
C1720 C 0.58437 0.01743 0.10524 0.0
C1721 C 0.58257 0.00065 0.08462 0.0
C1722 C 0.56311 0.0029 0.06837 0.0
C1723 C 0.54505 0.021 0.0737 0.0
C1724 C 0.54781 0.03854 0.09404 0.0
H1725 H 0.75812 0.79088 0.95451 0.0
H1726 H 0.73157 0.86598 0.9395 0.0
H1727 H 0.72266 0.85144 0.89615 0.0
H1728 H 0.78828 0.77991 0.89995 0.0
H1729 H 0.78052 0.74634 0.89649 0.0
H1730 H 0.78159 0.76175 0.92689 0.0
H1731 H 0.73729 0.74685 0.93505 0.0
H1732 H 0.7361 0.73122 0.90462 0.0
H1733 H 0.71382 0.75449 0.91356 0.0
H1734 H 0.72237 0.83018 0.85297 0.0
H1735 H 0.72877 0.80341 0.81463 0.0
H1736 H 0.75377 0.74219 0.85937 0.0
C1737 C 0.75004 0.80412 0.94221 0.0
C1738 C 0.74563 0.8295 0.95021 0.0
C1739 C 0.73497 0.84634 0.93368 0.0
C1740 C 0.72983 0.83827 0.90906 0.0
C1741 C 0.73497 0.81319 0.90156 0.0
C1742 C 0.74444 0.79627 0.91782 0.0
C1743 C 0.74964 0.77084 0.90502 0.0
C1744 C 0.7766 0.76436 0.90722 0.0
C1745 C 0.73323 0.7496 0.91516 0.0
C1746 C 0.7429 0.77649 0.87872 0.0
C1747 C 0.73418 0.80086 0.87701 0.0
C1748 C 0.72871 0.81087 0.85414 0.0
C1749 C 0.73249 0.79559 0.83248 0.0
C1750 C 0.74174 0.77069 0.83397 0.0
C1751 C 0.74652 0.76105 0.85749 0.0
H1752 H 0.80639 0.94233 0.01021 0.0
H1753 H 0.82583 0.86288 0.00075 0.0
H1754 H 0.86932 0.87582 -0.00069 0.0
H1755 H 0.85521 0.97079 0.97325 0.0
H1756 H 0.85852 -0.00231 -0.00495 0.0
H1757 H 0.82944 0.98189 0.99085 0.0
H1758 H 0.82753 0.97504 0.0382 0.0
H1759 H 0.85687 0.99013 0.04248 0.0
H1760 H 0.85146 0.9582 0.05274 0.0
H1761 H 0.91149 0.89875 0.00066 0.0
H1762 H 0.94686 0.92875 0.00606 0.0
H1763 H 0.89748 0.9911 0.02009 0.0
C1764 C 0.81976 0.92772 0.00707 0.0
C1765 C 0.81294 0.90172 0.00524 0.0
C1766 C 0.83088 0.88297 0.00206 0.0
C1767 C 0.85555 0.89015 0.00119 0.0
C1768 C 0.86179 0.91607 0.00403 0.0
C1769 C 0.84428 0.93447 0.00697 0.0
C1770 C 0.85529 0.96066 0.01236 0.0
C1771 C 0.84926 0.97882 0.99164 0.0
C1772 C 0.84731 0.97163 0.03796 0.0
C1773 C 0.88174 0.95422 0.01223 0.0
C1774 C 0.88542 0.9286 0.00691 0.0
C1775 C 0.90875 0.91883 0.00503 0.0
C1776 C 0.92871 0.93591 0.0083 0.0
C1777 C 0.92502 0.96221 0.01395 0.0
C1778 C 0.90115 0.9711 0.01627 0.0
H1779 H 0.31174 0.54952 0.98514 0.0
H1780 H 0.33815 0.62518 0.00894 0.0
H1781 H 0.37382 0.60624 0.02784 0.0
H1782 H 0.33843 0.51431 0.03918 0.0
H1783 H 0.34559 0.48734 0.01883 0.0
H1784 H 0.3192 0.50587 0.01299 0.0
H1785 H 0.33446 0.51385 0.96837 0.0
H1786 H 0.36035 0.49494 0.97398 0.0
H1787 H 0.36448 0.52725 0.96416 0.0
H1788 H 0.40865 0.58076 0.03825 0.0
H1789 H 0.44339 0.55294 0.03108 0.0
H1790 H 0.39609 0.49375 -0.00139 0.0
C1791 C 0.32482 0.56201 -0.00518 0.0
C1792 C 0.32225 0.58874 -0.00432 0.0
C1793 C 0.33987 0.60463 0.00798 0.0
C1794 C 0.35994 0.59398 0.01919 0.0
C1795 C 0.36202 0.56746 0.01797 0.0
C1796 C 0.34507 0.5517 0.00579 0.0
C1797 C 0.35357 0.52446 0.00315 0.0
C1798 C 0.33829 0.50696 0.01951 0.0
C1799 C 0.35322 0.51459 0.9758 0.0
C1800 C 0.37905 0.52792 0.01326 0.0
C1801 C 0.38292 0.55251 0.02323 0.0
C1802 C 0.40571 0.56131 0.03113 0.0
C1803 C 0.42533 0.54531 0.02712 0.0
C1804 C 0.42209 0.52105 0.01497 0.0
C1805 C 0.39864 0.51179 0.00893 0.0
H1806 H 0.14518 0.58729 0.78774 0.0
H1807 H 0.13451 0.55195 0.71411 0.0
H1808 H 0.15141 0.59058 0.69555 0.0
H1809 H 0.1334 0.65541 0.77033 0.0
H1810 H 0.15654 0.66699 0.79184 0.0
H1811 H 0.13907 0.63858 0.79817 0.0
H1812 H 0.17961 0.61452 0.80239 0.0
H1813 H 0.19635 0.64304 0.79532 0.0
H1814 H 0.20069 0.61403 0.7768 0.0
H1815 H 0.17733 0.62792 0.68564 0.0
H1816 H 0.20901 0.66209 0.68552 0.0
H1817 H 0.1993 0.67589 0.76454 0.0
C1818 C 0.14584 0.58793 0.7677 0.0
C1819 C 0.13857 0.5666 0.75242 0.0
C1820 C 0.1399 0.56809 0.72625 0.0
C1821 C 0.14935 0.59002 0.71548 0.0
C1822 C 0.15688 0.61053 0.73109 0.0
C1823 C 0.15492 0.60983 0.75664 0.0
C1824 C 0.16665 0.63324 0.76934 0.0
C1825 C 0.14776 0.64952 0.78321 0.0
C1826 C 0.18703 0.62574 0.78697 0.0
C1827 C 0.17657 0.64658 0.747 0.0
C1828 C 0.1706 0.63327 0.72505 0.0
C1829 C 0.18129 0.63922 0.70247 0.0
C1830 C 0.19915 0.65866 0.70248 0.0
C1831 C 0.20561 0.67212 0.72481 0.0
C1832 C 0.19354 0.66671 0.74707 0.0
H1833 H 0.14658 0.41009 0.53606 0.0
H1834 H 0.18045 0.39679 0.46408 0.0
H1835 H 0.14343 0.41035 0.44356 0.0
H1836 H 0.08167 0.39284 0.51546 0.0
H1837 H 0.06978 0.41814 0.53529 0.0
H1838 H 0.09649 0.40174 0.54443 0.0
H1839 H 0.11944 0.44505 0.54938 0.0
H1840 H 0.09335 0.46181 0.53951 0.0
H1841 H 0.12166 0.46554 0.52336 0.0
H1842 H 0.10729 0.43263 0.43118 0.0
H1843 H 0.07395 0.46272 0.42779 0.0
H1844 H 0.06215 0.46123 0.50729 0.0
C1845 C 0.1459 0.40928 0.51596 0.0
C1846 C 0.16638 0.40242 0.50165 0.0
C1847 C 0.16501 0.40208 0.47543 0.0
C1848 C 0.14396 0.40948 0.46357 0.0
C1849 C 0.12432 0.41687 0.47818 0.0
C1850 C 0.12493 0.41661 0.50382 0.0
C1851 C 0.10267 0.4289 0.51517 0.0
C1852 C 0.08671 0.40922 0.52836 0.0
C1853 C 0.10972 0.45167 0.53288 0.0
C1854 C 0.0904 0.43759 0.492 0.0
C1855 C 0.1029 0.42987 0.47085 0.0
C1856 C 0.09693 0.43822 0.4475 0.0
C1857 C 0.0781 0.45544 0.44578 0.0
C1858 C 0.06552 0.46409 0.46728 0.0
C1859 C 0.0712 0.45441 0.49053 0.0
H1860 H 0.8451 0.93496 0.72947 0.0
H1861 H 0.85023 0.93271 0.80963 0.0
H1862 H 0.82968 0.89014 0.80804 0.0
H1863 H 0.7863 0.90966 0.72538 0.0
H1864 H 0.79112 0.89219 0.69633 0.0
H1865 H 0.80892 0.92057 0.70389 0.0
H1866 H 0.84821 0.89481 0.69748 0.0
H1867 H 0.8304 0.86624 0.69015 0.0
H1868 H 0.85251 0.86651 0.71474 0.0
H1869 H 0.80623 0.84839 0.79741 0.0
H1870 H 0.77792 0.81505 0.77929 0.0
H1871 H 0.78758 0.84666 0.70686 0.0
C1872 C 0.84226 0.92535 0.74667 0.0
C1873 C 0.84936 0.93702 0.76963 0.0
C1874 C 0.84484 0.92409 0.7918 0.0
C1875 C 0.83341 0.89982 0.79107 0.0
C1876 C 0.82656 0.88885 0.76804 0.0
C1877 C 0.83063 0.90142 0.74629 0.0
C1878 C 0.81934 0.88707 0.7242 0.0
C1879 C 0.80029 0.90334 0.71174 0.0
C1880 C 0.83878 0.87813 0.70555 0.0
C1881 C 0.80777 0.86476 0.73691 0.0
C1882 C 0.81252 0.86563 0.76211 0.0
C1883 C 0.80256 0.84746 0.77767 0.0
C1884 C 0.78663 0.82856 0.76728 0.0
C1885 C 0.78063 0.82855 0.74179 0.0
C1886 C 0.79193 0.84634 0.72644 0.0
H1887 H 0.66363 0.08718 0.48182 0.0
H1888 H 0.68423 0.09416 0.55946 0.0
H1889 H 0.64115 0.09352 0.57152 0.0
H1890 H 0.6051 0.12269 0.48613 0.0
H1891 H 0.59022 0.10001 0.46481 0.0
H1892 H 0.62222 0.10676 0.46179 0.0
H1893 H 0.63115 0.05856 0.46441 0.0
H1894 H 0.59933 0.0517 0.46698 0.0
H1895 H 0.6197 0.04143 0.49043 0.0
H1896 H 0.59753 0.08437 0.57559 0.0
H1897 H 0.5579 0.06195 0.57129 0.0
H1898 H 0.56423 0.06244 0.4913 0.0
C1899 C 0.65898 0.08932 0.50131 0.0
C1900 C 0.67715 0.09094 0.51972 0.0
C1901 C 0.67052 0.09288 0.54507 0.0
C1902 C 0.6461 0.0929 0.55208 0.0
C1903 C 0.62852 0.09097 0.53351 0.0
C1904 C 0.63465 0.08901 0.50862 0.0
C1905 C 0.61265 0.0826 0.49261 0.0
C1906 C 0.60723 0.10433 0.47532 0.0
C1907 C 0.61591 0.05707 0.47776 0.0
C1908 C 0.59336 0.08035 0.51245 0.0
C1909 C 0.60279 0.08582 0.53591 0.0
C1910 C 0.58966 0.08083 0.55736 0.0
C1911 C 0.56707 0.0683 0.5548 0.0
C1912 C 0.55791 0.06112 0.53101 0.0
C1913 C 0.57043 0.06878 0.50966 0.0
H1914 H 0.17966 0.44161 0.80637 0.0
H1915 H 0.18697 0.46442 0.73048 0.0
H1916 H 0.21312 0.42777 0.72108 0.0
H1917 H 0.24172 0.4055 0.80977 0.0
H1918 H 0.22686 0.38149 0.82772 0.0
H1919 H 0.21832 0.41446 0.83156 0.0
H1920 H 0.17382 0.40073 0.82252 0.0
H1921 H 0.18215 0.36806 0.81788 0.0
H1922 H 0.16643 0.38364 0.79364 0.0
H1923 H 0.22776 0.38392 0.71656 0.0
H1924 H 0.22984 0.3368 0.71759 0.0
H1925 H 0.20931 0.34046 0.79517 0.0
C1926 C 0.18812 0.4397 0.78828 0.0
C1927 C 0.18168 0.45579 0.76921 0.0
C1928 C 0.19202 0.45232 0.74536 0.0
C1929 C 0.20697 0.43162 0.73991 0.0
C1930 C 0.21128 0.41461 0.75853 0.0
C1931 C 0.20248 0.41865 0.78245 0.0
C1932 C 0.20483 0.39501 0.79742 0.0
C1933 C 0.22409 0.39938 0.81782 0.0
C1934 C 0.18035 0.38637 0.80846 0.0
C1935 C 0.21349 0.37634 0.7774 0.0
C1936 C 0.21841 0.38827 0.7555 0.0
C1937 C 0.22457 0.37448 0.73377 0.0
C1938 C 0.22549 0.34781 0.73441 0.0
C1939 C 0.21941 0.33538 0.75637 0.0
C1940 C 0.21383 0.34978 0.77817 0.0
H1941 H 0.30473 0.55286 0.27696 0.0
H1942 H 0.35098 0.57198 0.21522 0.0
H1943 H 0.32757 0.61108 0.20946 0.0
H1944 H 0.24728 0.57993 0.25144 0.0
H1945 H 0.23812 0.59054 0.2822 0.0
H1946 H 0.25559 0.56204 0.27786 0.0
H1947 H 0.28741 0.58118 0.30916 0.0
H1948 H 0.27045 0.60991 0.31314 0.0
H1949 H 0.30167 0.61169 0.30349 0.0
H1950 H 0.30351 0.65223 0.21602 0.0
H1951 H 0.27869 0.68849 0.23159 0.0
H1952 H 0.24836 0.64061 0.28811 0.0
C1953 C 0.3093 0.56477 0.26162 0.0
C1954 C 0.32948 0.55941 0.24646 0.0
C1955 C 0.33526 0.57557 0.22678 0.0
C1956 C 0.32216 0.5979 0.22348 0.0
C1957 C 0.30303 0.60335 0.23964 0.0
C1958 C 0.29626 0.58679 0.2579 0.0
C1959 C 0.27648 0.5977 0.27421 0.0
C1960 C 0.25297 0.58159 0.27124 0.0
C1961 C 0.2845 0.60028 0.3016 0.0
C1962 C 0.27397 0.62349 0.26315 0.0
C1963 C 0.28917 0.62652 0.24308 0.0
C1964 C 0.29112 0.64978 0.23134 0.0
C1965 C 0.27709 0.67032 0.24037 0.0
C1966 C 0.26153 0.66736 0.261 0.0
C1967 C 0.25988 0.64351 0.27216 0.0
H1968 H 0.50408 0.69283 0.57077 0.0
H1969 H 0.45975 0.67795 0.63494 0.0
H1970 H 0.46685 0.63165 0.62894 0.0
H1971 H 0.48121 0.64739 0.5336 0.0
H1972 H 0.50859 0.63793 0.51777 0.0
H1973 H 0.50669 0.66939 0.5318 0.0
H1974 H 0.54537 0.66135 0.55728 0.0
H1975 H 0.54691 0.62939 0.54357 0.0
H1976 H 0.54624 0.63433 0.57685 0.0
H1977 H 0.47001 0.58841 0.61104 0.0
H1978 H 0.46364 0.55306 0.57998 0.0
H1979 H 0.50582 0.59419 0.52658 0.0
C1980 C 0.49662 0.67968 0.5839 0.0
C1981 C 0.4815 0.68851 0.6033 0.0
C1982 C 0.47143 0.67121 0.62001 0.0
C1983 C 0.47569 0.64501 0.61692 0.0
C1984 C 0.49018 0.63654 0.59712 0.0
C1985 C 0.50057 0.6534 0.58086 0.0
C1986 C 0.5113 0.63927 0.55848 0.0
C1987 C 0.50131 0.64906 0.534 0.0
C1988 C 0.53911 0.6412 0.55909 0.0
C1989 C 0.50259 0.61224 0.56313 0.0
C1990 C 0.4918 0.61085 0.58628 0.0
C1991 C 0.47906 0.58899 0.59326 0.0
C1992 C 0.4756 0.56891 0.57557 0.0
C1993 C 0.48476 0.57094 0.55129 0.0
C1994 C 0.49958 0.59204 0.54544 0.0
H1995 H 0.57736 0.27902 0.80278 0.0
H1996 H 0.56097 0.21624 0.85071 0.0
H1997 H 0.59721 0.19424 0.83573 0.0
H1998 H 0.60194 0.24329 0.7514 0.0
H1999 H 0.62662 0.26537 0.74571 0.0
H2000 H 0.59894 0.27684 0.75945 0.0
H2001 H 0.62253 0.29695 0.79732 0.0
H2002 H 0.65028 0.28651 0.78309 0.0
H2003 H 0.64282 0.27744 0.8141 0.0
H2004 H 0.63325 0.17771 0.81452 0.0
H2005 H 0.67425 0.17299 0.79729 0.0
H2006 H 0.66943 0.24711 0.76472 0.0
C2007 C 0.58161 0.26078 0.81026 0.0
C2008 C 0.56618 0.2492 0.82761 0.0
C2009 C 0.57248 0.22552 0.83736 0.0
C2010 C 0.59285 0.21264 0.82872 0.0
C2011 C 0.60701 0.22392 0.81074 0.0
C2012 C 0.60233 0.24787 0.80232 0.0
C2013 C 0.62199 0.25657 0.78476 0.0
C2014 C 0.61174 0.26076 0.75879 0.0
C2015 C 0.63519 0.28079 0.79546 0.0
C2016 C 0.63821 0.2336 0.78453 0.0
C2017 C 0.62884 0.2148 0.79923 0.0
C2018 C 0.6409 0.19228 0.80301 0.0
C2019 C 0.66408 0.18969 0.793 0.0
C2020 C 0.67497 0.20973 0.7798 0.0
C2021 C 0.66137 0.23131 0.77436 0.0
H2022 H 0.01105 0.30526 0.0492 0.0
H2023 H 0.94708 0.33606 0.08498 0.0
H2024 H 0.95328 0.37643 0.06378 0.0
H2025 H 0.04754 0.3573 0.0523 0.0
H2026 H 0.06058 0.35441 0.02165 0.0
H2027 H 0.04899 0.32646 0.03621 0.0
H2028 H 0.02075 0.31616 -0.00141 0.0
H2029 H 0.03241 0.34412 0.98377 0.0
H2030 H 0.00031 0.34003 0.98863 0.0
H2031 H 0.96985 0.4152 0.04466 0.0
H2032 H -0.00488 0.44945 0.02719 0.0
H2033 H 0.0471 0.3933 0.0016 0.0
C2034 C -0.00187 0.32037 0.05197 0.0
C2035 C 0.97868 0.31781 0.06863 0.0
C2036 C 0.96199 0.33777 0.07204 0.0
C2037 C 0.96527 0.36068 0.06 0.0
C2038 C 0.98485 0.36295 0.04397 0.0
C2039 C 0.00069 0.34316 0.03941 0.0
C2040 C 0.02095 0.35119 0.02231 0.0
C2041 C 0.04598 0.34712 0.03383 0.0
C2042 C 0.01845 0.33703 -0.00318 0.0
C2043 C 0.01553 0.37926 0.02043 0.0
C2044 C -0.00584 0.38544 0.03232 0.0
C2045 C 0.98629 0.41053 0.0347 0.0
C2046 C 0.00079 0.42988 0.0248 0.0
C2047 C 0.02298 0.42401 0.01303 0.0
C2048 C 0.03016 0.39832 0.01046 0.0
H2049 H 0.90987 0.73274 0.32866 0.0
H2050 H 0.93439 0.8119 0.33446 0.0
H2051 H 0.89172 0.82569 0.33385 0.0
H2052 H 0.86541 0.74364 0.28441 0.0
H2053 H 0.84537 0.71883 0.29514 0.0
H2054 H 0.8774 0.7167 0.29967 0.0
H2055 H 0.86936 0.71232 0.34682 0.0
H2056 H 0.8373 0.71599 0.34241 0.0
H2057 H 0.85368 0.73715 0.36406 0.0
H2058 H 0.84815 0.83042 0.32523 0.0
H2059 H 0.80908 0.82567 0.30314 0.0
H2060 H 0.81154 0.74369 0.3081 0.0
C2061 C 0.90614 0.75298 0.33015 0.0
C2062 C 0.92504 0.77136 0.33167 0.0
C2063 C 0.91988 0.79765 0.33301 0.0
C2064 C 0.8958 0.80556 0.33316 0.0
C2065 C 0.87738 0.78684 0.332 0.0
C2066 C 0.88238 0.76109 0.3301 0.0
C2067 C 0.85995 0.74487 0.32489 0.0
C2068 C 0.86216 0.73018 0.29955 0.0
C2069 C 0.85476 0.72651 0.34582 0.0
C2070 C 0.84131 0.76549 0.32414 0.0
C2071 C 0.85169 0.78965 0.32836 0.0
C2072 C 0.83951 0.81174 0.3228 0.0
C2073 C 0.81723 0.80897 0.31052 0.0
C2074 C 0.80742 0.78436 0.30465 0.0
C2075 C 0.8184 0.76266 0.31356 0.0
H2076 H 0.5048 0.31058 0.90233 0.0
H2077 H 0.42659 0.31549 0.89742 0.0
H2078 H 0.4292 0.36037 0.91321 0.0
H2079 H 0.51102 0.3446 0.95886 0.0
H2080 H 0.5392 0.36036 0.95107 0.0
H2081 H 0.53122 0.32985 0.93648 0.0
H2082 H 0.53628 0.34932 0.89325 0.0
H2083 H 0.54388 0.38007 0.90783 0.0
H2084 H 0.51923 0.37697 0.88594 0.0
H2085 H 0.43998 0.40359 0.93148 0.0
H2086 H 0.45737 0.4397 0.9569 0.0
H2087 H 0.52833 0.40597 0.9511 0.0
C2088 C 0.48824 0.32117 0.90441 0.0
C2089 C 0.46552 0.30963 0.89873 0.0
C2090 C 0.4442 0.32394 0.90192 0.0
C2091 C 0.44551 0.34953 0.91051 0.0
C2092 C 0.46826 0.36041 0.91578 0.0
C2093 C 0.48921 0.3466 0.91314 0.0
C2094 C 0.51111 0.3619 0.92247 0.0
C2095 C 0.52386 0.34838 0.94347 0.0
C2096 C 0.52866 0.36739 0.9011 0.0
C2097 C 0.49902 0.386 0.93193 0.0
C2098 C 0.47443 0.38512 0.92711 0.0
C2099 C 0.45923 0.40462 0.93522 0.0
C2100 C 0.46929 0.42505 0.94959 0.0
C2101 C 0.49413 0.42537 0.9561 0.0
C2102 C 0.50927 0.40608 0.94642 0.0
H2103 H 0.90835 0.24738 0.14288 0.0
H2104 H 0.95179 0.25719 0.20972 0.0
H2105 H 0.91455 0.25742 0.23513 0.0
H2106 H 0.8559 0.28532 0.165 0.0
H2107 H 0.83434 0.26347 0.14995 0.0
H2108 H 0.86403 0.26805 0.13669 0.0
H2109 H 0.87144 0.21933 0.13732 0.0
H2110 H 0.84163 0.21467 0.1499 0.0
H2111 H 0.86757 0.20322 0.16602 0.0
H2112 H 0.87337 0.25363 0.25327 0.0
H2113 H 0.83239 0.23707 0.26325 0.0
H2114 H 0.81588 0.22778 0.1849 0.0
C2115 C 0.90999 0.24979 0.16284 0.0
C2116 C 0.93285 0.25232 0.17439 0.0
C2117 C 0.93438 0.25499 0.20057 0.0
C2118 C 0.91334 0.25562 0.21509 0.0
C2119 C 0.891 0.25346 0.2031 0.0
C2120 C 0.88921 0.2501 0.17759 0.0
C2121 C 0.86331 0.24478 0.1695 0.0
C2122 C 0.85384 0.26672 0.15439 0.0
C2123 C 0.86086 0.21897 0.15485 0.0
C2124 C 0.851 0.2441 0.19456 0.0
C2125 C 0.86712 0.25032 0.21365 0.0
C2126 C 0.86049 0.24908 0.23853 0.0
C2127 C 0.83724 0.23978 0.24404 0.0
C2128 C 0.82124 0.23164 0.22475 0.0
C2129 C 0.82778 0.23463 0.19981 0.0
H2130 H 0.99025 0.7019 0.44399 0.0
H2131 H 0.00614 0.66986 0.37041 0.0
H2132 H 0.0119 0.62771 0.38778 0.0
H2133 H 0.0368 0.66149 0.47546 0.0
H2134 H 0.01841 0.65895 0.50292 0.0
H2135 H 0.0173 0.68722 0.48505 0.0
H2136 H 0.97083 0.68084 0.48119 0.0
H2137 H 0.97189 0.65213 0.49835 0.0
H2138 H 0.95853 0.65119 0.46781 0.0
H2139 H 0.00902 0.58909 0.41069 0.0
H2140 H 0.00979 0.5553 0.44051 0.0
H2141 H 0.00075 0.61118 0.50143 0.0
C2142 C -0.00412 0.68613 0.43185 0.0
C2143 C -0.00193 0.68889 0.40595 0.0
C2144 C 0.00495 0.66802 0.39033 0.0
C2145 C 0.00794 0.64403 0.39998 0.0
C2146 C 0.00471 0.64158 0.42536 0.0
C2147 C -6e-05 0.66211 0.44138 0.0
C2148 C -0.00179 0.65381 0.46805 0.0
C2149 C 0.01891 0.66609 0.4838 0.0
C2150 C 0.97338 0.65986 0.4795 0.0
C2151 C 0.00145 0.62521 0.46414 0.0
C2152 C 0.00481 0.61883 0.43923 0.0
C2153 C 0.007 0.5938 0.43031 0.0
C2154 C 0.0071 0.5747 0.44742 0.0
C2155 C 0.00528 0.58068 0.47318 0.0
C2156 C 0.00203 0.60621 0.48178 0.0
H2157 H 0.57522 0.77827 0.65741 0.0
H2158 H 0.54974 0.7031 0.67782 0.0
H2159 H 0.58618 0.69886 0.70392 0.0
H2160 H 0.64024 0.76449 0.65694 0.0
H2161 H 0.64788 0.79612 0.66935 0.0
H2162 H 0.62144 0.791 0.65011 0.0
H2163 H 0.59535 0.8119 0.68522 0.0
H2164 H 0.62154 0.8163 0.70486 0.0
H2165 H 0.59538 0.79878 0.71561 0.0
H2166 H 0.62644 0.70397 0.72873 0.0
H2167 H 0.6655 0.71809 0.74847 0.0
H2168 H 0.65932 0.79152 0.71474 0.0
C2169 C 0.57751 0.76067 0.66691 0.0
C2170 C 0.55975 0.74103 0.66556 0.0
C2171 C 0.56325 0.71843 0.6786 0.0
C2172 C 0.58384 0.71584 0.6935 0.0
C2173 C 0.6006 0.73611 0.69522 0.0
C2174 C 0.5976 0.758 0.68211 0.0
C2175 C 0.61721 0.7777 0.68794 0.0
C2176 C 0.6326 0.7826 0.66471 0.0
C2177 C 0.60673 0.80263 0.69908 0.0
C2178 C 0.63136 0.76391 0.70692 0.0
C2179 C 0.6221 0.73969 0.7106 0.0
C2180 C 0.63367 0.72304 0.72614 0.0
C2181 C 0.65569 0.73126 0.73746 0.0
C2182 C 0.66534 0.75607 0.73357 0.0
C2183 C 0.65239 0.77263 0.71871 0.0
H2184 H 0.57002 0.52272 0.687 0.0
H2185 H 0.60207 0.44774 0.68891 0.0
H2186 H 0.5863 0.43694 0.64723 0.0
H2187 H 0.51538 0.50241 0.65237 0.0
H2188 H 0.51519 0.5304 0.63404 0.0
H2189 H 0.52771 0.53237 0.66496 0.0
H2190 H 0.56824 0.55013 0.6478 0.0
H2191 H 0.55574 0.54844 0.61693 0.0
H2192 H 0.58349 0.53244 0.62322 0.0
H2193 H 0.56965 0.43438 0.60549 0.0
H2194 H 0.5542 0.44118 0.56353 0.0
H2195 H 0.53181 0.51728 0.58715 0.0
C2196 C 0.57353 0.50398 0.67868 0.0
C2197 C 0.58715 0.48602 0.69132 0.0
C2198 C 0.59163 0.46182 0.6797 0.0
C2199 C 0.58265 0.4554 0.65604 0.0
C2200 C 0.56919 0.47336 0.64418 0.0
C2201 C 0.5647 0.49721 0.65487 0.0
C2202 C 0.55079 0.51328 0.63717 0.0
C2203 C 0.52578 0.52 0.64777 0.0
C2204 C 0.56545 0.5375 0.63091 0.0
C2205 C 0.54856 0.49473 0.61484 0.0
C2206 C 0.55919 0.47179 0.61955 0.0
C2207 C 0.56097 0.45209 0.60159 0.0
C2208 C 0.55217 0.45611 0.57788 0.0
C2209 C 0.54161 0.47955 0.57242 0.0
C2210 C 0.53928 0.49896 0.5912 0.0
H2211 H 0.74361 0.32704 0.94594 0.0
H2212 H 0.80007 0.38024 0.92452 0.0
H2213 H 0.7923 0.36851 0.88011 0.0
H2214 H 0.76079 0.2792 0.90647 0.0
H2215 H 0.73088 0.26641 0.89949 0.0
H2216 H 0.73641 0.28383 0.92836 0.0
H2217 H 0.70219 0.31489 0.91834 0.0
H2218 H 0.69664 0.29753 0.88922 0.0
H2219 H 0.70308 0.33144 0.88969 0.0
H2220 H 0.78244 0.34649 0.8389 0.0
H2221 H 0.77578 0.31247 0.80602 0.0
H2222 H 0.72779 0.27207 0.85522 0.0
C2223 C 0.7537 0.33672 0.93173 0.0
C2224 C 0.7721 0.35466 0.93818 0.0
C2225 C 0.78572 0.36655 0.91954 0.0
C2226 C 0.78125 0.36019 0.89439 0.0
C2227 C 0.76323 0.34185 0.88843 0.0
C2228 C 0.74978 0.33017 0.90667 0.0
C2229 C 0.73471 0.30795 0.89604 0.0
C2230 C 0.74111 0.28289 0.9083 0.0
C2231 C 0.70754 0.31329 0.89846 0.0
C2232 C 0.74279 0.30798 0.86925 0.0
C2233 C 0.75849 0.32824 0.86492 0.0
C2234 C 0.7699 0.33078 0.84197 0.0
C2235 C 0.76604 0.31146 0.82341 0.0
C2236 C 0.75145 0.28979 0.82837 0.0
C2237 C 0.73898 0.28861 0.85111 0.0
H2238 H 0.9141 0.52535 0.18272 0.0
H2239 H 0.94009 0.45172 0.20362 0.0
H2240 H 0.9652 0.44924 0.16544 0.0
H2241 H 0.9088 0.51126 0.11887 0.0
H2242 H 0.91851 0.54276 0.11029 0.0
H2243 H 0.90395 0.53851 0.1397 0.0
H2244 H 0.94084 0.56083 0.16202 0.0
H2245 H 0.95571 0.5647 0.13261 0.0
H2246 H 0.97071 0.54846 0.15687 0.0
H2247 H 0.98542 0.45426 0.12266 0.0
H2248 H -0.00345 0.46542 0.07968 0.0
H2249 H 0.95828 0.53647 0.08982 0.0
C2250 C 0.92504 0.50865 0.17936 0.0
C2251 C 0.92505 0.48866 0.19603 0.0
C2252 C 0.9398 0.46725 0.191 0.0
C2253 C 0.95421 0.46575 0.16946 0.0
C2254 C 0.95388 0.48601 0.15347 0.0
C2255 C 0.93965 0.50704 0.15833 0.0
C2256 C 0.94159 0.52596 0.13812 0.0
C2257 C 0.91674 0.52983 0.12603 0.0
C2258 C 0.95289 0.55149 0.148 0.0
C2259 C 0.95855 0.51203 0.12062 0.0
C2260 C 0.96576 0.48912 0.12969 0.0
C2261 C 0.98014 0.47234 0.11557 0.0
C2262 C 0.98652 0.47886 0.09129 0.0
C2263 C 0.97827 0.5018 0.08157 0.0
C2264 C 0.96489 0.51883 0.09682 0.0
H2265 H 0.77793 0.71224 0.43562 0.0
H2266 H 0.78128 0.63234 0.41193 0.0
H2267 H 0.77636 0.64348 0.36842 0.0
H2268 H 0.73231 0.72822 0.39993 0.0
H2269 H 0.74326 0.75926 0.39117 0.0
H2270 H 0.75379 0.74621 0.41931 0.0
H2271 H 0.79809 0.75182 0.40409 0.0
H2272 H 0.78749 0.76449 0.37554 0.0
H2273 H 0.80698 0.73737 0.37465 0.0
H2274 H 0.76229 0.66057 0.33042 0.0
H2275 H 0.73768 0.68293 0.30029 0.0
H2276 H 0.74295 0.75221 0.34672 0.0
C2277 C 0.7783 0.6974 0.42102 0.0
C2278 C 0.77993 0.67152 0.42674 0.0
C2279 C 0.78001 0.65229 0.40758 0.0
C2280 C 0.77757 0.65845 0.38285 0.0
C2281 C 0.77538 0.68402 0.37754 0.0
C2282 C 0.77588 0.70333 0.39598 0.0
C2283 C 0.76946 0.72867 0.38542 0.0
C2284 C 0.74844 0.74129 0.3998 0.0
C2285 C 0.79183 0.74665 0.38491 0.0
C2286 C 0.76221 0.7198 0.35927 0.0
C2287 C 0.76711 0.69425 0.35473 0.0
C2288 C 0.75925 0.68081 0.3332 0.0
C2289 C 0.74525 0.69354 0.31625 0.0
C2290 C 0.73909 0.71916 0.32128 0.0
C2291 C 0.74823 0.73272 0.34247 0.0
H2292 H 0.58733 0.53117 0.82742 0.0
H2293 H 0.60979 0.45514 0.84427 0.0
H2294 H 0.58901 0.4589 0.88491 0.0
H2295 H 0.59269 0.55729 0.89477 0.0
H2296 H 0.56738 0.57781 0.89062 0.0
H2297 H 0.5874 0.57051 0.86498 0.0
H2298 H 0.55056 0.55427 0.83855 0.0
H2299 H 0.53052 0.56107 0.86411 0.0
H2300 H 0.53107 0.52928 0.84996 0.0
H2301 H 0.55958 0.46778 0.91917 0.0
H2302 H 0.52738 0.4834 0.94747 0.0
H2303 H 0.5264 0.5546 0.90933 0.0
C2304 C 0.58841 0.51574 0.84011 0.0
C2305 C 0.59996 0.49295 0.83313 0.0
C2306 C 0.60112 0.47286 0.84975 0.0
C2307 C 0.58942 0.47482 0.87275 0.0
C2308 C 0.57746 0.49733 0.87893 0.0
C2309 C 0.57751 0.51774 0.86343 0.0
C2310 C 0.56232 0.53925 0.87387 0.0
C2311 C 0.5784 0.5626 0.88152 0.0
C2312 C 0.54244 0.54634 0.85553 0.0
C2313 C 0.5519 0.52676 0.89636 0.0
C2314 C 0.56121 0.50281 0.8993 0.0
C2315 C 0.55269 0.48682 0.91755 0.0
C2316 C 0.53441 0.49576 0.93347 0.0
C2317 C 0.52472 0.5202 0.93062 0.0
C2318 C 0.5337 0.53588 0.91198 0.0
H2319 H 0.7223 0.33678 0.06749 0.0
H2320 H 0.77324 0.2826 0.03608 0.0
H2321 H 0.76505 0.2541 0.07047 0.0
H2322 H 0.74228 0.33464 0.12451 0.0
H2323 H 0.71385 0.33795 0.14062 0.0
H2324 H 0.71734 0.35008 0.11021 0.0
H2325 H 0.68051 0.32267 0.09421 0.0
H2326 H 0.67646 0.31078 0.12487 0.0
H2327 H 0.67964 0.28871 0.09854 0.0
H2328 H 0.76088 0.23843 0.11378 0.0
H2329 H 0.75693 0.23491 0.15939 0.0
H2330 H 0.70752 0.29818 0.1614 0.0
C2331 C 0.73069 0.31828 0.06707 0.0
C2332 C 0.74842 0.31197 0.04917 0.0
C2333 C 0.75958 0.28787 0.04967 0.0
C2334 C 0.75502 0.2715 0.06915 0.0
C2335 C 0.73899 0.27932 0.08779 0.0
C2336 C 0.72648 0.30189 0.08652 0.0
C2337 C 0.71345 0.3082 0.11059 0.0
C2338 C 0.72227 0.33423 0.12214 0.0
C2339 C 0.68587 0.30753 0.10681 0.0
C2340 C 0.72142 0.28638 0.1259 0.0
C2341 C 0.73605 0.26976 0.11255 0.0
C2342 C 0.7487 0.25073 0.12419 0.0
C2343 C 0.7465 0.24893 0.15011 0.0
C2344 C 0.73169 0.26602 0.16395 0.0
C2345 C 0.71852 0.28434 0.15138 0.0
H2346 H 0.92606 0.48547 0.32061 0.0
H2347 H 0.87127 0.53973 0.34334 0.0
H2348 H 0.87914 0.5314 0.38722 0.0
H2349 H 0.91521 0.44077 0.37298 0.0
H2350 H 0.94708 0.43459 0.37529 0.0
H2351 H 0.93397 0.44102 0.34562 0.0
H2352 H 0.96503 0.47826 0.34011 0.0
H2353 H 0.97846 0.47152 0.36931 0.0
H2354 H 0.96784 0.50317 0.36415 0.0
H2355 H 0.89781 0.52383 0.42739 0.0
H2356 H 0.92811 0.51995 0.46047 0.0
H2357 H 0.96936 0.46879 0.41283 0.0
C2358 C 0.91548 0.49524 0.33486 0.0
C2359 C 0.89804 0.51311 0.32876 0.0
C2360 C 0.88457 0.52573 0.34775 0.0
C2361 C 0.88875 0.52096 0.37268 0.0
C2362 C 0.90613 0.5032 0.37817 0.0
C2363 C 0.91926 0.4905 0.35979 0.0
C2364 C 0.9389 0.47477 0.37061 0.0
C2365 C 0.93346 0.44608 0.36585 0.0
C2366 C 0.96402 0.48242 0.36046 0.0
C2367 C 0.93616 0.4824 0.39782 0.0
C2368 C 0.91656 0.49808 0.40189 0.0
C2369 C 0.91254 0.5107 0.42477 0.0
C2370 C 0.9296 0.50817 0.44359 0.0
C2371 C 0.95011 0.49306 0.43934 0.0
C2372 C 0.95305 0.47939 0.4166 0.0
H2373 H 0.7857 0.69458 0.55101 0.0
H2374 H 0.75137 0.62104 0.56376 0.0
H2375 H 0.73896 0.63666 0.60571 0.0
H2376 H 0.80785 0.7088 0.61214 0.0
H2377 H 0.80085 0.74226 0.61223 0.0
H2378 H 0.80728 0.72516 0.58338 0.0
H2379 H 0.7661 0.73876 0.56563 0.0
H2380 H 0.75956 0.75587 0.59447 0.0
H2381 H 0.73859 0.73166 0.58225 0.0
H2382 H 0.73281 0.65941 0.64722 0.0
H2383 H 0.72978 0.68932 0.68391 0.0
H2384 H 0.76462 0.74911 0.64273 0.0
C2385 C 0.77562 0.68182 0.56271 0.0
C2386 C 0.76964 0.65659 0.55439 0.0
C2387 C 0.75607 0.64048 0.56992 0.0
C2388 C 0.74901 0.64914 0.59373 0.0
C2389 C 0.75522 0.67413 0.60146 0.0
C2390 C 0.76783 0.6904 0.58628 0.0
C2391 C 0.77139 0.71667 0.59874 0.0
C2392 C 0.79845 0.72362 0.6018 0.0
C2393 C 0.75812 0.73693 0.58442 0.0
C2394 C 0.75949 0.7124 0.62355 0.0
C2395 C 0.75041 0.68768 0.62482 0.0
C2396 C 0.73968 0.67886 0.64636 0.0
C2397 C 0.73823 0.69581 0.66712 0.0
C2398 C 0.74713 0.72124 0.66597 0.0
C2399 C 0.75763 0.72971 0.64388 0.0
H2400 H 0.67552 0.60306 0.46315 0.0
H2401 H 0.68092 0.60936 0.5434 0.0
H2402 H 0.63687 0.60173 0.54677 0.0
H2403 H 0.6104 0.62854 0.4593 0.0
H2404 H 0.60341 0.60609 0.43394 0.0
H2405 H 0.63363 0.61958 0.43733 0.0
H2406 H 0.65104 0.57402 0.43734 0.0
H2407 H 0.62107 0.56056 0.43377 0.0
H2408 H 0.63962 0.55181 0.45946 0.0
H2409 H 0.594 0.58721 0.54196 0.0
H2410 H 0.55885 0.55956 0.53018 0.0
H2411 H 0.58207 0.55828 0.45339 0.0
C2412 C 0.66724 0.60377 0.48137 0.0
C2413 C 0.68157 0.60707 0.50298 0.0
C2414 C 0.67026 0.60707 0.52657 0.0
C2415 C 0.64517 0.60303 0.52866 0.0
C2416 C 0.63158 0.5991 0.50699 0.0
C2417 C 0.64225 0.59935 0.48376 0.0
C2418 C 0.62454 0.59016 0.46368 0.0
C2419 C 0.61758 0.61242 0.44761 0.0
C2420 C 0.63468 0.5678 0.44766 0.0
C2421 C 0.60329 0.58189 0.47946 0.0
C2422 C 0.60707 0.58888 0.50422 0.0
C2423 C 0.59068 0.582 0.5226 0.0
C2424 C 0.57069 0.56636 0.51571 0.0
C2425 C 0.56785 0.55694 0.49086 0.0
C2426 C 0.58377 0.56561 0.47241 0.0
H2427 H 0.17033 0.92024 0.45177 0.0
H2428 H 0.21476 0.94649 0.51446 0.0
H2429 H 0.18451 0.97847 0.52644 0.0
H2430 H 0.14381 0.98361 0.43849 0.0
H2431 H 0.11412 0.97 0.43195 0.0
H2432 H 0.14068 0.95148 0.42534 0.0
H2433 H 0.12423 0.91537 0.4526 0.0
H2434 H 0.09743 0.93348 0.45856 0.0
H2435 H 0.1152 0.92309 0.48414 0.0
H2436 H 0.1488 0.00369 0.53486 0.0
H2437 H 0.10676 0.01669 0.5425 0.0
H2438 H 0.08392 0.97554 0.47485 0.0
C2439 C 0.1737 0.93312 0.4677 0.0
C2440 C 0.19484 0.93118 0.48218 0.0
C2441 C 0.19861 0.94781 0.50322 0.0
C2442 C 0.18169 0.96621 0.50999 0.0
C2443 C 0.16098 0.96779 0.49554 0.0
C2444 C 0.15665 0.95154 0.47501 0.0
C2445 C 0.1314 0.95532 0.4648 0.0
C2446 C 0.13259 0.96573 0.43859 0.0
C2447 C 0.11618 0.93034 0.46507 0.0
C2448 C 0.12204 0.97533 0.48347 0.0
C2449 C 0.13974 0.9827 0.50059 0.0
C2450 C 0.1349 -0.00138 0.52128 0.0
C2451 C 0.11103 0.00608 0.52542 0.0
C2452 C 0.09238 -0.00236 0.50893 0.0
C2453 C 0.09812 0.98309 0.48711 0.0
H2454 H 0.33697 0.93561 0.7465 0.0
H2455 H 0.35903 0.93018 0.8232 0.0
H2456 H 0.34815 0.88397 0.82124 0.0
H2457 H 0.28494 0.89555 0.75153 0.0
H2458 H 0.28736 0.88195 0.72037 0.0
H2459 H 0.29922 0.91364 0.72762 0.0
H2460 H 0.34117 0.89996 0.71064 0.0
H2461 H 0.32951 0.86804 0.7038 0.0
H2462 H 0.35578 0.873 0.72338 0.0
H2463 H 0.33337 0.83838 0.81087 0.0
H2464 H 0.31053 0.79972 0.79529 0.0
H2465 H 0.29718 0.83625 0.72605 0.0
C2466 C 0.33969 0.9246 0.76279 0.0
C2467 C 0.34887 0.93626 0.78494 0.0
C2468 C 0.35182 0.92149 0.80609 0.0
C2469 C 0.34596 0.89523 0.80505 0.0
C2470 C 0.337 0.88422 0.7828 0.0
C2471 C 0.33353 0.8986 0.76221 0.0
C2472 C 0.32142 0.883 0.74134 0.0
C2473 C 0.29678 0.8942 0.73485 0.0
C2474 C 0.33797 0.88088 0.71844 0.0
C2475 C 0.31839 0.85761 0.7534 0.0
C2476 C 0.32787 0.85845 0.77715 0.0
C2477 C 0.32599 0.83749 0.79225 0.0
C2478 C 0.31313 0.81556 0.78321 0.0
C2479 C 0.30203 0.8151 0.75953 0.0
C2480 C 0.30551 0.83606 0.74422 0.0
H2481 H 0.32489 0.05284 0.97316 0.0
H2482 H 0.33387 0.12487 0.01509 0.0
H2483 H 0.37573 0.11458 0.02487 0.0
H2484 H 0.35397 0.01609 0.01494 0.0
H2485 H 0.36887 0.9953 0.99249 0.0
H2486 H 0.34131 0.01044 0.98431 0.0
H2487 H 0.36311 0.03025 0.94651 0.0
H2488 H 0.39046 0.01465 0.95502 0.0
H2489 H 0.3907 0.04874 0.95166 0.0
H2490 H 0.41377 0.09615 0.03401 0.0
H2491 H 0.44334 0.06643 0.04987 0.0
H2492 H 0.41119 0.00453 0.00436 0.0
C2493 C 0.33586 0.06633 0.98431 0.0
C2494 C 0.32659 0.08997 0.99286 0.0
C2495 C 0.34108 0.10715 0.00761 0.0
C2496 C 0.36491 0.10152 0.01314 0.0
C2497 C 0.37397 0.07851 0.00385 0.0
C2498 C 0.35988 0.06086 0.99018 0.0
C2499 C 0.37324 0.03611 0.98566 0.0
C2500 C 0.35847 0.01315 -0.00506 0.0
C2501 C 0.37975 0.03221 0.95806 0.0
C2502 C 0.3958 0.04186 0.00116 0.0
C2503 C 0.39634 0.067 0.01018 0.0
C2504 C 0.4139 0.07656 0.02679 0.0
C2505 C 0.43054 0.05962 0.03572 0.0
C2506 C 0.42933 0.03357 0.02808 0.0
C2507 C 0.41254 0.02464 0.00987 0.0
H2508 H 0.64924 0.5799 0.7963 0.0
H2509 H 0.66633 0.54311 0.72529 0.0
H2510 H 0.68089 0.58455 0.70988 0.0
H2511 H 0.63262 0.64524 0.76806 0.0
H2512 H 0.64483 0.6622 0.79518 0.0
H2513 H 0.6298 0.63154 0.79807 0.0
H2514 H 0.66781 0.61446 0.81957 0.0
H2515 H 0.68257 0.64496 0.81705 0.0
H2516 H 0.69676 0.61669 0.80417 0.0
H2517 H 0.70436 0.62516 0.70736 0.0
H2518 H 0.73298 0.66088 0.71794 0.0
H2519 H 0.69666 0.67414 0.78805 0.0
C2520 C 0.65527 0.58095 0.77724 0.0
C2521 C 0.6569 0.55862 0.76194 0.0
C2522 C 0.66491 0.56023 0.73715 0.0
C2523 C 0.67302 0.58369 0.72823 0.0
C2524 C 0.67204 0.60544 0.74405 0.0
C2525 C 0.66266 0.60438 0.76785 0.0
C2526 C 0.66623 0.62962 0.78218 0.0
C2527 C 0.64192 0.64293 0.78609 0.0
C2528 C 0.67914 0.6262 0.80717 0.0
C2529 C 0.68197 0.6438 0.76407 0.0
C2530 C 0.68437 0.62998 0.74174 0.0
C2531 C 0.70172 0.63682 0.72417 0.0
C2532 C 0.71782 0.65727 0.73015 0.0
C2533 C 0.71619 0.67061 0.75333 0.0
C2534 C 0.69732 0.66474 0.76977 0.0
H2535 H 0.84618 0.40799 0.03424 0.0
H2536 H 0.81501 0.41501 0.96126 0.0
H2537 H 0.85605 0.41965 0.94337 0.0
H2538 H 0.88706 0.45741 0.02829 0.0
H2539 H 0.91053 0.44382 0.04648 0.0
H2540 H 0.87948 0.43494 0.05166 0.0
H2541 H 0.89078 0.38738 0.04424 0.0
H2542 H 0.92175 0.39655 0.03788 0.0
H2543 H 0.90475 0.37709 0.01537 0.0
H2544 H 0.89806 0.43195 0.93499 0.0
H2545 H 0.93589 0.45782 0.93813 0.0
H2546 H 0.9415 0.44183 0.01583 0.0
C2547 C 0.84822 0.41002 0.01442 0.0
C2548 C 0.82781 0.41125 -0.00103 0.0
C2549 C 0.83068 0.41438 0.97327 0.0
C2550 C 0.85387 0.41652 0.96296 0.0
C2551 C 0.87386 0.41558 0.97869 0.0
C2552 C 0.87123 0.41276 0.00398 0.0
C2553 C 0.89497 0.41749 0.01753 0.0
C2554 C 0.89288 0.43973 0.0371 0.0
C2555 C 0.90355 0.39315 0.02944 0.0
C2556 C 0.91114 0.42461 -0.00392 0.0
C2557 C 0.89878 0.4226 0.97368 0.0
C2558 C 0.90827 0.43282 0.95214 0.0
C2559 C 0.92985 0.44731 0.95396 0.0
C2560 C 0.94166 0.45099 0.97704 0.0
C2561 C 0.93321 0.43804 -0.0022 0.0
H2562 H 0.30937 0.07301 0.79343 0.0
H2563 H 0.32332 0.04343 0.71848 0.0
H2564 H 0.30418 0.0809 0.70177 0.0
H2565 H 0.25023 0.10889 0.77682 0.0
H2566 H 0.25845 0.13436 0.79896 0.0
H2567 H 0.26582 0.10183 0.805 0.0
H2568 H 0.31064 0.11602 0.81094 0.0
H2569 H 0.30368 0.14827 0.80417 0.0
H2570 H 0.32632 0.13153 0.78614 0.0
H2571 H 0.29676 0.12553 0.6937 0.0
H2572 H 0.2938 0.1725 0.69441 0.0
H2573 H 0.28192 0.17384 0.77391 0.0
C2574 C 0.30721 0.07375 0.77352 0.0
C2575 C 0.31806 0.05544 0.75727 0.0
C2576 C 0.31529 0.0573 0.73131 0.0
C2577 C 0.30435 0.07852 0.72161 0.0
C2578 C 0.29578 0.0974 0.73811 0.0
C2579 C 0.29623 0.09488 0.76355 0.0
C2580 C 0.2889 0.11949 0.77718 0.0
C2581 C 0.26439 0.11592 0.79026 0.0
C2582 C 0.30857 0.12939 0.79567 0.0
C2583 C 0.28668 0.13682 0.75555 0.0
C2584 C 0.29031 0.12353 0.73316 0.0
C2585 C 0.29287 0.13598 0.71094 0.0
C2586 C 0.29151 0.16262 0.71154 0.0
C2587 C 0.2874 0.17646 0.73415 0.0
C2588 C 0.28451 0.16342 0.75635 0.0
H2589 H 0.22574 0.95503 0.25152 0.0
H2590 H 0.16138 0.92235 0.28503 0.0
H2591 H 0.1796 0.87997 0.28349 0.0
H2592 H 0.2357 0.90588 0.20841 0.0
H2593 H 0.26826 0.9058 0.2108 0.0
H2594 H 0.25224 0.93456 0.21843 0.0
H2595 H 0.27244 0.93703 0.26188 0.0
H2596 H 0.28829 0.90795 0.25439 0.0
H2597 H 0.26946 0.91026 0.28167 0.0
H2598 H 0.20231 0.84124 0.2761 0.0
H2599 H 0.22584 0.80649 0.25643 0.0
H2600 H 0.27494 0.8624 0.2253 0.0
C2601 C 0.21581 0.93889 0.25869 0.0
C2602 C 0.1923 0.94166 0.26846 0.0
C2603 C 0.17952 0.92033 0.27758 0.0
C2604 C 0.18978 0.89631 0.27708 0.0
C2605 C 0.21297 0.89393 0.26752 0.0
C2606 C 0.22587 0.91445 0.25825 0.0
C2607 C 0.24939 0.90563 0.24658 0.0
C2608 C 0.25149 0.91341 0.21944 0.0
C2609 C 0.27118 0.91583 0.26205 0.0
C2610 C 0.2463 0.87692 0.2486 0.0
C2611 C 0.22583 0.87082 0.26198 0.0
C2612 C 0.21851 0.84564 0.26568 0.0
C2613 C 0.23192 0.82603 0.25443 0.0
C2614 C 0.25185 0.83183 0.23911 0.0
C2615 C 0.25963 0.85753 0.23687 0.0
H2616 H 0.49749 0.32978 0.38348 0.0
H2617 H 0.45041 0.30013 0.44037 0.0
H2618 H 0.45263 0.34226 0.46328 0.0
H2619 H 0.53691 0.364 0.4212 0.0
H2620 H 0.54089 0.39032 0.40097 0.0
H2621 H 0.53251 0.35919 0.38818 0.0
H2622 H 0.49486 0.37831 0.36764 0.0
H2623 H 0.50299 0.40957 0.38078 0.0
H2624 H 0.47346 0.39579 0.38663 0.0
H2625 H 0.46406 0.38696 0.4819 0.0
H2626 H 0.48586 0.42714 0.49538 0.0
H2627 H 0.52489 0.42617 0.42573 0.0
C2628 C 0.48741 0.33217 0.40063 0.0
C2629 C 0.47391 0.31169 0.41023 0.0
C2630 C 0.46082 0.31565 0.43264 0.0
C2631 C 0.46189 0.33954 0.44569 0.0
C2632 C 0.47565 0.35933 0.43573 0.0
C2633 C 0.48802 0.3558 0.41358 0.0
C2634 C 0.50295 0.37918 0.40744 0.0
C2635 C 0.5299 0.37278 0.40429 0.0
C2636 C 0.49297 0.39143 0.38425 0.0
C2637 C 0.49857 0.39587 0.43044 0.0
C2638 C 0.48215 0.38462 0.44627 0.0
C2639 C 0.4766 0.39606 0.46943 0.0
C2640 C 0.4889 0.41895 0.47688 0.0
C2641 C 0.50679 0.42966 0.4614 0.0
C2642 C 0.51102 0.41842 0.43768 0.0
H2643 H 0.43106 0.73095 0.16275 0.0
H2644 H 0.46159 0.77654 0.22432 0.0
H2645 H 0.42671 0.76435 0.25058 0.0
H2646 H 0.37517 0.74847 0.16768 0.0
H2647 H 0.36052 0.71803 0.16004 0.0
H2648 H 0.39062 0.72426 0.14933 0.0
H2649 H 0.40518 0.68381 0.17051 0.0
H2650 H 0.37489 0.67764 0.18164 0.0
H2651 H 0.39984 0.68028 0.20318 0.0
H2652 H 0.3849 0.75654 0.26579 0.0
H2653 H 0.34019 0.75667 0.26711 0.0
H2654 H 0.33718 0.71495 0.19628 0.0
C2655 C 0.43055 0.73787 0.18195 0.0
C2656 C 0.4485 0.75492 0.19157 0.0
C2657 C 0.44776 0.76345 0.21675 0.0
C2658 C 0.4282 0.75639 0.23181 0.0
C2659 C 0.41013 0.74014 0.2215 0.0
C2660 C 0.41143 0.73065 0.19718 0.0
C2661 C 0.3883 0.71682 0.18915 0.0
C2662 C 0.37806 0.72758 0.16519 0.0
C2663 C 0.3923 0.68792 0.18594 0.0
C2664 C 0.37266 0.72284 0.21156 0.0
C2665 C 0.38585 0.73513 0.2306 0.0
C2666 C 0.37453 0.74613 0.25149 0.0
C2667 C 0.34914 0.74603 0.2522 0.0
C2668 C 0.33563 0.73541 0.23193 0.0
C2669 C 0.34742 0.72242 0.21222 0.0
H2670 H 0.9819 0.65757 0.88921 0.0
H2671 H 0.02383 0.7073 0.93977 0.0
H2672 H 0.03326 0.67007 0.96494 0.0
H2673 H 0.95369 0.62185 0.93007 0.0
H2674 H 0.95501 0.59167 0.91278 0.0
H2675 H 0.95629 0.62089 0.89668 0.0
H2676 H -0.00314 0.60716 0.87626 0.0
H2677 H -0.00427 0.57789 0.89274 0.0
H2678 H 0.02189 0.59896 0.8956 0.0
H2679 H 0.03052 0.62946 0.98865 0.0
H2680 H 0.015 0.59061 0.00864 0.0
H2681 H 0.97704 0.567 0.94119 0.0
C2682 C -0.00642 0.66041 0.90527 0.0
C2683 C 0.00204 0.6851 0.91281 0.0
C2684 C 0.01726 0.68839 0.9338 0.0
C2685 C 0.02281 0.66734 0.94802 0.0
C2686 C 0.01366 0.64316 0.9404 0.0
C2687 C -0.00026 0.63959 0.91915 0.0
C2688 C 0.98994 0.61243 0.91614 0.0
C2689 C 0.9621 0.6117 0.91382 0.0
C2690 C 0.00181 0.59828 0.89387 0.0
C2691 C -0.0017 0.60194 0.9403 0.0
C2692 C 0.01275 0.61955 0.95369 0.0
C2693 C 0.01991 0.61527 0.978 0.0
C2694 C 0.01114 0.59315 0.98921 0.0
C2695 C -0.00455 0.57579 0.97607 0.0
C2696 C 0.98976 0.57972 0.95114 0.0
H2697 H 0.09079 0.26991 0.65615 0.0
H2698 H 0.06499 0.19325 0.67061 0.0
H2699 H 0.10684 0.17835 0.67012 0.0
H2700 H 0.14978 0.24986 0.62012 0.0
H2701 H 0.16596 0.27657 0.63495 0.0
H2702 H 0.13447 0.27939 0.62697 0.0
H2703 H 0.12471 0.29297 0.67277 0.0
H2704 H 0.15607 0.2907 0.68017 0.0
H2705 H 0.13385 0.27272 0.69718 0.0
H2706 H 0.14867 0.1744 0.68075 0.0
H2707 H 0.18504 0.18342 0.70618 0.0
H2708 H 0.18676 0.26145 0.68356 0.0
C2709 C 0.09405 0.24982 0.65827 0.0
C2710 C 0.07484 0.23272 0.66348 0.0
C2711 C 0.07956 0.2067 0.66677 0.0
C2712 C 0.10328 0.19797 0.66606 0.0
C2713 C 0.12209 0.21545 0.66192 0.0
C2714 C 0.11775 0.24092 0.65795 0.0
C2715 C 0.14093 0.25688 0.65949 0.0
C2716 C 0.1482 0.26621 0.63384 0.0
C2717 C 0.13874 0.27959 0.67856 0.0
C2718 C 0.15833 0.23706 0.66797 0.0
C2719 C 0.14741 0.21295 0.66791 0.0
C2720 C 0.15783 0.19282 0.67996 0.0
C2721 C 0.17859 0.19799 0.69429 0.0
C2722 C 0.18868 0.22292 0.69606 0.0
C2723 C 0.1797 0.24203 0.68129 0.0
H2724 H 0.48645 0.69709 0.07574 0.0
H2725 H 0.50458 0.67092 0.14841 0.0
H2726 H 0.52069 0.63098 0.1288 0.0
H2727 H 0.46421 0.64247 0.05055 0.0
H2728 H 0.47643 0.64598 0.01983 0.0
H2729 H 0.47112 0.67379 0.03941 0.0
H2730 H 0.51607 0.68827 0.03462 0.0
H2731 H 0.52152 0.66028 0.01495 0.0
H2732 H 0.53982 0.66689 0.04224 0.0
H2733 H 0.52655 0.59102 0.10163 0.0
H2734 H 0.52185 0.55562 0.06993 0.0
H2735 H 0.50265 0.61015 0.01533 0.0
C2736 C 0.49404 0.683 0.08747 0.0
C2737 C 0.49373 0.68642 0.11344 0.0
C2738 C 0.50436 0.66816 0.12838 0.0
C2739 C 0.51376 0.64569 0.1174 0.0
C2740 C 0.51314 0.6425 0.09156 0.0
C2741 C 0.50397 0.66101 0.07682 0.0
C2742 C 0.50308 0.65236 0.04984 0.0
C2743 C 0.47719 0.65371 0.03933 0.0
C2744 C 0.52121 0.66787 0.03452 0.0
C2745 C 0.51103 0.6252 0.05188 0.0
C2746 C 0.51745 0.61992 0.0759 0.0
C2747 C 0.52223 0.59509 0.08264 0.0
C2748 C 0.51947 0.5751 0.06458 0.0
C2749 C 0.5117 0.58026 0.04033 0.0
C2750 C 0.50859 0.60569 0.03376 0.0
H2751 H 0.0978 0.71753 0.83761 0.0
H2752 H 0.07813 0.79428 0.86227 0.0
H2753 H 0.11838 0.8104 0.84986 0.0
H2754 H 0.16492 0.72389 0.8532 0.0
H2755 H 0.17285 0.70542 0.82553 0.0
H2756 H 0.14476 0.69874 0.84129 0.0
H2757 H 0.12156 0.70438 0.80042 0.0
H2758 H 0.14912 0.71203 0.78435 0.0
H2759 H 0.12459 0.73409 0.78485 0.0
H2760 H 0.15608 0.81959 0.827 0.0
H2761 H 0.18981 0.82073 0.79696 0.0
H2762 H 0.18662 0.73808 0.78863 0.0
C2763 C 0.10228 0.73757 0.84127 0.0
C2764 C 0.08484 0.75464 0.85097 0.0
C2765 C 0.09121 0.78082 0.85494 0.0
C2766 C 0.11409 0.79015 0.84806 0.0
C2767 C 0.13053 0.773 0.83761 0.0
C2768 C 0.12509 0.74716 0.83456 0.0
C2769 C 0.14469 0.73337 0.81994 0.0
C2770 C 0.15757 0.71422 0.83596 0.0
C2771 C 0.13436 0.7202 0.79599 0.0
C2772 C 0.16134 0.75567 0.81422 0.0
C2773 C 0.15297 0.77833 0.82482 0.0
C2774 C 0.16329 0.80193 0.81928 0.0
C2775 C 0.18231 0.80242 0.80212 0.0
C2776 C 0.19089 0.77946 0.79091 0.0
C2777 C 0.18079 0.7558 0.7976 0.0
H2778 H 0.01453 0.32439 0.61006 0.0
H2779 H 0.98793 0.28248 0.54442 0.0
H2780 H -0.00496 0.32115 0.51978 0.0
H2781 H 0.97895 0.37367 0.59889 0.0
H2782 H -0.00147 0.39792 0.61334 0.0
H2783 H -0.00057 0.3657 0.62324 0.0
H2784 H 0.04553 0.36424 0.614 0.0
H2785 H 0.04493 0.39676 0.60441 0.0
H2786 H 0.05661 0.37204 0.5837 0.0
H2787 H -0.00023 0.36673 0.50453 0.0
H2788 H -0.00424 0.41354 0.50136 0.0
H2789 H 0.013 0.42449 0.57956 0.0
C2790 C 0.01149 0.32293 0.59018 0.0
C2791 C 0.00171 0.30044 0.57876 0.0
C2792 C -0.00383 0.29952 0.55316 0.0
C2793 C 0.00019 0.32134 0.53915 0.0
C2794 C 0.0089 0.34379 0.55143 0.0
C2795 C 0.01407 0.34461 0.57656 0.0
C2796 C 0.01704 0.37154 0.58721 0.0
C2797 C -0.00267 0.37754 0.6068 0.0
C2798 C 0.04256 0.37643 0.59794 0.0
C2799 C 0.01318 0.38606 0.56417 0.0
C2800 C 0.009 0.36993 0.54352 0.0
C2801 C 0.00319 0.37944 0.52055 0.0
C2802 C 0.00089 0.40598 0.51895 0.0
C2803 C 0.00374 0.4224 0.54037 0.0
C2804 C 0.01058 0.4123 0.56297 0.0
H2805 H 0.42253 0.27705 0.33658 0.0
H2806 H 0.46571 0.23261 0.28423 0.0
H2807 H 0.43093 0.22837 0.25542 0.0
H2808 H 0.36932 0.24329 0.32995 0.0
H2809 H 0.34936 0.27009 0.33132 0.0
H2810 H 0.37857 0.27287 0.3459 0.0
H2811 H 0.38876 0.31248 0.32026 0.0
H2812 H 0.35956 0.30955 0.30534 0.0
H2813 H 0.38676 0.30995 0.28687 0.0
H2814 H 0.39027 0.22156 0.23683 0.0
H2815 H 0.34647 0.21428 0.22894 0.0
H2816 H 0.32977 0.26688 0.29032 0.0
C2817 C 0.42461 0.26694 0.31879 0.0
C2818 C 0.44651 0.25503 0.31242 0.0
C2819 C 0.4489 0.24181 0.2892 0.0
C2820 C 0.42935 0.23948 0.27272 0.0
C2821 C 0.40775 0.25109 0.27951 0.0
C2822 C 0.40534 0.26497 0.30179 0.0
C2823 C 0.37962 0.27397 0.30526 0.0
C2824 C 0.36858 0.26447 0.32953 0.0
C2825 C 0.37863 0.30323 0.30437 0.0
C2826 C 0.3676 0.26116 0.28255 0.0
C2827 C 0.38427 0.24845 0.26768 0.0
C2828 C 0.37711 0.23217 0.24773 0.0
C2829 C 0.35227 0.22813 0.24333 0.0
C2830 C 0.33504 0.24068 0.25855 0.0
C2831 C 0.34278 0.25801 0.27782 0.0
H2832 H 0.42844 0.54099 0.31286 0.0
H2833 H 0.44805 0.46249 0.29597 0.0
H2834 H 0.46905 0.46152 0.33661 0.0
H2835 H 0.4854 0.55944 0.34825 0.0
H2836 H 0.4689 0.58015 0.36942 0.0
H2837 H 0.45917 0.57564 0.33758 0.0
H2838 H 0.41647 0.56165 0.35256 0.0
H2839 H 0.42604 0.56589 0.38432 0.0
H2840 H 0.4135 0.53548 0.37312 0.0
H2841 H 0.48321 0.46783 0.38087 0.0
H2842 H 0.4887 0.48007 0.42516 0.0
H2843 H 0.45906 0.55453 0.41277 0.0
C2844 C 0.43755 0.52374 0.31754 0.0
C2845 C 0.43665 0.50177 0.30153 0.0
C2846 C 0.44876 0.47954 0.30807 0.0
C2847 C 0.46074 0.47888 0.33101 0.0
C2848 C 0.46081 0.50082 0.34669 0.0
C2849 C 0.44977 0.52293 0.34005 0.0
C2850 C 0.45071 0.54328 0.36078 0.0
C2851 C 0.46701 0.56597 0.35358 0.0
C2852 C 0.42516 0.55206 0.36813 0.0
C2853 C 0.4623 0.52855 0.38092 0.0
C2854 C 0.46873 0.50439 0.37221 0.0
C2855 C 0.47865 0.48684 0.38775 0.0
C2856 C 0.4817 0.49401 0.41289 0.0
C2857 C 0.47434 0.51833 0.42233 0.0
C2858 C 0.46494 0.53591 0.40601 0.0
H2859 H 0.2576 0.69279 0.04953 0.0
H2860 H 0.26183 0.61462 0.07187 0.0
H2861 H 0.24415 0.6272 0.1129 0.0
H2862 H 0.2757 0.72201 0.10352 0.0
H2863 H 0.25582 0.74871 0.10185 0.0
H2864 H 0.26507 0.73195 0.07391 0.0
H2865 H 0.21989 0.72386 0.06205 0.0
H2866 H 0.21052 0.7402 0.09045 0.0
H2867 H 0.19989 0.70795 0.08319 0.0
H2868 H 0.23507 0.65074 0.15364 0.0
H2869 H 0.23575 0.68229 0.18908 0.0
H2870 H 0.23127 0.74357 0.13782 0.0
C2871 C 0.25448 0.67832 0.06302 0.0
C2872 C 0.26135 0.65301 0.05811 0.0
C2873 C 0.25678 0.63426 0.07573 0.0
C2874 C 0.24655 0.64118 0.09884 0.0
C2875 C 0.24024 0.66663 0.10336 0.0
C2876 C 0.2437 0.68474 0.08566 0.0
C2877 C 0.23774 0.71117 0.09546 0.0
C2878 C 0.25989 0.7295 0.09359 0.0
C2879 C 0.21568 0.72138 0.08199 0.0
C2880 C 0.23184 0.70553 0.12202 0.0
C2881 C 0.23311 0.67972 0.12634 0.0
C2882 C 0.23314 0.67084 0.15042 0.0
C2883 C 0.23344 0.68888 0.17047 0.0
C2884 C 0.23372 0.71533 0.16608 0.0
C2885 C 0.23094 0.72344 0.1417 0.0
H2886 H 0.09348 0.53317 0.81988 0.0
H2887 H 0.02816 0.49933 0.78755 0.0
H2888 H 0.00614 0.50916 0.82653 0.0
H2889 H 0.09276 0.50278 0.86791 0.0
H2890 H 0.10356 0.52637 0.89086 0.0
H2891 H 0.11103 0.52984 0.85893 0.0
H2892 H 0.09221 0.57459 0.85942 0.0
H2893 H 0.08523 0.57179 0.89191 0.0
H2894 H 0.06164 0.57881 0.87032 0.0
H2895 H -0.00442 0.50837 0.87077 0.0
H2896 H -0.00265 0.49751 0.9149 0.0
H2897 H 0.07119 0.52671 0.91948 0.0
C2898 C 0.07436 0.52865 0.82089 0.0
C2899 C 0.06257 0.51496 0.8013 0.0
C2900 C 0.03742 0.50988 0.80258 0.0
C2901 C 0.0248 0.51552 0.82464 0.0
C2902 C 0.03766 0.52644 0.84488 0.0
C2903 C 0.0619 0.53358 0.84297 0.0
C2904 C 0.07329 0.53896 0.86822 0.0
C2905 C 0.09647 0.52353 0.87165 0.0
C2906 C 0.07838 0.56775 0.87273 0.0
C2907 C 0.05288 0.53001 0.88452 0.0
C2908 C 0.03197 0.52454 0.87096 0.0
C2909 C 0.0116 0.51326 0.88165 0.0
C2910 C 0.01284 0.50686 0.90657 0.0
C2911 C 0.03459 0.51094 0.92007 0.0
C2912 C 0.05451 0.52328 0.90919 0.0
H2913 H 0.22487 0.35744 0.5946 0.0
H2914 H 0.21126 0.2859 0.55395 0.0
H2915 H 0.20627 0.26407 0.59331 0.0
H2916 H 0.26625 0.33602 0.62563 0.0
H2917 H 0.26266 0.35335 0.65498 0.0
H2918 H 0.25117 0.36626 0.62737 0.0
H2919 H 0.20808 0.36849 0.64628 0.0
H2920 H 0.21984 0.35632 0.67453 0.0
H2921 H 0.19436 0.34044 0.65918 0.0
H2922 H 0.2179 0.24774 0.63283 0.0
H2923 H 0.24603 0.23847 0.6667 0.0
H2924 H 0.25866 0.31932 0.68164 0.0
C2925 C 0.21894 0.33757 0.59431 0.0
C2926 C 0.21764 0.32337 0.57161 0.0
C2927 C 0.21147 0.29712 0.5713 0.0
C2928 C 0.20874 0.28463 0.59366 0.0
C2929 C 0.21305 0.29857 0.61599 0.0
C2930 C 0.21786 0.32471 0.61647 0.0
C2931 C 0.22933 0.33397 0.64089 0.0
C2932 C 0.25378 0.34817 0.63694 0.0
C2933 C 0.21184 0.35079 0.65612 0.0
C2934 C 0.2327 0.30873 0.65285 0.0
C2935 C 0.22189 0.28873 0.63894 0.0
C2936 C 0.22577 0.26328 0.64422 0.0
C2937 C 0.24181 0.25814 0.66337 0.0
C2938 C 0.25401 0.27834 0.67656 0.0
C2939 C 0.24882 0.3038 0.67197 0.0
H2940 H 0.40946 0.52676 0.1478 0.0
H2941 H 0.3872 0.45096 0.16947 0.0
H2942 H 0.40479 0.43246 0.13082 0.0
H2943 H 0.40555 0.51485 0.07667 0.0
H2944 H 0.43202 0.53555 0.07482 0.0
H2945 H 0.41036 0.54086 0.09928 0.0
H2946 H 0.44784 0.53942 0.12917 0.0
H2947 H 0.46773 0.53124 0.10386 0.0
H2948 H 0.46493 0.51049 0.12959 0.0
H2949 H 0.43131 0.42174 0.09504 0.0
H2950 H 0.46476 0.41926 0.06496 0.0
H2951 H 0.47103 0.50204 0.06681 0.0
C2952 C 0.40735 0.50638 0.14392 0.0
C2953 C 0.39681 0.49032 0.1615 0.0
C2954 C 0.39505 0.46364 0.15613 0.0
C2955 C 0.40491 0.45298 0.13418 0.0
C2956 C 0.41631 0.46929 0.11779 0.0
C2957 C 0.4174 0.49546 0.12232 0.0
C2958 C 0.43393 0.5084 0.10405 0.0
C2959 C 0.41953 0.52591 0.0877 0.0
C2960 C 0.45483 0.52323 0.11749 0.0
C2961 C 0.44295 0.48536 0.08922 0.0
C2962 C 0.43214 0.46303 0.09714 0.0
C2963 C 0.43943 0.4391 0.08826 0.0
C2964 C 0.45857 0.43791 0.07129 0.0
C2965 C 0.47041 0.4605 0.06354 0.0
C2966 C 0.46199 0.48452 0.07205 0.0
H2967 H 0.27266 0.72294 0.94085 0.0
H2968 H 0.2253 0.65607 0.94494 0.0
H2969 H 0.21245 0.66103 0.90221 0.0
H2970 H 0.22686 0.75486 0.89145 0.0
H2971 H 0.25275 0.77011 0.87753 0.0
H2972 H 0.25143 0.76717 0.91074 0.0
H2973 H 0.29276 0.74502 0.909 0.0
H2974 H 0.29395 0.74695 0.87593 0.0
H2975 H 0.29616 0.71629 0.8897 0.0
H2976 H 0.21882 0.66141 0.85789 0.0
H2977 H 0.23401 0.6658 0.81522 0.0
H2978 H 0.27159 0.73637 0.838 0.0
C2979 C 0.2585 0.71041 0.9331 0.0
C2980 C 0.25032 0.68899 0.94597 0.0
C2981 C 0.23189 0.67268 0.93546 0.0
C2982 C 0.22433 0.67535 0.9111 0.0
C2983 C 0.23434 0.69525 0.898 0.0
C2984 C 0.24979 0.71361 0.90901 0.0
C2985 C 0.25949 0.7316 0.88986 0.0
C2986 C 0.24689 0.75746 0.89256 0.0
C2987 C 0.28723 0.7351 0.89121 0.0
C2988 C 0.25131 0.71722 0.86627 0.0
C2989 C 0.23605 0.69683 0.87144 0.0
C2990 C 0.22965 0.67804 0.85338 0.0
C2991 C 0.23875 0.68035 0.82937 0.0
C2992 C 0.25383 0.70139 0.82367 0.0
C2993 C 0.25977 0.72033 0.84212 0.0
H2994 H 0.09925 0.46683 0.65065 0.0
H2995 H 0.07789 0.53128 0.69785 0.0
H2996 H 0.07386 0.5575 0.66128 0.0
H2997 H 0.12891 0.50763 0.59968 0.0
H2998 H 0.11745 0.48652 0.57508 0.0
H2999 H 0.12638 0.47377 0.6042 0.0
H3000 H 0.08457 0.45244 0.61079 0.0
H3001 H 0.07546 0.46274 0.58112 0.0
H3002 H 0.0577 0.47111 0.6082 0.0
H3003 H 0.06183 0.57241 0.62185 0.0
H3004 H 0.03643 0.5717 0.58451 0.0
H3005 H 0.06607 0.49926 0.5601 0.0
C3006 C 0.09452 0.48673 0.65304 0.0
C3007 C 0.08888 0.49732 0.67664 0.0
C3008 C 0.08222 0.5231 0.67962 0.0
C3009 C 0.08031 0.53819 0.65903 0.0
C3010 C 0.0853 0.5272 0.63563 0.0
C3011 C 0.09225 0.50199 0.63249 0.0
C3012 C 0.09176 0.49334 0.60537 0.0
C3013 C 0.11766 0.4901 0.59551 0.0
C3014 C 0.07644 0.4685 0.60114 0.0
C3015 C 0.08017 0.51625 0.5943 0.0
C3016 C 0.07812 0.53623 0.61184 0.0
C3017 C 0.06402 0.55739 0.60767 0.0
C3018 C 0.04972 0.55697 0.58631 0.0
C3019 C 0.04964 0.5355 0.56959 0.0
C3020 C 0.06662 0.51617 0.57237 0.0
H3021 H 0.26118 0.35027 0.43075 0.0
H3022 H 0.24618 0.285 0.47563 0.0
H3023 H 0.23729 0.25836 0.4378 0.0
H3024 H 0.21654 0.33359 0.38014 0.0
H3025 H 0.23672 0.34363 0.35595 0.0
H3026 H 0.23845 0.35904 0.38647 0.0
H3027 H 0.28396 0.34861 0.38892 0.0
H3028 H 0.28234 0.3333 0.35842 0.0
H3029 H 0.2932 0.31596 0.38421 0.0
H3030 H 0.23323 0.23803 0.39662 0.0
H3031 H 0.23768 0.22313 0.35313 0.0
H3032 H 0.25705 0.30022 0.33269 0.0
C3033 C 0.2556 0.33047 0.43243 0.0
C3034 C 0.25412 0.31955 0.45598 0.0
C3035 C 0.24736 0.29354 0.4577 0.0
C3036 C 0.2421 0.27838 0.43636 0.0
C3037 C 0.24396 0.28946 0.41338 0.0
C3038 C 0.25077 0.3148 0.41109 0.0
C3039 C 0.25387 0.32087 0.38387 0.0
C3040 C 0.23528 0.34045 0.37616 0.0
C3041 C 0.27989 0.33023 0.37855 0.0
C3042 C 0.24855 0.29474 0.37142 0.0
C3043 C 0.24233 0.27721 0.38895 0.0
C3044 C 0.23788 0.25155 0.38266 0.0
C3045 C 0.24055 0.24328 0.3579 0.0
C3046 C 0.24771 0.26051 0.33959 0.0
C3047 C 0.25117 0.28676 0.34628 0.0
H3048 H 0.31866 0.41142 0.48043 0.0
H3049 H 0.31673 0.3912 0.55754 0.0
H3050 H 0.35979 0.40424 0.56226 0.0
H3051 H 0.38316 0.39015 0.46994 0.0
H3052 H 0.38918 0.41545 0.44901 0.0
H3053 H 0.35915 0.4014 0.4509 0.0
H3054 H 0.34148 0.44621 0.46072 0.0
H3055 H 0.37128 0.4603 0.45855 0.0
H3056 H 0.35367 0.46562 0.48639 0.0
H3057 H 0.40117 0.42506 0.56001 0.0
H3058 H 0.43677 0.45284 0.55087 0.0
H3059 H 0.41233 0.45738 0.47499 0.0
C3060 C 0.32752 0.40933 0.49812 0.0
C3061 C 0.31456 0.40031 0.51859 0.0
C3062 C 0.32655 0.39783 0.54155 0.0
C3063 C 0.351 0.4051 0.54439 0.0
C3064 C 0.36336 0.41406 0.52387 0.0
C3065 C 0.3521 0.41584 0.50108 0.0
C3066 C 0.36903 0.42739 0.48235 0.0
C3067 C 0.37551 0.40741 0.46183 0.0
C3068 C 0.35822 0.4513 0.47139 0.0
C3069 C 0.39072 0.43394 0.49871 0.0
C3070 C 0.38748 0.42539 0.52242 0.0
C3071 C 0.40425 0.43121 0.54133 0.0
C3072 C 0.42446 0.44681 0.536 0.0
C3073 C 0.42734 0.45654 0.51213 0.0
C3074 C 0.41069 0.44945 0.49317 0.0
H3075 H 0.82153 0.0746 0.52954 0.0
H3076 H 0.80399 0.05143 0.45349 0.0
H3077 H 0.8399 0.02412 0.45137 0.0
H3078 H 0.88324 0.08215 0.52116 0.0
H3079 H 0.89204 0.07004 0.55058 0.0
H3080 H 0.8628 0.0838 0.54727 0.0
H3081 H 0.84311 0.04191 0.56269 0.0
H3082 H 0.87248 0.02781 0.56506 0.0
H3083 H 0.84913 0.01195 0.54643 0.0
H3084 H 0.87874 0.00272 0.4558 0.0
H3085 H 0.92219 0.99643 0.46292 0.0
H3086 H 0.91683 0.03518 0.53507 0.0
C3087 C 0.82522 0.06341 0.51266 0.0
C3088 C 0.81013 0.06477 0.49169 0.0
C3089 C 0.81544 0.05037 0.46971 0.0
C3090 C 0.83557 0.0346 0.46847 0.0
C3091 C 0.85014 0.03337 0.48947 0.0
C3092 C 0.84549 0.04768 0.51106 0.0
C3093 C 0.86588 0.04548 0.52967 0.0
C3094 C 0.87663 0.07194 0.5376 0.0
C3095 C 0.85712 0.03093 0.55231 0.0
C3096 C 0.88358 0.02961 0.51433 0.0
C3097 C 0.87347 0.02164 0.49175 0.0
C3098 C 0.88671 0.00839 0.47357 0.0
C3099 C 0.91134 0.00466 0.47786 0.0
C3100 C 0.92256 0.01465 0.49984 0.0
C3101 C 0.90835 0.02632 0.51871 0.0
H3102 H 0.6523 0.08816 0.29496 0.0
H3103 H 0.63625 0.05582 0.22111 0.0
H3104 H 0.64603 0.09712 0.20337 0.0
H3105 H 0.63135 0.1554 0.2836 0.0
H3106 H 0.6559 0.16914 0.30212 0.0
H3107 H 0.64266 0.13863 0.30958 0.0
H3108 H 0.68523 0.11853 0.30685 0.0
H3109 H 0.69823 0.14896 0.2995 0.0
H3110 H 0.70278 0.12151 0.27886 0.0
H3111 H 0.66593 0.13763 0.19269 0.0
H3112 H 0.69457 0.17439 0.19051 0.0
H3113 H 0.69471 0.18303 0.27064 0.0
C3114 C 0.65021 0.08998 0.27514 0.0
C3115 C 0.64347 0.0687 0.25951 0.0
C3116 C 0.6413 0.07178 0.23359 0.0
C3117 C 0.64664 0.09529 0.22328 0.0
C3118 C 0.65376 0.11575 0.23911 0.0
C3119 C 0.65533 0.11345 0.26453 0.0
C3120 C 0.66637 0.13738 0.27702 0.0
C3121 C 0.64795 0.15094 0.29408 0.0
C3122 C 0.68952 0.13122 0.29137 0.0
C3123 C 0.67201 0.15284 0.25453 0.0
C3124 C 0.66425 0.14017 0.23282 0.0
C3125 C 0.67118 0.14836 0.2095 0.0
C3126 C 0.6873 0.16932 0.20836 0.0
C3127 C 0.69584 0.18199 0.23037 0.0
C3128 C 0.68724 0.17442 0.2536 0.0
H3129 H 0.67388 0.95963 0.0206 0.0
H3130 H 0.66455 0.87827 0.00339 0.0
H3131 H 0.62105 0.88418 -0.00417 0.0
H3132 H 0.61799 0.96813 0.05156 0.0
H3133 H 0.61169 -0.00112 0.03914 0.0
H3134 H 0.64249 0.9894 0.04353 0.0
H3135 H 0.6532 0.99476 -0.00242 0.0
H3136 H 0.62324 0.00635 0.9928 0.0
H3137 H 0.63407 0.97984 0.9738 0.0
H3138 H 0.57931 0.89976 0.98638 0.0
H3139 H 0.54364 0.92451 0.97427 0.0
H3140 H 0.58009 0.99454 0.00025 0.0
C3141 C 0.66269 0.94302 0.01542 0.0
C3142 C 0.67255 0.91854 0.01275 0.0
C3143 C 0.65733 0.89728 0.00566 0.0
C3144 C 0.63258 0.90038 0.00141 0.0
C3145 C 0.62338 0.92482 0.0044 0.0
C3146 C 0.63805 0.94576 0.011 0.0
C3147 C 0.62411 0.97016 0.01176 0.0
C3148 C 0.62403 0.98242 0.03809 0.0
C3149 C 0.63426 0.98886 0.99285 0.0
C3150 C 0.59934 0.95979 0.00429 0.0
C3151 C 0.59917 0.93356 0.00011 0.0
C3152 C 0.57899 0.9202 0.9902 0.0
C3153 C 0.55882 0.93426 0.98353 0.0
C3154 C 0.55924 0.96109 0.98714 0.0
C3155 C 0.57929 0.97386 -0.00171 0.0
H3156 H 0.35495 0.42961 0.24057 0.0
H3157 H 0.33724 0.44345 0.31836 0.0
H3158 H 0.31599 0.40133 0.31858 0.0
H3159 H 0.29977 0.40365 0.22287 0.0
H3160 H 0.3118 0.38073 0.20049 0.0
H3161 H 0.32843 0.40986 0.208 0.0
H3162 H 0.36571 0.38353 0.21967 0.0
H3163 H 0.34894 0.35423 0.21246 0.0
H3164 H 0.36259 0.35964 0.24264 0.0
H3165 H 0.29304 0.35893 0.30871 0.0
H3166 H 0.26784 0.32398 0.28858 0.0
H3167 H 0.30059 0.33962 0.2177 0.0
C3168 C 0.34701 0.42371 0.25784 0.0
C3169 C 0.34786 0.43989 0.27945 0.0
C3170 C 0.33688 0.43141 0.30153 0.0
C3171 C 0.32492 0.4074 0.30189 0.0
C3172 C 0.32425 0.39204 0.28009 0.0
C3173 C 0.33503 0.40001 0.25848 0.0
C3174 C 0.3298 0.38151 0.23682 0.0
C3175 C 0.31666 0.39473 0.21584 0.0
C3176 C 0.35315 0.36899 0.22735 0.0
C3177 C 0.31343 0.36243 0.24924 0.0
C3178 C 0.3109 0.36825 0.27436 0.0
C3179 C 0.2952 0.35405 0.28913 0.0
C3180 C 0.28105 0.33417 0.27766 0.0
C3181 C 0.2825 0.32926 0.25172 0.0
C3182 C 0.29944 0.34295 0.23764 0.0
H3183 H 0.192 0.57486 0.03552 0.0
H3184 H 0.17791 0.62327 0.97407 0.0
H3185 H 0.1341 0.61983 0.98249 0.0
H3186 H 0.14891 0.53148 0.02271 0.0
H3187 H 0.14063 0.52532 0.05431 0.0
H3188 H 0.17033 0.53748 0.04763 0.0
H3189 H 0.16359 0.57558 0.07907 0.0
H3190 H 0.13343 0.56362 0.08541 0.0
H3191 H 0.13797 0.5958 0.07546 0.0
H3192 H 0.09273 0.6046 0.99179 0.0
H3193 H 0.059 0.57368 -0.004 0.0
H3194 H 0.09922 0.53495 0.05137 0.0
C3195 C 0.17972 0.58525 0.02423 0.0
C3196 C 0.18829 0.59928 0.00419 0.0
C3197 C 0.1717 0.61238 0.98958 0.0
C3198 C 0.1468 0.61085 -0.00554 0.0
C3199 C 0.13885 0.59646 0.01419 0.0
C3200 C 0.15489 0.58384 0.02881 0.0
C3201 C 0.14184 0.56604 0.04591 0.0
C3202 C 0.15095 0.53848 0.04238 0.0
C3203 C 0.14436 0.57585 0.07307 0.0
C3204 C 0.11614 0.56854 0.0368 0.0
C3205 C 0.11458 0.58725 0.01949 0.0
C3206 C 0.0935 0.59049 0.00584 0.0
C3207 C 0.07425 0.57298 0.00853 0.0
C3208 C 0.07658 0.55228 0.02427 0.0
C3209 C 0.097 0.55109 0.03974 0.0
H3210 H 0.69286 0.94416 0.23525 0.0
H3211 H 0.7089 0.96701 0.31183 0.0
H3212 H 0.72872 0.92629 0.31725 0.0
H3213 H 0.67179 0.89049 0.24308 0.0
H3214 H 0.68421 0.87132 0.21778 0.0
H3215 H 0.68182 0.9051 0.21501 0.0
H3216 H 0.72758 0.91002 0.2063 0.0
H3217 H 0.73027 0.87587 0.2079 0.0
H3218 H 0.74916 0.89703 0.22715 0.0
H3219 H 0.7288 0.87998 0.32004 0.0
H3220 H 0.72148 0.83322 0.31594 0.0
H3221 H 0.70789 0.83897 0.23733 0.0
C3222 C 0.70195 0.94126 0.25265 0.0
C3223 C 0.69855 0.95829 0.27334 0.0
C3224 C 0.71081 0.95403 0.2958 0.0
C3225 C 0.72217 0.93084 0.29908 0.0
C3226 C 0.72189 0.91268 0.27944 0.0
C3227 C 0.71334 0.91809 0.25611 0.0
C3228 C 0.71134 0.89403 0.23944 0.0
C3229 C 0.68577 0.89003 0.22822 0.0
C3230 C 0.73075 0.89425 0.21899 0.0
C3231 C 0.71668 0.87413 0.25804 0.0
C3232 C 0.72326 0.88527 0.28085 0.0
C3233 C 0.72484 0.87096 0.30203 0.0
C3234 C 0.72014 0.8446 0.29969 0.0
C3235 C 0.71407 0.83298 0.27638 0.0
C3236 C 0.71272 0.84773 0.25527 0.0
H3237 H 0.80531 0.05527 0.74714 0.0
H3238 H 0.87992 0.08169 0.7439 0.0
H3239 H 0.86685 0.1245 0.73333 0.0
H3240 H 0.7826 0.10394 0.69702 0.0
H3241 H 0.75455 0.10733 0.71377 0.0
H3242 H 0.76919 0.07685 0.71185 0.0
H3243 H 0.76931 0.07547 0.75989 0.0
H3244 H 0.75423 0.10529 0.76168 0.0
H3245 H 0.78246 0.10207 0.77796 0.0
H3246 H 0.84728 0.16519 0.7373 0.0
H3247 H 0.82294 0.19902 0.75766 0.0
H3248 H 0.76006 0.14855 0.75499 0.0
C3249 C 0.81866 0.07001 0.74328 0.0
C3250 C 0.84345 0.06567 0.74646 0.0
C3251 C 0.86077 0.08503 0.74161 0.0
C3252 C 0.85352 0.10924 0.7352 0.0
C3253 C 0.82885 0.11362 0.73318 0.0
C3254 C 0.81159 0.09437 0.73654 0.0
C3255 C 0.78641 0.10514 0.73761 0.0
C3256 C 0.77237 0.09788 0.71363 0.0
C3257 C 0.77234 0.09652 0.76067 0.0
C3258 C 0.79268 0.13349 0.73889 0.0
C3259 C 0.8171 0.13806 0.73461 0.0
C3260 C 0.82799 0.1621 0.73969 0.0
C3261 C 0.81412 0.18127 0.75124 0.0
C3262 C 0.7898 0.17605 0.7574 0.0
C3263 C 0.77858 0.15275 0.74961 0.0
loop_
_geom_bond_atom_site_label_1
_geom_bond_atom_site_label_2
_geom_bond_distance
_geom_bond_site_symmetry_2
_ccdc_geom_bond_type
Mg0 O1 2.028 . S
Mg0 O7 1.986 . S
Mg0 O9 2.114 1_455 S
Mg0 O10 2.251 1_455 S
Mg0 O13 2.010 . S
O1 Mg0 2.028 . S
O1 C4 1.250 . S
O2 Mg3 2.028 . S
O2 C4 1.248 1_655 S
Mg3 O2 2.028 . S
Mg3 O8 2.032 . S
Mg3 O10 2.079 . S
C4 O1 1.250 . S
C4 O2 1.248 1_455 S
C5 O6 1.264 . S
C5 O13 1.249 . S
O6 C5 1.264 . S
O7 Mg0 1.986 . S
O7 C11 1.246 . S
O8 Mg3 2.032 . S
O8 C11 1.259 1_655 S
O9 Mg0 2.114 1_655 S
O9 C12 1.252 . S
O10 Mg0 2.251 1_655 S
O10 Mg3 2.079 . S
O10 C12 1.273 . S
C11 O7 1.246 . S
C11 O8 1.259 1_455 S
C12 O9 1.252 . S
C12 O10 1.273 . S
O13 Mg0 2.010 . S
O13 C5 1.249 . S
Mg14 O15 2.028 . S
Mg14 O21 1.986 . S
Mg14 O23 2.114 1_455 S
Mg14 O24 2.251 1_455 S
Mg14 O27 2.010 . S
O15 Mg14 2.028 . S
O15 C18 1.250 . S
O16 Mg17 2.028 . S
O16 C18 1.248 1_655 S
Mg17 O16 2.028 . S
Mg17 O22 2.032 . S
Mg17 O24 2.079 . S
C18 O15 1.250 . S
C18 O16 1.248 1_455 S
C19 O20 1.264 . S
C19 O27 1.249 . S
O20 C19 1.264 . S
O21 Mg14 1.986 . S
O21 C25 1.246 . S
O22 Mg17 2.032 . S
O22 C25 1.259 1_655 S
O23 Mg14 2.114 1_655 S
O23 C26 1.252 . S
O24 Mg14 2.251 1_655 S
O24 Mg17 2.079 . S
O24 C26 1.273 . S
C25 O21 1.246 . S
C25 O22 1.259 1_455 S
C26 O23 1.252 . S
C26 O24 1.273 . S
O27 Mg14 2.010 . S
O27 C19 1.249 . S
Mg28 O29 2.028 . S
Mg28 O35 1.986 . S
Mg28 O37 2.114 . S
Mg28 O38 2.251 . S
Mg28 O41 2.010 . S
O29 Mg28 2.028 . S
O29 C32 1.250 . S
O30 Mg31 2.028 . S
O30 C32 1.248 . S
Mg31 O30 2.028 . S
Mg31 O36 2.032 . S
Mg31 O38 2.079 . S
C32 O29 1.250 . S
C32 O30 1.248 . S
C33 O34 1.264 . S
C33 O41 1.249 . S
O34 C33 1.264 . S
O35 Mg28 1.986 . S
O35 C39 1.246 . S
O36 Mg31 2.032 . S
O36 C39 1.259 . S
O37 Mg28 2.114 . S
O37 C40 1.252 . S
O38 Mg28 2.251 . S
O38 Mg31 2.079 . S
O38 C40 1.273 . S
C39 O35 1.246 . S
C39 O36 1.259 . S
C40 O37 1.252 . S
C40 O38 1.273 . S
O41 Mg28 2.010 . S
O41 C33 1.249 . S
Mg42 O43 2.028 . S
Mg42 O49 1.986 . S
Mg42 O51 2.114 . S
Mg42 O52 2.251 . S
Mg42 O55 2.010 . S
O43 Mg42 2.028 . S
O43 C46 1.250 . S
O44 Mg45 2.028 . S
O44 C46 1.248 . S
Mg45 O44 2.028 . S
Mg45 O50 2.032 . S
Mg45 O52 2.079 . S
C46 O43 1.250 . S
C46 O44 1.248 . S
C47 O48 1.264 . S
C47 O55 1.249 . S
O48 C47 1.264 . S
O49 Mg42 1.986 . S
O49 C53 1.246 . S
O50 Mg45 2.032 . S
O50 C53 1.259 . S
O51 Mg42 2.114 . S
O51 C54 1.252 . S
O52 Mg42 2.251 . S
O52 Mg45 2.079 . S
O52 C54 1.273 . S
C53 O49 1.246 . S
C53 O50 1.259 . S
C54 O51 1.252 . S
C54 O52 1.273 . S
O55 Mg42 2.010 . S
O55 C47 1.249 . S
Mg56 O57 2.028 1_565 S
Mg56 O63 1.986 . S
Mg56 O65 2.114 1_565 S
Mg56 O66 2.251 . S
Mg56 O69 2.010 . S
O57 Mg56 2.028 1_545 S
O57 C60 1.250 . S
O58 Mg59 2.028 . S
O58 C60 1.248 . S
Mg59 O58 2.028 . S
Mg59 O64 2.032 1_545 S
Mg59 O66 2.079 1_545 S
C60 O57 1.250 . S
C60 O58 1.248 . S
C61 O62 1.264 . S
C61 O69 1.249 . S
O62 C61 1.264 . S
O63 Mg56 1.986 . S
O63 C67 1.246 . S
O64 Mg59 2.032 1_565 S
O64 C67 1.259 . S
O65 Mg56 2.114 1_545 S
O65 C68 1.252 . S
O66 Mg56 2.251 . S
O66 Mg59 2.079 1_565 S
O66 C68 1.273 1_565 S
C67 O63 1.246 . S
C67 O64 1.259 . S
C68 O65 1.252 . S
C68 O66 1.273 1_545 S
O69 Mg56 2.010 . S
O69 C61 1.249 . S
Mg70 O71 2.028 . S
Mg70 O77 1.986 . S
Mg70 O79 2.114 . S
Mg70 O80 2.251 . S
Mg70 O83 2.010 . S
O71 Mg70 2.028 . S
O71 C74 1.250 . S
O72 Mg73 2.028 . S
O72 C74 1.248 . S
Mg73 O72 2.028 . S
Mg73 O78 2.032 . S
Mg73 O80 2.079 . S
C74 O71 1.250 . S
C74 O72 1.248 . S
C75 O76 1.264 . S
C75 O83 1.249 . S
O76 C75 1.264 . S
O77 Mg70 1.986 . S
O77 C81 1.246 . S
O78 Mg73 2.032 . S
O78 C81 1.259 . S
O79 Mg70 2.114 . S
O79 C82 1.252 . S
O80 Mg70 2.251 . S
O80 Mg73 2.079 . S
O80 C82 1.273 . S
C81 O77 1.246 . S
C81 O78 1.259 . S
C82 O79 1.252 . S
C82 O80 1.273 . S
O83 Mg70 2.010 . S
O83 C75 1.249 . S
Mg84 O85 2.028 1_545 S
Mg84 O91 1.986 . S
Mg84 O93 2.114 1_545 S
Mg84 O94 2.251 . S
Mg84 O97 2.010 . S
O85 Mg84 2.028 1_565 S
O85 C88 1.250 . S
O86 Mg87 2.028 1_565 S
O86 C88 1.248 . S
Mg87 O86 2.028 1_545 S
Mg87 O92 2.032 . S
Mg87 O94 2.079 . S
C88 O85 1.250 . S
C88 O86 1.248 . S
C89 O90 1.264 . S
C89 O97 1.249 . S
O90 C89 1.264 . S
O91 Mg84 1.986 . S
O91 C95 1.246 . S
O92 Mg87 2.032 . S
O92 C95 1.259 . S
O93 Mg84 2.114 1_565 S
O93 C96 1.252 1_565 S
O94 Mg84 2.251 . S
O94 Mg87 2.079 . S
O94 C96 1.273 . S
C95 O91 1.246 . S
C95 O92 1.259 . S
C96 O93 1.252 1_545 S
C96 O94 1.273 . S
O97 Mg84 2.010 . S
O97 C89 1.249 . S
Mg98 O99 2.028 1_556 S
Mg98 O105 1.986 . S
Mg98 O107 2.114 1_556 S
Mg98 O108 2.251 1_556 S
Mg98 O111 2.010 . S
O99 Mg98 2.028 1_554 S
O99 C102 1.250 . S
O100 Mg101 2.028 . S
O100 C102 1.248 . S
Mg101 O100 2.028 . S
Mg101 O106 2.032 1_554 S
Mg101 O108 2.079 . S
C102 O99 1.250 . S
C102 O100 1.248 . S
C103 O104 1.244 1_554 S
C103 O111 1.243 1_554 S
O104 C103 1.244 1_556 S
O105 Mg98 1.986 . S
O105 C109 1.246 . S
O106 Mg101 2.032 1_556 S
O106 C109 1.259 . S
O107 Mg98 2.114 1_554 S
O107 C110 1.252 . S
O108 Mg98 2.251 1_554 S
O108 Mg101 2.079 . S
O108 C110 1.273 . S
C109 O105 1.246 . S
C109 O106 1.259 . S
C110 O107 1.252 . S
C110 O108 1.273 . S
O111 Mg98 2.010 . S
O111 C103 1.243 1_556 S
Mg112 O113 2.028 1_554 S
Mg112 O119 1.986 . S
Mg112 O121 2.114 1_554 S
Mg112 O122 2.251 . S
Mg112 O125 2.010 . S
O113 Mg112 2.028 1_556 S
O113 C116 1.250 . S
O114 Mg115 2.028 1_556 S
O114 C116 1.248 . S
Mg115 O114 2.028 1_554 S
Mg115 O120 2.032 . S
Mg115 O122 2.079 . S
C116 O113 1.250 . S
C116 O114 1.248 . S
C117 O118 1.264 . S
C117 O125 1.249 . S
O118 C117 1.264 . S
O119 Mg112 1.986 . S
O119 C123 1.246 . S
O120 Mg115 2.032 . S
O120 C123 1.259 . S
O121 Mg112 2.114 1_556 S
O121 C124 1.252 1_556 S
O122 Mg112 2.251 . S
O122 Mg115 2.079 . S
O122 C124 1.273 . S
C123 O119 1.246 . S
C123 O120 1.259 . S
C124 O121 1.252 1_554 S
C124 O122 1.273 . S
O125 Mg112 2.010 . S
O125 C117 1.249 . S
Mg126 O127 2.028 . S
Mg126 O133 1.986 . S
Mg126 O135 2.114 . S
Mg126 O136 2.251 . S
Mg126 O139 2.010 . S
O127 Mg126 2.028 . S
O127 C130 1.250 . S
O128 Mg129 2.028 . S
O128 C130 1.248 . S
Mg129 O128 2.028 . S
Mg129 O134 2.032 . S
Mg129 O136 2.079 . S
C130 O127 1.250 . S
C130 O128 1.248 . S
C131 O132 1.264 . S
C131 O139 1.249 . S
O132 C131 1.264 . S
O133 Mg126 1.986 . S
O133 C137 1.246 . S
O134 Mg129 2.032 . S
O134 C137 1.259 . S
O135 Mg126 2.114 . S
O135 C138 1.252 . S
O136 Mg126 2.251 . S
O136 Mg129 2.079 . S
O136 C138 1.273 . S
C137 O133 1.246 . S
C137 O134 1.259 . S
C138 O135 1.252 . S
C138 O136 1.273 . S
O139 Mg126 2.010 . S
O139 C131 1.249 . S
Mg140 O141 2.028 . S
Mg140 O147 1.986 . S
Mg140 O149 2.114 . S
Mg140 O150 2.251 . S
Mg140 O153 2.010 . S
O141 Mg140 2.028 . S
O141 C144 1.250 . S
O142 Mg143 2.028 . S
O142 C144 1.248 . S
Mg143 O142 2.028 . S
Mg143 O148 2.032 . S
Mg143 O150 2.079 . S
C144 O141 1.250 . S
C144 O142 1.248 . S
C145 O146 1.264 . S
C145 O153 1.249 . S
O146 C145 1.264 . S
O147 Mg140 1.986 . S
O147 C151 1.246 . S
O148 Mg143 2.032 . S
O148 C151 1.259 . S
O149 Mg140 2.114 . S
O149 C152 1.252 . S
O150 Mg140 2.251 . S
O150 Mg143 2.079 . S
O150 C152 1.273 . S
C151 O147 1.246 . S
C151 O148 1.259 . S
C152 O149 1.252 . S
C152 O150 1.273 . S
O153 Mg140 2.010 . S
O153 C145 1.249 . S
Mg154 O155 2.028 . S
Mg154 O161 1.986 . S
Mg154 O163 2.114 . S
Mg154 O164 2.251 . S
Mg154 O167 2.010 . S
O155 Mg154 2.028 . S
O155 C158 1.250 . S
O156 Mg157 2.028 . S
O156 C158 1.248 . S
Mg157 O156 2.028 . S
Mg157 O162 2.032 . S
Mg157 O164 2.079 . S
C158 O155 1.250 . S
C158 O156 1.248 . S
C159 O160 1.264 . S
C159 O167 1.249 . S
O160 C159 1.264 . S
O161 Mg154 1.986 . S
O161 C165 1.246 . S
O162 Mg157 2.032 . S
O162 C165 1.259 . S
O163 Mg154 2.114 . S
O163 C166 1.252 . S
O164 Mg154 2.251 . S
O164 Mg157 2.079 . S
O164 C166 1.273 . S
C165 O161 1.246 . S
C165 O162 1.259 . S
C166 O163 1.252 . S
C166 O164 1.273 . S
O167 Mg154 2.010 . S
O167 C159 1.249 . S
Mg168 O169 2.028 . S
Mg168 O175 1.986 . S
Mg168 O177 2.114 1_455 S
Mg168 O178 2.251 1_455 S
Mg168 O181 2.010 . S
O169 Mg168 2.028 . S
O169 C172 1.250 . S
O170 Mg171 2.028 . S
O170 C172 1.248 1_655 S
Mg171 O170 2.028 . S
Mg171 O176 2.032 . S
Mg171 O178 2.079 . S
C172 O169 1.250 . S
C172 O170 1.248 1_455 S
C173 O174 1.264 . S
C173 O181 1.249 . S
O174 C173 1.264 . S
O175 Mg168 1.986 . S
O175 C179 1.246 . S
O176 Mg171 2.032 . S
O176 C179 1.259 1_655 S
O177 Mg168 2.114 1_655 S
O177 C180 1.252 . S
O178 Mg168 2.251 1_655 S
O178 Mg171 2.079 . S
O178 C180 1.273 . S
C179 O175 1.246 . S
C179 O176 1.259 1_455 S
C180 O177 1.252 . S
C180 O178 1.273 . S
O181 Mg168 2.010 . S
O181 C173 1.249 . S
Mg182 O183 2.028 . S
Mg182 O189 1.986 . S
Mg182 O191 2.114 1_455 S
Mg182 O192 2.251 1_455 S
Mg182 O195 2.010 . S
O183 Mg182 2.028 . S
O183 C186 1.250 . S
O184 Mg185 2.028 . S
O184 C186 1.248 1_655 S
Mg185 O184 2.028 . S
Mg185 O190 2.032 . S
Mg185 O192 2.079 . S
C186 O183 1.250 . S
C186 O184 1.248 1_455 S
C187 O188 1.264 . S
C187 O195 1.249 . S
O188 C187 1.264 . S
O189 Mg182 1.986 . S
O189 C193 1.246 . S
O190 Mg185 2.032 . S
O190 C193 1.259 1_655 S
O191 Mg182 2.114 1_655 S
O191 C194 1.252 . S
O192 Mg182 2.251 1_655 S
O192 Mg185 2.079 . S
O192 C194 1.273 . S
C193 O189 1.246 . S
C193 O190 1.259 1_455 S
C194 O191 1.252 . S
C194 O192 1.273 . S
O195 Mg182 2.010 . S
O195 C187 1.249 . S
Mg196 O197 2.028 . S
Mg196 O203 1.986 . S
Mg196 O205 2.114 . S
Mg196 O206 2.251 . S
Mg196 O209 2.010 . S
O197 Mg196 2.028 . S
O197 C200 1.250 . S
O198 Mg199 2.028 . S
O198 C200 1.248 . S
Mg199 O198 2.028 . S
Mg199 O204 2.032 . S
Mg199 O206 2.079 . S
C200 O197 1.250 . S
C200 O198 1.248 . S
C201 O202 1.264 . S
C201 O209 1.249 . S
O202 C201 1.264 . S
O203 Mg196 1.986 . S
O203 C207 1.246 . S
O204 Mg199 2.032 . S
O204 C207 1.259 . S
O205 Mg196 2.114 . S
O205 C208 1.252 . S
O206 Mg196 2.251 . S
O206 Mg199 2.079 . S
O206 C208 1.273 . S
C207 O203 1.246 . S
C207 O204 1.259 . S
C208 O205 1.252 . S
C208 O206 1.273 . S
O209 Mg196 2.010 . S
O209 C201 1.249 . S
Mg210 O211 2.028 . S
Mg210 O217 1.986 . S
Mg210 O219 2.114 . S
Mg210 O220 2.251 . S
Mg210 O223 2.010 . S
O211 Mg210 2.028 . S
O211 C214 1.250 . S
O212 Mg213 2.028 . S
O212 C214 1.248 . S
Mg213 O212 2.028 . S
Mg213 O218 2.032 . S
Mg213 O220 2.079 . S
C214 O211 1.250 . S
C214 O212 1.248 . S
C215 O216 1.264 . S
C215 O223 1.249 . S
O216 C215 1.264 . S
O217 Mg210 1.986 . S
O217 C221 1.246 . S
O218 Mg213 2.032 . S
O218 C221 1.259 . S
O219 Mg210 2.114 . S
O219 C222 1.252 . S
O220 Mg210 2.251 . S
O220 Mg213 2.079 . S
O220 C222 1.273 . S
C221 O217 1.246 . S
C221 O218 1.259 . S
C222 O219 1.252 . S
C222 O220 1.273 . S
O223 Mg210 2.010 . S
O223 C215 1.249 . S
Mg224 O225 2.028 1_545 S
Mg224 O231 1.986 . S
Mg224 O233 2.114 1_545 S
Mg224 O234 2.251 . S
Mg224 O237 2.010 . S
O225 Mg224 2.028 1_565 S
O225 C228 1.250 . S
O226 Mg227 2.028 1_565 S
O226 C228 1.248 . S
Mg227 O226 2.028 1_545 S
Mg227 O232 2.032 . S
Mg227 O234 2.079 . S
C228 O225 1.250 . S
C228 O226 1.248 . S
C229 O230 1.264 . S
C229 O237 1.249 . S
O230 C229 1.264 . S
O231 Mg224 1.986 . S
O231 C235 1.246 . S
O232 Mg227 2.032 . S
O232 C235 1.259 . S
O233 Mg224 2.114 1_565 S
O233 C236 1.261 . S
O234 Mg224 2.251 . S
O234 Mg227 2.079 . S
O234 C236 1.260 1_545 S
C235 O231 1.246 . S
C235 O232 1.259 . S
C236 O233 1.261 . S
C236 O234 1.260 1_565 S
O237 Mg224 2.010 . S
O237 C229 1.249 . S
Mg238 O239 2.028 . S
Mg238 O245 1.986 . S
Mg238 O247 2.114 . S
Mg238 O248 2.251 . S
Mg238 O251 2.010 . S
O239 Mg238 2.028 . S
O239 C242 1.250 . S
O240 Mg241 2.028 . S
O240 C242 1.248 . S
Mg241 O240 2.028 . S
Mg241 O246 2.032 . S
Mg241 O248 2.079 . S
C242 O239 1.250 . S
C242 O240 1.248 . S
C243 O244 1.264 . S
C243 O251 1.249 . S
O244 C243 1.264 . S
O245 Mg238 1.986 . S
O245 C249 1.246 . S
O246 Mg241 2.032 . S
O246 C249 1.259 . S
O247 Mg238 2.114 . S
O247 C250 1.252 . S
O248 Mg238 2.251 . S
O248 Mg241 2.079 . S
O248 C250 1.273 . S
C249 O245 1.246 . S
C249 O246 1.259 . S
C250 O247 1.252 . S
C250 O248 1.273 . S
O251 Mg238 2.010 . S
O251 C243 1.249 . S
Mg252 O253 2.028 1_565 S
Mg252 O259 1.986 . S
Mg252 O261 2.114 1_565 S
Mg252 O262 2.253 . S
Mg252 O265 2.010 . S
O253 Mg252 2.028 1_545 S
O253 C256 1.250 . S
O254 Mg255 2.028 . S
O254 C256 1.248 . S
Mg255 O254 2.028 . S
Mg255 O260 2.032 1_545 S
Mg255 O262 2.076 1_545 S
C256 O253 1.250 . S
C256 O254 1.248 . S
C257 O258 1.264 . S
C257 O265 1.249 . S
O258 C257 1.264 . S
O259 Mg252 1.986 . S
O259 C263 1.246 . S
O260 Mg255 2.032 1_565 S
O260 C263 1.259 . S
O261 Mg252 2.114 1_545 S
O261 C264 1.252 . S
O262 Mg252 2.253 . S
O262 Mg255 2.076 1_565 S
O262 C264 1.259 1_565 S
C263 O259 1.246 . S
C263 O260 1.259 . S
C264 O261 1.252 . S
C264 O262 1.259 1_545 S
O265 Mg252 2.010 . S
O265 C257 1.249 . S
Mg266 O267 2.028 1_554 S
Mg266 O273 1.986 . S
Mg266 O275 2.114 . S
Mg266 O276 2.251 . S
Mg266 O279 2.010 . S
O267 Mg266 2.028 1_556 S
O267 C270 1.250 . S
O268 Mg269 2.028 1_556 S
O268 C270 1.248 . S
Mg269 O268 2.028 1_554 S
Mg269 O274 2.032 . S
Mg269 O276 2.079 . S
C270 O267 1.250 . S
C270 O268 1.248 . S
C271 O272 1.264 . S
C271 O279 1.249 . S
O272 C271 1.264 . S
O273 Mg266 1.986 . S
O273 C277 1.246 . S
O274 Mg269 2.032 . S
O274 C277 1.259 . S
O275 Mg266 2.114 . S
O275 C278 1.252 . S
O276 Mg266 2.251 . S
O276 Mg269 2.079 . S
O276 C278 1.273 . S
C277 O273 1.246 . S
C277 O274 1.259 . S
C278 O275 1.252 . S
C278 O276 1.273 . S
O279 Mg266 2.010 . S
O279 C271 1.249 . S
Mg280 O281 2.028 1_556 S
Mg280 O287 1.986 . S
Mg280 O289 2.114 1_556 S
Mg280 O290 2.251 . S
Mg280 O293 2.010 . S
O281 Mg280 2.028 1_554 S
O281 C284 1.250 . S
O282 Mg283 2.034 . S
O282 C284 1.248 . S
Mg283 O282 2.034 . S
Mg283 O288 2.027 1_554 S
Mg283 O290 2.078 1_554 S
C284 O281 1.250 . S
C284 O282 1.248 . S
C285 O286 1.264 . S
C285 O293 1.249 . S
O286 C285 1.264 . S
O287 Mg280 1.986 . S
O287 C291 1.246 . S
O288 Mg283 2.027 1_556 S
O288 C291 1.259 . S
O289 Mg280 2.114 1_554 S
O289 C292 1.252 . S
O290 Mg280 2.251 . S
O290 Mg283 2.078 1_556 S
O290 C292 1.273 1_556 S
C291 O287 1.246 . S
C291 O288 1.259 . S
C292 O289 1.252 . S
C292 O290 1.273 1_554 S
O293 Mg280 2.010 . S
O293 C285 1.249 . S
Mg294 O295 2.028 . S
Mg294 O301 1.986 . S
Mg294 O303 2.114 . S
Mg294 O304 2.251 . S
Mg294 O307 2.010 . S
O295 Mg294 2.028 . S
O295 C298 1.250 . S
O296 Mg297 2.028 . S
O296 C298 1.248 . S
Mg297 O296 2.028 . S
Mg297 O302 2.032 . S
Mg297 O304 2.079 . S
C298 O295 1.250 . S
C298 O296 1.248 . S
C299 O300 1.264 . S
C299 O307 1.249 . S
O300 C299 1.264 . S
O301 Mg294 1.986 . S
O301 C305 1.246 . S
O302 Mg297 2.032 . S
O302 C305 1.259 . S
O303 Mg294 2.114 . S
O303 C306 1.252 . S
O304 Mg294 2.251 . S
O304 Mg297 2.079 . S
O304 C306 1.273 . S
C305 O301 1.246 . S
C305 O302 1.259 . S
C306 O303 1.252 . S
C306 O304 1.273 . S
O307 Mg294 2.010 . S
O307 C299 1.249 . S
Mg308 O309 2.028 . S
Mg308 O315 1.986 . S
Mg308 O317 2.114 . S
Mg308 O318 2.251 . S
Mg308 O321 2.010 . S
O309 Mg308 2.028 . S
O309 C312 1.250 . S
O310 Mg311 2.028 . S
O310 C312 1.248 . S
Mg311 O310 2.028 . S
Mg311 O316 2.032 . S
Mg311 O318 2.079 . S
C312 O309 1.250 . S
C312 O310 1.248 . S
C313 O314 1.264 . S
C313 O321 1.249 . S
O314 C313 1.264 . S
O315 Mg308 1.986 . S
O315 C319 1.246 . S
O316 Mg311 2.032 . S
O316 C319 1.259 . S
O317 Mg308 2.114 . S
O317 C320 1.252 . S
O318 Mg308 2.251 . S
O318 Mg311 2.079 . S
O318 C320 1.273 . S
C319 O315 1.246 . S
C319 O316 1.259 . S
C320 O317 1.252 . S
C320 O318 1.273 . S
O321 Mg308 2.010 . S
O321 C313 1.249 . S
Mg322 O323 2.028 . S
Mg322 O329 1.986 . S
Mg322 O331 2.114 . S
Mg322 O332 2.251 . S
Mg322 O335 2.010 . S
O323 Mg322 2.028 . S
O323 C326 1.250 . S
O324 Mg325 2.028 . S
O324 C326 1.248 . S
Mg325 O324 2.028 . S
Mg325 O330 2.032 . S
Mg325 O332 2.079 . S
C326 O323 1.250 . S
C326 O324 1.248 . S
C327 O328 1.264 . S
C327 O335 1.249 . S
O328 C327 1.264 . S
O329 Mg322 1.986 . S
O329 C333 1.246 . S
O330 Mg325 2.032 . S
O330 C333 1.259 . S
O331 Mg322 2.114 . S
O331 C334 1.252 . S
O332 Mg322 2.251 . S
O332 Mg325 2.079 . S
O332 C334 1.273 . S
C333 O329 1.246 . S
C333 O330 1.259 . S
C334 O331 1.252 . S
C334 O332 1.273 . S
O335 Mg322 2.010 . S
O335 C327 1.249 . S
O336 Mg337 1.986 . S
O336 C350 1.253 . S
Mg337 O336 1.986 . S
Mg337 O340 2.182 1_556 S
Mg337 O341 2.118 1_556 S
Mg337 O355 2.030 1_556 S
O338 Mg339 2.072 1_656 S
O338 C350 1.260 . S
Mg339 O338 2.072 1_454 S
Mg339 O340 2.099 1_455 S
Mg339 O342 2.079 1_545 S
Mg339 O343 2.072 . S
Mg339 O345 2.099 1_545 S
Mg339 O356 2.079 1_445 S
O340 Mg337 2.182 1_554 S
O340 Mg339 2.099 1_655 S
O340 C351 1.279 . S
O341 Mg337 2.118 1_554 S
O341 C351 1.250 . S
O342 Mg339 2.079 1_565 S
O342 C352 1.264 . S
O343 Mg339 2.072 . S
O343 C353 1.260 . S
Mg344 O345 2.180 . S
Mg344 O346 2.030 . S
Mg344 O347 1.990 1_554 S
Mg344 O348 2.117 1_554 S
O345 Mg339 2.099 1_565 S
O345 Mg344 2.180 . S
O345 C354 1.279 1_554 S
O346 Mg344 2.030 . S
O346 C352 1.248 . S
O347 Mg344 1.990 1_556 S
O347 C353 1.253 1_566 S
O348 Mg344 2.117 1_556 S
O348 C354 1.250 . S
C349 O355 1.248 1_565 S
C349 O356 1.264 . S
C350 O336 1.253 . S
C350 O338 1.260 . S
C351 O340 1.279 . S
C351 O341 1.250 . S
C352 O342 1.264 . S
C352 O346 1.248 . S
C353 O343 1.260 . S
C353 O347 1.253 1_544 S
C354 O345 1.279 1_556 S
C354 O348 1.250 . S
O355 Mg337 2.030 1_554 S
O355 C349 1.248 1_545 S
O356 Mg339 2.079 1_665 S
O356 C349 1.264 . S
O357 Mg358 1.990 . S
O357 C371 1.253 . S
Mg358 O357 1.990 . S
Mg358 O361 2.180 . S
Mg358 O362 2.117 . S
Mg358 O376 2.030 . S
O359 Mg360 2.072 . S
O359 C371 1.260 . S
Mg360 O359 2.072 . S
Mg360 O361 2.099 . S
Mg360 O363 2.079 . S
Mg360 O364 2.072 . S
Mg360 O366 2.099 . S
Mg360 O377 2.079 . S
O361 Mg358 2.180 . S
O361 Mg360 2.099 . S
O361 C372 1.279 . S
O362 Mg358 2.117 . S
O362 C372 1.250 . S
O363 Mg360 2.079 . S
O363 C373 1.264 . S
O364 Mg360 2.072 . S
O364 C374 1.260 . S
Mg365 O366 2.180 . S
Mg365 O367 2.030 . S
Mg365 O368 1.990 . S
Mg365 O369 2.117 . S
O366 Mg360 2.099 . S
O366 Mg365 2.180 . S
O366 C375 1.279 . S
O367 Mg365 2.030 . S
O367 C373 1.248 . S
O368 Mg365 1.990 . S
O368 C374 1.253 . S
O369 Mg365 2.117 . S
O369 C375 1.250 . S
C370 O376 1.248 . S
C370 O377 1.264 . S
C371 O357 1.253 . S
C371 O359 1.260 . S
C372 O361 1.279 . S
C372 O362 1.250 . S
C373 O363 1.264 . S
C373 O367 1.248 . S
C374 O364 1.260 . S
C374 O368 1.253 . S
C375 O366 1.279 . S
C375 O369 1.250 . S
O376 Mg358 2.030 . S
O376 C370 1.248 . S
O377 Mg360 2.079 . S
O377 C370 1.264 . S
O378 Mg379 1.990 . S
O378 C392 1.253 . S
Mg379 O378 1.990 . S
Mg379 O382 2.180 . S
Mg379 O383 2.117 . S
Mg379 O397 2.030 1_565 S
O380 Mg381 2.072 . S
O380 C392 1.260 1_545 S
Mg381 O380 2.072 . S
Mg381 O382 2.099 1_545 S
Mg381 O384 2.079 . S
Mg381 O385 2.072 1_545 S
Mg381 O387 2.099 . S
Mg381 O398 2.079 . S
O382 Mg379 2.180 . S
O382 Mg381 2.099 1_565 S
O382 C393 1.279 . S
O383 Mg379 2.117 . S
O383 C393 1.250 . S
O384 Mg381 2.079 . S
O384 C394 1.264 . S
O385 Mg381 2.072 1_565 S
O385 C395 1.260 . S
Mg386 O387 2.180 . S
Mg386 O388 2.030 . S
Mg386 O389 1.990 . S
Mg386 O390 2.117 . S
O387 Mg381 2.099 . S
O387 Mg386 2.180 . S
O387 C396 1.279 . S
O388 Mg386 2.030 . S
O388 C394 1.248 . S
O389 Mg386 1.990 . S
O389 C395 1.253 1_545 S
O390 Mg386 2.117 . S
O390 C396 1.250 . S
C391 O397 1.248 . S
C391 O398 1.264 . S
C392 O378 1.253 . S
C392 O380 1.260 1_565 S
C393 O382 1.279 . S
C393 O383 1.250 . S
C394 O384 1.264 . S
C394 O388 1.248 . S
C395 O385 1.260 . S
C395 O389 1.253 1_565 S
C396 O387 1.279 . S
C396 O390 1.250 . S
O397 Mg379 2.030 1_545 S
O397 C391 1.248 . S
O398 Mg381 2.079 . S
O398 C391 1.264 . S
O399 Mg400 1.990 . S
O399 C413 1.253 . S
Mg400 O399 1.990 . S
Mg400 O403 2.180 . S
Mg400 O404 2.117 . S
Mg400 O418 2.030 . S
O401 Mg402 2.072 . S
O401 C413 1.260 . S
Mg402 O401 2.072 . S
Mg402 O403 2.099 . S
Mg402 O405 2.079 . S
Mg402 O406 2.072 . S
Mg402 O408 2.099 . S
Mg402 O419 2.079 . S
O403 Mg400 2.180 . S
O403 Mg402 2.099 . S
O403 C414 1.279 . S
O404 Mg400 2.117 . S
O404 C414 1.250 . S
O405 Mg402 2.079 . S
O405 C415 1.264 . S
O406 Mg402 2.072 . S
O406 C416 1.260 . S
Mg407 O408 2.180 . S
Mg407 O409 2.030 . S
Mg407 O410 1.990 . S
Mg407 O411 2.117 . S
O408 Mg402 2.099 . S
O408 Mg407 2.180 . S
O408 C417 1.279 . S
O409 Mg407 2.030 . S
O409 C415 1.248 . S
O410 Mg407 1.990 . S
O410 C416 1.253 . S
O411 Mg407 2.117 . S
O411 C417 1.250 . S
C412 O418 1.248 . S
C412 O419 1.264 . S
C413 O399 1.253 . S
C413 O401 1.260 . S
C414 O403 1.279 . S
C414 O404 1.250 . S
C415 O405 1.264 . S
C415 O409 1.248 . S
C416 O406 1.260 . S
C416 O410 1.253 . S
C417 O408 1.279 . S
C417 O411 1.250 . S
O418 Mg400 2.030 . S
O418 C412 1.248 . S
O419 Mg402 2.079 . S
O419 C412 1.264 . S
O420 Mg421 1.990 . S
O420 C434 1.253 . S
Mg421 O420 1.990 . S
Mg421 O424 2.180 . S
Mg421 O425 2.117 1_455 S
Mg421 O439 2.030 . S
O422 Mg423 2.072 1_565 S
O422 C434 1.260 . S
Mg423 O422 2.072 1_545 S
Mg423 O424 2.099 1_545 S
Mg423 O426 2.079 . S
Mg423 O427 2.072 1_455 S
Mg423 O429 2.099 . S
Mg423 O440 2.079 1_545 S
O424 Mg421 2.180 . S
O424 Mg423 2.099 1_565 S
O424 C435 1.279 1_455 S
O425 Mg421 2.117 1_655 S
O425 C435 1.250 . S
O426 Mg423 2.079 . S
O426 C436 1.264 . S
O427 Mg423 2.072 1_655 S
O427 C437 1.260 . S
Mg428 O429 2.180 . S
Mg428 O430 2.030 . S
Mg428 O431 1.990 1_455 S
Mg428 O432 2.117 . S
O429 Mg423 2.099 . S
O429 Mg428 2.180 . S
O429 C438 1.279 . S
O430 Mg428 2.030 . S
O430 C436 1.248 . S
O431 Mg428 1.990 1_655 S
O431 C437 1.253 . S
O432 Mg428 2.117 . S
O432 C438 1.250 . S
C433 O439 1.248 . S
C433 O440 1.264 . S
C434 O420 1.253 . S
C434 O422 1.260 . S
C435 O424 1.279 1_655 S
C435 O425 1.250 . S
C436 O426 1.264 . S
C436 O430 1.248 . S
C437 O427 1.260 . S
C437 O431 1.253 . S
C438 O429 1.279 . S
C438 O432 1.250 . S
O439 Mg421 2.030 . S
O439 C433 1.248 . S
O440 Mg423 2.079 1_565 S
O440 C433 1.264 . S
O441 Mg442 1.990 . S
O441 C455 1.253 . S
Mg442 O441 1.990 . S
Mg442 O445 2.180 . S
Mg442 O446 2.117 . S
Mg442 O460 2.030 . S
O443 Mg444 2.072 . S
O443 C455 1.260 . S
Mg444 O443 2.072 . S
Mg444 O445 2.099 . S
Mg444 O447 2.079 . S
Mg444 O448 2.072 . S
Mg444 O450 2.099 . S
Mg444 O461 2.079 . S
O445 Mg442 2.180 . S
O445 Mg444 2.099 . S
O445 C456 1.279 . S
O446 Mg442 2.117 . S
O446 C456 1.250 . S
O447 Mg444 2.079 . S
O447 C457 1.264 . S
O448 Mg444 2.072 . S
O448 C458 1.260 . S
Mg449 O450 2.180 . S
Mg449 O451 2.030 . S
Mg449 O452 1.990 . S
Mg449 O453 2.117 . S
O450 Mg444 2.099 . S
O450 Mg449 2.180 . S
O450 C459 1.279 . S
O451 Mg449 2.030 . S
O451 C457 1.248 . S
O452 Mg449 1.990 . S
O452 C458 1.253 . S
O453 Mg449 2.117 . S
O453 C459 1.250 . S
C454 O460 1.248 . S
C454 O461 1.264 . S
C455 O441 1.253 . S
C455 O443 1.260 . S
C456 O445 1.279 . S
C456 O446 1.250 . S
C457 O447 1.264 . S
C457 O451 1.248 . S
C458 O448 1.260 . S
C458 O452 1.253 . S
C459 O450 1.279 . S
C459 O453 1.250 . S
O460 Mg442 2.030 . S
O460 C454 1.248 . S
O461 Mg444 2.079 . S
O461 C454 1.264 . S
O462 Mg463 1.990 . S
O462 C476 1.253 . S
Mg463 O462 1.990 . S
Mg463 O466 2.180 1_565 S
Mg463 O467 2.117 1_565 S
Mg463 O481 2.030 1_565 S
O464 Mg465 2.072 1_565 S
O464 C476 1.260 . S
Mg465 O464 2.072 1_545 S
Mg465 O466 2.099 . S
Mg465 O468 2.079 1_554 S
Mg465 O469 2.074 1_554 S
Mg465 O471 2.102 1_554 S
Mg465 O482 2.079 . S
O466 Mg463 2.180 1_545 S
O466 Mg465 2.099 . S
O466 C477 1.279 . S
O467 Mg463 2.117 1_545 S
O467 C477 1.250 . S
O468 Mg465 2.079 1_556 S
O468 C478 1.264 . S
O469 Mg465 2.074 1_556 S
O469 C479 1.259 1_545 S
Mg470 O471 2.186 . S
Mg470 O472 2.030 . S
Mg470 O473 1.990 1_545 S
Mg470 O474 2.117 1_545 S
O471 Mg465 2.102 1_556 S
O471 Mg470 2.186 . S
O471 C480 1.267 1_545 S
O472 Mg470 2.030 . S
O472 C478 1.248 . S
O473 Mg470 1.990 1_565 S
O473 C479 1.253 . S
O474 Mg470 2.117 1_565 S
O474 C480 1.250 . S
C475 O481 1.248 . S
C475 O482 1.264 . S
C476 O462 1.253 . S
C476 O464 1.260 . S
C477 O466 1.279 . S
C477 O467 1.250 . S
C478 O468 1.264 . S
C478 O472 1.248 . S
C479 O469 1.259 1_565 S
C479 O473 1.253 . S
C480 O471 1.267 1_565 S
C480 O474 1.250 . S
O481 Mg463 2.030 1_545 S
O481 C475 1.248 . S
O482 Mg465 2.079 . S
O482 C475 1.264 . S
O483 Mg484 1.990 . S
O483 C497 1.253 . S
Mg484 O483 1.990 . S
Mg484 O487 2.180 . S
Mg484 O488 2.117 . S
Mg484 O502 2.030 . S
O485 Mg486 2.072 . S
O485 C497 1.260 . S
Mg486 O485 2.072 . S
Mg486 O487 2.099 . S
Mg486 O489 2.079 . S
Mg486 O490 2.072 . S
Mg486 O492 2.099 . S
Mg486 O503 2.079 . S
O487 Mg484 2.180 . S
O487 Mg486 2.099 . S
O487 C498 1.279 . S
O488 Mg484 2.117 . S
O488 C498 1.250 . S
O489 Mg486 2.079 . S
O489 C499 1.264 . S
O490 Mg486 2.072 . S
O490 C500 1.260 . S
Mg491 O492 2.180 . S
Mg491 O493 2.030 . S
Mg491 O494 1.990 . S
Mg491 O495 2.117 . S
O492 Mg486 2.099 . S
O492 Mg491 2.180 . S
O492 C501 1.279 . S
O493 Mg491 2.030 . S
O493 C499 1.248 . S
O494 Mg491 1.990 . S
O494 C500 1.253 . S
O495 Mg491 2.117 . S
O495 C501 1.250 . S
C496 O502 1.248 . S
C496 O503 1.264 . S
C497 O483 1.253 . S
C497 O485 1.260 . S
C498 O487 1.279 . S
C498 O488 1.250 . S
C499 O489 1.264 . S
C499 O493 1.248 . S
C500 O490 1.260 . S
C500 O494 1.253 . S
C501 O492 1.279 . S
C501 O495 1.250 . S
O502 Mg484 2.030 . S
O502 C496 1.248 . S
O503 Mg486 2.079 . S
O503 C496 1.264 . S
O504 Mg505 1.990 . S
O504 C518 1.253 . S
Mg505 O504 1.990 . S
Mg505 O508 2.180 . S
Mg505 O509 2.117 . S
Mg505 O523 2.030 1_556 S
O506 Mg507 2.072 . S
O506 C518 1.260 1_554 S
Mg507 O506 2.072 . S
Mg507 O508 2.099 1_554 S
Mg507 O510 2.079 . S
Mg507 O511 2.072 1_554 S
Mg507 O513 2.099 . S
Mg507 O524 2.079 . S
O508 Mg505 2.180 . S
O508 Mg507 2.099 1_556 S
O508 C519 1.279 . S
O509 Mg505 2.117 . S
O509 C519 1.250 . S
O510 Mg507 2.079 . S
O510 C520 1.264 . S
O511 Mg507 2.072 1_556 S
O511 C521 1.260 . S
Mg512 O513 2.180 . S
Mg512 O514 2.030 . S
Mg512 O515 1.990 . S
Mg512 O516 2.117 . S
O513 Mg507 2.099 . S
O513 Mg512 2.180 . S
O513 C522 1.279 . S
O514 Mg512 2.030 . S
O514 C520 1.248 . S
O515 Mg512 1.990 . S
O515 C521 1.253 1_554 S
O516 Mg512 2.117 . S
O516 C522 1.250 . S
C517 O523 1.248 . S
C517 O524 1.264 . S
C518 O504 1.253 . S
C518 O506 1.260 1_556 S
C519 O508 1.279 . S
C519 O509 1.250 . S
C520 O510 1.264 . S
C520 O514 1.248 . S
C521 O511 1.260 . S
C521 O515 1.253 1_556 S
C522 O513 1.279 . S
C522 O516 1.250 . S
O523 Mg505 2.030 1_554 S
O523 C517 1.248 . S
O524 Mg507 2.079 . S
O524 C517 1.264 . S
O525 Mg526 1.990 . S
O525 C539 1.253 . S
Mg526 O525 1.990 . S
Mg526 O529 2.180 . S
Mg526 O530 2.117 . S
Mg526 O544 2.030 . S
O527 Mg528 2.072 . S
O527 C539 1.260 . S
Mg528 O527 2.072 . S
Mg528 O529 2.099 . S
Mg528 O531 2.079 . S
Mg528 O532 2.072 . S
Mg528 O534 2.099 . S
Mg528 O545 2.079 . S
O529 Mg526 2.180 . S
O529 Mg528 2.099 . S
O529 C540 1.279 . S
O530 Mg526 2.117 . S
O530 C540 1.250 . S
O531 Mg528 2.079 . S
O531 C541 1.264 . S
O532 Mg528 2.072 . S
O532 C542 1.260 . S
Mg533 O534 2.180 . S
Mg533 O535 2.030 . S
Mg533 O536 1.990 . S
Mg533 O537 2.117 . S
O534 Mg528 2.099 . S
O534 Mg533 2.180 . S
O534 C543 1.279 . S
O535 Mg533 2.030 . S
O535 C541 1.248 . S
O536 Mg533 1.990 . S
O536 C542 1.253 . S
O537 Mg533 2.117 . S
O537 C543 1.250 . S
C538 O544 1.248 . S
C538 O545 1.264 . S
C539 O525 1.253 . S
C539 O527 1.260 . S
C540 O529 1.279 . S
C540 O530 1.250 . S
C541 O531 1.264 . S
C541 O535 1.248 . S
C542 O532 1.260 . S
C542 O536 1.253 . S
C543 O534 1.279 . S
C543 O537 1.250 . S
O544 Mg526 2.030 . S
O544 C538 1.248 . S
O545 Mg528 2.079 . S
O545 C538 1.264 . S
O546 Mg547 1.990 . S
O546 C560 1.253 . S
Mg547 O546 1.990 . S
Mg547 O550 2.180 . S
Mg547 O551 2.117 . S
Mg547 O565 2.060 . S
O548 Mg549 2.072 . S
O548 C560 1.260 1_455 S
Mg549 O548 2.072 . S
Mg549 O550 2.099 1_455 S
Mg549 O552 2.079 . S
Mg549 O553 2.072 1_455 S
Mg549 O555 2.099 . S
Mg549 O566 2.079 . S
O550 Mg547 2.180 . S
O550 Mg549 2.099 1_655 S
O550 C561 1.279 . S
O551 Mg547 2.117 . S
O551 C561 1.250 . S
O552 Mg549 2.079 . S
O552 C562 1.264 . S
O553 Mg549 2.072 1_655 S
O553 C563 1.260 . S
Mg554 O555 2.180 . S
Mg554 O556 2.030 . S
Mg554 O557 1.990 . S
Mg554 O558 2.117 . S
O555 Mg549 2.099 . S
O555 Mg554 2.180 . S
O555 C564 1.279 . S
O556 Mg554 2.030 . S
O556 C562 1.248 . S
O557 Mg554 1.990 . S
O557 C563 1.253 1_455 S
O558 Mg554 2.117 . S
O558 C564 1.250 . S
C559 O565 1.222 1_455 S
C559 O566 1.264 . S
C560 O546 1.253 . S
C560 O548 1.260 1_655 S
C561 O550 1.279 . S
C561 O551 1.250 . S
C562 O552 1.264 . S
C562 O556 1.248 . S
C563 O553 1.260 . S
C563 O557 1.253 1_655 S
C564 O555 1.279 . S
C564 O558 1.250 . S
O565 Mg547 2.060 . S
O565 C559 1.222 1_655 S
O566 Mg549 2.079 . S
O566 C559 1.264 . S
O567 Mg568 1.990 . S
O567 C581 1.253 . S
Mg568 O567 1.990 . S
Mg568 O571 2.180 . S
Mg568 O572 2.117 . S
Mg568 O586 2.030 . S
O569 Mg570 2.072 . S
O569 C581 1.260 . S
Mg570 O569 2.072 . S
Mg570 O571 2.099 . S
Mg570 O573 2.079 . S
Mg570 O574 2.072 . S
Mg570 O576 2.099 . S
Mg570 O587 2.079 . S
O571 Mg568 2.180 . S
O571 Mg570 2.099 . S
O571 C582 1.279 . S
O572 Mg568 2.117 . S
O572 C582 1.250 . S
O573 Mg570 2.079 . S
O573 C583 1.264 . S
O574 Mg570 2.072 . S
O574 C584 1.260 . S
Mg575 O576 2.180 . S
Mg575 O577 2.030 . S
Mg575 O578 1.990 . S
Mg575 O579 2.117 . S
O576 Mg570 2.099 . S
O576 Mg575 2.180 . S
O576 C585 1.279 . S
O577 Mg575 2.030 . S
O577 C583 1.248 . S
O578 Mg575 1.990 . S
O578 C584 1.253 . S
O579 Mg575 2.117 . S
O579 C585 1.250 . S
C580 O586 1.248 . S
C580 O587 1.264 . S
C581 O567 1.253 . S
C581 O569 1.260 . S
C582 O571 1.279 . S
C582 O572 1.250 . S
C583 O573 1.264 . S
C583 O577 1.248 . S
C584 O574 1.260 . S
C584 O578 1.253 . S
C585 O576 1.279 . S
C585 O579 1.250 . S
O586 Mg568 2.030 . S
O586 C580 1.248 . S
O587 Mg570 2.079 . S
O587 C580 1.264 . S
O588 Mg589 1.990 . S
O588 C602 1.253 . S
Mg589 O588 1.990 . S
Mg589 O592 2.180 . S
Mg589 O593 2.117 . S
Mg589 O607 2.030 . S
O590 Mg591 2.072 . S
O590 C602 1.260 . S
Mg591 O590 2.072 . S
Mg591 O592 2.099 . S
Mg591 O594 2.079 . S
Mg591 O595 2.072 . S
Mg591 O597 2.099 . S
Mg591 O608 2.079 . S
O592 Mg589 2.180 . S
O592 Mg591 2.099 . S
O592 C603 1.279 . S
O593 Mg589 2.117 . S
O593 C603 1.250 . S
O594 Mg591 2.079 . S
O594 C604 1.264 . S
O595 Mg591 2.072 . S
O595 C605 1.260 . S
Mg596 O597 2.180 . S
Mg596 O598 2.030 . S
Mg596 O599 1.990 . S
Mg596 O600 2.117 . S
O597 Mg591 2.099 . S
O597 Mg596 2.180 . S
O597 C606 1.279 . S
O598 Mg596 2.030 . S
O598 C604 1.248 . S
O599 Mg596 1.990 . S
O599 C605 1.253 . S
O600 Mg596 2.117 . S
O600 C606 1.250 . S
C601 O607 1.248 . S
C601 O608 1.264 . S
C602 O588 1.253 . S
C602 O590 1.260 . S
C603 O592 1.279 . S
C603 O593 1.250 . S
C604 O594 1.264 . S
C604 O598 1.248 . S
C605 O595 1.260 . S
C605 O599 1.253 . S
C606 O597 1.279 . S
C606 O600 1.250 . S
O607 Mg589 2.030 . S
O607 C601 1.248 . S
O608 Mg591 2.079 . S
O608 C601 1.264 . S
O609 Mg610 1.990 . S
O609 C623 1.253 . S
Mg610 O609 1.990 . S
Mg610 O613 2.180 . S
Mg610 O614 2.117 . S
Mg610 O628 2.030 . S
O611 Mg612 2.072 . S
O611 C623 1.260 . S
Mg612 O611 2.072 . S
Mg612 O613 2.099 . S
Mg612 O615 2.079 . S
Mg612 O616 2.072 . S
Mg612 O618 2.099 . S
Mg612 O629 2.079 . S
O613 Mg610 2.180 . S
O613 Mg612 2.099 . S
O613 C624 1.279 . S
O614 Mg610 2.117 . S
O614 C624 1.250 . S
O615 Mg612 2.079 . S
O615 C625 1.264 . S
O616 Mg612 2.072 . S
O616 C626 1.260 . S
Mg617 O618 2.180 . S
Mg617 O619 2.030 . S
Mg617 O620 1.990 . S
Mg617 O621 2.117 . S
O618 Mg612 2.099 . S
O618 Mg617 2.180 . S
O618 C627 1.279 . S
O619 Mg617 2.030 . S
O619 C625 1.248 . S
O620 Mg617 1.990 . S
O620 C626 1.253 . S
O621 Mg617 2.117 . S
O621 C627 1.250 . S
C622 O628 1.248 . S
C622 O629 1.264 . S
C623 O609 1.253 . S
C623 O611 1.260 . S
C624 O613 1.279 . S
C624 O614 1.250 . S
C625 O615 1.264 . S
C625 O619 1.248 . S
C626 O616 1.260 . S
C626 O620 1.253 . S
C627 O618 1.279 . S
C627 O621 1.250 . S
O628 Mg610 2.030 . S
O628 C622 1.248 . S
O629 Mg612 2.079 . S
O629 C622 1.264 . S
O630 Mg631 1.990 . S
O630 C644 1.253 . S
Mg631 O630 1.990 . S
Mg631 O634 2.180 . S
Mg631 O635 2.117 . S
Mg631 O649 2.030 . S
O632 Mg633 2.072 . S
O632 C644 1.260 . S
Mg633 O632 2.072 . S
Mg633 O634 2.099 . S
Mg633 O636 2.079 . S
Mg633 O637 2.072 . S
Mg633 O639 2.099 . S
Mg633 O650 2.079 . S
O634 Mg631 2.180 . S
O634 Mg633 2.099 . S
O634 C645 1.279 . S
O635 Mg631 2.117 . S
O635 C645 1.250 . S
O636 Mg633 2.079 . S
O636 C646 1.264 . S
O637 Mg633 2.072 . S
O637 C647 1.260 . S
Mg638 O639 2.180 . S
Mg638 O640 2.030 . S
Mg638 O641 1.990 . S
Mg638 O642 2.117 . S
O639 Mg633 2.099 . S
O639 Mg638 2.180 . S
O639 C648 1.279 . S
O640 Mg638 2.030 . S
O640 C646 1.248 . S
O641 Mg638 1.990 . S
O641 C647 1.253 . S
O642 Mg638 2.117 . S
O642 C648 1.250 . S
C643 O649 1.248 . S
C643 O650 1.264 . S
C644 O630 1.253 . S
C644 O632 1.260 . S
C645 O634 1.279 . S
C645 O635 1.250 . S
C646 O636 1.264 . S
C646 O640 1.248 . S
C647 O637 1.260 . S
C647 O641 1.253 . S
C648 O639 1.279 . S
C648 O642 1.250 . S
O649 Mg631 2.030 . S
O649 C643 1.248 . S
O650 Mg633 2.079 . S
O650 C643 1.264 . S
O651 Mg652 1.990 . S
O651 C665 1.253 . S
Mg652 O651 1.990 . S
Mg652 O655 2.180 1_556 S
Mg652 O656 2.117 1_556 S
Mg652 O670 2.030 . S
O653 Mg654 2.072 1_556 S
O653 C665 1.260 . S
Mg654 O653 2.072 1_554 S
Mg654 O655 2.099 . S
Mg654 O657 2.069 1_455 S
Mg654 O658 2.066 1_454 S
Mg654 O660 2.091 1_454 S
Mg654 O671 2.079 . S
O655 Mg652 2.180 1_554 S
O655 Mg654 2.099 . S
O655 C666 1.279 . S
O656 Mg652 2.117 1_554 S
O656 C666 1.250 . S
O657 Mg654 2.069 1_655 S
O657 C667 1.296 . S
O658 Mg654 2.066 1_656 S
O658 C668 1.266 . S
Mg659 O660 2.169 1_554 S
Mg659 O661 2.030 . S
Mg659 O662 1.990 1_554 S
Mg659 O663 2.117 1_554 S
O660 Mg654 2.091 1_656 S
O660 Mg659 2.169 1_556 S
O660 C669 1.305 . S
O661 Mg659 2.030 . S
O661 C667 1.248 . S
O662 Mg659 1.990 1_556 S
O662 C668 1.253 . S
O663 Mg659 2.117 1_556 S
O663 C669 1.250 . S
C664 O670 1.248 1_554 S
C664 O671 1.264 . S
C665 O651 1.253 . S
C665 O653 1.260 . S
C666 O655 1.279 . S
C666 O656 1.250 . S
C667 O657 1.296 . S
C667 O661 1.248 . S
C668 O658 1.266 . S
C668 O662 1.253 . S
C669 O660 1.305 . S
C669 O663 1.250 . S
O670 Mg652 2.030 . S
O670 C664 1.248 1_556 S
O671 Mg654 2.079 . S
O671 C664 1.264 . S
H672 C684 0.930 . S
H673 C686 0.930 . S
H674 C687 0.930 . S
H675 C691 0.959 . S
H676 C691 0.959 . S
H677 C691 0.961 . S
H678 C692 0.960 . S
H679 C692 0.991 . S
H680 C692 0.959 1_455 S
H681 C695 0.929 . S
H682 C696 0.931 . S
H683 C698 0.930 . S
C684 H672 0.930 . S
C684 C685 1.399 1_655 S
C684 C689 1.399 . S
C685 C684 1.399 1_455 S
C685 C686 1.376 . S
C686 H673 0.930 . S
C686 C685 1.376 . S
C686 C687 1.388 . S
C687 H674 0.930 . S
C687 C686 1.388 . S
C687 C688 1.390 . S
C688 C687 1.390 . S
C688 C689 1.394 1_455 S
C688 C694 1.465 . S
C689 C684 1.399 . S
C689 C688 1.394 1_655 S
C689 C690 1.516 . S
C690 C689 1.516 . S
C690 C691 1.502 . S
C690 C692 1.561 . S
C690 C693 1.526 . S
C691 H675 0.959 . S
C691 H676 0.959 . S
C691 H677 0.961 . S
C691 C690 1.502 . S
C692 H678 0.960 . S
C692 H679 0.991 . S
C692 H680 0.959 1_655 S
C692 C690 1.561 . S
C693 C690 1.526 . S
C693 C694 1.396 1_655 S
C693 C698 1.390 . S
C694 C688 1.465 . S
C694 C693 1.396 1_455 S
C694 C695 1.399 . S
C695 H681 0.929 . S
C695 C694 1.399 . S
C695 C696 1.385 . S
C696 H682 0.931 . S
C696 C695 1.385 . S
C696 C697 1.383 1_455 S
C697 C696 1.383 1_655 S
C697 C698 1.391 . S
C698 H683 0.930 . S
C698 C693 1.390 . S
C698 C697 1.391 . S
H699 C711 0.930 . S
H700 C713 0.930 . S
H701 C714 0.930 . S
H702 C718 0.959 . S
H703 C718 0.959 . S
H704 C718 0.961 . S
H705 C719 0.960 . S
H706 C719 0.961 . S
H707 C719 0.959 . S
H708 C722 0.929 . S
H709 C723 0.931 . S
H710 C725 0.930 . S
C711 H699 0.930 . S
C711 C712 1.399 . S
C711 C716 1.399 . S
C712 C711 1.399 . S
C712 C713 1.376 . S
C713 H700 0.930 . S
C713 C712 1.376 . S
C713 C714 1.388 . S
C714 H701 0.930 . S
C714 C713 1.388 . S
C714 C715 1.390 . S
C715 C714 1.390 . S
C715 C716 1.394 . S
C715 C721 1.465 . S
C716 C711 1.399 . S
C716 C715 1.394 . S
C716 C717 1.516 . S
C717 C716 1.516 . S
C717 C718 1.502 . S
C717 C719 1.561 . S
C717 C720 1.526 . S
C718 H702 0.959 . S
C718 H703 0.959 . S
C718 H704 0.961 . S
C718 C717 1.502 . S
C719 H705 0.960 . S
C719 H706 0.961 . S
C719 H707 0.959 . S
C719 C717 1.561 . S
C720 C717 1.526 . S
C720 C721 1.396 . S
C720 C725 1.390 . S
C721 C715 1.465 . S
C721 C720 1.396 . S
C721 C722 1.399 . S
C722 H708 0.929 . S
C722 C721 1.399 . S
C722 C723 1.385 . S
C723 H709 0.931 . S
C723 C722 1.385 . S
C723 C724 1.389 . S
C724 C723 1.389 . S
C724 C725 1.387 . S
C725 H710 0.930 . S
C725 C720 1.390 . S
C725 C724 1.387 . S
H726 C738 0.930 . S
H727 C740 0.930 . S
H728 C741 0.930 . S
H729 C745 0.959 . S
H730 C745 0.959 . S
H731 C745 0.961 . S
H732 C746 0.960 . S
H733 C746 0.961 . S
H734 C746 0.959 . S
H735 C749 0.929 . S
H736 C750 0.931 . S
H737 C752 0.930 . S
C738 H726 0.930 . S
C738 C739 1.399 . S
C738 C743 1.399 . S
C739 C738 1.399 . S
C739 C740 1.376 . S
C740 H727 0.930 . S
C740 C739 1.376 . S
C740 C741 1.388 . S
C741 H728 0.930 . S
C741 C740 1.388 . S
C741 C742 1.390 . S
C742 C741 1.390 . S
C742 C743 1.394 . S
C742 C748 1.465 . S
C743 C738 1.399 . S
C743 C742 1.394 . S
C743 C744 1.516 . S
C744 C743 1.516 . S
C744 C745 1.502 . S
C744 C746 1.561 . S
C744 C747 1.526 . S
C745 H729 0.959 . S
C745 H730 0.959 . S
C745 H731 0.961 . S
C745 C744 1.502 . S
C746 H732 0.960 . S
C746 H733 0.961 . S
C746 H734 0.959 . S
C746 C744 1.561 . S
C747 C744 1.526 . S
C747 C748 1.396 . S
C747 C752 1.390 . S
C748 C742 1.465 . S
C748 C747 1.396 . S
C748 C749 1.399 . S
C749 H735 0.929 . S
C749 C748 1.399 . S
C749 C750 1.385 . S
C750 H736 0.931 . S
C750 C749 1.385 . S
C750 C751 1.389 . S
C751 C750 1.389 . S
C751 C752 1.387 . S
C752 H737 0.930 . S
C752 C747 1.390 . S
C752 C751 1.387 . S
H753 C765 0.930 . S
H754 C767 0.930 . S
H755 C768 0.930 . S
H756 C772 0.959 . S
H757 C772 0.959 . S
H758 C772 0.961 . S
H759 C773 0.960 . S
H760 C773 0.961 . S
H761 C773 0.959 . S
H762 C776 0.929 . S
H763 C777 0.931 . S
H764 C779 0.930 . S
C765 H753 0.930 . S
C765 C766 1.399 . S
C765 C770 1.399 . S
C766 C765 1.399 . S
C766 C767 1.376 . S
C767 H754 0.930 . S
C767 C766 1.376 . S
C767 C768 1.388 . S
C768 H755 0.930 . S
C768 C767 1.388 . S
C768 C769 1.390 . S
C769 C768 1.390 . S
C769 C770 1.394 . S
C769 C775 1.465 . S
C770 C765 1.399 . S
C770 C769 1.394 . S
C770 C771 1.516 . S
C771 C770 1.516 . S
C771 C772 1.502 . S
C771 C773 1.561 . S
C771 C774 1.526 . S
C772 H756 0.959 . S
C772 H757 0.959 . S
C772 H758 0.961 . S
C772 C771 1.502 . S
C773 H759 0.960 . S
C773 H760 0.961 . S
C773 H761 0.959 . S
C773 C771 1.561 . S
C774 C771 1.526 . S
C774 C775 1.396 . S
C774 C779 1.390 . S
C775 C769 1.465 . S
C775 C774 1.396 . S
C775 C776 1.399 . S
C776 H762 0.929 . S
C776 C775 1.399 . S
C776 C777 1.385 . S
C777 H763 0.931 . S
C777 C776 1.385 . S
C777 C778 1.389 . S
C778 C777 1.389 . S
C778 C779 1.387 . S
C779 H764 0.930 . S
C779 C774 1.390 . S
C779 C778 1.387 . S
H780 C792 0.930 . S
H781 C794 0.928 1_655 S
H782 C795 0.930 . S
H783 C799 0.959 . S
H784 C799 0.959 . S
H785 C799 0.961 . S
H786 C800 0.960 . S
H787 C800 0.961 . S
H788 C800 0.959 . S
H789 C803 0.929 . S
H790 C804 0.931 . S
H791 C806 0.930 . S
C792 H780 0.930 . S
C792 C793 1.399 . S
C792 C797 1.399 . S
C793 C792 1.399 . S
C793 C794 1.376 . S
C794 H781 0.928 1_455 S
C794 C793 1.376 . S
C794 C795 1.388 1_455 S
C795 H782 0.930 . S
C795 C794 1.388 1_655 S
C795 C796 1.390 1_655 S
C796 C795 1.390 1_455 S
C796 C797 1.394 . S
C796 C802 1.465 . S
C797 C792 1.399 . S
C797 C796 1.394 . S
C797 C798 1.516 . S
C798 C797 1.516 . S
C798 C799 1.502 . S
C798 C800 1.561 1_455 S
C798 C801 1.526 . S
C799 H783 0.959 . S
C799 H784 0.959 . S
C799 H785 0.961 . S
C799 C798 1.502 . S
C800 H786 0.960 . S
C800 H787 0.961 . S
C800 H788 0.959 . S
C800 C798 1.561 1_655 S
C801 C798 1.526 . S
C801 C802 1.396 . S
C801 C806 1.390 . S
C802 C796 1.465 . S
C802 C801 1.396 . S
C802 C803 1.399 1_455 S
C803 H789 0.929 . S
C803 C802 1.399 1_655 S
C803 C804 1.385 . S
C804 H790 0.931 . S
C804 C803 1.385 . S
C804 C805 1.389 1_655 S
C805 C804 1.389 1_455 S
C805 C806 1.387 . S
C806 H791 0.930 . S
C806 C801 1.390 . S
C806 C805 1.387 . S
H807 C819 0.930 . S
H808 C821 0.930 . S
H809 C822 0.930 . S
H810 C826 0.959 . S
H811 C826 0.959 . S
H812 C826 0.961 . S
H813 C827 0.960 . S
H814 C827 0.961 . S
H815 C827 0.959 . S
H816 C830 0.929 . S
H817 C831 0.931 . S
H818 C833 0.930 . S
C819 H807 0.930 . S
C819 C820 1.399 . S
C819 C824 1.399 . S
C820 C819 1.399 . S
C820 C821 1.376 . S
C821 H808 0.930 . S
C821 C820 1.376 . S
C821 C822 1.388 . S
C822 H809 0.930 . S
C822 C821 1.388 . S
C822 C823 1.390 . S
C823 C822 1.390 . S
C823 C824 1.394 . S
C823 C829 1.465 . S
C824 C819 1.399 . S
C824 C823 1.394 . S
C824 C825 1.516 . S
C825 C824 1.516 . S
C825 C826 1.502 . S
C825 C827 1.561 . S
C825 C828 1.526 . S
C826 H810 0.959 . S
C826 H811 0.959 . S
C826 H812 0.961 . S
C826 C825 1.502 . S
C827 H813 0.960 . S
C827 H814 0.961 . S
C827 H815 0.959 . S
C827 C825 1.561 . S
C828 C825 1.526 . S
C828 C829 1.396 . S
C828 C833 1.390 . S
C829 C823 1.465 . S
C829 C828 1.396 . S
C829 C830 1.399 . S
C830 H816 0.929 . S
C830 C829 1.399 . S
C830 C831 1.385 . S
C831 H817 0.931 . S
C831 C830 1.385 . S
C831 C832 1.389 . S
C832 C831 1.389 . S
C832 C833 1.387 . S
C833 H818 0.930 . S
C833 C828 1.390 . S
C833 C832 1.387 . S
H834 C846 0.930 . S
H835 C848 0.930 . S
H836 C849 0.930 . S
H837 C853 0.959 . S
H838 C853 0.959 1_554 S
H839 C853 0.961 . S
H840 C854 0.960 . S
H841 C854 0.961 1_554 S
H842 C854 0.959 . S
H843 C857 0.929 . S
H844 C858 0.931 . S
H845 C860 0.954 . S
C846 H834 0.930 . S
C846 C847 1.399 . S
C846 C851 1.399 . S
C847 C846 1.399 . S
C847 C848 1.376 . S
C848 H835 0.930 . S
C848 C847 1.376 . S
C848 C849 1.388 . S
C849 H836 0.930 . S
C849 C848 1.388 . S
C849 C850 1.390 . S
C850 C849 1.390 . S
C850 C851 1.394 . S
C850 C856 1.465 . S
C851 C846 1.399 . S
C851 C850 1.394 . S
C851 C852 1.516 . S
C852 C851 1.516 . S
C852 C853 1.502 . S
C852 C854 1.561 . S
C852 C855 1.526 . S
C853 H837 0.959 . S
C853 H838 0.959 1_556 S
C853 H839 0.961 . S
C853 C852 1.502 . S
C854 H840 0.960 . S
C854 H841 0.961 1_556 S
C854 H842 0.959 . S
C854 C852 1.561 . S
C855 C852 1.526 . S
C855 C856 1.396 . S
C855 C860 1.390 . S
C856 C850 1.465 . S
C856 C855 1.396 . S
C856 C857 1.399 . S
C857 H843 0.929 . S
C857 C856 1.399 . S
C857 C858 1.385 . S
C858 H844 0.931 . S
C858 C857 1.385 . S
C858 C859 1.389 . S
C859 C858 1.389 . S
C859 C860 1.387 . S
C860 H845 0.954 . S
C860 C855 1.390 . S
C860 C859 1.387 . S
H861 C873 0.930 . S
H862 C875 0.930 . S
H863 C876 0.930 . S
H864 C880 0.959 . S
H865 C880 0.959 . S
H866 C880 0.961 . S
H867 C881 0.960 . S
H868 C881 0.961 . S
H869 C881 0.959 . S
H870 C884 0.929 . S
H871 C885 0.931 . S
H872 C887 0.930 . S
C873 H861 0.930 . S
C873 C874 1.399 . S
C873 C878 1.399 . S
C874 C873 1.399 . S
C874 C875 1.376 . S
C875 H862 0.930 . S
C875 C874 1.376 . S
C875 C876 1.388 . S
C876 H863 0.930 . S
C876 C875 1.388 . S
C876 C877 1.390 . S
C877 C876 1.390 . S
C877 C878 1.394 . S
C877 C883 1.465 . S
C878 C873 1.399 . S
C878 C877 1.394 . S
C878 C879 1.516 . S
C879 C878 1.516 . S
C879 C880 1.502 . S
C879 C881 1.561 . S
C879 C882 1.526 . S
C880 H864 0.959 . S
C880 H865 0.959 . S
C880 H866 0.961 . S
C880 C879 1.502 . S
C881 H867 0.960 . S
C881 H868 0.961 . S
C881 H869 0.959 . S
C881 C879 1.561 . S
C882 C879 1.526 . S
C882 C883 1.396 . S
C882 C887 1.390 . S
C883 C877 1.465 . S
C883 C882 1.396 . S
C883 C884 1.399 . S
C884 H870 0.929 . S
C884 C883 1.399 . S
C884 C885 1.385 . S
C885 H871 0.931 . S
C885 C884 1.385 . S
C885 C886 1.389 . S
C886 C885 1.389 . S
C886 C887 1.387 . S
C887 H872 0.930 . S
C887 C882 1.390 . S
C887 C886 1.387 . S
H888 C900 0.930 . S
H889 C902 0.930 . S
H890 C903 0.930 . S
H891 C907 0.959 . S
H892 C907 0.959 . S
H893 C907 0.961 . S
H894 C908 0.960 . S
H895 C908 0.961 . S
H896 C908 0.959 . S
H897 C911 0.929 . S
H898 C912 0.931 . S
H899 C914 0.930 . S
C900 H888 0.930 . S
C900 C901 1.399 1_565 S
C900 C905 1.399 . S
C901 C900 1.399 1_545 S
C901 C902 1.376 . S
C902 H889 0.930 . S
C902 C901 1.376 . S
C902 C903 1.388 . S
C903 H890 0.930 . S
C903 C902 1.388 . S
C903 C904 1.390 . S
C904 C903 1.390 . S
C904 C905 1.394 1_545 S
C904 C910 1.465 . S
C905 C900 1.399 . S
C905 C904 1.394 1_565 S
C905 C906 1.516 . S
C906 C905 1.516 . S
C906 C907 1.502 . S
C906 C908 1.561 . S
C906 C909 1.526 . S
C907 H891 0.959 . S
C907 H892 0.959 . S
C907 H893 0.961 . S
C907 C906 1.502 . S
C908 H894 0.960 . S
C908 H895 0.961 . S
C908 H896 0.959 . S
C908 C906 1.561 . S
C909 C906 1.526 . S
C909 C910 1.396 1_565 S
C909 C914 1.390 . S
C910 C904 1.465 . S
C910 C909 1.396 1_545 S
C910 C911 1.399 . S
C911 H897 0.929 . S
C911 C910 1.399 . S
C911 C912 1.385 . S
C912 H898 0.931 . S
C912 C911 1.385 . S
C912 C913 1.389 1_545 S
C913 C912 1.389 1_565 S
C913 C914 1.387 . S
C914 H899 0.930 . S
C914 C909 1.390 . S
C914 C913 1.387 . S
H915 C927 0.930 . S
H916 C929 0.930 . S
H917 C930 0.930 . S
H918 C934 0.959 . S
H919 C934 0.959 . S
H920 C934 0.961 . S
H921 C935 0.960 . S
H922 C935 0.961 . S
H923 C935 0.959 . S
H924 C938 0.929 . S
H925 C939 0.931 . S
H926 C941 0.930 . S
C927 H915 0.930 . S
C927 C928 1.399 . S
C927 C932 1.399 . S
C928 C927 1.399 . S
C928 C929 1.376 . S
C929 H916 0.930 . S
C929 C928 1.376 . S
C929 C930 1.388 . S
C930 H917 0.930 . S
C930 C929 1.388 . S
C930 C931 1.390 . S
C931 C930 1.390 . S
C931 C932 1.394 . S
C931 C937 1.465 . S
C932 C927 1.399 . S
C932 C931 1.394 . S
C932 C933 1.516 . S
C933 C932 1.516 . S
C933 C934 1.502 . S
C933 C935 1.561 . S
C933 C936 1.526 . S
C934 H918 0.959 . S
C934 H919 0.959 . S
C934 H920 0.961 . S
C934 C933 1.502 . S
C935 H921 0.960 . S
C935 H922 0.961 . S
C935 H923 0.959 . S
C935 C933 1.561 . S
C936 C933 1.526 . S
C936 C937 1.396 . S
C936 C941 1.390 . S
C937 C931 1.465 . S
C937 C936 1.396 . S
C937 C938 1.399 . S
C938 H924 0.929 . S
C938 C937 1.399 . S
C938 C939 1.385 . S
C939 H925 0.931 . S
C939 C938 1.385 . S
C939 C940 1.389 . S
C940 C939 1.389 . S
C940 C941 1.387 . S
C941 H926 0.930 . S
C941 C936 1.390 . S
C941 C940 1.387 . S
H942 C954 0.930 . S
H943 C956 0.930 . S
H944 C957 0.930 . S
H945 C961 0.959 . S
H946 C961 0.959 . S
H947 C961 0.961 . S
H948 C962 0.960 . S
H949 C962 0.961 . S
H950 C962 0.959 . S
H951 C965 0.929 . S
H952 C966 0.931 . S
H953 C968 0.930 . S
C954 H942 0.930 . S
C954 C955 1.399 1_565 S
C954 C959 1.399 . S
C955 C954 1.399 1_545 S
C955 C956 1.376 . S
C956 H943 0.930 . S
C956 C955 1.376 . S
C956 C957 1.388 . S
C957 H944 0.930 . S
C957 C956 1.388 . S
C957 C958 1.390 . S
C958 C957 1.390 . S
C958 C959 1.394 1_545 S
C958 C964 1.465 . S
C959 C954 1.399 . S
C959 C958 1.394 1_565 S
C959 C960 1.516 . S
C960 C959 1.516 . S
C960 C961 1.502 . S
C960 C962 1.561 . S
C960 C963 1.549 . S
C961 H945 0.959 . S
C961 H946 0.959 . S
C961 H947 0.961 . S
C961 C960 1.502 . S
C962 H948 0.960 . S
C962 H949 0.961 . S
C962 H950 0.959 . S
C962 C960 1.561 . S
C963 C960 1.549 . S
C963 C964 1.370 1_565 S
C963 C968 1.391 . S
C964 C958 1.465 . S
C964 C963 1.370 1_545 S
C964 C965 1.399 . S
C965 H951 0.929 . S
C965 C964 1.399 . S
C965 C966 1.385 . S
C966 H952 0.931 . S
C966 C965 1.385 . S
C966 C967 1.389 . S
C967 C966 1.389 . S
C967 C968 1.387 1_545 S
C968 H953 0.930 . S
C968 C963 1.391 . S
C968 C967 1.387 1_565 S
H969 C981 0.930 . S
H970 C983 0.930 . S
H971 C984 0.930 . S
H972 C988 0.959 . S
H973 C988 0.959 . S
H974 C988 0.961 . S
H975 C989 0.960 . S
H976 C989 0.961 . S
H977 C989 0.959 . S
H978 C992 0.929 . S
H979 C993 0.931 . S
H980 C995 0.930 . S
C981 H969 0.930 . S
C981 C982 1.399 . S
C981 C986 1.399 . S
C982 C981 1.399 . S
C982 C983 1.376 . S
C983 H970 0.930 . S
C983 C982 1.376 . S
C983 C984 1.388 . S
C984 H971 0.930 . S
C984 C983 1.388 . S
C984 C985 1.390 . S
C985 C984 1.390 . S
C985 C986 1.394 . S
C985 C991 1.465 . S
C986 C981 1.399 . S
C986 C985 1.394 . S
C986 C987 1.516 . S
C987 C986 1.516 . S
C987 C988 1.502 . S
C987 C989 1.561 . S
C987 C990 1.526 . S
C988 H972 0.959 . S
C988 H973 0.959 . S
C988 H974 0.961 . S
C988 C987 1.502 . S
C989 H975 0.960 . S
C989 H976 0.961 . S
C989 H977 0.959 . S
C989 C987 1.561 . S
C990 C987 1.526 . S
C990 C991 1.396 . S
C990 C995 1.390 . S
C991 C985 1.465 . S
C991 C990 1.396 . S
C991 C992 1.399 . S
C992 H978 0.929 . S
C992 C991 1.399 . S
C992 C993 1.385 . S
C993 H979 0.931 . S
C993 C992 1.385 . S
C993 C994 1.389 . S
C994 C993 1.389 . S
C994 C995 1.387 . S
C995 H980 0.930 . S
C995 C990 1.390 . S
C995 C994 1.387 . S
H996 C1008 0.930 . S
H997 C1010 0.930 . S
H998 C1011 0.930 . S
H999 C1015 0.959 . S
H1000 C1015 0.959 . S
H1001 C1015 0.961 . S
H1002 C1016 0.960 . S
H1003 C1016 0.961 . S
H1004 C1016 0.959 . S
H1005 C1019 0.929 . S
H1006 C1020 0.931 . S
H1007 C1022 0.930 . S
C1008 H996 0.930 . S
C1008 C1009 1.399 . S
C1008 C1013 1.399 . S
C1009 C1008 1.399 . S
C1009 C1010 1.376 1_545 S
C1010 H997 0.930 . S
C1010 C1009 1.376 1_565 S
C1010 C1011 1.388 . S
C1011 H998 0.930 . S
C1011 C1010 1.388 . S
C1011 C1012 1.390 . S
C1012 C1011 1.390 . S
C1012 C1013 1.394 1_565 S
C1012 C1018 1.465 . S
C1013 C1008 1.399 . S
C1013 C1012 1.394 1_545 S
C1013 C1014 1.516 . S
C1014 C1013 1.516 . S
C1014 C1015 1.502 . S
C1014 C1016 1.561 . S
C1014 C1017 1.526 . S
C1015 H999 0.959 . S
C1015 H1000 0.959 . S
C1015 H1001 0.961 . S
C1015 C1014 1.502 . S
C1016 H1002 0.960 . S
C1016 H1003 0.961 . S
C1016 H1004 0.959 . S
C1016 C1014 1.561 . S
C1017 C1014 1.526 . S
C1017 C1018 1.396 1_545 S
C1017 C1022 1.390 . S
C1018 C1012 1.465 . S
C1018 C1017 1.396 1_565 S
C1018 C1019 1.399 . S
C1019 H1005 0.929 . S
C1019 C1018 1.399 . S
C1019 C1020 1.385 . S
C1020 H1006 0.931 . S
C1020 C1019 1.385 . S
C1020 C1021 1.389 1_565 S
C1021 C1020 1.389 1_545 S
C1021 C1022 1.387 . S
C1022 H1007 0.930 . S
C1022 C1017 1.390 . S
C1022 C1021 1.387 . S
H1023 C1035 0.930 . S
H1024 C1037 0.930 . S
H1025 C1038 0.930 . S
H1026 C1042 0.959 . S
H1027 C1042 0.959 . S
H1028 C1042 0.961 . S
H1029 C1043 0.960 . S
H1030 C1043 0.961 . S
H1031 C1043 0.959 . S
H1032 C1046 0.929 . S
H1033 C1047 0.931 . S
H1034 C1049 0.930 . S
C1035 H1023 0.930 . S
C1035 C1036 1.399 . S
C1035 C1040 1.399 . S
C1036 C1035 1.399 . S
C1036 C1037 1.376 . S
C1037 H1024 0.930 . S
C1037 C1036 1.376 . S
C1037 C1038 1.388 . S
C1038 H1025 0.930 . S
C1038 C1037 1.388 . S
C1038 C1039 1.390 . S
C1039 C1038 1.390 . S
C1039 C1040 1.394 . S
C1039 C1045 1.465 . S
C1040 C1035 1.399 . S
C1040 C1039 1.394 . S
C1040 C1041 1.516 . S
C1041 C1040 1.516 . S
C1041 C1042 1.502 . S
C1041 C1043 1.561 . S
C1041 C1044 1.526 . S
C1042 H1026 0.959 . S
C1042 H1027 0.959 . S
C1042 H1028 0.961 . S
C1042 C1041 1.502 . S
C1043 H1029 0.960 . S
C1043 H1030 0.961 . S
C1043 H1031 0.959 . S
C1043 C1041 1.561 . S
C1044 C1041 1.526 . S
C1044 C1045 1.396 . S
C1044 C1049 1.390 . S
C1045 C1039 1.465 . S
C1045 C1044 1.396 . S
C1045 C1046 1.399 . S
C1046 H1032 0.929 . S
C1046 C1045 1.399 . S
C1046 C1047 1.385 . S
C1047 H1033 0.931 . S
C1047 C1046 1.385 . S
C1047 C1048 1.389 . S
C1048 C1047 1.389 . S
C1048 C1049 1.387 . S
C1049 H1034 0.930 . S
C1049 C1044 1.390 . S
C1049 C1048 1.387 . S
H1050 C1062 0.930 . S
H1051 C1064 0.930 . S
H1052 C1065 0.930 . S
H1053 C1069 0.959 . S
H1054 C1069 0.959 . S
H1055 C1069 0.961 . S
H1056 C1070 0.960 . S
H1057 C1070 0.961 . S
H1058 C1070 0.959 . S
H1059 C1073 0.929 . S
H1060 C1074 0.931 . S
H1061 C1076 0.930 . S
C1062 H1050 0.930 . S
C1062 C1063 1.399 . S
C1062 C1067 1.399 . S
C1063 C1062 1.399 . S
C1063 C1064 1.376 1_545 S
C1064 H1051 0.930 . S
C1064 C1063 1.376 1_565 S
C1064 C1065 1.388 . S
C1065 H1052 0.930 . S
C1065 C1064 1.388 . S
C1065 C1066 1.390 . S
C1066 C1065 1.390 . S
C1066 C1067 1.394 1_565 S
C1066 C1072 1.465 . S
C1067 C1062 1.399 . S
C1067 C1066 1.394 1_545 S
C1067 C1068 1.516 . S
C1068 C1067 1.516 . S
C1068 C1069 1.502 . S
C1068 C1070 1.561 . S
C1068 C1071 1.526 . S
C1069 H1053 0.959 . S
C1069 H1054 0.959 . S
C1069 H1055 0.961 . S
C1069 C1068 1.502 . S
C1070 H1056 0.960 . S
C1070 H1057 0.961 . S
C1070 H1058 0.959 . S
C1070 C1068 1.561 . S
C1071 C1068 1.526 . S
C1071 C1072 1.396 1_545 S
C1071 C1076 1.390 . S
C1072 C1066 1.465 . S
C1072 C1071 1.396 1_565 S
C1072 C1073 1.399 . S
C1073 H1059 0.929 . S
C1073 C1072 1.399 . S
C1073 C1074 1.385 . S
C1074 H1060 0.931 . S
C1074 C1073 1.385 . S
C1074 C1075 1.389 . S
C1075 C1074 1.389 . S
C1075 C1076 1.387 1_565 S
C1076 H1061 0.930 . S
C1076 C1071 1.390 . S
C1076 C1075 1.387 1_545 S
H1077 C1089 0.930 . S
H1078 C1091 0.930 . S
H1079 C1092 0.930 . S
H1080 C1096 0.959 . S
H1081 C1096 0.959 . S
H1082 C1096 0.961 . S
H1083 C1097 0.960 . S
H1084 C1097 0.961 . S
H1085 C1097 0.959 . S
H1086 C1100 0.929 . S
H1087 C1101 0.931 . S
H1088 C1103 0.930 . S
C1089 H1077 0.930 . S
C1089 C1090 1.399 . S
C1089 C1094 1.399 . S
C1090 C1089 1.399 . S
C1090 C1091 1.376 . S
C1091 H1078 0.930 . S
C1091 C1090 1.376 . S
C1091 C1092 1.388 . S
C1092 H1079 0.930 . S
C1092 C1091 1.388 . S
C1092 C1093 1.390 . S
C1093 C1092 1.390 . S
C1093 C1094 1.394 . S
C1093 C1099 1.465 . S
C1094 C1089 1.399 . S
C1094 C1093 1.394 . S
C1094 C1095 1.516 . S
C1095 C1094 1.516 . S
C1095 C1096 1.502 . S
C1095 C1097 1.561 . S
C1095 C1098 1.526 . S
C1096 H1080 0.959 . S
C1096 H1081 0.959 . S
C1096 H1082 0.961 . S
C1096 C1095 1.502 . S
C1097 H1083 0.960 . S
C1097 H1084 0.961 . S
C1097 H1085 0.959 . S
C1097 C1095 1.561 . S
C1098 C1095 1.526 . S
C1098 C1099 1.396 . S
C1098 C1103 1.390 . S
C1099 C1093 1.465 . S
C1099 C1098 1.396 . S
C1099 C1100 1.399 . S
C1100 H1086 0.929 . S
C1100 C1099 1.399 . S
C1100 C1101 1.385 . S
C1101 H1087 0.931 . S
C1101 C1100 1.385 . S
C1101 C1102 1.389 . S
C1102 C1101 1.389 . S
C1102 C1103 1.387 . S
C1103 H1088 0.930 . S
C1103 C1098 1.390 . S
C1103 C1102 1.387 . S
H1104 C1116 0.930 . S
H1105 C1118 0.930 . S
H1106 C1119 0.930 . S
H1107 C1123 0.959 . S
H1108 C1123 0.951 1_565 S
H1109 C1123 0.961 . S
H1110 C1124 0.960 . S
H1111 C1124 0.961 . S
H1112 C1124 0.959 . S
H1113 C1127 0.929 . S
H1114 C1128 0.931 . S
H1115 C1130 0.930 . S
C1116 H1104 0.930 . S
C1116 C1117 1.399 . S
C1116 C1121 1.399 . S
C1117 C1116 1.399 . S
C1117 C1118 1.376 1_554 S
C1118 H1105 0.930 . S
C1118 C1117 1.376 1_556 S
C1118 C1119 1.388 . S
C1119 H1106 0.930 . S
C1119 C1118 1.388 . S
C1119 C1120 1.390 1_556 S
C1120 C1119 1.390 1_554 S
C1120 C1121 1.394 . S
C1120 C1126 1.463 1_554 S
C1121 C1116 1.399 . S
C1121 C1120 1.394 . S
C1121 C1122 1.516 . S
C1122 C1121 1.516 . S
C1122 C1123 1.502 . S
C1122 C1124 1.561 . S
C1122 C1125 1.526 . S
C1123 H1107 0.959 . S
C1123 H1108 0.951 1_545 S
C1123 H1109 0.961 . S
C1123 C1122 1.502 . S
C1124 H1110 0.960 . S
C1124 H1111 0.961 . S
C1124 H1112 0.959 . S
C1124 C1122 1.561 . S
C1125 C1122 1.526 . S
C1125 C1126 1.378 1_554 S
C1125 C1130 1.390 . S
C1126 C1120 1.463 1_556 S
C1126 C1125 1.378 1_556 S
C1126 C1127 1.416 . S
C1127 H1113 0.929 . S
C1127 C1126 1.416 . S
C1127 C1128 1.385 . S
C1128 H1114 0.931 . S
C1128 C1127 1.385 . S
C1128 C1129 1.389 . S
C1129 C1128 1.389 . S
C1129 C1130 1.387 1_556 S
C1130 H1115 0.930 . S
C1130 C1125 1.390 . S
C1130 C1129 1.387 1_554 S
H1131 C1143 0.930 . S
H1132 C1145 0.930 . S
H1133 C1146 0.930 . S
H1134 C1150 0.959 . S
H1135 C1150 0.959 . S
H1136 C1150 0.961 . S
H1137 C1151 0.960 . S
H1138 C1151 0.961 . S
H1139 C1151 0.959 . S
H1140 C1154 0.929 . S
H1141 C1155 0.931 . S
H1142 C1157 0.930 . S
C1143 H1131 0.930 . S
C1143 C1144 1.403 . S
C1143 C1148 1.399 . S
C1144 C1143 1.403 . S
C1144 C1145 1.372 1_554 S
C1145 H1132 0.930 . S
C1145 C1144 1.372 1_556 S
C1145 C1146 1.388 . S
C1146 H1133 0.930 . S
C1146 C1145 1.388 . S
C1146 C1147 1.390 . S
C1147 C1146 1.390 . S
C1147 C1148 1.394 1_556 S
C1147 C1153 1.465 . S
C1148 C1143 1.399 . S
C1148 C1147 1.394 1_554 S
C1148 C1149 1.516 . S
C1149 C1148 1.516 . S
C1149 C1150 1.502 . S
C1149 C1151 1.561 . S
C1149 C1152 1.526 . S
C1150 H1134 0.959 . S
C1150 H1135 0.959 . S
C1150 H1136 0.961 . S
C1150 C1149 1.502 . S
C1151 H1137 0.960 . S
C1151 H1138 0.961 . S
C1151 H1139 0.959 . S
C1151 C1149 1.561 . S
C1152 C1149 1.526 . S
C1152 C1153 1.396 1_554 S
C1152 C1157 1.390 . S
C1153 C1147 1.465 . S
C1153 C1152 1.396 1_556 S
C1153 C1154 1.399 . S
C1154 H1140 0.929 . S
C1154 C1153 1.399 . S
C1154 C1155 1.385 . S
C1155 H1141 0.931 . S
C1155 C1154 1.385 . S
C1155 C1156 1.389 1_556 S
C1156 C1155 1.389 1_554 S
C1156 C1157 1.387 . S
C1157 H1142 0.930 . S
C1157 C1152 1.390 . S
C1157 C1156 1.387 . S
H1158 C1170 0.930 . S
H1159 C1172 0.930 . S
H1160 C1173 0.930 . S
H1161 C1177 0.959 . S
H1162 C1177 0.959 . S
H1163 C1177 0.961 . S
H1164 C1178 0.960 . S
H1165 C1178 0.961 . S
H1166 C1178 0.959 . S
H1167 C1181 0.929 . S
H1168 C1182 0.931 . S
H1169 C1184 0.930 . S
C1170 H1158 0.930 . S
C1170 C1171 1.399 . S
C1170 C1175 1.399 . S
C1171 C1170 1.399 . S
C1171 C1172 1.376 . S
C1172 H1159 0.930 . S
C1172 C1171 1.376 . S
C1172 C1173 1.388 . S
C1173 H1160 0.930 . S
C1173 C1172 1.388 . S
C1173 C1174 1.390 . S
C1174 C1173 1.390 . S
C1174 C1175 1.394 . S
C1174 C1180 1.465 . S
C1175 C1170 1.399 . S
C1175 C1174 1.394 . S
C1175 C1176 1.516 . S
C1176 C1175 1.516 . S
C1176 C1177 1.502 . S
C1176 C1178 1.561 . S
C1176 C1179 1.526 . S
C1177 H1161 0.959 . S
C1177 H1162 0.959 . S
C1177 H1163 0.961 . S
C1177 C1176 1.502 . S
C1178 H1164 0.960 . S
C1178 H1165 0.961 . S
C1178 H1166 0.959 . S
C1178 C1176 1.561 . S
C1179 C1176 1.526 . S
C1179 C1180 1.396 . S
C1179 C1184 1.390 . S
C1180 C1174 1.465 . S
C1180 C1179 1.396 . S
C1180 C1181 1.399 . S
C1181 H1167 0.929 . S
C1181 C1180 1.399 . S
C1181 C1182 1.385 . S
C1182 H1168 0.931 . S
C1182 C1181 1.385 . S
C1182 C1183 1.389 . S
C1183 C1182 1.389 . S
C1183 C1184 1.387 . S
C1184 H1169 0.930 . S
C1184 C1179 1.390 . S
C1184 C1183 1.387 . S
H1185 C1197 0.930 . S
H1186 C1199 0.930 . S
H1187 C1200 0.930 . S
H1188 C1204 0.959 . S
H1189 C1204 0.959 . S
H1190 C1204 0.961 . S
H1191 C1205 0.960 . S
H1192 C1205 0.961 . S
H1193 C1205 0.959 . S
H1194 C1208 0.929 . S
H1195 C1209 0.931 . S
H1196 C1211 0.930 . S
C1197 H1185 0.930 . S
C1197 C1198 1.399 . S
C1197 C1202 1.399 . S
C1198 C1197 1.399 . S
C1198 C1199 1.376 . S
C1199 H1186 0.930 . S
C1199 C1198 1.376 . S
C1199 C1200 1.388 . S
C1200 H1187 0.930 . S
C1200 C1199 1.388 . S
C1200 C1201 1.390 . S
C1201 C1200 1.390 . S
C1201 C1202 1.394 . S
C1201 C1207 1.465 . S
C1202 C1197 1.399 . S
C1202 C1201 1.394 . S
C1202 C1203 1.516 . S
C1203 C1202 1.516 . S
C1203 C1204 1.502 . S
C1203 C1205 1.561 . S
C1203 C1206 1.526 . S
C1204 H1188 0.959 . S
C1204 H1189 0.959 . S
C1204 H1190 0.961 . S
C1204 C1203 1.502 . S
C1205 H1191 0.960 . S
C1205 H1192 0.961 . S
C1205 H1193 0.959 . S
C1205 C1203 1.561 . S
C1206 C1203 1.526 . S
C1206 C1207 1.396 . S
C1206 C1211 1.390 . S
C1207 C1201 1.465 . S
C1207 C1206 1.396 . S
C1207 C1208 1.399 . S
C1208 H1194 0.929 . S
C1208 C1207 1.399 . S
C1208 C1209 1.385 . S
C1209 H1195 0.931 . S
C1209 C1208 1.385 . S
C1209 C1210 1.389 . S
C1210 C1209 1.389 . S
C1210 C1211 1.387 . S
C1211 H1196 0.930 . S
C1211 C1206 1.390 . S
C1211 C1210 1.387 . S
H1212 C1224 0.930 . S
H1213 C1226 0.930 . S
H1214 C1227 0.930 . S
H1215 C1231 0.959 . S
H1216 C1231 0.959 . S
H1217 C1231 0.961 . S
H1218 C1232 0.960 . S
H1219 C1232 0.961 . S
H1220 C1232 0.959 . S
H1221 C1235 0.929 . S
H1222 C1236 0.931 . S
H1223 C1238 0.930 . S
C1224 H1212 0.930 . S
C1224 C1225 1.399 . S
C1224 C1229 1.399 . S
C1225 C1224 1.399 . S
C1225 C1226 1.376 . S
C1226 H1213 0.930 . S
C1226 C1225 1.376 . S
C1226 C1227 1.388 . S
C1227 H1214 0.930 . S
C1227 C1226 1.388 . S
C1227 C1228 1.390 . S
C1228 C1227 1.390 . S
C1228 C1229 1.394 . S
C1228 C1234 1.465 . S
C1229 C1224 1.399 . S
C1229 C1228 1.394 . S
C1229 C1230 1.516 . S
C1230 C1229 1.516 . S
C1230 C1231 1.502 . S
C1230 C1232 1.561 . S
C1230 C1233 1.526 . S
C1231 H1215 0.959 . S
C1231 H1216 0.959 . S
C1231 H1217 0.961 . S
C1231 C1230 1.502 . S
C1232 H1218 0.960 . S
C1232 H1219 0.961 . S
C1232 H1220 0.959 . S
C1232 C1230 1.561 . S
C1233 C1230 1.526 . S
C1233 C1234 1.396 . S
C1233 C1238 1.390 . S
C1234 C1228 1.465 . S
C1234 C1233 1.396 . S
C1234 C1235 1.399 . S
C1235 H1221 0.929 . S
C1235 C1234 1.399 . S
C1235 C1236 1.385 . S
C1236 H1222 0.931 . S
C1236 C1235 1.385 . S
C1236 C1237 1.389 . S
C1237 C1236 1.389 . S
C1237 C1238 1.387 . S
C1238 H1223 0.930 . S
C1238 C1233 1.390 . S
C1238 C1237 1.387 . S
H1239 C1251 0.930 . S
H1240 C1253 0.930 . S
H1241 C1254 0.930 . S
H1242 C1258 0.959 . S
H1243 C1258 0.959 . S
H1244 C1258 0.961 . S
H1245 C1259 0.960 . S
H1246 C1259 0.961 . S
H1247 C1259 0.959 . S
H1248 C1262 0.929 . S
H1249 C1263 0.931 . S
H1250 C1265 0.930 . S
C1251 H1239 0.930 . S
C1251 C1252 1.399 . S
C1251 C1256 1.399 . S
C1252 C1251 1.399 . S
C1252 C1253 1.376 . S
C1253 H1240 0.930 . S
C1253 C1252 1.376 . S
C1253 C1254 1.388 . S
C1254 H1241 0.930 . S
C1254 C1253 1.388 . S
C1254 C1255 1.390 . S
C1255 C1254 1.390 . S
C1255 C1256 1.394 . S
C1255 C1261 1.465 . S
C1256 C1251 1.399 . S
C1256 C1255 1.394 . S
C1256 C1257 1.516 . S
C1257 C1256 1.516 . S
C1257 C1258 1.502 . S
C1257 C1259 1.561 . S
C1257 C1260 1.526 . S
C1258 H1242 0.959 . S
C1258 H1243 0.959 . S
C1258 H1244 0.961 . S
C1258 C1257 1.502 . S
C1259 H1245 0.960 . S
C1259 H1246 0.961 . S
C1259 H1247 0.959 . S
C1259 C1257 1.561 . S
C1260 C1257 1.526 . S
C1260 C1261 1.396 . S
C1260 C1265 1.390 . S
C1261 C1255 1.465 . S
C1261 C1260 1.396 . S
C1261 C1262 1.399 . S
C1262 H1248 0.929 . S
C1262 C1261 1.399 . S
C1262 C1263 1.385 . S
C1263 H1249 0.931 . S
C1263 C1262 1.385 . S
C1263 C1264 1.389 . S
C1264 C1263 1.389 . S
C1264 C1265 1.387 . S
C1265 H1250 0.930 . S
C1265 C1260 1.390 . S
C1265 C1264 1.387 . S
H1266 C1278 0.930 . S
H1267 C1280 0.930 . S
H1268 C1281 0.930 . S
H1269 C1285 0.959 . S
H1270 C1285 0.959 . S
H1271 C1285 0.961 . S
H1272 C1286 0.960 . S
H1273 C1286 0.961 . S
H1274 C1286 0.959 . S
H1275 C1289 0.929 . S
H1276 C1290 0.931 . S
H1277 C1292 0.930 . S
C1278 H1266 0.930 . S
C1278 C1279 1.399 . S
C1278 C1283 1.399 . S
C1279 C1278 1.399 . S
C1279 C1280 1.376 . S
C1280 H1267 0.930 . S
C1280 C1279 1.376 . S
C1280 C1281 1.388 . S
C1281 H1268 0.930 . S
C1281 C1280 1.388 . S
C1281 C1282 1.390 . S
C1282 C1281 1.390 . S
C1282 C1283 1.394 . S
C1282 C1288 1.465 . S
C1283 C1278 1.399 . S
C1283 C1282 1.394 . S
C1283 C1284 1.516 . S
C1284 C1283 1.516 . S
C1284 C1285 1.502 . S
C1284 C1286 1.561 . S
C1284 C1287 1.526 . S
C1285 H1269 0.959 . S
C1285 H1270 0.959 . S
C1285 H1271 0.961 . S
C1285 C1284 1.502 . S
C1286 H1272 0.960 . S
C1286 H1273 0.961 . S
C1286 H1274 0.959 . S
C1286 C1284 1.561 . S
C1287 C1284 1.526 . S
C1287 C1288 1.396 . S
C1287 C1292 1.390 . S
C1288 C1282 1.465 . S
C1288 C1287 1.396 . S
C1288 C1289 1.399 . S
C1289 H1275 0.929 . S
C1289 C1288 1.399 . S
C1289 C1290 1.385 . S
C1290 H1276 0.931 . S
C1290 C1289 1.385 . S
C1290 C1291 1.389 . S
C1291 C1290 1.389 . S
C1291 C1292 1.387 . S
C1292 H1277 0.930 . S
C1292 C1287 1.390 . S
C1292 C1291 1.387 . S
H1293 C1305 0.930 . S
H1294 C1307 0.930 . S
H1295 C1308 0.930 . S
H1296 C1312 0.959 . S
H1297 C1312 0.959 . S
H1298 C1312 0.961 . S
H1299 C1313 0.960 . S
H1300 C1313 0.961 . S
H1301 C1313 0.959 . S
H1302 C1316 0.929 . S
H1303 C1317 0.931 . S
H1304 C1319 0.930 . S
C1305 H1293 0.930 . S
C1305 C1306 1.399 . S
C1305 C1310 1.399 . S
C1306 C1305 1.399 . S
C1306 C1307 1.376 . S
C1307 H1294 0.930 . S
C1307 C1306 1.376 . S
C1307 C1308 1.388 . S
C1308 H1295 0.930 . S
C1308 C1307 1.388 . S
C1308 C1309 1.390 . S
C1309 C1308 1.390 . S
C1309 C1310 1.394 . S
C1309 C1315 1.465 . S
C1310 C1305 1.399 . S
C1310 C1309 1.394 . S
C1310 C1311 1.516 . S
C1311 C1310 1.516 . S
C1311 C1312 1.502 . S
C1311 C1313 1.561 . S
C1311 C1314 1.526 . S
C1312 H1296 0.959 . S
C1312 H1297 0.959 . S
C1312 H1298 0.961 . S
C1312 C1311 1.502 . S
C1313 H1299 0.960 . S
C1313 H1300 0.961 . S
C1313 H1301 0.959 . S
C1313 C1311 1.561 . S
C1314 C1311 1.526 . S
C1314 C1315 1.396 . S
C1314 C1319 1.390 . S
C1315 C1309 1.465 . S
C1315 C1314 1.396 . S
C1315 C1316 1.399 . S
C1316 H1302 0.929 . S
C1316 C1315 1.399 . S
C1316 C1317 1.385 . S
C1317 H1303 0.931 . S
C1317 C1316 1.385 . S
C1317 C1318 1.389 . S
C1318 C1317 1.389 . S
C1318 C1319 1.387 . S
C1319 H1304 0.930 . S
C1319 C1314 1.390 . S
C1319 C1318 1.387 . S
H1320 C1332 0.930 . S
H1321 C1334 0.930 . S
H1322 C1335 0.930 . S
H1323 C1339 0.959 . S
H1324 C1339 0.966 1_554 S
H1325 C1339 0.961 . S
H1326 C1340 0.960 . S
H1327 C1340 0.961 . S
H1328 C1340 0.959 . S
H1329 C1343 0.929 . S
H1330 C1344 0.931 . S
H1331 C1346 0.930 . S
C1332 H1320 0.930 . S
C1332 C1333 1.399 . S
C1332 C1337 1.399 . S
C1333 C1332 1.399 . S
C1333 C1334 1.376 . S
C1334 H1321 0.930 . S
C1334 C1333 1.376 . S
C1334 C1335 1.388 . S
C1335 H1322 0.930 . S
C1335 C1334 1.388 . S
C1335 C1336 1.390 . S
C1336 C1335 1.390 . S
C1336 C1337 1.394 . S
C1336 C1342 1.465 . S
C1337 C1332 1.399 . S
C1337 C1336 1.394 . S
C1337 C1338 1.516 . S
C1338 C1337 1.516 . S
C1338 C1339 1.502 1_455 S
C1338 C1340 1.561 . S
C1338 C1341 1.526 . S
C1339 H1323 0.959 . S
C1339 H1324 0.966 1_556 S
C1339 H1325 0.961 . S
C1339 C1338 1.502 1_655 S
C1340 H1326 0.960 . S
C1340 H1327 0.961 . S
C1340 H1328 0.959 . S
C1340 C1338 1.561 . S
C1341 C1338 1.526 . S
C1341 C1342 1.396 . S
C1341 C1346 1.390 . S
C1342 C1336 1.465 . S
C1342 C1341 1.396 . S
C1342 C1343 1.399 . S
C1343 H1329 0.929 . S
C1343 C1342 1.399 . S
C1343 C1344 1.385 . S
C1344 H1330 0.931 . S
C1344 C1343 1.385 . S
C1344 C1345 1.389 . S
C1345 C1344 1.389 . S
C1345 C1346 1.387 . S
C1346 H1331 0.930 . S
C1346 C1341 1.390 . S
C1346 C1345 1.387 . S
H1347 C1359 0.930 . S
H1348 C1361 0.930 . S
H1349 C1362 0.930 . S
H1350 C1366 0.959 . S
H1351 C1366 0.959 . S
H1352 C1366 0.961 . S
H1353 C1367 0.960 . S
H1354 C1367 0.961 . S
H1355 C1367 0.959 . S
H1356 C1370 0.929 . S
H1357 C1371 0.931 . S
H1358 C1373 0.930 . S
C1359 H1347 0.930 . S
C1359 C1360 1.399 . S
C1359 C1364 1.399 . S
C1360 C1359 1.399 . S
C1360 C1361 1.376 . S
C1361 H1348 0.930 . S
C1361 C1360 1.376 . S
C1361 C1362 1.388 . S
C1362 H1349 0.930 . S
C1362 C1361 1.388 . S
C1362 C1363 1.390 . S
C1363 C1362 1.390 . S
C1363 C1364 1.394 . S
C1363 C1369 1.465 . S
C1364 C1359 1.399 . S
C1364 C1363 1.394 . S
C1364 C1365 1.516 . S
C1365 C1364 1.516 . S
C1365 C1366 1.502 . S
C1365 C1367 1.561 . S
C1365 C1368 1.526 . S
C1366 H1350 0.959 . S
C1366 H1351 0.959 . S
C1366 H1352 0.961 . S
C1366 C1365 1.502 . S
C1367 H1353 0.960 . S
C1367 H1354 0.961 . S
C1367 H1355 0.959 . S
C1367 C1365 1.561 . S
C1368 C1365 1.526 . S
C1368 C1369 1.396 . S
C1368 C1373 1.390 . S
C1369 C1363 1.465 . S
C1369 C1368 1.396 . S
C1369 C1370 1.399 . S
C1370 H1356 0.929 . S
C1370 C1369 1.399 . S
C1370 C1371 1.385 . S
C1371 H1357 0.931 . S
C1371 C1370 1.385 . S
C1371 C1372 1.389 . S
C1372 C1371 1.389 . S
C1372 C1373 1.387 . S
C1373 H1358 0.930 . S
C1373 C1368 1.390 . S
C1373 C1372 1.387 . S
H1374 C1386 0.930 . S
H1375 C1388 0.930 . S
H1376 C1389 0.930 . S
H1377 C1393 0.959 . S
H1378 C1393 0.959 . S
H1379 C1393 0.961 . S
H1380 C1394 0.960 . S
H1381 C1394 0.961 . S
H1382 C1394 0.959 . S
H1383 C1397 0.929 . S
H1384 C1398 0.931 . S
H1385 C1400 0.930 . S
C1386 H1374 0.930 . S
C1386 C1387 1.399 . S
C1386 C1391 1.399 . S
C1387 C1386 1.399 . S
C1387 C1388 1.376 . S
C1388 H1375 0.930 . S
C1388 C1387 1.376 . S
C1388 C1389 1.388 . S
C1389 H1376 0.930 . S
C1389 C1388 1.388 . S
C1389 C1390 1.390 . S
C1390 C1389 1.390 . S
C1390 C1391 1.394 . S
C1390 C1396 1.465 . S
C1391 C1386 1.399 . S
C1391 C1390 1.394 . S
C1391 C1392 1.516 . S
C1392 C1391 1.516 . S
C1392 C1393 1.502 . S
C1392 C1394 1.561 . S
C1392 C1395 1.526 . S
C1393 H1377 0.959 . S
C1393 H1378 0.959 . S
C1393 H1379 0.961 . S
C1393 C1392 1.502 . S
C1394 H1380 0.960 . S
C1394 H1381 0.961 . S
C1394 H1382 0.959 . S
C1394 C1392 1.561 . S
C1395 C1392 1.526 . S
C1395 C1396 1.396 . S
C1395 C1400 1.390 . S
C1396 C1390 1.465 . S
C1396 C1395 1.396 . S
C1396 C1397 1.399 . S
C1397 H1383 0.929 . S
C1397 C1396 1.399 . S
C1397 C1398 1.385 . S
C1398 H1384 0.931 . S
C1398 C1397 1.385 . S
C1398 C1399 1.389 . S
C1399 C1398 1.389 . S
C1399 C1400 1.387 . S
C1400 H1385 0.930 . S
C1400 C1395 1.390 . S
C1400 C1399 1.387 . S
H1401 C1413 0.930 . S
H1402 C1415 0.930 . S
H1403 C1416 0.930 . S
H1404 C1420 0.959 . S
H1405 C1420 0.959 . S
H1406 C1420 0.961 . S
H1407 C1421 0.960 . S
H1408 C1421 0.961 . S
H1409 C1421 0.959 . S
H1410 C1424 0.929 . S
H1411 C1425 0.931 . S
H1412 C1427 0.930 . S
C1413 H1401 0.930 . S
C1413 C1414 1.399 . S
C1413 C1418 1.399 . S
C1414 C1413 1.399 . S
C1414 C1415 1.376 . S
C1415 H1402 0.930 . S
C1415 C1414 1.376 . S
C1415 C1416 1.388 . S
C1416 H1403 0.930 . S
C1416 C1415 1.388 . S
C1416 C1417 1.390 . S
C1417 C1416 1.390 . S
C1417 C1418 1.394 . S
C1417 C1423 1.465 . S
C1418 C1413 1.399 . S
C1418 C1417 1.394 . S
C1418 C1419 1.516 . S
C1419 C1418 1.516 . S
C1419 C1420 1.502 . S
C1419 C1421 1.561 . S
C1419 C1422 1.526 . S
C1420 H1404 0.959 . S
C1420 H1405 0.959 . S
C1420 H1406 0.961 . S
C1420 C1419 1.502 . S
C1421 H1407 0.960 . S
C1421 H1408 0.961 . S
C1421 H1409 0.959 . S
C1421 C1419 1.561 . S
C1422 C1419 1.526 . S
C1422 C1423 1.396 . S
C1422 C1427 1.390 . S
C1423 C1417 1.465 . S
C1423 C1422 1.396 . S
C1423 C1424 1.399 . S
C1424 H1410 0.929 . S
C1424 C1423 1.399 . S
C1424 C1425 1.385 . S
C1425 H1411 0.931 . S
C1425 C1424 1.385 . S
C1425 C1426 1.389 . S
C1426 C1425 1.389 . S
C1426 C1427 1.387 . S
C1427 H1412 0.930 . S
C1427 C1422 1.390 . S
C1427 C1426 1.387 . S
H1428 C1440 0.930 . S
H1429 C1442 0.930 . S
H1430 C1443 0.930 . S
H1431 C1447 0.959 . S
H1432 C1447 0.959 . S
H1433 C1447 0.961 . S
H1434 C1448 0.960 . S
H1435 C1448 0.961 . S
H1436 C1448 0.959 . S
H1437 C1451 0.929 . S
H1438 C1452 0.931 . S
H1439 C1454 0.930 . S
C1440 H1428 0.930 . S
C1440 C1441 1.399 . S
C1440 C1445 1.399 . S
C1441 C1440 1.399 . S
C1441 C1442 1.376 . S
C1442 H1429 0.930 . S
C1442 C1441 1.376 . S
C1442 C1443 1.388 . S
C1443 H1430 0.930 . S
C1443 C1442 1.388 . S
C1443 C1444 1.390 . S
C1444 C1443 1.390 . S
C1444 C1445 1.394 . S
C1444 C1450 1.465 . S
C1445 C1440 1.399 . S
C1445 C1444 1.394 . S
C1445 C1446 1.516 . S
C1446 C1445 1.516 . S
C1446 C1447 1.502 1_455 S
C1446 C1448 1.561 . S
C1446 C1449 1.526 . S
C1447 H1431 0.959 . S
C1447 H1432 0.959 . S
C1447 H1433 0.961 . S
C1447 C1446 1.502 1_655 S
C1448 H1434 0.960 . S
C1448 H1435 0.961 . S
C1448 H1436 0.959 . S
C1448 C1446 1.561 . S
C1449 C1446 1.526 . S
C1449 C1450 1.396 . S
C1449 C1454 1.390 . S
C1450 C1444 1.465 . S
C1450 C1449 1.396 . S
C1450 C1451 1.399 . S
C1451 H1437 0.929 . S
C1451 C1450 1.399 . S
C1451 C1452 1.385 . S
C1452 H1438 0.931 . S
C1452 C1451 1.385 . S
C1452 C1453 1.389 . S
C1453 C1452 1.389 . S
C1453 C1454 1.387 . S
C1454 H1439 0.930 . S
C1454 C1449 1.390 . S
C1454 C1453 1.387 . S
H1455 C1467 0.930 . S
H1456 C1469 0.930 . S
H1457 C1470 0.930 . S
H1458 C1474 0.959 . S
H1459 C1474 0.959 . S
H1460 C1474 0.961 . S
H1461 C1475 0.960 . S
H1462 C1475 0.961 . S
H1463 C1475 0.959 . S
H1464 C1478 0.929 . S
H1465 C1479 0.931 . S
H1466 C1481 0.930 . S
C1467 H1455 0.930 . S
C1467 C1468 1.399 . S
C1467 C1472 1.399 . S
C1468 C1467 1.399 . S
C1468 C1469 1.376 . S
C1469 H1456 0.930 . S
C1469 C1468 1.376 . S
C1469 C1470 1.388 . S
C1470 H1457 0.930 . S
C1470 C1469 1.388 . S
C1470 C1471 1.390 . S
C1471 C1470 1.390 . S
C1471 C1472 1.394 . S
C1471 C1477 1.465 . S
C1472 C1467 1.399 . S
C1472 C1471 1.394 . S
C1472 C1473 1.516 . S
C1473 C1472 1.516 . S
C1473 C1474 1.502 . S
C1473 C1475 1.561 . S
C1473 C1476 1.526 . S
C1474 H1458 0.959 . S
C1474 H1459 0.959 . S
C1474 H1460 0.961 . S
C1474 C1473 1.502 . S
C1475 H1461 0.960 . S
C1475 H1462 0.961 . S
C1475 H1463 0.959 . S
C1475 C1473 1.561 . S
C1476 C1473 1.526 . S
C1476 C1477 1.396 . S
C1476 C1481 1.390 . S
C1477 C1471 1.465 . S
C1477 C1476 1.396 . S
C1477 C1478 1.399 . S
C1478 H1464 0.929 . S
C1478 C1477 1.399 . S
C1478 C1479 1.385 . S
C1479 H1465 0.931 . S
C1479 C1478 1.385 . S
C1479 C1480 1.389 . S
C1480 C1479 1.389 . S
C1480 C1481 1.387 . S
C1481 H1466 0.930 . S
C1481 C1476 1.390 . S
C1481 C1480 1.387 . S
H1482 C1494 0.930 . S
H1483 C1496 0.930 . S
H1484 C1497 0.930 . S
H1485 C1501 0.959 . S
H1486 C1501 0.959 . S
H1487 C1501 0.961 . S
H1488 C1502 0.960 . S
H1489 C1502 0.961 . S
H1490 C1502 0.959 . S
H1491 C1505 0.929 . S
H1492 C1506 0.931 . S
H1493 C1508 0.930 . S
C1494 H1482 0.930 . S
C1494 C1495 1.399 . S
C1494 C1499 1.399 . S
C1495 C1494 1.399 . S
C1495 C1496 1.376 . S
C1496 H1483 0.930 . S
C1496 C1495 1.376 . S
C1496 C1497 1.388 . S
C1497 H1484 0.930 . S
C1497 C1496 1.388 . S
C1497 C1498 1.390 . S
C1498 C1497 1.390 . S
C1498 C1499 1.394 . S
C1498 C1504 1.465 . S
C1499 C1494 1.399 . S
C1499 C1498 1.394 . S
C1499 C1500 1.516 . S
C1500 C1499 1.516 . S
C1500 C1501 1.502 . S
C1500 C1502 1.561 . S
C1500 C1503 1.526 . S
C1501 H1485 0.959 . S
C1501 H1486 0.959 . S
C1501 H1487 0.961 . S
C1501 C1500 1.502 . S
C1502 H1488 0.960 . S
C1502 H1489 0.961 . S
C1502 H1490 0.959 . S
C1502 C1500 1.561 . S
C1503 C1500 1.526 . S
C1503 C1504 1.396 . S
C1503 C1508 1.390 . S
C1504 C1498 1.465 . S
C1504 C1503 1.396 . S
C1504 C1505 1.399 . S
C1505 H1491 0.929 . S
C1505 C1504 1.399 . S
C1505 C1506 1.385 . S
C1506 H1492 0.931 . S
C1506 C1505 1.385 . S
C1506 C1507 1.389 . S
C1507 C1506 1.389 . S
C1507 C1508 1.387 . S
C1508 H1493 0.930 . S
C1508 C1503 1.390 . S
C1508 C1507 1.387 . S
H1509 C1521 0.930 . S
H1510 C1523 0.930 . S
H1511 C1524 0.930 . S
H1512 C1528 0.959 . S
H1513 C1528 0.959 . S
H1514 C1528 0.961 . S
H1515 C1529 0.960 . S
H1516 C1529 0.961 . S
H1517 C1529 0.959 . S
H1518 C1532 0.929 . S
H1519 C1533 0.931 . S
H1520 C1535 0.930 . S
C1521 H1509 0.930 . S
C1521 C1522 1.399 . S
C1521 C1526 1.399 . S
C1522 C1521 1.399 . S
C1522 C1523 1.376 . S
C1523 H1510 0.930 . S
C1523 C1522 1.376 . S
C1523 C1524 1.388 . S
C1524 H1511 0.930 . S
C1524 C1523 1.388 . S
C1524 C1525 1.390 . S
C1525 C1524 1.390 . S
C1525 C1526 1.394 . S
C1525 C1531 1.465 . S
C1526 C1521 1.399 . S
C1526 C1525 1.394 . S
C1526 C1527 1.516 . S
C1527 C1526 1.516 . S
C1527 C1528 1.502 . S
C1527 C1529 1.561 . S
C1527 C1530 1.526 . S
C1528 H1512 0.959 . S
C1528 H1513 0.959 . S
C1528 H1514 0.961 . S
C1528 C1527 1.502 . S
C1529 H1515 0.960 . S
C1529 H1516 0.961 . S
C1529 H1517 0.959 . S
C1529 C1527 1.561 . S
C1530 C1527 1.526 . S
C1530 C1531 1.396 . S
C1530 C1535 1.390 . S
C1531 C1525 1.465 . S
C1531 C1530 1.396 . S
C1531 C1532 1.399 . S
C1532 H1518 0.929 . S
C1532 C1531 1.399 . S
C1532 C1533 1.385 . S
C1533 H1519 0.931 . S
C1533 C1532 1.385 . S
C1533 C1534 1.389 . S
C1534 C1533 1.389 . S
C1534 C1535 1.387 . S
C1535 H1520 0.930 . S
C1535 C1530 1.390 . S
C1535 C1534 1.387 . S
H1536 C1548 0.930 . S
H1537 C1550 0.930 . S
H1538 C1551 0.930 . S
H1539 C1555 0.959 . S
H1540 C1555 0.959 . S
H1541 C1555 0.961 . S
H1542 C1556 0.960 . S
H1543 C1556 0.961 . S
H1544 C1556 0.959 . S
H1545 C1559 0.929 . S
H1546 C1560 0.931 . S
H1547 C1562 0.930 . S
C1548 H1536 0.930 . S
C1548 C1549 1.399 1_565 S
C1548 C1553 1.399 . S
C1549 C1548 1.399 1_545 S
C1549 C1550 1.376 . S
C1550 H1537 0.930 . S
C1550 C1549 1.376 . S
C1550 C1551 1.388 . S
C1551 H1538 0.930 . S
C1551 C1550 1.388 . S
C1551 C1552 1.390 . S
C1552 C1551 1.390 . S
C1552 C1553 1.394 1_545 S
C1552 C1558 1.465 . S
C1553 C1548 1.399 . S
C1553 C1552 1.394 1_565 S
C1553 C1554 1.516 . S
C1554 C1553 1.516 . S
C1554 C1555 1.502 . S
C1554 C1556 1.561 . S
C1554 C1557 1.526 . S
C1555 H1539 0.959 . S
C1555 H1540 0.959 . S
C1555 H1541 0.961 . S
C1555 C1554 1.502 . S
C1556 H1542 0.960 . S
C1556 H1543 0.961 . S
C1556 H1544 0.959 . S
C1556 C1554 1.561 . S
C1557 C1554 1.526 . S
C1557 C1558 1.396 1_565 S
C1557 C1562 1.390 . S
C1558 C1552 1.465 . S
C1558 C1557 1.396 1_545 S
C1558 C1559 1.399 . S
C1559 H1545 0.929 . S
C1559 C1558 1.399 . S
C1559 C1560 1.385 . S
C1560 H1546 0.931 . S
C1560 C1559 1.385 . S
C1560 C1561 1.389 . S
C1561 C1560 1.389 . S
C1561 C1562 1.387 1_545 S
C1562 H1547 0.930 . S
C1562 C1557 1.390 . S
C1562 C1561 1.387 1_565 S
H1563 C1575 0.930 . S
H1564 C1577 0.930 . S
H1565 C1578 0.930 . S
H1566 C1582 0.959 . S
H1567 C1582 0.959 . S
H1568 C1582 0.961 . S
H1569 C1583 0.960 . S
H1570 C1583 0.961 . S
H1571 C1583 0.959 . S
H1572 C1586 0.929 . S
H1573 C1587 0.931 . S
H1574 C1589 0.930 . S
C1575 H1563 0.930 . S
C1575 C1576 1.399 . S
C1575 C1580 1.399 . S
C1576 C1575 1.399 . S
C1576 C1577 1.376 . S
C1577 H1564 0.930 . S
C1577 C1576 1.376 . S
C1577 C1578 1.388 . S
C1578 H1565 0.930 . S
C1578 C1577 1.388 . S
C1578 C1579 1.390 . S
C1579 C1578 1.390 . S
C1579 C1580 1.394 . S
C1579 C1585 1.465 . S
C1580 C1575 1.399 . S
C1580 C1579 1.394 . S
C1580 C1581 1.516 . S
C1581 C1580 1.516 . S
C1581 C1582 1.502 . S
C1581 C1583 1.561 . S
C1581 C1584 1.526 . S
C1582 H1566 0.959 . S
C1582 H1567 0.959 . S
C1582 H1568 0.961 . S
C1582 C1581 1.502 . S
C1583 H1569 0.960 . S
C1583 H1570 0.961 . S
C1583 H1571 0.959 . S
C1583 C1581 1.561 . S
C1584 C1581 1.526 . S
C1584 C1585 1.396 . S
C1584 C1589 1.390 . S
C1585 C1579 1.465 . S
C1585 C1584 1.396 . S
C1585 C1586 1.399 . S
C1586 H1572 0.929 . S
C1586 C1585 1.399 . S
C1586 C1587 1.385 . S
C1587 H1573 0.931 . S
C1587 C1586 1.385 . S
C1587 C1588 1.389 . S
C1588 C1587 1.389 . S
C1588 C1589 1.387 . S
C1589 H1574 0.930 . S
C1589 C1584 1.390 . S
C1589 C1588 1.387 . S
H1590 C1602 0.930 . S
H1591 C1604 0.930 . S
H1592 C1605 0.930 . S
H1593 C1609 0.959 . S
H1594 C1609 0.959 . S
H1595 C1609 0.961 . S
H1596 C1610 0.960 . S
H1597 C1610 0.961 . S
H1598 C1610 0.959 . S
H1599 C1613 0.929 . S
H1600 C1614 0.931 . S
H1601 C1616 0.930 . S
C1602 H1590 0.930 . S
C1602 C1603 1.399 1_565 S
C1602 C1607 1.399 . S
C1603 C1602 1.399 1_545 S
C1603 C1604 1.376 . S
C1604 H1591 0.930 . S
C1604 C1603 1.376 . S
C1604 C1605 1.388 . S
C1605 H1592 0.930 . S
C1605 C1604 1.388 . S
C1605 C1606 1.390 . S
C1606 C1605 1.390 . S
C1606 C1607 1.394 1_545 S
C1606 C1612 1.465 . S
C1607 C1602 1.399 . S
C1607 C1606 1.394 1_565 S
C1607 C1608 1.516 . S
C1608 C1607 1.516 . S
C1608 C1609 1.502 . S
C1608 C1610 1.561 . S
C1608 C1611 1.526 . S
C1609 H1593 0.959 . S
C1609 H1594 0.959 . S
C1609 H1595 0.961 . S
C1609 C1608 1.502 . S
C1610 H1596 0.960 . S
C1610 H1597 0.961 . S
C1610 H1598 0.959 . S
C1610 C1608 1.561 . S
C1611 C1608 1.526 . S
C1611 C1612 1.396 1_565 S
C1611 C1616 1.390 . S
C1612 C1606 1.465 . S
C1612 C1611 1.396 1_545 S
C1612 C1613 1.399 . S
C1613 H1599 0.929 . S
C1613 C1612 1.399 . S
C1613 C1614 1.385 . S
C1614 H1600 0.931 . S
C1614 C1613 1.385 . S
C1614 C1615 1.389 1_545 S
C1615 C1614 1.389 1_565 S
C1615 C1616 1.387 . S
C1616 H1601 0.930 . S
C1616 C1611 1.390 . S
C1616 C1615 1.387 . S
H1617 C1629 0.930 . S
H1618 C1631 0.930 . S
H1619 C1632 0.930 . S
H1620 C1636 0.959 . S
H1621 C1636 0.959 . S
H1622 C1636 0.961 . S
H1623 C1637 0.960 . S
H1624 C1637 0.961 . S
H1625 C1637 0.959 . S
H1626 C1640 0.929 . S
H1627 C1641 0.931 . S
H1628 C1643 0.930 . S
C1629 H1617 0.930 . S
C1629 C1630 1.399 . S
C1629 C1634 1.399 . S
C1630 C1629 1.399 . S
C1630 C1631 1.376 . S
C1631 H1618 0.930 . S
C1631 C1630 1.376 . S
C1631 C1632 1.388 . S
C1632 H1619 0.930 . S
C1632 C1631 1.388 . S
C1632 C1633 1.390 . S
C1633 C1632 1.390 . S
C1633 C1634 1.394 . S
C1633 C1639 1.465 . S
C1634 C1629 1.399 . S
C1634 C1633 1.394 . S
C1634 C1635 1.516 . S
C1635 C1634 1.516 . S
C1635 C1636 1.502 . S
C1635 C1637 1.561 . S
C1635 C1638 1.526 . S
C1636 H1620 0.959 . S
C1636 H1621 0.959 . S
C1636 H1622 0.961 . S
C1636 C1635 1.502 . S
C1637 H1623 0.960 . S
C1637 H1624 0.961 . S
C1637 H1625 0.959 . S
C1637 C1635 1.561 . S
C1638 C1635 1.526 . S
C1638 C1639 1.396 . S
C1638 C1643 1.390 . S
C1639 C1633 1.465 . S
C1639 C1638 1.396 . S
C1639 C1640 1.399 . S
C1640 H1626 0.929 . S
C1640 C1639 1.399 . S
C1640 C1641 1.385 . S
C1641 H1627 0.931 . S
C1641 C1640 1.385 . S
C1641 C1642 1.389 . S
C1642 C1641 1.389 . S
C1642 C1643 1.387 . S
C1643 H1628 0.930 . S
C1643 C1638 1.390 . S
C1643 C1642 1.387 . S
H1644 C1656 0.930 . S
H1645 C1658 0.930 . S
H1646 C1659 0.930 . S
H1647 C1663 0.959 . S
H1648 C1663 0.959 . S
H1649 C1663 0.961 . S
H1650 C1664 0.960 . S
H1651 C1664 0.961 . S
H1652 C1664 0.959 . S
H1653 C1667 0.929 . S
H1654 C1668 0.931 . S
H1655 C1670 0.930 . S
C1656 H1644 0.930 . S
C1656 C1657 1.399 . S
C1656 C1661 1.399 . S
C1657 C1656 1.399 . S
C1657 C1658 1.376 1_565 S
C1658 H1645 0.930 . S
C1658 C1657 1.376 1_545 S
C1658 C1659 1.388 . S
C1659 H1646 0.930 . S
C1659 C1658 1.388 . S
C1659 C1660 1.390 . S
C1660 C1659 1.390 . S
C1660 C1661 1.394 1_545 S
C1660 C1666 1.465 . S
C1661 C1656 1.399 . S
C1661 C1660 1.394 1_565 S
C1661 C1662 1.516 . S
C1662 C1661 1.516 . S
C1662 C1663 1.502 . S
C1662 C1664 1.561 . S
C1662 C1665 1.526 . S
C1663 H1647 0.959 . S
C1663 H1648 0.959 . S
C1663 H1649 0.961 . S
C1663 C1662 1.502 . S
C1664 H1650 0.960 . S
C1664 H1651 0.961 . S
C1664 H1652 0.959 . S
C1664 C1662 1.561 . S
C1665 C1662 1.526 . S
C1665 C1666 1.396 1_565 S
C1665 C1670 1.390 . S
C1666 C1660 1.465 . S
C1666 C1665 1.396 1_545 S
C1666 C1667 1.399 . S
C1667 H1653 0.929 . S
C1667 C1666 1.399 . S
C1667 C1668 1.385 . S
C1668 H1654 0.931 . S
C1668 C1667 1.385 . S
C1668 C1669 1.389 1_545 S
C1669 C1668 1.389 1_565 S
C1669 C1670 1.387 . S
C1670 H1655 0.930 . S
C1670 C1665 1.390 . S
C1670 C1669 1.387 . S
H1671 C1683 0.930 . S
H1672 C1685 0.930 . S
H1673 C1686 0.930 . S
H1674 C1690 0.959 . S
H1675 C1690 0.959 . S
H1676 C1690 0.961 . S
H1677 C1691 0.960 . S
H1678 C1691 0.961 . S
H1679 C1691 0.959 . S
H1680 C1694 0.929 . S
H1681 C1695 0.931 . S
H1682 C1697 0.930 . S
C1683 H1671 0.930 . S
C1683 C1684 1.399 . S
C1683 C1688 1.399 . S
C1684 C1683 1.399 . S
C1684 C1685 1.376 . S
C1685 H1672 0.930 . S
C1685 C1684 1.376 . S
C1685 C1686 1.388 . S
C1686 H1673 0.930 . S
C1686 C1685 1.388 . S
C1686 C1687 1.390 . S
C1687 C1686 1.390 . S
C1687 C1688 1.394 . S
C1687 C1693 1.465 . S
C1688 C1683 1.399 . S
C1688 C1687 1.394 . S
C1688 C1689 1.516 . S
C1689 C1688 1.516 . S
C1689 C1690 1.502 . S
C1689 C1691 1.561 . S
C1689 C1692 1.526 . S
C1690 H1674 0.959 . S
C1690 H1675 0.959 . S
C1690 H1676 0.961 . S
C1690 C1689 1.502 . S
C1691 H1677 0.960 . S
C1691 H1678 0.961 . S
C1691 H1679 0.959 . S
C1691 C1689 1.561 . S
C1692 C1689 1.526 . S
C1692 C1693 1.396 . S
C1692 C1697 1.390 . S
C1693 C1687 1.465 . S
C1693 C1692 1.396 . S
C1693 C1694 1.399 . S
C1694 H1680 0.929 . S
C1694 C1693 1.399 . S
C1694 C1695 1.385 . S
C1695 H1681 0.931 . S
C1695 C1694 1.385 . S
C1695 C1696 1.389 . S
C1696 C1695 1.389 . S
C1696 C1697 1.387 . S
C1697 H1682 0.930 . S
C1697 C1692 1.390 . S
C1697 C1696 1.387 . S
H1698 C1710 0.930 . S
H1699 C1712 0.930 . S
H1700 C1713 0.930 . S
H1701 C1717 0.959 . S
H1702 C1717 0.959 . S
H1703 C1717 0.961 . S
H1704 C1718 0.960 . S
H1705 C1718 0.961 . S
H1706 C1718 0.959 . S
H1707 C1721 0.929 . S
H1708 C1722 0.931 . S
H1709 C1724 0.930 . S
C1710 H1698 0.930 . S
C1710 C1711 1.399 . S
C1710 C1715 1.399 . S
C1711 C1710 1.399 . S
C1711 C1712 1.376 1_545 S
C1712 H1699 0.930 . S
C1712 C1711 1.376 1_565 S
C1712 C1713 1.388 . S
C1713 H1700 0.930 . S
C1713 C1712 1.388 . S
C1713 C1714 1.390 1_565 S
C1714 C1713 1.390 1_545 S
C1714 C1715 1.394 . S
C1714 C1720 1.465 . S
C1715 C1710 1.399 . S
C1715 C1714 1.394 . S
C1715 C1716 1.516 . S
C1716 C1715 1.516 . S
C1716 C1717 1.502 . S
C1716 C1718 1.561 . S
C1716 C1719 1.526 . S
C1717 H1701 0.959 . S
C1717 H1702 0.959 . S
C1717 H1703 0.961 . S
C1717 C1716 1.502 . S
C1718 H1704 0.960 . S
C1718 H1705 0.961 . S
C1718 H1706 0.959 . S
C1718 C1716 1.561 . S
C1719 C1716 1.526 . S
C1719 C1720 1.396 . S
C1719 C1724 1.390 . S
C1720 C1714 1.465 . S
C1720 C1719 1.396 . S
C1720 C1721 1.399 1_545 S
C1721 H1707 0.929 . S
C1721 C1720 1.399 1_565 S
C1721 C1722 1.385 . S
C1722 H1708 0.931 . S
C1722 C1721 1.385 . S
C1722 C1723 1.389 1_565 S
C1723 C1722 1.389 1_545 S
C1723 C1724 1.387 . S
C1724 H1709 0.930 . S
C1724 C1719 1.390 . S
C1724 C1723 1.387 . S
H1725 C1737 0.930 . S
H1726 C1739 0.930 . S
H1727 C1740 0.930 . S
H1728 C1744 0.959 . S
H1729 C1744 0.959 . S
H1730 C1744 0.961 . S
H1731 C1745 0.960 . S
H1732 C1745 0.961 . S
H1733 C1745 0.959 . S
H1734 C1748 0.929 . S
H1735 C1749 0.931 . S
H1736 C1751 0.930 . S
C1737 H1725 0.930 . S
C1737 C1738 1.399 . S
C1737 C1742 1.399 . S
C1738 C1737 1.399 . S
C1738 C1739 1.376 . S
C1739 H1726 0.930 . S
C1739 C1738 1.376 . S
C1739 C1740 1.388 . S
C1740 H1727 0.930 . S
C1740 C1739 1.388 . S
C1740 C1741 1.390 . S
C1741 C1740 1.390 . S
C1741 C1742 1.394 . S
C1741 C1747 1.465 . S
C1742 C1737 1.399 . S
C1742 C1741 1.394 . S
C1742 C1743 1.516 . S
C1743 C1742 1.516 . S
C1743 C1744 1.502 . S
C1743 C1745 1.561 . S
C1743 C1746 1.526 . S
C1744 H1728 0.959 . S
C1744 H1729 0.959 . S
C1744 H1730 0.961 . S
C1744 C1743 1.502 . S
C1745 H1731 0.960 . S
C1745 H1732 0.961 . S
C1745 H1733 0.959 . S
C1745 C1743 1.561 . S
C1746 C1743 1.526 . S
C1746 C1747 1.396 . S
C1746 C1751 1.390 . S
C1747 C1741 1.465 . S
C1747 C1746 1.396 . S
C1747 C1748 1.399 . S
C1748 H1734 0.929 . S
C1748 C1747 1.399 . S
C1748 C1749 1.385 . S
C1749 H1735 0.931 . S
C1749 C1748 1.385 . S
C1749 C1750 1.389 . S
C1750 C1749 1.389 . S
C1750 C1751 1.387 . S
C1751 H1736 0.930 . S
C1751 C1746 1.390 . S
C1751 C1750 1.387 . S
H1752 C1764 0.930 . S
H1753 C1766 0.930 . S
H1754 C1767 0.930 . S
H1755 C1771 0.959 . S
H1756 C1771 0.959 1_544 S
H1757 C1771 0.961 . S
H1758 C1772 0.960 . S
H1759 C1772 0.961 1_545 S
H1760 C1772 0.959 . S
H1761 C1775 0.929 . S
H1762 C1776 0.931 . S
H1763 C1778 0.932 . S
C1764 H1752 0.930 . S
C1764 C1765 1.399 . S
C1764 C1769 1.399 . S
C1765 C1764 1.399 . S
C1765 C1766 1.376 . S
C1766 H1753 0.930 . S
C1766 C1765 1.376 . S
C1766 C1767 1.388 . S
C1767 H1754 0.930 . S
C1767 C1766 1.388 . S
C1767 C1768 1.390 . S
C1768 C1767 1.390 . S
C1768 C1769 1.394 . S
C1768 C1774 1.465 . S
C1769 C1764 1.399 . S
C1769 C1768 1.394 . S
C1769 C1770 1.516 . S
C1770 C1769 1.516 . S
C1770 C1771 1.502 1_554 S
C1770 C1772 1.561 . S
C1770 C1773 1.526 . S
C1771 H1755 0.959 . S
C1771 H1756 0.959 1_566 S
C1771 H1757 0.961 . S
C1771 C1770 1.502 1_556 S
C1772 H1758 0.960 . S
C1772 H1759 0.961 1_565 S
C1772 H1760 0.959 . S
C1772 C1770 1.561 . S
C1773 C1770 1.526 . S
C1773 C1774 1.396 . S
C1773 C1778 1.390 . S
C1774 C1768 1.465 . S
C1774 C1773 1.396 . S
C1774 C1775 1.399 . S
C1775 H1761 0.929 . S
C1775 C1774 1.399 . S
C1775 C1776 1.385 . S
C1776 H1762 0.931 . S
C1776 C1775 1.385 . S
C1776 C1777 1.389 . S
C1777 C1776 1.389 . S
C1777 C1778 1.387 . S
C1778 H1763 0.932 . S
C1778 C1773 1.390 . S
C1778 C1777 1.387 . S
H1779 C1791 0.930 . S
H1780 C1793 0.930 . S
H1781 C1794 0.930 . S
H1782 C1798 0.959 . S
H1783 C1798 0.959 . S
H1784 C1798 0.961 . S
H1785 C1799 0.960 . S
H1786 C1799 0.961 . S
H1787 C1799 0.959 . S
H1788 C1802 0.929 . S
H1789 C1803 0.931 . S
H1790 C1805 0.930 1_554 S
C1791 H1779 0.930 . S
C1791 C1792 1.399 . S
C1791 C1796 1.405 . S
C1792 C1791 1.399 . S
C1792 C1793 1.376 1_554 S
C1793 H1780 0.930 . S
C1793 C1792 1.376 1_556 S
C1793 C1794 1.388 . S
C1794 H1781 0.930 . S
C1794 C1793 1.388 . S
C1794 C1795 1.390 . S
C1795 C1794 1.390 . S
C1795 C1796 1.384 1_556 S
C1795 C1801 1.465 . S
C1796 C1791 1.405 . S
C1796 C1795 1.384 1_554 S
C1796 C1797 1.519 . S
C1797 C1796 1.519 . S
C1797 C1798 1.502 . S
C1797 C1799 1.561 1_554 S
C1797 C1800 1.526 1_554 S
C1798 H1782 0.959 . S
C1798 H1783 0.959 . S
C1798 H1784 0.961 . S
C1798 C1797 1.502 . S
C1799 H1785 0.960 . S
C1799 H1786 0.961 . S
C1799 H1787 0.959 . S
C1799 C1797 1.561 1_556 S
C1800 C1797 1.526 1_556 S
C1800 C1801 1.396 . S
C1800 C1805 1.390 . S
C1801 C1795 1.465 . S
C1801 C1800 1.396 . S
C1801 C1802 1.399 . S
C1802 H1788 0.929 . S
C1802 C1801 1.399 . S
C1802 C1803 1.385 . S
C1803 H1789 0.931 . S
C1803 C1802 1.385 . S
C1803 C1804 1.389 . S
C1804 C1803 1.389 . S
C1804 C1805 1.387 . S
C1805 H1790 0.930 1_556 S
C1805 C1800 1.390 . S
C1805 C1804 1.387 . S
H1806 C1818 0.930 . S
H1807 C1820 0.930 . S
H1808 C1821 0.930 . S
H1809 C1825 0.959 . S
H1810 C1825 0.959 . S
H1811 C1825 0.961 . S
H1812 C1826 0.960 . S
H1813 C1826 0.961 . S
H1814 C1826 0.959 . S
H1815 C1829 0.929 . S
H1816 C1830 0.931 . S
H1817 C1832 0.930 . S
C1818 H1806 0.930 . S
C1818 C1819 1.399 . S
C1818 C1823 1.399 . S
C1819 C1818 1.399 . S
C1819 C1820 1.376 . S
C1820 H1807 0.930 . S
C1820 C1819 1.376 . S
C1820 C1821 1.388 . S
C1821 H1808 0.930 . S
C1821 C1820 1.388 . S
C1821 C1822 1.390 . S
C1822 C1821 1.390 . S
C1822 C1823 1.394 . S
C1822 C1828 1.465 . S
C1823 C1818 1.399 . S
C1823 C1822 1.394 . S
C1823 C1824 1.516 . S
C1824 C1823 1.516 . S
C1824 C1825 1.502 . S
C1824 C1826 1.561 . S
C1824 C1827 1.526 . S
C1825 H1809 0.959 . S
C1825 H1810 0.959 . S
C1825 H1811 0.961 . S
C1825 C1824 1.502 . S
C1826 H1812 0.960 . S
C1826 H1813 0.961 . S
C1826 H1814 0.959 . S
C1826 C1824 1.561 . S
C1827 C1824 1.526 . S
C1827 C1828 1.396 . S
C1827 C1832 1.390 . S
C1828 C1822 1.465 . S
C1828 C1827 1.396 . S
C1828 C1829 1.399 . S
C1829 H1815 0.929 . S
C1829 C1828 1.399 . S
C1829 C1830 1.385 . S
C1830 H1816 0.931 . S
C1830 C1829 1.385 . S
C1830 C1831 1.389 . S
C1831 C1830 1.389 . S
C1831 C1832 1.387 . S
C1832 H1817 0.930 . S
C1832 C1827 1.390 . S
C1832 C1831 1.387 . S
H1833 C1845 0.930 . S
H1834 C1847 0.930 . S
H1835 C1848 0.930 . S
H1836 C1852 0.959 . S
H1837 C1852 0.959 . S
H1838 C1852 0.961 . S
H1839 C1853 0.960 . S
H1840 C1853 0.961 . S
H1841 C1853 0.959 . S
H1842 C1856 0.929 . S
H1843 C1857 0.931 . S
H1844 C1859 0.930 . S
C1845 H1833 0.930 . S
C1845 C1846 1.399 . S
C1845 C1850 1.399 . S
C1846 C1845 1.399 . S
C1846 C1847 1.376 . S
C1847 H1834 0.930 . S
C1847 C1846 1.376 . S
C1847 C1848 1.388 . S
C1848 H1835 0.930 . S
C1848 C1847 1.388 . S
C1848 C1849 1.390 . S
C1849 C1848 1.390 . S
C1849 C1850 1.394 . S
C1849 C1855 1.465 . S
C1850 C1845 1.399 . S
C1850 C1849 1.394 . S
C1850 C1851 1.516 . S
C1851 C1850 1.516 . S
C1851 C1852 1.502 . S
C1851 C1853 1.561 . S
C1851 C1854 1.526 . S
C1852 H1836 0.959 . S
C1852 H1837 0.959 . S
C1852 H1838 0.961 . S
C1852 C1851 1.502 . S
C1853 H1839 0.960 . S
C1853 H1840 0.961 . S
C1853 H1841 0.959 . S
C1853 C1851 1.561 . S
C1854 C1851 1.526 . S
C1854 C1855 1.396 . S
C1854 C1859 1.390 . S
C1855 C1849 1.465 . S
C1855 C1854 1.396 . S
C1855 C1856 1.399 . S
C1856 H1842 0.929 . S
C1856 C1855 1.399 . S
C1856 C1857 1.385 . S
C1857 H1843 0.931 . S
C1857 C1856 1.385 . S
C1857 C1858 1.389 . S
C1858 C1857 1.389 . S
C1858 C1859 1.387 . S
C1859 H1844 0.930 . S
C1859 C1854 1.390 . S
C1859 C1858 1.387 . S
H1860 C1872 0.930 . S
H1861 C1874 0.930 . S
H1862 C1875 0.930 . S
H1863 C1879 0.959 . S
H1864 C1879 0.959 . S
H1865 C1879 0.961 . S
H1866 C1880 0.960 . S
H1867 C1880 0.961 . S
H1868 C1880 0.959 . S
H1869 C1883 0.929 . S
H1870 C1884 0.931 . S
H1871 C1886 0.930 . S
C1872 H1860 0.930 . S
C1872 C1873 1.399 . S
C1872 C1877 1.399 . S
C1873 C1872 1.399 . S
C1873 C1874 1.376 . S
C1874 H1861 0.930 . S
C1874 C1873 1.376 . S
C1874 C1875 1.388 . S
C1875 H1862 0.930 . S
C1875 C1874 1.388 . S
C1875 C1876 1.390 . S
C1876 C1875 1.390 . S
C1876 C1877 1.394 . S
C1876 C1882 1.465 . S
C1877 C1872 1.399 . S
C1877 C1876 1.394 . S
C1877 C1878 1.516 . S
C1878 C1877 1.516 . S
C1878 C1879 1.502 . S
C1878 C1880 1.561 . S
C1878 C1881 1.526 . S
C1879 H1863 0.959 . S
C1879 H1864 0.959 . S
C1879 H1865 0.961 . S
C1879 C1878 1.502 . S
C1880 H1866 0.960 . S
C1880 H1867 0.961 . S
C1880 H1868 0.959 . S
C1880 C1878 1.561 . S
C1881 C1878 1.526 . S
C1881 C1882 1.396 . S
C1881 C1886 1.390 . S
C1882 C1876 1.465 . S
C1882 C1881 1.396 . S
C1882 C1883 1.399 . S
C1883 H1869 0.929 . S
C1883 C1882 1.399 . S
C1883 C1884 1.385 . S
C1884 H1870 0.931 . S
C1884 C1883 1.385 . S
C1884 C1885 1.389 . S
C1885 C1884 1.389 . S
C1885 C1886 1.387 . S
C1886 H1871 0.930 . S
C1886 C1881 1.390 . S
C1886 C1885 1.387 . S
H1887 C1899 0.930 . S
H1888 C1901 0.930 . S
H1889 C1902 0.930 . S
H1890 C1906 0.959 . S
H1891 C1906 0.959 . S
H1892 C1906 0.961 . S
H1893 C1907 0.960 . S
H1894 C1907 0.961 . S
H1895 C1907 0.959 . S
H1896 C1910 0.929 . S
H1897 C1911 0.931 . S
H1898 C1913 0.930 . S
C1899 H1887 0.930 . S
C1899 C1900 1.399 . S
C1899 C1904 1.399 . S
C1900 C1899 1.399 . S
C1900 C1901 1.376 . S
C1901 H1888 0.930 . S
C1901 C1900 1.376 . S
C1901 C1902 1.388 . S
C1902 H1889 0.930 . S
C1902 C1901 1.388 . S
C1902 C1903 1.390 . S
C1903 C1902 1.390 . S
C1903 C1904 1.394 . S
C1903 C1909 1.465 . S
C1904 C1899 1.399 . S
C1904 C1903 1.394 . S
C1904 C1905 1.516 . S
C1905 C1904 1.516 . S
C1905 C1906 1.502 . S
C1905 C1907 1.561 . S
C1905 C1908 1.526 . S
C1906 H1890 0.959 . S
C1906 H1891 0.959 . S
C1906 H1892 0.961 . S
C1906 C1905 1.502 . S
C1907 H1893 0.960 . S
C1907 H1894 0.961 . S
C1907 H1895 0.959 . S
C1907 C1905 1.561 . S
C1908 C1905 1.526 . S
C1908 C1909 1.396 . S
C1908 C1913 1.390 . S
C1909 C1903 1.465 . S
C1909 C1908 1.396 . S
C1909 C1910 1.399 . S
C1910 H1896 0.929 . S
C1910 C1909 1.399 . S
C1910 C1911 1.385 . S
C1911 H1897 0.931 . S
C1911 C1910 1.385 . S
C1911 C1912 1.389 . S
C1912 C1911 1.389 . S
C1912 C1913 1.387 . S
C1913 H1898 0.930 . S
C1913 C1908 1.390 . S
C1913 C1912 1.387 . S
H1914 C1926 0.930 . S
H1915 C1928 0.930 . S
H1916 C1929 0.930 . S
H1917 C1933 0.959 . S
H1918 C1933 0.959 . S
H1919 C1933 0.961 . S
H1920 C1934 0.960 . S
H1921 C1934 0.961 . S
H1922 C1934 0.959 . S
H1923 C1937 0.929 . S
H1924 C1938 0.931 . S
H1925 C1940 0.930 . S
C1926 H1914 0.930 . S
C1926 C1927 1.399 . S
C1926 C1931 1.399 . S
C1927 C1926 1.399 . S
C1927 C1928 1.376 . S
C1928 H1915 0.930 . S
C1928 C1927 1.376 . S
C1928 C1929 1.388 . S
C1929 H1916 0.930 . S
C1929 C1928 1.388 . S
C1929 C1930 1.390 . S
C1930 C1929 1.390 . S
C1930 C1931 1.394 . S
C1930 C1936 1.465 . S
C1931 C1926 1.399 . S
C1931 C1930 1.394 . S
C1931 C1932 1.516 . S
C1932 C1931 1.516 . S
C1932 C1933 1.502 . S
C1932 C1934 1.561 . S
C1932 C1935 1.526 . S
C1933 H1917 0.959 . S
C1933 H1918 0.959 . S
C1933 H1919 0.961 . S
C1933 C1932 1.502 . S
C1934 H1920 0.960 . S
C1934 H1921 0.961 . S
C1934 H1922 0.959 . S
C1934 C1932 1.561 . S
C1935 C1932 1.526 . S
C1935 C1936 1.396 . S
C1935 C1940 1.390 . S
C1936 C1930 1.465 . S
C1936 C1935 1.396 . S
C1936 C1937 1.399 . S
C1937 H1923 0.929 . S
C1937 C1936 1.399 . S
C1937 C1938 1.385 . S
C1938 H1924 0.931 . S
C1938 C1937 1.385 . S
C1938 C1939 1.389 . S
C1939 C1938 1.389 . S
C1939 C1940 1.387 . S
C1940 H1925 0.930 . S
C1940 C1935 1.390 . S
C1940 C1939 1.387 . S
H1941 C1953 0.930 . S
H1942 C1955 0.930 . S
H1943 C1956 0.930 . S
H1944 C1960 0.959 . S
H1945 C1960 0.959 . S
H1946 C1960 0.961 . S
H1947 C1961 0.960 . S
H1948 C1961 0.961 . S
H1949 C1961 0.959 . S
H1950 C1964 0.929 . S
H1951 C1965 0.931 . S
H1952 C1967 0.930 . S
C1953 H1941 0.930 . S
C1953 C1954 1.399 . S
C1953 C1958 1.399 . S
C1954 C1953 1.399 . S
C1954 C1955 1.376 . S
C1955 H1942 0.930 . S
C1955 C1954 1.376 . S
C1955 C1956 1.388 . S
C1956 H1943 0.930 . S
C1956 C1955 1.388 . S
C1956 C1957 1.390 . S
C1957 C1956 1.390 . S
C1957 C1958 1.394 . S
C1957 C1963 1.465 . S
C1958 C1953 1.399 . S
C1958 C1957 1.394 . S
C1958 C1959 1.516 . S
C1959 C1958 1.516 . S
C1959 C1960 1.502 . S
C1959 C1961 1.561 . S
C1959 C1962 1.526 . S
C1960 H1944 0.959 . S
C1960 H1945 0.959 . S
C1960 H1946 0.961 . S
C1960 C1959 1.502 . S
C1961 H1947 0.960 . S
C1961 H1948 0.961 . S
C1961 H1949 0.959 . S
C1961 C1959 1.561 . S
C1962 C1959 1.526 . S
C1962 C1963 1.396 . S
C1962 C1967 1.390 . S
C1963 C1957 1.465 . S
C1963 C1962 1.396 . S
C1963 C1964 1.399 . S
C1964 H1950 0.929 . S
C1964 C1963 1.399 . S
C1964 C1965 1.385 . S
C1965 H1951 0.931 . S
C1965 C1964 1.385 . S
C1965 C1966 1.389 . S
C1966 C1965 1.389 . S
C1966 C1967 1.387 . S
C1967 H1952 0.930 . S
C1967 C1962 1.390 . S
C1967 C1966 1.387 . S
H1968 C1980 0.930 . S
H1969 C1982 0.930 . S
H1970 C1983 0.930 . S
H1971 C1987 0.959 . S
H1972 C1987 0.959 . S
H1973 C1987 0.961 . S
H1974 C1988 0.960 . S
H1975 C1988 0.961 . S
H1976 C1988 0.959 . S
H1977 C1991 0.929 . S
H1978 C1992 0.931 . S
H1979 C1994 0.930 . S
C1980 H1968 0.930 . S
C1980 C1981 1.399 . S
C1980 C1985 1.399 . S
C1981 C1980 1.399 . S
C1981 C1982 1.376 . S
C1982 H1969 0.930 . S
C1982 C1981 1.376 . S
C1982 C1983 1.388 . S
C1983 H1970 0.930 . S
C1983 C1982 1.388 . S
C1983 C1984 1.390 . S
C1984 C1983 1.390 . S
C1984 C1985 1.394 . S
C1984 C1990 1.465 . S
C1985 C1980 1.399 . S
C1985 C1984 1.394 . S
C1985 C1986 1.516 . S
C1986 C1985 1.516 . S
C1986 C1987 1.502 . S
C1986 C1988 1.561 . S
C1986 C1989 1.526 . S
C1987 H1971 0.959 . S
C1987 H1972 0.959 . S
C1987 H1973 0.961 . S
C1987 C1986 1.502 . S
C1988 H1974 0.960 . S
C1988 H1975 0.961 . S
C1988 H1976 0.959 . S
C1988 C1986 1.561 . S
C1989 C1986 1.526 . S
C1989 C1990 1.396 . S
C1989 C1994 1.390 . S
C1990 C1984 1.465 . S
C1990 C1989 1.396 . S
C1990 C1991 1.399 . S
C1991 H1977 0.929 . S
C1991 C1990 1.399 . S
C1991 C1992 1.385 . S
C1992 H1978 0.931 . S
C1992 C1991 1.385 . S
C1992 C1993 1.389 . S
C1993 C1992 1.389 . S
C1993 C1994 1.387 . S
C1994 H1979 0.930 . S
C1994 C1989 1.390 . S
C1994 C1993 1.387 . S
H1995 C2007 0.930 . S
H1996 C2009 0.930 . S
H1997 C2010 0.930 . S
H1998 C2014 0.959 . S
H1999 C2014 0.959 . S
H2000 C2014 0.961 . S
H2001 C2015 0.960 . S
H2002 C2015 0.961 . S
H2003 C2015 0.959 . S
H2004 C2018 0.929 . S
H2005 C2019 0.931 . S
H2006 C2021 0.930 . S
C2007 H1995 0.930 . S
C2007 C2008 1.399 . S
C2007 C2012 1.399 . S
C2008 C2007 1.399 . S
C2008 C2009 1.376 . S
C2009 H1996 0.930 . S
C2009 C2008 1.376 . S
C2009 C2010 1.388 . S
C2010 H1997 0.930 . S
C2010 C2009 1.388 . S
C2010 C2011 1.390 . S
C2011 C2010 1.390 . S
C2011 C2012 1.394 . S
C2011 C2017 1.465 . S
C2012 C2007 1.399 . S
C2012 C2011 1.394 . S
C2012 C2013 1.516 . S
C2013 C2012 1.516 . S
C2013 C2014 1.502 . S
C2013 C2015 1.561 . S
C2013 C2016 1.526 . S
C2014 H1998 0.959 . S
C2014 H1999 0.959 . S
C2014 H2000 0.961 . S
C2014 C2013 1.502 . S
C2015 H2001 0.960 . S
C2015 H2002 0.961 . S
C2015 H2003 0.959 . S
C2015 C2013 1.561 . S
C2016 C2013 1.526 . S
C2016 C2017 1.396 . S
C2016 C2021 1.390 . S
C2017 C2011 1.465 . S
C2017 C2016 1.396 . S
C2017 C2018 1.399 . S
C2018 H2004 0.929 . S
C2018 C2017 1.399 . S
C2018 C2019 1.385 . S
C2019 H2005 0.931 . S
C2019 C2018 1.385 . S
C2019 C2020 1.389 . S
C2020 C2019 1.389 . S
C2020 C2021 1.387 . S
C2021 H2006 0.930 . S
C2021 C2016 1.390 . S
C2021 C2020 1.387 . S
H2022 C2034 0.930 . S
H2023 C2036 0.930 . S
H2024 C2037 0.930 . S
H2025 C2041 0.959 . S
H2026 C2041 0.959 . S
H2027 C2041 0.961 . S
H2028 C2042 0.960 . S
H2029 C2042 0.961 1_556 S
H2030 C2042 0.959 1_655 S
H2031 C2045 0.929 . S
H2032 C2046 0.931 . S
H2033 C2048 0.930 . S
C2034 H2022 0.930 . S
C2034 C2035 1.399 . S
C2034 C2039 1.399 . S
C2035 C2034 1.399 . S
C2035 C2036 1.376 1_455 S
C2036 H2023 0.930 . S
C2036 C2035 1.376 1_655 S
C2036 C2037 1.388 . S
C2037 H2024 0.930 . S
C2037 C2036 1.388 . S
C2037 C2038 1.390 1_655 S
C2038 C2037 1.390 1_455 S
C2038 C2039 1.394 . S
C2038 C2044 1.465 . S
C2039 C2034 1.399 . S
C2039 C2038 1.394 . S
C2039 C2040 1.516 . S
C2040 C2039 1.516 . S
C2040 C2041 1.502 . S
C2040 C2042 1.561 . S
C2040 C2043 1.526 . S
C2041 H2025 0.959 . S
C2041 H2026 0.959 . S
C2041 H2027 0.961 . S
C2041 C2040 1.502 . S
C2042 H2028 0.960 . S
C2042 H2029 0.961 1_554 S
C2042 H2030 0.959 1_455 S
C2042 C2040 1.561 . S
C2043 C2040 1.526 . S
C2043 C2044 1.396 . S
C2043 C2048 1.390 . S
C2044 C2038 1.465 . S
C2044 C2043 1.396 . S
C2044 C2045 1.399 1_455 S
C2045 H2031 0.929 . S
C2045 C2044 1.399 1_655 S
C2045 C2046 1.385 . S
C2046 H2032 0.931 . S
C2046 C2045 1.385 . S
C2046 C2047 1.389 1_655 S
C2047 C2046 1.389 1_455 S
C2047 C2048 1.387 . S
C2048 H2033 0.930 . S
C2048 C2043 1.390 . S
C2048 C2047 1.387 . S
H2049 C2061 0.930 . S
H2050 C2063 0.930 . S
H2051 C2064 0.930 . S
H2052 C2068 0.959 . S
H2053 C2068 0.959 . S
H2054 C2068 0.961 . S
H2055 C2069 0.960 . S
H2056 C2069 0.961 . S
H2057 C2069 0.959 . S
H2058 C2072 0.929 . S
H2059 C2073 0.931 . S
H2060 C2075 0.930 . S
C2061 H2049 0.930 . S
C2061 C2062 1.399 . S
C2061 C2066 1.399 . S
C2062 C2061 1.399 . S
C2062 C2063 1.376 . S
C2063 H2050 0.930 . S
C2063 C2062 1.376 . S
C2063 C2064 1.388 . S
C2064 H2051 0.930 . S
C2064 C2063 1.388 . S
C2064 C2065 1.390 . S
C2065 C2064 1.390 . S
C2065 C2066 1.394 . S
C2065 C2071 1.465 . S
C2066 C2061 1.399 . S
C2066 C2065 1.394 . S
C2066 C2067 1.516 . S
C2067 C2066 1.516 . S
C2067 C2068 1.502 . S
C2067 C2069 1.561 . S
C2067 C2070 1.526 . S
C2068 H2052 0.959 . S
C2068 H2053 0.959 . S
C2068 H2054 0.961 . S
C2068 C2067 1.502 . S
C2069 H2055 0.960 . S
C2069 H2056 0.961 . S
C2069 H2057 0.959 . S
C2069 C2067 1.561 . S
C2070 C2067 1.526 . S
C2070 C2071 1.396 . S
C2070 C2075 1.390 . S
C2071 C2065 1.465 . S
C2071 C2070 1.396 . S
C2071 C2072 1.399 . S
C2072 H2058 0.929 . S
C2072 C2071 1.399 . S
C2072 C2073 1.385 . S
C2073 H2059 0.931 . S
C2073 C2072 1.385 . S
C2073 C2074 1.389 . S
C2074 C2073 1.389 . S
C2074 C2075 1.387 . S
C2075 H2060 0.930 . S
C2075 C2070 1.390 . S
C2075 C2074 1.387 . S
H2076 C2088 0.930 . S
H2077 C2090 0.930 . S
H2078 C2091 0.930 . S
H2079 C2095 0.959 . S
H2080 C2095 0.959 . S
H2081 C2095 0.961 . S
H2082 C2096 0.960 . S
H2083 C2096 0.961 . S
H2084 C2096 0.959 . S
H2085 C2099 0.929 . S
H2086 C2100 0.931 . S
H2087 C2102 0.930 . S
C2088 H2076 0.930 . S
C2088 C2089 1.399 . S
C2088 C2093 1.399 . S
C2089 C2088 1.399 . S
C2089 C2090 1.376 . S
C2090 H2077 0.930 . S
C2090 C2089 1.376 . S
C2090 C2091 1.388 . S
C2091 H2078 0.930 . S
C2091 C2090 1.388 . S
C2091 C2092 1.390 . S
C2092 C2091 1.390 . S
C2092 C2093 1.394 . S
C2092 C2098 1.465 . S
C2093 C2088 1.399 . S
C2093 C2092 1.394 . S
C2093 C2094 1.516 . S
C2094 C2093 1.516 . S
C2094 C2095 1.502 . S
C2094 C2096 1.561 . S
C2094 C2097 1.526 . S
C2095 H2079 0.959 . S
C2095 H2080 0.959 . S
C2095 H2081 0.961 . S
C2095 C2094 1.502 . S
C2096 H2082 0.960 . S
C2096 H2083 0.961 . S
C2096 H2084 0.959 . S
C2096 C2094 1.561 . S
C2097 C2094 1.526 . S
C2097 C2098 1.396 . S
C2097 C2102 1.390 . S
C2098 C2092 1.465 . S
C2098 C2097 1.396 . S
C2098 C2099 1.399 . S
C2099 H2085 0.929 . S
C2099 C2098 1.399 . S
C2099 C2100 1.385 . S
C2100 H2086 0.931 . S
C2100 C2099 1.385 . S
C2100 C2101 1.389 . S
C2101 C2100 1.389 . S
C2101 C2102 1.387 . S
C2102 H2087 0.930 . S
C2102 C2097 1.390 . S
C2102 C2101 1.387 . S
H2103 C2115 0.930 . S
H2104 C2117 0.930 . S
H2105 C2118 0.930 . S
H2106 C2122 0.959 . S
H2107 C2122 0.959 . S
H2108 C2122 0.961 . S
H2109 C2123 0.960 . S
H2110 C2123 0.961 . S
H2111 C2123 0.959 . S
H2112 C2126 0.929 . S
H2113 C2127 0.931 . S
H2114 C2129 0.930 . S
C2115 H2103 0.930 . S
C2115 C2116 1.399 . S
C2115 C2120 1.399 . S
C2116 C2115 1.399 . S
C2116 C2117 1.376 . S
C2117 H2104 0.930 . S
C2117 C2116 1.376 . S
C2117 C2118 1.388 . S
C2118 H2105 0.930 . S
C2118 C2117 1.388 . S
C2118 C2119 1.390 . S
C2119 C2118 1.390 . S
C2119 C2120 1.394 . S
C2119 C2125 1.465 . S
C2120 C2115 1.399 . S
C2120 C2119 1.394 . S
C2120 C2121 1.516 . S
C2121 C2120 1.516 . S
C2121 C2122 1.502 . S
C2121 C2123 1.561 . S
C2121 C2124 1.526 . S
C2122 H2106 0.959 . S
C2122 H2107 0.959 . S
C2122 H2108 0.961 . S
C2122 C2121 1.502 . S
C2123 H2109 0.960 . S
C2123 H2110 0.961 . S
C2123 H2111 0.959 . S
C2123 C2121 1.561 . S
C2124 C2121 1.526 . S
C2124 C2125 1.396 . S
C2124 C2129 1.390 . S
C2125 C2119 1.465 . S
C2125 C2124 1.396 . S
C2125 C2126 1.399 . S
C2126 H2112 0.929 . S
C2126 C2125 1.399 . S
C2126 C2127 1.385 . S
C2127 H2113 0.931 . S
C2127 C2126 1.385 . S
C2127 C2128 1.389 . S
C2128 C2127 1.389 . S
C2128 C2129 1.387 . S
C2129 H2114 0.930 . S
C2129 C2124 1.390 . S
C2129 C2128 1.387 . S
H2130 C2142 0.930 . S
H2131 C2144 0.930 . S
H2132 C2145 0.930 . S
H2133 C2149 0.959 . S
H2134 C2149 0.959 . S
H2135 C2149 0.961 . S
H2136 C2150 0.960 . S
H2137 C2150 0.961 . S
H2138 C2150 0.959 . S
H2139 C2153 0.932 . S
H2140 C2154 0.936 . S
H2141 C2156 0.930 . S
C2142 H2130 0.930 . S
C2142 C2143 1.399 . S
C2142 C2147 1.399 . S
C2143 C2142 1.399 . S
C2143 C2144 1.376 1_455 S
C2144 H2131 0.930 . S
C2144 C2143 1.376 1_655 S
C2144 C2145 1.388 . S
C2145 H2132 0.930 . S
C2145 C2144 1.388 . S
C2145 C2146 1.390 1_655 S
C2146 C2145 1.390 1_455 S
C2146 C2147 1.394 . S
C2146 C2152 1.465 . S
C2147 C2142 1.399 . S
C2147 C2146 1.394 . S
C2147 C2148 1.516 . S
C2148 C2147 1.516 . S
C2148 C2149 1.502 . S
C2148 C2150 1.561 1_455 S
C2148 C2151 1.526 . S
C2149 H2133 0.959 . S
C2149 H2134 0.959 . S
C2149 H2135 0.961 . S
C2149 C2148 1.502 . S
C2150 H2136 0.960 . S
C2150 H2137 0.961 . S
C2150 H2138 0.959 . S
C2150 C2148 1.561 1_655 S
C2151 C2148 1.526 . S
C2151 C2152 1.396 . S
C2151 C2156 1.390 . S
C2152 C2146 1.465 . S
C2152 C2151 1.396 . S
C2152 C2153 1.397 1_455 S
C2153 H2139 0.932 . S
C2153 C2152 1.397 1_655 S
C2153 C2154 1.384 1_655 S
C2154 H2140 0.936 . S
C2154 C2153 1.384 1_455 S
C2154 C2155 1.389 . S
C2155 C2154 1.389 . S
C2155 C2156 1.387 . S
C2156 H2141 0.930 . S
C2156 C2151 1.390 . S
C2156 C2155 1.387 . S
H2157 C2169 0.930 . S
H2158 C2171 0.930 . S
H2159 C2172 0.930 . S
H2160 C2176 0.959 . S
H2161 C2176 0.959 . S
H2162 C2176 0.961 . S
H2163 C2177 0.960 . S
H2164 C2177 0.961 . S
H2165 C2177 0.959 . S
H2166 C2180 0.929 . S
H2167 C2181 0.931 . S
H2168 C2183 0.930 . S
C2169 H2157 0.930 . S
C2169 C2170 1.399 . S
C2169 C2174 1.399 . S
C2170 C2169 1.399 . S
C2170 C2171 1.376 . S
C2171 H2158 0.930 . S
C2171 C2170 1.376 . S
C2171 C2172 1.388 . S
C2172 H2159 0.930 . S
C2172 C2171 1.388 . S
C2172 C2173 1.390 . S
C2173 C2172 1.390 . S
C2173 C2174 1.394 . S
C2173 C2179 1.465 . S
C2174 C2169 1.399 . S
C2174 C2173 1.394 . S
C2174 C2175 1.516 . S
C2175 C2174 1.516 . S
C2175 C2176 1.502 . S
C2175 C2177 1.561 . S
C2175 C2178 1.526 . S
C2176 H2160 0.959 . S
C2176 H2161 0.959 . S
C2176 H2162 0.961 . S
C2176 C2175 1.502 . S
C2177 H2163 0.960 . S
C2177 H2164 0.961 . S
C2177 H2165 0.959 . S
C2177 C2175 1.561 . S
C2178 C2175 1.526 . S
C2178 C2179 1.396 . S
C2178 C2183 1.390 . S
C2179 C2173 1.465 . S
C2179 C2178 1.396 . S
C2179 C2180 1.399 . S
C2180 H2166 0.929 . S
C2180 C2179 1.399 . S
C2180 C2181 1.385 . S
C2181 H2167 0.931 . S
C2181 C2180 1.385 . S
C2181 C2182 1.389 . S
C2182 C2181 1.389 . S
C2182 C2183 1.387 . S
C2183 H2168 0.930 . S
C2183 C2178 1.390 . S
C2183 C2182 1.387 . S
H2184 C2196 0.930 . S
H2185 C2198 0.930 . S
H2186 C2199 0.930 . S
H2187 C2203 0.959 . S
H2188 C2203 0.959 . S
H2189 C2203 0.961 . S
H2190 C2204 0.960 . S
H2191 C2204 0.961 . S
H2192 C2204 0.959 . S
H2193 C2207 0.929 . S
H2194 C2208 0.931 . S
H2195 C2210 0.930 . S
C2196 H2184 0.930 . S
C2196 C2197 1.399 . S
C2196 C2201 1.399 . S
C2197 C2196 1.399 . S
C2197 C2198 1.376 . S
C2198 H2185 0.930 . S
C2198 C2197 1.376 . S
C2198 C2199 1.388 . S
C2199 H2186 0.930 . S
C2199 C2198 1.388 . S
C2199 C2200 1.390 . S
C2200 C2199 1.390 . S
C2200 C2201 1.394 . S
C2200 C2206 1.465 . S
C2201 C2196 1.399 . S
C2201 C2200 1.394 . S
C2201 C2202 1.516 . S
C2202 C2201 1.516 . S
C2202 C2203 1.502 . S
C2202 C2204 1.561 . S
C2202 C2205 1.526 . S
C2203 H2187 0.959 . S
C2203 H2188 0.959 . S
C2203 H2189 0.961 . S
C2203 C2202 1.502 . S
C2204 H2190 0.960 . S
C2204 H2191 0.961 . S
C2204 H2192 0.959 . S
C2204 C2202 1.561 . S
C2205 C2202 1.526 . S
C2205 C2206 1.396 . S
C2205 C2210 1.390 . S
C2206 C2200 1.465 . S
C2206 C2205 1.396 . S
C2206 C2207 1.399 . S
C2207 H2193 0.929 . S
C2207 C2206 1.399 . S
C2207 C2208 1.385 . S
C2208 H2194 0.931 . S
C2208 C2207 1.385 . S
C2208 C2209 1.389 . S
C2209 C2208 1.389 . S
C2209 C2210 1.387 . S
C2210 H2195 0.930 . S
C2210 C2205 1.390 . S
C2210 C2209 1.387 . S
H2211 C2223 0.930 . S
H2212 C2225 0.930 . S
H2213 C2226 0.930 . S
H2214 C2230 0.959 . S
H2215 C2230 0.959 . S
H2216 C2230 0.961 . S
H2217 C2231 0.960 . S
H2218 C2231 0.961 . S
H2219 C2231 0.959 . S
H2220 C2234 0.929 . S
H2221 C2235 0.931 . S
H2222 C2237 0.930 . S
C2223 H2211 0.930 . S
C2223 C2224 1.399 . S
C2223 C2228 1.399 . S
C2224 C2223 1.399 . S
C2224 C2225 1.376 . S
C2225 H2212 0.930 . S
C2225 C2224 1.376 . S
C2225 C2226 1.388 . S
C2226 H2213 0.930 . S
C2226 C2225 1.388 . S
C2226 C2227 1.390 . S
C2227 C2226 1.390 . S
C2227 C2228 1.394 . S
C2227 C2233 1.465 . S
C2228 C2223 1.399 . S
C2228 C2227 1.394 . S
C2228 C2229 1.516 . S
C2229 C2228 1.516 . S
C2229 C2230 1.502 . S
C2229 C2231 1.561 . S
C2229 C2232 1.526 . S
C2230 H2214 0.959 . S
C2230 H2215 0.959 . S
C2230 H2216 0.961 . S
C2230 C2229 1.502 . S
C2231 H2217 0.960 . S
C2231 H2218 0.961 . S
C2231 H2219 0.959 . S
C2231 C2229 1.561 . S
C2232 C2229 1.526 . S
C2232 C2233 1.396 . S
C2232 C2237 1.390 . S
C2233 C2227 1.465 . S
C2233 C2232 1.396 . S
C2233 C2234 1.399 . S
C2234 H2220 0.929 . S
C2234 C2233 1.399 . S
C2234 C2235 1.385 . S
C2235 H2221 0.931 . S
C2235 C2234 1.385 . S
C2235 C2236 1.389 . S
C2236 C2235 1.389 . S
C2236 C2237 1.387 . S
C2237 H2222 0.930 . S
C2237 C2232 1.390 . S
C2237 C2236 1.387 . S
H2238 C2250 0.930 . S
H2239 C2252 0.930 . S
H2240 C2253 0.930 . S
H2241 C2257 0.959 . S
H2242 C2257 0.959 . S
H2243 C2257 0.961 . S
H2244 C2258 0.960 . S
H2245 C2258 0.961 . S
H2246 C2258 0.959 . S
H2247 C2261 0.929 . S
H2248 C2262 0.931 . S
H2249 C2264 0.930 . S
C2250 H2238 0.930 . S
C2250 C2251 1.399 . S
C2250 C2255 1.399 . S
C2251 C2250 1.399 . S
C2251 C2252 1.376 . S
C2252 H2239 0.930 . S
C2252 C2251 1.376 . S
C2252 C2253 1.388 . S
C2253 H2240 0.930 . S
C2253 C2252 1.388 . S
C2253 C2254 1.390 . S
C2254 C2253 1.390 . S
C2254 C2255 1.394 . S
C2254 C2260 1.465 . S
C2255 C2250 1.399 . S
C2255 C2254 1.394 . S
C2255 C2256 1.516 . S
C2256 C2255 1.516 . S
C2256 C2257 1.502 . S
C2256 C2258 1.561 . S
C2256 C2259 1.526 . S
C2257 H2241 0.959 . S
C2257 H2242 0.959 . S
C2257 H2243 0.961 . S
C2257 C2256 1.502 . S
C2258 H2244 0.960 . S
C2258 H2245 0.961 . S
C2258 H2246 0.959 . S
C2258 C2256 1.561 . S
C2259 C2256 1.526 . S
C2259 C2260 1.396 . S
C2259 C2264 1.390 . S
C2260 C2254 1.465 . S
C2260 C2259 1.396 . S
C2260 C2261 1.399 . S
C2261 H2247 0.929 . S
C2261 C2260 1.399 . S
C2261 C2262 1.385 . S
C2262 H2248 0.931 . S
C2262 C2261 1.385 . S
C2262 C2263 1.389 . S
C2263 C2262 1.389 . S
C2263 C2264 1.387 . S
C2264 H2249 0.930 . S
C2264 C2259 1.390 . S
C2264 C2263 1.387 . S
H2265 C2277 0.930 . S
H2266 C2279 0.930 . S
H2267 C2280 0.930 . S
H2268 C2284 0.959 . S
H2269 C2284 0.959 . S
H2270 C2284 0.961 . S
H2271 C2285 0.960 . S
H2272 C2285 0.961 . S
H2273 C2285 0.959 . S
H2274 C2288 0.929 . S
H2275 C2289 0.931 . S
H2276 C2291 0.930 . S
C2277 H2265 0.930 . S
C2277 C2278 1.399 . S
C2277 C2282 1.399 . S
C2278 C2277 1.399 . S
C2278 C2279 1.376 . S
C2279 H2266 0.930 . S
C2279 C2278 1.376 . S
C2279 C2280 1.388 . S
C2280 H2267 0.930 . S
C2280 C2279 1.388 . S
C2280 C2281 1.390 . S
C2281 C2280 1.390 . S
C2281 C2282 1.394 . S
C2281 C2287 1.465 . S
C2282 C2277 1.399 . S
C2282 C2281 1.394 . S
C2282 C2283 1.516 . S
C2283 C2282 1.516 . S
C2283 C2284 1.502 . S
C2283 C2285 1.561 . S
C2283 C2286 1.526 . S
C2284 H2268 0.959 . S
C2284 H2269 0.959 . S
C2284 H2270 0.961 . S
C2284 C2283 1.502 . S
C2285 H2271 0.960 . S
C2285 H2272 0.961 . S
C2285 H2273 0.959 . S
C2285 C2283 1.561 . S
C2286 C2283 1.526 . S
C2286 C2287 1.396 . S
C2286 C2291 1.390 . S
C2287 C2281 1.465 . S
C2287 C2286 1.396 . S
C2287 C2288 1.399 . S
C2288 H2274 0.929 . S
C2288 C2287 1.399 . S
C2288 C2289 1.385 . S
C2289 H2275 0.931 . S
C2289 C2288 1.385 . S
C2289 C2290 1.389 . S
C2290 C2289 1.389 . S
C2290 C2291 1.387 . S
C2291 H2276 0.930 . S
C2291 C2286 1.390 . S
C2291 C2290 1.387 . S
H2292 C2304 0.930 . S
H2293 C2306 0.930 . S
H2294 C2307 0.930 . S
H2295 C2311 0.959 . S
H2296 C2311 0.959 . S
H2297 C2311 0.961 . S
H2298 C2312 0.960 . S
H2299 C2312 0.961 . S
H2300 C2312 0.959 . S
H2301 C2315 0.929 . S
H2302 C2316 0.931 . S
H2303 C2318 0.930 . S
C2304 H2292 0.930 . S
C2304 C2305 1.399 . S
C2304 C2309 1.399 . S
C2305 C2304 1.399 . S
C2305 C2306 1.376 . S
C2306 H2293 0.930 . S
C2306 C2305 1.376 . S
C2306 C2307 1.388 . S
C2307 H2294 0.930 . S
C2307 C2306 1.388 . S
C2307 C2308 1.390 . S
C2308 C2307 1.390 . S
C2308 C2309 1.394 . S
C2308 C2314 1.465 . S
C2309 C2304 1.399 . S
C2309 C2308 1.394 . S
C2309 C2310 1.516 . S
C2310 C2309 1.516 . S
C2310 C2311 1.502 . S
C2310 C2312 1.561 . S
C2310 C2313 1.526 . S
C2311 H2295 0.959 . S
C2311 H2296 0.959 . S
C2311 H2297 0.961 . S
C2311 C2310 1.502 . S
C2312 H2298 0.960 . S
C2312 H2299 0.961 . S
C2312 H2300 0.959 . S
C2312 C2310 1.561 . S
C2313 C2310 1.526 . S
C2313 C2314 1.396 . S
C2313 C2318 1.390 . S
C2314 C2308 1.465 . S
C2314 C2313 1.396 . S
C2314 C2315 1.399 . S
C2315 H2301 0.929 . S
C2315 C2314 1.399 . S
C2315 C2316 1.385 . S
C2316 H2302 0.931 . S
C2316 C2315 1.385 . S
C2316 C2317 1.389 . S
C2317 C2316 1.389 . S
C2317 C2318 1.387 . S
C2318 H2303 0.930 . S
C2318 C2313 1.390 . S
C2318 C2317 1.387 . S
H2319 C2331 0.930 . S
H2320 C2333 0.930 . S
H2321 C2334 0.930 . S
H2322 C2338 0.959 . S
H2323 C2338 0.959 . S
H2324 C2338 0.961 . S
H2325 C2339 0.960 . S
H2326 C2339 0.961 . S
H2327 C2339 0.959 . S
H2328 C2342 0.929 . S
H2329 C2343 0.931 . S
H2330 C2345 0.930 . S
C2331 H2319 0.930 . S
C2331 C2332 1.399 . S
C2331 C2336 1.399 . S
C2332 C2331 1.399 . S
C2332 C2333 1.376 . S
C2333 H2320 0.930 . S
C2333 C2332 1.376 . S
C2333 C2334 1.388 . S
C2334 H2321 0.930 . S
C2334 C2333 1.388 . S
C2334 C2335 1.390 . S
C2335 C2334 1.390 . S
C2335 C2336 1.394 . S
C2335 C2341 1.465 . S
C2336 C2331 1.399 . S
C2336 C2335 1.394 . S
C2336 C2337 1.516 . S
C2337 C2336 1.516 . S
C2337 C2338 1.502 . S
C2337 C2339 1.561 . S
C2337 C2340 1.526 . S
C2338 H2322 0.959 . S
C2338 H2323 0.959 . S
C2338 H2324 0.961 . S
C2338 C2337 1.502 . S
C2339 H2325 0.960 . S
C2339 H2326 0.961 . S
C2339 H2327 0.959 . S
C2339 C2337 1.561 . S
C2340 C2337 1.526 . S
C2340 C2341 1.396 . S
C2340 C2345 1.390 . S
C2341 C2335 1.465 . S
C2341 C2340 1.396 . S
C2341 C2342 1.399 . S
C2342 H2328 0.929 . S
C2342 C2341 1.399 . S
C2342 C2343 1.385 . S
C2343 H2329 0.931 . S
C2343 C2342 1.385 . S
C2343 C2344 1.389 . S
C2344 C2343 1.389 . S
C2344 C2345 1.387 . S
C2345 H2330 0.930 . S
C2345 C2340 1.390 . S
C2345 C2344 1.387 . S
H2346 C2358 0.930 . S
H2347 C2360 0.930 . S
H2348 C2361 0.930 . S
H2349 C2365 0.959 . S
H2350 C2365 0.959 . S
H2351 C2365 0.961 . S
H2352 C2366 0.960 . S
H2353 C2366 0.961 1_455 S
H2354 C2366 0.959 . S
H2355 C2369 0.929 . S
H2356 C2370 0.931 . S
H2357 C2372 0.930 . S
C2358 H2346 0.930 . S
C2358 C2359 1.399 . S
C2358 C2363 1.399 . S
C2359 C2358 1.399 . S
C2359 C2360 1.376 . S
C2360 H2347 0.930 . S
C2360 C2359 1.376 . S
C2360 C2361 1.388 . S
C2361 H2348 0.930 . S
C2361 C2360 1.388 . S
C2361 C2362 1.390 . S
C2362 C2361 1.390 . S
C2362 C2363 1.394 . S
C2362 C2368 1.465 . S
C2363 C2358 1.399 . S
C2363 C2362 1.394 . S
C2363 C2364 1.516 . S
C2364 C2363 1.516 . S
C2364 C2365 1.502 . S
C2364 C2366 1.561 . S
C2364 C2367 1.526 . S
C2365 H2349 0.959 . S
C2365 H2350 0.959 . S
C2365 H2351 0.961 . S
C2365 C2364 1.502 . S
C2366 H2352 0.960 . S
C2366 H2353 0.961 1_655 S
C2366 H2354 0.959 . S
C2366 C2364 1.561 . S
C2367 C2364 1.526 . S
C2367 C2368 1.396 . S
C2367 C2372 1.390 . S
C2368 C2362 1.465 . S
C2368 C2367 1.396 . S
C2368 C2369 1.399 . S
C2369 H2355 0.929 . S
C2369 C2368 1.399 . S
C2369 C2370 1.385 . S
C2370 H2356 0.931 . S
C2370 C2369 1.385 . S
C2370 C2371 1.389 . S
C2371 C2370 1.389 . S
C2371 C2372 1.387 . S
C2372 H2357 0.930 . S
C2372 C2367 1.390 . S
C2372 C2371 1.387 . S
H2373 C2385 0.930 . S
H2374 C2387 0.930 . S
H2375 C2388 0.930 . S
H2376 C2392 0.959 . S
H2377 C2392 0.959 . S
H2378 C2392 0.961 . S
H2379 C2393 0.960 . S
H2380 C2393 0.961 . S
H2381 C2393 0.959 . S
H2382 C2396 0.929 . S
H2383 C2397 0.931 . S
H2384 C2399 0.930 . S
C2385 H2373 0.930 . S
C2385 C2386 1.399 . S
C2385 C2390 1.399 . S
C2386 C2385 1.399 . S
C2386 C2387 1.376 . S
C2387 H2374 0.930 . S
C2387 C2386 1.376 . S
C2387 C2388 1.388 . S
C2388 H2375 0.930 . S
C2388 C2387 1.388 . S
C2388 C2389 1.390 . S
C2389 C2388 1.390 . S
C2389 C2390 1.394 . S
C2389 C2395 1.465 . S
C2390 C2385 1.399 . S
C2390 C2389 1.394 . S
C2390 C2391 1.516 . S
C2391 C2390 1.516 . S
C2391 C2392 1.502 . S
C2391 C2393 1.561 . S
C2391 C2394 1.526 . S
C2392 H2376 0.959 . S
C2392 H2377 0.959 . S
C2392 H2378 0.961 . S
C2392 C2391 1.502 . S
C2393 H2379 0.960 . S
C2393 H2380 0.961 . S
C2393 H2381 0.959 . S
C2393 C2391 1.561 . S
C2394 C2391 1.526 . S
C2394 C2395 1.396 . S
C2394 C2399 1.390 . S
C2395 C2389 1.465 . S
C2395 C2394 1.396 . S
C2395 C2396 1.399 . S
C2396 H2382 0.929 . S
C2396 C2395 1.399 . S
C2396 C2397 1.385 . S
C2397 H2383 0.931 . S
C2397 C2396 1.385 . S
C2397 C2398 1.389 . S
C2398 C2397 1.389 . S
C2398 C2399 1.387 . S
C2399 H2384 0.930 . S
C2399 C2394 1.390 . S
C2399 C2398 1.387 . S
H2400 C2412 0.930 . S
H2401 C2414 0.930 . S
H2402 C2415 0.930 . S
H2403 C2419 0.959 . S
H2404 C2419 0.959 . S
H2405 C2419 0.961 . S
H2406 C2420 0.960 . S
H2407 C2420 0.961 . S
H2408 C2420 0.959 . S
H2409 C2423 0.929 . S
H2410 C2424 0.931 . S
H2411 C2426 0.930 . S
C2412 H2400 0.930 . S
C2412 C2413 1.399 . S
C2412 C2417 1.399 . S
C2413 C2412 1.399 . S
C2413 C2414 1.376 . S
C2414 H2401 0.930 . S
C2414 C2413 1.376 . S
C2414 C2415 1.388 . S
C2415 H2402 0.930 . S
C2415 C2414 1.388 . S
C2415 C2416 1.390 . S
C2416 C2415 1.390 . S
C2416 C2417 1.394 . S
C2416 C2422 1.465 . S
C2417 C2412 1.399 . S
C2417 C2416 1.394 . S
C2417 C2418 1.516 . S
C2418 C2417 1.516 . S
C2418 C2419 1.502 . S
C2418 C2420 1.561 . S
C2418 C2421 1.526 . S
C2419 H2403 0.959 . S
C2419 H2404 0.959 . S
C2419 H2405 0.961 . S
C2419 C2418 1.502 . S
C2420 H2406 0.960 . S
C2420 H2407 0.961 . S
C2420 H2408 0.959 . S
C2420 C2418 1.561 . S
C2421 C2418 1.526 . S
C2421 C2422 1.396 . S
C2421 C2426 1.390 . S
C2422 C2416 1.465 . S
C2422 C2421 1.396 . S
C2422 C2423 1.399 . S
C2423 H2409 0.929 . S
C2423 C2422 1.399 . S
C2423 C2424 1.385 . S
C2424 H2410 0.931 . S
C2424 C2423 1.385 . S
C2424 C2425 1.389 . S
C2425 C2424 1.389 . S
C2425 C2426 1.387 . S
C2426 H2411 0.930 . S
C2426 C2421 1.390 . S
C2426 C2425 1.387 . S
H2427 C2439 0.930 . S
H2428 C2441 0.930 . S
H2429 C2442 0.930 . S
H2430 C2446 0.959 . S
H2431 C2446 0.959 . S
H2432 C2446 0.961 . S
H2433 C2447 0.960 . S
H2434 C2447 0.961 . S
H2435 C2447 0.959 . S
H2436 C2450 0.929 . S
H2437 C2451 0.931 . S
H2438 C2453 0.930 . S
C2439 H2427 0.930 . S
C2439 C2440 1.399 . S
C2439 C2444 1.399 . S
C2440 C2439 1.399 . S
C2440 C2441 1.376 . S
C2441 H2428 0.930 . S
C2441 C2440 1.376 . S
C2441 C2442 1.388 . S
C2442 H2429 0.930 . S
C2442 C2441 1.388 . S
C2442 C2443 1.390 . S
C2443 C2442 1.390 . S
C2443 C2444 1.394 . S
C2443 C2449 1.465 . S
C2444 C2439 1.399 . S
C2444 C2443 1.394 . S
C2444 C2445 1.516 . S
C2445 C2444 1.516 . S
C2445 C2446 1.502 . S
C2445 C2447 1.561 . S
C2445 C2448 1.526 . S
C2446 H2430 0.959 . S
C2446 H2431 0.959 . S
C2446 H2432 0.961 . S
C2446 C2445 1.502 . S
C2447 H2433 0.960 . S
C2447 H2434 0.961 . S
C2447 H2435 0.959 . S
C2447 C2445 1.561 . S
C2448 C2445 1.526 . S
C2448 C2449 1.396 . S
C2448 C2453 1.390 . S
C2449 C2443 1.465 . S
C2449 C2448 1.396 . S
C2449 C2450 1.399 . S
C2450 H2436 0.929 . S
C2450 C2449 1.399 . S
C2450 C2451 1.385 . S
C2451 H2437 0.931 . S
C2451 C2450 1.385 . S
C2451 C2452 1.389 . S
C2452 C2451 1.389 . S
C2452 C2453 1.387 . S
C2453 H2438 0.930 . S
C2453 C2448 1.390 . S
C2453 C2452 1.387 . S
H2454 C2466 0.930 . S
H2455 C2468 0.930 . S
H2456 C2469 0.930 . S
H2457 C2473 0.959 . S
H2458 C2473 0.959 . S
H2459 C2473 0.961 . S
H2460 C2474 0.960 . S
H2461 C2474 0.961 . S
H2462 C2474 0.959 . S
H2463 C2477 0.929 . S
H2464 C2478 0.931 . S
H2465 C2480 0.930 . S
C2466 H2454 0.930 . S
C2466 C2467 1.399 . S
C2466 C2471 1.399 . S
C2467 C2466 1.399 . S
C2467 C2468 1.376 . S
C2468 H2455 0.930 . S
C2468 C2467 1.376 . S
C2468 C2469 1.388 . S
C2469 H2456 0.930 . S
C2469 C2468 1.388 . S
C2469 C2470 1.390 . S
C2470 C2469 1.390 . S
C2470 C2471 1.394 . S
C2470 C2476 1.465 . S
C2471 C2466 1.399 . S
C2471 C2470 1.394 . S
C2471 C2472 1.516 . S
C2472 C2471 1.516 . S
C2472 C2473 1.502 . S
C2472 C2474 1.561 . S
C2472 C2475 1.526 . S
C2473 H2457 0.959 . S
C2473 H2458 0.959 . S
C2473 H2459 0.961 . S
C2473 C2472 1.502 . S
C2474 H2460 0.960 . S
C2474 H2461 0.961 . S
C2474 H2462 0.959 . S
C2474 C2472 1.561 . S
C2475 C2472 1.526 . S
C2475 C2476 1.396 . S
C2475 C2480 1.390 . S
C2476 C2470 1.465 . S
C2476 C2475 1.396 . S
C2476 C2477 1.399 . S
C2477 H2463 0.929 . S
C2477 C2476 1.399 . S
C2477 C2478 1.385 . S
C2478 H2464 0.931 . S
C2478 C2477 1.385 . S
C2478 C2479 1.389 . S
C2479 C2478 1.389 . S
C2479 C2480 1.387 . S
C2480 H2465 0.930 . S
C2480 C2475 1.390 . S
C2480 C2479 1.387 . S
H2481 C2493 0.930 . S
H2482 C2495 0.930 . S
H2483 C2496 0.930 . S
H2484 C2500 0.959 1_554 S
H2485 C2500 0.959 . S
H2486 C2500 0.961 . S
H2487 C2501 0.960 . S
H2488 C2501 0.961 . S
H2489 C2501 0.959 . S
H2490 C2504 0.929 . S
H2491 C2505 0.931 . S
H2492 C2507 0.955 . S
C2493 H2481 0.930 . S
C2493 C2494 1.399 1_556 S
C2493 C2498 1.394 1_556 S
C2494 C2493 1.399 1_554 S
C2494 C2495 1.376 . S
C2495 H2482 0.930 . S
C2495 C2494 1.376 . S
C2495 C2496 1.388 . S
C2496 H2483 0.930 . S
C2496 C2495 1.388 . S
C2496 C2497 1.390 . S
C2497 C2496 1.390 . S
C2497 C2498 1.418 . S
C2497 C2503 1.465 . S
C2498 C2493 1.394 1_554 S
C2498 C2497 1.418 . S
C2498 C2499 1.501 1_554 S
C2499 C2498 1.501 1_556 S
C2499 C2500 1.502 . S
C2499 C2501 1.561 . S
C2499 C2502 1.526 1_556 S
C2500 H2484 0.959 1_556 S
C2500 H2485 0.959 . S
C2500 H2486 0.961 . S
C2500 C2499 1.502 . S
C2501 H2487 0.960 . S
C2501 H2488 0.961 . S
C2501 H2489 0.959 . S
C2501 C2499 1.561 . S
C2502 C2499 1.526 1_554 S
C2502 C2503 1.396 . S
C2502 C2507 1.387 1_554 S
C2503 C2497 1.465 . S
C2503 C2502 1.396 . S
C2503 C2504 1.399 . S
C2504 H2490 0.929 . S
C2504 C2503 1.399 . S
C2504 C2505 1.385 . S
C2505 H2491 0.931 . S
C2505 C2504 1.385 . S
C2505 C2506 1.389 . S
C2506 C2505 1.389 . S
C2506 C2507 1.365 1_554 S
C2507 H2492 0.955 . S
C2507 C2502 1.387 1_556 S
C2507 C2506 1.365 1_556 S
H2508 C2520 0.930 . S
H2509 C2522 0.930 . S
H2510 C2523 0.930 . S
H2511 C2527 0.959 . S
H2512 C2527 0.959 . S
H2513 C2527 0.961 . S
H2514 C2528 0.960 . S
H2515 C2528 0.961 . S
H2516 C2528 0.959 . S
H2517 C2531 0.929 . S
H2518 C2532 0.931 . S
H2519 C2534 0.930 . S
C2520 H2508 0.930 . S
C2520 C2521 1.399 . S
C2520 C2525 1.399 . S
C2521 C2520 1.399 . S
C2521 C2522 1.376 . S
C2522 H2509 0.930 . S
C2522 C2521 1.376 . S
C2522 C2523 1.388 . S
C2523 H2510 0.930 . S
C2523 C2522 1.388 . S
C2523 C2524 1.390 . S
C2524 C2523 1.390 . S
C2524 C2525 1.394 . S
C2524 C2530 1.465 . S
C2525 C2520 1.399 . S
C2525 C2524 1.394 . S
C2525 C2526 1.516 . S
C2526 C2525 1.516 . S
C2526 C2527 1.502 . S
C2526 C2528 1.561 . S
C2526 C2529 1.526 . S
C2527 H2511 0.959 . S
C2527 H2512 0.959 . S
C2527 H2513 0.961 . S
C2527 C2526 1.502 . S
C2528 H2514 0.960 . S
C2528 H2515 0.961 . S
C2528 H2516 0.959 . S
C2528 C2526 1.561 . S
C2529 C2526 1.526 . S
C2529 C2530 1.396 . S
C2529 C2534 1.390 . S
C2530 C2524 1.465 . S
C2530 C2529 1.396 . S
C2530 C2531 1.399 . S
C2531 H2517 0.929 . S
C2531 C2530 1.399 . S
C2531 C2532 1.385 . S
C2532 H2518 0.931 . S
C2532 C2531 1.385 . S
C2532 C2533 1.389 . S
C2533 C2532 1.389 . S
C2533 C2534 1.387 . S
C2534 H2519 0.930 . S
C2534 C2529 1.390 . S
C2534 C2533 1.387 . S
H2535 C2547 0.930 . S
H2536 C2549 0.930 . S
H2537 C2550 0.930 . S
H2538 C2554 0.959 . S
H2539 C2554 0.959 . S
H2540 C2554 0.961 . S
H2541 C2555 0.960 . S
H2542 C2555 0.961 . S
H2543 C2555 0.959 . S
H2544 C2558 0.929 . S
H2545 C2559 0.931 . S
H2546 C2561 0.930 . S
C2547 H2535 0.930 . S
C2547 C2548 1.399 . S
C2547 C2552 1.399 . S
C2548 C2547 1.399 . S
C2548 C2549 1.376 1_554 S
C2549 H2536 0.930 . S
C2549 C2548 1.376 1_556 S
C2549 C2550 1.388 . S
C2550 H2537 0.930 . S
C2550 C2549 1.388 . S
C2550 C2551 1.390 . S
C2551 C2550 1.390 . S
C2551 C2552 1.394 1_556 S
C2551 C2557 1.465 . S
C2552 C2547 1.399 . S
C2552 C2551 1.394 1_554 S
C2552 C2553 1.516 . S
C2553 C2552 1.516 . S
C2553 C2554 1.502 . S
C2553 C2555 1.561 . S
C2553 C2556 1.526 . S
C2554 H2538 0.959 . S
C2554 H2539 0.959 . S
C2554 H2540 0.961 . S
C2554 C2553 1.502 . S
C2555 H2541 0.960 . S
C2555 H2542 0.961 . S
C2555 H2543 0.959 . S
C2555 C2553 1.561 . S
C2556 C2553 1.526 . S
C2556 C2557 1.396 1_554 S
C2556 C2561 1.390 . S
C2557 C2551 1.465 . S
C2557 C2556 1.396 1_556 S
C2557 C2558 1.399 . S
C2558 H2544 0.929 . S
C2558 C2557 1.399 . S
C2558 C2559 1.385 . S
C2559 H2545 0.931 . S
C2559 C2558 1.385 . S
C2559 C2560 1.389 . S
C2560 C2559 1.389 . S
C2560 C2561 1.387 1_556 S
C2561 H2546 0.930 . S
C2561 C2556 1.390 . S
C2561 C2560 1.387 1_554 S
H2562 C2574 0.930 . S
H2563 C2576 0.930 . S
H2564 C2577 0.930 . S
H2565 C2581 0.959 . S
H2566 C2581 0.959 . S
H2567 C2581 0.961 . S
H2568 C2582 0.960 . S
H2569 C2582 0.961 . S
H2570 C2582 0.959 . S
H2571 C2585 0.929 . S
H2572 C2586 0.931 . S
H2573 C2588 0.930 . S
C2574 H2562 0.930 . S
C2574 C2575 1.399 . S
C2574 C2579 1.399 . S
C2575 C2574 1.399 . S
C2575 C2576 1.376 . S
C2576 H2563 0.930 . S
C2576 C2575 1.376 . S
C2576 C2577 1.388 . S
C2577 H2564 0.930 . S
C2577 C2576 1.388 . S
C2577 C2578 1.390 . S
C2578 C2577 1.390 . S
C2578 C2579 1.394 . S
C2578 C2584 1.465 . S
C2579 C2574 1.399 . S
C2579 C2578 1.394 . S
C2579 C2580 1.516 . S
C2580 C2579 1.516 . S
C2580 C2581 1.502 . S
C2580 C2582 1.561 . S
C2580 C2583 1.526 . S
C2581 H2565 0.959 . S
C2581 H2566 0.959 . S
C2581 H2567 0.961 . S
C2581 C2580 1.502 . S
C2582 H2568 0.960 . S
C2582 H2569 0.961 . S
C2582 H2570 0.959 . S
C2582 C2580 1.561 . S
C2583 C2580 1.526 . S
C2583 C2584 1.396 . S
C2583 C2588 1.390 . S
C2584 C2578 1.465 . S
C2584 C2583 1.396 . S
C2584 C2585 1.399 . S
C2585 H2571 0.929 . S
C2585 C2584 1.399 . S
C2585 C2586 1.385 . S
C2586 H2572 0.931 . S
C2586 C2585 1.385 . S
C2586 C2587 1.389 . S
C2587 C2586 1.389 . S
C2587 C2588 1.387 . S
C2588 H2573 0.930 . S
C2588 C2583 1.390 . S
C2588 C2587 1.387 . S
H2589 C2601 0.930 . S
H2590 C2603 0.930 . S
H2591 C2604 0.930 . S
H2592 C2608 0.959 . S
H2593 C2608 0.959 . S
H2594 C2608 0.961 . S
H2595 C2609 0.960 . S
H2596 C2609 0.961 . S
H2597 C2609 0.959 . S
H2598 C2612 0.929 . S
H2599 C2613 0.931 . S
H2600 C2615 0.930 . S
C2601 H2589 0.930 . S
C2601 C2602 1.399 . S
C2601 C2606 1.399 . S
C2602 C2601 1.399 . S
C2602 C2603 1.376 . S
C2603 H2590 0.930 . S
C2603 C2602 1.376 . S
C2603 C2604 1.388 . S
C2604 H2591 0.930 . S
C2604 C2603 1.388 . S
C2604 C2605 1.390 . S
C2605 C2604 1.390 . S
C2605 C2606 1.394 . S
C2605 C2611 1.465 . S
C2606 C2601 1.399 . S
C2606 C2605 1.394 . S
C2606 C2607 1.516 . S
C2607 C2606 1.516 . S
C2607 C2608 1.502 . S
C2607 C2609 1.561 . S
C2607 C2610 1.526 . S
C2608 H2592 0.959 . S
C2608 H2593 0.959 . S
C2608 H2594 0.961 . S
C2608 C2607 1.502 . S
C2609 H2595 0.960 . S
C2609 H2596 0.961 . S
C2609 H2597 0.959 . S
C2609 C2607 1.561 . S
C2610 C2607 1.526 . S
C2610 C2611 1.396 . S
C2610 C2615 1.390 . S
C2611 C2605 1.465 . S
C2611 C2610 1.396 . S
C2611 C2612 1.399 . S
C2612 H2598 0.929 . S
C2612 C2611 1.399 . S
C2612 C2613 1.385 . S
C2613 H2599 0.931 . S
C2613 C2612 1.385 . S
C2613 C2614 1.389 . S
C2614 C2613 1.389 . S
C2614 C2615 1.387 . S
C2615 H2600 0.930 . S
C2615 C2610 1.390 . S
C2615 C2614 1.387 . S
H2616 C2628 0.930 . S
H2617 C2630 0.930 . S
H2618 C2631 0.930 . S
H2619 C2635 0.959 . S
H2620 C2635 0.959 . S
H2621 C2635 0.961 . S
H2622 C2636 0.960 . S
H2623 C2636 0.961 . S
H2624 C2636 0.959 . S
H2625 C2639 0.929 . S
H2626 C2640 0.931 . S
H2627 C2642 0.930 . S
C2628 H2616 0.930 . S
C2628 C2629 1.399 . S
C2628 C2633 1.399 . S
C2629 C2628 1.399 . S
C2629 C2630 1.376 . S
C2630 H2617 0.930 . S
C2630 C2629 1.376 . S
C2630 C2631 1.388 . S
C2631 H2618 0.930 . S
C2631 C2630 1.388 . S
C2631 C2632 1.390 . S
C2632 C2631 1.390 . S
C2632 C2633 1.394 . S
C2632 C2638 1.465 . S
C2633 C2628 1.399 . S
C2633 C2632 1.394 . S
C2633 C2634 1.516 . S
C2634 C2633 1.516 . S
C2634 C2635 1.502 . S
C2634 C2636 1.561 . S
C2634 C2637 1.526 . S
C2635 H2619 0.959 . S
C2635 H2620 0.959 . S
C2635 H2621 0.961 . S
C2635 C2634 1.502 . S
C2636 H2622 0.960 . S
C2636 H2623 0.961 . S
C2636 H2624 0.959 . S
C2636 C2634 1.561 . S
C2637 C2634 1.526 . S
C2637 C2638 1.396 . S
C2637 C2642 1.390 . S
C2638 C2632 1.465 . S
C2638 C2637 1.396 . S
C2638 C2639 1.399 . S
C2639 H2625 0.929 . S
C2639 C2638 1.399 . S
C2639 C2640 1.385 . S
C2640 H2626 0.931 . S
C2640 C2639 1.385 . S
C2640 C2641 1.389 . S
C2641 C2640 1.389 . S
C2641 C2642 1.387 . S
C2642 H2627 0.930 . S
C2642 C2637 1.390 . S
C2642 C2641 1.387 . S
H2643 C2655 0.930 . S
H2644 C2657 0.930 . S
H2645 C2658 0.930 . S
H2646 C2662 0.959 . S
H2647 C2662 0.959 . S
H2648 C2662 0.961 . S
H2649 C2663 0.960 . S
H2650 C2663 0.961 . S
H2651 C2663 0.959 . S
H2652 C2666 0.929 . S
H2653 C2667 0.931 . S
H2654 C2669 0.930 . S
C2655 H2643 0.930 . S
C2655 C2656 1.399 . S
C2655 C2660 1.399 . S
C2656 C2655 1.399 . S
C2656 C2657 1.376 . S
C2657 H2644 0.930 . S
C2657 C2656 1.376 . S
C2657 C2658 1.388 . S
C2658 H2645 0.930 . S
C2658 C2657 1.388 . S
C2658 C2659 1.390 . S
C2659 C2658 1.390 . S
C2659 C2660 1.394 . S
C2659 C2665 1.465 . S
C2660 C2655 1.399 . S
C2660 C2659 1.394 . S
C2660 C2661 1.516 . S
C2661 C2660 1.516 . S
C2661 C2662 1.502 . S
C2661 C2663 1.561 . S
C2661 C2664 1.526 . S
C2662 H2646 0.959 . S
C2662 H2647 0.959 . S
C2662 H2648 0.961 . S
C2662 C2661 1.502 . S
C2663 H2649 0.960 . S
C2663 H2650 0.961 . S
C2663 H2651 0.959 . S
C2663 C2661 1.561 . S
C2664 C2661 1.526 . S
C2664 C2665 1.396 . S
C2664 C2669 1.390 . S
C2665 C2659 1.465 . S
C2665 C2664 1.396 . S
C2665 C2666 1.399 . S
C2666 H2652 0.929 . S
C2666 C2665 1.399 . S
C2666 C2667 1.385 . S
C2667 H2653 0.931 . S
C2667 C2666 1.385 . S
C2667 C2668 1.389 . S
C2668 C2667 1.389 . S
C2668 C2669 1.387 . S
C2669 H2654 0.930 . S
C2669 C2664 1.390 . S
C2669 C2668 1.387 . S
H2670 C2682 0.930 . S
H2671 C2684 0.930 . S
H2672 C2685 0.930 . S
H2673 C2689 0.959 . S
H2674 C2689 0.959 . S
H2675 C2689 0.961 . S
H2676 C2690 0.960 . S
H2677 C2690 0.961 . S
H2678 C2690 0.959 1_455 S
H2679 C2693 0.929 . S
H2680 C2694 0.931 . S
H2681 C2696 0.930 . S
C2682 H2670 0.930 . S
C2682 C2683 1.399 1_655 S
C2682 C2687 1.399 . S
C2683 C2682 1.399 1_455 S
C2683 C2684 1.376 . S
C2684 H2671 0.930 . S
C2684 C2683 1.376 . S
C2684 C2685 1.388 . S
C2685 H2672 0.930 . S
C2685 C2684 1.388 . S
C2685 C2686 1.390 . S
C2686 C2685 1.390 . S
C2686 C2687 1.394 1_455 S
C2686 C2692 1.465 . S
C2687 C2682 1.399 . S
C2687 C2686 1.394 1_655 S
C2687 C2688 1.516 . S
C2688 C2687 1.516 . S
C2688 C2689 1.502 . S
C2688 C2690 1.561 . S
C2688 C2691 1.526 . S
C2689 H2673 0.959 . S
C2689 H2674 0.959 . S
C2689 H2675 0.961 . S
C2689 C2688 1.502 . S
C2690 H2676 0.960 . S
C2690 H2677 0.961 . S
C2690 H2678 0.959 1_655 S
C2690 C2688 1.561 . S
C2691 C2688 1.526 . S
C2691 C2692 1.396 1_655 S
C2691 C2696 1.390 . S
C2692 C2686 1.465 . S
C2692 C2691 1.396 1_455 S
C2692 C2693 1.399 . S
C2693 H2679 0.929 . S
C2693 C2692 1.399 . S
C2693 C2694 1.385 . S
C2694 H2680 0.931 . S
C2694 C2693 1.385 . S
C2694 C2695 1.382 1_455 S
C2695 C2694 1.382 1_655 S
C2695 C2696 1.392 . S
C2696 H2681 0.930 . S
C2696 C2691 1.390 . S
C2696 C2695 1.392 . S
H2697 C2709 0.930 . S
H2698 C2711 0.930 . S
H2699 C2712 0.930 . S
H2700 C2716 0.959 . S
H2701 C2716 0.959 . S
H2702 C2716 0.961 . S
H2703 C2717 0.960 . S
H2704 C2717 0.961 . S
H2705 C2717 0.959 . S
H2706 C2720 0.929 . S
H2707 C2721 0.931 . S
H2708 C2723 0.930 . S
C2709 H2697 0.930 . S
C2709 C2710 1.399 . S
C2709 C2714 1.399 . S
C2710 C2709 1.399 . S
C2710 C2711 1.376 . S
C2711 H2698 0.930 . S
C2711 C2710 1.376 . S
C2711 C2712 1.388 . S
C2712 H2699 0.930 . S
C2712 C2711 1.388 . S
C2712 C2713 1.390 . S
C2713 C2712 1.390 . S
C2713 C2714 1.394 . S
C2713 C2719 1.465 . S
C2714 C2709 1.399 . S
C2714 C2713 1.394 . S
C2714 C2715 1.516 . S
C2715 C2714 1.516 . S
C2715 C2716 1.502 . S
C2715 C2717 1.561 . S
C2715 C2718 1.526 . S
C2716 H2700 0.959 . S
C2716 H2701 0.959 . S
C2716 H2702 0.961 . S
C2716 C2715 1.502 . S
C2717 H2703 0.960 . S
C2717 H2704 0.961 . S
C2717 H2705 0.959 . S
C2717 C2715 1.561 . S
C2718 C2715 1.526 . S
C2718 C2719 1.396 . S
C2718 C2723 1.390 . S
C2719 C2713 1.465 . S
C2719 C2718 1.396 . S
C2719 C2720 1.399 . S
C2720 H2706 0.929 . S
C2720 C2719 1.399 . S
C2720 C2721 1.385 . S
C2721 H2707 0.931 . S
C2721 C2720 1.385 . S
C2721 C2722 1.389 . S
C2722 C2721 1.389 . S
C2722 C2723 1.387 . S
C2723 H2708 0.930 . S
C2723 C2718 1.390 . S
C2723 C2722 1.387 . S
H2724 C2736 0.930 . S
H2725 C2738 0.930 . S
H2726 C2739 0.930 . S
H2727 C2743 0.959 . S
H2728 C2743 0.959 . S
H2729 C2743 0.961 . S
H2730 C2744 0.960 . S
H2731 C2744 0.961 . S
H2732 C2744 0.959 . S
H2733 C2747 0.929 . S
H2734 C2748 0.931 . S
H2735 C2750 0.930 . S
C2736 H2724 0.930 . S
C2736 C2737 1.399 . S
C2736 C2741 1.399 . S
C2737 C2736 1.399 . S
C2737 C2738 1.376 . S
C2738 H2725 0.930 . S
C2738 C2737 1.376 . S
C2738 C2739 1.388 . S
C2739 H2726 0.930 . S
C2739 C2738 1.388 . S
C2739 C2740 1.390 . S
C2740 C2739 1.390 . S
C2740 C2741 1.394 . S
C2740 C2746 1.465 . S
C2741 C2736 1.399 . S
C2741 C2740 1.394 . S
C2741 C2742 1.516 . S
C2742 C2741 1.516 . S
C2742 C2743 1.502 . S
C2742 C2744 1.561 . S
C2742 C2745 1.526 . S
C2743 H2727 0.959 . S
C2743 H2728 0.959 . S
C2743 H2729 0.961 . S
C2743 C2742 1.502 . S
C2744 H2730 0.960 . S
C2744 H2731 0.961 . S
C2744 H2732 0.959 . S
C2744 C2742 1.561 . S
C2745 C2742 1.526 . S
C2745 C2746 1.396 . S
C2745 C2750 1.390 . S
C2746 C2740 1.465 . S
C2746 C2745 1.396 . S
C2746 C2747 1.399 . S
C2747 H2733 0.929 . S
C2747 C2746 1.399 . S
C2747 C2748 1.385 . S
C2748 H2734 0.931 . S
C2748 C2747 1.385 . S
C2748 C2749 1.389 . S
C2749 C2748 1.389 . S
C2749 C2750 1.387 . S
C2750 H2735 0.930 . S
C2750 C2745 1.390 . S
C2750 C2749 1.387 . S
H2751 C2763 0.930 . S
H2752 C2765 0.930 . S
H2753 C2766 0.930 . S
H2754 C2770 0.959 . S
H2755 C2770 0.959 . S
H2756 C2770 0.961 . S
H2757 C2771 0.960 . S
H2758 C2771 0.961 . S
H2759 C2771 0.959 . S
H2760 C2774 0.929 . S
H2761 C2775 0.931 . S
H2762 C2777 0.930 . S
C2763 H2751 0.930 . S
C2763 C2764 1.399 . S
C2763 C2768 1.399 . S
C2764 C2763 1.399 . S
C2764 C2765 1.376 . S
C2765 H2752 0.930 . S
C2765 C2764 1.376 . S
C2765 C2766 1.388 . S
C2766 H2753 0.930 . S
C2766 C2765 1.388 . S
C2766 C2767 1.390 . S
C2767 C2766 1.390 . S
C2767 C2768 1.394 . S
C2767 C2773 1.465 . S
C2768 C2763 1.399 . S
C2768 C2767 1.394 . S
C2768 C2769 1.516 . S
C2769 C2768 1.516 . S
C2769 C2770 1.502 . S
C2769 C2771 1.561 . S
C2769 C2772 1.526 . S
C2770 H2754 0.959 . S
C2770 H2755 0.959 . S
C2770 H2756 0.961 . S
C2770 C2769 1.502 . S
C2771 H2757 0.960 . S
C2771 H2758 0.961 . S
C2771 H2759 0.959 . S
C2771 C2769 1.561 . S
C2772 C2769 1.526 . S
C2772 C2773 1.396 . S
C2772 C2777 1.390 . S
C2773 C2767 1.465 . S
C2773 C2772 1.396 . S
C2773 C2774 1.399 . S
C2774 H2760 0.929 . S
C2774 C2773 1.399 . S
C2774 C2775 1.385 . S
C2775 H2761 0.931 . S
C2775 C2774 1.385 . S
C2775 C2776 1.389 . S
C2776 C2775 1.389 . S
C2776 C2777 1.387 . S
C2777 H2762 0.930 . S
C2777 C2772 1.390 . S
C2777 C2776 1.387 . S
H2778 C2790 0.930 . S
H2779 C2792 0.930 . S
H2780 C2793 0.930 . S
H2781 C2797 0.959 . S
H2782 C2797 0.959 . S
H2783 C2797 0.961 . S
H2784 C2798 0.960 . S
H2785 C2798 0.961 1_655 S
H2786 C2798 0.959 . S
H2787 C2801 0.929 . S
H2788 C2802 0.931 . S
H2789 C2804 0.930 . S
C2790 H2778 0.930 . S
C2790 C2791 1.399 1_655 S
C2790 C2795 1.399 . S
C2791 C2790 1.399 1_455 S
C2791 C2792 1.376 . S
C2792 H2779 0.930 . S
C2792 C2791 1.376 . S
C2792 C2793 1.388 . S
C2793 H2780 0.930 . S
C2793 C2792 1.388 . S
C2793 C2794 1.390 . S
C2794 C2793 1.390 . S
C2794 C2795 1.394 1_455 S
C2794 C2800 1.465 . S
C2795 C2790 1.399 . S
C2795 C2794 1.394 1_655 S
C2795 C2796 1.516 . S
C2796 C2795 1.516 . S
C2796 C2797 1.502 . S
C2796 C2798 1.561 1_655 S
C2796 C2799 1.526 . S
C2797 H2781 0.959 . S
C2797 H2782 0.959 . S
C2797 H2783 0.961 . S
C2797 C2796 1.502 . S
C2798 H2784 0.960 . S
C2798 H2785 0.961 1_455 S
C2798 H2786 0.959 . S
C2798 C2796 1.561 1_455 S
C2799 C2796 1.526 . S
C2799 C2800 1.396 1_655 S
C2799 C2804 1.390 . S
C2800 C2794 1.465 . S
C2800 C2799 1.396 1_455 S
C2800 C2801 1.399 . S
C2801 H2787 0.929 . S
C2801 C2800 1.399 . S
C2801 C2802 1.385 . S
C2802 H2788 0.931 . S
C2802 C2801 1.385 . S
C2802 C2803 1.389 1_455 S
C2803 C2802 1.389 1_655 S
C2803 C2804 1.387 . S
C2804 H2789 0.930 . S
C2804 C2799 1.390 . S
C2804 C2803 1.387 . S
H2805 C2817 0.930 . S
H2806 C2819 0.930 . S
H2807 C2820 0.930 . S
H2808 C2824 0.959 . S
H2809 C2824 0.959 . S
H2810 C2824 0.961 . S
H2811 C2825 0.960 . S
H2812 C2825 0.961 . S
H2813 C2825 0.959 . S
H2814 C2828 0.929 . S
H2815 C2829 0.931 . S
H2816 C2831 0.930 . S
C2817 H2805 0.930 . S
C2817 C2818 1.399 . S
C2817 C2822 1.399 . S
C2818 C2817 1.399 . S
C2818 C2819 1.376 . S
C2819 H2806 0.930 . S
C2819 C2818 1.376 . S
C2819 C2820 1.388 . S
C2820 H2807 0.930 . S
C2820 C2819 1.388 . S
C2820 C2821 1.390 . S
C2821 C2820 1.390 . S
C2821 C2822 1.394 . S
C2821 C2827 1.465 . S
C2822 C2817 1.399 . S
C2822 C2821 1.394 . S
C2822 C2823 1.516 . S
C2823 C2822 1.516 . S
C2823 C2824 1.502 . S
C2823 C2825 1.561 . S
C2823 C2826 1.526 . S
C2824 H2808 0.959 . S
C2824 H2809 0.959 . S
C2824 H2810 0.961 . S
C2824 C2823 1.502 . S
C2825 H2811 0.960 . S
C2825 H2812 0.961 . S
C2825 H2813 0.959 . S
C2825 C2823 1.561 . S
C2826 C2823 1.526 . S
C2826 C2827 1.396 . S
C2826 C2831 1.390 . S
C2827 C2821 1.465 . S
C2827 C2826 1.396 . S
C2827 C2828 1.399 . S
C2828 H2814 0.929 . S
C2828 C2827 1.399 . S
C2828 C2829 1.385 . S
C2829 H2815 0.931 . S
C2829 C2828 1.385 . S
C2829 C2830 1.389 . S
C2830 C2829 1.389 . S
C2830 C2831 1.387 . S
C2831 H2816 0.930 . S
C2831 C2826 1.390 . S
C2831 C2830 1.387 . S
H2832 C2844 0.930 . S
H2833 C2846 0.930 . S
H2834 C2847 0.930 . S
H2835 C2851 0.959 . S
H2836 C2851 0.959 . S
H2837 C2851 0.961 . S
H2838 C2852 0.960 . S
H2839 C2852 0.961 . S
H2840 C2852 0.959 . S
H2841 C2855 0.929 . S
H2842 C2856 0.931 . S
H2843 C2858 0.930 . S
C2844 H2832 0.930 . S
C2844 C2845 1.399 . S
C2844 C2849 1.399 . S
C2845 C2844 1.399 . S
C2845 C2846 1.376 . S
C2846 H2833 0.930 . S
C2846 C2845 1.376 . S
C2846 C2847 1.388 . S
C2847 H2834 0.930 . S
C2847 C2846 1.388 . S
C2847 C2848 1.390 . S
C2848 C2847 1.390 . S
C2848 C2849 1.394 . S
C2848 C2854 1.465 . S
C2849 C2844 1.399 . S
C2849 C2848 1.394 . S
C2849 C2850 1.516 . S
C2850 C2849 1.516 . S
C2850 C2851 1.502 . S
C2850 C2852 1.561 . S
C2850 C2853 1.526 . S
C2851 H2835 0.959 . S
C2851 H2836 0.959 . S
C2851 H2837 0.961 . S
C2851 C2850 1.502 . S
C2852 H2838 0.960 . S
C2852 H2839 0.961 . S
C2852 H2840 0.959 . S
C2852 C2850 1.561 . S
C2853 C2850 1.526 . S
C2853 C2854 1.396 . S
C2853 C2858 1.390 . S
C2854 C2848 1.465 . S
C2854 C2853 1.396 . S
C2854 C2855 1.399 . S
C2855 H2841 0.929 . S
C2855 C2854 1.399 . S
C2855 C2856 1.385 . S
C2856 H2842 0.931 . S
C2856 C2855 1.385 . S
C2856 C2857 1.389 . S
C2857 C2856 1.389 . S
C2857 C2858 1.387 . S
C2858 H2843 0.930 . S
C2858 C2853 1.390 . S
C2858 C2857 1.387 . S
H2859 C2871 0.930 . S
H2860 C2873 0.930 . S
H2861 C2874 0.930 . S
H2862 C2878 0.959 . S
H2863 C2878 0.959 . S
H2864 C2878 0.961 . S
H2865 C2879 0.960 . S
H2866 C2879 0.961 . S
H2867 C2879 0.959 . S
H2868 C2882 0.929 . S
H2869 C2883 0.931 . S
H2870 C2885 0.930 . S
C2871 H2859 0.930 . S
C2871 C2872 1.399 . S
C2871 C2876 1.399 . S
C2872 C2871 1.399 . S
C2872 C2873 1.376 . S
C2873 H2860 0.930 . S
C2873 C2872 1.376 . S
C2873 C2874 1.388 . S
C2874 H2861 0.930 . S
C2874 C2873 1.388 . S
C2874 C2875 1.390 . S
C2875 C2874 1.390 . S
C2875 C2876 1.394 . S
C2875 C2881 1.465 . S
C2876 C2871 1.399 . S
C2876 C2875 1.394 . S
C2876 C2877 1.516 . S
C2877 C2876 1.516 . S
C2877 C2878 1.502 . S
C2877 C2879 1.561 . S
C2877 C2880 1.526 . S
C2878 H2862 0.959 . S
C2878 H2863 0.959 . S
C2878 H2864 0.961 . S
C2878 C2877 1.502 . S
C2879 H2865 0.960 . S
C2879 H2866 0.961 . S
C2879 H2867 0.959 . S
C2879 C2877 1.561 . S
C2880 C2877 1.526 . S
C2880 C2881 1.396 . S
C2880 C2885 1.390 . S
C2881 C2875 1.465 . S
C2881 C2880 1.396 . S
C2881 C2882 1.399 . S
C2882 H2868 0.929 . S
C2882 C2881 1.399 . S
C2882 C2883 1.385 . S
C2883 H2869 0.931 . S
C2883 C2882 1.385 . S
C2883 C2884 1.389 . S
C2884 C2883 1.389 . S
C2884 C2885 1.387 . S
C2885 H2870 0.930 . S
C2885 C2880 1.390 . S
C2885 C2884 1.387 . S
H2886 C2898 0.930 . S
H2887 C2900 0.930 . S
H2888 C2901 0.930 . S
H2889 C2905 0.959 . S
H2890 C2905 0.959 . S
H2891 C2905 0.961 . S
H2892 C2906 0.960 . S
H2893 C2906 0.961 . S
H2894 C2906 0.959 . S
H2895 C2909 0.929 . S
H2896 C2910 0.931 . S
H2897 C2912 0.930 . S
C2898 H2886 0.930 . S
C2898 C2899 1.399 . S
C2898 C2903 1.399 . S
C2899 C2898 1.399 . S
C2899 C2900 1.376 . S
C2900 H2887 0.930 . S
C2900 C2899 1.376 . S
C2900 C2901 1.388 . S
C2901 H2888 0.930 . S
C2901 C2900 1.388 . S
C2901 C2902 1.390 . S
C2902 C2901 1.390 . S
C2902 C2903 1.394 . S
C2902 C2908 1.465 . S
C2903 C2898 1.399 . S
C2903 C2902 1.394 . S
C2903 C2904 1.516 . S
C2904 C2903 1.516 . S
C2904 C2905 1.502 . S
C2904 C2906 1.561 . S
C2904 C2907 1.526 . S
C2905 H2889 0.959 . S
C2905 H2890 0.959 . S
C2905 H2891 0.961 . S
C2905 C2904 1.502 . S
C2906 H2892 0.960 . S
C2906 H2893 0.961 . S
C2906 H2894 0.959 . S
C2906 C2904 1.561 . S
C2907 C2904 1.526 . S
C2907 C2908 1.396 . S
C2907 C2912 1.390 . S
C2908 C2902 1.465 . S
C2908 C2907 1.396 . S
C2908 C2909 1.399 . S
C2909 H2895 0.929 . S
C2909 C2908 1.399 . S
C2909 C2910 1.385 . S
C2910 H2896 0.931 . S
C2910 C2909 1.385 . S
C2910 C2911 1.389 . S
C2911 C2910 1.389 . S
C2911 C2912 1.387 . S
C2912 H2897 0.930 . S
C2912 C2907 1.390 . S
C2912 C2911 1.387 . S
H2913 C2925 0.930 . S
H2914 C2927 0.930 . S
H2915 C2928 0.930 . S
H2916 C2932 0.959 . S
H2917 C2932 0.959 . S
H2918 C2932 0.961 . S
H2919 C2933 0.960 . S
H2920 C2933 0.961 . S
H2921 C2933 0.959 . S
H2922 C2936 0.929 . S
H2923 C2937 0.931 . S
H2924 C2939 0.930 . S
C2925 H2913 0.930 . S
C2925 C2926 1.399 . S
C2925 C2930 1.399 . S
C2926 C2925 1.399 . S
C2926 C2927 1.376 . S
C2927 H2914 0.930 . S
C2927 C2926 1.376 . S
C2927 C2928 1.388 . S
C2928 H2915 0.930 . S
C2928 C2927 1.388 . S
C2928 C2929 1.390 . S
C2929 C2928 1.390 . S
C2929 C2930 1.394 . S
C2929 C2935 1.465 . S
C2930 C2925 1.399 . S
C2930 C2929 1.394 . S
C2930 C2931 1.516 . S
C2931 C2930 1.516 . S
C2931 C2932 1.502 . S
C2931 C2933 1.561 . S
C2931 C2934 1.526 . S
C2932 H2916 0.959 . S
C2932 H2917 0.959 . S
C2932 H2918 0.961 . S
C2932 C2931 1.502 . S
C2933 H2919 0.960 . S
C2933 H2920 0.961 . S
C2933 H2921 0.959 . S
C2933 C2931 1.561 . S
C2934 C2931 1.526 . S
C2934 C2935 1.396 . S
C2934 C2939 1.390 . S
C2935 C2929 1.465 . S
C2935 C2934 1.396 . S
C2935 C2936 1.399 . S
C2936 H2922 0.929 . S
C2936 C2935 1.399 . S
C2936 C2937 1.385 . S
C2937 H2923 0.931 . S
C2937 C2936 1.385 . S
C2937 C2938 1.389 . S
C2938 C2937 1.389 . S
C2938 C2939 1.387 . S
C2939 H2924 0.930 . S
C2939 C2934 1.390 . S
C2939 C2938 1.387 . S
H2940 C2952 0.930 . S
H2941 C2954 0.930 . S
H2942 C2955 0.930 . S
H2943 C2959 0.959 . S
H2944 C2959 0.959 . S
H2945 C2959 0.961 . S
H2946 C2960 0.960 . S
H2947 C2960 0.961 . S
H2948 C2960 0.959 . S
H2949 C2963 0.929 . S
H2950 C2964 0.931 . S
H2951 C2966 0.930 . S
C2952 H2940 0.930 . S
C2952 C2953 1.399 . S
C2952 C2957 1.399 . S
C2953 C2952 1.399 . S
C2953 C2954 1.376 . S
C2954 H2941 0.930 . S
C2954 C2953 1.376 . S
C2954 C2955 1.388 . S
C2955 H2942 0.930 . S
C2955 C2954 1.388 . S
C2955 C2956 1.390 . S
C2956 C2955 1.390 . S
C2956 C2957 1.394 . S
C2956 C2962 1.465 . S
C2957 C2952 1.399 . S
C2957 C2956 1.394 . S
C2957 C2958 1.516 . S
C2958 C2957 1.516 . S
C2958 C2959 1.502 . S
C2958 C2960 1.561 . S
C2958 C2961 1.526 . S
C2959 H2943 0.959 . S
C2959 H2944 0.959 . S
C2959 H2945 0.961 . S
C2959 C2958 1.502 . S
C2960 H2946 0.960 . S
C2960 H2947 0.961 . S
C2960 H2948 0.959 . S
C2960 C2958 1.561 . S
C2961 C2958 1.526 . S
C2961 C2962 1.396 . S
C2961 C2966 1.390 . S
C2962 C2956 1.465 . S
C2962 C2961 1.396 . S
C2962 C2963 1.399 . S
C2963 H2949 0.929 . S
C2963 C2962 1.399 . S
C2963 C2964 1.385 . S
C2964 H2950 0.931 . S
C2964 C2963 1.385 . S
C2964 C2965 1.389 . S
C2965 C2964 1.389 . S
C2965 C2966 1.387 . S
C2966 H2951 0.930 . S
C2966 C2961 1.390 . S
C2966 C2965 1.387 . S
H2967 C2979 0.930 . S
H2968 C2981 0.930 . S
H2969 C2982 0.930 . S
H2970 C2986 0.959 . S
H2971 C2986 0.959 . S
H2972 C2986 0.961 . S
H2973 C2987 0.960 . S
H2974 C2987 0.961 . S
H2975 C2987 0.959 . S
H2976 C2990 0.929 . S
H2977 C2991 0.931 . S
H2978 C2993 0.930 . S
C2979 H2967 0.930 . S
C2979 C2980 1.399 . S
C2979 C2984 1.399 . S
C2980 C2979 1.399 . S
C2980 C2981 1.376 . S
C2981 H2968 0.930 . S
C2981 C2980 1.376 . S
C2981 C2982 1.388 . S
C2982 H2969 0.930 . S
C2982 C2981 1.388 . S
C2982 C2983 1.390 . S
C2983 C2982 1.390 . S
C2983 C2984 1.394 . S
C2983 C2989 1.465 . S
C2984 C2979 1.399 . S
C2984 C2983 1.394 . S
C2984 C2985 1.516 . S
C2985 C2984 1.516 . S
C2985 C2986 1.502 . S
C2985 C2987 1.561 . S
C2985 C2988 1.526 . S
C2986 H2970 0.959 . S
C2986 H2971 0.959 . S
C2986 H2972 0.961 . S
C2986 C2985 1.502 . S
C2987 H2973 0.960 . S
C2987 H2974 0.961 . S
C2987 H2975 0.959 . S
C2987 C2985 1.561 . S
C2988 C2985 1.526 . S
C2988 C2989 1.396 . S
C2988 C2993 1.390 . S
C2989 C2983 1.465 . S
C2989 C2988 1.396 . S
C2989 C2990 1.399 . S
C2990 H2976 0.929 . S
C2990 C2989 1.399 . S
C2990 C2991 1.385 . S
C2991 H2977 0.931 . S
C2991 C2990 1.385 . S
C2991 C2992 1.389 . S
C2992 C2991 1.389 . S
C2992 C2993 1.387 . S
C2993 H2978 0.930 . S
C2993 C2988 1.390 . S
C2993 C2992 1.387 . S
H2994 C3006 0.930 . S
H2995 C3008 0.930 . S
H2996 C3009 0.930 . S
H2997 C3013 0.959 . S
H2998 C3013 0.959 . S
H2999 C3013 0.961 . S
H3000 C3014 0.960 . S
H3001 C3014 0.961 . S
H3002 C3014 0.959 . S
H3003 C3017 0.929 . S
H3004 C3018 0.931 . S
H3005 C3020 0.930 . S
C3006 H2994 0.930 . S
C3006 C3007 1.399 . S
C3006 C3011 1.399 . S
C3007 C3006 1.399 . S
C3007 C3008 1.376 . S
C3008 H2995 0.930 . S
C3008 C3007 1.376 . S
C3008 C3009 1.388 . S
C3009 H2996 0.930 . S
C3009 C3008 1.388 . S
C3009 C3010 1.390 . S
C3010 C3009 1.390 . S
C3010 C3011 1.394 . S
C3010 C3016 1.465 . S
C3011 C3006 1.399 . S
C3011 C3010 1.394 . S
C3011 C3012 1.516 . S
C3012 C3011 1.516 . S
C3012 C3013 1.502 . S
C3012 C3014 1.561 . S
C3012 C3015 1.526 . S
C3013 H2997 0.959 . S
C3013 H2998 0.959 . S
C3013 H2999 0.961 . S
C3013 C3012 1.502 . S
C3014 H3000 0.960 . S
C3014 H3001 0.961 . S
C3014 H3002 0.959 . S
C3014 C3012 1.561 . S
C3015 C3012 1.526 . S
C3015 C3016 1.396 . S
C3015 C3020 1.390 . S
C3016 C3010 1.465 . S
C3016 C3015 1.396 . S
C3016 C3017 1.399 . S
C3017 H3003 0.929 . S
C3017 C3016 1.399 . S
C3017 C3018 1.385 . S
C3018 H3004 0.931 . S
C3018 C3017 1.385 . S
C3018 C3019 1.389 . S
C3019 C3018 1.389 . S
C3019 C3020 1.387 . S
C3020 H3005 0.930 . S
C3020 C3015 1.390 . S
C3020 C3019 1.387 . S
H3021 C3033 0.930 . S
H3022 C3035 0.930 . S
H3023 C3036 0.930 . S
H3024 C3040 0.959 . S
H3025 C3040 0.959 . S
H3026 C3040 0.961 . S
H3027 C3041 0.960 . S
H3028 C3041 0.961 . S
H3029 C3041 0.959 . S
H3030 C3044 0.929 . S
H3031 C3045 0.931 . S
H3032 C3047 0.930 . S
C3033 H3021 0.930 . S
C3033 C3034 1.399 . S
C3033 C3038 1.399 . S
C3034 C3033 1.399 . S
C3034 C3035 1.376 . S
C3035 H3022 0.930 . S
C3035 C3034 1.376 . S
C3035 C3036 1.388 . S
C3036 H3023 0.930 . S
C3036 C3035 1.388 . S
C3036 C3037 1.390 . S
C3037 C3036 1.390 . S
C3037 C3038 1.394 . S
C3037 C3043 1.465 . S
C3038 C3033 1.399 . S
C3038 C3037 1.394 . S
C3038 C3039 1.516 . S
C3039 C3038 1.516 . S
C3039 C3040 1.502 . S
C3039 C3041 1.561 . S
C3039 C3042 1.526 . S
C3040 H3024 0.959 . S
C3040 H3025 0.959 . S
C3040 H3026 0.961 . S
C3040 C3039 1.502 . S
C3041 H3027 0.960 . S
C3041 H3028 0.961 . S
C3041 H3029 0.959 . S
C3041 C3039 1.561 . S
C3042 C3039 1.526 . S
C3042 C3043 1.396 . S
C3042 C3047 1.390 . S
C3043 C3037 1.465 . S
C3043 C3042 1.396 . S
C3043 C3044 1.399 . S
C3044 H3030 0.929 . S
C3044 C3043 1.399 . S
C3044 C3045 1.385 . S
C3045 H3031 0.931 . S
C3045 C3044 1.385 . S
C3045 C3046 1.389 . S
C3046 C3045 1.389 . S
C3046 C3047 1.387 . S
C3047 H3032 0.930 . S
C3047 C3042 1.390 . S
C3047 C3046 1.387 . S
H3048 C3060 0.930 . S
H3049 C3062 0.930 . S
H3050 C3063 0.930 . S
H3051 C3067 0.959 . S
H3052 C3067 0.959 . S
H3053 C3067 0.961 . S
H3054 C3068 0.960 . S
H3055 C3068 0.961 . S
H3056 C3068 0.959 . S
H3057 C3071 0.929 . S
H3058 C3072 0.931 . S
H3059 C3074 0.930 . S
C3060 H3048 0.930 . S
C3060 C3061 1.399 . S
C3060 C3065 1.399 . S
C3061 C3060 1.399 . S
C3061 C3062 1.376 . S
C3062 H3049 0.930 . S
C3062 C3061 1.376 . S
C3062 C3063 1.388 . S
C3063 H3050 0.930 . S
C3063 C3062 1.388 . S
C3063 C3064 1.390 . S
C3064 C3063 1.390 . S
C3064 C3065 1.394 . S
C3064 C3070 1.465 . S
C3065 C3060 1.399 . S
C3065 C3064 1.394 . S
C3065 C3066 1.516 . S
C3066 C3065 1.516 . S
C3066 C3067 1.502 . S
C3066 C3068 1.561 . S
C3066 C3069 1.526 . S
C3067 H3051 0.959 . S
C3067 H3052 0.959 . S
C3067 H3053 0.961 . S
C3067 C3066 1.502 . S
C3068 H3054 0.960 . S
C3068 H3055 0.961 . S
C3068 H3056 0.959 . S
C3068 C3066 1.561 . S
C3069 C3066 1.526 . S
C3069 C3070 1.396 . S
C3069 C3074 1.390 . S
C3070 C3064 1.465 . S
C3070 C3069 1.396 . S
C3070 C3071 1.399 . S
C3071 H3057 0.929 . S
C3071 C3070 1.399 . S
C3071 C3072 1.385 . S
C3072 H3058 0.931 . S
C3072 C3071 1.385 . S
C3072 C3073 1.389 . S
C3073 C3072 1.389 . S
C3073 C3074 1.387 . S
C3074 H3059 0.930 . S
C3074 C3069 1.390 . S
C3074 C3073 1.387 . S
H3075 C3087 0.930 . S
H3076 C3089 0.930 . S
H3077 C3090 0.930 . S
H3078 C3094 0.959 . S
H3079 C3094 0.959 . S
H3080 C3094 0.961 . S
H3081 C3095 0.960 . S
H3082 C3095 0.961 . S
H3083 C3095 0.959 . S
H3084 C3098 0.929 . S
H3085 C3099 0.931 . S
H3086 C3101 0.930 . S
C3087 H3075 0.930 . S
C3087 C3088 1.399 . S
C3087 C3092 1.399 . S
C3088 C3087 1.399 . S
C3088 C3089 1.376 . S
C3089 H3076 0.930 . S
C3089 C3088 1.376 . S
C3089 C3090 1.388 . S
C3090 H3077 0.930 . S
C3090 C3089 1.388 . S
C3090 C3091 1.390 . S
C3091 C3090 1.390 . S
C3091 C3092 1.394 . S
C3091 C3097 1.465 . S
C3092 C3087 1.399 . S
C3092 C3091 1.394 . S
C3092 C3093 1.516 . S
C3093 C3092 1.516 . S
C3093 C3094 1.502 . S
C3093 C3095 1.561 . S
C3093 C3096 1.526 . S
C3094 H3078 0.959 . S
C3094 H3079 0.959 . S
C3094 H3080 0.961 . S
C3094 C3093 1.502 . S
C3095 H3081 0.960 . S
C3095 H3082 0.961 . S
C3095 H3083 0.959 . S
C3095 C3093 1.561 . S
C3096 C3093 1.526 . S
C3096 C3097 1.396 . S
C3096 C3101 1.390 . S
C3097 C3091 1.465 . S
C3097 C3096 1.396 . S
C3097 C3098 1.399 . S
C3098 H3084 0.929 . S
C3098 C3097 1.399 . S
C3098 C3099 1.385 . S
C3099 H3085 0.931 . S
C3099 C3098 1.385 . S
C3099 C3100 1.389 . S
C3100 C3099 1.389 . S
C3100 C3101 1.387 . S
C3101 H3086 0.930 . S
C3101 C3096 1.390 . S
C3101 C3100 1.387 . S
H3102 C3114 0.930 . S
H3103 C3116 0.930 . S
H3104 C3117 0.930 . S
H3105 C3121 0.959 . S
H3106 C3121 0.959 . S
H3107 C3121 0.961 . S
H3108 C3122 0.960 . S
H3109 C3122 0.961 . S
H3110 C3122 0.959 . S
H3111 C3125 0.929 . S
H3112 C3126 0.931 . S
H3113 C3128 0.930 . S
C3114 H3102 0.930 . S
C3114 C3115 1.399 . S
C3114 C3119 1.399 . S
C3115 C3114 1.399 . S
C3115 C3116 1.376 . S
C3116 H3103 0.930 . S
C3116 C3115 1.376 . S
C3116 C3117 1.388 . S
C3117 H3104 0.930 . S
C3117 C3116 1.388 . S
C3117 C3118 1.390 . S
C3118 C3117 1.390 . S
C3118 C3119 1.394 . S
C3118 C3124 1.465 . S
C3119 C3114 1.399 . S
C3119 C3118 1.394 . S
C3119 C3120 1.516 . S
C3120 C3119 1.516 . S
C3120 C3121 1.502 . S
C3120 C3122 1.561 . S
C3120 C3123 1.526 . S
C3121 H3105 0.959 . S
C3121 H3106 0.959 . S
C3121 H3107 0.961 . S
C3121 C3120 1.502 . S
C3122 H3108 0.960 . S
C3122 H3109 0.961 . S
C3122 H3110 0.959 . S
C3122 C3120 1.561 . S
C3123 C3120 1.526 . S
C3123 C3124 1.396 . S
C3123 C3128 1.390 . S
C3124 C3118 1.465 . S
C3124 C3123 1.396 . S
C3124 C3125 1.399 . S
C3125 H3111 0.929 . S
C3125 C3124 1.399 . S
C3125 C3126 1.385 . S
C3126 H3112 0.931 . S
C3126 C3125 1.385 . S
C3126 C3127 1.389 . S
C3127 C3126 1.389 . S
C3127 C3128 1.387 . S
C3128 H3113 0.930 . S
C3128 C3123 1.390 . S
C3128 C3127 1.387 . S
H3129 C3141 0.930 . S
H3130 C3143 0.930 . S
H3131 C3144 0.930 . S
H3132 C3148 0.959 . S
H3133 C3148 0.959 . S
H3134 C3148 0.961 . S
H3135 C3149 0.960 . S
H3136 C3149 0.961 1_545 S
H3137 C3149 0.959 1_556 S
H3138 C3152 0.929 . S
H3139 C3153 0.931 . S
H3140 C3155 0.930 . S
C3141 H3129 0.930 . S
C3141 C3142 1.399 . S
C3141 C3146 1.399 . S
C3142 C3141 1.399 . S
C3142 C3143 1.376 1_554 S
C3143 H3130 0.930 . S
C3143 C3142 1.376 1_556 S
C3143 C3144 1.388 . S
C3144 H3131 0.930 . S
C3144 C3143 1.388 . S
C3144 C3145 1.390 . S
C3145 C3144 1.390 . S
C3145 C3146 1.394 1_556 S
C3145 C3151 1.465 . S
C3146 C3141 1.399 . S
C3146 C3145 1.394 1_554 S
C3146 C3147 1.516 . S
C3147 C3146 1.516 . S
C3147 C3148 1.502 . S
C3147 C3149 1.561 . S
C3147 C3150 1.526 . S
C3148 H3132 0.959 . S
C3148 H3133 0.959 . S
C3148 H3134 0.961 . S
C3148 C3147 1.502 . S
C3149 H3135 0.960 . S
C3149 H3136 0.961 1_565 S
C3149 H3137 0.959 1_554 S
C3149 C3147 1.561 . S
C3150 C3147 1.526 . S
C3150 C3151 1.396 1_554 S
C3150 C3155 1.390 . S
C3151 C3145 1.465 . S
C3151 C3150 1.396 1_556 S
C3151 C3152 1.399 . S
C3152 H3138 0.929 . S
C3152 C3151 1.399 . S
C3152 C3153 1.385 . S
C3153 H3139 0.931 . S
C3153 C3152 1.385 . S
C3153 C3154 1.389 . S
C3154 C3153 1.389 . S
C3154 C3155 1.387 1_556 S
C3155 H3140 0.930 . S
C3155 C3150 1.390 . S
C3155 C3154 1.387 1_554 S
H3156 C3168 0.930 . S
H3157 C3170 0.930 . S
H3158 C3171 0.930 . S
H3159 C3175 0.959 . S
H3160 C3175 0.959 . S
H3161 C3175 0.961 . S
H3162 C3176 0.960 . S
H3163 C3176 0.961 . S
H3164 C3176 0.959 . S
H3165 C3179 0.929 . S
H3166 C3180 0.931 . S
H3167 C3182 0.930 . S
C3168 H3156 0.930 . S
C3168 C3169 1.399 . S
C3168 C3173 1.399 . S
C3169 C3168 1.399 . S
C3169 C3170 1.376 . S
C3170 H3157 0.930 . S
C3170 C3169 1.376 . S
C3170 C3171 1.388 . S
C3171 H3158 0.930 . S
C3171 C3170 1.388 . S
C3171 C3172 1.390 . S
C3172 C3171 1.390 . S
C3172 C3173 1.394 . S
C3172 C3178 1.465 . S
C3173 C3168 1.399 . S
C3173 C3172 1.394 . S
C3173 C3174 1.516 . S
C3174 C3173 1.516 . S
C3174 C3175 1.502 . S
C3174 C3176 1.561 . S
C3174 C3177 1.526 . S
C3175 H3159 0.959 . S
C3175 H3160 0.959 . S
C3175 H3161 0.961 . S
C3175 C3174 1.502 . S
C3176 H3162 0.960 . S
C3176 H3163 0.961 . S
C3176 H3164 0.959 . S
C3176 C3174 1.561 . S
C3177 C3174 1.526 . S
C3177 C3178 1.396 . S
C3177 C3182 1.390 . S
C3178 C3172 1.465 . S
C3178 C3177 1.396 . S
C3178 C3179 1.399 . S
C3179 H3165 0.929 . S
C3179 C3178 1.399 . S
C3179 C3180 1.385 . S
C3180 H3166 0.931 . S
C3180 C3179 1.385 . S
C3180 C3181 1.389 . S
C3181 C3180 1.389 . S
C3181 C3182 1.387 . S
C3182 H3167 0.930 . S
C3182 C3177 1.390 . S
C3182 C3181 1.387 . S
H3183 C3195 0.930 . S
H3184 C3197 0.930 . S
H3185 C3198 0.930 . S
H3186 C3202 0.959 . S
H3187 C3202 0.959 . S
H3188 C3202 0.961 . S
H3189 C3203 0.960 . S
H3190 C3203 0.961 . S
H3191 C3203 0.959 . S
H3192 C3206 0.929 . S
H3193 C3207 0.931 . S
H3194 C3209 0.930 . S
C3195 H3183 0.930 . S
C3195 C3196 1.399 . S
C3195 C3200 1.399 . S
C3196 C3195 1.399 . S
C3196 C3197 1.376 1_554 S
C3197 H3184 0.930 . S
C3197 C3196 1.376 1_556 S
C3197 C3198 1.388 . S
C3198 H3185 0.930 . S
C3198 C3197 1.388 . S
C3198 C3199 1.390 . S
C3199 C3198 1.390 . S
C3199 C3200 1.394 1_556 S
C3199 C3205 1.465 . S
C3200 C3195 1.399 . S
C3200 C3199 1.394 1_554 S
C3200 C3201 1.516 . S
C3201 C3200 1.516 . S
C3201 C3202 1.502 . S
C3201 C3203 1.561 . S
C3201 C3204 1.526 . S
C3202 H3186 0.959 . S
C3202 H3187 0.959 . S
C3202 H3188 0.961 . S
C3202 C3201 1.502 . S
C3203 H3189 0.960 . S
C3203 H3190 0.961 . S
C3203 H3191 0.959 . S
C3203 C3201 1.561 . S
C3204 C3201 1.526 . S
C3204 C3205 1.396 1_554 S
C3204 C3209 1.390 . S
C3205 C3199 1.465 . S
C3205 C3204 1.396 1_556 S
C3205 C3206 1.399 . S
C3206 H3192 0.929 . S
C3206 C3205 1.399 . S
C3206 C3207 1.385 . S
C3207 H3193 0.931 . S
C3207 C3206 1.385 . S
C3207 C3208 1.389 1_556 S
C3208 C3207 1.389 1_554 S
C3208 C3209 1.387 . S
C3209 H3194 0.930 . S
C3209 C3204 1.390 . S
C3209 C3208 1.387 . S
H3210 C3222 0.930 . S
H3211 C3224 0.930 . S
H3212 C3225 0.930 . S
H3213 C3229 0.959 . S
H3214 C3229 0.959 . S
H3215 C3229 0.961 . S
H3216 C3230 0.960 . S
H3217 C3230 0.961 . S
H3218 C3230 0.959 . S
H3219 C3233 0.929 . S
H3220 C3234 0.931 . S
H3221 C3236 0.930 . S
C3222 H3210 0.930 . S
C3222 C3223 1.399 . S
C3222 C3227 1.399 . S
C3223 C3222 1.399 . S
C3223 C3224 1.376 . S
C3224 H3211 0.930 . S
C3224 C3223 1.376 . S
C3224 C3225 1.388 . S
C3225 H3212 0.930 . S
C3225 C3224 1.388 . S
C3225 C3226 1.390 . S
C3226 C3225 1.390 . S
C3226 C3227 1.394 . S
C3226 C3232 1.465 . S
C3227 C3222 1.399 . S
C3227 C3226 1.394 . S
C3227 C3228 1.516 . S
C3228 C3227 1.516 . S
C3228 C3229 1.502 . S
C3228 C3230 1.561 . S
C3228 C3231 1.526 . S
C3229 H3213 0.959 . S
C3229 H3214 0.959 . S
C3229 H3215 0.961 . S
C3229 C3228 1.502 . S
C3230 H3216 0.960 . S
C3230 H3217 0.961 . S
C3230 H3218 0.959 . S
C3230 C3228 1.561 . S
C3231 C3228 1.526 . S
C3231 C3232 1.396 . S
C3231 C3236 1.390 . S
C3232 C3226 1.465 . S
C3232 C3231 1.396 . S
C3232 C3233 1.399 . S
C3233 H3219 0.929 . S
C3233 C3232 1.399 . S
C3233 C3234 1.385 . S
C3234 H3220 0.931 . S
C3234 C3233 1.385 . S
C3234 C3235 1.389 . S
C3235 C3234 1.389 . S
C3235 C3236 1.387 . S
C3236 H3221 0.930 . S
C3236 C3231 1.390 . S
C3236 C3235 1.387 . S
H3237 C3249 0.930 . S
H3238 C3251 0.930 . S
H3239 C3252 0.930 . S
H3240 C3256 0.959 . S
H3241 C3256 0.959 . S
H3242 C3256 0.961 . S
H3243 C3257 0.960 . S
H3244 C3257 0.961 . S
H3245 C3257 0.959 . S
H3246 C3260 0.929 . S
H3247 C3261 0.931 . S
H3248 C3263 0.930 . S
C3249 H3237 0.930 . S
C3249 C3250 1.399 . S
C3249 C3254 1.399 . S
C3250 C3249 1.399 . S
C3250 C3251 1.376 . S
C3251 H3238 0.930 . S
C3251 C3250 1.376 . S
C3251 C3252 1.388 . S
C3252 H3239 0.930 . S
C3252 C3251 1.388 . S
C3252 C3253 1.390 . S
C3253 C3252 1.390 . S
C3253 C3254 1.394 . S
C3253 C3259 1.465 . S
C3254 C3249 1.399 . S
C3254 C3253 1.394 . S
C3254 C3255 1.516 . S
C3255 C3254 1.516 . S
C3255 C3256 1.502 . S
C3255 C3257 1.561 . S
C3255 C3258 1.526 . S
C3256 H3240 0.959 . S
C3256 H3241 0.959 . S
C3256 H3242 0.961 . S
C3256 C3255 1.502 . S
C3257 H3243 0.960 . S
C3257 H3244 0.961 . S
C3257 H3245 0.959 . S
C3257 C3255 1.561 . S
C3258 C3255 1.526 . S
C3258 C3259 1.396 . S
C3258 C3263 1.390 . S
C3259 C3253 1.465 . S
C3259 C3258 1.396 . S
C3259 C3260 1.399 . S
C3260 H3246 0.929 . S
C3260 C3259 1.399 . S
C3260 C3261 1.385 . S
C3261 H3247 0.931 . S
C3261 C3260 1.385 . S
C3261 C3262 1.389 . S
C3262 C3261 1.389 . S
C3262 C3263 1.387 . S
C3263 H3248 0.930 . S
C3263 C3258 1.390 . S
C3263 C3262 1.387 . S
C697 C351 1.237 . S
C685 C4 1.279 . S
C712 C19 1.053 . S
C724 C370 1.082 . S
C739 C39 1.222 . S
C751 C393 1.051 . S
C778 C413 1.264 . S
C766 C54 1.268 . S
C793 C18 1.232 . S
C805 C434 1.216 . S
C832 C456 1.272 . S
C820 C40 1.342 . S
C859 C478 1.020 . S
C847 C53 1.065 . S
C874 C5 1.091 . S
C886 C496 1.220 . S
C901 C61 0.987 1_545 S
C913 C352 1.169 . S
C928 C74 1.295 . S
C940 C371 1.301 . S
C967 C394 1.004 . S
C955 C89 0.873 . S
C994 C417 1.202 . S
C982 C109 1.327 . S
C1009 C68 1.291 . S
C1021 C438 1.242 . S
C1048 C457 1.089 . S
C1036 C81 1.116 . S
C1075 C479 1.220 . S
C1063 C96 1.223 . S
C1102 C497 1.336 . S
C1090 C102 1.313 . S
C1129 C353 1.211 1_556 S
C1117 C103 1.065 . S
C1156 C520 1.103 . S
C1144 C117 0.996 . S
C1171 C130 1.242 . S
C1183 C542 1.288 . S
C1210 C561 1.272 . S
C1198 C152 1.346 . S
C1225 C60 1.265 . S
C1237 C501 1.156 . S
C1264 C395 1.259 . S
C1252 C82 1.261 . S
C1279 C137 1.066 . S
C1291 C583 1.011 . S
C1318 C606 1.065 . S
C1306 C165 1.214 . S
C1333 C172 1.301 . S
C1345 C354 1.210 . S
C1372 C605 1.202 . S
C1360 C194 1.233 . S
C1387 C207 1.270 . S
C1399 C396 1.231 . S
C1414 C215 1.021 . S
C1426 C580 1.136 . S
C1453 C436 1.258 . S
C1441 C186 1.265 . S
C1480 C543 1.161 . S
C1468 C201 1.183 . S
C1507 C476 1.165 . S
C1495 C221 1.182 . S
C1534 C626 1.335 . S
C1522 C180 1.341 . S
C1561 C350 1.266 . S
C1549 C236 1.290 1_545 S
C1576 C242 1.351 . S
C1588 C604 1.321 . S
C1615 C392 1.198 . S
C1603 C264 1.224 . S
C1630 C277 1.361 . S
C1642 C585 1.246 . S
C1657 C229 1.033 1_565 S
C1669 C435 1.207 . S
C1684 C249 1.227 . S
C1696 C539 1.202 . S
C1723 C475 1.081 . S
C1711 C257 0.967 1_545 S
C1738 C270 1.324 . S
C1750 C625 1.317 . S
C1765 C278 1.174 . S
C1777 C349 1.193 . S
C1792 C292 1.283 . S
C1804 C518 1.243 . S
C1819 C298 1.304 . S
C1831 C454 1.275 . S
C1846 C313 1.206 . S
C1858 C564 1.179 . S
C1885 C624 1.284 . S
C1873 C228 1.304 . S
C1912 C391 1.130 . S
C1900 C243 1.059 . S
C1939 C416 1.181 . S
C1927 C305 1.200 . S
C1966 C372 1.212 . S
C1954 C333 1.243 . S
C1981 C32 1.226 . S
C1993 C648 1.134 . S
C2020 C601 1.074 . S
C2008 C47 0.932 . S
C2047 C666 1.180 . S
C2035 C11 1.185 . S
C2062 C26 1.265 . S
C2074 C584 1.277 . S
C2089 C46 1.225 . S
C2101 C521 1.265 . S
C2128 C540 1.202 . S
C2116 C12 1.343 . S
C2155 C562 1.021 . S
C2143 C25 1.065 . S
C2182 C622 1.235 . S
C2170 C33 1.051 . S
C2209 C643 1.101 . S
C2197 C159 0.965 . S
C2224 C116 1.324 . S
C2236 C602 1.360 . S
C2251 C131 0.943 . S
C2263 C667 1.049 . S
C2290 C582 1.253 . S
C2278 C151 1.312 . S
C2317 C519 1.247 . S
C2305 C166 1.291 . S
C2332 C123 1.147 . S
C2344 C541 1.159 . S
C2371 C563 1.204 . S
C2359 C138 1.232 . S
C2386 C144 1.336 . S
C2398 C623 1.328 . S
C2425 C644 1.125 . S
C2413 C145 1.028 . S
C2452 C433 1.094 . S
C2440 C75 0.848 . S
C2479 C458 1.292 . S
C2467 C88 1.246 . S
C2494 C110 1.337 . S
C2506 C477 1.210 . S
C2533 C627 1.245 . S
C2521 C158 1.304 . S
C2548 C124 1.261 . S
C2560 C668 1.260 . S
C2587 C412 1.017 . S
C2575 C95 1.068 . S
C2614 C375 1.172 . S
C2602 C67 1.181 . S
C2629 C200 1.263 . S
C2641 C645 1.180 . S
C2668 C374 1.221 . S
C2656 C222 1.241 . S
C2695 C669 1.227 . S
C2683 C179 1.311 . S
C2710 C187 1.064 . S
C2722 C415 1.159 . S
C2737 C214 1.269 . S
C2749 C517 1.261 . S
C2764 C173 1.204 . S
C2776 C459 1.162 . S
C2791 C193 1.227 . S
C2803 C560 1.232 . S
C2818 C208 1.349 . S
C2830 C500 1.330 . S
C2857 C647 1.280 . S
C2845 C334 1.289 . S
C2872 C284 1.347 . S
C2884 C373 1.333 . S
C2911 C665 1.219 . S
C2899 C306 1.220 . S
C2926 C319 1.363 . S
C2938 C414 1.252 . S
C2953 C327 1.093 . S
C2965 C522 1.057 . S
C2992 C455 1.195 . S
C2980 C291 1.218 . S
C3007 C299 0.979 . S
C3019 C559 1.089 . S
C3046 C499 1.233 . S
C3034 C312 1.277 . S
C3073 C646 1.163 . S
C3061 C320 1.188 . S
C3100 C437 1.257 . S
C3088 C250 1.291 . S
C3115 C256 1.305 . S
C3127 C538 1.277 . S
C3154 C480 1.216 . S
C3142 C271 1.258 . S
C3181 C498 1.276 . S
C3169 C326 1.287 . S
C3196 C285 1.006 1_554 S
C3208 C664 1.120 . S
C3235 C581 1.164 . S
C3223 C263 1.147 . S
C3262 C603 1.154 . S
C3250 C235 1.214 . S
