# Generated by pormake.
# Topology fgl, (4,4)-cn, num edge types: 1
# Building blocks:
#     Node 0, Type 0, BuildingBlock: ESEHIV_clean_sbu_0, # of connection points: 4
#     Node 1, Type 0, BuildingBlock: ESEHIV_clean_sbu_0, # of connection points: 4
#     Node 2, Type 0, BuildingBlock: ESEHIV_clean_sbu_0, # of connection points: 4
#     Node 3, Type 0, BuildingBlock: ESEHIV_clean_sbu_0, # of connection points: 4
#     Node 4, Type 0, BuildingBlock: ESEHIV_clean_sbu_0, # of connection points: 4
#     Node 5, Type 0, BuildingBlock: ESEHIV_clean_sbu_0, # of connection points: 4
#     Node 6, Type 0, BuildingBlock: ESEHIV_clean_sbu_0, # of connection points: 4
#     Node 7, Type 0, BuildingBlock: ESEHIV_clean_sbu_0, # of connection points: 4
#     Node 8, Type 0, BuildingBlock: ESEHIV_clean_sbu_0, # of connection points: 4
#     Node 9, Type 0, BuildingBlock: ESEHIV_clean_sbu_0, # of connection points: 4
#     Node 10, Type 0, BuildingBlock: ESEHIV_clean_sbu_0, # of connection points: 4
#     Node 11, Type 0, BuildingBlock: ESEHIV_clean_sbu_0, # of connection points: 4
#     Node 12, Type 0, BuildingBlock: ESEHIV_clean_sbu_0, # of connection points: 4
#     Node 13, Type 0, BuildingBlock: ESEHIV_clean_sbu_0, # of connection points: 4
#     Node 14, Type 0, BuildingBlock: ESEHIV_clean_sbu_0, # of connection points: 4
#     Node 15, Type 0, BuildingBlock: ESEHIV_clean_sbu_0, # of connection points: 4
#     Node 16, Type 0, BuildingBlock: ESEHIV_clean_sbu_0, # of connection points: 4
#     Node 17, Type 0, BuildingBlock: ESEHIV_clean_sbu_0, # of connection points: 4
#     Node 18, Type 1, BuildingBlock: GALJAG_clean_sbu_0, # of connection points: 4
#     Node 19, Type 1, BuildingBlock: GALJAG_clean_sbu_0, # of connection points: 4
#     Node 20, Type 1, BuildingBlock: GALJAG_clean_sbu_0, # of connection points: 4
#     Node 21, Type 1, BuildingBlock: GALJAG_clean_sbu_0, # of connection points: 4
#     Node 22, Type 1, BuildingBlock: GALJAG_clean_sbu_0, # of connection points: 4
#     Node 23, Type 1, BuildingBlock: GALJAG_clean_sbu_0, # of connection points: 4
#     Node 24, Type 1, BuildingBlock: GALJAG_clean_sbu_0, # of connection points: 4
#     Node 25, Type 1, BuildingBlock: GALJAG_clean_sbu_0, # of connection points: 4
#     Node 26, Type 1, BuildingBlock: GALJAG_clean_sbu_0, # of connection points: 4
#     Node 27, Type 1, BuildingBlock: GALJAG_clean_sbu_0, # of connection points: 4
#     Node 28, Type 1, BuildingBlock: GALJAG_clean_sbu_0, # of connection points: 4
#     Node 29, Type 1, BuildingBlock: GALJAG_clean_sbu_0, # of connection points: 4
#     Node 30, Type 1, BuildingBlock: GALJAG_clean_sbu_0, # of connection points: 4
#     Node 31, Type 1, BuildingBlock: GALJAG_clean_sbu_0, # of connection points: 4
#     Node 32, Type 1, BuildingBlock: GALJAG_clean_sbu_0, # of connection points: 4
#     Node 33, Type 1, BuildingBlock: GALJAG_clean_sbu_0, # of connection points: 4
#     Node 34, Type 1, BuildingBlock: GALJAG_clean_sbu_0, # of connection points: 4
#     Node 35, Type 1, BuildingBlock: GALJAG_clean_sbu_0, # of connection points: 4
#     Edge 36, Type (0, 1), BuildingBlock: XIVTED_clean_linker_0, # of connection points: 2
#     Edge 37, Type (0, 1), BuildingBlock: XIVTED_clean_linker_0, # of connection points: 2
#     Edge 38, Type (0, 1), BuildingBlock: XIVTED_clean_linker_0, # of connection points: 2
#     Edge 39, Type (0, 1), BuildingBlock: XIVTED_clean_linker_0, # of connection points: 2
#     Edge 40, Type (0, 1), BuildingBlock: XIVTED_clean_linker_0, # of connection points: 2
#     Edge 41, Type (0, 1), BuildingBlock: XIVTED_clean_linker_0, # of connection points: 2
#     Edge 42, Type (0, 1), BuildingBlock: XIVTED_clean_linker_0, # of connection points: 2
#     Edge 43, Type (0, 1), BuildingBlock: XIVTED_clean_linker_0, # of connection points: 2
#     Edge 44, Type (0, 1), BuildingBlock: XIVTED_clean_linker_0, # of connection points: 2
#     Edge 45, Type (0, 1), BuildingBlock: XIVTED_clean_linker_0, # of connection points: 2
#     Edge 46, Type (0, 1), BuildingBlock: XIVTED_clean_linker_0, # of connection points: 2
#     Edge 47, Type (0, 1), BuildingBlock: XIVTED_clean_linker_0, # of connection points: 2
#     Edge 48, Type (0, 1), BuildingBlock: XIVTED_clean_linker_0, # of connection points: 2
#     Edge 49, Type (0, 1), BuildingBlock: XIVTED_clean_linker_0, # of connection points: 2
#     Edge 50, Type (0, 1), BuildingBlock: XIVTED_clean_linker_0, # of connection points: 2
#     Edge 51, Type (0, 1), BuildingBlock: XIVTED_clean_linker_0, # of connection points: 2
#     Edge 52, Type (0, 1), BuildingBlock: XIVTED_clean_linker_0, # of connection points: 2
#     Edge 53, Type (0, 1), BuildingBlock: XIVTED_clean_linker_0, # of connection points: 2
#     Edge 54, Type (0, 1), BuildingBlock: XIVTED_clean_linker_0, # of connection points: 2
#     Edge 55, Type (0, 1), BuildingBlock: XIVTED_clean_linker_0, # of connection points: 2
#     Edge 56, Type (0, 1), BuildingBlock: XIVTED_clean_linker_0, # of connection points: 2
#     Edge 57, Type (0, 1), BuildingBlock: XIVTED_clean_linker_0, # of connection points: 2
#     Edge 58, Type (0, 1), BuildingBlock: XIVTED_clean_linker_0, # of connection points: 2
#     Edge 59, Type (0, 1), BuildingBlock: XIVTED_clean_linker_0, # of connection points: 2
#     Edge 60, Type (0, 1), BuildingBlock: XIVTED_clean_linker_0, # of connection points: 2
#     Edge 61, Type (0, 1), BuildingBlock: XIVTED_clean_linker_0, # of connection points: 2
#     Edge 62, Type (0, 1), BuildingBlock: XIVTED_clean_linker_0, # of connection points: 2
#     Edge 63, Type (0, 1), BuildingBlock: XIVTED_clean_linker_0, # of connection points: 2
#     Edge 64, Type (0, 1), BuildingBlock: XIVTED_clean_linker_0, # of connection points: 2
#     Edge 65, Type (0, 1), BuildingBlock: XIVTED_clean_linker_0, # of connection points: 2
#     Edge 66, Type (0, 1), BuildingBlock: XIVTED_clean_linker_0, # of connection points: 2
#     Edge 67, Type (0, 1), BuildingBlock: XIVTED_clean_linker_0, # of connection points: 2
#     Edge 68, Type (0, 1), BuildingBlock: XIVTED_clean_linker_0, # of connection points: 2
#     Edge 69, Type (0, 1), BuildingBlock: XIVTED_clean_linker_0, # of connection points: 2
#     Edge 70, Type (0, 1), BuildingBlock: XIVTED_clean_linker_0, # of connection points: 2
#     Edge 71, Type (0, 1), BuildingBlock: XIVTED_clean_linker_0, # of connection points: 2
#     Edge 72, Type (0, 1), BuildingBlock: XIVTED_clean_linker_0, # of connection points: 2
#     Edge 73, Type (0, 1), BuildingBlock: XIVTED_clean_linker_0, # of connection points: 2
#     Edge 74, Type (0, 1), BuildingBlock: XIVTED_clean_linker_0, # of connection points: 2
#     Edge 75, Type (0, 1), BuildingBlock: XIVTED_clean_linker_0, # of connection points: 2
#     Edge 76, Type (0, 1), BuildingBlock: XIVTED_clean_linker_0, # of connection points: 2
#     Edge 77, Type (0, 1), BuildingBlock: XIVTED_clean_linker_0, # of connection points: 2
#     Edge 78, Type (0, 1), BuildingBlock: XIVTED_clean_linker_0, # of connection points: 2
#     Edge 79, Type (0, 1), BuildingBlock: XIVTED_clean_linker_0, # of connection points: 2
#     Edge 80, Type (0, 1), BuildingBlock: XIVTED_clean_linker_0, # of connection points: 2
#     Edge 81, Type (0, 1), BuildingBlock: XIVTED_clean_linker_0, # of connection points: 2
#     Edge 82, Type (0, 1), BuildingBlock: XIVTED_clean_linker_0, # of connection points: 2
#     Edge 83, Type (0, 1), BuildingBlock: XIVTED_clean_linker_0, # of connection points: 2
#     Edge 84, Type (0, 1), BuildingBlock: XIVTED_clean_linker_0, # of connection points: 2
#     Edge 85, Type (0, 1), BuildingBlock: XIVTED_clean_linker_0, # of connection points: 2
#     Edge 86, Type (0, 1), BuildingBlock: XIVTED_clean_linker_0, # of connection points: 2
#     Edge 87, Type (0, 1), BuildingBlock: XIVTED_clean_linker_0, # of connection points: 2
#     Edge 88, Type (0, 1), BuildingBlock: XIVTED_clean_linker_0, # of connection points: 2
#     Edge 89, Type (0, 1), BuildingBlock: XIVTED_clean_linker_0, # of connection points: 2
#     Edge 90, Type (0, 1), BuildingBlock: XIVTED_clean_linker_0, # of connection points: 2
#     Edge 91, Type (0, 1), BuildingBlock: XIVTED_clean_linker_0, # of connection points: 2
#     Edge 92, Type (0, 1), BuildingBlock: XIVTED_clean_linker_0, # of connection points: 2
#     Edge 93, Type (0, 1), BuildingBlock: XIVTED_clean_linker_0, # of connection points: 2
#     Edge 94, Type (0, 1), BuildingBlock: XIVTED_clean_linker_0, # of connection points: 2
#     Edge 95, Type (0, 1), BuildingBlock: XIVTED_clean_linker_0, # of connection points: 2
#     Edge 96, Type (0, 1), BuildingBlock: XIVTED_clean_linker_0, # of connection points: 2
#     Edge 97, Type (0, 1), BuildingBlock: XIVTED_clean_linker_0, # of connection points: 2
#     Edge 98, Type (0, 1), BuildingBlock: XIVTED_clean_linker_0, # of connection points: 2
#     Edge 99, Type (0, 1), BuildingBlock: XIVTED_clean_linker_0, # of connection points: 2
#     Edge 100, Type (0, 1), BuildingBlock: XIVTED_clean_linker_0, # of connection points: 2
#     Edge 101, Type (0, 1), BuildingBlock: XIVTED_clean_linker_0, # of connection points: 2
#     Edge 102, Type (0, 1), BuildingBlock: XIVTED_clean_linker_0, # of connection points: 2
#     Edge 103, Type (0, 1), BuildingBlock: XIVTED_clean_linker_0, # of connection points: 2
#     Edge 104, Type (0, 1), BuildingBlock: XIVTED_clean_linker_0, # of connection points: 2
#     Edge 105, Type (0, 1), BuildingBlock: XIVTED_clean_linker_0, # of connection points: 2
#     Edge 106, Type (0, 1), BuildingBlock: XIVTED_clean_linker_0, # of connection points: 2
#     Edge 107, Type (0, 1), BuildingBlock: XIVTED_clean_linker_0, # of connection points: 2
# Relax obj value: 0.030
# Max RMSD: 0.115
# Mean RMSD: 0.092
data_MOF--net-fgl--node1-ESEHIV_clean_sbu_0--node2-GALJAG_clean_sbu_0--edge1-XIVTED_clean_linker_0
_symmetry_space_group_name_H-M    P1
_symmetry_Int_Tables_number       1
_symmetry_cell_setting            triclinic
loop_
_symmetry_equiv_pos_as_xyz
'x, y, z'
_cell_length_a     76.469007
_cell_length_b     76.455576
_cell_length_c     51.015643
_cell_angle_alpha  90.159238
_cell_angle_beta   90.37631
_cell_angle_gamma 119.80821
loop_
_atom_site_label
_atom_site_type_symbol
_atom_site_fract_x
_atom_site_fract_y
_atom_site_fract_z
_atom_type_partial_charge
Cu0 Cu 0.04886 0.5379 0.02844 0.0
N1 N 0.06364 0.5608 0.04962 0.0
N2 N 0.06935 0.58455 0.0798 0.0
C3 C 0.05533 0.56843 0.06605 0.0
C4 C 0.08724 0.58712 0.07152 0.0
C5 C 0.08367 0.57244 0.05301 0.0
O6 O 0.02537 0.53937 0.01761 0.0
C7 C 0.02847 0.4968 0.04447 0.0
O8 O 0.01728 0.49322 0.02331 0.0
H9 H 0.03922 0.56218 0.06779 0.0
H10 H 0.09487 0.57022 0.04305 0.0
N11 N 0.06315 0.53732 0.99884 0.0
N12 N 0.06998 0.52599 0.9618 0.0
C13 C 0.05866 0.52106 0.98371 0.0
C14 C 0.07802 0.55307 0.98624 0.0
C15 C 0.08232 0.54615 0.96352 0.0
C16 C 0.01785 0.53574 0.9946 0.0
O17 O 0.02382 0.52707 0.97737 0.0
H18 H 0.04675 0.50601 0.9882 0.0
H19 H 0.08463 0.56862 0.99252 0.0
O20 O 0.04208 0.51472 0.0499 0.0
H21 H 0.1019 0.59847 0.07875 0.0
H22 H 0.09298 0.55543 0.94875 0.0
Cu23 Cu 0.54362 0.56202 0.023 0.0
N24 N 0.54446 0.57123 0.9871 0.0
N25 N 0.55547 0.58368 0.94723 0.0
C26 C 0.55966 0.57735 0.96991 0.0
C27 C 0.53687 0.58131 0.95042 0.0
C28 C 0.53015 0.57365 0.97505 0.0
O29 O 0.56491 0.59093 0.03417 0.0
C30 C 0.52476 0.51918 1.00617 0.0
O31 O 0.54342 0.5227 1.00647 0.0
H32 H 0.57346 0.57717 0.97397 0.0
H33 H 0.516 0.5704 0.98376 0.0
N34 N 0.54273 0.55283 0.05892 0.0
N35 N 0.53131 0.53934 0.09832 0.0
C36 C 0.52645 0.54333 0.07435 0.0
C37 C 0.55843 0.55496 0.07332 0.0
C38 C 0.55148 0.54673 0.09761 0.0
C39 C 0.58384 0.59803 0.03162 0.0
O40 O 0.59029 0.58639 0.02172 0.0
H41 H 0.51142 0.53936 0.0679 0.0
H42 H 0.57384 0.56208 0.06669 0.0
O43 O 0.5214 0.53345 0.01219 0.0
H44 H 0.52889 0.58536 0.93631 0.0
H45 H 0.56078 0.54651 0.1135 0.0
Cu46 Cu 0.52701 0.02888 0.01469 0.0
N47 N 0.51504 0.01471 0.98384 0.0
N48 N 0.49724 1.00638 0.94645 0.0
C49 C 0.50214 0.01744 0.96873 0.0
C50 C 0.50742 0.99616 0.94775 0.0
C51 C 0.5184 1.00134 0.97087 0.0
O52 O 0.50702 0.03182 0.03439 0.0
C53 C 0.5577 0.06063 0.98427 0.0
O54 O 0.54558 0.0521 0.96412 0.0
H55 H 0.49728 0.02812 0.97343 0.0
H56 H 0.52853 0.99617 0.97742 0.0
N57 N 0.5351 0.01449 0.03593 0.0
N58 N 0.55155 0.00946 0.06872 0.0
C59 C 0.54972 0.02318 0.05417 0.0
C60 C 0.52734 0.99451 0.03877 0.0
C61 C 0.53756 0.99134 0.05898 0.0
C62 C 0.50008 0.0434 0.02873 0.0
O63 O 0.50784 0.05603 0.00914 0.0
H64 H 0.5586 0.03934 0.05686 0.0
H65 H 0.51478 0.98309 0.02753 0.0
O66 O 0.55155 0.05407 1.00724 0.0
H67 H 0.50722 0.98589 0.93295 0.0
H68 H 0.53439 0.97685 0.06652 0.0
Cu69 Cu 0.53208 0.03897 0.51511 0.0
N70 N 0.53141 0.02765 0.48242 0.0
N71 N 0.54297 0.02302 0.44444 0.0
C72 C 0.54755 0.0338 0.46693 0.0
C73 C 0.5231 0.0095 0.44588 0.0
C74 C 0.51599 0.01244 0.46933 0.0
O75 O 0.55834 0.04557 0.53111 0.0
C76 C 0.50681 0.05381 0.50274 0.0
O77 O 0.4955 0.03439 0.49821 0.0
H78 H 0.56245 0.0458 0.47233 0.0
H79 H 0.50065 1.00414 0.47621 0.0
N80 N 0.51186 0.02047 0.537 0.0
N81 N 0.4887 0.01002 0.56852 0.0
C82 C 0.50463 0.02594 0.55746 0.0
C83 C 0.50026 1.00031 0.53505 0.0
C84 C 0.48599 0.9938 0.55454 0.0
C85 C 0.55991 0.03015 0.53712 0.0
O86 O 0.5444 0.01216 0.53268 0.0
H87 H 0.51082 0.04145 0.56368 0.0
H88 H 0.50175 0.99104 0.52018 0.0
O89 O 0.52516 0.06051 0.50993 0.0
H90 H 0.51427 0.99849 0.43093 0.0
H91 H 0.47414 0.97843 0.55753 0.0
Cu92 Cu 0.05607 0.56511 0.52084 0.0
N93 N 0.07191 0.55929 0.54391 0.0
N94 N 0.07863 0.54304 0.57558 0.0
C95 C 0.06456 0.54261 0.55896 0.0
C96 C 0.09556 0.56063 0.57065 0.0
C97 C 0.09143 0.57054 0.551 0.0
O98 O 0.03589 0.53855 0.50754 0.0
C99 C 0.05431 0.59138 0.55901 0.0
O100 O 0.06758 0.58831 0.57153 0.0
H101 H 0.04894 0.53076 0.55851 0.0
H102 H 0.10172 0.58526 0.54321 0.0
N103 N 0.06986 0.58141 0.49201 0.0
N104 N 0.07431 0.59946 0.45538 0.0
C105 C 0.06142 0.58835 0.47457 0.0
C106 C 0.08884 0.58841 0.48377 0.0
C107 C 0.09161 0.59948 0.46123 0.0
C108 C 0.04177 0.53137 0.48916 0.0
O109 O 0.05962 0.54285 0.47899 0.0
H110 H 0.04606 0.58529 0.47618 0.0
H111 H 0.09979 0.58542 0.49319 0.0
O112 O 0.04568 0.5809 0.53854 0.0
H113 H 0.10984 0.56607 0.58077 0.0
H114 H 0.10529 0.60665 0.44989 0.0
Cu115 Cu 0.54344 0.52345 0.53899 0.0
N116 N 0.565 0.52616 0.51937 0.0
N117 N 0.59417 0.54272 0.49823 0.0
C118 C 0.58116 0.54415 0.51454 0.0
C119 C 0.58573 0.52289 0.49236 0.0
C120 C 0.56763 0.51267 0.50548 0.0
O121 O 0.55444 0.54622 0.56331 0.0
C122 C 0.51251 0.50453 0.5034 0.0
O123 O 0.51611 0.48993 0.50945 0.0
H124 H 0.58282 0.55815 0.52206 0.0
H125 H 0.55696 0.49669 0.50437 0.0
N126 N 0.53183 0.50014 0.55917 0.0
N127 N 0.50779 0.47561 0.58279 0.0
C128 C 0.51497 0.49426 0.573 0.0
C129 C 0.53572 0.48481 0.56048 0.0
C130 C 0.52072 0.4695 0.57495 0.0
C131 C 0.56732 0.54608 0.57917 0.0
O132 O 0.5711 0.53111 0.57758 0.0
H133 H 0.50734 0.50295 0.57421 0.0
H134 H 0.54796 0.48437 0.5506 0.0
O135 O 0.52303 0.52174 0.5143 0.0
H136 H 0.592 0.51628 0.47934 0.0
H137 H 0.51906 0.45481 0.57863 0.0
Cu138 Cu 0.73828 0.89729 0.35763 0.0
N139 N 0.75245 0.9234 0.34456 0.0
N140 N 0.75622 0.95295 0.332 0.0
C141 C 0.74457 0.93564 0.34471 0.0
C142 C 0.77219 0.95169 0.32339 0.0
C143 C 0.76995 0.93343 0.33149 0.0
O144 O 0.72392 0.90009 0.38827 0.0
C145 C 0.73484 0.87952 0.30936 0.0
O146 O 0.75438 0.89073 0.3129 0.0
H147 H 0.72993 0.9314 0.35277 0.0
H148 H 0.78 0.92768 0.32733 0.0
N149 N 0.75542 0.88813 0.36948 0.0
N150 N 0.7649 0.86562 0.37939 0.0
C151 C 0.74944 0.86855 0.37279 0.0
C152 C 0.7754 0.89812 0.37421 0.0
C153 C 0.78129 0.88423 0.38048 0.0
C154 C 0.73593 0.91179 0.40617 0.0
O155 O 0.75535 0.91905 0.40288 0.0
H156 H 0.73398 0.85668 0.37004 0.0
H157 H 0.78505 0.91425 0.37263 0.0
O158 O 0.72324 0.87939 0.3275 0.0
H159 H 0.78428 0.9629 0.31163 0.0
H160 H 0.79654 0.88754 0.38464 0.0
Cu161 Cu 0.2083 0.9052 0.37013 0.0
N162 N 0.18487 0.89253 0.34934 0.0
N163 N 0.15848 0.8668 0.32923 0.0
C164 C 0.17351 0.87236 0.34696 0.0
C165 C 0.16041 0.88422 0.32004 0.0
C166 C 0.17666 0.9001 0.33261 0.0
O167 O 0.20182 0.88802 0.40125 0.0
C168 C 0.23403 0.92185 0.32969 0.0
O169 O 0.22256 0.93011 0.32823 0.0
H170 H 0.17671 0.86194 0.3574 0.0
H171 H 0.18232 0.91598 0.32934 0.0
N172 N 0.21536 0.93139 0.38143 0.0
N173 N 0.23543 0.96339 0.39447 0.0
C174 C 0.23424 0.94565 0.3882 0.0
C175 C 0.20414 0.94041 0.38338 0.0
C176 C 0.21646 0.96012 0.39159 0.0
C177 C 0.18685 0.88697 0.41363 0.0
O178 O 0.17902 0.89778 0.405 0.0
H179 H 0.24691 0.94302 0.38838 0.0
H180 H 0.18822 0.93329 0.37878 0.0
O181 O 0.23057 0.9089 0.34759 0.0
H182 H 0.15084 0.88538 0.30524 0.0
H183 H 0.21189 0.9713 0.39451 0.0
Cu184 Cu 0.22225 0.42408 0.37999 0.0
N185 N 0.21395 0.43878 0.35942 0.0
N186 N 0.19455 0.4421 0.32922 0.0
C187 C 0.19817 0.42923 0.34299 0.0
C188 C 0.20875 0.46069 0.33724 0.0
C189 C 0.22066 0.45859 0.35615 0.0
O190 O 0.19686 0.40199 0.39261 0.0
C191 C 0.25206 0.43012 0.34508 0.0
O192 O 0.25328 0.44787 0.34472 0.0
H193 H 0.1898 0.41299 0.34073 0.0
H194 H 0.23339 0.47063 0.3664 0.0
N195 N 0.23857 0.4379 0.40872 0.0
N196 N 0.25569 0.44086 0.44581 0.0
C197 C 0.2405 0.42833 0.42963 0.0
C198 C 0.25302 0.45729 0.41154 0.0
C199 C 0.26352 0.4592 0.43451 0.0
C200 C 0.18854 0.40666 0.41082 0.0
O201 O 0.19845 0.42475 0.42137 0.0
H202 H 0.23128 0.41223 0.43218 0.0
H203 H 0.25648 0.46894 0.39724 0.0
O204 O 0.23833 0.41618 0.35875 0.0
H205 H 0.21037 0.47472 0.33002 0.0
H206 H 0.27661 0.47284 0.44144 0.0
Cu207 Cu 0.21619 0.39222 0.88867 0.0
N208 N 0.23478 0.41507 0.87059 0.0
N209 N 0.25731 0.43248 0.83978 0.0
C210 C 0.25042 0.41691 0.85657 0.0
C211 C 0.24591 0.44115 0.84389 0.0
C212 C 0.23212 0.43046 0.8631 0.0
O213 O 0.22755 0.37447 0.89497 0.0
C214 C 0.18891 0.38387 0.84571 0.0
O215 O 0.20516 0.39018 0.83143 0.0
H216 H 0.2553 0.40587 0.85655 0.0
H217 H 0.21975 0.43252 0.86927 0.0
N218 N 0.21303 0.40037 0.92176 0.0
N219 N 0.19902 0.40109 0.95963 0.0
C220 C 0.1957 0.39376 0.9349 0.0
C221 C 0.2278 0.41234 0.93862 0.0
C222 C 0.21919 0.41281 0.96207 0.0
C223 C 0.23441 0.36707 0.8782 0.0
O224 O 0.23135 0.36846 0.85311 0.0
H225 H 0.18105 0.38312 0.92684 0.0
H226 H 0.24373 0.41972 0.93434 0.0
O227 O 0.19009 0.38138 0.87027 0.0
H228 H 0.24641 0.45325 0.83236 0.0
H229 H 0.22716 0.42096 0.9796 0.0
Cu230 Cu 0.68775 0.88723 0.85602 0.0
N231 N 0.66885 0.86146 0.84414 0.0
N232 N 0.65806 0.83024 0.82909 0.0
C233 C 0.67396 0.84753 0.83783 0.0
C234 C 0.64221 0.83342 0.82986 0.0
C235 C 0.64891 0.85273 0.83932 0.0
O236 O 0.70331 0.88231 0.88355 0.0
C237 C 0.68783 0.90403 0.80868 0.0
O238 O 0.6689 0.8949 0.81598 0.0
H239 H 0.68925 0.85026 0.83918 0.0
H240 H 0.63993 0.85991 0.84221 0.0
N241 N 0.67613 0.90091 0.87236 0.0
N242 N 0.67475 0.92731 0.88873 0.0
C243 C 0.68551 0.92111 0.87459 0.0
C244 C 0.65867 0.89404 0.88536 0.0
C245 C 0.65785 0.91036 0.89569 0.0
C246 C 0.69195 0.87126 0.90207 0.0
O247 O 0.67258 0.86498 0.90028 0.0
H248 H 0.70026 0.93105 0.86659 0.0
H249 H 0.64747 0.87832 0.88758 0.0
O250 O 0.70068 0.90312 0.82408 0.0
H251 H 0.62689 0.82257 0.82421 0.0
H252 H 0.64581 0.90982 0.90731 0.0
Cu253 Cu 0.19231 0.87521 0.87307 0.0
N254 N 0.17955 0.87775 0.84311 0.0
N255 N 0.16405 0.86924 0.80393 0.0
C256 C 0.1682 0.86258 0.82635 0.0
C257 C 0.17286 0.88944 0.80705 0.0
C258 C 0.18249 0.89464 0.83116 0.0
O259 O 0.17534 0.84831 0.8867 0.0
C260 C 0.22341 0.87711 0.84068 0.0
O261 O 0.20898 0.86666 0.82358 0.0
H262 H 0.16403 0.84707 0.83009 0.0
H263 H 0.19196 0.90975 0.83875 0.0
N264 N 0.19654 0.89448 0.89878 0.0
N265 N 0.20974 0.91418 0.93433 0.0
C266 C 0.20967 0.89969 0.91897 0.0
C267 C 0.18796 0.90607 0.90127 0.0
C268 C 0.19604 0.9182 0.92318 0.0
C269 C 0.15982 0.84532 0.89935 0.0
O270 O 0.15676 0.86055 0.90343 0.0
H271 H 0.21922 0.89314 0.92195 0.0
H272 H 0.17659 0.90565 0.88816 0.0
O273 O 0.21891 0.88046 0.86339 0.0
H274 H 0.17343 0.89988 0.79235 0.0
H275 H 0.19194 0.92898 0.93039 0.0
Cu276 Cu 0.3632 0.21523 0.71224 0.0
N277 N 0.33945 0.21512 0.70375 0.0
N278 N 0.31961 0.22801 0.69422 0.0
C279 C 0.33682 0.23119 0.70593 0.0
C280 C 0.311 0.20911 0.68431 0.0
C281 C 0.32329 0.20116 0.6903 0.0
O282 O 0.37792 0.23934 0.73467 0.0
C283 C 0.38943 0.21158 0.67336 0.0
O284 O 0.40091 0.21181 0.69279 0.0
H285 H 0.34806 0.24547 0.71428 0.0
H286 H 0.32117 0.18669 0.68408 0.0
N287 N 0.3569 0.19205 0.73139 0.0
N288 N 0.35569 0.1637 0.74489 0.0
C289 C 0.36097 0.17727 0.7254 0.0
C290 C 0.34843 0.18747 0.75525 0.0
C291 C 0.34779 0.17006 0.76372 0.0
C292 C 0.38674 0.24014 0.75635 0.0
O293 O 0.3903 0.22548 0.76228 0.0
H294 H 0.36829 0.17682 0.70754 0.0
H295 H 0.34362 0.19652 0.76602 0.0
O296 O 0.37458 0.21424 0.67819 0.0
H297 H 0.29723 0.20185 0.67278 0.0
H298 H 0.34214 0.16276 0.78236 0.0
Cu299 Cu 0.88258 0.21124 0.68931 0.0
N300 N 0.90435 0.21484 0.66905 0.0
N301 N 0.92828 0.2301 0.639 0.0
C302 C 0.91296 0.23004 0.65189 0.0
C303 C 0.9294 0.21417 0.64828 0.0
C304 C 0.91467 0.20484 0.66714 0.0
O305 O 0.88937 0.23942 0.69566 0.0
C306 C 0.8558 0.17643 0.66254 0.0
O307 O 0.87101 0.17337 0.66685 0.0
H308 H 0.9078 0.24072 0.64861 0.0
H309 H 0.91168 0.19173 0.67848 0.0
N310 N 0.88068 0.19855 0.72117 0.0
N311 N 0.86661 0.18376 0.75904 0.0
C312 C 0.86396 0.19057 0.73582 0.0
C313 C 0.89448 0.19656 0.73532 0.0
C314 C 0.8858 0.18736 0.75875 0.0
C315 C 0.89476 0.24798 0.71813 0.0
O316 O 0.89078 0.23679 0.73912 0.0
H317 H 0.85022 0.19017 0.72959 0.0
H318 H 0.90989 0.20197 0.72942 0.0
O319 O 0.85736 0.1931 0.67024 0.0
H320 H 0.94018 0.20976 0.64213 0.0
H321 H 0.89329 0.18429 0.77466 0.0
Cu322 Cu 0.86835 0.69565 0.68217 0.0
N323 N 0.85664 0.68101 0.65166 0.0
N324 N 0.83962 0.67182 0.61379 0.0
C325 C 0.84387 0.68321 0.63566 0.0
C326 C 0.85003 0.66191 0.61627 0.0
C327 C 0.8605 0.6676 0.63974 0.0
O328 O 0.84953 0.70225 0.6989 0.0
C329 C 0.90144 0.72425 0.65162 0.0
O330 O 0.88841 0.71832 0.63212 0.0
H331 H 0.83867 0.69379 0.6393 0.0
H332 H 0.87073 0.66283 0.64722 0.0
N333 N 0.87247 0.67928 0.70506 0.0
N334 N 0.88758 0.67026 0.73532 0.0
C335 C 0.88877 0.6854 0.72054 0.0
C336 C 0.86048 0.65956 0.71002 0.0
C337 C 0.8698 0.65392 0.72873 0.0
C338 C 0.84378 0.71419 0.69026 0.0
O339 O 0.85253 0.72519 0.66954 0.0
H340 H 0.90129 0.70069 0.72072 0.0
H341 H 0.84597 0.65006 0.70081 0.0
O342 O 0.89519 0.71804 0.67469 0.0
H343 H 0.85042 0.65164 0.60195 0.0
H344 H 0.86375 0.63908 0.73717 0.0
Cu345 Cu 0.8612 0.70434 0.15446 0.0
N346 N 0.86173 0.69601 0.12036 0.0
N347 N 0.87369 0.68999 0.08372 0.0
C348 C 0.8777 0.69651 0.10882 0.0
C349 C 0.85434 0.68513 0.0794 0.0
C350 C 0.84701 0.68891 0.10206 0.0
O351 O 0.88639 0.70966 0.17236 0.0
C352 C 0.85389 0.73536 0.13401 0.0
O353 O 0.86271 0.73413 0.11264 0.0
H354 H 0.89195 0.7015 0.1188 0.0
H355 H 0.83214 0.68695 0.10489 0.0
N356 N 0.84009 0.68355 0.17234 0.0
N357 N 0.81934 0.6689 0.20574 0.0
C358 C 0.8371 0.6844 0.19805 0.0
C359 C 0.82373 0.66682 0.16329 0.0
C360 C 0.81077 0.65775 0.18395 0.0
C361 C 0.88764 0.69402 0.17807 0.0
O362 O 0.87249 0.67622 0.17168 0.0
H363 H 0.84716 0.69696 0.21049 0.0
H364 H 0.82096 0.66206 0.14299 0.0
O365 O 0.85407 0.72579 0.15438 0.0
H366 H 0.84618 0.67969 0.06105 0.0
H367 H 0.79596 0.64449 0.18288 0.0
Cu368 Cu 0.39716 0.23349 0.19345 0.0
N369 N 0.4066 0.21858 0.17546 0.0
N370 N 0.4053 0.19052 0.16017 0.0
C371 C 0.40004 0.19891 0.17965 0.0
C372 C 0.41567 0.20555 0.14303 0.0
C373 C 0.41641 0.22285 0.1525 0.0
O374 O 0.38781 0.21999 0.22771 0.0
C375 C 0.37526 0.25053 0.16758 0.0
O376 O 0.37931 0.26193 0.18854 0.0
H377 H 0.39005 0.19049 0.19548 0.0
H378 H 0.42231 0.23706 0.14239 0.0
N379 N 0.41751 0.25985 0.20073 0.0
N380 N 0.42946 0.29126 0.21585 0.0
C381 C 0.41538 0.27169 0.21846 0.0
C382 C 0.43396 0.27224 0.18687 0.0
C383 C 0.44144 0.29167 0.19626 0.0
C384 C 0.40226 0.2204 0.24107 0.0
O385 O 0.42037 0.22969 0.23084 0.0
H386 H 0.40266 0.26619 0.23154 0.0
H387 H 0.43919 0.26779 0.16984 0.0
O388 O 0.37881 0.23586 0.16806 0.0
H389 H 0.42138 0.20391 0.12438 0.0
H390 H 0.45357 0.30521 0.18777 0.0
Cu391 Cu 0.86734 0.2354 0.19864 0.0
N392 N 0.8566 0.23775 0.16684 0.0
N393 N 0.83923 0.22748 0.12912 0.0
C394 C 0.84442 0.22188 0.1516 0.0
C395 C 0.84857 0.24784 0.13042 0.0
C396 C 0.85929 0.25413 0.15375 0.0
O397 O 0.84714 0.21042 0.21405 0.0
C398 C 0.89991 0.23513 0.17133 0.0
O399 O 0.88851 0.2305 0.15021 0.0
H400 H 0.84007 0.20654 0.15673 0.0
H401 H 0.86856 0.26951 0.1605 0.0
N402 N 0.87325 0.25654 0.22185 0.0
N403 N 0.88738 0.27654 0.25683 0.0
C404 C 0.88575 0.2609 0.24251 0.0
C405 C 0.8667 0.26992 0.22281 0.0
C406 C 0.87541 0.28231 0.24441 0.0
C407 C 0.83131 0.21003 0.22245 0.0
O408 O 0.83012 0.22657 0.22152 0.0
H409 H 0.89362 0.25274 0.24666 0.0
H410 H 0.85619 0.27049 0.20902 0.0
O411 O 0.89278 0.23613 0.19339 0.0
H412 H 0.84781 0.25756 0.11564 0.0
H413 H 0.87284 0.29438 0.25061 0.0
In414 In 0.04146 0.68451 0.25999 0.0
O415 O 0.06733 0.71665 0.25266 0.0
O416 O 0.05263 0.71058 0.28944 0.0
C417 C 0.04724 0.66447 0.21958 0.0
C418 C 0.04653 0.66516 0.30183 0.0
C419 C 0.00863 0.68764 0.24523 0.0
O420 O 0.06033 0.68204 0.22668 0.0
O421 O 0.03118 0.65711 0.23259 0.0
O422 O 1.00771 0.67543 0.26257 0.0
O423 O 0.02584 0.69792 0.23533 0.0
C424 C 0.06615 0.72342 0.2748 0.0
O425 O 0.02974 0.66385 0.2964 0.0
O426 O 0.06045 0.67601 0.28623 0.0
In427 In 0.41961 0.44464 0.29032 0.0
O428 O 0.42352 0.45817 0.24912 0.0
O429 O 0.44972 0.46674 0.27233 0.0
C430 C 0.38138 0.4376 0.29512 0.0
C431 C 0.42197 0.41153 0.2772 0.0
C432 C 0.43372 0.46052 0.33852 0.0
O433 O 0.39517 0.45337 0.28468 0.0
O434 O 0.38684 0.42538 0.30286 0.0
O435 O 0.42519 0.44189 0.3336 0.0
O436 O 0.4351 0.47131 0.31912 0.0
C437 C 0.44251 0.46824 0.25072 0.0
O438 O 0.43501 0.42553 0.29136 0.0
O439 O 0.40761 0.41406 0.26988 0.0
In440 In 0.66785 0.04803 0.26552 0.0
O441 O 0.65578 0.05993 0.29754 0.0
O442 O 0.64049 0.02828 0.2907 0.0
C443 C 0.70168 0.08338 0.25657 0.0
C444 C 0.68672 0.02782 0.28043 0.0
C445 C 0.64385 0.03913 0.22272 0.0
O446 O 0.68917 0.08152 0.27389 0.0
O447 O 0.69681 0.06763 0.24337 0.0
O448 O 0.64741 0.0264 0.23352 0.0
O449 O 0.65247 0.05632 0.2334 0.0
C450 C 0.64144 0.04281 0.30368 0.0
O451 O 0.68045 0.02714 0.25732 0.0
O452 O 0.68286 0.03813 0.29625 0.0
In453 In 0.05179 0.41882 0.75983 0.0
O454 O 0.03871 0.42737 0.79492 0.0
O455 O 0.07037 0.44421 0.78918 0.0
C456 C 0.01592 0.38472 0.74796 0.0
C457 C 0.05735 0.44482 0.71945 0.0
C458 C 0.07887 0.40665 0.77357 0.0
O459 O 0.01862 0.39511 0.76841 0.0
O460 O 0.03116 0.39153 0.73344 0.0
O461 O 0.08204 0.41902 0.75539 0.0
O462 O 0.06197 0.40008 0.78429 0.0
C463 C 0.05556 0.44147 0.80299 0.0
O464 O 0.06045 0.43015 0.71707 0.0
O465 O 0.05142 0.44631 0.74188 0.0
In466 In 0.66808 0.67678 0.75541 0.0
O467 O 0.63814 0.658 0.77593 0.0
O468 O 0.66427 0.66145 0.79542 0.0
C469 C 0.70706 0.68837 0.74454 0.0
C470 C 0.649 0.65165 0.71459 0.0
C471 C 0.66825 0.71127 0.76787 0.0
O472 O 0.69739 0.67617 0.76261 0.0
O473 O 0.69712 0.69481 0.73204 0.0
O474 O 0.65914 0.70087 0.74787 0.0
O475 O 0.67763 0.70455 0.78102 0.0
C476 C 0.64538 0.65405 0.79581 0.0
O477 O 0.64959 0.66838 0.71714 0.0
O478 O 0.65831 0.64793 0.73224 0.0
In479 In 0.39079 0.01816 0.7633 0.0
O480 O 0.41283 0.00878 0.77939 0.0
O481 O 0.40763 0.02893 0.80237 0.0
C482 C 0.38361 0.04935 0.75818 0.0
C483 C 0.40955 0.01719 0.71917 0.0
C484 C 0.35555 0.98595 0.778 0.0
O485 O 0.39666 0.04971 0.77372 0.0
O486 O 0.37419 0.03329 0.74495 0.0
O487 O 0.36033 0.98995 0.75428 0.0
O488 O 0.36821 0.99841 0.79404 0.0
C489 C 0.41656 0.01886 0.80033 0.0
O490 O 0.39524 1.00161 0.72914 0.0
O491 O 0.41429 0.03341 0.73127 0.0
In492 In 0.70825 1.00471 0.59832 0.0
O493 O 0.73851 0.03304 0.58883 0.0
O494 O 0.72275 0.03444 0.62203 0.0
C495 C 0.71216 0.98304 0.55753 0.0
C496 C 0.70536 0.9823 0.64205 0.0
C497 C 0.67801 0.01298 0.58695 0.0
O498 O 0.72646 0.9945 0.57263 0.0
O499 O 0.69579 0.98245 0.56279 0.0
O500 O 0.67725 1.00198 0.60585 0.0
O501 O 0.69388 0.01965 0.57359 0.0
C502 C 0.73814 0.04349 0.60783 0.0
O503 O 0.69056 0.97851 0.62731 0.0
O504 O 0.72161 0.99729 0.63483 0.0
In505 In 0.0807 0.76801 0.59645 0.0
O506 O 0.08699 0.78934 0.56194 0.0
O507 O 0.10888 0.78082 0.57012 0.0
C508 C 0.04315 0.76111 0.60814 0.0
C509 C 0.07314 0.72966 0.58779 0.0
C510 C 0.10148 0.79128 0.63832 0.0
O511 O 0.05077 0.76673 0.58572 0.0
O512 O 0.05427 0.75869 0.62433 0.0
O513 O 0.09976 0.77423 0.63392 0.0
O514 O 0.09315 0.79675 0.62134 0.0
C515 C 0.10373 0.79101 0.55594 0.0
O516 O 0.0846 0.74082 0.6059 0.0
O517 O 0.06572 0.7379 0.57366 0.0
In518 In 0.32389 0.38931 0.64091 0.0
O519 O 0.31167 0.35586 0.63091 0.0
O520 O 0.31842 0.365 0.67069 0.0
C521 C 0.30909 0.39949 0.59896 0.0
C522 C 0.31213 0.40347 0.68157 0.0
C523 C 0.36368 0.4054 0.6317 0.0
O524 O 0.30047 0.3819 0.60826 0.0
O525 O 0.32517 0.41179 0.61062 0.0
O526 O 0.35664 0.4139 0.64589 0.0
O527 O 0.35063 0.38885 0.62175 0.0
C528 C 0.31244 0.35082 0.65424 0.0
O529 O 0.32939 0.40521 0.68034 0.0
O530 O 0.30061 0.39433 0.66239 0.0
In531 In 0.71474 0.77963 0.09839 0.0
O532 O 0.70221 0.78235 0.13874 0.0
O533 O 0.72751 0.80835 0.12398 0.0
C534 C 0.68535 0.74131 0.08451 0.0
C535 C 0.713 0.8018 0.05705 0.0
C536 C 0.74686 0.7743 0.10955 0.0
O537 O 0.70291 0.74989 0.0753 0.0
O538 O 0.68237 0.75203 0.10075 0.0
O539 O 0.74648 0.78438 0.09019 0.0
O540 O 0.73121 0.76713 0.1234 0.0
C541 C 0.71505 0.80071 0.1424 0.0
O542 O 0.72775 0.79901 0.06093 0.0
O543 O 0.6993 0.79353 0.0739 0.0
In544 In 0.33065 1.00218 0.12498 0.0
O545 O 0.32312 0.97719 0.15554 0.0
O546 O 0.31251 0.99768 0.16216 0.0
C547 C 0.36619 0.00839 0.10551 0.0
C548 C 0.30157 0.98087 0.08849 0.0
C549 C 0.34421 0.04173 0.13428 0.0
O550 O 0.35977 1.00029 0.12754 0.0
O551 O 0.35446 0.01264 0.09327 0.0
O552 O 0.33214 0.03214 0.11573 0.0
O553 O 0.349 0.03126 0.14853 0.0
C554 C 0.31359 0.98271 0.17037 0.0
O555 O 0.30397 0.99698 0.0987 0.0
O556 O 0.3135 0.97527 0.0971 0.0
In557 In 0.07298 0.37328 0.13711 0.0
O558 O 0.09898 0.40001 0.15836 0.0
O559 O 0.08541 0.37147 0.17708 0.0
C560 C 0.05449 0.39459 0.12517 0.0
C561 C 0.09726 0.37453 0.09789 0.0
C562 C 0.04166 0.33655 0.1486 0.0
O563 O 0.06735 0.39966 0.1434 0.0
O564 O 0.05075 0.37864 0.11323 0.0
O565 O 0.05205 0.33967 0.12823 0.0
O566 O 0.0473 0.35176 0.16323 0.0
C567 C 0.09856 0.38993 0.17814 0.0
O568 O 0.09701 0.36697 0.11992 0.0
O569 O 0.08514 0.38109 0.09562 0.0
In570 In 0.3795 0.34028 0.95368 0.0
O571 O 0.37497 0.33527 0.99847 0.0
O572 O 0.37474 0.31188 0.97637 0.0
C573 C 0.34717 0.34384 0.93792 0.0
C574 C 0.41128 0.37863 0.96245 0.0
C575 C 0.38429 0.32124 0.91092 0.0
O576 O 0.34668 0.3338 0.95785 0.0
O577 O 0.36384 0.35203 0.92617 0.0
O578 O 0.39853 0.33173 0.92675 0.0
O579 O 0.36783 0.32026 0.91674 0.0
C580 C 0.37352 0.31813 0.99877 0.0
O581 O 0.41366 0.36407 0.95572 0.0
O582 O 0.39307 0.37396 0.96447 0.0
In583 In 0.73713 0.11155 0.94085 0.0
O584 O 0.73165 0.08027 0.95302 0.0
O585 O 0.72203 0.08359 0.91508 0.0
C586 C 0.75991 0.13624 0.98012 0.0
C587 C 0.76453 0.12782 0.90233 0.0
C588 C 0.70169 0.11043 0.9493 0.0
O589 O 0.75405 0.11757 0.97999 0.0
O590 O 0.75437 0.14232 0.96046 0.0
O591 O 0.71083 0.1162 0.92774 0.0
O592 O 0.71048 0.10548 0.96621 0.0
C593 C 0.72332 0.07198 0.93149 0.0
O594 O 0.74927 0.13014 0.9035 0.0
O595 O 0.76589 0.11742 0.92058 0.0
In596 In 0.99738 0.68175 0.92687 0.0
O597 O 0.98972 0.69114 0.96558 0.0
O598 O 0.96575 0.67445 0.93857 0.0
C599 C 0.03525 0.71381 0.92699 0.0
C600 C 0.99853 0.64838 0.94112 0.0
C601 C 0.98013 0.6809 0.8803 0.0
O602 O 0.02083 0.71354 0.93908 0.0
O603 O 0.03072 0.69776 0.91467 0.0
O604 O 0.9783 0.66529 0.89112 0.0
O605 O 0.99099 0.69709 0.89276 0.0
C606 C 0.97113 0.68322 0.96054 0.0
O607 O 1.00184 0.65493 0.918 0.0
O608 O 0.99543 0.65906 0.95718 0.0
In609 In 0.39314 0.12889 0.4562 0.0
O610 O 0.37788 0.13765 0.48847 0.0
O611 O 0.40967 0.15344 0.48828 0.0
C612 C 0.36041 0.09253 0.44395 0.0
C613 C 0.39559 0.1512 0.41266 0.0
C614 C 0.42005 0.11638 0.46911 0.0
O615 O 0.36096 0.10307 0.46336 0.0
O616 O 0.37646 0.10014 0.43086 0.0
O617 O 0.424 0.13013 0.45261 0.0
O618 O 0.40272 0.10907 0.47895 0.0
C619 C 0.39388 0.15087 0.49937 0.0
O620 O 0.40986 0.14863 0.42039 0.0
O621 O 0.38038 0.14307 0.42718 0.0
In622 In 1.00618 0.35333 0.45204 0.0
O623 O 0.99941 0.34619 0.49557 0.0
O624 O 0.99097 0.32158 0.46955 0.0
C625 C 0.04438 0.3606 0.4443 0.0
C626 C 0.97885 0.33573 0.41258 0.0
C627 C 0.00899 0.38985 0.45862 0.0
O628 O 0.03744 0.36043 0.46669 0.0
O629 O 0.03221 0.35747 0.42571 0.0
O630 O 0.01909 0.38659 0.44176 0.0
O631 O 0.9975 0.37471 0.47222 0.0
C632 C 0.99164 0.32738 0.49286 0.0
O633 O 0.97978 0.34982 0.42648 0.0
O634 O 0.9915 0.3304 0.41872 0.0
In635 In 0.75174 0.69535 0.4173 0.0
O636 O 0.77331 0.68672 0.43635 0.0
O637 O 0.76015 0.69954 0.46075 0.0
C638 C 0.75545 0.73204 0.4096 0.0
C639 C 0.76498 0.68926 0.37152 0.0
C640 C 0.71554 0.66381 0.42946 0.0
O641 O 0.76892 0.72974 0.4207 0.0
O642 O 0.74009 0.71587 0.40245 0.0
O643 O 0.72764 0.6623 0.41426 0.0
O644 O 0.72144 0.68138 0.43804 0.0
C645 C 0.77156 0.69207 0.45911 0.0
O646 O 0.74675 0.68421 0.37504 0.0
O647 O 0.77656 0.69791 0.39081 0.0
H648 H 0.04483 0.4991 0.09287 0.0
H649 H 0.02795 0.38768 0.08495 0.0
H650 H 0.00961 0.4565 0.03196 0.0
H651 H 0.06161 0.43035 0.14652 0.0
H652 H 0.01721 0.41088 0.06838 0.0
H653 H 0.04709 0.47244 0.11594 0.0
C654 C 0.03737 0.48406 0.08447 0.0
C655 C 0.02725 0.48007 0.06026 0.0
C656 C 0.02675 0.41507 0.0857 0.0
C657 C 0.02997 0.44946 0.08649 0.0
C658 C 0.03287 0.40183 0.09517 0.0
C659 C 0.04588 0.40723 0.11695 0.0
C660 C 0.03377 0.43386 0.09804 0.0
C661 C 0.05172 0.42567 0.12953 0.0
C662 C 0.03867 0.46882 0.09768 0.0
C663 C 0.01767 0.46025 0.0505 0.0
N664 N 0.04579 0.43841 0.11973 0.0
N665 N 0.0195 0.44572 0.06347 0.0
H666 H 0.62461 0.61878 0.02351 0.0
H667 H 0.64532 0.71997 0.09858 0.0
H668 H 0.577 0.62582 0.0577 0.0
H669 H 0.6899 0.7147 0.05328 0.0
H670 H 0.6203 0.68527 0.08587 0.0
H671 H 0.64882 0.65338 0.0363 0.0
C672 C 0.61919 0.62757 0.03375 0.0
C673 C 0.59863 0.61924 0.03949 0.0
C674 C 0.63555 0.69172 0.07869 0.0
C675 C 0.62656 0.65921 0.05439 0.0
C676 C 0.64986 0.71154 0.08597 0.0
C677 C 0.66979 0.72033 0.07699 0.0
C678 C 0.64121 0.68049 0.06244 0.0
C679 C 0.67476 0.70863 0.06067 0.0
C680 C 0.63309 0.64742 0.04103 0.0
C681 C 0.59266 0.63154 0.05279 0.0
N682 N 0.66064 0.68939 0.05403 0.0
N683 N 0.60653 0.65084 0.05984 0.0
H684 H 0.476 0.05927 0.0154 0.0
H685 H 0.39412 0.99967 0.12659 0.0
H686 H 0.48198 0.02074 0.07215 0.0
H687 H 0.38406 0.02938 0.06123 0.0
H688 H 0.42768 0.00964 0.10946 0.0
H689 H 0.44381 0.05141 0.03498 0.0
C690 C 0.47068 0.04934 0.03215 0.0
C691 C 0.48169 0.04059 0.04204 0.0
C692 C 0.4181 0.01395 0.09887 0.0
C693 C 0.44474 0.03139 0.06446 0.0
C694 C 0.39895 0.00823 0.10862 0.0
C695 C 0.38625 0.01361 0.09525 0.0
C696 C 0.42464 0.02526 0.0757 0.0
C697 C 0.39331 0.0248 0.07211 0.0
C698 C 0.45222 0.04475 0.04323 0.0
C699 C 0.47396 0.02776 0.06376 0.0
N700 N 0.41201 0.03028 0.06311 0.0
N701 N 0.45596 0.02351 0.07417 0.0
H702 H 0.52127 0.09272 0.48367 0.0
H703 H 0.41352 0.0859 0.50247 0.0
H704 H 0.46927 0.04292 0.51864 0.0
H705 H 0.45905 0.13008 0.45215 0.0
H706 H 0.43614 0.07304 0.51326 0.0
H707 H 0.50128 0.10978 0.47682 0.0
C708 C 0.50583 0.08558 0.49034 0.0
C709 C 0.4969 0.06634 0.50167 0.0
C710 C 0.44129 0.08559 0.49989 0.0
C711 C 0.474 0.08559 0.49385 0.0
C712 C 0.42833 0.09297 0.49371 0.0
C713 C 0.43427 0.10905 0.47622 0.0
C714 C 0.46055 0.09429 0.48862 0.0
C715 C 0.45377 0.11759 0.46562 0.0
C716 C 0.49438 0.0952 0.48622 0.0
C717 C 0.47675 0.05766 0.50965 0.0
N718 N 0.46618 0.1101 0.47192 0.0
N719 N 0.46607 0.06727 0.50557 0.0
H720 H 0.04347 0.51488 0.44293 0.0
H721 H 0.99249 0.40208 0.49727 0.0
H722 H 0.01648 0.49866 0.51938 0.0
H723 H 0.0289 0.42305 0.42778 0.0
H724 H 0.99632 0.43572 0.50311 0.0
H725 H 0.03249 0.47959 0.43401 0.0
C726 C 0.03486 0.50378 0.45769 0.0
C727 C 0.03098 0.50973 0.48199 0.0
C728 C 1.00336 0.43289 0.48653 0.0
C729 C 0.01871 0.46917 0.47213 0.0
C730 C 1.0012 0.41372 0.48318 0.0
C731 C 0.01052 0.40981 0.46209 0.0
C732 C 0.01478 0.44818 0.46853 0.0
C733 C 0.02157 0.42542 0.44441 0.0
C734 C 0.02871 0.48362 0.45264 0.0
C735 C 0.0197 0.49469 0.50033 0.0
N736 N 0.02341 0.44387 0.44806 0.0
N737 N 0.01418 0.47508 0.49517 0.0
H738 H 0.61306 0.54424 0.45244 0.0
H739 H 0.69009 0.6623 0.4677 0.0
H740 H 0.617 0.57942 0.52087 0.0
H741 H 0.69847 0.62509 0.41112 0.0
H742 H 0.66052 0.63231 0.48426 0.0
H743 H 0.64252 0.57384 0.43447 0.0
C744 C 0.62017 0.55807 0.46378 0.0
C745 C 0.61236 0.55937 0.48808 0.0
C746 C 0.6688 0.6307 0.46818 0.0
C747 C 0.64573 0.59329 0.46745 0.0
C748 C 0.68559 0.64783 0.45863 0.0
C749 C 0.69673 0.64612 0.43809 0.0
C750 C 0.66304 0.61176 0.457 0.0
C751 C 0.69029 0.62701 0.42706 0.0
C752 C 0.63689 0.57498 0.45344 0.0
C753 C 0.62213 0.57779 0.50181 0.0
N754 N 0.67384 0.61052 0.43667 0.0
N755 N 0.63819 0.59401 0.49124 0.0
H756 H 0.00949 0.5418 0.94421 0.0
H757 H 0.99087 0.63114 0.98947 0.0
H758 H 1.00267 0.55456 0.02483 0.0
H759 H 1.00344 0.6221 0.90979 0.0
H760 H 0.98946 0.59963 1.00175 0.0
H761 H 1.00045 0.56683 0.93022 0.0
C762 C 1.00561 0.54949 0.95896 0.0
C763 C 1.00725 0.5464 0.98576 0.0
C764 C 0.99242 0.60446 0.98154 0.0
C765 C 0.99725 0.57525 0.96989 0.0
C766 C 0.99333 0.6225 0.97456 0.0
C767 C 0.99756 0.62934 0.94866 0.0
C768 C 0.9958 0.5932 0.96249 0.0
C769 C 1.00038 0.61745 0.93005 0.0
C770 C 1.00061 0.56391 0.95095 0.0
C771 C 1.00193 0.55672 1.00397 0.0
N772 N 0.99958 0.6 0.93737 0.0
N773 N 0.99748 0.57092 0.99571 0.0
H774 H 0.48394 0.50571 1.00518 0.0
H775 H 0.45208 0.39248 0.96084 0.0
H776 H 0.52675 0.48559 0.9913 0.0
H777 H 0.40928 0.41217 0.97702 0.0
H778 H 0.47962 0.42658 0.971 0.0
H779 H 0.4565 0.47182 0.99413 0.0
C780 C 0.48762 0.49421 0.99978 0.0
C781 C 0.50779 0.49865 0.99922 0.0
C782 C 0.46421 0.42347 0.97231 0.0
C783 C 0.47626 0.45957 0.98647 0.0
C784 C 0.44846 0.40397 0.96647 0.0
C785 C 0.42828 0.39938 0.96806 0.0
C786 C 0.45984 0.43862 0.97981 0.0
C787 C 0.42457 0.41496 0.97552 0.0
C788 C 0.4719 0.47481 0.99347 0.0
C789 C 0.51149 0.48299 0.99206 0.0
N790 N 0.44013 0.43379 0.9811 0.0
N791 N 0.49595 0.46425 0.986 0.0
H792 H 0.58816 0.07728 0.02091 0.0
H793 H 0.67519 0.11195 0.91392 0.0
H794 H 0.57713 0.07486 0.9375 0.0
H795 H 0.68274 0.10413 0.99614 0.0
H796 H 0.64071 0.10479 0.9227 0.0
H797 H 0.62429 0.09404 0.01261 0.0
C798 C 0.59332 0.08059 1.00085 0.0
C799 C 0.57952 0.07435 0.97985 0.0
C800 C 0.65002 0.10487 0.93884 0.0
C801 C 0.62097 0.09335 0.9702 0.0
C802 C 0.66969 0.109 0.93384 0.0
C803 C 0.68174 0.10841 0.95429 0.0
C804 C 0.64246 0.10027 0.96447 0.0
C805 C 0.67389 0.10452 0.97974 0.0
C806 C 0.61399 0.09008 0.99612 0.0
C807 C 0.58718 0.07919 0.9543 0.0
N808 N 0.65474 0.10049 0.98407 0.0
N809 N 0.60737 0.08816 0.95017 0.0
H810 H 0.56185 1.00563 0.5736 0.0
H811 H 0.67749 0.03897 0.55 0.0
H812 H 0.60008 0.0565 0.52541 0.0
H813 H 0.64112 0.99773 0.61031 0.0
H814 H 0.64995 0.04583 0.5402 0.0
H815 H 0.5911 1.00308 0.58723 0.0
C816 C 0.57653 0.01651 0.56618 0.0
C817 C 0.57849 0.03137 0.54843 0.0
C818 C 0.64805 0.03538 0.55567 0.0
C819 C 0.6123 0.0282 0.56351 0.0
C820 C 0.66374 0.03137 0.56122 0.0
C821 C 0.66163 0.01765 0.58096 0.0
C822 C 0.62998 0.02546 0.56977 0.0
C823 C 0.64347 0.00836 0.59489 0.0
C824 C 0.59327 0.015 0.57392 0.0
C825 C 0.59791 0.04497 0.53937 0.0
N826 N 0.62839 0.01233 0.58893 0.0
N827 N 0.61403 0.0429 0.54674 0.0
H828 H 0.06895 0.61505 0.60277 0.0
H829 H 0.04974 0.70272 0.54931 0.0
H830 H 0.03733 0.60984 0.53021 0.0
H831 H 0.08588 0.70834 0.6175 0.0
H832 H 0.04242 0.66781 0.54357 0.0
H833 H 0.07197 0.64789 0.6105 0.0
C834 C 0.06236 0.62067 0.58859 0.0
C835 C 0.05293 0.60961 0.56573 0.0
C836 C 0.05191 0.67667 0.55981 0.0
C837 C 0.05662 0.64762 0.57436 0.0
C838 C 0.05613 0.69662 0.56307 0.0
C839 C 0.06853 0.70852 0.58385 0.0
C840 C 0.06008 0.66853 0.57752 0.0
C841 C 0.07632 0.69979 0.60114 0.0
C842 C 0.0642 0.63954 0.59298 0.0
C843 C 0.04468 0.61776 0.54815 0.0
N844 N 0.07199 0.68039 0.59757 0.0
N845 N 0.04687 0.63635 0.55272 0.0
H846 H 0.49028 0.48911 0.61673 0.0
H847 H 0.38277 0.38962 0.60298 0.0
H848 H 0.4812 0.43577 0.57591 0.0
H849 H 0.39413 0.44122 0.65016 0.0
H850 H 0.41898 0.40525 0.59473 0.0
H851 H 0.45548 0.47073 0.63173 0.0
C852 C 0.48095 0.47341 0.61122 0.0
C853 C 0.4885 0.46396 0.59495 0.0
C854 C 0.41355 0.41308 0.60703 0.0
C855 C 0.44859 0.44283 0.61169 0.0
C856 C 0.3929 0.40421 0.61166 0.0
C857 C 0.38547 0.41424 0.6271 0.0
C858 C 0.4268 0.43214 0.61783 0.0
C859 C 0.39922 0.43303 0.638 0.0
C860 C 0.4611 0.46291 0.61975 0.0
C861 C 0.47594 0.44355 0.58854 0.0
N862 N 0.4192 0.44141 0.63303 0.0
N863 N 0.45647 0.43371 0.59665 0.0
H864 H 0.7372 0.82934 0.35898 0.0
H865 H 0.78626 0.76892 0.4253 0.0
H866 H 0.79058 0.85799 0.40792 0.0
H867 H 0.72928 0.74067 0.38384 0.0
H868 H 0.78919 0.80189 0.41764 0.0
H869 H 0.73515 0.797 0.36636 0.0
C870 C 0.74843 0.82886 0.37147 0.0
C871 C 0.76397 0.84648 0.38309 0.0
C872 C 0.77605 0.78848 0.41023 0.0
C873 C 0.76187 0.80928 0.39132 0.0
C874 C 0.77438 0.76967 0.41458 0.0
C875 C 0.75749 0.75205 0.4052 0.0
C876 C 0.76076 0.78965 0.39631 0.0
C877 C 0.74254 0.75386 0.39144 0.0
C878 C 0.74731 0.81033 0.37556 0.0
C879 C 0.7784 0.84485 0.39848 0.0
N880 N 0.74455 0.77232 0.3874 0.0
N881 N 0.77697 0.82657 0.4022 0.0
H882 H 0.23775 0.99326 0.4259 0.0
H883 H 0.35663 0.06516 0.40626 0.0
H884 H 0.27407 0.97623 0.37984 0.0
H885 H 0.32268 0.07573 0.46518 0.0
H886 H 0.32621 0.03356 0.39422 0.0
H887 H 0.26825 0.02467 0.4382 0.0
C888 C 0.25212 0.99615 0.41829 0.0
C889 C 0.25331 0.98201 0.40187 0.0
C890 C 0.32542 0.04276 0.40983 0.0
C891 C 0.28838 0.01801 0.4159 0.0
C892 C 0.34279 0.06082 0.41669 0.0
C893 C 0.34223 0.07311 0.43679 0.0
C894 C 0.30726 0.037 0.42296 0.0
C895 C 0.32384 0.06671 0.44962 0.0
C896 C 0.26956 0.01404 0.42545 0.0
C897 C 0.27243 0.98652 0.39282 0.0
N898 N 0.30711 0.04918 0.44242 0.0
N899 N 0.28915 1.00412 0.39985 0.0
H900 H 0.15745 0.38117 0.37813 0.0
H901 H 0.07377 0.36989 0.48125 0.0
H902 H 0.17056 0.40445 0.45724 0.0
H903 H 0.06201 0.35927 0.39822 0.0
H904 H 0.10819 0.3768 0.47419 0.0
H905 H 0.12128 0.36674 0.38682 0.0
C906 C 0.15269 0.38273 0.39753 0.0
C907 C 0.16696 0.39401 0.41702 0.0
C908 C 0.09807 0.37287 0.45751 0.0
C909 C 0.12583 0.3779 0.42695 0.0
C910 C 0.07841 0.36895 0.46153 0.0
C911 C 0.06506 0.3642 0.44025 0.0
C912 C 0.10448 0.37198 0.43203 0.0
C913 C 0.07188 0.36305 0.41514 0.0
C914 C 0.13209 0.37472 0.40239 0.0
C915 C 0.16002 0.39591 0.44166 0.0
N916 N 0.09114 0.36699 0.4117 0.0
N917 N 0.13999 0.38806 0.44587 0.0
H918 H 0.15273 0.37396 0.86936 0.0
H919 H 0.11498 0.41604 0.75098 0.0
H920 H 0.18376 0.39359 0.79568 0.0
H921 H 0.07755 0.38489 0.81698 0.0
H922 H 0.14047 0.4082 0.76744 0.0
H923 H 0.12503 0.37771 0.85097 0.0
C924 C 0.15364 0.3788 0.84924 0.0
C925 C 0.17071 0.38347 0.83413 0.0
C926 C 0.12663 0.40296 0.77827 0.0
C927 C 0.13911 0.38814 0.81304 0.0
C928 C 0.11207 0.40746 0.76887 0.0
C929 C 0.09407 0.40113 0.78259 0.0
C930 C 0.12336 0.39222 0.80179 0.0
C931 C 0.09118 0.39006 0.80571 0.0
C932 C 0.13782 0.381 0.83876 0.0
C933 C 0.17099 0.38979 0.80817 0.0
N934 N 0.10569 0.38609 0.81466 0.0
N935 N 0.15559 0.3921 0.7986 0.0
H936 H 0.63401 0.80278 0.7923 0.0
H937 H 0.68853 0.73693 0.80832 0.0
H938 H 0.68302 0.81707 0.84628 0.0
H939 H 0.64535 0.72632 0.74673 0.0
H940 H 0.6855 0.76558 0.82348 0.0
H941 H 0.6363 0.77358 0.77672 0.0
C942 C 0.64513 0.79969 0.80099 0.0
C943 C 0.65843 0.81245 0.8205 0.0
C944 C 0.67672 0.75706 0.80659 0.0
C945 C 0.66123 0.77924 0.80272 0.0
C946 C 0.67847 0.7407 0.7979 0.0
C947 C 0.66721 0.72926 0.7762 0.0
C948 C 0.66351 0.76201 0.79361 0.0
C949 C 0.65437 0.7348 0.76349 0.0
C950 C 0.64654 0.78313 0.79197 0.0
C951 C 0.67269 0.80786 0.83092 0.0
N952 N 0.6528 0.75076 0.77244 0.0
N953 N 0.67371 0.79166 0.82192 0.0
H954 H 0.25707 0.8996 0.87081 0.0
H955 H 0.32553 0.95671 0.74751 0.0
H956 H 0.23785 0.882 0.79059 0.0
H957 H 0.34344 0.97407 0.82808 0.0
H958 H 0.29468 0.92713 0.76267 0.0
H959 H 0.29047 0.92419 0.85536 0.0
C960 C 0.25996 0.90066 0.84995 0.0
C961 C 0.24455 0.88889 0.83196 0.0
C962 C 0.30542 0.93736 0.77701 0.0
C963 C 0.28272 0.91731 0.81407 0.0
C964 C 0.32297 0.95427 0.76837 0.0
C965 C 0.33694 0.96793 0.78657 0.0
C966 C 0.30186 0.93414 0.80404 0.0
C967 C 0.33299 0.964 0.81337 0.0
C968 C 0.27904 0.9148 0.84112 0.0
C969 C 0.24924 0.89084 0.80517 0.0
N970 N 0.31579 0.94753 0.82127 0.0
N971 N 0.26784 0.90501 0.79701 0.0
H972 H 0.73912 0.96762 0.36468 0.0
H973 H 0.70264 0.01076 0.24834 0.0
H974 H 0.75971 0.97127 0.28545 0.0
H975 H 0.69811 0.02345 0.32971 0.0
H976 H 0.72294 0.99554 0.26133 0.0
H977 H 0.72398 0.98811 0.35242 0.0
C978 C 0.74069 0.97308 0.34478 0.0
C979 C 0.75057 0.9678 0.32599 0.0
C980 C 0.71759 1.00176 0.27632 0.0
C981 C 0.733 0.99079 0.31163 0.0
C982 C 0.70588 0.01028 0.26895 0.0
C983 C 0.69858 0.01822 0.28802 0.0
C984 C 0.72181 1.00096 0.30297 0.0
C985 C 0.70337 0.01741 0.3144 0.0
C986 C 0.73206 0.98472 0.33777 0.0
C987 C 0.75231 0.97518 0.30047 0.0
N988 N 0.71457 0.00878 0.32112 0.0
N989 N 0.74331 0.98608 0.2939 0.0
H990 H 0.14266 0.85382 0.2805 0.0
H991 H 0.07184 0.73944 0.32416 0.0
H992 H 0.14185 0.83336 0.35935 0.0
H993 H 0.0905 0.75583 0.24413 0.0
H994 H 0.09376 0.77462 0.33747 0.0
H995 H 0.11967 0.8188 0.26683 0.0
C996 C 0.13749 0.84198 0.29495 0.0
C997 C 0.14421 0.84648 0.32108 0.0
C998 C 0.09307 0.77052 0.317 0.0
C999 C 0.11793 0.80647 0.30565 0.0
C1000 C 0.08053 0.75045 0.30938 0.0
C1001 C 0.0794 0.74468 0.28301 0.0
C1002 C 0.10435 0.78503 0.29807 0.0
C1003 C 0.091 0.75961 0.26469 0.0
C1004 C 0.12451 0.82201 0.28713 0.0
C1005 C 0.13721 0.83052 0.33898 0.0
N1006 N 0.10292 0.77912 0.27253 0.0
N1007 N 0.1244 0.81127 0.33097 0.0
H1008 H 0.27839 0.45424 0.30815 0.0
H1009 H 0.35 0.40602 0.32008 0.0
H1010 H 0.2631 0.40131 0.35409 0.0
H1011 H 0.36568 0.46111 0.2791 0.0
H1012 H 0.31654 0.40157 0.32863 0.0
H1013 H 0.30839 0.45413 0.29276 0.0
C1014 C 0.28122 0.44242 0.31479 0.0
C1015 C 0.26829 0.42787 0.33266 0.0
C1016 C 0.32725 0.41455 0.31761 0.0
C1017 C 0.30294 0.42782 0.31528 0.0
C1018 C 0.34635 0.41711 0.31271 0.0
C1019 C 0.3607 0.43405 0.299 0.0
C1020 C 0.32244 0.42903 0.30869 0.0
C1021 C 0.35514 0.4479 0.28987 0.0
C1022 C 0.29843 0.44241 0.30602 0.0
C1023 C 0.27267 0.41282 0.34035 0.0
N1024 N 0.33651 0.44512 0.29498 0.0
N1025 N 0.28977 0.41332 0.33184 0.0
H1026 H 0.24093 0.35759 0.928 0.0
H1027 H 0.3424 0.358 0.8908 0.0
H1028 H 0.26137 0.36199 0.84841 0.0
H1029 H 0.31205 0.33409 0.96396 0.0
H1030 H 0.31382 0.36153 0.87587 0.0
H1031 H 0.26743 0.35047 0.94242 0.0
C1032 C 0.25083 0.35684 0.91349 0.0
C1033 C 0.24882 0.36037 0.88689 0.0
C1034 C 0.31334 0.35543 0.89516 0.0
C1035 C 0.27953 0.35262 0.90343 0.0
C1036 C 0.32971 0.35349 0.90375 0.0
C1037 C 0.32967 0.34576 0.92872 0.0
C1038 C 0.29682 0.3499 0.91174 0.0
C1039 C 0.31274 0.3401 0.94457 0.0
C1040 C 0.26598 0.3528 0.92177 0.0
C1041 C 0.26219 0.35927 0.86907 0.0
N1042 N 0.29709 0.34243 0.93592 0.0
N1043 N 0.27706 0.35572 0.87767 0.0
H1044 H 0.66864 0.94137 0.93467 0.0
H1045 H 0.71432 0.05393 0.88349 0.0
H1046 H 0.69442 0.95997 0.85795 0.0
H1047 H 0.71508 0.04111 0.96566 0.0
H1048 H 0.70179 0.01839 0.87327 0.0
H1049 H 0.68031 0.97685 0.94594 0.0
C1050 C 0.6766 0.95293 0.92017 0.0
C1051 C 0.68064 0.94783 0.89538 0.0
C1052 C 0.70471 0.02335 0.89354 0.0
C1053 C 0.69384 0.98816 0.90799 0.0
C1054 C 0.7118 0.04361 0.8994 0.0
C1055 C 0.7158 0.05047 0.92546 0.0
C1056 C 0.70123 0.00972 0.91389 0.0
C1057 C 0.71229 0.03643 0.9453 0.0
C1058 C 0.68337 0.97311 0.92666 0.0
C1059 C 0.69118 0.96333 0.87734 0.0
N1060 N 0.70506 0.01664 0.93912 0.0
N1061 N 0.69731 0.98277 0.88394 0.0
H1062 H 0.15409 0.80867 0.88197 0.0
H1063 H 0.04837 0.74829 0.95536 0.0
H1064 H 0.12979 0.83549 0.93438 0.0
H1065 H 0.06803 0.72064 0.89754 0.0
H1066 H 0.08062 0.77927 0.95212 0.0
H1067 H 0.12525 0.77532 0.89162 0.0
C1068 C 0.14287 0.80751 0.89578 0.0
C1069 C 0.14422 0.82487 0.9072 0.0
C1070 C 0.078 0.76644 0.9402 0.0
C1071 C 0.1113 0.78695 0.9182 0.0
C1072 C 0.05956 0.74872 0.94206 0.0
C1073 C 0.05545 0.73194 0.92649 0.0
C1074 C 0.0925 0.76753 0.92251 0.0
C1075 C 0.07058 0.73329 0.90978 0.0
C1076 C 0.12639 0.78851 0.90118 0.0
C1077 C 0.12926 0.82254 0.92489 0.0
N1078 N 0.08842 0.75088 0.90804 0.0
N1079 N 0.11341 0.80399 0.9297 0.0
H1080 H 0.35444 0.13971 0.70478 0.0
H1081 H 0.39566 0.08121 0.79173 0.0
H1082 H 0.36518 0.14944 0.78801 0.0
H1083 H 0.36236 0.05605 0.71982 0.0
H1084 H 0.38857 0.10901 0.78835 0.0
H1085 H 0.36113 0.11148 0.70756 0.0
C1086 C 0.35823 0.13591 0.7236 0.0
C1087 C 0.35919 0.14686 0.74622 0.0
C1088 C 0.38279 0.09739 0.77333 0.0
C1089 C 0.36701 0.11483 0.7495 0.0
C1090 C 0.3869 0.08158 0.77518 0.0
C1091 C 0.37956 0.0663 0.75604 0.0
C1092 C 0.37152 0.09814 0.75195 0.0
C1093 C 0.36824 0.0675 0.73504 0.0
C1094 C 0.36193 0.11977 0.7252 0.0
C1095 C 0.36404 0.14124 0.77017 0.0
N1096 N 0.36466 0.08322 0.73346 0.0
N1097 N 0.36791 0.12572 0.77116 0.0
H1098 H 0.90365 0.27196 0.76167 0.0
H1099 H 1.00547 0.36167 0.70305 0.0
H1100 H 0.92009 0.27399 0.68058 0.0
H1101 H 0.98252 0.36458 0.77894 0.0
H1102 H 0.97428 0.32991 0.69411 0.0
H1103 H 0.93185 0.3062 0.76787 0.0
C1104 C 0.91298 0.27973 0.74502 0.0
C1105 C 0.90939 0.27 0.72054 0.0
C1106 C 0.97599 0.33755 0.71265 0.0
C1107 C 0.94221 0.30927 0.72771 0.0
C1108 C 0.99384 0.35568 0.71781 0.0
C1109 C 0.9967 0.36583 0.74184 0.0
C1110 C 0.96086 0.3293 0.73175 0.0
C1111 C 0.98103 0.35732 0.76016 0.0
C1112 C 0.92917 0.2993 0.74861 0.0
C1113 C 0.92212 0.28089 0.69974 0.0
N1114 N 0.96392 0.33954 0.75482 0.0
N1115 N 0.93808 0.29979 0.70388 0.0
H1116 H 0.82245 0.69357 0.73346 0.0
H1117 H 0.73089 0.71413 0.70625 0.0
H1118 H 0.82273 0.73221 0.67174 0.0
H1119 H 0.7313 0.67595 0.76806 0.0
H1120 H 0.76527 0.72258 0.69488 0.0
H1121 H 0.79012 0.6889 0.7482 0.0
C1122 C 0.81583 0.70126 0.72313 0.0
C1123 C 0.82536 0.71325 0.7012 0.0
C1124 C 0.75789 0.71243 0.71101 0.0
C1125 C 0.78805 0.70776 0.71792 0.0
C1126 C 0.73824 0.70759 0.71751 0.0
C1127 C 0.72816 0.69424 0.73808 0.0
C1128 C 0.76756 0.70385 0.72516 0.0
C1129 C 0.73846 0.68625 0.75201 0.0
C1130 C 0.7973 0.69853 0.73155 0.0
C1131 C 0.81599 0.72283 0.68871 0.0
N1132 N 0.75752 0.69111 0.74524 0.0
N1133 N 0.7978 0.71976 0.69712 0.0
H1134 H 0.8512 0.75839 0.09471 0.0
H1135 H 0.7517 0.75444 0.15127 0.0
H1136 H 0.82592 0.73294 0.16985 0.0
H1137 H 0.78085 0.78549 0.08034 0.0
H1138 H 0.77914 0.74723 0.15905 0.0
H1139 H 0.8264 0.76951 0.08998 0.0
C1140 C 0.84061 0.75534 0.1104 0.0
C1141 C 0.84072 0.74465 0.13272 0.0
C1142 C 0.77962 0.75572 0.14185 0.0
C1143 C 0.81189 0.75716 0.12718 0.0
C1144 C 0.76391 0.75983 0.13737 0.0
C1145 C 0.7639 0.77057 0.11506 0.0
C1146 C 0.79546 0.76225 0.12382 0.0
C1147 C 0.78019 0.77716 0.09778 0.0
C1148 C 0.82637 0.76167 0.10763 0.0
C1149 C 0.82652 0.74117 0.15233 0.0
N1150 N 0.7952 0.77281 0.10244 0.0
N1151 N 0.81261 0.74723 0.14899 0.0
H1152 H 0.39898 0.16317 0.19778 0.0
H1153 H 0.34276 0.06884 0.10075 0.0
H1154 H 0.39462 0.16939 0.1144 0.0
H1155 H 0.36566 0.06462 0.17658 0.0
H1156 H 0.35861 0.10541 0.1068 0.0
H1157 H 0.38411 0.12665 0.19173 0.0
C1158 C 0.39497 0.15682 0.1782 0.0
C1159 C 0.39808 0.1693 0.15656 0.0
C1160 C 0.36017 0.09647 0.1221 0.0
C1161 C 0.38084 0.1276 0.1495 0.0
C1162 C 0.35102 0.0756 0.11874 0.0
C1163 C 0.35289 0.06369 0.13821 0.0
C1164 C 0.37104 0.10548 0.14525 0.0
C1165 C 0.36387 0.07326 0.16107 0.0
C1166 C 0.38654 0.13603 0.17474 0.0
C1167 C 0.39271 0.16036 0.13157 0.0
N1168 N 0.37245 0.09358 0.16402 0.0
N1169 N 0.38418 0.14004 0.12875 0.0
H1170 H 0.92177 0.24 0.12671 0.0
H1171 H 0.02148 0.3241 0.19466 0.0
H1172 H 0.92845 0.25024 0.21038 0.0
H1173 H 0.01971 0.30537 0.1144 0.0
H1174 H 0.98843 0.2946 0.20157 0.0
H1175 H 0.95831 0.26078 0.1223 0.0
C1176 C 0.93092 0.24626 0.14422 0.0
C1177 C 0.92196 0.24369 0.1689 0.0
C1178 C 0.99535 0.29671 0.18253 0.0
C1179 C 0.96375 0.2677 0.16393 0.0
C1180 C 0.01422 0.3136 0.17858 0.0
C1181 C 0.0232 0.31726 0.15386 0.0
C1182 C 0.98519 0.28358 0.16146 0.0
C1183 C 0.01322 0.30311 0.13374 0.0
C1184 C 0.9518 0.25816 0.14167 0.0
C1185 C 0.93463 0.25204 0.1909 0.0
N1186 N 0.99456 0.28705 0.13785 0.0
N1187 N 0.95482 0.26395 0.18783 0.0
H1188 H 0.30055 0.23212 0.6515 0.0
H1189 H 0.31491 0.33756 0.70292 0.0
H1190 H 0.32561 0.25833 0.72705 0.0
H1191 H 0.30159 0.318 0.62222 0.0
H1192 H 0.31267 0.3055 0.71412 0.0
H1193 H 0.29468 0.26032 0.64265 0.0
C1194 C 0.30448 0.24362 0.6664 0.0
C1195 C 0.31374 0.243 0.68997 0.0
C1196 C 0.31006 0.30812 0.69399 0.0
C1197 C 0.30722 0.2753 0.67994 0.0
C1198 C 0.31128 0.32641 0.68759 0.0
C1199 C 0.30862 0.33052 0.66155 0.0
C1200 C 0.30615 0.29378 0.67422 0.0
C1201 C 0.30386 0.31548 0.64252 0.0
C1202 C 0.30127 0.25977 0.66127 0.0
C1203 C 0.31871 0.2584 0.70849 0.0
N1204 N 0.30293 0.29781 0.6492 0.0
N1205 N 0.31549 0.27395 0.70304 0.0
H1206 H 0.81586 0.16461 0.67252 0.0
H1207 H 0.77456 0.06452 0.58336 0.0
H1208 H 0.85347 0.14959 0.62602 0.0
H1209 H 0.73934 0.07035 0.64487 0.0
H1210 H 0.80206 0.09844 0.59379 0.0
H1211 H 0.78608 0.13309 0.65739 0.0
C1212 C 0.8178 0.15495 0.65868 0.0
C1213 C 0.83717 0.15974 0.6505 0.0
C1214 C 0.78829 0.09236 0.60497 0.0
C1215 C 0.80334 0.1237 0.63331 0.0
C1216 C 0.77255 0.07297 0.59898 0.0
C1217 C 0.75462 0.06447 0.61336 0.0
C1218 C 0.78616 0.10355 0.6254 0.0
C1219 C 0.75293 0.07624 0.63337 0.0
C1220 C 0.80086 0.13687 0.65027 0.0
C1221 C 0.83884 0.14648 0.6329 0.0
N1222 N 0.76848 0.09513 0.63883 0.0
N1223 N 0.82224 0.12916 0.62498 0.0
H1224 H 0.9203 0.73859 0.60458 0.0
H1225 H 0.02522 0.75169 0.65611 0.0
H1226 H 0.93256 0.73208 0.68559 0.0
H1227 H 0.01513 0.76319 0.57628 0.0
H1228 H 0.99179 0.7459 0.66751 0.0
H1229 H 0.95545 0.74968 0.59425 0.0
C1230 C 0.93043 0.73977 0.62029 0.0
C1231 C 0.92335 0.73425 0.64599 0.0
C1232 C 0.99687 0.74977 0.64751 0.0
C1233 C 0.96366 0.74667 0.63417 0.0
C1234 C 0.01596 0.75301 0.64096 0.0
C1235 C 0.02295 0.75781 0.61516 0.0
C1236 C 0.98454 0.75122 0.62811 0.0
C1237 C 0.01032 0.75944 0.59639 0.0
C1238 C 0.95051 0.74604 0.61434 0.0
C1239 C 0.93726 0.73613 0.6655 0.0
N1240 N 0.9917 0.75604 0.6032 0.0
N1241 N 0.95664 0.74197 0.65914 0.0
H1242 H 0.88866 0.66499 0.20739 0.0
H1243 H 0.00858 0.71635 0.21316 0.0
H1244 H 0.92757 0.72485 0.1781 0.0
H1245 H 0.96875 0.6642 0.2585 0.0
H1246 H 0.97958 0.71955 0.19901 0.0
H1247 H 0.91796 0.66438 0.22528 0.0
C1248 C 0.90341 0.67812 0.20486 0.0
C1249 C 0.9056 0.695 0.19113 0.0
C1250 C 0.97719 0.70747 0.21216 0.0
C1251 C 0.93955 0.69426 0.21144 0.0
C1252 C 0.99373 0.70557 0.22018 0.0
C1253 C 0.99112 0.68991 0.237 0.0
C1254 C 0.95776 0.69348 0.22072 0.0
C1255 C 0.97152 0.67648 0.24551 0.0
C1256 C 0.92018 0.67775 0.21515 0.0
C1257 C 0.92514 0.71157 0.18864 0.0
N1258 N 0.95563 0.67849 0.23716 0.0
N1259 N 0.94138 0.7107 0.19843 0.0
H1260 H 0.39595 0.29289 0.22856 0.0
H1261 H 0.4547 0.40617 0.28182 0.0
H1262 H 0.46082 0.32851 0.22737 0.0
H1263 H 0.39288 0.37647 0.2549 0.0
H1264 H 0.45705 0.37664 0.26795 0.0
H1265 H 0.3944 0.32205 0.24474 0.0
C1266 C 0.40992 0.30678 0.23206 0.0
C1267 C 0.42859 0.30822 0.22677 0.0
C1268 C 0.44299 0.37663 0.26511 0.0
C1269 C 0.42686 0.34186 0.24507 0.0
C1270 C 0.44161 0.3934 0.27309 0.0
C1271 C 0.42356 0.39374 0.26946 0.0
C1272 C 0.42611 0.35999 0.25382 0.0
C1273 C 0.40709 0.37685 0.25799 0.0
C1274 C 0.409 0.32351 0.24106 0.0
C1275 C 0.44615 0.32681 0.23115 0.0
N1276 N 0.40873 0.36063 0.25069 0.0
N1277 N 0.44488 0.34294 0.24015 0.0
H1278 H 0.82355 0.17136 0.21383 0.0
H1279 H 0.71422 0.12037 0.27887 0.0
H1280 H 0.7985 0.20539 0.24902 0.0
H1281 H 0.73312 0.08894 0.22595 0.0
H1282 H 0.74673 0.15109 0.2729 0.0
H1283 H 0.79226 0.14017 0.22352 0.0
C1284 C 0.81158 0.17226 0.22387 0.0
C1285 C 0.81356 0.19098 0.23051 0.0
C1286 C 0.74374 0.13746 0.26258 0.0
C1287 C 0.77781 0.15547 0.24151 0.0
C1288 C 0.7252 0.11996 0.26597 0.0
C1289 C 0.72096 0.10216 0.25276 0.0
C1290 C 0.75818 0.13707 0.24608 0.0
C1291 C 0.73574 0.1024 0.23636 0.0
C1292 C 0.79369 0.15448 0.22923 0.0
C1293 C 0.79754 0.19127 0.24338 0.0
N1294 N 0.75372 0.11958 0.23352 0.0
N1295 N 0.78033 0.17379 0.24842 0.0
H1296 H 0.0365 0.49106 0.94671 0.0
H1297 H 0.09002 0.4738 0.82228 0.0
H1298 H 0.0985 0.53119 0.92617 0.0
H1299 H 0.02649 0.43731 0.83787 0.0
H1300 H 0.09373 0.49399 0.86139 0.0
H1301 H 0.03297 0.47013 0.90853 0.0
C1302 C 0.04946 0.49541 0.93438 0.0
C1303 C 0.06787 0.513 0.93983 0.0
C1304 C 0.07896 0.48158 0.8563 0.0
C1305 C 0.06381 0.48906 0.89565 0.0
C1306 C 0.07683 0.47002 0.83393 0.0
C1307 C 0.0579 0.45383 0.82671 0.0
C1308 C 0.06206 0.47693 0.87175 0.0
C1309 C 0.04137 0.44967 0.84264 0.0
C1310 C 0.04737 0.48349 0.91239 0.0
C1311 C 0.08397 0.51794 0.92269 0.0
N1312 N 0.04383 0.4611 0.86438 0.0
N1313 N 0.08158 0.50606 0.90148 0.0
H1314 H 0.5441 0.58486 0.897 0.0
H1315 H 0.65719 0.64645 0.84345 0.0
H1316 H 0.5965 0.602 0.94593 0.0
H1317 H 0.60442 0.63475 0.79852 0.0
H1318 H 0.63537 0.62794 0.8803 0.0
H1319 H 0.56612 0.60084 0.85982 0.0
C1320 C 0.56023 0.59202 0.9 0.0
C1321 C 0.56839 0.59217 0.92479 0.0
C1322 C 0.62859 0.62938 0.86233 0.0
C1323 C 0.59383 0.61043 0.88201 0.0
C1324 C 0.64102 0.6399 0.8413 0.0
C1325 C 0.6326 0.6422 0.81794 0.0
C1326 C 0.6076 0.62104 0.85989 0.0
C1327 C 0.61157 0.63342 0.8162 0.0
C1328 C 0.57283 0.60108 0.87867 0.0
C1329 C 0.58947 0.60134 0.92721 0.0
N1330 N 0.59983 0.62329 0.83687 0.0
N1331 N 0.60145 0.61017 0.90614 0.0
H1332 H 0.49772 0.99633 0.8952 0.0
H1333 H 0.42262 0.03502 0.84957 0.0
H1334 H 0.46889 0.01791 0.94853 0.0
H1335 H 0.43926 1.00028 0.79928 0.0
H1336 H 0.44215 0.03154 0.88521 0.0
H1337 H 0.47835 0.9995 0.85907 0.0
C1338 C 0.48725 1.00157 0.89943 0.0
C1339 C 0.48511 0.007 0.92506 0.0
C1340 C 0.44156 0.02469 0.86637 0.0
C1341 C 0.46316 0.011 0.88363 0.0
C1342 C 0.4305 0.02677 0.84599 0.0
C1343 C 0.42931 0.0179 0.82148 0.0
C1344 C 0.45163 0.01378 0.86217 0.0
C1345 C 0.43977 0.00733 0.81792 0.0
C1346 C 0.47627 1.00349 0.87873 0.0
C1347 C 0.47142 0.01393 0.92914 0.0
N1348 N 0.45051 1.00556 0.83806 0.0
N1349 N 0.46107 0.01582 0.90867 0.0
H1350 H 0.46388 0.97912 0.60036 0.0
H1351 H 0.43847 0.04868 0.69128 0.0
H1352 H 0.48548 0.04215 0.58534 0.0
H1353 H 0.40565 0.9837 0.69441 0.0
H1354 H 0.45734 0.0468 0.65388 0.0
H1355 H 0.44371 0.9806 0.63633 0.0
C1356 C 0.46437 0.99324 0.60447 0.0
C1357 C 0.47659 0.01056 0.58976 0.0
C1358 C 0.44594 0.03295 0.66267 0.0
C1359 C 0.45367 0.0124 0.6312 0.0
C1360 C 0.43519 0.03402 0.68402 0.0
C1361 C 0.42049 0.01633 0.69592 0.0
C1362 C 0.4421 0.01404 0.65333 0.0
C1363 C 0.41684 0.99772 0.68575 0.0
C1364 C 0.45287 0.99409 0.62509 0.0
C1365 C 0.4767 0.02849 0.59633 0.0
N1366 N 0.42765 0.99706 0.66512 0.0
N1367 N 0.4655 0.02895 0.61658 0.0
H1368 H 0.05573 0.50222 0.57248 0.0
H1369 H 0.06478 0.48356 0.72396 0.0
H1370 H 0.09471 0.55065 0.62469 0.0
H1371 H 0.05738 0.43913 0.66611 0.0
H1372 H 0.07037 0.50747 0.68862 0.0
H1373 H 0.05075 0.47787 0.60722 0.0
C1374 C 0.0632 0.50771 0.59126 0.0
C1375 C 0.07572 0.5285 0.59566 0.0
C1376 C 0.06753 0.4925 0.68367 0.0
C1377 C 0.06981 0.50079 0.63559 0.0
C1378 C 0.06426 0.47881 0.70381 0.0
C1379 C 0.06066 0.45932 0.69801 0.0
C1380 C 0.06669 0.48655 0.6574 0.0
C1381 C 0.06021 0.45403 0.67148 0.0
C1382 C 0.06044 0.49383 0.611 0.0
C1383 C 0.08511 0.53478 0.62037 0.0
N1384 N 0.06298 0.46748 0.65216 0.0
N1385 N 0.08179 0.52104 0.63944 0.0
H1386 H 0.5671 0.58193 0.5866 0.0
H1387 H 0.64758 0.61604 0.70464 0.0
H1388 H 0.59359 0.54739 0.61613 0.0
H1389 H 0.62426 0.65374 0.67671 0.0
H1390 H 0.6276 0.59099 0.67147 0.0
H1391 H 0.58732 0.60859 0.61889 0.0
C1392 C 0.57707 0.57992 0.59985 0.0
C1393 C 0.57863 0.56238 0.59863 0.0
C1394 C 0.62681 0.60473 0.67244 0.0
C1395 C 0.60175 0.5927 0.63535 0.0
C1396 C 0.63828 0.61908 0.69142 0.0
C1397 C 0.63758 0.637 0.69346 0.0
C1398 C 0.6144 0.60818 0.65528 0.0
C1399 C 0.62525 0.64011 0.67575 0.0
C1400 C 0.58863 0.59514 0.6182 0.0
C1401 C 0.59184 0.5606 0.61622 0.0
N1402 N 0.61406 0.62579 0.6574 0.0
N1403 N 0.60281 0.5755 0.63374 0.0
H1404 H 0.0354 0.57278 0.10864 0.0
H1405 H 0.08094 0.67682 0.18942 0.0
H1406 H 0.0953 0.62289 0.09675 0.0
H1407 H 0.02128 0.62638 0.20116 0.0
H1408 H 0.08638 0.65762 0.15504 0.0
H1409 H 0.02986 0.59243 0.1419 0.0
C1410 C 0.04738 0.58795 0.11281 0.0
C1411 C 0.06588 0.5961 0.09962 0.0
C1412 C 0.07209 0.65075 0.16509 0.0
C1413 C 0.05962 0.61878 0.13825 0.0
C1414 C 0.06896 0.66173 0.18472 0.0
C1415 C 0.05062 0.65322 0.19823 0.0
C1416 C 0.05677 0.63107 0.15884 0.0
C1417 C 0.03566 0.63357 0.19129 0.0
C1418 C 0.04422 0.59916 0.13201 0.0
C1419 C 0.08088 0.61581 0.10645 0.0
N1420 N 0.03906 0.62319 0.17215 0.0
N1421 N 0.07742 0.62643 0.12521 0.0
H1422 H 0.49183 0.52967 0.10361 0.0
H1423 H 0.48346 0.48719 0.24865 0.0
H1424 H 0.53989 0.5259 0.14355 0.0
H1425 H 0.43125 0.47583 0.20266 0.0
H1426 H 0.50491 0.50494 0.2116 0.0
H1427 H 0.46993 0.51295 0.1407 0.0
C1428 C 0.49789 0.52537 0.11995 0.0
C1429 C 0.51798 0.5294 0.12012 0.0
C1430 C 0.48877 0.49861 0.20957 0.0
C1431 C 0.49281 0.51041 0.16301 0.0
C1432 C 0.47651 0.48854 0.23078 0.0
C1433 C 0.45553 0.47997 0.22871 0.0
C1434 C 0.48006 0.5003 0.1861 0.0
C1435 C 0.44736 0.48218 0.20505 0.0
C1436 C 0.48529 0.51583 0.14123 0.0
C1437 C 0.52475 0.5235 0.14231 0.0
N1438 N 0.45965 0.49214 0.18462 0.0
N1439 N 0.51225 0.5144 0.16277 0.0
H1440 H 0.56834 0.043 0.09962 0.0
H1441 H 0.62448 1.00358 0.19514 0.0
H1442 H 0.56492 0.9853 0.08927 0.0
H1443 H 0.6326 0.0636 0.19797 0.0
H1444 H 0.60181 0.99588 0.15733 0.0
H1445 H 0.59104 0.05007 0.13659 0.0
C1446 C 0.57247 0.03184 0.1049 0.0
C1447 C 0.56479 0.01356 0.091 0.0
C1448 C 0.60859 0.01074 0.16621 0.0
C1449 C 0.59071 0.02152 0.13397 0.0
C1450 C 0.62151 0.01514 0.18777 0.0
C1451 C 0.63041 0.03426 0.19968 0.0
C1452 C 0.60451 0.02555 0.1566 0.0
C1453 C 0.62607 0.04867 0.18938 0.0
C1454 C 0.5854 0.03586 0.12623 0.0
C1455 C 0.57036 0.99952 0.09945 0.0
N1456 N 0.6134 0.044 0.16849 0.0
N1457 N 0.58301 1.0038 0.12038 0.0
H1458 H 0.5401 0.9946 0.40981 0.0
H1459 H 0.64142 0.0716 0.33548 0.0
H1460 H 0.57695 0.05734 0.43102 0.0
H1461 H 0.6082 0.00777 0.31875 0.0
H1462 H 0.61706 0.0668 0.36942 0.0
H1463 H 0.56385 0.99928 0.37493 0.0
C1464 C 0.55311 0.00938 0.40705 0.0
C1465 C 0.55657 0.02558 0.42346 0.0
C1466 C 0.61509 0.05382 0.35836 0.0
C1467 C 0.58388 0.03103 0.38371 0.0
C1468 C 0.62899 0.05656 0.33897 0.0
C1469 C 0.62684 0.04005 0.32432 0.0
C1470 C 0.59884 0.03443 0.3631 0.0
C1471 C 0.61044 0.0209 0.32964 0.0
C1472 C 0.56673 0.01202 0.38724 0.0
C1473 C 0.57382 0.04435 0.41915 0.0
N1474 N 0.59705 0.01862 0.34859 0.0
N1475 N 0.58679 0.04655 0.39971 0.0
H1476 H 0.10172 0.62843 0.42293 0.0
H1477 H 0.01892 0.63909 0.33742 0.0
H1478 H 0.03774 0.59275 0.43667 0.0
H1479 H 0.08208 0.66835 0.3185 0.0
H1480 H 0.02543 0.62299 0.37496 0.0
H1481 H 0.09476 0.64407 0.38581 0.0
C1482 C 0.0862 0.62373 0.41823 0.0
C1483 C 0.07036 0.60906 0.43329 0.0
C1484 C 0.03786 0.63292 0.36257 0.0
C1485 C 0.06226 0.62734 0.39046 0.0
C1486 C 0.03414 0.64214 0.34114 0.0
C1487 C 0.04996 0.6551 0.32471 0.0
C1488 C 0.05757 0.63677 0.36777 0.0
C1489 C 0.06939 0.65847 0.33055 0.0
C1490 C 0.08223 0.6328 0.39694 0.0
C1491 C 0.05056 0.60404 0.42607 0.0
N1492 N 0.07263 0.64943 0.35153 0.0
N1493 N 0.04711 0.61314 0.40528 0.0
H1494 H 0.47802 0.46955 0.49495 0.0
H1495 H 0.45866 0.50016 0.35265 0.0
H1496 H 0.51235 0.53005 0.46536 0.0
H1497 H 0.42828 0.43991 0.38389 0.0
H1498 H 0.475 0.51292 0.39554 0.0
H1499 H 0.45581 0.46022 0.45688 0.0
C1500 C 0.48067 0.48097 0.48052 0.0
C1501 C 0.49712 0.50053 0.48311 0.0
C1502 C 0.46459 0.49695 0.39304 0.0
C1503 C 0.47199 0.48984 0.43894 0.0
C1504 C 0.45526 0.48967 0.36861 0.0
C1505 C 0.44227 0.46891 0.36467 0.0
C1506 C 0.46079 0.48336 0.41361 0.0
C1507 C 0.43834 0.45598 0.38596 0.0
C1508 C 0.46802 0.47563 0.4587 0.0
C1509 C 0.49979 0.5148 0.46402 0.0
N1510 N 0.44764 0.4634 0.40939 0.0
N1511 N 0.48753 0.50908 0.44241 0.0
H1512 H 0.70159 0.84149 0.29895 0.0
H1513 H 0.74069 0.84058 0.15281 0.0
H1514 H 0.75258 0.89127 0.26226 0.0
H1515 H 0.69127 0.78763 0.18678 0.0
H1516 H 0.74289 0.85966 0.19222 0.0
H1517 H 0.69488 0.82194 0.25768 0.0
C1518 C 0.71109 0.84844 0.28214 0.0
C1519 C 0.7277 0.86807 0.28413 0.0
C1520 C 0.73148 0.84388 0.19119 0.0
C1521 C 0.72032 0.8458 0.23708 0.0
C1522 C 0.73023 0.83293 0.16857 0.0
C1523 C 0.71583 0.8124 0.16638 0.0
C1524 C 0.71828 0.83436 0.21218 0.0
C1525 C 0.70265 0.80342 0.18758 0.0
C1526 C 0.70738 0.83723 0.25866 0.0
C1527 C 0.73968 0.87618 0.26179 0.0
N1528 N 0.70423 0.8144 0.20961 0.0
N1529 N 0.73582 0.86508 0.23947 0.0
H1530 H 0.26259 0.96051 0.32422 0.0
H1531 H 0.30472 0.94506 0.18792 0.0
H1532 H 0.24375 0.90115 0.29353 0.0
H1533 H 0.30233 0.99822 0.21055 0.0
H1534 H 0.28891 0.92936 0.22989 0.0
H1535 H 0.28507 0.97522 0.28706 0.0
C1536 C 0.26368 0.95056 0.30995 0.0
C1537 C 0.25142 0.92963 0.31194 0.0
C1538 C 0.29199 0.9445 0.22563 0.0
C1539 C 0.2766 0.94637 0.26871 0.0
C1540 C 0.301 0.95346 0.20176 0.0
C1541 C 0.3047 0.97293 0.19568 0.0
C1542 C 0.28709 0.95529 0.24365 0.0
C1543 C 0.2996 0.98314 0.21428 0.0
C1544 C 0.27633 0.95896 0.28858 0.0
C1545 C 0.25319 0.91738 0.29281 0.0
N1546 N 0.29114 0.97424 0.23734 0.0
N1547 N 0.26537 0.92595 0.27168 0.0
H1548 H 0.15786 0.40861 0.32808 0.0
H1549 H 0.13009 0.42857 0.18378 0.0
H1550 H 0.19617 0.46262 0.28491 0.0
H1551 H 0.098 0.37194 0.22443 0.0
H1552 H 0.15263 0.44295 0.2219 0.0
H1553 H 0.13368 0.39686 0.29191 0.0
C1554 C 0.16115 0.41803 0.31095 0.0
C1555 C 0.1792 0.43648 0.30931 0.0
C1556 C 0.14062 0.42741 0.22246 0.0
C1557 C 0.15149 0.42311 0.26767 0.0
C1558 C 0.12777 0.41919 0.20074 0.0
C1559 C 0.11222 0.399 0.20093 0.0
C1560 C 0.13779 0.41536 0.24453 0.0
C1561 C 0.10985 0.38753 0.22339 0.0
C1562 C 0.14731 0.41133 0.29029 0.0
C1563 C 0.18244 0.44831 0.28693 0.0
N1564 N 0.12249 0.39587 0.24424 0.0
N1565 N 0.16878 0.44134 0.26682 0.0
H1566 H 0.20357 0.39829 0.01193 0.0
H1567 H 0.09598 0.38418 0.0468 0.0
H1568 H 0.16059 0.39318 0.95295 0.0
H1569 H 0.13044 0.36983 0.10109 0.0
H1570 H 0.12044 0.38971 0.01264 0.0
H1571 H 0.1781 0.3904 0.04561 0.0
C1572 C 0.1888 0.3956 1.0061 0.0
C1573 C 0.18418 0.39645 0.97964 0.0
C1574 C 0.12259 0.38521 0.03197 0.0
C1575 C 0.15499 0.38737 0.01798 0.0
C1576 C 0.10866 0.38209 0.05148 0.0
C1577 C 0.11123 0.37656 0.07679 0.0
C1578 C 0.13938 0.3831 0.03792 0.0
C1579 C 0.1279 0.37403 0.08179 0.0
C1580 C 0.17423 0.39093 0.02529 0.0
C1581 C 0.16471 0.39253 0.97311 0.0
N1582 N 0.14146 0.3775 0.06257 0.0
N1583 N 0.15086 0.3883 0.99217 0.0
H1584 H 0.7249 0.86501 0.90819 0.0
H1585 H 0.6842 0.81228 0.04809 0.0
H1586 H 0.67463 0.8622 0.94966 0.0
H1587 H 0.73867 0.81845 0.01487 0.0
H1588 H 0.68145 0.83118 0.01151 0.0
H1589 H 0.73171 0.8493 0.94642 0.0
C1590 C 0.71555 0.86146 0.9254 0.0
C1591 C 0.69909 0.86486 0.92557 0.0
C1592 C 0.69409 0.82852 0.01209 0.0
C1593 C 0.70656 0.84667 0.96911 0.0
C1594 C 0.69564 0.81763 0.03308 0.0
C1595 C 0.71167 0.81369 0.03467 0.0
C1596 C 0.7086 0.83557 0.99212 0.0
C1597 C 0.72604 0.82113 0.01449 0.0
C1598 C 0.71933 0.85235 0.94714 0.0
C1599 C 0.68736 0.85972 0.94837 0.0
N1600 N 0.72413 0.83162 0.99401 0.0
N1601 N 0.69123 0.85087 0.96892 0.0
H1602 H 0.21881 0.95015 0.95701 0.0
H1603 H 0.29274 0.94515 0.06494 0.0
H1604 H 0.22903 0.89971 0.96502 0.0
H1605 H 0.27688 0.99198 0.06322 0.0
H1606 H 0.26959 0.9284 0.02816 0.0
H1607 H 0.24002 0.96575 0.99561 0.0
C1608 C 0.22535 0.94223 0.96688 0.0
C1609 C 0.22205 0.92351 0.95746 0.0
C1610 C 0.27108 0.94228 0.03588 0.0
C1611 C 0.2467 0.94156 1.00177 0.0
C1612 C 0.2843 0.95186 0.05691 0.0
C1613 C 0.28676 0.97 0.06717 0.0
C1614 C 0.2603 0.95096 0.02485 0.0
C1615 C 0.27544 0.978 0.05595 0.0
C1616 C 0.23758 0.95124 0.98894 0.0
C1617 C 0.23129 0.91424 0.9711 0.0
N1618 N 0.26279 0.96849 0.03533 0.0
N1619 N 0.24319 0.92337 0.99244 0.0
H1620 H 0.69992 0.91193 0.41526 0.0
H1621 H 0.74537 0.98004 0.5456 0.0
H1622 H 0.75758 0.92861 0.45056 0.0
H1623 H 0.68437 0.9592 0.51951 0.0
H1624 H 0.74945 0.96106 0.51 0.0
H1625 H 0.6929 0.92825 0.45253 0.0
C1626 C 0.71095 0.91871 0.43092 0.0
C1627 C 0.72942 0.91891 0.42958 0.0
C1628 C 0.7351 0.96052 0.51196 0.0
C1629 C 0.72164 0.93785 0.47205 0.0
C1630 C 0.73278 0.97146 0.53236 0.0
C1631 C 0.7145 0.97129 0.53567 0.0
C1632 C 0.71907 0.94927 0.49433 0.0
C1633 C 0.69875 0.95978 0.51776 0.0
C1634 C 0.707 0.92815 0.45212 0.0
C1635 C 0.7432 0.92815 0.45043 0.0
N1636 N 0.7014 0.94931 0.49784 0.0
N1637 N 0.73909 0.93724 0.47049 0.0
H1638 H 0.19352 0.85704 0.43448 0.0
H1639 H 0.09678 0.81676 0.52689 0.0
H1640 H 0.15699 0.88517 0.44376 0.0
H1641 H 0.1397 0.79619 0.53665 0.0
H1642 H 0.11795 0.83987 0.49315 0.0
H1643 H 0.17386 0.83307 0.46946 0.0
C1644 C 0.18156 0.8583 0.44393 0.0
C1645 C 0.17689 0.87312 0.43598 0.0
C1646 C 0.12285 0.83035 0.50261 0.0
C1647 C 0.15427 0.84573 0.47555 0.0
C1648 C 0.11067 0.81705 0.52187 0.0
C1649 C 0.11646 0.80453 0.53471 0.0
C1650 C 0.14104 0.83119 0.4958 0.0
C1651 C 0.13468 0.80563 0.52728 0.0
C1652 C 0.17032 0.84461 0.46381 0.0
C1653 C 0.16116 0.87399 0.44891 0.0
N1654 N 0.14634 0.81872 0.50826 0.0
N1655 N 0.15045 0.8605 0.46778 0.0
H1656 H 0.28172 0.46576 0.48365 0.0
H1657 H 0.27703 0.37511 0.56727 0.0
H1658 H 0.24696 0.40304 0.46067 0.0
H1659 H 0.32235 0.43735 0.57978 0.0
H1660 H 0.26362 0.38534 0.53037 0.0
H1661 H 0.29474 0.45589 0.52123 0.0
C1662 C 0.2768 0.44996 0.48632 0.0
C1663 C 0.26313 0.4353 0.46865 0.0
C1664 C 0.27652 0.39677 0.54117 0.0
C1665 C 0.27787 0.42389 0.51202 0.0
C1666 C 0.28415 0.39093 0.56224 0.0
C1667 C 0.30086 0.40539 0.57653 0.0
C1668 C 0.28554 0.41724 0.53447 0.0
C1669 C 0.30949 0.42569 0.5692 0.0
C1670 C 0.28423 0.44433 0.50789 0.0
C1671 C 0.25718 0.415 0.47364 0.0
N1672 N 0.3017 0.43103 0.54871 0.0
N1673 N 0.26456 0.40994 0.49479 0.0
H1674 H 0.29067 0.42897 0.83801 0.0
H1675 H 0.27854 0.40727 0.68545 0.0
H1676 H 0.25029 0.43941 0.78986 0.0
H1677 H 0.33156 0.4174 0.72853 0.0
H1678 H 0.26787 0.41901 0.72357 0.0
H1679 H 0.30646 0.42531 0.79829 0.0
C1680 C 0.28547 0.43093 0.81903 0.0
C1681 C 0.26923 0.43451 0.81713 0.0
C1682 C 0.28194 0.41885 0.72458 0.0
C1683 C 0.28673 0.42985 0.77173 0.0
C1684 C 0.28796 0.41204 0.70291 0.0
C1685 C 0.30587 0.41124 0.70396 0.0
C1686 C 0.29376 0.42459 0.74757 0.0
C1687 C 0.3176 0.41772 0.72697 0.0
C1688 C 0.29441 0.4288 0.7964 0.0
C1689 C 0.26292 0.43685 0.79215 0.0
N1690 N 0.31123 0.42391 0.74799 0.0
N1691 N 0.27147 0.43414 0.77038 0.0
H1692 H 0.72471 0.93497 0.79014 0.0
H1693 H 0.67198 0.94887 0.66047 0.0
H1694 H 0.66208 0.89786 0.76853 0.0
H1695 H 0.73498 0.98818 0.67811 0.0
H1696 H 0.66913 0.92949 0.69969 0.0
H1697 H 0.73006 0.95393 0.74891 0.0
C1698 C 0.71218 0.93065 0.7767 0.0
C1699 C 0.69288 0.91483 0.78303 0.0
C1700 C 0.68365 0.94232 0.69509 0.0
C1701 C 0.69882 0.93647 0.73599 0.0
C1702 C 0.68526 0.95344 0.67258 0.0
C1703 C 0.70372 0.97025 0.66589 0.0
C1704 C 0.70061 0.94795 0.71136 0.0
C1705 C 0.72041 0.97535 0.68249 0.0
C1706 C 0.7152 0.94154 0.75324 0.0
C1707 C 0.6772 0.91002 0.76483 0.0
N1708 N 0.71847 0.96431 0.70445 0.0
N1709 N 0.6805 0.92075 0.74244 0.0
H1710 H 0.16065 0.83334 0.78925 0.0
H1711 H 0.10609 0.82793 0.65236 0.0
H1712 H 0.14624 0.87862 0.76418 0.0
H1713 H 0.11939 0.78219 0.67867 0.0
H1714 H 0.12123 0.84703 0.69274 0.0
H1715 H 0.1457 0.81456 0.74891 0.0
C1716 C 0.15418 0.8393 0.77546 0.0
C1717 C 0.15468 0.85765 0.78036 0.0
C1718 C 0.12089 0.83284 0.68968 0.0
C1719 C 0.13774 0.8362 0.73357 0.0
C1720 C 0.11229 0.82195 0.66659 0.0
C1721 C 0.11148 0.80343 0.66212 0.0
C1722 C 0.12876 0.82519 0.70853 0.0
C1723 C 0.11971 0.7964 0.68128 0.0
C1724 C 0.14576 0.82859 0.75222 0.0
C1725 C 0.14638 0.86468 0.76125 0.0
N1726 N 0.12796 0.80726 0.70363 0.0
N1727 N 0.13827 0.85396 0.73875 0.0
H1728 H 0.42067 0.20724 0.654 0.0
H1729 H 0.36215 0.15223 0.52178 0.0
H1730 H 0.36345 0.20117 0.63132 0.0
H1731 H 0.42565 0.17396 0.53277 0.0
H1732 H 0.36199 0.16871 0.56291 0.0
H1733 H 0.42262 0.19403 0.61086 0.0
C1734 C 0.4086 0.20331 0.63992 0.0
C1735 C 0.39187 0.20538 0.64644 0.0
C1736 C 0.376 0.17 0.55629 0.0
C1737 C 0.39388 0.1899 0.59703 0.0
C1738 C 0.3761 0.16055 0.53279 0.0
C1739 C 0.39395 0.16171 0.52374 0.0
C1740 C 0.39382 0.1805 0.57123 0.0
C1741 C 0.41156 0.17271 0.53893 0.0
C1742 C 0.40973 0.19576 0.61527 0.0
C1743 C 0.37668 0.19995 0.62728 0.0
N1744 N 0.41102 0.18153 0.56199 0.0
N1745 N 0.37797 0.19232 0.60366 0.0
H1746 H 0.94309 0.22271 0.59465 0.0
H1747 H 0.98842 0.33618 0.54387 0.0
H1748 H 0.94063 0.26983 0.63814 0.0
H1749 H 0.97765 0.28668 0.49277 0.0
H1750 H 0.97526 0.31276 0.58053 0.0
H1751 H 0.96042 0.24675 0.55906 0.0
C1752 C 0.94646 0.23817 0.59681 0.0
C1753 C 0.9403 0.2443 0.61918 0.0
C1754 C 0.9758 0.307 0.56132 0.0
C1755 C 0.95994 0.27174 0.5788 0.0
C1756 C 0.98332 0.32037 0.54038 0.0
C1757 C 0.984 0.31334 0.51522 0.0
C1758 C 0.969 0.28642 0.55714 0.0
C1759 C 0.97726 0.2927 0.51185 0.0
C1760 C 0.95617 0.25182 0.57648 0.0
C1761 C 0.94487 0.26445 0.62102 0.0
N1762 N 0.97002 0.27995 0.53258 0.0
N1763 N 0.95436 0.27742 0.6011 0.0
H1764 H 0.84412 0.66431 0.56287 0.0
H1765 H 0.76783 0.69963 0.51051 0.0
H1766 H 0.80949 0.68077 0.61342 0.0
H1767 H 0.79745 0.6772 0.45999 0.0
H1768 H 0.78337 0.69318 0.5485 0.0
H1769 H 0.82696 0.66848 0.5249 0.0
C1770 C 0.83274 0.66855 0.56604 0.0
C1771 C 0.82837 0.67235 0.59139 0.0
C1772 C 0.78647 0.68965 0.52911 0.0
C1773 C 0.80892 0.6775 0.548 0.0
C1774 C 0.77767 0.69342 0.50744 0.0
C1775 C 0.78141 0.68898 0.48212 0.0
C1776 C 0.79914 0.68145 0.52542 0.0
C1777 C 0.7942 0.68087 0.47921 0.0
C1778 C 0.82305 0.67108 0.54432 0.0
C1779 C 0.81363 0.67806 0.59423 0.0
N1780 N 0.80264 0.67738 0.50062 0.0
N1781 N 0.80452 0.68056 0.57281 0.0
H1782 H 0.83855 0.67906 0.25247 0.0
H1783 H 0.74308 0.67039 0.32737 0.0
H1784 H 0.77995 0.65547 0.21627 0.0
H1785 H 0.80295 0.69683 0.3608 0.0
H1786 H 0.75527 0.66188 0.28776 0.0
H1787 H 0.82455 0.68193 0.29403 0.0
C1788 C 0.82265 0.67428 0.25342 0.0
C1789 C 0.81042 0.66725 0.23093 0.0
C1790 C 0.76571 0.6695 0.30379 0.0
C1791 C 0.79428 0.67065 0.27826 0.0
C1792 C 0.75879 0.67444 0.32633 0.0
C1793 C 0.77208 0.68446 0.34726 0.0
C1794 C 0.78604 0.67462 0.30228 0.0
C1795 C 0.79223 0.68922 0.34503 0.0
C1796 C 0.81466 0.67594 0.2771 0.0
C1797 C 0.78986 0.66092 0.23321 0.0
N1798 N 0.79859 0.68429 0.32292 0.0
N1799 N 0.78245 0.66302 0.25643 0.0
H1800 H 0.36752 0.19816 0.27092 0.0
H1801 H 0.42753 0.17172 0.37981 0.0
H1802 H 0.43146 0.21957 0.27068 0.0
H1803 H 0.3652 0.15522 0.38914 0.0
H1804 H 0.42832 0.1885 0.33883 0.0
H1805 H 0.36528 0.18154 0.31327 0.0
C1806 C 0.38104 0.19944 0.27968 0.0
C1807 C 0.39969 0.21033 0.26701 0.0
C1808 C 0.41443 0.18128 0.3498 0.0
C1809 C 0.39724 0.1913 0.31533 0.0
C1810 C 0.414 0.17168 0.37329 0.0
C1811 C 0.39631 0.16207 0.38807 0.0
C1812 C 0.39699 0.18127 0.34067 0.0
C1813 C 0.37922 0.16251 0.37845 0.0
C1814 C 0.37977 0.18995 0.30386 0.0
C1815 C 0.4167 0.2114 0.27944 0.0
N1816 N 0.37995 0.17187 0.35536 0.0
N1817 N 0.41503 0.20204 0.30262 0.0
H1818 H 0.89964 0.31352 0.27893 0.0
H1819 H 0.97049 0.3019 0.38476 0.0
H1820 H 0.90283 0.25908 0.28902 0.0
H1821 H 0.95461 0.34861 0.39007 0.0
H1822 H 0.94736 0.28723 0.34753 0.0
H1823 H 0.92105 0.32777 0.31787 0.0
C1824 C 0.90468 0.30448 0.28928 0.0
C1825 C 0.89946 0.28506 0.2803 0.0
C1826 C 0.94885 0.30064 0.35688 0.0
C1827 C 0.92425 0.30148 0.32476 0.0
C1828 C 0.96209 0.30904 0.3781 0.0
C1829 C 0.96446 0.32648 0.39051 0.0
C1830 C 0.93803 0.30985 0.34775 0.0
C1831 C 0.95318 0.33511 0.38108 0.0
C1832 C 0.91698 0.31268 0.3115 0.0
C1833 C 0.9067 0.27423 0.29461 0.0
N1834 N 0.94052 0.32677 0.36014 0.0
N1835 N 0.91877 0.28261 0.31594 0.0
H1836 H 0.36941 0.26417 0.75835 0.0
H1837 H 0.41462 0.31294 0.89952 0.0
H1838 H 0.40936 0.25006 0.8018 0.0
H1839 H 0.35897 0.30608 0.86846 0.0
H1840 H 0.41712 0.29506 0.86078 0.0
H1841 H 0.37004 0.28516 0.79511 0.0
C1842 C 0.37862 0.26574 0.77539 0.0
C1843 C 0.38935 0.25524 0.77688 0.0
C1844 C 0.40441 0.29754 0.86244 0.0
C1845 C 0.39005 0.27933 0.81926 0.0
C1846 C 0.40299 0.30778 0.88452 0.0
C1847 C 0.38651 0.31095 0.88734 0.0
C1848 C 0.38943 0.29075 0.84276 0.0
C1849 C 0.37188 0.30389 0.86723 0.0
C1850 C 0.37882 0.27762 0.7965 0.0
C1851 C 0.40082 0.2578 0.79973 0.0
N1852 N 0.37373 0.29424 0.84583 0.0
N1853 N 0.40087 0.26954 0.81996 0.0
H1854 H 0.86538 0.15935 0.79868 0.0
H1855 H 0.76569 0.15141 0.8613 0.0
H1856 H 0.83499 0.18984 0.76805 0.0
H1857 H 0.79772 0.1237 0.8953 0.0
H1858 H 0.79078 0.16519 0.82651 0.0
H1859 H 0.84072 0.14585 0.83403 0.0
C1860 C 0.85361 0.16327 0.79938 0.0
C1861 C 0.85227 0.17568 0.78015 0.0
C1862 C 0.79235 0.15611 0.84159 0.0
C1863 C 0.82385 0.16015 0.82051 0.0
C1864 C 0.77801 0.14824 0.86145 0.0
C1865 C 0.77962 0.1364 0.88122 0.0
C1866 C 0.80841 0.15209 0.84144 0.0
C1867 C 0.7959 0.13277 0.88044 0.0
C1868 C 0.83946 0.15549 0.81952 0.0
C1869 C 0.8365 0.18006 0.78202 0.0
N1870 N 0.80965 0.14055 0.86088 0.0
N1871 N 0.82296 0.17231 0.80176 0.0
H1872 H 0.89325 0.63996 0.75327 0.0
H1873 H 0.97955 0.71205 0.85501 0.0
H1874 H 0.91507 0.70375 0.7617 0.0
H1875 H 0.955 0.64761 0.85122 0.0
H1876 H 0.95821 0.70967 0.81776 0.0
H1877 H 0.91754 0.6427 0.78672 0.0
C1878 C 0.90309 0.65452 0.76215 0.0
C1879 C 0.90205 0.67163 0.75463 0.0
C1880 C 0.95758 0.69606 0.82495 0.0
C1881 C 0.93004 0.67493 0.79271 0.0
C1882 C 0.9698 0.69743 0.84615 0.0
C1883 C 0.96892 0.67999 0.85626 0.0
C1884 C 0.94436 0.6771 0.81384 0.0
C1885 C 0.95606 0.66142 0.84407 0.0
C1886 C 0.91705 0.6561 0.78113 0.0
C1887 C 0.91544 0.69018 0.76654 0.0
N1888 N 0.94418 0.66044 0.82357 0.0
N1889 N 0.92881 0.69131 0.78502 0.0
H1890 H 0.86424 0.66642 0.03998 0.0
H1891 H 0.97956 0.70314 1.00744 0.0
H1892 H 0.91464 0.71106 0.08546 0.0
H1893 H 0.9302 0.66549 0.95531 0.0
H1894 H 0.95566 0.70479 0.03745 0.0
H1895 H 0.88788 0.66468 0.00957 0.0
C1896 C 0.88023 0.67593 0.04355 0.0
C1897 C 0.8874 0.68886 0.06544 0.0
C1898 C 0.95004 0.69618 0.01944 0.0
C1899 C 0.91455 0.68676 0.03086 0.0
C1900 C 0.96367 0.69521 1.00234 0.0
C1901 C 0.95682 0.68418 0.97888 0.0
C1902 C 0.92939 0.68597 0.0131 0.0
C1903 C 0.9361 0.67418 0.97321 0.0
C1904 C 0.89373 0.67486 0.02623 0.0
C1905 C 0.90834 0.70062 0.06919 0.0
N1906 N 0.92309 0.67529 0.99023 0.0
N1907 N 0.92115 0.69926 0.05211 0.0
H1908 H 0.37341 0.23584 0.11737 0.0
H1909 H 0.36942 0.32844 0.04895 0.0
H1910 H 0.36771 0.28164 0.15974 0.0
H1911 H 0.37266 0.28189 1.00502 0.0
H1912 H 0.36717 0.31041 0.08947 0.0
H1913 H 0.37112 0.25098 0.07602 0.0
C1914 C 0.37134 0.24886 0.11805 0.0
C1915 C 0.37077 0.25742 0.14226 0.0
C1916 C 0.36827 0.30404 0.07099 0.0
C1917 C 0.36846 0.2751 0.09477 0.0
C1918 C 0.36957 0.31436 0.04779 0.0
C1919 C 0.37128 0.30674 0.02344 0.0
C1920 C 0.36876 0.28589 0.07009 0.0
C1921 C 0.37138 0.28838 0.02329 0.0
C1922 C 0.37016 0.25759 0.09438 0.0
C1923 C 0.36825 0.27444 0.1417 0.0
N1924 N 0.37024 0.27866 0.04619 0.0
N1925 N 0.36733 0.28274 0.11849 0.0
H1926 H 0.81322 0.18695 0.13101 0.0
H1927 H 0.77836 0.17733 0.98137 0.0
H1928 H 0.83714 0.23768 0.07836 0.0
H1929 H 0.7687 0.1264 0.02813 0.0
H1930 H 0.79751 0.19986 0.01771 0.0
H1931 H 0.7943 0.16482 0.09465 0.0
C1932 C 0.81466 0.19353 0.11185 0.0
C1933 C 0.82711 0.21435 0.1079 0.0
C1934 C 0.79125 0.18376 0.02 0.0
C1935 C 0.80498 0.18886 0.06604 0.0
C1936 C 0.78029 0.17089 0.99929 0.0
C1937 C 0.77194 0.14996 1.00175 0.0
C1938 C 0.79368 0.17564 0.04347 0.0
C1939 C 0.77493 0.14244 0.02539 0.0
C1940 C 0.80373 0.18079 0.09106 0.0
C1941 C 0.82775 0.22183 0.08256 0.0
N1942 N 0.78547 0.15527 0.04539 0.0
N1943 N 0.81686 0.2091 0.06262 0.0
loop_
_geom_bond_atom_site_label_1
_geom_bond_atom_site_label_2
_geom_bond_distance
_geom_bond_site_symmetry_2
_ccdc_geom_bond_type
Cu0 N1 1.999 . S
Cu0 O6 1.974 1_554 S
Cu0 N11 1.985 1_554 S
Cu0 O20 1.959 . S
N1 Cu0 1.999 . S
N1 C3 1.263 . S
N1 C5 1.389 . S
N2 C3 1.358 . S
N2 C4 1.400 . S
C3 N1 1.263 . S
C3 N2 1.358 . S
C3 H9 0.930 1_455 S
C4 N2 1.400 . S
C4 C5 1.351 . S
C4 H21 0.930 . S
C5 N1 1.389 . S
C5 C4 1.351 . S
C5 H10 0.930 . S
O6 Cu0 1.974 1_556 S
O6 C16 1.282 1_455 S
C7 O8 1.261 1_455 S
C7 O20 1.251 . S
O8 C7 1.261 1_655 S
H9 C3 0.930 1_655 S
H10 C5 0.930 . S
N11 Cu0 1.985 1_556 S
N11 C13 1.335 . S
N11 C14 1.390 1_455 S
N12 C13 1.345 . S
N12 C15 1.336 1_455 S
C13 N11 1.335 . S
C13 N12 1.345 . S
C13 H18 0.930 . S
C14 N11 1.390 1_655 S
C14 C15 1.346 . S
C14 H19 0.930 . S
C15 N12 1.336 1_655 S
C15 C14 1.346 . S
C15 H22 0.929 . S
C16 O6 1.282 1_655 S
C16 O17 1.216 . S
O17 C16 1.216 . S
H18 C13 0.930 . S
H19 C14 0.930 . S
O20 Cu0 1.959 . S
O20 C7 1.251 . S
H21 C4 0.930 . S
H22 C15 0.929 . S
Cu23 N24 1.999 1_554 S
Cu23 O29 1.974 . S
Cu23 N34 1.985 . S
Cu23 O43 1.959 1_554 S
N24 Cu23 1.999 1_556 S
N24 C26 1.263 . S
N24 C28 1.389 . S
N25 C26 1.358 . S
N25 C27 1.400 . S
C26 N24 1.263 . S
C26 N25 1.358 . S
C26 H32 0.930 . S
C27 N25 1.400 . S
C27 C28 1.351 . S
C27 H44 0.930 . S
C28 N24 1.389 . S
C28 C27 1.351 . S
C28 H33 0.930 . S
O29 Cu23 1.974 . S
O29 C39 1.282 . S
C30 O31 1.261 1_556 S
C30 O43 1.251 . S
O31 C30 1.261 1_554 S
H32 C26 0.930 . S
H33 C28 0.930 . S
N34 Cu23 1.985 . S
N34 C36 1.335 . S
N34 C37 1.390 . S
N35 C36 1.345 . S
N35 C38 1.336 . S
C36 N34 1.335 . S
C36 N35 1.345 . S
C36 H41 0.930 . S
C37 N34 1.390 . S
C37 C38 1.346 . S
C37 H42 0.930 . S
C38 N35 1.336 . S
C38 C37 1.346 . S
C38 H45 0.929 . S
C39 O29 1.282 . S
C39 O40 1.216 . S
O40 C39 1.216 . S
H41 C36 0.930 . S
H42 C37 0.930 . S
O43 Cu23 1.959 1_556 S
O43 C30 1.251 . S
H44 C27 0.930 . S
H45 C38 0.929 . S
Cu46 N47 1.999 1_554 S
Cu46 O52 1.974 . S
Cu46 N57 1.985 . S
Cu46 O66 1.959 . S
N47 Cu46 1.999 1_556 S
N47 C49 1.263 . S
N47 C51 1.389 . S
N48 C49 1.358 . S
N48 C50 1.400 . S
C49 N47 1.263 . S
C49 N48 1.358 . S
C49 H55 0.930 . S
C50 N48 1.400 . S
C50 C51 1.351 . S
C50 H67 0.930 . S
C51 N47 1.389 . S
C51 C50 1.351 . S
C51 H56 0.930 . S
O52 Cu46 1.974 . S
O52 C62 1.282 . S
C53 O54 1.262 . S
C53 O66 1.252 . S
O54 C53 1.262 . S
H55 C49 0.930 . S
H56 C51 0.930 . S
N57 Cu46 1.985 . S
N57 C59 1.335 . S
N57 C60 1.390 . S
N58 C59 1.345 . S
N58 C61 1.336 . S
C59 N57 1.335 . S
C59 N58 1.345 . S
C59 H64 0.930 . S
C60 N57 1.390 . S
C60 C61 1.346 . S
C60 H65 0.930 . S
C61 N58 1.336 . S
C61 C60 1.346 . S
C61 H68 0.929 . S
C62 O52 1.282 . S
C62 O63 1.216 . S
O63 C62 1.216 . S
H64 C59 0.930 . S
H65 C60 0.930 . S
O66 Cu46 1.959 . S
O66 C53 1.252 . S
H67 C50 0.930 . S
H68 C61 0.929 . S
Cu69 N70 1.999 . S
Cu69 O75 1.974 . S
Cu69 N80 1.985 . S
Cu69 O89 1.959 . S
N70 Cu69 1.999 . S
N70 C72 1.263 . S
N70 C74 1.389 . S
N71 C72 1.358 . S
N71 C73 1.400 . S
C72 N70 1.263 . S
C72 N71 1.358 . S
C72 H78 0.930 . S
C73 N71 1.400 . S
C73 C74 1.351 . S
C73 H90 0.930 . S
C74 N70 1.389 . S
C74 C73 1.351 . S
C74 H79 0.930 . S
O75 Cu69 1.974 . S
O75 C85 1.282 . S
C76 O77 1.261 . S
C76 O89 1.251 . S
O77 C76 1.261 . S
H78 C72 0.930 . S
H79 C74 0.930 . S
N80 Cu69 1.985 . S
N80 C82 1.335 . S
N80 C83 1.390 . S
N81 C82 1.345 . S
N81 C84 1.336 . S
C82 N80 1.335 . S
C82 N81 1.345 . S
C82 H87 0.930 . S
C83 N80 1.390 . S
C83 C84 1.346 . S
C83 H88 0.930 . S
C84 N81 1.336 . S
C84 C83 1.346 . S
C84 H91 0.945 . S
C85 O75 1.282 . S
C85 O86 1.216 1_545 S
O86 C85 1.216 1_565 S
H87 C82 0.930 . S
H88 C83 0.930 . S
O89 Cu69 1.959 . S
O89 C76 1.251 . S
H90 C73 0.930 . S
H91 C84 0.945 . S
Cu92 N93 1.999 . S
Cu92 O98 1.974 . S
Cu92 N103 1.985 . S
Cu92 O112 1.959 . S
N93 Cu92 1.999 . S
N93 C95 1.263 . S
N93 C97 1.389 . S
N94 C95 1.358 . S
N94 C96 1.400 . S
C95 N93 1.263 . S
C95 N94 1.358 . S
C95 H101 0.930 . S
C96 N94 1.400 . S
C96 C97 1.351 . S
C96 H113 0.930 . S
C97 N93 1.389 . S
C97 C96 1.351 . S
C97 H102 0.930 . S
O98 Cu92 1.974 . S
O98 C108 1.282 . S
C99 O100 1.261 . S
C99 O112 1.251 . S
O100 C99 1.261 . S
H101 C95 0.930 . S
H102 C97 0.930 . S
N103 Cu92 1.985 . S
N103 C105 1.335 . S
N103 C106 1.390 . S
N104 C105 1.345 . S
N104 C107 1.336 . S
C105 N103 1.335 . S
C105 N104 1.345 . S
C105 H110 0.930 . S
C106 N103 1.390 . S
C106 C107 1.346 . S
C106 H111 0.930 . S
C107 N104 1.336 . S
C107 C106 1.346 . S
C107 H114 0.929 . S
C108 O98 1.282 . S
C108 O109 1.216 . S
O109 C108 1.216 . S
H110 C105 0.930 . S
H111 C106 0.930 . S
O112 Cu92 1.959 . S
O112 C99 1.251 . S
H113 C96 0.930 . S
H114 C107 0.929 . S
Cu115 N116 1.999 . S
Cu115 O121 1.974 . S
Cu115 N126 1.985 . S
Cu115 O135 1.959 . S
N116 Cu115 1.999 . S
N116 C118 1.263 . S
N116 C120 1.389 . S
N117 C118 1.358 . S
N117 C119 1.400 . S
C118 N116 1.263 . S
C118 N117 1.358 . S
C118 H124 0.930 . S
C119 N117 1.400 . S
C119 C120 1.351 . S
C119 H136 0.930 . S
C120 N116 1.389 . S
C120 C119 1.351 . S
C120 H125 0.930 . S
O121 Cu115 1.974 . S
O121 C131 1.282 . S
C122 O123 1.261 . S
C122 O135 1.251 . S
O123 C122 1.261 . S
H124 C118 0.930 . S
H125 C120 0.930 . S
N126 Cu115 1.985 . S
N126 C128 1.335 . S
N126 C129 1.390 . S
N127 C128 1.345 . S
N127 C130 1.336 . S
C128 N126 1.335 . S
C128 N127 1.345 . S
C128 H133 0.930 . S
C129 N126 1.390 . S
C129 C130 1.346 . S
C129 H134 0.930 . S
C130 N127 1.336 . S
C130 C129 1.346 . S
C130 H137 0.929 . S
C131 O121 1.282 . S
C131 O132 1.216 . S
O132 C131 1.216 . S
H133 C128 0.930 . S
H134 C129 0.930 . S
O135 Cu115 1.959 . S
O135 C122 1.251 . S
H136 C119 0.930 . S
H137 C130 0.929 . S
Cu138 N139 1.999 . S
Cu138 O144 1.974 . S
Cu138 N149 1.985 . S
Cu138 O158 1.959 . S
N139 Cu138 1.999 . S
N139 C141 1.263 . S
N139 C143 1.389 . S
N140 C141 1.358 . S
N140 C142 1.400 . S
C141 N139 1.263 . S
C141 N140 1.358 . S
C141 H147 0.930 . S
C142 N140 1.400 . S
C142 C143 1.351 . S
C142 H159 0.930 . S
C143 N139 1.389 . S
C143 C142 1.351 . S
C143 H148 0.930 . S
O144 Cu138 1.974 . S
O144 C154 1.282 . S
C145 O146 1.261 . S
C145 O158 1.251 . S
O146 C145 1.261 . S
H147 C141 0.930 . S
H148 C143 0.930 . S
N149 Cu138 1.985 . S
N149 C151 1.335 . S
N149 C152 1.390 . S
N150 C151 1.345 . S
N150 C153 1.336 . S
C151 N149 1.335 . S
C151 N150 1.345 . S
C151 H156 0.930 . S
C152 N149 1.390 . S
C152 C153 1.346 . S
C152 H157 0.930 . S
C153 N150 1.336 . S
C153 C152 1.346 . S
C153 H160 0.929 . S
C154 O144 1.282 . S
C154 O155 1.216 . S
O155 C154 1.216 . S
H156 C151 0.930 . S
H157 C152 0.930 . S
O158 Cu138 1.959 . S
O158 C145 1.251 . S
H159 C142 0.930 . S
H160 C153 0.929 . S
Cu161 N162 1.999 . S
Cu161 O167 1.974 . S
Cu161 N172 1.985 . S
Cu161 O181 1.959 . S
N162 Cu161 1.999 . S
N162 C164 1.263 . S
N162 C166 1.389 . S
N163 C164 1.358 . S
N163 C165 1.400 . S
C164 N162 1.263 . S
C164 N163 1.358 . S
C164 H170 0.930 . S
C165 N163 1.400 . S
C165 C166 1.351 . S
C165 H182 0.930 . S
C166 N162 1.389 . S
C166 C165 1.351 . S
C166 H171 0.930 . S
O167 Cu161 1.974 . S
O167 C177 1.282 . S
C168 O169 1.261 . S
C168 O181 1.251 . S
O169 C168 1.261 . S
H170 C164 0.930 . S
H171 C166 0.930 . S
N172 Cu161 1.985 . S
N172 C174 1.335 . S
N172 C175 1.390 . S
N173 C174 1.345 . S
N173 C176 1.336 . S
C174 N172 1.335 . S
C174 N173 1.345 . S
C174 H179 0.930 . S
C175 N172 1.390 . S
C175 C176 1.346 . S
C175 H180 0.930 . S
C176 N173 1.336 . S
C176 C175 1.346 . S
C176 H183 0.929 . S
C177 O167 1.282 . S
C177 O178 1.216 . S
O178 C177 1.216 . S
H179 C174 0.930 . S
H180 C175 0.930 . S
O181 Cu161 1.959 . S
O181 C168 1.251 . S
H182 C165 0.930 . S
H183 C176 0.929 . S
Cu184 N185 1.999 . S
Cu184 O190 1.974 . S
Cu184 N195 1.985 . S
Cu184 O204 1.959 . S
N185 Cu184 1.999 . S
N185 C187 1.263 . S
N185 C189 1.389 . S
N186 C187 1.358 . S
N186 C188 1.400 . S
C187 N185 1.263 . S
C187 N186 1.358 . S
C187 H193 0.930 . S
C188 N186 1.400 . S
C188 C189 1.351 . S
C188 H205 0.930 . S
C189 N185 1.389 . S
C189 C188 1.351 . S
C189 H194 0.930 . S
O190 Cu184 1.974 . S
O190 C200 1.282 . S
C191 O192 1.261 . S
C191 O204 1.251 . S
O192 C191 1.261 . S
H193 C187 0.930 . S
H194 C189 0.930 . S
N195 Cu184 1.985 . S
N195 C197 1.335 . S
N195 C198 1.390 . S
N196 C197 1.345 . S
N196 C199 1.336 . S
C197 N195 1.335 . S
C197 N196 1.345 . S
C197 H202 0.930 . S
C198 N195 1.390 . S
C198 C199 1.346 . S
C198 H203 0.930 . S
C199 N196 1.336 . S
C199 C198 1.346 . S
C199 H206 0.929 . S
C200 O190 1.282 . S
C200 O201 1.216 . S
O201 C200 1.216 . S
H202 C197 0.930 . S
H203 C198 0.930 . S
O204 Cu184 1.959 . S
O204 C191 1.251 . S
H205 C188 0.930 . S
H206 C199 0.929 . S
Cu207 N208 1.999 . S
Cu207 O213 1.974 . S
Cu207 N218 1.985 . S
Cu207 O227 1.959 . S
N208 Cu207 1.999 . S
N208 C210 1.263 . S
N208 C212 1.389 . S
N209 C210 1.358 . S
N209 C211 1.400 . S
C210 N208 1.263 . S
C210 N209 1.358 . S
C210 H216 0.930 . S
C211 N209 1.400 . S
C211 C212 1.351 . S
C211 H228 0.930 . S
C212 N208 1.389 . S
C212 C211 1.351 . S
C212 H217 0.930 . S
O213 Cu207 1.974 . S
O213 C223 1.282 . S
C214 O215 1.261 . S
C214 O227 1.251 . S
O215 C214 1.261 . S
H216 C210 0.930 . S
H217 C212 0.930 . S
N218 Cu207 1.985 . S
N218 C220 1.335 . S
N218 C221 1.390 . S
N219 C220 1.345 . S
N219 C222 1.336 . S
C220 N218 1.335 . S
C220 N219 1.345 . S
C220 H225 0.930 . S
C221 N218 1.390 . S
C221 C222 1.346 . S
C221 H226 0.930 . S
C222 N219 1.336 . S
C222 C221 1.346 . S
C222 H229 0.929 . S
C223 O213 1.282 . S
C223 O224 1.216 . S
O224 C223 1.216 . S
H225 C220 0.930 . S
H226 C221 0.930 . S
O227 Cu207 1.959 . S
O227 C214 1.251 . S
H228 C211 0.930 . S
H229 C222 0.929 . S
Cu230 N231 1.999 . S
Cu230 O236 1.974 . S
Cu230 N241 1.985 . S
Cu230 O250 1.959 . S
N231 Cu230 1.999 . S
N231 C233 1.263 . S
N231 C235 1.389 . S
N232 C233 1.358 . S
N232 C234 1.400 . S
C233 N231 1.263 . S
C233 N232 1.358 . S
C233 H239 0.930 . S
C234 N232 1.400 . S
C234 C235 1.351 . S
C234 H251 0.930 . S
C235 N231 1.389 . S
C235 C234 1.351 . S
C235 H240 0.930 . S
O236 Cu230 1.974 . S
O236 C246 1.282 . S
C237 O238 1.261 . S
C237 O250 1.251 . S
O238 C237 1.261 . S
H239 C233 0.930 . S
H240 C235 0.930 . S
N241 Cu230 1.985 . S
N241 C243 1.335 . S
N241 C244 1.390 . S
N242 C243 1.345 . S
N242 C245 1.336 . S
C243 N241 1.335 . S
C243 N242 1.345 . S
C243 H248 0.930 . S
C244 N241 1.390 . S
C244 C245 1.346 . S
C244 H249 0.930 . S
C245 N242 1.336 . S
C245 C244 1.346 . S
C245 H252 0.929 . S
C246 O236 1.282 . S
C246 O247 1.216 . S
O247 C246 1.216 . S
H248 C243 0.930 . S
H249 C244 0.930 . S
O250 Cu230 1.959 . S
O250 C237 1.251 . S
H251 C234 0.930 . S
H252 C245 0.929 . S
Cu253 N254 1.999 . S
Cu253 O259 1.974 . S
Cu253 N264 1.985 . S
Cu253 O273 1.959 . S
N254 Cu253 1.999 . S
N254 C256 1.263 . S
N254 C258 1.389 . S
N255 C256 1.358 . S
N255 C257 1.400 . S
C256 N254 1.263 . S
C256 N255 1.358 . S
C256 H262 0.930 . S
C257 N255 1.400 . S
C257 C258 1.351 . S
C257 H274 0.930 . S
C258 N254 1.389 . S
C258 C257 1.351 . S
C258 H263 0.930 . S
O259 Cu253 1.974 . S
O259 C269 1.282 . S
C260 O261 1.261 . S
C260 O273 1.251 . S
O261 C260 1.261 . S
H262 C256 0.930 . S
H263 C258 0.930 . S
N264 Cu253 1.985 . S
N264 C266 1.335 . S
N264 C267 1.390 . S
N265 C266 1.345 . S
N265 C268 1.336 . S
C266 N264 1.335 . S
C266 N265 1.345 . S
C266 H271 0.930 . S
C267 N264 1.390 . S
C267 C268 1.346 . S
C267 H272 0.930 . S
C268 N265 1.336 . S
C268 C267 1.346 . S
C268 H275 0.929 . S
C269 O259 1.282 . S
C269 O270 1.216 . S
O270 C269 1.216 . S
H271 C266 0.930 . S
H272 C267 0.930 . S
O273 Cu253 1.959 . S
O273 C260 1.251 . S
H274 C257 0.930 . S
H275 C268 0.929 . S
Cu276 N277 1.999 . S
Cu276 O282 1.974 . S
Cu276 N287 1.985 . S
Cu276 O296 1.959 . S
N277 Cu276 1.999 . S
N277 C279 1.263 . S
N277 C281 1.389 . S
N278 C279 1.358 . S
N278 C280 1.400 . S
C279 N277 1.263 . S
C279 N278 1.358 . S
C279 H285 0.930 . S
C280 N278 1.400 . S
C280 C281 1.351 . S
C280 H297 0.930 . S
C281 N277 1.389 . S
C281 C280 1.351 . S
C281 H286 0.930 . S
O282 Cu276 1.974 . S
O282 C292 1.282 . S
C283 O284 1.261 . S
C283 O296 1.251 . S
O284 C283 1.261 . S
H285 C279 0.930 . S
H286 C281 0.930 . S
N287 Cu276 1.985 . S
N287 C289 1.335 . S
N287 C290 1.390 . S
N288 C289 1.345 . S
N288 C291 1.336 . S
C289 N287 1.335 . S
C289 N288 1.345 . S
C289 H294 0.930 . S
C290 N287 1.390 . S
C290 C291 1.346 . S
C290 H295 0.930 . S
C291 N288 1.336 . S
C291 C290 1.346 . S
C291 H298 0.929 . S
C292 O282 1.282 . S
C292 O293 1.216 . S
O293 C292 1.216 . S
H294 C289 0.930 . S
H295 C290 0.930 . S
O296 Cu276 1.959 . S
O296 C283 1.251 . S
H297 C280 0.930 . S
H298 C291 0.929 . S
Cu299 N300 1.999 . S
Cu299 O305 1.974 . S
Cu299 N310 1.985 . S
Cu299 O319 1.959 . S
N300 Cu299 1.999 . S
N300 C302 1.263 . S
N300 C304 1.389 . S
N301 C302 1.358 . S
N301 C303 1.400 . S
C302 N300 1.263 . S
C302 N301 1.358 . S
C302 H308 0.930 . S
C303 N301 1.400 . S
C303 C304 1.351 . S
C303 H320 0.930 . S
C304 N300 1.389 . S
C304 C303 1.351 . S
C304 H309 0.930 . S
O305 Cu299 1.974 . S
O305 C315 1.282 . S
C306 O307 1.261 . S
C306 O319 1.251 . S
O307 C306 1.261 . S
H308 C302 0.930 . S
H309 C304 0.930 . S
N310 Cu299 1.985 . S
N310 C312 1.335 . S
N310 C313 1.390 . S
N311 C312 1.345 . S
N311 C314 1.336 . S
C312 N310 1.335 . S
C312 N311 1.345 . S
C312 H317 0.930 . S
C313 N310 1.390 . S
C313 C314 1.346 . S
C313 H318 0.930 . S
C314 N311 1.336 . S
C314 C313 1.346 . S
C314 H321 0.929 . S
C315 O305 1.282 . S
C315 O316 1.216 . S
O316 C315 1.216 . S
H317 C312 0.930 . S
H318 C313 0.930 . S
O319 Cu299 1.959 . S
O319 C306 1.251 . S
H320 C303 0.930 . S
H321 C314 0.929 . S
Cu322 N323 1.999 . S
Cu322 O328 1.974 . S
Cu322 N333 1.985 . S
Cu322 O342 1.959 . S
N323 Cu322 1.999 . S
N323 C325 1.263 . S
N323 C327 1.389 . S
N324 C325 1.358 . S
N324 C326 1.400 . S
C325 N323 1.263 . S
C325 N324 1.358 . S
C325 H331 0.930 . S
C326 N324 1.400 . S
C326 C327 1.351 . S
C326 H343 0.930 . S
C327 N323 1.389 . S
C327 C326 1.351 . S
C327 H332 0.930 . S
O328 Cu322 1.974 . S
O328 C338 1.282 . S
C329 O330 1.261 . S
C329 O342 1.251 . S
O330 C329 1.261 . S
H331 C325 0.930 . S
H332 C327 0.930 . S
N333 Cu322 1.985 . S
N333 C335 1.335 . S
N333 C336 1.390 . S
N334 C335 1.345 . S
N334 C337 1.336 . S
C335 N333 1.335 . S
C335 N334 1.345 . S
C335 H340 0.930 . S
C336 N333 1.390 . S
C336 C337 1.346 . S
C336 H341 0.930 . S
C337 N334 1.336 . S
C337 C336 1.346 . S
C337 H344 0.929 . S
C338 O328 1.282 . S
C338 O339 1.216 . S
O339 C338 1.216 . S
H340 C335 0.930 . S
H341 C336 0.930 . S
O342 Cu322 1.959 . S
O342 C329 1.251 . S
H343 C326 0.930 . S
H344 C337 0.929 . S
Cu345 N346 1.999 . S
Cu345 O351 1.974 . S
Cu345 N356 1.985 . S
Cu345 O365 1.959 . S
N346 Cu345 1.999 . S
N346 C348 1.263 . S
N346 C350 1.389 . S
N347 C348 1.358 . S
N347 C349 1.400 . S
C348 N346 1.263 . S
C348 N347 1.358 . S
C348 H354 0.930 . S
C349 N347 1.400 . S
C349 C350 1.351 . S
C349 H366 0.930 . S
C350 N346 1.389 . S
C350 C349 1.351 . S
C350 H355 0.930 . S
O351 Cu345 1.974 . S
O351 C361 1.282 . S
C352 O353 1.261 . S
C352 O365 1.251 . S
O353 C352 1.261 . S
H354 C348 0.930 . S
H355 C350 0.930 . S
N356 Cu345 1.985 . S
N356 C358 1.335 . S
N356 C359 1.390 . S
N357 C358 1.345 . S
N357 C360 1.336 . S
C358 N356 1.335 . S
C358 N357 1.345 . S
C358 H363 0.930 . S
C359 N356 1.390 . S
C359 C360 1.346 . S
C359 H364 0.930 . S
C360 N357 1.336 . S
C360 C359 1.346 . S
C360 H367 0.929 . S
C361 O351 1.282 . S
C361 O362 1.216 . S
O362 C361 1.216 . S
H363 C358 0.930 . S
H364 C359 0.930 . S
O365 Cu345 1.959 . S
O365 C352 1.251 . S
H366 C349 0.930 . S
H367 C360 0.929 . S
Cu368 N369 1.999 . S
Cu368 O374 1.974 . S
Cu368 N379 1.985 . S
Cu368 O388 1.959 . S
N369 Cu368 1.999 . S
N369 C371 1.263 . S
N369 C373 1.389 . S
N370 C371 1.358 . S
N370 C372 1.400 . S
C371 N369 1.263 . S
C371 N370 1.358 . S
C371 H377 0.930 . S
C372 N370 1.400 . S
C372 C373 1.351 . S
C372 H389 0.930 . S
C373 N369 1.389 . S
C373 C372 1.351 . S
C373 H378 0.930 . S
O374 Cu368 1.974 . S
O374 C384 1.282 . S
C375 O376 1.261 . S
C375 O388 1.251 . S
O376 C375 1.261 . S
H377 C371 0.930 . S
H378 C373 0.930 . S
N379 Cu368 1.985 . S
N379 C381 1.335 . S
N379 C382 1.390 . S
N380 C381 1.345 . S
N380 C383 1.336 . S
C381 N379 1.335 . S
C381 N380 1.345 . S
C381 H386 0.930 . S
C382 N379 1.390 . S
C382 C383 1.346 . S
C382 H387 0.930 . S
C383 N380 1.336 . S
C383 C382 1.346 . S
C383 H390 0.929 . S
C384 O374 1.282 . S
C384 O385 1.216 . S
O385 C384 1.216 . S
H386 C381 0.930 . S
H387 C382 0.930 . S
O388 Cu368 1.959 . S
O388 C375 1.251 . S
H389 C372 0.930 . S
H390 C383 0.929 . S
Cu391 N392 1.999 . S
Cu391 O397 1.974 . S
Cu391 N402 1.985 . S
Cu391 O411 1.959 . S
N392 Cu391 1.999 . S
N392 C394 1.263 . S
N392 C396 1.389 . S
N393 C394 1.358 . S
N393 C395 1.400 . S
C394 N392 1.263 . S
C394 N393 1.358 . S
C394 H400 0.930 . S
C395 N393 1.400 . S
C395 C396 1.351 . S
C395 H412 0.930 . S
C396 N392 1.389 . S
C396 C395 1.351 . S
C396 H401 0.930 . S
O397 Cu391 1.974 . S
O397 C407 1.282 . S
C398 O399 1.261 . S
C398 O411 1.251 . S
O399 C398 1.261 . S
H400 C394 0.930 . S
H401 C396 0.930 . S
N402 Cu391 1.985 . S
N402 C404 1.335 . S
N402 C405 1.390 . S
N403 C404 1.345 . S
N403 C406 1.336 . S
C404 N402 1.335 . S
C404 N403 1.345 . S
C404 H409 0.930 . S
C405 N402 1.390 . S
C405 C406 1.346 . S
C405 H410 0.930 . S
C406 N403 1.336 . S
C406 C405 1.346 . S
C406 H413 0.929 . S
C407 O397 1.282 . S
C407 O408 1.216 . S
O408 C407 1.216 . S
H409 C404 0.930 . S
H410 C405 0.930 . S
O411 Cu391 1.959 . S
O411 C398 1.251 . S
H412 C395 0.930 . S
H413 C406 0.929 . S
In414 O415 2.294 . S
In414 O416 2.326 . S
In414 O420 2.266 . S
In414 O421 2.326 . S
In414 O422 2.266 1_455 S
In414 O423 2.326 . S
In414 O425 2.294 . S
In414 O426 2.326 . S
O415 In414 2.294 . S
O415 C424 1.240 . S
O416 In414 2.326 . S
O416 C424 1.252 . S
C417 O420 1.252 . S
C417 O421 1.260 . S
C418 O425 1.240 . S
C418 O426 1.252 . S
C419 O422 1.252 . S
C419 O423 1.260 1_655 S
O420 In414 2.266 . S
O420 C417 1.252 . S
O421 In414 2.326 . S
O421 C417 1.260 . S
O422 In414 2.266 1_655 S
O422 C419 1.252 . S
O423 In414 2.326 . S
O423 C419 1.260 1_455 S
C424 O415 1.240 . S
C424 O416 1.252 . S
O425 In414 2.294 . S
O425 C418 1.240 . S
O426 In414 2.326 . S
O426 C418 1.252 . S
In427 O428 2.294 . S
In427 O429 2.326 . S
In427 O433 2.266 . S
In427 O434 2.326 . S
In427 O435 2.266 . S
In427 O436 2.326 . S
In427 O438 2.294 . S
In427 O439 2.326 . S
O428 In427 2.294 . S
O428 C437 1.240 . S
O429 In427 2.326 . S
O429 C437 1.252 . S
C430 O433 1.252 . S
C430 O434 1.260 . S
C431 O438 1.240 . S
C431 O439 1.252 . S
C432 O435 1.252 . S
C432 O436 1.260 . S
O433 In427 2.266 . S
O433 C430 1.252 . S
O434 In427 2.326 . S
O434 C430 1.260 . S
O435 In427 2.266 . S
O435 C432 1.252 . S
O436 In427 2.326 . S
O436 C432 1.260 . S
C437 O428 1.240 . S
C437 O429 1.252 . S
O438 In427 2.294 . S
O438 C431 1.240 . S
O439 In427 2.326 . S
O439 C431 1.252 . S
In440 O441 2.294 . S
In440 O442 2.326 . S
In440 O446 2.266 . S
In440 O447 2.326 . S
In440 O448 2.266 . S
In440 O449 2.326 . S
In440 O451 2.294 . S
In440 O452 2.326 . S
O441 In440 2.294 . S
O441 C450 1.240 . S
O442 In440 2.326 . S
O442 C450 1.252 . S
C443 O446 1.252 . S
C443 O447 1.260 . S
C444 O451 1.240 . S
C444 O452 1.252 . S
C445 O448 1.252 . S
C445 O449 1.260 . S
O446 In440 2.266 . S
O446 C443 1.252 . S
O447 In440 2.326 . S
O447 C443 1.260 . S
O448 In440 2.266 . S
O448 C445 1.252 . S
O449 In440 2.326 . S
O449 C445 1.260 . S
C450 O441 1.240 . S
C450 O442 1.252 . S
O451 In440 2.294 . S
O451 C444 1.240 . S
O452 In440 2.326 . S
O452 C444 1.252 . S
In453 O454 2.294 . S
In453 O455 2.326 . S
In453 O459 2.266 . S
In453 O460 2.326 . S
In453 O461 2.266 . S
In453 O462 2.326 . S
In453 O464 2.294 . S
In453 O465 2.326 . S
O454 In453 2.294 . S
O454 C463 1.240 . S
O455 In453 2.326 . S
O455 C463 1.252 . S
C456 O459 1.252 . S
C456 O460 1.260 . S
C457 O464 1.240 . S
C457 O465 1.252 . S
C458 O461 1.252 . S
C458 O462 1.260 . S
O459 In453 2.266 . S
O459 C456 1.252 . S
O460 In453 2.326 . S
O460 C456 1.260 . S
O461 In453 2.266 . S
O461 C458 1.252 . S
O462 In453 2.326 . S
O462 C458 1.260 . S
C463 O454 1.240 . S
C463 O455 1.252 . S
O464 In453 2.294 . S
O464 C457 1.240 . S
O465 In453 2.326 . S
O465 C457 1.252 . S
In466 O467 2.294 . S
In466 O468 2.326 . S
In466 O472 2.266 . S
In466 O473 2.326 . S
In466 O474 2.266 . S
In466 O475 2.326 . S
In466 O477 2.294 . S
In466 O478 2.326 . S
O467 In466 2.294 . S
O467 C476 1.240 . S
O468 In466 2.326 . S
O468 C476 1.252 . S
C469 O472 1.252 . S
C469 O473 1.260 . S
C470 O477 1.240 . S
C470 O478 1.252 . S
C471 O474 1.252 . S
C471 O475 1.260 . S
O472 In466 2.266 . S
O472 C469 1.252 . S
O473 In466 2.326 . S
O473 C469 1.260 . S
O474 In466 2.266 . S
O474 C471 1.252 . S
O475 In466 2.326 . S
O475 C471 1.260 . S
C476 O467 1.240 . S
C476 O468 1.252 . S
O477 In466 2.294 . S
O477 C470 1.240 . S
O478 In466 2.326 . S
O478 C470 1.252 . S
In479 O480 2.294 . S
In479 O481 2.326 . S
In479 O485 2.266 . S
In479 O486 2.326 . S
In479 O487 2.262 1_545 S
In479 O488 2.326 . S
In479 O490 2.294 . S
In479 O491 2.326 . S
O480 In479 2.294 . S
O480 C489 1.240 . S
O481 In479 2.326 . S
O481 C489 1.252 . S
C482 O485 1.252 . S
C482 O486 1.260 . S
C483 O490 1.240 . S
C483 O491 1.252 . S
C484 O487 1.248 1_545 S
C484 O488 1.260 . S
O485 In479 2.266 . S
O485 C482 1.252 . S
O486 In479 2.326 . S
O486 C482 1.260 . S
O487 In479 2.262 1_565 S
O487 C484 1.248 1_565 S
O488 In479 2.326 . S
O488 C484 1.260 . S
C489 O480 1.240 . S
C489 O481 1.252 . S
O490 In479 2.294 . S
O490 C483 1.240 . S
O491 In479 2.326 . S
O491 C483 1.252 . S
In492 O493 2.294 1_565 S
In492 O494 2.326 1_565 S
In492 O498 2.266 . S
In492 O499 2.326 . S
In492 O500 2.266 . S
In492 O501 2.326 1_565 S
In492 O503 2.294 . S
In492 O504 2.326 . S
O493 In492 2.294 1_545 S
O493 C502 1.240 . S
O494 In492 2.326 1_545 S
O494 C502 1.252 . S
C495 O498 1.252 . S
C495 O499 1.260 . S
C496 O503 1.240 . S
C496 O504 1.252 . S
C497 O500 1.252 . S
C497 O501 1.260 1_565 S
O498 In492 2.266 . S
O498 C495 1.252 . S
O499 In492 2.326 . S
O499 C495 1.260 . S
O500 In492 2.266 . S
O500 C497 1.252 . S
O501 In492 2.326 1_545 S
O501 C497 1.260 1_545 S
C502 O493 1.240 . S
C502 O494 1.252 . S
O503 In492 2.294 . S
O503 C496 1.240 . S
O504 In492 2.326 . S
O504 C496 1.252 . S
In505 O506 2.294 . S
In505 O507 2.326 . S
In505 O511 2.266 . S
In505 O512 2.326 . S
In505 O513 2.266 . S
In505 O514 2.326 . S
In505 O516 2.294 . S
In505 O517 2.326 . S
O506 In505 2.294 . S
O506 C515 1.240 . S
O507 In505 2.326 . S
O507 C515 1.252 . S
C508 O511 1.252 . S
C508 O512 1.260 . S
C509 O516 1.240 . S
C509 O517 1.252 . S
C510 O513 1.252 . S
C510 O514 1.260 . S
O511 In505 2.266 . S
O511 C508 1.252 . S
O512 In505 2.326 . S
O512 C508 1.260 . S
O513 In505 2.266 . S
O513 C510 1.252 . S
O514 In505 2.326 . S
O514 C510 1.260 . S
C515 O506 1.240 . S
C515 O507 1.252 . S
O516 In505 2.294 . S
O516 C509 1.240 . S
O517 In505 2.326 . S
O517 C509 1.252 . S
In518 O519 2.294 . S
In518 O520 2.326 . S
In518 O524 2.266 . S
In518 O525 2.326 . S
In518 O526 2.266 . S
In518 O527 2.326 . S
In518 O529 2.294 . S
In518 O530 2.326 . S
O519 In518 2.294 . S
O519 C528 1.240 . S
O520 In518 2.326 . S
O520 C528 1.252 . S
C521 O524 1.252 . S
C521 O525 1.260 . S
C522 O529 1.240 . S
C522 O530 1.252 . S
C523 O526 1.252 . S
C523 O527 1.260 . S
O524 In518 2.266 . S
O524 C521 1.252 . S
O525 In518 2.326 . S
O525 C521 1.260 . S
O526 In518 2.266 . S
O526 C523 1.252 . S
O527 In518 2.326 . S
O527 C523 1.260 . S
C528 O519 1.240 . S
C528 O520 1.252 . S
O529 In518 2.294 . S
O529 C522 1.240 . S
O530 In518 2.326 . S
O530 C522 1.252 . S
In531 O532 2.294 . S
In531 O533 2.326 . S
In531 O537 2.266 . S
In531 O538 2.326 . S
In531 O539 2.266 . S
In531 O540 2.326 . S
In531 O542 2.294 . S
In531 O543 2.326 . S
O532 In531 2.294 . S
O532 C541 1.240 . S
O533 In531 2.326 . S
O533 C541 1.252 . S
C534 O537 1.252 . S
C534 O538 1.260 . S
C535 O542 1.240 . S
C535 O543 1.252 . S
C536 O539 1.252 . S
C536 O540 1.260 . S
O537 In531 2.266 . S
O537 C534 1.252 . S
O538 In531 2.326 . S
O538 C534 1.260 . S
O539 In531 2.266 . S
O539 C536 1.252 . S
O540 In531 2.326 . S
O540 C536 1.260 . S
C541 O532 1.240 . S
C541 O533 1.252 . S
O542 In531 2.294 . S
O542 C535 1.240 . S
O543 In531 2.326 . S
O543 C535 1.252 . S
In544 O545 2.341 . S
In544 O546 2.330 . S
In544 O550 2.297 1_565 S
In544 O551 2.313 1_565 S
In544 O552 2.199 1_565 S
In544 O553 2.288 1_565 S
In544 O555 2.285 . S
In544 O556 2.376 . S
O545 In544 2.341 . S
O545 C554 1.240 . S
O546 In544 2.330 . S
O546 C554 1.252 . S
C547 O550 1.252 . S
C547 O551 1.260 . S
C548 O555 1.240 . S
C548 O556 1.252 . S
C549 O552 1.252 . S
C549 O553 1.260 . S
O550 In544 2.297 1_545 S
O550 C547 1.252 . S
O551 In544 2.313 1_545 S
O551 C547 1.260 . S
O552 In544 2.199 1_545 S
O552 C549 1.252 . S
O553 In544 2.288 1_545 S
O553 C549 1.260 . S
C554 O545 1.240 . S
C554 O546 1.252 . S
O555 In544 2.285 . S
O555 C548 1.240 . S
O556 In544 2.376 . S
O556 C548 1.252 . S
In557 O558 2.294 . S
In557 O559 2.326 . S
In557 O563 2.266 . S
In557 O564 2.326 . S
In557 O565 2.266 . S
In557 O566 2.326 . S
In557 O568 2.294 . S
In557 O569 2.326 . S
O558 In557 2.294 . S
O558 C567 1.240 . S
O559 In557 2.326 . S
O559 C567 1.252 . S
C560 O563 1.252 . S
C560 O564 1.260 . S
C561 O568 1.240 . S
C561 O569 1.252 . S
C562 O565 1.252 . S
C562 O566 1.260 . S
O563 In557 2.266 . S
O563 C560 1.252 . S
O564 In557 2.326 . S
O564 C560 1.260 . S
O565 In557 2.266 . S
O565 C562 1.252 . S
O566 In557 2.326 . S
O566 C562 1.260 . S
C567 O558 1.240 . S
C567 O559 1.252 . S
O568 In557 2.294 . S
O568 C561 1.240 . S
O569 In557 2.326 . S
O569 C561 1.252 . S
In570 O571 2.294 . S
In570 O572 2.326 . S
In570 O576 2.266 . S
In570 O577 2.326 . S
In570 O578 2.266 . S
In570 O579 2.326 . S
In570 O581 2.294 . S
In570 O582 2.326 . S
O571 In570 2.294 . S
O571 C580 1.240 . S
O572 In570 2.326 . S
O572 C580 1.252 . S
C573 O576 1.252 . S
C573 O577 1.260 . S
C574 O581 1.240 . S
C574 O582 1.252 . S
C575 O578 1.252 . S
C575 O579 1.260 . S
O576 In570 2.266 . S
O576 C573 1.252 . S
O577 In570 2.326 . S
O577 C573 1.260 . S
O578 In570 2.266 . S
O578 C575 1.252 . S
O579 In570 2.326 . S
O579 C575 1.260 . S
C580 O571 1.240 . S
C580 O572 1.252 . S
O581 In570 2.294 . S
O581 C574 1.240 . S
O582 In570 2.326 . S
O582 C574 1.252 . S
In583 O584 2.294 . S
In583 O585 2.326 . S
In583 O589 2.266 . S
In583 O590 2.326 . S
In583 O591 2.266 . S
In583 O592 2.326 . S
In583 O594 2.294 . S
In583 O595 2.326 . S
O584 In583 2.294 . S
O584 C593 1.240 . S
O585 In583 2.326 . S
O585 C593 1.252 . S
C586 O589 1.252 . S
C586 O590 1.260 . S
C587 O594 1.240 . S
C587 O595 1.252 . S
C588 O591 1.252 . S
C588 O592 1.260 . S
O589 In583 2.266 . S
O589 C586 1.252 . S
O590 In583 2.326 . S
O590 C586 1.260 . S
O591 In583 2.266 . S
O591 C588 1.252 . S
O592 In583 2.326 . S
O592 C588 1.260 . S
C593 O584 1.240 . S
C593 O585 1.252 . S
O594 In583 2.294 . S
O594 C587 1.240 . S
O595 In583 2.326 . S
O595 C587 1.252 . S
In596 O597 2.294 . S
In596 O598 2.326 . S
In596 O602 2.266 1_655 S
In596 O603 2.326 1_655 S
In596 O604 2.266 . S
In596 O605 2.326 . S
In596 O607 2.294 . S
In596 O608 2.314 1_655 S
O597 In596 2.294 . S
O597 C606 1.240 . S
O598 In596 2.326 . S
O598 C606 1.252 . S
C599 O602 1.252 . S
C599 O603 1.260 . S
C600 O607 1.240 . S
C600 O608 1.254 1_655 S
C601 O604 1.252 . S
C601 O605 1.260 . S
O602 In596 2.266 1_455 S
O602 C599 1.252 . S
O603 In596 2.326 1_455 S
O603 C599 1.260 . S
O604 In596 2.266 . S
O604 C601 1.252 . S
O605 In596 2.326 . S
O605 C601 1.260 . S
C606 O597 1.240 . S
C606 O598 1.252 . S
O607 In596 2.294 . S
O607 C600 1.240 . S
O608 In596 2.314 1_455 S
O608 C600 1.254 1_455 S
In609 O610 2.294 . S
In609 O611 2.326 . S
In609 O615 2.266 . S
In609 O616 2.326 . S
In609 O617 2.266 . S
In609 O618 2.326 . S
In609 O620 2.294 . S
In609 O621 2.326 . S
O610 In609 2.294 . S
O610 C619 1.240 . S
O611 In609 2.326 . S
O611 C619 1.252 . S
C612 O615 1.252 . S
C612 O616 1.260 . S
C613 O620 1.240 . S
C613 O621 1.252 . S
C614 O617 1.252 . S
C614 O618 1.260 . S
O615 In609 2.266 . S
O615 C612 1.252 . S
O616 In609 2.326 . S
O616 C612 1.260 . S
O617 In609 2.266 . S
O617 C614 1.252 . S
O618 In609 2.326 . S
O618 C614 1.260 . S
C619 O610 1.240 . S
C619 O611 1.252 . S
O620 In609 2.294 . S
O620 C613 1.240 . S
O621 In609 2.326 . S
O621 C613 1.252 . S
In622 O623 2.294 . S
In622 O624 2.326 . S
In622 O628 2.266 1_655 S
In622 O629 2.326 1_655 S
In622 O630 2.266 1_655 S
In622 O631 2.326 1_655 S
In622 O633 2.294 . S
In622 O634 2.326 . S
O623 In622 2.294 . S
O623 C632 1.240 . S
O624 In622 2.326 . S
O624 C632 1.252 . S
C625 O628 1.252 . S
C625 O629 1.260 . S
C626 O633 1.240 . S
C626 O634 1.252 . S
C627 O630 1.252 . S
C627 O631 1.260 . S
O628 In622 2.266 1_455 S
O628 C625 1.252 . S
O629 In622 2.326 1_455 S
O629 C625 1.260 . S
O630 In622 2.266 1_455 S
O630 C627 1.252 . S
O631 In622 2.326 1_455 S
O631 C627 1.260 . S
C632 O623 1.240 . S
C632 O624 1.252 . S
O633 In622 2.294 . S
O633 C626 1.240 . S
O634 In622 2.326 . S
O634 C626 1.252 . S
In635 O636 2.294 . S
In635 O637 2.326 . S
In635 O641 2.266 . S
In635 O642 2.326 . S
In635 O643 2.266 . S
In635 O644 2.326 . S
In635 O646 2.294 . S
In635 O647 2.326 . S
O636 In635 2.294 . S
O636 C645 1.240 . S
O637 In635 2.326 . S
O637 C645 1.252 . S
C638 O641 1.252 . S
C638 O642 1.260 . S
C639 O646 1.240 . S
C639 O647 1.252 . S
C640 O643 1.252 . S
C640 O644 1.260 . S
O641 In635 2.266 . S
O641 C638 1.252 . S
O642 In635 2.326 . S
O642 C638 1.260 . S
O643 In635 2.266 . S
O643 C640 1.252 . S
O644 In635 2.326 . S
O644 C640 1.260 . S
C645 O636 1.240 . S
C645 O637 1.252 . S
O646 In635 2.294 . S
O646 C639 1.240 . S
O647 In635 2.326 . S
O647 C639 1.252 . S
H648 C654 0.930 . S
H649 C658 0.930 . S
H650 C663 0.929 . S
H651 C661 0.929 . S
H652 C656 0.929 . S
H653 C662 0.929 . S
C654 H648 0.930 . S
C654 C655 1.367 . S
C654 C662 1.378 . S
C655 C654 1.367 . S
C655 C663 1.433 1_455 S
C656 H652 0.929 . S
C656 C658 1.378 . S
C656 C660 1.350 . S
C657 C660 1.463 . S
C657 C662 1.350 . S
C657 N665 1.427 . S
C658 H649 0.930 . S
C658 C656 1.378 . S
C658 C659 1.367 . S
C659 C658 1.367 . S
C659 C661 1.433 . S
C660 C656 1.350 . S
C660 C657 1.463 . S
C660 N664 1.427 . S
C661 H651 0.929 . S
C661 C659 1.433 . S
C661 N664 1.384 . S
C662 H653 0.929 . S
C662 C654 1.378 . S
C662 C657 1.350 . S
C663 H650 0.929 . S
C663 C655 1.433 1_655 S
C663 N665 1.384 1_655 S
N664 C660 1.427 . S
N664 C661 1.384 . S
N665 C657 1.427 . S
N665 C663 1.384 1_455 S
H666 C672 0.930 . S
H667 C676 0.930 . S
H668 C681 0.929 1_556 S
H669 C679 0.929 . S
H670 C674 0.929 . S
H671 C680 0.929 . S
C672 H666 0.930 . S
C672 C673 1.367 . S
C672 C680 1.378 . S
C673 C672 1.367 . S
C673 C681 1.433 . S
C674 H670 0.929 . S
C674 C676 1.378 . S
C674 C678 1.350 . S
C675 C678 1.463 . S
C675 C680 1.350 . S
C675 N683 1.427 . S
C676 H667 0.930 . S
C676 C674 1.378 . S
C676 C677 1.367 . S
C677 C676 1.367 . S
C677 C679 1.433 . S
C678 C674 1.350 . S
C678 C675 1.463 . S
C678 N682 1.427 . S
C679 H669 0.929 . S
C679 C677 1.433 . S
C679 N682 1.384 . S
C680 H671 0.929 . S
C680 C672 1.378 . S
C680 C675 1.350 . S
C681 H668 0.929 1_554 S
C681 C673 1.433 . S
C681 N683 1.384 . S
N682 C678 1.427 . S
N682 C679 1.384 . S
N683 C675 1.427 . S
N683 C681 1.384 . S
H684 C690 0.930 . S
H685 C694 0.930 1_565 S
H686 C699 0.929 . S
H687 C697 0.929 . S
H688 C692 0.929 . S
H689 C698 0.929 . S
C690 H684 0.930 . S
C690 C691 1.367 . S
C690 C698 1.378 . S
C691 C690 1.367 . S
C691 C699 1.433 . S
C692 H688 0.929 . S
C692 C694 1.378 . S
C692 C696 1.350 . S
C693 C696 1.463 . S
C693 C698 1.350 . S
C693 N701 1.427 . S
C694 H685 0.930 1_545 S
C694 C692 1.378 . S
C694 C695 1.367 . S
C695 C694 1.367 . S
C695 C697 1.433 . S
C696 C692 1.350 . S
C696 C693 1.463 . S
C696 N700 1.427 . S
C697 H687 0.929 . S
C697 C695 1.433 . S
C697 N700 1.384 . S
C698 H689 0.929 . S
C698 C690 1.378 . S
C698 C693 1.350 . S
C699 H686 0.929 . S
C699 C691 1.433 . S
C699 N701 1.384 . S
N700 C696 1.427 . S
N700 C697 1.384 . S
N701 C693 1.427 . S
N701 C699 1.384 . S
H702 C708 0.930 . S
H703 C712 0.930 . S
H704 C717 0.929 . S
H705 C715 0.929 . S
H706 C710 0.929 . S
H707 C716 0.929 . S
C708 H702 0.930 . S
C708 C709 1.367 . S
C708 C716 1.378 . S
C709 C708 1.367 . S
C709 C717 1.433 . S
C710 H706 0.929 . S
C710 C712 1.378 . S
C710 C714 1.350 . S
C711 C714 1.463 . S
C711 C716 1.350 . S
C711 N719 1.427 . S
C712 H703 0.930 . S
C712 C710 1.378 . S
C712 C713 1.367 . S
C713 C712 1.367 . S
C713 C715 1.433 . S
C714 C710 1.350 . S
C714 C711 1.463 . S
C714 N718 1.427 . S
C715 H705 0.929 . S
C715 C713 1.433 . S
C715 N718 1.384 . S
C716 H707 0.929 . S
C716 C708 1.378 . S
C716 C711 1.350 . S
C717 H704 0.929 . S
C717 C709 1.433 . S
C717 N719 1.384 . S
N718 C714 1.427 . S
N718 C715 1.384 . S
N719 C711 1.427 . S
N719 C717 1.384 . S
H720 C726 0.930 . S
H721 C730 0.930 . S
H722 C735 0.929 . S
H723 C733 0.929 . S
H724 C728 0.929 . S
H725 C734 0.929 . S
C726 H720 0.930 . S
C726 C727 1.367 . S
C726 C734 1.378 . S
C727 C726 1.367 . S
C727 C735 1.433 . S
C728 H724 0.929 . S
C728 C730 1.378 . S
C728 C732 1.350 . S
C729 C732 1.463 . S
C729 C734 1.350 . S
C729 N737 1.427 . S
C730 H721 0.930 . S
C730 C728 1.378 . S
C730 C731 1.367 . S
C731 C730 1.367 . S
C731 C733 1.433 . S
C732 C728 1.350 . S
C732 C729 1.463 . S
C732 N736 1.427 . S
C733 H723 0.929 . S
C733 C731 1.433 . S
C733 N736 1.384 . S
C734 H725 0.929 . S
C734 C726 1.378 . S
C734 C729 1.350 . S
C735 H722 0.929 . S
C735 C727 1.433 . S
C735 N737 1.384 . S
N736 C732 1.427 . S
N736 C733 1.384 . S
N737 C729 1.427 . S
N737 C735 1.384 . S
H738 C744 0.930 . S
H739 C748 0.930 . S
H740 C753 0.929 . S
H741 C751 0.929 . S
H742 C746 0.929 . S
H743 C752 0.929 . S
C744 H738 0.930 . S
C744 C745 1.367 . S
C744 C752 1.378 . S
C745 C744 1.367 . S
C745 C753 1.433 . S
C746 H742 0.929 . S
C746 C748 1.378 . S
C746 C750 1.350 . S
C747 C750 1.463 . S
C747 C752 1.350 . S
C747 N755 1.427 . S
C748 H739 0.930 . S
C748 C746 1.378 . S
C748 C749 1.367 . S
C749 C748 1.367 . S
C749 C751 1.433 . S
C750 C746 1.350 . S
C750 C747 1.463 . S
C750 N754 1.427 . S
C751 H741 0.929 . S
C751 C749 1.433 . S
C751 N754 1.384 . S
C752 H743 0.929 . S
C752 C744 1.378 . S
C752 C747 1.350 . S
C753 H740 0.929 . S
C753 C745 1.433 . S
C753 N755 1.384 . S
N754 C750 1.427 . S
N754 C751 1.384 . S
N755 C747 1.427 . S
N755 C753 1.384 . S
H756 C762 0.930 . S
H757 C766 0.930 1_455 S
H758 C771 0.939 . S
H759 C769 0.929 . S
H760 C764 0.929 1_455 S
H761 C770 0.929 . S
C762 H756 0.930 . S
C762 C763 1.367 . S
C762 C770 1.378 . S
C763 C762 1.367 . S
C763 C771 1.426 1_556 S
C764 H760 0.929 1_655 S
C764 C766 1.379 . S
C764 C768 1.350 . S
C765 C768 1.463 . S
C765 C770 1.350 . S
C765 N773 1.427 . S
C766 H757 0.930 1_655 S
C766 C764 1.379 . S
C766 C767 1.365 . S
C767 C766 1.365 . S
C767 C769 1.433 . S
C768 C764 1.350 . S
C768 C765 1.463 . S
C768 N772 1.427 . S
C769 H759 0.929 . S
C769 C767 1.433 . S
C769 N772 1.384 . S
C770 H761 0.929 . S
C770 C762 1.378 . S
C770 C765 1.350 . S
C771 H758 0.939 . S
C771 C763 1.426 1_554 S
C771 N773 1.381 1_554 S
N772 C768 1.427 . S
N772 C769 1.384 . S
N773 C765 1.427 . S
N773 C771 1.381 1_556 S
H774 C780 0.930 . S
H775 C784 0.930 . S
H776 C789 0.929 . S
H777 C787 0.929 1_554 S
H778 C782 0.929 . S
H779 C788 0.929 . S
C780 H774 0.930 . S
C780 C781 1.367 1_554 S
C780 C788 1.378 . S
C781 C780 1.367 1_556 S
C781 C789 1.433 . S
C782 H778 0.929 . S
C782 C784 1.378 . S
C782 C786 1.350 . S
C783 C786 1.463 . S
C783 C788 1.350 1_556 S
C783 N791 1.427 . S
C784 H775 0.930 . S
C784 C782 1.378 . S
C784 C785 1.367 . S
C785 C784 1.367 . S
C785 C787 1.433 . S
C786 C782 1.350 . S
C786 C783 1.463 . S
C786 N790 1.427 . S
C787 H777 0.929 1_556 S
C787 C785 1.433 . S
C787 N790 1.384 . S
C788 H779 0.929 . S
C788 C780 1.378 . S
C788 C783 1.350 1_554 S
C789 H776 0.929 . S
C789 C781 1.433 . S
C789 N791 1.384 . S
N790 C786 1.427 . S
N790 C787 1.384 . S
N791 C783 1.427 . S
N791 C789 1.384 . S
H792 C798 0.930 . S
H793 C802 0.930 . S
H794 C807 0.929 . S
H795 C805 0.929 . S
H796 C800 0.929 . S
H797 C806 0.929 . S
C798 H792 0.930 . S
C798 C799 1.367 1_554 S
C798 C806 1.378 . S
C799 C798 1.367 1_556 S
C799 C807 1.433 . S
C800 H796 0.929 . S
C800 C802 1.378 . S
C800 C804 1.350 . S
C801 C804 1.463 . S
C801 C806 1.350 1_556 S
C801 N809 1.427 . S
C802 H793 0.930 . S
C802 C800 1.378 . S
C802 C803 1.367 . S
C803 C802 1.367 . S
C803 C805 1.433 . S
C804 C800 1.350 . S
C804 C801 1.463 . S
C804 N808 1.427 . S
C805 H795 0.929 . S
C805 C803 1.433 . S
C805 N808 1.384 . S
C806 H797 0.929 . S
C806 C798 1.378 . S
C806 C801 1.350 1_554 S
C807 H794 0.929 . S
C807 C799 1.433 . S
C807 N809 1.384 . S
N808 C804 1.427 . S
N808 C805 1.384 . S
N809 C801 1.427 . S
N809 C807 1.384 . S
H810 C816 0.930 . S
H811 C820 0.930 . S
H812 C825 0.929 . S
H813 C823 0.929 . S
H814 C818 0.929 . S
H815 C824 0.929 . S
C816 H810 0.930 . S
C816 C817 1.367 . S
C816 C824 1.378 . S
C817 C816 1.367 . S
C817 C825 1.433 1_545 S
C818 H814 0.929 . S
C818 C820 1.378 . S
C818 C822 1.367 . S
C819 C822 1.448 1_545 S
C819 C824 1.350 . S
C819 N827 1.427 1_545 S
C820 H811 0.930 . S
C820 C818 1.378 . S
C820 C821 1.367 . S
C821 C820 1.367 . S
C821 C823 1.433 1_565 S
C822 C818 1.367 . S
C822 C819 1.448 1_565 S
C822 N826 1.424 1_565 S
C823 H813 0.929 . S
C823 C821 1.433 1_545 S
C823 N826 1.384 . S
C824 H815 0.929 . S
C824 C816 1.378 . S
C824 C819 1.350 . S
C825 H812 0.929 . S
C825 C817 1.433 1_565 S
C825 N827 1.384 . S
N826 C822 1.424 1_545 S
N826 C823 1.384 . S
N827 C819 1.427 1_565 S
N827 C825 1.384 . S
H828 C834 0.930 . S
H829 C838 0.930 . S
H830 C843 0.929 . S
H831 C841 0.929 . S
H832 C836 0.929 . S
H833 C842 0.929 . S
C834 H828 0.930 . S
C834 C835 1.367 . S
C834 C842 1.378 . S
C835 C834 1.367 . S
C835 C843 1.433 . S
C836 H832 0.929 . S
C836 C838 1.378 . S
C836 C840 1.350 . S
C837 C840 1.463 . S
C837 C842 1.350 . S
C837 N845 1.427 . S
C838 H829 0.930 . S
C838 C836 1.378 . S
C838 C839 1.367 . S
C839 C838 1.367 . S
C839 C841 1.433 . S
C840 C836 1.350 . S
C840 C837 1.463 . S
C840 N844 1.427 . S
C841 H831 0.929 . S
C841 C839 1.433 . S
C841 N844 1.384 . S
C842 H833 0.929 . S
C842 C834 1.378 . S
C842 C837 1.350 . S
C843 H830 0.929 . S
C843 C835 1.433 . S
C843 N845 1.384 . S
N844 C840 1.427 . S
N844 C841 1.384 . S
N845 C837 1.427 . S
N845 C843 1.384 . S
H846 C852 0.930 . S
H847 C856 0.930 . S
H848 C861 0.929 . S
H849 C859 0.929 . S
H850 C854 0.929 . S
H851 C860 0.929 . S
C852 H846 0.930 . S
C852 C853 1.367 . S
C852 C860 1.378 . S
C853 C852 1.367 . S
C853 C861 1.433 . S
C854 H850 0.929 . S
C854 C856 1.378 . S
C854 C858 1.350 . S
C855 C858 1.463 . S
C855 C860 1.350 . S
C855 N863 1.427 . S
C856 H847 0.930 . S
C856 C854 1.378 . S
C856 C857 1.367 . S
C857 C856 1.367 . S
C857 C859 1.433 . S
C858 C854 1.350 . S
C858 C855 1.463 . S
C858 N862 1.427 . S
C859 H849 0.929 . S
C859 C857 1.433 . S
C859 N862 1.384 . S
C860 H851 0.929 . S
C860 C852 1.378 . S
C860 C855 1.350 . S
C861 H848 0.929 . S
C861 C853 1.433 . S
C861 N863 1.384 . S
N862 C858 1.427 . S
N862 C859 1.384 . S
N863 C855 1.427 . S
N863 C861 1.384 . S
H864 C870 0.930 . S
H865 C874 0.930 . S
H866 C879 0.929 . S
H867 C877 0.929 . S
H868 C872 0.929 . S
H869 C878 0.929 . S
C870 H864 0.930 . S
C870 C871 1.367 . S
C870 C878 1.378 . S
C871 C870 1.367 . S
C871 C879 1.433 . S
C872 H868 0.929 . S
C872 C874 1.378 . S
C872 C876 1.350 . S
C873 C876 1.463 . S
C873 C878 1.350 . S
C873 N881 1.427 . S
C874 H865 0.930 . S
C874 C872 1.378 . S
C874 C875 1.367 . S
C875 C874 1.367 . S
C875 C877 1.433 . S
C876 C872 1.350 . S
C876 C873 1.463 . S
C876 N880 1.427 . S
C877 H867 0.929 . S
C877 C875 1.433 . S
C877 N880 1.384 . S
C878 H869 0.929 . S
C878 C870 1.378 . S
C878 C873 1.350 . S
C879 H866 0.929 . S
C879 C871 1.433 . S
C879 N881 1.384 . S
N880 C876 1.427 . S
N880 C877 1.384 . S
N881 C873 1.427 . S
N881 C879 1.384 . S
H882 C888 0.930 . S
H883 C892 0.930 . S
H884 C897 0.929 . S
H885 C895 0.929 . S
H886 C890 0.929 . S
H887 C896 0.929 . S
C888 H882 0.930 . S
C888 C889 1.367 . S
C888 C896 1.378 . S
C889 C888 1.367 . S
C889 C897 1.433 . S
C890 H886 0.929 . S
C890 C892 1.378 . S
C890 C894 1.350 . S
C891 C894 1.463 1_565 S
C891 C896 1.350 . S
C891 N899 1.427 . S
C892 H883 0.930 . S
C892 C890 1.378 . S
C892 C893 1.367 . S
C893 C892 1.367 . S
C893 C895 1.433 . S
C894 C890 1.350 . S
C894 C891 1.463 1_545 S
C894 N898 1.427 . S
C895 H885 0.929 . S
C895 C893 1.433 . S
C895 N898 1.384 . S
C896 H887 0.929 . S
C896 C888 1.378 . S
C896 C891 1.350 . S
C897 H884 0.929 . S
C897 C889 1.433 . S
C897 N899 1.384 . S
N898 C894 1.427 . S
N898 C895 1.384 . S
N899 C891 1.427 . S
N899 C897 1.384 . S
H900 C906 0.930 . S
H901 C910 0.930 . S
H902 C915 0.929 . S
H903 C913 0.929 . S
H904 C908 0.929 . S
H905 C914 0.929 . S
C906 H900 0.930 . S
C906 C907 1.367 . S
C906 C914 1.378 . S
C907 C906 1.367 . S
C907 C915 1.433 . S
C908 H904 0.929 . S
C908 C910 1.378 . S
C908 C912 1.350 . S
C909 C912 1.463 . S
C909 C914 1.350 . S
C909 N917 1.427 . S
C910 H901 0.930 . S
C910 C908 1.378 . S
C910 C911 1.367 . S
C911 C910 1.367 . S
C911 C913 1.433 . S
C912 C908 1.350 . S
C912 C909 1.463 . S
C912 N916 1.427 . S
C913 H903 0.929 . S
C913 C911 1.433 . S
C913 N916 1.384 . S
C914 H905 0.929 . S
C914 C906 1.378 . S
C914 C909 1.350 . S
C915 H902 0.929 . S
C915 C907 1.433 . S
C915 N917 1.384 . S
N916 C912 1.427 . S
N916 C913 1.384 . S
N917 C909 1.427 . S
N917 C915 1.384 . S
H918 C924 0.930 . S
H919 C928 0.930 . S
H920 C933 0.929 . S
H921 C931 0.929 . S
H922 C926 0.929 . S
H923 C932 0.929 . S
C924 H918 0.930 . S
C924 C925 1.367 . S
C924 C932 1.378 . S
C925 C924 1.367 . S
C925 C933 1.433 . S
C926 H922 0.929 . S
C926 C928 1.378 . S
C926 C930 1.350 . S
C927 C930 1.463 . S
C927 C932 1.350 . S
C927 N935 1.427 . S
C928 H919 0.930 . S
C928 C926 1.378 . S
C928 C929 1.367 . S
C929 C928 1.367 . S
C929 C931 1.433 . S
C930 C926 1.350 . S
C930 C927 1.463 . S
C930 N934 1.427 . S
C931 H921 0.929 . S
C931 C929 1.433 . S
C931 N934 1.384 . S
C932 H923 0.929 . S
C932 C924 1.378 . S
C932 C927 1.350 . S
C933 H920 0.929 . S
C933 C925 1.433 . S
C933 N935 1.384 . S
N934 C930 1.427 . S
N934 C931 1.384 . S
N935 C927 1.427 . S
N935 C933 1.384 . S
H936 C942 0.930 . S
H937 C946 0.930 . S
H938 C951 0.929 . S
H939 C949 0.929 . S
H940 C944 0.929 . S
H941 C950 0.929 . S
C942 H936 0.930 . S
C942 C943 1.367 . S
C942 C950 1.378 . S
C943 C942 1.367 . S
C943 C951 1.433 . S
C944 H940 0.929 . S
C944 C946 1.378 . S
C944 C948 1.350 . S
C945 C948 1.463 . S
C945 C950 1.350 . S
C945 N953 1.427 . S
C946 H937 0.930 . S
C946 C944 1.378 . S
C946 C947 1.367 . S
C947 C946 1.367 . S
C947 C949 1.433 . S
C948 C944 1.350 . S
C948 C945 1.463 . S
C948 N952 1.427 . S
C949 H939 0.929 . S
C949 C947 1.433 . S
C949 N952 1.384 . S
C950 H941 0.929 . S
C950 C942 1.378 . S
C950 C945 1.350 . S
C951 H938 0.929 . S
C951 C943 1.433 . S
C951 N953 1.384 . S
N952 C948 1.427 . S
N952 C949 1.384 . S
N953 C945 1.427 . S
N953 C951 1.384 . S
H954 C960 0.930 . S
H955 C964 0.930 . S
H956 C969 0.929 . S
H957 C967 0.929 1_545 S
H958 C962 0.929 . S
H959 C968 0.929 . S
C960 H954 0.930 . S
C960 C961 1.367 . S
C960 C968 1.378 . S
C961 C960 1.367 . S
C961 C969 1.433 . S
C962 H958 0.929 . S
C962 C964 1.378 . S
C962 C966 1.350 . S
C963 C966 1.463 . S
C963 C968 1.350 . S
C963 N971 1.427 . S
C964 H955 0.930 . S
C964 C962 1.378 . S
C964 C965 1.367 . S
C965 C964 1.367 . S
C965 C967 1.433 . S
C966 C962 1.350 . S
C966 C963 1.463 . S
C966 N970 1.427 . S
C967 H957 0.929 1_565 S
C967 C965 1.433 . S
C967 N970 1.384 . S
C968 H959 0.929 . S
C968 C960 1.378 . S
C968 C963 1.350 . S
C969 H956 0.929 . S
C969 C961 1.433 . S
C969 N971 1.384 . S
N970 C966 1.427 . S
N970 C967 1.384 . S
N971 C963 1.427 . S
N971 C969 1.384 . S
H972 C978 0.930 . S
H973 C982 0.930 . S
H974 C987 0.929 . S
H975 C985 0.929 . S
H976 C980 0.929 . S
H977 C986 0.929 . S
C978 H972 0.930 . S
C978 C979 1.367 . S
C978 C986 1.378 . S
C979 C978 1.367 . S
C979 C987 1.433 . S
C980 H976 0.929 . S
C980 C982 1.378 1_565 S
C980 C984 1.350 . S
C981 C984 1.463 . S
C981 C986 1.350 . S
C981 N989 1.427 . S
C982 H973 0.930 . S
C982 C980 1.378 1_545 S
C982 C983 1.367 . S
C983 C982 1.367 . S
C983 C985 1.433 . S
C984 C980 1.350 . S
C984 C981 1.463 . S
C984 N988 1.427 . S
C985 H975 0.929 . S
C985 C983 1.433 . S
C985 N988 1.384 1_545 S
C986 H977 0.929 . S
C986 C978 1.378 . S
C986 C981 1.350 . S
C987 H974 0.929 . S
C987 C979 1.433 . S
C987 N989 1.384 . S
N988 C984 1.427 . S
N988 C985 1.384 1_565 S
N989 C981 1.427 . S
N989 C987 1.384 . S
H990 C996 0.930 . S
H991 C1000 0.930 . S
H992 C1005 0.929 . S
H993 C1003 0.929 . S
H994 C998 0.929 . S
H995 C1004 0.929 . S
C996 H990 0.930 . S
C996 C997 1.367 . S
C996 C1004 1.378 . S
C997 C996 1.367 . S
C997 C1005 1.433 . S
C998 H994 0.929 . S
C998 C1000 1.378 . S
C998 C1002 1.350 . S
C999 C1002 1.463 . S
C999 C1004 1.350 . S
C999 N1007 1.427 . S
C1000 H991 0.930 . S
C1000 C998 1.378 . S
C1000 C1001 1.367 . S
C1001 C1000 1.367 . S
C1001 C1003 1.433 . S
C1002 C998 1.350 . S
C1002 C999 1.463 . S
C1002 N1006 1.427 . S
C1003 H993 0.929 . S
C1003 C1001 1.433 . S
C1003 N1006 1.384 . S
C1004 H995 0.929 . S
C1004 C996 1.378 . S
C1004 C999 1.350 . S
C1005 H992 0.929 . S
C1005 C997 1.433 . S
C1005 N1007 1.384 . S
N1006 C1002 1.427 . S
N1006 C1003 1.384 . S
N1007 C999 1.427 . S
N1007 C1005 1.384 . S
H1008 C1014 0.930 . S
H1009 C1018 0.930 . S
H1010 C1023 0.929 . S
H1011 C1021 0.929 . S
H1012 C1016 0.929 . S
H1013 C1022 0.929 . S
C1014 H1008 0.930 . S
C1014 C1015 1.367 . S
C1014 C1022 1.378 . S
C1015 C1014 1.367 . S
C1015 C1023 1.433 . S
C1016 H1012 0.929 . S
C1016 C1018 1.378 . S
C1016 C1020 1.350 . S
C1017 C1020 1.463 . S
C1017 C1022 1.350 . S
C1017 N1025 1.427 . S
C1018 H1009 0.930 . S
C1018 C1016 1.378 . S
C1018 C1019 1.367 . S
C1019 C1018 1.367 . S
C1019 C1021 1.433 . S
C1020 C1016 1.350 . S
C1020 C1017 1.463 . S
C1020 N1024 1.427 . S
C1021 H1011 0.929 . S
C1021 C1019 1.433 . S
C1021 N1024 1.384 . S
C1022 H1013 0.929 . S
C1022 C1014 1.378 . S
C1022 C1017 1.350 . S
C1023 H1010 0.929 . S
C1023 C1015 1.433 . S
C1023 N1025 1.384 . S
N1024 C1020 1.427 . S
N1024 C1021 1.384 . S
N1025 C1017 1.427 . S
N1025 C1023 1.384 . S
H1026 C1032 0.930 . S
H1027 C1036 0.930 . S
H1028 C1041 0.929 . S
H1029 C1039 0.929 . S
H1030 C1034 0.929 . S
H1031 C1040 0.929 . S
C1032 H1026 0.930 . S
C1032 C1033 1.367 . S
C1032 C1040 1.378 . S
C1033 C1032 1.367 . S
C1033 C1041 1.433 . S
C1034 H1030 0.929 . S
C1034 C1036 1.378 . S
C1034 C1038 1.350 . S
C1035 C1038 1.463 . S
C1035 C1040 1.350 . S
C1035 N1043 1.427 . S
C1036 H1027 0.930 . S
C1036 C1034 1.378 . S
C1036 C1037 1.367 . S
C1037 C1036 1.367 . S
C1037 C1039 1.433 . S
C1038 C1034 1.350 . S
C1038 C1035 1.463 . S
C1038 N1042 1.427 . S
C1039 H1029 0.929 . S
C1039 C1037 1.433 . S
C1039 N1042 1.384 . S
C1040 H1031 0.929 . S
C1040 C1032 1.378 . S
C1040 C1035 1.350 . S
C1041 H1028 0.929 . S
C1041 C1033 1.433 . S
C1041 N1043 1.384 . S
N1042 C1038 1.427 . S
N1042 C1039 1.384 . S
N1043 C1035 1.427 . S
N1043 C1041 1.384 . S
H1044 C1050 0.930 . S
H1045 C1054 0.930 . S
H1046 C1059 0.929 . S
H1047 C1057 0.929 . S
H1048 C1052 0.929 . S
H1049 C1058 0.929 . S
C1050 H1044 0.930 . S
C1050 C1051 1.367 . S
C1050 C1058 1.378 . S
C1051 C1050 1.367 . S
C1051 C1059 1.433 . S
C1052 H1048 0.929 . S
C1052 C1054 1.378 . S
C1052 C1056 1.350 . S
C1053 C1056 1.463 1_565 S
C1053 C1058 1.350 . S
C1053 N1061 1.427 . S
C1054 H1045 0.930 . S
C1054 C1052 1.378 . S
C1054 C1055 1.367 . S
C1055 C1054 1.367 . S
C1055 C1057 1.433 . S
C1056 C1052 1.350 . S
C1056 C1053 1.463 1_545 S
C1056 N1060 1.427 . S
C1057 H1047 0.929 . S
C1057 C1055 1.433 . S
C1057 N1060 1.384 . S
C1058 H1049 0.929 . S
C1058 C1050 1.378 . S
C1058 C1053 1.350 . S
C1059 H1046 0.929 . S
C1059 C1051 1.433 . S
C1059 N1061 1.384 . S
N1060 C1056 1.427 . S
N1060 C1057 1.384 . S
N1061 C1053 1.427 . S
N1061 C1059 1.384 . S
H1062 C1068 0.930 . S
H1063 C1072 0.930 . S
H1064 C1077 0.929 . S
H1065 C1075 0.929 . S
H1066 C1070 0.929 . S
H1067 C1076 0.929 . S
C1068 H1062 0.930 . S
C1068 C1069 1.367 . S
C1068 C1076 1.378 . S
C1069 C1068 1.367 . S
C1069 C1077 1.433 . S
C1070 H1066 0.929 . S
C1070 C1072 1.378 . S
C1070 C1074 1.350 . S
C1071 C1074 1.463 . S
C1071 C1076 1.350 . S
C1071 N1079 1.427 . S
C1072 H1063 0.930 . S
C1072 C1070 1.378 . S
C1072 C1073 1.367 . S
C1073 C1072 1.367 . S
C1073 C1075 1.433 . S
C1074 C1070 1.350 . S
C1074 C1071 1.463 . S
C1074 N1078 1.427 . S
C1075 H1065 0.929 . S
C1075 C1073 1.433 . S
C1075 N1078 1.384 . S
C1076 H1067 0.929 . S
C1076 C1068 1.378 . S
C1076 C1071 1.350 . S
C1077 H1064 0.929 . S
C1077 C1069 1.433 . S
C1077 N1079 1.384 . S
N1078 C1074 1.427 . S
N1078 C1075 1.384 . S
N1079 C1071 1.427 . S
N1079 C1077 1.384 . S
H1080 C1086 0.930 . S
H1081 C1090 0.930 . S
H1082 C1095 0.929 . S
H1083 C1093 0.929 . S
H1084 C1088 0.929 . S
H1085 C1094 0.929 . S
C1086 H1080 0.930 . S
C1086 C1087 1.367 . S
C1086 C1094 1.378 . S
C1087 C1086 1.367 . S
C1087 C1095 1.433 . S
C1088 H1084 0.929 . S
C1088 C1090 1.378 . S
C1088 C1092 1.350 . S
C1089 C1092 1.463 . S
C1089 C1094 1.350 . S
C1089 N1097 1.427 . S
C1090 H1081 0.930 . S
C1090 C1088 1.378 . S
C1090 C1091 1.367 . S
C1091 C1090 1.367 . S
C1091 C1093 1.433 . S
C1092 C1088 1.350 . S
C1092 C1089 1.463 . S
C1092 N1096 1.427 . S
C1093 H1083 0.929 . S
C1093 C1091 1.433 . S
C1093 N1096 1.384 . S
C1094 H1085 0.929 . S
C1094 C1086 1.378 . S
C1094 C1089 1.350 . S
C1095 H1082 0.929 . S
C1095 C1087 1.433 . S
C1095 N1097 1.384 . S
N1096 C1092 1.427 . S
N1096 C1093 1.384 . S
N1097 C1089 1.427 . S
N1097 C1095 1.384 . S
H1098 C1104 0.930 . S
H1099 C1108 0.930 1_455 S
H1100 C1113 0.929 . S
H1101 C1111 0.929 . S
H1102 C1106 0.929 . S
H1103 C1112 0.929 . S
C1104 H1098 0.930 . S
C1104 C1105 1.367 . S
C1104 C1112 1.378 . S
C1105 C1104 1.367 . S
C1105 C1113 1.433 . S
C1106 H1102 0.929 . S
C1106 C1108 1.378 . S
C1106 C1110 1.350 . S
C1107 C1110 1.463 . S
C1107 C1112 1.350 . S
C1107 N1115 1.427 . S
C1108 H1099 0.930 1_655 S
C1108 C1106 1.378 . S
C1108 C1109 1.367 . S
C1109 C1108 1.367 . S
C1109 C1111 1.433 . S
C1110 C1106 1.350 . S
C1110 C1107 1.463 . S
C1110 N1114 1.427 . S
C1111 H1101 0.929 . S
C1111 C1109 1.433 . S
C1111 N1114 1.384 . S
C1112 H1103 0.929 . S
C1112 C1104 1.378 . S
C1112 C1107 1.350 . S
C1113 H1100 0.929 . S
C1113 C1105 1.433 . S
C1113 N1115 1.384 . S
N1114 C1110 1.427 . S
N1114 C1111 1.384 . S
N1115 C1107 1.427 . S
N1115 C1113 1.384 . S
H1116 C1122 0.930 . S
H1117 C1126 0.930 . S
H1118 C1131 0.929 . S
H1119 C1129 0.929 . S
H1120 C1124 0.929 . S
H1121 C1130 0.929 . S
C1122 H1116 0.930 . S
C1122 C1123 1.367 . S
C1122 C1130 1.378 . S
C1123 C1122 1.367 . S
C1123 C1131 1.433 . S
C1124 H1120 0.929 . S
C1124 C1126 1.378 . S
C1124 C1128 1.350 . S
C1125 C1128 1.463 . S
C1125 C1130 1.350 . S
C1125 N1133 1.427 . S
C1126 H1117 0.930 . S
C1126 C1124 1.378 . S
C1126 C1127 1.367 . S
C1127 C1126 1.367 . S
C1127 C1129 1.433 . S
C1128 C1124 1.350 . S
C1128 C1125 1.463 . S
C1128 N1132 1.427 . S
C1129 H1119 0.929 . S
C1129 C1127 1.433 . S
C1129 N1132 1.384 . S
C1130 H1121 0.929 . S
C1130 C1122 1.378 . S
C1130 C1125 1.350 . S
C1131 H1118 0.929 . S
C1131 C1123 1.433 . S
C1131 N1133 1.384 . S
N1132 C1128 1.427 . S
N1132 C1129 1.384 . S
N1133 C1125 1.427 . S
N1133 C1131 1.384 . S
H1134 C1140 0.930 . S
H1135 C1144 0.930 . S
H1136 C1149 0.929 . S
H1137 C1147 0.929 . S
H1138 C1142 0.929 . S
H1139 C1148 0.929 . S
C1140 H1134 0.930 . S
C1140 C1141 1.367 . S
C1140 C1148 1.378 . S
C1141 C1140 1.367 . S
C1141 C1149 1.433 . S
C1142 H1138 0.929 . S
C1142 C1144 1.378 . S
C1142 C1146 1.350 . S
C1143 C1146 1.463 . S
C1143 C1148 1.350 . S
C1143 N1151 1.427 . S
C1144 H1135 0.930 . S
C1144 C1142 1.378 . S
C1144 C1145 1.367 . S
C1145 C1144 1.367 . S
C1145 C1147 1.433 . S
C1146 C1142 1.350 . S
C1146 C1143 1.463 . S
C1146 N1150 1.427 . S
C1147 H1137 0.929 . S
C1147 C1145 1.433 . S
C1147 N1150 1.384 . S
C1148 H1139 0.929 . S
C1148 C1140 1.378 . S
C1148 C1143 1.350 . S
C1149 H1136 0.929 . S
C1149 C1141 1.433 . S
C1149 N1151 1.384 . S
N1150 C1146 1.427 . S
N1150 C1147 1.384 . S
N1151 C1143 1.427 . S
N1151 C1149 1.384 . S
H1152 C1158 0.930 . S
H1153 C1162 0.930 . S
H1154 C1167 0.929 . S
H1155 C1165 0.929 . S
H1156 C1160 0.929 . S
H1157 C1166 0.929 . S
C1158 H1152 0.930 . S
C1158 C1159 1.367 . S
C1158 C1166 1.378 . S
C1159 C1158 1.367 . S
C1159 C1167 1.433 . S
C1160 H1156 0.929 . S
C1160 C1162 1.378 . S
C1160 C1164 1.350 . S
C1161 C1164 1.463 . S
C1161 C1166 1.350 . S
C1161 N1169 1.427 . S
C1162 H1153 0.930 . S
C1162 C1160 1.378 . S
C1162 C1163 1.367 . S
C1163 C1162 1.367 . S
C1163 C1165 1.433 . S
C1164 C1160 1.350 . S
C1164 C1161 1.463 . S
C1164 N1168 1.427 . S
C1165 H1155 0.929 . S
C1165 C1163 1.433 . S
C1165 N1168 1.384 . S
C1166 H1157 0.929 . S
C1166 C1158 1.378 . S
C1166 C1161 1.350 . S
C1167 H1154 0.929 . S
C1167 C1159 1.433 . S
C1167 N1169 1.384 . S
N1168 C1164 1.427 . S
N1168 C1165 1.384 . S
N1169 C1161 1.427 . S
N1169 C1167 1.384 . S
H1170 C1176 0.930 . S
H1171 C1180 0.930 1_455 S
H1172 C1185 0.929 . S
H1173 C1183 0.929 . S
H1174 C1178 0.929 . S
H1175 C1184 0.929 . S
C1176 H1170 0.930 . S
C1176 C1177 1.367 . S
C1176 C1184 1.378 . S
C1177 C1176 1.367 . S
C1177 C1185 1.433 . S
C1178 H1174 0.929 . S
C1178 C1180 1.378 . S
C1178 C1182 1.350 . S
C1179 C1182 1.463 . S
C1179 C1184 1.350 . S
C1179 N1187 1.427 . S
C1180 H1171 0.930 1_655 S
C1180 C1178 1.378 . S
C1180 C1181 1.367 1_655 S
C1181 C1180 1.367 1_455 S
C1181 C1183 1.433 1_455 S
C1182 C1178 1.350 . S
C1182 C1179 1.463 . S
C1182 N1186 1.427 . S
C1183 H1173 0.929 . S
C1183 C1181 1.433 1_655 S
C1183 N1186 1.384 . S
C1184 H1175 0.929 . S
C1184 C1176 1.378 . S
C1184 C1179 1.350 . S
C1185 H1172 0.929 . S
C1185 C1177 1.433 . S
C1185 N1187 1.384 . S
N1186 C1182 1.427 . S
N1186 C1183 1.384 . S
N1187 C1179 1.427 . S
N1187 C1185 1.384 . S
H1188 C1194 0.930 . S
H1189 C1198 0.930 . S
H1190 C1203 0.929 . S
H1191 C1201 0.929 . S
H1192 C1196 0.929 . S
H1193 C1202 0.929 . S
C1194 H1188 0.930 . S
C1194 C1195 1.367 . S
C1194 C1202 1.378 . S
C1195 C1194 1.367 . S
C1195 C1203 1.433 . S
C1196 H1192 0.929 . S
C1196 C1198 1.378 . S
C1196 C1200 1.350 . S
C1197 C1200 1.463 . S
C1197 C1202 1.350 . S
C1197 N1205 1.427 . S
C1198 H1189 0.930 . S
C1198 C1196 1.378 . S
C1198 C1199 1.367 . S
C1199 C1198 1.367 . S
C1199 C1201 1.433 . S
C1200 C1196 1.350 . S
C1200 C1197 1.463 . S
C1200 N1204 1.427 . S
C1201 H1191 0.929 . S
C1201 C1199 1.433 . S
C1201 N1204 1.384 . S
C1202 H1193 0.929 . S
C1202 C1194 1.378 . S
C1202 C1197 1.350 . S
C1203 H1190 0.929 . S
C1203 C1195 1.433 . S
C1203 N1205 1.384 . S
N1204 C1200 1.427 . S
N1204 C1201 1.384 . S
N1205 C1197 1.427 . S
N1205 C1203 1.384 . S
H1206 C1212 0.930 . S
H1207 C1216 0.930 . S
H1208 C1221 0.929 . S
H1209 C1219 0.929 . S
H1210 C1214 0.929 . S
H1211 C1220 0.929 . S
C1212 H1206 0.930 . S
C1212 C1213 1.367 . S
C1212 C1220 1.378 . S
C1213 C1212 1.367 . S
C1213 C1221 1.433 . S
C1214 H1210 0.929 . S
C1214 C1216 1.378 . S
C1214 C1218 1.350 . S
C1215 C1218 1.463 . S
C1215 C1220 1.350 . S
C1215 N1223 1.427 . S
C1216 H1207 0.930 . S
C1216 C1214 1.378 . S
C1216 C1217 1.367 . S
C1217 C1216 1.367 . S
C1217 C1219 1.433 . S
C1218 C1214 1.350 . S
C1218 C1215 1.463 . S
C1218 N1222 1.427 . S
C1219 H1209 0.929 . S
C1219 C1217 1.433 . S
C1219 N1222 1.384 . S
C1220 H1211 0.929 . S
C1220 C1212 1.378 . S
C1220 C1215 1.350 . S
C1221 H1208 0.929 . S
C1221 C1213 1.433 . S
C1221 N1223 1.384 . S
N1222 C1218 1.427 . S
N1222 C1219 1.384 . S
N1223 C1215 1.427 . S
N1223 C1221 1.384 . S
H1224 C1230 0.930 . S
H1225 C1234 0.930 . S
H1226 C1239 0.929 . S
H1227 C1237 0.929 . S
H1228 C1232 0.929 . S
H1229 C1238 0.929 . S
C1230 H1224 0.930 . S
C1230 C1231 1.367 . S
C1230 C1238 1.378 . S
C1231 C1230 1.367 . S
C1231 C1239 1.433 . S
C1232 H1228 0.929 . S
C1232 C1234 1.378 1_655 S
C1232 C1236 1.350 . S
C1233 C1236 1.463 . S
C1233 C1238 1.350 . S
C1233 N1241 1.427 . S
C1234 H1225 0.930 . S
C1234 C1232 1.378 1_455 S
C1234 C1235 1.367 . S
C1235 C1234 1.367 . S
C1235 C1237 1.433 . S
C1236 C1232 1.350 . S
C1236 C1233 1.463 . S
C1236 N1240 1.427 1_655 S
C1237 H1227 0.929 . S
C1237 C1235 1.433 . S
C1237 N1240 1.384 . S
C1238 H1229 0.929 . S
C1238 C1230 1.378 . S
C1238 C1233 1.350 . S
C1239 H1226 0.929 . S
C1239 C1231 1.433 . S
C1239 N1241 1.384 . S
N1240 C1236 1.427 1_455 S
N1240 C1237 1.384 . S
N1241 C1233 1.427 . S
N1241 C1239 1.384 . S
H1242 C1248 0.930 . S
H1243 C1252 0.930 . S
H1244 C1257 0.929 . S
H1245 C1255 0.929 . S
H1246 C1250 0.929 . S
H1247 C1256 0.929 . S
C1248 H1242 0.930 . S
C1248 C1249 1.367 . S
C1248 C1256 1.378 . S
C1249 C1248 1.367 . S
C1249 C1257 1.433 . S
C1250 H1246 0.929 . S
C1250 C1252 1.378 . S
C1250 C1254 1.350 . S
C1251 C1254 1.463 . S
C1251 C1256 1.350 . S
C1251 N1259 1.427 . S
C1252 H1243 0.930 . S
C1252 C1250 1.378 . S
C1252 C1253 1.367 . S
C1253 C1252 1.367 . S
C1253 C1255 1.433 . S
C1254 C1250 1.350 . S
C1254 C1251 1.463 . S
C1254 N1258 1.427 . S
C1255 H1245 0.929 . S
C1255 C1253 1.433 . S
C1255 N1258 1.384 . S
C1256 H1247 0.929 . S
C1256 C1248 1.378 . S
C1256 C1251 1.350 . S
C1257 H1244 0.929 . S
C1257 C1249 1.433 . S
C1257 N1259 1.384 . S
N1258 C1254 1.427 . S
N1258 C1255 1.384 . S
N1259 C1251 1.427 . S
N1259 C1257 1.384 . S
H1260 C1266 0.930 . S
H1261 C1270 0.930 . S
H1262 C1275 0.929 . S
H1263 C1273 0.929 . S
H1264 C1268 0.929 . S
H1265 C1274 0.929 . S
C1266 H1260 0.930 . S
C1266 C1267 1.367 . S
C1266 C1274 1.378 . S
C1267 C1266 1.367 . S
C1267 C1275 1.433 . S
C1268 H1264 0.929 . S
C1268 C1270 1.378 . S
C1268 C1272 1.350 . S
C1269 C1272 1.463 . S
C1269 C1274 1.350 . S
C1269 N1277 1.427 . S
C1270 H1261 0.930 . S
C1270 C1268 1.378 . S
C1270 C1271 1.367 . S
C1271 C1270 1.367 . S
C1271 C1273 1.433 . S
C1272 C1268 1.350 . S
C1272 C1269 1.463 . S
C1272 N1276 1.427 . S
C1273 H1263 0.929 . S
C1273 C1271 1.433 . S
C1273 N1276 1.384 . S
C1274 H1265 0.929 . S
C1274 C1266 1.378 . S
C1274 C1269 1.350 . S
C1275 H1262 0.929 . S
C1275 C1267 1.433 . S
C1275 N1277 1.384 . S
N1276 C1272 1.427 . S
N1276 C1273 1.384 . S
N1277 C1269 1.427 . S
N1277 C1275 1.384 . S
H1278 C1284 0.930 . S
H1279 C1288 0.930 . S
H1280 C1293 0.929 . S
H1281 C1291 0.929 . S
H1282 C1286 0.929 . S
H1283 C1292 0.929 . S
C1284 H1278 0.930 . S
C1284 C1285 1.367 . S
C1284 C1292 1.378 . S
C1285 C1284 1.367 . S
C1285 C1293 1.433 . S
C1286 H1282 0.929 . S
C1286 C1288 1.378 . S
C1286 C1290 1.350 . S
C1287 C1290 1.463 . S
C1287 C1292 1.350 . S
C1287 N1295 1.427 . S
C1288 H1279 0.930 . S
C1288 C1286 1.378 . S
C1288 C1289 1.367 . S
C1289 C1288 1.367 . S
C1289 C1291 1.433 . S
C1290 C1286 1.350 . S
C1290 C1287 1.463 . S
C1290 N1294 1.427 . S
C1291 H1281 0.929 . S
C1291 C1289 1.433 . S
C1291 N1294 1.384 . S
C1292 H1283 0.929 . S
C1292 C1284 1.378 . S
C1292 C1287 1.350 . S
C1293 H1280 0.929 . S
C1293 C1285 1.433 . S
C1293 N1295 1.384 . S
N1294 C1290 1.427 . S
N1294 C1291 1.384 . S
N1295 C1287 1.427 . S
N1295 C1293 1.384 . S
H1296 C1302 0.930 . S
H1297 C1306 0.930 . S
H1298 C1311 0.929 . S
H1299 C1309 0.929 . S
H1300 C1304 0.929 . S
H1301 C1310 0.929 1_655 S
C1302 H1296 0.930 . S
C1302 C1303 1.367 1_655 S
C1302 C1310 1.378 1_655 S
C1303 C1302 1.367 1_455 S
C1303 C1311 1.433 . S
C1304 H1300 0.929 . S
C1304 C1306 1.378 . S
C1304 C1308 1.350 . S
C1305 C1308 1.463 . S
C1305 C1310 1.350 . S
C1305 N1313 1.427 . S
C1306 H1297 0.930 . S
C1306 C1304 1.378 . S
C1306 C1307 1.367 . S
C1307 C1306 1.367 . S
C1307 C1309 1.433 . S
C1308 C1304 1.350 . S
C1308 C1305 1.463 . S
C1308 N1312 1.427 . S
C1309 H1299 0.929 . S
C1309 C1307 1.433 . S
C1309 N1312 1.384 . S
C1310 H1301 0.929 1_455 S
C1310 C1302 1.378 1_455 S
C1310 C1305 1.350 . S
C1311 H1298 0.929 . S
C1311 C1303 1.433 . S
C1311 N1313 1.384 . S
N1312 C1308 1.427 . S
N1312 C1309 1.384 . S
N1313 C1305 1.427 . S
N1313 C1311 1.384 . S
H1314 C1320 0.930 . S
H1315 C1324 0.930 . S
H1316 C1329 0.929 . S
H1317 C1327 0.929 . S
H1318 C1322 0.929 . S
H1319 C1328 0.929 . S
C1320 H1314 0.930 . S
C1320 C1321 1.367 . S
C1320 C1328 1.378 . S
C1321 C1320 1.367 . S
C1321 C1329 1.433 . S
C1322 H1318 0.929 . S
C1322 C1324 1.378 . S
C1322 C1326 1.350 . S
C1323 C1326 1.463 . S
C1323 C1328 1.350 . S
C1323 N1331 1.427 . S
C1324 H1315 0.930 . S
C1324 C1322 1.378 . S
C1324 C1325 1.367 . S
C1325 C1324 1.367 . S
C1325 C1327 1.433 . S
C1326 C1322 1.350 . S
C1326 C1323 1.463 . S
C1326 N1330 1.427 . S
C1327 H1317 0.929 . S
C1327 C1325 1.433 . S
C1327 N1330 1.384 . S
C1328 H1319 0.929 . S
C1328 C1320 1.378 . S
C1328 C1323 1.350 . S
C1329 H1316 0.929 . S
C1329 C1321 1.433 . S
C1329 N1331 1.384 . S
N1330 C1326 1.427 . S
N1330 C1327 1.384 . S
N1331 C1323 1.427 . S
N1331 C1329 1.384 . S
H1332 C1338 0.930 . S
H1333 C1342 0.930 . S
H1334 C1347 0.929 . S
H1335 C1345 0.929 . S
H1336 C1340 0.929 . S
H1337 C1346 0.929 . S
C1338 H1332 0.930 . S
C1338 C1339 1.367 . S
C1338 C1346 1.378 . S
C1339 C1338 1.367 . S
C1339 C1347 1.433 . S
C1340 H1336 0.929 . S
C1340 C1342 1.378 . S
C1340 C1344 1.350 . S
C1341 C1344 1.463 . S
C1341 C1346 1.350 . S
C1341 N1349 1.427 . S
C1342 H1333 0.930 . S
C1342 C1340 1.378 . S
C1342 C1343 1.367 . S
C1343 C1342 1.367 . S
C1343 C1345 1.433 . S
C1344 C1340 1.350 . S
C1344 C1341 1.463 . S
C1344 N1348 1.427 . S
C1345 H1335 0.929 . S
C1345 C1343 1.433 . S
C1345 N1348 1.384 . S
C1346 H1337 0.929 . S
C1346 C1338 1.378 . S
C1346 C1341 1.350 . S
C1347 H1334 0.929 . S
C1347 C1339 1.433 . S
C1347 N1349 1.384 . S
N1348 C1344 1.427 . S
N1348 C1345 1.384 . S
N1349 C1341 1.427 . S
N1349 C1347 1.384 . S
H1350 C1356 0.930 . S
H1351 C1360 0.930 . S
H1352 C1365 0.929 . S
H1353 C1363 0.929 . S
H1354 C1358 0.929 . S
H1355 C1364 0.929 . S
C1356 H1350 0.930 . S
C1356 C1357 1.367 . S
C1356 C1364 1.378 . S
C1357 C1356 1.367 . S
C1357 C1365 1.433 . S
C1358 H1354 0.929 . S
C1358 C1360 1.378 . S
C1358 C1362 1.350 . S
C1359 C1362 1.463 . S
C1359 C1364 1.350 . S
C1359 N1367 1.427 . S
C1360 H1351 0.930 . S
C1360 C1358 1.378 . S
C1360 C1361 1.367 . S
C1361 C1360 1.367 . S
C1361 C1363 1.433 . S
C1362 C1358 1.350 . S
C1362 C1359 1.463 . S
C1362 N1366 1.427 . S
C1363 H1353 0.929 . S
C1363 C1361 1.433 . S
C1363 N1366 1.384 . S
C1364 H1355 0.929 . S
C1364 C1356 1.378 . S
C1364 C1359 1.350 . S
C1365 H1352 0.929 . S
C1365 C1357 1.433 . S
C1365 N1367 1.384 . S
N1366 C1362 1.427 . S
N1366 C1363 1.384 . S
N1367 C1359 1.427 . S
N1367 C1365 1.384 . S
H1368 C1374 0.930 . S
H1369 C1378 0.930 . S
H1370 C1383 0.929 . S
H1371 C1381 0.929 . S
H1372 C1376 0.929 . S
H1373 C1382 0.929 . S
C1374 H1368 0.930 . S
C1374 C1375 1.367 . S
C1374 C1382 1.378 . S
C1375 C1374 1.367 . S
C1375 C1383 1.433 . S
C1376 H1372 0.929 . S
C1376 C1378 1.378 . S
C1376 C1380 1.350 . S
C1377 C1380 1.463 . S
C1377 C1382 1.350 . S
C1377 N1385 1.427 . S
C1378 H1369 0.930 . S
C1378 C1376 1.378 . S
C1378 C1379 1.367 . S
C1379 C1378 1.367 . S
C1379 C1381 1.433 . S
C1380 C1376 1.350 . S
C1380 C1377 1.463 . S
C1380 N1384 1.427 . S
C1381 H1371 0.929 . S
C1381 C1379 1.433 . S
C1381 N1384 1.384 . S
C1382 H1373 0.929 . S
C1382 C1374 1.378 . S
C1382 C1377 1.350 . S
C1383 H1370 0.929 . S
C1383 C1375 1.433 . S
C1383 N1385 1.384 . S
N1384 C1380 1.427 . S
N1384 C1381 1.384 . S
N1385 C1377 1.427 . S
N1385 C1383 1.384 . S
H1386 C1392 0.930 . S
H1387 C1396 0.930 . S
H1388 C1401 0.929 . S
H1389 C1399 0.929 . S
H1390 C1394 0.929 . S
H1391 C1400 0.929 . S
C1392 H1386 0.930 . S
C1392 C1393 1.367 . S
C1392 C1400 1.378 . S
C1393 C1392 1.367 . S
C1393 C1401 1.433 . S
C1394 H1390 0.929 . S
C1394 C1396 1.378 . S
C1394 C1398 1.350 . S
C1395 C1398 1.463 . S
C1395 C1400 1.350 . S
C1395 N1403 1.427 . S
C1396 H1387 0.930 . S
C1396 C1394 1.378 . S
C1396 C1397 1.367 . S
C1397 C1396 1.367 . S
C1397 C1399 1.433 . S
C1398 C1394 1.350 . S
C1398 C1395 1.463 . S
C1398 N1402 1.427 . S
C1399 H1389 0.929 . S
C1399 C1397 1.433 . S
C1399 N1402 1.384 . S
C1400 H1391 0.929 . S
C1400 C1392 1.378 . S
C1400 C1395 1.350 . S
C1401 H1388 0.929 . S
C1401 C1393 1.433 . S
C1401 N1403 1.384 . S
N1402 C1398 1.427 . S
N1402 C1399 1.384 . S
N1403 C1395 1.427 . S
N1403 C1401 1.384 . S
H1404 C1410 0.930 . S
H1405 C1414 0.930 . S
H1406 C1419 0.929 . S
H1407 C1417 0.929 1_655 S
H1408 C1412 0.929 . S
H1409 C1418 0.929 . S
C1410 H1404 0.930 . S
C1410 C1411 1.367 1_655 S
C1410 C1418 1.378 . S
C1411 C1410 1.367 1_455 S
C1411 C1419 1.433 . S
C1412 H1408 0.929 . S
C1412 C1414 1.378 . S
C1412 C1416 1.350 . S
C1413 C1416 1.463 . S
C1413 C1418 1.350 1_455 S
C1413 N1421 1.427 . S
C1414 H1405 0.930 . S
C1414 C1412 1.378 . S
C1414 C1415 1.367 . S
C1415 C1414 1.367 . S
C1415 C1417 1.433 . S
C1416 C1412 1.350 . S
C1416 C1413 1.463 . S
C1416 N1420 1.427 . S
C1417 H1407 0.929 1_455 S
C1417 C1415 1.433 . S
C1417 N1420 1.384 . S
C1418 H1409 0.929 . S
C1418 C1410 1.378 . S
C1418 C1413 1.350 1_655 S
C1419 H1406 0.929 . S
C1419 C1411 1.433 . S
C1419 N1421 1.384 . S
N1420 C1416 1.427 . S
N1420 C1417 1.384 . S
N1421 C1413 1.427 . S
N1421 C1419 1.384 . S
H1422 C1428 0.930 . S
H1423 C1432 0.930 . S
H1424 C1437 0.929 . S
H1425 C1435 0.929 . S
H1426 C1430 0.929 . S
H1427 C1436 0.929 . S
C1428 H1422 0.930 . S
C1428 C1429 1.367 . S
C1428 C1436 1.378 . S
C1429 C1428 1.367 . S
C1429 C1437 1.433 . S
C1430 H1426 0.929 . S
C1430 C1432 1.378 . S
C1430 C1434 1.350 . S
C1431 C1434 1.463 . S
C1431 C1436 1.350 . S
C1431 N1439 1.427 . S
C1432 H1423 0.930 . S
C1432 C1430 1.378 . S
C1432 C1433 1.367 . S
C1433 C1432 1.367 . S
C1433 C1435 1.433 . S
C1434 C1430 1.350 . S
C1434 C1431 1.463 . S
C1434 N1438 1.427 . S
C1435 H1425 0.929 . S
C1435 C1433 1.433 . S
C1435 N1438 1.384 . S
C1436 H1427 0.929 . S
C1436 C1428 1.378 . S
C1436 C1431 1.350 . S
C1437 H1424 0.929 . S
C1437 C1429 1.433 . S
C1437 N1439 1.384 . S
N1438 C1434 1.427 . S
N1438 C1435 1.384 . S
N1439 C1431 1.427 . S
N1439 C1437 1.384 . S
H1440 C1446 0.930 . S
H1441 C1450 0.930 . S
H1442 C1455 0.929 . S
H1443 C1453 0.929 . S
H1444 C1448 0.929 . S
H1445 C1454 0.929 . S
C1446 H1440 0.930 . S
C1446 C1447 1.367 . S
C1446 C1454 1.378 . S
C1447 C1446 1.367 . S
C1447 C1455 1.433 . S
C1448 H1444 0.929 . S
C1448 C1450 1.378 . S
C1448 C1452 1.350 . S
C1449 C1452 1.463 . S
C1449 C1454 1.350 . S
C1449 N1457 1.427 . S
C1450 H1441 0.930 . S
C1450 C1448 1.378 . S
C1450 C1451 1.367 . S
C1451 C1450 1.367 . S
C1451 C1453 1.433 . S
C1452 C1448 1.350 . S
C1452 C1449 1.463 . S
C1452 N1456 1.427 . S
C1453 H1443 0.929 . S
C1453 C1451 1.433 . S
C1453 N1456 1.384 . S
C1454 H1445 0.929 . S
C1454 C1446 1.378 . S
C1454 C1449 1.350 . S
C1455 H1442 0.929 . S
C1455 C1447 1.433 . S
C1455 N1457 1.384 . S
N1456 C1452 1.427 . S
N1456 C1453 1.384 . S
N1457 C1449 1.427 . S
N1457 C1455 1.384 . S
H1458 C1464 0.930 . S
H1459 C1468 0.930 . S
H1460 C1473 0.929 . S
H1461 C1471 0.929 . S
H1462 C1466 0.929 . S
H1463 C1472 0.929 . S
C1464 H1458 0.930 . S
C1464 C1465 1.367 . S
C1464 C1472 1.378 . S
C1465 C1464 1.367 . S
C1465 C1473 1.433 . S
C1466 H1462 0.929 . S
C1466 C1468 1.378 . S
C1466 C1470 1.350 . S
C1467 C1470 1.463 . S
C1467 C1472 1.350 . S
C1467 N1475 1.427 . S
C1468 H1459 0.930 . S
C1468 C1466 1.378 . S
C1468 C1469 1.367 . S
C1469 C1468 1.367 . S
C1469 C1471 1.433 . S
C1470 C1466 1.350 . S
C1470 C1467 1.463 . S
C1470 N1474 1.427 . S
C1471 H1461 0.929 . S
C1471 C1469 1.433 . S
C1471 N1474 1.384 . S
C1472 H1463 0.929 . S
C1472 C1464 1.378 . S
C1472 C1467 1.350 . S
C1473 H1460 0.929 . S
C1473 C1465 1.433 . S
C1473 N1475 1.384 . S
N1474 C1470 1.427 . S
N1474 C1471 1.384 . S
N1475 C1467 1.427 . S
N1475 C1473 1.384 . S
H1476 C1482 0.930 . S
H1477 C1486 0.930 . S
H1478 C1491 0.929 . S
H1479 C1489 0.929 . S
H1480 C1484 0.929 . S
H1481 C1490 0.929 . S
C1482 H1476 0.930 . S
C1482 C1483 1.367 . S
C1482 C1490 1.378 . S
C1483 C1482 1.367 . S
C1483 C1491 1.433 . S
C1484 H1480 0.929 . S
C1484 C1486 1.378 . S
C1484 C1488 1.350 . S
C1485 C1488 1.463 . S
C1485 C1490 1.350 . S
C1485 N1493 1.427 . S
C1486 H1477 0.930 . S
C1486 C1484 1.378 . S
C1486 C1487 1.367 . S
C1487 C1486 1.367 . S
C1487 C1489 1.433 . S
C1488 C1484 1.350 . S
C1488 C1485 1.463 . S
C1488 N1492 1.427 . S
C1489 H1479 0.929 . S
C1489 C1487 1.433 . S
C1489 N1492 1.384 . S
C1490 H1481 0.929 . S
C1490 C1482 1.378 . S
C1490 C1485 1.350 . S
C1491 H1478 0.929 . S
C1491 C1483 1.433 . S
C1491 N1493 1.384 . S
N1492 C1488 1.427 . S
N1492 C1489 1.384 . S
N1493 C1485 1.427 . S
N1493 C1491 1.384 . S
H1494 C1500 0.930 . S
H1495 C1504 0.930 . S
H1496 C1509 0.929 . S
H1497 C1507 0.929 . S
H1498 C1502 0.929 . S
H1499 C1508 0.929 . S
C1500 H1494 0.930 . S
C1500 C1501 1.367 . S
C1500 C1508 1.378 . S
C1501 C1500 1.367 . S
C1501 C1509 1.433 . S
C1502 H1498 0.929 . S
C1502 C1504 1.378 . S
C1502 C1506 1.350 . S
C1503 C1506 1.463 . S
C1503 C1508 1.350 . S
C1503 N1511 1.427 . S
C1504 H1495 0.930 . S
C1504 C1502 1.378 . S
C1504 C1505 1.367 . S
C1505 C1504 1.367 . S
C1505 C1507 1.433 . S
C1506 C1502 1.350 . S
C1506 C1503 1.463 . S
C1506 N1510 1.427 . S
C1507 H1497 0.929 . S
C1507 C1505 1.433 . S
C1507 N1510 1.384 . S
C1508 H1499 0.929 . S
C1508 C1500 1.378 . S
C1508 C1503 1.350 . S
C1509 H1496 0.929 . S
C1509 C1501 1.433 . S
C1509 N1511 1.384 . S
N1510 C1506 1.427 . S
N1510 C1507 1.384 . S
N1511 C1503 1.427 . S
N1511 C1509 1.384 . S
H1512 C1518 0.930 . S
H1513 C1522 0.930 . S
H1514 C1527 0.929 . S
H1515 C1525 0.929 . S
H1516 C1520 0.929 . S
H1517 C1526 0.929 . S
C1518 H1512 0.930 . S
C1518 C1519 1.367 . S
C1518 C1526 1.378 . S
C1519 C1518 1.367 . S
C1519 C1527 1.433 . S
C1520 H1516 0.929 . S
C1520 C1522 1.378 . S
C1520 C1524 1.350 . S
C1521 C1524 1.463 . S
C1521 C1526 1.350 . S
C1521 N1529 1.427 . S
C1522 H1513 0.930 . S
C1522 C1520 1.378 . S
C1522 C1523 1.367 . S
C1523 C1522 1.367 . S
C1523 C1525 1.433 . S
C1524 C1520 1.350 . S
C1524 C1521 1.463 . S
C1524 N1528 1.427 . S
C1525 H1515 0.929 . S
C1525 C1523 1.433 . S
C1525 N1528 1.384 . S
C1526 H1517 0.929 . S
C1526 C1518 1.378 . S
C1526 C1521 1.350 . S
C1527 H1514 0.929 . S
C1527 C1519 1.433 . S
C1527 N1529 1.384 . S
N1528 C1524 1.427 . S
N1528 C1525 1.384 . S
N1529 C1521 1.427 . S
N1529 C1527 1.384 . S
H1530 C1536 0.930 . S
H1531 C1540 0.930 . S
H1532 C1545 0.929 . S
H1533 C1543 0.929 . S
H1534 C1538 0.929 . S
H1535 C1544 0.929 . S
C1536 H1530 0.930 . S
C1536 C1537 1.367 . S
C1536 C1544 1.378 . S
C1537 C1536 1.367 . S
C1537 C1545 1.433 . S
C1538 H1534 0.929 . S
C1538 C1540 1.378 . S
C1538 C1542 1.350 . S
C1539 C1542 1.463 . S
C1539 C1544 1.350 . S
C1539 N1547 1.427 . S
C1540 H1531 0.930 . S
C1540 C1538 1.378 . S
C1540 C1541 1.367 . S
C1541 C1540 1.367 . S
C1541 C1543 1.433 . S
C1542 C1538 1.350 . S
C1542 C1539 1.463 . S
C1542 N1546 1.427 . S
C1543 H1533 0.929 . S
C1543 C1541 1.433 . S
C1543 N1546 1.384 . S
C1544 H1535 0.929 . S
C1544 C1536 1.378 . S
C1544 C1539 1.350 . S
C1545 H1532 0.929 . S
C1545 C1537 1.433 . S
C1545 N1547 1.384 . S
N1546 C1542 1.427 . S
N1546 C1543 1.384 . S
N1547 C1539 1.427 . S
N1547 C1545 1.384 . S
H1548 C1554 0.930 . S
H1549 C1558 0.930 . S
H1550 C1563 0.929 . S
H1551 C1561 0.929 . S
H1552 C1556 0.929 . S
H1553 C1562 0.929 . S
C1554 H1548 0.930 . S
C1554 C1555 1.367 . S
C1554 C1562 1.378 . S
C1555 C1554 1.367 . S
C1555 C1563 1.433 . S
C1556 H1552 0.929 . S
C1556 C1558 1.378 . S
C1556 C1560 1.350 . S
C1557 C1560 1.463 . S
C1557 C1562 1.350 . S
C1557 N1565 1.427 . S
C1558 H1549 0.930 . S
C1558 C1556 1.378 . S
C1558 C1559 1.367 . S
C1559 C1558 1.367 . S
C1559 C1561 1.433 . S
C1560 C1556 1.350 . S
C1560 C1557 1.463 . S
C1560 N1564 1.427 . S
C1561 H1551 0.929 . S
C1561 C1559 1.433 . S
C1561 N1564 1.384 . S
C1562 H1553 0.929 . S
C1562 C1554 1.378 . S
C1562 C1557 1.350 . S
C1563 H1550 0.929 . S
C1563 C1555 1.433 . S
C1563 N1565 1.384 . S
N1564 C1560 1.427 . S
N1564 C1561 1.384 . S
N1565 C1557 1.427 . S
N1565 C1563 1.384 . S
H1566 C1572 0.930 . S
H1567 C1576 0.930 . S
H1568 C1581 0.929 . S
H1569 C1579 0.929 . S
H1570 C1574 0.929 1_556 S
H1571 C1580 0.929 1_554 S
C1572 H1566 0.930 . S
C1572 C1573 1.367 . S
C1572 C1580 1.378 . S
C1573 C1572 1.367 . S
C1573 C1581 1.433 . S
C1574 H1570 0.929 1_554 S
C1574 C1576 1.378 . S
C1574 C1578 1.350 . S
C1575 C1578 1.463 1_556 S
C1575 C1580 1.350 . S
C1575 N1583 1.427 . S
C1576 H1567 0.930 . S
C1576 C1574 1.378 . S
C1576 C1577 1.367 . S
C1577 C1576 1.367 . S
C1577 C1579 1.433 . S
C1578 C1574 1.350 . S
C1578 C1575 1.463 1_554 S
C1578 N1582 1.427 . S
C1579 H1569 0.929 . S
C1579 C1577 1.433 . S
C1579 N1582 1.384 . S
C1580 H1571 0.929 1_556 S
C1580 C1572 1.378 . S
C1580 C1575 1.350 . S
C1581 H1568 0.929 . S
C1581 C1573 1.433 . S
C1581 N1583 1.384 . S
N1582 C1578 1.427 . S
N1582 C1579 1.384 . S
N1583 C1575 1.427 . S
N1583 C1581 1.384 . S
H1584 C1590 0.930 . S
H1585 C1594 0.930 . S
H1586 C1599 0.929 . S
H1587 C1597 0.929 . S
H1588 C1592 0.929 . S
H1589 C1598 0.929 . S
C1590 H1584 0.930 . S
C1590 C1591 1.367 . S
C1590 C1598 1.378 . S
C1591 C1590 1.367 . S
C1591 C1599 1.433 . S
C1592 H1588 0.929 . S
C1592 C1594 1.378 . S
C1592 C1596 1.350 1_554 S
C1593 C1596 1.463 . S
C1593 C1598 1.350 . S
C1593 N1601 1.427 . S
C1594 H1585 0.930 . S
C1594 C1592 1.378 . S
C1594 C1595 1.367 . S
C1595 C1594 1.367 . S
C1595 C1597 1.433 . S
C1596 C1592 1.350 1_556 S
C1596 C1593 1.463 . S
C1596 N1600 1.427 . S
C1597 H1587 0.929 . S
C1597 C1595 1.433 . S
C1597 N1600 1.384 1_554 S
C1598 H1589 0.929 . S
C1598 C1590 1.378 . S
C1598 C1593 1.350 . S
C1599 H1586 0.929 . S
C1599 C1591 1.433 . S
C1599 N1601 1.384 . S
N1600 C1596 1.427 . S
N1600 C1597 1.384 1_556 S
N1601 C1593 1.427 . S
N1601 C1599 1.384 . S
H1602 C1608 0.930 . S
H1603 C1612 0.930 . S
H1604 C1617 0.929 . S
H1605 C1615 0.929 . S
H1606 C1610 0.929 . S
H1607 C1616 0.929 . S
C1608 H1602 0.930 . S
C1608 C1609 1.367 . S
C1608 C1616 1.378 . S
C1609 C1608 1.367 . S
C1609 C1617 1.433 . S
C1610 H1606 0.929 . S
C1610 C1612 1.378 . S
C1610 C1614 1.350 . S
C1611 C1614 1.463 1_556 S
C1611 C1616 1.350 . S
C1611 N1619 1.427 . S
C1612 H1603 0.930 . S
C1612 C1610 1.378 . S
C1612 C1613 1.367 . S
C1613 C1612 1.367 . S
C1613 C1615 1.433 . S
C1614 C1610 1.350 . S
C1614 C1611 1.463 1_554 S
C1614 N1618 1.427 . S
C1615 H1605 0.929 . S
C1615 C1613 1.433 . S
C1615 N1618 1.384 . S
C1616 H1607 0.929 . S
C1616 C1608 1.378 . S
C1616 C1611 1.350 . S
C1617 H1604 0.929 . S
C1617 C1609 1.433 . S
C1617 N1619 1.384 . S
N1618 C1614 1.427 . S
N1618 C1615 1.384 . S
N1619 C1611 1.427 . S
N1619 C1617 1.384 . S
H1620 C1626 0.930 . S
H1621 C1630 0.930 . S
H1622 C1635 0.929 . S
H1623 C1633 0.929 . S
H1624 C1628 0.929 . S
H1625 C1634 0.929 . S
C1626 H1620 0.930 . S
C1626 C1627 1.367 . S
C1626 C1634 1.378 . S
C1627 C1626 1.367 . S
C1627 C1635 1.433 . S
C1628 H1624 0.929 . S
C1628 C1630 1.378 . S
C1628 C1632 1.350 . S
C1629 C1632 1.463 . S
C1629 C1634 1.350 . S
C1629 N1637 1.427 . S
C1630 H1621 0.930 . S
C1630 C1628 1.378 . S
C1630 C1631 1.367 . S
C1631 C1630 1.367 . S
C1631 C1633 1.433 . S
C1632 C1628 1.350 . S
C1632 C1629 1.463 . S
C1632 N1636 1.427 . S
C1633 H1623 0.929 . S
C1633 C1631 1.433 . S
C1633 N1636 1.384 . S
C1634 H1625 0.929 . S
C1634 C1626 1.378 . S
C1634 C1629 1.350 . S
C1635 H1622 0.929 . S
C1635 C1627 1.433 . S
C1635 N1637 1.384 . S
N1636 C1632 1.427 . S
N1636 C1633 1.384 . S
N1637 C1629 1.427 . S
N1637 C1635 1.384 . S
H1638 C1644 0.930 . S
H1639 C1648 0.930 . S
H1640 C1653 0.929 . S
H1641 C1651 0.929 . S
H1642 C1646 0.929 . S
H1643 C1652 0.929 . S
C1644 H1638 0.930 . S
C1644 C1645 1.367 . S
C1644 C1652 1.378 . S
C1645 C1644 1.367 . S
C1645 C1653 1.433 . S
C1646 H1642 0.929 . S
C1646 C1648 1.378 . S
C1646 C1650 1.350 . S
C1647 C1650 1.463 . S
C1647 C1652 1.350 . S
C1647 N1655 1.427 . S
C1648 H1639 0.930 . S
C1648 C1646 1.378 . S
C1648 C1649 1.367 . S
C1649 C1648 1.367 . S
C1649 C1651 1.433 . S
C1650 C1646 1.350 . S
C1650 C1647 1.463 . S
C1650 N1654 1.427 . S
C1651 H1641 0.929 . S
C1651 C1649 1.433 . S
C1651 N1654 1.384 . S
C1652 H1643 0.929 . S
C1652 C1644 1.378 . S
C1652 C1647 1.350 . S
C1653 H1640 0.929 . S
C1653 C1645 1.433 . S
C1653 N1655 1.384 . S
N1654 C1650 1.427 . S
N1654 C1651 1.384 . S
N1655 C1647 1.427 . S
N1655 C1653 1.384 . S
H1656 C1662 0.930 . S
H1657 C1666 0.930 . S
H1658 C1671 0.929 . S
H1659 C1669 0.929 . S
H1660 C1664 0.929 . S
H1661 C1670 0.929 . S
C1662 H1656 0.930 . S
C1662 C1663 1.367 . S
C1662 C1670 1.378 . S
C1663 C1662 1.367 . S
C1663 C1671 1.433 . S
C1664 H1660 0.929 . S
C1664 C1666 1.378 . S
C1664 C1668 1.350 . S
C1665 C1668 1.463 . S
C1665 C1670 1.350 . S
C1665 N1673 1.427 . S
C1666 H1657 0.930 . S
C1666 C1664 1.378 . S
C1666 C1667 1.367 . S
C1667 C1666 1.367 . S
C1667 C1669 1.433 . S
C1668 C1664 1.350 . S
C1668 C1665 1.463 . S
C1668 N1672 1.427 . S
C1669 H1659 0.929 . S
C1669 C1667 1.433 . S
C1669 N1672 1.384 . S
C1670 H1661 0.929 . S
C1670 C1662 1.378 . S
C1670 C1665 1.350 . S
C1671 H1658 0.929 . S
C1671 C1663 1.433 . S
C1671 N1673 1.384 . S
N1672 C1668 1.427 . S
N1672 C1669 1.384 . S
N1673 C1665 1.427 . S
N1673 C1671 1.384 . S
H1674 C1680 0.930 . S
H1675 C1684 0.930 . S
H1676 C1689 0.929 . S
H1677 C1687 0.929 . S
H1678 C1682 0.929 . S
H1679 C1688 0.929 . S
C1680 H1674 0.930 . S
C1680 C1681 1.367 . S
C1680 C1688 1.378 . S
C1681 C1680 1.367 . S
C1681 C1689 1.433 . S
C1682 H1678 0.929 . S
C1682 C1684 1.378 . S
C1682 C1686 1.350 . S
C1683 C1686 1.463 . S
C1683 C1688 1.350 . S
C1683 N1691 1.427 . S
C1684 H1675 0.930 . S
C1684 C1682 1.378 . S
C1684 C1685 1.367 . S
C1685 C1684 1.367 . S
C1685 C1687 1.433 . S
C1686 C1682 1.350 . S
C1686 C1683 1.463 . S
C1686 N1690 1.427 . S
C1687 H1677 0.929 . S
C1687 C1685 1.433 . S
C1687 N1690 1.384 . S
C1688 H1679 0.929 . S
C1688 C1680 1.378 . S
C1688 C1683 1.350 . S
C1689 H1676 0.929 . S
C1689 C1681 1.433 . S
C1689 N1691 1.384 . S
N1690 C1686 1.427 . S
N1690 C1687 1.384 . S
N1691 C1683 1.427 . S
N1691 C1689 1.384 . S
H1692 C1698 0.930 . S
H1693 C1702 0.930 . S
H1694 C1707 0.929 . S
H1695 C1705 0.929 . S
H1696 C1700 0.929 . S
H1697 C1706 0.929 . S
C1698 H1692 0.930 . S
C1698 C1699 1.367 . S
C1698 C1706 1.378 . S
C1699 C1698 1.367 . S
C1699 C1707 1.433 . S
C1700 H1696 0.929 . S
C1700 C1702 1.378 . S
C1700 C1704 1.350 . S
C1701 C1704 1.463 . S
C1701 C1706 1.350 . S
C1701 N1709 1.427 . S
C1702 H1693 0.930 . S
C1702 C1700 1.378 . S
C1702 C1703 1.367 . S
C1703 C1702 1.367 . S
C1703 C1705 1.433 . S
C1704 C1700 1.350 . S
C1704 C1701 1.463 . S
C1704 N1708 1.427 . S
C1705 H1695 0.929 . S
C1705 C1703 1.433 . S
C1705 N1708 1.384 . S
C1706 H1697 0.929 . S
C1706 C1698 1.378 . S
C1706 C1701 1.350 . S
C1707 H1694 0.929 . S
C1707 C1699 1.433 . S
C1707 N1709 1.384 . S
N1708 C1704 1.427 . S
N1708 C1705 1.384 . S
N1709 C1701 1.427 . S
N1709 C1707 1.384 . S
H1710 C1716 0.930 . S
H1711 C1720 0.930 . S
H1712 C1725 0.929 . S
H1713 C1723 0.929 . S
H1714 C1718 0.929 . S
H1715 C1724 0.929 . S
C1716 H1710 0.930 . S
C1716 C1717 1.367 . S
C1716 C1724 1.378 . S
C1717 C1716 1.367 . S
C1717 C1725 1.433 . S
C1718 H1714 0.929 . S
C1718 C1720 1.378 . S
C1718 C1722 1.350 . S
C1719 C1722 1.463 . S
C1719 C1724 1.350 . S
C1719 N1727 1.427 . S
C1720 H1711 0.930 . S
C1720 C1718 1.378 . S
C1720 C1721 1.367 . S
C1721 C1720 1.367 . S
C1721 C1723 1.433 . S
C1722 C1718 1.350 . S
C1722 C1719 1.463 . S
C1722 N1726 1.427 . S
C1723 H1713 0.929 . S
C1723 C1721 1.433 . S
C1723 N1726 1.384 . S
C1724 H1715 0.929 . S
C1724 C1716 1.378 . S
C1724 C1719 1.350 . S
C1725 H1712 0.929 . S
C1725 C1717 1.433 . S
C1725 N1727 1.384 . S
N1726 C1722 1.427 . S
N1726 C1723 1.384 . S
N1727 C1719 1.427 . S
N1727 C1725 1.384 . S
H1728 C1734 0.930 . S
H1729 C1738 0.930 . S
H1730 C1743 0.929 . S
H1731 C1741 0.929 . S
H1732 C1736 0.929 . S
H1733 C1742 0.929 . S
C1734 H1728 0.930 . S
C1734 C1735 1.367 . S
C1734 C1742 1.378 . S
C1735 C1734 1.367 . S
C1735 C1743 1.433 . S
C1736 H1732 0.929 . S
C1736 C1738 1.378 . S
C1736 C1740 1.350 . S
C1737 C1740 1.463 . S
C1737 C1742 1.350 . S
C1737 N1745 1.427 . S
C1738 H1729 0.930 . S
C1738 C1736 1.378 . S
C1738 C1739 1.367 . S
C1739 C1738 1.367 . S
C1739 C1741 1.433 . S
C1740 C1736 1.350 . S
C1740 C1737 1.463 . S
C1740 N1744 1.427 . S
C1741 H1731 0.929 . S
C1741 C1739 1.433 . S
C1741 N1744 1.384 . S
C1742 H1733 0.929 . S
C1742 C1734 1.378 . S
C1742 C1737 1.350 . S
C1743 H1730 0.929 . S
C1743 C1735 1.433 . S
C1743 N1745 1.384 . S
N1744 C1740 1.427 . S
N1744 C1741 1.384 . S
N1745 C1737 1.427 . S
N1745 C1743 1.384 . S
H1746 C1752 0.930 . S
H1747 C1756 0.930 . S
H1748 C1761 0.929 . S
H1749 C1759 0.929 . S
H1750 C1754 0.929 . S
H1751 C1760 0.929 . S
C1752 H1746 0.930 . S
C1752 C1753 1.367 . S
C1752 C1760 1.378 . S
C1753 C1752 1.367 . S
C1753 C1761 1.433 . S
C1754 H1750 0.929 . S
C1754 C1756 1.378 . S
C1754 C1758 1.350 . S
C1755 C1758 1.463 . S
C1755 C1760 1.350 . S
C1755 N1763 1.427 . S
C1756 H1747 0.930 . S
C1756 C1754 1.378 . S
C1756 C1757 1.367 . S
C1757 C1756 1.367 . S
C1757 C1759 1.433 . S
C1758 C1754 1.350 . S
C1758 C1755 1.463 . S
C1758 N1762 1.427 . S
C1759 H1749 0.929 . S
C1759 C1757 1.433 . S
C1759 N1762 1.384 . S
C1760 H1751 0.929 . S
C1760 C1752 1.378 . S
C1760 C1755 1.350 . S
C1761 H1748 0.929 . S
C1761 C1753 1.433 . S
C1761 N1763 1.384 . S
N1762 C1758 1.427 . S
N1762 C1759 1.384 . S
N1763 C1755 1.427 . S
N1763 C1761 1.384 . S
H1764 C1770 0.930 . S
H1765 C1774 0.930 . S
H1766 C1779 0.929 . S
H1767 C1777 0.929 . S
H1768 C1772 0.929 . S
H1769 C1778 0.929 . S
C1770 H1764 0.930 . S
C1770 C1771 1.367 . S
C1770 C1778 1.378 . S
C1771 C1770 1.367 . S
C1771 C1779 1.433 . S
C1772 H1768 0.929 . S
C1772 C1774 1.378 . S
C1772 C1776 1.350 . S
C1773 C1776 1.463 . S
C1773 C1778 1.350 . S
C1773 N1781 1.427 . S
C1774 H1765 0.930 . S
C1774 C1772 1.378 . S
C1774 C1775 1.367 . S
C1775 C1774 1.367 . S
C1775 C1777 1.433 . S
C1776 C1772 1.350 . S
C1776 C1773 1.463 . S
C1776 N1780 1.427 . S
C1777 H1767 0.929 . S
C1777 C1775 1.433 . S
C1777 N1780 1.384 . S
C1778 H1769 0.929 . S
C1778 C1770 1.378 . S
C1778 C1773 1.350 . S
C1779 H1766 0.929 . S
C1779 C1771 1.433 . S
C1779 N1781 1.384 . S
N1780 C1776 1.427 . S
N1780 C1777 1.384 . S
N1781 C1773 1.427 . S
N1781 C1779 1.384 . S
H1782 C1788 0.930 . S
H1783 C1792 0.930 . S
H1784 C1797 0.929 . S
H1785 C1795 0.929 . S
H1786 C1790 0.929 . S
H1787 C1796 0.929 . S
C1788 H1782 0.930 . S
C1788 C1789 1.367 . S
C1788 C1796 1.378 . S
C1789 C1788 1.367 . S
C1789 C1797 1.433 . S
C1790 H1786 0.929 . S
C1790 C1792 1.378 . S
C1790 C1794 1.350 . S
C1791 C1794 1.463 . S
C1791 C1796 1.350 . S
C1791 N1799 1.427 . S
C1792 H1783 0.930 . S
C1792 C1790 1.378 . S
C1792 C1793 1.367 . S
C1793 C1792 1.367 . S
C1793 C1795 1.433 . S
C1794 C1790 1.350 . S
C1794 C1791 1.463 . S
C1794 N1798 1.427 . S
C1795 H1785 0.929 . S
C1795 C1793 1.433 . S
C1795 N1798 1.384 . S
C1796 H1787 0.929 . S
C1796 C1788 1.378 . S
C1796 C1791 1.350 . S
C1797 H1784 0.929 . S
C1797 C1789 1.433 . S
C1797 N1799 1.384 . S
N1798 C1794 1.427 . S
N1798 C1795 1.384 . S
N1799 C1791 1.427 . S
N1799 C1797 1.384 . S
H1800 C1806 0.930 . S
H1801 C1810 0.930 . S
H1802 C1815 0.929 . S
H1803 C1813 0.929 . S
H1804 C1808 0.929 . S
H1805 C1814 0.929 . S
C1806 H1800 0.930 . S
C1806 C1807 1.367 . S
C1806 C1814 1.378 . S
C1807 C1806 1.367 . S
C1807 C1815 1.433 . S
C1808 H1804 0.929 . S
C1808 C1810 1.378 . S
C1808 C1812 1.350 . S
C1809 C1812 1.463 . S
C1809 C1814 1.350 . S
C1809 N1817 1.427 . S
C1810 H1801 0.930 . S
C1810 C1808 1.378 . S
C1810 C1811 1.367 . S
C1811 C1810 1.367 . S
C1811 C1813 1.433 . S
C1812 C1808 1.350 . S
C1812 C1809 1.463 . S
C1812 N1816 1.427 . S
C1813 H1803 0.929 . S
C1813 C1811 1.433 . S
C1813 N1816 1.384 . S
C1814 H1805 0.929 . S
C1814 C1806 1.378 . S
C1814 C1809 1.350 . S
C1815 H1802 0.929 . S
C1815 C1807 1.433 . S
C1815 N1817 1.384 . S
N1816 C1812 1.427 . S
N1816 C1813 1.384 . S
N1817 C1809 1.427 . S
N1817 C1815 1.384 . S
H1818 C1824 0.930 . S
H1819 C1828 0.930 . S
H1820 C1833 0.929 . S
H1821 C1831 0.929 . S
H1822 C1826 0.929 . S
H1823 C1832 0.929 . S
C1824 H1818 0.930 . S
C1824 C1825 1.367 . S
C1824 C1832 1.378 . S
C1825 C1824 1.367 . S
C1825 C1833 1.433 . S
C1826 H1822 0.929 . S
C1826 C1828 1.378 . S
C1826 C1830 1.350 . S
C1827 C1830 1.463 . S
C1827 C1832 1.350 . S
C1827 N1835 1.427 . S
C1828 H1819 0.930 . S
C1828 C1826 1.378 . S
C1828 C1829 1.367 . S
C1829 C1828 1.367 . S
C1829 C1831 1.433 . S
C1830 C1826 1.350 . S
C1830 C1827 1.463 . S
C1830 N1834 1.427 . S
C1831 H1821 0.929 . S
C1831 C1829 1.433 . S
C1831 N1834 1.384 . S
C1832 H1823 0.929 . S
C1832 C1824 1.378 . S
C1832 C1827 1.350 . S
C1833 H1820 0.929 . S
C1833 C1825 1.433 . S
C1833 N1835 1.384 . S
N1834 C1830 1.427 . S
N1834 C1831 1.384 . S
N1835 C1827 1.427 . S
N1835 C1833 1.384 . S
H1836 C1842 0.930 . S
H1837 C1846 0.930 . S
H1838 C1851 0.929 . S
H1839 C1849 0.929 . S
H1840 C1844 0.929 . S
H1841 C1850 0.929 . S
C1842 H1836 0.930 . S
C1842 C1843 1.367 . S
C1842 C1850 1.378 . S
C1843 C1842 1.367 . S
C1843 C1851 1.433 . S
C1844 H1840 0.929 . S
C1844 C1846 1.378 . S
C1844 C1848 1.350 . S
C1845 C1848 1.463 . S
C1845 C1850 1.350 . S
C1845 N1853 1.427 . S
C1846 H1837 0.930 . S
C1846 C1844 1.378 . S
C1846 C1847 1.367 . S
C1847 C1846 1.367 . S
C1847 C1849 1.433 . S
C1848 C1844 1.350 . S
C1848 C1845 1.463 . S
C1848 N1852 1.427 . S
C1849 H1839 0.929 . S
C1849 C1847 1.433 . S
C1849 N1852 1.384 . S
C1850 H1841 0.929 . S
C1850 C1842 1.378 . S
C1850 C1845 1.350 . S
C1851 H1838 0.929 . S
C1851 C1843 1.433 . S
C1851 N1853 1.384 . S
N1852 C1848 1.427 . S
N1852 C1849 1.384 . S
N1853 C1845 1.427 . S
N1853 C1851 1.384 . S
H1854 C1860 0.930 . S
H1855 C1864 0.930 . S
H1856 C1869 0.929 . S
H1857 C1867 0.929 . S
H1858 C1862 0.929 . S
H1859 C1868 0.929 . S
C1860 H1854 0.930 . S
C1860 C1861 1.367 . S
C1860 C1868 1.378 . S
C1861 C1860 1.367 . S
C1861 C1869 1.433 . S
C1862 H1858 0.929 . S
C1862 C1864 1.378 . S
C1862 C1866 1.350 . S
C1863 C1866 1.463 . S
C1863 C1868 1.350 . S
C1863 N1871 1.427 . S
C1864 H1855 0.930 . S
C1864 C1862 1.378 . S
C1864 C1865 1.367 . S
C1865 C1864 1.367 . S
C1865 C1867 1.433 . S
C1866 C1862 1.350 . S
C1866 C1863 1.463 . S
C1866 N1870 1.427 . S
C1867 H1857 0.929 . S
C1867 C1865 1.433 . S
C1867 N1870 1.384 . S
C1868 H1859 0.929 . S
C1868 C1860 1.378 . S
C1868 C1863 1.350 . S
C1869 H1856 0.929 . S
C1869 C1861 1.433 . S
C1869 N1871 1.384 . S
N1870 C1866 1.427 . S
N1870 C1867 1.384 . S
N1871 C1863 1.427 . S
N1871 C1869 1.384 . S
H1872 C1878 0.930 . S
H1873 C1882 0.930 . S
H1874 C1887 0.929 . S
H1875 C1885 0.929 . S
H1876 C1880 0.929 . S
H1877 C1886 0.929 . S
C1878 H1872 0.930 . S
C1878 C1879 1.367 . S
C1878 C1886 1.378 . S
C1879 C1878 1.367 . S
C1879 C1887 1.433 . S
C1880 H1876 0.929 . S
C1880 C1882 1.378 . S
C1880 C1884 1.350 . S
C1881 C1884 1.463 . S
C1881 C1886 1.350 . S
C1881 N1889 1.427 . S
C1882 H1873 0.930 . S
C1882 C1880 1.378 . S
C1882 C1883 1.367 . S
C1883 C1882 1.367 . S
C1883 C1885 1.433 . S
C1884 C1880 1.350 . S
C1884 C1881 1.463 . S
C1884 N1888 1.427 . S
C1885 H1875 0.929 . S
C1885 C1883 1.433 . S
C1885 N1888 1.384 . S
C1886 H1877 0.929 . S
C1886 C1878 1.378 . S
C1886 C1881 1.350 . S
C1887 H1874 0.929 . S
C1887 C1879 1.433 . S
C1887 N1889 1.384 . S
N1888 C1884 1.427 . S
N1888 C1885 1.384 . S
N1889 C1881 1.427 . S
N1889 C1887 1.384 . S
H1890 C1896 0.930 . S
H1891 C1900 0.930 1_556 S
H1892 C1905 0.929 . S
H1893 C1903 0.929 . S
H1894 C1898 0.929 . S
H1895 C1904 0.929 . S
C1896 H1890 0.930 . S
C1896 C1897 1.367 . S
C1896 C1904 1.378 . S
C1897 C1896 1.367 . S
C1897 C1905 1.433 . S
C1898 H1894 0.929 . S
C1898 C1900 1.378 . S
C1898 C1902 1.350 . S
C1899 C1902 1.463 . S
C1899 C1904 1.350 . S
C1899 N1907 1.427 . S
C1900 H1891 0.930 1_554 S
C1900 C1898 1.378 . S
C1900 C1901 1.367 1_554 S
C1901 C1900 1.367 1_556 S
C1901 C1903 1.433 . S
C1902 C1898 1.350 . S
C1902 C1899 1.463 . S
C1902 N1906 1.427 . S
C1903 H1893 0.929 . S
C1903 C1901 1.433 . S
C1903 N1906 1.384 1_556 S
C1904 H1895 0.929 . S
C1904 C1896 1.378 . S
C1904 C1899 1.350 . S
C1905 H1892 0.929 . S
C1905 C1897 1.433 . S
C1905 N1907 1.384 . S
N1906 C1902 1.427 . S
N1906 C1903 1.384 1_554 S
N1907 C1899 1.427 . S
N1907 C1905 1.384 . S
H1908 C1914 0.930 . S
H1909 C1918 0.930 . S
H1910 C1923 0.929 . S
H1911 C1921 0.950 . S
H1912 C1916 0.929 . S
H1913 C1922 0.929 . S
C1914 H1908 0.930 . S
C1914 C1915 1.367 . S
C1914 C1922 1.378 . S
C1915 C1914 1.367 . S
C1915 C1923 1.433 . S
C1916 H1912 0.929 . S
C1916 C1918 1.378 . S
C1916 C1920 1.350 . S
C1917 C1920 1.463 . S
C1917 C1922 1.350 . S
C1917 N1925 1.427 . S
C1918 H1909 0.930 . S
C1918 C1916 1.378 . S
C1918 C1919 1.367 . S
C1919 C1918 1.367 . S
C1919 C1921 1.433 . S
C1920 C1916 1.350 . S
C1920 C1917 1.463 . S
C1920 N1924 1.427 . S
C1921 H1911 0.950 . S
C1921 C1919 1.433 . S
C1921 N1924 1.384 . S
C1922 H1913 0.929 . S
C1922 C1914 1.378 . S
C1922 C1917 1.350 . S
C1923 H1910 0.929 . S
C1923 C1915 1.433 . S
C1923 N1925 1.384 . S
N1924 C1920 1.427 . S
N1924 C1921 1.384 . S
N1925 C1917 1.427 . S
N1925 C1923 1.384 . S
H1926 C1932 0.930 . S
H1927 C1936 0.930 . S
H1928 C1941 0.929 . S
H1929 C1939 0.929 . S
H1930 C1934 0.929 . S
H1931 C1940 0.929 . S
C1932 H1926 0.930 . S
C1932 C1933 1.367 . S
C1932 C1940 1.378 . S
C1933 C1932 1.367 . S
C1933 C1941 1.433 . S
C1934 H1930 0.929 . S
C1934 C1936 1.378 1_554 S
C1934 C1938 1.350 . S
C1935 C1938 1.463 . S
C1935 C1940 1.350 . S
C1935 N1943 1.427 . S
C1936 H1927 0.930 . S
C1936 C1934 1.378 1_556 S
C1936 C1937 1.367 . S
C1937 C1936 1.367 . S
C1937 C1939 1.433 1_556 S
C1938 C1934 1.350 . S
C1938 C1935 1.463 . S
C1938 N1942 1.427 . S
C1939 H1929 0.929 . S
C1939 C1937 1.433 1_554 S
C1939 N1942 1.384 . S
C1940 H1931 0.929 . S
C1940 C1932 1.378 . S
C1940 C1935 1.350 . S
C1941 H1928 0.929 . S
C1941 C1933 1.433 . S
C1941 N1943 1.384 . S
N1942 C1938 1.427 . S
N1942 C1939 1.384 . S
N1943 C1935 1.427 . S
N1943 C1941 1.384 . S
C655 C7 1.553 . S
C659 C560 1.557 . S
C677 C534 1.853 . S
C673 C39 1.849 . S
C695 C547 1.681 . S
C691 C62 1.681 . S
C709 C76 1.861 . S
C713 C614 1.865 . S
C727 C108 1.494 . S
C731 C627 1.494 . S
C745 N117 1.367 . S
C749 C640 1.382 . S
C767 C600 1.441 . S
C763 C16 1.453 . S
C781 C30 1.777 . S
C785 C574 1.776 . S
C803 C588 1.484 . S
C799 C53 1.477 1_556 S
C817 C85 1.747 . S
C821 C497 1.745 . S
C839 C509 1.584 . S
C835 C99 1.582 . S
C853 N127 1.266 . S
C857 C523 1.302 . S
C871 N150 1.205 . S
C875 C638 1.232 . S
C893 C612 1.644 . S
C889 N173 1.594 . S
C911 C625 1.478 . S
C907 C200 1.480 . S
C925 C214 1.669 . S
C929 C458 1.676 . S
C943 N232 1.536 . S
C947 C471 1.553 . S
C961 C260 1.534 . S
C965 C484 1.539 1_565 S
C983 C444 1.297 . S
C979 N140 1.300 . S
C997 N163 1.392 . S
C1001 C424 1.393 . S
C1019 C430 1.542 . S
C1015 C191 1.540 . S
C1037 C573 1.796 . S
C1033 C223 1.800 . S
C1055 C593 1.428 . S
C1051 N242 1.389 . S
C1073 C599 1.460 . S
C1069 C269 1.468 . S
C1087 N288 1.333 . S
C1091 C482 1.356 . S
C1105 C315 1.584 . S
C1109 C456 1.583 1_655 S
C1123 C338 1.763 . S
C1127 C469 1.758 . S
C1141 C352 1.914 . S
C1145 C536 1.920 . S
C1163 C549 1.576 . S
C1159 N370 1.566 . S
C1181 C562 1.592 . S
C1177 C398 1.583 . S
C1199 C528 1.211 . S
C1195 N278 1.200 . S
C1213 C306 1.666 . S
C1217 C502 1.666 . S
C1231 C329 1.584 . S
C1235 C508 1.586 . S
C1253 C419 1.500 . S
C1249 C361 1.502 . S
C1267 N380 1.434 . S
C1271 C431 1.463 . S
C1289 C443 1.397 . S
C1285 C407 1.401 . S
C1307 C463 1.448 . S
C1303 N12 1.434 . S
C1321 N25 1.514 . S
C1325 C476 1.559 . S
C1343 C489 1.338 . S
C1339 N48 1.292 . S
C1361 C483 1.406 . S
C1357 N81 1.388 . S
C1379 C457 1.621 . S
C1375 N94 1.572 . S
C1397 C470 1.668 . S
C1393 C131 1.649 . S
C1415 C417 1.369 . S
C1411 N2 1.329 . S
C1429 N35 1.435 . S
C1433 C437 1.470 . S
C1447 N58 1.204 . S
C1451 C445 1.232 . S
C1469 C450 1.363 . S
C1465 N71 1.325 . S
C1487 C418 1.451 . S
C1483 N104 1.419 . S
C1505 C432 1.638 . S
C1501 C122 1.634 . S
C1519 C145 1.983 . S
C1523 C541 1.980 . S
C1537 C168 1.678 . S
C1541 C554 1.678 . S
C1555 N186 1.457 . S
C1559 C567 1.513 . S
C1577 C561 1.481 . S
C1573 N219 1.470 . S
C1595 C535 1.861 . S
C1591 C246 1.843 . S
C1613 C548 1.554 . S
C1609 N265 1.538 . S
C1631 C495 1.806 . S
C1627 C154 1.797 . S
C1645 C177 1.709 . S
C1649 C515 1.716 . S
C1663 N196 1.306 . S
C1667 C521 1.343 . S
C1681 N209 1.241 . S
C1685 C522 1.306 . S
C1699 C237 1.834 . S
C1703 C496 1.834 . S
C1721 C510 1.467 . S
C1717 N255 1.406 . S
C1735 C283 1.848 . S
C1739 C619 1.846 . S
C1753 N301 1.473 . S
C1757 C632 1.531 . S
C1771 N324 1.250 . S
C1775 C645 1.284 . S
C1793 C639 1.246 . S
C1789 N357 1.229 . S
C1811 C613 1.824 . S
C1807 C384 1.812 . S
C1825 N403 1.418 . S
C1829 C626 1.430 . S
C1843 C292 1.835 . S
C1847 C575 1.857 . S
C1865 C587 1.410 . S
C1861 N311 1.377 . S
C1879 N334 1.306 . S
C1883 C601 1.340 . S
C1897 N347 1.349 . S
C1901 C606 1.384 . S
C1919 C580 1.882 1_554 S
C1915 C375 1.884 . S
C1933 N393 1.382 . S
C1937 C586 1.437 . S
