# Generated by pormake.
# Topology gar, (4,6)-cn, num edge types: 1
# Building blocks:
#     Node 0, Type 0, BuildingBlock: AZAVOO_clean_sbu_0, # of connection points: 4
#     Node 1, Type 0, BuildingBlock: AZAVOO_clean_sbu_0, # of connection points: 4
#     Node 2, Type 0, BuildingBlock: AZAVOO_clean_sbu_0, # of connection points: 4
#     Node 3, Type 0, BuildingBlock: AZAVOO_clean_sbu_0, # of connection points: 4
#     Node 4, Type 0, BuildingBlock: AZAVOO_clean_sbu_0, # of connection points: 4
#     Node 5, Type 0, BuildingBlock: AZAVOO_clean_sbu_0, # of connection points: 4
#     Node 6, Type 0, BuildingBlock: AZAVOO_clean_sbu_0, # of connection points: 4
#     Node 7, Type 0, BuildingBlock: AZAVOO_clean_sbu_0, # of connection points: 4
#     Node 8, Type 0, BuildingBlock: AZAVOO_clean_sbu_0, # of connection points: 4
#     Node 9, Type 0, BuildingBlock: AZAVOO_clean_sbu_0, # of connection points: 4
#     Node 10, Type 0, BuildingBlock: AZAVOO_clean_sbu_0, # of connection points: 4
#     Node 11, Type 0, BuildingBlock: AZAVOO_clean_sbu_0, # of connection points: 4
#     Node 12, Type 0, BuildingBlock: AZAVOO_clean_sbu_0, # of connection points: 4
#     Node 13, Type 0, BuildingBlock: AZAVOO_clean_sbu_0, # of connection points: 4
#     Node 14, Type 0, BuildingBlock: AZAVOO_clean_sbu_0, # of connection points: 4
#     Node 15, Type 0, BuildingBlock: AZAVOO_clean_sbu_0, # of connection points: 4
#     Node 16, Type 0, BuildingBlock: AZAVOO_clean_sbu_0, # of connection points: 4
#     Node 17, Type 0, BuildingBlock: AZAVOO_clean_sbu_0, # of connection points: 4
#     Node 18, Type 0, BuildingBlock: AZAVOO_clean_sbu_0, # of connection points: 4
#     Node 19, Type 0, BuildingBlock: AZAVOO_clean_sbu_0, # of connection points: 4
#     Node 20, Type 0, BuildingBlock: AZAVOO_clean_sbu_0, # of connection points: 4
#     Node 21, Type 0, BuildingBlock: AZAVOO_clean_sbu_0, # of connection points: 4
#     Node 22, Type 0, BuildingBlock: AZAVOO_clean_sbu_0, # of connection points: 4
#     Node 23, Type 0, BuildingBlock: AZAVOO_clean_sbu_0, # of connection points: 4
#     Node 24, Type 1, BuildingBlock: BETGAK_clean_sbu_0, # of connection points: 6
#     Node 25, Type 1, BuildingBlock: BETGAK_clean_sbu_0, # of connection points: 6
#     Node 26, Type 1, BuildingBlock: BETGAK_clean_sbu_0, # of connection points: 6
#     Node 27, Type 1, BuildingBlock: BETGAK_clean_sbu_0, # of connection points: 6
#     Node 28, Type 1, BuildingBlock: BETGAK_clean_sbu_0, # of connection points: 6
#     Node 29, Type 1, BuildingBlock: BETGAK_clean_sbu_0, # of connection points: 6
#     Node 30, Type 1, BuildingBlock: BETGAK_clean_sbu_0, # of connection points: 6
#     Node 31, Type 1, BuildingBlock: BETGAK_clean_sbu_0, # of connection points: 6
#     Node 32, Type 1, BuildingBlock: BETGAK_clean_sbu_0, # of connection points: 6
#     Node 33, Type 1, BuildingBlock: BETGAK_clean_sbu_0, # of connection points: 6
#     Node 34, Type 1, BuildingBlock: BETGAK_clean_sbu_0, # of connection points: 6
#     Node 35, Type 1, BuildingBlock: BETGAK_clean_sbu_0, # of connection points: 6
#     Node 36, Type 1, BuildingBlock: BETGAK_clean_sbu_0, # of connection points: 6
#     Node 37, Type 1, BuildingBlock: BETGAK_clean_sbu_0, # of connection points: 6
#     Node 38, Type 1, BuildingBlock: BETGAK_clean_sbu_0, # of connection points: 6
#     Node 39, Type 1, BuildingBlock: BETGAK_clean_sbu_0, # of connection points: 6
#     Edge 40, Type (0, 1), BuildingBlock: CIFDUS_clean_linker_0, # of connection points: 2
#     Edge 41, Type (0, 1), BuildingBlock: CIFDUS_clean_linker_0, # of connection points: 2
#     Edge 42, Type (0, 1), BuildingBlock: CIFDUS_clean_linker_0, # of connection points: 2
#     Edge 43, Type (0, 1), BuildingBlock: CIFDUS_clean_linker_0, # of connection points: 2
#     Edge 44, Type (0, 1), BuildingBlock: CIFDUS_clean_linker_0, # of connection points: 2
#     Edge 45, Type (0, 1), BuildingBlock: CIFDUS_clean_linker_0, # of connection points: 2
#     Edge 46, Type (0, 1), BuildingBlock: CIFDUS_clean_linker_0, # of connection points: 2
#     Edge 47, Type (0, 1), BuildingBlock: CIFDUS_clean_linker_0, # of connection points: 2
#     Edge 48, Type (0, 1), BuildingBlock: CIFDUS_clean_linker_0, # of connection points: 2
#     Edge 49, Type (0, 1), BuildingBlock: CIFDUS_clean_linker_0, # of connection points: 2
#     Edge 50, Type (0, 1), BuildingBlock: CIFDUS_clean_linker_0, # of connection points: 2
#     Edge 51, Type (0, 1), BuildingBlock: CIFDUS_clean_linker_0, # of connection points: 2
#     Edge 52, Type (0, 1), BuildingBlock: CIFDUS_clean_linker_0, # of connection points: 2
#     Edge 53, Type (0, 1), BuildingBlock: CIFDUS_clean_linker_0, # of connection points: 2
#     Edge 54, Type (0, 1), BuildingBlock: CIFDUS_clean_linker_0, # of connection points: 2
#     Edge 55, Type (0, 1), BuildingBlock: CIFDUS_clean_linker_0, # of connection points: 2
#     Edge 56, Type (0, 1), BuildingBlock: CIFDUS_clean_linker_0, # of connection points: 2
#     Edge 57, Type (0, 1), BuildingBlock: CIFDUS_clean_linker_0, # of connection points: 2
#     Edge 58, Type (0, 1), BuildingBlock: CIFDUS_clean_linker_0, # of connection points: 2
#     Edge 59, Type (0, 1), BuildingBlock: CIFDUS_clean_linker_0, # of connection points: 2
#     Edge 60, Type (0, 1), BuildingBlock: CIFDUS_clean_linker_0, # of connection points: 2
#     Edge 61, Type (0, 1), BuildingBlock: CIFDUS_clean_linker_0, # of connection points: 2
#     Edge 62, Type (0, 1), BuildingBlock: CIFDUS_clean_linker_0, # of connection points: 2
#     Edge 63, Type (0, 1), BuildingBlock: CIFDUS_clean_linker_0, # of connection points: 2
#     Edge 64, Type (0, 1), BuildingBlock: CIFDUS_clean_linker_0, # of connection points: 2
#     Edge 65, Type (0, 1), BuildingBlock: CIFDUS_clean_linker_0, # of connection points: 2
#     Edge 66, Type (0, 1), BuildingBlock: CIFDUS_clean_linker_0, # of connection points: 2
#     Edge 67, Type (0, 1), BuildingBlock: CIFDUS_clean_linker_0, # of connection points: 2
#     Edge 68, Type (0, 1), BuildingBlock: CIFDUS_clean_linker_0, # of connection points: 2
#     Edge 69, Type (0, 1), BuildingBlock: CIFDUS_clean_linker_0, # of connection points: 2
#     Edge 70, Type (0, 1), BuildingBlock: CIFDUS_clean_linker_0, # of connection points: 2
#     Edge 71, Type (0, 1), BuildingBlock: CIFDUS_clean_linker_0, # of connection points: 2
#     Edge 72, Type (0, 1), BuildingBlock: CIFDUS_clean_linker_0, # of connection points: 2
#     Edge 73, Type (0, 1), BuildingBlock: CIFDUS_clean_linker_0, # of connection points: 2
#     Edge 74, Type (0, 1), BuildingBlock: CIFDUS_clean_linker_0, # of connection points: 2
#     Edge 75, Type (0, 1), BuildingBlock: CIFDUS_clean_linker_0, # of connection points: 2
#     Edge 76, Type (0, 1), BuildingBlock: CIFDUS_clean_linker_0, # of connection points: 2
#     Edge 77, Type (0, 1), BuildingBlock: CIFDUS_clean_linker_0, # of connection points: 2
#     Edge 78, Type (0, 1), BuildingBlock: CIFDUS_clean_linker_0, # of connection points: 2
#     Edge 79, Type (0, 1), BuildingBlock: CIFDUS_clean_linker_0, # of connection points: 2
#     Edge 80, Type (0, 1), BuildingBlock: CIFDUS_clean_linker_0, # of connection points: 2
#     Edge 81, Type (0, 1), BuildingBlock: CIFDUS_clean_linker_0, # of connection points: 2
#     Edge 82, Type (0, 1), BuildingBlock: CIFDUS_clean_linker_0, # of connection points: 2
#     Edge 83, Type (0, 1), BuildingBlock: CIFDUS_clean_linker_0, # of connection points: 2
#     Edge 84, Type (0, 1), BuildingBlock: CIFDUS_clean_linker_0, # of connection points: 2
#     Edge 85, Type (0, 1), BuildingBlock: CIFDUS_clean_linker_0, # of connection points: 2
#     Edge 86, Type (0, 1), BuildingBlock: CIFDUS_clean_linker_0, # of connection points: 2
#     Edge 87, Type (0, 1), BuildingBlock: CIFDUS_clean_linker_0, # of connection points: 2
#     Edge 88, Type (0, 1), BuildingBlock: CIFDUS_clean_linker_0, # of connection points: 2
#     Edge 89, Type (0, 1), BuildingBlock: CIFDUS_clean_linker_0, # of connection points: 2
#     Edge 90, Type (0, 1), BuildingBlock: CIFDUS_clean_linker_0, # of connection points: 2
#     Edge 91, Type (0, 1), BuildingBlock: CIFDUS_clean_linker_0, # of connection points: 2
#     Edge 92, Type (0, 1), BuildingBlock: CIFDUS_clean_linker_0, # of connection points: 2
#     Edge 93, Type (0, 1), BuildingBlock: CIFDUS_clean_linker_0, # of connection points: 2
#     Edge 94, Type (0, 1), BuildingBlock: CIFDUS_clean_linker_0, # of connection points: 2
#     Edge 95, Type (0, 1), BuildingBlock: CIFDUS_clean_linker_0, # of connection points: 2
#     Edge 96, Type (0, 1), BuildingBlock: CIFDUS_clean_linker_0, # of connection points: 2
#     Edge 97, Type (0, 1), BuildingBlock: CIFDUS_clean_linker_0, # of connection points: 2
#     Edge 98, Type (0, 1), BuildingBlock: CIFDUS_clean_linker_0, # of connection points: 2
#     Edge 99, Type (0, 1), BuildingBlock: CIFDUS_clean_linker_0, # of connection points: 2
#     Edge 100, Type (0, 1), BuildingBlock: CIFDUS_clean_linker_0, # of connection points: 2
#     Edge 101, Type (0, 1), BuildingBlock: CIFDUS_clean_linker_0, # of connection points: 2
#     Edge 102, Type (0, 1), BuildingBlock: CIFDUS_clean_linker_0, # of connection points: 2
#     Edge 103, Type (0, 1), BuildingBlock: CIFDUS_clean_linker_0, # of connection points: 2
#     Edge 104, Type (0, 1), BuildingBlock: CIFDUS_clean_linker_0, # of connection points: 2
#     Edge 105, Type (0, 1), BuildingBlock: CIFDUS_clean_linker_0, # of connection points: 2
#     Edge 106, Type (0, 1), BuildingBlock: CIFDUS_clean_linker_0, # of connection points: 2
#     Edge 107, Type (0, 1), BuildingBlock: CIFDUS_clean_linker_0, # of connection points: 2
#     Edge 108, Type (0, 1), BuildingBlock: CIFDUS_clean_linker_0, # of connection points: 2
#     Edge 109, Type (0, 1), BuildingBlock: CIFDUS_clean_linker_0, # of connection points: 2
#     Edge 110, Type (0, 1), BuildingBlock: CIFDUS_clean_linker_0, # of connection points: 2
#     Edge 111, Type (0, 1), BuildingBlock: CIFDUS_clean_linker_0, # of connection points: 2
#     Edge 112, Type (0, 1), BuildingBlock: CIFDUS_clean_linker_0, # of connection points: 2
#     Edge 113, Type (0, 1), BuildingBlock: CIFDUS_clean_linker_0, # of connection points: 2
#     Edge 114, Type (0, 1), BuildingBlock: CIFDUS_clean_linker_0, # of connection points: 2
#     Edge 115, Type (0, 1), BuildingBlock: CIFDUS_clean_linker_0, # of connection points: 2
#     Edge 116, Type (0, 1), BuildingBlock: CIFDUS_clean_linker_0, # of connection points: 2
#     Edge 117, Type (0, 1), BuildingBlock: CIFDUS_clean_linker_0, # of connection points: 2
#     Edge 118, Type (0, 1), BuildingBlock: CIFDUS_clean_linker_0, # of connection points: 2
#     Edge 119, Type (0, 1), BuildingBlock: CIFDUS_clean_linker_0, # of connection points: 2
#     Edge 120, Type (0, 1), BuildingBlock: CIFDUS_clean_linker_0, # of connection points: 2
#     Edge 121, Type (0, 1), BuildingBlock: CIFDUS_clean_linker_0, # of connection points: 2
#     Edge 122, Type (0, 1), BuildingBlock: CIFDUS_clean_linker_0, # of connection points: 2
#     Edge 123, Type (0, 1), BuildingBlock: CIFDUS_clean_linker_0, # of connection points: 2
#     Edge 124, Type (0, 1), BuildingBlock: CIFDUS_clean_linker_0, # of connection points: 2
#     Edge 125, Type (0, 1), BuildingBlock: CIFDUS_clean_linker_0, # of connection points: 2
#     Edge 126, Type (0, 1), BuildingBlock: CIFDUS_clean_linker_0, # of connection points: 2
#     Edge 127, Type (0, 1), BuildingBlock: CIFDUS_clean_linker_0, # of connection points: 2
#     Edge 128, Type (0, 1), BuildingBlock: CIFDUS_clean_linker_0, # of connection points: 2
#     Edge 129, Type (0, 1), BuildingBlock: CIFDUS_clean_linker_0, # of connection points: 2
#     Edge 130, Type (0, 1), BuildingBlock: CIFDUS_clean_linker_0, # of connection points: 2
#     Edge 131, Type (0, 1), BuildingBlock: CIFDUS_clean_linker_0, # of connection points: 2
#     Edge 132, Type (0, 1), BuildingBlock: CIFDUS_clean_linker_0, # of connection points: 2
#     Edge 133, Type (0, 1), BuildingBlock: CIFDUS_clean_linker_0, # of connection points: 2
#     Edge 134, Type (0, 1), BuildingBlock: CIFDUS_clean_linker_0, # of connection points: 2
#     Edge 135, Type (0, 1), BuildingBlock: CIFDUS_clean_linker_0, # of connection points: 2
# Relax obj value: 0.254
# Max RMSD: 0.320
# Mean RMSD: 0.202
data_MOF--net-gar--node1-AZAVOO_clean_sbu_0--node2-BETGAK_clean_sbu_0--edge1-CIFDUS_clean_linker_0
_symmetry_space_group_name_H-M    P1
_symmetry_Int_Tables_number       1
_symmetry_cell_setting            triclinic
loop_
_symmetry_equiv_pos_as_xyz
'x, y, z'
_cell_length_a     56.557832
_cell_length_b     48.880793
_cell_length_c     50.096402
_cell_angle_alpha  101.75465
_cell_angle_beta   95.298759
_cell_angle_gamma 103.5713
loop_
_atom_site_label
_atom_site_type_symbol
_atom_site_fract_x
_atom_site_fract_y
_atom_site_fract_z
_atom_type_partial_charge
Mg0 Mg 0.11898 0.34982 0.362 0.0
O1 O 0.10914 0.38886 0.38911 0.0
O2 O 0.06823 0.37535 0.388 0.0
Mg3 Mg 0.05276 0.32865 0.36399 0.0
C4 C 0.08896 0.3941 0.39549 0.0
C5 C 0.16077 0.3479 0.35498 0.0
O6 O 0.16248 0.37099 0.37464 0.0
O7 O 0.11616 0.32627 0.3973 0.0
O8 O 0.07535 0.31352 0.39581 0.0
O9 O 0.11039 0.36605 0.32449 0.0
O10 O 0.08359 0.33534 0.34094 0.0
C11 C 0.09694 0.3137 0.40607 0.0
C12 C 0.08803 0.35127 0.32358 0.0
O13 O 0.16122 0.3698 0.37381 0.0
Mg14 Mg 1.01642 0.79063 0.69307 0.0
O15 O 0.02999 0.75263 0.66909 0.0
O16 O 0.99878 0.73166 0.63443 0.0
Mg17 Mg 0.96543 0.75022 0.63898 0.0
C18 C 0.02037 0.73396 0.64644 0.0
C19 C 0.07511 0.81976 0.72487 0.0
O20 O 0.09032 0.84479 0.73741 0.0
O21 O 0.02141 0.81159 0.65737 0.0
O22 O 0.98822 0.78999 0.62577 0.0
O23 O 0.99976 0.76714 0.72346 0.0
O24 O 0.98061 0.76607 0.68284 0.0
C25 C 1.0086 0.80928 0.63438 0.0
C26 C 0.97956 0.75891 0.70614 0.0
O27 O 0.05365 0.81943 0.71472 0.0
Mg28 Mg 0.62729 0.84818 0.85888 0.0
O29 O 0.61972 0.88985 0.88525 0.0
O30 O 0.57886 0.87719 0.88455 0.0
Mg31 Mg 0.56149 0.82979 0.8643 0.0
C32 C 0.59963 0.89597 0.89094 0.0
C33 C 0.68007 0.88208 0.85346 0.0
O34 O 0.66703 0.8952 0.83993 0.0
O35 O 0.62527 0.82577 0.89541 0.0
O36 O 0.58469 0.81546 0.89598 0.0
O37 O 0.61671 0.86333 0.82104 0.0
O38 O 0.59112 0.83373 0.83965 0.0
C39 C 0.60622 0.81472 0.90545 0.0
C40 C 0.59448 0.84923 0.82186 0.0
O41 O 0.66927 0.86508 0.86731 0.0
Mg42 Mg 0.51032 0.28632 0.18439 0.0
O43 O 0.52022 0.24468 0.16694 0.0
O44 O 0.48929 0.21455 0.1364 0.0
Mg45 Mg 0.458 0.23761 0.13685 0.0
C46 C 0.51112 0.22087 0.1493 0.0
C47 C 0.55833 0.31244 0.22585 0.0
O48 O 0.54242 0.31405 0.24324 0.0
O49 O 0.5147 0.29905 0.14396 0.0
O50 O 0.48036 0.27172 0.11622 0.0
O51 O 0.49499 0.26938 0.2185 0.0
O52 O 0.47294 0.26591 0.17852 0.0
C53 C 0.50057 0.29156 0.12091 0.0
C54 C 0.47383 0.26101 0.2029 0.0
O55 O 0.55061 0.30473 0.20016 0.0
Mg56 Mg 0.12058 0.85987 0.14705 0.0
O57 O 0.11387 0.81249 0.12095 0.0
O58 O 0.07578 0.79937 0.09798 0.0
Mg59 Mg 0.05733 0.83648 0.10806 0.0
C60 C 0.09611 0.79362 0.10452 0.0
C61 C 0.16815 0.84168 0.16876 0.0
O62 O 0.15055 0.8183 0.16749 0.0
O63 O 0.12381 0.88268 0.10918 0.0
O64 O 0.08419 0.86775 0.09006 0.0
O65 O 0.10202 0.8434 0.18152 0.0
O66 O 0.08237 0.85423 0.14707 0.0
C67 C 0.1061 0.88291 0.09108 0.0
C68 C 0.08151 0.84535 0.16936 0.0
O69 O 0.16249 0.86259 0.16013 0.0
Mg70 Mg 0.5173 0.76472 0.40182 0.0
O71 O 0.52794 0.80859 0.43414 0.0
O72 O 0.49752 0.80829 0.45951 0.0
Mg73 Mg 0.46845 0.76418 0.44463 0.0
C74 C 0.518 0.8211 0.45332 0.0
C75 C 0.56589 0.79569 0.38162 0.0
O76 O 0.55255 0.81418 0.38023 0.0
O77 O 0.52685 0.73843 0.43371 0.0
O78 O 0.4942 0.73589 0.45583 0.0
O79 O 0.49557 0.7842 0.37354 0.0
O80 O 0.47881 0.76069 0.40283 0.0
C81 C 0.51403 0.72861 0.45116 0.0
C82 C 0.4762 0.77512 0.3844 0.0
O83 O 0.557 0.7733 0.39043 0.0
Mg84 Mg 0.61802 0.34288 0.64283 0.0
O85 O 0.60728 0.29766 0.61141 0.0
O86 O 0.56887 0.2917 0.59136 0.0
Mg87 Mg 0.55401 0.33027 0.60877 0.0
C88 C 0.58807 0.28251 0.59448 0.0
C89 C 0.67213 0.35523 0.67415 0.0
O90 O 0.66365 0.37505 0.68923 0.0
O91 O 0.622 0.3706 0.60846 0.0
O92 O 0.58202 0.36167 0.59225 0.0
O93 O 0.60079 0.32184 0.6754 0.0
O94 O 0.58043 0.33896 0.64609 0.0
C95 C 0.60445 0.37468 0.59264 0.0
C96 C 0.58014 0.32554 0.66559 0.0
O97 O 0.65884 0.33985 0.65162 0.0
Mg98 Mg 0.01856 0.28283 0.90986 0.0
O99 O 0.02501 0.32368 0.94581 0.0
O100 O 0.99223 0.31418 0.96731 0.0
Mg101 Mg 0.96638 0.26941 0.94581 0.0
C102 C 1.01246 0.33112 0.96474 0.0
C103 C 0.06061 0.27921 0.87852 0.0
O104 O 0.04075 0.26005 0.86443 0.0
O105 O 0.02834 0.25476 0.93881 0.0
O106 O 0.99433 0.2428 0.95751 0.0
O107 O 1.00015 0.3046 0.88298 0.0
O108 O 0.97899 0.2761 0.90602 0.0
C109 C 1.016 0.24051 0.95393 0.0
C110 C 0.97912 0.29396 0.89002 0.0
O111 O 0.0587 0.29465 0.90158 0.0
Mg112 Mg 0.46417 0.07758 0.31631 0.0
O113 O 0.44377 0.03093 0.31543 0.0
O114 O 0.43001 0.02975 0.35578 0.0
Mg115 Mg 0.43887 0.07623 0.38105 0.0
C116 C 0.43282 1.01725 0.33177 0.0
C117 C 0.47535 0.04176 0.2649 0.0
O118 O 0.48108 0.0294 0.28466 0.0
O119 O 0.42727 0.08671 0.30783 0.0
O120 O 0.41316 0.08635 0.34803 0.0
O121 O 0.49884 0.07213 0.33629 0.0
O122 O 0.47054 0.08638 0.35923 0.0
C123 C 0.41074 0.08916 0.32317 0.0
C124 C 0.49065 0.07826 0.35943 0.0
O125 O 0.46665 0.06362 0.27084 0.0
Mg126 Mg 0.29594 0.20332 0.50372 0.0
O127 O 0.30174 0.23511 0.54794 0.0
O128 O 0.33979 0.26307 0.55208 0.0
Mg129 Mg 0.35892 0.25054 0.5146 0.0
C130 C 0.31995 0.25545 0.56209 0.0
C131 C 0.24168 0.16693 0.48342 0.0
O132 O 0.25345 0.1591 0.46294 0.0
O133 O 0.2932 0.23627 0.47502 0.0
O134 O 0.33305 0.25904 0.48111 0.0
O135 O 0.31314 0.1725 0.52296 0.0
O136 O 0.33413 0.20708 0.50626 0.0
C137 C 0.3113 0.25371 0.46826 0.0
C138 C 0.33417 0.18614 0.518 0.0
O139 O 0.25369 0.18679 0.5041 0.0
Mg140 Mg 0.18461 0.03647 0.78841 0.0
O141 O 0.21223 0.0863 0.79055 0.0
O142 O 0.24848 0.08208 0.80495 0.0
Mg143 Mg 0.21682 0.05331 0.82021 0.0
C144 C 0.2358 0.09726 0.79541 0.0
C145 C 0.15333 0.02443 0.71949 0.0
O146 O 0.14412 0.99737 0.7203 0.0
O147 O 0.2096 0.99976 0.77475 0.0
O148 O 0.23288 1.01223 0.81459 0.0
O149 O 0.15895 0.05589 0.81682 0.0
O150 O 0.18207 0.03414 0.837 0.0
C151 C 0.22592 0.99411 0.79138 0.0
C152 C 0.16401 0.04636 0.83828 0.0
O153 O 0.16851 0.04123 0.74081 0.0
Mg154 Mg 0.34787 0.98359 0.02571 0.0
O155 O 0.34405 0.94864 0.98505 0.0
O156 O 0.37006 0.9209 0.9902 0.0
Mg157 Mg 0.38931 0.93412 0.03449 0.0
C158 C 0.35357 0.92786 0.97572 0.0
C159 C 0.32144 0.02859 0.0151 0.0
O160 O 0.34396 0.04382 0.02566 0.0
O161 O 0.32036 0.9511 0.04294 0.0
O162 O 0.35173 0.93251 0.0424 0.0
O163 O 0.38192 1.01074 0.01495 0.0
O164 O 0.38283 0.97702 0.03793 0.0
C165 C 0.33011 0.93119 0.04708 0.0
C166 C 0.39443 0.99634 0.02675 0.0
O167 O 0.31668 1.00113 1.01018 0.0
Mg168 Mg 0.35364 0.43062 0.06603 0.0
O169 O 0.34595 0.40012 0.02174 0.0
O170 O 0.37671 0.37891 0.01841 0.0
Mg171 Mg 0.40315 0.39481 0.06001 0.0
C172 C 0.357 0.38343 1.00765 0.0
C173 C 0.30697 0.44512 0.03951 0.0
O174 O 0.32127 0.44712 0.02039 0.0
O175 O 0.34273 0.39439 0.09034 0.0
O176 O 0.37618 0.37776 0.08935 0.0
O177 O 0.3765 0.46663 0.0503 0.0
O178 O 0.39252 0.43615 0.0678 0.0
C179 C 0.35592 0.3788 0.09857 0.0
C180 C 0.39574 0.45793 0.05652 0.0
O181 O 0.31438 0.43734 0.06089 0.0
Mg182 Mg 0.791 0.12352 0.04557 0.0
O183 O 0.80187 0.16177 0.08397 0.0
O184 O 0.83473 0.19248 0.07512 0.0
Mg185 Mg 0.84707 0.17365 0.03498 0.0
C186 C 0.81824 0.18603 0.09023 0.0
C187 C 0.76158 0.08065 0.98985 0.0
O188 O 0.75933 0.06225 0.96608 0.0
O189 O 0.77685 0.15285 0.02196 0.0
O190 O 0.81189 0.18084 1.01433 0.0
O191 O 0.81631 0.09908 0.06292 0.0
O192 O 0.82792 0.13052 0.03864 0.0
C193 C 0.78846 0.17288 1.01168 0.0
C194 C 0.8335 0.11254 0.05168 0.0
O195 O 0.78169 0.08784 1.00617 0.0
Mg196 Mg 0.1705 0.5326 0.22922 0.0
O197 O 0.1999 0.57542 0.24595 0.0
O198 O 0.19818 0.59219 0.29051 0.0
Mg199 Mg 0.1685 0.55854 0.3028 0.0
C200 C 0.20745 0.59458 0.26854 0.0
C201 C 0.18196 0.51781 0.1669 0.0
O202 O 0.1958 0.51102 0.14829 0.0
O203 O 0.19353 0.50994 0.25125 0.0
O204 O 0.19354 0.5276 0.29617 0.0
O205 O 0.14328 0.55794 0.22041 0.0
O206 O 0.15029 0.54459 0.25946 0.0
C207 C 0.20039 0.51152 0.27658 0.0
C208 C 0.13961 0.55888 0.24568 0.0
O209 O 0.19054 0.52328 0.19226 0.0
Mg210 Mg 0.85797 0.92533 0.56484 0.0
O211 O 0.84808 0.89509 0.52101 0.0
O212 O 0.87409 0.8672 0.51798 0.0
Mg213 Mg 0.9004 0.88027 0.55994 0.0
C214 C 0.85637 0.8754 0.5071 0.0
C215 C 0.81777 0.95693 0.57768 0.0
O216 O 0.83522 0.96892 0.59888 0.0
O217 O 0.84181 0.8899 0.58791 0.0
O218 O 0.87164 0.86713 0.58915 0.0
O219 O 0.88461 0.95752 0.54831 0.0
O220 O 0.89572 0.92498 0.56759 0.0
C221 C 0.85169 0.87183 0.5969 0.0
C222 C 0.90188 0.94608 0.55563 0.0
O223 O 0.82105 0.93692 0.55892 0.0
Mg224 Mg 0.96178 0.08969 0.27228 0.0
O225 O 0.9317 0.04172 0.26544 0.0
O226 O 0.91445 0.04491 0.30406 0.0
Mg227 Mg 0.92856 0.0916 0.33273 0.0
C228 C 0.91735 0.02982 0.28109 0.0
C229 C 0.97651 0.0698 0.20078 0.0
O230 O 0.95974 0.04492 0.19442 0.0
O231 O 0.93286 0.12149 0.26737 0.0
O232 O 0.91529 0.12194 0.30545 0.0
O233 O 0.98979 0.07262 0.29806 0.0
O234 O 0.96543 0.09459 0.31883 0.0
C235 C 0.91829 0.13127 0.28345 0.0
C236 C 0.98255 0.0814 0.32118 0.0
O237 O 0.97831 0.0864 0.22534 0.0
Mg238 Mg 0.31743 0.65887 0.54909 0.0
O239 O 0.33543 0.69055 0.58904 0.0
O240 O 0.37409 0.71308 0.58707 0.0
Mg241 Mg 0.38105 0.69266 0.54407 0.0
C242 C 0.35552 0.70926 0.59983 0.0
C243 C 0.26951 0.63566 0.57117 0.0
O244 O 0.27909 0.61349 0.56992 0.0
O245 O 0.31498 0.69668 0.53087 0.0
O246 O 0.35422 0.7163 0.52744 0.0
O247 O 0.32982 0.62305 0.5619 0.0
O248 O 0.35078 0.65311 0.53964 0.0
C249 C 0.33142 0.71587 0.52435 0.0
C250 C 0.34921 0.63128 0.5507 0.0
O251 O 0.28102 0.65786 0.56396 0.0
Mg252 Mg 0.45835 0.58845 0.77471 0.0
O253 O 0.42849 0.54034 0.76993 0.0
O254 O 0.40957 0.54669 0.80719 0.0
Mg255 Mg 0.42432 0.59358 0.83543 0.0
C256 C 0.41297 0.53 0.78537 0.0
C257 C 0.47405 0.56893 0.70262 0.0
O258 O 0.45481 0.54662 0.69397 0.0
O259 O 0.42861 0.61986 0.76832 0.0
O260 O 0.41167 0.62268 0.80701 0.0
O261 O 0.48729 0.57464 0.80407 0.0
O262 O 0.46062 0.59504 0.82106 0.0
C263 C 0.41446 0.63075 0.78443 0.0
C264 C 0.47856 0.58382 0.82601 0.0
O265 O 0.47647 0.58388 0.7281 0.0
Mg266 Mg 0.67271 0.04945 0.75499 0.0
O267 O 0.70684 0.08838 0.76589 0.0
O268 O 0.71959 0.09454 0.81096 0.0
Mg269 Mg 0.69397 0.06205 0.82884 0.0
C270 C 0.7218 0.1017 0.788 0.0
C271 C 0.64994 0.02956 0.69778 0.0
O272 O 0.6367 1.01421 0.71246 0.0
O273 O 0.69805 1.01962 0.75656 0.0
O274 O 0.70802 0.02755 0.8022 0.0
O275 O 0.649 0.07945 0.76447 0.0
O276 O 0.6663 0.06044 0.7951 0.0
C277 C 0.70911 1.01457 0.7777 0.0
C278 C 0.65465 0.0789 0.78988 0.0
O279 O 0.67098 0.04569 0.7092 0.0
Mg280 Mg 0.79447 0.69389 1.00107 0.0
O281 O 0.79765 0.7253 0.04445 0.0
O282 O 0.83674 0.75097 0.05545 0.0
Mg283 Mg 0.85831 0.73724 0.02018 0.0
C284 C 0.81501 0.74416 0.06153 0.0
C285 C 0.7403 0.65905 0.97876 0.0
O286 O 0.75271 0.64793 0.96041 0.0
O287 O 0.79677 0.72812 0.97348 0.0
O288 O 0.83678 0.75035 0.98536 0.0
O289 O 0.80578 0.66177 0.02262 0.0
O290 O 0.83216 0.69413 1.00807 0.0
C291 C 0.81618 0.74627 0.97022 0.0
C292 C 0.82835 0.67311 0.02027 0.0
O293 O 0.75192 0.68069 0.99804 0.0
Mg294 Mg 0.979 0.57609 0.81606 0.0
O295 O 0.95391 0.53581 0.82274 0.0
O296 O 0.93939 0.54272 0.8626 0.0
Mg297 Mg 0.95768 0.5908 0.88305 0.0
C298 C 0.94061 0.5264 0.83965 0.0
C299 C 0.98186 0.52682 0.76982 0.0
O300 O 0.99005 0.5194 0.79196 0.0
O301 O 0.94544 0.59244 0.80672 0.0
O302 O 0.93544 0.60376 0.84909 0.0
O303 O 1.01158 0.56719 0.83718 0.0
O304 O 0.98817 0.5926 0.85842 0.0
C305 C 0.93226 0.60298 0.8233 0.0
C306 C 1.00631 0.581 0.85976 0.0
O307 O 0.97589 0.55066 0.77227 0.0
Mg308 Mg 0.8569 0.48686 0.5215 0.0
O309 O 0.85006 0.44862 0.48369 0.0
O310 O 0.88641 0.43825 0.48024 0.0
Mg311 Mg 0.91559 0.46829 0.51487 0.0
C312 C 0.86354 0.43376 0.47164 0.0
C313 C 0.81435 0.50029 0.54484 0.0
O314 O 0.83423 0.51369 0.56277 0.0
O315 O 0.8583 0.45609 0.5496 0.0
O316 O 0.89513 0.44751 0.54566 0.0
O317 O 0.86777 0.51898 0.49538 0.0
O318 O 0.89266 0.49848 0.51639 0.0
C319 C 0.87519 0.44423 0.55606 0.0
C320 C 0.88932 0.51458 0.49987 0.0
O321 O 0.81647 0.4832 0.52294 0.0
Mg322 Mg 0.68723 0.53539 0.29115 0.0
O323 O 0.71599 0.58548 0.29487 0.0
O324 O 0.75031 0.57449 0.30451 0.0
Mg325 Mg 0.71877 0.54808 0.32055 0.0
C326 C 0.73972 0.59287 0.29781 0.0
C327 C 0.65406 0.52637 0.22339 0.0
O328 O 0.64365 0.49981 0.22487 0.0
O329 O 0.71232 0.4983 0.2752 0.0
O330 O 0.7345 0.50782 0.31545 0.0
O331 O 0.66322 0.55434 0.32459 0.0
O332 O 0.68589 0.52858 0.3384 0.0
C333 C 0.72798 0.49117 0.29156 0.0
C334 C 0.66916 0.542 0.3437 0.0
O335 O 0.6705 0.54244 0.24408 0.0
La336 La 0.04982 0.04261 1.0053 0.0
La337 La 0.09581 0.08796 0.03931 0.0
C338 C 1.00565 1.0137 0.99465 0.0
C339 C 0.98409 0.02171 1.00488 0.0
C340 C 0.96041 1.00323 0.9963 0.0
C341 C 0.94004 1.01186 1.00555 0.0
C342 C 0.94314 0.03913 0.02344 0.0
C343 C 0.96701 0.05727 0.03231 0.0
C344 C 0.98722 0.04867 0.02305 0.0
C345 C 0.08593 0.04856 0.97227 0.0
C346 C 0.05523 0.11056 1.00955 0.0
C347 C 0.13991 0.117 0.05135 0.0
C348 C 0.16167 0.1087 0.04205 0.0
C349 C 0.18471 0.11918 0.05863 0.0
C350 C 0.2043 0.10761 0.05134 0.0
C351 C 0.20096 0.08523 0.02753 0.0
C352 C 0.17806 0.07565 1.01055 0.0
C353 C 0.15864 0.08723 0.01781 0.0
C354 C 0.05959 0.08062 0.07219 0.0
C355 C 0.09028 1.02036 0.03607 0.0
O356 O 1.01625 0.02954 0.97873 0.0
O357 O 0.0217 1.01011 1.01336 0.0
O358 O 0.0639 0.03144 0.96534 0.0
O359 O 0.0865 0.06131 0.99758 0.0
O360 O 0.04076 0.08391 1.00457 0.0
O361 O 0.07844 0.11701 0.02125 0.0
O362 O 0.12878 0.10122 0.06697 0.0
O363 O 0.12433 0.12063 0.03214 0.0
O364 O 0.08108 0.09898 0.07905 0.0
O365 O 0.05947 0.06865 0.04685 0.0
O366 O 0.10478 0.04703 0.04158 0.0
O367 O 0.06748 1.01364 0.02299 0.0
H368 H 0.95765 0.98238 0.98221 0.0
H369 H 0.92185 0.99752 0.99815 0.0
H370 H 0.9701 0.07817 0.04642 0.0
H371 H 1.00536 0.06319 0.03011 0.0
H372 H 0.18729 0.13547 0.07764 0.0
H373 H 0.2217 0.11524 0.06496 0.0
H374 H 0.17505 0.05872 0.99196 0.0
H375 H 0.14089 0.07876 1.00504 0.0
La376 La 0.32634 0.79256 0.25304 0.0
La377 La 0.31144 0.82167 0.30643 0.0
C378 C 0.32602 0.77647 0.20212 0.0
C379 C 0.31874 0.78934 0.17974 0.0
C380 C 0.3341 0.79368 0.15979 0.0
C381 C 0.32998 0.81108 0.14188 0.0
C382 C 0.31045 0.82438 0.1438 0.0
C383 C 0.29438 0.81873 0.16286 0.0
C384 C 0.29854 0.80138 0.18068 0.0
C385 C 0.35872 0.79214 0.29528 0.0
C386 C 0.34978 0.85833 0.27996 0.0
C387 C 0.30094 0.83803 0.35391 0.0
C388 C 0.29533 0.82415 0.37663 0.0
C389 C 0.29065 0.84 0.40131 0.0
C390 C 0.28642 0.82689 0.42339 0.0
C391 C 0.28623 0.79768 0.42055 0.0
C392 C 0.29024 0.78175 0.39555 0.0
C393 C 0.29511 0.79503 0.37392 0.0
C394 C 0.28753 0.82721 0.25995 0.0
C395 C 0.29472 0.75256 0.28489 0.0
O396 O 0.34552 0.79262 0.21918 0.0
O397 O 0.30839 0.76534 0.21505 0.0
O398 O 0.35944 0.7815 0.26959 0.0
O399 O 0.33984 0.80172 0.29592 0.0
O400 O 0.34025 0.8393 0.25636 0.0
O401 O 0.34365 0.85367 0.30363 0.0
O402 O 0.28469 0.82813 0.33159 0.0
O403 O 0.32348 0.84112 0.34838 0.0
O404 O 0.29437 0.84718 0.28257 0.0
O405 O 0.29412 0.8054 0.2644 0.0
O406 O 0.29646 0.77572 0.30482 0.0
O407 O 0.30456 0.75393 0.26215 0.0
H408 H 0.34997 0.78487 0.15901 0.0
H409 H 0.34282 0.81532 0.12754 0.0
H410 H 0.27902 0.82838 0.16455 0.0
H411 H 0.28659 0.79841 0.19597 0.0
H412 H 0.29091 0.86261 0.40372 0.0
H413 H 0.28388 0.8396 0.4428 0.0
H414 H 0.29094 0.75943 0.3933 0.0
H415 H 0.29948 0.78278 0.35544 0.0
La416 La 0.59391 0.05296 0.53382 0.0
La417 La 0.53934 0.05376 0.52861 0.0
C418 C 0.63532 0.04637 0.55034 0.0
C419 C 0.65262 0.02782 0.54753 0.0
C420 C 0.66368 0.02224 0.52369 0.0
C421 C 0.68279 1.00839 0.52348 0.0
C422 C 0.69131 1.00014 0.54716 0.0
C423 C 0.67946 1.0047 0.57051 0.0
C424 C 0.6604 1.01842 0.5707 0.0
C425 C 0.57486 0.05768 0.48575 0.0
C426 C 0.55135 0.99313 0.51384 0.0
C427 C 0.49739 0.06094 0.51514 0.0
C428 C 0.48035 0.07924 0.5225 0.0
C429 C 0.4687 0.0788 0.54611 0.0
C430 C 0.44998 0.0929 0.55043 0.0
C431 C 0.44248 0.10774 0.53126 0.0
C432 C 0.45474 0.1089 0.50815 0.0
C433 C 0.47336 0.09476 0.50379 0.0
C434 C 0.55942 0.05007 0.57696 0.0
C435 C 0.58143 0.11365 0.54698 0.0
O436 O 0.63162 0.0599 0.53091 0.0
O437 O 0.61525 0.0371 0.56048 0.0
O438 O 0.59805 0.06752 0.49556 0.0
O439 O 0.56408 0.0432 0.50118 0.0
O440 O 0.57486 1.00609 0.52395 0.0
O441 O 0.53515 1.00819 0.50989 0.0
O442 O 0.50165 0.04433 0.53148 0.0
O443 O 0.51715 0.07228 0.5054 0.0
O444 O 0.53631 0.03934 0.56736 0.0
O445 O 0.56931 0.06415 0.56089 0.0
O446 O 0.55822 0.10011 0.53631 0.0
O447 O 0.59787 0.09907 0.55173 0.0
H448 H 0.65819 0.02942 0.50557 0.0
H449 H 0.69161 1.00532 0.5052 0.0
H450 H 0.68528 0.9982 0.58894 0.0
H451 H 0.65231 0.02263 0.58941 0.0
H452 H 0.47352 0.0669 0.56088 0.0
H453 H 0.44113 0.09183 0.5686 0.0
H454 H 0.44925 0.11973 0.49272 0.0
H455 H 0.4817 0.09507 0.48519 0.0
La456 La 0.30019 0.3134 0.7854 0.0
La457 La 0.35434 0.30742 0.78253 0.0
C458 C 0.2548 0.30019 0.78823 0.0
C459 C 0.23536 0.30803 0.80373 0.0
C460 C 0.21315 0.30817 0.78888 0.0
C461 C 0.19277 0.31031 0.8022 0.0
C462 C 0.19407 0.31222 0.83074 0.0
C463 C 0.21678 0.31374 0.84589 0.0
C464 C 0.23723 0.31159 0.83251 0.0
C465 C 0.33192 0.36553 0.78594 0.0
C466 C 0.33724 0.32854 0.84125 0.0
C467 C 0.39987 0.32044 0.78011 0.0
C468 C 0.41969 0.31177 0.76572 0.0
C469 C 0.43708 0.30113 0.7795 0.0
C470 C 0.45836 0.29784 0.76839 0.0
C471 C 0.46288 0.30536 0.74332 0.0
C472 C 0.4449 0.31478 0.72896 0.0
C473 C 0.42361 0.31798 0.74002 0.0
C474 C 0.32332 0.2552 0.78289 0.0
C475 C 0.31776 0.29347 0.7266 0.0
O476 O 0.26466 0.31713 0.77275 0.0
O477 O 0.27089 0.28982 0.80076 0.0
O478 O 0.30874 0.36119 0.7886 0.0
O479 O 0.33563 0.34056 0.7842 0.0
O480 O 0.314 0.32292 0.82965 0.0
O481 O 0.35542 0.3265 0.8265 0.0
O482 O 0.38986 0.30487 0.79658 0.0
O483 O 0.38377 0.32976 0.76632 0.0
O484 O 0.34673 0.26045 0.78131 0.0
O485 O 0.31868 0.27961 0.78322 0.0
O486 O 0.34084 0.29909 0.73859 0.0
O487 O 0.29917 0.29498 0.74091 0.0
H488 H 0.21121 0.30537 0.76669 0.0
H489 H 0.17573 0.30963 0.78997 0.0
H490 H 0.21841 0.31512 0.86786 0.0
H491 H 0.25414 0.31151 0.84452 0.0
H492 H 0.43474 0.29645 0.79946 0.0
H493 H 0.47159 0.29012 0.77984 0.0
H494 H 0.44782 0.32117 0.70981 0.0
H495 H 0.41079 0.32657 0.72896 0.0
La496 La 0.07012 0.08822 0.53859 0.0
La497 La 0.07179 0.03194 0.50544 0.0
C498 C 0.07625 0.14199 0.55484 0.0
C499 C 0.07889 0.16545 0.54006 0.0
C500 C 0.06684 0.18729 0.54722 0.0
C501 C 0.06808 0.20871 0.53227 0.0
C502 C 0.08151 0.20871 0.50998 0.0
C503 C 0.09401 0.18714 0.50324 0.0
C504 C 0.0926 0.16561 0.51802 0.0
C505 C 0.03301 0.04439 0.54094 0.0
C506 C 0.04932 0.07019 0.47184 0.0
C507 C 0.06499 0.97812 0.48833 0.0
C508 C 0.05782 0.95446 0.50226 0.0
C509 C 0.05869 0.92629 0.4901 0.0
C510 C 0.05115 0.90382 0.50341 0.0
C511 C 0.04293 0.90947 0.52912 0.0
C512 C 0.042 0.93772 0.54106 0.0
C513 C 0.04925 0.95995 0.5277 0.0
C514 C 0.10903 0.07534 0.50287 0.0
C515 C 0.09102 0.04937 0.57252 0.0
O516 O 0.05466 0.12337 0.54999 0.0
O517 O 0.09415 0.12924 0.55482 0.0
O518 O 0.04288 0.06654 0.56133 0.0
O519 O 0.04286 0.04879 0.52012 0.0
O520 O 0.05707 0.09078 0.49525 0.0
O521 O 0.05222 0.04392 0.47116 0.0
O522 O 0.08671 0.99597 0.49766 0.0
O523 O 0.04815 0.99188 0.48489 0.0
O524 O 0.09929 0.05297 0.48269 0.0
O525 O 0.09907 0.07139 0.52374 0.0
O526 O 0.08244 0.02889 0.54916 0.0
O527 O 0.08981 0.07625 0.57299 0.0
H528 H 0.05615 0.18751 0.56409 0.0
H529 H 0.05838 0.22517 0.53802 0.0
H530 H 0.10418 0.18632 0.48593 0.0
H531 H 0.10187 0.14881 0.51186 0.0
H532 H 0.06508 0.92168 0.47035 0.0
H533 H 0.05205 0.88219 0.49385 0.0
H534 H 0.03534 0.94257 0.56064 0.0
H535 H 0.04789 0.9814 0.53712 0.0
La536 La 0.34514 0.83492 0.78593 0.0
La537 La 0.29799 0.79023 0.77813 0.0
C538 C 0.3874 0.86786 0.80344 0.0
C539 C 0.41185 0.86493 0.79832 0.0
C540 C 0.41427 0.84317 0.77649 0.0
C541 C 0.43746 0.83937 0.7724 0.0
C542 C 0.45858 0.85716 0.79018 0.0
C543 C 0.45607 0.87946 0.81157 0.0
C544 C 0.43283 0.88329 0.8156 0.0
C545 C 0.32809 0.8077 0.73395 0.0
C546 C 0.34735 0.76739 0.78376 0.0
C547 C 0.25662 0.7556 0.75804 0.0
C548 C 0.23051 0.75475 0.75753 0.0
C549 C 0.223 0.77529 0.77626 0.0
C550 C 0.19813 0.77469 0.77506 0.0
C551 C 0.18035 0.7536 0.75505 0.0
C552 C 0.18799 0.7329 0.73645 0.0
C553 C 0.21292 0.73345 0.73775 0.0
C554 C 0.31642 0.81574 0.82975 0.0
C555 C 0.29665 0.85894 0.7827 0.0
O556 O 0.37325 0.86967 0.78202 0.0
O557 O 0.37578 0.84992 0.81704 0.0
O558 O 0.34111 0.83428 0.7418 0.0
O559 O 0.32705 0.79736 0.75481 0.0
O560 O 0.35887 0.79578 0.79095 0.0
O561 O 0.32302 0.75986 0.77524 0.0
O562 O 0.26872 0.75657 0.78195 0.0
O563 O 0.26909 0.77356 0.74508 0.0
O564 O 0.30387 0.78892 0.82182 0.0
O565 O 0.31633 0.82726 0.80962 0.0
O566 O 0.28413 0.83069 0.77531 0.0
O567 O 0.32092 0.86522 0.79041 0.0
H568 H 0.39818 0.82882 0.76291 0.0
H569 H 0.43883 0.82216 0.75564 0.0
H570 H 0.47194 0.89319 0.82589 0.0
H571 H 0.43119 0.90014 0.83257 0.0
H572 H 0.23639 0.79201 0.79152 0.0
H573 H 0.19294 0.79138 0.78928 0.0
H574 H 0.17475 0.71644 0.72083 0.0
H575 H 0.21851 0.71745 0.72313 0.0
La576 La 0.58944 0.05411 0.05011 0.0
La577 La 0.58408 0.09393 0.01829 0.0
C578 C 0.59667 0.02924 0.0883 0.0
C579 C 0.57991 1.01612 0.1055 0.0
C580 C 0.58896 1.01544 0.13225 0.0
C581 C 0.57266 1.0078 0.15041 0.0
C582 C 0.54713 1.00107 0.14204 0.0
C583 C 0.53816 1.00007 0.1147 0.0
C584 C 0.55446 1.00744 0.09653 0.0
C585 C 0.58976 0.03222 0.99725 0.0
C586 C 0.53711 0.04655 0.02175 0.0
C587 C 0.57339 0.12295 0.98476 0.0
C588 C 0.58443 0.13309 0.96228 0.0
C589 C 0.57233 0.14731 0.94606 0.0
C590 C 0.58147 0.15378 0.92246 0.0
C591 C 0.60273 0.14593 0.91491 0.0
C592 C 0.61539 0.13306 0.93232 0.0
C593 C 0.60633 0.12677 0.95579 0.0
C594 C 0.57967 0.1121 0.07132 0.0
C595 C 0.63725 0.09711 0.03905 0.0
O596 O 0.59255 1.01628 0.06218 0.0
O597 O 0.60044 0.05729 0.09206 0.0
O598 O 0.57903 1.01848 1.0141 0.0
O599 O 0.60036 0.05781 1.01041 0.0
O600 O 0.54958 0.04398 0.04424 0.0
O601 O 0.54819 0.06265 1.0062 0.0
O602 O 0.58606 0.13438 1.00923 0.0
O603 O 0.5653 0.09488 0.98053 0.0
O604 O 0.59279 0.12716 0.05709 0.0
O605 O 0.57084 0.08743 0.05598 0.0
O606 O 0.62304 0.1003 0.01822 0.0
O607 O 0.62725 0.08263 0.05661 0.0
H608 H 0.60856 0.02223 0.13951 0.0
H609 H 0.58 1.00905 0.1715 0.0
H610 H 0.51856 0.99483 0.10778 0.0
H611 H 0.54714 1.00762 0.07586 0.0
H612 H 0.55538 0.15238 0.95104 0.0
H613 H 0.57139 0.16377 0.90955 0.0
H614 H 0.63144 0.12594 0.92694 0.0
H615 H 0.61578 0.11567 0.96814 0.0
La616 La 0.34004 0.34189 0.29303 0.0
La617 La 0.30776 0.28722 0.26701 0.0
C618 C 0.36085 0.39522 0.30627 0.0
C619 C 0.35011 0.41989 0.30599 0.0
C620 C 0.34755 0.43739 0.33098 0.0
C621 C 0.33188 0.45568 0.33123 0.0
C622 C 0.31869 0.45666 0.30646 0.0
C623 C 0.3232 0.44139 0.28136 0.0
C624 C 0.33873 0.42313 0.28109 0.0
C625 C 0.33521 0.30696 0.32774 0.0
C626 C 0.2825 0.3333 0.29188 0.0
C627 C 0.28651 0.23417 0.24983 0.0
C628 C 0.29451 0.20863 0.25402 0.0
C629 C 0.29468 0.18656 0.23127 0.0
C630 C 0.30591 0.16461 0.23468 0.0
C631 C 0.31697 0.16442 0.26093 0.0
C632 C 0.31582 0.18592 0.28377 0.0
C633 C 0.3048 0.20784 0.28036 0.0
C634 C 0.31427 0.32396 0.23368 0.0
C635 C 0.36487 0.29356 0.27409 0.0
O636 O 0.35355 0.38008 0.32407 0.0
O637 O 0.36074 0.37855 0.28224 0.0
O638 O 0.3553 0.32499 0.32542 0.0
O639 O 0.31805 0.30874 0.31039 0.0
O640 O 0.30396 0.35183 0.29312 0.0
O641 O 0.27997 0.30534 0.28411 0.0
O642 O 0.29964 0.24942 0.23525 0.0
O643 O 0.28195 0.25061 0.27173 0.0
O644 O 0.29345 0.30692 0.2353 0.0
O645 O 0.33045 0.31986 0.2504 0.0
O646 O 0.34291 0.27597 0.27216 0.0
O647 O 0.36826 0.32176 0.27958 0.0
H648 H 0.35627 0.43539 0.35042 0.0
H649 H 0.32877 0.46739 0.35083 0.0
H650 H 0.31364 0.44234 0.26194 0.0
H651 H 0.34046 0.41022 0.26141 0.0
H652 H 0.28703 0.18696 0.21076 0.0
H653 H 0.30653 0.14827 0.21674 0.0
H654 H 0.32462 0.18676 0.30417 0.0
H655 H 0.30535 0.22484 0.29825 0.0
La656 La 0.56919 0.58479 0.03686 0.0
La657 La 0.57283 0.5276 1.00835 0.0
C658 C 0.57502 0.6389 0.05008 0.0
C659 C 0.57808 0.662 0.03483 0.0
C660 C 0.57056 0.68703 0.04486 0.0
C661 C 0.57345 0.70919 0.03067 0.0
C662 C 0.584 0.70678 1.00619 0.0
C663 C 0.59171 0.68171 0.99633 0.0
C664 C 0.58869 0.65948 1.01045 0.0
C665 C 0.53253 0.54213 0.04208 0.0
C666 C 0.54889 0.56116 0.9702 0.0
C667 C 0.57085 0.47448 0.99431 0.0
C668 C 0.56586 0.45088 1.00873 0.0
C669 C 0.5751 0.42666 1.00095 0.0
C670 C 0.5701 0.40404 1.01452 0.0
C671 C 0.55547 0.4053 0.03567 0.0
C672 C 0.54646 0.42967 0.0436 0.0
C673 C 0.55187 0.45246 0.03046 0.0
C674 C 0.60876 0.57112 1.00317 0.0
C675 C 0.59029 0.54887 0.07514 0.0
O676 O 0.5535 0.62018 0.04513 0.0
O677 O 0.59296 0.6263 0.05097 0.0
O678 O 0.54173 0.5661 0.06064 0.0
O679 O 0.54272 0.54374 0.02082 0.0
O680 O 0.55569 0.58353 0.99228 0.0
O681 O 0.55269 0.53582 0.97225 0.0
O682 O 0.59132 0.49462 1.00382 0.0
O683 O 0.55236 0.48538 0.98924 0.0
O684 O 0.59936 0.54773 0.98416 0.0
O685 O 0.59906 0.56842 0.02445 0.0
O686 O 0.58185 0.52711 0.05284 0.0
O687 O 0.58891 0.57533 0.07346 0.0
H688 H 0.56243 0.68941 0.06367 0.0
H689 H 0.56749 0.7283 0.03892 0.0
H690 H 0.59956 0.67899 0.97734 0.0
H691 H 0.59456 0.64027 1.00226 0.0
H692 H 0.58612 0.42524 0.98438 0.0
H693 H 0.57731 0.38542 1.00828 0.0
H694 H 0.53545 0.43119 0.06017 0.0
H695 H 0.54508 0.47128 0.03726 0.0
La696 La 0.83725 0.32387 0.27206 0.0
La697 La 0.79482 0.28549 0.28654 0.0
C698 C 0.87853 0.35688 0.27117 0.0
C699 C 0.90465 0.3574 0.27492 0.0
C700 C 0.91996 0.36973 0.25763 0.0
C701 C 0.94531 0.37315 0.26256 0.0
C702 C 0.95551 0.36461 0.28504 0.0
C703 C 0.94016 0.35146 0.30181 0.0
C704 C 0.91483 0.34762 0.29665 0.0
C705 C 0.80561 0.29053 0.2291 0.0
C706 C 0.84217 0.26023 0.2828 0.0
C707 C 0.7519 0.25532 0.28448 0.0
C708 C 0.72859 0.26008 0.27367 0.0
C709 C 0.708 0.25428 0.28715 0.0
C710 C 0.68647 0.26114 0.27804 0.0
C711 C 0.68535 0.27384 0.25531 0.0
C712 C 0.706 0.27946 0.24182 0.0
C713 C 0.72744 0.27272 0.25094 0.0
C714 C 0.82706 0.31699 0.32894 0.0
C715 C 0.79009 0.34933 0.27707 0.0
O716 O 0.86484 0.33902 0.2492 0.0
O717 O 0.86759 0.35715 0.29311 0.0
O718 O 0.81691 0.31741 0.23115 0.0
O719 O 0.8124 0.28375 0.25092 0.0
O720 O 0.85343 0.28638 0.27884 0.0
O721 O 0.81841 0.25483 0.28572 0.0
O722 O 0.76406 0.27451 0.30656 0.0
O723 O 0.76615 0.24962 0.26611 0.0
O724 O 0.81382 0.29113 0.32793 0.0
O725 O 0.82012 0.32491 0.30784 0.0
O726 O 0.779 0.32226 0.27838 0.0
O727 O 0.81418 0.35579 0.27596 0.0
H728 H 0.91236 0.37737 0.24077 0.0
H729 H 0.95701 0.38331 0.24946 0.0
H730 H 0.94785 0.34456 0.31914 0.0
H731 H 0.90334 0.33775 0.31007 0.0
H732 H 0.7087 0.24485 0.3049 0.0
H733 H 0.67069 0.25641 0.28865 0.0
H734 H 0.70575 0.28962 0.22452 0.0
H735 H 0.74326 0.27788 0.24047 0.0
La736 La 0.0749 0.56565 0.5459 0.0
La737 La 0.07894 0.59132 0.49735 0.0
C738 C 0.06339 0.54771 0.58769 0.0
C739 C 0.04107 0.5318 0.5964 0.0
C740 C 0.03915 0.50327 0.5989 0.0
C741 C 0.01997 0.48902 0.6107 0.0
C742 C 1.00261 0.50329 0.62073 0.0
C743 C 1.00334 0.53087 0.61592 0.0
C744 C 0.02242 0.54502 0.60389 0.0
C745 C 0.09322 0.53698 0.50645 0.0
C746 C 0.02732 0.55423 0.50321 0.0
C747 C 0.07678 0.59905 0.44913 0.0
C748 C 0.08853 0.61352 0.42898 0.0
C749 C 0.07355 0.62179 0.40989 0.0
C750 C 0.08227 0.62894 0.38637 0.0
C751 C 0.10616 0.62792 0.38163 0.0
C752 C 0.12186 0.62212 0.40205 0.0
C753 C 0.11308 0.61487 0.42556 0.0
C754 C 0.07709 0.62798 0.54365 0.0
C755 C 0.12583 0.60112 0.53897 0.0
O756 O 0.07134 0.5329 0.56737 0.0
O757 O 0.06505 0.57443 0.58565 0.0
O758 O 0.10099 0.54153 0.53246 0.0
O759 O 0.07556 0.54837 0.50319 0.0
O760 O 0.03753 0.54666 0.52435 0.0
O761 O 0.03967 0.57274 0.49066 0.0
O762 O 0.06872 0.61447 0.46902 0.0
O763 O 0.08611 0.57935 0.45703 0.0
O764 O 0.09016 0.63456 0.52474 0.0
O765 O 0.06501 0.60188 0.53529 0.0
O766 O 0.11726 0.59668 0.51257 0.0
O767 O 0.11116 0.59594 0.55744 0.0
H768 H 0.0532 0.49247 0.59298 0.0
H769 H 0.01974 0.46766 0.61378 0.0
H770 H 0.99045 0.54269 0.62361 0.0
H771 H 0.02323 0.56686 0.60189 0.0
H772 H 0.05452 0.62081 0.41219 0.0
H773 H 0.06986 0.63354 0.3711 0.0
H774 H 0.14029 0.62087 0.39886 0.0
H775 H 0.12495 0.60852 0.44005 0.0
La776 La 0.80406 0.81822 0.28257 0.0
La777 La 0.85452 0.80141 0.28443 0.0
C778 C 0.75905 0.81654 0.28354 0.0
C779 C 0.73838 0.80956 0.2996 0.0
C780 C 0.73279 0.83193 0.31842 0.0
C781 C 0.71166 0.8267 0.33112 0.0
C782 C 0.69529 0.79896 0.32529 0.0
C783 C 0.70121 0.77635 0.30703 0.0
C784 C 0.72241 0.7816 0.29424 0.0
C785 C 0.84097 0.86429 0.27901 0.0
C786 C 0.83644 0.82319 0.34087 0.0
C787 C 0.8989 0.79997 0.28596 0.0
C788 C 0.92165 0.80578 0.27354 0.0
C789 C 0.93671 0.78681 0.27423 0.0
C790 C 0.95863 0.79115 0.26308 0.0
C791 C 0.96608 0.81467 0.25094 0.0
C792 C 0.95079 0.83361 0.25 0.0
C793 C 0.92872 0.82922 0.26125 0.0
C794 C 0.81729 0.75525 0.28757 0.0
C795 C 0.82482 0.79945 0.22638 0.0
O796 O 0.77726 0.83918 0.29511 0.0
O797 O 0.76676 0.79539 0.26949 0.0
O798 O 0.81778 0.8633 0.27749 0.0
O799 O 0.84194 0.83904 0.28148 0.0
O800 O 0.81466 0.82218 0.32739 0.0
O801 O 0.85496 0.81842 0.32795 0.0
O802 O 0.88043 0.77926 0.27132 0.0
O803 O 0.89185 0.82179 0.29979 0.0
O804 O 0.84028 0.756 0.28774 0.0
O805 O 0.81651 0.78071 0.28579 0.0
O806 O 0.84625 0.80187 0.24115 0.0
O807 O 0.80489 0.80197 0.23799 0.0
H808 H 0.74444 0.85381 0.32285 0.0
H809 H 0.70802 0.84459 0.34536 0.0
H810 H 0.68899 0.75475 0.30179 0.0
H811 H 0.72587 0.76393 0.27956 0.0
H812 H 0.93147 0.76847 0.28347 0.0
H813 H 0.96962 0.77583 0.26372 0.0
H814 H 0.95605 0.85205 0.24094 0.0
H815 H 0.9173 0.84408 0.26043 0.0
La816 La 0.82554 0.31136 0.76437 0.0
La817 La 0.80293 0.32101 0.81685 0.0
C818 C 0.83247 0.30893 0.71542 0.0
C819 C 0.85179 0.32026 0.70013 0.0
C820 C 0.85178 0.30499 0.67325 0.0
C821 C 0.86533 0.31863 0.65557 0.0
C822 C 0.87874 0.34765 0.66473 0.0
C823 C 0.88102 0.36175 0.69254 0.0
C824 C 0.86768 0.34801 0.7103 0.0
C825 C 0.85539 0.30325 0.80509 0.0
C826 C 0.84489 0.37099 0.80944 0.0
C827 C 0.78156 0.31787 0.85839 0.0
C828 C 0.77281 0.295 0.87266 0.0
C829 C 0.75589 0.29818 0.89105 0.0
C830 C 0.74763 0.27652 0.90494 0.0
C831 C 0.75599 0.25129 0.90028 0.0
C832 C 0.77221 0.24776 0.881 0.0
C833 C 0.78069 0.26956 0.86746 0.0
C834 C 0.78385 0.33921 0.77532 0.0
C835 C 0.79306 0.25825 0.77924 0.0
O836 O 0.83634 0.28963 0.72882 0.0
O837 O 0.82272 0.32812 0.72951 0.0
O838 O 0.86 0.30233 0.78014 0.0
O839 O 0.83499 0.30941 0.80603 0.0
O840 O 0.84194 0.3576 0.78294 0.0
O841 O 0.83341 0.35903 0.82767 0.0
O842 O 0.77003 0.31347 0.83342 0.0
O843 O 0.80548 0.32712 0.85981 0.0
O844 O 0.78855 0.35312 0.80087 0.0
O845 O 0.79004 0.31573 0.77361 0.0
O846 O 0.79602 0.27421 0.80451 0.0
O847 O 0.79984 0.26949 0.7586 0.0
H848 H 0.83969 0.28347 0.66523 0.0
H849 H 0.86315 0.30765 0.63405 0.0
H850 H 0.89111 0.38428 0.69977 0.0
H851 H 0.8681 0.35996 0.73116 0.0
H852 H 0.74945 0.31762 0.89502 0.0
H853 H 0.73523 0.27977 0.91983 0.0
H854 H 0.77938 0.22884 0.87747 0.0
H855 H 0.79389 0.26685 0.8535 0.0
La856 La 0.8398 0.82499 0.79108 0.0
La857 La 0.80662 0.77001 0.76126 0.0
C858 C 0.86009 0.87815 0.8029 0.0
C859 C 0.84821 0.90089 0.79857 0.0
C860 C 0.8494 0.92432 0.8205 0.0
C861 C 0.83294 0.94144 0.81906 0.0
C862 C 0.81494 0.93516 0.79573 0.0
C863 C 0.8151 0.91307 0.773 0.0
C864 C 0.83159 0.89614 0.77438 0.0
C865 C 0.82861 0.78933 0.82411 0.0
C866 C 0.78165 0.81806 0.78237 0.0
C867 C 0.7855 0.71692 0.74466 0.0
C868 C 0.79584 0.69162 0.74228 0.0
C869 C 0.81352 0.68778 0.72481 0.0
C870 C 0.82798 0.66878 0.72814 0.0
C871 C 0.82504 0.6536 0.74905 0.0
C872 C 0.80583 0.65535 0.76464 0.0
C873 C 0.79123 0.67407 0.76115 0.0
C874 C 0.81931 0.80741 0.72977 0.0
C875 C 0.8645 0.77585 0.77282 0.0
O876 O 0.8514 0.86421 0.82107 0.0
O877 O 0.86251 0.86052 0.78048 0.0
O878 O 0.84969 0.80786 0.82605 0.0
O879 O 0.81409 0.79207 0.80439 0.0
O880 O 0.80402 0.83569 0.78728 0.0
O881 O 0.77799 0.78993 0.77361 0.0
O882 O 0.79178 0.73398 0.72807 0.0
O883 O 0.78688 0.73164 0.76992 0.0
O884 O 0.79748 0.79035 0.72753 0.0
O885 O 0.83282 0.80244 0.74878 0.0
O886 O 0.84203 0.75868 0.7649 0.0
O887 O 0.8686 0.80387 0.78281 0.0
H888 H 0.86195 0.9282 0.83938 0.0
H889 H 0.83353 0.95873 0.8367 0.0
H890 H 0.80137 0.90747 0.75485 0.0
H891 H 0.83001 0.87797 0.7572 0.0
H892 H 0.81747 0.7009 0.70996 0.0
H893 H 0.84274 0.66781 0.71595 0.0
H894 H 0.80316 0.64363 0.78077 0.0
H895 H 0.77764 0.6765 0.77473 0.0
La896 La 0.55666 0.54131 0.51031 0.0
La897 La 0.60084 0.58449 0.54764 0.0
C898 C 0.51228 0.51427 0.49614 0.0
C899 C 0.49134 0.5256 0.50324 0.0
C900 C 0.46727 0.51135 0.49036 0.0
C901 C 0.44821 0.52475 0.49521 0.0
C902 C 0.45336 0.55252 0.51263 0.0
C903 C 0.47728 0.56623 0.52602 0.0
C904 C 0.49609 0.55283 0.52144 0.0
C905 C 0.59402 0.54725 0.47954 0.0
C906 C 0.56596 0.60949 0.51264 0.0
C907 C 0.64429 0.61303 0.56663 0.0
C908 C 0.6678 0.6052 0.56578 0.0
C909 C 0.68329 0.60943 0.59058 0.0
C910 C 0.70375 0.59813 0.59102 0.0
C911 C 0.70927 0.58259 0.56655 0.0
C912 C 0.69415 0.57927 0.54154 0.0
C913 C 0.67349 0.59026 0.54118 0.0
C914 C 0.5622 0.57798 0.57753 0.0
C915 C 0.59436 0.51653 0.5424 0.0
O916 O 0.52533 0.52786 0.48026 0.0
O917 O 0.52613 0.51091 0.51705 0.0
O918 O 0.57241 0.52933 0.47205 0.0
O919 O 0.59432 0.55969 0.50499 0.0
O920 O 0.5502 0.58347 0.50637 0.0
O921 O 0.58767 0.61463 0.52761 0.0
O922 O 0.62954 0.59905 0.58079 0.0
O923 O 0.6327 0.61466 0.54334 0.0
O924 O 0.58371 0.59587 0.58549 0.0
O925 O 0.56315 0.56615 0.55237 0.0
O926 O 0.60893 0.54315 0.54989 0.0
O927 O 0.57239 0.51061 0.52754 0.0
H928 H 0.46339 0.49044 0.47607 0.0
H929 H 0.42974 0.51403 0.48467 0.0
H930 H 0.4815 0.58764 0.53955 0.0
H931 H 0.51453 0.56417 0.53157 0.0
H932 H 0.67898 0.62051 0.60983 0.0
H933 H 0.71476 0.60077 0.61069 0.0
H934 H 0.69812 0.56793 0.52224 0.0
H935 H 0.66165 0.58637 0.52177 0.0
La936 La 0.09579 0.56701 0.04793 0.0
La937 La 0.04073 0.55635 0.05097 0.0
C938 C 0.14052 0.56704 0.0572 0.0
C939 C 0.15677 0.54708 0.05459 0.0
C940 C 0.17707 0.55292 0.04059 0.0
C941 C 0.19414 0.53627 0.03992 0.0
C942 C 0.19141 0.51329 0.05334 0.0
C943 C 0.17073 0.50706 0.06693 0.0
C944 C 0.1536 0.52375 0.06755 0.0
C945 C 0.06865 0.56756 1.00305 0.0
C946 C 0.06024 0.50142 0.03373 0.0
C947 C 0.99593 0.55672 0.0472 0.0
C948 C 0.98009 0.57676 0.04539 0.0
C949 C 0.96492 0.58131 0.06562 0.0
C950 C 0.94831 0.59823 0.06342 0.0
C951 C 0.94628 0.61088 0.04075 0.0
C952 C 0.96189 0.60677 0.02074 0.0
C953 C 0.9786 0.58994 0.02303 0.0
C954 C 0.06939 0.55732 0.09574 0.0
C955 C 0.07489 0.62113 0.05888 0.0
O956 O 0.13042 0.57148 0.03441 0.0
O957 O 0.12538 0.56515 0.07539 0.0
O958 O 0.09134 0.58271 1.01054 0.0
O959 O 0.06279 0.55117 0.01908 0.0
O960 O 0.0829 0.51903 0.0393 0.0
O961 O 0.04042 0.51142 0.03501 0.0
O962 O 1.01016 0.56117 0.07065 0.0
O963 O 1.00695 0.54936 0.026 0.0
O964 O 0.04787 0.53934 0.08749 0.0
O965 O 0.07367 0.57344 0.07931 0.0
O966 O 0.05278 0.60266 0.0511 0.0
O967 O 0.09497 0.61202 0.06294 0.0
H968 H 0.18012 0.57096 0.03071 0.0
H969 H 0.20997 0.54211 0.02966 0.0
H970 H 0.16784 0.48939 0.07727 0.0
H971 H 0.13816 0.51867 0.07859 0.0
H972 H 0.96563 0.57136 0.08303 0.0
H973 H 0.93698 0.60127 0.07949 0.0
H974 H 0.96072 0.61584 1.00281 0.0
H975 H 0.98996 0.5868 1.00699 0.0
H976 H 0.99248 0.19224 0.97112 0.0
H977 H 0.06468 0.24213 0.96486 0.0
H978 H 0.08324 0.20789 0.98273 0.0
H979 H 0.0792 0.16235 0.9986 0.0
H980 H 1.00679 0.1109 1.00209 0.0
H981 H 0.98843 0.14679 0.98714 0.0
C982 C 1.01229 0.19582 0.97392 0.0
C983 C 0.02704 0.22006 0.96664 0.0
C984 C 0.02296 0.17547 0.98367 0.0
C985 C 0.05272 0.22384 0.97015 0.0
C986 C 0.06343 0.20416 0.98042 0.0
C987 C 0.05941 0.15908 0.99632 0.0
C988 C 0.04453 0.13373 1.00161 0.0
C989 C 0.04877 0.17969 0.98702 0.0
C990 C 0.01885 0.12996 0.99814 0.0
C991 C 1.00826 0.15059 0.98957 0.0
H992 H 0.18736 0.79804 0.17902 0.0
H993 H 0.20572 0.89088 0.19122 0.0
H994 H 0.24464 0.89473 0.21962 0.0
H995 H 0.27241 0.87167 0.24377 0.0
H996 H 0.25356 0.77869 0.23042 0.0
H997 H 0.21618 0.77501 0.19984 0.0
C998 C 0.19994 0.81917 0.18764 0.0
C999 C 0.19336 0.84416 0.18301 0.0
C1000 C 0.22228 0.8212 0.20401 0.0
C1001 C 0.21017 0.87125 0.19426 0.0
C1002 C 0.23243 0.87347 0.2107 0.0
C1003 C 0.26019 0.85062 0.23396 0.0
C1004 C 0.26589 0.82548 0.2395 0.0
C1005 C 0.23852 0.84861 0.21615 0.0
C1006 C 0.24978 0.79838 0.22658 0.0
C1007 C 0.22832 0.79626 0.20906 0.0
H1008 H 0.49502 0.86028 0.47822 0.0
H1009 H 0.56593 0.85266 0.45766 0.0
H1010 H 0.58314 0.90481 0.47611 0.0
H1011 H 0.57745 0.95342 0.49611 0.0
H1012 H 0.50536 0.96037 0.51291 0.0
H1013 H 0.48938 0.90801 0.49806 0.0
C1014 C 0.51434 0.86989 0.47809 0.0
C1015 C 0.52915 0.85236 0.46672 0.0
C1016 C 0.52391 0.90003 0.48791 0.0
C1017 C 0.55406 0.86549 0.46633 0.0
C1018 C 0.56391 0.89539 0.47684 0.0
C1019 C 0.5583 0.9434 0.49669 0.0
C1020 C 0.54264 0.96094 0.50559 0.0
C1021 C 0.54895 0.91302 0.48738 0.0
C1022 C 0.51781 0.94755 0.50596 0.0
C1023 C 0.50863 0.91751 0.49752 0.0
H1024 H 0.57282 0.32845 0.71882 0.0
H1025 H 0.53523 0.29822 0.63534 0.0
H1026 H 0.49568 0.28729 0.65198 0.0
H1027 H 0.47148 0.28986 0.69018 0.0
H1028 H 0.50882 0.32225 0.77386 0.0
H1029 H 0.54852 0.32794 0.75736 0.0
C1030 C 0.55597 0.31901 0.70435 0.0
C1031 C 0.55688 0.31469 0.6759 0.0
C1032 C 0.53316 0.31317 0.71414 0.0
C1033 C 0.53495 0.30254 0.65732 0.0
C1034 C 0.51231 0.29611 0.66684 0.0
C1035 C 0.48828 0.29814 0.70485 0.0
C1036 C 0.48699 0.30575 0.73325 0.0
C1037 C 0.51113 0.30208 0.6952 0.0
C1038 C 0.50908 0.31588 0.75191 0.0
C1039 C 0.53188 0.3194 0.74248 0.0
H1040 H 0.99531 0.80465 0.57939 0.0
H1041 H 0.04297 0.86075 0.65199 0.0
H1042 H 0.05846 0.8958 0.62546 0.0
H1043 H 0.05787 0.91136 0.5822 0.0
H1044 H 1.01114 0.85588 0.50904 0.0
H1045 H 0.99618 0.81952 0.53508 0.0
C1046 C 1.00904 0.82457 0.58937 0.0
C1047 C 0.0178 0.83011 0.61768 0.0
C1048 C 0.01815 0.84467 0.5739 0.0
C1049 C 0.03586 0.85588 0.63024 0.0
C1050 C 0.04476 0.876 0.61511 0.0
C1051 C 0.04442 0.89127 0.57199 0.0
C1052 C 0.03542 0.88631 0.54391 0.0
C1053 C 0.03594 0.8707 0.58703 0.0
C1054 C 0.01836 0.86004 0.53069 0.0
C1055 C 1.00971 0.83939 0.54559 0.0
H1056 H 0.55217 0.81024 0.7992 0.0
H1057 H 0.58841 0.90105 0.8144 0.0
H1058 H 0.54891 0.91161 0.80281 0.0
H1059 H 0.50348 0.89531 0.79487 0.0
H1060 H 0.4679 0.80424 0.78161 0.0
H1061 H 0.50772 0.79336 0.78526 0.0
C1062 C 0.55143 0.83222 0.79912 0.0
C1063 C 0.57293 0.85485 0.80755 0.0
C1064 C 0.52875 0.83806 0.79308 0.0
C1065 C 0.57201 0.88329 0.80755 0.0
C1066 C 0.54941 0.88933 0.8013 0.0
C1067 C 0.50451 0.87308 0.79249 0.0
C1068 C 0.48276 0.85067 0.78826 0.0
C1069 C 0.52756 0.86697 0.79509 0.0
C1070 C 0.48431 0.82189 0.78471 0.0
C1071 C 0.50709 0.81564 0.78699 0.0
H1072 H 0.49875 0.16281 0.12554 0.0
H1073 H 0.56098 0.23725 0.15473 0.0
H1074 H 0.58838 0.20921 0.13575 0.0
H1075 H 0.59406 0.16512 0.1062 0.0
H1076 H 0.53248 0.08983 0.07897 0.0
H1077 H 0.50569 0.11632 0.10217 0.0
C1078 C 0.51834 0.17272 0.12805 0.0
C1079 C 0.52768 0.20218 0.14117 0.0
C1080 C 0.53419 0.15634 0.11735 0.0
C1081 C 0.55321 0.21463 0.14465 0.0
C1082 C 0.56896 0.19864 0.1337 0.0
C1083 C 0.57491 0.15437 0.10593 0.0
C1084 C 0.56524 0.12577 0.09062 0.0
C1085 C 0.55957 0.16971 0.11938 0.0
C1086 C 0.54041 0.11192 0.09056 0.0
C1087 C 0.52499 0.12712 0.10366 0.0
H1088 H 0.20635 0.38604 0.3565 0.0
H1089 H 0.16234 0.2984 0.32358 0.0
H1090 H 0.19523 0.28678 0.29903 0.0
H1091 H 0.2363 0.3007 0.28784 0.0
H1092 H 0.28169 0.38781 0.31999 0.0
H1093 H 0.24813 0.4008 0.34321 0.0
C1094 C 0.20416 0.36441 0.34412 0.0
C1095 C 0.18216 0.34281 0.34212 0.0
C1096 C 0.22315 0.35793 0.32964 0.0
C1097 C 0.17926 0.31512 0.3256 0.0
C1098 C 0.19797 0.30852 0.31145 0.0
C1099 C 0.23894 0.32265 0.29976 0.0
C1100 C 0.26156 0.34314 0.30239 0.0
C1101 C 0.21995 0.32968 0.31339 0.0
C1102 C 0.26443 0.37156 0.31765 0.0
C1103 C 0.24533 0.37892 0.33112 0.0
H1104 H 0.97487 0.0395 0.14612 0.0
H1105 H 0.01806 0.11594 0.20534 0.0
H1106 H 0.04612 0.12575 0.17179 0.0
H1107 H 0.05962 0.11251 0.12536 0.0
H1108 H 1.01668 0.03594 0.0664 0.0
H1109 H 0.98784 0.02688 0.09935 0.0
C1110 C 0.99033 0.05851 0.15193 0.0
C1111 C 0.99376 0.07689 0.17913 0.0
C1112 C 1.00674 0.06417 0.13209 0.0
C1113 C 1.0143 0.10122 0.18522 0.0
C1114 C 0.03058 0.10685 0.16576 0.0
C1115 C 0.04387 0.09384 0.11943 0.0
C1116 C 0.04061 0.07527 0.09241 0.0
C1117 C 0.02719 0.08849 0.13907 0.0
C1118 C 0.0199 0.05118 0.08614 0.0
C1119 C 1.00334 0.04582 0.10539 0.0
H1120 H 0.28755 0.71019 0.49427 0.0
H1121 H 0.3583 0.77043 0.52644 0.0
H1122 H 0.34756 0.80464 0.50117 0.0
H1123 H 0.32085 0.81389 0.46465 0.0
H1124 H 0.25253 0.75114 0.42809 0.0
H1125 H 0.25904 0.72163 0.46084 0.0
C1126 C 0.30041 0.73103 0.4961 0.0
C1127 C 0.32379 0.73771 0.51181 0.0
C1128 C 0.29447 0.75007 0.48075 0.0
C1129 C 0.34035 0.7647 0.51404 0.0
C1130 C 0.3342 0.78427 0.4997 0.0
C1131 C 0.30704 0.79427 0.46464 0.0
C1132 C 0.28619 0.78464 0.44444 0.0
C1133 C 0.31169 0.77674 0.48228 0.0
C1134 C 0.26856 0.75891 0.44385 0.0
C1135 C 0.27244 0.74197 0.4623 0.0
H1136 H 0.60412 1.0015 0.67119 0.0
H1137 H 0.66824 0.06817 0.6673 0.0
H1138 H 0.64519 0.0814 0.6304 0.0
H1139 H 0.60607 0.07613 0.60154 0.0
H1140 H 0.54256 1.00828 0.60415 0.0
H1141 H 0.56585 0.9943 0.64043 0.0
C1142 C 0.6132 1.0187 0.66207 0.0
C1143 C 0.63782 0.03396 0.67215 0.0
C1144 C 0.59975 0.02651 0.64126 0.0
C1145 C 0.64931 0.05606 0.65994 0.0
C1146 C 0.63608 0.06385 0.63906 0.0
C1147 C 0.59742 0.05816 0.60998 0.0
C1148 C 0.5728 0.04301 0.60011 0.0
C1149 C 0.61116 0.04964 0.63003 0.0
C1150 C 0.56156 1.02017 0.61146 0.0
C1151 C 0.57491 1.01203 0.63198 0.0
H1152 H 0.38253 0.3616 0.96827 0.0
H1153 H 0.31224 0.37939 0.97788 0.0
H1154 H 0.29954 0.36353 0.92787 0.0
H1155 H 0.30889 0.34582 0.8807 0.0
H1156 H 0.38031 0.33068 0.87206 0.0
H1157 H 0.39183 0.34426 0.92187 0.0
C1158 C 0.36429 0.36173 0.95957 0.0
C1159 C 0.34835 0.37152 0.97721 0.0
C1160 C 0.35729 0.35323 0.93063 0.0
C1161 C 0.32495 0.37188 0.96511 0.0
C1162 C 0.31767 0.36287 0.93637 0.0
C1163 C 0.32696 0.34544 0.88968 0.0
C1164 C 0.34365 0.33719 0.87219 0.0
C1165 C 0.33376 0.35371 0.9188 0.0
C1166 C 0.36701 0.33702 0.88458 0.0
C1167 C 0.37367 0.34474 0.91327 0.0
H1168 H 0.99275 0.11472 0.3766 0.0
H1169 H 0.99833 0.03401 0.32704 0.0
H1170 H 0.01844 0.02323 0.36749 0.0
H1171 H 0.03575 0.03647 0.41748 0.0
H1172 H 0.033 0.1185 0.46699 0.0
H1173 H 1.01125 0.12863 0.42699 0.0
C1174 C 0.99806 0.09458 0.37461 0.0
C1175 C 0.99333 0.07507 0.34807 0.0
C1176 C 1.01065 0.08869 0.39839 0.0
C1177 C 1.00123 0.04952 0.34662 0.0
C1178 C 1.01295 0.0433 0.37001 0.0
C1179 C 0.03049 0.05666 0.41972 0.0
C1180 C 0.03639 0.07654 0.44605 0.0
C1181 C 0.01802 0.0627 0.3961 0.0
C1182 C 0.02912 0.10254 0.44759 0.0
C1183 C 1.01645 0.10839 0.42444 0.0
H1184 H 0.31953 0.70637 0.6319 0.0
H1185 H 0.39111 0.7587 0.62624 0.0
H1186 H 0.38786 0.79554 0.6659 0.0
H1187 H 0.36429 0.81296 0.70194 0.0
H1188 H 0.29344 0.75934 0.70747 0.0
H1189 H 0.29642 0.72328 0.66736 0.0
C1190 C 0.33458 0.72571 0.63935 0.0
C1191 C 0.35555 0.72971 0.62606 0.0
C1192 C 0.33241 0.7469 0.66169 0.0
C1193 C 0.37483 0.75493 0.63618 0.0
C1194 C 0.37287 0.77615 0.65867 0.0
C1195 C 0.34929 0.79368 0.69386 0.0
C1196 C 0.32834 0.78904 0.7071 0.0
C1197 C 0.35159 0.77251 0.67136 0.0
C1198 C 0.30942 0.76359 0.6972 0.0
C1199 C 0.31127 0.74283 0.67449 0.0
H1200 H 0.61246 0.0947 0.79506 0.0
H1201 H 0.68726 0.11226 0.83419 0.0
H1202 H 0.67891 0.14403 0.87421 0.0
H1203 H 0.64865 0.1587 0.90133 0.0
H1204 H 0.57207 0.13282 0.8658 0.0
H1205 H 0.58282 0.11464 0.82082 0.0
C1206 C 0.62691 0.10593 0.81224 0.0
C1207 C 0.65021 0.10068 0.81219 0.0
C1208 C 0.62159 0.12302 0.83581 0.0
C1209 C 0.66901 0.11536 0.83423 0.0
C1210 C 0.66428 0.13373 0.85702 0.0
C1211 C 0.63436 0.14953 0.8836 0.0
C1212 C 0.6096 0.14609 0.88713 0.0
C1213 C 0.64036 0.1365 0.85857 0.0
C1214 C 0.59132 0.13545 0.86381 0.0
C1215 C 0.5974 0.12452 0.83812 0.0
H1216 H 0.31566 0.37667 0.12699 0.0
H1217 H 0.38315 0.34997 0.12487 0.0
H1218 H 0.37728 0.33259 0.16657 0.0
H1219 H 0.35363 0.32555 0.20497 0.0
H1220 H 0.28477 0.34875 0.20581 0.0
H1221 H 0.29065 0.36695 0.16408 0.0
C1222 C 0.32896 0.36674 0.1354 0.0
C1223 C 0.34989 0.36485 0.12232 0.0
C1224 C 0.32542 0.3564 0.1597 0.0
C1225 C 0.3668 0.35185 0.13399 0.0
C1226 C 0.36356 0.34196 0.15815 0.0
C1227 C 0.34 0.33479 0.19613 0.0
C1228 C 0.31891 0.33612 0.20887 0.0
C1229 C 0.34311 0.34437 0.17144 0.0
C1230 C 0.30124 0.34762 0.19665 0.0
C1231 C 0.30457 0.35796 0.17266 0.0
H1232 H 0.27207 1.00393 1.00445 0.0
H1233 H 0.32594 0.08657 0.02297 0.0
H1234 H 0.29335 0.1115 0.02736 0.0
H1235 H 0.24974 0.10992 0.02928 0.0
H1236 H 0.19613 0.02723 1.01186 0.0
H1237 H 0.22835 1.00234 1.00357 0.0
C1238 C 0.27668 0.02739 1.00906 0.0
C1239 C 0.30144 0.04332 1.01361 0.0
C1240 C 0.25788 0.04164 1.01201 0.0
C1241 C 0.30705 0.07373 0.01953 0.0
C1242 C 0.28842 0.08805 0.02216 0.0
C1243 C 0.24516 0.08646 0.02366 0.0
C1244 C 0.22062 0.07048 0.02128 0.0
C1245 C 0.26382 0.07224 0.01908 0.0
C1246 C 0.21487 0.04008 1.01359 0.0
C1247 C 0.23329 0.0258 1.00896 0.0
H1248 H 0.71236 0.66278 0.02092 0.0
H1249 H 0.70911 0.62096 0.93553 0.0
H1250 H 0.66777 0.59156 0.93514 0.0
H1251 H 0.63347 0.5751 0.95964 0.0
H1252 H 0.63684 0.6149 0.04546 0.0
H1253 H 0.67678 0.64773 0.04502 0.0
C1254 C 0.70245 0.64756 1.00212 0.0
C1255 C 0.71398 0.64414 0.97829 0.0
C1256 C 0.67864 0.63014 1.00215 0.0
C1257 C 0.70085 0.62406 0.95421 0.0
C1258 C 0.67714 0.60713 0.95396 0.0
C1259 C 0.64286 0.59111 0.97821 0.0
C1260 C 0.63214 0.5925 1.00254 0.0
C1261 C 0.66603 0.60955 0.97791 0.0
C1262 C 0.64456 0.61343 0.02639 0.0
C1263 C 0.6675 0.63215 0.02618 0.0
H1264 H 0.71154 0.4297 0.28598 0.0
H1265 H 0.77568 0.49579 0.28211 0.0
H1266 H 0.79997 0.4601 0.27727 0.0
H1267 H 0.80452 0.40953 0.27589 0.0
H1268 H 0.74039 0.34337 0.2801 0.0
H1269 H 0.71574 0.37854 0.28282 0.0
C1270 C 0.73068 0.43637 0.28335 0.0
C1271 C 0.74105 0.46628 0.28354 0.0
C1272 C 0.74516 0.41517 0.28093 0.0
C1273 C 0.76642 0.47349 0.28127 0.0
C1274 C 0.78062 0.45279 0.27873 0.0
C1275 C 0.78512 0.40247 0.27723 0.0
C1276 C 0.77497 0.3727 0.27773 0.0
C1277 C 0.77046 0.42343 0.27879 0.0
C1278 C 0.74947 0.36535 0.27961 0.0
C1279 C 0.73506 0.38584 0.2812 0.0
H1280 H 0.91734 0.48551 0.4726 0.0
H1281 H 0.90825 0.57126 0.49981 0.0
H1282 H 0.95197 0.59204 0.49864 0.0
H1283 H 0.99383 0.58468 0.50088 0.0
H1284 H 1.00284 0.49797 0.48445 0.0
H1285 H 0.95829 0.47815 0.47152 0.0
C1286 C 0.92495 0.50876 0.47771 0.0
C1287 C 0.91011 0.5269 0.48695 0.0
C1288 C 0.95026 0.52008 0.48004 0.0
C1289 C 0.91954 0.55699 0.49258 0.0
C1290 C 0.94459 0.56876 0.49253 0.0
C1291 C 0.98587 0.56149 0.49406 0.0
C1292 C 1.00108 0.54256 0.49377 0.0
C1293 C 0.96032 0.55039 0.48814 0.0
C1294 C 0.99109 0.51263 0.4851 0.0
C1295 C 0.96579 0.50143 0.47756 0.0
H1296 H 0.40147 0.10323 0.27409 0.0
H1297 H 0.37018 0.09265 0.34801 0.0
H1298 H 0.33604 0.11104 0.33285 0.0
H1299 H 0.31767 0.13511 0.30133 0.0
H1300 H 0.35035 0.14866 0.22903 0.0
H1301 H 0.38087 0.12323 0.24038 0.0
C1302 C 0.38705 0.1046 0.28676 0.0
C1303 C 0.38865 0.09703 0.31239 0.0
C1304 C 0.36766 0.11566 0.27817 0.0
C1305 C 0.36964 0.09871 0.32838 0.0
C1306 C 0.35007 0.10919 0.31973 0.0
C1307 C 0.33132 0.13218 0.28791 0.0
C1308 C 0.33195 0.14401 0.26459 0.0
C1309 C 0.34931 0.11851 0.29508 0.0
C1310 C 0.34939 0.1396 0.24703 0.0
C1311 C 0.36702 0.12535 0.25368 0.0
H1312 H 0.34033 0.13945 0.53785 0.0
H1313 H 0.38016 0.21269 0.5101 0.0
H1314 H 0.4173 0.19626 0.51394 0.0
H1315 H 0.43809 0.1594 0.52172 0.0
H1316 H 0.39856 0.08478 0.54752 0.0
H1317 H 0.36215 0.10358 0.54829 0.0
C1318 C 0.35723 0.15203 0.53304 0.0
C1319 C 0.35727 0.1774 0.52379 0.0
C1320 C 0.37871 0.14208 0.53476 0.0
C1321 C 0.37939 0.19326 0.5175 0.0
C1322 C 0.40076 0.18377 0.51951 0.0
C1323 C 0.42153 0.14723 0.52755 0.0
C1324 C 0.42111 0.12059 0.53434 0.0
C1325 C 0.40052 0.15793 0.52754 0.0
C1326 C 0.39956 0.10545 0.54237 0.0
C1327 C 0.37862 0.1161 0.54263 0.0
H1328 H 0.72754 0.64612 0.29394 0.0
H1329 H 0.78847 0.60685 0.29435 0.0
H1330 H 0.81609 0.65178 0.29124 0.0
H1331 H 0.82447 0.70259 0.28906 0.0
H1332 H 0.76581 0.74494 0.28893 0.0
H1333 H 0.73651 0.6994 0.2912 0.0
C1334 C 0.74681 0.64726 0.29318 0.0
C1335 C 0.75541 0.62208 0.29443 0.0
C1336 C 0.76338 0.67418 0.29151 0.0
C1337 C 0.78075 0.625 0.29355 0.0
C1338 C 0.79684 0.65105 0.29175 0.0
C1339 C 0.80526 0.70217 0.28948 0.0
C1340 C 0.79777 0.72786 0.28873 0.0
C1341 C 0.78855 0.67582 0.29086 0.0
C1342 C 0.77254 0.72603 0.28935 0.0
C1343 C 0.75567 0.6997 0.2907 0.0
H1344 H 0.90879 0.49699 0.8684 0.0
H1345 H 0.93715 0.48793 0.79077 0.0
H1346 H 0.91003 0.43955 0.77456 0.0
H1347 H 0.87774 0.39983 0.78179 0.0
H1348 H 0.84953 0.40823 0.85943 0.0
H1349 H 0.87702 0.45661 0.87604 0.0
C1350 C 0.90916 0.48438 0.84803 0.0
C1351 C 0.92505 0.49624 0.83096 0.0
C1352 C 0.89342 0.45637 0.83865 0.0
C1353 C 0.92521 0.47949 0.80453 0.0
C1354 C 0.90962 0.45174 0.7951 0.0
C1355 C 0.87755 0.41225 0.80232 0.0
C1356 C 0.86153 0.40041 0.81924 0.0
C1357 C 0.89354 0.44002 0.81189 0.0
C1358 C 0.86169 0.41676 0.8459 0.0
C1359 C 0.87741 0.44448 0.85547 0.0
H1360 H 0.13176 0.94065 0.10402 0.0
H1361 H 0.08377 0.87382 0.03875 0.0
H1362 H 0.07498 0.91012 0.01525 0.0
H1363 H 0.07646 0.96122 0.01608 0.0
H1364 H 0.12559 0.02844 0.0801 0.0
H1365 H 0.13825 0.99205 0.10089 0.0
C1366 C 0.1202 0.93397 0.08411 0.0
C1367 C 0.10854 0.90432 0.07325 0.0
C1368 C 0.11479 0.95524 0.0707 0.0
C1369 C 0.09315 0.89635 0.04762 0.0
C1370 C 0.08783 0.91719 0.03426 0.0
C1371 C 0.09014 0.96793 0.0344 0.0
C1372 C 0.09972 0.99769 0.04661 0.0
C1373 C 0.09774 0.94677 0.04611 0.0
C1374 C 0.11774 1.0058 0.07018 0.0
C1375 C 0.12502 0.98491 0.08218 0.0
H1376 H 0.92862 0.26929 0.88905 0.0
H1377 H 0.97931 0.33693 0.86378 0.0
H1378 H 0.94564 0.34715 0.83768 0.0
H1379 H 0.9024 0.33429 0.81766 0.0
H1380 H 0.84991 0.26899 0.84286 0.0
H1381 H 0.88316 0.2608 0.87326 0.0
C1382 C 0.93221 0.28657 0.87824 0.0
C1383 C 0.95685 0.30187 0.87824 0.0
C1384 C 0.91232 0.29276 0.86297 0.0
C1385 C 0.96086 0.32431 0.86406 0.0
C1386 C 0.9415 0.33032 0.84898 0.0
C1387 C 0.89814 0.31873 0.83033 0.0
C1388 C 0.87373 0.30239 0.8281 0.0
C1389 C 0.91728 0.31427 0.84766 0.0
C1390 C 0.86851 0.28217 0.8445 0.0
C1391 C 0.88763 0.2773 0.86168 0.0
H1392 H 0.61858 0.24782 0.60408 0.0
H1393 H 0.55344 0.24816 0.55199 0.0
H1394 H 0.54634 0.19672 0.53219 0.0
H1395 H 0.55657 0.1507 0.53173 0.0
H1396 H 0.62165 0.14926 0.583 0.0
H1397 H 0.63079 0.20173 0.60074 0.0
C1398 C 0.60307 0.23676 0.58808 0.0
C1399 C 0.58649 0.25209 0.57984 0.0
C1400 C 0.59887 0.20675 0.57673 0.0
C1401 C 0.56646 0.23715 0.55904 0.0
C1402 C 0.5623 0.20757 0.54766 0.0
C1403 C 0.57285 0.16182 0.54669 0.0
C1404 C 0.58822 0.14586 0.55619 0.0
C1405 C 0.57803 0.19201 0.55676 0.0
C1406 C 0.60942 0.16086 0.57532 0.0
C1407 C 0.61464 0.19094 0.58554 0.0
H1408 H 0.59733 0.76006 0.37666 0.0
H1409 H 0.58967 0.84257 0.36414 0.0
H1410 H 0.62861 0.85082 0.34617 0.0
H1411 H 0.66442 0.83442 0.33267 0.0
H1412 H 0.67291 0.75226 0.34504 0.0
H1413 H 0.63415 0.74405 0.36397 0.0
C1414 C 0.60423 0.7799 0.37013 0.0
C1415 C 0.59037 0.8006 0.37181 0.0
C1416 C 0.62681 0.78457 0.35955 0.0
C1417 C 0.59973 0.82616 0.36314 0.0
C1418 C 0.62209 0.83094 0.35279 0.0
C1419 C 0.65803 0.81485 0.33982 0.0
C1420 C 0.67178 0.79405 0.33739 0.0
C1421 C 0.63574 0.81028 0.35075 0.0
C1422 C 0.66272 0.76856 0.3463 0.0
C1423 C 0.64056 0.7639 0.3573 0.0
H1424 H 0.06027 0.28781 0.43098 0.0
H1425 H 0.13852 0.30279 0.4301 0.0
H1426 H 0.14088 0.27252 0.46314 0.0
H1427 H 0.12017 0.23977 0.49052 0.0
H1428 H 0.04183 0.22483 0.49015 0.0
H1429 H 0.04013 0.25726 0.45937 0.0
C1430 C 0.07794 0.28466 0.43803 0.0
C1431 C 0.09916 0.29744 0.42781 0.0
C1432 C 0.07913 0.26713 0.45677 0.0
C1433 C 0.12186 0.2932 0.4375 0.0
C1434 C 0.12322 0.27581 0.45635 0.0
C1435 C 0.10277 0.2437 0.48371 0.0
C1436 C 0.08116 0.22993 0.49265 0.0
C1437 C 0.10189 0.26232 0.46581 0.0
C1438 C 0.05877 0.23544 0.48389 0.0
C1439 C 0.05775 0.25384 0.46614 0.0
H1440 H 0.59067 0.29379 0.195 0.0
H1441 H 0.58259 0.32982 0.27878 0.0
H1442 H 0.6219 0.32181 0.29538 0.0
H1443 H 0.65702 0.30133 0.28614 0.0
H1444 H 0.66328 0.26306 0.20236 0.0
H1445 H 0.62599 0.27507 0.18567 0.0
C1446 C 0.59763 0.30037 0.21688 0.0
C1447 C 0.5837 0.31232 0.23566 0.0
C1448 C 0.61972 0.29489 0.22628 0.0
C1449 C 0.59298 0.32054 0.26392 0.0
C1450 C 0.61535 0.3158 0.27343 0.0
C1451 C 0.65011 0.29555 0.26426 0.0
C1452 C 0.66276 0.28126 0.24549 0.0
C1453 C 0.62856 0.30233 0.25483 0.0
C1454 C 0.65391 0.27426 0.21715 0.0
C1455 C 0.63261 0.28107 0.20761 0.0
H1456 H 0.63218 0.93572 0.93334 0.0
H1457 H 0.56584 0.92323 0.87735 0.0
H1458 H 0.55919 0.96814 0.90283 0.0
H1459 H 0.56818 1.00629 0.94533 0.0
H1460 H 0.63367 1.01914 1.00237 0.0
H1461 H 0.64487 0.97927 0.97239 0.0
C1462 C 0.61665 0.94328 0.92644 0.0
C1463 C 0.59925 0.92591 0.90387 0.0
C1464 C 0.61263 0.9691 0.9416 0.0
C1465 C 0.5792 0.93594 0.89506 0.0
C1466 C 0.57537 0.96165 0.90958 0.0
C1467 C 0.58538 1.00104 0.95054 0.0
C1468 C 0.60024 1.01566 0.97567 0.0
C1469 C 0.59136 0.97776 0.93351 0.0
C1470 C 0.62223 1.0084 0.98273 0.0
C1471 C 0.62846 0.98537 0.96577 0.0
H1472 H 0.97011 0.76512 0.75848 0.0
H1473 H 0.93506 0.73093 0.67414 0.0
H1474 H 0.89464 0.72733 0.68901 0.0
H1475 H 0.87025 0.74314 0.72476 0.0
H1476 H 0.90667 0.78464 0.80745 0.0
H1477 H 0.94545 0.77585 0.79478 0.0
C1478 C 0.95361 0.75598 0.74341 0.0
C1479 C 0.95559 0.74846 0.71522 0.0
C1480 C 0.93063 0.75579 0.75192 0.0
C1481 C 0.93403 0.73695 0.69595 0.0
C1482 C 0.91092 0.73512 0.70445 0.0
C1483 C 0.88657 0.74938 0.74011 0.0
C1484 C 0.8858 0.76441 0.76698 0.0
C1485 C 0.9091 0.74586 0.73219 0.0
C1486 C 0.907 0.773 0.78668 0.0
C1487 C 0.92914 0.7681 0.77938 0.0
H1488 H 0.16849 0.03175 0.8915 0.0
H1489 H 0.12345 0.06776 0.8414 0.0
H1490 H 0.09744 0.07316 0.87717 0.0
H1491 H 0.08539 0.06671 0.92277 0.0
H1492 H 0.12927 0.03073 0.97367 0.0
H1493 H 0.15689 0.02673 0.93871 0.0
C1494 C 0.15306 0.04085 0.88824 0.0
C1495 C 0.14852 0.04912 0.86264 0.0
C1496 C 0.1376 0.0443 0.90973 0.0
C1497 C 0.12805 0.06093 0.86002 0.0
C1498 C 0.11287 0.06414 0.88084 0.0
C1499 C 0.10135 0.05865 0.92673 0.0
C1500 C 0.10546 0.05053 0.9523 0.0
C1501 C 0.11724 0.05591 0.90586 0.0
C1502 C 0.12589 0.03882 0.95549 0.0
C1503 C 0.14166 0.03604 0.93496 0.0
H1504 H 0.90422 0.41069 0.56978 0.0
H1505 H 0.83961 0.43893 0.58938 0.0
H1506 H 0.83616 0.4123 0.62566 0.0
H1507 H 0.85152 0.38146 0.65184 0.0
H1508 H 0.91473 0.35121 0.63153 0.0
H1509 H 0.91907 0.37871 0.59539 0.0
C1510 C 0.88936 0.41105 0.58196 0.0
C1511 C 0.87225 0.4269 0.57698 0.0
C1512 C 0.88745 0.39568 0.6027 0.0
C1513 C 0.85299 0.42689 0.59277 0.0
C1514 C 0.85106 0.41179 0.61357 0.0
C1515 C 0.8664 0.38127 0.63962 0.0
C1516 C 0.88313 0.36511 0.64434 0.0
C1517 C 0.86825 0.39634 0.61877 0.0
C1518 C 0.90199 0.36405 0.62823 0.0
C1519 C 0.90431 0.37957 0.60763 0.0
H1520 H 0.53917 0.09312 0.37792 0.0
H1521 H 0.46878 0.05055 0.39614 0.0
H1522 H 0.4889 0.03852 0.43582 0.0
H1523 H 0.52666 0.03909 0.46449 0.0
H1524 H 0.59676 0.08703 0.45013 0.0
H1525 H 0.57684 0.09705 0.40903 0.0
C1526 C 0.52833 0.08137 0.39075 0.0
C1527 C 0.50261 0.07282 0.38436 0.0
C1528 C 0.54001 0.07515 0.41386 0.0
C1529 C 0.48859 0.05772 0.401 0.0
C1530 C 0.50009 0.0506 0.4235 0.0
C1531 C 0.53748 0.05226 0.45272 0.0
C1532 C 0.563 0.06278 0.46052 0.0
C1533 C 0.52579 0.05915 0.43006 0.0
C1534 C 0.57701 0.07888 0.44453 0.0
C1535 C 0.56564 0.08469 0.42114 0.0
H1536 H 0.84822 0.78234 0.10376 0.0
H1537 H 0.77274 0.73159 0.08549 0.0
H1538 H 0.76808 0.74565 0.13417 0.0
H1539 H 0.78663 0.7697 0.18331 0.0
H1540 H 0.86271 0.81867 0.20006 0.0
H1541 H 0.86569 0.80813 0.15115 0.0
C1542 C 0.83057 0.77454 0.11019 0.0
C1543 C 0.81091 0.75578 0.09056 0.0
C1544 C 0.82812 0.7823 0.13837 0.0
C1545 C 0.78828 0.74608 0.0998 0.0
C1546 C 0.78562 0.75404 0.12783 0.0
C1547 C 0.80372 0.77838 0.17619 0.0
C1548 C 0.82446 0.79488 0.19572 0.0
C1549 C 0.80556 0.77176 0.14753 0.0
C1550 C 0.84648 0.8057 0.18584 0.0
C1551 C 0.84825 0.79969 0.15771 0.0
H1552 H 0.12622 0.99159 0.66925 0.0
H1553 H 0.15985 0.08054 0.71089 0.0
H1554 H 0.14374 0.09615 0.67081 0.0
H1555 H 0.11926 0.08474 0.62301 0.0
H1556 H 0.08726 0.99514 0.58187 0.0
H1557 H 0.10326 0.98023 0.62192 0.0
C1558 C 0.13025 1.01451 0.66979 0.0
C1559 C 0.14459 0.03466 0.69389 0.0
C1560 C 0.12093 0.02345 0.64625 0.0
C1561 C 0.14921 0.06419 0.69322 0.0
C1562 C 0.1398 0.0732 0.67004 0.0
C1563 C 0.11568 0.0619 0.62268 0.0
C1564 C 0.1016 0.04128 0.5986 0.0
C1565 C 0.12548 0.0531 0.64629 0.0
C1566 C 0.09775 1.01184 0.59938 0.0
C1567 C 0.10702 1.00316 0.62259 0.0
H1568 H 0.88759 0.41219 0.43155 0.0
H1569 H 0.81519 0.40428 0.45504 0.0
H1570 H 0.79766 0.3661 0.41333 0.0
H1571 H 0.80299 0.33543 0.36983 0.0
H1572 H 0.87496 0.3454 0.3454 0.0
H1573 H 0.89282 0.38236 0.38801 0.0
C1574 C 0.86798 0.40201 0.42764 0.0
C1575 C 0.85271 0.4109 0.44642 0.0
C1576 C 0.85806 0.38048 0.40353 0.0
C1577 C 0.8273 0.39784 0.44085 0.0
C1578 C 0.8173 0.37598 0.41708 0.0
C1579 C 0.82261 0.34561 0.37414 0.0
C1580 C 0.83786 0.33779 0.35501 0.0
C1581 C 0.83251 0.36717 0.39829 0.0
C1582 C 0.8631 0.35121 0.36014 0.0
C1583 C 0.87322 0.37227 0.38439 0.0
H1584 H 0.49781 0.99941 0.2485 0.0
H1585 H 0.46818 0.06366 0.21954 0.0
H1586 H 0.48503 0.05316 0.17652 0.0
H1587 H 0.51272 0.03051 0.15024 0.0
H1588 H 0.54472 0.96896 0.18083 0.0
H1589 H 0.52217 0.97345 0.22024 0.0
C1590 C 0.49472 1.01088 0.23266 0.0
C1591 C 0.48211 0.03261 0.23737 0.0
C1592 C 0.50501 1.00532 0.20841 0.0
C1593 C 0.47806 0.04704 0.21651 0.0
C1594 C 0.48772 0.04109 0.19195 0.0
C1595 C 0.51421 1.01751 0.16517 0.0
C1596 C 0.53031 0.99947 0.16282 0.0
C1597 C 0.50188 0.02095 0.18811 0.0
C1598 C 0.53248 0.98307 0.18244 0.0
C1599 C 0.51967 0.9857 0.20492 0.0
H1600 H 0.78806 0.72721 0.91787 0.0
H1601 H 0.84686 0.79708 0.96781 0.0
H1602 H 0.85557 0.81612 0.92756 0.0
H1603 H 0.84918 0.81135 0.87771 0.0
H1604 H 0.78988 0.74354 0.82652 0.0
H1605 H 0.77884 0.7254 0.86729 0.0
C1606 C 0.80232 0.74703 0.92008 0.0
C1607 C 0.81676 0.76057 0.94622 0.0
C1608 C 0.80755 0.75799 0.89637 0.0
C1609 C 0.83541 0.78603 0.94825 0.0
C1610 C 0.84056 0.79693 0.92508 0.0
C1611 C 0.83375 0.79261 0.87534 0.0
C1612 C 0.82064 0.77862 0.8488 0.0
C1613 C 0.82725 0.78272 0.89895 0.0
C1614 C 0.80045 0.75468 0.84651 0.0
C1615 C 0.79412 0.74432 0.86994 0.0
H1616 H 0.84354 0.06244 0.05782 0.0
H1617 H 0.87662 0.14558 0.0423 0.0
H1618 H 0.91379 0.13043 0.03326 0.0
H1619 H 0.93556 0.09237 0.02615 0.0
H1620 H 0.90229 1.00851 0.04005 0.0
H1621 H 0.86635 0.02495 0.05291 0.0
C1622 C 0.85909 0.07742 0.05301 0.0
C1623 C 0.85732 0.10512 0.05076 0.0
C1624 C 0.88018 0.06824 0.04704 0.0
C1625 C 0.87745 0.12414 0.04408 0.0
C1626 C 0.8987 0.11544 0.03881 0.0
C1627 C 0.92063 0.0778 0.03241 0.0
C1628 C 0.9216 0.04924 0.03212 0.0
C1629 C 0.90005 0.08735 0.03964 0.0
C1630 C 0.90186 0.03049 0.03978 0.0
C1631 C 0.88139 0.03994 0.0473 0.0
H1632 H 0.43281 0.44379 0.02892 0.0
H1633 H 0.41438 0.51334 0.08369 0.0
H1634 H 0.45531 0.54488 0.08553 0.0
H1635 H 0.49635 0.55314 0.07139 0.0
H1636 H 0.51345 0.4864 1.01183 0.0
H1637 H 0.47353 0.45341 1.01208 0.0
C1638 C 0.43787 0.46585 0.04121 0.0
C1639 C 0.42068 0.47622 0.05632 0.0
C1640 C 0.46132 0.48436 0.04139 0.0
C1641 C 0.42731 0.50493 0.07189 0.0
C1642 C 0.45073 0.52297 0.073 0.0
C1643 C 0.4914 0.53132 0.05855 0.0
C1644 C 0.50818 0.52206 0.04206 0.0
C1645 C 0.46791 0.51298 0.05784 0.0
C1646 C 0.50114 0.49394 0.02507 0.0
C1647 C 0.4782 0.47509 0.02512 0.0
H1648 H 0.42791 0.69236 0.79881 0.0
H1649 H 0.36674 0.62065 0.75822 0.0
H1650 H 0.34096 0.6542 0.75466 0.0
H1651 H 0.33442 0.70497 0.76428 0.0
H1652 H 0.39636 0.77643 0.80419 0.0
H1653 H 0.42202 0.74293 0.80641 0.0
C1654 C 0.40912 0.68387 0.78848 0.0
C1655 C 0.40011 0.65308 0.77793 0.0
C1656 C 0.39389 0.70383 0.78662 0.0
C1657 C 0.37507 0.64363 0.76579 0.0
C1658 C 0.36001 0.66314 0.76401 0.0
C1659 C 0.35353 0.71349 0.77352 0.0
C1660 C 0.36271 0.74433 0.78428 0.0
C1661 C 0.36894 0.69348 0.77454 0.0
C1662 C 0.38794 0.75359 0.79578 0.0
C1663 C 0.40297 0.73408 0.79706 0.0
H1664 H 0.23305 0.58789 0.55119 0.0
H1665 H 0.24817 0.67669 0.59611 0.0
H1666 H 0.20394 0.67316 0.59285 0.0
H1667 H 0.16106 0.6459 0.57244 0.0
H1668 H 0.14813 0.56022 0.52101 0.0
H1669 H 0.19119 0.56103 0.53158 0.0
C1670 C 0.2266 0.60622 0.56084 0.0
C1671 C 0.24354 0.63237 0.57401 0.0
C1672 C 0.2015 0.60457 0.55731 0.0
C1673 C 0.23518 0.65628 0.58594 0.0
C1674 C 0.21 0.65432 0.58392 0.0
C1675 C 0.16787 0.62753 0.56382 0.0
C1676 C 0.15178 0.60294 0.54618 0.0
C1677 C 0.193 0.62882 0.56885 0.0
C1678 C 0.16042 0.57918 0.53478 0.0
C1679 C 0.18498 0.57967 0.54078 0.0
H1680 H 0.72679 0.99065 0.81644 0.0
H1681 H 0.7298 0.99666 0.73197 0.0
H1682 H 0.76315 0.97248 0.73005 0.0
H1683 H 0.79348 0.95321 0.75378 0.0
H1684 H 0.78985 0.94776 0.83835 0.0
H1685 H 0.75504 0.96902 0.83903 0.0
C1686 C 0.73457 0.98649 0.79748 0.0
C1687 C 0.72603 0.99569 0.77448 0.0
C1688 C 0.75396 0.97331 0.79676 0.0
C1689 C 0.73604 0.98973 0.74996 0.0
C1690 C 0.75525 0.97618 0.74895 0.0
C1691 C 0.78498 0.95657 0.7723 0.0
C1692 C 0.79451 0.94933 0.79611 0.0
C1693 C 0.76473 0.96851 0.77246 0.0
C1694 C 0.78333 0.95385 0.81998 0.0
C1695 C 0.76324 0.96569 0.8203 0.0
H1696 H 0.77937 0.94052 0.53508 0.0
H1697 H 0.80508 0.99664 0.61622 0.0
H1698 H 0.76844 1.01452 0.61387 0.0
H1699 H 0.7294 1.01495 0.58888 0.0
H1700 H 0.70307 0.95946 0.50773 0.0
H1701 H 0.7397 0.94091 0.50987 0.0
C1702 C 0.77691 0.9566 0.55227 0.0
C1703 C 0.79503 0.96713 0.57582 0.0
C1704 C 0.75571 0.96702 0.55076 0.0
C1705 C 0.79153 0.98808 0.59783 0.0
C1706 C 0.77054 0.99837 0.59653 0.0
C1707 C 0.73149 0.99853 0.57176 0.0
C1708 C 0.71339 0.98846 0.54827 0.0
C1709 C 0.75254 0.98803 0.57314 0.0
C1710 C 0.71676 0.9677 0.52601 0.0
C1711 C 0.73766 0.957 0.52728 0.0
H1712 H 0.38419 0.50163 0.81847 0.0
H1713 H 0.41185 0.48316 0.74131 0.0
H1714 H 0.39168 0.43134 0.73523 0.0
H1715 H 0.36459 0.39007 0.75156 0.0
H1716 H 0.33761 0.41096 0.82885 0.0
H1717 H 0.35903 0.46181 0.83499 0.0
C1718 C 0.38592 0.48655 0.8001 0.0
C1719 C 0.39975 0.49739 0.78028 0.0
C1720 C 0.37436 0.45642 0.79686 0.0
C1721 C 0.40146 0.47641 0.757 0.0
C1722 C 0.38986 0.4464 0.75356 0.0
C1723 C 0.36387 0.40559 0.77008 0.0
C1724 C 0.3496 0.39576 0.79013 0.0
C1725 C 0.37616 0.43587 0.77336 0.0
C1726 C 0.34854 0.41707 0.81331 0.0
C1727 C 0.36075 0.44653 0.81676 0.0
H1728 H 0.22251 0.64394 0.3092 0.0
H1729 H 0.23543 0.60498 0.22824 0.0
H1730 H 0.26484 0.64987 0.22709 0.0
H1731 H 0.28504 0.70083 0.24777 0.0
H1732 H 0.27088 0.74033 0.32795 0.0
H1733 H 0.24409 0.69443 0.33075 0.0
C1734 C 0.23193 0.64512 0.2914 0.0
C1735 C 0.22665 0.62111 0.2688 0.0
C1736 C 0.2486 0.67112 0.29068 0.0
C1737 C 0.239 0.62314 0.24588 0.0
C1738 C 0.25585 0.64882 0.24518 0.0
C1739 C 0.2763 0.69943 0.266 0.0
C1740 C 0.28006 0.72413 0.2876 0.0
C1741 C 0.2605 0.67306 0.26728 0.0
C1742 C 0.26849 0.72176 0.31102 0.0
C1743 C 0.25303 0.69548 0.31261 0.0
H1744 H 0.55933 0.7172 0.46148 0.0
H1745 H 0.48301 0.68783 0.47042 0.0
H1746 H 0.49166 0.64835 0.48919 0.0
H1747 H 0.52083 0.62099 0.50262 0.0
H1748 H 0.59769 0.65267 0.49738 0.0
H1749 H 0.58896 0.6918 0.47789 0.0
C1750 C 0.54461 0.70226 0.46765 0.0
C1751 C 0.52049 0.70574 0.46435 0.0
C1752 C 0.54981 0.67967 0.47914 0.0
C1753 C 0.50179 0.68607 0.47276 0.0
C1754 C 0.50669 0.66325 0.48344 0.0
C1755 C 0.53565 0.63647 0.49723 0.0
C1756 C 0.5599 0.63364 0.50143 0.0
C1757 C 0.5306 0.65965 0.48663 0.0
C1758 C 0.57887 0.65424 0.49456 0.0
C1759 C 0.57388 0.67669 0.48329 0.0
H1760 H 0.7089 0.39085 0.71336 0.0
H1761 H 0.68658 0.30438 0.6619 0.0
H1762 H 0.72043 0.29178 0.68688 0.0
H1763 H 0.75437 0.30434 0.72692 0.0
H1764 H 0.77557 0.39142 0.77741 0.0
H1765 H 0.74465 0.40466 0.74926 0.0
C1766 C 0.71159 0.36932 0.70727 0.0
C1767 C 0.69498 0.3486 0.68581 0.0
C1768 C 0.73098 0.3622 0.72184 0.0
C1769 C 0.69903 0.32088 0.67821 0.0
C1770 C 0.71836 0.31359 0.69268 0.0
C1771 C 0.75246 0.3263 0.7314 0.0
C1772 C 0.76722 0.34677 0.75458 0.0
C1773 C 0.73418 0.33389 0.71504 0.0
C1774 C 0.7644 0.37512 0.75999 0.0
C1775 C 0.74663 0.38277 0.74388 0.0
H1776 H 0.05612 0.37329 0.97088 0.0
H1777 H 0.9849 0.35758 0.99809 0.0
H1778 H 0.99375 0.40801 0.02252 0.0
H1779 H 0.02032 0.45758 0.03387 0.0
H1780 H 0.09228 0.47382 1.00888 0.0
H1781 H 0.08461 0.42252 0.98633 0.0
C1782 C 0.04264 0.3808 0.9824 0.0
C1783 C 0.01975 0.36136 0.98229 0.0
C1784 C 0.0479 0.41015 0.9968 0.0
C1785 C 1.00267 0.37172 0.99761 0.0
C1786 C 1.00765 0.40074 1.0116 0.0
C1787 C 0.03444 0.44989 0.02369 0.0
C1788 C 0.05676 0.46972 0.02289 0.0
C1789 C 0.03 0.42028 1.01096 0.0
C1790 C 0.07492 0.45917 1.00988 0.0
C1791 C 0.07049 0.42978 0.99683 0.0
H1792 H 0.07269 0.82674 0.21655 0.0
H1793 H 0.03713 0.8502 0.14777 0.0
H1794 H 0.99873 0.84259 0.16653 0.0
H1795 H 0.975 0.83037 0.20288 0.0
H1796 H 1.0103 0.8086 0.27279 0.0
H1797 H 0.04866 0.81438 0.25324 0.0
C1798 C 0.05648 0.82993 0.20557 0.0
C1799 C 0.05789 0.83864 0.18052 0.0
C1800 C 0.03427 0.82602 0.21679 0.0
C1801 C 0.03668 0.84296 0.16677 0.0
C1802 C 1.01462 0.83886 0.17762 0.0
C1803 C 0.99114 0.82717 0.214 0.0
C1804 C 0.98967 0.81908 0.23929 0.0
C1805 C 1.01322 0.83064 0.20271 0.0
C1806 C 1.01075 0.81454 0.25313 0.0
C1807 C 0.03278 0.81794 0.24201 0.0
H1808 H 0.54627 0.31871 0.1135 0.0
H1809 H 0.46948 0.30159 0.08126 0.0
H1810 H 0.4799 0.3344 0.05075 0.0
H1811 H 0.51062 0.37113 0.03619 0.0
H1812 H 0.58742 0.38686 0.06703 0.0
H1813 H 0.57732 0.35129 0.09516 0.0
C1814 C 0.53185 0.32194 0.09957 0.0
C1815 C 0.50713 0.30804 0.09983 0.0
C1816 C 0.53799 0.34068 0.08202 0.0
C1817 C 0.48865 0.31204 0.08141 0.0
C1818 C 0.49457 0.33092 0.06409 0.0
C1819 C 0.52508 0.36639 0.04886 0.0
C1820 C 0.54965 0.38151 0.04988 0.0
C1821 C 0.51912 0.34581 0.06467 0.0
C1822 C 0.56839 0.37529 0.06606 0.0
C1823 C 0.56261 0.35511 0.08215 0.0
H1824 H 0.06442 0.39122 0.34068 0.0
H1825 H 0.06511 0.32235 0.27214 0.0
H1826 H 0.02429 0.3233 0.25147 0.0
H1827 H 0.98602 0.33867 0.25709 0.0
H1828 H 0.98408 0.40319 0.32904 0.0
H1829 H 0.02762 0.40912 0.34455 0.0
C1830 C 0.05573 0.37689 0.32098 0.0
C1831 C 0.06742 0.35683 0.30776 0.0
C1832 C 0.0319 0.37649 0.31026 0.0
C1833 C 0.0563 0.33818 0.28231 0.0
C1834 C 0.03294 0.33853 0.27074 0.0
C1835 C 0.99543 0.35434 0.27586 0.0
C1836 C 0.98224 0.37048 0.29206 0.0
C1837 C 0.02018 0.35678 0.28512 0.0
C1838 C 0.99417 0.39059 0.31647 0.0
C1839 C 0.01896 0.39392 0.32531 0.0
H1840 H 1.01529 0.71218 0.59188 0.0
H1841 H 0.05831 0.71469 0.66845 0.0
H1842 H 0.08038 0.68226 0.64341 0.0
H1843 H 0.08613 0.65154 0.59921 0.0
H1844 H 0.04348 0.6517 0.52338 0.0
H1845 H 0.02249 0.68476 0.54862 0.0
C1846 C 0.02943 0.70559 0.60321 0.0
C1847 C 0.03484 0.71541 0.63205 0.0
C1848 C 0.0421 0.68742 0.58871 0.0
C1849 C 0.05368 0.70725 0.64626 0.0
C1850 C 0.06625 0.68869 0.63194 0.0
C1851 C 0.07238 0.65913 0.58839 0.0
C1852 C 0.06625 0.64941 0.55957 0.0
C1853 C 0.06045 0.6784 0.60313 0.0
C1854 C 0.04844 0.65913 0.54556 0.0
C1855 C 0.03642 0.67792 0.55997 0.0
H1856 H 0.68071 0.83771 0.81316 0.0
H1857 H 0.72825 0.91382 0.8687 0.0
H1858 H 0.76427 0.90228 0.84952 0.0
H1859 H 0.78208 0.86874 0.81823 0.0
H1860 H 0.73341 0.79231 0.76351 0.0
H1861 H 0.69792 0.80614 0.78051 0.0
C1862 C 0.69902 0.85174 0.82098 0.0
C1863 C 0.70209 0.87623 0.84248 0.0
C1864 C 0.71934 0.84505 0.80977 0.0
C1865 C 0.72567 0.89464 0.85234 0.0
C1866 C 0.74615 0.8881 0.84127 0.0
C1867 C 0.76368 0.85539 0.80973 0.0
C1868 C 0.76042 0.82938 0.78973 0.0
C1869 C 0.74323 0.86316 0.82011 0.0
C1870 C 0.73646 0.81229 0.77902 0.0
C1871 C 0.71613 0.82011 0.7888 0.0
H1872 H 0.4724 0.54068 0.64709 0.0
H1873 H 0.51911 0.611 0.71034 0.0
H1874 H 0.54883 0.61972 0.67821 0.0
H1875 H 0.56265 0.60744 0.63178 0.0
H1876 H 0.51644 0.53656 0.56888 0.0
H1877 H 0.48611 0.52861 0.60051 0.0
C1878 C 0.48902 0.5581 0.65413 0.0
C1879 C 0.49283 0.57512 0.68206 0.0
C1880 C 0.50646 0.5631 0.6351 0.0
C1881 C 0.51494 0.59737 0.68967 0.0
C1882 C 0.53219 0.60238 0.671 0.0
C1883 C 0.54589 0.59024 0.62468 0.0
C1884 C 0.54226 0.57301 0.59692 0.0
C1885 C 0.52832 0.58543 0.64359 0.0
C1886 C 0.52016 0.55079 0.58922 0.0
C1887 C 0.50269 0.54605 0.60772 0.0
H1888 H 0.76173 0.15339 0.96103 0.0
H1889 H 0.78612 0.2277 0.02945 0.0
H1890 H 0.77238 0.25809 1.00138 0.0
H1891 H 0.76141 0.26505 0.95554 0.0
H1892 H 0.7413 0.19207 0.88552 0.0
H1893 H 0.74483 0.15935 0.91591 0.0
C1894 C 0.76321 0.17604 0.96984 0.0
C1895 C 0.77478 0.18857 0.997 0.0
C1896 C 0.75636 0.19357 0.95317 0.0
C1897 C 0.77714 0.21788 1.00846 0.0
C1898 C 0.76943 0.2352 0.99241 0.0
C1899 C 0.75693 0.24187 0.94707 0.0
C1900 C 0.75133 0.23092 0.91844 0.0
C1901 C 0.76013 0.22355 0.96443 0.0
C1902 C 0.74588 0.2009 0.90757 0.0
C1903 C 0.74801 0.18227 0.9249 0.0
H1904 H 0.16783 0.56666 0.16904 0.0
H1905 H 0.14183 0.47388 0.1438 0.0
H1906 H 0.10219 0.47786 0.12282 0.0
H1907 H 0.07708 0.50805 0.10705 0.0
H1908 H 0.10505 0.60085 0.1286 0.0
H1909 H 0.14162 0.59685 0.15607 0.0
C1910 C 0.15319 0.54743 0.15942 0.0
C1911 C 0.15728 0.52006 0.15806 0.0
C1912 C 0.13094 0.54999 0.1467 0.0
C1913 C 0.13869 0.49512 0.14515 0.0
C1914 C 0.11616 0.49742 0.13314 0.0
C1915 C 0.09091 0.52732 0.11842 0.0
C1916 C 0.08856 0.55467 0.11608 0.0
C1917 C 0.11232 0.52476 0.13318 0.0
C1918 C 0.10665 0.5796 0.13036 0.0
C1919 C 0.12757 0.57731 0.14587 0.0
H1920 H 0.8762 0.84348 0.46799 0.0
H1921 H 0.8159 0.88299 0.47726 0.0
H1922 H 0.8034 0.86944 0.42724 0.0
H1923 H 0.81096 0.84846 0.37992 0.0
H1924 H 0.87255 0.81074 0.3721 0.0
H1925 H 0.88284 0.82143 0.42181 0.0
C1926 C 0.8601 0.84885 0.45922 0.0
C1927 C 0.84708 0.86425 0.47675 0.0
C1928 C 0.85325 0.8415 0.43028 0.0
C1929 C 0.82639 0.87114 0.46456 0.0
C1930 C 0.81923 0.86345 0.4358 0.0
C1931 C 0.82651 0.84239 0.3891 0.0
C1932 C 0.84097 0.82894 0.37183 0.0
C1933 C 0.83272 0.84896 0.41829 0.0
C1934 C 0.8611 0.82139 0.38444 0.0
C1935 C 0.86707 0.82743 0.4131 0.0
H1936 H 0.51098 0.55229 0.84178 0.0
H1937 H 0.47077 0.61185 0.87718 0.0
H1938 H 0.48903 0.61194 0.9236 0.0
H1939 H 0.51711 0.59514 0.95554 0.0
H1940 H 0.55461 0.53278 0.91928 0.0
H1941 H 0.53721 0.534 0.87324 0.0
C1942 C 0.506 0.56527 0.85955 0.0
C1943 C 0.48914 0.58211 0.85512 0.0
C1944 C 0.51645 0.56487 0.88677 0.0
C1945 C 0.48335 0.59851 0.87914 0.0
C1946 C 0.49401 0.59865 0.90604 0.0
C1947 C 0.52166 0.5819 0.93764 0.0
C1948 C 0.53774 0.56398 0.94175 0.0
C1949 C 0.51075 0.582 0.91037 0.0
C1950 C 0.5426 0.54684 0.91758 0.0
C1951 C 0.53252 0.54751 0.89087 0.0
H1952 H 0.79112 0.18061 0.13249 0.0
H1953 H 0.84199 0.24322 0.10152 0.0
H1954 H 0.83941 0.28162 0.13949 0.0
H1955 H 0.82482 0.29739 0.1828 0.0
H1956 H 0.77682 0.23512 0.21657 0.0
H1957 H 0.7756 0.19692 0.17596 0.0
C1958 C 0.80164 0.20264 0.13408 0.0
C1959 C 0.81692 0.20881 0.11425 0.0
C1960 C 0.80035 0.22485 0.15632 0.0
C1961 C 0.83035 0.23759 0.11662 0.0
C1962 C 0.82876 0.25973 0.13826 0.0
C1963 C 0.81361 0.27561 0.18099 0.0
C1964 C 0.80069 0.26912 0.20249 0.0
C1965 C 0.81401 0.2536 0.15832 0.0
C1966 C 0.78671 0.24067 0.20013 0.0
C1967 C 0.78622 0.21878 0.17704 0.0
H1968 H 0.16005 0.61087 0.2793 0.0
H1969 H 0.09059 0.54895 0.24641 0.0
H1970 H 0.07202 0.57041 0.28495 0.0
H1971 H 0.07871 0.59817 0.33279 0.0
H1972 H 0.14984 0.65587 0.36831 0.0
H1973 H 0.16486 0.64468 0.32417 0.0
C1974 C 0.14065 0.60287 0.28018 0.0
C1975 C 0.12663 0.57847 0.26034 0.0
C1976 C 0.13072 0.61403 0.30332 0.0
C1977 C 0.10154 0.56803 0.2614 0.0
C1978 C 0.09109 0.57999 0.28366 0.0
C1979 C 0.09721 0.60917 0.33061 0.0
C1980 C 0.11327 0.62757 0.35383 0.0
C1981 C 0.10593 0.60176 0.30553 0.0
C1982 C 0.13728 0.64134 0.35078 0.0
C1983 C 0.14586 0.63492 0.32558 0.0
H1984 H 0.87652 0.85693 0.63893 0.0
H1985 H 0.80353 0.85749 0.60604 0.0
H1986 H 0.787 0.83779 0.64377 0.0
H1987 H 0.79331 0.82044 0.68677 0.0
H1988 H 0.86697 0.82378 0.72113 0.0
H1989 H 0.88306 0.842 0.68269 0.0
C1990 C 0.85693 0.85247 0.6398 0.0
C1991 C 0.84129 0.85831 0.61918 0.0
C1992 C 0.84765 0.84202 0.66218 0.0
C1993 C 0.81604 0.85303 0.6213 0.0
C1994 C 0.80657 0.84181 0.64301 0.0
C1995 C 0.81289 0.82527 0.68588 0.0
C1996 C 0.82884 0.82051 0.70695 0.0
C1997 C 0.82219 0.83629 0.6637 0.0
C1998 C 0.8542 0.82717 0.70542 0.0
C1999 C 0.86345 0.83752 0.68328 0.0
H2000 H 0.80895 0.54703 0.58046 0.0
H2001 H 0.7683 0.47377 0.51583 0.0
H2002 H 0.73158 0.49211 0.51797 0.0
H2003 H 0.71198 0.5304 0.53652 0.0
H2004 H 0.75441 0.60554 0.59823 0.0
H2005 H 0.78945 0.58468 0.59917 0.0
C2006 C 0.792 0.53482 0.56703 0.0
C2007 C 0.79134 0.50911 0.54797 0.0
C2008 C 0.77134 0.54592 0.56776 0.0
C2009 C 0.76926 0.49368 0.53063 0.0
C2010 C 0.74832 0.5042 0.53179 0.0
C2011 C 0.72896 0.54238 0.54997 0.0
C2012 C 0.73051 0.5696 0.56719 0.0
C2013 C 0.74933 0.53062 0.54989 0.0
C2014 C 0.75252 0.58444 0.58498 0.0
C2015 C 0.77266 0.57261 0.58543 0.0
H2016 H 0.21372 0.16637 0.5259 0.0
H2017 H 0.2106 0.1308 0.439 0.0
H2018 H 0.16931 0.10069 0.43712 0.0
H2019 H 0.13459 0.08218 0.46026 0.0
H2020 H 0.13741 0.11613 0.54723 0.0
H2021 H 0.1778 0.14905 0.54887 0.0
C2022 C 0.20389 0.15229 0.5065 0.0
C2023 C 0.2155 0.15094 0.48265 0.0
C2024 C 0.17996 0.13451 0.50554 0.0
C2025 C 0.20237 0.13234 0.45776 0.0
C2026 C 0.17865 0.11499 0.45661 0.0
C2027 C 0.14397 0.09691 0.47955 0.0
C2028 C 0.13291 0.09663 0.50357 0.0
C2029 C 0.16738 0.11553 0.48041 0.0
C2030 C 0.14537 0.11594 0.52838 0.0
C2031 C 0.16857 0.13473 0.52935 0.0
H2032 H 0.26614 0.98074 0.8192 0.0
H2033 H 0.20931 0.9431 0.74921 0.0
H2034 H 0.2239 0.89889 0.74072 0.0
H2035 H 0.25356 0.86919 0.75301 0.0
H2036 H 0.31149 0.90978 0.82172 0.0
H2037 H 0.29592 0.95263 0.8303 0.0
C2038 C 0.2568 0.96308 0.80187 0.0
C2039 C 0.2362 0.96649 0.78498 0.0
C2040 C 0.26567 0.9372 0.79674 0.0
C2041 C 0.22506 0.94233 0.7628 0.0
C2042 C 0.2335 0.91653 0.75793 0.0
C2043 C 0.26283 0.88722 0.77002 0.0
C2044 C 0.28416 0.8849 0.78673 0.0
C2045 C 0.25388 0.91334 0.77474 0.0
C2046 C 0.29536 0.90969 0.80822 0.0
C2047 C 0.28633 0.93476 0.81327 0.0
H2048 H 0.42257 0.02229 0.99338 0.0
H2049 H 0.42567 0.97975 0.06065 0.0
H2050 H 0.47016 0.98929 0.0635 0.0
H2051 H 0.50835 1.01288 0.04922 0.0
H2052 H 0.50552 0.05528 0.98175 0.0
H2053 H 0.46075 0.04226 0.97642 0.0
C2054 C 0.43304 1.01506 1.00854 0.0
C2055 C 0.421 1.00071 0.02692 0.0
C2056 C 0.45862 0.02055 1.01006 0.0
C2057 C 0.4346 0.99093 0.04624 0.0
C2058 C 0.46004 0.99641 0.04796 0.0
C2059 C 0.49795 1.019 0.03315 0.0
C2060 C 0.51021 0.03532 0.01618 0.0
C2061 C 0.47226 1.01165 0.03029 0.0
C2062 C 0.49649 0.04284 0.99525 0.0
C2063 C 0.47089 0.03552 0.99222 0.0
H2064 H 0.90797 0.5904 0.77073 0.0
H2065 H 0.91327 0.64358 0.8524 0.0
H2066 H 0.88054 0.66354 0.83636 0.0
H2067 H 0.85005 0.66548 0.79973 0.0
H2068 H 0.84388 0.61311 0.71779 0.0
H2069 H 0.87727 0.59299 0.73331 0.0
C2070 C 0.90196 0.60641 0.78493 0.0
C2071 C 0.91286 0.61529 0.81277 0.0
C2072 C 0.88288 0.61768 0.77562 0.0
C2073 C 0.90493 0.63606 0.83098 0.0
C2074 C 0.88626 0.64755 0.82183 0.0
C2075 C 0.85582 0.64936 0.78537 0.0
C2076 C 0.84437 0.64028 0.75787 0.0
C2077 C 0.87496 0.63828 0.79435 0.0
C2078 C 0.85242 0.62012 0.73916 0.0
C2079 C 0.87146 0.60872 0.74802 0.0
H2080 H 0.8767 0.68942 1.0138 0.0
H2081 H 0.8256 0.62884 0.04645 0.0
H2082 H 0.85766 0.60498 0.05646 0.0
H2083 H 0.89933 0.5992 0.05311 0.0
H2084 H 0.95072 0.66008 0.02102 0.0
H2085 H 0.91933 0.68556 1.0133 0.0
C2086 C 0.87264 0.67125 0.02345 0.0
C2087 C 0.84868 0.66096 0.02931 0.0
C2088 C 0.89114 0.65736 0.02891 0.0
C2089 C 0.84381 0.63727 0.0417 0.0
C2090 C 0.86214 0.62351 0.04735 0.0
C2091 C 0.90389 0.61834 0.04488 0.0
C2092 C 0.92747 0.62748 0.03753 0.0
C2093 C 0.88576 0.63307 0.04064 0.0
C2094 C 0.93269 0.65211 0.02643 0.0
C2095 C 0.91476 0.66687 0.02217 0.0
H2096 H 0.28558 0.126 0.80084 0.0
H2097 H 0.21383 0.13879 0.78125 0.0
H2098 H 0.23277 0.18786 0.77646 0.0
H2099 H 0.27074 0.22879 0.7776 0.0
H2100 H 0.34179 0.21319 0.79622 0.0
H2101 H 0.3224 0.16525 0.8014 0.0
C2102 C 0.27389 0.13931 0.79542 0.0
C2103 C 0.24793 0.12774 0.79144 0.0
C2104 C 0.28504 0.16794 0.7925 0.0
C2105 C 0.2337 0.14624 0.78444 0.0
C2106 C 0.24466 0.17473 0.78173 0.0
C2107 C 0.28204 0.21507 0.78296 0.0
C2108 C 0.30824 0.22574 0.78656 0.0
C2109 C 0.27048 0.18616 0.78573 0.0
C2110 C 0.32188 0.20657 0.79321 0.0
C2111 C 0.31071 0.17865 0.79623 0.0
H2112 H 0.40404 0.98703 0.28354 0.0
H2113 H 0.43929 0.97761 0.35999 0.0
H2114 H 0.41936 0.92576 0.34787 0.0
H2115 H 0.38835 0.88491 0.31865 0.0
H2116 H 0.3499 0.89383 0.24387 0.0
H2117 H 0.37474 0.94413 0.25188 0.0
C2118 C 0.40754 0.97339 0.29722 0.0
C2119 C 0.42284 0.98582 0.32268 0.0
C2120 C 0.3953 0.94377 0.29052 0.0
C2121 C 0.4273 0.9683 0.34047 0.0
C2122 C 0.41596 0.93877 0.33354 0.0
C2123 C 0.38568 0.89778 0.3039 0.0
C2124 C 0.36731 0.88605 0.2809 0.0
C2125 C 0.39938 0.92654 0.3091 0.0
C2126 C 0.3641 0.90256 0.26165 0.0
C2127 C 0.37813 0.93131 0.26639 0.0
H2128 H 0.63058 0.43212 0.60867 0.0
H2129 H 0.58447 0.36814 0.53995 0.0
H2130 H 0.57772 0.40609 0.51754 0.0
H2131 H 0.58035 0.45776 0.52007 0.0
H2132 H 0.62732 0.52219 0.58795 0.0
H2133 H 0.63814 0.48425 0.60779 0.0
C2134 C 0.61993 0.42647 0.58828 0.0
C2135 C 0.60827 0.39711 0.57597 0.0
C2136 C 0.61561 0.44869 0.57559 0.0
C2137 C 0.59393 0.39042 0.54982 0.0
C2138 C 0.58976 0.4122 0.5371 0.0
C2139 C 0.59316 0.46353 0.53904 0.0
C2140 C 0.60267 0.49296 0.55257 0.0
C2141 C 0.59969 0.44147 0.55024 0.0
C2142 C 0.61955 0.49984 0.577 0.0
C2143 C 0.62578 0.47806 0.58846 0.0
H2144 H 0.46638 0.81323 0.35424 0.0
H2145 H 0.43058 0.74608 0.39204 0.0
H2146 H 0.39037 0.74782 0.37086 0.0
H2147 H 0.36538 0.76464 0.337 0.0
H2148 H 0.40145 0.83223 0.30004 0.0
H2149 H 0.44111 0.83454 0.32566 0.0
C2150 C 0.44978 0.79926 0.35819 0.0
C2151 C 0.4517 0.77931 0.37455 0.0
C2152 C 0.42656 0.80051 0.34602 0.0
C2153 C 0.42984 0.7616 0.37955 0.0
C2154 C 0.40673 0.76253 0.36732 0.0
C2155 C 0.38181 0.78057 0.3354 0.0
C2156 C 0.38037 0.79864 0.31699 0.0
C2157 C 0.40482 0.78142 0.34997 0.0
C2158 C 0.40198 0.81852 0.31447 0.0
C2159 C 0.42475 0.8196 0.3289 0.0
H2160 H 0.06057 0.74748 0.07332 0.0
H2161 H 0.13525 0.77057 0.11486 0.0
H2162 H 0.13591 0.7196 0.10344 0.0
H2163 H 0.11421 0.66773 0.08387 0.0
H2164 H 0.03902 0.64594 0.04386 0.0
H2165 H 0.03977 0.69689 0.05255 0.0
C2166 C 0.07717 0.74158 0.07972 0.0
C2167 C 0.09782 0.76313 0.09504 0.0
C2168 C 0.07727 0.71219 0.07354 0.0
C2169 C 0.11905 0.75466 0.10305 0.0
C2170 C 0.1194 0.72541 0.09661 0.0
C2171 C 0.09806 0.67415 0.07689 0.0
C2172 C 0.07653 0.65273 0.06336 0.0
C2173 C 0.09846 0.70385 0.08222 0.0
C2174 C 0.0558 0.66165 0.05452 0.0
C2175 C 0.05619 0.69093 0.05943 0.0
H2176 H 0.10611 0.31658 0.90076 0.0
H2177 H 0.06807 0.24889 0.8298 0.0
H2178 H 0.10552 0.25339 0.80916 0.0
H2179 H 0.14898 0.27598 0.81076 0.0
H2180 H 0.18819 0.34363 0.8809 0.0
H2181 H 0.15062 0.33948 0.90235 0.0
C2182 C 0.10606 0.30283 0.88081 0.0
C2183 C 0.08414 0.28246 0.86692 0.0
C2184 C 0.12792 0.30547 0.86883 0.0
C2185 C 0.08451 0.26479 0.84107 0.0
C2186 C 0.10599 0.26732 0.82914 0.0
C2187 C 0.1493 0.29013 0.83059 0.0
C2188 C 0.17135 0.31031 0.84401 0.0
C2189 C 0.12774 0.28759 0.84275 0.0
C2190 C 0.1715 0.32787 0.87009 0.0
C2191 C 0.14998 0.32555 0.88233 0.0
H2192 H 0.57166 0.79802 0.93698 0.0
H2193 H 0.64484 0.7937 0.92226 0.0
H2194 H 0.64486 0.76064 0.95308 0.0
H2195 H 0.62272 0.73029 0.98169 0.0
H2196 H 0.5492 0.73458 0.99491 0.0
H2197 H 0.55074 0.77035 0.96717 0.0
C2198 C 0.58776 0.79009 0.9406 0.0
C2199 C 0.60814 0.79818 0.92705 0.0
C2200 C 0.58749 0.77087 0.95795 0.0
C2201 C 0.62891 0.7879 0.93239 0.0
C2202 C 0.62885 0.76882 0.94987 0.0
C2203 C 0.60707 0.7391 0.97848 0.0
C2204 C 0.58584 0.72968 0.99035 0.0
C2205 C 0.60802 0.75967 0.9623 0.0
C2206 C 0.56584 0.74161 0.9863 0.0
C2207 C 0.56665 0.76198 0.97031 0.0
H2208 H 0.08729 0.79839 0.76748 0.0
H2209 H 0.0841 0.78487 0.67949 0.0
H2210 H 0.11471 0.75679 0.68043 0.0
H2211 H 0.14928 0.74765 0.70801 0.0
H2212 H 0.15303 0.76304 0.79644 0.0
H2213 H 0.11513 0.77859 0.79371 0.0
C2214 C 0.09251 0.78806 0.74843 0.0
C2215 C 0.08375 0.7936 0.72352 0.0
C2216 C 0.11075 0.77312 0.74938 0.0
C2217 C 0.09058 0.78055 0.69886 0.0
C2218 C 0.10837 0.76494 0.69949 0.0
C2219 C 0.14134 0.7534 0.72657 0.0
C2220 C 0.15436 0.75512 0.75249 0.0
C2221 C 0.11971 0.76278 0.72488 0.0
C2222 C 0.14375 0.76246 0.77634 0.0
C2223 C 0.12205 0.77127 0.7748 0.0
H2224 H 0.12119 0.42789 0.44019 0.0
H2225 H 0.05627 0.42464 0.38616 0.0
H2226 H 0.05344 0.47074 0.41382 0.0
H2227 H 0.06742 0.50999 0.45564 0.0
H2228 H 0.12957 0.51015 0.51251 0.0
H2229 H 0.13568 0.46776 0.48164 0.0
C2230 C 0.10668 0.43758 0.43436 0.0
C2231 C 0.08899 0.42307 0.41122 0.0
C2232 C 0.10463 0.46357 0.451 0.0
C2233 C 0.07003 0.4355 0.40399 0.0
C2234 C 0.0684 0.46182 0.4198 0.0
C2235 C 0.08252 0.50099 0.46099 0.0
C2236 C 0.0982 0.51341 0.48609 0.0
C2237 C 0.0853 0.47579 0.44367 0.0
C2238 C 0.11747 0.50128 0.49305 0.0
C2239 C 0.12088 0.47686 0.47551 0.0
H2240 H 0.46853 0.27804 0.25597 0.0
H2241 H 0.42794 0.22986 0.17659 0.0
H2242 H 0.38914 0.23069 0.19438 0.0
H2243 H 0.36754 0.25343 0.22967 0.0
H2244 H 0.4093 0.30856 0.30583 0.0
H2245 H 0.44687 0.29662 0.29249 0.0
C2246 C 0.45118 0.26689 0.2428 0.0
C2247 C 0.45102 0.25399 0.21501 0.0
C2248 C 0.42917 0.26926 0.25259 0.0
C2249 C 0.42845 0.23998 0.19806 0.0
C2250 C 0.40631 0.24067 0.20817 0.0
C2251 C 0.38481 0.26208 0.24355 0.0
C2252 C 0.38592 0.28174 0.26862 0.0
C2253 C 0.40651 0.2565 0.23497 0.0
C2254 C 0.40826 0.29339 0.28641 0.0
C2255 C 0.42967 0.28663 0.27875 0.0
H2256 H 0.65959 0.58564 0.38619 0.0
H2257 H 0.64758 0.49321 0.36021 0.0
H2258 H 0.62504 0.48681 0.39885 0.0
H2259 H 0.60679 0.50661 0.43988 0.0
H2260 H 0.62211 0.59884 0.46987 0.0
H2261 H 0.64482 0.60588 0.43104 0.0
C2262 C 0.65206 0.56401 0.38884 0.0
C2263 C 0.65533 0.53983 0.36906 0.0
C2264 C 0.63956 0.56036 0.41248 0.0
C2265 C 0.64555 0.51233 0.37416 0.0
C2266 C 0.63251 0.50861 0.3966 0.0
C2267 C 0.61553 0.5284 0.43846 0.0
C2268 C 0.61262 0.55212 0.45887 0.0
C2269 C 0.62921 0.53233 0.41597 0.0
C2270 C 0.62412 0.57997 0.45557 0.0
C2271 C 0.63703 0.58399 0.43284 0.0
H2272 H 0.31016 0.93248 0.09403 0.0
H2273 H 0.32652 0.87601 0.02426 0.0
H2274 H 0.3201 0.83643 0.04772 0.0
H2275 H 0.31444 0.81969 0.08983 0.0
H2276 H 0.30126 0.87699 0.16132 0.0
H2277 H 0.30126 0.91423 0.1354 0.0
C2278 C 0.31109 0.91107 0.08365 0.0
C2279 C 0.31801 0.90662 0.05735 0.0
C2280 C 0.30838 0.88876 0.09774 0.0
C2281 C 0.32042 0.87935 0.0443 0.0
C2282 C 0.31715 0.85692 0.05782 0.0
C2283 C 0.3114 0.84026 0.09964 0.0
C2284 C 0.30795 0.84566 0.12736 0.0
C2285 C 0.31189 0.86167 0.08485 0.0
C2286 C 0.30372 0.87225 0.13983 0.0
C2287 C 0.30384 0.8936 0.1251 0.0
H2288 H 0.99346 0.54781 0.8955 0.0
H2289 H 0.04999 0.61798 0.8826 0.0
H2290 H 0.07406 0.62093 0.92685 0.0
H2291 H 0.07929 0.60265 0.96844 0.0
H2292 H 0.02398 0.53054 0.98034 0.0
H2293 H 0.99891 0.5292 0.93736 0.0
C2294 C 1.01104 0.56369 0.90261 0.0
C2295 C 0.0202 0.58267 0.88628 0.0
C2296 C 0.02484 0.56489 0.92775 0.0
C2297 C 0.04288 0.60321 0.89516 0.0
C2298 C 0.05654 0.60488 0.92033 0.0
C2299 C 0.06172 0.58671 0.96161 0.0
C2300 C 0.05329 0.56694 0.97753 0.0
C2301 C 0.04777 0.5857 0.93669 0.0
C2302 C 0.03058 0.5463 0.96856 0.0
C2303 C 1.01635 0.5454 0.94393 0.0
H2304 H 0.28555 0.24059 0.59695 0.0
H2305 H 0.35568 0.29917 0.59621 0.0
H2306 H 0.36103 0.31552 0.64593 0.0
H2307 H 0.34757 0.31172 0.69052 0.0
H2308 H 0.27665 0.25631 0.69277 0.0
H2309 H 0.26997 0.24051 0.64222 0.0
C2310 C 0.3018 0.25728 0.60757 0.0
C2311 C 0.32024 0.26823 0.59229 0.0
C2312 C 0.30487 0.26706 0.63679 0.0
C2313 C 0.34113 0.28994 0.6069 0.0
C2314 C 0.34434 0.29938 0.63561 0.0
C2315 C 0.33058 0.29623 0.67999 0.0
C2316 C 0.31279 0.28501 0.69564 0.0
C2317 C 0.32663 0.28774 0.65086 0.0
C2318 C 0.29073 0.26533 0.68141 0.0
C2319 C 0.28692 0.25623 0.65241 0.0
H2320 H 0.62394 0.49382 0.17483 0.0
H2321 H 0.66348 0.58209 0.2124 0.0
H2322 H 0.64744 0.59724 0.17188 0.0
H2323 H 0.62134 0.58548 0.12448 0.0
H2324 H 0.58356 0.49611 0.088 0.0
H2325 H 0.5994 0.48209 0.12852 0.0
C2326 C 0.62929 0.51651 0.17445 0.0
C2327 C 0.6453 0.53655 0.19758 0.0
C2328 C 0.61997 0.52515 0.15068 0.0
C2329 C 0.65153 0.56576 0.19558 0.0
C2330 C 0.64214 0.57452 0.17211 0.0
C2331 C 0.6164 0.56291 0.12531 0.0
C2332 C 0.60071 0.54209 0.10222 0.0
C2333 C 0.62617 0.55448 0.14933 0.0
C2334 C 0.59527 0.513 0.10459 0.0
C2335 C 0.60446 0.50479 0.12812 0.0
H2336 H 0.34985 0.87085 0.9567 0.0
H2337 H 0.33802 0.94621 0.93096 0.0
H2338 H 0.32597 0.91805 0.88321 0.0
H2339 H 0.31966 0.87234 0.84889 0.0
H2340 H 0.32841 0.79603 0.87488 0.0
H2341 H 0.34095 0.82425 0.92269 0.0
C2342 C 0.34465 0.88108 0.9406 0.0
C2343 C 0.34507 0.91062 0.94718 0.0
C2344 C 0.3373 0.86464 0.9134 0.0
C2345 C 0.33784 0.92352 0.92631 0.0
C2346 C 0.33105 0.90747 0.89906 0.0
C2347 C 0.32436 0.86194 0.86505 0.0
C2348 C 0.32341 0.83231 0.85854 0.0
C2349 C 0.33088 0.8781 0.89238 0.0
C2350 C 0.3291 0.81887 0.87958 0.0
C2351 C 0.33626 0.83499 0.90681 0.0
H2352 H 0.9515 0.51971 0.72254 0.0
H2353 H 1.01449 0.49555 0.75615 0.0
H2354 H 0.02259 0.47729 0.70976 0.0
H2355 H 0.01768 0.48006 0.66172 0.0
H2356 H 0.95519 0.50489 0.62759 0.0
H2357 H 0.94022 0.50972 0.67209 0.0
C2358 C 0.96662 0.5098 0.71956 0.0
C2359 C 0.98291 0.50982 0.74244 0.0
C2360 C 0.97125 0.49954 0.69287 0.0
C2361 C 1.00199 0.49617 0.73867 0.0
C2362 C 1.00665 0.48578 0.71218 0.0
C2363 C 1.00018 0.48522 0.66349 0.0
C2364 C 0.98811 0.49338 0.64174 0.0
C2365 C 0.99224 0.48898 0.68928 0.0
C2366 C 0.96526 0.49954 0.64441 0.0
C2367 C 0.95681 0.50252 0.66988 0.0
H2368 H 0.34773 0.28691 0.44831 0.0
H2369 H 0.27043 0.2436 0.42776 0.0
H2370 H 0.27022 0.256 0.38242 0.0
H2371 H 0.29324 0.27787 0.34727 0.0
H2372 H 0.37147 0.31636 0.36968 0.0
H2373 H 0.36991 0.30666 0.41491 0.0
C2374 C 0.33058 0.28021 0.43424 0.0
C2375 C 0.30907 0.26438 0.44202 0.0
C2376 C 0.33085 0.28629 0.40795 0.0
C2377 C 0.28729 0.25607 0.42285 0.0
C2378 C 0.28725 0.26295 0.39668 0.0
C2379 C 0.30991 0.28398 0.36205 0.0
C2380 C 0.33248 0.29813 0.35467 0.0
C2381 C 0.30909 0.27775 0.3887 0.0
C2382 C 0.3538 0.30566 0.37433 0.0
C2383 C 0.35298 0.30017 0.40049 0.0
H2384 H 0.38786 0.63994 0.52284 0.0
H2385 H 0.35162 0.58449 0.57194 0.0
H2386 H 0.37995 0.55388 0.56313 0.0
H2387 H 0.41491 0.54268 0.54083 0.0
H2388 H 0.45091 0.59881 0.49241 0.0
H2389 H 0.42244 0.62923 0.50115 0.0
C2390 C 0.38628 0.62136 0.53191 0.0
C2391 C 0.36778 0.61459 0.54814 0.0
C2392 C 0.4023 0.60375 0.52645 0.0
C2393 C 0.36585 0.59026 0.55949 0.0
C2394 C 0.38191 0.57265 0.55432 0.0
C2395 C 0.41614 0.56138 0.532 0.0
C2396 C 0.43451 0.56853 0.51577 0.0
C2397 C 0.40006 0.57904 0.5376 0.0
C2398 C 0.43656 0.59298 0.50471 0.0
C2399 C 0.42047 0.61039 0.50985 0.0
H2400 H 0.9193 0.98246 0.52299 0.0
H2401 H 0.94348 0.93929 0.58315 0.0
H2402 H 0.9862 0.96562 0.58405 0.0
H2403 H 0.01673 1.00362 0.56985 0.0
H2404 H 0.99259 0.04397 0.50733 0.0
H2405 H 0.95005 1.01637 0.50532 0.0
C2406 C 0.93393 0.97856 0.53608 0.0
C2407 C 0.92805 0.95902 0.55314 0.0
C2408 C 0.95855 0.99363 0.53632 0.0
C2409 C 0.94736 0.95411 0.56977 0.0
C2410 C 0.97185 0.96935 0.57044 0.0
C2411 C 1.0021 1.00618 0.55574 0.0
C2412 C 1.00768 0.02604 0.53899 0.0
C2413 C 0.97766 0.9896 0.55419 0.0
C2414 C 0.98869 0.02888 0.52047 0.0
C2415 C 0.96436 1.01311 0.51934 0.0
H2416 H 0.88101 0.15141 0.30894 0.0
H2417 H 0.92713 0.16875 0.24741 0.0
H2418 H 0.90996 0.20957 0.24245 0.0
H2419 H 0.88126 0.24211 0.25576 0.0
H2420 H 0.83383 0.22148 0.31542 0.0
H2421 H 0.85178 0.18179 0.32061 0.0
C2422 C 0.88739 0.1638 0.29417 0.0
C2423 C 0.90582 0.15581 0.27854 0.0
C2424 C 0.87703 0.18764 0.29112 0.0
C2425 C 0.91316 0.17319 0.25977 0.0
C2426 C 0.90325 0.19706 0.257 0.0
C2427 C 0.87486 0.22918 0.27011 0.0
C2428 C 0.8558 0.23609 0.28542 0.0
C2429 C 0.88513 0.20489 0.27263 0.0
C2430 C 0.84814 0.21777 0.30328 0.0
C2431 C 0.85854 0.1946 0.3063 0.0
H2432 H 0.74571 0.08745 0.03944 0.0
H2433 H 0.73056 0.09856 0.95697 0.0
H2434 H 0.69236 0.11078 0.96736 0.0
H2435 H 0.66092 0.11116 0.99735 0.0
H2436 H 0.67338 0.09413 0.07802 0.0
H2437 H 0.7153 0.09209 0.07125 0.0
C2438 C 0.73423 0.09317 0.02403 0.0
C2439 C 0.74068 0.09204 0.99748 0.0
C2440 C 0.7118 0.09888 0.0298 0.0
C2441 C 0.72569 0.09909 0.97745 0.0
C2442 C 0.70392 0.10607 0.9834 0.0
C2443 C 0.67291 0.10759 1.01376 0.0
C2444 C 0.66394 0.10244 0.03805 0.0
C2445 C 0.69639 0.10496 1.00915 0.0
C2446 C 0.6798 0.09795 0.05906 0.0
C2447 C 0.7037 0.09661 0.05512 0.0
H2448 H 0.24228 0.53245 0.31288 0.0
H2449 H 0.19884 0.45592 0.25397 0.0
H2450 H 0.23133 0.4314 0.25992 0.0
H2451 H 0.27302 0.4332 0.27893 0.0
H2452 H 0.31831 0.51075 0.33499 0.0
H2453 H 0.2841 0.53362 0.3333 0.0
C2454 C 0.23987 0.51023 0.30181 0.0
C2455 C 0.21836 0.49578 0.28315 0.0
C2456 C 0.25901 0.49677 0.30451 0.0
C2457 C 0.21537 0.46725 0.26844 0.0
C2458 C 0.23391 0.45335 0.27175 0.0
C2459 C 0.27545 0.45521 0.29062 0.0
C2460 C 0.29818 0.47057 0.30662 0.0
C2461 C 0.25601 0.46818 0.28915 0.0
C2462 C 0.30094 0.49867 0.3224 0.0
C2463 C 0.28144 0.51169 0.3214 0.0
H2464 H 0.27687 0.45395 0.07869 0.0
H2465 H 0.28486 0.45766 0.99453 0.0
H2466 H 0.24922 0.47733 0.99087 0.0
H2467 H 0.21701 0.49595 1.01208 0.0
H2468 H 0.20957 0.49394 0.09665 0.0
H2469 H 0.24322 0.47071 0.09934 0.0
C2470 C 0.27067 0.45877 0.05946 0.0
C2471 C 0.28375 0.45444 0.03699 0.0
C2472 C 0.25017 0.47048 0.05752 0.0
C2473 C 0.27535 0.46088 1.01225 0.0
C2474 C 0.25492 0.47219 1.01011 0.0
C2475 C 0.22275 0.49053 0.03116 0.0
C2476 C 0.21072 0.49697 0.05417 0.0
C2477 C 0.24244 0.47756 0.03273 0.0
C2478 C 0.21821 0.4891 0.07849 0.0
C2479 C 0.23765 0.47597 0.08013 0.0
H2480 H 0.9218 0.98745 0.30953 0.0
H2481 H 0.88143 0.99856 0.23706 0.0
H2482 H 0.85545 0.94888 0.22938 0.0
H2483 H 0.84174 0.90279 0.24518 0.0
H2484 H 0.88462 0.8897 0.3148 0.0
H2485 H 0.91175 0.93868 0.32141 0.0
C2486 C 0.90762 0.97889 0.29169 0.0
C2487 C 0.90394 0.99742 0.27384 0.0
C2488 C 0.89293 0.94956 0.28694 0.0
C2489 C 0.88519 0.98536 0.25104 0.0
C2490 C 0.87011 0.95674 0.24675 0.0
C2491 C 0.85741 0.91027 0.26142 0.0
C2492 C 0.86096 0.89174 0.27928 0.0
C2493 C 0.87348 0.93865 0.26474 0.0
C2494 C 0.88138 0.9026 0.30031 0.0
C2495 C 0.89686 0.931 0.30427 0.0
H2496 H 0.7289 0.12957 0.74619 0.0
H2497 H 0.75707 0.13424 0.83068 0.0
H2498 H 0.783 0.18249 0.83451 0.0
H2499 H 0.79447 0.2251 0.81572 0.0
H2500 H 0.7667 0.22158 0.73164 0.0
H2501 H 0.7441 0.17088 0.72566 0.0
C2502 C 0.74103 0.14091 0.76527 0.0
C2503 C 0.74066 0.12844 0.78822 0.0
C2504 C 0.7558 0.16893 0.76752 0.0
C2505 C 0.75669 0.14339 0.81274 0.0
C2506 C 0.77153 0.17107 0.81503 0.0
C2507 C 0.78351 0.2132 0.79606 0.0
C2508 C 0.78173 0.22705 0.77435 0.0
C2509 C 0.77062 0.18434 0.79287 0.0
C2510 C 0.76813 0.21128 0.74871 0.0
C2511 C 0.75518 0.18238 0.74532 0.0
loop_
_geom_bond_atom_site_label_1
_geom_bond_atom_site_label_2
_geom_bond_distance
_geom_bond_site_symmetry_2
_ccdc_geom_bond_type
Mg0 O1 2.028 . S
Mg0 O7 1.986 . S
Mg0 O9 2.114 . S
Mg0 O10 2.251 . S
Mg0 O13 2.010 . S
O1 Mg0 2.028 . S
O1 C4 1.250 . S
O2 Mg3 2.028 . S
O2 C4 1.248 . S
Mg3 O2 2.028 . S
Mg3 O8 2.032 . S
Mg3 O10 2.079 . S
C4 O1 1.250 . S
C4 O2 1.248 . S
C5 O6 1.264 . S
C5 O13 1.249 . S
O6 C5 1.264 . S
O7 Mg0 1.986 . S
O7 C11 1.246 . S
O8 Mg3 2.032 . S
O8 C11 1.259 . S
O9 Mg0 2.114 . S
O9 C12 1.252 . S
O10 Mg0 2.251 . S
O10 Mg3 2.079 . S
O10 C12 1.273 . S
C11 O7 1.246 . S
C11 O8 1.259 . S
C12 O9 1.252 . S
C12 O10 1.273 . S
O13 Mg0 2.010 . S
O13 C5 1.249 . S
Mg14 O15 2.028 . S
Mg14 O21 1.986 . S
Mg14 O23 2.114 1_455 S
Mg14 O24 2.251 1_455 S
Mg14 O27 2.010 . S
O15 Mg14 2.028 . S
O15 C18 1.250 1_455 S
O16 Mg17 2.028 . S
O16 C18 1.248 . S
Mg17 O16 2.028 . S
Mg17 O22 2.032 . S
Mg17 O24 2.079 . S
C18 O15 1.250 1_655 S
C18 O16 1.248 . S
C19 O20 1.264 . S
C19 O27 1.249 . S
O20 C19 1.264 . S
O21 Mg14 1.986 . S
O21 C25 1.246 1_455 S
O22 Mg17 2.032 . S
O22 C25 1.259 . S
O23 Mg14 2.114 1_655 S
O23 C26 1.252 . S
O24 Mg14 2.251 1_655 S
O24 Mg17 2.079 . S
O24 C26 1.273 . S
C25 O21 1.246 1_655 S
C25 O22 1.259 . S
C26 O23 1.252 . S
C26 O24 1.273 . S
O27 Mg14 2.010 . S
O27 C19 1.249 . S
Mg28 O29 2.028 . S
Mg28 O35 1.986 . S
Mg28 O37 2.114 . S
Mg28 O38 2.251 . S
Mg28 O41 2.010 . S
O29 Mg28 2.028 . S
O29 C32 1.250 . S
O30 Mg31 2.028 . S
O30 C32 1.248 . S
Mg31 O30 2.028 . S
Mg31 O36 2.032 . S
Mg31 O38 2.079 . S
C32 O29 1.250 . S
C32 O30 1.248 . S
C33 O34 1.264 . S
C33 O41 1.249 . S
O34 C33 1.264 . S
O35 Mg28 1.986 . S
O35 C39 1.246 . S
O36 Mg31 2.032 . S
O36 C39 1.259 . S
O37 Mg28 2.114 . S
O37 C40 1.252 . S
O38 Mg28 2.251 . S
O38 Mg31 2.079 . S
O38 C40 1.273 . S
C39 O35 1.246 . S
C39 O36 1.259 . S
C40 O37 1.252 . S
C40 O38 1.273 . S
O41 Mg28 2.010 . S
O41 C33 1.249 . S
Mg42 O43 2.028 . S
Mg42 O49 1.986 . S
Mg42 O51 2.114 . S
Mg42 O52 2.251 . S
Mg42 O55 2.010 . S
O43 Mg42 2.028 . S
O43 C46 1.250 . S
O44 Mg45 2.028 . S
O44 C46 1.248 . S
Mg45 O44 2.028 . S
Mg45 O50 2.032 . S
Mg45 O52 2.079 . S
C46 O43 1.250 . S
C46 O44 1.248 . S
C47 O48 1.264 . S
C47 O55 1.249 . S
O48 C47 1.264 . S
O49 Mg42 1.986 . S
O49 C53 1.246 . S
O50 Mg45 2.032 . S
O50 C53 1.259 . S
O51 Mg42 2.114 . S
O51 C54 1.252 . S
O52 Mg42 2.251 . S
O52 Mg45 2.079 . S
O52 C54 1.273 . S
C53 O49 1.246 . S
C53 O50 1.259 . S
C54 O51 1.252 . S
C54 O52 1.273 . S
O55 Mg42 2.010 . S
O55 C47 1.249 . S
Mg56 O57 2.028 . S
Mg56 O63 1.986 . S
Mg56 O65 2.114 . S
Mg56 O66 2.251 . S
Mg56 O69 2.010 . S
O57 Mg56 2.028 . S
O57 C60 1.250 . S
O58 Mg59 2.028 . S
O58 C60 1.248 . S
Mg59 O58 2.028 . S
Mg59 O64 2.032 . S
Mg59 O66 2.079 . S
C60 O57 1.250 . S
C60 O58 1.248 . S
C61 O62 1.264 . S
C61 O69 1.249 . S
O62 C61 1.264 . S
O63 Mg56 1.986 . S
O63 C67 1.246 . S
O64 Mg59 2.032 . S
O64 C67 1.259 . S
O65 Mg56 2.114 . S
O65 C68 1.252 . S
O66 Mg56 2.251 . S
O66 Mg59 2.079 . S
O66 C68 1.273 . S
C67 O63 1.246 . S
C67 O64 1.259 . S
C68 O65 1.252 . S
C68 O66 1.273 . S
O69 Mg56 2.010 . S
O69 C61 1.249 . S
Mg70 O71 2.028 . S
Mg70 O77 1.986 . S
Mg70 O79 2.114 . S
Mg70 O80 2.251 . S
Mg70 O83 2.010 . S
O71 Mg70 2.028 . S
O71 C74 1.250 . S
O72 Mg73 2.028 . S
O72 C74 1.248 . S
Mg73 O72 2.028 . S
Mg73 O78 2.032 . S
Mg73 O80 2.079 . S
C74 O71 1.250 . S
C74 O72 1.248 . S
C75 O76 1.264 . S
C75 O83 1.249 . S
O76 C75 1.264 . S
O77 Mg70 1.986 . S
O77 C81 1.246 . S
O78 Mg73 2.032 . S
O78 C81 1.259 . S
O79 Mg70 2.114 . S
O79 C82 1.252 . S
O80 Mg70 2.251 . S
O80 Mg73 2.079 . S
O80 C82 1.273 . S
C81 O77 1.246 . S
C81 O78 1.259 . S
C82 O79 1.252 . S
C82 O80 1.273 . S
O83 Mg70 2.010 . S
O83 C75 1.249 . S
Mg84 O85 2.028 . S
Mg84 O91 1.986 . S
Mg84 O93 2.114 . S
Mg84 O94 2.251 . S
Mg84 O97 2.010 . S
O85 Mg84 2.028 . S
O85 C88 1.250 . S
O86 Mg87 2.028 . S
O86 C88 1.248 . S
Mg87 O86 2.028 . S
Mg87 O92 2.032 . S
Mg87 O94 2.079 . S
C88 O85 1.250 . S
C88 O86 1.248 . S
C89 O90 1.264 . S
C89 O97 1.249 . S
O90 C89 1.264 . S
O91 Mg84 1.986 . S
O91 C95 1.246 . S
O92 Mg87 2.032 . S
O92 C95 1.259 . S
O93 Mg84 2.114 . S
O93 C96 1.252 . S
O94 Mg84 2.251 . S
O94 Mg87 2.079 . S
O94 C96 1.273 . S
C95 O91 1.246 . S
C95 O92 1.259 . S
C96 O93 1.252 . S
C96 O94 1.273 . S
O97 Mg84 2.010 . S
O97 C89 1.249 . S
Mg98 O99 2.028 . S
Mg98 O105 1.986 . S
Mg98 O107 2.114 1_455 S
Mg98 O108 2.251 1_455 S
Mg98 O111 2.010 . S
O99 Mg98 2.028 . S
O99 C102 1.250 . S
O100 Mg101 2.028 1_455 S
O100 C102 1.248 . S
Mg101 O100 2.028 1_655 S
Mg101 O106 2.032 . S
Mg101 O108 2.079 . S
C102 O99 1.250 . S
C102 O100 1.248 . S
C103 O104 1.264 . S
C103 O111 1.249 . S
O104 C103 1.264 . S
O105 Mg98 1.986 . S
O105 C109 1.246 . S
O106 Mg101 2.032 . S
O106 C109 1.259 1_655 S
O107 Mg98 2.114 1_655 S
O107 C110 1.252 . S
O108 Mg98 2.251 1_655 S
O108 Mg101 2.079 . S
O108 C110 1.273 . S
C109 O105 1.246 . S
C109 O106 1.259 1_455 S
C110 O107 1.252 . S
C110 O108 1.273 . S
O111 Mg98 2.010 . S
O111 C103 1.249 . S
Mg112 O113 2.028 1_545 S
Mg112 O119 1.986 . S
Mg112 O121 2.114 . S
Mg112 O122 2.251 . S
Mg112 O125 2.010 . S
O113 Mg112 2.028 1_565 S
O113 C116 1.250 . S
O114 Mg115 2.028 1_565 S
O114 C116 1.248 . S
Mg115 O114 2.028 1_545 S
Mg115 O120 2.032 . S
Mg115 O122 2.079 . S
C116 O113 1.250 . S
C116 O114 1.248 . S
C117 O118 1.264 . S
C117 O125 1.249 . S
O118 C117 1.264 . S
O119 Mg112 1.986 . S
O119 C123 1.246 . S
O120 Mg115 2.032 . S
O120 C123 1.259 . S
O121 Mg112 2.114 . S
O121 C124 1.252 . S
O122 Mg112 2.251 . S
O122 Mg115 2.079 . S
O122 C124 1.273 . S
C123 O119 1.246 . S
C123 O120 1.259 . S
C124 O121 1.252 . S
C124 O122 1.273 . S
O125 Mg112 2.010 . S
O125 C117 1.249 . S
Mg126 O127 2.028 . S
Mg126 O133 1.986 . S
Mg126 O135 2.114 . S
Mg126 O136 2.251 . S
Mg126 O139 2.010 . S
O127 Mg126 2.028 . S
O127 C130 1.250 . S
O128 Mg129 2.028 . S
O128 C130 1.248 . S
Mg129 O128 2.028 . S
Mg129 O134 2.032 . S
Mg129 O136 2.079 . S
C130 O127 1.250 . S
C130 O128 1.248 . S
C131 O132 1.264 . S
C131 O139 1.249 . S
O132 C131 1.264 . S
O133 Mg126 1.986 . S
O133 C137 1.246 . S
O134 Mg129 2.032 . S
O134 C137 1.259 . S
O135 Mg126 2.114 . S
O135 C138 1.252 . S
O136 Mg126 2.251 . S
O136 Mg129 2.079 . S
O136 C138 1.273 . S
C137 O133 1.246 . S
C137 O134 1.259 . S
C138 O135 1.252 . S
C138 O136 1.273 . S
O139 Mg126 2.010 . S
O139 C131 1.249 . S
Mg140 O141 2.011 1_565 S
Mg140 O147 2.002 . S
Mg140 O149 2.103 1_565 S
Mg140 O150 2.253 1_565 S
Mg140 O153 2.007 . S
O141 Mg140 2.011 1_545 S
O141 C144 1.250 . S
O142 Mg143 2.028 . S
O142 C144 1.248 . S
Mg143 O142 2.028 . S
Mg143 O148 2.032 1_545 S
Mg143 O150 2.079 . S
C144 O141 1.250 . S
C144 O142 1.248 . S
C145 O146 1.264 . S
C145 O153 1.249 . S
O146 C145 1.264 . S
O147 Mg140 2.002 . S
O147 C151 1.246 . S
O148 Mg143 2.032 1_565 S
O148 C151 1.259 . S
O149 Mg140 2.103 1_545 S
O149 C152 1.252 . S
O150 Mg140 2.253 1_545 S
O150 Mg143 2.079 . S
O150 C152 1.273 . S
C151 O147 1.246 . S
C151 O148 1.259 . S
C152 O149 1.252 . S
C152 O150 1.273 . S
O153 Mg140 2.007 . S
O153 C145 1.249 . S
Mg154 O155 2.028 1_554 S
Mg154 O161 1.986 . S
Mg154 O163 2.114 . S
Mg154 O164 2.251 . S
Mg154 O167 2.010 . S
O155 Mg154 2.028 1_556 S
O155 C158 1.250 . S
O156 Mg157 2.028 1_556 S
O156 C158 1.248 . S
Mg157 O156 2.028 1_554 S
Mg157 O162 2.032 . S
Mg157 O164 2.079 . S
C158 O155 1.250 . S
C158 O156 1.248 . S
C159 O160 1.264 1_565 S
C159 O167 1.249 . S
O160 C159 1.264 1_545 S
O161 Mg154 1.986 . S
O161 C165 1.246 . S
O162 Mg157 2.032 . S
O162 C165 1.259 . S
O163 Mg154 2.114 . S
O163 C166 1.252 . S
O164 Mg154 2.251 . S
O164 Mg157 2.079 . S
O164 C166 1.273 . S
C165 O161 1.246 . S
C165 O162 1.259 . S
C166 O163 1.252 . S
C166 O164 1.273 . S
O167 Mg154 2.010 . S
O167 C159 1.249 . S
Mg168 O169 2.028 1_554 S
Mg168 O175 1.986 . S
Mg168 O177 2.114 . S
Mg168 O178 2.251 . S
Mg168 O181 2.010 . S
O169 Mg168 2.028 1_556 S
O169 C172 1.250 . S
O170 Mg171 2.028 1_556 S
O170 C172 1.248 . S
Mg171 O170 2.028 1_554 S
Mg171 O176 2.032 . S
Mg171 O178 2.079 . S
C172 O169 1.250 . S
C172 O170 1.248 . S
C173 O174 1.264 . S
C173 O181 1.249 . S
O174 C173 1.264 . S
O175 Mg168 1.986 . S
O175 C179 1.246 . S
O176 Mg171 2.032 . S
O176 C179 1.259 . S
O177 Mg168 2.114 . S
O177 C180 1.252 . S
O178 Mg168 2.251 . S
O178 Mg171 2.079 . S
O178 C180 1.273 . S
C179 O175 1.246 . S
C179 O176 1.259 . S
C180 O177 1.252 . S
C180 O178 1.273 . S
O181 Mg168 2.010 . S
O181 C173 1.249 . S
Mg182 O183 2.028 . S
Mg182 O189 1.986 1_554 S
Mg182 O191 2.114 . S
Mg182 O192 2.251 . S
Mg182 O195 2.010 . S
O183 Mg182 2.028 . S
O183 C186 1.250 . S
O184 Mg185 2.028 . S
O184 C186 1.248 . S
Mg185 O184 2.028 . S
Mg185 O190 2.032 . S
Mg185 O192 2.079 . S
C186 O183 1.250 . S
C186 O184 1.248 . S
C187 O188 1.264 1_554 S
C187 O195 1.249 . S
O188 C187 1.264 1_556 S
O189 Mg182 1.986 1_556 S
O189 C193 1.246 . S
O190 Mg185 2.032 . S
O190 C193 1.259 1_554 S
O191 Mg182 2.114 . S
O191 C194 1.252 . S
O192 Mg182 2.251 . S
O192 Mg185 2.079 . S
O192 C194 1.273 . S
C193 O189 1.246 . S
C193 O190 1.259 1_556 S
C194 O191 1.252 . S
C194 O192 1.273 . S
O195 Mg182 2.010 . S
O195 C187 1.249 . S
Mg196 O197 2.028 . S
Mg196 O203 1.986 . S
Mg196 O205 2.114 . S
Mg196 O206 2.251 . S
Mg196 O209 2.010 . S
O197 Mg196 2.028 . S
O197 C200 1.250 . S
O198 Mg199 2.028 . S
O198 C200 1.248 . S
Mg199 O198 2.028 . S
Mg199 O204 2.032 . S
Mg199 O206 2.079 . S
C200 O197 1.250 . S
C200 O198 1.248 . S
C201 O202 1.264 . S
C201 O209 1.249 . S
O202 C201 1.264 . S
O203 Mg196 1.986 . S
O203 C207 1.246 . S
O204 Mg199 2.032 . S
O204 C207 1.259 . S
O205 Mg196 2.114 . S
O205 C208 1.252 . S
O206 Mg196 2.251 . S
O206 Mg199 2.079 . S
O206 C208 1.273 . S
C207 O203 1.246 . S
C207 O204 1.259 . S
C208 O205 1.252 . S
C208 O206 1.273 . S
O209 Mg196 2.010 . S
O209 C201 1.249 . S
Mg210 O211 2.028 . S
Mg210 O217 1.986 . S
Mg210 O219 2.114 . S
Mg210 O220 2.251 . S
Mg210 O223 2.010 . S
O211 Mg210 2.028 . S
O211 C214 1.250 . S
O212 Mg213 2.028 . S
O212 C214 1.248 . S
Mg213 O212 2.028 . S
Mg213 O218 2.032 . S
Mg213 O220 2.079 . S
C214 O211 1.250 . S
C214 O212 1.248 . S
C215 O216 1.264 . S
C215 O223 1.249 . S
O216 C215 1.264 . S
O217 Mg210 1.986 . S
O217 C221 1.246 . S
O218 Mg213 2.032 . S
O218 C221 1.259 . S
O219 Mg210 2.114 . S
O219 C222 1.252 . S
O220 Mg210 2.251 . S
O220 Mg213 2.079 . S
O220 C222 1.273 . S
C221 O217 1.246 . S
C221 O218 1.259 . S
C222 O219 1.252 . S
C222 O220 1.273 . S
O223 Mg210 2.010 . S
O223 C215 1.249 . S
Mg224 O225 2.028 . S
Mg224 O231 1.986 . S
Mg224 O233 2.114 . S
Mg224 O234 2.251 . S
Mg224 O237 2.010 . S
O225 Mg224 2.028 . S
O225 C228 1.250 . S
O226 Mg227 2.028 . S
O226 C228 1.248 . S
Mg227 O226 2.028 . S
Mg227 O232 2.032 . S
Mg227 O234 2.079 . S
C228 O225 1.250 . S
C228 O226 1.248 . S
C229 O230 1.264 1_655 S
C229 O237 1.249 . S
O230 C229 1.264 1_455 S
O231 Mg224 1.986 . S
O231 C235 1.246 . S
O232 Mg227 2.032 . S
O232 C235 1.259 . S
O233 Mg224 2.114 . S
O233 C236 1.252 . S
O234 Mg224 2.251 . S
O234 Mg227 2.079 . S
O234 C236 1.273 . S
C235 O231 1.246 . S
C235 O232 1.259 . S
C236 O233 1.252 . S
C236 O234 1.273 . S
O237 Mg224 2.010 . S
O237 C229 1.249 . S
Mg238 O239 2.028 . S
Mg238 O245 1.986 . S
Mg238 O247 2.114 . S
Mg238 O248 2.251 . S
Mg238 O251 2.010 . S
O239 Mg238 2.028 . S
O239 C242 1.250 . S
O240 Mg241 2.028 . S
O240 C242 1.248 . S
Mg241 O240 2.028 . S
Mg241 O246 2.032 . S
Mg241 O248 2.079 . S
C242 O239 1.250 . S
C242 O240 1.248 . S
C243 O244 1.264 . S
C243 O251 1.249 . S
O244 C243 1.264 . S
O245 Mg238 1.986 . S
O245 C249 1.246 . S
O246 Mg241 2.032 . S
O246 C249 1.259 . S
O247 Mg238 2.114 . S
O247 C250 1.252 . S
O248 Mg238 2.251 . S
O248 Mg241 2.079 . S
O248 C250 1.273 . S
C249 O245 1.246 . S
C249 O246 1.259 . S
C250 O247 1.252 . S
C250 O248 1.273 . S
O251 Mg238 2.010 . S
O251 C243 1.249 . S
Mg252 O253 2.028 . S
Mg252 O259 1.986 . S
Mg252 O261 2.114 . S
Mg252 O262 2.251 . S
Mg252 O265 2.010 . S
O253 Mg252 2.028 . S
O253 C256 1.250 . S
O254 Mg255 2.028 . S
O254 C256 1.248 . S
Mg255 O254 2.028 . S
Mg255 O260 2.032 . S
Mg255 O262 2.079 . S
C256 O253 1.250 . S
C256 O254 1.248 . S
C257 O258 1.264 . S
C257 O265 1.249 . S
O258 C257 1.264 . S
O259 Mg252 1.986 . S
O259 C263 1.246 . S
O260 Mg255 2.032 . S
O260 C263 1.259 . S
O261 Mg252 2.114 . S
O261 C264 1.252 . S
O262 Mg252 2.251 . S
O262 Mg255 2.079 . S
O262 C264 1.273 . S
C263 O259 1.246 . S
C263 O260 1.259 . S
C264 O261 1.252 . S
C264 O262 1.273 . S
O265 Mg252 2.010 . S
O265 C257 1.249 . S
Mg266 O267 2.028 . S
Mg266 O273 1.986 . S
Mg266 O275 2.114 . S
Mg266 O276 2.251 . S
Mg266 O279 2.010 . S
O267 Mg266 2.028 . S
O267 C270 1.250 . S
O268 Mg269 2.028 . S
O268 C270 1.248 . S
Mg269 O268 2.028 . S
Mg269 O274 2.032 . S
Mg269 O276 2.079 . S
C270 O267 1.250 . S
C270 O268 1.248 . S
C271 O272 1.264 . S
C271 O279 1.249 . S
O272 C271 1.264 . S
O273 Mg266 1.986 . S
O273 C277 1.246 . S
O274 Mg269 2.032 . S
O274 C277 1.259 . S
O275 Mg266 2.114 . S
O275 C278 1.252 . S
O276 Mg266 2.251 . S
O276 Mg269 2.079 . S
O276 C278 1.273 . S
C277 O273 1.246 . S
C277 O274 1.259 . S
C278 O275 1.252 . S
C278 O276 1.273 . S
O279 Mg266 2.010 . S
O279 C271 1.249 . S
Mg280 O281 2.028 1_556 S
Mg280 O287 1.986 . S
Mg280 O289 2.114 1_556 S
Mg280 O290 2.251 1_556 S
Mg280 O293 2.010 . S
O281 Mg280 2.028 1_554 S
O281 C284 1.250 . S
O282 Mg283 2.028 . S
O282 C284 1.248 . S
Mg283 O282 2.028 . S
Mg283 O288 2.032 1_554 S
Mg283 O290 2.079 . S
C284 O281 1.250 . S
C284 O282 1.248 . S
C285 O286 1.264 . S
C285 O293 1.249 . S
O286 C285 1.264 . S
O287 Mg280 1.986 . S
O287 C291 1.246 . S
O288 Mg283 2.032 1_556 S
O288 C291 1.259 . S
O289 Mg280 2.114 1_554 S
O289 C292 1.252 . S
O290 Mg280 2.251 1_554 S
O290 Mg283 2.079 . S
O290 C292 1.273 . S
C291 O287 1.246 . S
C291 O288 1.259 . S
C292 O289 1.252 . S
C292 O290 1.273 . S
O293 Mg280 2.010 . S
O293 C285 1.249 . S
Mg294 O295 2.028 . S
Mg294 O301 1.986 . S
Mg294 O303 2.114 . S
Mg294 O304 2.251 . S
Mg294 O307 2.010 . S
O295 Mg294 2.028 . S
O295 C298 1.250 . S
O296 Mg297 2.028 . S
O296 C298 1.248 . S
Mg297 O296 2.028 . S
Mg297 O302 2.032 . S
Mg297 O304 2.079 . S
C298 O295 1.250 . S
C298 O296 1.248 . S
C299 O300 1.264 . S
C299 O307 1.249 . S
O300 C299 1.264 . S
O301 Mg294 1.986 . S
O301 C305 1.246 . S
O302 Mg297 2.032 . S
O302 C305 1.259 . S
O303 Mg294 2.114 . S
O303 C306 1.252 . S
O304 Mg294 2.251 . S
O304 Mg297 2.079 . S
O304 C306 1.273 . S
C305 O301 1.246 . S
C305 O302 1.259 . S
C306 O303 1.252 . S
C306 O304 1.273 . S
O307 Mg294 2.010 . S
O307 C299 1.249 . S
Mg308 O309 2.028 . S
Mg308 O315 1.986 . S
Mg308 O317 2.114 . S
Mg308 O318 2.251 . S
Mg308 O321 2.010 . S
O309 Mg308 2.028 . S
O309 C312 1.250 . S
O310 Mg311 2.028 . S
O310 C312 1.248 . S
Mg311 O310 2.028 . S
Mg311 O316 2.032 . S
Mg311 O318 2.079 . S
C312 O309 1.250 . S
C312 O310 1.248 . S
C313 O314 1.264 . S
C313 O321 1.249 . S
O314 C313 1.264 . S
O315 Mg308 1.986 . S
O315 C319 1.246 . S
O316 Mg311 2.032 . S
O316 C319 1.259 . S
O317 Mg308 2.114 . S
O317 C320 1.252 . S
O318 Mg308 2.251 . S
O318 Mg311 2.079 . S
O318 C320 1.273 . S
C319 O315 1.246 . S
C319 O316 1.259 . S
C320 O317 1.252 . S
C320 O318 1.273 . S
O321 Mg308 2.010 . S
O321 C313 1.249 . S
Mg322 O323 2.028 . S
Mg322 O329 1.986 . S
Mg322 O331 2.114 . S
Mg322 O332 2.251 . S
Mg322 O335 2.010 . S
O323 Mg322 2.028 . S
O323 C326 1.250 . S
O324 Mg325 2.028 . S
O324 C326 1.248 . S
Mg325 O324 2.028 . S
Mg325 O330 2.032 . S
Mg325 O332 2.079 . S
C326 O323 1.250 . S
C326 O324 1.248 . S
C327 O328 1.264 . S
C327 O335 1.249 . S
O328 C327 1.264 . S
O329 Mg322 1.986 . S
O329 C333 1.246 . S
O330 Mg325 2.032 . S
O330 C333 1.259 . S
O331 Mg322 2.114 . S
O331 C334 1.252 . S
O332 Mg322 2.251 . S
O332 Mg325 2.079 . S
O332 C334 1.273 . S
C333 O329 1.246 . S
C333 O330 1.259 . S
C334 O331 1.252 . S
C334 O332 1.273 . S
O335 Mg322 2.010 . S
O335 C327 1.249 . S
La336 C338 2.928 1_455 S
La336 O356 2.521 1_455 S
La336 O357 2.628 1_456 S
La336 O358 2.554 . S
La336 O359 2.757 . S
La336 O360 2.470 . S
La336 O365 2.482 1_556 S
La336 O367 2.503 1_546 S
La337 C347 2.928 . S
La337 O359 2.482 1_554 S
La337 O361 2.503 . S
La337 O362 2.521 . S
La337 O363 2.628 . S
La337 O364 2.554 . S
La337 O365 2.757 . S
La337 O366 2.470 . S
C338 La336 2.928 1_655 S
C338 C339 1.503 . S
C338 O356 1.261 . S
C338 O357 1.243 1_556 S
C339 C338 1.503 . S
C339 C340 1.394 . S
C339 C344 1.373 . S
C340 C339 1.394 . S
C340 C341 1.380 . S
C340 H368 0.930 . S
C341 C340 1.380 . S
C341 C342 1.376 . S
C341 H369 0.930 . S
C342 C341 1.376 . S
C342 C343 1.370 . S
C343 C342 1.370 . S
C343 C344 1.396 . S
C343 H370 0.929 1_556 S
C344 C339 1.373 . S
C344 C343 1.396 . S
C344 H371 0.929 1_556 S
C345 O358 1.240 . S
C345 O359 1.289 . S
C346 O360 1.258 1_554 S
C346 O361 1.256 . S
C347 La337 2.928 . S
C347 C348 1.503 . S
C347 O362 1.261 . S
C347 O363 1.243 . S
C348 C347 1.503 . S
C348 C349 1.394 . S
C348 C353 1.373 . S
C349 C348 1.394 . S
C349 C350 1.380 . S
C349 H372 0.930 . S
C350 C349 1.380 . S
C350 C351 1.376 . S
C350 H373 0.930 . S
C351 C350 1.376 . S
C351 C352 1.370 . S
C352 C351 1.370 . S
C352 C353 1.396 . S
C352 H374 0.929 1_545 S
C353 C348 1.373 . S
C353 C352 1.396 . S
C353 H375 0.929 . S
C354 O364 1.240 . S
C354 O365 1.289 . S
C355 O366 1.258 1_565 S
C355 O367 1.256 . S
O356 La336 2.521 1_655 S
O356 C338 1.261 . S
O357 La336 2.628 1_654 S
O357 C338 1.243 1_554 S
O358 La336 2.554 . S
O358 C345 1.240 . S
O359 La336 2.757 . S
O359 La337 2.482 1_556 S
O359 C345 1.289 . S
O360 La336 2.470 . S
O360 C346 1.258 1_556 S
O361 La337 2.503 . S
O361 C346 1.256 . S
O362 La337 2.521 . S
O362 C347 1.261 . S
O363 La337 2.628 . S
O363 C347 1.243 . S
O364 La337 2.554 . S
O364 C354 1.240 . S
O365 La336 2.482 1_554 S
O365 La337 2.757 . S
O365 C354 1.289 . S
O366 La337 2.470 . S
O366 C355 1.258 1_545 S
O367 La336 2.503 1_564 S
O367 C355 1.256 . S
H368 C340 0.930 . S
H369 C341 0.930 . S
H370 C343 0.929 1_554 S
H371 C344 0.929 1_554 S
H372 C349 0.930 . S
H373 C350 0.930 . S
H374 C352 0.929 1_565 S
H375 C353 0.929 . S
La376 C378 2.928 . S
La376 O396 2.521 . S
La376 O397 2.628 . S
La376 O398 2.554 . S
La376 O399 2.757 . S
La376 O400 2.470 . S
La376 O405 2.482 . S
La376 O407 2.503 . S
La377 C387 2.928 . S
La377 O399 2.482 . S
La377 O401 2.503 . S
La377 O402 2.521 . S
La377 O403 2.628 . S
La377 O404 2.554 . S
La377 O405 2.757 . S
La377 O406 2.470 . S
C378 La376 2.928 . S
C378 C379 1.503 . S
C378 O396 1.261 . S
C378 O397 1.243 . S
C379 C378 1.503 . S
C379 C380 1.394 . S
C379 C384 1.373 . S
C380 C379 1.394 . S
C380 C381 1.380 . S
C380 H408 0.930 . S
C381 C380 1.380 . S
C381 C382 1.376 . S
C381 H409 0.930 . S
C382 C381 1.376 . S
C382 C383 1.370 . S
C383 C382 1.370 . S
C383 C384 1.396 . S
C383 H410 0.929 . S
C384 C379 1.373 . S
C384 C383 1.396 . S
C384 H411 0.929 . S
C385 O398 1.240 . S
C385 O399 1.289 . S
C386 O400 1.258 . S
C386 O401 1.256 . S
C387 La377 2.928 . S
C387 C388 1.503 . S
C387 O402 1.261 . S
C387 O403 1.243 . S
C388 C387 1.503 . S
C388 C389 1.394 . S
C388 C393 1.373 . S
C389 C388 1.394 . S
C389 C390 1.380 . S
C389 H412 0.930 . S
C390 C389 1.380 . S
C390 C391 1.376 . S
C390 H413 0.930 . S
C391 C390 1.376 . S
C391 C392 1.370 . S
C392 C391 1.370 . S
C392 C393 1.396 . S
C392 H414 0.929 . S
C393 C388 1.373 . S
C393 C392 1.396 . S
C393 H415 0.929 . S
C394 O404 1.240 . S
C394 O405 1.289 . S
C395 O406 1.258 . S
C395 O407 1.256 . S
O396 La376 2.521 . S
O396 C378 1.261 . S
O397 La376 2.628 . S
O397 C378 1.243 . S
O398 La376 2.554 . S
O398 C385 1.240 . S
O399 La376 2.757 . S
O399 La377 2.482 . S
O399 C385 1.289 . S
O400 La376 2.470 . S
O400 C386 1.258 . S
O401 La377 2.503 . S
O401 C386 1.256 . S
O402 La377 2.521 . S
O402 C387 1.261 . S
O403 La377 2.628 . S
O403 C387 1.243 . S
O404 La377 2.554 . S
O404 C394 1.240 . S
O405 La376 2.482 . S
O405 La377 2.757 . S
O405 C394 1.289 . S
O406 La377 2.470 . S
O406 C395 1.258 . S
O407 La376 2.503 . S
O407 C395 1.256 . S
H408 C380 0.930 . S
H409 C381 0.930 . S
H410 C383 0.929 . S
H411 C384 0.929 . S
H412 C389 0.930 . S
H413 C390 0.930 . S
H414 C392 0.929 . S
H415 C393 0.929 . S
La416 C418 2.928 . S
La416 O436 2.521 . S
La416 O437 2.628 . S
La416 O438 2.554 . S
La416 O439 2.757 . S
La416 O440 2.470 1_545 S
La416 O445 2.482 . S
La416 O447 2.503 . S
La417 C427 2.928 . S
La417 O439 2.482 . S
La417 O441 2.503 1_545 S
La417 O442 2.521 . S
La417 O443 2.628 . S
La417 O444 2.554 . S
La417 O445 2.757 . S
La417 O446 2.470 . S
C418 La416 2.928 . S
C418 C419 1.503 1_545 S
C418 O436 1.261 . S
C418 O437 1.243 . S
C419 C418 1.503 1_565 S
C419 C420 1.394 . S
C419 C424 1.373 . S
C420 C419 1.394 . S
C420 C421 1.380 . S
C420 H448 0.930 1_565 S
C421 C420 1.380 . S
C421 C422 1.376 . S
C421 H449 0.930 . S
C422 C421 1.376 . S
C422 C423 1.370 . S
C423 C422 1.370 . S
C423 C424 1.396 . S
C423 H450 0.929 . S
C424 C419 1.373 . S
C424 C423 1.396 . S
C424 H451 0.929 . S
C425 O438 1.240 . S
C425 O439 1.289 . S
C426 O440 1.258 . S
C426 O441 1.256 . S
C427 La417 2.928 . S
C427 C428 1.503 . S
C427 O442 1.261 . S
C427 O443 1.243 . S
C428 C427 1.503 . S
C428 C429 1.394 . S
C428 C433 1.373 . S
C429 C428 1.394 . S
C429 C430 1.380 . S
C429 H452 0.930 . S
C430 C429 1.380 . S
C430 C431 1.376 . S
C430 H453 0.930 . S
C431 C430 1.376 . S
C431 C432 1.370 . S
C432 C431 1.370 . S
C432 C433 1.396 . S
C432 H454 0.929 . S
C433 C428 1.373 . S
C433 C432 1.396 . S
C433 H455 0.929 . S
C434 O444 1.240 . S
C434 O445 1.289 . S
C435 O446 1.258 . S
C435 O447 1.256 . S
O436 La416 2.521 . S
O436 C418 1.261 . S
O437 La416 2.628 . S
O437 C418 1.243 . S
O438 La416 2.554 . S
O438 C425 1.240 . S
O439 La416 2.757 . S
O439 La417 2.482 . S
O439 C425 1.289 . S
O440 La416 2.470 1_565 S
O440 C426 1.258 . S
O441 La417 2.503 1_565 S
O441 C426 1.256 . S
O442 La417 2.521 . S
O442 C427 1.261 . S
O443 La417 2.628 . S
O443 C427 1.243 . S
O444 La417 2.554 . S
O444 C434 1.240 . S
O445 La416 2.482 . S
O445 La417 2.757 . S
O445 C434 1.289 . S
O446 La417 2.470 . S
O446 C435 1.258 . S
O447 La416 2.503 . S
O447 C435 1.256 . S
H448 C420 0.930 1_545 S
H449 C421 0.930 . S
H450 C423 0.929 . S
H451 C424 0.929 . S
H452 C429 0.930 . S
H453 C430 0.930 . S
H454 C432 0.929 . S
H455 C433 0.929 . S
La456 C458 2.928 . S
La456 O476 2.521 . S
La456 O477 2.628 . S
La456 O478 2.554 . S
La456 O479 2.757 . S
La456 O480 2.470 . S
La456 O485 2.482 . S
La456 O487 2.503 . S
La457 C467 2.928 . S
La457 O479 2.482 . S
La457 O481 2.503 . S
La457 O482 2.521 . S
La457 O483 2.628 . S
La457 O484 2.554 . S
La457 O485 2.757 . S
La457 O486 2.470 . S
C458 La456 2.928 . S
C458 C459 1.503 . S
C458 O476 1.261 . S
C458 O477 1.243 . S
C459 C458 1.503 . S
C459 C460 1.394 . S
C459 C464 1.373 . S
C460 C459 1.394 . S
C460 C461 1.380 . S
C460 H488 0.930 . S
C461 C460 1.380 . S
C461 C462 1.376 . S
C461 H489 0.930 . S
C462 C461 1.376 . S
C462 C463 1.370 . S
C463 C462 1.370 . S
C463 C464 1.396 . S
C463 H490 0.929 . S
C464 C459 1.373 . S
C464 C463 1.396 . S
C464 H491 0.929 . S
C465 O478 1.240 . S
C465 O479 1.289 . S
C466 O480 1.258 . S
C466 O481 1.256 . S
C467 La457 2.928 . S
C467 C468 1.503 . S
C467 O482 1.261 . S
C467 O483 1.243 . S
C468 C467 1.503 . S
C468 C469 1.394 . S
C468 C473 1.373 . S
C469 C468 1.394 . S
C469 C470 1.380 . S
C469 H492 0.930 . S
C470 C469 1.380 . S
C470 C471 1.376 . S
C470 H493 0.930 . S
C471 C470 1.376 . S
C471 C472 1.370 . S
C472 C471 1.370 . S
C472 C473 1.396 . S
C472 H494 0.929 . S
C473 C468 1.373 . S
C473 C472 1.396 . S
C473 H495 0.929 . S
C474 O484 1.240 . S
C474 O485 1.289 . S
C475 O486 1.258 . S
C475 O487 1.256 . S
O476 La456 2.521 . S
O476 C458 1.261 . S
O477 La456 2.628 . S
O477 C458 1.243 . S
O478 La456 2.554 . S
O478 C465 1.240 . S
O479 La456 2.757 . S
O479 La457 2.482 . S
O479 C465 1.289 . S
O480 La456 2.470 . S
O480 C466 1.258 . S
O481 La457 2.503 . S
O481 C466 1.256 . S
O482 La457 2.521 . S
O482 C467 1.261 . S
O483 La457 2.628 . S
O483 C467 1.243 . S
O484 La457 2.554 . S
O484 C474 1.240 . S
O485 La456 2.482 . S
O485 La457 2.757 . S
O485 C474 1.289 . S
O486 La457 2.470 . S
O486 C475 1.258 . S
O487 La456 2.503 . S
O487 C475 1.256 . S
H488 C460 0.930 . S
H489 C461 0.930 . S
H490 C463 0.929 . S
H491 C464 0.929 . S
H492 C469 0.930 . S
H493 C470 0.930 . S
H494 C472 0.929 . S
H495 C473 0.929 . S
La496 C498 2.928 . S
La496 O516 2.521 . S
La496 O517 2.628 . S
La496 O518 2.554 . S
La496 O519 2.757 . S
La496 O520 2.470 . S
La496 O525 2.482 . S
La496 O527 2.503 . S
La497 C507 2.916 1_545 S
La497 O519 2.489 . S
La497 O521 2.511 . S
La497 O522 2.509 1_545 S
La497 O523 2.618 1_545 S
La497 O524 2.557 . S
La497 O525 2.768 . S
La497 O526 2.472 . S
C498 La496 2.928 . S
C498 C499 1.503 . S
C498 O516 1.261 . S
C498 O517 1.243 . S
C499 C498 1.503 . S
C499 C500 1.394 . S
C499 C504 1.373 . S
C500 C499 1.394 . S
C500 C501 1.380 . S
C500 H528 0.930 . S
C501 C500 1.380 . S
C501 C502 1.376 . S
C501 H529 0.930 . S
C502 C501 1.376 . S
C502 C503 1.370 . S
C503 C502 1.370 . S
C503 C504 1.396 . S
C503 H530 0.929 . S
C504 C499 1.373 . S
C504 C503 1.396 . S
C504 H531 0.929 . S
C505 O518 1.240 . S
C505 O519 1.289 . S
C506 O520 1.258 . S
C506 O521 1.256 . S
C507 La497 2.916 1_565 S
C507 C508 1.503 . S
C507 O522 1.261 . S
C507 O523 1.243 . S
C508 C507 1.503 . S
C508 C509 1.394 . S
C508 C513 1.373 . S
C509 C508 1.394 . S
C509 C510 1.380 . S
C509 H532 0.930 . S
C510 C509 1.380 . S
C510 C511 1.376 . S
C510 H533 0.930 . S
C511 C510 1.376 . S
C511 C512 1.370 . S
C512 C511 1.370 . S
C512 C513 1.396 . S
C512 H534 0.929 . S
C513 C508 1.373 . S
C513 C512 1.396 . S
C513 H535 0.929 . S
C514 O524 1.240 . S
C514 O525 1.289 . S
C515 O526 1.258 . S
C515 O527 1.256 . S
O516 La496 2.521 . S
O516 C498 1.261 . S
O517 La496 2.628 . S
O517 C498 1.243 . S
O518 La496 2.554 . S
O518 C505 1.240 . S
O519 La496 2.757 . S
O519 La497 2.489 . S
O519 C505 1.289 . S
O520 La496 2.470 . S
O520 C506 1.258 . S
O521 La497 2.511 . S
O521 C506 1.256 . S
O522 La497 2.509 1_565 S
O522 C507 1.261 . S
O523 La497 2.618 1_565 S
O523 C507 1.243 . S
O524 La497 2.557 . S
O524 C514 1.240 . S
O525 La496 2.482 . S
O525 La497 2.768 . S
O525 C514 1.289 . S
O526 La497 2.472 . S
O526 C515 1.258 . S
O527 La496 2.503 . S
O527 C515 1.256 . S
H528 C500 0.930 . S
H529 C501 0.930 . S
H530 C503 0.929 . S
H531 C504 0.929 . S
H532 C509 0.930 . S
H533 C510 0.930 . S
H534 C512 0.929 . S
H535 C513 0.929 . S
La536 C538 2.928 . S
La536 O556 2.521 . S
La536 O557 2.628 . S
La536 O558 2.554 . S
La536 O559 2.757 . S
La536 O560 2.470 . S
La536 O565 2.482 . S
La536 O567 2.503 . S
La537 C547 2.928 . S
La537 O559 2.482 . S
La537 O561 2.503 . S
La537 O562 2.521 . S
La537 O563 2.628 . S
La537 O564 2.554 . S
La537 O565 2.757 . S
La537 O566 2.470 . S
C538 La536 2.928 . S
C538 C539 1.503 . S
C538 O556 1.261 . S
C538 O557 1.243 . S
C539 C538 1.503 . S
C539 C540 1.394 . S
C539 C544 1.373 . S
C540 C539 1.394 . S
C540 C541 1.380 . S
C540 H568 0.930 . S
C541 C540 1.380 . S
C541 C542 1.376 . S
C541 H569 0.930 . S
C542 C541 1.376 . S
C542 C543 1.370 . S
C543 C542 1.370 . S
C543 C544 1.396 . S
C543 H570 0.929 . S
C544 C539 1.373 . S
C544 C543 1.396 . S
C544 H571 0.929 . S
C545 O558 1.240 . S
C545 O559 1.289 . S
C546 O560 1.258 . S
C546 O561 1.256 . S
C547 La537 2.928 . S
C547 C548 1.503 . S
C547 O562 1.261 . S
C547 O563 1.243 . S
C548 C547 1.503 . S
C548 C549 1.394 . S
C548 C553 1.373 . S
C549 C548 1.394 . S
C549 C550 1.380 . S
C549 H572 0.930 . S
C550 C549 1.380 . S
C550 C551 1.376 . S
C550 H573 0.930 . S
C551 C550 1.376 . S
C551 C552 1.370 . S
C552 C551 1.370 . S
C552 C553 1.396 . S
C552 H574 0.929 . S
C553 C548 1.373 . S
C553 C552 1.396 . S
C553 H575 0.929 . S
C554 O564 1.240 . S
C554 O565 1.289 . S
C555 O566 1.258 . S
C555 O567 1.256 . S
O556 La536 2.521 . S
O556 C538 1.261 . S
O557 La536 2.628 . S
O557 C538 1.243 . S
O558 La536 2.554 . S
O558 C545 1.240 . S
O559 La536 2.757 . S
O559 La537 2.482 . S
O559 C545 1.289 . S
O560 La536 2.470 . S
O560 C546 1.258 . S
O561 La537 2.503 . S
O561 C546 1.256 . S
O562 La537 2.521 . S
O562 C547 1.261 . S
O563 La537 2.628 . S
O563 C547 1.243 . S
O564 La537 2.554 . S
O564 C554 1.240 . S
O565 La536 2.482 . S
O565 La537 2.757 . S
O565 C554 1.289 . S
O566 La537 2.470 . S
O566 C555 1.258 . S
O567 La536 2.503 . S
O567 C555 1.256 . S
H568 C540 0.930 . S
H569 C541 0.930 . S
H570 C543 0.929 . S
H571 C544 0.929 . S
H572 C549 0.930 . S
H573 C550 0.930 . S
H574 C552 0.929 . S
H575 C553 0.929 . S
La576 C578 2.928 . S
La576 O596 2.521 1_545 S
La576 O597 2.628 . S
La576 O598 2.554 1_545 S
La576 O599 2.757 1_554 S
La576 O600 2.476 . S
La576 O605 2.482 . S
La576 O607 2.503 . S
La577 C587 2.928 . S
La577 O599 2.482 . S
La577 O601 2.503 . S
La577 O602 2.521 . S
La577 O603 2.628 . S
La577 O604 2.554 1_556 S
La577 O605 2.757 1_556 S
La577 O606 2.470 1_556 S
C578 La576 2.928 . S
C578 C579 1.503 1_545 S
C578 O596 1.261 1_545 S
C578 O597 1.243 . S
C579 C578 1.503 1_565 S
C579 C580 1.394 . S
C579 C584 1.373 1_565 S
C580 C579 1.394 . S
C580 C581 1.380 . S
C580 H608 0.930 . S
C581 C580 1.380 . S
C581 C582 1.376 . S
C581 H609 0.930 . S
C582 C581 1.376 . S
C582 C583 1.370 1_565 S
C583 C582 1.370 1_545 S
C583 C584 1.396 . S
C583 H610 0.929 . S
C584 C579 1.373 1_545 S
C584 C583 1.396 . S
C584 H611 0.929 . S
C585 O598 1.240 1_556 S
C585 O599 1.289 1_565 S
C586 O600 1.281 . S
C586 O601 1.256 1_554 S
C587 La577 2.928 . S
C587 C588 1.503 . S
C587 O602 1.261 . S
C587 O603 1.243 . S
C588 C587 1.503 . S
C588 C589 1.394 . S
C588 C593 1.373 . S
C589 C588 1.394 . S
C589 C590 1.380 . S
C589 H612 0.930 . S
C590 C589 1.380 . S
C590 C591 1.376 . S
C590 H613 0.930 . S
C591 C590 1.376 . S
C591 C592 1.370 . S
C592 C591 1.370 . S
C592 C593 1.396 . S
C592 H614 0.929 . S
C593 C588 1.373 . S
C593 C592 1.396 . S
C593 H615 0.929 . S
C594 O604 1.240 . S
C594 O605 1.289 . S
C595 O606 1.258 . S
C595 O607 1.256 . S
O596 La576 2.521 1_565 S
O596 C578 1.261 1_565 S
O597 La576 2.628 . S
O597 C578 1.243 . S
O598 La576 2.554 1_565 S
O598 C585 1.240 1_554 S
O599 La576 2.757 1_556 S
O599 La577 2.482 . S
O599 C585 1.289 1_545 S
O600 La576 2.476 . S
O600 C586 1.281 . S
O601 La577 2.503 . S
O601 C586 1.256 1_556 S
O602 La577 2.521 . S
O602 C587 1.261 . S
O603 La577 2.628 . S
O603 C587 1.243 . S
O604 La577 2.554 1_554 S
O604 C594 1.240 . S
O605 La576 2.482 . S
O605 La577 2.757 1_554 S
O605 C594 1.289 . S
O606 La577 2.470 1_554 S
O606 C595 1.258 . S
O607 La576 2.503 . S
O607 C595 1.256 . S
H608 C580 0.930 . S
H609 C581 0.930 . S
H610 C583 0.929 . S
H611 C584 0.929 . S
H612 C589 0.930 . S
H613 C590 0.930 . S
H614 C592 0.929 . S
H615 C593 0.929 . S
La616 C618 2.928 . S
La616 O636 2.521 . S
La616 O637 2.628 . S
La616 O638 2.554 . S
La616 O639 2.757 . S
La616 O640 2.470 . S
La616 O645 2.482 . S
La616 O647 2.503 . S
La617 C627 2.928 . S
La617 O639 2.482 . S
La617 O641 2.503 . S
La617 O642 2.521 . S
La617 O643 2.628 . S
La617 O644 2.554 . S
La617 O645 2.757 . S
La617 O646 2.470 . S
C618 La616 2.928 . S
C618 C619 1.503 . S
C618 O636 1.261 . S
C618 O637 1.243 . S
C619 C618 1.503 . S
C619 C620 1.394 . S
C619 C624 1.373 . S
C620 C619 1.394 . S
C620 C621 1.380 . S
C620 H648 0.930 . S
C621 C620 1.380 . S
C621 C622 1.376 . S
C621 H649 0.930 . S
C622 C621 1.376 . S
C622 C623 1.370 . S
C623 C622 1.370 . S
C623 C624 1.396 . S
C623 H650 0.929 . S
C624 C619 1.373 . S
C624 C623 1.396 . S
C624 H651 0.929 . S
C625 O638 1.240 . S
C625 O639 1.289 . S
C626 O640 1.258 . S
C626 O641 1.256 . S
C627 La617 2.928 . S
C627 C628 1.503 . S
C627 O642 1.261 . S
C627 O643 1.243 . S
C628 C627 1.503 . S
C628 C629 1.394 . S
C628 C633 1.373 . S
C629 C628 1.394 . S
C629 C630 1.380 . S
C629 H652 0.930 . S
C630 C629 1.380 . S
C630 C631 1.376 . S
C630 H653 0.930 . S
C631 C630 1.376 . S
C631 C632 1.370 . S
C632 C631 1.370 . S
C632 C633 1.396 . S
C632 H654 0.929 . S
C633 C628 1.373 . S
C633 C632 1.396 . S
C633 H655 0.929 . S
C634 O644 1.240 . S
C634 O645 1.289 . S
C635 O646 1.258 . S
C635 O647 1.256 . S
O636 La616 2.521 . S
O636 C618 1.261 . S
O637 La616 2.628 . S
O637 C618 1.243 . S
O638 La616 2.554 . S
O638 C625 1.240 . S
O639 La616 2.757 . S
O639 La617 2.482 . S
O639 C625 1.289 . S
O640 La616 2.470 . S
O640 C626 1.258 . S
O641 La617 2.503 . S
O641 C626 1.256 . S
O642 La617 2.521 . S
O642 C627 1.261 . S
O643 La617 2.628 . S
O643 C627 1.243 . S
O644 La617 2.554 . S
O644 C634 1.240 . S
O645 La616 2.482 . S
O645 La617 2.757 . S
O645 C634 1.289 . S
O646 La617 2.470 . S
O646 C635 1.258 . S
O647 La616 2.503 . S
O647 C635 1.256 . S
H648 C620 0.930 . S
H649 C621 0.930 . S
H650 C623 0.929 . S
H651 C624 0.929 . S
H652 C629 0.930 . S
H653 C630 0.930 . S
H654 C632 0.929 . S
H655 C633 0.929 . S
La656 C658 2.928 . S
La656 O676 2.521 . S
La656 O677 2.628 . S
La656 O678 2.554 . S
La656 O679 2.757 . S
La656 O680 2.470 1_554 S
La656 O685 2.482 . S
La656 O687 2.503 . S
La657 C667 2.930 1_556 S
La657 O679 2.483 1_556 S
La657 O681 2.500 . S
La657 O682 2.522 1_556 S
La657 O683 2.630 1_556 S
La657 O684 2.553 1_556 S
La657 O685 2.756 1_556 S
La657 O686 2.473 1_556 S
C658 La656 2.928 . S
C658 C659 1.503 1_554 S
C658 O676 1.261 . S
C658 O677 1.243 . S
C659 C658 1.503 1_556 S
C659 C660 1.394 . S
C659 C664 1.373 . S
C660 C659 1.394 . S
C660 C661 1.380 . S
C660 H688 0.930 1_556 S
C661 C660 1.380 . S
C661 C662 1.376 . S
C661 H689 0.930 . S
C662 C661 1.376 . S
C662 C663 1.370 . S
C663 C662 1.370 . S
C663 C664 1.396 . S
C663 H690 0.929 . S
C664 C659 1.373 . S
C664 C663 1.396 . S
C664 H691 0.929 . S
C665 O678 1.240 . S
C665 O679 1.289 . S
C666 O680 1.258 . S
C666 O681 1.256 . S
C667 La657 2.930 1_554 S
C667 C668 1.503 . S
C667 O682 1.261 . S
C667 O683 1.243 . S
C668 C667 1.503 . S
C668 C669 1.394 . S
C668 C673 1.373 . S
C669 C668 1.394 . S
C669 C670 1.380 . S
C669 H692 0.930 . S
C670 C669 1.380 . S
C670 C671 1.376 . S
C670 H693 0.930 . S
C671 C670 1.376 . S
C671 C672 1.370 . S
C672 C671 1.370 . S
C672 C673 1.396 . S
C672 H694 0.929 . S
C673 C668 1.373 . S
C673 C672 1.396 . S
C673 H695 0.929 . S
C674 O684 1.240 . S
C674 O685 1.289 . S
C675 O686 1.258 . S
C675 O687 1.256 . S
O676 La656 2.521 . S
O676 C658 1.261 . S
O677 La656 2.628 . S
O677 C658 1.243 . S
O678 La656 2.554 . S
O678 C665 1.240 . S
O679 La656 2.757 . S
O679 La657 2.483 1_554 S
O679 C665 1.289 . S
O680 La656 2.470 1_556 S
O680 C666 1.258 . S
O681 La657 2.500 . S
O681 C666 1.256 . S
O682 La657 2.522 1_554 S
O682 C667 1.261 . S
O683 La657 2.630 1_554 S
O683 C667 1.243 . S
O684 La657 2.553 1_554 S
O684 C674 1.240 . S
O685 La656 2.482 . S
O685 La657 2.756 1_554 S
O685 C674 1.289 . S
O686 La657 2.473 1_554 S
O686 C675 1.258 . S
O687 La656 2.503 . S
O687 C675 1.256 . S
H688 C660 0.930 1_554 S
H689 C661 0.930 . S
H690 C663 0.929 . S
H691 C664 0.929 . S
H692 C669 0.930 . S
H693 C670 0.930 . S
H694 C672 0.929 . S
H695 C673 0.929 . S
La696 C698 2.928 . S
La696 O716 2.521 . S
La696 O717 2.628 . S
La696 O718 2.554 . S
La696 O719 2.757 . S
La696 O720 2.470 . S
La696 O725 2.482 . S
La696 O727 2.503 . S
La697 C707 2.928 . S
La697 O719 2.482 . S
La697 O721 2.503 . S
La697 O722 2.521 . S
La697 O723 2.628 . S
La697 O724 2.554 . S
La697 O725 2.757 . S
La697 O726 2.470 . S
C698 La696 2.928 . S
C698 C699 1.503 . S
C698 O716 1.261 . S
C698 O717 1.243 . S
C699 C698 1.503 . S
C699 C700 1.394 . S
C699 C704 1.373 . S
C700 C699 1.394 . S
C700 C701 1.380 . S
C700 H728 0.930 . S
C701 C700 1.380 . S
C701 C702 1.376 . S
C701 H729 0.930 . S
C702 C701 1.376 . S
C702 C703 1.370 . S
C703 C702 1.370 . S
C703 C704 1.396 . S
C703 H730 0.929 . S
C704 C699 1.373 . S
C704 C703 1.396 . S
C704 H731 0.929 . S
C705 O718 1.240 . S
C705 O719 1.289 . S
C706 O720 1.258 . S
C706 O721 1.256 . S
C707 La697 2.928 . S
C707 C708 1.503 . S
C707 O722 1.261 . S
C707 O723 1.243 . S
C708 C707 1.503 . S
C708 C709 1.394 . S
C708 C713 1.373 . S
C709 C708 1.394 . S
C709 C710 1.380 . S
C709 H732 0.930 . S
C710 C709 1.380 . S
C710 C711 1.376 . S
C710 H733 0.930 . S
C711 C710 1.376 . S
C711 C712 1.370 . S
C712 C711 1.370 . S
C712 C713 1.396 . S
C712 H734 0.929 . S
C713 C708 1.373 . S
C713 C712 1.396 . S
C713 H735 0.929 . S
C714 O724 1.240 . S
C714 O725 1.289 . S
C715 O726 1.258 . S
C715 O727 1.256 . S
O716 La696 2.521 . S
O716 C698 1.261 . S
O717 La696 2.628 . S
O717 C698 1.243 . S
O718 La696 2.554 . S
O718 C705 1.240 . S
O719 La696 2.757 . S
O719 La697 2.482 . S
O719 C705 1.289 . S
O720 La696 2.470 . S
O720 C706 1.258 . S
O721 La697 2.503 . S
O721 C706 1.256 . S
O722 La697 2.521 . S
O722 C707 1.261 . S
O723 La697 2.628 . S
O723 C707 1.243 . S
O724 La697 2.554 . S
O724 C714 1.240 . S
O725 La696 2.482 . S
O725 La697 2.757 . S
O725 C714 1.289 . S
O726 La697 2.470 . S
O726 C715 1.258 . S
O727 La696 2.503 . S
O727 C715 1.256 . S
H728 C700 0.930 . S
H729 C701 0.930 . S
H730 C703 0.929 . S
H731 C704 0.929 . S
H732 C709 0.930 . S
H733 C710 0.930 . S
H734 C712 0.929 . S
H735 C713 0.929 . S
La736 C738 2.928 . S
La736 O756 2.521 . S
La736 O757 2.628 . S
La736 O758 2.554 . S
La736 O759 2.757 . S
La736 O760 2.470 . S
La736 O765 2.482 . S
La736 O767 2.503 . S
La737 C747 2.928 . S
La737 O759 2.482 . S
La737 O761 2.503 . S
La737 O762 2.521 . S
La737 O763 2.628 . S
La737 O764 2.554 . S
La737 O765 2.757 . S
La737 O766 2.470 . S
C738 La736 2.928 . S
C738 C739 1.503 . S
C738 O756 1.261 . S
C738 O757 1.243 . S
C739 C738 1.503 . S
C739 C740 1.394 . S
C739 C744 1.370 1_455 S
C740 C739 1.394 . S
C740 C741 1.380 . S
C740 H768 0.930 . S
C741 C740 1.380 . S
C741 C742 1.376 1_455 S
C741 H769 0.930 . S
C742 C741 1.376 1_655 S
C742 C743 1.370 . S
C743 C742 1.370 . S
C743 C744 1.397 . S
C743 H770 0.929 . S
C744 C739 1.370 1_655 S
C744 C743 1.397 . S
C744 H771 0.931 . S
C745 O758 1.240 . S
C745 O759 1.289 . S
C746 O760 1.258 . S
C746 O761 1.256 . S
C747 La737 2.928 . S
C747 C748 1.503 . S
C747 O762 1.261 . S
C747 O763 1.243 . S
C748 C747 1.503 . S
C748 C749 1.394 . S
C748 C753 1.373 . S
C749 C748 1.394 . S
C749 C750 1.380 . S
C749 H772 0.930 . S
C750 C749 1.380 . S
C750 C751 1.376 . S
C750 H773 0.930 . S
C751 C750 1.376 . S
C751 C752 1.370 . S
C752 C751 1.370 . S
C752 C753 1.396 . S
C752 H774 0.929 . S
C753 C748 1.373 . S
C753 C752 1.396 . S
C753 H775 0.929 . S
C754 O764 1.240 . S
C754 O765 1.289 . S
C755 O766 1.258 . S
C755 O767 1.256 . S
O756 La736 2.521 . S
O756 C738 1.261 . S
O757 La736 2.628 . S
O757 C738 1.243 . S
O758 La736 2.554 . S
O758 C745 1.240 . S
O759 La736 2.757 . S
O759 La737 2.482 . S
O759 C745 1.289 . S
O760 La736 2.470 . S
O760 C746 1.258 . S
O761 La737 2.503 . S
O761 C746 1.256 . S
O762 La737 2.521 . S
O762 C747 1.261 . S
O763 La737 2.628 . S
O763 C747 1.243 . S
O764 La737 2.554 . S
O764 C754 1.240 . S
O765 La736 2.482 . S
O765 La737 2.757 . S
O765 C754 1.289 . S
O766 La737 2.470 . S
O766 C755 1.258 . S
O767 La736 2.503 . S
O767 C755 1.256 . S
H768 C740 0.930 . S
H769 C741 0.930 . S
H770 C743 0.929 . S
H771 C744 0.931 . S
H772 C749 0.930 . S
H773 C750 0.930 . S
H774 C752 0.929 . S
H775 C753 0.929 . S
La776 C778 2.928 . S
La776 O796 2.521 . S
La776 O797 2.628 . S
La776 O798 2.554 . S
La776 O799 2.757 . S
La776 O800 2.470 . S
La776 O805 2.482 . S
La776 O807 2.503 . S
La777 C787 2.928 . S
La777 O799 2.482 . S
La777 O801 2.503 . S
La777 O802 2.521 . S
La777 O803 2.628 . S
La777 O804 2.554 . S
La777 O805 2.757 . S
La777 O806 2.470 . S
C778 La776 2.928 . S
C778 C779 1.503 . S
C778 O796 1.261 . S
C778 O797 1.243 . S
C779 C778 1.503 . S
C779 C780 1.394 . S
C779 C784 1.373 . S
C780 C779 1.394 . S
C780 C781 1.380 . S
C780 H808 0.930 . S
C781 C780 1.380 . S
C781 C782 1.376 . S
C781 H809 0.930 . S
C782 C781 1.376 . S
C782 C783 1.370 . S
C783 C782 1.370 . S
C783 C784 1.396 . S
C783 H810 0.929 . S
C784 C779 1.373 . S
C784 C783 1.396 . S
C784 H811 0.929 . S
C785 O798 1.240 . S
C785 O799 1.289 . S
C786 O800 1.258 . S
C786 O801 1.256 . S
C787 La777 2.928 . S
C787 C788 1.503 . S
C787 O802 1.261 . S
C787 O803 1.243 . S
C788 C787 1.503 . S
C788 C789 1.394 . S
C788 C793 1.373 . S
C789 C788 1.394 . S
C789 C790 1.380 . S
C789 H812 0.930 . S
C790 C789 1.380 . S
C790 C791 1.376 . S
C790 H813 0.930 . S
C791 C790 1.376 . S
C791 C792 1.370 . S
C792 C791 1.370 . S
C792 C793 1.396 . S
C792 H814 0.929 . S
C793 C788 1.373 . S
C793 C792 1.396 . S
C793 H815 0.929 . S
C794 O804 1.240 . S
C794 O805 1.289 . S
C795 O806 1.258 . S
C795 O807 1.256 . S
O796 La776 2.521 . S
O796 C778 1.261 . S
O797 La776 2.628 . S
O797 C778 1.243 . S
O798 La776 2.554 . S
O798 C785 1.240 . S
O799 La776 2.757 . S
O799 La777 2.482 . S
O799 C785 1.289 . S
O800 La776 2.470 . S
O800 C786 1.258 . S
O801 La777 2.503 . S
O801 C786 1.256 . S
O802 La777 2.521 . S
O802 C787 1.261 . S
O803 La777 2.628 . S
O803 C787 1.243 . S
O804 La777 2.554 . S
O804 C794 1.240 . S
O805 La776 2.482 . S
O805 La777 2.757 . S
O805 C794 1.289 . S
O806 La777 2.470 . S
O806 C795 1.258 . S
O807 La776 2.503 . S
O807 C795 1.256 . S
H808 C780 0.930 . S
H809 C781 0.930 . S
H810 C783 0.929 . S
H811 C784 0.929 . S
H812 C789 0.930 . S
H813 C790 0.930 . S
H814 C792 0.929 . S
H815 C793 0.929 . S
La816 C818 2.928 . S
La816 O836 2.521 . S
La816 O837 2.628 . S
La816 O838 2.554 . S
La816 O839 2.757 . S
La816 O840 2.470 . S
La816 O845 2.482 . S
La816 O847 2.503 . S
La817 C827 2.928 . S
La817 O839 2.482 . S
La817 O841 2.503 . S
La817 O842 2.521 . S
La817 O843 2.628 . S
La817 O844 2.554 . S
La817 O845 2.757 . S
La817 O846 2.470 . S
C818 La816 2.928 . S
C818 C819 1.503 . S
C818 O836 1.261 . S
C818 O837 1.243 . S
C819 C818 1.503 . S
C819 C820 1.394 . S
C819 C824 1.373 . S
C820 C819 1.394 . S
C820 C821 1.380 . S
C820 H848 0.930 . S
C821 C820 1.380 . S
C821 C822 1.376 . S
C821 H849 0.930 . S
C822 C821 1.376 . S
C822 C823 1.370 . S
C823 C822 1.370 . S
C823 C824 1.396 . S
C823 H850 0.929 . S
C824 C819 1.373 . S
C824 C823 1.396 . S
C824 H851 0.929 . S
C825 O838 1.240 . S
C825 O839 1.289 . S
C826 O840 1.258 . S
C826 O841 1.256 . S
C827 La817 2.928 . S
C827 C828 1.503 . S
C827 O842 1.261 . S
C827 O843 1.243 . S
C828 C827 1.503 . S
C828 C829 1.394 . S
C828 C833 1.373 . S
C829 C828 1.394 . S
C829 C830 1.380 . S
C829 H852 0.930 . S
C830 C829 1.380 . S
C830 C831 1.376 . S
C830 H853 0.930 . S
C831 C830 1.376 . S
C831 C832 1.370 . S
C832 C831 1.370 . S
C832 C833 1.396 . S
C832 H854 0.929 . S
C833 C828 1.373 . S
C833 C832 1.396 . S
C833 H855 0.929 . S
C834 O844 1.240 . S
C834 O845 1.289 . S
C835 O846 1.258 . S
C835 O847 1.256 . S
O836 La816 2.521 . S
O836 C818 1.261 . S
O837 La816 2.628 . S
O837 C818 1.243 . S
O838 La816 2.554 . S
O838 C825 1.240 . S
O839 La816 2.757 . S
O839 La817 2.482 . S
O839 C825 1.289 . S
O840 La816 2.470 . S
O840 C826 1.258 . S
O841 La817 2.503 . S
O841 C826 1.256 . S
O842 La817 2.521 . S
O842 C827 1.261 . S
O843 La817 2.628 . S
O843 C827 1.243 . S
O844 La817 2.554 . S
O844 C834 1.240 . S
O845 La816 2.482 . S
O845 La817 2.757 . S
O845 C834 1.289 . S
O846 La817 2.470 . S
O846 C835 1.258 . S
O847 La816 2.503 . S
O847 C835 1.256 . S
H848 C820 0.930 . S
H849 C821 0.930 . S
H850 C823 0.929 . S
H851 C824 0.929 . S
H852 C829 0.930 . S
H853 C830 0.930 . S
H854 C832 0.929 . S
H855 C833 0.929 . S
La856 C858 2.928 . S
La856 O876 2.521 . S
La856 O877 2.628 . S
La856 O878 2.554 . S
La856 O879 2.757 . S
La856 O880 2.470 . S
La856 O885 2.482 . S
La856 O887 2.503 . S
La857 C867 2.928 . S
La857 O879 2.482 . S
La857 O881 2.503 . S
La857 O882 2.521 . S
La857 O883 2.628 . S
La857 O884 2.554 . S
La857 O885 2.757 . S
La857 O886 2.470 . S
C858 La856 2.928 . S
C858 C859 1.503 . S
C858 O876 1.261 . S
C858 O877 1.243 . S
C859 C858 1.503 . S
C859 C860 1.394 . S
C859 C864 1.373 . S
C860 C859 1.394 . S
C860 C861 1.380 . S
C860 H888 0.930 . S
C861 C860 1.380 . S
C861 C862 1.376 . S
C861 H889 0.930 . S
C862 C861 1.376 . S
C862 C863 1.370 . S
C863 C862 1.370 . S
C863 C864 1.396 . S
C863 H890 0.929 . S
C864 C859 1.373 . S
C864 C863 1.396 . S
C864 H891 0.929 . S
C865 O878 1.240 . S
C865 O879 1.289 . S
C866 O880 1.258 . S
C866 O881 1.256 . S
C867 La857 2.928 . S
C867 C868 1.503 . S
C867 O882 1.261 . S
C867 O883 1.243 . S
C868 C867 1.503 . S
C868 C869 1.394 . S
C868 C873 1.373 . S
C869 C868 1.394 . S
C869 C870 1.380 . S
C869 H892 0.930 . S
C870 C869 1.380 . S
C870 C871 1.376 . S
C870 H893 0.930 . S
C871 C870 1.376 . S
C871 C872 1.370 . S
C872 C871 1.370 . S
C872 C873 1.396 . S
C872 H894 0.929 . S
C873 C868 1.373 . S
C873 C872 1.396 . S
C873 H895 0.929 . S
C874 O884 1.240 . S
C874 O885 1.289 . S
C875 O886 1.258 . S
C875 O887 1.256 . S
O876 La856 2.521 . S
O876 C858 1.261 . S
O877 La856 2.628 . S
O877 C858 1.243 . S
O878 La856 2.554 . S
O878 C865 1.240 . S
O879 La856 2.757 . S
O879 La857 2.482 . S
O879 C865 1.289 . S
O880 La856 2.470 . S
O880 C866 1.258 . S
O881 La857 2.503 . S
O881 C866 1.256 . S
O882 La857 2.521 . S
O882 C867 1.261 . S
O883 La857 2.628 . S
O883 C867 1.243 . S
O884 La857 2.554 . S
O884 C874 1.240 . S
O885 La856 2.482 . S
O885 La857 2.757 . S
O885 C874 1.289 . S
O886 La857 2.470 . S
O886 C875 1.258 . S
O887 La856 2.503 . S
O887 C875 1.256 . S
H888 C860 0.930 . S
H889 C861 0.930 . S
H890 C863 0.929 . S
H891 C864 0.929 . S
H892 C869 0.930 . S
H893 C870 0.930 . S
H894 C872 0.929 . S
H895 C873 0.929 . S
La896 C898 2.928 . S
La896 O916 2.521 . S
La896 O917 2.628 . S
La896 O918 2.554 . S
La896 O919 2.757 . S
La896 O920 2.470 . S
La896 O925 2.482 . S
La896 O927 2.503 . S
La897 C907 2.928 . S
La897 O919 2.482 . S
La897 O921 2.503 . S
La897 O922 2.521 . S
La897 O923 2.628 . S
La897 O924 2.554 . S
La897 O925 2.757 . S
La897 O926 2.470 . S
C898 La896 2.928 . S
C898 C899 1.503 . S
C898 O916 1.261 . S
C898 O917 1.243 . S
C899 C898 1.503 . S
C899 C900 1.394 . S
C899 C904 1.373 . S
C900 C899 1.394 . S
C900 C901 1.380 . S
C900 H928 0.930 . S
C901 C900 1.380 . S
C901 C902 1.376 . S
C901 H929 0.930 . S
C902 C901 1.376 . S
C902 C903 1.370 . S
C903 C902 1.370 . S
C903 C904 1.396 . S
C903 H930 0.929 . S
C904 C899 1.373 . S
C904 C903 1.396 . S
C904 H931 0.929 . S
C905 O918 1.240 . S
C905 O919 1.289 . S
C906 O920 1.258 . S
C906 O921 1.256 . S
C907 La897 2.928 . S
C907 C908 1.503 . S
C907 O922 1.261 . S
C907 O923 1.243 . S
C908 C907 1.503 . S
C908 C909 1.394 . S
C908 C913 1.373 . S
C909 C908 1.394 . S
C909 C910 1.380 . S
C909 H932 0.930 . S
C910 C909 1.380 . S
C910 C911 1.376 . S
C910 H933 0.930 . S
C911 C910 1.376 . S
C911 C912 1.370 . S
C912 C911 1.370 . S
C912 C913 1.396 . S
C912 H934 0.929 . S
C913 C908 1.373 . S
C913 C912 1.396 . S
C913 H935 0.929 . S
C914 O924 1.240 . S
C914 O925 1.289 . S
C915 O926 1.258 . S
C915 O927 1.256 . S
O916 La896 2.521 . S
O916 C898 1.261 . S
O917 La896 2.628 . S
O917 C898 1.243 . S
O918 La896 2.554 . S
O918 C905 1.240 . S
O919 La896 2.757 . S
O919 La897 2.482 . S
O919 C905 1.289 . S
O920 La896 2.470 . S
O920 C906 1.258 . S
O921 La897 2.503 . S
O921 C906 1.256 . S
O922 La897 2.521 . S
O922 C907 1.261 . S
O923 La897 2.628 . S
O923 C907 1.243 . S
O924 La897 2.554 . S
O924 C914 1.240 . S
O925 La896 2.482 . S
O925 La897 2.757 . S
O925 C914 1.289 . S
O926 La897 2.470 . S
O926 C915 1.258 . S
O927 La896 2.503 . S
O927 C915 1.256 . S
H928 C900 0.930 . S
H929 C901 0.930 . S
H930 C903 0.929 . S
H931 C904 0.929 . S
H932 C909 0.930 . S
H933 C910 0.930 . S
H934 C912 0.929 . S
H935 C913 0.929 . S
La936 C938 2.928 1_554 S
La936 O956 2.520 1_554 S
La936 O957 2.628 . S
La936 O958 2.552 1_554 S
La936 O959 2.756 1_554 S
La936 O960 2.470 1_554 S
La936 O965 2.483 . S
La936 O967 2.503 . S
La937 C947 2.928 1_455 S
La937 O959 2.482 1_554 S
La937 O961 2.503 . S
La937 O962 2.521 1_455 S
La937 O963 2.628 1_455 S
La937 O964 2.554 . S
La937 O965 2.757 . S
La937 O966 2.470 . S
C938 La936 2.928 1_556 S
C938 C939 1.503 . S
C938 O956 1.261 . S
C938 O957 1.243 1_556 S
C939 C938 1.503 . S
C939 C940 1.394 . S
C939 C944 1.373 1_556 S
C940 C939 1.394 . S
C940 C941 1.380 . S
C940 H968 0.930 . S
C941 C940 1.380 . S
C941 C942 1.376 . S
C941 H969 0.930 . S
C942 C941 1.376 . S
C942 C943 1.370 . S
C943 C942 1.370 . S
C943 C944 1.396 1_556 S
C943 H970 0.929 1_556 S
C944 C939 1.373 1_554 S
C944 C943 1.396 1_554 S
C944 H971 0.929 . S
C945 O958 1.240 . S
C945 O959 1.289 . S
C946 O960 1.258 . S
C946 O961 1.256 1_556 S
C947 La937 2.928 1_655 S
C947 C948 1.503 . S
C947 O962 1.261 . S
C947 O963 1.243 . S
C948 C947 1.503 . S
C948 C949 1.394 . S
C948 C953 1.373 . S
C949 C948 1.394 . S
C949 C950 1.380 . S
C949 H972 0.930 . S
C950 C949 1.380 . S
C950 C951 1.376 . S
C950 H973 0.930 . S
C951 C950 1.376 . S
C951 C952 1.370 . S
C952 C951 1.370 . S
C952 C953 1.396 . S
C952 H974 0.929 . S
C953 C948 1.373 . S
C953 C952 1.396 . S
C953 H975 0.929 . S
C954 O964 1.240 . S
C954 O965 1.289 . S
C955 O966 1.258 . S
C955 O967 1.256 . S
O956 La936 2.520 1_556 S
O956 C938 1.261 . S
O957 La936 2.628 . S
O957 C938 1.243 1_554 S
O958 La936 2.552 1_556 S
O958 C945 1.240 . S
O959 La936 2.756 1_556 S
O959 La937 2.482 1_556 S
O959 C945 1.289 . S
O960 La936 2.470 1_556 S
O960 C946 1.258 . S
O961 La937 2.503 . S
O961 C946 1.256 1_554 S
O962 La937 2.521 1_655 S
O962 C947 1.261 . S
O963 La937 2.628 1_655 S
O963 C947 1.243 . S
O964 La937 2.554 . S
O964 C954 1.240 . S
O965 La936 2.483 . S
O965 La937 2.757 . S
O965 C954 1.289 . S
O966 La937 2.470 . S
O966 C955 1.258 . S
O967 La936 2.503 . S
O967 C955 1.256 . S
H968 C940 0.930 . S
H969 C941 0.930 . S
H970 C943 0.929 1_554 S
H971 C944 0.929 . S
H972 C949 0.930 . S
H973 C950 0.930 . S
H974 C952 0.929 . S
H975 C953 0.929 . S
H976 C982 0.930 1_655 S
H977 C985 0.930 . S
H978 C986 0.930 . S
H979 C987 0.930 . S
H980 C990 0.965 . S
H981 C991 0.930 1_655 S
C982 H976 0.930 1_455 S
C982 C983 1.355 . S
C982 C984 1.415 . S
C983 C982 1.355 . S
C983 C985 1.419 . S
C984 C982 1.415 . S
C984 C989 1.425 . S
C984 C991 1.409 . S
C985 H977 0.930 . S
C985 C983 1.419 . S
C985 C986 1.362 . S
C986 H978 0.930 . S
C986 C985 1.362 . S
C986 C989 1.409 . S
C987 H979 0.930 . S
C987 C988 1.355 . S
C987 C989 1.415 . S
C988 C987 1.355 . S
C988 C990 1.419 . S
C989 C984 1.425 . S
C989 C986 1.409 . S
C989 C987 1.415 . S
C990 H980 0.965 . S
C990 C988 1.419 . S
C990 C991 1.362 . S
C991 H981 0.930 1_455 S
C991 C984 1.409 . S
C991 C990 1.362 . S
H992 C998 0.930 . S
H993 C1001 0.930 . S
H994 C1002 0.930 . S
H995 C1003 0.930 . S
H996 C1006 0.930 . S
H997 C1007 0.930 . S
C998 H992 0.930 . S
C998 C999 1.355 . S
C998 C1000 1.415 . S
C999 C998 1.355 . S
C999 C1001 1.419 . S
C1000 C998 1.415 . S
C1000 C1005 1.425 . S
C1000 C1007 1.409 . S
C1001 H993 0.930 . S
C1001 C999 1.419 . S
C1001 C1002 1.362 . S
C1002 H994 0.930 . S
C1002 C1001 1.362 . S
C1002 C1005 1.409 . S
C1003 H995 0.930 . S
C1003 C1004 1.355 . S
C1003 C1005 1.415 . S
C1004 C1003 1.355 . S
C1004 C1006 1.419 . S
C1005 C1000 1.425 . S
C1005 C1002 1.409 . S
C1005 C1003 1.415 . S
C1006 H996 0.930 . S
C1006 C1004 1.419 . S
C1006 C1007 1.362 . S
C1007 H997 0.930 . S
C1007 C1000 1.409 . S
C1007 C1006 1.362 . S
H1008 C1014 0.930 . S
H1009 C1017 0.930 . S
H1010 C1018 0.930 . S
H1011 C1019 0.930 . S
H1012 C1022 0.930 . S
H1013 C1023 0.930 . S
C1014 H1008 0.930 . S
C1014 C1015 1.355 . S
C1014 C1016 1.415 . S
C1015 C1014 1.355 . S
C1015 C1017 1.419 . S
C1016 C1014 1.415 . S
C1016 C1021 1.425 . S
C1016 C1023 1.409 . S
C1017 H1009 0.930 . S
C1017 C1015 1.419 . S
C1017 C1018 1.362 . S
C1018 H1010 0.930 . S
C1018 C1017 1.362 . S
C1018 C1021 1.409 . S
C1019 H1011 0.930 . S
C1019 C1020 1.355 . S
C1019 C1021 1.415 . S
C1020 C1019 1.355 . S
C1020 C1022 1.419 . S
C1021 C1016 1.425 . S
C1021 C1018 1.409 . S
C1021 C1019 1.415 . S
C1022 H1012 0.930 . S
C1022 C1020 1.419 . S
C1022 C1023 1.362 . S
C1023 H1013 0.930 . S
C1023 C1016 1.409 . S
C1023 C1022 1.362 . S
H1024 C1030 0.930 . S
H1025 C1033 0.930 . S
H1026 C1034 0.930 . S
H1027 C1035 0.930 . S
H1028 C1038 0.930 . S
H1029 C1039 0.930 . S
C1030 H1024 0.930 . S
C1030 C1031 1.355 . S
C1030 C1032 1.415 . S
C1031 C1030 1.355 . S
C1031 C1033 1.419 . S
C1032 C1030 1.415 . S
C1032 C1037 1.425 . S
C1032 C1039 1.409 . S
C1033 H1025 0.930 . S
C1033 C1031 1.419 . S
C1033 C1034 1.362 . S
C1034 H1026 0.930 . S
C1034 C1033 1.362 . S
C1034 C1037 1.409 . S
C1035 H1027 0.930 . S
C1035 C1036 1.355 . S
C1035 C1037 1.415 . S
C1036 C1035 1.355 . S
C1036 C1038 1.419 . S
C1037 C1032 1.425 . S
C1037 C1034 1.409 . S
C1037 C1035 1.415 . S
C1038 H1028 0.930 . S
C1038 C1036 1.419 . S
C1038 C1039 1.362 . S
C1039 H1029 0.930 . S
C1039 C1032 1.409 . S
C1039 C1038 1.362 . S
H1040 C1046 0.930 1_655 S
H1041 C1049 0.930 . S
H1042 C1050 0.930 . S
H1043 C1051 0.930 . S
H1044 C1054 0.930 . S
H1045 C1055 0.930 . S
C1046 H1040 0.930 1_455 S
C1046 C1047 1.355 . S
C1046 C1048 1.415 . S
C1047 C1046 1.355 . S
C1047 C1049 1.419 . S
C1048 C1046 1.415 . S
C1048 C1053 1.425 . S
C1048 C1055 1.409 . S
C1049 H1041 0.930 . S
C1049 C1047 1.419 . S
C1049 C1050 1.362 . S
C1050 H1042 0.930 . S
C1050 C1049 1.362 . S
C1050 C1053 1.409 . S
C1051 H1043 0.930 . S
C1051 C1052 1.355 . S
C1051 C1053 1.415 . S
C1052 C1051 1.355 . S
C1052 C1054 1.419 . S
C1053 C1048 1.425 . S
C1053 C1050 1.409 . S
C1053 C1051 1.415 . S
C1054 H1044 0.930 . S
C1054 C1052 1.419 . S
C1054 C1055 1.362 . S
C1055 H1045 0.930 . S
C1055 C1048 1.409 . S
C1055 C1054 1.362 . S
H1056 C1062 0.930 . S
H1057 C1065 0.930 . S
H1058 C1066 0.930 . S
H1059 C1067 0.930 . S
H1060 C1070 0.930 . S
H1061 C1071 0.930 . S
C1062 H1056 0.930 . S
C1062 C1063 1.355 . S
C1062 C1064 1.415 . S
C1063 C1062 1.355 . S
C1063 C1065 1.419 . S
C1064 C1062 1.415 . S
C1064 C1069 1.425 . S
C1064 C1071 1.409 . S
C1065 H1057 0.930 . S
C1065 C1063 1.419 . S
C1065 C1066 1.362 . S
C1066 H1058 0.930 . S
C1066 C1065 1.362 . S
C1066 C1069 1.409 . S
C1067 H1059 0.930 . S
C1067 C1068 1.355 . S
C1067 C1069 1.415 . S
C1068 C1067 1.355 . S
C1068 C1070 1.419 . S
C1069 C1064 1.425 . S
C1069 C1066 1.409 . S
C1069 C1067 1.415 . S
C1070 H1060 0.930 . S
C1070 C1068 1.419 . S
C1070 C1071 1.362 . S
C1071 H1061 0.930 . S
C1071 C1064 1.409 . S
C1071 C1070 1.362 . S
H1072 C1078 0.930 . S
H1073 C1081 0.930 . S
H1074 C1082 0.930 . S
H1075 C1083 0.930 . S
H1076 C1086 0.930 . S
H1077 C1087 0.930 . S
C1078 H1072 0.930 . S
C1078 C1079 1.355 . S
C1078 C1080 1.415 . S
C1079 C1078 1.355 . S
C1079 C1081 1.419 . S
C1080 C1078 1.415 . S
C1080 C1085 1.425 . S
C1080 C1087 1.409 . S
C1081 H1073 0.930 . S
C1081 C1079 1.419 . S
C1081 C1082 1.362 . S
C1082 H1074 0.930 . S
C1082 C1081 1.362 . S
C1082 C1085 1.409 . S
C1083 H1075 0.930 . S
C1083 C1084 1.355 . S
C1083 C1085 1.415 . S
C1084 C1083 1.355 . S
C1084 C1086 1.419 . S
C1085 C1080 1.425 . S
C1085 C1082 1.409 . S
C1085 C1083 1.415 . S
C1086 H1076 0.930 . S
C1086 C1084 1.419 . S
C1086 C1087 1.362 . S
C1087 H1077 0.930 . S
C1087 C1080 1.409 . S
C1087 C1086 1.362 . S
H1088 C1094 0.930 . S
H1089 C1097 0.930 . S
H1090 C1098 0.930 . S
H1091 C1099 0.930 . S
H1092 C1102 0.930 . S
H1093 C1103 0.930 . S
C1094 H1088 0.930 . S
C1094 C1095 1.355 . S
C1094 C1096 1.415 . S
C1095 C1094 1.355 . S
C1095 C1097 1.419 . S
C1096 C1094 1.415 . S
C1096 C1101 1.425 . S
C1096 C1103 1.409 . S
C1097 H1089 0.930 . S
C1097 C1095 1.419 . S
C1097 C1098 1.362 . S
C1098 H1090 0.930 . S
C1098 C1097 1.362 . S
C1098 C1101 1.409 . S
C1099 H1091 0.930 . S
C1099 C1100 1.355 . S
C1099 C1101 1.415 . S
C1100 C1099 1.355 . S
C1100 C1102 1.419 . S
C1101 C1096 1.425 . S
C1101 C1098 1.409 . S
C1101 C1099 1.415 . S
C1102 H1092 0.930 . S
C1102 C1100 1.419 . S
C1102 C1103 1.362 . S
C1103 H1093 0.930 . S
C1103 C1096 1.409 . S
C1103 C1102 1.362 . S
H1104 C1110 0.930 . S
H1105 C1113 0.930 . S
H1106 C1114 0.930 . S
H1107 C1115 0.930 . S
H1108 C1118 0.922 1_655 S
H1109 C1119 0.930 . S
C1110 H1104 0.930 . S
C1110 C1111 1.355 . S
C1110 C1112 1.415 . S
C1111 C1110 1.355 . S
C1111 C1113 1.419 1_655 S
C1112 C1110 1.415 . S
C1112 C1117 1.425 1_655 S
C1112 C1119 1.409 . S
C1113 H1105 0.930 . S
C1113 C1111 1.419 1_455 S
C1113 C1114 1.362 . S
C1114 H1106 0.930 . S
C1114 C1113 1.362 . S
C1114 C1117 1.409 . S
C1115 H1107 0.930 . S
C1115 C1116 1.355 . S
C1115 C1117 1.415 . S
C1116 C1115 1.355 . S
C1116 C1118 1.450 . S
C1117 C1112 1.425 1_455 S
C1117 C1114 1.409 . S
C1117 C1115 1.415 . S
C1118 H1108 0.922 1_455 S
C1118 C1116 1.450 . S
C1118 C1119 1.340 1_455 S
C1119 H1109 0.930 . S
C1119 C1112 1.409 . S
C1119 C1118 1.340 1_655 S
H1120 C1126 0.930 . S
H1121 C1129 0.930 . S
H1122 C1130 0.930 . S
H1123 C1131 0.930 . S
H1124 C1134 0.930 . S
H1125 C1135 0.930 . S
C1126 H1120 0.930 . S
C1126 C1127 1.355 . S
C1126 C1128 1.415 . S
C1127 C1126 1.355 . S
C1127 C1129 1.419 . S
C1128 C1126 1.415 . S
C1128 C1133 1.425 . S
C1128 C1135 1.409 . S
C1129 H1121 0.930 . S
C1129 C1127 1.419 . S
C1129 C1130 1.362 . S
C1130 H1122 0.930 . S
C1130 C1129 1.362 . S
C1130 C1133 1.409 . S
C1131 H1123 0.930 . S
C1131 C1132 1.355 . S
C1131 C1133 1.415 . S
C1132 C1131 1.355 . S
C1132 C1134 1.419 . S
C1133 C1128 1.425 . S
C1133 C1130 1.409 . S
C1133 C1131 1.415 . S
C1134 H1124 0.930 . S
C1134 C1132 1.419 . S
C1134 C1135 1.362 . S
C1135 H1125 0.930 . S
C1135 C1128 1.409 . S
C1135 C1134 1.362 . S
H1136 C1142 0.930 . S
H1137 C1145 0.930 . S
H1138 C1146 0.930 . S
H1139 C1147 0.930 . S
H1140 C1150 0.930 . S
H1141 C1151 0.930 . S
C1142 H1136 0.930 . S
C1142 C1143 1.355 . S
C1142 C1144 1.415 . S
C1143 C1142 1.355 . S
C1143 C1145 1.419 . S
C1144 C1142 1.415 . S
C1144 C1149 1.425 . S
C1144 C1151 1.409 . S
C1145 H1137 0.930 . S
C1145 C1143 1.419 . S
C1145 C1146 1.362 . S
C1146 H1138 0.930 . S
C1146 C1145 1.362 . S
C1146 C1149 1.409 . S
C1147 H1139 0.930 . S
C1147 C1148 1.355 . S
C1147 C1149 1.415 . S
C1148 C1147 1.355 . S
C1148 C1150 1.419 . S
C1149 C1144 1.425 . S
C1149 C1146 1.409 . S
C1149 C1147 1.415 . S
C1150 H1140 0.930 . S
C1150 C1148 1.419 . S
C1150 C1151 1.362 . S
C1151 H1141 0.930 . S
C1151 C1144 1.409 . S
C1151 C1150 1.362 . S
H1152 C1158 0.930 . S
H1153 C1161 0.930 . S
H1154 C1162 0.930 . S
H1155 C1163 0.930 . S
H1156 C1166 0.930 . S
H1157 C1167 0.930 . S
C1158 H1152 0.930 . S
C1158 C1159 1.355 . S
C1158 C1160 1.415 . S
C1159 C1158 1.355 . S
C1159 C1161 1.419 . S
C1160 C1158 1.415 . S
C1160 C1165 1.425 . S
C1160 C1167 1.409 . S
C1161 H1153 0.930 . S
C1161 C1159 1.419 . S
C1161 C1162 1.362 . S
C1162 H1154 0.930 . S
C1162 C1161 1.362 . S
C1162 C1165 1.409 . S
C1163 H1155 0.930 . S
C1163 C1164 1.355 . S
C1163 C1165 1.415 . S
C1164 C1163 1.355 . S
C1164 C1166 1.419 . S
C1165 C1160 1.425 . S
C1165 C1162 1.409 . S
C1165 C1163 1.415 . S
C1166 H1156 0.930 . S
C1166 C1164 1.419 . S
C1166 C1167 1.362 . S
C1167 H1157 0.930 . S
C1167 C1160 1.409 . S
C1167 C1166 1.362 . S
H1168 C1174 0.930 . S
H1169 C1177 0.930 . S
H1170 C1178 0.930 . S
H1171 C1179 0.930 . S
H1172 C1182 0.930 1_655 S
H1173 C1183 0.930 . S
C1174 H1168 0.930 . S
C1174 C1175 1.355 . S
C1174 C1176 1.415 . S
C1175 C1174 1.355 . S
C1175 C1177 1.419 1_655 S
C1176 C1174 1.415 . S
C1176 C1181 1.425 1_655 S
C1176 C1183 1.409 . S
C1177 H1169 0.930 . S
C1177 C1175 1.419 1_455 S
C1177 C1178 1.362 . S
C1178 H1170 0.930 . S
C1178 C1177 1.362 . S
C1178 C1181 1.409 . S
C1179 H1171 0.930 . S
C1179 C1180 1.355 . S
C1179 C1181 1.415 . S
C1180 C1179 1.355 . S
C1180 C1182 1.419 . S
C1181 C1176 1.425 1_455 S
C1181 C1178 1.409 . S
C1181 C1179 1.415 . S
C1182 H1172 0.930 1_455 S
C1182 C1180 1.419 . S
C1182 C1183 1.362 1_455 S
C1183 H1173 0.930 . S
C1183 C1176 1.409 . S
C1183 C1182 1.362 1_655 S
H1184 C1190 0.930 . S
H1185 C1193 0.930 . S
H1186 C1194 0.930 . S
H1187 C1195 0.930 . S
H1188 C1198 0.930 . S
H1189 C1199 0.930 . S
C1190 H1184 0.930 . S
C1190 C1191 1.355 . S
C1190 C1192 1.415 . S
C1191 C1190 1.355 . S
C1191 C1193 1.419 . S
C1192 C1190 1.415 . S
C1192 C1197 1.425 . S
C1192 C1199 1.409 . S
C1193 H1185 0.930 . S
C1193 C1191 1.419 . S
C1193 C1194 1.362 . S
C1194 H1186 0.930 . S
C1194 C1193 1.362 . S
C1194 C1197 1.409 . S
C1195 H1187 0.930 . S
C1195 C1196 1.355 . S
C1195 C1197 1.415 . S
C1196 C1195 1.355 . S
C1196 C1198 1.419 . S
C1197 C1192 1.425 . S
C1197 C1194 1.409 . S
C1197 C1195 1.415 . S
C1198 H1188 0.930 . S
C1198 C1196 1.419 . S
C1198 C1199 1.362 . S
C1199 H1189 0.930 . S
C1199 C1192 1.409 . S
C1199 C1198 1.362 . S
H1200 C1206 0.930 . S
H1201 C1209 0.930 . S
H1202 C1210 0.930 . S
H1203 C1211 0.930 . S
H1204 C1214 0.930 . S
H1205 C1215 0.930 . S
C1206 H1200 0.930 . S
C1206 C1207 1.355 . S
C1206 C1208 1.415 . S
C1207 C1206 1.355 . S
C1207 C1209 1.419 . S
C1208 C1206 1.415 . S
C1208 C1213 1.425 . S
C1208 C1215 1.409 . S
C1209 H1201 0.930 . S
C1209 C1207 1.419 . S
C1209 C1210 1.362 . S
C1210 H1202 0.930 . S
C1210 C1209 1.362 . S
C1210 C1213 1.409 . S
C1211 H1203 0.930 . S
C1211 C1212 1.355 . S
C1211 C1213 1.415 . S
C1212 C1211 1.355 . S
C1212 C1214 1.419 . S
C1213 C1208 1.425 . S
C1213 C1210 1.409 . S
C1213 C1211 1.415 . S
C1214 H1204 0.930 . S
C1214 C1212 1.419 . S
C1214 C1215 1.362 . S
C1215 H1205 0.930 . S
C1215 C1208 1.409 . S
C1215 C1214 1.362 . S
H1216 C1222 0.930 . S
H1217 C1225 0.930 . S
H1218 C1226 0.930 . S
H1219 C1227 0.930 . S
H1220 C1230 0.930 . S
H1221 C1231 0.930 . S
C1222 H1216 0.930 . S
C1222 C1223 1.355 . S
C1222 C1224 1.415 . S
C1223 C1222 1.355 . S
C1223 C1225 1.419 . S
C1224 C1222 1.415 . S
C1224 C1229 1.425 . S
C1224 C1231 1.409 . S
C1225 H1217 0.930 . S
C1225 C1223 1.419 . S
C1225 C1226 1.362 . S
C1226 H1218 0.930 . S
C1226 C1225 1.362 . S
C1226 C1229 1.409 . S
C1227 H1219 0.930 . S
C1227 C1228 1.355 . S
C1227 C1229 1.415 . S
C1228 C1227 1.355 . S
C1228 C1230 1.419 . S
C1229 C1224 1.425 . S
C1229 C1226 1.409 . S
C1229 C1227 1.415 . S
C1230 H1220 0.930 . S
C1230 C1228 1.419 . S
C1230 C1231 1.362 . S
C1231 H1221 0.930 . S
C1231 C1224 1.409 . S
C1231 C1230 1.362 . S
H1232 C1238 0.930 . S
H1233 C1241 0.930 . S
H1234 C1242 0.930 . S
H1235 C1243 0.930 . S
H1236 C1246 0.930 . S
H1237 C1247 0.930 . S
C1238 H1232 0.930 . S
C1238 C1239 1.355 . S
C1238 C1240 1.415 . S
C1239 C1238 1.355 . S
C1239 C1241 1.419 1_565 S
C1240 C1238 1.415 . S
C1240 C1245 1.425 1_565 S
C1240 C1247 1.409 . S
C1241 H1233 0.930 . S
C1241 C1239 1.419 1_545 S
C1241 C1242 1.362 . S
C1242 H1234 0.930 . S
C1242 C1241 1.362 . S
C1242 C1245 1.409 . S
C1243 H1235 0.930 . S
C1243 C1244 1.355 . S
C1243 C1245 1.415 . S
C1244 C1243 1.355 . S
C1244 C1246 1.419 1_545 S
C1245 C1240 1.425 1_545 S
C1245 C1242 1.409 . S
C1245 C1243 1.415 . S
C1246 H1236 0.930 . S
C1246 C1244 1.419 1_565 S
C1246 C1247 1.362 . S
C1247 H1237 0.930 . S
C1247 C1240 1.409 . S
C1247 C1246 1.362 . S
H1248 C1254 0.930 . S
H1249 C1257 0.930 . S
H1250 C1258 0.930 . S
H1251 C1259 0.930 . S
H1252 C1262 0.930 . S
H1253 C1263 0.930 . S
C1254 H1248 0.930 . S
C1254 C1255 1.355 . S
C1254 C1256 1.415 . S
C1255 C1254 1.355 . S
C1255 C1257 1.419 1_554 S
C1256 C1254 1.415 . S
C1256 C1261 1.425 . S
C1256 C1263 1.409 . S
C1257 H1249 0.930 . S
C1257 C1255 1.419 1_556 S
C1257 C1258 1.362 . S
C1258 H1250 0.930 . S
C1258 C1257 1.362 . S
C1258 C1261 1.409 1_556 S
C1259 H1251 0.930 . S
C1259 C1260 1.355 1_556 S
C1259 C1261 1.414 1_556 S
C1260 C1259 1.355 1_554 S
C1260 C1262 1.419 . S
C1261 C1256 1.425 . S
C1261 C1258 1.409 1_554 S
C1261 C1259 1.414 1_554 S
C1262 H1252 0.930 . S
C1262 C1260 1.419 . S
C1262 C1263 1.362 . S
C1263 H1253 0.930 . S
C1263 C1256 1.409 . S
C1263 C1262 1.362 . S
H1264 C1270 0.930 . S
H1265 C1273 0.930 . S
H1266 C1274 0.930 . S
H1267 C1275 0.930 . S
H1268 C1278 0.930 . S
H1269 C1279 0.930 . S
C1270 H1264 0.930 . S
C1270 C1271 1.355 . S
C1270 C1272 1.415 . S
C1271 C1270 1.355 . S
C1271 C1273 1.419 . S
C1272 C1270 1.415 . S
C1272 C1277 1.425 . S
C1272 C1279 1.409 . S
C1273 H1265 0.930 . S
C1273 C1271 1.419 . S
C1273 C1274 1.362 . S
C1274 H1266 0.930 . S
C1274 C1273 1.362 . S
C1274 C1277 1.409 . S
C1275 H1267 0.930 . S
C1275 C1276 1.355 . S
C1275 C1277 1.415 . S
C1276 C1275 1.355 . S
C1276 C1278 1.419 . S
C1277 C1272 1.425 . S
C1277 C1274 1.409 . S
C1277 C1275 1.415 . S
C1278 H1268 0.930 . S
C1278 C1276 1.419 . S
C1278 C1279 1.362 . S
C1279 H1269 0.930 . S
C1279 C1272 1.409 . S
C1279 C1278 1.362 . S
H1280 C1286 0.930 . S
H1281 C1289 0.930 . S
H1282 C1290 0.930 . S
H1283 C1291 0.930 . S
H1284 C1294 0.930 . S
H1285 C1295 0.930 . S
C1286 H1280 0.930 . S
C1286 C1287 1.355 . S
C1286 C1288 1.415 . S
C1287 C1286 1.355 . S
C1287 C1289 1.419 . S
C1288 C1286 1.415 . S
C1288 C1293 1.425 . S
C1288 C1295 1.409 . S
C1289 H1281 0.930 . S
C1289 C1287 1.419 . S
C1289 C1290 1.362 . S
C1290 H1282 0.930 . S
C1290 C1289 1.362 . S
C1290 C1293 1.409 . S
C1291 H1283 0.930 . S
C1291 C1292 1.355 . S
C1291 C1293 1.415 . S
C1292 C1291 1.355 . S
C1292 C1294 1.419 . S
C1293 C1288 1.425 . S
C1293 C1290 1.409 . S
C1293 C1291 1.415 . S
C1294 H1284 0.930 . S
C1294 C1292 1.419 . S
C1294 C1295 1.362 . S
C1295 H1285 0.930 . S
C1295 C1288 1.409 . S
C1295 C1294 1.362 . S
H1296 C1302 0.930 . S
H1297 C1305 0.930 . S
H1298 C1306 0.930 . S
H1299 C1307 0.930 . S
H1300 C1310 0.930 . S
H1301 C1311 0.930 . S
C1302 H1296 0.930 . S
C1302 C1303 1.355 . S
C1302 C1304 1.415 . S
C1303 C1302 1.355 . S
C1303 C1305 1.419 . S
C1304 C1302 1.415 . S
C1304 C1309 1.425 . S
C1304 C1311 1.409 . S
C1305 H1297 0.930 . S
C1305 C1303 1.419 . S
C1305 C1306 1.362 . S
C1306 H1298 0.930 . S
C1306 C1305 1.362 . S
C1306 C1309 1.409 . S
C1307 H1299 0.930 . S
C1307 C1308 1.355 . S
C1307 C1309 1.415 . S
C1308 C1307 1.355 . S
C1308 C1310 1.419 . S
C1309 C1304 1.425 . S
C1309 C1306 1.409 . S
C1309 C1307 1.415 . S
C1310 H1300 0.930 . S
C1310 C1308 1.419 . S
C1310 C1311 1.362 . S
C1311 H1301 0.930 . S
C1311 C1304 1.409 . S
C1311 C1310 1.362 . S
H1312 C1318 0.930 . S
H1313 C1321 0.930 . S
H1314 C1322 0.930 . S
H1315 C1323 0.930 . S
H1316 C1326 0.930 . S
H1317 C1327 0.930 . S
C1318 H1312 0.930 . S
C1318 C1319 1.355 . S
C1318 C1320 1.415 . S
C1319 C1318 1.355 . S
C1319 C1321 1.419 . S
C1320 C1318 1.415 . S
C1320 C1325 1.425 . S
C1320 C1327 1.409 . S
C1321 H1313 0.930 . S
C1321 C1319 1.419 . S
C1321 C1322 1.362 . S
C1322 H1314 0.930 . S
C1322 C1321 1.362 . S
C1322 C1325 1.409 . S
C1323 H1315 0.930 . S
C1323 C1324 1.355 . S
C1323 C1325 1.415 . S
C1324 C1323 1.355 . S
C1324 C1326 1.419 . S
C1325 C1320 1.425 . S
C1325 C1322 1.409 . S
C1325 C1323 1.415 . S
C1326 H1316 0.930 . S
C1326 C1324 1.419 . S
C1326 C1327 1.362 . S
C1327 H1317 0.930 . S
C1327 C1320 1.409 . S
C1327 C1326 1.362 . S
H1328 C1334 0.930 . S
H1329 C1337 0.930 . S
H1330 C1338 0.930 . S
H1331 C1339 0.930 . S
H1332 C1342 0.930 . S
H1333 C1343 0.930 . S
C1334 H1328 0.930 . S
C1334 C1335 1.355 . S
C1334 C1336 1.415 . S
C1335 C1334 1.355 . S
C1335 C1337 1.419 . S
C1336 C1334 1.415 . S
C1336 C1341 1.425 . S
C1336 C1343 1.409 . S
C1337 H1329 0.930 . S
C1337 C1335 1.419 . S
C1337 C1338 1.362 . S
C1338 H1330 0.930 . S
C1338 C1337 1.362 . S
C1338 C1341 1.409 . S
C1339 H1331 0.930 . S
C1339 C1340 1.355 . S
C1339 C1341 1.415 . S
C1340 C1339 1.355 . S
C1340 C1342 1.419 . S
C1341 C1336 1.425 . S
C1341 C1338 1.409 . S
C1341 C1339 1.415 . S
C1342 H1332 0.930 . S
C1342 C1340 1.419 . S
C1342 C1343 1.362 . S
C1343 H1333 0.930 . S
C1343 C1336 1.409 . S
C1343 C1342 1.362 . S
H1344 C1350 0.930 . S
H1345 C1353 0.930 . S
H1346 C1354 0.930 . S
H1347 C1355 0.930 . S
H1348 C1358 0.930 . S
H1349 C1359 0.930 . S
C1350 H1344 0.930 . S
C1350 C1351 1.355 . S
C1350 C1352 1.415 . S
C1351 C1350 1.355 . S
C1351 C1353 1.419 . S
C1352 C1350 1.415 . S
C1352 C1357 1.425 . S
C1352 C1359 1.409 . S
C1353 H1345 0.930 . S
C1353 C1351 1.419 . S
C1353 C1354 1.362 . S
C1354 H1346 0.930 . S
C1354 C1353 1.362 . S
C1354 C1357 1.409 . S
C1355 H1347 0.930 . S
C1355 C1356 1.355 . S
C1355 C1357 1.415 . S
C1356 C1355 1.355 . S
C1356 C1358 1.419 . S
C1357 C1352 1.425 . S
C1357 C1354 1.409 . S
C1357 C1355 1.415 . S
C1358 H1348 0.930 . S
C1358 C1356 1.419 . S
C1358 C1359 1.362 . S
C1359 H1349 0.930 . S
C1359 C1352 1.409 . S
C1359 C1358 1.362 . S
H1360 C1366 0.930 . S
H1361 C1369 0.930 . S
H1362 C1370 0.930 . S
H1363 C1371 0.930 . S
H1364 C1374 0.930 . S
H1365 C1375 0.930 . S
C1366 H1360 0.930 . S
C1366 C1367 1.355 . S
C1366 C1368 1.415 . S
C1367 C1366 1.355 . S
C1367 C1369 1.419 . S
C1368 C1366 1.415 . S
C1368 C1373 1.425 . S
C1368 C1375 1.409 . S
C1369 H1361 0.930 . S
C1369 C1367 1.419 . S
C1369 C1370 1.362 . S
C1370 H1362 0.930 . S
C1370 C1369 1.362 . S
C1370 C1373 1.409 . S
C1371 H1363 0.930 . S
C1371 C1372 1.355 . S
C1371 C1373 1.415 . S
C1372 C1371 1.355 . S
C1372 C1374 1.419 . S
C1373 C1368 1.425 . S
C1373 C1370 1.409 . S
C1373 C1371 1.415 . S
C1374 H1364 0.930 . S
C1374 C1372 1.419 . S
C1374 C1375 1.362 . S
C1375 H1365 0.930 . S
C1375 C1368 1.409 . S
C1375 C1374 1.362 . S
H1376 C1382 0.930 . S
H1377 C1385 0.930 . S
H1378 C1386 0.930 . S
H1379 C1387 0.930 . S
H1380 C1390 0.930 . S
H1381 C1391 0.930 . S
C1382 H1376 0.930 . S
C1382 C1383 1.355 . S
C1382 C1384 1.415 . S
C1383 C1382 1.355 . S
C1383 C1385 1.419 . S
C1384 C1382 1.415 . S
C1384 C1389 1.425 . S
C1384 C1391 1.409 . S
C1385 H1377 0.930 . S
C1385 C1383 1.419 . S
C1385 C1386 1.362 . S
C1386 H1378 0.930 . S
C1386 C1385 1.362 . S
C1386 C1389 1.409 . S
C1387 H1379 0.930 . S
C1387 C1388 1.355 . S
C1387 C1389 1.415 . S
C1388 C1387 1.355 . S
C1388 C1390 1.419 . S
C1389 C1384 1.425 . S
C1389 C1386 1.409 . S
C1389 C1387 1.415 . S
C1390 H1380 0.930 . S
C1390 C1388 1.419 . S
C1390 C1391 1.362 . S
C1391 H1381 0.930 . S
C1391 C1384 1.409 . S
C1391 C1390 1.362 . S
H1392 C1398 0.930 . S
H1393 C1401 0.930 . S
H1394 C1402 0.930 . S
H1395 C1403 0.930 . S
H1396 C1406 0.930 . S
H1397 C1407 0.930 . S
C1398 H1392 0.930 . S
C1398 C1399 1.355 . S
C1398 C1400 1.415 . S
C1399 C1398 1.355 . S
C1399 C1401 1.419 . S
C1400 C1398 1.415 . S
C1400 C1405 1.425 . S
C1400 C1407 1.409 . S
C1401 H1393 0.930 . S
C1401 C1399 1.419 . S
C1401 C1402 1.362 . S
C1402 H1394 0.930 . S
C1402 C1401 1.362 . S
C1402 C1405 1.409 . S
C1403 H1395 0.930 . S
C1403 C1404 1.355 . S
C1403 C1405 1.415 . S
C1404 C1403 1.355 . S
C1404 C1406 1.419 . S
C1405 C1400 1.425 . S
C1405 C1402 1.409 . S
C1405 C1403 1.415 . S
C1406 H1396 0.930 . S
C1406 C1404 1.419 . S
C1406 C1407 1.362 . S
C1407 H1397 0.930 . S
C1407 C1400 1.409 . S
C1407 C1406 1.362 . S
H1408 C1414 0.930 . S
H1409 C1417 0.930 . S
H1410 C1418 0.930 . S
H1411 C1419 0.930 . S
H1412 C1422 0.930 . S
H1413 C1423 0.930 . S
C1414 H1408 0.930 . S
C1414 C1415 1.355 . S
C1414 C1416 1.415 . S
C1415 C1414 1.355 . S
C1415 C1417 1.419 . S
C1416 C1414 1.415 . S
C1416 C1421 1.425 . S
C1416 C1423 1.409 . S
C1417 H1409 0.930 . S
C1417 C1415 1.419 . S
C1417 C1418 1.362 . S
C1418 H1410 0.930 . S
C1418 C1417 1.362 . S
C1418 C1421 1.409 . S
C1419 H1411 0.930 . S
C1419 C1420 1.355 . S
C1419 C1421 1.415 . S
C1420 C1419 1.355 . S
C1420 C1422 1.419 . S
C1421 C1416 1.425 . S
C1421 C1418 1.409 . S
C1421 C1419 1.415 . S
C1422 H1412 0.930 . S
C1422 C1420 1.419 . S
C1422 C1423 1.362 . S
C1423 H1413 0.930 . S
C1423 C1416 1.409 . S
C1423 C1422 1.362 . S
H1424 C1430 0.930 . S
H1425 C1433 0.930 . S
H1426 C1434 0.930 . S
H1427 C1435 0.930 . S
H1428 C1438 0.930 . S
H1429 C1439 0.930 . S
C1430 H1424 0.930 . S
C1430 C1431 1.355 . S
C1430 C1432 1.415 . S
C1431 C1430 1.355 . S
C1431 C1433 1.419 . S
C1432 C1430 1.415 . S
C1432 C1437 1.425 . S
C1432 C1439 1.409 . S
C1433 H1425 0.930 . S
C1433 C1431 1.419 . S
C1433 C1434 1.362 . S
C1434 H1426 0.930 . S
C1434 C1433 1.362 . S
C1434 C1437 1.409 . S
C1435 H1427 0.930 . S
C1435 C1436 1.355 . S
C1435 C1437 1.415 . S
C1436 C1435 1.355 . S
C1436 C1438 1.419 . S
C1437 C1432 1.425 . S
C1437 C1434 1.409 . S
C1437 C1435 1.415 . S
C1438 H1428 0.930 . S
C1438 C1436 1.419 . S
C1438 C1439 1.362 . S
C1439 H1429 0.930 . S
C1439 C1432 1.409 . S
C1439 C1438 1.362 . S
H1440 C1446 0.930 . S
H1441 C1449 0.930 . S
H1442 C1450 0.930 . S
H1443 C1451 0.930 . S
H1444 C1454 0.930 . S
H1445 C1455 0.930 . S
C1446 H1440 0.930 . S
C1446 C1447 1.355 . S
C1446 C1448 1.415 . S
C1447 C1446 1.355 . S
C1447 C1449 1.419 . S
C1448 C1446 1.415 . S
C1448 C1453 1.425 . S
C1448 C1455 1.409 . S
C1449 H1441 0.930 . S
C1449 C1447 1.419 . S
C1449 C1450 1.362 . S
C1450 H1442 0.930 . S
C1450 C1449 1.362 . S
C1450 C1453 1.409 . S
C1451 H1443 0.930 . S
C1451 C1452 1.355 . S
C1451 C1453 1.415 . S
C1452 C1451 1.355 . S
C1452 C1454 1.419 . S
C1453 C1448 1.425 . S
C1453 C1450 1.409 . S
C1453 C1451 1.415 . S
C1454 H1444 0.930 . S
C1454 C1452 1.419 . S
C1454 C1455 1.362 . S
C1455 H1445 0.930 . S
C1455 C1448 1.409 . S
C1455 C1454 1.362 . S
H1456 C1462 0.930 . S
H1457 C1465 0.930 . S
H1458 C1466 0.930 . S
H1459 C1467 0.930 . S
H1460 C1470 0.930 1_554 S
H1461 C1471 0.930 . S
C1462 H1456 0.930 . S
C1462 C1463 1.355 . S
C1462 C1464 1.415 . S
C1463 C1462 1.355 . S
C1463 C1465 1.419 . S
C1464 C1462 1.415 . S
C1464 C1469 1.425 . S
C1464 C1471 1.409 . S
C1465 H1457 0.930 . S
C1465 C1463 1.419 . S
C1465 C1466 1.362 . S
C1466 H1458 0.930 . S
C1466 C1465 1.362 . S
C1466 C1469 1.409 . S
C1467 H1459 0.930 . S
C1467 C1468 1.355 . S
C1467 C1469 1.415 . S
C1468 C1467 1.355 . S
C1468 C1470 1.419 . S
C1469 C1464 1.425 . S
C1469 C1466 1.409 . S
C1469 C1467 1.415 . S
C1470 H1460 0.930 1_556 S
C1470 C1468 1.419 . S
C1470 C1471 1.362 . S
C1471 H1461 0.930 . S
C1471 C1464 1.409 . S
C1471 C1470 1.362 . S
H1472 C1478 0.930 . S
H1473 C1481 0.930 . S
H1474 C1482 0.930 . S
H1475 C1483 0.930 . S
H1476 C1486 0.930 . S
H1477 C1487 0.930 . S
C1478 H1472 0.930 . S
C1478 C1479 1.355 . S
C1478 C1480 1.415 . S
C1479 C1478 1.355 . S
C1479 C1481 1.419 . S
C1480 C1478 1.415 . S
C1480 C1485 1.425 . S
C1480 C1487 1.409 . S
C1481 H1473 0.930 . S
C1481 C1479 1.419 . S
C1481 C1482 1.362 . S
C1482 H1474 0.930 . S
C1482 C1481 1.362 . S
C1482 C1485 1.409 . S
C1483 H1475 0.930 . S
C1483 C1484 1.355 . S
C1483 C1485 1.415 . S
C1484 C1483 1.355 . S
C1484 C1486 1.419 . S
C1485 C1480 1.425 . S
C1485 C1482 1.409 . S
C1485 C1483 1.415 . S
C1486 H1476 0.930 . S
C1486 C1484 1.419 . S
C1486 C1487 1.362 . S
C1487 H1477 0.930 . S
C1487 C1480 1.409 . S
C1487 C1486 1.362 . S
H1488 C1494 0.915 1_565 S
H1489 C1497 0.930 . S
H1490 C1498 0.930 . S
H1491 C1499 0.930 . S
H1492 C1502 0.930 . S
H1493 C1503 0.930 . S
C1494 H1488 0.915 1_545 S
C1494 C1495 1.368 . S
C1494 C1496 1.417 . S
C1495 C1494 1.368 . S
C1495 C1497 1.419 . S
C1496 C1494 1.417 . S
C1496 C1501 1.425 . S
C1496 C1503 1.409 1_545 S
C1497 H1489 0.930 . S
C1497 C1495 1.419 . S
C1497 C1498 1.362 . S
C1498 H1490 0.930 . S
C1498 C1497 1.362 . S
C1498 C1501 1.409 . S
C1499 H1491 0.930 . S
C1499 C1500 1.355 . S
C1499 C1501 1.415 . S
C1500 C1499 1.355 . S
C1500 C1502 1.419 1_545 S
C1501 C1496 1.425 . S
C1501 C1498 1.409 . S
C1501 C1499 1.415 . S
C1502 H1492 0.930 . S
C1502 C1500 1.419 1_565 S
C1502 C1503 1.362 . S
C1503 H1493 0.930 . S
C1503 C1496 1.409 1_565 S
C1503 C1502 1.362 . S
H1504 C1510 0.930 . S
H1505 C1513 0.930 . S
H1506 C1514 0.930 . S
H1507 C1515 0.930 . S
H1508 C1518 0.930 . S
H1509 C1519 0.930 . S
C1510 H1504 0.930 . S
C1510 C1511 1.355 . S
C1510 C1512 1.415 . S
C1511 C1510 1.355 . S
C1511 C1513 1.419 . S
C1512 C1510 1.415 . S
C1512 C1517 1.425 . S
C1512 C1519 1.409 . S
C1513 H1505 0.930 . S
C1513 C1511 1.419 . S
C1513 C1514 1.362 . S
C1514 H1506 0.930 . S
C1514 C1513 1.362 . S
C1514 C1517 1.409 . S
C1515 H1507 0.930 . S
C1515 C1516 1.355 . S
C1515 C1517 1.415 . S
C1516 C1515 1.355 . S
C1516 C1518 1.419 . S
C1517 C1512 1.425 . S
C1517 C1514 1.409 . S
C1517 C1515 1.415 . S
C1518 H1508 0.930 . S
C1518 C1516 1.419 . S
C1518 C1519 1.362 . S
C1519 H1509 0.930 . S
C1519 C1512 1.409 . S
C1519 C1518 1.362 . S
H1520 C1526 0.930 . S
H1521 C1529 0.930 1_565 S
H1522 C1530 0.930 . S
H1523 C1531 0.930 . S
H1524 C1534 0.930 . S
H1525 C1535 0.930 . S
C1526 H1520 0.930 . S
C1526 C1527 1.355 . S
C1526 C1528 1.415 . S
C1527 C1526 1.355 . S
C1527 C1529 1.419 . S
C1528 C1526 1.415 . S
C1528 C1533 1.425 . S
C1528 C1535 1.409 . S
C1529 H1521 0.930 1_545 S
C1529 C1527 1.419 . S
C1529 C1530 1.362 . S
C1530 H1522 0.930 . S
C1530 C1529 1.362 . S
C1530 C1533 1.409 . S
C1531 H1523 0.930 . S
C1531 C1532 1.355 . S
C1531 C1533 1.415 . S
C1532 C1531 1.355 . S
C1532 C1534 1.419 . S
C1533 C1528 1.425 . S
C1533 C1530 1.409 . S
C1533 C1531 1.415 . S
C1534 H1524 0.930 . S
C1534 C1532 1.419 . S
C1534 C1535 1.362 . S
C1535 H1525 0.930 . S
C1535 C1528 1.409 . S
C1535 C1534 1.362 . S
H1536 C1542 0.930 . S
H1537 C1545 0.930 . S
H1538 C1546 0.930 . S
H1539 C1547 0.930 . S
H1540 C1550 0.930 . S
H1541 C1551 0.930 . S
C1542 H1536 0.930 . S
C1542 C1543 1.355 . S
C1542 C1544 1.415 . S
C1543 C1542 1.355 . S
C1543 C1545 1.419 . S
C1544 C1542 1.415 . S
C1544 C1549 1.425 . S
C1544 C1551 1.409 . S
C1545 H1537 0.930 . S
C1545 C1543 1.419 . S
C1545 C1546 1.362 . S
C1546 H1538 0.930 . S
C1546 C1545 1.362 . S
C1546 C1549 1.409 . S
C1547 H1539 0.930 . S
C1547 C1548 1.355 . S
C1547 C1549 1.415 . S
C1548 C1547 1.355 . S
C1548 C1550 1.419 . S
C1549 C1544 1.425 . S
C1549 C1546 1.409 . S
C1549 C1547 1.415 . S
C1550 H1540 0.930 . S
C1550 C1548 1.419 . S
C1550 C1551 1.362 . S
C1551 H1541 0.930 . S
C1551 C1544 1.409 . S
C1551 C1550 1.362 . S
H1552 C1558 0.930 . S
H1553 C1561 0.930 . S
H1554 C1562 0.930 . S
H1555 C1563 0.930 . S
H1556 C1566 0.920 1_565 S
H1557 C1567 0.930 . S
C1558 H1552 0.930 . S
C1558 C1559 1.355 1_565 S
C1558 C1560 1.415 1_565 S
C1559 C1558 1.355 1_545 S
C1559 C1561 1.419 . S
C1560 C1558 1.415 1_545 S
C1560 C1565 1.425 . S
C1560 C1567 1.409 1_545 S
C1561 H1553 0.930 . S
C1561 C1559 1.419 . S
C1561 C1562 1.362 . S
C1562 H1554 0.930 . S
C1562 C1561 1.362 . S
C1562 C1565 1.409 . S
C1563 H1555 0.930 . S
C1563 C1564 1.355 . S
C1563 C1565 1.415 . S
C1564 C1563 1.355 . S
C1564 C1566 1.461 . S
C1565 C1560 1.425 . S
C1565 C1562 1.409 . S
C1565 C1563 1.415 . S
C1566 H1556 0.920 1_545 S
C1566 C1564 1.461 . S
C1566 C1567 1.331 1_545 S
C1567 H1557 0.930 . S
C1567 C1560 1.409 1_565 S
C1567 C1566 1.331 1_565 S
H1568 C1574 0.930 . S
H1569 C1577 0.930 . S
H1570 C1578 0.930 . S
H1571 C1579 0.930 . S
H1572 C1582 0.930 . S
H1573 C1583 0.930 . S
C1574 H1568 0.930 . S
C1574 C1575 1.355 . S
C1574 C1576 1.415 . S
C1575 C1574 1.355 . S
C1575 C1577 1.419 . S
C1576 C1574 1.415 . S
C1576 C1581 1.425 . S
C1576 C1583 1.409 . S
C1577 H1569 0.930 . S
C1577 C1575 1.419 . S
C1577 C1578 1.362 . S
C1578 H1570 0.930 . S
C1578 C1577 1.362 . S
C1578 C1581 1.409 . S
C1579 H1571 0.930 . S
C1579 C1580 1.355 . S
C1579 C1581 1.415 . S
C1580 C1579 1.355 . S
C1580 C1582 1.419 . S
C1581 C1576 1.425 . S
C1581 C1578 1.409 . S
C1581 C1579 1.415 . S
C1582 H1572 0.930 . S
C1582 C1580 1.419 . S
C1582 C1583 1.362 . S
C1583 H1573 0.930 . S
C1583 C1576 1.409 . S
C1583 C1582 1.362 . S
H1584 C1590 0.930 . S
H1585 C1593 0.930 . S
H1586 C1594 0.930 . S
H1587 C1595 0.930 1_545 S
H1588 C1598 0.930 . S
H1589 C1599 0.930 . S
C1590 H1584 0.930 . S
C1590 C1591 1.355 . S
C1590 C1592 1.415 . S
C1591 C1590 1.355 . S
C1591 C1593 1.419 1_565 S
C1592 C1590 1.415 . S
C1592 C1597 1.425 . S
C1592 C1599 1.409 . S
C1593 H1585 0.930 . S
C1593 C1591 1.419 1_545 S
C1593 C1594 1.362 . S
C1594 H1586 0.930 . S
C1594 C1593 1.362 . S
C1594 C1597 1.409 1_545 S
C1595 H1587 0.930 1_565 S
C1595 C1596 1.355 . S
C1595 C1597 1.415 . S
C1596 C1595 1.355 . S
C1596 C1598 1.419 . S
C1597 C1592 1.425 . S
C1597 C1594 1.409 1_565 S
C1597 C1595 1.415 . S
C1598 H1588 0.930 . S
C1598 C1596 1.419 . S
C1598 C1599 1.362 . S
C1599 H1589 0.930 . S
C1599 C1592 1.409 . S
C1599 C1598 1.362 . S
H1600 C1606 0.930 . S
H1601 C1609 0.930 . S
H1602 C1610 0.930 . S
H1603 C1611 0.930 . S
H1604 C1614 0.930 . S
H1605 C1615 0.930 . S
C1606 H1600 0.930 . S
C1606 C1607 1.355 . S
C1606 C1608 1.415 . S
C1607 C1606 1.355 . S
C1607 C1609 1.419 . S
C1608 C1606 1.415 . S
C1608 C1613 1.425 . S
C1608 C1615 1.409 . S
C1609 H1601 0.930 . S
C1609 C1607 1.419 . S
C1609 C1610 1.362 . S
C1610 H1602 0.930 . S
C1610 C1609 1.362 . S
C1610 C1613 1.409 . S
C1611 H1603 0.930 . S
C1611 C1612 1.355 . S
C1611 C1613 1.415 . S
C1612 C1611 1.355 . S
C1612 C1614 1.419 . S
C1613 C1608 1.425 . S
C1613 C1610 1.409 . S
C1613 C1611 1.415 . S
C1614 H1604 0.930 . S
C1614 C1612 1.419 . S
C1614 C1615 1.362 . S
C1615 H1605 0.930 . S
C1615 C1608 1.409 . S
C1615 C1614 1.362 . S
H1616 C1622 0.930 . S
H1617 C1625 0.930 . S
H1618 C1626 0.930 . S
H1619 C1627 0.930 . S
H1620 C1630 0.930 . S
H1621 C1631 0.930 . S
C1622 H1616 0.930 . S
C1622 C1623 1.355 . S
C1622 C1624 1.415 . S
C1623 C1622 1.355 . S
C1623 C1625 1.419 1_554 S
C1624 C1622 1.415 . S
C1624 C1629 1.425 1_554 S
C1624 C1631 1.409 . S
C1625 H1617 0.930 . S
C1625 C1623 1.419 1_556 S
C1625 C1626 1.362 . S
C1626 H1618 0.930 . S
C1626 C1625 1.362 . S
C1626 C1629 1.409 . S
C1627 H1619 0.930 . S
C1627 C1628 1.355 . S
C1627 C1629 1.415 . S
C1628 C1627 1.355 . S
C1628 C1630 1.419 . S
C1629 C1624 1.425 1_556 S
C1629 C1626 1.409 . S
C1629 C1627 1.415 . S
C1630 H1620 0.930 . S
C1630 C1628 1.419 . S
C1630 C1631 1.362 1_556 S
C1631 H1621 0.930 . S
C1631 C1624 1.409 . S
C1631 C1630 1.362 1_554 S
H1632 C1638 0.930 . S
H1633 C1641 0.930 . S
H1634 C1642 0.930 . S
H1635 C1643 0.930 . S
H1636 C1646 0.930 . S
H1637 C1647 0.930 . S
C1638 H1632 0.930 . S
C1638 C1639 1.355 . S
C1638 C1640 1.415 . S
C1639 C1638 1.355 . S
C1639 C1641 1.419 . S
C1640 C1638 1.415 . S
C1640 C1645 1.425 . S
C1640 C1647 1.409 . S
C1641 H1633 0.930 . S
C1641 C1639 1.419 . S
C1641 C1642 1.362 . S
C1642 H1634 0.930 . S
C1642 C1641 1.362 . S
C1642 C1645 1.409 . S
C1643 H1635 0.930 . S
C1643 C1644 1.355 . S
C1643 C1645 1.415 . S
C1644 C1643 1.355 . S
C1644 C1646 1.419 . S
C1645 C1640 1.425 . S
C1645 C1642 1.409 . S
C1645 C1643 1.415 . S
C1646 H1636 0.930 . S
C1646 C1644 1.419 . S
C1646 C1647 1.362 . S
C1647 H1637 0.930 . S
C1647 C1640 1.409 . S
C1647 C1646 1.362 . S
H1648 C1654 0.930 . S
H1649 C1657 0.930 . S
H1650 C1658 0.930 . S
H1651 C1659 0.930 . S
H1652 C1662 0.930 . S
H1653 C1663 0.930 . S
C1654 H1648 0.930 . S
C1654 C1655 1.355 . S
C1654 C1656 1.415 . S
C1655 C1654 1.355 . S
C1655 C1657 1.419 . S
C1656 C1654 1.415 . S
C1656 C1661 1.425 . S
C1656 C1663 1.409 . S
C1657 H1649 0.930 . S
C1657 C1655 1.419 . S
C1657 C1658 1.362 . S
C1658 H1650 0.930 . S
C1658 C1657 1.362 . S
C1658 C1661 1.409 . S
C1659 H1651 0.930 . S
C1659 C1660 1.355 . S
C1659 C1661 1.415 . S
C1660 C1659 1.355 . S
C1660 C1662 1.419 . S
C1661 C1656 1.425 . S
C1661 C1658 1.409 . S
C1661 C1659 1.415 . S
C1662 H1652 0.930 . S
C1662 C1660 1.419 . S
C1662 C1663 1.362 . S
C1663 H1653 0.930 . S
C1663 C1656 1.409 . S
C1663 C1662 1.362 . S
H1664 C1670 0.930 . S
H1665 C1673 0.930 . S
H1666 C1674 0.930 . S
H1667 C1675 0.930 . S
H1668 C1678 0.930 . S
H1669 C1679 0.930 . S
C1670 H1664 0.930 . S
C1670 C1671 1.355 . S
C1670 C1672 1.415 . S
C1671 C1670 1.355 . S
C1671 C1673 1.419 . S
C1672 C1670 1.415 . S
C1672 C1677 1.425 . S
C1672 C1679 1.409 . S
C1673 H1665 0.930 . S
C1673 C1671 1.419 . S
C1673 C1674 1.362 . S
C1674 H1666 0.930 . S
C1674 C1673 1.362 . S
C1674 C1677 1.409 . S
C1675 H1667 0.930 . S
C1675 C1676 1.355 . S
C1675 C1677 1.415 . S
C1676 C1675 1.355 . S
C1676 C1678 1.419 . S
C1677 C1672 1.425 . S
C1677 C1674 1.409 . S
C1677 C1675 1.415 . S
C1678 H1668 0.930 . S
C1678 C1676 1.419 . S
C1678 C1679 1.362 . S
C1679 H1669 0.930 . S
C1679 C1672 1.409 . S
C1679 C1678 1.362 . S
H1680 C1686 0.930 . S
H1681 C1689 0.930 . S
H1682 C1690 0.930 . S
H1683 C1691 0.930 1_545 S
H1684 C1694 0.930 . S
H1685 C1695 0.930 . S
C1686 H1680 0.930 . S
C1686 C1687 1.355 . S
C1686 C1688 1.415 1_545 S
C1687 C1686 1.355 . S
C1687 C1689 1.419 . S
C1688 C1686 1.415 1_565 S
C1688 C1693 1.425 1_565 S
C1688 C1695 1.409 . S
C1689 H1681 0.930 . S
C1689 C1687 1.419 . S
C1689 C1690 1.362 . S
C1690 H1682 0.930 . S
C1690 C1689 1.362 . S
C1690 C1693 1.409 . S
C1691 H1683 0.930 1_565 S
C1691 C1692 1.355 . S
C1691 C1693 1.415 1_565 S
C1692 C1691 1.355 . S
C1692 C1694 1.419 . S
C1693 C1688 1.425 1_545 S
C1693 C1690 1.409 . S
C1693 C1691 1.415 1_545 S
C1694 H1684 0.930 . S
C1694 C1692 1.419 . S
C1694 C1695 1.362 . S
C1695 H1685 0.930 . S
C1695 C1688 1.409 . S
C1695 C1694 1.362 . S
H1696 C1702 0.930 . S
H1697 C1705 0.930 . S
H1698 C1706 0.930 . S
H1699 C1707 0.930 . S
H1700 C1710 0.930 . S
H1701 C1711 0.930 . S
C1702 H1696 0.930 . S
C1702 C1703 1.355 . S
C1702 C1704 1.415 . S
C1703 C1702 1.355 . S
C1703 C1705 1.419 . S
C1704 C1702 1.415 . S
C1704 C1709 1.425 . S
C1704 C1711 1.409 . S
C1705 H1697 0.930 . S
C1705 C1703 1.419 . S
C1705 C1706 1.362 . S
C1706 H1698 0.930 . S
C1706 C1705 1.362 . S
C1706 C1709 1.409 . S
C1707 H1699 0.930 . S
C1707 C1708 1.355 . S
C1707 C1709 1.415 . S
C1708 C1707 1.355 . S
C1708 C1710 1.419 . S
C1709 C1704 1.425 . S
C1709 C1706 1.409 . S
C1709 C1707 1.415 . S
C1710 H1700 0.930 . S
C1710 C1708 1.419 . S
C1710 C1711 1.362 . S
C1711 H1701 0.930 . S
C1711 C1704 1.409 . S
C1711 C1710 1.362 . S
H1712 C1718 0.930 . S
H1713 C1721 0.930 . S
H1714 C1722 0.930 . S
H1715 C1723 0.930 . S
H1716 C1726 0.930 . S
H1717 C1727 0.930 . S
C1718 H1712 0.930 . S
C1718 C1719 1.355 . S
C1718 C1720 1.415 . S
C1719 C1718 1.355 . S
C1719 C1721 1.419 . S
C1720 C1718 1.415 . S
C1720 C1725 1.425 . S
C1720 C1727 1.409 . S
C1721 H1713 0.930 . S
C1721 C1719 1.419 . S
C1721 C1722 1.362 . S
C1722 H1714 0.930 . S
C1722 C1721 1.362 . S
C1722 C1725 1.409 . S
C1723 H1715 0.930 . S
C1723 C1724 1.355 . S
C1723 C1725 1.415 . S
C1724 C1723 1.355 . S
C1724 C1726 1.419 . S
C1725 C1720 1.425 . S
C1725 C1722 1.409 . S
C1725 C1723 1.415 . S
C1726 H1716 0.930 . S
C1726 C1724 1.419 . S
C1726 C1727 1.362 . S
C1727 H1717 0.930 . S
C1727 C1720 1.409 . S
C1727 C1726 1.362 . S
H1728 C1734 0.930 . S
H1729 C1737 0.930 . S
H1730 C1738 0.930 . S
H1731 C1739 0.930 . S
H1732 C1742 0.930 . S
H1733 C1743 0.930 . S
C1734 H1728 0.930 . S
C1734 C1735 1.355 . S
C1734 C1736 1.415 . S
C1735 C1734 1.355 . S
C1735 C1737 1.419 . S
C1736 C1734 1.415 . S
C1736 C1741 1.425 . S
C1736 C1743 1.409 . S
C1737 H1729 0.930 . S
C1737 C1735 1.419 . S
C1737 C1738 1.362 . S
C1738 H1730 0.930 . S
C1738 C1737 1.362 . S
C1738 C1741 1.409 . S
C1739 H1731 0.930 . S
C1739 C1740 1.355 . S
C1739 C1741 1.415 . S
C1740 C1739 1.355 . S
C1740 C1742 1.419 . S
C1741 C1736 1.425 . S
C1741 C1738 1.409 . S
C1741 C1739 1.415 . S
C1742 H1732 0.930 . S
C1742 C1740 1.419 . S
C1742 C1743 1.362 . S
C1743 H1733 0.930 . S
C1743 C1736 1.409 . S
C1743 C1742 1.362 . S
H1744 C1750 0.930 . S
H1745 C1753 0.930 . S
H1746 C1754 0.930 . S
H1747 C1755 0.930 . S
H1748 C1758 0.930 . S
H1749 C1759 0.930 . S
C1750 H1744 0.930 . S
C1750 C1751 1.355 . S
C1750 C1752 1.415 . S
C1751 C1750 1.355 . S
C1751 C1753 1.419 . S
C1752 C1750 1.415 . S
C1752 C1757 1.425 . S
C1752 C1759 1.409 . S
C1753 H1745 0.930 . S
C1753 C1751 1.419 . S
C1753 C1754 1.362 . S
C1754 H1746 0.930 . S
C1754 C1753 1.362 . S
C1754 C1757 1.409 . S
C1755 H1747 0.930 . S
C1755 C1756 1.355 . S
C1755 C1757 1.415 . S
C1756 C1755 1.355 . S
C1756 C1758 1.419 . S
C1757 C1752 1.425 . S
C1757 C1754 1.409 . S
C1757 C1755 1.415 . S
C1758 H1748 0.930 . S
C1758 C1756 1.419 . S
C1758 C1759 1.362 . S
C1759 H1749 0.930 . S
C1759 C1752 1.409 . S
C1759 C1758 1.362 . S
H1760 C1766 0.930 . S
H1761 C1769 0.930 . S
H1762 C1770 0.930 . S
H1763 C1771 0.930 . S
H1764 C1774 0.930 . S
H1765 C1775 0.930 . S
C1766 H1760 0.930 . S
C1766 C1767 1.355 . S
C1766 C1768 1.415 . S
C1767 C1766 1.355 . S
C1767 C1769 1.419 . S
C1768 C1766 1.415 . S
C1768 C1773 1.425 . S
C1768 C1775 1.409 . S
C1769 H1761 0.930 . S
C1769 C1767 1.419 . S
C1769 C1770 1.362 . S
C1770 H1762 0.930 . S
C1770 C1769 1.362 . S
C1770 C1773 1.409 . S
C1771 H1763 0.930 . S
C1771 C1772 1.355 . S
C1771 C1773 1.415 . S
C1772 C1771 1.355 . S
C1772 C1774 1.419 . S
C1773 C1768 1.425 . S
C1773 C1770 1.409 . S
C1773 C1771 1.415 . S
C1774 H1764 0.930 . S
C1774 C1772 1.419 . S
C1774 C1775 1.362 . S
C1775 H1765 0.930 . S
C1775 C1768 1.409 . S
C1775 C1774 1.362 . S
H1776 C1782 0.930 . S
H1777 C1785 0.933 . S
H1778 C1786 0.927 1_554 S
H1779 C1787 0.930 1_554 S
H1780 C1790 0.930 . S
H1781 C1791 0.930 . S
C1782 H1776 0.930 . S
C1782 C1783 1.355 . S
C1782 C1784 1.415 . S
C1783 C1782 1.355 . S
C1783 C1785 1.419 . S
C1784 C1782 1.415 . S
C1784 C1789 1.425 . S
C1784 C1791 1.409 . S
C1785 H1777 0.933 . S
C1785 C1783 1.419 . S
C1785 C1786 1.362 . S
C1786 H1778 0.927 1_556 S
C1786 C1785 1.362 . S
C1786 C1789 1.409 . S
C1787 H1779 0.930 1_556 S
C1787 C1788 1.355 . S
C1787 C1789 1.415 . S
C1788 C1787 1.355 . S
C1788 C1790 1.419 . S
C1789 C1784 1.425 . S
C1789 C1786 1.409 . S
C1789 C1787 1.415 . S
C1790 H1780 0.930 . S
C1790 C1788 1.419 . S
C1790 C1791 1.362 . S
C1791 H1781 0.930 . S
C1791 C1784 1.409 . S
C1791 C1790 1.362 . S
H1792 C1798 0.930 . S
H1793 C1801 0.930 . S
H1794 C1802 0.930 . S
H1795 C1803 0.930 . S
H1796 C1806 0.930 . S
H1797 C1807 0.930 1_455 S
C1798 H1792 0.930 . S
C1798 C1799 1.355 . S
C1798 C1800 1.451 . S
C1799 C1798 1.355 . S
C1799 C1801 1.419 . S
C1800 C1798 1.451 . S
C1800 C1805 1.402 1_455 S
C1800 C1807 1.396 1_455 S
C1801 H1793 0.930 . S
C1801 C1799 1.419 . S
C1801 C1802 1.362 1_455 S
C1802 H1794 0.930 . S
C1802 C1801 1.362 1_655 S
C1802 C1805 1.409 . S
C1803 H1795 0.930 . S
C1803 C1804 1.355 . S
C1803 C1805 1.415 . S
C1804 C1803 1.355 . S
C1804 C1806 1.419 . S
C1805 C1800 1.402 1_655 S
C1805 C1802 1.409 . S
C1805 C1803 1.415 . S
C1806 H1796 0.930 . S
C1806 C1804 1.419 . S
C1806 C1807 1.362 . S
C1807 H1797 0.930 1_655 S
C1807 C1800 1.396 1_655 S
C1807 C1806 1.362 . S
H1808 C1814 0.930 . S
H1809 C1817 0.930 . S
H1810 C1818 0.930 . S
H1811 C1819 0.930 . S
H1812 C1822 0.930 . S
H1813 C1823 0.930 . S
C1814 H1808 0.930 . S
C1814 C1815 1.355 . S
C1814 C1816 1.415 . S
C1815 C1814 1.355 . S
C1815 C1817 1.419 . S
C1816 C1814 1.415 . S
C1816 C1821 1.425 . S
C1816 C1823 1.409 . S
C1817 H1809 0.930 . S
C1817 C1815 1.419 . S
C1817 C1818 1.362 . S
C1818 H1810 0.930 . S
C1818 C1817 1.362 . S
C1818 C1821 1.409 . S
C1819 H1811 0.930 . S
C1819 C1820 1.355 . S
C1819 C1821 1.415 . S
C1820 C1819 1.355 . S
C1820 C1822 1.419 . S
C1821 C1816 1.425 . S
C1821 C1818 1.409 . S
C1821 C1819 1.415 . S
C1822 H1812 0.930 . S
C1822 C1820 1.419 . S
C1822 C1823 1.362 . S
C1823 H1813 0.930 . S
C1823 C1816 1.409 . S
C1823 C1822 1.362 . S
H1824 C1830 0.930 . S
H1825 C1833 0.930 . S
H1826 C1834 0.930 . S
H1827 C1835 0.930 . S
H1828 C1838 0.930 . S
H1829 C1839 0.930 . S
C1830 H1824 0.930 . S
C1830 C1831 1.355 . S
C1830 C1832 1.415 . S
C1831 C1830 1.355 . S
C1831 C1833 1.419 . S
C1832 C1830 1.415 . S
C1832 C1837 1.425 . S
C1832 C1839 1.409 1_455 S
C1833 H1825 0.930 . S
C1833 C1831 1.419 . S
C1833 C1834 1.362 . S
C1834 H1826 0.930 . S
C1834 C1833 1.362 . S
C1834 C1837 1.409 . S
C1835 H1827 0.930 . S
C1835 C1836 1.355 . S
C1835 C1837 1.415 1_655 S
C1836 C1835 1.355 . S
C1836 C1838 1.419 . S
C1837 C1832 1.425 . S
C1837 C1834 1.409 . S
C1837 C1835 1.415 1_455 S
C1838 H1828 0.930 . S
C1838 C1836 1.419 . S
C1838 C1839 1.362 . S
C1839 H1829 0.930 . S
C1839 C1832 1.409 1_655 S
C1839 C1838 1.362 . S
H1840 C1846 0.930 . S
H1841 C1849 0.930 . S
H1842 C1850 0.930 . S
H1843 C1851 0.930 . S
H1844 C1854 0.930 . S
H1845 C1855 0.930 1_655 S
C1846 H1840 0.930 . S
C1846 C1847 1.355 . S
C1846 C1848 1.415 1_655 S
C1847 C1846 1.355 . S
C1847 C1849 1.419 1_655 S
C1848 C1846 1.415 1_455 S
C1848 C1853 1.425 . S
C1848 C1855 1.409 . S
C1849 H1841 0.930 . S
C1849 C1847 1.419 1_455 S
C1849 C1850 1.362 . S
C1850 H1842 0.930 . S
C1850 C1849 1.362 . S
C1850 C1853 1.409 . S
C1851 H1843 0.930 . S
C1851 C1852 1.355 . S
C1851 C1853 1.415 . S
C1852 C1851 1.355 . S
C1852 C1854 1.419 . S
C1853 C1848 1.425 . S
C1853 C1850 1.409 . S
C1853 C1851 1.415 . S
C1854 H1844 0.930 . S
C1854 C1852 1.419 . S
C1854 C1855 1.362 . S
C1855 H1845 0.930 1_455 S
C1855 C1848 1.409 . S
C1855 C1854 1.362 . S
H1856 C1862 0.930 . S
H1857 C1865 0.930 . S
H1858 C1866 0.930 . S
H1859 C1867 0.930 . S
H1860 C1870 0.930 . S
H1861 C1871 0.930 . S
C1862 H1856 0.930 . S
C1862 C1863 1.355 . S
C1862 C1864 1.415 . S
C1863 C1862 1.355 . S
C1863 C1865 1.419 . S
C1864 C1862 1.415 . S
C1864 C1869 1.425 . S
C1864 C1871 1.409 . S
C1865 H1857 0.930 . S
C1865 C1863 1.419 . S
C1865 C1866 1.362 . S
C1866 H1858 0.930 . S
C1866 C1865 1.362 . S
C1866 C1869 1.409 . S
C1867 H1859 0.930 . S
C1867 C1868 1.355 . S
C1867 C1869 1.415 . S
C1868 C1867 1.355 . S
C1868 C1870 1.419 . S
C1869 C1864 1.425 . S
C1869 C1866 1.409 . S
C1869 C1867 1.415 . S
C1870 H1860 0.930 . S
C1870 C1868 1.419 . S
C1870 C1871 1.362 . S
C1871 H1861 0.930 . S
C1871 C1864 1.409 . S
C1871 C1870 1.362 . S
H1872 C1878 0.930 . S
H1873 C1881 0.930 . S
H1874 C1882 0.930 . S
H1875 C1883 0.930 . S
H1876 C1886 0.930 . S
H1877 C1887 0.930 . S
C1878 H1872 0.930 . S
C1878 C1879 1.355 . S
C1878 C1880 1.415 . S
C1879 C1878 1.355 . S
C1879 C1881 1.419 . S
C1880 C1878 1.415 . S
C1880 C1885 1.425 . S
C1880 C1887 1.409 . S
C1881 H1873 0.930 . S
C1881 C1879 1.419 . S
C1881 C1882 1.362 . S
C1882 H1874 0.930 . S
C1882 C1881 1.362 . S
C1882 C1885 1.409 . S
C1883 H1875 0.930 . S
C1883 C1884 1.355 . S
C1883 C1885 1.415 . S
C1884 C1883 1.355 . S
C1884 C1886 1.419 . S
C1885 C1880 1.425 . S
C1885 C1882 1.409 . S
C1885 C1883 1.415 . S
C1886 H1876 0.930 . S
C1886 C1884 1.419 . S
C1886 C1887 1.362 . S
C1887 H1877 0.930 . S
C1887 C1880 1.409 . S
C1887 C1886 1.362 . S
H1888 C1894 0.930 . S
H1889 C1897 0.930 . S
H1890 C1898 0.930 . S
H1891 C1899 0.930 . S
H1892 C1902 0.930 . S
H1893 C1903 0.930 . S
C1894 H1888 0.930 . S
C1894 C1895 1.355 . S
C1894 C1896 1.415 . S
C1895 C1894 1.355 . S
C1895 C1897 1.419 . S
C1896 C1894 1.415 . S
C1896 C1901 1.425 . S
C1896 C1903 1.409 . S
C1897 H1889 0.930 . S
C1897 C1895 1.419 . S
C1897 C1898 1.362 . S
C1898 H1890 0.930 . S
C1898 C1897 1.362 . S
C1898 C1901 1.409 . S
C1899 H1891 0.930 . S
C1899 C1900 1.355 . S
C1899 C1901 1.415 . S
C1900 C1899 1.355 . S
C1900 C1902 1.419 . S
C1901 C1896 1.425 . S
C1901 C1898 1.409 . S
C1901 C1899 1.415 . S
C1902 H1892 0.930 . S
C1902 C1900 1.419 . S
C1902 C1903 1.362 . S
C1903 H1893 0.930 . S
C1903 C1896 1.409 . S
C1903 C1902 1.362 . S
H1904 C1910 0.930 . S
H1905 C1913 0.930 . S
H1906 C1914 0.930 . S
H1907 C1915 0.930 . S
H1908 C1918 0.930 . S
H1909 C1919 0.930 . S
C1910 H1904 0.930 . S
C1910 C1911 1.355 . S
C1910 C1912 1.415 . S
C1911 C1910 1.355 . S
C1911 C1913 1.419 . S
C1912 C1910 1.415 . S
C1912 C1917 1.425 . S
C1912 C1919 1.409 . S
C1913 H1905 0.930 . S
C1913 C1911 1.419 . S
C1913 C1914 1.362 . S
C1914 H1906 0.930 . S
C1914 C1913 1.362 . S
C1914 C1917 1.409 . S
C1915 H1907 0.930 . S
C1915 C1916 1.355 . S
C1915 C1917 1.415 . S
C1916 C1915 1.355 . S
C1916 C1918 1.419 . S
C1917 C1912 1.425 . S
C1917 C1914 1.409 . S
C1917 C1915 1.415 . S
C1918 H1908 0.930 . S
C1918 C1916 1.419 . S
C1918 C1919 1.362 . S
C1919 H1909 0.930 . S
C1919 C1912 1.409 . S
C1919 C1918 1.362 . S
H1920 C1926 0.930 . S
H1921 C1929 0.930 . S
H1922 C1930 0.930 . S
H1923 C1931 0.930 . S
H1924 C1934 0.930 . S
H1925 C1935 0.930 . S
C1926 H1920 0.930 . S
C1926 C1927 1.355 . S
C1926 C1928 1.415 . S
C1927 C1926 1.355 . S
C1927 C1929 1.419 . S
C1928 C1926 1.415 . S
C1928 C1933 1.425 . S
C1928 C1935 1.409 . S
C1929 H1921 0.930 . S
C1929 C1927 1.419 . S
C1929 C1930 1.362 . S
C1930 H1922 0.930 . S
C1930 C1929 1.362 . S
C1930 C1933 1.409 . S
C1931 H1923 0.930 . S
C1931 C1932 1.355 . S
C1931 C1933 1.415 . S
C1932 C1931 1.355 . S
C1932 C1934 1.419 . S
C1933 C1928 1.425 . S
C1933 C1930 1.409 . S
C1933 C1931 1.415 . S
C1934 H1924 0.930 . S
C1934 C1932 1.419 . S
C1934 C1935 1.362 . S
C1935 H1925 0.930 . S
C1935 C1928 1.409 . S
C1935 C1934 1.362 . S
H1936 C1942 0.930 . S
H1937 C1945 0.930 . S
H1938 C1946 0.930 . S
H1939 C1947 0.930 . S
H1940 C1950 0.930 . S
H1941 C1951 0.930 . S
C1942 H1936 0.930 . S
C1942 C1943 1.355 . S
C1942 C1944 1.415 . S
C1943 C1942 1.355 . S
C1943 C1945 1.419 . S
C1944 C1942 1.415 . S
C1944 C1949 1.425 . S
C1944 C1951 1.409 . S
C1945 H1937 0.930 . S
C1945 C1943 1.419 . S
C1945 C1946 1.362 . S
C1946 H1938 0.930 . S
C1946 C1945 1.362 . S
C1946 C1949 1.409 . S
C1947 H1939 0.930 . S
C1947 C1948 1.355 . S
C1947 C1949 1.415 . S
C1948 C1947 1.355 . S
C1948 C1950 1.419 . S
C1949 C1944 1.425 . S
C1949 C1946 1.409 . S
C1949 C1947 1.415 . S
C1950 H1940 0.930 . S
C1950 C1948 1.419 . S
C1950 C1951 1.362 . S
C1951 H1941 0.930 . S
C1951 C1944 1.409 . S
C1951 C1950 1.362 . S
H1952 C1958 0.930 . S
H1953 C1961 0.930 . S
H1954 C1962 0.930 . S
H1955 C1963 0.930 . S
H1956 C1966 0.930 . S
H1957 C1967 0.930 . S
C1958 H1952 0.930 . S
C1958 C1959 1.355 . S
C1958 C1960 1.415 . S
C1959 C1958 1.355 . S
C1959 C1961 1.419 . S
C1960 C1958 1.415 . S
C1960 C1965 1.425 . S
C1960 C1967 1.409 . S
C1961 H1953 0.930 . S
C1961 C1959 1.419 . S
C1961 C1962 1.362 . S
C1962 H1954 0.930 . S
C1962 C1961 1.362 . S
C1962 C1965 1.409 . S
C1963 H1955 0.930 . S
C1963 C1964 1.355 . S
C1963 C1965 1.415 . S
C1964 C1963 1.355 . S
C1964 C1966 1.419 . S
C1965 C1960 1.425 . S
C1965 C1962 1.409 . S
C1965 C1963 1.415 . S
C1966 H1956 0.930 . S
C1966 C1964 1.419 . S
C1966 C1967 1.362 . S
C1967 H1957 0.930 . S
C1967 C1960 1.409 . S
C1967 C1966 1.362 . S
H1968 C1974 0.930 . S
H1969 C1977 0.930 . S
H1970 C1978 0.930 . S
H1971 C1979 0.930 . S
H1972 C1982 0.930 . S
H1973 C1983 0.930 . S
C1974 H1968 0.930 . S
C1974 C1975 1.355 . S
C1974 C1976 1.415 . S
C1975 C1974 1.355 . S
C1975 C1977 1.419 . S
C1976 C1974 1.415 . S
C1976 C1981 1.425 . S
C1976 C1983 1.409 . S
C1977 H1969 0.930 . S
C1977 C1975 1.419 . S
C1977 C1978 1.362 . S
C1978 H1970 0.930 . S
C1978 C1977 1.362 . S
C1978 C1981 1.409 . S
C1979 H1971 0.930 . S
C1979 C1980 1.355 . S
C1979 C1981 1.415 . S
C1980 C1979 1.355 . S
C1980 C1982 1.419 . S
C1981 C1976 1.425 . S
C1981 C1978 1.409 . S
C1981 C1979 1.415 . S
C1982 H1972 0.930 . S
C1982 C1980 1.419 . S
C1982 C1983 1.362 . S
C1983 H1973 0.930 . S
C1983 C1976 1.409 . S
C1983 C1982 1.362 . S
H1984 C1990 0.930 . S
H1985 C1993 0.930 . S
H1986 C1994 0.930 . S
H1987 C1995 0.930 . S
H1988 C1998 0.930 . S
H1989 C1999 0.930 . S
C1990 H1984 0.930 . S
C1990 C1991 1.355 . S
C1990 C1992 1.415 . S
C1991 C1990 1.355 . S
C1991 C1993 1.419 . S
C1992 C1990 1.415 . S
C1992 C1997 1.425 . S
C1992 C1999 1.409 . S
C1993 H1985 0.930 . S
C1993 C1991 1.419 . S
C1993 C1994 1.362 . S
C1994 H1986 0.930 . S
C1994 C1993 1.362 . S
C1994 C1997 1.409 . S
C1995 H1987 0.930 . S
C1995 C1996 1.355 . S
C1995 C1997 1.415 . S
C1996 C1995 1.355 . S
C1996 C1998 1.419 . S
C1997 C1992 1.425 . S
C1997 C1994 1.409 . S
C1997 C1995 1.415 . S
C1998 H1988 0.930 . S
C1998 C1996 1.419 . S
C1998 C1999 1.362 . S
C1999 H1989 0.930 . S
C1999 C1992 1.409 . S
C1999 C1998 1.362 . S
H2000 C2006 0.930 . S
H2001 C2009 0.930 . S
H2002 C2010 0.930 . S
H2003 C2011 0.930 . S
H2004 C2014 0.930 . S
H2005 C2015 0.930 . S
C2006 H2000 0.930 . S
C2006 C2007 1.355 . S
C2006 C2008 1.415 . S
C2007 C2006 1.355 . S
C2007 C2009 1.419 . S
C2008 C2006 1.415 . S
C2008 C2013 1.425 . S
C2008 C2015 1.409 . S
C2009 H2001 0.930 . S
C2009 C2007 1.419 . S
C2009 C2010 1.362 . S
C2010 H2002 0.930 . S
C2010 C2009 1.362 . S
C2010 C2013 1.409 . S
C2011 H2003 0.930 . S
C2011 C2012 1.355 . S
C2011 C2013 1.415 . S
C2012 C2011 1.355 . S
C2012 C2014 1.419 . S
C2013 C2008 1.425 . S
C2013 C2010 1.409 . S
C2013 C2011 1.415 . S
C2014 H2004 0.930 . S
C2014 C2012 1.419 . S
C2014 C2015 1.362 . S
C2015 H2005 0.930 . S
C2015 C2008 1.409 . S
C2015 C2014 1.362 . S
H2016 C2022 0.930 . S
H2017 C2025 0.930 . S
H2018 C2026 0.930 . S
H2019 C2027 0.930 . S
H2020 C2030 0.930 . S
H2021 C2031 0.930 . S
C2022 H2016 0.930 . S
C2022 C2023 1.355 . S
C2022 C2024 1.415 . S
C2023 C2022 1.355 . S
C2023 C2025 1.419 . S
C2024 C2022 1.415 . S
C2024 C2029 1.425 . S
C2024 C2031 1.409 . S
C2025 H2017 0.930 . S
C2025 C2023 1.419 . S
C2025 C2026 1.362 . S
C2026 H2018 0.930 . S
C2026 C2025 1.362 . S
C2026 C2029 1.409 . S
C2027 H2019 0.930 . S
C2027 C2028 1.355 . S
C2027 C2029 1.415 . S
C2028 C2027 1.355 . S
C2028 C2030 1.419 . S
C2029 C2024 1.425 . S
C2029 C2026 1.409 . S
C2029 C2027 1.415 . S
C2030 H2020 0.930 . S
C2030 C2028 1.419 . S
C2030 C2031 1.362 . S
C2031 H2021 0.930 . S
C2031 C2024 1.409 . S
C2031 C2030 1.362 . S
H2032 C2038 0.930 . S
H2033 C2041 0.930 . S
H2034 C2042 0.930 . S
H2035 C2043 0.930 . S
H2036 C2046 0.930 . S
H2037 C2047 0.930 . S
C2038 H2032 0.930 . S
C2038 C2039 1.355 . S
C2038 C2040 1.415 . S
C2039 C2038 1.355 . S
C2039 C2041 1.419 . S
C2040 C2038 1.415 . S
C2040 C2045 1.425 . S
C2040 C2047 1.409 . S
C2041 H2033 0.930 . S
C2041 C2039 1.419 . S
C2041 C2042 1.362 . S
C2042 H2034 0.930 . S
C2042 C2041 1.362 . S
C2042 C2045 1.409 . S
C2043 H2035 0.930 . S
C2043 C2044 1.355 . S
C2043 C2045 1.415 . S
C2044 C2043 1.355 . S
C2044 C2046 1.419 . S
C2045 C2040 1.425 . S
C2045 C2042 1.409 . S
C2045 C2043 1.415 . S
C2046 H2036 0.930 . S
C2046 C2044 1.419 . S
C2046 C2047 1.362 . S
C2047 H2037 0.930 . S
C2047 C2040 1.409 . S
C2047 C2046 1.362 . S
H2048 C2054 0.930 . S
H2049 C2057 0.930 . S
H2050 C2058 0.930 . S
H2051 C2059 0.930 . S
H2052 C2062 0.930 . S
H2053 C2063 0.930 . S
C2054 H2048 0.930 . S
C2054 C2055 1.355 1_556 S
C2054 C2056 1.415 1_556 S
C2055 C2054 1.355 1_554 S
C2055 C2057 1.419 . S
C2056 C2054 1.415 1_554 S
C2056 C2061 1.425 . S
C2056 C2063 1.409 1_564 S
C2057 H2049 0.930 . S
C2057 C2055 1.419 . S
C2057 C2058 1.362 . S
C2058 H2050 0.930 . S
C2058 C2057 1.362 . S
C2058 C2061 1.409 . S
C2059 H2051 0.930 . S
C2059 C2060 1.355 1_565 S
C2059 C2061 1.415 . S
C2060 C2059 1.355 1_545 S
C2060 C2062 1.419 1_554 S
C2061 C2056 1.425 . S
C2061 C2058 1.409 . S
C2061 C2059 1.415 . S
C2062 H2052 0.930 . S
C2062 C2060 1.419 1_556 S
C2062 C2063 1.362 . S
C2063 H2053 0.930 . S
C2063 C2056 1.409 1_546 S
C2063 C2062 1.362 . S
H2064 C2070 0.930 . S
H2065 C2073 0.930 . S
H2066 C2074 0.930 . S
H2067 C2075 0.930 . S
H2068 C2078 0.930 . S
H2069 C2079 0.930 . S
C2070 H2064 0.930 . S
C2070 C2071 1.355 . S
C2070 C2072 1.415 . S
C2071 C2070 1.355 . S
C2071 C2073 1.419 . S
C2072 C2070 1.415 . S
C2072 C2077 1.425 . S
C2072 C2079 1.409 . S
C2073 H2065 0.930 . S
C2073 C2071 1.419 . S
C2073 C2074 1.362 . S
C2074 H2066 0.930 . S
C2074 C2073 1.362 . S
C2074 C2077 1.409 . S
C2075 H2067 0.930 . S
C2075 C2076 1.355 . S
C2075 C2077 1.415 . S
C2076 C2075 1.355 . S
C2076 C2078 1.419 . S
C2077 C2072 1.425 . S
C2077 C2074 1.409 . S
C2077 C2075 1.415 . S
C2078 H2068 0.930 . S
C2078 C2076 1.419 . S
C2078 C2079 1.362 . S
C2079 H2069 0.930 . S
C2079 C2072 1.409 . S
C2079 C2078 1.362 . S
H2080 C2086 0.930 . S
H2081 C2089 0.930 . S
H2082 C2090 0.930 . S
H2083 C2091 0.930 . S
H2084 C2094 0.930 . S
H2085 C2095 0.930 . S
C2086 H2080 0.930 . S
C2086 C2087 1.355 . S
C2086 C2088 1.415 . S
C2087 C2086 1.355 . S
C2087 C2089 1.419 . S
C2088 C2086 1.415 . S
C2088 C2093 1.425 . S
C2088 C2095 1.409 . S
C2089 H2081 0.930 . S
C2089 C2087 1.419 . S
C2089 C2090 1.362 . S
C2090 H2082 0.930 . S
C2090 C2089 1.362 . S
C2090 C2093 1.409 . S
C2091 H2083 0.930 . S
C2091 C2092 1.355 . S
C2091 C2093 1.415 . S
C2092 C2091 1.355 . S
C2092 C2094 1.419 . S
C2093 C2088 1.425 . S
C2093 C2090 1.409 . S
C2093 C2091 1.415 . S
C2094 H2084 0.930 . S
C2094 C2092 1.419 . S
C2094 C2095 1.362 . S
C2095 H2085 0.930 . S
C2095 C2088 1.409 . S
C2095 C2094 1.362 . S
H2096 C2102 0.930 . S
H2097 C2105 0.930 . S
H2098 C2106 0.930 . S
H2099 C2107 0.930 . S
H2100 C2110 0.930 . S
H2101 C2111 0.930 . S
C2102 H2096 0.930 . S
C2102 C2103 1.355 . S
C2102 C2104 1.415 . S
C2103 C2102 1.355 . S
C2103 C2105 1.419 . S
C2104 C2102 1.415 . S
C2104 C2109 1.425 . S
C2104 C2111 1.409 . S
C2105 H2097 0.930 . S
C2105 C2103 1.419 . S
C2105 C2106 1.362 . S
C2106 H2098 0.930 . S
C2106 C2105 1.362 . S
C2106 C2109 1.409 . S
C2107 H2099 0.930 . S
C2107 C2108 1.355 . S
C2107 C2109 1.415 . S
C2108 C2107 1.355 . S
C2108 C2110 1.419 . S
C2109 C2104 1.425 . S
C2109 C2106 1.409 . S
C2109 C2107 1.415 . S
C2110 H2100 0.930 . S
C2110 C2108 1.419 . S
C2110 C2111 1.362 . S
C2111 H2101 0.930 . S
C2111 C2104 1.409 . S
C2111 C2110 1.362 . S
H2112 C2118 0.930 . S
H2113 C2121 0.930 . S
H2114 C2122 0.930 . S
H2115 C2123 0.930 . S
H2116 C2126 0.930 . S
H2117 C2127 0.930 . S
C2118 H2112 0.930 . S
C2118 C2119 1.355 . S
C2118 C2120 1.415 . S
C2119 C2118 1.355 . S
C2119 C2121 1.419 . S
C2120 C2118 1.415 . S
C2120 C2125 1.425 . S
C2120 C2127 1.409 . S
C2121 H2113 0.930 . S
C2121 C2119 1.419 . S
C2121 C2122 1.362 . S
C2122 H2114 0.930 . S
C2122 C2121 1.362 . S
C2122 C2125 1.409 . S
C2123 H2115 0.930 . S
C2123 C2124 1.355 . S
C2123 C2125 1.415 . S
C2124 C2123 1.355 . S
C2124 C2126 1.419 . S
C2125 C2120 1.425 . S
C2125 C2122 1.409 . S
C2125 C2123 1.415 . S
C2126 H2116 0.930 . S
C2126 C2124 1.419 . S
C2126 C2127 1.362 . S
C2127 H2117 0.930 . S
C2127 C2120 1.409 . S
C2127 C2126 1.362 . S
H2128 C2134 0.930 . S
H2129 C2137 0.930 . S
H2130 C2138 0.930 . S
H2131 C2139 0.930 . S
H2132 C2142 0.930 . S
H2133 C2143 0.930 . S
C2134 H2128 0.930 . S
C2134 C2135 1.355 . S
C2134 C2136 1.415 . S
C2135 C2134 1.355 . S
C2135 C2137 1.419 . S
C2136 C2134 1.415 . S
C2136 C2141 1.425 . S
C2136 C2143 1.409 . S
C2137 H2129 0.930 . S
C2137 C2135 1.419 . S
C2137 C2138 1.362 . S
C2138 H2130 0.930 . S
C2138 C2137 1.362 . S
C2138 C2141 1.409 . S
C2139 H2131 0.930 . S
C2139 C2140 1.355 . S
C2139 C2141 1.415 . S
C2140 C2139 1.355 . S
C2140 C2142 1.419 . S
C2141 C2136 1.425 . S
C2141 C2138 1.409 . S
C2141 C2139 1.415 . S
C2142 H2132 0.930 . S
C2142 C2140 1.419 . S
C2142 C2143 1.362 . S
C2143 H2133 0.930 . S
C2143 C2136 1.409 . S
C2143 C2142 1.362 . S
H2144 C2150 0.930 . S
H2145 C2153 0.930 . S
H2146 C2154 0.930 . S
H2147 C2155 0.930 . S
H2148 C2158 0.930 . S
H2149 C2159 0.930 . S
C2150 H2144 0.930 . S
C2150 C2151 1.355 . S
C2150 C2152 1.415 . S
C2151 C2150 1.355 . S
C2151 C2153 1.419 . S
C2152 C2150 1.415 . S
C2152 C2157 1.425 . S
C2152 C2159 1.409 . S
C2153 H2145 0.930 . S
C2153 C2151 1.419 . S
C2153 C2154 1.362 . S
C2154 H2146 0.930 . S
C2154 C2153 1.362 . S
C2154 C2157 1.409 . S
C2155 H2147 0.930 . S
C2155 C2156 1.355 . S
C2155 C2157 1.415 . S
C2156 C2155 1.355 . S
C2156 C2158 1.419 . S
C2157 C2152 1.425 . S
C2157 C2154 1.409 . S
C2157 C2155 1.415 . S
C2158 H2148 0.930 . S
C2158 C2156 1.419 . S
C2158 C2159 1.362 . S
C2159 H2149 0.930 . S
C2159 C2152 1.409 . S
C2159 C2158 1.362 . S
H2160 C2166 0.930 . S
H2161 C2169 0.930 . S
H2162 C2170 0.930 . S
H2163 C2171 0.930 . S
H2164 C2174 0.930 . S
H2165 C2175 0.930 . S
C2166 H2160 0.930 . S
C2166 C2167 1.355 . S
C2166 C2168 1.415 . S
C2167 C2166 1.355 . S
C2167 C2169 1.419 . S
C2168 C2166 1.415 . S
C2168 C2173 1.425 . S
C2168 C2175 1.409 . S
C2169 H2161 0.930 . S
C2169 C2167 1.419 . S
C2169 C2170 1.362 . S
C2170 H2162 0.930 . S
C2170 C2169 1.362 . S
C2170 C2173 1.409 . S
C2171 H2163 0.930 . S
C2171 C2172 1.355 . S
C2171 C2173 1.415 . S
C2172 C2171 1.355 . S
C2172 C2174 1.419 . S
C2173 C2168 1.425 . S
C2173 C2170 1.409 . S
C2173 C2171 1.415 . S
C2174 H2164 0.930 . S
C2174 C2172 1.419 . S
C2174 C2175 1.362 . S
C2175 H2165 0.930 . S
C2175 C2168 1.409 . S
C2175 C2174 1.362 . S
H2176 C2182 0.930 . S
H2177 C2185 0.930 . S
H2178 C2186 0.930 . S
H2179 C2187 0.930 . S
H2180 C2190 0.930 . S
H2181 C2191 0.930 . S
C2182 H2176 0.930 . S
C2182 C2183 1.355 . S
C2182 C2184 1.415 . S
C2183 C2182 1.355 . S
C2183 C2185 1.419 . S
C2184 C2182 1.415 . S
C2184 C2189 1.425 . S
C2184 C2191 1.409 . S
C2185 H2177 0.930 . S
C2185 C2183 1.419 . S
C2185 C2186 1.362 . S
C2186 H2178 0.930 . S
C2186 C2185 1.362 . S
C2186 C2189 1.409 . S
C2187 H2179 0.930 . S
C2187 C2188 1.355 . S
C2187 C2189 1.415 . S
C2188 C2187 1.355 . S
C2188 C2190 1.419 . S
C2189 C2184 1.425 . S
C2189 C2186 1.409 . S
C2189 C2187 1.415 . S
C2190 H2180 0.930 . S
C2190 C2188 1.419 . S
C2190 C2191 1.362 . S
C2191 H2181 0.930 . S
C2191 C2184 1.409 . S
C2191 C2190 1.362 . S
H2192 C2198 0.930 . S
H2193 C2201 0.930 . S
H2194 C2202 0.930 . S
H2195 C2203 0.930 . S
H2196 C2206 0.930 . S
H2197 C2207 0.930 . S
C2198 H2192 0.930 . S
C2198 C2199 1.355 . S
C2198 C2200 1.415 . S
C2199 C2198 1.355 . S
C2199 C2201 1.419 . S
C2200 C2198 1.415 . S
C2200 C2205 1.425 . S
C2200 C2207 1.409 . S
C2201 H2193 0.930 . S
C2201 C2199 1.419 . S
C2201 C2202 1.362 . S
C2202 H2194 0.930 . S
C2202 C2201 1.362 . S
C2202 C2205 1.409 . S
C2203 H2195 0.930 . S
C2203 C2204 1.355 . S
C2203 C2205 1.415 . S
C2204 C2203 1.355 . S
C2204 C2206 1.419 . S
C2205 C2200 1.425 . S
C2205 C2202 1.409 . S
C2205 C2203 1.415 . S
C2206 H2196 0.930 . S
C2206 C2204 1.419 . S
C2206 C2207 1.362 . S
C2207 H2197 0.930 . S
C2207 C2200 1.409 . S
C2207 C2206 1.362 . S
H2208 C2214 0.930 . S
H2209 C2217 0.930 . S
H2210 C2218 0.930 . S
H2211 C2219 0.930 . S
H2212 C2222 0.930 . S
H2213 C2223 0.930 . S
C2214 H2208 0.930 . S
C2214 C2215 1.355 . S
C2214 C2216 1.415 . S
C2215 C2214 1.355 . S
C2215 C2217 1.419 . S
C2216 C2214 1.415 . S
C2216 C2221 1.425 . S
C2216 C2223 1.409 . S
C2217 H2209 0.930 . S
C2217 C2215 1.419 . S
C2217 C2218 1.362 . S
C2218 H2210 0.930 . S
C2218 C2217 1.362 . S
C2218 C2221 1.409 . S
C2219 H2211 0.930 . S
C2219 C2220 1.355 . S
C2219 C2221 1.415 . S
C2220 C2219 1.355 . S
C2220 C2222 1.419 . S
C2221 C2216 1.425 . S
C2221 C2218 1.409 . S
C2221 C2219 1.415 . S
C2222 H2212 0.930 . S
C2222 C2220 1.419 . S
C2222 C2223 1.362 . S
C2223 H2213 0.930 . S
C2223 C2216 1.409 . S
C2223 C2222 1.362 . S
H2224 C2230 0.930 . S
H2225 C2233 0.930 . S
H2226 C2234 0.930 . S
H2227 C2235 0.930 . S
H2228 C2238 0.930 . S
H2229 C2239 0.930 . S
C2230 H2224 0.930 . S
C2230 C2231 1.355 . S
C2230 C2232 1.415 . S
C2231 C2230 1.355 . S
C2231 C2233 1.419 . S
C2232 C2230 1.415 . S
C2232 C2237 1.425 . S
C2232 C2239 1.409 . S
C2233 H2225 0.930 . S
C2233 C2231 1.419 . S
C2233 C2234 1.362 . S
C2234 H2226 0.930 . S
C2234 C2233 1.362 . S
C2234 C2237 1.409 . S
C2235 H2227 0.930 . S
C2235 C2236 1.355 . S
C2235 C2237 1.415 . S
C2236 C2235 1.355 . S
C2236 C2238 1.419 . S
C2237 C2232 1.425 . S
C2237 C2234 1.409 . S
C2237 C2235 1.415 . S
C2238 H2228 0.930 . S
C2238 C2236 1.419 . S
C2238 C2239 1.362 . S
C2239 H2229 0.930 . S
C2239 C2232 1.409 . S
C2239 C2238 1.362 . S
H2240 C2246 0.930 . S
H2241 C2249 0.930 . S
H2242 C2250 0.930 . S
H2243 C2251 0.930 . S
H2244 C2254 0.930 . S
H2245 C2255 0.930 . S
C2246 H2240 0.930 . S
C2246 C2247 1.355 . S
C2246 C2248 1.415 . S
C2247 C2246 1.355 . S
C2247 C2249 1.419 . S
C2248 C2246 1.415 . S
C2248 C2253 1.425 . S
C2248 C2255 1.409 . S
C2249 H2241 0.930 . S
C2249 C2247 1.419 . S
C2249 C2250 1.362 . S
C2250 H2242 0.930 . S
C2250 C2249 1.362 . S
C2250 C2253 1.409 . S
C2251 H2243 0.930 . S
C2251 C2252 1.355 . S
C2251 C2253 1.415 . S
C2252 C2251 1.355 . S
C2252 C2254 1.419 . S
C2253 C2248 1.425 . S
C2253 C2250 1.409 . S
C2253 C2251 1.415 . S
C2254 H2244 0.930 . S
C2254 C2252 1.419 . S
C2254 C2255 1.362 . S
C2255 H2245 0.930 . S
C2255 C2248 1.409 . S
C2255 C2254 1.362 . S
H2256 C2262 0.930 . S
H2257 C2265 0.930 . S
H2258 C2266 0.930 . S
H2259 C2267 0.930 . S
H2260 C2270 0.930 . S
H2261 C2271 0.930 . S
C2262 H2256 0.930 . S
C2262 C2263 1.355 . S
C2262 C2264 1.415 . S
C2263 C2262 1.355 . S
C2263 C2265 1.419 . S
C2264 C2262 1.415 . S
C2264 C2269 1.425 . S
C2264 C2271 1.409 . S
C2265 H2257 0.930 . S
C2265 C2263 1.419 . S
C2265 C2266 1.362 . S
C2266 H2258 0.930 . S
C2266 C2265 1.362 . S
C2266 C2269 1.409 . S
C2267 H2259 0.930 . S
C2267 C2268 1.355 . S
C2267 C2269 1.415 . S
C2268 C2267 1.355 . S
C2268 C2270 1.419 . S
C2269 C2264 1.425 . S
C2269 C2266 1.409 . S
C2269 C2267 1.415 . S
C2270 H2260 0.930 . S
C2270 C2268 1.419 . S
C2270 C2271 1.362 . S
C2271 H2261 0.930 . S
C2271 C2264 1.409 . S
C2271 C2270 1.362 . S
H2272 C2278 0.930 . S
H2273 C2281 0.930 . S
H2274 C2282 0.930 . S
H2275 C2283 0.930 . S
H2276 C2286 0.930 . S
H2277 C2287 0.930 . S
C2278 H2272 0.930 . S
C2278 C2279 1.355 . S
C2278 C2280 1.415 . S
C2279 C2278 1.355 . S
C2279 C2281 1.419 . S
C2280 C2278 1.415 . S
C2280 C2285 1.425 . S
C2280 C2287 1.409 . S
C2281 H2273 0.930 . S
C2281 C2279 1.419 . S
C2281 C2282 1.362 . S
C2282 H2274 0.930 . S
C2282 C2281 1.362 . S
C2282 C2285 1.409 . S
C2283 H2275 0.930 . S
C2283 C2284 1.355 . S
C2283 C2285 1.415 . S
C2284 C2283 1.355 . S
C2284 C2286 1.419 . S
C2285 C2280 1.425 . S
C2285 C2282 1.409 . S
C2285 C2283 1.415 . S
C2286 H2276 0.930 . S
C2286 C2284 1.419 . S
C2286 C2287 1.362 . S
C2287 H2277 0.930 . S
C2287 C2280 1.409 . S
C2287 C2286 1.362 . S
H2288 C2294 0.930 . S
H2289 C2297 0.923 1_455 S
H2290 C2298 0.930 . S
H2291 C2299 0.930 . S
H2292 C2302 0.930 1_655 S
H2293 C2303 0.930 . S
C2294 H2288 0.930 . S
C2294 C2295 1.355 . S
C2294 C2296 1.415 . S
C2295 C2294 1.355 . S
C2295 C2297 1.443 . S
C2296 C2294 1.415 . S
C2296 C2301 1.425 1_655 S
C2296 C2303 1.409 . S
C2297 H2289 0.923 1_655 S
C2297 C2295 1.443 . S
C2297 C2298 1.346 1_655 S
C2298 H2290 0.930 . S
C2298 C2297 1.346 1_455 S
C2298 C2301 1.409 . S
C2299 H2291 0.930 . S
C2299 C2300 1.355 . S
C2299 C2301 1.415 . S
C2300 C2299 1.355 . S
C2300 C2302 1.419 . S
C2301 C2296 1.425 1_455 S
C2301 C2298 1.409 . S
C2301 C2299 1.415 . S
C2302 H2292 0.930 1_455 S
C2302 C2300 1.419 . S
C2302 C2303 1.362 1_455 S
C2303 H2293 0.930 . S
C2303 C2296 1.409 . S
C2303 C2302 1.362 1_655 S
H2304 C2310 0.930 . S
H2305 C2313 0.930 . S
H2306 C2314 0.930 . S
H2307 C2315 0.930 . S
H2308 C2318 0.930 . S
H2309 C2319 0.930 . S
C2310 H2304 0.930 . S
C2310 C2311 1.355 . S
C2310 C2312 1.415 . S
C2311 C2310 1.355 . S
C2311 C2313 1.419 . S
C2312 C2310 1.415 . S
C2312 C2317 1.425 . S
C2312 C2319 1.409 . S
C2313 H2305 0.930 . S
C2313 C2311 1.419 . S
C2313 C2314 1.362 . S
C2314 H2306 0.930 . S
C2314 C2313 1.362 . S
C2314 C2317 1.409 . S
C2315 H2307 0.930 . S
C2315 C2316 1.355 . S
C2315 C2317 1.415 . S
C2316 C2315 1.355 . S
C2316 C2318 1.419 . S
C2317 C2312 1.425 . S
C2317 C2314 1.409 . S
C2317 C2315 1.415 . S
C2318 H2308 0.930 . S
C2318 C2316 1.419 . S
C2318 C2319 1.362 . S
C2319 H2309 0.930 . S
C2319 C2312 1.409 . S
C2319 C2318 1.362 . S
H2320 C2326 0.930 . S
H2321 C2329 0.930 . S
H2322 C2330 0.930 . S
H2323 C2331 0.930 . S
H2324 C2334 0.930 . S
H2325 C2335 0.930 . S
C2326 H2320 0.930 . S
C2326 C2327 1.355 . S
C2326 C2328 1.415 . S
C2327 C2326 1.355 . S
C2327 C2329 1.419 . S
C2328 C2326 1.415 . S
C2328 C2333 1.425 . S
C2328 C2335 1.409 . S
C2329 H2321 0.930 . S
C2329 C2327 1.419 . S
C2329 C2330 1.362 . S
C2330 H2322 0.930 . S
C2330 C2329 1.362 . S
C2330 C2333 1.409 . S
C2331 H2323 0.930 . S
C2331 C2332 1.355 . S
C2331 C2333 1.415 . S
C2332 C2331 1.355 . S
C2332 C2334 1.419 . S
C2333 C2328 1.425 . S
C2333 C2330 1.409 . S
C2333 C2331 1.415 . S
C2334 H2324 0.930 . S
C2334 C2332 1.419 . S
C2334 C2335 1.362 . S
C2335 H2325 0.930 . S
C2335 C2328 1.409 . S
C2335 C2334 1.362 . S
H2336 C2342 0.930 . S
H2337 C2345 0.930 . S
H2338 C2346 0.930 . S
H2339 C2347 0.930 . S
H2340 C2350 0.930 . S
H2341 C2351 0.930 . S
C2342 H2336 0.930 . S
C2342 C2343 1.355 . S
C2342 C2344 1.415 . S
C2343 C2342 1.355 . S
C2343 C2345 1.419 . S
C2344 C2342 1.415 . S
C2344 C2349 1.425 . S
C2344 C2351 1.409 . S
C2345 H2337 0.930 . S
C2345 C2343 1.419 . S
C2345 C2346 1.362 . S
C2346 H2338 0.930 . S
C2346 C2345 1.362 . S
C2346 C2349 1.409 . S
C2347 H2339 0.930 . S
C2347 C2348 1.355 . S
C2347 C2349 1.415 . S
C2348 C2347 1.355 . S
C2348 C2350 1.419 . S
C2349 C2344 1.425 . S
C2349 C2346 1.409 . S
C2349 C2347 1.415 . S
C2350 H2340 0.930 . S
C2350 C2348 1.419 . S
C2350 C2351 1.362 . S
C2351 H2341 0.930 . S
C2351 C2344 1.409 . S
C2351 C2350 1.362 . S
H2352 C2358 0.930 . S
H2353 C2361 0.930 . S
H2354 C2362 0.930 1_455 S
H2355 C2363 0.927 1_455 S
H2356 C2366 0.930 . S
H2357 C2367 0.930 . S
C2358 H2352 0.930 . S
C2358 C2359 1.355 . S
C2358 C2360 1.415 . S
C2359 C2358 1.355 . S
C2359 C2361 1.419 . S
C2360 C2358 1.415 . S
C2360 C2365 1.425 . S
C2360 C2367 1.409 . S
C2361 H2353 0.930 . S
C2361 C2359 1.419 . S
C2361 C2362 1.362 . S
C2362 H2354 0.930 1_655 S
C2362 C2361 1.362 . S
C2362 C2365 1.409 . S
C2363 H2355 0.927 1_655 S
C2363 C2364 1.355 . S
C2363 C2365 1.415 . S
C2364 C2363 1.355 . S
C2364 C2366 1.419 . S
C2365 C2360 1.425 . S
C2365 C2362 1.409 . S
C2365 C2363 1.415 . S
C2366 H2356 0.930 . S
C2366 C2364 1.419 . S
C2366 C2367 1.362 . S
C2367 H2357 0.930 . S
C2367 C2360 1.409 . S
C2367 C2366 1.362 . S
H2368 C2374 0.930 . S
H2369 C2377 0.930 . S
H2370 C2378 0.930 . S
H2371 C2379 0.930 . S
H2372 C2382 0.930 . S
H2373 C2383 0.930 . S
C2374 H2368 0.930 . S
C2374 C2375 1.355 . S
C2374 C2376 1.415 . S
C2375 C2374 1.355 . S
C2375 C2377 1.419 . S
C2376 C2374 1.415 . S
C2376 C2381 1.425 . S
C2376 C2383 1.409 . S
C2377 H2369 0.930 . S
C2377 C2375 1.419 . S
C2377 C2378 1.362 . S
C2378 H2370 0.930 . S
C2378 C2377 1.362 . S
C2378 C2381 1.409 . S
C2379 H2371 0.930 . S
C2379 C2380 1.355 . S
C2379 C2381 1.415 . S
C2380 C2379 1.355 . S
C2380 C2382 1.419 . S
C2381 C2376 1.425 . S
C2381 C2378 1.409 . S
C2381 C2379 1.415 . S
C2382 H2372 0.930 . S
C2382 C2380 1.419 . S
C2382 C2383 1.362 . S
C2383 H2373 0.930 . S
C2383 C2376 1.409 . S
C2383 C2382 1.362 . S
H2384 C2390 0.930 . S
H2385 C2393 0.930 . S
H2386 C2394 0.930 . S
H2387 C2395 0.930 . S
H2388 C2398 0.930 . S
H2389 C2399 0.930 . S
C2390 H2384 0.930 . S
C2390 C2391 1.355 . S
C2390 C2392 1.415 . S
C2391 C2390 1.355 . S
C2391 C2393 1.419 . S
C2392 C2390 1.415 . S
C2392 C2397 1.425 . S
C2392 C2399 1.409 . S
C2393 H2385 0.930 . S
C2393 C2391 1.419 . S
C2393 C2394 1.362 . S
C2394 H2386 0.930 . S
C2394 C2393 1.362 . S
C2394 C2397 1.409 . S
C2395 H2387 0.930 . S
C2395 C2396 1.355 . S
C2395 C2397 1.415 . S
C2396 C2395 1.355 . S
C2396 C2398 1.419 . S
C2397 C2392 1.425 . S
C2397 C2394 1.409 . S
C2397 C2395 1.415 . S
C2398 H2388 0.930 . S
C2398 C2396 1.419 . S
C2398 C2399 1.362 . S
C2399 H2389 0.930 . S
C2399 C2392 1.409 . S
C2399 C2398 1.362 . S
H2400 C2406 0.930 . S
H2401 C2409 0.930 . S
H2402 C2410 0.930 . S
H2403 C2411 0.930 . S
H2404 C2414 0.930 . S
H2405 C2415 0.930 . S
C2406 H2400 0.930 . S
C2406 C2407 1.355 . S
C2406 C2408 1.415 . S
C2407 C2406 1.355 . S
C2407 C2409 1.419 . S
C2408 C2406 1.415 . S
C2408 C2413 1.425 . S
C2408 C2415 1.409 1_565 S
C2409 H2401 0.930 . S
C2409 C2407 1.419 . S
C2409 C2410 1.362 . S
C2410 H2402 0.930 . S
C2410 C2409 1.362 . S
C2410 C2413 1.409 . S
C2411 H2403 0.930 . S
C2411 C2412 1.355 1_565 S
C2411 C2413 1.415 . S
C2412 C2411 1.355 1_545 S
C2412 C2414 1.419 . S
C2413 C2408 1.425 . S
C2413 C2410 1.409 . S
C2413 C2411 1.415 . S
C2414 H2404 0.930 . S
C2414 C2412 1.419 . S
C2414 C2415 1.362 . S
C2415 H2405 0.930 . S
C2415 C2408 1.409 1_545 S
C2415 C2414 1.362 . S
H2416 C2422 0.930 . S
H2417 C2425 0.930 . S
H2418 C2426 0.930 . S
H2419 C2427 0.930 . S
H2420 C2430 0.930 . S
H2421 C2431 0.930 . S
C2422 H2416 0.930 . S
C2422 C2423 1.355 . S
C2422 C2424 1.415 . S
C2423 C2422 1.355 . S
C2423 C2425 1.419 . S
C2424 C2422 1.415 . S
C2424 C2429 1.425 . S
C2424 C2431 1.409 . S
C2425 H2417 0.930 . S
C2425 C2423 1.419 . S
C2425 C2426 1.362 . S
C2426 H2418 0.930 . S
C2426 C2425 1.362 . S
C2426 C2429 1.409 . S
C2427 H2419 0.930 . S
C2427 C2428 1.355 . S
C2427 C2429 1.415 . S
C2428 C2427 1.355 . S
C2428 C2430 1.419 . S
C2429 C2424 1.425 . S
C2429 C2426 1.409 . S
C2429 C2427 1.415 . S
C2430 H2420 0.930 . S
C2430 C2428 1.419 . S
C2430 C2431 1.362 . S
C2431 H2421 0.930 . S
C2431 C2424 1.409 . S
C2431 C2430 1.362 . S
H2432 C2438 0.930 . S
H2433 C2441 0.930 . S
H2434 C2442 0.930 . S
H2435 C2443 0.930 . S
H2436 C2446 0.930 . S
H2437 C2447 0.930 . S
C2438 H2432 0.930 . S
C2438 C2439 1.355 . S
C2438 C2440 1.415 . S
C2439 C2438 1.355 . S
C2439 C2441 1.419 . S
C2440 C2438 1.415 . S
C2440 C2445 1.425 . S
C2440 C2447 1.409 . S
C2441 H2433 0.930 . S
C2441 C2439 1.419 . S
C2441 C2442 1.362 . S
C2442 H2434 0.930 . S
C2442 C2441 1.362 . S
C2442 C2445 1.409 . S
C2443 H2435 0.930 . S
C2443 C2444 1.355 . S
C2443 C2445 1.415 . S
C2444 C2443 1.355 . S
C2444 C2446 1.419 . S
C2445 C2440 1.425 . S
C2445 C2442 1.409 . S
C2445 C2443 1.415 . S
C2446 H2436 0.930 . S
C2446 C2444 1.419 . S
C2446 C2447 1.362 . S
C2447 H2437 0.930 . S
C2447 C2440 1.409 . S
C2447 C2446 1.362 . S
H2448 C2454 0.930 . S
H2449 C2457 0.930 . S
H2450 C2458 0.930 . S
H2451 C2459 0.930 . S
H2452 C2462 0.930 . S
H2453 C2463 0.930 . S
C2454 H2448 0.930 . S
C2454 C2455 1.355 . S
C2454 C2456 1.415 . S
C2455 C2454 1.355 . S
C2455 C2457 1.419 . S
C2456 C2454 1.415 . S
C2456 C2461 1.425 . S
C2456 C2463 1.409 . S
C2457 H2449 0.930 . S
C2457 C2455 1.419 . S
C2457 C2458 1.362 . S
C2458 H2450 0.930 . S
C2458 C2457 1.362 . S
C2458 C2461 1.409 . S
C2459 H2451 0.930 . S
C2459 C2460 1.355 . S
C2459 C2461 1.415 . S
C2460 C2459 1.355 . S
C2460 C2462 1.419 . S
C2461 C2456 1.425 . S
C2461 C2458 1.409 . S
C2461 C2459 1.415 . S
C2462 H2452 0.930 . S
C2462 C2460 1.419 . S
C2462 C2463 1.362 . S
C2463 H2453 0.930 . S
C2463 C2456 1.409 . S
C2463 C2462 1.362 . S
H2464 C2470 0.930 . S
H2465 C2473 0.930 . S
H2466 C2474 0.930 . S
H2467 C2475 0.930 . S
H2468 C2478 0.930 . S
H2469 C2479 0.930 . S
C2470 H2464 0.930 . S
C2470 C2471 1.355 . S
C2470 C2472 1.415 . S
C2471 C2470 1.355 . S
C2471 C2473 1.419 1_554 S
C2472 C2470 1.415 . S
C2472 C2477 1.425 1_554 S
C2472 C2479 1.409 . S
C2473 H2465 0.930 . S
C2473 C2471 1.419 1_556 S
C2473 C2474 1.362 . S
C2474 H2466 0.930 . S
C2474 C2473 1.362 . S
C2474 C2477 1.409 . S
C2475 H2467 0.930 . S
C2475 C2476 1.355 . S
C2475 C2477 1.415 . S
C2476 C2475 1.355 . S
C2476 C2478 1.419 1_556 S
C2477 C2472 1.425 1_556 S
C2477 C2474 1.409 . S
C2477 C2475 1.415 . S
C2478 H2468 0.930 . S
C2478 C2476 1.419 1_554 S
C2478 C2479 1.362 . S
C2479 H2469 0.930 . S
C2479 C2472 1.409 . S
C2479 C2478 1.362 . S
H2480 C2486 0.930 . S
H2481 C2489 0.930 . S
H2482 C2490 0.930 . S
H2483 C2491 0.930 . S
H2484 C2494 0.930 . S
H2485 C2495 0.930 . S
C2486 H2480 0.930 . S
C2486 C2487 1.355 . S
C2486 C2488 1.415 . S
C2487 C2486 1.355 . S
C2487 C2489 1.419 . S
C2488 C2486 1.415 . S
C2488 C2493 1.425 . S
C2488 C2495 1.409 . S
C2489 H2481 0.930 . S
C2489 C2487 1.419 . S
C2489 C2490 1.362 . S
C2490 H2482 0.930 . S
C2490 C2489 1.362 . S
C2490 C2493 1.409 . S
C2491 H2483 0.930 . S
C2491 C2492 1.355 . S
C2491 C2493 1.415 . S
C2492 C2491 1.355 . S
C2492 C2494 1.419 . S
C2493 C2488 1.425 . S
C2493 C2490 1.409 . S
C2493 C2491 1.415 . S
C2494 H2484 0.930 . S
C2494 C2492 1.419 . S
C2494 C2495 1.362 . S
C2495 H2485 0.930 . S
C2495 C2488 1.409 . S
C2495 C2494 1.362 . S
H2496 C2502 0.930 . S
H2497 C2505 0.930 . S
H2498 C2506 0.930 . S
H2499 C2507 0.930 . S
H2500 C2510 0.930 . S
H2501 C2511 0.930 . S
C2502 H2496 0.930 . S
C2502 C2503 1.355 . S
C2502 C2504 1.415 . S
C2503 C2502 1.355 . S
C2503 C2505 1.419 . S
C2504 C2502 1.415 . S
C2504 C2509 1.425 . S
C2504 C2511 1.409 . S
C2505 H2497 0.930 . S
C2505 C2503 1.419 . S
C2505 C2506 1.362 . S
C2506 H2498 0.930 . S
C2506 C2505 1.362 . S
C2506 C2509 1.409 . S
C2507 H2499 0.930 . S
C2507 C2508 1.355 . S
C2507 C2509 1.415 . S
C2508 C2507 1.355 . S
C2508 C2510 1.419 . S
C2509 C2504 1.425 . S
C2509 C2506 1.409 . S
C2509 C2507 1.415 . S
C2510 H2500 0.930 . S
C2510 C2508 1.419 . S
C2510 C2511 1.362 . S
C2511 H2501 0.930 . S
C2511 C2504 1.409 . S
C2511 C2510 1.362 . S
C983 C109 2.258 . S
C988 C346 2.217 1_556 S
C999 C61 1.863 . S
C1004 C394 2.085 . S
C1015 C74 1.273 . S
C1020 C426 1.304 . S
C1036 C471 1.344 . S
C1031 C96 1.384 . S
C1047 C25 1.353 1_455 S
C1052 C511 1.239 . S
C1068 C542 0.560 . S
C1063 C40 0.495 . S
C1084 C594 1.468 . S
C1079 C46 1.509 . S
C1095 C5 1.299 . S
C1100 C626 1.727 . S
C1116 C354 2.379 . S
C1111 C229 2.045 . S
C1127 C249 0.614 . S
C1132 C391 0.736 . S
C1148 C434 1.123 . S
C1143 C271 1.040 . S
C1164 C466 1.537 . S
C1159 C172 1.540 . S
C1175 C236 1.909 . S
C1180 C506 1.872 . S
C1196 C545 1.602 . S
C1191 C242 1.541 . S
C1212 C591 0.339 . S
C1207 C278 0.266 . S
C1228 C634 2.151 . S
C1223 C179 2.177 . S
C1244 C351 1.523 . S
C1239 C159 1.187 . S
C1255 C285 1.598 1_554 S
C1260 C674 1.854 . S
C1276 C715 2.531 . S
C1271 C333 2.564 . S
C1292 C746 0.685 1_655 S
C1287 C320 0.641 . S
C1303 C123 1.612 . S
C1308 C631 1.535 . S
C1319 C138 1.617 . S
C1324 C431 1.582 . S
C1335 C326 2.299 . S
C1340 C794 2.299 . S
C1356 C826 0.650 . S
C1351 C298 0.628 . S
C1372 C355 2.216 . S
C1367 C67 2.145 . S
C1388 C825 2.047 . S
C1383 C110 2.025 . S
C1399 C88 1.283 . S
C1404 C435 1.233 . S
C1415 C75 1.226 . S
C1420 C782 1.272 . S
C1436 C502 1.299 . S
C1431 C11 1.287 . S
C1447 C47 0.543 . S
C1452 C711 0.479 . S
C1468 C585 1.297 . S
C1463 C32 1.141 . S
C1484 C875 1.872 . S
C1479 C26 1.917 . S
C1500 C345 2.477 . S
C1495 C152 2.493 . S
C1516 C822 0.681 . S
C1511 C319 0.683 . S
C1527 C124 1.120 . S
C1532 C425 1.092 . S
C1543 C284 1.545 . S
C1548 C795 1.579 . S
C1559 C145 1.830 1_545 S
C1564 C515 1.893 . S
C1580 C714 1.510 . S
C1575 C312 1.501 . S
C1591 C117 0.463 1_565 S
C1596 C582 0.540 . S
C1607 C291 2.067 . S
C1612 C865 2.082 . S
C1623 C194 1.573 . S
C1628 C342 1.530 . S
C1639 C180 1.821 . S
C1644 C665 1.827 . S
C1655 C263 2.447 . S
C1660 C546 2.401 . S
C1671 C243 0.783 . S
C1676 C755 0.666 . S
C1692 C862 1.568 . S
C1687 C277 1.535 . S
C1703 C215 1.437 . S
C1708 C422 1.584 . S
C1724 C465 2.178 . S
C1719 C256 2.157 . S
C1740 C395 0.658 . S
C1735 C200 0.670 . S
C1751 C81 2.261 . S
C1756 C906 2.205 . S
C1772 C834 2.088 . S
C1767 C89 1.907 . S
C1783 C102 1.268 . S
C1788 C946 1.272 . S
C1799 C68 1.385 . S
C1804 C791 1.352 . S
C1815 C53 1.390 . S
C1820 C671 1.336 . S
C1836 C702 0.484 . S
C1831 C12 0.550 . S
C1852 C754 1.474 . S
C1847 C18 1.527 . S
C1868 C866 1.776 . S
C1863 C33 1.431 . S
C1884 C914 2.376 . S
C1879 C257 2.076 . S
C1895 C193 0.602 . S
C1900 C831 0.723 . S
C1916 C954 1.167 . S
C1911 C201 0.929 . S
C1932 C786 1.533 . S
C1927 C214 1.544 . S
C1948 C666 1.917 . S
C1943 C264 1.904 . S
C1959 C186 1.582 . S
C1964 C705 1.567 . S
C1980 C751 0.492 . S
C1975 C208 0.327 . S
C1991 C221 2.185 . S
C1996 C874 2.139 . S
C2012 C911 1.514 . S
C2007 C313 1.232 . S
C2023 C131 1.594 . S
C2028 C514 1.855 . S
C2044 C555 2.508 . S
C2039 C151 2.583 . S
C2060 C586 0.676 . S
C2055 C166 0.661 . S
C2076 C871 1.530 . S
C2071 C305 1.610 . S
C2087 C292 1.614 . S
C2092 C951 1.575 . S
C2108 C474 2.294 . S
C2103 C144 2.300 . S
C2124 C386 0.663 . S
C2119 C116 0.556 . S
C2135 C95 2.151 . S
C2140 C915 2.195 . S
C2156 C385 2.028 . S
C2151 C82 2.041 . S
C2167 C60 1.299 . S
C2172 C955 1.262 . S
C2183 C103 1.115 . S
C2188 C462 1.320 . S
C2199 C39 1.317 . S
C2204 C662 1.327 . S
C2220 C551 0.573 . S
C2215 C19 0.640 . S
C2231 C4 1.171 . S
C2236 C745 1.305 . S
C2247 C54 1.930 . S
C2252 C635 1.847 . S
C2268 C905 2.471 . S
C2263 C334 2.491 . S
C2279 C165 0.573 . S
C2284 C382 0.573 . S
C2300 C945 1.117 . S
C2295 C306 1.108 . S
C2311 C130 1.539 . S
C2316 C475 1.537 . S
C2327 C327 1.839 . S
C2332 C675 1.904 . S
C2348 C554 1.504 . S
C2343 C158 1.509 . S
C2359 C299 0.470 . S
C2364 C742 0.538 . S
C2380 C625 2.087 . S
C2375 C137 2.080 . S
C2396 C902 1.545 . S
C2391 C250 1.605 . S
C2412 C505 1.807 1_655 S
C2407 C222 1.824 . S
C2423 C235 2.464 . S
C2428 C706 2.400 . S
C2444 C595 0.626 . S
C2439 C187 0.661 . S
C2455 C207 1.540 . S
C2460 C622 1.584 . S
C2471 C173 1.531 . S
C2476 C942 1.525 . S
C2492 C785 2.186 . S
C2487 C228 2.170 1_565 S
C2508 C835 0.578 . S
C2503 C270 0.570 . S
