# Generated by pormake.
# Topology ocu, (6,8)-cn, num edge types: 1
# Building blocks:
#     Node 0, Type 0, BuildingBlock: KUMBUR_clean_sbu_0, # of connection points: 6
#     Node 1, Type 0, BuildingBlock: KUMBUR_clean_sbu_0, # of connection points: 6
#     Node 2, Type 0, BuildingBlock: KUMBUR_clean_sbu_0, # of connection points: 6
#     Node 3, Type 0, BuildingBlock: KUMBUR_clean_sbu_0, # of connection points: 6
#     Node 4, Type 0, BuildingBlock: KUMBUR_clean_sbu_0, # of connection points: 6
#     Node 5, Type 0, BuildingBlock: KUMBUR_clean_sbu_0, # of connection points: 6
#     Node 6, Type 0, BuildingBlock: KUMBUR_clean_sbu_0, # of connection points: 6
#     Node 7, Type 0, BuildingBlock: KUMBUR_clean_sbu_0, # of connection points: 6
#     Node 8, Type 1, BuildingBlock: VETTIZ_charged_sbu_0, # of connection points: 8
#     Node 9, Type 1, BuildingBlock: VETTIZ_charged_sbu_0, # of connection points: 8
#     Node 10, Type 1, BuildingBlock: VETTIZ_charged_sbu_0, # of connection points: 8
#     Node 11, Type 1, BuildingBlock: VETTIZ_charged_sbu_0, # of connection points: 8
#     Node 12, Type 1, BuildingBlock: VETTIZ_charged_sbu_0, # of connection points: 8
#     Node 13, Type 1, BuildingBlock: VETTIZ_charged_sbu_0, # of connection points: 8
#     Edge 14, Type (0, 1), BuildingBlock: TEMPAE_clean_linker_10, # of connection points: 2
#     Edge 15, Type (0, 1), BuildingBlock: TEMPAE_clean_linker_10, # of connection points: 2
#     Edge 16, Type (0, 1), BuildingBlock: TEMPAE_clean_linker_10, # of connection points: 2
#     Edge 17, Type (0, 1), BuildingBlock: TEMPAE_clean_linker_10, # of connection points: 2
#     Edge 18, Type (0, 1), BuildingBlock: TEMPAE_clean_linker_10, # of connection points: 2
#     Edge 19, Type (0, 1), BuildingBlock: TEMPAE_clean_linker_10, # of connection points: 2
#     Edge 20, Type (0, 1), BuildingBlock: TEMPAE_clean_linker_10, # of connection points: 2
#     Edge 21, Type (0, 1), BuildingBlock: TEMPAE_clean_linker_10, # of connection points: 2
#     Edge 22, Type (0, 1), BuildingBlock: TEMPAE_clean_linker_10, # of connection points: 2
#     Edge 23, Type (0, 1), BuildingBlock: TEMPAE_clean_linker_10, # of connection points: 2
#     Edge 24, Type (0, 1), BuildingBlock: TEMPAE_clean_linker_10, # of connection points: 2
#     Edge 25, Type (0, 1), BuildingBlock: TEMPAE_clean_linker_10, # of connection points: 2
#     Edge 26, Type (0, 1), BuildingBlock: TEMPAE_clean_linker_10, # of connection points: 2
#     Edge 27, Type (0, 1), BuildingBlock: TEMPAE_clean_linker_10, # of connection points: 2
#     Edge 28, Type (0, 1), BuildingBlock: TEMPAE_clean_linker_10, # of connection points: 2
#     Edge 29, Type (0, 1), BuildingBlock: TEMPAE_clean_linker_10, # of connection points: 2
#     Edge 30, Type (0, 1), BuildingBlock: TEMPAE_clean_linker_10, # of connection points: 2
#     Edge 31, Type (0, 1), BuildingBlock: TEMPAE_clean_linker_10, # of connection points: 2
#     Edge 32, Type (0, 1), BuildingBlock: TEMPAE_clean_linker_10, # of connection points: 2
#     Edge 33, Type (0, 1), BuildingBlock: TEMPAE_clean_linker_10, # of connection points: 2
#     Edge 34, Type (0, 1), BuildingBlock: TEMPAE_clean_linker_10, # of connection points: 2
#     Edge 35, Type (0, 1), BuildingBlock: TEMPAE_clean_linker_10, # of connection points: 2
#     Edge 36, Type (0, 1), BuildingBlock: TEMPAE_clean_linker_10, # of connection points: 2
#     Edge 37, Type (0, 1), BuildingBlock: TEMPAE_clean_linker_10, # of connection points: 2
#     Edge 38, Type (0, 1), BuildingBlock: TEMPAE_clean_linker_10, # of connection points: 2
#     Edge 39, Type (0, 1), BuildingBlock: TEMPAE_clean_linker_10, # of connection points: 2
#     Edge 40, Type (0, 1), BuildingBlock: TEMPAE_clean_linker_10, # of connection points: 2
#     Edge 41, Type (0, 1), BuildingBlock: TEMPAE_clean_linker_10, # of connection points: 2
#     Edge 42, Type (0, 1), BuildingBlock: TEMPAE_clean_linker_10, # of connection points: 2
#     Edge 43, Type (0, 1), BuildingBlock: TEMPAE_clean_linker_10, # of connection points: 2
#     Edge 44, Type (0, 1), BuildingBlock: TEMPAE_clean_linker_10, # of connection points: 2
#     Edge 45, Type (0, 1), BuildingBlock: TEMPAE_clean_linker_10, # of connection points: 2
#     Edge 46, Type (0, 1), BuildingBlock: TEMPAE_clean_linker_10, # of connection points: 2
#     Edge 47, Type (0, 1), BuildingBlock: TEMPAE_clean_linker_10, # of connection points: 2
#     Edge 48, Type (0, 1), BuildingBlock: TEMPAE_clean_linker_10, # of connection points: 2
#     Edge 49, Type (0, 1), BuildingBlock: TEMPAE_clean_linker_10, # of connection points: 2
#     Edge 50, Type (0, 1), BuildingBlock: TEMPAE_clean_linker_10, # of connection points: 2
#     Edge 51, Type (0, 1), BuildingBlock: TEMPAE_clean_linker_10, # of connection points: 2
#     Edge 52, Type (0, 1), BuildingBlock: TEMPAE_clean_linker_10, # of connection points: 2
#     Edge 53, Type (0, 1), BuildingBlock: TEMPAE_clean_linker_10, # of connection points: 2
#     Edge 54, Type (0, 1), BuildingBlock: TEMPAE_clean_linker_10, # of connection points: 2
#     Edge 55, Type (0, 1), BuildingBlock: TEMPAE_clean_linker_10, # of connection points: 2
#     Edge 56, Type (0, 1), BuildingBlock: TEMPAE_clean_linker_10, # of connection points: 2
#     Edge 57, Type (0, 1), BuildingBlock: TEMPAE_clean_linker_10, # of connection points: 2
#     Edge 58, Type (0, 1), BuildingBlock: TEMPAE_clean_linker_10, # of connection points: 2
#     Edge 59, Type (0, 1), BuildingBlock: TEMPAE_clean_linker_10, # of connection points: 2
#     Edge 60, Type (0, 1), BuildingBlock: TEMPAE_clean_linker_10, # of connection points: 2
#     Edge 61, Type (0, 1), BuildingBlock: TEMPAE_clean_linker_10, # of connection points: 2
# Relax obj value: 0.112
# Max RMSD: 0.247
# Mean RMSD: 0.163
data_MOF--net-ocu--node1-KUMBUR_clean_sbu_0--node2-VETTIZ_charged_sbu_0--edge1-TEMPAE_clean_linker_10
_symmetry_space_group_name_H-M    P1
_symmetry_Int_Tables_number       1
_symmetry_cell_setting            triclinic
loop_
_symmetry_equiv_pos_as_xyz
'x, y, z'
_cell_length_a     38.586273
_cell_length_b     39.246722
_cell_length_c     41.859512
_cell_angle_alpha  78.067666
_cell_angle_beta   99.501101
_cell_angle_gamma 103.65867
loop_
_atom_site_label
_atom_site_type_symbol
_atom_site_fract_x
_atom_site_fract_y
_atom_site_fract_z
_atom_type_partial_charge
Tb0 Tb 0.2802 0.23195 0.24682 0.0
C1 C 0.38858 0.3298 0.32839 0.0
C2 C 0.39673 0.2938 0.38232 0.0
C3 C 0.44618 0.34027 0.36241 0.0
C4 C 0.37516 0.30238 0.35241 0.0
C5 C 0.42404 0.34952 0.33321 0.0
C6 C 0.43255 0.31242 0.38693 0.0
C7 C 0.41222 0.38716 0.28087 0.0
N8 N 0.36643 0.3376 0.30043 0.0
C9 C 0.37724 0.36678 0.27724 0.0
C10 C 0.43589 0.37823 0.30878 0.0
Tb11 Tb 0.31058 0.30102 0.29587 0.0
N12 N 0.34049 0.28501 0.3469 0.0
C13 C 0.32487 0.26053 0.37154 0.0
C14 C 0.38142 0.2673 0.40689 0.0
C15 C 0.34517 0.25099 0.40165 0.0
H16 H 0.35935 0.37371 0.2554 0.0
H17 H 0.33288 0.23086 0.42069 0.0
H18 H 0.44968 0.30597 0.4096 0.0
H19 H 0.42092 0.40966 0.26208 0.0
H20 H 0.297 0.24734 0.36791 0.0
H21 H 0.25777 0.30789 0.1243 0.0
H22 H 0.39708 0.25982 0.4302 0.0
H23 H 0.23429 0.15373 0.2801 0.0
H24 H 0.29343 0.28886 0.17632 0.0
H25 H 0.17339 0.11676 0.27164 0.0
H26 H 0.47364 0.35486 0.36651 0.0
H27 H 0.19353 0.27953 0.11394 0.0
H28 H 0.14076 0.23255 0.13306 0.0
H29 H 0.46299 0.39401 0.31147 0.0
H30 H 0.11756 0.18019 0.17344 0.0
N31 N 0.24981 0.25056 0.19645 0.0
C32 C 0.26554 0.27603 0.17246 0.0
C33 C 0.20903 0.27119 0.13708 0.0
C34 C 0.19361 0.24366 0.16077 0.0
C35 C 0.24533 0.28706 0.14275 0.0
C36 C 0.21514 0.23364 0.19032 0.0
H37 H 0.12983 0.13623 0.22499 0.0
N38 N 0.22499 0.19466 0.23951 0.0
C39 C 0.18103 0.14155 0.25499 0.0
C40 C 0.20217 0.20452 0.21278 0.0
C41 C 0.21557 0.16261 0.2597 0.0
C42 C 0.15649 0.15268 0.22871 0.0
C43 C 0.1672 0.18416 0.20674 0.0
O44 O 0.29714 0.18368 0.25175 0.0
O45 O 0.31475 0.24888 0.28956 0.0
O46 O 0.35679 0.29566 0.27539 0.0
O47 O 0.32629 0.27347 0.22902 0.0
O48 O 0.29042 0.19662 0.29387 0.0
O49 O 0.30782 0.22486 0.20997 0.0
O50 O 0.29535 0.35025 0.28772 0.0
O51 O 0.27421 0.28292 0.25448 0.0
O52 O 0.23478 0.23032 0.2729 0.0
O53 O 0.26416 0.26231 0.31468 0.0
O54 O 0.29962 0.33478 0.24788 0.0
O55 O 0.28586 0.31272 0.33256 0.0
C56 C 0.31231 0.21949 0.30951 0.0
C57 C 0.30142 0.1655 0.20249 0.0
C58 C 0.32085 0.12636 0.17359 0.0
C59 C 0.32908 0.1534 0.19289 0.0
C60 C 0.28457 0.11191 0.16388 0.0
C61 C 0.2655 0.15092 0.19215 0.0
C62 C 0.25718 0.12424 0.17301 0.0
C63 C 0.35589 0.28991 0.24533 0.0
C64 C 0.31045 0.19259 0.22391 0.0
C65 C 0.14472 0.19517 0.17836 0.0
C66 C 0.15792 0.22495 0.15538 0.0
C67 C 0.27555 0.31181 0.23407 0.0
C68 C 0.29107 0.37409 0.3336 0.0
C69 C 0.26245 0.38673 0.34046 0.0
C70 C 0.26876 0.41784 0.35423 0.0
C71 C 0.30458 0.43579 0.36137 0.0
C72 C 0.32648 0.39211 0.34124 0.0
C73 C 0.33312 0.42281 0.35513 0.0
C74 C 0.23585 0.24145 0.30098 0.0
C75 C 0.28282 0.34403 0.31583 0.0
H76 H 0.35689 0.16464 0.20081 0.0
H77 H 0.27737 0.09147 0.14867 0.0
H78 H 0.24386 0.15997 0.19894 0.0
H79 H 0.22938 0.1131 0.16516 0.0
H80 H 0.23521 0.37217 0.33493 0.0
H81 H 0.31063 0.46011 0.37144 0.0
H82 H 0.34885 0.38287 0.33596 0.0
H83 H 0.3605 0.43688 0.36068 0.0
Tb84 Tb 0.79574 0.25028 0.26532 0.0
C85 C 0.66001 0.28511 0.29355 0.0
C86 C 0.61546 0.29095 0.24581 0.0
C87 C 0.59651 0.27133 0.30039 0.0
C88 C 0.65154 0.29324 0.25997 0.0
C89 C 0.63264 0.27493 0.31428 0.0
C90 C 0.58792 0.27925 0.26617 0.0
C91 C 0.67881 0.2755 0.36084 0.0
N92 N 0.69522 0.28897 0.30596 0.0
C93 C 0.70495 0.28564 0.33921 0.0
C94 C 0.64247 0.26978 0.34833 0.0
Tb95 Tb 0.73591 0.3074 0.26857 0.0
N96 N 0.67893 0.30497 0.24129 0.0
C97 C 0.67215 0.31706 0.2082 0.0
C98 C 0.60827 0.30145 0.21175 0.0
C99 C 0.63679 0.3149 0.19292 0.0
H100 H 0.73281 0.29006 0.34943 0.0
H101 H 0.63157 0.3237 0.16666 0.0
H102 H 0.56 0.27713 0.25579 0.0
H103 H 0.68674 0.27224 0.38713 0.0
H104 H 0.69403 0.32742 0.19344 0.0
H105 H 0.88977 0.23115 0.37572 0.0
H106 H 0.58091 0.30007 0.19991 0.0
H107 H 0.80723 0.2709 0.18673 0.0
H108 H 0.83056 0.23392 0.34444 0.0
H109 H 0.85586 0.27728 0.15336 0.0
H110 H 0.57509 0.26319 0.31591 0.0
H111 H 0.94353 0.24413 0.34673 0.0
H112 H 0.96975 0.25902 0.29312 0.0
H113 H 0.62227 0.2623 0.36507 0.0
H114 H 0.96027 0.27019 0.23256 0.0
N115 N 0.85002 0.24888 0.29752 0.0
C116 C 0.85348 0.23939 0.33114 0.0
C117 C 0.9175 0.24553 0.33273 0.0
C118 C 0.91373 0.25414 0.2984 0.0
C119 C 0.8872 0.23806 0.34915 0.0
C120 C 0.87929 0.25598 0.2814 0.0
H121 H 0.9174 0.27423 0.1805 0.0
N122 N 0.84086 0.26619 0.2325 0.0
C123 C 0.86159 0.27408 0.17988 0.0
C124 C 0.87438 0.26423 0.24763 0.0
C125 C 0.83412 0.27082 0.19896 0.0
C126 C 0.89625 0.27248 0.19524 0.0
C127 C 0.90322 0.26829 0.22948 0.0
O128 O 0.79317 0.19516 0.27897 0.0
O129 O 0.74838 0.25531 0.28385 0.0
O130 O 0.77678 0.30281 0.31186 0.0
O131 O 0.82558 0.29394 0.2912 0.0
O132 O 0.77549 0.21846 0.31073 0.0
O133 O 0.78026 0.21887 0.2284 0.0
O134 O 0.75515 0.34475 0.30062 0.0
O135 O 0.78307 0.30196 0.25027 0.0
O136 O 0.75631 0.25639 0.22097 0.0
O137 O 0.70706 0.26565 0.24045 0.0
O138 O 0.757 0.33827 0.22207 0.0
O139 O 0.72672 0.35892 0.25279 0.0
C140 C 0.74815 0.23198 0.30975 0.0
C141 C 0.80859 0.1707 0.23699 0.0
C142 C 0.85967 0.14195 0.24657 0.0
C143 C 0.839 0.16161 0.25698 0.0
C144 C 0.85014 0.13187 0.21552 0.0
C145 C 0.79945 0.16084 0.20577 0.0
C146 C 0.8203 0.14169 0.19506 0.0
C147 C 0.81196 0.30657 0.31239 0.0
C148 C 0.78621 0.19027 0.2484 0.0
C149 C 0.9377 0.26674 0.2461 0.0
C150 C 0.94306 0.26024 0.28056 0.0
C151 C 0.78478 0.3249 0.22434 0.0
C152 C 0.77759 0.40109 0.26918 0.0
C153 C 0.77668 0.41987 0.23692 0.0
C154 C 0.80593 0.44606 0.22651 0.0
C155 C 0.83626 0.45504 0.24897 0.0
C156 C 0.80807 0.41019 0.29176 0.0
C157 C 0.83722 0.43705 0.28163 0.0
C158 C 0.72117 0.25397 0.21912 0.0
C159 C 0.7476 0.3708 0.2777 0.0
H160 H 0.84601 0.16874 0.28127 0.0
H161 H 0.86557 0.11631 0.20728 0.0
H162 H 0.7761 0.16779 0.1898 0.0
H163 H 0.813 0.13401 0.17106 0.0
H164 H 0.75307 0.4139 0.21929 0.0
H165 H 0.85892 0.47565 0.24131 0.0
H166 H 0.80947 0.3965 0.31701 0.0
H167 H 0.86066 0.44379 0.29906 0.0
Tb168 Tb 0.77016 0.75711 0.30634 0.0
C169 C 0.86191 0.8638 0.20749 0.0
C170 C 0.82205 0.87967 0.15861 0.0
C171 C 0.87611 0.92235 0.17357 0.0
C172 C 0.83057 0.85538 0.18714 0.0
C173 C 0.88561 0.89703 0.2006 0.0
C174 C 0.84437 0.91364 0.15252 0.0
C175 C 0.92804 0.87598 0.24508 0.0
N176 N 0.87039 0.83823 0.23272 0.0
C177 C 0.90375 0.84331 0.25064 0.0
C178 C 0.91871 0.90319 0.22027 0.0
Tb179 Tb 0.82818 0.78602 0.24134 0.0
N180 N 0.81012 0.82215 0.19377 0.0
C181 C 0.78243 0.81049 0.17094 0.0
C182 C 0.79241 0.86849 0.13631 0.0
C183 C 0.77293 0.83351 0.14222 0.0
H184 H 0.91128 0.82268 0.27009 0.0
H185 H 0.75055 0.82419 0.1247 0.0
H186 H 0.83799 0.93285 0.131 0.0
H187 H 0.95389 0.88016 0.25999 0.0
H188 H 0.76688 0.78363 0.17474 0.0
H189 H 0.85374 0.70953 0.41553 0.0
H190 H 0.78515 0.88623 0.11399 0.0
H191 H 0.6833 0.72768 0.28489 0.0
H192 H 0.83671 0.75271 0.36765 0.0
H193 H 0.638 0.67209 0.29504 0.0
H194 H 0.89374 0.9482 0.16803 0.0
H195 H 0.81488 0.64959 0.42707 0.0
H196 H 0.75877 0.606 0.41123 0.0
H197 H 0.93765 0.92839 0.21587 0.0
H198 H 0.69974 0.59542 0.37769 0.0
N199 N 0.78945 0.71742 0.3505 0.0
C200 C 0.81963 0.72663 0.37179 0.0
C201 C 0.80786 0.66816 0.40531 0.0
C202 C 0.77631 0.65925 0.38433 0.0
C203 C 0.82953 0.7021 0.39912 0.0
C204 C 0.76752 0.68502 0.3572 0.0
H205 H 0.65406 0.62025 0.33455 0.0
N206 N 0.72572 0.70696 0.31626 0.0
C207 C 0.6651 0.67366 0.30748 0.0
C208 C 0.73432 0.67946 0.33915 0.0
C209 C 0.691 0.70515 0.30169 0.0
C210 C 0.67429 0.64442 0.32967 0.0
C211 C 0.70901 0.64745 0.34659 0.0
O212 O 0.72926 0.77941 0.31635 0.0
O213 O 0.78164 0.79223 0.26012 0.0
O214 O 0.83797 0.82888 0.27064 0.0
O215 O 0.82037 0.79403 0.31955 0.0
O216 O 0.72997 0.7799 0.27017 0.0
O217 O 0.77966 0.78294 0.34727 0.0
O218 O 0.87278 0.76738 0.23412 0.0
O219 O 0.81489 0.74787 0.28586 0.0
O220 O 0.75386 0.71665 0.27483 0.0
O221 O 0.77859 0.74859 0.22704 0.0
O222 O 0.86784 0.76683 0.28044 0.0
O223 O 0.82272 0.75674 0.20325 0.0
C224 C 0.75039 0.79801 0.24867 0.0
C225 C 0.72856 0.78137 0.37218 0.0
C226 C 0.6961 0.80039 0.40868 0.0
C227 C 0.71465 0.80787 0.38082 0.0
C228 C 0.69205 0.766 0.4278 0.0
C229 C 0.72403 0.74732 0.39159 0.0
C230 C 0.70593 0.73976 0.41927 0.0
C231 C 0.83817 0.82367 0.30303 0.0
C232 C 0.74763 0.78965 0.34288 0.0
C233 C 0.71864 0.62036 0.37176 0.0
C234 C 0.75224 0.62636 0.39081 0.0
C235 C 0.8464 0.74494 0.29925 0.0
C236 C 0.87532 0.75977 0.18009 0.0
C237 C 0.88278 0.73092 0.16917 0.0
C238 C 0.9015 0.73665 0.1416 0.0
C239 C 0.91261 0.77187 0.12535 0.0
C240 C 0.88652 0.7945 0.16336 0.0
C241 C 0.90507 0.80045 0.13614 0.0
C242 C 0.75687 0.72136 0.24304 0.0
C243 C 0.8559 0.75312 0.20897 0.0
H244 H 0.71782 0.83408 0.36557 0.0
H245 H 0.67842 0.75945 0.44961 0.0
H246 H 0.73455 0.72663 0.38543 0.0
H247 H 0.70267 0.71344 0.43422 0.0
H248 H 0.87366 0.70407 0.18195 0.0
H249 H 0.92763 0.77748 0.10451 0.0
H250 H 0.88106 0.81697 0.1714 0.0
H251 H 0.91384 0.82736 0.12343 0.0
Tb252 Tb 0.31891 0.72037 0.2815 0.0
C253 C 0.2433 0.83427 0.19195 0.0
C254 C 0.28916 0.88739 0.18047 0.0
C255 C 0.23547 0.8767 0.14138 0.0
C256 C 0.27645 0.85467 0.20057 0.0
C257 C 0.22207 0.84521 0.16249 0.0
C258 C 0.26891 0.89788 0.15045 0.0
C259 C 0.17466 0.79518 0.17862 0.0
N260 N 0.23103 0.80461 0.21345 0.0
C261 C 0.19655 0.78572 0.20773 0.0
C262 C 0.18761 0.82484 0.15571 0.0
Tb263 Tb 0.2691 0.79077 0.26033 0.0
N264 N 0.29498 0.84372 0.22988 0.0
C265 C 0.32586 0.86545 0.24121 0.0
C266 C 0.32104 0.90925 0.19177 0.0
C267 C 0.33949 0.89822 0.22227 0.0
H268 H 0.18601 0.76266 0.22502 0.0
H269 H 0.3641 0.91506 0.23137 0.0
H270 H 0.27846 0.92272 0.1345 0.0
H271 H 0.1478 0.77955 0.17389 0.0
H272 H 0.34053 0.85772 0.26473 0.0
H273 H 0.2191 0.59981 0.31102 0.0
H274 H 0.33107 0.93508 0.17758 0.0
H275 H 0.40129 0.74603 0.31854 0.0
H276 H 0.24749 0.65382 0.27548 0.0
H277 H 0.43585 0.73146 0.37287 0.0
H278 H 0.2197 0.88545 0.11852 0.0
H279 H 0.24646 0.58364 0.36828 0.0
H280 H 0.29678 0.59735 0.41331 0.0
H281 H 0.17051 0.83224 0.13329 0.0
H282 H 0.35594 0.6334 0.43031 0.0
N283 N 0.29024 0.66921 0.31238 0.0
C284 C 0.25987 0.64734 0.30036 0.0
C285 C 0.25883 0.60773 0.35291 0.0
C286 C 0.29076 0.62928 0.36464 0.0
C287 C 0.24352 0.61661 0.32051 0.0
C288 C 0.30618 0.6599 0.34334 0.0
H289 H 0.40837 0.68323 0.41516 0.0
N290 N 0.35428 0.70712 0.33026 0.0
C291 C 0.40872 0.7167 0.36753 0.0
C292 C 0.33947 0.67964 0.35269 0.0
C293 C 0.38911 0.72477 0.33671 0.0
C294 C 0.39306 0.68956 0.39139 0.0
C295 C 0.35827 0.67014 0.38388 0.0
O296 O 0.36451 0.71079 0.26604 0.0
O297 O 0.31318 0.77077 0.25079 0.0
O298 O 0.26164 0.76587 0.21712 0.0
O299 O 0.27292 0.71024 0.24289 0.0
O300 O 0.36403 0.76345 0.26504 0.0
O301 O 0.31187 0.67961 0.25385 0.0
O302 O 0.22439 0.79323 0.28184 0.0
O303 O 0.27511 0.74038 0.29148 0.0
O304 O 0.3267 0.74707 0.32383 0.0
O305 O 0.31655 0.80254 0.29694 0.0
O306 O 0.22441 0.74643 0.274 0.0
O307 O 0.2739 0.83188 0.28713 0.0
C308 C 0.34559 0.78564 0.24781 0.0
C309 C 0.36074 0.65123 0.26029 0.0
C310 C 0.38703 0.60809 0.2427 0.0
C311 C 0.3731 0.63942 0.2355 0.0
C312 C 0.38792 0.5887 0.27501 0.0
C313 C 0.36221 0.63146 0.29227 0.0
C314 C 0.37563 0.60037 0.29953 0.0
C315 C 0.25887 0.73152 0.21761 0.0
C316 C 0.34614 0.68392 0.25248 0.0
C317 C 0.34213 0.64097 0.40606 0.0
C318 C 0.30844 0.62048 0.3964 0.0
C319 C 0.24255 0.72487 0.29271 0.0
C320 C 0.21979 0.8498 0.28845 0.0
C321 C 0.20094 0.85154 0.31383 0.0
C322 C 0.18048 0.87778 0.31008 0.0
C323 C 0.17894 0.90197 0.28014 0.0
C324 C 0.21785 0.87408 0.25887 0.0
C325 C 0.1974 0.89997 0.25475 0.0
C326 C 0.33042 0.78164 0.32252 0.0
C327 C 0.24066 0.82194 0.29333 0.0
H328 H 0.3723 0.65485 0.21081 0.0
H329 H 0.39779 0.56421 0.28131 0.0
H330 H 0.35295 0.63994 0.31162 0.0
H331 H 0.37644 0.5852 0.32428 0.0
H332 H 0.20216 0.83231 0.33646 0.0
H333 H 0.16415 0.923 0.27653 0.0
H334 H 0.23214 0.87311 0.23906 0.0
H335 H 0.19613 0.91881 0.23192 0.0
Tb336 Tb 0.33519 0.70782 0.77681 0.0
C337 C 0.1957 0.73494 0.80774 0.0
C338 C 0.14819 0.73325 0.76197 0.0
C339 C 0.13328 0.72396 0.81767 0.0
C340 C 0.18498 0.73793 0.77436 0.0
C341 C 0.17002 0.72922 0.82972 0.0
C342 C 0.12237 0.72542 0.7839 0.0
C343 C 0.21875 0.7366 0.87357 0.0
N344 N 0.23143 0.7405 0.81841 0.0
C345 C 0.24314 0.74218 0.85083 0.0
C346 C 0.18204 0.7302 0.86298 0.0
Tb347 Tb 0.26913 0.75809 0.77845 0.0
N348 N 0.21077 0.74767 0.75392 0.0
C349 C 0.20146 0.75478 0.72051 0.0
C350 C 0.13856 0.73811 0.72787 0.0
C351 C 0.16535 0.74917 0.70705 0.0
H352 H 0.27132 0.74795 0.85963 0.0
H353 H 0.15823 0.7538 0.68063 0.0
H354 H 0.09398 0.72174 0.77489 0.0
H355 H 0.22837 0.73775 0.8992 0.0
H356 H 0.22194 0.76378 0.70414 0.0
H357 H 0.4428 0.70405 0.87741 0.0
H358 H 0.11059 0.73449 0.71741 0.0
H359 H 0.33641 0.72469 0.69546 0.0
H360 H 0.37976 0.6951 0.85192 0.0
H361 H 0.38143 0.74349 0.65687 0.0
H362 H 0.11315 0.71923 0.83422 0.0
H363 H 0.49205 0.72843 0.84265 0.0
H364 H 0.51108 0.74942 0.78594 0.0
H365 H 0.16328 0.72677 0.88055 0.0
H366 H 0.49433 0.75983 0.72589 0.0
N367 N 0.3929 0.71515 0.80306 0.0
C368 C 0.40093 0.70569 0.8364 0.0
C369 C 0.46438 0.72468 0.83131 0.0
C370 C 0.45606 0.73273 0.79714 0.0
C371 C 0.43666 0.71084 0.851 0.0
C372 C 0.41961 0.72748 0.78365 0.0
H373 H 0.44617 0.75655 0.67768 0.0
N374 N 0.37473 0.72775 0.73836 0.0
C375 C 0.38992 0.74113 0.68305 0.0
C376 C 0.41018 0.73377 0.75009 0.0
C377 C 0.36436 0.73034 0.70523 0.0
C378 C 0.42639 0.74861 0.69484 0.0
C379 C 0.43697 0.74484 0.72874 0.0
O380 O 0.3201 0.66849 0.74655 0.0
O381 O 0.28627 0.70895 0.79494 0.0
O382 O 0.31223 0.76176 0.82072 0.0
O383 O 0.36175 0.75293 0.80108 0.0
O384 O 0.31778 0.67917 0.82534 0.0
O385 O 0.34793 0.65804 0.79537 0.0
O386 O 0.28482 0.79947 0.80619 0.0
O387 O 0.31841 0.7581 0.76012 0.0
O388 O 0.2939 0.70616 0.73394 0.0
O389 O 0.2438 0.71165 0.75462 0.0
O390 O 0.28388 0.7854 0.72961 0.0
O391 O 0.2531 0.80614 0.75852 0.0
C392 C 0.28798 0.68922 0.82261 0.0
C393 C 0.29964 0.61285 0.78 0.0
C394 C 0.27275 0.56858 0.82388 0.0
C395 C 0.30147 0.59487 0.81252 0.0
C396 C 0.24216 0.55846 0.80206 0.0
C397 C 0.26894 0.60259 0.75803 0.0
C398 C 0.24041 0.57545 0.76906 0.0
C399 C 0.34752 0.76512 0.82194 0.0
C400 C 0.32853 0.64403 0.77084 0.0
C401 C 0.47338 0.75099 0.74191 0.0
C402 C 0.48291 0.74507 0.77608 0.0
C403 C 0.31466 0.77741 0.73213 0.0
C404 C 0.29324 0.85663 0.77263 0.0
C405 C 0.27538 0.8841 0.75842 0.0
C406 C 0.29353 0.916 0.74136 0.0
C407 C 0.33064 0.92131 0.74032 0.0
C408 C 0.33044 0.86197 0.77197 0.0
C409 C 0.34915 0.89457 0.75629 0.0
C410 C 0.25861 0.70045 0.73335 0.0
C411 C 0.2709 0.82155 0.78277 0.0
H412 H 0.32528 0.60181 0.82967 0.0
H413 H 0.2199 0.53781 0.81049 0.0
H414 H 0.2668 0.6157 0.7326 0.0
H415 H 0.21677 0.56787 0.75207 0.0
H416 H 0.24639 0.87927 0.7578 0.0
H417 H 0.34489 0.94546 0.72635 0.0
H418 H 0.34464 0.8407 0.78235 0.0
H419 H 0.37768 0.89848 0.75518 0.0
Tb420 Tb 0.25447 0.24396 0.80369 0.0
C421 C 0.34659 0.3494 0.70295 0.0
C422 C 0.30502 0.36808 0.65671 0.0
C423 C 0.36235 0.40764 0.66886 0.0
C424 C 0.31355 0.34322 0.68474 0.0
C425 C 0.37186 0.38132 0.69492 0.0
C426 C 0.32901 0.40089 0.64955 0.0
C427 C 0.41563 0.35627 0.73516 0.0
N428 N 0.35517 0.3225 0.72659 0.0
C429 C 0.38984 0.3248 0.74145 0.0
C430 C 0.40645 0.38493 0.71212 0.0
Tb431 Tb 0.31089 0.27237 0.73731 0.0
N432 N 0.29165 0.31093 0.69216 0.0
C433 C 0.26174 0.30091 0.67085 0.0
C434 C 0.2739 0.35824 0.63553 0.0
C435 C 0.25223 0.32442 0.64256 0.0
H436 H 0.3976 0.30264 0.75876 0.0
H437 H 0.22844 0.3162 0.62598 0.0
H438 H 0.32264 0.42057 0.62843 0.0
H439 H 0.44267 0.35823 0.74781 0.0
H440 H 0.24488 0.27476 0.67535 0.0
H441 H 0.33465 0.2073 0.9192 0.0
H442 H 0.26728 0.37595 0.61299 0.0
H443 H 0.172 0.20559 0.77515 0.0
H444 H 0.31729 0.24729 0.86908 0.0
H445 H 0.1306 0.14727 0.78542 0.0
H446 H 0.38122 0.43249 0.66245 0.0
H447 H 0.30043 0.14519 0.93082 0.0
H448 H 0.24807 0.09781 0.91451 0.0
H449 H 0.42662 0.40906 0.70681 0.0
H450 H 0.1923 0.08131 0.87786 0.0
N451 N 0.27388 0.20832 0.85096 0.0
C452 C 0.30197 0.22035 0.87328 0.0
C453 C 0.29281 0.16263 0.90843 0.0
C454 C 0.26301 0.15095 0.8865 0.0
C455 C 0.31206 0.19766 0.90201 0.0
C456 C 0.25388 0.1749 0.85793 0.0
H457 H 0.14791 0.09982 0.8299 0.0
N458 N 0.21328 0.19108 0.81257 0.0
C459 C 0.15641 0.15209 0.80033 0.0
C460 C 0.2224 0.16589 0.83789 0.0
C461 C 0.17994 0.18521 0.79469 0.0
C462 C 0.16633 0.12534 0.82534 0.0
C463 C 0.19935 0.13231 0.84499 0.0
O464 O 0.20921 0.2607 0.81209 0.0
O465 O 0.2667 0.28166 0.75855 0.0
O466 O 0.32735 0.31335 0.76835 0.0
O467 O 0.30396 0.28191 0.81693 0.0
O468 O 0.21398 0.26355 0.76559 0.0
O469 O 0.26001 0.2733 0.84166 0.0
O470 O 0.35166 0.25027 0.72684 0.0
O471 O 0.30038 0.23791 0.78395 0.0
O472 O 0.24543 0.20101 0.77505 0.0
O473 O 0.2597 0.23626 0.72531 0.0
O474 O 0.35166 0.24987 0.77305 0.0
O475 O 0.29986 0.24374 0.69816 0.0
C476 C 0.23499 0.28493 0.74608 0.0
C477 C 0.20787 0.26738 0.86657 0.0
C478 C 0.17642 0.28727 0.90327 0.0
C479 C 0.19341 0.29382 0.87456 0.0
C480 C 0.17425 0.25363 0.92371 0.0
C481 C 0.20493 0.23404 0.88711 0.0
C482 C 0.18823 0.22726 0.91554 0.0
C483 C 0.32521 0.30898 0.80029 0.0
C484 C 0.22631 0.27527 0.83699 0.0
C485 C 0.20944 0.10739 0.87213 0.0
C486 C 0.2412 0.11676 0.89296 0.0
C487 C 0.33162 0.23204 0.79493 0.0
C488 C 0.34941 0.24437 0.67158 0.0
C489 C 0.36161 0.21668 0.66319 0.0
C490 C 0.37864 0.22242 0.63464 0.0
C491 C 0.38284 0.25626 0.61449 0.0
C492 C 0.354 0.27787 0.65119 0.0
C493 C 0.37056 0.28369 0.62275 0.0
C494 C 0.24262 0.20677 0.74258 0.0
C495 C 0.33214 0.23783 0.70173 0.0
H496 H 0.19528 0.31936 0.85826 0.0
H497 H 0.16227 0.24776 0.94639 0.0
H498 H 0.21569 0.21334 0.88134 0.0
H499 H 0.18636 0.20154 0.93147 0.0
H500 H 0.35843 0.19092 0.67921 0.0
H501 H 0.39542 0.26146 0.59218 0.0
H502 H 0.34482 0.29947 0.65722 0.0
H503 H 0.37393 0.30959 0.60705 0.0
Tb504 Tb 0.81238 0.23081 0.77312 0.0
C505 C 0.76331 0.35567 0.69902 0.0
C506 C 0.81966 0.39875 0.6983 0.0
C507 C 0.77297 0.40339 0.65193 0.0
C508 C 0.7974 0.36786 0.7137 0.0
C509 C 0.75014 0.37407 0.66849 0.0
C510 C 0.80762 0.41587 0.66693 0.0
C511 C 0.69112 0.33803 0.67627 0.0
N512 N 0.74164 0.32852 0.71665 0.0
C513 C 0.70532 0.3214 0.70683 0.0
C514 C 0.7138 0.36401 0.65666 0.0
Tb515 Tb 0.76763 0.30188 0.76616 0.0
N516 N 0.80767 0.35094 0.74424 0.0
C517 C 0.8393 0.36489 0.76155 0.0
C518 C 0.85261 0.41236 0.7155 0.0
C519 C 0.86225 0.39558 0.74744 0.0
H520 H 0.68755 0.30168 0.72216 0.0
H521 H 0.88739 0.40623 0.76121 0.0
H522 H 0.82431 0.4396 0.65467 0.0
H523 H 0.66266 0.33111 0.66806 0.0
H524 H 0.84711 0.35264 0.7863 0.0
H525 H 0.78122 0.12885 0.69792 0.0
H526 H 0.87034 0.43623 0.70474 0.0
H527 H 0.81726 0.22428 0.85416 0.0
H528 H 0.8067 0.18891 0.71138 0.0
H529 H 0.80407 0.1774 0.90185 0.0
H530 H 0.76348 0.41768 0.62832 0.0
H531 H 0.75318 0.08062 0.73991 0.0
H532 H 0.7412 0.05985 0.79888 0.0
H533 H 0.70264 0.37741 0.63329 0.0
H534 H 0.74956 0.07272 0.85511 0.0
N535 N 0.78887 0.17602 0.7587 0.0
C536 C 0.79304 0.1684 0.72926 0.0
C537 C 0.76327 0.10721 0.74549 0.0
C538 C 0.76295 0.11421 0.77688 0.0
C539 C 0.7791 0.13432 0.72174 0.0
C540 C 0.77632 0.14933 0.78277 0.0
H541 H 0.77706 0.11566 0.89384 0.0
N542 N 0.79585 0.19038 0.8188 0.0
C543 C 0.79694 0.17128 0.87725 0.0
C544 C 0.78055 0.15664 0.81411 0.0
C545 C 0.80434 0.19793 0.84997 0.0
C546 C 0.78108 0.13657 0.87264 0.0
C547 C 0.77213 0.12893 0.8408 0.0
O548 O 0.85701 0.21267 0.8016 0.0
O549 O 0.81416 0.28729 0.75371 0.0
O550 O 0.74429 0.27358 0.72482 0.0
O551 O 0.76272 0.21898 0.73946 0.0
O552 O 0.8191 0.25464 0.7224 0.0
O553 O 0.8563 0.22952 0.74961 0.0
O554 O 0.72208 0.3137 0.78 0.0
O555 O 0.77356 0.24958 0.79356 0.0
O556 O 0.84399 0.26639 0.80634 0.0
O557 O 0.80367 0.29946 0.81225 0.0
O558 O 0.72249 0.25824 0.77931 0.0
O559 O 0.7749 0.34065 0.79614 0.0
C560 C 0.81936 0.28692 0.72441 0.0
C561 C 0.88241 0.18021 0.77269 0.0
C562 C 0.90882 0.1482 0.74161 0.0
C563 C 0.90128 0.18009 0.74657 0.0
C564 C 0.89726 0.11649 0.76344 0.0
C565 C 0.8716 0.14816 0.79421 0.0
C566 C 0.87903 0.1166 0.78954 0.0
C567 C 0.74302 0.24077 0.72055 0.0
C568 C 0.87237 0.21337 0.77599 0.0
C569 C 0.75674 0.09425 0.83495 0.0
C570 C 0.75189 0.08694 0.80294 0.0
C571 C 0.7405 0.23484 0.79492 0.0
C572 C 0.72884 0.37272 0.78899 0.0
C573 C 0.71402 0.38301 0.81321 0.0
C574 C 0.7029 0.41584 0.807 0.0
C575 C 0.70701 0.43812 0.77629 0.0
C576 C 0.73288 0.39568 0.75877 0.0
C577 C 0.72193 0.42806 0.75244 0.0
C578 C 0.83409 0.28829 0.82142 0.0
C579 C 0.7408 0.33854 0.7958 0.0
H580 H 0.9098 0.20481 0.73005 0.0
H581 H 0.90156 0.09127 0.76 0.0
H582 H 0.85689 0.14726 0.81437 0.0
H583 H 0.87015 0.09197 0.80598 0.0
H584 H 0.71095 0.36543 0.83669 0.0
H585 H 0.69928 0.46369 0.77089 0.0
H586 H 0.74477 0.38885 0.74014 0.0
H587 H 0.72529 0.44558 0.72902 0.0
Tb588 Tb 0.77382 0.72375 0.74358 0.0
C589 C 0.882 0.81847 0.82818 0.0
C590 C 0.8914 0.77857 0.87949 0.0
C591 C 0.93971 0.82786 0.86223 0.0
C592 C 0.86963 0.78866 0.85011 0.0
C593 C 0.91674 0.83927 0.8344 0.0
C594 C 0.92699 0.7975 0.88484 0.0
C595 C 0.90124 0.88349 0.78823 0.0
N596 N 0.85846 0.82904 0.80243 0.0
C597 C 0.8669 0.86204 0.78349 0.0
C598 C 0.92654 0.87175 0.81344 0.0
Tb599 Tb 0.8036 0.79127 0.79452 0.0
N600 N 0.83491 0.7718 0.84419 0.0
C601 C 0.81936 0.74643 0.86833 0.0
C602 C 0.87611 0.75115 0.90332 0.0
C603 C 0.83977 0.73537 0.89791 0.0
H604 H 0.84757 0.87129 0.76384 0.0
H605 H 0.82741 0.71469 0.91651 0.0
H606 H 0.94435 0.7898 0.90699 0.0
H607 H 0.90812 0.90906 0.77245 0.0
H608 H 0.79142 0.73375 0.86483 0.0
H609 H 0.74684 0.79629 0.62038 0.0
H610 H 0.89165 0.74308 0.92649 0.0
H611 H 0.72734 0.64902 0.7836 0.0
H612 H 0.78435 0.77963 0.672 0.0
H613 H 0.66618 0.61212 0.77778 0.0
H614 H 0.9667 0.84316 0.86725 0.0
H615 H 0.68302 0.76589 0.61184 0.0
H616 H 0.63179 0.71826 0.63293 0.0
H617 H 0.95299 0.88855 0.8173 0.0
H618 H 0.60981 0.66798 0.67572 0.0
N619 N 0.74221 0.74028 0.69347 0.0
C620 C 0.75669 0.76577 0.66886 0.0
C621 C 0.6994 0.75832 0.63468 0.0
C622 C 0.68523 0.73097 0.65917 0.0
C623 C 0.73544 0.77544 0.63938 0.0
C624 C 0.70773 0.72223 0.68844 0.0
H625 H 0.62256 0.62795 0.72974 0.0
N626 N 0.71846 0.68608 0.73956 0.0
C627 C 0.67403 0.63516 0.75921 0.0
C628 C 0.69542 0.69403 0.71228 0.0
C629 C 0.70877 0.65614 0.76236 0.0
C630 C 0.64947 0.64422 0.73208 0.0
C631 C 0.66019 0.67367 0.70792 0.0
O632 O 0.79106 0.67563 0.75024 0.0
O633 O 0.81123 0.74143 0.78505 0.0
O634 O 0.84765 0.79691 0.76514 0.0
O635 O 0.81843 0.76429 0.7238 0.0
O636 O 0.78583 0.68925 0.79069 0.0
O637 O 0.79725 0.71355 0.70527 0.0
O638 O 0.78984 0.84016 0.7949 0.0
O639 O 0.76893 0.77485 0.75184 0.0
O640 O 0.72778 0.72675 0.76575 0.0
O641 O 0.7588 0.7481 0.81236 0.0
O642 O 0.78977 0.82761 0.74896 0.0
O643 O 0.77145 0.79367 0.82969 0.0
C644 C 0.80986 0.71199 0.80479 0.0
C645 C 0.793 0.65256 0.70328 0.0
C646 C 0.81383 0.60845 0.68173 0.0
C647 C 0.82107 0.63926 0.69613 0.0
C648 C 0.77772 0.59138 0.67449 0.0
C649 C 0.7573 0.63542 0.69544 0.0
C650 C 0.74977 0.60497 0.68109 0.0
C651 C 0.84606 0.78671 0.73647 0.0
C652 C 0.80192 0.68247 0.72136 0.0
C653 C 0.63712 0.68306 0.67943 0.0
C654 C 0.64962 0.71168 0.65508 0.0
C655 C 0.76887 0.80458 0.73288 0.0
C656 C 0.78104 0.84876 0.84706 0.0
C657 C 0.7538 0.86173 0.85643 0.0
C658 C 0.7611 0.88 0.88328 0.0
C659 C 0.79607 0.88558 0.90016 0.0
C660 C 0.8157 0.8548 0.86425 0.0
C661 C 0.82315 0.87321 0.89057 0.0
C662 C 0.72919 0.73143 0.79624 0.0
C663 C 0.77265 0.82758 0.82046 0.0
H664 H 0.84856 0.6531 0.70182 0.0
H665 H 0.77095 0.56729 0.66401 0.0
H666 H 0.73534 0.64515 0.70086 0.0
H667 H 0.72216 0.59159 0.6754 0.0
H668 H 0.72687 0.85685 0.84343 0.0
H669 H 0.8025 0.89976 0.92072 0.0
H670 H 0.83692 0.84505 0.85755 0.0
H671 H 0.84997 0.8777 0.90373 0.0
Fe672 Fe 0.04214 0.06274 0.51718 0.0
O673 O 1.01251 0.01538 0.53449 0.0
Fe674 Fe 0.12289 0.0427 0.50946 0.0
Fe675 Fe 0.95961 1.00457 0.52448 0.0
O676 O 0.07055 0.03377 0.50256 0.0
O677 O 0.07014 0.03027 0.502 0.0
O678 O 1.01235 0.01185 0.53439 0.0
Fe679 Fe 0.04187 0.98275 0.5209 0.0
C680 C 0.98248 0.07214 0.55465 0.0
O681 O 1.01234 0.06318 0.47259 0.0
O682 O 0.95731 0.04773 0.48684 0.0
O683 O 0.07641 0.9592 0.50177 0.0
O684 O 0.11636 1.00768 0.4777 0.0
O685 O 0.11778 0.08758 0.47571 0.0
O686 O 0.07587 0.10913 0.49501 0.0
O687 O 0.95537 0.97345 0.48922 0.0
O688 O 1.0105 0.98022 0.47607 0.0
C689 C 0.10084 0.11219 0.47645 0.0
O690 O 0.07441 0.98382 0.56577 0.0
O691 O 0.12654 0.99951 0.54535 0.0
O692 O 1.00797 0.08681 0.53598 0.0
O693 O 0.96458 0.03946 0.55629 0.0
C694 C 0.97882 0.05997 0.46526 0.0
C695 C 0.97653 0.97181 0.46952 0.0
C696 C 0.98042 0.93434 0.56021 0.0
O697 O 0.96284 0.95922 0.55861 0.0
O698 O 1.00761 0.93691 0.54415 0.0
C699 C 0.09967 0.97446 0.48086 0.0
O700 O 0.12763 0.07392 0.54504 0.0
O701 O 0.07356 0.0634 0.56174 0.0
C702 C 0.10861 0.98917 0.56959 0.0
C703 C 0.10745 0.07427 0.56622 0.0
Fe704 Fe 0.53978 0.96934 0.02337 0.0
O705 O 0.56689 0.0126 0.04199 0.0
Fe706 Fe 0.45713 0.99447 0.99194 0.0
Fe707 Fe 0.61972 0.02747 0.04611 0.0
O708 O 0.51 1.00386 0.997 0.0
O709 O 0.50996 1.00808 0.99604 0.0
O710 O 0.56692 0.01686 0.04094 0.0
Fe711 Fe 0.53718 0.05125 1.01454 0.0
C712 C 0.60271 0.94912 0.07815 0.0
O713 O 0.57215 0.98057 0.98628 0.0
O714 O 0.62594 0.99571 1.01473 0.0
O715 O 0.50054 0.08101 0.983 0.0
O716 O 0.46155 0.03935 0.95519 0.0
O717 O 0.46348 0.95809 0.96551 0.0
O718 O 0.50645 0.92939 0.99784 0.0
O719 O 0.62364 0.06983 1.00702 0.0
O720 O 0.56999 0.06561 0.97683 0.0
C721 C 0.481 0.93244 0.97308 0.0
O722 O 0.50472 0.03993 0.05182 0.0
O723 O 0.45172 0.02818 0.02166 0.0
O724 O 0.57683 0.93977 0.05491 0.0
O725 O 0.61626 0.98185 0.08204 0.0
C726 C 0.6062 0.98439 0.98996 0.0
C727 C 0.60416 0.07613 0.97963 0.0
C728 C 0.59462 0.08808 0.06543 0.0
O729 O 0.61225 0.06249 0.07366 0.0
O730 O 0.57016 0.09124 0.0399 0.0
C731 C 0.47511 0.07201 0.95936 0.0
O732 O 0.45252 0.95334 0.03222 0.0
O733 O 0.50703 0.95471 0.06092 0.0
C734 C 0.471 0.03856 0.04697 0.0
C735 C 0.47279 0.94529 0.05872 0.0
Fe736 Fe 0.04233 0.5512 1.01407 0.0
O737 O 1.00843 0.50755 1.00186 0.0
Fe738 Fe 0.11909 0.51706 0.0501 0.0
Fe739 Fe 0.95584 0.50068 0.99828 0.0
O740 O 0.06706 0.51518 0.04529 0.0
O741 O 0.06638 0.51086 0.04727 0.0
O742 O 1.0079 0.50363 1.00359 0.0
Fe743 Fe 1.0334 0.46742 0.03332 0.0
C744 C 0.9795 0.55411 0.04648 0.0
O745 O 1.00987 0.58299 0.97924 0.0
O746 O 0.96387 0.54143 0.95789 0.0
O747 O 0.06372 0.46969 0.99634 0.0
O748 O 0.11721 0.47571 0.02602 0.0
O749 O 0.12677 0.55187 1.00643 0.0
O750 O 0.07316 0.55333 0.97681 0.0
O751 O 0.95658 0.45863 0.97607 0.0
O752 O 0.9955 0.42742 1.01207 0.0
C753 C 0.10736 0.55776 0.979 0.0
O754 O 0.06679 0.43562 0.06752 0.0
O755 O 0.11062 0.47744 0.09098 0.0
O756 O 1.01253 0.55234 0.0503 0.0
O757 O 0.95679 0.54034 0.02444 0.0
C758 C 0.98185 0.57394 0.95788 0.0
C759 C 0.97145 0.43119 0.98638 0.0
C760 C 0.96739 0.45646 0.0683 0.0
O761 O 0.94809 0.46397 0.04108 0.0
O762 O 1.00169 0.46184 0.0707 0.0
C763 C 0.09567 0.46465 1.00213 0.0
O764 O 0.12068 0.56131 0.06999 0.0
O765 O 0.08173 0.59166 0.03296 0.0
C766 C 0.09399 0.44468 0.08978 0.0
C767 C 0.10768 0.58948 0.05715 0.0
Fe768 Fe 0.52929 0.51455 0.98597 0.0
O769 O 0.55969 0.54676 1.01557 0.0
Fe770 Fe 0.47787 0.44935 0.03957 0.0
Fe771 Fe 0.60719 0.57528 1.0061 0.0
O772 O 0.52371 0.47866 0.02719 0.0
O773 O 0.52521 0.4781 0.03003 0.0
O774 O 0.56111 0.54626 1.01846 0.0
Fe775 Fe 0.55558 0.51027 0.05966 0.0
C776 C 0.60047 0.5149 0.96727 0.0
O777 O 0.54044 0.5563 0.94594 0.0
O778 O 0.57591 0.60271 0.96975 0.0
O779 O 0.51186 0.52847 0.0659 0.0
O780 O 0.47334 0.47662 0.07594 0.0
O781 O 0.44789 0.4807 1.00691 0.0
O782 O 0.48444 0.53258 0.99002 0.0
O783 O 0.60464 0.59849 0.0459 0.0
O784 O 0.58812 0.54893 0.08531 0.0
C785 C 0.4532 0.51353 0.994 0.0
O786 O 0.54473 0.46818 0.09957 0.0
O787 O 0.50947 0.42183 0.07547 0.0
O788 O 0.57288 0.49605 0.97999 0.0
O789 O 0.61196 0.54754 0.97017 0.0
C790 C 0.55719 0.5895 0.94471 0.0
C791 C 0.60211 0.58254 0.07629 0.0
C792 C 0.63169 0.5114 0.05222 0.0
O793 O 0.6371 0.54421 0.0393 0.0
O794 O 0.60034 0.49232 0.05541 0.0
C795 C 0.48452 0.50929 0.07885 0.0
O796 O 0.48009 0.42643 0.99944 0.0
O797 O 0.49681 0.47608 0.96027 0.0
C798 C 0.52842 0.43487 0.10052 0.0
C799 C 0.48266 0.44253 0.96909 0.0
Fe800 Fe 0.04915 0.43257 0.52299 0.0
O801 O 0.05744 0.48445 0.52086 0.0
Fe802 Fe 1.03331 0.51492 0.47761 0.0
Fe803 Fe 0.0445 0.50518 0.55598 0.0
O804 O 0.05615 0.48479 0.51678 0.0
O805 O 1.02033 0.53568 0.51276 0.0
O806 O 1.02172 0.5354 0.51685 0.0
Fe807 Fe 1.02925 0.58766 0.51107 0.0
C808 C 0.99306 0.4353 0.56684 0.0
O809 O 0.09093 0.43767 0.56026 0.0
O810 O 0.07264 0.46989 0.59221 0.0
O811 O 0.06342 0.60108 0.47441 0.0
O812 O 0.08161 0.55137 0.47545 0.0
O813 O 0.0529 0.4889 0.44698 0.0
O814 O 0.07872 0.44619 0.48374 0.0
O815 O 0.09271 0.54184 0.55721 0.0
O816 O 0.07281 0.59233 0.54642 0.0
C817 C 0.07356 0.46557 0.45482 0.0
O818 O 0.98767 0.58316 0.47365 0.0
O819 O 1.00515 0.55048 0.44152 0.0
O820 O 1.01523 0.41924 0.55983 0.0
O821 O 0.99637 0.46877 0.55811 0.0
C822 C 0.09296 0.44913 0.58757 0.0
C823 C 0.09648 0.57437 0.55966 0.0
C824 C 1.00453 0.55468 0.57899 0.0
O825 O 1.02506 0.53125 0.58673 0.0
O826 O 0.99938 0.57409 0.55009 0.0
C827 C 0.08535 0.58494 0.46713 0.0
O828 O 0.98504 0.47779 0.47608 0.0
O829 O 1.0053 0.42733 0.4881 0.0
C830 C 0.98527 0.5716 0.44634 0.0
C831 C 0.98133 0.44488 0.47474 0.0
Fe832 Fe 0.53439 0.9664 0.53052 0.0
O833 O 0.55847 1.00821 0.55212 0.0
Fe834 Fe 0.50712 1.00769 0.45077 0.0
Fe835 Fe 0.56157 1.00712 0.59949 0.0
O836 O 0.51064 1.00299 0.4991 0.0
O837 O 0.51124 1.00734 0.49802 0.0
O838 O 0.559 0.01263 0.55103 0.0
Fe839 Fe 0.53514 0.04928 0.51965 0.0
C840 C 0.49428 0.94759 0.59032 0.0
O841 O 0.56481 0.93404 0.56691 0.0
O842 O 0.59556 0.97231 0.60204 0.0
O843 O 0.57695 0.06395 0.49064 0.0
O844 O 0.54732 0.05251 0.4421 0.0
O845 O 0.54415 0.97644 0.45295 0.0
O846 O 0.57589 0.97662 0.50237 0.0
O847 O 0.59729 0.05462 0.58984 0.0
O848 O 0.56466 0.08767 0.54874 0.0
C849 C 0.57176 0.97086 0.47301 0.0
O850 O 0.50469 0.0815 0.48321 0.0
O851 O 0.47356 0.04304 0.4483 0.0
O852 O 0.49224 0.95244 0.55904 0.0
O853 O 0.52159 0.96218 0.60792 0.0
C854 C 0.58967 0.94243 0.59114 0.0
C855 C 0.5895 0.08456 0.57401 0.0
C856 C 0.49701 0.04401 0.57681 0.0
O857 O 0.52423 0.0381 0.59724 0.0
O858 O 0.49337 0.0383 0.54751 0.0
C859 C 0.57434 0.06834 0.45928 0.0
O860 O 0.471 0.9599 0.46094 0.0
O861 O 0.50444 0.92793 0.50242 0.0
C862 C 0.47998 0.07322 0.45882 0.0
C863 C 0.47784 0.93037 0.47886 0.0
C864 C 0.19304 0.25283 0.33382 0.0
C865 C 0.2048 0.22882 0.31968 0.0
C866 C 0.16834 0.24062 0.35694 0.0
C867 C 0.15622 0.20354 0.36682 0.0
C868 C 0.16608 0.1794 0.35074 0.0
C869 C 0.19021 0.19243 0.32724 0.0
C870 C 0.15739 0.26726 0.37248 0.0
C871 C 0.15396 0.13959 0.36056 0.0
C872 C 0.14795 0.16149 0.45521 0.0
C873 C 0.11144 0.14544 0.45357 0.0
C874 C 0.16239 0.18343 0.42767 0.0
C875 C 0.13955 0.1895 0.39781 0.0
C876 C 0.1019 0.17671 0.39722 0.0
C877 C 0.08821 0.15446 0.42524 0.0
C878 C 0.20268 0.1965 0.42961 0.0
C879 C 0.07645 0.1834 0.36625 0.0
H880 H 0.20424 0.28111 0.32774 0.0
H881 H 0.19988 0.17388 0.31692 0.0
H882 H 0.12855 0.25903 0.37613 0.0
H883 H 0.17323 0.26869 0.397 0.0
H884 H 0.16225 0.29434 0.35728 0.0
H885 H 0.16099 0.12474 0.34349 0.0
H886 H 0.16693 0.13088 0.38569 0.0
H887 H 0.12448 0.13227 0.36115 0.0
H888 H 0.1658 0.1541 0.47716 0.0
H889 H 0.05999 0.14154 0.42388 0.0
H890 H 0.20957 0.22525 0.41913 0.0
H891 H 0.2138 0.182 0.41492 0.0
H892 H 0.21611 0.19231 0.45529 0.0
H893 H 0.08577 0.20994 0.35137 0.0
H894 H 0.04891 0.18158 0.37203 0.0
H895 H 0.07494 0.16291 0.35106 0.0
C896 C 0.91296 0.15317 0.28799 0.0
C897 C 0.88855 0.12925 0.27025 0.0
C898 C 0.93267 0.14084 0.31747 0.0
C899 C 0.92772 0.10374 0.32917 0.0
C900 C 0.90631 0.07947 0.3094 0.0
C901 C 0.88681 0.09261 0.27997 0.0
C902 C 0.95551 0.16764 0.33763 0.0
C903 C 0.90127 0.03972 0.32081 0.0
C904 C 0.98736 0.07406 0.40601 0.0
C905 C 0.96512 0.07035 0.43048 0.0
C906 C 0.97527 0.08397 0.37275 0.0
C907 C 0.94032 0.09073 0.36386 0.0
C908 C 0.91758 0.08671 0.38836 0.0
C909 C 0.93019 0.0762 0.42145 0.0
C910 C 1.0001 0.08788 0.34725 0.0
C911 C 0.88023 0.09429 0.37967 0.0
H912 H 0.91442 0.18154 0.28015 0.0
H913 H 0.86785 0.07415 0.26619 0.0
H914 H 0.93958 0.17125 0.35601 0.0
H915 H 0.97983 0.15855 0.35118 0.0
H916 H 0.96406 0.19389 0.32197 0.0
H917 H 0.88839 0.02479 0.3006 0.0
H918 H 0.92743 0.03218 0.33077 0.0
H919 H 0.88396 0.03134 0.34093 0.0
H920 H 1.01431 0.06909 0.41282 0.0
H921 H 0.91296 0.07327 0.44027 0.0
H922 H 1.00645 0.11606 0.33478 0.0
H923 H 0.98671 0.07171 0.32809 0.0
H924 H 1.02573 0.07956 0.35814 0.0
H925 H 0.86589 0.08952 0.40163 0.0
H926 H 0.8641 0.07725 0.36211 0.0
H927 H 0.88179 0.12244 0.36738 0.0
C928 C 0.86567 0.84067 0.35746 0.0
C929 C 0.86147 0.84993 0.32296 0.0
C930 C 0.88704 0.8641 0.37751 0.0
C931 C 0.90508 0.89813 0.36302 0.0
C932 C 0.90145 0.90778 0.3282 0.0
C933 C 0.87943 0.88369 0.30858 0.0
C934 C 0.88992 0.85239 0.41444 0.0
C935 C 0.92006 0.94379 0.31164 0.0
C936 C 0.92571 0.96109 0.42458 0.0
C937 C 0.96066 0.95785 0.43867 0.0
C938 C 0.90848 0.94446 0.39778 0.0
C939 C 0.92626 0.9234 0.38505 0.0
C940 C 0.96246 0.92204 0.39775 0.0
C941 C 0.97933 0.93953 0.42422 0.0
C942 C 0.87029 0.94752 0.38457 0.0
C943 C 0.98263 0.90024 0.38481 0.0
H944 H 0.85208 0.81487 0.36921 0.0
H945 H 0.87601 0.8915 0.28207 0.0
H946 H 0.91852 0.85425 0.42491 0.0
H947 H 0.87898 0.87029 0.42562 0.0
H948 H 0.8751 0.82463 0.4218 0.0
H949 H 0.92005 0.94481 0.28491 0.0
H950 H 0.90598 0.96427 0.31464 0.0
H951 H 0.94822 0.95086 0.32318 0.0
H952 H 0.91141 0.97594 0.43508 0.0
H953 H 1.00648 0.9372 0.43473 0.0
H954 H 0.85181 0.92185 0.39236 0.0
H955 H 0.86692 0.95317 0.35729 0.0
H956 H 0.86218 0.96884 0.39362 0.0
H957 H 0.97031 0.87153 0.39123 0.0
H958 H 1.01142 0.90445 0.3952 0.0
H959 H 0.98075 0.90705 0.35759 0.0
C960 C 0.17945 0.87673 0.37019 0.0
C961 C 0.16233 0.88125 0.33774 0.0
C962 C 0.16504 0.88467 0.3958 0.0
C963 C 0.13308 0.89802 0.38878 0.0
C964 C 0.11426 0.90007 0.35663 0.0
C965 C 0.129 0.89147 0.33156 0.0
C966 C 0.18564 0.8815 0.42986 0.0
C967 C 0.07987 0.91376 0.34819 0.0
C968 C 0.0918 0.91746 0.45844 0.0
C969 C 0.10798 0.95353 0.45825 0.0
C970 C 0.09963 0.89865 0.43612 0.0
C971 C 0.12372 0.91652 0.41287 0.0
C972 C 0.13984 0.95288 0.4125 0.0
C973 C 0.13197 0.97072 0.43515 0.0
C974 C 0.08189 0.85988 0.43725 0.0
C975 C 0.16542 0.97323 0.38797 0.0
H976 H 0.20521 0.86894 0.37539 0.0
H977 H 0.11498 0.89396 0.3068 0.0
H978 H 0.19947 0.90844 0.43476 0.0
H979 H 0.16711 0.8695 0.44875 0.0
H980 H 0.20619 0.86512 0.43266 0.0
H981 H 0.06722 0.91147 0.32268 0.0
H982 H 0.06042 0.89876 0.36547 0.0
H983 H 0.08544 0.94217 0.35085 0.0
H984 H 0.07301 0.90394 0.4759 0.0
H985 H 0.14465 0.99858 0.43437 0.0
H986 H 0.10176 0.84405 0.43587 0.0
H987 H 0.06107 0.85708 0.41572 0.0
H988 H 0.06879 0.84846 0.45995 0.0
H989 H 0.18913 0.9609 0.39126 0.0
H990 H 0.17504 1.00166 0.39051 0.0
H991 H 0.152 0.97207 0.36252 0.0
C992 C 0.24801 0.9537 0.73193 0.0
C993 C 0.27137 0.93894 0.71921 0.0
C994 C 0.21929 0.96616 0.71148 0.0
C995 C 0.21325 0.96232 0.67803 0.0
C996 C 0.23785 0.94887 0.66488 0.0
C997 C 0.26695 0.93781 0.68562 0.0
C998 C 0.19448 0.98158 0.72611 0.0
C999 C 0.23239 0.94435 0.62928 0.0
C1000 C 0.12319 0.95332 0.62494 0.0
C1001 C 0.12953 0.98502 0.60228 0.0
C1002 C 0.14928 0.9464 0.65181 0.0
C1003 C 0.18153 0.97228 0.65617 0.0
C1004 C 0.18587 1.00578 0.63534 0.0
C1005 C 0.16026 1.01135 0.6082 0.0
C1006 C 0.14391 0.91024 0.67357 0.0
C1007 C 0.21919 0.03451 0.63992 0.0
H1008 H 0.25121 0.95385 0.75813 0.0
H1009 H 0.28461 0.92556 0.67611 0.0
H1010 H 0.1862 1.00463 0.70889 0.0
H1011 H 0.16982 0.96104 0.73096 0.0
H1012 H 0.20727 0.99024 0.74972 0.0
H1013 H 0.2537 0.93287 0.62319 0.0
H1014 H 0.20597 0.92658 0.62377 0.0
H1015 H 0.23221 0.97043 0.61289 0.0
H1016 H 0.09956 0.93289 0.62014 0.0
H1017 H 0.16548 0.0356 0.59037 0.0
H1018 H 0.15072 0.91292 0.69985 0.0
H1019 H 0.16223 0.89479 0.66813 0.0
H1020 H 0.11585 0.89494 0.66968 0.0
H1021 H 0.22454 0.03879 0.66582 0.0
H1022 H 0.21681 0.06017 0.62351 0.0
H1023 H 0.24282 0.02614 0.63453 0.0
C1024 C 0.19492 0.19746 0.6961 0.0
C1025 C 0.21564 0.18258 0.72381 0.0
C1026 C 0.1732 0.17643 0.67423 0.0
C1027 C 0.17245 0.13946 0.68 0.0
C1028 C 0.19127 0.12378 0.70931 0.0
C1029 C 0.2126 0.14562 0.73113 0.0
C1030 C 0.15316 0.19433 0.6437 0.0
C1031 C 0.19092 0.08443 0.71647 0.0
C1032 C 0.10358 0.08778 0.62166 0.0
C1033 C 0.12416 0.08876 0.59661 0.0
C1034 C 0.11918 0.10261 0.64988 0.0
C1035 C 0.15619 0.11886 0.65309 0.0
C1036 C 0.17725 0.11899 0.62836 0.0
C1037 C 0.16099 0.10415 0.60046 0.0
C1038 C 0.09578 0.10205 0.67561 0.0
C1039 C 0.21683 0.13601 0.63078 0.0
H1040 H 0.1966 0.22596 0.69089 0.0
H1041 H 0.22846 0.13411 0.75274 0.0
H1042 H 0.16585 0.19411 0.62182 0.0
H1043 H 0.12488 0.17966 0.64008 0.0
H1044 H 0.15328 0.22241 0.6448 0.0
H1045 H 0.20068 0.07533 0.74264 0.0
H1046 H 0.16349 0.06871 0.71052 0.0
H1047 H 0.20867 0.07869 0.70083 0.0
H1048 H 0.07512 0.07591 0.61904 0.0
H1049 H 0.17723 0.10508 0.58137 0.0
H1050 H 0.09134 0.12925 0.67428 0.0
H1051 H 0.10917 0.09375 0.70064 0.0
H1052 H 0.06917 0.08382 0.67208 0.0
H1053 H 0.22053 0.16503 0.63026 0.0
H1054 H 0.22982 0.13218 0.61036 0.0
H1055 H 0.23093 0.12464 0.65445 0.0
C1056 C 0.91898 0.16703 0.68182 0.0
C1057 C 0.92708 0.14712 0.71305 0.0
C1058 C 0.93211 0.1622 0.65397 0.0
C1059 C 0.95322 0.13635 0.65725 0.0
C1060 C 0.96351 0.11802 0.68899 0.0
C1061 C 0.95066 0.12391 0.71644 0.0
C1062 C 0.92134 0.18308 0.62075 0.0
C1063 C 0.98588 0.09014 0.69376 0.0
C1064 C 0.94074 0.08134 0.59015 0.0
C1065 C 0.97365 0.09289 0.57709 0.0
C1066 C 0.93342 0.09631 0.61526 0.0
C1067 C 0.95944 0.12402 0.62761 0.0
C1068 C 0.99196 0.13733 0.61332 0.0
C1069 C 0.99876 0.12152 0.58824 0.0
C1070 C 0.89846 0.08103 0.62976 0.0
C1071 C 1.02014 0.16722 0.6254 0.0
H1072 H 0.90084 0.18508 0.67872 0.0
H1073 H 0.95808 0.10921 0.74054 0.0
H1074 H 0.94429 0.19195 0.60603 0.0
H1075 H 0.89952 0.16583 0.607 0.0
H1076 H 0.91148 0.20679 0.623 0.0
H1077 H 0.99474 0.08102 0.72015 0.0
H1078 H 0.96987 0.06674 0.68316 0.0
H1079 H 1.00997 0.1006 0.68066 0.0
H1080 H 0.92092 0.05956 0.58148 0.0
H1081 H 1.02432 0.13057 0.57844 0.0
H1082 H 0.88387 0.10244 0.62895 0.0
H1083 H 0.90408 0.06889 0.65598 0.0
H1084 H 0.88054 0.06035 0.61659 0.0
H1085 H 1.00768 0.18936 0.62734 0.0
H1086 H 0.04155 0.1777 0.60898 0.0
H1087 H 1.03283 0.15754 0.65035 0.0
C1088 C 0.885 0.78182 0.69625 0.0
C1089 C 0.87542 0.80247 0.71571 0.0
C1090 C 0.90822 0.79746 0.67217 0.0
C1091 C 0.9215 0.83476 0.66695 0.0
C1092 C 0.91365 0.85531 0.68796 0.0
C1093 C 0.89076 0.83886 0.71208 0.0
C1094 C 0.91647 0.77439 0.65092 0.0
C1095 C 0.92688 0.89522 0.68318 0.0
C1096 C 0.9902 0.88776 0.60965 0.0
C1097 C 0.96745 0.90114 0.58273 0.0
C1098 C 0.9758 0.8637 0.6366 0.0
C1099 C 0.93796 0.85326 0.63643 0.0
C1100 C 0.91521 0.86439 0.60792 0.0
C1101 C 0.93027 0.8881 0.58148 0.0
C1102 C 1.00097 0.85178 0.66618 0.0
C1103 C 0.87475 0.85394 0.6064 0.0
H1104 H 0.87332 0.75354 0.69907 0.0
H1105 H 0.88282 0.85508 0.72629 0.0
H1106 H 0.89989 0.77783 0.62663 0.0
H1107 H 0.9451 0.78232 0.64655 0.0
H1108 H 0.91051 0.74572 0.66217 0.0
H1109 H 0.92202 0.90666 0.7038 0.0
H1110 H 0.95604 0.90242 0.68091 0.0
H1111 H 0.91277 0.90772 0.66002 0.0
H1112 H 1.01895 0.89816 0.61082 0.0
H1113 H 0.91271 0.89854 0.56062 0.0
H1114 H 0.99169 0.82316 0.67623 0.0
H1115 H 1.00138 0.8671 0.68579 0.0
H1116 H 1.02885 0.85619 0.66016 0.0
H1117 H 0.86596 0.82469 0.61342 0.0
H1118 H 0.86105 0.86244 0.58151 0.0
H1119 H 0.86573 0.86643 0.62418 0.0
C1120 C 0.3777 0.13795 0.14759 0.0
C1121 C 0.34959 0.11363 0.16254 0.0
C1122 C 0.4018 0.12627 0.1326 0.0
C1123 C 0.39787 0.08937 0.13281 0.0
C1124 C 0.3711 0.06461 0.14993 0.0
C1125 C 0.3472 0.07704 0.1644 0.0
C1126 C 0.42982 0.1536 0.11454 0.0
C1127 C 0.36628 0.02504 0.15129 0.0
C1128 C 0.42003 0.06147 0.05828 0.0
C1129 C 0.45338 0.05194 0.0695 0.0
C1130 C 0.40223 0.07412 0.07851 0.0
C1131 C 0.41781 0.07706 0.11115 0.0
C1132 C 0.45158 0.06768 0.12275 0.0
C1133 C 0.46912 0.05542 0.1017 0.0
C1134 C 0.36653 0.08422 0.06485 0.0
C1135 C 0.4689 0.07015 0.15747 0.0
H1136 H 0.37964 0.16624 0.14599 0.0
H1137 H 0.32589 0.05809 0.17642 0.0
H1138 H 0.45631 0.14586 0.12066 0.0
H1139 H 0.4221 0.155 0.08763 0.0
H1140 H 0.43271 0.18054 0.12042 0.0
H1141 H 0.34726 1.00921 0.16877 0.0
H1142 H 0.35581 0.01844 0.12649 0.0
H1143 H 0.39247 0.01682 0.15867 0.0
H1144 H 0.40777 0.05937 0.03333 0.0
H1145 H 0.49484 0.04809 0.11058 0.0
H1146 H 0.36769 0.11215 0.06709 0.0
H1147 H 0.34518 0.06701 0.07924 0.0
H1148 H 0.35871 0.08155 0.03858 0.0
H1149 H 0.4715 0.09742 0.16238 0.0
H1150 H 0.49593 0.06349 0.16227 0.0
H1151 H 0.45161 0.05164 0.17513 0.0
C1152 C 0.84927 0.35696 0.21988 0.0
C1153 C 0.81568 0.34118 0.20484 0.0
C1154 C 0.87712 0.37664 0.20099 0.0
C1155 C 0.87197 0.37961 0.16615 0.0
C1156 C 0.83831 0.36265 0.15113 0.0
C1157 C 0.81036 0.34492 0.17043 0.0
C1158 C 0.91146 0.3956 0.21826 0.0
C1159 C 0.83182 0.36312 0.11452 0.0
C1160 C 0.92207 0.455 0.10537 0.0
C1161 C 0.94798 0.43938 0.09747 0.0
C1162 C 0.89919 0.43699 0.12938 0.0
C1163 C 0.90074 0.40152 0.14502 0.0
C1164 C 0.92803 0.38633 0.1379 0.0
C1165 C 0.95146 0.40549 0.11459 0.0
C1166 C 0.87233 0.45565 0.1368 0.0
C1167 C 0.9311 0.34885 0.15305 0.0
H1168 H 0.85322 0.35532 0.24635 0.0
H1169 H 0.78433 0.33328 0.15859 0.0
H1170 H 0.93502 0.38823 0.21158 0.0
H1171 H 0.91429 0.42479 0.21013 0.0
H1172 H 0.91209 0.38943 0.24545 0.0
H1173 H 0.8048 0.34764 0.10668 0.0
H1174 H 0.83437 0.39092 0.10109 0.0
H1175 H 0.85247 0.35181 0.10715 0.0
H1176 H 0.91922 0.48127 0.09223 0.0
H1177 H 0.97107 0.39303 0.10828 0.0
H1178 H 0.87002 0.44998 0.16354 0.0
H1179 H 0.84572 0.44581 0.12349 0.0
H1180 H 0.87972 0.48496 0.12874 0.0
H1181 H 0.92795 0.3435 0.17956 0.0
H1182 H 0.95726 0.34326 0.15028 0.0
H1183 H 0.90934 0.33041 0.14051 0.0
C1184 C 0.74708 0.85523 0.20743 0.0
C1185 C 0.73497 0.81843 0.2173 0.0
C1186 C 0.72674 0.87537 0.18228 0.0
C1187 C 0.69256 0.85886 0.16751 0.0
C1188 C 0.68071 0.82159 0.1772 0.0
C1189 C 0.70191 0.80211 0.20162 0.0
C1190 C 0.74147 0.9146 0.1721 0.0
C1191 C 0.64447 0.80242 0.16321 0.0
C1192 C 0.62246 0.91751 0.13472 0.0
C1193 C 0.62118 0.92176 0.10042 0.0
C1194 C 0.64479 0.89667 0.15652 0.0
C1195 C 0.66792 0.88058 0.14407 0.0
C1196 C 0.6666 0.88476 0.10932 0.0
C1197 C 0.64317 0.90492 0.08806 0.0
C1198 C 0.64385 0.89222 0.19306 0.0
C1199 C 0.69115 0.86932 0.09446 0.0
H1200 H 0.77185 0.86848 0.22004 0.0
H1201 H 0.69168 0.77395 0.20968 0.0
H1202 H 0.73956 0.92169 0.14488 0.0
H1203 H 0.72528 0.93018 0.1805 0.0
H1204 H 0.76996 0.9226 0.18259 0.0
H1205 H 0.64 0.77313 0.17172 0.0
H1206 H 0.62299 0.81242 0.17075 0.0
H1207 H 0.64173 0.80785 0.13595 0.0
H1208 H 0.60621 0.93098 0.14457 0.0
H1209 H 0.64338 0.90901 0.06166 0.0
H1210 H 0.67036 0.90464 0.20497 0.0
H1211 H 0.63845 0.86349 0.20406 0.0
H1212 H 0.62299 0.90448 0.19886 0.0
H1213 H 0.71929 0.88341 0.10027 0.0
H1214 H 0.68479 0.872 0.0673 0.0
H1215 H 0.68945 0.84076 0.10518 0.0
C1216 C 0.22423 0.73728 0.16124 0.0
C1217 C 0.23688 0.71562 0.18979 0.0
C1218 C 0.20127 0.72234 0.13573 0.0
C1219 C 0.19139 0.68487 0.13857 0.0
C1220 C 0.20487 0.6629 0.16693 0.0
C1221 C 0.22734 0.67853 0.19218 0.0
C1222 C 0.18736 0.7466 0.10595 0.0
C1223 C 0.19537 0.62275 0.17073 0.0
C1224 C 0.10961 0.63312 0.09299 0.0
C1225 C 0.12573 0.62148 0.07086 0.0
C1226 C 0.13028 0.65643 0.11363 0.0
C1227 C 0.16771 0.66805 0.11184 0.0
C1228 C 0.1833 0.65861 0.08749 0.0
C1229 C 0.16209 0.63516 0.06741 0.0
C1230 C 0.11277 0.66616 0.13921 0.0
C1231 C 0.22304 0.67042 0.08472 0.0
H1232 H 0.23211 0.76598 0.15882 0.0
H1233 H 0.2371 0.66153 0.21399 0.0
H1234 H 0.19375 0.74041 0.08318 0.0
H1235 H 0.15767 0.74211 0.10421 0.0
H1236 H 0.19885 0.77519 0.10691 0.0
H1237 H 0.20817 0.60954 0.19429 0.0
H1238 H 0.16582 0.61323 0.16968 0.0
H1239 H 0.20401 0.61422 0.15017 0.0
H1240 H 0.08163 0.62186 0.09598 0.0
H1241 H 0.17445 0.62564 0.05044 0.0
H1242 H 0.11873 0.6955 0.13757 0.0
H1243 H 0.12394 0.65462 0.16418 0.0
H1244 H 0.08318 0.6563 0.13645 0.0
H1245 H 0.23235 0.6992 0.08573 0.0
H1246 H 0.22984 0.66536 0.06158 0.0
H1247 H 0.23814 0.65564 0.10579 0.0
C1248 C 0.40843 0.79741 0.84344 0.0
C1249 C 0.37196 0.78384 0.84716 0.0
C1250 C 0.43116 0.81767 0.86575 0.0
C1251 C 0.41717 0.82442 0.89253 0.0
C1252 C 0.38093 0.80891 0.89746 0.0
C1253 C 0.35876 0.78906 0.87464 0.0
C1254 C 0.46952 0.83365 0.85941 0.0
C1255 C 0.36491 0.81498 0.92584 0.0
C1256 C 0.47492 0.87001 0.96174 0.0
C1257 C 0.46948 0.90494 0.95146 0.0
C1258 C 0.45943 0.84354 0.94221 0.0
C1259 C 0.43801 0.85227 0.91191 0.0
C1260 C 0.43415 0.88787 0.90077 0.0
C1261 C 0.45002 0.91359 0.92045 0.0
C1262 C 0.46472 0.80599 0.95463 0.0
C1263 C 0.41178 0.89864 0.86861 0.0
H1264 H 0.41899 0.79344 0.82235 0.0
H1265 H 0.33085 0.77818 0.87809 0.0
H1266 H 0.47208 0.86241 0.84903 0.0
H1267 H 0.48809 0.83139 0.88263 0.0
H1268 H 0.47812 0.82069 0.8417 0.0
H1269 H 0.33802 0.79744 0.92874 0.0
H1270 H 0.38287 0.81022 0.94915 0.0
H1271 H 0.36207 0.8431 0.92168 0.0
H1272 H 0.49004 0.86303 0.98548 0.0
H1273 H 0.44619 0.9406 0.91172 0.0
H1274 H 0.47202 0.79508 0.93482 0.0
H1275 H 0.43917 0.78873 0.96221 0.0
H1276 H 0.48593 0.80449 0.97602 0.0
H1277 H 0.421 0.89053 0.84812 0.0
H1278 H 0.41301 0.92779 0.86265 0.0
H1279 H 0.38328 0.88482 0.86989 0.0
C1280 C 0.17982 0.35128 0.90734 0.0
C1281 C 0.16173 0.31542 0.91252 0.0
C1282 C 0.16767 0.37745 0.91832 0.0
C1283 C 0.13705 0.3675 0.93542 0.0
C1284 C 0.11796 0.33165 0.93974 0.0
C1285 C 0.13029 0.30621 0.92796 0.0
C1286 C 0.18845 0.41551 0.91275 0.0
C1287 C 0.08543 0.31979 0.95816 0.0
C1288 C 0.13318 0.42191 0.9994 0.0
C1289 C 0.10677 0.44114 0.98398 0.0
C1290 C 0.14315 0.39796 0.98383 0.0
C1291 C 0.12701 0.39367 0.95159 0.0
C1292 C 0.10081 0.41353 0.93555 0.0
C1293 C 0.09062 0.43671 0.95213 0.0
C1294 C 0.17041 0.37663 1.00228 0.0
C1295 C 0.08344 0.41014 0.90098 0.0
H1296 H 0.20427 0.35883 0.89574 0.0
H1297 H 0.1155 0.27883 0.93138 0.0
H1298 H 0.16992 0.43393 0.90258 0.0
H1299 H 0.20238 0.42275 0.93655 0.0
H1300 H 0.20889 0.41973 0.89568 0.0
H1301 H 0.07248 0.29137 0.95792 0.0
H1302 H 0.09348 0.32353 0.98412 0.0
H1303 H 0.06527 0.33629 0.94733 0.0
H1304 H 0.14543 0.42478 0.02421 0.0
H1305 H 0.07024 0.45155 0.94011 0.0
H1306 H 0.19392 0.3821 0.98853 0.0
H1307 H 0.15844 0.34774 1.00446 0.0
H1308 H 0.18002 0.38276 0.02741 0.0
H1309 H 0.1044 0.41538 0.88432 0.0
H1310 H 0.06505 0.42884 0.89131 0.0
H1311 H 0.06791 0.38258 0.90039 0.0
C1312 C 0.70301 0.17521 0.8167 0.0
C1313 C 0.72496 0.20788 0.82252 0.0
C1314 C 0.68367 0.15178 0.84138 0.0
C1315 C 0.68473 0.16187 0.87231 0.0
C1316 C 0.70694 0.19499 0.87815 0.0
C1317 C 0.72674 0.2174 0.85336 0.0
C1318 C 0.66165 0.11641 0.83409 0.0
C1319 C 0.7091 0.20727 0.91041 0.0
C1320 C 0.6072 0.11982 0.92531 0.0
C1321 C 0.62297 0.09658 0.95063 0.0
C1322 C 0.62673 0.14092 0.8996 0.0
C1323 C 0.66264 0.13818 0.89851 0.0
C1324 C 0.67789 0.11366 0.92343 0.0
C1325 C 0.65823 0.0937 0.94912 0.0
C1326 C 0.60924 0.1669 0.87407 0.0
C1327 C 0.71507 0.10818 0.92301 0.0
H1328 H 0.70081 0.16806 0.79266 0.0
H1329 H 0.74282 0.24306 0.85771 0.0
H1330 H 0.66871 0.09451 0.85368 0.0
H1331 H 0.63271 0.11575 0.83382 0.0
H1332 H 0.66582 0.11125 0.81003 0.0
H1333 H 0.72727 0.23375 0.91114 0.0
H1334 H 0.68192 0.20883 0.91466 0.0
H1335 H 0.71894 0.18771 0.93098 0.0
H1336 H 0.58004 0.12242 0.92618 0.0
H1337 H 0.67062 0.07554 0.96822 0.0
H1338 H 0.60929 0.16146 0.84911 0.0
H1339 H 0.6249 0.19441 0.87488 0.0
H1340 H 0.5811 0.16562 0.87787 0.0
H1341 H 0.71545 0.09737 0.90063 0.0
H1342 H 0.72385 0.08934 0.94486 0.0
H1343 H 0.73463 0.13399 0.92205 0.0
C1344 C 0.83037 0.66925 0.8535 0.0
C1345 C 0.83941 0.69946 0.82937 0.0
C1346 C 0.85682 0.65349 0.87493 0.0
C1347 C 0.89383 0.66735 0.87189 0.0
C1348 C 0.90324 0.69845 0.84795 0.0
C1349 C 0.87604 0.71409 0.82707 0.0
C1350 C 0.84493 0.62116 0.90032 0.0
C1351 C 0.94202 0.71433 0.84332 0.0
C1352 C 0.96049 0.6323 0.94381 0.0
C1353 C 0.96596 0.60212 0.93377 0.0
C1354 C 0.9384 0.65462 0.92359 0.0
C1355 C 0.92183 0.64735 0.89202 0.0
C1356 C 0.92925 0.61817 0.88108 0.0
C1357 C 0.95054 0.5958 0.90211 0.0
C1358 C 0.93114 0.6848 0.93685 0.0
C1359 C 0.91323 0.60944 0.84759 0.0
H1360 H 0.8022 0.6576 0.85544 0.0
H1361 H 0.88343 0.73702 0.80819 0.0
H1362 H 0.85161 0.59746 0.89418 0.0
H1363 H 0.85944 0.62489 0.92495 0.0
H1364 H 0.81558 0.61562 0.90172 0.0
H1365 H 0.9453 0.74072 0.82687 0.0
H1366 H 0.95841 0.7174 0.86734 0.0
H1367 H 0.9528 0.69608 0.83244 0.0
H1368 H 0.97157 0.63717 0.96839 0.0
H1369 H 0.9543 0.57253 0.89404 0.0
H1370 H 0.90212 0.67993 0.93939 0.0
H1371 H 0.93781 0.71012 0.91939 0.0
H1372 H 0.94684 0.68794 0.96121 0.0
H1373 H 0.88376 0.59956 0.84716 0.0
H1374 H 0.92479 0.58878 0.84106 0.0
H1375 H 0.91771 0.63372 0.82845 0.0
C1376 C 0.20882 0.30781 0.21354 0.0
C1377 C 0.24504 0.32387 0.21052 0.0
C1378 C 0.18051 0.32248 0.19361 0.0
C1379 C 0.18834 0.35425 0.17009 0.0
C1380 C 0.22495 0.36972 0.16635 0.0
C1381 C 0.25255 0.35467 0.18666 0.0
C1382 C 0.14223 0.30472 0.19873 0.0
C1383 C 0.23515 0.40305 0.14149 0.0
C1384 C 0.11851 0.38817 0.10078 0.0
C1385 C 0.11151 0.41671 0.11245 0.0
C1386 C 0.14223 0.36672 0.11959 0.0
C1387 C 0.15903 0.37325 0.15131 0.0
C1388 C 0.15024 0.4007 0.16386 0.0
C1389 C 0.12721 0.4222 0.14428 0.0
C1390 C 0.15079 0.33824 0.10476 0.0
C1391 C 0.16666 0.40866 0.19753 0.0
H1392 H 0.20255 0.28439 0.23219 0.0
H1393 H 0.28038 0.36742 0.18418 0.0
H1394 H 0.13061 0.32175 0.21033 0.0
H1395 H 0.12565 0.30156 0.17481 0.0
H1396 H 0.14029 0.27813 0.21474 0.0
H1397 H 0.26445 0.41012 0.13954 0.0
H1398 H 0.22043 0.39959 0.11687 0.0
H1399 H 0.2274 0.42568 0.1486 0.0
H1400 H 0.10727 0.38402 0.07604 0.0
H1401 H 0.12234 0.44425 0.15357 0.0
H1402 H 0.14514 0.31218 0.12142 0.0
H1403 H 0.17982 0.34448 0.10192 0.0
H1404 H 0.13506 0.33573 0.0803 0.0
H1405 H 0.16337 0.38383 0.21611 0.0
H1406 H 0.15444 0.42817 0.20521 0.0
H1407 H 0.19592 0.41966 0.19746 0.0
C1408 C 0.26064 0.66859 0.87554 0.0
C1409 C 0.25759 0.66935 0.8416 0.0
C1410 C 0.23243 0.64983 0.8941 0.0
C1411 C 0.20161 0.62811 0.87927 0.0
C1412 C 0.1995 0.62713 0.8452 0.0
C1413 C 0.22685 0.6486 0.82663 0.0
C1414 C 0.23544 0.65397 0.92958 0.0
C1415 C 0.16863 0.60313 0.82833 0.0
C1416 C 0.15688 0.55863 0.94684 0.0
C1417 C 0.12671 0.57164 0.94936 0.0
C1418 C 0.17926 0.57465 0.92209 0.0
C1419 C 0.17278 0.60585 0.90006 0.0
C1420 C 0.14042 0.61707 0.90081 0.0
C1421 C 0.11782 0.59981 0.92531 0.0
C1422 C 0.21003 0.55811 0.91975 0.0
C1423 C 0.12911 0.64765 0.87664 0.0
H1424 H 0.28464 0.68399 0.88737 0.0
H1425 H 0.22487 0.64801 0.80061 0.0
H1426 H 0.21012 0.65945 0.93467 0.0
H1427 H 0.23986 0.62896 0.94605 0.0
H1428 H 0.25802 0.67592 0.93587 0.0
H1429 H 0.17444 0.59995 0.8041 0.0
H1430 H 0.16246 0.57641 0.84392 0.0
H1431 H 0.14428 0.61462 0.82422 0.0
H1432 H 0.16333 0.536 0.96468 0.0
H1433 H 0.09417 0.60967 0.92659 0.0
H1434 H 0.23555 0.57414 0.92986 0.0
H1435 H 0.21168 0.55764 0.89364 0.0
H1436 H 0.20714 0.53046 0.93374 0.0
H1437 H 0.12692 0.66845 0.89011 0.0
H1438 H 0.10192 0.63841 0.86385 0.0
H1439 H 0.14762 0.65927 0.8579 0.0
C1440 C 0.38084 0.2248 0.84065 0.0
C1441 C 0.34685 0.21018 0.82537 0.0
C1442 C 0.40141 0.2038 0.86411 0.0
C1443 C 0.38786 0.16675 0.87325 0.0
C1444 C 0.35282 0.15196 0.85889 0.0
C1445 C 0.33317 0.17357 0.83459 0.0
C1446 C 0.43864 0.2211 0.87774 0.0
C1447 C 0.33634 0.11307 0.86871 0.0
C1448 C 0.45423 0.10389 0.90329 0.0
C1449 C 0.45675 0.09968 0.93768 0.0
C1450 C 0.43265 0.12603 0.88231 0.0
C1451 C 0.41151 0.14343 0.89576 0.0
C1452 C 0.41405 0.13919 0.9306 0.0
C1453 C 0.43678 0.11776 0.951 0.0
C1454 C 0.43241 0.13068 0.84558 0.0
C1455 C 0.39148 0.15584 0.94654 0.0
H1456 H 0.3922 0.2528 0.83302 0.0
H1457 H 0.30766 0.16162 0.82213 0.0
H1458 H 0.44164 0.21578 0.90501 0.0
H1459 H 0.45884 0.20947 0.87003 0.0
H1460 H 0.44481 0.25039 0.86919 0.0
H1461 H 0.35156 0.09654 0.86036 0.0
H1462 H 0.33796 0.10589 0.89591 0.0
H1463 H 0.30776 0.10635 0.85802 0.0
H1464 H 0.46908 0.08959 0.89276 0.0
H1465 H 0.43759 0.11375 0.97751 0.0
H1466 H 0.43911 0.15943 0.83489 0.0
H1467 H 0.40517 0.11965 0.83405 0.0
H1468 H 0.45186 0.11722 0.83898 0.0
H1469 H 0.39235 0.18403 0.93484 0.0
H1470 H 0.40022 0.15461 0.97333 0.0
H1471 H 0.36316 0.14127 0.94318 0.0
C1472 C 0.84423 0.31819 0.87022 0.0
C1473 C 0.85759 0.3009 0.85025 0.0
C1474 C 0.86656 0.33352 0.89569 0.0
C1475 C 0.90332 0.33166 0.90143 0.0
C1476 C 0.91656 0.31237 0.88273 0.0
C1477 C 0.89349 0.29717 0.85729 0.0
C1478 C 0.85119 0.35369 0.91509 0.0
C1479 C 0.95551 0.30956 0.88828 0.0
C1480 C 0.95784 0.41458 0.93128 0.0
C1481 C 0.96098 0.40358 0.96547 0.0
C1482 C 0.94181 0.39055 0.91003 0.0
C1483 C 0.92825 0.35456 0.92333 0.0
C1484 C 0.93403 0.34263 0.95779 0.0
C1485 C 0.95055 0.36741 0.97862 0.0
C1486 C 0.93673 0.40446 0.87346 0.0
C1487 C 0.92042 0.30435 0.97282 0.0
H1488 H 0.81637 0.32065 0.86543 0.0
H1489 H 0.90398 0.28358 0.84217 0.0
H1490 H 0.85846 0.34533 0.94186 0.0
H1491 H 0.86273 0.38261 0.90884 0.0
H1492 H 0.82145 0.34959 0.90986 0.0
H1493 H 0.96 0.28841 0.87639 0.0
H1494 H 0.97221 0.3353 0.87781 0.0
H1495 H 0.965 0.30394 0.91496 0.0
H1496 H 0.96658 0.44252 0.92113 0.0
H1497 H 0.95317 0.35892 1.00509 0.0
H1498 H 0.90787 0.40443 0.8652 0.0
H1499 H 0.94493 0.38702 0.85965 0.0
H1500 H 0.9524 0.43203 0.86692 0.0
H1501 H 0.89092 0.29949 0.97294 0.0
H1502 H 0.93304 0.29787 0.99855 0.0
H1503 H 0.92563 0.28599 0.95812 0.0
C1504 C 0.72748 0.88499 0.92773 0.0
C1505 C 0.73263 0.89299 0.8944 0.0
C1506 C 0.70332 0.89965 0.9396 0.0
C1507 C 0.68408 0.9234 0.91769 0.0
C1508 C 0.6883 0.93071 0.88377 0.0
C1509 C 0.71236 0.91519 0.87247 0.0
C1510 C 0.69934 0.89064 0.97587 0.0
C1511 C 0.6687 0.95619 0.85968 0.0
C1512 C 0.60644 0.94249 0.95211 0.0
C1513 C 0.62373 0.97219 0.96668 0.0
C1514 C 0.6252 0.92716 0.93461 0.0
C1515 C 0.66186 0.94235 0.9311 0.0
C1516 C 0.67853 0.97388 0.94374 0.0
C1517 C 0.65943 0.98809 0.96172 0.0
C1518 C 0.60643 0.89348 0.92172 0.0
C1519 C 0.7172 0.99161 0.93986 0.0
H1520 H 0.74284 0.86754 0.94469 0.0
H1521 H 0.71645 0.9216 0.84672 0.0
H1522 H 0.7099 0.91481 0.98721 0.0
H1523 H 0.67054 0.88146 0.97949 0.0
H1524 H 0.71398 0.86963 0.98911 0.0
H1525 H 0.67185 0.95614 0.83378 0.0
H1526 H 0.63964 0.94934 0.86246 0.0
H1527 H 0.67931 0.98359 0.86488 0.0
H1528 H 0.57888 0.92998 0.95599 0.0
H1529 H 0.67284 1.01121 0.9727 0.0
H1530 H 0.61751 0.87074 0.93666 0.0
H1531 H 0.61127 0.89547 0.89594 0.0
H1532 H 0.57698 0.88755 0.92277 0.0
H1533 H 0.73512 0.97454 0.95513 0.0
H1534 H 0.72475 0.01815 0.94747 0.0
H1535 H 0.72213 0.99493 0.91391 0.0
C1536 C 0.92126 0.67793 0.15218 0.0
C1537 C 0.90993 0.70634 0.12982 0.0
C1538 C 0.93138 0.65049 0.14119 0.0
C1539 C 0.93035 0.65149 0.10702 0.0
C1540 C 0.91808 0.67959 0.08433 0.0
C1541 C 0.90791 0.70648 0.09597 0.0
C1542 C 0.94397 0.62088 0.16618 0.0
C1543 C 0.91659 0.68179 0.04768 0.0
C1544 C 0.99185 0.60611 0.07568 0.0
C1545 C 0.96772 0.57642 0.06555 0.0
C1546 C 0.98019 0.63029 0.08983 0.0
C1547 C 0.9436 0.62424 0.09479 0.0
C1548 C 0.91943 0.59337 0.086 0.0
C1549 C 0.93167 0.5701 0.07111 0.0
C1550 C 1.00684 0.66301 0.09842 0.0
C1551 C 0.88035 0.58552 0.0913 0.0
H1552 H 0.92324 0.67762 0.17836 0.0
H1553 H 0.89852 0.72783 0.07843 0.0
H1554 H 0.9289 0.5946 0.16048 0.0
H1555 H 0.9728 0.62224 0.16504 0.0
H1556 H 0.94059 0.62238 0.19167 0.0
H1557 H 0.90563 0.70487 0.03325 0.0
H1558 H 0.94396 0.68417 0.0413 0.0
H1559 H 0.89964 0.65706 0.04007 0.0
H1560 H 1.01958 0.61142 0.07102 0.0
H1561 H 0.91287 0.54716 0.06341 0.0
H1562 H 1.01007 0.66226 0.12537 0.0
H1563 H 0.99683 0.6874 0.08636 0.0
H1564 H 1.03361 0.66515 0.09077 0.0
H1565 H 0.87787 0.58741 0.11688 0.0
H1566 H 0.86602 0.55862 0.08654 0.0
H1567 H 0.86675 0.60559 0.07461 0.0
C1568 C 0.34383 0.8158 0.18802 0.0
C1569 C 0.36056 0.81363 0.22058 0.0
C1570 C 0.36113 0.83852 0.16172 0.0
C1571 C 0.39585 0.86017 0.16803 0.0
C1572 C 0.41196 0.85914 0.20115 0.0
C1573 C 0.39457 0.83545 0.22674 0.0
C1574 C 0.34284 0.83814 0.12702 0.0
C1575 C 0.448 0.88266 0.20958 0.0
C1576 C 0.46059 0.89002 0.10188 0.0
C1577 C 0.45507 0.92429 0.08787 0.0
C1578 C 0.44107 0.86876 0.1274 0.0
C1579 C 0.41621 0.88243 0.14016 0.0
C1580 C 0.41153 0.91757 0.12656 0.0
C1581 C 0.43033 0.93764 0.10025 0.0
C1582 C 0.44657 0.83132 0.14029 0.0
C1583 C 0.38665 0.93415 0.13971 0.0
H1584 H 0.31791 0.79857 0.18288 0.0
H1585 H 0.40775 0.83381 0.25182 0.0
H1586 H 0.35958 0.82909 0.11262 0.0
H1587 H 0.31575 0.82035 0.12616 0.0
H1588 H 0.34003 0.86541 0.1148 0.0
H1589 H 0.45523 0.88141 0.23655 0.0
H1590 H 0.46918 0.8744 0.19982 0.0
H1591 H 0.44788 0.91073 0.19788 0.0
H1592 H 0.47931 0.87936 0.09209 0.0
H1593 H 0.4259 0.9641 0.08945 0.0
H1594 H 0.42043 0.81213 0.13809 0.0
H1595 H 0.45722 0.82851 0.16676 0.0
H1596 H 0.46551 0.82399 0.12687 0.0
H1597 H 0.35853 0.92001 0.13398 0.0
H1598 H 0.38878 0.96279 0.12889 0.0
H1599 H 0.39276 0.93154 0.16684 0.0
C1600 C 0.66006 0.2262 0.19329 0.0
C1601 C 0.69739 0.23652 0.19274 0.0
C1602 C 0.63817 0.20591 0.17053 0.0
C1603 C 0.65404 0.19549 0.14685 0.0
C1604 C 0.69138 0.20766 0.14503 0.0
C1605 C 0.71249 0.22805 0.16785 0.0
C1606 C 0.59846 0.19387 0.17317 0.0
C1607 C 0.70958 0.19727 0.12029 0.0
C1608 C 0.61897 0.10602 0.11981 0.0
C1609 C 0.60444 0.1155 0.08699 0.0
C1610 C 0.63328 0.13163 0.13997 0.0
C1611 C 0.6332 0.16792 0.12717 0.0
C1612 C 0.61662 0.17755 0.0947 0.0
C1613 C 0.6023 0.15116 0.07495 0.0
C1614 C 0.65033 0.11995 0.17449 0.0
C1615 C 0.61571 0.21591 0.08026 0.0
H1616 H 0.64804 0.23273 0.21228 0.0
H1617 H 0.74118 0.23636 0.16675 0.0
H1618 H 0.59261 0.1654 0.1849 0.0
H1619 H 0.58929 0.2095 0.18823 0.0
H1620 H 0.58264 0.19623 0.14845 0.0
H1621 H 0.73793 0.21196 0.11973 0.0
H1622 H 0.70933 0.16833 0.12661 0.0
H1623 H 0.69486 0.20236 0.09527 0.0
H1624 H 0.62012 0.07843 0.12961 0.0
H1625 H 0.59103 0.15871 0.04968 0.0
H1626 H 0.63957 0.13062 0.19247 0.0
H1627 H 0.67976 0.13074 0.17636 0.0
H1628 H 0.64567 0.0905 0.18159 0.0
H1629 H 0.60691 0.22877 0.09787 0.0
H1630 H 0.59749 0.21848 0.05679 0.0
H1631 H 0.64316 0.23069 0.07544 0.0
C1632 C 0.66321 0.70677 0.79617 0.0
C1633 C 0.69762 0.71403 0.81375 0.0
C1634 C 0.63337 0.68783 0.81223 0.0
C1635 C 0.63829 0.67525 0.84653 0.0
C1636 C 0.67297 0.68291 0.86439 0.0
C1637 C 0.70208 0.70257 0.84782 0.0
C1638 C 0.59683 0.68079 0.79242 0.0
C1639 C 0.6796 0.6694 0.90092 0.0
C1640 C 0.56934 0.6474 0.90636 0.0
C1641 C 0.56571 0.61035 0.91237 0.0
C1642 C 0.58965 0.66896 0.88189 0.0
C1643 C 0.60788 0.65305 0.86414 0.0
C1644 C 0.6015 0.61545 0.86806 0.0
C1645 C 0.57989 0.59452 0.89178 0.0
C1646 C 0.59454 0.70888 0.87746 0.0
C1647 C 0.62091 0.59728 0.85023 0.0
H1648 H 0.65963 0.71575 0.76977 0.0
H1649 H 0.72862 0.70777 0.86145 0.0
H1650 H 0.58811 0.65196 0.79145 0.0
H1651 H 0.57664 0.68816 0.80431 0.0
H1652 H 0.59687 0.69576 0.7668 0.0
H1653 H 0.70824 0.6773 0.91103 0.0
H1654 H 0.66298 0.67988 0.91426 0.0
H1655 H 0.67157 0.6399 0.90599 0.0
H1656 H 0.55846 0.65966 0.92234 0.0
H1657 H 0.5776 0.56588 0.89671 0.0
H1658 H 0.59427 0.7211 0.85105 0.0
H1659 H 0.62096 0.72006 0.89043 0.0
H1660 H 0.57324 0.7166 0.88763 0.0
H1661 H 0.61994 0.60926 0.82377 0.0
H1662 H 0.60944 0.56824 0.85255 0.0
H1663 H 0.64962 0.60097 0.86077 0.0
C1664 C 0.28391 0.57465 0.882 0.0
C1665 C 0.27734 0.55217 0.85871 0.0
C1666 C 0.30644 0.56797 0.91135 0.0
C1667 C 0.32271 0.53824 0.91706 0.0
C1668 C 0.31171 0.51265 0.89595 0.0
C1669 C 0.28884 0.51994 0.86684 0.0
C1670 C 0.31651 0.59514 0.9339 0.0
C1671 C 0.32806 0.48022 0.9015 0.0
C1672 C 0.42177 0.54989 0.94768 0.0
C1673 C 0.42111 0.52738 0.97827 0.0
C1674 C 0.38965 0.55518 0.92817 0.0
C1675 C 0.35632 0.53802 0.94 0.0
C1676 C 0.35572 0.51823 0.97224 0.0
C1677 C 0.38822 0.51282 0.99092 0.0
C1678 C 0.39141 0.57687 0.89391 0.0
C1679 C 0.32089 0.50057 0.98616 0.0
H1680 H 0.27498 0.59963 0.87544 0.0
H1681 H 0.28397 0.5028 0.84859 0.0
H1682 H 0.31651 0.58173 0.95997 0.0
H1683 H 0.34407 0.61088 0.93083 0.0
H1684 H 0.29792 0.61387 0.92853 0.0
H1685 H 0.31263 0.46038 0.88616 0.0
H1686 H 0.35597 0.48847 0.89503 0.0
H1687 H 0.32935 0.46726 0.92771 0.0
H1688 H 0.44715 0.56102 0.93785 0.0
H1689 H 0.38777 0.49565 1.01482 0.0
H1690 H 0.37559 0.59789 0.89008 0.0
H1691 H 0.37948 0.5594 0.87544 0.0
H1692 H 0.41941 0.58977 0.88914 0.0
H1693 H 0.30052 0.51736 0.97807 0.0
H1694 H 0.32499 0.49479 1.01349 0.0
H1695 H 0.30988 0.47496 0.97726 0.0
C1696 C 0.38734 0.33374 0.82327 0.0
C1697 C 0.35054 0.33306 0.81999 0.0
C1698 C 0.41144 0.3519 0.84616 0.0
C1699 C 0.39821 0.36969 0.8662 0.0
C1700 C 0.36104 0.36979 0.86232 0.0
C1701 C 0.33754 0.35103 0.83948 0.0
C1702 C 0.45074 0.35067 0.84988 0.0
C1703 C 0.34596 0.38883 0.88296 0.0
C1704 C 0.4489 0.38614 0.94927 0.0
C1705 C 0.46485 0.42247 0.94227 0.0
C1706 C 0.42812 0.36829 0.92446 0.0
C1707 C 0.42294 0.38727 0.89197 0.0
C1708 C 0.44006 0.42349 0.88445 0.0
C1709 C 0.46093 0.44059 0.9096 0.0
C1710 C 0.41066 0.32941 0.93324 0.0
C1711 C 0.43512 0.44462 0.85011 0.0
H1712 H 0.39707 0.31843 0.80933 0.0
H1713 H 0.30888 0.34976 0.83728 0.0
H1714 H 0.46765 0.3779 0.84877 0.0
H1715 H 0.45828 0.33508 0.87429 0.0
H1716 H 0.45707 0.33825 0.83057 0.0
H1717 H 0.31682 0.3881 0.87555 0.0
H1718 H 0.34993 0.37632 0.90924 0.0
H1719 H 0.36046 0.41705 0.88091 0.0
H1720 H 0.45186 0.3718 0.97429 0.0
H1721 H 0.47307 0.46864 0.90372 0.0
H1722 H 0.41717 0.31385 0.91655 0.0
H1723 H 0.38102 0.32629 0.92998 0.0
H1724 H 0.41937 0.31786 0.95904 0.0
H1725 H 0.4418 0.43081 0.83206 0.0
H1726 H 0.45207 0.47195 0.84786 0.0
H1727 H 0.40655 0.44669 0.84332 0.0
C1728 C 0.65737 0.44327 0.82321 0.0
C1729 C 0.6875 0.42757 0.83228 0.0
C1730 C 0.64389 0.45687 0.84601 0.0
C1731 C 0.66095 0.45485 0.8788 0.0
C1732 C 0.69105 0.43854 0.88829 0.0
C1733 C 0.70388 0.42497 0.86495 0.0
C1734 C 0.61152 0.47368 0.83491 0.0
C1735 C 0.71011 0.43606 0.92295 0.0
C1736 C 0.64474 0.5203 0.92768 0.0
C1737 C 0.6177 0.49913 0.94621 0.0
C1738 C 0.65961 0.50608 0.90619 0.0
C1739 C 0.64713 0.46981 0.90304 0.0
C1740 C 0.62027 0.44818 0.92203 0.0
C1741 C 0.60594 0.46305 0.94335 0.0
C1742 C 0.68804 0.53015 0.88625 0.0
C1743 C 0.60599 0.40948 0.91924 0.0
H1744 H 0.6443 0.44498 0.7981 0.0
H1745 H 0.7274 0.41324 0.87205 0.0
H1746 H 0.58974 0.4599 0.85025 0.0
H1747 H 0.61863 0.50194 0.83821 0.0
H1748 H 0.60101 0.47267 0.80869 0.0
H1749 H 0.73276 0.42212 0.92658 0.0
H1750 H 0.7207 0.46319 0.92884 0.0
H1751 H 0.69093 0.42168 0.94073 0.0
H1752 H 0.65389 0.54825 0.92944 0.0
H1753 H 0.58505 0.44638 0.95747 0.0
H1754 H 0.67741 0.53352 0.85975 0.0
H1755 H 0.71186 0.518 0.88932 0.0
H1756 H 0.69679 0.55691 0.89337 0.0
H1757 H 0.59305 0.40736 0.8938 0.0
H1758 H 0.58601 0.39593 0.93656 0.0
H1759 H 0.62838 0.39511 0.92419 0.0
C1760 C 0.79202 0.49691 0.18508 0.0
C1761 C 0.80207 0.46396 0.19208 0.0
C1762 C 0.77037 0.50642 0.15573 0.0
C1763 C 0.75919 0.48236 0.13317 0.0
C1764 C 0.774 0.45177 0.13802 0.0
C1765 C 0.79519 0.44278 0.16769 0.0
C1766 C 0.75534 0.53953 0.15126 0.0
C1767 C 0.7637 0.42627 0.11389 0.0
C1768 C 0.66119 0.47405 0.09913 0.0
C1769 C 0.66342 0.49755 0.06913 0.0
C1770 C 0.69242 0.46778 0.11964 0.0
C1771 C 0.72652 0.48486 0.1094 0.0
C1772 C 0.7288 0.50601 0.07783 0.0
C1773 C 0.69712 0.51248 0.05816 0.0
C1774 C 0.68885 0.44477 0.15319 0.0
C1775 C 0.76455 0.52363 0.06558 0.0
H1776 H 0.79705 0.51298 0.20422 0.0
H1777 H 0.80293 0.41718 0.17341 0.0
H1778 H 0.75549 0.55394 0.12553 0.0
H1779 H 0.72702 0.53185 0.15661 0.0
H1780 H 0.77076 0.55795 0.16798 0.0
H1781 H 0.78037 0.4058 0.11958 0.0
H1782 H 0.73515 0.41245 0.11456 0.0
H1783 H 0.76653 0.441 0.08849 0.0
H1784 H 0.63519 0.46266 0.1077 0.0
H1785 H 0.69881 0.53047 0.03475 0.0
H1786 H 0.70094 0.46098 0.17261 0.0
H1787 H 0.70358 0.42295 0.15656 0.0
H1788 H 0.66039 0.43278 0.15694 0.0
H1789 H 0.77582 0.54826 0.07607 0.0
H1790 H 0.76171 0.5311 0.03833 0.0
H1791 H 0.78416 0.50599 0.0734 0.0
C1792 C 0.6952 0.69362 0.22096 0.0
C1793 C 0.73237 0.69715 0.22287 0.0
C1794 C 0.67158 0.67447 0.19849 0.0
C1795 C 0.68566 0.65859 0.17745 0.0
C1796 C 0.72328 0.66151 0.17982 0.0
C1797 C 0.74624 0.68116 0.2023 0.0
C1798 C 0.63173 0.67245 0.1964 0.0
C1799 C 0.73931 0.64459 0.15807 0.0
C1800 C 0.62628 0.58495 0.13526 0.0
C1801 C 0.6198 0.60297 0.10286 0.0
C1802 C 0.64696 0.60288 0.15996 0.0
C1803 C 0.66126 0.63982 0.15226 0.0
C1804 C 0.65354 0.65854 0.12006 0.0
C1805 C 0.63304 0.63987 0.09569 0.0
C1806 C 0.6547 0.58201 0.19399 0.0
C1807 C 0.66795 0.69811 0.11109 0.0
H1808 H 0.68464 0.70739 0.23572 0.0
H1809 H 0.77512 0.68446 0.20354 0.0
H1810 H 0.62215 0.68736 0.17231 0.0
H1811 H 0.6168 0.64441 0.19792 0.0
H1812 H 0.62499 0.68378 0.21626 0.0
H1813 H 0.76894 0.64803 0.16404 0.0
H1814 H 0.72724 0.61569 0.16065 0.0
H1815 H 0.73312 0.6566 0.13192 0.0
H1816 H 0.61636 0.55644 0.14119 0.0
H1817 H 0.62806 0.65411 0.07086 0.0
H1818 H 0.64753 0.59457 0.21273 0.0
H1819 H 0.68388 0.58225 0.19951 0.0
H1820 H 0.63973 0.55388 0.19654 0.0
H1821 H 0.66065 0.71245 0.12838 0.0
H1822 H 0.65758 0.70912 0.08562 0.0
H1823 H 0.69772 0.70358 0.11326 0.0
C1824 C 0.43223 0.58177 0.22444 0.0
C1825 C 0.40068 0.5953 0.21692 0.0
C1826 C 0.44472 0.568 0.20113 0.0
C1827 C 0.42534 0.56781 0.16933 0.0
C1828 C 0.3937 0.5818 0.16138 0.0
C1829 C 0.38178 0.59542 0.18524 0.0
C1830 C 0.47868 0.55355 0.21061 0.0
C1831 C 0.37222 0.58197 0.12779 0.0
C1832 C 0.47732 0.56108 0.10188 0.0
C1833 C 0.46735 0.52459 0.10032 0.0
C1834 C 0.46319 0.5756 0.12362 0.0
C1835 C 0.43848 0.55316 0.14445 0.0
C1836 C 0.42774 0.51644 0.14257 0.0
C1837 C 0.44226 0.50262 0.12055 0.0
C1838 C 0.47544 0.61485 0.12486 0.0
C1839 C 0.40172 0.49148 0.16453 0.0
H1840 H 0.44734 0.58206 0.24867 0.0
H1841 H 0.35719 0.60544 0.1793 0.0
H1842 H 0.47295 0.52518 0.20782 0.0
H1843 H 0.49891 0.56832 0.19395 0.0
H1844 H 0.49059 0.55557 0.23636 0.0
H1845 H 0.34847 0.59414 0.12533 0.0
H1846 H 0.38942 0.59693 0.10855 0.0
H1847 H 0.36287 0.5543 0.12298 0.0
H1848 H 0.49663 0.57836 0.08638 0.0
H1849 H 0.43454 0.47436 0.11979 0.0
H1850 H 0.48999 0.61853 0.14949 0.0
H1851 H 0.45187 0.62749 0.12111 0.0
H1852 H 0.49347 0.629 0.10599 0.0
H1853 H 0.41434 0.48905 0.19048 0.0
H1854 H 0.39356 0.46445 0.15797 0.0
H1855 H 0.37727 0.50227 0.16303 0.0
C1856 C 0.42214 0.31319 0.24659 0.0
C1857 C 0.38803 0.30638 0.22839 0.0
C1858 C 0.45247 0.33206 0.23122 0.0
C1859 C 0.44831 0.34523 0.197 0.0
C1860 C 0.414 0.3377 0.17845 0.0
C1861 C 0.3844 0.31796 0.19433 0.0
C1862 C 0.48853 0.33876 0.25188 0.0
C1863 C 0.40818 0.35174 0.14196 0.0
C1864 C 0.50595 0.42792 0.15383 0.0
C1865 C 0.52072 0.41325 0.13277 0.0
C1866 C 0.48451 0.40591 0.17721 0.0
C1867 C 0.47893 0.36843 0.18027 0.0
C1868 C 0.49805 0.35375 0.16229 0.0
C1869 C 0.51816 0.37635 0.13815 0.0
C1870 C 0.46456 0.42274 0.19576 0.0
C1871 C 0.49439 0.31402 0.16618 0.0
H1872 H 0.42508 0.30413 0.273 0.0
H1873 H 0.35808 0.31305 0.18023 0.0
H1874 H 0.51033 0.33657 0.2386 0.0
H1875 H 0.49447 0.36613 0.25743 0.0
H1876 H 0.48891 0.31984 0.27563 0.0
H1877 H 0.37982 0.34358 0.1312 0.0
H1878 H 0.41576 0.38127 0.13737 0.0
H1879 H 0.42559 0.34195 0.12886 0.0
H1880 H 0.50757 0.45645 0.14947 0.0
H1881 H 0.52961 0.365 0.12187 0.0
H1882 H 0.46768 0.41136 0.22234 0.0
H1883 H 0.43544 0.41685 0.18672 0.0
H1884 H 0.47407 0.45212 0.19268 0.0
H1885 H 0.49515 0.30147 0.19254 0.0
H1886 H 0.51601 0.30731 0.15562 0.0
H1887 H 0.4681 0.30231 0.15334 0.0
C1888 C 0.87681 0.59685 0.69399 0.0
C1889 C 0.84375 0.59467 0.67365 0.0
C1890 C 0.90607 0.58687 0.68501 0.0
C1891 C 0.9022 0.57412 0.65509 0.0
C1892 C 0.86834 0.56982 0.63549 0.0
C1893 C 0.83974 0.5804 0.64482 0.0
C1894 C 0.9416 0.59198 0.70669 0.0
C1895 C 0.86284 0.55586 0.60358 0.0
C1896 C 0.9771 0.59405 0.60194 0.0
C1897 C 0.9845 0.56026 0.60415 0.0
C1898 C 0.95222 0.59934 0.62029 0.0
C1899 C 0.93415 0.5701 0.64154 0.0
C1900 C 0.94378 0.53653 0.64617 0.0
C1901 C 0.96892 0.53191 0.6273 0.0
C1902 C 0.94343 0.63579 0.61502 0.0
C1903 C 0.92614 0.5052 0.66975 0.0
H1904 H 0.8801 0.60694 0.71676 0.0
H1905 H 0.81462 0.57882 0.62866 0.0
H1906 H 0.95564 0.57012 0.70762 0.0
H1907 H 0.95917 0.61726 0.69644 0.0
H1908 H 0.93817 0.59348 0.73217 0.0
H1909 H 0.83415 0.55075 0.5929 0.0
H1910 H 0.87857 0.57555 0.58541 0.0
H1911 H 0.87269 0.53076 0.6075 0.0
H1912 H 0.98963 0.61625 0.58458 0.0
H1913 H 0.9747 0.50578 0.62926 0.0
H1914 H 0.94397 0.64393 0.63897 0.0
H1915 H 0.91589 0.63494 0.60186 0.0
H1916 H 0.96246 0.65643 0.60036 0.0
H1917 H 0.92825 0.51248 0.69433 0.0
H1918 H 0.93842 0.4817 0.67244 0.0
H1919 H 0.89707 0.49775 0.66099 0.0
C1920 C 0.3787 0.80864 0.72283 0.0
C1921 C 0.34232 0.79869 0.71074 0.0
C1922 C 0.40364 0.83118 0.70234 0.0
C1923 C 0.39159 0.84601 0.66959 0.0
C1924 C 0.35466 0.83672 0.65772 0.0
C1925 C 0.33075 0.81295 0.6782 0.0
C1926 C 0.44291 0.83897 0.71568 0.0
C1927 C 0.34018 0.85249 0.6235 0.0
C1928 C 0.44981 0.93333 0.63101 0.0
C1929 C 0.46528 0.92244 0.60779 0.0
C1930 C 0.42521 0.90897 0.65056 0.0
C1931 C 0.41704 0.87232 0.64805 0.0
C1932 C 0.43248 0.86134 0.62431 0.0
C1933 C 0.45607 0.88656 0.60431 0.0
C1934 C 0.40782 0.92254 0.67384 0.0
C1935 C 0.42589 0.82277 0.62088 0.0
H1936 H 0.38766 0.79901 0.7483 0.0
H1937 H 0.30252 0.80607 0.66889 0.0
H1938 H 0.45895 0.832 0.6992 0.0
H1939 H 0.45238 0.86781 0.71629 0.0
H1940 H 0.44826 0.82387 0.74089 0.0
H1941 H 0.31054 0.84381 0.61843 0.0
H1942 H 0.34711 0.88201 0.62018 0.0
H1943 H 0.35279 0.84453 0.605 0.0
H1944 H 0.45701 0.96108 0.63384 0.0
H1945 H 0.46862 0.87788 0.58693 0.0
H1946 H 0.41642 0.91112 0.69964 0.0
H1947 H 0.37815 0.91392 0.66947 0.0
H1948 H 0.41482 0.95205 0.67105 0.0
H1949 H 0.44605 0.8102 0.63838 0.0
H1950 H 0.42922 0.8201 0.5957 0.0
H1951 H 0.39878 0.80786 0.6265 0.0
C1952 C 0.23694 0.34999 0.71973 0.0
C1953 C 0.22148 0.31363 0.72095 0.0
C1954 C 0.21913 0.37667 0.70052 0.0
C1955 C 0.18536 0.36694 0.6813 0.0
C1956 C 0.17067 0.33014 0.68164 0.0
C1957 C 0.1883 0.30429 0.70189 0.0
C1958 C 0.23672 0.41516 0.70128 0.0
C1959 C 0.13603 0.31782 0.66057 0.0
C1960 C 0.11387 0.42419 0.64745 0.0
C1961 C 0.12011 0.43548 0.61438 0.0
C1962 C 0.1364 0.40403 0.67021 0.0
C1963 C 0.16556 0.39441 0.65973 0.0
C1964 C 0.17314 0.40807 0.62701 0.0
C1965 C 0.15078 0.42837 0.60512 0.0
C1966 C 0.12818 0.39183 0.70523 0.0
C1967 C 0.20379 0.39954 0.61434 0.0
H1968 H 0.26216 0.35763 0.73485 0.0
H1969 H 0.17579 0.27633 0.70305 0.0
H1970 H 0.25552 0.42452 0.68237 0.0
H1971 H 0.21683 0.43252 0.69618 0.0
H1972 H 0.25271 0.41829 0.72552 0.0
H1973 H 0.12921 0.28844 0.66211 0.0
H1974 H 0.11361 0.32611 0.66835 0.0
H1975 H 0.13811 0.33046 0.63447 0.0
H1976 H 0.09043 0.42941 0.65513 0.0
H1977 H 0.15644 0.43737 0.57986 0.0
H1978 H 0.15322 0.39687 0.7225 0.0
H1979 H 0.11709 0.36272 0.70951 0.0
H1980 H 0.1084 0.40549 0.71095 0.0
H1981 H 0.22917 0.4084 0.6299 0.0
H1982 H 0.20674 0.41259 0.58844 0.0
H1983 H 0.19941 0.37032 0.61584 0.0
C1984 C 0.73251 0.21067 0.67213 0.0
C1985 C 0.71946 0.22814 0.692 0.0
C1986 C 0.7097 0.19444 0.64738 0.0
C1987 C 0.67295 0.19636 0.64198 0.0
C1988 C 0.66047 0.21715 0.65979 0.0
C1989 C 0.68389 0.23264 0.68485 0.0
C1990 C 0.72435 0.1726 0.62912 0.0
C1991 C 0.62174 0.22063 0.65428 0.0
C1992 C 0.6179 0.14995 0.57253 0.0
C1993 C 0.60688 0.11558 0.59008 0.0
C1994 C 0.63797 0.17758 0.58914 0.0
C1995 C 0.64695 0.17032 0.62382 0.0
C1996 C 0.63382 0.13617 0.64157 0.0
C1997 C 0.61388 0.10949 0.62455 0.0
C1998 C 0.65089 0.21391 0.56951 0.0
C1999 C 0.64247 0.12702 0.67854 0.0
H2000 H 0.76048 0.20902 0.67636 0.0
H2001 H 0.67382 0.24656 0.69994 0.0
H2002 H 0.71399 0.14386 0.638 0.0
H2003 H 0.71526 0.17823 0.60239 0.0
H2004 H 0.75419 0.17778 0.6329 0.0
H2005 H 0.61833 0.24383 0.6639 0.0
H2006 H 0.61133 0.22347 0.62773 0.0
H2007 H 0.60514 0.19623 0.66721 0.0
H2008 H 0.61216 0.15485 0.54594 0.0
H2009 H 0.60442 0.08324 0.63841 0.0
H2010 H 0.67977 0.21748 0.56702 0.0
H2011 H 0.64824 0.23516 0.58223 0.0
H2012 H 0.63582 0.21736 0.54444 0.0
H2013 H 0.67189 0.12928 0.68517 0.0
H2014 H 0.62879 0.0996 0.68868 0.0
H2015 H 0.63435 0.14597 0.69071 0.0
C2016 C 0.82148 0.33509 0.36229 0.0
C2017 C 0.83603 0.32656 0.33704 0.0
C2018 C 0.84282 0.35609 0.38456 0.0
C2019 C 0.87994 0.36857 0.38207 0.0
C2020 C 0.89499 0.35976 0.35688 0.0
C2021 C 0.87286 0.3389 0.33464 0.0
C2022 C 0.82555 0.36493 0.41083 0.0
C2023 C 0.93452 0.37226 0.35351 0.0
C2024 C 0.93367 0.44492 0.42557 0.0
C2025 C 0.9507 0.42633 0.45373 0.0
C2026 C 0.91 0.42655 0.40224 0.0
C2027 C 0.90332 0.38878 0.40717 0.0
C2028 C 0.91913 0.36998 0.43633 0.0
C2029 C 0.9424 0.3889 0.45918 0.0
C2030 C 0.89349 0.44764 0.37161 0.0
C2031 C 0.91254 0.32978 0.44289 0.0
H2032 H 0.79312 0.32569 0.36457 0.0
H2033 H 0.88436 0.33261 0.31518 0.0
H2034 H 0.83762 0.3537 0.43554 0.0
H2035 H 0.83069 0.39424 0.40924 0.0
H2036 H 0.79606 0.35436 0.40867 0.0
H2037 H 0.94197 0.36372 0.33232 0.0
H2038 H 0.94199 0.40174 0.35031 0.0
H2039 H 0.95057 0.36159 0.3763 0.0
H2040 H 0.9402 0.47379 0.42091 0.0
H2041 H 0.95523 0.37423 0.48095 0.0
H2042 H 0.86439 0.43618 0.36645 0.0
H2043 H 0.90649 0.44632 0.35028 0.0
H2044 H 0.89698 0.47608 0.3736 0.0
H2045 H 0.88332 0.31827 0.44214 0.0
H2046 H 0.92618 0.31912 0.46714 0.0
H2047 H 0.92239 0.32051 0.42341 0.0
C2048 C 0.70016 0.86319 0.41685 0.0
C2049 C 0.6806 0.82801 0.4178 0.0
C2050 C 0.6859 0.8891 0.4261 0.0
C2051 C 0.65118 0.87971 0.43639 0.0
C2052 C 0.63129 0.84429 0.43728 0.0
C2053 C 0.64622 0.81896 0.42801 0.0
C2054 C 0.70797 0.92653 0.42486 0.0
C2055 C 0.59404 0.83316 0.44778 0.0
C2056 C 0.61939 0.9342 0.48701 0.0
C2057 C 0.59643 0.95192 0.46322 0.0
C2058 C 0.63857 0.9117 0.47846 0.0
C2059 C 0.6349 0.90693 0.44531 0.0
C2060 C 0.61325 0.92618 0.42098 0.0
C2061 C 0.59429 0.94834 0.43021 0.0
C2062 C 0.66132 0.89168 0.50521 0.0
C2063 C 0.60865 0.92205 0.38536 0.0
H2064 H 0.72689 0.87034 0.40935 0.0
H2065 H 0.63068 0.79202 0.42837 0.0
H2066 H 0.69339 0.94554 0.40774 0.0
H2067 H 0.71204 0.93413 0.44952 0.0
H2068 H 0.73467 0.92948 0.41671 0.0
H2069 H 0.58235 0.80445 0.44768 0.0
H2070 H 0.5948 0.83857 0.4729 0.0
H2071 H 0.57589 0.849 0.43104 0.0
H2072 H 0.62117 0.93661 0.51259 0.0
H2073 H 0.57685 0.96205 0.41158 0.0
H2074 H 0.6885 0.89488 0.49807 0.0
H2075 H 0.64895 0.86282 0.50864 0.0
H2076 H 0.66411 0.90078 0.52911 0.0
H2077 H 0.63523 0.92593 0.37674 0.0
H2078 H 0.59356 0.94122 0.36906 0.0
H2079 H 0.59389 0.89465 0.38279 0.0
C2080 C 0.2418 0.69999 0.35361 0.0
C2081 C 0.22623 0.69977 0.32086 0.0
C2082 C 0.22284 0.68046 0.38012 0.0
C2083 C 0.18738 0.6603 0.3738 0.0
C2084 C 0.1724 0.65891 0.34067 0.0
C2085 C 0.1917 0.67895 0.31482 0.0
C2086 C 0.24016 0.68296 0.4148 0.0
C2087 C 0.13536 0.63704 0.33243 0.0
C2088 C 0.13893 0.58818 0.43795 0.0
C2089 C 0.1142 0.60527 0.44611 0.0
C2090 C 0.16408 0.60618 0.41588 0.0
C2091 C 0.16473 0.64226 0.4012 0.0
C2092 C 0.1409 0.66007 0.4104 0.0
C2093 C 0.11608 0.6415 0.4326 0.0
C2094 C 0.1895 0.58632 0.40769 0.0
C2095 C 0.14074 0.69859 0.39586 0.0
H2096 H 0.26815 0.71658 0.35855 0.0
H2097 H 0.17944 0.67887 0.28957 0.0
H2098 H 0.22764 0.70044 0.42498 0.0
H2099 H 0.23581 0.65643 0.43086 0.0
H2100 H 0.26952 0.6942 0.41583 0.0
H2101 H 0.12853 0.63675 0.30564 0.0
H2102 H 0.13344 0.60918 0.34564 0.0
H2103 H 0.11501 0.64799 0.3407 0.0
H2104 H 0.13821 0.56036 0.44832 0.0
H2105 H 0.09743 0.65525 0.43867 0.0
H2106 H 0.2176 0.59892 0.41578 0.0
H2107 H 0.18702 0.58797 0.38067 0.0
H2108 H 0.18445 0.55787 0.41965 0.0
H2109 H 0.16839 0.71498 0.39863 0.0
H2110 H 0.12304 0.70962 0.4076 0.0
H2111 H 0.13128 0.70107 0.36914 0.0
C2112 C 0.37666 0.22025 0.33697 0.0
C2113 C 0.33948 0.20707 0.33684 0.0
C2114 C 0.4018 0.20319 0.35948 0.0
C2115 C 0.38969 0.17191 0.38234 0.0
C2116 C 0.35212 0.15991 0.38329 0.0
C2117 C 0.32776 0.17728 0.36054 0.0
C2118 C 0.44134 0.21752 0.35738 0.0
C2119 C 0.3374 0.12725 0.40716 0.0
C2120 C 0.44272 0.09716 0.40728 0.0
C2121 C 0.45838 0.10017 0.43974 0.0
C2122 C 0.42175 0.12093 0.38836 0.0
C2123 C 0.41532 0.14883 0.40188 0.0
C2124 C 0.43137 0.15253 0.4345 0.0
C2125 C 0.45287 0.12847 0.45288 0.0
C2126 C 0.40582 0.11567 0.35381 0.0
C2127 C 0.42526 0.18154 0.45023 0.0
H2128 H 0.38618 0.24282 0.31851 0.0
H2129 H 0.29913 0.16671 0.36056 0.0
H2130 H 0.45648 0.21776 0.38231 0.0
H2131 H 0.45178 0.19993 0.3454 0.0
H2132 H 0.44668 0.24494 0.34287 0.0
H2133 H 0.3081 0.12392 0.4078 0.0
H2134 H 0.34208 0.10322 0.39989 0.0
H2135 H 0.35148 0.12867 0.43234 0.0
H2136 H 0.44695 0.07598 0.39632 0.0
H2137 H 0.46464 0.13137 0.47778 0.0
H2138 H 0.41333 0.1407 0.33616 0.0
H2139 H 0.37606 0.10891 0.35217 0.0
H2140 H 0.41488 0.09409 0.34608 0.0
H2141 H 0.43343 0.20788 0.4346 0.0
H2142 H 0.44042 0.18189 0.47518 0.0
H2143 H 0.39621 0.17776 0.45217 0.0
C2144 C 0.74981 0.84636 0.68289 0.0
C2145 C 0.74021 0.81583 0.70654 0.0
C2146 C 0.72377 0.86245 0.66119 0.0
C2147 C 0.68662 0.84837 0.66327 0.0
C2148 C 0.67669 0.81643 0.68612 0.0
C2149 C 0.70348 0.80071 0.70753 0.0
C2150 C 0.73622 0.89593 0.63725 0.0
C2151 C 0.63773 0.79992 0.6894 0.0
C2152 C 0.62883 0.91921 0.64161 0.0
C2153 C 0.61251 0.9162 0.60932 0.0
C2154 C 0.65157 0.8966 0.65946 0.0
C2155 C 0.6591 0.86993 0.645 0.0
C2156 C 0.64224 0.86609 0.61262 0.0
C2157 C 0.61904 0.88898 0.59531 0.0
C2158 C 0.66824 0.9019 0.69383 0.0
C2159 C 0.64933 0.83824 0.59599 0.0
H2160 H 0.77806 0.85845 0.68206 0.0
H2161 H 0.69557 0.77761 0.72605 0.0
H2162 H 0.72147 0.89419 0.61235 0.0
H2163 H 0.73039 0.91907 0.64518 0.0
H2164 H 0.7655 0.90101 0.63565 0.0
H2165 H 0.6342 0.77231 0.70356 0.0
H2166 H 0.6267 0.81621 0.70233 0.0
H2167 H 0.62178 0.79944 0.66483 0.0
H2168 H 0.62388 0.93957 0.65322 0.0
H2169 H 0.6068 0.88612 0.57051 0.0
H2170 H 0.69786 0.91034 0.69455 0.0
H2171 H 0.66249 0.87645 0.71135 0.0
H2172 H 0.65817 0.92232 0.70243 0.0
H2173 H 0.67823 0.84381 0.5928 0.0
H2174 H 0.63316 0.83735 0.57151 0.0
H2175 H 0.64308 0.8116 0.61164 0.0
C2176 C 0.68393 0.20675 0.32185 0.0
C2177 C 0.72074 0.21587 0.33275 0.0
C2178 C 0.65941 0.18576 0.34357 0.0
C2179 C 0.67221 0.17189 0.37642 0.0
C2180 C 0.70938 0.18132 0.38737 0.0
C2181 C 0.73293 0.20327 0.36559 0.0
C2182 C 0.61989 0.1779 0.33119 0.0
C2183 C 0.72463 0.1668 0.42173 0.0
C2184 C 0.61003 0.1304 0.44355 0.0
C2185 C 0.6023 0.09424 0.44102 0.0
C2186 C 0.63216 0.15607 0.42246 0.0
C2187 C 0.64762 0.1453 0.39862 0.0
C2188 C 0.64072 0.10851 0.39687 0.0
C2189 C 0.61763 0.08366 0.41753 0.0
C2190 C 0.63735 0.19482 0.42476 0.0
C2191 C 0.6578 0.09529 0.37315 0.0
H2192 H 0.67446 0.21523 0.29624 0.0
H2193 H 0.76148 0.20951 0.37395 0.0
H2194 H 0.61039 0.14901 0.33077 0.0
H2195 H 0.60442 0.18492 0.34812 0.0
H2196 H 0.61388 0.19288 0.30606 0.0
H2197 H 0.75407 0.17694 0.42662 0.0
H2198 H 0.71132 0.17406 0.44015 0.0
H2199 H 0.71925 0.13728 0.42541 0.0
H2200 H 0.59741 0.13883 0.46103 0.0
H2201 H 0.61142 0.05576 0.41528 0.0
H2202 H 0.61926 0.20725 0.40469 0.0
H2203 H 0.66529 0.20937 0.42174 0.0
H2204 H 0.63066 0.19825 0.44857 0.0
H2205 H 0.64853 0.10658 0.34749 0.0
H2206 H 0.65125 0.06578 0.37599 0.0
H2207 H 0.68745 0.10437 0.37704 0.0
C2208 C 0.84397 0.67854 0.31952 0.0
C2209 C 0.85936 0.71427 0.32186 0.0
C2210 C 0.86132 0.65062 0.33659 0.0
C2211 C 0.89443 0.65835 0.35729 0.0
C2212 C 0.90909 0.69441 0.36044 0.0
C2213 C 0.89197 0.72165 0.34227 0.0
C2214 C 0.84416 0.61297 0.33199 0.0
C2215 C 0.94316 0.70443 0.38309 0.0
C2216 C 0.92684 0.59114 0.42951 0.0
C2217 C 0.95807 0.58562 0.41987 0.0
C2218 C 0.90488 0.61277 0.4088 0.0
C2219 C 0.91347 0.62937 0.37688 0.0
C2220 C 0.94316 0.62135 0.36576 0.0
C2221 C 0.96528 0.59987 0.3874 0.0
C2222 C 0.87398 0.62 0.42223 0.0
C2223 C 0.9526 0.63695 0.33149 0.0
H2224 H 0.81922 0.67253 0.30329 0.0
H2225 H 0.90429 0.74919 0.34394 0.0
H2226 H 0.86464 0.59703 0.33287 0.0
H2227 H 0.82733 0.60002 0.35201 0.0
H2228 H 0.82644 0.61239 0.30823 0.0
H2229 H 0.95026 0.73338 0.38396 0.0
H2230 H 0.94008 0.68951 0.40841 0.0
H2231 H 0.96584 0.69704 0.37484 0.0
H2232 H 0.92066 0.5801 0.4544 0.0
H2233 H 0.98928 0.5961 0.37951 0.0
H2234 H 0.84903 0.61461 0.40505 0.0
H2235 H 0.87962 0.64849 0.42457 0.0
H2236 H 0.86933 0.60352 0.44674 0.0
H2237 H 0.92807 0.63388 0.31336 0.0
H2238 H 0.97247 0.62416 0.32467 0.0
H2239 H 0.96415 0.66587 0.32982 0.0
C2240 C 0.35688 0.77773 0.38167 0.0
C2241 C 0.35252 0.79795 0.35 0.0
C2242 C 0.37765 0.7933 0.40791 0.0
C2243 C 0.39473 0.82977 0.40215 0.0
C2244 C 0.39106 0.84997 0.37 0.0
C2245 C 0.36975 0.83389 0.34446 0.0
C2246 C 0.38048 0.77101 0.44186 0.0
C2247 C 0.40938 0.88877 0.36255 0.0
C2248 C 0.41875 0.89273 0.46305 0.0
C2249 C 0.45623 0.89763 0.46807 0.0
C2250 C 0.39787 0.8676 0.44442 0.0
C2251 C 0.41511 0.8479 0.42955 0.0
C2252 C 0.45281 0.8508 0.43676 0.0
C2253 C 0.47296 0.87551 0.4563 0.0
C2254 C 0.35769 0.86461 0.43815 0.0
C2255 C 0.47235 0.83068 0.42113 0.0
H2256 H 0.34347 0.7499 0.38608 0.0
H2257 H 0.36696 0.84951 0.31999 0.0
H2258 H 0.40896 0.77386 0.45292 0.0
H2259 H 0.36612 0.78053 0.45803 0.0
H2260 H 0.36873 0.74233 0.44158 0.0
H2261 H 0.40568 0.90001 0.33589 0.0
H2262 H 0.39841 0.90457 0.37606 0.0
H2263 H 0.4386 0.89209 0.37098 0.0
H2264 H 0.40594 0.91 0.47217 0.0
H2265 H 0.50205 0.87977 0.45984 0.0
H2266 H 0.3435 0.83632 0.43981 0.0
H2267 H 0.35038 0.87858 0.41292 0.0
H2268 H 0.34796 0.87667 0.45585 0.0
H2269 H 0.45759 0.80273 0.42144 0.0
H2270 H 0.50007 0.83073 0.43371 0.0
H2271 H 0.47412 0.84343 0.39502 0.0
C2272 C 0.20511 0.42741 0.34127 0.0
C2273 C 0.23812 0.43095 0.3617 0.0
C2274 C 0.17507 0.43632 0.34988 0.0
C2275 C 0.17812 0.44944 0.37949 0.0
C2276 C 0.21191 0.45531 0.39907 0.0
C2277 C 0.24131 0.44571 0.39013 0.0
C2278 C 0.13967 0.42953 0.32822 0.0
C2279 C 0.21654 0.46983 0.43059 0.0
C2280 C 0.10874 0.48895 0.40631 0.0
C2281 C 0.09411 0.46047 0.42984 0.0
C2282 C 0.13439 0.48512 0.38758 0.0
C2283 C 0.14557 0.45227 0.39281 0.0
C2284 C 0.12844 0.42275 0.41442 0.0
C2285 C 0.10297 0.42722 0.43256 0.0
C2286 C 0.1508 0.51654 0.36339 0.0
C2287 C 0.13884 0.38698 0.42022 0.0
H2288 H 0.20244 0.41698 0.31875 0.0
H2289 H 0.26642 0.4484 0.40632 0.0
H2290 H 0.12346 0.40329 0.33824 0.0
H2291 H 0.12395 0.45 0.32756 0.0
H2292 H 0.14361 0.42891 0.30266 0.0
H2293 H 0.24517 0.47622 0.44122 0.0
H2294 H 0.2055 0.4943 0.42616 0.0
H2295 H 0.20137 0.4499 0.44901 0.0
H2296 H 0.1018 0.51464 0.40391 0.0
H2297 H 0.09114 0.40487 0.45018 0.0
H2298 H 0.14782 0.50904 0.33879 0.0
H2299 H 0.18004 0.5245 0.37118 0.0
H2300 H 0.13815 0.53973 0.36107 0.0
H2301 H 0.13875 0.37862 0.39647 0.0
H2302 H 0.12046 0.36591 0.43518 0.0
H2303 H 0.16652 0.38905 0.43331 0.0
C2304 C 0.37221 0.15866 0.6283 0.0
C2305 C 0.39269 0.19359 0.62608 0.0
C2306 C 0.38533 0.13146 0.62001 0.0
C2307 C 0.41986 0.13929 0.6095 0.0
C2308 C 0.44061 0.17449 0.60723 0.0
C2309 C 0.42677 0.20114 0.61547 0.0
C2310 C 0.3623 0.09435 0.62257 0.0
C2311 C 0.4777 0.18397 0.59645 0.0
C2312 C 0.47483 0.06851 0.61851 0.0
C2313 C 0.47253 0.06367 0.58586 0.0
C2314 C 0.45639 0.09172 0.62677 0.0
C2315 C 0.4351 0.1107 0.60181 0.0
C2316 C 0.43111 0.10454 0.56908 0.0
C2317 C 0.44978 0.08104 0.56151 0.0
C2318 C 0.46135 0.09739 0.66198 0.0
C2319 C 0.40867 0.12419 0.5417 0.0
H2320 H 0.34569 0.1527 0.63613 0.0
H2321 H 0.44296 0.22792 0.6141 0.0
H2322 H 0.35796 0.08541 0.59847 0.0
H2323 H 0.37626 0.07545 0.64056 0.0
H2324 H 0.33572 0.09277 0.63037 0.0
H2325 H 0.49013 0.2127 0.59542 0.0
H2326 H 0.49551 0.16817 0.61373 0.0
H2327 H 0.47638 0.17721 0.57176 0.0
H2328 H 0.49212 0.05509 0.63756 0.0
H2329 H 0.44783 0.07763 0.53618 0.0
H2330 H 0.43493 0.09468 0.67048 0.0
H2331 H 0.47676 0.12481 0.66364 0.0
H2332 H 0.47599 0.07825 0.67894 0.0
H2333 H 0.38162 0.12192 0.54873 0.0
H2334 H 0.40555 0.11402 0.51828 0.0
H2335 H 0.42152 0.15291 0.53735 0.0
C2336 C 0.87471 0.33365 0.71251 0.0
C2337 C 0.84018 0.31576 0.70171 0.0
C2338 C 0.89762 0.35563 0.68999 0.0
C2339 C 0.8866 0.35831 0.65564 0.0
C2340 C 0.85156 0.34039 0.64468 0.0
C2341 C 0.8289 0.31941 0.6678 0.0
C2342 C 0.93413 0.37509 0.70299 0.0
C2343 C 0.83869 0.34153 0.6085 0.0
C2344 C 0.94001 0.43236 0.59637 0.0
C2345 C 0.96432 0.41504 0.58788 0.0
C2346 C 0.91429 0.41421 0.61779 0.0
C2347 C 0.91262 0.37773 0.63139 0.0
C2348 C 0.93647 0.35986 0.6223 0.0
C2349 C 0.96193 0.37863 0.60081 0.0
C2350 C 0.88897 0.43419 0.62598 0.0
C2351 C 0.93535 0.32085 0.63557 0.0
H2352 H 0.88431 0.32949 0.73857 0.0
H2353 H 0.80272 0.30453 0.65931 0.0
H2354 H 0.95534 0.36411 0.69619 0.0
H2355 H 0.93834 0.40372 0.69169 0.0
H2356 H 0.93745 0.37282 0.73017 0.0
H2357 H 0.8096 0.32956 0.60394 0.0
H2358 H 0.84364 0.36931 0.59496 0.0
H2359 H 0.85399 0.32662 0.59814 0.0
H2360 H 0.94125 0.46037 0.58654 0.0
H2361 H 0.98036 0.36478 0.59452 0.0
H2362 H 0.89047 0.43143 0.65302 0.0
H2363 H 0.86096 0.42255 0.61674 0.0
H2364 H 0.89496 0.46292 0.61499 0.0
H2365 H 0.94213 0.31672 0.66271 0.0
H2366 H 0.9544 0.31033 0.62497 0.0
H2367 H 0.90782 0.30506 0.63016 0.0
C2368 C 0.19891 0.66753 0.70949 0.0
C2369 C 0.23582 0.68061 0.7081 0.0
C2370 C 0.17767 0.64838 0.68563 0.0
C2371 C 0.19379 0.64193 0.65995 0.0
C2372 C 0.23111 0.6546 0.65879 0.0
C2373 C 0.25154 0.6739 0.68266 0.0
C2374 C 0.13789 0.63553 0.6876 0.0
C2375 C 0.24944 0.6483 0.63196 0.0
C2376 C 0.14216 0.57058 0.61 0.0
C2377 C 0.12608 0.59116 0.58262 0.0
C2378 C 0.16473 0.5867 0.63525 0.0
C2379 C 0.17136 0.62419 0.63296 0.0
C2380 C 0.15652 0.64511 0.60466 0.0
C2381 C 0.13422 0.62839 0.5799 0.0
C2382 C 0.18036 0.56353 0.66493 0.0
C2383 C 0.16318 0.68517 0.601 0.0
H2384 H 0.18658 0.67221 0.72921 0.0
H2385 H 0.28002 0.68376 0.68127 0.0
H2386 H 0.12259 0.64822 0.66532 0.0
H2387 H 0.13022 0.60633 0.68828 0.0
H2388 H 0.12968 0.6417 0.70964 0.0
H2389 H 0.27903 0.6581 0.63564 0.0
H2390 H 0.24374 0.61946 0.63094 0.0
H2391 H 0.23871 0.66203 0.60774 0.0
H2392 H 0.13574 0.5418 0.61251 0.0
H2393 H 0.12206 0.64455 0.55878 0.0
H2394 H 0.16908 0.56537 0.6871 0.0
H2395 H 0.2099 0.57305 0.6694 0.0
H2396 H 0.17455 0.53514 0.66209 0.0
H2397 H 0.15256 0.69243 0.62117 0.0
H2398 H 0.15031 0.69765 0.57712 0.0
H2399 H 0.19246 0.69666 0.60297 0.0
loop_
_geom_bond_atom_site_label_1
_geom_bond_atom_site_label_2
_geom_bond_distance
_geom_bond_site_symmetry_2
_ccdc_geom_bond_type
Tb0 N31 2.660 . S
Tb0 N38 2.600 . S
Tb0 O44 2.546 . S
Tb0 O45 2.610 . S
Tb0 O47 2.320 . S
Tb0 O48 2.552 . S
Tb0 O49 2.413 . S
Tb0 O51 2.362 . S
Tb0 O52 2.421 . S
Tb0 C64 2.833 . S
C1 C4 1.432 . S
C1 C5 1.414 . S
C1 N8 1.359 . S
C2 C4 1.417 . S
C2 C6 1.432 . S
C2 C14 1.410 . S
C3 C5 1.444 . S
C3 C6 1.317 . S
C3 H26 0.929 . S
C4 C1 1.432 . S
C4 C2 1.417 . S
C4 N12 1.360 . S
C5 C1 1.414 . S
C5 C3 1.444 . S
C5 C10 1.385 . S
C6 C2 1.432 . S
C6 C3 1.317 . S
C6 H18 0.930 . S
C7 C9 1.392 . S
C7 C10 1.370 . S
C7 H19 0.931 . S
N8 C1 1.359 . S
N8 C9 1.327 . S
N8 Tb11 2.600 . S
C9 C7 1.392 . S
C9 N8 1.327 . S
C9 H16 0.930 . S
C10 C5 1.385 . S
C10 C7 1.370 . S
C10 H29 0.930 . S
Tb11 N8 2.600 . S
Tb11 N12 2.660 . S
Tb11 O45 2.362 . S
Tb11 O46 2.421 . S
Tb11 O50 2.546 . S
Tb11 O51 2.610 . S
Tb11 O53 2.320 . S
Tb11 O54 2.552 . S
Tb11 O55 2.413 . S
Tb11 C75 2.833 . S
N12 C4 1.360 . S
N12 Tb11 2.660 . S
N12 C13 1.305 . S
C13 N12 1.305 . S
C13 C15 1.407 . S
C13 H20 0.930 . S
C14 C2 1.410 . S
C14 C15 1.345 . S
C14 H22 0.930 . S
C15 C13 1.407 . S
C15 C14 1.345 . S
C15 H17 0.930 . S
H16 C9 0.930 . S
H17 C15 0.930 . S
H18 C6 0.930 . S
H19 C7 0.931 . S
H20 C13 0.930 . S
H21 C35 0.930 . S
H22 C14 0.930 . S
H23 C41 0.930 . S
H24 C32 0.930 . S
H25 C39 0.931 . S
H26 C3 0.929 . S
H27 C33 0.930 . S
H28 C66 0.930 . S
H29 C10 0.930 . S
H30 C65 0.929 . S
N31 Tb0 2.660 . S
N31 C32 1.305 . S
N31 C36 1.360 . S
C32 H24 0.930 . S
C32 N31 1.305 . S
C32 C35 1.407 . S
C33 H27 0.930 . S
C33 C34 1.410 . S
C33 C35 1.345 . S
C34 C33 1.410 . S
C34 C36 1.417 . S
C34 C66 1.432 . S
C35 H21 0.930 . S
C35 C32 1.407 . S
C35 C33 1.345 . S
C36 N31 1.360 . S
C36 C34 1.417 . S
C36 C40 1.432 . S
H37 C42 0.930 . S
N38 Tb0 2.600 . S
N38 C40 1.359 . S
N38 C41 1.327 . S
C39 H25 0.931 . S
C39 C41 1.392 . S
C39 C42 1.370 . S
C40 C36 1.432 . S
C40 N38 1.359 . S
C40 C43 1.414 . S
C41 H23 0.930 . S
C41 N38 1.327 . S
C41 C39 1.392 . S
C42 H37 0.930 . S
C42 C39 1.370 . S
C42 C43 1.385 . S
C43 C40 1.414 . S
C43 C42 1.385 . S
C43 C65 1.444 . S
O44 Tb0 2.546 . S
O44 C64 1.251 . S
O45 Tb0 2.610 . S
O45 Tb11 2.362 . S
O45 C56 1.283 . S
O46 Tb11 2.421 . S
O46 C63 1.262 . S
O47 Tb0 2.320 . S
O47 C63 1.260 . S
O48 Tb0 2.552 . S
O48 C56 1.243 . S
O49 Tb0 2.413 . S
O49 C64 1.256 . S
O50 Tb11 2.546 . S
O50 C75 1.251 . S
O51 Tb0 2.362 . S
O51 Tb11 2.610 . S
O51 C67 1.283 . S
O52 Tb0 2.421 . S
O52 C74 1.262 . S
O53 Tb11 2.320 . S
O53 C74 1.260 . S
O54 Tb11 2.552 . S
O54 C67 1.243 . S
O55 Tb11 2.413 . S
O55 C75 1.256 . S
C56 O45 1.283 . S
C56 O48 1.243 . S
C57 C59 1.382 . S
C57 C61 1.393 . S
C57 C64 1.500 . S
C58 C59 1.400 . S
C58 C60 1.384 . S
C59 C57 1.382 . S
C59 C58 1.400 . S
C59 H76 0.930 . S
C60 C58 1.384 . S
C60 C62 1.392 . S
C60 H77 0.931 . S
C61 C57 1.393 . S
C61 C62 1.401 . S
C61 H78 0.930 . S
C62 C60 1.392 . S
C62 C61 1.401 . S
C62 H79 0.930 . S
C63 O46 1.262 . S
C63 O47 1.260 . S
C64 Tb0 2.833 . S
C64 O44 1.251 . S
C64 O49 1.256 . S
C64 C57 1.500 . S
C65 H30 0.929 . S
C65 C43 1.444 . S
C65 C66 1.317 . S
C66 H28 0.930 . S
C66 C34 1.432 . S
C66 C65 1.317 . S
C67 O51 1.283 . S
C67 O54 1.243 . S
C68 C69 1.382 . S
C68 C72 1.393 . S
C68 C75 1.500 . S
C69 C68 1.382 . S
C69 C70 1.400 . S
C69 H80 0.930 . S
C70 C69 1.400 . S
C70 C71 1.384 . S
C71 C70 1.384 . S
C71 C73 1.392 . S
C71 H81 0.931 . S
C72 C68 1.393 . S
C72 C73 1.401 . S
C72 H82 0.930 . S
C73 C71 1.392 . S
C73 C72 1.401 . S
C73 H83 0.930 . S
C74 O52 1.262 . S
C74 O53 1.260 . S
C75 Tb11 2.833 . S
C75 O50 1.251 . S
C75 O55 1.256 . S
C75 C68 1.500 . S
H76 C59 0.930 . S
H77 C60 0.931 . S
H78 C61 0.930 . S
H79 C62 0.930 . S
H80 C69 0.930 . S
H81 C71 0.931 . S
H82 C72 0.930 . S
H83 C73 0.930 . S
Tb84 N115 2.660 . S
Tb84 N122 2.600 . S
Tb84 O128 2.546 . S
Tb84 O129 2.610 . S
Tb84 O131 2.320 . S
Tb84 O132 2.552 . S
Tb84 O133 2.413 . S
Tb84 O135 2.362 . S
Tb84 O136 2.421 . S
Tb84 C148 2.833 . S
C85 C88 1.432 . S
C85 C89 1.414 . S
C85 N92 1.359 . S
C86 C88 1.417 . S
C86 C90 1.432 . S
C86 C98 1.410 . S
C87 C89 1.444 . S
C87 C90 1.317 . S
C87 H110 0.929 . S
C88 C85 1.432 . S
C88 C86 1.417 . S
C88 N96 1.360 . S
C89 C85 1.414 . S
C89 C87 1.444 . S
C89 C94 1.385 . S
C90 C86 1.432 . S
C90 C87 1.317 . S
C90 H102 0.930 . S
C91 C93 1.392 . S
C91 C94 1.370 . S
C91 H103 0.931 . S
N92 C85 1.359 . S
N92 C93 1.327 . S
N92 Tb95 2.600 . S
C93 C91 1.392 . S
C93 N92 1.327 . S
C93 H100 0.930 . S
C94 C89 1.385 . S
C94 C91 1.370 . S
C94 H113 0.930 . S
Tb95 N92 2.600 . S
Tb95 N96 2.660 . S
Tb95 O129 2.362 . S
Tb95 O130 2.421 . S
Tb95 O134 2.546 . S
Tb95 O135 2.610 . S
Tb95 O137 2.320 . S
Tb95 O138 2.552 . S
Tb95 O139 2.413 . S
Tb95 C159 2.833 . S
N96 C88 1.360 . S
N96 Tb95 2.660 . S
N96 C97 1.305 . S
C97 N96 1.305 . S
C97 C99 1.407 . S
C97 H104 0.930 . S
C98 C86 1.410 . S
C98 C99 1.345 . S
C98 H106 0.930 . S
C99 C97 1.407 . S
C99 C98 1.345 . S
C99 H101 0.930 . S
H100 C93 0.930 . S
H101 C99 0.930 . S
H102 C90 0.930 . S
H103 C91 0.931 . S
H104 C97 0.930 . S
H105 C119 0.930 . S
H106 C98 0.930 . S
H107 C125 0.930 . S
H108 C116 0.930 . S
H109 C123 0.931 . S
H110 C87 0.929 . S
H111 C117 0.930 . S
H112 C150 0.930 . S
H113 C94 0.930 . S
H114 C149 0.929 . S
N115 Tb84 2.660 . S
N115 C116 1.305 . S
N115 C120 1.360 . S
C116 H108 0.930 . S
C116 N115 1.305 . S
C116 C119 1.407 . S
C117 H111 0.930 . S
C117 C118 1.410 . S
C117 C119 1.345 . S
C118 C117 1.410 . S
C118 C120 1.417 . S
C118 C150 1.432 . S
C119 H105 0.930 . S
C119 C116 1.407 . S
C119 C117 1.345 . S
C120 N115 1.360 . S
C120 C118 1.417 . S
C120 C124 1.432 . S
H121 C126 0.930 . S
N122 Tb84 2.600 . S
N122 C124 1.359 . S
N122 C125 1.327 . S
C123 H109 0.931 . S
C123 C125 1.392 . S
C123 C126 1.370 . S
C124 C120 1.432 . S
C124 N122 1.359 . S
C124 C127 1.414 . S
C125 H107 0.930 . S
C125 N122 1.327 . S
C125 C123 1.392 . S
C126 H121 0.930 . S
C126 C123 1.370 . S
C126 C127 1.385 . S
C127 C124 1.414 . S
C127 C126 1.385 . S
C127 C149 1.444 . S
O128 Tb84 2.546 . S
O128 C148 1.251 . S
O129 Tb84 2.610 . S
O129 Tb95 2.362 . S
O129 C140 1.283 . S
O130 Tb95 2.421 . S
O130 C147 1.262 . S
O131 Tb84 2.320 . S
O131 C147 1.260 . S
O132 Tb84 2.552 . S
O132 C140 1.243 . S
O133 Tb84 2.413 . S
O133 C148 1.256 . S
O134 Tb95 2.546 . S
O134 C159 1.251 . S
O135 Tb84 2.362 . S
O135 Tb95 2.610 . S
O135 C151 1.283 . S
O136 Tb84 2.421 . S
O136 C158 1.262 . S
O137 Tb95 2.320 . S
O137 C158 1.260 . S
O138 Tb95 2.552 . S
O138 C151 1.243 . S
O139 Tb95 2.413 . S
O139 C159 1.256 . S
C140 O129 1.283 . S
C140 O132 1.243 . S
C141 C143 1.382 . S
C141 C145 1.393 . S
C141 C148 1.500 . S
C142 C143 1.400 . S
C142 C144 1.384 . S
C143 C141 1.382 . S
C143 C142 1.400 . S
C143 H160 0.930 . S
C144 C142 1.384 . S
C144 C146 1.392 . S
C144 H161 0.931 . S
C145 C141 1.393 . S
C145 C146 1.401 . S
C145 H162 0.930 . S
C146 C144 1.392 . S
C146 C145 1.401 . S
C146 H163 0.930 . S
C147 O130 1.262 . S
C147 O131 1.260 . S
C148 Tb84 2.833 . S
C148 O128 1.251 . S
C148 O133 1.256 . S
C148 C141 1.500 . S
C149 H114 0.929 . S
C149 C127 1.444 . S
C149 C150 1.317 . S
C150 H112 0.930 . S
C150 C118 1.432 . S
C150 C149 1.317 . S
C151 O135 1.283 . S
C151 O138 1.243 . S
C152 C153 1.382 . S
C152 C156 1.393 . S
C152 C159 1.500 . S
C153 C152 1.382 . S
C153 C154 1.400 . S
C153 H164 0.930 . S
C154 C153 1.400 . S
C154 C155 1.384 . S
C155 C154 1.384 . S
C155 C157 1.392 . S
C155 H165 0.931 . S
C156 C152 1.393 . S
C156 C157 1.401 . S
C156 H166 0.930 . S
C157 C155 1.392 . S
C157 C156 1.401 . S
C157 H167 0.930 . S
C158 O136 1.262 . S
C158 O137 1.260 . S
C159 Tb95 2.833 . S
C159 O134 1.251 . S
C159 O139 1.256 . S
C159 C152 1.500 . S
H160 C143 0.930 . S
H161 C144 0.931 . S
H162 C145 0.930 . S
H163 C146 0.930 . S
H164 C153 0.930 . S
H165 C155 0.931 . S
H166 C156 0.930 . S
H167 C157 0.930 . S
Tb168 N199 2.660 . S
Tb168 N206 2.600 . S
Tb168 O212 2.546 . S
Tb168 O213 2.610 . S
Tb168 O215 2.320 . S
Tb168 O216 2.552 . S
Tb168 O217 2.413 . S
Tb168 O219 2.362 . S
Tb168 O220 2.421 . S
Tb168 C232 2.833 . S
C169 C172 1.432 . S
C169 C173 1.414 . S
C169 N176 1.359 . S
C170 C172 1.417 . S
C170 C174 1.432 . S
C170 C182 1.410 . S
C171 C173 1.444 . S
C171 C174 1.317 . S
C171 H194 0.929 . S
C172 C169 1.432 . S
C172 C170 1.417 . S
C172 N180 1.360 . S
C173 C169 1.414 . S
C173 C171 1.444 . S
C173 C178 1.385 . S
C174 C170 1.432 . S
C174 C171 1.317 . S
C174 H186 0.930 . S
C175 C177 1.392 . S
C175 C178 1.370 . S
C175 H187 0.931 . S
N176 C169 1.359 . S
N176 C177 1.327 . S
N176 Tb179 2.600 . S
C177 C175 1.392 . S
C177 N176 1.327 . S
C177 H184 0.930 . S
C178 C173 1.385 . S
C178 C175 1.370 . S
C178 H197 0.930 . S
Tb179 N176 2.600 . S
Tb179 N180 2.660 . S
Tb179 O213 2.362 . S
Tb179 O214 2.421 . S
Tb179 O218 2.546 . S
Tb179 O219 2.610 . S
Tb179 O221 2.320 . S
Tb179 O222 2.552 . S
Tb179 O223 2.413 . S
Tb179 C243 2.833 . S
N180 C172 1.360 . S
N180 Tb179 2.660 . S
N180 C181 1.305 . S
C181 N180 1.305 . S
C181 C183 1.407 . S
C181 H188 0.930 . S
C182 C170 1.410 . S
C182 C183 1.345 . S
C182 H190 0.930 . S
C183 C181 1.407 . S
C183 C182 1.345 . S
C183 H185 0.930 . S
H184 C177 0.930 . S
H185 C183 0.930 . S
H186 C174 0.930 . S
H187 C175 0.931 . S
H188 C181 0.930 . S
H189 C203 0.930 . S
H190 C182 0.930 . S
H191 C209 0.930 . S
H192 C200 0.930 . S
H193 C207 0.931 . S
H194 C171 0.929 . S
H195 C201 0.930 . S
H196 C234 0.930 . S
H197 C178 0.930 . S
H198 C233 0.929 . S
N199 Tb168 2.660 . S
N199 C200 1.305 . S
N199 C204 1.360 . S
C200 H192 0.930 . S
C200 N199 1.305 . S
C200 C203 1.407 . S
C201 H195 0.930 . S
C201 C202 1.410 . S
C201 C203 1.345 . S
C202 C201 1.410 . S
C202 C204 1.417 . S
C202 C234 1.432 . S
C203 H189 0.930 . S
C203 C200 1.407 . S
C203 C201 1.345 . S
C204 N199 1.360 . S
C204 C202 1.417 . S
C204 C208 1.432 . S
H205 C210 0.930 . S
N206 Tb168 2.600 . S
N206 C208 1.359 . S
N206 C209 1.327 . S
C207 H193 0.931 . S
C207 C209 1.392 . S
C207 C210 1.370 . S
C208 C204 1.432 . S
C208 N206 1.359 . S
C208 C211 1.414 . S
C209 H191 0.930 . S
C209 N206 1.327 . S
C209 C207 1.392 . S
C210 H205 0.930 . S
C210 C207 1.370 . S
C210 C211 1.385 . S
C211 C208 1.414 . S
C211 C210 1.385 . S
C211 C233 1.444 . S
O212 Tb168 2.546 . S
O212 C232 1.251 . S
O213 Tb168 2.610 . S
O213 Tb179 2.362 . S
O213 C224 1.283 . S
O214 Tb179 2.421 . S
O214 C231 1.262 . S
O215 Tb168 2.320 . S
O215 C231 1.260 . S
O216 Tb168 2.552 . S
O216 C224 1.243 . S
O217 Tb168 2.413 . S
O217 C232 1.256 . S
O218 Tb179 2.546 . S
O218 C243 1.251 . S
O219 Tb168 2.362 . S
O219 Tb179 2.610 . S
O219 C235 1.283 . S
O220 Tb168 2.421 . S
O220 C242 1.262 . S
O221 Tb179 2.320 . S
O221 C242 1.260 . S
O222 Tb179 2.552 . S
O222 C235 1.243 . S
O223 Tb179 2.413 . S
O223 C243 1.256 . S
C224 O213 1.283 . S
C224 O216 1.243 . S
C225 C227 1.382 . S
C225 C229 1.393 . S
C225 C232 1.500 . S
C226 C227 1.400 . S
C226 C228 1.384 . S
C227 C225 1.382 . S
C227 C226 1.400 . S
C227 H244 0.930 . S
C228 C226 1.384 . S
C228 C230 1.392 . S
C228 H245 0.931 . S
C229 C225 1.393 . S
C229 C230 1.401 . S
C229 H246 0.930 . S
C230 C228 1.392 . S
C230 C229 1.401 . S
C230 H247 0.930 . S
C231 O214 1.262 . S
C231 O215 1.260 . S
C232 Tb168 2.833 . S
C232 O212 1.251 . S
C232 O217 1.256 . S
C232 C225 1.500 . S
C233 H198 0.929 . S
C233 C211 1.444 . S
C233 C234 1.317 . S
C234 H196 0.930 . S
C234 C202 1.432 . S
C234 C233 1.317 . S
C235 O219 1.283 . S
C235 O222 1.243 . S
C236 C237 1.382 . S
C236 C240 1.393 . S
C236 C243 1.500 . S
C237 C236 1.382 . S
C237 C238 1.400 . S
C237 H248 0.930 . S
C238 C237 1.400 . S
C238 C239 1.384 . S
C239 C238 1.384 . S
C239 C241 1.392 . S
C239 H249 0.931 . S
C240 C236 1.393 . S
C240 C241 1.401 . S
C240 H250 0.930 . S
C241 C239 1.392 . S
C241 C240 1.401 . S
C241 H251 0.930 . S
C242 O220 1.262 . S
C242 O221 1.260 . S
C243 Tb179 2.833 . S
C243 O218 1.251 . S
C243 O223 1.256 . S
C243 C236 1.500 . S
H244 C227 0.930 . S
H245 C228 0.931 . S
H246 C229 0.930 . S
H247 C230 0.930 . S
H248 C237 0.930 . S
H249 C239 0.931 . S
H250 C240 0.930 . S
H251 C241 0.930 . S
Tb252 N283 2.660 . S
Tb252 N290 2.600 . S
Tb252 O296 2.546 . S
Tb252 O297 2.610 . S
Tb252 O299 2.320 . S
Tb252 O300 2.552 . S
Tb252 O301 2.413 . S
Tb252 O303 2.362 . S
Tb252 O304 2.421 . S
Tb252 C316 2.833 . S
C253 C256 1.432 . S
C253 C257 1.414 . S
C253 N260 1.359 . S
C254 C256 1.417 . S
C254 C258 1.432 . S
C254 C266 1.410 . S
C255 C257 1.444 . S
C255 C258 1.317 . S
C255 H278 0.929 . S
C256 C253 1.432 . S
C256 C254 1.417 . S
C256 N264 1.360 . S
C257 C253 1.414 . S
C257 C255 1.444 . S
C257 C262 1.385 . S
C258 C254 1.432 . S
C258 C255 1.317 . S
C258 H270 0.930 . S
C259 C261 1.392 . S
C259 C262 1.370 . S
C259 H271 0.931 . S
N260 C253 1.359 . S
N260 C261 1.327 . S
N260 Tb263 2.600 . S
C261 C259 1.392 . S
C261 N260 1.327 . S
C261 H268 0.930 . S
C262 C257 1.385 . S
C262 C259 1.370 . S
C262 H281 0.930 . S
Tb263 N260 2.600 . S
Tb263 N264 2.660 . S
Tb263 O297 2.362 . S
Tb263 O298 2.421 . S
Tb263 O302 2.546 . S
Tb263 O303 2.610 . S
Tb263 O305 2.320 . S
Tb263 O306 2.552 . S
Tb263 O307 2.413 . S
Tb263 C327 2.833 . S
N264 C256 1.360 . S
N264 Tb263 2.660 . S
N264 C265 1.305 . S
C265 N264 1.305 . S
C265 C267 1.407 . S
C265 H272 0.930 . S
C266 C254 1.410 . S
C266 C267 1.345 . S
C266 H274 0.930 . S
C267 C265 1.407 . S
C267 C266 1.345 . S
C267 H269 0.930 . S
H268 C261 0.930 . S
H269 C267 0.930 . S
H270 C258 0.930 . S
H271 C259 0.931 . S
H272 C265 0.930 . S
H273 C287 0.930 . S
H274 C266 0.930 . S
H275 C293 0.930 . S
H276 C284 0.930 . S
H277 C291 0.931 . S
H278 C255 0.929 . S
H279 C285 0.930 . S
H280 C318 0.930 . S
H281 C262 0.930 . S
H282 C317 0.929 . S
N283 Tb252 2.660 . S
N283 C284 1.305 . S
N283 C288 1.360 . S
C284 H276 0.930 . S
C284 N283 1.305 . S
C284 C287 1.407 . S
C285 H279 0.930 . S
C285 C286 1.410 . S
C285 C287 1.345 . S
C286 C285 1.410 . S
C286 C288 1.417 . S
C286 C318 1.432 . S
C287 H273 0.930 . S
C287 C284 1.407 . S
C287 C285 1.345 . S
C288 N283 1.360 . S
C288 C286 1.417 . S
C288 C292 1.432 . S
H289 C294 0.930 . S
N290 Tb252 2.600 . S
N290 C292 1.359 . S
N290 C293 1.327 . S
C291 H277 0.931 . S
C291 C293 1.392 . S
C291 C294 1.370 . S
C292 C288 1.432 . S
C292 N290 1.359 . S
C292 C295 1.414 . S
C293 H275 0.930 . S
C293 N290 1.327 . S
C293 C291 1.392 . S
C294 H289 0.930 . S
C294 C291 1.370 . S
C294 C295 1.385 . S
C295 C292 1.414 . S
C295 C294 1.385 . S
C295 C317 1.444 . S
O296 Tb252 2.546 . S
O296 C316 1.251 . S
O297 Tb252 2.610 . S
O297 Tb263 2.362 . S
O297 C308 1.283 . S
O298 Tb263 2.421 . S
O298 C315 1.262 . S
O299 Tb252 2.320 . S
O299 C315 1.260 . S
O300 Tb252 2.552 . S
O300 C308 1.243 . S
O301 Tb252 2.413 . S
O301 C316 1.256 . S
O302 Tb263 2.546 . S
O302 C327 1.251 . S
O303 Tb252 2.362 . S
O303 Tb263 2.610 . S
O303 C319 1.283 . S
O304 Tb252 2.421 . S
O304 C326 1.262 . S
O305 Tb263 2.320 . S
O305 C326 1.260 . S
O306 Tb263 2.552 . S
O306 C319 1.243 . S
O307 Tb263 2.413 . S
O307 C327 1.256 . S
C308 O297 1.283 . S
C308 O300 1.243 . S
C309 C311 1.382 . S
C309 C313 1.393 . S
C309 C316 1.500 . S
C310 C311 1.400 . S
C310 C312 1.384 . S
C311 C309 1.382 . S
C311 C310 1.400 . S
C311 H328 0.930 . S
C312 C310 1.384 . S
C312 C314 1.392 . S
C312 H329 0.931 . S
C313 C309 1.393 . S
C313 C314 1.401 . S
C313 H330 0.930 . S
C314 C312 1.392 . S
C314 C313 1.401 . S
C314 H331 0.930 . S
C315 O298 1.262 . S
C315 O299 1.260 . S
C316 Tb252 2.833 . S
C316 O296 1.251 . S
C316 O301 1.256 . S
C316 C309 1.500 . S
C317 H282 0.929 . S
C317 C295 1.444 . S
C317 C318 1.317 . S
C318 H280 0.930 . S
C318 C286 1.432 . S
C318 C317 1.317 . S
C319 O303 1.283 . S
C319 O306 1.243 . S
C320 C321 1.382 . S
C320 C324 1.393 . S
C320 C327 1.500 . S
C321 C320 1.382 . S
C321 C322 1.400 . S
C321 H332 0.930 . S
C322 C321 1.400 . S
C322 C323 1.384 . S
C323 C322 1.384 . S
C323 C325 1.392 . S
C323 H333 0.931 . S
C324 C320 1.393 . S
C324 C325 1.401 . S
C324 H334 0.930 . S
C325 C323 1.392 . S
C325 C324 1.401 . S
C325 H335 0.930 . S
C326 O304 1.262 . S
C326 O305 1.260 . S
C327 Tb263 2.833 . S
C327 O302 1.251 . S
C327 O307 1.256 . S
C327 C320 1.500 . S
H328 C311 0.930 . S
H329 C312 0.931 . S
H330 C313 0.930 . S
H331 C314 0.930 . S
H332 C321 0.930 . S
H333 C323 0.931 . S
H334 C324 0.930 . S
H335 C325 0.930 . S
Tb336 N367 2.660 . S
Tb336 N374 2.600 . S
Tb336 O380 2.546 . S
Tb336 O381 2.610 . S
Tb336 O383 2.320 . S
Tb336 O384 2.552 . S
Tb336 O385 2.413 . S
Tb336 O387 2.362 . S
Tb336 O388 2.421 . S
Tb336 C400 2.833 . S
C337 C340 1.432 . S
C337 C341 1.414 . S
C337 N344 1.359 . S
C338 C340 1.417 . S
C338 C342 1.432 . S
C338 C350 1.410 . S
C339 C341 1.444 . S
C339 C342 1.317 . S
C339 H362 0.929 . S
C340 C337 1.432 . S
C340 C338 1.417 . S
C340 N348 1.360 . S
C341 C337 1.414 . S
C341 C339 1.444 . S
C341 C346 1.385 . S
C342 C338 1.432 . S
C342 C339 1.317 . S
C342 H354 0.930 . S
C343 C345 1.392 . S
C343 C346 1.370 . S
C343 H355 0.931 . S
N344 C337 1.359 . S
N344 C345 1.327 . S
N344 Tb347 2.600 . S
C345 C343 1.392 . S
C345 N344 1.327 . S
C345 H352 0.930 . S
C346 C341 1.385 . S
C346 C343 1.370 . S
C346 H365 0.930 . S
Tb347 N344 2.600 . S
Tb347 N348 2.660 . S
Tb347 O381 2.362 . S
Tb347 O382 2.421 . S
Tb347 O386 2.546 . S
Tb347 O387 2.610 . S
Tb347 O389 2.320 . S
Tb347 O390 2.552 . S
Tb347 O391 2.413 . S
Tb347 C411 2.833 . S
N348 C340 1.360 . S
N348 Tb347 2.660 . S
N348 C349 1.305 . S
C349 N348 1.305 . S
C349 C351 1.407 . S
C349 H356 0.930 . S
C350 C338 1.410 . S
C350 C351 1.345 . S
C350 H358 0.930 . S
C351 C349 1.407 . S
C351 C350 1.345 . S
C351 H353 0.930 . S
H352 C345 0.930 . S
H353 C351 0.930 . S
H354 C342 0.930 . S
H355 C343 0.931 . S
H356 C349 0.930 . S
H357 C371 0.930 . S
H358 C350 0.930 . S
H359 C377 0.930 . S
H360 C368 0.930 . S
H361 C375 0.931 . S
H362 C339 0.929 . S
H363 C369 0.930 . S
H364 C402 0.930 . S
H365 C346 0.930 . S
H366 C401 0.929 . S
N367 Tb336 2.660 . S
N367 C368 1.305 . S
N367 C372 1.360 . S
C368 H360 0.930 . S
C368 N367 1.305 . S
C368 C371 1.407 . S
C369 H363 0.930 . S
C369 C370 1.410 . S
C369 C371 1.345 . S
C370 C369 1.410 . S
C370 C372 1.417 . S
C370 C402 1.432 . S
C371 H357 0.930 . S
C371 C368 1.407 . S
C371 C369 1.345 . S
C372 N367 1.360 . S
C372 C370 1.417 . S
C372 C376 1.432 . S
H373 C378 0.930 . S
N374 Tb336 2.600 . S
N374 C376 1.359 . S
N374 C377 1.327 . S
C375 H361 0.931 . S
C375 C377 1.392 . S
C375 C378 1.370 . S
C376 C372 1.432 . S
C376 N374 1.359 . S
C376 C379 1.414 . S
C377 H359 0.930 . S
C377 N374 1.327 . S
C377 C375 1.392 . S
C378 H373 0.930 . S
C378 C375 1.370 . S
C378 C379 1.385 . S
C379 C376 1.414 . S
C379 C378 1.385 . S
C379 C401 1.444 . S
O380 Tb336 2.546 . S
O380 C400 1.251 . S
O381 Tb336 2.610 . S
O381 Tb347 2.362 . S
O381 C392 1.283 . S
O382 Tb347 2.421 . S
O382 C399 1.262 . S
O383 Tb336 2.320 . S
O383 C399 1.260 . S
O384 Tb336 2.552 . S
O384 C392 1.243 . S
O385 Tb336 2.413 . S
O385 C400 1.256 . S
O386 Tb347 2.546 . S
O386 C411 1.251 . S
O387 Tb336 2.362 . S
O387 Tb347 2.610 . S
O387 C403 1.283 . S
O388 Tb336 2.421 . S
O388 C410 1.262 . S
O389 Tb347 2.320 . S
O389 C410 1.260 . S
O390 Tb347 2.552 . S
O390 C403 1.243 . S
O391 Tb347 2.413 . S
O391 C411 1.256 . S
C392 O381 1.283 . S
C392 O384 1.243 . S
C393 C395 1.382 . S
C393 C397 1.393 . S
C393 C400 1.500 . S
C394 C395 1.400 . S
C394 C396 1.384 . S
C395 C393 1.382 . S
C395 C394 1.400 . S
C395 H412 0.930 . S
C396 C394 1.384 . S
C396 C398 1.392 . S
C396 H413 0.931 . S
C397 C393 1.393 . S
C397 C398 1.401 . S
C397 H414 0.930 . S
C398 C396 1.392 . S
C398 C397 1.401 . S
C398 H415 0.930 . S
C399 O382 1.262 . S
C399 O383 1.260 . S
C400 Tb336 2.833 . S
C400 O380 1.251 . S
C400 O385 1.256 . S
C400 C393 1.500 . S
C401 H366 0.929 . S
C401 C379 1.444 . S
C401 C402 1.317 . S
C402 H364 0.930 . S
C402 C370 1.432 . S
C402 C401 1.317 . S
C403 O387 1.283 . S
C403 O390 1.243 . S
C404 C405 1.382 . S
C404 C408 1.393 . S
C404 C411 1.500 . S
C405 C404 1.382 . S
C405 C406 1.400 . S
C405 H416 0.930 . S
C406 C405 1.400 . S
C406 C407 1.384 . S
C407 C406 1.384 . S
C407 C409 1.392 . S
C407 H417 0.931 . S
C408 C404 1.393 . S
C408 C409 1.401 . S
C408 H418 0.930 . S
C409 C407 1.392 . S
C409 C408 1.401 . S
C409 H419 0.930 . S
C410 O388 1.262 . S
C410 O389 1.260 . S
C411 Tb347 2.833 . S
C411 O386 1.251 . S
C411 O391 1.256 . S
C411 C404 1.500 . S
H412 C395 0.930 . S
H413 C396 0.931 . S
H414 C397 0.930 . S
H415 C398 0.930 . S
H416 C405 0.930 . S
H417 C407 0.931 . S
H418 C408 0.930 . S
H419 C409 0.930 . S
Tb420 N451 2.660 . S
Tb420 N458 2.600 . S
Tb420 O464 2.546 . S
Tb420 O465 2.610 . S
Tb420 O467 2.320 . S
Tb420 O468 2.552 . S
Tb420 O469 2.413 . S
Tb420 O471 2.362 . S
Tb420 O472 2.421 . S
Tb420 C484 2.833 . S
C421 C424 1.432 . S
C421 C425 1.414 . S
C421 N428 1.359 . S
C422 C424 1.417 . S
C422 C426 1.432 . S
C422 C434 1.410 . S
C423 C425 1.444 . S
C423 C426 1.317 . S
C423 H446 0.929 . S
C424 C421 1.432 . S
C424 C422 1.417 . S
C424 N432 1.360 . S
C425 C421 1.414 . S
C425 C423 1.444 . S
C425 C430 1.385 . S
C426 C422 1.432 . S
C426 C423 1.317 . S
C426 H438 0.930 . S
C427 C429 1.392 . S
C427 C430 1.370 . S
C427 H439 0.931 . S
N428 C421 1.359 . S
N428 C429 1.327 . S
N428 Tb431 2.600 . S
C429 C427 1.392 . S
C429 N428 1.327 . S
C429 H436 0.930 . S
C430 C425 1.385 . S
C430 C427 1.370 . S
C430 H449 0.930 . S
Tb431 N428 2.600 . S
Tb431 N432 2.660 . S
Tb431 O465 2.362 . S
Tb431 O466 2.421 . S
Tb431 O470 2.546 . S
Tb431 O471 2.610 . S
Tb431 O473 2.320 . S
Tb431 O474 2.552 . S
Tb431 O475 2.413 . S
Tb431 C495 2.833 . S
N432 C424 1.360 . S
N432 Tb431 2.660 . S
N432 C433 1.305 . S
C433 N432 1.305 . S
C433 C435 1.407 . S
C433 H440 0.930 . S
C434 C422 1.410 . S
C434 C435 1.345 . S
C434 H442 0.930 . S
C435 C433 1.407 . S
C435 C434 1.345 . S
C435 H437 0.930 . S
H436 C429 0.930 . S
H437 C435 0.930 . S
H438 C426 0.930 . S
H439 C427 0.931 . S
H440 C433 0.930 . S
H441 C455 0.930 . S
H442 C434 0.930 . S
H443 C461 0.930 . S
H444 C452 0.930 . S
H445 C459 0.931 . S
H446 C423 0.929 . S
H447 C453 0.930 . S
H448 C486 0.930 . S
H449 C430 0.930 . S
H450 C485 0.929 . S
N451 Tb420 2.660 . S
N451 C452 1.305 . S
N451 C456 1.360 . S
C452 H444 0.930 . S
C452 N451 1.305 . S
C452 C455 1.407 . S
C453 H447 0.930 . S
C453 C454 1.410 . S
C453 C455 1.345 . S
C454 C453 1.410 . S
C454 C456 1.417 . S
C454 C486 1.432 . S
C455 H441 0.930 . S
C455 C452 1.407 . S
C455 C453 1.345 . S
C456 N451 1.360 . S
C456 C454 1.417 . S
C456 C460 1.432 . S
H457 C462 0.930 . S
N458 Tb420 2.600 . S
N458 C460 1.359 . S
N458 C461 1.327 . S
C459 H445 0.931 . S
C459 C461 1.392 . S
C459 C462 1.370 . S
C460 C456 1.432 . S
C460 N458 1.359 . S
C460 C463 1.414 . S
C461 H443 0.930 . S
C461 N458 1.327 . S
C461 C459 1.392 . S
C462 H457 0.930 . S
C462 C459 1.370 . S
C462 C463 1.385 . S
C463 C460 1.414 . S
C463 C462 1.385 . S
C463 C485 1.444 . S
O464 Tb420 2.546 . S
O464 C484 1.251 . S
O465 Tb420 2.610 . S
O465 Tb431 2.362 . S
O465 C476 1.283 . S
O466 Tb431 2.421 . S
O466 C483 1.262 . S
O467 Tb420 2.320 . S
O467 C483 1.260 . S
O468 Tb420 2.552 . S
O468 C476 1.243 . S
O469 Tb420 2.413 . S
O469 C484 1.256 . S
O470 Tb431 2.546 . S
O470 C495 1.251 . S
O471 Tb420 2.362 . S
O471 Tb431 2.610 . S
O471 C487 1.283 . S
O472 Tb420 2.421 . S
O472 C494 1.262 . S
O473 Tb431 2.320 . S
O473 C494 1.260 . S
O474 Tb431 2.552 . S
O474 C487 1.243 . S
O475 Tb431 2.413 . S
O475 C495 1.256 . S
C476 O465 1.283 . S
C476 O468 1.243 . S
C477 C479 1.382 . S
C477 C481 1.393 . S
C477 C484 1.500 . S
C478 C479 1.400 . S
C478 C480 1.384 . S
C479 C477 1.382 . S
C479 C478 1.400 . S
C479 H496 0.930 . S
C480 C478 1.384 . S
C480 C482 1.392 . S
C480 H497 0.931 . S
C481 C477 1.393 . S
C481 C482 1.401 . S
C481 H498 0.930 . S
C482 C480 1.392 . S
C482 C481 1.401 . S
C482 H499 0.930 . S
C483 O466 1.262 . S
C483 O467 1.260 . S
C484 Tb420 2.833 . S
C484 O464 1.251 . S
C484 O469 1.256 . S
C484 C477 1.500 . S
C485 H450 0.929 . S
C485 C463 1.444 . S
C485 C486 1.317 . S
C486 H448 0.930 . S
C486 C454 1.432 . S
C486 C485 1.317 . S
C487 O471 1.283 . S
C487 O474 1.243 . S
C488 C489 1.382 . S
C488 C492 1.393 . S
C488 C495 1.500 . S
C489 C488 1.382 . S
C489 C490 1.400 . S
C489 H500 0.930 . S
C490 C489 1.400 . S
C490 C491 1.384 . S
C491 C490 1.384 . S
C491 C493 1.392 . S
C491 H501 0.931 . S
C492 C488 1.393 . S
C492 C493 1.401 . S
C492 H502 0.930 . S
C493 C491 1.392 . S
C493 C492 1.401 . S
C493 H503 0.930 . S
C494 O472 1.262 . S
C494 O473 1.260 . S
C495 Tb431 2.833 . S
C495 O470 1.251 . S
C495 O475 1.256 . S
C495 C488 1.500 . S
H496 C479 0.930 . S
H497 C480 0.931 . S
H498 C481 0.930 . S
H499 C482 0.930 . S
H500 C489 0.930 . S
H501 C491 0.931 . S
H502 C492 0.930 . S
H503 C493 0.930 . S
Tb504 N535 2.660 . S
Tb504 N542 2.600 . S
Tb504 O548 2.546 . S
Tb504 O549 2.610 . S
Tb504 O551 2.320 . S
Tb504 O552 2.552 . S
Tb504 O553 2.413 . S
Tb504 O555 2.362 . S
Tb504 O556 2.421 . S
Tb504 C568 2.833 . S
C505 C508 1.432 . S
C505 C509 1.414 . S
C505 N512 1.359 . S
C506 C508 1.417 . S
C506 C510 1.432 . S
C506 C518 1.410 . S
C507 C509 1.444 . S
C507 C510 1.317 . S
C507 H530 0.929 . S
C508 C505 1.432 . S
C508 C506 1.417 . S
C508 N516 1.360 . S
C509 C505 1.414 . S
C509 C507 1.444 . S
C509 C514 1.385 . S
C510 C506 1.432 . S
C510 C507 1.317 . S
C510 H522 0.930 . S
C511 C513 1.392 . S
C511 C514 1.370 . S
C511 H523 0.931 . S
N512 C505 1.359 . S
N512 C513 1.327 . S
N512 Tb515 2.600 . S
C513 C511 1.392 . S
C513 N512 1.327 . S
C513 H520 0.930 . S
C514 C509 1.385 . S
C514 C511 1.370 . S
C514 H533 0.930 . S
Tb515 N512 2.600 . S
Tb515 N516 2.660 . S
Tb515 O549 2.362 . S
Tb515 O550 2.421 . S
Tb515 O554 2.546 . S
Tb515 O555 2.610 . S
Tb515 O557 2.320 . S
Tb515 O558 2.552 . S
Tb515 O559 2.413 . S
Tb515 C579 2.833 . S
N516 C508 1.360 . S
N516 Tb515 2.660 . S
N516 C517 1.305 . S
C517 N516 1.305 . S
C517 C519 1.407 . S
C517 H524 0.930 . S
C518 C506 1.410 . S
C518 C519 1.345 . S
C518 H526 0.930 . S
C519 C517 1.407 . S
C519 C518 1.345 . S
C519 H521 0.930 . S
H520 C513 0.930 . S
H521 C519 0.930 . S
H522 C510 0.930 . S
H523 C511 0.931 . S
H524 C517 0.930 . S
H525 C539 0.930 . S
H526 C518 0.930 . S
H527 C545 0.930 . S
H528 C536 0.930 . S
H529 C543 0.931 . S
H530 C507 0.929 . S
H531 C537 0.930 . S
H532 C570 0.930 . S
H533 C514 0.930 . S
H534 C569 0.929 . S
N535 Tb504 2.660 . S
N535 C536 1.305 . S
N535 C540 1.360 . S
C536 H528 0.930 . S
C536 N535 1.305 . S
C536 C539 1.407 . S
C537 H531 0.930 . S
C537 C538 1.410 . S
C537 C539 1.345 . S
C538 C537 1.410 . S
C538 C540 1.417 . S
C538 C570 1.432 . S
C539 H525 0.930 . S
C539 C536 1.407 . S
C539 C537 1.345 . S
C540 N535 1.360 . S
C540 C538 1.417 . S
C540 C544 1.432 . S
H541 C546 0.930 . S
N542 Tb504 2.600 . S
N542 C544 1.359 . S
N542 C545 1.327 . S
C543 H529 0.931 . S
C543 C545 1.392 . S
C543 C546 1.370 . S
C544 C540 1.432 . S
C544 N542 1.359 . S
C544 C547 1.414 . S
C545 H527 0.930 . S
C545 N542 1.327 . S
C545 C543 1.392 . S
C546 H541 0.930 . S
C546 C543 1.370 . S
C546 C547 1.385 . S
C547 C544 1.414 . S
C547 C546 1.385 . S
C547 C569 1.444 . S
O548 Tb504 2.546 . S
O548 C568 1.251 . S
O549 Tb504 2.610 . S
O549 Tb515 2.362 . S
O549 C560 1.283 . S
O550 Tb515 2.421 . S
O550 C567 1.262 . S
O551 Tb504 2.320 . S
O551 C567 1.260 . S
O552 Tb504 2.552 . S
O552 C560 1.243 . S
O553 Tb504 2.413 . S
O553 C568 1.256 . S
O554 Tb515 2.546 . S
O554 C579 1.251 . S
O555 Tb504 2.362 . S
O555 Tb515 2.610 . S
O555 C571 1.283 . S
O556 Tb504 2.421 . S
O556 C578 1.262 . S
O557 Tb515 2.320 . S
O557 C578 1.260 . S
O558 Tb515 2.552 . S
O558 C571 1.243 . S
O559 Tb515 2.413 . S
O559 C579 1.256 . S
C560 O549 1.283 . S
C560 O552 1.243 . S
C561 C563 1.382 . S
C561 C565 1.393 . S
C561 C568 1.500 . S
C562 C563 1.400 . S
C562 C564 1.384 . S
C563 C561 1.382 . S
C563 C562 1.400 . S
C563 H580 0.930 . S
C564 C562 1.384 . S
C564 C566 1.392 . S
C564 H581 0.931 . S
C565 C561 1.393 . S
C565 C566 1.401 . S
C565 H582 0.930 . S
C566 C564 1.392 . S
C566 C565 1.401 . S
C566 H583 0.930 . S
C567 O550 1.262 . S
C567 O551 1.260 . S
C568 Tb504 2.833 . S
C568 O548 1.251 . S
C568 O553 1.256 . S
C568 C561 1.500 . S
C569 H534 0.929 . S
C569 C547 1.444 . S
C569 C570 1.317 . S
C570 H532 0.930 . S
C570 C538 1.432 . S
C570 C569 1.317 . S
C571 O555 1.283 . S
C571 O558 1.243 . S
C572 C573 1.382 . S
C572 C576 1.393 . S
C572 C579 1.500 . S
C573 C572 1.382 . S
C573 C574 1.400 . S
C573 H584 0.930 . S
C574 C573 1.400 . S
C574 C575 1.384 . S
C575 C574 1.384 . S
C575 C577 1.392 . S
C575 H585 0.931 . S
C576 C572 1.393 . S
C576 C577 1.401 . S
C576 H586 0.930 . S
C577 C575 1.392 . S
C577 C576 1.401 . S
C577 H587 0.930 . S
C578 O556 1.262 . S
C578 O557 1.260 . S
C579 Tb515 2.833 . S
C579 O554 1.251 . S
C579 O559 1.256 . S
C579 C572 1.500 . S
H580 C563 0.930 . S
H581 C564 0.931 . S
H582 C565 0.930 . S
H583 C566 0.930 . S
H584 C573 0.930 . S
H585 C575 0.931 . S
H586 C576 0.930 . S
H587 C577 0.930 . S
Tb588 N619 2.660 . S
Tb588 N626 2.600 . S
Tb588 O632 2.546 . S
Tb588 O633 2.610 . S
Tb588 O635 2.320 . S
Tb588 O636 2.552 . S
Tb588 O637 2.413 . S
Tb588 O639 2.362 . S
Tb588 O640 2.421 . S
Tb588 C652 2.833 . S
C589 C592 1.432 . S
C589 C593 1.414 . S
C589 N596 1.359 . S
C590 C592 1.417 . S
C590 C594 1.432 . S
C590 C602 1.410 . S
C591 C593 1.444 . S
C591 C594 1.317 . S
C591 H614 0.929 . S
C592 C589 1.432 . S
C592 C590 1.417 . S
C592 N600 1.360 . S
C593 C589 1.414 . S
C593 C591 1.444 . S
C593 C598 1.385 . S
C594 C590 1.432 . S
C594 C591 1.317 . S
C594 H606 0.930 . S
C595 C597 1.392 . S
C595 C598 1.370 . S
C595 H607 0.931 . S
N596 C589 1.359 . S
N596 C597 1.327 . S
N596 Tb599 2.600 . S
C597 C595 1.392 . S
C597 N596 1.327 . S
C597 H604 0.930 . S
C598 C593 1.385 . S
C598 C595 1.370 . S
C598 H617 0.930 . S
Tb599 N596 2.600 . S
Tb599 N600 2.660 . S
Tb599 O633 2.362 . S
Tb599 O634 2.421 . S
Tb599 O638 2.546 . S
Tb599 O639 2.610 . S
Tb599 O641 2.320 . S
Tb599 O642 2.552 . S
Tb599 O643 2.413 . S
Tb599 C663 2.833 . S
N600 C592 1.360 . S
N600 Tb599 2.660 . S
N600 C601 1.305 . S
C601 N600 1.305 . S
C601 C603 1.407 . S
C601 H608 0.930 . S
C602 C590 1.410 . S
C602 C603 1.345 . S
C602 H610 0.930 . S
C603 C601 1.407 . S
C603 C602 1.345 . S
C603 H605 0.930 . S
H604 C597 0.930 . S
H605 C603 0.930 . S
H606 C594 0.930 . S
H607 C595 0.931 . S
H608 C601 0.930 . S
H609 C623 0.930 . S
H610 C602 0.930 . S
H611 C629 0.930 . S
H612 C620 0.930 . S
H613 C627 0.931 . S
H614 C591 0.929 . S
H615 C621 0.930 . S
H616 C654 0.930 . S
H617 C598 0.930 . S
H618 C653 0.929 . S
N619 Tb588 2.660 . S
N619 C620 1.305 . S
N619 C624 1.360 . S
C620 H612 0.930 . S
C620 N619 1.305 . S
C620 C623 1.407 . S
C621 H615 0.930 . S
C621 C622 1.410 . S
C621 C623 1.345 . S
C622 C621 1.410 . S
C622 C624 1.417 . S
C622 C654 1.432 . S
C623 H609 0.930 . S
C623 C620 1.407 . S
C623 C621 1.345 . S
C624 N619 1.360 . S
C624 C622 1.417 . S
C624 C628 1.432 . S
H625 C630 0.930 . S
N626 Tb588 2.600 . S
N626 C628 1.359 . S
N626 C629 1.327 . S
C627 H613 0.931 . S
C627 C629 1.392 . S
C627 C630 1.370 . S
C628 C624 1.432 . S
C628 N626 1.359 . S
C628 C631 1.414 . S
C629 H611 0.930 . S
C629 N626 1.327 . S
C629 C627 1.392 . S
C630 H625 0.930 . S
C630 C627 1.370 . S
C630 C631 1.385 . S
C631 C628 1.414 . S
C631 C630 1.385 . S
C631 C653 1.444 . S
O632 Tb588 2.546 . S
O632 C652 1.251 . S
O633 Tb588 2.610 . S
O633 Tb599 2.362 . S
O633 C644 1.283 . S
O634 Tb599 2.421 . S
O634 C651 1.262 . S
O635 Tb588 2.320 . S
O635 C651 1.260 . S
O636 Tb588 2.552 . S
O636 C644 1.243 . S
O637 Tb588 2.413 . S
O637 C652 1.256 . S
O638 Tb599 2.546 . S
O638 C663 1.251 . S
O639 Tb588 2.362 . S
O639 Tb599 2.610 . S
O639 C655 1.283 . S
O640 Tb588 2.421 . S
O640 C662 1.262 . S
O641 Tb599 2.320 . S
O641 C662 1.260 . S
O642 Tb599 2.552 . S
O642 C655 1.243 . S
O643 Tb599 2.413 . S
O643 C663 1.256 . S
C644 O633 1.283 . S
C644 O636 1.243 . S
C645 C647 1.382 . S
C645 C649 1.393 . S
C645 C652 1.500 . S
C646 C647 1.400 . S
C646 C648 1.384 . S
C647 C645 1.382 . S
C647 C646 1.400 . S
C647 H664 0.930 . S
C648 C646 1.384 . S
C648 C650 1.392 . S
C648 H665 0.931 . S
C649 C645 1.393 . S
C649 C650 1.401 . S
C649 H666 0.930 . S
C650 C648 1.392 . S
C650 C649 1.401 . S
C650 H667 0.930 . S
C651 O634 1.262 . S
C651 O635 1.260 . S
C652 Tb588 2.833 . S
C652 O632 1.251 . S
C652 O637 1.256 . S
C652 C645 1.500 . S
C653 H618 0.929 . S
C653 C631 1.444 . S
C653 C654 1.317 . S
C654 H616 0.930 . S
C654 C622 1.432 . S
C654 C653 1.317 . S
C655 O639 1.283 . S
C655 O642 1.243 . S
C656 C657 1.382 . S
C656 C660 1.393 . S
C656 C663 1.500 . S
C657 C656 1.382 . S
C657 C658 1.400 . S
C657 H668 0.930 . S
C658 C657 1.400 . S
C658 C659 1.384 . S
C659 C658 1.384 . S
C659 C661 1.392 . S
C659 H669 0.931 . S
C660 C656 1.393 . S
C660 C661 1.401 . S
C660 H670 0.930 . S
C661 C659 1.392 . S
C661 C660 1.401 . S
C661 H671 0.930 . S
C662 O640 1.262 . S
C662 O641 1.260 . S
C663 Tb599 2.833 . S
C663 O638 1.251 . S
C663 O643 1.256 . S
C663 C656 1.500 . S
H664 C647 0.930 . S
H665 C648 0.931 . S
H666 C649 0.930 . S
H667 C650 0.930 . S
H668 C657 0.930 . S
H669 C659 0.931 . S
H670 C660 0.930 . S
H671 C661 0.930 . S
Fe672 O673 1.886 1_455 S
Fe672 O676 1.715 . S
Fe672 O681 2.077 1_455 S
Fe672 O686 1.935 . S
Fe672 O692 2.077 1_455 S
Fe672 O701 1.935 . S
O673 Fe672 1.886 1_655 S
O673 Fe675 1.715 1_545 S
Fe674 O676 1.886 . S
Fe674 O677 1.715 1_545 S
Fe674 O684 1.935 1_545 S
Fe674 O685 2.077 . S
Fe674 O691 1.935 1_545 S
Fe674 O700 2.077 . S
Fe675 O673 1.715 1_565 S
Fe675 O678 1.886 . S
Fe675 O682 1.935 1_565 S
Fe675 O687 2.077 . S
Fe675 O693 1.935 1_565 S
Fe675 O697 2.077 . S
O676 Fe672 1.715 . S
O676 Fe674 1.886 . S
O677 Fe674 1.715 1_565 S
O677 Fe679 1.886 1_455 S
O678 Fe675 1.886 . S
O678 Fe679 1.715 . S
Fe679 O677 1.886 1_655 S
Fe679 O678 1.715 . S
Fe679 O683 2.077 1_655 S
Fe679 O688 1.935 . S
Fe679 O690 2.077 1_655 S
Fe679 O698 1.935 . S
C680 O692 1.381 . S
C680 O693 1.421 . S
O681 Fe672 2.077 1_655 S
O681 C694 1.381 . S
O682 Fe675 1.935 1_545 S
O682 C694 1.421 . S
O683 Fe679 2.077 1_455 S
O683 C699 1.381 . S
O684 Fe674 1.935 1_565 S
O684 C699 1.421 . S
O685 Fe674 2.077 . S
O685 C689 1.381 . S
O686 Fe672 1.935 . S
O686 C689 1.421 . S
O687 Fe675 2.077 . S
O687 C695 1.381 . S
O688 Fe679 1.935 . S
O688 C695 1.421 . S
C689 O685 1.381 . S
C689 O686 1.421 . S
O690 Fe679 2.077 1_455 S
O690 C702 1.381 . S
O691 Fe674 1.935 1_565 S
O691 C702 1.421 . S
O692 Fe672 2.077 1_655 S
O692 C680 1.381 . S
O693 Fe675 1.935 1_545 S
O693 C680 1.421 . S
C694 O681 1.381 . S
C694 O682 1.421 . S
C695 O687 1.381 . S
C695 O688 1.421 . S
C696 O697 1.381 . S
C696 O698 1.421 . S
O697 Fe675 2.077 . S
O697 C696 1.381 . S
O698 Fe679 1.935 . S
O698 C696 1.421 . S
C699 O683 1.381 . S
C699 O684 1.421 . S
O700 Fe674 2.077 . S
O700 C703 1.381 . S
O701 Fe672 1.935 . S
O701 C703 1.421 . S
C702 O690 1.381 . S
C702 O691 1.421 . S
C703 O700 1.381 . S
C703 O701 1.421 . S
Fe704 O705 1.886 . S
Fe704 O708 1.714 . S
Fe704 O713 2.077 1_554 S
Fe704 O718 1.935 1_554 S
Fe704 O724 2.077 . S
Fe704 O733 1.935 . S
O705 Fe704 1.886 . S
O705 Fe707 1.715 1_565 S
Fe706 O708 1.887 1_556 S
Fe706 O709 1.715 1_565 S
Fe706 O716 1.935 1_565 S
Fe706 O717 2.077 . S
Fe706 O723 1.935 1_566 S
Fe706 O732 2.077 1_556 S
Fe707 O705 1.715 1_545 S
Fe707 O710 1.886 1_554 S
Fe707 O714 1.935 1_544 S
Fe707 O719 2.077 1_554 S
Fe707 O725 1.935 1_545 S
Fe707 O729 2.077 . S
O708 Fe704 1.714 . S
O708 Fe706 1.887 1_554 S
O709 Fe706 1.715 1_545 S
O709 Fe711 1.886 . S
O710 Fe707 1.886 1_556 S
O710 Fe711 1.715 . S
Fe711 O709 1.886 . S
Fe711 O710 1.715 . S
Fe711 O715 2.077 . S
Fe711 O720 1.935 . S
Fe711 O722 2.077 1_556 S
Fe711 O730 1.935 1_556 S
C712 O724 1.381 . S
C712 O725 1.421 . S
O713 Fe704 2.077 1_556 S
O713 C726 1.381 . S
O714 Fe707 1.935 1_566 S
O714 C726 1.421 . S
O715 Fe711 2.077 . S
O715 C731 1.381 . S
O716 Fe706 1.935 1_545 S
O716 C731 1.421 . S
O717 Fe706 2.077 . S
O717 C721 1.381 . S
O718 Fe704 1.935 1_556 S
O718 C721 1.421 . S
O719 Fe707 2.077 1_556 S
O719 C727 1.381 . S
O720 Fe711 1.935 . S
O720 C727 1.421 . S
C721 O717 1.381 . S
C721 O718 1.421 . S
O722 Fe711 2.077 1_554 S
O722 C734 1.381 . S
O723 Fe706 1.935 1_544 S
O723 C734 1.421 . S
O724 Fe704 2.077 . S
O724 C712 1.381 . S
O725 Fe707 1.935 1_565 S
O725 C712 1.421 . S
C726 O713 1.381 . S
C726 O714 1.421 . S
C727 O719 1.381 . S
C727 O720 1.421 . S
C728 O729 1.381 . S
C728 O730 1.421 . S
O729 Fe707 2.077 . S
O729 C728 1.381 . S
O730 Fe711 1.935 1_554 S
O730 C728 1.421 . S
C731 O715 1.381 . S
C731 O716 1.421 . S
O732 Fe706 2.077 1_554 S
O732 C735 1.381 . S
O733 Fe704 1.935 . S
O733 C735 1.421 . S
C734 O722 1.381 . S
C734 O723 1.421 . S
C735 O732 1.381 . S
C735 O733 1.421 . S
Fe736 O737 1.886 1_455 S
Fe736 O740 1.715 . S
Fe736 O745 2.077 1_455 S
Fe736 O750 1.935 . S
Fe736 O756 2.077 1_456 S
Fe736 O765 1.935 1_556 S
O737 Fe736 1.886 1_655 S
O737 Fe739 1.715 . S
Fe738 O740 1.886 1_554 S
Fe738 O741 1.715 . S
Fe738 O748 1.935 1_554 S
Fe738 O749 2.077 1_554 S
Fe738 O755 1.935 . S
Fe738 O764 2.077 . S
Fe739 O737 1.715 . S
Fe739 O742 1.886 1_556 S
Fe739 O746 1.935 . S
Fe739 O751 2.077 . S
Fe739 O757 1.935 1_556 S
Fe739 O761 2.077 1_556 S
O740 Fe736 1.715 . S
O740 Fe738 1.886 1_556 S
O741 Fe738 1.715 . S
O741 Fe743 1.886 1_455 S
O742 Fe739 1.886 1_554 S
O742 Fe743 1.714 . S
Fe743 O741 1.886 1_655 S
Fe743 O742 1.714 . S
Fe743 O747 2.077 1_654 S
Fe743 O752 1.935 1_554 S
Fe743 O754 2.077 1_655 S
Fe743 O762 1.935 . S
C744 O756 1.381 . S
C744 O757 1.421 . S
O745 Fe736 2.077 1_655 S
O745 C758 1.381 . S
O746 Fe739 1.935 . S
O746 C758 1.421 . S
O747 Fe743 2.077 1_456 S
O747 C763 1.381 . S
O748 Fe738 1.935 1_556 S
O748 C763 1.421 . S
O749 Fe738 2.077 1_556 S
O749 C753 1.381 . S
O750 Fe736 1.935 . S
O750 C753 1.421 . S
O751 Fe739 2.077 . S
O751 C759 1.381 . S
O752 Fe743 1.935 1_556 S
O752 C759 1.421 . S
C753 O749 1.381 . S
C753 O750 1.421 . S
O754 Fe743 2.077 1_455 S
O754 C766 1.381 . S
O755 Fe738 1.935 . S
O755 C766 1.421 . S
O756 Fe736 2.077 1_654 S
O756 C744 1.381 . S
O757 Fe739 1.935 1_554 S
O757 C744 1.421 . S
C758 O745 1.381 . S
C758 O746 1.421 . S
C759 O751 1.381 . S
C759 O752 1.421 . S
C760 O761 1.381 . S
C760 O762 1.421 . S
O761 Fe739 2.077 1_554 S
O761 C760 1.381 . S
O762 Fe743 1.935 . S
O762 C760 1.421 . S
C763 O747 1.381 . S
C763 O748 1.421 . S
O764 Fe738 2.077 . S
O764 C767 1.381 . S
O765 Fe736 1.935 1_554 S
O765 C767 1.421 . S
C766 O754 1.381 . S
C766 O755 1.421 . S
C767 O764 1.381 . S
C767 O765 1.421 . S
Fe768 O769 1.886 . S
Fe768 O772 1.715 . S
Fe768 O777 2.077 . S
Fe768 O782 1.935 . S
Fe768 O788 2.077 . S
Fe768 O797 1.935 . S
O769 Fe768 1.886 . S
O769 Fe771 1.715 1_556 S
Fe770 O772 1.886 . S
Fe770 O773 1.715 1_556 S
Fe770 O780 1.935 1_556 S
Fe770 O781 2.077 . S
Fe770 O787 1.935 1_556 S
Fe770 O796 2.077 . S
Fe771 O769 1.715 1_554 S
Fe771 O774 1.886 . S
Fe771 O778 1.935 1_554 S
Fe771 O783 2.077 . S
Fe771 O789 1.935 1_554 S
Fe771 O793 2.077 . S
O772 Fe768 1.715 . S
O772 Fe770 1.886 . S
O773 Fe770 1.715 1_554 S
O773 Fe775 1.886 . S
O774 Fe771 1.886 . S
O774 Fe775 1.715 . S
Fe775 O773 1.886 . S
Fe775 O774 1.715 . S
Fe775 O779 2.077 . S
Fe775 O784 1.935 . S
Fe775 O786 2.077 . S
Fe775 O794 1.935 . S
C776 O788 1.381 . S
C776 O789 1.421 . S
O777 Fe768 2.077 . S
O777 C790 1.381 . S
O778 Fe771 1.935 1_556 S
O778 C790 1.421 . S
O779 Fe775 2.077 . S
O779 C795 1.381 . S
O780 Fe770 1.935 1_554 S
O780 C795 1.421 . S
O781 Fe770 2.077 . S
O781 C785 1.381 . S
O782 Fe768 1.935 . S
O782 C785 1.421 . S
O783 Fe771 2.077 . S
O783 C791 1.381 . S
O784 Fe775 1.935 . S
O784 C791 1.421 . S
C785 O781 1.381 . S
C785 O782 1.421 . S
O786 Fe775 2.077 . S
O786 C798 1.381 . S
O787 Fe770 1.935 1_554 S
O787 C798 1.421 . S
O788 Fe768 2.077 . S
O788 C776 1.381 . S
O789 Fe771 1.935 1_556 S
O789 C776 1.421 . S
C790 O777 1.381 . S
C790 O778 1.421 . S
C791 O783 1.381 . S
C791 O784 1.421 . S
C792 O793 1.381 . S
C792 O794 1.421 . S
O793 Fe771 2.077 . S
O793 C792 1.381 . S
O794 Fe775 1.935 . S
O794 C792 1.421 . S
C795 O779 1.381 . S
C795 O780 1.421 . S
O796 Fe770 2.077 . S
O796 C799 1.381 . S
O797 Fe768 1.935 . S
O797 C799 1.421 . S
C798 O786 1.381 . S
C798 O787 1.421 . S
C799 O796 1.381 . S
C799 O797 1.421 . S
Fe800 O801 1.886 . S
Fe800 O804 1.715 . S
Fe800 O809 2.077 1_655 S
Fe800 O814 1.935 1_655 S
Fe800 O820 2.077 . S
Fe800 O829 1.935 . S
O801 Fe800 1.886 . S
O801 Fe803 1.715 1_655 S
Fe802 O804 1.886 . S
Fe802 O805 1.715 1_655 S
Fe802 O812 1.935 1_655 S
Fe802 O813 2.077 1_655 S
Fe802 O819 1.935 . S
Fe802 O828 2.077 . S
Fe803 O801 1.715 1_455 S
Fe803 O806 1.886 . S
Fe803 O810 1.935 . S
Fe803 O815 2.077 . S
Fe803 O821 1.935 1_455 S
Fe803 O825 2.077 1_455 S
O804 Fe800 1.715 . S
O804 Fe802 1.886 . S
O805 Fe802 1.715 1_455 S
O805 Fe807 1.886 . S
O806 Fe803 1.886 . S
O806 Fe807 1.715 . S
Fe807 O805 1.886 . S
Fe807 O806 1.715 . S
Fe807 O811 2.077 . S
Fe807 O816 1.935 . S
Fe807 O818 2.077 1_455 S
Fe807 O826 1.935 1_455 S
C808 O820 1.381 . S
C808 O821 1.421 . S
O809 Fe800 2.077 1_455 S
O809 C822 1.381 . S
O810 Fe803 1.935 . S
O810 C822 1.421 . S
O811 Fe807 2.077 . S
O811 C827 1.381 . S
O812 Fe802 1.935 1_455 S
O812 C827 1.421 . S
O813 Fe802 2.077 1_455 S
O813 C817 1.381 . S
O814 Fe800 1.935 1_455 S
O814 C817 1.421 . S
O815 Fe803 2.077 . S
O815 C823 1.381 . S
O816 Fe807 1.935 . S
O816 C823 1.421 . S
C817 O813 1.381 . S
C817 O814 1.421 . S
O818 Fe807 2.077 1_655 S
O818 C830 1.381 . S
O819 Fe802 1.935 . S
O819 C830 1.421 . S
O820 Fe800 2.077 . S
O820 C808 1.381 . S
O821 Fe803 1.935 1_655 S
O821 C808 1.421 . S
C822 O809 1.381 . S
C822 O810 1.421 . S
C823 O815 1.381 . S
C823 O816 1.421 . S
C824 O825 1.381 . S
C824 O826 1.421 . S
O825 Fe803 2.077 1_655 S
O825 C824 1.381 . S
O826 Fe807 1.935 1_655 S
O826 C824 1.421 . S
C827 O811 1.381 . S
C827 O812 1.421 . S
O828 Fe802 2.077 . S
O828 C831 1.381 . S
O829 Fe800 1.935 . S
O829 C831 1.421 . S
C830 O818 1.381 . S
C830 O819 1.421 . S
C831 O828 1.381 . S
C831 O829 1.421 . S
Fe832 O833 1.886 . S
Fe832 O836 1.715 . S
Fe832 O841 2.077 . S
Fe832 O846 1.935 . S
Fe832 O852 2.077 . S
Fe832 O861 1.935 . S
O833 Fe832 1.886 . S
O833 Fe835 1.715 . S
Fe834 O836 1.886 1_545 S
Fe834 O837 1.715 . S
Fe834 O844 1.935 . S
Fe834 O845 2.077 1_545 S
Fe834 O851 1.935 . S
Fe834 O860 2.077 1_545 S
Fe835 O833 1.715 . S
Fe835 O838 1.886 1_565 S
Fe835 O842 1.935 . S
Fe835 O847 2.077 1_565 S
Fe835 O853 1.935 . S
Fe835 O857 2.077 1_565 S
O836 Fe832 1.715 . S
O836 Fe834 1.886 1_565 S
O837 Fe834 1.715 . S
O837 Fe839 1.886 . S
O838 Fe835 1.886 1_545 S
O838 Fe839 1.715 . S
Fe839 O837 1.886 . S
Fe839 O838 1.715 . S
Fe839 O843 2.077 . S
Fe839 O848 1.935 . S
Fe839 O850 2.077 . S
Fe839 O858 1.935 . S
C840 O852 1.381 . S
C840 O853 1.421 . S
O841 Fe832 2.077 . S
O841 C854 1.381 . S
O842 Fe835 1.935 . S
O842 C854 1.421 . S
O843 Fe839 2.077 . S
O843 C859 1.381 . S
O844 Fe834 1.935 . S
O844 C859 1.421 . S
O845 Fe834 2.077 1_565 S
O845 C849 1.381 . S
O846 Fe832 1.935 . S
O846 C849 1.421 . S
O847 Fe835 2.077 1_545 S
O847 C855 1.381 . S
O848 Fe839 1.935 . S
O848 C855 1.421 . S
C849 O845 1.381 . S
C849 O846 1.421 . S
O850 Fe839 2.077 . S
O850 C862 1.381 . S
O851 Fe834 1.935 . S
O851 C862 1.421 . S
O852 Fe832 2.077 . S
O852 C840 1.381 . S
O853 Fe835 1.935 . S
O853 C840 1.421 . S
C854 O841 1.381 . S
C854 O842 1.421 . S
C855 O847 1.381 . S
C855 O848 1.421 . S
C856 O857 1.381 . S
C856 O858 1.421 . S
O857 Fe835 2.077 1_545 S
O857 C856 1.381 . S
O858 Fe839 1.935 . S
O858 C856 1.421 . S
C859 O843 1.381 . S
C859 O844 1.421 . S
O860 Fe834 2.077 1_565 S
O860 C863 1.381 . S
O861 Fe832 1.935 . S
O861 C863 1.421 . S
C862 O850 1.381 . S
C862 O851 1.421 . S
C863 O860 1.381 . S
C863 O861 1.421 . S
C864 C865 1.391 . S
C864 C866 1.394 . S
C864 H880 0.931 . S
C865 C864 1.391 . S
C865 C869 1.376 . S
C866 C864 1.394 . S
C866 C867 1.369 . S
C866 C870 1.531 . S
C867 C866 1.369 . S
C867 C868 1.410 . S
C867 C875 1.503 . S
C868 C867 1.410 . S
C868 C869 1.392 . S
C868 C871 1.511 . S
C869 C865 1.376 . S
C869 C868 1.392 . S
C869 H881 0.929 . S
C870 C866 1.531 . S
C870 H882 0.960 . S
C870 H883 0.962 . S
C870 H884 0.960 . S
C871 C868 1.511 . S
C871 H885 0.961 . S
C871 H886 0.961 . S
C871 H887 0.961 . S
C872 C873 1.370 . S
C872 C874 1.363 . S
C872 H888 0.931 . S
C873 C872 1.370 . S
C873 C877 1.408 . S
C874 C872 1.363 . S
C874 C875 1.370 . S
C874 C878 1.524 . S
C875 C867 1.503 . S
C875 C874 1.370 . S
C875 C876 1.403 . S
C876 C875 1.403 . S
C876 C877 1.404 . S
C876 C879 1.539 . S
C877 C873 1.408 . S
C877 C876 1.404 . S
C877 H889 0.930 . S
C878 C874 1.524 . S
C878 H890 0.956 . S
C878 H891 0.961 . S
C878 H892 0.961 . S
C879 C876 1.539 . S
C879 H893 0.958 . S
C879 H894 0.961 . S
C879 H895 0.960 . S
H880 C864 0.931 . S
H881 C869 0.929 . S
H882 C870 0.960 . S
H883 C870 0.962 . S
H884 C870 0.960 . S
H885 C871 0.961 . S
H886 C871 0.961 . S
H887 C871 0.961 . S
H888 C872 0.931 . S
H889 C877 0.930 . S
H890 C878 0.956 . S
H891 C878 0.961 . S
H892 C878 0.961 . S
H893 C879 0.958 . S
H894 C879 0.961 . S
H895 C879 0.960 . S
C896 C897 1.391 . S
C896 C898 1.394 . S
C896 H912 0.931 . S
C897 C896 1.391 . S
C897 C901 1.376 . S
C898 C896 1.394 . S
C898 C899 1.369 . S
C898 C902 1.531 . S
C899 C898 1.369 . S
C899 C900 1.410 . S
C899 C907 1.503 . S
C900 C899 1.410 . S
C900 C901 1.392 . S
C900 C903 1.511 . S
C901 C897 1.376 . S
C901 C900 1.392 . S
C901 H913 0.929 . S
C902 C898 1.531 . S
C902 H914 0.960 . S
C902 H915 0.962 . S
C902 H916 0.960 . S
C903 C900 1.511 . S
C903 H917 0.961 . S
C903 H918 0.961 . S
C903 H919 0.961 . S
C904 C905 1.370 . S
C904 C906 1.363 . S
C904 H920 0.931 . S
C905 C904 1.370 . S
C905 C909 1.408 . S
C906 C904 1.363 . S
C906 C907 1.370 . S
C906 C910 1.524 . S
C907 C899 1.503 . S
C907 C906 1.370 . S
C907 C908 1.403 . S
C908 C907 1.403 . S
C908 C909 1.404 . S
C908 C911 1.539 . S
C909 C905 1.408 . S
C909 C908 1.404 . S
C909 H921 0.930 . S
C910 C906 1.524 . S
C910 H922 0.956 . S
C910 H923 0.961 . S
C910 H924 0.961 . S
C911 C908 1.539 . S
C911 H925 0.958 . S
C911 H926 0.961 . S
C911 H927 0.960 . S
H912 C896 0.931 . S
H913 C901 0.929 . S
H914 C902 0.960 . S
H915 C902 0.962 . S
H916 C902 0.960 . S
H917 C903 0.961 . S
H918 C903 0.961 . S
H919 C903 0.961 . S
H920 C904 0.931 . S
H921 C909 0.930 . S
H922 C910 0.956 . S
H923 C910 0.961 . S
H924 C910 0.961 . S
H925 C911 0.958 . S
H926 C911 0.961 . S
H927 C911 0.960 . S
C928 C929 1.391 . S
C928 C930 1.394 . S
C928 H944 0.931 . S
C929 C928 1.391 . S
C929 C933 1.376 . S
C930 C928 1.394 . S
C930 C931 1.369 . S
C930 C934 1.531 . S
C931 C930 1.369 . S
C931 C932 1.410 . S
C931 C939 1.503 . S
C932 C931 1.410 . S
C932 C933 1.392 . S
C932 C935 1.511 . S
C933 C929 1.376 . S
C933 C932 1.392 . S
C933 H945 0.929 . S
C934 C930 1.531 . S
C934 H946 0.960 . S
C934 H947 0.962 . S
C934 H948 0.960 . S
C935 C932 1.511 . S
C935 H949 0.961 . S
C935 H950 0.961 . S
C935 H951 0.961 . S
C936 C937 1.370 . S
C936 C938 1.363 . S
C936 H952 0.931 . S
C937 C936 1.370 . S
C937 C941 1.408 . S
C938 C936 1.363 . S
C938 C939 1.370 . S
C938 C942 1.524 . S
C939 C931 1.503 . S
C939 C938 1.370 . S
C939 C940 1.403 . S
C940 C939 1.403 . S
C940 C941 1.404 . S
C940 C943 1.539 . S
C941 C937 1.408 . S
C941 C940 1.404 . S
C941 H953 0.930 . S
C942 C938 1.524 . S
C942 H954 0.956 . S
C942 H955 0.961 . S
C942 H956 0.961 . S
C943 C940 1.539 . S
C943 H957 0.958 . S
C943 H958 0.961 . S
C943 H959 0.960 . S
H944 C928 0.931 . S
H945 C933 0.929 . S
H946 C934 0.960 . S
H947 C934 0.962 . S
H948 C934 0.960 . S
H949 C935 0.961 . S
H950 C935 0.961 . S
H951 C935 0.961 . S
H952 C936 0.931 . S
H953 C941 0.930 . S
H954 C942 0.956 . S
H955 C942 0.961 . S
H956 C942 0.961 . S
H957 C943 0.958 . S
H958 C943 0.961 . S
H959 C943 0.960 . S
C960 C961 1.391 . S
C960 C962 1.394 . S
C960 H976 0.931 . S
C961 C960 1.391 . S
C961 C965 1.376 . S
C962 C960 1.394 . S
C962 C963 1.369 . S
C962 C966 1.531 . S
C963 C962 1.369 . S
C963 C964 1.410 . S
C963 C971 1.503 . S
C964 C963 1.410 . S
C964 C965 1.392 . S
C964 C967 1.511 . S
C965 C961 1.376 . S
C965 C964 1.392 . S
C965 H977 0.929 . S
C966 C962 1.531 . S
C966 H978 0.960 . S
C966 H979 0.962 . S
C966 H980 0.960 . S
C967 C964 1.511 . S
C967 H981 0.961 . S
C967 H982 0.961 . S
C967 H983 0.961 . S
C968 C969 1.370 . S
C968 C970 1.363 . S
C968 H984 0.931 . S
C969 C968 1.370 . S
C969 C973 1.408 . S
C970 C968 1.363 . S
C970 C971 1.370 . S
C970 C974 1.524 . S
C971 C963 1.503 . S
C971 C970 1.370 . S
C971 C972 1.403 . S
C972 C971 1.403 . S
C972 C973 1.404 . S
C972 C975 1.539 . S
C973 C969 1.408 . S
C973 C972 1.404 . S
C973 H985 0.930 . S
C974 C970 1.524 . S
C974 H986 0.956 . S
C974 H987 0.961 . S
C974 H988 0.961 . S
C975 C972 1.539 . S
C975 H989 0.958 . S
C975 H990 0.961 . S
C975 H991 0.960 . S
H976 C960 0.931 . S
H977 C965 0.929 . S
H978 C966 0.960 . S
H979 C966 0.962 . S
H980 C966 0.960 . S
H981 C967 0.961 . S
H982 C967 0.961 . S
H983 C967 0.961 . S
H984 C968 0.931 . S
H985 C973 0.930 . S
H986 C974 0.956 . S
H987 C974 0.961 . S
H988 C974 0.961 . S
H989 C975 0.958 . S
H990 C975 0.961 . S
H991 C975 0.960 . S
C992 C993 1.391 . S
C992 C994 1.394 . S
C992 H1008 0.931 . S
C993 C992 1.391 . S
C993 C997 1.376 . S
C994 C992 1.394 . S
C994 C995 1.369 . S
C994 C998 1.531 . S
C995 C994 1.369 . S
C995 C996 1.410 . S
C995 C1003 1.503 . S
C996 C995 1.410 . S
C996 C997 1.392 . S
C996 C999 1.511 . S
C997 C993 1.376 . S
C997 C996 1.392 . S
C997 H1009 0.929 . S
C998 C994 1.531 . S
C998 H1010 0.960 . S
C998 H1011 0.962 . S
C998 H1012 0.960 . S
C999 C996 1.511 . S
C999 H1013 0.961 . S
C999 H1014 0.961 . S
C999 H1015 0.961 . S
C1000 C1001 1.370 . S
C1000 C1002 1.363 . S
C1000 H1016 0.931 . S
C1001 C1000 1.370 . S
C1001 C1005 1.408 . S
C1002 C1000 1.363 . S
C1002 C1003 1.370 . S
C1002 C1006 1.524 . S
C1003 C995 1.503 . S
C1003 C1002 1.370 . S
C1003 C1004 1.403 . S
C1004 C1003 1.403 . S
C1004 C1005 1.404 . S
C1004 C1007 1.539 . S
C1005 C1001 1.408 . S
C1005 C1004 1.404 . S
C1005 H1017 0.930 . S
C1006 C1002 1.524 . S
C1006 H1018 0.956 . S
C1006 H1019 0.961 . S
C1006 H1020 0.961 . S
C1007 C1004 1.539 . S
C1007 H1021 0.958 . S
C1007 H1022 0.961 . S
C1007 H1023 0.960 . S
H1008 C992 0.931 . S
H1009 C997 0.929 . S
H1010 C998 0.960 . S
H1011 C998 0.962 . S
H1012 C998 0.960 . S
H1013 C999 0.961 . S
H1014 C999 0.961 . S
H1015 C999 0.961 . S
H1016 C1000 0.931 . S
H1017 C1005 0.930 . S
H1018 C1006 0.956 . S
H1019 C1006 0.961 . S
H1020 C1006 0.961 . S
H1021 C1007 0.958 . S
H1022 C1007 0.961 . S
H1023 C1007 0.960 . S
C1024 C1025 1.391 . S
C1024 C1026 1.394 . S
C1024 H1040 0.931 . S
C1025 C1024 1.391 . S
C1025 C1029 1.376 . S
C1026 C1024 1.394 . S
C1026 C1027 1.369 . S
C1026 C1030 1.531 . S
C1027 C1026 1.369 . S
C1027 C1028 1.410 . S
C1027 C1035 1.503 . S
C1028 C1027 1.410 . S
C1028 C1029 1.392 . S
C1028 C1031 1.511 . S
C1029 C1025 1.376 . S
C1029 C1028 1.392 . S
C1029 H1041 0.929 . S
C1030 C1026 1.531 . S
C1030 H1042 0.960 . S
C1030 H1043 0.962 . S
C1030 H1044 0.960 . S
C1031 C1028 1.511 . S
C1031 H1045 0.961 . S
C1031 H1046 0.961 . S
C1031 H1047 0.961 . S
C1032 C1033 1.370 . S
C1032 C1034 1.363 . S
C1032 H1048 0.931 . S
C1033 C1032 1.370 . S
C1033 C1037 1.408 . S
C1034 C1032 1.363 . S
C1034 C1035 1.370 . S
C1034 C1038 1.524 . S
C1035 C1027 1.503 . S
C1035 C1034 1.370 . S
C1035 C1036 1.403 . S
C1036 C1035 1.403 . S
C1036 C1037 1.404 . S
C1036 C1039 1.539 . S
C1037 C1033 1.408 . S
C1037 C1036 1.404 . S
C1037 H1049 0.930 . S
C1038 C1034 1.524 . S
C1038 H1050 0.956 . S
C1038 H1051 0.961 . S
C1038 H1052 0.961 . S
C1039 C1036 1.539 . S
C1039 H1053 0.958 . S
C1039 H1054 0.961 . S
C1039 H1055 0.960 . S
H1040 C1024 0.931 . S
H1041 C1029 0.929 . S
H1042 C1030 0.960 . S
H1043 C1030 0.962 . S
H1044 C1030 0.960 . S
H1045 C1031 0.961 . S
H1046 C1031 0.961 . S
H1047 C1031 0.961 . S
H1048 C1032 0.931 . S
H1049 C1037 0.930 . S
H1050 C1038 0.956 . S
H1051 C1038 0.961 . S
H1052 C1038 0.961 . S
H1053 C1039 0.958 . S
H1054 C1039 0.961 . S
H1055 C1039 0.960 . S
C1056 C1057 1.391 . S
C1056 C1058 1.394 . S
C1056 H1072 0.931 . S
C1057 C1056 1.391 . S
C1057 C1061 1.376 . S
C1058 C1056 1.394 . S
C1058 C1059 1.369 . S
C1058 C1062 1.531 . S
C1059 C1058 1.369 . S
C1059 C1060 1.410 . S
C1059 C1067 1.503 . S
C1060 C1059 1.410 . S
C1060 C1061 1.392 . S
C1060 C1063 1.511 . S
C1061 C1057 1.376 . S
C1061 C1060 1.392 . S
C1061 H1073 0.929 . S
C1062 C1058 1.531 . S
C1062 H1074 0.960 . S
C1062 H1075 0.962 . S
C1062 H1076 0.960 . S
C1063 C1060 1.511 . S
C1063 H1077 0.961 . S
C1063 H1078 0.961 . S
C1063 H1079 0.961 . S
C1064 C1065 1.370 . S
C1064 C1066 1.363 . S
C1064 H1080 0.931 . S
C1065 C1064 1.370 . S
C1065 C1069 1.408 . S
C1066 C1064 1.363 . S
C1066 C1067 1.370 . S
C1066 C1070 1.524 . S
C1067 C1059 1.503 . S
C1067 C1066 1.370 . S
C1067 C1068 1.403 . S
C1068 C1067 1.403 . S
C1068 C1069 1.404 . S
C1068 C1071 1.539 . S
C1069 C1065 1.408 . S
C1069 C1068 1.404 . S
C1069 H1081 0.930 . S
C1070 C1066 1.524 . S
C1070 H1082 0.956 . S
C1070 H1083 0.961 . S
C1070 H1084 0.961 . S
C1071 C1068 1.539 . S
C1071 H1085 0.958 . S
C1071 H1086 0.961 . S
C1071 H1087 0.960 . S
H1072 C1056 0.931 . S
H1073 C1061 0.929 . S
H1074 C1062 0.960 . S
H1075 C1062 0.962 . S
H1076 C1062 0.960 . S
H1077 C1063 0.961 . S
H1078 C1063 0.961 . S
H1079 C1063 0.961 . S
H1080 C1064 0.931 . S
H1081 C1069 0.930 . S
H1082 C1070 0.956 . S
H1083 C1070 0.961 . S
H1084 C1070 0.961 . S
H1085 C1071 0.958 . S
H1086 C1071 0.961 . S
H1087 C1071 0.960 . S
C1088 C1089 1.391 . S
C1088 C1090 1.394 . S
C1088 H1104 0.931 . S
C1089 C1088 1.391 . S
C1089 C1093 1.376 . S
C1090 C1088 1.394 . S
C1090 C1091 1.369 . S
C1090 C1094 1.531 . S
C1091 C1090 1.369 . S
C1091 C1092 1.410 . S
C1091 C1099 1.503 . S
C1092 C1091 1.410 . S
C1092 C1093 1.392 . S
C1092 C1095 1.511 . S
C1093 C1089 1.376 . S
C1093 C1092 1.392 . S
C1093 H1105 0.929 . S
C1094 C1090 1.531 . S
C1094 H1106 0.960 . S
C1094 H1107 0.962 . S
C1094 H1108 0.960 . S
C1095 C1092 1.511 . S
C1095 H1109 0.961 . S
C1095 H1110 0.961 . S
C1095 H1111 0.961 . S
C1096 C1097 1.370 . S
C1096 C1098 1.363 . S
C1096 H1112 0.931 . S
C1097 C1096 1.370 . S
C1097 C1101 1.408 . S
C1098 C1096 1.363 . S
C1098 C1099 1.370 . S
C1098 C1102 1.524 . S
C1099 C1091 1.503 . S
C1099 C1098 1.370 . S
C1099 C1100 1.403 . S
C1100 C1099 1.403 . S
C1100 C1101 1.404 . S
C1100 C1103 1.539 . S
C1101 C1097 1.408 . S
C1101 C1100 1.404 . S
C1101 H1113 0.930 . S
C1102 C1098 1.524 . S
C1102 H1114 0.956 . S
C1102 H1115 0.961 . S
C1102 H1116 0.961 . S
C1103 C1100 1.539 . S
C1103 H1117 0.958 . S
C1103 H1118 0.961 . S
C1103 H1119 0.960 . S
H1104 C1088 0.931 . S
H1105 C1093 0.929 . S
H1106 C1094 0.960 . S
H1107 C1094 0.962 . S
H1108 C1094 0.960 . S
H1109 C1095 0.961 . S
H1110 C1095 0.961 . S
H1111 C1095 0.961 . S
H1112 C1096 0.931 . S
H1113 C1101 0.930 . S
H1114 C1102 0.956 . S
H1115 C1102 0.961 . S
H1116 C1102 0.961 . S
H1117 C1103 0.958 . S
H1118 C1103 0.961 . S
H1119 C1103 0.960 . S
C1120 C1121 1.391 . S
C1120 C1122 1.394 . S
C1120 H1136 0.931 . S
C1121 C1120 1.391 . S
C1121 C1125 1.376 . S
C1122 C1120 1.394 . S
C1122 C1123 1.369 . S
C1122 C1126 1.531 . S
C1123 C1122 1.369 . S
C1123 C1124 1.410 . S
C1123 C1131 1.503 . S
C1124 C1123 1.410 . S
C1124 C1125 1.392 . S
C1124 C1127 1.511 . S
C1125 C1121 1.376 . S
C1125 C1124 1.392 . S
C1125 H1137 0.929 . S
C1126 C1122 1.531 . S
C1126 H1138 0.960 . S
C1126 H1139 0.962 . S
C1126 H1140 0.960 . S
C1127 C1124 1.511 . S
C1127 H1141 0.961 . S
C1127 H1142 0.961 . S
C1127 H1143 0.961 . S
C1128 C1129 1.370 . S
C1128 C1130 1.363 . S
C1128 H1144 0.931 . S
C1129 C1128 1.370 . S
C1129 C1133 1.408 . S
C1130 C1128 1.363 . S
C1130 C1131 1.370 . S
C1130 C1134 1.524 . S
C1131 C1123 1.503 . S
C1131 C1130 1.370 . S
C1131 C1132 1.403 . S
C1132 C1131 1.403 . S
C1132 C1133 1.404 . S
C1132 C1135 1.539 . S
C1133 C1129 1.408 . S
C1133 C1132 1.404 . S
C1133 H1145 0.930 . S
C1134 C1130 1.524 . S
C1134 H1146 0.956 . S
C1134 H1147 0.961 . S
C1134 H1148 0.961 . S
C1135 C1132 1.539 . S
C1135 H1149 0.958 . S
C1135 H1150 0.961 . S
C1135 H1151 0.960 . S
H1136 C1120 0.931 . S
H1137 C1125 0.929 . S
H1138 C1126 0.960 . S
H1139 C1126 0.962 . S
H1140 C1126 0.960 . S
H1141 C1127 0.961 . S
H1142 C1127 0.961 . S
H1143 C1127 0.961 . S
H1144 C1128 0.931 . S
H1145 C1133 0.930 . S
H1146 C1134 0.956 . S
H1147 C1134 0.961 . S
H1148 C1134 0.961 . S
H1149 C1135 0.958 . S
H1150 C1135 0.961 . S
H1151 C1135 0.960 . S
C1152 C1153 1.391 . S
C1152 C1154 1.394 . S
C1152 H1168 0.931 . S
C1153 C1152 1.391 . S
C1153 C1157 1.376 . S
C1154 C1152 1.394 . S
C1154 C1155 1.369 . S
C1154 C1158 1.531 . S
C1155 C1154 1.369 . S
C1155 C1156 1.410 . S
C1155 C1163 1.503 . S
C1156 C1155 1.410 . S
C1156 C1157 1.392 . S
C1156 C1159 1.511 . S
C1157 C1153 1.376 . S
C1157 C1156 1.392 . S
C1157 H1169 0.929 . S
C1158 C1154 1.531 . S
C1158 H1170 0.960 . S
C1158 H1171 0.962 . S
C1158 H1172 0.960 . S
C1159 C1156 1.511 . S
C1159 H1173 0.961 . S
C1159 H1174 0.961 . S
C1159 H1175 0.961 . S
C1160 C1161 1.370 . S
C1160 C1162 1.363 . S
C1160 H1176 0.931 . S
C1161 C1160 1.370 . S
C1161 C1165 1.408 . S
C1162 C1160 1.363 . S
C1162 C1163 1.370 . S
C1162 C1166 1.524 . S
C1163 C1155 1.503 . S
C1163 C1162 1.370 . S
C1163 C1164 1.403 . S
C1164 C1163 1.403 . S
C1164 C1165 1.404 . S
C1164 C1167 1.539 . S
C1165 C1161 1.408 . S
C1165 C1164 1.404 . S
C1165 H1177 0.930 . S
C1166 C1162 1.524 . S
C1166 H1178 0.956 . S
C1166 H1179 0.961 . S
C1166 H1180 0.961 . S
C1167 C1164 1.539 . S
C1167 H1181 0.958 . S
C1167 H1182 0.961 . S
C1167 H1183 0.960 . S
H1168 C1152 0.931 . S
H1169 C1157 0.929 . S
H1170 C1158 0.960 . S
H1171 C1158 0.962 . S
H1172 C1158 0.960 . S
H1173 C1159 0.961 . S
H1174 C1159 0.961 . S
H1175 C1159 0.961 . S
H1176 C1160 0.931 . S
H1177 C1165 0.930 . S
H1178 C1166 0.956 . S
H1179 C1166 0.961 . S
H1180 C1166 0.961 . S
H1181 C1167 0.958 . S
H1182 C1167 0.961 . S
H1183 C1167 0.960 . S
C1184 C1185 1.391 . S
C1184 C1186 1.394 . S
C1184 H1200 0.931 . S
C1185 C1184 1.391 . S
C1185 C1189 1.376 . S
C1186 C1184 1.394 . S
C1186 C1187 1.369 . S
C1186 C1190 1.531 . S
C1187 C1186 1.369 . S
C1187 C1188 1.410 . S
C1187 C1195 1.503 . S
C1188 C1187 1.410 . S
C1188 C1189 1.392 . S
C1188 C1191 1.511 . S
C1189 C1185 1.376 . S
C1189 C1188 1.392 . S
C1189 H1201 0.929 . S
C1190 C1186 1.531 . S
C1190 H1202 0.960 . S
C1190 H1203 0.962 . S
C1190 H1204 0.960 . S
C1191 C1188 1.511 . S
C1191 H1205 0.961 . S
C1191 H1206 0.961 . S
C1191 H1207 0.961 . S
C1192 C1193 1.370 . S
C1192 C1194 1.363 . S
C1192 H1208 0.931 . S
C1193 C1192 1.370 . S
C1193 C1197 1.408 . S
C1194 C1192 1.363 . S
C1194 C1195 1.370 . S
C1194 C1198 1.524 . S
C1195 C1187 1.503 . S
C1195 C1194 1.370 . S
C1195 C1196 1.403 . S
C1196 C1195 1.403 . S
C1196 C1197 1.404 . S
C1196 C1199 1.539 . S
C1197 C1193 1.408 . S
C1197 C1196 1.404 . S
C1197 H1209 0.930 . S
C1198 C1194 1.524 . S
C1198 H1210 0.956 . S
C1198 H1211 0.961 . S
C1198 H1212 0.961 . S
C1199 C1196 1.539 . S
C1199 H1213 0.958 . S
C1199 H1214 0.961 . S
C1199 H1215 0.960 . S
H1200 C1184 0.931 . S
H1201 C1189 0.929 . S
H1202 C1190 0.960 . S
H1203 C1190 0.962 . S
H1204 C1190 0.960 . S
H1205 C1191 0.961 . S
H1206 C1191 0.961 . S
H1207 C1191 0.961 . S
H1208 C1192 0.931 . S
H1209 C1197 0.930 . S
H1210 C1198 0.956 . S
H1211 C1198 0.961 . S
H1212 C1198 0.961 . S
H1213 C1199 0.958 . S
H1214 C1199 0.961 . S
H1215 C1199 0.960 . S
C1216 C1217 1.391 . S
C1216 C1218 1.394 . S
C1216 H1232 0.931 . S
C1217 C1216 1.391 . S
C1217 C1221 1.376 . S
C1218 C1216 1.394 . S
C1218 C1219 1.369 . S
C1218 C1222 1.531 . S
C1219 C1218 1.369 . S
C1219 C1220 1.410 . S
C1219 C1227 1.503 . S
C1220 C1219 1.410 . S
C1220 C1221 1.392 . S
C1220 C1223 1.511 . S
C1221 C1217 1.376 . S
C1221 C1220 1.392 . S
C1221 H1233 0.929 . S
C1222 C1218 1.531 . S
C1222 H1234 0.960 . S
C1222 H1235 0.962 . S
C1222 H1236 0.960 . S
C1223 C1220 1.511 . S
C1223 H1237 0.961 . S
C1223 H1238 0.961 . S
C1223 H1239 0.961 . S
C1224 C1225 1.370 . S
C1224 C1226 1.363 . S
C1224 H1240 0.931 . S
C1225 C1224 1.370 . S
C1225 C1229 1.408 . S
C1226 C1224 1.363 . S
C1226 C1227 1.370 . S
C1226 C1230 1.524 . S
C1227 C1219 1.503 . S
C1227 C1226 1.370 . S
C1227 C1228 1.403 . S
C1228 C1227 1.403 . S
C1228 C1229 1.404 . S
C1228 C1231 1.539 . S
C1229 C1225 1.408 . S
C1229 C1228 1.404 . S
C1229 H1241 0.930 . S
C1230 C1226 1.524 . S
C1230 H1242 0.956 . S
C1230 H1243 0.961 . S
C1230 H1244 0.961 . S
C1231 C1228 1.539 . S
C1231 H1245 0.958 . S
C1231 H1246 0.961 . S
C1231 H1247 0.960 . S
H1232 C1216 0.931 . S
H1233 C1221 0.929 . S
H1234 C1222 0.960 . S
H1235 C1222 0.962 . S
H1236 C1222 0.960 . S
H1237 C1223 0.961 . S
H1238 C1223 0.961 . S
H1239 C1223 0.961 . S
H1240 C1224 0.931 . S
H1241 C1229 0.930 . S
H1242 C1230 0.956 . S
H1243 C1230 0.961 . S
H1244 C1230 0.961 . S
H1245 C1231 0.958 . S
H1246 C1231 0.961 . S
H1247 C1231 0.960 . S
C1248 C1249 1.391 . S
C1248 C1250 1.394 . S
C1248 H1264 0.931 . S
C1249 C1248 1.391 . S
C1249 C1253 1.376 . S
C1250 C1248 1.394 . S
C1250 C1251 1.369 . S
C1250 C1254 1.531 . S
C1251 C1250 1.369 . S
C1251 C1252 1.410 . S
C1251 C1259 1.503 . S
C1252 C1251 1.410 . S
C1252 C1253 1.392 . S
C1252 C1255 1.511 . S
C1253 C1249 1.376 . S
C1253 C1252 1.392 . S
C1253 H1265 0.929 . S
C1254 C1250 1.531 . S
C1254 H1266 0.960 . S
C1254 H1267 0.962 . S
C1254 H1268 0.960 . S
C1255 C1252 1.511 . S
C1255 H1269 0.961 . S
C1255 H1270 0.961 . S
C1255 H1271 0.961 . S
C1256 C1257 1.370 . S
C1256 C1258 1.363 . S
C1256 H1272 0.931 . S
C1257 C1256 1.370 . S
C1257 C1261 1.408 . S
C1258 C1256 1.363 . S
C1258 C1259 1.370 . S
C1258 C1262 1.524 . S
C1259 C1251 1.503 . S
C1259 C1258 1.370 . S
C1259 C1260 1.403 . S
C1260 C1259 1.403 . S
C1260 C1261 1.404 . S
C1260 C1263 1.539 . S
C1261 C1257 1.408 . S
C1261 C1260 1.404 . S
C1261 H1273 0.930 . S
C1262 C1258 1.524 . S
C1262 H1274 0.956 . S
C1262 H1275 0.961 . S
C1262 H1276 0.961 . S
C1263 C1260 1.539 . S
C1263 H1277 0.958 . S
C1263 H1278 0.961 . S
C1263 H1279 0.960 . S
H1264 C1248 0.931 . S
H1265 C1253 0.929 . S
H1266 C1254 0.960 . S
H1267 C1254 0.962 . S
H1268 C1254 0.960 . S
H1269 C1255 0.961 . S
H1270 C1255 0.961 . S
H1271 C1255 0.961 . S
H1272 C1256 0.931 . S
H1273 C1261 0.930 . S
H1274 C1262 0.956 . S
H1275 C1262 0.961 . S
H1276 C1262 0.961 . S
H1277 C1263 0.958 . S
H1278 C1263 0.961 . S
H1279 C1263 0.960 . S
C1280 C1281 1.391 . S
C1280 C1282 1.394 . S
C1280 H1296 0.931 . S
C1281 C1280 1.391 . S
C1281 C1285 1.376 . S
C1282 C1280 1.394 . S
C1282 C1283 1.369 . S
C1282 C1286 1.531 . S
C1283 C1282 1.369 . S
C1283 C1284 1.410 . S
C1283 C1291 1.503 . S
C1284 C1283 1.410 . S
C1284 C1285 1.392 . S
C1284 C1287 1.511 . S
C1285 C1281 1.376 . S
C1285 C1284 1.392 . S
C1285 H1297 0.929 . S
C1286 C1282 1.531 . S
C1286 H1298 0.960 . S
C1286 H1299 0.962 . S
C1286 H1300 0.960 . S
C1287 C1284 1.511 . S
C1287 H1301 0.961 . S
C1287 H1302 0.961 . S
C1287 H1303 0.961 . S
C1288 C1289 1.370 . S
C1288 C1290 1.363 . S
C1288 H1304 0.931 . S
C1289 C1288 1.370 . S
C1289 C1293 1.408 . S
C1290 C1288 1.363 . S
C1290 C1291 1.370 . S
C1290 C1294 1.524 . S
C1291 C1283 1.503 . S
C1291 C1290 1.370 . S
C1291 C1292 1.403 . S
C1292 C1291 1.403 . S
C1292 C1293 1.404 . S
C1292 C1295 1.539 . S
C1293 C1289 1.408 . S
C1293 C1292 1.404 . S
C1293 H1305 0.930 . S
C1294 C1290 1.524 . S
C1294 H1306 0.956 . S
C1294 H1307 0.961 . S
C1294 H1308 0.961 . S
C1295 C1292 1.539 . S
C1295 H1309 0.958 . S
C1295 H1310 0.961 . S
C1295 H1311 0.960 . S
H1296 C1280 0.931 . S
H1297 C1285 0.929 . S
H1298 C1286 0.960 . S
H1299 C1286 0.962 . S
H1300 C1286 0.960 . S
H1301 C1287 0.961 . S
H1302 C1287 0.961 . S
H1303 C1287 0.961 . S
H1304 C1288 0.931 . S
H1305 C1293 0.930 . S
H1306 C1294 0.956 . S
H1307 C1294 0.961 . S
H1308 C1294 0.961 . S
H1309 C1295 0.958 . S
H1310 C1295 0.961 . S
H1311 C1295 0.960 . S
C1312 C1313 1.391 . S
C1312 C1314 1.394 . S
C1312 H1328 0.931 . S
C1313 C1312 1.391 . S
C1313 C1317 1.376 . S
C1314 C1312 1.394 . S
C1314 C1315 1.369 . S
C1314 C1318 1.531 . S
C1315 C1314 1.369 . S
C1315 C1316 1.410 . S
C1315 C1323 1.503 . S
C1316 C1315 1.410 . S
C1316 C1317 1.392 . S
C1316 C1319 1.511 . S
C1317 C1313 1.376 . S
C1317 C1316 1.392 . S
C1317 H1329 0.929 . S
C1318 C1314 1.531 . S
C1318 H1330 0.960 . S
C1318 H1331 0.962 . S
C1318 H1332 0.960 . S
C1319 C1316 1.511 . S
C1319 H1333 0.961 . S
C1319 H1334 0.961 . S
C1319 H1335 0.961 . S
C1320 C1321 1.370 . S
C1320 C1322 1.363 . S
C1320 H1336 0.931 . S
C1321 C1320 1.370 . S
C1321 C1325 1.408 . S
C1322 C1320 1.363 . S
C1322 C1323 1.370 . S
C1322 C1326 1.524 . S
C1323 C1315 1.503 . S
C1323 C1322 1.370 . S
C1323 C1324 1.403 . S
C1324 C1323 1.403 . S
C1324 C1325 1.404 . S
C1324 C1327 1.539 . S
C1325 C1321 1.408 . S
C1325 C1324 1.404 . S
C1325 H1337 0.930 . S
C1326 C1322 1.524 . S
C1326 H1338 0.956 . S
C1326 H1339 0.961 . S
C1326 H1340 0.961 . S
C1327 C1324 1.539 . S
C1327 H1341 0.958 . S
C1327 H1342 0.961 . S
C1327 H1343 0.960 . S
H1328 C1312 0.931 . S
H1329 C1317 0.929 . S
H1330 C1318 0.960 . S
H1331 C1318 0.962 . S
H1332 C1318 0.960 . S
H1333 C1319 0.961 . S
H1334 C1319 0.961 . S
H1335 C1319 0.961 . S
H1336 C1320 0.931 . S
H1337 C1325 0.930 . S
H1338 C1326 0.956 . S
H1339 C1326 0.961 . S
H1340 C1326 0.961 . S
H1341 C1327 0.958 . S
H1342 C1327 0.961 . S
H1343 C1327 0.960 . S
C1344 C1345 1.391 . S
C1344 C1346 1.394 . S
C1344 H1360 0.931 . S
C1345 C1344 1.391 . S
C1345 C1349 1.376 . S
C1346 C1344 1.394 . S
C1346 C1347 1.369 . S
C1346 C1350 1.531 . S
C1347 C1346 1.369 . S
C1347 C1348 1.410 . S
C1347 C1355 1.503 . S
C1348 C1347 1.410 . S
C1348 C1349 1.392 . S
C1348 C1351 1.511 . S
C1349 C1345 1.376 . S
C1349 C1348 1.392 . S
C1349 H1361 0.929 . S
C1350 C1346 1.531 . S
C1350 H1362 0.960 . S
C1350 H1363 0.962 . S
C1350 H1364 0.960 . S
C1351 C1348 1.511 . S
C1351 H1365 0.961 . S
C1351 H1366 0.961 . S
C1351 H1367 0.961 . S
C1352 C1353 1.370 . S
C1352 C1354 1.363 . S
C1352 H1368 0.931 . S
C1353 C1352 1.370 . S
C1353 C1357 1.408 . S
C1354 C1352 1.363 . S
C1354 C1355 1.370 . S
C1354 C1358 1.524 . S
C1355 C1347 1.503 . S
C1355 C1354 1.370 . S
C1355 C1356 1.403 . S
C1356 C1355 1.403 . S
C1356 C1357 1.404 . S
C1356 C1359 1.539 . S
C1357 C1353 1.408 . S
C1357 C1356 1.404 . S
C1357 H1369 0.930 . S
C1358 C1354 1.524 . S
C1358 H1370 0.956 . S
C1358 H1371 0.961 . S
C1358 H1372 0.961 . S
C1359 C1356 1.539 . S
C1359 H1373 0.958 . S
C1359 H1374 0.961 . S
C1359 H1375 0.960 . S
H1360 C1344 0.931 . S
H1361 C1349 0.929 . S
H1362 C1350 0.960 . S
H1363 C1350 0.962 . S
H1364 C1350 0.960 . S
H1365 C1351 0.961 . S
H1366 C1351 0.961 . S
H1367 C1351 0.961 . S
H1368 C1352 0.931 . S
H1369 C1357 0.930 . S
H1370 C1358 0.956 . S
H1371 C1358 0.961 . S
H1372 C1358 0.961 . S
H1373 C1359 0.958 . S
H1374 C1359 0.961 . S
H1375 C1359 0.960 . S
C1376 C1377 1.391 . S
C1376 C1378 1.394 . S
C1376 H1392 0.931 . S
C1377 C1376 1.391 . S
C1377 C1381 1.376 . S
C1378 C1376 1.394 . S
C1378 C1379 1.369 . S
C1378 C1382 1.531 . S
C1379 C1378 1.369 . S
C1379 C1380 1.410 . S
C1379 C1387 1.503 . S
C1380 C1379 1.410 . S
C1380 C1381 1.392 . S
C1380 C1383 1.511 . S
C1381 C1377 1.376 . S
C1381 C1380 1.392 . S
C1381 H1393 0.929 . S
C1382 C1378 1.531 . S
C1382 H1394 0.960 . S
C1382 H1395 0.962 . S
C1382 H1396 0.960 . S
C1383 C1380 1.511 . S
C1383 H1397 0.961 . S
C1383 H1398 0.961 . S
C1383 H1399 0.961 . S
C1384 C1385 1.370 . S
C1384 C1386 1.363 . S
C1384 H1400 0.931 . S
C1385 C1384 1.370 . S
C1385 C1389 1.408 . S
C1386 C1384 1.363 . S
C1386 C1387 1.370 . S
C1386 C1390 1.524 . S
C1387 C1379 1.503 . S
C1387 C1386 1.370 . S
C1387 C1388 1.403 . S
C1388 C1387 1.403 . S
C1388 C1389 1.404 . S
C1388 C1391 1.539 . S
C1389 C1385 1.408 . S
C1389 C1388 1.404 . S
C1389 H1401 0.930 . S
C1390 C1386 1.524 . S
C1390 H1402 0.956 . S
C1390 H1403 0.961 . S
C1390 H1404 0.961 . S
C1391 C1388 1.539 . S
C1391 H1405 0.958 . S
C1391 H1406 0.961 . S
C1391 H1407 0.960 . S
H1392 C1376 0.931 . S
H1393 C1381 0.929 . S
H1394 C1382 0.960 . S
H1395 C1382 0.962 . S
H1396 C1382 0.960 . S
H1397 C1383 0.961 . S
H1398 C1383 0.961 . S
H1399 C1383 0.961 . S
H1400 C1384 0.931 . S
H1401 C1389 0.930 . S
H1402 C1390 0.956 . S
H1403 C1390 0.961 . S
H1404 C1390 0.961 . S
H1405 C1391 0.958 . S
H1406 C1391 0.961 . S
H1407 C1391 0.960 . S
C1408 C1409 1.391 . S
C1408 C1410 1.394 . S
C1408 H1424 0.931 . S
C1409 C1408 1.391 . S
C1409 C1413 1.376 . S
C1410 C1408 1.394 . S
C1410 C1411 1.369 . S
C1410 C1414 1.531 . S
C1411 C1410 1.369 . S
C1411 C1412 1.410 . S
C1411 C1419 1.503 . S
C1412 C1411 1.410 . S
C1412 C1413 1.392 . S
C1412 C1415 1.511 . S
C1413 C1409 1.376 . S
C1413 C1412 1.392 . S
C1413 H1425 0.929 . S
C1414 C1410 1.531 . S
C1414 H1426 0.960 . S
C1414 H1427 0.962 . S
C1414 H1428 0.960 . S
C1415 C1412 1.511 . S
C1415 H1429 0.961 . S
C1415 H1430 0.961 . S
C1415 H1431 0.961 . S
C1416 C1417 1.370 . S
C1416 C1418 1.363 . S
C1416 H1432 0.931 . S
C1417 C1416 1.370 . S
C1417 C1421 1.408 . S
C1418 C1416 1.363 . S
C1418 C1419 1.370 . S
C1418 C1422 1.524 . S
C1419 C1411 1.503 . S
C1419 C1418 1.370 . S
C1419 C1420 1.403 . S
C1420 C1419 1.403 . S
C1420 C1421 1.404 . S
C1420 C1423 1.539 . S
C1421 C1417 1.408 . S
C1421 C1420 1.404 . S
C1421 H1433 0.930 . S
C1422 C1418 1.524 . S
C1422 H1434 0.956 . S
C1422 H1435 0.961 . S
C1422 H1436 0.961 . S
C1423 C1420 1.539 . S
C1423 H1437 0.958 . S
C1423 H1438 0.961 . S
C1423 H1439 0.960 . S
H1424 C1408 0.931 . S
H1425 C1413 0.929 . S
H1426 C1414 0.960 . S
H1427 C1414 0.962 . S
H1428 C1414 0.960 . S
H1429 C1415 0.961 . S
H1430 C1415 0.961 . S
H1431 C1415 0.961 . S
H1432 C1416 0.931 . S
H1433 C1421 0.930 . S
H1434 C1422 0.956 . S
H1435 C1422 0.961 . S
H1436 C1422 0.961 . S
H1437 C1423 0.958 . S
H1438 C1423 0.961 . S
H1439 C1423 0.960 . S
C1440 C1441 1.391 . S
C1440 C1442 1.394 . S
C1440 H1456 0.931 . S
C1441 C1440 1.391 . S
C1441 C1445 1.376 . S
C1442 C1440 1.394 . S
C1442 C1443 1.369 . S
C1442 C1446 1.531 . S
C1443 C1442 1.369 . S
C1443 C1444 1.410 . S
C1443 C1451 1.503 . S
C1444 C1443 1.410 . S
C1444 C1445 1.392 . S
C1444 C1447 1.511 . S
C1445 C1441 1.376 . S
C1445 C1444 1.392 . S
C1445 H1457 0.929 . S
C1446 C1442 1.531 . S
C1446 H1458 0.960 . S
C1446 H1459 0.962 . S
C1446 H1460 0.960 . S
C1447 C1444 1.511 . S
C1447 H1461 0.961 . S
C1447 H1462 0.961 . S
C1447 H1463 0.961 . S
C1448 C1449 1.370 . S
C1448 C1450 1.363 . S
C1448 H1464 0.931 . S
C1449 C1448 1.370 . S
C1449 C1453 1.408 . S
C1450 C1448 1.363 . S
C1450 C1451 1.370 . S
C1450 C1454 1.524 . S
C1451 C1443 1.503 . S
C1451 C1450 1.370 . S
C1451 C1452 1.403 . S
C1452 C1451 1.403 . S
C1452 C1453 1.404 . S
C1452 C1455 1.539 . S
C1453 C1449 1.408 . S
C1453 C1452 1.404 . S
C1453 H1465 0.930 . S
C1454 C1450 1.524 . S
C1454 H1466 0.956 . S
C1454 H1467 0.961 . S
C1454 H1468 0.961 . S
C1455 C1452 1.539 . S
C1455 H1469 0.958 . S
C1455 H1470 0.961 . S
C1455 H1471 0.960 . S
H1456 C1440 0.931 . S
H1457 C1445 0.929 . S
H1458 C1446 0.960 . S
H1459 C1446 0.962 . S
H1460 C1446 0.960 . S
H1461 C1447 0.961 . S
H1462 C1447 0.961 . S
H1463 C1447 0.961 . S
H1464 C1448 0.931 . S
H1465 C1453 0.930 . S
H1466 C1454 0.956 . S
H1467 C1454 0.961 . S
H1468 C1454 0.961 . S
H1469 C1455 0.958 . S
H1470 C1455 0.961 . S
H1471 C1455 0.960 . S
C1472 C1473 1.391 . S
C1472 C1474 1.394 . S
C1472 H1488 0.931 . S
C1473 C1472 1.391 . S
C1473 C1477 1.376 . S
C1474 C1472 1.394 . S
C1474 C1475 1.369 . S
C1474 C1478 1.531 . S
C1475 C1474 1.369 . S
C1475 C1476 1.410 . S
C1475 C1483 1.503 . S
C1476 C1475 1.410 . S
C1476 C1477 1.392 . S
C1476 C1479 1.511 . S
C1477 C1473 1.376 . S
C1477 C1476 1.392 . S
C1477 H1489 0.929 . S
C1478 C1474 1.531 . S
C1478 H1490 0.960 . S
C1478 H1491 0.962 . S
C1478 H1492 0.960 . S
C1479 C1476 1.511 . S
C1479 H1493 0.961 . S
C1479 H1494 0.961 . S
C1479 H1495 0.961 . S
C1480 C1481 1.370 . S
C1480 C1482 1.363 . S
C1480 H1496 0.931 . S
C1481 C1480 1.370 . S
C1481 C1485 1.408 . S
C1482 C1480 1.363 . S
C1482 C1483 1.370 . S
C1482 C1486 1.524 . S
C1483 C1475 1.503 . S
C1483 C1482 1.370 . S
C1483 C1484 1.403 . S
C1484 C1483 1.403 . S
C1484 C1485 1.404 . S
C1484 C1487 1.539 . S
C1485 C1481 1.408 . S
C1485 C1484 1.404 . S
C1485 H1497 0.930 . S
C1486 C1482 1.524 . S
C1486 H1498 0.956 . S
C1486 H1499 0.961 . S
C1486 H1500 0.961 . S
C1487 C1484 1.539 . S
C1487 H1501 0.958 . S
C1487 H1502 0.961 . S
C1487 H1503 0.960 . S
H1488 C1472 0.931 . S
H1489 C1477 0.929 . S
H1490 C1478 0.960 . S
H1491 C1478 0.962 . S
H1492 C1478 0.960 . S
H1493 C1479 0.961 . S
H1494 C1479 0.961 . S
H1495 C1479 0.961 . S
H1496 C1480 0.931 . S
H1497 C1485 0.930 . S
H1498 C1486 0.956 . S
H1499 C1486 0.961 . S
H1500 C1486 0.961 . S
H1501 C1487 0.958 . S
H1502 C1487 0.961 . S
H1503 C1487 0.960 . S
C1504 C1505 1.391 . S
C1504 C1506 1.394 . S
C1504 H1520 0.931 . S
C1505 C1504 1.391 . S
C1505 C1509 1.376 . S
C1506 C1504 1.394 . S
C1506 C1507 1.369 . S
C1506 C1510 1.531 . S
C1507 C1506 1.369 . S
C1507 C1508 1.410 . S
C1507 C1515 1.503 . S
C1508 C1507 1.410 . S
C1508 C1509 1.392 . S
C1508 C1511 1.511 . S
C1509 C1505 1.376 . S
C1509 C1508 1.392 . S
C1509 H1521 0.929 . S
C1510 C1506 1.531 . S
C1510 H1522 0.960 . S
C1510 H1523 0.962 . S
C1510 H1524 0.960 . S
C1511 C1508 1.511 . S
C1511 H1525 0.961 . S
C1511 H1526 0.961 . S
C1511 H1527 0.961 . S
C1512 C1513 1.370 . S
C1512 C1514 1.363 . S
C1512 H1528 0.931 . S
C1513 C1512 1.370 . S
C1513 C1517 1.408 . S
C1514 C1512 1.363 . S
C1514 C1515 1.370 . S
C1514 C1518 1.524 . S
C1515 C1507 1.503 . S
C1515 C1514 1.370 . S
C1515 C1516 1.403 . S
C1516 C1515 1.403 . S
C1516 C1517 1.404 . S
C1516 C1519 1.539 . S
C1517 C1513 1.408 . S
C1517 C1516 1.404 . S
C1517 H1529 0.930 . S
C1518 C1514 1.524 . S
C1518 H1530 0.956 . S
C1518 H1531 0.961 . S
C1518 H1532 0.961 . S
C1519 C1516 1.539 . S
C1519 H1533 0.958 . S
C1519 H1534 0.961 . S
C1519 H1535 0.960 . S
H1520 C1504 0.931 . S
H1521 C1509 0.929 . S
H1522 C1510 0.960 . S
H1523 C1510 0.962 . S
H1524 C1510 0.960 . S
H1525 C1511 0.961 . S
H1526 C1511 0.961 . S
H1527 C1511 0.961 . S
H1528 C1512 0.931 . S
H1529 C1517 0.930 . S
H1530 C1518 0.956 . S
H1531 C1518 0.961 . S
H1532 C1518 0.961 . S
H1533 C1519 0.958 . S
H1534 C1519 0.961 . S
H1535 C1519 0.960 . S
C1536 C1537 1.391 . S
C1536 C1538 1.394 . S
C1536 H1552 0.931 . S
C1537 C1536 1.391 . S
C1537 C1541 1.376 . S
C1538 C1536 1.394 . S
C1538 C1539 1.369 . S
C1538 C1542 1.531 . S
C1539 C1538 1.369 . S
C1539 C1540 1.410 . S
C1539 C1547 1.503 . S
C1540 C1539 1.410 . S
C1540 C1541 1.392 . S
C1540 C1543 1.511 . S
C1541 C1537 1.376 . S
C1541 C1540 1.392 . S
C1541 H1553 0.929 . S
C1542 C1538 1.531 . S
C1542 H1554 0.960 . S
C1542 H1555 0.962 . S
C1542 H1556 0.960 . S
C1543 C1540 1.511 . S
C1543 H1557 0.961 . S
C1543 H1558 0.961 . S
C1543 H1559 0.961 . S
C1544 C1545 1.370 . S
C1544 C1546 1.363 . S
C1544 H1560 0.931 . S
C1545 C1544 1.370 . S
C1545 C1549 1.408 . S
C1546 C1544 1.363 . S
C1546 C1547 1.370 . S
C1546 C1550 1.524 . S
C1547 C1539 1.503 . S
C1547 C1546 1.370 . S
C1547 C1548 1.403 . S
C1548 C1547 1.403 . S
C1548 C1549 1.404 . S
C1548 C1551 1.539 . S
C1549 C1545 1.408 . S
C1549 C1548 1.404 . S
C1549 H1561 0.930 . S
C1550 C1546 1.524 . S
C1550 H1562 0.956 . S
C1550 H1563 0.961 . S
C1550 H1564 0.961 . S
C1551 C1548 1.539 . S
C1551 H1565 0.958 . S
C1551 H1566 0.961 . S
C1551 H1567 0.960 . S
H1552 C1536 0.931 . S
H1553 C1541 0.929 . S
H1554 C1542 0.960 . S
H1555 C1542 0.962 . S
H1556 C1542 0.960 . S
H1557 C1543 0.961 . S
H1558 C1543 0.961 . S
H1559 C1543 0.961 . S
H1560 C1544 0.931 . S
H1561 C1549 0.930 . S
H1562 C1550 0.956 . S
H1563 C1550 0.961 . S
H1564 C1550 0.961 . S
H1565 C1551 0.958 . S
H1566 C1551 0.961 . S
H1567 C1551 0.960 . S
C1568 C1569 1.391 . S
C1568 C1570 1.394 . S
C1568 H1584 0.931 . S
C1569 C1568 1.391 . S
C1569 C1573 1.376 . S
C1570 C1568 1.394 . S
C1570 C1571 1.369 . S
C1570 C1574 1.531 . S
C1571 C1570 1.369 . S
C1571 C1572 1.410 . S
C1571 C1579 1.503 . S
C1572 C1571 1.410 . S
C1572 C1573 1.392 . S
C1572 C1575 1.511 . S
C1573 C1569 1.376 . S
C1573 C1572 1.392 . S
C1573 H1585 0.929 . S
C1574 C1570 1.531 . S
C1574 H1586 0.960 . S
C1574 H1587 0.962 . S
C1574 H1588 0.960 . S
C1575 C1572 1.511 . S
C1575 H1589 0.961 . S
C1575 H1590 0.961 . S
C1575 H1591 0.961 . S
C1576 C1577 1.370 . S
C1576 C1578 1.363 . S
C1576 H1592 0.931 . S
C1577 C1576 1.370 . S
C1577 C1581 1.408 . S
C1578 C1576 1.363 . S
C1578 C1579 1.370 . S
C1578 C1582 1.524 . S
C1579 C1571 1.503 . S
C1579 C1578 1.370 . S
C1579 C1580 1.403 . S
C1580 C1579 1.403 . S
C1580 C1581 1.404 . S
C1580 C1583 1.539 . S
C1581 C1577 1.408 . S
C1581 C1580 1.404 . S
C1581 H1593 0.930 . S
C1582 C1578 1.524 . S
C1582 H1594 0.956 . S
C1582 H1595 0.961 . S
C1582 H1596 0.961 . S
C1583 C1580 1.539 . S
C1583 H1597 0.958 . S
C1583 H1598 0.961 . S
C1583 H1599 0.960 . S
H1584 C1568 0.931 . S
H1585 C1573 0.929 . S
H1586 C1574 0.960 . S
H1587 C1574 0.962 . S
H1588 C1574 0.960 . S
H1589 C1575 0.961 . S
H1590 C1575 0.961 . S
H1591 C1575 0.961 . S
H1592 C1576 0.931 . S
H1593 C1581 0.930 . S
H1594 C1582 0.956 . S
H1595 C1582 0.961 . S
H1596 C1582 0.961 . S
H1597 C1583 0.958 . S
H1598 C1583 0.961 . S
H1599 C1583 0.960 . S
C1600 C1601 1.391 . S
C1600 C1602 1.394 . S
C1600 H1616 0.931 . S
C1601 C1600 1.391 . S
C1601 C1605 1.376 . S
C1602 C1600 1.394 . S
C1602 C1603 1.369 . S
C1602 C1606 1.531 . S
C1603 C1602 1.369 . S
C1603 C1604 1.410 . S
C1603 C1611 1.503 . S
C1604 C1603 1.410 . S
C1604 C1605 1.392 . S
C1604 C1607 1.511 . S
C1605 C1601 1.376 . S
C1605 C1604 1.392 . S
C1605 H1617 0.929 . S
C1606 C1602 1.531 . S
C1606 H1618 0.960 . S
C1606 H1619 0.962 . S
C1606 H1620 0.960 . S
C1607 C1604 1.511 . S
C1607 H1621 0.961 . S
C1607 H1622 0.961 . S
C1607 H1623 0.961 . S
C1608 C1609 1.370 . S
C1608 C1610 1.363 . S
C1608 H1624 0.931 . S
C1609 C1608 1.370 . S
C1609 C1613 1.408 . S
C1610 C1608 1.363 . S
C1610 C1611 1.370 . S
C1610 C1614 1.524 . S
C1611 C1603 1.503 . S
C1611 C1610 1.370 . S
C1611 C1612 1.403 . S
C1612 C1611 1.403 . S
C1612 C1613 1.404 . S
C1612 C1615 1.539 . S
C1613 C1609 1.408 . S
C1613 C1612 1.404 . S
C1613 H1625 0.930 . S
C1614 C1610 1.524 . S
C1614 H1626 0.956 . S
C1614 H1627 0.961 . S
C1614 H1628 0.961 . S
C1615 C1612 1.539 . S
C1615 H1629 0.958 . S
C1615 H1630 0.961 . S
C1615 H1631 0.960 . S
H1616 C1600 0.931 . S
H1617 C1605 0.929 . S
H1618 C1606 0.960 . S
H1619 C1606 0.962 . S
H1620 C1606 0.960 . S
H1621 C1607 0.961 . S
H1622 C1607 0.961 . S
H1623 C1607 0.961 . S
H1624 C1608 0.931 . S
H1625 C1613 0.930 . S
H1626 C1614 0.956 . S
H1627 C1614 0.961 . S
H1628 C1614 0.961 . S
H1629 C1615 0.958 . S
H1630 C1615 0.961 . S
H1631 C1615 0.960 . S
C1632 C1633 1.391 . S
C1632 C1634 1.394 . S
C1632 H1648 0.931 . S
C1633 C1632 1.391 . S
C1633 C1637 1.376 . S
C1634 C1632 1.394 . S
C1634 C1635 1.369 . S
C1634 C1638 1.531 . S
C1635 C1634 1.369 . S
C1635 C1636 1.410 . S
C1635 C1643 1.503 . S
C1636 C1635 1.410 . S
C1636 C1637 1.392 . S
C1636 C1639 1.511 . S
C1637 C1633 1.376 . S
C1637 C1636 1.392 . S
C1637 H1649 0.929 . S
C1638 C1634 1.531 . S
C1638 H1650 0.960 . S
C1638 H1651 0.962 . S
C1638 H1652 0.960 . S
C1639 C1636 1.511 . S
C1639 H1653 0.961 . S
C1639 H1654 0.961 . S
C1639 H1655 0.961 . S
C1640 C1641 1.370 . S
C1640 C1642 1.363 . S
C1640 H1656 0.931 . S
C1641 C1640 1.370 . S
C1641 C1645 1.408 . S
C1642 C1640 1.363 . S
C1642 C1643 1.370 . S
C1642 C1646 1.524 . S
C1643 C1635 1.503 . S
C1643 C1642 1.370 . S
C1643 C1644 1.403 . S
C1644 C1643 1.403 . S
C1644 C1645 1.404 . S
C1644 C1647 1.539 . S
C1645 C1641 1.408 . S
C1645 C1644 1.404 . S
C1645 H1657 0.930 . S
C1646 C1642 1.524 . S
C1646 H1658 0.956 . S
C1646 H1659 0.961 . S
C1646 H1660 0.961 . S
C1647 C1644 1.539 . S
C1647 H1661 0.958 . S
C1647 H1662 0.961 . S
C1647 H1663 0.960 . S
H1648 C1632 0.931 . S
H1649 C1637 0.929 . S
H1650 C1638 0.960 . S
H1651 C1638 0.962 . S
H1652 C1638 0.960 . S
H1653 C1639 0.961 . S
H1654 C1639 0.961 . S
H1655 C1639 0.961 . S
H1656 C1640 0.931 . S
H1657 C1645 0.930 . S
H1658 C1646 0.956 . S
H1659 C1646 0.961 . S
H1660 C1646 0.961 . S
H1661 C1647 0.958 . S
H1662 C1647 0.961 . S
H1663 C1647 0.960 . S
C1664 C1665 1.391 . S
C1664 C1666 1.394 . S
C1664 H1680 0.931 . S
C1665 C1664 1.391 . S
C1665 C1669 1.376 . S
C1666 C1664 1.394 . S
C1666 C1667 1.369 . S
C1666 C1670 1.531 . S
C1667 C1666 1.369 . S
C1667 C1668 1.410 . S
C1667 C1675 1.503 . S
C1668 C1667 1.410 . S
C1668 C1669 1.392 . S
C1668 C1671 1.511 . S
C1669 C1665 1.376 . S
C1669 C1668 1.392 . S
C1669 H1681 0.929 . S
C1670 C1666 1.531 . S
C1670 H1682 0.960 . S
C1670 H1683 0.962 . S
C1670 H1684 0.960 . S
C1671 C1668 1.511 . S
C1671 H1685 0.961 . S
C1671 H1686 0.961 . S
C1671 H1687 0.961 . S
C1672 C1673 1.370 . S
C1672 C1674 1.363 . S
C1672 H1688 0.931 . S
C1673 C1672 1.370 . S
C1673 C1677 1.408 . S
C1674 C1672 1.363 . S
C1674 C1675 1.370 . S
C1674 C1678 1.524 . S
C1675 C1667 1.503 . S
C1675 C1674 1.370 . S
C1675 C1676 1.403 . S
C1676 C1675 1.403 . S
C1676 C1677 1.404 . S
C1676 C1679 1.539 . S
C1677 C1673 1.408 . S
C1677 C1676 1.404 . S
C1677 H1689 0.930 . S
C1678 C1674 1.524 . S
C1678 H1690 0.956 . S
C1678 H1691 0.961 . S
C1678 H1692 0.961 . S
C1679 C1676 1.539 . S
C1679 H1693 0.958 . S
C1679 H1694 0.961 . S
C1679 H1695 0.960 . S
H1680 C1664 0.931 . S
H1681 C1669 0.929 . S
H1682 C1670 0.960 . S
H1683 C1670 0.962 . S
H1684 C1670 0.960 . S
H1685 C1671 0.961 . S
H1686 C1671 0.961 . S
H1687 C1671 0.961 . S
H1688 C1672 0.931 . S
H1689 C1677 0.930 . S
H1690 C1678 0.956 . S
H1691 C1678 0.961 . S
H1692 C1678 0.961 . S
H1693 C1679 0.958 . S
H1694 C1679 0.961 . S
H1695 C1679 0.960 . S
C1696 C1697 1.391 . S
C1696 C1698 1.394 . S
C1696 H1712 0.931 . S
C1697 C1696 1.391 . S
C1697 C1701 1.376 . S
C1698 C1696 1.394 . S
C1698 C1699 1.369 . S
C1698 C1702 1.531 . S
C1699 C1698 1.369 . S
C1699 C1700 1.410 . S
C1699 C1707 1.503 . S
C1700 C1699 1.410 . S
C1700 C1701 1.392 . S
C1700 C1703 1.511 . S
C1701 C1697 1.376 . S
C1701 C1700 1.392 . S
C1701 H1713 0.929 . S
C1702 C1698 1.531 . S
C1702 H1714 0.960 . S
C1702 H1715 0.962 . S
C1702 H1716 0.960 . S
C1703 C1700 1.511 . S
C1703 H1717 0.961 . S
C1703 H1718 0.961 . S
C1703 H1719 0.961 . S
C1704 C1705 1.370 . S
C1704 C1706 1.363 . S
C1704 H1720 0.931 . S
C1705 C1704 1.370 . S
C1705 C1709 1.408 . S
C1706 C1704 1.363 . S
C1706 C1707 1.370 . S
C1706 C1710 1.524 . S
C1707 C1699 1.503 . S
C1707 C1706 1.370 . S
C1707 C1708 1.403 . S
C1708 C1707 1.403 . S
C1708 C1709 1.404 . S
C1708 C1711 1.539 . S
C1709 C1705 1.408 . S
C1709 C1708 1.404 . S
C1709 H1721 0.930 . S
C1710 C1706 1.524 . S
C1710 H1722 0.956 . S
C1710 H1723 0.961 . S
C1710 H1724 0.961 . S
C1711 C1708 1.539 . S
C1711 H1725 0.958 . S
C1711 H1726 0.961 . S
C1711 H1727 0.960 . S
H1712 C1696 0.931 . S
H1713 C1701 0.929 . S
H1714 C1702 0.960 . S
H1715 C1702 0.962 . S
H1716 C1702 0.960 . S
H1717 C1703 0.961 . S
H1718 C1703 0.961 . S
H1719 C1703 0.961 . S
H1720 C1704 0.931 . S
H1721 C1709 0.930 . S
H1722 C1710 0.956 . S
H1723 C1710 0.961 . S
H1724 C1710 0.961 . S
H1725 C1711 0.958 . S
H1726 C1711 0.961 . S
H1727 C1711 0.960 . S
C1728 C1729 1.391 . S
C1728 C1730 1.394 . S
C1728 H1744 0.931 . S
C1729 C1728 1.391 . S
C1729 C1733 1.376 . S
C1730 C1728 1.394 . S
C1730 C1731 1.369 . S
C1730 C1734 1.531 . S
C1731 C1730 1.369 . S
C1731 C1732 1.410 . S
C1731 C1739 1.503 . S
C1732 C1731 1.410 . S
C1732 C1733 1.392 . S
C1732 C1735 1.511 . S
C1733 C1729 1.376 . S
C1733 C1732 1.392 . S
C1733 H1745 0.929 . S
C1734 C1730 1.531 . S
C1734 H1746 0.960 . S
C1734 H1747 0.962 . S
C1734 H1748 0.960 . S
C1735 C1732 1.511 . S
C1735 H1749 0.961 . S
C1735 H1750 0.961 . S
C1735 H1751 0.961 . S
C1736 C1737 1.370 . S
C1736 C1738 1.363 . S
C1736 H1752 0.931 . S
C1737 C1736 1.370 . S
C1737 C1741 1.408 . S
C1738 C1736 1.363 . S
C1738 C1739 1.370 . S
C1738 C1742 1.524 . S
C1739 C1731 1.503 . S
C1739 C1738 1.370 . S
C1739 C1740 1.403 . S
C1740 C1739 1.403 . S
C1740 C1741 1.404 . S
C1740 C1743 1.539 . S
C1741 C1737 1.408 . S
C1741 C1740 1.404 . S
C1741 H1753 0.930 . S
C1742 C1738 1.524 . S
C1742 H1754 0.956 . S
C1742 H1755 0.961 . S
C1742 H1756 0.961 . S
C1743 C1740 1.539 . S
C1743 H1757 0.958 . S
C1743 H1758 0.961 . S
C1743 H1759 0.960 . S
H1744 C1728 0.931 . S
H1745 C1733 0.929 . S
H1746 C1734 0.960 . S
H1747 C1734 0.962 . S
H1748 C1734 0.960 . S
H1749 C1735 0.961 . S
H1750 C1735 0.961 . S
H1751 C1735 0.961 . S
H1752 C1736 0.931 . S
H1753 C1741 0.930 . S
H1754 C1742 0.956 . S
H1755 C1742 0.961 . S
H1756 C1742 0.961 . S
H1757 C1743 0.958 . S
H1758 C1743 0.961 . S
H1759 C1743 0.960 . S
C1760 C1761 1.391 . S
C1760 C1762 1.394 . S
C1760 H1776 0.931 . S
C1761 C1760 1.391 . S
C1761 C1765 1.376 . S
C1762 C1760 1.394 . S
C1762 C1763 1.369 . S
C1762 C1766 1.531 . S
C1763 C1762 1.369 . S
C1763 C1764 1.410 . S
C1763 C1771 1.503 . S
C1764 C1763 1.410 . S
C1764 C1765 1.392 . S
C1764 C1767 1.511 . S
C1765 C1761 1.376 . S
C1765 C1764 1.392 . S
C1765 H1777 0.929 . S
C1766 C1762 1.531 . S
C1766 H1778 0.960 . S
C1766 H1779 0.962 . S
C1766 H1780 0.960 . S
C1767 C1764 1.511 . S
C1767 H1781 0.961 . S
C1767 H1782 0.961 . S
C1767 H1783 0.961 . S
C1768 C1769 1.370 . S
C1768 C1770 1.363 . S
C1768 H1784 0.931 . S
C1769 C1768 1.370 . S
C1769 C1773 1.408 . S
C1770 C1768 1.363 . S
C1770 C1771 1.370 . S
C1770 C1774 1.524 . S
C1771 C1763 1.503 . S
C1771 C1770 1.370 . S
C1771 C1772 1.403 . S
C1772 C1771 1.403 . S
C1772 C1773 1.404 . S
C1772 C1775 1.539 . S
C1773 C1769 1.408 . S
C1773 C1772 1.404 . S
C1773 H1785 0.930 . S
C1774 C1770 1.524 . S
C1774 H1786 0.956 . S
C1774 H1787 0.961 . S
C1774 H1788 0.961 . S
C1775 C1772 1.539 . S
C1775 H1789 0.958 . S
C1775 H1790 0.961 . S
C1775 H1791 0.960 . S
H1776 C1760 0.931 . S
H1777 C1765 0.929 . S
H1778 C1766 0.960 . S
H1779 C1766 0.962 . S
H1780 C1766 0.960 . S
H1781 C1767 0.961 . S
H1782 C1767 0.961 . S
H1783 C1767 0.961 . S
H1784 C1768 0.931 . S
H1785 C1773 0.930 . S
H1786 C1774 0.956 . S
H1787 C1774 0.961 . S
H1788 C1774 0.961 . S
H1789 C1775 0.958 . S
H1790 C1775 0.961 . S
H1791 C1775 0.960 . S
C1792 C1793 1.391 . S
C1792 C1794 1.394 . S
C1792 H1808 0.931 . S
C1793 C1792 1.391 . S
C1793 C1797 1.376 . S
C1794 C1792 1.394 . S
C1794 C1795 1.369 . S
C1794 C1798 1.531 . S
C1795 C1794 1.369 . S
C1795 C1796 1.410 . S
C1795 C1803 1.503 . S
C1796 C1795 1.410 . S
C1796 C1797 1.392 . S
C1796 C1799 1.511 . S
C1797 C1793 1.376 . S
C1797 C1796 1.392 . S
C1797 H1809 0.929 . S
C1798 C1794 1.531 . S
C1798 H1810 0.960 . S
C1798 H1811 0.962 . S
C1798 H1812 0.960 . S
C1799 C1796 1.511 . S
C1799 H1813 0.961 . S
C1799 H1814 0.961 . S
C1799 H1815 0.961 . S
C1800 C1801 1.370 . S
C1800 C1802 1.363 . S
C1800 H1816 0.931 . S
C1801 C1800 1.370 . S
C1801 C1805 1.408 . S
C1802 C1800 1.363 . S
C1802 C1803 1.370 . S
C1802 C1806 1.524 . S
C1803 C1795 1.503 . S
C1803 C1802 1.370 . S
C1803 C1804 1.403 . S
C1804 C1803 1.403 . S
C1804 C1805 1.404 . S
C1804 C1807 1.539 . S
C1805 C1801 1.408 . S
C1805 C1804 1.404 . S
C1805 H1817 0.930 . S
C1806 C1802 1.524 . S
C1806 H1818 0.956 . S
C1806 H1819 0.961 . S
C1806 H1820 0.961 . S
C1807 C1804 1.539 . S
C1807 H1821 0.958 . S
C1807 H1822 0.961 . S
C1807 H1823 0.960 . S
H1808 C1792 0.931 . S
H1809 C1797 0.929 . S
H1810 C1798 0.960 . S
H1811 C1798 0.962 . S
H1812 C1798 0.960 . S
H1813 C1799 0.961 . S
H1814 C1799 0.961 . S
H1815 C1799 0.961 . S
H1816 C1800 0.931 . S
H1817 C1805 0.930 . S
H1818 C1806 0.956 . S
H1819 C1806 0.961 . S
H1820 C1806 0.961 . S
H1821 C1807 0.958 . S
H1822 C1807 0.961 . S
H1823 C1807 0.960 . S
C1824 C1825 1.391 . S
C1824 C1826 1.394 . S
C1824 H1840 0.931 . S
C1825 C1824 1.391 . S
C1825 C1829 1.376 . S
C1826 C1824 1.394 . S
C1826 C1827 1.369 . S
C1826 C1830 1.531 . S
C1827 C1826 1.369 . S
C1827 C1828 1.410 . S
C1827 C1835 1.503 . S
C1828 C1827 1.410 . S
C1828 C1829 1.392 . S
C1828 C1831 1.511 . S
C1829 C1825 1.376 . S
C1829 C1828 1.392 . S
C1829 H1841 0.929 . S
C1830 C1826 1.531 . S
C1830 H1842 0.960 . S
C1830 H1843 0.962 . S
C1830 H1844 0.960 . S
C1831 C1828 1.511 . S
C1831 H1845 0.961 . S
C1831 H1846 0.961 . S
C1831 H1847 0.961 . S
C1832 C1833 1.370 . S
C1832 C1834 1.363 . S
C1832 H1848 0.931 . S
C1833 C1832 1.370 . S
C1833 C1837 1.408 . S
C1834 C1832 1.363 . S
C1834 C1835 1.370 . S
C1834 C1838 1.524 . S
C1835 C1827 1.503 . S
C1835 C1834 1.370 . S
C1835 C1836 1.403 . S
C1836 C1835 1.403 . S
C1836 C1837 1.404 . S
C1836 C1839 1.539 . S
C1837 C1833 1.408 . S
C1837 C1836 1.404 . S
C1837 H1849 0.930 . S
C1838 C1834 1.524 . S
C1838 H1850 0.956 . S
C1838 H1851 0.961 . S
C1838 H1852 0.961 . S
C1839 C1836 1.539 . S
C1839 H1853 0.958 . S
C1839 H1854 0.961 . S
C1839 H1855 0.960 . S
H1840 C1824 0.931 . S
H1841 C1829 0.929 . S
H1842 C1830 0.960 . S
H1843 C1830 0.962 . S
H1844 C1830 0.960 . S
H1845 C1831 0.961 . S
H1846 C1831 0.961 . S
H1847 C1831 0.961 . S
H1848 C1832 0.931 . S
H1849 C1837 0.930 . S
H1850 C1838 0.956 . S
H1851 C1838 0.961 . S
H1852 C1838 0.961 . S
H1853 C1839 0.958 . S
H1854 C1839 0.961 . S
H1855 C1839 0.960 . S
C1856 C1857 1.391 . S
C1856 C1858 1.394 . S
C1856 H1872 0.931 . S
C1857 C1856 1.391 . S
C1857 C1861 1.376 . S
C1858 C1856 1.394 . S
C1858 C1859 1.369 . S
C1858 C1862 1.531 . S
C1859 C1858 1.369 . S
C1859 C1860 1.410 . S
C1859 C1867 1.503 . S
C1860 C1859 1.410 . S
C1860 C1861 1.392 . S
C1860 C1863 1.511 . S
C1861 C1857 1.376 . S
C1861 C1860 1.392 . S
C1861 H1873 0.929 . S
C1862 C1858 1.531 . S
C1862 H1874 0.960 . S
C1862 H1875 0.962 . S
C1862 H1876 0.960 . S
C1863 C1860 1.511 . S
C1863 H1877 0.961 . S
C1863 H1878 0.961 . S
C1863 H1879 0.961 . S
C1864 C1865 1.370 . S
C1864 C1866 1.363 . S
C1864 H1880 0.931 . S
C1865 C1864 1.370 . S
C1865 C1869 1.408 . S
C1866 C1864 1.363 . S
C1866 C1867 1.370 . S
C1866 C1870 1.524 . S
C1867 C1859 1.503 . S
C1867 C1866 1.370 . S
C1867 C1868 1.403 . S
C1868 C1867 1.403 . S
C1868 C1869 1.404 . S
C1868 C1871 1.539 . S
C1869 C1865 1.408 . S
C1869 C1868 1.404 . S
C1869 H1881 0.930 . S
C1870 C1866 1.524 . S
C1870 H1882 0.956 . S
C1870 H1883 0.961 . S
C1870 H1884 0.961 . S
C1871 C1868 1.539 . S
C1871 H1885 0.958 . S
C1871 H1886 0.961 . S
C1871 H1887 0.960 . S
H1872 C1856 0.931 . S
H1873 C1861 0.929 . S
H1874 C1862 0.960 . S
H1875 C1862 0.962 . S
H1876 C1862 0.960 . S
H1877 C1863 0.961 . S
H1878 C1863 0.961 . S
H1879 C1863 0.961 . S
H1880 C1864 0.931 . S
H1881 C1869 0.930 . S
H1882 C1870 0.956 . S
H1883 C1870 0.961 . S
H1884 C1870 0.961 . S
H1885 C1871 0.958 . S
H1886 C1871 0.961 . S
H1887 C1871 0.960 . S
C1888 C1889 1.391 . S
C1888 C1890 1.394 . S
C1888 H1904 0.931 . S
C1889 C1888 1.391 . S
C1889 C1893 1.376 . S
C1890 C1888 1.394 . S
C1890 C1891 1.369 . S
C1890 C1894 1.531 . S
C1891 C1890 1.369 . S
C1891 C1892 1.410 . S
C1891 C1899 1.503 . S
C1892 C1891 1.410 . S
C1892 C1893 1.392 . S
C1892 C1895 1.511 . S
C1893 C1889 1.376 . S
C1893 C1892 1.392 . S
C1893 H1905 0.929 . S
C1894 C1890 1.531 . S
C1894 H1906 0.960 . S
C1894 H1907 0.962 . S
C1894 H1908 0.960 . S
C1895 C1892 1.511 . S
C1895 H1909 0.961 . S
C1895 H1910 0.961 . S
C1895 H1911 0.961 . S
C1896 C1897 1.370 . S
C1896 C1898 1.363 . S
C1896 H1912 0.931 . S
C1897 C1896 1.370 . S
C1897 C1901 1.408 . S
C1898 C1896 1.363 . S
C1898 C1899 1.370 . S
C1898 C1902 1.524 . S
C1899 C1891 1.503 . S
C1899 C1898 1.370 . S
C1899 C1900 1.403 . S
C1900 C1899 1.403 . S
C1900 C1901 1.404 . S
C1900 C1903 1.539 . S
C1901 C1897 1.408 . S
C1901 C1900 1.404 . S
C1901 H1913 0.930 . S
C1902 C1898 1.524 . S
C1902 H1914 0.956 . S
C1902 H1915 0.961 . S
C1902 H1916 0.961 . S
C1903 C1900 1.539 . S
C1903 H1917 0.958 . S
C1903 H1918 0.961 . S
C1903 H1919 0.960 . S
H1904 C1888 0.931 . S
H1905 C1893 0.929 . S
H1906 C1894 0.960 . S
H1907 C1894 0.962 . S
H1908 C1894 0.960 . S
H1909 C1895 0.961 . S
H1910 C1895 0.961 . S
H1911 C1895 0.961 . S
H1912 C1896 0.931 . S
H1913 C1901 0.930 . S
H1914 C1902 0.956 . S
H1915 C1902 0.961 . S
H1916 C1902 0.961 . S
H1917 C1903 0.958 . S
H1918 C1903 0.961 . S
H1919 C1903 0.960 . S
C1920 C1921 1.391 . S
C1920 C1922 1.394 . S
C1920 H1936 0.931 . S
C1921 C1920 1.391 . S
C1921 C1925 1.376 . S
C1922 C1920 1.394 . S
C1922 C1923 1.369 . S
C1922 C1926 1.531 . S
C1923 C1922 1.369 . S
C1923 C1924 1.410 . S
C1923 C1931 1.503 . S
C1924 C1923 1.410 . S
C1924 C1925 1.392 . S
C1924 C1927 1.511 . S
C1925 C1921 1.376 . S
C1925 C1924 1.392 . S
C1925 H1937 0.929 . S
C1926 C1922 1.531 . S
C1926 H1938 0.960 . S
C1926 H1939 0.962 . S
C1926 H1940 0.960 . S
C1927 C1924 1.511 . S
C1927 H1941 0.961 . S
C1927 H1942 0.961 . S
C1927 H1943 0.961 . S
C1928 C1929 1.370 . S
C1928 C1930 1.363 . S
C1928 H1944 0.931 . S
C1929 C1928 1.370 . S
C1929 C1933 1.408 . S
C1930 C1928 1.363 . S
C1930 C1931 1.370 . S
C1930 C1934 1.524 . S
C1931 C1923 1.503 . S
C1931 C1930 1.370 . S
C1931 C1932 1.403 . S
C1932 C1931 1.403 . S
C1932 C1933 1.404 . S
C1932 C1935 1.539 . S
C1933 C1929 1.408 . S
C1933 C1932 1.404 . S
C1933 H1945 0.930 . S
C1934 C1930 1.524 . S
C1934 H1946 0.956 . S
C1934 H1947 0.961 . S
C1934 H1948 0.961 . S
C1935 C1932 1.539 . S
C1935 H1949 0.958 . S
C1935 H1950 0.961 . S
C1935 H1951 0.960 . S
H1936 C1920 0.931 . S
H1937 C1925 0.929 . S
H1938 C1926 0.960 . S
H1939 C1926 0.962 . S
H1940 C1926 0.960 . S
H1941 C1927 0.961 . S
H1942 C1927 0.961 . S
H1943 C1927 0.961 . S
H1944 C1928 0.931 . S
H1945 C1933 0.930 . S
H1946 C1934 0.956 . S
H1947 C1934 0.961 . S
H1948 C1934 0.961 . S
H1949 C1935 0.958 . S
H1950 C1935 0.961 . S
H1951 C1935 0.960 . S
C1952 C1953 1.391 . S
C1952 C1954 1.394 . S
C1952 H1968 0.931 . S
C1953 C1952 1.391 . S
C1953 C1957 1.376 . S
C1954 C1952 1.394 . S
C1954 C1955 1.369 . S
C1954 C1958 1.531 . S
C1955 C1954 1.369 . S
C1955 C1956 1.410 . S
C1955 C1963 1.503 . S
C1956 C1955 1.410 . S
C1956 C1957 1.392 . S
C1956 C1959 1.511 . S
C1957 C1953 1.376 . S
C1957 C1956 1.392 . S
C1957 H1969 0.929 . S
C1958 C1954 1.531 . S
C1958 H1970 0.960 . S
C1958 H1971 0.962 . S
C1958 H1972 0.960 . S
C1959 C1956 1.511 . S
C1959 H1973 0.961 . S
C1959 H1974 0.961 . S
C1959 H1975 0.961 . S
C1960 C1961 1.370 . S
C1960 C1962 1.363 . S
C1960 H1976 0.931 . S
C1961 C1960 1.370 . S
C1961 C1965 1.408 . S
C1962 C1960 1.363 . S
C1962 C1963 1.370 . S
C1962 C1966 1.524 . S
C1963 C1955 1.503 . S
C1963 C1962 1.370 . S
C1963 C1964 1.403 . S
C1964 C1963 1.403 . S
C1964 C1965 1.404 . S
C1964 C1967 1.539 . S
C1965 C1961 1.408 . S
C1965 C1964 1.404 . S
C1965 H1977 0.930 . S
C1966 C1962 1.524 . S
C1966 H1978 0.956 . S
C1966 H1979 0.961 . S
C1966 H1980 0.961 . S
C1967 C1964 1.539 . S
C1967 H1981 0.958 . S
C1967 H1982 0.961 . S
C1967 H1983 0.960 . S
H1968 C1952 0.931 . S
H1969 C1957 0.929 . S
H1970 C1958 0.960 . S
H1971 C1958 0.962 . S
H1972 C1958 0.960 . S
H1973 C1959 0.961 . S
H1974 C1959 0.961 . S
H1975 C1959 0.961 . S
H1976 C1960 0.931 . S
H1977 C1965 0.930 . S
H1978 C1966 0.956 . S
H1979 C1966 0.961 . S
H1980 C1966 0.961 . S
H1981 C1967 0.958 . S
H1982 C1967 0.961 . S
H1983 C1967 0.960 . S
C1984 C1985 1.391 . S
C1984 C1986 1.394 . S
C1984 H2000 0.931 . S
C1985 C1984 1.391 . S
C1985 C1989 1.376 . S
C1986 C1984 1.394 . S
C1986 C1987 1.369 . S
C1986 C1990 1.531 . S
C1987 C1986 1.369 . S
C1987 C1988 1.410 . S
C1987 C1995 1.503 . S
C1988 C1987 1.410 . S
C1988 C1989 1.392 . S
C1988 C1991 1.511 . S
C1989 C1985 1.376 . S
C1989 C1988 1.392 . S
C1989 H2001 0.929 . S
C1990 C1986 1.531 . S
C1990 H2002 0.960 . S
C1990 H2003 0.962 . S
C1990 H2004 0.960 . S
C1991 C1988 1.511 . S
C1991 H2005 0.961 . S
C1991 H2006 0.961 . S
C1991 H2007 0.961 . S
C1992 C1993 1.370 . S
C1992 C1994 1.363 . S
C1992 H2008 0.931 . S
C1993 C1992 1.370 . S
C1993 C1997 1.408 . S
C1994 C1992 1.363 . S
C1994 C1995 1.370 . S
C1994 C1998 1.524 . S
C1995 C1987 1.503 . S
C1995 C1994 1.370 . S
C1995 C1996 1.403 . S
C1996 C1995 1.403 . S
C1996 C1997 1.404 . S
C1996 C1999 1.539 . S
C1997 C1993 1.408 . S
C1997 C1996 1.404 . S
C1997 H2009 0.930 . S
C1998 C1994 1.524 . S
C1998 H2010 0.956 . S
C1998 H2011 0.961 . S
C1998 H2012 0.961 . S
C1999 C1996 1.539 . S
C1999 H2013 0.958 . S
C1999 H2014 0.961 . S
C1999 H2015 0.960 . S
H2000 C1984 0.931 . S
H2001 C1989 0.929 . S
H2002 C1990 0.960 . S
H2003 C1990 0.962 . S
H2004 C1990 0.960 . S
H2005 C1991 0.961 . S
H2006 C1991 0.961 . S
H2007 C1991 0.961 . S
H2008 C1992 0.931 . S
H2009 C1997 0.930 . S
H2010 C1998 0.956 . S
H2011 C1998 0.961 . S
H2012 C1998 0.961 . S
H2013 C1999 0.958 . S
H2014 C1999 0.961 . S
H2015 C1999 0.960 . S
C2016 C2017 1.391 . S
C2016 C2018 1.394 . S
C2016 H2032 0.931 . S
C2017 C2016 1.391 . S
C2017 C2021 1.376 . S
C2018 C2016 1.394 . S
C2018 C2019 1.369 . S
C2018 C2022 1.531 . S
C2019 C2018 1.369 . S
C2019 C2020 1.410 . S
C2019 C2027 1.503 . S
C2020 C2019 1.410 . S
C2020 C2021 1.392 . S
C2020 C2023 1.511 . S
C2021 C2017 1.376 . S
C2021 C2020 1.392 . S
C2021 H2033 0.929 . S
C2022 C2018 1.531 . S
C2022 H2034 0.960 . S
C2022 H2035 0.962 . S
C2022 H2036 0.960 . S
C2023 C2020 1.511 . S
C2023 H2037 0.961 . S
C2023 H2038 0.961 . S
C2023 H2039 0.961 . S
C2024 C2025 1.370 . S
C2024 C2026 1.363 . S
C2024 H2040 0.931 . S
C2025 C2024 1.370 . S
C2025 C2029 1.408 . S
C2026 C2024 1.363 . S
C2026 C2027 1.370 . S
C2026 C2030 1.524 . S
C2027 C2019 1.503 . S
C2027 C2026 1.370 . S
C2027 C2028 1.403 . S
C2028 C2027 1.403 . S
C2028 C2029 1.404 . S
C2028 C2031 1.539 . S
C2029 C2025 1.408 . S
C2029 C2028 1.404 . S
C2029 H2041 0.930 . S
C2030 C2026 1.524 . S
C2030 H2042 0.956 . S
C2030 H2043 0.961 . S
C2030 H2044 0.961 . S
C2031 C2028 1.539 . S
C2031 H2045 0.958 . S
C2031 H2046 0.961 . S
C2031 H2047 0.960 . S
H2032 C2016 0.931 . S
H2033 C2021 0.929 . S
H2034 C2022 0.960 . S
H2035 C2022 0.962 . S
H2036 C2022 0.960 . S
H2037 C2023 0.961 . S
H2038 C2023 0.961 . S
H2039 C2023 0.961 . S
H2040 C2024 0.931 . S
H2041 C2029 0.930 . S
H2042 C2030 0.956 . S
H2043 C2030 0.961 . S
H2044 C2030 0.961 . S
H2045 C2031 0.958 . S
H2046 C2031 0.961 . S
H2047 C2031 0.960 . S
C2048 C2049 1.391 . S
C2048 C2050 1.394 . S
C2048 H2064 0.931 . S
C2049 C2048 1.391 . S
C2049 C2053 1.376 . S
C2050 C2048 1.394 . S
C2050 C2051 1.369 . S
C2050 C2054 1.531 . S
C2051 C2050 1.369 . S
C2051 C2052 1.410 . S
C2051 C2059 1.503 . S
C2052 C2051 1.410 . S
C2052 C2053 1.392 . S
C2052 C2055 1.511 . S
C2053 C2049 1.376 . S
C2053 C2052 1.392 . S
C2053 H2065 0.929 . S
C2054 C2050 1.531 . S
C2054 H2066 0.960 . S
C2054 H2067 0.962 . S
C2054 H2068 0.960 . S
C2055 C2052 1.511 . S
C2055 H2069 0.961 . S
C2055 H2070 0.961 . S
C2055 H2071 0.961 . S
C2056 C2057 1.370 . S
C2056 C2058 1.363 . S
C2056 H2072 0.931 . S
C2057 C2056 1.370 . S
C2057 C2061 1.408 . S
C2058 C2056 1.363 . S
C2058 C2059 1.370 . S
C2058 C2062 1.524 . S
C2059 C2051 1.503 . S
C2059 C2058 1.370 . S
C2059 C2060 1.403 . S
C2060 C2059 1.403 . S
C2060 C2061 1.404 . S
C2060 C2063 1.539 . S
C2061 C2057 1.408 . S
C2061 C2060 1.404 . S
C2061 H2073 0.930 . S
C2062 C2058 1.524 . S
C2062 H2074 0.956 . S
C2062 H2075 0.961 . S
C2062 H2076 0.961 . S
C2063 C2060 1.539 . S
C2063 H2077 0.958 . S
C2063 H2078 0.961 . S
C2063 H2079 0.960 . S
H2064 C2048 0.931 . S
H2065 C2053 0.929 . S
H2066 C2054 0.960 . S
H2067 C2054 0.962 . S
H2068 C2054 0.960 . S
H2069 C2055 0.961 . S
H2070 C2055 0.961 . S
H2071 C2055 0.961 . S
H2072 C2056 0.931 . S
H2073 C2061 0.930 . S
H2074 C2062 0.956 . S
H2075 C2062 0.961 . S
H2076 C2062 0.961 . S
H2077 C2063 0.958 . S
H2078 C2063 0.961 . S
H2079 C2063 0.960 . S
C2080 C2081 1.391 . S
C2080 C2082 1.394 . S
C2080 H2096 0.931 . S
C2081 C2080 1.391 . S
C2081 C2085 1.376 . S
C2082 C2080 1.394 . S
C2082 C2083 1.369 . S
C2082 C2086 1.531 . S
C2083 C2082 1.369 . S
C2083 C2084 1.410 . S
C2083 C2091 1.503 . S
C2084 C2083 1.410 . S
C2084 C2085 1.392 . S
C2084 C2087 1.511 . S
C2085 C2081 1.376 . S
C2085 C2084 1.392 . S
C2085 H2097 0.929 . S
C2086 C2082 1.531 . S
C2086 H2098 0.960 . S
C2086 H2099 0.962 . S
C2086 H2100 0.960 . S
C2087 C2084 1.511 . S
C2087 H2101 0.961 . S
C2087 H2102 0.961 . S
C2087 H2103 0.961 . S
C2088 C2089 1.370 . S
C2088 C2090 1.363 . S
C2088 H2104 0.931 . S
C2089 C2088 1.370 . S
C2089 C2093 1.408 . S
C2090 C2088 1.363 . S
C2090 C2091 1.370 . S
C2090 C2094 1.524 . S
C2091 C2083 1.503 . S
C2091 C2090 1.370 . S
C2091 C2092 1.403 . S
C2092 C2091 1.403 . S
C2092 C2093 1.404 . S
C2092 C2095 1.539 . S
C2093 C2089 1.408 . S
C2093 C2092 1.404 . S
C2093 H2105 0.930 . S
C2094 C2090 1.524 . S
C2094 H2106 0.956 . S
C2094 H2107 0.961 . S
C2094 H2108 0.961 . S
C2095 C2092 1.539 . S
C2095 H2109 0.958 . S
C2095 H2110 0.961 . S
C2095 H2111 0.960 . S
H2096 C2080 0.931 . S
H2097 C2085 0.929 . S
H2098 C2086 0.960 . S
H2099 C2086 0.962 . S
H2100 C2086 0.960 . S
H2101 C2087 0.961 . S
H2102 C2087 0.961 . S
H2103 C2087 0.961 . S
H2104 C2088 0.931 . S
H2105 C2093 0.930 . S
H2106 C2094 0.956 . S
H2107 C2094 0.961 . S
H2108 C2094 0.961 . S
H2109 C2095 0.958 . S
H2110 C2095 0.961 . S
H2111 C2095 0.960 . S
C2112 C2113 1.391 . S
C2112 C2114 1.394 . S
C2112 H2128 0.931 . S
C2113 C2112 1.391 . S
C2113 C2117 1.376 . S
C2114 C2112 1.394 . S
C2114 C2115 1.369 . S
C2114 C2118 1.531 . S
C2115 C2114 1.369 . S
C2115 C2116 1.410 . S
C2115 C2123 1.503 . S
C2116 C2115 1.410 . S
C2116 C2117 1.392 . S
C2116 C2119 1.511 . S
C2117 C2113 1.376 . S
C2117 C2116 1.392 . S
C2117 H2129 0.929 . S
C2118 C2114 1.531 . S
C2118 H2130 0.960 . S
C2118 H2131 0.962 . S
C2118 H2132 0.960 . S
C2119 C2116 1.511 . S
C2119 H2133 0.961 . S
C2119 H2134 0.961 . S
C2119 H2135 0.961 . S
C2120 C2121 1.370 . S
C2120 C2122 1.363 . S
C2120 H2136 0.931 . S
C2121 C2120 1.370 . S
C2121 C2125 1.408 . S
C2122 C2120 1.363 . S
C2122 C2123 1.370 . S
C2122 C2126 1.524 . S
C2123 C2115 1.503 . S
C2123 C2122 1.370 . S
C2123 C2124 1.403 . S
C2124 C2123 1.403 . S
C2124 C2125 1.404 . S
C2124 C2127 1.539 . S
C2125 C2121 1.408 . S
C2125 C2124 1.404 . S
C2125 H2137 0.930 . S
C2126 C2122 1.524 . S
C2126 H2138 0.956 . S
C2126 H2139 0.961 . S
C2126 H2140 0.961 . S
C2127 C2124 1.539 . S
C2127 H2141 0.958 . S
C2127 H2142 0.961 . S
C2127 H2143 0.960 . S
H2128 C2112 0.931 . S
H2129 C2117 0.929 . S
H2130 C2118 0.960 . S
H2131 C2118 0.962 . S
H2132 C2118 0.960 . S
H2133 C2119 0.961 . S
H2134 C2119 0.961 . S
H2135 C2119 0.961 . S
H2136 C2120 0.931 . S
H2137 C2125 0.930 . S
H2138 C2126 0.956 . S
H2139 C2126 0.961 . S
H2140 C2126 0.961 . S
H2141 C2127 0.958 . S
H2142 C2127 0.961 . S
H2143 C2127 0.960 . S
C2144 C2145 1.391 . S
C2144 C2146 1.394 . S
C2144 H2160 0.931 . S
C2145 C2144 1.391 . S
C2145 C2149 1.376 . S
C2146 C2144 1.394 . S
C2146 C2147 1.369 . S
C2146 C2150 1.531 . S
C2147 C2146 1.369 . S
C2147 C2148 1.410 . S
C2147 C2155 1.503 . S
C2148 C2147 1.410 . S
C2148 C2149 1.392 . S
C2148 C2151 1.511 . S
C2149 C2145 1.376 . S
C2149 C2148 1.392 . S
C2149 H2161 0.929 . S
C2150 C2146 1.531 . S
C2150 H2162 0.960 . S
C2150 H2163 0.962 . S
C2150 H2164 0.960 . S
C2151 C2148 1.511 . S
C2151 H2165 0.961 . S
C2151 H2166 0.961 . S
C2151 H2167 0.961 . S
C2152 C2153 1.370 . S
C2152 C2154 1.363 . S
C2152 H2168 0.931 . S
C2153 C2152 1.370 . S
C2153 C2157 1.408 . S
C2154 C2152 1.363 . S
C2154 C2155 1.370 . S
C2154 C2158 1.524 . S
C2155 C2147 1.503 . S
C2155 C2154 1.370 . S
C2155 C2156 1.403 . S
C2156 C2155 1.403 . S
C2156 C2157 1.404 . S
C2156 C2159 1.539 . S
C2157 C2153 1.408 . S
C2157 C2156 1.404 . S
C2157 H2169 0.930 . S
C2158 C2154 1.524 . S
C2158 H2170 0.956 . S
C2158 H2171 0.961 . S
C2158 H2172 0.961 . S
C2159 C2156 1.539 . S
C2159 H2173 0.958 . S
C2159 H2174 0.961 . S
C2159 H2175 0.960 . S
H2160 C2144 0.931 . S
H2161 C2149 0.929 . S
H2162 C2150 0.960 . S
H2163 C2150 0.962 . S
H2164 C2150 0.960 . S
H2165 C2151 0.961 . S
H2166 C2151 0.961 . S
H2167 C2151 0.961 . S
H2168 C2152 0.931 . S
H2169 C2157 0.930 . S
H2170 C2158 0.956 . S
H2171 C2158 0.961 . S
H2172 C2158 0.961 . S
H2173 C2159 0.958 . S
H2174 C2159 0.961 . S
H2175 C2159 0.960 . S
C2176 C2177 1.391 . S
C2176 C2178 1.394 . S
C2176 H2192 0.931 . S
C2177 C2176 1.391 . S
C2177 C2181 1.376 . S
C2178 C2176 1.394 . S
C2178 C2179 1.369 . S
C2178 C2182 1.531 . S
C2179 C2178 1.369 . S
C2179 C2180 1.410 . S
C2179 C2187 1.503 . S
C2180 C2179 1.410 . S
C2180 C2181 1.392 . S
C2180 C2183 1.511 . S
C2181 C2177 1.376 . S
C2181 C2180 1.392 . S
C2181 H2193 0.929 . S
C2182 C2178 1.531 . S
C2182 H2194 0.960 . S
C2182 H2195 0.962 . S
C2182 H2196 0.960 . S
C2183 C2180 1.511 . S
C2183 H2197 0.961 . S
C2183 H2198 0.961 . S
C2183 H2199 0.961 . S
C2184 C2185 1.370 . S
C2184 C2186 1.363 . S
C2184 H2200 0.931 . S
C2185 C2184 1.370 . S
C2185 C2189 1.408 . S
C2186 C2184 1.363 . S
C2186 C2187 1.370 . S
C2186 C2190 1.524 . S
C2187 C2179 1.503 . S
C2187 C2186 1.370 . S
C2187 C2188 1.403 . S
C2188 C2187 1.403 . S
C2188 C2189 1.404 . S
C2188 C2191 1.539 . S
C2189 C2185 1.408 . S
C2189 C2188 1.404 . S
C2189 H2201 0.930 . S
C2190 C2186 1.524 . S
C2190 H2202 0.956 . S
C2190 H2203 0.961 . S
C2190 H2204 0.961 . S
C2191 C2188 1.539 . S
C2191 H2205 0.958 . S
C2191 H2206 0.961 . S
C2191 H2207 0.960 . S
H2192 C2176 0.931 . S
H2193 C2181 0.929 . S
H2194 C2182 0.960 . S
H2195 C2182 0.962 . S
H2196 C2182 0.960 . S
H2197 C2183 0.961 . S
H2198 C2183 0.961 . S
H2199 C2183 0.961 . S
H2200 C2184 0.931 . S
H2201 C2189 0.930 . S
H2202 C2190 0.956 . S
H2203 C2190 0.961 . S
H2204 C2190 0.961 . S
H2205 C2191 0.958 . S
H2206 C2191 0.961 . S
H2207 C2191 0.960 . S
C2208 C2209 1.391 . S
C2208 C2210 1.394 . S
C2208 H2224 0.931 . S
C2209 C2208 1.391 . S
C2209 C2213 1.376 . S
C2210 C2208 1.394 . S
C2210 C2211 1.369 . S
C2210 C2214 1.531 . S
C2211 C2210 1.369 . S
C2211 C2212 1.410 . S
C2211 C2219 1.503 . S
C2212 C2211 1.410 . S
C2212 C2213 1.392 . S
C2212 C2215 1.511 . S
C2213 C2209 1.376 . S
C2213 C2212 1.392 . S
C2213 H2225 0.929 . S
C2214 C2210 1.531 . S
C2214 H2226 0.960 . S
C2214 H2227 0.962 . S
C2214 H2228 0.960 . S
C2215 C2212 1.511 . S
C2215 H2229 0.961 . S
C2215 H2230 0.961 . S
C2215 H2231 0.961 . S
C2216 C2217 1.370 . S
C2216 C2218 1.363 . S
C2216 H2232 0.931 . S
C2217 C2216 1.370 . S
C2217 C2221 1.408 . S
C2218 C2216 1.363 . S
C2218 C2219 1.370 . S
C2218 C2222 1.524 . S
C2219 C2211 1.503 . S
C2219 C2218 1.370 . S
C2219 C2220 1.403 . S
C2220 C2219 1.403 . S
C2220 C2221 1.404 . S
C2220 C2223 1.539 . S
C2221 C2217 1.408 . S
C2221 C2220 1.404 . S
C2221 H2233 0.930 . S
C2222 C2218 1.524 . S
C2222 H2234 0.956 . S
C2222 H2235 0.961 . S
C2222 H2236 0.961 . S
C2223 C2220 1.539 . S
C2223 H2237 0.958 . S
C2223 H2238 0.961 . S
C2223 H2239 0.960 . S
H2224 C2208 0.931 . S
H2225 C2213 0.929 . S
H2226 C2214 0.960 . S
H2227 C2214 0.962 . S
H2228 C2214 0.960 . S
H2229 C2215 0.961 . S
H2230 C2215 0.961 . S
H2231 C2215 0.961 . S
H2232 C2216 0.931 . S
H2233 C2221 0.930 . S
H2234 C2222 0.956 . S
H2235 C2222 0.961 . S
H2236 C2222 0.961 . S
H2237 C2223 0.958 . S
H2238 C2223 0.961 . S
H2239 C2223 0.960 . S
C2240 C2241 1.391 . S
C2240 C2242 1.394 . S
C2240 H2256 0.931 . S
C2241 C2240 1.391 . S
C2241 C2245 1.376 . S
C2242 C2240 1.394 . S
C2242 C2243 1.369 . S
C2242 C2246 1.531 . S
C2243 C2242 1.369 . S
C2243 C2244 1.410 . S
C2243 C2251 1.503 . S
C2244 C2243 1.410 . S
C2244 C2245 1.392 . S
C2244 C2247 1.511 . S
C2245 C2241 1.376 . S
C2245 C2244 1.392 . S
C2245 H2257 0.929 . S
C2246 C2242 1.531 . S
C2246 H2258 0.960 . S
C2246 H2259 0.962 . S
C2246 H2260 0.960 . S
C2247 C2244 1.511 . S
C2247 H2261 0.961 . S
C2247 H2262 0.961 . S
C2247 H2263 0.961 . S
C2248 C2249 1.370 . S
C2248 C2250 1.363 . S
C2248 H2264 0.931 . S
C2249 C2248 1.370 . S
C2249 C2253 1.408 . S
C2250 C2248 1.363 . S
C2250 C2251 1.370 . S
C2250 C2254 1.524 . S
C2251 C2243 1.503 . S
C2251 C2250 1.370 . S
C2251 C2252 1.403 . S
C2252 C2251 1.403 . S
C2252 C2253 1.404 . S
C2252 C2255 1.539 . S
C2253 C2249 1.408 . S
C2253 C2252 1.404 . S
C2253 H2265 0.930 . S
C2254 C2250 1.524 . S
C2254 H2266 0.956 . S
C2254 H2267 0.961 . S
C2254 H2268 0.961 . S
C2255 C2252 1.539 . S
C2255 H2269 0.958 . S
C2255 H2270 0.961 . S
C2255 H2271 0.960 . S
H2256 C2240 0.931 . S
H2257 C2245 0.929 . S
H2258 C2246 0.960 . S
H2259 C2246 0.962 . S
H2260 C2246 0.960 . S
H2261 C2247 0.961 . S
H2262 C2247 0.961 . S
H2263 C2247 0.961 . S
H2264 C2248 0.931 . S
H2265 C2253 0.930 . S
H2266 C2254 0.956 . S
H2267 C2254 0.961 . S
H2268 C2254 0.961 . S
H2269 C2255 0.958 . S
H2270 C2255 0.961 . S
H2271 C2255 0.960 . S
C2272 C2273 1.391 . S
C2272 C2274 1.394 . S
C2272 H2288 0.931 . S
C2273 C2272 1.391 . S
C2273 C2277 1.376 . S
C2274 C2272 1.394 . S
C2274 C2275 1.369 . S
C2274 C2278 1.531 . S
C2275 C2274 1.369 . S
C2275 C2276 1.410 . S
C2275 C2283 1.503 . S
C2276 C2275 1.410 . S
C2276 C2277 1.392 . S
C2276 C2279 1.511 . S
C2277 C2273 1.376 . S
C2277 C2276 1.392 . S
C2277 H2289 0.929 . S
C2278 C2274 1.531 . S
C2278 H2290 0.960 . S
C2278 H2291 0.962 . S
C2278 H2292 0.960 . S
C2279 C2276 1.511 . S
C2279 H2293 0.961 . S
C2279 H2294 0.961 . S
C2279 H2295 0.961 . S
C2280 C2281 1.370 . S
C2280 C2282 1.363 . S
C2280 H2296 0.931 . S
C2281 C2280 1.370 . S
C2281 C2285 1.408 . S
C2282 C2280 1.363 . S
C2282 C2283 1.370 . S
C2282 C2286 1.524 . S
C2283 C2275 1.503 . S
C2283 C2282 1.370 . S
C2283 C2284 1.403 . S
C2284 C2283 1.403 . S
C2284 C2285 1.404 . S
C2284 C2287 1.539 . S
C2285 C2281 1.408 . S
C2285 C2284 1.404 . S
C2285 H2297 0.930 . S
C2286 C2282 1.524 . S
C2286 H2298 0.956 . S
C2286 H2299 0.961 . S
C2286 H2300 0.961 . S
C2287 C2284 1.539 . S
C2287 H2301 0.958 . S
C2287 H2302 0.961 . S
C2287 H2303 0.960 . S
H2288 C2272 0.931 . S
H2289 C2277 0.929 . S
H2290 C2278 0.960 . S
H2291 C2278 0.962 . S
H2292 C2278 0.960 . S
H2293 C2279 0.961 . S
H2294 C2279 0.961 . S
H2295 C2279 0.961 . S
H2296 C2280 0.931 . S
H2297 C2285 0.930 . S
H2298 C2286 0.956 . S
H2299 C2286 0.961 . S
H2300 C2286 0.961 . S
H2301 C2287 0.958 . S
H2302 C2287 0.961 . S
H2303 C2287 0.960 . S
C2304 C2305 1.391 . S
C2304 C2306 1.394 . S
C2304 H2320 0.931 . S
C2305 C2304 1.391 . S
C2305 C2309 1.376 . S
C2306 C2304 1.394 . S
C2306 C2307 1.369 . S
C2306 C2310 1.531 . S
C2307 C2306 1.369 . S
C2307 C2308 1.410 . S
C2307 C2315 1.503 . S
C2308 C2307 1.410 . S
C2308 C2309 1.392 . S
C2308 C2311 1.511 . S
C2309 C2305 1.376 . S
C2309 C2308 1.392 . S
C2309 H2321 0.929 . S
C2310 C2306 1.531 . S
C2310 H2322 0.960 . S
C2310 H2323 0.962 . S
C2310 H2324 0.960 . S
C2311 C2308 1.511 . S
C2311 H2325 0.961 . S
C2311 H2326 0.961 . S
C2311 H2327 0.961 . S
C2312 C2313 1.370 . S
C2312 C2314 1.363 . S
C2312 H2328 0.931 . S
C2313 C2312 1.370 . S
C2313 C2317 1.408 . S
C2314 C2312 1.363 . S
C2314 C2315 1.370 . S
C2314 C2318 1.524 . S
C2315 C2307 1.503 . S
C2315 C2314 1.370 . S
C2315 C2316 1.403 . S
C2316 C2315 1.403 . S
C2316 C2317 1.404 . S
C2316 C2319 1.539 . S
C2317 C2313 1.408 . S
C2317 C2316 1.404 . S
C2317 H2329 0.930 . S
C2318 C2314 1.524 . S
C2318 H2330 0.956 . S
C2318 H2331 0.961 . S
C2318 H2332 0.961 . S
C2319 C2316 1.539 . S
C2319 H2333 0.958 . S
C2319 H2334 0.961 . S
C2319 H2335 0.960 . S
H2320 C2304 0.931 . S
H2321 C2309 0.929 . S
H2322 C2310 0.960 . S
H2323 C2310 0.962 . S
H2324 C2310 0.960 . S
H2325 C2311 0.961 . S
H2326 C2311 0.961 . S
H2327 C2311 0.961 . S
H2328 C2312 0.931 . S
H2329 C2317 0.930 . S
H2330 C2318 0.956 . S
H2331 C2318 0.961 . S
H2332 C2318 0.961 . S
H2333 C2319 0.958 . S
H2334 C2319 0.961 . S
H2335 C2319 0.960 . S
C2336 C2337 1.391 . S
C2336 C2338 1.394 . S
C2336 H2352 0.931 . S
C2337 C2336 1.391 . S
C2337 C2341 1.376 . S
C2338 C2336 1.394 . S
C2338 C2339 1.369 . S
C2338 C2342 1.531 . S
C2339 C2338 1.369 . S
C2339 C2340 1.410 . S
C2339 C2347 1.503 . S
C2340 C2339 1.410 . S
C2340 C2341 1.392 . S
C2340 C2343 1.511 . S
C2341 C2337 1.376 . S
C2341 C2340 1.392 . S
C2341 H2353 0.929 . S
C2342 C2338 1.531 . S
C2342 H2354 0.960 . S
C2342 H2355 0.962 . S
C2342 H2356 0.960 . S
C2343 C2340 1.511 . S
C2343 H2357 0.961 . S
C2343 H2358 0.961 . S
C2343 H2359 0.961 . S
C2344 C2345 1.370 . S
C2344 C2346 1.363 . S
C2344 H2360 0.931 . S
C2345 C2344 1.370 . S
C2345 C2349 1.408 . S
C2346 C2344 1.363 . S
C2346 C2347 1.370 . S
C2346 C2350 1.524 . S
C2347 C2339 1.503 . S
C2347 C2346 1.370 . S
C2347 C2348 1.403 . S
C2348 C2347 1.403 . S
C2348 C2349 1.404 . S
C2348 C2351 1.539 . S
C2349 C2345 1.408 . S
C2349 C2348 1.404 . S
C2349 H2361 0.930 . S
C2350 C2346 1.524 . S
C2350 H2362 0.956 . S
C2350 H2363 0.961 . S
C2350 H2364 0.961 . S
C2351 C2348 1.539 . S
C2351 H2365 0.958 . S
C2351 H2366 0.961 . S
C2351 H2367 0.960 . S
H2352 C2336 0.931 . S
H2353 C2341 0.929 . S
H2354 C2342 0.960 . S
H2355 C2342 0.962 . S
H2356 C2342 0.960 . S
H2357 C2343 0.961 . S
H2358 C2343 0.961 . S
H2359 C2343 0.961 . S
H2360 C2344 0.931 . S
H2361 C2349 0.930 . S
H2362 C2350 0.956 . S
H2363 C2350 0.961 . S
H2364 C2350 0.961 . S
H2365 C2351 0.958 . S
H2366 C2351 0.961 . S
H2367 C2351 0.960 . S
C2368 C2369 1.391 . S
C2368 C2370 1.394 . S
C2368 H2384 0.931 . S
C2369 C2368 1.391 . S
C2369 C2373 1.376 . S
C2370 C2368 1.394 . S
C2370 C2371 1.369 . S
C2370 C2374 1.531 . S
C2371 C2370 1.369 . S
C2371 C2372 1.410 . S
C2371 C2379 1.503 . S
C2372 C2371 1.410 . S
C2372 C2373 1.392 . S
C2372 C2375 1.511 . S
C2373 C2369 1.376 . S
C2373 C2372 1.392 . S
C2373 H2385 0.929 . S
C2374 C2370 1.531 . S
C2374 H2386 0.960 . S
C2374 H2387 0.962 . S
C2374 H2388 0.960 . S
C2375 C2372 1.511 . S
C2375 H2389 0.961 . S
C2375 H2390 0.961 . S
C2375 H2391 0.961 . S
C2376 C2377 1.370 . S
C2376 C2378 1.363 . S
C2376 H2392 0.931 . S
C2377 C2376 1.370 . S
C2377 C2381 1.408 . S
C2378 C2376 1.363 . S
C2378 C2379 1.370 . S
C2378 C2382 1.524 . S
C2379 C2371 1.503 . S
C2379 C2378 1.370 . S
C2379 C2380 1.403 . S
C2380 C2379 1.403 . S
C2380 C2381 1.404 . S
C2380 C2383 1.539 . S
C2381 C2377 1.408 . S
C2381 C2380 1.404 . S
C2381 H2393 0.930 . S
C2382 C2378 1.524 . S
C2382 H2394 0.956 . S
C2382 H2395 0.961 . S
C2382 H2396 0.961 . S
C2383 C2380 1.539 . S
C2383 H2397 0.958 . S
C2383 H2398 0.961 . S
C2383 H2399 0.960 . S
H2384 C2368 0.931 . S
H2385 C2373 0.929 . S
H2386 C2374 0.960 . S
H2387 C2374 0.962 . S
H2388 C2374 0.960 . S
H2389 C2375 0.961 . S
H2390 C2375 0.961 . S
H2391 C2375 0.961 . S
H2392 C2376 0.931 . S
H2393 C2381 0.930 . S
H2394 C2382 0.956 . S
H2395 C2382 0.961 . S
H2396 C2382 0.961 . S
H2397 C2383 0.958 . S
H2398 C2383 0.961 . S
H2399 C2383 0.960 . S
C873 C689 1.519 . S
C865 C74 1.458 . S
C905 C694 0.614 . S
C897 C142 1.066 . S
C937 C695 1.522 . S
C929 C231 1.383 . S
C961 C322 1.216 . S
C969 C699 1.381 . S
C993 C406 0.920 . S
C1001 C702 0.661 . S
C1033 C703 1.526 . S
C1025 C494 1.451 . S
C1057 C562 1.286 . S
C1065 C680 1.363 . S
C1089 C651 1.412 . S
C1097 C696 1.511 . S
C1129 C734 1.372 . S
C1121 C58 1.312 . S
C1153 C151 1.505 . S
C1161 C760 1.514 . S
C1193 C712 2.434 . S
C1185 C224 2.332 . S
C1225 C767 1.398 . S
C1217 C315 1.413 . S
C1249 C399 1.412 . S
C1257 C721 1.415 . S
C1289 C763 1.369 . S
C1281 C478 1.308 . S
C1313 C571 1.435 . S
C1321 C727 1.533 . S
C1345 C644 2.344 . S
C1353 C758 2.435 . S
C1377 C67 2.315 . S
C1385 C766 2.431 . S
C1409 C392 1.496 . S
C1417 C753 1.521 . S
C1449 C731 2.427 . S
C1441 C487 2.343 . S
C1481 C759 1.400 . S
C1473 C578 1.394 . S
C1505 C658 1.263 . S
C1513 C726 1.367 . S
C1537 C238 1.332 . S
C1545 C744 1.349 . S
C1577 C735 1.531 . S
C1569 C308 1.430 . S
C1601 C158 1.420 . S
C1609 C728 1.412 . S
C1633 C662 1.358 . S
C1641 C790 1.424 . S
C1665 C394 1.083 . S
C1673 C785 0.391 . S
C1705 C799 1.411 . S
C1697 C483 1.436 . S
C1737 C776 1.346 . S
C1729 C574 1.282 . S
C1761 C154 0.922 . S
C1769 C792 0.346 . S
C1801 C791 1.437 . S
C1793 C242 1.350 . S
C1825 C310 1.203 . S
C1833 C795 1.326 . S
C1857 C63 1.406 . S
C1865 C798 1.449 . S
C1889 C646 1.280 . S
C1897 C824 1.390 . S
C1929 C840 1.510 . S
C1921 C403 1.477 . S
C1953 C476 2.335 . S
C1961 C822 2.485 . S
C1985 C567 1.348 . S
C1993 C855 1.375 . S
C2025 C831 1.386 . S
C2017 C147 1.361 . S
C2049 C226 1.338 . S
C2057 C849 1.367 . S
C2089 C827 1.478 . S
C2081 C319 1.396 . S
C2121 C862 2.476 . S
C2113 C56 2.358 . S
C2153 C854 2.468 . S
C2145 C655 2.391 . S
C2177 C140 1.496 . S
C2185 C859 1.530 . S
C2209 C235 2.367 . S
C2217 C830 2.488 . S
C2249 C863 1.373 . S
C2241 C326 1.408 . S
C2273 C70 1.295 . S
C2281 C817 1.391 . S
C2305 C490 1.259 . S
C2313 C856 1.352 . S
C2345 C808 1.496 . S
C2337 C560 1.433 . S
C2377 C823 1.358 . S
C2369 C410 1.335 . S
