# Generated by pormake.
# Topology gar, (4,6)-cn, num edge types: 1
# Building blocks:
#     Node 0, Type 0, BuildingBlock: QUQFOY_clean_sbu_1, # of connection points: 4
#     Node 1, Type 0, BuildingBlock: QUQFOY_clean_sbu_1, # of connection points: 4
#     Node 2, Type 0, BuildingBlock: QUQFOY_clean_sbu_1, # of connection points: 4
#     Node 3, Type 0, BuildingBlock: QUQFOY_clean_sbu_1, # of connection points: 4
#     Node 4, Type 0, BuildingBlock: QUQFOY_clean_sbu_1, # of connection points: 4
#     Node 5, Type 0, BuildingBlock: QUQFOY_clean_sbu_1, # of connection points: 4
#     Node 6, Type 0, BuildingBlock: QUQFOY_clean_sbu_1, # of connection points: 4
#     Node 7, Type 0, BuildingBlock: QUQFOY_clean_sbu_1, # of connection points: 4
#     Node 8, Type 0, BuildingBlock: QUQFOY_clean_sbu_1, # of connection points: 4
#     Node 9, Type 0, BuildingBlock: QUQFOY_clean_sbu_1, # of connection points: 4
#     Node 10, Type 0, BuildingBlock: QUQFOY_clean_sbu_1, # of connection points: 4
#     Node 11, Type 0, BuildingBlock: QUQFOY_clean_sbu_1, # of connection points: 4
#     Node 12, Type 0, BuildingBlock: QUQFOY_clean_sbu_1, # of connection points: 4
#     Node 13, Type 0, BuildingBlock: QUQFOY_clean_sbu_1, # of connection points: 4
#     Node 14, Type 0, BuildingBlock: QUQFOY_clean_sbu_1, # of connection points: 4
#     Node 15, Type 0, BuildingBlock: QUQFOY_clean_sbu_1, # of connection points: 4
#     Node 16, Type 0, BuildingBlock: QUQFOY_clean_sbu_1, # of connection points: 4
#     Node 17, Type 0, BuildingBlock: QUQFOY_clean_sbu_1, # of connection points: 4
#     Node 18, Type 0, BuildingBlock: QUQFOY_clean_sbu_1, # of connection points: 4
#     Node 19, Type 0, BuildingBlock: QUQFOY_clean_sbu_1, # of connection points: 4
#     Node 20, Type 0, BuildingBlock: QUQFOY_clean_sbu_1, # of connection points: 4
#     Node 21, Type 0, BuildingBlock: QUQFOY_clean_sbu_1, # of connection points: 4
#     Node 22, Type 0, BuildingBlock: QUQFOY_clean_sbu_1, # of connection points: 4
#     Node 23, Type 0, BuildingBlock: QUQFOY_clean_sbu_1, # of connection points: 4
#     Node 24, Type 1, BuildingBlock: BETFAJ_clean_sbu_0, # of connection points: 6
#     Node 25, Type 1, BuildingBlock: BETFAJ_clean_sbu_0, # of connection points: 6
#     Node 26, Type 1, BuildingBlock: BETFAJ_clean_sbu_0, # of connection points: 6
#     Node 27, Type 1, BuildingBlock: BETFAJ_clean_sbu_0, # of connection points: 6
#     Node 28, Type 1, BuildingBlock: BETFAJ_clean_sbu_0, # of connection points: 6
#     Node 29, Type 1, BuildingBlock: BETFAJ_clean_sbu_0, # of connection points: 6
#     Node 30, Type 1, BuildingBlock: BETFAJ_clean_sbu_0, # of connection points: 6
#     Node 31, Type 1, BuildingBlock: BETFAJ_clean_sbu_0, # of connection points: 6
#     Node 32, Type 1, BuildingBlock: BETFAJ_clean_sbu_0, # of connection points: 6
#     Node 33, Type 1, BuildingBlock: BETFAJ_clean_sbu_0, # of connection points: 6
#     Node 34, Type 1, BuildingBlock: BETFAJ_clean_sbu_0, # of connection points: 6
#     Node 35, Type 1, BuildingBlock: BETFAJ_clean_sbu_0, # of connection points: 6
#     Node 36, Type 1, BuildingBlock: BETFAJ_clean_sbu_0, # of connection points: 6
#     Node 37, Type 1, BuildingBlock: BETFAJ_clean_sbu_0, # of connection points: 6
#     Node 38, Type 1, BuildingBlock: BETFAJ_clean_sbu_0, # of connection points: 6
#     Node 39, Type 1, BuildingBlock: BETFAJ_clean_sbu_0, # of connection points: 6
#     Edge 40, Type (0, 1), BuildingBlock: ZUJKAS_clean_linker_0, # of connection points: 2
#     Edge 41, Type (0, 1), BuildingBlock: ZUJKAS_clean_linker_0, # of connection points: 2
#     Edge 42, Type (0, 1), BuildingBlock: ZUJKAS_clean_linker_0, # of connection points: 2
#     Edge 43, Type (0, 1), BuildingBlock: ZUJKAS_clean_linker_0, # of connection points: 2
#     Edge 44, Type (0, 1), BuildingBlock: ZUJKAS_clean_linker_0, # of connection points: 2
#     Edge 45, Type (0, 1), BuildingBlock: ZUJKAS_clean_linker_0, # of connection points: 2
#     Edge 46, Type (0, 1), BuildingBlock: ZUJKAS_clean_linker_0, # of connection points: 2
#     Edge 47, Type (0, 1), BuildingBlock: ZUJKAS_clean_linker_0, # of connection points: 2
#     Edge 48, Type (0, 1), BuildingBlock: ZUJKAS_clean_linker_0, # of connection points: 2
#     Edge 49, Type (0, 1), BuildingBlock: ZUJKAS_clean_linker_0, # of connection points: 2
#     Edge 50, Type (0, 1), BuildingBlock: ZUJKAS_clean_linker_0, # of connection points: 2
#     Edge 51, Type (0, 1), BuildingBlock: ZUJKAS_clean_linker_0, # of connection points: 2
#     Edge 52, Type (0, 1), BuildingBlock: ZUJKAS_clean_linker_0, # of connection points: 2
#     Edge 53, Type (0, 1), BuildingBlock: ZUJKAS_clean_linker_0, # of connection points: 2
#     Edge 54, Type (0, 1), BuildingBlock: ZUJKAS_clean_linker_0, # of connection points: 2
#     Edge 55, Type (0, 1), BuildingBlock: ZUJKAS_clean_linker_0, # of connection points: 2
#     Edge 56, Type (0, 1), BuildingBlock: ZUJKAS_clean_linker_0, # of connection points: 2
#     Edge 57, Type (0, 1), BuildingBlock: ZUJKAS_clean_linker_0, # of connection points: 2
#     Edge 58, Type (0, 1), BuildingBlock: ZUJKAS_clean_linker_0, # of connection points: 2
#     Edge 59, Type (0, 1), BuildingBlock: ZUJKAS_clean_linker_0, # of connection points: 2
#     Edge 60, Type (0, 1), BuildingBlock: ZUJKAS_clean_linker_0, # of connection points: 2
#     Edge 61, Type (0, 1), BuildingBlock: ZUJKAS_clean_linker_0, # of connection points: 2
#     Edge 62, Type (0, 1), BuildingBlock: ZUJKAS_clean_linker_0, # of connection points: 2
#     Edge 63, Type (0, 1), BuildingBlock: ZUJKAS_clean_linker_0, # of connection points: 2
#     Edge 64, Type (0, 1), BuildingBlock: ZUJKAS_clean_linker_0, # of connection points: 2
#     Edge 65, Type (0, 1), BuildingBlock: ZUJKAS_clean_linker_0, # of connection points: 2
#     Edge 66, Type (0, 1), BuildingBlock: ZUJKAS_clean_linker_0, # of connection points: 2
#     Edge 67, Type (0, 1), BuildingBlock: ZUJKAS_clean_linker_0, # of connection points: 2
#     Edge 68, Type (0, 1), BuildingBlock: ZUJKAS_clean_linker_0, # of connection points: 2
#     Edge 69, Type (0, 1), BuildingBlock: ZUJKAS_clean_linker_0, # of connection points: 2
#     Edge 70, Type (0, 1), BuildingBlock: ZUJKAS_clean_linker_0, # of connection points: 2
#     Edge 71, Type (0, 1), BuildingBlock: ZUJKAS_clean_linker_0, # of connection points: 2
#     Edge 72, Type (0, 1), BuildingBlock: ZUJKAS_clean_linker_0, # of connection points: 2
#     Edge 73, Type (0, 1), BuildingBlock: ZUJKAS_clean_linker_0, # of connection points: 2
#     Edge 74, Type (0, 1), BuildingBlock: ZUJKAS_clean_linker_0, # of connection points: 2
#     Edge 75, Type (0, 1), BuildingBlock: ZUJKAS_clean_linker_0, # of connection points: 2
#     Edge 76, Type (0, 1), BuildingBlock: ZUJKAS_clean_linker_0, # of connection points: 2
#     Edge 77, Type (0, 1), BuildingBlock: ZUJKAS_clean_linker_0, # of connection points: 2
#     Edge 78, Type (0, 1), BuildingBlock: ZUJKAS_clean_linker_0, # of connection points: 2
#     Edge 79, Type (0, 1), BuildingBlock: ZUJKAS_clean_linker_0, # of connection points: 2
#     Edge 80, Type (0, 1), BuildingBlock: ZUJKAS_clean_linker_0, # of connection points: 2
#     Edge 81, Type (0, 1), BuildingBlock: ZUJKAS_clean_linker_0, # of connection points: 2
#     Edge 82, Type (0, 1), BuildingBlock: ZUJKAS_clean_linker_0, # of connection points: 2
#     Edge 83, Type (0, 1), BuildingBlock: ZUJKAS_clean_linker_0, # of connection points: 2
#     Edge 84, Type (0, 1), BuildingBlock: ZUJKAS_clean_linker_0, # of connection points: 2
#     Edge 85, Type (0, 1), BuildingBlock: ZUJKAS_clean_linker_0, # of connection points: 2
#     Edge 86, Type (0, 1), BuildingBlock: ZUJKAS_clean_linker_0, # of connection points: 2
#     Edge 87, Type (0, 1), BuildingBlock: ZUJKAS_clean_linker_0, # of connection points: 2
#     Edge 88, Type (0, 1), BuildingBlock: ZUJKAS_clean_linker_0, # of connection points: 2
#     Edge 89, Type (0, 1), BuildingBlock: ZUJKAS_clean_linker_0, # of connection points: 2
#     Edge 90, Type (0, 1), BuildingBlock: ZUJKAS_clean_linker_0, # of connection points: 2
#     Edge 91, Type (0, 1), BuildingBlock: ZUJKAS_clean_linker_0, # of connection points: 2
#     Edge 92, Type (0, 1), BuildingBlock: ZUJKAS_clean_linker_0, # of connection points: 2
#     Edge 93, Type (0, 1), BuildingBlock: ZUJKAS_clean_linker_0, # of connection points: 2
#     Edge 94, Type (0, 1), BuildingBlock: ZUJKAS_clean_linker_0, # of connection points: 2
#     Edge 95, Type (0, 1), BuildingBlock: ZUJKAS_clean_linker_0, # of connection points: 2
#     Edge 96, Type (0, 1), BuildingBlock: ZUJKAS_clean_linker_0, # of connection points: 2
#     Edge 97, Type (0, 1), BuildingBlock: ZUJKAS_clean_linker_0, # of connection points: 2
#     Edge 98, Type (0, 1), BuildingBlock: ZUJKAS_clean_linker_0, # of connection points: 2
#     Edge 99, Type (0, 1), BuildingBlock: ZUJKAS_clean_linker_0, # of connection points: 2
#     Edge 100, Type (0, 1), BuildingBlock: ZUJKAS_clean_linker_0, # of connection points: 2
#     Edge 101, Type (0, 1), BuildingBlock: ZUJKAS_clean_linker_0, # of connection points: 2
#     Edge 102, Type (0, 1), BuildingBlock: ZUJKAS_clean_linker_0, # of connection points: 2
#     Edge 103, Type (0, 1), BuildingBlock: ZUJKAS_clean_linker_0, # of connection points: 2
#     Edge 104, Type (0, 1), BuildingBlock: ZUJKAS_clean_linker_0, # of connection points: 2
#     Edge 105, Type (0, 1), BuildingBlock: ZUJKAS_clean_linker_0, # of connection points: 2
#     Edge 106, Type (0, 1), BuildingBlock: ZUJKAS_clean_linker_0, # of connection points: 2
#     Edge 107, Type (0, 1), BuildingBlock: ZUJKAS_clean_linker_0, # of connection points: 2
#     Edge 108, Type (0, 1), BuildingBlock: ZUJKAS_clean_linker_0, # of connection points: 2
#     Edge 109, Type (0, 1), BuildingBlock: ZUJKAS_clean_linker_0, # of connection points: 2
#     Edge 110, Type (0, 1), BuildingBlock: ZUJKAS_clean_linker_0, # of connection points: 2
#     Edge 111, Type (0, 1), BuildingBlock: ZUJKAS_clean_linker_0, # of connection points: 2
#     Edge 112, Type (0, 1), BuildingBlock: ZUJKAS_clean_linker_0, # of connection points: 2
#     Edge 113, Type (0, 1), BuildingBlock: ZUJKAS_clean_linker_0, # of connection points: 2
#     Edge 114, Type (0, 1), BuildingBlock: ZUJKAS_clean_linker_0, # of connection points: 2
#     Edge 115, Type (0, 1), BuildingBlock: ZUJKAS_clean_linker_0, # of connection points: 2
#     Edge 116, Type (0, 1), BuildingBlock: ZUJKAS_clean_linker_0, # of connection points: 2
#     Edge 117, Type (0, 1), BuildingBlock: ZUJKAS_clean_linker_0, # of connection points: 2
#     Edge 118, Type (0, 1), BuildingBlock: ZUJKAS_clean_linker_0, # of connection points: 2
#     Edge 119, Type (0, 1), BuildingBlock: ZUJKAS_clean_linker_0, # of connection points: 2
#     Edge 120, Type (0, 1), BuildingBlock: ZUJKAS_clean_linker_0, # of connection points: 2
#     Edge 121, Type (0, 1), BuildingBlock: ZUJKAS_clean_linker_0, # of connection points: 2
#     Edge 122, Type (0, 1), BuildingBlock: ZUJKAS_clean_linker_0, # of connection points: 2
#     Edge 123, Type (0, 1), BuildingBlock: ZUJKAS_clean_linker_0, # of connection points: 2
#     Edge 124, Type (0, 1), BuildingBlock: ZUJKAS_clean_linker_0, # of connection points: 2
#     Edge 125, Type (0, 1), BuildingBlock: ZUJKAS_clean_linker_0, # of connection points: 2
#     Edge 126, Type (0, 1), BuildingBlock: ZUJKAS_clean_linker_0, # of connection points: 2
#     Edge 127, Type (0, 1), BuildingBlock: ZUJKAS_clean_linker_0, # of connection points: 2
#     Edge 128, Type (0, 1), BuildingBlock: ZUJKAS_clean_linker_0, # of connection points: 2
#     Edge 129, Type (0, 1), BuildingBlock: ZUJKAS_clean_linker_0, # of connection points: 2
#     Edge 130, Type (0, 1), BuildingBlock: ZUJKAS_clean_linker_0, # of connection points: 2
#     Edge 131, Type (0, 1), BuildingBlock: ZUJKAS_clean_linker_0, # of connection points: 2
#     Edge 132, Type (0, 1), BuildingBlock: ZUJKAS_clean_linker_0, # of connection points: 2
#     Edge 133, Type (0, 1), BuildingBlock: ZUJKAS_clean_linker_0, # of connection points: 2
#     Edge 134, Type (0, 1), BuildingBlock: ZUJKAS_clean_linker_0, # of connection points: 2
#     Edge 135, Type (0, 1), BuildingBlock: ZUJKAS_clean_linker_0, # of connection points: 2
# Relax obj value: 0.180
# Max RMSD: 0.295
# Mean RMSD: 0.179
data_MOF--net-gar--node1-QUQFOY_clean_sbu_1--node2-BETFAJ_clean_sbu_0--edge1-ZUJKAS_clean_linker_0
_symmetry_space_group_name_H-M    P1
_symmetry_Int_Tables_number       1
_symmetry_cell_setting            triclinic
loop_
_symmetry_equiv_pos_as_xyz
'x, y, z'
_cell_length_a     79.842292
_cell_length_b     74.2799
_cell_length_c     74.589681
_cell_angle_alpha  98.467397
_cell_angle_beta   95.414129
_cell_angle_gamma 104.88189
loop_
_atom_site_label
_atom_site_type_symbol
_atom_site_fract_x
_atom_site_fract_y
_atom_site_fract_z
_atom_type_partial_charge
O0 O 0.09041 0.29706 0.39099 0.0
Cd1 Cd 0.09845 0.31995 0.37788 0.0
Cd2 Cd 0.09016 0.3329 0.40707 0.0
O3 O 0.09897 0.31338 0.41875 0.0
O4 O 0.10631 0.30765 0.35642 0.0
O5 O 0.12394 0.33133 0.37675 0.0
C6 C 0.12172 0.31879 0.36213 0.0
C7 C 0.09211 0.36285 0.42156 0.0
C8 C 0.09394 0.29757 0.40803 0.0
C9 C 0.06558 0.32587 0.374 0.0
O10 O 0.06674 0.32238 0.39009 0.0
O11 O 0.07928 0.33019 0.36652 0.0
O12 O 0.08258 0.34818 0.42661 0.0
O13 O 0.10221 0.36055 0.40937 0.0
O14 O 0.99274 0.72855 0.65268 0.0
Cd15 Cd 0.99464 0.75325 0.66906 0.0
Cd16 Cd 1.00249 0.76602 0.64048 0.0
O17 O 0.98796 0.73969 0.62764 0.0
O18 O 0.97959 0.74779 0.68751 0.0
O19 O 0.97549 0.765 0.66606 0.0
C20 C 0.97044 0.75731 0.67983 0.0
C21 C 1.00506 0.79166 0.62618 0.0
C22 C 0.98845 0.72584 0.63555 0.0
C23 C 0.0306 0.77018 0.67168 0.0
O24 O 0.02656 0.7683 0.65453 0.0
O25 O 0.01881 0.76724 0.68191 0.0
O26 O 0.01108 0.77785 0.62003 0.0
O27 O 0.99602 0.79022 0.63961 0.0
O28 O 0.62133 0.82064 0.88694 0.0
Cd29 Cd 0.60055 0.81791 0.9017 0.0
Cd30 Cd 0.58874 0.83128 0.87498 0.0
O31 O 0.6055 0.82064 0.86116 0.0
O32 O 0.60347 0.80048 0.9186 0.0
O33 O 0.58121 0.79391 0.89612 0.0
C34 C 0.5892 0.78896 0.90964 0.0
C35 C 0.56004 0.82452 0.86244 0.0
C36 C 0.61951 0.81942 0.86968 0.0
C37 C 0.59696 0.8563 0.90945 0.0
O38 O 0.59809 0.85629 0.89267 0.0
O39 O 0.59539 0.84117 0.91586 0.0
O40 O 0.57217 0.8365 0.85667 0.0
O41 O 0.56438 0.8159 0.87522 0.0
O42 O 0.49732 0.2217 0.15138 0.0
Cd43 Cd 0.49796 0.24752 0.16543 0.0
Cd44 Cd 0.50697 0.25476 0.1362 0.0
O45 O 0.48985 0.22914 0.12512 0.0
O46 O 0.48347 0.24275 0.18467 0.0
O47 O 0.47731 0.25697 0.16151 0.0
C48 C 0.47305 0.25031 0.17604 0.0
C49 C 0.51073 0.2819 0.12404 0.0
C50 C 0.49191 0.21671 0.13441 0.0
C51 C 0.53375 0.26078 0.16757 0.0
O52 O 0.52964 0.25359 0.15072 0.0
O53 O 0.52213 0.26417 0.17691 0.0
O54 O 0.51498 0.26745 0.11596 0.0
O55 O 0.50289 0.2803 0.13836 0.0
O56 O 0.06413 0.77969 0.11774 0.0
Cd57 Cd 0.06806 0.80346 0.13666 0.0
Cd58 Cd 0.0857 0.81768 0.10882 0.0
O59 O 0.07574 0.78989 0.09423 0.0
O60 O 0.0527 0.79136 0.15378 0.0
O61 O 0.04724 0.81414 0.14041 0.0
C62 C 0.04228 0.80142 0.15033 0.0
C63 C 0.07958 0.84386 0.09723 0.0
C64 C 0.06787 0.77634 0.10169 0.0
C65 C 0.10754 0.81684 0.14462 0.0
O66 O 0.10747 0.82081 0.12851 0.0
O67 O 0.09318 0.81122 0.151 0.0
O68 O 0.09099 0.8359 0.09103 0.0
O69 O 0.07163 0.83704 0.1101 0.0
O70 O 0.54597 0.76944 0.40387 0.0
Cd71 Cd 0.53052 0.76704 0.42471 0.0
Cd72 Cd 0.50975 0.78236 0.39272 0.0
O73 O 0.5324 0.77955 0.38145 0.0
O74 O 0.54464 0.75623 0.44224 0.0
O75 O 0.51752 0.74126 0.43032 0.0
C76 C 0.53158 0.74142 0.4405 0.0
C77 C 0.48235 0.78106 0.37502 0.0
C78 C 0.54555 0.77475 0.38838 0.0
C79 C 0.52295 0.80549 0.43246 0.0
O80 O 0.51561 0.80262 0.41599 0.0
O81 O 0.52902 0.79301 0.43879 0.0
O82 O 0.49652 0.79411 0.37497 0.0
O83 O 0.48375 0.76798 0.38424 0.0
O84 O 0.57091 0.27423 0.61457 0.0
Cd85 Cd 0.57518 0.29469 0.63729 0.0
Cd86 Cd 0.59532 0.31573 0.61407 0.0
O87 O 0.58848 0.28915 0.597 0.0
O88 O 0.55826 0.28105 0.65245 0.0
O89 O 0.55502 0.30623 0.64183 0.0
C90 C 0.54883 0.29244 0.65019 0.0
C91 C 0.58821 0.34183 0.6028 0.0
C92 C 0.5779 0.27419 0.60001 0.0
C93 C 0.61504 0.30995 0.64897 0.0
O94 O 0.6158 0.31862 0.63533 0.0
O95 O 0.60027 0.30029 0.65225 0.0
O96 O 0.60184 0.33653 0.59894 0.0
O97 O 0.5787 0.33259 0.61337 0.0
O98 O 0.02364 0.24141 0.91284 0.0
Cd99 Cd 0.02452 0.26333 0.89727 0.0
Cd100 Cd 0.01055 0.2768 0.92737 0.0
O101 O 0.01697 0.25483 0.93851 0.0
O102 O 0.04034 0.25789 0.87877 0.0
O103 O 0.04796 0.28361 0.89999 0.0
C104 C 0.05203 0.27321 0.88657 0.0
C105 C 0.02067 0.30813 0.94304 0.0
C106 C 0.02143 0.24125 0.92956 0.0
C107 C 0.98787 0.27013 0.89116 0.0
O108 O 0.9882 0.27166 0.90842 0.0
O109 O 1.00135 0.268 0.88394 0.0
O110 O 0.00817 0.29594 0.94809 0.0
O111 O 0.02799 0.30233 0.92943 0.0
O112 O 0.42783 0.0382 0.26817 0.0
Cd113 Cd 0.419 0.04345 0.29274 0.0
Cd114 Cd 0.44934 0.04349 0.2988 0.0
O115 O 0.45432 0.05654 0.27712 0.0
O116 O 0.39608 0.04588 0.28355 0.0
O117 O 0.41711 0.06946 0.30081 0.0
C118 C 0.40215 0.0636 0.29048 0.0
C119 C 0.46375 0.04962 0.32707 0.0
C120 C 0.44252 0.04685 0.2643 0.0
C121 C 0.42279 0.00941 0.29997 0.0
O122 O 0.43632 0.01533 0.29259 0.0
O123 O 0.41483 0.02115 0.30637 0.0
O124 O 0.47067 0.04344 0.31328 0.0
O125 O 0.44974 0.05513 0.3243 0.0
O126 O 0.30129 0.19462 0.53168 0.0
Cd127 Cd 0.2986 0.17245 0.51047 0.0
Cd128 Cd 0.28481 0.20012 0.49243 0.0
O129 O 0.29323 0.21664 0.51857 0.0
O130 O 0.31042 0.15565 0.52294 0.0
O131 O 0.32102 0.16939 0.5007 0.0
C132 C 0.3228 0.15924 0.51302 0.0
C133 C 0.28946 0.21218 0.46465 0.0
C134 C 0.29884 0.21096 0.53273 0.0
C135 C 0.2596 0.16227 0.49675 0.0
O136 O 0.26216 0.17871 0.49258 0.0
O137 O 0.27245 0.1562 0.50224 0.0
O138 O 0.27782 0.21587 0.47434 0.0
O139 O 0.29887 0.20202 0.47076 0.0
O140 O 0.15484 1.00301 0.73708 0.0
Cd141 Cd 0.17761 1.00422 0.75616 0.0
Cd142 Cd 0.14919 0.02517 0.78093 0.0
O143 O 0.13662 0.01592 0.75265 0.0
O144 O 0.19306 0.98783 0.74287 0.0
O145 O 0.18285 0.98082 0.7675 0.0
C146 C 0.19176 0.97659 0.75468 0.0
C147 C 0.1346 0.02474 0.80989 0.0
C148 C 0.14092 0.00887 0.73737 0.0
C149 C 0.18651 0.04936 0.77281 0.0
O150 O 0.17198 0.04738 0.77958 0.0
O151 O 0.19106 0.03475 0.76515 0.0
O152 O 0.13201 0.03497 0.79787 0.0
O153 O 0.14499 0.01447 0.8057 0.0
O154 O 0.29954 0.92247 0.02371 0.0
Cd155 Cd 0.29541 0.93424 1.00104 0.0
Cd156 Cd 0.29883 0.90227 0.98932 0.0
O157 O 0.28804 0.89272 0.01086 0.0
O158 O 0.28847 0.9569 0.01123 0.0
O159 O 0.27054 0.93202 0.99231 0.0
C160 C 0.273 0.94813 1.00293 0.0
C161 C 0.29648 0.88614 0.96032 0.0
C162 C 0.29407 0.90519 0.02517 0.0
C163 C 0.32869 0.9358 0.99369 0.0
O164 O 0.32362 0.9192 0.99698 0.0
O165 O 0.31751 0.94448 0.98967 0.0
O166 O 0.30391 0.88104 0.97405 0.0
O167 O 0.28841 0.89909 0.96332 0.0
O168 O 0.30607 0.39316 0.06469 0.0
Cd169 Cd 0.30787 0.41036 0.04474 0.0
Cd170 Cd 0.31623 0.37908 0.02507 0.0
O171 O 0.30843 0.36705 0.04784 0.0
O172 O 0.29399 0.42911 0.05148 0.0
O173 O 0.28572 0.40701 0.02681 0.0
C174 C 0.28255 0.42087 0.03731 0.0
C175 C 0.3083 0.36163 0.99508 0.0
C176 C 0.30585 0.37575 0.06296 0.0
C177 C 0.34455 0.41712 0.0338 0.0
O178 O 0.34019 0.39942 0.02759 0.0
O179 O 0.3335 0.42483 0.04078 0.0
O180 O 0.31966 0.35831 0.00666 0.0
O181 O 0.30046 0.37411 1.00085 0.0
O182 O 0.78931 0.1497 0.0525 0.0
Cd183 Cd 0.78853 0.13549 0.0265 0.0
Cd184 Cd 0.78915 0.1673 0.01979 0.0
O185 O 0.80327 0.17654 0.04496 0.0
O186 O 0.80058 0.11536 0.02485 0.0
O187 O 0.81049 0.14341 0.01636 0.0
C188 C 0.81245 0.12708 0.01839 0.0
C189 C 0.79261 0.17883 0.99331 0.0
C190 C 0.79749 0.16715 0.05706 0.0
C191 C 0.756 0.13964 0.0124 0.0
O192 O 0.76333 0.15652 0.0202 0.0
O193 O 0.76503 0.12797 0.00992 0.0
O194 O 0.78962 0.18907 0.00755 0.0
O195 O 0.79596 0.16299 0.99497 0.0
O196 O 0.17068 0.54747 0.23321 0.0
Cd197 Cd 0.18303 0.54727 0.25834 0.0
Cd198 Cd 0.15441 0.54813 0.26598 0.0
O199 O 0.14512 0.53341 0.24052 0.0
O200 O 0.20236 0.53588 0.25606 0.0
O201 O 0.17766 0.52302 0.2668 0.0
C202 C 0.19285 0.5222 0.26266 0.0
C203 C 0.1453 0.54529 0.29323 0.0
C204 C 0.15452 0.53921 0.22862 0.0
C205 C 0.18113 0.58285 0.27553 0.0
O206 O 0.16565 0.57622 0.26733 0.0
O207 O 0.19079 0.57187 0.27675 0.0
O208 O 0.13541 0.54886 0.28026 0.0
O209 O 0.15883 0.53971 0.28948 0.0
O210 O 0.8053 0.89109 0.56592 0.0
Cd211 Cd 0.80715 0.90645 0.54406 0.0
Cd212 Cd 0.8186 0.87678 0.52978 0.0
O213 O 0.81009 0.86493 0.55211 0.0
O214 O 0.7927 0.92472 0.5499 0.0
O215 O 0.78515 0.90216 0.52557 0.0
C216 C 0.78155 0.91599 0.53566 0.0
C217 C 0.80844 0.86209 0.49922 0.0
C218 C 0.80614 0.87417 0.5661 0.0
C219 C 0.84512 0.91462 0.53597 0.0
O220 O 0.84279 0.89679 0.53383 0.0
O221 O 0.83228 0.92156 0.53873 0.0
O222 O 0.81913 0.85618 0.5094 0.0
O223 O 0.8028 0.87584 0.50666 0.0
O224 O 0.93511 0.06289 0.2253 0.0
Cd225 Cd 0.91506 0.06284 0.24426 0.0
Cd226 Cd 0.94657 0.04707 0.2647 0.0
O227 O 0.95662 0.05371 0.23957 0.0
O228 O 0.89683 0.07747 0.2353 0.0
O229 O 0.9144 0.08904 0.26059 0.0
C230 C 0.90207 0.09115 0.2492 0.0
C231 C 0.96344 0.05187 0.29531 0.0
C232 C 0.95007 0.05897 0.22535 0.0
C233 C 0.90773 0.02066 0.25549 0.0
O234 O 0.92413 0.02377 0.26053 0.0
O235 O 0.90175 0.03399 0.2501 0.0
O236 O 0.96413 0.03898 0.28198 0.0
O237 O 0.95421 0.06304 0.29121 0.0
O238 O 0.29339 0.65343 0.55104 0.0
Cd239 Cd 0.29259 0.63562 0.52715 0.0
Cd240 Cd 0.28864 0.66328 0.51263 0.0
O241 O 0.29754 0.67878 0.5381 0.0
O242 O 0.30708 0.61852 0.53026 0.0
O243 O 0.31214 0.64065 0.51264 0.0
C244 C 0.3164 0.62693 0.51908 0.0
C245 C 0.28911 0.6761 0.48665 0.0
C246 C 0.29606 0.67116 0.55223 0.0
C247 C 0.25811 0.62944 0.50963 0.0
O248 O 0.26359 0.64696 0.50963 0.0
O249 O 0.26844 0.62033 0.51491 0.0
O250 O 0.2825 0.6826 0.50037 0.0
O251 O 0.29823 0.66433 0.4887 0.0
O252 O 0.43677 0.56567 0.72946 0.0
Cd253 Cd 0.41513 0.56544 0.74656 0.0
Cd254 Cd 0.44772 0.54877 0.76938 0.0
O255 O 0.45733 0.55504 0.74395 0.0
O256 O 0.39769 0.58031 0.73541 0.0
O257 O 0.41222 0.5912 0.76238 0.0
C258 C 0.40122 0.59359 0.74966 0.0
C259 C 0.46516 0.55136 0.79954 0.0
C260 C 0.4514 0.56094 0.72981 0.0
C261 C 0.40818 0.52298 0.75811 0.0
O262 O 0.42436 0.52672 0.7646 0.0
O263 O 0.40217 0.53591 0.75172 0.0
O264 O 0.46434 0.53828 0.78576 0.0
O265 O 0.45713 0.5638 0.7962 0.0
O266 O 0.67173 0.05041 0.72894 0.0
Cd267 Cd 0.68401 0.0504 0.75407 0.0
Cd268 Cd 0.65463 0.04905 0.7606 0.0
O269 O 0.64702 0.03312 0.73526 0.0
O270 O 0.703 0.03819 0.75273 0.0
O271 O 0.67739 0.0261 0.76212 0.0
C272 C 0.6926 0.02465 0.75875 0.0
C273 C 0.64499 0.04632 0.78759 0.0
C274 C 0.65617 0.04018 0.72368 0.0
C275 C 0.67949 0.08466 0.77126 0.0
O276 O 0.66467 0.07736 0.7617 0.0
O277 O 0.68979 0.07444 0.77322 0.0
O278 O 0.63498 0.04889 0.7741 0.0
O279 O 0.65906 0.04153 0.78457 0.0
O280 O 0.80061 0.69711 0.03691 0.0
Cd281 Cd 0.79849 0.67628 0.01474 0.0
Cd282 Cd 0.78458 0.70459 0.99869 0.0
O283 O 0.79452 0.72064 0.0249 0.0
O284 O 0.80989 0.65854 0.02617 0.0
O285 O 0.82164 0.67475 0.00591 0.0
C286 C 0.82289 0.6635 0.0173 0.0
C287 C 0.78934 0.71676 0.97088 0.0
C288 C 0.79919 0.71392 0.03877 0.0
C289 C 0.75952 0.66627 1.0016 0.0
O290 O 0.76169 0.68332 0.99913 0.0
O291 O 0.77264 0.65994 0.00542 0.0
O292 O 0.77921 0.7222 0.98172 0.0
O293 O 0.79712 0.70467 0.97589 0.0
O294 O 0.93174 0.54759 0.77471 0.0
Cd295 Cd 0.9207 0.54968 0.79816 0.0
Cd296 Cd 0.95101 0.54788 0.8057 0.0
O297 O 0.95928 0.56133 0.78516 0.0
O298 O 0.89819 0.55085 0.78612 0.0
O299 O 0.91546 0.57415 0.80708 0.0
C300 C 0.90198 0.56804 0.7946 0.0
C301 C 0.96333 0.55168 0.83472 0.0
C302 C 0.94731 0.55404 0.77174 0.0
C303 C 0.92278 0.51346 0.8011 0.0
O304 O 0.93778 0.52021 0.79686 0.0
O305 O 0.91381 0.52443 0.80678 0.0
O306 O 0.97081 0.54571 0.82134 0.0
O307 O 0.94998 0.55814 0.8314 0.0
O308 O 0.8039 0.42455 0.53252 0.0
Cd309 Cd 0.79949 0.43487 0.50912 0.0
Cd310 Cd 0.80174 0.40264 0.49953 0.0
O311 O 0.78963 0.39513 0.52111 0.0
O312 O 0.79242 0.45776 0.51773 0.0
O313 O 0.77461 0.43176 0.50015 0.0
C314 C 0.77688 0.44829 0.51 0.0
C315 C 0.7992 0.38584 0.47096 0.0
C316 C 0.79732 0.40774 0.53484 0.0
C317 C 0.83232 0.4341 0.50177 0.0
O318 O 0.82694 0.41846 0.50701 0.0
O319 O 0.8214 0.4427 0.49666 0.0
O320 O 0.80519 0.3801 0.4851 0.0
O321 O 0.79247 0.39997 0.47337 0.0
O322 O 0.66038 0.50265 0.24261 0.0
Cd323 Cd 0.68256 0.50368 0.26199 0.0
Cd324 Cd 0.65306 0.52349 0.28615 0.0
O325 O 0.6406 0.51355 0.25747 0.0
O326 O 0.69879 0.48761 0.2497 0.0
O327 O 0.68663 0.47971 0.2731 0.0
C328 C 0.69641 0.47584 0.26102 0.0
C329 C 0.63813 0.52282 0.31509 0.0
C330 C 0.64584 0.50729 0.24241 0.0
C331 C 0.69058 0.54864 0.27865 0.0
O332 O 0.67607 0.54615 0.28554 0.0
O333 O 0.69534 0.5343 0.27069 0.0
O334 O 0.63632 0.53374 0.30348 0.0
O335 O 0.64785 0.51189 0.31041 0.0
Sm336 Sm 0.03231 0.03628 0.01177 0.0
Sm337 Sm 0.06408 0.05384 0.03089 0.0
C338 C 0.99797 0.02759 1.0027 0.0
C339 C 0.98516 0.03865 1.00146 0.0
C340 C 0.98283 0.05065 0.01689 0.0
C341 C 0.97071 0.06111 0.01542 0.0
C342 C 0.96077 0.05985 0.99848 0.0
C343 C 0.96326 0.048 0.98304 0.0
C344 C 0.97529 0.03743 0.98456 0.0
C345 C 0.05579 0.03314 0.9862 0.0
C346 C 0.04694 0.08232 0.01238 0.0
C347 C 0.09771 0.06252 0.04472 0.0
C348 C 0.11103 0.05191 0.04392 0.0
C349 C 0.11178 0.04002 0.02767 0.0
C350 C 0.12441 0.03005 0.02698 0.0
C351 C 0.13628 0.03147 0.04259 0.0
C352 C 0.13529 0.04293 0.05897 0.0
C353 C 0.12279 0.05317 0.0596 0.0
C354 C 0.03864 0.05574 0.05486 0.0
C355 C 0.05072 0.00747 0.02713 0.0
O356 O 1.00555 0.028 0.01907 0.0
O357 O 0.0088 0.02868 0.9906 0.0
O358 O 0.05762 0.04765 0.99888 0.0
O359 O 0.04179 0.02006 0.98759 0.0
O360 O 0.03345 0.06717 0.00836 0.0
O361 O 0.06152 0.08143 0.02151 0.0
O362 O 0.09216 0.06701 0.02942 0.0
O363 O 0.08502 0.05646 0.05395 0.0
O364 O 0.03913 0.04143 0.04324 0.0
O365 O 0.05182 0.06976 0.05349 0.0
O366 O 0.06422 0.02256 0.03071 0.0
O367 O 0.03556 0.00863 0.01983 0.0
H368 H 0.99024 0.05191 0.03015 0.0
H369 H 0.96886 0.06982 0.02765 0.0
H370 H 0.9559 0.04687 0.96977 0.0
H371 H 0.97692 0.0283 0.97249 0.0
H372 H 0.10267 0.03851 0.01547 0.0
H373 H 0.12496 0.02122 0.01424 0.0
H374 H 0.14443 0.04428 0.07111 0.0
H375 H 0.12235 0.06212 0.0723 0.0
Sm376 Sm 0.30036 0.79472 0.24037 0.0
Sm377 Sm 0.28588 0.80233 0.27997 0.0
C378 C 0.30447 0.79165 0.20582 0.0
C379 C 0.31478 0.80556 0.19623 0.0
C380 C 0.31125 0.82314 0.19608 0.0
C381 C 0.32086 0.83614 0.1867 0.0
C382 C 0.33412 0.83177 0.17732 0.0
C383 C 0.3384 0.81474 0.17844 0.0
C384 C 0.32876 0.8017 0.18784 0.0
C385 C 0.32665 0.79871 0.26954 0.0
C386 C 0.3017 0.83781 0.25988 0.0
C387 C 0.2813 0.80538 0.3145 0.0
C388 C 0.27415 0.79017 0.32433 0.0
C389 C 0.27764 0.77261 0.3198 0.0
C390 C 0.27059 0.75785 0.32865 0.0
C391 C 0.25997 0.76043 0.34214 0.0
C392 C 0.2556 0.77759 0.34601 0.0
C393 C 0.26268 0.79246 0.33706 0.0
C394 C 0.25969 0.79656 0.25052 0.0
C395 C 0.28146 0.7595 0.25849 0.0
O396 O 0.29073 0.79561 0.21191 0.0
O397 O 0.3135 0.78492 0.21744 0.0
O398 O 0.31111 0.79962 0.27036 0.0
O399 O 0.32884 0.79644 0.25244 0.0
O400 O 0.30275 0.82622 0.24506 0.0
O401 O 0.29757 0.83235 0.27537 0.0
O402 O 0.29655 0.80572 0.30915 0.0
O403 O 0.27002 0.80786 0.30189 0.0
O404 O 0.27545 0.79661 0.25034 0.0
O405 O 0.257 0.79902 0.26746 0.0
O406 O 0.28344 0.77069 0.2745 0.0
O407 O 0.2847 0.76542 0.24305 0.0
H408 H 0.30075 0.8267 0.20275 0.0
H409 H 0.31712 0.84904 0.18579 0.0
H410 H 0.34861 0.81116 0.17127 0.0
H411 H 0.33195 0.78842 0.1882 0.0
H412 H 0.28612 0.77036 0.3097 0.0
H413 H 0.27408 0.74466 0.32556 0.0
H414 H 0.24751 0.77977 0.35655 0.0
H415 H 0.25948 0.80578 0.34029 0.0
Sm416 Sm 0.57135 0.03953 0.52584 0.0
Sm417 Sm 0.53076 0.03487 0.52873 0.0
C418 C 0.60351 0.0352 0.52805 0.0
C419 C 0.61298 0.02035 0.52435 0.0
C420 C 0.61327 0.00712 0.536 0.0
C421 C 0.62381 0.99469 0.53362 0.0
C422 C 0.63448 0.99513 0.51957 0.0
C423 C 0.63356 0.00779 0.50741 0.0
C424 C 0.62302 0.02026 0.50982 0.0
C425 C 0.55047 0.03934 0.49502 0.0
C426 C 0.54279 0.99681 0.51943 0.0
C427 C 0.49866 0.03915 0.52601 0.0
C428 C 0.48949 0.0541 0.53035 0.0
C429 C 0.48725 0.06594 0.51775 0.0
C430 C 0.477 0.07854 0.52082 0.0
C431 C 0.46861 0.07972 0.53658 0.0
C432 C 0.47148 0.06844 0.54957 0.0
C433 C 0.48169 0.05575 0.54645 0.0
C434 C 0.55165 0.03573 0.55989 0.0
C435 C 0.55939 0.07788 0.53504 0.0
O436 O 0.59436 0.0348 0.54177 0.0
O437 O 0.59609 0.04033 0.51396 0.0
O438 O 0.54646 0.02891 0.50652 0.0
O439 O 0.5666 0.04971 0.49854 0.0
O440 O 0.55898 0.0075 0.52534 0.0
O441 O 0.52943 1.00414 0.51699 0.0
O442 O 0.50834 0.04051 0.51274 0.0
O443 O 0.50545 0.03286 0.53969 0.0
O444 O 0.55555 0.04565 0.54794 0.0
O445 O 0.53548 0.02538 0.55644 0.0
O446 O 0.54312 0.06699 0.53003 0.0
O447 O 0.57296 0.07071 0.53667 0.0
H448 H 0.60568 1.00665 0.5473 0.0
H449 H 0.62384 0.98493 0.54306 0.0
H450 H 0.64161 0.00872 0.4965 0.0
H451 H 0.62319 0.03028 0.50061 0.0
H452 H 0.49296 0.06505 0.50515 0.0
H453 H 0.47502 0.08672 0.51033 0.0
H454 H 0.46557 0.06912 0.56204 0.0
H455 H 0.48311 0.04689 0.55648 0.0
Sm456 Sm 0.28048 0.28816 0.76112 0.0
Sm457 Sm 0.31778 0.2797 0.76569 0.0
C458 C 0.24684 0.2856 0.76365 0.0
C459 C 0.2351 0.2878 0.77787 0.0
C460 C 0.22748 0.27252 0.78632 0.0
C461 C 0.21522 0.27401 0.79839 0.0
C462 C 0.21011 0.29082 0.80242 0.0
C463 C 0.21814 0.30628 0.79434 0.0
C464 C 0.23037 0.30476 0.78221 0.0
C465 C 0.30671 0.32262 0.76172 0.0
C466 C 0.30248 0.29357 0.80265 0.0
C467 C 0.35133 0.28189 0.76354 0.0
C468 C 0.36265 0.27793 0.74946 0.0
C469 C 0.37143 0.29254 0.74088 0.0
C470 C 0.3832 0.28952 0.72876 0.0
C471 C 0.38663 0.27178 0.7248 0.0
C472 C 0.37746 0.25697 0.73302 0.0
C473 C 0.36569 0.26003 0.74523 0.0
C474 C 0.29149 0.24559 0.76555 0.0
C475 C 0.29566 0.27319 0.72413 0.0
O476 O 0.25341 0.27114 0.76262 0.0
O477 O 0.25793 0.30082 0.76067 0.0
O478 O 0.30907 0.30634 0.76301 0.0
O479 O 0.28992 0.32027 0.75966 0.0
O480 O 0.28758 0.29165 0.79222 0.0
O481 O 0.31665 0.2912 0.79584 0.0
O482 O 0.34456 0.29606 0.7626 0.0
O483 O 0.34054 0.26753 0.76836 0.0
O484 O 0.28934 0.26185 0.76401 0.0
O485 O 0.30824 0.24768 0.76754 0.0
O486 O 0.31053 0.27502 0.73455 0.0
O487 O 0.28163 0.27623 0.73089 0.0
H488 H 0.23065 0.25917 0.78326 0.0
H489 H 0.20929 0.26166 0.80403 0.0
H490 H 0.2149 0.3196 0.79725 0.0
H491 H 0.23588 0.31682 0.77595 0.0
H492 H 0.36957 0.30655 0.7439 0.0
H493 H 0.39014 0.30142 0.72309 0.0
H494 H 0.3795 0.24303 0.73018 0.0
H495 H 0.35921 0.24842 0.75159 0.0
Sm496 Sm 0.04938 0.06333 0.52833 0.0
Sm497 Sm 0.05502 0.02274 0.51161 0.0
C498 C 0.05263 0.09998 0.53421 0.0
C499 C 0.05307 0.11338 0.5214 0.0
C500 C 0.06293 0.1129 0.50677 0.0
C501 C 0.06262 0.1251 0.49425 0.0
C502 C 0.05235 0.1379 0.49601 0.0
C503 C 0.04206 0.1379 0.5103 0.0
C504 C 0.04244 0.12576 0.52289 0.0
C505 C 0.01942 0.03399 0.52838 0.0
C506 C 0.03851 0.04574 0.48278 0.0
C507 C 0.05192 0.98628 0.50397 0.0
C508 C 0.05276 0.9723 0.51579 0.0
C509 C 0.0409 0.96866 0.52844 0.0
C510 C 0.04233 0.95599 0.5401 0.0
C511 C 0.05573 0.94695 0.53944 0.0
C512 C 0.06796 0.951 0.52731 0.0
C513 C 0.06641 0.96354 0.51545 0.0
C514 C 0.08429 0.0517 0.50925 0.0
C515 C 0.06581 0.03973 0.55736 0.0
O516 O 0.06607 0.09299 0.53612 0.0
O517 O 0.03761 0.08731 0.53305 0.0
O518 O 0.03386 0.03296 0.52336 0.0
O519 O 0.02071 0.05168 0.5343 0.0
O520 O 0.0421 0.06056 0.49644 0.0
O521 O 0.04117 0.0293 0.48542 0.0
O522 O 0.03832 0.99315 0.50386 0.0
O523 O 0.06669 0.99915 0.50448 0.0
O524 O 0.07055 0.05333 0.51575 0.0
O525 O 0.08227 0.03395 0.50293 0.0
O526 O 0.06325 0.02548 0.54329 0.0
O527 O 0.06217 0.05595 0.55515 0.0
H528 H 0.07085 0.10308 0.50497 0.0
H529 H 0.07048 0.12458 0.48321 0.0
H530 H 0.0341 0.14768 0.51208 0.0
H531 H 0.03445 0.12605 0.53383 0.0
H532 H 0.0305 0.97554 0.52935 0.0
H533 H 0.03283 0.95301 0.54949 0.0
H534 H 0.07831 0.94404 0.52663 0.0
H535 H 0.07587 0.96643 0.50601 0.0
Sm536 Sm 0.31495 0.80102 0.75569 0.0
Sm537 Sm 0.28043 0.77235 0.74878 0.0
C538 C 0.34451 0.8277 0.7663 0.0
C539 C 0.36223 0.82565 0.77068 0.0
C540 C 0.36701 0.82049 0.78739 0.0
C541 C 0.38244 0.81536 0.79042 0.0
C542 C 0.39352 0.81543 0.7769 0.0
C543 C 0.38924 0.82139 0.76049 0.0
C544 C 0.37366 0.82644 0.75738 0.0
C545 C 0.30458 0.78357 0.7202 0.0
C546 C 0.31673 0.75626 0.75469 0.0
C547 C 0.25089 0.7462 0.73647 0.0
C548 C 0.23331 0.74843 0.73151 0.0
C549 C 0.22879 0.7534 0.71459 0.0
C550 C 0.21306 0.75789 0.71092 0.0
C551 C 0.20153 0.7574 0.72402 0.0
C552 C 0.20588 0.75215 0.7408 0.0
C553 C 0.22158 0.74763 0.74448 0.0
C554 C 0.28999 0.79025 0.78423 0.0
C555 C 0.27872 0.8169 0.7503 0.0
O556 O 0.33341 0.82212 0.77755 0.0
O557 O 0.33758 0.82229 0.74913 0.0
O558 O 0.29501 0.78978 0.73052 0.0
O559 O 0.32038 0.78684 0.72838 0.0
O560 O 0.32577 0.7745 0.75927 0.0
O561 O 0.29946 0.75207 0.74947 0.0
O562 O 0.26257 0.75203 0.72585 0.0
O563 O 0.25713 0.75107 0.75387 0.0
O564 O 0.30004 0.78419 0.77433 0.0
O565 O 0.27417 0.78612 0.77578 0.0
O566 O 0.27006 0.79881 0.74405 0.0
O567 O 0.29566 0.82104 0.75699 0.0
H568 H 0.35861 0.81984 0.798 0.0
H569 H 0.38573 0.81135 0.80341 0.0
H570 H 0.39772 0.82172 0.74996 0.0
H571 H 0.37031 0.83036 0.74437 0.0
H572 H 0.23754 0.75419 0.7043 0.0
H573 H 0.20987 0.7616 0.69775 0.0
H574 H 0.19724 0.75181 0.75118 0.0
H575 H 0.22474 0.74398 0.75768 0.0
Sm576 Sm 0.55036 0.03319 0.04268 0.0
Sm577 Sm 0.53916 0.03722 0.00432 0.0
C578 C 0.55277 0.02886 0.07697 0.0
C579 C 0.53862 0.02183 0.08725 0.0
C580 C 0.52261 0.02602 0.08371 0.0
C581 C 0.50866 0.01841 0.09255 0.0
C582 C 0.51065 0.00687 0.10542 0.0
C583 C 0.52643 1.00192 0.10827 0.0
C584 C 0.54033 0.00931 0.09913 0.0
C585 C 0.55556 0.00691 0.01605 0.0
C586 C 0.50908 0.01774 0.02439 0.0
C587 C 0.53761 0.04106 0.96989 0.0
C588 C 0.5517 0.05078 0.96065 0.0
C589 C 0.56851 0.04841 0.96413 0.0
C590 C 0.58215 0.05827 0.9561 0.0
C591 C 0.57914 0.07046 0.94428 0.0
C592 C 0.56261 0.07372 0.9416 0.0
C593 C 0.54892 0.06392 0.94981 0.0
C594 C 0.53404 0.06397 0.03049 0.0
C595 C 0.58002 0.05515 0.02345 0.0
O596 O 0.55356 0.04529 0.07215 0.0
O597 O 0.55463 0.01619 0.06378 0.0
O598 O 0.54185 0.0122 0.01635 0.0
O599 O 0.56726 0.01548 0.03001 0.0
O600 O 0.52022 0.02537 0.03945 0.0
O601 O 0.51412 0.01694 0.00811 0.0
O602 O 0.53926 0.02549 0.97526 0.0
O603 O 0.53268 0.05223 0.98223 0.0
O604 O 0.54765 0.05842 0.03064 0.0
O605 O 0.52272 0.05579 0.01612 0.0
O606 O 0.5692 0.04704 0.00828 0.0
O607 O 0.57511 0.05459 0.03969 0.0
H608 H 0.52089 0.03538 0.07427 0.0
H609 H 0.49656 0.02224 0.08994 0.0
H610 H 0.52838 0.9932 0.11828 0.0
H611 H 0.55248 1.00553 0.10155 0.0
H612 H 0.57109 0.03867 0.97278 0.0
H613 H 0.59487 0.05568 0.9584 0.0
H614 H 0.56005 0.08301 0.93241 0.0
H615 H 0.53614 0.06633 0.94746 0.0
Sm616 Sm 0.29981 0.30446 0.26457 0.0
Sm617 Sm 0.28403 0.26257 0.24836 0.0
C618 C 0.30648 0.34133 0.26748 0.0
C619 C 0.29524 0.35368 0.27196 0.0
C620 C 0.27853 0.35 0.2619 0.0
C621 C 0.26781 0.36159 0.26625 0.0
C622 C 0.27354 0.37699 0.28077 0.0
C623 C 0.28994 0.38027 0.29126 0.0
C624 C 0.30074 0.36868 0.28685 0.0
C625 C 0.29868 0.2852 0.29394 0.0
C626 C 0.25819 0.28506 0.26396 0.0
C627 C 0.27785 0.22588 0.23656 0.0
C628 C 0.28886 0.21291 0.23733 0.0
C629 C 0.30162 0.21558 0.25248 0.0
C630 C 0.31268 0.20385 0.25273 0.0
C631 C 0.31127 0.18937 0.23779 0.0
C632 C 0.29884 0.18705 0.2224 0.0
C633 C 0.28766 0.19874 0.22221 0.0
C634 C 0.28351 0.28696 0.22373 0.0
C635 C 0.32657 0.28124 0.25454 0.0
O636 O 0.30159 0.32972 0.2518 0.0
O637 O 0.31163 0.33343 0.28075 0.0
O638 O 0.29356 0.27766 0.27727 0.0
O639 O 0.3053 0.30327 0.29525 0.0
O640 O 0.27029 0.30027 0.26225 0.0
O641 O 0.26073 0.26811 0.26124 0.0
O642 O 0.27363 0.23285 0.25213 0.0
O643 O 0.28255 0.23853 0.22626 0.0
O644 O 0.29608 0.28796 0.23582 0.0
O645 O 0.27028 0.27287 0.22473 0.0
O646 O 0.31365 0.26586 0.25396 0.0
O647 O 0.32443 0.29829 0.25674 0.0
H648 H 0.27376 0.33829 0.25052 0.0
H649 H 0.25532 0.3589 0.25779 0.0
H650 H 0.29453 0.39199 0.30265 0.0
H651 H 0.31342 0.37149 0.29498 0.0
H652 H 0.30312 0.2268 0.26407 0.0
H653 H 0.32239 0.20611 0.26462 0.0
H654 H 0.29754 0.17597 0.21074 0.0
H655 H 0.27812 0.19679 0.21024 0.0
Sm656 Sm 0.55282 0.55408 0.03062 0.0
Sm657 Sm 0.55739 0.5158 0.01509 0.0
C658 C 0.55199 0.58975 0.03534 0.0
C659 C 0.55272 0.6035 0.02279 0.0
C660 C 0.56686 0.60823 0.01285 0.0
C661 C 0.56709 0.62089 1.00069 0.0
C662 C 0.55313 0.62899 0.99808 0.0
C663 C 0.53884 0.62391 0.00776 0.0
C664 C 0.53868 0.61137 0.02003 0.0
C665 C 0.52486 0.52382 0.03282 0.0
C666 C 0.54304 0.53793 0.98472 0.0
C667 C 0.55296 0.47898 0.00975 0.0
C668 C 0.55734 0.46697 0.02255 0.0
C669 C 0.54993 0.46629 0.03888 0.0
C670 C 0.55421 0.45516 0.05109 0.0
C671 C 0.5661 0.44452 0.04735 0.0
C672 C 0.57401 0.44572 0.03132 0.0
C673 C 0.56963 0.45683 0.01901 0.0
C674 C 0.58895 0.54264 0.01466 0.0
C675 C 0.56948 0.53254 0.06031 0.0
O676 O 0.56627 0.5847 0.03929 0.0
O677 O 0.53786 0.57555 0.03242 0.0
O678 O 0.53319 0.52573 0.01924 0.0
O679 O 0.53154 0.53817 0.04604 0.0
O680 O 0.54649 0.55247 0.99861 0.0
O681 O 0.54533 0.52143 0.98754 0.0
O682 O 0.54043 0.48676 0.01341 0.0
O683 O 0.5662 0.49058 0.00464 0.0
O684 O 0.57535 0.54576 0.02026 0.0
O685 O 0.5858 0.52475 0.00819 0.0
O686 O 0.56411 0.51756 0.04692 0.0
O687 O 0.56832 0.54935 0.0571 0.0
H688 H 0.57779 0.6022 0.01447 0.0
H689 H 0.5784 0.62463 0.99365 0.0
H690 H 0.52772 0.62958 0.00583 0.0
H691 H 0.52752 0.60772 0.02732 0.0
H692 H 0.54061 0.47417 0.04223 0.0
H693 H 0.54762 0.45433 0.06311 0.0
H694 H 0.58335 0.43783 0.02815 0.0
H695 H 0.57577 0.45742 0.00668 0.0
Sm696 Sm 0.81712 0.29921 0.26081 0.0
Sm697 Sm 0.78389 0.26926 0.25991 0.0
C698 C 0.84911 0.32119 0.27072 0.0
C699 C 0.86588 0.31676 0.27452 0.0
C700 C 0.86932 0.30845 0.28973 0.0
C701 C 0.88508 0.30395 0.293 0.0
C702 C 0.89767 0.30761 0.28111 0.0
C703 C 0.89402 0.31537 0.26562 0.0
C704 C 0.87828 0.31999 0.2624 0.0
C705 C 0.80224 0.28008 0.22683 0.0
C706 C 0.81913 0.25375 0.26309 0.0
C707 C 0.75241 0.24616 0.24937 0.0
C708 C 0.73476 0.24859 0.24627 0.0
C709 C 0.72716 0.24769 0.22829 0.0
C710 C 0.71082 0.2508 0.22502 0.0
C711 C 0.70178 0.25474 0.23964 0.0
C712 C 0.70926 0.25573 0.25764 0.0
C713 C 0.72566 0.25257 0.26095 0.0
C714 C 0.79895 0.28795 0.29399 0.0
C715 C 0.78177 0.31474 0.25715 0.0
O716 O 0.83799 0.31727 0.28239 0.0
O717 O 0.84174 0.31661 0.25363 0.0
O718 O 0.80377 0.2731 0.24098 0.0
O719 O 0.80952 0.29825 0.22993 0.0
O720 O 0.82758 0.2723 0.26618 0.0
O721 O 0.80183 0.24864 0.25895 0.0
O722 O 0.7629 0.25272 0.23791 0.0
O723 O 0.7601 0.24966 0.26633 0.0
O724 O 0.79731 0.29533 0.28007 0.0
O725 O 0.79193 0.26971 0.29049 0.0
O726 O 0.77325 0.29644 0.25635 0.0
O727 O 0.79918 0.3198 0.25929 0.0
H728 H 0.85995 0.30556 0.29926 0.0
H729 H 0.88763 0.29824 0.30521 0.0
H730 H 0.90346 0.31815 0.25614 0.0
H731 H 0.87582 0.32612 0.25045 0.0
H732 H 0.73391 0.24472 0.21674 0.0
H733 H 0.70521 0.25014 0.21104 0.0
H734 H 0.7023 0.25863 0.26903 0.0
H735 H 0.7312 0.25332 0.27496 0.0
Sm736 Sm 0.05117 0.54653 0.5482 0.0
Sm737 Sm 0.03987 0.54796 0.50895 0.0
C738 C 0.05267 0.54431 0.58292 0.0
C739 C 0.03863 0.53581 0.5929 0.0
C740 C 0.02399 0.54292 0.59418 0.0
C741 C 0.01079 0.53466 0.60371 0.0
C742 C 0.01201 0.51914 0.61186 0.0
C743 C 0.02589 0.51116 0.60946 0.0
C744 C 0.03921 0.51952 0.60009 0.0
C745 C 0.05652 0.51883 0.52313 0.0
C746 C 0.01001 0.52955 0.52996 0.0
C747 C 0.03822 0.54922 0.47399 0.0
C748 C 0.05152 0.55973 0.46433 0.0
C749 C 0.06867 0.55797 0.46648 0.0
C750 C 0.08125 0.5681 0.45736 0.0
C751 C 0.07686 0.58016 0.4461 0.0
C752 C 0.0601 0.58288 0.44481 0.0
C753 C 0.04747 0.57272 0.45395 0.0
C754 C 0.0348 0.57602 0.5335 0.0
C755 C 0.08078 0.56752 0.52803 0.0
O756 O 0.0517 0.55979 0.57692 0.0
O757 O 0.05707 0.53223 0.57099 0.0
O758 O 0.04278 0.52413 0.52281 0.0
O759 O 0.06802 0.52795 0.53709 0.0
O760 O 0.02103 0.53815 0.54488 0.0
O761 O 0.01516 0.52782 0.51375 0.0
O762 O 0.04176 0.53509 0.48077 0.0
O763 O 0.03152 0.55979 0.48518 0.0
O764 O 0.0484 0.57048 0.53419 0.0
O765 O 0.0234 0.56713 0.51938 0.0
O766 O 0.06978 0.55932 0.51298 0.0
O767 O 0.07622 0.56703 0.54445 0.0
H768 H 0.02292 0.55513 0.58829 0.0
H769 H 1.00022 0.5411 0.60576 0.0
H770 H 0.02709 0.49937 0.61602 0.0
H771 H 0.05018 0.51357 0.59886 0.0
H772 H 0.07231 0.54844 0.47483 0.0
H773 H 0.09409 0.56565 0.45817 0.0
H774 H 0.05652 0.59192 0.43585 0.0
H775 H 0.03443 0.57463 0.45256 0.0
Sm776 Sm 0.77609 0.79028 0.26637 0.0
Sm777 Sm 0.8131 0.7808 0.26891 0.0
C778 C 0.74267 0.78641 0.27062 0.0
C779 C 0.73135 0.79055 0.28465 0.0
C780 C 0.72981 0.78115 0.29975 0.0
C781 C 0.71732 0.78301 0.3114 0.0
C782 C 0.70592 0.79425 0.30831 0.0
C783 C 0.7081 0.8044 0.29374 0.0
C784 C 0.7206 0.80252 0.28205 0.0
C785 C 0.80249 0.82413 0.26608 0.0
C786 C 0.80048 0.79767 0.30679 0.0
C787 C 0.84645 0.78364 0.26553 0.0
C788 C 0.85723 0.77945 0.2511 0.0
C789 C 0.85784 0.78835 0.23568 0.0
C790 C 0.8696 0.78606 0.22332 0.0
C791 C 0.88107 0.77484 0.22603 0.0
C792 C 0.87979 0.76515 0.24094 0.0
C793 C 0.86803 0.76748 0.25335 0.0
C794 C 0.78664 0.747 0.2688 0.0
C795 C 0.78922 0.77414 0.22835 0.0
O796 O 0.75089 0.77361 0.27288 0.0
O797 O 0.75195 0.80041 0.26383 0.0
O798 O 0.80452 0.80764 0.26698 0.0
O799 O 0.7858 0.82249 0.26517 0.0
O800 O 0.78562 0.79743 0.29722 0.0
O801 O 0.81319 0.79214 0.29941 0.0
O802 O 0.83913 0.79734 0.26425 0.0
O803 O 0.83639 0.76935 0.27122 0.0
O804 O 0.78476 0.76354 0.26808 0.0
O805 O 0.80326 0.74845 0.26959 0.0
O806 O 0.80426 0.77507 0.23802 0.0
O807 O 0.77606 0.77871 0.23577 0.0
H808 H 0.73788 0.77186 0.3023 0.0
H809 H 0.71638 0.77528 0.32266 0.0
H810 H 0.69957 0.81312 0.29078 0.0
H811 H 0.7214 0.8099 0.27054 0.0
H812 H 0.84958 0.79752 0.23338 0.0
H813 H 0.86993 0.79343 0.2118 0.0
H814 H 0.88844 0.75646 0.24355 0.0
H815 H 0.86782 0.76041 0.26507 0.0
Sm816 Sm 0.81267 0.29168 0.74919 0.0
Sm817 Sm 0.79504 0.29592 0.78662 0.0
C818 C 0.82006 0.29031 0.71558 0.0
C819 C 0.82433 0.30541 0.70505 0.0
C820 C 0.81798 0.32129 0.70892 0.0
C821 C 0.82335 0.33659 0.70014 0.0
C822 C 0.83508 0.33614 0.68731 0.0
C823 C 0.84184 0.32045 0.68392 0.0
C824 C 0.83653 0.30518 0.69282 0.0
C825 C 0.83709 0.29329 0.77935 0.0
C826 C 0.81322 0.33317 0.771 0.0
C827 C 0.78791 0.29706 0.82036 0.0
C828 C 0.77715 0.28249 0.82896 0.0
C829 C 0.78028 0.26464 0.82786 0.0
C830 C 0.76998 0.25075 0.83579 0.0
C831 C 0.7562 0.2543 0.84486 0.0
C832 C 0.7526 0.27191 0.84532 0.0
C833 C 0.76303 0.28592 0.83741 0.0
C834 C 0.77082 0.29428 0.75624 0.0
C835 C 0.7922 0.25412 0.76337 0.0
O836 O 0.80396 0.28554 0.71928 0.0
O837 O 0.8318 0.2922 0.72964 0.0
O838 O 0.82138 0.29399 0.7795 0.0
O839 O 0.84018 0.29194 0.76258 0.0
O840 O 0.81317 0.32282 0.755 0.0
O841 O 0.80967 0.32609 0.78583 0.0
O842 O 0.80245 0.29406 0.81546 0.0
O843 O 0.77934 0.30346 0.80809 0.0
O844 O 0.78651 0.29354 0.75651 0.0
O845 O 0.76728 0.29537 0.77288 0.0
O846 O 0.79118 0.26422 0.77915 0.0
O847 O 0.79832 0.26122 0.74938 0.0
H848 H 0.80888 0.32187 0.71874 0.0
H849 H 0.81806 0.34859 0.70307 0.0
H850 H 0.85071 0.31964 0.67389 0.0
H851 H 0.84189 0.2932 0.69015 0.0
H852 H 0.79088 0.26143 0.82112 0.0
H853 H 0.77342 0.23754 0.83555 0.0
H854 H 0.74203 0.275 0.85218 0.0
H855 H 0.76019 0.29948 0.83804 0.0
Sm856 Sm 0.79917 0.81132 0.77216 0.0
Sm857 Sm 0.78175 0.76572 0.75643 0.0
C858 C 0.8063 0.84812 0.77526 0.0
C859 C 0.79463 0.86013 0.77888 0.0
C860 C 0.7781 0.8559 0.7683 0.0
C861 C 0.76671 0.86678 0.77243 0.0
C862 C 0.7717 0.88193 0.78716 0.0
C863 C 0.78789 0.88582 0.79811 0.0
C864 C 0.79929 0.87489 0.79403 0.0
C865 C 0.79885 0.79071 0.80056 0.0
C866 C 0.75714 0.79108 0.77211 0.0
C867 C 0.77497 0.72871 0.75226 0.0
C868 C 0.78708 0.71681 0.75095 0.0
C869 C 0.80251 0.72152 0.76342 0.0
C870 C 0.8143 0.71068 0.76178 0.0
C871 C 0.81098 0.69507 0.74756 0.0
C872 C 0.79599 0.69083 0.73457 0.0
C873 C 0.78405 0.70163 0.73631 0.0
C874 C 0.78308 0.78686 0.72821 0.0
C875 C 0.82395 0.786 0.75846 0.0
O876 O 0.80271 0.83681 0.75936 0.0
O877 O 0.81028 0.84 0.78884 0.0
O878 O 0.79359 0.7843 0.78366 0.0
O879 O 0.80521 0.80892 0.80256 0.0
O880 O 0.7699 0.80673 0.77292 0.0
O881 O 0.75832 0.77375 0.76668 0.0
O882 O 0.77599 0.73942 0.76818 0.0
O883 O 0.77354 0.73748 0.73849 0.0
O884 O 0.78774 0.79268 0.7452 0.0
O885 O 0.77647 0.76866 0.72581 0.0
O886 O 0.81131 0.77034 0.7578 0.0
O887 O 0.82236 0.8033 0.76208 0.0
H888 H 0.77399 0.8443 0.75676 0.0
H889 H 0.75434 0.8639 0.76368 0.0
H890 H 0.79188 0.89763 0.80945 0.0
H891 H 0.81178 0.87802 0.8026 0.0
H892 H 0.80549 0.73355 0.77449 0.0
H893 H 0.82594 0.71434 0.77179 0.0
H894 H 0.79323 0.67882 0.7235 0.0
H895 H 0.77245 0.69812 0.72628 0.0
Sm896 Sm 0.53311 0.5314 0.51583 0.0
Sm897 Sm 0.56859 0.55069 0.5378 0.0
C898 C 0.49886 0.52137 0.50593 0.0
C899 C 0.48592 0.5322 0.5048 0.0
C900 C 0.48833 0.54956 0.51658 0.0
C901 C 0.47616 0.56001 0.5148 0.0
C902 C 0.46149 0.55315 0.50128 0.0
C903 C 0.45941 0.53609 0.48923 0.0
C904 C 0.47159 0.52574 0.49094 0.0
C905 C 0.55675 0.53082 0.48985 0.0
C906 C 0.54899 0.5777 0.51877 0.0
C907 C 0.60274 0.56086 0.54886 0.0
C908 C 0.6159 0.55023 0.54963 0.0
C909 C 0.61339 0.53293 0.53779 0.0
C910 C 0.62551 0.52242 0.53937 0.0
C911 C 0.6403 0.52902 0.55285 0.0
C912 C 0.64253 0.54617 0.5649 0.0
C913 C 0.63041 0.55666 0.5633 0.0
C914 C 0.54424 0.55206 0.56313 0.0
C915 C 0.55331 0.50415 0.53394 0.0
O916 O 0.50606 0.52092 0.52229 0.0
O917 O 0.51009 0.52399 0.49434 0.0
O918 O 0.56098 0.53794 0.50705 0.0
O919 O 0.54 0.52332 0.48676 0.0
O920 O 0.53497 0.56302 0.51572 0.0
O921 O 0.56424 0.57651 0.52624 0.0
O922 O 0.59597 0.56227 0.53263 0.0
O923 O 0.59105 0.55701 0.55981 0.0
O924 O 0.54073 0.5448 0.54603 0.0
O925 O 0.56088 0.56017 0.56654 0.0
O926 O 0.56701 0.51916 0.53764 0.0
O927 O 0.53804 0.50514 0.52629 0.0
H928 H 0.49954 0.55499 0.52716 0.0
H929 H 0.47794 0.57311 0.52427 0.0
H930 H 0.44825 0.53071 0.47858 0.0
H931 H 0.46979 0.51263 0.48146 0.0
H932 H 0.60207 0.52755 0.52733 0.0
H933 H 0.62352 0.50936 0.52976 0.0
H934 H 0.65367 0.55147 0.57557 0.0
H935 H 0.63232 0.56976 0.57282 0.0
Sm936 Sm 0.06881 0.54182 0.03475 0.0
Sm937 Sm 0.02815 0.53872 0.03783 0.0
C938 C 0.1009 0.53719 0.035 0.0
C939 C 0.11103 0.52278 0.03236 0.0
C940 C 0.11786 0.51631 0.04749 0.0
C941 C 0.12937 0.50489 0.04554 0.0
C942 C 0.1345 0.49959 0.02842 0.0
C943 C 0.1271 0.50541 0.01312 0.0
C944 C 0.11562 0.51692 0.01508 0.0
C945 C 0.04837 0.54521 0.00497 0.0
C946 C 0.03876 0.5 0.0255 0.0
C947 C 0.99661 0.54458 0.03529 0.0
C948 C 0.9876 0.55936 0.04099 0.0
C949 C 0.98903 0.57514 0.03225 0.0
C950 C 0.97876 0.58763 0.0361 0.0
C951 C 0.96671 0.58464 0.04873 0.0
C952 C 0.96595 0.56939 0.05813 0.0
C953 C 0.97622 0.55691 0.05427 0.0
C954 C 0.04769 0.53539 0.06812 0.0
C955 C 0.05847 0.58062 0.04597 0.0
O956 O 0.09323 0.53876 0.0497 0.0
O957 O 0.09188 0.54005 0.02062 0.0
O958 O 0.04396 0.53369 0.01544 0.0
O959 O 0.06458 0.55525 0.00928 0.0
O960 O 0.05524 0.50973 0.03154 0.0
O961 O 0.02577 0.50808 0.02437 0.0
O962 O 0.00698 0.54731 0.02273 0.0
O963 O 1.00244 0.5364 0.04802 0.0
O964 O 0.05286 0.54637 0.0573 0.0
O965 O 0.03096 0.52736 0.0647 0.0
O966 O 0.04193 0.57073 0.04065 0.0
O967 O 0.0715 0.57269 0.04751 0.0
H968 H 0.11475 0.52054 0.06102 0.0
H969 H 0.13452 0.50047 0.0576 0.0
H970 H 0.13077 0.50177 0.99973 0.0
H971 H 0.1108 0.52174 1.00311 0.0
H972 H 0.99764 0.57753 0.02193 0.0
H973 H 0.97966 0.59907 0.02846 0.0
H974 H 0.95707 0.5668 0.06816 0.0
H975 H 0.97481 0.54495 0.0613 0.0
H976 H 0.02731 0.20769 0.9141 0.0
H977 H 0.03223 0.182 0.9292 0.0
H978 H 0.02838 0.21347 0.9813 0.0
H979 H 0.0228 0.23883 0.96619 0.0
H980 H 0.0567 0.17896 0.95331 0.0
H981 H 0.99588 0.16455 0.98514 0.0
H982 H 0.99957 0.18014 0.96868 0.0
H983 H 0.00895 0.18855 0.99233 0.0
C984 C 0.02733 0.20911 0.92876 0.0
C985 C 0.02441 0.22538 0.93879 0.0
C986 C 0.03022 0.19435 0.93745 0.0
C987 C 0.03034 0.19535 0.95649 0.0
C988 C 0.02781 0.21181 0.96658 0.0
H989 H 0.05849 0.11993 0.0294 0.0
H990 H 0.05532 0.14793 0.01662 0.0
C991 C 0.02473 0.22648 0.95787 0.0
C992 C 0.03345 0.17941 0.96568 0.0
H993 H 0.01707 0.14919 0.99452 0.0
C994 C 0.04795 0.17251 0.96228 0.0
C995 C 0.02213 0.17067 0.97745 0.0
C996 C 1.00568 0.17621 0.98098 0.0
C997 C 0.05142 0.15746 0.97026 0.0
C998 C 0.04022 0.14895 0.9821 0.0
C999 C 0.02581 0.15583 0.98564 0.0
C1000 C 0.04262 0.13212 0.98997 0.0
C1001 C 0.06702 0.15059 0.96591 0.0
C1002 C 0.03653 0.11387 0.97936 0.0
C1003 C 0.03797 0.09789 0.98676 0.0
C1004 C 0.04584 0.0997 0.00489 0.0
C1005 C 0.05238 0.11803 0.01541 0.0
C1006 C 0.05055 0.13404 0.00811 0.0
H1007 H 0.0757 0.16006 0.95834 0.0
H1008 H 0.07472 0.14953 0.97872 0.0
H1009 H 0.06242 0.13621 0.95743 0.0
H1010 H 0.03046 0.11195 0.96534 0.0
H1011 H 0.03302 0.08404 0.97819 0.0
H1012 H 0.11137 0.79362 0.16893 0.0
H1013 H 0.13846 0.78959 0.18394 0.0
H1014 H 0.16865 0.83337 0.15873 0.0
H1015 H 0.14147 0.83715 0.14316 0.0
H1016 H 0.17026 0.78275 0.16361 0.0
H1017 H 0.18372 0.84602 0.21868 0.0
H1018 H 0.16188 0.83382 0.20733 0.0
H1019 H 0.177 0.84841 0.19556 0.0
C1020 C 0.12375 0.80261 0.16673 0.0
C1021 C 0.12418 0.81594 0.15501 0.0
C1022 C 0.13926 0.80014 0.17521 0.0
C1023 C 0.15563 0.81117 0.17251 0.0
C1024 C 0.15618 0.82468 0.16102 0.0
H1025 H 0.26205 0.81788 0.22329 0.0
H1026 H 0.23746 0.82103 0.20246 0.0
C1027 C 0.14063 0.82689 0.1522 0.0
C1028 C 0.17207 0.80864 0.18192 0.0
H1029 H 0.20422 0.82816 0.21847 0.0
C1030 C 0.17774 0.79273 0.17554 0.0
C1031 C 0.18179 0.82155 0.19756 0.0
C1032 C 0.17586 0.83841 0.20537 0.0
C1033 C 0.19287 0.78949 0.18437 0.0
C1034 C 0.20256 0.8024 0.20006 0.0
C1035 C 0.19694 0.81836 0.20633 0.0
C1036 C 0.2179 0.799 0.21086 0.0
C1037 C 0.19846 0.77228 0.17695 0.0
C1038 C 0.2152 0.78539 0.2223 0.0
C1039 C 0.22915 0.7838 0.23433 0.0
C1040 C 0.24621 0.79543 0.23491 0.0
C1041 C 0.24913 0.80839 0.2228 0.0
C1042 C 0.23505 0.81031 0.21103 0.0
H1043 H 0.19136 0.76533 0.16312 0.0
H1044 H 0.21274 0.77621 0.17624 0.0
H1045 H 0.19581 0.76189 0.18633 0.0
H1046 H 0.20213 0.77659 0.22254 0.0
H1047 H 0.22648 0.7739 0.24371 0.0
H1048 H 0.54138 0.82047 0.4671 0.0
H1049 H 0.54625 0.85286 0.48405 0.0
H1050 H 0.51576 0.86599 0.4395 0.0
H1051 H 0.51061 0.83407 0.42273 0.0
H1052 H 0.56085 0.89 0.47096 0.0
H1053 H 0.49235 0.87815 0.48581 0.0
H1054 H 0.50183 0.85889 0.47954 0.0
H1055 H 0.49469 0.87091 0.46234 0.0
C1056 C 0.53556 0.83021 0.46102 0.0
C1057 C 0.5254 0.82451 0.44363 0.0
C1058 C 0.53848 0.84872 0.47065 0.0
C1059 C 0.53121 0.8617 0.46305 0.0
C1060 C 0.52129 0.85611 0.44568 0.0
H1061 H 0.51916 0.9738 0.49136 0.0
H1062 H 0.51761 0.9412 0.47801 0.0
C1063 C 0.51835 0.83777 0.43614 0.0
C1064 C 0.53339 0.88103 0.4732 0.0
H1065 H 0.50994 0.90989 0.4914 0.0
C1066 C 0.54982 0.89436 0.47569 0.0
C1067 C 0.51889 0.88669 0.47901 0.0
C1068 C 0.50095 0.8729 0.47669 0.0
C1069 C 0.552 0.91343 0.4834 0.0
C1070 C 0.53743 0.91907 0.48925 0.0
C1071 C 0.5211 0.90559 0.48696 0.0
C1072 C 0.53859 0.93891 0.49744 0.0
C1073 C 0.56967 0.92743 0.48442 0.0
C1074 C 0.55065 0.94837 0.51301 0.0
C1075 C 0.5517 0.96708 0.5205 0.0
C1076 C 0.54035 0.97647 0.51287 0.0
C1077 C 0.52787 0.96679 0.49771 0.0
C1078 C 0.52707 0.94822 0.48999 0.0
H1079 H 0.57769 0.92213 0.4746 0.0
H1080 H 0.56832 0.94128 0.48155 0.0
H1081 H 0.57691 0.92973 0.49839 0.0
H1082 H 0.55929 0.94132 0.51937 0.0
H1083 H 0.56143 0.97425 0.53222 0.0
H1084 H 0.53395 0.26614 0.67021 0.0
H1085 H 0.50458 0.25931 0.67907 0.0
H1086 H 0.49367 0.30318 0.65185 0.0
H1087 H 0.52318 0.31015 0.64288 0.0
H1088 H 0.4917 0.28607 0.70077 0.0
H1089 H 0.44952 0.2571 0.63379 0.0
H1090 H 0.47246 0.25799 0.63711 0.0
H1091 H 0.466 0.27909 0.63497 0.0
C1092 C 0.52535 0.27439 0.66609 0.0
C1093 C 0.53107 0.28889 0.65602 0.0
C1094 C 0.50849 0.27037 0.67108 0.0
C1095 C 0.4968 0.28055 0.66596 0.0
C1096 C 0.50234 0.29491 0.65572 0.0
H1097 H 0.39548 0.28779 0.69463 0.0
H1098 H 0.42131 0.28809 0.6794 0.0
C1099 C 0.51931 0.29905 0.6508 0.0
C1100 C 0.47948 0.27721 0.6728 0.0
H1101 H 0.43515 0.26287 0.65962 0.0
C1102 C 0.47934 0.28089 0.69177 0.0
C1103 C 0.46334 0.27053 0.66105 0.0
C1104 C 0.46271 0.26578 0.64059 0.0
C1105 C 0.46362 0.27856 0.69933 0.0
C1106 C 0.4474 0.27175 0.68766 0.0
C1107 C 0.44751 0.26797 0.66862 0.0
C1108 C 0.43036 0.26931 0.6951 0.0
C1109 C 0.46463 0.28409 0.71979 0.0
C1110 C 0.42626 0.25795 0.70845 0.0
C1111 C 0.41169 0.25809 0.71753 0.0
C1112 C 0.40061 0.26934 0.71327 0.0
C1113 C 0.40396 0.27944 0.69878 0.0
C1114 C 0.41867 0.27946 0.68986 0.0
H1115 H 0.47759 0.29381 0.72601 0.0
H1116 H 0.45437 0.29112 0.7233 0.0
H1117 H 0.46269 0.2712 0.72608 0.0
H1118 H 0.43475 0.24951 0.71238 0.0
H1119 H 0.40966 0.25007 0.72851 0.0
H1120 H 0.0381 0.81249 0.63448 0.0
H1121 H 0.05168 0.84214 0.62451 0.0
H1122 H 1.00183 0.8406 0.59531 0.0
H1123 H 0.9881 0.81107 0.60586 0.0
H1124 H 0.05387 0.84715 0.58938 0.0
H1125 H 0.01857 0.89457 0.6236 0.0
H1126 H 0.01845 0.87199 0.62993 0.0
H1127 H 1.00399 0.87321 0.61039 0.0
C1128 C 0.03005 0.81874 0.62616 0.0
C1129 C 0.01214 0.8099 0.62098 0.0
C1130 C 0.03779 0.83555 0.62049 0.0
C1131 C 0.02769 0.84363 0.60945 0.0
C1132 C 0.0097 0.83477 0.60425 0.0
H1133 H 0.03007 0.91497 0.53652 0.0
H1134 H 0.02778 0.89086 0.55583 0.0
C1135 C 1.00189 0.81799 0.61016 0.0
C1136 C 0.03621 0.86071 0.60246 0.0
H1137 H 0.03269 0.9046 0.59817 0.0
C1138 C 0.04954 0.8599 0.5916 0.0
C1139 C 0.03072 0.87737 0.60572 0.0
C1140 C 0.01728 0.87944 0.61821 0.0
C1141 C 0.05653 0.87486 0.58266 0.0
C1142 C 0.04996 0.89081 0.58476 0.0
C1143 C 0.03761 0.89221 0.59667 0.0
C1144 C 0.05297 0.90435 0.5722 0.0
C1145 C 0.06996 0.8731 0.57008 0.0
C1146 C 0.06813 0.91956 0.57492 0.0
C1147 C 0.0695 0.93332 0.56377 0.0
C1148 C 0.05561 0.93191 0.55012 0.0
C1149 C 0.04081 0.91631 0.54712 0.0
C1150 C 0.03952 0.9026 0.55805 0.0
H1151 H 0.07432 0.86011 0.57062 0.0
H1152 H 0.06436 0.87277 0.55579 0.0
H1153 H 0.08153 0.88564 0.57386 0.0
H1154 H 0.07854 0.92103 0.58591 0.0
H1155 H 0.08101 0.94534 0.56621 0.0
H1156 H 0.53188 0.79617 0.86669 0.0
H1157 H 0.50174 0.78933 0.85136 0.0
H1158 H 0.51695 0.83803 0.82531 0.0
H1159 H 0.54691 0.84494 0.84037 0.0
H1160 H 0.47866 0.81737 0.85032 0.0
H1161 H 0.4962 0.78853 0.78372 0.0
H1162 H 0.50866 0.78921 0.80547 0.0
H1163 H 0.5109 0.81042 0.79598 0.0
C1164 C 0.52873 0.80545 0.85778 0.0
C1165 C 0.54174 0.82088 0.85443 0.0
C1166 C 0.51159 0.80154 0.8491 0.0
C1167 C 0.50741 0.81304 0.83708 0.0
C1168 C 0.52016 0.82889 0.83437 0.0
H1169 H 0.42621 0.8347 0.77209 0.0
H1170 H 0.45378 0.82999 0.78504 0.0
C1171 C 0.53722 0.83276 0.84294 0.0
C1172 C 0.4899 0.80835 0.82667 0.0
H1173 H 0.46876 0.79576 0.78294 0.0
C1174 C 0.47629 0.81226 0.83566 0.0
C1175 C 0.48713 0.80182 0.80758 0.0
C1176 C 0.50144 0.79709 0.79757 0.0
C1177 C 0.46003 0.81065 0.82578 0.0
C1178 C 0.45746 0.80474 0.80657 0.0
C1179 C 0.47088 0.80018 0.79769 0.0
C1180 C 0.44137 0.80491 0.79547 0.0
C1181 C 0.446 0.81622 0.83573 0.0
C1182 C 0.42554 0.79173 0.79631 0.0
C1183 C 0.40986 0.79434 0.78891 0.0
C1184 C 0.4099 0.8102 0.78066 0.0
C1185 C 0.42587 0.82238 0.77838 0.0
C1186 C 0.44157 0.81975 0.78579 0.0
H1187 H 0.45086 0.82265 0.85031 0.0
H1188 H 0.4409 0.82647 0.82896 0.0
H1189 H 0.43491 0.80349 0.8352 0.0
H1190 H 0.42529 0.7801 0.8036 0.0
H1191 H 0.39765 0.78457 0.7905 0.0
H1192 H 0.47067 0.1848 0.11209 0.0
H1193 H 0.48048 0.15857 0.09621 0.0
H1194 H 0.53392 0.18769 0.11949 0.0
H1195 H 0.52415 0.2132 0.13574 0.0
H1196 H 0.50437 0.16233 0.07112 0.0
H1197 H 0.52953 0.13529 0.13092 0.0
H1198 H 0.51545 0.15081 0.13285 0.0
H1199 H 0.53831 0.16017 0.13144 0.0
C1200 C 0.4844 0.18526 0.11392 0.0
C1201 C 0.49669 0.20055 0.12522 0.0
C1202 C 0.48999 0.17045 0.10495 0.0
C1203 C 0.50785 0.17114 0.10714 0.0
C1204 C 0.52006 0.18666 0.11819 0.0
H1205 H 0.55962 0.09171 0.05308 0.0
H1206 H 0.55548 0.11956 0.07255 0.0
C1207 C 0.51448 0.20118 0.12733 0.0
C1208 C 0.51396 0.15628 0.09691 0.0
H1209 H 0.53469 0.12215 0.10175 0.0
C1210 C 0.51096 0.1535 0.07779 0.0
C1211 C 0.52303 0.14531 0.1058 0.0
C1212 C 0.52669 0.14791 0.12639 0.0
C1213 C 0.51632 0.13951 0.06719 0.0
C1214 C 0.52449 0.12783 0.07606 0.0
C1215 C 0.52829 0.13117 0.09515 0.0
C1216 C 0.52727 0.11081 0.06573 0.0
C1217 C 0.513 0.13715 0.0466 0.0
C1218 C 0.5127 0.09665 0.05623 0.0
C1219 C 0.51501 0.08108 0.0451 0.0
C1220 C 0.53189 0.07936 0.04367 0.0
C1221 C 0.54648 0.09294 0.05405 0.0
C1222 C 0.54416 0.10874 0.06505 0.0
H1223 H 0.51192 0.15051 0.04219 0.0
H1224 H 0.52358 0.1326 0.04017 0.0
H1225 H 0.50046 0.12617 0.04143 0.0
H1226 H 0.49956 0.0979 0.05709 0.0
H1227 H 0.50361 0.07052 0.03741 0.0
H1228 H 0.12272 0.2875 0.33931 0.0
H1229 H 0.14649 0.28266 0.32286 0.0
H1230 H 0.17733 0.33964 0.34591 0.0
H1231 H 0.15358 0.34439 0.36314 0.0
H1232 H 0.15991 0.30134 0.29716 0.0
H1233 H 0.21153 0.30908 0.35558 0.0
H1234 H 0.18894 0.30676 0.35854 0.0
H1235 H 0.20277 0.32905 0.35551 0.0
C1236 C 0.13457 0.29902 0.34095 0.0
C1237 C 0.13635 0.31635 0.35243 0.0
C1238 C 0.14814 0.2962 0.33157 0.0
C1239 C 0.16367 0.31072 0.3333 0.0
C1240 C 0.16554 0.32814 0.34471 0.0
H1241 H 0.24999 0.31835 0.27226 0.0
H1242 H 0.22633 0.32397 0.28854 0.0
C1243 C 0.15198 0.33088 0.35442 0.0
C1244 C 0.17745 0.30751 0.32248 0.0
H1245 H 0.21959 0.30483 0.32576 0.0
C1246 C 0.17295 0.30208 0.30342 0.0
C1247 C 0.19439 0.30842 0.33077 0.0
C1248 C 0.1997 0.31348 0.35123 0.0
C1249 C 0.18497 0.29745 0.29239 0.0
C1250 C 0.20182 0.29843 0.30067 0.0
C1251 C 0.20648 0.30404 0.31964 0.0
C1252 C 0.21511 0.29449 0.28968 0.0
C1253 C 0.17973 0.29156 0.27198 0.0
C1254 C 0.21618 0.27593 0.28468 0.0
C1255 C 0.22974 0.27258 0.27536 0.0
C1256 C 0.24228 0.28781 0.27101 0.0
C1257 C 0.24058 0.30628 0.2754 0.0
C1258 C 0.22713 0.30959 0.28476 0.0
H1259 H 0.16621 0.29214 0.26758 0.0
H1260 H 0.18895 0.30091 0.26479 0.0
H1261 H 0.18055 0.27689 0.26769 0.0
H1262 H 0.20683 0.26418 0.28842 0.0
H1263 H 0.23075 0.25822 0.27217 0.0
H1264 H 0.98014 0.04765 0.21831 0.0
H1265 H 0.99497 0.04745 0.19092 0.0
H1266 H 0.95718 0.07085 0.16484 0.0
H1267 H 0.94242 0.07123 0.19226 0.0
H1268 H 0.98864 0.03036 0.1567 0.0
H1269 H 0.99871 0.10536 0.15127 0.0
H1270 H 0.99122 0.09625 0.17106 0.0
H1271 H 0.97596 0.0939 0.15087 0.0
C1272 C 0.97494 0.05298 0.20688 0.0
C1273 C 0.95982 0.05961 0.20816 0.0
C1274 C 0.98356 0.05277 0.19089 0.0
C1275 C 0.9778 0.05943 0.17517 0.0
C1276 C 0.96266 0.06603 0.17644 0.0
H1277 H 1.00583 0.06045 0.06078 0.0
H1278 H 0.99201 0.06118 0.08898 0.0
C1279 C 0.95396 0.06612 0.1924 0.0
C1280 C 0.98722 0.05901 0.15764 0.0
H1281 H 1.00303 0.08534 0.125 0.0
C1282 C 0.9918 0.04255 0.15 0.0
C1283 C 0.99193 0.07468 0.14825 0.0
C1284 C 0.9894 0.09361 0.15587 0.0
C1285 C 1.00002 0.04118 0.13368 0.0
C1286 C 1.00423 0.05666 0.12404 0.0
C1287 C 0.99985 0.07317 0.13175 0.0
C1288 C 0.013 0.05594 0.10615 0.0
C1289 C 1.00374 0.02276 0.12653 0.0
C1290 C 0.02979 0.05286 0.10548 0.0
C1291 C 0.03784 0.05252 0.08909 0.0
C1292 C 0.02949 0.05497 0.07232 0.0
C1293 C 0.01276 0.0581 0.073 0.0
C1294 C 1.0048 0.05866 0.08943 0.0
H1295 H 0.99674 0.01101 0.13303 0.0
H1296 H 0.99991 0.01884 0.11147 0.0
H1297 H 0.01799 0.0244 0.12946 0.0
H1298 H 0.03697 0.05106 0.11783 0.0
H1299 H 0.0508 0.05045 0.08962 0.0
H1300 H 0.30642 0.68515 0.45762 0.0
H1301 H 0.293 0.69117 0.4287 0.0
H1302 H 0.24202 0.67522 0.44612 0.0
H1303 H 0.2553 0.66993 0.47495 0.0
H1304 H 0.26377 0.66999 0.40005 0.0
H1305 H 0.25152 0.73206 0.44321 0.0
H1306 H 0.26582 0.71906 0.45171 0.0
H1307 H 0.24251 0.70937 0.44929 0.0
C1308 C 0.29238 0.68283 0.45506 0.0
C1309 C 0.2819 0.67784 0.46852 0.0
C1310 C 0.28473 0.68607 0.43862 0.0
C1311 C 0.26661 0.68393 0.43562 0.0
C1312 C 0.25604 0.67724 0.44843 0.0
H1313 H 0.22826 0.73903 0.34854 0.0
H1314 H 0.22384 0.71591 0.36961 0.0
C1315 C 0.26366 0.67442 0.46487 0.0
C1316 C 0.25911 0.69119 0.42045 0.0
H1317 H 0.24487 0.72885 0.41152 0.0
C1318 C 0.25925 0.6826 0.40248 0.0
C1319 C 0.25315 0.70759 0.42385 0.0
C1320 C 0.25331 0.71769 0.44303 0.0
C1321 C 0.25462 0.6908 0.38772 0.0
C1322 C 0.24981 0.70783 0.39122 0.0
C1323 C 0.24828 0.71556 0.40905 0.0
C1324 C 0.25154 0.72048 0.37785 0.0
C1325 C 0.25624 0.68217 0.36859 0.0
C1326 C 0.26848 0.73063 0.37607 0.0
C1327 C 0.27096 0.74361 0.36439 0.0
C1328 C 0.25654 0.74666 0.35436 0.0
C1329 C 0.23948 0.73671 0.35624 0.0
C1330 C 0.23697 0.72356 0.36806 0.0
H1331 H 0.25615 0.66708 0.36757 0.0
H1332 H 0.24542 0.68328 0.35866 0.0
H1333 H 0.26877 0.69006 0.36469 0.0
H1334 H 0.27979 0.72864 0.38393 0.0
H1335 H 0.28419 0.75144 0.36329 0.0
H1336 H 0.62404 0.01856 0.70706 0.0
H1337 H 0.60802 0.02293 0.6792 0.0
H1338 H 0.65232 0.06788 0.67274 0.0
H1339 H 0.66863 0.06336 0.70021 0.0
H1340 H 0.60055 0.0577 0.67272 0.0
H1341 H 0.64094 0.03082 0.62366 0.0
H1342 H 0.64187 0.02664 0.64691 0.0
H1343 H 0.65227 0.0496 0.64224 0.0
C1344 C 0.63048 0.02909 0.69948 0.0
C1345 C 0.6476 0.04046 0.70561 0.0
C1346 C 0.62128 0.0317 0.68378 0.0
C1347 C 0.62912 0.04569 0.67415 0.0
C1348 C 0.64625 0.0569 0.68003 0.0
H1349 H 0.58357 0.06053 0.56933 0.0
H1350 H 0.60287 0.06629 0.59805 0.0
C1351 C 0.65554 0.05416 0.6956 0.0
C1352 C 0.61934 0.04814 0.65763 0.0
H1353 H 0.61643 0.03907 0.61131 0.0
C1354 C 0.60404 0.05383 0.65926 0.0
C1355 C 0.62428 0.04333 0.64029 0.0
C1356 C 0.64067 0.03715 0.63805 0.0
C1357 C 0.59297 0.05398 0.64369 0.0
C1358 C 0.59737 0.048 0.62638 0.0
C1359 C 0.61317 0.04342 0.62477 0.0
C1360 C 0.58529 0.04522 0.6097 0.0
C1361 C 0.57658 0.06018 0.64582 0.0
C1362 C 0.56926 0.0312 0.60688 0.0
C1363 C 0.55818 0.02782 0.59047 0.0
C1364 C 0.56322 0.03839 0.57686 0.0
C1365 C 0.57941 0.05222 0.57969 0.0
C1366 C 0.59039 0.05561 0.59604 0.0
H1367 H 0.57759 0.06916 0.6594 0.0
H1368 H 0.57384 0.06818 0.63495 0.0
H1369 H 0.5653 0.04749 0.64463 0.0
H1370 H 0.56547 0.02276 0.61726 0.0
H1371 H 0.54578 0.01704 0.58844 0.0
H1372 H 0.32808 0.3412 0.97824 0.0
H1373 H 0.32601 0.32899 0.94572 0.0
H1374 H 0.28041 0.34875 0.93484 0.0
H1375 H 0.28287 0.36179 0.96748 0.0
H1376 H 0.30226 0.30309 0.92197 0.0
H1377 H 0.30959 0.37226 0.89929 0.0
H1378 H 0.31291 0.3704 0.92312 0.0
H1379 H 0.29111 0.36564 0.91122 0.0
C1380 C 0.31753 0.3429 0.96898 0.0
C1381 C 0.30568 0.35257 0.97549 0.0
C1382 C 0.31637 0.3359 0.95033 0.0
C1383 C 0.30328 0.33825 0.93767 0.0
C1384 C 0.29096 0.34723 0.9442 0.0
H1385 H 0.27587 0.30018 0.82072 0.0
H1386 H 0.27636 0.31015 0.85337 0.0
C1387 C 0.29226 0.35451 0.96291 0.0
C1388 C 0.30277 0.33131 0.91775 0.0
H1389 H 0.30359 0.34517 0.876 0.0
C1390 C 0.30263 0.31235 0.91197 0.0
C1391 C 0.3033 0.34336 0.9046 0.0
C1392 C 0.3044 0.36408 0.90986 0.0
C1393 C 0.30291 0.30515 0.8935 0.0
C1394 C 0.30335 0.31717 0.88046 0.0
C1395 C 0.30333 0.33603 0.88611 0.0
C1396 C 0.30321 0.31029 0.86072 0.0
C1397 C 0.30247 0.28466 0.88793 0.0
C1398 C 0.31821 0.30698 0.85399 0.0
C1399 C 0.31808 0.30134 0.83515 0.0
C1400 C 0.3029 0.29889 0.82276 0.0
C1401 C 0.28785 0.30196 0.82973 0.0
C1402 C 0.28806 0.30768 0.84845 0.0
H1403 H 0.30029 0.27666 0.89936 0.0
H1404 H 0.29194 0.27776 0.87628 0.0
H1405 H 0.31508 0.2838 0.88326 0.0
H1406 H 0.33009 0.30904 0.86329 0.0
H1407 H 0.32987 0.29909 0.83031 0.0
H1408 H 0.96962 0.08057 0.32589 0.0
H1409 H 0.9829 0.08126 0.35725 0.0
H1410 H 0.98871 0.02539 0.34067 0.0
H1411 H 0.9763 0.02506 0.30939 0.0
H1412 H 0.97523 0.06275 0.38383 0.0
H1413 H 0.03647 0.04822 0.36608 0.0
H1414 H 0.02135 0.05355 0.34954 0.0
H1415 H 0.018 0.02977 0.3541 0.0
C1416 C 0.97395 0.06852 0.32884 0.0
C1417 C 0.97204 0.05288 0.31472 0.0
C1418 C 0.98154 0.06888 0.34696 0.0
C1419 C 0.98746 0.05358 0.35173 0.0
C1420 C 0.9851 0.03781 0.33766 0.0
H1421 H 0.0279 0.01846 0.45124 0.0
H1422 H 0.01582 0.02132 0.42067 0.0
C1423 C 0.97779 0.03757 0.31957 0.0
C1424 C 0.99563 0.05379 0.37125 0.0
H1425 H 0.02973 0.04366 0.39594 0.0
C1426 C 0.98725 0.05874 0.38636 0.0
C1427 C 0.01149 0.04877 0.37517 0.0
C1428 C 0.02244 0.045 0.36039 0.0
C1429 C 0.99376 0.0581 0.40466 0.0
C1430 C 0.00926 0.05243 0.40841 0.0
C1431 C 0.01778 0.0478 0.39338 0.0
C1432 C 0.01672 0.0509 0.4276 0.0
C1433 C 0.98358 0.06298 0.41982 0.0
C1434 C 0.02167 0.06654 0.44216 0.0
C1435 C 0.02871 0.06494 0.45985 0.0
C1436 C 0.03115 0.04763 0.46373 0.0
C1437 C 0.02633 0.03206 0.44908 0.0
C1438 C 0.01935 0.03369 0.43141 0.0
H1439 H 0.97002 0.06263 0.41447 0.0
H1440 H 0.983 0.05305 0.42967 0.0
H1441 H 0.99022 0.07749 0.42737 0.0
H1442 H 0.02032 0.08016 0.43983 0.0
H1443 H 0.03231 0.07738 0.47051 0.0
H1444 H 0.27611 0.69528 0.55425 0.0
H1445 H 0.26933 0.71256 0.58192 0.0
H1446 H 0.30169 0.68824 0.6152 0.0
H1447 H 0.30816 0.67039 0.58742 0.0
H1448 H 0.26168 0.69367 0.62375 0.0
H1449 H 0.31652 0.75452 0.61523 0.0
H1450 H 0.30247 0.73898 0.59564 0.0
H1451 H 0.31787 0.7306 0.60881 0.0
C1452 C 0.28186 0.69375 0.5675 0.0
C1453 C 0.2931 0.6821 0.56892 0.0
C1454 C 0.2777 0.70328 0.58318 0.0
C1455 C 0.28495 0.70145 0.60037 0.0
C1456 C 0.29584 0.68949 0.60189 0.0
H1457 H 0.32 0.7585 0.70403 0.0
H1458 H 0.3102 0.73772 0.67442 0.0
C1459 C 0.29975 0.67962 0.58616 0.0
C1460 C 0.28331 0.71414 0.61662 0.0
H1461 H 0.30441 0.75698 0.6426 0.0
C1462 C 0.27077 0.70765 0.62785 0.0
C1463 C 0.2951 0.73235 0.62152 0.0
C1464 C 0.30878 0.73968 0.60973 0.0
C1465 C 0.27049 0.71874 0.64469 0.0
C1466 C 0.28308 0.73643 0.65008 0.0
C1467 C 0.29478 0.74335 0.63824 0.0
C1468 C 0.2867 0.74658 0.669 0.0
C1469 C 0.25757 0.71118 0.6571 0.0
C1470 C 0.27642 0.75804 0.67573 0.0
C1471 C 0.28198 0.76992 0.69277 0.0
C1472 C 0.29795 0.77054 0.70286 0.0
C1473 C 0.3078 0.75851 0.69631 0.0
C1474 C 0.30215 0.74653 0.67954 0.0
H1475 H 0.24843 0.69723 0.65071 0.0
H1476 H 0.2647 0.7097 0.67008 0.0
H1477 H 0.24985 0.72137 0.6606 0.0
H1478 H 0.26454 0.75829 0.66758 0.0
H1479 H 0.27414 0.77902 0.69777 0.0
H1480 H 0.6412 0.08085 0.79691 0.0
H1481 H 0.63961 0.09709 0.82727 0.0
H1482 H 0.64529 0.04846 0.85005 0.0
H1483 H 0.64773 0.03237 0.81947 0.0
H1484 H 0.61193 0.08077 0.84345 0.0
H1485 H 0.67378 0.09306 0.88986 0.0
H1486 H 0.67277 0.09016 0.86523 0.0
H1487 H 0.66653 0.06981 0.87607 0.0
C1488 C 0.64209 0.07363 0.80843 0.0
C1489 C 0.64375 0.0551 0.80599 0.0
C1490 C 0.64156 0.08307 0.82574 0.0
C1491 C 0.64244 0.07402 0.84081 0.0
C1492 C 0.64496 0.0558 0.83856 0.0
H1493 H 0.59372 0.04795 0.92344 0.0
H1494 H 0.61235 0.05615 0.90029 0.0
C1495 C 0.64593 0.04646 0.82116 0.0
C1496 C 0.63703 0.08188 0.85779 0.0
H1497 H 0.64741 0.09054 0.9041 0.0
C1498 C 0.61991 0.08366 0.8567 0.0
C1499 C 0.64751 0.08557 0.87493 0.0
C1500 C 0.66624 0.08474 0.87663 0.0
C1501 C 0.61238 0.08724 0.87248 0.0
C1502 C 0.62236 0.08926 0.88965 0.0
C1503 C 0.63997 0.08919 0.8908 0.0
C1504 C 0.61342 0.08588 0.90553 0.0
C1505 C 0.59322 0.08654 0.87066 0.0
C1506 C 0.60805 0.10007 0.91606 0.0
C1507 C 0.59728 0.09538 0.92937 0.0
C1508 C 0.59206 0.07655 0.93214 0.0
C1509 C 0.59797 0.06264 0.92186 0.0
C1510 C 0.60856 0.06727 0.90866 0.0
H1511 H 0.58803 0.08744 0.85655 0.0
H1512 H 0.58563 0.07301 0.87406 0.0
H1513 H 0.59106 0.09829 0.88037 0.0
H1514 H 0.61165 0.11446 0.91353 0.0
H1515 H 0.59273 0.10624 0.93716 0.0
H1516 H 0.31429 0.3912 0.0993 0.0
H1517 H 0.31063 0.37527 0.12565 0.0
H1518 H 0.28618 0.32211 0.08938 0.0
H1519 H 0.29099 0.3379 0.06293 0.0
H1520 H 0.28503 0.35892 0.13971 0.0
H1521 H 0.31795 0.30337 0.11989 0.0
H1522 H 0.31848 0.32236 0.1073 0.0
H1523 H 0.29976 0.30185 0.10321 0.0
C1524 C 0.30826 0.37607 0.09692 0.0
C1525 C 0.3031 0.36583 0.07895 0.0
C1526 C 0.30613 0.36691 0.11206 0.0
C1527 C 0.29845 0.34725 0.10977 0.0
C1528 C 0.29278 0.33709 0.09176 0.0
H1529 H 0.26192 0.27717 0.191 0.0
H1530 H 0.26558 0.29145 0.16347 0.0
C1531 C 0.29537 0.34619 0.07656 0.0
C1532 C 0.29604 0.33778 0.12629 0.0
H1533 H 0.30224 0.30023 0.14539 0.0
C1534 C 0.28895 0.34616 0.14087 0.0
C1535 C 0.3011 0.32105 0.12815 0.0
C1536 C 0.30991 0.31175 0.11389 0.0
C1537 C 0.28677 0.3384 0.15694 0.0
C1538 C 0.29156 0.32162 0.15859 0.0
C1539 C 0.29849 0.31306 0.14408 0.0
C1540 C 0.2895 0.31286 0.17537 0.0
C1541 C 0.27935 0.34815 0.17217 0.0
C1542 C 0.30179 0.32004 0.19126 0.0
C1543 C 0.29986 0.31173 0.20699 0.0
C1544 C 0.28541 0.29627 0.20729 0.0
C1545 C 0.27308 0.2892 0.19137 0.0
C1546 C 0.27519 0.2973 0.17556 0.0
H1547 H 0.27464 0.36002 0.16817 0.0
H1548 H 0.26833 0.33786 0.17637 0.0
H1549 H 0.2896 0.35384 0.18426 0.0
H1550 H 0.31296 0.33202 0.19145 0.0
H1551 H 0.30972 0.31738 0.21888 0.0
H1552 H 0.26756 0.98211 0.99932 0.0
H1553 H 0.2436 0.99434 0.00982 0.0
H1554 H 0.22258 0.94259 0.02963 0.0
H1555 H 0.24617 0.93012 0.01862 0.0
H1556 H 0.20331 0.96767 0.99824 0.0
H1557 H 0.22886 0.99441 0.0722 0.0
H1558 H 0.24353 0.99373 0.05522 0.0
H1559 H 0.23121 0.97211 0.06098 0.0
C1560 C 0.25768 0.97336 0.00574 0.0
C1561 C 0.25823 0.95508 0.00779 0.0
C1562 C 0.24419 0.98037 0.01188 0.0
C1563 C 0.23153 0.96936 0.02059 0.0
C1564 C 0.23231 0.95122 0.02295 0.0
H1565 H 0.14117 1.00283 0.05993 0.0
H1566 H 0.16377 0.98584 0.05603 0.0
C1567 C 0.24556 0.94407 0.01647 0.0
C1568 C 0.21668 0.97627 0.02579 0.0
H1569 H 0.20222 1.00003 0.06113 0.0
C1570 C 0.20296 0.97462 0.012 0.0
C1571 C 0.21626 0.98494 0.04384 0.0
C1572 C 0.23072 0.9865 0.05902 0.0
C1573 C 0.18899 0.98207 0.01563 0.0
C1574 C 0.18901 0.99184 0.03341 0.0
C1575 C 0.20235 0.99269 0.04747 0.0
C1576 C 0.17608 1.00258 0.03699 0.0
C1577 C 0.17441 0.97967 1.0003 0.0
C1578 C 0.1758 0.01772 0.02784 0.0
C1579 C 0.16291 0.02715 0.02985 0.0
C1580 C 0.15027 0.02185 0.04133 0.0
C1581 C 0.15087 0.00714 0.05105 0.0
C1582 C 0.16372 0.9975 0.04886 0.0
H1583 H 0.17374 0.96752 0.98935 0.0
H1584 H 0.16156 0.97746 0.00545 0.0
H1585 H 0.17681 0.99264 0.99411 0.0
H1586 H 0.18543 0.02204 0.01888 0.0
H1587 H 0.16275 0.03857 0.02238 0.0
H1588 H 0.74353 0.62903 0.98609 0.0
H1589 H 0.71415 0.61005 0.98915 0.0
H1590 H 0.70667 0.65772 0.02494 0.0
H1591 H 0.73528 0.67698 0.02057 0.0
H1592 H 0.70039 0.59777 0.01573 0.0
H1593 H 0.66126 0.64497 0.99523 0.0
H1594 H 0.68407 0.64936 0.99261 0.0
H1595 H 0.67757 0.6562 0.01454 0.0
C1596 C 0.73541 0.63551 0.99427 0.0
C1597 C 0.74155 0.65461 1.00272 0.0
C1598 C 0.7186 0.62464 0.99613 0.0
C1599 C 0.70768 0.63243 0.0069 0.0
C1600 C 0.71419 0.65141 0.01583 0.0
H1601 H 0.6019 0.57946 0.03372 0.0
H1602 H 0.63069 0.60165 0.03327 0.0
C1603 C 0.73071 0.66243 0.01345 0.0
C1604 C 0.68995 0.62043 0.00934 0.0
H1605 H 0.64638 0.61858 0.00741 0.0
C1606 C 0.68862 0.60237 0.01375 0.0
C1607 C 0.67438 0.62634 0.00723 0.0
C1608 C 0.67434 0.6452 1.00199 0.0
C1609 C 0.67247 0.59015 0.01585 0.0
C1610 C 0.65687 0.59582 0.01319 0.0
C1611 C 0.65821 0.61408 0.00937 0.0
C1612 C 0.63907 0.58265 0.0134 0.0
C1613 C 0.67245 0.57133 0.02122 0.0
C1614 C 0.6338 0.56472 1.00209 0.0
C1615 C 0.61755 0.55201 1.00255 0.0
C1616 C 0.60579 0.55696 0.01397 0.0
C1617 C 0.61065 0.57518 0.02479 0.0
C1618 C 0.62714 0.58787 0.02453 0.0
H1619 H 0.68528 0.57188 0.02882 0.0
H1620 H 0.66209 0.5668 0.02985 0.0
H1621 H 0.67007 0.56044 0.00866 0.0
H1622 H 0.6423 0.56046 0.99283 0.0
H1623 H 0.61417 0.53822 0.99384 0.0
H1624 H 0.71779 0.46365 0.23663 0.0
H1625 H 0.73049 0.43669 0.2353 0.0
H1626 H 0.70661 0.4213 0.2822 0.0
H1627 H 0.6937 0.44802 0.28333 0.0
H1628 H 0.75364 0.42612 0.25494 0.0
H1629 H 0.69368 0.36923 0.25464 0.0
H1630 H 0.69295 0.39277 0.25198 0.0
H1631 H 0.69768 0.38745 0.27441 0.0
C1632 C 0.71508 0.45456 0.2467 0.0
C1633 C 0.70443 0.45863 0.26012 0.0
C1634 C 0.7225 0.43884 0.24594 0.0
C1635 C 0.71965 0.42595 0.25841 0.0
C1636 C 0.70902 0.43008 0.27186 0.0
H1637 H 0.75433 0.32163 0.27583 0.0
H1638 H 0.74041 0.34763 0.27609 0.0
C1639 C 0.70162 0.44582 0.27265 0.0
C1640 C 0.72822 0.40903 0.25769 0.0
H1641 H 0.72041 0.36111 0.25921 0.0
C1642 C 0.74618 0.41193 0.25581 0.0
C1643 C 0.71914 0.38998 0.25883 0.0
C1644 C 0.69977 0.38456 0.25989 0.0
C1645 C 0.75509 0.39735 0.25568 0.0
C1646 C 0.74602 0.3782 0.25671 0.0
C1647 C 0.72797 0.37528 0.25844 0.0
C1648 C 0.7548 0.36136 0.25628 0.0
C1649 C 0.77456 0.40325 0.25528 0.0
C1650 C 0.76772 0.35897 0.2449 0.0
C1651 C 0.77625 0.34423 0.24528 0.0
C1652 C 0.77183 0.33018 0.25631 0.0
C1653 C 0.75833 0.33183 0.267 0.0
C1654 C 0.75021 0.34701 0.26711 0.0
H1655 H 0.78032 0.41855 0.26095 0.0
H1656 H 0.78138 0.39512 0.26328 0.0
H1657 H 0.77714 0.40097 0.24088 0.0
H1658 H 0.77131 0.36846 0.23538 0.0
H1659 H 0.78625 0.34367 0.23654 0.0
H1660 H 0.85304 0.4544 0.48059 0.0
H1661 H 0.88403 0.4721 0.48939 0.0
H1662 H 0.88315 0.45446 0.54204 0.0
H1663 H 0.85284 0.43597 0.53287 0.0
H1664 H 0.89616 0.50128 0.51703 0.0
H1665 H 0.92743 0.44447 0.52872 0.0
H1666 H 0.90545 0.4394 0.51708 0.0
H1667 H 0.90971 0.44495 0.54168 0.0
C1668 C 0.85968 0.45416 0.49387 0.0
C1669 C 0.85083 0.44394 0.50608 0.0
C1670 C 0.87723 0.46417 0.49888 0.0
C1671 C 0.88581 0.46431 0.51627 0.0
C1672 C 0.8769 0.45403 0.52839 0.0
H1673 H 0.99423 0.52558 0.56063 0.0
H1674 H 0.96272 0.51384 0.56169 0.0
C1675 C 0.85959 0.44363 0.5232 0.0
C1676 C 0.90365 0.47642 0.52229 0.0
H1677 H 0.94494 0.47599 0.53797 0.0
C1678 C 0.90683 0.49577 0.52166 0.0
C1679 C 0.91738 0.46914 0.52862 0.0
C1680 C 0.91488 0.44833 0.52892 0.0
C1681 C 0.92366 0.50798 0.52645 0.0
C1682 C 0.9374 0.50057 0.53216 0.0
C1683 C 0.93411 0.4815 0.53383 0.0
C1684 C 0.95558 0.51099 0.5325 0.0
C1685 C 0.92681 0.52849 0.52461 0.0
C1686 C 0.9616 0.51314 0.51574 0.0
C1687 C 0.97937 0.51932 0.51501 0.0
C1688 C 0.99132 0.52348 0.53109 0.0
C1689 C 0.98522 0.52219 0.54804 0.0
C1690 C 0.96734 0.51574 0.54871 0.0
H1691 H 0.91461 0.53305 0.52484 0.0
H1692 H 0.93691 0.53776 0.53574 0.0
H1693 H 0.93163 0.53046 0.51135 0.0
H1694 H 0.95258 0.50915 0.50309 0.0
H1695 H 0.9837 0.52053 0.5018 0.0
H1696 H 0.3976 0.06573 0.25513 0.0
H1697 H 0.38651 0.08887 0.24111 0.0
H1698 H 0.37799 0.11418 0.29423 0.0
H1699 H 0.39021 0.09162 0.30843 0.0
H1700 H 0.35556 0.09413 0.23908 0.0
H1701 H 0.40277 0.16026 0.276 0.0
H1702 H 0.40634 0.13732 0.27664 0.0
H1703 H 0.39295 0.14632 0.29186 0.0
C1704 C 0.39335 0.07631 0.26376 0.0
C1705 C 0.39453 0.07703 0.28275 0.0
C1706 C 0.38712 0.08951 0.25577 0.0
C1707 C 0.38176 0.10344 0.26666 0.0
C1708 C 0.38264 0.10392 0.28568 0.0
H1709 H 0.31649 0.17123 0.26576 0.0
H1710 H 0.33548 0.15051 0.26854 0.0
C1711 C 0.38935 0.09097 0.29375 0.0
C1712 C 0.37425 0.11675 0.258 0.0
H1713 H 0.37466 0.16317 0.2631 0.0
C1714 C 0.35999 0.10929 0.244 0.0
C1715 C 0.38034 0.13653 0.26412 0.0
C1716 C 0.39658 0.14557 0.27783 0.0
C1717 C 0.35067 0.12099 0.23717 0.0
C1718 C 0.35573 0.14045 0.24468 0.0
C1719 C 0.37079 0.14813 0.25756 0.0
C1720 C 0.34394 0.15234 0.242 0.0
C1721 C 0.33478 0.11238 0.22295 0.0
C1722 C 0.34239 0.15995 0.22602 0.0
C1723 C 0.3315 0.17185 0.22438 0.0
C1724 C 0.32226 0.17627 0.2388 0.0
C1725 C 0.3237 0.16829 0.2546 0.0
C1726 C 0.33445 0.15643 0.25617 0.0
H1727 H 0.33289 0.09702 0.21813 0.0
H1728 H 0.32292 0.11436 0.22872 0.0
H1729 H 0.33608 0.11972 0.21101 0.0
H1730 H 0.34974 0.15691 0.21501 0.0
H1731 H 0.33062 0.17793 0.21211 0.0
H1732 H 0.32736 0.13268 0.53337 0.0
H1733 H 0.35374 0.1225 0.54004 0.0
H1734 H 0.38122 0.16109 0.50789 0.0
H1735 H 0.35472 0.17128 0.50098 0.0
H1736 H 0.37156 0.10634 0.51269 0.0
H1737 H 0.41519 0.17123 0.55731 0.0
H1738 H 0.3917 0.16689 0.5534 0.0
H1739 H 0.40462 0.17437 0.53604 0.0
C1740 C 0.33899 0.13902 0.52768 0.0
C1741 C 0.33882 0.15268 0.51648 0.0
C1742 C 0.35411 0.13323 0.53159 0.0
C1743 C 0.36958 0.14117 0.52468 0.0
C1744 C 0.36955 0.15494 0.51361 0.0
H1745 H 0.47008 0.11429 0.52614 0.0
H1746 H 0.4468 0.13022 0.5247 0.0
C1747 C 0.35431 0.16059 0.50949 0.0
C1748 C 0.3852 0.13392 0.52801 0.0
H1749 H 0.42757 0.1459 0.5491 0.0
C1750 C 0.38378 0.11499 0.52071 0.0
C1751 C 0.40122 0.14523 0.53836 0.0
C1752 C 0.40336 0.16554 0.54688 0.0
C1753 C 0.39788 0.1071 0.52323 0.0
C1754 C 0.41383 0.11824 0.53386 0.0
C1755 C 0.41535 0.13728 0.54108 0.0
C1756 C 0.42898 0.11021 0.5372 0.0
C1757 C 0.39565 0.08696 0.51401 0.0
C1758 C 0.42714 0.09412 0.54548 0.0
C1759 C 0.4403 0.08475 0.54603 0.0
C1760 C 0.45581 0.09137 0.53853 0.0
C1761 C 0.45817 0.10839 0.53156 0.0
C1762 C 0.44491 0.11767 0.53089 0.0
H1763 H 0.38475 0.08228 0.50247 0.0
H1764 H 0.40781 0.08532 0.50871 0.0
H1765 H 0.39255 0.07741 0.52409 0.0
H1766 H 0.41518 0.08833 0.55089 0.0
H1767 H 0.43784 0.07176 0.55151 0.0
H1768 H 0.71497 0.56253 0.25576 0.0
H1769 H 0.72917 0.5956 0.25346 0.0
H1770 H 0.70359 0.61507 0.29763 0.0
H1771 H 0.68932 0.58223 0.29985 0.0
H1772 H 0.71628 0.62632 0.24593 0.0
H1773 H 0.75369 0.64676 0.31549 0.0
H1774 H 0.7436 0.62237 0.30503 0.0
H1775 H 0.73065 0.63663 0.31514 0.0
C1776 C 0.71255 0.57378 0.26526 0.0
C1777 C 0.70104 0.56916 0.27829 0.0
C1778 C 0.72065 0.59294 0.26381 0.0
C1779 C 0.71795 0.60849 0.27553 0.0
C1780 C 0.70649 0.60384 0.28854 0.0
H1781 H 0.75922 0.73594 0.2897 0.0
H1782 H 0.74201 0.7034 0.29105 0.0
C1783 C 0.6982 0.58476 0.28981 0.0
C1784 C 0.72685 0.62931 0.27415 0.0
H1785 H 0.75354 0.67167 0.29899 0.0
C1786 C 0.72448 0.63609 0.2576 0.0
C1787 C 0.73763 0.64273 0.28916 0.0
C1788 C 0.74173 0.6368 0.30717 0.0
C1789 C 0.73214 0.65532 0.25579 0.0
C1790 C 0.74303 0.6687 0.27078 0.0
C1791 C 0.74528 0.66193 0.28735 0.0
C1792 C 0.75275 0.68926 0.2693 0.0
C1793 C 0.72805 0.66127 0.23779 0.0
C1794 C 0.76476 0.693 0.25666 0.0
C1795 C 0.77477 0.71167 0.25605 0.0
C1796 C 0.77308 0.7278 0.2677 0.0
C1797 C 0.76072 0.72424 0.28007 0.0
C1798 C 0.75093 0.70538 0.28098 0.0
H1799 H 0.71585 0.65155 0.22966 0.0
H1800 H 0.72659 0.67588 0.23993 0.0
H1801 H 0.73894 0.661 0.22964 0.0
H1802 H 0.76697 0.68131 0.24758 0.0
H1803 H 0.7843 0.71346 0.24658 0.0
H1804 H 0.92747 0.48278 0.81444 0.0
H1805 H 0.90995 0.4498 0.80331 0.0
H1806 H 0.88236 0.46772 0.75971 0.0
H1807 H 0.89942 0.50055 0.77106 0.0
H1808 H 0.87017 0.4521 0.80114 0.0
H1809 H 0.88828 0.41009 0.74136 0.0
H1810 H 0.90473 0.42687 0.75841 0.0
H1811 H 0.89147 0.43522 0.74263 0.0
C1812 C 0.91783 0.47945 0.80233 0.0
C1813 C 0.91403 0.49382 0.79391 0.0
C1814 C 0.90819 0.46076 0.7958 0.0
C1815 C 0.89511 0.4566 0.78068 0.0
C1816 C 0.89263 0.47082 0.77123 0.0
H1817 H 0.81088 0.35438 0.74461 0.0
H1818 H 0.82726 0.38752 0.74646 0.0
C1819 C 0.902 0.48946 0.77793 0.0
C1820 C 0.88074 0.43955 0.77848 0.0
H1821 H 0.86194 0.39643 0.75215 0.0
C1822 C 0.8683 0.43985 0.79046 0.0
C1823 C 0.87832 0.42418 0.76414 0.0
C1824 C 0.89138 0.42389 0.75084 0.0
C1825 C 0.85339 0.42477 0.78871 0.0
C1826 C 0.85132 0.40886 0.77496 0.0
C1827 C 0.86357 0.40881 0.76259 0.0
C1828 C 0.83818 0.39109 0.77488 0.0
C1829 C 0.84016 0.42605 0.80168 0.0
C1830 C 0.83844 0.38267 0.79048 0.0
C1831 C 0.82894 0.36408 0.78956 0.0
C1832 C 0.81955 0.35357 0.77287 0.0
C1833 C 0.81828 0.36232 0.75755 0.0
C1834 C 0.82753 0.38113 0.7586 0.0
H1835 H 0.83982 0.44094 0.80576 0.0
H1836 H 0.8268 0.41733 0.79553 0.0
H1837 H 0.844 0.42103 0.81433 0.0
H1838 H 0.847 0.38997 0.803 0.0
H1839 H 0.83017 0.35754 0.8015 0.0
H1840 H 0.06397 0.87007 0.11294 0.0
H1841 H 0.05826 0.89726 0.1008 0.0
H1842 H 0.0806 0.88193 0.0524 0.0
H1843 H 0.08667 0.85497 0.0646 0.0
H1844 H 0.08532 0.92823 0.08827 0.0
H1845 H 0.03021 0.88785 0.03426 0.0
H1846 H 0.03654 0.87826 0.05392 0.0
H1847 H 0.04953 0.87956 0.03555 0.0
C1848 C 0.06763 0.87244 0.09969 0.0
C1849 C 0.07578 0.86027 0.08978 0.0
C1850 C 0.06438 0.88803 0.09277 0.0
C1851 C 0.06885 0.89161 0.07559 0.0
C1852 C 0.07688 0.87942 0.06561 0.0
H1853 H 0.05558 0.9753 0.00762 0.0
H1854 H 0.05981 0.9473 0.01949 0.0
C1855 C 0.08041 0.86403 0.07265 0.0
C1856 C 0.0655 0.9083 0.06829 0.0
H1857 H 0.04046 0.92076 0.03493 0.0
C1858 C 0.07546 0.92661 0.07666 0.0
C1859 C 0.05276 0.90625 0.05302 0.0
C1860 C 0.04151 0.88696 0.04365 0.0
C1861 C 0.07327 0.94283 0.07002 0.0
C1862 C 0.06031 0.94084 0.05488 0.0
C1863 C 0.05035 0.92246 0.04652 0.0
C1864 C 0.05702 0.9576 0.04747 0.0
C1865 C 0.08535 0.96187 0.07899 0.0
C1866 C 0.05354 0.97262 0.05898 0.0
C1867 C 0.05137 0.98868 0.05223 0.0
C1868 C 0.05222 0.98995 0.03371 0.0
C1869 C 0.05496 0.97469 0.02197 0.0
C1870 C 0.05734 0.95869 0.02878 0.0
H1871 H 0.09772 0.96048 0.08606 0.0
H1872 H 0.08866 0.97131 0.06885 0.0
H1873 H 0.07884 0.96871 0.08943 0.0
H1874 H 0.05257 0.97201 0.07327 0.0
H1875 H 0.04907 1.00017 0.06153 0.0
H1876 H 0.98575 0.2858 0.85992 0.0
H1877 H 0.95984 0.29103 0.84334 0.0
H1878 H 0.92761 0.26261 0.87961 0.0
H1879 H 0.95361 0.25865 0.89687 0.0
H1880 H 0.93224 0.27104 0.82371 0.0
H1881 H 0.90794 0.30543 0.88266 0.0
H1882 H 0.92887 0.30045 0.88488 0.0
H1883 H 0.90909 0.28227 0.88552 0.0
C1884 C 0.97313 0.28067 0.86436 0.0
C1885 C 0.97188 0.27182 0.87982 0.0
C1886 C 0.95821 0.28372 0.85487 0.0
C1887 C 0.94147 0.27776 0.86032 0.0
C1888 C 0.94021 0.26822 0.87537 0.0
H1889 H 0.83484 0.27541 0.80989 0.0
H1890 H 0.85971 0.27173 0.83011 0.0
C1891 C 0.95517 0.26566 0.88514 0.0
C1892 C 0.92542 0.28089 0.8499 0.0
H1893 H 0.88827 0.2956 0.85474 0.0
C1894 C 0.92278 0.27656 0.83063 0.0
C1895 C 0.9127 0.28807 0.85858 0.0
C1896 C 0.91488 0.2945 0.87902 0.0
C1897 C 0.90806 0.27885 0.82002 0.0
C1898 C 0.89531 0.28587 0.82869 0.0
C1899 C 0.8978 0.29009 0.84793 0.0
C1900 C 0.87982 0.28955 0.81792 0.0
C1901 C 0.90622 0.27336 0.79948 0.0
C1902 C 0.88253 0.30151 0.80488 0.0
C1903 C 0.8684 0.30354 0.79339 0.0
C1904 C 0.85096 0.29411 0.79475 0.0
C1905 C 0.84804 0.28314 0.80862 0.0
C1906 C 0.86233 0.2809 0.82008 0.0
H1907 H 0.91366 0.26303 0.79538 0.0
H1908 H 0.8923 0.26712 0.79343 0.0
H1909 H 0.91158 0.28617 0.79357 0.0
H1910 H 0.89569 0.30893 0.80317 0.0
H1911 H 0.8712 0.3121 0.7829 0.0
H1912 H 0.54756 0.24636 0.58895 0.0
H1913 H 0.5446 0.21304 0.57646 0.0
H1914 H 0.60012 0.2263 0.57436 0.0
H1915 H 0.60308 0.25976 0.58642 0.0
H1916 H 0.55903 0.1963 0.54182 0.0
H1917 H 0.58477 0.18419 0.6097 0.0
H1918 H 0.57474 0.20306 0.60724 0.0
H1919 H 0.59647 0.20506 0.60181 0.0
C1920 C 0.55902 0.24224 0.58525 0.0
C1921 C 0.5755 0.25563 0.58835 0.0
C1922 C 0.55734 0.22322 0.57829 0.0
C1923 C 0.57218 0.21726 0.57474 0.0
C1924 C 0.58854 0.2307 0.57709 0.0
H1925 H 0.59013 0.10613 0.54681 0.0
H1926 H 0.59341 0.14006 0.55658 0.0
C1927 C 0.59018 0.24981 0.58371 0.0
C1928 C 0.57064 0.19687 0.56916 0.0
H1929 H 0.57893 0.15866 0.58493 0.0
C1930 C 0.56339 0.18804 0.5512 0.0
C1931 C 0.57622 0.18619 0.58154 0.0
C1932 C 0.5834 0.19497 0.60122 0.0
C1933 C 0.5619 0.16882 0.54511 0.0
C1934 C 0.56757 0.1581 0.55743 0.0
C1935 C 0.57475 0.16694 0.57547 0.0
C1936 C 0.56568 0.13757 0.55189 0.0
C1937 C 0.5545 0.16022 0.52543 0.0
C1938 C 0.54903 0.12494 0.54628 0.0
C1939 C 0.54712 0.10569 0.54054 0.0
C1940 C 0.56185 0.09854 0.5405 0.0
C1941 C 0.57854 0.11118 0.54647 0.0
C1942 C 0.58043 0.13054 0.55215 0.0
H1943 H 0.55517 0.17122 0.51671 0.0
H1944 H 0.56159 0.15013 0.51971 0.0
H1945 H 0.54054 0.15236 0.52471 0.0
H1946 H 0.53744 0.12996 0.54638 0.0
H1947 H 0.53401 0.09642 0.53631 0.0
H1948 H 0.56862 0.75326 0.38848 0.0
H1949 H 0.59694 0.7592 0.37692 0.0
H1950 H 0.58846 0.80878 0.35833 0.0
H1951 H 0.55983 0.80267 0.36951 0.0
H1952 H 0.60027 0.76666 0.33532 0.0
H1953 H 0.641 0.82134 0.39306 0.0
H1954 H 0.62208 0.80343 0.39661 0.0
H1955 H 0.61918 0.82221 0.38516 0.0
C1956 C 0.57267 0.7653 0.38172 0.0
C1957 C 0.56178 0.77726 0.37955 0.0
C1958 C 0.58894 0.76877 0.37528 0.0
C1959 C 0.5949 0.78453 0.36692 0.0
C1960 C 0.58414 0.79658 0.36479 0.0
H1961 H 0.69212 0.82382 0.3202 0.0
H1962 H 0.66586 0.82239 0.3352 0.0
C1963 C 0.56768 0.79292 0.37095 0.0
C1964 C 0.61185 0.78755 0.35937 0.0
H1965 H 0.65521 0.81221 0.36829 0.0
C1966 C 0.61228 0.77664 0.34251 0.0
C1967 C 0.62747 0.80068 0.36872 0.0
C1968 C 0.62761 0.81264 0.38693 0.0
C1969 C 0.62785 0.77844 0.33469 0.0
C1970 C 0.64366 0.79116 0.34421 0.0
C1971 C 0.64319 0.80236 0.36102 0.0
C1972 C 0.66069 0.79268 0.33686 0.0
C1973 C 0.62711 0.76685 0.31609 0.0
C1974 C 0.66696 0.77667 0.33331 0.0
C1975 C 0.68183 0.77737 0.32456 0.0
C1976 C 0.69104 0.7942 0.31926 0.0
C1977 C 0.68523 0.81051 0.32369 0.0
C1978 C 0.67027 0.80976 0.33244 0.0
H1979 H 0.61364 0.76227 0.30847 0.0
H1980 H 0.63602 0.77496 0.30772 0.0
H1981 H 0.6312 0.75395 0.3178 0.0
H1982 H 0.66005 0.7634 0.33689 0.0
H1983 H 0.68568 0.76445 0.32134 0.0
H1984 H 0.11293 0.28135 0.42967 0.0
H1985 H 0.10173 0.25263 0.44245 0.0
H1986 H 0.04946 0.24785 0.41714 0.0
H1987 H 0.06087 0.27575 0.40348 0.0
H1988 H 0.07876 0.24694 0.46596 0.0
H1989 H 0.05132 0.1949 0.40164 0.0
H1990 H 0.06529 0.21824 0.40167 0.0
H1991 H 0.04262 0.21497 0.40442 0.0
C1992 C 0.09914 0.2739 0.42668 0.0
C1993 C 0.08774 0.28034 0.41546 0.0
C1994 C 0.09272 0.2576 0.43396 0.0
C1995 C 0.07479 0.24787 0.43042 0.0
C1996 C 0.06339 0.25468 0.41951 0.0
H1997 H 0.02562 0.14957 0.4796 0.0
H1998 H 0.02846 0.17602 0.46271 0.0
C1999 C 0.06988 0.27064 0.41184 0.0
C2000 C 0.06808 0.23113 0.4389 0.0
H2001 H 0.04754 0.18369 0.42946 0.0
C2002 C 0.07189 0.23314 0.45795 0.0
C2003 C 0.05876 0.2132 0.42846 0.0
C2004 C 0.05436 0.2101 0.4079 0.0
C2005 C 0.06734 0.21759 0.46678 0.0
C2006 C 0.05888 0.19954 0.45628 0.0
C2007 C 0.05414 0.19761 0.43737 0.0
C2008 C 0.05663 0.18242 0.4646 0.0
C2009 C 0.07203 0.22048 0.48728 0.0
C2010 C 0.07147 0.17707 0.47066 0.0
C2011 C 0.06993 0.16213 0.48025 0.0
C2012 C 0.05348 0.15224 0.48396 0.0
C2013 C 0.03848 0.15711 0.47714 0.0
C2014 C 0.04005 0.17209 0.46744 0.0
H2015 H 0.07423 0.2355 0.49378 0.0
H2016 H 0.06158 0.21146 0.49346 0.0
H2017 H 0.08428 0.21642 0.49044 0.0
H2018 H 0.08435 0.18486 0.46844 0.0
H2019 H 0.08173 0.15887 0.48544 0.0
H2020 H 0.55351 0.28883 0.19476 0.0
H2021 H 0.58328 0.29147 0.20908 0.0
H2022 H 0.58184 0.23823 0.17574 0.0
H2023 H 0.55273 0.23613 0.1608 0.0
H2024 H 0.59544 0.2685 0.22855 0.0
H2025 H 0.62642 0.27153 0.16528 0.0
H2026 H 0.60468 0.27417 0.16639 0.0
H2027 H 0.60821 0.25097 0.16281 0.0
C2028 C 0.55974 0.27787 0.19046 0.0
C2029 C 0.55123 0.26253 0.17651 0.0
C2030 C 0.5766 0.27935 0.1986 0.0
C2031 C 0.58484 0.26532 0.19303 0.0
C2032 C 0.57594 0.24957 0.17967 0.0
H2033 H 0.67408 0.2292 0.21892 0.0
H2034 H 0.64546 0.2337 0.2096 0.0
C2035 C 0.55935 0.24834 0.17123 0.0
C2036 C 0.60265 0.26677 0.20135 0.0
H2037 H 0.64242 0.26373 0.19056 0.0
C2038 C 0.60584 0.2678 0.22034 0.0
C2039 C 0.61611 0.26592 0.1905 0.0
C2040 C 0.61372 0.26579 0.17014 0.0
C2041 C 0.622 0.26695 0.2287 0.0
C2042 C 0.63512 0.2652 0.2177 0.0
C2043 C 0.63217 0.26497 0.19885 0.0
C2044 C 0.65162 0.26217 0.22509 0.0
C2045 C 0.6247 0.26707 0.24901 0.0
C2046 C 0.66427 0.27664 0.23709 0.0
C2047 C 0.68054 0.27401 0.24255 0.0
C2048 C 0.68423 0.25701 0.23579 0.0
C2049 C 0.67139 0.24242 0.22418 0.0
C2050 C 0.65515 0.24497 0.21889 0.0
H2051 H 0.61232 0.26556 0.25504 0.0
H2052 H 0.63035 0.25543 0.25188 0.0
H2053 H 0.6341 0.28064 0.25593 0.0
H2054 H 0.66175 0.2901 0.24171 0.0
H2055 H 0.69045 0.28545 0.25138 0.0
H2056 H 0.6155 0.89332 0.91517 0.0
H2057 H 0.60668 0.92017 0.93098 0.0
H2058 H 0.5589 0.88156 0.94001 0.0
H2059 H 0.56832 0.85486 0.92558 0.0
H2060 H 0.5792 0.93327 0.92367 0.0
H2061 H 0.5769 0.90927 0.99065 0.0
H2062 H 0.58623 0.89834 0.9724 0.0
H2063 H 0.56288 0.89195 0.97247 0.0
C2064 C 0.60337 0.89072 0.92102 0.0
C2065 C 0.59283 0.87225 0.91993 0.0
C2066 C 0.59826 0.90594 0.92979 0.0
C2067 C 0.58235 0.90271 0.93701 0.0
C2068 C 0.57152 0.88424 0.93516 0.0
H2069 H 0.53075 0.97972 0.99249 0.0
H2070 H 0.53582 0.95495 0.96968 0.0
C2071 C 0.5769 0.86906 0.927 0.0
C2072 C 0.57707 0.91861 0.94664 0.0
H2073 H 0.56498 0.93487 0.98713 0.0
C2074 C 0.57611 0.93366 0.93755 0.0
C2075 C 0.57312 0.919 0.96476 0.0
C2076 C 0.57501 0.90386 0.97569 0.0
C2077 C 0.57135 0.94923 0.94626 0.0
C2078 C 0.56727 0.9494 0.9642 0.0
C2079 C 0.56792 0.93431 0.97318 0.0
C2080 C 0.56401 0.96591 0.97483 0.0
C2081 C 0.57096 0.96557 0.93654 0.0
C2082 C 0.57827 0.98003 0.98494 0.0
C2083 C 0.57546 0.99378 0.99814 0.0
C2084 C 0.55836 0.99354 1.00115 0.0
C2085 C 0.54404 0.98002 0.99029 0.0
C2086 C 0.54688 0.96605 0.97727 0.0
H2087 H 0.57294 0.96252 0.92198 0.0
H2088 H 0.55826 0.969 0.9372 0.0
H2089 H 0.58143 0.9783 0.94359 0.0
H2090 H 0.59155 0.97983 0.98322 0.0
H2091 H 0.58663 1.00431 0.00628 0.0
H2092 H 0.94223 0.76372 0.66124 0.0
H2093 H 0.91569 0.76755 0.67366 0.0
H2094 H 0.93655 0.75896 0.72624 0.0
H2095 H 0.96294 0.75498 0.71403 0.0
H2096 H 0.89442 0.73842 0.70154 0.0
H2097 H 0.92497 0.81606 0.72424 0.0
H2098 H 0.93017 0.80304 0.70408 0.0
H2099 H 0.93817 0.79988 0.72632 0.0
C2100 C 0.94108 0.76265 0.67542 0.0
C2101 C 0.95453 0.75928 0.68682 0.0
C2102 C 0.92598 0.76466 0.68237 0.0
C2103 C 0.9245 0.76349 0.70071 0.0
C2104 C 0.93769 0.75975 0.71199 0.0
H2105 H 0.85586 0.7889 0.77657 0.0
H2106 H 0.88122 0.78372 0.76219 0.0
C2107 C 0.95267 0.75756 0.70504 0.0
C2108 C 0.90973 0.76754 0.70866 0.0
H2109 H 0.89746 0.80317 0.73314 0.0
C2110 C 0.89491 0.75254 0.70835 0.0
C2111 C 0.91086 0.78598 0.71758 0.0
C2112 C 0.92685 0.80227 0.71812 0.0
C2113 C 0.88094 0.75559 0.71706 0.0
C2114 C 0.88207 0.77407 0.72596 0.0
C2115 C 0.8969 0.78906 0.72625 0.0
C2116 C 0.86761 0.77818 0.73457 0.0
C2117 C 0.8652 0.73911 0.71692 0.0
C2118 C 0.85212 0.77714 0.72354 0.0
C2119 C 0.83788 0.77987 0.73163 0.0
C2120 C 0.83921 0.78384 0.7507 0.0
C2121 C 0.85485 0.78564 0.7618 0.0
C2122 C 0.86915 0.78277 0.75368 0.0
H2123 H 0.86796 0.72528 0.71279 0.0
H2124 H 0.86081 0.73958 0.73064 0.0
H2125 H 0.85425 0.73996 0.70704 0.0
H2126 H 0.85102 0.77393 0.70876 0.0
H2127 H 0.82578 0.77878 0.72305 0.0
H2128 H 0.09944 0.01791 0.81548 0.0
H2129 H 0.08665 0.01879 0.84439 0.0
H2130 H 0.13826 0.03443 0.87485 0.0
H2131 H 0.15097 0.03269 0.84598 0.0
H2132 H 0.0907 0.99821 0.87677 0.0
H2133 H 0.11456 0.07613 0.89785 0.0
H2134 H 0.11261 0.06458 0.87437 0.0
H2135 H 0.13042 0.06416 0.89072 0.0
C2136 C 0.10815 0.0215 0.82829 0.0
C2137 C 0.12645 0.02521 0.82795 0.0
C2138 C 0.10074 0.02199 0.84505 0.0
C2139 C 0.11123 0.02688 0.86243 0.0
C2140 C 0.12952 0.0307 0.86205 0.0
H2141 H 0.08987 0.05083 0.97955 0.0
H2142 H 0.10281 0.04879 0.95079 0.0
C2143 C 0.13689 0.02963 0.8453 0.0
C2144 C 0.1032 0.02803 0.88069 0.0
H2145 H 0.10041 0.05912 0.91903 0.0
C2146 C 0.09282 0.01162 0.88588 0.0
C2147 C 0.1058 0.04528 0.89326 0.0
C2148 C 0.11634 0.06363 0.88886 0.0
C2149 C 0.08547 0.01191 0.90276 0.0
C2150 C 0.08772 0.02927 0.91524 0.0
C2151 C 0.09824 0.04566 0.91002 0.0
C2152 C 0.07945 0.03072 0.93349 0.0
C2153 C 0.07594 0.99318 0.9073 0.0
C2154 C 0.06164 0.02174 0.93436 0.0
C2155 C 0.05424 0.02272 0.95109 0.0
C2156 C 0.06401 0.03313 0.96805 0.0
C2157 C 0.08164 0.04269 0.96713 0.0
C2158 C 0.08914 0.04146 0.95039 0.0
H2159 H 0.08051 0.98141 0.90033 0.0
H2160 H 0.07777 0.99329 0.92226 0.0
H2161 H 0.06176 0.99019 0.90249 0.0
H2162 H 0.05319 0.01394 0.92195 0.0
H2163 H 0.04057 0.01532 0.95065 0.0
H2164 H 0.83067 0.42081 0.55047 0.0
H2165 H 0.84499 0.41038 0.57558 0.0
H2166 H 0.79585 0.37142 0.58046 0.0
H2167 H 0.78147 0.38128 0.5544 0.0
H2168 H 0.83768 0.41396 0.60996 0.0
H2169 H 0.82936 0.33852 0.58134 0.0
H2170 H 0.82649 0.35556 0.56718 0.0
H2171 H 0.80912 0.34483 0.57921 0.0
C2172 C 0.82287 0.41008 0.55696 0.0
C2173 C 0.80492 0.40202 0.55086 0.0
C2174 C 0.83112 0.40404 0.57114 0.0
C2175 C 0.82152 0.39002 0.57961 0.0
C2176 C 0.80352 0.38196 0.57367 0.0
H2177 H 0.8108 0.35028 0.67118 0.0
H2178 H 0.81393 0.36765 0.64602 0.0
C2179 C 0.79528 0.38773 0.55908 0.0
C2180 C 0.83009 0.38502 0.59563 0.0
H2181 H 0.83473 0.34729 0.61438 0.0
C2182 C 0.83747 0.39945 0.61081 0.0
C2183 C 0.83016 0.36618 0.59644 0.0
C2184 C 0.82353 0.35042 0.58009 0.0
C2185 C 0.84334 0.39517 0.62747 0.0
C2186 C 0.84169 0.37613 0.62873 0.0
C2187 C 0.83591 0.36193 0.61315 0.0
C2188 C 0.84155 0.37009 0.64641 0.0
C2189 C 0.84992 0.41066 0.644 0.0
C2190 C 0.85633 0.36662 0.65525 0.0
C2191 C 0.85466 0.35691 0.6699 0.0
C2192 C 0.83815 0.35045 0.67547 0.0
C2193 C 0.82373 0.35533 0.66739 0.0
C2194 C 0.82545 0.36512 0.65295 0.0
H2195 H 0.85293 0.42495 0.64021 0.0
H2196 H 0.8398 0.40966 0.65333 0.0
H2197 H 0.86187 0.4089 0.65163 0.0
H2198 H 0.86882 0.37048 0.6502 0.0
H2199 H 0.86598 0.35348 0.67615 0.0
H2200 H 0.45902 0.06775 0.36007 0.0
H2201 H 0.46901 0.06208 0.3904 0.0
H2202 H 0.49026 0.01846 0.36488 0.0
H2203 H 0.48113 0.02452 0.33486 0.0
H2204 H 0.46439 0.02843 0.40748 0.0
H2205 H 0.53251 0.0593 0.39474 0.0
H2206 H 0.51369 0.06121 0.38055 0.0
H2207 H 0.5202 0.03961 0.37756 0.0
C2208 C 0.466 0.05714 0.36105 0.0
C2209 C 0.47 0.04715 0.34531 0.0
C2210 C 0.4714 0.05371 0.37824 0.0
C2211 C 0.48051 0.04006 0.37966 0.0
C2212 C 0.48349 0.02926 0.36391 0.0
H2213 H 0.54174 0.01168 0.46572 0.0
H2214 H 0.52075 0.0091 0.43857 0.0
C2215 C 0.4785 0.03296 0.34685 0.0
C2216 C 0.48891 0.03866 0.39745 0.0
H2217 H 0.52917 0.04561 0.42123 0.0
C2218 C 0.47853 0.03222 0.41061 0.0
C2219 C 0.50735 0.04374 0.40128 0.0
C2220 C 0.51911 0.05152 0.38786 0.0
C2221 C 0.48633 0.03053 0.42768 0.0
C2222 C 0.50472 0.03541 0.43127 0.0
C2223 C 0.51501 0.0418 0.41813 0.0
C2224 C 0.51401 0.03478 0.44879 0.0
C2225 C 0.4751 0.02352 0.44173 0.0
C2226 C 0.51705 0.05017 0.46315 0.0
C2227 C 0.52937 0.05196 0.47826 0.0
C2228 C 0.53853 0.0383 0.47893 0.0
C2229 C 0.53493 0.02249 0.46499 0.0
C2230 C 0.52281 0.02083 0.44981 0.0
H2231 H 0.46099 0.01839 0.43609 0.0
H2232 H 0.47924 0.01187 0.44698 0.0
H2233 H 0.47691 0.03519 0.45352 0.0
H2234 H 0.51047 0.06115 0.46227 0.0
H2235 H 0.53179 0.06393 0.48932 0.0
H2236 H 0.7855 0.74318 0.0511 0.0
H2237 H 0.78403 0.75578 0.0831 0.0
H2238 H 0.81473 0.7202 0.10127 0.0
H2239 H 0.81643 0.70781 0.06958 0.0
H2240 H 0.76878 0.73341 0.10787 0.0
H2241 H 0.83815 0.77064 0.13469 0.0
H2242 H 0.83032 0.76402 0.11047 0.0
H2243 H 0.83487 0.74673 0.12333 0.0
C2244 C 0.79236 0.73847 0.06192 0.0
C2245 C 0.80109 0.72449 0.05774 0.0
C2246 C 0.79138 0.74556 0.08021 0.0
C2247 C 0.79933 0.73902 0.09463 0.0
C2248 C 0.80871 0.72571 0.09046 0.0
H2249 H 0.80445 0.74897 0.21149 0.0
H2250 H 0.80514 0.74011 0.17885 0.0
C2251 C 0.80962 0.71858 0.07227 0.0
C2252 C 0.79675 0.74488 0.11393 0.0
H2253 H 0.81874 0.76436 0.15679 0.0
C2254 C 0.77968 0.74043 0.11854 0.0
C2255 C 0.81098 0.75374 0.12791 0.0
C2256 C 0.8296 0.75922 0.12386 0.0
C2257 C 0.7765 0.74416 0.13679 0.0
C2258 C 0.79074 0.75302 0.15077 0.0
C2259 C 0.80779 0.75764 0.14609 0.0
C2260 C 0.7885 0.75706 0.17045 0.0
C2261 C 0.75801 0.73786 0.14105 0.0
C2262 C 0.77853 0.76924 0.1767 0.0
C2263 C 0.77794 0.77422 0.19553 0.0
C2264 C 0.78757 0.76734 0.20836 0.0
C2265 C 0.79705 0.75471 0.20197 0.0
C2266 C 0.79746 0.74961 0.18328 0.0
H2267 H 0.74929 0.72731 0.12964 0.0
H2268 H 0.75767 0.73157 0.15367 0.0
H2269 H 0.7527 0.7503 0.14333 0.0
H2270 H 0.77173 0.77545 0.16711 0.0
H2271 H 0.77065 0.78408 0.20005 0.0
H2272 H 0.11891 0.03146 0.73054 0.0
H2273 H 0.10605 0.03658 0.70111 0.0
H2274 H 0.12756 0.99498 0.67261 0.0
H2275 H 0.14079 0.99008 0.70199 0.0
H2276 H 0.12331 0.04902 0.67053 0.0
H2277 H 0.07577 0.97851 0.64776 0.0
H2278 H 0.08562 0.98705 0.67131 0.0
H2279 H 0.09784 0.97816 0.65477 0.0
C2280 C 0.12074 0.02309 0.71809 0.0
C2281 C 0.13093 0.01011 0.7191 0.0
C2282 C 0.11341 0.02619 0.70105 0.0
C2283 C 0.11553 0.01618 0.68417 0.0
C2284 C 0.12535 1.00289 0.68513 0.0
H2285 H 0.07842 0.01034 0.56665 0.0
H2286 H 0.09037 1.00576 0.5965 0.0
C2287 C 0.13299 1.00005 0.70215 0.0
C2288 C 0.10798 0.01997 0.66575 0.0
H2289 H 0.07933 0.99903 0.62622 0.0
C2290 C 0.11362 0.03804 0.66093 0.0
C2291 C 0.09536 1.00589 0.65275 0.0
C2292 C 0.08812 0.98633 0.65686 0.0
C2293 C 0.10753 0.04218 0.64377 0.0
C2294 C 0.09473 0.02812 0.63078 0.0
C2295 C 0.08904 0.01007 0.63573 0.0
C2296 C 0.08738 0.03151 0.612 0.0
C2297 C 0.11561 0.06152 0.63954 0.0
C2298 C 0.08125 0.04749 0.60989 0.0
C2299 C 0.07447 0.0503 0.59246 0.0
C2300 C 0.07319 0.03709 0.5763 0.0
C2301 C 0.07906 0.021 0.57847 0.0
C2302 C 0.08596 0.0183 0.59582 0.0
H2303 H 0.12876 0.06812 0.64761 0.0
H2304 H 0.11693 0.06083 0.62479 0.0
H2305 H 0.10721 0.0709 0.64325 0.0
H2306 H 0.0814 0.05781 0.62179 0.0
H2307 H 0.07004 0.06281 0.59173 0.0
H2308 H 0.8191 0.36198 0.46302 0.0
H2309 H 0.8248 0.34916 0.433 0.0
H2310 H 0.7921 0.37901 0.40757 0.0
H2311 H 0.78653 0.39235 0.4378 0.0
H2312 H 0.7961 0.32667 0.40739 0.0
H2313 H 0.83569 0.38686 0.37968 0.0
H2314 H 0.83477 0.38757 0.4039 0.0
H2315 H 0.81681 0.39059 0.3894 0.0
C2316 C 0.81308 0.36584 0.45108 0.0
C2317 C 0.80198 0.37776 0.45268 0.0
C2318 C 0.81658 0.35872 0.43399 0.0
C2319 C 0.80901 0.36334 0.41823 0.0
C2320 C 0.7983 0.37562 0.41971 0.0
H2321 H 0.79128 0.32082 0.3042 0.0
H2322 H 0.79599 0.33933 0.33495 0.0
C2323 C 0.79488 0.38293 0.4369 0.0
C2324 C 0.81016 0.35291 0.40031 0.0
H2325 H 0.82408 0.35765 0.35908 0.0
C2326 C 0.80237 0.33335 0.39684 0.0
C2327 C 0.81825 0.36188 0.38673 0.0
C2328 C 0.82699 0.38287 0.39007 0.0
C2329 C 0.80186 0.32243 0.3798 0.0
C2330 C 0.80994 0.33132 0.36611 0.0
C2331 C 0.81807 0.3509 0.36971 0.0
C2332 C 0.80862 0.32081 0.34747 0.0
C2333 C 0.79192 0.30172 0.37644 0.0
C2334 C 0.81438 0.30441 0.34434 0.0
C2335 C 0.81115 0.29344 0.32685 0.0
C2336 C 0.80276 0.29924 0.31233 0.0
C2337 C 0.79781 0.31613 0.3153 0.0
C2338 C 0.80057 0.32675 0.33279 0.0
H2339 H 0.78291 0.29842 0.38673 0.0
H2340 H 0.78412 0.29733 0.36262 0.0
H2341 H 0.80133 0.29309 0.3774 0.0
H2342 H 0.82104 0.29991 0.35546 0.0
H2343 H 0.81527 0.28058 0.32465 0.0
H2344 H 0.45933 0.06573 0.23952 0.0
H2345 H 0.4687 0.05109 0.21179 0.0
H2346 H 0.44818 0.99577 0.22532 0.0
H2347 H 0.43811 0.01015 0.25221 0.0
H2348 H 0.49159 0.02884 0.2102 0.0
H2349 H 0.42573 0.9881 0.17303 0.0
H2350 H 0.42855 1.00646 0.19271 0.0
H2351 H 0.43089 0.98359 0.19559 0.0
C2352 C 0.45665 0.05047 0.23626 0.0
C2353 C 0.44773 0.03895 0.24747 0.0
C2354 C 0.462 0.04215 0.22063 0.0
C2355 C 0.45875 0.02236 0.21648 0.0
C2356 C 0.45026 0.01097 0.22803 0.0
H2357 H 0.49845 0.97436 0.11923 0.0
H2358 H 0.48416 0.97253 0.14699 0.0
C2359 C 0.44457 0.0192 0.24332 0.0
C2360 C 0.46468 0.0137 0.20027 0.0
H2361 H 0.45002 0.98641 0.15804 0.0
C2362 C 0.48256 0.0193 0.19891 0.0
C2363 C 0.45279 1.00097 0.18582 0.0
C2364 C 0.4334 0.99448 0.18673 0.0
C2365 C 0.48877 0.01358 0.18282 0.0
C2366 C 0.4767 1.0021 0.1679 0.0
C2367 C 0.45907 0.99518 0.16971 0.0
C2368 C 0.48158 1.00102 0.14955 0.0
C2369 C 0.50796 0.0211 0.18137 0.0
C2370 C 0.48375 0.01725 0.14166 0.0
C2371 C 0.49191 0.01843 0.12618 0.0
C2372 C 0.49791 1.00329 0.11833 0.0
C2373 C 0.49414 0.98629 0.12525 0.0
C2374 C 0.48599 0.98518 0.14095 0.0
H2375 H 0.51606 0.02491 0.19504 0.0
H2376 H 0.51266 0.0106 0.1725 0.0
H2377 H 0.50991 0.03408 0.1752 0.0
H2378 H 0.4803 0.02954 0.14829 0.0
H2379 H 0.49484 0.03182 0.12139 0.0
H2380 H 0.78364 0.74928 0.96132 0.0
H2381 H 0.78606 0.76017 0.93188 0.0
H2382 H 0.80178 0.71092 0.9104 0.0
H2383 H 0.79982 0.70016 0.93997 0.0
H2384 H 0.81853 0.76497 0.91043 0.0
H2385 H 0.75684 0.7136 0.87406 0.0
H2386 H 0.7606 0.72073 0.89866 0.0
H2387 H 0.77175 0.70493 0.88786 0.0
C2388 C 0.78768 0.74077 0.95037 0.0
C2389 C 0.7915 0.72378 0.95311 0.0
C2390 C 0.78907 0.74704 0.9335 0.0
C2391 C 0.79394 0.73632 0.91875 0.0
C2392 C 0.79789 0.71943 0.92146 0.0
H2393 H 0.79489 0.75246 0.80265 0.0
H2394 H 0.79438 0.73841 0.83075 0.0
C2395 C 0.79683 0.71332 0.93845 0.0
C2396 C 0.79483 0.74278 0.90057 0.0
H2397 H 0.7731 0.73429 0.85692 0.0
C2398 C 0.80861 0.75822 0.89873 0.0
C2399 C 0.78204 0.73392 0.88515 0.0
C2400 C 0.76687 0.71741 0.88638 0.0
C2401 C 0.80995 0.76501 0.88203 0.0
C2402 C 0.79681 0.75658 0.8667 0.0
C2403 C 0.7832 0.74087 0.86849 0.0
C2404 C 0.79651 0.76457 0.8492 0.0
C2405 C 0.82572 0.78099 0.88099 0.0
C2406 C 0.79728 0.78376 0.84987 0.0
C2407 C 0.79771 0.79172 0.83397 0.0
C2408 C 0.79698 0.78076 0.81666 0.0
C2409 C 0.79542 0.76132 0.8157 0.0
C2410 C 0.7952 0.75331 0.83182 0.0
H2411 H 0.83709 0.78113 0.89088 0.0
H2412 H 0.8296 0.77996 0.86705 0.0
H2413 H 0.82261 0.79469 0.8846 0.0
H2414 H 0.79761 0.79274 0.8628 0.0
H2415 H 0.79867 0.80669 0.83532 0.0
H2416 H 0.84518 0.14622 0.0337 0.0
H2417 H 0.87225 0.13786 0.02787 0.0
H2418 H 0.84241 0.08951 0.98776 0.0
H2419 H 0.81521 0.09752 0.99403 0.0
H2420 H 0.87438 0.09609 0.02977 0.0
H2421 H 0.88717 0.12414 0.9656 0.0
H2422 H 0.8753 0.13411 0.98209 0.0
H2423 H 0.86502 0.1117 0.96763 0.0
C2424 C 0.84452 0.13392 0.02355 0.0
C2425 C 0.82839 0.12239 0.01428 0.0
C2426 C 0.85987 0.12922 0.02023 0.0
C2427 C 0.85916 0.11326 0.00728 0.0
C2428 C 0.84305 0.10196 0.9977 0.0
H2429 H 0.928 0.04667 0.97915 0.0
H2430 H 0.90434 0.06193 0.97991 0.0
C2431 C 0.82764 0.10643 1.00133 0.0
C2432 C 0.87512 0.10751 0.00488 0.0
H2433 H 0.9056 0.10621 0.97602 0.0
C2434 C 0.88132 0.0984 0.01813 0.0
C2435 C 0.88393 0.11065 0.98963 0.0
C2436 C 0.87765 0.12077 0.97539 0.0
C2437 C 0.89612 0.0919 0.0163 0.0
C2438 C 0.90486 0.09482 1.00095 0.0
C2439 C 0.89878 0.10415 0.98778 0.0
C2440 C 0.91986 0.08733 0.99814 0.0
C2441 C 0.90215 0.08159 0.03053 0.0
C2442 C 0.9364 0.09694 0.0078 0.0
C2443 C 0.95001 0.08837 0.0073 0.0
C2444 C 0.94715 0.07002 0.99721 0.0
C2445 C 0.9307 0.06088 0.98687 0.0
C2446 C 0.91716 0.06952 0.98731 0.0
H2447 H 0.89325 0.07954 0.0411 0.0
H2448 H 0.90298 0.06751 0.02387 0.0
H2449 H 0.91545 0.08973 0.03741 0.0
H2450 H 0.93858 0.11073 0.01624 0.0
H2451 H 0.96263 0.09588 0.01515 0.0
H2452 H 0.3676 0.44399 0.06048 0.0
H2453 H 0.39833 0.46057 0.0591 0.0
H2454 H 0.39339 0.43241 1.0033 0.0
H2455 H 0.36294 0.41538 0.00484 0.0
H2456 H 0.42694 0.44125 0.0477 0.0
H2457 H 0.41357 0.49226 0.00443 0.0
H2458 H 0.39773 0.48081 0.01787 0.0
H2459 H 0.40159 0.46771 0.99722 0.0
C2460 C 0.37302 0.44151 0.04786 0.0
C2461 C 0.36275 0.42848 0.03272 0.0
C2462 C 0.39063 0.4509 0.04711 0.0
C2463 C 0.39826 0.44789 0.03105 0.0
C2464 C 0.3879 0.4351 0.01583 0.0
H2465 H 0.50298 0.5006 1.00269 0.0
H2466 H 0.4727 0.48116 1.00147 0.0
C2467 C 0.37046 0.42537 0.01673 0.0
C2468 C 0.41705 0.45788 0.03026 0.0
H2469 H 0.44315 0.49308 0.01217 0.0
C2470 C 0.43046 0.45261 0.03998 0.0
C2471 C 0.42178 0.47251 0.01993 0.0
C2472 C 0.40799 0.47883 0.0093 0.0
C2473 C 0.44833 0.4616 0.03972 0.0
C2474 C 0.45309 0.47667 0.02987 0.0
C2475 C 0.43966 0.48164 0.01982 0.0
C2476 C 0.47184 0.48793 0.03053 0.0
C2477 C 0.46203 0.45463 0.04976 0.0
C2478 C 0.48162 0.49834 0.04721 0.0
C2479 C 0.49887 0.50956 0.04791 0.0
C2480 C 0.50694 0.51067 0.03197 0.0
C2481 C 0.49727 0.50002 0.01527 0.0
C2482 C 0.47988 0.48893 0.01455 0.0
H2483 H 0.45658 0.44003 0.0523 0.0
H2484 H 0.47321 0.4548 0.04191 0.0
H2485 H 0.46708 0.46408 0.06319 0.0
H2486 H 0.47577 0.49814 0.05973 0.0
H2487 H 0.50584 0.5176 0.06099 0.0
H2488 H 0.37527 0.6022 0.76999 0.0
H2489 H 0.36224 0.62898 0.77111 0.0
H2490 H 0.39721 0.65295 0.73497 0.0
H2491 H 0.40924 0.62563 0.73295 0.0
H2492 H 0.36677 0.66341 0.78181 0.0
H2493 H 0.35921 0.6636 0.70771 0.0
H2494 H 0.36601 0.64513 0.71685 0.0
H2495 H 0.38172 0.66743 0.71646 0.0
C2496 C 0.38011 0.61302 0.76203 0.0
C2497 C 0.39336 0.61097 0.75106 0.0
C2498 C 0.37255 0.62872 0.76272 0.0
C2499 C 0.3778 0.64361 0.7526 0.0
C2500 C 0.39165 0.64185 0.7423 0.0
H2501 H 0.3514 0.75607 0.75012 0.0
H2502 H 0.36569 0.73026 0.74987 0.0
C2503 C 0.39893 0.62598 0.74132 0.0
C2504 C 0.3691 0.66062 0.75304 0.0
H2505 H 0.35495 0.69021 0.72651 0.0
C2506 C 0.36417 0.66892 0.76949 0.0
C2507 C 0.36518 0.66881 0.73738 0.0
C2508 C 0.36813 0.66067 0.71859 0.0
C2509 C 0.35617 0.68438 0.77068 0.0
C2510 C 0.35254 0.69259 0.75508 0.0
C2511 C 0.35753 0.6845 0.73872 0.0
C2512 C 0.34348 0.70913 0.75543 0.0
C2513 C 0.35191 0.69219 0.78896 0.0
C2514 C 0.32579 0.70683 0.75843 0.0
C2515 C 0.31731 0.72171 0.75808 0.0
C2516 C 0.32607 0.74009 0.7552 0.0
C2517 C 0.34386 0.74249 0.75251 0.0
C2518 C 0.35219 0.72744 0.75233 0.0
H2519 H 0.35813 0.68701 0.80037 0.0
H2520 H 0.35627 0.70791 0.79155 0.0
H2521 H 0.33752 0.68783 0.78887 0.0
H2522 H 0.31826 0.69325 0.7608 0.0
H2523 H 0.30373 0.71876 0.76028 0.0
H2524 H 0.23409 0.63588 0.48504 0.0
H2525 H 0.20228 0.62711 0.48546 0.0
H2526 H 0.20878 0.59701 0.52973 0.0
H2527 H 0.24035 0.6053 0.52914 0.0
H2528 H 0.1792 0.58156 0.4903 0.0
H2529 H 0.18337 0.64687 0.54025 0.0
H2530 H 0.19799 0.64658 0.52319 0.0
H2531 H 0.2006 0.63539 0.54259 0.0
C2532 C 0.22857 0.62693 0.49445 0.0
C2533 C 0.23938 0.62095 0.5069 0.0
C2534 C 0.21059 0.62214 0.49477 0.0
C2535 C 0.20359 0.61168 0.50774 0.0
C2536 C 0.21425 0.60509 0.51965 0.0
H2537 H 0.10991 0.57248 0.55222 0.0
H2538 H 0.14024 0.58482 0.54683 0.0
C2539 C 0.23212 0.60959 0.51915 0.0
C2540 C 0.18513 0.60778 0.50938 0.0
H2541 H 0.15673 0.62259 0.53526 0.0
C2542 C 0.17409 0.5906 0.49984 0.0
C2543 C 0.17899 0.6197 0.5221 0.0
C2544 C 0.19078 0.63824 0.53264 0.0
C2545 C 0.15684 0.58462 0.50315 0.0
C2546 C 0.15076 0.5964 0.51608 0.0
C2547 C 0.1617 0.61378 0.52536 0.0
C2548 C 0.13293 0.59075 0.52008 0.0
C2549 C 0.14542 0.56553 0.49338 0.0
C2550 C 0.11924 0.59063 0.50692 0.0
C2551 C 0.10213 0.58363 0.5099 0.0
C2552 C 0.09866 0.57684 0.5261 0.0
C2553 C 0.11241 0.57779 0.53968 0.0
C2554 C 0.12959 0.58473 0.53663 0.0
H2555 H 0.15302 0.55701 0.48592 0.0
H2556 H 0.13876 0.55742 0.5033 0.0
H2557 H 0.13517 0.56752 0.48335 0.0
H2558 H 0.12183 0.59548 0.49418 0.0
H2559 H 0.09163 0.58324 0.49941 0.0
H2560 H 0.67471 0.99566 0.77379 0.0
H2561 H 0.68494 0.96932 0.78206 0.0
H2562 H 0.73283 0.98976 0.75989 0.0
H2563 H 0.72283 0.0163 0.75165 0.0
H2564 H 0.69752 0.94134 0.75836 0.0
H2565 H 0.747 0.9875 0.81514 0.0
H2566 H 0.72877 0.9947 0.8052 0.0
H2567 H 0.74751 0.99534 0.79348 0.0
C2568 C 0.68738 0.99449 0.77057 0.0
C2569 C 0.69813 0.00811 0.76233 0.0
C2570 C 0.69314 0.97948 0.77528 0.0
C2571 C 0.70966 0.97799 0.77181 0.0
C2572 C 0.72013 0.99105 0.76289 0.0
H2573 H 0.78144 0.91697 0.7802 0.0
H2574 H 0.76376 0.93919 0.77923 0.0
C2575 C 0.71441 1.00611 0.75819 0.0
C2576 C 0.71626 0.96304 0.77794 0.0
H2577 H 0.74915 0.95617 0.80609 0.0
C2578 C 0.70863 0.94438 0.76898 0.0
C2579 C 0.73059 0.96737 0.79191 0.0
C2580 C 0.73889 0.9873 0.80213 0.0
C2581 C 0.7159 0.92989 0.77273 0.0
C2582 C 0.73081 0.93436 0.78612 0.0
C2583 C 0.73766 0.95287 0.7959 0.0
C2584 C 0.7413 0.92104 0.78799 0.0
C2585 C 0.70835 0.91029 0.76149 0.0
C2586 C 0.73447 0.90361 0.7934 0.0
C2587 C 0.74451 0.89076 0.79364 0.0
C2588 C 0.76149 0.8956 0.78894 0.0
C2589 C 0.76844 0.91325 0.78416 0.0
C2590 C 0.75837 0.92585 0.78359 0.0
H2591 H 0.69854 0.91005 0.74979 0.0
H2592 H 0.71888 0.90473 0.75608 0.0
H2593 H 0.70182 0.9006 0.77028 0.0
H2594 H 0.72139 0.89988 0.79709 0.0
H2595 H 0.73902 0.87706 0.79725 0.0
H2596 H 0.76013 0.90972 0.50261 0.0
H2597 H 0.73389 0.92071 0.4964 0.0
H2598 H 0.73868 0.9442 0.55365 0.0
H2599 H 0.76513 0.93418 0.55969 0.0
H2600 H 0.7017 0.91525 0.50744 0.0
H2601 H 0.73839 0.99006 0.53201 0.0
H2602 H 0.74922 0.9716 0.52826 0.0
H2603 H 0.74052 0.97622 0.54939 0.0
C2604 C 0.7556 0.91732 0.51383 0.0
C2605 C 0.76503 0.92149 0.53159 0.0
C2606 C 0.74054 0.92354 0.51028 0.0
C2607 C 0.73449 0.93388 0.52444 0.0
C2608 C 0.74335 0.93697 0.54231 0.0
H2609 H 0.65436 0.98749 0.54798 0.0
H2610 H 0.67703 0.97095 0.54678 0.0
C2611 C 0.75851 0.93114 0.54578 0.0
C2612 C 0.71935 0.94201 0.5208 0.0
H2613 H 0.70721 0.98304 0.52995 0.0
C2614 C 0.70296 0.93012 0.51217 0.0
C2615 C 0.72089 0.96151 0.52659 0.0
C2616 C 0.73826 0.9756 0.53437 0.0
C2617 C 0.68802 0.93699 0.51022 0.0
C2618 C 0.68947 0.95625 0.51709 0.0
C2619 C 0.70597 0.96821 0.52496 0.0
C2620 C 0.67409 0.96434 0.51725 0.0
C2621 C 0.67069 0.92351 0.5014 0.0
C2622 C 0.6646 0.96607 0.50102 0.0
C2623 C 0.65145 0.97559 0.50165 0.0
C2624 C 0.64745 0.98358 0.51854 0.0
C2625 C 0.65674 0.98134 0.5347 0.0
C2626 C 0.66986 0.97194 0.53405 0.0
H2627 H 0.67104 0.90851 0.49972 0.0
H2628 H 0.66015 0.92531 0.50964 0.0
H2629 H 0.66728 0.92669 0.48766 0.0
H2630 H 0.66772 0.9606 0.48785 0.0
H2631 H 0.64454 0.97686 0.48889 0.0
H2632 H 0.41934 0.49068 0.75555 0.0
H2633 H 0.40372 0.45794 0.75589 0.0
H2634 H 0.3564 0.4746 0.7617 0.0
H2635 H 0.37198 0.50745 0.76022 0.0
H2636 H 0.38992 0.43717 0.77622 0.0
H2637 H 0.33278 0.4305 0.72569 0.0
H2638 H 0.3513 0.4511 0.72987 0.0
H2639 H 0.33445 0.44902 0.74461 0.0
C2640 C 0.40549 0.48752 0.75663 0.0
C2641 C 0.39715 0.50233 0.75753 0.0
C2642 C 0.39642 0.4684 0.75694 0.0
C2643 C 0.37835 0.46271 0.75841 0.0
C2644 C 0.37001 0.47762 0.75973 0.0
H2645 H 0.29971 0.3568 0.76743 0.0
H2646 H 0.3175 0.38856 0.76698 0.0
C2647 C 0.37908 0.49682 0.75902 0.0
C2648 C 0.36874 0.44158 0.75882 0.0
H2649 H 0.33054 0.40588 0.74293 0.0
C2650 C 0.37694 0.43049 0.76877 0.0
C2651 C 0.35176 0.43182 0.74911 0.0
C2652 C 0.34214 0.44114 0.73657 0.0
C2653 C 0.36878 0.41106 0.76977 0.0
C2654 C 0.35156 0.40157 0.76051 0.0
C2655 C 0.34352 0.41257 0.75037 0.0
C2656 C 0.34116 0.38093 0.76165 0.0
C2657 C 0.3787 0.40111 0.78129 0.0
C2658 C 0.34788 0.36481 0.75905 0.0
C2659 C 0.33742 0.34599 0.75954 0.0
C2660 C 0.31964 0.34234 0.76242 0.0
C2661 C 0.31316 0.35848 0.7651 0.0
C2662 C 0.32351 0.37704 0.76477 0.0
H2663 H 0.38928 0.41131 0.79135 0.0
H2664 H 0.36985 0.39179 0.78881 0.0
H2665 H 0.38489 0.39225 0.77224 0.0
H2666 H 0.36116 0.36658 0.75613 0.0
H2667 H 0.34315 0.33429 0.75714 0.0
H2668 H 0.16512 0.61038 0.27077 0.0
H2669 H 0.18017 0.6434 0.27047 0.0
H2670 H 0.22906 0.63433 0.29116 0.0
H2671 H 0.2143 0.60135 0.29148 0.0
H2672 H 0.2128 0.67585 0.29945 0.0
H2673 H 0.22297 0.64046 0.23156 0.0
H2674 H 0.20461 0.63065 0.2429 0.0
H2675 H 0.22604 0.62925 0.25097 0.0
C2676 C 0.17897 0.61559 0.27587 0.0
C2677 C 0.18872 0.60328 0.28059 0.0
C2678 C 0.18745 0.63441 0.27578 0.0
C2679 C 0.20559 0.64087 0.28058 0.0
C2680 C 0.21498 0.6293 0.28744 0.0
H2681 H 0.28978 0.73543 0.27922 0.0
H2682 H 0.26994 0.7053 0.28279 0.0
C2683 C 0.20656 0.61051 0.2875 0.0
C2684 C 0.2152 0.658 0.2749 0.0
H2685 H 0.23893 0.67247 0.24153 0.0
C2686 C 0.21839 0.67528 0.28674 0.0
C2687 C 0.22215 0.65684 0.25818 0.0
C2688 C 0.21874 0.63835 0.24505 0.0
C2689 C 0.22918 0.69165 0.28252 0.0
C2690 C 0.23683 0.69028 0.26624 0.0
C2691 C 0.23299 0.67316 0.25403 0.0
C2692 C 0.2495 0.70642 0.2621 0.0
C2693 C 0.23259 0.71023 0.2955 0.0
C2694 C 0.24467 0.71595 0.24852 0.0
C2695 C 0.25607 0.73272 0.24616 0.0
C2696 C 0.27215 0.73994 0.25753 0.0
C2697 C 0.27739 0.7298 0.27034 0.0
C2698 C 0.26612 0.71287 0.27246 0.0
H2699 H 0.22366 0.70934 0.3061 0.0
H2700 H 0.24625 0.71441 0.30252 0.0
H2701 H 0.23102 0.72155 0.28782 0.0
H2702 H 0.2318 0.71094 0.24048 0.0
H2703 H 0.25179 0.74075 0.23651 0.0
H2704 H 0.50575 0.71516 0.45221 0.0
H2705 H 0.50885 0.68839 0.4668 0.0
H2706 H 0.56383 0.70277 0.46149 0.0
H2707 H 0.56095 0.7301 0.44811 0.0
H2708 H 0.51704 0.65755 0.45605 0.0
H2709 H 0.56872 0.69741 0.51303 0.0
H2710 H 0.55757 0.70919 0.49841 0.0
H2711 H 0.57555 0.70066 0.49128 0.0
C2712 C 0.51852 0.71271 0.45437 0.0
C2713 C 0.53315 0.72497 0.44924 0.0
C2714 C 0.52031 0.69735 0.4627 0.0
C2715 C 0.53671 0.69365 0.46584 0.0
C2716 C 0.55117 0.70559 0.46009 0.0
H2717 H 0.57449 0.60496 0.50807 0.0
H2718 H 0.57114 0.6326 0.49523 0.0
C2719 C 0.54948 0.72119 0.45224 0.0
C2720 C 0.53857 0.67705 0.47452 0.0
H2721 H 0.56309 0.66388 0.50788 0.0
C2722 C 0.52704 0.65904 0.4675 0.0
C2723 C 0.55164 0.6787 0.48946 0.0
C2724 C 0.56394 0.69757 0.49859 0.0
C2725 C 0.5284 0.64278 0.47459 0.0
C2726 C 0.54153 0.64444 0.48946 0.0
C2727 C 0.55305 0.66244 0.49649 0.0
C2728 C 0.54362 0.62777 0.49784 0.0
C2729 C 0.51603 0.6239 0.46562 0.0
C2730 C 0.52946 0.61592 0.50412 0.0
C2731 C 0.53129 0.5999 0.51118 0.0
C2732 C 0.54748 0.59559 0.5127 0.0
C2733 C 0.56186 0.6079 0.50721 0.0
C2734 C 0.55993 0.62372 0.4998 0.0
H2735 H 0.5107 0.6241 0.45137 0.0
H2736 H 0.52257 0.61238 0.46535 0.0
H2737 H 0.5048 0.62059 0.47343 0.0
H2738 H 0.5169 0.61897 0.5035 0.0
H2739 H 0.51998 0.59086 0.51545 0.0
H2740 H 0.62072 0.28078 0.66503 0.0
H2741 H 0.6481 0.27797 0.68076 0.0
H2742 H 0.67466 0.33397 0.67301 0.0
H2743 H 0.64733 0.33664 0.65668 0.0
H2744 H 0.68489 0.28515 0.6657 0.0
H2745 H 0.68217 0.33005 0.73136 0.0
H2746 H 0.66277 0.31756 0.71541 0.0
H2747 H 0.67741 0.33833 0.71042 0.0
C2748 C 0.63232 0.29262 0.66682 0.0
C2749 C 0.63165 0.30908 0.65977 0.0
C2750 C 0.64807 0.29091 0.67571 0.0
C2751 C 0.66357 0.30575 0.67821 0.0
C2752 C 0.66294 0.32228 0.67133 0.0
H2753 H 0.76721 0.32528 0.74224 0.0
H2754 H 0.7419 0.32784 0.72225 0.0
C2755 C 0.64726 0.32384 0.66203 0.0
C2756 C 0.68026 0.30403 0.68825 0.0
H2757 H 0.70708 0.31876 0.7294 0.0
C2758 C 0.68974 0.2925 0.67963 0.0
C2759 C 0.68669 0.31352 0.70646 0.0
C2760 C 0.67678 0.32552 0.71663 0.0
C2761 C 0.70546 0.29047 0.68858 0.0
C2762 C 0.71191 0.29996 0.70686 0.0
C2763 C 0.70238 0.3115 0.71542 0.0
C2764 C 0.72832 0.29798 0.71745 0.0
C2765 C 0.71525 0.27847 0.67823 0.0
C2766 C 0.72954 0.28033 0.7214 0.0
C2767 C 0.7441 0.27888 0.73284 0.0
C2768 C 0.75804 0.29495 0.74045 0.0
C2769 C 0.75705 0.3125 0.73611 0.0
C2770 C 0.74242 0.31401 0.72483 0.0
H2771 H 0.7112 0.27611 0.66321 0.0
H2772 H 0.72959 0.28514 0.6812 0.0
H2773 H 0.7125 0.26445 0.68256 0.0
H2774 H 0.71883 0.26774 0.71634 0.0
H2775 H 0.74409 0.26526 0.73644 0.0
H2776 H 0.03953 0.33904 0.93048 0.0
H2777 H 0.04458 0.37256 0.9439 0.0
H2778 H 0.01753 0.35628 0.98884 0.0
H2779 H 0.01234 0.32293 0.97555 0.0
H2780 H 0.01704 0.39036 0.95165 0.0
H2781 H 0.0637 0.39634 0.01363 0.0
H2782 H 0.06016 0.37777 0.99395 0.0
H2783 H 0.0449 0.37613 0.01029 0.0
C2784 C 0.03491 0.34262 0.94337 0.0
C2785 C 0.02553 0.32832 0.95196 0.0
C2786 C 0.03774 0.36176 0.95097 0.0
C2787 C 0.03154 0.36689 0.96743 0.0
C2788 C 0.02262 0.35264 0.97626 0.0
H2789 H 0.01845 0.46722 0.03368 0.0
H2790 H 0.01627 0.43465 0.01855 0.0
C2791 C 0.01961 0.33357 0.96859 0.0
C2792 C 0.03331 0.38702 0.97497 0.0
H2793 H 0.04942 0.42087 0.01328 0.0
C2794 C 0.02426 0.39712 0.96504 0.0
C2795 C 0.04279 0.39581 0.9924 0.0
C2796 C 0.05359 0.38605 1.00315 0.0
C2797 C 0.02394 0.41554 0.97242 0.0
C2798 C 0.03288 0.42401 0.99012 0.0
C2799 C 0.04229 0.41413 0.99985 0.0
C2800 C 0.03319 0.44343 0.99855 0.0
C2801 C 0.01375 0.42575 0.96148 0.0
C2802 C 0.04337 0.45896 0.99226 0.0
C2803 C 0.04481 0.47733 1.001 0.0
C2804 C 0.03592 0.48048 0.01601 0.0
C2805 C 0.02531 0.46502 0.02205 0.0
C2806 C 0.02411 0.44653 0.01347 0.0
H2807 H 1.00539 0.41622 0.94921 0.0
H2808 H 1.00536 0.43202 0.97011 0.0
H2809 H 0.02302 0.43751 0.95688 0.0
H2810 H 0.05054 0.45684 0.98086 0.0
H2811 H 0.05301 0.48915 0.99612 0.0
H2812 H 0.01969 0.82388 0.15323 0.0
H2813 H 0.99048 0.81586 0.1629 0.0
H2814 H 0.99524 0.76034 0.16845 0.0
H2815 H 0.02456 0.76857 0.15977 0.0
H2816 H 0.96018 0.78905 0.1496 0.0
H2817 H 0.9839 0.77678 0.21793 0.0
H2818 H 0.99867 0.78717 0.20306 0.0
H2819 H 0.98912 0.76194 0.19932 0.0
C2820 C 0.01456 0.81007 0.15675 0.0
C2821 C 0.02465 0.79708 0.15624 0.0
C2822 C 0.99782 0.80543 0.16215 0.0
C2823 C 0.99078 0.78764 0.16692 0.0
C2824 C 1.00057 0.77439 0.16556 0.0
H2825 H 0.89364 0.74475 0.21312 0.0
H2826 H 0.91879 0.7455 0.19639 0.0
C2827 C 0.01737 0.77914 0.16055 0.0
C2828 C 0.97342 0.78309 0.17363 0.0
H2829 H 0.95335 0.76997 0.21008 0.0
C2830 C 0.95872 0.78489 0.16283 0.0
C2831 C 0.97136 0.77741 0.19083 0.0
C2832 C 0.98662 0.77586 0.20353 0.0
C2833 C 0.94219 0.7815 0.16888 0.0
C2834 C 0.94032 0.77634 0.18624 0.0
C2835 C 0.95481 0.77388 0.19675 0.0
C2836 C 0.92396 0.77518 0.19458 0.0
C2837 C 0.92684 0.78349 0.15669 0.0
C2838 C 0.91851 0.79158 0.19912 0.0
C2839 C 0.90432 0.79127 0.20883 0.0
C2840 C 0.8952 0.77451 0.21428 0.0
C2841 C 0.90045 0.75795 0.20933 0.0
C2842 C 0.91474 0.75831 0.19966 0.0
H2843 H 0.92923 0.78265 0.14219 0.0
H2844 H 0.91476 0.77233 0.15745 0.0
H2845 H 0.92457 0.79745 0.16131 0.0
H2846 H 0.92568 0.80486 0.19575 0.0
H2847 H 0.90098 0.8044 0.2127 0.0
H2848 H 0.51553 0.3171 0.1441 0.0
H2849 H 0.52879 0.34757 0.13514 0.0
H2850 H 0.53293 0.31835 0.08204 0.0
H2851 H 0.51987 0.28795 0.09085 0.0
H2852 H 0.56463 0.35721 0.11813 0.0
H2853 H 0.50398 0.35969 0.07635 0.0
H2854 H 0.50357 0.34642 0.09483 0.0
H2855 H 0.50926 0.33738 0.07327 0.0
C2856 C 0.51902 0.31723 0.13042 0.0
C2857 C 0.51651 0.30023 0.11807 0.0
C2858 C 0.52676 0.33457 0.12545 0.0
C2859 C 0.53185 0.33504 0.10802 0.0
C2860 C 0.5291 0.31814 0.09559 0.0
H2861 H 0.56769 0.40847 0.03612 0.0
H2862 H 0.56352 0.38316 0.054 0.0
C2863 C 0.52155 0.30085 0.10059 0.0
C2864 C 0.53951 0.35315 0.10232 0.0
H2865 H 0.53048 0.38134 0.07283 0.0
C2866 C 0.55718 0.36273 0.10844 0.0
C2867 C 0.52964 0.36013 0.08973 0.0
C2868 C 0.51051 0.3505 0.0832 0.0
C2869 C 0.56544 0.37888 0.10157 0.0
C2870 C 0.55568 0.38535 0.08841 0.0
C2871 C 0.53789 0.37613 0.08285 0.0
C2872 C 0.56352 0.40127 0.07949 0.0
C2873 C 0.58457 0.38857 0.1078 0.0
C2874 C 0.56573 0.41991 0.08822 0.0
C2875 C 0.56825 0.43452 0.07804 0.0
C2876 C 0.56836 0.43054 0.059 0.0
C2877 C 0.56779 0.41208 0.05074 0.0
C2878 C 0.56534 0.39756 0.06092 0.0
H2879 H 0.59055 0.38121 0.1175 0.0
H2880 H 0.59177 0.38921 0.09578 0.0
H2881 H 0.58616 0.40336 0.11461 0.0
H2882 H 0.56423 0.42295 0.10254 0.0
H2883 H 0.56899 0.44868 0.08485 0.0
H2884 H 0.05629 0.34634 0.3493 0.0
H2885 H 0.02716 0.34083 0.33202 0.0
H2886 H 0.00781 0.29211 0.35712 0.0
H2887 H 0.03648 0.29829 0.37513 0.0
H2888 H 0.00857 0.31142 0.30735 0.0
H2889 H 0.97146 0.31891 0.36594 0.0
H2890 H 0.99504 0.32554 0.36875 0.0
H2891 H 0.98286 0.30114 0.36684 0.0
C2892 C 0.0457 0.33461 0.35118 0.0
C2893 C 0.04838 0.32285 0.36359 0.0
C2894 C 0.02915 0.33146 0.34136 0.0
C2895 C 0.01528 0.31629 0.34361 0.0
C2896 C 0.01816 0.30427 0.35567 0.0
H2897 H 0.90601 0.2782 0.29471 0.0
H2898 H 0.93513 0.27755 0.30786 0.0
C2899 C 0.03453 0.30773 0.36584 0.0
C2900 C 0.99792 0.31264 0.33287 0.0
H2901 H 0.95471 0.30665 0.33663 0.0
C2902 C 0.99679 0.31041 0.31375 0.0
C2903 C 0.9826 0.31125 0.3413 0.0
C2904 C 0.98305 0.31453 0.36184 0.0
C2905 C 0.9807 0.30688 0.30277 0.0
C2906 C 0.96544 0.30556 0.3112 0.0
C2907 C 0.96649 0.30742 0.33027 0.0
C2908 C 0.9485 0.30426 0.30077 0.0
C2909 C 0.98015 0.30468 0.28227 0.0
C2910 C 0.94659 0.31934 0.29227 0.0
C2911 C 0.93009 0.31981 0.2849 0.0
C2912 C 0.91522 0.30526 0.28604 0.0
C2913 C 0.91726 0.28968 0.2938 0.0
C2914 C 0.93383 0.28924 0.30122 0.0
H2915 H 0.99168 0.30047 0.27774 0.0
H2916 H 0.96804 0.29399 0.27512 0.0
H2917 H 0.98031 0.31844 0.27806 0.0
H2918 H 0.95773 0.33127 0.29223 0.0
H2919 H 0.92889 0.33216 0.27933 0.0
H2920 H 0.967 0.69051 0.62124 0.0
H2921 H 0.97675 0.66371 0.60638 0.0
H2922 H 0.02971 0.69968 0.61358 0.0
H2923 H 0.02004 0.72622 0.62803 0.0
H2924 H 0.99654 0.66688 0.57408 0.0
H2925 H 0.03263 0.65081 0.63468 0.0
H2926 H 0.01602 0.6633 0.63671 0.0
H2927 H 0.03729 0.67521 0.63204 0.0
C2928 C 0.98061 0.69252 0.61939 0.0
C2929 C 0.99283 0.71012 0.62528 0.0
C2930 C 0.98618 0.67736 0.6112 0.0
C2931 C 1.00394 0.6799 0.60937 0.0
C2932 C 0.01604 0.69755 0.61527 0.0
H2933 H 0.0592 0.60601 0.55445 0.0
H2934 H 0.0532 0.63235 0.57454 0.0
C2935 C 0.01049 0.71263 0.6232 0.0
C2936 C 0.00976 0.66461 0.59981 0.0
H2937 H 0.03477 0.63451 0.60551 0.0
C2938 C 1.00478 0.65966 0.5809 0.0
C2939 C 0.02103 0.65596 0.6089 0.0
C2940 C 0.02703 0.66147 0.62924 0.0
C2941 C 0.01057 0.64582 0.57068 0.0
C2942 C 0.02103 0.63636 0.57986 0.0
C2943 C 0.02655 0.64175 0.59872 0.0
C2944 C 0.02514 0.6199 0.57011 0.0
C2945 C 1.00549 0.64149 0.55016 0.0
C2946 C 0.01135 0.60417 0.56181 0.0
C2947 C 0.01466 0.58958 0.55016 0.0
C2948 C 0.03184 0.59039 0.54718 0.0
C2949 C 0.04584 0.60538 0.55661 0.0
C2950 C 0.04247 0.62027 0.56802 0.0
H2951 H 1.00243 0.65371 0.54493 0.0
H2952 H 0.01609 0.63775 0.54309 0.0
H2953 H 0.99359 0.62932 0.54655 0.0
H2954 H 0.99795 0.6036 0.56375 0.0
H2955 H 1.00379 0.57784 0.54323 0.0
H2956 H 0.65439 0.82979 0.88195 0.0
H2957 H 0.67778 0.82533 0.86422 0.0
H2958 H 0.63933 0.79762 0.81698 0.0
H2959 H 0.61608 0.80276 0.83432 0.0
H2960 H 0.68287 0.79284 0.84882 0.0
H2961 H 0.67341 0.835 0.79524 0.0
H2962 H 0.66303 0.83624 0.81567 0.0
H2963 H 0.65365 0.81737 0.79645 0.0
C2964 C 0.65102 0.82285 0.86776 0.0
C2965 C 0.63356 0.81663 0.8594 0.0
C2966 C 0.66432 0.82038 0.85767 0.0
C2967 C 0.6602 0.81148 0.83926 0.0
C2968 C 0.64274 0.80504 0.83102 0.0
H2969 H 0.72345 0.76864 0.7635 0.0
H2970 H 0.69871 0.77173 0.77998 0.0
C2971 C 0.62951 0.80783 0.84096 0.0
C2972 C 0.67404 0.80789 0.82887 0.0
H2973 H 0.69106 0.81384 0.78929 0.0
C2974 C 0.68471 0.79747 0.83583 0.0
C2975 C 0.67638 0.81409 0.81201 0.0
C2976 C 0.66612 0.82647 0.80452 0.0
C2977 C 0.69765 0.79291 0.82619 0.0
C2978 C 0.69962 0.79872 0.80919 0.0
C2979 C 0.68902 0.80908 0.80219 0.0
C2980 C 0.71408 0.79626 0.79951 0.0
C2981 C 0.70934 0.78224 0.83427 0.0
C2982 C 0.73045 0.80928 0.80509 0.0
C2983 C 0.74427 0.80785 0.79559 0.0
C2984 C 0.74187 0.79325 0.78052 0.0
C2985 C 0.72544 0.78009 0.77499 0.0
C2986 C 0.71146 0.78174 0.78438 0.0
H2987 H 0.70445 0.77639 0.84627 0.0
H2988 H 0.71045 0.77048 0.8238 0.0
H2989 H 0.72266 0.79197 0.83875 0.0
H2990 H 0.73251 0.82055 0.81677 0.0
H2991 H 0.75695 0.81789 0.8004 0.0
H2992 H 0.47267 0.53835 0.718 0.0
H2993 H 0.48738 0.53687 0.69051 0.0
H2994 H 0.46824 0.58215 0.67484 0.0
H2995 H 0.45289 0.58318 0.70204 0.0
H2996 H 0.47208 0.53046 0.65056 0.0
H2997 H 0.523 0.59903 0.67081 0.0
H2998 H 0.51184 0.58678 0.68735 0.0
H2999 H 0.50089 0.5993 0.67358 0.0
C3000 C 0.47154 0.54813 0.70884 0.0
C3001 C 0.46131 0.56093 0.7128 0.0
C3002 C 0.48006 0.54722 0.69283 0.0
C3003 C 0.47934 0.55943 0.68005 0.0
C3004 C 0.46939 0.57248 0.68412 0.0
H3005 H 0.53181 0.58102 0.58017 0.0
H3006 H 0.51638 0.58228 0.60718 0.0
C3007 C 0.46045 0.57305 0.6999 0.0
C3008 C 0.48852 0.55816 0.66252 0.0
H3009 H 0.52163 0.58237 0.64103 0.0
C3010 C 0.48294 0.54188 0.64862 0.0
C3011 C 0.50281 0.57281 0.65928 0.0
C3012 C 0.51018 0.59047 0.67352 0.0
C3013 C 0.49058 0.54009 0.63198 0.0
C3014 C 0.50507 0.55467 0.62873 0.0
C3015 C 0.51069 0.57094 0.64279 0.0
C3016 C 0.51428 0.55349 0.61108 0.0
C3017 C 0.48232 0.52264 0.6177 0.0
C3018 C 0.51885 0.53703 0.60328 0.0
C3019 C 0.52736 0.53616 0.58724 0.0
C3020 C 0.53205 0.55176 0.57809 0.0
C3021 C 0.52795 0.56835 0.58608 0.0
C3022 C 0.51921 0.56915 0.60195 0.0
H3023 H 0.46841 0.5164 0.61918 0.0
H3024 H 0.48288 0.5258 0.60365 0.0
H3025 H 0.48935 0.51179 0.61945 0.0
H3026 H 0.51636 0.52479 0.6099 0.0
H3027 H 0.53093 0.52336 0.5824 0.0
H3028 H 0.7833 0.1544 0.96082 0.0
H3029 H 0.77105 0.16075 0.93178 0.0
H3030 H 0.7799 0.21934 0.95615 0.0
H3031 H 0.79201 0.21314 0.98525 0.0
H3032 H 0.74041 0.18216 0.9294 0.0
H3033 H 0.8039 0.21378 0.906 0.0
H3034 H 0.80167 0.19693 0.92141 0.0
H3035 H 0.8021 0.22099 0.9297 0.0
C3036 C 0.78307 0.16874 0.95984 0.0
C3037 C 0.78883 0.18338 0.97516 0.0
C3038 C 0.77582 0.17223 0.94338 0.0
C3039 C 0.77452 0.19042 0.94206 0.0
C3040 C 0.78079 0.20519 0.9571 0.0
H3041 H 0.74886 0.26252 0.87951 0.0
H3042 H 0.74658 0.24133 0.90164 0.0
C3043 C 0.78785 0.20169 0.97358 0.0
C3044 C 0.76692 0.19438 0.92491 0.0
H3045 H 0.77843 0.21886 0.89086 0.0
C3046 C 0.74863 0.18985 0.92069 0.0
C3047 C 0.77779 0.20433 0.91374 0.0
C3048 C 0.79748 0.20923 0.91779 0.0
C3049 C 0.74096 0.19608 0.90593 0.0
C3050 C 0.75191 0.20687 0.8954 0.0
C3051 C 0.77013 0.21048 0.89906 0.0
C3052 C 0.74528 0.21655 0.88173 0.0
C3053 C 0.72136 0.19186 0.902 0.0
C3054 C 0.74398 0.20916 0.86312 0.0
C3055 C 0.74501 0.2212 0.85034 0.0
C3056 C 0.74784 0.24077 0.85621 0.0
C3057 C 0.74668 0.24754 0.87453 0.0
C3058 C 0.74539 0.23544 0.88724 0.0
H3059 H 0.71456 0.18185 0.9104 0.0
H3060 H 0.71754 0.20525 0.90487 0.0
H3061 H 0.7169 0.18579 0.88728 0.0
H3062 H 0.74398 0.19459 0.85874 0.0
H3063 H 0.74546 0.21556 0.8362 0.0
H3064 H 0.16606 0.53542 0.19552 0.0
H3065 H 0.15185 0.54062 0.16673 0.0
H3066 H 0.11112 0.55515 0.19501 0.0
H3067 H 0.1248 0.54939 0.22347 0.0
H3068 H 0.1122 0.51708 0.15845 0.0
H3069 H 0.1266 0.59428 0.15677 0.0
H3070 H 0.1421 0.5841 0.16801 0.0
H3071 H 0.12326 0.58665 0.17833 0.0
C3072 C 0.15407 0.53969 0.19544 0.0
C3073 C 0.14606 0.54136 0.2113 0.0
C3074 C 0.14624 0.54301 0.17924 0.0
C3075 C 0.13077 0.54861 0.17911 0.0
C3076 C 0.12326 0.55116 0.19513 0.0
H3077 H 0.04423 0.54975 0.10252 0.0
H3078 H 0.06562 0.55421 0.12997 0.0
C3079 C 0.1308 0.5474 0.21115 0.0
C3080 C 0.12019 0.54749 0.16185 0.0
H3081 H 0.1033 0.57361 0.13503 0.0
C3082 C 0.11043 0.52938 0.15307 0.0
C3083 C 0.11776 0.56372 0.15554 0.0
C3084 C 0.12801 0.58335 0.16505 0.0
C3085 C 0.09778 0.52697 0.13814 0.0
C3086 C 0.09543 0.54313 0.13159 0.0
C3087 C 0.10533 0.56133 0.14023 0.0
C3088 C 0.08291 0.54109 0.11543 0.0
C3089 C 0.08664 0.50723 0.12989 0.0
C3090 C 0.08565 0.53197 0.09862 0.0
C3091 C 0.07334 0.52897 0.08333 0.0
C3092 C 0.05854 0.53549 0.0847 0.0
C3093 C 0.05561 0.54446 0.1015 0.0
C3094 C 0.06785 0.54727 0.11693 0.0
H3095 H 0.0871 0.49708 0.13936 0.0
H3096 H 0.07279 0.5071 0.12625 0.0
H3097 H 0.09154 0.50216 0.1172 0.0
H3098 H 0.09726 0.52712 0.09738 0.0
H3099 H 0.07538 0.52164 0.07044 0.0
H3100 H 0.79637 0.8785 0.47195 0.0
H3101 H 0.79328 0.86751 0.43878 0.0
H3102 H 0.80777 0.81735 0.44835 0.0
H3103 H 0.81114 0.82832 0.48142 0.0
H3104 H 0.82232 0.85948 0.42058 0.0
H3105 H 0.76329 0.79795 0.4084 0.0
H3106 H 0.7677 0.81684 0.42795 0.0
H3107 H 0.77898 0.79879 0.4277 0.0
C3108 C 0.79857 0.86496 0.46698 0.0
C3109 C 0.80405 0.8543 0.47932 0.0
C3110 C 0.79686 0.85874 0.44804 0.0
C3111 C 0.80023 0.84158 0.44111 0.0
C3112 C 0.80495 0.83054 0.4534 0.0
H3113 H 0.81418 0.78389 0.33531 0.0
H3114 H 0.81481 0.7951 0.36825 0.0
C3115 C 0.80693 0.83687 0.4723 0.0
C3116 C 0.80026 0.83584 0.42117 0.0
H3117 H 0.78089 0.80089 0.38442 0.0
C3118 C 0.81319 0.84675 0.41263 0.0
C3119 C 0.78833 0.81924 0.41083 0.0
C3120 C 0.77367 0.80756 0.41908 0.0
C3121 C 0.81477 0.8412 0.39415 0.0
C3122 C 0.8031 0.82438 0.38396 0.0
C3123 C 0.79 0.81362 0.39239 0.0
C3124 C 0.80377 0.81819 0.36428 0.0
C3125 C 0.82906 0.85315 0.38565 0.0
C3126 C 0.79746 0.82753 0.35127 0.0
C3127 C 0.79685 0.82101 0.33261 0.0
C3128 C 0.80279 0.8052 0.3266 0.0
C3129 C 0.80967 0.7962 0.33963 0.0
C3130 C 0.80995 0.80253 0.35837 0.0
H3131 H 0.83862 0.86419 0.39603 0.0
H3132 H 0.83613 0.84411 0.37806 0.0
H3133 H 0.82314 0.86026 0.37568 0.0
H3134 H 0.79261 0.83961 0.35555 0.0
H3135 H 0.79157 0.82826 0.32282 0.0
H3136 H 0.47171 0.52124 0.8139 0.0
H3137 H 0.48457 0.5203 0.84474 0.0
H3138 H 0.49303 0.58059 0.85946 0.0
H3139 H 0.47896 0.58122 0.82895 0.0
H3140 H 0.51336 0.53128 0.86403 0.0
H3141 H 0.47512 0.57048 0.90426 0.0
H3142 H 0.46996 0.56362 0.87978 0.0
H3143 H 0.48736 0.58454 0.88988 0.0
C3144 C 0.4762 0.53435 0.8237 0.0
C3145 C 0.47406 0.55129 0.81861 0.0
C3146 C 0.48367 0.53382 0.84158 0.0
C3147 C 0.48967 0.55026 0.85526 0.0
C3148 C 0.48802 0.56737 0.84995 0.0
H3149 H 0.54182 0.57063 0.97109 0.0
H3150 H 0.52989 0.57371 0.94045 0.0
C3151 C 0.4801 0.5678 0.83217 0.0
C3152 C 0.49798 0.54932 0.87454 0.0
H3153 H 0.49894 0.56392 0.92089 0.0
C3154 C 0.50996 0.53837 0.87636 0.0
C3155 C 0.49409 0.55856 0.8912 0.0
C3156 C 0.48081 0.5698 0.89123 0.0
C3157 C 0.51799 0.53654 0.89364 0.0
C3158 C 0.51399 0.54565 0.91024 0.0
C3159 C 0.50223 0.55681 0.9085 0.0
C3160 C 0.52167 0.54369 0.92935 0.0
C3161 C 0.53114 0.52515 0.89375 0.0
C3162 C 0.52115 0.52583 0.93412 0.0
C3163 C 0.52826 0.52405 0.95172 0.0
C3164 C 0.53592 0.54003 0.9656 0.0
C3165 C 0.53616 0.55789 0.96099 0.0
C3166 C 0.52922 0.55967 0.94328 0.0
H3167 H 0.53707 0.52459 0.88086 0.0
H3168 H 0.54181 0.5311 0.90542 0.0
H3169 H 0.52442 0.51039 0.89489 0.0
H3170 H 0.51496 0.51305 0.92428 0.0
H3171 H 0.52743 0.50999 0.95455 0.0
H3172 H 0.79693 0.15481 0.08979 0.0
H3173 H 0.79206 0.17197 0.11883 0.0
H3174 H 0.78763 0.21871 0.09234 0.0
H3175 H 0.79295 0.20208 0.06366 0.0
H3176 H 0.81668 0.21453 0.13152 0.0
H3177 H 0.74444 0.20313 0.1257 0.0
H3178 H 0.75422 0.18568 0.11485 0.0
H3179 H 0.75495 0.20679 0.10564 0.0
C3180 C 0.79505 0.1688 0.0903 0.0
C3181 C 0.79586 0.17744 0.07478 0.0
C3182 C 0.79202 0.17839 0.10669 0.0
C3183 C 0.78926 0.19636 0.10741 0.0
C3184 C 0.78957 0.20473 0.09182 0.0
H3185 H 0.79787 0.29105 0.19364 0.0
H3186 H 0.79209 0.27037 0.16344 0.0
C3187 C 0.79296 0.19539 0.07563 0.0
C3188 C 0.7887 0.20774 0.12493 0.0
H3189 H 0.76182 0.22592 0.15065 0.0
C3190 C 0.80472 0.21697 0.13581 0.0
C3191 C 0.773 0.2109 0.13009 0.0
C3192 C 0.7556 0.20108 0.11856 0.0
C3193 C 0.8055 0.22958 0.15187 0.0
C3194 C 0.78984 0.23278 0.15709 0.0
C3195 C 0.77375 0.22346 0.1463 0.0
C3196 C 0.79013 0.24471 0.17456 0.0
C3197 C 0.82303 0.23935 0.16326 0.0
C3198 C 0.7905 0.23682 0.19041 0.0
C3199 C 0.79375 0.24843 0.20741 0.0
C3200 C 0.79682 0.26811 0.20876 0.0
C3201 C 0.79565 0.27593 0.19284 0.0
C3202 C 0.79227 0.2642 0.17572 0.0
H3203 H 0.8341 0.23698 0.15614 0.0
H3204 H 0.82465 0.25482 0.16669 0.0
H3205 H 0.82366 0.2339 0.17631 0.0
H3206 H 0.78907 0.2218 0.1896 0.0
H3207 H 0.79459 0.24202 0.21949 0.0
H3208 H 0.15113 0.58227 0.30347 0.0
H3209 H 0.14903 0.59944 0.33328 0.0
H3210 H 0.13766 0.54705 0.35421 0.0
H3211 H 0.14025 0.52977 0.32419 0.0
H3212 H 0.1163 0.58875 0.34471 0.0
H3213 H 0.16902 0.58669 0.3978 0.0
H3214 H 0.17133 0.58469 0.37373 0.0
H3215 H 0.15943 0.56457 0.38244 0.0
C3216 C 0.14843 0.57449 0.31457 0.0
C3217 C 0.14531 0.55475 0.3117 0.0
C3218 C 0.1475 0.58433 0.33157 0.0
C3219 C 0.14334 0.57451 0.34586 0.0
C3220 C 0.14125 0.55486 0.34334 0.0
H3221 H 0.07643 0.55762 0.41508 0.0
H3222 H 0.09523 0.56373 0.39152 0.0
C3223 C 0.14242 0.54498 0.32626 0.0
C3224 C 0.13753 0.58398 0.3618 0.0
H3225 H 0.14207 0.59027 0.40825 0.0
C3226 C 0.12229 0.58976 0.35864 0.0
C3227 C 0.14548 0.58538 0.37983 0.0
C3228 C 0.16233 0.58017 0.38371 0.0
C3229 C 0.11373 0.59505 0.37313 0.0
C3230 C 0.1207 0.59455 0.39106 0.0
C3231 C 0.13691 0.59073 0.39439 0.0
C3232 C 0.10917 0.59221 0.40513 0.0
C3233 C 0.09632 0.5991 0.36904 0.0
C3234 C 0.11102 0.60629 0.4205 0.0
C3235 C 0.1002 0.60278 0.43403 0.0
C3236 C 0.08776 0.58518 0.43206 0.0
C3237 C 0.08594 0.5713 0.41662 0.0
C3238 C 0.09659 0.57479 0.40324 0.0
H3239 H 0.0951 0.60401 0.35574 0.0
H3240 H 0.08566 0.5859 0.36823 0.0
H3241 H 0.09447 0.60993 0.38006 0.0
H3242 H 0.12083 0.61976 0.42205 0.0
H3243 H 0.10169 0.61353 0.44603 0.0
H3244 H 0.80663 0.83831 0.57138 0.0
H3245 H 0.80232 0.82442 0.59899 0.0
H3246 H 0.79472 0.87626 0.62674 0.0
H3247 H 0.79866 0.89009 0.59911 0.0
H3248 H 0.82066 0.83418 0.63258 0.0
H3249 H 0.75338 0.83877 0.6391 0.0
H3250 H 0.7633 0.84248 0.61872 0.0
H3251 H 0.76813 0.86127 0.63827 0.0
C3252 C 0.80389 0.84675 0.58329 0.0
C3253 C 0.80295 0.86539 0.58284 0.0
C3254 C 0.80145 0.83876 0.59916 0.0
C3255 C 0.7979 0.84908 0.61507 0.0
C3256 C 0.79698 0.8677 0.61465 0.0
H3257 H 0.78661 0.82503 0.727 0.0
H3258 H 0.79098 0.84084 0.70026 0.0
C3259 C 0.79938 0.87569 0.59878 0.0
C3260 C 0.79587 0.84066 0.63223 0.0
H3261 H 0.76865 0.83123 0.66471 0.0
C3262 C 0.80923 0.83351 0.63951 0.0
C3263 C 0.78097 0.83962 0.64147 0.0
C3264 C 0.76554 0.84576 0.63391 0.0
C3265 C 0.80827 0.82575 0.65571 0.0
C3266 C 0.79348 0.82491 0.66503 0.0
C3267 C 0.78012 0.83206 0.6578 0.0
C3268 C 0.79123 0.81566 0.68163 0.0
C3269 C 0.82325 0.81868 0.66285 0.0
C3270 C 0.78974 0.79624 0.68022 0.0
C3271 C 0.78728 0.78728 0.69544 0.0
C3272 C 0.78633 0.79743 0.71267 0.0
C3273 C 0.78778 0.81689 0.71416 0.0
C3274 C 0.79009 0.82588 0.69877 0.0
H3275 H 0.83537 0.82462 0.65704 0.0
H3276 H 0.82604 0.82235 0.67801 0.0
H3277 H 0.81969 0.80303 0.65893 0.0
H3278 H 0.79024 0.78787 0.6672 0.0
H3279 H 0.78611 0.77225 0.69368 0.0
H3280 H 0.74413 0.42712 0.51182 0.0
H3281 H 0.7201 0.43846 0.52306 0.0
H3282 H 0.75216 0.49609 0.5305 0.0
H3283 H 0.77636 0.48488 0.51957 0.0
H3284 H 0.72588 0.47267 0.56155 0.0
H3285 H 0.70055 0.48134 0.49194 0.0
H3286 H 0.71179 0.46359 0.4952 0.0
H3287 H 0.72386 0.48806 0.49908 0.0
C3288 C 0.74593 0.44222 0.51558 0.0
C3289 C 0.7619 0.4552 0.51452 0.0
C3290 C 0.73235 0.44861 0.52224 0.0
C3291 C 0.73455 0.46802 0.52768 0.0
C3292 C 0.75041 0.48103 0.5265 0.0
H3293 H 0.67559 0.54422 0.55708 0.0
H3294 H 0.69805 0.52743 0.55419 0.0
C3295 C 0.76408 0.47464 0.52008 0.0
C3296 C 0.71984 0.47487 0.53333 0.0
H3297 H 0.68707 0.49201 0.51661 0.0
C3298 C 0.71725 0.47677 0.55178 0.0
C3299 C 0.70874 0.48007 0.52043 0.0
C3300 C 0.71122 0.47817 0.5005 0.0
C3301 C 0.70388 0.4843 0.55772 0.0
C3302 C 0.69304 0.48989 0.54484 0.0
C3303 C 0.69543 0.48756 0.52636 0.0
C3304 C 0.67991 0.49957 0.55023 0.0
C3305 C 0.70153 0.48664 0.57766 0.0
C3306 C 0.66237 0.48932 0.54921 0.0
C3307 C 0.64945 0.49887 0.55086 0.0
C3308 C 0.65397 0.51877 0.55347 0.0
C3309 C 0.67171 0.52892 0.55533 0.0
C3310 C 0.68456 0.51938 0.55368 0.0
H3311 H 0.71073 0.48106 0.58589 0.0
H3312 H 0.70365 0.50187 0.58327 0.0
H3313 H 0.6879 0.47916 0.5791 0.0
H3314 H 0.65862 0.47399 0.54639 0.0
H3315 H 0.63591 0.4907 0.5496 0.0
H3316 H 0.23595 0.17595 0.51401 0.0
H3317 H 0.20647 0.15909 0.51845 0.0
H3318 H 0.21193 0.10818 0.48624 0.0
H3319 H 0.24208 0.12481 0.48313 0.0
H3320 H 0.17774 0.14413 0.4988 0.0
H3321 H 0.19424 0.08518 0.52683 0.0
H3322 H 0.21092 0.10526 0.52313 0.0
H3323 H 0.20074 0.0858 0.50457 0.0
C3324 C 0.23087 0.16111 0.50795 0.0
C3325 C 0.24137 0.15168 0.49827 0.0
C3326 C 0.21394 0.15143 0.51048 0.0
C3327 C 0.20681 0.13208 0.50309 0.0
C3328 C 0.21715 0.12283 0.49281 0.0
H3329 H 0.10832 0.04832 0.48703 0.0
H3330 H 0.13719 0.06939 0.48719 0.0
C3331 C 0.23437 0.13239 0.4908 0.0
C3332 C 0.18854 0.12189 0.50585 0.0
H3333 H 0.16391 0.08076 0.51644 0.0
C3334 C 0.17483 0.13036 0.50287 0.0
C3335 C 0.18447 0.10402 0.51155 0.0
C3336 C 0.19842 0.09467 0.51691 0.0
C3337 C 0.15732 0.12118 0.50449 0.0
C3338 C 0.1532 0.10288 0.5091 0.0
C3339 C 0.16694 0.09469 0.51269 0.0
C3340 C 0.13472 0.09113 0.50864 0.0
C3341 C 0.14328 0.13088 0.50067 0.0
C3342 C 0.12326 0.09633 0.52047 0.0
C3343 C 0.10638 0.08414 0.52032 0.0
C3344 C 0.10076 0.06652 0.50843 0.0
C3345 C 0.11213 0.06174 0.49639 0.0
C3346 C 0.12877 0.0738 0.4965 0.0
H3347 H 0.14807 0.14349 0.49427 0.0
H3348 H 0.13182 0.12095 0.49154 0.0
H3349 H 0.13878 0.13559 0.51374 0.0
H3350 H 0.12756 0.10948 0.5302 0.0
H3351 H 0.0981 0.08813 0.52998 0.0
H3352 H 0.19774 0.95466 0.78116 0.0
H3353 H 0.21153 0.92854 0.77949 0.0
H3354 H 0.21731 0.93186 0.72319 0.0
H3355 H 0.2046 0.95866 0.72529 0.0
H3356 H 0.20782 0.89497 0.76605 0.0
H3357 H 0.26384 0.92753 0.73265 0.0
H3358 H 0.24911 0.94066 0.7406 0.0
H3359 H 0.24358 0.92492 0.71869 0.0
C3360 C 0.20213 0.95009 0.76841 0.0
C3361 C 0.20008 0.95961 0.75351 0.0
C3362 C 0.21013 0.93478 0.76739 0.0
C3363 C 0.21652 0.92779 0.75136 0.0
C3364 C 0.21374 0.93687 0.73624 0.0
H3365 H 0.26029 0.82697 0.72107 0.0
H3366 H 0.24578 0.85262 0.72098 0.0
C3367 C 0.20607 0.95241 0.73736 0.0
C3368 C 0.22559 0.91117 0.75053 0.0
H3369 H 0.25964 0.89512 0.7344 0.0
C3370 C 0.21925 0.89539 0.75919 0.0
C3371 C 0.24071 0.91061 0.74165 0.0
C3372 C 0.24982 0.9269 0.73304 0.0
C3373 C 0.22705 0.8799 0.75909 0.0
C3374 C 0.24202 0.87938 0.75016 0.0
C3375 C 0.24827 0.89492 0.74132 0.0
C3376 C 0.25136 0.8632 0.75014 0.0
C3377 C 0.21887 0.86376 0.76836 0.0
C3378 C 0.26 0.85991 0.76638 0.0
C3379 C 0.26888 0.84538 0.76635 0.0
C3380 C 0.26927 0.83285 0.75017 0.0
C3381 C 0.26044 0.83595 0.73395 0.0
C3382 C 0.25203 0.85088 0.73389 0.0
H3383 H 0.20551 0.86392 0.77127 0.0
H3384 H 0.21813 0.84996 0.75976 0.0
H3385 H 0.22713 0.86487 0.78152 0.0
H3386 H 0.26011 0.86883 0.77927 0.0
H3387 H 0.27529 0.84378 0.77924 0.0
H3388 H 0.34934 0.96137 0.97655 0.0
H3389 H 0.38047 0.97795 0.98652 0.0
H3390 H 0.3794 0.95064 0.03383 0.0
H3391 H 0.34892 0.93341 0.02345 0.0
H3392 H 0.39621 1.00242 0.0174 0.0
H3393 H 0.42015 0.93819 0.01322 0.0
H3394 H 0.39824 0.9373 0.00389 0.0
H3395 H 0.40372 0.93805 0.02802 0.0
C3396 C 0.35592 0.9589 0.98895 0.0
C3397 C 0.34705 0.94604 0.99911 0.0
C3398 C 0.37355 0.96832 0.99465 0.0
C3399 C 0.38219 0.96516 0.0107 0.0
C3400 C 0.37308 0.95277 0.02113 0.0
H3401 H 0.49309 0.00927 0.05394 0.0
H3402 H 0.4615 1.00049 0.0553 0.0
C3403 C 0.35571 0.94303 0.01521 0.0
C3404 C 0.40072 0.97492 0.0167 0.0
H3405 H 0.44057 0.96727 0.02633 0.0
C3406 C 0.40592 0.99477 0.01942 0.0
C3407 C 0.41324 0.96479 0.01947 0.0
C3408 C 0.4086 0.94341 0.01583 0.0
C3409 C 0.42354 1.00479 0.02426 0.0
C3410 C 0.43597 0.9946 0.0266 0.0
C3411 C 0.43074 0.97488 0.02478 0.0
C3412 C 0.4546 1.00344 0.02735 0.0
C3413 C 0.42887 0.02605 0.02618 0.0
C3414 C 0.46079 0.00781 0.01116 0.0
C3415 C 0.47859 0.01236 0.01023 0.0
C3416 C 0.49038 0.01267 0.02554 0.0
C3417 C 0.48418 0.00901 0.04198 0.0
C3418 C 0.46628 1.00421 0.04284 0.0
H3419 H 0.41765 0.03205 0.02821 0.0
H3420 H 0.43947 0.03253 0.03785 0.0
H3421 H 0.43395 0.02999 0.01354 0.0
H3422 H 0.45179 0.00684 0.999 0.0
H3423 H 0.48308 0.0155 0.99747 0.0
H3424 H 0.89268 0.56755 0.75908 0.0
H3425 H 0.88168 0.59082 0.74543 0.0
H3426 H 0.88116 0.62106 0.79938 0.0
H3427 H 0.8934 0.5983 0.81315 0.0
H3428 H 0.85236 0.59881 0.7468 0.0
H3429 H 0.90491 0.66385 0.77622 0.0
H3430 H 0.9073 0.64055 0.77759 0.0
H3431 H 0.89636 0.65197 0.79398 0.0
C3432 C 0.89011 0.57913 0.76803 0.0
C3433 C 0.89362 0.58115 0.78714 0.0
C3434 C 0.88398 0.59247 0.76021 0.0
C3435 C 0.88095 0.60786 0.77137 0.0
C3436 C 0.88401 0.60963 0.79053 0.0
H3437 H 0.82023 0.67941 0.77584 0.0
H3438 H 0.83923 0.65854 0.77689 0.0
C3439 C 0.89068 0.59653 0.79839 0.0
C3440 C 0.87347 0.6213 0.76292 0.0
H3441 H 0.87663 0.66827 0.76596 0.0
C3442 C 0.85792 0.61401 0.75059 0.0
C3443 C 0.88095 0.6411 0.76757 0.0
C3444 C 0.89841 0.64979 0.7794 0.0
C3445 C 0.8488 0.62604 0.74413 0.0
C3446 C 0.85541 0.64571 0.75029 0.0
C3447 C 0.87164 0.65309 0.76137 0.0
C3448 C 0.84409 0.65829 0.74883 0.0
C3449 C 0.8315 0.61767 0.73196 0.0
C3450 C 0.84051 0.66479 0.73256 0.0
C3451 C 0.82955 0.67674 0.7319 0.0
C3452 C 0.82232 0.68229 0.74757 0.0
C3453 C 0.82591 0.67556 0.7637 0.0
C3454 C 0.83669 0.66365 0.76431 0.0
H3455 H 0.82858 0.60208 0.72774 0.0
H3456 H 0.82083 0.62086 0.73927 0.0
H3457 H 0.83157 0.62419 0.71949 0.0
H3458 H 0.8462 0.66069 0.72051 0.0
H3459 H 0.82693 0.68184 0.71934 0.0
H3460 H 0.85688 0.68293 0.01612 0.0
H3461 H 0.88357 0.67356 0.02468 0.0
H3462 H 0.85205 0.62114 0.03605 0.0
H3463 H 0.82542 0.63057 0.02795 0.0
H3464 H 0.89012 0.65362 0.06379 0.0
H3465 H 0.88984 0.61666 0.99307 0.0
H3466 H 0.88163 0.63718 0.99731 0.0
H3467 H 0.86924 0.6149 1.00176 0.0
C3468 C 0.85565 0.66934 0.02029 0.0
C3469 C 0.83902 0.65738 0.02115 0.0
C3470 C 0.87091 0.66411 0.02536 0.0
C3471 C 0.86979 0.64671 0.03112 0.0
C3472 C 0.85322 0.63471 0.03184 0.0
H3473 H 0.93185 0.57228 0.05174 0.0
H3474 H 0.9099 0.58983 0.05026 0.0
C3475 C 0.83801 0.64006 0.02708 0.0
C3476 C 0.88577 0.64042 0.03541 0.0
H3477 H 0.90996 0.61274 0.01634 0.0
C3478 C 0.89462 0.64487 0.0534 0.0
C3479 C 0.89163 0.62905 0.02186 0.0
C3480 C 0.88272 0.62413 1.00235 0.0
C3481 C 0.9089 0.63776 0.05819 0.0
C3482 C 0.91434 0.62586 0.04469 0.0
C3483 C 0.90575 0.62184 0.02668 0.0
C3484 C 0.92824 0.61647 0.04895 0.0
C3485 C 0.91785 0.64248 0.07768 0.0
C3486 C 0.94598 0.62573 0.04914 0.0
C3487 C 0.95867 0.61569 0.04998 0.0
C3488 C 0.95386 0.59617 0.05063 0.0
C3489 C 0.93615 0.58728 0.05143 0.0
C3490 C 0.92352 0.59728 0.05052 0.0
H3491 H 0.91206 0.65189 0.08663 0.0
H3492 H 0.91688 0.62924 0.08325 0.0
H3493 H 0.93196 0.64956 0.07805 0.0
H3494 H 0.94991 0.64052 0.04788 0.0
H3495 H 0.97218 0.6231 0.04961 0.0
H3496 H 0.17455 0.08077 0.77073 0.0
H3497 H 0.19029 0.11285 0.76791 0.0
H3498 H 0.23872 0.09722 0.77148 0.0
H3499 H 0.22264 0.0646 0.77281 0.0
H3500 H 0.21081 0.1416 0.78524 0.0
H3501 H 0.24977 0.12369 0.73184 0.0
H3502 H 0.23288 0.1058 0.73853 0.0
H3503 H 0.25463 0.11351 0.75131 0.0
C3504 C 0.18858 0.08403 0.77084 0.0
C3505 C 0.1971 0.06961 0.77201 0.0
C3506 C 0.19774 0.10271 0.76921 0.0
C3507 C 0.21604 0.10821 0.76897 0.0
C3508 C 0.22465 0.09387 0.77072 0.0
H3509 H 0.29895 0.2135 0.77302 0.0
H3510 H 0.28006 0.18218 0.77327 0.0
C3511 C 0.21538 0.07497 0.7718 0.0
C3512 C 0.22585 0.12877 0.76737 0.0
H3513 H 0.2592 0.15549 0.74809 0.0
C3514 C 0.22127 0.14441 0.77692 0.0
C3515 C 0.2395 0.13335 0.75634 0.0
C3516 C 0.24433 0.1182 0.74377 0.0
C3517 C 0.2301 0.1637 0.77643 0.0
C3518 C 0.24433 0.16821 0.76616 0.0
C3519 C 0.24863 0.15261 0.75629 0.0
C3520 C 0.25563 0.1886 0.76622 0.0
C3521 C 0.22429 0.17913 0.78744 0.0
C3522 C 0.24879 0.20369 0.76215 0.0
C3523 C 0.2599 0.22222 0.76206 0.0
C3524 C 0.27834 0.22644 0.76593 0.0
C3525 C 0.28496 0.21129 0.76994 0.0
C3526 C 0.274 0.19301 0.77004 0.0
H3527 H 0.21625 0.17377 0.79791 0.0
H3528 H 0.2357 0.19089 0.79441 0.0
H3529 H 0.21616 0.18488 0.77812 0.0
H3530 H 0.23482 0.20111 0.75865 0.0
H3531 H 0.25402 0.23312 0.75869 0.0
H3532 H 0.39786 0.99092 0.31823 0.0
H3533 H 0.37697 0.96012 0.30635 0.0
H3534 H 0.40573 0.95228 0.26101 0.0
H3535 H 0.42702 0.98268 0.27311 0.0
H3536 H 0.35874 0.95761 0.27076 0.0
H3537 H 0.39036 0.89915 0.27482 0.0
H3538 H 0.39894 0.92204 0.28942 0.0
H3539 H 0.4017 0.91927 0.26569 0.0
C3540 C 0.40009 0.98227 0.30615 0.0
C3541 C 0.4138 0.9892 0.29641 0.0
C3542 C 0.38818 0.9648 0.29936 0.0
C3543 C 0.38982 0.95426 0.28274 0.0
C3544 C 0.40441 0.96026 0.27393 0.0
H3545 H 0.30728 0.85452 0.23001 0.0
H3546 H 0.32622 0.88617 0.23068 0.0
C3547 C 0.41653 0.97762 0.28088 0.0
C3548 C 0.37492 0.93866 0.27354 0.0
H3549 H 0.36044 0.89071 0.26336 0.0
C3550 C 0.35911 0.94296 0.26887 0.0
C3551 C 0.37575 0.91976 0.27077 0.0
C3552 C 0.39254 0.91464 0.27547 0.0
C3553 C 0.34364 0.92857 0.26289 0.0
C3554 C 0.34427 0.90973 0.26148 0.0
C3555 C 0.36027 0.9054 0.26459 0.0
C3556 C 0.32846 0.89433 0.26001 0.0
C3557 C 0.32657 0.9334 0.25922 0.0
C3558 C 0.32282 0.88924 0.27623 0.0
C3559 C 0.31233 0.87112 0.27602 0.0
C3560 C 0.30757 0.85807 0.25954 0.0
C3561 C 0.31125 0.86417 0.24299 0.0
C3562 C 0.32189 0.88225 0.24326 0.0
H3563 H 0.3286 0.94858 0.25827 0.0
H3564 H 0.31886 0.92454 0.2463 0.0
H3565 H 0.31874 0.93023 0.27048 0.0
H3566 H 0.32797 0.8986 0.28926 0.0
H3567 H 0.30947 0.86687 0.28893 0.0
H3568 H 0.55672 0.3508 0.60048 0.0
H3569 H 0.54922 0.37649 0.58717 0.0
H3570 H 0.6021 0.39553 0.57543 0.0
H3571 H 0.60934 0.36936 0.58781 0.0
H3572 H 0.55881 0.41278 0.59536 0.0
H3573 H 0.57823 0.39612 0.52714 0.0
H3574 H 0.57731 0.38027 0.54336 0.0
H3575 H 0.59635 0.40002 0.54467 0.0
C3576 C 0.56673 0.36039 0.59495 0.0
C3577 C 0.58363 0.35784 0.59515 0.0
C3578 C 0.56242 0.37515 0.58731 0.0
C3579 C 0.57491 0.38792 0.57976 0.0
C3580 C 0.59192 0.38563 0.58042 0.0
H3581 H 0.58378 0.49483 0.54247 0.0
H3582 H 0.58764 0.46633 0.55299 0.0
C3583 C 0.59614 0.37068 0.58774 0.0
C3584 C 0.57034 0.40393 0.57181 0.0
H3585 H 0.57421 0.42703 0.53514 0.0
C3586 C 0.56201 0.41568 0.58208 0.0
C3587 C 0.57432 0.40792 0.55437 0.0
C3588 C 0.58186 0.39528 0.54168 0.0
C3589 C 0.55819 0.43143 0.57579 0.0
C3590 C 0.56276 0.43574 0.55871 0.0
C3591 C 0.5708 0.42388 0.54829 0.0
C3592 C 0.56001 0.4529 0.55175 0.0
C3593 C 0.54975 0.44374 0.58776 0.0
C3594 C 0.54314 0.45488 0.54713 0.0
C3595 C 0.54085 0.47121 0.54086 0.0
C3596 C 0.55539 0.48603 0.53919 0.0
C3597 C 0.57224 0.48383 0.5436 0.0
C3598 C 0.57449 0.46746 0.54964 0.0
H3599 H 0.54994 0.44063 0.60188 0.0
H3600 H 0.55648 0.45895 0.58845 0.0
H3601 H 0.53592 0.44122 0.58176 0.0
H3602 H 0.53171 0.44379 0.54838 0.0
H3603 H 0.5277 0.47238 0.53769 0.0
H3604 H 0.47647 0.80372 0.35055 0.0
H3605 H 0.44853 0.8057 0.33557 0.0
H3606 H 0.42087 0.76244 0.36303 0.0
H3607 H 0.44891 0.76023 0.378 0.0
H3608 H 0.42151 0.77497 0.31218 0.0
H3609 H 0.39614 0.80578 0.37291 0.0
H3610 H 0.41906 0.80711 0.37295 0.0
H3611 H 0.40377 0.78519 0.37447 0.0
C3612 C 0.46448 0.79456 0.35343 0.0
C3613 C 0.46509 0.78172 0.36547 0.0
C3614 C 0.44843 0.79576 0.34484 0.0
C3615 C 0.43241 0.78441 0.34823 0.0
C3616 C 0.43293 0.77158 0.3603 0.0
H3617 H 0.32436 0.78262 0.30114 0.0
H3618 H 0.34899 0.77814 0.3211 0.0
C3619 C 0.44904 0.7702 0.36875 0.0
C3620 C 0.41539 0.78555 0.33843 0.0
H3621 H 0.37831 0.79982 0.3444 0.0
C3622 C 0.41207 0.78037 0.31928 0.0
C3623 C 0.40277 0.79224 0.34757 0.0
C3624 C 0.40553 0.79803 0.3681 0.0
C3625 C 0.39681 0.78187 0.30908 0.0
C3626 C 0.38458 0.78954 0.31806 0.0
C3627 C 0.3876 0.79415 0.33733 0.0
C3628 C 0.36929 0.79373 0.30746 0.0
C3629 C 0.39389 0.77484 0.28869 0.0
C3630 C 0.37223 0.80473 0.29366 0.0
C3631 C 0.35826 0.80712 0.28225 0.0
C3632 C 0.34076 0.79914 0.28452 0.0
C3633 C 0.33766 0.78921 0.29914 0.0
C3634 C 0.35179 0.78652 0.31048 0.0
H3635 H 0.40051 0.76361 0.28505 0.0
H3636 H 0.37975 0.76909 0.28338 0.0
H3637 H 0.39955 0.78673 0.2817 0.0
H3638 H 0.38546 0.81109 0.29129 0.0
H3639 H 0.36118 0.81485 0.27118 0.0
H3640 H 0.06007 0.74621 0.11892 0.0
H3641 H 0.0588 0.71367 0.10755 0.0
H3642 H 0.06713 0.72718 0.0542 0.0
H3643 H 0.06943 0.76061 0.06594 0.0
H3644 H 0.03846 0.68696 0.0831 0.0
H3645 H 0.10523 0.70241 0.06307 0.0
H3646 H 0.09724 0.72032 0.07574 0.0
H3647 H 0.09102 0.71341 0.05136 0.0
C3648 C 0.06156 0.74242 0.10468 0.0
C3649 C 0.06502 0.75618 0.09336 0.0
C3650 C 0.06081 0.72366 0.0982 0.0
C3651 C 0.06322 0.71794 0.08012 0.0
C3652 C 0.06577 0.73136 0.06839 0.0
H3653 H 0.05054 0.60376 0.02391 0.0
H3654 H 0.05256 0.63754 0.03241 0.0
C3655 C 0.0669 0.75042 0.07503 0.0
C3656 C 0.06336 0.69797 0.07406 0.0
H3657 H 0.08836 0.67036 0.05655 0.0
C3658 C 0.04939 0.68339 0.07727 0.0
C3659 C 0.07776 0.69324 0.06677 0.0
C3660 C 0.09375 0.70815 0.06419 0.0
C3661 C 0.0494 0.66432 0.0733 0.0
C3662 C 0.06359 0.65968 0.06568 0.0
C3663 C 0.07751 0.6741 0.06237 0.0
C3664 C 0.06379 0.63978 0.06044 0.0
C3665 C 0.03432 0.64917 0.07734 0.0
C3666 C 0.06983 0.63011 0.07336 0.0
C3667 C 0.06904 0.61093 0.06842 0.0
C3668 C 0.06196 0.60126 0.0506 0.0
C3669 C 0.05618 0.61106 0.03767 0.0
C3670 C 0.05727 0.63025 0.04251 0.0
H3671 H 0.02393 0.65505 0.08267 0.0
H3672 H 0.02851 0.63855 0.06473 0.0
H3673 H 0.0392 0.64167 0.08763 0.0
H3674 H 0.07479 0.63728 0.08731 0.0
H3675 H 0.07321 0.60346 0.07867 0.0
H3676 H 0.07399 0.25085 0.8854 0.0
H3677 H 0.10285 0.25678 0.87532 0.0
H3678 H 0.09865 0.31081 0.86367 0.0
H3679 H 0.0703 0.3054 0.87527 0.0
H3680 H 0.11146 0.25855 0.84462 0.0
H3681 H 0.14766 0.32836 0.88547 0.0
H3682 H 0.1267 0.31538 0.89033 0.0
H3683 H 0.12802 0.3297 0.87267 0.0
C3684 C 0.07939 0.26413 0.88096 0.0
C3685 C 0.0699 0.27765 0.88112 0.0
C3686 C 0.09593 0.26754 0.87513 0.0
C3687 C 0.10333 0.28438 0.86877 0.0
C3688 C 0.09377 0.29797 0.86899 0.0
H3689 H 0.18483 0.30996 0.79913 0.0
H3690 H 0.16047 0.30962 0.81674 0.0
C3691 C 0.0774 0.29479 0.87544 0.0
C3692 C 0.12021 0.28673 0.86063 0.0
H3693 H 0.16011 0.31762 0.85924 0.0
C3694 C 0.12211 0.27145 0.84811 0.0
C3695 C 0.13438 0.3035 0.86496 0.0
C3696 C 0.13417 0.32007 0.87924 0.0
C3697 C 0.13734 0.2725 0.83973 0.0
C3698 C 0.15117 0.28938 0.84364 0.0
C3699 C 0.14946 0.3047 0.85614 0.0
C3700 C 0.16725 0.29127 0.83443 0.0
C3701 C 0.13845 0.25558 0.82645 0.0
C3702 C 0.17951 0.28142 0.83874 0.0
C3703 C 0.19366 0.28174 0.82881 0.0
C3704 C 0.1959 0.29183 0.81418 0.0
C3705 C 0.18384 0.30219 0.81036 0.0
C3706 C 0.16977 0.30196 0.82039 0.0
H3707 H 0.12576 0.24445 0.82301 0.0
H3708 H 0.14273 0.25995 0.81363 0.0
H3709 H 0.14836 0.24934 0.8326 0.0
H3710 H 0.17795 0.27319 0.84962 0.0
H3711 H 0.20277 0.27391 0.83254 0.0
H3712 H 0.60457 0.7606 0.90706 0.0
H3713 H 0.59522 0.7307 0.91824 0.0
H3714 H 0.55053 0.74692 0.9364 0.0
H3715 H 0.55941 0.77634 0.92415 0.0
H3716 H 0.59365 0.72758 0.95232 0.0
H3717 H 0.52749 0.69309 0.91381 0.0
H3718 H 0.54228 0.71314 0.90736 0.0
H3719 H 0.52957 0.71655 0.92563 0.0
C3720 C 0.59253 0.75746 0.91305 0.0
C3721 C 0.58255 0.77044 0.91467 0.0
C3722 C 0.58721 0.74047 0.91946 0.0
C3723 C 0.57204 0.73642 0.92795 0.0
C3724 C 0.56196 0.74942 0.9294 0.0
H3725 H 0.5423 0.66122 1.00379 0.0
H3726 H 0.54548 0.68601 0.98517 0.0
C3727 C 0.56707 0.76624 0.92254 0.0
C3728 C 0.56786 0.71949 0.93679 0.0
H3729 H 0.53559 0.6801 0.93981 0.0
C3730 C 0.581 0.71711 0.94939 0.0
C3731 C 0.55132 0.70587 0.93305 0.0
C3732 C 0.53692 0.70717 0.91909 0.0
C3733 C 0.57803 0.70161 0.95846 0.0
C3734 C 0.56147 0.68822 0.95493 0.0
C3735 C 0.54828 0.69048 0.94239 0.0
C3736 C 0.55767 0.67212 0.96474 0.0
C3737 C 0.5925 0.6997 0.97197 0.0
C3738 C 0.56324 0.65603 0.95913 0.0
C3739 C 0.56129 0.64169 0.96963 0.0
C3740 C 0.55386 0.64333 0.98598 0.0
C3741 C 0.54785 0.65932 0.99118 0.0
C3742 C 0.5497 0.67355 0.98061 0.0
H3743 H 0.60431 0.71198 0.97399 0.0
H3744 H 0.58784 0.69832 0.9854 0.0
H3745 H 0.59625 0.68664 0.96701 0.0
H3746 H 0.56945 0.65478 0.94688 0.0
H3747 H 0.5658 0.62945 0.96505 0.0
H3748 H 0.04251 0.75323 0.69779 0.0
H3749 H 0.07302 0.75409 0.707 0.0
H3750 H 0.0899 0.79361 0.67101 0.0
H3751 H 0.0593 0.79248 0.66138 0.0
H3752 H 0.09796 0.74874 0.67358 0.0
H3753 H 0.11737 0.81111 0.73044 0.0
H3754 H 0.09514 0.79617 0.72524 0.0
H3755 H 0.10365 0.81151 0.70989 0.0
C3756 C 0.05278 0.76243 0.6922 0.0
C3757 C 0.04878 0.77297 0.6791 0.0
C3758 C 0.07008 0.76279 0.69734 0.0
C3759 C 0.08345 0.77396 0.68966 0.0
C3760 C 0.07958 0.78497 0.677 0.0
H3761 H 0.19543 0.78651 0.70823 0.0
H3762 H 0.1669 0.79177 0.69936 0.0
C3763 C 0.06224 0.78437 0.67161 0.0
C3764 C 0.10145 0.77337 0.69428 0.0
H3765 H 0.13856 0.79476 0.72424 0.0
C3766 C 0.10694 0.75883 0.68455 0.0
C3767 C 0.11286 0.78664 0.70856 0.0
C3768 C 0.10708 0.8023 0.71925 0.0
C3769 C 0.12376 0.75705 0.689 0.0
C3770 C 0.13508 0.77006 0.70361 0.0
C3771 C 0.12971 0.78488 0.71305 0.0
C3772 C 0.15222 0.76776 0.70984 0.0
C3773 C 0.1293 0.74122 0.67824 0.0
C3774 C 0.15316 0.75279 0.71894 0.0
C3775 C 0.16928 0.74972 0.72393 0.0
C3776 C 0.18467 0.76161 0.71989 0.0
C3777 C 0.18371 0.77699 0.71125 0.0
C3778 C 0.16753 0.78008 0.7063 0.0
H3779 H 0.12029 0.73464 0.66533 0.0
H3780 H 0.14276 0.74653 0.6749 0.0
H3781 H 0.1294 0.7301 0.68666 0.0
H3782 H 0.14137 0.74327 0.72184 0.0
H3783 H 0.16965 0.7377 0.73045 0.0
H3784 H 0.11633 0.39775 0.42954 0.0
H3785 H 0.11075 0.4279 0.44244 0.0
H3786 H 0.05588 0.39928 0.43888 0.0
H3787 H 0.0614 0.36939 0.42684 0.0
H3788 H 0.08511 0.44874 0.43072 0.0
H3789 H 0.07382 0.41916 0.4942 0.0
H3790 H 0.08453 0.40903 0.47667 0.0
H3791 H 0.06108 0.40416 0.47379 0.0
C3792 C 0.10313 0.39806 0.43148 0.0
C3793 C 0.08937 0.38133 0.42783 0.0
C3794 C 0.09994 0.41519 0.43865 0.0
C3795 C 0.08296 0.41556 0.44179 0.0
C3796 C 0.06909 0.3991 0.4368 0.0
H3797 H 0.03282 0.4923 0.49774 0.0
H3798 H 0.03916 0.46877 0.47454 0.0
C3799 C 0.0723 0.38207 0.4301 0.0
C3800 C 0.07974 0.43242 0.45216 0.0
H3801 H 0.06575 0.44738 0.49197 0.0
C3802 C 0.08102 0.44859 0.44417 0.0
C3803 C 0.07441 0.43199 0.46967 0.0
C3804 C 0.07352 0.41523 0.47919 0.0
C3805 C 0.07672 0.46436 0.45328 0.0
C3806 C 0.07104 0.46363 0.47054 0.0
C3807 C 0.06991 0.44758 0.47855 0.0
C3808 C 0.06726 0.47979 0.48137 0.0
C3809 C 0.07807 0.48163 0.44454 0.0
C3810 C 0.08104 0.49355 0.49262 0.0
C3811 C 0.07748 0.50658 0.50606 0.0
C3812 C 0.06011 0.50599 0.5082 0.0
C3813 C 0.04631 0.49286 0.49627 0.0
C3814 C 0.04988 0.47961 0.48299 0.0
H3815 H 0.08134 0.4794 0.43038 0.0
H3816 H 0.06551 0.48551 0.44423 0.0
H3817 H 0.08834 0.49376 0.4529 0.0
H3818 H 0.0945 0.49358 0.49161 0.0
H3819 H 0.0883 0.51682 0.51501 0.0
H3820 H 0.44632 0.26109 0.15921 0.0
H3821 H 0.41989 0.26468 0.17187 0.0
H3822 H 0.43645 0.24512 0.22041 0.0
H3823 H 0.4628 0.24147 0.20803 0.0
H3824 H 0.39305 0.23559 0.18934 0.0
H3825 H 0.43302 0.30276 0.23389 0.0
H3826 H 0.43977 0.29266 0.21318 0.0
H3827 H 0.44167 0.2826 0.23347 0.0
C3828 C 0.44425 0.25746 0.17252 0.0
C3829 C 0.45669 0.25135 0.18282 0.0
C3830 C 0.42916 0.25937 0.17961 0.0
C3831 C 0.42654 0.25526 0.197 0.0
C3832 C 0.43849 0.24836 0.20694 0.0
H3833 H 0.34754 0.26081 0.26704 0.0
H3834 H 0.37277 0.25457 0.25314 0.0
C3835 C 0.4535 0.24638 0.19988 0.0
C3836 C 0.41218 0.25979 0.20564 0.0
H3837 H 0.40371 0.29127 0.23913 0.0
C3838 C 0.39527 0.24773 0.2002 0.0
C3839 C 0.41539 0.27577 0.21962 0.0
C3840 C 0.43341 0.28932 0.22536 0.0
C3841 C 0.38134 0.25113 0.20885 0.0
C3842 C 0.38467 0.26687 0.2231 0.0
C3843 C 0.4015 0.27908 0.22832 0.0
C3844 C 0.37057 0.27141 0.23215 0.0
C3845 C 0.36313 0.23814 0.20275 0.0
C3846 C 0.3617 0.28329 0.22504 0.0
C3847 C 0.34779 0.28716 0.23311 0.0
C3848 C 0.34257 0.27896 0.24817 0.0
C3849 C 0.35159 0.26726 0.25547 0.0
C3850 C 0.36579 0.26368 0.24757 0.0
H3851 H 0.36295 0.22587 0.19216 0.0
H3852 H 0.35752 0.2328 0.21465 0.0
H3853 H 0.35456 0.24617 0.19709 0.0
H3854 H 0.36533 0.2892 0.21305 0.0
H3855 H 0.34062 0.29589 0.2271 0.0
H3856 H 0.64317 0.50493 0.34507 0.0
H3857 H 0.63047 0.50617 0.37391 0.0
H3858 H 0.60109 0.5428 0.35582 0.0
H3859 H 0.61381 0.54166 0.32708 0.0
H3860 H 0.63142 0.53381 0.40295 0.0
H3861 H 0.56195 0.50641 0.37298 0.0
H3862 H 0.57942 0.50527 0.35956 0.0
H3863 H 0.57315 0.5269 0.36442 0.0
C3864 C 0.63394 0.51323 0.34705 0.0
C3865 C 0.62973 0.52313 0.33313 0.0
C3866 C 0.62659 0.51398 0.36386 0.0
C3867 C 0.61431 0.52439 0.36768 0.0
C3868 C 0.61008 0.53423 0.35373 0.0
H3869 H 0.54995 0.54293 0.45759 0.0
H3870 H 0.56411 0.54171 0.42995 0.0
C3871 C 0.61758 0.53367 0.33702 0.0
C3872 C 0.6064 0.52527 0.38611 0.0
H3873 H 0.56758 0.51916 0.40464 0.0
C3874 C 0.61741 0.53052 0.40316 0.0
C3875 C 0.58807 0.5211 0.38723 0.0
C3876 C 0.57492 0.51442 0.37011 0.0
C3877 C 0.61098 0.53235 0.42055 0.0
C3878 C 0.5926 0.52816 0.42173 0.0
C3879 C 0.58161 0.52263 0.40458 0.0
C3880 C 0.58445 0.52982 0.4401 0.0
C3881 C 0.62434 0.53965 0.43746 0.0
C3882 C 0.5906 0.52387 0.45623 0.0
C3883 C 0.58268 0.52529 0.47271 0.0
C3884 C 0.56782 0.53226 0.47388 0.0
C3885 C 0.56153 0.53787 0.45777 0.0
C3886 C 0.56965 0.53691 0.44155 0.0
H3887 H 0.63704 0.54799 0.43426 0.0
H3888 H 0.6198 0.54878 0.44799 0.0
H3889 H 0.62679 0.52748 0.44323 0.0
H3890 H 0.60129 0.51743 0.45607 0.0
H3891 H 0.58772 0.52003 0.48427 0.0
H3892 H 0.28944 0.86937 0.03276 0.0
H3893 H 0.30265 0.8609 0.0602 0.0
H3894 H 0.32411 0.92006 0.08357 0.0
H3895 H 0.3107 0.9287 0.05671 0.0
H3896 H 0.34028 0.87349 0.07447 0.0
H3897 H 0.29796 0.89652 0.12326 0.0
H3898 H 0.29188 0.89232 0.09877 0.0
H3899 H 0.30807 0.91357 0.11 0.0
C3900 C 0.2966 0.88054 0.04394 0.0
C3901 C 0.29892 0.89968 0.04263 0.0
C3902 C 0.3043 0.8757 0.05945 0.0
C3903 C 0.31429 0.88992 0.07375 0.0
C3904 C 0.31627 0.90895 0.07268 0.0
H3905 H 0.34723 0.87023 0.1812 0.0
H3906 H 0.34912 0.88822 0.15604 0.0
C3907 C 0.3085 0.91381 0.05734 0.0
C3908 C 0.3227 0.88492 0.0899 0.0
H3909 H 0.32051 0.88491 0.13515 0.0
C3910 C 0.33611 0.87607 0.08781 0.0
C3911 C 0.31741 0.88877 0.10723 0.0
C3912 C 0.30297 0.8982 0.11003 0.0
C3913 C 0.34404 0.87034 0.10268 0.0
C3914 C 0.33804 0.87316 0.11984 0.0
C3915 C 0.32522 0.88289 0.12204 0.0
C3916 C 0.34234 0.86336 0.1347 0.0
C3917 C 0.35853 0.86103 0.09975 0.0
C3918 C 0.33871 0.84359 0.13099 0.0
C3919 C 0.33802 0.83344 0.14523 0.0
C3920 C 0.34049 0.84286 0.16339 0.0
C3921 C 0.3454 0.86273 0.16724 0.0
C3922 C 0.34644 0.87296 0.15292 0.0
H3923 H 0.36644 0.86713 0.08952 0.0
H3924 H 0.36733 0.86259 0.11267 0.0
H3925 H 0.35271 0.84572 0.09424 0.0
H3926 H 0.33482 0.8358 0.11713 0.0
H3927 H 0.33378 0.81812 0.14191 0.0
H3928 H 0.97811 0.52459 0.84253 0.0
H3929 H 0.98659 0.51811 0.87254 0.0
H3930 H 0.96823 0.56415 0.898 0.0
H3931 H 0.95895 0.57028 0.86768 0.0
H3932 H 0.0116 0.54483 0.89537 0.0
H3933 H 0.95236 0.52333 0.92905 0.0
H3934 H 0.95145 0.52232 0.90461 0.0
H3935 H 0.95373 0.54442 0.9195 0.0
C3936 C 0.97583 0.53334 0.85452 0.0
C3937 C 0.96842 0.54835 0.85297 0.0
C3938 C 0.98041 0.52939 0.87158 0.0
C3939 C 0.97789 0.54057 0.88734 0.0
C3940 C 0.9699 0.55515 0.88588 0.0
H3941 H 0.0384 0.5739 0.99268 0.0
H3942 H 0.01842 0.57106 0.96449 0.0
C3943 C 0.96494 0.55888 0.86867 0.0
C3944 C 0.98646 0.5391 0.90506 0.0
H3945 H 0.98002 0.53371 0.94867 0.0
C3946 C 1.00466 0.54218 0.90696 0.0
C3947 C 0.97726 0.5355 0.91999 0.0
C3948 C 0.95759 0.53101 0.91818 0.0
C3949 C 0.01407 0.5424 0.92368 0.0
C3950 C 1.005 0.53971 0.93878 0.0
C3951 C 0.98677 0.53605 0.93691 0.0
C3952 C 0.01465 0.5409 0.95662 0.0
C3953 C 0.03367 0.54573 0.92526 0.0
C3954 C 0.01881 0.52482 0.96111 0.0
C3955 C 0.03005 0.52642 0.97696 0.0
C3956 C 0.03741 0.54417 0.98813 0.0
C3957 C 0.03308 0.56024 0.98382 0.0
C3958 C 0.02156 0.55857 0.96806 0.0
H3959 H 0.03875 0.54807 0.91218 0.0
H3960 H 0.04028 0.55825 0.93599 0.0
H3961 H 0.03723 0.53331 0.92946 0.0
H3962 H 0.01371 0.5112 0.95214 0.0
H3963 H 0.03326 0.5139 0.98037 0.0
H3964 H 0.27136 0.2168 0.54876 0.0
H3965 H 0.27096 0.22764 0.58142 0.0
H3966 H 0.32699 0.23825 0.59151 0.0
H3967 H 0.32732 0.22678 0.55885 0.0
H3968 H 0.28779 0.21057 0.6122 0.0
H3969 H 0.31251 0.28837 0.61524 0.0
H3970 H 0.30197 0.27238 0.59422 0.0
H3971 H 0.32383 0.27326 0.60329 0.0
C3972 C 0.28363 0.22201 0.55788 0.0
C3973 C 0.29943 0.22153 0.55126 0.0
C3974 C 0.28336 0.22794 0.57654 0.0
C3975 C 0.29893 0.2338 0.58886 0.0
C3976 C 0.31484 0.23387 0.5822 0.0
H3977 H 0.32358 0.27626 0.70534 0.0
H3978 H 0.32379 0.26576 0.67288 0.0
C3979 C 0.31505 0.22753 0.56356 0.0
C3980 C 0.29841 0.23937 0.60874 0.0
H3981 H 0.30708 0.27784 0.64298 0.0
C3982 C 0.29193 0.22527 0.61895 0.0
C3983 C 0.30397 0.25851 0.61752 0.0
C3984 C 0.31091 0.27411 0.60708 0.0
C3985 C 0.29096 0.22988 0.63777 0.0
C3986 C 0.29622 0.2491 0.64647 0.0
C3987 C 0.30285 0.26313 0.63626 0.0
C3988 C 0.29568 0.25498 0.66634 0.0
C3989 C 0.28477 0.21417 0.64834 0.0
C3990 C 0.27974 0.25261 0.67353 0.0
C3991 C 0.27952 0.25885 0.69223 0.0
C3992 C 0.29527 0.26739 0.70407 0.0
C3993 C 0.31116 0.26971 0.69671 0.0
C3994 C 0.31134 0.2637 0.6781 0.0
H3995 H 0.28432 0.20009 0.64048 0.0
H3996 H 0.29349 0.21668 0.66151 0.0
H3997 H 0.27142 0.21386 0.65155 0.0
H3998 H 0.26746 0.2461 0.66465 0.0
H3999 H 0.26708 0.25672 0.69745 0.0
H4000 H 0.66066 0.52247 0.2144 0.0
H4001 H 0.64711 0.52672 0.18518 0.0
H4002 H 0.59651 0.49782 0.19743 0.0
H4003 H 0.61009 0.49524 0.22758 0.0
H4004 H 0.63294 0.50966 0.15555 0.0
H4005 H 0.57854 0.53557 0.17943 0.0
H4006 H 0.5954 0.53224 0.19533 0.0
H4007 H 0.5772 0.51244 0.18436 0.0
C4008 C 0.64658 0.5171 0.21101 0.0
C4009 C 0.63665 0.50858 0.22379 0.0
C4010 C 0.63869 0.51952 0.19399 0.0
C4011 C 0.62038 0.51315 0.18847 0.0
C4012 C 0.61046 0.50392 0.20104 0.0
H4013 H 0.56256 0.50043 0.0763 0.0
H4014 H 0.57436 0.49599 0.10651 0.0
C4015 C 0.61835 0.50211 0.21845 0.0
C4016 C 0.61218 0.51594 0.16967 0.0
H4017 H 0.57753 0.5277 0.14727 0.0
C4018 C 0.62088 0.51376 0.15408 0.0
C4019 C 0.59633 0.52143 0.16681 0.0
C4020 C 0.58643 0.52575 0.1824 0.0
C4021 C 0.61441 0.51664 0.1365 0.0
C4022 C 0.59847 0.52161 0.13369 0.0
C4023 C 0.58967 0.52377 0.14906 0.0
C4024 C 0.5909 0.52462 0.11498 0.0
C4025 C 0.62476 0.51442 0.12084 0.0
C4026 C 0.5959 0.54226 0.10912 0.0
C4027 C 0.58887 0.54497 0.09176 0.0
C4028 C 0.57673 0.53004 0.07932 0.0
C4029 C 0.57185 0.51237 0.0852 0.0
C4030 C 0.57864 0.50977 0.10266 0.0
H4031 H 0.63651 0.50969 0.12472 0.0
H4032 H 0.61637 0.50402 0.10914 0.0
H4033 H 0.62903 0.52817 0.11612 0.0
H4034 H 0.60535 0.55406 0.11802 0.0
H4035 H 0.59322 0.55875 0.08793 0.0
H4036 H 0.32552 0.87731 0.95103 0.0
H4037 H 0.33205 0.86765 0.9204 0.0
H4038 H 0.28102 0.86975 0.8974 0.0
H4039 H 0.27487 0.8806 0.92813 0.0
H4040 H 0.31681 0.83678 0.89838 0.0
H4041 H 0.3099 0.89504 0.86286 0.0
H4042 H 0.31129 0.89725 0.88743 0.0
H4043 H 0.29062 0.88648 0.87301 0.0
C4044 C 0.3157 0.87571 0.93941 0.0
C4045 C 0.29957 0.87936 0.94182 0.0
C4046 C 0.31952 0.8704 0.92194 0.0
C4047 C 0.30717 0.86831 0.9066 0.0
C4048 C 0.29099 0.87189 0.90901 0.0
H4049 H 0.26998 0.8069 0.80441 0.0
H4050 H 0.27906 0.82861 0.83355 0.0
C4051 C 0.28733 0.87774 0.92652 0.0
C4052 C 0.31041 0.86033 0.88836 0.0
H4053 H 0.30496 0.86417 0.84338 0.0
C4054 C 0.31469 0.84301 0.88639 0.0
C4055 C 0.30795 0.86865 0.87281 0.0
C4056 C 0.30489 0.888 0.87419 0.0
C4057 C 0.31491 0.8329 0.86909 0.0
C4058 C 0.31079 0.84041 0.85345 0.0
C4059 C 0.30795 0.85843 0.85547 0.0
C4060 C 0.30623 0.82844 0.8352 0.0
C4061 C 0.31819 0.81364 0.86763 0.0
C4062 C 0.31857 0.82118 0.82656 0.0
C4063 C 0.31332 0.8084 0.81001 0.0
C4064 C 0.29577 0.80309 0.80188 0.0
C4065 C 0.28358 0.8107 0.81043 0.0
C4066 C 0.28877 0.82323 0.82697 0.0
H4067 H 0.31937 0.8091 0.88113 0.0
H4068 H 0.30743 0.80286 0.85831 0.0
H4069 H 0.33055 0.81402 0.86183 0.0
H4070 H 0.33214 0.82519 0.8327 0.0
H4071 H 0.32292 0.80265 0.80365 0.0
H4072 H 0.9769 0.56699 0.75623 0.0
H4073 H 0.9848 0.55117 0.72821 0.0
H4074 H 0.93639 0.50689 0.72144 0.0
H4075 H 0.92802 0.52284 0.74833 0.0
H4076 H 0.98862 0.51462 0.72009 0.0
H4077 H 0.93439 0.52402 0.67281 0.0
H4078 H 0.94008 0.53638 0.69615 0.0
H4079 H 0.92772 0.51188 0.69113 0.0
C4080 C 0.96784 0.55416 0.74844 0.0
C4081 C 0.95169 0.5465 0.7541 0.0
C4082 C 0.9724 0.54503 0.73268 0.0
C4083 C 0.96097 0.52806 0.72276 0.0
C4084 C 0.94509 0.52023 0.72866 0.0
H4085 H 0.98601 0.48738 0.6139 0.0
H4086 H 0.97141 0.48144 0.64118 0.0
C4087 C 0.94034 0.52951 0.744 0.0
C4088 C 0.96545 0.51873 0.70592 0.0
H4089 H 0.95406 0.50935 0.6597 0.0
C4090 C 0.98091 0.51311 0.7069 0.0
C4091 C 0.95508 0.51644 0.68885 0.0
C4092 C 0.93846 0.52261 0.68707 0.0
C4093 C 0.9871 0.50676 0.69096 0.0
C4094 C 0.97754 0.50613 0.67388 0.0
C4095 C 0.96117 0.50975 0.67296 0.0
C4096 C 0.98652 0.50811 0.65784 0.0
C4097 C 1.0046 0.50248 0.69239 0.0
C4098 C 0.99916 0.52522 0.65835 0.0
C4099 C 0.00695 0.52875 0.64301 0.0
C4100 C 1.00225 0.51518 0.62697 0.0
C4101 C 0.9896 0.49796 0.62628 0.0
C4102 C 0.98149 0.49452 0.64174 0.0
H4103 H 0.00723 0.49715 0.70523 0.0
H4104 H 1.00529 0.49188 0.68051 0.0
H4105 H 0.01507 0.51569 0.69263 0.0
H4106 H 1.0028 0.53602 0.67059 0.0
H4107 H 0.01686 0.54201 0.64371 0.0
H4108 H 0.26605 0.20031 0.43349 0.0
H4109 H 0.26834 0.21068 0.40387 0.0
H4110 H 0.31836 0.25022 0.42611 0.0
H4111 H 0.31651 0.2388 0.45534 0.0
H4112 H 0.26854 0.24114 0.3927 0.0
H4113 H 0.33259 0.22986 0.38049 0.0
H4114 H 0.32163 0.22155 0.39896 0.0
H4115 H 0.33445 0.24586 0.40148 0.0
C4116 C 0.27764 0.21103 0.43193 0.0
C4117 C 0.29119 0.21855 0.44667 0.0
C4118 C 0.27895 0.21705 0.41496 0.0
C4119 C 0.29372 0.23106 0.41228 0.0
C4120 C 0.30711 0.2389 0.42728 0.0
H4121 H 0.31684 0.29938 0.32789 0.0
H4122 H 0.31536 0.2852 0.35546 0.0
C4123 C 0.30599 0.23251 0.44413 0.0
C4124 C 0.29464 0.23781 0.39411 0.0
H4125 H 0.32121 0.24819 0.36123 0.0
C4126 C 0.28003 0.2424 0.3858 0.0
C4127 C 0.30956 0.2396 0.38476 0.0
C4128 C 0.32536 0.23377 0.39179 0.0
C4129 C 0.28005 0.24897 0.36894 0.0
C4130 C 0.29507 0.25113 0.3599 0.0
C4131 C 0.30966 0.24654 0.36808 0.0
C4132 C 0.29621 0.25914 0.34253 0.0
C4133 C 0.26413 0.25407 0.36109 0.0
C4134 C 0.28615 0.24915 0.32576 0.0
C4135 C 0.28717 0.25719 0.30972 0.0
C4136 C 0.2981 0.27549 0.3102 0.0
C4137 C 0.30825 0.28528 0.32696 0.0
C4138 C 0.30743 0.27717 0.34282 0.0
H4139 H 0.25453 0.25421 0.37093 0.0
H4140 H 0.268 0.2682 0.35703 0.0
H4141 H 0.2576 0.24357 0.34861 0.0
H4142 H 0.27747 0.23514 0.32508 0.0
H4143 H 0.27914 0.24928 0.29709 0.0
H4144 H 0.32378 0.59407 0.52327 0.0
H4145 H 0.34981 0.58455 0.51617 0.0
H4146 H 0.36938 0.63653 0.49619 0.0
H4147 H 0.34323 0.64624 0.50321 0.0
H4148 H 0.36371 0.58258 0.47985 0.0
H4149 H 0.40768 0.63295 0.53872 0.0
H4150 H 0.3842 0.6258 0.53802 0.0
H4151 H 0.39393 0.64188 0.52378 0.0
C4152 C 0.33361 0.60348 0.51734 0.0
C4153 C 0.33164 0.62096 0.51393 0.0
C4154 C 0.34838 0.59798 0.51324 0.0
C4155 C 0.36143 0.60996 0.50584 0.0
C4156 C 0.35939 0.62724 0.50202 0.0
H4157 H 0.4643 0.58998 0.49775 0.0
H4158 H 0.44042 0.60535 0.49625 0.0
C4159 C 0.3445 0.6327 0.50599 0.0
C4160 C 0.37735 0.60435 0.50264 0.0
H4161 H 0.41956 0.61139 0.52148 0.0
C4162 C 0.37604 0.58901 0.48872 0.0
C4163 C 0.39327 0.6129 0.5143 0.0
C4164 C 0.39498 0.62926 0.52964 0.0
C4165 C 0.39026 0.58158 0.48641 0.0
C4166 C 0.40599 0.58948 0.49868 0.0
C4167 C 0.40749 0.60539 0.51211 0.0
C4168 C 0.42037 0.58036 0.49893 0.0
C4169 C 0.38815 0.56516 0.47103 0.0
C4170 C 0.417 0.56145 0.50131 0.0
C4171 C 0.43043 0.55269 0.50189 0.0
C4172 C 0.44755 0.56282 0.50056 0.0
C4173 C 0.45112 0.58193 0.49872 0.0
C4174 C 0.43755 0.59065 0.49783 0.0
H4175 H 0.37834 0.56535 0.45951 0.0
H4176 H 0.40074 0.56533 0.46578 0.0
H4177 H 0.38337 0.5517 0.47611 0.0
H4178 H 0.40398 0.55348 0.50292 0.0
H4179 H 0.42749 0.53804 0.50368 0.0
H4180 H 0.85395 0.94567 0.51901 0.0
H4181 H 0.88337 0.96402 0.5153 0.0
H4182 H 0.90601 0.93062 0.54797 0.0
H4183 H 0.87672 0.91146 0.55039 0.0
H4184 H 0.90934 0.98653 0.53572 0.0
H4185 H 0.93471 0.92691 0.50914 0.0
H4186 H 0.91203 0.92352 0.51202 0.0
H4187 H 0.92813 0.92456 0.53114 0.0
C4188 C 0.86524 0.94224 0.52534 0.0
C4189 C 0.86294 0.92702 0.53493 0.0
C4190 C 0.88214 0.95273 0.52319 0.0
C4191 C 0.89727 0.94854 0.53086 0.0
C4192 C 0.89485 0.93379 0.5411 0.0
H4193 H 0.01084 1.00213 0.54422 0.0
H4194 H 0.98127 0.9813 0.54403 0.0
C4195 C 0.87799 0.92296 0.54276 0.0
C4196 C 0.91544 0.95999 0.52875 0.0
H4197 H 0.95604 0.95671 0.51954 0.0
C4198 C 0.91943 0.9799 0.53199 0.0
C4199 C 0.92893 0.95165 0.52384 0.0
C4200 C 0.92567 0.9305 0.51865 0.0
C4201 C 0.9363 0.99151 0.53104 0.0
C4202 C 0.94986 0.98316 0.52654 0.0
C4203 C 0.94587 0.96328 0.52315 0.0
C4204 C 0.9682 0.99478 0.52541 0.0
C4205 C 0.93943 0.0127 0.53547 0.0
C4206 C 0.97111 0.00889 0.51445 0.0
C4207 C 0.98794 0.02093 0.51479 0.0
C4208 C 1.00253 0.0188 0.52553 0.0
C4209 C 0.99992 1.00396 0.53559 0.0
C4210 C 0.98295 0.99211 0.53555 0.0
H4211 H 0.9297 0.01665 0.54385 0.0
H4212 H 0.95273 0.01976 0.54297 0.0
H4213 H 0.9381 0.01824 0.52253 0.0
H4214 H 0.96027 0.01095 0.5059 0.0
H4215 H 0.98952 0.03226 0.50692 0.0
H4216 H 0.91161 0.1242 0.27635 0.0
H4217 H 0.89909 0.15141 0.28004 0.0
H4218 H 0.86224 0.12552 0.23151 0.0
H4219 H 0.87464 0.09843 0.22786 0.0
H4220 H 0.89533 0.17939 0.26063 0.0
H4221 H 0.82824 0.13782 0.26432 0.0
H4222 H 0.84654 0.12782 0.2658 0.0
H4223 H 0.83617 0.12956 0.24385 0.0
C4224 C 0.90077 0.12412 0.26642 0.0
C4225 C 0.89429 0.10846 0.25179 0.0
C4226 C 0.89352 0.13999 0.26855 0.0
C4227 C 0.87916 0.14106 0.25634 0.0
C4228 C 0.87286 0.12549 0.24164 0.0
H4229 H 0.80899 0.21669 0.24409 0.0
H4230 H 0.82387 0.1917 0.24313 0.0
C4231 C 0.88017 0.10974 0.23944 0.0
C4232 C 0.87092 0.15814 0.25873 0.0
H4233 H 0.8316 0.16953 0.26038 0.0
C4234 C 0.88136 0.17708 0.26059 0.0
C4235 C 0.85264 0.15601 0.25894 0.0
C4236 C 0.84024 0.13676 0.25832 0.0
C4237 C 0.87427 0.19317 0.2617 0.0
C4238 C 0.85585 0.19101 0.2616 0.0
C4239 C 0.84556 0.17203 0.26023 0.0
C4240 C 0.84682 0.20762 0.2623 0.0
C4241 C 0.88688 0.21227 0.26219 0.0
C4242 C 0.85397 0.22591 0.2734 0.0
C4243 C 0.84548 0.24079 0.27349 0.0
C4244 C 0.82895 0.23812 0.26306 0.0
C4245 C 0.82158 0.21978 0.25244 0.0
C4246 C 0.83026 0.20514 0.25195 0.0
H4247 H 0.89891 0.21095 0.2564 0.0
H4248 H 0.88084 0.22116 0.2544 0.0
H4249 H 0.89095 0.2196 0.27663 0.0
H4250 H 0.8661 0.22884 0.28244 0.0
H4251 H 0.85176 0.25436 0.28216 0.0
H4252 H 0.73345 0.15698 0.02731 0.0
H4253 H 0.70213 0.14365 0.02591 0.0
H4254 H 0.70413 0.09509 0.98735 0.0
H4255 H 0.73587 0.10804 0.98922 0.0
H4256 H 0.67327 0.13062 0.9995 0.0
H4257 H 0.68922 0.07337 0.0325 0.0
H4258 H 0.70574 0.09412 0.02981 0.0
H4259 H 0.69673 0.0751 0.01071 0.0
C4260 C 0.7272 0.14364 0.01824 0.0
C4261 C 0.73699 0.13324 0.00867 0.0
C4262 C 0.70933 0.13612 0.01741 0.0
C4263 C 0.70111 0.11831 0.00684 0.0
C4264 C 0.71053 0.10871 0.99587 0.0
H4265 H 0.59776 0.04813 0.99544 0.0
H4266 H 0.6275 0.06501 0.99218 0.0
C4267 C 0.72853 0.11607 0.99695 0.0
C4268 C 0.68328 0.10896 0.00925 0.0
H4269 H 0.65935 0.07184 0.02601 0.0
C4270 C 0.67015 0.11774 0.00522 0.0
C4271 C 0.67961 0.09249 0.01723 0.0
C4272 C 0.69358 0.08329 0.02299 0.0
C4273 C 0.65314 0.11011 0.00864 0.0
C4274 C 0.64947 0.0934 0.01606 0.0
C4275 C 0.66254 0.08472 0.02029 0.0
C4276 C 0.63176 0.08383 0.01823 0.0
C4277 C 0.63912 0.11969 0.00424 0.0
C4278 C 0.62484 0.08895 0.03412 0.0
C4279 C 0.60789 0.07937 0.03603 0.0
C4280 C 0.59795 0.06479 0.02199 0.0
C4281 C 0.60512 0.0596 0.00624 0.0
C4282 C 0.62202 0.0691 0.00438 0.0
H4283 H 0.64419 0.13265 0.99843 0.0
H4284 H 0.62829 0.10973 0.99431 0.0
H4285 H 0.63357 0.12362 0.01687 0.0
H4286 H 0.63251 0.1003 0.0449 0.0
H4287 H 0.6025 0.08354 0.04827 0.0
H4288 H 0.17404 0.4884 0.26936 0.0
H4289 H 0.18515 0.46166 0.27503 0.0
H4290 H 0.23707 0.49294 0.26836 0.0
H4291 H 0.22615 0.51971 0.26258 0.0
H4292 H 0.20731 0.44363 0.24916 0.0
H4293 H 0.23831 0.47488 0.32088 0.0
H4294 H 0.22045 0.48191 0.30987 0.0
H4295 H 0.24207 0.48994 0.30401 0.0
C4296 C 0.18782 0.48956 0.26913 0.0
C4297 C 0.1993 0.50606 0.26564 0.0
C4298 C 0.19408 0.47434 0.27233 0.0
C4299 C 0.21185 0.47564 0.27225 0.0
C4300 C 0.22331 0.49195 0.26858 0.0
H4301 H 0.28575 0.41514 0.28589 0.0
H4302 H 0.2686 0.43787 0.28546 0.0
C4303 C 0.21706 0.50712 0.26523 0.0
C4304 C 0.21854 0.45985 0.27587 0.0
H4305 H 0.24472 0.44695 0.30729 0.0
C4306 C 0.21528 0.44409 0.26193 0.0
C4307 C 0.22895 0.4609 0.29253 0.0
C4308 C 0.23262 0.47775 0.30778 0.0
C4309 C 0.22295 0.42945 0.26393 0.0
C4310 C 0.23362 0.43059 0.28053 0.0
C4311 C 0.23636 0.44613 0.29469 0.0
C4312 C 0.24362 0.41687 0.28273 0.0
C4313 C 0.22034 0.41349 0.24795 0.0
C4314 C 0.23514 0.3977 0.28193 0.0
C4315 C 0.24493 0.38465 0.28222 0.0
C4316 C 0.26326 0.39075 0.28346 0.0
C4317 C 0.27167 0.41011 0.28521 0.0
C4318 C 0.26191 0.42308 0.28485 0.0
H4319 H 0.21476 0.41684 0.23503 0.0
H4320 H 0.23293 0.41026 0.24586 0.0
H4321 H 0.21117 0.40057 0.2508 0.0
H4322 H 0.22101 0.39281 0.28062 0.0
H4323 H 0.23818 0.36978 0.28101 0.0
H4324 H 0.27414 0.45139 0.05558 0.0
H4325 H 0.24748 0.46134 0.05044 0.0
H4326 H 0.22685 0.41432 0.00584 0.0
H4327 H 0.25365 0.40416 0.01098 0.0
H4328 H 0.23383 0.47197 0.01917 0.0
H4329 H 0.18583 0.41007 0.03596 0.0
H4330 H 0.20915 0.41444 0.04204 0.0
H4331 H 0.19917 0.405 0.01881 0.0
C4332 C 0.26398 0.44309 0.04466 0.0
C4333 C 0.2662 0.42696 0.03368 0.0
C4334 C 0.24866 0.44882 0.04173 0.0
C4335 C 0.23493 0.43855 0.02786 0.0
C4336 C 0.23704 0.42239 0.01683 0.0
H4337 H 0.13605 0.47037 1.0013 0.0
H4338 H 0.15937 0.45428 0.99895 0.0
C4339 C 0.25249 0.41668 0.01969 0.0
C4340 C 0.21889 0.44539 0.02483 0.0
H4341 H 0.1749 0.43483 0.02784 0.0
C4342 C 0.22095 0.46374 0.02096 0.0
C4343 C 0.20191 0.43467 0.02691 0.0
C4344 C 0.19877 0.41499 0.03128 0.0
C4345 C 0.20681 0.4718 0.01964 0.0
C4346 C 0.19005 0.46147 0.02257 0.0
C4347 C 0.18773 0.44282 0.02567 0.0
C4348 C 0.17536 0.47055 0.02401 0.0
C4349 C 0.20991 0.49149 0.01529 0.0
C4350 C 0.17641 0.48494 0.03892 0.0
C4351 C 0.16312 0.49407 0.04035 0.0
C4352 C 0.14833 0.48916 0.02686 0.0
C4353 C 0.14724 0.47464 0.01191 0.0
C4354 C 0.16054 0.46534 0.01059 0.0
H4355 H 0.22225 0.49586 0.00935 0.0
H4356 H 0.19886 0.49238 0.00554 0.0
H4357 H 0.2108 0.50167 0.02806 0.0
H4358 H 0.18765 0.48922 0.04948 0.0
H4359 H 0.16465 0.50532 0.05191 0.0
H4360 H 0.87476 0.0079 0.26752 0.0
H4361 H 0.85899 0.9754 0.27029 0.0
H4362 H 0.89845 0.95443 0.24547 0.0
H4363 H 0.91462 0.98672 0.24402 0.0
H4364 H 0.84219 0.94434 0.25187 0.0
H4365 H 0.8984 0.92358 0.28223 0.0
H4366 H 0.90033 0.94756 0.27912 0.0
H4367 H 0.90207 0.92994 0.26044 0.0
C4368 C 0.8801 0.99638 0.26261 0.0
C4369 C 0.8962 1.00045 0.25548 0.0
C4370 C 0.87101 0.97749 0.26427 0.0
C4371 C 0.87741 0.9616 0.25872 0.0
C4372 C 0.89315 0.96578 0.2509 0.0
H4373 H 0.83482 0.83423 0.25148 0.0
H4374 H 0.85272 0.86641 0.24972 0.0
C4375 C 0.90241 0.98459 0.24969 0.0
C4376 C 0.86749 0.94097 0.26049 0.0
H4377 H 0.87256 0.89852 0.2711 0.0
C4378 C 0.84904 0.93457 0.25627 0.0
C4379 C 0.87578 0.92731 0.26612 0.0
C4380 C 0.89519 0.9325 0.27241 0.0
C4381 C 0.83907 0.91574 0.25706 0.0
C4382 C 0.84732 0.90208 0.26258 0.0
C4383 C 0.86579 0.90838 0.26675 0.0
C4384 C 0.83702 0.8817 0.26453 0.0
C4385 C 0.81958 0.91064 0.25126 0.0
C4386 C 0.82233 0.87858 0.27405 0.0
C4387 C 0.81198 0.86013 0.27487 0.0
C4388 C 0.8159 0.84347 0.26678 0.0
C4389 C 0.83118 0.84637 0.2581 0.0
C4390 C 0.84148 0.86505 0.257 0.0
H4391 H 0.81612 0.91967 0.2417 0.0
H4392 H 0.81434 0.8956 0.24449 0.0
H4393 H 0.81302 0.91303 0.26351 0.0
H4394 H 0.81861 0.89055 0.28089 0.0
H4395 H 0.80056 0.85891 0.28187 0.0
H4396 H 0.66521 0.11141 0.76022 0.0
H4397 H 0.68132 0.14435 0.76135 0.0
H4398 H 0.72417 0.13697 0.79655 0.0
H4399 H 0.70833 0.10398 0.79539 0.0
H4400 H 0.71017 0.17928 0.79292 0.0
H4401 H 0.7309 0.13501 0.73665 0.0
H4402 H 0.70977 0.12755 0.74415 0.0
H4403 H 0.72905 0.12667 0.75804 0.0
C4404 C 0.67772 0.11703 0.76887 0.0
C4405 C 0.68593 0.10512 0.77713 0.0
C4406 C 0.68679 0.13585 0.76961 0.0
C4407 C 0.70387 0.14268 0.77878 0.0
C4408 C 0.71092 0.13168 0.78942 0.0
H4409 H 0.79555 0.22902 0.78507 0.0
H4410 H 0.77255 0.20027 0.7861 0.0
C4411 C 0.70196 0.11285 0.78856 0.0
C4412 C 0.71587 0.15836 0.77306 0.0
H4413 H 0.74701 0.16703 0.74484 0.0
C4414 C 0.71809 0.17676 0.78228 0.0
C4415 C 0.72593 0.15469 0.75902 0.0
C4416 C 0.7238 0.13494 0.74877 0.0
C4417 C 0.7309 0.19176 0.77825 0.0
C4418 C 0.74148 0.18788 0.76485 0.0
C4419 C 0.73871 0.16965 0.75508 0.0
C4420 C 0.75645 0.20242 0.76192 0.0
C4421 C 0.73345 0.21155 0.78858 0.0
C4422 C 0.75521 0.21186 0.74719 0.0
C4423 C 0.76846 0.22786 0.74632 0.0
C4424 C 0.78271 0.2344 0.76034 0.0
C4425 C 0.78464 0.22391 0.77412 0.0
C4426 C 0.77153 0.20778 0.77482 0.0
H4427 H 0.72283 0.21245 0.797 0.0
H4428 H 0.7461 0.21612 0.7978 0.0
H4429 H 0.73398 0.22161 0.77887 0.0
H4430 H 0.74353 0.20764 0.73718 0.0
H4431 H 0.76669 0.23616 0.73585 0.0
loop_
_geom_bond_atom_site_label_1
_geom_bond_atom_site_label_2
_geom_bond_distance
_geom_bond_site_symmetry_2
_ccdc_geom_bond_type
O0 Cd1 2.223 . S
O0 C8 1.315 . S
Cd1 O0 2.223 . S
Cd1 O4 2.297 . S
Cd1 O5 2.439 . S
Cd1 O11 2.240 . S
Cd2 O3 2.240 . S
Cd2 O10 2.223 . S
Cd2 O12 2.297 . S
Cd2 O13 2.439 . S
O3 Cd2 2.240 . S
O3 C8 1.279 . S
O4 Cd1 2.297 . S
O4 C6 1.247 . S
O5 Cd1 2.439 . S
O5 C6 1.208 . S
C6 O4 1.247 . S
C6 O5 1.208 . S
C7 O12 1.247 . S
C7 O13 1.208 . S
C8 O0 1.315 . S
C8 O3 1.279 . S
C9 O10 1.315 . S
C9 O11 1.279 . S
O10 Cd2 2.223 . S
O10 C9 1.315 . S
O11 Cd1 2.240 . S
O11 C9 1.279 . S
O12 Cd2 2.297 . S
O12 C7 1.247 . S
O13 Cd2 2.439 . S
O13 C7 1.208 . S
O14 Cd15 2.249 . S
O14 C22 1.323 . S
Cd15 O14 2.249 . S
Cd15 O18 2.297 . S
Cd15 O19 2.439 . S
Cd15 O25 2.240 1_655 S
Cd16 O17 2.240 1_455 S
Cd16 O24 2.223 . S
Cd16 O26 2.297 . S
Cd16 O27 2.445 . S
O17 Cd16 2.240 1_655 S
O17 C22 1.279 . S
O18 Cd15 2.297 . S
O18 C20 1.247 . S
O19 Cd15 2.439 . S
O19 C20 1.208 . S
C20 O18 1.247 . S
C20 O19 1.208 . S
C21 O26 1.247 . S
C21 O27 1.216 . S
C22 O14 1.323 . S
C22 O17 1.279 . S
C23 O24 1.315 . S
C23 O25 1.279 . S
O24 Cd16 2.223 . S
O24 C23 1.315 . S
O25 Cd15 2.240 1_455 S
O25 C23 1.279 . S
O26 Cd16 2.297 . S
O26 C21 1.247 . S
O27 Cd16 2.445 . S
O27 C21 1.216 . S
O28 Cd29 2.223 . S
O28 C36 1.315 . S
Cd29 O28 2.223 . S
Cd29 O32 2.297 . S
Cd29 O33 2.439 . S
Cd29 O39 2.240 . S
Cd30 O31 2.240 . S
Cd30 O38 2.223 . S
Cd30 O40 2.297 . S
Cd30 O41 2.439 . S
O31 Cd30 2.240 . S
O31 C36 1.279 . S
O32 Cd29 2.297 . S
O32 C34 1.247 . S
O33 Cd29 2.439 . S
O33 C34 1.208 . S
C34 O32 1.247 . S
C34 O33 1.208 . S
C35 O40 1.247 . S
C35 O41 1.208 . S
C36 O28 1.315 . S
C36 O31 1.279 . S
C37 O38 1.315 . S
C37 O39 1.279 . S
O38 Cd30 2.223 . S
O38 C37 1.315 . S
O39 Cd29 2.240 . S
O39 C37 1.279 . S
O40 Cd30 2.297 . S
O40 C35 1.247 . S
O41 Cd30 2.439 . S
O41 C35 1.208 . S
O42 Cd43 2.223 . S
O42 C50 1.315 . S
Cd43 O42 2.223 . S
Cd43 O46 2.297 . S
Cd43 O47 2.439 . S
Cd43 O53 2.240 . S
Cd44 O45 2.240 . S
Cd44 O52 2.223 . S
Cd44 O54 2.297 . S
Cd44 O55 2.439 . S
O45 Cd44 2.240 . S
O45 C50 1.279 . S
O46 Cd43 2.297 . S
O46 C48 1.247 . S
O47 Cd43 2.439 . S
O47 C48 1.208 . S
C48 O46 1.247 . S
C48 O47 1.208 . S
C49 O54 1.247 . S
C49 O55 1.208 . S
C50 O42 1.315 . S
C50 O45 1.279 . S
C51 O52 1.315 . S
C51 O53 1.279 . S
O52 Cd44 2.223 . S
O52 C51 1.315 . S
O53 Cd43 2.240 . S
O53 C51 1.279 . S
O54 Cd44 2.297 . S
O54 C49 1.247 . S
O55 Cd44 2.439 . S
O55 C49 1.208 . S
O56 Cd57 2.223 . S
O56 C64 1.315 . S
Cd57 O56 2.223 . S
Cd57 O60 2.297 . S
Cd57 O61 2.439 . S
Cd57 O67 2.240 . S
Cd58 O59 2.240 . S
Cd58 O66 2.223 . S
Cd58 O68 2.297 . S
Cd58 O69 2.439 . S
O59 Cd58 2.240 . S
O59 C64 1.279 . S
O60 Cd57 2.297 . S
O60 C62 1.247 . S
O61 Cd57 2.439 . S
O61 C62 1.208 . S
C62 O60 1.247 . S
C62 O61 1.208 . S
C63 O68 1.247 . S
C63 O69 1.208 . S
C64 O56 1.315 . S
C64 O59 1.279 . S
C65 O66 1.315 . S
C65 O67 1.279 . S
O66 Cd58 2.223 . S
O66 C65 1.315 . S
O67 Cd57 2.240 . S
O67 C65 1.279 . S
O68 Cd58 2.297 . S
O68 C63 1.247 . S
O69 Cd58 2.439 . S
O69 C63 1.208 . S
O70 Cd71 2.223 . S
O70 C78 1.315 . S
Cd71 O70 2.223 . S
Cd71 O74 2.297 . S
Cd71 O75 2.439 . S
Cd71 O81 2.240 . S
Cd72 O73 2.240 . S
Cd72 O80 2.223 . S
Cd72 O82 2.297 . S
Cd72 O83 2.439 . S
O73 Cd72 2.240 . S
O73 C78 1.279 . S
O74 Cd71 2.297 . S
O74 C76 1.247 . S
O75 Cd71 2.439 . S
O75 C76 1.208 . S
C76 O74 1.247 . S
C76 O75 1.208 . S
C77 O82 1.247 . S
C77 O83 1.208 . S
C78 O70 1.315 . S
C78 O73 1.279 . S
C79 O80 1.315 . S
C79 O81 1.279 . S
O80 Cd72 2.223 . S
O80 C79 1.315 . S
O81 Cd71 2.240 . S
O81 C79 1.279 . S
O82 Cd72 2.297 . S
O82 C77 1.247 . S
O83 Cd72 2.439 . S
O83 C77 1.208 . S
O84 Cd85 2.223 . S
O84 C92 1.315 . S
Cd85 O84 2.223 . S
Cd85 O88 2.297 . S
Cd85 O89 2.439 . S
Cd85 O95 2.240 . S
Cd86 O87 2.240 . S
Cd86 O94 2.223 . S
Cd86 O96 2.297 . S
Cd86 O97 2.439 . S
O87 Cd86 2.240 . S
O87 C92 1.279 . S
O88 Cd85 2.297 . S
O88 C90 1.247 . S
O89 Cd85 2.439 . S
O89 C90 1.208 . S
C90 O88 1.247 . S
C90 O89 1.208 . S
C91 O96 1.247 . S
C91 O97 1.208 . S
C92 O84 1.315 . S
C92 O87 1.279 . S
C93 O94 1.315 . S
C93 O95 1.279 . S
O94 Cd86 2.223 . S
O94 C93 1.315 . S
O95 Cd85 2.240 . S
O95 C93 1.279 . S
O96 Cd86 2.297 . S
O96 C91 1.247 . S
O97 Cd86 2.439 . S
O97 C91 1.208 . S
O98 Cd99 2.223 . S
O98 C106 1.315 . S
Cd99 O98 2.223 . S
Cd99 O102 2.297 . S
Cd99 O103 2.439 . S
Cd99 O109 2.240 . S
Cd100 O101 2.240 . S
Cd100 O108 2.223 1_455 S
Cd100 O110 2.297 . S
Cd100 O111 2.439 . S
O101 Cd100 2.240 . S
O101 C106 1.279 . S
O102 Cd99 2.297 . S
O102 C104 1.247 . S
O103 Cd99 2.439 . S
O103 C104 1.208 . S
C104 O102 1.247 . S
C104 O103 1.208 . S
C105 O110 1.247 . S
C105 O111 1.208 . S
C106 O98 1.315 . S
C106 O101 1.279 . S
C107 O108 1.315 . S
C107 O109 1.279 1_655 S
O108 Cd100 2.223 1_655 S
O108 C107 1.315 . S
O109 Cd99 2.240 . S
O109 C107 1.279 1_455 S
O110 Cd100 2.297 . S
O110 C105 1.247 . S
O111 Cd100 2.439 . S
O111 C105 1.208 . S
O112 Cd113 2.223 . S
O112 C120 1.315 . S
Cd113 O112 2.223 . S
Cd113 O116 2.297 . S
Cd113 O117 2.439 . S
Cd113 O123 2.240 1_545 S
Cd114 O115 2.240 . S
Cd114 O122 2.223 1_545 S
Cd114 O124 2.297 . S
Cd114 O125 2.439 . S
O115 Cd114 2.240 . S
O115 C120 1.279 . S
O116 Cd113 2.297 . S
O116 C118 1.247 . S
O117 Cd113 2.439 . S
O117 C118 1.208 . S
C118 O116 1.247 . S
C118 O117 1.208 . S
C119 O124 1.247 . S
C119 O125 1.208 . S
C120 O112 1.315 . S
C120 O115 1.279 . S
C121 O122 1.315 . S
C121 O123 1.279 . S
O122 Cd114 2.223 1_565 S
O122 C121 1.315 . S
O123 Cd113 2.240 1_565 S
O123 C121 1.279 . S
O124 Cd114 2.297 . S
O124 C119 1.247 . S
O125 Cd114 2.439 . S
O125 C119 1.208 . S
O126 Cd127 2.223 . S
O126 C134 1.315 . S
Cd127 O126 2.223 . S
Cd127 O130 2.297 . S
Cd127 O131 2.439 . S
Cd127 O137 2.240 . S
Cd128 O129 2.240 . S
Cd128 O136 2.223 . S
Cd128 O138 2.297 . S
Cd128 O139 2.439 . S
O129 Cd128 2.240 . S
O129 C134 1.279 . S
O130 Cd127 2.297 . S
O130 C132 1.247 . S
O131 Cd127 2.439 . S
O131 C132 1.208 . S
C132 O130 1.247 . S
C132 O131 1.208 . S
C133 O138 1.247 . S
C133 O139 1.208 . S
C134 O126 1.315 . S
C134 O129 1.279 . S
C135 O136 1.315 . S
C135 O137 1.279 . S
O136 Cd128 2.223 . S
O136 C135 1.315 . S
O137 Cd127 2.240 . S
O137 C135 1.279 . S
O138 Cd128 2.297 . S
O138 C133 1.247 . S
O139 Cd128 2.439 . S
O139 C133 1.208 . S
O140 Cd141 2.223 1_545 S
O140 C148 1.315 1_545 S
Cd141 O140 2.223 1_565 S
Cd141 O144 2.297 . S
Cd141 O145 2.439 . S
Cd141 O151 2.240 1_565 S
Cd142 O143 2.240 1_545 S
Cd142 O150 2.223 . S
Cd142 O152 2.297 . S
Cd142 O153 2.439 1_545 S
O143 Cd142 2.240 1_565 S
O143 C148 1.279 . S
O144 Cd141 2.297 . S
O144 C146 1.247 . S
O145 Cd141 2.439 . S
O145 C146 1.208 . S
C146 O144 1.247 . S
C146 O145 1.208 . S
C147 O152 1.247 . S
C147 O153 1.208 1_545 S
C148 O140 1.315 1_565 S
C148 O143 1.279 . S
C149 O150 1.315 . S
C149 O151 1.279 . S
O150 Cd142 2.223 . S
O150 C149 1.315 . S
O151 Cd141 2.240 1_545 S
O151 C149 1.279 . S
O152 Cd142 2.297 . S
O152 C147 1.247 . S
O153 Cd142 2.439 1_565 S
O153 C147 1.208 1_565 S
O154 Cd155 2.223 . S
O154 C162 1.315 . S
Cd155 O154 2.223 . S
Cd155 O158 2.297 . S
Cd155 O159 2.416 1_554 S
Cd155 O165 2.240 . S
Cd156 O157 2.240 1_556 S
Cd156 O164 2.223 1_556 S
Cd156 O166 2.297 . S
Cd156 O167 2.439 . S
O157 Cd156 2.240 1_554 S
O157 C162 1.279 . S
O158 Cd155 2.297 . S
O158 C160 1.247 . S
O159 Cd155 2.416 1_556 S
O159 C160 1.168 1_556 S
C160 O158 1.247 . S
C160 O159 1.168 1_554 S
C161 O166 1.247 . S
C161 O167 1.208 . S
C162 O154 1.315 . S
C162 O157 1.279 . S
C163 O164 1.315 . S
C163 O165 1.279 . S
O164 Cd156 2.223 1_554 S
O164 C163 1.315 . S
O165 Cd155 2.240 . S
O165 C163 1.279 . S
O166 Cd156 2.297 . S
O166 C161 1.247 . S
O167 Cd156 2.439 . S
O167 C161 1.208 . S
O168 Cd169 2.223 . S
O168 C176 1.315 . S
Cd169 O168 2.223 . S
Cd169 O172 2.297 . S
Cd169 O173 2.439 . S
Cd169 O179 2.240 . S
Cd170 O171 2.240 . S
Cd170 O178 2.223 . S
Cd170 O180 2.297 1_554 S
Cd170 O181 2.439 1_554 S
O171 Cd170 2.240 . S
O171 C176 1.279 . S
O172 Cd169 2.297 . S
O172 C174 1.247 . S
O173 Cd169 2.439 . S
O173 C174 1.208 . S
C174 O172 1.247 . S
C174 O173 1.208 . S
C175 O180 1.247 . S
C175 O181 1.208 . S
C176 O168 1.315 . S
C176 O171 1.279 . S
C177 O178 1.315 . S
C177 O179 1.279 . S
O178 Cd170 2.223 . S
O178 C177 1.315 . S
O179 Cd169 2.240 . S
O179 C177 1.279 . S
O180 Cd170 2.297 1_556 S
O180 C175 1.247 . S
O181 Cd170 2.439 1_556 S
O181 C175 1.208 . S
O182 Cd183 2.223 . S
O182 C190 1.315 . S
Cd183 O182 2.223 . S
Cd183 O186 2.297 . S
Cd183 O187 2.439 . S
Cd183 O193 2.240 . S
Cd184 O185 2.240 . S
Cd184 O192 2.223 . S
Cd184 O194 2.297 1_554 S
Cd184 O195 2.439 1_554 S
O185 Cd184 2.240 . S
O185 C190 1.279 . S
O186 Cd183 2.297 . S
O186 C188 1.247 . S
O187 Cd183 2.439 . S
O187 C188 1.208 . S
C188 O186 1.247 . S
C188 O187 1.208 . S
C189 O194 1.247 . S
C189 O195 1.208 . S
C190 O182 1.315 . S
C190 O185 1.279 . S
C191 O192 1.315 . S
C191 O193 1.279 . S
O192 Cd184 2.223 . S
O192 C191 1.315 . S
O193 Cd183 2.240 . S
O193 C191 1.279 . S
O194 Cd184 2.297 1_556 S
O194 C189 1.247 . S
O195 Cd184 2.439 1_556 S
O195 C189 1.208 . S
O196 Cd197 2.223 . S
O196 C204 1.315 . S
Cd197 O196 2.223 . S
Cd197 O200 2.297 . S
Cd197 O201 2.439 . S
Cd197 O207 2.240 . S
Cd198 O199 2.240 . S
Cd198 O206 2.223 . S
Cd198 O208 2.297 . S
Cd198 O209 2.439 . S
O199 Cd198 2.240 . S
O199 C204 1.279 . S
O200 Cd197 2.297 . S
O200 C202 1.247 . S
O201 Cd197 2.439 . S
O201 C202 1.208 . S
C202 O200 1.247 . S
C202 O201 1.208 . S
C203 O208 1.247 . S
C203 O209 1.208 . S
C204 O196 1.315 . S
C204 O199 1.279 . S
C205 O206 1.315 . S
C205 O207 1.279 . S
O206 Cd198 2.223 . S
O206 C205 1.315 . S
O207 Cd197 2.240 . S
O207 C205 1.279 . S
O208 Cd198 2.297 . S
O208 C203 1.247 . S
O209 Cd198 2.439 . S
O209 C203 1.208 . S
O210 Cd211 2.223 . S
O210 C218 1.315 . S
Cd211 O210 2.223 . S
Cd211 O214 2.297 . S
Cd211 O215 2.439 . S
Cd211 O221 2.240 . S
Cd212 O213 2.240 . S
Cd212 O220 2.223 . S
Cd212 O222 2.297 . S
Cd212 O223 2.439 . S
O213 Cd212 2.240 . S
O213 C218 1.279 . S
O214 Cd211 2.297 . S
O214 C216 1.247 . S
O215 Cd211 2.439 . S
O215 C216 1.208 . S
C216 O214 1.247 . S
C216 O215 1.208 . S
C217 O222 1.247 . S
C217 O223 1.208 . S
C218 O210 1.315 . S
C218 O213 1.279 . S
C219 O220 1.315 . S
C219 O221 1.279 . S
O220 Cd212 2.223 . S
O220 C219 1.315 . S
O221 Cd211 2.240 . S
O221 C219 1.279 . S
O222 Cd212 2.297 . S
O222 C217 1.247 . S
O223 Cd212 2.439 . S
O223 C217 1.208 . S
O224 Cd225 2.223 . S
O224 C232 1.315 . S
Cd225 O224 2.223 . S
Cd225 O228 2.297 . S
Cd225 O229 2.439 . S
Cd225 O235 2.240 . S
Cd226 O227 2.240 . S
Cd226 O234 2.223 . S
Cd226 O236 2.297 . S
Cd226 O237 2.439 . S
O227 Cd226 2.240 . S
O227 C232 1.279 . S
O228 Cd225 2.297 . S
O228 C230 1.247 . S
O229 Cd225 2.439 . S
O229 C230 1.208 . S
C230 O228 1.247 . S
C230 O229 1.208 . S
C231 O236 1.247 . S
C231 O237 1.208 . S
C232 O224 1.315 . S
C232 O227 1.279 . S
C233 O234 1.315 . S
C233 O235 1.279 . S
O234 Cd226 2.223 . S
O234 C233 1.315 . S
O235 Cd225 2.240 . S
O235 C233 1.279 . S
O236 Cd226 2.297 . S
O236 C231 1.247 . S
O237 Cd226 2.439 . S
O237 C231 1.208 . S
O238 Cd239 2.223 . S
O238 C246 1.315 . S
Cd239 O238 2.223 . S
Cd239 O242 2.297 . S
Cd239 O243 2.439 . S
Cd239 O249 2.240 . S
Cd240 O241 2.240 . S
Cd240 O248 2.223 . S
Cd240 O250 2.297 . S
Cd240 O251 2.439 . S
O241 Cd240 2.240 . S
O241 C246 1.279 . S
O242 Cd239 2.297 . S
O242 C244 1.247 . S
O243 Cd239 2.439 . S
O243 C244 1.208 . S
C244 O242 1.247 . S
C244 O243 1.208 . S
C245 O250 1.247 . S
C245 O251 1.208 . S
C246 O238 1.315 . S
C246 O241 1.279 . S
C247 O248 1.315 . S
C247 O249 1.279 . S
O248 Cd240 2.223 . S
O248 C247 1.315 . S
O249 Cd239 2.240 . S
O249 C247 1.279 . S
O250 Cd240 2.297 . S
O250 C245 1.247 . S
O251 Cd240 2.439 . S
O251 C245 1.208 . S
O252 Cd253 2.223 . S
O252 C260 1.315 . S
Cd253 O252 2.223 . S
Cd253 O256 2.297 . S
Cd253 O257 2.439 . S
Cd253 O263 2.240 . S
Cd254 O255 2.240 . S
Cd254 O262 2.223 . S
Cd254 O264 2.297 . S
Cd254 O265 2.439 . S
O255 Cd254 2.240 . S
O255 C260 1.279 . S
O256 Cd253 2.297 . S
O256 C258 1.247 . S
O257 Cd253 2.439 . S
O257 C258 1.208 . S
C258 O256 1.247 . S
C258 O257 1.208 . S
C259 O264 1.247 . S
C259 O265 1.208 . S
C260 O252 1.315 . S
C260 O255 1.279 . S
C261 O262 1.315 . S
C261 O263 1.279 . S
O262 Cd254 2.223 . S
O262 C261 1.315 . S
O263 Cd253 2.240 . S
O263 C261 1.279 . S
O264 Cd254 2.297 . S
O264 C259 1.247 . S
O265 Cd254 2.439 . S
O265 C259 1.208 . S
O266 Cd267 2.223 . S
O266 C274 1.315 . S
Cd267 O266 2.223 . S
Cd267 O270 2.297 . S
Cd267 O271 2.439 . S
Cd267 O277 2.240 . S
Cd268 O269 2.240 . S
Cd268 O276 2.223 . S
Cd268 O278 2.297 . S
Cd268 O279 2.439 . S
O269 Cd268 2.240 . S
O269 C274 1.279 . S
O270 Cd267 2.297 . S
O270 C272 1.247 . S
O271 Cd267 2.439 . S
O271 C272 1.208 . S
C272 O270 1.247 . S
C272 O271 1.208 . S
C273 O278 1.247 . S
C273 O279 1.208 . S
C274 O266 1.315 . S
C274 O269 1.279 . S
C275 O276 1.315 . S
C275 O277 1.279 . S
O276 Cd268 2.223 . S
O276 C275 1.315 . S
O277 Cd267 2.240 . S
O277 C275 1.279 . S
O278 Cd268 2.297 . S
O278 C273 1.247 . S
O279 Cd268 2.439 . S
O279 C273 1.208 . S
O280 Cd281 2.223 . S
O280 C288 1.315 . S
Cd281 O280 2.223 . S
Cd281 O284 2.297 . S
Cd281 O285 2.439 . S
Cd281 O291 2.240 . S
Cd282 O283 2.240 . S
Cd282 O290 2.223 . S
Cd282 O292 2.297 1_554 S
Cd282 O293 2.439 1_554 S
O283 Cd282 2.240 . S
O283 C288 1.279 . S
O284 Cd281 2.297 . S
O284 C286 1.247 . S
O285 Cd281 2.439 . S
O285 C286 1.208 . S
C286 O284 1.247 . S
C286 O285 1.208 . S
C287 O292 1.247 . S
C287 O293 1.208 . S
C288 O280 1.315 . S
C288 O283 1.279 . S
C289 O290 1.315 . S
C289 O291 1.279 . S
O290 Cd282 2.223 . S
O290 C289 1.315 . S
O291 Cd281 2.240 . S
O291 C289 1.279 . S
O292 Cd282 2.297 1_556 S
O292 C287 1.247 . S
O293 Cd282 2.439 1_556 S
O293 C287 1.208 . S
O294 Cd295 2.223 . S
O294 C302 1.315 . S
Cd295 O294 2.223 . S
Cd295 O298 2.297 . S
Cd295 O299 2.439 . S
Cd295 O305 2.240 . S
Cd296 O297 2.240 . S
Cd296 O304 2.223 . S
Cd296 O306 2.297 . S
Cd296 O307 2.439 . S
O297 Cd296 2.240 . S
O297 C302 1.279 . S
O298 Cd295 2.297 . S
O298 C300 1.247 . S
O299 Cd295 2.439 . S
O299 C300 1.208 . S
C300 O298 1.247 . S
C300 O299 1.208 . S
C301 O306 1.247 . S
C301 O307 1.208 . S
C302 O294 1.315 . S
C302 O297 1.279 . S
C303 O304 1.315 . S
C303 O305 1.279 . S
O304 Cd296 2.223 . S
O304 C303 1.315 . S
O305 Cd295 2.240 . S
O305 C303 1.279 . S
O306 Cd296 2.297 . S
O306 C301 1.247 . S
O307 Cd296 2.439 . S
O307 C301 1.208 . S
O308 Cd309 2.223 . S
O308 C316 1.315 . S
Cd309 O308 2.223 . S
Cd309 O312 2.297 . S
Cd309 O313 2.439 . S
Cd309 O319 2.240 . S
Cd310 O311 2.240 . S
Cd310 O318 2.223 . S
Cd310 O320 2.297 . S
Cd310 O321 2.439 . S
O311 Cd310 2.240 . S
O311 C316 1.279 . S
O312 Cd309 2.297 . S
O312 C314 1.247 . S
O313 Cd309 2.439 . S
O313 C314 1.208 . S
C314 O312 1.247 . S
C314 O313 1.208 . S
C315 O320 1.247 . S
C315 O321 1.208 . S
C316 O308 1.315 . S
C316 O311 1.279 . S
C317 O318 1.315 . S
C317 O319 1.279 . S
O318 Cd310 2.223 . S
O318 C317 1.315 . S
O319 Cd309 2.240 . S
O319 C317 1.279 . S
O320 Cd310 2.297 . S
O320 C315 1.247 . S
O321 Cd310 2.439 . S
O321 C315 1.208 . S
O322 Cd323 2.223 . S
O322 C330 1.315 . S
Cd323 O322 2.223 . S
Cd323 O326 2.297 . S
Cd323 O327 2.439 . S
Cd323 O333 2.240 . S
Cd324 O325 2.240 . S
Cd324 O332 2.223 . S
Cd324 O334 2.297 . S
Cd324 O335 2.439 . S
O325 Cd324 2.240 . S
O325 C330 1.279 . S
O326 Cd323 2.297 . S
O326 C328 1.247 . S
O327 Cd323 2.439 . S
O327 C328 1.208 . S
C328 O326 1.247 . S
C328 O327 1.208 . S
C329 O334 1.247 . S
C329 O335 1.208 . S
C330 O322 1.315 . S
C330 O325 1.279 . S
C331 O332 1.315 . S
C331 O333 1.279 . S
O332 Cd324 2.223 . S
O332 C331 1.315 . S
O333 Cd323 2.240 . S
O333 C331 1.279 . S
O334 Cd324 2.297 . S
O334 C329 1.247 . S
O335 Cd324 2.439 . S
O335 C329 1.208 . S
Sm336 C338 2.854 1_455 S
Sm336 O356 2.543 1_455 S
Sm336 O357 2.450 1_454 S
Sm336 O358 2.683 . S
Sm336 O359 2.464 1_554 S
Sm336 O360 2.396 . S
Sm336 O364 2.386 . S
Sm336 O367 2.408 . S
Sm337 C347 2.846 . S
Sm337 O358 2.390 . S
Sm337 O361 2.408 . S
Sm337 O362 2.543 . S
Sm337 O363 2.450 . S
Sm337 O364 2.681 . S
Sm337 O365 2.464 . S
Sm337 O366 2.396 . S
C338 Sm336 2.854 1_655 S
C338 C339 1.497 1_554 S
C338 O356 1.297 . S
C338 O357 1.215 1_554 S
C339 C338 1.497 1_556 S
C339 C340 1.358 1_556 S
C339 C344 1.382 . S
C340 C339 1.358 1_554 S
C340 C341 1.385 . S
C340 H368 0.930 . S
C341 C340 1.385 . S
C341 C342 1.395 1_554 S
C341 H369 0.929 . S
C342 C341 1.395 1_556 S
C342 C343 1.335 . S
C343 C342 1.335 . S
C343 C344 1.398 . S
C343 H370 0.930 . S
C344 C339 1.382 . S
C344 C343 1.398 . S
C344 H371 0.929 . S
C345 O358 1.267 1_556 S
C345 O359 1.251 . S
C346 O360 1.252 . S
C346 O361 1.272 . S
C347 Sm337 2.846 . S
C347 C348 1.506 . S
C347 O362 1.261 . S
C347 O363 1.242 . S
C348 C347 1.506 . S
C348 C349 1.358 . S
C348 C353 1.382 . S
C349 C348 1.358 . S
C349 C350 1.385 . S
C349 H372 0.930 . S
C350 C349 1.385 . S
C350 C351 1.395 . S
C350 H373 0.929 1_545 S
C351 C350 1.395 . S
C351 C352 1.335 . S
C352 C351 1.335 . S
C352 C353 1.398 . S
C352 H374 0.930 . S
C353 C348 1.382 . S
C353 C352 1.398 . S
C353 H375 0.929 . S
C354 O364 1.271 . S
C354 O365 1.251 . S
C355 O366 1.252 . S
C355 O367 1.272 . S
O356 Sm336 2.543 1_655 S
O356 C338 1.297 . S
O357 Sm336 2.450 1_656 S
O357 C338 1.215 1_556 S
O358 Sm336 2.683 . S
O358 Sm337 2.390 . S
O358 C345 1.267 1_554 S
O359 Sm336 2.464 1_556 S
O359 C345 1.251 . S
O360 Sm336 2.396 . S
O360 C346 1.252 . S
O361 Sm337 2.408 . S
O361 C346 1.272 . S
O362 Sm337 2.543 . S
O362 C347 1.261 . S
O363 Sm337 2.450 . S
O363 C347 1.242 . S
O364 Sm336 2.386 . S
O364 Sm337 2.681 . S
O364 C354 1.271 . S
O365 Sm337 2.464 . S
O365 C354 1.251 . S
O366 Sm337 2.396 . S
O366 C355 1.252 . S
O367 Sm336 2.408 . S
O367 C355 1.272 . S
H368 C340 0.930 . S
H369 C341 0.929 . S
H370 C343 0.930 . S
H371 C344 0.929 . S
H372 C349 0.930 . S
H373 C350 0.929 1_565 S
H374 C352 0.930 . S
H375 C353 0.929 . S
Sm376 C378 2.846 . S
Sm376 O396 2.543 . S
Sm376 O397 2.450 . S
Sm376 O398 2.681 . S
Sm376 O399 2.464 . S
Sm376 O400 2.396 . S
Sm376 O404 2.386 . S
Sm376 O407 2.408 . S
Sm377 C387 2.846 . S
Sm377 O398 2.386 . S
Sm377 O401 2.408 . S
Sm377 O402 2.543 . S
Sm377 O403 2.450 . S
Sm377 O404 2.681 . S
Sm377 O405 2.464 . S
Sm377 O406 2.396 . S
C378 Sm376 2.846 . S
C378 C379 1.506 . S
C378 O396 1.261 . S
C378 O397 1.242 . S
C379 C378 1.506 . S
C379 C380 1.358 . S
C379 C384 1.382 . S
C380 C379 1.358 . S
C380 C381 1.385 . S
C380 H408 0.930 . S
C381 C380 1.385 . S
C381 C382 1.395 . S
C381 H409 0.929 . S
C382 C381 1.395 . S
C382 C383 1.335 . S
C383 C382 1.335 . S
C383 C384 1.398 . S
C383 H410 0.930 . S
C384 C379 1.382 . S
C384 C383 1.398 . S
C384 H411 0.929 . S
C385 O398 1.271 . S
C385 O399 1.251 . S
C386 O400 1.252 . S
C386 O401 1.272 . S
C387 Sm377 2.846 . S
C387 C388 1.506 . S
C387 O402 1.261 . S
C387 O403 1.242 . S
C388 C387 1.506 . S
C388 C389 1.358 . S
C388 C393 1.382 . S
C389 C388 1.358 . S
C389 C390 1.385 . S
C389 H412 0.930 . S
C390 C389 1.385 . S
C390 C391 1.395 . S
C390 H413 0.929 . S
C391 C390 1.395 . S
C391 C392 1.335 . S
C392 C391 1.335 . S
C392 C393 1.398 . S
C392 H414 0.930 . S
C393 C388 1.382 . S
C393 C392 1.398 . S
C393 H415 0.929 . S
C394 O404 1.271 . S
C394 O405 1.251 . S
C395 O406 1.252 . S
C395 O407 1.272 . S
O396 Sm376 2.543 . S
O396 C378 1.261 . S
O397 Sm376 2.450 . S
O397 C378 1.242 . S
O398 Sm376 2.681 . S
O398 Sm377 2.386 . S
O398 C385 1.271 . S
O399 Sm376 2.464 . S
O399 C385 1.251 . S
O400 Sm376 2.396 . S
O400 C386 1.252 . S
O401 Sm377 2.408 . S
O401 C386 1.272 . S
O402 Sm377 2.543 . S
O402 C387 1.261 . S
O403 Sm377 2.450 . S
O403 C387 1.242 . S
O404 Sm376 2.386 . S
O404 Sm377 2.681 . S
O404 C394 1.271 . S
O405 Sm377 2.464 . S
O405 C394 1.251 . S
O406 Sm377 2.396 . S
O406 C395 1.252 . S
O407 Sm376 2.408 . S
O407 C395 1.272 . S
H408 C380 0.930 . S
H409 C381 0.929 . S
H410 C383 0.930 . S
H411 C384 0.929 . S
H412 C389 0.930 . S
H413 C390 0.929 . S
H414 C392 0.930 . S
H415 C393 0.929 . S
Sm416 C418 2.846 . S
Sm416 O436 2.543 . S
Sm416 O437 2.450 . S
Sm416 O438 2.681 . S
Sm416 O439 2.464 . S
Sm416 O440 2.396 . S
Sm416 O444 2.386 . S
Sm416 O447 2.408 . S
Sm417 C427 2.846 . S
Sm417 O438 2.386 . S
Sm417 O441 2.408 1_545 S
Sm417 O442 2.543 . S
Sm417 O443 2.450 . S
Sm417 O444 2.681 . S
Sm417 O445 2.464 . S
Sm417 O446 2.396 . S
C418 Sm416 2.846 . S
C418 C419 1.506 . S
C418 O436 1.261 . S
C418 O437 1.242 . S
C419 C418 1.506 . S
C419 C420 1.358 1_545 S
C419 C424 1.382 . S
C420 C419 1.358 1_565 S
C420 C421 1.385 . S
C420 H448 0.930 . S
C421 C420 1.385 . S
C421 C422 1.395 . S
C421 H449 0.929 . S
C422 C421 1.395 . S
C422 C423 1.335 . S
C423 C422 1.335 . S
C423 C424 1.398 1_565 S
C423 H450 0.930 . S
C424 C419 1.382 . S
C424 C423 1.398 1_545 S
C424 H451 0.929 . S
C425 O438 1.271 . S
C425 O439 1.251 . S
C426 O440 1.252 1_565 S
C426 O441 1.272 . S
C427 Sm417 2.846 . S
C427 C428 1.506 . S
C427 O442 1.261 . S
C427 O443 1.242 . S
C428 C427 1.506 . S
C428 C429 1.358 . S
C428 C433 1.382 . S
C429 C428 1.358 . S
C429 C430 1.385 . S
C429 H452 0.930 . S
C430 C429 1.385 . S
C430 C431 1.395 . S
C430 H453 0.929 . S
C431 C430 1.395 . S
C431 C432 1.335 . S
C432 C431 1.335 . S
C432 C433 1.398 . S
C432 H454 0.930 . S
C433 C428 1.382 . S
C433 C432 1.398 . S
C433 H455 0.929 . S
C434 O444 1.271 . S
C434 O445 1.251 . S
C435 O446 1.252 . S
C435 O447 1.272 . S
O436 Sm416 2.543 . S
O436 C418 1.261 . S
O437 Sm416 2.450 . S
O437 C418 1.242 . S
O438 Sm416 2.681 . S
O438 Sm417 2.386 . S
O438 C425 1.271 . S
O439 Sm416 2.464 . S
O439 C425 1.251 . S
O440 Sm416 2.396 . S
O440 C426 1.252 1_545 S
O441 Sm417 2.408 1_565 S
O441 C426 1.272 . S
O442 Sm417 2.543 . S
O442 C427 1.261 . S
O443 Sm417 2.450 . S
O443 C427 1.242 . S
O444 Sm416 2.386 . S
O444 Sm417 2.681 . S
O444 C434 1.271 . S
O445 Sm417 2.464 . S
O445 C434 1.251 . S
O446 Sm417 2.396 . S
O446 C435 1.252 . S
O447 Sm416 2.408 . S
O447 C435 1.272 . S
H448 C420 0.930 . S
H449 C421 0.929 . S
H450 C423 0.930 . S
H451 C424 0.929 . S
H452 C429 0.930 . S
H453 C430 0.929 . S
H454 C432 0.930 . S
H455 C433 0.929 . S
Sm456 C458 2.846 . S
Sm456 O476 2.543 . S
Sm456 O477 2.450 . S
Sm456 O478 2.681 . S
Sm456 O479 2.464 . S
Sm456 O480 2.396 . S
Sm456 O484 2.386 . S
Sm456 O487 2.408 . S
Sm457 C467 2.846 . S
Sm457 O478 2.386 . S
Sm457 O481 2.408 . S
Sm457 O482 2.543 . S
Sm457 O483 2.450 . S
Sm457 O484 2.681 . S
Sm457 O485 2.464 . S
Sm457 O486 2.396 . S
C458 Sm456 2.846 . S
C458 C459 1.506 . S
C458 O476 1.261 . S
C458 O477 1.242 . S
C459 C458 1.506 . S
C459 C460 1.358 . S
C459 C464 1.382 . S
C460 C459 1.358 . S
C460 C461 1.385 . S
C460 H488 0.930 . S
C461 C460 1.385 . S
C461 C462 1.395 . S
C461 H489 0.929 . S
C462 C461 1.395 . S
C462 C463 1.335 . S
C463 C462 1.335 . S
C463 C464 1.398 . S
C463 H490 0.930 . S
C464 C459 1.382 . S
C464 C463 1.398 . S
C464 H491 0.929 . S
C465 O478 1.271 . S
C465 O479 1.251 . S
C466 O480 1.252 . S
C466 O481 1.272 . S
C467 Sm457 2.846 . S
C467 C468 1.506 . S
C467 O482 1.261 . S
C467 O483 1.242 . S
C468 C467 1.506 . S
C468 C469 1.358 . S
C468 C473 1.382 . S
C469 C468 1.358 . S
C469 C470 1.385 . S
C469 H492 0.930 . S
C470 C469 1.385 . S
C470 C471 1.395 . S
C470 H493 0.929 . S
C471 C470 1.395 . S
C471 C472 1.335 . S
C472 C471 1.335 . S
C472 C473 1.398 . S
C472 H494 0.930 . S
C473 C468 1.382 . S
C473 C472 1.398 . S
C473 H495 0.929 . S
C474 O484 1.271 . S
C474 O485 1.251 . S
C475 O486 1.252 . S
C475 O487 1.272 . S
O476 Sm456 2.543 . S
O476 C458 1.261 . S
O477 Sm456 2.450 . S
O477 C458 1.242 . S
O478 Sm456 2.681 . S
O478 Sm457 2.386 . S
O478 C465 1.271 . S
O479 Sm456 2.464 . S
O479 C465 1.251 . S
O480 Sm456 2.396 . S
O480 C466 1.252 . S
O481 Sm457 2.408 . S
O481 C466 1.272 . S
O482 Sm457 2.543 . S
O482 C467 1.261 . S
O483 Sm457 2.450 . S
O483 C467 1.242 . S
O484 Sm456 2.386 . S
O484 Sm457 2.681 . S
O484 C474 1.271 . S
O485 Sm457 2.464 . S
O485 C474 1.251 . S
O486 Sm457 2.396 . S
O486 C475 1.252 . S
O487 Sm456 2.408 . S
O487 C475 1.272 . S
H488 C460 0.930 . S
H489 C461 0.929 . S
H490 C463 0.930 . S
H491 C464 0.929 . S
H492 C469 0.930 . S
H493 C470 0.929 . S
H494 C472 0.930 . S
H495 C473 0.929 . S
Sm496 C498 2.846 . S
Sm496 O516 2.543 . S
Sm496 O517 2.450 . S
Sm496 O518 2.681 . S
Sm496 O519 2.464 . S
Sm496 O520 2.396 . S
Sm496 O524 2.386 . S
Sm496 O527 2.408 . S
Sm497 C507 2.846 1_545 S
Sm497 O518 2.386 . S
Sm497 O521 2.408 . S
Sm497 O522 2.543 1_545 S
Sm497 O523 2.450 1_545 S
Sm497 O524 2.681 . S
Sm497 O525 2.464 . S
Sm497 O526 2.396 . S
C498 Sm496 2.846 . S
C498 C499 1.506 . S
C498 O516 1.261 . S
C498 O517 1.242 . S
C499 C498 1.506 . S
C499 C500 1.358 . S
C499 C504 1.382 . S
C500 C499 1.358 . S
C500 C501 1.385 . S
C500 H528 0.930 . S
C501 C500 1.385 . S
C501 C502 1.395 . S
C501 H529 0.929 . S
C502 C501 1.395 . S
C502 C503 1.335 . S
C503 C502 1.335 . S
C503 C504 1.398 . S
C503 H530 0.930 . S
C504 C499 1.382 . S
C504 C503 1.398 . S
C504 H531 0.929 . S
C505 O518 1.271 . S
C505 O519 1.251 . S
C506 O520 1.252 . S
C506 O521 1.272 . S
C507 Sm497 2.846 1_565 S
C507 C508 1.506 . S
C507 O522 1.261 . S
C507 O523 1.242 . S
C508 C507 1.506 . S
C508 C509 1.358 . S
C508 C513 1.382 . S
C509 C508 1.358 . S
C509 C510 1.385 . S
C509 H532 0.930 . S
C510 C509 1.385 . S
C510 C511 1.395 . S
C510 H533 0.929 . S
C511 C510 1.395 . S
C511 C512 1.335 . S
C512 C511 1.335 . S
C512 C513 1.398 . S
C512 H534 0.930 . S
C513 C508 1.382 . S
C513 C512 1.398 . S
C513 H535 0.929 . S
C514 O524 1.271 . S
C514 O525 1.251 . S
C515 O526 1.252 . S
C515 O527 1.272 . S
O516 Sm496 2.543 . S
O516 C498 1.261 . S
O517 Sm496 2.450 . S
O517 C498 1.242 . S
O518 Sm496 2.681 . S
O518 Sm497 2.386 . S
O518 C505 1.271 . S
O519 Sm496 2.464 . S
O519 C505 1.251 . S
O520 Sm496 2.396 . S
O520 C506 1.252 . S
O521 Sm497 2.408 . S
O521 C506 1.272 . S
O522 Sm497 2.543 1_565 S
O522 C507 1.261 . S
O523 Sm497 2.450 1_565 S
O523 C507 1.242 . S
O524 Sm496 2.386 . S
O524 Sm497 2.681 . S
O524 C514 1.271 . S
O525 Sm497 2.464 . S
O525 C514 1.251 . S
O526 Sm497 2.396 . S
O526 C515 1.252 . S
O527 Sm496 2.408 . S
O527 C515 1.272 . S
H528 C500 0.930 . S
H529 C501 0.929 . S
H530 C503 0.930 . S
H531 C504 0.929 . S
H532 C509 0.930 . S
H533 C510 0.929 . S
H534 C512 0.930 . S
H535 C513 0.929 . S
Sm536 C538 2.846 . S
Sm536 O556 2.543 . S
Sm536 O557 2.450 . S
Sm536 O558 2.681 . S
Sm536 O559 2.464 . S
Sm536 O560 2.396 . S
Sm536 O564 2.386 . S
Sm536 O567 2.408 . S
Sm537 C547 2.846 . S
Sm537 O558 2.386 . S
Sm537 O561 2.408 . S
Sm537 O562 2.543 . S
Sm537 O563 2.450 . S
Sm537 O564 2.681 . S
Sm537 O565 2.464 . S
Sm537 O566 2.396 . S
C538 Sm536 2.846 . S
C538 C539 1.506 . S
C538 O556 1.261 . S
C538 O557 1.242 . S
C539 C538 1.506 . S
C539 C540 1.358 . S
C539 C544 1.382 . S
C540 C539 1.358 . S
C540 C541 1.385 . S
C540 H568 0.930 . S
C541 C540 1.385 . S
C541 C542 1.395 . S
C541 H569 0.929 . S
C542 C541 1.395 . S
C542 C543 1.335 . S
C543 C542 1.335 . S
C543 C544 1.398 . S
C543 H570 0.930 . S
C544 C539 1.382 . S
C544 C543 1.398 . S
C544 H571 0.929 . S
C545 O558 1.271 . S
C545 O559 1.251 . S
C546 O560 1.252 . S
C546 O561 1.272 . S
C547 Sm537 2.846 . S
C547 C548 1.506 . S
C547 O562 1.261 . S
C547 O563 1.242 . S
C548 C547 1.506 . S
C548 C549 1.358 . S
C548 C553 1.382 . S
C549 C548 1.358 . S
C549 C550 1.385 . S
C549 H572 0.930 . S
C550 C549 1.385 . S
C550 C551 1.395 . S
C550 H573 0.929 . S
C551 C550 1.395 . S
C551 C552 1.335 . S
C552 C551 1.335 . S
C552 C553 1.398 . S
C552 H574 0.930 . S
C553 C548 1.382 . S
C553 C552 1.398 . S
C553 H575 0.929 . S
C554 O564 1.271 . S
C554 O565 1.251 . S
C555 O566 1.252 . S
C555 O567 1.272 . S
O556 Sm536 2.543 . S
O556 C538 1.261 . S
O557 Sm536 2.450 . S
O557 C538 1.242 . S
O558 Sm536 2.681 . S
O558 Sm537 2.386 . S
O558 C545 1.271 . S
O559 Sm536 2.464 . S
O559 C545 1.251 . S
O560 Sm536 2.396 . S
O560 C546 1.252 . S
O561 Sm537 2.408 . S
O561 C546 1.272 . S
O562 Sm537 2.543 . S
O562 C547 1.261 . S
O563 Sm537 2.450 . S
O563 C547 1.242 . S
O564 Sm536 2.386 . S
O564 Sm537 2.681 . S
O564 C554 1.271 . S
O565 Sm537 2.464 . S
O565 C554 1.251 . S
O566 Sm537 2.396 . S
O566 C555 1.252 . S
O567 Sm536 2.408 . S
O567 C555 1.272 . S
H568 C540 0.930 . S
H569 C541 0.929 . S
H570 C543 0.930 . S
H571 C544 0.929 . S
H572 C549 0.930 . S
H573 C550 0.929 . S
H574 C552 0.930 . S
H575 C553 0.929 . S
Sm576 C578 2.846 . S
Sm576 O596 2.543 . S
Sm576 O597 2.450 . S
Sm576 O598 2.681 . S
Sm576 O599 2.464 1_545 S
Sm576 O600 2.396 . S
Sm576 O604 2.386 . S
Sm576 O607 2.408 . S
Sm577 C587 2.846 . S
Sm577 O598 2.386 1_556 S
Sm577 O601 2.408 1_556 S
Sm577 O602 2.543 . S
Sm577 O603 2.450 . S
Sm577 O604 2.681 1_556 S
Sm577 O605 2.464 1_556 S
Sm577 O606 2.396 1_556 S
C578 Sm576 2.846 . S
C578 C579 1.506 . S
C578 O596 1.261 . S
C578 O597 1.242 . S
C579 C578 1.506 . S
C579 C580 1.358 . S
C579 C584 1.382 1_545 S
C580 C579 1.358 . S
C580 C581 1.385 . S
C580 H608 0.930 . S
C581 C580 1.385 . S
C581 C582 1.369 1_545 S
C581 H609 0.929 . S
C582 C581 1.369 1_565 S
C582 C583 1.353 . S
C583 C582 1.353 . S
C583 C584 1.398 . S
C583 H610 0.930 . S
C584 C579 1.382 1_565 S
C584 C583 1.398 . S
C584 H611 0.929 . S
C585 O598 1.271 . S
C585 O599 1.251 1_545 S
C586 O600 1.252 . S
C586 O601 1.272 . S
C587 Sm577 2.846 . S
C587 C588 1.506 . S
C587 O602 1.261 . S
C587 O603 1.242 . S
C588 C587 1.506 . S
C588 C589 1.358 . S
C588 C593 1.382 . S
C589 C588 1.358 . S
C589 C590 1.385 . S
C589 H612 0.930 . S
C590 C589 1.385 . S
C590 C591 1.395 . S
C590 H613 0.929 . S
C591 C590 1.395 . S
C591 C592 1.335 . S
C592 C591 1.335 . S
C592 C593 1.398 . S
C592 H614 0.930 . S
C593 C588 1.382 . S
C593 C592 1.398 . S
C593 H615 0.929 . S
C594 O604 1.271 . S
C594 O605 1.251 . S
C595 O606 1.252 . S
C595 O607 1.272 . S
O596 Sm576 2.543 . S
O596 C578 1.261 . S
O597 Sm576 2.450 . S
O597 C578 1.242 . S
O598 Sm576 2.681 . S
O598 Sm577 2.386 1_554 S
O598 C585 1.271 . S
O599 Sm576 2.464 1_565 S
O599 C585 1.251 1_565 S
O600 Sm576 2.396 . S
O600 C586 1.252 . S
O601 Sm577 2.408 1_554 S
O601 C586 1.272 . S
O602 Sm577 2.543 . S
O602 C587 1.261 . S
O603 Sm577 2.450 . S
O603 C587 1.242 . S
O604 Sm576 2.386 . S
O604 Sm577 2.681 1_554 S
O604 C594 1.271 . S
O605 Sm577 2.464 1_554 S
O605 C594 1.251 . S
O606 Sm577 2.396 1_554 S
O606 C595 1.252 . S
O607 Sm576 2.408 . S
O607 C595 1.272 . S
H608 C580 0.930 . S
H609 C581 0.929 . S
H610 C583 0.930 . S
H611 C584 0.929 . S
H612 C589 0.930 . S
H613 C590 0.929 . S
H614 C592 0.930 . S
H615 C593 0.929 . S
Sm616 C618 2.846 . S
Sm616 O636 2.543 . S
Sm616 O637 2.450 . S
Sm616 O638 2.681 . S
Sm616 O639 2.464 . S
Sm616 O640 2.396 . S
Sm616 O644 2.386 . S
Sm616 O647 2.408 . S
Sm617 C627 2.846 . S
Sm617 O638 2.386 . S
Sm617 O641 2.408 . S
Sm617 O642 2.543 . S
Sm617 O643 2.450 . S
Sm617 O644 2.681 . S
Sm617 O645 2.464 . S
Sm617 O646 2.396 . S
C618 Sm616 2.846 . S
C618 C619 1.506 . S
C618 O636 1.261 . S
C618 O637 1.242 . S
C619 C618 1.506 . S
C619 C620 1.358 . S
C619 C624 1.382 . S
C620 C619 1.358 . S
C620 C621 1.385 . S
C620 H648 0.930 . S
C621 C620 1.385 . S
C621 C622 1.395 . S
C621 H649 0.929 . S
C622 C621 1.395 . S
C622 C623 1.335 . S
C623 C622 1.335 . S
C623 C624 1.398 . S
C623 H650 0.930 . S
C624 C619 1.382 . S
C624 C623 1.398 . S
C624 H651 0.929 . S
C625 O638 1.271 . S
C625 O639 1.251 . S
C626 O640 1.252 . S
C626 O641 1.272 . S
C627 Sm617 2.846 . S
C627 C628 1.506 . S
C627 O642 1.261 . S
C627 O643 1.242 . S
C628 C627 1.506 . S
C628 C629 1.358 . S
C628 C633 1.382 . S
C629 C628 1.358 . S
C629 C630 1.385 . S
C629 H652 0.930 . S
C630 C629 1.385 . S
C630 C631 1.395 . S
C630 H653 0.929 . S
C631 C630 1.395 . S
C631 C632 1.335 . S
C632 C631 1.335 . S
C632 C633 1.398 . S
C632 H654 0.930 . S
C633 C628 1.382 . S
C633 C632 1.398 . S
C633 H655 0.929 . S
C634 O644 1.271 . S
C634 O645 1.251 . S
C635 O646 1.252 . S
C635 O647 1.272 . S
O636 Sm616 2.543 . S
O636 C618 1.261 . S
O637 Sm616 2.450 . S
O637 C618 1.242 . S
O638 Sm616 2.681 . S
O638 Sm617 2.386 . S
O638 C625 1.271 . S
O639 Sm616 2.464 . S
O639 C625 1.251 . S
O640 Sm616 2.396 . S
O640 C626 1.252 . S
O641 Sm617 2.408 . S
O641 C626 1.272 . S
O642 Sm617 2.543 . S
O642 C627 1.261 . S
O643 Sm617 2.450 . S
O643 C627 1.242 . S
O644 Sm616 2.386 . S
O644 Sm617 2.681 . S
O644 C634 1.271 . S
O645 Sm617 2.464 . S
O645 C634 1.251 . S
O646 Sm617 2.396 . S
O646 C635 1.252 . S
O647 Sm616 2.408 . S
O647 C635 1.272 . S
H648 C620 0.930 . S
H649 C621 0.929 . S
H650 C623 0.930 . S
H651 C624 0.929 . S
H652 C629 0.930 . S
H653 C630 0.929 . S
H654 C632 0.930 . S
H655 C633 0.929 . S
Sm656 C658 2.846 . S
Sm656 O676 2.543 . S
Sm656 O677 2.450 . S
Sm656 O678 2.681 . S
Sm656 O679 2.464 . S
Sm656 O680 2.396 1_554 S
Sm656 O684 2.386 . S
Sm656 O687 2.408 . S
Sm657 C667 2.846 . S
Sm657 O678 2.386 . S
Sm657 O681 2.408 1_554 S
Sm657 O682 2.543 . S
Sm657 O683 2.450 . S
Sm657 O684 2.681 . S
Sm657 O685 2.464 . S
Sm657 O686 2.396 . S
C658 Sm656 2.846 . S
C658 C659 1.506 1_554 S
C658 O676 1.261 . S
C658 O677 1.242 . S
C659 C658 1.506 1_556 S
C659 C660 1.358 . S
C659 C664 1.377 1_556 S
C660 C659 1.358 . S
C660 C661 1.385 . S
C660 H688 0.930 . S
C661 C660 1.385 . S
C661 C662 1.395 . S
C661 H689 0.929 . S
C662 C661 1.395 . S
C662 C663 1.335 . S
C663 C662 1.335 . S
C663 C664 1.375 1_556 S
C663 H690 0.930 . S
C664 C659 1.377 1_554 S
C664 C663 1.375 1_554 S
C664 H691 0.960 . S
C665 O678 1.271 . S
C665 O679 1.251 . S
C666 O680 1.252 . S
C666 O681 1.272 . S
C667 Sm657 2.846 . S
C667 C668 1.506 . S
C667 O682 1.261 . S
C667 O683 1.242 . S
C668 C667 1.506 . S
C668 C669 1.358 . S
C668 C673 1.382 . S
C669 C668 1.358 . S
C669 C670 1.385 . S
C669 H692 0.930 . S
C670 C669 1.385 . S
C670 C671 1.395 . S
C670 H693 0.929 . S
C671 C670 1.395 . S
C671 C672 1.335 . S
C672 C671 1.335 . S
C672 C673 1.398 . S
C672 H694 0.930 . S
C673 C668 1.382 . S
C673 C672 1.398 . S
C673 H695 0.929 . S
C674 O684 1.271 . S
C674 O685 1.251 . S
C675 O686 1.252 . S
C675 O687 1.272 . S
O676 Sm656 2.543 . S
O676 C658 1.261 . S
O677 Sm656 2.450 . S
O677 C658 1.242 . S
O678 Sm656 2.681 . S
O678 Sm657 2.386 . S
O678 C665 1.271 . S
O679 Sm656 2.464 . S
O679 C665 1.251 . S
O680 Sm656 2.396 1_556 S
O680 C666 1.252 . S
O681 Sm657 2.408 1_556 S
O681 C666 1.272 . S
O682 Sm657 2.543 . S
O682 C667 1.261 . S
O683 Sm657 2.450 . S
O683 C667 1.242 . S
O684 Sm656 2.386 . S
O684 Sm657 2.681 . S
O684 C674 1.271 . S
O685 Sm657 2.464 . S
O685 C674 1.251 . S
O686 Sm657 2.396 . S
O686 C675 1.252 . S
O687 Sm656 2.408 . S
O687 C675 1.272 . S
H688 C660 0.930 . S
H689 C661 0.929 . S
H690 C663 0.930 . S
H691 C664 0.960 . S
H692 C669 0.930 . S
H693 C670 0.929 . S
H694 C672 0.930 . S
H695 C673 0.929 . S
Sm696 C698 2.846 . S
Sm696 O716 2.543 . S
Sm696 O717 2.450 . S
Sm696 O718 2.681 . S
Sm696 O719 2.464 . S
Sm696 O720 2.396 . S
Sm696 O724 2.386 . S
Sm696 O727 2.408 . S
Sm697 C707 2.846 . S
Sm697 O718 2.386 . S
Sm697 O721 2.408 . S
Sm697 O722 2.543 . S
Sm697 O723 2.450 . S
Sm697 O724 2.681 . S
Sm697 O725 2.464 . S
Sm697 O726 2.396 . S
C698 Sm696 2.846 . S
C698 C699 1.506 . S
C698 O716 1.261 . S
C698 O717 1.242 . S
C699 C698 1.506 . S
C699 C700 1.358 . S
C699 C704 1.382 . S
C700 C699 1.358 . S
C700 C701 1.385 . S
C700 H728 0.930 . S
C701 C700 1.385 . S
C701 C702 1.395 . S
C701 H729 0.929 . S
C702 C701 1.395 . S
C702 C703 1.335 . S
C703 C702 1.335 . S
C703 C704 1.398 . S
C703 H730 0.930 . S
C704 C699 1.382 . S
C704 C703 1.398 . S
C704 H731 0.929 . S
C705 O718 1.271 . S
C705 O719 1.251 . S
C706 O720 1.252 . S
C706 O721 1.272 . S
C707 Sm697 2.846 . S
C707 C708 1.506 . S
C707 O722 1.261 . S
C707 O723 1.242 . S
C708 C707 1.506 . S
C708 C709 1.358 . S
C708 C713 1.382 . S
C709 C708 1.358 . S
C709 C710 1.385 . S
C709 H732 0.930 . S
C710 C709 1.385 . S
C710 C711 1.395 . S
C710 H733 0.929 . S
C711 C710 1.395 . S
C711 C712 1.335 . S
C712 C711 1.335 . S
C712 C713 1.398 . S
C712 H734 0.930 . S
C713 C708 1.382 . S
C713 C712 1.398 . S
C713 H735 0.929 . S
C714 O724 1.271 . S
C714 O725 1.251 . S
C715 O726 1.252 . S
C715 O727 1.272 . S
O716 Sm696 2.543 . S
O716 C698 1.261 . S
O717 Sm696 2.450 . S
O717 C698 1.242 . S
O718 Sm696 2.681 . S
O718 Sm697 2.386 . S
O718 C705 1.271 . S
O719 Sm696 2.464 . S
O719 C705 1.251 . S
O720 Sm696 2.396 . S
O720 C706 1.252 . S
O721 Sm697 2.408 . S
O721 C706 1.272 . S
O722 Sm697 2.543 . S
O722 C707 1.261 . S
O723 Sm697 2.450 . S
O723 C707 1.242 . S
O724 Sm696 2.386 . S
O724 Sm697 2.681 . S
O724 C714 1.271 . S
O725 Sm697 2.464 . S
O725 C714 1.251 . S
O726 Sm697 2.396 . S
O726 C715 1.252 . S
O727 Sm696 2.408 . S
O727 C715 1.272 . S
H728 C700 0.930 . S
H729 C701 0.929 . S
H730 C703 0.930 . S
H731 C704 0.929 . S
H732 C709 0.930 . S
H733 C710 0.929 . S
H734 C712 0.930 . S
H735 C713 0.929 . S
Sm736 C738 2.846 . S
Sm736 O756 2.543 . S
Sm736 O757 2.450 . S
Sm736 O758 2.681 . S
Sm736 O759 2.464 . S
Sm736 O760 2.396 . S
Sm736 O764 2.386 . S
Sm736 O767 2.408 . S
Sm737 C747 2.846 . S
Sm737 O758 2.386 . S
Sm737 O761 2.408 . S
Sm737 O762 2.543 . S
Sm737 O763 2.450 . S
Sm737 O764 2.681 . S
Sm737 O765 2.464 . S
Sm737 O766 2.396 . S
C738 Sm736 2.846 . S
C738 C739 1.506 . S
C738 O756 1.261 . S
C738 O757 1.242 . S
C739 C738 1.506 . S
C739 C740 1.358 . S
C739 C744 1.382 . S
C740 C739 1.358 . S
C740 C741 1.385 1_455 S
C740 H768 0.930 . S
C741 C740 1.385 1_655 S
C741 C742 1.395 . S
C741 H769 0.929 . S
C742 C741 1.395 . S
C742 C743 1.335 1_655 S
C743 C742 1.335 1_455 S
C743 C744 1.398 . S
C743 H770 0.930 . S
C744 C739 1.382 . S
C744 C743 1.398 . S
C744 H771 0.929 . S
C745 O758 1.271 . S
C745 O759 1.251 . S
C746 O760 1.252 . S
C746 O761 1.272 . S
C747 Sm737 2.846 . S
C747 C748 1.506 . S
C747 O762 1.261 . S
C747 O763 1.242 . S
C748 C747 1.506 . S
C748 C749 1.358 . S
C748 C753 1.382 . S
C749 C748 1.358 . S
C749 C750 1.385 . S
C749 H772 0.930 . S
C750 C749 1.385 . S
C750 C751 1.395 . S
C750 H773 0.929 . S
C751 C750 1.395 . S
C751 C752 1.335 . S
C752 C751 1.335 . S
C752 C753 1.398 . S
C752 H774 0.930 . S
C753 C748 1.382 . S
C753 C752 1.398 . S
C753 H775 0.929 . S
C754 O764 1.271 . S
C754 O765 1.251 . S
C755 O766 1.252 . S
C755 O767 1.272 . S
O756 Sm736 2.543 . S
O756 C738 1.261 . S
O757 Sm736 2.450 . S
O757 C738 1.242 . S
O758 Sm736 2.681 . S
O758 Sm737 2.386 . S
O758 C745 1.271 . S
O759 Sm736 2.464 . S
O759 C745 1.251 . S
O760 Sm736 2.396 . S
O760 C746 1.252 . S
O761 Sm737 2.408 . S
O761 C746 1.272 . S
O762 Sm737 2.543 . S
O762 C747 1.261 . S
O763 Sm737 2.450 . S
O763 C747 1.242 . S
O764 Sm736 2.386 . S
O764 Sm737 2.681 . S
O764 C754 1.271 . S
O765 Sm737 2.464 . S
O765 C754 1.251 . S
O766 Sm737 2.396 . S
O766 C755 1.252 . S
O767 Sm736 2.408 . S
O767 C755 1.272 . S
H768 C740 0.930 . S
H769 C741 0.929 . S
H770 C743 0.930 . S
H771 C744 0.929 . S
H772 C749 0.930 . S
H773 C750 0.929 . S
H774 C752 0.930 . S
H775 C753 0.929 . S
Sm776 C778 2.846 . S
Sm776 O796 2.543 . S
Sm776 O797 2.450 . S
Sm776 O798 2.681 . S
Sm776 O799 2.464 . S
Sm776 O800 2.396 . S
Sm776 O804 2.386 . S
Sm776 O807 2.408 . S
Sm777 C787 2.846 . S
Sm777 O798 2.386 . S
Sm777 O801 2.408 . S
Sm777 O802 2.543 . S
Sm777 O803 2.450 . S
Sm777 O804 2.681 . S
Sm777 O805 2.464 . S
Sm777 O806 2.396 . S
C778 Sm776 2.846 . S
C778 C779 1.506 . S
C778 O796 1.261 . S
C778 O797 1.242 . S
C779 C778 1.506 . S
C779 C780 1.358 . S
C779 C784 1.382 . S
C780 C779 1.358 . S
C780 C781 1.385 . S
C780 H808 0.930 . S
C781 C780 1.385 . S
C781 C782 1.395 . S
C781 H809 0.929 . S
C782 C781 1.395 . S
C782 C783 1.335 . S
C783 C782 1.335 . S
C783 C784 1.398 . S
C783 H810 0.930 . S
C784 C779 1.382 . S
C784 C783 1.398 . S
C784 H811 0.929 . S
C785 O798 1.271 . S
C785 O799 1.251 . S
C786 O800 1.252 . S
C786 O801 1.272 . S
C787 Sm777 2.846 . S
C787 C788 1.506 . S
C787 O802 1.261 . S
C787 O803 1.242 . S
C788 C787 1.506 . S
C788 C789 1.358 . S
C788 C793 1.382 . S
C789 C788 1.358 . S
C789 C790 1.385 . S
C789 H812 0.930 . S
C790 C789 1.385 . S
C790 C791 1.395 . S
C790 H813 0.929 . S
C791 C790 1.395 . S
C791 C792 1.335 . S
C792 C791 1.335 . S
C792 C793 1.398 . S
C792 H814 0.930 . S
C793 C788 1.382 . S
C793 C792 1.398 . S
C793 H815 0.929 . S
C794 O804 1.271 . S
C794 O805 1.251 . S
C795 O806 1.252 . S
C795 O807 1.272 . S
O796 Sm776 2.543 . S
O796 C778 1.261 . S
O797 Sm776 2.450 . S
O797 C778 1.242 . S
O798 Sm776 2.681 . S
O798 Sm777 2.386 . S
O798 C785 1.271 . S
O799 Sm776 2.464 . S
O799 C785 1.251 . S
O800 Sm776 2.396 . S
O800 C786 1.252 . S
O801 Sm777 2.408 . S
O801 C786 1.272 . S
O802 Sm777 2.543 . S
O802 C787 1.261 . S
O803 Sm777 2.450 . S
O803 C787 1.242 . S
O804 Sm776 2.386 . S
O804 Sm777 2.681 . S
O804 C794 1.271 . S
O805 Sm777 2.464 . S
O805 C794 1.251 . S
O806 Sm777 2.396 . S
O806 C795 1.252 . S
O807 Sm776 2.408 . S
O807 C795 1.272 . S
H808 C780 0.930 . S
H809 C781 0.929 . S
H810 C783 0.930 . S
H811 C784 0.929 . S
H812 C789 0.930 . S
H813 C790 0.929 . S
H814 C792 0.930 . S
H815 C793 0.929 . S
Sm816 C818 2.846 . S
Sm816 O836 2.543 . S
Sm816 O837 2.450 . S
Sm816 O838 2.681 . S
Sm816 O839 2.464 . S
Sm816 O840 2.396 . S
Sm816 O844 2.386 . S
Sm816 O847 2.408 . S
Sm817 C827 2.846 . S
Sm817 O838 2.386 . S
Sm817 O841 2.408 . S
Sm817 O842 2.543 . S
Sm817 O843 2.450 . S
Sm817 O844 2.681 . S
Sm817 O845 2.464 . S
Sm817 O846 2.396 . S
C818 Sm816 2.846 . S
C818 C819 1.506 . S
C818 O836 1.261 . S
C818 O837 1.242 . S
C819 C818 1.506 . S
C819 C820 1.358 . S
C819 C824 1.382 . S
C820 C819 1.358 . S
C820 C821 1.385 . S
C820 H848 0.930 . S
C821 C820 1.385 . S
C821 C822 1.395 . S
C821 H849 0.929 . S
C822 C821 1.395 . S
C822 C823 1.335 . S
C823 C822 1.335 . S
C823 C824 1.398 . S
C823 H850 0.930 . S
C824 C819 1.382 . S
C824 C823 1.398 . S
C824 H851 0.929 . S
C825 O838 1.271 . S
C825 O839 1.251 . S
C826 O840 1.252 . S
C826 O841 1.272 . S
C827 Sm817 2.846 . S
C827 C828 1.506 . S
C827 O842 1.261 . S
C827 O843 1.242 . S
C828 C827 1.506 . S
C828 C829 1.358 . S
C828 C833 1.382 . S
C829 C828 1.358 . S
C829 C830 1.385 . S
C829 H852 0.930 . S
C830 C829 1.385 . S
C830 C831 1.395 . S
C830 H853 0.929 . S
C831 C830 1.395 . S
C831 C832 1.335 . S
C832 C831 1.335 . S
C832 C833 1.398 . S
C832 H854 0.930 . S
C833 C828 1.382 . S
C833 C832 1.398 . S
C833 H855 0.929 . S
C834 O844 1.271 . S
C834 O845 1.251 . S
C835 O846 1.252 . S
C835 O847 1.272 . S
O836 Sm816 2.543 . S
O836 C818 1.261 . S
O837 Sm816 2.450 . S
O837 C818 1.242 . S
O838 Sm816 2.681 . S
O838 Sm817 2.386 . S
O838 C825 1.271 . S
O839 Sm816 2.464 . S
O839 C825 1.251 . S
O840 Sm816 2.396 . S
O840 C826 1.252 . S
O841 Sm817 2.408 . S
O841 C826 1.272 . S
O842 Sm817 2.543 . S
O842 C827 1.261 . S
O843 Sm817 2.450 . S
O843 C827 1.242 . S
O844 Sm816 2.386 . S
O844 Sm817 2.681 . S
O844 C834 1.271 . S
O845 Sm817 2.464 . S
O845 C834 1.251 . S
O846 Sm817 2.396 . S
O846 C835 1.252 . S
O847 Sm816 2.408 . S
O847 C835 1.272 . S
H848 C820 0.930 . S
H849 C821 0.929 . S
H850 C823 0.930 . S
H851 C824 0.929 . S
H852 C829 0.930 . S
H853 C830 0.929 . S
H854 C832 0.930 . S
H855 C833 0.929 . S
Sm856 C858 2.846 . S
Sm856 O876 2.543 . S
Sm856 O877 2.450 . S
Sm856 O878 2.681 . S
Sm856 O879 2.464 . S
Sm856 O880 2.396 . S
Sm856 O884 2.386 . S
Sm856 O887 2.408 . S
Sm857 C867 2.846 . S
Sm857 O878 2.386 . S
Sm857 O881 2.408 . S
Sm857 O882 2.543 . S
Sm857 O883 2.450 . S
Sm857 O884 2.681 . S
Sm857 O885 2.464 . S
Sm857 O886 2.396 . S
C858 Sm856 2.846 . S
C858 C859 1.506 . S
C858 O876 1.261 . S
C858 O877 1.242 . S
C859 C858 1.506 . S
C859 C860 1.358 . S
C859 C864 1.382 . S
C860 C859 1.358 . S
C860 C861 1.385 . S
C860 H888 0.930 . S
C861 C860 1.385 . S
C861 C862 1.395 . S
C861 H889 0.929 . S
C862 C861 1.395 . S
C862 C863 1.335 . S
C863 C862 1.335 . S
C863 C864 1.398 . S
C863 H890 0.930 . S
C864 C859 1.382 . S
C864 C863 1.398 . S
C864 H891 0.929 . S
C865 O878 1.271 . S
C865 O879 1.251 . S
C866 O880 1.252 . S
C866 O881 1.272 . S
C867 Sm857 2.846 . S
C867 C868 1.506 . S
C867 O882 1.261 . S
C867 O883 1.242 . S
C868 C867 1.506 . S
C868 C869 1.358 . S
C868 C873 1.382 . S
C869 C868 1.358 . S
C869 C870 1.385 . S
C869 H892 0.930 . S
C870 C869 1.385 . S
C870 C871 1.395 . S
C870 H893 0.929 . S
C871 C870 1.395 . S
C871 C872 1.335 . S
C872 C871 1.335 . S
C872 C873 1.398 . S
C872 H894 0.930 . S
C873 C868 1.382 . S
C873 C872 1.398 . S
C873 H895 0.929 . S
C874 O884 1.271 . S
C874 O885 1.251 . S
C875 O886 1.252 . S
C875 O887 1.272 . S
O876 Sm856 2.543 . S
O876 C858 1.261 . S
O877 Sm856 2.450 . S
O877 C858 1.242 . S
O878 Sm856 2.681 . S
O878 Sm857 2.386 . S
O878 C865 1.271 . S
O879 Sm856 2.464 . S
O879 C865 1.251 . S
O880 Sm856 2.396 . S
O880 C866 1.252 . S
O881 Sm857 2.408 . S
O881 C866 1.272 . S
O882 Sm857 2.543 . S
O882 C867 1.261 . S
O883 Sm857 2.450 . S
O883 C867 1.242 . S
O884 Sm856 2.386 . S
O884 Sm857 2.681 . S
O884 C874 1.271 . S
O885 Sm857 2.464 . S
O885 C874 1.251 . S
O886 Sm857 2.396 . S
O886 C875 1.252 . S
O887 Sm856 2.408 . S
O887 C875 1.272 . S
H888 C860 0.930 . S
H889 C861 0.929 . S
H890 C863 0.930 . S
H891 C864 0.929 . S
H892 C869 0.930 . S
H893 C870 0.929 . S
H894 C872 0.930 . S
H895 C873 0.929 . S
Sm896 C898 2.846 . S
Sm896 O916 2.543 . S
Sm896 O917 2.450 . S
Sm896 O918 2.681 . S
Sm896 O919 2.464 . S
Sm896 O920 2.396 . S
Sm896 O924 2.386 . S
Sm896 O927 2.408 . S
Sm897 C907 2.846 . S
Sm897 O918 2.386 . S
Sm897 O921 2.408 . S
Sm897 O922 2.543 . S
Sm897 O923 2.450 . S
Sm897 O924 2.681 . S
Sm897 O925 2.464 . S
Sm897 O926 2.396 . S
C898 Sm896 2.846 . S
C898 C899 1.506 . S
C898 O916 1.261 . S
C898 O917 1.242 . S
C899 C898 1.506 . S
C899 C900 1.358 . S
C899 C904 1.382 . S
C900 C899 1.358 . S
C900 C901 1.385 . S
C900 H928 0.930 . S
C901 C900 1.385 . S
C901 C902 1.395 . S
C901 H929 0.929 . S
C902 C901 1.395 . S
C902 C903 1.335 . S
C903 C902 1.335 . S
C903 C904 1.398 . S
C903 H930 0.930 . S
C904 C899 1.382 . S
C904 C903 1.398 . S
C904 H931 0.929 . S
C905 O918 1.271 . S
C905 O919 1.251 . S
C906 O920 1.252 . S
C906 O921 1.272 . S
C907 Sm897 2.846 . S
C907 C908 1.506 . S
C907 O922 1.261 . S
C907 O923 1.242 . S
C908 C907 1.506 . S
C908 C909 1.358 . S
C908 C913 1.382 . S
C909 C908 1.358 . S
C909 C910 1.385 . S
C909 H932 0.930 . S
C910 C909 1.385 . S
C910 C911 1.395 . S
C910 H933 0.929 . S
C911 C910 1.395 . S
C911 C912 1.335 . S
C912 C911 1.335 . S
C912 C913 1.398 . S
C912 H934 0.930 . S
C913 C908 1.382 . S
C913 C912 1.398 . S
C913 H935 0.929 . S
C914 O924 1.271 . S
C914 O925 1.251 . S
C915 O926 1.252 . S
C915 O927 1.272 . S
O916 Sm896 2.543 . S
O916 C898 1.261 . S
O917 Sm896 2.450 . S
O917 C898 1.242 . S
O918 Sm896 2.681 . S
O918 Sm897 2.386 . S
O918 C905 1.271 . S
O919 Sm896 2.464 . S
O919 C905 1.251 . S
O920 Sm896 2.396 . S
O920 C906 1.252 . S
O921 Sm897 2.408 . S
O921 C906 1.272 . S
O922 Sm897 2.543 . S
O922 C907 1.261 . S
O923 Sm897 2.450 . S
O923 C907 1.242 . S
O924 Sm896 2.386 . S
O924 Sm897 2.681 . S
O924 C914 1.271 . S
O925 Sm897 2.464 . S
O925 C914 1.251 . S
O926 Sm897 2.396 . S
O926 C915 1.252 . S
O927 Sm896 2.408 . S
O927 C915 1.272 . S
H928 C900 0.930 . S
H929 C901 0.929 . S
H930 C903 0.930 . S
H931 C904 0.929 . S
H932 C909 0.930 . S
H933 C910 0.929 . S
H934 C912 0.930 . S
H935 C913 0.929 . S
Sm936 C938 2.846 . S
Sm936 O956 2.543 . S
Sm936 O957 2.450 . S
Sm936 O958 2.681 . S
Sm936 O959 2.464 1_554 S
Sm936 O960 2.396 . S
Sm936 O964 2.386 . S
Sm936 O967 2.408 . S
Sm937 C947 2.846 1_455 S
Sm937 O958 2.386 . S
Sm937 O961 2.408 . S
Sm937 O962 2.540 1_455 S
Sm937 O963 2.450 1_455 S
Sm937 O964 2.681 . S
Sm937 O965 2.464 . S
Sm937 O966 2.396 . S
C938 Sm936 2.846 . S
C938 C939 1.506 . S
C938 O956 1.261 . S
C938 O957 1.242 . S
C939 C938 1.506 . S
C939 C940 1.358 . S
C939 C944 1.382 . S
C940 C939 1.358 . S
C940 C941 1.385 . S
C940 H968 0.930 . S
C941 C940 1.385 . S
C941 C942 1.395 . S
C941 H969 0.929 . S
C942 C941 1.395 . S
C942 C943 1.335 1_554 S
C943 C942 1.335 1_556 S
C943 C944 1.398 1_556 S
C943 H970 0.930 . S
C944 C939 1.382 . S
C944 C943 1.398 1_554 S
C944 H971 0.929 1_554 S
C945 O958 1.271 . S
C945 O959 1.251 1_554 S
C946 O960 1.252 . S
C946 O961 1.272 . S
C947 Sm937 2.846 1_655 S
C947 C948 1.506 . S
C947 O962 1.263 . S
C947 O963 1.242 . S
C948 C947 1.506 . S
C948 C949 1.358 . S
C948 C953 1.382 . S
C949 C948 1.358 . S
C949 C950 1.385 . S
C949 H972 0.930 . S
C950 C949 1.385 . S
C950 C951 1.395 . S
C950 H973 0.929 . S
C951 C950 1.395 . S
C951 C952 1.335 . S
C952 C951 1.335 . S
C952 C953 1.398 . S
C952 H974 0.930 . S
C953 C948 1.382 . S
C953 C952 1.398 . S
C953 H975 0.929 . S
C954 O964 1.271 . S
C954 O965 1.251 . S
C955 O966 1.252 . S
C955 O967 1.272 . S
O956 Sm936 2.543 . S
O956 C938 1.261 . S
O957 Sm936 2.450 . S
O957 C938 1.242 . S
O958 Sm936 2.681 . S
O958 Sm937 2.386 . S
O958 C945 1.271 . S
O959 Sm936 2.464 1_556 S
O959 C945 1.251 1_556 S
O960 Sm936 2.396 . S
O960 C946 1.252 . S
O961 Sm937 2.408 . S
O961 C946 1.272 . S
O962 Sm937 2.540 1_655 S
O962 C947 1.263 . S
O963 Sm937 2.450 1_655 S
O963 C947 1.242 . S
O964 Sm936 2.386 . S
O964 Sm937 2.681 . S
O964 C954 1.271 . S
O965 Sm937 2.464 . S
O965 C954 1.251 . S
O966 Sm937 2.396 . S
O966 C955 1.252 . S
O967 Sm936 2.408 . S
O967 C955 1.272 . S
H968 C940 0.930 . S
H969 C941 0.929 . S
H970 C943 0.930 . S
H971 C944 0.929 1_556 S
H972 C949 0.930 . S
H973 C950 0.929 . S
H974 C952 0.930 . S
H975 C953 0.929 . S
H976 C984 0.929 . S
H977 C986 0.930 . S
H978 C988 0.930 . S
H979 C991 0.929 . S
H980 C994 0.930 . S
H981 C996 0.960 . S
H982 C996 0.960 . S
H983 C996 0.960 . S
C984 H976 0.929 . S
C984 C985 1.377 . S
C984 C986 1.384 . S
C985 C984 1.377 . S
C985 C991 1.390 . S
C986 H977 0.930 . S
C986 C984 1.384 . S
C986 C987 1.372 . S
C987 C986 1.372 . S
C987 C988 1.400 . S
C987 C992 1.490 . S
C988 H978 0.930 . S
C988 C987 1.400 . S
C988 C991 1.386 . S
H989 C1005 0.930 . S
H990 C1006 0.931 . S
C991 H979 0.929 . S
C991 C985 1.390 . S
C991 C988 1.386 . S
C992 C987 1.490 . S
C992 C994 1.395 . S
C992 C995 1.403 . S
H993 C999 0.930 . S
C994 H980 0.930 . S
C994 C992 1.395 . S
C994 C997 1.403 . S
C995 C992 1.403 . S
C995 C996 1.524 1_455 S
C995 C999 1.400 . S
C996 H981 0.960 . S
C996 H982 0.960 . S
C996 H983 0.960 . S
C996 C995 1.524 1_655 S
C997 C994 1.403 . S
C997 C998 1.392 . S
C997 C1001 1.495 . S
C998 C997 1.392 . S
C998 C999 1.385 . S
C998 C1000 1.478 . S
C999 H993 0.930 . S
C999 C995 1.400 . S
C999 C998 1.385 . S
C1000 C998 1.478 . S
C1000 C1002 1.381 . S
C1000 C1006 1.383 1_556 S
C1001 C997 1.495 . S
C1001 H1007 0.959 . S
C1001 H1008 0.961 . S
C1001 H1009 0.960 . S
C1002 C1000 1.381 . S
C1002 C1003 1.394 . S
C1002 H1010 0.930 . S
C1003 C1002 1.394 . S
C1003 C1004 1.323 1_556 S
C1003 H1011 0.929 . S
C1004 C1003 1.323 1_554 S
C1004 C1005 1.402 . S
C1005 H989 0.930 . S
C1005 C1004 1.402 . S
C1005 C1006 1.379 . S
C1006 H990 0.931 . S
C1006 C1000 1.383 1_554 S
C1006 C1005 1.379 . S
H1007 C1001 0.959 . S
H1008 C1001 0.961 . S
H1009 C1001 0.960 . S
H1010 C1002 0.930 . S
H1011 C1003 0.929 . S
H1012 C1020 0.929 . S
H1013 C1022 0.930 . S
H1014 C1024 0.930 . S
H1015 C1027 0.929 . S
H1016 C1030 0.930 . S
H1017 C1032 0.960 . S
H1018 C1032 0.960 . S
H1019 C1032 0.960 . S
C1020 H1012 0.929 . S
C1020 C1021 1.377 . S
C1020 C1022 1.384 . S
C1021 C1020 1.377 . S
C1021 C1027 1.390 . S
C1022 H1013 0.930 . S
C1022 C1020 1.384 . S
C1022 C1023 1.372 . S
C1023 C1022 1.372 . S
C1023 C1024 1.400 . S
C1023 C1028 1.490 . S
C1024 H1014 0.930 . S
C1024 C1023 1.400 . S
C1024 C1027 1.386 . S
H1025 C1041 0.930 . S
H1026 C1042 0.931 . S
C1027 H1015 0.929 . S
C1027 C1021 1.390 . S
C1027 C1024 1.386 . S
C1028 C1023 1.490 . S
C1028 C1030 1.395 . S
C1028 C1031 1.403 . S
H1029 C1035 0.930 . S
C1030 H1016 0.930 . S
C1030 C1028 1.395 . S
C1030 C1033 1.403 . S
C1031 C1028 1.403 . S
C1031 C1032 1.524 . S
C1031 C1035 1.400 . S
C1032 H1017 0.960 . S
C1032 H1018 0.960 . S
C1032 H1019 0.960 . S
C1032 C1031 1.524 . S
C1033 C1030 1.403 . S
C1033 C1034 1.392 . S
C1033 C1037 1.495 . S
C1034 C1033 1.392 . S
C1034 C1035 1.385 . S
C1034 C1036 1.478 . S
C1035 H1029 0.930 . S
C1035 C1031 1.400 . S
C1035 C1034 1.385 . S
C1036 C1034 1.478 . S
C1036 C1038 1.381 . S
C1036 C1042 1.383 . S
C1037 C1033 1.495 . S
C1037 H1043 0.959 . S
C1037 H1044 0.961 . S
C1037 H1045 0.960 . S
C1038 C1036 1.381 . S
C1038 C1039 1.394 . S
C1038 H1046 0.930 . S
C1039 C1038 1.394 . S
C1039 C1040 1.383 . S
C1039 H1047 0.929 . S
C1040 C1039 1.383 . S
C1040 C1041 1.377 . S
C1041 H1025 0.930 . S
C1041 C1040 1.377 . S
C1041 C1042 1.379 . S
C1042 H1026 0.931 . S
C1042 C1036 1.383 . S
C1042 C1041 1.379 . S
H1043 C1037 0.959 . S
H1044 C1037 0.961 . S
H1045 C1037 0.960 . S
H1046 C1038 0.930 . S
H1047 C1039 0.929 . S
H1048 C1056 0.929 . S
H1049 C1058 0.930 . S
H1050 C1060 0.930 . S
H1051 C1063 0.929 . S
H1052 C1066 0.930 . S
H1053 C1068 0.960 . S
H1054 C1068 0.960 . S
H1055 C1068 0.960 . S
C1056 H1048 0.929 . S
C1056 C1057 1.377 . S
C1056 C1058 1.384 . S
C1057 C1056 1.377 . S
C1057 C1063 1.390 . S
C1058 H1049 0.930 . S
C1058 C1056 1.384 . S
C1058 C1059 1.372 . S
C1059 C1058 1.372 . S
C1059 C1060 1.400 . S
C1059 C1064 1.490 . S
C1060 H1050 0.930 . S
C1060 C1059 1.400 . S
C1060 C1063 1.386 . S
H1061 C1077 0.930 . S
H1062 C1078 0.931 . S
C1063 H1051 0.929 . S
C1063 C1057 1.390 . S
C1063 C1060 1.386 . S
C1064 C1059 1.490 . S
C1064 C1066 1.395 . S
C1064 C1067 1.403 . S
H1065 C1071 0.930 . S
C1066 H1052 0.930 . S
C1066 C1064 1.395 . S
C1066 C1069 1.403 . S
C1067 C1064 1.403 . S
C1067 C1068 1.524 . S
C1067 C1071 1.400 . S
C1068 H1053 0.960 . S
C1068 H1054 0.960 . S
C1068 H1055 0.960 . S
C1068 C1067 1.524 . S
C1069 C1066 1.403 . S
C1069 C1070 1.392 . S
C1069 C1073 1.495 . S
C1070 C1069 1.392 . S
C1070 C1071 1.385 . S
C1070 C1072 1.478 . S
C1071 H1065 0.930 . S
C1071 C1067 1.400 . S
C1071 C1070 1.385 . S
C1072 C1070 1.478 . S
C1072 C1074 1.381 . S
C1072 C1078 1.383 . S
C1073 C1069 1.495 . S
C1073 H1079 0.959 . S
C1073 H1080 0.961 . S
C1073 H1081 0.960 . S
C1074 C1072 1.381 . S
C1074 C1075 1.394 . S
C1074 H1082 0.930 . S
C1075 C1074 1.394 . S
C1075 C1076 1.383 . S
C1075 H1083 0.929 . S
C1076 C1075 1.383 . S
C1076 C1077 1.377 . S
C1077 H1061 0.930 . S
C1077 C1076 1.377 . S
C1077 C1078 1.379 . S
C1078 H1062 0.931 . S
C1078 C1072 1.383 . S
C1078 C1077 1.379 . S
H1079 C1073 0.959 . S
H1080 C1073 0.961 . S
H1081 C1073 0.960 . S
H1082 C1074 0.930 . S
H1083 C1075 0.929 . S
H1084 C1092 0.929 . S
H1085 C1094 0.930 . S
H1086 C1096 0.930 . S
H1087 C1099 0.929 . S
H1088 C1102 0.930 . S
H1089 C1104 0.960 . S
H1090 C1104 0.960 . S
H1091 C1104 0.960 . S
C1092 H1084 0.929 . S
C1092 C1093 1.377 . S
C1092 C1094 1.384 . S
C1093 C1092 1.377 . S
C1093 C1099 1.390 . S
C1094 H1085 0.930 . S
C1094 C1092 1.384 . S
C1094 C1095 1.372 . S
C1095 C1094 1.372 . S
C1095 C1096 1.400 . S
C1095 C1100 1.490 . S
C1096 H1086 0.930 . S
C1096 C1095 1.400 . S
C1096 C1099 1.386 . S
H1097 C1113 0.930 . S
H1098 C1114 0.931 . S
C1099 H1087 0.929 . S
C1099 C1093 1.390 . S
C1099 C1096 1.386 . S
C1100 C1095 1.490 . S
C1100 C1102 1.395 . S
C1100 C1103 1.403 . S
H1101 C1107 0.930 . S
C1102 H1088 0.930 . S
C1102 C1100 1.395 . S
C1102 C1105 1.403 . S
C1103 C1100 1.403 . S
C1103 C1104 1.524 . S
C1103 C1107 1.400 . S
C1104 H1089 0.960 . S
C1104 H1090 0.960 . S
C1104 H1091 0.960 . S
C1104 C1103 1.524 . S
C1105 C1102 1.403 . S
C1105 C1106 1.392 . S
C1105 C1109 1.495 . S
C1106 C1105 1.392 . S
C1106 C1107 1.385 . S
C1106 C1108 1.478 . S
C1107 H1101 0.930 . S
C1107 C1103 1.400 . S
C1107 C1106 1.385 . S
C1108 C1106 1.478 . S
C1108 C1110 1.381 . S
C1108 C1114 1.383 . S
C1109 C1105 1.495 . S
C1109 H1115 0.959 . S
C1109 H1116 0.961 . S
C1109 H1117 0.960 . S
C1110 C1108 1.381 . S
C1110 C1111 1.394 . S
C1110 H1118 0.930 . S
C1111 C1110 1.394 . S
C1111 C1112 1.383 . S
C1111 H1119 0.929 . S
C1112 C1111 1.383 . S
C1112 C1113 1.377 . S
C1113 H1097 0.930 . S
C1113 C1112 1.377 . S
C1113 C1114 1.379 . S
C1114 H1098 0.931 . S
C1114 C1108 1.383 . S
C1114 C1113 1.379 . S
H1115 C1109 0.959 . S
H1116 C1109 0.961 . S
H1117 C1109 0.960 . S
H1118 C1110 0.930 . S
H1119 C1111 0.929 . S
H1120 C1128 0.929 . S
H1121 C1130 0.930 . S
H1122 C1132 0.915 1_655 S
H1123 C1135 0.929 1_655 S
H1124 C1138 0.930 . S
H1125 C1140 0.960 . S
H1126 C1140 0.960 . S
H1127 C1140 0.969 . S
C1128 H1120 0.929 . S
C1128 C1129 1.377 . S
C1128 C1130 1.384 . S
C1129 C1128 1.377 . S
C1129 C1135 1.390 . S
C1130 H1121 0.930 . S
C1130 C1128 1.384 . S
C1130 C1131 1.372 . S
C1131 C1130 1.372 . S
C1131 C1132 1.400 . S
C1131 C1136 1.490 . S
C1132 H1122 0.915 1_455 S
C1132 C1131 1.400 . S
C1132 C1135 1.386 . S
H1133 C1149 0.930 . S
H1134 C1150 0.931 . S
C1135 H1123 0.929 1_455 S
C1135 C1129 1.390 . S
C1135 C1132 1.386 . S
C1136 C1131 1.490 . S
C1136 C1138 1.395 . S
C1136 C1139 1.403 . S
H1137 C1143 0.930 . S
C1138 H1124 0.930 . S
C1138 C1136 1.395 . S
C1138 C1141 1.403 . S
C1139 C1136 1.403 . S
C1139 C1140 1.524 . S
C1139 C1143 1.400 . S
C1140 H1125 0.960 . S
C1140 H1126 0.960 . S
C1140 H1127 0.969 . S
C1140 C1139 1.524 . S
C1141 C1138 1.403 . S
C1141 C1142 1.392 . S
C1141 C1145 1.495 . S
C1142 C1141 1.392 . S
C1142 C1143 1.385 . S
C1142 C1144 1.478 . S
C1143 H1137 0.930 . S
C1143 C1139 1.400 . S
C1143 C1142 1.385 . S
C1144 C1142 1.478 . S
C1144 C1146 1.381 . S
C1144 C1150 1.383 . S
C1145 C1141 1.495 . S
C1145 H1151 0.959 . S
C1145 H1152 0.961 . S
C1145 H1153 0.960 . S
C1146 C1144 1.381 . S
C1146 C1147 1.394 . S
C1146 H1154 0.930 . S
C1147 C1146 1.394 . S
C1147 C1148 1.383 . S
C1147 H1155 0.929 . S
C1148 C1147 1.383 . S
C1148 C1149 1.377 . S
C1149 H1133 0.930 . S
C1149 C1148 1.377 . S
C1149 C1150 1.379 . S
C1150 H1134 0.931 . S
C1150 C1144 1.383 . S
C1150 C1149 1.379 . S
H1151 C1145 0.959 . S
H1152 C1145 0.961 . S
H1153 C1145 0.960 . S
H1154 C1146 0.930 . S
H1155 C1147 0.929 . S
H1156 C1164 0.929 . S
H1157 C1166 0.930 . S
H1158 C1168 0.930 . S
H1159 C1171 0.929 . S
H1160 C1174 0.930 . S
H1161 C1176 0.960 . S
H1162 C1176 0.960 . S
H1163 C1176 0.960 . S
C1164 H1156 0.929 . S
C1164 C1165 1.377 . S
C1164 C1166 1.384 . S
C1165 C1164 1.377 . S
C1165 C1171 1.390 . S
C1166 H1157 0.930 . S
C1166 C1164 1.384 . S
C1166 C1167 1.372 . S
C1167 C1166 1.372 . S
C1167 C1168 1.400 . S
C1167 C1172 1.490 . S
C1168 H1158 0.930 . S
C1168 C1167 1.400 . S
C1168 C1171 1.386 . S
H1169 C1185 0.930 . S
H1170 C1186 0.931 . S
C1171 H1159 0.929 . S
C1171 C1165 1.390 . S
C1171 C1168 1.386 . S
C1172 C1167 1.490 . S
C1172 C1174 1.395 . S
C1172 C1175 1.403 . S
H1173 C1179 0.930 . S
C1174 H1160 0.930 . S
C1174 C1172 1.395 . S
C1174 C1177 1.403 . S
C1175 C1172 1.403 . S
C1175 C1176 1.524 . S
C1175 C1179 1.400 . S
C1176 H1161 0.960 . S
C1176 H1162 0.960 . S
C1176 H1163 0.960 . S
C1176 C1175 1.524 . S
C1177 C1174 1.403 . S
C1177 C1178 1.392 . S
C1177 C1181 1.495 . S
C1178 C1177 1.392 . S
C1178 C1179 1.385 . S
C1178 C1180 1.478 . S
C1179 H1173 0.930 . S
C1179 C1175 1.400 . S
C1179 C1178 1.385 . S
C1180 C1178 1.478 . S
C1180 C1182 1.381 . S
C1180 C1186 1.383 . S
C1181 C1177 1.495 . S
C1181 H1187 0.959 . S
C1181 H1188 0.961 . S
C1181 H1189 0.960 . S
C1182 C1180 1.381 . S
C1182 C1183 1.394 . S
C1182 H1190 0.930 . S
C1183 C1182 1.394 . S
C1183 C1184 1.383 . S
C1183 H1191 0.929 . S
C1184 C1183 1.383 . S
C1184 C1185 1.377 . S
C1185 H1169 0.930 . S
C1185 C1184 1.377 . S
C1185 C1186 1.379 . S
C1186 H1170 0.931 . S
C1186 C1180 1.383 . S
C1186 C1185 1.379 . S
H1187 C1181 0.959 . S
H1188 C1181 0.961 . S
H1189 C1181 0.960 . S
H1190 C1182 0.930 . S
H1191 C1183 0.929 . S
H1192 C1200 0.929 . S
H1193 C1202 0.930 . S
H1194 C1204 0.930 . S
H1195 C1207 0.929 . S
H1196 C1210 0.930 . S
H1197 C1212 0.960 . S
H1198 C1212 0.960 . S
H1199 C1212 0.960 . S
C1200 H1192 0.929 . S
C1200 C1201 1.377 . S
C1200 C1202 1.384 . S
C1201 C1200 1.377 . S
C1201 C1207 1.390 . S
C1202 H1193 0.930 . S
C1202 C1200 1.384 . S
C1202 C1203 1.372 . S
C1203 C1202 1.372 . S
C1203 C1204 1.400 . S
C1203 C1208 1.490 . S
C1204 H1194 0.930 . S
C1204 C1203 1.400 . S
C1204 C1207 1.386 . S
H1205 C1221 0.930 . S
H1206 C1222 0.931 . S
C1207 H1195 0.929 . S
C1207 C1201 1.390 . S
C1207 C1204 1.386 . S
C1208 C1203 1.490 . S
C1208 C1210 1.395 . S
C1208 C1211 1.403 . S
H1209 C1215 0.930 . S
C1210 H1196 0.930 . S
C1210 C1208 1.395 . S
C1210 C1213 1.403 . S
C1211 C1208 1.403 . S
C1211 C1212 1.524 . S
C1211 C1215 1.400 . S
C1212 H1197 0.960 . S
C1212 H1198 0.960 . S
C1212 H1199 0.960 . S
C1212 C1211 1.524 . S
C1213 C1210 1.403 . S
C1213 C1214 1.392 . S
C1213 C1217 1.495 . S
C1214 C1213 1.392 . S
C1214 C1215 1.385 . S
C1214 C1216 1.478 . S
C1215 H1209 0.930 . S
C1215 C1211 1.400 . S
C1215 C1214 1.385 . S
C1216 C1214 1.478 . S
C1216 C1218 1.381 . S
C1216 C1222 1.383 . S
C1217 C1213 1.495 . S
C1217 H1223 0.959 . S
C1217 H1224 0.961 . S
C1217 H1225 0.960 . S
C1218 C1216 1.381 . S
C1218 C1219 1.394 . S
C1218 H1226 0.930 . S
C1219 C1218 1.394 . S
C1219 C1220 1.383 . S
C1219 H1227 0.929 . S
C1220 C1219 1.383 . S
C1220 C1221 1.377 . S
C1221 H1205 0.930 . S
C1221 C1220 1.377 . S
C1221 C1222 1.379 . S
C1222 H1206 0.931 . S
C1222 C1216 1.383 . S
C1222 C1221 1.379 . S
H1223 C1217 0.959 . S
H1224 C1217 0.961 . S
H1225 C1217 0.960 . S
H1226 C1218 0.930 . S
H1227 C1219 0.929 . S
H1228 C1236 0.929 . S
H1229 C1238 0.930 . S
H1230 C1240 0.930 . S
H1231 C1243 0.929 . S
H1232 C1246 0.930 . S
H1233 C1248 0.960 . S
H1234 C1248 0.960 . S
H1235 C1248 0.960 . S
C1236 H1228 0.929 . S
C1236 C1237 1.377 . S
C1236 C1238 1.384 . S
C1237 C1236 1.377 . S
C1237 C1243 1.390 . S
C1238 H1229 0.930 . S
C1238 C1236 1.384 . S
C1238 C1239 1.372 . S
C1239 C1238 1.372 . S
C1239 C1240 1.400 . S
C1239 C1244 1.490 . S
C1240 H1230 0.930 . S
C1240 C1239 1.400 . S
C1240 C1243 1.386 . S
H1241 C1257 0.930 . S
H1242 C1258 0.931 . S
C1243 H1231 0.929 . S
C1243 C1237 1.390 . S
C1243 C1240 1.386 . S
C1244 C1239 1.490 . S
C1244 C1246 1.395 . S
C1244 C1247 1.403 . S
H1245 C1251 0.930 . S
C1246 H1232 0.930 . S
C1246 C1244 1.395 . S
C1246 C1249 1.403 . S
C1247 C1244 1.403 . S
C1247 C1248 1.524 . S
C1247 C1251 1.400 . S
C1248 H1233 0.960 . S
C1248 H1234 0.960 . S
C1248 H1235 0.960 . S
C1248 C1247 1.524 . S
C1249 C1246 1.403 . S
C1249 C1250 1.392 . S
C1249 C1253 1.495 . S
C1250 C1249 1.392 . S
C1250 C1251 1.385 . S
C1250 C1252 1.478 . S
C1251 H1245 0.930 . S
C1251 C1247 1.400 . S
C1251 C1250 1.385 . S
C1252 C1250 1.478 . S
C1252 C1254 1.381 . S
C1252 C1258 1.383 . S
C1253 C1249 1.495 . S
C1253 H1259 0.959 . S
C1253 H1260 0.961 . S
C1253 H1261 0.960 . S
C1254 C1252 1.381 . S
C1254 C1255 1.394 . S
C1254 H1262 0.930 . S
C1255 C1254 1.394 . S
C1255 C1256 1.383 . S
C1255 H1263 0.929 . S
C1256 C1255 1.383 . S
C1256 C1257 1.377 . S
C1257 H1241 0.930 . S
C1257 C1256 1.377 . S
C1257 C1258 1.379 . S
C1258 H1242 0.931 . S
C1258 C1252 1.383 . S
C1258 C1257 1.379 . S
H1259 C1253 0.959 . S
H1260 C1253 0.961 . S
H1261 C1253 0.960 . S
H1262 C1254 0.930 . S
H1263 C1255 0.929 . S
H1264 C1272 0.929 . S
H1265 C1274 0.930 . S
H1266 C1276 0.930 . S
H1267 C1279 0.929 . S
H1268 C1282 0.930 . S
H1269 C1284 0.960 . S
H1270 C1284 0.960 . S
H1271 C1284 0.960 . S
C1272 H1264 0.929 . S
C1272 C1273 1.377 . S
C1272 C1274 1.384 . S
C1273 C1272 1.377 . S
C1273 C1279 1.390 . S
C1274 H1265 0.930 . S
C1274 C1272 1.384 . S
C1274 C1275 1.372 . S
C1275 C1274 1.372 . S
C1275 C1276 1.400 . S
C1275 C1280 1.490 . S
C1276 H1266 0.930 . S
C1276 C1275 1.400 . S
C1276 C1279 1.386 . S
H1277 C1293 0.930 . S
H1278 C1294 0.955 . S
C1279 H1267 0.929 . S
C1279 C1273 1.390 . S
C1279 C1276 1.386 . S
C1280 C1275 1.490 . S
C1280 C1282 1.395 . S
C1280 C1283 1.403 . S
H1281 C1287 0.930 1_455 S
C1282 H1268 0.930 . S
C1282 C1280 1.395 . S
C1282 C1285 1.403 . S
C1283 C1280 1.403 . S
C1283 C1284 1.524 . S
C1283 C1287 1.400 . S
C1284 H1269 0.960 . S
C1284 H1270 0.960 . S
C1284 H1271 0.960 . S
C1284 C1283 1.524 . S
C1285 C1282 1.403 . S
C1285 C1286 1.392 . S
C1285 C1289 1.495 . S
C1286 C1285 1.392 . S
C1286 C1287 1.385 . S
C1286 C1288 1.478 1_655 S
C1287 H1281 0.930 1_655 S
C1287 C1283 1.400 . S
C1287 C1286 1.385 . S
C1288 C1286 1.478 1_455 S
C1288 C1290 1.381 . S
C1288 C1294 1.373 1_455 S
C1289 C1285 1.495 . S
C1289 H1295 0.959 . S
C1289 H1296 0.961 . S
C1289 H1297 0.960 1_655 S
C1290 C1288 1.381 . S
C1290 C1291 1.394 . S
C1290 H1298 0.930 . S
C1291 C1290 1.394 . S
C1291 C1292 1.383 . S
C1291 H1299 0.929 . S
C1292 C1291 1.383 . S
C1292 C1293 1.377 . S
C1293 H1277 0.930 . S
C1293 C1292 1.377 . S
C1293 C1294 1.366 1_455 S
C1294 H1278 0.955 . S
C1294 C1288 1.373 1_655 S
C1294 C1293 1.366 1_655 S
H1295 C1289 0.959 . S
H1296 C1289 0.961 . S
H1297 C1289 0.960 1_455 S
H1298 C1290 0.930 . S
H1299 C1291 0.929 . S
H1300 C1308 0.929 . S
H1301 C1310 0.930 . S
H1302 C1312 0.930 . S
H1303 C1315 0.929 . S
H1304 C1318 0.930 . S
H1305 C1320 0.960 . S
H1306 C1320 0.960 . S
H1307 C1320 0.960 . S
C1308 H1300 0.929 . S
C1308 C1309 1.377 . S
C1308 C1310 1.384 . S
C1309 C1308 1.377 . S
C1309 C1315 1.390 . S
C1310 H1301 0.930 . S
C1310 C1308 1.384 . S
C1310 C1311 1.372 . S
C1311 C1310 1.372 . S
C1311 C1312 1.400 . S
C1311 C1316 1.490 . S
C1312 H1302 0.930 . S
C1312 C1311 1.400 . S
C1312 C1315 1.386 . S
H1313 C1329 0.930 . S
H1314 C1330 0.931 . S
C1315 H1303 0.929 . S
C1315 C1309 1.390 . S
C1315 C1312 1.386 . S
C1316 C1311 1.490 . S
C1316 C1318 1.395 . S
C1316 C1319 1.403 . S
H1317 C1323 0.930 . S
C1318 H1304 0.930 . S
C1318 C1316 1.395 . S
C1318 C1321 1.403 . S
C1319 C1316 1.403 . S
C1319 C1320 1.524 . S
C1319 C1323 1.400 . S
C1320 H1305 0.960 . S
C1320 H1306 0.960 . S
C1320 H1307 0.960 . S
C1320 C1319 1.524 . S
C1321 C1318 1.403 . S
C1321 C1322 1.392 . S
C1321 C1325 1.495 . S
C1322 C1321 1.392 . S
C1322 C1323 1.385 . S
C1322 C1324 1.478 . S
C1323 H1317 0.930 . S
C1323 C1319 1.400 . S
C1323 C1322 1.385 . S
C1324 C1322 1.478 . S
C1324 C1326 1.381 . S
C1324 C1330 1.383 . S
C1325 C1321 1.495 . S
C1325 H1331 0.959 . S
C1325 H1332 0.961 . S
C1325 H1333 0.960 . S
C1326 C1324 1.381 . S
C1326 C1327 1.394 . S
C1326 H1334 0.930 . S
C1327 C1326 1.394 . S
C1327 C1328 1.383 . S
C1327 H1335 0.929 . S
C1328 C1327 1.383 . S
C1328 C1329 1.377 . S
C1329 H1313 0.930 . S
C1329 C1328 1.377 . S
C1329 C1330 1.379 . S
C1330 H1314 0.931 . S
C1330 C1324 1.383 . S
C1330 C1329 1.379 . S
H1331 C1325 0.959 . S
H1332 C1325 0.961 . S
H1333 C1325 0.960 . S
H1334 C1326 0.930 . S
H1335 C1327 0.929 . S
H1336 C1344 0.929 . S
H1337 C1346 0.930 . S
H1338 C1348 0.930 . S
H1339 C1351 0.929 . S
H1340 C1354 0.930 . S
H1341 C1356 0.960 . S
H1342 C1356 0.960 . S
H1343 C1356 0.960 . S
C1344 H1336 0.929 . S
C1344 C1345 1.377 . S
C1344 C1346 1.384 . S
C1345 C1344 1.377 . S
C1345 C1351 1.390 . S
C1346 H1337 0.930 . S
C1346 C1344 1.384 . S
C1346 C1347 1.372 . S
C1347 C1346 1.372 . S
C1347 C1348 1.400 . S
C1347 C1352 1.490 . S
C1348 H1338 0.930 . S
C1348 C1347 1.400 . S
C1348 C1351 1.386 . S
H1349 C1365 0.930 . S
H1350 C1366 0.931 . S
C1351 H1339 0.929 . S
C1351 C1345 1.390 . S
C1351 C1348 1.386 . S
C1352 C1347 1.490 . S
C1352 C1354 1.395 . S
C1352 C1355 1.403 . S
H1353 C1359 0.930 . S
C1354 H1340 0.930 . S
C1354 C1352 1.395 . S
C1354 C1357 1.403 . S
C1355 C1352 1.403 . S
C1355 C1356 1.524 . S
C1355 C1359 1.400 . S
C1356 H1341 0.960 . S
C1356 H1342 0.960 . S
C1356 H1343 0.960 . S
C1356 C1355 1.524 . S
C1357 C1354 1.403 . S
C1357 C1358 1.392 . S
C1357 C1361 1.495 . S
C1358 C1357 1.392 . S
C1358 C1359 1.385 . S
C1358 C1360 1.478 . S
C1359 H1353 0.930 . S
C1359 C1355 1.400 . S
C1359 C1358 1.385 . S
C1360 C1358 1.478 . S
C1360 C1362 1.381 . S
C1360 C1366 1.383 . S
C1361 C1357 1.495 . S
C1361 H1367 0.959 . S
C1361 H1368 0.961 . S
C1361 H1369 0.960 . S
C1362 C1360 1.381 . S
C1362 C1363 1.394 . S
C1362 H1370 0.930 . S
C1363 C1362 1.394 . S
C1363 C1364 1.383 . S
C1363 H1371 0.929 . S
C1364 C1363 1.383 . S
C1364 C1365 1.377 . S
C1365 H1349 0.930 . S
C1365 C1364 1.377 . S
C1365 C1366 1.379 . S
C1366 H1350 0.931 . S
C1366 C1360 1.383 . S
C1366 C1365 1.379 . S
H1367 C1361 0.959 . S
H1368 C1361 0.961 . S
H1369 C1361 0.960 . S
H1370 C1362 0.930 . S
H1371 C1363 0.929 . S
H1372 C1380 0.929 . S
H1373 C1382 0.930 . S
H1374 C1384 0.930 . S
H1375 C1387 0.929 . S
H1376 C1390 0.930 . S
H1377 C1392 0.960 . S
H1378 C1392 0.960 . S
H1379 C1392 0.960 . S
C1380 H1372 0.929 . S
C1380 C1381 1.377 . S
C1380 C1382 1.384 . S
C1381 C1380 1.377 . S
C1381 C1387 1.390 . S
C1382 H1373 0.930 . S
C1382 C1380 1.384 . S
C1382 C1383 1.372 . S
C1383 C1382 1.372 . S
C1383 C1384 1.400 . S
C1383 C1388 1.490 . S
C1384 H1374 0.930 . S
C1384 C1383 1.400 . S
C1384 C1387 1.386 . S
H1385 C1401 0.930 . S
H1386 C1402 0.931 . S
C1387 H1375 0.929 . S
C1387 C1381 1.390 . S
C1387 C1384 1.386 . S
C1388 C1383 1.490 . S
C1388 C1390 1.395 . S
C1388 C1391 1.403 . S
H1389 C1395 0.930 . S
C1390 H1376 0.930 . S
C1390 C1388 1.395 . S
C1390 C1393 1.403 . S
C1391 C1388 1.403 . S
C1391 C1392 1.524 . S
C1391 C1395 1.400 . S
C1392 H1377 0.960 . S
C1392 H1378 0.960 . S
C1392 H1379 0.960 . S
C1392 C1391 1.524 . S
C1393 C1390 1.403 . S
C1393 C1394 1.392 . S
C1393 C1397 1.495 . S
C1394 C1393 1.392 . S
C1394 C1395 1.385 . S
C1394 C1396 1.478 . S
C1395 H1389 0.930 . S
C1395 C1391 1.400 . S
C1395 C1394 1.385 . S
C1396 C1394 1.478 . S
C1396 C1398 1.381 . S
C1396 C1402 1.383 . S
C1397 C1393 1.495 . S
C1397 H1403 0.959 . S
C1397 H1404 0.961 . S
C1397 H1405 0.960 . S
C1398 C1396 1.381 . S
C1398 C1399 1.394 . S
C1398 H1406 0.930 . S
C1399 C1398 1.394 . S
C1399 C1400 1.383 . S
C1399 H1407 0.929 . S
C1400 C1399 1.383 . S
C1400 C1401 1.377 . S
C1401 H1385 0.930 . S
C1401 C1400 1.377 . S
C1401 C1402 1.379 . S
C1402 H1386 0.931 . S
C1402 C1396 1.383 . S
C1402 C1401 1.379 . S
H1403 C1397 0.959 . S
H1404 C1397 0.961 . S
H1405 C1397 0.960 . S
H1406 C1398 0.930 . S
H1407 C1399 0.929 . S
H1408 C1416 0.929 . S
H1409 C1418 0.930 . S
H1410 C1420 0.930 . S
H1411 C1423 0.929 . S
H1412 C1426 0.930 . S
H1413 C1428 0.960 . S
H1414 C1428 0.960 . S
H1415 C1428 0.960 . S
C1416 H1408 0.929 . S
C1416 C1417 1.377 . S
C1416 C1418 1.384 . S
C1417 C1416 1.377 . S
C1417 C1423 1.390 . S
C1418 H1409 0.930 . S
C1418 C1416 1.384 . S
C1418 C1419 1.372 . S
C1419 C1418 1.372 . S
C1419 C1420 1.400 . S
C1419 C1424 1.490 . S
C1420 H1410 0.930 . S
C1420 C1419 1.400 . S
C1420 C1423 1.386 . S
H1421 C1437 0.930 . S
H1422 C1438 0.931 . S
C1423 H1411 0.929 . S
C1423 C1417 1.390 . S
C1423 C1420 1.386 . S
C1424 C1419 1.490 . S
C1424 C1426 1.395 . S
C1424 C1427 1.403 1_655 S
H1425 C1431 0.930 . S
C1426 H1412 0.930 . S
C1426 C1424 1.395 . S
C1426 C1429 1.403 . S
C1427 C1424 1.403 1_455 S
C1427 C1428 1.524 . S
C1427 C1431 1.400 . S
C1428 H1413 0.960 . S
C1428 H1414 0.960 . S
C1428 H1415 0.960 . S
C1428 C1427 1.524 . S
C1429 C1426 1.403 . S
C1429 C1430 1.392 1_655 S
C1429 C1433 1.495 . S
C1430 C1429 1.392 1_455 S
C1430 C1431 1.385 . S
C1430 C1432 1.478 . S
C1431 H1425 0.930 . S
C1431 C1427 1.400 . S
C1431 C1430 1.385 . S
C1432 C1430 1.478 . S
C1432 C1434 1.381 . S
C1432 C1438 1.383 . S
C1433 C1429 1.495 . S
C1433 H1439 0.959 . S
C1433 H1440 0.961 . S
C1433 H1441 0.960 . S
C1434 C1432 1.381 . S
C1434 C1435 1.394 . S
C1434 H1442 0.930 . S
C1435 C1434 1.394 . S
C1435 C1436 1.383 . S
C1435 H1443 0.929 . S
C1436 C1435 1.383 . S
C1436 C1437 1.377 . S
C1437 H1421 0.930 . S
C1437 C1436 1.377 . S
C1437 C1438 1.379 . S
C1438 H1422 0.931 . S
C1438 C1432 1.383 . S
C1438 C1437 1.379 . S
H1439 C1433 0.959 . S
H1440 C1433 0.961 . S
H1441 C1433 0.960 . S
H1442 C1434 0.930 . S
H1443 C1435 0.929 . S
H1444 C1452 0.929 . S
H1445 C1454 0.930 . S
H1446 C1456 0.930 . S
H1447 C1459 0.929 . S
H1448 C1462 0.930 . S
H1449 C1464 0.960 . S
H1450 C1464 0.960 . S
H1451 C1464 0.960 . S
C1452 H1444 0.929 . S
C1452 C1453 1.377 . S
C1452 C1454 1.384 . S
C1453 C1452 1.377 . S
C1453 C1459 1.390 . S
C1454 H1445 0.930 . S
C1454 C1452 1.384 . S
C1454 C1455 1.372 . S
C1455 C1454 1.372 . S
C1455 C1456 1.400 . S
C1455 C1460 1.490 . S
C1456 H1446 0.930 . S
C1456 C1455 1.400 . S
C1456 C1459 1.386 . S
H1457 C1473 0.930 . S
H1458 C1474 0.931 . S
C1459 H1447 0.929 . S
C1459 C1453 1.390 . S
C1459 C1456 1.386 . S
C1460 C1455 1.490 . S
C1460 C1462 1.395 . S
C1460 C1463 1.403 . S
H1461 C1467 0.930 . S
C1462 H1448 0.930 . S
C1462 C1460 1.395 . S
C1462 C1465 1.403 . S
C1463 C1460 1.403 . S
C1463 C1464 1.524 . S
C1463 C1467 1.400 . S
C1464 H1449 0.960 . S
C1464 H1450 0.960 . S
C1464 H1451 0.960 . S
C1464 C1463 1.524 . S
C1465 C1462 1.403 . S
C1465 C1466 1.392 . S
C1465 C1469 1.495 . S
C1466 C1465 1.392 . S
C1466 C1467 1.385 . S
C1466 C1468 1.478 . S
C1467 H1461 0.930 . S
C1467 C1463 1.400 . S
C1467 C1466 1.385 . S
C1468 C1466 1.478 . S
C1468 C1470 1.381 . S
C1468 C1474 1.383 . S
C1469 C1465 1.495 . S
C1469 H1475 0.959 . S
C1469 H1476 0.961 . S
C1469 H1477 0.960 . S
C1470 C1468 1.381 . S
C1470 C1471 1.394 . S
C1470 H1478 0.930 . S
C1471 C1470 1.394 . S
C1471 C1472 1.383 . S
C1471 H1479 0.929 . S
C1472 C1471 1.383 . S
C1472 C1473 1.377 . S
C1473 H1457 0.930 . S
C1473 C1472 1.377 . S
C1473 C1474 1.379 . S
C1474 H1458 0.931 . S
C1474 C1468 1.383 . S
C1474 C1473 1.379 . S
H1475 C1469 0.959 . S
H1476 C1469 0.961 . S
H1477 C1469 0.960 . S
H1478 C1470 0.930 . S
H1479 C1471 0.929 . S
H1480 C1488 0.929 . S
H1481 C1490 0.930 . S
H1482 C1492 0.930 . S
H1483 C1495 0.929 . S
H1484 C1498 0.930 . S
H1485 C1500 0.960 . S
H1486 C1500 0.960 . S
H1487 C1500 0.960 . S
C1488 H1480 0.929 . S
C1488 C1489 1.377 . S
C1488 C1490 1.384 . S
C1489 C1488 1.377 . S
C1489 C1495 1.390 . S
C1490 H1481 0.930 . S
C1490 C1488 1.384 . S
C1490 C1491 1.372 . S
C1491 C1490 1.372 . S
C1491 C1492 1.400 . S
C1491 C1496 1.490 . S
C1492 H1482 0.930 . S
C1492 C1491 1.400 . S
C1492 C1495 1.386 . S
H1493 C1509 0.930 . S
H1494 C1510 0.931 . S
C1495 H1483 0.929 . S
C1495 C1489 1.390 . S
C1495 C1492 1.386 . S
C1496 C1491 1.490 . S
C1496 C1498 1.395 . S
C1496 C1499 1.403 . S
H1497 C1503 0.930 . S
C1498 H1484 0.930 . S
C1498 C1496 1.395 . S
C1498 C1501 1.403 . S
C1499 C1496 1.403 . S
C1499 C1500 1.524 . S
C1499 C1503 1.400 . S
C1500 H1485 0.960 . S
C1500 H1486 0.960 . S
C1500 H1487 0.960 . S
C1500 C1499 1.524 . S
C1501 C1498 1.403 . S
C1501 C1502 1.392 . S
C1501 C1505 1.495 . S
C1502 C1501 1.392 . S
C1502 C1503 1.385 . S
C1502 C1504 1.478 . S
C1503 H1497 0.930 . S
C1503 C1499 1.400 . S
C1503 C1502 1.385 . S
C1504 C1502 1.478 . S
C1504 C1506 1.381 . S
C1504 C1510 1.383 . S
C1505 C1501 1.495 . S
C1505 H1511 0.959 . S
C1505 H1512 0.961 . S
C1505 H1513 0.960 . S
C1506 C1504 1.381 . S
C1506 C1507 1.394 . S
C1506 H1514 0.930 . S
C1507 C1506 1.394 . S
C1507 C1508 1.383 . S
C1507 H1515 0.929 . S
C1508 C1507 1.383 . S
C1508 C1509 1.377 . S
C1509 H1493 0.930 . S
C1509 C1508 1.377 . S
C1509 C1510 1.379 . S
C1510 H1494 0.931 . S
C1510 C1504 1.383 . S
C1510 C1509 1.379 . S
H1511 C1505 0.959 . S
H1512 C1505 0.961 . S
H1513 C1505 0.960 . S
H1514 C1506 0.930 . S
H1515 C1507 0.929 . S
H1516 C1524 0.929 . S
H1517 C1526 0.930 . S
H1518 C1528 0.930 . S
H1519 C1531 0.929 . S
H1520 C1534 0.930 . S
H1521 C1536 0.960 . S
H1522 C1536 0.960 . S
H1523 C1536 0.960 . S
C1524 H1516 0.929 . S
C1524 C1525 1.377 . S
C1524 C1526 1.384 . S
C1525 C1524 1.377 . S
C1525 C1531 1.390 . S
C1526 H1517 0.930 . S
C1526 C1524 1.384 . S
C1526 C1527 1.372 . S
C1527 C1526 1.372 . S
C1527 C1528 1.400 . S
C1527 C1532 1.490 . S
C1528 H1518 0.930 . S
C1528 C1527 1.400 . S
C1528 C1531 1.386 . S
H1529 C1545 0.930 . S
H1530 C1546 0.931 . S
C1531 H1519 0.929 . S
C1531 C1525 1.390 . S
C1531 C1528 1.386 . S
C1532 C1527 1.490 . S
C1532 C1534 1.395 . S
C1532 C1535 1.403 . S
H1533 C1539 0.930 . S
C1534 H1520 0.930 . S
C1534 C1532 1.395 . S
C1534 C1537 1.403 . S
C1535 C1532 1.403 . S
C1535 C1536 1.524 . S
C1535 C1539 1.400 . S
C1536 H1521 0.960 . S
C1536 H1522 0.960 . S
C1536 H1523 0.960 . S
C1536 C1535 1.524 . S
C1537 C1534 1.403 . S
C1537 C1538 1.392 . S
C1537 C1541 1.495 . S
C1538 C1537 1.392 . S
C1538 C1539 1.385 . S
C1538 C1540 1.478 . S
C1539 H1533 0.930 . S
C1539 C1535 1.400 . S
C1539 C1538 1.385 . S
C1540 C1538 1.478 . S
C1540 C1542 1.381 . S
C1540 C1546 1.383 . S
C1541 C1537 1.495 . S
C1541 H1547 0.959 . S
C1541 H1548 0.961 . S
C1541 H1549 0.960 . S
C1542 C1540 1.381 . S
C1542 C1543 1.394 . S
C1542 H1550 0.930 . S
C1543 C1542 1.394 . S
C1543 C1544 1.383 . S
C1543 H1551 0.929 . S
C1544 C1543 1.383 . S
C1544 C1545 1.377 . S
C1545 H1529 0.930 . S
C1545 C1544 1.377 . S
C1545 C1546 1.379 . S
C1546 H1530 0.931 . S
C1546 C1540 1.383 . S
C1546 C1545 1.379 . S
H1547 C1541 0.959 . S
H1548 C1541 0.961 . S
H1549 C1541 0.960 . S
H1550 C1542 0.930 . S
H1551 C1543 0.929 . S
H1552 C1560 0.929 1_556 S
H1553 C1562 0.930 . S
H1554 C1564 0.930 . S
H1555 C1567 0.929 . S
H1556 C1570 0.930 1_556 S
H1557 C1572 0.960 . S
H1558 C1572 0.960 . S
H1559 C1572 0.960 . S
C1560 H1552 0.929 1_554 S
C1560 C1561 1.377 . S
C1560 C1562 1.384 . S
C1561 C1560 1.377 . S
C1561 C1567 1.390 . S
C1562 H1553 0.930 . S
C1562 C1560 1.384 . S
C1562 C1563 1.372 . S
C1563 C1562 1.372 . S
C1563 C1564 1.400 . S
C1563 C1568 1.490 . S
C1564 H1554 0.930 . S
C1564 C1563 1.400 . S
C1564 C1567 1.386 . S
H1565 C1581 0.930 . S
H1566 C1582 0.931 . S
C1567 H1555 0.929 . S
C1567 C1561 1.390 . S
C1567 C1564 1.386 . S
C1568 C1563 1.490 . S
C1568 C1570 1.395 . S
C1568 C1571 1.403 . S
H1569 C1575 0.930 . S
C1570 H1556 0.930 1_554 S
C1570 C1568 1.395 . S
C1570 C1573 1.403 . S
C1571 C1568 1.403 . S
C1571 C1572 1.524 . S
C1571 C1575 1.400 . S
C1572 H1557 0.960 . S
C1572 H1558 0.960 . S
C1572 H1559 0.960 . S
C1572 C1571 1.524 . S
C1573 C1570 1.403 . S
C1573 C1574 1.392 . S
C1573 C1577 1.495 1_554 S
C1574 C1573 1.392 . S
C1574 C1575 1.385 . S
C1574 C1576 1.478 . S
C1575 H1569 0.930 . S
C1575 C1571 1.400 . S
C1575 C1574 1.385 . S
C1576 C1574 1.478 . S
C1576 C1578 1.381 1_565 S
C1576 C1582 1.383 . S
C1577 C1573 1.495 1_556 S
C1577 H1583 0.959 . S
C1577 H1584 0.957 1_556 S
C1577 H1585 0.960 . S
C1578 C1576 1.381 1_545 S
C1578 C1579 1.394 . S
C1578 H1586 0.930 . S
C1579 C1578 1.394 . S
C1579 C1580 1.383 . S
C1579 H1587 0.929 . S
C1580 C1579 1.383 . S
C1580 C1581 1.377 1_545 S
C1581 H1565 0.930 . S
C1581 C1580 1.377 1_565 S
C1581 C1582 1.379 . S
C1582 H1566 0.931 . S
C1582 C1576 1.383 . S
C1582 C1581 1.379 . S
H1583 C1577 0.959 . S
H1584 C1577 0.957 1_554 S
H1585 C1577 0.960 . S
H1586 C1578 0.930 . S
H1587 C1579 0.929 . S
H1588 C1596 0.929 . S
H1589 C1598 0.930 . S
H1590 C1600 0.930 . S
H1591 C1603 0.929 . S
H1592 C1606 0.930 . S
H1593 C1608 0.960 . S
H1594 C1608 0.960 1_556 S
H1595 C1608 0.960 . S
C1596 H1588 0.929 . S
C1596 C1597 1.377 1_556 S
C1596 C1598 1.384 . S
C1597 C1596 1.377 1_554 S
C1597 C1603 1.390 . S
C1598 H1589 0.930 . S
C1598 C1596 1.384 . S
C1598 C1599 1.372 1_556 S
C1599 C1598 1.372 1_554 S
C1599 C1600 1.400 . S
C1599 C1604 1.490 . S
C1600 H1590 0.930 . S
C1600 C1599 1.400 . S
C1600 C1603 1.386 . S
H1601 C1617 0.930 . S
H1602 C1618 0.931 . S
C1603 H1591 0.929 . S
C1603 C1597 1.390 . S
C1603 C1600 1.386 . S
C1604 C1599 1.490 . S
C1604 C1606 1.395 . S
C1604 C1607 1.403 . S
H1605 C1611 0.930 . S
C1606 H1592 0.930 . S
C1606 C1604 1.395 . S
C1606 C1609 1.403 . S
C1607 C1604 1.403 . S
C1607 C1608 1.524 . S
C1607 C1611 1.400 . S
C1608 H1593 0.960 . S
C1608 H1594 0.960 1_554 S
C1608 H1595 0.960 . S
C1608 C1607 1.524 . S
C1609 C1606 1.403 . S
C1609 C1610 1.392 . S
C1609 C1613 1.495 . S
C1610 C1609 1.392 . S
C1610 C1611 1.385 . S
C1610 C1612 1.478 . S
C1611 H1605 0.930 . S
C1611 C1607 1.400 . S
C1611 C1610 1.385 . S
C1612 C1610 1.478 . S
C1612 C1614 1.381 1_554 S
C1612 C1618 1.383 . S
C1613 C1609 1.495 . S
C1613 H1619 0.959 . S
C1613 H1620 0.961 . S
C1613 H1621 0.960 . S
C1614 C1612 1.381 1_556 S
C1614 C1615 1.394 . S
C1614 H1622 0.930 . S
C1615 C1614 1.394 . S
C1615 C1616 1.383 1_556 S
C1615 H1623 0.929 . S
C1616 C1615 1.383 1_554 S
C1616 C1617 1.377 . S
C1617 H1601 0.930 . S
C1617 C1616 1.377 . S
C1617 C1618 1.379 . S
C1618 H1602 0.931 . S
C1618 C1612 1.383 . S
C1618 C1617 1.379 . S
H1619 C1613 0.959 . S
H1620 C1613 0.961 . S
H1621 C1613 0.960 . S
H1622 C1614 0.930 . S
H1623 C1615 0.929 . S
H1624 C1632 0.929 . S
H1625 C1634 0.930 . S
H1626 C1636 0.930 . S
H1627 C1639 0.929 . S
H1628 C1642 0.930 . S
H1629 C1644 0.960 . S
H1630 C1644 0.960 . S
H1631 C1644 0.960 . S
C1632 H1624 0.929 . S
C1632 C1633 1.377 . S
C1632 C1634 1.384 . S
C1633 C1632 1.377 . S
C1633 C1639 1.390 . S
C1634 H1625 0.930 . S
C1634 C1632 1.384 . S
C1634 C1635 1.372 . S
C1635 C1634 1.372 . S
C1635 C1636 1.400 . S
C1635 C1640 1.490 . S
C1636 H1626 0.930 . S
C1636 C1635 1.400 . S
C1636 C1639 1.386 . S
H1637 C1653 0.930 . S
H1638 C1654 0.931 . S
C1639 H1627 0.929 . S
C1639 C1633 1.390 . S
C1639 C1636 1.386 . S
C1640 C1635 1.490 . S
C1640 C1642 1.395 . S
C1640 C1643 1.403 . S
H1641 C1647 0.930 . S
C1642 H1628 0.930 . S
C1642 C1640 1.395 . S
C1642 C1645 1.403 . S
C1643 C1640 1.403 . S
C1643 C1644 1.524 . S
C1643 C1647 1.400 . S
C1644 H1629 0.960 . S
C1644 H1630 0.960 . S
C1644 H1631 0.960 . S
C1644 C1643 1.524 . S
C1645 C1642 1.403 . S
C1645 C1646 1.392 . S
C1645 C1649 1.495 . S
C1646 C1645 1.392 . S
C1646 C1647 1.385 . S
C1646 C1648 1.478 . S
C1647 H1641 0.930 . S
C1647 C1643 1.400 . S
C1647 C1646 1.385 . S
C1648 C1646 1.478 . S
C1648 C1650 1.381 . S
C1648 C1654 1.383 . S
C1649 C1645 1.495 . S
C1649 H1655 0.959 . S
C1649 H1656 0.961 . S
C1649 H1657 0.960 . S
C1650 C1648 1.381 . S
C1650 C1651 1.394 . S
C1650 H1658 0.930 . S
C1651 C1650 1.394 . S
C1651 C1652 1.383 . S
C1651 H1659 0.929 . S
C1652 C1651 1.383 . S
C1652 C1653 1.377 . S
C1653 H1637 0.930 . S
C1653 C1652 1.377 . S
C1653 C1654 1.379 . S
C1654 H1638 0.931 . S
C1654 C1648 1.383 . S
C1654 C1653 1.379 . S
H1655 C1649 0.959 . S
H1656 C1649 0.961 . S
H1657 C1649 0.960 . S
H1658 C1650 0.930 . S
H1659 C1651 0.929 . S
H1660 C1668 0.929 . S
H1661 C1670 0.930 . S
H1662 C1672 0.930 . S
H1663 C1675 0.929 . S
H1664 C1678 0.930 . S
H1665 C1680 0.960 . S
H1666 C1680 0.960 . S
H1667 C1680 0.960 . S
C1668 H1660 0.929 . S
C1668 C1669 1.377 . S
C1668 C1670 1.384 . S
C1669 C1668 1.377 . S
C1669 C1675 1.390 . S
C1670 H1661 0.930 . S
C1670 C1668 1.384 . S
C1670 C1671 1.372 . S
C1671 C1670 1.372 . S
C1671 C1672 1.400 . S
C1671 C1676 1.490 . S
C1672 H1662 0.930 . S
C1672 C1671 1.400 . S
C1672 C1675 1.386 . S
H1673 C1689 0.930 . S
H1674 C1690 0.931 . S
C1675 H1663 0.929 . S
C1675 C1669 1.390 . S
C1675 C1672 1.386 . S
C1676 C1671 1.490 . S
C1676 C1678 1.395 . S
C1676 C1679 1.403 . S
H1677 C1683 0.930 . S
C1678 H1664 0.930 . S
C1678 C1676 1.395 . S
C1678 C1681 1.403 . S
C1679 C1676 1.403 . S
C1679 C1680 1.524 . S
C1679 C1683 1.400 . S
C1680 H1665 0.960 . S
C1680 H1666 0.960 . S
C1680 H1667 0.960 . S
C1680 C1679 1.524 . S
C1681 C1678 1.403 . S
C1681 C1682 1.392 . S
C1681 C1685 1.495 . S
C1682 C1681 1.392 . S
C1682 C1683 1.385 . S
C1682 C1684 1.478 . S
C1683 H1677 0.930 . S
C1683 C1679 1.400 . S
C1683 C1682 1.385 . S
C1684 C1682 1.478 . S
C1684 C1686 1.381 . S
C1684 C1690 1.383 . S
C1685 C1681 1.495 . S
C1685 H1691 0.959 . S
C1685 H1692 0.961 . S
C1685 H1693 0.960 . S
C1686 C1684 1.381 . S
C1686 C1687 1.394 . S
C1686 H1694 0.930 . S
C1687 C1686 1.394 . S
C1687 C1688 1.383 . S
C1687 H1695 0.929 . S
C1688 C1687 1.383 . S
C1688 C1689 1.377 . S
C1689 H1673 0.930 . S
C1689 C1688 1.377 . S
C1689 C1690 1.379 . S
C1690 H1674 0.931 . S
C1690 C1684 1.383 . S
C1690 C1689 1.379 . S
H1691 C1685 0.959 . S
H1692 C1685 0.961 . S
H1693 C1685 0.960 . S
H1694 C1686 0.930 . S
H1695 C1687 0.929 . S
H1696 C1704 0.929 . S
H1697 C1706 0.930 . S
H1698 C1708 0.930 . S
H1699 C1711 0.929 . S
H1700 C1714 0.930 . S
H1701 C1716 0.960 . S
H1702 C1716 0.960 . S
H1703 C1716 0.960 . S
C1704 H1696 0.929 . S
C1704 C1705 1.377 . S
C1704 C1706 1.384 . S
C1705 C1704 1.377 . S
C1705 C1711 1.390 . S
C1706 H1697 0.930 . S
C1706 C1704 1.384 . S
C1706 C1707 1.372 . S
C1707 C1706 1.372 . S
C1707 C1708 1.400 . S
C1707 C1712 1.490 . S
C1708 H1698 0.930 . S
C1708 C1707 1.400 . S
C1708 C1711 1.386 . S
H1709 C1725 0.930 . S
H1710 C1726 0.931 . S
C1711 H1699 0.929 . S
C1711 C1705 1.390 . S
C1711 C1708 1.386 . S
C1712 C1707 1.490 . S
C1712 C1714 1.395 . S
C1712 C1715 1.403 . S
H1713 C1719 0.930 . S
C1714 H1700 0.930 . S
C1714 C1712 1.395 . S
C1714 C1717 1.403 . S
C1715 C1712 1.403 . S
C1715 C1716 1.524 . S
C1715 C1719 1.400 . S
C1716 H1701 0.960 . S
C1716 H1702 0.960 . S
C1716 H1703 0.960 . S
C1716 C1715 1.524 . S
C1717 C1714 1.403 . S
C1717 C1718 1.392 . S
C1717 C1721 1.495 . S
C1718 C1717 1.392 . S
C1718 C1719 1.385 . S
C1718 C1720 1.478 . S
C1719 H1713 0.930 . S
C1719 C1715 1.400 . S
C1719 C1718 1.385 . S
C1720 C1718 1.478 . S
C1720 C1722 1.381 . S
C1720 C1726 1.383 . S
C1721 C1717 1.495 . S
C1721 H1727 0.959 . S
C1721 H1728 0.961 . S
C1721 H1729 0.960 . S
C1722 C1720 1.381 . S
C1722 C1723 1.394 . S
C1722 H1730 0.930 . S
C1723 C1722 1.394 . S
C1723 C1724 1.383 . S
C1723 H1731 0.929 . S
C1724 C1723 1.383 . S
C1724 C1725 1.377 . S
C1725 H1709 0.930 . S
C1725 C1724 1.377 . S
C1725 C1726 1.379 . S
C1726 H1710 0.931 . S
C1726 C1720 1.383 . S
C1726 C1725 1.379 . S
H1727 C1721 0.959 . S
H1728 C1721 0.961 . S
H1729 C1721 0.960 . S
H1730 C1722 0.930 . S
H1731 C1723 0.929 . S
H1732 C1740 0.929 . S
H1733 C1742 0.930 . S
H1734 C1744 0.930 . S
H1735 C1747 0.929 . S
H1736 C1750 0.930 . S
H1737 C1752 0.960 . S
H1738 C1752 0.960 . S
H1739 C1752 0.960 . S
C1740 H1732 0.929 . S
C1740 C1741 1.377 . S
C1740 C1742 1.384 . S
C1741 C1740 1.377 . S
C1741 C1747 1.390 . S
C1742 H1733 0.930 . S
C1742 C1740 1.384 . S
C1742 C1743 1.372 . S
C1743 C1742 1.372 . S
C1743 C1744 1.400 . S
C1743 C1748 1.490 . S
C1744 H1734 0.930 . S
C1744 C1743 1.400 . S
C1744 C1747 1.386 . S
H1745 C1761 0.930 . S
H1746 C1762 0.931 . S
C1747 H1735 0.929 . S
C1747 C1741 1.390 . S
C1747 C1744 1.386 . S
C1748 C1743 1.490 . S
C1748 C1750 1.395 . S
C1748 C1751 1.403 . S
H1749 C1755 0.930 . S
C1750 H1736 0.930 . S
C1750 C1748 1.395 . S
C1750 C1753 1.403 . S
C1751 C1748 1.403 . S
C1751 C1752 1.524 . S
C1751 C1755 1.400 . S
C1752 H1737 0.960 . S
C1752 H1738 0.960 . S
C1752 H1739 0.960 . S
C1752 C1751 1.524 . S
C1753 C1750 1.403 . S
C1753 C1754 1.392 . S
C1753 C1757 1.495 . S
C1754 C1753 1.392 . S
C1754 C1755 1.385 . S
C1754 C1756 1.478 . S
C1755 H1749 0.930 . S
C1755 C1751 1.400 . S
C1755 C1754 1.385 . S
C1756 C1754 1.478 . S
C1756 C1758 1.381 . S
C1756 C1762 1.383 . S
C1757 C1753 1.495 . S
C1757 H1763 0.959 . S
C1757 H1764 0.961 . S
C1757 H1765 0.960 . S
C1758 C1756 1.381 . S
C1758 C1759 1.394 . S
C1758 H1766 0.930 . S
C1759 C1758 1.394 . S
C1759 C1760 1.383 . S
C1759 H1767 0.929 . S
C1760 C1759 1.383 . S
C1760 C1761 1.377 . S
C1761 H1745 0.930 . S
C1761 C1760 1.377 . S
C1761 C1762 1.379 . S
C1762 H1746 0.931 . S
C1762 C1756 1.383 . S
C1762 C1761 1.379 . S
H1763 C1757 0.959 . S
H1764 C1757 0.961 . S
H1765 C1757 0.960 . S
H1766 C1758 0.930 . S
H1767 C1759 0.929 . S
H1768 C1776 0.929 . S
H1769 C1778 0.930 . S
H1770 C1780 0.930 . S
H1771 C1783 0.929 . S
H1772 C1786 0.930 . S
H1773 C1788 0.960 . S
H1774 C1788 0.960 . S
H1775 C1788 0.960 . S
C1776 H1768 0.929 . S
C1776 C1777 1.377 . S
C1776 C1778 1.384 . S
C1777 C1776 1.377 . S
C1777 C1783 1.390 . S
C1778 H1769 0.930 . S
C1778 C1776 1.384 . S
C1778 C1779 1.372 . S
C1779 C1778 1.372 . S
C1779 C1780 1.400 . S
C1779 C1784 1.490 . S
C1780 H1770 0.930 . S
C1780 C1779 1.400 . S
C1780 C1783 1.386 . S
H1781 C1797 0.930 . S
H1782 C1798 0.931 . S
C1783 H1771 0.929 . S
C1783 C1777 1.390 . S
C1783 C1780 1.386 . S
C1784 C1779 1.490 . S
C1784 C1786 1.395 . S
C1784 C1787 1.403 . S
H1785 C1791 0.930 . S
C1786 H1772 0.930 . S
C1786 C1784 1.395 . S
C1786 C1789 1.403 . S
C1787 C1784 1.403 . S
C1787 C1788 1.524 . S
C1787 C1791 1.400 . S
C1788 H1773 0.960 . S
C1788 H1774 0.960 . S
C1788 H1775 0.960 . S
C1788 C1787 1.524 . S
C1789 C1786 1.403 . S
C1789 C1790 1.392 . S
C1789 C1793 1.495 . S
C1790 C1789 1.392 . S
C1790 C1791 1.385 . S
C1790 C1792 1.478 . S
C1791 H1785 0.930 . S
C1791 C1787 1.400 . S
C1791 C1790 1.385 . S
C1792 C1790 1.478 . S
C1792 C1794 1.381 . S
C1792 C1798 1.383 . S
C1793 C1789 1.495 . S
C1793 H1799 0.959 . S
C1793 H1800 0.961 . S
C1793 H1801 0.960 . S
C1794 C1792 1.381 . S
C1794 C1795 1.394 . S
C1794 H1802 0.930 . S
C1795 C1794 1.394 . S
C1795 C1796 1.383 . S
C1795 H1803 0.929 . S
C1796 C1795 1.383 . S
C1796 C1797 1.377 . S
C1797 H1781 0.930 . S
C1797 C1796 1.377 . S
C1797 C1798 1.379 . S
C1798 H1782 0.931 . S
C1798 C1792 1.383 . S
C1798 C1797 1.379 . S
H1799 C1793 0.959 . S
H1800 C1793 0.961 . S
H1801 C1793 0.960 . S
H1802 C1794 0.930 . S
H1803 C1795 0.929 . S
H1804 C1812 0.929 . S
H1805 C1814 0.930 . S
H1806 C1816 0.930 . S
H1807 C1819 0.929 . S
H1808 C1822 0.930 . S
H1809 C1824 0.960 . S
H1810 C1824 0.960 . S
H1811 C1824 0.960 . S
C1812 H1804 0.929 . S
C1812 C1813 1.377 . S
C1812 C1814 1.384 . S
C1813 C1812 1.377 . S
C1813 C1819 1.390 . S
C1814 H1805 0.930 . S
C1814 C1812 1.384 . S
C1814 C1815 1.372 . S
C1815 C1814 1.372 . S
C1815 C1816 1.400 . S
C1815 C1820 1.490 . S
C1816 H1806 0.930 . S
C1816 C1815 1.400 . S
C1816 C1819 1.386 . S
H1817 C1833 0.930 . S
H1818 C1834 0.931 . S
C1819 H1807 0.929 . S
C1819 C1813 1.390 . S
C1819 C1816 1.386 . S
C1820 C1815 1.490 . S
C1820 C1822 1.395 . S
C1820 C1823 1.403 . S
H1821 C1827 0.930 . S
C1822 H1808 0.930 . S
C1822 C1820 1.395 . S
C1822 C1825 1.403 . S
C1823 C1820 1.403 . S
C1823 C1824 1.524 . S
C1823 C1827 1.400 . S
C1824 H1809 0.960 . S
C1824 H1810 0.960 . S
C1824 H1811 0.960 . S
C1824 C1823 1.524 . S
C1825 C1822 1.403 . S
C1825 C1826 1.392 . S
C1825 C1829 1.495 . S
C1826 C1825 1.392 . S
C1826 C1827 1.385 . S
C1826 C1828 1.478 . S
C1827 H1821 0.930 . S
C1827 C1823 1.400 . S
C1827 C1826 1.385 . S
C1828 C1826 1.478 . S
C1828 C1830 1.381 . S
C1828 C1834 1.383 . S
C1829 C1825 1.495 . S
C1829 H1835 0.959 . S
C1829 H1836 0.961 . S
C1829 H1837 0.960 . S
C1830 C1828 1.381 . S
C1830 C1831 1.394 . S
C1830 H1838 0.930 . S
C1831 C1830 1.394 . S
C1831 C1832 1.383 . S
C1831 H1839 0.929 . S
C1832 C1831 1.383 . S
C1832 C1833 1.377 . S
C1833 H1817 0.930 . S
C1833 C1832 1.377 . S
C1833 C1834 1.379 . S
C1834 H1818 0.931 . S
C1834 C1828 1.383 . S
C1834 C1833 1.379 . S
H1835 C1829 0.959 . S
H1836 C1829 0.961 . S
H1837 C1829 0.960 . S
H1838 C1830 0.930 . S
H1839 C1831 0.929 . S
H1840 C1848 0.929 . S
H1841 C1850 0.930 . S
H1842 C1852 0.930 . S
H1843 C1855 0.929 . S
H1844 C1858 0.930 . S
H1845 C1860 0.960 . S
H1846 C1860 0.960 . S
H1847 C1860 0.960 . S
C1848 H1840 0.929 . S
C1848 C1849 1.377 . S
C1848 C1850 1.384 . S
C1849 C1848 1.377 . S
C1849 C1855 1.390 . S
C1850 H1841 0.930 . S
C1850 C1848 1.384 . S
C1850 C1851 1.372 . S
C1851 C1850 1.372 . S
C1851 C1852 1.400 . S
C1851 C1856 1.490 . S
C1852 H1842 0.930 . S
C1852 C1851 1.400 . S
C1852 C1855 1.386 . S
H1853 C1869 0.930 . S
H1854 C1870 0.931 . S
C1855 H1843 0.929 . S
C1855 C1849 1.390 . S
C1855 C1852 1.386 . S
C1856 C1851 1.490 . S
C1856 C1858 1.395 . S
C1856 C1859 1.403 . S
H1857 C1863 0.930 . S
C1858 H1844 0.930 . S
C1858 C1856 1.395 . S
C1858 C1861 1.403 . S
C1859 C1856 1.403 . S
C1859 C1860 1.524 . S
C1859 C1863 1.400 . S
C1860 H1845 0.960 . S
C1860 H1846 0.960 . S
C1860 H1847 0.960 . S
C1860 C1859 1.524 . S
C1861 C1858 1.403 . S
C1861 C1862 1.392 . S
C1861 C1865 1.495 . S
C1862 C1861 1.392 . S
C1862 C1863 1.385 . S
C1862 C1864 1.478 . S
C1863 H1857 0.930 . S
C1863 C1859 1.400 . S
C1863 C1862 1.385 . S
C1864 C1862 1.478 . S
C1864 C1866 1.381 . S
C1864 C1870 1.383 . S
C1865 C1861 1.495 . S
C1865 H1871 0.959 . S
C1865 H1872 0.961 . S
C1865 H1873 0.960 . S
C1866 C1864 1.381 . S
C1866 C1867 1.394 . S
C1866 H1874 0.930 . S
C1867 C1866 1.394 . S
C1867 C1868 1.383 . S
C1867 H1875 0.929 . S
C1868 C1867 1.383 . S
C1868 C1869 1.377 . S
C1869 H1853 0.930 . S
C1869 C1868 1.377 . S
C1869 C1870 1.379 . S
C1870 H1854 0.931 . S
C1870 C1864 1.383 . S
C1870 C1869 1.379 . S
H1871 C1865 0.959 . S
H1872 C1865 0.961 . S
H1873 C1865 0.960 . S
H1874 C1866 0.930 . S
H1875 C1867 0.929 . S
H1876 C1884 0.929 . S
H1877 C1886 0.930 . S
H1878 C1888 0.930 . S
H1879 C1891 0.929 . S
H1880 C1894 0.930 . S
H1881 C1896 0.960 . S
H1882 C1896 0.960 . S
H1883 C1896 0.960 . S
C1884 H1876 0.929 . S
C1884 C1885 1.377 . S
C1884 C1886 1.384 . S
C1885 C1884 1.377 . S
C1885 C1891 1.390 . S
C1886 H1877 0.930 . S
C1886 C1884 1.384 . S
C1886 C1887 1.372 . S
C1887 C1886 1.372 . S
C1887 C1888 1.400 . S
C1887 C1892 1.490 . S
C1888 H1878 0.930 . S
C1888 C1887 1.400 . S
C1888 C1891 1.386 . S
H1889 C1905 0.930 . S
H1890 C1906 0.931 . S
C1891 H1879 0.929 . S
C1891 C1885 1.390 . S
C1891 C1888 1.386 . S
C1892 C1887 1.490 . S
C1892 C1894 1.395 . S
C1892 C1895 1.403 . S
H1893 C1899 0.930 . S
C1894 H1880 0.930 . S
C1894 C1892 1.395 . S
C1894 C1897 1.403 . S
C1895 C1892 1.403 . S
C1895 C1896 1.524 . S
C1895 C1899 1.400 . S
C1896 H1881 0.960 . S
C1896 H1882 0.960 . S
C1896 H1883 0.960 . S
C1896 C1895 1.524 . S
C1897 C1894 1.403 . S
C1897 C1898 1.392 . S
C1897 C1901 1.495 . S
C1898 C1897 1.392 . S
C1898 C1899 1.385 . S
C1898 C1900 1.478 . S
C1899 H1893 0.930 . S
C1899 C1895 1.400 . S
C1899 C1898 1.385 . S
C1900 C1898 1.478 . S
C1900 C1902 1.381 . S
C1900 C1906 1.383 . S
C1901 C1897 1.495 . S
C1901 H1907 0.959 . S
C1901 H1908 0.961 . S
C1901 H1909 0.960 . S
C1902 C1900 1.381 . S
C1902 C1903 1.394 . S
C1902 H1910 0.930 . S
C1903 C1902 1.394 . S
C1903 C1904 1.383 . S
C1903 H1911 0.929 . S
C1904 C1903 1.383 . S
C1904 C1905 1.377 . S
C1905 H1889 0.930 . S
C1905 C1904 1.377 . S
C1905 C1906 1.379 . S
C1906 H1890 0.931 . S
C1906 C1900 1.383 . S
C1906 C1905 1.379 . S
H1907 C1901 0.959 . S
H1908 C1901 0.961 . S
H1909 C1901 0.960 . S
H1910 C1902 0.930 . S
H1911 C1903 0.929 . S
H1912 C1920 0.929 . S
H1913 C1922 0.930 . S
H1914 C1924 0.930 . S
H1915 C1927 0.929 . S
H1916 C1930 0.930 . S
H1917 C1932 0.960 . S
H1918 C1932 0.960 . S
H1919 C1932 0.960 . S
C1920 H1912 0.929 . S
C1920 C1921 1.377 . S
C1920 C1922 1.384 . S
C1921 C1920 1.377 . S
C1921 C1927 1.390 . S
C1922 H1913 0.930 . S
C1922 C1920 1.384 . S
C1922 C1923 1.372 . S
C1923 C1922 1.372 . S
C1923 C1924 1.400 . S
C1923 C1928 1.490 . S
C1924 H1914 0.930 . S
C1924 C1923 1.400 . S
C1924 C1927 1.386 . S
H1925 C1941 0.930 . S
H1926 C1942 0.931 . S
C1927 H1915 0.929 . S
C1927 C1921 1.390 . S
C1927 C1924 1.386 . S
C1928 C1923 1.490 . S
C1928 C1930 1.395 . S
C1928 C1931 1.403 . S
H1929 C1935 0.930 . S
C1930 H1916 0.930 . S
C1930 C1928 1.395 . S
C1930 C1933 1.403 . S
C1931 C1928 1.403 . S
C1931 C1932 1.524 . S
C1931 C1935 1.400 . S
C1932 H1917 0.960 . S
C1932 H1918 0.960 . S
C1932 H1919 0.960 . S
C1932 C1931 1.524 . S
C1933 C1930 1.403 . S
C1933 C1934 1.392 . S
C1933 C1937 1.495 . S
C1934 C1933 1.392 . S
C1934 C1935 1.385 . S
C1934 C1936 1.478 . S
C1935 H1929 0.930 . S
C1935 C1931 1.400 . S
C1935 C1934 1.385 . S
C1936 C1934 1.478 . S
C1936 C1938 1.381 . S
C1936 C1942 1.383 . S
C1937 C1933 1.495 . S
C1937 H1943 0.959 . S
C1937 H1944 0.961 . S
C1937 H1945 0.960 . S
C1938 C1936 1.381 . S
C1938 C1939 1.394 . S
C1938 H1946 0.930 . S
C1939 C1938 1.394 . S
C1939 C1940 1.383 . S
C1939 H1947 0.929 . S
C1940 C1939 1.383 . S
C1940 C1941 1.377 . S
C1941 H1925 0.930 . S
C1941 C1940 1.377 . S
C1941 C1942 1.379 . S
C1942 H1926 0.931 . S
C1942 C1936 1.383 . S
C1942 C1941 1.379 . S
H1943 C1937 0.959 . S
H1944 C1937 0.961 . S
H1945 C1937 0.960 . S
H1946 C1938 0.930 . S
H1947 C1939 0.929 . S
H1948 C1956 0.929 . S
H1949 C1958 0.930 . S
H1950 C1960 0.930 . S
H1951 C1963 0.929 . S
H1952 C1966 0.930 . S
H1953 C1968 0.960 . S
H1954 C1968 0.960 . S
H1955 C1968 0.960 . S
C1956 H1948 0.929 . S
C1956 C1957 1.377 . S
C1956 C1958 1.384 . S
C1957 C1956 1.377 . S
C1957 C1963 1.390 . S
C1958 H1949 0.930 . S
C1958 C1956 1.384 . S
C1958 C1959 1.372 . S
C1959 C1958 1.372 . S
C1959 C1960 1.400 . S
C1959 C1964 1.490 . S
C1960 H1950 0.930 . S
C1960 C1959 1.400 . S
C1960 C1963 1.386 . S
H1961 C1977 0.930 . S
H1962 C1978 0.931 . S
C1963 H1951 0.929 . S
C1963 C1957 1.390 . S
C1963 C1960 1.386 . S
C1964 C1959 1.490 . S
C1964 C1966 1.395 . S
C1964 C1967 1.403 . S
H1965 C1971 0.930 . S
C1966 H1952 0.930 . S
C1966 C1964 1.395 . S
C1966 C1969 1.403 . S
C1967 C1964 1.403 . S
C1967 C1968 1.524 . S
C1967 C1971 1.400 . S
C1968 H1953 0.960 . S
C1968 H1954 0.960 . S
C1968 H1955 0.960 . S
C1968 C1967 1.524 . S
C1969 C1966 1.403 . S
C1969 C1970 1.392 . S
C1969 C1973 1.495 . S
C1970 C1969 1.392 . S
C1970 C1971 1.385 . S
C1970 C1972 1.478 . S
C1971 H1965 0.930 . S
C1971 C1967 1.400 . S
C1971 C1970 1.385 . S
C1972 C1970 1.478 . S
C1972 C1974 1.381 . S
C1972 C1978 1.383 . S
C1973 C1969 1.495 . S
C1973 H1979 0.959 . S
C1973 H1980 0.961 . S
C1973 H1981 0.960 . S
C1974 C1972 1.381 . S
C1974 C1975 1.394 . S
C1974 H1982 0.930 . S
C1975 C1974 1.394 . S
C1975 C1976 1.383 . S
C1975 H1983 0.929 . S
C1976 C1975 1.383 . S
C1976 C1977 1.377 . S
C1977 H1961 0.930 . S
C1977 C1976 1.377 . S
C1977 C1978 1.379 . S
C1978 H1962 0.931 . S
C1978 C1972 1.383 . S
C1978 C1977 1.379 . S
H1979 C1973 0.959 . S
H1980 C1973 0.961 . S
H1981 C1973 0.960 . S
H1982 C1974 0.930 . S
H1983 C1975 0.929 . S
H1984 C1992 0.929 . S
H1985 C1994 0.930 . S
H1986 C1996 0.930 . S
H1987 C1999 0.929 . S
H1988 C2002 0.930 . S
H1989 C2004 0.960 . S
H1990 C2004 0.960 . S
H1991 C2004 0.960 . S
C1992 H1984 0.929 . S
C1992 C1993 1.377 . S
C1992 C1994 1.384 . S
C1993 C1992 1.377 . S
C1993 C1999 1.390 . S
C1994 H1985 0.930 . S
C1994 C1992 1.384 . S
C1994 C1995 1.372 . S
C1995 C1994 1.372 . S
C1995 C1996 1.400 . S
C1995 C2000 1.490 . S
C1996 H1986 0.930 . S
C1996 C1995 1.400 . S
C1996 C1999 1.386 . S
H1997 C2013 0.930 . S
H1998 C2014 0.931 . S
C1999 H1987 0.929 . S
C1999 C1993 1.390 . S
C1999 C1996 1.386 . S
C2000 C1995 1.490 . S
C2000 C2002 1.395 . S
C2000 C2003 1.403 . S
H2001 C2007 0.930 . S
C2002 H1988 0.930 . S
C2002 C2000 1.395 . S
C2002 C2005 1.403 . S
C2003 C2000 1.403 . S
C2003 C2004 1.524 . S
C2003 C2007 1.400 . S
C2004 H1989 0.960 . S
C2004 H1990 0.960 . S
C2004 H1991 0.960 . S
C2004 C2003 1.524 . S
C2005 C2002 1.403 . S
C2005 C2006 1.392 . S
C2005 C2009 1.495 . S
C2006 C2005 1.392 . S
C2006 C2007 1.385 . S
C2006 C2008 1.478 . S
C2007 H2001 0.930 . S
C2007 C2003 1.400 . S
C2007 C2006 1.385 . S
C2008 C2006 1.478 . S
C2008 C2010 1.381 . S
C2008 C2014 1.383 . S
C2009 C2005 1.495 . S
C2009 H2015 0.959 . S
C2009 H2016 0.961 . S
C2009 H2017 0.960 . S
C2010 C2008 1.381 . S
C2010 C2011 1.394 . S
C2010 H2018 0.930 . S
C2011 C2010 1.394 . S
C2011 C2012 1.383 . S
C2011 H2019 0.929 . S
C2012 C2011 1.383 . S
C2012 C2013 1.377 . S
C2013 H1997 0.930 . S
C2013 C2012 1.377 . S
C2013 C2014 1.379 . S
C2014 H1998 0.931 . S
C2014 C2008 1.383 . S
C2014 C2013 1.379 . S
H2015 C2009 0.959 . S
H2016 C2009 0.961 . S
H2017 C2009 0.960 . S
H2018 C2010 0.930 . S
H2019 C2011 0.929 . S
H2020 C2028 0.929 . S
H2021 C2030 0.930 . S
H2022 C2032 0.930 . S
H2023 C2035 0.929 . S
H2024 C2038 0.930 . S
H2025 C2040 0.960 . S
H2026 C2040 0.960 . S
H2027 C2040 0.960 . S
C2028 H2020 0.929 . S
C2028 C2029 1.377 . S
C2028 C2030 1.384 . S
C2029 C2028 1.377 . S
C2029 C2035 1.390 . S
C2030 H2021 0.930 . S
C2030 C2028 1.384 . S
C2030 C2031 1.372 . S
C2031 C2030 1.372 . S
C2031 C2032 1.400 . S
C2031 C2036 1.490 . S
C2032 H2022 0.930 . S
C2032 C2031 1.400 . S
C2032 C2035 1.386 . S
H2033 C2049 0.930 . S
H2034 C2050 0.931 . S
C2035 H2023 0.929 . S
C2035 C2029 1.390 . S
C2035 C2032 1.386 . S
C2036 C2031 1.490 . S
C2036 C2038 1.395 . S
C2036 C2039 1.403 . S
H2037 C2043 0.930 . S
C2038 H2024 0.930 . S
C2038 C2036 1.395 . S
C2038 C2041 1.403 . S
C2039 C2036 1.403 . S
C2039 C2040 1.524 . S
C2039 C2043 1.400 . S
C2040 H2025 0.960 . S
C2040 H2026 0.960 . S
C2040 H2027 0.960 . S
C2040 C2039 1.524 . S
C2041 C2038 1.403 . S
C2041 C2042 1.392 . S
C2041 C2045 1.495 . S
C2042 C2041 1.392 . S
C2042 C2043 1.385 . S
C2042 C2044 1.478 . S
C2043 H2037 0.930 . S
C2043 C2039 1.400 . S
C2043 C2042 1.385 . S
C2044 C2042 1.478 . S
C2044 C2046 1.381 . S
C2044 C2050 1.383 . S
C2045 C2041 1.495 . S
C2045 H2051 0.959 . S
C2045 H2052 0.961 . S
C2045 H2053 0.960 . S
C2046 C2044 1.381 . S
C2046 C2047 1.394 . S
C2046 H2054 0.930 . S
C2047 C2046 1.394 . S
C2047 C2048 1.383 . S
C2047 H2055 0.929 . S
C2048 C2047 1.383 . S
C2048 C2049 1.377 . S
C2049 H2033 0.930 . S
C2049 C2048 1.377 . S
C2049 C2050 1.379 . S
C2050 H2034 0.931 . S
C2050 C2044 1.383 . S
C2050 C2049 1.379 . S
H2051 C2045 0.959 . S
H2052 C2045 0.961 . S
H2053 C2045 0.960 . S
H2054 C2046 0.930 . S
H2055 C2047 0.929 . S
H2056 C2064 0.929 . S
H2057 C2066 0.930 . S
H2058 C2068 0.930 . S
H2059 C2071 0.929 . S
H2060 C2074 0.930 . S
H2061 C2076 0.960 . S
H2062 C2076 0.960 . S
H2063 C2076 0.960 . S
C2064 H2056 0.929 . S
C2064 C2065 1.377 . S
C2064 C2066 1.384 . S
C2065 C2064 1.377 . S
C2065 C2071 1.390 . S
C2066 H2057 0.930 . S
C2066 C2064 1.384 . S
C2066 C2067 1.372 . S
C2067 C2066 1.372 . S
C2067 C2068 1.400 . S
C2067 C2072 1.490 . S
C2068 H2058 0.930 . S
C2068 C2067 1.400 . S
C2068 C2071 1.386 . S
H2069 C2085 0.930 . S
H2070 C2086 0.931 . S
C2071 H2059 0.929 . S
C2071 C2065 1.390 . S
C2071 C2068 1.386 . S
C2072 C2067 1.490 . S
C2072 C2074 1.395 . S
C2072 C2075 1.403 . S
H2073 C2079 0.930 . S
C2074 H2060 0.930 . S
C2074 C2072 1.395 . S
C2074 C2077 1.403 . S
C2075 C2072 1.403 . S
C2075 C2076 1.524 . S
C2075 C2079 1.400 . S
C2076 H2061 0.960 . S
C2076 H2062 0.960 . S
C2076 H2063 0.960 . S
C2076 C2075 1.524 . S
C2077 C2074 1.403 . S
C2077 C2078 1.392 . S
C2077 C2081 1.495 . S
C2078 C2077 1.392 . S
C2078 C2079 1.385 . S
C2078 C2080 1.478 . S
C2079 H2073 0.930 . S
C2079 C2075 1.400 . S
C2079 C2078 1.385 . S
C2080 C2078 1.478 . S
C2080 C2082 1.381 . S
C2080 C2086 1.383 . S
C2081 C2077 1.495 . S
C2081 H2087 0.959 . S
C2081 H2088 0.961 . S
C2081 H2089 0.960 . S
C2082 C2080 1.381 . S
C2082 C2083 1.394 . S
C2082 H2090 0.930 . S
C2083 C2082 1.394 . S
C2083 C2084 1.383 . S
C2083 H2091 0.931 . S
C2084 C2083 1.383 . S
C2084 C2085 1.377 . S
C2085 H2069 0.930 . S
C2085 C2084 1.377 . S
C2085 C2086 1.379 . S
C2086 H2070 0.931 . S
C2086 C2080 1.383 . S
C2086 C2085 1.379 . S
H2087 C2081 0.959 . S
H2088 C2081 0.961 . S
H2089 C2081 0.960 . S
H2090 C2082 0.930 . S
H2091 C2083 0.931 . S
H2092 C2100 0.929 . S
H2093 C2102 0.930 . S
H2094 C2104 0.930 . S
H2095 C2107 0.929 . S
H2096 C2110 0.930 . S
H2097 C2112 0.960 . S
H2098 C2112 0.960 . S
H2099 C2112 0.960 . S
C2100 H2092 0.929 . S
C2100 C2101 1.377 . S
C2100 C2102 1.384 . S
C2101 C2100 1.377 . S
C2101 C2107 1.390 . S
C2102 H2093 0.930 . S
C2102 C2100 1.384 . S
C2102 C2103 1.372 . S
C2103 C2102 1.372 . S
C2103 C2104 1.400 . S
C2103 C2108 1.490 . S
C2104 H2094 0.930 . S
C2104 C2103 1.400 . S
C2104 C2107 1.386 . S
H2105 C2121 0.930 . S
H2106 C2122 0.931 . S
C2107 H2095 0.929 . S
C2107 C2101 1.390 . S
C2107 C2104 1.386 . S
C2108 C2103 1.490 . S
C2108 C2110 1.395 . S
C2108 C2111 1.403 . S
H2109 C2115 0.930 . S
C2110 H2096 0.930 . S
C2110 C2108 1.395 . S
C2110 C2113 1.403 . S
C2111 C2108 1.403 . S
C2111 C2112 1.524 . S
C2111 C2115 1.400 . S
C2112 H2097 0.960 . S
C2112 H2098 0.960 . S
C2112 H2099 0.960 . S
C2112 C2111 1.524 . S
C2113 C2110 1.403 . S
C2113 C2114 1.392 . S
C2113 C2117 1.495 . S
C2114 C2113 1.392 . S
C2114 C2115 1.385 . S
C2114 C2116 1.478 . S
C2115 H2109 0.930 . S
C2115 C2111 1.400 . S
C2115 C2114 1.385 . S
C2116 C2114 1.478 . S
C2116 C2118 1.381 . S
C2116 C2122 1.383 . S
C2117 C2113 1.495 . S
C2117 H2123 0.959 . S
C2117 H2124 0.961 . S
C2117 H2125 0.960 . S
C2118 C2116 1.381 . S
C2118 C2119 1.394 . S
C2118 H2126 0.930 . S
C2119 C2118 1.394 . S
C2119 C2120 1.383 . S
C2119 H2127 0.929 . S
C2120 C2119 1.383 . S
C2120 C2121 1.377 . S
C2121 H2105 0.930 . S
C2121 C2120 1.377 . S
C2121 C2122 1.379 . S
C2122 H2106 0.931 . S
C2122 C2116 1.383 . S
C2122 C2121 1.379 . S
H2123 C2117 0.959 . S
H2124 C2117 0.961 . S
H2125 C2117 0.960 . S
H2126 C2118 0.930 . S
H2127 C2119 0.929 . S
H2128 C2136 0.929 1_565 S
H2129 C2138 0.930 1_565 S
H2130 C2140 0.930 . S
H2131 C2143 0.929 . S
H2132 C2146 0.930 . S
H2133 C2148 0.960 . S
H2134 C2148 0.960 . S
H2135 C2148 0.960 . S
C2136 H2128 0.929 1_545 S
C2136 C2137 1.377 . S
C2136 C2138 1.384 . S
C2137 C2136 1.377 . S
C2137 C2143 1.390 . S
C2138 H2129 0.930 1_545 S
C2138 C2136 1.384 . S
C2138 C2139 1.372 . S
C2139 C2138 1.372 . S
C2139 C2140 1.400 . S
C2139 C2144 1.490 . S
C2140 H2130 0.930 . S
C2140 C2139 1.400 . S
C2140 C2143 1.386 . S
H2141 C2157 0.930 . S
H2142 C2158 0.931 . S
C2143 H2131 0.929 . S
C2143 C2137 1.390 . S
C2143 C2140 1.386 . S
C2144 C2139 1.490 . S
C2144 C2146 1.395 1_545 S
C2144 C2147 1.403 . S
H2145 C2151 0.930 . S
C2146 H2132 0.930 . S
C2146 C2144 1.395 1_565 S
C2146 C2149 1.403 . S
C2147 C2144 1.403 . S
C2147 C2148 1.524 . S
C2147 C2151 1.400 . S
C2148 H2133 0.960 . S
C2148 H2134 0.960 . S
C2148 H2135 0.960 . S
C2148 C2147 1.524 . S
C2149 C2146 1.403 . S
C2149 C2150 1.392 1_565 S
C2149 C2153 1.495 . S
C2150 C2149 1.392 1_545 S
C2150 C2151 1.385 . S
C2150 C2152 1.478 . S
C2151 H2145 0.930 . S
C2151 C2147 1.400 . S
C2151 C2150 1.385 . S
C2152 C2150 1.478 . S
C2152 C2154 1.381 . S
C2152 C2158 1.383 . S
C2153 C2149 1.495 . S
C2153 H2159 0.959 . S
C2153 H2160 0.961 . S
C2153 H2161 0.960 . S
C2154 C2152 1.381 . S
C2154 C2155 1.394 . S
C2154 H2162 0.930 . S
C2155 C2154 1.394 . S
C2155 C2156 1.383 . S
C2155 H2163 0.929 . S
C2156 C2155 1.383 . S
C2156 C2157 1.377 . S
C2157 H2141 0.930 . S
C2157 C2156 1.377 . S
C2157 C2158 1.379 . S
C2158 H2142 0.931 . S
C2158 C2152 1.383 . S
C2158 C2157 1.379 . S
H2159 C2153 0.959 . S
H2160 C2153 0.961 . S
H2161 C2153 0.960 . S
H2162 C2154 0.930 . S
H2163 C2155 0.929 . S
H2164 C2172 0.929 . S
H2165 C2174 0.930 . S
H2166 C2176 0.930 . S
H2167 C2179 0.929 . S
H2168 C2182 0.930 . S
H2169 C2184 0.960 . S
H2170 C2184 0.960 . S
H2171 C2184 0.960 . S
C2172 H2164 0.929 . S
C2172 C2173 1.377 . S
C2172 C2174 1.384 . S
C2173 C2172 1.377 . S
C2173 C2179 1.390 . S
C2174 H2165 0.930 . S
C2174 C2172 1.384 . S
C2174 C2175 1.372 . S
C2175 C2174 1.372 . S
C2175 C2176 1.400 . S
C2175 C2180 1.490 . S
C2176 H2166 0.930 . S
C2176 C2175 1.400 . S
C2176 C2179 1.386 . S
H2177 C2193 0.930 . S
H2178 C2194 0.931 . S
C2179 H2167 0.929 . S
C2179 C2173 1.390 . S
C2179 C2176 1.386 . S
C2180 C2175 1.490 . S
C2180 C2182 1.395 . S
C2180 C2183 1.403 . S
H2181 C2187 0.930 . S
C2182 H2168 0.930 . S
C2182 C2180 1.395 . S
C2182 C2185 1.403 . S
C2183 C2180 1.403 . S
C2183 C2184 1.524 . S
C2183 C2187 1.400 . S
C2184 H2169 0.960 . S
C2184 H2170 0.960 . S
C2184 H2171 0.960 . S
C2184 C2183 1.524 . S
C2185 C2182 1.403 . S
C2185 C2186 1.392 . S
C2185 C2189 1.495 . S
C2186 C2185 1.392 . S
C2186 C2187 1.385 . S
C2186 C2188 1.478 . S
C2187 H2181 0.930 . S
C2187 C2183 1.400 . S
C2187 C2186 1.385 . S
C2188 C2186 1.478 . S
C2188 C2190 1.381 . S
C2188 C2194 1.383 . S
C2189 C2185 1.495 . S
C2189 H2195 0.959 . S
C2189 H2196 0.961 . S
C2189 H2197 0.960 . S
C2190 C2188 1.381 . S
C2190 C2191 1.394 . S
C2190 H2198 0.930 . S
C2191 C2190 1.394 . S
C2191 C2192 1.383 . S
C2191 H2199 0.929 . S
C2192 C2191 1.383 . S
C2192 C2193 1.377 . S
C2193 H2177 0.930 . S
C2193 C2192 1.377 . S
C2193 C2194 1.379 . S
C2194 H2178 0.931 . S
C2194 C2188 1.383 . S
C2194 C2193 1.379 . S
H2195 C2189 0.959 . S
H2196 C2189 0.961 . S
H2197 C2189 0.960 . S
H2198 C2190 0.930 . S
H2199 C2191 0.929 . S
H2200 C2208 0.929 . S
H2201 C2210 0.930 . S
H2202 C2212 0.930 . S
H2203 C2215 0.929 . S
H2204 C2218 0.930 . S
H2205 C2220 0.960 . S
H2206 C2220 0.960 . S
H2207 C2220 0.960 . S
C2208 H2200 0.929 . S
C2208 C2209 1.377 . S
C2208 C2210 1.384 . S
C2209 C2208 1.377 . S
C2209 C2215 1.390 . S
C2210 H2201 0.930 . S
C2210 C2208 1.384 . S
C2210 C2211 1.372 . S
C2211 C2210 1.372 . S
C2211 C2212 1.400 . S
C2211 C2216 1.490 . S
C2212 H2202 0.930 . S
C2212 C2211 1.400 . S
C2212 C2215 1.386 . S
H2213 C2229 0.930 . S
H2214 C2230 0.931 . S
C2215 H2203 0.929 . S
C2215 C2209 1.390 . S
C2215 C2212 1.386 . S
C2216 C2211 1.490 . S
C2216 C2218 1.395 . S
C2216 C2219 1.403 . S
H2217 C2223 0.930 . S
C2218 H2204 0.930 . S
C2218 C2216 1.395 . S
C2218 C2221 1.403 . S
C2219 C2216 1.403 . S
C2219 C2220 1.524 . S
C2219 C2223 1.400 . S
C2220 H2205 0.960 . S
C2220 H2206 0.960 . S
C2220 H2207 0.960 . S
C2220 C2219 1.524 . S
C2221 C2218 1.403 . S
C2221 C2222 1.392 . S
C2221 C2225 1.495 . S
C2222 C2221 1.392 . S
C2222 C2223 1.385 . S
C2222 C2224 1.478 . S
C2223 H2217 0.930 . S
C2223 C2219 1.400 . S
C2223 C2222 1.385 . S
C2224 C2222 1.478 . S
C2224 C2226 1.381 . S
C2224 C2230 1.383 . S
C2225 C2221 1.495 . S
C2225 H2231 0.959 . S
C2225 H2232 0.961 . S
C2225 H2233 0.960 . S
C2226 C2224 1.381 . S
C2226 C2227 1.394 . S
C2226 H2234 0.930 . S
C2227 C2226 1.394 . S
C2227 C2228 1.383 . S
C2227 H2235 0.929 . S
C2228 C2227 1.383 . S
C2228 C2229 1.377 . S
C2229 H2213 0.930 . S
C2229 C2228 1.377 . S
C2229 C2230 1.379 . S
C2230 H2214 0.931 . S
C2230 C2224 1.383 . S
C2230 C2229 1.379 . S
H2231 C2225 0.959 . S
H2232 C2225 0.961 . S
H2233 C2225 0.960 . S
H2234 C2226 0.930 . S
H2235 C2227 0.929 . S
H2236 C2244 0.929 . S
H2237 C2246 0.930 . S
H2238 C2248 0.930 . S
H2239 C2251 0.929 . S
H2240 C2254 0.930 . S
H2241 C2256 0.960 . S
H2242 C2256 0.960 . S
H2243 C2256 0.960 . S
C2244 H2236 0.929 . S
C2244 C2245 1.377 . S
C2244 C2246 1.384 . S
C2245 C2244 1.377 . S
C2245 C2251 1.390 . S
C2246 H2237 0.930 . S
C2246 C2244 1.384 . S
C2246 C2247 1.372 . S
C2247 C2246 1.372 . S
C2247 C2248 1.400 . S
C2247 C2252 1.490 . S
C2248 H2238 0.930 . S
C2248 C2247 1.400 . S
C2248 C2251 1.386 . S
H2249 C2265 0.930 . S
H2250 C2266 0.931 . S
C2251 H2239 0.929 . S
C2251 C2245 1.390 . S
C2251 C2248 1.386 . S
C2252 C2247 1.490 . S
C2252 C2254 1.395 . S
C2252 C2255 1.403 . S
H2253 C2259 0.930 . S
C2254 H2240 0.930 . S
C2254 C2252 1.395 . S
C2254 C2257 1.403 . S
C2255 C2252 1.403 . S
C2255 C2256 1.524 . S
C2255 C2259 1.400 . S
C2256 H2241 0.960 . S
C2256 H2242 0.960 . S
C2256 H2243 0.960 . S
C2256 C2255 1.524 . S
C2257 C2254 1.403 . S
C2257 C2258 1.392 . S
C2257 C2261 1.495 . S
C2258 C2257 1.392 . S
C2258 C2259 1.385 . S
C2258 C2260 1.478 . S
C2259 H2253 0.930 . S
C2259 C2255 1.400 . S
C2259 C2258 1.385 . S
C2260 C2258 1.478 . S
C2260 C2262 1.381 . S
C2260 C2266 1.383 . S
C2261 C2257 1.495 . S
C2261 H2267 0.959 . S
C2261 H2268 0.961 . S
C2261 H2269 0.960 . S
C2262 C2260 1.381 . S
C2262 C2263 1.394 . S
C2262 H2270 0.930 . S
C2263 C2262 1.394 . S
C2263 C2264 1.383 . S
C2263 H2271 0.929 . S
C2264 C2263 1.383 . S
C2264 C2265 1.377 . S
C2265 H2249 0.930 . S
C2265 C2264 1.377 . S
C2265 C2266 1.379 . S
C2266 H2250 0.931 . S
C2266 C2260 1.383 . S
C2266 C2265 1.379 . S
H2267 C2261 0.959 . S
H2268 C2261 0.961 . S
H2269 C2261 0.960 . S
H2270 C2262 0.930 . S
H2271 C2263 0.929 . S
H2272 C2280 0.929 . S
H2273 C2282 0.930 . S
H2274 C2284 0.930 . S
H2275 C2287 0.929 . S
H2276 C2290 0.930 . S
H2277 C2292 0.960 . S
H2278 C2292 0.960 . S
H2279 C2292 0.960 . S
C2280 H2272 0.929 . S
C2280 C2281 1.428 . S
C2280 C2282 1.384 . S
C2281 C2280 1.428 . S
C2281 C2287 1.365 1_545 S
C2282 H2273 0.930 . S
C2282 C2280 1.384 . S
C2282 C2283 1.372 . S
C2283 C2282 1.372 . S
C2283 C2284 1.400 1_545 S
C2283 C2288 1.490 . S
C2284 H2274 0.930 . S
C2284 C2283 1.400 1_565 S
C2284 C2287 1.386 . S
H2285 C2301 0.930 . S
H2286 C2302 0.931 . S
C2287 H2275 0.929 . S
C2287 C2281 1.365 1_565 S
C2287 C2284 1.386 . S
C2288 C2283 1.490 . S
C2288 C2290 1.395 . S
C2288 C2291 1.389 1_545 S
H2289 C2295 0.930 1_565 S
C2290 H2276 0.930 . S
C2290 C2288 1.395 . S
C2290 C2293 1.403 . S
C2291 C2288 1.389 1_565 S
C2291 C2292 1.555 . S
C2291 C2295 1.382 1_565 S
C2292 H2277 0.960 . S
C2292 H2278 0.960 . S
C2292 H2279 0.960 . S
C2292 C2291 1.555 . S
C2293 C2290 1.403 . S
C2293 C2294 1.392 . S
C2293 C2297 1.495 . S
C2294 C2293 1.392 . S
C2294 C2295 1.385 . S
C2294 C2296 1.478 . S
C2295 H2289 0.930 1_545 S
C2295 C2291 1.382 1_545 S
C2295 C2294 1.385 . S
C2296 C2294 1.478 . S
C2296 C2298 1.381 . S
C2296 C2302 1.383 . S
C2297 C2293 1.495 . S
C2297 H2303 0.959 . S
C2297 H2304 0.961 . S
C2297 H2305 0.960 . S
C2298 C2296 1.381 . S
C2298 C2299 1.394 . S
C2298 H2306 0.930 . S
C2299 C2298 1.394 . S
C2299 C2300 1.383 . S
C2299 H2307 0.929 . S
C2300 C2299 1.383 . S
C2300 C2301 1.377 . S
C2301 H2285 0.930 . S
C2301 C2300 1.377 . S
C2301 C2302 1.379 . S
C2302 H2286 0.931 . S
C2302 C2296 1.383 . S
C2302 C2301 1.379 . S
H2303 C2297 0.959 . S
H2304 C2297 0.961 . S
H2305 C2297 0.960 . S
H2306 C2298 0.930 . S
H2307 C2299 0.929 . S
H2308 C2316 0.929 . S
H2309 C2318 0.930 . S
H2310 C2320 0.930 . S
H2311 C2323 0.929 . S
H2312 C2326 0.930 . S
H2313 C2328 0.960 . S
H2314 C2328 0.960 . S
H2315 C2328 0.960 . S
C2316 H2308 0.929 . S
C2316 C2317 1.377 . S
C2316 C2318 1.384 . S
C2317 C2316 1.377 . S
C2317 C2323 1.390 . S
C2318 H2309 0.930 . S
C2318 C2316 1.384 . S
C2318 C2319 1.372 . S
C2319 C2318 1.372 . S
C2319 C2320 1.400 . S
C2319 C2324 1.490 . S
C2320 H2310 0.930 . S
C2320 C2319 1.400 . S
C2320 C2323 1.386 . S
H2321 C2337 0.930 . S
H2322 C2338 0.931 . S
C2323 H2311 0.929 . S
C2323 C2317 1.390 . S
C2323 C2320 1.386 . S
C2324 C2319 1.490 . S
C2324 C2326 1.395 . S
C2324 C2327 1.403 . S
H2325 C2331 0.930 . S
C2326 H2312 0.930 . S
C2326 C2324 1.395 . S
C2326 C2329 1.403 . S
C2327 C2324 1.403 . S
C2327 C2328 1.524 . S
C2327 C2331 1.400 . S
C2328 H2313 0.960 . S
C2328 H2314 0.960 . S
C2328 H2315 0.960 . S
C2328 C2327 1.524 . S
C2329 C2326 1.403 . S
C2329 C2330 1.392 . S
C2329 C2333 1.495 . S
C2330 C2329 1.392 . S
C2330 C2331 1.385 . S
C2330 C2332 1.478 . S
C2331 H2325 0.930 . S
C2331 C2327 1.400 . S
C2331 C2330 1.385 . S
C2332 C2330 1.478 . S
C2332 C2334 1.381 . S
C2332 C2338 1.383 . S
C2333 C2329 1.495 . S
C2333 H2339 0.959 . S
C2333 H2340 0.961 . S
C2333 H2341 0.960 . S
C2334 C2332 1.381 . S
C2334 C2335 1.394 . S
C2334 H2342 0.930 . S
C2335 C2334 1.394 . S
C2335 C2336 1.383 . S
C2335 H2343 0.929 . S
C2336 C2335 1.383 . S
C2336 C2337 1.377 . S
C2337 H2321 0.930 . S
C2337 C2336 1.377 . S
C2337 C2338 1.379 . S
C2338 H2322 0.931 . S
C2338 C2332 1.383 . S
C2338 C2337 1.379 . S
H2339 C2333 0.959 . S
H2340 C2333 0.961 . S
H2341 C2333 0.960 . S
H2342 C2334 0.930 . S
H2343 C2335 0.929 . S
H2344 C2352 0.929 . S
H2345 C2354 0.930 . S
H2346 C2356 0.930 . S
H2347 C2359 0.929 . S
H2348 C2362 0.930 . S
H2349 C2364 0.960 . S
H2350 C2364 0.960 . S
H2351 C2364 0.960 . S
C2352 H2344 0.929 . S
C2352 C2353 1.377 . S
C2352 C2354 1.384 . S
C2353 C2352 1.377 . S
C2353 C2359 1.390 1_545 S
C2354 H2345 0.930 . S
C2354 C2352 1.384 . S
C2354 C2355 1.372 . S
C2355 C2354 1.372 . S
C2355 C2356 1.400 1_545 S
C2355 C2360 1.490 . S
C2356 H2346 0.930 . S
C2356 C2355 1.400 1_565 S
C2356 C2359 1.386 . S
H2357 C2373 0.930 . S
H2358 C2374 0.931 . S
C2359 H2347 0.929 . S
C2359 C2353 1.390 1_565 S
C2359 C2356 1.386 . S
C2360 C2355 1.490 . S
C2360 C2362 1.395 . S
C2360 C2363 1.403 1_545 S
H2361 C2367 0.930 . S
C2362 H2348 0.930 . S
C2362 C2360 1.395 . S
C2362 C2365 1.403 . S
C2363 C2360 1.403 1_565 S
C2363 C2364 1.524 . S
C2363 C2367 1.400 . S
C2364 H2349 0.960 . S
C2364 H2350 0.960 . S
C2364 H2351 0.960 . S
C2364 C2363 1.524 . S
C2365 C2362 1.403 . S
C2365 C2366 1.392 . S
C2365 C2369 1.495 . S
C2366 C2365 1.392 . S
C2366 C2367 1.385 1_545 S
C2366 C2368 1.478 . S
C2367 H2361 0.930 . S
C2367 C2363 1.400 . S
C2367 C2366 1.385 1_565 S
C2368 C2366 1.478 . S
C2368 C2370 1.381 . S
C2368 C2374 1.383 1_545 S
C2369 C2365 1.495 . S
C2369 H2375 0.959 . S
C2369 H2376 0.961 . S
C2369 H2377 0.960 . S
C2370 C2368 1.381 . S
C2370 C2371 1.394 . S
C2370 H2378 0.930 . S
C2371 C2370 1.394 . S
C2371 C2372 1.383 1_545 S
C2371 H2379 0.929 . S
C2372 C2371 1.383 1_565 S
C2372 C2373 1.377 . S
C2373 H2357 0.930 . S
C2373 C2372 1.377 . S
C2373 C2374 1.379 . S
C2374 H2358 0.931 . S
C2374 C2368 1.383 1_565 S
C2374 C2373 1.379 . S
H2375 C2369 0.959 . S
H2376 C2369 0.961 . S
H2377 C2369 0.960 . S
H2378 C2370 0.930 . S
H2379 C2371 0.929 . S
H2380 C2388 0.929 . S
H2381 C2390 0.930 . S
H2382 C2392 0.930 . S
H2383 C2395 0.929 . S
H2384 C2398 0.930 . S
H2385 C2400 0.960 . S
H2386 C2400 0.960 . S
H2387 C2400 0.960 . S
C2388 H2380 0.929 . S
C2388 C2389 1.377 . S
C2388 C2390 1.384 . S
C2389 C2388 1.377 . S
C2389 C2395 1.390 . S
C2390 H2381 0.930 . S
C2390 C2388 1.384 . S
C2390 C2391 1.372 . S
C2391 C2390 1.372 . S
C2391 C2392 1.400 . S
C2391 C2396 1.490 . S
C2392 H2382 0.930 . S
C2392 C2391 1.400 . S
C2392 C2395 1.386 . S
H2393 C2409 0.930 . S
H2394 C2410 0.931 . S
C2395 H2383 0.929 . S
C2395 C2389 1.390 . S
C2395 C2392 1.386 . S
C2396 C2391 1.490 . S
C2396 C2398 1.395 . S
C2396 C2399 1.403 . S
H2397 C2403 0.930 . S
C2398 H2384 0.930 . S
C2398 C2396 1.395 . S
C2398 C2401 1.403 . S
C2399 C2396 1.403 . S
C2399 C2400 1.524 . S
C2399 C2403 1.400 . S
C2400 H2385 0.960 . S
C2400 H2386 0.960 . S
C2400 H2387 0.960 . S
C2400 C2399 1.524 . S
C2401 C2398 1.403 . S
C2401 C2402 1.392 . S
C2401 C2405 1.495 . S
C2402 C2401 1.392 . S
C2402 C2403 1.385 . S
C2402 C2404 1.478 . S
C2403 H2397 0.930 . S
C2403 C2399 1.400 . S
C2403 C2402 1.385 . S
C2404 C2402 1.478 . S
C2404 C2406 1.381 . S
C2404 C2410 1.383 . S
C2405 C2401 1.495 . S
C2405 H2411 0.959 . S
C2405 H2412 0.961 . S
C2405 H2413 0.960 . S
C2406 C2404 1.381 . S
C2406 C2407 1.394 . S
C2406 H2414 0.930 . S
C2407 C2406 1.394 . S
C2407 C2408 1.383 . S
C2407 H2415 0.929 . S
C2408 C2407 1.383 . S
C2408 C2409 1.377 . S
C2409 H2393 0.930 . S
C2409 C2408 1.377 . S
C2409 C2410 1.379 . S
C2410 H2394 0.931 . S
C2410 C2404 1.383 . S
C2410 C2409 1.379 . S
H2411 C2405 0.959 . S
H2412 C2405 0.961 . S
H2413 C2405 0.960 . S
H2414 C2406 0.930 . S
H2415 C2407 0.929 . S
H2416 C2424 0.929 . S
H2417 C2426 0.930 . S
H2418 C2428 0.930 . S
H2419 C2431 0.929 . S
H2420 C2434 0.930 . S
H2421 C2436 0.960 . S
H2422 C2436 0.960 . S
H2423 C2436 0.960 . S
C2424 H2416 0.929 . S
C2424 C2425 1.377 . S
C2424 C2426 1.384 . S
C2425 C2424 1.377 . S
C2425 C2431 1.390 1_554 S
C2426 H2417 0.930 . S
C2426 C2424 1.384 . S
C2426 C2427 1.372 . S
C2427 C2426 1.372 . S
C2427 C2428 1.400 1_554 S
C2427 C2432 1.490 . S
C2428 H2418 0.930 . S
C2428 C2427 1.400 1_556 S
C2428 C2431 1.386 . S
H2429 C2445 0.930 . S
H2430 C2446 0.931 . S
C2431 H2419 0.929 . S
C2431 C2425 1.390 1_556 S
C2431 C2428 1.386 . S
C2432 C2427 1.490 . S
C2432 C2434 1.395 . S
C2432 C2435 1.403 1_554 S
H2433 C2439 0.930 . S
C2434 H2420 0.930 . S
C2434 C2432 1.395 . S
C2434 C2437 1.403 . S
C2435 C2432 1.403 1_556 S
C2435 C2436 1.524 . S
C2435 C2439 1.400 . S
C2436 H2421 0.960 . S
C2436 H2422 0.960 . S
C2436 H2423 0.960 . S
C2436 C2435 1.524 . S
C2437 C2434 1.403 . S
C2437 C2438 1.397 1_554 S
C2437 C2441 1.495 . S
C2438 C2437 1.397 1_556 S
C2438 C2439 1.381 . S
C2438 C2440 1.476 . S
C2439 H2433 0.930 . S
C2439 C2435 1.400 . S
C2439 C2438 1.381 . S
C2440 C2438 1.476 . S
C2440 C2442 1.381 1_556 S
C2440 C2446 1.383 . S
C2441 C2437 1.495 . S
C2441 H2447 0.959 . S
C2441 H2448 0.961 . S
C2441 H2449 0.960 . S
C2442 C2440 1.381 1_554 S
C2442 C2443 1.394 . S
C2442 H2450 0.930 . S
C2443 C2442 1.394 . S
C2443 C2444 1.383 1_554 S
C2443 H2451 0.929 . S
C2444 C2443 1.383 1_556 S
C2444 C2445 1.377 . S
C2445 H2429 0.930 . S
C2445 C2444 1.377 . S
C2445 C2446 1.379 . S
C2446 H2430 0.931 . S
C2446 C2440 1.383 . S
C2446 C2445 1.379 . S
H2447 C2441 0.959 . S
H2448 C2441 0.961 . S
H2449 C2441 0.960 . S
H2450 C2442 0.930 . S
H2451 C2443 0.929 . S
H2452 C2460 0.929 . S
H2453 C2462 0.930 . S
H2454 C2464 0.930 1_556 S
H2455 C2467 0.929 1_556 S
H2456 C2470 0.930 . S
H2457 C2472 0.960 . S
H2458 C2472 0.960 . S
H2459 C2472 0.964 1_556 S
C2460 H2452 0.929 . S
C2460 C2461 1.377 . S
C2460 C2462 1.384 . S
C2461 C2460 1.377 . S
C2461 C2467 1.390 . S
C2462 H2453 0.930 . S
C2462 C2460 1.384 . S
C2462 C2463 1.372 . S
C2463 C2462 1.372 . S
C2463 C2464 1.400 . S
C2463 C2468 1.490 . S
C2464 H2454 0.930 1_554 S
C2464 C2463 1.400 . S
C2464 C2467 1.386 . S
H2465 C2481 0.930 1_556 S
H2466 C2482 0.931 1_556 S
C2467 H2455 0.929 1_554 S
C2467 C2461 1.390 . S
C2467 C2464 1.386 . S
C2468 C2463 1.490 . S
C2468 C2470 1.395 . S
C2468 C2471 1.403 . S
H2469 C2475 0.930 . S
C2470 H2456 0.930 . S
C2470 C2468 1.395 . S
C2470 C2473 1.403 . S
C2471 C2468 1.403 . S
C2471 C2472 1.524 . S
C2471 C2475 1.400 . S
C2472 H2457 0.960 . S
C2472 H2458 0.960 . S
C2472 H2459 0.964 1_554 S
C2472 C2471 1.524 . S
C2473 C2470 1.403 . S
C2473 C2474 1.392 . S
C2473 C2477 1.495 . S
C2474 C2473 1.392 . S
C2474 C2475 1.385 . S
C2474 C2476 1.478 . S
C2475 H2469 0.930 . S
C2475 C2471 1.400 . S
C2475 C2474 1.385 . S
C2476 C2474 1.478 . S
C2476 C2478 1.381 . S
C2476 C2482 1.383 . S
C2477 C2473 1.495 . S
C2477 H2483 0.959 . S
C2477 H2484 0.961 . S
C2477 H2485 0.960 . S
C2478 C2476 1.381 . S
C2478 C2479 1.394 . S
C2478 H2486 0.930 . S
C2479 C2478 1.394 . S
C2479 C2480 1.383 . S
C2479 H2487 0.929 . S
C2480 C2479 1.383 . S
C2480 C2481 1.377 . S
C2481 H2465 0.930 1_554 S
C2481 C2480 1.377 . S
C2481 C2482 1.379 . S
C2482 H2466 0.931 1_554 S
C2482 C2476 1.383 . S
C2482 C2481 1.379 . S
H2483 C2477 0.959 . S
H2484 C2477 0.961 . S
H2485 C2477 0.960 . S
H2486 C2478 0.930 . S
H2487 C2479 0.929 . S
H2488 C2496 0.929 . S
H2489 C2498 0.930 . S
H2490 C2500 0.930 . S
H2491 C2503 0.929 . S
H2492 C2506 0.930 . S
H2493 C2508 0.960 . S
H2494 C2508 0.960 . S
H2495 C2508 0.960 . S
C2496 H2488 0.929 . S
C2496 C2497 1.377 . S
C2496 C2498 1.384 . S
C2497 C2496 1.377 . S
C2497 C2503 1.390 . S
C2498 H2489 0.930 . S
C2498 C2496 1.384 . S
C2498 C2499 1.372 . S
C2499 C2498 1.372 . S
C2499 C2500 1.400 . S
C2499 C2504 1.490 . S
C2500 H2490 0.930 . S
C2500 C2499 1.400 . S
C2500 C2503 1.386 . S
H2501 C2517 0.930 . S
H2502 C2518 0.931 . S
C2503 H2491 0.929 . S
C2503 C2497 1.390 . S
C2503 C2500 1.386 . S
C2504 C2499 1.490 . S
C2504 C2506 1.395 . S
C2504 C2507 1.403 . S
H2505 C2511 0.930 . S
C2506 H2492 0.930 . S
C2506 C2504 1.395 . S
C2506 C2509 1.403 . S
C2507 C2504 1.403 . S
C2507 C2508 1.524 . S
C2507 C2511 1.400 . S
C2508 H2493 0.960 . S
C2508 H2494 0.960 . S
C2508 H2495 0.960 . S
C2508 C2507 1.524 . S
C2509 C2506 1.403 . S
C2509 C2510 1.392 . S
C2509 C2513 1.495 . S
C2510 C2509 1.392 . S
C2510 C2511 1.385 . S
C2510 C2512 1.478 . S
C2511 H2505 0.930 . S
C2511 C2507 1.400 . S
C2511 C2510 1.385 . S
C2512 C2510 1.478 . S
C2512 C2514 1.381 . S
C2512 C2518 1.383 . S
C2513 C2509 1.495 . S
C2513 H2519 0.959 . S
C2513 H2520 0.961 . S
C2513 H2521 0.960 . S
C2514 C2512 1.381 . S
C2514 C2515 1.394 . S
C2514 H2522 0.930 . S
C2515 C2514 1.394 . S
C2515 C2516 1.383 . S
C2515 H2523 0.929 . S
C2516 C2515 1.383 . S
C2516 C2517 1.377 . S
C2517 H2501 0.930 . S
C2517 C2516 1.377 . S
C2517 C2518 1.379 . S
C2518 H2502 0.931 . S
C2518 C2512 1.383 . S
C2518 C2517 1.379 . S
H2519 C2513 0.959 . S
H2520 C2513 0.961 . S
H2521 C2513 0.960 . S
H2522 C2514 0.930 . S
H2523 C2515 0.929 . S
H2524 C2532 0.929 . S
H2525 C2534 0.930 . S
H2526 C2536 0.930 . S
H2527 C2539 0.929 . S
H2528 C2542 0.930 . S
H2529 C2544 0.960 . S
H2530 C2544 0.960 . S
H2531 C2544 0.960 . S
C2532 H2524 0.929 . S
C2532 C2533 1.377 . S
C2532 C2534 1.384 . S
C2533 C2532 1.377 . S
C2533 C2539 1.390 . S
C2534 H2525 0.930 . S
C2534 C2532 1.384 . S
C2534 C2535 1.372 . S
C2535 C2534 1.372 . S
C2535 C2536 1.400 . S
C2535 C2540 1.490 . S
C2536 H2526 0.930 . S
C2536 C2535 1.400 . S
C2536 C2539 1.386 . S
H2537 C2553 0.930 . S
H2538 C2554 0.931 . S
C2539 H2527 0.929 . S
C2539 C2533 1.390 . S
C2539 C2536 1.386 . S
C2540 C2535 1.490 . S
C2540 C2542 1.395 . S
C2540 C2543 1.403 . S
H2541 C2547 0.930 . S
C2542 H2528 0.930 . S
C2542 C2540 1.395 . S
C2542 C2545 1.403 . S
C2543 C2540 1.403 . S
C2543 C2544 1.524 . S
C2543 C2547 1.400 . S
C2544 H2529 0.960 . S
C2544 H2530 0.960 . S
C2544 H2531 0.960 . S
C2544 C2543 1.524 . S
C2545 C2542 1.403 . S
C2545 C2546 1.392 . S
C2545 C2549 1.495 . S
C2546 C2545 1.392 . S
C2546 C2547 1.385 . S
C2546 C2548 1.478 . S
C2547 H2541 0.930 . S
C2547 C2543 1.400 . S
C2547 C2546 1.385 . S
C2548 C2546 1.478 . S
C2548 C2550 1.381 . S
C2548 C2554 1.383 . S
C2549 C2545 1.495 . S
C2549 H2555 0.959 . S
C2549 H2556 0.961 . S
C2549 H2557 0.960 . S
C2550 C2548 1.381 . S
C2550 C2551 1.394 . S
C2550 H2558 0.930 . S
C2551 C2550 1.394 . S
C2551 C2552 1.383 . S
C2551 H2559 0.929 . S
C2552 C2551 1.383 . S
C2552 C2553 1.377 . S
C2553 H2537 0.930 . S
C2553 C2552 1.377 . S
C2553 C2554 1.379 . S
C2554 H2538 0.931 . S
C2554 C2548 1.383 . S
C2554 C2553 1.379 . S
H2555 C2549 0.959 . S
H2556 C2549 0.961 . S
H2557 C2549 0.960 . S
H2558 C2550 0.930 . S
H2559 C2551 0.929 . S
H2560 C2568 0.929 . S
H2561 C2570 0.930 . S
H2562 C2572 0.930 . S
H2563 C2575 0.929 . S
H2564 C2578 0.930 . S
H2565 C2580 0.960 . S
H2566 C2580 0.960 . S
H2567 C2580 0.960 . S
C2568 H2560 0.929 . S
C2568 C2569 1.377 1_565 S
C2568 C2570 1.384 . S
C2569 C2568 1.377 1_545 S
C2569 C2575 1.390 . S
C2570 H2561 0.930 . S
C2570 C2568 1.384 . S
C2570 C2571 1.372 . S
C2571 C2570 1.372 . S
C2571 C2572 1.400 . S
C2571 C2576 1.490 . S
C2572 H2562 0.930 . S
C2572 C2571 1.400 . S
C2572 C2575 1.386 1_565 S
H2573 C2589 0.930 . S
H2574 C2590 0.931 . S
C2575 H2563 0.929 . S
C2575 C2569 1.390 . S
C2575 C2572 1.386 1_545 S
C2576 C2571 1.490 . S
C2576 C2578 1.395 . S
C2576 C2579 1.403 . S
H2577 C2583 0.930 . S
C2578 H2564 0.930 . S
C2578 C2576 1.395 . S
C2578 C2581 1.403 . S
C2579 C2576 1.403 . S
C2579 C2580 1.524 . S
C2579 C2583 1.400 . S
C2580 H2565 0.960 . S
C2580 H2566 0.960 . S
C2580 H2567 0.960 . S
C2580 C2579 1.524 . S
C2581 C2578 1.403 . S
C2581 C2582 1.392 . S
C2581 C2585 1.495 . S
C2582 C2581 1.392 . S
C2582 C2583 1.385 . S
C2582 C2584 1.478 . S
C2583 H2577 0.930 . S
C2583 C2579 1.400 . S
C2583 C2582 1.385 . S
C2584 C2582 1.478 . S
C2584 C2586 1.381 . S
C2584 C2590 1.383 . S
C2585 C2581 1.495 . S
C2585 H2591 0.959 . S
C2585 H2592 0.961 . S
C2585 H2593 0.960 . S
C2586 C2584 1.381 . S
C2586 C2587 1.394 . S
C2586 H2594 0.930 . S
C2587 C2586 1.394 . S
C2587 C2588 1.383 . S
C2587 H2595 0.929 . S
C2588 C2587 1.383 . S
C2588 C2589 1.377 . S
C2589 H2573 0.930 . S
C2589 C2588 1.377 . S
C2589 C2590 1.379 . S
C2590 H2574 0.931 . S
C2590 C2584 1.383 . S
C2590 C2589 1.379 . S
H2591 C2585 0.959 . S
H2592 C2585 0.961 . S
H2593 C2585 0.960 . S
H2594 C2586 0.930 . S
H2595 C2587 0.929 . S
H2596 C2604 0.929 . S
H2597 C2606 0.930 . S
H2598 C2608 0.930 . S
H2599 C2611 0.929 . S
H2600 C2614 0.930 . S
H2601 C2616 0.960 . S
H2602 C2616 0.960 . S
H2603 C2616 0.960 . S
C2604 H2596 0.929 . S
C2604 C2605 1.377 . S
C2604 C2606 1.384 . S
C2605 C2604 1.377 . S
C2605 C2611 1.390 . S
C2606 H2597 0.930 . S
C2606 C2604 1.384 . S
C2606 C2607 1.372 . S
C2607 C2606 1.372 . S
C2607 C2608 1.400 . S
C2607 C2612 1.490 . S
C2608 H2598 0.930 . S
C2608 C2607 1.400 . S
C2608 C2611 1.386 . S
H2609 C2625 0.930 . S
H2610 C2626 0.931 . S
C2611 H2599 0.929 . S
C2611 C2605 1.390 . S
C2611 C2608 1.386 . S
C2612 C2607 1.490 . S
C2612 C2614 1.395 . S
C2612 C2615 1.403 . S
H2613 C2619 0.930 . S
C2614 H2600 0.930 . S
C2614 C2612 1.395 . S
C2614 C2617 1.403 . S
C2615 C2612 1.403 . S
C2615 C2616 1.524 . S
C2615 C2619 1.400 . S
C2616 H2601 0.960 . S
C2616 H2602 0.960 . S
C2616 H2603 0.960 . S
C2616 C2615 1.524 . S
C2617 C2614 1.403 . S
C2617 C2618 1.392 . S
C2617 C2621 1.495 . S
C2618 C2617 1.392 . S
C2618 C2619 1.385 . S
C2618 C2620 1.478 . S
C2619 H2613 0.930 . S
C2619 C2615 1.400 . S
C2619 C2618 1.385 . S
C2620 C2618 1.478 . S
C2620 C2622 1.381 . S
C2620 C2626 1.383 . S
C2621 C2617 1.495 . S
C2621 H2627 0.959 . S
C2621 H2628 0.961 . S
C2621 H2629 0.960 . S
C2622 C2620 1.381 . S
C2622 C2623 1.394 . S
C2622 H2630 0.930 . S
C2623 C2622 1.394 . S
C2623 C2624 1.383 . S
C2623 H2631 0.929 . S
C2624 C2623 1.383 . S
C2624 C2625 1.377 . S
C2625 H2609 0.930 . S
C2625 C2624 1.377 . S
C2625 C2626 1.379 . S
C2626 H2610 0.931 . S
C2626 C2620 1.383 . S
C2626 C2625 1.379 . S
H2627 C2621 0.959 . S
H2628 C2621 0.961 . S
H2629 C2621 0.960 . S
H2630 C2622 0.930 . S
H2631 C2623 0.929 . S
H2632 C2640 0.929 . S
H2633 C2642 0.930 . S
H2634 C2644 0.930 . S
H2635 C2647 0.929 . S
H2636 C2650 0.930 . S
H2637 C2652 0.960 . S
H2638 C2652 0.960 . S
H2639 C2652 0.960 . S
C2640 H2632 0.929 . S
C2640 C2641 1.377 . S
C2640 C2642 1.384 . S
C2641 C2640 1.377 . S
C2641 C2647 1.390 . S
C2642 H2633 0.930 . S
C2642 C2640 1.384 . S
C2642 C2643 1.372 . S
C2643 C2642 1.372 . S
C2643 C2644 1.400 . S
C2643 C2648 1.490 . S
C2644 H2634 0.930 . S
C2644 C2643 1.400 . S
C2644 C2647 1.386 . S
H2645 C2661 0.930 . S
H2646 C2662 0.931 . S
C2647 H2635 0.929 . S
C2647 C2641 1.390 . S
C2647 C2644 1.386 . S
C2648 C2643 1.490 . S
C2648 C2650 1.395 . S
C2648 C2651 1.403 . S
H2649 C2655 0.930 . S
C2650 H2636 0.930 . S
C2650 C2648 1.395 . S
C2650 C2653 1.403 . S
C2651 C2648 1.403 . S
C2651 C2652 1.524 . S
C2651 C2655 1.400 . S
C2652 H2637 0.960 . S
C2652 H2638 0.960 . S
C2652 H2639 0.960 . S
C2652 C2651 1.524 . S
C2653 C2650 1.403 . S
C2653 C2654 1.392 . S
C2653 C2657 1.495 . S
C2654 C2653 1.392 . S
C2654 C2655 1.385 . S
C2654 C2656 1.478 . S
C2655 H2649 0.930 . S
C2655 C2651 1.400 . S
C2655 C2654 1.385 . S
C2656 C2654 1.478 . S
C2656 C2658 1.381 . S
C2656 C2662 1.383 . S
C2657 C2653 1.495 . S
C2657 H2663 0.959 . S
C2657 H2664 0.961 . S
C2657 H2665 0.960 . S
C2658 C2656 1.381 . S
C2658 C2659 1.394 . S
C2658 H2666 0.930 . S
C2659 C2658 1.394 . S
C2659 C2660 1.383 . S
C2659 H2667 0.929 . S
C2660 C2659 1.383 . S
C2660 C2661 1.377 . S
C2661 H2645 0.930 . S
C2661 C2660 1.377 . S
C2661 C2662 1.379 . S
C2662 H2646 0.931 . S
C2662 C2656 1.383 . S
C2662 C2661 1.379 . S
H2663 C2657 0.959 . S
H2664 C2657 0.961 . S
H2665 C2657 0.960 . S
H2666 C2658 0.930 . S
H2667 C2659 0.929 . S
H2668 C2676 0.929 . S
H2669 C2678 0.930 . S
H2670 C2680 0.930 . S
H2671 C2683 0.929 . S
H2672 C2686 0.930 . S
H2673 C2688 0.960 . S
H2674 C2688 0.960 . S
H2675 C2688 0.960 . S
C2676 H2668 0.929 . S
C2676 C2677 1.377 . S
C2676 C2678 1.384 . S
C2677 C2676 1.377 . S
C2677 C2683 1.390 . S
C2678 H2669 0.930 . S
C2678 C2676 1.384 . S
C2678 C2679 1.372 . S
C2679 C2678 1.372 . S
C2679 C2680 1.400 . S
C2679 C2684 1.490 . S
C2680 H2670 0.930 . S
C2680 C2679 1.400 . S
C2680 C2683 1.386 . S
H2681 C2697 0.930 . S
H2682 C2698 0.931 . S
C2683 H2671 0.929 . S
C2683 C2677 1.390 . S
C2683 C2680 1.386 . S
C2684 C2679 1.490 . S
C2684 C2686 1.395 . S
C2684 C2687 1.403 . S
H2685 C2691 0.930 . S
C2686 H2672 0.930 . S
C2686 C2684 1.395 . S
C2686 C2689 1.403 . S
C2687 C2684 1.403 . S
C2687 C2688 1.524 . S
C2687 C2691 1.400 . S
C2688 H2673 0.960 . S
C2688 H2674 0.960 . S
C2688 H2675 0.960 . S
C2688 C2687 1.524 . S
C2689 C2686 1.403 . S
C2689 C2690 1.392 . S
C2689 C2693 1.495 . S
C2690 C2689 1.392 . S
C2690 C2691 1.385 . S
C2690 C2692 1.478 . S
C2691 H2685 0.930 . S
C2691 C2687 1.400 . S
C2691 C2690 1.385 . S
C2692 C2690 1.478 . S
C2692 C2694 1.381 . S
C2692 C2698 1.383 . S
C2693 C2689 1.495 . S
C2693 H2699 0.959 . S
C2693 H2700 0.961 . S
C2693 H2701 0.960 . S
C2694 C2692 1.381 . S
C2694 C2695 1.394 . S
C2694 H2702 0.930 . S
C2695 C2694 1.394 . S
C2695 C2696 1.383 . S
C2695 H2703 0.929 . S
C2696 C2695 1.383 . S
C2696 C2697 1.377 . S
C2697 H2681 0.930 . S
C2697 C2696 1.377 . S
C2697 C2698 1.379 . S
C2698 H2682 0.931 . S
C2698 C2692 1.383 . S
C2698 C2697 1.379 . S
H2699 C2693 0.959 . S
H2700 C2693 0.961 . S
H2701 C2693 0.960 . S
H2702 C2694 0.930 . S
H2703 C2695 0.929 . S
H2704 C2712 0.929 . S
H2705 C2714 0.930 . S
H2706 C2716 0.930 . S
H2707 C2719 0.929 . S
H2708 C2722 0.930 . S
H2709 C2724 0.960 . S
H2710 C2724 0.960 . S
H2711 C2724 0.960 . S
C2712 H2704 0.929 . S
C2712 C2713 1.377 . S
C2712 C2714 1.384 . S
C2713 C2712 1.377 . S
C2713 C2719 1.390 . S
C2714 H2705 0.930 . S
C2714 C2712 1.384 . S
C2714 C2715 1.372 . S
C2715 C2714 1.372 . S
C2715 C2716 1.400 . S
C2715 C2720 1.490 . S
C2716 H2706 0.930 . S
C2716 C2715 1.400 . S
C2716 C2719 1.386 . S
H2717 C2733 0.930 . S
H2718 C2734 0.931 . S
C2719 H2707 0.929 . S
C2719 C2713 1.390 . S
C2719 C2716 1.386 . S
C2720 C2715 1.490 . S
C2720 C2722 1.395 . S
C2720 C2723 1.403 . S
H2721 C2727 0.930 . S
C2722 H2708 0.930 . S
C2722 C2720 1.395 . S
C2722 C2725 1.403 . S
C2723 C2720 1.403 . S
C2723 C2724 1.524 . S
C2723 C2727 1.400 . S
C2724 H2709 0.960 . S
C2724 H2710 0.960 . S
C2724 H2711 0.960 . S
C2724 C2723 1.524 . S
C2725 C2722 1.403 . S
C2725 C2726 1.392 . S
C2725 C2729 1.495 . S
C2726 C2725 1.392 . S
C2726 C2727 1.385 . S
C2726 C2728 1.478 . S
C2727 H2721 0.930 . S
C2727 C2723 1.400 . S
C2727 C2726 1.385 . S
C2728 C2726 1.478 . S
C2728 C2730 1.381 . S
C2728 C2734 1.383 . S
C2729 C2725 1.495 . S
C2729 H2735 0.959 . S
C2729 H2736 0.961 . S
C2729 H2737 0.960 . S
C2730 C2728 1.381 . S
C2730 C2731 1.394 . S
C2730 H2738 0.930 . S
C2731 C2730 1.394 . S
C2731 C2732 1.383 . S
C2731 H2739 0.929 . S
C2732 C2731 1.383 . S
C2732 C2733 1.377 . S
C2733 H2717 0.930 . S
C2733 C2732 1.377 . S
C2733 C2734 1.379 . S
C2734 H2718 0.931 . S
C2734 C2728 1.383 . S
C2734 C2733 1.379 . S
H2735 C2729 0.959 . S
H2736 C2729 0.961 . S
H2737 C2729 0.960 . S
H2738 C2730 0.930 . S
H2739 C2731 0.929 . S
H2740 C2748 0.929 . S
H2741 C2750 0.930 . S
H2742 C2752 0.930 . S
H2743 C2755 0.929 . S
H2744 C2758 0.930 . S
H2745 C2760 0.960 . S
H2746 C2760 0.960 . S
H2747 C2760 0.960 . S
C2748 H2740 0.929 . S
C2748 C2749 1.377 . S
C2748 C2750 1.384 . S
C2749 C2748 1.377 . S
C2749 C2755 1.390 . S
C2750 H2741 0.930 . S
C2750 C2748 1.384 . S
C2750 C2751 1.372 . S
C2751 C2750 1.372 . S
C2751 C2752 1.400 . S
C2751 C2756 1.490 . S
C2752 H2742 0.930 . S
C2752 C2751 1.400 . S
C2752 C2755 1.386 . S
H2753 C2769 0.930 . S
H2754 C2770 0.931 . S
C2755 H2743 0.929 . S
C2755 C2749 1.390 . S
C2755 C2752 1.386 . S
C2756 C2751 1.490 . S
C2756 C2758 1.395 . S
C2756 C2759 1.403 . S
H2757 C2763 0.930 . S
C2758 H2744 0.930 . S
C2758 C2756 1.395 . S
C2758 C2761 1.403 . S
C2759 C2756 1.403 . S
C2759 C2760 1.524 . S
C2759 C2763 1.400 . S
C2760 H2745 0.960 . S
C2760 H2746 0.960 . S
C2760 H2747 0.960 . S
C2760 C2759 1.524 . S
C2761 C2758 1.403 . S
C2761 C2762 1.392 . S
C2761 C2765 1.495 . S
C2762 C2761 1.392 . S
C2762 C2763 1.385 . S
C2762 C2764 1.478 . S
C2763 H2757 0.930 . S
C2763 C2759 1.400 . S
C2763 C2762 1.385 . S
C2764 C2762 1.478 . S
C2764 C2766 1.381 . S
C2764 C2770 1.383 . S
C2765 C2761 1.495 . S
C2765 H2771 0.959 . S
C2765 H2772 0.961 . S
C2765 H2773 0.960 . S
C2766 C2764 1.381 . S
C2766 C2767 1.394 . S
C2766 H2774 0.930 . S
C2767 C2766 1.394 . S
C2767 C2768 1.383 . S
C2767 H2775 0.929 . S
C2768 C2767 1.383 . S
C2768 C2769 1.377 . S
C2769 H2753 0.930 . S
C2769 C2768 1.377 . S
C2769 C2770 1.379 . S
C2770 H2754 0.931 . S
C2770 C2764 1.383 . S
C2770 C2769 1.379 . S
H2771 C2765 0.959 . S
H2772 C2765 0.961 . S
H2773 C2765 0.960 . S
H2774 C2766 0.930 . S
H2775 C2767 0.929 . S
H2776 C2784 0.929 . S
H2777 C2786 0.930 . S
H2778 C2788 0.930 . S
H2779 C2791 0.929 . S
H2780 C2794 0.930 . S
H2781 C2796 0.960 1_554 S
H2782 C2796 0.960 . S
H2783 C2796 0.955 1_554 S
C2784 H2776 0.929 . S
C2784 C2785 1.377 . S
C2784 C2786 1.384 . S
C2785 C2784 1.377 . S
C2785 C2791 1.390 . S
C2786 H2777 0.930 . S
C2786 C2784 1.384 . S
C2786 C2787 1.372 . S
C2787 C2786 1.372 . S
C2787 C2788 1.400 . S
C2787 C2792 1.490 . S
C2788 H2778 0.930 . S
C2788 C2787 1.400 . S
C2788 C2791 1.386 . S
H2789 C2805 0.930 . S
H2790 C2806 0.931 . S
C2791 H2779 0.929 . S
C2791 C2785 1.390 . S
C2791 C2788 1.386 . S
C2792 C2787 1.490 . S
C2792 C2794 1.395 . S
C2792 C2795 1.403 . S
H2793 C2799 0.930 1_554 S
C2794 H2780 0.930 . S
C2794 C2792 1.395 . S
C2794 C2797 1.403 . S
C2795 C2792 1.403 . S
C2795 C2796 1.524 . S
C2795 C2799 1.400 . S
C2796 H2781 0.960 1_556 S
C2796 H2782 0.960 . S
C2796 H2783 0.955 1_556 S
C2796 C2795 1.524 . S
C2797 C2794 1.403 . S
C2797 C2798 1.392 . S
C2797 C2801 1.495 . S
C2798 C2797 1.392 . S
C2798 C2799 1.385 . S
C2798 C2800 1.478 1_556 S
C2799 H2793 0.930 1_556 S
C2799 C2795 1.400 . S
C2799 C2798 1.385 . S
C2800 C2798 1.478 1_554 S
C2800 C2802 1.381 1_554 S
C2800 C2806 1.383 . S
C2801 C2797 1.495 . S
C2801 H2807 0.959 . S
C2801 H2808 0.961 . S
C2801 H2809 0.960 . S
C2802 C2800 1.381 1_556 S
C2802 C2803 1.394 1_556 S
C2802 H2810 0.930 . S
C2803 C2802 1.394 1_554 S
C2803 C2804 1.383 . S
C2803 H2811 0.929 . S
C2804 C2803 1.383 . S
C2804 C2805 1.377 . S
C2805 H2789 0.930 . S
C2805 C2804 1.377 . S
C2805 C2806 1.379 . S
C2806 H2790 0.931 . S
C2806 C2800 1.383 . S
C2806 C2805 1.379 . S
H2807 C2801 0.959 . S
H2808 C2801 0.961 . S
H2809 C2801 0.960 . S
H2810 C2802 0.930 . S
H2811 C2803 0.929 . S
H2812 C2820 0.929 . S
H2813 C2822 0.930 . S
H2814 C2824 0.930 . S
H2815 C2827 0.929 . S
H2816 C2830 0.930 . S
H2817 C2832 0.960 . S
H2818 C2832 0.960 . S
H2819 C2832 0.960 . S
C2820 H2812 0.929 . S
C2820 C2821 1.377 . S
C2820 C2822 1.384 1_455 S
C2821 C2820 1.377 . S
C2821 C2827 1.390 . S
C2822 H2813 0.930 . S
C2822 C2820 1.384 1_655 S
C2822 C2823 1.372 . S
C2823 C2822 1.372 . S
C2823 C2824 1.400 . S
C2823 C2828 1.490 . S
C2824 H2814 0.930 . S
C2824 C2823 1.400 . S
C2824 C2827 1.386 1_655 S
H2825 C2841 0.930 . S
H2826 C2842 0.931 . S
C2827 H2815 0.929 . S
C2827 C2821 1.390 . S
C2827 C2824 1.386 1_455 S
C2828 C2823 1.490 . S
C2828 C2830 1.395 . S
C2828 C2831 1.403 . S
H2829 C2835 0.930 . S
C2830 H2816 0.930 . S
C2830 C2828 1.395 . S
C2830 C2833 1.403 . S
C2831 C2828 1.403 . S
C2831 C2832 1.524 . S
C2831 C2835 1.400 . S
C2832 H2817 0.960 . S
C2832 H2818 0.960 . S
C2832 H2819 0.960 . S
C2832 C2831 1.524 . S
C2833 C2830 1.403 . S
C2833 C2834 1.392 . S
C2833 C2837 1.495 . S
C2834 C2833 1.392 . S
C2834 C2835 1.385 . S
C2834 C2836 1.478 . S
C2835 H2829 0.930 . S
C2835 C2831 1.400 . S
C2835 C2834 1.385 . S
C2836 C2834 1.478 . S
C2836 C2838 1.381 . S
C2836 C2842 1.383 . S
C2837 C2833 1.495 . S
C2837 H2843 0.959 . S
C2837 H2844 0.961 . S
C2837 H2845 0.960 . S
C2838 C2836 1.381 . S
C2838 C2839 1.394 . S
C2838 H2846 0.930 . S
C2839 C2838 1.394 . S
C2839 C2840 1.383 . S
C2839 H2847 0.929 . S
C2840 C2839 1.383 . S
C2840 C2841 1.377 . S
C2841 H2825 0.930 . S
C2841 C2840 1.377 . S
C2841 C2842 1.379 . S
C2842 H2826 0.931 . S
C2842 C2836 1.383 . S
C2842 C2841 1.379 . S
H2843 C2837 0.959 . S
H2844 C2837 0.961 . S
H2845 C2837 0.960 . S
H2846 C2838 0.930 . S
H2847 C2839 0.929 . S
H2848 C2856 0.929 . S
H2849 C2858 0.930 . S
H2850 C2860 0.930 . S
H2851 C2863 0.929 . S
H2852 C2866 0.930 . S
H2853 C2868 0.960 . S
H2854 C2868 0.960 . S
H2855 C2868 0.960 . S
C2856 H2848 0.929 . S
C2856 C2857 1.377 . S
C2856 C2858 1.384 . S
C2857 C2856 1.377 . S
C2857 C2863 1.390 . S
C2858 H2849 0.930 . S
C2858 C2856 1.384 . S
C2858 C2859 1.372 . S
C2859 C2858 1.372 . S
C2859 C2860 1.400 . S
C2859 C2864 1.490 . S
C2860 H2850 0.930 . S
C2860 C2859 1.400 . S
C2860 C2863 1.386 . S
H2861 C2877 0.930 . S
H2862 C2878 0.931 . S
C2863 H2851 0.929 . S
C2863 C2857 1.390 . S
C2863 C2860 1.386 . S
C2864 C2859 1.490 . S
C2864 C2866 1.395 . S
C2864 C2867 1.403 . S
H2865 C2871 0.930 . S
C2866 H2852 0.930 . S
C2866 C2864 1.395 . S
C2866 C2869 1.403 . S
C2867 C2864 1.403 . S
C2867 C2868 1.524 . S
C2867 C2871 1.400 . S
C2868 H2853 0.960 . S
C2868 H2854 0.960 . S
C2868 H2855 0.960 . S
C2868 C2867 1.524 . S
C2869 C2866 1.403 . S
C2869 C2870 1.392 . S
C2869 C2873 1.495 . S
C2870 C2869 1.392 . S
C2870 C2871 1.385 . S
C2870 C2872 1.478 . S
C2871 H2865 0.930 . S
C2871 C2867 1.400 . S
C2871 C2870 1.385 . S
C2872 C2870 1.478 . S
C2872 C2874 1.381 . S
C2872 C2878 1.383 . S
C2873 C2869 1.495 . S
C2873 H2879 0.959 . S
C2873 H2880 0.961 . S
C2873 H2881 0.960 . S
C2874 C2872 1.381 . S
C2874 C2875 1.394 . S
C2874 H2882 0.930 . S
C2875 C2874 1.394 . S
C2875 C2876 1.383 . S
C2875 H2883 0.929 . S
C2876 C2875 1.383 . S
C2876 C2877 1.377 . S
C2877 H2861 0.930 . S
C2877 C2876 1.377 . S
C2877 C2878 1.379 . S
C2878 H2862 0.931 . S
C2878 C2872 1.383 . S
C2878 C2877 1.379 . S
H2879 C2873 0.959 . S
H2880 C2873 0.961 . S
H2881 C2873 0.960 . S
H2882 C2874 0.930 . S
H2883 C2875 0.929 . S
H2884 C2892 0.929 . S
H2885 C2894 0.930 . S
H2886 C2896 0.930 . S
H2887 C2899 0.929 . S
H2888 C2902 0.930 1_455 S
H2889 C2904 0.960 . S
H2890 C2904 0.960 . S
H2891 C2904 0.960 . S
C2892 H2884 0.929 . S
C2892 C2893 1.377 . S
C2892 C2894 1.384 . S
C2893 C2892 1.377 . S
C2893 C2899 1.390 . S
C2894 H2885 0.930 . S
C2894 C2892 1.384 . S
C2894 C2895 1.372 . S
C2895 C2894 1.372 . S
C2895 C2896 1.400 . S
C2895 C2900 1.490 1_455 S
C2896 H2886 0.930 . S
C2896 C2895 1.400 . S
C2896 C2899 1.386 . S
H2897 C2913 0.930 . S
H2898 C2914 0.931 . S
C2899 H2887 0.929 . S
C2899 C2893 1.390 . S
C2899 C2896 1.386 . S
C2900 C2895 1.490 1_655 S
C2900 C2902 1.395 . S
C2900 C2903 1.403 . S
H2901 C2907 0.930 . S
C2902 H2888 0.930 1_655 S
C2902 C2900 1.395 . S
C2902 C2905 1.403 . S
C2903 C2900 1.403 . S
C2903 C2904 1.524 . S
C2903 C2907 1.400 . S
C2904 H2889 0.960 . S
C2904 H2890 0.960 . S
C2904 H2891 0.960 . S
C2904 C2903 1.524 . S
C2905 C2902 1.403 . S
C2905 C2906 1.392 . S
C2905 C2909 1.495 . S
C2906 C2905 1.392 . S
C2906 C2907 1.385 . S
C2906 C2908 1.478 . S
C2907 H2901 0.930 . S
C2907 C2903 1.400 . S
C2907 C2906 1.385 . S
C2908 C2906 1.478 . S
C2908 C2910 1.381 . S
C2908 C2914 1.383 . S
C2909 C2905 1.495 . S
C2909 H2915 0.959 . S
C2909 H2916 0.961 . S
C2909 H2917 0.960 . S
C2910 C2908 1.381 . S
C2910 C2911 1.394 . S
C2910 H2918 0.930 . S
C2911 C2910 1.394 . S
C2911 C2912 1.383 . S
C2911 H2919 0.929 . S
C2912 C2911 1.383 . S
C2912 C2913 1.377 . S
C2913 H2897 0.930 . S
C2913 C2912 1.377 . S
C2913 C2914 1.379 . S
C2914 H2898 0.931 . S
C2914 C2908 1.383 . S
C2914 C2913 1.379 . S
H2915 C2909 0.959 . S
H2916 C2909 0.961 . S
H2917 C2909 0.960 . S
H2918 C2910 0.930 . S
H2919 C2911 0.929 . S
H2920 C2928 0.929 . S
H2921 C2930 0.930 . S
H2922 C2932 0.930 . S
H2923 C2935 0.929 . S
H2924 C2938 0.930 1_655 S
H2925 C2940 0.960 . S
H2926 C2940 0.960 . S
H2927 C2940 0.960 . S
C2928 H2920 0.929 . S
C2928 C2929 1.377 . S
C2928 C2930 1.384 . S
C2929 C2928 1.377 . S
C2929 C2935 1.390 1_655 S
C2930 H2921 0.930 . S
C2930 C2928 1.384 . S
C2930 C2931 1.372 1_655 S
C2931 C2930 1.372 1_455 S
C2931 C2932 1.400 . S
C2931 C2936 1.490 . S
C2932 H2922 0.930 . S
C2932 C2931 1.400 . S
C2932 C2935 1.386 . S
H2933 C2949 0.930 . S
H2934 C2950 0.931 . S
C2935 H2923 0.929 . S
C2935 C2929 1.390 1_455 S
C2935 C2932 1.386 . S
C2936 C2931 1.490 . S
C2936 C2938 1.395 . S
C2936 C2939 1.403 . S
H2937 C2943 0.930 . S
C2938 H2924 0.930 1_455 S
C2938 C2936 1.395 . S
C2938 C2941 1.403 . S
C2939 C2936 1.403 . S
C2939 C2940 1.524 . S
C2939 C2943 1.400 . S
C2940 H2925 0.960 . S
C2940 H2926 0.960 . S
C2940 H2927 0.960 . S
C2940 C2939 1.524 . S
C2941 C2938 1.403 . S
C2941 C2942 1.392 . S
C2941 C2945 1.495 1_455 S
C2942 C2941 1.392 . S
C2942 C2943 1.385 . S
C2942 C2944 1.478 . S
C2943 H2937 0.930 . S
C2943 C2939 1.400 . S
C2943 C2942 1.385 . S
C2944 C2942 1.478 . S
C2944 C2946 1.381 . S
C2944 C2950 1.383 . S
C2945 C2941 1.495 1_655 S
C2945 H2951 0.959 . S
C2945 H2952 0.961 1_655 S
C2945 H2953 0.960 . S
C2946 C2944 1.381 . S
C2946 C2947 1.394 . S
C2946 H2954 0.930 1_455 S
C2947 C2946 1.394 . S
C2947 C2948 1.383 . S
C2947 H2955 0.929 . S
C2948 C2947 1.383 . S
C2948 C2949 1.377 . S
C2949 H2933 0.930 . S
C2949 C2948 1.377 . S
C2949 C2950 1.379 . S
C2950 H2934 0.931 . S
C2950 C2944 1.383 . S
C2950 C2949 1.379 . S
H2951 C2945 0.959 . S
H2952 C2945 0.961 1_455 S
H2953 C2945 0.960 . S
H2954 C2946 0.930 1_655 S
H2955 C2947 0.929 . S
H2956 C2964 0.929 . S
H2957 C2966 0.930 . S
H2958 C2968 0.930 . S
H2959 C2971 0.929 . S
H2960 C2974 0.930 . S
H2961 C2976 0.960 . S
H2962 C2976 0.960 . S
H2963 C2976 0.960 . S
C2964 H2956 0.929 . S
C2964 C2965 1.377 . S
C2964 C2966 1.384 . S
C2965 C2964 1.377 . S
C2965 C2971 1.390 . S
C2966 H2957 0.930 . S
C2966 C2964 1.384 . S
C2966 C2967 1.372 . S
C2967 C2966 1.372 . S
C2967 C2968 1.400 . S
C2967 C2972 1.490 . S
C2968 H2958 0.930 . S
C2968 C2967 1.400 . S
C2968 C2971 1.386 . S
H2969 C2985 0.930 . S
H2970 C2986 0.931 . S
C2971 H2959 0.929 . S
C2971 C2965 1.390 . S
C2971 C2968 1.386 . S
C2972 C2967 1.490 . S
C2972 C2974 1.395 . S
C2972 C2975 1.403 . S
H2973 C2979 0.930 . S
C2974 H2960 0.930 . S
C2974 C2972 1.395 . S
C2974 C2977 1.403 . S
C2975 C2972 1.403 . S
C2975 C2976 1.524 . S
C2975 C2979 1.400 . S
C2976 H2961 0.960 . S
C2976 H2962 0.960 . S
C2976 H2963 0.960 . S
C2976 C2975 1.524 . S
C2977 C2974 1.403 . S
C2977 C2978 1.392 . S
C2977 C2981 1.495 . S
C2978 C2977 1.392 . S
C2978 C2979 1.385 . S
C2978 C2980 1.478 . S
C2979 H2973 0.930 . S
C2979 C2975 1.400 . S
C2979 C2978 1.385 . S
C2980 C2978 1.478 . S
C2980 C2982 1.381 . S
C2980 C2986 1.383 . S
C2981 C2977 1.495 . S
C2981 H2987 0.959 . S
C2981 H2988 0.961 . S
C2981 H2989 0.960 . S
C2982 C2980 1.381 . S
C2982 C2983 1.394 . S
C2982 H2990 0.930 . S
C2983 C2982 1.394 . S
C2983 C2984 1.383 . S
C2983 H2991 0.929 . S
C2984 C2983 1.383 . S
C2984 C2985 1.377 . S
C2985 H2969 0.930 . S
C2985 C2984 1.377 . S
C2985 C2986 1.379 . S
C2986 H2970 0.931 . S
C2986 C2980 1.383 . S
C2986 C2985 1.379 . S
H2987 C2981 0.959 . S
H2988 C2981 0.961 . S
H2989 C2981 0.960 . S
H2990 C2982 0.930 . S
H2991 C2983 0.929 . S
H2992 C3000 0.929 . S
H2993 C3002 0.930 . S
H2994 C3004 0.930 . S
H2995 C3007 0.929 . S
H2996 C3010 0.930 . S
H2997 C3012 0.960 . S
H2998 C3012 0.960 . S
H2999 C3012 0.960 . S
C3000 H2992 0.929 . S
C3000 C3001 1.377 . S
C3000 C3002 1.384 . S
C3001 C3000 1.377 . S
C3001 C3007 1.390 . S
C3002 H2993 0.930 . S
C3002 C3000 1.384 . S
C3002 C3003 1.372 . S
C3003 C3002 1.372 . S
C3003 C3004 1.400 . S
C3003 C3008 1.490 . S
C3004 H2994 0.930 . S
C3004 C3003 1.400 . S
C3004 C3007 1.386 . S
H3005 C3021 0.930 . S
H3006 C3022 0.931 . S
C3007 H2995 0.929 . S
C3007 C3001 1.390 . S
C3007 C3004 1.386 . S
C3008 C3003 1.490 . S
C3008 C3010 1.395 . S
C3008 C3011 1.403 . S
H3009 C3015 0.930 . S
C3010 H2996 0.930 . S
C3010 C3008 1.395 . S
C3010 C3013 1.403 . S
C3011 C3008 1.403 . S
C3011 C3012 1.524 . S
C3011 C3015 1.400 . S
C3012 H2997 0.960 . S
C3012 H2998 0.960 . S
C3012 H2999 0.960 . S
C3012 C3011 1.524 . S
C3013 C3010 1.403 . S
C3013 C3014 1.392 . S
C3013 C3017 1.495 . S
C3014 C3013 1.392 . S
C3014 C3015 1.385 . S
C3014 C3016 1.478 . S
C3015 H3009 0.930 . S
C3015 C3011 1.400 . S
C3015 C3014 1.385 . S
C3016 C3014 1.478 . S
C3016 C3018 1.381 . S
C3016 C3022 1.383 . S
C3017 C3013 1.495 . S
C3017 H3023 0.959 . S
C3017 H3024 0.961 . S
C3017 H3025 0.960 . S
C3018 C3016 1.381 . S
C3018 C3019 1.394 . S
C3018 H3026 0.930 . S
C3019 C3018 1.394 . S
C3019 C3020 1.383 . S
C3019 H3027 0.929 . S
C3020 C3019 1.383 . S
C3020 C3021 1.377 . S
C3021 H3005 0.930 . S
C3021 C3020 1.377 . S
C3021 C3022 1.379 . S
C3022 H3006 0.931 . S
C3022 C3016 1.383 . S
C3022 C3021 1.379 . S
H3023 C3017 0.959 . S
H3024 C3017 0.961 . S
H3025 C3017 0.960 . S
H3026 C3018 0.930 . S
H3027 C3019 0.929 . S
H3028 C3036 0.929 . S
H3029 C3038 0.930 . S
H3030 C3040 0.930 . S
H3031 C3043 0.929 . S
H3032 C3046 0.930 . S
H3033 C3048 0.960 . S
H3034 C3048 0.960 . S
H3035 C3048 0.960 . S
C3036 H3028 0.929 . S
C3036 C3037 1.377 . S
C3036 C3038 1.384 . S
C3037 C3036 1.377 . S
C3037 C3043 1.390 . S
C3038 H3029 0.930 . S
C3038 C3036 1.384 . S
C3038 C3039 1.372 . S
C3039 C3038 1.372 . S
C3039 C3040 1.400 . S
C3039 C3044 1.490 . S
C3040 H3030 0.930 . S
C3040 C3039 1.400 . S
C3040 C3043 1.386 . S
H3041 C3057 0.930 . S
H3042 C3058 0.931 . S
C3043 H3031 0.929 . S
C3043 C3037 1.390 . S
C3043 C3040 1.386 . S
C3044 C3039 1.490 . S
C3044 C3046 1.395 . S
C3044 C3047 1.403 . S
H3045 C3051 0.930 . S
C3046 H3032 0.930 . S
C3046 C3044 1.395 . S
C3046 C3049 1.403 . S
C3047 C3044 1.403 . S
C3047 C3048 1.524 . S
C3047 C3051 1.400 . S
C3048 H3033 0.960 . S
C3048 H3034 0.960 . S
C3048 H3035 0.960 . S
C3048 C3047 1.524 . S
C3049 C3046 1.403 . S
C3049 C3050 1.392 . S
C3049 C3053 1.495 . S
C3050 C3049 1.392 . S
C3050 C3051 1.385 . S
C3050 C3052 1.478 . S
C3051 H3045 0.930 . S
C3051 C3047 1.400 . S
C3051 C3050 1.385 . S
C3052 C3050 1.478 . S
C3052 C3054 1.381 . S
C3052 C3058 1.383 . S
C3053 C3049 1.495 . S
C3053 H3059 0.959 . S
C3053 H3060 0.961 . S
C3053 H3061 0.960 . S
C3054 C3052 1.381 . S
C3054 C3055 1.394 . S
C3054 H3062 0.930 . S
C3055 C3054 1.394 . S
C3055 C3056 1.383 . S
C3055 H3063 0.929 . S
C3056 C3055 1.383 . S
C3056 C3057 1.377 . S
C3057 H3041 0.930 . S
C3057 C3056 1.377 . S
C3057 C3058 1.379 . S
C3058 H3042 0.931 . S
C3058 C3052 1.383 . S
C3058 C3057 1.379 . S
H3059 C3053 0.959 . S
H3060 C3053 0.961 . S
H3061 C3053 0.960 . S
H3062 C3054 0.930 . S
H3063 C3055 0.929 . S
H3064 C3072 0.929 . S
H3065 C3074 0.930 . S
H3066 C3076 0.930 . S
H3067 C3079 0.929 . S
H3068 C3082 0.930 . S
H3069 C3084 0.960 . S
H3070 C3084 0.960 . S
H3071 C3084 0.960 . S
C3072 H3064 0.929 . S
C3072 C3073 1.377 . S
C3072 C3074 1.384 . S
C3073 C3072 1.377 . S
C3073 C3079 1.390 . S
C3074 H3065 0.930 . S
C3074 C3072 1.384 . S
C3074 C3075 1.372 . S
C3075 C3074 1.372 . S
C3075 C3076 1.400 . S
C3075 C3080 1.490 . S
C3076 H3066 0.930 . S
C3076 C3075 1.400 . S
C3076 C3079 1.386 . S
H3077 C3093 0.930 . S
H3078 C3094 0.931 . S
C3079 H3067 0.929 . S
C3079 C3073 1.390 . S
C3079 C3076 1.386 . S
C3080 C3075 1.490 . S
C3080 C3082 1.395 . S
C3080 C3083 1.403 . S
H3081 C3087 0.930 . S
C3082 H3068 0.930 . S
C3082 C3080 1.395 . S
C3082 C3085 1.403 . S
C3083 C3080 1.403 . S
C3083 C3084 1.524 . S
C3083 C3087 1.400 . S
C3084 H3069 0.960 . S
C3084 H3070 0.960 . S
C3084 H3071 0.960 . S
C3084 C3083 1.524 . S
C3085 C3082 1.403 . S
C3085 C3086 1.392 . S
C3085 C3089 1.495 . S
C3086 C3085 1.392 . S
C3086 C3087 1.385 . S
C3086 C3088 1.478 . S
C3087 H3081 0.930 . S
C3087 C3083 1.400 . S
C3087 C3086 1.385 . S
C3088 C3086 1.478 . S
C3088 C3090 1.381 . S
C3088 C3094 1.383 . S
C3089 C3085 1.495 . S
C3089 H3095 0.959 . S
C3089 H3096 0.961 . S
C3089 H3097 0.960 . S
C3090 C3088 1.381 . S
C3090 C3091 1.394 . S
C3090 H3098 0.930 . S
C3091 C3090 1.394 . S
C3091 C3092 1.383 . S
C3091 H3099 0.929 . S
C3092 C3091 1.383 . S
C3092 C3093 1.377 . S
C3093 H3077 0.930 . S
C3093 C3092 1.377 . S
C3093 C3094 1.379 . S
C3094 H3078 0.931 . S
C3094 C3088 1.383 . S
C3094 C3093 1.379 . S
H3095 C3089 0.959 . S
H3096 C3089 0.961 . S
H3097 C3089 0.960 . S
H3098 C3090 0.930 . S
H3099 C3091 0.929 . S
H3100 C3108 0.929 . S
H3101 C3110 0.930 . S
H3102 C3112 0.930 . S
H3103 C3115 0.929 . S
H3104 C3118 0.930 . S
H3105 C3120 0.960 . S
H3106 C3120 0.960 . S
H3107 C3120 0.960 . S
C3108 H3100 0.929 . S
C3108 C3109 1.377 . S
C3108 C3110 1.384 . S
C3109 C3108 1.377 . S
C3109 C3115 1.390 . S
C3110 H3101 0.930 . S
C3110 C3108 1.384 . S
C3110 C3111 1.372 . S
C3111 C3110 1.372 . S
C3111 C3112 1.400 . S
C3111 C3116 1.490 . S
C3112 H3102 0.930 . S
C3112 C3111 1.400 . S
C3112 C3115 1.386 . S
H3113 C3129 0.930 . S
H3114 C3130 0.931 . S
C3115 H3103 0.929 . S
C3115 C3109 1.390 . S
C3115 C3112 1.386 . S
C3116 C3111 1.490 . S
C3116 C3118 1.395 . S
C3116 C3119 1.403 . S
H3117 C3123 0.930 . S
C3118 H3104 0.930 . S
C3118 C3116 1.395 . S
C3118 C3121 1.403 . S
C3119 C3116 1.403 . S
C3119 C3120 1.524 . S
C3119 C3123 1.400 . S
C3120 H3105 0.960 . S
C3120 H3106 0.960 . S
C3120 H3107 0.960 . S
C3120 C3119 1.524 . S
C3121 C3118 1.403 . S
C3121 C3122 1.392 . S
C3121 C3125 1.495 . S
C3122 C3121 1.392 . S
C3122 C3123 1.385 . S
C3122 C3124 1.478 . S
C3123 H3117 0.930 . S
C3123 C3119 1.400 . S
C3123 C3122 1.385 . S
C3124 C3122 1.478 . S
C3124 C3126 1.381 . S
C3124 C3130 1.383 . S
C3125 C3121 1.495 . S
C3125 H3131 0.959 . S
C3125 H3132 0.961 . S
C3125 H3133 0.960 . S
C3126 C3124 1.381 . S
C3126 C3127 1.394 . S
C3126 H3134 0.930 . S
C3127 C3126 1.394 . S
C3127 C3128 1.383 . S
C3127 H3135 0.929 . S
C3128 C3127 1.383 . S
C3128 C3129 1.377 . S
C3129 H3113 0.930 . S
C3129 C3128 1.377 . S
C3129 C3130 1.379 . S
C3130 H3114 0.931 . S
C3130 C3124 1.383 . S
C3130 C3129 1.379 . S
H3131 C3125 0.959 . S
H3132 C3125 0.961 . S
H3133 C3125 0.960 . S
H3134 C3126 0.930 . S
H3135 C3127 0.929 . S
H3136 C3144 0.929 . S
H3137 C3146 0.930 . S
H3138 C3148 0.930 . S
H3139 C3151 0.929 . S
H3140 C3154 0.930 . S
H3141 C3156 0.960 . S
H3142 C3156 0.960 . S
H3143 C3156 0.960 . S
C3144 H3136 0.929 . S
C3144 C3145 1.377 . S
C3144 C3146 1.384 . S
C3145 C3144 1.377 . S
C3145 C3151 1.390 . S
C3146 H3137 0.930 . S
C3146 C3144 1.384 . S
C3146 C3147 1.372 . S
C3147 C3146 1.372 . S
C3147 C3148 1.400 . S
C3147 C3152 1.490 . S
C3148 H3138 0.930 . S
C3148 C3147 1.400 . S
C3148 C3151 1.386 . S
H3149 C3165 0.930 . S
H3150 C3166 0.931 . S
C3151 H3139 0.929 . S
C3151 C3145 1.390 . S
C3151 C3148 1.386 . S
C3152 C3147 1.490 . S
C3152 C3154 1.395 . S
C3152 C3155 1.403 . S
H3153 C3159 0.930 . S
C3154 H3140 0.930 . S
C3154 C3152 1.395 . S
C3154 C3157 1.403 . S
C3155 C3152 1.403 . S
C3155 C3156 1.524 . S
C3155 C3159 1.400 . S
C3156 H3141 0.960 . S
C3156 H3142 0.960 . S
C3156 H3143 0.960 . S
C3156 C3155 1.524 . S
C3157 C3154 1.403 . S
C3157 C3158 1.392 . S
C3157 C3161 1.495 . S
C3158 C3157 1.392 . S
C3158 C3159 1.385 . S
C3158 C3160 1.478 . S
C3159 H3153 0.930 . S
C3159 C3155 1.400 . S
C3159 C3158 1.385 . S
C3160 C3158 1.478 . S
C3160 C3162 1.381 . S
C3160 C3166 1.383 . S
C3161 C3157 1.495 . S
C3161 H3167 0.959 . S
C3161 H3168 0.961 . S
C3161 H3169 0.960 . S
C3162 C3160 1.381 . S
C3162 C3163 1.394 . S
C3162 H3170 0.930 . S
C3163 C3162 1.394 . S
C3163 C3164 1.383 . S
C3163 H3171 0.929 . S
C3164 C3163 1.383 . S
C3164 C3165 1.377 . S
C3165 H3149 0.930 . S
C3165 C3164 1.377 . S
C3165 C3166 1.379 . S
C3166 H3150 0.931 . S
C3166 C3160 1.383 . S
C3166 C3165 1.379 . S
H3167 C3161 0.959 . S
H3168 C3161 0.961 . S
H3169 C3161 0.960 . S
H3170 C3162 0.930 . S
H3171 C3163 0.929 . S
H3172 C3180 0.929 . S
H3173 C3182 0.930 . S
H3174 C3184 0.930 . S
H3175 C3187 0.929 . S
H3176 C3190 0.930 . S
H3177 C3192 0.960 . S
H3178 C3192 0.960 . S
H3179 C3192 0.960 . S
C3180 H3172 0.929 . S
C3180 C3181 1.377 . S
C3180 C3182 1.384 . S
C3181 C3180 1.377 . S
C3181 C3187 1.390 . S
C3182 H3173 0.930 . S
C3182 C3180 1.384 . S
C3182 C3183 1.372 . S
C3183 C3182 1.372 . S
C3183 C3184 1.400 . S
C3183 C3188 1.490 . S
C3184 H3174 0.930 . S
C3184 C3183 1.400 . S
C3184 C3187 1.386 . S
H3185 C3201 0.930 . S
H3186 C3202 0.931 . S
C3187 H3175 0.929 . S
C3187 C3181 1.390 . S
C3187 C3184 1.386 . S
C3188 C3183 1.490 . S
C3188 C3190 1.395 . S
C3188 C3191 1.403 . S
H3189 C3195 0.930 . S
C3190 H3176 0.930 . S
C3190 C3188 1.395 . S
C3190 C3193 1.403 . S
C3191 C3188 1.403 . S
C3191 C3192 1.524 . S
C3191 C3195 1.400 . S
C3192 H3177 0.960 . S
C3192 H3178 0.960 . S
C3192 H3179 0.960 . S
C3192 C3191 1.524 . S
C3193 C3190 1.403 . S
C3193 C3194 1.392 . S
C3193 C3197 1.495 . S
C3194 C3193 1.392 . S
C3194 C3195 1.385 . S
C3194 C3196 1.478 . S
C3195 H3189 0.930 . S
C3195 C3191 1.400 . S
C3195 C3194 1.385 . S
C3196 C3194 1.478 . S
C3196 C3198 1.381 . S
C3196 C3202 1.383 . S
C3197 C3193 1.495 . S
C3197 H3203 0.959 . S
C3197 H3204 0.961 . S
C3197 H3205 0.960 . S
C3198 C3196 1.381 . S
C3198 C3199 1.394 . S
C3198 H3206 0.930 . S
C3199 C3198 1.394 . S
C3199 C3200 1.383 . S
C3199 H3207 0.929 . S
C3200 C3199 1.383 . S
C3200 C3201 1.377 . S
C3201 H3185 0.930 . S
C3201 C3200 1.377 . S
C3201 C3202 1.379 . S
C3202 H3186 0.931 . S
C3202 C3196 1.383 . S
C3202 C3201 1.379 . S
H3203 C3197 0.959 . S
H3204 C3197 0.961 . S
H3205 C3197 0.960 . S
H3206 C3198 0.930 . S
H3207 C3199 0.929 . S
H3208 C3216 0.929 . S
H3209 C3218 0.930 . S
H3210 C3220 0.930 . S
H3211 C3223 0.929 . S
H3212 C3226 0.930 . S
H3213 C3228 0.960 . S
H3214 C3228 0.960 . S
H3215 C3228 0.960 . S
C3216 H3208 0.929 . S
C3216 C3217 1.377 . S
C3216 C3218 1.384 . S
C3217 C3216 1.377 . S
C3217 C3223 1.390 . S
C3218 H3209 0.930 . S
C3218 C3216 1.384 . S
C3218 C3219 1.372 . S
C3219 C3218 1.372 . S
C3219 C3220 1.400 . S
C3219 C3224 1.490 . S
C3220 H3210 0.930 . S
C3220 C3219 1.400 . S
C3220 C3223 1.386 . S
H3221 C3237 0.930 . S
H3222 C3238 0.931 . S
C3223 H3211 0.929 . S
C3223 C3217 1.390 . S
C3223 C3220 1.386 . S
C3224 C3219 1.490 . S
C3224 C3226 1.395 . S
C3224 C3227 1.403 . S
H3225 C3231 0.930 . S
C3226 H3212 0.930 . S
C3226 C3224 1.395 . S
C3226 C3229 1.403 . S
C3227 C3224 1.403 . S
C3227 C3228 1.524 . S
C3227 C3231 1.400 . S
C3228 H3213 0.960 . S
C3228 H3214 0.960 . S
C3228 H3215 0.960 . S
C3228 C3227 1.524 . S
C3229 C3226 1.403 . S
C3229 C3230 1.392 . S
C3229 C3233 1.495 . S
C3230 C3229 1.392 . S
C3230 C3231 1.385 . S
C3230 C3232 1.478 . S
C3231 H3225 0.930 . S
C3231 C3227 1.400 . S
C3231 C3230 1.385 . S
C3232 C3230 1.478 . S
C3232 C3234 1.381 . S
C3232 C3238 1.383 . S
C3233 C3229 1.495 . S
C3233 H3239 0.959 . S
C3233 H3240 0.961 . S
C3233 H3241 0.960 . S
C3234 C3232 1.381 . S
C3234 C3235 1.394 . S
C3234 H3242 0.930 . S
C3235 C3234 1.394 . S
C3235 C3236 1.383 . S
C3235 H3243 0.929 . S
C3236 C3235 1.383 . S
C3236 C3237 1.377 . S
C3237 H3221 0.930 . S
C3237 C3236 1.377 . S
C3237 C3238 1.379 . S
C3238 H3222 0.931 . S
C3238 C3232 1.383 . S
C3238 C3237 1.379 . S
H3239 C3233 0.959 . S
H3240 C3233 0.961 . S
H3241 C3233 0.960 . S
H3242 C3234 0.930 . S
H3243 C3235 0.929 . S
H3244 C3252 0.929 . S
H3245 C3254 0.930 . S
H3246 C3256 0.930 . S
H3247 C3259 0.929 . S
H3248 C3262 0.930 . S
H3249 C3264 0.960 . S
H3250 C3264 0.960 . S
H3251 C3264 0.960 . S
C3252 H3244 0.929 . S
C3252 C3253 1.377 . S
C3252 C3254 1.384 . S
C3253 C3252 1.377 . S
C3253 C3259 1.390 . S
C3254 H3245 0.930 . S
C3254 C3252 1.384 . S
C3254 C3255 1.372 . S
C3255 C3254 1.372 . S
C3255 C3256 1.400 . S
C3255 C3260 1.490 . S
C3256 H3246 0.930 . S
C3256 C3255 1.400 . S
C3256 C3259 1.386 . S
H3257 C3273 0.930 . S
H3258 C3274 0.931 . S
C3259 H3247 0.929 . S
C3259 C3253 1.390 . S
C3259 C3256 1.386 . S
C3260 C3255 1.490 . S
C3260 C3262 1.395 . S
C3260 C3263 1.403 . S
H3261 C3267 0.930 . S
C3262 H3248 0.930 . S
C3262 C3260 1.395 . S
C3262 C3265 1.403 . S
C3263 C3260 1.403 . S
C3263 C3264 1.524 . S
C3263 C3267 1.400 . S
C3264 H3249 0.960 . S
C3264 H3250 0.960 . S
C3264 H3251 0.960 . S
C3264 C3263 1.524 . S
C3265 C3262 1.403 . S
C3265 C3266 1.392 . S
C3265 C3269 1.495 . S
C3266 C3265 1.392 . S
C3266 C3267 1.385 . S
C3266 C3268 1.478 . S
C3267 H3261 0.930 . S
C3267 C3263 1.400 . S
C3267 C3266 1.385 . S
C3268 C3266 1.478 . S
C3268 C3270 1.381 . S
C3268 C3274 1.383 . S
C3269 C3265 1.495 . S
C3269 H3275 0.959 . S
C3269 H3276 0.961 . S
C3269 H3277 0.960 . S
C3270 C3268 1.381 . S
C3270 C3271 1.394 . S
C3270 H3278 0.930 . S
C3271 C3270 1.394 . S
C3271 C3272 1.383 . S
C3271 H3279 0.929 . S
C3272 C3271 1.383 . S
C3272 C3273 1.377 . S
C3273 H3257 0.930 . S
C3273 C3272 1.377 . S
C3273 C3274 1.379 . S
C3274 H3258 0.931 . S
C3274 C3268 1.383 . S
C3274 C3273 1.379 . S
H3275 C3269 0.959 . S
H3276 C3269 0.961 . S
H3277 C3269 0.960 . S
H3278 C3270 0.930 . S
H3279 C3271 0.929 . S
H3280 C3288 0.929 . S
H3281 C3290 0.930 . S
H3282 C3292 0.930 . S
H3283 C3295 0.929 . S
H3284 C3298 0.930 . S
H3285 C3300 0.960 . S
H3286 C3300 0.960 . S
H3287 C3300 0.960 . S
C3288 H3280 0.929 . S
C3288 C3289 1.377 . S
C3288 C3290 1.384 . S
C3289 C3288 1.377 . S
C3289 C3295 1.390 . S
C3290 H3281 0.930 . S
C3290 C3288 1.384 . S
C3290 C3291 1.372 . S
C3291 C3290 1.372 . S
C3291 C3292 1.400 . S
C3291 C3296 1.490 . S
C3292 H3282 0.930 . S
C3292 C3291 1.400 . S
C3292 C3295 1.386 . S
H3293 C3309 0.930 . S
H3294 C3310 0.931 . S
C3295 H3283 0.929 . S
C3295 C3289 1.390 . S
C3295 C3292 1.386 . S
C3296 C3291 1.490 . S
C3296 C3298 1.395 . S
C3296 C3299 1.403 . S
H3297 C3303 0.930 . S
C3298 H3284 0.930 . S
C3298 C3296 1.395 . S
C3298 C3301 1.403 . S
C3299 C3296 1.403 . S
C3299 C3300 1.524 . S
C3299 C3303 1.400 . S
C3300 H3285 0.960 . S
C3300 H3286 0.960 . S
C3300 H3287 0.960 . S
C3300 C3299 1.524 . S
C3301 C3298 1.403 . S
C3301 C3302 1.392 . S
C3301 C3305 1.495 . S
C3302 C3301 1.392 . S
C3302 C3303 1.385 . S
C3302 C3304 1.478 . S
C3303 H3297 0.930 . S
C3303 C3299 1.400 . S
C3303 C3302 1.385 . S
C3304 C3302 1.478 . S
C3304 C3306 1.381 . S
C3304 C3310 1.383 . S
C3305 C3301 1.495 . S
C3305 H3311 0.959 . S
C3305 H3312 0.961 . S
C3305 H3313 0.960 . S
C3306 C3304 1.381 . S
C3306 C3307 1.394 . S
C3306 H3314 0.930 . S
C3307 C3306 1.394 . S
C3307 C3308 1.383 . S
C3307 H3315 0.929 . S
C3308 C3307 1.383 . S
C3308 C3309 1.377 . S
C3309 H3293 0.930 . S
C3309 C3308 1.377 . S
C3309 C3310 1.379 . S
C3310 H3294 0.931 . S
C3310 C3304 1.383 . S
C3310 C3309 1.379 . S
H3311 C3305 0.959 . S
H3312 C3305 0.961 . S
H3313 C3305 0.960 . S
H3314 C3306 0.930 . S
H3315 C3307 0.929 . S
H3316 C3324 0.929 . S
H3317 C3326 0.930 . S
H3318 C3328 0.930 . S
H3319 C3331 0.929 . S
H3320 C3334 0.930 . S
H3321 C3336 0.960 . S
H3322 C3336 0.960 . S
H3323 C3336 0.960 . S
C3324 H3316 0.929 . S
C3324 C3325 1.377 . S
C3324 C3326 1.384 . S
C3325 C3324 1.377 . S
C3325 C3331 1.390 . S
C3326 H3317 0.930 . S
C3326 C3324 1.384 . S
C3326 C3327 1.372 . S
C3327 C3326 1.372 . S
C3327 C3328 1.400 . S
C3327 C3332 1.490 . S
C3328 H3318 0.930 . S
C3328 C3327 1.400 . S
C3328 C3331 1.386 . S
H3329 C3345 0.930 . S
H3330 C3346 0.931 . S
C3331 H3319 0.929 . S
C3331 C3325 1.390 . S
C3331 C3328 1.386 . S
C3332 C3327 1.490 . S
C3332 C3334 1.395 . S
C3332 C3335 1.403 . S
H3333 C3339 0.930 . S
C3334 H3320 0.930 . S
C3334 C3332 1.395 . S
C3334 C3337 1.403 . S
C3335 C3332 1.403 . S
C3335 C3336 1.524 . S
C3335 C3339 1.400 . S
C3336 H3321 0.960 . S
C3336 H3322 0.960 . S
C3336 H3323 0.960 . S
C3336 C3335 1.524 . S
C3337 C3334 1.403 . S
C3337 C3338 1.392 . S
C3337 C3341 1.495 . S
C3338 C3337 1.392 . S
C3338 C3339 1.385 . S
C3338 C3340 1.478 . S
C3339 H3333 0.930 . S
C3339 C3335 1.400 . S
C3339 C3338 1.385 . S
C3340 C3338 1.478 . S
C3340 C3342 1.381 . S
C3340 C3346 1.383 . S
C3341 C3337 1.495 . S
C3341 H3347 0.959 . S
C3341 H3348 0.961 . S
C3341 H3349 0.960 . S
C3342 C3340 1.381 . S
C3342 C3343 1.394 . S
C3342 H3350 0.930 . S
C3343 C3342 1.394 . S
C3343 C3344 1.383 . S
C3343 H3351 0.929 . S
C3344 C3343 1.383 . S
C3344 C3345 1.377 . S
C3345 H3329 0.930 . S
C3345 C3344 1.377 . S
C3345 C3346 1.379 . S
C3346 H3330 0.931 . S
C3346 C3340 1.383 . S
C3346 C3345 1.379 . S
H3347 C3341 0.959 . S
H3348 C3341 0.961 . S
H3349 C3341 0.960 . S
H3350 C3342 0.930 . S
H3351 C3343 0.929 . S
H3352 C3360 0.929 . S
H3353 C3362 0.930 . S
H3354 C3364 0.930 . S
H3355 C3367 0.929 . S
H3356 C3370 0.930 . S
H3357 C3372 0.960 . S
H3358 C3372 0.960 . S
H3359 C3372 0.960 . S
C3360 H3352 0.929 . S
C3360 C3361 1.377 . S
C3360 C3362 1.384 . S
C3361 C3360 1.377 . S
C3361 C3367 1.390 . S
C3362 H3353 0.930 . S
C3362 C3360 1.384 . S
C3362 C3363 1.372 . S
C3363 C3362 1.372 . S
C3363 C3364 1.400 . S
C3363 C3368 1.490 . S
C3364 H3354 0.930 . S
C3364 C3363 1.400 . S
C3364 C3367 1.386 . S
H3365 C3381 0.930 . S
H3366 C3382 0.931 . S
C3367 H3355 0.929 . S
C3367 C3361 1.390 . S
C3367 C3364 1.386 . S
C3368 C3363 1.490 . S
C3368 C3370 1.395 . S
C3368 C3371 1.403 . S
H3369 C3375 0.930 . S
C3370 H3356 0.930 . S
C3370 C3368 1.395 . S
C3370 C3373 1.403 . S
C3371 C3368 1.403 . S
C3371 C3372 1.524 . S
C3371 C3375 1.400 . S
C3372 H3357 0.960 . S
C3372 H3358 0.960 . S
C3372 H3359 0.960 . S
C3372 C3371 1.524 . S
C3373 C3370 1.403 . S
C3373 C3374 1.392 . S
C3373 C3377 1.495 . S
C3374 C3373 1.392 . S
C3374 C3375 1.385 . S
C3374 C3376 1.478 . S
C3375 H3369 0.930 . S
C3375 C3371 1.400 . S
C3375 C3374 1.385 . S
C3376 C3374 1.478 . S
C3376 C3378 1.381 . S
C3376 C3382 1.383 . S
C3377 C3373 1.495 . S
C3377 H3383 0.959 . S
C3377 H3384 0.961 . S
C3377 H3385 0.960 . S
C3378 C3376 1.381 . S
C3378 C3379 1.394 . S
C3378 H3386 0.930 . S
C3379 C3378 1.394 . S
C3379 C3380 1.383 . S
C3379 H3387 0.929 . S
C3380 C3379 1.383 . S
C3380 C3381 1.377 . S
C3381 H3365 0.930 . S
C3381 C3380 1.377 . S
C3381 C3382 1.379 . S
C3382 H3366 0.931 . S
C3382 C3376 1.383 . S
C3382 C3381 1.379 . S
H3383 C3377 0.959 . S
H3384 C3377 0.961 . S
H3385 C3377 0.960 . S
H3386 C3378 0.930 . S
H3387 C3379 0.929 . S
H3388 C3396 0.929 . S
H3389 C3398 0.930 . S
H3390 C3400 0.930 . S
H3391 C3403 0.929 . S
H3392 C3406 0.930 . S
H3393 C3408 0.960 . S
H3394 C3408 0.960 . S
H3395 C3408 0.960 . S
C3396 H3388 0.929 . S
C3396 C3397 1.377 1_556 S
C3396 C3398 1.384 . S
C3397 C3396 1.377 1_554 S
C3397 C3403 1.390 . S
C3398 H3389 0.930 . S
C3398 C3396 1.384 . S
C3398 C3399 1.372 1_556 S
C3399 C3398 1.372 1_554 S
C3399 C3400 1.400 . S
C3399 C3404 1.490 . S
C3400 H3390 0.930 . S
C3400 C3399 1.400 . S
C3400 C3403 1.386 . S
H3401 C3417 0.930 . S
H3402 C3418 0.928 . S
C3403 H3391 0.929 . S
C3403 C3397 1.390 . S
C3403 C3400 1.386 . S
C3404 C3399 1.490 . S
C3404 C3406 1.395 . S
C3404 C3407 1.403 . S
H3405 C3411 0.930 . S
C3406 H3392 0.930 . S
C3406 C3404 1.395 . S
C3406 C3409 1.403 . S
C3407 C3404 1.403 . S
C3407 C3408 1.524 . S
C3407 C3411 1.400 . S
C3408 H3393 0.960 . S
C3408 H3394 0.960 . S
C3408 H3395 0.960 . S
C3408 C3407 1.524 . S
C3409 C3406 1.403 . S
C3409 C3410 1.392 . S
C3409 C3413 1.495 1_565 S
C3410 C3409 1.392 . S
C3410 C3411 1.385 . S
C3410 C3412 1.478 . S
C3411 H3405 0.930 . S
C3411 C3407 1.400 . S
C3411 C3410 1.385 . S
C3412 C3410 1.478 . S
C3412 C3414 1.381 1_565 S
C3412 C3418 1.384 . S
C3413 C3409 1.495 1_545 S
C3413 H3419 0.959 . S
C3413 H3420 0.961 . S
C3413 H3421 0.960 . S
C3414 C3412 1.381 1_545 S
C3414 C3415 1.394 . S
C3414 H3422 0.930 1_554 S
C3415 C3414 1.394 . S
C3415 C3416 1.383 . S
C3415 H3423 0.929 1_554 S
C3416 C3415 1.383 . S
C3416 C3417 1.377 . S
C3417 H3401 0.930 . S
C3417 C3416 1.377 . S
C3417 C3418 1.381 1_545 S
C3418 H3402 0.928 . S
C3418 C3412 1.384 . S
C3418 C3417 1.381 1_565 S
H3419 C3413 0.959 . S
H3420 C3413 0.961 . S
H3421 C3413 0.960 . S
H3422 C3414 0.930 1_556 S
H3423 C3415 0.929 1_556 S
H3424 C3432 0.929 . S
H3425 C3434 0.930 . S
H3426 C3436 0.930 . S
H3427 C3439 0.929 . S
H3428 C3442 0.930 . S
H3429 C3444 0.960 . S
H3430 C3444 0.960 . S
H3431 C3444 0.960 . S
C3432 H3424 0.929 . S
C3432 C3433 1.377 . S
C3432 C3434 1.384 . S
C3433 C3432 1.377 . S
C3433 C3439 1.390 . S
C3434 H3425 0.930 . S
C3434 C3432 1.384 . S
C3434 C3435 1.372 . S
C3435 C3434 1.372 . S
C3435 C3436 1.400 . S
C3435 C3440 1.490 . S
C3436 H3426 0.930 . S
C3436 C3435 1.400 . S
C3436 C3439 1.386 . S
H3437 C3453 0.930 . S
H3438 C3454 0.931 . S
C3439 H3427 0.929 . S
C3439 C3433 1.390 . S
C3439 C3436 1.386 . S
C3440 C3435 1.490 . S
C3440 C3442 1.395 . S
C3440 C3443 1.403 . S
H3441 C3447 0.930 . S
C3442 H3428 0.930 . S
C3442 C3440 1.395 . S
C3442 C3445 1.403 . S
C3443 C3440 1.403 . S
C3443 C3444 1.524 . S
C3443 C3447 1.400 . S
C3444 H3429 0.960 . S
C3444 H3430 0.960 . S
C3444 H3431 0.960 . S
C3444 C3443 1.524 . S
C3445 C3442 1.403 . S
C3445 C3446 1.392 . S
C3445 C3449 1.495 . S
C3446 C3445 1.392 . S
C3446 C3447 1.385 . S
C3446 C3448 1.478 . S
C3447 H3441 0.930 . S
C3447 C3443 1.400 . S
C3447 C3446 1.385 . S
C3448 C3446 1.478 . S
C3448 C3450 1.381 . S
C3448 C3454 1.383 . S
C3449 C3445 1.495 . S
C3449 H3455 0.959 . S
C3449 H3456 0.961 . S
C3449 H3457 0.960 . S
C3450 C3448 1.381 . S
C3450 C3451 1.394 . S
C3450 H3458 0.930 . S
C3451 C3450 1.394 . S
C3451 C3452 1.383 . S
C3451 H3459 0.929 . S
C3452 C3451 1.383 . S
C3452 C3453 1.377 . S
C3453 H3437 0.930 . S
C3453 C3452 1.377 . S
C3453 C3454 1.379 . S
C3454 H3438 0.931 . S
C3454 C3448 1.383 . S
C3454 C3453 1.379 . S
H3455 C3449 0.959 . S
H3456 C3449 0.961 . S
H3457 C3449 0.960 . S
H3458 C3450 0.930 . S
H3459 C3451 0.929 . S
H3460 C3468 0.929 . S
H3461 C3470 0.930 . S
H3462 C3472 0.930 . S
H3463 C3475 0.929 . S
H3464 C3478 0.930 . S
H3465 C3480 0.960 1_556 S
H3466 C3480 0.934 1_556 S
H3467 C3480 0.960 . S
C3468 H3460 0.929 . S
C3468 C3469 1.377 . S
C3468 C3470 1.384 . S
C3469 C3468 1.377 . S
C3469 C3475 1.390 . S
C3470 H3461 0.930 . S
C3470 C3468 1.384 . S
C3470 C3471 1.372 . S
C3471 C3470 1.372 . S
C3471 C3472 1.400 . S
C3471 C3476 1.490 . S
C3472 H3462 0.930 . S
C3472 C3471 1.400 . S
C3472 C3475 1.386 . S
H3473 C3489 0.930 . S
H3474 C3490 0.931 . S
C3475 H3463 0.929 . S
C3475 C3469 1.390 . S
C3475 C3472 1.386 . S
C3476 C3471 1.490 . S
C3476 C3478 1.395 . S
C3476 C3479 1.403 . S
H3477 C3483 0.930 . S
C3478 H3464 0.930 . S
C3478 C3476 1.395 . S
C3478 C3481 1.403 . S
C3479 C3476 1.403 . S
C3479 C3480 1.524 . S
C3479 C3483 1.400 . S
C3480 H3465 0.960 1_554 S
C3480 H3466 0.934 1_554 S
C3480 H3467 0.960 . S
C3480 C3479 1.524 . S
C3481 C3478 1.403 . S
C3481 C3482 1.392 . S
C3481 C3485 1.495 . S
C3482 C3481 1.392 . S
C3482 C3483 1.385 . S
C3482 C3484 1.478 . S
C3483 H3477 0.930 . S
C3483 C3479 1.400 . S
C3483 C3482 1.385 . S
C3484 C3482 1.478 . S
C3484 C3486 1.381 . S
C3484 C3490 1.383 . S
C3485 C3481 1.495 . S
C3485 H3491 0.959 . S
C3485 H3492 0.961 . S
C3485 H3493 0.960 . S
C3486 C3484 1.381 . S
C3486 C3487 1.394 . S
C3486 H3494 0.930 . S
C3487 C3486 1.394 . S
C3487 C3488 1.383 . S
C3487 H3495 0.929 . S
C3488 C3487 1.383 . S
C3488 C3489 1.377 . S
C3489 H3473 0.930 . S
C3489 C3488 1.377 . S
C3489 C3490 1.379 . S
C3490 H3474 0.931 . S
C3490 C3484 1.383 . S
C3490 C3489 1.379 . S
H3491 C3485 0.959 . S
H3492 C3485 0.961 . S
H3493 C3485 0.960 . S
H3494 C3486 0.930 . S
H3495 C3487 0.929 . S
H3496 C3504 0.929 . S
H3497 C3506 0.930 . S
H3498 C3508 0.930 . S
H3499 C3511 0.929 . S
H3500 C3514 0.930 . S
H3501 C3516 0.960 . S
H3502 C3516 0.960 . S
H3503 C3516 0.960 . S
C3504 H3496 0.929 . S
C3504 C3505 1.377 . S
C3504 C3506 1.384 . S
C3505 C3504 1.377 . S
C3505 C3511 1.390 . S
C3506 H3497 0.930 . S
C3506 C3504 1.384 . S
C3506 C3507 1.372 . S
C3507 C3506 1.372 . S
C3507 C3508 1.400 . S
C3507 C3512 1.490 . S
C3508 H3498 0.930 . S
C3508 C3507 1.400 . S
C3508 C3511 1.386 . S
H3509 C3525 0.930 . S
H3510 C3526 0.931 . S
C3511 H3499 0.929 . S
C3511 C3505 1.390 . S
C3511 C3508 1.386 . S
C3512 C3507 1.490 . S
C3512 C3514 1.395 . S
C3512 C3515 1.403 . S
H3513 C3519 0.930 . S
C3514 H3500 0.930 . S
C3514 C3512 1.395 . S
C3514 C3517 1.403 . S
C3515 C3512 1.403 . S
C3515 C3516 1.524 . S
C3515 C3519 1.400 . S
C3516 H3501 0.960 . S
C3516 H3502 0.960 . S
C3516 H3503 0.960 . S
C3516 C3515 1.524 . S
C3517 C3514 1.403 . S
C3517 C3518 1.392 . S
C3517 C3521 1.495 . S
C3518 C3517 1.392 . S
C3518 C3519 1.385 . S
C3518 C3520 1.478 . S
C3519 H3513 0.930 . S
C3519 C3515 1.400 . S
C3519 C3518 1.385 . S
C3520 C3518 1.478 . S
C3520 C3522 1.381 . S
C3520 C3526 1.383 . S
C3521 C3517 1.495 . S
C3521 H3527 0.959 . S
C3521 H3528 0.961 . S
C3521 H3529 0.960 . S
C3522 C3520 1.381 . S
C3522 C3523 1.394 . S
C3522 H3530 0.930 . S
C3523 C3522 1.394 . S
C3523 C3524 1.383 . S
C3523 H3531 0.929 . S
C3524 C3523 1.383 . S
C3524 C3525 1.377 . S
C3525 H3509 0.930 . S
C3525 C3524 1.377 . S
C3525 C3526 1.379 . S
C3526 H3510 0.931 . S
C3526 C3520 1.383 . S
C3526 C3525 1.379 . S
H3527 C3521 0.959 . S
H3528 C3521 0.961 . S
H3529 C3521 0.960 . S
H3530 C3522 0.930 . S
H3531 C3523 0.929 . S
H3532 C3540 0.929 . S
H3533 C3542 0.930 . S
H3534 C3544 0.930 . S
H3535 C3547 0.929 . S
H3536 C3550 0.930 . S
H3537 C3552 0.960 . S
H3538 C3552 0.960 . S
H3539 C3552 0.960 . S
C3540 H3532 0.929 . S
C3540 C3541 1.377 . S
C3540 C3542 1.384 . S
C3541 C3540 1.377 . S
C3541 C3547 1.390 . S
C3542 H3533 0.930 . S
C3542 C3540 1.384 . S
C3542 C3543 1.372 . S
C3543 C3542 1.372 . S
C3543 C3544 1.400 . S
C3543 C3548 1.490 . S
C3544 H3534 0.930 . S
C3544 C3543 1.400 . S
C3544 C3547 1.386 . S
H3545 C3561 0.930 . S
H3546 C3562 0.931 . S
C3547 H3535 0.929 . S
C3547 C3541 1.390 . S
C3547 C3544 1.386 . S
C3548 C3543 1.490 . S
C3548 C3550 1.395 . S
C3548 C3551 1.403 . S
H3549 C3555 0.930 . S
C3550 H3536 0.930 . S
C3550 C3548 1.395 . S
C3550 C3553 1.403 . S
C3551 C3548 1.403 . S
C3551 C3552 1.524 . S
C3551 C3555 1.400 . S
C3552 H3537 0.960 . S
C3552 H3538 0.960 . S
C3552 H3539 0.960 . S
C3552 C3551 1.524 . S
C3553 C3550 1.403 . S
C3553 C3554 1.392 . S
C3553 C3557 1.495 . S
C3554 C3553 1.392 . S
C3554 C3555 1.385 . S
C3554 C3556 1.478 . S
C3555 H3549 0.930 . S
C3555 C3551 1.400 . S
C3555 C3554 1.385 . S
C3556 C3554 1.478 . S
C3556 C3558 1.381 . S
C3556 C3562 1.383 . S
C3557 C3553 1.495 . S
C3557 H3563 0.959 . S
C3557 H3564 0.961 . S
C3557 H3565 0.960 . S
C3558 C3556 1.381 . S
C3558 C3559 1.394 . S
C3558 H3566 0.930 . S
C3559 C3558 1.394 . S
C3559 C3560 1.383 . S
C3559 H3567 0.929 . S
C3560 C3559 1.383 . S
C3560 C3561 1.377 . S
C3561 H3545 0.930 . S
C3561 C3560 1.377 . S
C3561 C3562 1.379 . S
C3562 H3546 0.931 . S
C3562 C3556 1.383 . S
C3562 C3561 1.379 . S
H3563 C3557 0.959 . S
H3564 C3557 0.961 . S
H3565 C3557 0.960 . S
H3566 C3558 0.930 . S
H3567 C3559 0.929 . S
H3568 C3576 0.929 . S
H3569 C3578 0.930 . S
H3570 C3580 0.930 . S
H3571 C3583 0.929 . S
H3572 C3586 0.930 . S
H3573 C3588 0.960 . S
H3574 C3588 0.960 . S
H3575 C3588 0.960 . S
C3576 H3568 0.929 . S
C3576 C3577 1.377 . S
C3576 C3578 1.384 . S
C3577 C3576 1.377 . S
C3577 C3583 1.390 . S
C3578 H3569 0.930 . S
C3578 C3576 1.384 . S
C3578 C3579 1.372 . S
C3579 C3578 1.372 . S
C3579 C3580 1.400 . S
C3579 C3584 1.490 . S
C3580 H3570 0.930 . S
C3580 C3579 1.400 . S
C3580 C3583 1.386 . S
H3581 C3597 0.930 . S
H3582 C3598 0.931 . S
C3583 H3571 0.929 . S
C3583 C3577 1.390 . S
C3583 C3580 1.386 . S
C3584 C3579 1.490 . S
C3584 C3586 1.395 . S
C3584 C3587 1.403 . S
H3585 C3591 0.930 . S
C3586 H3572 0.930 . S
C3586 C3584 1.395 . S
C3586 C3589 1.403 . S
C3587 C3584 1.403 . S
C3587 C3588 1.524 . S
C3587 C3591 1.400 . S
C3588 H3573 0.960 . S
C3588 H3574 0.960 . S
C3588 H3575 0.960 . S
C3588 C3587 1.524 . S
C3589 C3586 1.403 . S
C3589 C3590 1.392 . S
C3589 C3593 1.495 . S
C3590 C3589 1.392 . S
C3590 C3591 1.385 . S
C3590 C3592 1.478 . S
C3591 H3585 0.930 . S
C3591 C3587 1.400 . S
C3591 C3590 1.385 . S
C3592 C3590 1.478 . S
C3592 C3594 1.381 . S
C3592 C3598 1.383 . S
C3593 C3589 1.495 . S
C3593 H3599 0.959 . S
C3593 H3600 0.961 . S
C3593 H3601 0.960 . S
C3594 C3592 1.381 . S
C3594 C3595 1.394 . S
C3594 H3602 0.930 . S
C3595 C3594 1.394 . S
C3595 C3596 1.383 . S
C3595 H3603 0.929 . S
C3596 C3595 1.383 . S
C3596 C3597 1.377 . S
C3597 H3581 0.930 . S
C3597 C3596 1.377 . S
C3597 C3598 1.379 . S
C3598 H3582 0.931 . S
C3598 C3592 1.383 . S
C3598 C3597 1.379 . S
H3599 C3593 0.959 . S
H3600 C3593 0.961 . S
H3601 C3593 0.960 . S
H3602 C3594 0.930 . S
H3603 C3595 0.929 . S
H3604 C3612 0.929 . S
H3605 C3614 0.930 . S
H3606 C3616 0.930 . S
H3607 C3619 0.929 . S
H3608 C3622 0.930 . S
H3609 C3624 0.960 . S
H3610 C3624 0.960 . S
H3611 C3624 0.960 . S
C3612 H3604 0.929 . S
C3612 C3613 1.377 . S
C3612 C3614 1.384 . S
C3613 C3612 1.377 . S
C3613 C3619 1.390 . S
C3614 H3605 0.930 . S
C3614 C3612 1.384 . S
C3614 C3615 1.372 . S
C3615 C3614 1.372 . S
C3615 C3616 1.400 . S
C3615 C3620 1.490 . S
C3616 H3606 0.930 . S
C3616 C3615 1.400 . S
C3616 C3619 1.386 . S
H3617 C3633 0.930 . S
H3618 C3634 0.931 . S
C3619 H3607 0.929 . S
C3619 C3613 1.390 . S
C3619 C3616 1.386 . S
C3620 C3615 1.490 . S
C3620 C3622 1.395 . S
C3620 C3623 1.403 . S
H3621 C3627 0.930 . S
C3622 H3608 0.930 . S
C3622 C3620 1.395 . S
C3622 C3625 1.403 . S
C3623 C3620 1.403 . S
C3623 C3624 1.524 . S
C3623 C3627 1.400 . S
C3624 H3609 0.960 . S
C3624 H3610 0.960 . S
C3624 H3611 0.960 . S
C3624 C3623 1.524 . S
C3625 C3622 1.403 . S
C3625 C3626 1.392 . S
C3625 C3629 1.495 . S
C3626 C3625 1.392 . S
C3626 C3627 1.385 . S
C3626 C3628 1.478 . S
C3627 H3621 0.930 . S
C3627 C3623 1.400 . S
C3627 C3626 1.385 . S
C3628 C3626 1.478 . S
C3628 C3630 1.381 . S
C3628 C3634 1.383 . S
C3629 C3625 1.495 . S
C3629 H3635 0.959 . S
C3629 H3636 0.961 . S
C3629 H3637 0.960 . S
C3630 C3628 1.381 . S
C3630 C3631 1.394 . S
C3630 H3638 0.930 . S
C3631 C3630 1.394 . S
C3631 C3632 1.383 . S
C3631 H3639 0.929 . S
C3632 C3631 1.383 . S
C3632 C3633 1.377 . S
C3633 H3617 0.930 . S
C3633 C3632 1.377 . S
C3633 C3634 1.379 . S
C3634 H3618 0.931 . S
C3634 C3628 1.383 . S
C3634 C3633 1.379 . S
H3635 C3629 0.959 . S
H3636 C3629 0.961 . S
H3637 C3629 0.960 . S
H3638 C3630 0.930 . S
H3639 C3631 0.929 . S
H3640 C3648 0.929 . S
H3641 C3650 0.930 . S
H3642 C3652 0.930 . S
H3643 C3655 0.929 . S
H3644 C3658 0.930 . S
H3645 C3660 0.960 . S
H3646 C3660 0.960 . S
H3647 C3660 0.960 . S
C3648 H3640 0.929 . S
C3648 C3649 1.377 . S
C3648 C3650 1.384 . S
C3649 C3648 1.377 . S
C3649 C3655 1.390 . S
C3650 H3641 0.930 . S
C3650 C3648 1.384 . S
C3650 C3651 1.372 . S
C3651 C3650 1.372 . S
C3651 C3652 1.400 . S
C3651 C3656 1.490 . S
C3652 H3642 0.930 . S
C3652 C3651 1.400 . S
C3652 C3655 1.386 . S
H3653 C3669 0.930 . S
H3654 C3670 0.931 . S
C3655 H3643 0.929 . S
C3655 C3649 1.390 . S
C3655 C3652 1.386 . S
C3656 C3651 1.490 . S
C3656 C3658 1.395 . S
C3656 C3659 1.403 . S
H3657 C3663 0.930 . S
C3658 H3644 0.930 . S
C3658 C3656 1.395 . S
C3658 C3661 1.403 . S
C3659 C3656 1.403 . S
C3659 C3660 1.524 . S
C3659 C3663 1.400 . S
C3660 H3645 0.960 . S
C3660 H3646 0.960 . S
C3660 H3647 0.960 . S
C3660 C3659 1.524 . S
C3661 C3658 1.403 . S
C3661 C3662 1.392 . S
C3661 C3665 1.495 . S
C3662 C3661 1.392 . S
C3662 C3663 1.385 . S
C3662 C3664 1.478 . S
C3663 H3657 0.930 . S
C3663 C3659 1.400 . S
C3663 C3662 1.385 . S
C3664 C3662 1.478 . S
C3664 C3666 1.381 . S
C3664 C3670 1.383 . S
C3665 C3661 1.495 . S
C3665 H3671 0.959 . S
C3665 H3672 0.961 . S
C3665 H3673 0.960 . S
C3666 C3664 1.381 . S
C3666 C3667 1.394 . S
C3666 H3674 0.930 . S
C3667 C3666 1.394 . S
C3667 C3668 1.383 . S
C3667 H3675 0.929 . S
C3668 C3667 1.383 . S
C3668 C3669 1.377 . S
C3669 H3653 0.930 . S
C3669 C3668 1.377 . S
C3669 C3670 1.379 . S
C3670 H3654 0.931 . S
C3670 C3664 1.383 . S
C3670 C3669 1.379 . S
H3671 C3665 0.959 . S
H3672 C3665 0.961 . S
H3673 C3665 0.960 . S
H3674 C3666 0.930 . S
H3675 C3667 0.929 . S
H3676 C3684 0.929 . S
H3677 C3686 0.930 . S
H3678 C3688 0.930 . S
H3679 C3691 0.929 . S
H3680 C3694 0.930 . S
H3681 C3696 0.960 . S
H3682 C3696 0.960 . S
H3683 C3696 0.960 . S
C3684 H3676 0.929 . S
C3684 C3685 1.377 . S
C3684 C3686 1.384 . S
C3685 C3684 1.377 . S
C3685 C3691 1.390 . S
C3686 H3677 0.930 . S
C3686 C3684 1.384 . S
C3686 C3687 1.372 . S
C3687 C3686 1.372 . S
C3687 C3688 1.400 . S
C3687 C3692 1.490 . S
C3688 H3678 0.930 . S
C3688 C3687 1.400 . S
C3688 C3691 1.386 . S
H3689 C3705 0.930 . S
H3690 C3706 0.931 . S
C3691 H3679 0.929 . S
C3691 C3685 1.390 . S
C3691 C3688 1.386 . S
C3692 C3687 1.490 . S
C3692 C3694 1.395 . S
C3692 C3695 1.403 . S
H3693 C3699 0.930 . S
C3694 H3680 0.930 . S
C3694 C3692 1.395 . S
C3694 C3697 1.403 . S
C3695 C3692 1.403 . S
C3695 C3696 1.524 . S
C3695 C3699 1.400 . S
C3696 H3681 0.960 . S
C3696 H3682 0.960 . S
C3696 H3683 0.960 . S
C3696 C3695 1.524 . S
C3697 C3694 1.403 . S
C3697 C3698 1.392 . S
C3697 C3701 1.495 . S
C3698 C3697 1.392 . S
C3698 C3699 1.385 . S
C3698 C3700 1.478 . S
C3699 H3693 0.930 . S
C3699 C3695 1.400 . S
C3699 C3698 1.385 . S
C3700 C3698 1.478 . S
C3700 C3702 1.381 . S
C3700 C3706 1.383 . S
C3701 C3697 1.495 . S
C3701 H3707 0.959 . S
C3701 H3708 0.961 . S
C3701 H3709 0.960 . S
C3702 C3700 1.381 . S
C3702 C3703 1.394 . S
C3702 H3710 0.930 . S
C3703 C3702 1.394 . S
C3703 C3704 1.383 . S
C3703 H3711 0.929 . S
C3704 C3703 1.383 . S
C3704 C3705 1.377 . S
C3705 H3689 0.930 . S
C3705 C3704 1.377 . S
C3705 C3706 1.379 . S
C3706 H3690 0.931 . S
C3706 C3700 1.383 . S
C3706 C3705 1.379 . S
H3707 C3701 0.959 . S
H3708 C3701 0.961 . S
H3709 C3701 0.960 . S
H3710 C3702 0.930 . S
H3711 C3703 0.929 . S
H3712 C3720 0.929 . S
H3713 C3722 0.930 . S
H3714 C3724 0.930 . S
H3715 C3727 0.929 . S
H3716 C3730 0.930 . S
H3717 C3732 0.960 . S
H3718 C3732 0.960 . S
H3719 C3732 0.960 . S
C3720 H3712 0.929 . S
C3720 C3721 1.377 . S
C3720 C3722 1.384 . S
C3721 C3720 1.377 . S
C3721 C3727 1.390 . S
C3722 H3713 0.930 . S
C3722 C3720 1.384 . S
C3722 C3723 1.372 . S
C3723 C3722 1.372 . S
C3723 C3724 1.400 . S
C3723 C3728 1.490 . S
C3724 H3714 0.930 . S
C3724 C3723 1.400 . S
C3724 C3727 1.386 . S
H3725 C3741 0.930 . S
H3726 C3742 0.931 . S
C3727 H3715 0.929 . S
C3727 C3721 1.390 . S
C3727 C3724 1.386 . S
C3728 C3723 1.490 . S
C3728 C3730 1.395 . S
C3728 C3731 1.403 . S
H3729 C3735 0.930 . S
C3730 H3716 0.930 . S
C3730 C3728 1.395 . S
C3730 C3733 1.403 . S
C3731 C3728 1.403 . S
C3731 C3732 1.524 . S
C3731 C3735 1.400 . S
C3732 H3717 0.960 . S
C3732 H3718 0.960 . S
C3732 H3719 0.960 . S
C3732 C3731 1.524 . S
C3733 C3730 1.403 . S
C3733 C3734 1.392 . S
C3733 C3737 1.495 . S
C3734 C3733 1.392 . S
C3734 C3735 1.385 . S
C3734 C3736 1.478 . S
C3735 H3729 0.930 . S
C3735 C3731 1.400 . S
C3735 C3734 1.385 . S
C3736 C3734 1.478 . S
C3736 C3738 1.381 . S
C3736 C3742 1.383 . S
C3737 C3733 1.495 . S
C3737 H3743 0.959 . S
C3737 H3744 0.961 . S
C3737 H3745 0.960 . S
C3738 C3736 1.381 . S
C3738 C3739 1.394 . S
C3738 H3746 0.930 . S
C3739 C3738 1.394 . S
C3739 C3740 1.383 . S
C3739 H3747 0.929 . S
C3740 C3739 1.383 . S
C3740 C3741 1.377 . S
C3741 H3725 0.930 . S
C3741 C3740 1.377 . S
C3741 C3742 1.379 . S
C3742 H3726 0.931 . S
C3742 C3736 1.383 . S
C3742 C3741 1.379 . S
H3743 C3737 0.959 . S
H3744 C3737 0.961 . S
H3745 C3737 0.960 . S
H3746 C3738 0.930 . S
H3747 C3739 0.929 . S
H3748 C3756 0.929 . S
H3749 C3758 0.930 . S
H3750 C3760 0.930 . S
H3751 C3763 0.929 . S
H3752 C3766 0.930 . S
H3753 C3768 0.960 . S
H3754 C3768 0.960 . S
H3755 C3768 0.960 . S
C3756 H3748 0.929 . S
C3756 C3757 1.377 . S
C3756 C3758 1.384 . S
C3757 C3756 1.377 . S
C3757 C3763 1.390 . S
C3758 H3749 0.930 . S
C3758 C3756 1.384 . S
C3758 C3759 1.372 . S
C3759 C3758 1.372 . S
C3759 C3760 1.400 . S
C3759 C3764 1.490 . S
C3760 H3750 0.930 . S
C3760 C3759 1.400 . S
C3760 C3763 1.386 . S
H3761 C3777 0.930 . S
H3762 C3778 0.931 . S
C3763 H3751 0.929 . S
C3763 C3757 1.390 . S
C3763 C3760 1.386 . S
C3764 C3759 1.490 . S
C3764 C3766 1.395 . S
C3764 C3767 1.403 . S
H3765 C3771 0.930 . S
C3766 H3752 0.930 . S
C3766 C3764 1.395 . S
C3766 C3769 1.403 . S
C3767 C3764 1.403 . S
C3767 C3768 1.524 . S
C3767 C3771 1.400 . S
C3768 H3753 0.960 . S
C3768 H3754 0.960 . S
C3768 H3755 0.960 . S
C3768 C3767 1.524 . S
C3769 C3766 1.403 . S
C3769 C3770 1.392 . S
C3769 C3773 1.495 . S
C3770 C3769 1.392 . S
C3770 C3771 1.385 . S
C3770 C3772 1.478 . S
C3771 H3765 0.930 . S
C3771 C3767 1.400 . S
C3771 C3770 1.385 . S
C3772 C3770 1.478 . S
C3772 C3774 1.381 . S
C3772 C3778 1.383 . S
C3773 C3769 1.495 . S
C3773 H3779 0.959 . S
C3773 H3780 0.961 . S
C3773 H3781 0.960 . S
C3774 C3772 1.381 . S
C3774 C3775 1.394 . S
C3774 H3782 0.930 . S
C3775 C3774 1.394 . S
C3775 C3776 1.383 . S
C3775 H3783 0.929 . S
C3776 C3775 1.383 . S
C3776 C3777 1.377 . S
C3777 H3761 0.930 . S
C3777 C3776 1.377 . S
C3777 C3778 1.379 . S
C3778 H3762 0.931 . S
C3778 C3772 1.383 . S
C3778 C3777 1.379 . S
H3779 C3773 0.959 . S
H3780 C3773 0.961 . S
H3781 C3773 0.960 . S
H3782 C3774 0.930 . S
H3783 C3775 0.929 . S
H3784 C3792 0.929 . S
H3785 C3794 0.930 . S
H3786 C3796 0.930 . S
H3787 C3799 0.929 . S
H3788 C3802 0.930 . S
H3789 C3804 0.960 . S
H3790 C3804 0.960 . S
H3791 C3804 0.960 . S
C3792 H3784 0.929 . S
C3792 C3793 1.377 . S
C3792 C3794 1.384 . S
C3793 C3792 1.377 . S
C3793 C3799 1.390 . S
C3794 H3785 0.930 . S
C3794 C3792 1.384 . S
C3794 C3795 1.372 . S
C3795 C3794 1.372 . S
C3795 C3796 1.400 . S
C3795 C3800 1.490 . S
C3796 H3786 0.930 . S
C3796 C3795 1.400 . S
C3796 C3799 1.386 . S
H3797 C3813 0.930 . S
H3798 C3814 0.931 . S
C3799 H3787 0.929 . S
C3799 C3793 1.390 . S
C3799 C3796 1.386 . S
C3800 C3795 1.490 . S
C3800 C3802 1.395 . S
C3800 C3803 1.403 . S
H3801 C3807 0.930 . S
C3802 H3788 0.930 . S
C3802 C3800 1.395 . S
C3802 C3805 1.403 . S
C3803 C3800 1.403 . S
C3803 C3804 1.524 . S
C3803 C3807 1.400 . S
C3804 H3789 0.960 . S
C3804 H3790 0.960 . S
C3804 H3791 0.960 . S
C3804 C3803 1.524 . S
C3805 C3802 1.403 . S
C3805 C3806 1.392 . S
C3805 C3809 1.495 . S
C3806 C3805 1.392 . S
C3806 C3807 1.385 . S
C3806 C3808 1.478 . S
C3807 H3801 0.930 . S
C3807 C3803 1.400 . S
C3807 C3806 1.385 . S
C3808 C3806 1.478 . S
C3808 C3810 1.381 . S
C3808 C3814 1.383 . S
C3809 C3805 1.495 . S
C3809 H3815 0.959 . S
C3809 H3816 0.961 . S
C3809 H3817 0.960 . S
C3810 C3808 1.381 . S
C3810 C3811 1.394 . S
C3810 H3818 0.930 . S
C3811 C3810 1.394 . S
C3811 C3812 1.383 . S
C3811 H3819 0.929 . S
C3812 C3811 1.383 . S
C3812 C3813 1.377 . S
C3813 H3797 0.930 . S
C3813 C3812 1.377 . S
C3813 C3814 1.379 . S
C3814 H3798 0.931 . S
C3814 C3808 1.383 . S
C3814 C3813 1.379 . S
H3815 C3809 0.959 . S
H3816 C3809 0.961 . S
H3817 C3809 0.960 . S
H3818 C3810 0.930 . S
H3819 C3811 0.929 . S
H3820 C3828 0.929 . S
H3821 C3830 0.930 . S
H3822 C3832 0.930 . S
H3823 C3835 0.929 . S
H3824 C3838 0.930 . S
H3825 C3840 0.960 . S
H3826 C3840 0.960 . S
H3827 C3840 0.960 . S
C3828 H3820 0.929 . S
C3828 C3829 1.377 . S
C3828 C3830 1.384 . S
C3829 C3828 1.377 . S
C3829 C3835 1.390 . S
C3830 H3821 0.930 . S
C3830 C3828 1.384 . S
C3830 C3831 1.372 . S
C3831 C3830 1.372 . S
C3831 C3832 1.400 . S
C3831 C3836 1.490 . S
C3832 H3822 0.930 . S
C3832 C3831 1.400 . S
C3832 C3835 1.386 . S
H3833 C3849 0.930 . S
H3834 C3850 0.931 . S
C3835 H3823 0.929 . S
C3835 C3829 1.390 . S
C3835 C3832 1.386 . S
C3836 C3831 1.490 . S
C3836 C3838 1.395 . S
C3836 C3839 1.403 . S
H3837 C3843 0.930 . S
C3838 H3824 0.930 . S
C3838 C3836 1.395 . S
C3838 C3841 1.403 . S
C3839 C3836 1.403 . S
C3839 C3840 1.524 . S
C3839 C3843 1.400 . S
C3840 H3825 0.960 . S
C3840 H3826 0.960 . S
C3840 H3827 0.960 . S
C3840 C3839 1.524 . S
C3841 C3838 1.403 . S
C3841 C3842 1.392 . S
C3841 C3845 1.495 . S
C3842 C3841 1.392 . S
C3842 C3843 1.385 . S
C3842 C3844 1.478 . S
C3843 H3837 0.930 . S
C3843 C3839 1.400 . S
C3843 C3842 1.385 . S
C3844 C3842 1.478 . S
C3844 C3846 1.381 . S
C3844 C3850 1.383 . S
C3845 C3841 1.495 . S
C3845 H3851 0.959 . S
C3845 H3852 0.961 . S
C3845 H3853 0.960 . S
C3846 C3844 1.381 . S
C3846 C3847 1.394 . S
C3846 H3854 0.930 . S
C3847 C3846 1.394 . S
C3847 C3848 1.383 . S
C3847 H3855 0.929 . S
C3848 C3847 1.383 . S
C3848 C3849 1.377 . S
C3849 H3833 0.930 . S
C3849 C3848 1.377 . S
C3849 C3850 1.379 . S
C3850 H3834 0.931 . S
C3850 C3844 1.383 . S
C3850 C3849 1.379 . S
H3851 C3845 0.959 . S
H3852 C3845 0.961 . S
H3853 C3845 0.960 . S
H3854 C3846 0.930 . S
H3855 C3847 0.929 . S
H3856 C3864 0.929 . S
H3857 C3866 0.930 . S
H3858 C3868 0.930 . S
H3859 C3871 0.929 . S
H3860 C3874 0.930 . S
H3861 C3876 0.960 . S
H3862 C3876 0.960 . S
H3863 C3876 0.960 . S
C3864 H3856 0.929 . S
C3864 C3865 1.377 . S
C3864 C3866 1.384 . S
C3865 C3864 1.377 . S
C3865 C3871 1.390 . S
C3866 H3857 0.930 . S
C3866 C3864 1.384 . S
C3866 C3867 1.372 . S
C3867 C3866 1.372 . S
C3867 C3868 1.400 . S
C3867 C3872 1.490 . S
C3868 H3858 0.930 . S
C3868 C3867 1.400 . S
C3868 C3871 1.386 . S
H3869 C3885 0.930 . S
H3870 C3886 0.931 . S
C3871 H3859 0.929 . S
C3871 C3865 1.390 . S
C3871 C3868 1.386 . S
C3872 C3867 1.490 . S
C3872 C3874 1.395 . S
C3872 C3875 1.403 . S
H3873 C3879 0.930 . S
C3874 H3860 0.930 . S
C3874 C3872 1.395 . S
C3874 C3877 1.403 . S
C3875 C3872 1.403 . S
C3875 C3876 1.524 . S
C3875 C3879 1.400 . S
C3876 H3861 0.960 . S
C3876 H3862 0.960 . S
C3876 H3863 0.960 . S
C3876 C3875 1.524 . S
C3877 C3874 1.403 . S
C3877 C3878 1.392 . S
C3877 C3881 1.495 . S
C3878 C3877 1.392 . S
C3878 C3879 1.385 . S
C3878 C3880 1.478 . S
C3879 H3873 0.930 . S
C3879 C3875 1.400 . S
C3879 C3878 1.385 . S
C3880 C3878 1.478 . S
C3880 C3882 1.381 . S
C3880 C3886 1.383 . S
C3881 C3877 1.495 . S
C3881 H3887 0.959 . S
C3881 H3888 0.961 . S
C3881 H3889 0.960 . S
C3882 C3880 1.381 . S
C3882 C3883 1.394 . S
C3882 H3890 0.930 . S
C3883 C3882 1.394 . S
C3883 C3884 1.383 . S
C3883 H3891 0.929 . S
C3884 C3883 1.383 . S
C3884 C3885 1.377 . S
C3885 H3869 0.930 . S
C3885 C3884 1.377 . S
C3885 C3886 1.379 . S
C3886 H3870 0.931 . S
C3886 C3880 1.383 . S
C3886 C3885 1.379 . S
H3887 C3881 0.959 . S
H3888 C3881 0.961 . S
H3889 C3881 0.960 . S
H3890 C3882 0.930 . S
H3891 C3883 0.929 . S
H3892 C3900 0.929 . S
H3893 C3902 0.930 . S
H3894 C3904 0.930 . S
H3895 C3907 0.929 . S
H3896 C3910 0.930 . S
H3897 C3912 0.960 . S
H3898 C3912 0.960 . S
H3899 C3912 0.960 . S
C3900 H3892 0.929 . S
C3900 C3901 1.377 . S
C3900 C3902 1.384 . S
C3901 C3900 1.377 . S
C3901 C3907 1.390 . S
C3902 H3893 0.930 . S
C3902 C3900 1.384 . S
C3902 C3903 1.372 . S
C3903 C3902 1.372 . S
C3903 C3904 1.400 . S
C3903 C3908 1.490 . S
C3904 H3894 0.930 . S
C3904 C3903 1.400 . S
C3904 C3907 1.386 . S
H3905 C3921 0.930 . S
H3906 C3922 0.931 . S
C3907 H3895 0.929 . S
C3907 C3901 1.390 . S
C3907 C3904 1.386 . S
C3908 C3903 1.490 . S
C3908 C3910 1.395 . S
C3908 C3911 1.403 . S
H3909 C3915 0.930 . S
C3910 H3896 0.930 . S
C3910 C3908 1.395 . S
C3910 C3913 1.403 . S
C3911 C3908 1.403 . S
C3911 C3912 1.524 . S
C3911 C3915 1.400 . S
C3912 H3897 0.960 . S
C3912 H3898 0.960 . S
C3912 H3899 0.960 . S
C3912 C3911 1.524 . S
C3913 C3910 1.403 . S
C3913 C3914 1.392 . S
C3913 C3917 1.495 . S
C3914 C3913 1.392 . S
C3914 C3915 1.385 . S
C3914 C3916 1.478 . S
C3915 H3909 0.930 . S
C3915 C3911 1.400 . S
C3915 C3914 1.385 . S
C3916 C3914 1.478 . S
C3916 C3918 1.381 . S
C3916 C3922 1.383 . S
C3917 C3913 1.495 . S
C3917 H3923 0.959 . S
C3917 H3924 0.961 . S
C3917 H3925 0.960 . S
C3918 C3916 1.381 . S
C3918 C3919 1.394 . S
C3918 H3926 0.930 . S
C3919 C3918 1.394 . S
C3919 C3920 1.383 . S
C3919 H3927 0.929 . S
C3920 C3919 1.383 . S
C3920 C3921 1.377 . S
C3921 H3905 0.930 . S
C3921 C3920 1.377 . S
C3921 C3922 1.379 . S
C3922 H3906 0.931 . S
C3922 C3916 1.383 . S
C3922 C3921 1.379 . S
H3923 C3917 0.959 . S
H3924 C3917 0.961 . S
H3925 C3917 0.960 . S
H3926 C3918 0.930 . S
H3927 C3919 0.929 . S
H3928 C3936 0.929 . S
H3929 C3938 0.930 . S
H3930 C3940 0.930 . S
H3931 C3943 0.929 . S
H3932 C3946 0.930 1_455 S
H3933 C3948 0.960 . S
H3934 C3948 0.960 . S
H3935 C3948 0.960 . S
C3936 H3928 0.929 . S
C3936 C3937 1.377 . S
C3936 C3938 1.384 . S
C3937 C3936 1.377 . S
C3937 C3943 1.390 . S
C3938 H3929 0.930 . S
C3938 C3936 1.384 . S
C3938 C3939 1.372 . S
C3939 C3938 1.372 . S
C3939 C3940 1.400 . S
C3939 C3944 1.490 . S
C3940 H3930 0.930 . S
C3940 C3939 1.400 . S
C3940 C3943 1.386 . S
H3941 C3957 0.930 . S
H3942 C3958 0.931 . S
C3943 H3931 0.929 . S
C3943 C3937 1.390 . S
C3943 C3940 1.386 . S
C3944 C3939 1.490 . S
C3944 C3946 1.395 . S
C3944 C3947 1.403 . S
H3945 C3951 0.930 . S
C3946 H3932 0.930 1_655 S
C3946 C3944 1.395 . S
C3946 C3949 1.403 1_655 S
C3947 C3944 1.403 . S
C3947 C3948 1.524 . S
C3947 C3951 1.400 . S
C3948 H3933 0.960 . S
C3948 H3934 0.960 . S
C3948 H3935 0.960 . S
C3948 C3947 1.524 . S
C3949 C3946 1.403 1_455 S
C3949 C3950 1.405 . S
C3949 C3953 1.495 . S
C3950 C3949 1.405 . S
C3950 C3951 1.362 1_455 S
C3950 C3952 1.488 . S
C3951 H3945 0.930 . S
C3951 C3947 1.400 . S
C3951 C3950 1.362 1_655 S
C3952 C3950 1.488 . S
C3952 C3954 1.381 . S
C3952 C3958 1.383 . S
C3953 C3949 1.495 . S
C3953 H3959 0.959 . S
C3953 H3960 0.961 . S
C3953 H3961 0.960 . S
C3954 C3952 1.381 . S
C3954 C3955 1.394 . S
C3954 H3962 0.930 . S
C3955 C3954 1.394 . S
C3955 C3956 1.383 . S
C3955 H3963 0.929 . S
C3956 C3955 1.383 . S
C3956 C3957 1.377 . S
C3957 H3941 0.930 . S
C3957 C3956 1.377 . S
C3957 C3958 1.379 . S
C3958 H3942 0.931 . S
C3958 C3952 1.383 . S
C3958 C3957 1.379 . S
H3959 C3953 0.959 . S
H3960 C3953 0.961 . S
H3961 C3953 0.960 . S
H3962 C3954 0.930 . S
H3963 C3955 0.929 . S
H3964 C3972 0.929 . S
H3965 C3974 0.930 . S
H3966 C3976 0.930 . S
H3967 C3979 0.929 . S
H3968 C3982 0.930 . S
H3969 C3984 0.960 . S
H3970 C3984 0.960 . S
H3971 C3984 0.960 . S
C3972 H3964 0.929 . S
C3972 C3973 1.377 . S
C3972 C3974 1.384 . S
C3973 C3972 1.377 . S
C3973 C3979 1.390 . S
C3974 H3965 0.930 . S
C3974 C3972 1.384 . S
C3974 C3975 1.372 . S
C3975 C3974 1.372 . S
C3975 C3976 1.400 . S
C3975 C3980 1.490 . S
C3976 H3966 0.930 . S
C3976 C3975 1.400 . S
C3976 C3979 1.386 . S
H3977 C3993 0.930 . S
H3978 C3994 0.931 . S
C3979 H3967 0.929 . S
C3979 C3973 1.390 . S
C3979 C3976 1.386 . S
C3980 C3975 1.490 . S
C3980 C3982 1.395 . S
C3980 C3983 1.403 . S
H3981 C3987 0.930 . S
C3982 H3968 0.930 . S
C3982 C3980 1.395 . S
C3982 C3985 1.403 . S
C3983 C3980 1.403 . S
C3983 C3984 1.524 . S
C3983 C3987 1.400 . S
C3984 H3969 0.960 . S
C3984 H3970 0.960 . S
C3984 H3971 0.960 . S
C3984 C3983 1.524 . S
C3985 C3982 1.403 . S
C3985 C3986 1.392 . S
C3985 C3989 1.495 . S
C3986 C3985 1.392 . S
C3986 C3987 1.385 . S
C3986 C3988 1.478 . S
C3987 H3981 0.930 . S
C3987 C3983 1.400 . S
C3987 C3986 1.385 . S
C3988 C3986 1.478 . S
C3988 C3990 1.381 . S
C3988 C3994 1.383 . S
C3989 C3985 1.495 . S
C3989 H3995 0.959 . S
C3989 H3996 0.961 . S
C3989 H3997 0.960 . S
C3990 C3988 1.381 . S
C3990 C3991 1.394 . S
C3990 H3998 0.930 . S
C3991 C3990 1.394 . S
C3991 C3992 1.383 . S
C3991 H3999 0.929 . S
C3992 C3991 1.383 . S
C3992 C3993 1.377 . S
C3993 H3977 0.930 . S
C3993 C3992 1.377 . S
C3993 C3994 1.379 . S
C3994 H3978 0.931 . S
C3994 C3988 1.383 . S
C3994 C3993 1.379 . S
H3995 C3989 0.959 . S
H3996 C3989 0.961 . S
H3997 C3989 0.960 . S
H3998 C3990 0.930 . S
H3999 C3991 0.929 . S
H4000 C4008 0.929 . S
H4001 C4010 0.930 . S
H4002 C4012 0.930 . S
H4003 C4015 0.929 . S
H4004 C4018 0.930 . S
H4005 C4020 0.960 . S
H4006 C4020 0.960 . S
H4007 C4020 0.960 . S
C4008 H4000 0.929 . S
C4008 C4009 1.377 . S
C4008 C4010 1.384 . S
C4009 C4008 1.377 . S
C4009 C4015 1.390 . S
C4010 H4001 0.930 . S
C4010 C4008 1.384 . S
C4010 C4011 1.372 . S
C4011 C4010 1.372 . S
C4011 C4012 1.400 . S
C4011 C4016 1.490 . S
C4012 H4002 0.930 . S
C4012 C4011 1.400 . S
C4012 C4015 1.386 . S
H4013 C4029 0.930 . S
H4014 C4030 0.931 . S
C4015 H4003 0.929 . S
C4015 C4009 1.390 . S
C4015 C4012 1.386 . S
C4016 C4011 1.490 . S
C4016 C4018 1.395 . S
C4016 C4019 1.403 . S
H4017 C4023 0.930 . S
C4018 H4004 0.930 . S
C4018 C4016 1.395 . S
C4018 C4021 1.403 . S
C4019 C4016 1.403 . S
C4019 C4020 1.524 . S
C4019 C4023 1.400 . S
C4020 H4005 0.960 . S
C4020 H4006 0.960 . S
C4020 H4007 0.960 . S
C4020 C4019 1.524 . S
C4021 C4018 1.403 . S
C4021 C4022 1.392 . S
C4021 C4025 1.495 . S
C4022 C4021 1.392 . S
C4022 C4023 1.385 . S
C4022 C4024 1.478 . S
C4023 H4017 0.930 . S
C4023 C4019 1.400 . S
C4023 C4022 1.385 . S
C4024 C4022 1.478 . S
C4024 C4026 1.381 . S
C4024 C4030 1.383 . S
C4025 C4021 1.495 . S
C4025 H4031 0.959 . S
C4025 H4032 0.961 . S
C4025 H4033 0.960 . S
C4026 C4024 1.381 . S
C4026 C4027 1.394 . S
C4026 H4034 0.930 . S
C4027 C4026 1.394 . S
C4027 C4028 1.383 . S
C4027 H4035 0.929 . S
C4028 C4027 1.383 . S
C4028 C4029 1.377 . S
C4029 H4013 0.930 . S
C4029 C4028 1.377 . S
C4029 C4030 1.379 . S
C4030 H4014 0.931 . S
C4030 C4024 1.383 . S
C4030 C4029 1.379 . S
H4031 C4025 0.959 . S
H4032 C4025 0.961 . S
H4033 C4025 0.960 . S
H4034 C4026 0.930 . S
H4035 C4027 0.929 . S
H4036 C4044 0.929 . S
H4037 C4046 0.930 . S
H4038 C4048 0.930 . S
H4039 C4051 0.929 . S
H4040 C4054 0.930 . S
H4041 C4056 0.960 . S
H4042 C4056 0.960 . S
H4043 C4056 0.960 . S
C4044 H4036 0.929 . S
C4044 C4045 1.377 . S
C4044 C4046 1.384 . S
C4045 C4044 1.377 . S
C4045 C4051 1.390 . S
C4046 H4037 0.930 . S
C4046 C4044 1.384 . S
C4046 C4047 1.372 . S
C4047 C4046 1.372 . S
C4047 C4048 1.400 . S
C4047 C4052 1.490 . S
C4048 H4038 0.930 . S
C4048 C4047 1.400 . S
C4048 C4051 1.386 . S
H4049 C4065 0.930 . S
H4050 C4066 0.931 . S
C4051 H4039 0.929 . S
C4051 C4045 1.390 . S
C4051 C4048 1.386 . S
C4052 C4047 1.490 . S
C4052 C4054 1.395 . S
C4052 C4055 1.403 . S
H4053 C4059 0.930 . S
C4054 H4040 0.930 . S
C4054 C4052 1.395 . S
C4054 C4057 1.403 . S
C4055 C4052 1.403 . S
C4055 C4056 1.524 . S
C4055 C4059 1.400 . S
C4056 H4041 0.960 . S
C4056 H4042 0.960 . S
C4056 H4043 0.960 . S
C4056 C4055 1.524 . S
C4057 C4054 1.403 . S
C4057 C4058 1.392 . S
C4057 C4061 1.495 . S
C4058 C4057 1.392 . S
C4058 C4059 1.385 . S
C4058 C4060 1.478 . S
C4059 H4053 0.930 . S
C4059 C4055 1.400 . S
C4059 C4058 1.385 . S
C4060 C4058 1.478 . S
C4060 C4062 1.381 . S
C4060 C4066 1.383 . S
C4061 C4057 1.495 . S
C4061 H4067 0.959 . S
C4061 H4068 0.961 . S
C4061 H4069 0.960 . S
C4062 C4060 1.381 . S
C4062 C4063 1.394 . S
C4062 H4070 0.930 . S
C4063 C4062 1.394 . S
C4063 C4064 1.383 . S
C4063 H4071 0.929 . S
C4064 C4063 1.383 . S
C4064 C4065 1.377 . S
C4065 H4049 0.930 . S
C4065 C4064 1.377 . S
C4065 C4066 1.379 . S
C4066 H4050 0.931 . S
C4066 C4060 1.383 . S
C4066 C4065 1.379 . S
H4067 C4061 0.959 . S
H4068 C4061 0.961 . S
H4069 C4061 0.960 . S
H4070 C4062 0.930 . S
H4071 C4063 0.929 . S
H4072 C4080 0.929 . S
H4073 C4082 0.930 . S
H4074 C4084 0.930 . S
H4075 C4087 0.929 . S
H4076 C4090 0.930 . S
H4077 C4092 0.960 . S
H4078 C4092 0.960 . S
H4079 C4092 0.960 . S
C4080 H4072 0.929 . S
C4080 C4081 1.377 . S
C4080 C4082 1.384 . S
C4081 C4080 1.377 . S
C4081 C4087 1.390 . S
C4082 H4073 0.930 . S
C4082 C4080 1.384 . S
C4082 C4083 1.372 . S
C4083 C4082 1.372 . S
C4083 C4084 1.400 . S
C4083 C4088 1.490 . S
C4084 H4074 0.930 . S
C4084 C4083 1.400 . S
C4084 C4087 1.386 . S
H4085 C4101 0.930 . S
H4086 C4102 0.931 . S
C4087 H4075 0.929 . S
C4087 C4081 1.390 . S
C4087 C4084 1.386 . S
C4088 C4083 1.490 . S
C4088 C4090 1.395 . S
C4088 C4091 1.403 . S
H4089 C4095 0.930 . S
C4090 H4076 0.930 . S
C4090 C4088 1.395 . S
C4090 C4093 1.403 . S
C4091 C4088 1.403 . S
C4091 C4092 1.524 . S
C4091 C4095 1.400 . S
C4092 H4077 0.960 . S
C4092 H4078 0.960 . S
C4092 H4079 0.960 . S
C4092 C4091 1.524 . S
C4093 C4090 1.403 . S
C4093 C4094 1.392 . S
C4093 C4097 1.494 1_655 S
C4094 C4093 1.392 . S
C4094 C4095 1.385 . S
C4094 C4096 1.478 . S
C4095 H4089 0.930 . S
C4095 C4091 1.400 . S
C4095 C4094 1.385 . S
C4096 C4094 1.478 . S
C4096 C4098 1.381 . S
C4096 C4102 1.383 . S
C4097 C4093 1.494 1_455 S
C4097 H4103 0.959 . S
C4097 H4104 0.965 1_455 S
C4097 H4105 0.960 . S
C4098 C4096 1.381 . S
C4098 C4099 1.394 1_655 S
C4098 H4106 0.923 1_655 S
C4099 C4098 1.394 1_455 S
C4099 C4100 1.383 1_455 S
C4099 H4107 0.929 . S
C4100 C4099 1.383 1_655 S
C4100 C4101 1.377 . S
C4101 H4085 0.930 . S
C4101 C4100 1.377 . S
C4101 C4102 1.379 . S
C4102 H4086 0.931 . S
C4102 C4096 1.383 . S
C4102 C4101 1.379 . S
H4103 C4097 0.959 . S
H4104 C4097 0.965 1_655 S
H4105 C4097 0.960 . S
H4106 C4098 0.923 1_455 S
H4107 C4099 0.929 . S
H4108 C4116 0.929 . S
H4109 C4118 0.930 . S
H4110 C4120 0.930 . S
H4111 C4123 0.929 . S
H4112 C4126 0.930 . S
H4113 C4128 0.960 . S
H4114 C4128 0.960 . S
H4115 C4128 0.960 . S
C4116 H4108 0.929 . S
C4116 C4117 1.377 . S
C4116 C4118 1.384 . S
C4117 C4116 1.377 . S
C4117 C4123 1.390 . S
C4118 H4109 0.930 . S
C4118 C4116 1.384 . S
C4118 C4119 1.372 . S
C4119 C4118 1.372 . S
C4119 C4120 1.400 . S
C4119 C4124 1.490 . S
C4120 H4110 0.930 . S
C4120 C4119 1.400 . S
C4120 C4123 1.386 . S
H4121 C4137 0.930 . S
H4122 C4138 0.931 . S
C4123 H4111 0.929 . S
C4123 C4117 1.390 . S
C4123 C4120 1.386 . S
C4124 C4119 1.490 . S
C4124 C4126 1.395 . S
C4124 C4127 1.403 . S
H4125 C4131 0.930 . S
C4126 H4112 0.930 . S
C4126 C4124 1.395 . S
C4126 C4129 1.403 . S
C4127 C4124 1.403 . S
C4127 C4128 1.524 . S
C4127 C4131 1.400 . S
C4128 H4113 0.960 . S
C4128 H4114 0.960 . S
C4128 H4115 0.960 . S
C4128 C4127 1.524 . S
C4129 C4126 1.403 . S
C4129 C4130 1.392 . S
C4129 C4133 1.495 . S
C4130 C4129 1.392 . S
C4130 C4131 1.385 . S
C4130 C4132 1.478 . S
C4131 H4125 0.930 . S
C4131 C4127 1.400 . S
C4131 C4130 1.385 . S
C4132 C4130 1.478 . S
C4132 C4134 1.381 . S
C4132 C4138 1.383 . S
C4133 C4129 1.495 . S
C4133 H4139 0.959 . S
C4133 H4140 0.961 . S
C4133 H4141 0.960 . S
C4134 C4132 1.381 . S
C4134 C4135 1.394 . S
C4134 H4142 0.930 . S
C4135 C4134 1.394 . S
C4135 C4136 1.383 . S
C4135 H4143 0.929 . S
C4136 C4135 1.383 . S
C4136 C4137 1.377 . S
C4137 H4121 0.930 . S
C4137 C4136 1.377 . S
C4137 C4138 1.379 . S
C4138 H4122 0.931 . S
C4138 C4132 1.383 . S
C4138 C4137 1.379 . S
H4139 C4133 0.959 . S
H4140 C4133 0.961 . S
H4141 C4133 0.960 . S
H4142 C4134 0.930 . S
H4143 C4135 0.929 . S
H4144 C4152 0.929 . S
H4145 C4154 0.930 . S
H4146 C4156 0.930 . S
H4147 C4159 0.929 . S
H4148 C4162 0.930 . S
H4149 C4164 0.960 . S
H4150 C4164 0.960 . S
H4151 C4164 0.960 . S
C4152 H4144 0.929 . S
C4152 C4153 1.377 . S
C4152 C4154 1.384 . S
C4153 C4152 1.377 . S
C4153 C4159 1.390 . S
C4154 H4145 0.930 . S
C4154 C4152 1.384 . S
C4154 C4155 1.372 . S
C4155 C4154 1.372 . S
C4155 C4156 1.400 . S
C4155 C4160 1.490 . S
C4156 H4146 0.930 . S
C4156 C4155 1.400 . S
C4156 C4159 1.386 . S
H4157 C4173 0.930 . S
H4158 C4174 0.931 . S
C4159 H4147 0.929 . S
C4159 C4153 1.390 . S
C4159 C4156 1.386 . S
C4160 C4155 1.490 . S
C4160 C4162 1.395 . S
C4160 C4163 1.403 . S
H4161 C4167 0.930 . S
C4162 H4148 0.930 . S
C4162 C4160 1.395 . S
C4162 C4165 1.403 . S
C4163 C4160 1.403 . S
C4163 C4164 1.524 . S
C4163 C4167 1.400 . S
C4164 H4149 0.960 . S
C4164 H4150 0.960 . S
C4164 H4151 0.960 . S
C4164 C4163 1.524 . S
C4165 C4162 1.403 . S
C4165 C4166 1.392 . S
C4165 C4169 1.495 . S
C4166 C4165 1.392 . S
C4166 C4167 1.385 . S
C4166 C4168 1.478 . S
C4167 H4161 0.930 . S
C4167 C4163 1.400 . S
C4167 C4166 1.385 . S
C4168 C4166 1.478 . S
C4168 C4170 1.381 . S
C4168 C4174 1.383 . S
C4169 C4165 1.495 . S
C4169 H4175 0.959 . S
C4169 H4176 0.961 . S
C4169 H4177 0.960 . S
C4170 C4168 1.381 . S
C4170 C4171 1.394 . S
C4170 H4178 0.930 . S
C4171 C4170 1.394 . S
C4171 C4172 1.383 . S
C4171 H4179 0.929 . S
C4172 C4171 1.383 . S
C4172 C4173 1.377 . S
C4173 H4157 0.930 . S
C4173 C4172 1.377 . S
C4173 C4174 1.379 . S
C4174 H4158 0.931 . S
C4174 C4168 1.383 . S
C4174 C4173 1.379 . S
H4175 C4169 0.959 . S
H4176 C4169 0.961 . S
H4177 C4169 0.960 . S
H4178 C4170 0.930 . S
H4179 C4171 0.929 . S
H4180 C4188 0.929 . S
H4181 C4190 0.930 . S
H4182 C4192 0.930 . S
H4183 C4195 0.929 . S
H4184 C4198 0.930 . S
H4185 C4200 0.960 . S
H4186 C4200 0.960 . S
H4187 C4200 0.960 . S
C4188 H4180 0.929 . S
C4188 C4189 1.377 . S
C4188 C4190 1.384 . S
C4189 C4188 1.377 . S
C4189 C4195 1.390 . S
C4190 H4181 0.930 . S
C4190 C4188 1.384 . S
C4190 C4191 1.372 . S
C4191 C4190 1.372 . S
C4191 C4192 1.400 . S
C4191 C4196 1.490 . S
C4192 H4182 0.930 . S
C4192 C4191 1.400 . S
C4192 C4195 1.386 . S
H4193 C4209 0.930 . S
H4194 C4210 0.931 . S
C4195 H4183 0.929 . S
C4195 C4189 1.390 . S
C4195 C4192 1.386 . S
C4196 C4191 1.490 . S
C4196 C4198 1.395 . S
C4196 C4199 1.403 . S
H4197 C4203 0.930 . S
C4198 H4184 0.930 . S
C4198 C4196 1.395 . S
C4198 C4201 1.403 . S
C4199 C4196 1.403 . S
C4199 C4200 1.524 . S
C4199 C4203 1.400 . S
C4200 H4185 0.960 . S
C4200 H4186 0.960 . S
C4200 H4187 0.960 . S
C4200 C4199 1.524 . S
C4201 C4198 1.403 . S
C4201 C4202 1.392 . S
C4201 C4205 1.535 . S
C4202 C4201 1.392 . S
C4202 C4203 1.385 . S
C4202 C4204 1.478 . S
C4203 H4197 0.930 . S
C4203 C4199 1.400 . S
C4203 C4202 1.385 . S
C4204 C4202 1.478 . S
C4204 C4206 1.381 . S
C4204 C4210 1.383 . S
C4205 C4201 1.535 . S
C4205 H4211 0.931 1_565 S
C4205 H4212 0.954 1_565 S
C4205 H4213 0.942 1_565 S
C4206 C4204 1.381 . S
C4206 C4207 1.394 1_565 S
C4206 H4214 0.930 . S
C4207 C4206 1.394 1_545 S
C4207 C4208 1.383 . S
C4207 H4215 0.929 . S
C4208 C4207 1.383 . S
C4208 C4209 1.377 1_545 S
C4209 H4193 0.930 . S
C4209 C4208 1.377 1_565 S
C4209 C4210 1.379 . S
C4210 H4194 0.931 . S
C4210 C4204 1.383 . S
C4210 C4209 1.379 . S
H4211 C4205 0.931 1_545 S
H4212 C4205 0.954 1_545 S
H4213 C4205 0.942 1_545 S
H4214 C4206 0.930 . S
H4215 C4207 0.929 . S
H4216 C4224 0.929 . S
H4217 C4226 0.930 . S
H4218 C4228 0.930 . S
H4219 C4231 0.929 . S
H4220 C4234 0.930 . S
H4221 C4236 0.960 . S
H4222 C4236 0.960 . S
H4223 C4236 0.960 . S
C4224 H4216 0.929 . S
C4224 C4225 1.377 . S
C4224 C4226 1.384 . S
C4225 C4224 1.377 . S
C4225 C4231 1.390 . S
C4226 H4217 0.930 . S
C4226 C4224 1.384 . S
C4226 C4227 1.372 . S
C4227 C4226 1.372 . S
C4227 C4228 1.400 . S
C4227 C4232 1.490 . S
C4228 H4218 0.930 . S
C4228 C4227 1.400 . S
C4228 C4231 1.386 . S
H4229 C4245 0.930 . S
H4230 C4246 0.931 . S
C4231 H4219 0.929 . S
C4231 C4225 1.390 . S
C4231 C4228 1.386 . S
C4232 C4227 1.490 . S
C4232 C4234 1.395 . S
C4232 C4235 1.403 . S
H4233 C4239 0.930 . S
C4234 H4220 0.930 . S
C4234 C4232 1.395 . S
C4234 C4237 1.403 . S
C4235 C4232 1.403 . S
C4235 C4236 1.524 . S
C4235 C4239 1.400 . S
C4236 H4221 0.960 . S
C4236 H4222 0.960 . S
C4236 H4223 0.960 . S
C4236 C4235 1.524 . S
C4237 C4234 1.403 . S
C4237 C4238 1.392 . S
C4237 C4241 1.495 . S
C4238 C4237 1.392 . S
C4238 C4239 1.385 . S
C4238 C4240 1.478 . S
C4239 H4233 0.930 . S
C4239 C4235 1.400 . S
C4239 C4238 1.385 . S
C4240 C4238 1.478 . S
C4240 C4242 1.381 . S
C4240 C4246 1.383 . S
C4241 C4237 1.495 . S
C4241 H4247 0.959 . S
C4241 H4248 0.961 . S
C4241 H4249 0.960 . S
C4242 C4240 1.381 . S
C4242 C4243 1.394 . S
C4242 H4250 0.930 . S
C4243 C4242 1.394 . S
C4243 C4244 1.383 . S
C4243 H4251 0.929 . S
C4244 C4243 1.383 . S
C4244 C4245 1.377 . S
C4245 H4229 0.930 . S
C4245 C4244 1.377 . S
C4245 C4246 1.379 . S
C4246 H4230 0.931 . S
C4246 C4240 1.383 . S
C4246 C4245 1.379 . S
H4247 C4241 0.959 . S
H4248 C4241 0.961 . S
H4249 C4241 0.960 . S
H4250 C4242 0.930 . S
H4251 C4243 0.929 . S
H4252 C4260 0.929 . S
H4253 C4262 0.930 . S
H4254 C4264 0.953 . S
H4255 C4267 0.929 . S
H4256 C4270 0.930 . S
H4257 C4272 0.960 . S
H4258 C4272 0.960 . S
H4259 C4272 0.960 . S
C4260 H4252 0.929 . S
C4260 C4261 1.377 . S
C4260 C4262 1.384 . S
C4261 C4260 1.377 . S
C4261 C4267 1.390 1_554 S
C4262 H4253 0.930 . S
C4262 C4260 1.384 . S
C4262 C4263 1.372 . S
C4263 C4262 1.372 . S
C4263 C4264 1.365 1_554 S
C4263 C4268 1.490 . S
C4264 H4254 0.953 . S
C4264 C4263 1.365 1_556 S
C4264 C4267 1.401 . S
H4265 C4281 0.930 1_556 S
H4266 C4282 0.931 1_556 S
C4267 H4255 0.929 . S
C4267 C4261 1.390 1_556 S
C4267 C4264 1.401 . S
C4268 C4263 1.490 . S
C4268 C4270 1.395 . S
C4268 C4271 1.403 . S
H4269 C4275 0.930 . S
C4270 H4256 0.930 . S
C4270 C4268 1.395 . S
C4270 C4273 1.403 . S
C4271 C4268 1.403 . S
C4271 C4272 1.524 . S
C4271 C4275 1.400 . S
C4272 H4257 0.960 . S
C4272 H4258 0.960 . S
C4272 H4259 0.960 . S
C4272 C4271 1.524 . S
C4273 C4270 1.403 . S
C4273 C4274 1.392 . S
C4273 C4277 1.495 . S
C4274 C4273 1.392 . S
C4274 C4275 1.385 . S
C4274 C4276 1.478 . S
C4275 H4269 0.930 . S
C4275 C4271 1.400 . S
C4275 C4274 1.385 . S
C4276 C4274 1.478 . S
C4276 C4278 1.381 . S
C4276 C4282 1.383 . S
C4277 C4273 1.495 . S
C4277 H4283 0.959 . S
C4277 H4284 0.961 1_554 S
C4277 H4285 0.960 . S
C4278 C4276 1.381 . S
C4278 C4279 1.394 . S
C4278 H4286 0.930 . S
C4279 C4278 1.394 . S
C4279 C4280 1.383 . S
C4279 H4287 0.929 . S
C4280 C4279 1.383 . S
C4280 C4281 1.377 . S
C4281 H4265 0.930 1_554 S
C4281 C4280 1.377 . S
C4281 C4282 1.379 . S
C4282 H4266 0.931 1_554 S
C4282 C4276 1.383 . S
C4282 C4281 1.379 . S
H4283 C4277 0.959 . S
H4284 C4277 0.961 1_556 S
H4285 C4277 0.960 . S
H4286 C4278 0.930 . S
H4287 C4279 0.929 . S
H4288 C4296 0.929 . S
H4289 C4298 0.930 . S
H4290 C4300 0.930 . S
H4291 C4303 0.929 . S
H4292 C4306 0.930 . S
H4293 C4308 0.960 . S
H4294 C4308 0.960 . S
H4295 C4308 0.960 . S
C4296 H4288 0.929 . S
C4296 C4297 1.377 . S
C4296 C4298 1.384 . S
C4297 C4296 1.377 . S
C4297 C4303 1.390 . S
C4298 H4289 0.930 . S
C4298 C4296 1.384 . S
C4298 C4299 1.372 . S
C4299 C4298 1.372 . S
C4299 C4300 1.400 . S
C4299 C4304 1.490 . S
C4300 H4290 0.930 . S
C4300 C4299 1.400 . S
C4300 C4303 1.386 . S
H4301 C4317 0.930 . S
H4302 C4318 0.931 . S
C4303 H4291 0.929 . S
C4303 C4297 1.390 . S
C4303 C4300 1.386 . S
C4304 C4299 1.490 . S
C4304 C4306 1.395 . S
C4304 C4307 1.403 . S
H4305 C4311 0.930 . S
C4306 H4292 0.930 . S
C4306 C4304 1.395 . S
C4306 C4309 1.403 . S
C4307 C4304 1.403 . S
C4307 C4308 1.524 . S
C4307 C4311 1.400 . S
C4308 H4293 0.960 . S
C4308 H4294 0.960 . S
C4308 H4295 0.960 . S
C4308 C4307 1.524 . S
C4309 C4306 1.403 . S
C4309 C4310 1.392 . S
C4309 C4313 1.495 . S
C4310 C4309 1.392 . S
C4310 C4311 1.385 . S
C4310 C4312 1.478 . S
C4311 H4305 0.930 . S
C4311 C4307 1.400 . S
C4311 C4310 1.385 . S
C4312 C4310 1.478 . S
C4312 C4314 1.381 . S
C4312 C4318 1.383 . S
C4313 C4309 1.495 . S
C4313 H4319 0.959 . S
C4313 H4320 0.961 . S
C4313 H4321 0.960 . S
C4314 C4312 1.381 . S
C4314 C4315 1.394 . S
C4314 H4322 0.930 . S
C4315 C4314 1.394 . S
C4315 C4316 1.383 . S
C4315 H4323 0.929 . S
C4316 C4315 1.383 . S
C4316 C4317 1.377 . S
C4317 H4301 0.930 . S
C4317 C4316 1.377 . S
C4317 C4318 1.379 . S
C4318 H4302 0.931 . S
C4318 C4312 1.383 . S
C4318 C4317 1.379 . S
H4319 C4313 0.959 . S
H4320 C4313 0.961 . S
H4321 C4313 0.960 . S
H4322 C4314 0.930 . S
H4323 C4315 0.929 . S
H4324 C4332 0.929 . S
H4325 C4334 0.930 . S
H4326 C4336 0.930 . S
H4327 C4339 0.929 . S
H4328 C4342 0.930 . S
H4329 C4344 0.960 . S
H4330 C4344 0.960 . S
H4331 C4344 0.960 . S
C4332 H4324 0.929 . S
C4332 C4333 1.377 . S
C4332 C4334 1.384 . S
C4333 C4332 1.377 . S
C4333 C4339 1.390 . S
C4334 H4325 0.930 . S
C4334 C4332 1.384 . S
C4334 C4335 1.372 . S
C4335 C4334 1.372 . S
C4335 C4336 1.400 . S
C4335 C4340 1.490 . S
C4336 H4326 0.930 . S
C4336 C4335 1.400 . S
C4336 C4339 1.386 . S
H4337 C4353 0.930 . S
H4338 C4354 0.931 . S
C4339 H4327 0.929 . S
C4339 C4333 1.390 . S
C4339 C4336 1.386 . S
C4340 C4335 1.490 . S
C4340 C4342 1.395 . S
C4340 C4343 1.403 . S
H4341 C4347 0.930 . S
C4342 H4328 0.930 . S
C4342 C4340 1.395 . S
C4342 C4345 1.403 . S
C4343 C4340 1.403 . S
C4343 C4344 1.524 . S
C4343 C4347 1.400 . S
C4344 H4329 0.960 . S
C4344 H4330 0.960 . S
C4344 H4331 0.960 . S
C4344 C4343 1.524 . S
C4345 C4342 1.403 . S
C4345 C4346 1.392 . S
C4345 C4349 1.495 . S
C4346 C4345 1.392 . S
C4346 C4347 1.385 . S
C4346 C4348 1.478 . S
C4347 H4341 0.930 . S
C4347 C4343 1.400 . S
C4347 C4346 1.385 . S
C4348 C4346 1.478 . S
C4348 C4350 1.381 . S
C4348 C4354 1.383 1_554 S
C4349 C4345 1.495 . S
C4349 H4355 0.959 . S
C4349 H4356 0.961 1_554 S
C4349 H4357 0.960 . S
C4350 C4348 1.381 . S
C4350 C4351 1.394 . S
C4350 H4358 0.930 . S
C4351 C4350 1.394 . S
C4351 C4352 1.383 . S
C4351 H4359 0.929 . S
C4352 C4351 1.383 . S
C4352 C4353 1.377 1_554 S
C4353 H4337 0.930 . S
C4353 C4352 1.377 1_556 S
C4353 C4354 1.379 . S
C4354 H4338 0.931 . S
C4354 C4348 1.383 1_556 S
C4354 C4353 1.379 . S
H4355 C4349 0.959 . S
H4356 C4349 0.961 1_556 S
H4357 C4349 0.960 . S
H4358 C4350 0.930 . S
H4359 C4351 0.929 . S
H4360 C4368 0.982 . S
H4361 C4370 0.930 . S
H4362 C4372 0.930 . S
H4363 C4375 0.929 . S
H4364 C4378 0.930 . S
H4365 C4380 0.960 . S
H4366 C4380 0.960 . S
H4367 C4380 0.960 . S
C4368 H4360 0.982 . S
C4368 C4369 1.377 . S
C4368 C4370 1.384 . S
C4369 C4368 1.377 . S
C4369 C4375 1.390 . S
C4370 H4361 0.930 . S
C4370 C4368 1.384 . S
C4370 C4371 1.372 . S
C4371 C4370 1.372 . S
C4371 C4372 1.400 . S
C4371 C4376 1.490 . S
C4372 H4362 0.930 . S
C4372 C4371 1.400 . S
C4372 C4375 1.386 . S
H4373 C4389 0.930 . S
H4374 C4390 0.931 . S
C4375 H4363 0.929 . S
C4375 C4369 1.390 . S
C4375 C4372 1.386 . S
C4376 C4371 1.490 . S
C4376 C4378 1.395 . S
C4376 C4379 1.403 . S
H4377 C4383 0.930 . S
C4378 H4364 0.930 . S
C4378 C4376 1.395 . S
C4378 C4381 1.403 . S
C4379 C4376 1.403 . S
C4379 C4380 1.524 . S
C4379 C4383 1.400 . S
C4380 H4365 0.960 . S
C4380 H4366 0.960 . S
C4380 H4367 0.960 . S
C4380 C4379 1.524 . S
C4381 C4378 1.403 . S
C4381 C4382 1.392 . S
C4381 C4385 1.495 . S
C4382 C4381 1.392 . S
C4382 C4383 1.385 . S
C4382 C4384 1.478 . S
C4383 H4377 0.930 . S
C4383 C4379 1.400 . S
C4383 C4382 1.385 . S
C4384 C4382 1.478 . S
C4384 C4386 1.381 . S
C4384 C4390 1.383 . S
C4385 C4381 1.495 . S
C4385 H4391 0.959 . S
C4385 H4392 0.961 . S
C4385 H4393 0.960 . S
C4386 C4384 1.381 . S
C4386 C4387 1.394 . S
C4386 H4394 0.930 . S
C4387 C4386 1.394 . S
C4387 C4388 1.383 . S
C4387 H4395 0.929 . S
C4388 C4387 1.383 . S
C4388 C4389 1.377 . S
C4389 H4373 0.930 . S
C4389 C4388 1.377 . S
C4389 C4390 1.379 . S
C4390 H4374 0.931 . S
C4390 C4384 1.383 . S
C4390 C4389 1.379 . S
H4391 C4385 0.959 . S
H4392 C4385 0.961 . S
H4393 C4385 0.960 . S
H4394 C4386 0.930 . S
H4395 C4387 0.929 . S
H4396 C4404 0.929 . S
H4397 C4406 0.930 . S
H4398 C4408 0.930 . S
H4399 C4411 0.929 . S
H4400 C4414 0.930 . S
H4401 C4416 0.960 . S
H4402 C4416 0.960 . S
H4403 C4416 0.960 . S
C4404 H4396 0.929 . S
C4404 C4405 1.377 . S
C4404 C4406 1.384 . S
C4405 C4404 1.377 . S
C4405 C4411 1.390 . S
C4406 H4397 0.930 . S
C4406 C4404 1.384 . S
C4406 C4407 1.372 . S
C4407 C4406 1.372 . S
C4407 C4408 1.400 . S
C4407 C4412 1.490 . S
C4408 H4398 0.930 . S
C4408 C4407 1.400 . S
C4408 C4411 1.386 . S
H4409 C4425 0.930 . S
H4410 C4426 0.931 . S
C4411 H4399 0.929 . S
C4411 C4405 1.390 . S
C4411 C4408 1.386 . S
C4412 C4407 1.490 . S
C4412 C4414 1.395 . S
C4412 C4415 1.403 . S
H4413 C4419 0.930 . S
C4414 H4400 0.930 . S
C4414 C4412 1.395 . S
C4414 C4417 1.403 . S
C4415 C4412 1.403 . S
C4415 C4416 1.524 . S
C4415 C4419 1.400 . S
C4416 H4401 0.960 . S
C4416 H4402 0.960 . S
C4416 H4403 0.960 . S
C4416 C4415 1.524 . S
C4417 C4414 1.403 . S
C4417 C4418 1.392 . S
C4417 C4421 1.495 . S
C4418 C4417 1.392 . S
C4418 C4419 1.385 . S
C4418 C4420 1.478 . S
C4419 H4413 0.930 . S
C4419 C4415 1.400 . S
C4419 C4418 1.385 . S
C4420 C4418 1.478 . S
C4420 C4422 1.381 . S
C4420 C4426 1.383 . S
C4421 C4417 1.495 . S
C4421 H4427 0.959 . S
C4421 H4428 0.961 . S
C4421 H4429 0.960 . S
C4422 C4420 1.381 . S
C4422 C4423 1.394 . S
C4422 H4430 0.930 . S
C4423 C4422 1.394 . S
C4423 C4424 1.383 . S
C4423 H4431 0.929 . S
C4424 C4423 1.383 . S
C4424 C4425 1.377 . S
C4425 H4409 0.930 . S
C4425 C4424 1.377 . S
C4425 C4426 1.379 . S
C4426 H4410 0.931 . S
C4426 C4420 1.383 . S
C4426 C4425 1.379 . S
H4427 C4421 0.959 . S
H4428 C4421 0.961 . S
H4429 C4421 0.960 . S
H4430 C4422 0.930 . S
H4431 C4423 0.929 . S
C985 C106 2.554 . S
C1004 C346 2.553 . S
C1021 C65 2.001 . S
C1040 C394 1.992 . S
C1057 C79 1.432 . S
C1076 C426 1.397 . S
C1112 C471 1.149 . S
C1093 C90 1.139 . S
C1129 C21 0.957 . S
C1148 C511 0.995 . S
C1184 C542 0.297 . S
C1165 C35 0.436 . S
C1220 C594 1.156 . S
C1201 C50 1.181 . S
C1237 C6 1.755 . S
C1256 C626 1.779 . S
C1292 C354 2.648 . S
C1273 C232 2.655 . S
C1309 C245 0.444 . S
C1328 C391 0.325 . S
C1364 C434 1.388 . S
C1345 C274 1.407 . S
C1400 C466 1.186 . S
C1381 C175 1.168 . S
C1417 C231 1.480 . S
C1436 C506 1.476 . S
C1472 C545 1.423 . S
C1453 C246 1.435 . S
C1508 C591 0.304 . S
C1489 C273 0.384 . S
C1544 C634 2.164 . S
C1525 C176 2.150 . S
C1580 C351 1.422 . S
C1561 C160 1.434 . S
C1597 C289 1.976 . S
C1616 C674 1.961 . S
C1652 C715 2.667 . S
C1633 C328 2.654 . S
C1688 C746 0.787 1_655 S
C1669 C317 0.751 . S
C1705 C118 1.362 . S
C1724 C631 1.419 . S
C1741 C132 1.529 . S
C1760 C431 1.555 . S
C1777 C331 2.384 . S
C1796 C794 2.367 . S
C1832 C826 0.736 . S
C1813 C303 0.716 . S
C1868 C355 2.052 1_565 S
C1849 C63 2.082 . S
C1904 C825 2.482 . S
C1885 C107 2.453 . S
C1921 C92 1.184 . S
C1940 C435 1.207 . S
C1957 C78 1.726 . S
C1976 C782 1.725 . S
C2012 C502 1.443 . S
C1993 C8 1.469 . S
C2029 C51 0.489 . S
C2048 C711 0.523 . S
C2084 C585 1.683 1_566 S
C2065 C37 1.626 . S
C2120 C875 1.610 . S
C2101 C20 1.647 . S
C2156 C345 2.465 . S
C2137 C147 2.431 . S
C2192 C822 0.477 . S
C2173 C316 0.419 . S
C2209 C119 1.296 . S
C2228 C425 1.333 . S
C2245 C288 1.322 . S
C2264 C795 1.304 . S
C2281 C148 1.928 1_545 S
C2300 C515 1.902 . S
C2336 C714 1.405 . S
C2317 C315 1.400 . S
C2353 C120 0.289 . S
C2372 C582 0.340 . S
C2389 C287 1.998 . S
C2408 C865 2.000 . S
C2425 C188 1.315 . S
C2444 C342 1.279 . S
C2461 C177 2.337 . S
C2480 C665 2.354 . S
C2497 C258 2.759 . S
C2516 C546 2.802 . S
C2533 C247 0.783 . S
C2552 C755 0.808 . S
C2588 C862 1.135 . S
C2569 C272 1.153 . S
C2605 C216 1.309 . S
C2624 C422 1.337 . S
C2660 C465 2.628 . S
C2641 C261 2.624 . S
C2696 C395 0.682 . S
C2677 C205 0.687 . S
C2713 C76 2.134 . S
C2732 C906 2.129 . S
C2768 C834 2.101 . S
C2749 C93 2.108 . S
C2785 C105 0.992 . S
C2804 C946 0.938 . S
C2821 C62 1.166 . S
C2840 C791 1.183 . S
C2857 C49 0.951 . S
C2876 C671 0.979 . S
C2912 C702 0.759 . S
C2893 C9 0.717 . S
C2948 C754 1.054 . S
C2929 C22 1.079 . S
C2984 C866 2.106 . S
C2965 C36 2.182 . S
C3020 C914 2.577 . S
C3001 C260 2.580 . S
C3037 C189 0.427 . S
C3056 C831 0.394 . S
C3092 C954 1.273 . S
C3073 C204 1.277 . S
C3128 C786 0.945 . S
C3109 C217 0.986 . S
C3164 C666 1.809 . S
C3145 C259 1.772 . S
C3181 C190 1.546 . S
C3200 C705 1.508 . S
C3236 C751 0.337 . S
C3217 C203 0.388 . S
C3253 C218 2.250 . S
C3272 C874 2.249 . S
C3308 C911 1.438 . S
C3289 C314 1.411 . S
C3325 C135 2.069 . S
C3344 C514 2.063 . S
C3380 C555 2.530 . S
C3361 C146 2.523 . S
C3416 C586 0.809 . S
C3397 C163 0.774 . S
C3452 C871 1.431 . S
C3433 C300 1.379 . S
C3469 C286 1.483 . S
C3488 C951 1.535 . S
C3524 C474 2.267 . S
C3505 C149 2.273 . S
C3560 C386 0.740 . S
C3541 C121 0.659 . S
C3577 C91 2.062 . S
C3596 C915 2.034 . S
C3632 C385 2.056 . S
C3613 C77 1.976 . S
C3649 C64 1.156 . S
C3668 C955 1.158 . S
C3685 C104 1.350 . S
C3704 C462 1.362 . S
C3721 C34 1.057 . S
C3740 C662 1.041 . S
C3776 C551 0.443 . S
C3757 C23 0.475 . S
C3793 C7 1.177 . S
C3812 C745 1.259 . S
C3829 C48 1.621 . S
C3848 C635 1.591 . S
C3884 C905 2.436 . S
C3865 C329 2.403 . S
C3901 C162 0.430 . S
C3920 C382 0.517 . S
C3956 C945 1.307 1_556 S
C3937 C301 1.304 . S
C3973 C134 1.336 . S
C3992 C475 1.315 . S
C4009 C330 1.905 . S
C4028 C675 1.864 . S
C4064 C554 1.437 . S
C4045 C161 1.430 . S
C4081 C302 0.300 . S
C4100 C742 0.369 . S
C4136 C625 1.966 . S
C4117 C133 1.977 . S
C4172 C902 1.514 . S
C4153 C244 1.509 . S
C4208 C505 2.273 1_655 S
C4189 C219 2.257 . S
C4225 C230 2.396 . S
C4244 C706 2.412 . S
C4280 C595 0.756 . S
C4261 C191 0.778 . S
C4297 C202 1.336 . S
C4316 C622 1.319 . S
C4333 C174 1.547 . S
C4352 C942 1.580 . S
C4388 C785 2.582 . S
C4369 C233 2.582 1_565 S
C4424 C835 0.663 . S
C4405 C275 0.680 . S
