# Generated by pormake.
# Topology ssa, (4,4)-cn, num edge types: 1
# Building blocks:
#     Node 0, Type 0, BuildingBlock: ESEHIV_clean_sbu_0, # of connection points: 4
#     Node 1, Type 0, BuildingBlock: ESEHIV_clean_sbu_0, # of connection points: 4
#     Node 2, Type 0, BuildingBlock: ESEHIV_clean_sbu_0, # of connection points: 4
#     Node 3, Type 0, BuildingBlock: ESEHIV_clean_sbu_0, # of connection points: 4
#     Node 4, Type 0, BuildingBlock: ESEHIV_clean_sbu_0, # of connection points: 4
#     Node 5, Type 0, BuildingBlock: ESEHIV_clean_sbu_0, # of connection points: 4
#     Node 6, Type 1, BuildingBlock: KOZSID_clean_sbu_0, # of connection points: 4
#     Node 7, Type 1, BuildingBlock: KOZSID_clean_sbu_0, # of connection points: 4
#     Node 8, Type 1, BuildingBlock: KOZSID_clean_sbu_0, # of connection points: 4
#     Node 9, Type 1, BuildingBlock: KOZSID_clean_sbu_0, # of connection points: 4
#     Node 10, Type 1, BuildingBlock: KOZSID_clean_sbu_0, # of connection points: 4
#     Node 11, Type 1, BuildingBlock: KOZSID_clean_sbu_0, # of connection points: 4
#     Edge 12, Type (0, 1), None
#     Edge 13, Type (0, 1), None
#     Edge 14, Type (0, 1), None
#     Edge 15, Type (0, 1), None
#     Edge 16, Type (0, 1), None
#     Edge 17, Type (0, 1), None
#     Edge 18, Type (0, 1), None
#     Edge 19, Type (0, 1), None
#     Edge 20, Type (0, 1), None
#     Edge 21, Type (0, 1), None
#     Edge 22, Type (0, 1), None
#     Edge 23, Type (0, 1), None
#     Edge 24, Type (0, 1), None
#     Edge 25, Type (0, 1), None
#     Edge 26, Type (0, 1), None
#     Edge 27, Type (0, 1), None
#     Edge 28, Type (0, 1), None
#     Edge 29, Type (0, 1), None
#     Edge 30, Type (0, 1), None
#     Edge 31, Type (0, 1), None
#     Edge 32, Type (0, 1), None
#     Edge 33, Type (0, 1), None
#     Edge 34, Type (0, 1), None
#     Edge 35, Type (0, 1), None
# Relax obj value: 0.044
# Max RMSD: 0.123
# Mean RMSD: 0.063
data_MOF--net-ssa--node1-ESEHIV_clean_sbu_0--node2-KOZSID_clean_sbu_0--edge1-none
_symmetry_space_group_name_H-M    P1
_symmetry_Int_Tables_number       1
_symmetry_cell_setting            triclinic
loop_
_symmetry_equiv_pos_as_xyz
'x, y, z'
_cell_length_a     27.207706
_cell_length_b     30.233606
_cell_length_c     19.83941
_cell_angle_alpha  92.112969
_cell_angle_beta   97.438872
_cell_angle_gamma 124.18098
loop_
_atom_site_label
_atom_site_type_symbol
_atom_site_fract_x
_atom_site_fract_y
_atom_site_fract_z
_atom_type_partial_charge
Cu0 Cu 0.0383 0.53912 0.03435 0.0
N1 N 1.00889 0.47109 0.98989 0.0
N2 N 0.95697 0.38941 0.92941 0.0
C3 C 0.9821 0.44269 0.92676 0.0
C4 C 0.96653 0.384 0.99546 0.0
C5 C 0.99656 0.43337 0.03211 0.0
O6 O 0.96418 0.54332 1.00818 0.0
C7 C 0.12674 0.51921 0.09932 0.0
O8 O 0.13146 0.51482 0.03477 0.0
H9 H 0.97553 0.45927 0.88179 0.0
H10 H 1.00313 0.44002 0.08733 0.0
N11 N 0.10082 0.60894 0.02193 0.0
N12 N 0.16784 0.69116 0.08323 0.0
C13 C 0.10948 0.64856 0.06672 0.0
C14 C 0.1555 0.62818 1.00642 0.0
C15 C 0.19668 0.67874 0.04402 0.0
C16 C 0.95995 0.566 0.95485 0.0
O17 O 1.00474 0.58764 0.92071 0.0
H18 H 0.07615 0.64115 0.09761 0.0
H19 H 0.16672 0.60427 0.97926 0.0
O20 O 0.0888 0.53025 0.11403 0.0
H21 H 0.94614 0.34607 1.01635 0.0
H22 H 0.24533 0.70053 0.05035 0.0
Cu23 Cu 0.53491 1.01405 0.52727 0.0
N24 N 0.57326 0.98619 0.47823 0.0
N25 N 0.59469 0.93166 0.42343 0.0
C26 C 0.56276 0.95483 0.41844 0.0
C27 C 0.62379 0.94755 0.48881 0.0
C28 C 0.61111 0.97986 0.52097 0.0
O29 O 0.45976 0.94704 0.52877 0.0
C30 C 0.64093 0.10059 0.58103 0.0
O31 O 0.63266 0.10604 0.51599 0.0
H32 H 0.52996 0.94654 0.3738 0.0
H33 H 0.62409 0.99306 0.57545 0.0
N34 N 0.50847 0.06227 0.53505 0.0
N35 N 0.48167 0.10963 0.59525 0.0
C36 C 0.49531 0.07254 0.59567 0.0
C37 C 0.50198 0.094 0.49421 0.0
C38 C 0.48564 0.12282 0.53085 0.0
C39 C 0.42488 0.93833 0.47279 0.0
O40 O 0.44419 0.97452 0.43019 0.0
H41 H 0.49674 0.0534 0.64016 0.0
H42 H 0.51034 0.09746 0.44219 0.0
O43 O 0.60091 0.05757 0.60293 0.0
H44 H 0.64969 0.9337 0.5137 0.0
H45 H 0.47963 0.15297 0.51216 0.0
Cu46 Cu 0.51512 0.51537 1.00021 0.0
N47 N 0.47812 0.44021 0.96341 0.0
N48 N 0.46198 0.36628 0.90066 0.0
C49 C 0.49434 0.40482 0.95781 0.0
C50 C 0.42468 0.37861 0.87045 0.0
C51 C 0.43393 0.4223 0.90848 0.0
O52 O 0.57318 0.54859 0.94069 0.0
C53 C 0.42259 0.4927 0.05282 0.0
O54 O 0.43816 0.461 0.07484 0.0
H55 H 0.52912 0.40786 0.9948 0.0
H56 H 0.41343 0.44319 0.89311 0.0
N57 N 0.56103 0.56618 0.08276 0.0
N58 N 0.59356 0.64511 0.14682 0.0
C59 C 0.56848 0.61474 0.08428 0.0
C60 C 0.58435 0.56655 0.14716 0.0
C61 C 0.60499 0.61524 0.18605 0.0
C62 C 0.61424 0.54162 0.96315 0.0
O63 O 0.61105 0.51914 0.01928 0.0
H64 H 0.55357 0.62681 0.03988 0.0
H65 H 0.58455 0.53337 0.16539 0.0
O66 O 0.44583 0.51856 1.00329 0.0
H67 H 0.39422 0.35877 0.82171 0.0
H68 H 0.62546 0.62744 0.23964 0.0
Cu69 Cu 1.00902 0.50969 0.52753 0.0
N70 N 1.01576 0.47198 0.45914 0.0
N71 N 0.07067 0.45966 0.39819 0.0
C72 C 0.07118 0.4864 0.45363 0.0
C73 C 1.01214 0.42601 0.36744 0.0
C74 C 0.97787 0.43404 0.40544 0.0
O75 O 0.07871 0.58613 0.52058 0.0
C76 C 0.97548 0.41765 0.60328 0.0
O77 O 0.9912 0.40093 0.5537 0.0
H78 H 0.11158 0.5174 0.48897 0.0
H79 H 0.92968 0.4152 0.39363 0.0
N80 N 0.94382 0.51368 0.50851 0.0
N81 N 0.89418 0.54318 0.55123 0.0
C82 C 0.94824 0.55507 0.54287 0.0
C83 C 0.88452 0.47416 0.49231 0.0
C84 C 0.85354 0.4926 0.51843 0.0
C85 C 0.07103 0.59901 0.46056 0.0
O86 O 1.02071 0.56307 0.41811 0.0
H87 H 0.99063 0.58928 0.57176 0.0
H88 H 0.86605 0.43285 0.47292 0.0
O89 O 0.98843 0.46596 0.60696 0.0
H90 H 0.99588 0.39963 0.3196 0.0
H91 H 0.80619 0.46797 0.52241 0.0
Cu92 Cu 0.54472 0.02554 0.06393 0.0
N93 N 0.5258 0.07454 0.07797 0.0
N94 N 0.48813 0.11714 0.02957 0.0
C95 C 0.48264 0.07019 0.03134 0.0
C96 C 0.53509 0.15186 0.08033 0.0
C97 C 0.55858 0.12538 0.11014 0.0
O98 O 0.57855 0.04428 0.97467 0.0
C99 C 0.45887 0.95954 0.14721 0.0
O100 O 0.48918 1.0077 0.18278 0.0
H101 H 0.45309 0.03504 0.99324 0.0
H102 H 0.60078 0.14372 0.14571 0.0
N103 N 0.60945 0.03725 0.12463 0.0
N104 N 0.652 0.99685 0.16687 0.0
C105 C 0.62778 1.00573 0.1102 0.0
C106 C 0.6255 0.05185 0.19285 0.0
C107 C 0.65194 0.02679 0.2191 0.0
C108 C 0.62829 0.09216 0.98174 0.0
O109 O 0.64889 0.1201 0.04307 0.0
H110 H 0.6118 0.98071 0.06116 0.0
H111 H 0.61049 0.07156 0.22216 0.0
O112 O 0.47332 0.95547 0.0886 0.0
H113 H 0.55605 0.1949 0.08899 0.0
H114 H 0.66046 0.0233 0.27285 0.0
Cu115 Cu 0.52305 0.51147 0.53508 0.0
N116 N 0.57058 0.55202 0.47397 0.0
N117 N 0.59612 0.61814 0.41024 0.0
C118 C 0.58384 0.60181 0.4714 0.0
C119 C 0.5904 0.57687 0.37254 0.0
C120 C 0.57565 0.53625 0.41258 0.0
O121 O 0.44687 0.51028 0.50111 0.0
C122 C 0.63936 0.57471 0.63698 0.0
O123 O 0.66361 0.60172 0.58678 0.0
H124 H 0.57578 0.62218 0.50997 0.0
H125 H 0.56113 0.49571 0.39495 0.0
N126 N 0.50073 0.44013 0.52519 0.0
N127 N 0.48626 0.36476 0.55998 0.0
C128 C 0.50521 0.41589 0.57907 0.0
C129 C 0.47729 0.40241 0.46993 0.0
C130 C 0.46776 0.35558 0.49148 0.0
C131 C 0.42181 0.49442 0.43645 0.0
O132 O 0.44472 0.47755 0.39696 0.0
H133 H 0.52148 0.43521 0.63169 0.0
H134 H 0.46756 0.40812 0.41774 0.0
O135 O 0.58093 0.54138 0.62815 0.0
H136 H 0.58985 0.57339 0.31821 0.0
H137 H 0.44903 0.31789 0.45947 0.0
C138 C 0.23172 0.56116 0.17507 0.0
C139 C 0.25646 0.60975 0.14896 0.0
C140 C 0.31192 0.64551 0.18911 0.0
C141 C 0.3199 0.61578 0.23438 0.0
N142 N 0.27318 0.56372 0.22471 0.0
Co143 Co 0.27851 0.50542 0.25948 0.0
N144 N 0.34869 0.55582 0.33522 0.0
C145 C 0.38006 0.60995 0.34085 0.0
C146 C 0.42449 0.63559 0.3982 0.0
C147 C 0.4228 0.59528 0.42971 0.0
C148 C 0.37685 0.54688 0.39021 0.0
N149 N 0.28544 0.44729 0.29307 0.0
C150 C 0.32055 0.44732 0.34947 0.0
C151 C 0.31118 0.39713 0.3488 0.0
C152 C 0.27122 0.36576 0.28979 0.0
C153 C 0.25763 0.39789 0.25739 0.0
N154 N 0.20699 0.45572 0.18566 0.0
C155 C 0.18846 0.40539 0.16278 0.0
C156 C 0.13655 0.37928 0.11405 0.0
C157 C 0.12161 0.41557 0.1057 0.0
C158 C 0.1651 0.46216 0.15002 0.0
N159 N 0.33316 0.51737 0.19534 0.0
C160 C 0.39626 0.50927 0.10013 0.0
C161 C 0.41599 0.51533 0.17089 0.0
C162 C 0.38413 0.51946 0.21739 0.0
C163 C 0.34801 0.51295 0.07806 0.0
C164 C 0.31712 0.51719 0.12667 0.0
N165 N 0.22235 0.4916 0.32021 0.0
C166 C 0.12403 0.42803 0.34614 0.0
C167 C 0.12324 0.47028 0.37443 0.0
C168 C 0.17483 0.52332 0.38019 0.0
C169 C 0.22415 0.53314 0.35262 0.0
C170 C 0.17457 0.4395 0.32058 0.0
H171 H 0.26203 0.57432 0.35374 0.0
H172 H 0.17288 0.40604 0.2971 0.0
H173 H 0.39882 0.52087 0.27084 0.0
H174 H 0.27811 0.51709 0.10789 0.0
C175 C 0.36674 0.63495 0.29062 0.0
C176 C 0.16916 0.51355 0.15132 0.0
C177 C 0.36844 0.49485 0.40071 0.0
C178 C 0.21479 0.3817 0.19709 0.0
H179 H 0.23523 0.61916 0.10773 0.0
H180 H 0.34083 0.68829 0.18678 0.0
H181 H 0.45584 0.67862 0.41399 0.0
H182 H 0.4538 0.60102 0.47481 0.0
H183 H 0.33238 0.3849 0.3863 0.0
H184 H 0.25382 0.32426 0.27288 0.0
H185 H 0.11116 0.33804 0.08934 0.0
H186 H 0.08347 0.40866 0.07046 0.0
H187 H 0.4543 0.51416 0.19034 0.0
H188 H 0.33189 0.50911 0.02388 0.0
H189 H 0.08555 0.38659 0.34296 0.0
H190 H 0.17584 0.55708 0.40264 0.0
C191 C 0.69129 0.19224 0.64949 0.0
C192 C 0.651 0.20239 0.61671 0.0
C193 C 0.65603 0.24227 0.65868 0.0
C194 C 0.69842 0.25358 0.71484 0.0
N195 N 0.7223 0.22509 0.70936 0.0
Co196 Co 0.79339 0.23696 0.77065 0.0
N197 N 0.80159 0.29562 0.82894 0.0
C198 C 0.75894 0.30455 0.83284 0.0
C199 C 0.77582 0.3436 0.88582 0.0
C200 C 0.83407 0.36222 0.91399 0.0
C201 C 0.84922 0.33377 0.87556 0.0
N202 N 0.8666 0.2514 0.82999 0.0
C203 C 0.912 0.29839 0.86786 0.0
C204 C 0.95977 0.2958 0.89518 0.0
C205 C 0.94329 0.24498 0.87328 0.0
C206 C 0.88686 0.21979 0.83358 0.0
N207 N 0.78387 0.17594 0.71407 0.0
C208 C 0.81322 0.1525 0.72956 0.0
C209 C 0.79439 0.10881 0.68326 0.0
C210 C 0.74895 0.10311 0.63674 0.0
C211 C 0.74239 0.14346 0.65801 0.0
N212 N 0.84747 0.29098 0.71258 0.0
C213 C 0.93437 0.37635 0.64612 0.0
C214 C 0.93399 0.33007 0.65501 0.0
C215 C 0.89109 0.28858 0.68871 0.0
C216 C 0.88948 0.37819 0.67065 0.0
C217 C 0.8465 0.33529 0.70237 0.0
N218 N 0.74031 0.18488 0.83177 0.0
C219 C 0.72476 0.16699 0.94815 0.0
C220 C 0.666 0.11979 0.92666 0.0
C221 C 0.64625 0.1049 0.85512 0.0
C222 C 0.68398 0.13776 0.80882 0.0
C223 C 0.76029 0.19826 0.90115 0.0
H224 H 0.66638 0.12557 0.7547 0.0
H225 H 0.80401 0.23453 0.92184 0.0
H226 H 0.89397 0.25492 0.69623 0.0
H227 H 0.81298 0.33893 0.71931 0.0
C228 C 0.7138 0.28744 0.77549 0.0
C229 C 0.69306 0.1466 0.62765 0.0
C230 C 0.9092 0.34469 0.88164 0.0
C231 C 0.85946 0.17349 0.78653 0.0
H232 H 0.61966 0.18175 0.56886 0.0
H233 H 0.62954 0.25875 0.65095 0.0
H234 H 0.75131 0.36033 0.89812 0.0
H235 H 0.86294 0.39483 0.9555 0.0
H236 H 1.00245 0.32751 0.92643 0.0
H237 H 0.97106 0.22977 0.88107 0.0
H238 H 0.81133 0.08386 0.68358 0.0
H239 H 0.72289 0.07225 0.59296 0.0
H240 H 0.96696 0.32587 0.6361 0.0
H241 H 0.88621 0.41188 0.66358 0.0
H242 H 0.74371 0.18106 1.00218 0.0
H243 H 0.60148 0.06931 0.83487 0.0
C244 C 0.54616 0.6978 0.15938 0.0
C245 C 0.49116 0.65862 0.11813 0.0
C246 C 0.45056 0.66942 0.13055 0.0
C247 C 0.48247 0.71432 0.17861 0.0
N248 N 0.54142 0.73395 0.19629 0.0
Co249 Co 0.6001 0.79508 0.27197 0.0
N250 N 0.53669 0.80268 0.30097 0.0
C251 C 0.47708 0.76721 0.27876 0.0
C252 C 0.44274 0.77959 0.3079 0.0
C253 C 0.48293 0.82763 0.34889 0.0
C254 C 0.54003 0.84181 0.34271 0.0
N255 N 0.6588 0.85903 0.34394 0.0
C256 C 0.65316 0.89696 0.37535 0.0
C257 C 0.70942 0.94159 0.40726 0.0
C258 C 0.75109 0.93136 0.39734 0.0
C259 C 0.71887 0.88176 0.35845 0.0
N260 N 0.66275 0.78529 0.24618 0.0
C261 C 0.72133 0.81465 0.27695 0.0
C262 C 0.75241 0.79434 0.25787 0.0
C263 C 0.71057 0.74802 0.2141 0.0
C264 C 0.65607 0.74249 0.20902 0.0
N265 N 0.61618 0.84745 0.20724 0.0
C266 C 0.64103 0.9452 0.17262 0.0
C267 C 0.68813 0.93959 0.19091 0.0
C268 C 0.67445 0.88939 0.20552 0.0
C269 C 0.58158 0.89942 0.16146 0.0
C270 C 0.57022 0.85064 0.1778 0.0
N271 N 0.5857 0.7426 0.33715 0.0
C272 C 0.63583 0.71396 0.41404 0.0
C273 C 0.59274 0.66038 0.38572 0.0
C274 C 0.54193 0.64797 0.34033 0.0
C275 C 0.53813 0.68957 0.31922 0.0
C276 C 0.63133 0.7545 0.38936 0.0
H277 H 0.49745 0.67785 0.28588 0.0
H278 H 0.66665 0.79514 0.41083 0.0
H279 H 0.71157 0.88648 0.22064 0.0
H280 H 0.52395 0.81741 0.17231 0.0
C281 C 0.45628 0.72979 0.22094 0.0
C282 C 0.59889 0.69481 0.16985 0.0
C283 C 0.59595 0.89318 0.37607 0.0
C284 C 0.74411 0.85839 0.32761 0.0
H285 H 0.47929 0.6232 0.08632 0.0
H286 H 0.40224 0.64416 0.11214 0.0
H287 H 0.39422 0.75729 0.29772 0.0
H288 H 0.47125 0.85013 0.37822 0.0
H289 H 0.71999 0.97888 0.43296 0.0
H290 H 0.79964 0.95844 0.41304 0.0
H291 H 0.79929 0.80998 0.27608 0.0
H292 H 0.71869 0.72045 0.19033 0.0
H293 H 0.73469 0.97391 0.19635 0.0
H294 H 0.54406 0.90223 0.14441 0.0
H295 H 0.67359 0.72441 0.45335 0.0
H296 H 0.50515 0.60638 0.32205 0.0
C297 C 0.73748 0.62326 0.73104 0.0
C298 C 0.74849 0.67374 0.72714 0.0
C299 C 0.80642 0.71109 0.76143 0.0
C300 C 0.82796 0.68176 0.78468 0.0
N301 N 0.78719 0.62829 0.76768 0.0
Co302 Co 0.80116 0.57262 0.79487 0.0
N303 N 0.87653 0.62432 0.86396 0.0
C304 C 0.90703 0.67838 0.86802 0.0
C305 C 0.95832 0.70533 0.91753 0.0
C306 C 0.96127 0.66601 0.94584 0.0
C307 C 0.91153 0.6167 0.91212 0.0
N308 N 0.81425 0.5161 0.82259 0.0
C309 C 0.85549 0.51756 0.87265 0.0
C310 C 0.85628 0.47261 0.86063 0.0
C311 C 0.81566 0.44248 0.80199 0.0
C312 C 0.79133 0.46986 0.78134 0.0
N313 N 0.7276 0.52066 0.72433 0.0
C314 C 0.71904 0.47628 0.69224 0.0
C315 C 0.67755 0.45517 0.63271 0.0
C316 C 0.6562 0.48671 0.62827 0.0
C317 C 0.68644 0.52603 0.68527 0.0
N318 N 0.84931 0.58714 0.72302 0.0
C319 C 0.88552 0.56613 0.6089 0.0
C320 C 0.915 0.5711 0.67509 0.0
C321 C 0.89658 0.58232 0.73177 0.0
C322 C 0.84382 0.57914 0.60084 0.0
C323 C 0.82777 0.59137 0.65889 0.0
N324 N 0.75104 0.55868 0.8636 0.0
C325 C 0.64994 0.5045 0.88554 0.0
C326 C 0.65938 0.54923 0.92374 0.0
C327 C 0.7166 0.59748 0.93609 0.0
C328 C 0.7619 0.60145 0.90538 0.0
C329 C 0.69701 0.50966 0.85732 0.0
H330 H 0.80438 0.64015 0.91241 0.0
H331 H 0.68858 0.475 0.82673 0.0
H332 H 0.91694 0.58234 0.78202 0.0
H333 H 0.79319 0.59857 0.65069 0.0
C334 C 0.88262 0.70194 0.82943 0.0
C335 C 0.6819 0.57244 0.69286 0.0
C336 C 0.90397 0.56468 0.92308 0.0
C337 C 0.7502 0.4554 0.7208 0.0
H338 H 0.71808 0.68267 0.70133 0.0
H339 H 0.82948 0.75443 0.76979 0.0
H340 H 0.98962 0.74852 0.93194 0.0
H341 H 0.99685 0.67283 0.98578 0.0
H342 H 0.88748 0.46526 0.88778 0.0
H343 H 0.8074 0.40656 0.77519 0.0
H344 H 0.66421 0.42085 0.59678 0.0
H345 H 0.62511 0.48337 0.58526 0.0
H346 H 0.94858 0.56223 0.68296 0.0
H347 H 0.82167 0.57709 0.55021 0.0
H348 H 0.60638 0.46607 0.87723 0.0
H349 H 0.7261 0.6319 0.96876 0.0
C350 C 0.31403 0.88659 0.42224 0.0
C351 C 0.30219 0.92231 0.44787 0.0
C352 C 0.24822 0.90807 0.40979 0.0
C353 C 0.23033 0.86459 0.36325 0.0
N354 N 0.27004 0.85111 0.36969 0.0
Co355 Co 0.26211 0.79084 0.31502 0.0
N356 N 0.19965 0.78416 0.24237 0.0
C357 C 0.16902 0.80645 0.24734 0.0
C358 C 0.13078 0.79628 0.18715 0.0
C359 C 0.13777 0.76548 0.14175 0.0
C360 C 0.17998 0.75866 0.17694 0.0
N361 N 0.25188 0.72858 0.26465 0.0
C362 C 0.21497 0.70076 0.20442 0.0
C363 C 0.18876 0.64663 0.20519 0.0
C364 C 0.21371 0.64025 0.2651 0.0
C365 C 0.25392 0.69142 0.29799 0.0
N366 N 0.32532 0.79762 0.38582 0.0
C367 C 0.33066 0.75727 0.40059 0.0
C368 C 0.3739 0.77156 0.45727 0.0
C369 C 0.3964 0.82405 0.48033 0.0
C370 C 0.3649 0.83825 0.43644 0.0
N371 N 0.19874 0.73888 0.36724 0.0
C372 C 0.11605 0.64986 0.43237 0.0
C373 C 0.17012 0.695 0.47039 0.0
C374 C 0.2101 0.7394 0.43718 0.0
C375 C 0.10328 0.65275 0.36219 0.0
C376 C 0.14418 0.69669 0.33127 0.0
N377 N 0.3246 0.84205 0.26077 0.0
C378 C 0.40074 0.86552 0.18868 0.0
C379 C 0.40754 0.91427 0.17744 0.0
C380 C 0.37074 0.92484 0.20814 0.0
C381 C 0.32972 0.88863 0.24794 0.0
C382 C 0.35912 0.83019 0.22993 0.0
H383 H 0.30183 0.89879 0.2678 0.0
H384 H 0.3547 0.79305 0.23617 0.0
H385 H 0.25122 0.77313 0.46813 0.0
H386 H 0.13235 0.69443 0.27682 0.0
C387 C 0.18357 0.84209 0.3058 0.0
C388 C 0.36669 0.88677 0.44965 0.0
C389 C 0.19493 0.72226 0.15113 0.0
C390 C 0.29234 0.70636 0.36135 0.0
H391 H 0.32987 0.95519 0.48942 0.0
H392 H 0.22615 0.92847 0.41369 0.0
H393 H 0.10232 0.8106 0.17685 0.0
H394 H 0.11377 0.74903 0.08947 0.0
H395 H 0.15353 0.61543 0.16721 0.0
H396 H 0.20304 0.60295 0.28261 0.0
H397 H 0.38627 0.74644 0.48026 0.0
H398 H 0.42923 0.84778 0.52645 0.0
H399 H 0.18187 0.69594 0.52493 0.0
H400 H 0.06212 0.62005 0.32951 0.0
H401 H 0.42868 0.85547 0.16786 0.0
H402 H 0.37409 0.96187 0.2021 0.0
C403 C 0.40633 0.26916 0.8385 0.0
C404 C 0.34962 0.25371 0.84964 0.0
C405 C 0.30847 0.20223 0.81654 0.0
C406 C 0.34173 0.18805 0.78781 0.0
N407 N 0.40128 0.22764 0.80016 0.0
Co408 Co 0.46372 0.21741 0.77797 0.0
N409 N 0.40506 0.14972 0.71248 0.0
C410 C 0.34492 0.11992 0.70864 0.0
C411 C 0.31519 0.07667 0.65748 0.0
C412 C 0.35962 0.07922 0.62771 0.0
C413 C 0.41421 0.12405 0.6621 0.0
N414 N 0.52629 0.20608 0.75826 0.0
C415 C 0.52199 0.16799 0.71353 0.0
C416 C 0.564 0.15741 0.73803 0.0
C417 C 0.59651 0.1908 0.7985 0.0
C418 C 0.57402 0.22088 0.80668 0.0
N419 N 0.524 0.28514 0.84304 0.0
C420 C 0.57902 0.29843 0.87171 0.0
C421 C 0.61234 0.34611 0.91467 0.0
C422 C 0.57543 0.36337 0.91511 0.0
C423 C 0.52058 0.32463 0.87314 0.0
N424 N 0.4516 0.17567 0.85493 0.0
C425 C 0.46642 0.13189 0.97066 0.0
C426 C 0.46244 0.1758 0.97731 0.0
C427 C 0.45403 0.19654 0.91875 0.0
C428 C 0.45583 0.10659 0.90443 0.0
C429 C 0.44793 0.12881 0.84737 0.0
N430 N 0.47433 0.25933 0.70167 0.0
C431 C 0.53355 0.34133 0.65339 0.0
C432 C 0.48323 0.32737 0.60487 0.0
C433 C 0.42874 0.27791 0.60427 0.0
C434 C 0.42484 0.24521 0.6541 0.0
C435 C 0.52889 0.30593 0.69965 0.0
H436 H 0.38088 0.2097 0.65547 0.0
H437 H 0.56866 0.31737 0.73579 0.0
H438 H 0.45364 0.23169 0.92607 0.0
H439 H 0.44355 0.11025 0.79758 0.0
C440 C 0.31878 0.13921 0.74637 0.0
C441 C 0.46383 0.32145 0.87145 0.0
C442 C 0.47375 0.1361 0.65314 0.0
C443 C 0.59747 0.26482 0.85698 0.0
H444 H 0.33892 0.27625 0.88077 0.0
H445 H 0.26009 0.17782 0.81455 0.0
H446 H 0.26688 0.04751 0.64232 0.0
H447 H 0.35288 0.05065 0.58675 0.0
H448 H 0.57042 0.12831 0.71579 0.0
H449 H 0.63346 0.19408 0.83174 0.0
H450 H 0.65777 0.36569 0.94328 0.0
H451 H 0.58822 0.39949 0.94559 0.0
H452 H 0.46877 0.19554 0.02746 0.0
H453 H 0.45821 0.07235 0.89612 0.0
H454 H 0.57568 0.37967 0.65649 0.0
H455 H 0.38862 0.26624 0.56828 0.0
loop_
_geom_bond_atom_site_label_1
_geom_bond_atom_site_label_2
_geom_bond_distance
_geom_bond_site_symmetry_2
_ccdc_geom_bond_type
Cu0 N1 1.999 1_554 S
Cu0 O6 1.974 1_554 S
Cu0 N11 1.985 1_655 S
Cu0 O20 1.959 1_655 S
N1 Cu0 1.999 1_556 S
N1 C3 1.263 . S
N1 C5 1.389 . S
N2 C3 1.358 . S
N2 C4 1.400 . S
C3 N1 1.263 . S
C3 N2 1.358 . S
C3 H9 0.930 . S
C4 N2 1.400 . S
C4 C5 1.351 . S
C4 H21 0.930 . S
C5 N1 1.389 . S
C5 C4 1.351 . S
C5 H10 0.930 1_556 S
O6 Cu0 1.974 1_556 S
O6 C16 1.282 . S
C7 O8 1.261 . S
C7 O20 1.251 . S
O8 C7 1.261 . S
H9 C3 0.930 . S
H10 C5 0.930 1_554 S
N11 Cu0 1.985 1_455 S
N11 C13 1.335 . S
N11 C14 1.390 . S
N12 C13 1.345 . S
N12 C15 1.336 . S
C13 N11 1.335 . S
C13 N12 1.345 . S
C13 H18 0.930 . S
C14 N11 1.390 . S
C14 C15 1.346 . S
C14 H19 0.930 . S
C15 N12 1.336 . S
C15 C14 1.346 . S
C15 H22 0.929 . S
C16 O6 1.282 . S
C16 O17 1.216 1_655 S
O17 C16 1.216 1_455 S
H18 C13 0.930 . S
H19 C14 0.930 . S
O20 Cu0 1.959 1_455 S
O20 C7 1.251 . S
H21 C4 0.930 . S
H22 C15 0.929 . S
Cu23 N24 1.999 . S
Cu23 O29 1.974 . S
Cu23 N34 1.985 1_565 S
Cu23 O43 1.959 1_565 S
N24 Cu23 1.999 . S
N24 C26 1.263 . S
N24 C28 1.389 . S
N25 C26 1.358 . S
N25 C27 1.400 . S
C26 N24 1.263 . S
C26 N25 1.358 . S
C26 H32 0.930 . S
C27 N25 1.400 . S
C27 C28 1.351 . S
C27 H44 0.930 . S
C28 N24 1.389 . S
C28 C27 1.351 . S
C28 H33 0.930 . S
O29 Cu23 1.974 . S
O29 C39 1.282 . S
C30 O31 1.261 . S
C30 O43 1.251 . S
O31 C30 1.261 . S
H32 C26 0.930 . S
H33 C28 0.930 . S
N34 Cu23 1.985 1_545 S
N34 C36 1.335 . S
N34 C37 1.390 . S
N35 C36 1.345 . S
N35 C38 1.336 . S
C36 N34 1.335 . S
C36 N35 1.345 . S
C36 H41 0.930 . S
C37 N34 1.390 . S
C37 C38 1.346 . S
C37 H42 0.930 1_545 S
C38 N35 1.336 . S
C38 C37 1.346 . S
C38 H45 0.929 . S
C39 O29 1.282 . S
C39 O40 1.216 . S
O40 C39 1.216 . S
H41 C36 0.930 . S
H42 C37 0.930 1_565 S
O43 Cu23 1.959 1_545 S
O43 C30 1.251 . S
H44 C27 0.930 . S
H45 C38 0.929 . S
Cu46 N47 1.999 . S
Cu46 O52 1.974 . S
Cu46 N57 1.985 1_556 S
Cu46 O66 1.959 1_556 S
N47 Cu46 1.999 . S
N47 C49 1.263 . S
N47 C51 1.389 . S
N48 C49 1.358 . S
N48 C50 1.400 . S
C49 N47 1.263 . S
C49 N48 1.358 . S
C49 H55 0.930 . S
C50 N48 1.400 . S
C50 C51 1.351 . S
C50 H67 0.930 . S
C51 N47 1.389 . S
C51 C50 1.351 . S
C51 H56 0.930 . S
O52 Cu46 1.974 . S
O52 C62 1.282 . S
C53 O54 1.261 . S
C53 O66 1.251 . S
O54 C53 1.261 . S
H55 C49 0.930 . S
H56 C51 0.930 . S
N57 Cu46 1.985 1_554 S
N57 C59 1.335 . S
N57 C60 1.390 . S
N58 C59 1.345 . S
N58 C61 1.336 . S
C59 N57 1.335 . S
C59 N58 1.345 . S
C59 H64 0.930 . S
C60 N57 1.390 . S
C60 C61 1.346 . S
C60 H65 0.930 . S
C61 N58 1.336 . S
C61 C60 1.346 . S
C61 H68 0.929 . S
C62 O52 1.282 . S
C62 O63 1.216 1_556 S
O63 C62 1.216 1_554 S
H64 C59 0.930 . S
H65 C60 0.930 . S
O66 Cu46 1.959 1_554 S
O66 C53 1.251 . S
H67 C50 0.930 . S
H68 C61 0.929 . S
Cu69 N70 1.999 1_655 S
Cu69 O75 1.974 1_655 S
Cu69 N80 1.985 . S
Cu69 O89 1.959 . S
N70 Cu69 1.999 1_455 S
N70 C72 1.263 . S
N70 C74 1.389 1_455 S
N71 C72 1.358 . S
N71 C73 1.400 . S
C72 N70 1.263 . S
C72 N71 1.358 . S
C72 H78 0.930 . S
C73 N71 1.400 . S
C73 C74 1.351 1_455 S
C73 H90 0.930 1_455 S
C74 N70 1.389 1_655 S
C74 C73 1.351 1_655 S
C74 H79 0.930 . S
O75 Cu69 1.974 1_455 S
O75 C85 1.282 . S
C76 O77 1.261 1_655 S
C76 O89 1.251 . S
O77 C76 1.261 1_455 S
H78 C72 0.930 . S
H79 C74 0.930 . S
N80 Cu69 1.985 . S
N80 C82 1.335 . S
N80 C83 1.390 . S
N81 C82 1.345 . S
N81 C84 1.336 . S
C82 N80 1.335 . S
C82 N81 1.345 . S
C82 H87 0.930 . S
C83 N80 1.390 . S
C83 C84 1.346 . S
C83 H88 0.930 1_655 S
C84 N81 1.336 . S
C84 C83 1.346 . S
C84 H91 0.929 . S
C85 O75 1.282 . S
C85 O86 1.216 . S
O86 C85 1.216 . S
H87 C82 0.930 . S
H88 C83 0.930 1_455 S
O89 Cu69 1.959 . S
O89 C76 1.251 . S
H90 C73 0.930 1_655 S
H91 C84 0.929 . S
Cu92 N93 1.999 . S
Cu92 O98 1.974 1_554 S
Cu92 N103 1.985 1_545 S
Cu92 O112 1.959 1_545 S
N93 Cu92 1.999 . S
N93 C95 1.263 1_554 S
N93 C97 1.389 . S
N94 C95 1.358 . S
N94 C96 1.400 . S
C95 N93 1.263 1_556 S
C95 N94 1.358 . S
C95 H101 0.930 . S
C96 N94 1.400 . S
C96 C97 1.351 1_556 S
C96 H113 0.930 1_556 S
C97 N93 1.389 . S
C97 C96 1.351 1_554 S
C97 H102 0.930 . S
O98 Cu92 1.974 1_556 S
O98 C108 1.282 . S
C99 O100 1.261 . S
C99 O112 1.251 . S
O100 C99 1.261 . S
H101 C95 0.930 . S
H102 C97 0.930 . S
N103 Cu92 1.985 1_565 S
N103 C105 1.335 . S
N103 C106 1.390 . S
N104 C105 1.345 . S
N104 C107 1.336 . S
C105 N103 1.335 . S
C105 N104 1.345 . S
C105 H110 0.930 . S
C106 N103 1.390 . S
C106 C107 1.346 . S
C106 H111 0.930 . S
C107 N104 1.336 . S
C107 C106 1.346 . S
C107 H114 0.929 . S
C108 O98 1.282 . S
C108 O109 1.216 . S
O109 C108 1.216 . S
H110 C105 0.930 . S
H111 C106 0.930 . S
O112 Cu92 1.959 1_565 S
O112 C99 1.251 . S
H113 C96 0.930 1_554 S
H114 C107 0.929 . S
Cu115 N116 1.999 . S
Cu115 O121 1.974 . S
Cu115 N126 1.985 . S
Cu115 O135 1.959 . S
N116 Cu115 1.999 . S
N116 C118 1.263 . S
N116 C120 1.389 . S
N117 C118 1.358 . S
N117 C119 1.400 . S
C118 N116 1.263 . S
C118 N117 1.358 . S
C118 H124 0.930 . S
C119 N117 1.400 . S
C119 C120 1.351 . S
C119 H136 0.930 . S
C120 N116 1.389 . S
C120 C119 1.351 . S
C120 H125 0.930 . S
O121 Cu115 1.974 . S
O121 C131 1.282 . S
C122 O123 1.261 . S
C122 O135 1.251 . S
O123 C122 1.261 . S
H124 C118 0.930 . S
H125 C120 0.930 . S
N126 Cu115 1.985 . S
N126 C128 1.335 . S
N126 C129 1.390 . S
N127 C128 1.345 . S
N127 C130 1.336 . S
C128 N126 1.335 . S
C128 N127 1.345 . S
C128 H133 0.930 . S
C129 N126 1.390 . S
C129 C130 1.346 . S
C129 H134 0.930 . S
C130 N127 1.336 . S
C130 C129 1.346 . S
C130 H137 0.929 . S
C131 O121 1.282 . S
C131 O132 1.216 . S
O132 C131 1.216 . S
H133 C128 0.930 . S
H134 C129 0.930 . S
O135 Cu115 1.959 . S
O135 C122 1.251 . S
H136 C119 0.930 . S
H137 C130 0.929 . S
C138 C139 1.443 . S
C138 N142 1.376 . S
C138 C176 1.389 . S
C139 C138 1.443 . S
C139 C140 1.340 . S
C139 H179 0.951 . S
C140 C139 1.340 . S
C140 C141 1.439 . S
C140 H180 0.950 . S
C141 C140 1.439 . S
C141 N142 1.374 . S
C141 C175 1.395 . S
N142 C138 1.376 . S
N142 C141 1.374 . S
N142 Co143 2.008 . S
Co143 N142 2.008 . S
Co143 N144 1.995 . S
Co143 N149 2.008 . S
Co143 N154 1.995 . S
Co143 N159 2.282 . S
Co143 N165 2.282 . S
N144 Co143 1.995 . S
N144 C145 1.376 . S
N144 C148 1.383 . S
C145 N144 1.376 . S
C145 C146 1.446 . S
C145 C175 1.391 . S
C146 C145 1.446 . S
C146 C147 1.339 . S
C146 H181 0.949 . S
C147 C146 1.339 . S
C147 C148 1.439 . S
C147 H182 0.950 . S
C148 N144 1.383 . S
C148 C147 1.439 . S
C148 C177 1.392 . S
N149 Co143 2.008 . S
N149 C150 1.376 . S
N149 C153 1.374 . S
C150 N149 1.376 . S
C150 C151 1.443 . S
C150 C177 1.389 . S
C151 C150 1.443 . S
C151 C152 1.340 . S
C151 H183 0.951 . S
C152 C151 1.340 . S
C152 C153 1.439 . S
C152 H184 0.950 . S
C153 N149 1.374 . S
C153 C152 1.439 . S
C153 C178 1.395 . S
N154 Co143 1.995 . S
N154 C155 1.376 . S
N154 C158 1.383 . S
C155 N154 1.376 . S
C155 C156 1.446 . S
C155 C178 1.391 . S
C156 C155 1.446 . S
C156 C157 1.339 . S
C156 H185 0.949 . S
C157 C156 1.339 . S
C157 C158 1.439 . S
C157 H186 0.950 . S
C158 N154 1.383 . S
C158 C157 1.439 . S
C158 C176 1.392 . S
N159 Co143 2.282 . S
N159 C162 1.332 . S
N159 C164 1.332 . S
C160 C161 1.386 . S
C160 C163 1.388 . S
C161 C160 1.386 . S
C161 C162 1.382 . S
C161 H187 0.950 . S
C162 N159 1.332 . S
C162 C161 1.382 . S
C162 H173 0.952 . S
C163 C160 1.388 . S
C163 C164 1.382 . S
C163 H188 0.950 . S
C164 N159 1.332 . S
C164 C163 1.382 . S
C164 H174 0.948 . S
N165 Co143 2.282 . S
N165 C169 1.332 . S
N165 C170 1.332 . S
C166 C167 1.388 . S
C166 C170 1.382 . S
C166 H189 0.950 . S
C167 C166 1.388 . S
C167 C168 1.386 . S
C168 C167 1.386 . S
C168 C169 1.382 . S
C168 H190 0.950 . S
C169 N165 1.332 . S
C169 C168 1.382 . S
C169 H171 0.952 . S
C170 N165 1.332 . S
C170 C166 1.382 . S
C170 H172 0.948 . S
H171 C169 0.952 . S
H172 C170 0.948 . S
H173 C162 0.952 . S
H174 C164 0.948 . S
C175 C141 1.395 . S
C175 C145 1.391 . S
C176 C138 1.389 . S
C176 C158 1.392 . S
C177 C148 1.392 . S
C177 C150 1.389 . S
C178 C153 1.395 . S
C178 C155 1.391 . S
H179 C139 0.951 . S
H180 C140 0.950 . S
H181 C146 0.949 . S
H182 C147 0.950 . S
H183 C151 0.951 . S
H184 C152 0.950 . S
H185 C156 0.949 . S
H186 C157 0.950 . S
H187 C161 0.950 . S
H188 C163 0.950 . S
H189 C166 0.950 . S
H190 C168 0.950 . S
C191 C192 1.443 . S
C191 N195 1.376 . S
C191 C229 1.389 . S
C192 C191 1.443 . S
C192 C193 1.340 . S
C192 H232 0.951 . S
C193 C192 1.340 . S
C193 C194 1.439 . S
C193 H233 0.950 . S
C194 C193 1.439 . S
C194 N195 1.374 . S
C194 C228 1.395 . S
N195 C191 1.376 . S
N195 C194 1.374 . S
N195 Co196 2.008 . S
Co196 N195 2.008 . S
Co196 N197 1.995 . S
Co196 N202 2.008 . S
Co196 N207 1.995 . S
Co196 N212 2.282 . S
Co196 N218 2.282 . S
N197 Co196 1.995 . S
N197 C198 1.376 . S
N197 C201 1.383 . S
C198 N197 1.376 . S
C198 C199 1.446 . S
C198 C228 1.391 . S
C199 C198 1.446 . S
C199 C200 1.339 . S
C199 H234 0.949 . S
C200 C199 1.339 . S
C200 C201 1.439 . S
C200 H235 0.950 . S
C201 N197 1.383 . S
C201 C200 1.439 . S
C201 C230 1.392 . S
N202 Co196 2.008 . S
N202 C203 1.376 . S
N202 C206 1.374 . S
C203 N202 1.376 . S
C203 C204 1.443 . S
C203 C230 1.389 . S
C204 C203 1.443 . S
C204 C205 1.340 . S
C204 H236 0.951 1_655 S
C205 C204 1.340 . S
C205 C206 1.439 . S
C205 H237 0.950 . S
C206 N202 1.374 . S
C206 C205 1.439 . S
C206 C231 1.395 . S
N207 Co196 1.995 . S
N207 C208 1.376 . S
N207 C211 1.383 . S
C208 N207 1.376 . S
C208 C209 1.446 . S
C208 C231 1.391 . S
C209 C208 1.446 . S
C209 C210 1.339 . S
C209 H238 0.949 . S
C210 C209 1.339 . S
C210 C211 1.439 . S
C210 H239 0.950 . S
C211 N207 1.383 . S
C211 C210 1.439 . S
C211 C229 1.392 . S
N212 Co196 2.282 . S
N212 C215 1.332 . S
N212 C217 1.332 . S
C213 C214 1.386 . S
C213 C216 1.388 . S
C214 C213 1.386 . S
C214 C215 1.382 . S
C214 H240 0.950 . S
C215 N212 1.332 . S
C215 C214 1.382 . S
C215 H226 0.952 . S
C216 C213 1.388 . S
C216 C217 1.382 . S
C216 H241 0.950 . S
C217 N212 1.332 . S
C217 C216 1.382 . S
C217 H227 0.948 . S
N218 Co196 2.282 . S
N218 C222 1.332 . S
N218 C223 1.332 . S
C219 C220 1.388 . S
C219 C223 1.382 . S
C219 H242 0.950 . S
C220 C219 1.388 . S
C220 C221 1.386 . S
C221 C220 1.386 . S
C221 C222 1.382 . S
C221 H243 0.950 . S
C222 N218 1.332 . S
C222 C221 1.382 . S
C222 H224 0.952 . S
C223 N218 1.332 . S
C223 C219 1.382 . S
C223 H225 0.948 . S
H224 C222 0.952 . S
H225 C223 0.948 . S
H226 C215 0.952 . S
H227 C217 0.948 . S
C228 C194 1.395 . S
C228 C198 1.391 . S
C229 C191 1.389 . S
C229 C211 1.392 . S
C230 C201 1.392 . S
C230 C203 1.389 . S
C231 C206 1.395 . S
C231 C208 1.391 . S
H232 C192 0.951 . S
H233 C193 0.950 . S
H234 C199 0.949 . S
H235 C200 0.950 . S
H236 C204 0.951 1_455 S
H237 C205 0.950 . S
H238 C209 0.949 . S
H239 C210 0.950 . S
H240 C214 0.950 . S
H241 C216 0.950 . S
H242 C219 0.950 . S
H243 C221 0.950 . S
C244 C245 1.443 . S
C244 N248 1.376 . S
C244 C282 1.389 . S
C245 C244 1.443 . S
C245 C246 1.340 . S
C245 H285 0.951 . S
C246 C245 1.340 . S
C246 C247 1.439 . S
C246 H286 0.950 . S
C247 C246 1.439 . S
C247 N248 1.374 . S
C247 C281 1.395 . S
N248 C244 1.376 . S
N248 C247 1.374 . S
N248 Co249 2.008 . S
Co249 N248 2.008 . S
Co249 N250 1.995 . S
Co249 N255 2.008 . S
Co249 N260 1.995 . S
Co249 N265 2.282 . S
Co249 N271 2.282 . S
N250 Co249 1.995 . S
N250 C251 1.376 . S
N250 C254 1.383 . S
C251 N250 1.376 . S
C251 C252 1.446 . S
C251 C281 1.391 . S
C252 C251 1.446 . S
C252 C253 1.339 . S
C252 H287 0.949 . S
C253 C252 1.339 . S
C253 C254 1.439 . S
C253 H288 0.950 . S
C254 N250 1.383 . S
C254 C253 1.439 . S
C254 C283 1.392 . S
N255 Co249 2.008 . S
N255 C256 1.376 . S
N255 C259 1.374 . S
C256 N255 1.376 . S
C256 C257 1.443 . S
C256 C283 1.389 . S
C257 C256 1.443 . S
C257 C258 1.340 . S
C257 H289 0.951 . S
C258 C257 1.340 . S
C258 C259 1.439 . S
C258 H290 0.950 . S
C259 N255 1.374 . S
C259 C258 1.439 . S
C259 C284 1.395 . S
N260 Co249 1.995 . S
N260 C261 1.376 . S
N260 C264 1.383 . S
C261 N260 1.376 . S
C261 C262 1.446 . S
C261 C284 1.391 . S
C262 C261 1.446 . S
C262 C263 1.339 . S
C262 H291 0.949 . S
C263 C262 1.339 . S
C263 C264 1.439 . S
C263 H292 0.950 . S
C264 N260 1.383 . S
C264 C263 1.439 . S
C264 C282 1.392 . S
N265 Co249 2.282 . S
N265 C268 1.332 . S
N265 C270 1.332 . S
C266 C267 1.386 . S
C266 C269 1.388 . S
C267 C266 1.386 . S
C267 C268 1.382 . S
C267 H293 0.950 . S
C268 N265 1.332 . S
C268 C267 1.382 . S
C268 H279 0.952 . S
C269 C266 1.388 . S
C269 C270 1.382 . S
C269 H294 0.950 . S
C270 N265 1.332 . S
C270 C269 1.382 . S
C270 H280 0.948 . S
N271 Co249 2.282 . S
N271 C275 1.332 . S
N271 C276 1.332 . S
C272 C273 1.388 . S
C272 C276 1.382 . S
C272 H295 0.950 . S
C273 C272 1.388 . S
C273 C274 1.386 . S
C274 C273 1.386 . S
C274 C275 1.382 . S
C274 H296 0.950 . S
C275 N271 1.332 . S
C275 C274 1.382 . S
C275 H277 0.952 . S
C276 N271 1.332 . S
C276 C272 1.382 . S
C276 H278 0.948 . S
H277 C275 0.952 . S
H278 C276 0.948 . S
H279 C268 0.952 . S
H280 C270 0.948 . S
C281 C247 1.395 . S
C281 C251 1.391 . S
C282 C244 1.389 . S
C282 C264 1.392 . S
C283 C254 1.392 . S
C283 C256 1.389 . S
C284 C259 1.395 . S
C284 C261 1.391 . S
H285 C245 0.951 . S
H286 C246 0.950 . S
H287 C252 0.949 . S
H288 C253 0.950 . S
H289 C257 0.951 . S
H290 C258 0.950 . S
H291 C262 0.949 . S
H292 C263 0.950 . S
H293 C267 0.950 . S
H294 C269 0.950 . S
H295 C272 0.950 . S
H296 C274 0.950 . S
C297 C298 1.443 . S
C297 N301 1.376 . S
C297 C335 1.389 . S
C298 C297 1.443 . S
C298 C299 1.340 . S
C298 H338 0.951 . S
C299 C298 1.340 . S
C299 C300 1.439 . S
C299 H339 0.950 . S
C300 C299 1.439 . S
C300 N301 1.374 . S
C300 C334 1.395 . S
N301 C297 1.376 . S
N301 C300 1.374 . S
N301 Co302 2.008 . S
Co302 N301 2.008 . S
Co302 N303 1.995 . S
Co302 N308 2.008 . S
Co302 N313 1.995 . S
Co302 N318 2.282 . S
Co302 N324 2.282 . S
N303 Co302 1.995 . S
N303 C304 1.376 . S
N303 C307 1.383 . S
C304 N303 1.376 . S
C304 C305 1.446 . S
C304 C334 1.391 . S
C305 C304 1.446 . S
C305 C306 1.339 . S
C305 H340 0.949 . S
C306 C305 1.339 . S
C306 C307 1.439 . S
C306 H341 0.950 . S
C307 N303 1.383 . S
C307 C306 1.439 . S
C307 C336 1.392 . S
N308 Co302 2.008 . S
N308 C309 1.376 . S
N308 C312 1.374 . S
C309 N308 1.376 . S
C309 C310 1.443 . S
C309 C336 1.389 . S
C310 C309 1.443 . S
C310 C311 1.340 . S
C310 H342 0.951 . S
C311 C310 1.340 . S
C311 C312 1.439 . S
C311 H343 0.950 . S
C312 N308 1.374 . S
C312 C311 1.439 . S
C312 C337 1.395 . S
N313 Co302 1.995 . S
N313 C314 1.376 . S
N313 C317 1.383 . S
C314 N313 1.376 . S
C314 C315 1.446 . S
C314 C337 1.391 . S
C315 C314 1.446 . S
C315 C316 1.339 . S
C315 H344 0.949 . S
C316 C315 1.339 . S
C316 C317 1.439 . S
C316 H345 0.950 . S
C317 N313 1.383 . S
C317 C316 1.439 . S
C317 C335 1.392 . S
N318 Co302 2.282 . S
N318 C321 1.332 . S
N318 C323 1.332 . S
C319 C320 1.386 . S
C319 C322 1.388 . S
C320 C319 1.386 . S
C320 C321 1.382 . S
C320 H346 0.950 . S
C321 N318 1.332 . S
C321 C320 1.382 . S
C321 H332 0.952 . S
C322 C319 1.388 . S
C322 C323 1.382 . S
C322 H347 0.950 . S
C323 N318 1.332 . S
C323 C322 1.382 . S
C323 H333 0.948 . S
N324 Co302 2.282 . S
N324 C328 1.332 . S
N324 C329 1.332 . S
C325 C326 1.388 . S
C325 C329 1.382 . S
C325 H348 0.950 . S
C326 C325 1.388 . S
C326 C327 1.386 . S
C327 C326 1.386 . S
C327 C328 1.382 . S
C327 H349 0.950 . S
C328 N324 1.332 . S
C328 C327 1.382 . S
C328 H330 0.952 . S
C329 N324 1.332 . S
C329 C325 1.382 . S
C329 H331 0.948 . S
H330 C328 0.952 . S
H331 C329 0.948 . S
H332 C321 0.952 . S
H333 C323 0.948 . S
C334 C300 1.395 . S
C334 C304 1.391 . S
C335 C297 1.389 . S
C335 C317 1.392 . S
C336 C307 1.392 . S
C336 C309 1.389 . S
C337 C312 1.395 . S
C337 C314 1.391 . S
H338 C298 0.951 . S
H339 C299 0.950 . S
H340 C305 0.949 . S
H341 C306 0.950 . S
H342 C310 0.951 . S
H343 C311 0.950 . S
H344 C315 0.949 . S
H345 C316 0.950 . S
H346 C320 0.950 . S
H347 C322 0.950 . S
H348 C325 0.950 . S
H349 C327 0.950 . S
C350 C351 1.443 . S
C350 N354 1.376 . S
C350 C388 1.389 . S
C351 C350 1.443 . S
C351 C352 1.340 . S
C351 H391 0.951 . S
C352 C351 1.340 . S
C352 C353 1.439 . S
C352 H392 0.950 . S
C353 C352 1.439 . S
C353 N354 1.374 . S
C353 C387 1.395 . S
N354 C350 1.376 . S
N354 C353 1.374 . S
N354 Co355 2.008 . S
Co355 N354 2.008 . S
Co355 N356 1.995 . S
Co355 N361 2.008 . S
Co355 N366 1.995 . S
Co355 N371 2.282 . S
Co355 N377 2.282 . S
N356 Co355 1.995 . S
N356 C357 1.376 . S
N356 C360 1.383 . S
C357 N356 1.376 . S
C357 C358 1.446 . S
C357 C387 1.391 . S
C358 C357 1.446 . S
C358 C359 1.339 . S
C358 H393 0.949 . S
C359 C358 1.339 . S
C359 C360 1.439 . S
C359 H394 0.950 . S
C360 N356 1.383 . S
C360 C359 1.439 . S
C360 C389 1.392 . S
N361 Co355 2.008 . S
N361 C362 1.376 . S
N361 C365 1.374 . S
C362 N361 1.376 . S
C362 C363 1.443 . S
C362 C389 1.389 . S
C363 C362 1.443 . S
C363 C364 1.340 . S
C363 H395 0.951 . S
C364 C363 1.340 . S
C364 C365 1.439 . S
C364 H396 0.950 . S
C365 N361 1.374 . S
C365 C364 1.439 . S
C365 C390 1.395 . S
N366 Co355 1.995 . S
N366 C367 1.376 . S
N366 C370 1.383 . S
C367 N366 1.376 . S
C367 C368 1.446 . S
C367 C390 1.391 . S
C368 C367 1.446 . S
C368 C369 1.339 . S
C368 H397 0.949 . S
C369 C368 1.339 . S
C369 C370 1.439 . S
C369 H398 0.950 . S
C370 N366 1.383 . S
C370 C369 1.439 . S
C370 C388 1.392 . S
N371 Co355 2.282 . S
N371 C374 1.332 . S
N371 C376 1.332 . S
C372 C373 1.386 . S
C372 C375 1.388 . S
C373 C372 1.386 . S
C373 C374 1.382 . S
C373 H399 0.950 . S
C374 N371 1.332 . S
C374 C373 1.382 . S
C374 H385 0.952 . S
C375 C372 1.388 . S
C375 C376 1.382 . S
C375 H400 0.950 . S
C376 N371 1.332 . S
C376 C375 1.382 . S
C376 H386 0.948 . S
N377 Co355 2.282 . S
N377 C381 1.332 . S
N377 C382 1.332 . S
C378 C379 1.388 . S
C378 C382 1.382 . S
C378 H401 0.950 . S
C379 C378 1.388 . S
C379 C380 1.386 . S
C380 C379 1.386 . S
C380 C381 1.382 . S
C380 H402 0.950 . S
C381 N377 1.332 . S
C381 C380 1.382 . S
C381 H383 0.952 . S
C382 N377 1.332 . S
C382 C378 1.382 . S
C382 H384 0.948 . S
H383 C381 0.952 . S
H384 C382 0.948 . S
H385 C374 0.952 . S
H386 C376 0.948 . S
C387 C353 1.395 . S
C387 C357 1.391 . S
C388 C350 1.389 . S
C388 C370 1.392 . S
C389 C360 1.392 . S
C389 C362 1.389 . S
C390 C365 1.395 . S
C390 C367 1.391 . S
H391 C351 0.951 . S
H392 C352 0.950 . S
H393 C358 0.949 . S
H394 C359 0.950 . S
H395 C363 0.951 . S
H396 C364 0.950 . S
H397 C368 0.949 . S
H398 C369 0.950 . S
H399 C373 0.950 . S
H400 C375 0.950 . S
H401 C378 0.950 . S
H402 C380 0.950 . S
C403 C404 1.443 . S
C403 N407 1.376 . S
C403 C441 1.389 . S
C404 C403 1.443 . S
C404 C405 1.340 . S
C404 H444 0.951 . S
C405 C404 1.340 . S
C405 C406 1.439 . S
C405 H445 0.950 . S
C406 C405 1.439 . S
C406 N407 1.374 . S
C406 C440 1.395 . S
N407 C403 1.376 . S
N407 C406 1.374 . S
N407 Co408 2.008 . S
Co408 N407 2.008 . S
Co408 N409 1.995 . S
Co408 N414 2.008 . S
Co408 N419 1.995 . S
Co408 N424 2.282 . S
Co408 N430 2.282 . S
N409 Co408 1.995 . S
N409 C410 1.376 . S
N409 C413 1.383 . S
C410 N409 1.376 . S
C410 C411 1.446 . S
C410 C440 1.391 . S
C411 C410 1.446 . S
C411 C412 1.339 . S
C411 H446 0.949 . S
C412 C411 1.339 . S
C412 C413 1.439 . S
C412 H447 0.950 . S
C413 N409 1.383 . S
C413 C412 1.439 . S
C413 C442 1.392 . S
N414 Co408 2.008 . S
N414 C415 1.376 . S
N414 C418 1.374 . S
C415 N414 1.376 . S
C415 C416 1.443 . S
C415 C442 1.389 . S
C416 C415 1.443 . S
C416 C417 1.340 . S
C416 H448 0.951 . S
C417 C416 1.340 . S
C417 C418 1.439 . S
C417 H449 0.950 . S
C418 N414 1.374 . S
C418 C417 1.439 . S
C418 C443 1.395 . S
N419 Co408 1.995 . S
N419 C420 1.376 . S
N419 C423 1.383 . S
C420 N419 1.376 . S
C420 C421 1.446 . S
C420 C443 1.391 . S
C421 C420 1.446 . S
C421 C422 1.339 . S
C421 H450 0.949 . S
C422 C421 1.339 . S
C422 C423 1.439 . S
C422 H451 0.950 . S
C423 N419 1.383 . S
C423 C422 1.439 . S
C423 C441 1.392 . S
N424 Co408 2.282 . S
N424 C427 1.332 . S
N424 C429 1.332 . S
C425 C426 1.386 . S
C425 C428 1.388 . S
C426 C425 1.386 . S
C426 C427 1.382 . S
C426 H452 0.950 . S
C427 N424 1.332 . S
C427 C426 1.382 . S
C427 H438 0.952 . S
C428 C425 1.388 . S
C428 C429 1.382 . S
C428 H453 0.950 . S
C429 N424 1.332 . S
C429 C428 1.382 . S
C429 H439 0.948 . S
N430 Co408 2.282 . S
N430 C434 1.332 . S
N430 C435 1.332 . S
C431 C432 1.388 . S
C431 C435 1.382 . S
C431 H454 0.950 . S
C432 C431 1.388 . S
C432 C433 1.386 . S
C433 C432 1.386 . S
C433 C434 1.382 . S
C433 H455 0.950 . S
C434 N430 1.332 . S
C434 C433 1.382 . S
C434 H436 0.952 . S
C435 N430 1.332 . S
C435 C431 1.382 . S
C435 H437 0.948 . S
H436 C434 0.952 . S
H437 C435 0.948 . S
H438 C427 0.952 . S
H439 C429 0.948 . S
C440 C406 1.395 . S
C440 C410 1.391 . S
C441 C403 1.389 . S
C441 C423 1.392 . S
C442 C413 1.392 . S
C442 C415 1.389 . S
C443 C418 1.395 . S
C443 C420 1.391 . S
H444 C404 0.951 . S
H445 C405 0.950 . S
H446 C411 0.949 . S
H447 C412 0.950 . S
H448 C416 0.951 . S
H449 C417 0.950 . S
H450 C421 0.949 . S
H451 C422 0.950 . S
H452 C426 0.950 . S
H453 C428 0.950 . S
H454 C431 0.950 . S
H455 C433 0.950 . S
C7 C176 2.792 . S
C30 C229 1.703 . S
C282 N58 2.177 . S
C319 N81 1.271 . S
C379 C99 2.266 . S
C432 N127 1.498 . S
N25 C283 2.436 . S
C62 C326 1.794 . S
C372 C85 2.285 . S
C425 N94 1.674 . S
C131 C177 2.556 . S
C230 N2 1.554 . S
C336 C16 2.723 . S
C39 C388 1.626 . S
C441 N48 2.191 . S
N71 C167 1.042 . S
C108 C220 2.122 . S
N117 C273 1.569 . S
N35 C442 2.334 . S
C160 C53 1.645 . S
C76 C213 2.302 . S
N104 C266 1.252 . S
C122 C335 2.324 . S
N12 C389 1.278 . S
