# Generated by pormake.
# Topology pts, (4,4)-cn, num edge types: 1
# Building blocks:
#     Node 0, Type 0, BuildingBlock: KOZSID_clean_sbu_0, # of connection points: 4
#     Node 1, Type 0, BuildingBlock: KOZSID_clean_sbu_0, # of connection points: 4
#     Node 2, Type 1, BuildingBlock: AZAVOO_clean_sbu_0, # of connection points: 4
#     Node 3, Type 1, BuildingBlock: AZAVOO_clean_sbu_0, # of connection points: 4
#     Edge 4, Type (0, 1), BuildingBlock: FUNLAD_clean_linker_0, # of connection points: 2
#     Edge 5, Type (0, 1), BuildingBlock: FUNLAD_clean_linker_0, # of connection points: 2
#     Edge 6, Type (0, 1), BuildingBlock: FUNLAD_clean_linker_0, # of connection points: 2
#     Edge 7, Type (0, 1), BuildingBlock: FUNLAD_clean_linker_0, # of connection points: 2
#     Edge 8, Type (0, 1), BuildingBlock: FUNLAD_clean_linker_0, # of connection points: 2
#     Edge 9, Type (0, 1), BuildingBlock: FUNLAD_clean_linker_0, # of connection points: 2
#     Edge 10, Type (0, 1), BuildingBlock: FUNLAD_clean_linker_0, # of connection points: 2
#     Edge 11, Type (0, 1), BuildingBlock: FUNLAD_clean_linker_0, # of connection points: 2
# Relax obj value: 0.000
# Max RMSD: 0.031
# Mean RMSD: 0.016
data_MOF--net-pts--node1-KOZSID_clean_sbu_0--node2-AZAVOO_clean_sbu_0--edge1-FUNLAD_clean_linker_0
_symmetry_space_group_name_H-M    P1
_symmetry_Int_Tables_number       1
_symmetry_cell_setting            triclinic
loop_
_symmetry_equiv_pos_as_xyz
'x, y, z'
_cell_length_a     30.649609
_cell_length_b     31.262221
_cell_length_c     45.71542
_cell_angle_alpha  86.515744
_cell_angle_beta   99.64788
_cell_angle_gamma 90.351195
loop_
_atom_site_label
_atom_site_type_symbol
_atom_site_fract_x
_atom_site_fract_y
_atom_site_fract_z
_atom_type_partial_charge
C0 C 0.62889 0.11284 0.05354 0.0
C1 C 0.64588 0.15226 0.06216 0.0
C2 C 0.62009 0.18281 0.04504 0.0
C3 C 0.58909 0.16046 0.0269 0.0
N4 N 0.59315 0.11739 0.03159 0.0
Co5 Co 0.55663 0.07281 0.00891 0.0
N6 N 0.52094 0.11784 0.98212 0.0
C7 C 0.52529 0.16086 0.98316 0.0
C8 C 0.49535 0.18359 0.96246 0.0
C9 C 0.47008 0.15335 0.94738 0.0
C10 C 0.48624 0.11374 0.95977 0.0
N11 N 0.52044 0.02819 0.98615 0.0
C12 C 0.486 0.03262 0.96332 0.0
C13 C 0.47024 0.99315 0.95388 0.0
C14 C 0.49514 0.96268 0.97165 0.0
C15 C 0.52468 0.98514 0.99074 0.0
N16 N 0.59212 0.0278 0.03574 0.0
C17 C 0.58668 0.98482 0.03543 0.0
C18 C 0.61607 0.96204 0.05643 0.0
C19 C 0.64231 0.99218 0.07084 0.0
C20 C 0.62749 0.03178 0.05757 0.0
N21 N 0.5129 0.07377 0.03655 0.0
C22 C 0.44585 0.07576 0.07195 0.0
C23 C 0.46265 0.03686 0.06505 0.0
C24 C 0.49581 0.0366 0.04742 0.0
C25 C 0.46406 0.11356 0.06155 0.0
C26 C 0.49743 0.11184 0.04427 0.0
N27 N 0.60009 0.07201 0.98118 0.0
C28 C 0.64758 0.03328 0.95452 0.0
C29 C 0.66195 0.07155 0.94188 0.0
C30 C 0.64503 0.10997 0.94943 0.0
C31 C 0.61456 0.10947 0.96896 0.0
C32 C 0.61677 0.03422 0.97388 0.0
H33 H 0.6033 0.13989 0.97386 0.0
H34 H 0.60686 0.00401 0.98261 0.0
H35 H 0.50659 0.00594 0.04255 0.0
H36 H 0.50982 0.14184 0.03721 0.0
C37 C 0.55727 0.17894 0.00425 0.0
C38 C 0.64894 0.07204 0.06597 0.0
C39 C 0.46663 0.07326 0.95015 0.0
C40 C 0.55545 0.96672 0.01396 0.0
H41 H 0.67451 0.15838 0.07868 0.0
H42 H 0.62418 0.21721 0.04524 0.0
H43 H 0.49193 0.21805 0.95902 0.0
H44 H 0.44249 0.15973 0.92954 0.0
H45 H 0.4432 0.987 0.93617 0.0
H46 H 0.4917 0.92825 0.97103 0.0
H47 H 0.61875 0.92759 0.06034 0.0
H48 H 0.66975 0.98567 0.08877 0.0
H49 H 0.44953 0.00667 0.0726 0.0
H50 H 0.45277 0.1445 0.06683 0.0
H51 H 0.65942 0.00263 0.94912 0.0
H52 H 0.6556 0.14051 0.94057 0.0
C53 C 0.08172 0.47081 0.55148 0.0
C54 C 0.12191 0.45318 0.56541 0.0
C55 C 0.15413 0.47518 0.55373 0.0
C56 C 0.13192 0.50503 0.53358 0.0
N57 N 0.0874 0.50367 0.53176 0.0
Co58 Co 0.04256 0.54212 0.50594 0.0
N59 N 0.08991 0.57342 0.48785 0.0
C60 C 0.13398 0.56549 0.4939 0.0
C61 C 0.15809 0.59058 0.47695 0.0
C62 C 0.12773 0.6162 0.45897 0.0
C63 C 0.08662 0.60556 0.46626 0.0
N64 N 0.99773 0.58086 0.48029 0.0
C65 C 0.00328 0.61361 0.4604 0.0
C66 C 0.96329 0.63366 0.44861 0.0
C67 C 0.93131 0.61228 0.46091 0.0
C68 C 0.95342 0.58085 0.47969 0.0
N69 N 0.99515 0.51051 0.52381 0.0
C70 C 0.95104 0.51797 0.51749 0.0
C71 C 0.92661 0.49035 0.53259 0.0
C72 C 0.95684 0.46338 0.5495 0.0
C73 C 0.99818 0.47636 0.54382 0.0
N74 N 0.0482 0.58315 0.53791 0.0
C75 C 0.05623 0.63871 0.58498 0.0
C76 C 0.01473 0.62773 0.56959 0.0
C77 C 0.01151 0.60006 0.54649 0.0
C78 C 0.09364 0.62163 0.57611 0.0
C79 C 0.08891 0.59456 0.5526 0.0
N80 N 0.03701 0.50086 0.47418 0.0
C81 C 0.99171 0.45947 0.43768 0.0
C82 C 0.02902 0.43862 0.43144 0.0
C83 C 0.07047 0.4504 0.44642 0.0
C84 C 0.07367 0.48137 0.46742 0.0
C85 C 0.99641 0.49021 0.45893 0.0
H86 H 0.10617 0.48847 0.47822 0.0
H87 H 0.9667 0.5046 0.46286 0.0
H88 H 0.97894 0.59291 0.53593 0.0
H89 H 0.11875 0.58318 0.54685 0.0
C90 C 0.15179 0.53387 0.51539 0.0
C91 C 0.03915 0.45442 0.55727 0.0
C92 C 0.04553 0.62693 0.45202 0.0
C93 C 0.93347 0.55091 0.49707 0.0
H94 H 0.12734 0.42683 0.58211 0.0
H95 H 0.1895 0.46979 0.55905 0.0
H96 H 0.19352 0.59004 0.47742 0.0
H97 H 0.13516 0.63987 0.44227 0.0
H98 H 0.9576 0.66106 0.43282 0.0
H99 H 0.89613 0.61898 0.45677 0.0
H100 H 0.89101 0.48963 0.53122 0.0
H101 H 0.94916 0.43689 0.5641 0.0
H102 H 0.98463 0.64081 0.575 0.0
H103 H 0.12662 0.62867 0.58737 0.0
H104 H 0.95887 0.45206 0.42631 0.0
H105 H 0.10041 0.43495 0.44268 0.0
Mg106 Mg 0.10293 0.02923 0.27572 0.0
O107 O 0.03527 0.02679 0.24442 0.0
O108 O 0.98523 0.01201 0.27405 0.0
Mg109 Mg 0.01889 0.00366 0.32247 0.0
C110 C 0.99526 0.0203 0.24828 0.0
C111 C 0.17908 0.06538 0.24847 0.0
O112 O 0.19368 0.06015 0.27718 0.0
O113 O 0.08416 0.09466 0.28999 0.0
O114 O 0.03628 0.07527 0.32026 0.0
O115 O 0.11481 0.9589 0.27414 0.0
O116 O 0.07961 0.98725 0.30662 0.0
C117 C 0.0585 0.10392 0.30807 0.0
C118 C 0.09343 0.9535 0.29619 0.0
O119 O 0.13844 0.05806 0.23906 0.0
Mg120 Mg 0.0155 0.02535 0.74303 0.0
O121 O 0.0848 0.0342 0.77075 0.0
O122 O 0.13275 0.03245 0.73896 0.0
Mg123 Mg 0.0964 0.01879 0.69267 0.0
C124 C 0.12423 0.03667 0.76504 0.0
C125 C 0.93876 0.04545 0.7738 0.0
O126 O 0.92078 0.03614 0.74678 0.0
O127 O 0.01741 0.09417 0.72225 0.0
O128 O 0.06218 0.0839 0.68929 0.0
O129 O 0.02071 0.95337 0.75017 0.0
O130 O 0.04242 0.99085 0.71292 0.0
C131 C 0.03635 0.1076 0.70055 0.0
C132 C 0.03873 0.95417 0.72648 0.0
O133 O 0.98075 0.04587 0.78041 0.0
C134 C 0.40994 0.04972 0.11526 0.0
C135 C 0.40945 0.0771 0.08967 0.0
C136 C 0.37607 0.05165 0.1322 0.0
C137 C 0.34083 0.08098 0.12385 0.0
C138 C 0.3398 0.10755 0.09787 0.0
C139 C 0.3739 0.10592 0.0811 0.0
C140 C 0.30429 0.08383 0.14138 0.0
C141 C 0.31053 0.07591 0.17109 0.0
C142 C 0.27498 0.07781 0.18956 0.0
C143 C 0.28746 0.08173 0.22023 0.0
C144 C 0.25595 0.07973 0.23904 0.0
C145 C 0.21101 0.07335 0.2277 0.0
H146 H 0.21877 0.06896 0.15452 0.0
C147 C 0.19809 0.07083 0.19685 0.0
C148 C 0.22975 0.07294 0.17793 0.0
H149 H 0.16377 0.06562 0.18742 0.0
H150 H 0.43685 0.02716 0.12242 0.0
H151 H 0.37733 0.02974 0.15159 0.0
H152 H 0.3128 0.13003 0.09072 0.0
H153 H 0.37222 0.12696 0.06122 0.0
H154 H 0.27223 0.0949 0.12963 0.0
H155 H 0.34379 0.06884 0.18283 0.0
H156 H 0.32197 0.0855 0.22984 0.0
H157 H 0.26714 0.08189 0.26267 0.0
C158 C 0.02609 0.4106 0.60288 0.0
C159 C 0.03753 0.41276 0.57436 0.0
C160 C 0.02594 0.37111 0.61906 0.0
C161 C 0.03753 0.33331 0.60689 0.0
C162 C 0.04912 0.33593 0.57837 0.0
C163 C 0.0489 0.3752 0.5622 0.0
C164 C 0.03962 0.29062 0.62314 0.0
C165 C 0.01768 0.27952 0.6457 0.0
C166 C 0.01933 0.23502 0.65944 0.0
C167 C 0.01417 0.22749 0.68933 0.0
C168 C 0.01824 0.18584 0.70288 0.0
C169 C 0.0277 0.15129 0.68667 0.0
H170 H 0.0275 0.20368 0.61945 0.0
C171 C 0.03056 0.15869 0.65645 0.0
C172 C 0.0259 0.19981 0.64293 0.0
H173 H 0.03652 0.13251 0.64312 0.0
H174 H 0.01771 0.43951 0.61267 0.0
H175 H 0.0178 0.3706 0.6412 0.0
H176 H 0.05836 0.3074 0.5685 0.0
H177 H 0.05798 0.37636 0.54025 0.0
H178 H 0.05983 0.26676 0.61535 0.0
H179 H 0.99838 0.30314 0.65447 0.0
H180 H 0.0082 0.25396 0.70239 0.0
H181 H 0.0155 0.18092 0.72616 0.0
C182 C 0.7298 0.05516 0.07993 0.0
C183 C 0.69086 0.07102 0.0877 0.0
C184 C 0.76845 0.05069 0.10108 0.0
C185 C 0.7688 0.06229 0.13044 0.0
C186 C 0.72973 0.07876 0.13787 0.0
C187 C 0.69114 0.08304 0.11674 0.0
C188 C 0.80788 0.05541 0.1545 0.0
C189 C 0.84933 0.04669 0.15012 0.0
C190 C 0.88673 0.03824 0.17515 0.0
C191 C 0.9303 0.04713 0.17086 0.0
C192 C 0.96589 0.04049 0.19432 0.0
C193 C 0.95859 0.02447 0.22251 0.0
H194 H 0.84698 0.01152 0.20694 0.0
C195 C 0.91511 0.01404 0.22637 0.0
C196 C 0.87972 0.02062 0.20302 0.0
H197 H 0.90818 0.00098 0.2476 0.0
H198 H 0.72995 0.04525 0.05764 0.0
H199 H 0.79725 0.03695 0.0944 0.0
H200 H 0.72879 0.0877 0.16029 0.0
H201 H 0.66123 0.0949 0.12322 0.0
H202 H 0.80202 0.05842 0.17706 0.0
H203 H 0.85687 0.04728 0.12775 0.0
H204 H 0.93675 0.06008 0.14949 0.0
H205 H 0.99894 0.0487 0.19049 0.0
C206 C 0.09526 0.69823 0.61343 0.0
C207 C 0.06037 0.66861 0.60946 0.0
C208 C 0.09774 0.72801 0.6352 0.0
C209 C 0.06474 0.72961 0.65317 0.0
C210 C 0.03106 0.69876 0.65015 0.0
C211 C 0.02889 0.6686 0.6286 0.0
C212 C 0.06293 0.76397 0.67416 0.0
C213 C 0.08274 0.80226 0.67135 0.0
C214 C 0.07446 0.84002 0.68792 0.0
C215 C 0.08169 0.88075 0.67508 0.0
C216 C 0.07111 0.91757 0.68809 0.0
C217 C 0.05364 0.91475 0.71465 0.0
H218 H 0.05357 0.80611 0.72618 0.0
C219 C 0.0481 0.87405 0.72835 0.0
C220 C 0.05844 0.83692 0.71513 0.0
H221 H 0.03489 0.87083 0.74891 0.0
H222 H 0.12016 0.69936 0.59917 0.0
H223 H 0.12539 0.74987 0.63747 0.0
H224 H 0.00556 0.6987 0.66396 0.0
H225 H 0.00223 0.64552 0.62682 0.0
H226 H 0.0407 0.75912 0.69021 0.0
H227 H 0.10215 0.8082 0.65376 0.0
H228 H 0.09415 0.8842 0.65423 0.0
H229 H 0.07544 0.94819 0.67666 0.0
C230 C 0.38537 0.06268 0.93407 0.0
C231 C 0.42688 0.07308 0.92665 0.0
C232 C 0.34833 0.05979 0.91177 0.0
C233 C 0.35231 0.06736 0.88162 0.0
C234 C 0.39408 0.07799 0.87446 0.0
C235 C 0.431 0.08097 0.89677 0.0
C236 C 0.31467 0.06219 0.85692 0.0
C237 C 0.2716 0.0645 0.85977 0.0
C238 C 0.23418 0.05829 0.83495 0.0
C239 C 0.19188 0.04919 0.84173 0.0
C240 C 0.15599 0.04246 0.81916 0.0
C241 C 0.16162 0.0447 0.78921 0.0
H242 H 0.27072 0.07027 0.79828 0.0
C243 C 0.20372 0.05468 0.78239 0.0
C244 C 0.23942 0.06169 0.80487 0.0
H245 H 0.20919 0.0574 0.75955 0.0
H246 H 0.38186 0.05599 0.95709 0.0
H247 H 0.3172 0.05031 0.91831 0.0
H248 H 0.39824 0.08367 0.85148 0.0
H249 H 0.46294 0.08867 0.89069 0.0
H250 H 0.32348 0.05617 0.83554 0.0
H251 H 0.26298 0.07052 0.88122 0.0
H252 H 0.18663 0.04679 0.86462 0.0
H253 H 0.12399 0.03503 0.82522 0.0
C254 C 0.05599 0.39855 0.39168 0.0
C255 C 0.02478 0.40352 0.41057 0.0
C256 C 0.05371 0.36366 0.37371 0.0
C257 C 0.02013 0.33285 0.37431 0.0
C258 C 0.98802 0.33881 0.3923 0.0
C259 C 0.99039 0.37353 0.41032 0.0
C260 C 0.01769 0.29349 0.35739 0.0
C261 C 0.05262 0.2759 0.34802 0.0
C262 C 0.05115 0.23278 0.33574 0.0
C263 C 0.082 0.22228 0.31775 0.0
C264 C 0.08374 0.18083 0.3079 0.0
C265 C 0.05496 0.14885 0.31623 0.0
H266 H 0.9987 0.2069 0.35829 0.0
C267 C 0.02375 0.1596 0.33391 0.0
C268 C 0.02195 0.20087 0.34363 0.0
H269 H 0.00113 0.13583 0.34089 0.0
H270 H 0.08232 0.42162 0.39081 0.0
H271 H 0.07827 0.36117 0.35944 0.0
H272 H 0.96166 0.31574 0.39316 0.0
H273 H 0.96603 0.376 0.42478 0.0
H274 H 0.98617 0.27692 0.35431 0.0
H275 H 0.08411 0.29245 0.35043 0.0
H276 H 0.10522 0.24607 0.3116 0.0
H277 H 0.10833 0.17363 0.29442 0.0
C278 C 0.73083 0.04419 0.92583 0.0
C279 C 0.69381 0.07165 0.92065 0.0
C280 C 0.76076 0.04464 0.90578 0.0
C281 C 0.75423 0.07261 0.88008 0.0
C282 C 0.717 0.09967 0.87484 0.0
C283 C 0.68729 0.09939 0.89492 0.0
C284 C 0.78383 0.07294 0.85737 0.0
C285 C 0.82635 0.05958 0.86301 0.0
C286 C 0.85468 0.05844 0.83956 0.0
C287 C 0.90097 0.0594 0.84772 0.0
C288 C 0.9285 0.05636 0.82635 0.0
C289 C 0.91024 0.05183 0.79638 0.0
H290 H 0.80116 0.05192 0.80231 0.0
C291 C 0.86395 0.05113 0.78822 0.0
C292 C 0.83652 0.05422 0.8095 0.0
H293 H 0.84872 0.04732 0.76538 0.0
H294 H 0.73683 0.02253 0.9455 0.0
H295 H 0.78833 0.02242 0.91025 0.0
H296 H 0.71078 0.12114 0.85506 0.0
H297 H 0.65875 0.12048 0.89001 0.0
H298 H 0.77011 0.08616 0.83525 0.0
H299 H 0.84155 0.0502 0.88567 0.0
H300 H 0.91591 0.06225 0.87073 0.0
H301 H 0.96404 0.05676 0.83341 0.0
C302 C 0.0697 0.70096 0.43779 0.0
C303 C 0.04683 0.66334 0.42963 0.0
C304 C 0.07065 0.73535 0.41693 0.0
C305 C 0.04783 0.73303 0.38771 0.0
C306 C 0.02436 0.69572 0.37968 0.0
C307 C 0.02452 0.66081 0.40034 0.0
C308 C 0.0467 0.7701 0.36588 0.0
C309 C 0.08329 0.79269 0.36288 0.0
C310 C 0.08255 0.8318 0.34285 0.0
C311 C 0.11863 0.8406 0.32823 0.0
C312 C 0.12077 0.87931 0.31156 0.0
C313 C 0.08756 0.91049 0.31007 0.0
H314 H 0.02037 0.85653 0.35168 0.0
C315 C 0.05099 0.90138 0.32421 0.0
C316 C 0.04827 0.86218 0.34024 0.0
H317 H 0.02483 0.92474 0.32329 0.0
H318 H 0.08671 0.70373 0.46037 0.0
H319 H 0.08827 0.76415 0.42383 0.0
H320 H 0.00632 0.69342 0.35733 0.0
H321 H 0.00671 0.63202 0.39361 0.0
H322 H 0.01552 0.77814 0.35149 0.0
H323 H 0.11513 0.7818 0.37522 0.0
H324 H 0.14555 0.81775 0.33011 0.0
H325 H 0.14951 0.8857 0.30106 0.0
loop_
_geom_bond_atom_site_label_1
_geom_bond_atom_site_label_2
_geom_bond_distance
_geom_bond_site_symmetry_2
_ccdc_geom_bond_type
C0 C1 1.443 . S
C0 N4 1.376 . S
C0 C38 1.389 . S
C1 C0 1.443 . S
C1 C2 1.340 . S
C1 H41 0.951 . S
C2 C1 1.340 . S
C2 C3 1.439 . S
C2 H42 0.950 . S
C3 C2 1.439 . S
C3 N4 1.374 . S
C3 C37 1.397 . S
N4 C0 1.376 . S
N4 C3 1.374 . S
N4 Co5 2.008 . S
Co5 N4 2.008 . S
Co5 N6 1.995 1_554 S
Co5 N11 2.008 1_544 S
Co5 N16 1.995 1_545 S
Co5 N21 2.282 . S
Co5 N27 2.282 1_554 S
N6 Co5 1.995 1_556 S
N6 C7 1.376 . S
N6 C10 1.383 . S
C7 N6 1.376 . S
C7 C8 1.446 . S
C7 C37 1.389 1_556 S
C8 C7 1.446 . S
C8 C9 1.339 . S
C8 H43 0.949 . S
C9 C8 1.339 . S
C9 C10 1.439 . S
C9 H44 0.950 . S
C10 N6 1.383 . S
C10 C9 1.439 . S
C10 C39 1.392 . S
N11 Co5 2.008 1_566 S
N11 C12 1.376 1_565 S
N11 C15 1.374 . S
C12 N11 1.376 1_545 S
C12 C13 1.443 1_545 S
C12 C39 1.389 . S
C13 C12 1.443 1_565 S
C13 C14 1.340 . S
C13 H45 0.951 . S
C14 C13 1.340 . S
C14 C15 1.439 . S
C14 H46 0.950 . S
C15 N11 1.374 . S
C15 C14 1.439 . S
C15 C40 1.395 1_556 S
N16 Co5 1.995 1_565 S
N16 C17 1.376 . S
N16 C20 1.383 1_565 S
C17 N16 1.376 . S
C17 C18 1.446 . S
C17 C40 1.391 . S
C18 C17 1.446 . S
C18 C19 1.339 . S
C18 H47 0.949 . S
C19 C18 1.339 . S
C19 C20 1.438 1_565 S
C19 H48 0.950 . S
C20 N16 1.383 1_545 S
C20 C19 1.438 1_545 S
C20 C38 1.393 . S
N21 Co5 2.282 . S
N21 C24 1.332 . S
N21 C26 1.332 . S
C22 C23 1.386 . S
C22 C25 1.388 . S
C23 C22 1.386 . S
C23 C24 1.382 . S
C23 H49 0.950 1_545 S
C24 N21 1.332 . S
C24 C23 1.382 . S
C24 H35 0.952 1_545 S
C25 C22 1.388 . S
C25 C26 1.382 . S
C25 H50 0.950 . S
C26 N21 1.332 . S
C26 C25 1.382 . S
C26 H36 0.948 . S
N27 Co5 2.282 1_556 S
N27 C31 1.332 . S
N27 C32 1.332 . S
C28 C29 1.388 . S
C28 C32 1.382 . S
C28 H51 0.950 1_545 S
C29 C28 1.388 . S
C29 C30 1.386 . S
C30 C29 1.386 . S
C30 C31 1.382 . S
C30 H52 0.950 . S
C31 N27 1.332 . S
C31 C30 1.382 . S
C31 H33 0.952 . S
C32 N27 1.332 . S
C32 C28 1.382 . S
C32 H34 0.948 1_545 S
H33 C31 0.952 . S
H34 C32 0.948 1_565 S
H35 C24 0.952 1_565 S
H36 C26 0.948 . S
C37 C3 1.397 . S
C37 C7 1.389 1_554 S
C38 C0 1.389 . S
C38 C20 1.393 . S
C39 C10 1.392 . S
C39 C12 1.389 . S
C40 C15 1.395 1_554 S
C40 C17 1.391 . S
H41 C1 0.951 . S
H42 C2 0.950 . S
H43 C8 0.949 . S
H44 C9 0.950 . S
H45 C13 0.951 . S
H46 C14 0.950 . S
H47 C18 0.949 . S
H48 C19 0.950 . S
H49 C23 0.950 1_565 S
H50 C25 0.950 . S
H51 C28 0.950 1_565 S
H52 C30 0.950 . S
C53 C54 1.443 . S
C53 N57 1.376 . S
C53 C91 1.389 . S
C54 C53 1.443 . S
C54 C55 1.340 . S
C54 H94 0.951 . S
C55 C54 1.340 . S
C55 C56 1.439 . S
C55 H95 0.950 . S
C56 C55 1.439 . S
C56 N57 1.374 . S
C56 C90 1.395 . S
N57 C53 1.376 . S
N57 C56 1.374 . S
N57 Co58 2.008 . S
Co58 N57 2.008 . S
Co58 N59 1.995 . S
Co58 N64 2.008 . S
Co58 N69 1.995 . S
Co58 N74 2.282 . S
Co58 N80 2.282 . S
N59 Co58 1.995 . S
N59 C60 1.376 . S
N59 C63 1.383 . S
C60 N59 1.376 . S
C60 C61 1.446 . S
C60 C90 1.391 . S
C61 C60 1.446 . S
C61 C62 1.339 . S
C61 H96 0.949 . S
C62 C61 1.339 . S
C62 C63 1.439 . S
C62 H97 0.950 . S
C63 N59 1.383 . S
C63 C62 1.439 . S
C63 C92 1.392 . S
N64 Co58 2.008 . S
N64 C65 1.376 . S
N64 C68 1.374 1_455 S
C65 N64 1.376 . S
C65 C66 1.443 1_455 S
C65 C92 1.389 . S
C66 C65 1.443 1_655 S
C66 C67 1.340 . S
C66 H98 0.951 . S
C67 C66 1.340 . S
C67 C68 1.439 . S
C67 H99 0.950 . S
C68 N64 1.374 1_655 S
C68 C67 1.439 . S
C68 C93 1.395 . S
N69 Co58 1.995 . S
N69 C70 1.376 1_455 S
N69 C73 1.383 . S
C70 N69 1.376 1_655 S
C70 C71 1.446 . S
C70 C93 1.391 . S
C71 C70 1.446 . S
C71 C72 1.339 . S
C71 H100 0.949 . S
C72 C71 1.339 . S
C72 C73 1.439 1_655 S
C72 H101 0.950 . S
C73 N69 1.383 . S
C73 C72 1.439 1_455 S
C73 C91 1.392 . S
N74 Co58 2.282 . S
N74 C77 1.332 . S
N74 C79 1.332 . S
C75 C76 1.386 . S
C75 C78 1.388 . S
C76 C75 1.386 . S
C76 C77 1.382 . S
C76 H102 0.950 1_455 S
C77 N74 1.332 . S
C77 C76 1.382 . S
C77 H88 0.952 1_455 S
C78 C75 1.388 . S
C78 C79 1.382 . S
C78 H103 0.950 . S
C79 N74 1.332 . S
C79 C78 1.382 . S
C79 H89 0.948 . S
N80 Co58 2.282 . S
N80 C84 1.332 . S
N80 C85 1.332 . S
C81 C82 1.388 . S
C81 C85 1.382 . S
C81 H104 0.950 1_455 S
C82 C81 1.388 . S
C82 C83 1.386 . S
C83 C82 1.386 . S
C83 C84 1.382 . S
C83 H105 0.950 . S
C84 N80 1.332 . S
C84 C83 1.382 . S
C84 H86 0.952 . S
C85 N80 1.332 . S
C85 C81 1.382 . S
C85 H87 0.948 1_455 S
H86 C84 0.952 . S
H87 C85 0.948 1_655 S
H88 C77 0.952 1_655 S
H89 C79 0.948 . S
C90 C56 1.395 . S
C90 C60 1.391 . S
C91 C53 1.389 . S
C91 C73 1.392 . S
C92 C63 1.392 . S
C92 C65 1.389 . S
C93 C68 1.395 . S
C93 C70 1.391 . S
H94 C54 0.951 . S
H95 C55 0.950 . S
H96 C61 0.949 . S
H97 C62 0.950 . S
H98 C66 0.951 . S
H99 C67 0.950 . S
H100 C71 0.949 . S
H101 C72 0.950 . S
H102 C76 0.950 1_655 S
H103 C78 0.950 . S
H104 C81 0.950 1_655 S
H105 C83 0.950 . S
Mg106 O107 2.028 . S
Mg106 O113 1.986 . S
Mg106 O115 2.114 1_545 S
Mg106 O116 2.251 . S
Mg106 O119 2.010 . S
O107 Mg106 2.028 . S
O107 C110 1.250 1_455 S
O108 Mg109 2.028 . S
O108 C110 1.248 . S
Mg109 O108 2.028 . S
Mg109 O114 2.032 1_655 S
Mg109 O116 2.079 1_655 S
C110 O107 1.250 1_655 S
C110 O108 1.248 . S
C111 O112 1.264 . S
C111 O119 1.249 . S
O112 C111 1.264 . S
O113 Mg106 1.986 . S
O113 C117 1.246 . S
O114 Mg109 2.032 1_455 S
O114 C117 1.259 . S
O115 Mg106 2.114 1_565 S
O115 C118 1.252 . S
O116 Mg106 2.251 . S
O116 Mg109 2.079 1_455 S
O116 C118 1.273 1_545 S
C117 O113 1.246 . S
C117 O114 1.259 . S
C118 O115 1.252 . S
C118 O116 1.273 1_565 S
O119 Mg106 2.010 . S
O119 C111 1.249 . S
Mg120 O121 2.028 . S
Mg120 O127 1.986 . S
Mg120 O129 2.114 1_545 S
Mg120 O130 2.251 . S
Mg120 O133 2.010 1_455 S
O121 Mg120 2.028 . S
O121 C124 1.250 . S
O122 Mg123 2.028 . S
O122 C124 1.248 . S
Mg123 O122 2.028 . S
Mg123 O128 2.032 . S
Mg123 O130 2.079 . S
C124 O121 1.250 . S
C124 O122 1.248 . S
C125 O126 1.264 . S
C125 O133 1.249 . S
O126 C125 1.264 . S
O127 Mg120 1.986 . S
O127 C131 1.246 . S
O128 Mg123 2.032 . S
O128 C131 1.259 . S
O129 Mg120 2.114 1_565 S
O129 C132 1.252 . S
O130 Mg120 2.251 . S
O130 Mg123 2.079 . S
O130 C132 1.273 1_545 S
C131 O127 1.246 . S
C131 O128 1.259 . S
C132 O129 1.252 . S
C132 O130 1.273 1_565 S
O133 Mg120 2.010 1_655 S
O133 C125 1.249 . S
C134 C135 1.386 . S
C134 C136 1.383 . S
C134 H150 0.951 . S
C135 C134 1.386 . S
C135 C139 1.383 . S
C136 C134 1.383 . S
C136 C137 1.402 . S
C136 H151 0.951 . S
C137 C136 1.402 . S
C137 C138 1.375 . S
C137 C140 1.481 . S
C138 C137 1.375 . S
C138 C139 1.367 . S
C138 H152 0.951 . S
C139 C135 1.383 . S
C139 C138 1.367 . S
C139 H153 0.950 . S
C140 C137 1.481 . S
C140 C141 1.297 . S
C140 H154 0.950 . S
C141 C140 1.297 . S
C141 C142 1.479 . S
C141 H155 0.950 . S
C142 C141 1.479 . S
C142 C143 1.375 . S
C142 C148 1.404 . S
C143 C142 1.375 . S
C143 C144 1.369 . S
C143 H156 0.950 . S
C144 C143 1.369 . S
C144 C145 1.392 . S
C144 H157 0.951 . S
C145 C144 1.392 . S
C145 C147 1.384 . S
H146 C148 0.949 . S
C147 C145 1.384 . S
C147 C148 1.385 . S
C147 H149 0.950 . S
C148 C142 1.404 . S
C148 H146 0.949 . S
C148 C147 1.385 . S
H149 C147 0.950 . S
H150 C134 0.951 . S
H151 C136 0.951 . S
H152 C138 0.951 . S
H153 C139 0.950 . S
H154 C140 0.950 . S
H155 C141 0.950 . S
H156 C143 0.950 . S
H157 C144 0.951 . S
C158 C159 1.386 . S
C158 C160 1.383 . S
C158 H174 0.951 . S
C159 C158 1.386 . S
C159 C163 1.383 . S
C160 C158 1.383 . S
C160 C161 1.402 . S
C160 H175 0.951 . S
C161 C160 1.402 . S
C161 C162 1.375 . S
C161 C164 1.481 . S
C162 C161 1.375 . S
C162 C163 1.367 . S
C162 H176 0.951 . S
C163 C159 1.383 . S
C163 C162 1.367 . S
C163 H177 0.950 . S
C164 C161 1.481 . S
C164 C165 1.297 . S
C164 H178 0.950 . S
C165 C164 1.297 . S
C165 C166 1.479 . S
C165 H179 0.950 . S
C166 C165 1.479 . S
C166 C167 1.375 . S
C166 C172 1.404 . S
C167 C166 1.375 . S
C167 C168 1.369 . S
C167 H180 0.950 . S
C168 C167 1.369 . S
C168 C169 1.392 . S
C168 H181 0.951 . S
C169 C168 1.392 . S
C169 C171 1.384 . S
H170 C172 0.949 . S
C171 C169 1.384 . S
C171 C172 1.385 . S
C171 H173 0.950 . S
C172 C166 1.404 . S
C172 H170 0.949 . S
C172 C171 1.385 . S
H173 C171 0.950 . S
H174 C158 0.951 . S
H175 C160 0.951 . S
H176 C162 0.951 . S
H177 C163 0.950 . S
H178 C164 0.950 . S
H179 C165 0.950 . S
H180 C167 0.950 . S
H181 C168 0.951 . S
C182 C183 1.386 . S
C182 C184 1.383 . S
C182 H198 0.951 1_545 S
C183 C182 1.386 . S
C183 C187 1.383 . S
C184 C182 1.383 . S
C184 C185 1.402 . S
C184 H199 0.951 . S
C185 C184 1.402 . S
C185 C186 1.375 . S
C185 C188 1.481 . S
C186 C185 1.375 . S
C186 C187 1.367 . S
C186 H200 0.951 . S
C187 C183 1.383 . S
C187 C186 1.367 . S
C187 H201 0.950 . S
C188 C185 1.481 . S
C188 C189 1.297 . S
C188 H202 0.950 . S
C189 C188 1.297 . S
C189 C190 1.479 . S
C189 H203 0.950 . S
C190 C189 1.479 . S
C190 C191 1.375 . S
C190 C196 1.404 . S
C191 C190 1.375 . S
C191 C192 1.369 . S
C191 H204 0.950 1_545 S
C192 C191 1.369 . S
C192 C193 1.392 . S
C192 H205 0.951 1_545 S
C193 C192 1.392 . S
C193 C195 1.384 . S
H194 C196 0.949 . S
C195 C193 1.384 . S
C195 C196 1.385 . S
C195 H197 0.950 . S
C196 C190 1.404 . S
C196 H194 0.949 . S
C196 C195 1.385 . S
H197 C195 0.950 . S
H198 C182 0.951 1_565 S
H199 C184 0.951 . S
H200 C186 0.951 . S
H201 C187 0.950 . S
H202 C188 0.950 . S
H203 C189 0.950 . S
H204 C191 0.950 1_565 S
H205 C192 0.951 1_565 S
C206 C207 1.386 . S
C206 C208 1.383 . S
C206 H222 0.951 . S
C207 C206 1.386 . S
C207 C211 1.383 . S
C208 C206 1.383 . S
C208 C209 1.402 . S
C208 H223 0.951 . S
C209 C208 1.402 . S
C209 C210 1.375 1_455 S
C209 C212 1.481 . S
C210 C209 1.375 1_655 S
C210 C211 1.367 1_655 S
C210 H224 0.951 . S
C211 C207 1.383 . S
C211 C210 1.367 1_455 S
C211 H225 0.950 1_455 S
C212 C209 1.481 . S
C212 C213 1.297 . S
C212 H226 0.950 1_455 S
C213 C212 1.297 . S
C213 C214 1.479 . S
C213 H227 0.950 . S
C214 C213 1.479 . S
C214 C215 1.375 . S
C214 C220 1.404 . S
C215 C214 1.375 . S
C215 C216 1.369 . S
C215 H228 0.950 . S
C216 C215 1.369 . S
C216 C217 1.392 . S
C216 H229 0.951 . S
C217 C216 1.392 . S
C217 C219 1.384 . S
H218 C220 0.949 1_655 S
C219 C217 1.384 . S
C219 C220 1.385 . S
C219 H221 0.950 1_455 S
C220 C214 1.404 . S
C220 H218 0.949 1_455 S
C220 C219 1.385 . S
H221 C219 0.950 1_655 S
H222 C206 0.951 . S
H223 C208 0.951 . S
H224 C210 0.951 . S
H225 C211 0.950 1_655 S
H226 C212 0.950 1_655 S
H227 C213 0.950 . S
H228 C215 0.950 . S
H229 C216 0.951 . S
C230 C231 1.386 . S
C230 C232 1.383 . S
C230 H246 0.951 . S
C231 C230 1.386 . S
C231 C235 1.383 . S
C232 C230 1.383 . S
C232 C233 1.402 . S
C232 H247 0.951 . S
C233 C232 1.402 . S
C233 C234 1.375 . S
C233 C236 1.481 . S
C234 C233 1.375 . S
C234 C235 1.367 . S
C234 H248 0.951 . S
C235 C231 1.383 . S
C235 C234 1.367 . S
C235 H249 0.950 . S
C236 C233 1.481 . S
C236 C237 1.297 . S
C236 H250 0.950 . S
C237 C236 1.297 . S
C237 C238 1.479 . S
C237 H251 0.950 . S
C238 C237 1.479 . S
C238 C239 1.375 . S
C238 C244 1.404 . S
C239 C238 1.375 . S
C239 C240 1.369 . S
C239 H252 0.950 . S
C240 C239 1.369 . S
C240 C241 1.392 . S
C240 H253 0.951 . S
C241 C240 1.392 . S
C241 C243 1.384 . S
H242 C244 0.949 . S
C243 C241 1.384 . S
C243 C244 1.385 . S
C243 H245 0.950 . S
C244 C238 1.404 . S
C244 H242 0.949 . S
C244 C243 1.385 . S
H245 C243 0.950 . S
H246 C230 0.951 . S
H247 C232 0.951 . S
H248 C234 0.951 . S
H249 C235 0.950 . S
H250 C236 0.950 . S
H251 C237 0.950 . S
H252 C239 0.950 . S
H253 C240 0.951 . S
C254 C255 1.386 . S
C254 C256 1.383 . S
C254 H270 0.951 . S
C255 C254 1.386 . S
C255 C259 1.383 . S
C256 C254 1.383 . S
C256 C257 1.402 . S
C256 H271 0.951 . S
C257 C256 1.402 . S
C257 C258 1.375 . S
C257 C260 1.481 . S
C258 C257 1.375 . S
C258 C259 1.367 . S
C258 H272 0.951 . S
C259 C255 1.383 . S
C259 C258 1.367 . S
C259 H273 0.950 . S
C260 C257 1.481 . S
C260 C261 1.297 . S
C260 H274 0.950 . S
C261 C260 1.297 . S
C261 C262 1.479 . S
C261 H275 0.950 . S
C262 C261 1.479 . S
C262 C263 1.375 . S
C262 C268 1.404 . S
C263 C262 1.375 . S
C263 C264 1.369 . S
C263 H276 0.950 . S
C264 C263 1.369 . S
C264 C265 1.392 . S
C264 H277 0.951 . S
C265 C264 1.392 . S
C265 C267 1.384 . S
H266 C268 0.949 . S
C267 C265 1.384 . S
C267 C268 1.385 . S
C267 H269 0.950 . S
C268 C262 1.404 . S
C268 H266 0.949 . S
C268 C267 1.385 . S
H269 C267 0.950 . S
H270 C254 0.951 . S
H271 C256 0.951 . S
H272 C258 0.951 . S
H273 C259 0.950 . S
H274 C260 0.950 . S
H275 C261 0.950 . S
H276 C263 0.950 . S
H277 C264 0.951 . S
C278 C279 1.386 . S
C278 C280 1.383 . S
C278 H294 0.951 . S
C279 C278 1.386 . S
C279 C283 1.383 . S
C280 C278 1.383 . S
C280 C281 1.402 . S
C280 H295 0.951 . S
C281 C280 1.402 . S
C281 C282 1.375 . S
C281 C284 1.481 . S
C282 C281 1.375 . S
C282 C283 1.367 . S
C282 H296 0.951 . S
C283 C279 1.383 . S
C283 C282 1.367 . S
C283 H297 0.950 . S
C284 C281 1.481 . S
C284 C285 1.297 . S
C284 H298 0.950 . S
C285 C284 1.297 . S
C285 C286 1.479 . S
C285 H299 0.950 . S
C286 C285 1.479 . S
C286 C287 1.375 . S
C286 C292 1.404 . S
C287 C286 1.375 . S
C287 C288 1.369 . S
C287 H300 0.950 . S
C288 C287 1.369 . S
C288 C289 1.392 . S
C288 H301 0.951 . S
C289 C288 1.392 . S
C289 C291 1.384 . S
H290 C292 0.949 . S
C291 C289 1.384 . S
C291 C292 1.385 . S
C291 H293 0.950 . S
C292 C286 1.404 . S
C292 H290 0.949 . S
C292 C291 1.385 . S
H293 C291 0.950 . S
H294 C278 0.951 . S
H295 C280 0.951 . S
H296 C282 0.951 . S
H297 C283 0.950 . S
H298 C284 0.950 . S
H299 C285 0.950 . S
H300 C287 0.950 . S
H301 C288 0.951 . S
C302 C303 1.386 . S
C302 C304 1.383 . S
C302 H318 0.951 . S
C303 C302 1.386 . S
C303 C307 1.383 . S
C304 C302 1.383 . S
C304 C305 1.402 . S
C304 H319 0.951 . S
C305 C304 1.402 . S
C305 C306 1.375 . S
C305 C308 1.481 . S
C306 C305 1.375 . S
C306 C307 1.367 . S
C306 H320 0.951 1_455 S
C307 C303 1.383 . S
C307 C306 1.367 . S
C307 H321 0.950 1_455 S
C308 C305 1.481 . S
C308 C309 1.297 . S
C308 H322 0.950 . S
C309 C308 1.297 . S
C309 C310 1.479 . S
C309 H323 0.950 . S
C310 C309 1.479 . S
C310 C311 1.375 . S
C310 C316 1.404 . S
C311 C310 1.375 . S
C311 C312 1.369 . S
C311 H324 0.950 . S
C312 C311 1.369 . S
C312 C313 1.392 . S
C312 H325 0.951 . S
C313 C312 1.392 . S
C313 C315 1.384 . S
H314 C316 0.949 . S
C315 C313 1.384 . S
C315 C316 1.385 . S
C315 H317 0.950 . S
C316 C310 1.404 . S
C316 H314 0.949 . S
C316 C315 1.385 . S
H317 C315 0.950 . S
H318 C302 0.951 . S
H319 C304 0.951 . S
H320 C306 0.951 1_655 S
H321 C307 0.950 1_655 S
H322 C308 0.950 . S
H323 C309 0.950 . S
H324 C311 0.950 . S
H325 C312 0.951 . S
C145 C111 1.183 . S
C135 C22 1.495 . S
C169 C131 1.483 . S
C159 C91 1.494 . S
C193 C110 1.488 . S
C183 C38 1.494 . S
C217 C132 1.493 . S
C207 C75 1.503 . S
C241 C124 1.483 . S
C231 C39 1.496 . S
C265 C117 1.463 . S
C255 C82 1.493 . S
C289 C125 1.207 . S
C279 C29 1.496 . S
C303 C92 1.497 . S
C313 C118 1.492 . S
